# Generated by pormake.
# Topology sin, (3)-cn, num edge types: 1
# Building blocks:
#     Node 0, Type 0, BuildingBlock: OLANEW_clean_sbu_2, # of connection points: 3
#     Node 1, Type 0, BuildingBlock: OLANEW_clean_sbu_2, # of connection points: 3
#     Node 2, Type 0, BuildingBlock: OLANEW_clean_sbu_2, # of connection points: 3
#     Node 3, Type 0, BuildingBlock: OLANEW_clean_sbu_2, # of connection points: 3
#     Node 4, Type 0, BuildingBlock: OLANEW_clean_sbu_2, # of connection points: 3
#     Node 5, Type 0, BuildingBlock: OLANEW_clean_sbu_2, # of connection points: 3
#     Node 6, Type 0, BuildingBlock: OLANEW_clean_sbu_2, # of connection points: 3
#     Node 7, Type 0, BuildingBlock: OLANEW_clean_sbu_2, # of connection points: 3
#     Node 8, Type 0, BuildingBlock: OLANEW_clean_sbu_2, # of connection points: 3
#     Node 9, Type 0, BuildingBlock: OLANEW_clean_sbu_2, # of connection points: 3
#     Node 10, Type 0, BuildingBlock: OLANEW_clean_sbu_2, # of connection points: 3
#     Node 11, Type 0, BuildingBlock: OLANEW_clean_sbu_2, # of connection points: 3
#     Node 12, Type 0, BuildingBlock: OLANEW_clean_sbu_2, # of connection points: 3
#     Node 13, Type 0, BuildingBlock: OLANEW_clean_sbu_2, # of connection points: 3
#     Node 14, Type 0, BuildingBlock: OLANEW_clean_sbu_2, # of connection points: 3
#     Node 15, Type 0, BuildingBlock: OLANEW_clean_sbu_2, # of connection points: 3
#     Node 16, Type 0, BuildingBlock: OLANEW_clean_sbu_2, # of connection points: 3
#     Node 17, Type 0, BuildingBlock: OLANEW_clean_sbu_2, # of connection points: 3
#     Node 18, Type 0, BuildingBlock: OLANEW_clean_sbu_2, # of connection points: 3
#     Node 19, Type 0, BuildingBlock: OLANEW_clean_sbu_2, # of connection points: 3
#     Node 20, Type 0, BuildingBlock: OLANEW_clean_sbu_2, # of connection points: 3
#     Node 21, Type 0, BuildingBlock: OLANEW_clean_sbu_2, # of connection points: 3
#     Node 22, Type 0, BuildingBlock: OLANEW_clean_sbu_2, # of connection points: 3
#     Node 23, Type 0, BuildingBlock: OLANEW_clean_sbu_2, # of connection points: 3
#     Node 24, Type 0, BuildingBlock: OLANEW_clean_sbu_2, # of connection points: 3
#     Node 25, Type 0, BuildingBlock: OLANEW_clean_sbu_2, # of connection points: 3
#     Node 26, Type 0, BuildingBlock: OLANEW_clean_sbu_2, # of connection points: 3
#     Node 27, Type 0, BuildingBlock: OLANEW_clean_sbu_2, # of connection points: 3
#     Node 28, Type 0, BuildingBlock: OLANEW_clean_sbu_2, # of connection points: 3
#     Node 29, Type 0, BuildingBlock: OLANEW_clean_sbu_2, # of connection points: 3
#     Node 30, Type 0, BuildingBlock: OLANEW_clean_sbu_2, # of connection points: 3
#     Node 31, Type 0, BuildingBlock: OLANEW_clean_sbu_2, # of connection points: 3
#     Node 32, Type 0, BuildingBlock: OLANEW_clean_sbu_2, # of connection points: 3
#     Node 33, Type 0, BuildingBlock: OLANEW_clean_sbu_2, # of connection points: 3
#     Node 34, Type 0, BuildingBlock: OLANEW_clean_sbu_2, # of connection points: 3
#     Node 35, Type 0, BuildingBlock: OLANEW_clean_sbu_2, # of connection points: 3
#     Node 36, Type 0, BuildingBlock: OLANEW_clean_sbu_2, # of connection points: 3
#     Node 37, Type 0, BuildingBlock: OLANEW_clean_sbu_2, # of connection points: 3
#     Node 38, Type 0, BuildingBlock: OLANEW_clean_sbu_2, # of connection points: 3
#     Node 39, Type 0, BuildingBlock: OLANEW_clean_sbu_2, # of connection points: 3
#     Node 40, Type 0, BuildingBlock: OLANEW_clean_sbu_2, # of connection points: 3
#     Node 41, Type 0, BuildingBlock: OLANEW_clean_sbu_2, # of connection points: 3
#     Node 42, Type 0, BuildingBlock: OLANEW_clean_sbu_2, # of connection points: 3
#     Node 43, Type 0, BuildingBlock: OLANEW_clean_sbu_2, # of connection points: 3
#     Node 44, Type 0, BuildingBlock: OLANEW_clean_sbu_2, # of connection points: 3
#     Node 45, Type 0, BuildingBlock: OLANEW_clean_sbu_2, # of connection points: 3
#     Node 46, Type 0, BuildingBlock: OLANEW_clean_sbu_2, # of connection points: 3
#     Node 47, Type 0, BuildingBlock: OLANEW_clean_sbu_2, # of connection points: 3
#     Edge 48, Type (0, 0), BuildingBlock: OJICUG_clean_linker_0, # of connection points: 2
#     Edge 49, Type (0, 0), BuildingBlock: OJICUG_clean_linker_0, # of connection points: 2
#     Edge 50, Type (0, 0), BuildingBlock: OJICUG_clean_linker_0, # of connection points: 2
#     Edge 51, Type (0, 0), BuildingBlock: OJICUG_clean_linker_0, # of connection points: 2
#     Edge 52, Type (0, 0), BuildingBlock: OJICUG_clean_linker_0, # of connection points: 2
#     Edge 53, Type (0, 0), BuildingBlock: OJICUG_clean_linker_0, # of connection points: 2
#     Edge 54, Type (0, 0), BuildingBlock: OJICUG_clean_linker_0, # of connection points: 2
#     Edge 55, Type (0, 0), BuildingBlock: OJICUG_clean_linker_0, # of connection points: 2
#     Edge 56, Type (0, 0), BuildingBlock: OJICUG_clean_linker_0, # of connection points: 2
#     Edge 57, Type (0, 0), BuildingBlock: OJICUG_clean_linker_0, # of connection points: 2
#     Edge 58, Type (0, 0), BuildingBlock: OJICUG_clean_linker_0, # of connection points: 2
#     Edge 59, Type (0, 0), BuildingBlock: OJICUG_clean_linker_0, # of connection points: 2
#     Edge 60, Type (0, 0), BuildingBlock: OJICUG_clean_linker_0, # of connection points: 2
#     Edge 61, Type (0, 0), BuildingBlock: OJICUG_clean_linker_0, # of connection points: 2
#     Edge 62, Type (0, 0), BuildingBlock: OJICUG_clean_linker_0, # of connection points: 2
#     Edge 63, Type (0, 0), BuildingBlock: OJICUG_clean_linker_0, # of connection points: 2
#     Edge 64, Type (0, 0), BuildingBlock: OJICUG_clean_linker_0, # of connection points: 2
#     Edge 65, Type (0, 0), BuildingBlock: OJICUG_clean_linker_0, # of connection points: 2
#     Edge 66, Type (0, 0), BuildingBlock: OJICUG_clean_linker_0, # of connection points: 2
#     Edge 67, Type (0, 0), BuildingBlock: OJICUG_clean_linker_0, # of connection points: 2
#     Edge 68, Type (0, 0), BuildingBlock: OJICUG_clean_linker_0, # of connection points: 2
#     Edge 69, Type (0, 0), BuildingBlock: OJICUG_clean_linker_0, # of connection points: 2
#     Edge 70, Type (0, 0), BuildingBlock: OJICUG_clean_linker_0, # of connection points: 2
#     Edge 71, Type (0, 0), BuildingBlock: OJICUG_clean_linker_0, # of connection points: 2
#     Edge 72, Type (0, 0), BuildingBlock: OJICUG_clean_linker_0, # of connection points: 2
#     Edge 73, Type (0, 0), BuildingBlock: OJICUG_clean_linker_0, # of connection points: 2
#     Edge 74, Type (0, 0), BuildingBlock: OJICUG_clean_linker_0, # of connection points: 2
#     Edge 75, Type (0, 0), BuildingBlock: OJICUG_clean_linker_0, # of connection points: 2
#     Edge 76, Type (0, 0), BuildingBlock: OJICUG_clean_linker_0, # of connection points: 2
#     Edge 77, Type (0, 0), BuildingBlock: OJICUG_clean_linker_0, # of connection points: 2
#     Edge 78, Type (0, 0), BuildingBlock: OJICUG_clean_linker_0, # of connection points: 2
#     Edge 79, Type (0, 0), BuildingBlock: OJICUG_clean_linker_0, # of connection points: 2
#     Edge 80, Type (0, 0), BuildingBlock: OJICUG_clean_linker_0, # of connection points: 2
#     Edge 81, Type (0, 0), BuildingBlock: OJICUG_clean_linker_0, # of connection points: 2
#     Edge 82, Type (0, 0), BuildingBlock: OJICUG_clean_linker_0, # of connection points: 2
#     Edge 83, Type (0, 0), BuildingBlock: OJICUG_clean_linker_0, # of connection points: 2
#     Edge 84, Type (0, 0), BuildingBlock: OJICUG_clean_linker_0, # of connection points: 2
#     Edge 85, Type (0, 0), BuildingBlock: OJICUG_clean_linker_0, # of connection points: 2
#     Edge 86, Type (0, 0), BuildingBlock: OJICUG_clean_linker_0, # of connection points: 2
#     Edge 87, Type (0, 0), BuildingBlock: OJICUG_clean_linker_0, # of connection points: 2
#     Edge 88, Type (0, 0), BuildingBlock: OJICUG_clean_linker_0, # of connection points: 2
#     Edge 89, Type (0, 0), BuildingBlock: OJICUG_clean_linker_0, # of connection points: 2
#     Edge 90, Type (0, 0), BuildingBlock: OJICUG_clean_linker_0, # of connection points: 2
#     Edge 91, Type (0, 0), BuildingBlock: OJICUG_clean_linker_0, # of connection points: 2
#     Edge 92, Type (0, 0), BuildingBlock: OJICUG_clean_linker_0, # of connection points: 2
#     Edge 93, Type (0, 0), BuildingBlock: OJICUG_clean_linker_0, # of connection points: 2
#     Edge 94, Type (0, 0), BuildingBlock: OJICUG_clean_linker_0, # of connection points: 2
#     Edge 95, Type (0, 0), BuildingBlock: OJICUG_clean_linker_0, # of connection points: 2
#     Edge 96, Type (0, 0), BuildingBlock: OJICUG_clean_linker_0, # of connection points: 2
#     Edge 97, Type (0, 0), BuildingBlock: OJICUG_clean_linker_0, # of connection points: 2
#     Edge 98, Type (0, 0), BuildingBlock: OJICUG_clean_linker_0, # of connection points: 2
#     Edge 99, Type (0, 0), BuildingBlock: OJICUG_clean_linker_0, # of connection points: 2
#     Edge 100, Type (0, 0), BuildingBlock: OJICUG_clean_linker_0, # of connection points: 2
#     Edge 101, Type (0, 0), BuildingBlock: OJICUG_clean_linker_0, # of connection points: 2
#     Edge 102, Type (0, 0), BuildingBlock: OJICUG_clean_linker_0, # of connection points: 2
#     Edge 103, Type (0, 0), BuildingBlock: OJICUG_clean_linker_0, # of connection points: 2
#     Edge 104, Type (0, 0), BuildingBlock: OJICUG_clean_linker_0, # of connection points: 2
#     Edge 105, Type (0, 0), BuildingBlock: OJICUG_clean_linker_0, # of connection points: 2
#     Edge 106, Type (0, 0), BuildingBlock: OJICUG_clean_linker_0, # of connection points: 2
#     Edge 107, Type (0, 0), BuildingBlock: OJICUG_clean_linker_0, # of connection points: 2
#     Edge 108, Type (0, 0), BuildingBlock: OJICUG_clean_linker_0, # of connection points: 2
#     Edge 109, Type (0, 0), BuildingBlock: OJICUG_clean_linker_0, # of connection points: 2
#     Edge 110, Type (0, 0), BuildingBlock: OJICUG_clean_linker_0, # of connection points: 2
#     Edge 111, Type (0, 0), BuildingBlock: OJICUG_clean_linker_0, # of connection points: 2
#     Edge 112, Type (0, 0), BuildingBlock: OJICUG_clean_linker_0, # of connection points: 2
#     Edge 113, Type (0, 0), BuildingBlock: OJICUG_clean_linker_0, # of connection points: 2
#     Edge 114, Type (0, 0), BuildingBlock: OJICUG_clean_linker_0, # of connection points: 2
#     Edge 115, Type (0, 0), BuildingBlock: OJICUG_clean_linker_0, # of connection points: 2
#     Edge 116, Type (0, 0), BuildingBlock: OJICUG_clean_linker_0, # of connection points: 2
#     Edge 117, Type (0, 0), BuildingBlock: OJICUG_clean_linker_0, # of connection points: 2
#     Edge 118, Type (0, 0), BuildingBlock: OJICUG_clean_linker_0, # of connection points: 2
#     Edge 119, Type (0, 0), BuildingBlock: OJICUG_clean_linker_0, # of connection points: 2
# Relax obj value: 0.030
# Max RMSD: 0.041
# Mean RMSD: 0.025
data_MOF--net-sin--node1-OLANEW_clean_sbu_2--edge1-OJICUG_clean_linker_0
_symmetry_space_group_name_H-M    P1
_symmetry_Int_Tables_number       1
_symmetry_cell_setting            triclinic
loop_
_symmetry_equiv_pos_as_xyz
'x, y, z'
_cell_length_a     62.713234
_cell_length_b     62.70746
_cell_length_c     62.709047
_cell_angle_alpha  89.613623
_cell_angle_beta   89.61882
_cell_angle_gamma 89.613706
loop_
_atom_site_label
_atom_site_type_symbol
_atom_site_fract_x
_atom_site_fract_y
_atom_site_fract_z
_atom_type_partial_charge
O0 O 0.97395 0.34602 0.43007 0.0
Cd1 Cd 0.97966 0.38057 0.44698 0.0
O2 O 0.00258 0.33202 0.44486 0.0
Cd3 Cd 0.01657 0.3625 0.45331 0.0
O4 O 0.04329 0.38324 0.44514 0.0
C5 C 0.05569 0.37594 0.43076 0.0
O6 O 0.05153 0.35722 0.42253 0.0
C7 C 0.98575 0.32988 0.4339 0.0
C8 C 0.9411 0.40085 0.45701 0.0
O9 O 0.95121 0.40538 0.43976 0.0
O10 O 0.94922 0.38679 0.46953 0.0
O11 O 0.95318 0.94792 0.30438 0.0
Cd12 Cd 0.94715 0.98199 0.3222 0.0
O13 O 0.98666 0.95131 0.31369 0.0
Cd14 Cd 0.01948 0.93941 0.31211 0.0
O15 O 0.04977 0.92394 0.30417 0.0
C16 C 0.06106 0.93075 0.28868 0.0
O17 O 0.05449 0.94754 0.27786 0.0
C18 C 0.97207 0.94054 0.30491 0.0
C19 C 0.92582 0.97656 0.36104 0.0
O20 O 0.91565 0.98191 0.34414 0.0
O21 O 0.94604 0.97383 0.35959 0.0
O22 O 0.73546 0.84907 0.95609 0.0
Cd23 Cd 0.74338 0.82668 0.98719 0.0
O24 O 0.70153 0.84192 0.96023 0.0
Cd25 Cd 0.66762 0.84129 0.9518 0.0
O26 O 0.63442 0.83236 0.94617 0.0
C27 C 0.62871 0.82652 0.92771 0.0
O28 O 0.64276 0.82689 0.91207 0.0
C29 C 0.71628 0.85155 0.95008 0.0
C30 C 0.78221 0.80485 0.98386 0.0
O31 O 0.7648 0.79631 0.97767 0.0
O32 O 0.78125 0.82376 0.99144 0.0
O33 O 0.72775 0.23219 0.8099 0.0
Cd34 Cd 0.72819 0.20247 0.83534 0.0
O35 O 0.69347 0.22656 0.80661 0.0
Cd36 Cd 0.66126 0.23599 0.79674 0.0
O37 O 0.63108 0.25142 0.78833 0.0
C38 C 0.62632 0.25559 0.76907 0.0
O39 O 0.63963 0.24998 0.75381 0.0
C40 C 0.70996 0.2373 0.80166 0.0
C41 C 0.74874 0.2129 0.87318 0.0
O42 O 0.75866 0.20297 0.85827 0.0
O43 O 0.72914 0.21792 0.87019 0.0
O44 O 0.9978 0.84294 0.28127 0.0
Cd45 Cd 0.00561 0.80731 0.26747 0.0
O46 O 0.99999 0.85794 0.24948 0.0
Cd47 Cd 0.0177 0.83023 0.23778 0.0
O48 O 0.04481 0.80813 0.2398 0.0
C49 C 0.05529 0.80867 0.25708 0.0
O50 O 0.04912 0.82195 0.27207 0.0
C51 C 0.99539 0.85919 0.26923 0.0
C52 C 0.96829 0.78809 0.25339 0.0
O53 O 0.97564 0.7841 0.27203 0.0
O54 O 0.97869 0.80099 0.24135 0.0
O55 O 0.71484 0.91692 0.86926 0.0
Cd56 Cd 0.70577 0.94119 0.83993 0.0
O57 O 0.68054 0.91133 0.87202 0.0
Cd58 Cd 0.65171 0.89603 0.88429 0.0
O59 O 0.6221 0.88297 0.89704 0.0
C60 C 0.61495 0.88923 0.91496 0.0
O61 O 0.62582 0.90333 0.92575 0.0
C62 C 0.69937 0.90775 0.87866 0.0
C63 C 0.73366 0.93923 0.80514 0.0
O64 O 0.73649 0.9527 0.82013 0.0
O65 O 0.71782 0.92649 0.80678 0.0
O66 O 0.70748 0.33129 0.75698 0.0
Cd67 Cd 0.70108 0.36545 0.73896 0.0
O68 O 0.68103 0.3157 0.74046 0.0
Cd69 Cd 0.66761 0.34563 0.72854 0.0
O70 O 0.64357 0.37086 0.73093 0.0
C71 C 0.63957 0.37755 0.74964 0.0
O72 O 0.65073 0.36981 0.76562 0.0
C73 C 0.69689 0.31457 0.75296 0.0
C74 C 0.73905 0.38684 0.7301 0.0
O75 O 0.72812 0.39105 0.74692 0.0
O76 O 0.73203 0.37254 0.71749 0.0
O77 O 0.95937 0.24464 0.38021 0.0
Cd78 Cd 0.96196 0.21427 0.356 0.0
O79 O 0.99416 0.24229 0.38279 0.0
Cd80 Cd 0.02491 0.25558 0.39229 0.0
O81 O 0.05153 0.27546 0.40223 0.0
C82 C 0.05966 0.2738 0.42069 0.0
O83 O 0.05213 0.25948 0.43409 0.0
C84 C 0.97671 0.25144 0.38792 0.0
C85 C 0.9405 0.22097 0.31765 0.0
O86 O 0.93157 0.21108 0.33324 0.0
O87 O 0.95951 0.22783 0.32024 0.0
O88 O 0.42198 0.97493 0.35673 0.0
Cd89 Cd 0.44026 0.98263 0.3901 0.0
O90 O 0.43501 0.00284 0.33981 0.0
Cd91 Cd 0.44493 0.01816 0.36924 0.0
O92 O 0.4398 0.04283 0.39318 0.0
C93 C 0.45073 0.05982 0.39293 0.0
O94 O 0.46631 0.06176 0.37895 0.0
C95 C 0.42445 0.9856 0.33959 0.0
C96 C 0.45381 0.9445 0.4091 0.0
O97 O 0.43624 0.95344 0.41476 0.0
O98 O 0.46511 0.95374 0.39471 0.0
O99 O 0.23319 0.81765 0.72716 0.0
Cd100 Cd 0.20413 0.84371 0.72431 0.0
O101 O 0.23016 0.81339 0.69264 0.0
Cd102 Cd 0.24229 0.80181 0.66191 0.0
O103 O 0.26168 0.78955 0.63556 0.0
C104 C 0.25365 0.78139 0.61896 0.0
O105 O 0.23281 0.78024 0.61735 0.0
C106 C 0.2394 0.80869 0.71008 0.0
C107 C 0.2128 0.88153 0.74571 0.0
O108 O 0.20171 0.8668 0.75459 0.0
O109 O 0.21984 0.87836 0.72675 0.0
O110 O 0.27787 0.20993 0.83975 0.0
Cd111 Cd 0.27071 0.20469 0.87776 0.0
O112 O 0.2617 0.18143 0.82774 0.0
Cd113 Cd 0.25582 0.1681 0.85952 0.0
O114 O 0.25663 0.1435 0.88441 0.0
C115 C 0.2409 0.13105 0.88697 0.0
O116 O 0.22379 0.134 0.8753 0.0
C117 C 0.27192 0.19855 0.82422 0.0
C118 C 0.25823 0.24371 0.89514 0.0
O119 O 0.27792 0.23929 0.89173 0.0
O120 O 0.24433 0.22952 0.8908 0.0
O121 O 0.44859 0.36663 0.23413 0.0
Cd122 Cd 0.47883 0.34188 0.23571 0.0
O123 O 0.45655 0.37182 0.20039 0.0
Cd124 Cd 0.44807 0.38343 0.16851 0.0
O125 O 0.42901 0.39711 0.14276 0.0
C126 C 0.4363 0.41035 0.12917 0.0
O127 O 0.45642 0.41595 0.13011 0.0
C128 C 0.44451 0.37558 0.21637 0.0
C129 C 0.46714 0.30311 0.25435 0.0
O130 O 0.47607 0.31766 0.26537 0.0
O131 O 0.46382 0.30686 0.23453 0.0
O132 O 0.40904 0.19583 0.34814 0.0
Cd133 Cd 0.42669 0.18695 0.31442 0.0
O134 O 0.43095 0.1756 0.36675 0.0
Cd135 Cd 0.44256 0.15883 0.33854 0.0
O136 O 0.44095 0.1321 0.31644 0.0
C137 C 0.42244 0.12685 0.31032 0.0
O138 O 0.40599 0.13832 0.31666 0.0
C139 C 0.41587 0.18925 0.36609 0.0
C140 C 0.44063 0.22402 0.29394 0.0
O141 O 0.4229 0.2154 0.28891 0.0
O142 O 0.45186 0.21499 0.30846 0.0
O143 O 0.45688 0.79851 0.45742 0.0
Cd144 Cd 0.48784 0.8218 0.46002 0.0
O145 O 0.45701 0.79621 0.4923 0.0
Cd146 Cd 0.44191 0.7889 0.52308 0.0
O147 O 0.42079 0.78102 0.54979 0.0
C148 C 0.42541 0.76662 0.56338 0.0
O149 O 0.4436 0.75626 0.56157 0.0
C150 C 0.44849 0.79155 0.47458 0.0
C151 C 0.47814 0.86242 0.44415 0.0
O152 O 0.4875 0.8485 0.43242 0.0
O153 O 0.47355 0.8572 0.46343 0.0
O154 O 0.2515 0.988 0.84831 0.0
Cd155 Cd 0.23929 0.99717 0.81243 0.0
O156 O 0.23283 0.01351 0.86369 0.0
Cd157 Cd 0.22596 0.02949 0.83348 0.0
O158 O 0.2305 0.05415 0.80919 0.0
C159 C 0.24953 0.05751 0.80298 0.0
O160 O 0.26491 0.04539 0.81059 0.0
C161 C 0.24492 0.9972 0.86515 0.0
C162 C 0.23034 0.96007 0.78991 0.0
O163 O 0.24836 0.96938 0.78775 0.0
O164 O 0.21649 0.96842 0.80249 0.0
O165 O 0.2527 0.38676 0.95028 0.0
Cd166 Cd 0.22117 0.36793 0.9379 0.0
O167 O 0.23995 0.39401 0.98221 0.0
Cd168 Cd 0.24422 0.40512 0.01505 0.0
O169 O 0.2571 0.4145 0.04596 0.0
C170 C 0.26441 0.43315 0.04867 0.0
O171 O 0.26322 0.44707 0.03298 0.0
C172 C 0.25498 0.39514 0.96851 0.0
C173 C 0.23245 0.32708 0.92434 0.0
O174 O 0.23567 0.34346 0.91247 0.0
O175 O 0.22363 0.32986 0.94261 0.0
O176 O 0.35268 0.42614 0.98326 0.0
Cd177 Cd 0.38738 0.44209 0.9902 0.0
O178 O 0.33571 0.4476 0.0053 0.0
Cd179 Cd 0.3652 0.45709 0.0207 0.0
O180 O 0.38836 0.45128 0.04595 0.0
C181 C 0.38097 0.44173 0.06233 0.0
O182 O 0.36057 0.43708 0.06292 0.0
C183 C 0.33528 0.43319 0.99114 0.0
C184 C 0.40702 0.45321 0.95167 0.0
O185 O 0.4116 0.43559 0.96111 0.0
O186 O 0.39341 0.46567 0.96058 0.0
O187 O 0.83946 0.25598 0.20741 0.0
Cd188 Cd 0.87432 0.24005 0.19972 0.0
O189 O 0.82359 0.2413 0.18003 0.0
Cd190 Cd 0.85349 0.23128 0.16509 0.0
O191 O 0.87747 0.23342 0.13979 0.0
C192 C 0.88323 0.25209 0.13439 0.0
O193 O 0.87537 0.26844 0.14491 0.0
C194 C 0.82258 0.25236 0.19693 0.0
C195 C 0.89659 0.23348 0.23765 0.0
O196 O 0.89968 0.25023 0.22625 0.0
O197 O 0.88319 0.21974 0.23099 0.0
O198 O 0.82362 0.73416 0.23943 0.0
Cd199 Cd 0.85135 0.73234 0.21189 0.0
O200 O 0.81914 0.69988 0.23454 0.0
Cd201 Cd 0.80654 0.66892 0.24478 0.0
O202 O 0.79249 0.64293 0.26338 0.0
C203 C 0.78462 0.62639 0.25497 0.0
O204 O 0.7849 0.62453 0.23411 0.0
C205 C 0.81414 0.71695 0.24432 0.0
C206 C 0.8895 0.75042 0.22528 0.0
O207 O 0.8762 0.76117 0.21402 0.0
O208 O 0.88477 0.73115 0.23022 0.0
O209 O 0.84842 0.92678 0.69903 0.0
Cd210 Cd 0.81213 0.93969 0.6926 0.0
O211 O 0.86219 0.94612 0.67305 0.0
Cd212 Cd 0.83124 0.95527 0.66006 0.0
O213 O 0.8062 0.95328 0.63614 0.0
C214 C 0.80055 0.93464 0.63079 0.0
O215 O 0.80915 0.91816 0.64063 0.0
C216 C 0.86464 0.93329 0.68865 0.0
C217 C 0.78735 0.93898 0.72973 0.0
O218 O 0.78745 0.92318 0.71686 0.0
O219 O 0.79897 0.9551 0.72504 0.0
O220 O 0.37592 0.94122 0.26003 0.0
Cd221 Cd 0.35496 0.92846 0.23005 0.0
O222 O 0.37662 0.97437 0.2485 0.0
Cd223 Cd 0.38283 0.00847 0.2527 0.0
O224 O 0.38926 0.04069 0.26406 0.0
C225 C 0.40821 0.04686 0.26745 0.0
O226 O 0.42418 0.03381 0.2634 0.0
C227 C 0.38173 0.96042 0.26244 0.0
C228 C 0.31308 0.91986 0.24256 0.0
O229 O 0.32822 0.90657 0.24632 0.0
O230 O 0.31763 0.93726 0.23276 0.0
O231 O 0.35005 0.7618 0.46587 0.0
Cd232 Cd 0.31176 0.75488 0.46765 0.0
O233 O 0.35854 0.7472 0.49671 0.0
Cd234 Cd 0.32569 0.74255 0.50735 0.0
O235 O 0.30172 0.74852 0.5321 0.0
C236 C 0.30911 0.75423 0.55 0.0
O237 O 0.32989 0.75551 0.5522 0.0
C238 C 0.36409 0.75641 0.47945 0.0
C239 C 0.29693 0.74334 0.42747 0.0
O240 O 0.29998 0.76291 0.43223 0.0
O241 O 0.30061 0.72911 0.44177 0.0
O242 O 0.79861 0.461 0.45472 0.0
Cd243 Cd 0.82152 0.4616 0.48608 0.0
O244 O 0.79503 0.49573 0.45705 0.0
Cd245 Cd 0.78691 0.52694 0.44328 0.0
O246 O 0.77906 0.55358 0.42204 0.0
C247 C 0.76433 0.56699 0.42616 0.0
O248 O 0.75346 0.56511 0.44404 0.0
C249 C 0.79117 0.47843 0.44735 0.0
C250 C 0.86073 0.44203 0.47727 0.0
O251 O 0.84566 0.43169 0.48649 0.0
O252 O 0.85733 0.46162 0.47238 0.0
O253 O 0.91668 0.73181 0.9469 0.0
Cd254 Cd 0.90045 0.73524 0.98227 0.0
O255 O 0.91709 0.69708 0.95153 0.0
Cd256 Cd 0.92121 0.66472 0.93904 0.0
O257 O 0.92611 0.63762 0.91778 0.0
C258 C 0.94006 0.62324 0.92126 0.0
O259 O 0.95178 0.6243 0.9385 0.0
C260 C 0.92121 0.71332 0.93997 0.0
C261 C 0.86213 0.75817 0.98152 0.0
O262 O 0.87991 0.76753 0.98482 0.0
O263 O 0.8625 0.73798 0.97846 0.0
O264 O 0.45714 0.83445 0.9408 0.0
Cd265 Cd 0.45996 0.87121 0.95311 0.0
O266 O 0.48241 0.82076 0.96096 0.0
Cd267 Cd 0.49445 0.85159 0.97069 0.0
O268 O 0.52428 0.86718 0.96208 0.0
C269 C 0.53359 0.85877 0.9461 0.0
O270 O 0.52445 0.84262 0.93664 0.0
C271 C 0.46774 0.81837 0.94732 0.0
C272 C 0.41941 0.88787 0.96133 0.0
O273 O 0.42672 0.8866 0.94226 0.0
O274 O 0.43134 0.88154 0.97667 0.0
O275 O 0.46309 0.45437 0.80607 0.0
Cd276 Cd 0.46287 0.48467 0.83044 0.0
O277 O 0.49753 0.45938 0.80334 0.0
Cd278 Cd 0.52996 0.4496 0.79435 0.0
O279 O 0.56025 0.43407 0.78639 0.0
C280 C 0.56531 0.42988 0.76719 0.0
O281 O 0.55227 0.43553 0.75182 0.0
C282 C 0.48105 0.44884 0.79834 0.0
C283 C 0.44478 0.4745 0.86997 0.0
O284 O 0.43374 0.48371 0.8554 0.0
O285 O 0.46435 0.47006 0.86583 0.0
O286 O 0.18997 0.35008 0.41871 0.0
Cd287 Cd 0.18195 0.31689 0.43775 0.0
O288 O 0.18745 0.3699 0.44747 0.0
Cd289 Cd 0.16958 0.34439 0.46307 0.0
O290 O 0.142 0.32355 0.45973 0.0
C291 C 0.1307 0.32741 0.44336 0.0
O292 O 0.13623 0.34322 0.43066 0.0
C293 C 0.19223 0.36799 0.42782 0.0
C294 C 0.21947 0.29493 0.44779 0.0
O295 O 0.20876 0.29019 0.43116 0.0
O296 O 0.21236 0.30992 0.45974 0.0
O297 O 0.2381 0.74392 0.28707 0.0
Cd298 Cd 0.25487 0.7119 0.30195 0.0
O299 O 0.20524 0.73348 0.29365 0.0
Cd300 Cd 0.17103 0.74063 0.29211 0.0
O301 O 0.14033 0.75677 0.28778 0.0
C302 C 0.13153 0.75762 0.26958 0.0
O303 O 0.1408 0.74803 0.25339 0.0
C304 C 0.21816 0.74757 0.2869 0.0
C305 C 0.26909 0.72065 0.34306 0.0
O306 O 0.27994 0.72621 0.32659 0.0
O307 O 0.25163 0.71059 0.34022 0.0
O308 O 0.48208 0.35501 0.75406 0.0
Cd309 Cd 0.48792 0.32123 0.73551 0.0
O310 O 0.51085 0.3693 0.73985 0.0
Cd311 Cd 0.52396 0.33901 0.72869 0.0
O312 O 0.54809 0.31388 0.73166 0.0
C313 C 0.55207 0.30754 0.75053 0.0
O314 O 0.54083 0.31551 0.76638 0.0
C315 C 0.49399 0.37112 0.75109 0.0
C316 C 0.44958 0.30073 0.72679 0.0
O317 O 0.46061 0.2956 0.7432 0.0
O318 O 0.45667 0.31552 0.71451 0.0
O319 O 0.23014 0.45209 0.3782 0.0
Cd320 Cd 0.2336 0.48306 0.35461 0.0
O321 O 0.19677 0.45107 0.36785 0.0
Cd322 Cd 0.16543 0.43631 0.37139 0.0
O323 O 0.13768 0.41845 0.38258 0.0
C324 C 0.12789 0.42421 0.39942 0.0
O325 O 0.13443 0.4412 0.40956 0.0
C326 C 0.21202 0.44317 0.37864 0.0
C327 C 0.25312 0.47182 0.31614 0.0
O328 O 0.26392 0.48002 0.33127 0.0
O329 O 0.2331 0.46905 0.31916 0.0
O330 O 0.1878 0.84554 0.28145 0.0
Cd331 Cd 0.18641 0.88449 0.27909 0.0
O332 O 0.19244 0.84077 0.247 0.0
Cd333 Cd 0.17755 0.87191 0.24202 0.0
O334 O 0.15036 0.89264 0.24933 0.0
C335 C 0.13783 0.88543 0.26364 0.0
O336 O 0.14225 0.86688 0.27249 0.0
C337 C 0.19232 0.83334 0.26591 0.0
C338 C 0.22703 0.89892 0.26786 0.0
O339 O 0.22242 0.89384 0.28716 0.0
O340 O 0.21231 0.89773 0.25386 0.0
O341 O 0.45089 0.73397 0.88892 0.0
Cd342 Cd 0.45527 0.70664 0.86159 0.0
O343 O 0.48553 0.73863 0.88749 0.0
Cd344 Cd 0.51444 0.7568 0.89477 0.0
O345 O 0.54358 0.77543 0.89905 0.0
C346 C 0.54697 0.78609 0.91587 0.0
O347 O 0.53259 0.78599 0.93119 0.0
C348 C 0.46742 0.74353 0.89537 0.0
C349 C 0.43289 0.71658 0.82446 0.0
O350 O 0.42465 0.70466 0.83897 0.0
O351 O 0.45166 0.72383 0.82754 0.0
O352 O 0.93452 0.47206 0.82778 0.0
Cd353 Cd 0.95374 0.47758 0.86107 0.0
O354 O 0.9497 0.49957 0.81204 0.0
Cd355 Cd 0.96218 0.51284 0.84148 0.0
O356 O 0.96207 0.53776 0.86568 0.0
C357 C 0.95068 0.55405 0.86134 0.0
O358 O 0.94046 0.55466 0.84312 0.0
C359 C 0.93771 0.48333 0.81113 0.0
C360 C 0.96077 0.43901 0.88245 0.0
O361 O 0.94496 0.45108 0.88745 0.0
O362 O 0.97328 0.44521 0.86744 0.0
O363 O 0.73906 0.29582 0.24152 0.0
Cd364 Cd 0.708 0.3154 0.25491 0.0
O365 O 0.72958 0.29779 0.20788 0.0
Cd366 Cd 0.73654 0.29423 0.17375 0.0
O367 O 0.75114 0.28949 0.14234 0.0
C368 C 0.75384 0.27087 0.13482 0.0
O369 O 0.74712 0.25435 0.14591 0.0
C370 C 0.74278 0.2917 0.22203 0.0
C371 C 0.71971 0.35633 0.26718 0.0
O372 O 0.72319 0.34015 0.27926 0.0
O373 O 0.71046 0.3533 0.2493 0.0
O374 O 0.76293 0.71716 0.33495 0.0
Cd375 Cd 0.74241 0.71106 0.36772 0.0
O376 O 0.74727 0.69074 0.31844 0.0
Cd377 Cd 0.73384 0.67698 0.34758 0.0
O378 O 0.73538 0.65165 0.37162 0.0
C379 C 0.74773 0.63621 0.36687 0.0
O380 O 0.7578 0.63669 0.34843 0.0
C381 C 0.75986 0.70656 0.31804 0.0
C382 C 0.73131 0.74933 0.38754 0.0
O383 O 0.74782 0.73869 0.39339 0.0
O384 O 0.72006 0.74186 0.37236 0.0
O385 O 0.95273 0.88552 0.71868 0.0
Cd386 Cd 0.98472 0.86305 0.7185 0.0
O387 O 0.95803 0.89005 0.68438 0.0
Cd388 Cd 0.94766 0.89951 0.65234 0.0
O389 O 0.93153 0.90734 0.62248 0.0
C390 C 0.92627 0.92642 0.61781 0.0
O391 O 0.93111 0.94179 0.63101 0.0
C392 C 0.94683 0.89355 0.70101 0.0
C393 C 0.97776 0.82399 0.73889 0.0
O394 O 0.98654 0.83944 0.74873 0.0
O395 O 0.97228 0.82699 0.71945 0.0
O396 O 0.94494 0.71007 0.83867 0.0
Cd397 Cd 0.95643 0.70419 0.80183 0.0
O398 O 0.96083 0.68086 0.85022 0.0
Cd399 Cd 0.96556 0.6674 0.81854 0.0
O400 O 0.95815 0.64279 0.79527 0.0
C401 C 0.94785 0.62695 0.80265 0.0
O402 O 0.94301 0.62653 0.82308 0.0
C403 C 0.95065 0.69804 0.85403 0.0
C404 C 0.96346 0.74297 0.78091 0.0
O405 O 0.94584 0.733 0.77872 0.0
O406 O 0.97777 0.73454 0.79283 0.0
O407 O 0.94988 0.29968 0.95206 0.0
Cd408 Cd 0.9826 0.32021 0.94737 0.0
O409 O 0.95759 0.29835 0.98607 0.0
Cd410 Cd 0.94979 0.29224 0.01966 0.0
O411 O 0.93567 0.28587 0.05097 0.0
C412 C 0.93199 0.26689 0.05717 0.0
O413 O 0.93734 0.25095 0.04469 0.0
C414 C 0.9451 0.29372 0.97089 0.0
C415 C 0.97528 0.35877 0.92612 0.0
O416 O 0.98199 0.34232 0.91601 0.0
O417 O 0.97203 0.35699 0.94624 0.0
O418 O 0.76504 0.47592 0.34772 0.0
Cd419 Cd 0.75865 0.4794 0.30946 0.0
O420 O 0.74617 0.50371 0.35811 0.0
Cd421 Cd 0.74172 0.51561 0.32567 0.0
O422 O 0.74847 0.54028 0.30185 0.0
C423 C 0.75349 0.55833 0.30936 0.0
O424 O 0.75352 0.56077 0.33017 0.0
C425 C 0.75753 0.48744 0.36261 0.0
C426 C 0.74599 0.44001 0.29368 0.0
O427 O 0.76568 0.44406 0.297 0.0
O428 O 0.7322 0.4547 0.29742 0.0
O429 O 0.72674 0.89073 0.45138 0.0
Cd430 Cd 0.69647 0.8666 0.44848 0.0
O431 O 0.72117 0.89028 0.48591 0.0
Cd432 Cd 0.73052 0.89631 0.51894 0.0
O433 O 0.74575 0.90219 0.54956 0.0
C434 C 0.74906 0.92106 0.55599 0.0
O435 O 0.74268 0.93725 0.5442 0.0
C436 C 0.732 0.89672 0.46991 0.0
C437 C 0.70793 0.82852 0.42853 0.0
O438 O 0.69943 0.8439 0.41794 0.0
O439 O 0.71099 0.83115 0.44852 0.0
O440 O 0.8259 0.94037 0.47395 0.0
Cd441 Cd 0.85968 0.95862 0.4798 0.0
O442 O 0.81118 0.95324 0.50314 0.0
Cd443 Cd 0.84125 0.96426 0.51632 0.0
O444 O 0.86639 0.96191 0.54019 0.0
C445 C 0.87337 0.94325 0.54428 0.0
O446 O 0.86597 0.92716 0.5333 0.0
C447 C 0.80964 0.9427 0.48596 0.0
C448 C 0.88161 0.96472 0.44138 0.0
O449 O 0.88618 0.94899 0.45372 0.0
O450 O 0.86679 0.97762 0.44725 0.0
O451 O 0.33245 0.76226 0.71366 0.0
Cd452 Cd 0.36672 0.74416 0.70809 0.0
O453 O 0.31781 0.74595 0.68652 0.0
Cd454 Cd 0.34796 0.7341 0.67358 0.0
O455 O 0.37202 0.73659 0.64837 0.0
C456 C 0.36687 0.74874 0.63289 0.0
O457 O 0.34807 0.75812 0.6333 0.0
C458 C 0.31612 0.75831 0.70244 0.0
C459 C 0.38779 0.73566 0.74634 0.0
O460 O 0.39182 0.75255 0.73546 0.0
O461 O 0.37376 0.72283 0.73918 0.0
O462 O 0.31063 0.23455 0.73405 0.0
Cd463 Cd 0.33136 0.23829 0.70112 0.0
O464 O 0.30653 0.20068 0.72683 0.0
Cd465 Cd 0.29864 0.16766 0.73515 0.0
O466 O 0.29 0.13707 0.74954 0.0
C467 C 0.2706 0.13267 0.75345 0.0
O468 O 0.25572 0.14656 0.7482 0.0
C469 C 0.30348 0.21634 0.73933 0.0
C470 C 0.37002 0.25857 0.7089 0.0
O471 O 0.35389 0.26909 0.70189 0.0
O472 O 0.36791 0.23849 0.71208 0.0
O473 O 0.34895 0.41622 0.20849 0.0
Cd474 Cd 0.31496 0.4336 0.20013 0.0
O475 O 0.36538 0.43171 0.18149 0.0
Cd476 Cd 0.33588 0.44149 0.16579 0.0
O477 O 0.3122 0.43913 0.1405 0.0
C478 C 0.31326 0.45126 0.12422 0.0
O479 O 0.32798 0.46606 0.12344 0.0
C480 C 0.36606 0.42021 0.19826 0.0
C481 C 0.29417 0.44655 0.23739 0.0
O482 O 0.28934 0.42897 0.22837 0.0
O483 O 0.30868 0.45807 0.22872 0.0
O484 O 0.8799 0.45376 0.72991 0.0
Cd485 Cd 0.85439 0.45386 0.70059 0.0
O486 O 0.88256 0.48833 0.72515 0.0
Cd487 Cd 0.89274 0.51981 0.73598 0.0
O488 O 0.90499 0.54593 0.75517 0.0
C489 C 0.91798 0.55966 0.74784 0.0
O490 O 0.92413 0.5585 0.7278 0.0
C491 C 0.88791 0.47148 0.73526 0.0
C492 C 0.81718 0.43171 0.71073 0.0
O493 O 0.83252 0.42261 0.7006 0.0
O494 O 0.81947 0.45123 0.71612 0.0
O495 O 0.8474 0.25988 0.981 0.0
Cd496 Cd 0.81234 0.24494 0.98916 0.0
O497 O 0.8619 0.24645 0.01003 0.0
Cd498 Cd 0.83155 0.23817 0.02514 0.0
O499 O 0.80769 0.24035 0.05064 0.0
C500 C 0.80354 0.25889 0.05769 0.0
O501 O 0.81294 0.27536 0.04871 0.0
C502 C 0.86378 0.25636 0.99237 0.0
C503 C 0.79116 0.2343 0.95171 0.0
O504 O 0.78745 0.25209 0.96103 0.0
O505 O 0.80473 0.2215 0.96018 0.0
O506 O 0.27811 0.94874 0.95088 0.0
Cd507 Cd 0.29227 0.9331 0.98369 0.0
O508 O 0.27656 0.98163 0.96282 0.0
Cd509 Cd 0.27209 0.01603 0.95758 0.0
O510 O 0.2677 0.04793 0.94381 0.0
C511 C 0.24937 0.0541 0.93766 0.0
O512 O 0.233 0.04141 0.9405 0.0
C513 C 0.27365 0.96832 0.94789 0.0
C514 C 0.33389 0.91848 0.97721 0.0
O515 O 0.31787 0.9077 0.97091 0.0
O516 O 0.33034 0.93614 0.98679 0.0
O517 O 0.3595 0.22622 0.44601 0.0
Cd518 Cd 0.3362 0.22945 0.47726 0.0
O519 O 0.37112 0.19572 0.45889 0.0
Cd520 Cd 0.38757 0.16488 0.45584 0.0
O521 O 0.4019 0.13494 0.44498 0.0
C522 C 0.42116 0.13417 0.43857 0.0
O523 O 0.4328 0.15148 0.43941 0.0
C524 C 0.37129 0.20977 0.44414 0.0
C525 C 0.2982 0.25079 0.46769 0.0
O526 O 0.31397 0.26073 0.47579 0.0
O527 O 0.30039 0.2308 0.46412 0.0
C528 C 0.91464 0.43056 0.45203 0.0
C529 C 0.92061 0.41147 0.46231 0.0
H530 H 0.89117 0.45534 0.44894 0.0
C531 C 0.9068 0.40258 0.47765 0.0
H532 H 0.92499 0.43783 0.44019 0.0
C533 C 0.88728 0.41244 0.48243 0.0
C534 C 0.88138 0.4316 0.47226 0.0
H535 H 0.91093 0.38785 0.4858 0.0
H536 H 0.8769 0.40513 0.49422 0.0
C537 C 0.89531 0.44063 0.4571 0.0
C538 C 0.91306 0.95837 0.41739 0.0
C539 C 0.89298 0.96784 0.42088 0.0
H540 H 0.93935 0.954 0.39582 0.0
C541 C 0.8838 0.98023 0.40455 0.0
H542 H 0.92055 0.94878 0.42971 0.0
C543 C 0.89438 0.98289 0.38503 0.0
C544 C 0.91455 0.9736 0.38161 0.0
H545 H 0.86831 0.98766 0.40676 0.0
H546 H 0.88686 0.99243 0.37268 0.0
C547 C 0.92384 0.96141 0.39803 0.0
C548 C 0.80329 0.77152 0.97662 0.0
C549 C 0.80273 0.79307 0.98265 0.0
H550 H 0.82245 0.7436 0.9716 0.0
C551 C 0.82193 0.80315 0.9879 0.0
H552 H 0.78877 0.76327 0.97249 0.0
C553 C 0.84124 0.79189 0.98728 0.0
C554 C 0.84177 0.77027 0.98154 0.0
H555 H 0.82206 0.81974 0.99257 0.0
H556 H 0.85574 0.80011 0.99154 0.0
C557 C 0.82259 0.76022 0.97614 0.0
C558 C 0.77847 0.2078 0.89922 0.0
C559 C 0.75958 0.21837 0.89328 0.0
H560 H 0.80309 0.20434 0.92254 0.0
C561 C 0.7511 0.23418 0.90673 0.0
H562 H 0.78534 0.19549 0.88922 0.0
C563 C 0.76144 0.23948 0.92564 0.0
C564 C 0.78023 0.22877 0.93169 0.0
H565 H 0.73659 0.24264 0.90253 0.0
H566 H 0.75461 0.25182 0.93563 0.0
C567 C 0.78858 0.21281 0.91834 0.0
C568 C 0.92115 0.75087 0.24942 0.0
C569 C 0.90973 0.75997 0.23239 0.0
H570 H 0.94851 0.7528 0.26959 0.0
C571 C 0.91779 0.77828 0.22223 0.0
H572 H 0.9153 0.73679 0.25759 0.0
C573 C 0.93698 0.78724 0.22887 0.0
C574 C 0.94827 0.7783 0.24607 0.0
H575 H 0.90937 0.7856 0.20902 0.0
H576 H 0.94282 0.80133 0.22071 0.0
C577 C 0.94013 0.76007 0.25632 0.0
C578 C 0.76312 0.95483 0.78292 0.0
C579 C 0.74791 0.93875 0.78623 0.0
H580 H 0.7874 0.96758 0.76244 0.0
C581 C 0.74609 0.92252 0.77102 0.0
H582 H 0.7649 0.96758 0.79432 0.0
C583 C 0.75908 0.92245 0.75281 0.0
C584 C 0.77404 0.93871 0.74932 0.0
H585 H 0.73456 0.90988 0.77311 0.0
H586 H 0.75719 0.90977 0.74133 0.0
C587 C 0.77598 0.95486 0.76462 0.0
C588 C 0.78288 0.42813 0.73111 0.0
C589 C 0.79733 0.42009 0.71589 0.0
H590 H 0.75326 0.42379 0.74773 0.0
C591 C 0.79254 0.40093 0.7055 0.0
H592 H 0.78616 0.44282 0.73943 0.0
C593 C 0.77356 0.39019 0.71004 0.0
C594 C 0.75915 0.3982 0.72532 0.0
H595 H 0.80333 0.39436 0.69365 0.0
H596 H 0.77024 0.37554 0.70167 0.0
C597 C 0.76407 0.4172 0.73591 0.0
C598 C 0.92602 0.24231 0.26289 0.0
C599 C 0.90793 0.23021 0.25804 0.0
H600 H 0.95064 0.24873 0.28543 0.0
C601 C 0.90062 0.21508 0.27297 0.0
H602 H 0.93205 0.25407 0.25169 0.0
C603 C 0.91107 0.21224 0.29243 0.0
C604 C 0.92926 0.22422 0.2972 0.0
H605 H 0.88667 0.20556 0.26974 0.0
H606 H 0.90501 0.2005 0.30363 0.0
C607 C 0.93669 0.23922 0.28219 0.0
C608 C 0.48189 0.89132 0.41664 0.0
C609 C 0.47245 0.88373 0.43558 0.0
H610 H 0.48363 0.91663 0.3936 0.0
C611 C 0.45721 0.89652 0.44604 0.0
H612 H 0.49374 0.88186 0.40826 0.0
C613 C 0.4512 0.91631 0.43748 0.0
C614 C 0.46059 0.92386 0.4185 0.0
H615 H 0.44962 0.89108 0.46064 0.0
H616 H 0.4392 0.92568 0.44575 0.0
C617 C 0.47616 0.91127 0.40829 0.0
C618 C 0.23815 0.93398 0.76075 0.0
C619 C 0.22574 0.94009 0.77845 0.0
H620 H 0.2436 0.91079 0.73634 0.0
C621 C 0.20904 0.92681 0.78528 0.0
H622 H 0.2511 0.94391 0.75509 0.0
C623 C 0.20497 0.90769 0.77476 0.0
C624 C 0.21726 0.90165 0.75696 0.0
H625 H 0.19926 0.93106 0.79893 0.0
H626 H 0.19205 0.89774 0.78046 0.0
C627 C 0.23382 0.91505 0.74998 0.0
C628 C 0.26365 0.28297 0.89744 0.0
C629 C 0.25175 0.26488 0.9031 0.0
H630 H 0.26648 0.31693 0.89934 0.0
C631 C 0.23349 0.26732 0.91597 0.0
H632 H 0.27772 0.28152 0.88742 0.0
C633 C 0.2274 0.28753 0.92328 0.0
C634 C 0.23906 0.30565 0.9172 0.0
H635 H 0.22408 0.25359 0.92057 0.0
H636 H 0.21334 0.28903 0.9333 0.0
C637 C 0.25717 0.30321 0.90415 0.0
C638 C 0.44548 0.26971 0.25441 0.0
C639 C 0.46066 0.28268 0.26427 0.0
H640 H 0.42704 0.24111 0.2562 0.0
C641 C 0.46944 0.27604 0.2838 0.0
H642 H 0.4384 0.27445 0.23938 0.0
C643 C 0.4632 0.25679 0.29324 0.0
C644 C 0.44775 0.244 0.28356 0.0
H645 H 0.48122 0.28567 0.29173 0.0
H646 H 0.47022 0.2521 0.30831 0.0
C647 C 0.43893 0.25067 0.26407 0.0
C648 C 0.44489 0.4539 0.90432 0.0
C649 C 0.43524 0.46917 0.89094 0.0
H650 H 0.44338 0.43669 0.93393 0.0
C651 C 0.41636 0.47928 0.89778 0.0
H652 H 0.45942 0.4458 0.89945 0.0
C653 C 0.40739 0.47433 0.91766 0.0
C654 C 0.41689 0.45886 0.93092 0.0
H655 H 0.40861 0.49117 0.88784 0.0
H656 H 0.39285 0.48241 0.9225 0.0
C657 C 0.43569 0.44865 0.92403 0.0
C658 C 0.26637 0.89724 0.27349 0.0
C659 C 0.24894 0.90508 0.2618 0.0
H660 H 0.30037 0.89544 0.27625 0.0
C661 C 0.25271 0.91821 0.24395 0.0
H662 H 0.26391 0.88698 0.28725 0.0
C663 C 0.27358 0.92347 0.23796 0.0
C664 C 0.29101 0.91515 0.24934 0.0
H665 H 0.23954 0.92448 0.23468 0.0
H666 H 0.27609 0.93361 0.22413 0.0
C667 C 0.28721 0.90198 0.26714 0.0
C668 C 0.28862 0.74454 0.3678 0.0
C669 C 0.2763 0.72621 0.36468 0.0
H670 H 0.30436 0.76456 0.39024 0.0
C671 C 0.27078 0.71349 0.38238 0.0
H672 H 0.293 0.75468 0.35445 0.0
C673 C 0.27773 0.71887 0.40281 0.0
C674 C 0.28975 0.7374 0.40595 0.0
H675 H 0.26132 0.69926 0.38038 0.0
H676 H 0.27343 0.70872 0.41619 0.0
C677 C 0.29501 0.75024 0.38828 0.0
C678 C 0.3814 0.8922 0.95064 0.0
C679 C 0.39764 0.89595 0.96542 0.0
H680 H 0.3483 0.89597 0.94313 0.0
C681 C 0.39284 0.90725 0.98413 0.0
H682 H 0.3847 0.88343 0.93615 0.0
C683 C 0.37215 0.91496 0.98782 0.0
C684 C 0.35583 0.91083 0.97322 0.0
H685 H 0.40513 0.91038 0.99573 0.0
H686 H 0.36882 0.92379 0.00227 0.0
C687 C 0.3606 0.89927 0.95467 0.0
C688 C 0.24433 0.26378 0.44365 0.0
C689 C 0.23954 0.28357 0.45297 0.0
H690 H 0.26651 0.23776 0.44123 0.0
C691 C 0.25419 0.29249 0.46718 0.0
H692 H 0.23333 0.25648 0.43267 0.0
C693 C 0.27333 0.28193 0.47181 0.0
C694 C 0.27804 0.26206 0.46264 0.0
H695 H 0.25098 0.30776 0.47455 0.0
H696 H 0.28436 0.28926 0.48274 0.0
C697 C 0.26329 0.25303 0.44859 0.0
C698 C 0.42466 0.26999 0.73138 0.0
C699 C 0.42926 0.28992 0.72215 0.0
H700 H 0.40245 0.24429 0.73416 0.0
C701 C 0.41426 0.29944 0.70846 0.0
H702 H 0.43595 0.26223 0.74195 0.0
C703 C 0.39493 0.28934 0.70428 0.0
C704 C 0.39041 0.26932 0.71336 0.0
H705 H 0.41734 0.31483 0.70116 0.0
H706 H 0.38361 0.29712 0.69377 0.0
C707 C 0.40552 0.25969 0.72686 0.0
C708 C 0.25375 0.45079 0.28236 0.0
C709 C 0.26348 0.46558 0.29586 0.0
H710 H 0.25599 0.43294 0.2534 0.0
C711 C 0.28327 0.47422 0.28989 0.0
H712 H 0.23853 0.44381 0.28659 0.0
C713 C 0.29308 0.46828 0.27072 0.0
C714 C 0.2835 0.45325 0.25737 0.0
H715 H 0.29111 0.48571 0.29995 0.0
H716 H 0.30832 0.47522 0.26652 0.0
C717 C 0.26378 0.44451 0.2634 0.0
C718 C 0.42838 0.73784 0.79079 0.0
C719 C 0.42115 0.72168 0.80465 0.0
H720 H 0.42339 0.75507 0.76163 0.0
C721 C 0.40273 0.71031 0.79928 0.0
H722 H 0.44249 0.74692 0.7945 0.0
C723 C 0.39192 0.71483 0.78033 0.0
C724 C 0.39913 0.731 0.76649 0.0
H725 H 0.39678 0.69774 0.8096 0.0
H726 H 0.37785 0.70569 0.77658 0.0
C727 C 0.4174 0.74255 0.77199 0.0
C728 C 0.95863 0.39514 0.92424 0.0
C729 C 0.9715 0.37926 0.91491 0.0
H730 H 0.9449 0.42638 0.92114 0.0
C731 C 0.98077 0.38317 0.89482 0.0
H732 H 0.95121 0.39255 0.93968 0.0
C733 C 0.97745 0.40267 0.88438 0.0
C734 C 0.96444 0.41848 0.89362 0.0
H735 H 0.99082 0.37126 0.88727 0.0
H736 H 0.9849 0.40527 0.86895 0.0
C737 C 0.95497 0.41447 0.9136 0.0
C738 C 0.7211 0.41628 0.2739 0.0
C739 C 0.73939 0.41873 0.28644 0.0
H740 H 0.7008 0.39449 0.25747 0.0
C741 C 0.7512 0.40057 0.29243 0.0
H742 H 0.71176 0.43005 0.26905 0.0
C743 C 0.7446 0.38028 0.28636 0.0
C744 C 0.72646 0.37782 0.27363 0.0
H745 H 0.76529 0.40203 0.3022 0.0
H746 H 0.75386 0.36651 0.2914 0.0
C747 C 0.71489 0.396 0.26724 0.0
C748 C 0.72816 0.79396 0.4279 0.0
C749 C 0.71398 0.80831 0.418 0.0
H750 H 0.74498 0.76418 0.4259 0.0
C751 C 0.70561 0.80315 0.39797 0.0
H752 H 0.73493 0.79754 0.4433 0.0
C753 C 0.71111 0.7839 0.38816 0.0
C754 C 0.7254 0.76962 0.39799 0.0
H755 H 0.6946 0.81386 0.38997 0.0
H756 H 0.7043 0.78031 0.37277 0.0
C757 C 0.73396 0.7749 0.41791 0.0
C758 C 0.95512 0.7696 0.75216 0.0
C759 C 0.96713 0.76366 0.77011 0.0
H760 H 0.94932 0.79323 0.72801 0.0
C761 C 0.98264 0.77772 0.77772 0.0
H762 H 0.9431 0.75906 0.74592 0.0
C763 C 0.98592 0.79744 0.76773 0.0
C764 C 0.97408 0.80327 0.74964 0.0
H765 H 0.99208 0.7736 0.79158 0.0
H766 H 0.99791 0.808 0.77401 0.0
C767 C 0.95873 0.78912 0.74188 0.0
C768 C 0.96553 0.30707 0.40829 0.0
C769 C 0.98115 0.30898 0.42415 0.0
H770 H 0.95188 0.28717 0.3843 0.0
C771 C 0.99363 0.29102 0.42946 0.0
H772 H 0.95558 0.32056 0.40391 0.0
C773 C 0.99139 0.27199 0.41834 0.0
C774 C 0.97687 0.27056 0.4015 0.0
H775 H 0.00557 0.2918 0.44183 0.0
H776 H 0.00133 0.25848 0.42268 0.0
C777 C 0.96338 0.28797 0.39708 0.0
C778 C 0.99378 0.88465 0.29953 0.0
C779 C 0.98846 0.87971 0.27843 0.0
H780 H 0.99299 0.90807 0.32426 0.0
C781 C 0.97713 0.89478 0.26616 0.0
H782 H 0.00261 0.87339 0.3093 0.0
C783 C 0.9712 0.91445 0.27493 0.0
C784 C 0.97715 0.91954 0.2958 0.0
H785 H 0.97279 0.89131 0.24987 0.0
H786 H 0.96249 0.92588 0.26525 0.0
C787 C 0.9884 0.90449 0.30805 0.0
C788 C 0.72665 0.8678 0.91506 0.0
C789 C 0.71152 0.86537 0.93151 0.0
H790 H 0.7345 0.88293 0.8853 0.0
C791 C 0.69244 0.87717 0.93059 0.0
H792 H 0.74161 0.85907 0.91548 0.0
C793 C 0.68847 0.89095 0.91344 0.0
C794 C 0.70338 0.89304 0.89674 0.0
H795 H 0.68094 0.87643 0.94351 0.0
H796 H 0.67407 0.90053 0.91371 0.0
C797 C 0.72261 0.88147 0.89783 0.0
C798 C 0.72062 0.27443 0.79177 0.0
C799 C 0.70819 0.25636 0.78781 0.0
H800 H 0.72679 0.3071 0.78388 0.0
C801 C 0.69356 0.25693 0.77099 0.0
H802 H 0.73218 0.27433 0.80453 0.0
C803 C 0.69039 0.27566 0.75921 0.0
C804 C 0.70197 0.29415 0.76388 0.0
H805 H 0.68446 0.24293 0.76697 0.0
H806 H 0.67856 0.27572 0.74671 0.0
C807 C 0.7175 0.29319 0.77995 0.0
C808 C 0.41893 0.98873 0.30011 0.0
C809 C 0.41437 0.97846 0.3196 0.0
H810 H 0.41296 0.99037 0.26657 0.0
C811 C 0.39963 0.96166 0.31989 0.0
H812 H 0.43047 0.0015 0.29925 0.0
C813 C 0.38923 0.9557 0.30124 0.0
C814 C 0.39333 0.96642 0.28192 0.0
H815 H 0.3958 0.95336 0.33461 0.0
H816 H 0.37765 0.94298 0.30203 0.0
C817 C 0.40865 0.98262 0.28143 0.0
C818 C 0.2589 0.77669 0.6964 0.0
C819 C 0.25805 0.7942 0.71019 0.0
H820 H 0.27785 0.75154 0.68319 0.0
C821 C 0.27559 0.79834 0.72329 0.0
H822 H 0.24526 0.77258 0.6868 0.0
C823 C 0.29425 0.78608 0.72149 0.0
C824 C 0.2956 0.76941 0.70662 0.0
H825 H 0.27524 0.81164 0.73423 0.0
H826 H 0.30785 0.79021 0.73115 0.0
C827 C 0.27751 0.76449 0.69453 0.0
C828 C 0.27802 0.19753 0.76402 0.0
C829 C 0.29363 0.21315 0.7606 0.0
H830 H 0.25891 0.18053 0.7868 0.0
C831 C 0.30048 0.22531 0.77795 0.0
H832 H 0.2716 0.18871 0.75079 0.0
C833 C 0.29284 0.22105 0.79851 0.0
C834 C 0.27818 0.20452 0.80216 0.0
H835 H 0.31235 0.23762 0.77577 0.0
H836 H 0.29899 0.23027 0.81163 0.0
C837 C 0.27051 0.1931 0.78461 0.0
C838 C 0.40577 0.41694 0.19533 0.0
C839 C 0.38654 0.41045 0.20493 0.0
H840 H 0.4394 0.41167 0.19231 0.0
C841 C 0.38699 0.39376 0.22002 0.0
H842 H 0.40606 0.43001 0.18394 0.0
C843 C 0.40608 0.38296 0.22443 0.0
C844 C 0.42501 0.38867 0.21383 0.0
H845 H 0.37248 0.38847 0.22782 0.0
H846 H 0.40583 0.36956 0.23542 0.0
C847 C 0.42483 0.40629 0.19991 0.0
C848 C 0.41415 0.19057 0.40597 0.0
C849 C 0.40553 0.19641 0.38612 0.0
H850 H 0.4105 0.19104 0.43994 0.0
C851 C 0.38638 0.2082 0.38566 0.0
H852 H 0.4291 0.18188 0.4069 0.0
C853 C 0.37559 0.21314 0.40461 0.0
C854 C 0.3837 0.20631 0.42435 0.0
H855 H 0.37936 0.21307 0.37065 0.0
H856 H 0.36052 0.22163 0.40376 0.0
C857 C 0.4034 0.19559 0.42489 0.0
C858 C 0.4229 0.76471 0.48949 0.0
C859 C 0.42795 0.78017 0.47401 0.0
H860 H 0.39874 0.74499 0.50339 0.0
C861 C 0.41266 0.78565 0.45862 0.0
H862 H 0.4347 0.75939 0.50089 0.0
C863 C 0.39216 0.77706 0.45971 0.0
C864 C 0.38658 0.76281 0.47622 0.0
H865 H 0.4162 0.79735 0.44634 0.0
H866 H 0.38044 0.78235 0.44819 0.0
C867 C 0.40237 0.75624 0.49071 0.0
C868 C 0.24361 0.99869 0.90509 0.0
C869 C 0.25172 0.98932 0.88638 0.0
H870 H 0.24359 0.99878 0.93924 0.0
C871 C 0.26665 0.97259 0.88816 0.0
H872 H 0.23186 0.01141 0.90431 0.0
C873 C 0.27363 0.96569 0.90819 0.0
C874 C 0.26592 0.97545 0.92682 0.0
H875 H 0.27316 0.96495 0.87409 0.0
H876 H 0.28535 0.95294 0.90909 0.0
C877 C 0.25054 0.99171 0.9251 0.0
C878 C 0.29533 0.43283 0.99194 0.0
C879 C 0.31466 0.42408 0.9845 0.0
H880 H 0.26123 0.43095 0.99207 0.0
C881 C 0.3141 0.40618 0.97113 0.0
H882 H 0.29519 0.44684 0.00194 0.0
C883 C 0.29465 0.39692 0.9658 0.0
C884 C 0.27541 0.4053 0.97381 0.0
H885 H 0.32869 0.39908 0.96504 0.0
H886 H 0.2947 0.38294 0.95573 0.0
C887 C 0.27589 0.42359 0.98654 0.0
C888 C 0.76374 0.26658 0.19898 0.0
C889 C 0.76294 0.28095 0.21603 0.0
H890 H 0.78319 0.24631 0.17949 0.0
C891 C 0.78162 0.28494 0.22751 0.0
H892 H 0.7494 0.26244 0.1905 0.0
C893 C 0.80093 0.27541 0.22152 0.0
C894 C 0.80193 0.26159 0.20397 0.0
H895 H 0.78139 0.29581 0.24087 0.0
H896 H 0.81512 0.27914 0.23047 0.0
C897 C 0.78306 0.25711 0.1929 0.0
C898 C 0.78899 0.72605 0.29851 0.0
C899 C 0.7721 0.7114 0.29833 0.0
H900 H 0.81559 0.73929 0.28141 0.0
C901 C 0.76794 0.70024 0.27944 0.0
H902 H 0.79254 0.73501 0.31274 0.0
C903 C 0.78104 0.70283 0.26154 0.0
C904 C 0.79873 0.71638 0.26221 0.0
H905 H 0.75485 0.6891 0.27861 0.0
H906 H 0.77749 0.69397 0.24726 0.0
C907 C 0.80217 0.72855 0.28057 0.0
C908 C 0.90884 0.89905 0.71204 0.0
C909 C 0.92639 0.90527 0.69951 0.0
H910 H 0.87547 0.903 0.71845 0.0
C911 C 0.92397 0.92219 0.68496 0.0
H912 H 0.91034 0.88617 0.72354 0.0
C913 C 0.90405 0.93179 0.68194 0.0
C914 C 0.88615 0.92479 0.6936 0.0
H915 H 0.93745 0.92793 0.67577 0.0
H916 H 0.90261 0.9444 0.67013 0.0
C917 C 0.88888 0.90867 0.70908 0.0
C918 C 0.78689 0.46488 0.41033 0.0
C919 C 0.78027 0.4788 0.42654 0.0
H920 H 0.78485 0.45662 0.37738 0.0
C921 C 0.76415 0.49383 0.42221 0.0
H922 H 0.79915 0.45298 0.41329 0.0
C923 C 0.75604 0.49607 0.40161 0.0
C924 C 0.76371 0.4831 0.38499 0.0
H925 H 0.75804 0.5041 0.43467 0.0
H926 H 0.74422 0.50839 0.39859 0.0
C927 C 0.77872 0.46702 0.38974 0.0
C928 C 0.95211 0.69072 0.89328 0.0
C929 C 0.94456 0.70329 0.87625 0.0
H930 H 0.95134 0.68466 0.92689 0.0
C931 C 0.93043 0.72025 0.88064 0.0
H932 H 0.96328 0.67775 0.89054 0.0
C933 C 0.9233 0.72392 0.9015 0.0
C934 C 0.9301 0.71066 0.91829 0.0
H935 H 0.9244 0.73032 0.86791 0.0
H936 H 0.91192 0.73667 0.90437 0.0
C937 C 0.94508 0.69449 0.91409 0.0
C938 C 0.4808 0.76337 0.92679 0.0
C939 C 0.46552 0.76107 0.91076 0.0
H940 H 0.49302 0.78301 0.95152 0.0
C941 C 0.44915 0.7763 0.90883 0.0
H942 H 0.49325 0.7515 0.92893 0.0
C943 C 0.44909 0.79449 0.9216 0.0
C944 C 0.46521 0.79751 0.93677 0.0
H945 H 0.43707 0.77471 0.89667 0.0
H946 H 0.43695 0.80658 0.91898 0.0
C947 C 0.48054 0.78133 0.93981 0.0
C948 C 0.49824 0.42862 0.76853 0.0
C949 C 0.48293 0.42964 0.78491 0.0
H950 H 0.51373 0.40938 0.74496 0.0
C951 C 0.46987 0.4119 0.78878 0.0
H952 H 0.50782 0.44237 0.76451 0.0
C953 C 0.47294 0.39305 0.77731 0.0
C954 C 0.48911 0.39163 0.76172 0.0
H955 H 0.45777 0.41235 0.80119 0.0
H956 H 0.4631 0.3794 0.78115 0.0
C957 C 0.50141 0.40978 0.75715 0.0
C958 C 0.19479 0.38756 0.39321 0.0
C959 C 0.19887 0.3868 0.4152 0.0
H960 H 0.19562 0.40628 0.36453 0.0
C961 C 0.20835 0.40446 0.42498 0.0
H962 H 0.1874 0.37426 0.38526 0.0
C963 C 0.21345 0.42265 0.41295 0.0
C964 C 0.20855 0.4236 0.39117 0.0
H965 H 0.21171 0.40424 0.4419 0.0
H966 H 0.22053 0.43621 0.42077 0.0
C967 C 0.19939 0.40588 0.38137 0.0
C968 C 0.21185 0.79961 0.2567 0.0
C969 C 0.19777 0.8108 0.27016 0.0
H970 H 0.22969 0.77067 0.25172 0.0
C971 C 0.18965 0.80059 0.28846 0.0
H972 H 0.21844 0.80718 0.24256 0.0
C973 C 0.19573 0.77971 0.29341 0.0
C974 C 0.21026 0.76875 0.28032 0.0
H975 H 0.17874 0.80884 0.2991 0.0
H976 H 0.18967 0.77242 0.30792 0.0
C977 C 0.21831 0.77882 0.26193 0.0
C978 C 0.91905 0.48724 0.75397 0.0
C979 C 0.9021 0.47275 0.75389 0.0
H980 H 0.94357 0.50199 0.77208 0.0
C981 C 0.89829 0.46015 0.77209 0.0
H982 H 0.92293 0.49648 0.73983 0.0
C983 C 0.91036 0.46301 0.79054 0.0
C984 C 0.92649 0.47849 0.79104 0.0
H985 H 0.88544 0.44869 0.77235 0.0
H986 H 0.90655 0.45362 0.80459 0.0
C987 C 0.93102 0.49021 0.77238 0.0
C988 C 0.92304 0.26765 0.99165 0.0
C989 C 0.92469 0.28283 0.9752 0.0
H990 H 0.90256 0.24743 0.01006 0.0
C991 C 0.90648 0.28797 0.96323 0.0
H992 H 0.93701 0.26258 0.00042 0.0
C993 C 0.88676 0.27894 0.96841 0.0
C994 C 0.88489 0.26458 0.98564 0.0
H995 H 0.90735 0.29948 0.9503 0.0
H996 H 0.87289 0.28367 0.95928 0.0
C997 C 0.90334 0.25875 0.99696 0.0
C998 C 0.77097 0.93582 0.4933 0.0
C999 C 0.78923 0.93231 0.48063 0.0
H1000 H 0.73829 0.928 0.49922 0.0
C1001 C 0.78797 0.91809 0.46344 0.0
H1002 H 0.77125 0.94693 0.50645 0.0
C1003 C 0.76914 0.90696 0.45958 0.0
C1004 C 0.75125 0.90978 0.47289 0.0
H1005 H 0.80169 0.91511 0.45329 0.0
H1006 H 0.7688 0.89564 0.44662 0.0
C1007 C 0.75215 0.92477 0.48936 0.0
C1008 C 0.09706 0.4195 0.42469 0.0
C1009 C 0.10949 0.41186 0.40759 0.0
H1010 H 0.07028 0.41423 0.44542 0.0
C1011 C 0.10419 0.39224 0.39839 0.0
H1012 H 0.10073 0.43456 0.43215 0.0
C1013 C 0.08683 0.38057 0.40604 0.0
C1014 C 0.07428 0.38829 0.42302 0.0
H1015 H 0.11349 0.38583 0.38527 0.0
H1016 H 0.08318 0.36554 0.39853 0.0
C1017 C 0.0796 0.40787 0.43229 0.0
C1018 C 0.10542 0.88951 0.28674 0.0
C1019 C 0.11846 0.89739 0.2702 0.0
H1020 H 0.0772 0.89383 0.30557 0.0
C1021 C 0.11266 0.91657 0.25998 0.0
H1022 H 0.10942 0.87479 0.29497 0.0
C1023 C 0.09408 0.92749 0.26606 0.0
C1024 C 0.08099 0.91951 0.28253 0.0
H1025 H 0.12237 0.92307 0.24719 0.0
H1026 H 0.08997 0.94215 0.25778 0.0
C1027 C 0.08693 0.90045 0.29285 0.0
C1028 C 0.57239 0.80705 0.93814 0.0
C1029 C 0.5673 0.79767 0.91853 0.0
H1030 H 0.59569 0.82362 0.95642 0.0
C1031 C 0.58211 0.79896 0.90165 0.0
H1032 H 0.56128 0.80651 0.95143 0.0
C1033 C 0.60179 0.80886 0.90448 0.0
C1034 C 0.60718 0.8176 0.92429 0.0
H1035 H 0.57864 0.79206 0.88628 0.0
H1036 H 0.61294 0.80924 0.89123 0.0
C1037 C 0.59214 0.81686 0.94101 0.0
C1038 C 0.58379 0.28602 0.73839 0.0
C1039 C 0.57018 0.2929 0.75491 0.0
H1040 H 0.61218 0.26883 0.72987 0.0
C1041 C 0.57465 0.28652 0.77595 0.0
H1042 H 0.58079 0.29064 0.722 0.0
C1043 C 0.59262 0.27405 0.78046 0.0
C1044 C 0.60656 0.26765 0.76404 0.0
H1045 H 0.56447 0.29147 0.78906 0.0
H1046 H 0.59575 0.26974 0.79691 0.0
C1047 C 0.6018 0.27353 0.74291 0.0
C1048 C 0.08482 0.79482 0.28009 0.0
C1049 C 0.07438 0.79501 0.26031 0.0
H1050 H 0.11088 0.78285 0.29855 0.0
C1051 C 0.0826 0.78235 0.24372 0.0
H1052 H 0.0789 0.80434 0.29323 0.0
C1053 C 0.10105 0.77004 0.24677 0.0
C1054 C 0.11159 0.77004 0.2665 0.0
H1055 H 0.07494 0.78214 0.2283 0.0
H1056 H 0.10711 0.76063 0.23361 0.0
C1057 C 0.10316 0.78245 0.28316 0.0
C1058 C 0.58564 0.88906 0.94237 0.0
C1059 C 0.59429 0.88127 0.92318 0.0
H1060 H 0.55961 0.88816 0.96467 0.0
C1061 C 0.58281 0.86607 0.91167 0.0
H1062 H 0.59408 0.9008 0.95162 0.0
C1063 C 0.56311 0.85885 0.91914 0.0
C1064 C 0.5544 0.86668 0.93828 0.0
H1065 H 0.58902 0.8597 0.89685 0.0
H1066 H 0.55471 0.8471 0.90986 0.0
C1067 C 0.56586 0.88187 0.94983 0.0
C1068 C 0.61681 0.39888 0.77465 0.0
C1069 C 0.62148 0.39229 0.75374 0.0
H1070 H 0.59553 0.41591 0.79528 0.0
C1071 C 0.60807 0.39907 0.7371 0.0
H1072 H 0.62682 0.39401 0.78784 0.0
C1073 C 0.59006 0.41166 0.74138 0.0
C1074 C 0.58509 0.41773 0.76239 0.0
H1075 H 0.61123 0.39429 0.72081 0.0
H1076 H 0.57983 0.41628 0.72827 0.0
C1077 C 0.59883 0.41144 0.77892 0.0
C1078 C 0.10587 0.29706 0.45147 0.0
C1079 C 0.11214 0.314 0.43808 0.0
H1080 H 0.08434 0.2711 0.45652 0.0
C1081 C 0.10072 0.31784 0.41921 0.0
H1082 H 0.11431 0.2937 0.46613 0.0
C1083 C 0.08365 0.30486 0.41366 0.0
C1084 C 0.07751 0.28777 0.42689 0.0
H1085 H 0.10508 0.33078 0.40855 0.0
H1086 H 0.0753 0.30823 0.39894 0.0
C1087 C 0.08869 0.28412 0.44595 0.0
C1088 C 0.45642 0.09692 0.40635 0.0
C1089 C 0.44435 0.07812 0.40642 0.0
H1090 H 0.45867 0.12932 0.41659 0.0
C1091 C 0.42532 0.07748 0.41839 0.0
H1092 H 0.47119 0.09793 0.39736 0.0
C1093 C 0.41807 0.09552 0.4293 0.0
C1094 C 0.42977 0.11454 0.42863 0.0
H1095 H 0.41564 0.06324 0.41883 0.0
H1096 H 0.40307 0.09465 0.43791 0.0
C1097 C 0.44925 0.11492 0.41741 0.0
C1098 C 0.28998 0.77388 0.60385 0.0
C1099 C 0.26771 0.7737 0.60151 0.0
H1100 H 0.32042 0.76777 0.58956 0.0
C1101 C 0.25909 0.7664 0.58226 0.0
H1102 H 0.29717 0.77928 0.6185 0.0
C1103 C 0.27248 0.7598 0.56558 0.0
C1104 C 0.29475 0.76031 0.56784 0.0
H1105 H 0.24199 0.76601 0.57996 0.0
H1106 H 0.26536 0.75451 0.55086 0.0
C1107 C 0.30333 0.76724 0.58723 0.0
C1108 C 0.26194 0.10731 0.91151 0.0
C1109 C 0.24257 0.11231 0.9014 0.0
H1110 H 0.2793 0.08504 0.93088 0.0
C1111 C 0.22515 0.09859 0.90431 0.0
H1112 H 0.27568 0.11754 0.90963 0.0
C1113 C 0.22721 0.07998 0.91656 0.0
C1114 C 0.24677 0.07462 0.92609 0.0
H1115 H 0.20999 0.10199 0.8968 0.0
H1116 H 0.21358 0.06955 0.91812 0.0
C1117 C 0.26403 0.08864 0.92367 0.0
C1118 C 0.41713 0.43894 0.07923 0.0
C1119 C 0.39514 0.43472 0.07986 0.0
H1120 H 0.44741 0.43459 0.09434 0.0
C1121 C 0.38678 0.42303 0.09715 0.0
H1122 H 0.42405 0.44794 0.06615 0.0
C1123 C 0.40014 0.4153 0.1132 0.0
C1124 C 0.42218 0.41917 0.11241 0.0
H1125 H 0.36991 0.41956 0.0982 0.0
H1126 H 0.39316 0.40618 0.12618 0.0
C1127 C 0.43051 0.43129 0.09538 0.0
C1128 C 0.39845 0.10116 0.29198 0.0
C1129 C 0.41913 0.10717 0.29788 0.0
H1130 H 0.37878 0.07752 0.27772 0.0
C1131 C 0.43635 0.09365 0.2927 0.0
H1132 H 0.38482 0.11121 0.29566 0.0
C1133 C 0.43287 0.07427 0.28239 0.0
C1134 C 0.4121 0.068 0.27704 0.0
H1135 H 0.45249 0.09782 0.29699 0.0
H1136 H 0.44644 0.06404 0.27899 0.0
C1137 C 0.39497 0.08181 0.28169 0.0
C1138 C 0.40195 0.74288 0.61414 0.0
C1139 C 0.3818 0.75282 0.61496 0.0
H1140 H 0.43153 0.73939 0.5972 0.0
C1141 C 0.37606 0.76707 0.59854 0.0
H1142 H 0.40684 0.7318 0.62653 0.0
C1143 C 0.39019 0.77146 0.58181 0.0
C1144 C 0.4104 0.76167 0.58105 0.0
H1145 H 0.36067 0.775 0.59864 0.0
H1146 H 0.38524 0.78259 0.56949 0.0
C1147 C 0.41609 0.74723 0.59733 0.0
C1148 C 0.27583 0.07996 0.78291 0.0
C1149 C 0.25461 0.07588 0.78892 0.0
H1150 H 0.29752 0.10098 0.76699 0.0
C1151 C 0.23853 0.09011 0.78225 0.0
H1152 H 0.28861 0.0693 0.78773 0.0
C1153 C 0.24366 0.10833 0.77034 0.0
C1154 C 0.26497 0.1127 0.76485 0.0
H1155 H 0.22201 0.08743 0.78658 0.0
H1156 H 0.23094 0.11918 0.76579 0.0
C1157 C 0.28096 0.09815 0.77102 0.0
C1158 C 0.28657 0.42924 0.10468 0.0
C1159 C 0.29941 0.44751 0.10559 0.0
H1160 H 0.26549 0.41034 0.08599 0.0
C1161 C 0.29973 0.46157 0.08804 0.0
H1162 H 0.28596 0.41807 0.11791 0.0
C1163 C 0.28787 0.4572 0.06979 0.0
C1164 C 0.27558 0.43858 0.06862 0.0
H1165 H 0.30942 0.4758 0.08823 0.0
H1166 H 0.2888 0.46816 0.0564 0.0
C1167 C 0.27487 0.42478 0.08636 0.0
C1168 C 0.91445 0.28003 0.09064 0.0
C1169 C 0.92076 0.26291 0.07765 0.0
H1170 H 0.89781 0.29003 0.11875 0.0
C1171 C 0.91559 0.24204 0.08408 0.0
H1172 H 0.91823 0.29631 0.08621 0.0
C1173 C 0.90387 0.23843 0.10281 0.0
C1174 C 0.89707 0.25562 0.11548 0.0
H1175 H 0.92026 0.22848 0.07447 0.0
H1176 H 0.89979 0.22219 0.1071 0.0
C1177 C 0.90274 0.27643 0.10933 0.0
C1178 C 0.76147 0.5734 0.27296 0.0
C1179 C 0.76038 0.57601 0.29519 0.0
H1180 H 0.76994 0.58727 0.24278 0.0
C1181 C 0.76664 0.59555 0.30395 0.0
H1182 H 0.75674 0.55855 0.26571 0.0
C1183 C 0.77425 0.61195 0.29085 0.0
C1184 C 0.77574 0.60923 0.26866 0.0
H1185 H 0.76592 0.59814 0.32099 0.0
H1186 H 0.77912 0.62671 0.29819 0.0
C1187 C 0.76905 0.58986 0.25982 0.0
C1188 C 0.77832 0.94878 0.60061 0.0
C1189 C 0.78603 0.93137 0.61259 0.0
H1190 H 0.76058 0.95921 0.57336 0.0
C1191 C 0.78058 0.91063 0.60638 0.0
H1192 H 0.7822 0.96498 0.60498 0.0
C1193 C 0.76822 0.90732 0.58826 0.0
C1194 C 0.761 0.92468 0.57593 0.0
H1195 H 0.7862 0.89685 0.61527 0.0
H1196 H 0.76464 0.8911 0.58374 0.0
C1197 C 0.76594 0.94547 0.58247 0.0
C1198 C 0.76992 0.58524 0.39096 0.0
C1199 C 0.75962 0.58453 0.41092 0.0
H1200 H 0.77417 0.60196 0.36146 0.0
C1201 C 0.74496 0.60076 0.41615 0.0
H1202 H 0.78122 0.57294 0.38635 0.0
C1203 C 0.74091 0.6175 0.40182 0.0
C1204 C 0.75139 0.61829 0.38195 0.0
H1205 H 0.73673 0.60067 0.43139 0.0
H1206 H 0.72967 0.62988 0.40638 0.0
C1207 C 0.76583 0.60189 0.37664 0.0
C1208 C 0.93229 0.60588 0.88634 0.0
C1209 C 0.94308 0.60559 0.90591 0.0
H1210 H 0.92634 0.58999 0.85695 0.0
C1211 C 0.95672 0.58832 0.91061 0.0
H1212 H 0.92176 0.61899 0.88214 0.0
C1213 C 0.95932 0.57159 0.89613 0.0
C1214 C 0.9484 0.57185 0.87662 0.0
H1215 H 0.96529 0.58763 0.92554 0.0
H1216 H 0.96982 0.55844 0.90027 0.0
C1217 C 0.93496 0.58924 0.87185 0.0
C1218 C 0.77353 0.28542 0.10306 0.0
C1219 C 0.76543 0.2678 0.11439 0.0
H1220 H 0.79177 0.29643 0.0763 0.0
C1221 C 0.76914 0.24721 0.10635 0.0
H1222 H 0.77094 0.3015 0.10876 0.0
C1223 C 0.78109 0.24429 0.08766 0.0
C1224 C 0.78962 0.2619 0.07663 0.0
H1225 H 0.76309 0.23329 0.11466 0.0
H1226 H 0.78396 0.22821 0.08209 0.0
C1227 C 0.78549 0.2825 0.08442 0.0
C1228 C 0.90715 0.95195 0.59342 0.0
C1229 C 0.91388 0.93104 0.59826 0.0
H1230 H 0.88918 0.97227 0.57252 0.0
C1231 C 0.90807 0.91443 0.58457 0.0
H1232 H 0.91139 0.96512 0.60361 0.0
C1233 C 0.89537 0.91854 0.56677 0.0
C1234 C 0.88817 0.93934 0.56222 0.0
H1235 H 0.91304 0.89815 0.58776 0.0
H1236 H 0.8909 0.90529 0.55679 0.0
C1237 C 0.89444 0.95606 0.57558 0.0
C1238 C 0.92856 0.5927 0.79696 0.0
C1239 C 0.94076 0.60954 0.78857 0.0
H1240 H 0.91181 0.56384 0.79074 0.0
C1241 C 0.94574 0.60968 0.76668 0.0
H1242 H 0.92446 0.59205 0.81376 0.0
C1243 C 0.93849 0.59341 0.75344 0.0
C1244 C 0.92604 0.57673 0.76181 0.0
H1245 H 0.95515 0.62241 0.75973 0.0
H1246 H 0.94249 0.59402 0.73662 0.0
C1247 C 0.92125 0.57652 0.78374 0.0
loop_
_geom_bond_atom_site_label_1
_geom_bond_atom_site_label_2
_geom_bond_distance
_geom_bond_site_symmetry_2
_ccdc_geom_bond_type
O0 Cd1 2.300 . S
O0 C7 1.275 . S
Cd1 O0 2.300 . S
Cd1 O9 2.381 . S
Cd1 O10 2.378 . S
O2 Cd3 2.385 . S
O2 C7 1.255 1_455 S
Cd3 O2 2.385 . S
Cd3 O4 2.317 . S
O4 Cd3 2.317 . S
O4 C5 1.232 . S
C5 O4 1.232 . S
C5 O6 1.218 . S
O6 C5 1.218 . S
C7 O0 1.275 . S
C7 O2 1.255 1_655 S
C8 O9 1.258 . S
C8 O10 1.256 . S
O9 Cd1 2.381 . S
O9 C8 1.258 . S
O10 Cd1 2.378 . S
O10 C8 1.256 . S
O11 Cd12 2.300 . S
O11 C18 1.275 . S
Cd12 O11 2.300 . S
Cd12 O20 2.381 . S
Cd12 O21 2.378 . S
O13 Cd14 2.385 . S
O13 C18 1.255 1_455 S
Cd14 O13 2.385 . S
Cd14 O15 2.317 . S
O15 Cd14 2.317 . S
O15 C16 1.232 . S
C16 O15 1.232 . S
C16 O17 1.218 . S
O17 C16 1.218 . S
C18 O11 1.275 . S
C18 O13 1.255 1_655 S
C19 O20 1.258 . S
C19 O21 1.256 . S
O20 Cd12 2.381 . S
O20 C19 1.258 . S
O21 Cd12 2.378 . S
O21 C19 1.256 . S
O22 Cd23 2.300 . S
O22 C29 1.275 . S
Cd23 O22 2.300 . S
Cd23 O31 2.381 . S
Cd23 O32 2.378 . S
O24 Cd25 2.385 . S
O24 C29 1.255 . S
Cd25 O24 2.385 . S
Cd25 O26 2.317 . S
O26 Cd25 2.317 . S
O26 C27 1.232 . S
C27 O26 1.232 . S
C27 O28 1.218 . S
O28 C27 1.218 . S
C29 O22 1.275 . S
C29 O24 1.255 . S
C30 O31 1.258 . S
C30 O32 1.256 . S
O31 Cd23 2.381 . S
O31 C30 1.258 . S
O32 Cd23 2.378 . S
O32 C30 1.256 . S
O33 Cd34 2.300 . S
O33 C40 1.275 . S
Cd34 O33 2.300 . S
Cd34 O42 2.381 . S
Cd34 O43 2.378 . S
O35 Cd36 2.385 . S
O35 C40 1.255 . S
Cd36 O35 2.385 . S
Cd36 O37 2.317 . S
O37 Cd36 2.317 . S
O37 C38 1.232 . S
C38 O37 1.232 . S
C38 O39 1.218 . S
O39 C38 1.218 . S
C40 O33 1.275 . S
C40 O35 1.255 . S
C41 O42 1.258 . S
C41 O43 1.256 . S
O42 Cd34 2.381 . S
O42 C41 1.258 . S
O43 Cd34 2.378 . S
O43 C41 1.256 . S
O44 Cd45 2.300 . S
O44 C51 1.275 . S
Cd45 O44 2.300 . S
Cd45 O53 2.381 . S
Cd45 O54 2.378 . S
O46 Cd47 2.385 . S
O46 C51 1.255 1_455 S
Cd47 O46 2.385 . S
Cd47 O48 2.317 . S
O48 Cd47 2.317 . S
O48 C49 1.232 . S
C49 O48 1.232 . S
C49 O50 1.218 . S
O50 C49 1.218 . S
C51 O44 1.275 . S
C51 O46 1.255 1_655 S
C52 O53 1.258 . S
C52 O54 1.256 . S
O53 Cd45 2.381 . S
O53 C52 1.258 . S
O54 Cd45 2.378 . S
O54 C52 1.256 . S
O55 Cd56 2.300 . S
O55 C62 1.275 . S
Cd56 O55 2.300 . S
Cd56 O64 2.381 . S
Cd56 O65 2.378 . S
O57 Cd58 2.385 . S
O57 C62 1.255 . S
Cd58 O57 2.385 . S
Cd58 O59 2.317 . S
O59 Cd58 2.317 . S
O59 C60 1.232 . S
C60 O59 1.232 . S
C60 O61 1.218 . S
O61 C60 1.218 . S
C62 O55 1.275 . S
C62 O57 1.255 . S
C63 O64 1.258 . S
C63 O65 1.256 . S
O64 Cd56 2.381 . S
O64 C63 1.258 . S
O65 Cd56 2.378 . S
O65 C63 1.256 . S
O66 Cd67 2.300 . S
O66 C73 1.275 . S
Cd67 O66 2.300 . S
Cd67 O75 2.381 . S
Cd67 O76 2.378 . S
O68 Cd69 2.385 . S
O68 C73 1.255 . S
Cd69 O68 2.385 . S
Cd69 O70 2.317 . S
O70 Cd69 2.317 . S
O70 C71 1.232 . S
C71 O70 1.232 . S
C71 O72 1.218 . S
O72 C71 1.218 . S
C73 O66 1.275 . S
C73 O68 1.255 . S
C74 O75 1.258 . S
C74 O76 1.256 . S
O75 Cd67 2.381 . S
O75 C74 1.258 . S
O76 Cd67 2.378 . S
O76 C74 1.256 . S
O77 Cd78 2.300 . S
O77 C84 1.275 . S
Cd78 O77 2.300 . S
Cd78 O86 2.381 . S
Cd78 O87 2.378 . S
O79 Cd80 2.385 . S
O79 C84 1.255 1_455 S
Cd80 O79 2.385 . S
Cd80 O81 2.317 . S
O81 Cd80 2.317 . S
O81 C82 1.232 . S
C82 O81 1.232 . S
C82 O83 1.218 . S
O83 C82 1.218 . S
C84 O77 1.275 . S
C84 O79 1.255 1_655 S
C85 O86 1.258 . S
C85 O87 1.256 . S
O86 Cd78 2.381 . S
O86 C85 1.258 . S
O87 Cd78 2.378 . S
O87 C85 1.256 . S
O88 Cd89 2.300 . S
O88 C95 1.275 . S
Cd89 O88 2.300 . S
Cd89 O97 2.381 . S
Cd89 O98 2.378 . S
O90 Cd91 2.385 . S
O90 C95 1.255 1_545 S
Cd91 O90 2.385 . S
Cd91 O92 2.317 . S
O92 Cd91 2.317 . S
O92 C93 1.232 . S
C93 O92 1.232 . S
C93 O94 1.218 . S
O94 C93 1.218 . S
C95 O88 1.275 . S
C95 O90 1.255 1_565 S
C96 O97 1.258 . S
C96 O98 1.256 . S
O97 Cd89 2.381 . S
O97 C96 1.258 . S
O98 Cd89 2.378 . S
O98 C96 1.256 . S
O99 Cd100 2.300 . S
O99 C106 1.275 . S
Cd100 O99 2.300 . S
Cd100 O108 2.381 . S
Cd100 O109 2.378 . S
O101 Cd102 2.385 . S
O101 C106 1.255 . S
Cd102 O101 2.385 . S
Cd102 O103 2.317 . S
O103 Cd102 2.317 . S
O103 C104 1.232 . S
C104 O103 1.232 . S
C104 O105 1.218 . S
O105 C104 1.218 . S
C106 O99 1.275 . S
C106 O101 1.255 . S
C107 O108 1.258 . S
C107 O109 1.256 . S
O108 Cd100 2.381 . S
O108 C107 1.258 . S
O109 Cd100 2.378 . S
O109 C107 1.256 . S
O110 Cd111 2.300 . S
O110 C117 1.275 . S
Cd111 O110 2.300 . S
Cd111 O119 2.381 . S
Cd111 O120 2.378 . S
O112 Cd113 2.385 . S
O112 C117 1.255 . S
Cd113 O112 2.385 . S
Cd113 O114 2.317 . S
O114 Cd113 2.317 . S
O114 C115 1.232 . S
C115 O114 1.232 . S
C115 O116 1.218 . S
O116 C115 1.218 . S
C117 O110 1.275 . S
C117 O112 1.255 . S
C118 O119 1.258 . S
C118 O120 1.256 . S
O119 Cd111 2.381 . S
O119 C118 1.258 . S
O120 Cd111 2.378 . S
O120 C118 1.256 . S
O121 Cd122 2.300 . S
O121 C128 1.275 . S
Cd122 O121 2.300 . S
Cd122 O130 2.381 . S
Cd122 O131 2.378 . S
O123 Cd124 2.385 . S
O123 C128 1.255 . S
Cd124 O123 2.385 . S
Cd124 O125 2.317 . S
O125 Cd124 2.317 . S
O125 C126 1.232 . S
C126 O125 1.232 . S
C126 O127 1.218 . S
O127 C126 1.218 . S
C128 O121 1.275 . S
C128 O123 1.255 . S
C129 O130 1.258 . S
C129 O131 1.256 . S
O130 Cd122 2.381 . S
O130 C129 1.258 . S
O131 Cd122 2.378 . S
O131 C129 1.256 . S
O132 Cd133 2.300 . S
O132 C139 1.275 . S
Cd133 O132 2.300 . S
Cd133 O141 2.381 . S
Cd133 O142 2.378 . S
O134 Cd135 2.385 . S
O134 C139 1.255 . S
Cd135 O134 2.385 . S
Cd135 O136 2.317 . S
O136 Cd135 2.317 . S
O136 C137 1.232 . S
C137 O136 1.232 . S
C137 O138 1.218 . S
O138 C137 1.218 . S
C139 O132 1.275 . S
C139 O134 1.255 . S
C140 O141 1.258 . S
C140 O142 1.256 . S
O141 Cd133 2.381 . S
O141 C140 1.258 . S
O142 Cd133 2.378 . S
O142 C140 1.256 . S
O143 Cd144 2.300 . S
O143 C150 1.275 . S
Cd144 O143 2.300 . S
Cd144 O152 2.381 . S
Cd144 O153 2.378 . S
O145 Cd146 2.385 . S
O145 C150 1.255 . S
Cd146 O145 2.385 . S
Cd146 O147 2.317 . S
O147 Cd146 2.317 . S
O147 C148 1.232 . S
C148 O147 1.232 . S
C148 O149 1.218 . S
O149 C148 1.218 . S
C150 O143 1.275 . S
C150 O145 1.255 . S
C151 O152 1.258 . S
C151 O153 1.256 . S
O152 Cd144 2.381 . S
O152 C151 1.258 . S
O153 Cd144 2.378 . S
O153 C151 1.256 . S
O154 Cd155 2.300 . S
O154 C161 1.275 . S
Cd155 O154 2.300 . S
Cd155 O163 2.381 . S
Cd155 O164 2.378 . S
O156 Cd157 2.385 . S
O156 C161 1.255 1_545 S
Cd157 O156 2.385 . S
Cd157 O158 2.317 . S
O158 Cd157 2.317 . S
O158 C159 1.232 . S
C159 O158 1.232 . S
C159 O160 1.218 . S
O160 C159 1.218 . S
C161 O154 1.275 . S
C161 O156 1.255 1_565 S
C162 O163 1.258 . S
C162 O164 1.256 . S
O163 Cd155 2.381 . S
O163 C162 1.258 . S
O164 Cd155 2.378 . S
O164 C162 1.256 . S
O165 Cd166 2.300 . S
O165 C172 1.275 . S
Cd166 O165 2.300 . S
Cd166 O174 2.381 . S
Cd166 O175 2.378 . S
O167 Cd168 2.385 . S
O167 C172 1.255 1_554 S
Cd168 O167 2.385 . S
Cd168 O169 2.317 . S
O169 Cd168 2.317 . S
O169 C170 1.232 . S
C170 O169 1.232 . S
C170 O171 1.218 . S
O171 C170 1.218 . S
C172 O165 1.275 . S
C172 O167 1.255 1_556 S
C173 O174 1.258 . S
C173 O175 1.256 . S
O174 Cd166 2.381 . S
O174 C173 1.258 . S
O175 Cd166 2.378 . S
O175 C173 1.256 . S
O176 Cd177 2.300 . S
O176 C183 1.275 . S
Cd177 O176 2.300 . S
Cd177 O185 2.381 . S
Cd177 O186 2.378 . S
O178 Cd179 2.385 . S
O178 C183 1.255 1_554 S
Cd179 O178 2.385 . S
Cd179 O180 2.317 . S
O180 Cd179 2.317 . S
O180 C181 1.232 . S
C181 O180 1.232 . S
C181 O182 1.218 . S
O182 C181 1.218 . S
C183 O176 1.275 . S
C183 O178 1.255 1_556 S
C184 O185 1.258 . S
C184 O186 1.256 . S
O185 Cd177 2.381 . S
O185 C184 1.258 . S
O186 Cd177 2.378 . S
O186 C184 1.256 . S
O187 Cd188 2.300 . S
O187 C194 1.275 . S
Cd188 O187 2.300 . S
Cd188 O196 2.381 . S
Cd188 O197 2.378 . S
O189 Cd190 2.385 . S
O189 C194 1.255 . S
Cd190 O189 2.385 . S
Cd190 O191 2.317 . S
O191 Cd190 2.317 . S
O191 C192 1.232 . S
C192 O191 1.232 . S
C192 O193 1.218 . S
O193 C192 1.218 . S
C194 O187 1.275 . S
C194 O189 1.255 . S
C195 O196 1.258 . S
C195 O197 1.256 . S
O196 Cd188 2.381 . S
O196 C195 1.258 . S
O197 Cd188 2.378 . S
O197 C195 1.256 . S
O198 Cd199 2.300 . S
O198 C205 1.275 . S
Cd199 O198 2.300 . S
Cd199 O207 2.381 . S
Cd199 O208 2.378 . S
O200 Cd201 2.385 . S
O200 C205 1.255 . S
Cd201 O200 2.385 . S
Cd201 O202 2.317 . S
O202 Cd201 2.317 . S
O202 C203 1.232 . S
C203 O202 1.232 . S
C203 O204 1.218 . S
O204 C203 1.218 . S
C205 O198 1.275 . S
C205 O200 1.255 . S
C206 O207 1.258 . S
C206 O208 1.256 . S
O207 Cd199 2.381 . S
O207 C206 1.258 . S
O208 Cd199 2.378 . S
O208 C206 1.256 . S
O209 Cd210 2.300 . S
O209 C216 1.275 . S
Cd210 O209 2.300 . S
Cd210 O218 2.381 . S
Cd210 O219 2.378 . S
O211 Cd212 2.385 . S
O211 C216 1.255 . S
Cd212 O211 2.385 . S
Cd212 O213 2.317 . S
O213 Cd212 2.317 . S
O213 C214 1.232 . S
C214 O213 1.232 . S
C214 O215 1.218 . S
O215 C214 1.218 . S
C216 O209 1.275 . S
C216 O211 1.255 . S
C217 O218 1.258 . S
C217 O219 1.256 . S
O218 Cd210 2.381 . S
O218 C217 1.258 . S
O219 Cd210 2.378 . S
O219 C217 1.256 . S
O220 Cd221 2.300 . S
O220 C227 1.275 . S
Cd221 O220 2.300 . S
Cd221 O229 2.381 . S
Cd221 O230 2.378 . S
O222 Cd223 2.385 . S
O222 C227 1.255 1_545 S
Cd223 O222 2.385 . S
Cd223 O224 2.317 . S
O224 Cd223 2.317 . S
O224 C225 1.232 . S
C225 O224 1.232 . S
C225 O226 1.218 . S
O226 C225 1.218 . S
C227 O220 1.275 . S
C227 O222 1.255 1_565 S
C228 O229 1.258 . S
C228 O230 1.256 . S
O229 Cd221 2.381 . S
O229 C228 1.258 . S
O230 Cd221 2.378 . S
O230 C228 1.256 . S
O231 Cd232 2.300 . S
O231 C238 1.275 . S
Cd232 O231 2.300 . S
Cd232 O240 2.381 . S
Cd232 O241 2.378 . S
O233 Cd234 2.385 . S
O233 C238 1.255 . S
Cd234 O233 2.385 . S
Cd234 O235 2.317 . S
O235 Cd234 2.317 . S
O235 C236 1.232 . S
C236 O235 1.232 . S
C236 O237 1.218 . S
O237 C236 1.218 . S
C238 O231 1.275 . S
C238 O233 1.255 . S
C239 O240 1.258 . S
C239 O241 1.256 . S
O240 Cd232 2.381 . S
O240 C239 1.258 . S
O241 Cd232 2.378 . S
O241 C239 1.256 . S
O242 Cd243 2.300 . S
O242 C249 1.275 . S
Cd243 O242 2.300 . S
Cd243 O251 2.381 . S
Cd243 O252 2.378 . S
O244 Cd245 2.385 . S
O244 C249 1.255 . S
Cd245 O244 2.385 . S
Cd245 O246 2.317 . S
O246 Cd245 2.317 . S
O246 C247 1.232 . S
C247 O246 1.232 . S
C247 O248 1.218 . S
O248 C247 1.218 . S
C249 O242 1.275 . S
C249 O244 1.255 . S
C250 O251 1.258 . S
C250 O252 1.256 . S
O251 Cd243 2.381 . S
O251 C250 1.258 . S
O252 Cd243 2.378 . S
O252 C250 1.256 . S
O253 Cd254 2.300 . S
O253 C260 1.275 . S
Cd254 O253 2.300 . S
Cd254 O262 2.381 . S
Cd254 O263 2.378 . S
O255 Cd256 2.385 . S
O255 C260 1.255 . S
Cd256 O255 2.385 . S
Cd256 O257 2.317 . S
O257 Cd256 2.317 . S
O257 C258 1.232 . S
C258 O257 1.232 . S
C258 O259 1.218 . S
O259 C258 1.218 . S
C260 O253 1.275 . S
C260 O255 1.255 . S
C261 O262 1.258 . S
C261 O263 1.256 . S
O262 Cd254 2.381 . S
O262 C261 1.258 . S
O263 Cd254 2.378 . S
O263 C261 1.256 . S
O264 Cd265 2.300 . S
O264 C271 1.275 . S
Cd265 O264 2.300 . S
Cd265 O273 2.381 . S
Cd265 O274 2.378 . S
O266 Cd267 2.385 . S
O266 C271 1.255 . S
Cd267 O266 2.385 . S
Cd267 O268 2.317 . S
O268 Cd267 2.317 . S
O268 C269 1.232 . S
C269 O268 1.232 . S
C269 O270 1.218 . S
O270 C269 1.218 . S
C271 O264 1.275 . S
C271 O266 1.255 . S
C272 O273 1.258 . S
C272 O274 1.256 . S
O273 Cd265 2.381 . S
O273 C272 1.258 . S
O274 Cd265 2.378 . S
O274 C272 1.256 . S
O275 Cd276 2.300 . S
O275 C282 1.275 . S
Cd276 O275 2.300 . S
Cd276 O284 2.381 . S
Cd276 O285 2.378 . S
O277 Cd278 2.385 . S
O277 C282 1.255 . S
Cd278 O277 2.385 . S
Cd278 O279 2.317 . S
O279 Cd278 2.317 . S
O279 C280 1.232 . S
C280 O279 1.232 . S
C280 O281 1.218 . S
O281 C280 1.218 . S
C282 O275 1.275 . S
C282 O277 1.255 . S
C283 O284 1.258 . S
C283 O285 1.256 . S
O284 Cd276 2.381 . S
O284 C283 1.258 . S
O285 Cd276 2.378 . S
O285 C283 1.256 . S
O286 Cd287 2.300 . S
O286 C293 1.275 . S
Cd287 O286 2.300 . S
Cd287 O295 2.381 . S
Cd287 O296 2.378 . S
O288 Cd289 2.385 . S
O288 C293 1.255 . S
Cd289 O288 2.385 . S
Cd289 O290 2.317 . S
O290 Cd289 2.317 . S
O290 C291 1.232 . S
C291 O290 1.232 . S
C291 O292 1.218 . S
O292 C291 1.218 . S
C293 O286 1.275 . S
C293 O288 1.255 . S
C294 O295 1.258 . S
C294 O296 1.256 . S
O295 Cd287 2.381 . S
O295 C294 1.258 . S
O296 Cd287 2.378 . S
O296 C294 1.256 . S
O297 Cd298 2.300 . S
O297 C304 1.275 . S
Cd298 O297 2.300 . S
Cd298 O306 2.381 . S
Cd298 O307 2.378 . S
O299 Cd300 2.385 . S
O299 C304 1.255 . S
Cd300 O299 2.385 . S
Cd300 O301 2.317 . S
O301 Cd300 2.317 . S
O301 C302 1.232 . S
C302 O301 1.232 . S
C302 O303 1.218 . S
O303 C302 1.218 . S
C304 O297 1.275 . S
C304 O299 1.255 . S
C305 O306 1.258 . S
C305 O307 1.256 . S
O306 Cd298 2.381 . S
O306 C305 1.258 . S
O307 Cd298 2.378 . S
O307 C305 1.256 . S
O308 Cd309 2.300 . S
O308 C315 1.275 . S
Cd309 O308 2.300 . S
Cd309 O317 2.381 . S
Cd309 O318 2.378 . S
O310 Cd311 2.385 . S
O310 C315 1.255 . S
Cd311 O310 2.385 . S
Cd311 O312 2.317 . S
O312 Cd311 2.317 . S
O312 C313 1.232 . S
C313 O312 1.232 . S
C313 O314 1.218 . S
O314 C313 1.218 . S
C315 O308 1.275 . S
C315 O310 1.255 . S
C316 O317 1.258 . S
C316 O318 1.256 . S
O317 Cd309 2.381 . S
O317 C316 1.258 . S
O318 Cd309 2.378 . S
O318 C316 1.256 . S
O319 Cd320 2.300 . S
O319 C326 1.275 . S
Cd320 O319 2.300 . S
Cd320 O328 2.381 . S
Cd320 O329 2.378 . S
O321 Cd322 2.385 . S
O321 C326 1.255 . S
Cd322 O321 2.385 . S
Cd322 O323 2.317 . S
O323 Cd322 2.317 . S
O323 C324 1.232 . S
C324 O323 1.232 . S
C324 O325 1.218 . S
O325 C324 1.218 . S
C326 O319 1.275 . S
C326 O321 1.255 . S
C327 O328 1.258 . S
C327 O329 1.256 . S
O328 Cd320 2.381 . S
O328 C327 1.258 . S
O329 Cd320 2.378 . S
O329 C327 1.256 . S
O330 Cd331 2.300 . S
O330 C337 1.275 . S
Cd331 O330 2.300 . S
Cd331 O339 2.381 . S
Cd331 O340 2.378 . S
O332 Cd333 2.385 . S
O332 C337 1.255 . S
Cd333 O332 2.385 . S
Cd333 O334 2.317 . S
O334 Cd333 2.317 . S
O334 C335 1.232 . S
C335 O334 1.232 . S
C335 O336 1.218 . S
O336 C335 1.218 . S
C337 O330 1.275 . S
C337 O332 1.255 . S
C338 O339 1.258 . S
C338 O340 1.256 . S
O339 Cd331 2.381 . S
O339 C338 1.258 . S
O340 Cd331 2.378 . S
O340 C338 1.256 . S
O341 Cd342 2.300 . S
O341 C348 1.275 . S
Cd342 O341 2.300 . S
Cd342 O350 2.381 . S
Cd342 O351 2.378 . S
O343 Cd344 2.385 . S
O343 C348 1.255 . S
Cd344 O343 2.385 . S
Cd344 O345 2.317 . S
O345 Cd344 2.317 . S
O345 C346 1.232 . S
C346 O345 1.232 . S
C346 O347 1.218 . S
O347 C346 1.218 . S
C348 O341 1.275 . S
C348 O343 1.255 . S
C349 O350 1.258 . S
C349 O351 1.256 . S
O350 Cd342 2.381 . S
O350 C349 1.258 . S
O351 Cd342 2.378 . S
O351 C349 1.256 . S
O352 Cd353 2.300 . S
O352 C359 1.275 . S
Cd353 O352 2.300 . S
Cd353 O361 2.381 . S
Cd353 O362 2.378 . S
O354 Cd355 2.385 . S
O354 C359 1.255 . S
Cd355 O354 2.385 . S
Cd355 O356 2.317 . S
O356 Cd355 2.317 . S
O356 C357 1.232 . S
C357 O356 1.232 . S
C357 O358 1.218 . S
O358 C357 1.218 . S
C359 O352 1.275 . S
C359 O354 1.255 . S
C360 O361 1.258 . S
C360 O362 1.256 . S
O361 Cd353 2.381 . S
O361 C360 1.258 . S
O362 Cd353 2.378 . S
O362 C360 1.256 . S
O363 Cd364 2.300 . S
O363 C370 1.275 . S
Cd364 O363 2.300 . S
Cd364 O372 2.381 . S
Cd364 O373 2.378 . S
O365 Cd366 2.385 . S
O365 C370 1.255 . S
Cd366 O365 2.385 . S
Cd366 O367 2.317 . S
O367 Cd366 2.317 . S
O367 C368 1.232 . S
C368 O367 1.232 . S
C368 O369 1.218 . S
O369 C368 1.218 . S
C370 O363 1.275 . S
C370 O365 1.255 . S
C371 O372 1.258 . S
C371 O373 1.256 . S
O372 Cd364 2.381 . S
O372 C371 1.258 . S
O373 Cd364 2.378 . S
O373 C371 1.256 . S
O374 Cd375 2.300 . S
O374 C381 1.275 . S
Cd375 O374 2.300 . S
Cd375 O383 2.381 . S
Cd375 O384 2.378 . S
O376 Cd377 2.385 . S
O376 C381 1.255 . S
Cd377 O376 2.385 . S
Cd377 O378 2.317 . S
O378 Cd377 2.317 . S
O378 C379 1.232 . S
C379 O378 1.232 . S
C379 O380 1.218 . S
O380 C379 1.218 . S
C381 O374 1.275 . S
C381 O376 1.255 . S
C382 O383 1.258 . S
C382 O384 1.256 . S
O383 Cd375 2.381 . S
O383 C382 1.258 . S
O384 Cd375 2.378 . S
O384 C382 1.256 . S
O385 Cd386 2.300 . S
O385 C392 1.275 . S
Cd386 O385 2.300 . S
Cd386 O394 2.381 . S
Cd386 O395 2.378 . S
O387 Cd388 2.385 . S
O387 C392 1.255 . S
Cd388 O387 2.385 . S
Cd388 O389 2.317 . S
O389 Cd388 2.317 . S
O389 C390 1.232 . S
C390 O389 1.232 . S
C390 O391 1.218 . S
O391 C390 1.218 . S
C392 O385 1.275 . S
C392 O387 1.255 . S
C393 O394 1.258 . S
C393 O395 1.256 . S
O394 Cd386 2.381 . S
O394 C393 1.258 . S
O395 Cd386 2.378 . S
O395 C393 1.256 . S
O396 Cd397 2.300 . S
O396 C403 1.275 . S
Cd397 O396 2.300 . S
Cd397 O405 2.381 . S
Cd397 O406 2.378 . S
O398 Cd399 2.385 . S
O398 C403 1.255 . S
Cd399 O398 2.385 . S
Cd399 O400 2.317 . S
O400 Cd399 2.317 . S
O400 C401 1.232 . S
C401 O400 1.232 . S
C401 O402 1.218 . S
O402 C401 1.218 . S
C403 O396 1.275 . S
C403 O398 1.255 . S
C404 O405 1.258 . S
C404 O406 1.256 . S
O405 Cd397 2.381 . S
O405 C404 1.258 . S
O406 Cd397 2.378 . S
O406 C404 1.256 . S
O407 Cd408 2.300 . S
O407 C414 1.275 . S
Cd408 O407 2.300 . S
Cd408 O416 2.381 . S
Cd408 O417 2.378 . S
O409 Cd410 2.385 . S
O409 C414 1.255 1_554 S
Cd410 O409 2.385 . S
Cd410 O411 2.317 . S
O411 Cd410 2.317 . S
O411 C412 1.232 . S
C412 O411 1.232 . S
C412 O413 1.218 . S
O413 C412 1.218 . S
C414 O407 1.275 . S
C414 O409 1.255 1_556 S
C415 O416 1.258 . S
C415 O417 1.256 . S
O416 Cd408 2.381 . S
O416 C415 1.258 . S
O417 Cd408 2.378 . S
O417 C415 1.256 . S
O418 Cd419 2.300 . S
O418 C425 1.275 . S
Cd419 O418 2.300 . S
Cd419 O427 2.381 . S
Cd419 O428 2.378 . S
O420 Cd421 2.385 . S
O420 C425 1.255 . S
Cd421 O420 2.385 . S
Cd421 O422 2.317 . S
O422 Cd421 2.317 . S
O422 C423 1.232 . S
C423 O422 1.232 . S
C423 O424 1.218 . S
O424 C423 1.218 . S
C425 O418 1.275 . S
C425 O420 1.255 . S
C426 O427 1.258 . S
C426 O428 1.256 . S
O427 Cd419 2.381 . S
O427 C426 1.258 . S
O428 Cd419 2.378 . S
O428 C426 1.256 . S
O429 Cd430 2.300 . S
O429 C436 1.275 . S
Cd430 O429 2.300 . S
Cd430 O438 2.381 . S
Cd430 O439 2.378 . S
O431 Cd432 2.385 . S
O431 C436 1.255 . S
Cd432 O431 2.385 . S
Cd432 O433 2.317 . S
O433 Cd432 2.317 . S
O433 C434 1.232 . S
C434 O433 1.232 . S
C434 O435 1.218 . S
O435 C434 1.218 . S
C436 O429 1.275 . S
C436 O431 1.255 . S
C437 O438 1.258 . S
C437 O439 1.256 . S
O438 Cd430 2.381 . S
O438 C437 1.258 . S
O439 Cd430 2.378 . S
O439 C437 1.256 . S
O440 Cd441 2.300 . S
O440 C447 1.275 . S
Cd441 O440 2.300 . S
Cd441 O449 2.381 . S
Cd441 O450 2.378 . S
O442 Cd443 2.385 . S
O442 C447 1.255 . S
Cd443 O442 2.385 . S
Cd443 O444 2.317 . S
O444 Cd443 2.317 . S
O444 C445 1.232 . S
C445 O444 1.232 . S
C445 O446 1.218 . S
O446 C445 1.218 . S
C447 O440 1.275 . S
C447 O442 1.255 . S
C448 O449 1.258 . S
C448 O450 1.256 . S
O449 Cd441 2.381 . S
O449 C448 1.258 . S
O450 Cd441 2.378 . S
O450 C448 1.256 . S
O451 Cd452 2.300 . S
O451 C458 1.275 . S
Cd452 O451 2.300 . S
Cd452 O460 2.381 . S
Cd452 O461 2.378 . S
O453 Cd454 2.385 . S
O453 C458 1.255 . S
Cd454 O453 2.385 . S
Cd454 O455 2.317 . S
O455 Cd454 2.317 . S
O455 C456 1.232 . S
C456 O455 1.232 . S
C456 O457 1.218 . S
O457 C456 1.218 . S
C458 O451 1.275 . S
C458 O453 1.255 . S
C459 O460 1.258 . S
C459 O461 1.256 . S
O460 Cd452 2.381 . S
O460 C459 1.258 . S
O461 Cd452 2.378 . S
O461 C459 1.256 . S
O462 Cd463 2.300 . S
O462 C469 1.275 . S
Cd463 O462 2.300 . S
Cd463 O471 2.381 . S
Cd463 O472 2.378 . S
O464 Cd465 2.385 . S
O464 C469 1.255 . S
Cd465 O464 2.385 . S
Cd465 O466 2.317 . S
O466 Cd465 2.317 . S
O466 C467 1.232 . S
C467 O466 1.232 . S
C467 O468 1.218 . S
O468 C467 1.218 . S
C469 O462 1.275 . S
C469 O464 1.255 . S
C470 O471 1.258 . S
C470 O472 1.256 . S
O471 Cd463 2.381 . S
O471 C470 1.258 . S
O472 Cd463 2.378 . S
O472 C470 1.256 . S
O473 Cd474 2.300 . S
O473 C480 1.275 . S
Cd474 O473 2.300 . S
Cd474 O482 2.381 . S
Cd474 O483 2.378 . S
O475 Cd476 2.385 . S
O475 C480 1.255 . S
Cd476 O475 2.385 . S
Cd476 O477 2.317 . S
O477 Cd476 2.317 . S
O477 C478 1.232 . S
C478 O477 1.232 . S
C478 O479 1.218 . S
O479 C478 1.218 . S
C480 O473 1.275 . S
C480 O475 1.255 . S
C481 O482 1.258 . S
C481 O483 1.256 . S
O482 Cd474 2.381 . S
O482 C481 1.258 . S
O483 Cd474 2.378 . S
O483 C481 1.256 . S
O484 Cd485 2.300 . S
O484 C491 1.275 . S
Cd485 O484 2.300 . S
Cd485 O493 2.381 . S
Cd485 O494 2.378 . S
O486 Cd487 2.385 . S
O486 C491 1.255 . S
Cd487 O486 2.385 . S
Cd487 O488 2.317 . S
O488 Cd487 2.317 . S
O488 C489 1.232 . S
C489 O488 1.232 . S
C489 O490 1.218 . S
O490 C489 1.218 . S
C491 O484 1.275 . S
C491 O486 1.255 . S
C492 O493 1.258 . S
C492 O494 1.256 . S
O493 Cd485 2.381 . S
O493 C492 1.258 . S
O494 Cd485 2.378 . S
O494 C492 1.256 . S
O495 Cd496 2.300 . S
O495 C502 1.275 . S
Cd496 O495 2.300 . S
Cd496 O504 2.381 . S
Cd496 O505 2.378 . S
O497 Cd498 2.385 . S
O497 C502 1.255 1_554 S
Cd498 O497 2.385 . S
Cd498 O499 2.317 . S
O499 Cd498 2.317 . S
O499 C500 1.232 . S
C500 O499 1.232 . S
C500 O501 1.218 . S
O501 C500 1.218 . S
C502 O495 1.275 . S
C502 O497 1.255 1_556 S
C503 O504 1.258 . S
C503 O505 1.256 . S
O504 Cd496 2.381 . S
O504 C503 1.258 . S
O505 Cd496 2.378 . S
O505 C503 1.256 . S
O506 Cd507 2.300 . S
O506 C513 1.275 . S
Cd507 O506 2.300 . S
Cd507 O515 2.381 . S
Cd507 O516 2.378 . S
O508 Cd509 2.385 . S
O508 C513 1.255 1_545 S
Cd509 O508 2.385 . S
Cd509 O510 2.317 . S
O510 Cd509 2.317 . S
O510 C511 1.232 . S
C511 O510 1.232 . S
C511 O512 1.218 . S
O512 C511 1.218 . S
C513 O506 1.275 . S
C513 O508 1.255 1_565 S
C514 O515 1.258 . S
C514 O516 1.256 . S
O515 Cd507 2.381 . S
O515 C514 1.258 . S
O516 Cd507 2.378 . S
O516 C514 1.256 . S
O517 Cd518 2.300 . S
O517 C524 1.275 . S
Cd518 O517 2.300 . S
Cd518 O526 2.381 . S
Cd518 O527 2.378 . S
O519 Cd520 2.385 . S
O519 C524 1.255 . S
Cd520 O519 2.385 . S
Cd520 O521 2.317 . S
O521 Cd520 2.317 . S
O521 C522 1.232 . S
C522 O521 1.232 . S
C522 O523 1.218 . S
O523 C522 1.218 . S
C524 O517 1.275 . S
C524 O519 1.255 . S
C525 O526 1.258 . S
C525 O527 1.256 . S
O526 Cd518 2.381 . S
O526 C525 1.258 . S
O527 Cd518 2.378 . S
O527 C525 1.256 . S
C528 C529 1.387 . S
C528 H532 0.950 . S
C528 C537 1.390 . S
C529 C528 1.387 . S
C529 C531 1.387 . S
H530 C537 0.950 . S
C531 C529 1.387 . S
C531 C533 1.390 . S
C531 H535 0.950 . S
H532 C528 0.950 . S
C533 C531 1.390 . S
C533 C534 1.387 . S
C533 H536 0.950 . S
C534 C533 1.387 . S
C534 C537 1.387 . S
H535 C531 0.950 . S
H536 C533 0.950 . S
C537 C528 1.390 . S
C537 H530 0.950 . S
C537 C534 1.387 . S
C538 C539 1.387 . S
C538 H542 0.950 . S
C538 C547 1.390 . S
C539 C538 1.387 . S
C539 C541 1.387 . S
H540 C547 0.950 . S
C541 C539 1.387 . S
C541 C543 1.390 . S
C541 H545 0.950 . S
H542 C538 0.950 . S
C543 C541 1.390 . S
C543 C544 1.387 . S
C543 H546 0.950 . S
C544 C543 1.387 . S
C544 C547 1.387 . S
H545 C541 0.950 . S
H546 C543 0.950 . S
C547 C538 1.390 . S
C547 H540 0.950 . S
C547 C544 1.387 . S
C548 C549 1.387 . S
C548 H552 0.950 . S
C548 C557 1.390 . S
C549 C548 1.387 . S
C549 C551 1.387 . S
H550 C557 0.950 . S
C551 C549 1.387 . S
C551 C553 1.390 . S
C551 H555 0.950 . S
H552 C548 0.950 . S
C553 C551 1.390 . S
C553 C554 1.387 . S
C553 H556 0.950 . S
C554 C553 1.387 . S
C554 C557 1.387 . S
H555 C551 0.950 . S
H556 C553 0.950 . S
C557 C548 1.390 . S
C557 H550 0.950 . S
C557 C554 1.387 . S
C558 C559 1.387 . S
C558 H562 0.950 . S
C558 C567 1.390 . S
C559 C558 1.387 . S
C559 C561 1.387 . S
H560 C567 0.950 . S
C561 C559 1.387 . S
C561 C563 1.390 . S
C561 H565 0.950 . S
H562 C558 0.950 . S
C563 C561 1.390 . S
C563 C564 1.387 . S
C563 H566 0.950 . S
C564 C563 1.387 . S
C564 C567 1.387 . S
H565 C561 0.950 . S
H566 C563 0.950 . S
C567 C558 1.390 . S
C567 H560 0.950 . S
C567 C564 1.387 . S
C568 C569 1.387 . S
C568 H572 0.950 . S
C568 C577 1.390 . S
C569 C568 1.387 . S
C569 C571 1.387 . S
H570 C577 0.950 . S
C571 C569 1.387 . S
C571 C573 1.390 . S
C571 H575 0.950 . S
H572 C568 0.950 . S
C573 C571 1.390 . S
C573 C574 1.387 . S
C573 H576 0.950 . S
C574 C573 1.387 . S
C574 C577 1.387 . S
H575 C571 0.950 . S
H576 C573 0.950 . S
C577 C568 1.390 . S
C577 H570 0.950 . S
C577 C574 1.387 . S
C578 C579 1.387 . S
C578 H582 0.950 . S
C578 C587 1.390 . S
C579 C578 1.387 . S
C579 C581 1.387 . S
H580 C587 0.950 . S
C581 C579 1.387 . S
C581 C583 1.390 . S
C581 H585 0.950 . S
H582 C578 0.950 . S
C583 C581 1.390 . S
C583 C584 1.387 . S
C583 H586 0.950 . S
C584 C583 1.387 . S
C584 C587 1.387 . S
H585 C581 0.950 . S
H586 C583 0.950 . S
C587 C578 1.390 . S
C587 H580 0.950 . S
C587 C584 1.387 . S
C588 C589 1.387 . S
C588 H592 0.950 . S
C588 C597 1.390 . S
C589 C588 1.387 . S
C589 C591 1.387 . S
H590 C597 0.950 . S
C591 C589 1.387 . S
C591 C593 1.390 . S
C591 H595 0.950 . S
H592 C588 0.950 . S
C593 C591 1.390 . S
C593 C594 1.387 . S
C593 H596 0.950 . S
C594 C593 1.387 . S
C594 C597 1.387 . S
H595 C591 0.950 . S
H596 C593 0.950 . S
C597 C588 1.390 . S
C597 H590 0.950 . S
C597 C594 1.387 . S
C598 C599 1.387 . S
C598 H602 0.950 . S
C598 C607 1.390 . S
C599 C598 1.387 . S
C599 C601 1.387 . S
H600 C607 0.950 . S
C601 C599 1.387 . S
C601 C603 1.390 . S
C601 H605 0.950 . S
H602 C598 0.950 . S
C603 C601 1.390 . S
C603 C604 1.387 . S
C603 H606 0.950 . S
C604 C603 1.387 . S
C604 C607 1.387 . S
H605 C601 0.950 . S
H606 C603 0.950 . S
C607 C598 1.390 . S
C607 H600 0.950 . S
C607 C604 1.387 . S
C608 C609 1.387 . S
C608 H612 0.950 . S
C608 C617 1.390 . S
C609 C608 1.387 . S
C609 C611 1.387 . S
H610 C617 0.950 . S
C611 C609 1.387 . S
C611 C613 1.390 . S
C611 H615 0.950 . S
H612 C608 0.950 . S
C613 C611 1.390 . S
C613 C614 1.387 . S
C613 H616 0.950 . S
C614 C613 1.387 . S
C614 C617 1.387 . S
H615 C611 0.950 . S
H616 C613 0.950 . S
C617 C608 1.390 . S
C617 H610 0.950 . S
C617 C614 1.387 . S
C618 C619 1.387 . S
C618 H622 0.950 . S
C618 C627 1.390 . S
C619 C618 1.387 . S
C619 C621 1.387 . S
H620 C627 0.950 . S
C621 C619 1.387 . S
C621 C623 1.390 . S
C621 H625 0.950 . S
H622 C618 0.950 . S
C623 C621 1.390 . S
C623 C624 1.387 . S
C623 H626 0.950 . S
C624 C623 1.387 . S
C624 C627 1.387 . S
H625 C621 0.950 . S
H626 C623 0.950 . S
C627 C618 1.390 . S
C627 H620 0.950 . S
C627 C624 1.387 . S
C628 C629 1.387 . S
C628 H632 0.950 . S
C628 C637 1.390 . S
C629 C628 1.387 . S
C629 C631 1.387 . S
H630 C637 0.950 . S
C631 C629 1.387 . S
C631 C633 1.390 . S
C631 H635 0.950 . S
H632 C628 0.950 . S
C633 C631 1.390 . S
C633 C634 1.387 . S
C633 H636 0.950 . S
C634 C633 1.387 . S
C634 C637 1.387 . S
H635 C631 0.950 . S
H636 C633 0.950 . S
C637 C628 1.390 . S
C637 H630 0.950 . S
C637 C634 1.387 . S
C638 C639 1.387 . S
C638 H642 0.950 . S
C638 C647 1.390 . S
C639 C638 1.387 . S
C639 C641 1.387 . S
H640 C647 0.950 . S
C641 C639 1.387 . S
C641 C643 1.390 . S
C641 H645 0.950 . S
H642 C638 0.950 . S
C643 C641 1.390 . S
C643 C644 1.387 . S
C643 H646 0.950 . S
C644 C643 1.387 . S
C644 C647 1.387 . S
H645 C641 0.950 . S
H646 C643 0.950 . S
C647 C638 1.390 . S
C647 H640 0.950 . S
C647 C644 1.387 . S
C648 C649 1.387 . S
C648 H652 0.950 . S
C648 C657 1.390 . S
C649 C648 1.387 . S
C649 C651 1.387 . S
H650 C657 0.950 . S
C651 C649 1.387 . S
C651 C653 1.390 . S
C651 H655 0.950 . S
H652 C648 0.950 . S
C653 C651 1.390 . S
C653 C654 1.387 . S
C653 H656 0.950 . S
C654 C653 1.387 . S
C654 C657 1.387 . S
H655 C651 0.950 . S
H656 C653 0.950 . S
C657 C648 1.390 . S
C657 H650 0.950 . S
C657 C654 1.387 . S
C658 C659 1.387 . S
C658 H662 0.950 . S
C658 C667 1.390 . S
C659 C658 1.387 . S
C659 C661 1.387 . S
H660 C667 0.950 . S
C661 C659 1.387 . S
C661 C663 1.390 . S
C661 H665 0.950 . S
H662 C658 0.950 . S
C663 C661 1.390 . S
C663 C664 1.387 . S
C663 H666 0.950 . S
C664 C663 1.387 . S
C664 C667 1.387 . S
H665 C661 0.950 . S
H666 C663 0.950 . S
C667 C658 1.390 . S
C667 H660 0.950 . S
C667 C664 1.387 . S
C668 C669 1.387 . S
C668 H672 0.950 . S
C668 C677 1.390 . S
C669 C668 1.387 . S
C669 C671 1.387 . S
H670 C677 0.950 . S
C671 C669 1.387 . S
C671 C673 1.390 . S
C671 H675 0.950 . S
H672 C668 0.950 . S
C673 C671 1.390 . S
C673 C674 1.387 . S
C673 H676 0.950 . S
C674 C673 1.387 . S
C674 C677 1.387 . S
H675 C671 0.950 . S
H676 C673 0.950 . S
C677 C668 1.390 . S
C677 H670 0.950 . S
C677 C674 1.387 . S
C678 C679 1.387 . S
C678 H682 0.950 . S
C678 C687 1.390 . S
C679 C678 1.387 . S
C679 C681 1.387 . S
H680 C687 0.950 . S
C681 C679 1.387 . S
C681 C683 1.390 . S
C681 H685 0.950 . S
H682 C678 0.950 . S
C683 C681 1.390 . S
C683 C684 1.387 . S
C683 H686 0.950 . S
C684 C683 1.387 . S
C684 C687 1.387 . S
H685 C681 0.950 . S
H686 C683 0.950 . S
C687 C678 1.390 . S
C687 H680 0.950 . S
C687 C684 1.387 . S
C688 C689 1.387 . S
C688 H692 0.950 . S
C688 C697 1.390 . S
C689 C688 1.387 . S
C689 C691 1.387 . S
H690 C697 0.950 . S
C691 C689 1.387 . S
C691 C693 1.390 . S
C691 H695 0.950 . S
H692 C688 0.950 . S
C693 C691 1.390 . S
C693 C694 1.387 . S
C693 H696 0.950 . S
C694 C693 1.387 . S
C694 C697 1.387 . S
H695 C691 0.950 . S
H696 C693 0.950 . S
C697 C688 1.390 . S
C697 H690 0.950 . S
C697 C694 1.387 . S
C698 C699 1.387 . S
C698 H702 0.950 . S
C698 C707 1.390 . S
C699 C698 1.387 . S
C699 C701 1.387 . S
H700 C707 0.950 . S
C701 C699 1.387 . S
C701 C703 1.390 . S
C701 H705 0.950 . S
H702 C698 0.950 . S
C703 C701 1.390 . S
C703 C704 1.387 . S
C703 H706 0.950 . S
C704 C703 1.387 . S
C704 C707 1.387 . S
H705 C701 0.950 . S
H706 C703 0.950 . S
C707 C698 1.390 . S
C707 H700 0.950 . S
C707 C704 1.387 . S
C708 C709 1.387 . S
C708 H712 0.950 . S
C708 C717 1.390 . S
C709 C708 1.387 . S
C709 C711 1.387 . S
H710 C717 0.950 . S
C711 C709 1.387 . S
C711 C713 1.390 . S
C711 H715 0.950 . S
H712 C708 0.950 . S
C713 C711 1.390 . S
C713 C714 1.387 . S
C713 H716 0.950 . S
C714 C713 1.387 . S
C714 C717 1.387 . S
H715 C711 0.950 . S
H716 C713 0.950 . S
C717 C708 1.390 . S
C717 H710 0.950 . S
C717 C714 1.387 . S
C718 C719 1.387 . S
C718 H722 0.950 . S
C718 C727 1.390 . S
C719 C718 1.387 . S
C719 C721 1.387 . S
H720 C727 0.950 . S
C721 C719 1.387 . S
C721 C723 1.390 . S
C721 H725 0.950 . S
H722 C718 0.950 . S
C723 C721 1.390 . S
C723 C724 1.387 . S
C723 H726 0.950 . S
C724 C723 1.387 . S
C724 C727 1.387 . S
H725 C721 0.950 . S
H726 C723 0.950 . S
C727 C718 1.390 . S
C727 H720 0.950 . S
C727 C724 1.387 . S
C728 C729 1.387 . S
C728 H732 0.950 . S
C728 C737 1.390 . S
C729 C728 1.387 . S
C729 C731 1.387 . S
H730 C737 0.950 . S
C731 C729 1.387 . S
C731 C733 1.390 . S
C731 H735 0.950 . S
H732 C728 0.950 . S
C733 C731 1.390 . S
C733 C734 1.387 . S
C733 H736 0.950 . S
C734 C733 1.387 . S
C734 C737 1.387 . S
H735 C731 0.950 . S
H736 C733 0.950 . S
C737 C728 1.390 . S
C737 H730 0.950 . S
C737 C734 1.387 . S
C738 C739 1.387 . S
C738 H742 0.950 . S
C738 C747 1.390 . S
C739 C738 1.387 . S
C739 C741 1.387 . S
H740 C747 0.950 . S
C741 C739 1.387 . S
C741 C743 1.390 . S
C741 H745 0.950 . S
H742 C738 0.950 . S
C743 C741 1.390 . S
C743 C744 1.387 . S
C743 H746 0.950 . S
C744 C743 1.387 . S
C744 C747 1.387 . S
H745 C741 0.950 . S
H746 C743 0.950 . S
C747 C738 1.390 . S
C747 H740 0.950 . S
C747 C744 1.387 . S
C748 C749 1.387 . S
C748 H752 0.950 . S
C748 C757 1.390 . S
C749 C748 1.387 . S
C749 C751 1.387 . S
H750 C757 0.950 . S
C751 C749 1.387 . S
C751 C753 1.390 . S
C751 H755 0.950 . S
H752 C748 0.950 . S
C753 C751 1.390 . S
C753 C754 1.387 . S
C753 H756 0.950 . S
C754 C753 1.387 . S
C754 C757 1.387 . S
H755 C751 0.950 . S
H756 C753 0.950 . S
C757 C748 1.390 . S
C757 H750 0.950 . S
C757 C754 1.387 . S
C758 C759 1.387 . S
C758 H762 0.950 . S
C758 C767 1.390 . S
C759 C758 1.387 . S
C759 C761 1.387 . S
H760 C767 0.950 . S
C761 C759 1.387 . S
C761 C763 1.390 . S
C761 H765 0.950 . S
H762 C758 0.950 . S
C763 C761 1.390 . S
C763 C764 1.387 . S
C763 H766 0.950 . S
C764 C763 1.387 . S
C764 C767 1.387 . S
H765 C761 0.950 . S
H766 C763 0.950 . S
C767 C758 1.390 . S
C767 H760 0.950 . S
C767 C764 1.387 . S
C768 C769 1.387 . S
C768 H772 0.950 . S
C768 C777 1.390 . S
C769 C768 1.387 . S
C769 C771 1.387 1_655 S
H770 C777 0.950 . S
C771 C769 1.387 1_455 S
C771 C773 1.390 . S
C771 H775 0.950 . S
H772 C768 0.950 . S
C773 C771 1.390 . S
C773 C774 1.387 1_455 S
C773 H776 0.950 . S
C774 C773 1.387 1_655 S
C774 C777 1.387 . S
H775 C771 0.950 . S
H776 C773 0.950 . S
C777 C768 1.390 . S
C777 H770 0.950 . S
C777 C774 1.387 . S
C778 C779 1.387 1_455 S
C778 H782 0.950 . S
C778 C787 1.390 1_455 S
C779 C778 1.387 1_655 S
C779 C781 1.387 . S
H780 C787 0.950 1_455 S
C781 C779 1.387 . S
C781 C783 1.390 . S
C781 H785 0.950 . S
H782 C778 0.950 . S
C783 C781 1.390 . S
C783 C784 1.387 . S
C783 H786 0.950 . S
C784 C783 1.387 . S
C784 C787 1.387 . S
H785 C781 0.950 . S
H786 C783 0.950 . S
C787 C778 1.390 1_655 S
C787 H780 0.950 1_655 S
C787 C784 1.387 . S
C788 C789 1.387 . S
C788 H792 0.950 . S
C788 C797 1.390 . S
C789 C788 1.387 . S
C789 C791 1.387 . S
H790 C797 0.950 . S
C791 C789 1.387 . S
C791 C793 1.390 . S
C791 H795 0.950 . S
H792 C788 0.950 . S
C793 C791 1.390 . S
C793 C794 1.387 . S
C793 H796 0.950 . S
C794 C793 1.387 . S
C794 C797 1.387 . S
H795 C791 0.950 . S
H796 C793 0.950 . S
C797 C788 1.390 . S
C797 H790 0.950 . S
C797 C794 1.387 . S
C798 C799 1.387 . S
C798 H802 0.950 . S
C798 C807 1.390 . S
C799 C798 1.387 . S
C799 C801 1.387 . S
H800 C807 0.950 . S
C801 C799 1.387 . S
C801 C803 1.390 . S
C801 H805 0.950 . S
H802 C798 0.950 . S
C803 C801 1.390 . S
C803 C804 1.387 . S
C803 H806 0.950 . S
C804 C803 1.387 . S
C804 C807 1.387 . S
H805 C801 0.950 . S
H806 C803 0.950 . S
C807 C798 1.390 . S
C807 H800 0.950 . S
C807 C804 1.387 . S
C808 C809 1.387 1_545 S
C808 H812 0.950 . S
C808 C817 1.390 . S
C809 C808 1.387 1_565 S
C809 C811 1.387 . S
H810 C817 0.950 . S
C811 C809 1.387 . S
C811 C813 1.390 . S
C811 H815 0.950 . S
H812 C808 0.950 . S
C813 C811 1.390 . S
C813 C814 1.387 . S
C813 H816 0.950 . S
C814 C813 1.387 . S
C814 C817 1.387 1_565 S
H815 C811 0.950 . S
H816 C813 0.950 . S
C817 C808 1.390 . S
C817 H810 0.950 . S
C817 C814 1.387 1_545 S
C818 C819 1.387 . S
C818 H822 0.950 . S
C818 C827 1.390 . S
C819 C818 1.387 . S
C819 C821 1.387 . S
H820 C827 0.950 . S
C821 C819 1.387 . S
C821 C823 1.390 . S
C821 H825 0.950 . S
H822 C818 0.950 . S
C823 C821 1.390 . S
C823 C824 1.387 . S
C823 H826 0.950 . S
C824 C823 1.387 . S
C824 C827 1.387 . S
H825 C821 0.950 . S
H826 C823 0.950 . S
C827 C818 1.390 . S
C827 H820 0.950 . S
C827 C824 1.387 . S
C828 C829 1.387 . S
C828 H832 0.950 . S
C828 C837 1.390 . S
C829 C828 1.387 . S
C829 C831 1.387 . S
H830 C837 0.950 . S
C831 C829 1.387 . S
C831 C833 1.390 . S
C831 H835 0.950 . S
H832 C828 0.950 . S
C833 C831 1.390 . S
C833 C834 1.387 . S
C833 H836 0.950 . S
C834 C833 1.387 . S
C834 C837 1.387 . S
H835 C831 0.950 . S
H836 C833 0.950 . S
C837 C828 1.390 . S
C837 H830 0.950 . S
C837 C834 1.387 . S
C838 C839 1.387 . S
C838 H842 0.950 . S
C838 C847 1.390 . S
C839 C838 1.387 . S
C839 C841 1.387 . S
H840 C847 0.950 . S
C841 C839 1.387 . S
C841 C843 1.390 . S
C841 H845 0.950 . S
H842 C838 0.950 . S
C843 C841 1.390 . S
C843 C844 1.387 . S
C843 H846 0.950 . S
C844 C843 1.387 . S
C844 C847 1.387 . S
H845 C841 0.950 . S
H846 C843 0.950 . S
C847 C838 1.390 . S
C847 H840 0.950 . S
C847 C844 1.387 . S
C848 C849 1.387 . S
C848 H852 0.950 . S
C848 C857 1.390 . S
C849 C848 1.387 . S
C849 C851 1.387 . S
H850 C857 0.950 . S
C851 C849 1.387 . S
C851 C853 1.390 . S
C851 H855 0.950 . S
H852 C848 0.950 . S
C853 C851 1.390 . S
C853 C854 1.387 . S
C853 H856 0.950 . S
C854 C853 1.387 . S
C854 C857 1.387 . S
H855 C851 0.950 . S
H856 C853 0.950 . S
C857 C848 1.390 . S
C857 H850 0.950 . S
C857 C854 1.387 . S
C858 C859 1.387 . S
C858 H862 0.950 . S
C858 C867 1.390 . S
C859 C858 1.387 . S
C859 C861 1.387 . S
H860 C867 0.950 . S
C861 C859 1.387 . S
C861 C863 1.390 . S
C861 H865 0.950 . S
H862 C858 0.950 . S
C863 C861 1.390 . S
C863 C864 1.387 . S
C863 H866 0.950 . S
C864 C863 1.387 . S
C864 C867 1.387 . S
H865 C861 0.950 . S
H866 C863 0.950 . S
C867 C858 1.390 . S
C867 H860 0.950 . S
C867 C864 1.387 . S
C868 C869 1.387 1_545 S
C868 H872 0.950 . S
C868 C877 1.390 . S
C869 C868 1.387 1_565 S
C869 C871 1.387 . S
H870 C877 0.950 . S
C871 C869 1.387 . S
C871 C873 1.390 . S
C871 H875 0.950 . S
H872 C868 0.950 . S
C873 C871 1.390 . S
C873 C874 1.387 . S
C873 H876 0.950 . S
C874 C873 1.387 . S
C874 C877 1.387 1_565 S
H875 C871 0.950 . S
H876 C873 0.950 . S
C877 C868 1.390 . S
C877 H870 0.950 . S
C877 C874 1.387 1_545 S
C878 C879 1.387 1_554 S
C878 H882 0.950 . S
C878 C887 1.390 . S
C879 C878 1.387 1_556 S
C879 C881 1.387 . S
H880 C887 0.950 . S
C881 C879 1.387 . S
C881 C883 1.390 . S
C881 H885 0.950 . S
H882 C878 0.950 . S
C883 C881 1.390 . S
C883 C884 1.387 . S
C883 H886 0.950 . S
C884 C883 1.387 . S
C884 C887 1.387 1_556 S
H885 C881 0.950 . S
H886 C883 0.950 . S
C887 C878 1.390 . S
C887 H880 0.950 . S
C887 C884 1.387 1_554 S
C888 C889 1.387 . S
C888 H892 0.950 . S
C888 C897 1.390 . S
C889 C888 1.387 . S
C889 C891 1.387 . S
H890 C897 0.950 . S
C891 C889 1.387 . S
C891 C893 1.390 . S
C891 H895 0.950 . S
H892 C888 0.950 . S
C893 C891 1.390 . S
C893 C894 1.387 . S
C893 H896 0.950 . S
C894 C893 1.387 . S
C894 C897 1.387 . S
H895 C891 0.950 . S
H896 C893 0.950 . S
C897 C888 1.390 . S
C897 H890 0.950 . S
C897 C894 1.387 . S
C898 C899 1.387 . S
C898 H902 0.950 . S
C898 C907 1.390 . S
C899 C898 1.387 . S
C899 C901 1.387 . S
H900 C907 0.950 . S
C901 C899 1.387 . S
C901 C903 1.390 . S
C901 H905 0.950 . S
H902 C898 0.950 . S
C903 C901 1.390 . S
C903 C904 1.387 . S
C903 H906 0.950 . S
C904 C903 1.387 . S
C904 C907 1.387 . S
H905 C901 0.950 . S
H906 C903 0.950 . S
C907 C898 1.390 . S
C907 H900 0.950 . S
C907 C904 1.387 . S
C908 C909 1.387 . S
C908 H912 0.950 . S
C908 C917 1.390 . S
C909 C908 1.387 . S
C909 C911 1.387 . S
H910 C917 0.950 . S
C911 C909 1.387 . S
C911 C913 1.390 . S
C911 H915 0.950 . S
H912 C908 0.950 . S
C913 C911 1.390 . S
C913 C914 1.387 . S
C913 H916 0.950 . S
C914 C913 1.387 . S
C914 C917 1.387 . S
H915 C911 0.950 . S
H916 C913 0.950 . S
C917 C908 1.390 . S
C917 H910 0.950 . S
C917 C914 1.387 . S
C918 C919 1.387 . S
C918 H922 0.950 . S
C918 C927 1.390 . S
C919 C918 1.387 . S
C919 C921 1.387 . S
H920 C927 0.950 . S
C921 C919 1.387 . S
C921 C923 1.390 . S
C921 H925 0.950 . S
H922 C918 0.950 . S
C923 C921 1.390 . S
C923 C924 1.387 . S
C923 H926 0.950 . S
C924 C923 1.387 . S
C924 C927 1.387 . S
H925 C921 0.950 . S
H926 C923 0.950 . S
C927 C918 1.390 . S
C927 H920 0.950 . S
C927 C924 1.387 . S
C928 C929 1.387 . S
C928 H932 0.950 . S
C928 C937 1.390 . S
C929 C928 1.387 . S
C929 C931 1.387 . S
H930 C937 0.950 . S
C931 C929 1.387 . S
C931 C933 1.390 . S
C931 H935 0.950 . S
H932 C928 0.950 . S
C933 C931 1.390 . S
C933 C934 1.387 . S
C933 H936 0.950 . S
C934 C933 1.387 . S
C934 C937 1.387 . S
H935 C931 0.950 . S
H936 C933 0.950 . S
C937 C928 1.390 . S
C937 H930 0.950 . S
C937 C934 1.387 . S
C938 C939 1.387 . S
C938 H942 0.950 . S
C938 C947 1.390 . S
C939 C938 1.387 . S
C939 C941 1.387 . S
H940 C947 0.950 . S
C941 C939 1.387 . S
C941 C943 1.390 . S
C941 H945 0.950 . S
H942 C938 0.950 . S
C943 C941 1.390 . S
C943 C944 1.387 . S
C943 H946 0.950 . S
C944 C943 1.387 . S
C944 C947 1.387 . S
H945 C941 0.950 . S
H946 C943 0.950 . S
C947 C938 1.390 . S
C947 H940 0.950 . S
C947 C944 1.387 . S
C948 C949 1.387 . S
C948 H952 0.950 . S
C948 C957 1.390 . S
C949 C948 1.387 . S
C949 C951 1.387 . S
H950 C957 0.950 . S
C951 C949 1.387 . S
C951 C953 1.390 . S
C951 H955 0.950 . S
H952 C948 0.950 . S
C953 C951 1.390 . S
C953 C954 1.387 . S
C953 H956 0.950 . S
C954 C953 1.387 . S
C954 C957 1.387 . S
H955 C951 0.950 . S
H956 C953 0.950 . S
C957 C948 1.390 . S
C957 H950 0.950 . S
C957 C954 1.387 . S
C958 C959 1.387 . S
C958 H962 0.950 . S
C958 C967 1.390 . S
C959 C958 1.387 . S
C959 C961 1.387 . S
H960 C967 0.950 . S
C961 C959 1.387 . S
C961 C963 1.390 . S
C961 H965 0.950 . S
H962 C958 0.950 . S
C963 C961 1.390 . S
C963 C964 1.387 . S
C963 H966 0.950 . S
C964 C963 1.387 . S
C964 C967 1.387 . S
H965 C961 0.950 . S
H966 C963 0.950 . S
C967 C958 1.390 . S
C967 H960 0.950 . S
C967 C964 1.387 . S
C968 C969 1.387 . S
C968 H972 0.950 . S
C968 C977 1.390 . S
C969 C968 1.387 . S
C969 C971 1.387 . S
H970 C977 0.950 . S
C971 C969 1.387 . S
C971 C973 1.390 . S
C971 H975 0.950 . S
H972 C968 0.950 . S
C973 C971 1.390 . S
C973 C974 1.387 . S
C973 H976 0.950 . S
C974 C973 1.387 . S
C974 C977 1.387 . S
H975 C971 0.950 . S
H976 C973 0.950 . S
C977 C968 1.390 . S
C977 H970 0.950 . S
C977 C974 1.387 . S
C978 C979 1.387 . S
C978 H982 0.950 . S
C978 C987 1.390 . S
C979 C978 1.387 . S
C979 C981 1.387 . S
H980 C987 0.950 . S
C981 C979 1.387 . S
C981 C983 1.390 . S
C981 H985 0.950 . S
H982 C978 0.950 . S
C983 C981 1.390 . S
C983 C984 1.387 . S
C983 H986 0.950 . S
C984 C983 1.387 . S
C984 C987 1.387 . S
H985 C981 0.950 . S
H986 C983 0.950 . S
C987 C978 1.390 . S
C987 H980 0.950 . S
C987 C984 1.387 . S
C988 C989 1.387 1_554 S
C988 H992 0.950 . S
C988 C997 1.390 . S
C989 C988 1.387 1_556 S
C989 C991 1.387 . S
H990 C997 0.950 . S
C991 C989 1.387 . S
C991 C993 1.390 . S
C991 H995 0.950 . S
H992 C988 0.950 . S
C993 C991 1.390 . S
C993 C994 1.387 . S
C993 H996 0.950 . S
C994 C993 1.387 . S
C994 C997 1.387 1_556 S
H995 C991 0.950 . S
H996 C993 0.950 . S
C997 C988 1.390 . S
C997 H990 0.950 . S
C997 C994 1.387 1_554 S
C998 C999 1.387 . S
C998 H1002 0.950 . S
C998 C1007 1.390 . S
C999 C998 1.387 . S
C999 C1001 1.387 . S
H1000 C1007 0.950 . S
C1001 C999 1.387 . S
C1001 C1003 1.390 . S
C1001 H1005 0.950 . S
H1002 C998 0.950 . S
C1003 C1001 1.390 . S
C1003 C1004 1.387 . S
C1003 H1006 0.950 . S
C1004 C1003 1.387 . S
C1004 C1007 1.387 . S
H1005 C1001 0.950 . S
H1006 C1003 0.950 . S
C1007 C998 1.390 . S
C1007 H1000 0.950 . S
C1007 C1004 1.387 . S
C1008 C1009 1.387 . S
C1008 H1012 0.950 . S
C1008 C1017 1.390 . S
C1009 C1008 1.387 . S
C1009 C1011 1.387 . S
H1010 C1017 0.950 . S
C1011 C1009 1.387 . S
C1011 C1013 1.390 . S
C1011 H1015 0.950 . S
H1012 C1008 0.950 . S
C1013 C1011 1.390 . S
C1013 C1014 1.387 . S
C1013 H1016 0.950 . S
C1014 C1013 1.387 . S
C1014 C1017 1.387 . S
H1015 C1011 0.950 . S
H1016 C1013 0.950 . S
C1017 C1008 1.390 . S
C1017 H1010 0.950 . S
C1017 C1014 1.387 . S
C1018 C1019 1.387 . S
C1018 H1022 0.950 . S
C1018 C1027 1.390 . S
C1019 C1018 1.387 . S
C1019 C1021 1.387 . S
H1020 C1027 0.950 . S
C1021 C1019 1.387 . S
C1021 C1023 1.390 . S
C1021 H1025 0.950 . S
H1022 C1018 0.950 . S
C1023 C1021 1.390 . S
C1023 C1024 1.387 . S
C1023 H1026 0.950 . S
C1024 C1023 1.387 . S
C1024 C1027 1.387 . S
H1025 C1021 0.950 . S
H1026 C1023 0.950 . S
C1027 C1018 1.390 . S
C1027 H1020 0.950 . S
C1027 C1024 1.387 . S
C1028 C1029 1.387 . S
C1028 H1032 0.950 . S
C1028 C1037 1.390 . S
C1029 C1028 1.387 . S
C1029 C1031 1.387 . S
H1030 C1037 0.950 . S
C1031 C1029 1.387 . S
C1031 C1033 1.390 . S
C1031 H1035 0.950 . S
H1032 C1028 0.950 . S
C1033 C1031 1.390 . S
C1033 C1034 1.387 . S
C1033 H1036 0.950 . S
C1034 C1033 1.387 . S
C1034 C1037 1.387 . S
H1035 C1031 0.950 . S
H1036 C1033 0.950 . S
C1037 C1028 1.390 . S
C1037 H1030 0.950 . S
C1037 C1034 1.387 . S
C1038 C1039 1.387 . S
C1038 H1042 0.950 . S
C1038 C1047 1.390 . S
C1039 C1038 1.387 . S
C1039 C1041 1.387 . S
H1040 C1047 0.950 . S
C1041 C1039 1.387 . S
C1041 C1043 1.390 . S
C1041 H1045 0.950 . S
H1042 C1038 0.950 . S
C1043 C1041 1.390 . S
C1043 C1044 1.387 . S
C1043 H1046 0.950 . S
C1044 C1043 1.387 . S
C1044 C1047 1.387 . S
H1045 C1041 0.950 . S
H1046 C1043 0.950 . S
C1047 C1038 1.390 . S
C1047 H1040 0.950 . S
C1047 C1044 1.387 . S
C1048 C1049 1.387 . S
C1048 H1052 0.950 . S
C1048 C1057 1.390 . S
C1049 C1048 1.387 . S
C1049 C1051 1.387 . S
H1050 C1057 0.950 . S
C1051 C1049 1.387 . S
C1051 C1053 1.390 . S
C1051 H1055 0.950 . S
H1052 C1048 0.950 . S
C1053 C1051 1.390 . S
C1053 C1054 1.387 . S
C1053 H1056 0.950 . S
C1054 C1053 1.387 . S
C1054 C1057 1.387 . S
H1055 C1051 0.950 . S
H1056 C1053 0.950 . S
C1057 C1048 1.390 . S
C1057 H1050 0.950 . S
C1057 C1054 1.387 . S
C1058 C1059 1.387 . S
C1058 H1062 0.950 . S
C1058 C1067 1.390 . S
C1059 C1058 1.387 . S
C1059 C1061 1.387 . S
H1060 C1067 0.950 . S
C1061 C1059 1.387 . S
C1061 C1063 1.390 . S
C1061 H1065 0.950 . S
H1062 C1058 0.950 . S
C1063 C1061 1.390 . S
C1063 C1064 1.387 . S
C1063 H1066 0.950 . S
C1064 C1063 1.387 . S
C1064 C1067 1.387 . S
H1065 C1061 0.950 . S
H1066 C1063 0.950 . S
C1067 C1058 1.390 . S
C1067 H1060 0.950 . S
C1067 C1064 1.387 . S
C1068 C1069 1.387 . S
C1068 H1072 0.950 . S
C1068 C1077 1.390 . S
C1069 C1068 1.387 . S
C1069 C1071 1.387 . S
H1070 C1077 0.950 . S
C1071 C1069 1.387 . S
C1071 C1073 1.390 . S
C1071 H1075 0.950 . S
H1072 C1068 0.950 . S
C1073 C1071 1.390 . S
C1073 C1074 1.387 . S
C1073 H1076 0.950 . S
C1074 C1073 1.387 . S
C1074 C1077 1.387 . S
H1075 C1071 0.950 . S
H1076 C1073 0.950 . S
C1077 C1068 1.390 . S
C1077 H1070 0.950 . S
C1077 C1074 1.387 . S
C1078 C1079 1.387 . S
C1078 H1082 0.950 . S
C1078 C1087 1.390 . S
C1079 C1078 1.387 . S
C1079 C1081 1.387 . S
H1080 C1087 0.950 . S
C1081 C1079 1.387 . S
C1081 C1083 1.390 . S
C1081 H1085 0.950 . S
H1082 C1078 0.950 . S
C1083 C1081 1.390 . S
C1083 C1084 1.387 . S
C1083 H1086 0.950 . S
C1084 C1083 1.387 . S
C1084 C1087 1.387 . S
H1085 C1081 0.950 . S
H1086 C1083 0.950 . S
C1087 C1078 1.390 . S
C1087 H1080 0.950 . S
C1087 C1084 1.387 . S
C1088 C1089 1.387 . S
C1088 H1092 0.950 . S
C1088 C1097 1.390 . S
C1089 C1088 1.387 . S
C1089 C1091 1.387 . S
H1090 C1097 0.950 . S
C1091 C1089 1.387 . S
C1091 C1093 1.390 . S
C1091 H1095 0.950 . S
H1092 C1088 0.950 . S
C1093 C1091 1.390 . S
C1093 C1094 1.387 . S
C1093 H1096 0.950 . S
C1094 C1093 1.387 . S
C1094 C1097 1.387 . S
H1095 C1091 0.950 . S
H1096 C1093 0.950 . S
C1097 C1088 1.390 . S
C1097 H1090 0.950 . S
C1097 C1094 1.387 . S
C1098 C1099 1.387 . S
C1098 H1102 0.950 . S
C1098 C1107 1.390 . S
C1099 C1098 1.387 . S
C1099 C1101 1.387 . S
H1100 C1107 0.950 . S
C1101 C1099 1.387 . S
C1101 C1103 1.390 . S
C1101 H1105 0.950 . S
H1102 C1098 0.950 . S
C1103 C1101 1.390 . S
C1103 C1104 1.387 . S
C1103 H1106 0.950 . S
C1104 C1103 1.387 . S
C1104 C1107 1.387 . S
H1105 C1101 0.950 . S
H1106 C1103 0.950 . S
C1107 C1098 1.390 . S
C1107 H1100 0.950 . S
C1107 C1104 1.387 . S
C1108 C1109 1.387 . S
C1108 H1112 0.950 . S
C1108 C1117 1.390 . S
C1109 C1108 1.387 . S
C1109 C1111 1.387 . S
H1110 C1117 0.950 . S
C1111 C1109 1.387 . S
C1111 C1113 1.390 . S
C1111 H1115 0.950 . S
H1112 C1108 0.950 . S
C1113 C1111 1.390 . S
C1113 C1114 1.387 . S
C1113 H1116 0.950 . S
C1114 C1113 1.387 . S
C1114 C1117 1.387 . S
H1115 C1111 0.950 . S
H1116 C1113 0.950 . S
C1117 C1108 1.390 . S
C1117 H1110 0.950 . S
C1117 C1114 1.387 . S
C1118 C1119 1.387 . S
C1118 H1122 0.950 . S
C1118 C1127 1.390 . S
C1119 C1118 1.387 . S
C1119 C1121 1.387 . S
H1120 C1127 0.950 . S
C1121 C1119 1.387 . S
C1121 C1123 1.390 . S
C1121 H1125 0.950 . S
H1122 C1118 0.950 . S
C1123 C1121 1.390 . S
C1123 C1124 1.387 . S
C1123 H1126 0.950 . S
C1124 C1123 1.387 . S
C1124 C1127 1.387 . S
H1125 C1121 0.950 . S
H1126 C1123 0.950 . S
C1127 C1118 1.390 . S
C1127 H1120 0.950 . S
C1127 C1124 1.387 . S
C1128 C1129 1.387 . S
C1128 H1132 0.950 . S
C1128 C1137 1.390 . S
C1129 C1128 1.387 . S
C1129 C1131 1.387 . S
H1130 C1137 0.950 . S
C1131 C1129 1.387 . S
C1131 C1133 1.390 . S
C1131 H1135 0.950 . S
H1132 C1128 0.950 . S
C1133 C1131 1.390 . S
C1133 C1134 1.387 . S
C1133 H1136 0.950 . S
C1134 C1133 1.387 . S
C1134 C1137 1.387 . S
H1135 C1131 0.950 . S
H1136 C1133 0.950 . S
C1137 C1128 1.390 . S
C1137 H1130 0.950 . S
C1137 C1134 1.387 . S
C1138 C1139 1.387 . S
C1138 H1142 0.950 . S
C1138 C1147 1.390 . S
C1139 C1138 1.387 . S
C1139 C1141 1.387 . S
H1140 C1147 0.950 . S
C1141 C1139 1.387 . S
C1141 C1143 1.390 . S
C1141 H1145 0.950 . S
H1142 C1138 0.950 . S
C1143 C1141 1.390 . S
C1143 C1144 1.387 . S
C1143 H1146 0.950 . S
C1144 C1143 1.387 . S
C1144 C1147 1.387 . S
H1145 C1141 0.950 . S
H1146 C1143 0.950 . S
C1147 C1138 1.390 . S
C1147 H1140 0.950 . S
C1147 C1144 1.387 . S
C1148 C1149 1.387 . S
C1148 H1152 0.950 . S
C1148 C1157 1.390 . S
C1149 C1148 1.387 . S
C1149 C1151 1.387 . S
H1150 C1157 0.950 . S
C1151 C1149 1.387 . S
C1151 C1153 1.390 . S
C1151 H1155 0.950 . S
H1152 C1148 0.950 . S
C1153 C1151 1.390 . S
C1153 C1154 1.387 . S
C1153 H1156 0.950 . S
C1154 C1153 1.387 . S
C1154 C1157 1.387 . S
H1155 C1151 0.950 . S
H1156 C1153 0.950 . S
C1157 C1148 1.390 . S
C1157 H1150 0.950 . S
C1157 C1154 1.387 . S
C1158 C1159 1.387 . S
C1158 H1162 0.950 . S
C1158 C1167 1.390 . S
C1159 C1158 1.387 . S
C1159 C1161 1.387 . S
H1160 C1167 0.950 . S
C1161 C1159 1.387 . S
C1161 C1163 1.390 . S
C1161 H1165 0.950 . S
H1162 C1158 0.950 . S
C1163 C1161 1.390 . S
C1163 C1164 1.387 . S
C1163 H1166 0.950 . S
C1164 C1163 1.387 . S
C1164 C1167 1.387 . S
H1165 C1161 0.950 . S
H1166 C1163 0.950 . S
C1167 C1158 1.390 . S
C1167 H1160 0.950 . S
C1167 C1164 1.387 . S
C1168 C1169 1.387 . S
C1168 H1172 0.950 . S
C1168 C1177 1.390 . S
C1169 C1168 1.387 . S
C1169 C1171 1.387 . S
H1170 C1177 0.950 . S
C1171 C1169 1.387 . S
C1171 C1173 1.390 . S
C1171 H1175 0.950 . S
H1172 C1168 0.950 . S
C1173 C1171 1.390 . S
C1173 C1174 1.387 . S
C1173 H1176 0.950 . S
C1174 C1173 1.387 . S
C1174 C1177 1.387 . S
H1175 C1171 0.950 . S
H1176 C1173 0.950 . S
C1177 C1168 1.390 . S
C1177 H1170 0.950 . S
C1177 C1174 1.387 . S
C1178 C1179 1.387 . S
C1178 H1182 0.950 . S
C1178 C1187 1.390 . S
C1179 C1178 1.387 . S
C1179 C1181 1.387 . S
H1180 C1187 0.950 . S
C1181 C1179 1.387 . S
C1181 C1183 1.390 . S
C1181 H1185 0.950 . S
H1182 C1178 0.950 . S
C1183 C1181 1.390 . S
C1183 C1184 1.387 . S
C1183 H1186 0.950 . S
C1184 C1183 1.387 . S
C1184 C1187 1.387 . S
H1185 C1181 0.950 . S
H1186 C1183 0.950 . S
C1187 C1178 1.390 . S
C1187 H1180 0.950 . S
C1187 C1184 1.387 . S
C1188 C1189 1.387 . S
C1188 H1192 0.950 . S
C1188 C1197 1.390 . S
C1189 C1188 1.387 . S
C1189 C1191 1.387 . S
H1190 C1197 0.950 . S
C1191 C1189 1.387 . S
C1191 C1193 1.390 . S
C1191 H1195 0.950 . S
H1192 C1188 0.950 . S
C1193 C1191 1.390 . S
C1193 C1194 1.387 . S
C1193 H1196 0.950 . S
C1194 C1193 1.387 . S
C1194 C1197 1.387 . S
H1195 C1191 0.950 . S
H1196 C1193 0.950 . S
C1197 C1188 1.390 . S
C1197 H1190 0.950 . S
C1197 C1194 1.387 . S
C1198 C1199 1.387 . S
C1198 H1202 0.950 . S
C1198 C1207 1.390 . S
C1199 C1198 1.387 . S
C1199 C1201 1.387 . S
H1200 C1207 0.950 . S
C1201 C1199 1.387 . S
C1201 C1203 1.390 . S
C1201 H1205 0.950 . S
H1202 C1198 0.950 . S
C1203 C1201 1.390 . S
C1203 C1204 1.387 . S
C1203 H1206 0.950 . S
C1204 C1203 1.387 . S
C1204 C1207 1.387 . S
H1205 C1201 0.950 . S
H1206 C1203 0.950 . S
C1207 C1198 1.390 . S
C1207 H1200 0.950 . S
C1207 C1204 1.387 . S
C1208 C1209 1.387 . S
C1208 H1212 0.950 . S
C1208 C1217 1.390 . S
C1209 C1208 1.387 . S
C1209 C1211 1.387 . S
H1210 C1217 0.950 . S
C1211 C1209 1.387 . S
C1211 C1213 1.390 . S
C1211 H1215 0.950 . S
H1212 C1208 0.950 . S
C1213 C1211 1.390 . S
C1213 C1214 1.387 . S
C1213 H1216 0.950 . S
C1214 C1213 1.387 . S
C1214 C1217 1.387 . S
H1215 C1211 0.950 . S
H1216 C1213 0.950 . S
C1217 C1208 1.390 . S
C1217 H1210 0.950 . S
C1217 C1214 1.387 . S
C1218 C1219 1.387 . S
C1218 H1222 0.950 . S
C1218 C1227 1.390 . S
C1219 C1218 1.387 . S
C1219 C1221 1.387 . S
H1220 C1227 0.950 . S
C1221 C1219 1.387 . S
C1221 C1223 1.390 . S
C1221 H1225 0.950 . S
H1222 C1218 0.950 . S
C1223 C1221 1.390 . S
C1223 C1224 1.387 . S
C1223 H1226 0.950 . S
C1224 C1223 1.387 . S
C1224 C1227 1.387 . S
H1225 C1221 0.950 . S
H1226 C1223 0.950 . S
C1227 C1218 1.390 . S
C1227 H1220 0.950 . S
C1227 C1224 1.387 . S
C1228 C1229 1.387 . S
C1228 H1232 0.950 . S
C1228 C1237 1.390 . S
C1229 C1228 1.387 . S
C1229 C1231 1.387 . S
H1230 C1237 0.950 . S
C1231 C1229 1.387 . S
C1231 C1233 1.390 . S
C1231 H1235 0.950 . S
H1232 C1228 0.950 . S
C1233 C1231 1.390 . S
C1233 C1234 1.387 . S
C1233 H1236 0.950 . S
C1234 C1233 1.387 . S
C1234 C1237 1.387 . S
H1235 C1231 0.950 . S
H1236 C1233 0.950 . S
C1237 C1228 1.390 . S
C1237 H1230 0.950 . S
C1237 C1234 1.387 . S
C1238 C1239 1.387 . S
C1238 H1242 0.950 . S
C1238 C1247 1.390 . S
C1239 C1238 1.387 . S
C1239 C1241 1.387 . S
H1240 C1247 0.950 . S
C1241 C1239 1.387 . S
C1241 C1243 1.390 . S
C1241 H1245 0.950 . S
H1242 C1238 0.950 . S
C1243 C1241 1.390 . S
C1243 C1244 1.387 . S
C1243 H1246 0.950 . S
C1244 C1243 1.387 . S
C1244 C1247 1.387 . S
H1245 C1241 0.950 . S
H1246 C1243 0.950 . S
C1247 C1238 1.390 . S
C1247 H1240 0.950 . S
C1247 C1244 1.387 . S
C529 C8 1.756 . S
C534 C250 1.707 . S
C539 C448 1.782 . S
C544 C19 1.714 . S
C549 C30 1.742 . S
C554 C261 1.685 . S
C559 C41 1.698 . S
C564 C503 1.760 . S
C569 C206 1.700 . S
C574 C52 1.762 . S
C579 C63 1.683 . S
C584 C217 1.740 . S
C589 C492 1.669 . S
C594 C74 1.731 . S
C599 C195 1.755 . S
C604 C85 1.691 . S
C609 C151 1.700 . S
C614 C96 1.760 . S
C619 C162 1.756 . S
C624 C107 1.706 . S
C629 C118 1.755 . S
C634 C173 1.691 . S
C639 C129 1.632 . S
C644 C140 1.685 . S
C649 C283 1.701 . S
C654 C184 1.762 . S
C659 C338 1.755 . S
C664 C228 1.691 . S
C669 C305 1.652 . S
C674 C239 1.707 . S
C679 C272 1.782 . S
C684 C514 1.715 . S
C689 C294 1.685 . S
C694 C525 1.632 . S
C699 C316 1.707 . S
C704 C470 1.652 . S
C709 C327 1.632 . S
C714 C481 1.685 . S
C719 C349 1.669 . S
C724 C459 1.731 . S
C729 C415 1.716 . S
C734 C360 1.780 . S
C739 C426 1.706 . S
C744 C371 1.649 . S
C749 C437 1.668 . S
C754 C382 1.731 . S
C759 C404 1.742 . S
C764 C393 1.685 . S
C769 C7 1.656 . S
C774 C84 1.570 . S
C779 C51 1.650 . S
C784 C18 1.561 . S
C789 C29 1.630 . S
C794 C62 1.535 . S
C799 C40 1.546 . S
C804 C73 1.645 . S
C809 C95 1.658 . S
C814 C227 1.574 . S
C819 C106 1.550 . S
C824 C458 1.645 . S
C829 C469 1.501 . S
C834 C117 1.583 . S
C839 C480 1.605 . S
C844 C128 1.525 . S
C849 C139 1.605 . S
C854 C524 1.525 . S
C859 C150 1.547 . S
C864 C238 1.642 . S
C869 C161 1.651 . S
C874 C513 1.563 . S
C879 C183 1.656 . S
C884 C172 1.573 . S
C889 C370 1.501 . S
C894 C194 1.583 . S
C899 C381 1.645 . S
C904 C205 1.546 . S
C909 C392 1.535 . S
C914 C216 1.630 . S
C919 C249 1.544 . S
C924 C425 1.641 . S
C929 C403 1.631 . S
C934 C260 1.539 . S
C939 C348 1.529 . S
C944 C271 1.627 . S
C949 C282 1.547 . S
C954 C315 1.642 . S
C959 C293 1.604 . S
C964 C326 1.523 . S
C969 C337 1.583 . S
C974 C304 1.499 . S
C979 C491 1.529 . S
C984 C359 1.627 . S
C989 C414 1.562 . S
C994 C502 1.650 . S
C999 C447 1.627 . S
C1004 C436 1.529 . S
C1009 C324 1.194 . S
C1014 C5 1.487 . S
C1019 C335 1.664 . S
C1024 C16 1.351 . S
C1029 C346 1.305 . S
C1034 C27 1.620 . S
C1039 C313 1.595 . S
C1044 C38 1.275 . S
C1049 C49 1.534 . S
C1054 C302 1.227 . S
C1059 C60 1.319 . S
C1064 C269 1.629 . S
C1069 C71 1.597 . S
C1074 C280 1.280 . S
C1079 C291 1.626 . S
C1084 C82 1.310 . S
C1089 C93 1.490 . S
C1094 C522 1.186 . S
C1099 C104 1.277 . S
C1104 C236 1.592 . S
C1109 C115 1.666 . S
C1114 C511 1.354 . S
C1119 C181 1.491 . S
C1124 C126 1.192 . S
C1129 C137 1.622 . S
C1134 C225 1.309 . S
C1139 C456 1.601 . S
C1144 C148 1.279 . S
C1149 C159 1.534 . S
C1154 C467 1.227 . S
C1159 C478 1.625 . S
C1164 C170 1.313 . S
C1169 C412 1.350 . S
C1174 C192 1.670 . S
C1179 C423 1.595 . S
C1184 C203 1.277 . S
C1189 C214 1.619 . S
C1194 C434 1.305 . S
C1199 C247 1.276 . S
C1204 C379 1.598 . S
C1209 C258 1.317 . S
C1214 C357 1.625 . S
C1219 C368 1.229 . S
C1224 C500 1.530 . S
C1229 C390 1.316 . S
C1234 C445 1.628 . S
C1239 C401 1.617 . S
C1244 C489 1.306 . S
