# Generated by pormake.
# Topology ukt, (4)-cn, num edge types: 1
# Building blocks:
#     Node 0, Type 0, BuildingBlock: ICAMEG_clean_sbu_1, # of connection points: 4
#     Node 1, Type 0, BuildingBlock: ICAMEG_clean_sbu_1, # of connection points: 4
#     Node 2, Type 0, BuildingBlock: ICAMEG_clean_sbu_1, # of connection points: 4
#     Node 3, Type 0, BuildingBlock: ICAMEG_clean_sbu_1, # of connection points: 4
#     Node 4, Type 0, BuildingBlock: ICAMEG_clean_sbu_1, # of connection points: 4
#     Node 5, Type 0, BuildingBlock: ICAMEG_clean_sbu_1, # of connection points: 4
#     Node 6, Type 0, BuildingBlock: ICAMEG_clean_sbu_1, # of connection points: 4
#     Node 7, Type 0, BuildingBlock: ICAMEG_clean_sbu_1, # of connection points: 4
#     Node 8, Type 0, BuildingBlock: ICAMEG_clean_sbu_1, # of connection points: 4
#     Node 9, Type 0, BuildingBlock: ICAMEG_clean_sbu_1, # of connection points: 4
#     Node 10, Type 0, BuildingBlock: ICAMEG_clean_sbu_1, # of connection points: 4
#     Node 11, Type 0, BuildingBlock: ICAMEG_clean_sbu_1, # of connection points: 4
#     Node 12, Type 0, BuildingBlock: ICAMEG_clean_sbu_1, # of connection points: 4
#     Node 13, Type 0, BuildingBlock: ICAMEG_clean_sbu_1, # of connection points: 4
#     Node 14, Type 0, BuildingBlock: ICAMEG_clean_sbu_1, # of connection points: 4
#     Node 15, Type 0, BuildingBlock: ICAMEG_clean_sbu_1, # of connection points: 4
#     Edge 16, Type (0, 0), BuildingBlock: XIVTED_clean_linker_0, # of connection points: 2
#     Edge 17, Type (0, 0), BuildingBlock: XIVTED_clean_linker_0, # of connection points: 2
#     Edge 18, Type (0, 0), BuildingBlock: XIVTED_clean_linker_0, # of connection points: 2
#     Edge 19, Type (0, 0), BuildingBlock: XIVTED_clean_linker_0, # of connection points: 2
#     Edge 20, Type (0, 0), BuildingBlock: XIVTED_clean_linker_0, # of connection points: 2
#     Edge 21, Type (0, 0), BuildingBlock: XIVTED_clean_linker_0, # of connection points: 2
#     Edge 22, Type (0, 0), BuildingBlock: XIVTED_clean_linker_0, # of connection points: 2
#     Edge 23, Type (0, 0), BuildingBlock: XIVTED_clean_linker_0, # of connection points: 2
#     Edge 24, Type (0, 0), BuildingBlock: XIVTED_clean_linker_0, # of connection points: 2
#     Edge 25, Type (0, 0), BuildingBlock: XIVTED_clean_linker_0, # of connection points: 2
#     Edge 26, Type (0, 0), BuildingBlock: XIVTED_clean_linker_0, # of connection points: 2
#     Edge 27, Type (0, 0), BuildingBlock: XIVTED_clean_linker_0, # of connection points: 2
#     Edge 28, Type (0, 0), BuildingBlock: XIVTED_clean_linker_0, # of connection points: 2
#     Edge 29, Type (0, 0), BuildingBlock: XIVTED_clean_linker_0, # of connection points: 2
#     Edge 30, Type (0, 0), BuildingBlock: XIVTED_clean_linker_0, # of connection points: 2
#     Edge 31, Type (0, 0), BuildingBlock: XIVTED_clean_linker_0, # of connection points: 2
#     Edge 32, Type (0, 0), BuildingBlock: XIVTED_clean_linker_0, # of connection points: 2
#     Edge 33, Type (0, 0), BuildingBlock: XIVTED_clean_linker_0, # of connection points: 2
#     Edge 34, Type (0, 0), BuildingBlock: XIVTED_clean_linker_0, # of connection points: 2
#     Edge 35, Type (0, 0), BuildingBlock: XIVTED_clean_linker_0, # of connection points: 2
#     Edge 36, Type (0, 0), BuildingBlock: XIVTED_clean_linker_0, # of connection points: 2
#     Edge 37, Type (0, 0), BuildingBlock: XIVTED_clean_linker_0, # of connection points: 2
#     Edge 38, Type (0, 0), BuildingBlock: XIVTED_clean_linker_0, # of connection points: 2
#     Edge 39, Type (0, 0), BuildingBlock: XIVTED_clean_linker_0, # of connection points: 2
#     Edge 40, Type (0, 0), BuildingBlock: XIVTED_clean_linker_0, # of connection points: 2
#     Edge 41, Type (0, 0), BuildingBlock: XIVTED_clean_linker_0, # of connection points: 2
#     Edge 42, Type (0, 0), BuildingBlock: XIVTED_clean_linker_0, # of connection points: 2
#     Edge 43, Type (0, 0), BuildingBlock: XIVTED_clean_linker_0, # of connection points: 2
#     Edge 44, Type (0, 0), BuildingBlock: XIVTED_clean_linker_0, # of connection points: 2
#     Edge 45, Type (0, 0), BuildingBlock: XIVTED_clean_linker_0, # of connection points: 2
#     Edge 46, Type (0, 0), BuildingBlock: XIVTED_clean_linker_0, # of connection points: 2
#     Edge 47, Type (0, 0), BuildingBlock: XIVTED_clean_linker_0, # of connection points: 2
# Relax obj value: 0.226
# Max RMSD: 0.138
# Mean RMSD: 0.138
data_MOF--net-ukt--node1-ICAMEG_clean_sbu_1--edge1-XIVTED_clean_linker_0
_symmetry_space_group_name_H-M    P1
_symmetry_Int_Tables_number       1
_symmetry_cell_setting            triclinic
loop_
_symmetry_equiv_pos_as_xyz
'x, y, z'
_cell_length_a     44.68847
_cell_length_b     44.721244
_cell_length_c     40.40094
_cell_angle_alpha  89.997905
_cell_angle_beta   90.007789
_cell_angle_gamma 89.991874
loop_
_atom_site_label
_atom_site_type_symbol
_atom_site_fract_x
_atom_site_fract_y
_atom_site_fract_z
_atom_type_partial_charge
Co0 Co 0.56605 0.17304 0.1034 0.0
Co1 Co 0.52338 0.16652 0.03216 0.0
O2 O 0.52928 0.16203 0.08001 0.0
C3 C 0.51549 0.20197 0.14174 0.0
O4 O 0.49494 0.19175 0.12154 0.0
C5 C 0.52029 0.10164 0.04306 0.0
O6 O 0.54187 0.10509 0.06474 0.0
O7 O 0.56462 0.15195 0.02197 0.0
O8 O 0.59027 0.15144 0.06975 0.0
H9 H 0.55092 0.19974 0.91732 0.0
H10 H 0.51647 0.14102 0.13842 0.0
O11 O 0.54311 0.19579 0.13783 0.0
H12 H 0.60558 0.07746 0.15254 0.0
H13 H 0.63045 0.19016 0.20396 0.0
H14 H 0.62586 0.19427 0.08208 0.0
H15 H 0.6089 0.12496 0.12189 0.0
H16 H 0.58437 0.17568 0.1744 0.0
O17 O 0.5089 0.12432 0.02874 0.0
H18 H 0.55823 0.19382 0.97748 0.0
H19 H 0.47513 0.14831 0.98535 0.0
H20 H 0.67248 0.20868 0.11063 0.0
H21 H 0.51225 0.09402 0.16959 0.0
H22 H 0.67496 0.20669 0.17202 0.0
H23 H 0.557 0.06174 0.17679 0.0
O24 O 0.56964 0.21097 0.07779 0.0
H25 H 0.42138 0.16046 0.08403 0.0
H26 H 0.48758 0.2197 0.01169 0.0
H27 H 0.43654 0.23782 0.02338 0.0
H28 H 0.40301 0.20805 0.05969 0.0
H29 H 0.47276 0.1434 0.07209 0.0
H30 H 0.46703 0.1535 0.92522 0.0
H31 H 0.50504 0.17949 0.89081 0.0
O32 O 0.53839 0.20823 0.03433 0.0
C33 C 0.58795 0.14604 0.0389 0.0
C34 C 0.53414 0.18848 0.93207 0.0
C35 C 0.48707 0.16249 0.9365 0.0
N36 N 0.51699 0.17102 0.98494 0.0
C37 C 0.5381 0.18515 0.96616 0.0
C38 C 0.4918 0.15958 0.97052 0.0
C39 C 0.50841 0.17708 0.9172 0.0
C40 C 0.53618 0.12753 0.14183 0.0
N41 N 0.56301 0.13616 0.12874 0.0
C42 C 0.5336 0.10072 0.15935 0.0
C43 C 0.55869 0.08259 0.16332 0.0
C44 C 0.58594 0.09139 0.14971 0.0
C45 C 0.58767 0.11833 0.13234 0.0
C46 C 0.62966 0.19107 0.17721 0.0
C47 C 0.62685 0.19313 0.10878 0.0
C48 C 0.60362 0.18296 0.16033 0.0
N49 N 0.60253 0.18389 0.12653 0.0
C50 C 0.65327 0.20141 0.12482 0.0
C51 C 0.65464 0.20032 0.15926 0.0
C52 C 0.55727 0.2222 0.05219 0.0
C53 C 0.43575 0.1736 0.06813 0.0
C54 C 0.47323 0.20677 0.02777 0.0
C55 C 0.4443 0.21706 0.03417 0.0
C56 C 0.42548 0.20033 0.05451 0.0
N57 N 0.48314 0.18052 0.04123 0.0
C58 C 0.46482 0.16398 0.06116 0.0
Co59 Co 0.32794 0.56684 0.10616 0.0
Co60 Co 0.33242 0.52581 0.03377 0.0
O61 O 0.33888 0.53115 0.08121 0.0
C62 C 0.29383 0.51892 0.14005 0.0
O63 O 0.28346 0.51029 0.11119 0.0
C64 C 0.39742 0.52336 0.04166 0.0
O65 O 0.39408 0.54564 0.06243 0.0
O66 O 0.34662 0.56701 0.02348 0.0
O67 O 0.34444 0.5932 0.07086 0.0
H68 H 0.29484 0.55426 0.92083 0.0
H69 H 0.36422 0.51908 0.13759 0.0
O70 O 0.31159 0.54107 0.14221 0.0
H71 H 0.42601 0.61022 0.14447 0.0
H72 H 0.31649 0.62781 0.21018 0.0
H73 H 0.30081 0.62541 0.08938 0.0
H74 H 0.37566 0.6119 0.11955 0.0
H75 H 0.33102 0.58348 0.17761 0.0
O76 O 0.37454 0.51121 0.02848 0.0
H77 H 0.30303 0.5611 0.98074 0.0
H78 H 0.34885 0.47802 0.98574 0.0
H79 H 0.28618 0.6703 0.12097 0.0
H80 H 0.4143 0.51643 0.16309 0.0
H81 H 0.29399 0.67167 0.18182 0.0
H82 H 0.44562 0.56221 0.1665 0.0
O83 O 0.28768 0.56849 0.08469 0.0
H84 H 0.33846 0.42449 0.08701 0.0
H85 H 0.27876 0.49023 0.01457 0.0
H86 H 0.2603 0.43956 0.02749 0.0
H87 H 0.29028 0.4063 0.0639 0.0
H88 H 0.35596 0.47541 0.07364 0.0
H89 H 0.34138 0.47038 0.92581 0.0
H90 H 0.31409 0.50862 0.89298 0.0
O91 O 0.29087 0.54116 0.03804 0.0
C92 C 0.35027 0.59097 0.04006 0.0
C93 C 0.30666 0.53738 0.93489 0.0
C94 C 0.33282 0.49032 0.93768 0.0
N95 N 0.32613 0.51984 0.98675 0.0
C96 C 0.31128 0.54108 0.96883 0.0
C97 C 0.33702 0.49479 0.97158 0.0
C98 C 0.3175 0.51178 0.91927 0.0
C99 C 0.37761 0.53915 0.13924 0.0
N100 N 0.36703 0.56563 0.12705 0.0
C101 C 0.40599 0.53749 0.1536 0.0
C102 C 0.42357 0.56317 0.15546 0.0
C103 C 0.41259 0.59011 0.14308 0.0
C104 C 0.38411 0.59092 0.12887 0.0
C105 C 0.31303 0.6275 0.18367 0.0
C106 C 0.30448 0.62593 0.11582 0.0
C107 C 0.32115 0.60244 0.1651 0.0
N108 N 0.31699 0.60197 0.13159 0.0
C109 C 0.29606 0.65137 0.13359 0.0
C110 C 0.30042 0.65211 0.16774 0.0
C111 C 0.27647 0.55785 0.05809 0.0
C112 C 0.32524 0.43874 0.07105 0.0
C113 C 0.29187 0.4759 0.03051 0.0
C114 C 0.28134 0.44722 0.03768 0.0
C115 C 0.29818 0.42856 0.0581 0.0
N116 N 0.31848 0.48567 0.04322 0.0
C117 C 0.33509 0.46754 0.0633 0.0
Co118 Co 0.93208 0.3251 0.10509 0.0
Co119 Co 0.97255 0.33178 0.03231 0.0
O120 O 0.96793 0.33652 0.08028 0.0
C121 C 0.98436 0.29772 0.1419 0.0
O122 O 0.00401 0.30812 0.12075 0.0
C123 C 0.97514 0.39671 0.04283 0.0
O124 O 0.95401 0.39302 0.06497 0.0
O125 O 0.93092 0.3458 0.02346 0.0
O126 O 0.90643 0.34576 0.07197 0.0
H127 H 0.94223 0.2976 0.91867 0.0
H128 H 0.98195 0.35854 0.13795 0.0
O129 O 0.95651 0.30326 0.13901 0.0
H130 H 0.89201 0.42052 0.15406 0.0
H131 H 0.87098 0.30794 0.20811 0.0
H132 H 0.87213 0.30241 0.0862 0.0
H133 H 0.8888 0.37256 0.12427 0.0
H134 H 0.91587 0.32298 0.17673 0.0
O135 O 0.98645 0.37415 0.02818 0.0
H136 H 0.9365 0.3038 0.97901 0.0
H137 H 0.01927 0.35027 0.98379 0.0
H138 H 0.82667 0.28741 0.11659 0.0
H139 H 0.98608 0.40601 0.16823 0.0
H140 H 0.82591 0.29012 0.178 0.0
H141 H 0.94091 0.4375 0.17642 0.0
O142 O 0.92854 0.28681 0.08019 0.0
H143 H 0.07597 0.33933 0.08042 0.0
H144 H 0.00829 0.27882 0.01109 0.0
H145 H 0.05984 0.26132 0.02111 0.0
H146 H 0.09411 0.29173 0.0559 0.0
H147 H 0.02408 0.35575 0.0702 0.0
H148 H 0.02578 0.3448 0.92345 0.0
H149 H 0.98714 0.31819 0.8905 0.0
O150 O 0.95803 0.28989 0.03527 0.0
C151 C 0.90787 0.35118 0.04105 0.0
C152 C 0.95928 0.30913 0.93277 0.0
C153 C 0.00616 0.33566 0.93545 0.0
N154 N 0.97768 0.32709 0.98493 0.0
C155 C 0.95621 0.31262 0.96696 0.0
C156 C 0.00233 0.33872 0.9696 0.0
C157 C 0.98447 0.32072 0.91698 0.0
C158 C 0.96207 0.37168 0.14181 0.0
N159 N 0.93507 0.36235 0.12976 0.0
C160 C 0.9646 0.39876 0.15881 0.0
C161 C 0.93927 0.41645 0.16333 0.0
C162 C 0.91184 0.40694 0.15079 0.0
C163 C 0.91018 0.37974 0.1339 0.0
C164 C 0.87101 0.30672 0.18136 0.0
C165 C 0.87189 0.30386 0.11291 0.0
C166 C 0.89638 0.31514 0.16346 0.0
N167 N 0.89652 0.3138 0.12965 0.0
C168 C 0.84612 0.29524 0.12999 0.0
C169 C 0.84573 0.29674 0.16444 0.0
C170 C 0.94012 0.27568 0.05411 0.0
C171 C 0.06127 0.32591 0.06518 0.0
C172 C 0.02297 0.29203 0.02653 0.0
C173 C 0.05218 0.28208 0.03197 0.0
C174 C 0.07141 0.29917 0.05146 0.0
N175 N 0.01319 0.31827 0.04009 0.0
C176 C 0.03191 0.33517 0.05917 0.0
Co177 Co 0.17131 0.93029 0.10629 0.0
Co178 Co 0.16585 0.97248 0.03477 0.0
O179 O 0.16001 0.9664 0.08221 0.0
C180 C 0.20605 0.97732 0.14118 0.0
O181 O 0.21676 0.98625 0.11259 0.0
C182 C 0.10087 0.97526 0.04334 0.0
O183 O 0.10408 0.9525 0.06351 0.0
O184 O 0.15119 0.93153 0.02392 0.0
O185 O 0.15446 0.90453 0.07066 0.0
H186 H 0.20188 0.94563 0.92076 0.0
H187 H 0.13523 0.97746 0.13903 0.0
O188 O 0.18792 0.95543 0.14276 0.0
H189 H 0.07377 0.88606 0.14506 0.0
H190 H 0.18388 0.8675 0.20883 0.0
H191 H 0.19832 0.87206 0.08792 0.0
H192 H 0.12385 0.88489 0.11948 0.0
H193 H 0.16899 0.91239 0.17741 0.0
O194 O 0.12381 0.9875 0.0304 0.0
H195 H 0.19439 0.93789 0.98064 0.0
H196 H 0.14908 0.02112 0.9879 0.0
H197 H 0.2133 0.82663 0.11835 0.0
H198 H 0.08542 0.97959 0.16522 0.0
H199 H 0.20611 0.82417 0.17925 0.0
H200 H 0.05426 0.93368 0.16821 0.0
O201 O 0.21137 0.92907 0.08427 0.0
H202 H 0.16124 0.07293 0.09014 0.0
H203 H 0.21946 0.00805 0.01534 0.0
H204 H 0.23843 0.05838 0.02895 0.0
H205 H 0.2092 0.09121 0.06655 0.0
H206 H 0.14323 0.02234 0.07605 0.0
H207 H 0.15585 0.02965 0.92803 0.0
H208 H 0.18253 0.99179 0.89407 0.0
O209 O 0.20733 0.95684 0.03804 0.0
C210 C 0.14792 0.90729 0.0401 0.0
C211 C 0.19031 0.96234 0.93531 0.0
C212 C 0.16444 0.00948 0.93938 0.0
N213 N 0.17156 0.97915 0.98777 0.0
C214 C 0.18609 0.95812 0.96924 0.0
C215 C 0.16063 0.0045 0.97325 0.0
C216 C 0.17942 0.98823 0.92034 0.0
C217 C 0.1219 0.95734 0.14047 0.0
N218 N 0.13242 0.93108 0.12767 0.0
C219 C 0.09367 0.9587 0.15523 0.0
C220 C 0.07619 0.93294 0.15687 0.0
C221 C 0.08711 0.90623 0.14385 0.0
C222 C 0.11543 0.90572 0.12926 0.0
C223 C 0.18707 0.86828 0.18229 0.0
C224 C 0.19493 0.87107 0.11439 0.0
C225 C 0.17875 0.89366 0.16437 0.0
N226 N 0.18257 0.89474 0.13082 0.0
C227 C 0.20355 0.84533 0.1315 0.0
C228 C 0.19953 0.84397 0.16568 0.0
C229 C 0.22212 0.94001 0.05758 0.0
C230 C 0.17414 0.05886 0.07366 0.0
C231 C 0.20667 0.02218 0.0318 0.0
C232 C 0.21749 0.05068 0.03936 0.0
C233 C 0.20107 0.06909 0.06045 0.0
N234 N 0.1802 0.01237 0.04478 0.0
C235 C 0.164 0.03025 0.06551 0.0
Co236 Co 0.56949 0.32435 0.39819 0.0
Co237 Co 0.52792 0.33056 0.47005 0.0
O238 O 0.53379 0.33646 0.42255 0.0
C239 C 0.52159 0.292 0.36116 0.0
O240 O 0.51179 0.2801 0.38881 0.0
C241 C 0.52575 0.39551 0.46178 0.0
O242 O 0.54879 0.3922 0.442 0.0
O243 O 0.56909 0.34491 0.4807 0.0
O244 O 0.59589 0.33936 0.43414 0.0
H245 H 0.55502 0.29404 0.5838 0.0
H246 H 0.52376 0.36284 0.36636 0.0
O247 O 0.54393 0.30962 0.36123 0.0
H248 H 0.61746 0.42092 0.36205 0.0
H249 H 0.63206 0.31174 0.29546 0.0
H250 H 0.62658 0.29459 0.41589 0.0
H251 H 0.61673 0.37035 0.38632 0.0
H252 H 0.5877 0.32767 0.32719 0.0
O253 O 0.51322 0.37264 0.47451 0.0
H254 H 0.56251 0.30156 0.52388 0.0
H255 H 0.47967 0.34772 0.51726 0.0
H256 H 0.67148 0.27853 0.38514 0.0
H257 H 0.52353 0.4132 0.34148 0.0
H258 H 0.67441 0.28708 0.32448 0.0
H259 H 0.5706 0.44266 0.33936 0.0
O260 O 0.56902 0.28388 0.41913 0.0
H261 H 0.42716 0.33602 0.41525 0.0
H262 H 0.49193 0.2773 0.48971 0.0
H263 H 0.44135 0.25879 0.47641 0.0
H264 H 0.40856 0.28827 0.43898 0.0
H265 H 0.47801 0.35358 0.42903 0.0
H266 H 0.47139 0.34094 0.57718 0.0
H267 H 0.50918 0.31382 0.61083 0.0
O268 O 0.54316 0.28895 0.46659 0.0
C269 C 0.59348 0.34673 0.46448 0.0
C270 C 0.53834 0.30581 0.56939 0.0
C271 C 0.49142 0.33217 0.56567 0.0
N272 N 0.52143 0.32483 0.51707 0.0
C273 C 0.54242 0.31005 0.53544 0.0
C274 C 0.49626 0.33599 0.53178 0.0
C275 C 0.51263 0.31694 0.58454 0.0
C276 C 0.54439 0.37543 0.3653 0.0
N277 N 0.57023 0.36367 0.37786 0.0
C278 C 0.54409 0.40397 0.35127 0.0
C279 C 0.5705 0.4205 0.35013 0.0
C280 C 0.59679 0.40833 0.36289 0.0
C281 C 0.59623 0.37973 0.37675 0.0
C282 C 0.63107 0.30794 0.32189 0.0
C283 C 0.62778 0.29857 0.38953 0.0
C284 C 0.60598 0.31685 0.33999 0.0
N285 N 0.60465 0.31226 0.37341 0.0
C286 C 0.65322 0.28935 0.37223 0.0
C287 C 0.65483 0.29412 0.33819 0.0
C288 C 0.55863 0.27354 0.44628 0.0
C289 C 0.44121 0.32301 0.43165 0.0
C290 C 0.47783 0.29019 0.47332 0.0
C291 C 0.44919 0.27964 0.46593 0.0
C292 C 0.4308 0.2962 0.44495 0.0
N293 N 0.48783 0.31656 0.46026 0.0
C294 C 0.46997 0.33289 0.43962 0.0
Co295 Co 0.17203 0.56654 0.39049 0.0
Co296 Co 0.16614 0.5261 0.46316 0.0
O297 O 0.16079 0.53095 0.41549 0.0
C298 C 0.20756 0.51882 0.35797 0.0
O299 O 0.21778 0.51073 0.38708 0.0
C300 C 0.10131 0.52281 0.45367 0.0
O301 O 0.10468 0.54485 0.4326 0.0
O302 O 0.15116 0.56721 0.47249 0.0
O303 O 0.15443 0.59307 0.42497 0.0
H304 H 0.20055 0.55614 0.57682 0.0
H305 H 0.13695 0.5182 0.35851 0.0
O306 O 0.18942 0.5406 0.35522 0.0
H307 H 0.07449 0.6087 0.34892 0.0
H308 H 0.18534 0.62672 0.28618 0.0
H309 H 0.19821 0.6255 0.40741 0.0
H310 H 0.1242 0.61105 0.37529 0.0
H311 H 0.17049 0.58253 0.3188 0.0
O312 O 0.12413 0.51105 0.46742 0.0
H313 H 0.19378 0.56227 0.51661 0.0
H314 H 0.14913 0.47858 0.51128 0.0
H315 H 0.21314 0.67026 0.37576 0.0
H316 H 0.08753 0.51488 0.33158 0.0
H317 H 0.20673 0.67104 0.31469 0.0
H318 H 0.05587 0.56033 0.32679 0.0
O319 O 0.21177 0.56875 0.41313 0.0
H320 H 0.1626 0.42422 0.41099 0.0
H321 H 0.21971 0.49132 0.48443 0.0
H322 H 0.23905 0.44075 0.47272 0.0
H323 H 0.21038 0.40679 0.43581 0.0
H324 H 0.14421 0.47508 0.42319 0.0
H325 H 0.15519 0.47164 0.57151 0.0
H326 H 0.18118 0.51055 0.60466 0.0
O327 O 0.20757 0.54187 0.45998 0.0
C328 C 0.14772 0.59099 0.45555 0.0
C329 C 0.18929 0.53897 0.56263 0.0
C330 C 0.1638 0.49156 0.55965 0.0
N331 N 0.17134 0.52067 0.51043 0.0
C332 C 0.18548 0.54227 0.52851 0.0
C333 C 0.16039 0.49563 0.52558 0.0
C334 C 0.17839 0.5134 0.57824 0.0
C335 C 0.12342 0.53813 0.35627 0.0
N336 N 0.13345 0.5648 0.36849 0.0
C337 C 0.0954 0.53609 0.3411 0.0
C338 C 0.07764 0.56159 0.33846 0.0
C339 C 0.08806 0.58873 0.3509 0.0
C340 C 0.11618 0.58991 0.36593 0.0
C341 C 0.18818 0.62667 0.31278 0.0
C342 C 0.19516 0.62576 0.38086 0.0
C343 C 0.17987 0.60169 0.33138 0.0
N344 N 0.18326 0.60154 0.36501 0.0
C345 C 0.20374 0.65112 0.36307 0.0
C346 C 0.20017 0.65154 0.3288 0.0
C347 C 0.22236 0.55847 0.44022 0.0
C348 C 0.17526 0.43878 0.42718 0.0
C349 C 0.20716 0.4767 0.46827 0.0
C350 C 0.21819 0.44807 0.46178 0.0
C351 C 0.20208 0.42903 0.44109 0.0
N352 N 0.18078 0.48605 0.45462 0.0
C353 C 0.1649 0.46755 0.43426 0.0
Co354 Co 0.93147 0.17301 0.39441 0.0
Co355 Co 0.97191 0.1662 0.467 0.0
O356 O 0.96682 0.16078 0.41933 0.0
C357 C 0.97986 0.20586 0.35875 0.0
O358 O 0.9889 0.21798 0.38661 0.0
C359 C 0.97439 0.10143 0.45793 0.0
O360 O 0.95189 0.105 0.43747 0.0
O361 O 0.93062 0.1516 0.4766 0.0
O362 O 0.90451 0.15753 0.4296 0.0
H363 H 0.94277 0.20157 0.58057 0.0
H364 H 0.97786 0.13496 0.36306 0.0
O365 O 0.95763 0.18811 0.35821 0.0
H366 H 0.88443 0.07663 0.35621 0.0
H367 H 0.87064 0.18644 0.29051 0.0
H368 H 0.87396 0.20236 0.41125 0.0
H369 H 0.88459 0.12698 0.38102 0.0
H370 H 0.91451 0.17037 0.323 0.0
O371 O 0.98664 0.12413 0.47132 0.0
H372 H 0.93629 0.19453 0.52044 0.0
H373 H 0.01945 0.14881 0.51501 0.0
H374 H 0.82953 0.21855 0.37975 0.0
H375 H 0.97866 0.08483 0.33764 0.0
H376 H 0.82769 0.21062 0.31893 0.0
H377 H 0.93173 0.05524 0.33425 0.0
O378 O 0.9314 0.21328 0.41587 0.0
H379 H 0.07357 0.16159 0.41422 0.0
H380 H 0.00738 0.2194 0.488 0.0
H381 H 0.05811 0.2382 0.47594 0.0
H382 H 0.09161 0.20917 0.43886 0.0
H383 H 0.02256 0.14374 0.42676 0.0
H384 H 0.02672 0.15512 0.57515 0.0
H385 H 0.98826 0.18178 0.60831 0.0
O386 O 0.95658 0.20775 0.46371 0.0
C387 C 0.9065 0.14982 0.45987 0.0
C388 C 0.95974 0.19 0.56637 0.0
C389 C 0.00684 0.16389 0.56334 0.0
N390 N 0.97759 0.17151 0.51422 0.0
C391 C 0.95623 0.18603 0.53231 0.0
C392 C 0.00257 0.16034 0.52931 0.0
C393 C 0.98525 0.17886 0.58193 0.0
C394 C 0.95729 0.12233 0.36143 0.0
N395 N 0.9312 0.13389 0.37359 0.0
C396 C 0.95791 0.09391 0.34711 0.0
C397 C 0.93158 0.0773 0.34525 0.0
C398 C 0.90504 0.08927 0.3576 0.0
C399 C 0.90528 0.11776 0.37177 0.0
C400 C 0.87115 0.18997 0.31701 0.0
C401 C 0.87323 0.19866 0.38482 0.0
C402 C 0.89596 0.18098 0.33553 0.0
N403 N 0.89669 0.18523 0.36903 0.0
C404 C 0.84806 0.20795 0.3671 0.0
C405 C 0.84706 0.20353 0.33297 0.0
C406 C 0.94133 0.22333 0.44337 0.0
C407 C 0.05921 0.1744 0.43048 0.0
C408 C 0.02179 0.2067 0.47176 0.0
C409 C 0.05052 0.21742 0.46508 0.0
C410 C 0.0693 0.20112 0.44429 0.0
N411 N 0.0121 0.18043 0.45821 0.0
C412 C 0.03036 0.16435 0.43775 0.0
Co413 Co 0.32522 0.93118 0.39576 0.0
Co414 Co 0.3304 0.97232 0.46806 0.0
O415 O 0.33621 0.96702 0.42048 0.0
C416 C 0.28981 0.97822 0.36162 0.0
O417 O 0.27887 0.98659 0.39032 0.0
C418 C 0.39529 0.97544 0.45919 0.0
O419 O 0.39195 0.9531 0.43849 0.0
O420 O 0.3452 0.93127 0.47816 0.0
O421 O 0.3423 0.905 0.43089 0.0
H422 H 0.29465 0.94361 0.58162 0.0
H423 H 0.3608 0.9791 0.36374 0.0
O424 O 0.30834 0.95669 0.35976 0.0
H425 H 0.42312 0.88835 0.35614 0.0
H426 H 0.31309 0.86976 0.29215 0.0
H427 H 0.29864 0.87251 0.41313 0.0
H428 H 0.37309 0.88638 0.3818 0.0
H429 H 0.32765 0.91431 0.32434 0.0
O430 O 0.37242 0.98737 0.47264 0.0
H431 H 0.30201 0.93684 0.52158 0.0
H432 H 0.34709 0.02026 0.51579 0.0
H433 H 0.28399 0.82741 0.38192 0.0
H434 H 0.41055 0.98202 0.3375 0.0
H435 H 0.29119 0.82586 0.32098 0.0
H436 H 0.44214 0.93645 0.33372 0.0
O437 O 0.28522 0.92936 0.41783 0.0
H438 H 0.33464 0.07367 0.41466 0.0
H439 H 0.27668 0.00741 0.48821 0.0
H440 H 0.25755 0.0579 0.47562 0.0
H441 H 0.28665 0.09142 0.43866 0.0
H442 H 0.35282 0.0229 0.42772 0.0
H443 H 0.34045 0.02784 0.57584 0.0
H444 H 0.31395 0.98938 0.60914 0.0
O445 O 0.28894 0.95659 0.46451 0.0
C446 C 0.3487 0.9073 0.46153 0.0
C447 C 0.30613 0.96058 0.56736 0.0
C448 C 0.33188 0.00783 0.56413 0.0
N449 N 0.32472 0.97826 0.51518 0.0
C450 C 0.31028 0.95691 0.53334 0.0
C451 C 0.33562 0.0034 0.53016 0.0
C452 C 0.317 0.98625 0.58279 0.0
C453 C 0.37432 0.95911 0.36195 0.0
N454 N 0.36407 0.93259 0.37434 0.0
C455 C 0.40251 0.96093 0.34716 0.0
C456 C 0.42023 0.93536 0.34509 0.0
C457 C 0.40959 0.90837 0.35769 0.0
C458 C 0.3813 0.90741 0.37233 0.0
C459 C 0.3099 0.87015 0.3187 0.0
C460 C 0.30203 0.87191 0.38664 0.0
C461 C 0.31804 0.89533 0.33706 0.0
N462 N 0.31422 0.8959 0.37062 0.0
C463 C 0.29361 0.84636 0.36909 0.0
C464 C 0.29762 0.84552 0.33489 0.0
C465 C 0.27433 0.9399 0.44465 0.0
C466 C 0.3218 0.05929 0.43087 0.0
C467 C 0.28941 0.02184 0.47202 0.0
C468 C 0.2785 0.05042 0.46504 0.0
C469 C 0.29485 0.06923 0.44431 0.0
N470 N 0.31591 0.01231 0.45882 0.0
C471 C 0.33203 0.03058 0.43843 0.0
Co472 Co 0.42978 0.82703 0.89417 0.0
Co473 Co 0.47204 0.83193 0.96573 0.0
O474 O 0.46605 0.83784 0.91827 0.0
C475 C 0.47647 0.79163 0.85951 0.0
O476 O 0.4853 0.781 0.88818 0.0
C477 C 0.47552 0.89675 0.95709 0.0
O478 O 0.4529 0.89371 0.93667 0.0
O479 O 0.43117 0.84699 0.97655 0.0
O480 O 0.4042 0.84434 0.92971 0.0
H481 H 0.44468 0.79611 0.07968 0.0
H482 H 0.47756 0.86226 0.86137 0.0
O483 O 0.45474 0.80995 0.8578 0.0
H484 H 0.38702 0.92505 0.85499 0.0
H485 H 0.36688 0.8152 0.79157 0.0
H486 H 0.37109 0.80097 0.91253 0.0
H487 H 0.38508 0.8751 0.88076 0.0
H488 H 0.412 0.82944 0.82302 0.0
O489 O 0.48747 0.87374 0.97017 0.0
H490 H 0.43707 0.80373 0.01979 0.0
H491 H 0.52084 0.84811 0.01267 0.0
H492 H 0.32543 0.78666 0.88208 0.0
H493 H 0.48045 0.91191 0.83499 0.0
H494 H 0.32314 0.79376 0.82115 0.0
H495 H 0.43498 0.94374 0.83182 0.0
O496 O 0.42795 0.78705 0.91632 0.0
H497 H 0.57264 0.83551 0.91044 0.0
H498 H 0.50709 0.77798 0.98517 0.0
H499 H 0.55726 0.7585 0.97158 0.0
H500 H 0.59043 0.78739 0.93401 0.0
H501 H 0.52219 0.85404 0.92451 0.0
H502 H 0.52925 0.84122 0.07255 0.0
H503 H 0.49105 0.81494 0.10644 0.0
O504 O 0.456 0.79069 0.96239 0.0
C505 C 0.40699 0.85069 0.96032 0.0
C506 C 0.46154 0.80751 0.06516 0.0
C507 C 0.50899 0.83286 0.06117 0.0
N508 N 0.47861 0.82611 0.01273 0.0
C509 C 0.4574 0.8118 0.03122 0.0
C510 C 0.50408 0.83674 0.02729 0.0
C511 C 0.48755 0.8181 0.08016 0.0
C512 C 0.45762 0.87588 0.85985 0.0
N513 N 0.43117 0.86581 0.87266 0.0
C514 C 0.45942 0.90402 0.84498 0.0
C515 C 0.43391 0.92187 0.84325 0.0
C516 C 0.407 0.91142 0.85627 0.0
C517 C 0.40605 0.88317 0.87098 0.0
C518 C 0.36759 0.81206 0.81812 0.0
C519 C 0.37018 0.80431 0.88605 0.0
C520 C 0.3931 0.82001 0.83605 0.0
N521 N 0.39407 0.81625 0.86961 0.0
C522 C 0.3443 0.79608 0.86892 0.0
C523 C 0.34305 0.80004 0.83473 0.0
C524 C 0.43888 0.77616 0.94294 0.0
C525 C 0.55842 0.82277 0.92691 0.0
C526 C 0.52137 0.79062 0.96873 0.0
C527 C 0.54977 0.77952 0.96118 0.0
C528 C 0.56837 0.79574 0.94011 0.0
N529 N 0.51182 0.81719 0.95576 0.0
C530 C 0.52989 0.83319 0.93504 0.0
Co531 Co 0.67276 0.43189 0.89271 0.0
Co532 Co 0.66659 0.47244 0.96529 0.0
O533 O 0.66139 0.4675 0.9176 0.0
C534 C 0.7083 0.4795 0.85992 0.0
O535 O 0.71868 0.48766 0.88895 0.0
C536 C 0.6018 0.47567 0.95547 0.0
O537 O 0.60529 0.45348 0.9346 0.0
O538 O 0.65164 0.43132 0.97469 0.0
O539 O 0.65521 0.40541 0.92723 0.0
H540 H 0.70078 0.44276 0.07916 0.0
H541 H 0.63753 0.48007 0.86062 0.0
O542 O 0.69009 0.45777 0.85735 0.0
H543 H 0.57547 0.38932 0.85099 0.0
H544 H 0.68645 0.37148 0.78862 0.0
H545 H 0.69913 0.37307 0.90987 0.0
H546 H 0.62516 0.38718 0.87743 0.0
H547 H 0.67137 0.4157 0.82107 0.0
O548 O 0.62454 0.48748 0.96931 0.0
H549 H 0.69419 0.43647 0.01894 0.0
H550 H 0.64932 0.52003 0.01321 0.0
H551 H 0.71429 0.32829 0.87841 0.0
H552 H 0.58812 0.48318 0.83362 0.0
H553 H 0.70798 0.32732 0.81733 0.0
H554 H 0.55666 0.4376 0.82882 0.0
O555 O 0.71246 0.42987 0.91544 0.0
H556 H 0.66311 0.57419 0.91279 0.0
H557 H 0.72004 0.50733 0.98668 0.0
H558 H 0.73937 0.55789 0.97489 0.0
H559 H 0.71079 0.59172 0.93775 0.0
H560 H 0.64473 0.52335 0.92507 0.0
H561 H 0.6552 0.52713 0.07343 0.0
H562 H 0.6812 0.48836 0.10679 0.0
O563 O 0.70807 0.4567 0.96231 0.0
C564 C 0.64837 0.4075 0.95776 0.0
C565 C 0.6895 0.45986 0.06487 0.0
C566 C 0.66389 0.50719 0.06166 0.0
N567 N 0.67164 0.47799 0.01256 0.0
C568 C 0.68579 0.45646 0.03075 0.0
C569 C 0.66058 0.50303 0.0276 0.0
C570 C 0.67848 0.48544 0.08037 0.0
C571 C 0.62408 0.46009 0.85838 0.0
N572 N 0.63421 0.43347 0.87064 0.0
C573 C 0.59607 0.46201 0.84317 0.0
C574 C 0.57842 0.43644 0.84052 0.0
C575 C 0.58894 0.40935 0.85299 0.0
C576 C 0.61705 0.40828 0.86806 0.0
C577 C 0.68925 0.37161 0.81523 0.0
C578 C 0.69613 0.37273 0.88332 0.0
C579 C 0.68081 0.39661 0.83373 0.0
N580 N 0.68415 0.39686 0.86736 0.0
C581 C 0.70484 0.34735 0.86563 0.0
C582 C 0.70132 0.34683 0.83135 0.0
C583 C 0.72296 0.44015 0.94258 0.0
C584 C 0.67573 0.55969 0.92908 0.0
C585 C 0.70754 0.5219 0.97042 0.0
C586 C 0.71855 0.55052 0.96389 0.0
C587 C 0.7025 0.5695 0.94306 0.0
N588 N 0.68122 0.51249 0.95669 0.0
C589 C 0.66538 0.53093 0.9362 0.0
Co590 Co 0.0685 0.67172 0.89497 0.0
Co591 Co 0.02688 0.66588 0.96684 0.0
O592 O 0.03263 0.66013 0.91932 0.0
C593 C 0.02079 0.70494 0.85874 0.0
O594 O 0.01119 0.71647 0.88668 0.0
C595 C 0.024 0.6011 0.95797 0.0
O596 O 0.04679 0.60445 0.93785 0.0
O597 O 0.0679 0.65108 0.97737 0.0
O598 O 0.0947 0.65584 0.93069 0.0
H599 H 0.05453 0.70167 0.08071 0.0
H600 H 0.02189 0.63443 0.86295 0.0
O601 O 0.0431 0.68728 0.85831 0.0
H602 H 0.1144 0.57452 0.85759 0.0
H603 H 0.131 0.68393 0.79213 0.0
H604 H 0.12626 0.70009 0.91276 0.0
H605 H 0.11477 0.62491 0.88233 0.0
H606 H 0.0864 0.6687 0.82386 0.0
O607 O 0.0118 0.62392 0.97117 0.0
H608 H 0.06187 0.69427 0.02075 0.0
H609 H 0.9785 0.6491 0.01405 0.0
H610 H 0.17141 0.71543 0.88202 0.0
H611 H 0.02056 0.58428 0.83759 0.0
H612 H 0.17397 0.70737 0.82125 0.0
H613 H 0.06702 0.5539 0.83496 0.0
O614 O 0.06893 0.71202 0.91634 0.0
H615 H 0.92598 0.66167 0.91222 0.0
H616 H 0.99151 0.71948 0.98673 0.0
H617 H 0.9411 0.73859 0.97358 0.0
H618 H 0.90794 0.70957 0.93613 0.0
H619 H 0.97666 0.64351 0.92585 0.0
H620 H 0.97036 0.65577 0.07401 0.0
H621 H 0.0085 0.68233 0.10772 0.0
O622 O 0.04257 0.70731 0.96351 0.0
C623 C 0.0922 0.64865 0.96108 0.0
C624 C 0.0377 0.69015 0.06627 0.0
C625 C 0.99048 0.66435 0.06251 0.0
N626 N 0.02051 0.67151 0.0139 0.0
C627 C 0.04169 0.68598 0.0323 0.0
C628 C 0.99523 0.66059 0.0286 0.0
C629 C 0.01188 0.67926 0.08141 0.0
C630 C 0.04226 0.62144 0.86165 0.0
N631 N 0.06839 0.63257 0.8742 0.0
C632 C 0.04134 0.59302 0.84736 0.0
C633 C 0.06741 0.57597 0.84593 0.0
C634 C 0.09399 0.58751 0.85866 0.0
C635 C 0.09405 0.61601 0.87279 0.0
C636 C 0.13018 0.68751 0.81861 0.0
C637 C 0.12729 0.69633 0.88636 0.0
C638 C 0.10495 0.67899 0.8367 0.0
N639 N 0.10382 0.6833 0.87018 0.0
C640 C 0.15287 0.70515 0.86907 0.0
C641 C 0.15428 0.70065 0.83497 0.0
C642 C 0.05852 0.72247 0.94342 0.0
C643 C 0.94019 0.67448 0.92864 0.0
C644 C 0.97724 0.70678 0.97033 0.0
C645 C 0.9487 0.71768 0.96303 0.0
C646 C 0.9301 0.70137 0.94203 0.0
N647 N 0.98692 0.68034 0.95718 0.0
C648 C 0.96886 0.66426 0.93653 0.0
Co649 Co 0.82437 0.06636 0.89623 0.0
Co650 Co 0.83031 0.02501 0.96827 0.0
O651 O 0.83623 0.03068 0.92075 0.0
C652 C 0.79159 0.01841 0.85991 0.0
O653 O 0.77991 0.00882 0.88777 0.0
C654 C 0.89532 0.02262 0.96003 0.0
O655 O 0.89204 0.04542 0.93993 0.0
O656 O 0.8448 0.06614 0.97869 0.0
O657 O 0.83988 0.09276 0.93191 0.0
H658 H 0.79388 0.05269 0.08188 0.0
H659 H 0.86229 0.02006 0.86458 0.0
O660 O 0.80919 0.04076 0.85957 0.0
H661 H 0.92128 0.1131 0.85907 0.0
H662 H 0.81184 0.12844 0.79313 0.0
H663 H 0.79533 0.12383 0.91372 0.0
H664 H 0.87078 0.11303 0.88363 0.0
H665 H 0.82748 0.08412 0.82508 0.0
O666 O 0.87241 0.01024 0.97286 0.0
H667 H 0.80142 0.05991 0.02192 0.0
H668 H 0.8473 0.97693 0.01572 0.0
H669 H 0.77957 0.1687 0.88276 0.0
H670 H 0.91255 0.01917 0.8394 0.0
H671 H 0.7878 0.17119 0.82202 0.0
H672 H 0.94247 0.0659 0.83667 0.0
O673 O 0.78396 0.06647 0.91739 0.0
H674 H 0.83549 0.92411 0.91398 0.0
H675 H 0.77688 0.9893 0.98806 0.0
H676 H 0.7582 0.93876 0.97498 0.0
H677 H 0.78763 0.90577 0.93773 0.0
H678 H 0.85322 0.97492 0.92754 0.0
H679 H 0.8405 0.96892 0.07568 0.0
H680 H 0.81351 0.00692 0.10914 0.0
O681 O 0.7887 0.04037 0.96472 0.0
C682 C 0.84707 0.09039 0.96231 0.0
C683 C 0.80559 0.03592 0.06755 0.0
C684 C 0.83179 0.98892 0.06407 0.0
N685 N 0.82455 0.01874 0.01532 0.0
C686 C 0.80984 0.03984 0.03358 0.0
C687 C 0.83562 0.9936 0.03016 0.0
C688 C 0.81663 0.01025 0.08283 0.0
C689 C 0.87507 0.04054 0.86325 0.0
N690 N 0.86362 0.06657 0.87566 0.0
C691 C 0.90356 0.03987 0.84906 0.0
C692 C 0.92035 0.0661 0.84758 0.0
C693 C 0.90849 0.09257 0.86017 0.0
C694 C 0.87993 0.09238 0.8742 0.0
C695 C 0.80819 0.12765 0.8196 0.0
C696 C 0.79917 0.12484 0.88732 0.0
C697 C 0.81693 0.10258 0.83781 0.0
N698 N 0.81252 0.10149 0.87128 0.0
C699 C 0.79012 0.15026 0.86991 0.0
C700 C 0.79471 0.15163 0.83582 0.0
C701 C 0.77347 0.05609 0.94447 0.0
C702 C 0.82251 0.93825 0.9303 0.0
C703 C 0.78975 0.97511 0.97175 0.0
C704 C 0.7791 0.94649 0.96449 0.0
C705 C 0.79563 0.92798 0.94361 0.0
N706 N 0.81618 0.98496 0.95868 0.0
C707 C 0.83248 0.96698 0.93814 0.0
Co708 Co 0.43055 0.67122 0.60561 0.0
Co709 Co 0.47163 0.66582 0.53329 0.0
O710 O 0.4664 0.6602 0.5809 0.0
C711 C 0.47759 0.70672 0.63961 0.0
O712 O 0.48588 0.71763 0.61087 0.0
C713 C 0.47542 0.60103 0.54235 0.0
O714 O 0.45281 0.60407 0.56277 0.0
O715 O 0.43066 0.65057 0.52335 0.0
O716 O 0.40435 0.65411 0.57054 0.0
H717 H 0.44245 0.70076 0.41955 0.0
H718 H 0.47856 0.63574 0.63768 0.0
O719 O 0.4561 0.68815 0.64156 0.0
H720 H 0.38783 0.57337 0.64533 0.0
H721 H 0.3692 0.6834 0.70929 0.0
H722 H 0.37176 0.69768 0.58828 0.0
H723 H 0.38579 0.62334 0.61962 0.0
H724 H 0.41376 0.66887 0.67705 0.0
O725 O 0.48717 0.62401 0.52899 0.0
H726 H 0.43577 0.69355 0.47963 0.0
H727 H 0.51975 0.6494 0.4856 0.0
H728 H 0.32665 0.71229 0.61952 0.0
H729 H 0.48156 0.58606 0.66397 0.0
H730 H 0.32519 0.70518 0.68048 0.0
H731 H 0.43599 0.55444 0.66778 0.0
O732 O 0.42864 0.71118 0.58348 0.0
H733 H 0.57312 0.66294 0.58665 0.0
H734 H 0.50616 0.71974 0.51272 0.0
H735 H 0.55649 0.73944 0.52512 0.0
H736 H 0.59037 0.71093 0.56228 0.0
H737 H 0.5225 0.64418 0.57377 0.0
H738 H 0.52723 0.65588 0.42552 0.0
H739 H 0.48846 0.68184 0.39211 0.0
O740 O 0.45548 0.70707 0.53657 0.0
C741 C 0.40666 0.64733 0.54 0.0
C742 C 0.45956 0.6895 0.43386 0.0
C743 C 0.50712 0.66428 0.4372 0.0
N744 N 0.47747 0.67131 0.48612 0.0
C745 C 0.45594 0.68544 0.4679 0.0
C746 C 0.50274 0.66063 0.47119 0.0
C747 C 0.48536 0.67886 0.41847 0.0
C748 C 0.45858 0.62222 0.63949 0.0
N749 N 0.43202 0.63243 0.62708 0.0
C750 C 0.46044 0.59406 0.6543 0.0
C751 C 0.43487 0.57632 0.65639 0.0
C752 C 0.40785 0.58692 0.64377 0.0
C753 C 0.40685 0.61518 0.62911 0.0
C754 C 0.36954 0.68656 0.68273 0.0
C755 C 0.37121 0.69433 0.61477 0.0
C756 C 0.39473 0.67843 0.66435 0.0
N757 N 0.39526 0.68221 0.63078 0.0
C758 C 0.34564 0.70273 0.63234 0.0
C759 C 0.34485 0.69877 0.66655 0.0
C760 C 0.43894 0.72183 0.55642 0.0
C761 C 0.55859 0.67553 0.57036 0.0
C762 C 0.52075 0.70726 0.52899 0.0
C763 C 0.54924 0.71849 0.53587 0.0
C764 C 0.56824 0.70247 0.55671 0.0
N765 N 0.5115 0.68076 0.54239 0.0
C766 C 0.52996 0.66496 0.56289 0.0
Co767 Co 0.8295 0.43127 0.60755 0.0
Co768 Co 0.83298 0.47252 0.53523 0.0
O769 O 0.83959 0.46726 0.58266 0.0
C770 C 0.79443 0.4784 0.64159 0.0
O771 O 0.78387 0.48689 0.61276 0.0
C772 C 0.89788 0.47629 0.54312 0.0
O773 O 0.89492 0.45407 0.56404 0.0
O774 O 0.84807 0.43167 0.52484 0.0
O775 O 0.84657 0.40534 0.57215 0.0
H776 H 0.79607 0.44338 0.42224 0.0
H777 H 0.8647 0.47975 0.63911 0.0
O778 O 0.81262 0.4566 0.64369 0.0
H779 H 0.9286 0.39003 0.64556 0.0
H780 H 0.81961 0.36981 0.71141 0.0
H781 H 0.80369 0.37215 0.59065 0.0
H782 H 0.87828 0.38727 0.62068 0.0
H783 H 0.83306 0.41455 0.67894 0.0
O784 O 0.87478 0.488 0.52989 0.0
H785 H 0.80441 0.43665 0.48213 0.0
H786 H 0.84828 0.52075 0.48728 0.0
H787 H 0.79014 0.32687 0.62213 0.0
H788 H 0.91472 0.48346 0.66457 0.0
H789 H 0.79809 0.32552 0.68296 0.0
H790 H 0.94711 0.43841 0.66776 0.0
O791 O 0.78927 0.42879 0.58613 0.0
H792 H 0.83687 0.5739 0.58859 0.0
H793 H 0.77853 0.50695 0.51617 0.0
H794 H 0.75898 0.5572 0.52918 0.0
H795 H 0.78827 0.59106 0.56558 0.0
H796 H 0.85547 0.52337 0.57512 0.0
H797 H 0.84065 0.5283 0.42737 0.0
H798 H 0.81426 0.48949 0.39447 0.0
O799 O 0.79177 0.45627 0.53953 0.0
C800 C 0.85231 0.40777 0.54135 0.0
C801 C 0.80749 0.46051 0.43633 0.0
C802 C 0.83255 0.50816 0.4392 0.0
N803 N 0.82653 0.47842 0.48822 0.0
C804 C 0.81218 0.45687 0.47027 0.0
C805 C 0.83684 0.50374 0.47309 0.0
C806 C 0.81773 0.48637 0.42076 0.0
C807 C 0.87855 0.45999 0.64067 0.0
N808 N 0.86858 0.43331 0.62839 0.0
C809 C 0.9069 0.46225 0.655 0.0
C810 C 0.92508 0.43698 0.65675 0.0
C811 C 0.91472 0.40983 0.64427 0.0
C812 C 0.88625 0.40842 0.63008 0.0
C813 C 0.8161 0.37011 0.68491 0.0
C814 C 0.8074 0.37165 0.61708 0.0
C815 C 0.82361 0.39539 0.6664 0.0
N816 N 0.81938 0.39585 0.63289 0.0
C817 C 0.7996 0.34599 0.63479 0.0
C818 C 0.80403 0.34526 0.66893 0.0
C819 C 0.77778 0.43923 0.55958 0.0
C820 C 0.82395 0.55937 0.57263 0.0
C821 C 0.79135 0.52154 0.5321 0.0
C822 C 0.7802 0.54998 0.53933 0.0
C823 C 0.79665 0.56898 0.55974 0.0
N824 N 0.81818 0.51234 0.54476 0.0
C825 C 0.83441 0.5308 0.56483 0.0
Co826 Co 0.06455 0.82388 0.6037 0.0
Co827 Co 0.02346 0.83203 0.53154 0.0
O828 O 0.02843 0.83572 0.57959 0.0
C829 C 0.01282 0.7952 0.64027 0.0
O830 O 0.99283 0.8059 0.61969 0.0
C831 C 0.02077 0.89677 0.54361 0.0
O832 O 0.04197 0.89278 0.56564 0.0
O833 O 0.06503 0.8463 0.52266 0.0
O834 O 0.08976 0.84554 0.57102 0.0
H835 H 0.05295 0.80028 0.41677 0.0
H836 H 0.01472 0.85614 0.63802 0.0
O837 O 0.04059 0.80104 0.63718 0.0
H838 H 0.10438 0.91824 0.65532 0.0
H839 H 0.12662 0.80454 0.70556 0.0
H840 H 0.12449 0.80206 0.58354 0.0
H841 H 0.10767 0.8711 0.624 0.0
H842 H 0.08137 0.82007 0.67509 0.0
O843 O 0.00946 0.87442 0.5286 0.0
H844 H 0.05912 0.8052 0.4772 0.0
H845 H 0.97635 0.85148 0.48392 0.0
H846 H 0.1703 0.7866 0.61302 0.0
H847 H 0.01052 0.90279 0.66983 0.0
H848 H 0.17154 0.78777 0.67447 0.0
H849 H 0.05554 0.93434 0.67864 0.0
O850 O 0.06815 0.78625 0.57756 0.0
H851 H 0.92047 0.83838 0.58094 0.0
H852 H 0.98757 0.77954 0.50919 0.0
H853 H 0.93612 0.76179 0.51925 0.0
H854 H 0.90215 0.79135 0.55527 0.0
H855 H 0.97225 0.85507 0.57062 0.0
H856 H 0.96939 0.84729 0.42352 0.0
H857 H 0.00782 0.82143 0.38954 0.0
O858 O 0.03802 0.79013 0.53324 0.0
C859 C 0.08812 0.85151 0.54025 0.0
C860 C 0.03599 0.8115 0.43132 0.0
C861 C 0.98912 0.83792 0.4351 0.0
N862 N 0.01797 0.82834 0.48409 0.0
C863 C 0.03932 0.81427 0.46556 0.0
C864 C 0.99319 0.84026 0.46928 0.0
C865 C 0.01068 0.8234 0.41606 0.0
C866 C 0.03454 0.86931 0.64212 0.0
N867 N 0.06151 0.86046 0.62955 0.0
C868 C 0.03197 0.89592 0.66 0.0
C869 C 0.05722 0.91364 0.66487 0.0
C870 C 0.08461 0.90463 0.6518 0.0
C871 C 0.08632 0.8779 0.63403 0.0
C872 C 0.12638 0.80399 0.67878 0.0
C873 C 0.12494 0.80284 0.61028 0.0
C874 C 0.1008 0.81268 0.66139 0.0
N875 N 0.10039 0.8122 0.62756 0.0
C876 C 0.15091 0.79397 0.62684 0.0
C877 C 0.15158 0.79459 0.66132 0.0
C878 C 0.05628 0.77563 0.55137 0.0
C879 C 0.93504 0.82533 0.56516 0.0
C880 C 0.97302 0.79238 0.52515 0.0
C881 C 0.94386 0.78229 0.53062 0.0
C882 C 0.92479 0.79891 0.55079 0.0
N883 N 0.9829 0.81831 0.53934 0.0
C884 C 0.96434 0.83474 0.5591 0.0
Co885 Co 0.67231 0.06335 0.60424 0.0
Co886 Co 0.66674 0.0223 0.53178 0.0
O887 O 0.66173 0.02712 0.5797 0.0
C888 C 0.70112 0.01206 0.64135 0.0
O889 O 0.69135 0.99203 0.62029 0.0
C890 C 0.60175 0.01905 0.54206 0.0
O891 O 0.60527 0.04008 0.56434 0.0
O892 O 0.65229 0.06367 0.52251 0.0
O893 O 0.65108 0.08829 0.57091 0.0
H894 H 0.7009 0.0524 0.41806 0.0
H895 H 0.64016 0.01301 0.63761 0.0
O896 O 0.69473 0.0397 0.63834 0.0
H897 H 0.57585 0.10141 0.65278 0.0
H898 H 0.688 0.12549 0.70676 0.0
H899 H 0.69374 0.1236 0.58488 0.0
H900 H 0.62374 0.10557 0.62295 0.0
H901 H 0.67397 0.08009 0.67574 0.0
O902 O 0.62446 0.00793 0.52747 0.0
H903 H 0.69441 0.05839 0.47833 0.0
H904 H 0.64908 0.97507 0.48353 0.0
H905 H 0.70773 0.16955 0.61491 0.0
H906 H 0.59275 0.00794 0.66795 0.0
H907 H 0.7049 0.17067 0.6763 0.0
H908 H 0.5601 0.05233 0.67566 0.0
O909 O 0.71053 0.06756 0.57932 0.0
H910 H 0.66017 0.9192 0.58069 0.0
H911 H 0.72024 0.98707 0.51114 0.0
H912 H 0.7383 0.93583 0.52168 0.0
H913 H 0.70812 0.90147 0.55658 0.0
H914 H 0.64318 0.97079 0.56994 0.0
H915 H 0.65485 0.96827 0.42326 0.0
H916 H 0.68104 0.00706 0.39014 0.0
O917 O 0.7085 0.03736 0.5349 0.0
C918 C 0.64615 0.08663 0.5399 0.0
C919 C 0.68957 0.03527 0.43224 0.0
C920 C 0.66369 0.98807 0.43516 0.0
N921 N 0.6717 0.01694 0.48447 0.0
C922 C 0.68593 0.03849 0.46639 0.0
C923 C 0.66046 0.99206 0.46926 0.0
C924 C 0.67839 0.00985 0.41659 0.0
C925 C 0.62649 0.03256 0.64127 0.0
N926 N 0.63513 0.05966 0.62892 0.0
C927 C 0.59946 0.02949 0.6583 0.0
C928 C 0.58112 0.05439 0.66255 0.0
C929 C 0.58994 0.08192 0.64972 0.0
C930 C 0.6171 0.08412 0.63281 0.0
C931 C 0.68926 0.1253 0.68001 0.0
C932 C 0.69224 0.124 0.61158 0.0
C933 C 0.68141 0.09964 0.66231 0.0
N934 N 0.68279 0.09929 0.62851 0.0
C935 C 0.70028 0.15004 0.62845 0.0
C936 C 0.69873 0.15064 0.6629 0.0
C937 C 0.72216 0.05587 0.55357 0.0
C938 C 0.67349 0.93395 0.5654 0.0
C939 C 0.70712 0.97235 0.52662 0.0
C940 C 0.71739 0.94331 0.53236 0.0
C941 C 0.70043 0.92403 0.55191 0.0
N942 N 0.68069 0.9819 0.53995 0.0
C943 C 0.66391 0.96313 0.5591 0.0
H944 H 0.5432 0.25021 0.99408 0.0
H945 H 0.64133 0.39628 0.02428 0.0
H946 H 0.59398 0.26237 0.08416 0.0
H947 H 0.62324 0.35894 0.92772 0.0
H948 H 0.61679 0.35274 0.04954 0.0
H949 H 0.56413 0.29657 0.97271 0.0
C950 C 0.55851 0.26272 0.00957 0.0
C951 C 0.5671 0.2521 0.04088 0.0
C952 C 0.61827 0.35426 0.02284 0.0
C953 C 0.59108 0.30535 0.01637 0.0
C954 C 0.63219 0.37903 0.0084 0.0
C955 C 0.63436 0.38128 0.97378 0.0
C956 C 0.60598 0.33201 0.00247 0.0
C957 C 0.62218 0.35823 0.95444 0.0
C958 C 0.57055 0.28914 0.99723 0.0
C959 C 0.58692 0.26955 0.05979 0.0
N960 N 0.60838 0.33469 0.96904 0.0
N961 N 0.59835 0.29535 0.04718 0.0
H962 H 0.14309 0.62794 0.93167 0.0
H963 H 0.23652 0.59353 0.09216 0.0
H964 H 0.10163 0.6382 0.02761 0.0
H965 H 0.24704 0.54437 0.00075 0.0
H966 H 0.18964 0.61462 0.07054 0.0
H967 H 0.18526 0.60321 0.95774 0.0
C968 C 0.14276 0.62504 0.95824 0.0
C969 C 0.11852 0.63497 0.97739 0.0
C970 C 0.20216 0.5989 0.05557 0.0
C971 C 0.16723 0.60679 0.0075 0.0
C972 C 0.22886 0.58684 0.06782 0.0
C973 C 0.24603 0.56739 0.04811 0.0
C974 C 0.19301 0.59183 0.02328 0.0
C975 C 0.23489 0.55949 0.01679 0.0
C976 C 0.16687 0.61075 0.9731 0.0
C977 C 0.11974 0.63071 0.01187 0.0
N978 N 0.20938 0.57208 0.00521 0.0
N979 N 0.14386 0.61707 0.02593 0.0
H980 H 0.85873 0.09952 0.02861 0.0
H981 H 0.95183 0.24789 0.99525 0.0
H982 H 0.86678 0.14159 0.93273 0.0
H983 H 0.90565 0.23489 0.08816 0.0
H984 H 0.93014 0.20153 0.97485 0.0
H985 H 0.88383 0.14304 0.05346 0.0
C986 C 0.86574 0.11778 0.01279 0.0
C987 C 0.86076 0.11676 0.97844 0.0
C988 C 0.92493 0.20877 0.99978 0.0
C989 C 0.88984 0.16592 0.00658 0.0
C990 C 0.93741 0.23519 0.01157 0.0
C991 C 0.93025 0.24561 0.04337 0.0
C992 C 0.90545 0.19234 0.01999 0.0
C993 C 0.91155 0.22787 0.06336 0.0
C994 C 0.88001 0.14251 0.027 0.0
C995 C 0.87023 0.14114 0.95921 0.0
N996 N 0.89967 0.20206 0.05128 0.0
N997 N 0.8845 0.16453 0.97349 0.0
H998 H 0.39648 0.85581 0.02728 0.0
H999 H 0.25155 0.9567 0.00128 0.0
H1000 H 0.35864 0.87765 0.93193 0.0
H1001 H 0.26209 0.90244 0.08908 0.0
H1002 H 0.29809 0.93646 0.97982 0.0
H1003 H 0.35341 0.88016 0.05399 0.0
C1004 C 0.37924 0.86575 0.01197 0.0
C1005 C 0.38118 0.86466 0.97726 0.0
C1006 C 0.29031 0.92913 0.00389 0.0
C1007 C 0.33251 0.89284 0.00758 0.0
C1008 C 0.26375 0.94077 0.01631 0.0
C1009 C 0.25254 0.93098 0.04693 0.0
C1010 C 0.30609 0.90769 0.0222 0.0
C1011 C 0.26973 0.91047 0.06526 0.0
C1012 C 0.35474 0.87955 0.02723 0.0
C1013 C 0.35816 0.87782 0.95867 0.0
N1014 N 0.29565 0.89933 0.05251 0.0
N1015 N 0.33494 0.89149 0.97406 0.0
H1016 H 0.54106 0.24382 0.50209 0.0
H1017 H 0.64383 0.10011 0.47354 0.0
H1018 H 0.5952 0.23314 0.41422 0.0
H1019 H 0.61452 0.13156 0.56927 0.0
H1020 H 0.61929 0.14342 0.44783 0.0
H1021 H 0.56006 0.19649 0.52278 0.0
C1022 C 0.55671 0.23142 0.48689 0.0
C1023 C 0.56682 0.2428 0.45647 0.0
C1024 C 0.61825 0.14067 0.47444 0.0
C1025 C 0.58877 0.18838 0.48034 0.0
C1026 C 0.63217 0.11601 0.48913 0.0
C1027 C 0.63138 0.1123 0.52366 0.0
C1028 C 0.60306 0.16139 0.49441 0.0
C1029 C 0.61597 0.13358 0.54263 0.0
C1030 C 0.56764 0.2044 0.49886 0.0
C1031 C 0.58693 0.22538 0.43789 0.0
N1032 N 0.60238 0.15712 0.52775 0.0
N1033 N 0.59744 0.19908 0.45024 0.0
H1034 H 0.35716 0.62361 0.56956 0.0
H1035 H 0.26283 0.59453 0.4074 0.0
H1036 H 0.39613 0.63959 0.47333 0.0
H1037 H 0.25073 0.54473 0.49813 0.0
H1038 H 0.30954 0.61509 0.42999 0.0
H1039 H 0.3147 0.59964 0.54309 0.0
C1040 C 0.35685 0.62212 0.54284 0.0
C1041 C 0.38042 0.63352 0.5237 0.0
C1042 C 0.2967 0.59938 0.44463 0.0
C1043 C 0.33147 0.60615 0.49313 0.0
C1044 C 0.27009 0.58761 0.43181 0.0
C1045 C 0.25256 0.56808 0.45099 0.0
C1046 C 0.30546 0.59188 0.47695 0.0
C1047 C 0.26319 0.5599 0.48245 0.0
C1048 C 0.3326 0.60826 0.52773 0.0
C1049 C 0.37853 0.63095 0.48906 0.0
N1050 N 0.28867 0.57213 0.49455 0.0
N1051 N 0.35431 0.61769 0.4748 0.0
H1052 H 0.8571 0.39721 0.47444 0.0
H1053 H 0.95789 0.25217 0.50006 0.0
H1054 H 0.87951 0.3595 0.5697 0.0
H1055 H 0.90466 0.26397 0.41165 0.0
H1056 H 0.93777 0.2986 0.52181 0.0
H1057 H 0.88159 0.35437 0.4476 0.0
C1058 C 0.86718 0.38003 0.48971 0.0
C1059 C 0.86623 0.38196 0.52443 0.0
C1060 C 0.93064 0.29113 0.49755 0.0
C1061 C 0.89455 0.33351 0.49393 0.0
C1062 C 0.94223 0.26464 0.48495 0.0
C1063 C 0.93266 0.2538 0.45407 0.0
C1064 C 0.90945 0.3072 0.47917 0.0
C1065 C 0.91251 0.27133 0.43566 0.0
C1066 C 0.88107 0.35566 0.47437 0.0
C1067 C 0.87957 0.35902 0.54294 0.0
N1068 N 0.90138 0.29715 0.4486 0.0
N1069 N 0.8933 0.33589 0.52747 0.0
H1070 H 0.13331 0.8816 0.571 0.0
H1071 H 0.23458 0.90322 0.41174 0.0
H1072 H 0.10208 0.85551 0.47405 0.0
H1073 H 0.24462 0.9551 0.50133 0.0
H1074 H 0.1872 0.88353 0.43329 0.0
H1075 H 0.17622 0.90582 0.54556 0.0
C1076 C 0.13547 0.88092 0.54433 0.0
C1077 C 0.11407 0.86641 0.52466 0.0
C1078 C 0.19971 0.8995 0.44794 0.0
C1079 C 0.16339 0.89418 0.49527 0.0
C1080 C 0.22672 0.91077 0.43569 0.0
C1081 C 0.24386 0.93066 0.45485 0.0
C1082 C 0.19004 0.90789 0.47968 0.0
C1083 C 0.23246 0.93965 0.4857 0.0
C1084 C 0.15992 0.89495 0.52978 0.0
C1085 C 0.11804 0.8665 0.49014 0.0
N1086 N 0.20651 0.92794 0.49725 0.0
N1087 N 0.14241 0.87997 0.4765 0.0
H1088 H 0.45555 0.74661 0.99914 0.0
H1089 H 0.35464 0.60202 0.97319 0.0
H1090 H 0.40071 0.73663 0.91166 0.0
H1091 H 0.3766 0.63956 0.06866 0.0
H1092 H 0.37846 0.64537 0.9466 0.0
H1093 H 0.43506 0.70028 0.02067 0.0
C1094 C 0.43943 0.73458 0.9842 0.0
C1095 C 0.42957 0.74588 0.95364 0.0
C1096 C 0.37797 0.64394 0.97335 0.0
C1097 C 0.406 0.69255 0.97846 0.0
C1098 C 0.36446 0.61928 0.98855 0.0
C1099 C 0.36363 0.61712 0.02326 0.0
C1100 C 0.3912 0.66613 0.99304 0.0
C1101 C 0.37662 0.64018 0.04191 0.0
C1102 C 0.42765 0.70814 0.99667 0.0
C1103 C 0.4088 0.7289 0.93543 0.0
N1104 N 0.39002 0.66356 0.02657 0.0
N1105 N 0.39755 0.70307 0.94821 0.0
H1106 H 0.76311 0.40352 0.91019 0.0
H1107 H 0.86183 0.38048 0.07134 0.0
H1108 H 0.75172 0.45473 5e-05 0.0
H1109 H 0.89452 0.35519 0.97471 0.0
H1110 H 0.81915 0.40466 0.04533 0.0
H1111 H 0.80997 0.38336 0.93262 0.0
C1112 C 0.77056 0.41083 0.93439 0.0
C1113 C 0.7532 0.43067 0.95335 0.0
C1114 C 0.83571 0.39395 0.02976 0.0
C1115 C 0.80641 0.40735 0.97918 0.0
C1116 C 0.86004 0.37994 0.04463 0.0
C1117 C 0.88182 0.36572 0.02521 0.0
C1118 C 0.83276 0.39345 0.99518 0.0
C1119 C 0.87828 0.36596 0.99063 0.0
C1120 C 0.79728 0.39928 0.94714 0.0
C1121 C 0.76408 0.43933 0.98455 0.0
N1122 N 0.85404 0.37943 0.97668 0.0
N1123 N 0.78973 0.42736 0.99658 0.0
H1124 H 0.04252 0.75153 0.00018 0.0
H1125 H 0.14146 0.8974 0.97315 0.0
H1126 H 0.09506 0.7629 0.91121 0.0
H1127 H 0.12273 0.85806 0.06857 0.0
H1128 H 0.117 0.85435 0.94657 0.0
H1129 H 0.06287 0.79802 0.02149 0.0
C1130 C 0.05807 0.76391 0.98486 0.0
C1131 C 0.06739 0.75293 0.95396 0.0
C1132 C 0.11833 0.85535 0.97331 0.0
C1133 C 0.09081 0.80642 0.97852 0.0
C1134 C 0.1322 0.87983 0.98851 0.0
C1135 C 0.13413 0.88138 0.0232 0.0
C1136 C 0.10583 0.83275 0.99304 0.0
C1137 C 0.12184 0.85793 0.04184 0.0
C1138 C 0.06979 0.79044 0.9972 0.0
C1139 C 0.08742 0.77036 0.93526 0.0
N1140 N 0.10807 0.83475 0.02654 0.0
N1141 N 0.09865 0.79625 0.94794 0.0
H1142 H 0.60081 0.14328 0.97235 0.0
H1143 H 0.74349 0.03877 0.00023 0.0
H1144 H 0.63271 0.11394 0.06788 0.0
H1145 H 0.73345 0.09319 0.9125 0.0
H1146 H 0.69638 0.05831 0.02098 0.0
H1147 H 0.6437 0.11812 0.94633 0.0
C1148 C 0.61671 0.13148 0.98782 0.0
C1149 C 0.61327 0.13088 0.02239 0.0
C1150 C 0.70437 0.06583 0.99708 0.0
C1151 C 0.66184 0.10186 0.99282 0.0
C1152 C 0.73127 0.05458 0.98507 0.0
C1153 C 0.74278 0.06462 0.95467 0.0
C1154 C 0.6886 0.0872 0.97862 0.0
C1155 C 0.72559 0.08496 0.93615 0.0
C1156 C 0.64113 0.11722 0.97296 0.0
C1157 C 0.63454 0.11528 0.04123 0.0
N1158 N 0.6994 0.09578 0.94854 0.0
N1159 N 0.65781 0.10136 0.0262 0.0
H1160 H 0.454 0.75088 0.49934 0.0
H1161 H 0.35504 0.8965 0.52831 0.0
H1162 H 0.40217 0.76192 0.58887 0.0
H1163 H 0.37409 0.85851 0.4323 0.0
H1164 H 0.37944 0.85312 0.55425 0.0
H1165 H 0.43333 0.79735 0.47834 0.0
C1166 C 0.43851 0.76317 0.51484 0.0
C1167 C 0.42954 0.75213 0.54584 0.0
C1168 C 0.37819 0.85447 0.52752 0.0
C1169 C 0.40575 0.80562 0.52163 0.0
C1170 C 0.36436 0.87915 0.51269 0.0
C1171 C 0.36253 0.88119 0.47802 0.0
C1172 C 0.39074 0.83213 0.50747 0.0
C1173 C 0.37489 0.85801 0.45903 0.0
C1174 C 0.42662 0.78969 0.50267 0.0
C1175 C 0.40956 0.76943 0.56474 0.0
N1176 N 0.38861 0.83461 0.474 0.0
N1177 N 0.39817 0.79533 0.55225 0.0
H1178 H 0.73797 0.40416 0.59461 0.0
H1179 H 0.64559 0.3643 0.43516 0.0
H1180 H 0.74858 0.45076 0.5016 0.0
H1181 H 0.60233 0.35947 0.53067 0.0
H1182 H 0.68794 0.38913 0.46072 0.0
H1183 H 0.69126 0.38224 0.57352 0.0
C1184 C 0.73039 0.41009 0.57001 0.0
C1185 C 0.7475 0.4291 0.54973 0.0
C1186 C 0.66912 0.38273 0.47608 0.0
C1187 C 0.69471 0.4037 0.52554 0.0
C1188 C 0.6449 0.36841 0.46154 0.0
C1189 C 0.62005 0.36006 0.48067 0.0
C1190 C 0.669 0.38831 0.51019 0.0
C1191 C 0.62089 0.36574 0.51492 0.0
C1192 C 0.70378 0.39757 0.55808 0.0
C1193 C 0.73646 0.43604 0.5181 0.0
N1194 N 0.64512 0.37942 0.52871 0.0
N1195 N 0.71106 0.423 0.50685 0.0
H1196 H 0.14044 0.60188 0.52206 0.0
H1197 H 0.043 0.74862 0.49243 0.0
H1198 H 0.12273 0.63976 0.42567 0.0
H1199 H 0.09217 0.73469 0.58328 0.0
H1200 H 0.06402 0.70249 0.47058 0.0
H1201 H 0.11577 0.64523 0.5475 0.0
C1202 C 0.13135 0.61922 0.50625 0.0
C1203 C 0.13367 0.61716 0.47163 0.0
C1204 C 0.07008 0.70948 0.49536 0.0
C1205 C 0.10515 0.66627 0.50053 0.0
C1206 C 0.05797 0.73577 0.50799 0.0
C1207 C 0.06608 0.74583 0.53967 0.0
C1208 C 0.09019 0.69284 0.5146 0.0
C1209 C 0.08548 0.72795 0.55863 0.0
C1210 C 0.11735 0.64389 0.52079 0.0
C1211 C 0.12157 0.64033 0.45239 0.0
N1212 N 0.09699 0.7023 0.54575 0.0
N1213 N 0.1077 0.66379 0.46709 0.0
H1214 H 0.76261 0.08985 0.58861 0.0
H1215 H 0.85488 0.13222 0.4294 0.0
H1216 H 0.74986 0.04624 0.49419 0.0
H1217 H 0.89688 0.13627 0.52565 0.0
H1218 H 0.81228 0.10696 0.45399 0.0
H1219 H 0.80907 0.11201 0.56742 0.0
C1220 C 0.76966 0.08468 0.5636 0.0
C1221 C 0.75208 0.06637 0.54304 0.0
C1222 C 0.83088 0.11328 0.46971 0.0
C1223 C 0.80468 0.09203 0.51874 0.0
C1224 C 0.85524 0.12785 0.45573 0.0
C1225 C 0.87979 0.13615 0.47538 0.0
C1226 C 0.83059 0.1074 0.50376 0.0
C1227 C 0.87856 0.13009 0.50951 0.0
C1228 C 0.79614 0.09731 0.55162 0.0
C1229 C 0.76245 0.06036 0.51091 0.0
N1230 N 0.85422 0.11619 0.52273 0.0
N1231 N 0.78781 0.0735 0.49963 0.0
H1232 H 0.51712 0.91162 0.00412 0.0
H1233 H 0.47888 0.08625 0.99623 0.0
H1234 H 0.45361 0.95046 0.93592 0.0
H1235 H 0.54303 0.04808 0.06415 0.0
H1236 H 0.46889 0.03642 0.97443 0.0
H1237 H 0.52753 0.96145 0.02598 0.0
C1238 C 0.50557 0.93064 0.99352 0.0
C1239 C 0.48438 0.92687 0.96823 0.0
C1240 C 0.48508 0.03891 0.99418 0.0
C1241 C 0.49595 0.98387 0.99339 0.0
C1242 C 0.49069 0.06736 0.00676 0.0
C1243 C 0.51189 0.07135 0.03201 0.0
C1244 C 0.50077 0.01425 0.00688 0.0
C1245 C 0.52653 0.04605 0.04466 0.0
C1246 C 0.51141 0.95907 0.00614 0.0
C1247 C 0.47005 0.95231 0.9555 0.0
N1248 N 0.52077 0.01857 0.03187 0.0
N1249 N 0.47601 0.97971 0.96832 0.0
H1250 H 0.4508 0.54465 0.06461 0.0
H1251 H 0.54846 0.45446 0.9321 0.0
H1252 H 0.4131 0.48332 0.99332 0.0
H1253 H 0.58589 0.51603 0.00331 0.0
H1254 H 0.49861 0.46529 0.95361 0.0
H1255 H 0.50053 0.53399 0.04278 0.0
C1256 C 0.45299 0.52878 0.0445 0.0
C1257 C 0.42774 0.51491 0.03069 0.0
C1258 C 0.51771 0.47652 0.96445 0.0
C1259 C 0.48463 0.50281 0.00541 0.0
C1260 C 0.54619 0.47043 0.9521 0.0
C1261 C 0.5714 0.48429 0.96601 0.0
C1262 C 0.51441 0.49657 0.99093 0.0
C1263 C 0.56709 0.50482 0.99184 0.0
C1264 C 0.4814 0.52278 0.03197 0.0
C1265 C 0.43195 0.49451 0.00472 0.0
N1266 N 0.53914 0.51024 0.00356 0.0
N1267 N 0.45986 0.48916 0.99283 0.0
H1268 H 0.04489 0.54774 0.93456 0.0
H1269 H 0.95362 0.44999 0.06613 0.0
H1270 H 0.98316 0.58543 0.00547 0.0
H1271 H 0.01501 0.4127 0.9946 0.0
H1272 H 0.9644 0.49986 0.04462 0.0
H1273 H 0.03349 0.49798 0.95574 0.0
C1274 C 0.02877 0.54555 0.95444 0.0
C1275 C 0.01504 0.57079 0.96836 0.0
C1276 C 0.97557 0.48077 0.03371 0.0
C1277 C 0.00209 0.51388 0.99292 0.0
C1278 C 0.96953 0.45229 0.04606 0.0
C1279 C 0.98339 0.42713 0.03209 0.0
C1280 C 0.99561 0.4841 0.00719 0.0
C1281 C 0.00379 0.43146 0.00613 0.0
C1282 C 0.02234 0.51711 0.9666 0.0
C1283 C 0.99427 0.56658 0.994 0.0
N1284 N 0.00921 0.4594 0.99445 0.0
N1285 N 0.98853 0.53865 0.00557 0.0
H1286 H 0.08561 0.01773 0.99747 0.0
H1287 H 0.91064 0.98007 0.00576 0.0
H1288 H 0.04723 0.95262 0.06406 0.0
H1289 H 0.94892 0.04545 0.93943 0.0
H1290 H 0.96066 0.96917 0.02686 0.0
H1291 H 0.0356 0.02864 0.97634 0.0
C1292 C 0.06665 0.0059 0.00785 0.0
C1293 C 0.07062 0.98416 0.03251 0.0
C1294 C 0.95813 0.98583 0.00761 0.0
C1295 C 0.01337 0.99632 0.00818 0.0
C1296 C 0.92958 0.99196 0.99543 0.0
C1297 C 0.92558 0.01377 0.97086 0.0
C1298 C 0.98285 0.00163 0.99515 0.0
C1299 C 0.95094 0.02851 0.95845 0.0
C1300 C 0.03811 0.01204 0.99565 0.0
C1301 C 0.04524 0.9695 0.04498 0.0
N1302 N 0.97848 0.02224 0.97083 0.0
N1303 N 0.01771 0.97578 0.03259 0.0
H1304 H 0.51799 0.58602 0.49648 0.0
H1305 H 0.48272 0.41081 0.50694 0.0
H1306 H 0.45377 0.54731 0.56392 0.0
H1307 H 0.54838 0.44909 0.44092 0.0
H1308 H 0.47116 0.46084 0.52737 0.0
H1309 H 0.52973 0.53599 0.47604 0.0
C1310 C 0.50653 0.56699 0.50719 0.0
C1311 C 0.4848 0.57085 0.53188 0.0
C1312 C 0.48803 0.45831 0.50834 0.0
C1313 C 0.49791 0.5136 0.50836 0.0
C1314 C 0.49455 0.42975 0.49654 0.0
C1315 C 0.51662 0.42576 0.47225 0.0
C1316 C 0.50369 0.48305 0.49576 0.0
C1317 C 0.53126 0.45112 0.45974 0.0
C1318 C 0.51315 0.53844 0.49539 0.0
C1319 C 0.47063 0.5454 0.54479 0.0
N1320 N 0.52459 0.47868 0.47172 0.0
N1321 N 0.47735 0.51786 0.53278 0.0
H1322 H 0.04779 0.54403 0.43075 0.0
H1323 H 0.95156 0.45605 0.5663 0.0
H1324 H 0.08578 0.48306 0.50225 0.0
H1325 H 0.9129 0.51569 0.49386 0.0
H1326 H 0.00103 0.46657 0.54375 0.0
H1327 H 0.99815 0.53374 0.4532 0.0
C1328 C 0.04568 0.52829 0.451 0.0
C1329 C 0.07099 0.51444 0.46472 0.0
C1330 C 0.98176 0.47744 0.53284 0.0
C1331 C 0.01427 0.50281 0.49072 0.0
C1332 C 0.95349 0.47154 0.54579 0.0
C1333 C 0.92804 0.48494 0.53185 0.0
C1334 C 0.98465 0.49686 0.50573 0.0
C1335 C 0.93192 0.50487 0.50538 0.0
C1336 C 0.01733 0.52253 0.46389 0.0
C1337 C 0.0669 0.49424 0.49091 0.0
N1338 N 0.95971 0.51013 0.49307 0.0
N1339 N 0.03908 0.48914 0.50314 0.0
H1340 H 0.04294 0.94983 0.56688 0.0
H1341 H 0.95279 0.04824 0.43489 0.0
H1342 H 0.98055 0.91322 0.49597 0.0
H1343 H 0.01486 0.08549 0.50573 0.0
H1344 H 0.96339 0.99847 0.45654 0.0
H1345 H 0.03262 -0.00019 0.54534 0.0
C1346 C 0.02689 0.95231 0.54697 0.0
C1347 C 0.01265 0.9273 0.53314 0.0
C1348 C 0.97478 0.0175 0.46728 0.0
C1349 C 0.00098 0.98436 0.50818 0.0
C1350 C 0.96882 0.04594 0.45485 0.0
C1351 C 0.98289 0.07107 0.46861 0.0
C1352 C 0.99491 0.01415 0.49371 0.0
C1353 C 0.0035 0.06673 0.49438 0.0
C1354 C 0.02112 0.98084 0.53459 0.0
C1355 C 0.99209 0.93185 0.50737 0.0
N1356 N 0.0088 0.0388 0.50621 0.0
N1357 N 0.98697 0.95982 0.49565 0.0
H1358 H 0.58591 0.9794 0.49349 0.0
H1359 H 0.41098 0.01599 0.50699 0.0
H1360 H 0.54837 0.04057 0.56506 0.0
H1361 H 0.44869 0.95414 0.43626 0.0
H1362 H 0.46126 0.02617 0.52786 0.0
H1363 H 0.53568 0.9697 0.47239 0.0
C1364 C 0.56709 0.99061 0.50496 0.0
C1365 C 0.57136 0.01087 0.53105 0.0
C1366 C 0.45853 0.01046 0.50769 0.0
C1367 C 0.51382 0.00011 0.50677 0.0
C1368 C 0.42984 0.00475 0.49565 0.0
C1369 C 0.42562 0.9841 0.46992 0.0
C1370 C 0.48315 0.9954 0.49391 0.0
C1371 C 0.45088 0.97015 0.45622 0.0
C1372 C 0.53841 0.98517 0.49279 0.0
C1373 C 0.54614 0.0248 0.54488 0.0
N1374 N 0.47855 0.97598 0.46847 0.0
N1375 N 0.51845 0.01923 0.53249 0.0
H1376 H 0.48932 0.24141 0.34516 0.0
H1377 H 0.54054 0.25394 0.16059 0.0
H1378 H 0.52667 0.32188 0.30307 0.0
H1379 H 0.47279 0.19026 0.18866 0.0
H1380 H 0.53318 0.28009 0.21286 0.0
H1381 H 0.47942 0.22292 0.28887 0.0
C1382 C 0.49478 0.25545 0.32417 0.0
C1383 C 0.50947 0.28288 0.3287 0.0
C1384 C 0.51943 0.26074 0.2075 0.0
C1385 C 0.49851 0.26192 0.26472 0.0
C1386 C 0.52369 0.24585 0.17769 0.0
C1387 C 0.50719 0.2201 0.17056 0.0
C1388 C 0.49918 0.24924 0.23087 0.0
C1389 C 0.48574 0.21027 0.19342 0.0
C1390 C 0.48916 0.2449 0.2921 0.0
C1391 C 0.51596 0.30026 0.3007 0.0
N1392 N 0.48273 0.22454 0.22304 0.0
N1393 N 0.5109 0.28929 0.26997 0.0
H1394 H 0.2633 0.49528 0.3473 0.0
H1395 H 0.23915 0.49324 0.15131 0.0
H1396 H 0.17895 0.51269 0.29907 0.0
H1397 H 0.32265 0.51513 0.19912 0.0
H1398 H 0.21764 0.48139 0.20568 0.0
H1399 H 0.28538 0.48355 0.29316 0.0
C1400 C 0.24926 0.4958 0.32545 0.0
C1401 C 0.21947 0.50543 0.32741 0.0
C1402 C 0.24087 0.48813 0.20408 0.0
C1403 C 0.24435 0.492 0.2659 0.0
C1404 C 0.25316 0.49476 0.17313 0.0
C1405 C 0.28249 0.50566 0.17095 0.0
C1406 C 0.25825 0.49207 0.23274 0.0
C1407 C 0.29974 0.50727 0.19992 0.0
C1408 C 0.26186 0.48926 0.29464 0.0
C1409 C 0.20219 0.50582 0.29842 0.0
N1410 N 0.28727 0.50086 0.2297 0.0
N1411 N 0.21496 0.49952 0.26877 0.0
H1412 H 0.02811 0.31111 0.18704 0.0
H1413 H 0.97833 0.17443 0.30149 0.0
H1414 H 0.96151 0.24514 0.16214 0.0
H1415 H 0.01023 0.25758 0.34269 0.0
H1416 H 0.98897 0.19318 0.24618 0.0
H1417 H 0.03681 0.28503 0.24007 0.0
C1418 C 0.01598 0.29071 0.19242 0.0
C1419 C 0.99404 0.28012 0.17056 0.0
C1420 C 0.99412 0.20716 0.26733 0.0
C1421 C 0.00397 0.2504 0.23018 0.0
C1422 C 0.98808 0.1965 0.29891 0.0
C1423 C 0.99273 0.21481 0.32663 0.0
C1424 C 0.00473 0.23642 0.2633 0.0
C1425 C 0.006 0.24293 0.32188 0.0
C1426 C 0.02081 0.27602 0.22258 0.0
C1427 C 0.97854 0.25395 0.17856 0.0
N1428 N 0.01104 0.2532 0.29061 0.0
N1429 N 0.98376 0.24001 0.20775 0.0
H1430 H 0.23409 0.00121 0.34935 0.0
H1431 H 0.26096 0.00213 0.15363 0.0
H1432 H 0.31916 0.98322 0.303 0.0
H1433 H 0.17667 0.98069 0.19995 0.0
H1434 H 0.2819 0.01343 0.20845 0.0
H1435 H 0.21277 0.01198 0.29458 0.0
C1436 C 0.24844 0.00033 0.32777 0.0
C1437 C 0.27824 0.99088 0.33049 0.0
C1438 C 0.25864 0.00688 0.20642 0.0
C1439 C 0.25421 0.00323 0.26823 0.0
C1440 C 0.24668 0.00057 0.17522 0.0
C1441 C 0.21725 0.99002 0.17246 0.0
C1442 C 0.24084 0.003 0.23478 0.0
C1443 C 0.19965 0.98831 0.20117 0.0
C1444 C 0.23626 0.00632 0.29659 0.0
C1445 C 0.29592 0.99 0.3018 0.0
N1446 N 0.21179 0.99446 0.2312 0.0
N1447 N 0.28356 0.9958 0.27179 0.0
H1448 H 0.50107 0.73657 0.84748 0.0
H1449 H 0.50065 0.76243 0.65159 0.0
H1450 H 0.48002 0.82062 0.80053 0.0
H1451 H 0.48251 0.67765 0.69842 0.0
H1452 H 0.51135 0.78398 0.70625 0.0
H1453 H 0.51244 0.71531 0.79284 0.0
C1454 C 0.49959 0.75073 0.82579 0.0
C1455 C 0.48914 0.78019 0.82832 0.0
C1456 C 0.50567 0.7605 0.70437 0.0
C1457 C 0.50221 0.75624 0.76621 0.0
C1458 C 0.49972 0.74818 0.67326 0.0
C1459 C 0.49025 0.7184 0.6707 0.0
C1460 C 0.5025 0.74271 0.73284 0.0
C1461 C 0.48931 0.70088 0.69949 0.0
C1462 C 0.50595 0.73859 0.79469 0.0
C1463 C 0.48756 0.79762 0.79949 0.0
N1464 N 0.49506 0.71336 0.72944 0.0
N1465 N 0.49375 0.78531 0.76956 0.0
H1466 H 0.73953 0.50365 0.65291 0.0
H1467 H 0.76408 0.50282 0.84889 0.0
H1468 H 0.82322 0.48237 0.70067 0.0
H1469 H 0.67956 0.48535 0.80107 0.0
H1470 H 0.78605 0.51408 0.79457 0.0
H1471 H 0.71803 0.51561 0.70726 0.0
C1472 C 0.75357 0.50226 0.67472 0.0
C1473 C 0.78297 0.49152 0.67252 0.0
C1474 C 0.76252 0.50845 0.79617 0.0
C1475 C 0.75875 0.50526 0.7343 0.0
C1476 C 0.74998 0.50219 0.82708 0.0
C1477 C 0.72016 0.49268 0.82923 0.0
C1478 C 0.74493 0.50556 0.76751 0.0
C1479 C 0.70281 0.49213 0.80029 0.0
C1480 C 0.74129 0.50896 0.70565 0.0
C1481 C 0.80026 0.49009 0.70147 0.0
N1482 N 0.71553 0.49816 0.77054 0.0
N1483 N 0.7878 0.49657 0.73125 0.0
H1484 H 0.03398 0.74094 0.65677 0.0
H1485 H 0.98885 0.75594 0.8436 0.0
H1486 H 0.97244 0.80921 0.68874 0.0
H1487 H 0.02436 0.67506 0.80054 0.0
H1488 H 0.97781 0.7745 0.78762 0.0
H1489 H 0.02658 0.71472 0.70899 0.0
C1490 C 0.01838 0.74999 0.6747 0.0
C1491 C 0.0037 0.77704 0.6687 0.0
C1492 C 0.98741 0.75243 0.79056 0.0
C1493 C 0.99583 0.7479 0.72902 0.0
C1494 C 0.99367 0.74184 0.82246 0.0
C1495 C 0.00817 0.71425 0.8266 0.0
C1496 C 0.99587 0.73526 0.76293 0.0
C1497 C 0.01383 0.69679 0.79845 0.0
C1498 C 0.01414 0.73511 0.70453 0.0
C1499 C 0.98391 0.78817 0.69262 0.0
N1500 N 0.0081 0.70777 0.76786 0.0
N1501 N 0.98097 0.77384 0.7222 0.0
H1502 H 0.75453 0.03469 0.65887 0.0
H1503 H 0.74055 0.98663 0.84448 0.0
H1504 H 0.68797 0.97055 0.68897 0.0
H1505 H 0.82163 0.02217 0.80182 0.0
H1506 H 0.72193 0.97619 0.78838 0.0
H1507 H 0.78083 0.02696 0.711 0.0
C1508 C 0.74586 0.0185 0.67638 0.0
C1509 C 0.71927 0.00315 0.66988 0.0
C1510 C 0.74406 0.98565 0.79144 0.0
C1511 C 0.74853 0.99481 0.73005 0.0
C1512 C 0.75469 0.99156 0.82341 0.0
C1513 C 0.78234 0.00592 0.82769 0.0
C1514 C 0.76124 0.99434 0.76391 0.0
C1515 C 0.79985 0.01174 0.79961 0.0
C1516 C 0.76082 0.01404 0.70613 0.0
C1517 C 0.70865 0.98256 0.69325 0.0
N1518 N 0.78881 0.00638 0.76897 0.0
N1519 N 0.72302 0.9794 0.72279 0.0
loop_
_geom_bond_atom_site_label_1
_geom_bond_atom_site_label_2
_geom_bond_distance
_geom_bond_site_symmetry_2
_ccdc_geom_bond_type
Co0 O2 2.143 . S
Co0 O8 2.074 . S
Co0 O11 2.093 . S
Co0 O24 2.097 . S
Co0 N41 2.151 . S
Co0 N49 2.214 . S
Co1 O2 2.160 . S
Co1 O7 2.058 . S
Co1 O17 2.057 . S
Co1 O32 2.037 . S
Co1 N36 2.145 1_554 S
Co1 N57 2.257 . S
O2 Co0 2.143 . S
O2 Co1 2.160 . S
C3 O4 1.278 . S
C3 O11 1.224 . S
O4 C3 1.278 . S
C5 O6 1.245 . S
C5 O17 1.232 . S
O6 C5 1.245 . S
O7 Co1 2.058 . S
O7 C33 1.269 . S
O8 Co0 2.074 . S
O8 C33 1.257 . S
H9 C34 0.930 . S
H10 C40 0.930 . S
O11 Co0 2.093 . S
O11 C3 1.224 . S
H12 C44 0.929 . S
H13 C46 0.930 . S
H14 C47 0.930 . S
H15 C45 0.929 . S
H16 C48 0.928 . S
O17 Co1 2.057 . S
O17 C5 1.232 . S
H18 C37 0.929 . S
H19 C38 0.929 . S
H20 C50 0.931 . S
H21 C42 0.929 . S
H22 C51 0.930 . S
H23 C43 0.931 . S
O24 Co0 2.097 . S
O24 C52 1.214 . S
H25 C53 0.929 . S
H26 C54 0.929 1_556 S
H27 C55 0.930 . S
H28 C56 0.929 . S
H29 C58 0.930 . S
H30 C35 0.930 . S
H31 C39 0.930 . S
O32 Co1 2.037 . S
O32 C52 1.234 . S
C33 O7 1.269 . S
C33 O8 1.257 . S
C34 H9 0.930 . S
C34 C37 1.388 . S
C34 C39 1.418 . S
C35 H30 0.930 . S
C35 C38 1.404 . S
C35 C39 1.353 . S
N36 Co1 2.145 1_556 S
N36 C37 1.397 . S
N36 C38 1.334 . S
C37 H18 0.929 . S
C37 C34 1.388 . S
C37 N36 1.397 . S
C38 H19 0.929 . S
C38 C35 1.404 . S
C38 N36 1.334 . S
C39 H31 0.930 . S
C39 C34 1.418 . S
C39 C35 1.353 . S
C40 H10 0.930 . S
C40 N41 1.330 . S
C40 C42 1.446 . S
N41 Co0 2.151 . S
N41 C40 1.330 . S
N41 C45 1.418 . S
C42 H21 0.929 . S
C42 C40 1.446 . S
C42 C43 1.332 . S
C43 H23 0.931 . S
C43 C42 1.332 . S
C43 C44 1.267 . S
C44 H12 0.929 . S
C44 C43 1.267 . S
C44 C45 1.251 . S
C45 H15 0.929 . S
C45 N41 1.418 . S
C45 C44 1.251 . S
C46 H13 0.930 . S
C46 C48 1.406 . S
C46 C51 1.261 . S
C47 H14 0.930 . S
C47 N49 1.325 . S
C47 C50 1.357 . S
C48 H16 0.928 . S
C48 C46 1.406 . S
C48 N49 1.261 . S
N49 Co0 2.214 . S
N49 C47 1.325 . S
N49 C48 1.261 . S
C50 H20 0.931 . S
C50 C47 1.357 . S
C50 C51 1.312 . S
C51 H22 0.930 . S
C51 C46 1.261 . S
C51 C50 1.312 . S
C52 O24 1.214 . S
C52 O32 1.234 . S
C53 H25 0.929 . S
C53 C56 1.391 . S
C53 C58 1.391 . S
C54 H26 0.929 1_554 S
C54 C55 1.390 . S
C54 N57 1.391 . S
C55 H27 0.930 . S
C55 C54 1.390 . S
C55 C56 1.392 . S
C56 H28 0.929 . S
C56 C53 1.391 . S
C56 C55 1.392 . S
N57 Co1 2.257 . S
N57 C54 1.391 . S
N57 C58 1.388 . S
C58 H29 0.930 . S
C58 C53 1.391 . S
C58 N57 1.388 . S
Co59 O61 2.143 . S
Co59 O67 2.074 . S
Co59 O70 2.093 . S
Co59 O83 2.097 . S
Co59 N100 2.151 . S
Co59 N108 2.214 . S
Co60 O61 2.160 . S
Co60 O66 2.058 . S
Co60 O76 2.057 . S
Co60 O91 2.037 . S
Co60 N95 2.145 1_554 S
Co60 N116 2.257 . S
O61 Co59 2.143 . S
O61 Co60 2.160 . S
C62 O63 1.278 . S
C62 O70 1.224 . S
O63 C62 1.278 . S
C64 O65 1.245 . S
C64 O76 1.232 . S
O65 C64 1.245 . S
O66 Co60 2.058 . S
O66 C92 1.269 . S
O67 Co59 2.074 . S
O67 C92 1.257 . S
H68 C93 0.930 . S
H69 C99 0.930 . S
O70 Co59 2.093 . S
O70 C62 1.224 . S
H71 C103 0.929 . S
H72 C105 0.930 . S
H73 C106 0.930 . S
H74 C104 0.929 . S
H75 C107 0.928 . S
O76 Co60 2.057 . S
O76 C64 1.232 . S
H77 C96 0.929 . S
H78 C97 0.929 . S
H79 C109 0.931 . S
H80 C101 0.929 . S
H81 C110 0.930 . S
H82 C102 0.931 . S
O83 Co59 2.097 . S
O83 C111 1.214 . S
H84 C112 0.929 . S
H85 C113 0.929 1_556 S
H86 C114 0.930 . S
H87 C115 0.929 . S
H88 C117 0.930 . S
H89 C94 0.930 . S
H90 C98 0.930 . S
O91 Co60 2.037 . S
O91 C111 1.234 . S
C92 O66 1.269 . S
C92 O67 1.257 . S
C93 H68 0.930 . S
C93 C96 1.388 . S
C93 C98 1.418 . S
C94 H89 0.930 . S
C94 C97 1.404 . S
C94 C98 1.353 . S
N95 Co60 2.145 1_556 S
N95 C96 1.397 . S
N95 C97 1.334 . S
C96 H77 0.929 . S
C96 C93 1.388 . S
C96 N95 1.397 . S
C97 H78 0.929 . S
C97 C94 1.404 . S
C97 N95 1.334 . S
C98 H90 0.930 . S
C98 C93 1.418 . S
C98 C94 1.353 . S
C99 H69 0.930 . S
C99 N100 1.330 . S
C99 C101 1.446 . S
N100 Co59 2.151 . S
N100 C99 1.330 . S
N100 C104 1.418 . S
C101 H80 0.929 . S
C101 C99 1.446 . S
C101 C102 1.332 . S
C102 H82 0.931 . S
C102 C101 1.332 . S
C102 C103 1.267 . S
C103 H71 0.929 . S
C103 C102 1.267 . S
C103 C104 1.251 . S
C104 H74 0.929 . S
C104 N100 1.418 . S
C104 C103 1.251 . S
C105 H72 0.930 . S
C105 C107 1.406 . S
C105 C110 1.261 . S
C106 H73 0.930 . S
C106 N108 1.325 . S
C106 C109 1.357 . S
C107 H75 0.928 . S
C107 C105 1.406 . S
C107 N108 1.261 . S
N108 Co59 2.214 . S
N108 C106 1.325 . S
N108 C107 1.261 . S
C109 H79 0.931 . S
C109 C106 1.357 . S
C109 C110 1.312 . S
C110 H81 0.930 . S
C110 C105 1.261 . S
C110 C109 1.312 . S
C111 O83 1.214 . S
C111 O91 1.234 . S
C112 H84 0.929 . S
C112 C115 1.391 . S
C112 C117 1.391 . S
C113 H85 0.929 1_554 S
C113 C114 1.390 . S
C113 N116 1.391 . S
C114 H86 0.930 . S
C114 C113 1.390 . S
C114 C115 1.392 . S
C115 H87 0.929 . S
C115 C112 1.391 . S
C115 C114 1.392 . S
N116 Co60 2.257 . S
N116 C113 1.391 . S
N116 C117 1.388 . S
C117 H88 0.930 . S
C117 C112 1.391 . S
C117 N116 1.388 . S
Co118 O120 2.143 . S
Co118 O126 2.074 . S
Co118 O129 2.093 . S
Co118 O142 2.097 . S
Co118 N159 2.151 . S
Co118 N167 2.214 . S
Co119 O120 2.160 . S
Co119 O125 2.058 . S
Co119 O135 2.057 . S
Co119 O150 2.037 . S
Co119 N154 2.145 1_554 S
Co119 N175 2.257 1_655 S
O120 Co118 2.143 . S
O120 Co119 2.160 . S
C121 O122 1.278 . S
C121 O129 1.224 . S
O122 C121 1.278 . S
C123 O124 1.245 . S
C123 O135 1.232 . S
O124 C123 1.245 . S
O125 Co119 2.058 . S
O125 C151 1.269 . S
O126 Co118 2.074 . S
O126 C151 1.257 . S
H127 C152 0.930 . S
H128 C158 0.930 . S
O129 Co118 2.093 . S
O129 C121 1.224 . S
H130 C162 0.929 . S
H131 C164 0.930 . S
H132 C165 0.930 . S
H133 C163 0.929 . S
H134 C166 0.928 . S
O135 Co119 2.057 . S
O135 C123 1.232 . S
H136 C155 0.929 . S
H137 C156 0.929 1_455 S
H138 C168 0.931 . S
H139 C160 0.929 . S
H140 C169 0.930 . S
H141 C161 0.931 . S
O142 Co118 2.097 . S
O142 C170 1.214 . S
H143 C171 0.929 . S
H144 C172 0.929 1_656 S
H145 C173 0.930 . S
H146 C174 0.929 . S
H147 C176 0.930 . S
H148 C153 0.930 1_455 S
H149 C157 0.930 . S
O150 Co119 2.037 . S
O150 C170 1.234 . S
C151 O125 1.269 . S
C151 O126 1.257 . S
C152 H127 0.930 . S
C152 C155 1.388 . S
C152 C157 1.418 . S
C153 H148 0.930 1_655 S
C153 C156 1.404 . S
C153 C157 1.353 . S
N154 Co119 2.145 1_556 S
N154 C155 1.397 . S
N154 C156 1.334 . S
C155 H136 0.929 . S
C155 C152 1.388 . S
C155 N154 1.397 . S
C156 H137 0.929 1_655 S
C156 C153 1.404 . S
C156 N154 1.334 . S
C157 H149 0.930 . S
C157 C152 1.418 . S
C157 C153 1.353 . S
C158 H128 0.930 . S
C158 N159 1.330 . S
C158 C160 1.446 . S
N159 Co118 2.151 . S
N159 C158 1.330 . S
N159 C163 1.418 . S
C160 H139 0.929 . S
C160 C158 1.446 . S
C160 C161 1.332 . S
C161 H141 0.931 . S
C161 C160 1.332 . S
C161 C162 1.267 . S
C162 H130 0.929 . S
C162 C161 1.267 . S
C162 C163 1.251 . S
C163 H133 0.929 . S
C163 N159 1.418 . S
C163 C162 1.251 . S
C164 H131 0.930 . S
C164 C166 1.406 . S
C164 C169 1.261 . S
C165 H132 0.930 . S
C165 N167 1.325 . S
C165 C168 1.357 . S
C166 H134 0.928 . S
C166 C164 1.406 . S
C166 N167 1.261 . S
N167 Co118 2.214 . S
N167 C165 1.325 . S
N167 C166 1.261 . S
C168 H138 0.931 . S
C168 C165 1.357 . S
C168 C169 1.312 . S
C169 H140 0.930 . S
C169 C164 1.261 . S
C169 C168 1.312 . S
C170 O142 1.214 . S
C170 O150 1.234 . S
C171 H143 0.929 . S
C171 C174 1.391 . S
C171 C176 1.391 . S
C172 H144 0.929 1_454 S
C172 C173 1.390 . S
C172 N175 1.391 . S
C173 H145 0.930 . S
C173 C172 1.390 . S
C173 C174 1.392 . S
C174 H146 0.929 . S
C174 C171 1.391 . S
C174 C173 1.392 . S
N175 Co119 2.257 1_455 S
N175 C172 1.391 . S
N175 C176 1.388 . S
C176 H147 0.930 . S
C176 C171 1.391 . S
C176 N175 1.388 . S
Co177 O179 2.143 . S
Co177 O185 2.074 . S
Co177 O188 2.093 . S
Co177 O201 2.097 . S
Co177 N218 2.151 . S
Co177 N226 2.214 . S
Co178 O179 2.160 . S
Co178 O184 2.058 . S
Co178 O194 2.057 . S
Co178 O209 2.037 . S
Co178 N213 2.145 1_554 S
Co178 N234 2.257 1_565 S
O179 Co177 2.143 . S
O179 Co178 2.160 . S
C180 O181 1.278 . S
C180 O188 1.224 . S
O181 C180 1.278 . S
C182 O183 1.245 . S
C182 O194 1.232 . S
O183 C182 1.245 . S
O184 Co178 2.058 . S
O184 C210 1.269 . S
O185 Co177 2.074 . S
O185 C210 1.257 . S
H186 C211 0.930 . S
H187 C217 0.930 . S
O188 Co177 2.093 . S
O188 C180 1.224 . S
H189 C221 0.929 . S
H190 C223 0.930 . S
H191 C224 0.930 . S
H192 C222 0.929 . S
H193 C225 0.928 . S
O194 Co178 2.057 . S
O194 C182 1.232 . S
H195 C214 0.929 . S
H196 C215 0.929 1_545 S
H197 C227 0.931 . S
H198 C219 0.929 . S
H199 C228 0.930 . S
H200 C220 0.931 . S
O201 Co177 2.097 . S
O201 C229 1.214 . S
H202 C230 0.929 . S
H203 C231 0.929 1_566 S
H204 C232 0.930 . S
H205 C233 0.929 . S
H206 C235 0.930 . S
H207 C212 0.930 1_545 S
H208 C216 0.930 . S
O209 Co178 2.037 . S
O209 C229 1.234 . S
C210 O184 1.269 . S
C210 O185 1.257 . S
C211 H186 0.930 . S
C211 C214 1.388 . S
C211 C216 1.418 . S
C212 H207 0.930 1_565 S
C212 C215 1.404 . S
C212 C216 1.353 . S
N213 Co178 2.145 1_556 S
N213 C214 1.397 . S
N213 C215 1.334 . S
C214 H195 0.929 . S
C214 C211 1.388 . S
C214 N213 1.397 . S
C215 H196 0.929 1_565 S
C215 C212 1.404 . S
C215 N213 1.334 . S
C216 H208 0.930 . S
C216 C211 1.418 . S
C216 C212 1.353 . S
C217 H187 0.930 . S
C217 N218 1.330 . S
C217 C219 1.446 . S
N218 Co177 2.151 . S
N218 C217 1.330 . S
N218 C222 1.418 . S
C219 H198 0.929 . S
C219 C217 1.446 . S
C219 C220 1.332 . S
C220 H200 0.931 . S
C220 C219 1.332 . S
C220 C221 1.267 . S
C221 H189 0.929 . S
C221 C220 1.267 . S
C221 C222 1.251 . S
C222 H192 0.929 . S
C222 N218 1.418 . S
C222 C221 1.251 . S
C223 H190 0.930 . S
C223 C225 1.406 . S
C223 C228 1.261 . S
C224 H191 0.930 . S
C224 N226 1.325 . S
C224 C227 1.357 . S
C225 H193 0.928 . S
C225 C223 1.406 . S
C225 N226 1.261 . S
N226 Co177 2.214 . S
N226 C224 1.325 . S
N226 C225 1.261 . S
C227 H197 0.931 . S
C227 C224 1.357 . S
C227 C228 1.312 . S
C228 H199 0.930 . S
C228 C223 1.261 . S
C228 C227 1.312 . S
C229 O201 1.214 . S
C229 O209 1.234 . S
C230 H202 0.929 . S
C230 C233 1.391 . S
C230 C235 1.391 . S
C231 H203 0.929 1_544 S
C231 C232 1.390 . S
C231 N234 1.391 . S
C232 H204 0.930 . S
C232 C231 1.390 . S
C232 C233 1.392 . S
C233 H205 0.929 . S
C233 C230 1.391 . S
C233 C232 1.392 . S
N234 Co178 2.257 1_545 S
N234 C231 1.391 . S
N234 C235 1.388 . S
C235 H206 0.930 . S
C235 C230 1.391 . S
C235 N234 1.388 . S
Co236 O238 2.143 . S
Co236 O244 2.074 . S
Co236 O247 2.093 . S
Co236 O260 2.097 . S
Co236 N277 2.151 . S
Co236 N285 2.214 . S
Co237 O238 2.160 . S
Co237 O243 2.058 . S
Co237 O253 2.057 . S
Co237 O268 2.037 . S
Co237 N272 2.145 . S
Co237 N293 2.257 . S
O238 Co236 2.143 . S
O238 Co237 2.160 . S
C239 O240 1.278 . S
C239 O247 1.224 . S
O240 C239 1.278 . S
C241 O242 1.245 . S
C241 O253 1.232 . S
O242 C241 1.245 . S
O243 Co237 2.058 . S
O243 C269 1.269 . S
O244 Co236 2.074 . S
O244 C269 1.257 . S
H245 C270 0.930 . S
H246 C276 0.930 . S
O247 Co236 2.093 . S
O247 C239 1.224 . S
H248 C280 0.929 . S
H249 C282 0.930 . S
H250 C283 0.930 . S
H251 C281 0.929 . S
H252 C284 0.928 . S
O253 Co237 2.057 . S
O253 C241 1.232 . S
H254 C273 0.929 . S
H255 C274 0.929 . S
H256 C286 0.931 . S
H257 C278 0.929 . S
H258 C287 0.930 . S
H259 C279 0.931 . S
O260 Co236 2.097 . S
O260 C288 1.214 . S
H261 C289 0.929 . S
H262 C290 0.929 . S
H263 C291 0.930 . S
H264 C292 0.929 . S
H265 C294 0.930 . S
H266 C271 0.930 . S
H267 C275 0.930 . S
O268 Co237 2.037 . S
O268 C288 1.234 . S
C269 O243 1.269 . S
C269 O244 1.257 . S
C270 H245 0.930 . S
C270 C273 1.388 . S
C270 C275 1.418 . S
C271 H266 0.930 . S
C271 C274 1.404 . S
C271 C275 1.353 . S
N272 Co237 2.145 . S
N272 C273 1.397 . S
N272 C274 1.334 . S
C273 H254 0.929 . S
C273 C270 1.388 . S
C273 N272 1.397 . S
C274 H255 0.929 . S
C274 C271 1.404 . S
C274 N272 1.334 . S
C275 H267 0.930 . S
C275 C270 1.418 . S
C275 C271 1.353 . S
C276 H246 0.930 . S
C276 N277 1.330 . S
C276 C278 1.446 . S
N277 Co236 2.151 . S
N277 C276 1.330 . S
N277 C281 1.418 . S
C278 H257 0.929 . S
C278 C276 1.446 . S
C278 C279 1.332 . S
C279 H259 0.931 . S
C279 C278 1.332 . S
C279 C280 1.267 . S
C280 H248 0.929 . S
C280 C279 1.267 . S
C280 C281 1.251 . S
C281 H251 0.929 . S
C281 N277 1.418 . S
C281 C280 1.251 . S
C282 H249 0.930 . S
C282 C284 1.406 . S
C282 C287 1.261 . S
C283 H250 0.930 . S
C283 N285 1.325 . S
C283 C286 1.357 . S
C284 H252 0.928 . S
C284 C282 1.406 . S
C284 N285 1.261 . S
N285 Co236 2.214 . S
N285 C283 1.325 . S
N285 C284 1.261 . S
C286 H256 0.931 . S
C286 C283 1.357 . S
C286 C287 1.312 . S
C287 H258 0.930 . S
C287 C282 1.261 . S
C287 C286 1.312 . S
C288 O260 1.214 . S
C288 O268 1.234 . S
C289 H261 0.929 . S
C289 C292 1.391 . S
C289 C294 1.391 . S
C290 H262 0.929 . S
C290 C291 1.390 . S
C290 N293 1.391 . S
C291 H263 0.930 . S
C291 C290 1.390 . S
C291 C292 1.392 . S
C292 H264 0.929 . S
C292 C289 1.391 . S
C292 C291 1.392 . S
N293 Co237 2.257 . S
N293 C290 1.391 . S
N293 C294 1.388 . S
C294 H265 0.930 . S
C294 C289 1.391 . S
C294 N293 1.388 . S
Co295 O297 2.143 . S
Co295 O303 2.074 . S
Co295 O306 2.093 . S
Co295 O319 2.097 . S
Co295 N336 2.151 . S
Co295 N344 2.214 . S
Co296 O297 2.160 . S
Co296 O302 2.058 . S
Co296 O312 2.057 . S
Co296 O327 2.037 . S
Co296 N331 2.145 . S
Co296 N352 2.257 . S
O297 Co295 2.143 . S
O297 Co296 2.160 . S
C298 O299 1.278 . S
C298 O306 1.224 . S
O299 C298 1.278 . S
C300 O301 1.245 . S
C300 O312 1.232 . S
O301 C300 1.245 . S
O302 Co296 2.058 . S
O302 C328 1.269 . S
O303 Co295 2.074 . S
O303 C328 1.257 . S
H304 C329 0.930 . S
H305 C335 0.930 . S
O306 Co295 2.093 . S
O306 C298 1.224 . S
H307 C339 0.929 . S
H308 C341 0.930 . S
H309 C342 0.930 . S
H310 C340 0.929 . S
H311 C343 0.928 . S
O312 Co296 2.057 . S
O312 C300 1.232 . S
H313 C332 0.929 . S
H314 C333 0.929 . S
H315 C345 0.931 . S
H316 C337 0.929 . S
H317 C346 0.930 . S
H318 C338 0.931 . S
O319 Co295 2.097 . S
O319 C347 1.214 . S
H320 C348 0.929 . S
H321 C349 0.929 . S
H322 C350 0.930 . S
H323 C351 0.929 . S
H324 C353 0.930 . S
H325 C330 0.930 . S
H326 C334 0.930 . S
O327 Co296 2.037 . S
O327 C347 1.234 . S
C328 O302 1.269 . S
C328 O303 1.257 . S
C329 H304 0.930 . S
C329 C332 1.388 . S
C329 C334 1.418 . S
C330 H325 0.930 . S
C330 C333 1.404 . S
C330 C334 1.353 . S
N331 Co296 2.145 . S
N331 C332 1.397 . S
N331 C333 1.334 . S
C332 H313 0.929 . S
C332 C329 1.388 . S
C332 N331 1.397 . S
C333 H314 0.929 . S
C333 C330 1.404 . S
C333 N331 1.334 . S
C334 H326 0.930 . S
C334 C329 1.418 . S
C334 C330 1.353 . S
C335 H305 0.930 . S
C335 N336 1.330 . S
C335 C337 1.446 . S
N336 Co295 2.151 . S
N336 C335 1.330 . S
N336 C340 1.418 . S
C337 H316 0.929 . S
C337 C335 1.446 . S
C337 C338 1.332 . S
C338 H318 0.931 . S
C338 C337 1.332 . S
C338 C339 1.267 . S
C339 H307 0.929 . S
C339 C338 1.267 . S
C339 C340 1.251 . S
C340 H310 0.929 . S
C340 N336 1.418 . S
C340 C339 1.251 . S
C341 H308 0.930 . S
C341 C343 1.406 . S
C341 C346 1.261 . S
C342 H309 0.930 . S
C342 N344 1.325 . S
C342 C345 1.357 . S
C343 H311 0.928 . S
C343 C341 1.406 . S
C343 N344 1.261 . S
N344 Co295 2.214 . S
N344 C342 1.325 . S
N344 C343 1.261 . S
C345 H315 0.931 . S
C345 C342 1.357 . S
C345 C346 1.312 . S
C346 H317 0.930 . S
C346 C341 1.261 . S
C346 C345 1.312 . S
C347 O319 1.214 . S
C347 O327 1.234 . S
C348 H320 0.929 . S
C348 C351 1.391 . S
C348 C353 1.391 . S
C349 H321 0.929 . S
C349 C350 1.390 . S
C349 N352 1.391 . S
C350 H322 0.930 . S
C350 C349 1.390 . S
C350 C351 1.392 . S
C351 H323 0.929 . S
C351 C348 1.391 . S
C351 C350 1.392 . S
N352 Co296 2.257 . S
N352 C349 1.391 . S
N352 C353 1.388 . S
C353 H324 0.930 . S
C353 C348 1.391 . S
C353 N352 1.388 . S
Co354 O356 2.143 . S
Co354 O362 2.074 . S
Co354 O365 2.093 . S
Co354 O378 2.097 . S
Co354 N395 2.151 . S
Co354 N403 2.214 . S
Co355 O356 2.160 . S
Co355 O361 2.058 . S
Co355 O371 2.057 . S
Co355 O386 2.037 . S
Co355 N390 2.145 . S
Co355 N411 2.257 1_655 S
O356 Co354 2.143 . S
O356 Co355 2.160 . S
C357 O358 1.278 . S
C357 O365 1.224 . S
O358 C357 1.278 . S
C359 O360 1.245 . S
C359 O371 1.232 . S
O360 C359 1.245 . S
O361 Co355 2.058 . S
O361 C387 1.269 . S
O362 Co354 2.074 . S
O362 C387 1.257 . S
H363 C388 0.930 . S
H364 C394 0.930 . S
O365 Co354 2.093 . S
O365 C357 1.224 . S
H366 C398 0.929 . S
H367 C400 0.930 . S
H368 C401 0.930 . S
H369 C399 0.929 . S
H370 C402 0.928 . S
O371 Co355 2.057 . S
O371 C359 1.232 . S
H372 C391 0.929 . S
H373 C392 0.929 1_455 S
H374 C404 0.931 . S
H375 C396 0.929 . S
H376 C405 0.930 . S
H377 C397 0.931 . S
O378 Co354 2.097 . S
O378 C406 1.214 . S
H379 C407 0.929 . S
H380 C408 0.929 1_655 S
H381 C409 0.930 . S
H382 C410 0.929 . S
H383 C412 0.930 . S
H384 C389 0.930 1_455 S
H385 C393 0.930 . S
O386 Co355 2.037 . S
O386 C406 1.234 . S
C387 O361 1.269 . S
C387 O362 1.257 . S
C388 H363 0.930 . S
C388 C391 1.388 . S
C388 C393 1.418 . S
C389 H384 0.930 1_655 S
C389 C392 1.404 . S
C389 C393 1.353 . S
N390 Co355 2.145 . S
N390 C391 1.397 . S
N390 C392 1.334 . S
C391 H372 0.929 . S
C391 C388 1.388 . S
C391 N390 1.397 . S
C392 H373 0.929 1_655 S
C392 C389 1.404 . S
C392 N390 1.334 . S
C393 H385 0.930 . S
C393 C388 1.418 . S
C393 C389 1.353 . S
C394 H364 0.930 . S
C394 N395 1.330 . S
C394 C396 1.446 . S
N395 Co354 2.151 . S
N395 C394 1.330 . S
N395 C399 1.418 . S
C396 H375 0.929 . S
C396 C394 1.446 . S
C396 C397 1.332 . S
C397 H377 0.931 . S
C397 C396 1.332 . S
C397 C398 1.267 . S
C398 H366 0.929 . S
C398 C397 1.267 . S
C398 C399 1.251 . S
C399 H369 0.929 . S
C399 N395 1.418 . S
C399 C398 1.251 . S
C400 H367 0.930 . S
C400 C402 1.406 . S
C400 C405 1.261 . S
C401 H368 0.930 . S
C401 N403 1.325 . S
C401 C404 1.357 . S
C402 H370 0.928 . S
C402 C400 1.406 . S
C402 N403 1.261 . S
N403 Co354 2.214 . S
N403 C401 1.325 . S
N403 C402 1.261 . S
C404 H374 0.931 . S
C404 C401 1.357 . S
C404 C405 1.312 . S
C405 H376 0.930 . S
C405 C400 1.261 . S
C405 C404 1.312 . S
C406 O378 1.214 . S
C406 O386 1.234 . S
C407 H379 0.929 . S
C407 C410 1.391 . S
C407 C412 1.391 . S
C408 H380 0.929 1_455 S
C408 C409 1.390 . S
C408 N411 1.391 . S
C409 H381 0.930 . S
C409 C408 1.390 . S
C409 C410 1.392 . S
C410 H382 0.929 . S
C410 C407 1.391 . S
C410 C409 1.392 . S
N411 Co355 2.257 1_455 S
N411 C408 1.391 . S
N411 C412 1.388 . S
C412 H383 0.930 . S
C412 C407 1.391 . S
C412 N411 1.388 . S
Co413 O415 2.143 . S
Co413 O421 2.074 . S
Co413 O424 2.093 . S
Co413 O437 2.097 . S
Co413 N454 2.151 . S
Co413 N462 2.214 . S
Co414 O415 2.160 . S
Co414 O420 2.058 . S
Co414 O430 2.057 . S
Co414 O445 2.037 . S
Co414 N449 2.145 . S
Co414 N470 2.257 1_565 S
O415 Co413 2.143 . S
O415 Co414 2.160 . S
C416 O417 1.278 . S
C416 O424 1.224 . S
O417 C416 1.278 . S
C418 O419 1.245 . S
C418 O430 1.232 . S
O419 C418 1.245 . S
O420 Co414 2.058 . S
O420 C446 1.269 . S
O421 Co413 2.074 . S
O421 C446 1.257 . S
H422 C447 0.930 . S
H423 C453 0.930 . S
O424 Co413 2.093 . S
O424 C416 1.224 . S
H425 C457 0.929 . S
H426 C459 0.930 . S
H427 C460 0.930 . S
H428 C458 0.929 . S
H429 C461 0.928 . S
O430 Co414 2.057 . S
O430 C418 1.232 . S
H431 C450 0.929 . S
H432 C451 0.929 1_545 S
H433 C463 0.931 . S
H434 C455 0.929 . S
H435 C464 0.930 . S
H436 C456 0.931 . S
O437 Co413 2.097 . S
O437 C465 1.214 . S
H438 C466 0.929 . S
H439 C467 0.929 1_565 S
H440 C468 0.930 . S
H441 C469 0.929 . S
H442 C471 0.930 . S
H443 C448 0.930 1_545 S
H444 C452 0.930 . S
O445 Co414 2.037 . S
O445 C465 1.234 . S
C446 O420 1.269 . S
C446 O421 1.257 . S
C447 H422 0.930 . S
C447 C450 1.388 . S
C447 C452 1.418 . S
C448 H443 0.930 1_565 S
C448 C451 1.404 . S
C448 C452 1.353 . S
N449 Co414 2.145 . S
N449 C450 1.397 . S
N449 C451 1.334 . S
C450 H431 0.929 . S
C450 C447 1.388 . S
C450 N449 1.397 . S
C451 H432 0.929 1_565 S
C451 C448 1.404 . S
C451 N449 1.334 . S
C452 H444 0.930 . S
C452 C447 1.418 . S
C452 C448 1.353 . S
C453 H423 0.930 . S
C453 N454 1.330 . S
C453 C455 1.446 . S
N454 Co413 2.151 . S
N454 C453 1.330 . S
N454 C458 1.418 . S
C455 H434 0.929 . S
C455 C453 1.446 . S
C455 C456 1.332 . S
C456 H436 0.931 . S
C456 C455 1.332 . S
C456 C457 1.267 . S
C457 H425 0.929 . S
C457 C456 1.267 . S
C457 C458 1.251 . S
C458 H428 0.929 . S
C458 N454 1.418 . S
C458 C457 1.251 . S
C459 H426 0.930 . S
C459 C461 1.406 . S
C459 C464 1.261 . S
C460 H427 0.930 . S
C460 N462 1.325 . S
C460 C463 1.357 . S
C461 H429 0.928 . S
C461 C459 1.406 . S
C461 N462 1.261 . S
N462 Co413 2.214 . S
N462 C460 1.325 . S
N462 C461 1.261 . S
C463 H433 0.931 . S
C463 C460 1.357 . S
C463 C464 1.312 . S
C464 H435 0.930 . S
C464 C459 1.261 . S
C464 C463 1.312 . S
C465 O437 1.214 . S
C465 O445 1.234 . S
C466 H438 0.929 . S
C466 C469 1.391 . S
C466 C471 1.391 . S
C467 H439 0.929 1_545 S
C467 C468 1.390 . S
C467 N470 1.391 . S
C468 H440 0.930 . S
C468 C467 1.390 . S
C468 C469 1.392 . S
C469 H441 0.929 . S
C469 C466 1.391 . S
C469 C468 1.392 . S
N470 Co414 2.257 1_545 S
N470 C467 1.391 . S
N470 C471 1.388 . S
C471 H442 0.930 . S
C471 C466 1.391 . S
C471 N470 1.388 . S
Co472 O474 2.143 . S
Co472 O480 2.074 . S
Co472 O483 2.093 . S
Co472 O496 2.097 . S
Co472 N513 2.151 . S
Co472 N521 2.214 . S
Co473 O474 2.160 . S
Co473 O479 2.058 . S
Co473 O489 2.057 . S
Co473 O504 2.037 . S
Co473 N508 2.145 1_556 S
Co473 N529 2.257 . S
O474 Co472 2.143 . S
O474 Co473 2.160 . S
C475 O476 1.278 . S
C475 O483 1.224 . S
O476 C475 1.278 . S
C477 O478 1.245 . S
C477 O489 1.232 . S
O478 C477 1.245 . S
O479 Co473 2.058 . S
O479 C505 1.269 . S
O480 Co472 2.074 . S
O480 C505 1.257 . S
H481 C506 0.930 . S
H482 C512 0.930 . S
O483 Co472 2.093 . S
O483 C475 1.224 . S
H484 C516 0.929 . S
H485 C518 0.930 . S
H486 C519 0.930 . S
H487 C517 0.929 . S
H488 C520 0.928 . S
O489 Co473 2.057 . S
O489 C477 1.232 . S
H490 C509 0.929 . S
H491 C510 0.929 . S
H492 C522 0.931 . S
H493 C514 0.929 . S
H494 C523 0.930 . S
H495 C515 0.931 . S
O496 Co472 2.097 . S
O496 C524 1.214 . S
H497 C525 0.929 . S
H498 C526 0.929 1_554 S
H499 C527 0.930 . S
H500 C528 0.929 . S
H501 C530 0.930 . S
H502 C507 0.930 . S
H503 C511 0.930 . S
O504 Co473 2.037 . S
O504 C524 1.234 . S
C505 O479 1.269 . S
C505 O480 1.257 . S
C506 H481 0.930 . S
C506 C509 1.388 . S
C506 C511 1.418 . S
C507 H502 0.930 . S
C507 C510 1.404 . S
C507 C511 1.353 . S
N508 Co473 2.145 1_554 S
N508 C509 1.397 . S
N508 C510 1.334 . S
C509 H490 0.929 . S
C509 C506 1.388 . S
C509 N508 1.397 . S
C510 H491 0.929 . S
C510 C507 1.404 . S
C510 N508 1.334 . S
C511 H503 0.930 . S
C511 C506 1.418 . S
C511 C507 1.353 . S
C512 H482 0.930 . S
C512 N513 1.330 . S
C512 C514 1.446 . S
N513 Co472 2.151 . S
N513 C512 1.330 . S
N513 C517 1.418 . S
C514 H493 0.929 . S
C514 C512 1.446 . S
C514 C515 1.332 . S
C515 H495 0.931 . S
C515 C514 1.332 . S
C515 C516 1.267 . S
C516 H484 0.929 . S
C516 C515 1.267 . S
C516 C517 1.251 . S
C517 H487 0.929 . S
C517 N513 1.418 . S
C517 C516 1.251 . S
C518 H485 0.930 . S
C518 C520 1.406 . S
C518 C523 1.261 . S
C519 H486 0.930 . S
C519 N521 1.325 . S
C519 C522 1.357 . S
C520 H488 0.928 . S
C520 C518 1.406 . S
C520 N521 1.261 . S
N521 Co472 2.214 . S
N521 C519 1.325 . S
N521 C520 1.261 . S
C522 H492 0.931 . S
C522 C519 1.357 . S
C522 C523 1.312 . S
C523 H494 0.930 . S
C523 C518 1.261 . S
C523 C522 1.312 . S
C524 O496 1.214 . S
C524 O504 1.234 . S
C525 H497 0.929 . S
C525 C528 1.391 . S
C525 C530 1.391 . S
C526 H498 0.929 1_556 S
C526 C527 1.390 . S
C526 N529 1.391 . S
C527 H499 0.930 . S
C527 C526 1.390 . S
C527 C528 1.392 . S
C528 H500 0.929 . S
C528 C525 1.391 . S
C528 C527 1.392 . S
N529 Co473 2.257 . S
N529 C526 1.391 . S
N529 C530 1.388 . S
C530 H501 0.930 . S
C530 C525 1.391 . S
C530 N529 1.388 . S
Co531 O533 2.143 . S
Co531 O539 2.074 . S
Co531 O542 2.093 . S
Co531 O555 2.097 . S
Co531 N572 2.151 . S
Co531 N580 2.214 . S
Co532 O533 2.160 . S
Co532 O538 2.058 . S
Co532 O548 2.057 . S
Co532 O563 2.037 . S
Co532 N567 2.145 1_556 S
Co532 N588 2.257 . S
O533 Co531 2.143 . S
O533 Co532 2.160 . S
C534 O535 1.278 . S
C534 O542 1.224 . S
O535 C534 1.278 . S
C536 O537 1.245 . S
C536 O548 1.232 . S
O537 C536 1.245 . S
O538 Co532 2.058 . S
O538 C564 1.269 . S
O539 Co531 2.074 . S
O539 C564 1.257 . S
H540 C565 0.930 . S
H541 C571 0.930 . S
O542 Co531 2.093 . S
O542 C534 1.224 . S
H543 C575 0.929 . S
H544 C577 0.930 . S
H545 C578 0.930 . S
H546 C576 0.929 . S
H547 C579 0.928 . S
O548 Co532 2.057 . S
O548 C536 1.232 . S
H549 C568 0.929 . S
H550 C569 0.929 . S
H551 C581 0.931 . S
H552 C573 0.929 . S
H553 C582 0.930 . S
H554 C574 0.931 . S
O555 Co531 2.097 . S
O555 C583 1.214 . S
H556 C584 0.929 . S
H557 C585 0.929 1_554 S
H558 C586 0.930 . S
H559 C587 0.929 . S
H560 C589 0.930 . S
H561 C566 0.930 . S
H562 C570 0.930 . S
O563 Co532 2.037 . S
O563 C583 1.234 . S
C564 O538 1.269 . S
C564 O539 1.257 . S
C565 H540 0.930 . S
C565 C568 1.388 . S
C565 C570 1.418 . S
C566 H561 0.930 . S
C566 C569 1.404 . S
C566 C570 1.353 . S
N567 Co532 2.145 1_554 S
N567 C568 1.397 . S
N567 C569 1.334 . S
C568 H549 0.929 . S
C568 C565 1.388 . S
C568 N567 1.397 . S
C569 H550 0.929 . S
C569 C566 1.404 . S
C569 N567 1.334 . S
C570 H562 0.930 . S
C570 C565 1.418 . S
C570 C566 1.353 . S
C571 H541 0.930 . S
C571 N572 1.330 . S
C571 C573 1.446 . S
N572 Co531 2.151 . S
N572 C571 1.330 . S
N572 C576 1.418 . S
C573 H552 0.929 . S
C573 C571 1.446 . S
C573 C574 1.332 . S
C574 H554 0.931 . S
C574 C573 1.332 . S
C574 C575 1.267 . S
C575 H543 0.929 . S
C575 C574 1.267 . S
C575 C576 1.251 . S
C576 H546 0.929 . S
C576 N572 1.418 . S
C576 C575 1.251 . S
C577 H544 0.930 . S
C577 C579 1.406 . S
C577 C582 1.261 . S
C578 H545 0.930 . S
C578 N580 1.325 . S
C578 C581 1.357 . S
C579 H547 0.928 . S
C579 C577 1.406 . S
C579 N580 1.261 . S
N580 Co531 2.214 . S
N580 C578 1.325 . S
N580 C579 1.261 . S
C581 H551 0.931 . S
C581 C578 1.357 . S
C581 C582 1.312 . S
C582 H553 0.930 . S
C582 C577 1.261 . S
C582 C581 1.312 . S
C583 O555 1.214 . S
C583 O563 1.234 . S
C584 H556 0.929 . S
C584 C587 1.391 . S
C584 C589 1.391 . S
C585 H557 0.929 1_556 S
C585 C586 1.390 . S
C585 N588 1.391 . S
C586 H558 0.930 . S
C586 C585 1.390 . S
C586 C587 1.392 . S
C587 H559 0.929 . S
C587 C584 1.391 . S
C587 C586 1.392 . S
N588 Co532 2.257 . S
N588 C585 1.391 . S
N588 C589 1.388 . S
C589 H560 0.930 . S
C589 C584 1.391 . S
C589 N588 1.388 . S
Co590 O592 2.143 . S
Co590 O598 2.074 . S
Co590 O601 2.093 . S
Co590 O614 2.097 . S
Co590 N631 2.151 . S
Co590 N639 2.214 . S
Co591 O592 2.160 . S
Co591 O597 2.058 . S
Co591 O607 2.057 . S
Co591 O622 2.037 . S
Co591 N626 2.145 1_556 S
Co591 N647 2.257 1_455 S
O592 Co590 2.143 . S
O592 Co591 2.160 . S
C593 O594 1.278 . S
C593 O601 1.224 . S
O594 C593 1.278 . S
C595 O596 1.245 . S
C595 O607 1.232 . S
O596 C595 1.245 . S
O597 Co591 2.058 . S
O597 C623 1.269 . S
O598 Co590 2.074 . S
O598 C623 1.257 . S
H599 C624 0.930 . S
H600 C630 0.930 . S
O601 Co590 2.093 . S
O601 C593 1.224 . S
H602 C634 0.929 . S
H603 C636 0.930 . S
H604 C637 0.930 . S
H605 C635 0.929 . S
H606 C638 0.928 . S
O607 Co591 2.057 . S
O607 C595 1.232 . S
H608 C627 0.929 . S
H609 C628 0.929 1_655 S
H610 C640 0.931 . S
H611 C632 0.929 . S
H612 C641 0.930 . S
H613 C633 0.931 . S
O614 Co590 2.097 . S
O614 C642 1.214 . S
H615 C643 0.929 . S
H616 C644 0.929 1_454 S
H617 C645 0.930 . S
H618 C646 0.929 . S
H619 C648 0.930 . S
H620 C625 0.930 1_655 S
H621 C629 0.930 . S
O622 Co591 2.037 . S
O622 C642 1.234 . S
C623 O597 1.269 . S
C623 O598 1.257 . S
C624 H599 0.930 . S
C624 C627 1.388 . S
C624 C629 1.418 . S
C625 H620 0.930 1_455 S
C625 C628 1.404 . S
C625 C629 1.353 . S
N626 Co591 2.145 1_554 S
N626 C627 1.397 . S
N626 C628 1.334 . S
C627 H608 0.929 . S
C627 C624 1.388 . S
C627 N626 1.397 . S
C628 H609 0.929 1_455 S
C628 C625 1.404 . S
C628 N626 1.334 . S
C629 H621 0.930 . S
C629 C624 1.418 . S
C629 C625 1.353 . S
C630 H600 0.930 . S
C630 N631 1.330 . S
C630 C632 1.446 . S
N631 Co590 2.151 . S
N631 C630 1.330 . S
N631 C635 1.418 . S
C632 H611 0.929 . S
C632 C630 1.446 . S
C632 C633 1.332 . S
C633 H613 0.931 . S
C633 C632 1.332 . S
C633 C634 1.267 . S
C634 H602 0.929 . S
C634 C633 1.267 . S
C634 C635 1.251 . S
C635 H605 0.929 . S
C635 N631 1.418 . S
C635 C634 1.251 . S
C636 H603 0.930 . S
C636 C638 1.406 . S
C636 C641 1.261 . S
C637 H604 0.930 . S
C637 N639 1.325 . S
C637 C640 1.357 . S
C638 H606 0.928 . S
C638 C636 1.406 . S
C638 N639 1.261 . S
N639 Co590 2.214 . S
N639 C637 1.325 . S
N639 C638 1.261 . S
C640 H610 0.931 . S
C640 C637 1.357 . S
C640 C641 1.312 . S
C641 H612 0.930 . S
C641 C636 1.261 . S
C641 C640 1.312 . S
C642 O614 1.214 . S
C642 O622 1.234 . S
C643 H615 0.929 . S
C643 C646 1.391 . S
C643 C648 1.391 . S
C644 H616 0.929 1_656 S
C644 C645 1.390 . S
C644 N647 1.391 . S
C645 H617 0.930 . S
C645 C644 1.390 . S
C645 C646 1.392 . S
C646 H618 0.929 . S
C646 C643 1.391 . S
C646 C645 1.392 . S
N647 Co591 2.257 1_655 S
N647 C644 1.391 . S
N647 C648 1.388 . S
C648 H619 0.930 . S
C648 C643 1.391 . S
C648 N647 1.388 . S
Co649 O651 2.143 . S
Co649 O657 2.074 . S
Co649 O660 2.093 . S
Co649 O673 2.097 . S
Co649 N690 2.151 . S
Co649 N698 2.214 . S
Co650 O651 2.160 . S
Co650 O656 2.058 . S
Co650 O666 2.057 . S
Co650 O681 2.037 . S
Co650 N685 2.145 1_556 S
Co650 N706 2.257 1_545 S
O651 Co649 2.143 . S
O651 Co650 2.160 . S
C652 O653 1.278 . S
C652 O660 1.224 . S
O653 C652 1.278 . S
C654 O655 1.245 . S
C654 O666 1.232 . S
O655 C654 1.245 . S
O656 Co650 2.058 . S
O656 C682 1.269 . S
O657 Co649 2.074 . S
O657 C682 1.257 . S
H658 C683 0.930 . S
H659 C689 0.930 . S
O660 Co649 2.093 . S
O660 C652 1.224 . S
H661 C693 0.929 . S
H662 C695 0.930 . S
H663 C696 0.930 . S
H664 C694 0.929 . S
H665 C697 0.928 . S
O666 Co650 2.057 . S
O666 C654 1.232 . S
H667 C686 0.929 . S
H668 C687 0.929 1_565 S
H669 C699 0.931 . S
H670 C691 0.929 . S
H671 C700 0.930 . S
H672 C692 0.931 . S
O673 Co649 2.097 . S
O673 C701 1.214 . S
H674 C702 0.929 . S
H675 C703 0.929 1_544 S
H676 C704 0.930 . S
H677 C705 0.929 . S
H678 C707 0.930 . S
H679 C684 0.930 1_565 S
H680 C688 0.930 . S
O681 Co650 2.037 . S
O681 C701 1.234 . S
C682 O656 1.269 . S
C682 O657 1.257 . S
C683 H658 0.930 . S
C683 C686 1.388 . S
C683 C688 1.418 . S
C684 H679 0.930 1_545 S
C684 C687 1.404 . S
C684 C688 1.353 . S
N685 Co650 2.145 1_554 S
N685 C686 1.397 . S
N685 C687 1.334 . S
C686 H667 0.929 . S
C686 C683 1.388 . S
C686 N685 1.397 . S
C687 H668 0.929 1_545 S
C687 C684 1.404 . S
C687 N685 1.334 . S
C688 H680 0.930 . S
C688 C683 1.418 . S
C688 C684 1.353 . S
C689 H659 0.930 . S
C689 N690 1.330 . S
C689 C691 1.446 . S
N690 Co649 2.151 . S
N690 C689 1.330 . S
N690 C694 1.418 . S
C691 H670 0.929 . S
C691 C689 1.446 . S
C691 C692 1.332 . S
C692 H672 0.931 . S
C692 C691 1.332 . S
C692 C693 1.267 . S
C693 H661 0.929 . S
C693 C692 1.267 . S
C693 C694 1.251 . S
C694 H664 0.929 . S
C694 N690 1.418 . S
C694 C693 1.251 . S
C695 H662 0.930 . S
C695 C697 1.406 . S
C695 C700 1.261 . S
C696 H663 0.930 . S
C696 N698 1.325 . S
C696 C699 1.357 . S
C697 H665 0.928 . S
C697 C695 1.406 . S
C697 N698 1.261 . S
N698 Co649 2.214 . S
N698 C696 1.325 . S
N698 C697 1.261 . S
C699 H669 0.931 . S
C699 C696 1.357 . S
C699 C700 1.312 . S
C700 H671 0.930 . S
C700 C695 1.261 . S
C700 C699 1.312 . S
C701 O673 1.214 . S
C701 O681 1.234 . S
C702 H674 0.929 . S
C702 C705 1.391 . S
C702 C707 1.391 . S
C703 H675 0.929 1_566 S
C703 C704 1.390 . S
C703 N706 1.391 . S
C704 H676 0.930 . S
C704 C703 1.390 . S
C704 C705 1.392 . S
C705 H677 0.929 . S
C705 C702 1.391 . S
C705 C704 1.392 . S
N706 Co650 2.257 1_565 S
N706 C703 1.391 . S
N706 C707 1.388 . S
C707 H678 0.930 . S
C707 C702 1.391 . S
C707 N706 1.388 . S
Co708 O710 2.143 . S
Co708 O716 2.074 . S
Co708 O719 2.093 . S
Co708 O732 2.097 . S
Co708 N749 2.151 . S
Co708 N757 2.214 . S
Co709 O710 2.160 . S
Co709 O715 2.058 . S
Co709 O725 2.057 . S
Co709 O740 2.037 . S
Co709 N744 2.145 . S
Co709 N765 2.257 . S
O710 Co708 2.143 . S
O710 Co709 2.160 . S
C711 O712 1.278 . S
C711 O719 1.224 . S
O712 C711 1.278 . S
C713 O714 1.245 . S
C713 O725 1.232 . S
O714 C713 1.245 . S
O715 Co709 2.058 . S
O715 C741 1.269 . S
O716 Co708 2.074 . S
O716 C741 1.257 . S
H717 C742 0.930 . S
H718 C748 0.930 . S
O719 Co708 2.093 . S
O719 C711 1.224 . S
H720 C752 0.929 . S
H721 C754 0.930 . S
H722 C755 0.930 . S
H723 C753 0.929 . S
H724 C756 0.928 . S
O725 Co709 2.057 . S
O725 C713 1.232 . S
H726 C745 0.929 . S
H727 C746 0.929 . S
H728 C758 0.931 . S
H729 C750 0.929 . S
H730 C759 0.930 . S
H731 C751 0.931 . S
O732 Co708 2.097 . S
O732 C760 1.214 . S
H733 C761 0.929 . S
H734 C762 0.929 . S
H735 C763 0.930 . S
H736 C764 0.929 . S
H737 C766 0.930 . S
H738 C743 0.930 . S
H739 C747 0.930 . S
O740 Co709 2.037 . S
O740 C760 1.234 . S
C741 O715 1.269 . S
C741 O716 1.257 . S
C742 H717 0.930 . S
C742 C745 1.388 . S
C742 C747 1.418 . S
C743 H738 0.930 . S
C743 C746 1.404 . S
C743 C747 1.353 . S
N744 Co709 2.145 . S
N744 C745 1.397 . S
N744 C746 1.334 . S
C745 H726 0.929 . S
C745 C742 1.388 . S
C745 N744 1.397 . S
C746 H727 0.929 . S
C746 C743 1.404 . S
C746 N744 1.334 . S
C747 H739 0.930 . S
C747 C742 1.418 . S
C747 C743 1.353 . S
C748 H718 0.930 . S
C748 N749 1.330 . S
C748 C750 1.446 . S
N749 Co708 2.151 . S
N749 C748 1.330 . S
N749 C753 1.418 . S
C750 H729 0.929 . S
C750 C748 1.446 . S
C750 C751 1.332 . S
C751 H731 0.931 . S
C751 C750 1.332 . S
C751 C752 1.267 . S
C752 H720 0.929 . S
C752 C751 1.267 . S
C752 C753 1.251 . S
C753 H723 0.929 . S
C753 N749 1.418 . S
C753 C752 1.251 . S
C754 H721 0.930 . S
C754 C756 1.406 . S
C754 C759 1.261 . S
C755 H722 0.930 . S
C755 N757 1.325 . S
C755 C758 1.357 . S
C756 H724 0.928 . S
C756 C754 1.406 . S
C756 N757 1.261 . S
N757 Co708 2.214 . S
N757 C755 1.325 . S
N757 C756 1.261 . S
C758 H728 0.931 . S
C758 C755 1.357 . S
C758 C759 1.312 . S
C759 H730 0.930 . S
C759 C754 1.261 . S
C759 C758 1.312 . S
C760 O732 1.214 . S
C760 O740 1.234 . S
C761 H733 0.929 . S
C761 C764 1.391 . S
C761 C766 1.391 . S
C762 H734 0.929 . S
C762 C763 1.390 . S
C762 N765 1.391 . S
C763 H735 0.930 . S
C763 C762 1.390 . S
C763 C764 1.392 . S
C764 H736 0.929 . S
C764 C761 1.391 . S
C764 C763 1.392 . S
N765 Co709 2.257 . S
N765 C762 1.391 . S
N765 C766 1.388 . S
C766 H737 0.930 . S
C766 C761 1.391 . S
C766 N765 1.388 . S
Co767 O769 2.143 . S
Co767 O775 2.074 . S
Co767 O778 2.093 . S
Co767 O791 2.097 . S
Co767 N808 2.151 . S
Co767 N816 2.214 . S
Co768 O769 2.160 . S
Co768 O774 2.058 . S
Co768 O784 2.057 . S
Co768 O799 2.037 . S
Co768 N803 2.145 . S
Co768 N824 2.257 . S
O769 Co767 2.143 . S
O769 Co768 2.160 . S
C770 O771 1.278 . S
C770 O778 1.224 . S
O771 C770 1.278 . S
C772 O773 1.245 . S
C772 O784 1.232 . S
O773 C772 1.245 . S
O774 Co768 2.058 . S
O774 C800 1.269 . S
O775 Co767 2.074 . S
O775 C800 1.257 . S
H776 C801 0.930 . S
H777 C807 0.930 . S
O778 Co767 2.093 . S
O778 C770 1.224 . S
H779 C811 0.929 . S
H780 C813 0.930 . S
H781 C814 0.930 . S
H782 C812 0.929 . S
H783 C815 0.928 . S
O784 Co768 2.057 . S
O784 C772 1.232 . S
H785 C804 0.929 . S
H786 C805 0.929 . S
H787 C817 0.931 . S
H788 C809 0.929 . S
H789 C818 0.930 . S
H790 C810 0.931 . S
O791 Co767 2.097 . S
O791 C819 1.214 . S
H792 C820 0.929 . S
H793 C821 0.929 . S
H794 C822 0.930 . S
H795 C823 0.929 . S
H796 C825 0.930 . S
H797 C802 0.930 . S
H798 C806 0.930 . S
O799 Co768 2.037 . S
O799 C819 1.234 . S
C800 O774 1.269 . S
C800 O775 1.257 . S
C801 H776 0.930 . S
C801 C804 1.388 . S
C801 C806 1.418 . S
C802 H797 0.930 . S
C802 C805 1.404 . S
C802 C806 1.353 . S
N803 Co768 2.145 . S
N803 C804 1.397 . S
N803 C805 1.334 . S
C804 H785 0.929 . S
C804 C801 1.388 . S
C804 N803 1.397 . S
C805 H786 0.929 . S
C805 C802 1.404 . S
C805 N803 1.334 . S
C806 H798 0.930 . S
C806 C801 1.418 . S
C806 C802 1.353 . S
C807 H777 0.930 . S
C807 N808 1.330 . S
C807 C809 1.446 . S
N808 Co767 2.151 . S
N808 C807 1.330 . S
N808 C812 1.418 . S
C809 H788 0.929 . S
C809 C807 1.446 . S
C809 C810 1.332 . S
C810 H790 0.931 . S
C810 C809 1.332 . S
C810 C811 1.267 . S
C811 H779 0.929 . S
C811 C810 1.267 . S
C811 C812 1.251 . S
C812 H782 0.929 . S
C812 N808 1.418 . S
C812 C811 1.251 . S
C813 H780 0.930 . S
C813 C815 1.406 . S
C813 C818 1.261 . S
C814 H781 0.930 . S
C814 N816 1.325 . S
C814 C817 1.357 . S
C815 H783 0.928 . S
C815 C813 1.406 . S
C815 N816 1.261 . S
N816 Co767 2.214 . S
N816 C814 1.325 . S
N816 C815 1.261 . S
C817 H787 0.931 . S
C817 C814 1.357 . S
C817 C818 1.312 . S
C818 H789 0.930 . S
C818 C813 1.261 . S
C818 C817 1.312 . S
C819 O791 1.214 . S
C819 O799 1.234 . S
C820 H792 0.929 . S
C820 C823 1.391 . S
C820 C825 1.391 . S
C821 H793 0.929 . S
C821 C822 1.390 . S
C821 N824 1.391 . S
C822 H794 0.930 . S
C822 C821 1.390 . S
C822 C823 1.392 . S
C823 H795 0.929 . S
C823 C820 1.391 . S
C823 C822 1.392 . S
N824 Co768 2.257 . S
N824 C821 1.391 . S
N824 C825 1.388 . S
C825 H796 0.930 . S
C825 C820 1.391 . S
C825 N824 1.388 . S
Co826 O828 2.143 . S
Co826 O834 2.074 . S
Co826 O837 2.093 . S
Co826 O850 2.097 . S
Co826 N867 2.151 . S
Co826 N875 2.214 . S
Co827 O828 2.160 . S
Co827 O833 2.058 . S
Co827 O843 2.057 . S
Co827 O858 2.037 . S
Co827 N862 2.145 . S
Co827 N883 2.257 1_455 S
O828 Co826 2.143 . S
O828 Co827 2.160 . S
C829 O830 1.278 . S
C829 O837 1.224 . S
O830 C829 1.278 . S
C831 O832 1.245 . S
C831 O843 1.232 . S
O832 C831 1.245 . S
O833 Co827 2.058 . S
O833 C859 1.269 . S
O834 Co826 2.074 . S
O834 C859 1.257 . S
H835 C860 0.930 . S
H836 C866 0.930 . S
O837 Co826 2.093 . S
O837 C829 1.224 . S
H838 C870 0.929 . S
H839 C872 0.930 . S
H840 C873 0.930 . S
H841 C871 0.929 . S
H842 C874 0.928 . S
O843 Co827 2.057 . S
O843 C831 1.232 . S
H844 C863 0.929 . S
H845 C864 0.929 1_655 S
H846 C876 0.931 . S
H847 C868 0.929 . S
H848 C877 0.930 . S
H849 C869 0.931 . S
O850 Co826 2.097 . S
O850 C878 1.214 . S
H851 C879 0.929 . S
H852 C880 0.929 1_455 S
H853 C881 0.930 . S
H854 C882 0.929 . S
H855 C884 0.930 . S
H856 C861 0.930 1_655 S
H857 C865 0.930 . S
O858 Co827 2.037 . S
O858 C878 1.234 . S
C859 O833 1.269 . S
C859 O834 1.257 . S
C860 H835 0.930 . S
C860 C863 1.388 . S
C860 C865 1.418 . S
C861 H856 0.930 1_455 S
C861 C864 1.404 . S
C861 C865 1.353 . S
N862 Co827 2.145 . S
N862 C863 1.397 . S
N862 C864 1.334 . S
C863 H844 0.929 . S
C863 C860 1.388 . S
C863 N862 1.397 . S
C864 H845 0.929 1_455 S
C864 C861 1.404 . S
C864 N862 1.334 . S
C865 H857 0.930 . S
C865 C860 1.418 . S
C865 C861 1.353 . S
C866 H836 0.930 . S
C866 N867 1.330 . S
C866 C868 1.446 . S
N867 Co826 2.151 . S
N867 C866 1.330 . S
N867 C871 1.418 . S
C868 H847 0.929 . S
C868 C866 1.446 . S
C868 C869 1.332 . S
C869 H849 0.931 . S
C869 C868 1.332 . S
C869 C870 1.267 . S
C870 H838 0.929 . S
C870 C869 1.267 . S
C870 C871 1.251 . S
C871 H841 0.929 . S
C871 N867 1.418 . S
C871 C870 1.251 . S
C872 H839 0.930 . S
C872 C874 1.406 . S
C872 C877 1.261 . S
C873 H840 0.930 . S
C873 N875 1.325 . S
C873 C876 1.357 . S
C874 H842 0.928 . S
C874 C872 1.406 . S
C874 N875 1.261 . S
N875 Co826 2.214 . S
N875 C873 1.325 . S
N875 C874 1.261 . S
C876 H846 0.931 . S
C876 C873 1.357 . S
C876 C877 1.312 . S
C877 H848 0.930 . S
C877 C872 1.261 . S
C877 C876 1.312 . S
C878 O850 1.214 . S
C878 O858 1.234 . S
C879 H851 0.929 . S
C879 C882 1.391 . S
C879 C884 1.391 . S
C880 H852 0.929 1_655 S
C880 C881 1.390 . S
C880 N883 1.391 . S
C881 H853 0.930 . S
C881 C880 1.390 . S
C881 C882 1.392 . S
C882 H854 0.929 . S
C882 C879 1.391 . S
C882 C881 1.392 . S
N883 Co827 2.257 1_655 S
N883 C880 1.391 . S
N883 C884 1.388 . S
C884 H855 0.930 . S
C884 C879 1.391 . S
C884 N883 1.388 . S
Co885 O887 2.143 . S
Co885 O893 2.074 . S
Co885 O896 2.093 . S
Co885 O909 2.097 . S
Co885 N926 2.151 . S
Co885 N934 2.214 . S
Co886 O887 2.160 . S
Co886 O892 2.058 . S
Co886 O902 2.057 . S
Co886 O917 2.037 . S
Co886 N921 2.145 . S
Co886 N942 2.257 1_545 S
O887 Co885 2.143 . S
O887 Co886 2.160 . S
C888 O889 1.278 . S
C888 O896 1.224 . S
O889 C888 1.278 . S
C890 O891 1.245 . S
C890 O902 1.232 . S
O891 C890 1.245 . S
O892 Co886 2.058 . S
O892 C918 1.269 . S
O893 Co885 2.074 . S
O893 C918 1.257 . S
H894 C919 0.930 . S
H895 C925 0.930 . S
O896 Co885 2.093 . S
O896 C888 1.224 . S
H897 C929 0.929 . S
H898 C931 0.930 . S
H899 C932 0.930 . S
H900 C930 0.929 . S
H901 C933 0.928 . S
O902 Co886 2.057 . S
O902 C890 1.232 . S
H903 C922 0.929 . S
H904 C923 0.929 1_565 S
H905 C935 0.931 . S
H906 C927 0.929 . S
H907 C936 0.930 . S
H908 C928 0.931 . S
O909 Co885 2.097 . S
O909 C937 1.214 . S
H910 C938 0.929 . S
H911 C939 0.929 1_545 S
H912 C940 0.930 . S
H913 C941 0.929 . S
H914 C943 0.930 . S
H915 C920 0.930 1_565 S
H916 C924 0.930 . S
O917 Co886 2.037 . S
O917 C937 1.234 . S
C918 O892 1.269 . S
C918 O893 1.257 . S
C919 H894 0.930 . S
C919 C922 1.388 . S
C919 C924 1.418 . S
C920 H915 0.930 1_545 S
C920 C923 1.404 . S
C920 C924 1.353 . S
N921 Co886 2.145 . S
N921 C922 1.397 . S
N921 C923 1.334 . S
C922 H903 0.929 . S
C922 C919 1.388 . S
C922 N921 1.397 . S
C923 H904 0.929 1_545 S
C923 C920 1.404 . S
C923 N921 1.334 . S
C924 H916 0.930 . S
C924 C919 1.418 . S
C924 C920 1.353 . S
C925 H895 0.930 . S
C925 N926 1.330 . S
C925 C927 1.446 . S
N926 Co885 2.151 . S
N926 C925 1.330 . S
N926 C930 1.418 . S
C927 H906 0.929 . S
C927 C925 1.446 . S
C927 C928 1.332 . S
C928 H908 0.931 . S
C928 C927 1.332 . S
C928 C929 1.267 . S
C929 H897 0.929 . S
C929 C928 1.267 . S
C929 C930 1.251 . S
C930 H900 0.929 . S
C930 N926 1.418 . S
C930 C929 1.251 . S
C931 H898 0.930 . S
C931 C933 1.406 . S
C931 C936 1.261 . S
C932 H899 0.930 . S
C932 N934 1.325 . S
C932 C935 1.357 . S
C933 H901 0.928 . S
C933 C931 1.406 . S
C933 N934 1.261 . S
N934 Co885 2.214 . S
N934 C932 1.325 . S
N934 C933 1.261 . S
C935 H905 0.931 . S
C935 C932 1.357 . S
C935 C936 1.312 . S
C936 H907 0.930 . S
C936 C931 1.261 . S
C936 C935 1.312 . S
C937 O909 1.214 . S
C937 O917 1.234 . S
C938 H910 0.929 . S
C938 C941 1.391 . S
C938 C943 1.391 . S
C939 H911 0.929 1_565 S
C939 C940 1.390 . S
C939 N942 1.391 . S
C940 H912 0.930 . S
C940 C939 1.390 . S
C940 C941 1.392 . S
C941 H913 0.929 . S
C941 C938 1.391 . S
C941 C940 1.392 . S
N942 Co886 2.257 1_565 S
N942 C939 1.391 . S
N942 C943 1.388 . S
C943 H914 0.930 . S
C943 C938 1.391 . S
C943 N942 1.388 . S
H944 C950 0.930 1_556 S
H945 C954 0.930 . S
H946 C959 0.929 . S
H947 C957 0.929 . S
H948 C952 0.929 . S
H949 C958 0.929 . S
C950 H944 0.930 1_554 S
C950 C951 1.367 . S
C950 C958 1.378 1_554 S
C951 C950 1.367 . S
C951 C959 1.433 . S
C952 H948 0.929 . S
C952 C954 1.378 . S
C952 C956 1.350 1_554 S
C953 C956 1.463 1_554 S
C953 C958 1.350 1_554 S
C953 N961 1.427 . S
C954 H945 0.930 . S
C954 C952 1.378 . S
C954 C955 1.367 1_554 S
C955 C954 1.367 1_556 S
C955 C957 1.433 . S
C956 C952 1.350 1_556 S
C956 C953 1.463 1_556 S
C956 N960 1.427 . S
C957 H947 0.929 . S
C957 C955 1.433 . S
C957 N960 1.384 . S
C958 H949 0.929 . S
C958 C950 1.378 1_556 S
C958 C953 1.350 1_556 S
C959 H946 0.929 . S
C959 C951 1.433 . S
C959 N961 1.384 . S
N960 C956 1.427 . S
N960 C957 1.384 . S
N961 C953 1.427 . S
N961 C959 1.384 . S
H962 C968 0.930 . S
H963 C972 0.930 . S
H964 C977 0.929 . S
H965 C975 0.929 . S
H966 C970 0.929 . S
H967 C976 0.929 . S
C968 H962 0.930 . S
C968 C969 1.367 . S
C968 C976 1.378 . S
C969 C968 1.367 . S
C969 C977 1.433 1_556 S
C970 H966 0.929 . S
C970 C972 1.378 . S
C970 C974 1.350 . S
C971 C974 1.463 1_556 S
C971 C976 1.350 . S
C971 N979 1.427 1_556 S
C972 H963 0.930 . S
C972 C970 1.378 . S
C972 C973 1.367 . S
C973 C972 1.367 . S
C973 C975 1.433 1_554 S
C974 C970 1.350 . S
C974 C971 1.463 1_554 S
C974 N978 1.427 1_554 S
C975 H965 0.929 . S
C975 C973 1.433 1_556 S
C975 N978 1.384 . S
C976 H967 0.929 . S
C976 C968 1.378 . S
C976 C971 1.350 . S
C977 H964 0.929 . S
C977 C969 1.433 1_554 S
C977 N979 1.384 . S
N978 C974 1.427 1_556 S
N978 C975 1.384 . S
N979 C971 1.427 1_554 S
N979 C977 1.384 . S
H980 C986 0.930 . S
H981 C990 0.930 . S
H982 C995 0.929 . S
H983 C993 0.929 . S
H984 C988 0.929 1_556 S
H985 C994 0.929 . S
C986 H980 0.930 . S
C986 C987 1.367 . S
C986 C994 1.378 1_556 S
C987 C986 1.367 . S
C987 C995 1.433 . S
C988 H984 0.929 1_554 S
C988 C990 1.378 . S
C988 C992 1.350 . S
C989 C992 1.463 1_556 S
C989 C994 1.350 1_556 S
C989 N997 1.427 . S
C990 H981 0.930 . S
C990 C988 1.378 . S
C990 C991 1.367 . S
C991 C990 1.367 . S
C991 C993 1.433 . S
C992 C988 1.350 . S
C992 C989 1.463 1_554 S
C992 N996 1.427 . S
C993 H983 0.929 . S
C993 C991 1.433 . S
C993 N996 1.384 . S
C994 H985 0.929 . S
C994 C986 1.378 1_554 S
C994 C989 1.350 1_554 S
C995 H982 0.929 . S
C995 C987 1.433 . S
C995 N997 1.384 . S
N996 C992 1.427 . S
N996 C993 1.384 . S
N997 C989 1.427 . S
N997 C995 1.384 . S
H998 C1004 0.930 . S
H999 C1008 0.930 . S
H1000 C1013 0.929 . S
H1001 C1011 0.929 . S
H1002 C1006 0.929 . S
H1003 C1012 0.929 . S
C1004 H998 0.930 . S
C1004 C1005 1.367 1_554 S
C1004 C1012 1.378 . S
C1005 C1004 1.367 1_556 S
C1005 C1013 1.433 . S
C1006 H1002 0.929 . S
C1006 C1008 1.378 . S
C1006 C1010 1.350 1_556 S
C1007 C1010 1.463 1_556 S
C1007 C1012 1.350 1_556 S
C1007 N1015 1.427 . S
C1008 H999 0.930 . S
C1008 C1006 1.378 . S
C1008 C1009 1.367 1_556 S
C1009 C1008 1.367 1_554 S
C1009 C1011 1.433 . S
C1010 C1006 1.350 1_554 S
C1010 C1007 1.463 1_554 S
C1010 N1014 1.427 . S
C1011 H1001 0.929 . S
C1011 C1009 1.433 . S
C1011 N1014 1.384 . S
C1012 H1003 0.929 . S
C1012 C1004 1.378 . S
C1012 C1007 1.350 1_554 S
C1013 H1000 0.929 . S
C1013 C1005 1.433 . S
C1013 N1015 1.384 . S
N1014 C1010 1.427 . S
N1014 C1011 1.384 . S
N1015 C1007 1.427 . S
N1015 C1013 1.384 . S
H1016 C1022 0.930 . S
H1017 C1026 0.930 . S
H1018 C1031 0.929 . S
H1019 C1029 0.929 . S
H1020 C1024 0.929 . S
H1021 C1030 0.929 . S
C1022 H1016 0.930 . S
C1022 C1023 1.367 . S
C1022 C1030 1.378 . S
C1023 C1022 1.367 . S
C1023 C1031 1.433 . S
C1024 H1020 0.929 . S
C1024 C1026 1.378 . S
C1024 C1028 1.350 . S
C1025 C1028 1.463 . S
C1025 C1030 1.350 . S
C1025 N1033 1.427 . S
C1026 H1017 0.930 . S
C1026 C1024 1.378 . S
C1026 C1027 1.367 . S
C1027 C1026 1.367 . S
C1027 C1029 1.433 . S
C1028 C1024 1.350 . S
C1028 C1025 1.463 . S
C1028 N1032 1.427 . S
C1029 H1019 0.929 . S
C1029 C1027 1.433 . S
C1029 N1032 1.384 . S
C1030 H1021 0.929 . S
C1030 C1022 1.378 . S
C1030 C1025 1.350 . S
C1031 H1018 0.929 . S
C1031 C1023 1.433 . S
C1031 N1033 1.384 . S
N1032 C1028 1.427 . S
N1032 C1029 1.384 . S
N1033 C1025 1.427 . S
N1033 C1031 1.384 . S
H1034 C1040 0.930 . S
H1035 C1044 0.930 . S
H1036 C1049 0.929 . S
H1037 C1047 0.929 . S
H1038 C1042 0.929 . S
H1039 C1048 0.929 . S
C1040 H1034 0.930 . S
C1040 C1041 1.367 . S
C1040 C1048 1.378 . S
C1041 C1040 1.367 . S
C1041 C1049 1.433 . S
C1042 H1038 0.929 . S
C1042 C1044 1.378 . S
C1042 C1046 1.350 . S
C1043 C1046 1.463 . S
C1043 C1048 1.350 . S
C1043 N1051 1.427 . S
C1044 H1035 0.930 . S
C1044 C1042 1.378 . S
C1044 C1045 1.367 . S
C1045 C1044 1.367 . S
C1045 C1047 1.433 . S
C1046 C1042 1.350 . S
C1046 C1043 1.463 . S
C1046 N1050 1.427 . S
C1047 H1037 0.929 . S
C1047 C1045 1.433 . S
C1047 N1050 1.384 . S
C1048 H1039 0.929 . S
C1048 C1040 1.378 . S
C1048 C1043 1.350 . S
C1049 H1036 0.929 . S
C1049 C1041 1.433 . S
C1049 N1051 1.384 . S
N1050 C1046 1.427 . S
N1050 C1047 1.384 . S
N1051 C1043 1.427 . S
N1051 C1049 1.384 . S
H1052 C1058 0.930 . S
H1053 C1062 0.930 . S
H1054 C1067 0.929 . S
H1055 C1065 0.929 . S
H1056 C1060 0.929 . S
H1057 C1066 0.929 . S
C1058 H1052 0.930 . S
C1058 C1059 1.367 . S
C1058 C1066 1.378 . S
C1059 C1058 1.367 . S
C1059 C1067 1.433 . S
C1060 H1056 0.929 . S
C1060 C1062 1.378 . S
C1060 C1064 1.350 . S
C1061 C1064 1.463 . S
C1061 C1066 1.350 . S
C1061 N1069 1.427 . S
C1062 H1053 0.930 . S
C1062 C1060 1.378 . S
C1062 C1063 1.367 . S
C1063 C1062 1.367 . S
C1063 C1065 1.433 . S
C1064 C1060 1.350 . S
C1064 C1061 1.463 . S
C1064 N1068 1.427 . S
C1065 H1055 0.929 . S
C1065 C1063 1.433 . S
C1065 N1068 1.384 . S
C1066 H1057 0.929 . S
C1066 C1058 1.378 . S
C1066 C1061 1.350 . S
C1067 H1054 0.929 . S
C1067 C1059 1.433 . S
C1067 N1069 1.384 . S
N1068 C1064 1.427 . S
N1068 C1065 1.384 . S
N1069 C1061 1.427 . S
N1069 C1067 1.384 . S
H1070 C1076 0.930 . S
H1071 C1080 0.930 . S
H1072 C1085 0.929 . S
H1073 C1083 0.929 . S
H1074 C1078 0.929 . S
H1075 C1084 0.929 . S
C1076 H1070 0.930 . S
C1076 C1077 1.367 . S
C1076 C1084 1.378 . S
C1077 C1076 1.367 . S
C1077 C1085 1.433 . S
C1078 H1074 0.929 . S
C1078 C1080 1.378 . S
C1078 C1082 1.350 . S
C1079 C1082 1.463 . S
C1079 C1084 1.350 . S
C1079 N1087 1.427 . S
C1080 H1071 0.930 . S
C1080 C1078 1.378 . S
C1080 C1081 1.367 . S
C1081 C1080 1.367 . S
C1081 C1083 1.433 . S
C1082 C1078 1.350 . S
C1082 C1079 1.463 . S
C1082 N1086 1.427 . S
C1083 H1073 0.929 . S
C1083 C1081 1.433 . S
C1083 N1086 1.384 . S
C1084 H1075 0.929 . S
C1084 C1076 1.378 . S
C1084 C1079 1.350 . S
C1085 H1072 0.929 . S
C1085 C1077 1.433 . S
C1085 N1087 1.384 . S
N1086 C1082 1.427 . S
N1086 C1083 1.384 . S
N1087 C1079 1.427 . S
N1087 C1085 1.384 . S
H1088 C1094 0.930 . S
H1089 C1098 0.930 . S
H1090 C1103 0.929 . S
H1091 C1101 0.929 . S
H1092 C1096 0.929 . S
H1093 C1102 0.929 . S
C1094 H1088 0.930 . S
C1094 C1095 1.367 1_554 S
C1094 C1102 1.378 . S
C1095 C1094 1.367 1_556 S
C1095 C1103 1.433 . S
C1096 H1092 0.929 . S
C1096 C1098 1.378 . S
C1096 C1100 1.350 1_556 S
C1097 C1100 1.463 1_556 S
C1097 C1102 1.350 1_556 S
C1097 N1105 1.427 . S
C1098 H1089 0.930 . S
C1098 C1096 1.378 . S
C1098 C1099 1.367 1_556 S
C1099 C1098 1.367 1_554 S
C1099 C1101 1.433 . S
C1100 C1096 1.350 1_554 S
C1100 C1097 1.463 1_554 S
C1100 N1104 1.427 . S
C1101 H1091 0.929 . S
C1101 C1099 1.433 . S
C1101 N1104 1.384 . S
C1102 H1093 0.929 . S
C1102 C1094 1.378 . S
C1102 C1097 1.350 1_554 S
C1103 H1090 0.929 . S
C1103 C1095 1.433 . S
C1103 N1105 1.384 . S
N1104 C1100 1.427 . S
N1104 C1101 1.384 . S
N1105 C1097 1.427 . S
N1105 C1103 1.384 . S
H1106 C1112 0.930 . S
H1107 C1116 0.930 . S
H1108 C1121 0.929 . S
H1109 C1119 0.929 . S
H1110 C1114 0.929 . S
H1111 C1120 0.929 . S
C1112 H1106 0.930 . S
C1112 C1113 1.367 . S
C1112 C1120 1.378 . S
C1113 C1112 1.367 . S
C1113 C1121 1.433 1_556 S
C1114 H1110 0.929 . S
C1114 C1116 1.378 . S
C1114 C1118 1.350 . S
C1115 C1118 1.463 1_556 S
C1115 C1120 1.350 . S
C1115 N1123 1.427 1_556 S
C1116 H1107 0.930 . S
C1116 C1114 1.378 . S
C1116 C1117 1.367 . S
C1117 C1116 1.367 . S
C1117 C1119 1.433 1_554 S
C1118 C1114 1.350 . S
C1118 C1115 1.463 1_554 S
C1118 N1122 1.427 1_554 S
C1119 H1109 0.929 . S
C1119 C1117 1.433 1_556 S
C1119 N1122 1.384 . S
C1120 H1111 0.929 . S
C1120 C1112 1.378 . S
C1120 C1115 1.350 . S
C1121 H1108 0.929 . S
C1121 C1113 1.433 1_554 S
C1121 N1123 1.384 . S
N1122 C1118 1.427 1_556 S
N1122 C1119 1.384 . S
N1123 C1115 1.427 1_554 S
N1123 C1121 1.384 . S
H1124 C1130 0.930 . S
H1125 C1134 0.930 . S
H1126 C1139 0.929 . S
H1127 C1137 0.929 . S
H1128 C1132 0.923 1_556 S
H1129 C1138 0.929 1_554 S
C1130 H1124 0.930 . S
C1130 C1131 1.367 . S
C1130 C1138 1.378 . S
C1131 C1130 1.367 . S
C1131 C1139 1.433 . S
C1132 H1128 0.923 1_554 S
C1132 C1134 1.383 . S
C1132 C1136 1.351 . S
C1133 C1136 1.463 1_556 S
C1133 C1138 1.350 . S
C1133 N1141 1.427 . S
C1134 H1125 0.930 . S
C1134 C1132 1.383 . S
C1134 C1135 1.367 . S
C1135 C1134 1.367 . S
C1135 C1137 1.433 . S
C1136 C1132 1.351 . S
C1136 C1133 1.463 1_554 S
C1136 N1140 1.427 . S
C1137 H1127 0.929 . S
C1137 C1135 1.433 . S
C1137 N1140 1.384 . S
C1138 H1129 0.929 1_556 S
C1138 C1130 1.378 . S
C1138 C1133 1.350 . S
C1139 H1126 0.929 . S
C1139 C1131 1.433 . S
C1139 N1141 1.384 . S
N1140 C1136 1.427 . S
N1140 C1137 1.384 . S
N1141 C1133 1.427 . S
N1141 C1139 1.384 . S
H1142 C1148 0.930 . S
H1143 C1152 0.930 . S
H1144 C1157 0.929 . S
H1145 C1155 0.929 . S
H1146 C1150 0.929 . S
H1147 C1156 0.929 . S
C1148 H1142 0.930 . S
C1148 C1149 1.367 1_556 S
C1148 C1156 1.378 . S
C1149 C1148 1.367 1_554 S
C1149 C1157 1.433 . S
C1150 H1146 0.929 . S
C1150 C1152 1.378 . S
C1150 C1154 1.350 1_554 S
C1151 C1154 1.463 1_554 S
C1151 C1156 1.350 1_554 S
C1151 N1159 1.427 . S
C1152 H1143 0.930 . S
C1152 C1150 1.378 . S
C1152 C1153 1.367 1_554 S
C1153 C1152 1.367 1_556 S
C1153 C1155 1.433 . S
C1154 C1150 1.350 1_556 S
C1154 C1151 1.463 1_556 S
C1154 N1158 1.427 . S
C1155 H1145 0.929 . S
C1155 C1153 1.433 . S
C1155 N1158 1.384 . S
C1156 H1147 0.929 . S
C1156 C1148 1.378 . S
C1156 C1151 1.350 1_556 S
C1157 H1144 0.929 . S
C1157 C1149 1.433 . S
C1157 N1159 1.384 . S
N1158 C1154 1.427 . S
N1158 C1155 1.384 . S
N1159 C1151 1.427 . S
N1159 C1157 1.384 . S
H1160 C1166 0.930 . S
H1161 C1170 0.930 . S
H1162 C1175 0.929 . S
H1163 C1173 0.929 . S
H1164 C1168 0.929 . S
H1165 C1174 0.929 . S
C1166 H1160 0.930 . S
C1166 C1167 1.367 . S
C1166 C1174 1.378 . S
C1167 C1166 1.367 . S
C1167 C1175 1.433 . S
C1168 H1164 0.929 . S
C1168 C1170 1.378 . S
C1168 C1172 1.350 . S
C1169 C1172 1.463 . S
C1169 C1174 1.350 . S
C1169 N1177 1.427 . S
C1170 H1161 0.930 . S
C1170 C1168 1.378 . S
C1170 C1171 1.367 . S
C1171 C1170 1.367 . S
C1171 C1173 1.433 . S
C1172 C1168 1.350 . S
C1172 C1169 1.463 . S
C1172 N1176 1.427 . S
C1173 H1163 0.929 . S
C1173 C1171 1.433 . S
C1173 N1176 1.384 . S
C1174 H1165 0.929 . S
C1174 C1166 1.378 . S
C1174 C1169 1.350 . S
C1175 H1162 0.929 . S
C1175 C1167 1.433 . S
C1175 N1177 1.384 . S
N1176 C1172 1.427 . S
N1176 C1173 1.384 . S
N1177 C1169 1.427 . S
N1177 C1175 1.384 . S
H1178 C1184 0.930 . S
H1179 C1188 0.930 . S
H1180 C1193 0.929 . S
H1181 C1191 0.929 . S
H1182 C1186 0.929 . S
H1183 C1192 0.929 . S
C1184 H1178 0.930 . S
C1184 C1185 1.367 . S
C1184 C1192 1.378 . S
C1185 C1184 1.367 . S
C1185 C1193 1.433 . S
C1186 H1182 0.929 . S
C1186 C1188 1.378 . S
C1186 C1190 1.350 . S
C1187 C1190 1.463 . S
C1187 C1192 1.350 . S
C1187 N1195 1.427 . S
C1188 H1179 0.930 . S
C1188 C1186 1.378 . S
C1188 C1189 1.367 . S
C1189 C1188 1.367 . S
C1189 C1191 1.433 . S
C1190 C1186 1.350 . S
C1190 C1187 1.463 . S
C1190 N1194 1.427 . S
C1191 H1181 0.929 . S
C1191 C1189 1.433 . S
C1191 N1194 1.384 . S
C1192 H1183 0.929 . S
C1192 C1184 1.378 . S
C1192 C1187 1.350 . S
C1193 H1180 0.929 . S
C1193 C1185 1.433 . S
C1193 N1195 1.384 . S
N1194 C1190 1.427 . S
N1194 C1191 1.384 . S
N1195 C1187 1.427 . S
N1195 C1193 1.384 . S
H1196 C1202 0.930 . S
H1197 C1206 0.930 . S
H1198 C1211 0.929 . S
H1199 C1209 0.929 . S
H1200 C1204 0.929 . S
H1201 C1210 0.929 . S
C1202 H1196 0.930 . S
C1202 C1203 1.367 . S
C1202 C1210 1.378 . S
C1203 C1202 1.367 . S
C1203 C1211 1.433 . S
C1204 H1200 0.929 . S
C1204 C1206 1.378 . S
C1204 C1208 1.350 . S
C1205 C1208 1.463 . S
C1205 C1210 1.350 . S
C1205 N1213 1.427 . S
C1206 H1197 0.930 . S
C1206 C1204 1.378 . S
C1206 C1207 1.367 . S
C1207 C1206 1.367 . S
C1207 C1209 1.433 . S
C1208 C1204 1.350 . S
C1208 C1205 1.463 . S
C1208 N1212 1.427 . S
C1209 H1199 0.929 . S
C1209 C1207 1.433 . S
C1209 N1212 1.384 . S
C1210 H1201 0.929 . S
C1210 C1202 1.378 . S
C1210 C1205 1.350 . S
C1211 H1198 0.929 . S
C1211 C1203 1.433 . S
C1211 N1213 1.384 . S
N1212 C1208 1.427 . S
N1212 C1209 1.384 . S
N1213 C1205 1.427 . S
N1213 C1211 1.384 . S
H1214 C1220 0.930 . S
H1215 C1224 0.930 . S
H1216 C1229 0.929 . S
H1217 C1227 0.929 . S
H1218 C1222 0.929 . S
H1219 C1228 0.929 . S
C1220 H1214 0.930 . S
C1220 C1221 1.367 . S
C1220 C1228 1.378 . S
C1221 C1220 1.367 . S
C1221 C1229 1.433 . S
C1222 H1218 0.929 . S
C1222 C1224 1.378 . S
C1222 C1226 1.350 . S
C1223 C1226 1.463 . S
C1223 C1228 1.350 . S
C1223 N1231 1.427 . S
C1224 H1215 0.930 . S
C1224 C1222 1.378 . S
C1224 C1225 1.367 . S
C1225 C1224 1.367 . S
C1225 C1227 1.433 . S
C1226 C1222 1.350 . S
C1226 C1223 1.463 . S
C1226 N1230 1.427 . S
C1227 H1217 0.929 . S
C1227 C1225 1.433 . S
C1227 N1230 1.384 . S
C1228 H1219 0.929 . S
C1228 C1220 1.378 . S
C1228 C1223 1.350 . S
C1229 H1216 0.929 . S
C1229 C1221 1.433 . S
C1229 N1231 1.384 . S
N1230 C1226 1.427 . S
N1230 C1227 1.384 . S
N1231 C1223 1.427 . S
N1231 C1229 1.384 . S
H1232 C1238 0.930 1_554 S
H1233 C1242 0.930 1_556 S
H1234 C1247 0.929 . S
H1235 C1245 0.929 . S
H1236 C1240 0.929 . S
H1237 C1246 0.929 . S
C1238 H1232 0.930 1_556 S
C1238 C1239 1.367 . S
C1238 C1246 1.378 1_556 S
C1239 C1238 1.367 . S
C1239 C1247 1.433 . S
C1240 H1236 0.929 . S
C1240 C1242 1.378 1_556 S
C1240 C1244 1.350 1_556 S
C1241 C1244 1.463 1_566 S
C1241 C1246 1.350 1_556 S
C1241 N1249 1.427 . S
C1242 H1233 0.930 1_554 S
C1242 C1240 1.378 1_554 S
C1242 C1243 1.367 . S
C1243 C1242 1.367 . S
C1243 C1245 1.433 . S
C1244 C1240 1.350 1_554 S
C1244 C1241 1.463 1_544 S
C1244 N1248 1.427 . S
C1245 H1235 0.929 . S
C1245 C1243 1.433 . S
C1245 N1248 1.384 . S
C1246 H1237 0.929 . S
C1246 C1238 1.378 1_554 S
C1246 C1241 1.350 1_554 S
C1247 H1234 0.929 . S
C1247 C1239 1.433 . S
C1247 N1249 1.384 . S
N1248 C1244 1.427 . S
N1248 C1245 1.384 . S
N1249 C1241 1.427 . S
N1249 C1247 1.384 . S
H1250 C1256 0.930 . S
H1251 C1260 0.930 . S
H1252 C1265 0.937 . S
H1253 C1263 0.937 . S
H1254 C1258 0.929 . S
H1255 C1264 0.929 . S
C1256 H1250 0.930 . S
C1256 C1257 1.367 . S
C1256 C1264 1.378 . S
C1257 C1256 1.367 . S
C1257 C1265 1.420 1_554 S
C1258 H1254 0.929 . S
C1258 C1260 1.378 . S
C1258 C1262 1.350 . S
C1259 C1262 1.463 1_554 S
C1259 C1264 1.350 . S
C1259 N1267 1.427 1_554 S
C1260 H1251 0.930 . S
C1260 C1258 1.378 . S
C1260 C1261 1.367 . S
C1261 C1260 1.367 . S
C1261 C1263 1.420 1_556 S
C1262 C1258 1.350 . S
C1262 C1259 1.463 1_556 S
C1262 N1266 1.427 1_556 S
C1263 H1253 0.937 . S
C1263 C1261 1.420 1_554 S
C1263 N1266 1.389 . S
C1264 H1255 0.929 . S
C1264 C1256 1.378 . S
C1264 C1259 1.350 . S
C1265 H1252 0.937 . S
C1265 C1257 1.420 1_556 S
C1265 N1267 1.389 . S
N1266 C1262 1.427 1_554 S
N1266 C1263 1.389 . S
N1267 C1259 1.427 1_556 S
N1267 C1265 1.389 . S
H1268 C1274 0.930 . S
H1269 C1278 0.930 . S
H1270 C1283 0.929 1_554 S
H1271 C1281 0.929 1_556 S
H1272 C1276 0.929 . S
H1273 C1282 0.929 . S
C1274 H1268 0.930 . S
C1274 C1275 1.367 . S
C1274 C1282 1.378 . S
C1275 C1274 1.367 . S
C1275 C1283 1.433 1_455 S
C1276 H1272 0.929 . S
C1276 C1278 1.378 . S
C1276 C1280 1.361 . S
C1277 C1280 1.461 1_456 S
C1277 C1282 1.361 . S
C1277 N1285 1.416 1_456 S
C1278 H1269 0.930 . S
C1278 C1276 1.378 . S
C1278 C1279 1.367 . S
C1279 C1278 1.367 . S
C1279 C1281 1.433 1_655 S
C1280 C1276 1.361 . S
C1280 C1277 1.461 1_654 S
C1280 N1284 1.416 1_654 S
C1281 H1271 0.929 1_554 S
C1281 C1279 1.433 1_455 S
C1281 N1284 1.384 1_554 S
C1282 H1273 0.929 . S
C1282 C1274 1.378 . S
C1282 C1277 1.361 . S
C1283 H1270 0.929 1_556 S
C1283 C1275 1.433 1_655 S
C1283 N1285 1.384 1_556 S
N1284 C1280 1.416 1_456 S
N1284 C1281 1.384 1_556 S
N1285 C1277 1.416 1_654 S
N1285 C1283 1.384 1_554 S
H1286 C1292 0.930 . S
H1287 C1296 0.930 . S
H1288 C1301 0.929 . S
H1289 C1299 0.929 . S
H1290 C1294 0.929 . S
H1291 C1300 0.929 . S
C1292 H1286 0.930 . S
C1292 C1293 1.357 1_545 S
C1292 C1300 1.378 . S
C1293 C1292 1.357 1_565 S
C1293 C1301 1.443 . S
C1294 H1290 0.929 . S
C1294 C1296 1.378 . S
C1294 C1298 1.364 . S
C1295 C1298 1.462 1_444 S
C1295 C1300 1.364 . S
C1295 N1303 1.413 1_544 S
C1296 H1287 0.930 . S
C1296 C1294 1.378 . S
C1296 C1297 1.357 1_565 S
C1297 C1296 1.357 1_545 S
C1297 C1299 1.443 . S
C1298 C1294 1.364 . S
C1298 C1295 1.462 1_666 S
C1298 N1302 1.413 1_566 S
C1299 H1289 0.929 . S
C1299 C1297 1.443 . S
C1299 N1302 1.384 1_556 S
C1300 H1291 0.929 . S
C1300 C1292 1.378 . S
C1300 C1295 1.364 . S
C1301 H1288 0.929 . S
C1301 C1293 1.443 . S
C1301 N1303 1.384 1_554 S
N1302 C1298 1.413 1_544 S
N1302 C1299 1.384 1_554 S
N1303 C1295 1.413 1_566 S
N1303 C1301 1.384 1_556 S
H1304 C1310 0.930 . S
H1305 C1314 0.930 . S
H1306 C1319 0.929 . S
H1307 C1317 0.929 . S
H1308 C1312 0.929 . S
H1309 C1318 0.929 . S
C1310 H1304 0.930 . S
C1310 C1311 1.367 . S
C1310 C1318 1.378 . S
C1311 C1310 1.367 . S
C1311 C1319 1.433 . S
C1312 H1308 0.929 . S
C1312 C1314 1.378 . S
C1312 C1316 1.350 . S
C1313 C1316 1.463 . S
C1313 C1318 1.350 . S
C1313 N1321 1.427 . S
C1314 H1305 0.930 . S
C1314 C1312 1.378 . S
C1314 C1315 1.367 . S
C1315 C1314 1.367 . S
C1315 C1317 1.433 . S
C1316 C1312 1.350 . S
C1316 C1313 1.463 . S
C1316 N1320 1.427 . S
C1317 H1307 0.929 . S
C1317 C1315 1.433 . S
C1317 N1320 1.384 . S
C1318 H1309 0.929 . S
C1318 C1310 1.378 . S
C1318 C1313 1.350 . S
C1319 H1306 0.929 . S
C1319 C1311 1.433 . S
C1319 N1321 1.384 . S
N1320 C1316 1.427 . S
N1320 C1317 1.384 . S
N1321 C1313 1.427 . S
N1321 C1319 1.384 . S
H1322 C1328 0.930 . S
H1323 C1332 0.930 . S
H1324 C1337 0.929 . S
H1325 C1335 0.929 . S
H1326 C1330 0.929 . S
H1327 C1336 0.929 . S
C1328 H1322 0.930 . S
C1328 C1329 1.367 . S
C1328 C1336 1.378 . S
C1329 C1328 1.367 . S
C1329 C1337 1.433 . S
C1330 H1326 0.929 . S
C1330 C1332 1.378 . S
C1330 C1334 1.350 . S
C1331 C1334 1.463 1_455 S
C1331 C1336 1.350 . S
C1331 N1339 1.427 . S
C1332 H1323 0.930 . S
C1332 C1330 1.378 . S
C1332 C1333 1.367 . S
C1333 C1332 1.367 . S
C1333 C1335 1.433 . S
C1334 C1330 1.350 . S
C1334 C1331 1.463 1_655 S
C1334 N1338 1.427 . S
C1335 H1325 0.929 . S
C1335 C1333 1.433 . S
C1335 N1338 1.384 . S
C1336 H1327 0.929 . S
C1336 C1328 1.378 . S
C1336 C1331 1.350 . S
C1337 H1324 0.929 . S
C1337 C1329 1.433 . S
C1337 N1339 1.384 . S
N1338 C1334 1.427 . S
N1338 C1335 1.384 . S
N1339 C1331 1.427 . S
N1339 C1337 1.384 . S
H1340 C1346 0.930 . S
H1341 C1350 0.930 . S
H1342 C1355 0.929 . S
H1343 C1353 0.929 . S
H1344 C1348 0.960 . S
H1345 C1354 0.960 . S
C1346 H1340 0.930 . S
C1346 C1347 1.367 . S
C1346 C1354 1.378 . S
C1347 C1346 1.367 . S
C1347 C1355 1.433 1_455 S
C1348 H1344 0.960 . S
C1348 C1350 1.378 . S
C1348 C1352 1.352 . S
C1349 C1352 1.462 1_465 S
C1349 C1354 1.352 . S
C1349 N1357 1.426 1_455 S
C1350 H1341 0.930 . S
C1350 C1348 1.378 . S
C1350 C1351 1.367 . S
C1351 C1350 1.367 . S
C1351 C1353 1.433 1_655 S
C1352 C1348 1.352 . S
C1352 C1349 1.462 1_645 S
C1352 N1356 1.426 1_655 S
C1353 H1343 0.929 . S
C1353 C1351 1.433 1_455 S
C1353 N1356 1.384 . S
C1354 H1345 0.960 . S
C1354 C1346 1.378 . S
C1354 C1349 1.352 . S
C1355 H1342 0.929 . S
C1355 C1347 1.433 1_655 S
C1355 N1357 1.384 . S
N1356 C1352 1.426 1_455 S
N1356 C1353 1.384 . S
N1357 C1349 1.426 1_655 S
N1357 C1355 1.384 . S
H1358 C1364 0.930 . S
H1359 C1368 0.930 . S
H1360 C1373 0.929 . S
H1361 C1371 0.929 . S
H1362 C1366 0.929 . S
H1363 C1372 0.929 . S
C1364 H1358 0.930 . S
C1364 C1365 1.357 1_565 S
C1364 C1372 1.378 . S
C1365 C1364 1.357 1_545 S
C1365 C1373 1.443 . S
C1366 H1362 0.929 . S
C1366 C1368 1.378 . S
C1366 C1370 1.366 . S
C1367 C1370 1.462 1_565 S
C1367 C1372 1.366 . S
C1367 N1375 1.411 1_565 S
C1368 H1359 0.930 . S
C1368 C1366 1.378 . S
C1368 C1369 1.357 1_545 S
C1369 C1368 1.357 1_565 S
C1369 C1371 1.443 . S
C1370 C1366 1.366 . S
C1370 C1367 1.462 1_545 S
C1370 N1374 1.411 1_545 S
C1371 H1361 0.929 . S
C1371 C1369 1.443 . S
C1371 N1374 1.384 . S
C1372 H1363 0.929 . S
C1372 C1364 1.378 . S
C1372 C1367 1.366 . S
C1373 H1360 0.929 . S
C1373 C1365 1.443 . S
C1373 N1375 1.384 . S
N1374 C1370 1.411 1_565 S
N1374 C1371 1.384 . S
N1375 C1367 1.411 1_545 S
N1375 C1373 1.384 . S
H1376 C1382 0.930 . S
H1377 C1386 0.930 . S
H1378 C1391 0.929 . S
H1379 C1389 0.929 . S
H1380 C1384 0.929 . S
H1381 C1390 0.929 . S
C1382 H1376 0.930 . S
C1382 C1383 1.367 . S
C1382 C1390 1.378 . S
C1383 C1382 1.367 . S
C1383 C1391 1.433 . S
C1384 H1380 0.929 . S
C1384 C1386 1.378 . S
C1384 C1388 1.350 . S
C1385 C1388 1.463 . S
C1385 C1390 1.350 . S
C1385 N1393 1.427 . S
C1386 H1377 0.930 . S
C1386 C1384 1.378 . S
C1386 C1387 1.367 . S
C1387 C1386 1.367 . S
C1387 C1389 1.433 . S
C1388 C1384 1.350 . S
C1388 C1385 1.463 . S
C1388 N1392 1.427 . S
C1389 H1379 0.929 . S
C1389 C1387 1.433 . S
C1389 N1392 1.384 . S
C1390 H1381 0.929 . S
C1390 C1382 1.378 . S
C1390 C1385 1.350 . S
C1391 H1378 0.929 . S
C1391 C1383 1.433 . S
C1391 N1393 1.384 . S
N1392 C1388 1.427 . S
N1392 C1389 1.384 . S
N1393 C1385 1.427 . S
N1393 C1391 1.384 . S
H1394 C1400 0.930 . S
H1395 C1404 0.930 . S
H1396 C1409 0.929 . S
H1397 C1407 0.929 . S
H1398 C1402 0.929 . S
H1399 C1408 0.929 . S
C1400 H1394 0.930 . S
C1400 C1401 1.367 . S
C1400 C1408 1.378 . S
C1401 C1400 1.367 . S
C1401 C1409 1.433 . S
C1402 H1398 0.929 . S
C1402 C1404 1.378 . S
C1402 C1406 1.350 . S
C1403 C1406 1.463 . S
C1403 C1408 1.350 . S
C1403 N1411 1.427 . S
C1404 H1395 0.930 . S
C1404 C1402 1.378 . S
C1404 C1405 1.367 . S
C1405 C1404 1.367 . S
C1405 C1407 1.433 . S
C1406 C1402 1.350 . S
C1406 C1403 1.463 . S
C1406 N1410 1.427 . S
C1407 H1397 0.929 . S
C1407 C1405 1.433 . S
C1407 N1410 1.384 . S
C1408 H1399 0.929 . S
C1408 C1400 1.378 . S
C1408 C1403 1.350 . S
C1409 H1396 0.929 . S
C1409 C1401 1.433 . S
C1409 N1411 1.384 . S
N1410 C1406 1.427 . S
N1410 C1407 1.384 . S
N1411 C1403 1.427 . S
N1411 C1409 1.384 . S
H1412 C1418 0.930 1_455 S
H1413 C1422 0.930 . S
H1414 C1427 0.929 . S
H1415 C1425 0.929 1_455 S
H1416 C1420 0.929 . S
H1417 C1426 0.929 1_455 S
C1418 H1412 0.930 1_655 S
C1418 C1419 1.367 . S
C1418 C1426 1.378 . S
C1419 C1418 1.367 . S
C1419 C1427 1.433 . S
C1420 H1416 0.929 . S
C1420 C1422 1.378 . S
C1420 C1424 1.350 . S
C1421 C1424 1.463 . S
C1421 C1426 1.350 . S
C1421 N1429 1.427 . S
C1422 H1413 0.930 . S
C1422 C1420 1.378 . S
C1422 C1423 1.367 . S
C1423 C1422 1.367 . S
C1423 C1425 1.433 . S
C1424 C1420 1.350 . S
C1424 C1421 1.463 . S
C1424 N1428 1.427 . S
C1425 H1415 0.929 1_655 S
C1425 C1423 1.433 . S
C1425 N1428 1.384 . S
C1426 H1417 0.929 1_655 S
C1426 C1418 1.378 . S
C1426 C1421 1.350 . S
C1427 H1414 0.929 . S
C1427 C1419 1.433 . S
C1427 N1429 1.384 . S
N1428 C1424 1.427 . S
N1428 C1425 1.384 . S
N1429 C1421 1.427 . S
N1429 C1427 1.384 . S
H1430 C1436 0.930 . S
H1431 C1440 0.930 1_545 S
H1432 C1445 0.929 1_545 S
H1433 C1443 0.929 . S
H1434 C1438 0.929 1_545 S
H1435 C1444 0.929 . S
C1436 H1430 0.930 . S
C1436 C1437 1.367 . S
C1436 C1444 1.378 . S
C1437 C1436 1.367 . S
C1437 C1445 1.433 . S
C1438 H1434 0.929 1_565 S
C1438 C1440 1.378 . S
C1438 C1442 1.350 . S
C1439 C1442 1.463 . S
C1439 C1444 1.350 . S
C1439 N1447 1.427 . S
C1440 H1431 0.930 1_565 S
C1440 C1438 1.378 . S
C1440 C1441 1.367 . S
C1441 C1440 1.367 . S
C1441 C1443 1.433 . S
C1442 C1438 1.350 . S
C1442 C1439 1.463 . S
C1442 N1446 1.427 . S
C1443 H1433 0.929 . S
C1443 C1441 1.433 . S
C1443 N1446 1.384 . S
C1444 H1435 0.929 . S
C1444 C1436 1.378 . S
C1444 C1439 1.350 . S
C1445 H1432 0.929 1_565 S
C1445 C1437 1.433 . S
C1445 N1447 1.384 . S
N1446 C1442 1.427 . S
N1446 C1443 1.384 . S
N1447 C1439 1.427 . S
N1447 C1445 1.384 . S
H1448 C1454 0.930 . S
H1449 C1458 0.930 . S
H1450 C1463 0.929 . S
H1451 C1461 0.929 . S
H1452 C1456 0.929 . S
H1453 C1462 0.929 . S
C1454 H1448 0.930 . S
C1454 C1455 1.367 . S
C1454 C1462 1.378 . S
C1455 C1454 1.367 . S
C1455 C1463 1.433 . S
C1456 H1452 0.929 . S
C1456 C1458 1.378 . S
C1456 C1460 1.350 . S
C1457 C1460 1.463 . S
C1457 C1462 1.350 . S
C1457 N1465 1.427 . S
C1458 H1449 0.930 . S
C1458 C1456 1.378 . S
C1458 C1459 1.367 . S
C1459 C1458 1.367 . S
C1459 C1461 1.433 . S
C1460 C1456 1.350 . S
C1460 C1457 1.463 . S
C1460 N1464 1.427 . S
C1461 H1451 0.929 . S
C1461 C1459 1.433 . S
C1461 N1464 1.384 . S
C1462 H1453 0.929 . S
C1462 C1454 1.378 . S
C1462 C1457 1.350 . S
C1463 H1450 0.929 . S
C1463 C1455 1.433 . S
C1463 N1465 1.384 . S
N1464 C1460 1.427 . S
N1464 C1461 1.384 . S
N1465 C1457 1.427 . S
N1465 C1463 1.384 . S
H1466 C1472 0.930 . S
H1467 C1476 0.930 . S
H1468 C1481 0.929 . S
H1469 C1479 0.929 . S
H1470 C1474 0.929 . S
H1471 C1480 0.929 . S
C1472 H1466 0.930 . S
C1472 C1473 1.367 . S
C1472 C1480 1.378 . S
C1473 C1472 1.367 . S
C1473 C1481 1.433 . S
C1474 H1470 0.929 . S
C1474 C1476 1.378 . S
C1474 C1478 1.350 . S
C1475 C1478 1.463 . S
C1475 C1480 1.350 . S
C1475 N1483 1.427 . S
C1476 H1467 0.930 . S
C1476 C1474 1.378 . S
C1476 C1477 1.367 . S
C1477 C1476 1.367 . S
C1477 C1479 1.433 . S
C1478 C1474 1.350 . S
C1478 C1475 1.463 . S
C1478 N1482 1.427 . S
C1479 H1469 0.929 . S
C1479 C1477 1.433 . S
C1479 N1482 1.384 . S
C1480 H1471 0.929 . S
C1480 C1472 1.378 . S
C1480 C1475 1.350 . S
C1481 H1468 0.929 . S
C1481 C1473 1.433 . S
C1481 N1483 1.384 . S
N1482 C1478 1.427 . S
N1482 C1479 1.384 . S
N1483 C1475 1.427 . S
N1483 C1481 1.384 . S
H1484 C1490 0.930 . S
H1485 C1494 0.930 . S
H1486 C1499 0.949 . S
H1487 C1497 0.929 . S
H1488 C1492 0.929 . S
H1489 C1498 0.929 . S
C1490 H1484 0.930 . S
C1490 C1491 1.367 . S
C1490 C1498 1.378 . S
C1491 C1490 1.367 . S
C1491 C1499 1.433 . S
C1492 H1488 0.929 . S
C1492 C1494 1.378 . S
C1492 C1496 1.350 . S
C1493 C1496 1.463 . S
C1493 C1498 1.350 . S
C1493 N1501 1.427 . S
C1494 H1485 0.930 . S
C1494 C1492 1.378 . S
C1494 C1495 1.367 . S
C1495 C1494 1.367 . S
C1495 C1497 1.433 . S
C1496 C1492 1.350 . S
C1496 C1493 1.463 . S
C1496 N1500 1.427 . S
C1497 H1487 0.929 . S
C1497 C1495 1.433 . S
C1497 N1500 1.384 . S
C1498 H1489 0.929 . S
C1498 C1490 1.378 . S
C1498 C1493 1.350 . S
C1499 H1486 0.949 . S
C1499 C1491 1.433 . S
C1499 N1501 1.384 . S
N1500 C1496 1.427 . S
N1500 C1497 1.384 . S
N1501 C1493 1.427 . S
N1501 C1499 1.384 . S
H1502 C1508 0.930 . S
H1503 C1512 0.930 1_565 S
H1504 C1517 0.929 1_565 S
H1505 C1515 0.929 . S
H1506 C1510 0.929 1_565 S
H1507 C1516 0.929 . S
C1508 H1502 0.930 . S
C1508 C1509 1.367 . S
C1508 C1516 1.378 . S
C1509 C1508 1.367 . S
C1509 C1517 1.433 . S
C1510 H1506 0.929 1_545 S
C1510 C1512 1.378 . S
C1510 C1514 1.350 . S
C1511 C1514 1.463 . S
C1511 C1516 1.350 . S
C1511 N1519 1.427 . S
C1512 H1503 0.930 1_545 S
C1512 C1510 1.378 . S
C1512 C1513 1.367 . S
C1513 C1512 1.367 . S
C1513 C1515 1.433 . S
C1514 C1510 1.350 . S
C1514 C1511 1.463 . S
C1514 N1518 1.427 . S
C1515 H1505 0.929 . S
C1515 C1513 1.433 . S
C1515 N1518 1.384 . S
C1516 H1507 0.929 . S
C1516 C1508 1.378 . S
C1516 C1511 1.350 . S
C1517 H1504 0.929 1_545 S
C1517 C1509 1.433 . S
C1517 N1519 1.384 . S
N1518 C1514 1.427 . S
N1518 C1515 1.384 . S
N1519 C1511 1.427 . S
N1519 C1517 1.384 . S
C951 C52 0.971 . S
C955 C564 0.977 . S
C969 C623 0.973 . S
C973 C111 0.967 . S
C987 C682 0.976 . S
C991 C170 0.969 . S
C1005 C505 0.981 . S
C1009 C229 0.977 . S
C1023 C288 0.975 . S
C1027 C918 0.980 . S
C1041 C741 0.973 . S
C1045 C347 0.965 . S
C1059 C800 0.980 . S
C1063 C406 0.978 . S
C1077 C859 0.973 . S
C1081 C465 0.967 . S
C1095 C524 0.974 . S
C1099 C92 0.979 . S
C1113 C583 0.967 . S
C1117 C151 0.973 . S
C1131 C642 0.968 . S
C1135 C210 0.976 . S
C1149 C33 0.981 . S
C1153 C701 0.977 . S
C1167 C760 0.976 . S
C1171 C446 0.980 . S
C1185 C819 0.970 . S
C1189 C269 0.975 . S
C1203 C328 0.979 . S
C1207 C878 0.974 . S
C1221 C937 0.978 . S
C1225 C387 0.980 . S
C1239 C477 1.797 . S
C1243 C5 1.797 . S
C1257 C64 1.797 . S
C1261 C536 1.797 . S
C1275 C595 1.792 . S
C1279 C123 1.792 . S
C1293 C182 1.805 . S
C1297 C654 1.805 . S
C1311 C713 1.794 . S
C1315 C241 1.794 . S
C1329 C300 1.786 . S
C1333 C772 1.786 . S
C1347 C831 1.795 . S
C1351 C359 1.795 . S
C1365 C890 1.803 . S
C1369 C418 1.803 . S
C1383 C239 1.684 . S
C1387 C3 1.679 . S
C1401 C298 1.679 . S
C1405 C62 1.686 . S
C1419 C121 1.692 . S
C1423 C357 1.686 . S
C1437 C416 1.679 . S
C1441 C180 1.686 . S
C1455 C475 1.684 . S
C1459 C711 1.679 . S
C1473 C770 1.679 . S
C1477 C534 1.686 . S
C1491 C829 1.679 . S
C1495 C593 1.684 . S
C1509 C888 1.679 . S
C1513 C652 1.685 . S
