# Generated by pormake.
# Topology zfk, (5)-cn, num edge types: 1
# Building blocks:
#     Node 0, Type 0, BuildingBlock: XOMCOT_clean_sbu_1, # of connection points: 5
#     Node 1, Type 0, BuildingBlock: XOMCOT_clean_sbu_1, # of connection points: 5
#     Node 2, Type 0, BuildingBlock: XOMCOT_clean_sbu_1, # of connection points: 5
#     Node 3, Type 0, BuildingBlock: XOMCOT_clean_sbu_1, # of connection points: 5
#     Node 4, Type 0, BuildingBlock: XOMCOT_clean_sbu_1, # of connection points: 5
#     Node 5, Type 0, BuildingBlock: XOMCOT_clean_sbu_1, # of connection points: 5
#     Node 6, Type 0, BuildingBlock: XOMCOT_clean_sbu_1, # of connection points: 5
#     Node 7, Type 0, BuildingBlock: XOMCOT_clean_sbu_1, # of connection points: 5
#     Node 8, Type 0, BuildingBlock: XOMCOT_clean_sbu_1, # of connection points: 5
#     Node 9, Type 0, BuildingBlock: XOMCOT_clean_sbu_1, # of connection points: 5
#     Node 10, Type 0, BuildingBlock: XOMCOT_clean_sbu_1, # of connection points: 5
#     Node 11, Type 0, BuildingBlock: XOMCOT_clean_sbu_1, # of connection points: 5
#     Node 12, Type 0, BuildingBlock: XOMCOT_clean_sbu_1, # of connection points: 5
#     Node 13, Type 0, BuildingBlock: XOMCOT_clean_sbu_1, # of connection points: 5
#     Node 14, Type 0, BuildingBlock: XOMCOT_clean_sbu_1, # of connection points: 5
#     Node 15, Type 0, BuildingBlock: XOMCOT_clean_sbu_1, # of connection points: 5
#     Edge 16, Type (0, 0), BuildingBlock: AJUNOK_clean_linker_0, # of connection points: 2
#     Edge 17, Type (0, 0), BuildingBlock: AJUNOK_clean_linker_0, # of connection points: 2
#     Edge 18, Type (0, 0), BuildingBlock: AJUNOK_clean_linker_0, # of connection points: 2
#     Edge 19, Type (0, 0), BuildingBlock: AJUNOK_clean_linker_0, # of connection points: 2
#     Edge 20, Type (0, 0), BuildingBlock: AJUNOK_clean_linker_0, # of connection points: 2
#     Edge 21, Type (0, 0), BuildingBlock: AJUNOK_clean_linker_0, # of connection points: 2
#     Edge 22, Type (0, 0), BuildingBlock: AJUNOK_clean_linker_0, # of connection points: 2
#     Edge 23, Type (0, 0), BuildingBlock: AJUNOK_clean_linker_0, # of connection points: 2
#     Edge 24, Type (0, 0), BuildingBlock: AJUNOK_clean_linker_0, # of connection points: 2
#     Edge 25, Type (0, 0), BuildingBlock: AJUNOK_clean_linker_0, # of connection points: 2
#     Edge 26, Type (0, 0), BuildingBlock: AJUNOK_clean_linker_0, # of connection points: 2
#     Edge 27, Type (0, 0), BuildingBlock: AJUNOK_clean_linker_0, # of connection points: 2
#     Edge 28, Type (0, 0), BuildingBlock: AJUNOK_clean_linker_0, # of connection points: 2
#     Edge 29, Type (0, 0), BuildingBlock: AJUNOK_clean_linker_0, # of connection points: 2
#     Edge 30, Type (0, 0), BuildingBlock: AJUNOK_clean_linker_0, # of connection points: 2
#     Edge 31, Type (0, 0), BuildingBlock: AJUNOK_clean_linker_0, # of connection points: 2
#     Edge 32, Type (0, 0), BuildingBlock: AJUNOK_clean_linker_0, # of connection points: 2
#     Edge 33, Type (0, 0), BuildingBlock: AJUNOK_clean_linker_0, # of connection points: 2
#     Edge 34, Type (0, 0), BuildingBlock: AJUNOK_clean_linker_0, # of connection points: 2
#     Edge 35, Type (0, 0), BuildingBlock: AJUNOK_clean_linker_0, # of connection points: 2
#     Edge 36, Type (0, 0), BuildingBlock: AJUNOK_clean_linker_0, # of connection points: 2
#     Edge 37, Type (0, 0), BuildingBlock: AJUNOK_clean_linker_0, # of connection points: 2
#     Edge 38, Type (0, 0), BuildingBlock: AJUNOK_clean_linker_0, # of connection points: 2
#     Edge 39, Type (0, 0), BuildingBlock: AJUNOK_clean_linker_0, # of connection points: 2
#     Edge 40, Type (0, 0), BuildingBlock: AJUNOK_clean_linker_0, # of connection points: 2
#     Edge 41, Type (0, 0), BuildingBlock: AJUNOK_clean_linker_0, # of connection points: 2
#     Edge 42, Type (0, 0), BuildingBlock: AJUNOK_clean_linker_0, # of connection points: 2
#     Edge 43, Type (0, 0), BuildingBlock: AJUNOK_clean_linker_0, # of connection points: 2
#     Edge 44, Type (0, 0), BuildingBlock: AJUNOK_clean_linker_0, # of connection points: 2
#     Edge 45, Type (0, 0), BuildingBlock: AJUNOK_clean_linker_0, # of connection points: 2
#     Edge 46, Type (0, 0), BuildingBlock: AJUNOK_clean_linker_0, # of connection points: 2
#     Edge 47, Type (0, 0), BuildingBlock: AJUNOK_clean_linker_0, # of connection points: 2
#     Edge 48, Type (0, 0), BuildingBlock: AJUNOK_clean_linker_0, # of connection points: 2
#     Edge 49, Type (0, 0), BuildingBlock: AJUNOK_clean_linker_0, # of connection points: 2
#     Edge 50, Type (0, 0), BuildingBlock: AJUNOK_clean_linker_0, # of connection points: 2
#     Edge 51, Type (0, 0), BuildingBlock: AJUNOK_clean_linker_0, # of connection points: 2
#     Edge 52, Type (0, 0), BuildingBlock: AJUNOK_clean_linker_0, # of connection points: 2
#     Edge 53, Type (0, 0), BuildingBlock: AJUNOK_clean_linker_0, # of connection points: 2
#     Edge 54, Type (0, 0), BuildingBlock: AJUNOK_clean_linker_0, # of connection points: 2
#     Edge 55, Type (0, 0), BuildingBlock: AJUNOK_clean_linker_0, # of connection points: 2
# Relax obj value: 0.316
# Max RMSD: 0.178
# Mean RMSD: 0.178
data_MOF--net-zfk--node1-XOMCOT_clean_sbu_1--edge1-AJUNOK_clean_linker_0
_symmetry_space_group_name_H-M    P1
_symmetry_Int_Tables_number       1
_symmetry_cell_setting            triclinic
loop_
_symmetry_equiv_pos_as_xyz
'x, y, z'
_cell_length_a     22.872493
_cell_length_b     22.92826
_cell_length_c     49.786068
_cell_angle_alpha  90.202138
_cell_angle_beta   89.989391
_cell_angle_gamma 89.504195
loop_
_atom_site_label
_atom_site_type_symbol
_atom_site_fract_x
_atom_site_fract_y
_atom_site_fract_z
_atom_type_partial_charge
C0 C 0.91427 0.37851 0.13036 0.0
C1 C 0.90188 0.35652 0.10512 0.0
N2 N 0.9203 0.30074 0.10416 0.0
N3 N 0.9424 0.3376 0.14519 0.0
C4 C 0.9415 0.28981 0.12896 0.0
H5 H 0.90267 0.42175 0.13732 0.0
Co6 Co 0.97187 0.34269 0.18144 0.0
C7 C 1.00785 0.21918 0.19468 0.0
O8 O 0.05369 0.24081 0.20697 0.0
N9 N 0.99516 0.34698 0.21802 0.0
C10 C 0.98754 0.32923 0.26198 0.0
C11 C 0.9688 0.31373 0.23677 0.0
C12 C 0.02773 0.38465 0.23278 0.0
N13 N 0.02436 0.37417 0.2595 0.0
O14 O 0.97245 0.43088 0.18062 0.0
H15 H 0.93604 0.28128 0.23247 0.0
H16 H 0.05125 0.4209 0.22457 0.0
O17 O 0.97035 0.25454 0.18406 0.0
C18 C 0.99163 0.47029 0.1646 0.0
O19 O 0.01202 0.45451 0.14096 0.0
N20 N 0.05194 0.33958 0.16812 0.0
C21 C 0.16447 0.33311 0.14492 0.0
C22 C 0.12434 0.28784 0.14203 0.0
C23 C 0.06872 0.293 0.15262 0.0
C24 C 0.09153 0.38325 0.17214 0.0
C25 C 0.14644 0.3822 0.1598 0.0
H26 H 0.04093 0.2568 0.14898 0.0
H27 H 0.08136 0.42065 0.18423 0.0
H28 H 0.95411 0.24654 0.13524 0.0
H29 H 0.88177 0.38002 0.08867 0.0
H30 H 0.97287 0.3109 0.2808 0.0
H31 H 0.13549 0.24648 0.13289 0.0
H32 H 0.17476 0.41918 0.16277 0.0
C33 C 0.07969 0.03586 0.61906 0.0
C34 C 0.0982 0.02883 0.59296 0.0
N35 N 0.14349 0.99094 0.59261 0.0
N36 N 0.11366 1.00328 0.63553 0.0
C37 C 0.15079 0.97499 0.61855 0.0
H38 H 0.04527 0.06515 0.62528 0.0
Co39 Co 0.11513 0.99796 0.67373 0.0
C40 C 0.24611 1.00017 0.68654 0.0
O41 O 0.23343 0.02823 0.70883 0.0
N42 N 0.11348 0.98442 0.71175 0.0
C43 C 0.13223 0.94668 0.75221 0.0
C44 C 0.14819 0.94701 0.72551 0.0
C45 C 0.07325 1.00159 0.73035 0.0
N46 N 0.08509 0.98153 0.7553 0.0
O47 O 0.02793 0.01798 0.67505 0.0
H48 H 0.18313 0.9212 0.71677 0.0
H49 H 0.03714 0.03068 0.72592 0.0
O50 O 0.20378 0.98034 0.67192 0.0
C51 C 0.99992 0.06698 0.67353 0.0
O52 O 0.02944 0.11519 0.67004 0.0
N53 N 0.13888 0.07849 0.67768 0.0
C54 C 0.21901 0.16548 0.69015 0.0
C55 C 0.21401 0.14437 0.66388 0.0
C56 C 0.17505 0.10023 0.65823 0.0
C57 C 0.13473 0.10819 0.70155 0.0
C58 C 0.17627 0.1495 0.70877 0.0
H59 H 0.18034 0.08008 0.63892 0.0
H60 H 0.10235 0.09833 0.71619 0.0
H61 H 0.18443 0.94522 0.62531 0.0
H62 H 0.08065 0.05138 0.57564 0.0
H63 H 0.1537 0.92261 0.76812 0.0
H64 H 0.24315 0.1584 0.64806 0.0
H65 H 0.17635 0.1653 0.72923 0.0
C66 C 0.61763 0.13427 0.13159 0.0
C67 C 0.62456 0.1569 0.1061 0.0
N68 N 0.59677 0.20895 0.10496 0.0
N69 N 0.58543 0.1717 0.14656 0.0
C70 C 0.57431 0.21698 0.12985 0.0
H71 H 0.63511 0.09318 0.13872 0.0
Co72 Co 0.56415 0.16453 0.18321 0.0
C73 C 0.55122 0.29364 0.20252 0.0
O74 O 0.53645 0.27959 0.2271 0.0
N75 N 0.55036 0.15662 0.22042 0.0
C76 C 0.57564 0.15892 0.26359 0.0
C77 C 0.59187 0.17347 0.23793 0.0
C78 C 0.51056 0.12889 0.23595 0.0
N79 N 0.52456 0.13016 0.26243 0.0
O80 O 0.56097 0.07633 0.18024 0.0
H81 H 0.63149 0.19576 0.23229 0.0
H82 H 0.47229 0.10762 0.22806 0.0
O83 O 0.5658 0.25302 0.18579 0.0
C84 C 0.51795 0.04027 0.18108 0.0
O85 O 0.46424 0.06038 0.18299 0.0
N86 N 0.48326 0.1729 0.17425 0.0
C87 C 0.38363 0.22723 0.15369 0.0
C88 C 0.41671 0.18897 0.13764 0.0
C89 C 0.46444 0.15965 0.14883 0.0
C90 C 0.44734 0.20424 0.19085 0.0
C91 C 0.39671 0.23008 0.18119 0.0
H92 H 0.48956 0.13068 0.13604 0.0
H93 H 0.45912 0.21382 0.21123 0.0
H94 H 0.54938 0.25484 0.1359 0.0
H95 H 0.64778 0.13626 0.08963 0.0
H96 H 0.5995 0.16996 0.28161 0.0
H97 H 0.40884 0.18383 0.11639 0.0
H98 H 0.37019 0.25539 0.19507 0.0
C99 C 0.43373 0.58688 0.62535 0.0
C100 C 0.41459 0.59469 0.59941 0.0
N101 N 0.36102 0.57156 0.59723 0.0
N102 N 0.39372 0.55676 0.63959 0.0
C103 C 0.34871 0.55068 0.62192 0.0
H104 H 0.47303 0.6056 0.63361 0.0
Co105 Co 0.39545 0.54726 0.67774 0.0
C106 C 0.26919 0.51918 0.69143 0.0
O107 O 0.28868 0.48329 0.70996 0.0
N108 N 0.39603 0.54516 0.71622 0.0
C109 C 0.37172 0.57255 0.75805 0.0
C110 C 0.36059 0.58019 0.73106 0.0
C111 C 0.43031 0.51895 0.73501 0.0
N112 N 0.41564 0.53368 0.7604 0.0
O113 O 0.48373 0.54622 0.67804 0.0
H114 H 0.32831 0.60975 0.72274 0.0
H115 H 0.4676 0.49178 0.73089 0.0
O116 O 0.30655 0.54873 0.6778 0.0
C117 C 0.52142 0.51903 0.66323 0.0
O118 O 0.50286 0.48843 0.6426 0.0
N119 N 0.39578 0.46292 0.675 0.0
C120 C 0.37624 0.34549 0.68369 0.0
C121 C 0.3404 0.3768 0.66617 0.0
C122 C 0.35122 0.43542 0.66193 0.0
C123 C 0.43681 0.42917 0.68797 0.0
C124 C 0.42691 0.3706 0.6934 0.0
H125 H 0.31955 0.45889 0.6504 0.0
H126 H 0.47669 0.44677 0.69548 0.0
H127 H 0.30591 0.53498 0.62716 0.0
H128 H 0.4368 0.61892 0.58389 0.0
H129 H 0.34871 0.59322 0.77458 0.0
H130 H 0.30112 0.35759 0.65791 0.0
H131 H 0.45659 0.34645 0.70626 0.0
C132 C 0.9512 0.06733 0.98908 0.0
C133 C 0.93883 0.08671 1.01463 0.0
N134 N 0.92519 0.14369 1.01344 0.0
N135 N 0.9475 0.11212 0.97149 0.0
C136 C 0.92796 0.15731 0.98709 0.0
H137 H 0.96291 0.02302 0.98432 0.0
Co138 Co 0.96662 0.11237 0.93348 0.0
C139 C 0.98812 0.23832 0.92047 0.0
O140 O 0.03056 0.21862 0.90502 0.0
N141 N 0.9775 0.11071 0.89535 0.0
C142 C 0.95458 0.12825 0.85245 0.0
C143 C 0.94568 0.14495 0.87867 0.0
C144 C 1.00258 0.07092 0.87843 0.0
N145 N 0.99025 0.08141 0.85228 0.0
O146 O 0.98055 0.02496 0.93366 0.0
H147 H 0.91574 0.17893 0.88511 0.0
H148 H 0.02623 0.03252 0.88499 0.0
O149 O 0.95478 0.20108 0.93237 0.0
C150 C 0.02114 0.99127 0.94301 0.0
O151 O 0.06157 0.01332 0.95867 0.0
N152 N 0.04784 0.12783 0.94105 0.0
C153 C 0.15836 0.17622 0.94822 0.0
C154 C 0.11165 0.19344 0.9643 0.0
C155 C 0.05781 0.1684 0.96074 0.0
C156 C 0.09427 0.10788 0.92611 0.0
C157 C 0.15002 0.13165 0.92935 0.0
H158 H 0.02337 0.18837 0.97192 0.0
H159 H 0.08909 0.07427 0.91135 0.0
H160 H 0.92136 0.20109 0.97979 0.0
H161 H 0.94212 0.0614 1.03289 0.0
H162 H 0.93569 0.14876 0.83489 0.0
H163 H 0.1149 0.22976 0.97819 0.0
H164 H 0.18558 0.11687 0.91659 0.0
C165 C 0.37358 0.93049 0.47651 0.0
C166 C 0.34976 0.92311 0.50179 0.0
N167 N 0.29721 0.95014 0.50247 0.0
N168 N 0.33656 0.96262 0.46138 0.0
C169 C 0.29019 0.973 0.47772 0.0
H170 H 0.41568 0.91432 0.46977 0.0
Co171 Co 0.346 0.9865 0.42524 0.0
C172 C 0.21799 0.99726 0.40418 0.0
O173 O 0.2338 0.01304 0.37997 0.0
N174 N 0.35632 1.00323 0.38859 0.0
C175 C 0.36201 0.98014 0.34514 0.0
C176 C 0.34252 0.96275 0.36994 0.0
C177 C 0.38694 0.04367 0.37473 0.0
N178 N 0.39011 0.03087 0.34824 0.0
O179 O 0.43388 0.99147 0.42933 0.0
H180 H 0.32094 0.9221 0.37436 0.0
H181 H 0.40789 0.0809 0.38377 0.0
O182 O 0.25757 0.98289 0.42141 0.0
C183 C 0.46929 0.035 0.43026 0.0
O184 O 0.44841 0.08846 0.4304 0.0
N185 N 0.3351 0.06624 0.43539 0.0
C186 C 0.26319 0.1492 0.45892 0.0
C187 C 0.30764 0.12283 0.47403 0.0
C188 C 0.34518 0.08301 0.46142 0.0
C189 C 0.30082 0.10073 0.41952 0.0
C190 C 0.26468 0.14275 0.43091 0.0
H191 H 0.37683 0.0599 0.47362 0.0
H192 H 0.2956 0.09211 0.39844 0.0
H193 H 0.25288 0.99928 0.47194 0.0
H194 H 0.37058 0.90148 0.51858 0.0
H195 H 0.35877 0.95585 0.32651 0.0
H196 H 0.31107 0.12964 0.49549 0.0
H197 H 0.23556 0.16723 0.41792 0.0
C198 C 0.55988 0.44473 0.99181 0.0
C199 C 0.57211 0.42502 1.01726 0.0
N200 N 0.58612 0.36819 1.01567 0.0
N201 N 0.56385 0.40018 0.97395 0.0
C202 C 0.58363 0.3549 0.98925 0.0
H203 H 0.54817 0.48909 0.98731 0.0
Co204 Co 0.54397 0.39967 0.93608 0.0
C205 C 0.5235 0.2734 0.92288 0.0
O206 O 0.47963 0.29239 0.90817 0.0
N207 N 0.53184 0.40093 0.89814 0.0
C208 C 0.55053 0.38191 0.85496 0.0
C209 C 0.56262 0.3666 0.88101 0.0
C210 C 0.50473 0.43982 0.88161 0.0
N211 N 0.51388 0.42806 0.85525 0.0
O212 O 0.5296 0.48684 0.93633 0.0
H213 H 0.59377 0.33342 0.88701 0.0
H214 H 0.48048 0.47743 0.88861 0.0
O215 O 0.55674 0.31115 0.9346 0.0
C216 C 0.48983 0.5209 0.94618 0.0
O217 O 0.45058 0.49928 0.96253 0.0
N218 N 0.46298 0.38379 0.94416 0.0
C219 C 0.3534 0.33311 0.95041 0.0
C220 C 0.40016 0.31603 0.96645 0.0
C221 C 0.45358 0.34232 0.96338 0.0
C222 C 0.41607 0.40438 0.92981 0.0
C223 C 0.36085 0.37935 0.93252 0.0
H224 H 0.48833 0.32251 0.97436 0.0
H225 H 0.42035 0.43943 0.91588 0.0
H226 H 0.59063 0.31121 0.98167 0.0
H227 H 0.56872 0.45003 1.03569 0.0
H228 H 0.56895 0.36177 0.83713 0.0
H229 H 0.3974 0.2789 0.97977 0.0
H230 H 0.32504 0.39446 0.92004 0.0
C231 C 0.13983 0.608 0.47624 0.0
C232 C 0.16323 0.6183 0.50135 0.0
N233 N 0.20828 0.5811 0.50507 0.0
N234 N 0.1684 0.56304 0.46432 0.0
C235 C 0.21059 0.54861 0.48239 0.0
H236 H 0.10521 0.63312 0.46688 0.0
Co237 Co 0.15843 0.54075 0.42769 0.0
C238 C 0.2818 0.51145 0.40805 0.0
O239 O 0.2602 0.47456 0.39051 0.0
N240 N 0.14945 0.52457 0.39094 0.0
C241 C 0.15586 0.54781 0.34768 0.0
C242 C 0.17043 0.5638 0.37338 0.0
C243 C 0.12118 0.4852 0.3753 0.0
N244 N 0.12414 0.49873 0.34883 0.0
O245 O 0.07028 0.54465 0.43094 0.0
H246 H 0.19476 0.60215 0.37906 0.0
H247 H 0.09725 0.44845 0.38291 0.0
O248 O 0.24636 0.54022 0.42339 0.0
C249 C 0.03309 0.53297 0.44957 0.0
O250 O 0.05269 0.51785 0.47338 0.0
N251 N 0.15797 0.45879 0.43736 0.0
C252 C 0.15248 0.35039 0.4633 0.0
C253 C 0.20541 0.37996 0.46052 0.0
C254 C 0.20712 0.43331 0.4478 0.0
C255 C 0.10756 0.42681 0.43687 0.0
C256 C 0.10302 0.37426 0.45081 0.0
H257 H 0.24889 0.45367 0.44757 0.0
H258 H 0.06934 0.44155 0.42625 0.0
H259 H 0.2442 0.51663 0.4789 0.0
H260 H 0.14986 0.65228 0.51525 0.0
H261 H 0.16808 0.57058 0.32956 0.0
H262 H 0.24633 0.3621 0.4679 0.0
H263 H 0.06105 0.35303 0.45157 0.0
C264 C 0.061 0.56905 0.98729 0.0
C265 C 0.06843 0.58952 1.01311 0.0
N266 N 0.06062 0.64771 1.0131 0.0
N267 N 0.04607 0.61347 0.97077 0.0
C268 C 0.04845 0.66102 0.98723 0.0
H269 H 0.06972 0.52473 0.98102 0.0
Co270 Co 0.04243 0.61174 0.93204 0.0
C271 C 0.0191 0.73901 0.91957 0.0
O272 O 0.98004 0.72213 0.90188 0.0
N273 N 0.04676 0.6103 0.89342 0.0
C274 C 0.06889 0.63745 0.85152 0.0
C275 C 0.0739 0.65096 0.87834 0.0
C276 C 0.03078 0.56962 0.87495 0.0
N277 N 0.04122 0.58622 0.84935 0.0
O278 O 0.03356 0.52397 0.9319 0.0
H279 H 0.09625 0.6887 0.88613 0.0
H280 H 0.01296 0.52753 0.87992 0.0
O281 O 0.04993 0.70014 0.93195 0.0
C282 C 0.9953 0.49142 0.94341 0.0
O283 O 0.95732 0.5157 0.95989 0.0
N284 N 0.95833 0.62055 0.93172 0.0
C285 C 0.845 0.65772 0.92153 0.0
C286 C 0.87606 0.68118 0.94297 0.0
C287 C 0.93244 0.66162 0.9479 0.0
C288 C 0.92413 0.59103 0.91365 0.0
C289 C 0.86757 0.60996 0.90767 0.0
H290 H 0.95635 0.68494 0.96278 0.0
H291 H 0.93996 0.55335 0.90321 0.0
H292 H 0.04175 0.70512 0.98037 0.0
H293 H 0.08132 0.56376 1.03033 0.0
H294 H 0.08282 0.66447 0.83498 0.0
H295 H 0.85861 0.71762 0.95447 0.0
H296 H 0.843 0.58925 0.89172 0.0
C297 C 0.88696 0.11782 0.47701 0.0
C298 C 0.86769 0.12979 0.50272 0.0
N299 N 0.81163 0.11305 0.50476 0.0
N300 N 0.84433 0.0913 0.46279 0.0
C301 C 0.7979 0.09328 0.47996 0.0
H302 H 0.92946 0.12912 0.46927 0.0
Co303 Co 0.84717 0.06384 0.42595 0.0
C304 C 0.72458 0.02322 0.41527 0.0
O305 O 0.74833 0.9786 0.40258 0.0
N306 N 0.84883 0.04293 0.38858 0.0
C307 C 0.82272 0.04699 0.34527 0.0
C308 C 0.8105 0.06639 0.37086 0.0
C309 C 0.88633 0.01223 0.37256 0.0
N310 N 0.87062 0.01278 0.34637 0.0
O311 O 0.93555 0.06391 0.4255 0.0
H312 H 0.77553 0.09631 0.37614 0.0
H313 H 0.92667 0.99265 0.37915 0.0
O314 O 0.7584 0.06265 0.42516 0.0
C315 C 0.9754 0.04146 0.44069 0.0
O316 O 0.95997 0.01769 0.46358 0.0
N317 N 0.84828 0.9837 0.43766 0.0
C318 C 0.83663 0.86647 0.4504 0.0
C319 C 0.79947 0.90799 0.46178 0.0
C320 C 0.80615 0.96588 0.45525 0.0
C321 C 0.88873 0.94355 0.42881 0.0
C322 C 0.88381 0.8847 0.43498 0.0
H323 H 0.77282 0.99437 0.46254 0.0
H324 H 0.92534 0.95559 0.41685 0.0
H325 H 0.75407 0.08065 0.47458 0.0
H326 H 0.89288 0.1504 0.51845 0.0
H327 H 0.79778 0.05691 0.32737 0.0
H328 H 0.76182 0.89559 0.47363 0.0
H329 H 0.91464 0.85353 0.42653 0.0
C330 C 0.48722 0.93661 0.9906 0.0
C331 C 0.47869 0.91471 1.01601 0.0
N332 N 0.454 0.86195 1.01381 0.0
N333 N 0.46865 0.89778 0.97199 0.0
C334 C 0.44661 0.85369 0.9871 0.0
H335 H 0.50673 0.9781 0.98655 0.0
Co336 Co 0.47282 0.89918 0.93328 0.0
C337 C 0.48781 0.77155 0.91917 0.0
O338 O 0.52506 0.78756 0.90057 0.0
N339 N 0.46931 0.90151 0.89449 0.0
C340 C 0.445 0.87774 0.85225 0.0
C341 C 0.43726 0.865 0.87905 0.0
C342 C 0.49105 0.93976 0.87627 0.0
N343 N 0.48005 0.92421 0.85054 0.0
O344 O 0.48725 0.98633 0.9335 0.0
H345 H 0.41033 0.83027 0.88667 0.0
H346 H 0.51478 0.97875 0.88155 0.0
O347 O 0.45997 0.81128 0.93262 0.0
C348 C 0.53153 0.0183 0.93959 0.0
O349 O 0.57883 0.99346 0.94936 0.0
N350 N 0.55547 0.8814 0.934 0.0
C351 C 0.65573 0.81527 0.92398 0.0
C352 C 0.62564 0.80965 0.94829 0.0
C353 C 0.57519 0.84217 0.95268 0.0
C354 C 0.59216 0.89628 0.91352 0.0
C355 C 0.64048 0.8617 0.90715 0.0
H356 H 0.54957 0.82997 0.96976 0.0
H357 H 0.58376 0.93321 0.90121 0.0
H358 H 0.4267 0.81524 0.97874 0.0
H359 H 0.49184 0.93516 1.03467 0.0
H360 H 0.42805 0.85336 0.83534 0.0
H361 H 0.63805 0.77706 0.96297 0.0
H362 H 0.66278 0.86988 0.88845 0.0
C363 C 0.60851 0.44071 0.48316 0.0
C364 C 0.62736 0.42925 0.50884 0.0
N365 N 0.6849 0.41722 0.50803 0.0
N366 N 0.65421 0.43812 0.46591 0.0
C367 C 0.69905 0.41892 0.48169 0.0
H368 H 0.56421 0.45208 0.47817 0.0
Co369 Co 0.65939 0.4633 0.42882 0.0
C370 C 0.78552 0.49733 0.42115 0.0
O371 O 0.7657 0.53953 0.40578 0.0
N372 N 0.66402 0.48042 0.39111 0.0
C373 C 0.69414 0.46878 0.34867 0.0
C374 C 0.70359 0.45359 0.375 0.0
C375 C 0.62797 0.50799 0.37334 0.0
N376 N 0.64696 0.50411 0.34757 0.0
O377 O 0.57102 0.47003 0.42584 0.0
H378 H 0.73667 0.42315 0.38185 0.0
H379 H 0.58689 0.52829 0.37879 0.0
O380 O 0.74909 0.4601 0.431 0.0
C381 C 0.5331 0.50641 0.43557 0.0
O382 O 0.54987 0.54479 0.45358 0.0
N383 N 0.6661 0.54348 0.43981 0.0
C384 C 0.71007 0.65397 0.44873 0.0
C385 C 0.72444 0.60889 0.46605 0.0
C386 C 0.7017 0.55439 0.46138 0.0
C387 C 0.64503 0.58968 0.42532 0.0
C388 C 0.66664 0.64555 0.42942 0.0
H389 H 0.71997 0.52064 0.47342 0.0
H390 H 0.61238 0.58431 0.41024 0.0
H391 H 0.74313 0.41255 0.47454 0.0
H392 H 0.60144 0.43314 0.52697 0.0
H393 H 0.71882 0.45272 0.33161 0.0
H394 H 0.75759 0.61391 0.48143 0.0
H395 H 0.65205 0.68093 0.41663 0.0
C396 C 0.09928 0.86634 0.13649 0.0
C397 C 0.10971 0.84509 0.11097 0.0
N398 N 0.07639 0.79746 0.10686 0.0
N399 N 0.05977 0.83242 0.14874 0.0
C400 C 0.04794 0.79006 0.13047 0.0
H401 H 0.12009 0.90355 0.14572 0.0
Co402 Co 0.0331 0.84039 0.18453 0.0
C403 C 0.0236 0.71143 0.20346 0.0
O404 O 1.00485 0.72442 0.22769 0.0
N405 N 0.01303 0.84882 0.22105 0.0
C406 C 0.03482 0.85569 0.26455 0.0
C407 C 0.05346 0.83593 0.23988 0.0
C408 C 0.97052 0.87792 0.23481 0.0
N409 N 0.98289 0.88271 0.26133 0.0
O410 O 0.02911 0.92813 0.18146 0.0
H411 H 0.09527 0.8155 0.23562 0.0
H412 H 0.93187 0.89636 0.22565 0.0
O413 O 0.03722 0.75257 0.18716 0.0
C414 C 0.98614 0.96496 0.18154 0.0
O415 O 0.93224 0.94591 0.1821 0.0
N416 N 0.95422 0.8323 0.17301 0.0
C417 C 0.87215 0.76763 0.14569 0.0
C418 C 0.89912 0.8145 0.1329 0.0
C419 C 0.93888 0.84802 0.14741 0.0
C420 C 0.91903 0.79556 0.18697 0.0
C421 C 0.87766 0.7626 0.17362 0.0
H422 H 0.96344 0.88083 0.1368 0.0
H423 H 0.92679 0.78619 0.20781 0.0
H424 H 0.01765 0.75512 0.13435 0.0
H425 H 0.14119 0.86277 0.0971 0.0
H426 H 0.05913 0.85334 0.28318 0.0
H427 H 0.89332 0.82238 0.11164 0.0
H428 H 0.85312 0.73066 0.18486 0.0
C429 C 0.59204 0.11255 0.62791 0.0
C430 C 0.61284 0.12738 0.60285 0.0
N431 N 0.66031 0.09428 0.5975 0.0
N432 N 0.62516 0.06923 0.63838 0.0
C433 C 0.66633 0.05911 0.61914 0.0
H434 H 0.55686 0.13444 0.63853 0.0
Co435 Co 0.62079 0.04839 0.67541 0.0
C436 C 0.74294 0.09955 0.67239 0.0
O437 O 0.72244 0.14783 0.66165 0.0
N438 N 0.61693 0.03286 0.71255 0.0
C439 C 0.63362 0.05152 0.75576 0.0
C440 C 0.6475 0.06608 0.7299 0.0
C441 C 0.58328 0.999 0.72865 0.0
N442 N 0.59351 0.00897 0.75514 0.0
O443 O 0.53293 0.03896 0.67323 0.0
H444 H 0.67633 0.101 0.72417 0.0
H445 H 0.55076 0.969 0.72132 0.0
O446 O 0.70687 0.05998 0.67919 0.0
C447 C 0.49533 0.02254 0.65556 0.0
O448 O 0.51394 1.00706 0.63159 0.0
N449 N 0.63475 0.96663 0.66715 0.0
C450 C 0.66067 0.84968 0.65449 0.0
C451 C 0.70297 0.89271 0.65249 0.0
C452 C 0.68938 0.94984 0.65866 0.0
C453 C 0.5929 0.92453 0.66992 0.0
C454 C 0.60464 0.86598 0.66332 0.0
H455 H 0.72486 0.97934 0.65622 0.0
H456 H 0.55017 0.93489 0.67766 0.0
H457 H 0.70198 0.02875 0.62116 0.0
H458 H 0.59644 0.16232 0.59029 0.0
H459 H 0.64981 0.07279 0.77369 0.0
H460 H 0.74765 0.88238 0.64683 0.0
H461 H 0.57041 0.83402 0.66541 0.0
C462 C 0.42986 0.62914 0.13044 0.0
C463 C 0.41574 0.65023 0.10531 0.0
N464 N 0.43476 0.70536 0.10363 0.0
N465 N 0.46043 0.66953 0.14433 0.0
C466 C 0.45899 0.71671 0.12778 0.0
H467 H 0.41743 0.58699 0.13801 0.0
Co468 Co 0.4936 0.66308 0.17987 0.0
C469 C 0.53543 0.7847 0.19241 0.0
O470 O 0.58138 0.76072 0.20389 0.0
N471 N 0.52028 0.6575 0.21594 0.0
C472 C 0.50868 0.67054 0.26013 0.0
C473 C 0.49206 0.68897 0.23503 0.0
C474 C 0.55321 0.61893 0.23032 0.0
N475 N 0.54722 0.62649 0.25719 0.0
O476 O 0.49069 0.57504 0.17914 0.0
H477 H 0.45872 0.72147 0.23093 0.0
H478 H 0.57707 0.58266 0.22181 0.0
O479 O 0.4959 0.75122 0.18245 0.0
C480 C 0.50537 0.53299 0.16322 0.0
O481 O 0.52328 0.54527 0.13881 0.0
N482 N 0.5717 0.66105 0.16463 0.0
C483 C 0.67624 0.65446 0.13429 0.0
C484 C 0.63843 0.70292 0.1329 0.0
C485 C 0.58754 0.70511 0.14782 0.0
C486 C 0.60906 0.6145 0.16726 0.0
C487 C 0.65973 0.60925 0.15169 0.0
H488 H 0.56202 0.74391 0.14564 0.0
H489 H 0.59948 0.57905 0.18044 0.0
H490 H 0.47503 0.75935 0.13307 0.0
H491 H 0.39264 0.62706 0.08965 0.0
H492 H 0.49226 0.68698 0.27913 0.0
H493 H 0.64803 0.74131 0.12125 0.0
H494 H 0.6848 0.56962 0.15379 0.0
C495 C 0.92944 0.43091 0.62039 0.0
C496 C 0.90596 0.41963 0.59537 0.0
N497 N 0.8496 0.43713 0.59538 0.0
N498 N 0.88838 0.45591 0.63627 0.0
C499 C 0.84006 0.4581 0.62046 0.0
H500 H 0.97335 0.41988 0.62674 0.0
Co501 Co 0.89513 0.47196 0.67375 0.0
C502 C 0.76862 0.48408 0.69394 0.0
O503 O 0.78661 0.50563 0.71689 0.0
N504 N 0.90424 0.47759 0.71127 0.0
C505 C 0.90423 0.4426 0.75288 0.0
C506 C 0.88425 0.43466 0.72716 0.0
C507 C 0.93991 0.50894 0.72759 0.0
N508 N 0.93915 0.48957 0.7533 0.0
O509 O 0.98213 0.48074 0.67142 0.0
H510 H 0.85745 0.39899 0.72024 0.0
H511 H 0.96533 0.54553 0.72068 0.0
O512 O 0.80672 0.46523 0.67679 0.0
C513 C 0.01897 0.51625 0.66106 0.0
O514 O 1.00019 0.55766 0.64506 0.0
N515 N 0.88109 0.55534 0.6686 0.0
C516 C 0.80378 0.6475 0.65815 0.0
C517 C 0.83441 0.62038 0.63717 0.0
C518 C 0.87506 0.57651 0.64299 0.0
C519 C 0.8596 0.58891 0.68924 0.0
C520 C 0.82157 0.63533 0.68442 0.0
H521 H 0.89747 0.5568 0.62619 0.0
H522 H 0.86566 0.57779 0.70988 0.0
H523 H 0.7985 0.4747 0.62728 0.0
H524 H 0.92861 0.3998 0.57852 0.0
H525 H 0.89487 0.41494 0.7699 0.0
H526 H 0.82543 0.63065 0.61636 0.0
H527 H 0.80392 0.65926 0.70141 0.0
C528 C 0.8782 0.22429 1.03938 0.0
C529 C 0.92425 0.18386 1.03587 0.0
C530 C 0.87691 0.26253 0.06169 0.0
C531 C 0.92188 0.26185 0.08111 0.0
H532 H 0.84264 0.22559 1.02504 0.0
H533 H 0.84016 0.2922 0.06396 0.0
S534 S 0.0569 0.17074 0.07831 0.0
N535 N 0.01851 0.14965 1.05199 0.0
N536 N 0.01699 0.22162 0.09325 0.0
C537 C 0.96928 0.22317 0.07701 0.0
C538 C 0.97025 0.18423 0.05456 0.0
C539 C 0.2288 0.01217 0.5286 0.0
C540 C 0.25886 0.95882 0.52529 0.0
C541 C 0.19125 0.02195 0.55045 0.0
C542 C 0.18166 0.97873 0.56998 0.0
H543 H 0.2351 0.0472 0.5144 0.0
H544 H 0.17041 0.06432 0.55227 0.0
S545 S 0.24691 0.82992 0.56974 0.0
N546 N 0.2749 0.86129 0.54289 0.0
N547 N 0.20377 0.87939 0.58385 0.0
C548 C 0.21099 0.92487 0.56681 0.0
C549 C 0.24965 0.91501 0.54454 0.0
C550 C 0.63786 0.24995 0.06279 0.0
C551 C 0.5927 0.24805 0.08214 0.0
C552 C 0.63539 0.28874 1.04091 0.0
C553 C 0.58813 0.32766 1.03778 0.0
H554 H 0.67593 0.22195 0.06479 0.0
H555 H 0.67107 0.28916 1.02662 0.0
S556 S 0.45511 0.33553 0.08026 0.0
N557 N 0.4962 0.28494 0.09458 0.0
N558 N 0.49304 0.35879 0.05426 0.0
C559 C 0.54211 0.32529 0.05643 0.0
C560 C 0.54404 0.28536 0.07841 0.0
C561 C 0.22578 0.58793 0.55418 0.0
C562 C 0.24739 0.57859 0.52798 0.0
C563 C 0.26276 0.58493 0.57675 0.0
C564 C 0.32304 0.57328 0.574 0.0
H565 H 0.17973 0.59695 0.55727 0.0
H566 H 0.24419 0.59268 0.59646 0.0
S567 S 0.40197 0.54558 0.51013 0.0
N568 N 0.33371 0.55789 0.50085 0.0
N569 N 0.40235 0.55113 0.54318 0.0
C570 C 0.34518 0.56385 0.548 0.0
C571 C 0.30765 0.56669 0.52505 0.0
C572 C 0.052 0.70343 0.08452 0.0
C573 C 0.07198 0.76133 0.0828 0.0
C574 C 0.04885 0.66697 0.06183 0.0
C575 C 0.06464 0.68668 1.0361 0.0
H576 H 0.03876 0.68556 0.10357 0.0
H577 H 0.03306 0.623 0.06448 0.0
S578 S 0.11507 0.83604 1.01969 0.0
N579 N 0.10342 0.83786 1.05236 0.0
N580 N 0.09979 0.76893 1.01012 0.0
C581 C 0.0835 0.74485 1.03383 0.0
C582 C 0.08656 0.78216 0.057 0.0
C583 C 0.71367 0.11821 0.52646 0.0
C584 C 0.77484 0.11133 0.52857 0.0
C585 C 0.67685 0.11297 0.54899 0.0
C586 C 0.69934 0.09994 0.57464 0.0
H587 H 0.69396 0.12781 0.50719 0.0
H588 H 0.63016 0.11822 0.54622 0.0
S589 S 0.85642 0.07921 0.59147 0.0
N590 N 0.85606 0.09098 0.55878 0.0
N591 N 0.78736 0.08294 0.60098 0.0
C592 C 0.76048 0.0938 0.57717 0.0
C593 C 0.79801 0.09917 0.55423 0.0
C594 C 0.4268 0.84113 0.06105 0.0
C595 C 0.44447 0.82101 1.03548 0.0
C596 C 0.42225 0.80299 0.08303 0.0
C597 C 0.43478 0.74305 0.08035 0.0
H598 H 0.41705 0.88695 0.06413 0.0
H599 H 0.40929 0.82057 0.10238 0.0
S600 S 0.48819 0.66888 1.01861 0.0
N601 N 0.47813 0.73736 1.00941 0.0
N602 N 0.46854 0.66592 1.05049 0.0
C603 C 0.45227 0.72225 0.05494 0.0
C604 C 0.45733 0.76109 1.03259 0.0
C605 C 0.77068 0.38066 0.53371 0.0
C606 C 0.72527 0.42167 0.5303 0.0
C607 C 0.81106 0.38582 0.55498 0.0
C608 C 0.80793 0.43261 0.57349 0.0
H609 H 0.77465 0.3442 0.51993 0.0
H610 H 0.84464 0.35262 0.55709 0.0
S611 S 0.70172 0.55587 0.57096 0.0
N612 N 0.68244 0.51307 0.5458 0.0
N613 N 0.75835 0.52339 0.58522 0.0
C614 C 0.7636 0.47476 0.56971 0.0
C615 C 0.72239 0.4692 0.54826 0.0
C616 C 0.95182 0.12874 0.1818 0.0
C617 C 1.00413 0.15439 0.19053 0.0
C618 C 0.94726 0.06793 0.17837 0.0
C619 C 0.99497 0.02967 0.18315 0.0
H620 H 0.91363 0.15571 0.17797 0.0
H621 H 0.90543 0.05078 0.17211 0.0
S622 S 0.14314 0.07449 0.20479 0.0
N623 N 0.10586 0.1363 0.20284 0.0
N624 N 0.09698 0.02271 0.19622 0.0
C625 C 0.04802 0.05481 0.19117 0.0
C626 C 0.05262 0.11678 0.19493 0.0
C627 C 0.35368 0.01112 0.69698 0.0
C628 C 0.3095 0.99983 0.67777 0.0
C629 C 0.41287 0.01848 0.68972 0.0
C630 C 0.43149 0.01511 0.66278 0.0
H631 H 0.34241 0.01511 0.71804 0.0
H632 H 0.44428 0.02699 0.70551 0.0
S633 S 0.33393 0.98849 0.60419 0.0
N634 N 0.28942 0.98712 0.63028 0.0
N635 N 0.39977 1.00021 0.61658 0.0
C636 C 0.38793 1.0035 0.64329 0.0
C637 C 0.32747 0.99602 0.65075 0.0
C638 C 0.54067 0.42883 0.15715 0.0
C639 C 0.51453 0.47199 0.17369 0.0
C640 C 0.55395 0.37242 0.16672 0.0
C641 C 0.54115 0.35563 0.19326 0.0
H642 H 0.55194 0.43876 0.13654 0.0
H643 H 0.57489 0.34202 0.15311 0.0
S644 S 0.47438 0.45256 0.24538 0.0
N645 N 0.47779 0.49396 0.2184 0.0
N646 N 0.50177 0.38863 0.2363 0.0
C647 C 0.51542 0.39863 0.21016 0.0
C648 C 0.50222 0.45627 0.20041 0.0
C649 C 0.18337 0.55081 0.66222 0.0
C650 C 0.20494 0.51903 0.68436 0.0
C651 C 0.12383 0.54889 0.65468 0.0
C652 C 0.08275 0.51469 0.66871 0.0
H653 H 0.2127 0.57739 0.65048 0.0
H654 H 0.10998 0.5746 0.63759 0.0
S655 S 0.11536 0.4241 0.72858 0.0
N656 N 0.17881 0.45326 0.72071 0.0
N657 N 0.06844 0.44873 0.7061 0.0
C658 C 0.10366 0.48264 0.69082 0.0
C659 C 0.16407 0.48511 0.69874 0.0
C660 C 0.03198 0.39952 0.92036 0.0
C661 C 0.9918 0.42686 0.9378 0.0
C662 C 0.02924 0.33935 0.9147 0.0
C663 C 0.98605 0.303 0.92606 0.0
H664 H 0.06622 0.42471 0.91101 0.0
H665 H 0.06214 0.32121 0.90136 0.0
S666 S 0.86847 0.35273 0.97232 0.0
N667 N 0.90603 0.41234 0.96607 0.0
N668 N 0.90085 0.30011 0.95502 0.0
C669 C 0.94495 0.32984 0.9432 0.0
C670 C 0.94784 0.39128 0.94914 0.0
C671 C 0.07906 1.00503 0.44763 0.0
C672 C 0.03711 0.03216 0.43085 0.0
C673 C 0.13639 0.99244 0.43874 0.0
C674 C 0.15516 1.00661 0.41264 0.0
H675 H 0.06758 0.99289 0.46795 0.0
H676 H 0.16605 0.97122 0.45257 0.0
S677 S 0.06232 0.07704 0.36022 0.0
N678 N 0.01866 0.07177 0.38645 0.0
N679 N 0.12555 0.0488 0.36978 0.0
C680 C 0.11338 0.03328 0.39549 0.0
C681 C 0.05489 0.04592 0.40456 0.0
C682 C 0.48436 0.17151 0.9172 0.0
C683 C 0.52832 0.20861 0.92746 0.0
C684 C 0.48529 0.11077 0.92142 0.0
C685 C 0.53036 0.08358 0.93608 0.0
H686 H 0.44818 0.18942 0.90578 0.0
H687 H 0.45046 0.08491 0.91288 0.0
S688 S 0.65606 0.16012 0.96775 0.0
N689 N 0.61824 0.21285 0.95319 0.0
N690 N 0.62032 0.09938 0.96132 0.0
C691 C 0.57469 0.12007 0.94658 0.0
C692 C 0.57359 0.18214 0.94226 0.0
C693 C 0.43042 0.54679 0.43945 0.0
C694 C 0.46971 0.50659 0.42737 0.0
C695 C 0.37057 0.5487 0.43282 0.0
C696 C 0.34667 0.51101 0.41345 0.0
H697 H 0.44584 0.57739 0.4544 0.0
H698 H 0.34277 0.58 0.44316 0.0
S699 S 0.43091 0.40014 0.37411 0.0
N700 N 0.48026 0.42985 0.39397 0.0
N701 N 0.3685 0.43355 0.38117 0.0
C702 C 0.38573 0.47157 0.40055 0.0
C703 C 0.44681 0.46936 0.40754 0.0
C704 C 0.97192 0.83828 0.92233 0.0
C705 C 0.02178 0.80272 0.92645 0.0
C706 C 0.97199 0.8987 0.9275 0.0
C707 C 0.02203 0.92676 0.93737 0.0
H708 H 0.93187 0.81901 0.91533 0.0
H709 H 0.93218 0.92342 0.92396 0.0
S710 S 0.16553 0.85434 0.9507 0.0
N711 N 0.12322 0.80062 0.9405 0.0
N712 N 0.12411 0.91372 0.9504 0.0
C713 C 0.07249 0.89166 0.94171 0.0
C714 C 0.07219 0.82994 0.93632 0.0
C715 C 0.63214 0.07174 0.43277 0.0
C716 C 0.6595 0.02422 0.41978 0.0
C717 C 0.57114 0.07357 0.43681 0.0
C718 C 0.5344 0.02771 0.42838 0.0
H719 H 0.65788 0.10833 0.43962 0.0
H720 H 0.55252 0.11187 0.44644 0.0
S721 S 0.58339 0.89239 0.39383 0.0
N722 N 0.64417 0.92917 0.39883 0.0
N723 N 0.53035 0.93302 0.40666 0.0
C724 C 0.56114 0.97935 0.41592 0.0
C725 C 0.62326 0.97758 0.41154 0.0
C726 C 0.52989 0.60955 0.92253 0.0
C727 C 0.48775 0.58498 0.93958 0.0
C728 C 0.52851 0.66922 0.91589 0.0
C729 C 0.48513 0.70778 0.92604 0.0
H730 H 0.5645 0.58254 0.91417 0.0
H731 H 0.56258 0.68524 0.90282 0.0
S732 S 0.36182 0.66554 0.97006 0.0
N733 N 0.39915 0.60432 0.96555 0.0
N734 N 0.39712 0.71584 0.95302 0.0
C735 C 0.4421 0.68379 0.94274 0.0
C736 C 0.44327 0.62279 0.94949 0.0
C737 C 0.89034 0.51774 0.40944 0.0
C738 C 0.84906 0.49937 0.42868 0.0
C739 C 0.94911 0.52887 0.41628 0.0
C740 C 0.96951 0.52326 0.44288 0.0
H741 H 0.87688 0.52425 0.3888 0.0
H742 H 0.97867 0.54223 0.40051 0.0
S743 S 0.8783 0.48021 0.50143 0.0
N744 N 0.83274 0.4784 0.47576 0.0
N745 N 0.94206 0.49935 0.48884 0.0
C746 C 0.92845 0.50523 0.4624 0.0
C747 C 0.86874 0.49327 0.45529 0.0
C748 C 0.97998 0.61072 0.20663 0.0
C749 C 0.01852 0.64953 0.19373 0.0
C750 C 0.97176 0.55317 0.19731 0.0
C751 C 1.00098 0.53176 0.17435 0.0
H752 H 0.955 0.6251 0.22394 0.0
H753 H 0.94137 0.52561 0.20795 0.0
S754 S 0.11422 0.61202 0.13594 0.0
N755 N 0.09111 0.65971 0.15857 0.0
N756 N 0.07548 0.55259 0.14083 0.0
C757 C 0.04124 0.56949 0.16182 0.0
C758 C 0.04989 0.62797 0.17147 0.0
C759 C 0.84638 0.13055 0.66285 0.0
C760 C 0.8082 0.08917 0.67391 0.0
C761 C 0.90737 0.12212 0.66274 0.0
C762 C 0.93411 0.07165 0.67356 0.0
H763 H 0.82914 0.17005 0.65386 0.0
H764 H 0.93381 0.15584 0.65377 0.0
S765 S 0.85512 0.95011 0.70609 0.0
N766 N 0.80259 0.99585 0.697 0.0
N767 N 0.91708 0.97986 0.69628 0.0
C768 C 0.89679 0.02969 0.68479 0.0
C769 C 0.83419 0.03851 0.68514 0.0
C770 C 0.48237 0.87736 0.17876 0.0
C771 C 0.53317 0.84988 0.18867 0.0
C772 C 0.47895 0.93839 0.17567 0.0
C773 C 0.52638 0.97521 0.18196 0.0
H774 H 0.44438 0.85166 0.17371 0.0
H775 H 0.43818 0.95694 0.16846 0.0
S776 S 0.67083 0.92578 0.20738 0.0
N777 N 0.63328 0.86502 0.20394 0.0
N778 N 0.6265 0.979 0.19784 0.0
C779 C 0.57805 0.94835 0.19114 0.0
C780 C 0.58146 0.88611 0.19459 0.0
C781 C 0.62536 0.48732 0.65355 0.0
C782 C 0.5844 0.51268 0.67145 0.0
C783 C 0.68386 0.47641 0.66109 0.0
C784 C 0.70474 0.49062 0.68689 0.0
H785 H 0.61214 0.47529 0.6334 0.0
H786 H 0.71262 0.45645 0.64648 0.0
S787 S 0.61409 0.55323 0.74238 0.0
N788 N 0.56855 0.5488 0.71678 0.0
N789 N 0.67746 0.52846 0.73107 0.0
C790 C 0.66374 0.51491 0.70523 0.0
C791 C 0.60417 0.52612 0.69748 0.0
C792 C 0.0953 0.40698 0.32617 0.0
C793 C 0.0981 0.46825 0.32637 0.0
C794 C 0.07176 0.37666 0.30414 0.0
C795 C 0.05027 0.40636 0.28141 0.0
H796 H 0.11224 0.38227 0.34299 0.0
H797 H 0.0708 0.32948 0.30476 0.0
S798 S 0.04125 0.5668 0.27311 0.0
N799 N 0.07284 0.55764 0.30263 0.0
N800 N 0.02941 0.50057 0.26132 0.0
C801 C 0.0518 0.46758 0.28153 0.0
C802 C 0.07545 0.49851 0.30398 0.0
C803 C 0.09365 0.00827 0.80349 0.0
C804 C 0.0588 1.00057 0.78038 0.0
C805 C 0.07045 0.03249 0.82725 0.0
C806 C 0.01156 0.05031 0.82885 0.0
H807 H 0.13984 0.99769 0.80289 0.0
H808 H 0.09938 0.03964 0.84414 0.0
S809 S 0.89952 0.03116 0.77567 0.0
N810 N 0.96062 1.00654 0.76187 0.0
N811 N 0.91736 0.05256 0.80628 0.0
C812 C 0.97556 0.04022 0.80639 0.0
C813 C 0.99906 0.01529 0.78225 0.0
C814 C 0.39723 0.07687 0.30373 0.0
C815 C 0.42381 0.0595 0.32786 0.0
C816 C 0.43025 0.10044 0.28266 0.0
C817 C 0.49144 0.10637 0.28467 0.0
H818 H 0.35049 0.07205 0.30121 0.0
H819 H 0.4075 0.11419 0.26468 0.0
S820 S 0.58196 0.06106 0.34333 0.0
N821 N 0.51418 0.0471 0.35252 0.0
N822 N 0.57724 0.08853 0.31276 0.0
C823 C 0.5185 0.08796 0.30879 0.0
C824 C 0.48446 0.06518 0.33039 0.0
C825 C 0.47674 0.42323 0.80872 0.0
C826 C 0.48885 0.45639 0.83191 0.0
C827 C 0.45303 0.44889 0.7856 0.0
C828 C 0.43987 0.50884 0.78465 0.0
H829 H 0.48503 0.37668 0.8085 0.0
H830 H 0.44411 0.42136 0.76839 0.0
S831 S 0.46653 0.61638 0.83902 0.0
N832 N 0.48845 0.55352 0.85182 0.0
N833 N 0.44271 0.60141 0.80845 0.0
C834 C 0.45174 0.54282 0.80756 0.0
C835 C 0.47646 0.51672 0.83115 0.0
C836 C 0.96389 0.5321 0.82556 0.0
C837 C 0.01852 0.55978 0.82508 0.0
C838 C 0.9386 0.50975 0.80209 0.0
C839 C 0.96663 0.51399 0.77697 0.0
H840 H 0.93957 0.52906 0.84415 0.0
H841 H 0.89596 0.48992 0.80359 0.0
S842 S 0.11246 0.57869 0.76492 0.0
N843 N 0.10152 0.5874 0.79749 0.0
N844 N 0.05349 0.54611 0.7533 0.0
C845 C 0.02162 0.54103 0.77616 0.0
C846 C 0.04767 0.56362 0.8002 0.0
C847 C 0.94855 0.89297 0.30817 0.0
C848 C 0.95177 0.91508 0.28188 0.0
C849 C 0.92221 0.92516 0.32903 0.0
C850 C 0.89815 0.98099 0.32451 0.0
H851 H 0.96657 0.85026 0.31262 0.0
H852 H 0.92015 0.90592 0.34883 0.0
S853 S 0.90031 0.06105 0.25978 0.0
N854 N 0.93169 0.99766 0.25279 0.0
N855 N 0.88243 0.05836 0.2919 0.0
C856 C 0.90161 1.00395 0.29833 0.0
C857 C 0.92832 0.97098 0.27705 0.0
C858 C 0.47712 0.95343 0.80245 0.0
C859 C 0.50852 0.94532 0.82654 0.0
C860 C 0.5051 0.97268 0.77884 0.0
C861 C 0.5656 0.98384 0.77846 0.0
H862 H 0.43049 0.94575 0.80203 0.0
H863 H 0.47907 0.98027 0.761 0.0
S864 S 0.66887 0.95982 0.83496 0.0
N865 N 0.6042 0.94408 0.84757 0.0
N866 N 0.65667 0.97891 0.80351 0.0
C867 C 0.59764 0.97324 0.80211 0.0
C868 C 0.56919 0.95436 0.82605 0.0
C869 C 0.53746 0.57454 0.30051 0.0
C870 C 0.57221 0.59202 0.27866 0.0
C871 C 0.56177 0.54486 0.3226 0.0
C872 C 0.62208 0.53194 0.32393 0.0
H873 H 0.49101 0.58405 0.30052 0.0
H874 H 0.53298 0.53207 0.33875 0.0
S875 S 0.73233 0.57177 0.2723 0.0
N876 N 0.66967 0.59542 0.2598 0.0
N877 N 0.71616 0.54164 0.30142 0.0
C878 C 0.65723 0.54932 0.30205 0.0
C879 C 0.63213 0.57879 0.27942 0.0
C880 C 0.32539 0.31933 0.15562 0.0
C881 C 0.33616 0.26526 0.14295 0.0
C882 C 0.2712 0.34695 0.15349 0.0
C883 C 0.22696 0.32325 0.13727 0.0
H884 H 0.35681 0.33768 0.1695 0.0
H885 H 0.26298 0.38314 0.16696 0.0
S886 S 0.24642 0.20297 0.08786 0.0
N887 N 0.30575 0.20041 0.10667 0.0
N888 N 0.20831 0.25961 0.09886 0.0
C889 C 0.24345 0.27878 0.11901 0.0
C890 C 0.29702 0.24765 0.12275 0.0
C891 C 0.36359 0.23919 0.68161 0.0
C892 C 0.35345 0.29186 0.69501 0.0
C893 C 0.32273 0.19457 0.6833 0.0
C894 C 0.26918 0.20321 0.69703 0.0
H895 H 0.39999 0.23463 0.66781 0.0
H896 H 0.33067 0.15535 0.6716 0.0
S897 S 0.23405 0.32751 0.74241 0.0
N898 N 0.29698 0.34467 0.72845 0.0
N899 N 0.21648 0.26344 0.72973 0.0
C900 C 0.26348 0.2525 0.71377 0.0
C901 C 0.30671 0.29648 0.71305 0.0
C902 C 0.23488 0.23382 0.92517 0.0
C903 C 0.212 0.21117 0.94913 0.0
C904 C 0.27891 0.27567 0.92573 0.0
C905 C 0.30066 0.29685 0.95026 0.0
H906 H 0.21762 0.22032 0.90588 0.0
H907 H 0.2968 0.29064 0.90684 0.0
S908 S 0.25494 0.25185 1.01853 0.0
N909 N 0.21613 0.21093 0.998 0.0
N910 N 0.29471 0.29388 0.99903 0.0
C911 C 0.27749 0.27517 0.97433 0.0
C912 C 0.23447 0.23104 0.97377 0.0
C913 C 0.19836 0.27818 0.49389 0.0
C914 C 0.15384 0.29099 0.47512 0.0
C915 C 0.23178 0.22722 0.4911 0.0
C916 C 0.21715 0.18612 0.47132 0.0
H917 H 0.21484 0.31217 0.50697 0.0
H918 H 0.27271 0.22414 0.50194 0.0
S919 S 0.07938 0.18185 0.43232 0.0
N920 N 0.08066 0.2477 0.44574 0.0
N921 N 0.13851 0.14809 0.44353 0.0
C922 C 0.16162 0.19052 0.45932 0.0
C923 C 0.13007 0.24399 0.46078 0.0
C924 C 0.73852 0.67219 0.92338 0.0
C925 C 0.7924 0.68836 0.91272 0.0
C926 C 0.69273 0.71261 0.92472 0.0
C927 C 0.70047 0.771 0.9165 0.0
H928 H 0.73328 0.62986 0.93266 0.0
H929 H 0.65227 0.69883 0.93393 0.0
S930 S 0.83081 0.82884 0.88128 0.0
N931 N 0.84812 0.76062 0.88851 0.0
N932 N 0.76417 0.83909 0.89314 0.0
C933 C 0.75257 0.78533 0.90311 0.0
C934 C 0.79818 0.74322 0.90079 0.0
C935 C 0.7597 0.73327 0.4735 0.0
C936 C 0.74607 0.7063 0.44897 0.0
C937 C 0.79539 0.78205 0.47421 0.0
C938 C 0.81751 0.80582 0.45036 0.0
H939 H 0.74146 0.71746 0.49217 0.0
H940 H 0.8027 0.80357 0.49332 0.0
S941 S 0.80085 0.74611 0.38145 0.0
N942 N 0.76349 0.70153 0.40078 0.0
N943 N 0.82763 0.79609 0.40183 0.0
C944 C 0.80715 0.77709 0.42588 0.0
C945 C 0.77162 0.72683 0.42523 0.0
C946 C 0.79652 0.74217 0.11133 0.0
C947 C 0.83701 0.72443 0.13087 0.0
C948 C 0.74843 0.70699 0.10554 0.0
C949 C 0.73619 0.65844 0.12203 0.0
H950 H 0.79827 0.7853 0.10261 0.0
H951 H 0.71594 0.72392 0.09176 0.0
S952 S 0.85123 0.57522 0.15846 0.0
N953 N 0.87987 0.64001 0.15317 0.0
N954 N 0.78565 0.57743 0.14469 0.0
C955 C 0.78479 0.63247 0.13477 0.0
C956 C 0.83575 0.66604 0.13924 0.0
C957 C 0.721 0.77665 0.62968 0.0
C958 C 0.67969 0.78844 0.65004 0.0
C959 C 0.75917 0.729 0.63148 0.0
C960 C 0.75544 0.68979 0.65302 0.0
H961 H 0.72817 0.80797 0.61379 0.0
H962 H 0.79441 0.72591 0.61703 0.0
S963 S 0.63966 0.68873 0.70536 0.0
N964 N 0.62824 0.74992 0.68876 0.0
N965 N 0.69554 0.65628 0.69035 0.0
C966 C 0.70738 0.69536 0.67066 0.0
C967 C 0.67012 0.74544 0.66949 0.0
loop_
_geom_bond_atom_site_label_1
_geom_bond_atom_site_label_2
_geom_bond_distance
_geom_bond_site_symmetry_2
_ccdc_geom_bond_type
C0 C1 1.351 . S
C0 N3 1.368 1_455 S
C0 H5 0.931 . S
C1 C0 1.351 . S
C1 N2 1.373 1_455 S
C1 H29 0.930 . S
N2 C1 1.373 1_655 S
N2 C4 1.340 . S
N3 C0 1.368 1_655 S
N3 C4 1.321 . S
N3 Co6 2.135 . S
C4 N2 1.340 . S
C4 N3 1.321 . S
C4 H28 0.930 . S
H5 C0 0.931 . S
Co6 N3 2.135 . S
Co6 N9 2.121 1_655 S
Co6 O14 2.055 . S
Co6 O17 2.039 . S
Co6 N20 2.140 1_655 S
C7 O8 1.227 1_655 S
C7 O17 1.265 . S
O8 C7 1.227 1_455 S
N9 Co6 2.121 1_455 S
N9 C11 1.375 . S
N9 C12 1.313 . S
C10 C11 1.338 . S
C10 N13 1.377 . S
C10 H30 0.930 . S
C11 N9 1.375 . S
C11 C10 1.338 . S
C11 H15 0.931 . S
C12 N9 1.313 . S
C12 N13 1.344 . S
C12 H16 0.930 1_455 S
N13 C10 1.377 . S
N13 C12 1.344 . S
O14 Co6 2.055 . S
O14 C18 1.253 . S
H15 C11 0.931 . S
H16 C12 0.930 1_655 S
O17 Co6 2.039 . S
O17 C7 1.265 . S
C18 O14 1.253 . S
C18 O19 1.227 1_655 S
O19 C18 1.227 1_455 S
N20 Co6 2.140 1_455 S
N20 C23 1.346 . S
N20 C24 1.345 . S
C21 C22 1.387 . S
C21 C25 1.391 . S
C22 C21 1.387 . S
C22 C23 1.369 . S
C22 H31 0.929 . S
C23 N20 1.346 . S
C23 C22 1.369 . S
C23 H26 0.928 . S
C24 N20 1.345 . S
C24 C25 1.371 . S
C24 H27 0.931 . S
C25 C21 1.391 . S
C25 C24 1.371 . S
C25 H32 0.930 . S
H26 C23 0.928 . S
H27 C24 0.931 . S
H28 C4 0.930 . S
H29 C1 0.930 . S
H30 C10 0.930 . S
H31 C22 0.929 . S
H32 C25 0.930 . S
C33 C34 1.351 . S
C33 N36 1.368 1_545 S
C33 H38 0.931 . S
C34 C33 1.351 . S
C34 N35 1.373 1_545 S
C34 H62 0.930 . S
N35 C34 1.373 1_565 S
N35 C37 1.340 . S
N36 C33 1.368 1_565 S
N36 C37 1.321 . S
N36 Co39 2.135 . S
C37 N35 1.340 . S
C37 N36 1.321 . S
C37 H61 0.930 . S
H38 C33 0.931 . S
Co39 N36 2.135 . S
Co39 N42 2.121 1_565 S
Co39 O47 2.055 . S
Co39 O50 2.039 . S
Co39 N53 2.140 1_565 S
C40 O41 1.227 1_565 S
C40 O50 1.265 . S
O41 C40 1.227 1_545 S
N42 Co39 2.121 1_545 S
N42 C44 1.375 . S
N42 C45 1.313 . S
C43 C44 1.338 . S
C43 N46 1.377 . S
C43 H63 0.930 . S
C44 N42 1.375 . S
C44 C43 1.338 . S
C44 H48 0.931 . S
C45 N42 1.313 . S
C45 N46 1.344 . S
C45 H49 0.930 1_545 S
N46 C43 1.377 . S
N46 C45 1.344 . S
O47 Co39 2.055 . S
O47 C51 1.253 . S
H48 C44 0.931 . S
H49 C45 0.930 1_565 S
O50 Co39 2.039 . S
O50 C40 1.265 . S
C51 O47 1.253 . S
C51 O52 1.227 1_565 S
O52 C51 1.227 1_545 S
N53 Co39 2.140 1_545 S
N53 C56 1.346 . S
N53 C57 1.345 . S
C54 C55 1.387 . S
C54 C58 1.391 . S
C55 C54 1.387 . S
C55 C56 1.369 . S
C55 H64 0.929 . S
C56 N53 1.346 . S
C56 C55 1.369 . S
C56 H59 0.928 . S
C57 N53 1.345 . S
C57 C58 1.371 . S
C57 H60 0.931 . S
C58 C54 1.391 . S
C58 C57 1.371 . S
C58 H65 0.930 . S
H59 C56 0.928 . S
H60 C57 0.931 . S
H61 C37 0.930 . S
H62 C34 0.930 . S
H63 C43 0.930 . S
H64 C55 0.929 . S
H65 C58 0.930 . S
C66 C67 1.351 . S
C66 N69 1.368 . S
C66 H71 0.931 . S
C67 C66 1.351 . S
C67 N68 1.373 . S
C67 H95 0.930 . S
N68 C67 1.373 . S
N68 C70 1.340 . S
N69 C66 1.368 . S
N69 C70 1.321 . S
N69 Co72 2.135 . S
C70 N68 1.340 . S
C70 N69 1.321 . S
C70 H94 0.930 . S
H71 C66 0.931 . S
Co72 N69 2.135 . S
Co72 N75 2.121 . S
Co72 O80 2.055 . S
Co72 O83 2.039 . S
Co72 N86 2.140 . S
C73 O74 1.227 . S
C73 O83 1.265 . S
O74 C73 1.227 . S
N75 Co72 2.121 . S
N75 C77 1.375 . S
N75 C78 1.313 . S
C76 C77 1.338 . S
C76 N79 1.377 . S
C76 H96 0.930 . S
C77 N75 1.375 . S
C77 C76 1.338 . S
C77 H81 0.931 . S
C78 N75 1.313 . S
C78 N79 1.344 . S
C78 H82 0.930 . S
N79 C76 1.377 . S
N79 C78 1.344 . S
O80 Co72 2.055 . S
O80 C84 1.253 . S
H81 C77 0.931 . S
H82 C78 0.930 . S
O83 Co72 2.039 . S
O83 C73 1.265 . S
C84 O80 1.253 . S
C84 O85 1.227 . S
O85 C84 1.227 . S
N86 Co72 2.140 . S
N86 C89 1.346 . S
N86 C90 1.345 . S
C87 C88 1.387 . S
C87 C91 1.391 . S
C88 C87 1.387 . S
C88 C89 1.369 . S
C88 H97 0.929 . S
C89 N86 1.346 . S
C89 C88 1.369 . S
C89 H92 0.928 . S
C90 N86 1.345 . S
C90 C91 1.371 . S
C90 H93 0.931 . S
C91 C87 1.391 . S
C91 C90 1.371 . S
C91 H98 0.930 . S
H92 C89 0.928 . S
H93 C90 0.931 . S
H94 C70 0.930 . S
H95 C67 0.930 . S
H96 C76 0.930 . S
H97 C88 0.929 . S
H98 C91 0.930 . S
C99 C100 1.351 . S
C99 N102 1.368 . S
C99 H104 0.931 . S
C100 C99 1.351 . S
C100 N101 1.373 . S
C100 H128 0.930 . S
N101 C100 1.373 . S
N101 C103 1.340 . S
N102 C99 1.368 . S
N102 C103 1.321 . S
N102 Co105 2.135 . S
C103 N101 1.340 . S
C103 N102 1.321 . S
C103 H127 0.930 . S
H104 C99 0.931 . S
Co105 N102 2.135 . S
Co105 N108 2.121 . S
Co105 O113 2.055 . S
Co105 O116 2.039 . S
Co105 N119 2.140 . S
C106 O107 1.227 . S
C106 O116 1.265 . S
O107 C106 1.227 . S
N108 Co105 2.121 . S
N108 C110 1.375 . S
N108 C111 1.313 . S
C109 C110 1.338 . S
C109 N112 1.377 . S
C109 H129 0.930 . S
C110 N108 1.375 . S
C110 C109 1.338 . S
C110 H114 0.931 . S
C111 N108 1.313 . S
C111 N112 1.344 . S
C111 H115 0.930 . S
N112 C109 1.377 . S
N112 C111 1.344 . S
O113 Co105 2.055 . S
O113 C117 1.253 . S
H114 C110 0.931 . S
H115 C111 0.930 . S
O116 Co105 2.039 . S
O116 C106 1.265 . S
C117 O113 1.253 . S
C117 O118 1.227 . S
O118 C117 1.227 . S
N119 Co105 2.140 . S
N119 C122 1.346 . S
N119 C123 1.345 . S
C120 C121 1.387 . S
C120 C124 1.391 . S
C121 C120 1.387 . S
C121 C122 1.369 . S
C121 H130 0.929 . S
C122 N119 1.346 . S
C122 C121 1.369 . S
C122 H125 0.928 . S
C123 N119 1.345 . S
C123 C124 1.371 . S
C123 H126 0.931 . S
C124 C120 1.391 . S
C124 C123 1.371 . S
C124 H131 0.930 . S
H125 C122 0.928 . S
H126 C123 0.931 . S
H127 C103 0.930 . S
H128 C100 0.930 . S
H129 C109 0.930 . S
H130 C121 0.929 . S
H131 C124 0.930 . S
C132 C133 1.351 . S
C132 N135 1.368 1_455 S
C132 H137 0.931 . S
C133 C132 1.351 . S
C133 N134 1.373 1_455 S
C133 H161 0.930 . S
N134 C133 1.373 1_655 S
N134 C136 1.340 . S
N135 C132 1.368 1_655 S
N135 C136 1.321 . S
N135 Co138 2.135 . S
C136 N134 1.340 . S
C136 N135 1.321 . S
C136 H160 0.930 . S
H137 C132 0.931 . S
Co138 N135 2.135 . S
Co138 N141 2.121 1_655 S
Co138 O146 2.055 . S
Co138 O149 2.039 . S
Co138 N152 2.140 1_655 S
C139 O140 1.227 1_655 S
C139 O149 1.265 . S
O140 C139 1.227 1_455 S
N141 Co138 2.121 1_455 S
N141 C143 1.375 . S
N141 C144 1.313 . S
C142 C143 1.338 . S
C142 N145 1.377 . S
C142 H162 0.930 . S
C143 N141 1.375 . S
C143 C142 1.338 . S
C143 H147 0.931 . S
C144 N141 1.313 . S
C144 N145 1.344 . S
C144 H148 0.930 1_455 S
N145 C142 1.377 . S
N145 C144 1.344 . S
O146 Co138 2.055 . S
O146 C150 1.253 . S
H147 C143 0.931 . S
H148 C144 0.930 1_655 S
O149 Co138 2.039 . S
O149 C139 1.265 . S
C150 O146 1.253 . S
C150 O151 1.227 1_655 S
O151 C150 1.227 1_455 S
N152 Co138 2.140 1_455 S
N152 C155 1.346 . S
N152 C156 1.345 . S
C153 C154 1.387 . S
C153 C157 1.391 . S
C154 C153 1.387 . S
C154 C155 1.369 . S
C154 H163 0.929 . S
C155 N152 1.346 . S
C155 C154 1.369 . S
C155 H158 0.928 . S
C156 N152 1.345 . S
C156 C157 1.371 . S
C156 H159 0.931 . S
C157 C153 1.391 . S
C157 C156 1.371 . S
C157 H164 0.930 . S
H158 C155 0.928 . S
H159 C156 0.931 . S
H160 C136 0.930 . S
H161 C133 0.930 . S
H162 C142 0.930 . S
H163 C154 0.929 . S
H164 C157 0.930 . S
C165 C166 1.351 . S
C165 N168 1.368 1_545 S
C165 H170 0.931 . S
C166 C165 1.351 . S
C166 N167 1.373 1_545 S
C166 H194 0.930 . S
N167 C166 1.373 1_565 S
N167 C169 1.340 . S
N168 C165 1.368 1_565 S
N168 C169 1.321 . S
N168 Co171 2.135 . S
C169 N167 1.340 . S
C169 N168 1.321 . S
C169 H193 0.930 . S
H170 C165 0.931 . S
Co171 N168 2.135 . S
Co171 N174 2.121 1_565 S
Co171 O179 2.055 . S
Co171 O182 2.039 . S
Co171 N185 2.140 1_565 S
C172 O173 1.227 1_565 S
C172 O182 1.265 . S
O173 C172 1.227 1_545 S
N174 Co171 2.121 1_545 S
N174 C176 1.375 . S
N174 C177 1.313 . S
C175 C176 1.338 . S
C175 N178 1.377 . S
C175 H195 0.930 . S
C176 N174 1.375 . S
C176 C175 1.338 . S
C176 H180 0.931 . S
C177 N174 1.313 . S
C177 N178 1.344 . S
C177 H181 0.930 1_545 S
N178 C175 1.377 . S
N178 C177 1.344 . S
O179 Co171 2.055 . S
O179 C183 1.253 . S
H180 C176 0.931 . S
H181 C177 0.930 1_565 S
O182 Co171 2.039 . S
O182 C172 1.265 . S
C183 O179 1.253 . S
C183 O184 1.227 1_565 S
O184 C183 1.227 1_545 S
N185 Co171 2.140 1_545 S
N185 C188 1.346 . S
N185 C189 1.345 . S
C186 C187 1.387 . S
C186 C190 1.391 . S
C187 C186 1.387 . S
C187 C188 1.369 . S
C187 H196 0.929 . S
C188 N185 1.346 . S
C188 C187 1.369 . S
C188 H191 0.928 . S
C189 N185 1.345 . S
C189 C190 1.371 . S
C189 H192 0.931 . S
C190 C186 1.391 . S
C190 C189 1.371 . S
C190 H197 0.930 . S
H191 C188 0.928 . S
H192 C189 0.931 . S
H193 C169 0.930 . S
H194 C166 0.930 . S
H195 C175 0.930 . S
H196 C187 0.929 . S
H197 C190 0.930 . S
C198 C199 1.351 . S
C198 N201 1.368 . S
C198 H203 0.931 . S
C199 C198 1.351 . S
C199 N200 1.373 . S
C199 H227 0.930 . S
N200 C199 1.373 . S
N200 C202 1.340 . S
N201 C198 1.368 . S
N201 C202 1.321 . S
N201 Co204 2.135 . S
C202 N200 1.340 . S
C202 N201 1.321 . S
C202 H226 0.930 . S
H203 C198 0.931 . S
Co204 N201 2.135 . S
Co204 N207 2.121 . S
Co204 O212 2.055 . S
Co204 O215 2.039 . S
Co204 N218 2.140 . S
C205 O206 1.227 . S
C205 O215 1.265 . S
O206 C205 1.227 . S
N207 Co204 2.121 . S
N207 C209 1.375 . S
N207 C210 1.313 . S
C208 C209 1.338 . S
C208 N211 1.377 . S
C208 H228 0.930 . S
C209 N207 1.375 . S
C209 C208 1.338 . S
C209 H213 0.931 . S
C210 N207 1.313 . S
C210 N211 1.344 . S
C210 H214 0.930 . S
N211 C208 1.377 . S
N211 C210 1.344 . S
O212 Co204 2.055 . S
O212 C216 1.253 . S
H213 C209 0.931 . S
H214 C210 0.930 . S
O215 Co204 2.039 . S
O215 C205 1.265 . S
C216 O212 1.253 . S
C216 O217 1.227 . S
O217 C216 1.227 . S
N218 Co204 2.140 . S
N218 C221 1.346 . S
N218 C222 1.345 . S
C219 C220 1.387 . S
C219 C223 1.391 . S
C220 C219 1.387 . S
C220 C221 1.369 . S
C220 H229 0.929 . S
C221 N218 1.346 . S
C221 C220 1.369 . S
C221 H224 0.928 . S
C222 N218 1.345 . S
C222 C223 1.371 . S
C222 H225 0.931 . S
C223 C219 1.391 . S
C223 C222 1.371 . S
C223 H230 0.930 . S
H224 C221 0.928 . S
H225 C222 0.931 . S
H226 C202 0.930 . S
H227 C199 0.930 . S
H228 C208 0.930 . S
H229 C220 0.929 . S
H230 C223 0.930 . S
C231 C232 1.351 . S
C231 N234 1.368 . S
C231 H236 0.931 . S
C232 C231 1.351 . S
C232 N233 1.373 . S
C232 H260 0.930 . S
N233 C232 1.373 . S
N233 C235 1.340 . S
N234 C231 1.368 . S
N234 C235 1.321 . S
N234 Co237 2.135 . S
C235 N233 1.340 . S
C235 N234 1.321 . S
C235 H259 0.930 . S
H236 C231 0.931 . S
Co237 N234 2.135 . S
Co237 N240 2.121 . S
Co237 O245 2.055 . S
Co237 O248 2.039 . S
Co237 N251 2.140 . S
C238 O239 1.227 . S
C238 O248 1.265 . S
O239 C238 1.227 . S
N240 Co237 2.121 . S
N240 C242 1.375 . S
N240 C243 1.313 . S
C241 C242 1.338 . S
C241 N244 1.377 . S
C241 H261 0.930 . S
C242 N240 1.375 . S
C242 C241 1.338 . S
C242 H246 0.931 . S
C243 N240 1.313 . S
C243 N244 1.344 . S
C243 H247 0.930 . S
N244 C241 1.377 . S
N244 C243 1.344 . S
O245 Co237 2.055 . S
O245 C249 1.253 . S
H246 C242 0.931 . S
H247 C243 0.930 . S
O248 Co237 2.039 . S
O248 C238 1.265 . S
C249 O245 1.253 . S
C249 O250 1.227 . S
O250 C249 1.227 . S
N251 Co237 2.140 . S
N251 C254 1.346 . S
N251 C255 1.345 . S
C252 C253 1.387 . S
C252 C256 1.391 . S
C253 C252 1.387 . S
C253 C254 1.369 . S
C253 H262 0.929 . S
C254 N251 1.346 . S
C254 C253 1.369 . S
C254 H257 0.928 . S
C255 N251 1.345 . S
C255 C256 1.371 . S
C255 H258 0.931 . S
C256 C252 1.391 . S
C256 C255 1.371 . S
C256 H263 0.930 . S
H257 C254 0.928 . S
H258 C255 0.931 . S
H259 C235 0.930 . S
H260 C232 0.930 . S
H261 C241 0.930 . S
H262 C253 0.929 . S
H263 C256 0.930 . S
C264 C265 1.351 . S
C264 N267 1.368 1_655 S
C264 H269 0.931 . S
C265 C264 1.351 . S
C265 N266 1.373 1_655 S
C265 H293 0.930 . S
N266 C265 1.373 1_455 S
N266 C268 1.340 . S
N267 C264 1.368 1_455 S
N267 C268 1.321 . S
N267 Co270 2.135 . S
C268 N266 1.340 . S
C268 N267 1.321 . S
C268 H292 0.930 . S
H269 C264 0.931 . S
Co270 N267 2.135 . S
Co270 N273 2.121 1_455 S
Co270 O278 2.055 . S
Co270 O281 2.039 . S
Co270 N284 2.140 1_455 S
C271 O272 1.227 1_455 S
C271 O281 1.265 . S
O272 C271 1.227 1_655 S
N273 Co270 2.121 1_655 S
N273 C275 1.375 . S
N273 C276 1.313 . S
C274 C275 1.338 . S
C274 N277 1.377 . S
C274 H294 0.930 . S
C275 N273 1.375 . S
C275 C274 1.338 . S
C275 H279 0.931 . S
C276 N273 1.313 . S
C276 N277 1.344 . S
C276 H280 0.930 1_655 S
N277 C274 1.377 . S
N277 C276 1.344 . S
O278 Co270 2.055 . S
O278 C282 1.253 . S
H279 C275 0.931 . S
H280 C276 0.930 1_455 S
O281 Co270 2.039 . S
O281 C271 1.265 . S
C282 O278 1.253 . S
C282 O283 1.227 1_455 S
O283 C282 1.227 1_655 S
N284 Co270 2.140 1_655 S
N284 C287 1.346 . S
N284 C288 1.345 . S
C285 C286 1.387 . S
C285 C289 1.391 . S
C286 C285 1.387 . S
C286 C287 1.369 . S
C286 H295 0.929 . S
C287 N284 1.346 . S
C287 C286 1.369 . S
C287 H290 0.928 . S
C288 N284 1.345 . S
C288 C289 1.371 . S
C288 H291 0.931 . S
C289 C285 1.391 . S
C289 C288 1.371 . S
C289 H296 0.930 . S
H290 C287 0.928 . S
H291 C288 0.931 . S
H292 C268 0.930 . S
H293 C265 0.930 . S
H294 C274 0.930 . S
H295 C286 0.929 . S
H296 C289 0.930 . S
C297 C298 1.351 . S
C297 N300 1.368 1_565 S
C297 H302 0.931 . S
C298 C297 1.351 . S
C298 N299 1.373 1_565 S
C298 H326 0.930 . S
N299 C298 1.373 1_545 S
N299 C301 1.340 . S
N300 C297 1.368 1_545 S
N300 C301 1.321 . S
N300 Co303 2.135 . S
C301 N299 1.340 . S
C301 N300 1.321 . S
C301 H325 0.930 . S
H302 C297 0.931 . S
Co303 N300 2.135 . S
Co303 N306 2.121 1_545 S
Co303 O311 2.055 . S
Co303 O314 2.039 . S
Co303 N317 2.140 1_545 S
C304 O305 1.227 1_545 S
C304 O314 1.265 . S
O305 C304 1.227 1_565 S
N306 Co303 2.121 1_565 S
N306 C308 1.375 . S
N306 C309 1.313 . S
C307 C308 1.338 . S
C307 N310 1.377 . S
C307 H327 0.930 . S
C308 N306 1.375 . S
C308 C307 1.338 . S
C308 H312 0.931 . S
C309 N306 1.313 . S
C309 N310 1.344 . S
C309 H313 0.930 1_565 S
N310 C307 1.377 . S
N310 C309 1.344 . S
O311 Co303 2.055 . S
O311 C315 1.253 . S
H312 C308 0.931 . S
H313 C309 0.930 1_545 S
O314 Co303 2.039 . S
O314 C304 1.265 . S
C315 O311 1.253 . S
C315 O316 1.227 1_545 S
O316 C315 1.227 1_565 S
N317 Co303 2.140 1_565 S
N317 C320 1.346 . S
N317 C321 1.345 . S
C318 C319 1.387 . S
C318 C322 1.391 . S
C319 C318 1.387 . S
C319 C320 1.369 . S
C319 H328 0.929 . S
C320 N317 1.346 . S
C320 C319 1.369 . S
C320 H323 0.928 . S
C321 N317 1.345 . S
C321 C322 1.371 . S
C321 H324 0.931 . S
C322 C318 1.391 . S
C322 C321 1.371 . S
C322 H329 0.930 . S
H323 C320 0.928 . S
H324 C321 0.931 . S
H325 C301 0.930 . S
H326 C298 0.930 . S
H327 C307 0.930 . S
H328 C319 0.929 . S
H329 C322 0.930 . S
C330 C331 1.351 . S
C330 N333 1.368 . S
C330 H335 0.931 . S
C331 C330 1.351 . S
C331 N332 1.373 . S
C331 H359 0.930 . S
N332 C331 1.373 . S
N332 C334 1.340 . S
N333 C330 1.368 . S
N333 C334 1.321 . S
N333 Co336 2.135 . S
C334 N332 1.340 . S
C334 N333 1.321 . S
C334 H358 0.930 . S
H335 C330 0.931 . S
Co336 N333 2.135 . S
Co336 N339 2.121 . S
Co336 O344 2.055 . S
Co336 O347 2.039 . S
Co336 N350 2.140 . S
C337 O338 1.227 . S
C337 O347 1.265 . S
O338 C337 1.227 . S
N339 Co336 2.121 . S
N339 C341 1.375 . S
N339 C342 1.313 . S
C340 C341 1.338 . S
C340 N343 1.377 . S
C340 H360 0.930 . S
C341 N339 1.375 . S
C341 C340 1.338 . S
C341 H345 0.931 . S
C342 N339 1.313 . S
C342 N343 1.344 . S
C342 H346 0.930 . S
N343 C340 1.377 . S
N343 C342 1.344 . S
O344 Co336 2.055 . S
O344 C348 1.253 . S
H345 C341 0.931 . S
H346 C342 0.930 . S
O347 Co336 2.039 . S
O347 C337 1.265 . S
C348 O344 1.253 . S
C348 O349 1.227 . S
O349 C348 1.227 . S
N350 Co336 2.140 . S
N350 C353 1.346 . S
N350 C354 1.345 . S
C351 C352 1.387 . S
C351 C355 1.391 . S
C352 C351 1.387 . S
C352 C353 1.369 . S
C352 H361 0.929 . S
C353 N350 1.346 . S
C353 C352 1.369 . S
C353 H356 0.928 . S
C354 N350 1.345 . S
C354 C355 1.371 . S
C354 H357 0.931 . S
C355 C351 1.391 . S
C355 C354 1.371 . S
C355 H362 0.930 . S
H356 C353 0.928 . S
H357 C354 0.931 . S
H358 C334 0.930 . S
H359 C331 0.930 . S
H360 C340 0.930 . S
H361 C352 0.929 . S
H362 C355 0.930 . S
C363 C364 1.351 . S
C363 N366 1.368 . S
C363 H368 0.931 . S
C364 C363 1.351 . S
C364 N365 1.373 . S
C364 H392 0.930 . S
N365 C364 1.373 . S
N365 C367 1.340 . S
N366 C363 1.368 . S
N366 C367 1.321 . S
N366 Co369 2.135 . S
C367 N365 1.340 . S
C367 N366 1.321 . S
C367 H391 0.930 . S
H368 C363 0.931 . S
Co369 N366 2.135 . S
Co369 N372 2.121 . S
Co369 O377 2.055 . S
Co369 O380 2.039 . S
Co369 N383 2.140 . S
C370 O371 1.227 . S
C370 O380 1.265 . S
O371 C370 1.227 . S
N372 Co369 2.121 . S
N372 C374 1.375 . S
N372 C375 1.313 . S
C373 C374 1.338 . S
C373 N376 1.377 . S
C373 H393 0.930 . S
C374 N372 1.375 . S
C374 C373 1.338 . S
C374 H378 0.931 . S
C375 N372 1.313 . S
C375 N376 1.344 . S
C375 H379 0.930 . S
N376 C373 1.377 . S
N376 C375 1.344 . S
O377 Co369 2.055 . S
O377 C381 1.253 . S
H378 C374 0.931 . S
H379 C375 0.930 . S
O380 Co369 2.039 . S
O380 C370 1.265 . S
C381 O377 1.253 . S
C381 O382 1.227 . S
O382 C381 1.227 . S
N383 Co369 2.140 . S
N383 C386 1.346 . S
N383 C387 1.345 . S
C384 C385 1.387 . S
C384 C388 1.391 . S
C385 C384 1.387 . S
C385 C386 1.369 . S
C385 H394 0.929 . S
C386 N383 1.346 . S
C386 C385 1.369 . S
C386 H389 0.928 . S
C387 N383 1.345 . S
C387 C388 1.371 . S
C387 H390 0.931 . S
C388 C384 1.391 . S
C388 C387 1.371 . S
C388 H395 0.930 . S
H389 C386 0.928 . S
H390 C387 0.931 . S
H391 C367 0.930 . S
H392 C364 0.930 . S
H393 C373 0.930 . S
H394 C385 0.929 . S
H395 C388 0.930 . S
C396 C397 1.351 . S
C396 N399 1.368 1_655 S
C396 H401 0.931 . S
C397 C396 1.351 . S
C397 N398 1.373 1_655 S
C397 H425 0.930 . S
N398 C397 1.373 1_455 S
N398 C400 1.340 . S
N399 C396 1.368 1_455 S
N399 C400 1.321 . S
N399 Co402 2.135 . S
C400 N398 1.340 . S
C400 N399 1.321 . S
C400 H424 0.930 . S
H401 C396 0.931 . S
Co402 N399 2.135 . S
Co402 N405 2.121 1_455 S
Co402 O410 2.055 . S
Co402 O413 2.039 . S
Co402 N416 2.140 1_455 S
C403 O404 1.227 1_455 S
C403 O413 1.265 . S
O404 C403 1.227 1_655 S
N405 Co402 2.121 1_655 S
N405 C407 1.375 . S
N405 C408 1.313 . S
C406 C407 1.338 . S
C406 N409 1.377 . S
C406 H426 0.930 . S
C407 N405 1.375 . S
C407 C406 1.338 . S
C407 H411 0.931 . S
C408 N405 1.313 . S
C408 N409 1.344 . S
C408 H412 0.930 1_655 S
N409 C406 1.377 . S
N409 C408 1.344 . S
O410 Co402 2.055 . S
O410 C414 1.253 . S
H411 C407 0.931 . S
H412 C408 0.930 1_455 S
O413 Co402 2.039 . S
O413 C403 1.265 . S
C414 O410 1.253 . S
C414 O415 1.227 1_455 S
O415 C414 1.227 1_655 S
N416 Co402 2.140 1_655 S
N416 C419 1.346 . S
N416 C420 1.345 . S
C417 C418 1.387 . S
C417 C421 1.391 . S
C418 C417 1.387 . S
C418 C419 1.369 . S
C418 H427 0.929 . S
C419 N416 1.346 . S
C419 C418 1.369 . S
C419 H422 0.928 . S
C420 N416 1.345 . S
C420 C421 1.371 . S
C420 H423 0.931 . S
C421 C417 1.391 . S
C421 C420 1.371 . S
C421 H428 0.930 . S
H422 C419 0.928 . S
H423 C420 0.931 . S
H424 C400 0.930 . S
H425 C397 0.930 . S
H426 C406 0.930 . S
H427 C418 0.929 . S
H428 C421 0.930 . S
C429 C430 1.351 . S
C429 N432 1.368 1_565 S
C429 H434 0.931 . S
C430 C429 1.351 . S
C430 N431 1.373 1_565 S
C430 H458 0.930 . S
N431 C430 1.373 1_545 S
N431 C433 1.340 . S
N432 C429 1.368 1_545 S
N432 C433 1.321 . S
N432 Co435 2.135 . S
C433 N431 1.340 . S
C433 N432 1.321 . S
C433 H457 0.930 . S
H434 C429 0.931 . S
Co435 N432 2.135 . S
Co435 N438 2.121 1_545 S
Co435 O443 2.055 . S
Co435 O446 2.039 . S
Co435 N449 2.140 1_545 S
C436 O437 1.227 1_545 S
C436 O446 1.265 . S
O437 C436 1.227 1_565 S
N438 Co435 2.121 1_565 S
N438 C440 1.375 . S
N438 C441 1.313 . S
C439 C440 1.338 . S
C439 N442 1.377 . S
C439 H459 0.930 . S
C440 N438 1.375 . S
C440 C439 1.338 . S
C440 H444 0.931 . S
C441 N438 1.313 . S
C441 N442 1.344 . S
C441 H445 0.930 1_565 S
N442 C439 1.377 . S
N442 C441 1.344 . S
O443 Co435 2.055 . S
O443 C447 1.253 . S
H444 C440 0.931 . S
H445 C441 0.930 1_545 S
O446 Co435 2.039 . S
O446 C436 1.265 . S
C447 O443 1.253 . S
C447 O448 1.227 1_545 S
O448 C447 1.227 1_565 S
N449 Co435 2.140 1_565 S
N449 C452 1.346 . S
N449 C453 1.345 . S
C450 C451 1.387 . S
C450 C454 1.391 . S
C451 C450 1.387 . S
C451 C452 1.369 . S
C451 H460 0.929 . S
C452 N449 1.346 . S
C452 C451 1.369 . S
C452 H455 0.928 . S
C453 N449 1.345 . S
C453 C454 1.371 . S
C453 H456 0.931 . S
C454 C450 1.391 . S
C454 C453 1.371 . S
C454 H461 0.930 . S
H455 C452 0.928 . S
H456 C453 0.931 . S
H457 C433 0.930 . S
H458 C430 0.930 . S
H459 C439 0.930 . S
H460 C451 0.929 . S
H461 C454 0.930 . S
C462 C463 1.351 . S
C462 N465 1.368 . S
C462 H467 0.931 . S
C463 C462 1.351 . S
C463 N464 1.373 . S
C463 H491 0.930 . S
N464 C463 1.373 . S
N464 C466 1.340 . S
N465 C462 1.368 . S
N465 C466 1.321 . S
N465 Co468 2.135 . S
C466 N464 1.340 . S
C466 N465 1.321 . S
C466 H490 0.930 . S
H467 C462 0.931 . S
Co468 N465 2.135 . S
Co468 N471 2.121 . S
Co468 O476 2.055 . S
Co468 O479 2.039 . S
Co468 N482 2.140 . S
C469 O470 1.227 . S
C469 O479 1.265 . S
O470 C469 1.227 . S
N471 Co468 2.121 . S
N471 C473 1.375 . S
N471 C474 1.313 . S
C472 C473 1.338 . S
C472 N475 1.377 . S
C472 H492 0.930 . S
C473 N471 1.375 . S
C473 C472 1.338 . S
C473 H477 0.931 . S
C474 N471 1.313 . S
C474 N475 1.344 . S
C474 H478 0.930 . S
N475 C472 1.377 . S
N475 C474 1.344 . S
O476 Co468 2.055 . S
O476 C480 1.253 . S
H477 C473 0.931 . S
H478 C474 0.930 . S
O479 Co468 2.039 . S
O479 C469 1.265 . S
C480 O476 1.253 . S
C480 O481 1.227 . S
O481 C480 1.227 . S
N482 Co468 2.140 . S
N482 C485 1.346 . S
N482 C486 1.345 . S
C483 C484 1.387 . S
C483 C487 1.391 . S
C484 C483 1.387 . S
C484 C485 1.369 . S
C484 H493 0.929 . S
C485 N482 1.346 . S
C485 C484 1.369 . S
C485 H488 0.928 . S
C486 N482 1.345 . S
C486 C487 1.371 . S
C486 H489 0.931 . S
C487 C483 1.391 . S
C487 C486 1.371 . S
C487 H494 0.930 . S
H488 C485 0.928 . S
H489 C486 0.931 . S
H490 C466 0.930 . S
H491 C463 0.930 . S
H492 C472 0.930 . S
H493 C484 0.929 . S
H494 C487 0.930 . S
C495 C496 1.351 . S
C495 N498 1.368 . S
C495 H500 0.931 . S
C496 C495 1.351 . S
C496 N497 1.373 . S
C496 H524 0.930 . S
N497 C496 1.373 . S
N497 C499 1.340 . S
N498 C495 1.368 . S
N498 C499 1.321 . S
N498 Co501 2.135 . S
C499 N497 1.340 . S
C499 N498 1.321 . S
C499 H523 0.930 . S
H500 C495 0.931 . S
Co501 N498 2.135 . S
Co501 N504 2.121 . S
Co501 O509 2.055 . S
Co501 O512 2.039 . S
Co501 N515 2.140 . S
C502 O503 1.227 . S
C502 O512 1.265 . S
O503 C502 1.227 . S
N504 Co501 2.121 . S
N504 C506 1.375 . S
N504 C507 1.313 . S
C505 C506 1.338 . S
C505 N508 1.377 . S
C505 H525 0.930 . S
C506 N504 1.375 . S
C506 C505 1.338 . S
C506 H510 0.931 . S
C507 N504 1.313 . S
C507 N508 1.344 . S
C507 H511 0.930 . S
N508 C505 1.377 . S
N508 C507 1.344 . S
O509 Co501 2.055 . S
O509 C513 1.253 . S
H510 C506 0.931 . S
H511 C507 0.930 . S
O512 Co501 2.039 . S
O512 C502 1.265 . S
C513 O509 1.253 . S
C513 O514 1.227 . S
O514 C513 1.227 . S
N515 Co501 2.140 . S
N515 C518 1.346 . S
N515 C519 1.345 . S
C516 C517 1.387 . S
C516 C520 1.391 . S
C517 C516 1.387 . S
C517 C518 1.369 . S
C517 H526 0.929 . S
C518 N515 1.346 . S
C518 C517 1.369 . S
C518 H521 0.928 . S
C519 N515 1.345 . S
C519 C520 1.371 . S
C519 H522 0.931 . S
C520 C516 1.391 . S
C520 C519 1.371 . S
C520 H527 0.930 . S
H521 C518 0.928 . S
H522 C519 0.931 . S
H523 C499 0.930 . S
H524 C496 0.930 . S
H525 C505 0.930 . S
H526 C517 0.929 . S
H527 C520 0.930 . S
C528 C529 1.369 . S
C528 C530 1.419 1_556 S
C528 H532 0.930 . S
C529 C528 1.369 . S
C529 C538 1.429 . S
C530 C528 1.419 1_554 S
C530 C531 1.363 . S
C530 H533 0.929 . S
C531 C530 1.363 . S
C531 C537 1.428 . S
H532 C528 0.930 . S
H533 C530 0.929 . S
S534 N535 1.613 1_554 S
S534 N536 1.610 . S
N535 S534 1.613 1_556 S
N535 C538 1.350 1_455 S
N536 S534 1.610 . S
N536 C537 1.351 1_455 S
C537 C531 1.428 . S
C537 N536 1.351 1_655 S
C537 C538 1.434 1_554 S
C538 C529 1.429 . S
C538 N535 1.350 1_655 S
C538 C537 1.434 1_556 S
C539 C540 1.369 1_545 S
C539 C541 1.419 . S
C539 H543 0.930 . S
C540 C539 1.369 1_565 S
C540 C549 1.429 . S
C541 C539 1.419 . S
C541 C542 1.363 1_545 S
C541 H544 0.929 . S
C542 C541 1.363 1_565 S
C542 C548 1.428 . S
H543 C539 0.930 . S
H544 C541 0.929 . S
S545 N546 1.613 . S
S545 N547 1.610 . S
N546 S545 1.613 . S
N546 C549 1.350 . S
N547 S545 1.610 . S
N547 C548 1.351 . S
C548 C542 1.428 . S
C548 N547 1.351 . S
C548 C549 1.434 . S
C549 C540 1.429 . S
C549 N546 1.350 . S
C549 C548 1.434 . S
C550 C551 1.369 . S
C550 C552 1.419 1_554 S
C550 H554 0.930 . S
C551 C550 1.369 . S
C551 C560 1.429 . S
C552 C550 1.419 1_556 S
C552 C553 1.363 . S
C552 H555 0.929 . S
C553 C552 1.363 . S
C553 C559 1.428 . S
H554 C550 0.930 . S
H555 C552 0.929 . S
S556 N557 1.613 . S
S556 N558 1.610 1_554 S
N557 S556 1.613 . S
N557 C560 1.350 . S
N558 S556 1.610 1_556 S
N558 C559 1.351 . S
C559 C553 1.428 . S
C559 N558 1.351 . S
C559 C560 1.434 1_556 S
C560 C551 1.429 . S
C560 N557 1.350 . S
C560 C559 1.434 1_554 S
C561 C562 1.369 . S
C561 C563 1.419 . S
C561 H565 0.930 . S
C562 C561 1.369 . S
C562 C571 1.429 . S
C563 C561 1.419 . S
C563 C564 1.363 . S
C563 H566 0.929 . S
C564 C563 1.363 . S
C564 C570 1.428 . S
H565 C561 0.930 . S
H566 C563 0.929 . S
S567 N568 1.613 . S
S567 N569 1.610 . S
N568 S567 1.613 . S
N568 C571 1.350 . S
N569 S567 1.610 . S
N569 C570 1.351 . S
C570 C564 1.428 . S
C570 N569 1.351 . S
C570 C571 1.434 . S
C571 C562 1.429 . S
C571 N568 1.350 . S
C571 C570 1.434 . S
C572 C573 1.369 1_655 S
C572 C574 1.419 1_554 S
C572 H576 0.930 . S
C573 C572 1.369 1_455 S
C573 C582 1.429 . S
C574 C572 1.419 1_556 S
C574 C575 1.363 1_655 S
C574 H577 0.929 . S
C575 C574 1.363 1_455 S
C575 C581 1.428 . S
H576 C572 0.930 . S
H577 C574 0.929 . S
S578 N579 1.613 1_556 S
S578 N580 1.610 . S
N579 S578 1.613 1_554 S
N579 C582 1.350 . S
N580 S578 1.610 . S
N580 C581 1.351 . S
C581 C575 1.428 . S
C581 N580 1.351 . S
C581 C582 1.434 1_556 S
C582 C573 1.429 . S
C582 N579 1.350 . S
C582 C581 1.434 1_554 S
C583 C584 1.369 1_565 S
C583 C585 1.419 . S
C583 H587 0.930 . S
C584 C583 1.369 1_545 S
C584 C593 1.429 . S
C585 C583 1.419 . S
C585 C586 1.363 1_565 S
C585 H588 0.929 . S
C586 C585 1.363 1_545 S
C586 C592 1.428 . S
H587 C583 0.930 . S
H588 C585 0.929 . S
S589 N590 1.613 . S
S589 N591 1.610 . S
N590 S589 1.613 . S
N590 C593 1.350 . S
N591 S589 1.610 . S
N591 C592 1.351 . S
C592 C586 1.428 . S
C592 N591 1.351 . S
C592 C593 1.434 . S
C593 C584 1.429 . S
C593 N590 1.350 . S
C593 C592 1.434 . S
C594 C595 1.369 . S
C594 C596 1.419 1_556 S
C594 H598 0.930 . S
C595 C594 1.369 . S
C595 C604 1.429 . S
C596 C594 1.419 1_554 S
C596 C597 1.363 . S
C596 H599 0.929 . S
C597 C596 1.363 . S
C597 C603 1.428 . S
H598 C594 0.930 . S
H599 C596 0.929 . S
S600 N601 1.613 . S
S600 N602 1.610 1_556 S
N601 S600 1.613 . S
N601 C604 1.350 . S
N602 S600 1.610 1_554 S
N602 C603 1.351 . S
C603 C597 1.428 . S
C603 N602 1.351 . S
C603 C604 1.434 1_554 S
C604 C595 1.429 . S
C604 N601 1.350 . S
C604 C603 1.434 1_556 S
C605 C606 1.369 . S
C605 C607 1.419 . S
C605 H609 0.930 . S
C606 C605 1.369 . S
C606 C615 1.429 . S
C607 C605 1.419 . S
C607 C608 1.363 . S
C607 H610 0.929 . S
C608 C607 1.363 . S
C608 C614 1.428 . S
H609 C605 0.930 . S
H610 C607 0.929 . S
S611 N612 1.613 . S
S611 N613 1.610 . S
N612 S611 1.613 . S
N612 C615 1.350 . S
N613 S611 1.610 . S
N613 C614 1.351 . S
C614 C608 1.428 . S
C614 N613 1.351 . S
C614 C615 1.434 . S
C615 C606 1.429 . S
C615 N612 1.350 . S
C615 C614 1.434 . S
C616 C617 1.369 . S
C616 C618 1.419 . S
C616 H620 0.930 . S
C617 C616 1.369 . S
C617 C626 1.429 1_655 S
C618 C616 1.419 . S
C618 C619 1.363 1_655 S
C618 H621 0.929 . S
C619 C618 1.363 1_455 S
C619 C625 1.428 . S
H620 C616 0.930 . S
H621 C618 0.929 . S
S622 N623 1.613 . S
S622 N624 1.610 . S
N623 S622 1.613 . S
N623 C626 1.350 . S
N624 S622 1.610 . S
N624 C625 1.351 . S
C625 C619 1.428 . S
C625 N624 1.351 . S
C625 C626 1.434 . S
C626 C617 1.429 1_455 S
C626 N623 1.350 . S
C626 C625 1.434 . S
C627 C628 1.369 . S
C627 C629 1.419 1_565 S
C627 H631 0.930 . S
C628 C627 1.369 . S
C628 C637 1.429 . S
C629 C627 1.419 1_545 S
C629 C630 1.363 . S
C629 H632 0.929 . S
C630 C629 1.363 . S
C630 C636 1.428 1_545 S
H631 C627 0.930 . S
H632 C629 0.929 . S
S633 N634 1.613 . S
S633 N635 1.610 . S
N634 S633 1.613 . S
N634 C637 1.350 . S
N635 S633 1.610 . S
N635 C636 1.351 . S
C636 C630 1.428 1_565 S
C636 N635 1.351 . S
C636 C637 1.434 . S
C637 C628 1.429 . S
C637 N634 1.350 . S
C637 C636 1.434 . S
C638 C639 1.369 . S
C638 C640 1.419 . S
C638 H642 0.930 . S
C639 C638 1.369 . S
C639 C648 1.429 . S
C640 C638 1.419 . S
C640 C641 1.363 . S
C640 H643 0.929 . S
C641 C640 1.363 . S
C641 C647 1.428 . S
H642 C638 0.930 . S
H643 C640 0.929 . S
S644 N645 1.613 . S
S644 N646 1.610 . S
N645 S644 1.613 . S
N645 C648 1.350 . S
N646 S644 1.610 . S
N646 C647 1.351 . S
C647 C641 1.428 . S
C647 N646 1.351 . S
C647 C648 1.434 . S
C648 C639 1.429 . S
C648 N645 1.350 . S
C648 C647 1.434 . S
C649 C650 1.369 . S
C649 C651 1.419 . S
C649 H653 0.930 . S
C650 C649 1.369 . S
C650 C659 1.429 . S
C651 C649 1.419 . S
C651 C652 1.363 . S
C651 H654 0.929 . S
C652 C651 1.363 . S
C652 C658 1.428 . S
H653 C649 0.930 . S
H654 C651 0.929 . S
S655 N656 1.613 . S
S655 N657 1.610 . S
N656 S655 1.613 . S
N656 C659 1.350 . S
N657 S655 1.610 . S
N657 C658 1.351 . S
C658 C652 1.428 . S
C658 N657 1.351 . S
C658 C659 1.434 . S
C659 C650 1.429 . S
C659 N656 1.350 . S
C659 C658 1.434 . S
C660 C661 1.369 1_655 S
C660 C662 1.419 . S
C660 H664 0.930 1_655 S
C661 C660 1.369 1_455 S
C661 C670 1.429 . S
C662 C660 1.419 . S
C662 C663 1.363 . S
C662 H665 0.929 . S
C663 C662 1.363 . S
C663 C669 1.428 . S
H664 C660 0.930 1_455 S
H665 C662 0.929 . S
S666 N667 1.613 1_655 S
S666 N668 1.610 . S
N667 S666 1.613 1_455 S
N667 C670 1.350 . S
N668 S666 1.610 . S
N668 C669 1.351 . S
C669 C663 1.428 . S
C669 N668 1.351 . S
C669 C670 1.434 1_655 S
C670 C661 1.429 . S
C670 N667 1.350 . S
C670 C669 1.434 1_455 S
C671 C672 1.369 1_565 S
C671 C673 1.419 . S
C671 H675 0.930 . S
C672 C671 1.369 1_545 S
C672 C681 1.429 . S
C673 C671 1.419 . S
C673 C674 1.363 . S
C673 H676 0.929 . S
C674 C673 1.363 . S
C674 C680 1.428 1_565 S
H675 C671 0.930 . S
H676 C673 0.929 . S
S677 N678 1.613 . S
S677 N679 1.610 . S
N678 S677 1.613 . S
N678 C681 1.350 . S
N679 S677 1.610 . S
N679 C680 1.351 . S
C680 C674 1.428 1_545 S
C680 N679 1.351 . S
C680 C681 1.434 . S
C681 C672 1.429 . S
C681 N678 1.350 . S
C681 C680 1.434 . S
C682 C683 1.369 . S
C682 C684 1.419 . S
C682 H686 0.930 . S
C683 C682 1.369 . S
C683 C692 1.429 . S
C684 C682 1.419 . S
C684 C685 1.363 . S
C684 H687 0.929 . S
C685 C684 1.363 . S
C685 C691 1.428 . S
H686 C682 0.930 . S
H687 C684 0.929 . S
S688 N689 1.613 . S
S688 N690 1.610 . S
N689 S688 1.613 . S
N689 C692 1.350 . S
N690 S688 1.610 . S
N690 C691 1.351 . S
C691 C685 1.428 . S
C691 N690 1.351 . S
C691 C692 1.434 . S
C692 C683 1.429 . S
C692 N689 1.350 . S
C692 C691 1.434 . S
C693 C694 1.369 . S
C693 C695 1.419 . S
C693 H697 0.930 . S
C694 C693 1.369 . S
C694 C703 1.429 . S
C695 C693 1.419 . S
C695 C696 1.363 . S
C695 H698 0.929 . S
C696 C695 1.363 . S
C696 C702 1.428 . S
H697 C693 0.930 . S
H698 C695 0.929 . S
S699 N700 1.613 . S
S699 N701 1.610 . S
N700 S699 1.613 . S
N700 C703 1.350 . S
N701 S699 1.610 . S
N701 C702 1.351 . S
C702 C696 1.428 . S
C702 N701 1.351 . S
C702 C703 1.434 . S
C703 C694 1.429 . S
C703 N700 1.350 . S
C703 C702 1.434 . S
C704 C705 1.369 1_655 S
C704 C706 1.419 . S
C704 H708 0.930 . S
C705 C704 1.369 1_455 S
C705 C714 1.429 . S
C706 C704 1.419 . S
C706 C707 1.363 . S
C706 H709 0.929 . S
C707 C706 1.363 . S
C707 C713 1.428 1_655 S
H708 C704 0.930 . S
H709 C706 0.929 . S
S710 N711 1.613 . S
S710 N712 1.610 1_565 S
N711 S710 1.613 . S
N711 C714 1.350 . S
N712 S710 1.610 1_545 S
N712 C713 1.351 1_545 S
C713 C707 1.428 1_455 S
C713 N712 1.351 1_565 S
C713 C714 1.434 . S
C714 C705 1.429 . S
C714 N711 1.350 . S
C714 C713 1.434 . S
C715 C716 1.369 . S
C715 C717 1.419 1_545 S
C715 H719 0.930 . S
C716 C715 1.369 . S
C716 C725 1.429 . S
C717 C715 1.419 1_565 S
C717 C718 1.363 . S
C717 H720 0.929 . S
C718 C717 1.363 . S
C718 C724 1.428 1_565 S
H719 C715 0.930 . S
H720 C717 0.929 . S
S721 N722 1.613 . S
S721 N723 1.610 . S
N722 S721 1.613 . S
N722 C725 1.350 . S
N723 S721 1.610 . S
N723 C724 1.351 . S
C724 C718 1.428 1_545 S
C724 N723 1.351 . S
C724 C725 1.434 . S
C725 C716 1.429 . S
C725 N722 1.350 . S
C725 C724 1.434 . S
C726 C727 1.369 . S
C726 C728 1.419 . S
C726 H730 0.930 . S
C727 C726 1.369 . S
C727 C736 1.429 . S
C728 C726 1.419 . S
C728 C729 1.363 . S
C728 H731 0.929 . S
C729 C728 1.363 . S
C729 C735 1.428 . S
H730 C726 0.930 . S
H731 C728 0.929 . S
S732 N733 1.613 . S
S732 N734 1.610 . S
N733 S732 1.613 . S
N733 C736 1.350 . S
N734 S732 1.610 . S
N734 C735 1.351 . S
C735 C729 1.428 . S
C735 N734 1.351 . S
C735 C736 1.434 . S
C736 C727 1.429 . S
C736 N733 1.350 . S
C736 C735 1.434 . S
C737 C738 1.369 . S
C737 C739 1.419 . S
C737 H741 0.930 . S
C738 C737 1.369 . S
C738 C747 1.429 . S
C739 C737 1.419 . S
C739 C740 1.363 . S
C739 H742 0.929 . S
C740 C739 1.363 . S
C740 C746 1.428 . S
H741 C737 0.930 . S
H742 C739 0.929 . S
S743 N744 1.613 . S
S743 N745 1.610 . S
N744 S743 1.613 . S
N744 C747 1.350 . S
N745 S743 1.610 . S
N745 C746 1.351 . S
C746 C740 1.428 . S
C746 N745 1.351 . S
C746 C747 1.434 . S
C747 C738 1.429 . S
C747 N744 1.350 . S
C747 C746 1.434 . S
C748 C749 1.382 . S
C748 C750 1.411 1_455 S
C748 H752 0.925 1_455 S
C749 C748 1.382 . S
C749 C758 1.429 . S
C750 C748 1.411 1_655 S
C750 C751 1.363 . S
C750 H753 0.929 . S
C751 C750 1.363 . S
C751 C757 1.428 1_655 S
H752 C748 0.925 1_655 S
H753 C750 0.929 . S
S754 N755 1.613 . S
S754 N756 1.610 . S
N755 S754 1.613 . S
N755 C758 1.350 . S
N756 S754 1.610 . S
N756 C757 1.351 . S
C757 C751 1.428 1_455 S
C757 N756 1.351 . S
C757 C758 1.434 . S
C758 C749 1.429 . S
C758 N755 1.350 . S
C758 C757 1.434 . S
C759 C760 1.369 . S
C759 C761 1.419 . S
C759 H763 0.930 . S
C760 C759 1.369 . S
C760 C769 1.429 1_545 S
C761 C759 1.419 . S
C761 C762 1.363 1_545 S
C761 H764 0.929 1_655 S
C762 C761 1.363 1_565 S
C762 C768 1.428 . S
H763 C759 0.930 . S
H764 C761 0.929 1_455 S
S765 N766 1.613 . S
S765 N767 1.610 . S
N766 S765 1.613 . S
N766 C769 1.350 . S
N767 S765 1.610 . S
N767 C768 1.351 . S
C768 C762 1.428 . S
C768 N767 1.351 . S
C768 C769 1.434 . S
C769 C760 1.429 1_565 S
C769 N766 1.350 . S
C769 C768 1.434 . S
C770 C771 1.369 . S
C770 C772 1.419 . S
C770 H774 0.930 . S
C771 C770 1.369 . S
C771 C780 1.429 . S
C772 C770 1.419 . S
C772 C773 1.363 . S
C772 H775 0.929 . S
C773 C772 1.363 . S
C773 C779 1.428 . S
H774 C770 0.930 . S
H775 C772 0.929 . S
S776 N777 1.613 . S
S776 N778 1.610 . S
N777 S776 1.613 . S
N777 C780 1.350 . S
N778 S776 1.610 . S
N778 C779 1.351 . S
C779 C773 1.428 . S
C779 N778 1.351 . S
C779 C780 1.434 . S
C780 C771 1.429 . S
C780 N777 1.350 . S
C780 C779 1.434 . S
C781 C782 1.369 . S
C781 C783 1.419 . S
C781 H785 0.930 . S
C782 C781 1.369 . S
C782 C791 1.429 . S
C783 C781 1.419 . S
C783 C784 1.363 . S
C783 H786 0.929 . S
C784 C783 1.363 . S
C784 C790 1.428 . S
H785 C781 0.930 . S
H786 C783 0.929 . S
S787 N788 1.613 . S
S787 N789 1.610 . S
N788 S787 1.613 . S
N788 C791 1.350 . S
N789 S787 1.610 . S
N789 C790 1.351 . S
C790 C784 1.428 . S
C790 N789 1.351 . S
C790 C791 1.434 . S
C791 C782 1.429 . S
C791 N788 1.350 . S
C791 C790 1.434 . S
C792 C793 1.369 . S
C792 C794 1.419 . S
C792 H796 0.930 . S
C793 C792 1.369 . S
C793 C802 1.429 . S
C794 C792 1.419 . S
C794 C795 1.363 . S
C794 H797 0.929 . S
C795 C794 1.363 . S
C795 C801 1.428 . S
H796 C792 0.930 . S
H797 C794 0.929 . S
S798 N799 1.613 . S
S798 N800 1.610 . S
N799 S798 1.613 . S
N799 C802 1.350 . S
N800 S798 1.610 . S
N800 C801 1.351 . S
C801 C795 1.428 . S
C801 N800 1.351 . S
C801 C802 1.434 . S
C802 C793 1.429 . S
C802 N799 1.350 . S
C802 C801 1.434 . S
C803 C804 1.369 . S
C803 C805 1.419 . S
C803 H807 0.930 . S
C804 C803 1.369 . S
C804 C813 1.429 . S
C805 C803 1.419 . S
C805 C806 1.363 . S
C805 H808 0.929 . S
C806 C805 1.363 . S
C806 C812 1.428 . S
H807 C803 0.930 . S
H808 C805 0.929 . S
S809 N810 1.613 1_655 S
S809 N811 1.610 . S
N810 S809 1.613 1_455 S
N810 C813 1.350 . S
N811 S809 1.610 . S
N811 C812 1.351 1_655 S
C812 C806 1.428 . S
C812 N811 1.351 1_455 S
C812 C813 1.434 . S
C813 C804 1.429 . S
C813 N810 1.350 . S
C813 C812 1.434 . S
C814 C815 1.369 . S
C814 C816 1.419 . S
C814 H818 0.930 1_545 S
C815 C814 1.369 . S
C815 C824 1.429 . S
C816 C814 1.419 . S
C816 C817 1.363 . S
C816 H819 0.929 . S
C817 C816 1.363 . S
C817 C823 1.428 . S
H818 C814 0.930 1_565 S
H819 C816 0.929 . S
S820 N821 1.613 . S
S820 N822 1.610 . S
N821 S820 1.613 . S
N821 C824 1.350 . S
N822 S820 1.610 . S
N822 C823 1.351 . S
C823 C817 1.428 . S
C823 N822 1.351 . S
C823 C824 1.434 . S
C824 C815 1.429 . S
C824 N821 1.350 . S
C824 C823 1.434 . S
C825 C826 1.369 . S
C825 C827 1.419 . S
C825 H829 0.930 . S
C826 C825 1.369 . S
C826 C835 1.429 . S
C827 C825 1.419 . S
C827 C828 1.363 . S
C827 H830 0.929 . S
C828 C827 1.363 . S
C828 C834 1.428 . S
H829 C825 0.930 . S
H830 C827 0.929 . S
S831 N832 1.613 . S
S831 N833 1.610 . S
N832 S831 1.613 . S
N832 C835 1.350 . S
N833 S831 1.610 . S
N833 C834 1.351 . S
C834 C828 1.428 . S
C834 N833 1.351 . S
C834 C835 1.434 . S
C835 C826 1.429 . S
C835 N832 1.350 . S
C835 C834 1.434 . S
C836 C837 1.369 . S
C836 C838 1.419 . S
C836 H840 0.930 . S
C837 C836 1.369 . S
C837 C846 1.429 . S
C838 C836 1.419 . S
C838 C839 1.363 . S
C838 H841 0.929 . S
C839 C838 1.363 . S
C839 C845 1.428 . S
H840 C836 0.930 . S
H841 C838 0.929 . S
S842 N843 1.613 . S
S842 N844 1.610 1_455 S
N843 S842 1.613 . S
N843 C846 1.350 1_455 S
N844 S842 1.610 1_655 S
N844 C845 1.351 . S
C845 C839 1.428 . S
C845 N844 1.351 . S
C845 C846 1.434 . S
C846 C837 1.429 . S
C846 N843 1.350 1_655 S
C846 C845 1.434 . S
C847 C848 1.369 . S
C847 C849 1.419 . S
C847 H851 0.930 1_655 S
C848 C847 1.369 . S
C848 C857 1.429 . S
C849 C847 1.419 . S
C849 C850 1.363 . S
C849 H852 0.929 . S
C850 C849 1.363 . S
C850 C856 1.428 . S
H851 C847 0.930 1_455 S
H852 C849 0.929 . S
S853 N854 1.613 . S
S853 N855 1.610 . S
N854 S853 1.613 . S
N854 C857 1.350 . S
N855 S853 1.610 . S
N855 C856 1.351 . S
C856 C850 1.428 . S
C856 N855 1.351 . S
C856 C857 1.434 . S
C857 C848 1.429 . S
C857 N854 1.350 . S
C857 C856 1.434 . S
C858 C859 1.369 . S
C858 C860 1.419 . S
C858 H862 0.930 . S
C859 C858 1.369 . S
C859 C868 1.429 . S
C860 C858 1.419 . S
C860 C861 1.363 . S
C860 H863 0.929 1_565 S
C861 C860 1.363 . S
C861 C867 1.428 . S
H862 C858 0.930 . S
H863 C860 0.929 1_545 S
S864 N865 1.613 . S
S864 N866 1.610 . S
N865 S864 1.613 . S
N865 C868 1.350 . S
N866 S864 1.610 . S
N866 C867 1.351 . S
C867 C861 1.428 . S
C867 N866 1.351 . S
C867 C868 1.434 . S
C868 C859 1.429 . S
C868 N865 1.350 . S
C868 C867 1.434 . S
C869 C870 1.369 . S
C869 C871 1.419 . S
C869 H873 0.930 . S
C870 C869 1.369 . S
C870 C879 1.429 . S
C871 C869 1.419 . S
C871 C872 1.363 . S
C871 H874 0.929 . S
C872 C871 1.363 . S
C872 C878 1.428 . S
H873 C869 0.930 . S
H874 C871 0.929 . S
S875 N876 1.613 . S
S875 N877 1.610 . S
N876 S875 1.613 . S
N876 C879 1.350 . S
N877 S875 1.610 . S
N877 C878 1.351 . S
C878 C872 1.428 . S
C878 N877 1.351 . S
C878 C879 1.434 . S
C879 C870 1.429 . S
C879 N876 1.350 . S
C879 C878 1.434 . S
C880 C881 1.369 . S
C880 C882 1.419 . S
C880 H884 0.930 . S
C881 C880 1.369 . S
C881 C890 1.429 . S
C882 C880 1.419 . S
C882 C883 1.363 . S
C882 H885 0.929 . S
C883 C882 1.363 . S
C883 C889 1.428 . S
H884 C880 0.930 . S
H885 C882 0.929 . S
S886 N887 1.613 . S
S886 N888 1.610 . S
N887 S886 1.613 . S
N887 C890 1.350 . S
N888 S886 1.610 . S
N888 C889 1.351 . S
C889 C883 1.428 . S
C889 N888 1.351 . S
C889 C890 1.434 . S
C890 C881 1.429 . S
C890 N887 1.350 . S
C890 C889 1.434 . S
C891 C892 1.369 . S
C891 C893 1.419 . S
C891 H895 0.930 . S
C892 C891 1.369 . S
C892 C901 1.429 . S
C893 C891 1.419 . S
C893 C894 1.363 . S
C893 H896 0.929 . S
C894 C893 1.363 . S
C894 C900 1.428 . S
H895 C891 0.930 . S
H896 C893 0.929 . S
S897 N898 1.613 . S
S897 N899 1.610 . S
N898 S897 1.613 . S
N898 C901 1.350 . S
N899 S897 1.610 . S
N899 C900 1.351 . S
C900 C894 1.428 . S
C900 N899 1.351 . S
C900 C901 1.434 . S
C901 C892 1.429 . S
C901 N898 1.350 . S
C901 C900 1.434 . S
C902 C903 1.369 . S
C902 C904 1.419 . S
C902 H906 0.930 . S
C903 C902 1.369 . S
C903 C912 1.429 . S
C904 C902 1.419 . S
C904 C905 1.363 . S
C904 H907 0.929 . S
C905 C904 1.363 . S
C905 C911 1.428 . S
H906 C902 0.930 . S
H907 C904 0.929 . S
S908 N909 1.613 . S
S908 N910 1.610 . S
N909 S908 1.613 . S
N909 C912 1.350 . S
N910 S908 1.610 . S
N910 C911 1.351 . S
C911 C905 1.428 . S
C911 N910 1.351 . S
C911 C912 1.434 . S
C912 C903 1.429 . S
C912 N909 1.350 . S
C912 C911 1.434 . S
C913 C914 1.369 . S
C913 C915 1.419 . S
C913 H917 0.930 . S
C914 C913 1.369 . S
C914 C923 1.429 . S
C915 C913 1.419 . S
C915 C916 1.363 . S
C915 H918 0.929 . S
C916 C915 1.363 . S
C916 C922 1.428 . S
H917 C913 0.930 . S
H918 C915 0.929 . S
S919 N920 1.613 . S
S919 N921 1.610 . S
N920 S919 1.613 . S
N920 C923 1.350 . S
N921 S919 1.610 . S
N921 C922 1.351 . S
C922 C916 1.428 . S
C922 N921 1.351 . S
C922 C923 1.434 . S
C923 C914 1.429 . S
C923 N920 1.350 . S
C923 C922 1.434 . S
C924 C925 1.369 . S
C924 C926 1.419 . S
C924 H928 0.930 . S
C925 C924 1.369 . S
C925 C934 1.429 . S
C926 C924 1.419 . S
C926 C927 1.363 . S
C926 H929 0.929 . S
C927 C926 1.363 . S
C927 C933 1.428 . S
H928 C924 0.930 . S
H929 C926 0.929 . S
S930 N931 1.613 . S
S930 N932 1.610 . S
N931 S930 1.613 . S
N931 C934 1.350 . S
N932 S930 1.610 . S
N932 C933 1.351 . S
C933 C927 1.428 . S
C933 N932 1.351 . S
C933 C934 1.434 . S
C934 C925 1.429 . S
C934 N931 1.350 . S
C934 C933 1.434 . S
C935 C936 1.369 . S
C935 C937 1.419 . S
C935 H939 0.930 . S
C936 C935 1.369 . S
C936 C945 1.429 . S
C937 C935 1.419 . S
C937 C938 1.363 . S
C937 H940 0.929 . S
C938 C937 1.363 . S
C938 C944 1.428 . S
H939 C935 0.930 . S
H940 C937 0.929 . S
S941 N942 1.613 . S
S941 N943 1.610 . S
N942 S941 1.613 . S
N942 C945 1.350 . S
N943 S941 1.610 . S
N943 C944 1.351 . S
C944 C938 1.428 . S
C944 N943 1.351 . S
C944 C945 1.434 . S
C945 C936 1.429 . S
C945 N942 1.350 . S
C945 C944 1.434 . S
C946 C947 1.369 . S
C946 C948 1.419 . S
C946 H950 0.930 . S
C947 C946 1.369 . S
C947 C956 1.429 . S
C948 C946 1.419 . S
C948 C949 1.363 . S
C948 H951 0.929 . S
C949 C948 1.363 . S
C949 C955 1.428 . S
H950 C946 0.930 . S
H951 C948 0.929 . S
S952 N953 1.613 . S
S952 N954 1.610 . S
N953 S952 1.613 . S
N953 C956 1.350 . S
N954 S952 1.610 . S
N954 C955 1.351 . S
C955 C949 1.428 . S
C955 N954 1.351 . S
C955 C956 1.434 . S
C956 C947 1.429 . S
C956 N953 1.350 . S
C956 C955 1.434 . S
C957 C958 1.369 . S
C957 C959 1.419 . S
C957 H961 0.930 . S
C958 C957 1.369 . S
C958 C967 1.429 . S
C959 C957 1.419 . S
C959 C960 1.363 . S
C959 H962 0.929 . S
C960 C959 1.363 . S
C960 C966 1.428 . S
H961 C957 0.930 . S
H962 C959 0.929 . S
S963 N964 1.613 . S
S963 N965 1.610 . S
N964 S963 1.613 . S
N964 C967 1.350 . S
N965 S963 1.610 . S
N965 C966 1.351 . S
C966 C960 1.428 . S
C966 N965 1.351 . S
C966 C967 1.434 . S
C967 C958 1.429 . S
C967 N964 1.350 . S
C967 C966 1.434 . S
C529 N134 1.580 . S
C531 N2 1.585 . S
C540 N167 1.582 . S
C542 N35 1.584 . S
C551 N68 1.585 . S
C553 N200 1.582 . S
C562 N233 1.583 . S
C564 N101 1.582 . S
C573 N398 1.580 . S
C575 N266 1.585 . S
C584 N299 1.580 . S
C586 N431 1.585 . S
C595 N332 1.585 . S
C597 N464 1.581 . S
C606 N365 1.582 . S
C608 N497 1.583 . S
C617 C7 1.765 . S
C619 C414 1.906 1_545 S
C628 C40 1.771 . S
C630 C447 1.902 . S
C639 C480 1.907 . S
C641 C73 1.766 . S
C650 C106 1.768 . S
C652 C513 1.904 1_455 S
C661 C282 1.906 . S
C663 C139 1.766 . S
C672 C315 1.908 1_455 S
C674 C172 1.764 . S
C683 C205 1.773 . S
C685 C348 1.901 1_545 S
C694 C381 1.907 . S
C696 C238 1.766 . S
C705 C271 1.771 . S
C707 C150 1.902 1_565 S
C716 C304 1.774 . S
C718 C183 1.901 . S
C727 C216 1.900 . S
C729 C337 1.774 . S
C738 C370 1.765 . S
C740 C249 1.905 1_655 S
C749 C403 1.768 . S
C751 C18 1.903 . S
C760 C436 1.764 . S
C762 C51 1.907 1_655 S
C771 C469 1.771 . S
C773 C84 1.904 1_565 S
C782 C117 1.907 . S
C784 C502 1.767 . S
C793 N244 1.910 . S
C795 N13 1.908 . S
C804 N46 1.905 . S
C806 N145 1.908 . S
C815 N178 1.904 . S
C817 N79 1.905 . S
C826 N211 1.905 . S
C828 N112 1.908 . S
C837 N277 1.908 . S
C839 N508 1.906 . S
C848 N409 1.905 . S
C850 N310 1.908 . S
C859 N343 1.904 . S
C861 N442 1.906 . S
C870 N475 1.904 . S
C872 N376 1.907 . S
C881 C87 0.742 . S
C883 C21 0.728 . S
C892 C120 0.718 . S
C894 C54 0.746 . S
C903 C153 0.729 . S
C905 C219 0.738 . S
C914 C252 0.742 . S
C916 C186 0.726 . S
C925 C285 0.718 . S
C927 C351 0.746 . S
C936 C384 0.744 . S
C938 C318 0.723 . S
C947 C417 0.718 . S
C949 C483 0.745 . S
C958 C450 0.743 . S
C960 C516 0.724 . S
