# Generated by pormake.
# Topology ukc, (4)-cn, num edge types: 1
# Building blocks:
#     Node 0, Type 0, BuildingBlock: CEKHIL_clean_sbu_0, # of connection points: 4
#     Node 1, Type 0, BuildingBlock: CEKHIL_clean_sbu_0, # of connection points: 4
#     Node 2, Type 0, BuildingBlock: CEKHIL_clean_sbu_0, # of connection points: 4
#     Node 3, Type 0, BuildingBlock: CEKHIL_clean_sbu_0, # of connection points: 4
#     Node 4, Type 0, BuildingBlock: CEKHIL_clean_sbu_0, # of connection points: 4
#     Node 5, Type 0, BuildingBlock: CEKHIL_clean_sbu_0, # of connection points: 4
#     Node 6, Type 0, BuildingBlock: CEKHIL_clean_sbu_0, # of connection points: 4
#     Node 7, Type 0, BuildingBlock: CEKHIL_clean_sbu_0, # of connection points: 4
#     Node 8, Type 0, BuildingBlock: CEKHIL_clean_sbu_0, # of connection points: 4
#     Node 9, Type 0, BuildingBlock: CEKHIL_clean_sbu_0, # of connection points: 4
#     Node 10, Type 0, BuildingBlock: CEKHIL_clean_sbu_0, # of connection points: 4
#     Node 11, Type 0, BuildingBlock: CEKHIL_clean_sbu_0, # of connection points: 4
#     Node 12, Type 0, BuildingBlock: CEKHIL_clean_sbu_0, # of connection points: 4
#     Node 13, Type 0, BuildingBlock: CEKHIL_clean_sbu_0, # of connection points: 4
#     Node 14, Type 0, BuildingBlock: CEKHIL_clean_sbu_0, # of connection points: 4
#     Node 15, Type 0, BuildingBlock: CEKHIL_clean_sbu_0, # of connection points: 4
#     Node 16, Type 0, BuildingBlock: CEKHIL_clean_sbu_0, # of connection points: 4
#     Node 17, Type 0, BuildingBlock: CEKHIL_clean_sbu_0, # of connection points: 4
#     Node 18, Type 0, BuildingBlock: CEKHIL_clean_sbu_0, # of connection points: 4
#     Node 19, Type 0, BuildingBlock: CEKHIL_clean_sbu_0, # of connection points: 4
#     Node 20, Type 0, BuildingBlock: CEKHIL_clean_sbu_0, # of connection points: 4
#     Node 21, Type 0, BuildingBlock: CEKHIL_clean_sbu_0, # of connection points: 4
#     Node 22, Type 0, BuildingBlock: CEKHIL_clean_sbu_0, # of connection points: 4
#     Node 23, Type 0, BuildingBlock: CEKHIL_clean_sbu_0, # of connection points: 4
#     Node 24, Type 0, BuildingBlock: CEKHIL_clean_sbu_0, # of connection points: 4
#     Node 25, Type 0, BuildingBlock: CEKHIL_clean_sbu_0, # of connection points: 4
#     Node 26, Type 0, BuildingBlock: CEKHIL_clean_sbu_0, # of connection points: 4
#     Node 27, Type 0, BuildingBlock: CEKHIL_clean_sbu_0, # of connection points: 4
#     Node 28, Type 0, BuildingBlock: CEKHIL_clean_sbu_0, # of connection points: 4
#     Node 29, Type 0, BuildingBlock: CEKHIL_clean_sbu_0, # of connection points: 4
#     Node 30, Type 0, BuildingBlock: CEKHIL_clean_sbu_0, # of connection points: 4
#     Node 31, Type 0, BuildingBlock: CEKHIL_clean_sbu_0, # of connection points: 4
#     Edge 32, Type (0, 0), BuildingBlock: CIFDUS_clean_linker_0, # of connection points: 2
#     Edge 33, Type (0, 0), BuildingBlock: CIFDUS_clean_linker_0, # of connection points: 2
#     Edge 34, Type (0, 0), BuildingBlock: CIFDUS_clean_linker_0, # of connection points: 2
#     Edge 35, Type (0, 0), BuildingBlock: CIFDUS_clean_linker_0, # of connection points: 2
#     Edge 36, Type (0, 0), BuildingBlock: CIFDUS_clean_linker_0, # of connection points: 2
#     Edge 37, Type (0, 0), BuildingBlock: CIFDUS_clean_linker_0, # of connection points: 2
#     Edge 38, Type (0, 0), BuildingBlock: CIFDUS_clean_linker_0, # of connection points: 2
#     Edge 39, Type (0, 0), BuildingBlock: CIFDUS_clean_linker_0, # of connection points: 2
#     Edge 40, Type (0, 0), BuildingBlock: CIFDUS_clean_linker_0, # of connection points: 2
#     Edge 41, Type (0, 0), BuildingBlock: CIFDUS_clean_linker_0, # of connection points: 2
#     Edge 42, Type (0, 0), BuildingBlock: CIFDUS_clean_linker_0, # of connection points: 2
#     Edge 43, Type (0, 0), BuildingBlock: CIFDUS_clean_linker_0, # of connection points: 2
#     Edge 44, Type (0, 0), BuildingBlock: CIFDUS_clean_linker_0, # of connection points: 2
#     Edge 45, Type (0, 0), BuildingBlock: CIFDUS_clean_linker_0, # of connection points: 2
#     Edge 46, Type (0, 0), BuildingBlock: CIFDUS_clean_linker_0, # of connection points: 2
#     Edge 47, Type (0, 0), BuildingBlock: CIFDUS_clean_linker_0, # of connection points: 2
#     Edge 48, Type (0, 0), BuildingBlock: CIFDUS_clean_linker_0, # of connection points: 2
#     Edge 49, Type (0, 0), BuildingBlock: CIFDUS_clean_linker_0, # of connection points: 2
#     Edge 50, Type (0, 0), BuildingBlock: CIFDUS_clean_linker_0, # of connection points: 2
#     Edge 51, Type (0, 0), BuildingBlock: CIFDUS_clean_linker_0, # of connection points: 2
#     Edge 52, Type (0, 0), BuildingBlock: CIFDUS_clean_linker_0, # of connection points: 2
#     Edge 53, Type (0, 0), BuildingBlock: CIFDUS_clean_linker_0, # of connection points: 2
#     Edge 54, Type (0, 0), BuildingBlock: CIFDUS_clean_linker_0, # of connection points: 2
#     Edge 55, Type (0, 0), BuildingBlock: CIFDUS_clean_linker_0, # of connection points: 2
#     Edge 56, Type (0, 0), BuildingBlock: CIFDUS_clean_linker_0, # of connection points: 2
#     Edge 57, Type (0, 0), BuildingBlock: CIFDUS_clean_linker_0, # of connection points: 2
#     Edge 58, Type (0, 0), BuildingBlock: CIFDUS_clean_linker_0, # of connection points: 2
#     Edge 59, Type (0, 0), BuildingBlock: CIFDUS_clean_linker_0, # of connection points: 2
#     Edge 60, Type (0, 0), BuildingBlock: CIFDUS_clean_linker_0, # of connection points: 2
#     Edge 61, Type (0, 0), BuildingBlock: CIFDUS_clean_linker_0, # of connection points: 2
#     Edge 62, Type (0, 0), BuildingBlock: CIFDUS_clean_linker_0, # of connection points: 2
#     Edge 63, Type (0, 0), BuildingBlock: CIFDUS_clean_linker_0, # of connection points: 2
#     Edge 64, Type (0, 0), BuildingBlock: CIFDUS_clean_linker_0, # of connection points: 2
#     Edge 65, Type (0, 0), BuildingBlock: CIFDUS_clean_linker_0, # of connection points: 2
#     Edge 66, Type (0, 0), BuildingBlock: CIFDUS_clean_linker_0, # of connection points: 2
#     Edge 67, Type (0, 0), BuildingBlock: CIFDUS_clean_linker_0, # of connection points: 2
#     Edge 68, Type (0, 0), BuildingBlock: CIFDUS_clean_linker_0, # of connection points: 2
#     Edge 69, Type (0, 0), BuildingBlock: CIFDUS_clean_linker_0, # of connection points: 2
#     Edge 70, Type (0, 0), BuildingBlock: CIFDUS_clean_linker_0, # of connection points: 2
#     Edge 71, Type (0, 0), BuildingBlock: CIFDUS_clean_linker_0, # of connection points: 2
#     Edge 72, Type (0, 0), BuildingBlock: CIFDUS_clean_linker_0, # of connection points: 2
#     Edge 73, Type (0, 0), BuildingBlock: CIFDUS_clean_linker_0, # of connection points: 2
#     Edge 74, Type (0, 0), BuildingBlock: CIFDUS_clean_linker_0, # of connection points: 2
#     Edge 75, Type (0, 0), BuildingBlock: CIFDUS_clean_linker_0, # of connection points: 2
#     Edge 76, Type (0, 0), BuildingBlock: CIFDUS_clean_linker_0, # of connection points: 2
#     Edge 77, Type (0, 0), BuildingBlock: CIFDUS_clean_linker_0, # of connection points: 2
#     Edge 78, Type (0, 0), BuildingBlock: CIFDUS_clean_linker_0, # of connection points: 2
#     Edge 79, Type (0, 0), BuildingBlock: CIFDUS_clean_linker_0, # of connection points: 2
#     Edge 80, Type (0, 0), BuildingBlock: CIFDUS_clean_linker_0, # of connection points: 2
#     Edge 81, Type (0, 0), BuildingBlock: CIFDUS_clean_linker_0, # of connection points: 2
#     Edge 82, Type (0, 0), BuildingBlock: CIFDUS_clean_linker_0, # of connection points: 2
#     Edge 83, Type (0, 0), BuildingBlock: CIFDUS_clean_linker_0, # of connection points: 2
#     Edge 84, Type (0, 0), BuildingBlock: CIFDUS_clean_linker_0, # of connection points: 2
#     Edge 85, Type (0, 0), BuildingBlock: CIFDUS_clean_linker_0, # of connection points: 2
#     Edge 86, Type (0, 0), BuildingBlock: CIFDUS_clean_linker_0, # of connection points: 2
#     Edge 87, Type (0, 0), BuildingBlock: CIFDUS_clean_linker_0, # of connection points: 2
#     Edge 88, Type (0, 0), BuildingBlock: CIFDUS_clean_linker_0, # of connection points: 2
#     Edge 89, Type (0, 0), BuildingBlock: CIFDUS_clean_linker_0, # of connection points: 2
#     Edge 90, Type (0, 0), BuildingBlock: CIFDUS_clean_linker_0, # of connection points: 2
#     Edge 91, Type (0, 0), BuildingBlock: CIFDUS_clean_linker_0, # of connection points: 2
#     Edge 92, Type (0, 0), BuildingBlock: CIFDUS_clean_linker_0, # of connection points: 2
#     Edge 93, Type (0, 0), BuildingBlock: CIFDUS_clean_linker_0, # of connection points: 2
#     Edge 94, Type (0, 0), BuildingBlock: CIFDUS_clean_linker_0, # of connection points: 2
#     Edge 95, Type (0, 0), BuildingBlock: CIFDUS_clean_linker_0, # of connection points: 2
# Relax obj value: 0.050
# Max RMSD: 0.066
# Mean RMSD: 0.066
data_MOF--net-ukc--node1-CEKHIL_clean_sbu_0--edge1-CIFDUS_clean_linker_0
_symmetry_space_group_name_H-M    P1
_symmetry_Int_Tables_number       1
_symmetry_cell_setting            triclinic
loop_
_symmetry_equiv_pos_as_xyz
'x, y, z'
_cell_length_a     38.925678
_cell_length_b     38.8642
_cell_length_c     74.699041
_cell_angle_alpha  90.0146
_cell_angle_beta   89.978916
_cell_angle_gamma 90.073014
loop_
_atom_site_label
_atom_site_type_symbol
_atom_site_fract_x
_atom_site_fract_y
_atom_site_fract_z
_atom_type_partial_charge
Co0 Co 0.12524 0.37978 0.04766 0.0
O1 O 0.1626 0.4113 0.04212 0.0
O2 O 0.15025 0.36448 0.02662 0.0
C3 C 0.13641 0.37531 0.07728 0.0
O4 O 0.09069 0.33995 0.0493 0.0
Co5 Co 0.06589 0.39856 0.0738 0.0
O6 O 0.04944 0.351 0.06965 0.0
C7 C 0.06715 0.42871 0.03757 0.0
C8 C 0.17041 0.39076 0.02903 0.0
C9 C 0.0635 0.33138 0.05813 0.0
O10 O 0.09204 0.40854 0.03295 0.0
O11 O 0.05567 0.43061 0.05359 0.0
O12 O 0.15363 0.35719 0.06575 0.0
O13 O 0.11521 0.39726 0.07054 0.0
Co14 Co 0.86603 0.86953 0.2985 0.0
O15 O 0.8347 0.90651 0.29193 0.0
O16 O 0.88424 0.89603 0.27863 0.0
C17 C 0.86474 0.87913 0.32839 0.0
O18 O 0.90677 0.83659 0.30148 0.0
Co19 Co 0.84682 0.80797 0.32327 0.0
O20 O 0.8958 0.79471 0.32147 0.0
C21 C 0.82015 0.81052 0.28623 0.0
C22 C 0.85741 0.91564 0.28007 0.0
C23 C 0.91596 0.81012 0.3107 0.0
O24 O 0.84047 0.83586 0.28226 0.0
O25 O 0.81697 0.79864 0.30211 0.0
O26 O 0.88432 0.8977 0.3181 0.0
O27 O 0.84521 0.85739 0.32027 0.0
Co28 Co 0.40254 0.62267 0.5491 0.0
O29 O 0.36541 0.5909 0.54302 0.0
O30 O 0.37482 0.64074 0.52974 0.0
C31 C 0.39516 0.621 0.57916 0.0
O32 O 0.43497 0.66404 0.55155 0.0
Co33 Co 0.46605 0.60497 0.5727 0.0
O34 O 0.47813 0.65436 0.57089 0.0
C35 C 0.46082 0.57741 0.53587 0.0
C36 C 0.35553 0.61366 0.53135 0.0
C37 C 0.46164 0.67408 0.56036 0.0
O38 O 0.43527 0.59759 0.53224 0.0
O39 O 0.47375 0.57466 0.55154 0.0
O40 O 0.37556 0.64033 0.56929 0.0
O41 O 0.41657 0.60192 0.57058 0.0
Co42 Co 0.64475 0.15134 0.79627 0.0
O43 O 0.67373 0.11178 0.79109 0.0
O44 O 0.62717 0.12537 0.77588 0.0
C45 C 0.64175 0.14221 0.82625 0.0
O46 O 0.60715 0.18863 0.79766 0.0
Co47 Co 0.66795 0.21091 0.82172 0.0
O48 O 0.62148 0.22976 0.81759 0.0
C49 C 0.69705 0.20578 0.78522 0.0
C50 C 0.65231 0.10393 0.77841 0.0
C51 C 0.60075 0.21679 0.80625 0.0
O52 O 0.67505 0.1822 0.78077 0.0
O53 O 0.70009 0.21725 0.8012 0.0
O54 O 0.62171 0.12533 0.81544 0.0
O55 O 0.66397 0.16185 0.81862 0.0
Co56 Co 0.12707 0.6417 0.46334 0.0
O57 O 0.16641 0.6128 0.46959 0.0
O58 O 0.1506 0.65949 0.48418 0.0
C59 C 0.13826 0.64488 0.43363 0.0
O60 O 0.09117 0.68011 0.46112 0.0
Co61 Co 0.06836 0.62095 0.43733 0.0
O62 O 0.0509 0.66847 0.44041 0.0
C63 C 0.07068 0.59087 0.47363 0.0
C64 C 0.17276 0.6348 0.4823 0.0
C65 C 0.06435 0.68845 0.45196 0.0
O66 O 0.09489 0.61194 0.4783 0.0
O67 O 0.05934 0.58869 0.4576 0.0
O68 O 0.15464 0.66449 0.44487 0.0
O69 O 0.11773 0.62265 0.4407 0.0
Co70 Co 0.6344 0.87141 0.71204 0.0
O71 O 0.66042 0.91261 0.71852 0.0
O72 O 0.61248 0.89599 0.7316 0.0
C73 C 0.63603 0.8805 0.68202 0.0
O74 O 0.5987 0.83254 0.70915 0.0
Co75 Co 0.6628 0.81293 0.68738 0.0
O76 O 0.61649 0.79238 0.68951 0.0
C77 C 0.68643 0.81877 0.72499 0.0
C78 C 0.63654 0.91906 0.7302 0.0
C79 C 0.59408 0.80441 0.70024 0.0
O80 O 0.66337 0.84172 0.72875 0.0
O81 O 0.69191 0.80774 0.70911 0.0
O82 O 0.61348 0.89642 0.69184 0.0
O83 O 0.65755 0.86178 0.69065 0.0
Co84 Co 0.39833 0.37667 0.9598 0.0
O85 O 0.35735 0.40312 0.96601 0.0
O86 O 0.3765 0.35803 0.98089 0.0
C87 C 0.3866 0.37179 0.93022 0.0
O88 O 0.43654 0.34073 0.9579 0.0
Co89 Co 0.45507 0.39926 0.93313 0.0
O90 O 0.46938 0.35023 0.93374 0.0
C91 C 0.45329 0.42952 0.96959 0.0
C92 C 0.35268 0.38103 0.97887 0.0
C93 C 0.45998 0.33132 0.94677 0.0
O94 O 0.42895 0.40866 0.97429 0.0
O95 O 0.46517 0.43106 0.95361 0.0
O96 O 0.37186 0.35155 0.94176 0.0
O97 O 0.40598 0.39547 0.93691 0.0
Co98 Co 0.87985 0.14136 0.20922 0.0
O99 O 0.85283 0.10183 0.21696 0.0
O100 O 0.89973 0.12042 0.2304 0.0
C101 C 0.8816 0.12682 0.17991 0.0
O102 O 0.91604 0.17921 0.20504 0.0
Co103 Co 0.85318 0.19516 0.18158 0.0
O104 O 0.90247 0.20756 0.17976 0.0
C105 C 0.82863 0.19775 0.2191 0.0
C106 C 0.8756 0.09731 0.22944 0.0
C107 C 0.92341 0.20046 0.19232 0.0
O108 O 0.85008 0.17395 0.22377 0.0
O109 O 0.82464 0.20761 0.20288 0.0
O110 O 0.90265 0.1127 0.19122 0.0
O111 O 0.85882 0.14687 0.18681 0.0
Co112 Co 0.89711 0.602 0.96395 0.0
O113 O 0.85839 0.57175 0.96881 0.0
O114 O 0.87031 0.61884 0.98413 0.0
C115 C 0.88899 0.60512 0.93395 0.0
O116 O 0.93322 0.64069 0.96273 0.0
Co117 Co 0.95787 0.58015 0.939 0.0
O118 O 0.97502 0.62744 0.94299 0.0
C119 C 0.9526 0.55162 0.97564 0.0
C120 C 0.84973 0.59296 0.98145 0.0
C121 C 0.96116 0.64791 0.95417 0.0
O122 O 0.9282 0.57281 0.97978 0.0
O123 O 0.96467 0.54871 0.95978 0.0
O124 O 0.87117 0.62447 0.94468 0.0
O125 O 0.90873 0.58313 0.94166 0.0
Co126 Co 0.13995 0.14229 0.71333 0.0
O127 O 0.17063 0.10434 0.71915 0.0
O128 O 0.12316 0.11673 0.73395 0.0
C129 C 0.1368 0.13193 0.68353 0.0
O130 O 0.10037 0.17701 0.71114 0.0
Co131 Co 0.16022 0.20207 0.68755 0.0
O132 O 0.11187 0.21696 0.69012 0.0
C133 C 0.18883 0.20035 0.72421 0.0
C134 C 0.14913 0.09618 0.73176 0.0
C135 C 0.0918 0.20331 0.70157 0.0
O136 O 0.16843 0.17535 0.72863 0.0
O137 O 0.19121 0.21186 0.70822 0.0
O138 O 0.11813 0.11437 0.6947 0.0
O139 O 0.1586 0.15273 0.69073 0.0
Co140 Co 0.62554 0.40349 0.45933 0.0
O141 O 0.6653 0.43181 0.46584 0.0
O142 O 0.6505 0.38328 0.47904 0.0
C143 C 0.63403 0.40404 0.42931 0.0
O144 O 0.58984 0.36505 0.45657 0.0
Co145 Co 0.56469 0.42621 0.435 0.0
O146 O 0.54834 0.37802 0.43678 0.0
C147 C 0.56983 0.45266 0.47205 0.0
C148 C 0.67246 0.40828 0.47767 0.0
C149 C 0.56277 0.35715 0.44752 0.0
O150 O 0.59426 0.43121 0.47582 0.0
O151 O 0.55764 0.45633 0.45627 0.0
O152 O 0.65165 0.38331 0.43943 0.0
O153 O 0.61417 0.4251 0.43765 0.0
Co154 Co 0.3783 0.86253 0.2136 0.0
O155 O 0.35359 0.90462 0.21974 0.0
O156 O 0.3987 0.88496 0.23427 0.0
C157 C 0.38221 0.87331 0.18383 0.0
O158 O 0.41268 0.8226 0.2111 0.0
Co159 Co 0.34989 0.8068 0.18752 0.0
O160 O 0.39564 0.7851 0.18989 0.0
C161 C 0.32276 0.81063 0.22449 0.0
C162 C 0.37635 0.90946 0.23221 0.0
C163 C 0.41744 0.79552 0.20139 0.0
O164 O 0.3458 0.83326 0.22889 0.0
O165 O 0.31878 0.79978 0.20845 0.0
O166 O 0.40348 0.88761 0.19498 0.0
O167 O 0.358 0.85539 0.19104 0.0
Co168 Co 0.90041 0.41645 0.54675 0.0
O169 O 0.86319 0.44791 0.54063 0.0
O170 O 0.87354 0.39876 0.52688 0.0
C171 C 0.89183 0.41693 0.57677 0.0
O172 O 0.93359 0.37565 0.54921 0.0
Co173 Co 0.96248 0.43519 0.5713 0.0
O174 O 0.97582 0.38627 0.56904 0.0
C175 C 0.95856 0.46315 0.5345 0.0
C176 C 0.85399 0.42561 0.52856 0.0
C177 C 0.96029 0.36631 0.55821 0.0
O178 O 0.93343 0.44266 0.53044 0.0
O179 O 0.97063 0.46588 0.55036 0.0
O180 O 0.87292 0.39756 0.56653 0.0
O181 O 0.91313 0.43673 0.56855 0.0
Co182 Co 0.37932 0.14564 0.29428 0.0
O183 O 0.35028 0.10579 0.28993 0.0
O184 O 0.39526 0.11967 0.27348 0.0
C185 C 0.38567 0.13664 0.32409 0.0
O186 O 0.41637 0.18375 0.29498 0.0
Co187 Co 0.35596 0.20443 0.32009 0.0
O188 O 0.40202 0.22397 0.31544 0.0
C189 C 0.32551 0.19922 0.28393 0.0
C190 C 0.37044 0.09809 0.27671 0.0
C191 C 0.42254 0.21181 0.30375 0.0
O192 O 0.34746 0.1758 0.27935 0.0
O193 O 0.32303 0.2109 0.2999 0.0
O194 O 0.40469 0.12014 0.31266 0.0
O195 O 0.36199 0.15554 0.31717 0.0
Co196 Co 0.61507 0.6097 0.04478 0.0
O197 O 0.65542 0.58208 0.03868 0.0
O198 O 0.64058 0.63045 0.02538 0.0
C199 C 0.62285 0.60897 0.07487 0.0
O200 O 0.57884 0.64767 0.04729 0.0
Co201 Co 0.55383 0.58629 0.06869 0.0
O202 O 0.53724 0.63431 0.06699 0.0
C203 C 0.56032 0.55982 0.0316 0.0
C204 C 0.66291 0.60591 0.02707 0.0
C205 C 0.55161 0.65532 0.05627 0.0
O206 O 0.58466 0.58153 0.02794 0.0
O207 O 0.54782 0.55617 0.04733 0.0
O208 O 0.64036 0.6301 0.06491 0.0
O209 O 0.60332 0.58779 0.06636 0.0
Co210 Co 0.12992 0.86548 0.79894 0.0
O211 O 0.15562 0.90704 0.79291 0.0
O212 O 0.11126 0.88735 0.7777 0.0
C213 C 0.12379 0.87684 0.82849 0.0
O214 O 0.0953 0.82566 0.80119 0.0
Co215 Co 0.15728 0.81052 0.8258 0.0
O216 O 0.11162 0.78878 0.82283 0.0
C217 C 0.18544 0.81293 0.78911 0.0
C218 C 0.13399 0.91153 0.77989 0.0
C219 C 0.09029 0.79872 0.81098 0.0
O220 O 0.16282 0.83565 0.78446 0.0
O221 O 0.189 0.80234 0.80522 0.0
O222 O 0.10365 0.8912 0.81682 0.0
O223 O 0.1486 0.85889 0.8219 0.0
Co224 Co 0.61588 0.906 0.54605 0.0
O225 O 0.65545 0.9348 0.53974 0.0
O226 O 0.64231 0.8853 0.52702 0.0
C227 C 0.62297 0.9083 0.57614 0.0
O228 O 0.58119 0.86664 0.54882 0.0
Co229 Co 0.55328 0.92716 0.56952 0.0
O230 O 0.53936 0.87816 0.56865 0.0
C231 C 0.55974 0.95337 0.53235 0.0
C232 C 0.66386 0.91063 0.52849 0.0
C233 C 0.55466 0.85765 0.55804 0.0
O234 O 0.58476 0.93242 0.52883 0.0
O235 O 0.54686 0.95673 0.54801 0.0
O236 O 0.64149 0.88747 0.56652 0.0
O237 O 0.60283 0.92828 0.56729 0.0
Co238 Co 0.37262 0.36691 0.7937 0.0
O239 O 0.34635 0.40871 0.78939 0.0
O240 O 0.3882 0.39015 0.772 0.0
C241 C 0.38144 0.37661 0.82329 0.0
O242 O 0.40764 0.32717 0.79433 0.0
Co243 Co 0.34791 0.31027 0.8204 0.0
O244 O 0.3935 0.28939 0.81604 0.0
C245 C 0.3163 0.3143 0.78454 0.0
C246 C 0.36566 0.41391 0.77549 0.0
C247 C 0.41368 0.29996 0.80378 0.0
O248 O 0.33823 0.33763 0.77967 0.0
O249 O 0.3144 0.3028 0.80056 0.0
O250 O 0.40059 0.39175 0.81139 0.0
O251 O 0.35631 0.35879 0.81696 0.0
Co252 Co 0.8846 0.11656 0.04352 0.0
O253 O 0.84464 0.08802 0.03857 0.0
O254 O 0.86123 0.13207 0.022 0.0
C255 C 0.8742 0.12312 0.07311 0.0
O256 O 0.92183 0.15399 0.04481 0.0
Co257 Co 0.94264 0.09467 0.06988 0.0
O258 O 0.96051 0.14189 0.06633 0.0
C259 C 0.93973 0.06366 0.03384 0.0
C260 C 0.83885 0.10786 0.02492 0.0
C261 C 0.94841 0.16176 0.05434 0.0
O262 O 0.91573 0.08479 0.02911 0.0
O263 O 0.95127 0.06181 0.04984 0.0
O264 O 0.85801 0.14197 0.06147 0.0
O265 O 0.8936 0.09948 0.06649 0.0
Co266 Co 0.14061 0.64648 0.29694 0.0
O267 O 0.16813 0.60609 0.29075 0.0
O268 O 0.12158 0.62292 0.27643 0.0
C269 C 0.13751 0.63615 0.32672 0.0
O270 O 0.10296 0.68295 0.29929 0.0
Co271 Co 0.16286 0.7055 0.32242 0.0
O272 O 0.11479 0.72198 0.32062 0.0
C273 C 0.192 0.7022 0.28587 0.0
C274 C 0.14535 0.59986 0.27841 0.0
C275 C 0.09458 0.70897 0.30905 0.0
O276 O 0.17073 0.67787 0.28153 0.0
O277 O 0.19444 0.71408 0.3018 0.0
O278 O 0.11758 0.61984 0.31563 0.0
O279 O 0.16022 0.65596 0.31946 0.0
Co280 Co 0.60753 0.10157 0.96021 0.0
O281 O 0.64703 0.07417 0.96719 0.0
O282 O 0.63015 0.12153 0.98098 0.0
C283 C 0.61941 0.10182 0.93054 0.0
O284 O 0.57063 0.13862 0.95632 0.0
Co285 Co 0.55073 0.07546 0.93415 0.0
O286 O 0.54284 0.12548 0.93083 0.0
C287 C 0.55026 0.05236 0.97198 0.0
C288 C 0.65249 0.09684 0.97963 0.0
C289 C 0.55106 0.14683 0.94305 0.0
O290 O 0.57541 0.07293 0.97585 0.0
O291 O 0.53866 0.0485 0.95607 0.0
O292 O 0.63512 0.12304 0.94124 0.0
O293 O 0.59953 0.07981 0.93823 0.0
Co294 Co 0.14624 0.36761 0.21368 0.0
O295 O 0.1764 0.40601 0.21921 0.0
O296 O 0.1304 0.39204 0.23491 0.0
C297 C 0.14099 0.37936 0.18414 0.0
O298 O 0.10797 0.33108 0.21179 0.0
Co299 Co 0.16759 0.31017 0.18675 0.0
O300 O 0.11819 0.29801 0.18764 0.0
C301 C 0.19678 0.31039 0.22336 0.0
C302 C 0.15591 0.41315 0.23239 0.0
C303 C 0.09877 0.30774 0.20041 0.0
O304 O 0.17646 0.33512 0.22809 0.0
O305 O 0.19864 0.29905 0.20729 0.0
O306 O 0.12228 0.39557 0.1958 0.0
O307 O 0.16387 0.35904 0.19074 0.0
Co308 Co 0.89621 0.91324 0.46337 0.0
O309 O 0.85873 0.94488 0.46852 0.0
O310 O 0.86852 0.89673 0.48327 0.0
C311 C 0.88849 0.91189 0.43332 0.0
O312 O 0.93006 0.87268 0.46173 0.0
Co313 Co 0.95871 0.93225 0.43912 0.0
O314 O 0.97253 0.88362 0.44203 0.0
C315 C 0.95341 0.96118 0.47566 0.0
C316 C 0.849 0.92345 0.48087 0.0
C317 C 0.95721 0.86367 0.45295 0.0
O318 O 0.92836 0.94056 0.47963 0.0
O319 O 0.96599 0.96363 0.45989 0.0
O320 O 0.86952 0.89291 0.44371 0.0
O321 O 0.90928 0.93247 0.44138 0.0
Co322 Co 0.367 0.65165 0.71479 0.0
O323 O 0.34134 0.60971 0.71997 0.0
O324 O 0.38654 0.62735 0.73522 0.0
C325 C 0.36921 0.64343 0.68473 0.0
O326 O 0.40219 0.69123 0.71296 0.0
Co327 Co 0.33913 0.70998 0.68988 0.0
O328 O 0.38531 0.73059 0.69263 0.0
C329 C 0.31254 0.70324 0.72683 0.0
C330 C 0.3632 0.60388 0.73272 0.0
C331 C 0.40713 0.71904 0.70381 0.0
O332 O 0.33555 0.68039 0.73082 0.0
O333 O 0.30822 0.71481 0.71096 0.0
O334 O 0.39086 0.62759 0.69513 0.0
O335 O 0.3462 0.66125 0.69282 0.0
Co336 Co 0.39511 0.13369 0.46055 0.0
O337 O 0.35583 0.10451 0.4661 0.0
O338 O 0.37223 0.14941 0.48213 0.0
C339 C 0.38401 0.13917 0.43098 0.0
O340 O 0.43109 0.17212 0.45878 0.0
Co341 Co 0.45351 0.11312 0.43425 0.0
O342 O 0.46944 0.16131 0.43695 0.0
C343 C 0.45152 0.08202 0.47021 0.0
C344 C 0.35027 0.12468 0.47967 0.0
C345 C 0.45682 0.18095 0.44891 0.0
O346 O 0.42723 0.10289 0.4749 0.0
O347 O 0.46321 0.08033 0.45422 0.0
O348 O 0.36755 0.15791 0.44258 0.0
O349 O 0.4042 0.11622 0.43763 0.0
Co350 Co 0.64485 0.64442 0.21052 0.0
O351 O 0.67038 0.60285 0.21683 0.0
O352 O 0.62322 0.62035 0.23033 0.0
C353 C 0.64489 0.63524 0.18049 0.0
O354 O 0.6095 0.68346 0.20786 0.0
Co355 Co 0.6731 0.70253 0.18563 0.0
O356 O 0.62687 0.72319 0.18787 0.0
C357 C 0.69788 0.69701 0.22302 0.0
C358 C 0.64671 0.59683 0.22871 0.0
C359 C 0.60468 0.71133 0.19879 0.0
O360 O 0.67489 0.67398 0.22692 0.0
O361 O 0.70283 0.70818 0.20712 0.0
O362 O 0.6227 0.61955 0.19064 0.0
O363 O 0.66721 0.65366 0.18881 0.0
Co364 Co 0.10464 0.87921 0.96473 0.0
O365 O 0.14556 0.90589 0.97018 0.0
O366 O 0.12627 0.86271 0.98656 0.0
C367 C 0.11652 0.87221 0.93528 0.0
O368 O 0.06552 0.84376 0.96299 0.0
Co369 Co 0.04942 0.90421 0.9375 0.0
O370 O 0.02871 0.85815 0.94099 0.0
C371 C 0.05135 0.93446 0.97374 0.0
C372 C 0.14987 0.88586 0.9839 0.0
C373 C 0.0389 0.83765 0.95318 0.0
O374 O 0.07435 0.91243 0.9787 0.0
O375 O 0.04069 0.93697 0.95759 0.0
O376 O 0.13096 0.85251 0.94716 0.0
O377 O 0.09786 0.89671 0.94162 0.0
Co378 Co 0.87211 0.37525 0.71194 0.0
O379 O 0.84408 0.41483 0.71898 0.0
O380 O 0.89268 0.39959 0.73184 0.0
C381 C 0.87068 0.38551 0.68206 0.0
O382 O 0.9103 0.33945 0.70867 0.0
Co383 Co 0.84931 0.31558 0.68676 0.0
O384 O 0.89698 0.29825 0.68872 0.0
C385 C 0.82315 0.3188 0.72397 0.0
C386 C 0.86782 0.42171 0.73072 0.0
C387 C 0.9179 0.3123 0.69959 0.0
O388 O 0.84454 0.34313 0.72812 0.0
O389 O 0.81941 0.30755 0.708 0.0
O390 O 0.89189 0.40239 0.69226 0.0
O391 O 0.85006 0.36493 0.69023 0.0
Co392 Co 0.38277 0.87842 0.04711 0.0
O393 O 0.34347 0.90802 0.04253 0.0
O394 O 0.3578 0.86295 0.0261 0.0
C395 C 0.37396 0.87282 0.07692 0.0
O396 O 0.41852 0.83974 0.048 0.0
Co397 Co 0.44337 0.89861 0.07208 0.0
O398 O 0.45896 0.85049 0.0688 0.0
C399 C 0.43899 0.92948 0.03608 0.0
C400 C 0.33643 0.88791 0.02913 0.0
C401 C 0.44518 0.83091 0.05716 0.0
O402 O 0.41402 0.90892 0.03197 0.0
O403 O 0.45188 0.93112 0.05182 0.0
O404 O 0.35645 0.85433 0.06563 0.0
O405 O 0.39383 0.8957 0.06988 0.0
Co406 Co 0.85884 0.6505 0.79976 0.0
O407 O 0.82959 0.61141 0.79396 0.0
O408 O 0.87685 0.62515 0.7793 0.0
C409 C 0.86093 0.64073 0.82964 0.0
O410 O 0.89667 0.68737 0.80185 0.0
Co411 Co 0.83486 0.70956 0.82532 0.0
O412 O 0.88173 0.72815 0.82187 0.0
C413 C 0.80781 0.7058 0.78841 0.0
C414 C 0.85131 0.60392 0.78136 0.0
C415 C 0.90289 0.71522 0.81074 0.0
O416 O 0.82965 0.68201 0.78419 0.0
O417 O 0.804 0.71705 0.80438 0.0
O418 O 0.88103 0.62384 0.81888 0.0
O419 O 0.83895 0.66054 0.82199 0.0
Co420 Co 0.12214 0.13862 0.54707 0.0
O421 O 0.16046 0.1083 0.54148 0.0
O422 O 0.14575 0.15393 0.52562 0.0
C423 C 0.13335 0.14294 0.57671 0.0
O424 O 0.08736 0.17809 0.54883 0.0
Co425 Co 0.06283 0.11992 0.57315 0.0
O426 O 0.0476 0.16821 0.57008 0.0
C427 C 0.06435 0.08881 0.53715 0.0
C428 C 0.16681 0.12845 0.528 0.0
C429 C 0.06128 0.1875 0.55829 0.0
O430 O 0.08921 0.10906 0.5325 0.0
O431 O 0.05258 0.08737 0.55313 0.0
O432 O 0.15033 0.1616 0.56526 0.0
O433 O 0.11227 0.12098 0.56988 0.0
Co434 Co 0.65217 0.3631 0.29384 0.0
O435 O 0.68092 0.40284 0.28863 0.0
O436 O 0.63348 0.3899 0.27399 0.0
C437 C 0.65112 0.37106 0.32398 0.0
O438 O 0.61483 0.32534 0.2955 0.0
Co439 Co 0.67748 0.30292 0.31837 0.0
O440 O 0.63094 0.28381 0.31482 0.0
C441 C 0.70429 0.30999 0.28145 0.0
C442 C 0.65898 0.41111 0.2763 0.0
C443 C 0.60934 0.29678 0.30394 0.0
O444 O 0.68155 0.33308 0.27749 0.0
O445 O 0.70857 0.29837 0.29731 0.0
O446 O 0.6303 0.38824 0.31373 0.0
O447 O 0.67284 0.35192 0.31571 0.0
H448 H 1.00652 0.5082 0.97118 0.0
H449 H 0.93704 0.54672 0.01161 0.0
H450 H 0.96682 0.51229 0.03427 0.0
H451 H 0.0126 0.47177 0.04244 0.0
H452 H 0.08196 0.43396 1.00174 0.0
H453 H 0.05195 0.46816 0.97924 0.0
C454 C 0.99759 0.50918 0.98492 0.0
C455 C 0.96935 0.53015 0.98962 0.0
C456 C 0.0149 0.48961 0.99781 0.0
C457 C 0.95855 0.53087 0.00756 0.0
C458 C 0.97564 0.51122 0.02052 0.0
C459 C 0.02134 0.47095 0.02866 0.0
C460 C 0.04968 0.45017 0.02384 0.0
C461 C 1.0039 0.49061 0.01578 0.0
C462 C 0.06037 0.44961 0.00589 0.0
C463 C 0.04316 0.46914 0.993 0.0
H464 H 0.74448 0.74855 0.21876 0.0
H465 H 0.69917 0.68343 0.25933 0.0
H466 H 0.73305 0.71318 0.28228 0.0
H467 H 0.77462 0.75781 0.29065 0.0
H468 H 0.81916 0.82319 0.24996 0.0
H469 H 0.78585 0.79292 0.22706 0.0
C470 C 0.74189 0.74053 0.23259 0.0
C471 C 0.71913 0.71352 0.23724 0.0
C472 C 0.76112 0.7579 0.24565 0.0
C473 C 0.71639 0.70394 0.25531 0.0
C474 C 0.73572 0.72103 0.26842 0.0
C475 C 0.77721 0.76564 0.27679 0.0
C476 C 0.79959 0.79295 0.27209 0.0
C477 C 0.75802 0.74812 0.26373 0.0
C478 C 0.80226 0.80245 0.25402 0.0
C479 C 0.78324 0.78508 0.24092 0.0
H480 H 0.51638 0.49713 0.46829 0.0
H481 H 0.58638 0.45646 0.50789 0.0
H482 H 0.55846 0.49153 0.5309 0.0
H483 H 0.51449 0.53317 0.53962 0.0
H484 H 0.44436 0.57365 0.50003 0.0
H485 H 0.47239 0.53871 0.477 0.0
C486 C 0.52578 0.4958 0.48193 0.0
C487 C 0.55367 0.47402 0.48629 0.0
C488 C 0.50958 0.51589 0.49504 0.0
C489 C 0.56512 0.47287 0.5041 0.0
C490 C 0.54912 0.49292 0.51726 0.0
C491 C 0.50513 0.53454 0.52597 0.0
C492 C 0.47718 0.55623 0.52162 0.0
C493 C 0.52134 0.51444 0.51285 0.0
C494 C 0.4657 0.55733 0.50381 0.0
C495 C 0.48176 0.53735 0.49065 0.0
H496 H 0.77822 0.26599 0.71909 0.0
H497 H 0.82021 0.33194 0.76026 0.0
H498 H 0.78543 0.30189 0.78271 0.0
H499 H 0.74328 0.25751 0.79041 0.0
H500 H 0.70115 0.19191 0.74911 0.0
H501 H 0.7365 0.22147 0.72679 0.0
C502 C 0.77994 0.27406 0.73295 0.0
C503 C 0.80195 0.30146 0.73792 0.0
C504 C 0.76001 0.25666 0.74571 0.0
C505 C 0.80358 0.31113 0.75601 0.0
C506 C 0.78371 0.29389 0.76884 0.0
C507 C 0.74172 0.2494 0.77655 0.0
C508 C 0.71937 0.22232 0.7715 0.0
C509 C 0.76188 0.26665 0.76381 0.0
C510 C 0.71799 0.2125 0.75343 0.0
C511 C 0.73817 0.22948 0.74066 0.0
H512 H 0.01253 0.50662 0.53919 0.0
H513 H 0.94343 0.46846 0.49847 0.0
H514 H 0.97259 0.50434 0.47615 0.0
H515 H 0.01724 0.54649 0.46843 0.0
H516 H 0.08589 0.58448 0.50942 0.0
H517 H 0.05702 0.54822 0.53154 0.0
C518 C 1.0036 0.50595 0.52545 0.0
C519 C 0.97559 0.48469 0.52058 0.0
C520 C 0.02042 0.52655 0.51278 0.0
C521 C 0.96477 0.48445 0.50265 0.0
C522 C 0.98148 0.50498 0.48989 0.0
C523 C 0.0261 0.54692 0.48218 0.0
C524 C 0.05389 0.56838 0.4872 0.0
C525 C 0.0093 0.52611 0.49484 0.0
C526 C 0.06471 0.56838 0.50513 0.0
C527 C 0.04816 0.54764 0.51779 0.0
H528 H 0.73328 0.76772 0.72087 0.0
H529 H 0.68614 0.83159 0.76139 0.0
H530 H 0.71922 0.80148 0.78449 0.0
H531 H 0.7609 0.75709 0.79296 0.0
H532 H 0.8074 0.6933 0.75219 0.0
H533 H 0.77441 0.72352 0.72924 0.0
C534 C 0.73009 0.77539 0.73473 0.0
C535 C 0.70711 0.80215 0.73933 0.0
C536 C 0.74883 0.75784 0.74785 0.0
C537 C 0.70358 0.81128 0.75742 0.0
C538 C 0.72243 0.79398 0.77062 0.0
C539 C 0.76389 0.74956 0.77907 0.0
C540 C 0.78678 0.72277 0.77436 0.0
C541 C 0.74501 0.76716 0.76596 0.0
C542 C 0.79007 0.71364 0.75625 0.0
C543 C 0.77127 0.73101 0.74313 0.0
H544 H 0.50646 0.47479 0.96476 0.0
H545 H 0.43653 0.43632 0.00506 0.0
H546 H 0.46372 0.47322 0.02738 0.0
H547 H 0.50698 0.51545 0.0355 0.0
H548 H 0.57749 0.55466 0.99571 0.0
H549 H 0.55013 0.51804 0.97303 0.0
C550 C 0.49701 0.47442 0.97841 0.0
C551 C 0.46932 0.45258 0.98316 0.0
C552 C 0.51286 0.4957 0.99123 0.0
C553 C 0.45766 0.45268 1.00096 0.0
C554 C 0.47325 0.47379 0.01375 0.0
C555 C 0.51667 0.5162 0.02189 0.0
C556 C 0.54454 0.53793 0.0174 0.0
C557 C 0.50087 0.49525 0.00903 0.0
C558 C 0.55624 0.53828 0.99961 0.0
C559 C 0.54056 0.51733 0.98664 0.0
H560 H 0.78205 0.24935 0.21407 0.0
H561 H 0.82834 0.18683 0.25538 0.0
H562 H 0.79476 0.21712 0.27803 0.0
H563 H 0.75254 0.26045 0.28601 0.0
H564 H 0.70507 0.32287 0.24505 0.0
H565 H 0.7395 0.29341 0.22222 0.0
C566 C 0.78488 0.2422 0.22802 0.0
C567 C 0.80782 0.21564 0.23296 0.0
C568 C 0.76549 0.25975 0.24098 0.0
C569 C 0.81098 0.20698 0.25113 0.0
C570 C 0.7918 0.22436 0.2641 0.0
C571 C 0.74956 0.26792 0.27212 0.0
C572 C 0.72603 0.29401 0.26731 0.0
C573 C 0.76904 0.25071 0.25915 0.0
C574 C 0.72289 0.30303 0.24918 0.0
C575 C 0.74252 0.28609 0.23613 0.0
H576 H 0.27117 0.26155 0.79002 0.0
H577 H 0.30925 0.32951 0.74872 0.0
H578 H 0.27318 0.30005 0.7267 0.0
H579 H 0.23203 0.25471 0.71914 0.0
H580 H 0.19427 0.18628 0.76031 0.0
H581 H 0.2295 0.21644 0.78249 0.0
C582 C 0.2716 0.27022 0.77623 0.0
C583 C 0.29309 0.29795 0.77111 0.0
C584 C 0.25106 0.25296 0.76362 0.0
C585 C 0.2931 0.30843 0.75312 0.0
C586 C 0.2725 0.29149 0.7405 0.0
C587 C 0.23135 0.24616 0.73295 0.0
C588 C 0.21036 0.21799 0.73797 0.0
C589 C 0.2516 0.26362 0.7456 0.0
C590 C 0.21007 0.20769 0.75599 0.0
C591 C 0.23021 0.225 0.76869 0.0
H592 H 0.23883 0.75367 0.29086 0.0
H593 H 0.19602 0.68811 0.24977 0.0
H594 H 0.23227 0.71645 0.22741 0.0
H595 H 0.27565 0.75952 0.2196 0.0
H596 H 0.31884 0.82495 0.26064 0.0
H597 H 0.28241 0.79679 0.28303 0.0
C598 C 0.23729 0.74537 0.27703 0.0
C599 C 0.21449 0.71857 0.27208 0.0
C600 C 0.25814 0.76183 0.26425 0.0
C601 C 0.21317 0.70848 0.25404 0.0
C602 C 0.2339 0.72476 0.24124 0.0
C603 C 0.27722 0.76791 0.23342 0.0
C604 C 0.30015 0.7946 0.23834 0.0
C605 C 0.25639 0.75147 0.2462 0.0
C606 C 0.30156 0.80467 0.25639 0.0
C607 C 0.28073 0.78849 0.26921 0.0
H608 H 0.2801 0.25147 0.28905 0.0
H609 H 0.31943 0.18365 0.24804 0.0
H610 H 0.28308 0.21228 0.22584 0.0
H611 H 0.24096 0.25682 0.21813 0.0
H612 H 0.2023 0.32478 0.25926 0.0
H613 H 0.23803 0.2956 0.28143 0.0
C614 C 0.28082 0.24267 0.27528 0.0
C615 C 0.30265 0.21524 0.27029 0.0
C616 C 0.26012 0.25937 0.26261 0.0
C617 C 0.30298 0.20455 0.25232 0.0
C618 C 0.28223 0.22098 0.23961 0.0
C619 C 0.24025 0.26543 0.23193 0.0
C620 C 0.21882 0.29317 0.23695 0.0
C621 C 0.26084 0.24851 0.24461 0.0
C622 C 0.21843 0.30366 0.25495 0.0
C623 C 0.23886 0.28693 0.26765 0.0
H624 H 0.23286 0.76206 0.7941 0.0
H625 H 0.18791 0.82608 0.75301 0.0
H626 H 0.22266 0.79692 0.7304 0.0
H627 H 0.26498 0.75358 0.72235 0.0
H628 H 0.31069 0.68943 0.76314 0.0
H629 H 0.27579 0.71842 0.78593 0.0
C630 C 0.23063 0.76987 0.78022 0.0
C631 C 0.20763 0.79645 0.77532 0.0
C632 C 0.25056 0.75284 0.76727 0.0
C633 C 0.20528 0.8059 0.75722 0.0
C634 C 0.22511 0.78914 0.74428 0.0
C635 C 0.26746 0.74562 0.7362 0.0
C636 C 0.2906 0.7191 0.74095 0.0
C637 C 0.24767 0.76254 0.74916 0.0
C638 C 0.29316 0.70956 0.75903 0.0
C639 C 0.27327 0.72623 0.77207 0.0
H640 H 0.50574 0.99681 0.53613 0.0
H641 H 0.57706 0.95872 0.49647 0.0
H642 H 0.54938 0.99496 0.47375 0.0
H643 H 0.50526 0.03758 0.46544 0.0
H644 H 0.43464 0.07502 0.50565 0.0
H645 H 0.4621 0.03846 0.52799 0.0
C646 C 0.51553 0.99619 0.52254 0.0
C647 C 0.5437 0.97488 0.5181 0.0
C648 C 0.49959 0.01695 0.50968 0.0
C649 C 0.55556 0.97475 0.50033 0.0
C650 C 0.5397 0.99549 0.48735 0.0
C651 C 0.49571 0.03779 0.47908 0.0
C652 C 0.46775 0.05923 0.4838 0.0
C653 C 0.51172 0.01671 0.49191 0.0
C654 C 0.45599 0.05897 0.50158 0.0
C655 C 0.47171 0.03804 0.51437 0.0
H656 H 0.99874 0.97947 0.96829 0.0
H657 H 0.06609 0.94073 0.0096 0.0
H658 H 0.03695 0.97688 0.03167 0.0
H659 H 0.99248 0.01886 0.03918 0.0
H660 H 0.925 0.05759 0.99793 0.0
H661 H 0.95424 0.02156 0.97582 0.0
C662 C 0.0073 0.97889 0.98209 0.0
C663 C 0.03478 0.95728 0.98721 0.0
C664 C 0.9903 0.99955 0.99472 0.0
C665 C 0.04515 0.95701 0.00522 0.0
C666 C 0.02843 0.97766 0.01786 0.0
C667 C 0.98393 0.0195 0.02538 0.0
C668 C 0.95637 0.04105 0.02029 0.0
C669 C 1.00093 0.99889 0.01275 0.0
C670 C 0.94598 0.04134 1.00228 0.0
C671 C 0.96276 0.02077 0.98962 0.0
H672 H 0.49457 0.01032 0.96857 0.0
H673 H 0.56666 0.04859 0.00782 0.0
H674 H 0.53791 0.01464 0.03101 0.0
H675 H 0.49308 0.97365 0.03996 0.0
H676 H 0.42131 0.93526 1.00057 0.0
H677 H 0.44938 0.97009 0.97756 0.0
C678 C 0.5042 0.01137 0.98218 0.0
C679 C 0.53301 0.03207 0.98635 0.0
C680 C 0.48757 0.99181 0.99541 0.0
C681 C 0.54469 0.03298 1.00414 0.0
C682 C 0.52823 0.01354 0.01742 0.0
C683 C 0.48335 0.97285 0.02636 0.0
C684 C 0.45497 0.95163 0.02207 0.0
C685 C 0.49972 0.99281 0.01318 0.0
C686 C 0.44299 0.9512 0.00433 0.0
C687 C 0.45909 0.97111 0.99115 0.0
H688 H 0.01002 0.04523 0.54205 0.0
H689 H 0.08047 0.08195 0.50156 0.0
H690 H 0.05199 0.04587 0.47928 0.0
H691 H 0.00754 1.00453 0.47133 0.0
H692 H 0.93673 0.96728 0.51148 0.0
H693 H 0.96519 1.00334 0.53398 0.0
C694 C 0.01931 0.04541 0.52837 0.0
C695 C 0.04753 0.06645 0.52355 0.0
C696 C 1.00276 0.02463 0.5156 0.0
C697 C 0.05895 0.06616 0.50571 0.0
C698 C 0.04263 0.04552 0.49295 0.0
C699 C 0.99807 1.00412 0.48498 0.0
C700 C 0.96982 0.98304 0.48964 0.0
C701 C 0.01453 0.02476 0.49776 0.0
C702 C 0.9583 0.98313 0.50746 0.0
C703 C 0.9746 1.00375 0.52032 0.0
H704 H 0.01672 0.17596 0.05446 0.0
H705 H 0.91735 0.22375 0.04931 0.0
H706 H 0.94431 0.28077 0.04961 0.0
H707 H 0.99599 0.31702 0.05348 0.0
H708 H 0.09573 0.26933 0.0561 0.0
H709 H 0.06897 0.21222 0.05453 0.0
C710 C 1.00107 0.19891 0.05319 0.0
C711 C 0.96509 0.19575 0.05202 0.0
C712 C 0.01684 0.23153 0.05302 0.0
C713 C 0.94508 0.22557 0.05016 0.0
C714 C 0.96048 0.25814 0.05044 0.0
C715 C 0.01181 0.29406 0.05352 0.0
C716 C 0.04771 0.29722 0.05509 0.0
C717 C 0.99627 0.26144 0.05219 0.0
C718 C 0.06805 0.26743 0.05488 0.0
C719 C 0.05274 0.23484 0.05407 0.0
H720 H 0.07487 0.77625 0.31016 0.0
H721 H 0.03534 0.67313 0.30458 0.0
H722 H 0.97651 0.69521 0.30459 0.0
H723 H 0.93612 0.74373 0.30746 0.0
H724 H 0.97533 0.84733 0.31013 0.0
H725 H 0.0344 0.8254 0.30988 0.0
C726 C 0.05332 0.75872 0.30883 0.0
C727 C 0.05937 0.72309 0.30751 0.0
C728 C 0.01954 0.77171 0.30837 0.0
C729 C 0.03131 0.70065 0.30555 0.0
C730 C 0.99767 0.71325 0.30564 0.0
C731 C 0.95767 0.76145 0.30788 0.0
C732 C 0.95151 0.79704 0.30899 0.0
C733 C 0.99146 0.74868 0.30723 0.0
C734 C 0.97953 0.81982 0.30925 0.0
C735 C 0.01325 0.80728 0.30918 0.0
H736 H 0.52731 0.69728 0.55815 0.0
H737 H 0.42213 0.73175 0.55848 0.0
H738 H 0.4414 0.7918 0.55783 0.0
H739 H 0.4885 0.83462 0.55834 0.0
H740 H 0.59346 0.79984 0.5552 0.0
H741 H 0.5741 0.73991 0.55567 0.0
C742 C 0.50867 0.718 0.558 0.0
C743 C 0.47337 0.71019 0.55854 0.0
C744 C 0.51995 0.75239 0.55714 0.0
C745 C 0.44943 0.73718 0.55805 0.0
C746 C 0.46045 0.77149 0.55775 0.0
C747 C 0.50706 0.81386 0.55766 0.0
C748 C 0.54237 0.82159 0.55689 0.0
C749 C 0.49566 0.77943 0.55747 0.0
C750 C 0.56615 0.79451 0.55576 0.0
C751 C 0.5551 0.76025 0.55611 0.0
H752 H 0.53519 0.19213 0.80232 0.0
H753 H 0.59469 0.28571 0.80247 0.0
H754 H 0.54239 0.31985 0.79942 0.0
H755 H 0.47911 0.32363 0.7993 0.0
H756 H 0.41931 0.23047 0.8023 0.0
H757 H 0.47174 0.19588 0.80133 0.0
C758 C 0.53662 0.21994 0.8014 0.0
C759 C 0.56876 0.23634 0.8026 0.0
C760 C 0.50619 0.23961 0.8003 0.0
C761 C 0.57022 0.27248 0.80166 0.0
C762 C 0.5403 0.29206 0.79991 0.0
C763 C 0.47764 0.29576 0.79938 0.0
C764 C 0.44541 0.27963 0.80073 0.0
C765 C 0.50805 0.276 0.79957 0.0
C766 C 0.44387 0.24347 0.80122 0.0
C767 C 0.47386 0.22366 0.80072 0.0
H768 H 0.02411 0.84569 0.45619 0.0
H769 H 0.922 0.8029 0.45437 0.0
H770 H 0.94601 0.74454 0.45407 0.0
H771 H 0.99652 0.70584 0.45247 0.0
H772 H 0.0983 0.74889 0.45689 0.0
H773 H 0.0741 0.80695 0.45813 0.0
C774 C 0.00715 0.82352 0.45592 0.0
C775 C 0.97135 0.82851 0.45515 0.0
C776 C 0.02114 0.79015 0.45612 0.0
C777 C 0.94961 0.79966 0.45503 0.0
C778 C 0.96336 0.76633 0.45475 0.0
C779 C 0.01332 0.72798 0.45383 0.0
C780 C 0.04919 0.72315 0.45439 0.0
C781 C 0.99913 0.76127 0.45499 0.0
C782 C 0.07065 0.75195 0.45644 0.0
C783 C 0.05682 0.78515 0.45708 0.0
H784 H 0.52844 0.82755 0.70588 0.0
H785 H 0.58822 0.73486 0.70025 0.0
H786 H 0.53631 0.6999 0.70282 0.0
H787 H 0.47311 0.69546 0.70477 0.0
H788 H 0.41283 0.7882 0.70737 0.0
H789 H 0.46518 0.82307 0.70807 0.0
C790 C 0.53005 0.7997 0.7054 0.0
C791 C 0.56218 0.78389 0.70286 0.0
C792 C 0.49981 0.77964 0.70632 0.0
C793 C 0.56379 0.74774 0.70206 0.0
C794 C 0.53409 0.72766 0.70357 0.0
C795 C 0.47157 0.72326 0.70578 0.0
C796 C 0.4392 0.73922 0.70617 0.0
C797 C 0.50185 0.74329 0.70545 0.0
C798 C 0.4375 0.77533 0.7071 0.0
C799 C 0.46744 0.7953 0.70745 0.0
H800 H 0.52502 0.18807 0.96951 0.0
H801 H 0.54607 0.18464 0.91287 0.0
H802 H 0.52125 0.24185 0.90911 0.0
H803 H 0.49181 0.29212 0.92161 0.0
H804 H 0.46627 0.29431 0.97779 0.0
H805 H 0.49428 0.23855 0.98203 0.0
C806 C 0.52438 0.20009 0.95641 0.0
C807 C 0.53745 0.18227 0.9415 0.0
C808 C 0.50901 0.23269 0.95423 0.0
C809 C 0.53604 0.19784 0.92453 0.0
C810 C 0.52187 0.23055 0.92237 0.0
C811 C 0.49252 0.2805 0.93481 0.0
C812 C 0.47707 0.29749 0.94936 0.0
C813 C 0.50797 0.2481 0.93707 0.0
C814 C 0.47785 0.28178 0.96633 0.0
C815 C 0.49396 0.2499 0.96878 0.0
H816 H 0.0637 0.27379 0.17457 0.0
H817 H 0.05771 0.30172 0.23036 0.0
H818 H 1.00395 0.26909 0.23328 0.0
H819 H 0.95836 0.23213 0.21972 0.0
H820 H 0.9641 0.20805 0.16345 0.0
H821 H 0.01843 0.2391 0.16104 0.0
C822 C 0.05073 0.2728 0.18741 0.0
C823 C 0.06493 0.2901 0.20225 0.0
C824 C 0.01984 0.25432 0.18893 0.0
C825 C 0.04736 0.28881 0.21869 0.0
C826 C 0.0167 0.26996 0.22039 0.0
C827 C 0.97181 0.23346 0.20703 0.0
C828 C 0.95746 0.21753 0.1918 0.0
C829 C 1.00273 0.25242 0.2056 0.0
C830 C 0.97471 0.22 0.17534 0.0
C831 C 1.00572 0.23783 0.17394 0.0
H832 H 0.93446 0.71277 0.95391 0.0
H833 H 0.02867 0.65652 0.96132 0.0
H834 H 0.06088 0.7104 0.96368 0.0
H835 H 0.06308 0.77364 0.96117 0.0
H836 H 0.96975 0.8296 0.9506 0.0
H837 H 0.93652 0.77627 0.95204 0.0
C838 C 0.96193 0.71248 0.95635 0.0
C839 C 0.97917 0.68083 0.95757 0.0
C840 C 0.98054 0.74364 0.95697 0.0
C841 C 0.01488 0.68066 0.96037 0.0
C842 C 0.03332 0.71145 0.96168 0.0
C843 C 0.03542 0.77413 0.95946 0.0
C844 C 0.01891 0.80551 0.95583 0.0
C845 C 0.01657 0.74312 0.95965 0.0
C846 C 0.98308 0.80573 0.95335 0.0
C847 C 0.96403 0.77522 0.95416 0.0
H848 H 0.93469 0.2445 0.70199 0.0
H849 H 0.97886 0.34626 0.70154 0.0
H850 H 0.0367 0.32157 0.70245 0.0
H851 H 0.07475 0.27088 0.70198 0.0
H852 H 0.03087 0.1692 0.70517 0.0
H853 H 0.97289 0.19385 0.70479 0.0
C854 C 0.95704 0.26119 0.70218 0.0
C855 C 0.95262 0.29713 0.70149 0.0
C856 C 0.99019 0.24679 0.70322 0.0
C857 C 0.98168 0.31854 0.70205 0.0
C858 C 0.01472 0.30442 0.70252 0.0
C859 C 0.05244 0.25418 0.70275 0.0
C860 C 0.05699 0.21827 0.70346 0.0
C861 C 0.01929 0.26859 0.70292 0.0
C862 C 0.02797 0.19691 0.70469 0.0
C863 C 0.99485 0.211 0.70436 0.0
H864 H 0.49565 0.33888 0.45091 0.0
H865 H 0.59784 0.29677 0.44788 0.0
H866 H 0.57426 0.2383 0.44822 0.0
H867 H 0.52421 0.19915 0.44805 0.0
H868 H 0.42238 0.24105 0.45396 0.0
H869 H 0.446 0.29952 0.454 0.0
C870 C 0.51267 0.31683 0.45043 0.0
C871 C 0.54838 0.32201 0.44919 0.0
C872 C 0.49896 0.2833 0.45116 0.0
C873 C 0.57028 0.29334 0.44886 0.0
C874 C 0.55679 0.25994 0.44899 0.0
C875 C 0.50729 0.22113 0.4495 0.0
C876 C 0.4716 0.21589 0.45087 0.0
C877 C 0.52115 0.2546 0.44995 0.0
C878 C 0.44994 0.24448 0.45296 0.0
C879 C 0.46342 0.2779 0.45289 0.0
H880 H 0.48322 0.81916 0.20376 0.0
H881 H 0.42313 0.72601 0.20294 0.0
H882 H 0.47557 0.69137 0.20371 0.0
H883 H 0.53898 0.68745 0.20272 0.0
H884 H 0.59874 0.78076 0.20025 0.0
H885 H 0.5465 0.81525 0.2027 0.0
C886 C 0.48172 0.79129 0.20401 0.0
C887 C 0.4494 0.77515 0.20345 0.0
C888 C 0.51208 0.77149 0.20371 0.0
C889 C 0.44776 0.739 0.2034 0.0
C890 C 0.47774 0.71918 0.20381 0.0
C891 C 0.54048 0.71532 0.20292 0.0
C892 C 0.57268 0.73151 0.20136 0.0
C893 C 0.51012 0.7351 0.20369 0.0
C894 C 0.57423 0.76768 0.20136 0.0
C895 C 0.54436 0.78744 0.20278 0.0
H896 H 0.02665 0.34614 0.55495 0.0
H897 H 0.9232 0.30683 0.55735 0.0
H898 H 0.94516 0.2477 0.5574 0.0
H899 H 0.99422 0.20729 0.55837 0.0
H900 H 0.09733 0.24667 0.55322 0.0
H901 H 0.07522 0.30562 0.55249 0.0
C902 C 0.00897 0.32456 0.55533 0.0
C903 C 0.97339 0.33073 0.55631 0.0
C904 C 0.02177 0.29071 0.55491 0.0
C905 C 0.95067 0.30265 0.55655 0.0
C906 C 0.96324 0.26888 0.55667 0.0
C907 C 0.01176 0.22882 0.55694 0.0
C908 C 0.04738 0.22272 0.55601 0.0
C909 C 0.99877 0.26261 0.55609 0.0
C910 C 0.06983 0.25075 0.55392 0.0
C911 C 0.0572 0.28444 0.55359 0.0
H912 H 0.4883 0.18821 0.29965 0.0
H913 H 0.42793 0.28102 0.30078 0.0
H914 H 0.48004 0.31598 0.29898 0.0
H915 H 0.54342 0.32047 0.29975 0.0
H916 H 0.60365 0.22755 0.30138 0.0
H917 H 0.55161 0.19269 0.2993 0.0
C918 C 0.48663 0.21605 0.29915 0.0
C919 C 0.45431 0.23197 0.30028 0.0
C920 C 0.51691 0.23614 0.29879 0.0
C921 C 0.45255 0.26814 0.29995 0.0
C922 C 0.48237 0.28819 0.29896 0.0
C923 C 0.54508 0.29263 0.29937 0.0
C924 C 0.57738 0.27669 0.30074 0.0
C925 C 0.5148 0.27255 0.29877 0.0
C926 C 0.57908 0.2405 0.30046 0.0
C927 C 0.5493 0.22048 0.29927 0.0
H928 H 0.5126 0.81308 0.05631 0.0
H929 H 0.41048 0.77064 0.05276 0.0
H930 H 0.43426 0.7123 0.05206 0.0
H931 H 0.48423 0.67323 0.05407 0.0
H932 H 0.58647 0.71591 0.05487 0.0
H933 H 0.5627 0.77424 0.05494 0.0
C934 C 0.49563 0.79101 0.05522 0.0
C935 C 0.45984 0.79606 0.05473 0.0
C936 C 0.50955 0.75763 0.05441 0.0
C937 C 0.43811 0.76736 0.05309 0.0
C938 C 0.4517 0.73402 0.05279 0.0
C939 C 0.50122 0.69537 0.05413 0.0
C940 C 0.53702 0.69037 0.05464 0.0
C941 C 0.48736 0.72882 0.05369 0.0
C942 C 0.55884 0.71917 0.05445 0.0
C943 C 0.54525 0.75249 0.05456 0.0
H944 H 0.96856 0.6905 0.81047 0.0
H945 H 0.90941 0.78344 0.80466 0.0
H946 H 0.96213 0.8174 0.80231 0.0
H947 H 0.02529 0.82138 0.80413 0.0
H948 H 0.08426 0.72921 0.81308 0.0
H949 H 0.03194 0.69443 0.8119 0.0
C950 C 0.96737 0.7181 0.80842 0.0
C951 C 0.93523 0.73445 0.80763 0.0
C952 C 0.9979 0.73771 0.80778 0.0
C953 C 0.93393 0.77033 0.80531 0.0
C954 C 0.96406 0.78977 0.80398 0.0
C955 C 0.02665 0.79365 0.80556 0.0
C956 C 0.0586 0.77791 0.80863 0.0
C957 C 0.99623 0.77387 0.80552 0.0
C958 C 0.05994 0.74196 0.81076 0.0
C959 C 0.03001 0.72203 0.81009 0.0
H960 H 0.30571 0.43222 0.9864 0.0
H961 H 0.32564 0.32408 0.9942 0.0
H962 H 0.27038 0.31717 0.00907 0.0
H963 H 0.21592 0.34136 0.01991 0.0
H964 H 0.1978 0.45028 0.01556 0.0
H965 H 0.25224 0.45743 0.9993 0.0
C966 C 0.29797 0.40725 0.99146 0.0
C967 C 0.31991 0.37872 0.98913 0.0
C968 C 0.26622 0.40352 1.00052 0.0
C969 C 0.30952 0.34656 0.99589 0.0
C970 C 0.27774 0.34248 0.00433 0.0
C971 C 0.2238 0.36661 0.01525 0.0
C972 C 0.20261 0.39515 0.0186 0.0
C973 C 0.25579 0.37068 0.00665 0.0
C974 C 0.21355 0.42788 0.01296 0.0
C975 C 0.24473 0.43195 1.00371 0.0
H976 H 0.82289 0.05235 0.23694 0.0
H977 H 0.9308 0.06982 0.2465 0.0
H978 H 0.935 0.0147 0.26199 0.0
H979 H 0.90853 0.96065 0.27239 0.0
H980 H 0.79973 0.94507 0.26574 0.0
H981 H 0.79531 0.99987 0.24953 0.0
C982 C 0.84724 0.0442 0.24255 0.0
C983 C 0.87652 0.06532 0.24048 0.0
C984 C 0.84937 0.01252 0.25183 0.0
C985 C 0.9078 0.05435 0.24795 0.0
C986 C 0.9103 0.02264 0.25674 0.0
C987 C 0.88389 0.96919 0.26729 0.0
C988 C 0.85459 0.94852 0.26997 0.0
C989 C 0.88137 1.00135 0.25862 0.0
C990 C 0.82269 0.96035 0.2637 0.0
C991 C 0.82018 0.99174 0.25447 0.0
H992 H 0.21678 0.58064 0.48943 0.0
H993 H 0.20298 0.68948 0.49828 0.0
H994 H 0.25846 0.69268 0.51322 0.0
H995 H 0.3116 0.66524 0.52353 0.0
H996 H 0.32415 0.55571 0.51791 0.0
H997 H 0.26894 0.55202 0.50201 0.0
C998 C 0.22588 0.60496 0.49474 0.0
C999 C 0.20559 0.63481 0.49264 0.0
C1000 C 0.25782 0.60655 0.50382 0.0
C1001 C 0.21776 0.66605 0.49974 0.0
C1002 C 0.24969 0.66799 0.50824 0.0
C1003 C 0.30233 0.64057 0.51874 0.0
C1004 C 0.32223 0.61088 0.52162 0.0
C1005 C 0.27005 0.63852 0.51026 0.0
C1006 C 0.30945 0.57898 0.51574 0.0
C1007 C 0.27784 0.5769 0.50666 0.0
H1008 H 0.60072 0.06014 0.76895 0.0
H1009 H 0.71051 0.07271 0.76611 0.0
H1010 H 0.71574 0.01714 0.75075 0.0
H1011 H 0.68887 0.96429 0.73821 0.0
H1012 H 0.57963 0.94956 0.74412 0.0
H1013 H 0.57445 1.006 0.75823 0.0
C1014 C 0.62574 0.05082 0.76481 0.0
C1015 C 0.65514 0.07087 0.76838 0.0
C1016 C 0.62866 0.01811 0.75665 0.0
C1017 C 0.68747 0.05796 0.76337 0.0
C1018 C 0.69046 0.02611 0.75463 0.0
C1019 C 0.66398 0.97338 0.74268 0.0
C1020 C 0.63467 0.95254 0.74003 0.0
C1021 C 0.66124 1.0058 0.75124 0.0
C1022 C 0.60267 0.96477 0.74604 0.0
C1023 C 0.59963 0.99724 0.75405 0.0
H1024 H 0.709 0.55373 0.01976 0.0
H1025 H 0.69372 0.66307 0.01388 0.0
H1026 H 0.75064 0.66908 1.00068 0.0
H1027 H 0.80523 0.64367 0.99063 0.0
H1028 H 0.81898 0.53387 0.99323 0.0
H1029 H 0.76285 0.52763 0.00789 0.0
C1030 C 0.71811 0.57879 0.01549 0.0
C1031 C 0.69692 0.60789 0.01786 0.0
C1032 C 0.7509 0.58205 0.00742 0.0
C1033 C 0.70918 0.64016 0.01215 0.0
C1034 C 0.74193 0.6437 0.00466 0.0
C1035 C 0.79605 0.61842 0.99458 0.0
C1036 C 0.81651 0.58934 0.99115 0.0
C1037 C 0.76311 0.61491 1.00228 0.0
C1038 C 0.80385 0.55669 0.99589 0.0
C1039 C 0.77168 0.55312 0.00422 0.0
H1040 H 0.18554 0.95875 0.77391 0.0
H1041 H 0.07867 0.93861 0.76279 0.0
H1042 H 0.0734 0.99449 0.74814 0.0
H1043 H 0.09872 0.04982 0.73868 0.0
H1044 H 0.20679 0.06793 0.74662 0.0
H1045 H 0.21206 0.01267 0.76234 0.0
C1046 C 0.16119 0.96652 0.76815 0.0
C1047 C 0.13252 0.94437 0.76952 0.0
C1048 C 0.15848 0.99864 0.75931 0.0
C1049 C 0.10123 0.95487 0.76187 0.0
C1050 C 0.0981 0.98702 0.75356 0.0
C1051 C 0.12336 0.04174 0.74399 0.0
C1052 C 0.1522 0.06325 0.74182 0.0
C1053 C 0.12644 0.00925 0.75231 0.0
C1054 C 0.18415 0.05201 0.7483 0.0
C1055 C 0.18716 0.02035 0.75724 0.0
H1056 H 0.81168 0.37423 0.51783 0.0
H1057 H 0.82213 0.48453 0.51694 0.0
H1058 H 0.76744 0.48949 0.50073 0.0
H1059 H 0.7159 0.46195 0.48683 0.0
H1060 H 0.70405 0.35183 0.49089 0.0
H1061 H 0.75946 0.34737 0.50581 0.0
C1062 C 0.80211 0.39936 0.51398 0.0
C1063 C 0.82125 0.42893 0.51835 0.0
C1064 C 0.77006 0.40204 0.50529 0.0
C1065 C 0.80803 0.46135 0.51364 0.0
C1066 C 0.7767 0.46417 0.50438 0.0
C1067 C 0.72545 0.43705 0.49105 0.0
C1068 C 0.70567 0.40726 0.48766 0.0
C1069 C 0.75734 0.43466 0.50015 0.0
C1070 C 0.71843 0.37523 0.49338 0.0
C1071 C 0.75031 0.37258 0.50186 0.0
H1072 H 0.41873 0.04869 0.2711 0.0
H1073 H 0.3125 0.0726 0.26115 0.0
H1074 H 0.30448 0.01667 0.24646 0.0
H1075 H 0.32781 0.96029 0.23658 0.0
H1076 H 0.43266 0.93452 0.24948 0.0
H1077 H 0.44094 0.99113 0.26299 0.0
C1078 C 0.39396 0.04172 0.26552 0.0
C1079 C 0.36642 0.06505 0.26684 0.0
C1080 C 0.38918 0.00883 0.2578 0.0
C1081 C 0.33418 0.05528 0.26007 0.0
C1082 C 0.32958 0.02321 0.25174 0.0
C1083 C 0.35238 0.96698 0.24247 0.0
C1084 C 0.37956 0.94296 0.24195 0.0
C1085 C 0.35685 0.99961 0.25059 0.0
C1086 C 0.41117 0.95219 0.24975 0.0
C1087 C 0.41604 0.98477 0.2574 0.0
H1088 H 0.80826 0.8732 0.49461 0.0
H1089 H 0.81428 0.98319 0.48822 0.0
H1090 H 0.75816 0.9897 0.50282 0.0
H1091 H 0.70629 0.9636 0.51714 0.0
H1092 H 0.6991 0.85301 0.52035 0.0
H1093 H 0.7562 0.84732 0.50737 0.0
C1094 C 0.79746 0.89864 0.49657 0.0
C1095 C 0.81575 0.92769 0.49056 0.0
C1096 C 0.7646 0.90207 0.50434 0.0
C1097 C 0.80091 0.9604 0.49284 0.0
C1098 C 0.76873 0.96412 0.50116 0.0
C1099 C 0.71726 0.93833 0.51493 0.0
C1100 C 0.69825 0.90877 0.51971 0.0
C1101 C 0.75013 0.9351 0.5069 0.0
C1102 C 0.71285 0.8762 0.51665 0.0
C1103 C 0.74569 0.87287 0.50929 0.0
H1104 H 0.35752 0.53816 0.72025 0.0
H1105 H 0.36858 0.59662 0.76891 0.0
H1106 H 0.36802 0.54331 0.7865 0.0
H1107 H 0.36531 0.47961 0.78804 0.0
H1108 H 0.36221 0.42093 0.73916 0.0
H1109 H 0.35873 0.4743 0.72167 0.0
C1110 C 0.35961 0.53915 0.73472 0.0
C1111 C 0.36257 0.57136 0.74331 0.0
C1112 C 0.36077 0.5082 0.74468 0.0
C1113 C 0.36608 0.57222 0.76201 0.0
C1114 C 0.36575 0.5417 0.77206 0.0
C1115 C 0.3637 0.47859 0.77355 0.0
C1116 C 0.36352 0.44633 0.7649 0.0
C1117 C 0.36321 0.5095 0.76356 0.0
C1118 C 0.36222 0.44539 0.74612 0.0
C1119 C 0.36022 0.47594 0.73613 0.0
H1120 H 0.77366 0.09529 0.03638 0.0
H1121 H 0.83319 0.11384 0.98871 0.0
H1122 H 0.7811 0.10974 0.97038 0.0
H1123 H 0.71808 0.10228 0.96797 0.0
H1124 H 0.65767 0.09114 0.01591 0.0
H1125 H 0.71024 0.09089 0.03411 0.0
C1126 C 0.77517 0.09814 0.02196 0.0
C1127 C 0.8073 0.10437 0.01385 0.0
C1128 C 0.74483 0.09719 0.01159 0.0
C1129 C 0.80881 0.10885 0.99522 0.0
C1130 C 0.77901 0.10652 0.98475 0.0
C1131 C 0.71657 0.09961 0.9824 0.0
C1132 C 0.68419 0.09626 0.99063 0.0
C1133 C 0.74684 0.10088 0.99279 0.0
C1134 C 0.68236 0.09354 0.00933 0.0
C1135 C 0.71241 0.09341 0.0197 0.0
H1136 H 0.19616 0.5514 0.27284 0.0
H1137 H 0.08903 0.57208 0.26272 0.0
H1138 H 0.0822 0.51548 0.24918 0.0
H1139 H 0.10625 0.45964 0.24001 0.0
H1140 H 0.21437 0.44056 0.24677 0.0
H1141 H 0.2212 0.4963 0.26187 0.0
C1142 C 0.17142 0.54356 0.26756 0.0
C1143 C 0.14318 0.56618 0.26884 0.0
C1144 C 0.16773 0.51092 0.25932 0.0
C1145 C 0.11133 0.55552 0.26183 0.0
C1146 C 0.10728 0.52294 0.25416 0.0
C1147 C 0.1312 0.46757 0.245 0.0
C1148 C 0.15962 0.44573 0.24264 0.0
C1149 C 0.1352 0.50033 0.25289 0.0
C1150 C 0.19203 0.45676 0.24865 0.0
C1151 C 0.19595 0.48871 0.25721 0.0
H1152 H 0.23309 0.1206 0.53861 0.0
H1153 H 0.16946 0.12789 0.49162 0.0
H1154 H 0.22044 0.12385 0.47241 0.0
H1155 H 0.28368 0.12112 0.469 0.0
H1156 H 0.34757 0.12216 0.51604 0.0
H1157 H 0.29641 0.11993 0.53521 0.0
C1158 C 0.23049 0.12089 0.52415 0.0
C1159 C 0.19758 0.12402 0.51649 0.0
C1160 C 0.2601 0.12019 0.51323 0.0
C1161 C 0.19452 0.12527 0.49778 0.0
C1162 C 0.22367 0.123 0.48681 0.0
C1163 C 0.28628 0.12044 0.48345 0.0
C1164 C 0.3193 0.12126 0.49114 0.0
C1165 C 0.25666 0.12082 0.49437 0.0
C1166 C 0.32241 0.12129 0.50986 0.0
C1167 C 0.29316 0.12007 0.5208 0.0
H1168 H 0.60822 0.45662 0.26779 0.0
H1169 H 0.71724 0.4404 0.26294 0.0
H1170 H 0.72348 0.49584 0.24759 0.0
H1171 H 0.69783 0.54971 0.2357 0.0
H1172 H 0.58963 0.5681 0.24353 0.0
H1173 H 0.58327 0.51175 0.25759 0.0
C1174 C 0.63327 0.46513 0.26321 0.0
C1175 C 0.66215 0.4441 0.26622 0.0
C1176 C 0.63687 0.4978 0.25505 0.0
C1177 C 0.69458 0.45593 0.26064 0.0
C1178 C 0.69816 0.48772 0.2519 0.0
C1179 C 0.67291 0.54144 0.24057 0.0
C1180 C 0.64425 0.56331 0.23849 0.0
C1181 C 0.66951 0.50904 0.24909 0.0
C1182 C 0.61221 0.5521 0.24502 0.0
C1183 C 0.60847 0.51967 0.253 0.0
H1184 H 0.21487 0.90137 0.97323 0.0
H1185 H 0.15556 0.87348 0.01974 0.0
H1186 H 0.2077 0.87439 0.03815 0.0
H1187 H 0.27084 0.88107 0.04082 0.0
H1188 H 0.33078 0.90196 0.9936 0.0
H1189 H 0.27809 0.90598 0.97566 0.0
C1190 C 0.21337 0.89582 0.98744 0.0
C1191 C 0.18131 0.88776 0.99517 0.0
C1192 C 0.24371 0.89505 0.99778 0.0
C1193 C 0.17987 0.87986 0.0135 0.0
C1194 C 0.2097 0.88038 0.02402 0.0
C1195 C 0.27219 0.8868 0.02662 0.0
C1196 C 0.30449 0.89172 0.01853 0.0
C1197 C 0.24183 0.88766 0.01629 0.0
C1198 C 0.30614 0.89836 1.00009 0.0
C1199 C 0.27603 0.9006 0.98986 0.0
H1200 H 0.81486 0.46597 0.73943 0.0
H1201 H 0.92441 0.45255 0.74451 0.0
H1202 H 0.92932 0.50826 0.75927 0.0
H1203 H 0.90286 0.5613 0.77092 0.0
H1204 H 0.79293 0.57281 0.76899 0.0
H1205 H 0.78777 0.51802 0.75285 0.0
C1206 C 0.83974 0.47522 0.74385 0.0
C1207 C 0.86922 0.45491 0.7408 0.0
C1208 C 0.84237 0.50726 0.75283 0.0
C1209 C 0.90122 0.46733 0.74675 0.0
C1210 C 0.90413 0.49939 0.75513 0.0
C1211 C 0.87782 0.55193 0.76681 0.0
C1212 C 0.84837 0.57141 0.77088 0.0
C1213 C 0.87496 0.51968 0.7582 0.0
C1214 C 0.81601 0.55846 0.76589 0.0
C1215 C 0.81307 0.52705 0.75669 0.0
H1216 H 0.10176 0.40886 0.10358 0.0
H1217 H 0.18018 0.33224 0.09489 0.0
H1218 H 0.18819 0.32655 0.12721 0.0
H1219 H 0.17375 0.34415 0.15785 0.0
H1220 H 0.0952 0.42058 0.16662 0.0
H1221 H 0.08639 0.42555 0.1343 0.0
C1222 C 0.12054 0.39084 0.10875 0.0
C1223 C 0.14041 0.37105 0.09685 0.0
C1224 C 0.12503 0.38774 0.12734 0.0
C1225 C 0.16458 0.34778 0.10377 0.0
C1226 C 0.1692 0.34455 0.12224 0.0
C1227 C 0.15465 0.36187 0.1527 0.0
C1228 C 0.13521 0.38205 0.16462 0.0
C1229 C 0.14971 0.36453 0.13414 0.0
C1230 C 0.11052 0.40479 0.15773 0.0
C1231 C 0.10548 0.40765 0.13926 0.0
H1232 H 0.84923 0.86966 0.41247 0.0
H1233 H 0.92754 0.9482 0.40978 0.0
H1234 H 0.92756 0.94489 0.37721 0.0
H1235 H 0.90494 0.92023 0.34929 0.0
H1236 H 0.82651 0.84182 0.35191 0.0
H1237 H 0.82699 0.84456 0.38452 0.0
C1238 C 0.8663 0.88599 0.40474 0.0
C1239 C 0.88828 0.90912 0.41356 0.0
C1240 C 0.86617 0.88405 0.38593 0.0
C1241 C 0.9103 0.93013 0.40335 0.0
C1242 C 0.91035 0.9283 0.38469 0.0
C1243 C 0.888 0.90374 0.35701 0.0
C1244 C 0.86574 0.88092 0.34817 0.0
C1245 C 0.88834 0.90544 0.37582 0.0
C1246 C 0.84395 0.85966 0.35837 0.0
C1247 C 0.84416 0.86119 0.37704 0.0
H1248 H 0.41327 0.6075 0.66306 0.0
H1249 H 0.32876 0.67928 0.66186 0.0
H1250 H 0.32964 0.67937 0.62934 0.0
H1251 H 0.35347 0.65845 0.60098 0.0
H1252 H 0.43723 0.58588 0.60183 0.0
H1253 H 0.43752 0.58676 0.63447 0.0
C1254 C 0.39517 0.6232 0.65565 0.0
C1255 C 0.37109 0.64334 0.66493 0.0
C1256 C 0.39555 0.62299 0.63679 0.0
C1257 C 0.34769 0.66352 0.65512 0.0
C1258 C 0.34808 0.6636 0.63646 0.0
C1259 C 0.37181 0.6429 0.60832 0.0
C1260 C 0.39522 0.62218 0.59897 0.0
C1261 C 0.37176 0.64334 0.62714 0.0
C1262 C 0.41884 0.60212 0.60868 0.0
C1263 C 0.41907 0.60256 0.62739 0.0
H1264 H 0.60478 0.09665 0.8463 0.0
H1265 H 0.67452 0.18264 0.85055 0.0
H1266 H 0.67377 0.1781 0.88307 0.0
H1267 H 0.65426 0.14902 0.91049 0.0
H1268 H 0.58567 0.06209 0.90625 0.0
H1269 H 0.58515 0.06762 0.87375 0.0
C1270 C 0.61961 0.11449 0.85436 0.0
C1271 C 0.63957 0.13995 0.84599 0.0
C1272 C 0.61948 0.11147 0.87314 0.0
C1273 C 0.65887 0.16277 0.85663 0.0
C1274 C 0.65854 0.16018 0.87527 0.0
C1275 C 0.63927 0.13127 0.90244 0.0
C1276 C 0.6201 0.1052 0.9108 0.0
C1277 C 0.63915 0.13448 0.88368 0.0
C1278 C 0.60072 0.08243 0.90018 0.0
C1279 C 0.60034 0.08556 0.88156 0.0
H1280 H 0.17177 0.67271 0.35212 0.0
H1281 H 0.09322 0.59528 0.34547 0.0
H1282 H 0.08633 0.59157 0.37794 0.0
H1283 H 0.10309 0.60973 0.40816 0.0
H1284 H 0.18118 0.68755 0.41493 0.0
H1285 H 0.1877 0.69179 0.38242 0.0
C1286 C 0.15311 0.65504 0.35777 0.0
C1287 C 0.13309 0.63422 0.34638 0.0
C1288 C 0.14921 0.65313 0.37645 0.0
C1289 C 0.10897 0.61156 0.35392 0.0
C1290 C 0.10502 0.60941 0.37249 0.0
C1291 C 0.1215 0.62769 0.40254 0.0
C1292 C 0.14169 0.64826 0.41396 0.0
C1293 C 0.12507 0.63 0.38387 0.0
C1294 C 0.16534 0.67144 0.40645 0.0
C1295 C 0.16911 0.67383 0.38786 0.0
H1296 H 0.59716 0.92014 0.65954 0.0
H1297 H 0.67678 0.84295 0.65995 0.0
H1298 H 0.6797 0.84429 0.62745 0.0
H1299 H 0.66032 0.86773 0.59866 0.0
H1300 H 0.58176 0.94595 0.59808 0.0
H1301 H 0.57789 0.94384 0.63062 0.0
C1302 C 0.61502 0.90356 0.65249 0.0
C1303 C 0.63656 0.88144 0.6622 0.0
C1304 C 0.61692 0.90467 0.63367 0.0
C1305 C 0.65975 0.86022 0.65286 0.0
C1306 C 0.66154 0.86095 0.63422 0.0
C1307 C 0.64239 0.8843 0.60567 0.0
C1308 C 0.62139 0.90687 0.59593 0.0
C1309 C 0.64036 0.88315 0.62446 0.0
C1310 C 0.59827 0.92824 0.60523 0.0
C1311 C 0.59598 0.92709 0.62387 0.0
H1312 H 0.34942 0.34068 0.84958 0.0
H1313 H 0.42829 0.41696 0.8408 0.0
H1314 H 0.43722 0.42174 0.87315 0.0
H1315 H 0.42142 0.40535 0.90391 0.0
H1316 H 0.34319 0.32831 0.91251 0.0
H1317 H 0.33529 0.32264 0.88018 0.0
C1318 C 0.36868 0.35828 0.85471 0.0
C1319 C 0.38807 0.37857 0.84279 0.0
C1320 C 0.37372 0.36079 0.87329 0.0
C1321 C 0.41301 0.40109 0.84969 0.0
C1322 C 0.41808 0.40387 0.86818 0.0
C1323 C 0.4027 0.38724 0.89872 0.0
C1324 C 0.38278 0.36738 0.91062 0.0
C1325 C 0.3984 0.38402 0.88011 0.0
C1326 C 0.35881 0.3439 0.90366 0.0
C1327 C 0.35425 0.34069 0.88517 0.0
H1328 H 0.84573 0.16018 0.15405 0.0
H1329 H 0.9251 0.08417 0.16176 0.0
H1330 H 0.92996 0.07673 0.12935 0.0
H1331 H 0.91106 0.09116 0.09896 0.0
H1332 H 0.83245 0.1679 0.09112 0.0
H1333 H 0.82797 0.17584 0.12355 0.0
C1334 C 0.86415 0.14201 0.14865 0.0
C1335 C 0.88497 0.12265 0.1603 0.0
C1336 C 0.86692 0.13803 0.13002 0.0
C1337 C 0.90877 0.09934 0.15309 0.0
C1338 C 0.91154 0.09507 0.13456 0.0
C1339 C 0.89298 0.10971 0.10432 0.0
C1340 C 0.87202 0.12885 0.09265 0.0
C1341 C 0.89066 0.11419 0.12292 0.0
C1342 C 0.84885 0.15284 0.09982 0.0
C1343 C 0.84625 0.15735 0.11835 0.0
H1344 H 0.90276 0.5998 0.84972 0.0
H1345 H 0.8243 0.67774 0.85391 0.0
H1346 H 0.82651 0.6744 0.88645 0.0
H1347 H 0.84972 0.64845 0.91389 0.0
H1348 H 0.92743 0.56976 0.90974 0.0
H1349 H 0.92652 0.57434 0.87721 0.0
C1350 C 0.88627 0.61611 0.85777 0.0
C1351 C 0.86344 0.63893 0.84938 0.0
C1352 C 0.88744 0.6139 0.87655 0.0
C1353 C 0.84215 0.65989 0.86 0.0
C1354 C 0.84334 0.65801 0.87865 0.0
C1355 C 0.8665 0.6324 0.90586 0.0
C1356 C 0.88855 0.60882 0.91425 0.0
C1357 C 0.86573 0.63497 0.88709 0.0
C1358 C 0.91015 0.58816 0.90364 0.0
C1359 C 0.90967 0.59072 0.885 0.0
H1360 H 0.09934 0.10728 0.60235 0.0
H1361 H 0.17652 0.18589 0.59518 0.0
H1362 H 0.18423 0.18951 0.62766 0.0
H1363 H 0.16968 0.16952 0.65802 0.0
H1364 H 0.09239 0.09091 0.66497 0.0
H1365 H 0.08413 0.08807 0.63257 0.0
C1366 C 0.1178 0.12531 0.60787 0.0
C1367 C 0.13738 0.14627 0.59635 0.0
C1368 C 0.12214 0.12715 0.6265 0.0
C1369 C 0.16114 0.16948 0.60374 0.0
C1370 C 0.16558 0.17152 0.62231 0.0
C1371 C 0.15099 0.15178 0.65245 0.0
C1372 C 0.13172 0.13038 0.6639 0.0
C1373 C 0.14634 0.15034 0.6338 0.0
C1374 C 0.10758 0.10761 0.65647 0.0
C1375 C 0.10284 0.10599 0.63794 0.0
H1376 H 0.66967 0.35984 0.40781 0.0
H1377 H 0.59644 0.44305 0.40634 0.0
H1378 H 0.59407 0.43961 0.3738 0.0
H1379 H 0.61338 0.41353 0.34548 0.0
H1380 H 0.68752 0.33113 0.347 0.0
H1381 H 0.68872 0.3336 0.37955 0.0
C1382 C 0.65323 0.3772 0.40036 0.0
C1383 C 0.63332 0.40163 0.40953 0.0
C1384 C 0.65202 0.37521 0.38156 0.0
C1385 C 0.61209 0.42395 0.39965 0.0
C1386 C 0.61066 0.42202 0.381 0.0
C1387 C 0.62962 0.39602 0.35296 0.0
C1388 C 0.65022 0.37218 0.34379 0.0
C1389 C 0.63055 0.3978 0.37178 0.0
C1390 C 0.67131 0.34976 0.35368 0.0
C1391 C 0.67211 0.35116 0.37235 0.0
H1392 H 0.41297 0.90391 0.10235 0.0
H1393 H 0.33079 0.83044 0.09556 0.0
H1394 H 0.32646 0.8238 0.12806 0.0
H1395 H 0.34513 0.83992 0.15836 0.0
H1396 H 0.42788 0.91277 0.16511 0.0
H1397 H 0.43293 0.91855 0.13261 0.0
C1398 C 0.39416 0.88635 0.10797 0.0
C1399 C 0.37212 0.86778 0.09655 0.0
C1400 C 0.3919 0.88262 0.12664 0.0
C1401 C 0.34802 0.84504 0.10405 0.0
C1402 C 0.34551 0.84128 0.12263 0.0
C1403 C 0.36434 0.857 0.15274 0.0
C1404 C 0.38602 0.876 0.16415 0.0
C1405 C 0.36717 0.8601 0.13405 0.0
C1406 C 0.41087 0.89789 0.15663 0.0
C1407 C 0.41374 0.90123 0.13805 0.0
H1408 H 0.91068 0.42623 0.6607 0.0
H1409 H 0.83119 0.3488 0.6589 0.0
H1410 H 0.83061 0.35133 0.62633 0.0
H1411 H 0.85236 0.37572 0.59812 0.0
H1412 H 0.93139 0.45361 0.59992 0.0
H1413 H 0.93238 0.45068 0.63248 0.0
C1414 C 0.8933 0.4099 0.65317 0.0
C1415 C 0.87111 0.38737 0.66225 0.0
C1416 C 0.89292 0.41155 0.63434 0.0
C1417 C 0.84864 0.36641 0.65228 0.0
C1418 C 0.84823 0.36781 0.6336 0.0
C1419 C 0.86976 0.39203 0.60565 0.0
C1420 C 0.89174 0.41477 0.59656 0.0
C1421 C 0.8702 0.39033 0.62447 0.0
C1422 C 0.91417 0.43578 0.60654 0.0
C1423 C 0.9148 0.43416 0.62521 0.0
H1424 H 0.35149 0.17195 0.34993 0.0
H1425 H 0.43133 0.09641 0.34223 0.0
H1426 H 0.43819 0.09115 0.37465 0.0
H1427 H 0.42048 0.10683 0.40507 0.0
H1428 H 0.34097 0.18263 0.41292 0.0
H1429 H 0.33505 0.18906 0.38046 0.0
C1430 C 0.37049 0.15442 0.35533 0.0
C1431 C 0.39081 0.13449 0.34368 0.0
C1432 C 0.37429 0.15154 0.37398 0.0
C1433 C 0.41536 0.112 0.3509 0.0
C1434 C 0.41926 0.10895 0.36943 0.0
C1435 C 0.4019 0.12486 0.39971 0.0
C1436 C 0.38108 0.14414 0.4114 0.0
C1437 C 0.3987 0.12841 0.38108 0.0
C1438 C 0.35726 0.16746 0.40421 0.0
C1439 C 0.35386 0.17111 0.38566 0.0
H1440 H 0.60359 0.59654 0.15872 0.0
H1441 H 0.68441 0.67263 0.15767 0.0
H1442 H 0.68437 0.67197 0.12511 0.0
H1443 H 0.66215 0.64925 0.09667 0.0
H1444 H 0.58252 0.57194 0.09758 0.0
H1445 H 0.58139 0.57366 0.13019 0.0
C1446 C 0.62108 0.61302 0.15135 0.0
C1447 C 0.64384 0.63463 0.16067 0.0
C1448 C 0.62125 0.61229 0.1325 0.0
C1449 C 0.6665 0.65574 0.15089 0.0
C1450 C 0.66658 0.6554 0.13221 0.0
C1451 C 0.64453 0.63285 0.10402 0.0
C1452 C 0.62247 0.61059 0.09468 0.0
C1453 C 0.64418 0.6337 0.12285 0.0
C1454 C 0.59983 0.58939 0.10441 0.0
C1455 C 0.59913 0.59031 0.1231 0.0
H1456 H 0.15588 0.84097 0.85488 0.0
H1457 H 0.07762 0.9176 0.84586 0.0
H1458 H 0.06806 0.92226 0.87811 0.0
H1459 H 0.08276 0.90555 0.90879 0.0
H1460 H 0.16009 0.82811 0.91798 0.0
H1461 H 0.16905 0.82258 0.88566 0.0
C1462 C 0.13669 0.85865 0.85996 0.0
C1463 C 0.11759 0.87905 0.84799 0.0
C1464 C 0.13115 0.861 0.87851 0.0
C1465 C 0.09268 0.90166 0.85479 0.0
C1466 C 0.08721 0.90435 0.87322 0.0
C1467 C 0.10149 0.88734 0.90374 0.0
C1468 C 0.12084 0.86735 0.91577 0.0
C1469 C 0.10641 0.88428 0.8852 0.0
C1470 C 0.14487 0.84378 0.909 0.0
C1471 C 0.15006 0.84068 0.89053 0.0
loop_
_geom_bond_atom_site_label_1
_geom_bond_atom_site_label_2
_geom_bond_distance
_geom_bond_site_symmetry_2
_ccdc_geom_bond_type
Co0 O1 2.216 . S
Co0 O2 2.091 . S
Co0 O4 2.004 . S
Co0 O10 2.021 . S
Co0 O12 2.137 . S
Co0 O13 2.244 . S
O1 Co0 2.216 . S
O1 C8 1.247 . S
O2 Co0 2.091 . S
O2 C8 1.261 . S
C3 O12 1.247 . S
C3 O13 1.272 . S
O4 Co0 2.004 . S
O4 C9 1.259 . S
Co5 O6 2.061 . S
Co5 O11 2.052 . S
Co5 O13 2.135 . S
O6 Co5 2.061 . S
O6 C9 1.235 . S
C7 O10 1.238 . S
C7 O11 1.241 . S
C8 O1 1.247 . S
C8 O2 1.261 . S
C9 O4 1.259 . S
C9 O6 1.235 . S
O10 Co0 2.021 . S
O10 C7 1.238 . S
O11 Co5 2.052 . S
O11 C7 1.241 . S
O12 Co0 2.137 . S
O12 C3 1.247 . S
O13 Co0 2.244 . S
O13 C3 1.272 . S
O13 Co5 2.135 . S
Co14 O15 2.216 . S
Co14 O16 2.091 . S
Co14 O18 2.004 . S
Co14 O24 2.021 . S
Co14 O26 2.137 . S
Co14 O27 2.244 . S
O15 Co14 2.216 . S
O15 C22 1.247 . S
O16 Co14 2.091 . S
O16 C22 1.261 . S
C17 O26 1.247 . S
C17 O27 1.272 . S
O18 Co14 2.004 . S
O18 C23 1.259 . S
Co19 O20 2.061 . S
Co19 O25 2.052 . S
Co19 O27 2.135 . S
O20 Co19 2.061 . S
O20 C23 1.235 . S
C21 O24 1.238 . S
C21 O25 1.241 . S
C22 O15 1.247 . S
C22 O16 1.261 . S
C23 O18 1.259 . S
C23 O20 1.235 . S
O24 Co14 2.021 . S
O24 C21 1.238 . S
O25 Co19 2.052 . S
O25 C21 1.241 . S
O26 Co14 2.137 . S
O26 C17 1.247 . S
O27 Co14 2.244 . S
O27 C17 1.272 . S
O27 Co19 2.135 . S
Co28 O29 2.216 . S
Co28 O30 2.091 . S
Co28 O32 2.004 . S
Co28 O38 2.021 . S
Co28 O40 2.137 . S
Co28 O41 2.244 . S
O29 Co28 2.216 . S
O29 C36 1.247 . S
O30 Co28 2.091 . S
O30 C36 1.261 . S
C31 O40 1.247 . S
C31 O41 1.272 . S
O32 Co28 2.004 . S
O32 C37 1.259 . S
Co33 O34 2.061 . S
Co33 O39 2.052 . S
Co33 O41 2.135 . S
O34 Co33 2.061 . S
O34 C37 1.235 . S
C35 O38 1.238 . S
C35 O39 1.241 . S
C36 O29 1.247 . S
C36 O30 1.261 . S
C37 O32 1.259 . S
C37 O34 1.235 . S
O38 Co28 2.021 . S
O38 C35 1.238 . S
O39 Co33 2.052 . S
O39 C35 1.241 . S
O40 Co28 2.137 . S
O40 C31 1.247 . S
O41 Co28 2.244 . S
O41 C31 1.272 . S
O41 Co33 2.135 . S
Co42 O43 2.216 . S
Co42 O44 2.091 . S
Co42 O46 2.004 . S
Co42 O52 2.021 . S
Co42 O54 2.137 . S
Co42 O55 2.244 . S
O43 Co42 2.216 . S
O43 C50 1.247 . S
O44 Co42 2.091 . S
O44 C50 1.261 . S
C45 O54 1.247 . S
C45 O55 1.272 . S
O46 Co42 2.004 . S
O46 C51 1.259 . S
Co47 O48 2.061 . S
Co47 O53 2.052 . S
Co47 O55 2.135 . S
O48 Co47 2.061 . S
O48 C51 1.235 . S
C49 O52 1.238 . S
C49 O53 1.241 . S
C50 O43 1.247 . S
C50 O44 1.261 . S
C51 O46 1.259 . S
C51 O48 1.235 . S
O52 Co42 2.021 . S
O52 C49 1.238 . S
O53 Co47 2.052 . S
O53 C49 1.241 . S
O54 Co42 2.137 . S
O54 C45 1.247 . S
O55 Co42 2.244 . S
O55 C45 1.272 . S
O55 Co47 2.135 . S
Co56 O57 2.216 . S
Co56 O58 2.091 . S
Co56 O60 2.004 . S
Co56 O66 2.021 . S
Co56 O68 2.137 . S
Co56 O69 2.244 . S
O57 Co56 2.216 . S
O57 C64 1.247 . S
O58 Co56 2.091 . S
O58 C64 1.261 . S
C59 O68 1.247 . S
C59 O69 1.272 . S
O60 Co56 2.004 . S
O60 C65 1.259 . S
Co61 O62 2.061 . S
Co61 O67 2.052 . S
Co61 O69 2.135 . S
O62 Co61 2.061 . S
O62 C65 1.235 . S
C63 O66 1.238 . S
C63 O67 1.241 . S
C64 O57 1.247 . S
C64 O58 1.261 . S
C65 O60 1.259 . S
C65 O62 1.235 . S
O66 Co56 2.021 . S
O66 C63 1.238 . S
O67 Co61 2.052 . S
O67 C63 1.241 . S
O68 Co56 2.137 . S
O68 C59 1.247 . S
O69 Co56 2.244 . S
O69 C59 1.272 . S
O69 Co61 2.135 . S
Co70 O71 2.216 . S
Co70 O72 2.091 . S
Co70 O74 2.004 . S
Co70 O80 2.021 . S
Co70 O82 2.137 . S
Co70 O83 2.244 . S
O71 Co70 2.216 . S
O71 C78 1.247 . S
O72 Co70 2.091 . S
O72 C78 1.261 . S
C73 O82 1.247 . S
C73 O83 1.272 . S
O74 Co70 2.004 . S
O74 C79 1.259 . S
Co75 O76 2.061 . S
Co75 O81 2.052 . S
Co75 O83 2.135 . S
O76 Co75 2.061 . S
O76 C79 1.235 . S
C77 O80 1.238 . S
C77 O81 1.241 . S
C78 O71 1.247 . S
C78 O72 1.261 . S
C79 O74 1.259 . S
C79 O76 1.235 . S
O80 Co70 2.021 . S
O80 C77 1.238 . S
O81 Co75 2.052 . S
O81 C77 1.241 . S
O82 Co70 2.137 . S
O82 C73 1.247 . S
O83 Co70 2.244 . S
O83 C73 1.272 . S
O83 Co75 2.135 . S
Co84 O85 2.216 . S
Co84 O86 2.091 . S
Co84 O88 2.004 . S
Co84 O94 2.021 . S
Co84 O96 2.137 . S
Co84 O97 2.244 . S
O85 Co84 2.216 . S
O85 C92 1.247 . S
O86 Co84 2.091 . S
O86 C92 1.261 . S
C87 O96 1.247 . S
C87 O97 1.272 . S
O88 Co84 2.004 . S
O88 C93 1.259 . S
Co89 O90 2.061 . S
Co89 O95 2.052 . S
Co89 O97 2.135 . S
O90 Co89 2.061 . S
O90 C93 1.235 . S
C91 O94 1.238 . S
C91 O95 1.241 . S
C92 O85 1.247 . S
C92 O86 1.261 . S
C93 O88 1.259 . S
C93 O90 1.235 . S
O94 Co84 2.021 . S
O94 C91 1.238 . S
O95 Co89 2.052 . S
O95 C91 1.241 . S
O96 Co84 2.137 . S
O96 C87 1.247 . S
O97 Co84 2.244 . S
O97 C87 1.272 . S
O97 Co89 2.135 . S
Co98 O99 2.216 . S
Co98 O100 2.091 . S
Co98 O102 2.004 . S
Co98 O108 2.021 . S
Co98 O110 2.137 . S
Co98 O111 2.244 . S
O99 Co98 2.216 . S
O99 C106 1.247 . S
O100 Co98 2.091 . S
O100 C106 1.261 . S
C101 O110 1.247 . S
C101 O111 1.272 . S
O102 Co98 2.004 . S
O102 C107 1.259 . S
Co103 O104 2.061 . S
Co103 O109 2.052 . S
Co103 O111 2.135 . S
O104 Co103 2.061 . S
O104 C107 1.235 . S
C105 O108 1.238 . S
C105 O109 1.241 . S
C106 O99 1.247 . S
C106 O100 1.261 . S
C107 O102 1.259 . S
C107 O104 1.235 . S
O108 Co98 2.021 . S
O108 C105 1.238 . S
O109 Co103 2.052 . S
O109 C105 1.241 . S
O110 Co98 2.137 . S
O110 C101 1.247 . S
O111 Co98 2.244 . S
O111 C101 1.272 . S
O111 Co103 2.135 . S
Co112 O113 2.216 . S
Co112 O114 2.091 . S
Co112 O116 2.004 . S
Co112 O122 2.021 . S
Co112 O124 2.137 . S
Co112 O125 2.244 . S
O113 Co112 2.216 . S
O113 C120 1.247 . S
O114 Co112 2.091 . S
O114 C120 1.261 . S
C115 O124 1.247 . S
C115 O125 1.272 . S
O116 Co112 2.004 . S
O116 C121 1.259 . S
Co117 O118 2.061 . S
Co117 O123 2.052 . S
Co117 O125 2.135 . S
O118 Co117 2.061 . S
O118 C121 1.235 . S
C119 O122 1.238 . S
C119 O123 1.241 . S
C120 O113 1.247 . S
C120 O114 1.261 . S
C121 O116 1.259 . S
C121 O118 1.235 . S
O122 Co112 2.021 . S
O122 C119 1.238 . S
O123 Co117 2.052 . S
O123 C119 1.241 . S
O124 Co112 2.137 . S
O124 C115 1.247 . S
O125 Co112 2.244 . S
O125 C115 1.272 . S
O125 Co117 2.135 . S
Co126 O127 2.216 . S
Co126 O128 2.091 . S
Co126 O130 2.004 . S
Co126 O136 2.021 . S
Co126 O138 2.137 . S
Co126 O139 2.244 . S
O127 Co126 2.216 . S
O127 C134 1.247 . S
O128 Co126 2.091 . S
O128 C134 1.261 . S
C129 O138 1.247 . S
C129 O139 1.272 . S
O130 Co126 2.004 . S
O130 C135 1.259 . S
Co131 O132 2.061 . S
Co131 O137 2.052 . S
Co131 O139 2.135 . S
O132 Co131 2.061 . S
O132 C135 1.235 . S
C133 O136 1.238 . S
C133 O137 1.241 . S
C134 O127 1.247 . S
C134 O128 1.261 . S
C135 O130 1.259 . S
C135 O132 1.235 . S
O136 Co126 2.021 . S
O136 C133 1.238 . S
O137 Co131 2.052 . S
O137 C133 1.241 . S
O138 Co126 2.137 . S
O138 C129 1.247 . S
O139 Co126 2.244 . S
O139 C129 1.272 . S
O139 Co131 2.135 . S
Co140 O141 2.216 . S
Co140 O142 2.091 . S
Co140 O144 2.004 . S
Co140 O150 2.021 . S
Co140 O152 2.137 . S
Co140 O153 2.244 . S
O141 Co140 2.216 . S
O141 C148 1.247 . S
O142 Co140 2.091 . S
O142 C148 1.261 . S
C143 O152 1.247 . S
C143 O153 1.272 . S
O144 Co140 2.004 . S
O144 C149 1.259 . S
Co145 O146 2.061 . S
Co145 O151 2.052 . S
Co145 O153 2.135 . S
O146 Co145 2.061 . S
O146 C149 1.235 . S
C147 O150 1.238 . S
C147 O151 1.241 . S
C148 O141 1.247 . S
C148 O142 1.261 . S
C149 O144 1.259 . S
C149 O146 1.235 . S
O150 Co140 2.021 . S
O150 C147 1.238 . S
O151 Co145 2.052 . S
O151 C147 1.241 . S
O152 Co140 2.137 . S
O152 C143 1.247 . S
O153 Co140 2.244 . S
O153 C143 1.272 . S
O153 Co145 2.135 . S
Co154 O155 2.216 . S
Co154 O156 2.091 . S
Co154 O158 2.004 . S
Co154 O164 2.021 . S
Co154 O166 2.137 . S
Co154 O167 2.244 . S
O155 Co154 2.216 . S
O155 C162 1.247 . S
O156 Co154 2.091 . S
O156 C162 1.261 . S
C157 O166 1.247 . S
C157 O167 1.272 . S
O158 Co154 2.004 . S
O158 C163 1.259 . S
Co159 O160 2.061 . S
Co159 O165 2.052 . S
Co159 O167 2.135 . S
O160 Co159 2.061 . S
O160 C163 1.235 . S
C161 O164 1.238 . S
C161 O165 1.241 . S
C162 O155 1.247 . S
C162 O156 1.261 . S
C163 O158 1.259 . S
C163 O160 1.235 . S
O164 Co154 2.021 . S
O164 C161 1.238 . S
O165 Co159 2.052 . S
O165 C161 1.241 . S
O166 Co154 2.137 . S
O166 C157 1.247 . S
O167 Co154 2.244 . S
O167 C157 1.272 . S
O167 Co159 2.135 . S
Co168 O169 2.216 . S
Co168 O170 2.091 . S
Co168 O172 2.004 . S
Co168 O178 2.021 . S
Co168 O180 2.137 . S
Co168 O181 2.244 . S
O169 Co168 2.216 . S
O169 C176 1.247 . S
O170 Co168 2.091 . S
O170 C176 1.261 . S
C171 O180 1.247 . S
C171 O181 1.272 . S
O172 Co168 2.004 . S
O172 C177 1.259 . S
Co173 O174 2.061 . S
Co173 O179 2.052 . S
Co173 O181 2.135 . S
O174 Co173 2.061 . S
O174 C177 1.235 . S
C175 O178 1.238 . S
C175 O179 1.241 . S
C176 O169 1.247 . S
C176 O170 1.261 . S
C177 O172 1.259 . S
C177 O174 1.235 . S
O178 Co168 2.021 . S
O178 C175 1.238 . S
O179 Co173 2.052 . S
O179 C175 1.241 . S
O180 Co168 2.137 . S
O180 C171 1.247 . S
O181 Co168 2.244 . S
O181 C171 1.272 . S
O181 Co173 2.135 . S
Co182 O183 2.216 . S
Co182 O184 2.091 . S
Co182 O186 2.004 . S
Co182 O192 2.021 . S
Co182 O194 2.137 . S
Co182 O195 2.244 . S
O183 Co182 2.216 . S
O183 C190 1.247 . S
O184 Co182 2.091 . S
O184 C190 1.261 . S
C185 O194 1.247 . S
C185 O195 1.272 . S
O186 Co182 2.004 . S
O186 C191 1.259 . S
Co187 O188 2.061 . S
Co187 O193 2.052 . S
Co187 O195 2.135 . S
O188 Co187 2.061 . S
O188 C191 1.235 . S
C189 O192 1.238 . S
C189 O193 1.241 . S
C190 O183 1.247 . S
C190 O184 1.261 . S
C191 O186 1.259 . S
C191 O188 1.235 . S
O192 Co182 2.021 . S
O192 C189 1.238 . S
O193 Co187 2.052 . S
O193 C189 1.241 . S
O194 Co182 2.137 . S
O194 C185 1.247 . S
O195 Co182 2.244 . S
O195 C185 1.272 . S
O195 Co187 2.135 . S
Co196 O197 2.216 . S
Co196 O198 2.091 . S
Co196 O200 2.004 . S
Co196 O206 2.021 . S
Co196 O208 2.137 . S
Co196 O209 2.244 . S
O197 Co196 2.216 . S
O197 C204 1.247 . S
O198 Co196 2.091 . S
O198 C204 1.261 . S
C199 O208 1.247 . S
C199 O209 1.272 . S
O200 Co196 2.004 . S
O200 C205 1.259 . S
Co201 O202 2.061 . S
Co201 O207 2.052 . S
Co201 O209 2.135 . S
O202 Co201 2.061 . S
O202 C205 1.235 . S
C203 O206 1.238 . S
C203 O207 1.241 . S
C204 O197 1.247 . S
C204 O198 1.261 . S
C205 O200 1.259 . S
C205 O202 1.235 . S
O206 Co196 2.021 . S
O206 C203 1.238 . S
O207 Co201 2.052 . S
O207 C203 1.241 . S
O208 Co196 2.137 . S
O208 C199 1.247 . S
O209 Co196 2.244 . S
O209 C199 1.272 . S
O209 Co201 2.135 . S
Co210 O211 2.216 . S
Co210 O212 2.091 . S
Co210 O214 2.004 . S
Co210 O220 2.021 . S
Co210 O222 2.137 . S
Co210 O223 2.244 . S
O211 Co210 2.216 . S
O211 C218 1.247 . S
O212 Co210 2.091 . S
O212 C218 1.261 . S
C213 O222 1.247 . S
C213 O223 1.272 . S
O214 Co210 2.004 . S
O214 C219 1.259 . S
Co215 O216 2.061 . S
Co215 O221 2.052 . S
Co215 O223 2.135 . S
O216 Co215 2.061 . S
O216 C219 1.235 . S
C217 O220 1.238 . S
C217 O221 1.241 . S
C218 O211 1.247 . S
C218 O212 1.261 . S
C219 O214 1.259 . S
C219 O216 1.235 . S
O220 Co210 2.021 . S
O220 C217 1.238 . S
O221 Co215 2.052 . S
O221 C217 1.241 . S
O222 Co210 2.137 . S
O222 C213 1.247 . S
O223 Co210 2.244 . S
O223 C213 1.272 . S
O223 Co215 2.135 . S
Co224 O225 2.216 . S
Co224 O226 2.091 . S
Co224 O228 2.004 . S
Co224 O234 2.021 . S
Co224 O236 2.137 . S
Co224 O237 2.244 . S
O225 Co224 2.216 . S
O225 C232 1.247 . S
O226 Co224 2.091 . S
O226 C232 1.261 . S
C227 O236 1.247 . S
C227 O237 1.272 . S
O228 Co224 2.004 . S
O228 C233 1.259 . S
Co229 O230 2.061 . S
Co229 O235 2.052 . S
Co229 O237 2.135 . S
O230 Co229 2.061 . S
O230 C233 1.235 . S
C231 O234 1.238 . S
C231 O235 1.241 . S
C232 O225 1.247 . S
C232 O226 1.261 . S
C233 O228 1.259 . S
C233 O230 1.235 . S
O234 Co224 2.021 . S
O234 C231 1.238 . S
O235 Co229 2.052 . S
O235 C231 1.241 . S
O236 Co224 2.137 . S
O236 C227 1.247 . S
O237 Co224 2.244 . S
O237 C227 1.272 . S
O237 Co229 2.135 . S
Co238 O239 2.216 . S
Co238 O240 2.091 . S
Co238 O242 2.004 . S
Co238 O248 2.021 . S
Co238 O250 2.137 . S
Co238 O251 2.244 . S
O239 Co238 2.216 . S
O239 C246 1.247 . S
O240 Co238 2.091 . S
O240 C246 1.261 . S
C241 O250 1.247 . S
C241 O251 1.272 . S
O242 Co238 2.004 . S
O242 C247 1.259 . S
Co243 O244 2.061 . S
Co243 O249 2.052 . S
Co243 O251 2.135 . S
O244 Co243 2.061 . S
O244 C247 1.235 . S
C245 O248 1.238 . S
C245 O249 1.241 . S
C246 O239 1.247 . S
C246 O240 1.261 . S
C247 O242 1.259 . S
C247 O244 1.235 . S
O248 Co238 2.021 . S
O248 C245 1.238 . S
O249 Co243 2.052 . S
O249 C245 1.241 . S
O250 Co238 2.137 . S
O250 C241 1.247 . S
O251 Co238 2.244 . S
O251 C241 1.272 . S
O251 Co243 2.135 . S
Co252 O253 2.216 . S
Co252 O254 2.091 . S
Co252 O256 2.004 . S
Co252 O262 2.021 . S
Co252 O264 2.137 . S
Co252 O265 2.244 . S
O253 Co252 2.216 . S
O253 C260 1.247 . S
O254 Co252 2.091 . S
O254 C260 1.261 . S
C255 O264 1.247 . S
C255 O265 1.272 . S
O256 Co252 2.004 . S
O256 C261 1.259 . S
Co257 O258 2.061 . S
Co257 O263 2.052 . S
Co257 O265 2.135 . S
O258 Co257 2.061 . S
O258 C261 1.235 . S
C259 O262 1.238 . S
C259 O263 1.241 . S
C260 O253 1.247 . S
C260 O254 1.261 . S
C261 O256 1.259 . S
C261 O258 1.235 . S
O262 Co252 2.021 . S
O262 C259 1.238 . S
O263 Co257 2.052 . S
O263 C259 1.241 . S
O264 Co252 2.137 . S
O264 C255 1.247 . S
O265 Co252 2.244 . S
O265 C255 1.272 . S
O265 Co257 2.135 . S
Co266 O267 2.216 . S
Co266 O268 2.091 . S
Co266 O270 2.004 . S
Co266 O276 2.021 . S
Co266 O278 2.137 . S
Co266 O279 2.244 . S
O267 Co266 2.216 . S
O267 C274 1.247 . S
O268 Co266 2.091 . S
O268 C274 1.261 . S
C269 O278 1.247 . S
C269 O279 1.272 . S
O270 Co266 2.004 . S
O270 C275 1.259 . S
Co271 O272 2.061 . S
Co271 O277 2.052 . S
Co271 O279 2.135 . S
O272 Co271 2.061 . S
O272 C275 1.235 . S
C273 O276 1.238 . S
C273 O277 1.241 . S
C274 O267 1.247 . S
C274 O268 1.261 . S
C275 O270 1.259 . S
C275 O272 1.235 . S
O276 Co266 2.021 . S
O276 C273 1.238 . S
O277 Co271 2.052 . S
O277 C273 1.241 . S
O278 Co266 2.137 . S
O278 C269 1.247 . S
O279 Co266 2.244 . S
O279 C269 1.272 . S
O279 Co271 2.135 . S
Co280 O281 2.216 . S
Co280 O282 2.091 . S
Co280 O284 2.004 . S
Co280 O290 2.021 . S
Co280 O292 2.137 . S
Co280 O293 2.244 . S
O281 Co280 2.216 . S
O281 C288 1.247 . S
O282 Co280 2.091 . S
O282 C288 1.261 . S
C283 O292 1.247 . S
C283 O293 1.272 . S
O284 Co280 2.004 . S
O284 C289 1.259 . S
Co285 O286 2.061 . S
Co285 O291 2.052 . S
Co285 O293 2.135 . S
O286 Co285 2.061 . S
O286 C289 1.235 . S
C287 O290 1.238 . S
C287 O291 1.241 . S
C288 O281 1.247 . S
C288 O282 1.261 . S
C289 O284 1.259 . S
C289 O286 1.235 . S
O290 Co280 2.021 . S
O290 C287 1.238 . S
O291 Co285 2.052 . S
O291 C287 1.241 . S
O292 Co280 2.137 . S
O292 C283 1.247 . S
O293 Co280 2.244 . S
O293 C283 1.272 . S
O293 Co285 2.135 . S
Co294 O295 2.216 . S
Co294 O296 2.091 . S
Co294 O298 2.004 . S
Co294 O304 2.021 . S
Co294 O306 2.137 . S
Co294 O307 2.244 . S
O295 Co294 2.216 . S
O295 C302 1.247 . S
O296 Co294 2.091 . S
O296 C302 1.261 . S
C297 O306 1.247 . S
C297 O307 1.272 . S
O298 Co294 2.004 . S
O298 C303 1.259 . S
Co299 O300 2.061 . S
Co299 O305 2.052 . S
Co299 O307 2.135 . S
O300 Co299 2.061 . S
O300 C303 1.235 . S
C301 O304 1.238 . S
C301 O305 1.241 . S
C302 O295 1.247 . S
C302 O296 1.261 . S
C303 O298 1.259 . S
C303 O300 1.235 . S
O304 Co294 2.021 . S
O304 C301 1.238 . S
O305 Co299 2.052 . S
O305 C301 1.241 . S
O306 Co294 2.137 . S
O306 C297 1.247 . S
O307 Co294 2.244 . S
O307 C297 1.272 . S
O307 Co299 2.135 . S
Co308 O309 2.216 . S
Co308 O310 2.091 . S
Co308 O312 2.004 . S
Co308 O318 2.021 . S
Co308 O320 2.137 . S
Co308 O321 2.244 . S
O309 Co308 2.216 . S
O309 C316 1.247 . S
O310 Co308 2.091 . S
O310 C316 1.261 . S
C311 O320 1.247 . S
C311 O321 1.272 . S
O312 Co308 2.004 . S
O312 C317 1.259 . S
Co313 O314 2.061 . S
Co313 O319 2.052 . S
Co313 O321 2.135 . S
O314 Co313 2.061 . S
O314 C317 1.235 . S
C315 O318 1.238 . S
C315 O319 1.241 . S
C316 O309 1.247 . S
C316 O310 1.261 . S
C317 O312 1.259 . S
C317 O314 1.235 . S
O318 Co308 2.021 . S
O318 C315 1.238 . S
O319 Co313 2.052 . S
O319 C315 1.241 . S
O320 Co308 2.137 . S
O320 C311 1.247 . S
O321 Co308 2.244 . S
O321 C311 1.272 . S
O321 Co313 2.135 . S
Co322 O323 2.216 . S
Co322 O324 2.091 . S
Co322 O326 2.004 . S
Co322 O332 2.021 . S
Co322 O334 2.137 . S
Co322 O335 2.244 . S
O323 Co322 2.216 . S
O323 C330 1.247 . S
O324 Co322 2.091 . S
O324 C330 1.261 . S
C325 O334 1.247 . S
C325 O335 1.272 . S
O326 Co322 2.004 . S
O326 C331 1.259 . S
Co327 O328 2.061 . S
Co327 O333 2.052 . S
Co327 O335 2.135 . S
O328 Co327 2.061 . S
O328 C331 1.235 . S
C329 O332 1.238 . S
C329 O333 1.241 . S
C330 O323 1.247 . S
C330 O324 1.261 . S
C331 O326 1.259 . S
C331 O328 1.235 . S
O332 Co322 2.021 . S
O332 C329 1.238 . S
O333 Co327 2.052 . S
O333 C329 1.241 . S
O334 Co322 2.137 . S
O334 C325 1.247 . S
O335 Co322 2.244 . S
O335 C325 1.272 . S
O335 Co327 2.135 . S
Co336 O337 2.216 . S
Co336 O338 2.091 . S
Co336 O340 2.004 . S
Co336 O346 2.021 . S
Co336 O348 2.137 . S
Co336 O349 2.244 . S
O337 Co336 2.216 . S
O337 C344 1.247 . S
O338 Co336 2.091 . S
O338 C344 1.261 . S
C339 O348 1.247 . S
C339 O349 1.272 . S
O340 Co336 2.004 . S
O340 C345 1.259 . S
Co341 O342 2.061 . S
Co341 O347 2.052 . S
Co341 O349 2.135 . S
O342 Co341 2.061 . S
O342 C345 1.235 . S
C343 O346 1.238 . S
C343 O347 1.241 . S
C344 O337 1.247 . S
C344 O338 1.261 . S
C345 O340 1.259 . S
C345 O342 1.235 . S
O346 Co336 2.021 . S
O346 C343 1.238 . S
O347 Co341 2.052 . S
O347 C343 1.241 . S
O348 Co336 2.137 . S
O348 C339 1.247 . S
O349 Co336 2.244 . S
O349 C339 1.272 . S
O349 Co341 2.135 . S
Co350 O351 2.216 . S
Co350 O352 2.091 . S
Co350 O354 2.004 . S
Co350 O360 2.021 . S
Co350 O362 2.137 . S
Co350 O363 2.244 . S
O351 Co350 2.216 . S
O351 C358 1.247 . S
O352 Co350 2.091 . S
O352 C358 1.261 . S
C353 O362 1.247 . S
C353 O363 1.272 . S
O354 Co350 2.004 . S
O354 C359 1.259 . S
Co355 O356 2.061 . S
Co355 O361 2.052 . S
Co355 O363 2.135 . S
O356 Co355 2.061 . S
O356 C359 1.235 . S
C357 O360 1.238 . S
C357 O361 1.241 . S
C358 O351 1.247 . S
C358 O352 1.261 . S
C359 O354 1.259 . S
C359 O356 1.235 . S
O360 Co350 2.021 . S
O360 C357 1.238 . S
O361 Co355 2.052 . S
O361 C357 1.241 . S
O362 Co350 2.137 . S
O362 C353 1.247 . S
O363 Co350 2.244 . S
O363 C353 1.272 . S
O363 Co355 2.135 . S
Co364 O365 2.216 . S
Co364 O366 2.091 . S
Co364 O368 2.004 . S
Co364 O374 2.021 . S
Co364 O376 2.137 . S
Co364 O377 2.244 . S
O365 Co364 2.216 . S
O365 C372 1.247 . S
O366 Co364 2.091 . S
O366 C372 1.261 . S
C367 O376 1.247 . S
C367 O377 1.272 . S
O368 Co364 2.004 . S
O368 C373 1.259 . S
Co369 O370 2.061 . S
Co369 O375 2.052 . S
Co369 O377 2.135 . S
O370 Co369 2.061 . S
O370 C373 1.235 . S
C371 O374 1.238 . S
C371 O375 1.241 . S
C372 O365 1.247 . S
C372 O366 1.261 . S
C373 O368 1.259 . S
C373 O370 1.235 . S
O374 Co364 2.021 . S
O374 C371 1.238 . S
O375 Co369 2.052 . S
O375 C371 1.241 . S
O376 Co364 2.137 . S
O376 C367 1.247 . S
O377 Co364 2.244 . S
O377 C367 1.272 . S
O377 Co369 2.135 . S
Co378 O379 2.216 . S
Co378 O380 2.091 . S
Co378 O382 2.004 . S
Co378 O388 2.021 . S
Co378 O390 2.137 . S
Co378 O391 2.244 . S
O379 Co378 2.216 . S
O379 C386 1.247 . S
O380 Co378 2.091 . S
O380 C386 1.261 . S
C381 O390 1.247 . S
C381 O391 1.272 . S
O382 Co378 2.004 . S
O382 C387 1.259 . S
Co383 O384 2.061 . S
Co383 O389 2.052 . S
Co383 O391 2.135 . S
O384 Co383 2.061 . S
O384 C387 1.235 . S
C385 O388 1.238 . S
C385 O389 1.241 . S
C386 O379 1.247 . S
C386 O380 1.261 . S
C387 O382 1.259 . S
C387 O384 1.235 . S
O388 Co378 2.021 . S
O388 C385 1.238 . S
O389 Co383 2.052 . S
O389 C385 1.241 . S
O390 Co378 2.137 . S
O390 C381 1.247 . S
O391 Co378 2.244 . S
O391 C381 1.272 . S
O391 Co383 2.135 . S
Co392 O393 2.216 . S
Co392 O394 2.091 . S
Co392 O396 2.004 . S
Co392 O402 2.021 . S
Co392 O404 2.137 . S
Co392 O405 2.244 . S
O393 Co392 2.216 . S
O393 C400 1.247 . S
O394 Co392 2.091 . S
O394 C400 1.261 . S
C395 O404 1.247 . S
C395 O405 1.272 . S
O396 Co392 2.004 . S
O396 C401 1.259 . S
Co397 O398 2.061 . S
Co397 O403 2.052 . S
Co397 O405 2.135 . S
O398 Co397 2.061 . S
O398 C401 1.235 . S
C399 O402 1.238 . S
C399 O403 1.241 . S
C400 O393 1.247 . S
C400 O394 1.261 . S
C401 O396 1.259 . S
C401 O398 1.235 . S
O402 Co392 2.021 . S
O402 C399 1.238 . S
O403 Co397 2.052 . S
O403 C399 1.241 . S
O404 Co392 2.137 . S
O404 C395 1.247 . S
O405 Co392 2.244 . S
O405 C395 1.272 . S
O405 Co397 2.135 . S
Co406 O407 2.216 . S
Co406 O408 2.091 . S
Co406 O410 2.004 . S
Co406 O416 2.021 . S
Co406 O418 2.137 . S
Co406 O419 2.244 . S
O407 Co406 2.216 . S
O407 C414 1.247 . S
O408 Co406 2.091 . S
O408 C414 1.261 . S
C409 O418 1.247 . S
C409 O419 1.272 . S
O410 Co406 2.004 . S
O410 C415 1.259 . S
Co411 O412 2.061 . S
Co411 O417 2.052 . S
Co411 O419 2.135 . S
O412 Co411 2.061 . S
O412 C415 1.235 . S
C413 O416 1.238 . S
C413 O417 1.241 . S
C414 O407 1.247 . S
C414 O408 1.261 . S
C415 O410 1.259 . S
C415 O412 1.235 . S
O416 Co406 2.021 . S
O416 C413 1.238 . S
O417 Co411 2.052 . S
O417 C413 1.241 . S
O418 Co406 2.137 . S
O418 C409 1.247 . S
O419 Co406 2.244 . S
O419 C409 1.272 . S
O419 Co411 2.135 . S
Co420 O421 2.216 . S
Co420 O422 2.091 . S
Co420 O424 2.004 . S
Co420 O430 2.021 . S
Co420 O432 2.137 . S
Co420 O433 2.244 . S
O421 Co420 2.216 . S
O421 C428 1.247 . S
O422 Co420 2.091 . S
O422 C428 1.261 . S
C423 O432 1.247 . S
C423 O433 1.272 . S
O424 Co420 2.004 . S
O424 C429 1.259 . S
Co425 O426 2.061 . S
Co425 O431 2.052 . S
Co425 O433 2.135 . S
O426 Co425 2.061 . S
O426 C429 1.235 . S
C427 O430 1.238 . S
C427 O431 1.241 . S
C428 O421 1.247 . S
C428 O422 1.261 . S
C429 O424 1.259 . S
C429 O426 1.235 . S
O430 Co420 2.021 . S
O430 C427 1.238 . S
O431 Co425 2.052 . S
O431 C427 1.241 . S
O432 Co420 2.137 . S
O432 C423 1.247 . S
O433 Co420 2.244 . S
O433 C423 1.272 . S
O433 Co425 2.135 . S
Co434 O435 2.216 . S
Co434 O436 2.091 . S
Co434 O438 2.004 . S
Co434 O444 2.021 . S
Co434 O446 2.137 . S
Co434 O447 2.244 . S
O435 Co434 2.216 . S
O435 C442 1.247 . S
O436 Co434 2.091 . S
O436 C442 1.261 . S
C437 O446 1.247 . S
C437 O447 1.272 . S
O438 Co434 2.004 . S
O438 C443 1.259 . S
Co439 O440 2.061 . S
Co439 O445 2.052 . S
Co439 O447 2.135 . S
O440 Co439 2.061 . S
O440 C443 1.235 . S
C441 O444 1.238 . S
C441 O445 1.241 . S
C442 O435 1.247 . S
C442 O436 1.261 . S
C443 O438 1.259 . S
C443 O440 1.235 . S
O444 Co434 2.021 . S
O444 C441 1.238 . S
O445 Co439 2.052 . S
O445 C441 1.241 . S
O446 Co434 2.137 . S
O446 C437 1.247 . S
O447 Co434 2.244 . S
O447 C437 1.272 . S
O447 Co439 2.135 . S
H448 C454 0.930 . S
H449 C457 0.930 . S
H450 C458 0.930 . S
H451 C459 0.930 . S
H452 C462 0.930 . S
H453 C463 0.930 . S
C454 H448 0.930 . S
C454 C455 1.355 . S
C454 C456 1.415 1_655 S
C455 C454 1.355 . S
C455 C457 1.419 1_556 S
C456 C454 1.415 1_455 S
C456 C461 1.425 1_456 S
C456 C463 1.409 . S
C457 H449 0.930 . S
C457 C455 1.419 1_554 S
C457 C458 1.362 . S
C458 H450 0.930 . S
C458 C457 1.362 . S
C458 C461 1.409 . S
C459 H451 0.930 . S
C459 C460 1.355 . S
C459 C461 1.415 1_455 S
C460 C459 1.355 . S
C460 C462 1.419 1_554 S
C461 C456 1.425 1_654 S
C461 C458 1.409 . S
C461 C459 1.415 1_655 S
C462 H452 0.930 . S
C462 C460 1.419 1_556 S
C462 C463 1.362 . S
C463 H453 0.930 . S
C463 C456 1.409 . S
C463 C462 1.362 . S
H464 C470 0.930 . S
H465 C473 0.930 . S
H466 C474 0.930 . S
H467 C475 0.930 . S
H468 C478 0.930 . S
H469 C479 0.930 . S
C470 H464 0.930 . S
C470 C471 1.355 . S
C470 C472 1.415 . S
C471 C470 1.355 . S
C471 C473 1.419 . S
C472 C470 1.415 . S
C472 C477 1.425 . S
C472 C479 1.409 . S
C473 H465 0.930 . S
C473 C471 1.419 . S
C473 C474 1.362 . S
C474 H466 0.930 . S
C474 C473 1.362 . S
C474 C477 1.409 . S
C475 H467 0.930 . S
C475 C476 1.355 . S
C475 C477 1.415 . S
C476 C475 1.355 . S
C476 C478 1.419 . S
C477 C472 1.425 . S
C477 C474 1.409 . S
C477 C475 1.415 . S
C478 H468 0.930 . S
C478 C476 1.419 . S
C478 C479 1.362 . S
C479 H469 0.930 . S
C479 C472 1.409 . S
C479 C478 1.362 . S
H480 C486 0.930 . S
H481 C489 0.930 . S
H482 C490 0.930 . S
H483 C491 0.930 . S
H484 C494 0.930 . S
H485 C495 0.930 . S
C486 H480 0.930 . S
C486 C487 1.355 . S
C486 C488 1.415 . S
C487 C486 1.355 . S
C487 C489 1.419 . S
C488 C486 1.415 . S
C488 C493 1.425 . S
C488 C495 1.409 . S
C489 H481 0.930 . S
C489 C487 1.419 . S
C489 C490 1.362 . S
C490 H482 0.930 . S
C490 C489 1.362 . S
C490 C493 1.409 . S
C491 H483 0.930 . S
C491 C492 1.355 . S
C491 C493 1.415 . S
C492 C491 1.355 . S
C492 C494 1.419 . S
C493 C488 1.425 . S
C493 C490 1.409 . S
C493 C491 1.415 . S
C494 H484 0.930 . S
C494 C492 1.419 . S
C494 C495 1.362 . S
C495 H485 0.930 . S
C495 C488 1.409 . S
C495 C494 1.362 . S
H496 C502 0.930 . S
H497 C505 0.930 . S
H498 C506 0.930 . S
H499 C507 0.930 . S
H500 C510 0.930 . S
H501 C511 0.930 . S
C502 H496 0.930 . S
C502 C503 1.355 . S
C502 C504 1.415 . S
C503 C502 1.355 . S
C503 C505 1.419 . S
C504 C502 1.415 . S
C504 C509 1.425 . S
C504 C511 1.409 . S
C505 H497 0.930 . S
C505 C503 1.419 . S
C505 C506 1.362 . S
C506 H498 0.930 . S
C506 C505 1.362 . S
C506 C509 1.409 . S
C507 H499 0.930 . S
C507 C508 1.355 . S
C507 C509 1.415 . S
C508 C507 1.355 . S
C508 C510 1.419 . S
C509 C504 1.425 . S
C509 C506 1.409 . S
C509 C507 1.415 . S
C510 H500 0.930 . S
C510 C508 1.419 . S
C510 C511 1.362 . S
C511 H501 0.930 . S
C511 C504 1.409 . S
C511 C510 1.362 . S
H512 C518 0.930 1_455 S
H513 C521 0.930 . S
H514 C522 0.930 . S
H515 C523 0.930 1_655 S
H516 C526 0.930 . S
H517 C527 0.930 . S
C518 H512 0.930 1_655 S
C518 C519 1.355 . S
C518 C520 1.415 1_655 S
C519 C518 1.355 . S
C519 C521 1.419 . S
C520 C518 1.415 1_455 S
C520 C525 1.425 1_455 S
C520 C527 1.409 . S
C521 H513 0.930 . S
C521 C519 1.419 . S
C521 C522 1.362 . S
C522 H514 0.930 . S
C522 C521 1.362 . S
C522 C525 1.409 . S
C523 H515 0.930 1_455 S
C523 C524 1.355 . S
C523 C525 1.415 1_455 S
C524 C523 1.355 . S
C524 C526 1.419 . S
C525 C520 1.425 1_655 S
C525 C522 1.409 . S
C525 C523 1.415 1_655 S
C526 H516 0.930 . S
C526 C524 1.419 . S
C526 C527 1.362 . S
C527 H517 0.930 . S
C527 C520 1.409 . S
C527 C526 1.362 . S
H528 C534 0.930 . S
H529 C537 0.930 . S
H530 C538 0.930 . S
H531 C539 0.930 . S
H532 C542 0.930 . S
H533 C543 0.930 . S
C534 H528 0.930 . S
C534 C535 1.355 . S
C534 C536 1.415 . S
C535 C534 1.355 . S
C535 C537 1.419 . S
C536 C534 1.415 . S
C536 C541 1.425 . S
C536 C543 1.409 . S
C537 H529 0.930 . S
C537 C535 1.419 . S
C537 C538 1.362 . S
C538 H530 0.930 . S
C538 C537 1.362 . S
C538 C541 1.409 . S
C539 H531 0.930 . S
C539 C540 1.355 . S
C539 C541 1.415 . S
C540 C539 1.355 . S
C540 C542 1.419 . S
C541 C536 1.425 . S
C541 C538 1.409 . S
C541 C539 1.415 . S
C542 H532 0.930 . S
C542 C540 1.419 . S
C542 C543 1.362 . S
C543 H533 0.930 . S
C543 C536 1.409 . S
C543 C542 1.362 . S
H544 C550 0.930 . S
H545 C553 0.930 . S
H546 C554 0.930 . S
H547 C555 0.930 . S
H548 C558 0.930 . S
H549 C559 0.930 . S
C550 H544 0.930 . S
C550 C551 1.355 . S
C550 C552 1.399 1_556 S
C551 C550 1.355 . S
C551 C553 1.419 . S
C552 C550 1.399 1_554 S
C552 C557 1.422 1_554 S
C552 C559 1.428 . S
C553 H545 0.930 . S
C553 C551 1.419 . S
C553 C554 1.362 . S
C554 H546 0.930 . S
C554 C553 1.362 . S
C554 C557 1.428 . S
C555 H547 0.930 . S
C555 C556 1.355 . S
C555 C557 1.399 1_554 S
C556 C555 1.355 . S
C556 C558 1.419 . S
C557 C552 1.422 1_556 S
C557 C554 1.428 . S
C557 C555 1.399 1_556 S
C558 H548 0.930 . S
C558 C556 1.419 . S
C558 C559 1.362 . S
C559 H549 0.930 . S
C559 C552 1.428 . S
C559 C558 1.362 . S
H560 C566 0.930 . S
H561 C569 0.930 . S
H562 C570 0.930 . S
H563 C571 0.930 . S
H564 C574 0.930 . S
H565 C575 0.930 . S
C566 H560 0.930 . S
C566 C567 1.355 . S
C566 C568 1.415 . S
C567 C566 1.355 . S
C567 C569 1.419 . S
C568 C566 1.415 . S
C568 C573 1.425 . S
C568 C575 1.409 . S
C569 H561 0.930 . S
C569 C567 1.419 . S
C569 C570 1.362 . S
C570 H562 0.930 . S
C570 C569 1.362 . S
C570 C573 1.409 . S
C571 H563 0.930 . S
C571 C572 1.355 . S
C571 C573 1.415 . S
C572 C571 1.355 . S
C572 C574 1.419 . S
C573 C568 1.425 . S
C573 C570 1.409 . S
C573 C571 1.415 . S
C574 H564 0.930 . S
C574 C572 1.419 . S
C574 C575 1.362 . S
C575 H565 0.930 . S
C575 C568 1.409 . S
C575 C574 1.362 . S
H576 C582 0.930 . S
H577 C585 0.930 . S
H578 C586 0.930 . S
H579 C587 0.930 . S
H580 C590 0.930 . S
H581 C591 0.930 . S
C582 H576 0.930 . S
C582 C583 1.355 . S
C582 C584 1.415 . S
C583 C582 1.355 . S
C583 C585 1.419 . S
C584 C582 1.415 . S
C584 C589 1.425 . S
C584 C591 1.409 . S
C585 H577 0.930 . S
C585 C583 1.419 . S
C585 C586 1.362 . S
C586 H578 0.930 . S
C586 C585 1.362 . S
C586 C589 1.409 . S
C587 H579 0.930 . S
C587 C588 1.355 . S
C587 C589 1.415 . S
C588 C587 1.355 . S
C588 C590 1.419 . S
C589 C584 1.425 . S
C589 C586 1.409 . S
C589 C587 1.415 . S
C590 H580 0.930 . S
C590 C588 1.419 . S
C590 C591 1.362 . S
C591 H581 0.930 . S
C591 C584 1.409 . S
C591 C590 1.362 . S
H592 C598 0.930 . S
H593 C601 0.930 . S
H594 C602 0.930 . S
H595 C603 0.930 . S
H596 C606 0.930 . S
H597 C607 0.930 . S
C598 H592 0.930 . S
C598 C599 1.355 . S
C598 C600 1.415 . S
C599 C598 1.355 . S
C599 C601 1.419 . S
C600 C598 1.415 . S
C600 C605 1.425 . S
C600 C607 1.409 . S
C601 H593 0.930 . S
C601 C599 1.419 . S
C601 C602 1.362 . S
C602 H594 0.930 . S
C602 C601 1.362 . S
C602 C605 1.409 . S
C603 H595 0.930 . S
C603 C604 1.355 . S
C603 C605 1.415 . S
C604 C603 1.355 . S
C604 C606 1.419 . S
C605 C600 1.425 . S
C605 C602 1.409 . S
C605 C603 1.415 . S
C606 H596 0.930 . S
C606 C604 1.419 . S
C606 C607 1.362 . S
C607 H597 0.930 . S
C607 C600 1.409 . S
C607 C606 1.362 . S
H608 C614 0.930 . S
H609 C617 0.930 . S
H610 C618 0.930 . S
H611 C619 0.930 . S
H612 C622 0.930 . S
H613 C623 0.930 . S
C614 H608 0.930 . S
C614 C615 1.355 . S
C614 C616 1.415 . S
C615 C614 1.355 . S
C615 C617 1.419 . S
C616 C614 1.415 . S
C616 C621 1.425 . S
C616 C623 1.409 . S
C617 H609 0.930 . S
C617 C615 1.419 . S
C617 C618 1.362 . S
C618 H610 0.930 . S
C618 C617 1.362 . S
C618 C621 1.409 . S
C619 H611 0.930 . S
C619 C620 1.355 . S
C619 C621 1.415 . S
C620 C619 1.355 . S
C620 C622 1.419 . S
C621 C616 1.425 . S
C621 C618 1.409 . S
C621 C619 1.415 . S
C622 H612 0.930 . S
C622 C620 1.419 . S
C622 C623 1.362 . S
C623 H613 0.930 . S
C623 C616 1.409 . S
C623 C622 1.362 . S
H624 C630 0.930 . S
H625 C633 0.930 . S
H626 C634 0.930 . S
H627 C635 0.930 . S
H628 C638 0.930 . S
H629 C639 0.930 . S
C630 H624 0.930 . S
C630 C631 1.355 . S
C630 C632 1.415 . S
C631 C630 1.355 . S
C631 C633 1.419 . S
C632 C630 1.415 . S
C632 C637 1.425 . S
C632 C639 1.409 . S
C633 H625 0.930 . S
C633 C631 1.419 . S
C633 C634 1.362 . S
C634 H626 0.930 . S
C634 C633 1.362 . S
C634 C637 1.409 . S
C635 H627 0.930 . S
C635 C636 1.355 . S
C635 C637 1.415 . S
C636 C635 1.355 . S
C636 C638 1.419 . S
C637 C632 1.425 . S
C637 C634 1.409 . S
C637 C635 1.415 . S
C638 H628 0.930 . S
C638 C636 1.419 . S
C638 C639 1.362 . S
C639 H629 0.930 . S
C639 C632 1.409 . S
C639 C638 1.362 . S
H640 C646 0.930 . S
H641 C649 0.930 . S
H642 C650 0.930 . S
H643 C651 0.930 . S
H644 C654 0.930 . S
H645 C655 0.930 . S
C646 H640 0.930 . S
C646 C647 1.355 . S
C646 C648 1.415 . S
C647 C646 1.355 . S
C647 C649 1.419 . S
C648 C646 1.415 . S
C648 C653 1.425 1_565 S
C648 C655 1.409 . S
C649 H641 0.930 . S
C649 C647 1.419 . S
C649 C650 1.362 1_565 S
C650 H642 0.930 . S
C650 C649 1.362 1_545 S
C650 C653 1.409 . S
C651 H643 0.930 . S
C651 C652 1.355 . S
C651 C653 1.415 . S
C652 C651 1.355 . S
C652 C654 1.419 . S
C653 C648 1.425 1_545 S
C653 C650 1.409 . S
C653 C651 1.415 . S
C654 H644 0.930 . S
C654 C652 1.419 . S
C654 C655 1.362 1_545 S
C655 H645 0.930 . S
C655 C648 1.409 . S
C655 C654 1.362 1_565 S
H656 C662 0.930 1_655 S
H657 C665 0.930 1_554 S
H658 C666 0.930 . S
H659 C667 0.930 1_455 S
H660 C670 0.930 1_556 S
H661 C671 0.930 . S
C662 H656 0.930 1_455 S
C662 C663 1.355 . S
C662 C664 1.415 1_455 S
C663 C662 1.355 . S
C663 C665 1.419 . S
C664 C662 1.415 1_655 S
C664 C669 1.425 1_666 S
C664 C671 1.409 . S
C665 H657 0.930 1_556 S
C665 C663 1.419 . S
C665 C666 1.362 1_566 S
C666 H658 0.930 . S
C666 C665 1.362 1_544 S
C666 C669 1.409 . S
C667 H659 0.930 1_655 S
C667 C668 1.355 . S
C667 C669 1.415 1_655 S
C668 C667 1.355 . S
C668 C670 1.419 . S
C669 C664 1.425 1_444 S
C669 C666 1.409 . S
C669 C667 1.415 1_455 S
C670 H660 0.930 1_554 S
C670 C668 1.419 . S
C670 C671 1.362 1_544 S
C671 H661 0.930 . S
C671 C664 1.409 . S
C671 C670 1.362 1_566 S
H672 C678 0.930 . S
H673 C681 0.930 . S
H674 C682 0.930 . S
H675 C683 0.930 . S
H676 C686 0.930 . S
H677 C687 0.930 . S
C678 H672 0.930 . S
C678 C679 1.355 . S
C678 C680 1.415 1_545 S
C679 C678 1.355 . S
C679 C681 1.419 1_556 S
C680 C678 1.415 1_565 S
C680 C685 1.425 1_566 S
C680 C687 1.409 . S
C681 H673 0.930 . S
C681 C679 1.419 1_554 S
C681 C682 1.362 . S
C682 H674 0.930 . S
C682 C681 1.362 . S
C682 C685 1.409 . S
C683 H675 0.930 . S
C683 C684 1.355 . S
C683 C685 1.415 1_565 S
C684 C683 1.355 . S
C684 C686 1.419 1_554 S
C685 C680 1.425 1_544 S
C685 C682 1.409 . S
C685 C683 1.415 1_545 S
C686 H676 0.930 . S
C686 C684 1.419 1_556 S
C686 C687 1.362 . S
C687 H677 0.930 . S
C687 C680 1.409 . S
C687 C686 1.362 . S
H688 C694 0.930 . S
H689 C697 0.931 . S
H690 C698 0.930 . S
H691 C699 0.930 . S
H692 C702 0.931 . S
H693 C703 0.930 . S
C694 H688 0.930 . S
C694 C695 1.355 . S
C694 C696 1.415 1_545 S
C695 C694 1.355 . S
C695 C697 1.419 . S
C696 C694 1.415 1_565 S
C696 C701 1.425 1_465 S
C696 C703 1.409 . S
C697 H689 0.931 . S
C697 C695 1.419 . S
C697 C698 1.362 1_455 S
C698 H690 0.930 . S
C698 C697 1.362 1_655 S
C698 C701 1.409 . S
C699 H691 0.930 . S
C699 C700 1.355 . S
C699 C701 1.415 1_565 S
C700 C699 1.355 . S
C700 C702 1.419 . S
C701 C696 1.425 1_645 S
C701 C698 1.409 . S
C701 C699 1.415 1_545 S
C702 H692 0.931 . S
C702 C700 1.419 . S
C702 C703 1.362 1_655 S
C703 H693 0.930 . S
C703 C696 1.409 . S
C703 C702 1.362 1_455 S
H704 C710 0.924 1_455 S
H705 C713 0.930 . S
H706 C714 0.930 . S
H707 C715 0.924 1_655 S
H708 C718 0.930 . S
H709 C719 0.930 . S
C710 H704 0.924 1_655 S
C710 C711 1.364 . S
C710 C712 1.412 1_655 S
C711 C710 1.364 . S
C711 C713 1.419 . S
C712 C710 1.412 1_455 S
C712 C717 1.425 1_455 S
C712 C719 1.409 . S
C713 H705 0.930 . S
C713 C711 1.419 . S
C713 C714 1.362 . S
C714 H706 0.930 . S
C714 C713 1.362 . S
C714 C717 1.409 . S
C715 H707 0.924 1_455 S
C715 C716 1.364 . S
C715 C717 1.412 1_455 S
C716 C715 1.364 . S
C716 C718 1.419 . S
C717 C712 1.425 1_655 S
C717 C714 1.409 . S
C717 C715 1.412 1_655 S
C718 H708 0.930 . S
C718 C716 1.419 . S
C718 C719 1.362 . S
C719 H709 0.930 . S
C719 C712 1.409 . S
C719 C718 1.362 . S
H720 C726 0.930 . S
H721 C729 0.930 . S
H722 C730 0.930 . S
H723 C731 0.930 . S
H724 C734 0.930 . S
H725 C735 0.930 . S
C726 H720 0.930 . S
C726 C727 1.355 . S
C726 C728 1.415 . S
C727 C726 1.355 . S
C727 C729 1.419 . S
C728 C726 1.415 . S
C728 C733 1.425 1_455 S
C728 C735 1.409 . S
C729 H721 0.930 . S
C729 C727 1.419 . S
C729 C730 1.362 1_455 S
C730 H722 0.930 . S
C730 C729 1.362 1_655 S
C730 C733 1.409 . S
C731 H723 0.930 . S
C731 C732 1.355 . S
C731 C733 1.415 . S
C732 C731 1.355 . S
C732 C734 1.419 . S
C733 C728 1.425 1_655 S
C733 C730 1.409 . S
C733 C731 1.415 . S
C734 H724 0.930 . S
C734 C732 1.419 . S
C734 C735 1.362 1_655 S
C735 H725 0.930 . S
C735 C728 1.409 . S
C735 C734 1.362 1_455 S
H736 C742 0.930 . S
H737 C745 0.930 . S
H738 C746 0.930 . S
H739 C747 0.930 . S
H740 C750 0.930 . S
H741 C751 0.930 . S
C742 H736 0.930 . S
C742 C743 1.355 . S
C742 C744 1.415 . S
C743 C742 1.355 . S
C743 C745 1.419 . S
C744 C742 1.415 . S
C744 C749 1.425 . S
C744 C751 1.409 . S
C745 H737 0.930 . S
C745 C743 1.419 . S
C745 C746 1.362 . S
C746 H738 0.930 . S
C746 C745 1.362 . S
C746 C749 1.409 . S
C747 H739 0.930 . S
C747 C748 1.355 . S
C747 C749 1.415 . S
C748 C747 1.355 . S
C748 C750 1.419 . S
C749 C744 1.425 . S
C749 C746 1.409 . S
C749 C747 1.415 . S
C750 H740 0.930 . S
C750 C748 1.419 . S
C750 C751 1.362 . S
C751 H741 0.930 . S
C751 C744 1.409 . S
C751 C750 1.362 . S
H752 C758 0.930 . S
H753 C761 0.930 . S
H754 C762 0.930 . S
H755 C763 0.930 . S
H756 C766 0.930 . S
H757 C767 0.930 . S
C758 H752 0.930 . S
C758 C759 1.355 . S
C758 C760 1.415 . S
C759 C758 1.355 . S
C759 C761 1.419 . S
C760 C758 1.415 . S
C760 C765 1.425 . S
C760 C767 1.409 . S
C761 H753 0.930 . S
C761 C759 1.419 . S
C761 C762 1.362 . S
C762 H754 0.930 . S
C762 C761 1.362 . S
C762 C765 1.409 . S
C763 H755 0.930 . S
C763 C764 1.355 . S
C763 C765 1.415 . S
C764 C763 1.355 . S
C764 C766 1.419 . S
C765 C760 1.425 . S
C765 C762 1.409 . S
C765 C763 1.415 . S
C766 H756 0.930 . S
C766 C764 1.419 . S
C766 C767 1.362 . S
C767 H757 0.930 . S
C767 C760 1.409 . S
C767 C766 1.362 . S
H768 C774 0.930 1_455 S
H769 C777 0.930 . S
H770 C778 0.930 . S
H771 C779 0.930 1_655 S
H772 C782 0.930 . S
H773 C783 0.930 . S
C774 H768 0.930 1_655 S
C774 C775 1.355 . S
C774 C776 1.415 1_655 S
C775 C774 1.355 . S
C775 C777 1.419 . S
C776 C774 1.415 1_455 S
C776 C781 1.425 1_455 S
C776 C783 1.409 . S
C777 H769 0.930 . S
C777 C775 1.419 . S
C777 C778 1.362 . S
C778 H770 0.930 . S
C778 C777 1.362 . S
C778 C781 1.409 . S
C779 H771 0.930 1_455 S
C779 C780 1.355 . S
C779 C781 1.415 1_455 S
C780 C779 1.355 . S
C780 C782 1.419 . S
C781 C776 1.425 1_655 S
C781 C778 1.409 . S
C781 C779 1.415 1_655 S
C782 H772 0.930 . S
C782 C780 1.419 . S
C782 C783 1.362 . S
C783 H773 0.930 . S
C783 C776 1.409 . S
C783 C782 1.362 . S
H784 C790 0.930 . S
H785 C793 0.930 . S
H786 C794 0.930 . S
H787 C795 0.930 . S
H788 C798 0.930 . S
H789 C799 0.930 . S
C790 H784 0.930 . S
C790 C791 1.355 . S
C790 C792 1.415 . S
C791 C790 1.355 . S
C791 C793 1.419 . S
C792 C790 1.415 . S
C792 C797 1.425 . S
C792 C799 1.409 . S
C793 H785 0.930 . S
C793 C791 1.419 . S
C793 C794 1.362 . S
C794 H786 0.930 . S
C794 C793 1.362 . S
C794 C797 1.409 . S
C795 H787 0.930 . S
C795 C796 1.355 . S
C795 C797 1.415 . S
C796 C795 1.355 . S
C796 C798 1.419 . S
C797 C792 1.425 . S
C797 C794 1.409 . S
C797 C795 1.415 . S
C798 H788 0.930 . S
C798 C796 1.419 . S
C798 C799 1.362 . S
C799 H789 0.930 . S
C799 C792 1.409 . S
C799 C798 1.362 . S
H800 C806 0.930 . S
H801 C809 0.930 . S
H802 C810 0.930 . S
H803 C811 0.930 . S
H804 C814 0.930 . S
H805 C815 0.930 . S
C806 H800 0.930 . S
C806 C807 1.355 . S
C806 C808 1.415 . S
C807 C806 1.355 . S
C807 C809 1.419 . S
C808 C806 1.415 . S
C808 C813 1.425 . S
C808 C815 1.409 . S
C809 H801 0.930 . S
C809 C807 1.419 . S
C809 C810 1.362 . S
C810 H802 0.930 . S
C810 C809 1.362 . S
C810 C813 1.409 . S
C811 H803 0.930 . S
C811 C812 1.355 . S
C811 C813 1.415 . S
C812 C811 1.355 . S
C812 C814 1.419 . S
C813 C808 1.425 . S
C813 C810 1.409 . S
C813 C811 1.415 . S
C814 H804 0.930 . S
C814 C812 1.419 . S
C814 C815 1.362 . S
C815 H805 0.930 . S
C815 C808 1.409 . S
C815 C814 1.362 . S
H816 C822 0.930 . S
H817 C825 0.930 . S
H818 C826 0.930 . S
H819 C827 0.930 . S
H820 C830 0.930 . S
H821 C831 0.930 . S
C822 H816 0.930 . S
C822 C823 1.355 . S
C822 C824 1.415 1_455 S
C823 C822 1.355 . S
C823 C825 1.419 . S
C824 C822 1.415 1_655 S
C824 C829 1.425 1_655 S
C824 C831 1.409 . S
C825 H817 0.930 . S
C825 C823 1.419 . S
C825 C826 1.362 . S
C826 H818 0.930 . S
C826 C825 1.362 . S
C826 C829 1.409 . S
C827 H819 0.930 . S
C827 C828 1.355 . S
C827 C829 1.415 1_655 S
C828 C827 1.355 . S
C828 C830 1.419 . S
C829 C824 1.425 1_455 S
C829 C826 1.409 . S
C829 C827 1.415 1_455 S
C830 H820 0.930 . S
C830 C828 1.419 . S
C830 C831 1.362 . S
C831 H821 0.930 . S
C831 C824 1.409 . S
C831 C830 1.362 . S
H832 C838 0.930 . S
H833 C841 0.930 . S
H834 C842 0.930 . S
H835 C843 0.930 . S
H836 C846 0.930 . S
H837 C847 0.930 . S
C838 H832 0.930 . S
C838 C839 1.355 . S
C838 C840 1.415 . S
C839 C838 1.355 . S
C839 C841 1.419 1_655 S
C840 C838 1.415 . S
C840 C845 1.425 1_655 S
C840 C847 1.409 . S
C841 H833 0.930 . S
C841 C839 1.419 1_455 S
C841 C842 1.362 . S
C842 H834 0.930 . S
C842 C841 1.362 . S
C842 C845 1.409 . S
C843 H835 0.930 . S
C843 C844 1.355 . S
C843 C845 1.415 . S
C844 C843 1.355 . S
C844 C846 1.419 1_455 S
C845 C840 1.425 1_455 S
C845 C842 1.409 . S
C845 C843 1.415 . S
C846 H836 0.930 . S
C846 C844 1.419 1_655 S
C846 C847 1.362 . S
C847 H837 0.930 . S
C847 C840 1.409 . S
C847 C846 1.362 . S
H848 C854 0.930 . S
H849 C857 0.930 . S
H850 C858 0.930 . S
H851 C859 0.930 . S
H852 C862 0.930 . S
H853 C863 0.930 . S
C854 H848 0.930 . S
C854 C855 1.355 . S
C854 C856 1.415 . S
C855 C854 1.355 . S
C855 C857 1.419 . S
C856 C854 1.415 . S
C856 C861 1.425 1_655 S
C856 C863 1.409 . S
C857 H849 0.930 . S
C857 C855 1.419 . S
C857 C858 1.362 1_655 S
C858 H850 0.930 . S
C858 C857 1.362 1_455 S
C858 C861 1.409 . S
C859 H851 0.930 . S
C859 C860 1.355 . S
C859 C861 1.415 . S
C860 C859 1.355 . S
C860 C862 1.419 . S
C861 C856 1.425 1_455 S
C861 C858 1.409 . S
C861 C859 1.415 . S
C862 H852 0.930 . S
C862 C860 1.419 . S
C862 C863 1.362 1_455 S
C863 H853 0.930 . S
C863 C856 1.409 . S
C863 C862 1.362 1_655 S
H864 C870 0.930 . S
H865 C873 0.930 . S
H866 C874 0.930 . S
H867 C875 0.930 . S
H868 C878 0.930 . S
H869 C879 0.930 . S
C870 H864 0.930 . S
C870 C871 1.355 . S
C870 C872 1.415 . S
C871 C870 1.355 . S
C871 C873 1.419 . S
C872 C870 1.415 . S
C872 C877 1.425 . S
C872 C879 1.409 . S
C873 H865 0.930 . S
C873 C871 1.419 . S
C873 C874 1.362 . S
C874 H866 0.930 . S
C874 C873 1.362 . S
C874 C877 1.409 . S
C875 H867 0.930 . S
C875 C876 1.355 . S
C875 C877 1.415 . S
C876 C875 1.355 . S
C876 C878 1.419 . S
C877 C872 1.425 . S
C877 C874 1.409 . S
C877 C875 1.415 . S
C878 H868 0.930 . S
C878 C876 1.419 . S
C878 C879 1.362 . S
C879 H869 0.930 . S
C879 C872 1.409 . S
C879 C878 1.362 . S
H880 C886 0.930 . S
H881 C889 0.930 . S
H882 C890 0.930 . S
H883 C891 0.930 . S
H884 C894 0.930 . S
H885 C895 0.930 . S
C886 H880 0.930 . S
C886 C887 1.355 . S
C886 C888 1.415 . S
C887 C886 1.355 . S
C887 C889 1.419 . S
C888 C886 1.415 . S
C888 C893 1.425 . S
C888 C895 1.409 . S
C889 H881 0.930 . S
C889 C887 1.419 . S
C889 C890 1.362 . S
C890 H882 0.930 . S
C890 C889 1.362 . S
C890 C893 1.409 . S
C891 H883 0.930 . S
C891 C892 1.355 . S
C891 C893 1.415 . S
C892 C891 1.355 . S
C892 C894 1.419 . S
C893 C888 1.425 . S
C893 C890 1.409 . S
C893 C891 1.415 . S
C894 H884 0.930 . S
C894 C892 1.419 . S
C894 C895 1.362 . S
C895 H885 0.930 . S
C895 C888 1.409 . S
C895 C894 1.362 . S
H896 C902 0.930 1_455 S
H897 C905 0.930 . S
H898 C906 0.930 . S
H899 C907 0.930 1_655 S
H900 C910 0.930 . S
H901 C911 0.930 . S
C902 H896 0.930 1_655 S
C902 C903 1.355 . S
C902 C904 1.415 1_655 S
C903 C902 1.355 . S
C903 C905 1.419 . S
C904 C902 1.415 1_455 S
C904 C909 1.425 1_455 S
C904 C911 1.409 . S
C905 H897 0.930 . S
C905 C903 1.419 . S
C905 C906 1.362 . S
C906 H898 0.930 . S
C906 C905 1.362 . S
C906 C909 1.409 . S
C907 H899 0.930 1_455 S
C907 C908 1.355 . S
C907 C909 1.415 1_455 S
C908 C907 1.355 . S
C908 C910 1.419 . S
C909 C904 1.425 1_655 S
C909 C906 1.409 . S
C909 C907 1.415 1_655 S
C910 H900 0.930 . S
C910 C908 1.419 . S
C910 C911 1.362 . S
C911 H901 0.930 . S
C911 C904 1.409 . S
C911 C910 1.362 . S
H912 C918 0.930 . S
H913 C921 0.930 . S
H914 C922 0.930 . S
H915 C923 0.930 . S
H916 C926 0.930 . S
H917 C927 0.930 . S
C918 H912 0.930 . S
C918 C919 1.355 . S
C918 C920 1.415 . S
C919 C918 1.355 . S
C919 C921 1.419 . S
C920 C918 1.415 . S
C920 C925 1.425 . S
C920 C927 1.409 . S
C921 H913 0.930 . S
C921 C919 1.419 . S
C921 C922 1.362 . S
C922 H914 0.930 . S
C922 C921 1.362 . S
C922 C925 1.409 . S
C923 H915 0.930 . S
C923 C924 1.355 . S
C923 C925 1.415 . S
C924 C923 1.355 . S
C924 C926 1.419 . S
C925 C920 1.425 . S
C925 C922 1.409 . S
C925 C923 1.415 . S
C926 H916 0.930 . S
C926 C924 1.419 . S
C926 C927 1.362 . S
C927 H917 0.930 . S
C927 C920 1.409 . S
C927 C926 1.362 . S
H928 C934 0.930 . S
H929 C937 0.930 . S
H930 C938 0.930 . S
H931 C939 0.930 . S
H932 C942 0.930 . S
H933 C943 0.930 . S
C934 H928 0.930 . S
C934 C935 1.355 . S
C934 C936 1.415 . S
C935 C934 1.355 . S
C935 C937 1.419 . S
C936 C934 1.415 . S
C936 C941 1.425 . S
C936 C943 1.409 . S
C937 H929 0.930 . S
C937 C935 1.419 . S
C937 C938 1.362 . S
C938 H930 0.930 . S
C938 C937 1.362 . S
C938 C941 1.409 . S
C939 H931 0.930 . S
C939 C940 1.355 . S
C939 C941 1.415 . S
C940 C939 1.355 . S
C940 C942 1.419 . S
C941 C936 1.425 . S
C941 C938 1.409 . S
C941 C939 1.415 . S
C942 H932 0.930 . S
C942 C940 1.419 . S
C942 C943 1.362 . S
C943 H933 0.930 . S
C943 C936 1.409 . S
C943 C942 1.362 . S
H944 C950 0.930 . S
H945 C953 0.930 . S
H946 C954 0.930 . S
H947 C955 0.930 . S
H948 C958 0.930 . S
H949 C959 0.930 . S
C950 H944 0.930 . S
C950 C951 1.355 . S
C950 C952 1.415 1_655 S
C951 C950 1.355 . S
C951 C953 1.419 . S
C952 C950 1.415 1_455 S
C952 C957 1.425 1_455 S
C952 C959 1.409 . S
C953 H945 0.930 . S
C953 C951 1.419 . S
C953 C954 1.362 . S
C954 H946 0.930 . S
C954 C953 1.362 . S
C954 C957 1.409 . S
C955 H947 0.930 . S
C955 C956 1.355 . S
C955 C957 1.415 1_455 S
C956 C955 1.355 . S
C956 C958 1.419 . S
C957 C952 1.425 1_655 S
C957 C954 1.409 . S
C957 C955 1.415 1_655 S
C958 H948 0.930 . S
C958 C956 1.419 . S
C958 C959 1.362 . S
C959 H949 0.930 . S
C959 C952 1.409 . S
C959 C958 1.362 . S
H960 C966 0.930 . S
H961 C969 0.930 . S
H962 C970 0.930 . S
H963 C971 0.930 . S
H964 C974 0.930 . S
H965 C975 0.930 . S
C966 H960 0.930 . S
C966 C967 1.355 . S
C966 C968 1.415 . S
C967 C966 1.355 . S
C967 C969 1.419 . S
C968 C966 1.415 . S
C968 C973 1.425 1_556 S
C968 C975 1.409 . S
C969 H961 0.930 . S
C969 C967 1.419 . S
C969 C970 1.362 1_556 S
C970 H962 0.930 . S
C970 C969 1.362 1_554 S
C970 C973 1.409 . S
C971 H963 0.930 . S
C971 C972 1.355 . S
C971 C973 1.415 . S
C972 C971 1.355 . S
C972 C974 1.419 . S
C973 C968 1.425 1_554 S
C973 C970 1.409 . S
C973 C971 1.415 . S
C974 H964 0.930 . S
C974 C972 1.419 . S
C974 C975 1.362 1_554 S
C975 H965 0.930 . S
C975 C968 1.409 . S
C975 C974 1.362 1_556 S
H976 C982 0.930 . S
H977 C985 0.930 . S
H978 C986 0.930 1_565 S
H979 C987 0.930 . S
H980 C990 0.930 . S
H981 C991 0.930 1_545 S
C982 H976 0.930 . S
C982 C983 1.355 . S
C982 C984 1.415 . S
C983 C982 1.355 . S
C983 C985 1.419 . S
C984 C982 1.415 . S
C984 C989 1.425 1_545 S
C984 C991 1.409 1_545 S
C985 H977 0.930 . S
C985 C983 1.419 . S
C985 C986 1.362 . S
C986 H978 0.930 1_545 S
C986 C985 1.362 . S
C986 C989 1.409 1_545 S
C987 H979 0.930 . S
C987 C988 1.355 . S
C987 C989 1.415 . S
C988 C987 1.355 . S
C988 C990 1.419 . S
C989 C984 1.425 1_565 S
C989 C986 1.409 1_565 S
C989 C987 1.415 . S
C990 H980 0.930 . S
C990 C988 1.419 . S
C990 C991 1.362 . S
C991 H981 0.930 1_565 S
C991 C984 1.409 1_565 S
C991 C990 1.362 . S
H992 C998 0.930 . S
H993 C1001 0.930 . S
H994 C1002 0.930 . S
H995 C1003 0.930 . S
H996 C1006 0.930 . S
H997 C1007 0.930 . S
C998 H992 0.930 . S
C998 C999 1.355 . S
C998 C1000 1.415 . S
C999 C998 1.355 . S
C999 C1001 1.419 . S
C1000 C998 1.415 . S
C1000 C1005 1.425 . S
C1000 C1007 1.409 . S
C1001 H993 0.930 . S
C1001 C999 1.419 . S
C1001 C1002 1.362 . S
C1002 H994 0.930 . S
C1002 C1001 1.362 . S
C1002 C1005 1.409 . S
C1003 H995 0.930 . S
C1003 C1004 1.355 . S
C1003 C1005 1.415 . S
C1004 C1003 1.355 . S
C1004 C1006 1.419 . S
C1005 C1000 1.425 . S
C1005 C1002 1.409 . S
C1005 C1003 1.415 . S
C1006 H996 0.930 . S
C1006 C1004 1.419 . S
C1006 C1007 1.362 . S
C1007 H997 0.930 . S
C1007 C1000 1.409 . S
C1007 C1006 1.362 . S
H1008 C1014 0.930 . S
H1009 C1017 0.930 . S
H1010 C1018 0.930 . S
H1011 C1019 0.930 . S
H1012 C1022 0.930 . S
H1013 C1023 0.930 . S
C1014 H1008 0.930 . S
C1014 C1015 1.355 . S
C1014 C1016 1.415 . S
C1015 C1014 1.355 . S
C1015 C1017 1.419 . S
C1016 C1014 1.415 . S
C1016 C1021 1.425 1_545 S
C1016 C1023 1.409 . S
C1017 H1009 0.930 . S
C1017 C1015 1.419 . S
C1017 C1018 1.362 1_545 S
C1018 H1010 0.930 . S
C1018 C1017 1.362 1_565 S
C1018 C1021 1.409 . S
C1019 H1011 0.930 . S
C1019 C1020 1.355 . S
C1019 C1021 1.415 . S
C1020 C1019 1.355 . S
C1020 C1022 1.419 . S
C1021 C1016 1.425 1_565 S
C1021 C1018 1.409 . S
C1021 C1019 1.415 . S
C1022 H1012 0.930 . S
C1022 C1020 1.419 . S
C1022 C1023 1.362 1_565 S
C1023 H1013 0.930 . S
C1023 C1016 1.409 . S
C1023 C1022 1.362 1_545 S
H1024 C1030 0.930 . S
H1025 C1033 0.928 1_556 S
H1026 C1034 0.930 . S
H1027 C1035 0.930 . S
H1028 C1038 0.928 1_554 S
H1029 C1039 0.930 . S
C1030 H1024 0.930 . S
C1030 C1031 1.355 . S
C1030 C1032 1.415 . S
C1031 C1030 1.355 . S
C1031 C1033 1.428 . S
C1032 C1030 1.415 . S
C1032 C1037 1.425 1_554 S
C1032 C1039 1.409 . S
C1033 H1025 0.928 1_554 S
C1033 C1031 1.428 . S
C1033 C1034 1.356 1_554 S
C1034 H1026 0.930 . S
C1034 C1033 1.356 1_556 S
C1034 C1037 1.409 . S
C1035 H1027 0.930 . S
C1035 C1036 1.355 . S
C1035 C1037 1.415 . S
C1036 C1035 1.355 . S
C1036 C1038 1.428 . S
C1037 C1032 1.425 1_556 S
C1037 C1034 1.409 . S
C1037 C1035 1.415 . S
C1038 H1028 0.928 1_556 S
C1038 C1036 1.428 . S
C1038 C1039 1.356 1_556 S
C1039 H1029 0.930 . S
C1039 C1032 1.409 . S
C1039 C1038 1.356 1_554 S
H1040 C1046 0.930 . S
H1041 C1049 0.930 . S
H1042 C1050 0.930 . S
H1043 C1051 0.930 . S
H1044 C1054 0.930 . S
H1045 C1055 0.930 . S
C1046 H1040 0.930 . S
C1046 C1047 1.355 . S
C1046 C1048 1.389 1_565 S
C1047 C1046 1.355 . S
C1047 C1049 1.419 . S
C1048 C1046 1.389 1_545 S
C1048 C1053 1.423 1_545 S
C1048 C1055 1.437 . S
C1049 H1041 0.930 . S
C1049 C1047 1.419 . S
C1049 C1050 1.362 . S
C1050 H1042 0.930 . S
C1050 C1049 1.362 . S
C1050 C1053 1.437 . S
C1051 H1043 0.930 . S
C1051 C1052 1.355 . S
C1051 C1053 1.389 1_545 S
C1052 C1051 1.355 . S
C1052 C1054 1.419 . S
C1053 C1048 1.423 1_565 S
C1053 C1050 1.437 . S
C1053 C1051 1.389 1_565 S
C1054 H1044 0.930 . S
C1054 C1052 1.419 . S
C1054 C1055 1.362 . S
C1055 H1045 0.930 . S
C1055 C1048 1.437 . S
C1055 C1054 1.362 . S
H1056 C1062 0.930 . S
H1057 C1065 0.930 . S
H1058 C1066 0.930 . S
H1059 C1067 0.930 . S
H1060 C1070 0.930 . S
H1061 C1071 0.930 . S
C1062 H1056 0.930 . S
C1062 C1063 1.355 . S
C1062 C1064 1.415 . S
C1063 C1062 1.355 . S
C1063 C1065 1.419 . S
C1064 C1062 1.415 . S
C1064 C1069 1.425 . S
C1064 C1071 1.409 . S
C1065 H1057 0.930 . S
C1065 C1063 1.419 . S
C1065 C1066 1.362 . S
C1066 H1058 0.930 . S
C1066 C1065 1.362 . S
C1066 C1069 1.409 . S
C1067 H1059 0.930 . S
C1067 C1068 1.355 . S
C1067 C1069 1.415 . S
C1068 C1067 1.355 . S
C1068 C1070 1.419 . S
C1069 C1064 1.425 . S
C1069 C1066 1.409 . S
C1069 C1067 1.415 . S
C1070 H1060 0.930 . S
C1070 C1068 1.419 . S
C1070 C1071 1.362 . S
C1071 H1061 0.930 . S
C1071 C1064 1.409 . S
C1071 C1070 1.362 . S
H1072 C1078 0.930 . S
H1073 C1081 0.930 . S
H1074 C1082 0.930 . S
H1075 C1083 0.930 . S
H1076 C1086 0.930 . S
H1077 C1087 0.930 . S
C1078 H1072 0.930 . S
C1078 C1079 1.355 . S
C1078 C1080 1.415 . S
C1079 C1078 1.355 . S
C1079 C1081 1.419 . S
C1080 C1078 1.415 . S
C1080 C1085 1.425 1_545 S
C1080 C1087 1.409 1_545 S
C1081 H1073 0.930 . S
C1081 C1079 1.419 . S
C1081 C1082 1.362 . S
C1082 H1074 0.930 . S
C1082 C1081 1.362 . S
C1082 C1085 1.409 1_545 S
C1083 H1075 0.930 . S
C1083 C1084 1.355 . S
C1083 C1085 1.415 . S
C1084 C1083 1.355 . S
C1084 C1086 1.419 . S
C1085 C1080 1.425 1_565 S
C1085 C1082 1.409 1_565 S
C1085 C1083 1.415 . S
C1086 H1076 0.930 . S
C1086 C1084 1.419 . S
C1086 C1087 1.362 . S
C1087 H1077 0.930 . S
C1087 C1080 1.409 1_565 S
C1087 C1086 1.362 . S
H1088 C1094 0.930 . S
H1089 C1097 0.930 . S
H1090 C1098 0.930 . S
H1091 C1099 0.930 . S
H1092 C1102 0.930 . S
H1093 C1103 0.930 . S
C1094 H1088 0.930 . S
C1094 C1095 1.355 . S
C1094 C1096 1.415 . S
C1095 C1094 1.355 . S
C1095 C1097 1.419 . S
C1096 C1094 1.415 . S
C1096 C1101 1.425 . S
C1096 C1103 1.409 . S
C1097 H1089 0.930 . S
C1097 C1095 1.419 . S
C1097 C1098 1.362 . S
C1098 H1090 0.930 . S
C1098 C1097 1.362 . S
C1098 C1101 1.409 . S
C1099 H1091 0.930 . S
C1099 C1100 1.355 . S
C1099 C1101 1.415 . S
C1100 C1099 1.355 . S
C1100 C1102 1.419 . S
C1101 C1096 1.425 . S
C1101 C1098 1.409 . S
C1101 C1099 1.415 . S
C1102 H1092 0.930 . S
C1102 C1100 1.419 . S
C1102 C1103 1.362 . S
C1103 H1093 0.930 . S
C1103 C1096 1.409 . S
C1103 C1102 1.362 . S
H1104 C1110 0.930 . S
H1105 C1113 0.930 . S
H1106 C1114 0.930 . S
H1107 C1115 0.930 . S
H1108 C1118 0.930 . S
H1109 C1119 0.930 . S
C1110 H1104 0.930 . S
C1110 C1111 1.355 . S
C1110 C1112 1.415 . S
C1111 C1110 1.355 . S
C1111 C1113 1.419 . S
C1112 C1110 1.415 . S
C1112 C1117 1.425 . S
C1112 C1119 1.409 . S
C1113 H1105 0.930 . S
C1113 C1111 1.419 . S
C1113 C1114 1.362 . S
C1114 H1106 0.930 . S
C1114 C1113 1.362 . S
C1114 C1117 1.409 . S
C1115 H1107 0.930 . S
C1115 C1116 1.355 . S
C1115 C1117 1.415 . S
C1116 C1115 1.355 . S
C1116 C1118 1.419 . S
C1117 C1112 1.425 . S
C1117 C1114 1.409 . S
C1117 C1115 1.415 . S
C1118 H1108 0.930 . S
C1118 C1116 1.419 . S
C1118 C1119 1.362 . S
C1119 H1109 0.930 . S
C1119 C1112 1.409 . S
C1119 C1118 1.362 . S
H1120 C1126 0.930 . S
H1121 C1129 0.930 . S
H1122 C1130 0.930 . S
H1123 C1131 0.930 . S
H1124 C1134 0.930 . S
H1125 C1135 0.930 . S
C1126 H1120 0.930 . S
C1126 C1127 1.355 . S
C1126 C1128 1.415 . S
C1127 C1126 1.355 . S
C1127 C1129 1.419 1_554 S
C1128 C1126 1.415 . S
C1128 C1133 1.425 1_554 S
C1128 C1135 1.409 . S
C1129 H1121 0.930 . S
C1129 C1127 1.419 1_556 S
C1129 C1130 1.362 . S
C1130 H1122 0.930 . S
C1130 C1129 1.362 . S
C1130 C1133 1.409 . S
C1131 H1123 0.930 . S
C1131 C1132 1.355 . S
C1131 C1133 1.415 . S
C1132 C1131 1.355 . S
C1132 C1134 1.419 1_556 S
C1133 C1128 1.425 1_556 S
C1133 C1130 1.409 . S
C1133 C1131 1.415 . S
C1134 H1124 0.930 . S
C1134 C1132 1.419 1_554 S
C1134 C1135 1.362 . S
C1135 H1125 0.930 . S
C1135 C1128 1.409 . S
C1135 C1134 1.362 . S
H1136 C1142 0.930 . S
H1137 C1145 0.930 . S
H1138 C1146 0.930 . S
H1139 C1147 0.930 . S
H1140 C1150 0.930 . S
H1141 C1151 0.930 . S
C1142 H1136 0.930 . S
C1142 C1143 1.355 . S
C1142 C1144 1.415 . S
C1143 C1142 1.355 . S
C1143 C1145 1.419 . S
C1144 C1142 1.415 . S
C1144 C1149 1.425 . S
C1144 C1151 1.409 . S
C1145 H1137 0.930 . S
C1145 C1143 1.419 . S
C1145 C1146 1.362 . S
C1146 H1138 0.930 . S
C1146 C1145 1.362 . S
C1146 C1149 1.409 . S
C1147 H1139 0.930 . S
C1147 C1148 1.355 . S
C1147 C1149 1.415 . S
C1148 C1147 1.355 . S
C1148 C1150 1.419 . S
C1149 C1144 1.425 . S
C1149 C1146 1.409 . S
C1149 C1147 1.415 . S
C1150 H1140 0.930 . S
C1150 C1148 1.419 . S
C1150 C1151 1.362 . S
C1151 H1141 0.930 . S
C1151 C1144 1.409 . S
C1151 C1150 1.362 . S
H1152 C1158 0.930 . S
H1153 C1161 0.930 . S
H1154 C1162 0.930 . S
H1155 C1163 0.930 . S
H1156 C1166 0.930 . S
H1157 C1167 0.930 . S
C1158 H1152 0.930 . S
C1158 C1159 1.355 . S
C1158 C1160 1.415 . S
C1159 C1158 1.355 . S
C1159 C1161 1.419 . S
C1160 C1158 1.415 . S
C1160 C1165 1.425 . S
C1160 C1167 1.409 . S
C1161 H1153 0.930 . S
C1161 C1159 1.419 . S
C1161 C1162 1.362 . S
C1162 H1154 0.930 . S
C1162 C1161 1.362 . S
C1162 C1165 1.409 . S
C1163 H1155 0.930 . S
C1163 C1164 1.355 . S
C1163 C1165 1.415 . S
C1164 C1163 1.355 . S
C1164 C1166 1.419 . S
C1165 C1160 1.425 . S
C1165 C1162 1.409 . S
C1165 C1163 1.415 . S
C1166 H1156 0.930 . S
C1166 C1164 1.419 . S
C1166 C1167 1.362 . S
C1167 H1157 0.930 . S
C1167 C1160 1.409 . S
C1167 C1166 1.362 . S
H1168 C1174 0.930 . S
H1169 C1177 0.930 . S
H1170 C1178 0.930 . S
H1171 C1179 0.930 . S
H1172 C1182 0.930 . S
H1173 C1183 0.930 . S
C1174 H1168 0.930 . S
C1174 C1175 1.355 . S
C1174 C1176 1.415 . S
C1175 C1174 1.355 . S
C1175 C1177 1.419 . S
C1176 C1174 1.415 . S
C1176 C1181 1.425 . S
C1176 C1183 1.409 . S
C1177 H1169 0.930 . S
C1177 C1175 1.419 . S
C1177 C1178 1.362 . S
C1178 H1170 0.930 . S
C1178 C1177 1.362 . S
C1178 C1181 1.409 . S
C1179 H1171 0.930 . S
C1179 C1180 1.355 . S
C1179 C1181 1.415 . S
C1180 C1179 1.355 . S
C1180 C1182 1.419 . S
C1181 C1176 1.425 . S
C1181 C1178 1.409 . S
C1181 C1179 1.415 . S
C1182 H1172 0.930 . S
C1182 C1180 1.419 . S
C1182 C1183 1.362 . S
C1183 H1173 0.930 . S
C1183 C1176 1.409 . S
C1183 C1182 1.362 . S
H1184 C1190 0.930 . S
H1185 C1193 0.930 . S
H1186 C1194 0.930 . S
H1187 C1195 0.930 . S
H1188 C1198 0.930 . S
H1189 C1199 0.930 . S
C1190 H1184 0.930 . S
C1190 C1191 1.355 . S
C1190 C1192 1.415 . S
C1191 C1190 1.355 . S
C1191 C1193 1.419 1_556 S
C1192 C1190 1.415 . S
C1192 C1197 1.425 1_556 S
C1192 C1199 1.409 . S
C1193 H1185 0.930 . S
C1193 C1191 1.419 1_554 S
C1193 C1194 1.362 . S
C1194 H1186 0.930 . S
C1194 C1193 1.362 . S
C1194 C1197 1.409 . S
C1195 H1187 0.930 . S
C1195 C1196 1.355 . S
C1195 C1197 1.415 . S
C1196 C1195 1.355 . S
C1196 C1198 1.419 1_554 S
C1197 C1192 1.425 1_554 S
C1197 C1194 1.409 . S
C1197 C1195 1.415 . S
C1198 H1188 0.930 . S
C1198 C1196 1.419 1_556 S
C1198 C1199 1.362 . S
C1199 H1189 0.930 . S
C1199 C1192 1.409 . S
C1199 C1198 1.362 . S
H1200 C1206 0.930 . S
H1201 C1209 0.930 . S
H1202 C1210 0.930 . S
H1203 C1211 0.930 . S
H1204 C1214 0.930 . S
H1205 C1215 0.930 . S
C1206 H1200 0.930 . S
C1206 C1207 1.355 . S
C1206 C1208 1.415 . S
C1207 C1206 1.355 . S
C1207 C1209 1.419 . S
C1208 C1206 1.415 . S
C1208 C1213 1.425 . S
C1208 C1215 1.409 . S
C1209 H1201 0.930 . S
C1209 C1207 1.419 . S
C1209 C1210 1.362 . S
C1210 H1202 0.930 . S
C1210 C1209 1.362 . S
C1210 C1213 1.409 . S
C1211 H1203 0.930 . S
C1211 C1212 1.355 . S
C1211 C1213 1.415 . S
C1212 C1211 1.355 . S
C1212 C1214 1.419 . S
C1213 C1208 1.425 . S
C1213 C1210 1.409 . S
C1213 C1211 1.415 . S
C1214 H1204 0.930 . S
C1214 C1212 1.419 . S
C1214 C1215 1.362 . S
C1215 H1205 0.930 . S
C1215 C1208 1.409 . S
C1215 C1214 1.362 . S
H1216 C1222 0.930 . S
H1217 C1225 0.930 . S
H1218 C1226 0.930 . S
H1219 C1227 0.930 . S
H1220 C1230 0.930 . S
H1221 C1231 0.930 . S
C1222 H1216 0.930 . S
C1222 C1223 1.355 . S
C1222 C1224 1.415 . S
C1223 C1222 1.355 . S
C1223 C1225 1.419 . S
C1224 C1222 1.415 . S
C1224 C1229 1.425 . S
C1224 C1231 1.409 . S
C1225 H1217 0.930 . S
C1225 C1223 1.419 . S
C1225 C1226 1.362 . S
C1226 H1218 0.930 . S
C1226 C1225 1.362 . S
C1226 C1229 1.409 . S
C1227 H1219 0.930 . S
C1227 C1228 1.355 . S
C1227 C1229 1.415 . S
C1228 C1227 1.355 . S
C1228 C1230 1.419 . S
C1229 C1224 1.425 . S
C1229 C1226 1.409 . S
C1229 C1227 1.415 . S
C1230 H1220 0.930 . S
C1230 C1228 1.419 . S
C1230 C1231 1.362 . S
C1231 H1221 0.930 . S
C1231 C1224 1.409 . S
C1231 C1230 1.362 . S
H1232 C1238 0.930 . S
H1233 C1241 0.930 . S
H1234 C1242 0.930 . S
H1235 C1243 0.930 . S
H1236 C1246 0.930 . S
H1237 C1247 0.930 . S
C1238 H1232 0.930 . S
C1238 C1239 1.355 . S
C1238 C1240 1.415 . S
C1239 C1238 1.355 . S
C1239 C1241 1.419 . S
C1240 C1238 1.415 . S
C1240 C1245 1.425 . S
C1240 C1247 1.409 . S
C1241 H1233 0.930 . S
C1241 C1239 1.419 . S
C1241 C1242 1.362 . S
C1242 H1234 0.930 . S
C1242 C1241 1.362 . S
C1242 C1245 1.409 . S
C1243 H1235 0.930 . S
C1243 C1244 1.355 . S
C1243 C1245 1.415 . S
C1244 C1243 1.355 . S
C1244 C1246 1.419 . S
C1245 C1240 1.425 . S
C1245 C1242 1.409 . S
C1245 C1243 1.415 . S
C1246 H1236 0.930 . S
C1246 C1244 1.419 . S
C1246 C1247 1.362 . S
C1247 H1237 0.930 . S
C1247 C1240 1.409 . S
C1247 C1246 1.362 . S
H1248 C1254 0.930 . S
H1249 C1257 0.930 . S
H1250 C1258 0.930 . S
H1251 C1259 0.930 . S
H1252 C1262 0.930 . S
H1253 C1263 0.930 . S
C1254 H1248 0.930 . S
C1254 C1255 1.355 . S
C1254 C1256 1.415 . S
C1255 C1254 1.355 . S
C1255 C1257 1.419 . S
C1256 C1254 1.415 . S
C1256 C1261 1.425 . S
C1256 C1263 1.409 . S
C1257 H1249 0.930 . S
C1257 C1255 1.419 . S
C1257 C1258 1.362 . S
C1258 H1250 0.930 . S
C1258 C1257 1.362 . S
C1258 C1261 1.409 . S
C1259 H1251 0.930 . S
C1259 C1260 1.355 . S
C1259 C1261 1.415 . S
C1260 C1259 1.355 . S
C1260 C1262 1.419 . S
C1261 C1256 1.425 . S
C1261 C1258 1.409 . S
C1261 C1259 1.415 . S
C1262 H1252 0.930 . S
C1262 C1260 1.419 . S
C1262 C1263 1.362 . S
C1263 H1253 0.930 . S
C1263 C1256 1.409 . S
C1263 C1262 1.362 . S
H1264 C1270 0.930 . S
H1265 C1273 0.930 . S
H1266 C1274 0.930 . S
H1267 C1275 0.930 . S
H1268 C1278 0.930 . S
H1269 C1279 0.930 . S
C1270 H1264 0.930 . S
C1270 C1271 1.355 . S
C1270 C1272 1.415 . S
C1271 C1270 1.355 . S
C1271 C1273 1.419 . S
C1272 C1270 1.415 . S
C1272 C1277 1.425 . S
C1272 C1279 1.409 . S
C1273 H1265 0.930 . S
C1273 C1271 1.419 . S
C1273 C1274 1.362 . S
C1274 H1266 0.930 . S
C1274 C1273 1.362 . S
C1274 C1277 1.409 . S
C1275 H1267 0.930 . S
C1275 C1276 1.355 . S
C1275 C1277 1.415 . S
C1276 C1275 1.355 . S
C1276 C1278 1.419 . S
C1277 C1272 1.425 . S
C1277 C1274 1.409 . S
C1277 C1275 1.415 . S
C1278 H1268 0.930 . S
C1278 C1276 1.419 . S
C1278 C1279 1.362 . S
C1279 H1269 0.930 . S
C1279 C1272 1.409 . S
C1279 C1278 1.362 . S
H1280 C1286 0.930 . S
H1281 C1289 0.930 . S
H1282 C1290 0.930 . S
H1283 C1291 0.930 . S
H1284 C1294 0.930 . S
H1285 C1295 0.930 . S
C1286 H1280 0.930 . S
C1286 C1287 1.355 . S
C1286 C1288 1.415 . S
C1287 C1286 1.355 . S
C1287 C1289 1.419 . S
C1288 C1286 1.415 . S
C1288 C1293 1.425 . S
C1288 C1295 1.409 . S
C1289 H1281 0.930 . S
C1289 C1287 1.419 . S
C1289 C1290 1.362 . S
C1290 H1282 0.930 . S
C1290 C1289 1.362 . S
C1290 C1293 1.409 . S
C1291 H1283 0.930 . S
C1291 C1292 1.355 . S
C1291 C1293 1.415 . S
C1292 C1291 1.355 . S
C1292 C1294 1.419 . S
C1293 C1288 1.425 . S
C1293 C1290 1.409 . S
C1293 C1291 1.415 . S
C1294 H1284 0.930 . S
C1294 C1292 1.419 . S
C1294 C1295 1.362 . S
C1295 H1285 0.930 . S
C1295 C1288 1.409 . S
C1295 C1294 1.362 . S
H1296 C1302 0.930 . S
H1297 C1305 0.930 . S
H1298 C1306 0.930 . S
H1299 C1307 0.930 . S
H1300 C1310 0.930 . S
H1301 C1311 0.930 . S
C1302 H1296 0.930 . S
C1302 C1303 1.355 . S
C1302 C1304 1.415 . S
C1303 C1302 1.355 . S
C1303 C1305 1.419 . S
C1304 C1302 1.415 . S
C1304 C1309 1.425 . S
C1304 C1311 1.409 . S
C1305 H1297 0.930 . S
C1305 C1303 1.419 . S
C1305 C1306 1.362 . S
C1306 H1298 0.930 . S
C1306 C1305 1.362 . S
C1306 C1309 1.409 . S
C1307 H1299 0.930 . S
C1307 C1308 1.355 . S
C1307 C1309 1.415 . S
C1308 C1307 1.355 . S
C1308 C1310 1.419 . S
C1309 C1304 1.425 . S
C1309 C1306 1.409 . S
C1309 C1307 1.415 . S
C1310 H1300 0.930 . S
C1310 C1308 1.419 . S
C1310 C1311 1.362 . S
C1311 H1301 0.930 . S
C1311 C1304 1.409 . S
C1311 C1310 1.362 . S
H1312 C1318 0.930 . S
H1313 C1321 0.930 . S
H1314 C1322 0.930 . S
H1315 C1323 0.930 . S
H1316 C1326 0.930 . S
H1317 C1327 0.930 . S
C1318 H1312 0.930 . S
C1318 C1319 1.355 . S
C1318 C1320 1.415 . S
C1319 C1318 1.355 . S
C1319 C1321 1.419 . S
C1320 C1318 1.415 . S
C1320 C1325 1.425 . S
C1320 C1327 1.409 . S
C1321 H1313 0.930 . S
C1321 C1319 1.419 . S
C1321 C1322 1.362 . S
C1322 H1314 0.930 . S
C1322 C1321 1.362 . S
C1322 C1325 1.409 . S
C1323 H1315 0.930 . S
C1323 C1324 1.355 . S
C1323 C1325 1.415 . S
C1324 C1323 1.355 . S
C1324 C1326 1.419 . S
C1325 C1320 1.425 . S
C1325 C1322 1.409 . S
C1325 C1323 1.415 . S
C1326 H1316 0.930 . S
C1326 C1324 1.419 . S
C1326 C1327 1.362 . S
C1327 H1317 0.930 . S
C1327 C1320 1.409 . S
C1327 C1326 1.362 . S
H1328 C1334 0.930 . S
H1329 C1337 0.930 . S
H1330 C1338 0.930 . S
H1331 C1339 0.930 . S
H1332 C1342 0.930 . S
H1333 C1343 0.930 . S
C1334 H1328 0.930 . S
C1334 C1335 1.355 . S
C1334 C1336 1.415 . S
C1335 C1334 1.355 . S
C1335 C1337 1.419 . S
C1336 C1334 1.415 . S
C1336 C1341 1.425 . S
C1336 C1343 1.409 . S
C1337 H1329 0.930 . S
C1337 C1335 1.419 . S
C1337 C1338 1.362 . S
C1338 H1330 0.930 . S
C1338 C1337 1.362 . S
C1338 C1341 1.409 . S
C1339 H1331 0.930 . S
C1339 C1340 1.355 . S
C1339 C1341 1.415 . S
C1340 C1339 1.355 . S
C1340 C1342 1.419 . S
C1341 C1336 1.425 . S
C1341 C1338 1.409 . S
C1341 C1339 1.415 . S
C1342 H1332 0.930 . S
C1342 C1340 1.419 . S
C1342 C1343 1.362 . S
C1343 H1333 0.930 . S
C1343 C1336 1.409 . S
C1343 C1342 1.362 . S
H1344 C1350 0.930 . S
H1345 C1353 0.930 . S
H1346 C1354 0.930 . S
H1347 C1355 0.930 . S
H1348 C1358 0.930 . S
H1349 C1359 0.930 . S
C1350 H1344 0.930 . S
C1350 C1351 1.355 . S
C1350 C1352 1.415 . S
C1351 C1350 1.355 . S
C1351 C1353 1.419 . S
C1352 C1350 1.415 . S
C1352 C1357 1.425 . S
C1352 C1359 1.409 . S
C1353 H1345 0.930 . S
C1353 C1351 1.419 . S
C1353 C1354 1.362 . S
C1354 H1346 0.930 . S
C1354 C1353 1.362 . S
C1354 C1357 1.409 . S
C1355 H1347 0.930 . S
C1355 C1356 1.355 . S
C1355 C1357 1.415 . S
C1356 C1355 1.355 . S
C1356 C1358 1.419 . S
C1357 C1352 1.425 . S
C1357 C1354 1.409 . S
C1357 C1355 1.415 . S
C1358 H1348 0.930 . S
C1358 C1356 1.419 . S
C1358 C1359 1.362 . S
C1359 H1349 0.930 . S
C1359 C1352 1.409 . S
C1359 C1358 1.362 . S
H1360 C1366 0.930 . S
H1361 C1369 0.930 . S
H1362 C1370 0.930 . S
H1363 C1371 0.930 . S
H1364 C1374 0.930 . S
H1365 C1375 0.930 . S
C1366 H1360 0.930 . S
C1366 C1367 1.355 . S
C1366 C1368 1.415 . S
C1367 C1366 1.355 . S
C1367 C1369 1.419 . S
C1368 C1366 1.415 . S
C1368 C1373 1.425 . S
C1368 C1375 1.409 . S
C1369 H1361 0.930 . S
C1369 C1367 1.419 . S
C1369 C1370 1.362 . S
C1370 H1362 0.930 . S
C1370 C1369 1.362 . S
C1370 C1373 1.409 . S
C1371 H1363 0.930 . S
C1371 C1372 1.355 . S
C1371 C1373 1.415 . S
C1372 C1371 1.355 . S
C1372 C1374 1.419 . S
C1373 C1368 1.425 . S
C1373 C1370 1.409 . S
C1373 C1371 1.415 . S
C1374 H1364 0.930 . S
C1374 C1372 1.419 . S
C1374 C1375 1.362 . S
C1375 H1365 0.930 . S
C1375 C1368 1.409 . S
C1375 C1374 1.362 . S
H1376 C1382 0.930 . S
H1377 C1385 0.930 . S
H1378 C1386 0.930 . S
H1379 C1387 0.930 . S
H1380 C1390 0.930 . S
H1381 C1391 0.930 . S
C1382 H1376 0.930 . S
C1382 C1383 1.355 . S
C1382 C1384 1.415 . S
C1383 C1382 1.355 . S
C1383 C1385 1.419 . S
C1384 C1382 1.415 . S
C1384 C1389 1.425 . S
C1384 C1391 1.409 . S
C1385 H1377 0.930 . S
C1385 C1383 1.419 . S
C1385 C1386 1.362 . S
C1386 H1378 0.930 . S
C1386 C1385 1.362 . S
C1386 C1389 1.409 . S
C1387 H1379 0.930 . S
C1387 C1388 1.355 . S
C1387 C1389 1.415 . S
C1388 C1387 1.355 . S
C1388 C1390 1.419 . S
C1389 C1384 1.425 . S
C1389 C1386 1.409 . S
C1389 C1387 1.415 . S
C1390 H1380 0.930 . S
C1390 C1388 1.419 . S
C1390 C1391 1.362 . S
C1391 H1381 0.930 . S
C1391 C1384 1.409 . S
C1391 C1390 1.362 . S
H1392 C1398 0.930 . S
H1393 C1401 0.930 . S
H1394 C1402 0.930 . S
H1395 C1403 0.930 . S
H1396 C1406 0.930 . S
H1397 C1407 0.930 . S
C1398 H1392 0.930 . S
C1398 C1399 1.355 . S
C1398 C1400 1.415 . S
C1399 C1398 1.355 . S
C1399 C1401 1.419 . S
C1400 C1398 1.415 . S
C1400 C1405 1.425 . S
C1400 C1407 1.409 . S
C1401 H1393 0.930 . S
C1401 C1399 1.419 . S
C1401 C1402 1.362 . S
C1402 H1394 0.930 . S
C1402 C1401 1.362 . S
C1402 C1405 1.409 . S
C1403 H1395 0.930 . S
C1403 C1404 1.355 . S
C1403 C1405 1.415 . S
C1404 C1403 1.355 . S
C1404 C1406 1.419 . S
C1405 C1400 1.425 . S
C1405 C1402 1.409 . S
C1405 C1403 1.415 . S
C1406 H1396 0.930 . S
C1406 C1404 1.419 . S
C1406 C1407 1.362 . S
C1407 H1397 0.930 . S
C1407 C1400 1.409 . S
C1407 C1406 1.362 . S
H1408 C1414 0.930 . S
H1409 C1417 0.930 . S
H1410 C1418 0.930 . S
H1411 C1419 0.930 . S
H1412 C1422 0.930 . S
H1413 C1423 0.930 . S
C1414 H1408 0.930 . S
C1414 C1415 1.355 . S
C1414 C1416 1.415 . S
C1415 C1414 1.355 . S
C1415 C1417 1.419 . S
C1416 C1414 1.415 . S
C1416 C1421 1.425 . S
C1416 C1423 1.409 . S
C1417 H1409 0.930 . S
C1417 C1415 1.419 . S
C1417 C1418 1.362 . S
C1418 H1410 0.930 . S
C1418 C1417 1.362 . S
C1418 C1421 1.409 . S
C1419 H1411 0.930 . S
C1419 C1420 1.355 . S
C1419 C1421 1.415 . S
C1420 C1419 1.355 . S
C1420 C1422 1.419 . S
C1421 C1416 1.425 . S
C1421 C1418 1.409 . S
C1421 C1419 1.415 . S
C1422 H1412 0.930 . S
C1422 C1420 1.419 . S
C1422 C1423 1.362 . S
C1423 H1413 0.930 . S
C1423 C1416 1.409 . S
C1423 C1422 1.362 . S
H1424 C1430 0.930 . S
H1425 C1433 0.930 . S
H1426 C1434 0.930 . S
H1427 C1435 0.930 . S
H1428 C1438 0.930 . S
H1429 C1439 0.930 . S
C1430 H1424 0.930 . S
C1430 C1431 1.355 . S
C1430 C1432 1.415 . S
C1431 C1430 1.355 . S
C1431 C1433 1.419 . S
C1432 C1430 1.415 . S
C1432 C1437 1.425 . S
C1432 C1439 1.409 . S
C1433 H1425 0.930 . S
C1433 C1431 1.419 . S
C1433 C1434 1.362 . S
C1434 H1426 0.930 . S
C1434 C1433 1.362 . S
C1434 C1437 1.409 . S
C1435 H1427 0.930 . S
C1435 C1436 1.355 . S
C1435 C1437 1.415 . S
C1436 C1435 1.355 . S
C1436 C1438 1.419 . S
C1437 C1432 1.425 . S
C1437 C1434 1.409 . S
C1437 C1435 1.415 . S
C1438 H1428 0.930 . S
C1438 C1436 1.419 . S
C1438 C1439 1.362 . S
C1439 H1429 0.930 . S
C1439 C1432 1.409 . S
C1439 C1438 1.362 . S
H1440 C1446 0.930 . S
H1441 C1449 0.930 . S
H1442 C1450 0.930 . S
H1443 C1451 0.930 . S
H1444 C1454 0.930 . S
H1445 C1455 0.930 . S
C1446 H1440 0.930 . S
C1446 C1447 1.355 . S
C1446 C1448 1.415 . S
C1447 C1446 1.355 . S
C1447 C1449 1.419 . S
C1448 C1446 1.415 . S
C1448 C1453 1.425 . S
C1448 C1455 1.409 . S
C1449 H1441 0.930 . S
C1449 C1447 1.419 . S
C1449 C1450 1.362 . S
C1450 H1442 0.930 . S
C1450 C1449 1.362 . S
C1450 C1453 1.409 . S
C1451 H1443 0.930 . S
C1451 C1452 1.355 . S
C1451 C1453 1.415 . S
C1452 C1451 1.355 . S
C1452 C1454 1.419 . S
C1453 C1448 1.425 . S
C1453 C1450 1.409 . S
C1453 C1451 1.415 . S
C1454 H1444 0.930 . S
C1454 C1452 1.419 . S
C1454 C1455 1.362 . S
C1455 H1445 0.930 . S
C1455 C1448 1.409 . S
C1455 C1454 1.362 . S
H1456 C1462 0.930 . S
H1457 C1465 0.930 . S
H1458 C1466 0.930 . S
H1459 C1467 0.930 . S
H1460 C1470 0.930 . S
H1461 C1471 0.930 . S
C1462 H1456 0.930 . S
C1462 C1463 1.355 . S
C1462 C1464 1.415 . S
C1463 C1462 1.355 . S
C1463 C1465 1.419 . S
C1464 C1462 1.415 . S
C1464 C1469 1.425 . S
C1464 C1471 1.409 . S
C1465 H1457 0.930 . S
C1465 C1463 1.419 . S
C1465 C1466 1.362 . S
C1466 H1458 0.930 . S
C1466 C1465 1.362 . S
C1466 C1469 1.409 . S
C1467 H1459 0.930 . S
C1467 C1468 1.355 . S
C1467 C1469 1.415 . S
C1468 C1467 1.355 . S
C1468 C1470 1.419 . S
C1469 C1464 1.425 . S
C1469 C1466 1.409 . S
C1469 C1467 1.415 . S
C1470 H1460 0.930 . S
C1470 C1468 1.419 . S
C1470 C1471 1.362 . S
C1471 H1461 0.930 . S
C1471 C1464 1.409 . S
C1471 C1470 1.362 . S
C455 C119 1.536 . S
C460 C7 1.536 . S
C471 C357 1.473 . S
C476 C21 1.473 . S
C487 C147 1.474 . S
C492 C35 1.474 . S
C503 C385 1.475 . S
C508 C49 1.475 . S
C519 C175 1.530 . S
C524 C63 1.530 . S
C535 C77 1.496 . S
C540 C413 1.496 . S
C551 C91 1.528 . S
C556 C203 1.528 . S
C567 C105 1.477 . S
C572 C441 1.477 . S
C583 C245 1.535 . S
C588 C133 1.535 . S
C599 C273 1.502 . S
C604 C161 1.502 . S
C615 C189 1.482 . S
C620 C301 1.482 . S
C631 C217 1.474 . S
C636 C329 1.474 . S
C647 C231 1.535 . S
C652 C343 1.535 . S
C663 C371 1.534 . S
C668 C259 1.534 . S
C679 C287 1.516 . S
C684 C399 1.516 . S
C695 C427 1.481 . S
C700 C315 1.481 . S
C711 C261 1.580 . S
C716 C9 1.581 . S
C727 C275 1.580 . S
C732 C23 1.581 . S
C743 C37 1.568 . S
C748 C233 1.594 . S
C759 C51 1.592 . S
C764 C247 1.570 . S
C775 C317 1.586 . S
C780 C65 1.575 . S
C791 C79 1.587 . S
C796 C331 1.576 . S
C807 C289 1.573 . S
C812 C93 1.590 . S
C823 C303 1.593 . S
C828 C107 1.569 . S
C839 C121 1.578 . S
C844 C373 1.585 . S
C855 C387 1.580 . S
C860 C135 1.581 . S
C871 C149 1.593 . S
C876 C345 1.568 . S
C887 C163 1.578 . S
C892 C359 1.585 . S
C903 C177 1.594 . S
C908 C429 1.568 . S
C919 C191 1.578 . S
C924 C443 1.585 . S
C935 C401 1.591 . S
C940 C205 1.570 . S
C951 C415 1.582 . S
C956 C219 1.581 . S
C967 C92 1.514 . S
C972 C8 1.536 . S
C983 C106 1.514 . S
C988 C22 1.543 . S
C999 C64 1.515 . S
C1004 C36 1.535 . S
C1015 C50 1.524 . S
C1020 C78 1.536 . S
C1031 C204 1.513 . S
C1036 C120 1.538 . S
C1047 C218 1.513 . S
C1052 C134 1.539 . S
C1063 C176 1.542 . S
C1068 C148 1.515 . S
C1079 C190 1.538 . S
C1084 C162 1.513 . S
C1095 C316 1.526 . S
C1100 C232 1.534 . S
C1111 C330 1.520 . S
C1116 C246 1.529 . S
C1127 C260 1.524 . S
C1132 C288 1.524 . S
C1143 C274 1.513 . S
C1148 C302 1.542 . S
C1159 C428 1.515 . S
C1164 C344 1.535 . S
C1175 C442 1.542 . S
C1180 C358 1.512 . S
C1191 C372 1.517 . S
C1196 C400 1.532 . S
C1207 C386 1.513 . S
C1212 C414 1.538 . S
C1223 C3 1.400 . S
C1228 C297 1.398 . S
C1239 C311 1.422 . S
C1244 C17 1.416 . S
C1255 C325 1.404 . S
C1260 C31 1.422 . S
C1271 C45 1.423 . S
C1276 C283 1.413 . S
C1287 C269 1.422 . S
C1292 C59 1.404 . S
C1303 C73 1.423 . S
C1308 C227 1.407 . S
C1319 C241 1.396 . S
C1324 C87 1.412 . S
C1335 C101 1.396 . S
C1340 C255 1.411 . S
C1351 C409 1.422 . S
C1356 C115 1.404 . S
C1367 C423 1.401 . S
C1372 C129 1.398 . S
C1383 C143 1.423 . S
C1388 C437 1.409 . S
C1399 C395 1.398 . S
C1404 C157 1.417 . S
C1415 C381 1.405 . S
C1420 C171 1.422 . S
C1431 C185 1.395 . S
C1436 C339 1.408 . S
C1447 C353 1.421 . S
C1452 C199 1.418 . S
C1463 C213 1.405 . S
C1468 C367 1.396 . S
