# Generated by pormake.
# Topology wjd, (6)-cn, num edge types: 1
# Building blocks:
#     Node 0, Type 0, BuildingBlock: KUMJIN_clean_sbu_1, # of connection points: 6
#     Node 1, Type 0, BuildingBlock: KUMJIN_clean_sbu_1, # of connection points: 6
#     Node 2, Type 0, BuildingBlock: KUMJIN_clean_sbu_1, # of connection points: 6
#     Node 3, Type 0, BuildingBlock: KUMJIN_clean_sbu_1, # of connection points: 6
#     Node 4, Type 0, BuildingBlock: KUMJIN_clean_sbu_1, # of connection points: 6
#     Node 5, Type 0, BuildingBlock: KUMJIN_clean_sbu_1, # of connection points: 6
#     Node 6, Type 0, BuildingBlock: KUMJIN_clean_sbu_1, # of connection points: 6
#     Node 7, Type 0, BuildingBlock: KUMJIN_clean_sbu_1, # of connection points: 6
#     Node 8, Type 0, BuildingBlock: KUMJIN_clean_sbu_1, # of connection points: 6
#     Node 9, Type 0, BuildingBlock: KUMJIN_clean_sbu_1, # of connection points: 6
#     Node 10, Type 0, BuildingBlock: KUMJIN_clean_sbu_1, # of connection points: 6
#     Node 11, Type 0, BuildingBlock: KUMJIN_clean_sbu_1, # of connection points: 6
#     Edge 12, Type (0, 0), BuildingBlock: XUDNAN_clean_linker_2, # of connection points: 2
#     Edge 13, Type (0, 0), BuildingBlock: XUDNAN_clean_linker_2, # of connection points: 2
#     Edge 14, Type (0, 0), BuildingBlock: XUDNAN_clean_linker_2, # of connection points: 2
#     Edge 15, Type (0, 0), BuildingBlock: XUDNAN_clean_linker_2, # of connection points: 2
#     Edge 16, Type (0, 0), BuildingBlock: XUDNAN_clean_linker_2, # of connection points: 2
#     Edge 17, Type (0, 0), BuildingBlock: XUDNAN_clean_linker_2, # of connection points: 2
#     Edge 18, Type (0, 0), BuildingBlock: XUDNAN_clean_linker_2, # of connection points: 2
#     Edge 19, Type (0, 0), BuildingBlock: XUDNAN_clean_linker_2, # of connection points: 2
#     Edge 20, Type (0, 0), BuildingBlock: XUDNAN_clean_linker_2, # of connection points: 2
#     Edge 21, Type (0, 0), BuildingBlock: XUDNAN_clean_linker_2, # of connection points: 2
#     Edge 22, Type (0, 0), BuildingBlock: XUDNAN_clean_linker_2, # of connection points: 2
#     Edge 23, Type (0, 0), BuildingBlock: XUDNAN_clean_linker_2, # of connection points: 2
#     Edge 24, Type (0, 0), BuildingBlock: XUDNAN_clean_linker_2, # of connection points: 2
#     Edge 25, Type (0, 0), BuildingBlock: XUDNAN_clean_linker_2, # of connection points: 2
#     Edge 26, Type (0, 0), BuildingBlock: XUDNAN_clean_linker_2, # of connection points: 2
#     Edge 27, Type (0, 0), BuildingBlock: XUDNAN_clean_linker_2, # of connection points: 2
#     Edge 28, Type (0, 0), BuildingBlock: XUDNAN_clean_linker_2, # of connection points: 2
#     Edge 29, Type (0, 0), BuildingBlock: XUDNAN_clean_linker_2, # of connection points: 2
#     Edge 30, Type (0, 0), BuildingBlock: XUDNAN_clean_linker_2, # of connection points: 2
#     Edge 31, Type (0, 0), BuildingBlock: XUDNAN_clean_linker_2, # of connection points: 2
#     Edge 32, Type (0, 0), BuildingBlock: XUDNAN_clean_linker_2, # of connection points: 2
#     Edge 33, Type (0, 0), BuildingBlock: XUDNAN_clean_linker_2, # of connection points: 2
#     Edge 34, Type (0, 0), BuildingBlock: XUDNAN_clean_linker_2, # of connection points: 2
#     Edge 35, Type (0, 0), BuildingBlock: XUDNAN_clean_linker_2, # of connection points: 2
#     Edge 36, Type (0, 0), BuildingBlock: XUDNAN_clean_linker_2, # of connection points: 2
#     Edge 37, Type (0, 0), BuildingBlock: XUDNAN_clean_linker_2, # of connection points: 2
#     Edge 38, Type (0, 0), BuildingBlock: XUDNAN_clean_linker_2, # of connection points: 2
#     Edge 39, Type (0, 0), BuildingBlock: XUDNAN_clean_linker_2, # of connection points: 2
#     Edge 40, Type (0, 0), BuildingBlock: XUDNAN_clean_linker_2, # of connection points: 2
#     Edge 41, Type (0, 0), BuildingBlock: XUDNAN_clean_linker_2, # of connection points: 2
#     Edge 42, Type (0, 0), BuildingBlock: XUDNAN_clean_linker_2, # of connection points: 2
#     Edge 43, Type (0, 0), BuildingBlock: XUDNAN_clean_linker_2, # of connection points: 2
#     Edge 44, Type (0, 0), BuildingBlock: XUDNAN_clean_linker_2, # of connection points: 2
#     Edge 45, Type (0, 0), BuildingBlock: XUDNAN_clean_linker_2, # of connection points: 2
#     Edge 46, Type (0, 0), BuildingBlock: XUDNAN_clean_linker_2, # of connection points: 2
#     Edge 47, Type (0, 0), BuildingBlock: XUDNAN_clean_linker_2, # of connection points: 2
# Relax obj value: 0.073
# Max RMSD: 0.186
# Mean RMSD: 0.186
data_MOF--net-wjd--node1-KUMJIN_clean_sbu_1--edge1-XUDNAN_clean_linker_2
_symmetry_space_group_name_H-M    P1
_symmetry_Int_Tables_number       1
_symmetry_cell_setting            triclinic
loop_
_symmetry_equiv_pos_as_xyz
'x, y, z'
_cell_length_a     39.186701
_cell_length_b     39.125352
_cell_length_c     54.044069
_cell_angle_alpha  89.880475
_cell_angle_beta   89.994248
_cell_angle_gamma 119.98778
loop_
_atom_site_label
_atom_site_type_symbol
_atom_site_fract_x
_atom_site_fract_y
_atom_site_fract_z
_atom_type_partial_charge
Eu0 Eu 0.31364 0.07221 0.13423 0.0
C1 C 0.32618 0.21843 0.07895 0.0
N2 N 0.34535 0.19862 0.07306 0.0
C3 C 0.33211 0.20138 0.03 0.0
C4 C 0.30892 0.2303 0.06039 0.0
C5 C 0.34914 0.19059 0.04897 0.0
C6 C 0.31182 0.22122 0.03572 0.0
C7 C 0.30426 0.24763 0.11029 0.0
C8 C 0.32399 0.22715 0.10364 0.0
C9 C 0.28733 0.25969 0.09183 0.0
C10 C 0.28963 0.25105 0.06696 0.0
Eu11 Eu 0.37386 0.18267 0.10644 0.0
N12 N 0.34047 0.21492 0.12118 0.0
C13 C 0.30215 0.2554 0.13534 0.0
C14 C 0.33938 0.22333 0.14553 0.0
C15 C 0.3199 0.2433 0.15302 0.0
H16 H 0.36594 0.17654 0.04418 0.0
H17 H 0.31867 0.24942 0.17241 0.0
H18 H 0.2883 0.05179 0.19416 0.0
H19 H 0.38492 0.01497 0.07282 0.0
H20 H 0.35319 0.21447 0.15927 0.0
H21 H 0.28707 0.27087 0.1412 0.0
H22 H 0.34919 0.0496 0.08304 0.0
H23 H 0.33502 0.19477 0.01094 0.0
H24 H 0.27216 0.27555 0.09661 0.0
H25 H 0.27626 0.26042 0.05295 0.0
H26 H 0.29602 0.0133 0.22821 0.0
H27 H 0.29887 0.22975 0.02095 0.0
H28 H 0.40102 0.98145 0.10576 0.0
N29 N 0.32038 0.03808 0.16825 0.0
C30 C 0.34014 0.01837 0.16375 0.0
C31 C 0.30911 0.0152 0.21028 0.0
C32 C 0.34619 0.99725 0.18281 0.0
C33 C 0.30473 0.03671 0.19106 0.0
C34 C 0.3305 0.99599 0.20627 0.0
N35 N 0.34601 0.03765 0.12154 0.0
C36 C 0.35611 0.03564 0.09764 0.0
C37 C 0.37343 0.99746 0.13471 0.0
C38 C 0.35329 0.01815 0.13983 0.0
C39 C 0.3854 0.99691 0.1104 0.0
C40 C 0.37637 0.01579 0.09176 0.0
H41 H 0.33414 0.9797 0.22129 0.0
H42 H 0.37198 0.96118 0.19227 0.0
H43 H 0.39612 0.96167 0.15024 0.0
O44 O 0.26334 0.01846 0.14865 0.0
O45 O 0.38063 0.10051 0.13389 0.0
O46 O 0.40136 0.14435 0.10121 0.0
O47 O 0.25825 0.04163 0.11348 0.0
O48 O 0.30709 0.08188 0.09353 0.0
O49 O 0.36409 0.135 0.07823 0.0
O50 O 0.42424 0.2366 0.12137 0.0
O51 O 0.30656 0.14836 0.10845 0.0
O52 O 0.29458 0.11564 0.14523 0.0
O53 O 0.41922 0.22638 0.08205 0.0
O54 O 0.38654 0.17604 0.14741 0.0
O55 O 0.33188 0.11979 0.16345 0.0
C56 C 0.40788 0.12422 0.11813 0.0
C57 C 0.20184 0.01179 0.13918 0.0
C58 C 0.12986 0.97558 0.1391 0.0
C59 C 0.13013 1.00261 0.15632 0.0
C60 C 0.20136 0.03816 0.15656 0.0
C61 C 0.1657 0.0338 0.16485 0.0
C62 C 0.166 0.98068 0.1303 0.0
C63 C 0.33035 0.10192 0.07506 0.0
C64 C 0.23964 0.016 0.13105 0.0
C65 C 0.36686 0.97731 0.1778 0.0
C66 C 0.38056 0.97754 0.15385 0.0
C67 C 0.2848 0.13314 0.12832 0.0
C68 C 0.44948 0.29334 0.09521 0.0
C69 C 0.49595 0.3645 0.10118 0.0
C70 C 0.47381 0.3725 0.08394 0.0
C71 C 0.42813 0.30277 0.07841 0.0
C72 C 0.48294 0.3243 0.10687 0.0
C73 C 0.44011 0.342 0.07299 0.0
C74 C 0.36571 0.15329 0.16619 0.0
C75 C 0.43828 0.25147 0.09964 0.0
H76 H 0.10277 0.99961 0.16314 0.0
H77 H 0.22856 0.0618 0.164 0.0
H78 H 0.16561 0.0544 0.17816 0.0
H79 H 0.16623 0.95991 0.11715 0.0
H80 H 0.48287 0.40232 0.07816 0.0
H81 H 0.40258 0.27989 0.06902 0.0
H82 H 0.49878 0.31674 0.12015 0.0
H83 H 0.42364 0.34881 0.05973 0.0
Eu84 Eu 0.81987 0.64536 0.40626 0.0
C85 C 0.71443 0.67074 0.3239 0.0
N86 N 0.75442 0.68996 0.32547 0.0
C87 C 0.75934 0.68224 0.28195 0.0
C88 C 0.69535 0.65614 0.30103 0.0
C89 C 0.77709 0.69717 0.30489 0.0
C90 C 0.71837 0.66132 0.28006 0.0
C91 C 0.6509 0.64633 0.34398 0.0
C92 C 0.69238 0.66542 0.34523 0.0
C93 C 0.63191 0.63193 0.3212 0.0
C94 C 0.65405 0.63662 0.29981 0.0
Eu95 Eu 0.78065 0.70646 0.3656 0.0
N96 N 0.71141 0.67809 0.36727 0.0
C97 C 0.62969 0.64194 0.36574 0.0
C98 C 0.6909 0.67449 0.38847 0.0
C99 C 0.64981 0.65634 0.38803 0.0
H100 H 0.80882 0.71371 0.30632 0.0
H101 H 0.63366 0.65325 0.40491 0.0
H102 H 0.83656 0.68088 0.46392 0.0
H103 H 0.92445 0.64641 0.33819 0.0
H104 H 0.7059 0.68539 0.40583 0.0
H105 H 0.59781 0.62747 0.36553 0.0
H106 H 0.85946 0.62514 0.35589 0.0
H107 H 0.77705 0.6865 0.2657 0.0
H108 H 0.60006 0.61694 0.31994 0.0
H109 H 0.63895 0.62522 0.28238 0.0
H110 H 0.89319 0.72208 0.49099 0.0
H111 H 0.70482 0.64961 0.26228 0.0
H112 H 0.98436 0.69213 0.36132 0.0
N113 N 0.8722 0.68365 0.43346 0.0
C114 C 0.90921 0.69644 0.42483 0.0
C115 C 0.8981 0.71521 0.4724 0.0
C116 C 0.94238 0.71978 0.43975 0.0
C117 C 0.86611 0.69207 0.45698 0.0
C118 C 0.93642 0.72931 0.46372 0.0
N119 N 0.8813 0.6637 0.387 0.0
C120 C 0.88488 0.64776 0.36534 0.0
C121 C 0.95201 0.69804 0.39191 0.0
C122 C 0.9139 0.68632 0.40095 0.0
C123 C 0.9557 0.68437 0.36874 0.0
C124 C 0.92196 0.6587 0.35557 0.0
H125 H 0.96115 0.74726 0.47571 0.0
H126 H 1.00617 0.75113 0.44145 0.0
H127 H 1.01459 0.73152 0.39975 0.0
O128 O 0.81628 0.58804 0.40108 0.0
O129 O 0.85073 0.71226 0.40618 0.0
O130 O 0.84608 0.7262 0.36583 0.0
O131 O 0.81374 0.60752 0.43783 0.0
O132 O 0.8018 0.62892 0.36533 0.0
O133 O 0.822 0.68959 0.34809 0.0
O134 O 0.80546 0.76474 0.38189 0.0
O135 O 0.73803 0.63928 0.36958 0.0
O136 O 0.75498 0.62368 0.40688 0.0
O137 O 0.78065 0.75527 0.34516 0.0
O138 O 0.7756 0.70836 0.4068 0.0
O139 O 0.78563 0.66536 0.43173 0.0
C140 C 0.86618 0.73434 0.38656 0.0
C141 C 0.84627 0.56997 0.43278 0.0
C142 C 0.87495 0.52677 0.42935 0.0
C143 C 0.89941 0.54641 0.44958 0.0
C144 C 0.87162 0.58931 0.45277 0.0
C145 C 0.89792 0.57756 0.46103 0.0
C146 C 0.84847 0.53888 0.42088 0.0
C147 C 0.8122 0.65255 0.34587 0.0
C148 C 0.81724 0.58165 0.4246 0.0
C149 C 0.98033 0.73289 0.43034 0.0
C150 C 0.98513 0.7219 0.40654 0.0
C151 C 0.73185 0.61403 0.38764 0.0
C152 C 0.78021 0.80541 0.37024 0.0
C153 C 0.78944 0.87155 0.37644 0.0
C154 C 0.75388 0.85464 0.38978 0.0
C155 C 0.74467 0.78927 0.38343 0.0
C156 C 0.80233 0.84659 0.36649 0.0
C157 C 0.73157 0.81379 0.39306 0.0
C158 C 0.77628 0.69348 0.4285 0.0
C159 C 0.79691 0.78032 0.36329 0.0
H160 H 0.92014 0.53791 0.45637 0.0
H161 H 0.87109 0.61346 0.46216 0.0
H162 H 0.9172 0.59263 0.47647 0.0
H163 H 0.8292 0.52372 0.40542 0.0
H164 H 0.74312 0.87306 0.39746 0.0
H165 H 0.72762 0.75785 0.38684 0.0
H166 H 0.83013 0.85929 0.35663 0.0
H167 H 0.70424 0.80112 0.40338 0.0
Eu168 Eu 0.94843 0.24321 0.13098 0.0
C169 C 0.80271 0.11828 0.07786 0.0
N170 N 0.82581 0.15659 0.07086 0.0
C171 C 0.82744 0.13677 0.02919 0.0
C172 C 0.79173 0.08749 0.06066 0.0
C173 C 0.83783 0.16634 0.04692 0.0
C174 C 0.8044 0.09718 0.0361 0.0
C175 C 0.76787 0.07037 0.11035 0.0
C176 C 0.79141 0.10991 0.10256 0.0
C177 C 0.75717 0.03962 0.0933 0.0
C178 C 0.76909 0.04814 0.06854 0.0
Eu179 Eu 0.84149 0.20446 0.10179 0.0
N180 N 0.80302 0.14029 0.11887 0.0
C181 C 0.75519 0.0629 0.13496 0.0
C182 C 0.78806 0.13309 0.14233 0.0
C183 C 0.76484 0.09441 0.15091 0.0
H184 H 0.85544 0.19694 0.04154 0.0
H185 H 0.75372 0.08897 0.16968 0.0
H186 H 0.93992 0.20879 0.18883 0.0
H187 H 0.02942 0.39365 0.09532 0.0
H188 H 0.79257 0.15684 0.15436 0.0
H189 H 0.73687 0.03297 0.14163 0.0
H190 H 0.98804 0.32093 0.09281 0.0
H191 H 0.83721 0.14452 0.01023 0.0
H192 H 0.73942 1.0091 0.09904 0.0
H193 H 0.76063 0.02407 0.05564 0.0
H194 H 0.96265 0.2353 0.23084 0.0
H195 H 0.79663 0.07435 0.02235 0.0
H196 H 0.05247 0.42569 0.13613 0.0
N197 N 0.96691 0.26539 0.17183 0.0
C198 C 0.98964 0.30504 0.1748 0.0
C199 C 0.9703 0.25522 0.21525 0.0
C200 C 1.00346 0.32142 0.19837 0.0
C201 C 0.95717 0.24033 0.19152 0.0
C202 C 0.99366 0.29592 0.21865 0.0
N203 N 0.98621 0.3126 0.13161 0.0
C204 C 0.9975 0.3349 0.11058 0.0
C205 C 0.02387 0.37055 0.15649 0.0
C206 C 0.99983 0.32933 0.15411 0.0
C207 C 0.03411 0.39389 0.13508 0.0
C208 C 0.02109 0.37594 0.112 0.0
H209 H 1.00426 0.3074 0.23694 0.0
H210 H 0.03775 0.37563 0.21893 0.0
H211 H 0.05552 0.41866 0.18225 0.0
O212 O 0.99776 0.24926 0.10906 0.0
O213 O 0.924 0.28655 0.13421 0.0
O214 O 0.8819 0.26981 0.10116 0.0
O215 O 0.99119 0.22863 0.14682 0.0
O216 O 0.94262 0.2375 0.0891 0.0
O217 O 0.89209 0.24782 0.07641 0.0
O218 O 0.78628 0.20271 0.11198 0.0
O219 O 0.87569 0.17261 0.09435 0.0
O220 O 0.90632 0.17632 0.13086 0.0
O221 O 0.80629 0.21379 0.07422 0.0
O222 O 0.84967 0.21893 0.14373 0.0
O223 O 0.89507 0.20043 0.15257 0.0
C224 C 0.90077 0.2932 0.11959 0.0
C225 C 1.01497 0.2008 0.11748 0.0
C226 C 0.05315 0.16696 0.11641 0.0
C227 C 0.02515 0.13891 0.10017 0.0
C228 C 0.98765 0.17261 0.10108 0.0
C229 C 0.99259 0.14172 0.09265 0.0
C230 C 0.0476 0.19775 0.12526 0.0
C231 C 0.92699 0.2508 0.07297 0.0
C232 C 1.00972 0.23372 0.12592 0.0
C233 C 0.027 0.36253 0.20091 0.0
C234 C 0.03713 0.38704 0.18003 0.0
C235 C 0.88716 0.15632 0.11113 0.0
C236 C 0.73717 0.17697 0.08065 0.0
C237 C 0.66566 0.14926 0.08263 0.0
C238 C 0.66129 0.12429 0.06278 0.0
C239 C 0.73182 0.15133 0.06093 0.0
C240 C 0.70378 0.17543 0.09168 0.0
C241 C 0.69415 0.12517 0.05216 0.0
C242 C 0.8692 0.20995 0.16 0.0
C243 C 0.77736 0.20596 0.08924 0.0
H244 H 0.02835 0.11464 0.09335 0.0
H245 H 0.9627 0.17475 0.09455 0.0
H246 H 0.97127 0.12005 0.08009 0.0
H247 H 0.06904 0.21978 0.13764 0.0
H248 H 0.63231 0.10373 0.05563 0.0
H249 H 0.7567 0.15166 0.05204 0.0
H250 H 0.70749 0.19508 0.10685 0.0
H251 H 0.69042 0.10565 0.03695 0.0
Eu252 Eu 0.3668 0.17805 0.40719 0.0
C253 C 0.34152 0.01548 0.3496 0.0
N254 N 0.32117 0.03431 0.34429 0.0
C255 C 0.31233 0.01146 0.3024 0.0
C256 C 0.34886 0.99454 0.3311 0.0
C257 C 0.30623 0.03233 0.32121 0.0
C258 C 0.33412 0.99288 0.30728 0.0
C259 C 0.37502 0.99648 0.37974 0.0
C260 C 0.35415 0.01614 0.37375 0.0
C261 C 0.38314 0.97643 0.36122 0.0
C262 C 0.37002 0.97539 0.337 0.0
Eu263 Eu 0.31051 0.0667 0.37751 0.0
N264 N 0.34626 0.03611 0.39134 0.0
C265 C 0.3871 0.99745 0.40422 0.0
C266 C 0.35748 0.03654 0.41528 0.0
C267 C 0.37821 0.01752 0.42206 0.0
H268 H 0.2895 0.04688 0.31736 0.0
H269 H 0.38741 0.01845 0.44105 0.0
H270 H 0.36324 0.16888 0.46962 0.0
H271 H 0.3127 0.2534 0.34761 0.0
H272 H 0.35146 0.05225 0.4291 0.0
H273 H 0.40324 0.98278 0.40953 0.0
H274 H 0.34743 0.21698 0.35759 0.0
H275 H 0.3003 1.00968 0.28412 0.0
H276 H 0.39929 0.96136 0.36549 0.0
H277 H 0.3761 0.95937 0.32298 0.0
H278 H 0.33281 0.18331 0.50492 0.0
H279 H 0.33894 0.97691 0.29262 0.0
H280 H 0.28019 0.27009 0.3809 0.0
N281 N 0.33959 0.19109 0.44264 0.0
C282 C 0.31922 0.21032 0.43854 0.0
C283 C 0.32851 0.19079 0.48633 0.0
C284 C 0.30252 0.2204 0.45836 0.0
C285 C 0.34522 0.1821 0.46617 0.0
C286 C 0.30689 0.20983 0.48241 0.0
N287 N 0.33314 0.21168 0.39582 0.0
C288 C 0.333 0.22381 0.37215 0.0
C289 C 0.29688 0.24279 0.40975 0.0
C290 C 0.3164 0.22146 0.41452 0.0
C291 C 0.29514 0.25387 0.38534 0.0
C292 C 0.31345 0.2445 0.36648 0.0
H293 H 0.2944 0.21695 0.49811 0.0
H294 H 0.26987 0.24948 0.46867 0.0
H295 H 0.26529 0.26939 0.42617 0.0
O296 O 0.42012 0.22784 0.39126 0.0
O297 O 0.30129 0.14936 0.39831 0.0
O298 O 0.2873 0.10686 0.3651 0.0
O299 O 0.41174 0.22393 0.43072 0.0
O300 O 0.37842 0.17435 0.36549 0.0
O301 O 0.33099 0.11394 0.34809 0.0
O302 O 0.26423 0.01706 0.39838 0.0
O303 O 0.37795 0.09767 0.37743 0.0
O304 O 0.38918 0.13568 0.41146 0.0
O305 O 0.25504 0.02591 0.3598 0.0
O306 O 0.29755 0.08628 0.41387 0.0
O307 O 0.35289 0.12707 0.43452 0.0
C308 C 0.27972 0.12974 0.37912 0.0
C309 C 0.44347 0.28814 0.41293 0.0
C310 C 0.49076 0.35823 0.40487 0.0
C311 C 0.4633 0.36783 0.41462 0.0
C312 C 0.41716 0.29902 0.42279 0.0
C313 C 0.42685 0.33845 0.42338 0.0
C314 C 0.48024 0.31789 0.40386 0.0
C315 C 0.3612 0.15046 0.34636 0.0
C316 C 0.4327 0.24598 0.41231 0.0
C317 C 0.28283 0.24145 0.45366 0.0
C318 C 0.28024 0.25282 0.42946 0.0
C319 C 0.4026 0.12434 0.39302 0.0
C320 C 0.21744 0.96126 0.37537 0.0
C321 C 0.15295 0.90151 0.37478 0.0
C322 C 0.16996 0.88118 0.36359 0.0
C323 C 0.23418 0.94054 0.36452 0.0
C324 C 0.17702 0.94157 0.38071 0.0
C325 C 0.21045 0.9006 0.35869 0.0
C326 C 0.31859 0.09403 0.43388 0.0
C327 C 0.24036 1.004 0.37943 0.0
H328 H 0.47037 0.39824 0.41633 0.0
H329 H 0.38927 0.27717 0.43041 0.0
H330 H 0.40627 0.34635 0.43115 0.0
H331 H 0.5006 0.30955 0.39621 0.0
H332 H 0.15206 0.85024 0.35894 0.0
H333 H 0.26526 0.95525 0.36023 0.0
H334 H 0.16405 0.95778 0.38885 0.0
H335 H 0.22341 0.88473 0.35019 0.0
Eu336 Eu 0.78076 0.71544 0.14293 0.0
C337 C 0.92187 0.71573 0.09661 0.0
N338 N 0.88632 0.69611 0.08525 0.0
C339 C 0.91592 0.72352 0.04606 0.0
C340 C 0.95606 0.74118 0.083 0.0
C341 C 0.88281 0.69883 0.06033 0.0
C342 C 0.95267 0.74503 0.05747 0.0
C343 C 0.96084 0.73033 0.134 0.0
C344 C 0.92403 0.71038 0.12189 0.0
C345 C 0.9947 0.7568 0.12068 0.0
C346 C 0.99234 0.76214 0.09525 0.0
Eu347 Eu 0.83167 0.65648 0.11026 0.0
N348 N 0.89069 0.6844 0.13434 0.0
C349 C 0.96286 0.72208 0.15896 0.0
C350 C 0.89376 0.67301 0.15781 0.0
C351 C 0.92936 0.69258 0.17072 0.0
H352 H 0.85431 0.68222 0.05159 0.0
H353 H 0.93113 0.68418 0.18957 0.0
H354 H 0.84432 0.76238 0.18843 0.0
H355 H 0.62161 0.65376 0.14101 0.0
H356 H 0.86947 0.64807 0.16667 0.0
H357 H 0.99052 0.73686 0.16892 0.0
H358 H 0.68803 0.67687 0.12359 0.0
H359 H 0.91306 0.72608 0.02633 0.0
H360 H 0.02308 0.77259 0.12977 0.0
H361 H 0.01881 0.78227 0.08519 0.0
H362 H 0.8437 0.77833 0.23259 0.0
H363 H 0.97824 0.76437 0.04641 0.0
H364 H 0.61366 0.66014 0.18592 0.0
N365 N 0.78191 0.72877 0.18562 0.0
C366 C 0.7469 0.71672 0.19698 0.0
C367 C 0.81623 0.76054 0.22288 0.0
C368 C 0.74504 0.72551 0.22206 0.0
C369 C 0.81647 0.75118 0.19796 0.0
C370 C 0.78035 0.74755 0.23503 0.0
N371 N 0.71668 0.69354 0.15842 0.0
C372 C 0.68462 0.67896 0.14325 0.0
C373 C 0.67603 0.68655 0.19364 0.0
C374 C 0.71307 0.69812 0.18293 0.0
C375 C 0.64269 0.66959 0.17841 0.0
C376 C 0.64706 0.66605 0.15305 0.0
H377 H 0.78026 0.75542 0.25423 0.0
H378 H 0.70613 0.71995 0.25225 0.0
H379 H 0.64554 0.68491 0.2275 0.0
O380 O 0.79727 0.75841 0.11259 0.0
O381 O 0.73564 0.64883 0.13924 0.0
O382 O 0.76874 0.61735 0.12329 0.0
O383 O 0.78383 0.77221 0.14859 0.0
O384 O 0.75391 0.68295 0.10711 0.0
O385 O 0.80006 0.67694 0.08308 0.0
O386 O 0.85713 0.6179 0.10776 0.0
O387 O 0.85091 0.7207 0.10248 0.0
O388 O 0.84592 0.73698 0.1417 0.0
O389 O 0.81121 0.6095 0.08249 0.0
O390 O 0.8104 0.64019 0.15013 0.0
O391 O 0.82261 0.70063 0.16239 0.0
C392 C 0.73723 0.61692 0.13253 0.0
C393 C 0.7766 0.80624 0.11468 0.0
C394 C 0.78108 0.86913 0.10342 0.0
C395 C 0.74348 0.84799 0.09269 0.0
C396 C 0.73902 0.78586 0.10404 0.0
C397 C 0.72256 0.80672 0.09317 0.0
C398 C 0.79745 0.84798 0.11459 0.0
C399 C 0.76991 0.68325 0.08561 0.0
C400 C 0.79443 0.78453 0.12602 0.0
C401 C 0.70821 0.71345 0.23301 0.0
C402 C 0.67371 0.69359 0.2189 0.0
C403 C 0.86403 0.74666 0.12036 0.0
C404 C 0.81302 0.55202 0.09614 0.0
C405 C 0.81672 0.49221 0.10541 0.0
C406 C 0.77529 0.47073 0.10664 0.0
C407 C 0.77174 0.52945 0.09747 0.0
C408 C 0.83548 0.5332 0.10032 0.0
C409 C 0.75315 0.4892 0.10272 0.0
C410 C 0.81163 0.66398 0.16765 0.0
C411 C 0.83269 0.59514 0.09098 0.0
H412 H 0.73035 0.86351 0.08382 0.0
H413 H 0.72254 0.75388 0.10407 0.0
H414 H 0.6936 0.79083 0.08487 0.0
H415 H 0.82666 0.86389 0.12263 0.0
H416 H 0.75985 0.43948 0.11091 0.0
H417 H 0.75369 0.5429 0.09459 0.0
H418 H 0.86734 0.55031 0.09927 0.0
H419 H 0.72132 0.47218 0.1038 0.0
Eu420 Eu 0.84082 0.20208 0.39909 0.0
C421 C 0.99421 0.32247 0.33628 0.0
N422 N 0.97447 0.28241 0.33561 0.0
C423 C 0.98129 0.2838 0.29153 0.0
C424 C 1.00774 0.34491 0.31436 0.0
C425 C 0.96836 0.26283 0.31374 0.0
C426 C 1.00073 0.32503 0.29179 0.0
C427 C 0.02216 0.38265 0.36051 0.0
C428 C 1.00131 0.34114 0.35903 0.0
C429 C 0.03521 0.40515 0.33869 0.0
C430 C 0.02799 0.38632 0.31566 0.0
Eu431 Eu 0.95154 0.24957 0.37384 0.0
N432 N 0.98741 0.31856 0.37975 0.0
C433 C 0.02944 0.40023 0.38392 0.0
C434 C 0.99617 0.33538 0.40261 0.0
C435 C 0.01677 0.37645 0.40508 0.0
H436 H 0.95368 0.23097 0.31342 0.0
H437 H 0.02299 0.38971 0.42328 0.0
H438 H 0.856 0.19042 0.4591 0.0
H439 H 0.7523 0.09251 0.32927 0.0
H440 H 0.98715 0.31707 0.41883 0.0
H441 H 0.04534 0.43204 0.38586 0.0
H442 H 0.79549 0.15917 0.34547 0.0
H443 H 0.97627 0.26805 0.27429 0.0
H444 H 0.05113 0.4371 0.33942 0.0
H445 H 0.03847 0.40405 0.29899 0.0
H446 H 0.83363 0.13623 0.48943 0.0
H447 H 1.01061 0.3413 0.27457 0.0
H448 H 0.72869 0.03478 0.35706 0.0
N449 N 0.82527 0.15252 0.42899 0.0
C450 C 0.80008 0.11492 0.42146 0.0
C451 C 0.82409 0.12986 0.47036 0.0
C452 C 0.78516 0.08335 0.43848 0.0
C453 C 0.83716 0.16046 0.45304 0.0
C454 C 0.79783 0.09117 0.46309 0.0
N455 N 0.80208 0.13943 0.38085 0.0
C456 C 0.78825 0.13425 0.35721 0.0
C457 C 0.7612 0.0697 0.38872 0.0
C458 C 0.78824 0.10823 0.39676 0.0
C459 C 0.74926 0.06396 0.36396 0.0
C460 C 0.76266 0.09644 0.34819 0.0
H461 H 0.7872 0.06763 0.47667 0.0
H462 H 0.74529 0.02071 0.44347 0.0
H463 H 0.72472 1.00867 0.39992 0.0
O464 O 0.78846 0.20424 0.38684 0.0
O465 O 0.87179 0.1653 0.40055 0.0
O466 O 0.91066 0.18459 0.36596 0.0
O467 O 0.79852 0.20143 0.42574 0.0
O468 O 0.85179 0.22165 0.35784 0.0
O469 O 0.90346 0.21259 0.34677 0.0
O470 O 0.99789 0.25092 0.39678 0.0
O471 O 0.92498 0.29053 0.37349 0.0
O472 O 0.87755 0.26793 0.40417 0.0
O473 O 0.9974 0.24 0.35759 0.0
O474 O 0.93673 0.23068 0.4142 0.0
O475 O 0.88791 0.24233 0.42699 0.0
C476 C 0.88788 0.1571 0.38184 0.0
C477 C 0.73188 0.16926 0.41226 0.0
C478 C 0.66161 0.14656 0.40661 0.0
C479 C 0.65243 0.1105 0.41783 0.0
C480 C 0.72155 0.13359 0.42436 0.0
C481 C 0.68224 0.10421 0.42668 0.0
C482 C 0.70165 0.17576 0.40358 0.0
C483 C 0.87376 0.21752 0.34078 0.0
C484 C 0.77387 0.19989 0.40902 0.0
C485 C 0.75752 0.04523 0.43057 0.0
C486 C 0.74586 0.03836 0.40574 0.0
C487 C 0.90128 0.29532 0.38863 0.0
C488 C 1.01491 0.20373 0.38455 0.0
C489 C 0.05054 0.16739 0.38331 0.0
C490 C 0.01945 0.13622 0.39632 0.0
C491 C 0.98426 0.1722 0.3976 0.0
C492 C 0.04792 0.20104 0.37717 0.0
C493 C 0.98643 0.13858 0.40326 0.0
C494 C 0.92231 0.24463 0.43063 0.0
C495 C 1.01223 0.23927 0.37902 0.0
H496 H 0.62209 0.08772 0.42078 0.0
H497 H 0.7437 0.12854 0.43247 0.0
H498 H 0.6748 0.07677 0.43593 0.0
H499 H 0.70925 0.20359 0.39476 0.0
H500 H 0.02073 0.10997 0.40109 0.0
H501 H 0.95876 0.17372 0.40368 0.0
H502 H 0.07183 0.22535 0.36728 0.0
H503 H 0.96261 0.11444 0.41326 0.0
Eu504 Eu 0.1773 0.36758 0.60918 0.0
C505 C 0.03125 0.3373 0.67404 0.0
N506 N 0.05147 0.31742 0.675 0.0
C507 C 0.04994 0.31774 0.71932 0.0
C508 C 0.02048 0.34912 0.69592 0.0
C509 C 0.06024 0.30686 0.69716 0.0
C510 C 0.03041 0.33938 0.71872 0.0
C511 C 0.99979 0.36591 0.64948 0.0
C512 C 0.02096 0.34559 0.65105 0.0
C513 C 0.98962 0.3783 0.67125 0.0
C514 C 0.99993 0.36993 0.69438 0.0
Eu515 Eu 0.0689 0.3022 0.6365 0.0
N516 N 0.03213 0.3342 0.63021 0.0
C517 C 0.98928 0.37297 0.62605 0.0
C518 C 0.02013 0.33903 0.60749 0.0
C519 C 0.99906 0.359 0.60499 0.0
H520 H 0.07466 0.28947 0.69778 0.0
H521 H 0.9901 0.36331 0.58685 0.0
H522 H 0.17239 0.37901 0.54757 0.0
H523 H 0.24647 0.29875 0.6611 0.0
H524 H 0.02618 0.32695 0.59138 0.0
H525 H 0.97298 0.38846 0.62405 0.0
H526 H 0.20638 0.33075 0.65549 0.0
H527 H 0.05687 0.30918 0.73681 0.0
H528 H 0.97351 0.39412 0.67039 0.0
H529 H 0.99158 0.37941 0.71101 0.0
H530 H 0.19846 0.3662 0.50935 0.0
H531 H 0.02259 0.34792 0.73592 0.0
H532 H 0.27701 0.28626 0.62472 0.0
N533 N 0.19751 0.35389 0.57123 0.0
C534 C 0.2207 0.33726 0.57296 0.0
C535 C 0.2048 0.35779 0.52711 0.0
C536 C 0.23752 0.33093 0.55163 0.0
C537 C 0.18956 0.36445 0.5488 0.0
C538 C 0.22899 0.34109 0.52852 0.0
N539 N 0.21085 0.33262 0.61642 0.0
C540 C 0.21809 0.32383 0.63953 0.0
C541 C 0.25247 0.31016 0.59856 0.0
C542 C 0.22788 0.32669 0.59618 0.0
C543 C 0.2586 0.2994 0.62216 0.0
C544 C 0.24131 0.30627 0.64273 0.0
H545 H 0.24123 0.33653 0.5117 0.0
H546 H 0.27626 0.31061 0.53787 0.0
H547 H 0.29003 0.29331 0.57897 0.0
O548 O 0.22967 0.4107 0.62894 0.0
O549 O 0.14645 0.30071 0.60355 0.0
O550 O 0.11081 0.27844 0.63921 0.0
O551 O 0.22346 0.42025 0.59022 0.0
O552 O 0.1684 0.37168 0.65132 0.0
O553 O 0.11856 0.30941 0.66096 0.0
O554 O 0.0262 0.24808 0.61737 0.0
O555 O 0.09741 0.36985 0.63918 0.0
O556 O 0.14 0.39606 0.60618 0.0
O557 O 0.0194 0.25464 0.65632 0.0
O558 O 0.07542 0.30138 0.59448 0.0
O559 O 0.12843 0.36183 0.58314 0.0
C560 C 0.12846 0.27297 0.62029 0.0
C561 C 0.26669 0.47627 0.61449 0.0
C562 C 0.32965 0.53822 0.61819 0.0
C563 C 0.30882 0.55669 0.62659 0.0
C564 C 0.2467 0.49526 0.62298 0.0
C565 C 0.26778 0.53529 0.62905 0.0
C566 C 0.30801 0.49774 0.61214 0.0
C567 C 0.14791 0.34375 0.66776 0.0
C568 C 0.24566 0.4335 0.6098 0.0
C569 C 0.26268 0.31523 0.55402 0.0
C570 C 0.27048 0.30531 0.57744 0.0
C571 C 0.11871 0.39906 0.62376 0.0
C572 C 1.003 0.19132 0.64266 0.0
C573 C 0.96485 0.11941 0.63981 0.0
C574 C 0.99358 0.11709 0.65412 0.0
C575 C 0.03138 0.18822 0.65684 0.0
C576 C 0.96992 0.15681 0.6339 0.0
C577 C 0.02673 0.15132 0.66241 0.0
C578 C 0.09459 0.32961 0.5781 0.0
C579 C 1.00768 0.23052 0.63766 0.0
H580 H 0.32415 0.5878 0.6311 0.0
H581 H 0.21498 0.47904 0.62525 0.0
H582 H 0.25228 0.54982 0.63581 0.0
H583 H 0.32332 0.48251 0.60623 0.0
H584 H 0.99056 0.08872 0.65868 0.0
H585 H 0.05695 0.21436 0.66387 0.0
H586 H 0.94785 0.159 0.62302 0.0
H587 H 0.04879 0.14924 0.67333 0.0
Eu588 Eu 0.27214 0.95666 0.88122 0.0
C589 C 0.11734 0.79723 0.8925 0.0
N590 N 0.14433 0.81349 0.91077 0.0
C591 C 0.09345 0.80217 0.9398 0.0
C592 C 0.07725 0.78441 0.89683 0.0
C593 C 0.13294 0.81463 0.93448 0.0
C594 C 0.06559 0.78782 0.92076 0.0
C595 C 0.10173 0.76914 0.85149 0.0
C596 C 0.12942 0.78981 0.87026 0.0
C597 C 0.06226 0.75929 0.8548 0.0
C598 C 0.05001 0.76685 0.8775 0.0
Eu599 Eu 0.21125 0.83865 0.90013 0.0
N600 N 0.16743 0.79862 0.86822 0.0
C601 C 0.11404 0.75687 0.83071 0.0
C602 C 0.17829 0.78267 0.8494 0.0
C603 C 0.15223 0.76271 0.83 0.0
H604 H 0.15469 0.82643 0.94907 0.0
H605 H 0.16156 0.7517 0.81459 0.0
H606 H 0.23647 0.96251 0.82516 0.0
H607 H 0.42496 0.03677 0.91108 0.0
H608 H 0.2076 0.78647 0.84893 0.0
H609 H 0.09375 0.741 0.81582 0.0
H610 H 0.35239 1.00336 0.91599 0.0
H611 H 0.08462 0.80409 0.95849 0.0
H612 H 0.04066 0.74408 0.84041 0.0
H613 H 0.01917 0.7575 0.88027 0.0
H614 H 0.2594 0.97649 0.78196 0.0
H615 H 0.03506 0.77831 0.92488 0.0
H616 H 0.45419 0.04718 0.86916 0.0
N617 N 0.29228 0.97534 0.83949 0.0
C618 C 0.33123 0.9912 0.83464 0.0
C619 C 0.27997 0.98049 0.79653 0.0
C620 C 0.34601 1.0007 0.81031 0.0
C621 C 0.26698 0.97216 0.82106 0.0
C622 C 0.3196 0.9942 0.79106 0.0
N623 N 0.34127 0.99444 0.87743 0.0
C624 C 0.36514 1.00805 0.89769 0.0
C625 C 0.3977 0.02027 0.85055 0.0
C626 C 0.35666 1.00111 0.85437 0.0
C627 C 0.42247 0.03249 0.87127 0.0
C628 C 0.40609 0.02682 0.89495 0.0
H629 H 0.3298 1.00108 0.77212 0.0
H630 H 0.39862 0.02493 0.78755 0.0
H631 H 0.444 0.04192 0.82289 0.0
O632 O 0.24694 0.97872 0.90872 0.0
O633 O 0.30849 0.92753 0.89319 0.0
O634 O 0.26919 0.86412 0.87963 0.0
O635 O 0.28204 0.01712 0.87877 0.0
O636 O 0.28488 0.93549 0.91723 0.0
O637 O 0.22671 0.88466 0.93135 0.0
O638 O 0.18971 0.77769 0.91186 0.0
O639 O 0.19032 0.88137 0.91025 0.0
O640 O 0.2057 0.91943 0.87567 0.0
O641 O 0.24521 0.82368 0.92577 0.0
O642 O 0.23454 0.85608 0.86018 0.0
O643 O 0.22987 0.91146 0.85375 0.0
C644 C 0.30329 0.8923 0.8876 0.0
C645 C 0.26613 0.04692 0.91241 0.0
C646 C 0.25126 0.10026 0.91898 0.0
C647 C 0.27412 0.11055 0.94073 0.0
C648 C 0.28856 0.05766 0.93409 0.0
C649 C 0.29241 0.0893 0.9482 0.0
C650 C 0.24742 0.06803 0.90503 0.0
C651 C 0.25922 0.91901 0.93503 0.0
C652 C 0.25959 0.01252 0.89771 0.0
C653 C 0.38673 0.01788 0.80615 0.0
C654 C 0.41257 0.02762 0.82627 0.0
C655 C 0.18099 0.89957 0.89358 0.0
C656 C 0.23785 0.75929 0.92079 0.0
C657 C 0.2291 0.69336 0.91325 0.0
C658 C 0.2695 0.70874 0.91764 0.0
C659 C 0.2781 0.77355 0.9252 0.0
C660 C 0.21342 0.71892 0.9146 0.0
C661 C 0.29377 0.74853 0.92339 0.0
C662 C 0.23102 0.88078 0.8452 0.0
C663 C 0.22107 0.78572 0.9244 0.0
H664 H 0.27848 0.13542 0.95182 0.0
H665 H 0.30282 0.04147 0.94008 0.0
H666 H 0.30972 0.09753 0.96501 0.0
H667 H 0.22919 0.05867 0.88858 0.0
H668 H 0.28235 0.68987 0.91656 0.0
H669 H 0.29756 0.80405 0.9303 0.0
H670 H 0.18218 0.70712 0.91157 0.0
H671 H 0.32486 0.75997 0.92672 0.0
Eu672 Eu 0.64776 0.82005 0.61121 0.0
C673 C 0.67622 0.7073 0.68099 0.0
N674 N 0.70109 0.7459 0.67576 0.0
C675 C 0.71573 0.75957 0.71891 0.0
C676 C 0.66874 0.69351 0.70561 0.0
C677 C 0.72237 0.77168 0.69416 0.0
C678 C 0.68843 0.72037 0.72465 0.0
C679 C 0.63815 0.64013 0.66614 0.0
C680 C 0.66145 0.68098 0.6616 0.0
C681 C 0.62814 0.62646 0.6906 0.0
C682 C 0.64354 0.65313 0.71033 0.0
Eu683 Eu 0.70869 0.76447 0.63348 0.0
N684 N 0.67282 0.69508 0.63836 0.0
C685 C 0.62718 0.6142 0.64605 0.0
C686 C 0.66479 0.66987 0.61896 0.0
C687 C 0.64114 0.62913 0.62239 0.0
H688 H 0.74432 0.80177 0.68974 0.0
H689 H 0.63384 0.6093 0.60684 0.0
H690 H 0.67955 0.86075 0.55592 0.0
H691 H 0.64039 0.89623 0.69477 0.0
H692 H 0.67568 0.68143 0.60071 0.0
H693 H 0.60921 0.5826 0.64874 0.0
H694 H 0.61706 0.84087 0.66551 0.0
H695 H 0.73192 0.78034 0.7335 0.0
H696 H 0.60989 0.59523 0.69448 0.0
H697 H 0.63699 0.64208 0.72915 0.0
H698 H 0.72413 0.9266 0.53761 0.0
H699 H 0.68392 0.71072 0.74372 0.0
H700 H 0.69689 0.96148 0.68369 0.0
N701 N 0.68806 0.88231 0.5927 0.0
C702 C 0.70377 0.91432 0.60764 0.0
C703 C 0.7189 0.92353 0.55737 0.0
C704 C 0.72953 0.95232 0.59819 0.0
C705 C 0.69381 0.8864 0.56772 0.0
C706 C 0.73742 0.95658 0.57274 0.0
N707 N 0.66322 0.87277 0.63941 0.0
C708 C 0.64288 0.86865 0.66083 0.0
C709 C 0.7048 0.94226 0.64768 0.0
C710 C 0.69152 0.90925 0.63198 0.0
C711 C 0.68748 0.93694 0.67104 0.0
C712 C 0.65556 0.90019 0.67734 0.0
H713 H 0.75697 0.98529 0.56473 0.0
H714 H 0.76592 0.01418 0.60747 0.0
H715 H 0.74407 1.0054 0.65089 0.0
O716 O 0.60628 0.84143 0.60541 0.0
O717 O 0.71119 0.84133 0.59964 0.0
O718 O 0.73486 0.83078 0.63534 0.0
O719 O 0.59778 0.78985 0.58595 0.0
O720 O 0.64195 0.79944 0.65179 0.0
O721 O 0.70399 0.80963 0.65698 0.0
O722 O 0.7618 0.78745 0.61089 0.0
O723 O 0.64607 0.72782 0.61787 0.0
O724 O 0.61698 0.7622 0.63198 0.0
O725 O 0.75663 0.75345 0.64361 0.0
O726 O 0.69393 0.75615 0.59291 0.0
O727 O 0.6652 0.79307 0.57895 0.0
C728 C 0.73989 0.85237 0.61563 0.0
C729 C 0.54036 0.79529 0.59369 0.0
C730 C 0.48265 0.8035 0.59957 0.0
C731 C 0.45818 0.76319 0.59428 0.0
C732 C 0.51501 0.75512 0.58855 0.0
C733 C 0.47428 0.73937 0.58875 0.0
C734 C 0.52389 0.81934 0.59938 0.0
C735 C 0.67148 0.80573 0.66637 0.0
C736 C 0.58361 0.81303 0.59058 0.0
C737 C 0.74536 0.98485 0.61423 0.0
C738 C 0.73302 0.97981 0.63898 0.0
C739 C 0.61436 0.72967 0.62354 0.0
C740 C 0.80298 0.75945 0.61293 0.0
C741 C 0.86838 0.76793 0.60605 0.0
C742 C 0.85246 0.73846 0.58784 0.0
C743 C 0.78738 0.7298 0.59491 0.0
C744 C 0.84331 0.77808 0.61862 0.0
C745 C 0.81212 0.71924 0.58255 0.0
C746 C 0.68041 0.76966 0.57535 0.0
C747 C 0.77881 0.77353 0.62506 0.0
H748 H 0.42641 0.74997 0.59449 0.0
H749 H 0.52655 0.7359 0.5839 0.0
H750 H 0.45505 0.70848 0.58451 0.0
H751 H 0.54309 0.85057 0.60279 0.0
H752 H 0.87107 0.72978 0.57808 0.0
H753 H 0.75634 0.71522 0.59032 0.0
H754 H 0.85537 0.80115 0.63249 0.0
H755 H 0.80011 0.69613 0.56879 0.0
Eu756 Eu 0.08979 0.31557 0.88256 0.0
C757 C 0.24424 0.34485 0.93866 0.0
N758 N 0.22196 0.36223 0.94205 0.0
C759 C 0.23049 0.36225 0.98597 0.0
C760 C 0.26092 0.33588 0.95901 0.0
C761 C 0.21516 0.37133 0.96522 0.0
C762 C 0.25353 0.34454 0.98286 0.0
C763 C 0.27356 0.31814 0.91066 0.0
C764 C 0.25038 0.33589 0.9147 0.0
C765 C 0.29123 0.31041 0.93084 0.0
C766 C 0.28469 0.31895 0.95495 0.0
Eu767 Eu 0.20122 0.37957 0.90556 0.0
N768 N 0.23338 0.34421 0.8954 0.0
C769 C 0.27863 0.30903 0.88638 0.0
C770 C 0.23972 0.33711 0.87166 0.0
C771 C 0.26171 0.31867 0.8668 0.0
H772 H 0.19879 0.3865 0.96782 0.0
H773 H 0.26616 0.31253 0.84793 0.0
H774 H 0.0851 0.27946 0.82539 0.0
H775 H 0.02277 0.39818 0.91903 0.0
H776 H 0.22847 0.34623 0.85646 0.0
H777 H 0.29598 0.2951 0.88254 0.0
H778 H 0.0571 0.35952 0.92119 0.0
H779 H 0.22505 0.3695 1.00432 0.0
H780 H 0.30957 0.29726 0.92804 0.0
H781 H 0.29805 0.31219 0.97036 0.0
H782 H 0.06311 0.28585 0.78365 0.0
H783 H 0.26572 0.33796 0.99897 0.0
H784 H 1.00169 0.41057 0.87841 0.0
N785 N 0.06749 0.31725 0.8423 0.0
C786 C 0.0494 0.33894 0.83941 0.0
C787 C 0.05917 0.301 0.79917 0.0
C788 C 0.03585 0.34287 0.816 0.0
C789 C 0.07187 0.2977 0.82277 0.0
C790 C 0.0412 0.32378 0.79575 0.0
N791 N 0.05675 0.35201 0.88239 0.0
C792 C 0.04814 0.36516 0.90353 0.0
C793 C 0.02362 0.37801 0.85786 0.0
C794 C 0.04343 0.35641 0.86006 0.0
C795 C 0.01678 0.39375 0.87932 0.0
C796 C 0.02867 0.38687 0.90229 0.0
H797 H 0.03113 0.32604 0.7775 0.0
H798 H 1.00659 0.36876 0.79572 0.0
H799 H 0.9958 0.39943 0.83238 0.0
O800 O 0.04403 0.27951 0.90919 0.0
O801 O 0.11815 0.38376 0.87974 0.0
O802 O 0.1671 0.4112 0.9094 0.0
O803 O 0.04013 0.25815 0.87182 0.0
O804 O 0.10842 0.31622 0.92217 0.0
O805 O 0.15551 0.37762 0.93332 0.0
O806 O 0.25203 0.42326 0.8847 0.0
O807 O 0.1704 0.31253 0.91124 0.0
O808 O 0.12745 0.28642 0.87847 0.0
O809 O 0.25029 0.42971 0.92431 0.0
O810 O 0.18809 0.3819 0.86383 0.0
O811 O 0.13635 0.31974 0.85663 0.0
C812 C 0.1429 0.41371 0.89375 0.0
C813 C 0.01959 0.21144 0.90429 0.0
C814 C 0.97792 0.13989 0.90836 0.0
C815 C 1.00719 0.13919 0.92309 0.0
C816 C 0.04844 0.20993 0.91892 0.0
C817 C 0.04216 0.174 0.92829 0.0
C818 C 0.98441 0.1764 0.89906 0.0
C819 C 0.12082 0.34598 0.93724 0.0
C820 C 0.02632 0.24942 0.89431 0.0
C821 C 0.01699 0.36524 0.8136 0.0
C822 C 1.01086 0.38272 0.83447 0.0
C823 C 0.15029 0.28386 0.89542 0.0
C824 C 0.29084 0.48738 0.90079 0.0
C825 C 0.35331 0.54998 0.8987 0.0
C826 C 0.33195 0.56905 0.89263 0.0
C827 C 0.27031 0.5069 0.89446 0.0
C828 C 0.33212 0.50882 0.90271 0.0
C829 C 0.29094 0.54755 0.89023 0.0
C830 C 0.16512 0.35331 0.84844 0.0
C831 C 0.27029 0.44436 0.90401 0.0
H832 H 1.00349 0.11161 0.93015 0.0
H833 H 0.07586 0.23649 0.92312 0.0
H834 H 0.06463 0.1731 0.93946 0.0
H835 H 0.96212 0.17767 0.88787 0.0
H836 H 0.34676 0.60065 0.88978 0.0
H837 H 0.23856 0.49065 0.89249 0.0
H838 H 0.34766 0.49303 0.90669 0.0
H839 H 0.27511 0.56252 0.88497 0.0
Eu840 Eu 0.19404 0.82688 0.6101 0.0
C841 C 0.29509 0.98633 0.67934 0.0
N842 N 0.25689 0.96308 0.67276 0.0
C843 C 0.2364 0.96457 0.71436 0.0
C844 C 0.30569 0.99877 0.70398 0.0
C845 C 0.22744 0.95334 0.68959 0.0
C846 C 0.27573 0.98716 0.72161 0.0
C847 C 0.36322 0.02601 0.66661 0.0
C848 C 0.32333 0.99991 0.66098 0.0
C849 C 0.37435 0.03701 0.69133 0.0
C850 C 0.3456 0.02346 0.71 0.0
Eu851 Eu 0.24432 0.9429 0.63092 0.0
N852 N 0.31138 0.98928 0.63734 0.0
C853 C 0.39044 0.04105 0.64713 0.0
C854 C 0.33732 1.00513 0.61815 0.0
C855 C 0.37733 0.0309 0.62275 0.0
H856 H 0.19694 0.93667 0.68394 0.0
H857 H 0.39799 0.04294 0.60753 0.0
H858 H 0.15966 0.81337 0.55296 0.0
H859 H 0.11427 0.75272 0.69574 0.0
H860 H 0.32714 0.99729 0.59933 0.0
H861 H 0.4214 0.06118 0.65066 0.0
H862 H 0.17194 0.7849 0.66869 0.0
H863 H 0.213 0.95615 0.72777 0.0
H864 H 0.40491 0.05679 0.69611 0.0
H865 H 0.35442 0.03306 0.72888 0.0
H866 H 0.0952 0.7808 0.53154 0.0
H867 H 0.28261 0.99656 0.74063 0.0
H868 H 0.04827 0.73366 0.67942 0.0
N869 N 0.13424 0.79945 0.58885 0.0
C870 C 0.101 0.78062 0.60273 0.0
C871 C 0.09644 0.78091 0.55155 0.0
C872 C 0.06366 0.76196 0.59132 0.0
C873 C 0.13274 0.79947 0.56366 0.0
C874 C 0.06177 0.76196 0.56542 0.0
N875 N 0.14088 0.79209 0.63842 0.0
C876 C 0.14418 0.78025 0.66171 0.0
C877 C 0.06996 0.7565 0.64273 0.0
C878 C 0.10435 0.77771 0.62824 0.0
C879 C 0.07392 0.74968 0.66768 0.0
C880 C 0.11112 0.76052 0.67698 0.0
H881 H 0.03373 0.74686 0.55592 0.0
H882 H 1.0006 0.72879 0.59758 0.0
H883 H 1.0061 0.72469 0.64258 0.0
O884 O 0.16982 0.76331 0.60722 0.0
O885 O 0.1668 0.86455 0.59962 0.0
O886 O 0.1792 0.89853 0.63533 0.0
O887 O 0.22189 0.80184 0.58654 0.0
O888 O 0.219 0.84281 0.64966 0.0
O889 O 0.20477 0.89138 0.65502 0.0
O890 O 0.22301 0.96464 0.60057 0.0
O891 O 0.29067 0.9234 0.62868 0.0
O892 O 0.25977 0.85719 0.61605 0.0
O893 O 0.23856 0.99507 0.63581 0.0
O894 O 0.26324 0.9289 0.59442 0.0
O895 O 0.21104 0.87212 0.57844 0.0
C896 C 0.15545 0.88039 0.61672 0.0
C897 C 0.21638 0.74318 0.60437 0.0
C898 C 0.20789 0.68011 0.61898 0.0
C899 C 0.24465 0.7004 0.63073 0.0
C900 C 0.25299 0.76278 0.61643 0.0
C901 C 0.26707 0.74144 0.62936 0.0
C902 C 0.194 0.70157 0.60553 0.0
C903 C 0.21618 0.86802 0.66438 0.0
C904 C 0.19857 0.76575 0.59409 0.0
C905 C 0.02957 0.74285 0.60597 0.0
C906 C 0.03271 0.74056 0.63163 0.0
C907 C 0.29098 0.89071 0.62261 0.0
C908 C 0.23663 0.0315 0.60144 0.0
C909 C 0.22621 0.08791 0.59718 0.0
C910 C 0.25733 0.10469 0.58 0.0
C911 C 0.26774 0.04875 0.58442 0.0
C912 C 0.21601 0.05109 0.6077 0.0
C913 C 0.27795 0.08528 0.57377 0.0
C914 C 0.24058 0.90884 0.57584 0.0
C915 C 0.22506 0.99363 0.61362 0.0
H916 H 0.25573 0.68444 0.6413 0.0
H917 H 0.27025 0.79462 0.61651 0.0
H918 H 0.29509 0.75686 0.63884 0.0
H919 H 0.16508 0.68613 0.59707 0.0
H920 H 0.26644 0.1333 0.57185 0.0
H921 H 0.28417 0.0342 0.57957 0.0
H922 H 0.19189 0.0375 0.62084 0.0
H923 H 0.30227 0.09908 0.5609 0.0
Eu924 Eu 0.73215 0.77955 0.87993 0.0
C925 C 0.7125 0.9167 0.91876 0.0
N926 N 0.69794 0.87995 0.92844 0.0
C927 C 0.72109 0.90719 0.96871 0.0
C928 C 0.73307 0.95044 0.93372 0.0
C929 C 0.70106 0.87461 0.95312 0.0
C930 C 0.73736 0.94529 0.95895 0.0
C931 C 0.7219 0.95822 0.88313 0.0
C932 C 0.70695 0.92042 0.89378 0.0
C933 C 0.74319 0.99197 0.89782 0.0
C934 C 0.7485 0.98808 0.92308 0.0
Eu935 Eu 0.66442 0.82633 0.90117 0.0
N936 N 0.68608 0.88718 0.88005 0.0
C937 C 0.71423 0.96101 0.85816 0.0
C938 C 0.67582 0.88991 0.85627 0.0
C939 C 0.69053 0.92669 0.8448 0.0
H940 H 0.68819 0.84517 0.96071 0.0
H941 H 0.68297 0.92853 0.82577 0.0
H942 H 0.73936 0.79146 0.81739 0.0
H943 H 0.68588 0.64367 0.93178 0.0
H944 H 0.65545 0.86399 0.84611 0.0
H945 H 0.72529 0.98948 0.84929 0.0
H946 H 0.72086 0.71607 0.9249 0.0
H947 H 0.7239 0.90292 0.98823 0.0
H948 H 0.75503 0.02121 0.88992 0.0
H949 H 0.76428 0.01438 0.93427 0.0
H950 H 0.7085 0.75148 0.78042 0.0
H951 H 0.75294 0.97048 0.97106 0.0
H952 H 0.64835 0.59847 0.89751 0.0
N953 N 0.70848 0.74366 0.84257 0.0
C954 C 0.68654 0.70378 0.84502 0.0
C955 C 0.7014 0.73766 0.79847 0.0
C956 C 0.66933 0.6794 0.82422 0.0
C957 C 0.71826 0.76046 0.8196 0.0
C958 C 0.67605 0.69703 0.80082 0.0
N959 N 0.70203 0.71121 0.88762 0.0
C960 C 0.70451 0.6963 0.90998 0.0
C961 C 0.66341 0.6457 0.87113 0.0
C962 C 0.68373 0.68701 0.86814 0.0
C963 C 0.6636 0.63008 0.89446 0.0
C964 C 0.68479 0.65549 0.91386 0.0
H965 H 0.66325 0.67931 0.78442 0.0
H966 H 0.63359 0.61909 0.81157 0.0
H967 H 0.62832 0.5896 0.85266 0.0
O968 O 0.78848 0.79744 0.89835 0.0
O969 O 0.67008 0.73866 0.89517 0.0
O970 O 0.64086 0.77066 0.87883 0.0
O971 O 0.77725 0.77068 0.86237 0.0
O972 O 0.73254 0.79307 0.92077 0.0
O973 O 0.67211 0.78766 0.93055 0.0
O974 O 0.61419 0.83489 0.89498 0.0
O975 O 0.73005 0.85701 0.90973 0.0
O976 O 0.7547 0.84495 0.87478 0.0
O977 O 0.61501 0.80324 0.92744 0.0
O978 O 0.6621 0.80983 0.86003 0.0
O979 O 0.72428 0.81933 0.85244 0.0
C980 C 0.6381 0.73866 0.88808 0.0
C981 C 0.84153 0.82188 0.87019 0.0
C982 C 0.91346 0.85568 0.86879 0.0
C983 C 0.91329 0.88271 0.85166 0.0
C984 C 0.84212 0.84946 0.85326 0.0
C985 C 0.87783 0.87965 0.84407 0.0
C986 C 0.87727 0.82525 0.87808 0.0
C987 C 0.70317 0.78394 0.93626 0.0
C988 C 0.80359 0.78953 0.87929 0.0
C989 C 0.64738 0.63824 0.8273 0.0
C990 C 0.64445 0.62143 0.8507 0.0
C991 C 0.75715 0.86887 0.89254 0.0
C992 C 0.57952 0.83845 0.92948 0.0
C993 C 0.52957 0.85879 0.9323 0.0
C994 C 0.54641 0.87754 0.95488 0.0
C995 C 0.59573 0.85746 0.95196 0.0
C996 C 0.54674 0.83949 0.91969 0.0
C997 C 0.57924 0.87693 0.96452 0.0
C998 C 0.69153 0.81758 0.84482 0.0
C999 C 0.59644 0.81801 0.91546 0.0
H1000 H 0.94066 0.90667 0.84447 0.0
H1001 H 0.81491 0.84747 0.84701 0.0
H1002 H 0.87802 0.90078 0.83103 0.0
H1003 H 0.87685 0.80398 0.89114 0.0
H1004 H 0.53383 0.89208 0.9654 0.0
H1005 H 0.62104 0.85728 0.95983 0.0
H1006 H 0.53492 0.82545 0.90203 0.0
H1007 H 0.59179 0.8914 0.98193 0.0
H1008 H 0.10112 0.15364 0.08605 0.0
H1009 H 0.08447 0.17386 0.16285 0.0
H1010 H 0.14166 0.1666 0.17462 0.0
H1011 H 0.12995 0.08034 0.09733 0.0
H1012 H 0.16549 0.09788 0.07252 0.0
H1013 H 0.12277 0.10368 0.07061 0.0
H1014 H 0.16824 0.17818 0.0636 0.0
H1015 H 0.21177 0.17399 0.06662 0.0
H1016 H 0.20477 0.20713 0.0864 0.0
H1017 H 0.19899 0.15357 0.17797 0.0
H1018 H 0.25551 0.14256 0.17211 0.0
H1019 H 0.23638 0.135 0.09284 0.0
C1020 C 0.10936 0.15632 0.10538 0.0
C1021 C 0.08826 0.1641 0.12358 0.0
C1022 C 0.10039 0.16812 0.14861 0.0
C1023 C 0.13264 0.16378 0.15546 0.0
C1024 C 0.15257 0.15575 0.13704 0.0
C1025 C 0.14154 0.15238 0.11248 0.0
C1026 C 0.16831 0.14467 0.09611 0.0
C1027 C 0.14524 0.10424 0.0834 0.0
C1028 C 0.18958 0.17798 0.07705 0.0
C1029 C 0.19651 0.14468 0.11523 0.0
C1030 C 0.18654 0.15032 0.1388 0.0
C1031 C 0.20724 0.14949 0.15958 0.0
C1032 C 0.2391 0.14301 0.15611 0.0
C1033 C 0.25023 0.13812 0.13205 0.0
C1034 C 0.22865 0.13905 0.11142 0.0
H1035 H 0.09119 0.85622 0.34363 0.0
H1036 H 0.11862 0.90107 0.41865 0.0
H1037 H 0.04757 0.86689 0.42865 0.0
H1038 H 1.00085 0.86371 0.33787 0.0
H1039 H 0.97577 0.81929 0.3197 0.0
H1040 H 0.02865 0.84952 0.31806 0.0
H1041 H 0.03406 0.78886 0.3286 0.0
H1042 H 0.98176 0.75747 0.33284 0.0
H1043 H 0.01543 0.76381 0.35757 0.0
H1044 H 0.97472 0.82582 0.4312 0.0
H1045 H 0.90372 0.7787 0.42656 0.0
H1046 H 0.92229 0.76036 0.34973 0.0
C1047 C 0.0821 0.85889 0.36211 0.0
C1048 C 0.11025 0.8812 0.38043 0.0
C1049 C 0.09742 0.88431 0.40436 0.0
C1050 C 0.0572 0.86507 0.41018 0.0
C1051 C 0.03019 0.84337 0.39174 0.0
C1052 C 0.04197 0.84042 0.36812 0.0
C1053 C 1.00677 0.81432 0.35197 0.0
C1054 C 1.00279 0.83814 0.33064 0.0
C1055 C 1.00958 0.77896 0.34216 0.0
C1056 C 0.97351 0.8018 0.37051 0.0
C1057 C 0.98777 0.81951 0.3932 0.0
C1058 C 0.96312 0.8121 0.41348 0.0
C1059 C 0.92288 0.78534 0.41066 0.0
C1060 C 0.90765 0.76619 0.38778 0.0
C1061 C 0.93317 0.77512 0.3673 0.0
H1062 H 0.86646 0.0953 0.14483 0.0
H1063 H 0.8889 0.12498 0.06694 0.0
H1064 H 0.8683 0.05583 0.05724 0.0
H1065 H 0.89862 0.02071 0.14523 0.0
H1066 H 0.86044 0.98836 0.16639 0.0
H1067 H 0.8797 0.0409 0.1678 0.0
H1068 H 0.80906 0.03056 0.1621 0.0
H1069 H 0.79041 0.97812 0.16178 0.0
H1070 H 0.77964 1.00115 0.13646 0.0
H1071 H 0.83982 0.98317 0.0551 0.0
H1072 H 0.80733 0.91093 0.06092 0.0
H1073 H 0.80408 0.92591 0.14015 0.0
C1074 C 0.86797 0.08728 0.12586 0.0
C1075 C 0.87953 0.1156 0.10661 0.0
C1076 C 0.8802 0.10383 0.08195 0.0
C1077 C 0.86857 0.06459 0.07625 0.0
C1078 C 0.85638 0.03714 0.09544 0.0
C1079 C 0.8562 0.04783 0.11979 0.0
C1080 C 0.84005 0.01175 0.13661 0.0
C1081 C 0.87159 0.01567 0.1551 0.0
C1082 C 0.80259 1.00505 0.15004 0.0
C1083 C 0.83068 0.97921 0.11786 0.0
C1084 C 0.84044 0.99474 0.09422 0.0
C1085 C 0.83261 0.97072 0.07354 0.0
C1086 C 0.81413 0.92974 0.077 0.0
C1087 C 0.80378 0.91293 0.10094 0.0
C1088 C 0.8125 0.93809 0.12169 0.0
H1089 H 0.22883 0.13092 0.41247 0.0
H1090 H 0.25345 0.1388 0.33387 0.0
H1091 H 0.19826 0.15151 0.32594 0.0
H1092 H 0.12284 0.07836 0.40581 0.0
H1093 H 0.11532 0.10228 0.432 0.0
H1094 H 0.1573 0.09517 0.43117 0.0
H1095 H 0.20466 0.17076 0.43711 0.0
H1096 H 0.16211 0.17684 0.43882 0.0
H1097 H 0.20016 0.2047 0.41649 0.0
H1098 H 0.14208 0.16734 0.32754 0.0
H1099 H 0.08517 0.17622 0.3378 0.0
H1100 H 0.09547 0.15247 0.41495 0.0
C1101 C 0.22241 0.13513 0.39357 0.0
C1102 C 0.24515 0.13395 0.37373 0.0
C1103 C 0.23594 0.13927 0.34924 0.0
C1104 C 0.20494 0.1468 0.34464 0.0
C1105 C 0.18316 0.14807 0.36472 0.0
C1106 C 0.19114 0.14163 0.38866 0.0
C1107 C 0.16238 0.14249 0.40695 0.0
C1108 C 0.13802 0.10217 0.41973 0.0
C1109 C 0.18365 0.17568 0.42598 0.0
C1110 C 0.13732 0.1512 0.38972 0.0
C1111 C 0.14989 0.1548 0.36545 0.0
C1112 C 0.13182 0.1642 0.34645 0.0
C1113 C 0.09977 0.16944 0.35242 0.0
C1114 C 0.08595 0.16474 0.37709 0.0
C1115 C 0.10522 0.15577 0.39589 0.0
H1116 H 0.06881 0.92366 0.16828 0.0
H1117 H 0.10506 0.95135 0.09163 0.0
H1118 H 0.03996 0.89681 0.07822 0.0
H1119 H 0.01522 0.81827 0.16072 0.0
H1120 H 0.9769 0.81009 0.18238 0.0
H1121 H 0.0258 0.85163 0.18622 0.0
H1122 H 0.99857 0.89964 0.18592 0.0
H1123 H 0.94931 0.85855 0.1825 0.0
H1124 H 0.96829 0.89858 0.16048 0.0
H1125 H 0.96937 0.84102 0.07343 0.0
H1126 H 0.90186 0.78401 0.07763 0.0
H1127 H 0.91359 0.79144 0.15753 0.0
C1128 C 0.06297 0.91825 0.14867 0.0
C1129 C 0.09175 0.9418 0.13093 0.0
C1130 C 0.08337 0.9335 0.10546 0.0
C1131 C 0.04647 0.90278 0.09771 0.0
C1132 C 0.01853 0.88044 0.1157 0.0
C1133 C 0.02659 0.88747 0.14066 0.0
C1134 C 0.99198 0.8586 0.15631 0.0
C1135 C 1.00313 0.83313 0.17235 0.0
C1136 C 0.97611 0.88014 0.17224 0.0
C1137 C 0.96301 0.8344 0.13628 0.0
C1138 C 0.97868 0.84763 0.11297 0.0
C1139 C 0.95699 0.83026 0.0916 0.0
C1140 C 0.9187 0.79794 0.09416 0.0
C1141 C 0.90275 0.78304 0.11787 0.0
C1142 C 0.92502 0.80209 0.13915 0.0
H1143 H 0.8142 0.92943 0.41183 0.0
H1144 H 0.81498 0.91178 0.33276 0.0
H1145 H 0.84461 0.98372 0.32599 0.0
H1146 H 0.78685 0.99717 0.41245 0.0
H1147 H 0.81956 0.02983 0.43619 0.0
H1148 H 0.80574 0.97863 0.43602 0.0
H1149 H 0.87783 0.99564 0.43449 0.0
H1150 H 0.89286 0.04733 0.43591 0.0
H1151 H 0.91034 0.02917 0.41121 0.0
H1152 H 0.86932 0.05657 0.32767 0.0
H1153 H 0.8872 0.12501 0.33721 0.0
H1154 H 0.86766 0.09586 0.41534 0.0
C1155 C 0.82144 0.94094 0.39315 0.0
C1156 C 0.81229 0.91511 0.37277 0.0
C1157 C 0.82209 0.93109 0.34859 0.0
C1158 C 0.83889 0.9719 0.34461 0.0
C1159 C 0.84655 0.99646 0.36505 0.0
C1160 C 0.83901 0.98173 0.3889 0.0
C1161 C 0.84866 0.01436 0.40752 0.0
C1162 C 0.81302 1.00448 0.42401 0.0
C1163 C 0.88455 0.02207 0.42321 0.0
C1164 C 0.85897 0.049 0.39032 0.0
C1165 C 0.85921 0.03828 0.36596 0.0
C1166 C 0.86919 0.06524 0.34666 0.0
C1167 C 0.87916 0.10411 0.35228 0.0
C1168 C 0.87808 0.11574 0.37695 0.0
C1169 C 0.86799 0.0877 0.39625 0.0
H1170 H 0.20236 0.13001 0.56796 0.0
H1171 H 0.2044 0.09551 0.64409 0.0
H1172 H 0.17405 0.13444 0.65757 0.0
H1173 H 0.2307 0.22506 0.57937 0.0
H1174 H 0.19939 0.23212 0.55779 0.0
H1175 H 0.21378 0.19588 0.5517 0.0
H1176 H 0.14263 0.13935 0.549 0.0
H1177 H 0.1262 0.1746 0.55294 0.0
H1178 H 0.10816 0.13245 0.57324 0.0
H1179 H 0.14728 0.18013 0.66322 0.0
H1180 H 0.12895 0.2318 0.66098 0.0
H1181 H 0.14759 0.24007 0.58152 0.0
C1182 C 0.19601 0.13029 0.58744 0.0
C1183 C 0.20559 0.10945 0.60494 0.0
C1184 C 0.19675 0.11061 0.63026 0.0
C1185 C 0.17955 0.13271 0.63812 0.0
C1186 C 0.17098 0.15329 0.62044 0.0
C1187 C 0.17857 0.15202 0.5956 0.0
C1188 C 0.16893 0.17893 0.58063 0.0
C1189 C 0.20538 0.20993 0.56652 0.0
C1190 C 0.13443 0.15489 0.5629 0.0
C1191 C 0.15686 0.19723 0.60111 0.0
C1192 C 0.15708 0.18105 0.62382 0.0
C1193 C 0.14678 0.19285 0.64552 0.0
C1194 C 0.13624 0.22215 0.64404 0.0
C1195 C 0.13669 0.2399 0.62107 0.0
C1196 C 0.14698 0.22704 0.59933 0.0
H1197 H 0.13458 0.89707 0.8547 0.0
H1198 H 0.13861 0.89324 0.93478 0.0
H1199 H 0.0702 0.88008 0.93711 0.0
H1200 H 0.07648 0.94611 0.85173 0.0
H1201 H 0.04888 0.91879 0.82501 0.0
H1202 H 0.09838 0.92824 0.82966 0.0
H1203 H 0.0736 0.8529 0.82752 0.0
H1204 H 0.02442 0.84404 0.82228 0.0
H1205 H 0.03383 0.81979 0.84751 0.0
H1206 H 1.00047 0.86408 0.93079 0.0
H1207 H 0.93582 0.85288 0.91632 0.0
H1208 H 0.97715 0.86888 0.84038 0.0
C1209 C 0.12113 0.89395 0.87269 0.0
C1210 C 0.1416 0.89572 0.89459 0.0
C1211 C 0.12316 0.89146 0.9178 0.0
C1212 C 0.08435 0.88399 0.9193 0.0
C1213 C 0.06445 0.88115 0.8974 0.0
C1214 C 0.08229 0.88648 0.87453 0.0
C1215 C 0.05435 0.88243 0.85387 0.0
C1216 C 0.07049 0.9212 0.83921 0.0
C1217 C 0.04609 0.84773 0.83679 0.0
C1218 C 0.01808 0.87393 0.86873 0.0
C1219 C 0.02445 0.87295 0.89379 0.0
C1220 C 0.99514 0.86495 0.91121 0.0
C1221 C 0.95846 0.85836 0.90283 0.0
C1222 C 0.95152 0.86011 0.87728 0.0
C1223 C 0.98175 0.86776 0.86006 0.0
H1224 H 0.78505 0.89928 0.65366 0.0
H1225 H 0.77334 0.89578 0.57382 0.0
H1226 H 0.82762 0.96512 0.57125 0.0
H1227 H 0.80801 0.99967 0.66264 0.0
H1228 H 0.84293 1.00852 0.6869 0.0
H1229 H 0.80236 0.95938 0.68178 0.0
H1230 H 0.85242 0.93445 0.67715 0.0
H1231 H 0.89276 0.98381 0.68182 0.0
H1232 H 0.89109 0.95698 0.65435 0.0
H1233 H 0.88161 0.03613 0.57785 0.0
H1234 H 0.9365 0.10013 0.59255 0.0
H1235 H 0.91478 0.05541 0.66777 0.0
C1236 C 0.79403 0.91303 0.63562 0.0
C1237 C 0.77447 0.89255 0.61394 0.0
C1238 C 0.7874 0.91138 0.59068 0.0
C1239 C 0.81821 0.95067 0.58905 0.0
C1240 C 0.83605 0.97051 0.61088 0.0
C1241 C 0.82483 0.95209 0.63368 0.0
C1242 C 0.84971 0.97934 0.65427 0.0
C1243 C 0.82421 0.98716 0.67247 0.0
C1244 C 0.87287 0.96265 0.66768 0.0
C1245 C 0.87677 0.01602 0.63951 0.0
C1246 C 0.86809 0.01058 0.61454 0.0
C1247 C 0.88881 0.04064 0.59734 0.0
C1248 C 0.91972 0.07691 0.60583 0.0
C1249 C 0.92988 0.08253 0.63122 0.0
C1250 C 0.90779 0.05174 0.64822 0.0
H1251 H 0.16414 0.24652 0.93408 0.0
H1252 H 0.15699 0.24791 0.85409 0.0
H1253 H 0.17981 0.19947 0.85137 0.0
H1254 H 0.24825 0.23299 0.94149 0.0
H1255 H 0.22558 0.2 0.96706 0.0
H1256 H 0.212 0.2367 0.96023 0.0
H1257 H 0.13894 0.17667 0.95896 0.0
H1258 H 0.15593 0.14185 0.96298 0.0
H1259 H 0.12647 0.13826 0.93645 0.0
H1260 H 0.21087 0.1571 0.85729 0.0
H1261 H 0.24034 0.11771 0.87124 0.0
H1262 H 0.21952 0.13651 0.94768 0.0
C1263 C 0.16701 0.23621 0.91604 0.0
C1264 C 0.15915 0.2512 0.89423 0.0
C1265 C 0.16278 0.23678 0.87097 0.0
C1266 C 0.17588 0.20938 0.86927 0.0
C1267 C 0.18399 0.19561 0.89105 0.0
C1268 C 0.17878 0.20775 0.91404 0.0
C1269 C 0.18771 0.1867 0.93454 0.0
C1270 C 0.22028 0.21595 0.95186 0.0
C1271 C 0.15002 0.15923 0.94909 0.0
C1272 C 0.20165 0.16325 0.91947 0.0
C1273 C 0.19895 0.1686 0.89443 0.0
C1274 C 0.21231 0.15199 0.87686 0.0
C1275 C 0.22893 0.12942 0.88503 0.0
C1276 C 0.23211 0.12333 0.91064 0.0
C1277 C 0.21786 0.14046 0.92798 0.0
H1278 H 0.10057 0.86793 0.58052 0.0
H1279 H 0.11428 0.86166 0.65972 0.0
H1280 H 0.04305 0.83436 0.66557 0.0
H1281 H 0.02613 0.89974 0.58901 0.0
H1282 H 0.99885 0.87501 0.5616 0.0
H1283 H 0.05125 0.8938 0.56285 0.0
H1284 H 0.04141 0.82291 0.55373 0.0
H1285 H 0.99051 0.80889 0.54956 0.0
H1286 H 1.00298 0.78185 0.5709 0.0
H1287 H 0.97022 0.80382 0.66291 0.0
H1288 H 0.89993 0.77488 0.65187 0.0
H1289 H 0.93227 0.80418 0.57478 0.0
C1290 C 0.0884 0.86086 0.59904 0.0
C1291 C 0.11287 0.8664 0.61969 0.0
C1292 C 0.09616 0.85756 0.64369 0.0
C1293 C 0.05567 0.84198 0.64719 0.0
C1294 C 0.03226 0.83653 0.62656 0.0
C1295 C 0.04793 0.84629 0.60296 0.0
C1296 C 0.01612 0.83971 0.58431 0.0
C1297 C 0.02353 0.87943 0.57383 0.0
C1298 C 1.01274 0.81171 0.5634 0.0
C1299 C 0.97988 0.82112 0.6008 0.0
C1300 C 0.99008 0.82054 0.6252 0.0
C1301 C 0.96186 0.80437 0.6439 0.0
C1302 C 0.92206 0.78799 0.63747 0.0
C1303 C 0.91079 0.78726 0.61252 0.0
C1304 C 0.94015 0.80425 0.59399 0.0
H1305 H 0.9335 0.07592 0.93866 0.0
H1306 H 0.94044 0.11856 0.86354 0.0
H1307 H 0.88239 0.05505 0.85219 0.0
H1308 H 0.90811 0.97785 0.92175 0.0
H1309 H 0.87547 0.95489 0.94766 0.0
H1310 H 0.91613 1.00457 0.95029 0.0
H1311 H 0.86791 0.02779 0.96334 0.0
H1312 H 0.82633 0.97875 0.95997 0.0
H1313 H 0.8279 0.01947 0.94326 0.0
H1314 H 0.82787 0.98545 0.84789 0.0
H1315 H 0.77751 0.91504 0.85168 0.0
H1316 H 0.80374 0.91738 0.92965 0.0
C1317 C 0.92275 0.07198 0.91983 0.0
C1318 C 0.94151 0.1024 0.90201 0.0
C1319 C 0.92626 0.09606 0.87763 0.0
C1320 C 0.89342 0.05997 0.87096 0.0
C1321 C 0.87601 0.03053 0.88889 0.0
C1322 C 0.88996 0.03613 0.91286 0.0
C1323 C 0.86662 0.99913 0.92832 0.0
C1324 C 0.89317 0.98318 0.93754 0.0
C1325 C 0.84591 1.00671 0.95 0.0
C1326 C 0.83736 0.97183 0.90925 0.0
C1327 C 0.84364 0.9905 0.88657 0.0
C1328 C 0.82243 0.97064 0.8656 0.0
C1329 C 0.79419 0.93061 0.86782 0.0
C1330 C 0.787 0.91101 0.89084 0.0
C1331 C 0.80852 0.93197 0.91189 0.0
H1332 H 0.35463 0.10494 0.30755 0.0
H1333 H 0.39952 0.22735 0.32646 0.0
H1334 H 0.41341 0.24518 0.28173 0.0
H1335 H 0.41449 0.11227 0.25637 0.0
H1336 H 0.37349 0.07375 0.23979 0.0
H1337 H 0.3735 0.07378 0.27308 0.0
H1338 H 0.30594 0.07139 0.27235 0.0
H1339 H 0.30567 0.07449 0.23917 0.0
H1340 H 0.30218 0.11054 0.25759 0.0
H1341 H 0.41659 0.246 0.23155 0.0
H1342 H 0.40579 0.22954 0.18664 0.0
H1343 H 0.35616 0.10623 0.20478 0.0
C1344 C 0.36742 0.13556 0.30258 0.0
C1345 C 0.3752 0.16439 0.32062 0.0
C1346 C 0.39308 0.20445 0.31301 0.0
C1347 C 0.40102 0.21479 0.28758 0.0
C1348 C 0.39105 0.18472 0.27014 0.0
C1349 C 0.37462 0.14592 0.27773 0.0
C1350 C 0.36147 0.11776 0.25632 0.0
C1351 C 0.38192 0.09291 0.2564 0.0
C1352 C 0.31622 0.09194 0.25638 0.0
C1353 C 0.375 0.14634 0.23506 0.0
C1354 C 0.39158 0.185 0.24289 0.0
C1355 C 0.4036 0.21565 0.22556 0.0
C1356 C 0.39738 0.20605 0.20002 0.0
C1357 C 0.37873 0.1661 0.19216 0.0
C1358 C 0.36903 0.13663 0.21008 0.0
H1359 H 0.86705 0.68929 0.31022 0.0
H1360 H 0.75355 0.58579 0.32423 0.0
H1361 H 0.74423 0.57299 0.27912 0.0
H1362 H 0.84384 0.72691 0.26293 0.0
H1363 H 0.88676 0.74241 0.24393 0.0
H1364 H 0.88988 0.73803 0.27684 0.0
H1365 H 0.91673 0.6905 0.2711 0.0
H1366 H 0.91506 0.69568 0.23802 0.0
H1367 H 0.8904 0.64735 0.25199 0.0
H1368 H 0.74342 0.57739 0.23235 0.0
H1369 H 0.75151 0.59781 0.18826 0.0
H1370 H 0.86326 0.7015 0.20541 0.0
C1371 C 0.84107 0.66294 0.30375 0.0
C1372 C 0.81119 0.63812 0.32054 0.0
C1373 C 0.7771 0.60447 0.31162 0.0
C1374 C 0.77154 0.5972 0.28603 0.0
C1375 C 0.80069 0.62354 0.2698 0.0
C1376 C 0.83521 0.65537 0.27837 0.0
C1377 C 0.86029 0.6814 0.25722 0.0
C1378 C 0.87069 0.72466 0.26043 0.0
C1379 C 0.89783 0.67854 0.25442 0.0
C1380 C 0.83265 0.66165 0.23568 0.0
C1381 C 0.79927 0.62734 0.2431 0.0
C1382 C 0.76963 0.60394 0.22634 0.0
C1383 C 0.77435 0.61575 0.20141 0.0
C1384 C 0.80778 0.65125 0.19369 0.0
C1385 C 0.83725 0.67441 0.21103 0.0
H1386 H 0.87227 0.26252 0.19567 0.0
H1387 H 0.84309 0.14128 0.18436 0.0
H1388 H 0.83299 0.12886 0.22921 0.0
H1389 H 0.92824 0.27776 0.24993 0.0
H1390 H 0.91275 0.30855 0.26513 0.0
H1391 H 0.9126 0.30618 0.23183 0.0
H1392 H 0.8384 0.2859 0.23239 0.0
H1393 H 0.8389 0.28725 0.26576 0.0
H1394 H 0.80403 0.243 0.24981 0.0
H1395 H 0.83347 0.13064 0.27474 0.0
H1396 H 0.8454 0.14678 0.31901 0.0
H1397 H 0.87509 0.26716 0.30339 0.0
C1398 C 0.86226 0.23306 0.20268 0.0
C1399 C 0.85704 0.20236 0.18643 0.0
C1400 C 0.84609 0.16478 0.19636 0.0
C1401 C 0.84042 0.15751 0.22185 0.0
C1402 C 0.84627 0.18827 0.23747 0.0
C1403 C 0.85694 0.22538 0.22841 0.0
C1404 C 0.86458 0.25383 0.24977 0.0
C1405 C 0.90706 0.28868 0.24909 0.0
C1406 C 0.83469 0.26835 0.24941 0.0
C1407 C 0.85788 0.2272 0.27208 0.0
C1408 C 0.84675 0.18938 0.26435 0.0
C1409 C 0.84135 0.15991 0.28104 0.0
C1410 C 0.84808 0.16931 0.30622 0.0
C1411 C 0.85973 0.20772 0.31481 0.0
C1412 C 0.86449 0.23709 0.29748 0.0
H1413 H 0.15746 0.39848 0.70385 0.0
H1414 H 0.1657 0.29357 0.69079 0.0
H1415 H 0.17955 0.29084 0.73492 0.0
H1416 H 0.23284 0.44092 0.75466 0.0
H1417 H 0.20462 0.45716 0.77239 0.0
H1418 H 0.20105 0.45504 0.73909 0.0
H1419 H 0.12522 0.40971 0.7422 0.0
H1420 H 0.12888 0.41235 0.77545 0.0
H1421 H 0.10563 0.36515 0.76031 0.0
H1422 H 0.18546 0.29425 0.78018 0.0
H1423 H 0.18103 0.30238 0.82495 0.0
H1424 H 0.1678 0.40436 0.81153 0.0
C1425 C 0.16369 0.37592 0.71026 0.0
C1426 C 0.16201 0.34703 0.69367 0.0
C1427 C 0.16807 0.31664 0.70295 0.0
C1428 C 0.17582 0.31477 0.72805 0.0
C1429 C 0.17686 0.34318 0.74401 0.0
C1430 C 0.17086 0.37319 0.73565 0.0
C1431 C 0.1699 0.39747 0.75746 0.0
C1432 C 0.20415 0.44019 0.7558 0.0
C1433 C 0.13005 0.39611 0.75893 0.0
C1434 C 0.17535 0.37577 0.77925 0.0
C1435 C 0.17981 0.34489 0.77081 0.0
C1436 C 0.18277 0.31878 0.78701 0.0
C1437 C 0.1804 0.32373 0.81248 0.0
C1438 C 0.17544 0.35472 0.82183 0.0
C1439 C 0.17328 0.38142 0.80495 0.0
H1440 H 0.277 0.87886 0.80731 0.0
H1441 H 0.16107 0.86074 0.82438 0.0
H1442 H 0.14315 0.84903 0.78011 0.0
H1443 H 0.2895 0.93281 0.75174 0.0
H1444 H 0.31572 0.91297 0.7354 0.0
H1445 H 0.31796 0.91595 0.76867 0.0
H1446 H 0.29289 0.8407 0.7709 0.0
H1447 H 0.29013 0.83777 0.7376 0.0
H1448 H 0.24718 0.80666 0.756 0.0
H1449 H 0.13949 0.84526 0.73454 0.0
H1450 H 0.15 0.85005 0.68954 0.0
H1451 H 0.26841 0.87067 0.70005 0.0
C1452 C 0.24757 0.87137 0.80164 0.0
C1453 C 0.21996 0.86981 0.81913 0.0
C1454 C 0.18226 0.8615 0.81117 0.0
C1455 C 0.17188 0.8548 0.78612 0.0
C1456 C 0.19976 0.85696 0.76918 0.0
C1457 C 0.23688 0.8651 0.77648 0.0
C1458 C 0.26201 0.86855 0.75407 0.0
C1459 C 0.29848 0.91003 0.75239 0.0
C1460 C 0.27374 0.8365 0.75468 0.0
C1461 C 0.23335 0.86151 0.7331 0.0
C1462 C 0.19759 0.85471 0.74243 0.0
C1463 C 0.16709 0.8499 0.72703 0.0
C1464 C 0.17333 0.85266 0.70146 0.0
C1465 C 0.20959 0.85976 0.69128 0.0
C1466 C 0.23995 0.86388 0.70732 0.0
H1467 H 0.61841 0.77008 0.7048 0.0
H1468 H 0.73067 0.87216 0.68563 0.0
H1469 H 0.74331 0.8907 0.72947 0.0
H1470 H 0.59775 0.82005 0.75915 0.0
H1471 H 0.57532 0.77524 0.77718 0.0
H1472 H 0.57131 0.77291 0.7439 0.0
H1473 H 0.602 0.72717 0.74247 0.0
H1474 H 0.6043 0.72893 0.77575 0.0
H1475 H 0.64818 0.74302 0.75805 0.0
H1476 H 0.75075 0.89073 0.77412 0.0
H1477 H 0.74944 0.87664 0.81846 0.0
H1478 H 0.63053 0.77814 0.81161 0.0
C1479 C 0.64481 0.7971 0.70992 0.0
C1480 C 0.67357 0.81988 0.69193 0.0
C1481 C 0.70838 0.85441 0.69918 0.0
C1482 C 0.71575 0.86523 0.72403 0.0
C1483 C 0.68782 0.84145 0.74152 0.0
C1484 C 0.65265 0.80851 0.73494 0.0
C1485 C 0.62925 0.78692 0.75795 0.0
C1486 C 0.59114 0.78891 0.75964 0.0
C1487 C 0.62039 0.74395 0.75855 0.0
C1488 C 0.65806 0.81139 0.77823 0.0
C1489 C 0.69139 0.84291 0.76814 0.0
C1490 C 0.72427 0.86711 0.7824 0.0
C1491 C 0.72329 0.85891 0.80764 0.0
C1492 C 0.68949 0.82729 0.81861 0.0
C1493 C 0.65615 0.80347 0.80378 0.0
H1494 H 0.32686 0.97149 0.95976 0.0
H1495 H 0.20045 0.92401 0.95884 0.0
H1496 H 0.20733 0.97216 0.99081 0.0
H1497 H 0.3358 0.98538 0.02701 0.0
H1498 H 0.38354 0.02929 0.02511 0.0
H1499 H 0.3684 0.99192 1.00162 0.0
H1500 H 0.38164 0.04481 0.968 0.0
H1501 H 0.39651 0.08167 0.99186 0.0
H1502 H 0.35803 0.07406 0.97061 0.0
H1503 H 0.22756 0.02566 0.02211 0.0
H1504 H 0.25763 0.07297 0.05631 0.0
H1505 H 0.37135 0.08516 0.03944 0.0
C1506 C 0.30064 0.97109 0.96649 0.0
C1507 C 0.263 0.94397 0.95676 0.0
C1508 C 0.2294 0.94416 0.96613 0.0
C1509 C 0.23315 0.97176 0.9841 0.0
C1510 C 0.27066 0.99858 0.99293 0.0
C1511 C 0.30376 0.99784 0.98497 0.0
C1512 C 0.34019 0.02805 0.99897 0.0
C1513 C 0.35802 1.00742 0.01407 0.0
C1514 C 0.37088 0.05896 0.98129 0.0
C1515 C 0.32245 0.04628 0.01582 0.0
C1516 C 0.28233 0.029 0.01169 0.0
C1517 C 0.2589 0.03938 0.02547 0.0
C1518 C 0.27634 0.06655 0.04476 0.0
C1519 C 0.3169 0.08321 0.05037 0.0
C1520 C 0.34055 0.07385 0.03515 0.0
H1521 H 0.7452 0.66105 0.47544 0.0
H1522 H 0.77831 0.76366 0.42878 0.0
H1523 H 0.75097 0.7897 0.45891 0.0
H1524 H 0.65394 0.65228 0.49883 0.0
H1525 H 0.66024 0.63975 0.52995 0.0
H1526 H 0.68111 0.627 0.5043 0.0
H1527 H 0.75051 0.66502 0.52425 0.0
H1528 H 0.72921 0.67657 0.55015 0.0
H1529 H 0.76972 0.71571 0.53333 0.0
H1530 H 0.71941 0.80562 0.49339 0.0
H1531 H 0.69456 0.81452 0.53349 0.0
H1532 H 0.68372 0.70456 0.55959 0.0
C1533 C 0.74694 0.68908 0.47171 0.0
C1534 C 0.76344 0.70965 0.4493 0.0
C1535 C 0.76521 0.74652 0.44538 0.0
C1536 C 0.74964 0.76182 0.46244 0.0
C1537 C 0.73254 0.74046 0.48384 0.0
C1538 C 0.73164 0.70528 0.48887 0.0
C1539 C 0.71308 0.68968 0.51408 0.0
C1540 C 0.67482 0.6498 0.51163 0.0
C1541 C 0.74239 0.68657 0.53149 0.0
C1542 C 0.70459 0.72192 0.52235 0.0
C1543 C 0.71532 0.75048 0.50435 0.0
C1544 C 0.71081 0.78341 0.5077 0.0
C1545 C 0.69629 0.78809 0.53047 0.0
C1546 C 0.68702 0.76031 0.54974 0.0
C1547 C 0.69044 0.72636 0.54527 0.0
H1548 H 0.07812 0.2794 0.96484 0.0
H1549 H 0.10727 0.40153 0.95927 0.0
H1550 H 0.05701 0.38942 0.99142 0.0
H1551 H 0.97575 0.23564 0.97431 0.0
H1552 H 0.97248 0.20005 0.99681 0.0
H1553 H 1.01069 0.21845 0.97365 0.0
H1554 H 0.0641 0.24118 0.00772 0.0
H1555 H 0.02607 0.22206 0.03099 0.0
H1556 H 0.06492 0.27287 0.03216 0.0
H1557 H 0.99765 0.36069 0.02175 0.0
H1558 H 0.94672 0.32326 0.0537 0.0
H1559 H 0.96265 0.22258 0.04236 0.0
C1560 C 0.07437 0.30379 0.97066 0.0
C1561 C 0.09647 0.34142 0.95948 0.0
C1562 C 0.09092 0.37261 0.96775 0.0
C1563 C 0.06208 0.3658 0.98578 0.0
C1564 C 0.03984 0.3279 0.99587 0.0
C1565 C 0.04672 0.29781 0.98912 0.0
C1566 C 0.02052 0.26029 1.00351 0.0
C1567 C 0.99326 0.22663 0.98602 0.0
C1568 C 0.04539 0.24842 0.01955 0.0
C1569 C 0.99736 0.27363 0.01931 0.0
C1570 C 1.00817 0.31244 0.01427 0.0
C1571 C 0.98946 0.33049 0.02599 0.0
C1572 C 0.9602 0.30889 0.04389 0.0
C1573 C 0.95072 0.27007 0.05044 0.0
C1574 C 0.96927 0.25222 0.03768 0.0
H1575 H 0.35585 0.08186 0.4747 0.0
H1576 H 0.24122 0.04205 0.4414 0.0
H1577 H 0.21042 0.98943 0.47241 0.0
H1578 H 0.3378 0.98341 0.48938 0.0
H1579 H 0.36392 0.99732 0.5184 0.0
H1580 H 0.37799 0.03299 0.49374 0.0
H1581 H 0.36937 0.07998 0.52299 0.0
H1582 H 0.35449 0.04463 0.54792 0.0
H1583 H 0.32281 0.06317 0.53819 0.0
H1584 H 0.19132 0.93839 0.50534 0.0
H1585 H 0.18435 0.89736 0.5419 0.0
H1586 H 0.30964 0.96973 0.55613 0.0
C1587 C 0.32423 0.06246 0.47424 0.0
C1588 C 0.30116 0.0662 0.45532 0.0
C1589 C 0.25984 0.0398 0.45536 0.0
C1590 C 0.24189 1.00956 0.47294 0.0
C1591 C 0.26538 1.00571 0.49071 0.0
C1592 C 0.30558 0.03157 0.49178 0.0
C1593 C 0.32361 0.02017 0.51297 0.0
C1594 C 0.35255 1.00773 0.50303 0.0
C1595 C 0.34381 0.05401 0.53165 0.0
C1596 C 0.28706 0.98496 0.52402 0.0
C1597 C 0.254 0.97663 0.51041 0.0
C1598 C 0.21696 0.94478 0.51627 0.0
C1599 C 0.2133 0.92137 0.53697 0.0
C1600 C 0.24631 0.93021 0.55195 0.0
C1601 C 0.28376 0.9623 0.54514 0.0
H1602 H 0.80458 0.71796 0.04084 0.0
H1603 H 0.69353 0.66557 0.08057 0.0
H1604 H 0.66452 0.68607 0.04737 0.0
H1605 H 0.80199 0.80188 0.01905 0.0
H1606 H 0.82284 0.80328 0.98908 0.0
H1607 H 0.83454 0.78218 0.01509 0.0
H1608 H 0.81005 0.71671 0.99111 0.0
H1609 H 0.79886 0.73789 0.96488 0.0
H1610 H 0.76112 0.69222 0.97815 0.0
H1611 H 0.64807 0.71545 0.01048 0.0
H1612 H 0.64498 0.74772 0.97171 0.0
H1613 H 0.76647 0.78125 0.95605 0.0
C1614 C 0.77389 0.70994 0.04223 0.0
C1615 C 0.75141 0.69007 0.06342 0.0
C1616 C 0.71155 0.68098 0.0647 0.0
C1617 C 0.6947 0.69248 0.04586 0.0
C1618 C 0.7179 0.71306 0.0256 0.0
C1619 C 0.75651 0.72134 0.0235 0.0
C1620 C 0.77525 0.74478 1.00007 0.0
C1621 C 0.81076 0.78544 0.0062 0.0
C1622 C 0.78701 0.7215 0.98252 0.0
C1623 C 0.74134 0.7486 0.98954 0.0
C1624 C 0.70847 0.73009 1.0045 0.0
C1625 C 0.67365 0.72992 0.99856 0.0
C1626 C 0.6722 0.74856 0.97655 0.0
C1627 C 0.70535 0.76715 0.96068 0.0
C1628 C 0.74043 0.76736 0.96762 0.0
H1629 H 0.06377 0.2679 0.54513 0.0
H1630 H 0.07748 0.38335 0.55792 0.0
H1631 H 0.03239 0.37298 0.5229 0.0
H1632 H 0.06409 0.2763 0.47664 0.0
H1633 H 0.02994 0.22437 0.47269 0.0
H1634 H 0.06303 0.2412 0.49874 0.0
H1635 H 1.00338 0.20533 0.52835 0.0
H1636 H 0.97006 0.18904 0.50244 0.0
H1637 H 0.96418 0.21675 0.52702 0.0
H1638 H 0.97809 0.34526 0.4897 0.0
H1639 H 0.9331 0.31076 0.45466 0.0
H1640 H 0.9631 0.21829 0.45897 0.0
C1641 C 0.05784 0.29127 0.54019 0.0
C1642 C 0.07399 0.32642 0.5543 0.0
C1643 C 0.06573 0.3564 0.54724 0.0
C1644 C 0.03978 0.35053 0.52754 0.0
C1645 C 0.02341 0.31507 0.51441 0.0
C1646 C 0.03336 0.2866 0.51986 0.0
C1647 C 1.01357 0.25214 0.50197 0.0
C1648 C 0.0445 0.24828 0.4866 0.0
C1649 C 0.98618 0.21354 0.51578 0.0
C1650 C 0.99016 0.26514 0.48597 0.0
C1651 C 0.99544 0.30107 0.49384 0.0
C1652 C 0.97452 0.31757 0.48309 0.0
C1653 C 0.94865 0.29755 0.46336 0.0
C1654 C 0.94489 0.2621 0.45389 0.0
C1655 C 0.96576 0.24563 0.46558 0.0
H1656 H 0.60859 0.15691 0.05851 0.0
H1657 H 0.64208 0.1367 0.13113 0.0
H1658 H 0.57904 0.12685 0.14834 0.0
H1659 H 0.56158 0.21153 0.0799 0.0
H1660 H 0.52371 0.19106 0.05658 0.0
H1661 H 0.57144 0.19673 0.05042 0.0
H1662 H 0.53837 0.12227 0.03983 0.0
H1663 H 0.49059 0.11634 0.0462 0.0
H1664 H 0.50639 0.08623 0.06224 0.0
H1665 H 0.50947 0.11416 0.15661 0.0
H1666 H 0.4437 0.10869 0.15655 0.0
H1667 H 0.45833 0.14152 0.07893 0.0
C1668 C 0.60272 0.15072 0.07808 0.0
C1669 C 0.63003 0.14746 0.09355 0.0
C1670 C 0.62157 0.13956 0.11906 0.0
C1671 C 0.58577 0.13367 0.12891 0.0
C1672 C 0.55909 0.13636 0.11304 0.0
C1673 C 0.56753 0.14542 0.08824 0.0
C1674 C 0.5344 0.14748 0.07517 0.0
C1675 C 0.54864 0.18918 0.06492 0.0
C1676 C 0.51638 0.11622 0.05465 0.0
C1677 C 0.50581 0.13792 0.09641 0.0
C1678 C 0.52026 0.13102 0.11804 0.0
C1679 C 0.49818 0.12005 0.13984 0.0
C1680 C 0.4608 0.11683 0.13961 0.0
C1681 C 0.44616 0.12519 0.11784 0.0
C1682 C 0.46898 0.13557 0.09597 0.0
H1683 H 0.65363 0.58192 0.37307 0.0
H1684 H 0.73952 0.55133 0.39915 0.0
H1685 H 0.68842 0.48142 0.40107 0.0
H1686 H 0.57866 0.5183 0.41316 0.0
H1687 H 0.53847 0.50409 0.39181 0.0
H1688 H 0.58273 0.55117 0.38844 0.0
H1689 H 0.59052 0.53401 0.34339 0.0
H1690 H 0.54612 0.48681 0.3465 0.0
H1691 H 0.59141 0.48922 0.33711 0.0
H1692 H 0.62804 0.41644 0.40477 0.0
H1693 H 0.56129 0.36041 0.4114 0.0
H1694 H 0.5121 0.43065 0.38305 0.0
C1695 C 0.66168 0.56029 0.37851 0.0
C1696 C 0.70068 0.57206 0.38577 0.0
C1697 C 0.70994 0.54302 0.39345 0.0
C1698 C 0.68109 0.50312 0.39451 0.0
C1699 C 0.64275 0.49242 0.38793 0.0
C1700 C 0.6328 0.52001 0.38008 0.0
C1701 C 0.58852 0.50074 0.37652 0.0
C1702 C 0.57108 0.5197 0.3935 0.0
C1703 C 0.57856 0.50282 0.34925 0.0
C1704 C 0.57532 0.4585 0.38435 0.0
C1705 C 0.60725 0.45437 0.39044 0.0
C1706 C 0.60273 0.41902 0.39963 0.0
C1707 C 0.56452 0.38713 0.40319 0.0
C1708 C 0.53104 0.39062 0.39768 0.0
C1709 C 0.53685 0.42677 0.38761 0.0
H1710 H 0.8472 0.3065 0.09615 0.0
H1711 H 0.94445 0.36157 0.14793 0.0
H1712 H 0.93646 0.42084 0.14892 0.0
H1713 H 0.86842 0.39241 0.0613 0.0
H1714 H 0.81716 0.37743 0.05727 0.0
H1715 H 0.83174 0.34073 0.06073 0.0
H1716 H 0.78387 0.30995 0.0978 0.0
H1717 H 0.76895 0.34637 0.09442 0.0
H1718 H 0.78763 0.34065 0.12368 0.0
H1719 H 0.91597 0.47531 0.14308 0.0
H1720 H 0.8836 0.51467 0.13378 0.0
H1721 H 0.80042 0.42091 0.08623 0.0
C1722 C 0.86728 0.33097 0.10767 0.0
C1723 C 0.89701 0.32935 0.12169 0.0
C1724 C 0.92176 0.36206 0.1368 0.0
C1725 C 0.91737 0.39589 0.13743 0.0
C1726 C 0.88788 0.39642 0.123 0.0
C1727 C 0.86317 0.3644 0.10857 0.0
C1728 C 0.83294 0.37084 0.09516 0.0
C1729 C 0.83789 0.37033 0.06695 0.0
C1730 C 0.79087 0.34014 0.10326 0.0
C1731 C 0.84414 0.41166 0.10417 0.0
C1732 C 0.876 0.42636 0.1201 0.0
C1733 C 0.89104 0.4638 0.13064 0.0
C1734 C 0.87263 0.48614 0.12512 0.0
C1735 C 0.83926 0.47092 0.10935 0.0
C1736 C 0.82553 0.43337 0.09857 0.0
H1737 H 0.43836 0.08329 0.37578 0.0
H1738 H 0.46248 0.19287 0.41058 0.0
H1739 H 0.53307 0.21407 0.41242 0.0
H1740 H 0.50176 0.06822 0.41393 0.0
H1741 H 0.51851 0.04716 0.39055 0.0
H1742 H 0.47069 0.04262 0.3879 0.0
H1743 H 0.48808 0.07484 0.34469 0.0
H1744 H 0.53605 0.07924 0.34671 0.0
H1745 H 0.53182 0.12229 0.34062 0.0
H1746 H 0.60014 0.22198 0.41311 0.0
H1747 H 0.65795 0.21301 0.41671 0.0
H1748 H 0.59096 0.09692 0.38363 0.0
C1749 C 0.45866 0.11203 0.38332 0.0
C1750 C 0.44501 0.13675 0.39271 0.0
C1751 C 0.47233 0.17369 0.40305 0.0
C1752 C 0.51256 0.18606 0.40409 0.0
C1753 C 0.52512 0.16095 0.39498 0.0
C1754 C 0.49901 0.12451 0.38502 0.0
C1755 C 0.51975 0.10153 0.37906 0.0
C1756 C 0.50161 0.0626 0.39376 0.0
C1757 C 0.51887 0.09405 0.3511 0.0
C1758 C 0.56124 0.13038 0.3878 0.0
C1759 C 0.56383 0.16482 0.39637 0.0
C1760 C 0.59864 0.19531 0.40623 0.0
C1761 C 0.63145 0.19007 0.40806 0.0
C1762 C 0.62911 0.15438 0.40038 0.0
C1763 C 0.59368 0.12457 0.38963 0.0
H1764 H 0.51628 0.44328 0.10877 0.0
H1765 H 0.56246 0.36322 0.11725 0.0
H1766 H 0.62494 0.41828 0.13192 0.0
H1767 H 0.60325 0.51965 0.08193 0.0
H1768 H 0.59927 0.55932 0.09589 0.0
H1769 H 0.55555 0.51275 0.08998 0.0
H1770 H 0.53594 0.5078 0.13616 0.0
H1771 H 0.57985 0.55431 0.14223 0.0
H1772 H 0.57005 0.51102 0.15969 0.0
H1773 H 0.68423 0.48195 0.14264 0.0
H1774 H 0.7383 0.5506 0.14494 0.0
H1775 H 0.65757 0.5921 0.12583 0.0
C1776 C 0.53926 0.43687 0.11364 0.0
C1777 C 0.53337 0.39792 0.11189 0.0
C1778 C 0.56487 0.39187 0.11896 0.0
C1779 C 0.60093 0.42326 0.12722 0.0
C1780 C 0.60569 0.46099 0.12817 0.0
C1781 C 0.57589 0.46809 0.12137 0.0
C1782 C 0.59018 0.51218 0.12168 0.0
C1783 C 0.58687 0.52683 0.09583 0.0
C1784 C 0.56765 0.52189 0.1411 0.0
C1785 C 0.63298 0.52878 0.12918 0.0
C1786 C 0.64085 0.49847 0.13331 0.0
C1787 C 0.67836 0.50586 0.13951 0.0
C1788 C 0.70893 0.54508 0.14073 0.0
C1789 C 0.70229 0.57684 0.1355 0.0
C1790 C 0.66348 0.56855 0.13029 0.0
H1791 H 0.86681 0.46026 0.45161 0.0
H1792 H 0.89052 0.51957 0.38066 0.0
H1793 H 0.90263 0.46838 0.36233 0.0
H1794 H 0.9386 0.4299 0.44807 0.0
H1795 H 0.90791 0.38267 0.46258 0.0
H1796 H 0.90111 0.42378 0.46987 0.0
H1797 H 0.82756 0.38299 0.4573 0.0
H1798 H 0.83404 0.34161 0.45031 0.0
H1799 H 0.81479 0.36058 0.4271 0.0
H1800 H 0.91668 0.41172 0.3528 0.0
H1801 H 0.92134 0.35071 0.35153 0.0
H1802 H 0.88407 0.32737 0.42823 0.0
C1803 C 0.87422 0.46224 0.43215 0.0
C1804 C 0.87776 0.49386 0.41751 0.0
C1805 C 0.88736 0.49541 0.39212 0.0
C1806 C 0.89459 0.46663 0.38164 0.0
C1807 C 0.89158 0.43617 0.39673 0.0
C1808 C 0.88085 0.43349 0.42136 0.0
C1809 C 0.87834 0.39738 0.43354 0.0
C1810 C 0.90827 0.40916 0.45477 0.0
C1811 C 0.83618 0.36896 0.44258 0.0
C1812 C 0.88945 0.38011 0.41203 0.0
C1813 C 0.89764 0.4031 0.39101 0.0
C1814 C 0.90981 0.39334 0.36911 0.0
C1815 C 0.9126 0.35875 0.36857 0.0
C1816 C 0.90259 0.33398 0.38966 0.0
C1817 C 0.8914 0.34533 0.41167 0.0
H1818 H 0.19256 0.6218 0.58541 0.0
H1819 H 0.17091 0.64169 0.66111 0.0
H1820 H 0.13779 0.56983 0.66938 0.0
H1821 H 0.09987 0.52319 0.57759 0.0
H1822 H 0.12525 0.50427 0.55934 0.0
H1823 H 0.14085 0.55611 0.55831 0.0
H1824 H 0.21101 0.57235 0.56988 0.0
H1825 H 0.19626 0.52092 0.57223 0.0
H1826 H 0.21923 0.55327 0.59816 0.0
H1827 H 0.11229 0.49634 0.67039 0.0
H1828 H 0.10058 0.42851 0.66474 0.0
H1829 H 0.14147 0.45715 0.58884 0.0
C1830 C 0.17965 0.61069 0.60344 0.0
C1831 C 0.18345 0.6369 0.62254 0.0
C1832 C 0.16759 0.62177 0.6462 0.0
C1833 C 0.14873 0.58108 0.65103 0.0
C1834 C 0.14606 0.55587 0.63198 0.0
C1835 C 0.16098 0.57009 0.6086 0.0
C1836 C 0.15774 0.5373 0.5921 0.0
C1837 C 0.12922 0.52978 0.57056 0.0
C1838 C 0.19846 0.54648 0.58254 0.0
C1839 C 0.14054 0.50299 0.61017 0.0
C1840 C 0.13294 0.51395 0.63286 0.0
C1841 C 0.11786 0.48736 0.65263 0.0
C1842 C 0.11119 0.44885 0.64925 0.0
C1843 C 0.12027 0.43755 0.62642 0.0
C1844 C 0.13435 0.46489 0.60657 0.0
H1845 H 0.37705 0.93733 0.90927 0.0
H1846 H 0.30271 0.82591 0.87201 0.0
H1847 H 0.35281 0.80675 0.87849 0.0
H1848 H 0.47092 0.95115 0.88502 0.0
H1849 H 0.49716 0.97205 0.91344 0.0
H1850 H 0.45604 0.9782 0.90502 0.0
H1851 H 0.42251 0.94763 0.9469 0.0
H1852 H 0.4633 0.94105 0.95541 0.0
H1853 H 0.41391 0.89938 0.95545 0.0
H1854 H 0.40809 0.79692 0.89118 0.0
H1855 H 0.46747 0.79864 0.90748 0.0
H1856 H 0.50915 0.91739 0.93497 0.0
C1857 C 0.3716 0.90918 0.90218 0.0
C1858 C 0.33573 0.88322 0.89014 0.0
C1859 C 0.32976 0.84647 0.88132 0.0
C1860 C 0.35811 0.83519 0.88489 0.0
C1861 C 0.39268 0.86098 0.8972 0.0
C1862 C 0.39986 0.89737 0.90552 0.0
C1863 C 0.43951 0.91905 0.91849 0.0
C1864 C 0.46757 0.95738 0.90466 0.0
C1865 C 0.43449 0.92725 0.94567 0.0
C1866 C 0.45301 0.88882 0.91643 0.0
C1867 C 0.42542 0.8556 0.90407 0.0
C1868 C 0.4303 0.82305 0.90054 0.0
C1869 C 0.46442 0.82446 0.90976 0.0
C1870 C 0.49364 0.85831 0.92231 0.0
C1871 C 0.48757 0.89092 0.9256 0.0
H1872 H 0.54854 0.7092 0.65125 0.0
H1873 H 0.59045 0.6718 0.58841 0.0
H1874 H 0.5224 0.61724 0.58073 0.0
H1875 H 0.47703 0.60736 0.67117 0.0
H1876 H 0.44214 0.6211 0.68219 0.0
H1877 H 0.49416 0.65634 0.683 0.0
H1878 H 0.48304 0.70614 0.65695 0.0
H1879 H 0.43106 0.67095 0.65741 0.0
H1880 H 0.45595 0.68947 0.6284 0.0
H1881 H 0.44837 0.57034 0.57799 0.0
H1882 H 0.37599 0.53181 0.58221 0.0
H1883 H 0.38348 0.5969 0.64891 0.0
C1884 C 0.54338 0.68933 0.63596 0.0
C1885 C 0.57462 0.69481 0.62026 0.0
C1886 C 0.56691 0.66798 0.60067 0.0
C1887 C 0.52836 0.63705 0.59614 0.0
C1888 C 0.49805 0.63282 0.61175 0.0
C1889 C 0.50532 0.65779 0.63158 0.0
C1890 C 0.46789 0.6462 0.64605 0.0
C1891 C 0.47047 0.63189 0.67215 0.0
C1892 C 0.45903 0.68026 0.64727 0.0
C1893 C 0.43793 0.61242 0.63035 0.0
C1894 C 0.45593 0.60483 0.61082 0.0
C1895 C 0.43409 0.57569 0.59344 0.0
C1896 C 0.39288 0.55379 0.59606 0.0
C1897 C 0.37366 0.56103 0.61593 0.0
C1898 C 0.39689 0.59072 0.63333 0.0
H1899 H 0.2195 0.63156 0.94173 0.0
H1900 H 0.18387 0.65861 0.87201 0.0
H1901 H 0.15107 0.58773 0.86042 0.0
H1902 H 0.24487 0.56704 0.9216 0.0
H1903 H 0.22526 0.53105 0.94618 0.0
H1904 H 0.2392 0.58157 0.95213 0.0
H1905 H 0.17069 0.56345 0.96801 0.0
H1906 H 0.15568 0.51204 0.96429 0.0
H1907 H 0.1277 0.5318 0.94991 0.0
H1908 H 0.12821 0.51343 0.85501 0.0
H1909 H 0.11849 0.4456 0.85656 0.0
H1910 H 0.16904 0.46909 0.9302 0.0
C1911 C 0.20391 0.62234 0.92429 0.0
C1912 C 0.20403 0.65045 0.90778 0.0
C1913 C 0.18368 0.63743 0.88502 0.0
C1914 C 0.16506 0.59723 0.87831 0.0
C1915 C 0.16636 0.5703 0.89479 0.0
C1916 C 0.18468 0.58241 0.91756 0.0
C1917 C 0.18388 0.54845 0.93156 0.0
C1918 C 0.22576 0.55751 0.93824 0.0
C1919 C 0.15794 0.53834 0.95482 0.0
C1920 C 0.1648 0.51593 0.91249 0.0
C1921 C 0.15381 0.52851 0.89162 0.0
C1922 C 0.13642 0.50333 0.87141 0.0
C1923 C 0.13088 0.46477 0.87243 0.0
C1924 C 0.14322 0.45198 0.89338 0.0
C1925 C 0.15952 0.47788 0.91377 0.0
H1926 H 0.31236 0.8559 0.58742 0.0
H1927 H 0.35492 0.92561 0.65425 0.0
H1928 H 0.41354 0.91669 0.65376 0.0
H1929 H 0.33773 0.78438 0.60141 0.0
H1930 H 0.35113 0.7808 0.57012 0.0
H1931 H 0.31581 0.79639 0.57589 0.0
H1932 H 0.36031 0.8599 0.54997 0.0
H1933 H 0.39597 0.84416 0.54553 0.0
H1934 H 0.41085 0.89162 0.55909 0.0
H1935 H 0.46365 0.8923 0.64799 0.0
H1936 H 0.49981 0.85732 0.63717 0.0
H1937 H 0.42365 0.80535 0.5737 0.0
C1938 C 0.33432 0.86982 0.60179 0.0
C1939 C 0.32903 0.89117 0.62102 0.0
C1940 C 0.35854 0.90925 0.63932 0.0
C1941 C 0.3918 0.9042 0.63918 0.0
C1942 C 0.3954 0.88169 0.62031 0.0
C1943 C 0.36756 0.86536 0.60175 0.0
C1944 C 0.37699 0.84136 0.58396 0.0
C1945 C 0.34336 0.7982 0.5828 0.0
C1946 C 0.38661 0.86041 0.55811 0.0
C1947 C 0.41325 0.84463 0.59612 0.0
C1948 C 0.42403 0.86852 0.61682 0.0
C1949 C 0.45563 0.87401 0.63162 0.0
C1950 C 0.47609 0.85409 0.62533 0.0
C1951 C 0.4645 0.82849 0.60464 0.0
C1952 C 0.43314 0.82454 0.58969 0.0
H1953 H 0.56992 0.7246 0.866 0.0
H1954 H 0.61643 0.67483 0.91891 0.0
H1955 H 0.54862 0.62 0.9271 0.0
H1956 H 0.48394 0.70369 0.89898 0.0
H1957 H 0.4533 0.69188 0.87188 0.0
H1958 H 0.50543 0.72586 0.86959 0.0
H1959 H 0.51145 0.68296 0.83527 0.0
H1960 H 0.45925 0.649 0.83726 0.0
H1961 H 0.4935 0.63134 0.84106 0.0
H1962 H 0.47433 0.57341 0.93151 0.0
H1963 H 0.40176 0.53662 0.92962 0.0
H1964 H 0.40556 0.61548 0.87156 0.0
C1965 C 0.56597 0.70205 0.87922 0.0
C1966 C 0.59842 0.70401 0.89191 0.0
C1967 C 0.59199 0.67378 0.90891 0.0
C1968 C 0.55357 0.64267 0.91373 0.0
C1969 C 0.52211 0.64208 0.90118 0.0
C1970 C 0.52809 0.67078 0.88402 0.0
C1971 C 0.48962 0.66377 0.87299 0.0
C1972 C 0.48268 0.69835 0.87871 0.0
C1973 C 0.48839 0.65631 0.84499 0.0
C1974 C 0.46077 0.62681 0.88682 0.0
C1975 C 0.47995 0.6148 0.90309 0.0
C1976 C 0.45913 0.58223 0.91852 0.0
C1977 C 0.41776 0.56131 0.91717 0.0
C1978 C 0.39739 0.57267 0.90029 0.0
C1979 C 0.41965 0.60596 0.88493 0.0
loop_
_geom_bond_atom_site_label_1
_geom_bond_atom_site_label_2
_geom_bond_distance
_geom_bond_site_symmetry_2
_ccdc_geom_bond_type
Eu0 N29 2.600 . S
Eu0 N35 2.562 . S
Eu0 O44 2.462 . S
Eu0 O45 2.373 . S
Eu0 O47 2.432 . S
Eu0 O48 2.291 . S
Eu0 O52 2.335 . S
Eu0 O55 2.372 . S
Eu0 C64 2.787 . S
C1 N2 1.365 . S
C1 C4 1.405 . S
C1 C8 1.448 . S
N2 C1 1.365 . S
N2 C5 1.319 . S
N2 Eu11 2.600 . S
C3 C5 1.397 . S
C3 C6 1.367 . S
C3 H23 0.931 1_554 S
C4 C1 1.405 . S
C4 C6 1.403 . S
C4 C10 1.439 . S
C5 N2 1.319 . S
C5 C3 1.397 . S
C5 H16 0.930 . S
C6 C3 1.367 . S
C6 C4 1.403 . S
C6 H27 0.929 . S
C7 C8 1.430 . S
C7 C9 1.387 . S
C7 C13 1.404 . S
C8 C1 1.448 . S
C8 C7 1.430 . S
C8 N12 1.351 . S
C9 C7 1.387 . S
C9 C10 1.374 . S
C9 H24 0.931 . S
C10 C4 1.439 . S
C10 C9 1.374 . S
C10 H25 0.931 . S
Eu11 N2 2.600 . S
Eu11 N12 2.562 . S
Eu11 O46 2.335 . S
Eu11 O49 2.372 . S
Eu11 O50 2.462 . S
Eu11 O51 2.373 . S
Eu11 O53 2.432 . S
Eu11 O54 2.291 . S
Eu11 C75 2.787 . S
N12 C8 1.351 . S
N12 Eu11 2.562 . S
N12 C14 1.325 . S
C13 C7 1.404 . S
C13 C15 1.366 . S
C13 H21 0.930 . S
C14 N12 1.325 . S
C14 C15 1.416 . S
C14 H20 0.929 . S
C15 C13 1.366 . S
C15 C14 1.416 . S
C15 H17 0.930 . S
H16 C5 0.930 . S
H17 C15 0.930 . S
H18 C33 0.930 . S
H19 C40 0.931 . S
H20 C14 0.929 . S
H21 C13 0.930 . S
H22 C36 0.929 . S
H23 C3 0.931 1_556 S
H24 C9 0.931 . S
H25 C10 0.931 . S
H26 C31 0.931 . S
H27 C6 0.929 . S
H28 C39 0.930 . S
N29 Eu0 2.600 . S
N29 C30 1.365 . S
N29 C33 1.319 . S
C30 N29 1.365 . S
C30 C32 1.405 . S
C30 C38 1.448 . S
C31 H26 0.931 . S
C31 C33 1.397 . S
C31 C34 1.367 . S
C32 C30 1.405 . S
C32 C34 1.403 . S
C32 C65 1.439 . S
C33 H18 0.930 . S
C33 N29 1.319 . S
C33 C31 1.397 . S
C34 C31 1.367 . S
C34 C32 1.403 . S
C34 H41 0.929 . S
N35 Eu0 2.562 . S
N35 C36 1.325 . S
N35 C38 1.351 . S
C36 H22 0.929 . S
C36 N35 1.325 . S
C36 C40 1.416 . S
C37 C38 1.430 . S
C37 C39 1.404 1_545 S
C37 C66 1.387 1_545 S
C38 C30 1.448 . S
C38 N35 1.351 . S
C38 C37 1.430 . S
C39 H28 0.930 . S
C39 C37 1.404 1_565 S
C39 C40 1.366 1_565 S
C40 H19 0.931 . S
C40 C36 1.416 . S
C40 C39 1.366 1_545 S
H41 C34 0.929 . S
H42 C65 0.931 1_565 S
H43 C66 0.931 . S
O44 Eu0 2.462 . S
O44 C64 1.252 . S
O45 Eu0 2.373 . S
O45 C56 1.249 . S
O46 Eu11 2.335 . S
O46 C56 1.264 . S
O47 Eu0 2.432 . S
O47 C64 1.268 . S
O48 Eu0 2.291 . S
O48 C63 1.255 . S
O49 Eu11 2.372 . S
O49 C63 1.257 . S
O50 Eu11 2.462 . S
O50 C75 1.252 . S
O51 Eu11 2.373 . S
O51 C67 1.249 . S
O52 Eu0 2.335 . S
O52 C67 1.264 . S
O53 Eu11 2.432 . S
O53 C75 1.268 . S
O54 Eu11 2.291 . S
O54 C74 1.255 . S
O55 Eu0 2.372 . S
O55 C74 1.257 . S
C56 O45 1.249 . S
C56 O46 1.264 . S
C57 C60 1.382 . S
C57 C62 1.390 . S
C57 C64 1.506 1_565 S
C58 C59 1.398 . S
C58 C62 1.392 . S
C59 C58 1.398 . S
C59 C61 1.372 . S
C59 H76 0.931 . S
C60 C57 1.382 . S
C60 C61 1.390 . S
C60 H77 0.931 . S
C61 C59 1.372 . S
C61 C60 1.390 . S
C61 H78 0.929 . S
C62 C57 1.390 . S
C62 C58 1.392 . S
C62 H79 0.930 . S
C63 O48 1.255 . S
C63 O49 1.257 . S
C64 Eu0 2.787 . S
C64 O44 1.252 . S
C64 O47 1.268 . S
C64 C57 1.506 1_545 S
C65 C32 1.439 . S
C65 H42 0.931 1_545 S
C65 C66 1.374 1_545 S
C66 C37 1.387 1_565 S
C66 H43 0.931 . S
C66 C65 1.374 1_565 S
C67 O51 1.249 . S
C67 O52 1.264 . S
C68 C71 1.382 . S
C68 C72 1.390 . S
C68 C75 1.506 . S
C69 C70 1.398 . S
C69 C72 1.392 . S
C70 C69 1.398 . S
C70 C73 1.372 . S
C70 H80 0.931 . S
C71 C68 1.382 . S
C71 C73 1.390 . S
C71 H81 0.931 . S
C72 C68 1.390 . S
C72 C69 1.392 . S
C72 H82 0.930 . S
C73 C70 1.372 . S
C73 C71 1.390 . S
C73 H83 0.929 . S
C74 O54 1.255 . S
C74 O55 1.257 . S
C75 Eu11 2.787 . S
C75 O50 1.252 . S
C75 O53 1.268 . S
C75 C68 1.506 . S
H76 C59 0.931 . S
H77 C60 0.931 . S
H78 C61 0.929 . S
H79 C62 0.930 . S
H80 C70 0.931 . S
H81 C71 0.931 . S
H82 C72 0.930 . S
H83 C73 0.929 . S
Eu84 N113 2.600 . S
Eu84 N119 2.562 . S
Eu84 O128 2.462 . S
Eu84 O129 2.373 . S
Eu84 O131 2.432 . S
Eu84 O132 2.291 . S
Eu84 O136 2.335 . S
Eu84 O139 2.372 . S
Eu84 C148 2.787 . S
C85 N86 1.365 . S
C85 C88 1.405 . S
C85 C92 1.448 . S
N86 C85 1.365 . S
N86 C89 1.319 . S
N86 Eu95 2.600 . S
C87 C89 1.397 . S
C87 C90 1.367 . S
C87 H107 0.931 . S
C88 C85 1.405 . S
C88 C90 1.403 . S
C88 C94 1.439 . S
C89 N86 1.319 . S
C89 C87 1.397 . S
C89 H100 0.930 . S
C90 C87 1.367 . S
C90 C88 1.403 . S
C90 H111 0.929 . S
C91 C92 1.430 . S
C91 C93 1.387 . S
C91 C97 1.404 . S
C92 C85 1.448 . S
C92 C91 1.430 . S
C92 N96 1.351 . S
C93 C91 1.387 . S
C93 C94 1.374 . S
C93 H108 0.931 . S
C94 C88 1.439 . S
C94 C93 1.374 . S
C94 H109 0.931 . S
Eu95 N86 2.600 . S
Eu95 N96 2.562 . S
Eu95 O130 2.335 . S
Eu95 O133 2.372 . S
Eu95 O134 2.462 . S
Eu95 O135 2.373 . S
Eu95 O137 2.432 . S
Eu95 O138 2.291 . S
Eu95 C159 2.787 . S
N96 C92 1.351 . S
N96 Eu95 2.562 . S
N96 C98 1.325 . S
C97 C91 1.404 . S
C97 C99 1.366 . S
C97 H105 0.930 . S
C98 N96 1.325 . S
C98 C99 1.416 . S
C98 H104 0.929 . S
C99 C97 1.366 . S
C99 C98 1.416 . S
C99 H101 0.930 . S
H100 C89 0.930 . S
H101 C99 0.930 . S
H102 C117 0.930 . S
H103 C124 0.930 . S
H104 C98 0.929 . S
H105 C97 0.930 . S
H106 C120 0.929 . S
H107 C87 0.931 . S
H108 C93 0.931 . S
H109 C94 0.931 . S
H110 C115 0.931 . S
H111 C90 0.929 . S
H112 C123 0.930 1_455 S
N113 Eu84 2.600 . S
N113 C114 1.365 . S
N113 C117 1.319 . S
C114 N113 1.365 . S
C114 C116 1.405 . S
C114 C122 1.448 . S
C115 H110 0.931 . S
C115 C117 1.397 . S
C115 C118 1.367 . S
C116 C114 1.405 . S
C116 C118 1.403 . S
C116 C149 1.413 1_655 S
C117 H102 0.930 . S
C117 N113 1.319 . S
C117 C115 1.397 . S
C118 C115 1.367 . S
C118 C116 1.403 . S
C118 H125 0.929 . S
N119 Eu84 2.562 . S
N119 C120 1.325 . S
N119 C122 1.351 . S
C120 H106 0.929 . S
C120 N119 1.325 . S
C120 C124 1.416 . S
C121 C122 1.430 . S
C121 C123 1.404 . S
C121 C150 1.387 1_655 S
C122 C114 1.448 . S
C122 N119 1.351 . S
C122 C121 1.430 . S
C123 H112 0.930 1_655 S
C123 C121 1.404 . S
C123 C124 1.366 . S
C124 H103 0.930 . S
C124 C120 1.416 . S
C124 C123 1.366 . S
H125 C118 0.929 . S
H126 C149 0.948 . S
H127 C150 0.931 . S
O128 Eu84 2.462 . S
O128 C148 1.252 . S
O129 Eu84 2.373 . S
O129 C140 1.249 . S
O130 Eu95 2.335 . S
O130 C140 1.264 . S
O131 Eu84 2.432 . S
O131 C148 1.268 . S
O132 Eu84 2.291 . S
O132 C147 1.255 . S
O133 Eu95 2.372 . S
O133 C147 1.257 . S
O134 Eu95 2.462 . S
O134 C159 1.252 . S
O135 Eu95 2.373 . S
O135 C151 1.249 . S
O136 Eu84 2.335 . S
O136 C151 1.264 . S
O137 Eu95 2.432 . S
O137 C159 1.268 . S
O138 Eu95 2.291 . S
O138 C158 1.255 . S
O139 Eu84 2.372 . S
O139 C158 1.257 . S
C140 O129 1.249 . S
C140 O130 1.264 . S
C141 C144 1.382 . S
C141 C146 1.390 . S
C141 C148 1.506 . S
C142 C143 1.398 . S
C142 C146 1.392 . S
C143 C142 1.398 . S
C143 C145 1.372 . S
C143 H160 0.931 . S
C144 C141 1.382 . S
C144 C145 1.390 . S
C144 H161 0.931 . S
C145 C143 1.372 . S
C145 C144 1.390 . S
C145 H162 0.929 . S
C146 C141 1.390 . S
C146 C142 1.392 . S
C146 H163 0.930 . S
C147 O132 1.255 . S
C147 O133 1.257 . S
C148 Eu84 2.787 . S
C148 O128 1.252 . S
C148 O131 1.268 . S
C148 C141 1.506 . S
C149 C116 1.413 1_455 S
C149 H126 0.948 . S
C149 C150 1.385 . S
C150 C121 1.387 1_455 S
C150 H127 0.931 . S
C150 C149 1.385 . S
C151 O135 1.249 . S
C151 O136 1.264 . S
C152 C155 1.382 . S
C152 C156 1.390 . S
C152 C159 1.506 . S
C153 C154 1.398 . S
C153 C156 1.392 . S
C154 C153 1.398 . S
C154 C157 1.372 . S
C154 H164 0.931 . S
C155 C152 1.382 . S
C155 C157 1.390 . S
C155 H165 0.931 . S
C156 C152 1.390 . S
C156 C153 1.392 . S
C156 H166 0.930 . S
C157 C154 1.372 . S
C157 C155 1.390 . S
C157 H167 0.929 . S
C158 O138 1.255 . S
C158 O139 1.257 . S
C159 Eu95 2.787 . S
C159 O134 1.252 . S
C159 O137 1.268 . S
C159 C152 1.506 . S
H160 C143 0.931 . S
H161 C144 0.931 . S
H162 C145 0.929 . S
H163 C146 0.930 . S
H164 C154 0.931 . S
H165 C155 0.931 . S
H166 C156 0.930 . S
H167 C157 0.929 . S
Eu168 N197 2.600 . S
Eu168 N203 2.562 . S
Eu168 O212 2.462 . S
Eu168 O213 2.373 . S
Eu168 O215 2.432 . S
Eu168 O216 2.291 . S
Eu168 O220 2.335 . S
Eu168 O223 2.372 . S
Eu168 C232 2.787 . S
C169 N170 1.365 . S
C169 C172 1.405 . S
C169 C176 1.448 . S
N170 C169 1.365 . S
N170 C173 1.319 . S
N170 Eu179 2.600 . S
C171 C173 1.397 . S
C171 C174 1.367 . S
C171 H191 0.931 1_554 S
C172 C169 1.405 . S
C172 C174 1.403 . S
C172 C178 1.418 1_545 S
C173 N170 1.319 . S
C173 C171 1.397 . S
C173 H184 0.930 . S
C174 C171 1.367 . S
C174 C172 1.403 . S
C174 H195 0.929 . S
C175 C176 1.430 . S
C175 C177 1.387 1_545 S
C175 C181 1.404 . S
C176 C169 1.448 . S
C176 C175 1.430 . S
C176 N180 1.351 . S
C177 C175 1.387 1_565 S
C177 C178 1.379 . S
C177 H192 0.931 . S
C178 C172 1.418 1_565 S
C178 C177 1.379 . S
C178 H193 0.949 . S
Eu179 N170 2.600 . S
Eu179 N180 2.562 . S
Eu179 O214 2.335 . S
Eu179 O217 2.372 . S
Eu179 O218 2.462 . S
Eu179 O219 2.373 . S
Eu179 O221 2.432 . S
Eu179 O222 2.291 . S
Eu179 C243 2.787 . S
N180 C176 1.351 . S
N180 Eu179 2.562 . S
N180 C182 1.325 . S
C181 C175 1.404 . S
C181 C183 1.366 . S
C181 H189 0.930 1_545 S
C182 N180 1.325 . S
C182 C183 1.416 . S
C182 H188 0.929 . S
C183 C181 1.366 . S
C183 C182 1.416 . S
C183 H185 0.930 . S
H184 C173 0.930 . S
H185 C183 0.930 . S
H186 C201 0.930 . S
H187 C208 0.930 . S
H188 C182 0.929 . S
H189 C181 0.930 1_565 S
H190 C204 0.929 . S
H191 C171 0.931 1_556 S
H192 C177 0.931 . S
H193 C178 0.949 . S
H194 C199 0.931 . S
H195 C174 0.929 . S
H196 C207 0.930 . S
N197 Eu168 2.600 . S
N197 C198 1.365 . S
N197 C201 1.319 . S
C198 N197 1.365 . S
C198 C200 1.405 . S
C198 C206 1.448 . S
C199 H194 0.931 . S
C199 C201 1.397 . S
C199 C202 1.367 . S
C200 C198 1.405 . S
C200 C202 1.403 . S
C200 C233 1.439 . S
C201 H186 0.930 . S
C201 N197 1.319 . S
C201 C199 1.397 . S
C202 C199 1.367 . S
C202 C200 1.403 . S
C202 H209 0.929 . S
N203 Eu168 2.562 . S
N203 C204 1.325 . S
N203 C206 1.351 . S
C204 H190 0.929 . S
C204 N203 1.325 . S
C204 C208 1.416 . S
C205 C206 1.430 . S
C205 C207 1.404 1_655 S
C205 C234 1.387 1_655 S
C206 C198 1.448 . S
C206 N203 1.351 . S
C206 C205 1.430 . S
C207 H196 0.930 . S
C207 C205 1.404 1_455 S
C207 C208 1.366 1_455 S
C208 H187 0.930 . S
C208 C204 1.416 . S
C208 C207 1.366 1_655 S
H209 C202 0.929 . S
H210 C233 0.931 1_455 S
H211 C234 0.931 . S
O212 Eu168 2.462 . S
O212 C232 1.252 . S
O213 Eu168 2.373 . S
O213 C224 1.249 . S
O214 Eu179 2.335 . S
O214 C224 1.264 . S
O215 Eu168 2.432 . S
O215 C232 1.268 . S
O216 Eu168 2.291 . S
O216 C231 1.255 . S
O217 Eu179 2.372 . S
O217 C231 1.257 . S
O218 Eu179 2.462 . S
O218 C243 1.252 . S
O219 Eu179 2.373 . S
O219 C235 1.249 . S
O220 Eu168 2.335 . S
O220 C235 1.264 . S
O221 Eu179 2.432 . S
O221 C243 1.268 . S
O222 Eu179 2.291 . S
O222 C242 1.255 . S
O223 Eu168 2.372 . S
O223 C242 1.257 . S
C224 O213 1.249 . S
C224 O214 1.264 . S
C225 C228 1.382 . S
C225 C230 1.390 . S
C225 C232 1.506 1_455 S
C226 C227 1.398 . S
C226 C230 1.392 . S
C227 C226 1.398 . S
C227 C229 1.372 . S
C227 H244 0.931 . S
C228 C225 1.382 . S
C228 C229 1.390 . S
C228 H245 0.931 . S
C229 C227 1.372 . S
C229 C228 1.390 . S
C229 H246 0.929 . S
C230 C225 1.390 . S
C230 C226 1.392 . S
C230 H247 0.930 . S
C231 O216 1.255 . S
C231 O217 1.257 . S
C232 Eu168 2.787 . S
C232 O212 1.252 . S
C232 O215 1.268 . S
C232 C225 1.506 1_655 S
C233 C200 1.439 . S
C233 H210 0.931 1_655 S
C233 C234 1.374 1_655 S
C234 C205 1.387 1_455 S
C234 H211 0.931 . S
C234 C233 1.374 1_455 S
C235 O219 1.249 . S
C235 O220 1.264 . S
C236 C239 1.382 . S
C236 C240 1.390 . S
C236 C243 1.506 . S
C237 C238 1.398 . S
C237 C240 1.392 . S
C238 C237 1.398 . S
C238 C241 1.372 . S
C238 H248 0.931 . S
C239 C236 1.382 . S
C239 C241 1.390 . S
C239 H249 0.931 . S
C240 C236 1.390 . S
C240 C237 1.392 . S
C240 H250 0.930 . S
C241 C238 1.372 . S
C241 C239 1.390 . S
C241 H251 0.929 . S
C242 O222 1.255 . S
C242 O223 1.257 . S
C243 Eu179 2.787 . S
C243 O218 1.252 . S
C243 O221 1.268 . S
C243 C236 1.506 . S
H244 C227 0.931 . S
H245 C228 0.931 . S
H246 C229 0.929 . S
H247 C230 0.930 . S
H248 C238 0.931 . S
H249 C239 0.931 . S
H250 C240 0.930 . S
H251 C241 0.929 . S
Eu252 N281 2.600 . S
Eu252 N287 2.562 . S
Eu252 O296 2.462 . S
Eu252 O297 2.373 . S
Eu252 O299 2.432 . S
Eu252 O300 2.291 . S
Eu252 O304 2.335 . S
Eu252 O307 2.372 . S
Eu252 C316 2.787 . S
C253 N254 1.365 . S
C253 C256 1.405 . S
C253 C260 1.448 . S
N254 C253 1.365 . S
N254 C257 1.319 . S
N254 Eu263 2.600 . S
C255 C257 1.397 . S
C255 C258 1.367 . S
C255 H275 0.931 . S
C256 C253 1.405 . S
C256 C258 1.403 . S
C256 C262 1.439 . S
C257 N254 1.319 . S
C257 C255 1.397 . S
C257 H268 0.930 . S
C258 C255 1.367 . S
C258 C256 1.403 . S
C258 H279 0.929 . S
C259 C260 1.430 . S
C259 C261 1.387 1_545 S
C259 C265 1.404 1_545 S
C260 C253 1.448 . S
C260 C259 1.430 . S
C260 N264 1.351 . S
C261 C259 1.387 1_565 S
C261 C262 1.374 1_565 S
C261 H276 0.931 . S
C262 C256 1.439 . S
C262 C261 1.374 1_545 S
C262 H277 0.931 1_545 S
Eu263 N254 2.600 . S
Eu263 N264 2.562 . S
Eu263 O298 2.335 . S
Eu263 O301 2.372 . S
Eu263 O302 2.462 . S
Eu263 O303 2.373 . S
Eu263 O305 2.432 . S
Eu263 O306 2.291 . S
Eu263 C327 2.787 . S
N264 C260 1.351 . S
N264 Eu263 2.562 . S
N264 C266 1.325 . S
C265 C259 1.404 1_565 S
C265 C267 1.366 1_565 S
C265 H273 0.930 . S
C266 N264 1.325 . S
C266 C267 1.416 . S
C266 H272 0.929 . S
C267 C265 1.366 1_545 S
C267 C266 1.416 . S
C267 H269 0.931 . S
H268 C257 0.930 . S
H269 C267 0.931 . S
H270 C285 0.930 . S
H271 C292 0.930 . S
H272 C266 0.929 . S
H273 C265 0.930 . S
H274 C288 0.929 . S
H275 C255 0.931 . S
H276 C261 0.931 . S
H277 C262 0.931 1_565 S
H278 C283 0.931 . S
H279 C258 0.929 . S
H280 C291 0.930 . S
N281 Eu252 2.600 . S
N281 C282 1.365 . S
N281 C285 1.319 . S
C282 N281 1.365 . S
C282 C284 1.405 . S
C282 C290 1.448 . S
C283 H278 0.931 . S
C283 C285 1.397 . S
C283 C286 1.367 . S
C284 C282 1.405 . S
C284 C286 1.403 . S
C284 C317 1.439 . S
C285 H270 0.930 . S
C285 N281 1.319 . S
C285 C283 1.397 . S
C286 C283 1.367 . S
C286 C284 1.403 . S
C286 H293 0.929 . S
N287 Eu252 2.562 . S
N287 C288 1.325 . S
N287 C290 1.351 . S
C288 H274 0.929 . S
C288 N287 1.325 . S
C288 C292 1.416 . S
C289 C290 1.430 . S
C289 C291 1.404 . S
C289 C318 1.387 . S
C290 C282 1.448 . S
C290 N287 1.351 . S
C290 C289 1.430 . S
C291 H280 0.930 . S
C291 C289 1.404 . S
C291 C292 1.366 . S
C292 H271 0.930 . S
C292 C288 1.416 . S
C292 C291 1.366 . S
H293 C286 0.929 . S
H294 C317 0.931 . S
H295 C318 0.931 . S
O296 Eu252 2.462 . S
O296 C316 1.252 . S
O297 Eu252 2.373 . S
O297 C308 1.249 . S
O298 Eu263 2.335 . S
O298 C308 1.264 . S
O299 Eu252 2.432 . S
O299 C316 1.268 . S
O300 Eu252 2.291 . S
O300 C315 1.255 . S
O301 Eu263 2.372 . S
O301 C315 1.257 . S
O302 Eu263 2.462 . S
O302 C327 1.252 . S
O303 Eu263 2.373 . S
O303 C319 1.249 . S
O304 Eu252 2.335 . S
O304 C319 1.264 . S
O305 Eu263 2.432 . S
O305 C327 1.268 . S
O306 Eu263 2.291 . S
O306 C326 1.255 . S
O307 Eu252 2.372 . S
O307 C326 1.257 . S
C308 O297 1.249 . S
C308 O298 1.264 . S
C309 C312 1.382 . S
C309 C314 1.390 . S
C309 C316 1.506 . S
C310 C311 1.398 . S
C310 C314 1.392 . S
C311 C310 1.398 . S
C311 C313 1.372 . S
C311 H328 0.931 . S
C312 C309 1.382 . S
C312 C313 1.390 . S
C312 H329 0.931 . S
C313 C311 1.372 . S
C313 C312 1.390 . S
C313 H330 0.929 . S
C314 C309 1.390 . S
C314 C310 1.392 . S
C314 H331 0.930 . S
C315 O300 1.255 . S
C315 O301 1.257 . S
C316 Eu252 2.787 . S
C316 O296 1.252 . S
C316 O299 1.268 . S
C316 C309 1.506 . S
C317 C284 1.439 . S
C317 H294 0.931 . S
C317 C318 1.374 . S
C318 C289 1.387 . S
C318 H295 0.931 . S
C318 C317 1.374 . S
C319 O303 1.249 . S
C319 O304 1.264 . S
C320 C323 1.382 . S
C320 C324 1.390 . S
C320 C327 1.506 1_565 S
C321 C322 1.398 . S
C321 C324 1.392 . S
C322 C321 1.398 . S
C322 C325 1.372 . S
C322 H332 0.931 . S
C323 C320 1.382 . S
C323 C325 1.390 . S
C323 H333 0.931 . S
C324 C320 1.390 . S
C324 C321 1.392 . S
C324 H334 0.930 . S
C325 C322 1.372 . S
C325 C323 1.390 . S
C325 H335 0.929 . S
C326 O306 1.255 . S
C326 O307 1.257 . S
C327 Eu263 2.787 . S
C327 O302 1.252 . S
C327 O305 1.268 . S
C327 C320 1.506 1_545 S
H328 C311 0.931 . S
H329 C312 0.931 . S
H330 C313 0.929 . S
H331 C314 0.930 . S
H332 C322 0.931 . S
H333 C323 0.931 . S
H334 C324 0.930 . S
H335 C325 0.929 . S
Eu336 N365 2.600 . S
Eu336 N371 2.562 . S
Eu336 O380 2.462 . S
Eu336 O381 2.373 . S
Eu336 O383 2.432 . S
Eu336 O384 2.291 . S
Eu336 O388 2.335 . S
Eu336 O391 2.372 . S
Eu336 C400 2.787 . S
C337 N338 1.365 . S
C337 C340 1.405 . S
C337 C344 1.448 . S
N338 C337 1.365 . S
N338 C341 1.319 . S
N338 Eu347 2.600 . S
C339 C341 1.397 . S
C339 C342 1.367 . S
C339 H359 0.931 1_554 S
C340 C337 1.405 . S
C340 C342 1.403 . S
C340 C346 1.413 1_655 S
C341 N338 1.319 . S
C341 C339 1.397 . S
C341 H352 0.930 . S
C342 C339 1.367 . S
C342 C340 1.403 . S
C342 H363 0.929 . S
C343 C344 1.430 . S
C343 C345 1.387 1_655 S
C343 C349 1.404 . S
C344 C337 1.448 . S
C344 C343 1.430 . S
C344 N348 1.351 . S
C345 C343 1.387 1_455 S
C345 C346 1.385 . S
C345 H360 0.931 . S
C346 C340 1.413 1_455 S
C346 C345 1.385 . S
C346 H361 0.948 . S
Eu347 N338 2.600 . S
Eu347 N348 2.562 . S
Eu347 O382 2.335 . S
Eu347 O385 2.372 . S
Eu347 O386 2.462 . S
Eu347 O387 2.373 . S
Eu347 O389 2.432 . S
Eu347 O390 2.291 . S
Eu347 C411 2.787 . S
N348 C344 1.351 . S
N348 Eu347 2.562 . S
N348 C350 1.325 . S
C349 C343 1.404 . S
C349 C351 1.366 . S
C349 H357 0.930 1_655 S
C350 N348 1.325 . S
C350 C351 1.416 . S
C350 H356 0.929 . S
C351 C349 1.366 . S
C351 C350 1.416 . S
C351 H353 0.930 . S
H352 C341 0.930 . S
H353 C351 0.930 . S
H354 C369 0.930 . S
H355 C376 0.930 . S
H356 C350 0.929 . S
H357 C349 0.930 1_455 S
H358 C372 0.929 . S
H359 C339 0.931 1_556 S
H360 C345 0.931 . S
H361 C346 0.948 . S
H362 C367 0.931 . S
H363 C342 0.929 . S
H364 C375 0.930 . S
N365 Eu336 2.600 . S
N365 C366 1.365 . S
N365 C369 1.319 . S
C366 N365 1.365 . S
C366 C368 1.405 . S
C366 C374 1.448 . S
C367 H362 0.931 . S
C367 C369 1.397 . S
C367 C370 1.367 . S
C368 C366 1.405 . S
C368 C370 1.403 . S
C368 C401 1.439 . S
C369 H354 0.930 . S
C369 N365 1.319 . S
C369 C367 1.397 . S
C370 C367 1.367 . S
C370 C368 1.403 . S
C370 H377 0.929 . S
N371 Eu336 2.562 . S
N371 C372 1.325 . S
N371 C374 1.351 . S
C372 H358 0.929 . S
C372 N371 1.325 . S
C372 C376 1.416 . S
C373 C374 1.430 . S
C373 C375 1.404 . S
C373 C402 1.387 . S
C374 C366 1.448 . S
C374 N371 1.351 . S
C374 C373 1.430 . S
C375 H364 0.930 . S
C375 C373 1.404 . S
C375 C376 1.366 . S
C376 H355 0.930 . S
C376 C372 1.416 . S
C376 C375 1.366 . S
H377 C370 0.929 . S
H378 C401 0.931 . S
H379 C402 0.931 . S
O380 Eu336 2.462 . S
O380 C400 1.252 . S
O381 Eu336 2.373 . S
O381 C392 1.249 . S
O382 Eu347 2.335 . S
O382 C392 1.264 . S
O383 Eu336 2.432 . S
O383 C400 1.268 . S
O384 Eu336 2.291 . S
O384 C399 1.255 . S
O385 Eu347 2.372 . S
O385 C399 1.257 . S
O386 Eu347 2.462 . S
O386 C411 1.252 . S
O387 Eu347 2.373 . S
O387 C403 1.249 . S
O388 Eu336 2.335 . S
O388 C403 1.264 . S
O389 Eu347 2.432 . S
O389 C411 1.268 . S
O390 Eu347 2.291 . S
O390 C410 1.255 . S
O391 Eu336 2.372 . S
O391 C410 1.257 . S
C392 O381 1.249 . S
C392 O382 1.264 . S
C393 C396 1.382 . S
C393 C398 1.390 . S
C393 C400 1.506 . S
C394 C395 1.398 . S
C394 C398 1.392 . S
C395 C394 1.398 . S
C395 C397 1.372 . S
C395 H412 0.931 . S
C396 C393 1.382 . S
C396 C397 1.390 . S
C396 H413 0.931 . S
C397 C395 1.372 . S
C397 C396 1.390 . S
C397 H414 0.929 . S
C398 C393 1.390 . S
C398 C394 1.392 . S
C398 H415 0.930 . S
C399 O384 1.255 . S
C399 O385 1.257 . S
C400 Eu336 2.787 . S
C400 O380 1.252 . S
C400 O383 1.268 . S
C400 C393 1.506 . S
C401 C368 1.439 . S
C401 H378 0.931 . S
C401 C402 1.374 . S
C402 C373 1.387 . S
C402 H379 0.931 . S
C402 C401 1.374 . S
C403 O387 1.249 . S
C403 O388 1.264 . S
C404 C407 1.382 . S
C404 C408 1.390 . S
C404 C411 1.506 . S
C405 C406 1.398 . S
C405 C408 1.392 . S
C406 C405 1.398 . S
C406 C409 1.372 . S
C406 H416 0.931 . S
C407 C404 1.382 . S
C407 C409 1.390 . S
C407 H417 0.931 . S
C408 C404 1.390 . S
C408 C405 1.392 . S
C408 H418 0.930 . S
C409 C406 1.372 . S
C409 C407 1.390 . S
C409 H419 0.929 . S
C410 O390 1.255 . S
C410 O391 1.257 . S
C411 Eu347 2.787 . S
C411 O386 1.252 . S
C411 O389 1.268 . S
C411 C404 1.506 . S
H412 C395 0.931 . S
H413 C396 0.931 . S
H414 C397 0.929 . S
H415 C398 0.930 . S
H416 C406 0.931 . S
H417 C407 0.931 . S
H418 C408 0.930 . S
H419 C409 0.929 . S
Eu420 N449 2.600 . S
Eu420 N455 2.562 . S
Eu420 O464 2.462 . S
Eu420 O465 2.373 . S
Eu420 O467 2.432 . S
Eu420 O468 2.291 . S
Eu420 O472 2.335 . S
Eu420 O475 2.372 . S
Eu420 C484 2.787 . S
C421 N422 1.365 . S
C421 C424 1.405 . S
C421 C428 1.448 . S
N422 C421 1.365 . S
N422 C425 1.319 . S
N422 Eu431 2.600 . S
C423 C425 1.397 . S
C423 C426 1.367 . S
C423 H443 0.931 . S
C424 C421 1.405 . S
C424 C426 1.403 . S
C424 C430 1.439 . S
C425 N422 1.319 . S
C425 C423 1.397 . S
C425 H436 0.930 . S
C426 C423 1.367 . S
C426 C424 1.403 . S
C426 H447 0.929 . S
C427 C428 1.430 . S
C427 C429 1.387 1_655 S
C427 C433 1.404 1_655 S
C428 C421 1.448 . S
C428 C427 1.430 . S
C428 N432 1.351 . S
C429 C427 1.387 1_455 S
C429 C430 1.374 1_455 S
C429 H444 0.931 . S
C430 C424 1.439 . S
C430 C429 1.374 1_655 S
C430 H445 0.931 1_655 S
Eu431 N422 2.600 . S
Eu431 N432 2.562 . S
Eu431 O466 2.335 . S
Eu431 O469 2.372 . S
Eu431 O470 2.462 . S
Eu431 O471 2.373 . S
Eu431 O473 2.432 . S
Eu431 O474 2.291 . S
Eu431 C495 2.787 . S
N432 C428 1.351 . S
N432 Eu431 2.562 . S
N432 C434 1.325 . S
C433 C427 1.404 1_455 S
C433 C435 1.366 1_455 S
C433 H441 0.930 . S
C434 N432 1.325 . S
C434 C435 1.416 . S
C434 H440 0.929 . S
C435 C433 1.366 1_655 S
C435 C434 1.416 . S
C435 H437 0.930 . S
H436 C425 0.930 . S
H437 C435 0.930 . S
H438 C453 0.930 . S
H439 C460 0.930 . S
H440 C434 0.929 . S
H441 C433 0.930 . S
H442 C456 0.929 . S
H443 C423 0.931 . S
H444 C429 0.931 . S
H445 C430 0.931 1_455 S
H446 C451 0.931 . S
H447 C426 0.929 . S
H448 C459 0.930 1_565 S
N449 Eu420 2.600 . S
N449 C450 1.365 . S
N449 C453 1.319 . S
C450 N449 1.365 . S
C450 C452 1.405 . S
C450 C458 1.448 . S
C451 H446 0.931 . S
C451 C453 1.397 . S
C451 C454 1.367 . S
C452 C450 1.405 . S
C452 C454 1.403 . S
C452 C485 1.418 1_545 S
C453 H438 0.930 . S
C453 N449 1.319 . S
C453 C451 1.397 . S
C454 C451 1.367 . S
C454 C452 1.403 . S
C454 H461 0.929 . S
N455 Eu420 2.562 . S
N455 C456 1.325 . S
N455 C458 1.351 . S
C456 H442 0.929 . S
C456 N455 1.325 . S
C456 C460 1.416 . S
C457 C458 1.430 . S
C457 C459 1.404 . S
C457 C486 1.387 1_545 S
C458 C450 1.448 . S
C458 N455 1.351 . S
C458 C457 1.430 . S
C459 H448 0.930 1_545 S
C459 C457 1.404 . S
C459 C460 1.366 . S
C460 H439 0.930 . S
C460 C456 1.416 . S
C460 C459 1.366 . S
H461 C454 0.929 . S
H462 C485 0.949 . S
H463 C486 0.931 . S
O464 Eu420 2.462 . S
O464 C484 1.252 . S
O465 Eu420 2.373 . S
O465 C476 1.249 . S
O466 Eu431 2.335 . S
O466 C476 1.264 . S
O467 Eu420 2.432 . S
O467 C484 1.268 . S
O468 Eu420 2.291 . S
O468 C483 1.255 . S
O469 Eu431 2.372 . S
O469 C483 1.257 . S
O470 Eu431 2.462 . S
O470 C495 1.252 . S
O471 Eu431 2.373 . S
O471 C487 1.249 . S
O472 Eu420 2.335 . S
O472 C487 1.264 . S
O473 Eu431 2.432 . S
O473 C495 1.268 . S
O474 Eu431 2.291 . S
O474 C494 1.255 . S
O475 Eu420 2.372 . S
O475 C494 1.257 . S
C476 O465 1.249 . S
C476 O466 1.264 . S
C477 C480 1.382 . S
C477 C482 1.390 . S
C477 C484 1.506 . S
C478 C479 1.398 . S
C478 C482 1.392 . S
C479 C478 1.398 . S
C479 C481 1.372 . S
C479 H496 0.931 . S
C480 C477 1.382 . S
C480 C481 1.390 . S
C480 H497 0.931 . S
C481 C479 1.372 . S
C481 C480 1.390 . S
C481 H498 0.929 . S
C482 C477 1.390 . S
C482 C478 1.392 . S
C482 H499 0.930 . S
C483 O468 1.255 . S
C483 O469 1.257 . S
C484 Eu420 2.787 . S
C484 O464 1.252 . S
C484 O467 1.268 . S
C484 C477 1.506 . S
C485 C452 1.418 1_565 S
C485 H462 0.949 . S
C485 C486 1.379 . S
C486 C457 1.387 1_565 S
C486 H463 0.931 . S
C486 C485 1.379 . S
C487 O471 1.249 . S
C487 O472 1.264 . S
C488 C491 1.382 . S
C488 C492 1.390 . S
C488 C495 1.506 1_455 S
C489 C490 1.398 . S
C489 C492 1.392 . S
C490 C489 1.398 . S
C490 C493 1.372 . S
C490 H500 0.931 . S
C491 C488 1.382 . S
C491 C493 1.390 . S
C491 H501 0.931 . S
C492 C488 1.390 . S
C492 C489 1.392 . S
C492 H502 0.930 . S
C493 C490 1.372 . S
C493 C491 1.390 . S
C493 H503 0.929 . S
C494 O474 1.255 . S
C494 O475 1.257 . S
C495 Eu431 2.787 . S
C495 O470 1.252 . S
C495 O473 1.268 . S
C495 C488 1.506 1_655 S
H496 C479 0.931 . S
H497 C480 0.931 . S
H498 C481 0.929 . S
H499 C482 0.930 . S
H500 C490 0.931 . S
H501 C491 0.931 . S
H502 C492 0.930 . S
H503 C493 0.929 . S
Eu504 N533 2.600 . S
Eu504 N539 2.562 . S
Eu504 O548 2.462 . S
Eu504 O549 2.373 . S
Eu504 O551 2.432 . S
Eu504 O552 2.291 . S
Eu504 O556 2.335 . S
Eu504 O559 2.372 . S
Eu504 C568 2.787 . S
C505 N506 1.365 . S
C505 C508 1.405 . S
C505 C512 1.448 . S
N506 C505 1.365 . S
N506 C509 1.319 . S
N506 Eu515 2.600 . S
C507 C509 1.397 . S
C507 C510 1.367 . S
C507 H527 0.931 . S
C508 C505 1.405 . S
C508 C510 1.403 . S
C508 C514 1.439 . S
C509 N506 1.319 . S
C509 C507 1.397 . S
C509 H520 0.930 . S
C510 C507 1.367 . S
C510 C508 1.403 . S
C510 H531 0.929 . S
C511 C512 1.430 . S
C511 C513 1.387 1_455 S
C511 C517 1.404 1_455 S
C512 C505 1.448 . S
C512 C511 1.430 . S
C512 N516 1.351 . S
C513 C511 1.387 1_655 S
C513 C514 1.374 1_655 S
C513 H528 0.931 . S
C514 C508 1.439 . S
C514 C513 1.374 1_455 S
C514 H529 0.931 1_455 S
Eu515 N506 2.600 . S
Eu515 N516 2.562 . S
Eu515 O550 2.335 . S
Eu515 O553 2.372 . S
Eu515 O554 2.462 . S
Eu515 O555 2.373 . S
Eu515 O557 2.432 . S
Eu515 O558 2.291 . S
Eu515 C579 2.787 . S
N516 C512 1.351 . S
N516 Eu515 2.562 . S
N516 C518 1.325 . S
C517 C511 1.404 1_655 S
C517 C519 1.366 1_655 S
C517 H525 0.930 . S
C518 N516 1.325 . S
C518 C519 1.416 . S
C518 H524 0.929 . S
C519 C517 1.366 1_455 S
C519 C518 1.416 . S
C519 H521 0.931 . S
H520 C509 0.930 . S
H521 C519 0.931 . S
H522 C537 0.930 . S
H523 C544 0.930 . S
H524 C518 0.929 . S
H525 C517 0.930 . S
H526 C540 0.929 . S
H527 C507 0.931 . S
H528 C513 0.931 . S
H529 C514 0.931 1_655 S
H530 C535 0.931 . S
H531 C510 0.929 . S
H532 C543 0.930 . S
N533 Eu504 2.600 . S
N533 C534 1.365 . S
N533 C537 1.319 . S
C534 N533 1.365 . S
C534 C536 1.405 . S
C534 C542 1.448 . S
C535 H530 0.931 . S
C535 C537 1.397 . S
C535 C538 1.367 . S
C536 C534 1.405 . S
C536 C538 1.403 . S
C536 C569 1.439 . S
C537 H522 0.930 . S
C537 N533 1.319 . S
C537 C535 1.397 . S
C538 C535 1.367 . S
C538 C536 1.403 . S
C538 H545 0.929 . S
N539 Eu504 2.562 . S
N539 C540 1.325 . S
N539 C542 1.351 . S
C540 H526 0.929 . S
C540 N539 1.325 . S
C540 C544 1.416 . S
C541 C542 1.430 . S
C541 C543 1.404 . S
C541 C570 1.387 . S
C542 C534 1.448 . S
C542 N539 1.351 . S
C542 C541 1.430 . S
C543 H532 0.930 . S
C543 C541 1.404 . S
C543 C544 1.366 . S
C544 H523 0.930 . S
C544 C540 1.416 . S
C544 C543 1.366 . S
H545 C538 0.929 . S
H546 C569 0.931 . S
H547 C570 0.931 . S
O548 Eu504 2.462 . S
O548 C568 1.252 . S
O549 Eu504 2.373 . S
O549 C560 1.249 . S
O550 Eu515 2.335 . S
O550 C560 1.264 . S
O551 Eu504 2.432 . S
O551 C568 1.268 . S
O552 Eu504 2.291 . S
O552 C567 1.255 . S
O553 Eu515 2.372 . S
O553 C567 1.257 . S
O554 Eu515 2.462 . S
O554 C579 1.252 . S
O555 Eu515 2.373 . S
O555 C571 1.249 . S
O556 Eu504 2.335 . S
O556 C571 1.264 . S
O557 Eu515 2.432 . S
O557 C579 1.268 . S
O558 Eu515 2.291 . S
O558 C578 1.255 . S
O559 Eu504 2.372 . S
O559 C578 1.257 . S
C560 O549 1.249 . S
C560 O550 1.264 . S
C561 C564 1.382 . S
C561 C566 1.390 . S
C561 C568 1.506 . S
C562 C563 1.398 . S
C562 C566 1.392 . S
C563 C562 1.398 . S
C563 C565 1.372 . S
C563 H580 0.931 . S
C564 C561 1.382 . S
C564 C565 1.390 . S
C564 H581 0.931 . S
C565 C563 1.372 . S
C565 C564 1.390 . S
C565 H582 0.929 . S
C566 C561 1.390 . S
C566 C562 1.392 . S
C566 H583 0.930 . S
C567 O552 1.255 . S
C567 O553 1.257 . S
C568 Eu504 2.787 . S
C568 O548 1.252 . S
C568 O551 1.268 . S
C568 C561 1.506 . S
C569 C536 1.439 . S
C569 H546 0.931 . S
C569 C570 1.374 . S
C570 C541 1.387 . S
C570 H547 0.931 . S
C570 C569 1.374 . S
C571 O555 1.249 . S
C571 O556 1.264 . S
C572 C575 1.382 . S
C572 C576 1.390 . S
C572 C579 1.506 1_655 S
C573 C574 1.398 . S
C573 C576 1.392 . S
C574 C573 1.398 . S
C574 C577 1.372 . S
C574 H584 0.931 . S
C575 C572 1.382 . S
C575 C577 1.390 . S
C575 H585 0.931 . S
C576 C572 1.390 . S
C576 C573 1.392 . S
C576 H586 0.930 . S
C577 C574 1.372 . S
C577 C575 1.390 . S
C577 H587 0.929 . S
C578 O558 1.255 . S
C578 O559 1.257 . S
C579 Eu515 2.787 . S
C579 O554 1.252 . S
C579 O557 1.268 . S
C579 C572 1.506 1_455 S
H580 C563 0.931 . S
H581 C564 0.931 . S
H582 C565 0.929 . S
H583 C566 0.930 . S
H584 C574 0.931 . S
H585 C575 0.931 . S
H586 C576 0.930 . S
H587 C577 0.929 . S
Eu588 N617 2.600 . S
Eu588 N623 2.562 . S
Eu588 O632 2.462 . S
Eu588 O633 2.373 . S
Eu588 O635 2.432 . S
Eu588 O636 2.291 . S
Eu588 O640 2.335 . S
Eu588 O643 2.372 . S
Eu588 C652 2.787 . S
C589 N590 1.365 . S
C589 C592 1.405 . S
C589 C596 1.448 . S
N590 C589 1.365 . S
N590 C593 1.319 . S
N590 Eu599 2.600 . S
C591 C593 1.397 . S
C591 C594 1.367 . S
C591 H611 0.931 1_556 S
C592 C589 1.405 . S
C592 C594 1.403 . S
C592 C598 1.418 1_455 S
C593 N590 1.319 . S
C593 C591 1.397 . S
C593 H604 0.930 . S
C594 C591 1.367 . S
C594 C592 1.403 . S
C594 H615 0.929 . S
C595 C596 1.430 . S
C595 C597 1.387 1_455 S
C595 C601 1.404 . S
C596 C589 1.448 . S
C596 C595 1.430 . S
C596 N600 1.351 . S
C597 C595 1.387 1_655 S
C597 C598 1.379 . S
C597 H612 0.931 . S
C598 C592 1.418 1_655 S
C598 C597 1.379 . S
C598 H613 0.949 . S
Eu599 N590 2.600 . S
Eu599 N600 2.562 . S
Eu599 O634 2.335 . S
Eu599 O637 2.372 . S
Eu599 O638 2.462 . S
Eu599 O639 2.373 . S
Eu599 O641 2.432 . S
Eu599 O642 2.291 . S
Eu599 C663 2.787 . S
N600 C596 1.351 . S
N600 Eu599 2.562 . S
N600 C602 1.325 . S
C601 C595 1.404 . S
C601 C603 1.366 . S
C601 H609 0.930 1_455 S
C602 N600 1.325 . S
C602 C603 1.416 . S
C602 H608 0.929 . S
C603 C601 1.366 . S
C603 C602 1.416 . S
C603 H605 0.930 . S
H604 C593 0.930 . S
H605 C603 0.930 . S
H606 C621 0.930 . S
H607 C628 0.930 . S
H608 C602 0.929 . S
H609 C601 0.930 1_655 S
H610 C624 0.929 . S
H611 C591 0.931 1_554 S
H612 C597 0.931 . S
H613 C598 0.949 . S
H614 C619 0.931 . S
H615 C594 0.929 . S
H616 C627 0.930 . S
N617 Eu588 2.600 . S
N617 C618 1.365 . S
N617 C621 1.319 . S
C618 N617 1.365 . S
C618 C620 1.405 . S
C618 C626 1.448 . S
C619 H614 0.931 . S
C619 C621 1.397 . S
C619 C622 1.367 . S
C620 C618 1.405 . S
C620 C622 1.403 . S
C620 C653 1.439 . S
C621 H606 0.930 . S
C621 N617 1.319 . S
C621 C619 1.397 . S
C622 C619 1.367 . S
C622 C620 1.403 . S
C622 H629 0.929 . S
N623 Eu588 2.562 . S
N623 C624 1.325 . S
N623 C626 1.351 . S
C624 H610 0.929 . S
C624 N623 1.325 . S
C624 C628 1.416 . S
C625 C626 1.430 . S
C625 C627 1.404 1_565 S
C625 C654 1.387 1_565 S
C626 C618 1.448 . S
C626 N623 1.351 . S
C626 C625 1.430 . S
C627 H616 0.930 . S
C627 C625 1.404 1_545 S
C627 C628 1.366 1_545 S
C628 H607 0.930 . S
C628 C624 1.416 . S
C628 C627 1.366 1_565 S
H629 C622 0.929 . S
H630 C653 0.931 1_545 S
H631 C654 0.931 . S
O632 Eu588 2.462 . S
O632 C652 1.252 . S
O633 Eu588 2.373 . S
O633 C644 1.249 . S
O634 Eu599 2.335 . S
O634 C644 1.264 . S
O635 Eu588 2.432 . S
O635 C652 1.268 . S
O636 Eu588 2.291 . S
O636 C651 1.255 . S
O637 Eu599 2.372 . S
O637 C651 1.257 . S
O638 Eu599 2.462 . S
O638 C663 1.252 . S
O639 Eu599 2.373 . S
O639 C655 1.249 . S
O640 Eu588 2.335 . S
O640 C655 1.264 . S
O641 Eu599 2.432 . S
O641 C663 1.268 . S
O642 Eu599 2.291 . S
O642 C662 1.255 . S
O643 Eu588 2.372 . S
O643 C662 1.257 . S
C644 O633 1.249 . S
C644 O634 1.264 . S
C645 C648 1.382 . S
C645 C650 1.390 . S
C645 C652 1.506 1_545 S
C646 C647 1.398 . S
C646 C650 1.392 . S
C647 C646 1.398 . S
C647 C649 1.372 . S
C647 H664 0.931 . S
C648 C645 1.382 . S
C648 C649 1.390 . S
C648 H665 0.931 . S
C649 C647 1.372 . S
C649 C648 1.390 . S
C649 H666 0.929 . S
C650 C645 1.390 . S
C650 C646 1.392 . S
C650 H667 0.930 . S
C651 O636 1.255 . S
C651 O637 1.257 . S
C652 Eu588 2.787 . S
C652 O632 1.252 . S
C652 O635 1.268 . S
C652 C645 1.506 1_565 S
C653 C620 1.439 . S
C653 H630 0.931 1_565 S
C653 C654 1.374 1_565 S
C654 C625 1.387 1_545 S
C654 H631 0.931 . S
C654 C653 1.374 1_545 S
C655 O639 1.249 . S
C655 O640 1.264 . S
C656 C659 1.382 . S
C656 C660 1.390 . S
C656 C663 1.506 . S
C657 C658 1.398 . S
C657 C660 1.392 . S
C658 C657 1.398 . S
C658 C661 1.372 . S
C658 H668 0.931 . S
C659 C656 1.382 . S
C659 C661 1.390 . S
C659 H669 0.931 . S
C660 C656 1.390 . S
C660 C657 1.392 . S
C660 H670 0.930 . S
C661 C658 1.372 . S
C661 C659 1.390 . S
C661 H671 0.929 . S
C662 O642 1.255 . S
C662 O643 1.257 . S
C663 Eu599 2.787 . S
C663 O638 1.252 . S
C663 O641 1.268 . S
C663 C656 1.506 . S
H664 C647 0.931 . S
H665 C648 0.931 . S
H666 C649 0.929 . S
H667 C650 0.930 . S
H668 C658 0.931 . S
H669 C659 0.931 . S
H670 C660 0.930 . S
H671 C661 0.929 . S
Eu672 N701 2.600 . S
Eu672 N707 2.562 . S
Eu672 O716 2.462 . S
Eu672 O717 2.373 . S
Eu672 O719 2.432 . S
Eu672 O720 2.291 . S
Eu672 O724 2.335 . S
Eu672 O727 2.372 . S
Eu672 C736 2.787 . S
C673 N674 1.365 . S
C673 C676 1.405 . S
C673 C680 1.448 . S
N674 C673 1.365 . S
N674 C677 1.319 . S
N674 Eu683 2.600 . S
C675 C677 1.397 . S
C675 C678 1.367 . S
C675 H695 0.931 . S
C676 C673 1.405 . S
C676 C678 1.403 . S
C676 C682 1.439 . S
C677 N674 1.319 . S
C677 C675 1.397 . S
C677 H688 0.930 . S
C678 C675 1.367 . S
C678 C676 1.403 . S
C678 H699 0.929 . S
C679 C680 1.430 . S
C679 C681 1.387 . S
C679 C685 1.404 . S
C680 C673 1.448 . S
C680 C679 1.430 . S
C680 N684 1.351 . S
C681 C679 1.387 . S
C681 C682 1.374 . S
C681 H696 0.931 . S
C682 C676 1.439 . S
C682 C681 1.374 . S
C682 H697 0.931 . S
Eu683 N674 2.600 . S
Eu683 N684 2.562 . S
Eu683 O718 2.335 . S
Eu683 O721 2.372 . S
Eu683 O722 2.462 . S
Eu683 O723 2.373 . S
Eu683 O725 2.432 . S
Eu683 O726 2.291 . S
Eu683 C747 2.787 . S
N684 C680 1.351 . S
N684 Eu683 2.562 . S
N684 C686 1.325 . S
C685 C679 1.404 . S
C685 C687 1.366 . S
C685 H693 0.930 . S
C686 N684 1.325 . S
C686 C687 1.416 . S
C686 H692 0.929 . S
C687 C685 1.366 . S
C687 C686 1.416 . S
C687 H689 0.930 . S
H688 C677 0.930 . S
H689 C687 0.930 . S
H690 C705 0.930 . S
H691 C712 0.930 . S
H692 C686 0.929 . S
H693 C685 0.930 . S
H694 C708 0.929 . S
H695 C675 0.931 . S
H696 C681 0.931 . S
H697 C682 0.931 . S
H698 C703 0.931 . S
H699 C678 0.929 . S
H700 C711 0.930 1_545 S
N701 Eu672 2.600 . S
N701 C702 1.365 . S
N701 C705 1.319 . S
C702 N701 1.365 . S
C702 C704 1.405 . S
C702 C710 1.448 . S
C703 H698 0.931 . S
C703 C705 1.397 . S
C703 C706 1.367 . S
C704 C702 1.405 . S
C704 C706 1.403 . S
C704 C737 1.413 1_565 S
C705 H690 0.930 . S
C705 N701 1.319 . S
C705 C703 1.397 . S
C706 C703 1.367 . S
C706 C704 1.403 . S
C706 H713 0.929 . S
N707 Eu672 2.562 . S
N707 C708 1.325 . S
N707 C710 1.351 . S
C708 H694 0.929 . S
C708 N707 1.325 . S
C708 C712 1.416 . S
C709 C710 1.430 . S
C709 C711 1.404 . S
C709 C738 1.387 1_565 S
C710 C702 1.448 . S
C710 N707 1.351 . S
C710 C709 1.430 . S
C711 H700 0.930 1_565 S
C711 C709 1.404 . S
C711 C712 1.366 . S
C712 H691 0.930 . S
C712 C708 1.416 . S
C712 C711 1.366 . S
H713 C706 0.929 . S
H714 C737 0.948 . S
H715 C738 0.931 . S
O716 Eu672 2.462 . S
O716 C736 1.252 . S
O717 Eu672 2.373 . S
O717 C728 1.249 . S
O718 Eu683 2.335 . S
O718 C728 1.264 . S
O719 Eu672 2.432 . S
O719 C736 1.268 . S
O720 Eu672 2.291 . S
O720 C735 1.255 . S
O721 Eu683 2.372 . S
O721 C735 1.257 . S
O722 Eu683 2.462 . S
O722 C747 1.252 . S
O723 Eu683 2.373 . S
O723 C739 1.249 . S
O724 Eu672 2.335 . S
O724 C739 1.264 . S
O725 Eu683 2.432 . S
O725 C747 1.268 . S
O726 Eu683 2.291 . S
O726 C746 1.255 . S
O727 Eu672 2.372 . S
O727 C746 1.257 . S
C728 O717 1.249 . S
C728 O718 1.264 . S
C729 C732 1.382 . S
C729 C734 1.390 . S
C729 C736 1.506 . S
C730 C731 1.398 . S
C730 C734 1.392 . S
C731 C730 1.398 . S
C731 C733 1.372 . S
C731 H748 0.931 . S
C732 C729 1.382 . S
C732 C733 1.390 . S
C732 H749 0.931 . S
C733 C731 1.372 . S
C733 C732 1.390 . S
C733 H750 0.929 . S
C734 C729 1.390 . S
C734 C730 1.392 . S
C734 H751 0.930 . S
C735 O720 1.255 . S
C735 O721 1.257 . S
C736 Eu672 2.787 . S
C736 O716 1.252 . S
C736 O719 1.268 . S
C736 C729 1.506 . S
C737 C704 1.413 1_545 S
C737 H714 0.948 . S
C737 C738 1.385 . S
C738 C709 1.387 1_545 S
C738 H715 0.931 . S
C738 C737 1.385 . S
C739 O723 1.249 . S
C739 O724 1.264 . S
C740 C743 1.382 . S
C740 C744 1.390 . S
C740 C747 1.506 . S
C741 C742 1.398 . S
C741 C744 1.392 . S
C742 C741 1.398 . S
C742 C745 1.372 . S
C742 H752 0.931 . S
C743 C740 1.382 . S
C743 C745 1.390 . S
C743 H753 0.931 . S
C744 C740 1.390 . S
C744 C741 1.392 . S
C744 H754 0.930 . S
C745 C742 1.372 . S
C745 C743 1.390 . S
C745 H755 0.929 . S
C746 O726 1.255 . S
C746 O727 1.257 . S
C747 Eu683 2.787 . S
C747 O722 1.252 . S
C747 O725 1.268 . S
C747 C740 1.506 . S
H748 C731 0.931 . S
H749 C732 0.931 . S
H750 C733 0.929 . S
H751 C734 0.930 . S
H752 C742 0.931 . S
H753 C743 0.931 . S
H754 C744 0.930 . S
H755 C745 0.929 . S
Eu756 N785 2.600 . S
Eu756 N791 2.562 . S
Eu756 O800 2.462 . S
Eu756 O801 2.373 . S
Eu756 O803 2.432 . S
Eu756 O804 2.291 . S
Eu756 O808 2.335 . S
Eu756 O811 2.372 . S
Eu756 C820 2.787 . S
C757 N758 1.365 . S
C757 C760 1.405 . S
C757 C764 1.448 . S
N758 C757 1.365 . S
N758 C761 1.319 . S
N758 Eu767 2.600 . S
C759 C761 1.397 . S
C759 C762 1.367 . S
C759 H779 0.931 1_556 S
C760 C757 1.405 . S
C760 C762 1.403 . S
C760 C766 1.439 . S
C761 N758 1.319 . S
C761 C759 1.397 . S
C761 H772 0.930 . S
C762 C759 1.367 . S
C762 C760 1.403 . S
C762 H783 0.929 . S
C763 C764 1.430 . S
C763 C765 1.387 . S
C763 C769 1.404 . S
C764 C757 1.448 . S
C764 C763 1.430 . S
C764 N768 1.351 . S
C765 C763 1.387 . S
C765 C766 1.374 . S
C765 H780 0.931 . S
C766 C760 1.439 . S
C766 C765 1.374 . S
C766 H781 0.931 . S
Eu767 N758 2.600 . S
Eu767 N768 2.562 . S
Eu767 O802 2.335 . S
Eu767 O805 2.372 . S
Eu767 O806 2.462 . S
Eu767 O807 2.373 . S
Eu767 O809 2.432 . S
Eu767 O810 2.291 . S
Eu767 C831 2.787 . S
N768 C764 1.351 . S
N768 Eu767 2.562 . S
N768 C770 1.325 . S
C769 C763 1.404 . S
C769 C771 1.366 . S
C769 H777 0.930 . S
C770 N768 1.325 . S
C770 C771 1.416 . S
C770 H776 0.929 . S
C771 C769 1.366 . S
C771 C770 1.416 . S
C771 H773 0.930 . S
H772 C761 0.930 . S
H773 C771 0.930 . S
H774 C789 0.930 . S
H775 C796 0.931 . S
H776 C770 0.929 . S
H777 C769 0.930 . S
H778 C792 0.929 . S
H779 C759 0.931 1_554 S
H780 C765 0.931 . S
H781 C766 0.931 . S
H782 C787 0.931 . S
H783 C762 0.929 . S
H784 C795 0.930 . S
N785 Eu756 2.600 . S
N785 C786 1.365 . S
N785 C789 1.319 . S
C786 N785 1.365 . S
C786 C788 1.405 . S
C786 C794 1.448 . S
C787 H782 0.931 . S
C787 C789 1.397 . S
C787 C790 1.367 . S
C788 C786 1.405 . S
C788 C790 1.403 . S
C788 C821 1.439 . S
C789 H774 0.930 . S
C789 N785 1.319 . S
C789 C787 1.397 . S
C790 C787 1.367 . S
C790 C788 1.403 . S
C790 H797 0.929 . S
N791 Eu756 2.562 . S
N791 C792 1.325 . S
N791 C794 1.351 . S
C792 H778 0.929 . S
C792 N791 1.325 . S
C792 C796 1.416 . S
C793 C794 1.430 . S
C793 C795 1.404 1_455 S
C793 C822 1.387 1_455 S
C794 C786 1.448 . S
C794 N791 1.351 . S
C794 C793 1.430 . S
C795 H784 0.930 . S
C795 C793 1.404 1_655 S
C795 C796 1.366 1_655 S
C796 H775 0.931 . S
C796 C792 1.416 . S
C796 C795 1.366 1_455 S
H797 C790 0.929 . S
H798 C821 0.931 1_655 S
H799 C822 0.931 . S
O800 Eu756 2.462 . S
O800 C820 1.252 . S
O801 Eu756 2.373 . S
O801 C812 1.249 . S
O802 Eu767 2.335 . S
O802 C812 1.264 . S
O803 Eu756 2.432 . S
O803 C820 1.268 . S
O804 Eu756 2.291 . S
O804 C819 1.255 . S
O805 Eu767 2.372 . S
O805 C819 1.257 . S
O806 Eu767 2.462 . S
O806 C831 1.252 . S
O807 Eu767 2.373 . S
O807 C823 1.249 . S
O808 Eu756 2.335 . S
O808 C823 1.264 . S
O809 Eu767 2.432 . S
O809 C831 1.268 . S
O810 Eu767 2.291 . S
O810 C830 1.255 . S
O811 Eu756 2.372 . S
O811 C830 1.257 . S
C812 O801 1.249 . S
C812 O802 1.264 . S
C813 C816 1.382 . S
C813 C818 1.390 . S
C813 C820 1.506 1_655 S
C814 C815 1.398 . S
C814 C818 1.392 . S
C815 C814 1.398 . S
C815 C817 1.372 . S
C815 H832 0.931 . S
C816 C813 1.382 . S
C816 C817 1.390 . S
C816 H833 0.931 . S
C817 C815 1.372 . S
C817 C816 1.390 . S
C817 H834 0.929 . S
C818 C813 1.390 . S
C818 C814 1.392 . S
C818 H835 0.930 . S
C819 O804 1.255 . S
C819 O805 1.257 . S
C820 Eu756 2.787 . S
C820 O800 1.252 . S
C820 O803 1.268 . S
C820 C813 1.506 1_455 S
C821 C788 1.439 . S
C821 H798 0.931 1_455 S
C821 C822 1.374 1_455 S
C822 C793 1.387 1_655 S
C822 H799 0.931 . S
C822 C821 1.374 1_655 S
C823 O807 1.249 . S
C823 O808 1.264 . S
C824 C827 1.382 . S
C824 C828 1.390 . S
C824 C831 1.506 . S
C825 C826 1.398 . S
C825 C828 1.392 . S
C826 C825 1.398 . S
C826 C829 1.372 . S
C826 H836 0.931 . S
C827 C824 1.382 . S
C827 C829 1.390 . S
C827 H837 0.931 . S
C828 C824 1.390 . S
C828 C825 1.392 . S
C828 H838 0.930 . S
C829 C826 1.372 . S
C829 C827 1.390 . S
C829 H839 0.929 . S
C830 O810 1.255 . S
C830 O811 1.257 . S
C831 Eu767 2.787 . S
C831 O806 1.252 . S
C831 O809 1.268 . S
C831 C824 1.506 . S
H832 C815 0.931 . S
H833 C816 0.931 . S
H834 C817 0.929 . S
H835 C818 0.930 . S
H836 C826 0.931 . S
H837 C827 0.931 . S
H838 C828 0.930 . S
H839 C829 0.929 . S
Eu840 N869 2.600 . S
Eu840 N875 2.562 . S
Eu840 O884 2.462 . S
Eu840 O885 2.373 . S
Eu840 O887 2.432 . S
Eu840 O888 2.291 . S
Eu840 O892 2.335 . S
Eu840 O895 2.372 . S
Eu840 C904 2.787 . S
C841 N842 1.365 . S
C841 C844 1.405 . S
C841 C848 1.448 . S
N842 C841 1.365 . S
N842 C845 1.319 . S
N842 Eu851 2.600 . S
C843 C845 1.397 . S
C843 C846 1.367 . S
C843 H863 0.931 . S
C844 C841 1.405 . S
C844 C846 1.403 . S
C844 C850 1.439 . S
C845 N842 1.319 . S
C845 C843 1.397 . S
C845 H856 0.930 . S
C846 C843 1.367 . S
C846 C844 1.403 . S
C846 H867 0.929 . S
C847 C848 1.430 . S
C847 C849 1.387 1_565 S
C847 C853 1.404 1_565 S
C848 C841 1.448 . S
C848 C847 1.430 . S
C848 N852 1.351 . S
C849 C847 1.387 1_545 S
C849 C850 1.374 1_545 S
C849 H864 0.931 . S
C850 C844 1.439 . S
C850 C849 1.374 1_565 S
C850 H865 0.931 1_565 S
Eu851 N842 2.600 . S
Eu851 N852 2.562 . S
Eu851 O886 2.335 . S
Eu851 O889 2.372 . S
Eu851 O890 2.462 . S
Eu851 O891 2.373 . S
Eu851 O893 2.432 . S
Eu851 O894 2.291 . S
Eu851 C915 2.787 . S
N852 C848 1.351 . S
N852 Eu851 2.562 . S
N852 C854 1.325 . S
C853 C847 1.404 1_545 S
C853 C855 1.366 1_545 S
C853 H861 0.930 . S
C854 N852 1.325 . S
C854 C855 1.416 . S
C854 H860 0.929 . S
C855 C853 1.366 1_565 S
C855 C854 1.416 . S
C855 H857 0.930 . S
H856 C845 0.930 . S
H857 C855 0.930 . S
H858 C873 0.930 . S
H859 C880 0.930 . S
H860 C854 0.929 . S
H861 C853 0.930 . S
H862 C876 0.929 . S
H863 C843 0.931 . S
H864 C849 0.931 . S
H865 C850 0.931 1_545 S
H866 C871 0.931 . S
H867 C846 0.929 . S
H868 C879 0.930 1_655 S
N869 Eu840 2.600 . S
N869 C870 1.365 . S
N869 C873 1.319 . S
C870 N869 1.365 . S
C870 C872 1.405 . S
C870 C878 1.448 . S
C871 H866 0.931 . S
C871 C873 1.397 . S
C871 C874 1.367 . S
C872 C870 1.405 . S
C872 C874 1.403 . S
C872 C905 1.418 1_455 S
C873 H858 0.930 . S
C873 N869 1.319 . S
C873 C871 1.397 . S
C874 C871 1.367 . S
C874 C872 1.403 . S
C874 H881 0.929 . S
N875 Eu840 2.562 . S
N875 C876 1.325 . S
N875 C878 1.351 . S
C876 H862 0.929 . S
C876 N875 1.325 . S
C876 C880 1.416 . S
C877 C878 1.430 . S
C877 C879 1.404 . S
C877 C906 1.387 1_455 S
C878 C870 1.448 . S
C878 N875 1.351 . S
C878 C877 1.430 . S
C879 H868 0.930 1_455 S
C879 C877 1.404 . S
C879 C880 1.366 . S
C880 H859 0.930 . S
C880 C876 1.416 . S
C880 C879 1.366 . S
H881 C874 0.929 . S
H882 C905 0.949 . S
H883 C906 0.931 . S
O884 Eu840 2.462 . S
O884 C904 1.252 . S
O885 Eu840 2.373 . S
O885 C896 1.249 . S
O886 Eu851 2.335 . S
O886 C896 1.264 . S
O887 Eu840 2.432 . S
O887 C904 1.268 . S
O888 Eu840 2.291 . S
O888 C903 1.255 . S
O889 Eu851 2.372 . S
O889 C903 1.257 . S
O890 Eu851 2.462 . S
O890 C915 1.252 . S
O891 Eu851 2.373 . S
O891 C907 1.249 . S
O892 Eu840 2.335 . S
O892 C907 1.264 . S
O893 Eu851 2.432 . S
O893 C915 1.268 . S
O894 Eu851 2.291 . S
O894 C914 1.255 . S
O895 Eu840 2.372 . S
O895 C914 1.257 . S
C896 O885 1.249 . S
C896 O886 1.264 . S
C897 C900 1.382 . S
C897 C902 1.390 . S
C897 C904 1.506 . S
C898 C899 1.398 . S
C898 C902 1.392 . S
C899 C898 1.398 . S
C899 C901 1.372 . S
C899 H916 0.931 . S
C900 C897 1.382 . S
C900 C901 1.390 . S
C900 H917 0.931 . S
C901 C899 1.372 . S
C901 C900 1.390 . S
C901 H918 0.929 . S
C902 C897 1.390 . S
C902 C898 1.392 . S
C902 H919 0.930 . S
C903 O888 1.255 . S
C903 O889 1.257 . S
C904 Eu840 2.787 . S
C904 O884 1.252 . S
C904 O887 1.268 . S
C904 C897 1.506 . S
C905 C872 1.418 1_655 S
C905 H882 0.949 . S
C905 C906 1.379 . S
C906 C877 1.387 1_655 S
C906 H883 0.931 . S
C906 C905 1.379 . S
C907 O891 1.249 . S
C907 O892 1.264 . S
C908 C911 1.382 . S
C908 C912 1.390 . S
C908 C915 1.506 1_545 S
C909 C910 1.398 . S
C909 C912 1.392 . S
C910 C909 1.398 . S
C910 C913 1.372 . S
C910 H920 0.931 . S
C911 C908 1.382 . S
C911 C913 1.390 . S
C911 H921 0.931 . S
C912 C908 1.390 . S
C912 C909 1.392 . S
C912 H922 0.930 . S
C913 C910 1.372 . S
C913 C911 1.390 . S
C913 H923 0.929 . S
C914 O894 1.255 . S
C914 O895 1.257 . S
C915 Eu851 2.787 . S
C915 O890 1.252 . S
C915 O893 1.268 . S
C915 C908 1.506 1_565 S
H916 C899 0.931 . S
H917 C900 0.931 . S
H918 C901 0.929 . S
H919 C902 0.930 . S
H920 C910 0.931 . S
H921 C911 0.931 . S
H922 C912 0.930 . S
H923 C913 0.929 . S
Eu924 N953 2.600 . S
Eu924 N959 2.562 . S
Eu924 O968 2.462 . S
Eu924 O969 2.373 . S
Eu924 O971 2.432 . S
Eu924 O972 2.291 . S
Eu924 O976 2.335 . S
Eu924 O979 2.372 . S
Eu924 C988 2.787 . S
C925 N926 1.365 . S
C925 C928 1.405 . S
C925 C932 1.448 . S
N926 C925 1.365 . S
N926 C929 1.319 . S
N926 Eu935 2.600 . S
C927 C929 1.397 . S
C927 C930 1.367 . S
C927 H947 0.931 1_556 S
C928 C925 1.405 . S
C928 C930 1.403 . S
C928 C934 1.413 1_565 S
C929 N926 1.319 . S
C929 C927 1.397 . S
C929 H940 0.930 . S
C930 C927 1.367 . S
C930 C928 1.403 . S
C930 H951 0.929 . S
C931 C932 1.430 . S
C931 C933 1.387 1_565 S
C931 C937 1.404 . S
C932 C925 1.448 . S
C932 C931 1.430 . S
C932 N936 1.351 . S
C933 C931 1.387 1_545 S
C933 C934 1.385 . S
C933 H948 0.931 . S
C934 C928 1.413 1_545 S
C934 C933 1.385 . S
C934 H949 0.948 . S
Eu935 N926 2.600 . S
Eu935 N936 2.562 . S
Eu935 O970 2.335 . S
Eu935 O973 2.372 . S
Eu935 O974 2.462 . S
Eu935 O975 2.373 . S
Eu935 O977 2.432 . S
Eu935 O978 2.291 . S
Eu935 C999 2.787 . S
N936 C932 1.351 . S
N936 Eu935 2.562 . S
N936 C938 1.325 . S
C937 C931 1.404 . S
C937 C939 1.366 . S
C937 H945 0.930 1_565 S
C938 N936 1.325 . S
C938 C939 1.416 . S
C938 H944 0.929 . S
C939 C937 1.366 . S
C939 C938 1.416 . S
C939 H941 0.930 . S
H940 C929 0.930 . S
H941 C939 0.930 . S
H942 C957 0.930 . S
H943 C964 0.930 . S
H944 C938 0.929 . S
H945 C937 0.930 1_545 S
H946 C960 0.929 . S
H947 C927 0.931 1_554 S
H948 C933 0.931 . S
H949 C934 0.948 . S
H950 C955 0.931 . S
H951 C930 0.929 . S
H952 C963 0.930 . S
N953 Eu924 2.600 . S
N953 C954 1.365 . S
N953 C957 1.319 . S
C954 N953 1.365 . S
C954 C956 1.405 . S
C954 C962 1.448 . S
C955 H950 0.931 . S
C955 C957 1.397 . S
C955 C958 1.367 . S
C956 C954 1.405 . S
C956 C958 1.403 . S
C956 C989 1.439 . S
C957 H942 0.930 . S
C957 N953 1.319 . S
C957 C955 1.397 . S
C958 C955 1.367 . S
C958 C956 1.403 . S
C958 H965 0.929 . S
N959 Eu924 2.562 . S
N959 C960 1.325 . S
N959 C962 1.351 . S
C960 H946 0.929 . S
C960 N959 1.325 . S
C960 C964 1.416 . S
C961 C962 1.430 . S
C961 C963 1.404 . S
C961 C990 1.387 . S
C962 C954 1.448 . S
C962 N959 1.351 . S
C962 C961 1.430 . S
C963 H952 0.930 . S
C963 C961 1.404 . S
C963 C964 1.366 . S
C964 H943 0.930 . S
C964 C960 1.416 . S
C964 C963 1.366 . S
H965 C958 0.929 . S
H966 C989 0.931 . S
H967 C990 0.931 . S
O968 Eu924 2.462 . S
O968 C988 1.252 . S
O969 Eu924 2.373 . S
O969 C980 1.249 . S
O970 Eu935 2.335 . S
O970 C980 1.264 . S
O971 Eu924 2.432 . S
O971 C988 1.268 . S
O972 Eu924 2.291 . S
O972 C987 1.255 . S
O973 Eu935 2.372 . S
O973 C987 1.257 . S
O974 Eu935 2.462 . S
O974 C999 1.252 . S
O975 Eu935 2.373 . S
O975 C991 1.249 . S
O976 Eu924 2.335 . S
O976 C991 1.264 . S
O977 Eu935 2.432 . S
O977 C999 1.268 . S
O978 Eu935 2.291 . S
O978 C998 1.255 . S
O979 Eu924 2.372 . S
O979 C998 1.257 . S
C980 O969 1.249 . S
C980 O970 1.264 . S
C981 C984 1.382 . S
C981 C986 1.390 . S
C981 C988 1.506 . S
C982 C983 1.398 . S
C982 C986 1.392 . S
C983 C982 1.398 . S
C983 C985 1.372 . S
C983 H1000 0.931 . S
C984 C981 1.382 . S
C984 C985 1.390 . S
C984 H1001 0.931 . S
C985 C983 1.372 . S
C985 C984 1.390 . S
C985 H1002 0.929 . S
C986 C981 1.390 . S
C986 C982 1.392 . S
C986 H1003 0.930 . S
C987 O972 1.255 . S
C987 O973 1.257 . S
C988 Eu924 2.787 . S
C988 O968 1.252 . S
C988 O971 1.268 . S
C988 C981 1.506 . S
C989 C956 1.439 . S
C989 H966 0.931 . S
C989 C990 1.374 . S
C990 C961 1.387 . S
C990 H967 0.931 . S
C990 C989 1.374 . S
C991 O975 1.249 . S
C991 O976 1.264 . S
C992 C995 1.382 . S
C992 C996 1.390 . S
C992 C999 1.506 . S
C993 C994 1.398 . S
C993 C996 1.392 . S
C994 C993 1.398 . S
C994 C997 1.372 . S
C994 H1004 0.931 . S
C995 C992 1.382 . S
C995 C997 1.390 . S
C995 H1005 0.931 . S
C996 C992 1.390 . S
C996 C993 1.392 . S
C996 H1006 0.930 . S
C997 C994 1.372 . S
C997 C995 1.390 . S
C997 H1007 0.929 . S
C998 O978 1.255 . S
C998 O979 1.257 . S
C999 Eu935 2.787 . S
C999 O974 1.252 . S
C999 O977 1.268 . S
C999 C992 1.506 . S
H1000 C983 0.931 . S
H1001 C984 0.931 . S
H1002 C985 0.929 . S
H1003 C986 0.930 . S
H1004 C994 0.931 . S
H1005 C995 0.931 . S
H1006 C996 0.930 . S
H1007 C997 0.929 . S
H1008 C1020 0.930 . S
H1009 C1022 0.930 . S
H1010 C1023 0.930 . S
H1011 C1027 0.959 . S
H1012 C1027 0.959 . S
H1013 C1027 0.961 . S
H1014 C1028 0.960 . S
H1015 C1028 0.961 . S
H1016 C1028 0.959 . S
H1017 C1031 0.929 . S
H1018 C1032 0.931 . S
H1019 C1034 0.930 . S
C1020 H1008 0.930 . S
C1020 C1021 1.399 . S
C1020 C1025 1.399 . S
C1021 C1020 1.399 . S
C1021 C1022 1.376 . S
C1022 H1009 0.930 . S
C1022 C1021 1.376 . S
C1022 C1023 1.388 . S
C1023 H1010 0.930 . S
C1023 C1022 1.388 . S
C1023 C1024 1.390 . S
C1024 C1023 1.390 . S
C1024 C1025 1.394 . S
C1024 C1030 1.465 . S
C1025 C1020 1.399 . S
C1025 C1024 1.394 . S
C1025 C1026 1.516 . S
C1026 C1025 1.516 . S
C1026 C1027 1.502 . S
C1026 C1028 1.561 . S
C1026 C1029 1.526 . S
C1027 H1011 0.959 . S
C1027 H1012 0.959 . S
C1027 H1013 0.961 . S
C1027 C1026 1.502 . S
C1028 H1014 0.960 . S
C1028 H1015 0.961 . S
C1028 H1016 0.959 . S
C1028 C1026 1.561 . S
C1029 C1026 1.526 . S
C1029 C1030 1.396 . S
C1029 C1034 1.390 . S
C1030 C1024 1.465 . S
C1030 C1029 1.396 . S
C1030 C1031 1.399 . S
C1031 H1017 0.929 . S
C1031 C1030 1.399 . S
C1031 C1032 1.385 . S
C1032 H1018 0.931 . S
C1032 C1031 1.385 . S
C1032 C1033 1.389 . S
C1033 C1032 1.389 . S
C1033 C1034 1.387 . S
C1034 H1019 0.930 . S
C1034 C1029 1.390 . S
C1034 C1033 1.387 . S
H1035 C1047 0.930 . S
H1036 C1049 0.930 . S
H1037 C1050 0.930 . S
H1038 C1054 0.959 . S
H1039 C1054 0.959 . S
H1040 C1054 0.961 1_455 S
H1041 C1055 0.960 . S
H1042 C1055 0.961 1_655 S
H1043 C1055 0.959 . S
H1044 C1058 0.940 . S
H1045 C1059 0.931 . S
H1046 C1061 0.930 . S
C1047 H1035 0.930 . S
C1047 C1048 1.399 . S
C1047 C1052 1.399 . S
C1048 C1047 1.399 . S
C1048 C1049 1.376 . S
C1049 H1036 0.930 . S
C1049 C1048 1.376 . S
C1049 C1050 1.388 . S
C1050 H1037 0.930 . S
C1050 C1049 1.388 . S
C1050 C1051 1.390 . S
C1051 C1050 1.390 . S
C1051 C1052 1.394 . S
C1051 C1057 1.465 . S
C1052 C1047 1.399 . S
C1052 C1051 1.394 . S
C1052 C1053 1.516 . S
C1053 C1052 1.516 . S
C1053 C1054 1.502 1_455 S
C1053 C1055 1.561 . S
C1053 C1056 1.526 1_455 S
C1054 H1038 0.959 . S
C1054 H1039 0.959 . S
C1054 H1040 0.961 1_655 S
C1054 C1053 1.502 1_655 S
C1055 H1041 0.960 . S
C1055 H1042 0.961 1_455 S
C1055 H1043 0.959 . S
C1055 C1053 1.561 . S
C1056 C1053 1.526 1_655 S
C1056 C1057 1.396 1_655 S
C1056 C1061 1.390 . S
C1057 C1051 1.465 . S
C1057 C1056 1.396 1_455 S
C1057 C1058 1.399 1_455 S
C1058 H1044 0.940 . S
C1058 C1057 1.399 1_655 S
C1058 C1059 1.385 . S
C1059 H1045 0.931 . S
C1059 C1058 1.385 . S
C1059 C1060 1.389 . S
C1060 C1059 1.389 . S
C1060 C1061 1.387 . S
C1061 H1046 0.930 . S
C1061 C1056 1.390 . S
C1061 C1060 1.387 . S
H1062 C1074 0.930 . S
H1063 C1076 0.930 . S
H1064 C1077 0.930 . S
H1065 C1081 0.959 1_545 S
H1066 C1081 0.959 . S
H1067 C1081 0.961 1_545 S
H1068 C1082 0.960 . S
H1069 C1082 0.961 . S
H1070 C1082 0.959 . S
H1071 C1085 0.929 . S
H1072 C1086 0.931 . S
H1073 C1088 0.930 . S
C1074 H1062 0.930 . S
C1074 C1075 1.399 . S
C1074 C1079 1.399 . S
C1075 C1074 1.399 . S
C1075 C1076 1.376 . S
C1076 H1063 0.930 . S
C1076 C1075 1.376 . S
C1076 C1077 1.388 . S
C1077 H1064 0.930 . S
C1077 C1076 1.388 . S
C1077 C1078 1.390 . S
C1078 C1077 1.390 . S
C1078 C1079 1.394 . S
C1078 C1084 1.465 1_545 S
C1079 C1074 1.399 . S
C1079 C1078 1.394 . S
C1079 C1080 1.516 1_545 S
C1080 C1079 1.516 1_565 S
C1080 C1081 1.502 . S
C1080 C1082 1.561 . S
C1080 C1083 1.526 . S
C1081 H1065 0.959 1_565 S
C1081 H1066 0.959 . S
C1081 H1067 0.961 1_565 S
C1081 C1080 1.502 . S
C1082 H1068 0.960 . S
C1082 H1069 0.961 . S
C1082 H1070 0.959 . S
C1082 C1080 1.561 . S
C1083 C1080 1.526 . S
C1083 C1084 1.396 . S
C1083 C1088 1.390 . S
C1084 C1078 1.465 1_565 S
C1084 C1083 1.396 . S
C1084 C1085 1.399 . S
C1085 H1071 0.929 . S
C1085 C1084 1.399 . S
C1085 C1086 1.385 . S
C1086 H1072 0.931 . S
C1086 C1085 1.385 . S
C1086 C1087 1.389 . S
C1087 C1086 1.389 . S
C1087 C1088 1.387 . S
C1088 H1073 0.930 . S
C1088 C1083 1.390 . S
C1088 C1087 1.387 . S
H1089 C1101 0.930 . S
H1090 C1103 0.930 . S
H1091 C1104 0.930 . S
H1092 C1108 0.959 . S
H1093 C1108 0.959 . S
H1094 C1108 0.961 . S
H1095 C1109 0.960 . S
H1096 C1109 0.961 . S
H1097 C1109 0.959 . S
H1098 C1112 0.929 . S
H1099 C1113 0.931 . S
H1100 C1115 0.930 . S
C1101 H1089 0.930 . S
C1101 C1102 1.399 . S
C1101 C1106 1.399 . S
C1102 C1101 1.399 . S
C1102 C1103 1.376 . S
C1103 H1090 0.930 . S
C1103 C1102 1.376 . S
C1103 C1104 1.388 . S
C1104 H1091 0.930 . S
C1104 C1103 1.388 . S
C1104 C1105 1.390 . S
C1105 C1104 1.390 . S
C1105 C1106 1.394 . S
C1105 C1111 1.465 . S
C1106 C1101 1.399 . S
C1106 C1105 1.394 . S
C1106 C1107 1.516 . S
C1107 C1106 1.516 . S
C1107 C1108 1.502 . S
C1107 C1109 1.561 . S
C1107 C1110 1.526 . S
C1108 H1092 0.959 . S
C1108 H1093 0.959 . S
C1108 H1094 0.961 . S
C1108 C1107 1.502 . S
C1109 H1095 0.960 . S
C1109 H1096 0.961 . S
C1109 H1097 0.959 . S
C1109 C1107 1.561 . S
C1110 C1107 1.526 . S
C1110 C1111 1.396 . S
C1110 C1115 1.390 . S
C1111 C1105 1.465 . S
C1111 C1110 1.396 . S
C1111 C1112 1.399 . S
C1112 H1098 0.929 . S
C1112 C1111 1.399 . S
C1112 C1113 1.385 . S
C1113 H1099 0.931 . S
C1113 C1112 1.385 . S
C1113 C1114 1.389 . S
C1114 C1113 1.389 . S
C1114 C1115 1.387 . S
C1115 H1100 0.930 . S
C1115 C1110 1.390 . S
C1115 C1114 1.387 . S
H1116 C1128 0.930 . S
H1117 C1130 0.930 . S
H1118 C1131 0.930 . S
H1119 C1135 0.959 . S
H1120 C1135 0.959 . S
H1121 C1135 0.961 . S
H1122 C1136 0.960 . S
H1123 C1136 0.961 . S
H1124 C1136 0.959 . S
H1125 C1139 0.929 . S
H1126 C1140 0.931 . S
H1127 C1142 0.930 . S
C1128 H1116 0.930 . S
C1128 C1129 1.399 . S
C1128 C1133 1.399 . S
C1129 C1128 1.399 . S
C1129 C1130 1.376 . S
C1130 H1117 0.930 . S
C1130 C1129 1.376 . S
C1130 C1131 1.388 . S
C1131 H1118 0.930 . S
C1131 C1130 1.388 . S
C1131 C1132 1.390 . S
C1132 C1131 1.390 . S
C1132 C1133 1.394 . S
C1132 C1138 1.465 1_455 S
C1133 C1128 1.399 . S
C1133 C1132 1.394 . S
C1133 C1134 1.516 . S
C1134 C1133 1.516 . S
C1134 C1135 1.502 . S
C1134 C1136 1.561 . S
C1134 C1137 1.526 1_455 S
C1135 H1119 0.959 . S
C1135 H1120 0.959 . S
C1135 H1121 0.961 . S
C1135 C1134 1.502 . S
C1136 H1122 0.960 . S
C1136 H1123 0.961 . S
C1136 H1124 0.959 . S
C1136 C1134 1.561 . S
C1137 C1134 1.526 1_655 S
C1137 C1138 1.396 . S
C1137 C1142 1.390 . S
C1138 C1132 1.465 1_655 S
C1138 C1137 1.396 . S
C1138 C1139 1.399 . S
C1139 H1125 0.929 . S
C1139 C1138 1.399 . S
C1139 C1140 1.385 . S
C1140 H1126 0.931 . S
C1140 C1139 1.385 . S
C1140 C1141 1.389 . S
C1141 C1140 1.389 . S
C1141 C1142 1.387 . S
C1142 H1127 0.930 . S
C1142 C1137 1.390 . S
C1142 C1141 1.387 . S
H1143 C1155 0.930 . S
H1144 C1157 0.930 . S
H1145 C1158 0.930 . S
H1146 C1162 0.959 . S
H1147 C1162 0.959 . S
H1148 C1162 0.961 . S
H1149 C1163 0.951 1_565 S
H1150 C1163 0.971 . S
H1151 C1163 0.958 . S
H1152 C1166 0.929 . S
H1153 C1167 0.931 . S
H1154 C1169 0.930 . S
C1155 H1143 0.930 . S
C1155 C1156 1.399 . S
C1155 C1160 1.399 . S
C1156 C1155 1.399 . S
C1156 C1157 1.376 . S
C1157 H1144 0.930 . S
C1157 C1156 1.376 . S
C1157 C1158 1.388 . S
C1158 H1145 0.930 . S
C1158 C1157 1.388 . S
C1158 C1159 1.390 . S
C1159 C1158 1.390 . S
C1159 C1160 1.394 . S
C1159 C1165 1.465 1_565 S
C1160 C1155 1.399 . S
C1160 C1159 1.394 . S
C1160 C1161 1.516 . S
C1161 C1160 1.516 . S
C1161 C1162 1.502 . S
C1161 C1163 1.562 1_565 S
C1161 C1164 1.526 1_565 S
C1162 H1146 0.959 . S
C1162 H1147 0.959 . S
C1162 H1148 0.961 . S
C1162 C1161 1.502 . S
C1163 H1149 0.951 1_545 S
C1163 H1150 0.971 . S
C1163 H1151 0.958 . S
C1163 C1161 1.562 1_545 S
C1164 C1161 1.526 1_545 S
C1164 C1165 1.396 . S
C1164 C1169 1.390 . S
C1165 C1159 1.465 1_545 S
C1165 C1164 1.396 . S
C1165 C1166 1.399 . S
C1166 H1152 0.929 . S
C1166 C1165 1.399 . S
C1166 C1167 1.385 . S
C1167 H1153 0.931 . S
C1167 C1166 1.385 . S
C1167 C1168 1.389 . S
C1168 C1167 1.389 . S
C1168 C1169 1.387 . S
C1169 H1154 0.930 . S
C1169 C1164 1.390 . S
C1169 C1168 1.387 . S
H1170 C1182 0.930 . S
H1171 C1184 0.930 . S
H1172 C1185 0.930 . S
H1173 C1189 0.959 . S
H1174 C1189 0.959 . S
H1175 C1189 0.961 . S
H1176 C1190 0.960 . S
H1177 C1190 0.961 . S
H1178 C1190 0.959 . S
H1179 C1193 0.929 . S
H1180 C1194 0.931 . S
H1181 C1196 0.930 . S
C1182 H1170 0.930 . S
C1182 C1183 1.399 . S
C1182 C1187 1.399 . S
C1183 C1182 1.399 . S
C1183 C1184 1.376 . S
C1184 H1171 0.930 . S
C1184 C1183 1.376 . S
C1184 C1185 1.388 . S
C1185 H1172 0.930 . S
C1185 C1184 1.388 . S
C1185 C1186 1.390 . S
C1186 C1185 1.390 . S
C1186 C1187 1.394 . S
C1186 C1192 1.465 . S
C1187 C1182 1.399 . S
C1187 C1186 1.394 . S
C1187 C1188 1.516 . S
C1188 C1187 1.516 . S
C1188 C1189 1.502 . S
C1188 C1190 1.561 . S
C1188 C1191 1.526 . S
C1189 H1173 0.959 . S
C1189 H1174 0.959 . S
C1189 H1175 0.961 . S
C1189 C1188 1.502 . S
C1190 H1176 0.960 . S
C1190 H1177 0.961 . S
C1190 H1178 0.959 . S
C1190 C1188 1.561 . S
C1191 C1188 1.526 . S
C1191 C1192 1.396 . S
C1191 C1196 1.390 . S
C1192 C1186 1.465 . S
C1192 C1191 1.396 . S
C1192 C1193 1.399 . S
C1193 H1179 0.929 . S
C1193 C1192 1.399 . S
C1193 C1194 1.385 . S
C1194 H1180 0.931 . S
C1194 C1193 1.385 . S
C1194 C1195 1.389 . S
C1195 C1194 1.389 . S
C1195 C1196 1.387 . S
C1196 H1181 0.930 . S
C1196 C1191 1.390 . S
C1196 C1195 1.387 . S
H1197 C1209 0.930 . S
H1198 C1211 0.930 . S
H1199 C1212 0.930 . S
H1200 C1216 0.959 . S
H1201 C1216 0.959 . S
H1202 C1216 0.961 1_455 S
H1203 C1217 0.960 . S
H1204 C1217 0.961 . S
H1205 C1217 0.959 . S
H1206 C1220 0.929 . S
H1207 C1221 0.931 . S
H1208 C1223 0.930 . S
C1209 H1197 0.930 . S
C1209 C1210 1.399 . S
C1209 C1214 1.399 . S
C1210 C1209 1.399 . S
C1210 C1211 1.376 . S
C1211 H1198 0.930 . S
C1211 C1210 1.376 . S
C1211 C1212 1.388 . S
C1212 H1199 0.930 . S
C1212 C1211 1.388 . S
C1212 C1213 1.390 . S
C1213 C1212 1.390 . S
C1213 C1214 1.394 . S
C1213 C1219 1.465 1_455 S
C1214 C1209 1.399 . S
C1214 C1213 1.394 . S
C1214 C1215 1.516 1_455 S
C1215 C1214 1.516 1_655 S
C1215 C1216 1.502 . S
C1215 C1217 1.561 . S
C1215 C1218 1.526 . S
C1216 H1200 0.959 . S
C1216 H1201 0.959 . S
C1216 H1202 0.961 1_655 S
C1216 C1215 1.502 . S
C1217 H1203 0.960 . S
C1217 H1204 0.961 . S
C1217 H1205 0.959 . S
C1217 C1215 1.561 . S
C1218 C1215 1.526 . S
C1218 C1219 1.396 . S
C1218 C1223 1.390 . S
C1219 C1213 1.465 1_655 S
C1219 C1218 1.396 . S
C1219 C1220 1.399 . S
C1220 H1206 0.929 . S
C1220 C1219 1.399 . S
C1220 C1221 1.385 . S
C1221 H1207 0.931 . S
C1221 C1220 1.385 . S
C1221 C1222 1.389 . S
C1222 C1221 1.389 . S
C1222 C1223 1.387 . S
C1223 H1208 0.930 . S
C1223 C1218 1.390 . S
C1223 C1222 1.387 . S
H1224 C1236 0.930 . S
H1225 C1238 0.930 . S
H1226 C1239 0.930 . S
H1227 C1243 0.959 . S
H1228 C1243 0.959 . S
H1229 C1243 0.961 . S
H1230 C1244 0.960 1_565 S
H1231 C1244 0.961 . S
H1232 C1244 0.959 1_565 S
H1233 C1247 0.929 . S
H1234 C1248 0.931 . S
H1235 C1250 0.930 . S
C1236 H1224 0.930 . S
C1236 C1237 1.399 . S
C1236 C1241 1.399 . S
C1237 C1236 1.399 . S
C1237 C1238 1.376 . S
C1238 H1225 0.930 . S
C1238 C1237 1.376 . S
C1238 C1239 1.388 . S
C1239 H1226 0.930 . S
C1239 C1238 1.388 . S
C1239 C1240 1.390 . S
C1240 C1239 1.390 . S
C1240 C1241 1.394 . S
C1240 C1246 1.465 1_565 S
C1241 C1236 1.399 . S
C1241 C1240 1.394 . S
C1241 C1242 1.516 1_565 S
C1242 C1241 1.516 1_545 S
C1242 C1243 1.502 . S
C1242 C1244 1.561 . S
C1242 C1245 1.526 . S
C1243 H1227 0.959 . S
C1243 H1228 0.959 . S
C1243 H1229 0.961 . S
C1243 C1242 1.502 . S
C1244 H1230 0.960 1_545 S
C1244 H1231 0.961 . S
C1244 H1232 0.959 1_545 S
C1244 C1242 1.561 . S
C1245 C1242 1.526 . S
C1245 C1246 1.396 . S
C1245 C1250 1.390 . S
C1246 C1240 1.465 1_545 S
C1246 C1245 1.396 . S
C1246 C1247 1.399 . S
C1247 H1233 0.929 . S
C1247 C1246 1.399 . S
C1247 C1248 1.385 . S
C1248 H1234 0.931 . S
C1248 C1247 1.385 . S
C1248 C1249 1.389 . S
C1249 C1248 1.389 . S
C1249 C1250 1.387 . S
C1250 H1235 0.930 . S
C1250 C1245 1.390 . S
C1250 C1249 1.387 . S
H1251 C1263 0.930 . S
H1252 C1265 0.930 . S
H1253 C1266 0.930 . S
H1254 C1270 0.959 . S
H1255 C1270 0.959 . S
H1256 C1270 0.961 . S
H1257 C1271 0.960 . S
H1258 C1271 0.961 . S
H1259 C1271 0.959 . S
H1260 C1274 0.929 . S
H1261 C1275 0.931 . S
H1262 C1277 0.930 . S
C1263 H1251 0.930 . S
C1263 C1264 1.399 . S
C1263 C1268 1.399 . S
C1264 C1263 1.399 . S
C1264 C1265 1.376 . S
C1265 H1252 0.930 . S
C1265 C1264 1.376 . S
C1265 C1266 1.388 . S
C1266 H1253 0.930 . S
C1266 C1265 1.388 . S
C1266 C1267 1.390 . S
C1267 C1266 1.390 . S
C1267 C1268 1.394 . S
C1267 C1273 1.465 . S
C1268 C1263 1.399 . S
C1268 C1267 1.394 . S
C1268 C1269 1.516 . S
C1269 C1268 1.516 . S
C1269 C1270 1.502 . S
C1269 C1271 1.561 . S
C1269 C1272 1.526 . S
C1270 H1254 0.959 . S
C1270 H1255 0.959 . S
C1270 H1256 0.961 . S
C1270 C1269 1.502 . S
C1271 H1257 0.960 . S
C1271 H1258 0.961 . S
C1271 H1259 0.959 . S
C1271 C1269 1.561 . S
C1272 C1269 1.526 . S
C1272 C1273 1.396 . S
C1272 C1277 1.390 . S
C1273 C1267 1.465 . S
C1273 C1272 1.396 . S
C1273 C1274 1.399 . S
C1274 H1260 0.929 . S
C1274 C1273 1.399 . S
C1274 C1275 1.385 . S
C1275 H1261 0.931 . S
C1275 C1274 1.385 . S
C1275 C1276 1.389 . S
C1276 C1275 1.389 . S
C1276 C1277 1.387 . S
C1277 H1262 0.930 . S
C1277 C1272 1.390 . S
C1277 C1276 1.387 . S
H1278 C1290 0.930 . S
H1279 C1292 0.930 . S
H1280 C1293 0.930 . S
H1281 C1297 0.959 . S
H1282 C1297 0.959 . S
H1283 C1297 0.961 . S
H1284 C1298 0.960 . S
H1285 C1298 0.961 . S
H1286 C1298 0.959 . S
H1287 C1301 0.929 . S
H1288 C1302 0.931 . S
H1289 C1304 0.930 . S
C1290 H1278 0.930 . S
C1290 C1291 1.399 . S
C1290 C1295 1.399 . S
C1291 C1290 1.399 . S
C1291 C1292 1.376 . S
C1292 H1279 0.930 . S
C1292 C1291 1.376 . S
C1292 C1293 1.388 . S
C1293 H1280 0.930 . S
C1293 C1292 1.388 . S
C1293 C1294 1.390 . S
C1294 C1293 1.390 . S
C1294 C1295 1.394 . S
C1294 C1300 1.465 1_455 S
C1295 C1290 1.399 . S
C1295 C1294 1.394 . S
C1295 C1296 1.516 1_455 S
C1296 C1295 1.516 1_655 S
C1296 C1297 1.502 . S
C1296 C1298 1.561 . S
C1296 C1299 1.526 . S
C1297 H1281 0.959 . S
C1297 H1282 0.959 . S
C1297 H1283 0.961 . S
C1297 C1296 1.502 . S
C1298 H1284 0.960 . S
C1298 H1285 0.961 . S
C1298 H1286 0.959 . S
C1298 C1296 1.561 . S
C1299 C1296 1.526 . S
C1299 C1300 1.396 . S
C1299 C1304 1.390 . S
C1300 C1294 1.465 1_655 S
C1300 C1299 1.396 . S
C1300 C1301 1.399 . S
C1301 H1287 0.929 . S
C1301 C1300 1.399 . S
C1301 C1302 1.385 . S
C1302 H1288 0.931 . S
C1302 C1301 1.385 . S
C1302 C1303 1.389 . S
C1303 C1302 1.389 . S
C1303 C1304 1.387 . S
C1304 H1289 0.930 . S
C1304 C1299 1.390 . S
C1304 C1303 1.387 . S
H1305 C1317 0.930 . S
H1306 C1319 0.930 . S
H1307 C1320 0.930 . S
H1308 C1324 0.959 . S
H1309 C1324 0.959 . S
H1310 C1324 0.961 1_545 S
H1311 C1325 0.960 . S
H1312 C1325 0.961 1_565 S
H1313 C1325 0.959 . S
H1314 C1328 0.928 . S
H1315 C1329 0.931 . S
H1316 C1331 0.930 . S
C1317 H1305 0.930 . S
C1317 C1318 1.399 . S
C1317 C1322 1.399 . S
C1318 C1317 1.399 . S
C1318 C1319 1.376 . S
C1319 H1306 0.930 . S
C1319 C1318 1.376 . S
C1319 C1320 1.388 . S
C1320 H1307 0.930 . S
C1320 C1319 1.388 . S
C1320 C1321 1.390 . S
C1321 C1320 1.390 . S
C1321 C1322 1.394 . S
C1321 C1327 1.465 . S
C1322 C1317 1.399 . S
C1322 C1321 1.394 . S
C1322 C1323 1.516 . S
C1323 C1322 1.516 . S
C1323 C1324 1.502 1_545 S
C1323 C1325 1.561 . S
C1323 C1326 1.526 1_545 S
C1324 H1308 0.959 . S
C1324 H1309 0.959 . S
C1324 H1310 0.961 1_565 S
C1324 C1323 1.502 1_565 S
C1325 H1311 0.960 . S
C1325 H1312 0.961 1_545 S
C1325 H1313 0.959 . S
C1325 C1323 1.561 . S
C1326 C1323 1.526 1_565 S
C1326 C1327 1.396 1_565 S
C1326 C1331 1.390 . S
C1327 C1321 1.465 . S
C1327 C1326 1.396 1_545 S
C1327 C1328 1.399 1_545 S
C1328 H1314 0.928 . S
C1328 C1327 1.399 1_565 S
C1328 C1329 1.385 . S
C1329 H1315 0.931 . S
C1329 C1328 1.385 . S
C1329 C1330 1.389 . S
C1330 C1329 1.389 . S
C1330 C1331 1.387 . S
C1331 H1316 0.930 . S
C1331 C1326 1.390 . S
C1331 C1330 1.387 . S
H1332 C1344 0.930 . S
H1333 C1346 0.930 . S
H1334 C1347 0.930 . S
H1335 C1351 0.959 . S
H1336 C1351 0.959 . S
H1337 C1351 0.961 . S
H1338 C1352 0.960 . S
H1339 C1352 0.961 . S
H1340 C1352 0.959 . S
H1341 C1355 0.929 . S
H1342 C1356 0.931 . S
H1343 C1358 0.930 . S
C1344 H1332 0.930 . S
C1344 C1345 1.399 . S
C1344 C1349 1.399 . S
C1345 C1344 1.399 . S
C1345 C1346 1.376 . S
C1346 H1333 0.930 . S
C1346 C1345 1.376 . S
C1346 C1347 1.388 . S
C1347 H1334 0.930 . S
C1347 C1346 1.388 . S
C1347 C1348 1.390 . S
C1348 C1347 1.390 . S
C1348 C1349 1.394 . S
C1348 C1354 1.465 . S
C1349 C1344 1.399 . S
C1349 C1348 1.394 . S
C1349 C1350 1.516 . S
C1350 C1349 1.516 . S
C1350 C1351 1.502 . S
C1350 C1352 1.561 . S
C1350 C1353 1.526 . S
C1351 H1335 0.959 . S
C1351 H1336 0.959 . S
C1351 H1337 0.961 . S
C1351 C1350 1.502 . S
C1352 H1338 0.960 . S
C1352 H1339 0.961 . S
C1352 H1340 0.959 . S
C1352 C1350 1.561 . S
C1353 C1350 1.526 . S
C1353 C1354 1.396 . S
C1353 C1358 1.390 . S
C1354 C1348 1.465 . S
C1354 C1353 1.396 . S
C1354 C1355 1.399 . S
C1355 H1341 0.929 . S
C1355 C1354 1.399 . S
C1355 C1356 1.385 . S
C1356 H1342 0.931 . S
C1356 C1355 1.385 . S
C1356 C1357 1.389 . S
C1357 C1356 1.389 . S
C1357 C1358 1.387 . S
C1358 H1343 0.930 . S
C1358 C1353 1.390 . S
C1358 C1357 1.387 . S
H1359 C1371 0.930 . S
H1360 C1373 0.930 . S
H1361 C1374 0.930 . S
H1362 C1378 0.959 . S
H1363 C1378 0.959 . S
H1364 C1378 0.961 . S
H1365 C1379 0.960 . S
H1366 C1379 0.961 . S
H1367 C1379 0.959 . S
H1368 C1382 0.929 . S
H1369 C1383 0.931 . S
H1370 C1385 0.930 . S
C1371 H1359 0.930 . S
C1371 C1372 1.399 . S
C1371 C1376 1.399 . S
C1372 C1371 1.399 . S
C1372 C1373 1.376 . S
C1373 H1360 0.930 . S
C1373 C1372 1.376 . S
C1373 C1374 1.388 . S
C1374 H1361 0.930 . S
C1374 C1373 1.388 . S
C1374 C1375 1.390 . S
C1375 C1374 1.390 . S
C1375 C1376 1.394 . S
C1375 C1381 1.465 . S
C1376 C1371 1.399 . S
C1376 C1375 1.394 . S
C1376 C1377 1.516 . S
C1377 C1376 1.516 . S
C1377 C1378 1.502 . S
C1377 C1379 1.561 . S
C1377 C1380 1.526 . S
C1378 H1362 0.959 . S
C1378 H1363 0.959 . S
C1378 H1364 0.961 . S
C1378 C1377 1.502 . S
C1379 H1365 0.960 . S
C1379 H1366 0.961 . S
C1379 H1367 0.959 . S
C1379 C1377 1.561 . S
C1380 C1377 1.526 . S
C1380 C1381 1.396 . S
C1380 C1385 1.390 . S
C1381 C1375 1.465 . S
C1381 C1380 1.396 . S
C1381 C1382 1.399 . S
C1382 H1368 0.929 . S
C1382 C1381 1.399 . S
C1382 C1383 1.385 . S
C1383 H1369 0.931 . S
C1383 C1382 1.385 . S
C1383 C1384 1.389 . S
C1384 C1383 1.389 . S
C1384 C1385 1.387 . S
C1385 H1370 0.930 . S
C1385 C1380 1.390 . S
C1385 C1384 1.387 . S
H1386 C1398 0.930 . S
H1387 C1400 0.930 . S
H1388 C1401 0.930 . S
H1389 C1405 0.959 . S
H1390 C1405 0.959 . S
H1391 C1405 0.961 . S
H1392 C1406 0.960 . S
H1393 C1406 0.961 . S
H1394 C1406 0.959 . S
H1395 C1409 0.929 . S
H1396 C1410 0.931 . S
H1397 C1412 0.930 . S
C1398 H1386 0.930 . S
C1398 C1399 1.399 . S
C1398 C1403 1.399 . S
C1399 C1398 1.399 . S
C1399 C1400 1.376 . S
C1400 H1387 0.930 . S
C1400 C1399 1.376 . S
C1400 C1401 1.388 . S
C1401 H1388 0.930 . S
C1401 C1400 1.388 . S
C1401 C1402 1.390 . S
C1402 C1401 1.390 . S
C1402 C1403 1.394 . S
C1402 C1408 1.465 . S
C1403 C1398 1.399 . S
C1403 C1402 1.394 . S
C1403 C1404 1.516 . S
C1404 C1403 1.516 . S
C1404 C1405 1.502 . S
C1404 C1406 1.561 . S
C1404 C1407 1.526 . S
C1405 H1389 0.959 . S
C1405 H1390 0.959 . S
C1405 H1391 0.961 . S
C1405 C1404 1.502 . S
C1406 H1392 0.960 . S
C1406 H1393 0.961 . S
C1406 H1394 0.959 . S
C1406 C1404 1.561 . S
C1407 C1404 1.526 . S
C1407 C1408 1.396 . S
C1407 C1412 1.390 . S
C1408 C1402 1.465 . S
C1408 C1407 1.396 . S
C1408 C1409 1.399 . S
C1409 H1395 0.929 . S
C1409 C1408 1.399 . S
C1409 C1410 1.385 . S
C1410 H1396 0.931 . S
C1410 C1409 1.385 . S
C1410 C1411 1.389 . S
C1411 C1410 1.389 . S
C1411 C1412 1.387 . S
C1412 H1397 0.930 . S
C1412 C1407 1.390 . S
C1412 C1411 1.387 . S
H1413 C1425 0.930 . S
H1414 C1427 0.930 . S
H1415 C1428 0.930 . S
H1416 C1432 0.959 . S
H1417 C1432 0.959 . S
H1418 C1432 0.961 . S
H1419 C1433 0.960 . S
H1420 C1433 0.961 . S
H1421 C1433 0.959 . S
H1422 C1436 0.929 . S
H1423 C1437 0.931 . S
H1424 C1439 0.930 . S
C1425 H1413 0.930 . S
C1425 C1426 1.399 . S
C1425 C1430 1.399 . S
C1426 C1425 1.399 . S
C1426 C1427 1.376 . S
C1427 H1414 0.930 . S
C1427 C1426 1.376 . S
C1427 C1428 1.388 . S
C1428 H1415 0.930 . S
C1428 C1427 1.388 . S
C1428 C1429 1.390 . S
C1429 C1428 1.390 . S
C1429 C1430 1.394 . S
C1429 C1435 1.465 . S
C1430 C1425 1.399 . S
C1430 C1429 1.394 . S
C1430 C1431 1.516 . S
C1431 C1430 1.516 . S
C1431 C1432 1.502 . S
C1431 C1433 1.561 . S
C1431 C1434 1.526 . S
C1432 H1416 0.959 . S
C1432 H1417 0.959 . S
C1432 H1418 0.961 . S
C1432 C1431 1.502 . S
C1433 H1419 0.960 . S
C1433 H1420 0.961 . S
C1433 H1421 0.959 . S
C1433 C1431 1.561 . S
C1434 C1431 1.526 . S
C1434 C1435 1.396 . S
C1434 C1439 1.390 . S
C1435 C1429 1.465 . S
C1435 C1434 1.396 . S
C1435 C1436 1.399 . S
C1436 H1422 0.929 . S
C1436 C1435 1.399 . S
C1436 C1437 1.385 . S
C1437 H1423 0.931 . S
C1437 C1436 1.385 . S
C1437 C1438 1.389 . S
C1438 C1437 1.389 . S
C1438 C1439 1.387 . S
C1439 H1424 0.930 . S
C1439 C1434 1.390 . S
C1439 C1438 1.387 . S
H1440 C1452 0.930 . S
H1441 C1454 0.930 . S
H1442 C1455 0.930 . S
H1443 C1459 0.959 . S
H1444 C1459 0.959 . S
H1445 C1459 0.961 . S
H1446 C1460 0.960 . S
H1447 C1460 0.961 . S
H1448 C1460 0.959 . S
H1449 C1463 0.929 . S
H1450 C1464 0.931 . S
H1451 C1466 0.930 . S
C1452 H1440 0.930 . S
C1452 C1453 1.399 . S
C1452 C1457 1.399 . S
C1453 C1452 1.399 . S
C1453 C1454 1.376 . S
C1454 H1441 0.930 . S
C1454 C1453 1.376 . S
C1454 C1455 1.388 . S
C1455 H1442 0.930 . S
C1455 C1454 1.388 . S
C1455 C1456 1.390 . S
C1456 C1455 1.390 . S
C1456 C1457 1.394 . S
C1456 C1462 1.465 . S
C1457 C1452 1.399 . S
C1457 C1456 1.394 . S
C1457 C1458 1.516 . S
C1458 C1457 1.516 . S
C1458 C1459 1.502 . S
C1458 C1460 1.561 . S
C1458 C1461 1.526 . S
C1459 H1443 0.959 . S
C1459 H1444 0.959 . S
C1459 H1445 0.961 . S
C1459 C1458 1.502 . S
C1460 H1446 0.960 . S
C1460 H1447 0.961 . S
C1460 H1448 0.959 . S
C1460 C1458 1.561 . S
C1461 C1458 1.526 . S
C1461 C1462 1.396 . S
C1461 C1466 1.390 . S
C1462 C1456 1.465 . S
C1462 C1461 1.396 . S
C1462 C1463 1.399 . S
C1463 H1449 0.929 . S
C1463 C1462 1.399 . S
C1463 C1464 1.385 . S
C1464 H1450 0.931 . S
C1464 C1463 1.385 . S
C1464 C1465 1.389 . S
C1465 C1464 1.389 . S
C1465 C1466 1.387 . S
C1466 H1451 0.930 . S
C1466 C1461 1.390 . S
C1466 C1465 1.387 . S
H1467 C1479 0.930 . S
H1468 C1481 0.930 . S
H1469 C1482 0.930 . S
H1470 C1486 0.959 . S
H1471 C1486 0.959 . S
H1472 C1486 0.961 . S
H1473 C1487 0.960 . S
H1474 C1487 0.961 . S
H1475 C1487 0.959 . S
H1476 C1490 0.929 . S
H1477 C1491 0.931 . S
H1478 C1493 0.930 . S
C1479 H1467 0.930 . S
C1479 C1480 1.399 . S
C1479 C1484 1.399 . S
C1480 C1479 1.399 . S
C1480 C1481 1.376 . S
C1481 H1468 0.930 . S
C1481 C1480 1.376 . S
C1481 C1482 1.388 . S
C1482 H1469 0.930 . S
C1482 C1481 1.388 . S
C1482 C1483 1.390 . S
C1483 C1482 1.390 . S
C1483 C1484 1.394 . S
C1483 C1489 1.465 . S
C1484 C1479 1.399 . S
C1484 C1483 1.394 . S
C1484 C1485 1.516 . S
C1485 C1484 1.516 . S
C1485 C1486 1.502 . S
C1485 C1487 1.561 . S
C1485 C1488 1.526 . S
C1486 H1470 0.959 . S
C1486 H1471 0.959 . S
C1486 H1472 0.961 . S
C1486 C1485 1.502 . S
C1487 H1473 0.960 . S
C1487 H1474 0.961 . S
C1487 H1475 0.959 . S
C1487 C1485 1.561 . S
C1488 C1485 1.526 . S
C1488 C1489 1.396 . S
C1488 C1493 1.390 . S
C1489 C1483 1.465 . S
C1489 C1488 1.396 . S
C1489 C1490 1.399 . S
C1490 H1476 0.929 . S
C1490 C1489 1.399 . S
C1490 C1491 1.385 . S
C1491 H1477 0.931 . S
C1491 C1490 1.385 . S
C1491 C1492 1.389 . S
C1492 C1491 1.389 . S
C1492 C1493 1.387 . S
C1493 H1478 0.930 . S
C1493 C1488 1.390 . S
C1493 C1492 1.387 . S
H1494 C1506 0.930 . S
H1495 C1508 0.930 . S
H1496 C1509 0.930 . S
H1497 C1513 0.959 . S
H1498 C1513 0.959 . S
H1499 C1513 0.961 . S
H1500 C1514 0.960 . S
H1501 C1514 0.961 . S
H1502 C1514 0.959 . S
H1503 C1517 0.929 1_565 S
H1504 C1518 0.931 . S
H1505 C1520 0.930 . S
C1506 H1494 0.930 . S
C1506 C1507 1.399 . S
C1506 C1511 1.399 . S
C1507 C1506 1.399 . S
C1507 C1508 1.376 . S
C1508 H1495 0.930 . S
C1508 C1507 1.376 . S
C1508 C1509 1.388 1_556 S
C1509 H1496 0.930 . S
C1509 C1508 1.388 1_554 S
C1509 C1510 1.390 1_554 S
C1510 C1509 1.390 1_556 S
C1510 C1511 1.394 . S
C1510 C1516 1.465 1_566 S
C1511 C1506 1.399 . S
C1511 C1510 1.394 . S
C1511 C1512 1.516 1_565 S
C1512 C1511 1.516 1_545 S
C1512 C1513 1.502 . S
C1512 C1514 1.561 . S
C1512 C1515 1.526 1_556 S
C1513 H1497 0.959 . S
C1513 H1498 0.959 . S
C1513 H1499 0.961 . S
C1513 C1512 1.502 . S
C1514 H1500 0.960 . S
C1514 H1501 0.961 . S
C1514 H1502 0.959 . S
C1514 C1512 1.561 . S
C1515 C1512 1.526 1_554 S
C1515 C1516 1.396 . S
C1515 C1520 1.390 . S
C1516 C1510 1.465 1_544 S
C1516 C1515 1.396 . S
C1516 C1517 1.399 . S
C1517 H1503 0.929 1_545 S
C1517 C1516 1.399 . S
C1517 C1518 1.385 . S
C1518 H1504 0.931 . S
C1518 C1517 1.385 . S
C1518 C1519 1.389 . S
C1519 C1518 1.389 . S
C1519 C1520 1.387 . S
C1520 H1505 0.930 . S
C1520 C1515 1.390 . S
C1520 C1519 1.387 . S
H1521 C1533 0.930 . S
H1522 C1535 0.930 . S
H1523 C1536 0.930 . S
H1524 C1540 0.959 . S
H1525 C1540 0.959 . S
H1526 C1540 0.961 . S
H1527 C1541 0.960 . S
H1528 C1541 0.961 . S
H1529 C1541 0.959 . S
H1530 C1544 0.929 . S
H1531 C1545 0.931 . S
H1532 C1547 0.930 . S
C1533 H1521 0.930 . S
C1533 C1534 1.399 . S
C1533 C1538 1.399 . S
C1534 C1533 1.399 . S
C1534 C1535 1.376 . S
C1535 H1522 0.930 . S
C1535 C1534 1.376 . S
C1535 C1536 1.388 . S
C1536 H1523 0.930 . S
C1536 C1535 1.388 . S
C1536 C1537 1.390 . S
C1537 C1536 1.390 . S
C1537 C1538 1.394 . S
C1537 C1543 1.465 . S
C1538 C1533 1.399 . S
C1538 C1537 1.394 . S
C1538 C1539 1.516 . S
C1539 C1538 1.516 . S
C1539 C1540 1.502 . S
C1539 C1541 1.561 . S
C1539 C1542 1.526 . S
C1540 H1524 0.959 . S
C1540 H1525 0.959 . S
C1540 H1526 0.961 . S
C1540 C1539 1.502 . S
C1541 H1527 0.960 . S
C1541 H1528 0.961 . S
C1541 H1529 0.959 . S
C1541 C1539 1.561 . S
C1542 C1539 1.526 . S
C1542 C1543 1.396 . S
C1542 C1547 1.390 . S
C1543 C1537 1.465 . S
C1543 C1542 1.396 . S
C1543 C1544 1.399 . S
C1544 H1530 0.929 . S
C1544 C1543 1.399 . S
C1544 C1545 1.385 . S
C1545 H1531 0.931 . S
C1545 C1544 1.385 . S
C1545 C1546 1.389 . S
C1546 C1545 1.389 . S
C1546 C1547 1.387 . S
C1547 H1532 0.930 . S
C1547 C1542 1.390 . S
C1547 C1546 1.387 . S
H1548 C1560 0.930 . S
H1549 C1562 0.930 . S
H1550 C1563 0.930 . S
H1551 C1567 0.959 . S
H1552 C1567 0.959 . S
H1553 C1567 0.961 . S
H1554 C1568 0.960 . S
H1555 C1568 0.961 . S
H1556 C1568 0.919 1_554 S
H1557 C1571 0.929 1_455 S
H1558 C1572 0.931 . S
H1559 C1574 0.930 . S
C1560 H1548 0.930 . S
C1560 C1561 1.399 . S
C1560 C1565 1.399 . S
C1561 C1560 1.399 . S
C1561 C1562 1.376 . S
C1562 H1549 0.930 . S
C1562 C1561 1.376 . S
C1562 C1563 1.388 1_556 S
C1563 H1550 0.930 . S
C1563 C1562 1.388 1_554 S
C1563 C1564 1.390 . S
C1564 C1563 1.390 . S
C1564 C1565 1.394 1_554 S
C1564 C1570 1.465 1_455 S
C1565 C1560 1.399 . S
C1565 C1564 1.394 1_556 S
C1565 C1566 1.516 1_455 S
C1566 C1565 1.516 1_655 S
C1566 C1567 1.502 . S
C1566 C1568 1.561 . S
C1566 C1569 1.526 1_556 S
C1567 H1551 0.959 . S
C1567 H1552 0.959 . S
C1567 H1553 0.961 . S
C1567 C1566 1.502 . S
C1568 H1554 0.960 . S
C1568 H1555 0.961 . S
C1568 H1556 0.919 1_556 S
C1568 C1566 1.561 . S
C1569 C1566 1.526 1_554 S
C1569 C1570 1.396 . S
C1569 C1574 1.390 . S
C1570 C1564 1.465 1_655 S
C1570 C1569 1.396 . S
C1570 C1571 1.399 . S
C1571 H1557 0.929 1_655 S
C1571 C1570 1.399 . S
C1571 C1572 1.385 . S
C1572 H1558 0.931 . S
C1572 C1571 1.385 . S
C1572 C1573 1.389 . S
C1573 C1572 1.389 . S
C1573 C1574 1.387 . S
C1574 H1559 0.930 . S
C1574 C1569 1.390 . S
C1574 C1573 1.387 . S
H1575 C1587 0.930 . S
H1576 C1589 0.930 . S
H1577 C1590 0.930 1_565 S
H1578 C1594 0.959 . S
H1579 C1594 0.959 . S
H1580 C1594 0.961 . S
H1581 C1595 0.960 . S
H1582 C1595 0.961 . S
H1583 C1595 0.959 . S
H1584 C1598 0.929 . S
H1585 C1599 0.931 . S
H1586 C1601 0.930 . S
C1587 H1575 0.930 . S
C1587 C1588 1.399 . S
C1587 C1592 1.399 . S
C1588 C1587 1.399 . S
C1588 C1589 1.376 . S
C1589 H1576 0.930 . S
C1589 C1588 1.376 . S
C1589 C1590 1.388 . S
C1590 H1577 0.930 1_545 S
C1590 C1589 1.388 . S
C1590 C1591 1.390 . S
C1591 C1590 1.390 . S
C1591 C1592 1.394 . S
C1591 C1597 1.465 1_545 S
C1592 C1587 1.399 . S
C1592 C1591 1.394 . S
C1592 C1593 1.516 . S
C1593 C1592 1.516 . S
C1593 C1594 1.502 . S
C1593 C1595 1.561 . S
C1593 C1596 1.526 1_545 S
C1594 H1578 0.959 . S
C1594 H1579 0.959 . S
C1594 H1580 0.961 . S
C1594 C1593 1.502 . S
C1595 H1581 0.960 . S
C1595 H1582 0.961 . S
C1595 H1583 0.959 . S
C1595 C1593 1.561 . S
C1596 C1593 1.526 1_565 S
C1596 C1597 1.396 . S
C1596 C1601 1.390 . S
C1597 C1591 1.465 1_565 S
C1597 C1596 1.396 . S
C1597 C1598 1.399 . S
C1598 H1584 0.929 . S
C1598 C1597 1.399 . S
C1598 C1599 1.385 . S
C1599 H1585 0.931 . S
C1599 C1598 1.385 . S
C1599 C1600 1.389 . S
C1600 C1599 1.389 . S
C1600 C1601 1.387 . S
C1601 H1586 0.930 . S
C1601 C1596 1.390 . S
C1601 C1600 1.387 . S
H1602 C1614 0.930 . S
H1603 C1616 0.930 . S
H1604 C1617 0.930 . S
H1605 C1621 0.959 . S
H1606 C1621 0.959 . S
H1607 C1621 0.961 . S
H1608 C1622 0.960 . S
H1609 C1622 0.961 . S
H1610 C1622 0.959 . S
H1611 C1625 0.929 . S
H1612 C1626 0.931 . S
H1613 C1628 0.930 . S
C1614 H1602 0.930 . S
C1614 C1615 1.399 . S
C1614 C1619 1.399 . S
C1615 C1614 1.399 . S
C1615 C1616 1.376 . S
C1616 H1603 0.930 . S
C1616 C1615 1.376 . S
C1616 C1617 1.388 . S
C1617 H1604 0.930 . S
C1617 C1616 1.388 . S
C1617 C1618 1.390 . S
C1618 C1617 1.390 . S
C1618 C1619 1.394 . S
C1618 C1624 1.465 . S
C1619 C1614 1.399 . S
C1619 C1618 1.394 . S
C1619 C1620 1.516 1_554 S
C1620 C1619 1.516 1_556 S
C1620 C1621 1.502 . S
C1620 C1622 1.561 . S
C1620 C1623 1.526 . S
C1621 H1605 0.959 . S
C1621 H1606 0.959 . S
C1621 H1607 0.961 . S
C1621 C1620 1.502 . S
C1622 H1608 0.960 . S
C1622 H1609 0.961 . S
C1622 H1610 0.959 . S
C1622 C1620 1.561 . S
C1623 C1620 1.526 . S
C1623 C1624 1.396 1_556 S
C1623 C1628 1.390 . S
C1624 C1618 1.465 . S
C1624 C1623 1.396 1_554 S
C1624 C1625 1.399 . S
C1625 H1611 0.929 . S
C1625 C1624 1.399 . S
C1625 C1626 1.385 1_554 S
C1626 H1612 0.931 . S
C1626 C1625 1.385 1_556 S
C1626 C1627 1.389 . S
C1627 C1626 1.389 . S
C1627 C1628 1.387 . S
C1628 H1613 0.930 . S
C1628 C1623 1.390 . S
C1628 C1627 1.387 . S
H1629 C1641 0.930 . S
H1630 C1643 0.930 . S
H1631 C1644 0.930 . S
H1632 C1648 0.959 1_455 S
H1633 C1648 0.959 . S
H1634 C1648 0.961 1_455 S
H1635 C1649 0.960 . S
H1636 C1649 0.961 . S
H1637 C1649 0.959 . S
H1638 C1652 0.929 . S
H1639 C1653 0.931 . S
H1640 C1655 0.930 . S
C1641 H1629 0.930 . S
C1641 C1642 1.399 . S
C1641 C1646 1.399 . S
C1642 C1641 1.399 . S
C1642 C1643 1.376 . S
C1643 H1630 0.930 . S
C1643 C1642 1.376 . S
C1643 C1644 1.388 . S
C1644 H1631 0.930 . S
C1644 C1643 1.388 . S
C1644 C1645 1.390 . S
C1645 C1644 1.390 . S
C1645 C1646 1.394 . S
C1645 C1651 1.465 1_455 S
C1646 C1641 1.399 . S
C1646 C1645 1.394 . S
C1646 C1647 1.516 1_455 S
C1647 C1646 1.516 1_655 S
C1647 C1648 1.502 . S
C1647 C1649 1.561 . S
C1647 C1650 1.526 . S
C1648 H1632 0.959 1_655 S
C1648 H1633 0.959 . S
C1648 H1634 0.961 1_655 S
C1648 C1647 1.502 . S
C1649 H1635 0.960 . S
C1649 H1636 0.961 . S
C1649 H1637 0.959 . S
C1649 C1647 1.561 . S
C1650 C1647 1.526 . S
C1650 C1651 1.396 . S
C1650 C1655 1.390 . S
C1651 C1645 1.465 1_655 S
C1651 C1650 1.396 . S
C1651 C1652 1.399 . S
C1652 H1638 0.929 . S
C1652 C1651 1.399 . S
C1652 C1653 1.385 . S
C1653 H1639 0.931 . S
C1653 C1652 1.385 . S
C1653 C1654 1.389 . S
C1654 C1653 1.389 . S
C1654 C1655 1.387 . S
C1655 H1640 0.930 . S
C1655 C1650 1.390 . S
C1655 C1654 1.387 . S
H1656 C1668 0.930 . S
H1657 C1670 0.930 . S
H1658 C1671 0.930 . S
H1659 C1675 0.959 . S
H1660 C1675 0.959 . S
H1661 C1675 0.961 . S
H1662 C1676 0.960 . S
H1663 C1676 0.961 . S
H1664 C1676 0.959 . S
H1665 C1679 0.929 . S
H1666 C1680 0.931 . S
H1667 C1682 0.930 . S
C1668 H1656 0.930 . S
C1668 C1669 1.399 . S
C1668 C1673 1.399 . S
C1669 C1668 1.399 . S
C1669 C1670 1.376 . S
C1670 H1657 0.930 . S
C1670 C1669 1.376 . S
C1670 C1671 1.388 . S
C1671 H1658 0.930 . S
C1671 C1670 1.388 . S
C1671 C1672 1.390 . S
C1672 C1671 1.390 . S
C1672 C1673 1.394 . S
C1672 C1678 1.465 . S
C1673 C1668 1.399 . S
C1673 C1672 1.394 . S
C1673 C1674 1.516 . S
C1674 C1673 1.516 . S
C1674 C1675 1.502 . S
C1674 C1676 1.561 . S
C1674 C1677 1.526 . S
C1675 H1659 0.959 . S
C1675 H1660 0.959 . S
C1675 H1661 0.961 . S
C1675 C1674 1.502 . S
C1676 H1662 0.960 . S
C1676 H1663 0.961 . S
C1676 H1664 0.959 . S
C1676 C1674 1.561 . S
C1677 C1674 1.526 . S
C1677 C1678 1.396 . S
C1677 C1682 1.390 . S
C1678 C1672 1.465 . S
C1678 C1677 1.396 . S
C1678 C1679 1.399 . S
C1679 H1665 0.929 . S
C1679 C1678 1.399 . S
C1679 C1680 1.385 . S
C1680 H1666 0.931 . S
C1680 C1679 1.385 . S
C1680 C1681 1.389 . S
C1681 C1680 1.389 . S
C1681 C1682 1.387 . S
C1682 H1667 0.930 . S
C1682 C1677 1.390 . S
C1682 C1681 1.387 . S
H1683 C1695 0.930 . S
H1684 C1697 0.930 . S
H1685 C1698 0.930 . S
H1686 C1702 0.959 . S
H1687 C1702 0.959 . S
H1688 C1702 0.961 . S
H1689 C1703 0.960 . S
H1690 C1703 0.961 . S
H1691 C1703 0.959 . S
H1692 C1706 0.929 . S
H1693 C1707 0.931 . S
H1694 C1709 0.930 . S
C1695 H1683 0.930 . S
C1695 C1696 1.399 . S
C1695 C1700 1.399 . S
C1696 C1695 1.399 . S
C1696 C1697 1.376 . S
C1697 H1684 0.930 . S
C1697 C1696 1.376 . S
C1697 C1698 1.388 . S
C1698 H1685 0.930 . S
C1698 C1697 1.388 . S
C1698 C1699 1.390 . S
C1699 C1698 1.390 . S
C1699 C1700 1.394 . S
C1699 C1705 1.465 . S
C1700 C1695 1.399 . S
C1700 C1699 1.394 . S
C1700 C1701 1.516 . S
C1701 C1700 1.516 . S
C1701 C1702 1.502 . S
C1701 C1703 1.561 . S
C1701 C1704 1.526 . S
C1702 H1686 0.959 . S
C1702 H1687 0.959 . S
C1702 H1688 0.961 . S
C1702 C1701 1.502 . S
C1703 H1689 0.960 . S
C1703 H1690 0.961 . S
C1703 H1691 0.959 . S
C1703 C1701 1.561 . S
C1704 C1701 1.526 . S
C1704 C1705 1.396 . S
C1704 C1709 1.390 . S
C1705 C1699 1.465 . S
C1705 C1704 1.396 . S
C1705 C1706 1.399 . S
C1706 H1692 0.929 . S
C1706 C1705 1.399 . S
C1706 C1707 1.385 . S
C1707 H1693 0.931 . S
C1707 C1706 1.385 . S
C1707 C1708 1.389 . S
C1708 C1707 1.389 . S
C1708 C1709 1.387 . S
C1709 H1694 0.930 . S
C1709 C1704 1.390 . S
C1709 C1708 1.387 . S
H1710 C1722 0.930 . S
H1711 C1724 0.930 . S
H1712 C1725 0.930 . S
H1713 C1729 0.959 . S
H1714 C1729 0.959 . S
H1715 C1729 0.961 . S
H1716 C1730 0.960 . S
H1717 C1730 0.961 . S
H1718 C1730 0.959 . S
H1719 C1733 0.929 . S
H1720 C1734 0.931 . S
H1721 C1736 0.930 . S
C1722 H1710 0.930 . S
C1722 C1723 1.399 . S
C1722 C1727 1.399 . S
C1723 C1722 1.399 . S
C1723 C1724 1.376 . S
C1724 H1711 0.930 . S
C1724 C1723 1.376 . S
C1724 C1725 1.388 . S
C1725 H1712 0.930 . S
C1725 C1724 1.388 . S
C1725 C1726 1.390 . S
C1726 C1725 1.390 . S
C1726 C1727 1.394 . S
C1726 C1732 1.465 . S
C1727 C1722 1.399 . S
C1727 C1726 1.394 . S
C1727 C1728 1.516 . S
C1728 C1727 1.516 . S
C1728 C1729 1.502 . S
C1728 C1730 1.561 . S
C1728 C1731 1.526 . S
C1729 H1713 0.959 . S
C1729 H1714 0.959 . S
C1729 H1715 0.961 . S
C1729 C1728 1.502 . S
C1730 H1716 0.960 . S
C1730 H1717 0.961 . S
C1730 H1718 0.959 . S
C1730 C1728 1.561 . S
C1731 C1728 1.526 . S
C1731 C1732 1.396 . S
C1731 C1736 1.390 . S
C1732 C1726 1.465 . S
C1732 C1731 1.396 . S
C1732 C1733 1.399 . S
C1733 H1719 0.929 . S
C1733 C1732 1.399 . S
C1733 C1734 1.385 . S
C1734 H1720 0.931 . S
C1734 C1733 1.385 . S
C1734 C1735 1.389 . S
C1735 C1734 1.389 . S
C1735 C1736 1.387 . S
C1736 H1721 0.930 . S
C1736 C1731 1.390 . S
C1736 C1735 1.387 . S
H1737 C1749 0.930 . S
H1738 C1751 0.930 . S
H1739 C1752 0.930 . S
H1740 C1756 0.959 . S
H1741 C1756 0.959 . S
H1742 C1756 0.961 . S
H1743 C1757 0.960 . S
H1744 C1757 0.961 . S
H1745 C1757 0.959 . S
H1746 C1760 0.929 . S
H1747 C1761 0.931 . S
H1748 C1763 0.930 . S
C1749 H1737 0.930 . S
C1749 C1750 1.399 . S
C1749 C1754 1.399 . S
C1750 C1749 1.399 . S
C1750 C1751 1.376 . S
C1751 H1738 0.930 . S
C1751 C1750 1.376 . S
C1751 C1752 1.388 . S
C1752 H1739 0.930 . S
C1752 C1751 1.388 . S
C1752 C1753 1.390 . S
C1753 C1752 1.390 . S
C1753 C1754 1.394 . S
C1753 C1759 1.465 . S
C1754 C1749 1.399 . S
C1754 C1753 1.394 . S
C1754 C1755 1.516 . S
C1755 C1754 1.516 . S
C1755 C1756 1.502 . S
C1755 C1757 1.561 . S
C1755 C1758 1.526 . S
C1756 H1740 0.959 . S
C1756 H1741 0.959 . S
C1756 H1742 0.961 . S
C1756 C1755 1.502 . S
C1757 H1743 0.960 . S
C1757 H1744 0.961 . S
C1757 H1745 0.959 . S
C1757 C1755 1.561 . S
C1758 C1755 1.526 . S
C1758 C1759 1.396 . S
C1758 C1763 1.390 . S
C1759 C1753 1.465 . S
C1759 C1758 1.396 . S
C1759 C1760 1.399 . S
C1760 H1746 0.929 . S
C1760 C1759 1.399 . S
C1760 C1761 1.385 . S
C1761 H1747 0.931 . S
C1761 C1760 1.385 . S
C1761 C1762 1.389 . S
C1762 C1761 1.389 . S
C1762 C1763 1.387 . S
C1763 H1748 0.930 . S
C1763 C1758 1.390 . S
C1763 C1762 1.387 . S
H1764 C1776 0.930 . S
H1765 C1778 0.930 . S
H1766 C1779 0.930 . S
H1767 C1783 0.959 . S
H1768 C1783 0.959 . S
H1769 C1783 0.961 . S
H1770 C1784 0.960 . S
H1771 C1784 0.961 . S
H1772 C1784 0.959 . S
H1773 C1787 0.929 . S
H1774 C1788 0.931 . S
H1775 C1790 0.930 . S
C1776 H1764 0.930 . S
C1776 C1777 1.399 . S
C1776 C1781 1.399 . S
C1777 C1776 1.399 . S
C1777 C1778 1.376 . S
C1778 H1765 0.930 . S
C1778 C1777 1.376 . S
C1778 C1779 1.388 . S
C1779 H1766 0.930 . S
C1779 C1778 1.388 . S
C1779 C1780 1.390 . S
C1780 C1779 1.390 . S
C1780 C1781 1.394 . S
C1780 C1786 1.465 . S
C1781 C1776 1.399 . S
C1781 C1780 1.394 . S
C1781 C1782 1.516 . S
C1782 C1781 1.516 . S
C1782 C1783 1.502 . S
C1782 C1784 1.561 . S
C1782 C1785 1.526 . S
C1783 H1767 0.959 . S
C1783 H1768 0.959 . S
C1783 H1769 0.961 . S
C1783 C1782 1.502 . S
C1784 H1770 0.960 . S
C1784 H1771 0.961 . S
C1784 H1772 0.959 . S
C1784 C1782 1.561 . S
C1785 C1782 1.526 . S
C1785 C1786 1.396 . S
C1785 C1790 1.390 . S
C1786 C1780 1.465 . S
C1786 C1785 1.396 . S
C1786 C1787 1.399 . S
C1787 H1773 0.929 . S
C1787 C1786 1.399 . S
C1787 C1788 1.385 . S
C1788 H1774 0.931 . S
C1788 C1787 1.385 . S
C1788 C1789 1.389 . S
C1789 C1788 1.389 . S
C1789 C1790 1.387 . S
C1790 H1775 0.930 . S
C1790 C1785 1.390 . S
C1790 C1789 1.387 . S
H1791 C1803 0.930 . S
H1792 C1805 0.930 . S
H1793 C1806 0.930 . S
H1794 C1810 0.959 . S
H1795 C1810 0.959 . S
H1796 C1810 0.961 . S
H1797 C1811 0.960 . S
H1798 C1811 0.961 . S
H1799 C1811 0.959 . S
H1800 C1814 0.929 . S
H1801 C1815 0.931 . S
H1802 C1817 0.930 . S
C1803 H1791 0.930 . S
C1803 C1804 1.399 . S
C1803 C1808 1.399 . S
C1804 C1803 1.399 . S
C1804 C1805 1.376 . S
C1805 H1792 0.930 . S
C1805 C1804 1.376 . S
C1805 C1806 1.388 . S
C1806 H1793 0.930 . S
C1806 C1805 1.388 . S
C1806 C1807 1.390 . S
C1807 C1806 1.390 . S
C1807 C1808 1.394 . S
C1807 C1813 1.465 . S
C1808 C1803 1.399 . S
C1808 C1807 1.394 . S
C1808 C1809 1.516 . S
C1809 C1808 1.516 . S
C1809 C1810 1.502 . S
C1809 C1811 1.561 . S
C1809 C1812 1.526 . S
C1810 H1794 0.959 . S
C1810 H1795 0.959 . S
C1810 H1796 0.961 . S
C1810 C1809 1.502 . S
C1811 H1797 0.960 . S
C1811 H1798 0.961 . S
C1811 H1799 0.959 . S
C1811 C1809 1.561 . S
C1812 C1809 1.526 . S
C1812 C1813 1.396 . S
C1812 C1817 1.390 . S
C1813 C1807 1.465 . S
C1813 C1812 1.396 . S
C1813 C1814 1.399 . S
C1814 H1800 0.929 . S
C1814 C1813 1.399 . S
C1814 C1815 1.385 . S
C1815 H1801 0.931 . S
C1815 C1814 1.385 . S
C1815 C1816 1.389 . S
C1816 C1815 1.389 . S
C1816 C1817 1.387 . S
C1817 H1802 0.930 . S
C1817 C1812 1.390 . S
C1817 C1816 1.387 . S
H1818 C1830 0.930 . S
H1819 C1832 0.930 . S
H1820 C1833 0.930 . S
H1821 C1837 0.959 . S
H1822 C1837 0.959 . S
H1823 C1837 0.961 . S
H1824 C1838 0.960 . S
H1825 C1838 0.961 . S
H1826 C1838 0.959 . S
H1827 C1841 0.929 . S
H1828 C1842 0.931 . S
H1829 C1844 0.930 . S
C1830 H1818 0.930 . S
C1830 C1831 1.399 . S
C1830 C1835 1.399 . S
C1831 C1830 1.399 . S
C1831 C1832 1.376 . S
C1832 H1819 0.930 . S
C1832 C1831 1.376 . S
C1832 C1833 1.388 . S
C1833 H1820 0.930 . S
C1833 C1832 1.388 . S
C1833 C1834 1.390 . S
C1834 C1833 1.390 . S
C1834 C1835 1.394 . S
C1834 C1840 1.465 . S
C1835 C1830 1.399 . S
C1835 C1834 1.394 . S
C1835 C1836 1.516 . S
C1836 C1835 1.516 . S
C1836 C1837 1.502 . S
C1836 C1838 1.561 . S
C1836 C1839 1.526 . S
C1837 H1821 0.959 . S
C1837 H1822 0.959 . S
C1837 H1823 0.961 . S
C1837 C1836 1.502 . S
C1838 H1824 0.960 . S
C1838 H1825 0.961 . S
C1838 H1826 0.959 . S
C1838 C1836 1.561 . S
C1839 C1836 1.526 . S
C1839 C1840 1.396 . S
C1839 C1844 1.390 . S
C1840 C1834 1.465 . S
C1840 C1839 1.396 . S
C1840 C1841 1.399 . S
C1841 H1827 0.929 . S
C1841 C1840 1.399 . S
C1841 C1842 1.385 . S
C1842 H1828 0.931 . S
C1842 C1841 1.385 . S
C1842 C1843 1.389 . S
C1843 C1842 1.389 . S
C1843 C1844 1.387 . S
C1844 H1829 0.930 . S
C1844 C1839 1.390 . S
C1844 C1843 1.387 . S
H1845 C1857 0.930 . S
H1846 C1859 0.930 . S
H1847 C1860 0.930 . S
H1848 C1864 0.959 . S
H1849 C1864 0.959 . S
H1850 C1864 0.961 . S
H1851 C1865 0.960 . S
H1852 C1865 0.961 . S
H1853 C1865 0.959 . S
H1854 C1868 0.929 . S
H1855 C1869 0.931 . S
H1856 C1871 0.930 . S
C1857 H1845 0.930 . S
C1857 C1858 1.399 . S
C1857 C1862 1.399 . S
C1858 C1857 1.399 . S
C1858 C1859 1.376 . S
C1859 H1846 0.930 . S
C1859 C1858 1.376 . S
C1859 C1860 1.388 . S
C1860 H1847 0.930 . S
C1860 C1859 1.388 . S
C1860 C1861 1.390 . S
C1861 C1860 1.390 . S
C1861 C1862 1.394 . S
C1861 C1867 1.465 . S
C1862 C1857 1.399 . S
C1862 C1861 1.394 . S
C1862 C1863 1.516 . S
C1863 C1862 1.516 . S
C1863 C1864 1.502 . S
C1863 C1865 1.561 . S
C1863 C1866 1.526 . S
C1864 H1848 0.959 . S
C1864 H1849 0.959 . S
C1864 H1850 0.961 . S
C1864 C1863 1.502 . S
C1865 H1851 0.960 . S
C1865 H1852 0.961 . S
C1865 H1853 0.959 . S
C1865 C1863 1.561 . S
C1866 C1863 1.526 . S
C1866 C1867 1.396 . S
C1866 C1871 1.390 . S
C1867 C1861 1.465 . S
C1867 C1866 1.396 . S
C1867 C1868 1.399 . S
C1868 H1854 0.929 . S
C1868 C1867 1.399 . S
C1868 C1869 1.385 . S
C1869 H1855 0.931 . S
C1869 C1868 1.385 . S
C1869 C1870 1.389 . S
C1870 C1869 1.389 . S
C1870 C1871 1.387 . S
C1871 H1856 0.930 . S
C1871 C1866 1.390 . S
C1871 C1870 1.387 . S
H1872 C1884 0.930 . S
H1873 C1886 0.930 . S
H1874 C1887 0.930 . S
H1875 C1891 0.959 . S
H1876 C1891 0.959 . S
H1877 C1891 0.961 . S
H1878 C1892 0.960 . S
H1879 C1892 0.961 . S
H1880 C1892 0.959 . S
H1881 C1895 0.929 . S
H1882 C1896 0.931 . S
H1883 C1898 0.930 . S
C1884 H1872 0.930 . S
C1884 C1885 1.399 . S
C1884 C1889 1.399 . S
C1885 C1884 1.399 . S
C1885 C1886 1.376 . S
C1886 H1873 0.930 . S
C1886 C1885 1.376 . S
C1886 C1887 1.388 . S
C1887 H1874 0.930 . S
C1887 C1886 1.388 . S
C1887 C1888 1.390 . S
C1888 C1887 1.390 . S
C1888 C1889 1.394 . S
C1888 C1894 1.465 . S
C1889 C1884 1.399 . S
C1889 C1888 1.394 . S
C1889 C1890 1.516 . S
C1890 C1889 1.516 . S
C1890 C1891 1.502 . S
C1890 C1892 1.561 . S
C1890 C1893 1.526 . S
C1891 H1875 0.959 . S
C1891 H1876 0.959 . S
C1891 H1877 0.961 . S
C1891 C1890 1.502 . S
C1892 H1878 0.960 . S
C1892 H1879 0.961 . S
C1892 H1880 0.959 . S
C1892 C1890 1.561 . S
C1893 C1890 1.526 . S
C1893 C1894 1.396 . S
C1893 C1898 1.390 . S
C1894 C1888 1.465 . S
C1894 C1893 1.396 . S
C1894 C1895 1.399 . S
C1895 H1881 0.929 . S
C1895 C1894 1.399 . S
C1895 C1896 1.385 . S
C1896 H1882 0.931 . S
C1896 C1895 1.385 . S
C1896 C1897 1.389 . S
C1897 C1896 1.389 . S
C1897 C1898 1.387 . S
C1898 H1883 0.930 . S
C1898 C1893 1.390 . S
C1898 C1897 1.387 . S
H1899 C1911 0.930 . S
H1900 C1913 0.930 . S
H1901 C1914 0.930 . S
H1902 C1918 0.959 . S
H1903 C1918 0.959 . S
H1904 C1918 0.961 . S
H1905 C1919 0.960 . S
H1906 C1919 0.961 . S
H1907 C1919 0.959 . S
H1908 C1922 0.929 . S
H1909 C1923 0.931 . S
H1910 C1925 0.930 . S
C1911 H1899 0.930 . S
C1911 C1912 1.399 . S
C1911 C1916 1.399 . S
C1912 C1911 1.399 . S
C1912 C1913 1.376 . S
C1913 H1900 0.930 . S
C1913 C1912 1.376 . S
C1913 C1914 1.388 . S
C1914 H1901 0.930 . S
C1914 C1913 1.388 . S
C1914 C1915 1.390 . S
C1915 C1914 1.390 . S
C1915 C1916 1.394 . S
C1915 C1921 1.465 . S
C1916 C1911 1.399 . S
C1916 C1915 1.394 . S
C1916 C1917 1.516 . S
C1917 C1916 1.516 . S
C1917 C1918 1.502 . S
C1917 C1919 1.561 . S
C1917 C1920 1.526 . S
C1918 H1902 0.959 . S
C1918 H1903 0.959 . S
C1918 H1904 0.961 . S
C1918 C1917 1.502 . S
C1919 H1905 0.960 . S
C1919 H1906 0.961 . S
C1919 H1907 0.959 . S
C1919 C1917 1.561 . S
C1920 C1917 1.526 . S
C1920 C1921 1.396 . S
C1920 C1925 1.390 . S
C1921 C1915 1.465 . S
C1921 C1920 1.396 . S
C1921 C1922 1.399 . S
C1922 H1908 0.929 . S
C1922 C1921 1.399 . S
C1922 C1923 1.385 . S
C1923 H1909 0.931 . S
C1923 C1922 1.385 . S
C1923 C1924 1.389 . S
C1924 C1923 1.389 . S
C1924 C1925 1.387 . S
C1925 H1910 0.930 . S
C1925 C1920 1.390 . S
C1925 C1924 1.387 . S
H1926 C1938 0.930 . S
H1927 C1940 0.930 . S
H1928 C1941 0.930 . S
H1929 C1945 0.959 . S
H1930 C1945 0.959 . S
H1931 C1945 0.961 . S
H1932 C1946 0.960 . S
H1933 C1946 0.961 . S
H1934 C1946 0.959 . S
H1935 C1949 0.929 . S
H1936 C1950 0.931 . S
H1937 C1952 0.930 . S
C1938 H1926 0.930 . S
C1938 C1939 1.399 . S
C1938 C1943 1.399 . S
C1939 C1938 1.399 . S
C1939 C1940 1.376 . S
C1940 H1927 0.930 . S
C1940 C1939 1.376 . S
C1940 C1941 1.388 . S
C1941 H1928 0.930 . S
C1941 C1940 1.388 . S
C1941 C1942 1.390 . S
C1942 C1941 1.390 . S
C1942 C1943 1.394 . S
C1942 C1948 1.465 . S
C1943 C1938 1.399 . S
C1943 C1942 1.394 . S
C1943 C1944 1.516 . S
C1944 C1943 1.516 . S
C1944 C1945 1.502 . S
C1944 C1946 1.561 . S
C1944 C1947 1.526 . S
C1945 H1929 0.959 . S
C1945 H1930 0.959 . S
C1945 H1931 0.961 . S
C1945 C1944 1.502 . S
C1946 H1932 0.960 . S
C1946 H1933 0.961 . S
C1946 H1934 0.959 . S
C1946 C1944 1.561 . S
C1947 C1944 1.526 . S
C1947 C1948 1.396 . S
C1947 C1952 1.390 . S
C1948 C1942 1.465 . S
C1948 C1947 1.396 . S
C1948 C1949 1.399 . S
C1949 H1935 0.929 . S
C1949 C1948 1.399 . S
C1949 C1950 1.385 . S
C1950 H1936 0.931 . S
C1950 C1949 1.385 . S
C1950 C1951 1.389 . S
C1951 C1950 1.389 . S
C1951 C1952 1.387 . S
C1952 H1937 0.930 . S
C1952 C1947 1.390 . S
C1952 C1951 1.387 . S
H1953 C1965 0.930 . S
H1954 C1967 0.930 . S
H1955 C1968 0.930 . S
H1956 C1972 0.959 . S
H1957 C1972 0.959 . S
H1958 C1972 0.961 . S
H1959 C1973 0.960 . S
H1960 C1973 0.961 . S
H1961 C1973 0.959 . S
H1962 C1976 0.929 . S
H1963 C1977 0.931 . S
H1964 C1979 0.930 . S
C1965 H1953 0.930 . S
C1965 C1966 1.399 . S
C1965 C1970 1.399 . S
C1966 C1965 1.399 . S
C1966 C1967 1.376 . S
C1967 H1954 0.930 . S
C1967 C1966 1.376 . S
C1967 C1968 1.388 . S
C1968 H1955 0.930 . S
C1968 C1967 1.388 . S
C1968 C1969 1.390 . S
C1969 C1968 1.390 . S
C1969 C1970 1.394 . S
C1969 C1975 1.465 . S
C1970 C1965 1.399 . S
C1970 C1969 1.394 . S
C1970 C1971 1.516 . S
C1971 C1970 1.516 . S
C1971 C1972 1.502 . S
C1971 C1973 1.561 . S
C1971 C1974 1.526 . S
C1972 H1956 0.959 . S
C1972 H1957 0.959 . S
C1972 H1958 0.961 . S
C1972 C1971 1.502 . S
C1973 H1959 0.960 . S
C1973 H1960 0.961 . S
C1973 H1961 0.959 . S
C1973 C1971 1.561 . S
C1974 C1971 1.526 . S
C1974 C1975 1.396 . S
C1974 C1979 1.390 . S
C1975 C1969 1.465 . S
C1975 C1974 1.396 . S
C1975 C1976 1.399 . S
C1976 H1962 0.929 . S
C1976 C1975 1.399 . S
C1976 C1977 1.385 . S
C1977 H1963 0.931 . S
C1977 C1976 1.385 . S
C1977 C1978 1.389 . S
C1978 C1977 1.389 . S
C1978 C1979 1.387 . S
C1979 H1964 0.930 . S
C1979 C1974 1.390 . S
C1979 C1978 1.387 . S
C1021 C226 1.127 . S
C1033 C67 1.262 . S
C1048 C321 1.145 . S
C1060 C140 1.248 . S
C1075 C235 1.243 . S
C1087 C394 1.193 . S
C1102 C308 1.261 . S
C1114 C489 1.081 . S
C1129 C58 1.153 . S
C1141 C403 1.248 . S
C1156 C153 1.045 . S
C1168 C476 1.279 . S
C1183 C909 1.050 . S
C1195 C560 1.279 . S
C1210 C655 1.241 . S
C1222 C982 1.194 . S
C1237 C728 1.246 . S
C1249 C573 1.191 . S
C1264 C823 1.275 . S
C1276 C646 1.042 . S
C1291 C896 1.278 . S
C1303 C741 1.054 . S
C1318 C814 1.088 . S
C1330 C991 1.271 . S
C1345 C315 1.938 . S
C1357 C74 1.946 . S
C1372 C147 1.954 . S
C1384 C410 1.955 . S
C1399 C242 1.946 . S
C1411 C483 1.938 . S
C1426 C567 1.885 . S
C1438 C830 1.885 . S
C1453 C662 1.885 . S
C1465 C903 1.884 . S
C1480 C735 1.892 . S
C1492 C998 1.902 . S
C1507 C651 2.170 . S
C1519 C63 2.150 . S
C1534 C158 2.170 . S
C1546 C746 2.159 . S
C1561 C819 2.162 . S
C1573 C231 2.132 . S
C1588 C326 2.150 . S
C1600 C914 2.170 . S
C1615 C399 2.133 . S
C1627 C987 2.166 . S
C1642 C578 2.139 . S
C1654 C494 2.133 . S
C1669 C237 1.280 . S
C1681 C56 1.409 . S
C1696 C151 1.411 . S
C1708 C310 1.189 . S
C1723 C224 1.387 . S
C1735 C405 1.319 . S
C1750 C319 1.400 . S
C1762 C478 1.215 . S
C1777 C69 1.203 . S
C1789 C392 1.417 . S
C1804 C142 1.323 . S
C1816 C487 1.395 . S
C1831 C898 1.313 . S
C1843 C571 1.390 . S
C1858 C644 1.429 . S
C1870 C993 1.179 . S
C1885 C739 1.425 . S
C1897 C562 1.181 . S
C1912 C657 1.316 . S
C1924 C812 1.396 . S
C1939 C907 1.399 . S
C1951 C730 1.323 . S
C1966 C980 1.431 . S
C1978 C825 1.184 . S
