# Generated by pormake.
# Topology neb, (4)-cn, num edge types: 1
# Building blocks:
#     Node 0, Type 0, BuildingBlock: QUQFOY_clean_sbu_3, # of connection points: 4
#     Node 1, Type 0, BuildingBlock: QUQFOY_clean_sbu_3, # of connection points: 4
#     Node 2, Type 0, BuildingBlock: QUQFOY_clean_sbu_3, # of connection points: 4
#     Node 3, Type 0, BuildingBlock: QUQFOY_clean_sbu_3, # of connection points: 4
#     Node 4, Type 0, BuildingBlock: QUQFOY_clean_sbu_3, # of connection points: 4
#     Node 5, Type 0, BuildingBlock: QUQFOY_clean_sbu_3, # of connection points: 4
#     Node 6, Type 0, BuildingBlock: QUQFOY_clean_sbu_3, # of connection points: 4
#     Node 7, Type 0, BuildingBlock: QUQFOY_clean_sbu_3, # of connection points: 4
#     Node 8, Type 0, BuildingBlock: QUQFOY_clean_sbu_3, # of connection points: 4
#     Node 9, Type 0, BuildingBlock: QUQFOY_clean_sbu_3, # of connection points: 4
#     Node 10, Type 0, BuildingBlock: QUQFOY_clean_sbu_3, # of connection points: 4
#     Node 11, Type 0, BuildingBlock: QUQFOY_clean_sbu_3, # of connection points: 4
#     Node 12, Type 0, BuildingBlock: QUQFOY_clean_sbu_3, # of connection points: 4
#     Node 13, Type 0, BuildingBlock: QUQFOY_clean_sbu_3, # of connection points: 4
#     Node 14, Type 0, BuildingBlock: QUQFOY_clean_sbu_3, # of connection points: 4
#     Node 15, Type 0, BuildingBlock: QUQFOY_clean_sbu_3, # of connection points: 4
#     Edge 16, Type (0, 0), BuildingBlock: UVAHIK_clean_linker_0, # of connection points: 2
#     Edge 17, Type (0, 0), BuildingBlock: UVAHIK_clean_linker_0, # of connection points: 2
#     Edge 18, Type (0, 0), BuildingBlock: UVAHIK_clean_linker_0, # of connection points: 2
#     Edge 19, Type (0, 0), BuildingBlock: UVAHIK_clean_linker_0, # of connection points: 2
#     Edge 20, Type (0, 0), BuildingBlock: UVAHIK_clean_linker_0, # of connection points: 2
#     Edge 21, Type (0, 0), BuildingBlock: UVAHIK_clean_linker_0, # of connection points: 2
#     Edge 22, Type (0, 0), BuildingBlock: UVAHIK_clean_linker_0, # of connection points: 2
#     Edge 23, Type (0, 0), BuildingBlock: UVAHIK_clean_linker_0, # of connection points: 2
#     Edge 24, Type (0, 0), BuildingBlock: UVAHIK_clean_linker_0, # of connection points: 2
#     Edge 25, Type (0, 0), BuildingBlock: UVAHIK_clean_linker_0, # of connection points: 2
#     Edge 26, Type (0, 0), BuildingBlock: UVAHIK_clean_linker_0, # of connection points: 2
#     Edge 27, Type (0, 0), BuildingBlock: UVAHIK_clean_linker_0, # of connection points: 2
#     Edge 28, Type (0, 0), BuildingBlock: UVAHIK_clean_linker_0, # of connection points: 2
#     Edge 29, Type (0, 0), BuildingBlock: UVAHIK_clean_linker_0, # of connection points: 2
#     Edge 30, Type (0, 0), BuildingBlock: UVAHIK_clean_linker_0, # of connection points: 2
#     Edge 31, Type (0, 0), BuildingBlock: UVAHIK_clean_linker_0, # of connection points: 2
#     Edge 32, Type (0, 0), BuildingBlock: UVAHIK_clean_linker_0, # of connection points: 2
#     Edge 33, Type (0, 0), BuildingBlock: UVAHIK_clean_linker_0, # of connection points: 2
#     Edge 34, Type (0, 0), BuildingBlock: UVAHIK_clean_linker_0, # of connection points: 2
#     Edge 35, Type (0, 0), BuildingBlock: UVAHIK_clean_linker_0, # of connection points: 2
#     Edge 36, Type (0, 0), BuildingBlock: UVAHIK_clean_linker_0, # of connection points: 2
#     Edge 37, Type (0, 0), BuildingBlock: UVAHIK_clean_linker_0, # of connection points: 2
#     Edge 38, Type (0, 0), BuildingBlock: UVAHIK_clean_linker_0, # of connection points: 2
#     Edge 39, Type (0, 0), BuildingBlock: UVAHIK_clean_linker_0, # of connection points: 2
#     Edge 40, Type (0, 0), BuildingBlock: UVAHIK_clean_linker_0, # of connection points: 2
#     Edge 41, Type (0, 0), BuildingBlock: UVAHIK_clean_linker_0, # of connection points: 2
#     Edge 42, Type (0, 0), BuildingBlock: UVAHIK_clean_linker_0, # of connection points: 2
#     Edge 43, Type (0, 0), BuildingBlock: UVAHIK_clean_linker_0, # of connection points: 2
#     Edge 44, Type (0, 0), BuildingBlock: UVAHIK_clean_linker_0, # of connection points: 2
#     Edge 45, Type (0, 0), BuildingBlock: UVAHIK_clean_linker_0, # of connection points: 2
#     Edge 46, Type (0, 0), BuildingBlock: UVAHIK_clean_linker_0, # of connection points: 2
#     Edge 47, Type (0, 0), BuildingBlock: UVAHIK_clean_linker_0, # of connection points: 2
# Relax obj value: 0.002
# Max RMSD: 0.028
# Mean RMSD: 0.028
data_MOF--net-neb--node1-QUQFOY_clean_sbu_3--edge1-UVAHIK_clean_linker_0
_symmetry_space_group_name_H-M    P1
_symmetry_Int_Tables_number       1
_symmetry_cell_setting            triclinic
loop_
_symmetry_equiv_pos_as_xyz
'x, y, z'
_cell_length_a     56.551367
_cell_length_b     29.868213
_cell_length_c     102.81721
_cell_angle_alpha  89.912926
_cell_angle_beta   93.034805
_cell_angle_gamma 89.909416
loop_
_atom_site_label
_atom_site_type_symbol
_atom_site_fract_x
_atom_site_fract_y
_atom_site_fract_z
_atom_type_partial_charge
C0 C 0.17975 0.08684 0.44277 0.0
O1 O 0.19123 0.06932 0.43379 0.0
Cd2 Cd 0.17253 0.03234 0.41515 0.0
O3 O 0.15734 0.08264 0.44274 0.0
Cd4 Cd 0.12484 0.04581 0.42973 0.0
C5 C 0.13359 0.11505 0.40444 0.0
O6 O 0.1443 0.97802 0.42155 0.0
O7 O 0.1101 -0.00334 0.41276 0.0
O8 O 0.10859 0.01459 0.44928 0.0
C9 C 0.1271 0.96898 0.41352 0.0
O10 O 0.15206 0.09167 0.40282 0.0
C11 C 0.08833 0.03265 0.4475 0.0
O12 O 0.12063 0.10751 0.41398 0.0
O13 O 0.08525 0.05803 0.43762 0.0
C14 C 0.0495 0.09177 0.78518 0.0
O15 O 0.03846 0.07307 0.79415 0.0
Cd16 Cd 0.05792 0.03416 0.81235 0.0
O17 O 0.07194 0.08863 0.78505 0.0
Cd18 Cd 0.10522 0.0531 0.79776 0.0
C19 C 0.09522 0.11771 0.82386 0.0
O20 O 0.08687 0.98309 0.80498 0.0
O21 O 0.12104 0.00114 0.8139 0.0
O22 O 0.12147 0.02716 0.77765 0.0
C23 C 0.1043 0.97307 0.81276 0.0
O24 O 0.07768 0.09199 0.8255 0.0
C25 C 0.14166 0.04508 0.77974 0.0
O26 O 0.10768 0.11345 0.81396 0.0
O27 O 0.14471 0.06812 0.79007 0.0
C28 C 0.80079 0.88456 0.53141 0.0
O29 O 0.79008 0.90542 0.54011 0.0
Cd30 Cd 0.81041 0.9423 0.55832 0.0
O31 O 0.82332 0.88471 0.53157 0.0
Cd32 Cd 0.8571 0.91737 0.54449 0.0
C33 C 0.84463 0.85478 0.57048 0.0
O34 O 0.8415 -0.01003 0.55168 0.0
O35 O 0.87321 0.96424 0.56174 0.0
O36 O 0.87463 0.94351 0.52479 0.0
C37 C 0.85839 -0.00411 0.56017 0.0
O38 O 0.82797 0.88286 0.57189 0.0
C39 C 0.89421 0.92317 0.52679 0.0
O40 O 0.85734 0.85672 0.56061 0.0
O41 O 0.89639 0.89876 0.53693 0.0
C42 C 0.92784 0.89109 0.19289 0.0
O43 O 0.93869 0.91117 0.1841 0.0
Cd44 Cd 0.91826 0.94892 0.166 0.0
O45 O 0.90535 0.89273 0.19287 0.0
Cd46 Cd 0.87186 0.9273 0.18016 0.0
C47 C 0.88255 0.86319 0.1543 0.0
O48 O 0.88803 -0.00103 0.17255 0.0
O49 O 0.85601 0.97366 0.16275 0.0
O50 O 0.85537 0.95548 0.19993 0.0
C51 C 0.87099 0.00501 0.16414 0.0
O52 O 0.89952 0.89032 0.15269 0.0
C53 C 0.83542 0.93639 0.19817 0.0
O54 O 0.87018 0.866 0.16429 0.0
O55 O 0.83257 0.9117 0.18815 0.0
C56 C 0.1766 0.58797 0.94739 0.0
O57 O 0.1883 0.56997 0.93858 0.0
Cd58 Cd 0.16962 0.53896 0.9191 0.0
O59 O 0.15407 0.58685 0.94664 0.0
Cd60 Cd 0.12186 0.55487 0.93223 0.0
C61 C 0.1343 0.6273 0.90856 0.0
O62 O 0.13944 0.48579 0.92368 0.0
O63 O 0.10817 0.51257 0.91343 0.0
O64 O 0.10336 0.52107 0.9507 0.0
C65 C 0.12327 0.48129 0.91471 0.0
O66 O 0.15224 0.60234 0.90706 0.0
C67 C 0.08361 0.54094 0.94885 0.0
O68 O 0.12033 0.61965 0.91763 0.0
O69 O 0.08175 0.56833 0.93938 0.0
C70 C 0.04959 0.58898 0.28306 0.0
O71 O 0.03821 0.57237 0.29223 0.0
Cd72 Cd 0.05708 0.53513 0.31076 0.0
O73 O 0.07192 0.58352 0.28286 0.0
Cd74 Cd 0.10427 0.54492 0.29572 0.0
C75 C 0.09719 0.61641 0.32063 0.0
O76 O 0.08355 0.47848 0.30372 0.0
O77 O 0.11847 0.49288 0.31229 0.0
O78 O 0.11954 0.5145 0.27579 0.0
C79 C 0.1008 0.46685 0.31141 0.0
O80 O 0.07835 0.59462 0.32254 0.0
C81 C 0.14023 0.53047 0.27771 0.0
O82 O 0.10992 0.6068 0.31116 0.0
O83 O 0.14397 0.55433 0.28783 0.0
C84 C 0.79546 0.39193 0.03314 0.0
O85 O 0.78465 0.41228 0.04189 0.0
Cd86 Cd 0.8052 0.45021 0.05988 0.0
O87 O 0.81795 0.39343 0.03312 0.0
Cd88 Cd 0.8516 0.42776 0.04565 0.0
C89 C 0.84084 0.36424 0.07168 0.0
O90 O 0.8356 0.49965 0.05322 0.0
O91 O 0.86773 0.47414 0.06293 0.0
O92 O 0.86833 0.45547 0.02587 0.0
C93 C 0.8527 0.50555 0.06158 0.0
O94 O 0.82391 0.39153 0.07328 0.0
C95 C 0.88803 0.43531 0.02758 0.0
O96 O 0.85318 0.36685 0.06167 0.0
O97 O 0.89063 0.4104 0.03759 0.0
C98 C 0.92556 0.38281 0.69262 0.0
O99 O 0.93664 0.40321 0.68398 0.0
Cd100 Cd 0.91682 0.44029 0.66558 0.0
O101 O 0.90303 0.38358 0.69226 0.0
Cd102 Cd 0.86977 0.41681 0.67902 0.0
C103 C 0.8825 0.35349 0.6533 0.0
O104 O 0.88581 0.48907 0.67182 0.0
O105 O 0.85423 0.46372 0.6616 0.0
O106 O 0.8522 0.44382 0.69858 0.0
C107 C 0.86908 0.49518 0.66324 0.0
O108 O 0.89932 0.38117 0.65198 0.0
C109 C 0.8325 0.42406 0.69658 0.0
O110 O 0.86954 0.35583 0.66306 0.0
O111 O 0.83024 0.39955 0.68649 0.0
C112 C 0.67557 0.08822 0.94336 0.0
O113 O 0.68728 0.07124 0.9344 0.0
Cd114 Cd 0.66819 0.04074 0.91498 0.0
O115 O 0.65309 0.08512 0.94291 0.0
Cd116 Cd 0.62112 0.0501 0.92894 0.0
C117 C 0.63049 0.12781 0.9063 0.0
O118 O 0.63972 0.98385 0.9193 0.0
O119 O 0.60774 0.01016 0.90966 0.0
O120 O 0.60451 0.01303 0.94755 0.0
C121 C 0.62335 0.97966 0.91043 0.0
O122 O 0.64894 0.10496 0.90418 0.0
C123 C 0.58414 0.03077 0.94597 0.0
O124 O 0.61706 0.11694 0.91535 0.0
O125 O 0.58109 0.05829 0.93659 0.0
C126 C 0.55073 0.08695 0.28448 0.0
O127 O 0.53968 0.0664 0.29311 0.0
Cd128 Cd 0.55941 0.02588 0.31091 0.0
O129 O 0.57322 0.08495 0.28454 0.0
Cd130 Cd 0.60641 0.04887 0.29715 0.0
C131 C 0.59564 0.10872 0.32392 0.0
O132 O 0.58918 0.97666 0.30347 0.0
O133 O 0.62171 -0.00223 0.31363 0.0
O134 O 0.62305 0.02405 0.27708 0.0
C135 C 0.6061 0.96779 0.31172 0.0
O136 O 0.57851 0.08164 0.32512 0.0
C137 C 0.6431 0.0424 0.2792 0.0
O138 O 0.60805 0.10744 0.31392 0.0
O139 O 0.64598 0.06525 0.28959 0.0
C140 C 0.30353 0.87987 0.03757 0.0
O141 O 0.2933 0.9022 0.04615 0.0
Cd142 Cd 0.3145 0.94602 0.06268 0.0
O143 O 0.32592 0.88171 0.03692 0.0
Cd144 Cd 0.3603 0.91954 0.04782 0.0
C145 C 0.35177 0.86463 0.07583 0.0
O146 O 0.34349 -0.00727 0.05342 0.0
O147 O 0.37709 0.97391 0.06288 0.0
O148 O 0.3751 0.93961 0.02684 0.0
C149 C 0.36108 0.00329 0.061 0.0
O150 O 0.33485 0.8922 0.07715 0.0
C151 C 0.39526 0.92132 0.02879 0.0
O152 O 0.36322 0.86418 0.06548 0.0
O153 O 0.399 0.90067 0.03953 0.0
C154 C 0.42464 0.88776 0.69103 0.0
O155 O 0.43558 0.90684 0.68209 0.0
Cd156 Cd 0.41662 0.95217 0.66505 0.0
O157 O 0.4024 0.89312 0.69173 0.0
Cd158 Cd 0.36951 0.93363 0.68012 0.0
C159 C 0.37655 0.8756 0.65229 0.0
O160 O 0.3897 0.00329 0.67427 0.0
O161 O 0.35451 -0.00811 0.66565 0.0
O162 O 0.35411 0.95555 0.70085 0.0
C163 C 0.37228 0.0175 0.66711 0.0
O164 O 0.39454 0.90036 0.65082 0.0
C165 C 0.3336 0.93921 0.69853 0.0
O166 O 0.36499 0.87799 0.66258 0.0
O167 O 0.33001 0.9188 0.68777 0.0
C168 C 0.67303 0.5872 0.44271 0.0
O169 O 0.68389 0.56598 0.43414 0.0
Cd170 Cd 0.66392 0.52441 0.41669 0.0
O171 O 0.65056 0.58527 0.44283 0.0
Cd172 Cd 0.61715 0.54852 0.43065 0.0
C173 C 0.6276 0.60718 0.40357 0.0
O174 O 0.63416 0.47591 0.42445 0.0
O175 O 0.60146 0.49711 0.41445 0.0
O176 O 0.60043 0.52513 0.45088 0.0
C177 C 0.61711 0.46705 0.41631 0.0
O178 O 0.64467 0.57987 0.40234 0.0
C179 C 0.58051 0.54408 0.44868 0.0
O180 O 0.6154 0.6063 0.41364 0.0
O181 O 0.57779 0.56644 0.43817 0.0
C182 C 0.54701 0.58614 0.78113 0.0
O183 O 0.53601 0.56872 0.79033 0.0
Cd184 Cd 0.55543 0.53234 0.80899 0.0
O185 O 0.56945 0.58285 0.781 0.0
Cd186 Cd 0.60283 0.54889 0.79397 0.0
C187 C 0.59306 0.61741 0.81927 0.0
O188 O 0.58472 0.48052 0.8025 0.0
O189 O 0.61877 0.50096 0.81104 0.0
O190 O 0.61893 0.51824 0.77437 0.0
C191 C 0.60211 0.47263 0.81053 0.0
O192 O 0.57549 0.59206 0.82121 0.0
C193 C 0.63902 0.53693 0.77597 0.0
O194 O 0.60549 0.61173 0.8094 0.0
O195 O 0.64207 0.56251 0.78579 0.0
C196 C 0.29634 0.38996 0.53417 0.0
O197 O 0.28466 0.40899 0.54281 0.0
Cd198 Cd 0.3036 0.44735 0.5611 0.0
O199 O 0.31879 0.39354 0.53444 0.0
Cd200 Cd 0.35084 0.43162 0.54748 0.0
C201 C 0.34152 0.36519 0.57312 0.0
O202 O 0.332 0.50157 0.55464 0.0
O203 O 0.36466 0.48056 0.56476 0.0
O204 O 0.36755 0.461 0.52786 0.0
C205 C 0.34869 0.51011 0.56305 0.0
O206 O 0.32319 0.3893 0.57442 0.0
C207 C 0.38783 0.4433 0.52991 0.0
O208 O 0.35462 0.37115 0.56356 0.0
O209 O 0.39079 0.41903 0.54003 0.0
C210 C 0.42605 0.38017 0.19276 0.0
O211 O 0.43721 0.40119 0.18427 0.0
Cd212 Cd 0.41789 0.44362 0.16673 0.0
O213 O 0.40356 0.38229 0.19266 0.0
Cd214 Cd 0.37054 0.41903 0.18008 0.0
C215 C 0.38199 0.36216 0.15282 0.0
O216 O 0.38811 0.49182 0.17467 0.0
O217 O 0.35548 0.47284 0.16425 0.0
O218 O 0.353 0.44022 0.20023 0.0
C219 C 0.37129 0.50221 0.16653 0.0
O220 O 0.39911 0.38944 0.15185 0.0
C221 C 0.33309 0.42186 0.19761 0.0
O222 O 0.36951 0.36248 0.16279 0.0
O223 O 0.33072 0.40078 0.18689 0.0
C224 C 0.29689 0.33928 0.51476 0.0
C225 C 0.28402 0.3614 0.52418 0.0
C226 C 0.28558 0.30991 0.5059 0.0
C227 C 0.23241 0.23911 0.50164 0.0
H228 H 0.24869 0.23605 0.46549 0.0
C229 C 0.1795 0.13629 0.46245 0.0
C230 C 0.19223 0.1147 0.45288 0.0
C231 C 0.19093 0.16531 0.47138 0.0
C232 C 0.24416 0.23607 0.47559 0.0
H233 H 0.24899 0.37072 0.53142 0.0
H234 H 0.22924 0.3198 0.51586 0.0
H235 H 0.26779 0.29031 0.48027 0.0
H236 H 0.22715 0.10577 0.44546 0.0
H237 H 0.2471 0.15596 0.46115 0.0
H238 H 0.2088 0.18486 0.49696 0.0
C239 C 0.24816 0.32472 0.51547 0.0
C240 C 0.25508 0.26725 0.48406 0.0
C241 C 0.25947 0.35417 0.52433 0.0
C242 C 0.21677 0.12195 0.45267 0.0
C243 C 0.22819 0.151 0.4616 0.0
C244 C 0.22151 0.20792 0.49317 0.0
C245 C 0.26113 0.30191 0.50624 0.0
C246 C 0.24932 0.26916 0.49718 0.0
C247 C 0.21535 0.17343 0.47096 0.0
C248 C 0.22725 0.20603 0.48004 0.0
H249 H 0.31583 0.34399 0.51438 0.0
H250 H 0.29612 0.29257 0.49899 0.0
H251 H 0.22787 0.23919 0.51174 0.0
H252 H 0.16058 0.13157 0.4629 0.0
H253 H 0.18046 0.18237 0.47838 0.0
C254 C 0.91092 0.95786 0.50713 0.0
C255 C 0.9139 0.92974 0.51807 0.0
C256 C 0.92989 0.96689 0.49938 0.0
C257 C -0.00493 0.96853 0.50055 0.0
H258 H 0.98598 0.97789 0.463 0.0
C259 C 0.07264 -0.00671 0.46675 0.0
C260 C 0.06892 0.02272 0.45616 0.0
C261 C 0.05395 0.98158 0.47444 0.0
C262 C -0.01125 0.97589 0.47349 0.0
H263 H 0.93901 0.88812 0.52926 0.0
H264 H 0.97213 0.90353 0.51562 0.0
H265 H 0.95291 0.95593 0.47587 0.0
H266 H 0.04279 0.0637 0.44549 0.0
H267 H 0.01022 0.04365 0.459 0.0
H268 H 0.03091 -0.01135 0.49816 0.0
C269 C 0.95517 0.91908 0.51316 0.0
C270 C 0.96981 0.96322 0.48086 0.0
C271 C 0.93615 0.91 0.52092 0.0
C272 C 0.04622 0.04086 0.45356 0.0
C273 C 0.02752 0.0291 0.46124 0.0
C274 C 0.01403 0.98118 0.49317 0.0
C275 C 0.95231 0.94801 0.50238 0.0
C276 C 0.97271 0.95962 0.49449 0.0
C277 C 0.03112 -0.00101 0.47169 0.0
C278 C 0.01105 0.98525 0.47956 0.0
H279 H 0.89402 0.9737 0.50468 0.0
H280 H 0.92713 -0.01028 0.49124 0.0
H281 H -0.00219 0.96675 0.51104 0.0
H282 H 0.08991 0.97864 0.46898 0.0
H283 H 0.05727 0.958 0.48234 0.0
C284 C 0.31861 0.97141 0.71899 0.0
C285 C 0.31445 0.94619 0.70757 0.0
C286 C 0.3001 0.98132 0.72699 0.0
C287 C 0.23966 0.94735 0.73475 0.0
H288 H 0.23527 0.069 0.74758 0.0
C289 C 0.15718 0.01086 0.75969 0.0
C290 C 0.16106 0.03719 0.77091 0.0
C291 C 0.17586 0.00047 0.75185 0.0
C292 C 0.23637 0.03478 0.74419 0.0
H293 H 0.28771 0.91058 0.69577 0.0
H294 H 0.25537 0.92799 0.70972 0.0
H295 H 0.2682 0.04782 0.73449 0.0
H296 H 0.18749 0.07406 0.78257 0.0
H297 H 0.22015 0.05567 0.76894 0.0
H298 H 0.20785 0.93427 0.74446 0.0
C299 C 0.27299 0.93987 0.71253 0.0
C300 C 0.25526 0.02261 0.73671 0.0
C301 C 0.2915 0.93001 0.70451 0.0
C302 C 0.18391 0.0538 0.77396 0.0
C303 C 0.20261 0.04338 0.76612 0.0
C304 C 0.22079 0.95949 0.74225 0.0
C305 C 0.27702 0.96617 0.72376 0.0
C306 C 0.25711 0.97877 0.73189 0.0
C307 C 0.19885 0.01615 0.75506 0.0
C308 C 0.2189 0.00337 0.74704 0.0
H309 H 0.33611 0.98425 0.72164 0.0
H310 H 0.30385 0.00104 0.73568 0.0
H311 H 0.24075 0.91316 0.73133 0.0
H312 H 0.13976 -0.00233 0.75704 0.0
H313 H 0.17228 0.98007 0.74327 0.0
C314 C 0.01178 0.12515 0.77544 0.0
C315 C 0.03642 0.11931 0.77516 0.0
C316 C -0.00026 0.15339 0.76647 0.0
C317 C 0.00515 0.20957 0.73463 0.0
H318 H 0.95697 0.28888 0.7471 0.0
C319 C 0.96343 0.35097 0.70263 0.0
C320 C 0.93871 0.35593 0.70276 0.0
C321 C 0.97555 0.32306 0.71167 0.0
C322 C 0.97023 0.26667 0.74344 0.0
H323 H 0.06765 0.13807 0.76503 0.0
H324 H 0.04671 0.18747 0.74949 0.0
H325 H 0.97735 0.23681 0.76218 0.0
H326 H 0.90745 0.33616 0.71271 0.0
H327 H 0.92857 0.28748 0.72839 0.0
H328 H -0.00195 0.23949 0.7159 0.0
C329 C 0.03663 0.16989 0.75656 0.0
C330 C 0.98187 0.23675 0.75207 0.0
C331 C 0.04866 0.14168 0.76553 0.0
C332 C 0.92649 0.33318 0.71232 0.0
C333 C 0.93861 0.30539 0.72137 0.0
C334 C -0.00647 0.23953 0.726 0.0
C335 C 0.01207 0.17642 0.757 0.0
C336 C -0.00054 0.20781 0.74777 0.0
C337 C 0.96324 0.29961 0.72106 0.0
C338 C 0.97592 0.26841 0.73031 0.0
H339 H 0.00177 0.10834 0.7827 0.0
H340 H 0.98076 0.15715 0.76694 0.0
H341 H 0.01838 0.18732 0.73095 0.0
H342 H 0.97342 0.36806 0.69542 0.0
H343 H -0.00542 0.31982 0.7113 0.0
C344 C 0.79897 0.83353 0.51204 0.0
C345 C 0.78718 0.85772 0.52149 0.0
C346 C 0.78638 0.80556 0.50328 0.0
C347 C 0.73064 0.74208 0.49956 0.0
H348 H 0.74648 0.73354 0.46342 0.0
C349 C 0.67434 0.64081 0.46147 0.0
C350 C 0.68636 0.61616 0.45222 0.0
C351 C 0.68664 0.6701 0.46997 0.0
C352 C 0.74203 0.73514 0.47352 0.0
H353 H 0.75275 0.87237 0.52885 0.0
H354 H 0.73078 0.82389 0.51346 0.0
H355 H 0.76754 0.78666 0.4778 0.0
H356 H 0.72087 0.60244 0.44484 0.0
H357 H 0.74235 0.65317 0.45978 0.0
H358 H 0.70519 0.69049 0.49531 0.0
C359 C 0.74983 0.82608 0.51298 0.0
C360 C 0.75407 0.76565 0.48176 0.0
C361 C 0.76241 0.85412 0.52174 0.0
C362 C 0.71104 0.62096 0.45182 0.0
C363 C 0.72334 0.6503 0.46032 0.0
C364 C 0.71861 0.71157 0.49133 0.0
C365 C 0.76171 0.80107 0.50375 0.0
C366 C 0.74854 0.76945 0.49488 0.0
C367 C 0.71125 0.67547 0.46943 0.0
C368 C 0.72418 0.70769 0.47822 0.0
H369 H 0.81803 0.83544 0.51157 0.0
H370 H 0.79611 0.78646 0.49638 0.0
H371 H 0.72622 0.7436 0.50968 0.0
H372 H 0.65533 0.63807 0.46204 0.0
H373 H 0.67674 0.68932 0.47677 0.0
C374 C 0.68519 0.05282 0.27324 0.0
C375 C 0.66251 0.03516 0.27033 0.0
C376 C 0.7039 0.0429 0.26534 0.0
C377 C 0.72278 0.95829 0.24194 0.0
H378 H 0.76863 0.04812 0.23303 0.0
C379 C 0.79343 0.92665 0.20433 0.0
C380 C 0.8161 0.94459 0.20703 0.0
C381 C 0.77482 0.93711 0.21224 0.0
C382 C 0.75614 0.0225 0.23557 0.0
H383 H 0.64151 -0.00568 0.25666 0.0
H384 H 0.67403 0.97746 0.24284 0.0
H385 H 0.73576 0.06893 0.24623 0.0
H386 H 0.8372 0.98663 0.22034 0.0
H387 H 0.80486 0.00428 0.23421 0.0
H388 H 0.74316 0.91183 0.23132 0.0
C389 C 0.67747 -0.00163 0.25133 0.0
C390 C 0.73729 0.03447 0.24311 0.0
C391 C 0.6588 0.00832 0.2592 0.0
C392 C 0.81991 0.97239 0.21796 0.0
C393 C 0.80132 0.9828 0.22586 0.0
C394 C 0.74164 0.94632 0.23441 0.0
C395 C 0.70031 0.01505 0.2544 0.0
C396 C 0.72037 0.00252 0.24636 0.0
C397 C 0.7785 0.96569 0.22301 0.0
C398 C 0.75854 0.97828 0.23112 0.0
H399 H 0.68863 0.07352 0.28177 0.0
H400 H 0.72133 0.05601 0.26802 0.0
H401 H 0.71027 0.9327 0.24447 0.0
H402 H 0.78991 0.90526 0.19596 0.0
H403 H 0.7574 0.9237 0.2097 0.0
C404 C 0.96568 0.85661 0.20211 0.0
C405 C 0.94114 0.86324 0.20274 0.0
C406 C 0.97778 0.82737 0.21078 0.0
C407 C 0.96735 0.73028 0.23198 0.0
H408 H 0.0299 0.75765 0.24711 0.0
C409 C 0.01259 0.62495 0.27337 0.0
C410 C 0.03707 0.61715 0.27299 0.0
C411 C 0.00108 0.65405 0.26445 0.0
C412 C 0.01256 0.74927 0.24284 0.0
H413 H 0.91026 0.84545 0.2133 0.0
H414 H 0.9314 0.79508 0.22849 0.0
H415 H 0.00961 0.81169 0.2326 0.0
H416 H 0.06853 0.63308 0.26269 0.0
H417 H 0.04836 0.68348 0.24706 0.0
H418 H 0.97025 0.66795 0.24224 0.0
C419 C 0.94122 0.81179 0.22113 0.0
C420 C 0.00093 0.78027 0.23453 0.0
C421 C 0.92913 0.84095 0.21247 0.0
C422 C 0.04966 0.63839 0.2633 0.0
C423 C 0.03815 0.66755 0.25439 0.0
C424 C 0.97897 0.69932 0.24028 0.0
C425 C 0.96562 0.80413 0.22027 0.0
C426 C 0.97814 0.77122 0.22906 0.0
C427 C 0.01377 0.67607 0.25495 0.0
C428 C 0.00168 0.7085 0.24584 0.0
H429 H 0.97548 0.87316 0.19472 0.0
H430 H -0.00346 0.82198 0.2098 0.0
H431 H 0.95 0.72187 0.22773 0.0
H432 H 0.00234 0.60926 0.28072 0.0
H433 H 0.98233 0.66021 0.26524 0.0
C434 C 0.30097 0.82413 0.01937 0.0
C435 C 0.28957 0.84997 0.0286 0.0
C436 C 0.28812 0.79431 0.0113 0.0
C437 C 0.22791 0.76912 -0.00213 0.0
H438 H 0.25491 0.65243 -0.00878 0.0
C439 C 0.17641 0.63525 0.96754 0.0
C440 C 0.18916 0.61283 0.95813 0.0
C441 C 0.18814 0.66181 0.97702 0.0
C442 C 0.2472 0.68499 -0.0071 0.0
H443 H 0.2556 0.86501 0.03647 0.0
H444 H 0.23318 0.81278 0.02238 0.0
H445 H 0.27625 0.70435 0.00585 0.0
H446 H 0.22437 0.59976 0.95158 0.0
H447 H 0.24476 0.64628 0.96803 0.0
H448 H 0.19899 0.74997 0.98481 0.0
C449 C 0.25206 0.81589 0.02135 0.0
C450 C 0.25944 0.71476 0.00128 0.0
C451 C 0.26494 0.84572 0.02944 0.0
C452 C 0.21398 0.61651 0.95867 0.0
C453 C 0.2257 0.64304 0.96815 0.0
C454 C 0.21567 0.73934 -0.01051 0.0
C455 C 0.26355 0.7896 0.01225 0.0
C456 C 0.25005 0.75734 0.00376 0.0
C457 C 0.21289 0.66651 0.97732 0.0
C458 C 0.22528 0.69709 0.98681 0.0
H459 H 0.31991 0.82661 0.01841 0.0
H460 H 0.29744 0.77512 0.00425 0.0
H461 H 0.22032 0.80184 -0.00054 0.0
H462 H 0.15728 0.63302 0.96745 0.0
H463 H 0.17779 0.67891 0.98406 0.0
C464 C 0.06619 0.50041 0.96738 0.0
C465 C 0.06353 0.53126 0.95707 0.0
C466 C 0.04701 0.48957 0.97479 0.0
C467 C -0.01178 0.52994 0.98363 0.0
H468 H 0.97888 0.40595 -0.00661 0.0
C469 C 0.90415 0.47185 0.00802 0.0
C470 C 0.90738 0.44253 0.01867 0.0
C471 C 0.92286 0.48136 0.00012 0.0
C472 C 0.98137 0.44077 -0.00916 0.0
H473 H 0.0387 0.57524 0.94652 0.0
H474 H 0.00513 0.55607 0.95941 0.0
H475 H 0.0123 0.426 0.9805 0.0
H476 H 0.93263 0.39938 0.02922 0.0
H477 H 0.96537 0.41615 0.01545 0.0
H478 H 0.95731 0.54472 -0.00602 0.0
C479 C 0.02213 0.54061 0.96185 0.0
C480 C 0.00053 0.45228 0.98347 0.0
C481 C 0.04134 0.55147 0.95443 0.0
C482 C 0.92957 0.42205 0.02107 0.0
C483 C 0.9483 0.43153 0.01315 0.0
C484 C 0.96905 0.51842 -0.00901 0.0
C485 C 0.02471 0.5093 0.97207 0.0
C486 C 0.00421 0.49703 0.97981 0.0
C487 C 0.94523 0.46175 0.00269 0.0
C488 C 0.96542 0.47371 -0.00531 0.0
H489 H 0.08308 0.48433 0.96968 0.0
H490 H 0.0497 0.46588 0.98272 0.0
H491 H -0.00926 0.56479 0.98114 0.0
H492 H 0.88724 0.48806 0.00588 0.0
H493 H 0.91981 0.50421 -0.00798 0.0
C494 C 0.31649 0.45181 0.2179 0.0
C495 C 0.31328 0.42712 0.20632 0.0
C496 C 0.29746 0.45991 0.22569 0.0
C497 C 0.23237 0.46668 0.22404 0.0
H498 H 0.24073 0.46664 0.26172 0.0
C499 C 0.15489 0.49258 0.25795 0.0
C500 C 0.15937 0.51985 0.26894 0.0
C501 C 0.1733 0.48015 0.25014 0.0
C502 C 0.23818 0.46722 0.2512 0.0
H503 H 0.28773 0.39052 0.194 0.0
H504 H 0.25448 0.40427 0.20771 0.0
H505 H 0.27354 0.44455 0.24866 0.0
H506 H 0.18656 0.55625 0.28018 0.0
H507 H 0.21862 0.53489 0.26649 0.0
H508 H 0.19701 0.48952 0.2266 0.0
C509 C 0.27168 0.41789 0.21066 0.0
C510 C 0.25696 0.45449 0.24372 0.0
C511 C 0.29075 0.40974 0.20286 0.0
C512 C 0.18254 0.53512 0.27181 0.0
C513 C 0.20094 0.5226 0.26402 0.0
C514 C 0.21355 0.47933 0.23152 0.0
C515 C 0.27477 0.4435 0.22209 0.0
C516 C 0.25436 0.45447 0.23005 0.0
C517 C 0.19658 0.49462 0.25318 0.0
C518 C 0.21633 0.48015 0.24519 0.0
H519 H 0.33361 0.46576 0.22083 0.0
H520 H 0.30042 0.48022 0.23434 0.0
H521 H 0.22987 0.46764 0.21352 0.0
H522 H 0.13723 0.48018 0.2555 0.0
H523 H 0.1694 0.4583 0.24191 0.0
C524 C 0.71253 0.12169 0.95379 0.0
C525 C 0.68791 0.11511 0.95375 0.0
C526 C 0.72382 0.151 0.96268 0.0
C527 C 0.7169 0.21129 -0.00634 0.0
H528 H 0.76322 0.29186 0.97994 0.0
C529 C 0.75756 0.3579 0.02393 0.0
C530 C 0.78215 0.36394 0.02338 0.0
C531 C 0.74544 0.32867 0.01531 0.0
C532 C 0.7505 0.26935 0.98396 0.0
H533 H 0.65601 0.133 0.9634 0.0
H534 H 0.67574 0.18423 0.97887 0.0
H535 H 0.74377 0.23662 0.96566 0.0
H536 H 0.81315 0.34464 0.01311 0.0
H537 H 0.79208 0.29367 -0.0018 0.0
H538 H 0.72371 0.24402 0.01199 0.0
C539 C 0.68631 0.16654 0.97206 0.0
C540 C 0.73938 0.23761 0.97578 0.0
C541 C 0.675 0.13725 0.96315 0.0
C542 C 0.79421 0.3409 0.01381 0.0
C543 C 0.7821 0.31178 0.0052 0.0
C544 C 0.72805 0.24306 0.00186 0.0
C545 C 0.71078 0.1744 0.97175 0.0
C546 C 0.72255 0.20804 0.98054 0.0
C547 C 0.75762 0.30493 0.00593 0.0
C548 C 0.74507 0.27232 -0.00289 0.0
H549 H 0.72305 0.10505 0.94673 0.0
H550 H 0.74277 0.15568 0.96235 0.0
H551 H 0.70417 0.18874 -0.00235 0.0
H552 H 0.74771 0.37516 0.03116 0.0
H553 H 0.72652 0.3246 0.016 0.0
C554 C 0.65454 0.49783 0.75666 0.0
C555 C 0.65831 0.52728 0.76721 0.0
C556 C 0.67316 0.48612 0.74892 0.0
C557 C 0.73829 0.47993 0.74978 0.0
H558 H 0.72904 0.47029 0.71225 0.0
C559 C 0.81593 0.45962 0.71612 0.0
C560 C 0.81281 0.43134 0.70526 0.0
C561 C 0.79701 0.46925 0.72385 0.0
C562 C 0.73183 0.47221 0.72273 0.0
H563 H 0.68446 0.56835 0.77775 0.0
H564 H 0.71692 0.54825 0.76415 0.0
H565 H 0.69606 0.49294 0.72513 0.0
H566 H 0.78752 0.39011 0.69416 0.0
H567 H 0.75446 0.40656 0.70777 0.0
H568 H 0.77404 0.45928 0.7474 0.0
C569 C 0.69962 0.53372 0.76197 0.0
C570 C 0.71294 0.48531 0.73011 0.0
C571 C 0.68099 0.54551 0.7697 0.0
C572 C 0.79047 0.41209 0.70245 0.0
C573 C 0.7715 0.42178 0.71019 0.0
C574 C 0.75715 0.4668 0.74241 0.0
C575 C 0.69598 0.50352 0.75158 0.0
C576 C 0.71599 0.48953 0.74371 0.0
C577 C 0.77451 0.45083 0.72091 0.0
C578 C 0.75418 0.463 0.72879 0.0
H579 H 0.63728 0.48312 0.75451 0.0
H580 H 0.66981 0.46247 0.74107 0.0
H581 H 0.7411 0.48204 0.76026 0.0
H582 H 0.8329 0.47509 0.71854 0.0
H583 H 0.79988 0.49218 0.73193 0.0
C584 C 0.56881 -0.01049 0.96499 0.0
C585 C 0.56473 0.01894 0.95443 0.0
C586 C 0.55034 0.97732 0.97278 0.0
C587 C 0.49075 0.01297 0.98183 0.0
H588 H 0.48581 0.89042 -0.00608 0.0
C589 C 0.40944 0.95184 0.00794 0.0
C590 C 0.41391 0.92656 0.01935 0.0
C591 C 0.42756 0.96066 -0.0004 0.0
C592 C 0.48707 0.92483 -0.0093 0.0
H593 H 0.53807 0.05858 0.94372 0.0
H594 H 0.50577 0.0369 0.95719 0.0
H595 H 0.5181 0.9114 0.9803 0.0
H596 H 0.44073 0.88932 0.03071 0.0
H597 H 0.47245 0.90481 0.01611 0.0
H598 H 0.45972 0.02639 -0.0078 0.0
C599 C 0.52332 0.02375 0.9596 0.0
C600 C 0.50559 0.93691 0.98292 0.0
C601 C 0.54181 0.03605 0.95184 0.0
C602 C 0.43672 0.9089 0.02199 0.0
C603 C 0.45487 0.91764 0.01361 0.0
C604 C 0.47222 0.00087 -0.01044 0.0
C605 C 0.52735 -0.00581 0.97015 0.0
C606 C 0.50765 0.98115 0.9784 0.0
C607 C 0.45057 0.94433 0.00245 0.0
C608 C 0.47015 0.95668 -0.00592 0.0
H609 H 0.5863 0.97582 0.96726 0.0
H610 H 0.55414 0.95502 0.98094 0.0
H611 H 0.49204 0.0475 0.97873 0.0
H612 H 0.39203 0.96574 0.00559 0.0
H613 H 0.4236 0.98067 -0.00904 0.0
C614 C 0.46381 0.34688 0.20246 0.0
C615 C 0.43908 0.3517 0.20255 0.0
C616 C 0.47588 0.31839 0.21135 0.0
C617 C 0.47024 0.26047 0.24285 0.0
H618 H 0.51967 0.18367 0.23054 0.0
C619 C 0.51283 0.11949 0.27471 0.0
C620 C 0.53756 0.11487 0.2746 0.0
C621 C 0.50064 0.14764 0.26577 0.0
C622 C 0.50607 0.2052 0.23417 0.0
H623 H 0.40772 0.33067 0.21221 0.0
H624 H 0.42876 0.28087 0.22762 0.0
H625 H 0.49905 0.2354 0.21547 0.0
H626 H 0.56882 0.13582 0.26483 0.0
H627 H 0.5476 0.18503 0.24934 0.0
H628 H 0.47728 0.23031 0.26156 0.0
C629 C 0.43885 0.29944 0.22076 0.0
C630 C 0.49428 0.2349 0.22553 0.0
C631 C 0.42677 0.32786 0.21187 0.0
C632 C 0.54976 0.13848 0.26519 0.0
C633 C 0.53758 0.16657 0.25626 0.0
C634 C 0.48204 0.23077 0.25149 0.0
C635 C 0.46352 0.29413 0.22055 0.0
C636 C 0.47623 0.2629 0.22977 0.0
C637 C 0.51291 0.17175 0.2565 0.0
C638 C 0.5001 0.2028 0.24725 0.0
H639 H 0.47386 0.3648 0.19545 0.0
H640 H 0.49494 0.31551 0.21105 0.0
H641 H 0.45666 0.28201 0.24648 0.0
H642 H 0.50286 0.10173 0.2818 0.0
H643 H 0.48159 0.15041 0.2661 0.0
C644 C 0.4255 0.8358 0.71023 0.0
C645 C 0.43756 0.85761 0.70043 0.0
C646 C 0.43736 0.80576 0.71873 0.0
C647 C 0.49702 0.77298 0.73175 0.0
H648 H 0.46584 0.66218 0.7405 0.0
C649 C 0.54611 0.63314 0.76089 0.0
C650 C 0.53395 0.6129 0.77093 0.0
C651 C 0.53425 0.66135 0.75187 0.0
C652 C 0.4747 0.69314 0.73824 0.0
H653 H 0.4717 0.86523 0.692 0.0
H654 H 0.49235 0.8126 0.70678 0.0
H655 H 0.4455 0.71558 0.72581 0.0
H656 H 0.49957 0.60561 0.77911 0.0
H657 H 0.47892 0.65508 0.76341 0.0
H658 H 0.52617 0.75065 0.74422 0.0
C659 C 0.47374 0.81908 0.70796 0.0
C660 C 0.46304 0.72378 0.72984 0.0
C661 C 0.46187 0.84913 0.69945 0.0
C662 C 0.50949 0.62057 0.7715 0.0
C663 C 0.49762 0.64881 0.76246 0.0
C664 C 0.50867 0.74235 0.74015 0.0
C665 C 0.46158 0.7968 0.71764 0.0
C666 C 0.47405 0.76411 0.72652 0.0
C667 C 0.50993 0.67003 0.75265 0.0
C668 C 0.49764 0.7021 0.74351 0.0
H669 H 0.40679 0.84162 0.71131 0.0
H670 H 0.42756 0.78972 0.72621 0.0
H671 H 0.50586 0.80401 0.72954 0.0
H672 H 0.56494 0.62782 0.76011 0.0
H673 H 0.54417 0.67655 0.74429 0.0
C674 C 0.43007 0.4348 0.52407 0.0
C675 C 0.4073 0.45225 0.52121 0.0
C676 C 0.44874 0.44546 0.51624 0.0
C677 C 0.46186 0.48784 0.48361 0.0
H678 H 0.52295 0.51708 0.50034 0.0
C679 C 0.53858 0.55673 0.45461 0.0
C680 C 0.56107 0.5382 0.4576 0.0
C681 C 0.51981 0.54824 0.46259 0.0
C682 C 0.50606 0.50863 0.49551 0.0
H683 H 0.38617 0.49402 0.50778 0.0
H684 H 0.41873 0.51273 0.49417 0.0
H685 H 0.49016 0.49662 0.51362 0.0
H686 H 0.58165 0.49707 0.47146 0.0
H687 H 0.54893 0.48203 0.48529 0.0
H688 H 0.47778 0.49963 0.4655 0.0
C689 C 0.42214 0.49051 0.50239 0.0
C690 C 0.48729 0.49682 0.50312 0.0
C691 C 0.4035 0.47993 0.51023 0.0
C692 C 0.56454 0.51193 0.46889 0.0
C693 C 0.54581 0.50347 0.47686 0.0
C694 C 0.48064 0.49962 0.476 0.0
C695 C 0.44502 0.47371 0.50537 0.0
C696 C 0.46499 0.48616 0.49726 0.0
C697 C 0.52315 0.52109 0.47373 0.0
C698 C 0.50299 0.51003 0.48186 0.0
H699 H 0.43356 0.41332 0.53246 0.0
H700 H 0.46609 0.43145 0.51868 0.0
H701 H 0.44499 0.47927 0.47879 0.0
H702 H 0.53536 0.5772 0.44599 0.0
H703 H 0.50266 0.56284 0.46001 0.0
C704 C 0.08638 0.67504 0.33646 0.0
C705 C 0.10385 0.65384 0.32945 0.0
C706 C 0.09227 0.71038 0.34483 0.0
C707 C 0.13784 0.75679 0.36619 0.0
H708 H 0.10159 0.86667 0.36205 0.0
C709 C 0.14855 0.90885 0.4017 0.0
C710 C 0.12737 0.93064 0.40449 0.0
C711 C 0.14854 0.87553 0.3921 0.0
C712 C 0.11175 0.83611 0.36342 0.0
H713 H 0.14129 0.65257 0.32583 0.0
H714 H 0.15172 0.71417 0.3409 0.0
H715 H 0.09647 0.8077 0.34583 0.0
H716 H 0.08949 0.93312 0.4 0.0
H717 H 0.08934 0.87457 0.38371 0.0
H718 H 0.15227 0.78432 0.38415 0.0
C719 C 0.13344 0.70344 0.3397 0.0
C720 C 0.10893 0.80257 0.35408 0.0
C721 C 0.12745 0.66849 0.33107 0.0
C722 C 0.10615 0.91737 0.39794 0.0
C723 C 0.1061 0.88402 0.3885 0.0
C724 C 0.14047 0.79027 0.37568 0.0
C725 C 0.11582 0.72482 0.34655 0.0
C726 C 0.12151 0.76226 0.35553 0.0
C727 C 0.12733 0.86339 0.38523 0.0
C728 C 0.12692 0.82979 0.37457 0.0
H729 H 0.06803 0.66463 0.33538 0.0
H730 H 0.07842 0.72621 0.35009 0.0
H731 H 0.14766 0.72579 0.3675 0.0
H732 H 0.16518 0.91856 0.4066 0.0
H733 H 0.1652 0.86027 0.38981 0.0
C734 C 0.10408 0.16849 0.39377 0.0
C735 C 0.12709 0.15046 0.39483 0.0
C736 C 0.09786 0.19984 0.38402 0.0
C737 C 0.11808 0.2422 0.35243 0.0
H738 H 0.0795 0.34596 0.35945 0.0
C739 C 0.12175 0.4066 0.32411 0.0
C740 C 0.10032 0.42603 0.31946 0.0
C741 C 0.12177 0.36937 0.33229 0.0
C742 C 0.08996 0.31673 0.35732 0.0
H743 H 0.16183 0.15252 0.38685 0.0
H744 H 0.15131 0.2078 0.37027 0.0
H745 H 0.08597 0.28831 0.37621 0.0
H746 H 0.06207 0.42192 0.31966 0.0
H747 H 0.06217 0.35697 0.33441 0.0
H748 H 0.12308 0.2719 0.33381 0.0
C749 C 0.13775 0.19677 0.3766 0.0
C750 C 0.09367 0.28371 0.36689 0.0
C751 C 0.14387 0.16529 0.38621 0.0
C752 C 0.07883 0.40733 0.32306 0.0
C753 C 0.07887 0.37047 0.33152 0.0
C754 C 0.11462 0.27539 0.34297 0.0
C755 C 0.11459 0.21394 0.37523 0.0
C756 C 0.1083 0.24663 0.36467 0.0
C757 C 0.10038 0.35127 0.33618 0.0
C758 C 0.10099 0.31338 0.34544 0.0
H759 H 0.09073 0.15758 0.40025 0.0
H760 H 0.07985 0.21226 0.38321 0.0
H761 H 0.12887 0.21348 0.35024 0.0
H762 H 0.13856 0.4203 0.32147 0.0
H763 H 0.13858 0.35537 0.33585 0.0
C764 C 0.11804 0.18582 0.83158 0.0
C765 C 0.1008 0.15305 0.83363 0.0
C766 C 0.12235 0.22003 0.84069 0.0
C767 C 0.09272 0.27949 0.86661 0.0
H768 H 0.15543 0.3247 0.87632 0.0
C769 C 0.13897 0.40782 0.90687 0.0
C770 C 0.12261 0.44322 0.90554 0.0
C771 C 0.13775 0.37183 0.89814 0.0
C772 C 0.13784 0.31214 0.87377 0.0
H773 H 0.07525 0.12958 0.84713 0.0
H774 H 0.08294 0.18856 0.86297 0.0
H775 H 0.15094 0.26176 0.86114 0.0
H776 H 0.09258 0.46922 0.89383 0.0
H777 H 0.09065 0.40714 0.87864 0.0
H778 H 0.07954 0.32908 0.87929 0.0
C779 C 0.09279 0.18849 0.85422 0.0
C780 C 0.13525 0.27648 0.86498 0.0
C781 C 0.08845 0.15454 0.84514 0.0
C782 C 0.10532 0.44229 0.89522 0.0
C783 C 0.10413 0.40657 0.88653 0.0
C784 C 0.09529 0.31497 0.87534 0.0
C785 C 0.1095 0.22203 0.85203 0.0
C786 C 0.11263 0.25979 0.86132 0.0
C787 C 0.12014 0.37068 0.88795 0.0
C788 C 0.11784 0.33191 0.87897 0.0
H789 H 0.12789 0.18556 0.82283 0.0
H790 H 0.13523 0.24558 0.83869 0.0
H791 H 0.07502 0.26785 0.86387 0.0
H792 H 0.15253 0.4077 0.91472 0.0
H793 H 0.15024 0.34449 0.89952 0.0
C794 C 0.14726 0.67981 0.89147 0.0
C795 C 0.12926 0.66403 0.89917 0.0
C796 C 0.14234 0.71163 0.88177 0.0
C797 C 0.09806 0.79581 0.86978 0.0
H798 H 0.13188 0.78374 0.83811 0.0
C799 C 0.08346 0.91229 0.82451 0.0
C800 C 0.10459 0.93267 0.82101 0.0
C801 C 0.08412 0.87658 0.83337 0.0
C802 C 0.12225 0.78736 0.84688 0.0
H803 H 0.09203 0.66997 0.90294 0.0
H804 H 0.08323 0.72497 0.88573 0.0
H805 H 0.13737 0.72776 0.85525 0.0
H806 H 0.14288 0.93092 0.82359 0.0
H807 H 0.14402 0.86796 0.83872 0.0
H808 H 0.08289 0.85555 0.86121 0.0
C809 C 0.10127 0.71323 0.88734 0.0
C810 C 0.12553 0.75557 0.85676 0.0
C811 C 0.10629 0.68167 0.89719 0.0
C812 C 0.12633 0.91585 0.82614 0.0
C813 C 0.127 0.87975 0.83475 0.0
C814 C 0.09456 0.82737 0.85979 0.0
C815 C 0.11919 0.72804 0.87937 0.0
C816 C 0.11397 0.75999 0.86848 0.0
C817 C 0.10592 0.86019 0.83858 0.0
C818 C 0.10706 0.82391 0.84839 0.0
H819 H 0.16521 0.66729 0.89286 0.0
H820 H 0.15674 0.72323 0.87611 0.0
H821 H 0.08898 0.80044 0.87869 0.0
H822 H 0.06647 0.92488 0.82074 0.0
H823 H 0.06765 0.86187 0.83619 0.0
C824 C 0.89005 0.32073 0.63158 0.0
C825 C 0.87805 0.31881 0.6432 0.0
C826 C 0.88639 0.28807 0.62203 0.0
C827 C 0.84594 0.19739 0.61057 0.0
H828 H 0.9019 0.15479 0.59417 0.0
C829 C 0.87831 0.03863 0.57839 0.0
C830 C 0.85968 0.03529 0.56885 0.0
C831 C 0.87955 0.07468 0.58696 0.0
C832 C 0.8861 0.16614 0.59869 0.0
H833 H 0.85242 0.28134 0.65378 0.0
H834 H 0.8464 0.22346 0.63714 0.0
H835 H 0.90563 0.21371 0.61037 0.0
H836 H 0.82773 0.06729 0.56078 0.0
H837 H 0.83009 0.13109 0.57576 0.0
H838 H 0.82659 0.14845 0.59911 0.0
C839 C 0.8584 0.25076 0.63538 0.0
C840 C 0.88819 0.20033 0.60788 0.0
C841 C 0.86197 0.28374 0.64495 0.0
C842 C 0.84231 0.06902 0.56803 0.0
C843 C 0.84357 0.10533 0.57665 0.0
C844 C 0.84385 0.16298 0.60136 0.0
C845 C 0.87077 0.25237 0.62387 0.0
C846 C 0.86817 0.2163 0.61397 0.0
C847 C 0.86226 0.10852 0.58619 0.0
C848 C 0.86397 0.14673 0.59541 0.0
H849 H 0.90234 0.34758 0.62981 0.0
H850 H 0.89584 0.29084 0.61317 0.0
H851 H 0.83015 0.20927 0.615 0.0
H852 H 0.89193 0.0131 0.57934 0.0
H853 H 0.89394 0.07567 0.59434 0.0
C854 C 0.88525 0.56841 0.6555 0.0
C855 C 0.86784 0.53485 0.65463 0.0
C856 C 0.88399 0.60504 0.64696 0.0
C857 C 0.84143 0.66711 0.62516 0.0
H858 H 0.89725 0.70982 0.60867 0.0
C859 C 0.86512 0.78475 0.57879 0.0
C860 C 0.84916 0.82006 0.5806 0.0
C861 C 0.86878 0.75173 0.58837 0.0
C862 C 0.8815 0.69807 0.61315 0.0
H863 H 0.83555 0.51333 0.64411 0.0
H864 H 0.83353 0.57649 0.62926 0.0
H865 H 0.90088 0.64861 0.62449 0.0
H866 H 0.82517 0.84916 0.59408 0.0
H867 H 0.83181 0.7923 0.61074 0.0
H868 H 0.82187 0.71521 0.6136 0.0
C869 C 0.84795 0.57509 0.63662 0.0
C870 C 0.88362 0.66343 0.62233 0.0
C871 C 0.84919 0.53869 0.64511 0.0
C872 C 0.83737 0.82215 0.59228 0.0
C873 C 0.84111 0.78942 0.60184 0.0
C874 C 0.83931 0.70154 0.61601 0.0
C875 C 0.86527 0.60874 0.63745 0.0
C876 C 0.86355 0.64731 0.62833 0.0
C877 C 0.85661 0.7535 0.59995 0.0
C878 C 0.85927 0.71734 0.60985 0.0
H879 H 0.89985 0.56628 0.66273 0.0
H880 H 0.89751 0.63065 0.64789 0.0
H881 H 0.82567 0.65584 0.62973 0.0
H882 H 0.87451 0.78222 0.56991 0.0
H883 H 0.88068 0.72425 0.58657 0.0
C884 C 0.8731 0.54786 0.07972 0.0
C885 C 0.85422 0.54477 0.07033 0.0
C886 C 0.8747 0.58387 0.0883 0.0
C887 C 0.84008 0.67295 0.10304 0.0
H888 H 0.90241 0.72282 0.1111 0.0
C889 C 0.88854 0.83026 0.13242 0.0
C890 C 0.87726 0.82862 0.14427 0.0
C891 C 0.88413 0.79763 0.12294 0.0
C892 C 0.88482 0.70969 0.10888 0.0
H893 H 0.82213 0.57708 0.06256 0.0
H894 H 0.82513 0.64085 0.07756 0.0
H895 H 0.89765 0.66373 0.09501 0.0
H896 H 0.85208 0.79176 0.15533 0.0
H897 H 0.84475 0.73392 0.1388 0.0
H898 H 0.82728 0.71968 0.11685 0.0
C899 C 0.83854 0.61492 0.07832 0.0
C900 C 0.88214 0.67541 0.09975 0.0
C901 C 0.83691 0.57864 0.06969 0.0
C902 C 0.86109 0.79392 0.14632 0.0
C903 C 0.85678 0.76097 0.13681 0.0
C904 C 0.84276 0.70747 0.1122 0.0
C905 C 0.85754 0.61793 0.08768 0.0
C906 C 0.85981 0.65629 0.09682 0.0
C907 C 0.86847 0.76225 0.12507 0.0
C908 C 0.86521 0.72608 0.11525 0.0
H909 H 0.88667 0.52222 0.08055 0.0
H910 H 0.88932 0.5847 0.09554 0.0
H911 H 0.82268 0.65867 0.10105 0.0
H912 H 0.90086 0.85682 0.13043 0.0
H913 H 0.89307 0.80016 0.1139 0.0
C914 C 0.88671 0.0783 0.15616 0.0
C915 C 0.86948 0.04443 0.15544 0.0
C916 C 0.88505 0.11485 0.1476 0.0
C917 C 0.88351 0.17353 0.12296 0.0
H918 H 0.82113 0.22368 0.11493 0.0
C919 C 0.86235 0.2949 0.0797 0.0
C920 C 0.84616 0.32964 0.08173 0.0
C921 C 0.86671 0.26192 0.08922 0.0
C922 C 0.83873 0.21048 0.11715 0.0
H923 H 0.83713 0.02211 0.14512 0.0
H924 H 0.83442 0.08508 0.13024 0.0
H925 H 0.82594 0.1642 0.13096 0.0
H926 H 0.82254 0.35788 0.09557 0.0
H927 H 0.8304 0.3011 0.11212 0.0
H928 H 0.89627 0.22053 0.1092 0.0
C929 C 0.849 0.08403 0.1375 0.0
C930 C 0.84144 0.17598 0.12624 0.0
C931 C 0.85064 0.04775 0.14601 0.0
C932 C 0.83488 0.33128 0.09358 0.0
C933 C 0.83933 0.2986 0.10309 0.0
C934 C 0.88079 0.20826 0.11384 0.0
C935 C 0.86609 0.11812 0.13822 0.0
C936 C 0.86379 0.15675 0.12915 0.0
C937 C 0.85503 0.26319 0.10097 0.0
C938 C 0.85833 0.22695 0.1108 0.0
H939 H 0.90145 0.07656 0.16332 0.0
H940 H 0.8984 0.14079 0.14843 0.0
H941 H 0.90093 0.15916 0.12493 0.0
H942 H 0.87136 0.29274 0.07069 0.0
H943 H 0.87875 0.23483 0.08725 0.0
C944 C 0.61649 0.68547 0.8265 0.0
C945 C 0.5988 0.65371 0.82871 0.0
C946 C 0.6211 0.72027 0.8354 0.0
C947 C 0.6345 0.77744 0.85956 0.0
H948 H 0.57931 0.83353 0.87343 0.0
C949 C 0.63899 0.90696 0.90197 0.0
C950 C 0.62296 0.94292 0.9008 0.0
C951 C 0.63771 0.87185 0.89293 0.0
C952 C 0.59493 0.81851 0.86958 0.0
H953 H 0.57271 0.63277 0.84224 0.0
H954 H 0.58092 0.69272 0.85767 0.0
H955 H 0.57414 0.77254 0.85799 0.0
H956 H 0.59364 0.97114 0.88899 0.0
H957 H 0.59166 0.91069 0.87326 0.0
H958 H 0.65523 0.82442 0.87107 0.0
C959 C 0.59091 0.69142 0.84897 0.0
C960 C 0.59197 0.78316 0.86084 0.0
C961 C 0.58627 0.6569 0.84012 0.0
C962 C 0.60608 0.94367 0.89028 0.0
C963 C 0.60487 0.90889 0.88127 0.0
C964 C 0.63748 0.81301 0.86836 0.0
C965 C 0.60812 0.72388 0.84664 0.0
C966 C 0.61168 0.76206 0.85576 0.0
C967 C 0.62039 0.87223 0.88259 0.0
C968 C 0.61768 0.834 0.87342 0.0
H969 H 0.6265 0.68388 0.81782 0.0
H970 H 0.63439 0.74496 0.8333 0.0
H971 H 0.65003 0.76164 0.85587 0.0
H972 H 0.65223 0.90557 0.90997 0.0
H973 H 0.64983 0.84391 0.89424 0.0
C974 C 0.64263 0.18859 0.89146 0.0
C975 C 0.62463 0.16683 0.89792 0.0
C976 C 0.63725 0.22411 0.88301 0.0
C977 C 0.592 0.2677 0.86059 0.0
H978 H 0.62868 0.37718 0.8632 0.0
C979 C 0.58106 0.41416 0.82316 0.0
C980 C 0.60213 0.43552 0.82001 0.0
C981 C 0.58127 0.38232 0.83319 0.0
C982 C 0.61841 0.34667 0.86225 0.0
H983 H 0.58687 0.16515 0.90063 0.0
H984 H 0.57737 0.22703 0.88547 0.0
H985 H 0.6336 0.32063 0.88022 0.0
H986 H 0.64003 0.43878 0.82436 0.0
H987 H 0.64054 0.38262 0.84143 0.0
H988 H 0.57761 0.29278 0.84229 0.0
C989 C 0.59564 0.21664 0.88713 0.0
C990 C 0.62113 0.31452 0.87205 0.0
C991 C 0.6011 0.18153 0.89583 0.0
C992 C 0.62346 0.42328 0.82668 0.0
C993 C 0.6237 0.39135 0.83656 0.0
C994 C 0.58947 0.29974 0.85066 0.0
C995 C 0.61371 0.23814 0.88067 0.0
C996 C 0.60835 0.27438 0.87117 0.0
C997 C 0.60257 0.3712 0.84016 0.0
C998 C 0.60313 0.33908 0.85123 0.0
H999 H 0.66093 0.17807 0.89291 0.0
H1000 H 0.65146 0.23997 0.87805 0.0
H1001 H 0.58204 0.2368 0.85969 0.0
H1002 H 0.56436 0.42315 0.81819 0.0
H1003 H 0.56468 0.36746 0.83574 0.0
C1004 C 0.59087 0.13648 0.34651 0.0
C1005 C 0.60096 0.14168 0.33439 0.0
C1006 C 0.59489 0.16806 0.35633 0.0
C1007 C 0.63276 0.26404 0.36696 0.0
H1008 H 0.57746 0.29676 0.38561 0.0
C1009 C 0.59701 0.41851 0.39947 0.0
C1010 C 0.61648 0.42612 0.40824 0.0
C1011 C 0.59643 0.38128 0.39134 0.0
C1012 C 0.59307 0.28812 0.38048 0.0
H1013 H 0.62374 0.18357 0.32323 0.0
H1014 H 0.63026 0.23966 0.34034 0.0
H1015 H 0.5745 0.23753 0.36949 0.0
H1016 H 0.65058 0.40037 0.41544 0.0
H1017 H 0.64946 0.33455 0.4012 0.0
H1018 H 0.651 0.31623 0.37769 0.0
C1019 C 0.61955 0.21063 0.34228 0.0
C1020 C 0.59146 0.25374 0.37133 0.0
C1021 C 0.61569 0.17869 0.33245 0.0
C1022 C 0.63532 0.39532 0.40879 0.0
C1023 C 0.63475 0.35786 0.40059 0.0
C1024 C 0.63435 0.29867 0.37613 0.0
C1025 C 0.60889 0.20598 0.35428 0.0
C1026 C 0.61121 0.24147 0.36438 0.0
C1027 C 0.61527 0.35053 0.39177 0.0
C1028 C 0.61441 0.31146 0.38285 0.0
H1029 H 0.57974 0.10799 0.34842 0.0
H1030 H 0.58685 0.16287 0.36554 0.0
H1031 H 0.64836 0.25507 0.36187 0.0
H1032 H 0.58223 0.44165 0.39877 0.0
H1033 H 0.58135 0.37708 0.38451 0.0
C1034 C 0.63228 0.63505 0.38095 0.0
C1035 C 0.62219 0.64014 0.39307 0.0
C1036 C 0.62822 0.66677 0.37113 0.0
C1037 C 0.59029 0.76298 0.36054 0.0
H1038 H 0.64573 0.7966 0.34216 0.0
C1039 C 0.62601 0.91896 0.32862 0.0
C1040 C 0.60668 0.92671 0.31975 0.0
C1041 C 0.62658 0.8814 0.33666 0.0
C1042 C 0.63008 0.78768 0.34722 0.0
H1043 H 0.59935 0.68192 0.40424 0.0
H1044 H 0.59274 0.73819 0.38714 0.0
H1045 H 0.64864 0.73668 0.35813 0.0
H1046 H 0.5728 0.90096 0.3123 0.0
H1047 H 0.57389 0.83461 0.32639 0.0
H1048 H 0.57204 0.81555 0.34989 0.0
C1049 C 0.6035 0.70918 0.38519 0.0
C1050 C 0.63166 0.75293 0.35627 0.0
C1051 C 0.6074 0.67712 0.39502 0.0
C1052 C 0.58795 0.89579 0.31903 0.0
C1053 C 0.5885 0.85804 0.32714 0.0
C1054 C 0.58871 0.79795 0.35145 0.0
C1055 C 0.61418 0.70467 0.3732 0.0
C1056 C 0.61186 0.74038 0.36314 0.0
C1057 C 0.60786 0.85051 0.33604 0.0
C1058 C 0.60871 0.81106 0.34484 0.0
H1059 H 0.64346 0.60659 0.37904 0.0
H1060 H 0.6363 0.66173 0.36192 0.0
H1061 H 0.57465 0.75379 0.36556 0.0
H1062 H 0.6407 0.94219 0.32946 0.0
H1063 H 0.64156 0.87703 0.34356 0.0
C1064 C 0.38673 0.33621 0.13003 0.0
C1065 C 0.3768 0.32993 0.14214 0.0
C1066 C 0.38277 0.30524 0.12003 0.0
C1067 C 0.34535 0.20865 0.1092 0.0
H1068 H 0.40038 0.17832 0.09003 0.0
C1069 C 0.38174 0.05464 0.07689 0.0
C1070 C 0.36186 0.04529 0.06858 0.0
C1071 C 0.38234 0.09271 0.0847 0.0
C1072 C 0.38484 0.18631 0.0953 0.0
H1073 H 0.3544 0.28673 0.15314 0.0
H1074 H 0.34804 0.23174 0.13576 0.0
H1075 H 0.40317 0.23749 0.10617 0.0
H1076 H 0.3271 0.06897 0.06177 0.0
H1077 H 0.32825 0.13621 0.07541 0.0
H1078 H 0.32741 0.15574 0.09867 0.0
C1079 C 0.35854 0.26115 0.13392 0.0
C1080 C 0.38634 0.22068 0.10446 0.0
C1081 C 0.36231 0.29248 0.14392 0.0
C1082 C 0.34268 0.07533 0.06808 0.0
C1083 C 0.34327 0.11362 0.07594 0.0
C1084 C 0.34388 0.17402 0.10004 0.0
C1085 C 0.369 0.26689 0.12191 0.0
C1086 C 0.36671 0.23197 0.11164 0.0
C1087 C 0.3631 0.12256 0.08438 0.0
C1088 C 0.36375 0.16202 0.09315 0.0
H1089 H 0.39769 0.36508 0.12826 0.0
H1090 H 0.39067 0.31126 0.11082 0.0
H1091 H 0.32981 0.21689 0.11444 0.0
H1092 H 0.39681 0.03214 0.07753 0.0
H1093 H 0.39771 0.09813 0.09124 0.0
C1094 C 0.39042 0.57388 0.15976 0.0
C1095 C 0.37107 0.54434 0.15899 0.0
C1096 C 0.3903 0.61245 0.15198 0.0
C1097 C 0.39041 0.67382 0.12795 0.0
H1098 H 0.33179 0.74025 0.12234 0.0
C1099 C 0.37174 0.79461 0.08445 0.0
C1100 C 0.3577 0.83257 0.08649 0.0
C1101 C 0.37577 0.763 0.09439 0.0
C1102 C 0.34844 0.72258 0.12391 0.0
H1103 H 0.33635 0.53231 0.14964 0.0
H1104 H 0.33622 0.59898 0.13615 0.0
H1105 H 0.33408 0.67981 0.13816 0.0
H1106 H 0.33809 0.86847 0.10079 0.0
H1107 H 0.3455 0.81405 0.1181 0.0
H1108 H 0.40475 0.71691 0.11366 0.0
C1109 C 0.35137 0.59283 0.1428 0.0
C1110 C 0.34965 0.68755 0.13288 0.0
C1111 C 0.35152 0.55441 0.15049 0.0
C1112 C 0.34866 0.83921 0.09881 0.0
C1113 C 0.35285 0.80793 0.10874 0.0
C1114 C 0.38922 0.70905 0.11895 0.0
C1115 C 0.37076 0.62222 0.14341 0.0
C1116 C 0.37049 0.66224 0.13484 0.0
C1117 C 0.36599 0.76894 0.10658 0.0
C1118 C 0.36809 0.73345 0.11671 0.0
H1119 H 0.40574 0.56691 0.16621 0.0
H1120 H 0.40542 0.63469 0.15271 0.0
H1121 H 0.40668 0.65473 0.1292 0.0
H1122 H 0.37898 0.78859 0.07507 0.0
H1123 H 0.38581 0.73314 0.09236 0.0
C1124 C 0.35404 0.80769 0.64424 0.0
C1125 C 0.36958 0.84316 0.64192 0.0
C1126 C 0.34911 0.77531 0.63465 0.0
C1127 C 0.37609 0.7266 0.60611 0.0
H1128 H 0.31553 0.66705 0.60048 0.0
C1129 C 0.33077 0.58274 0.57012 0.0
C1130 C 0.34914 0.55097 0.57114 0.0
C1131 C 0.33156 0.62094 0.57803 0.0
C1132 C 0.33246 0.68375 0.60185 0.0
H1133 H 0.39098 0.87396 0.62746 0.0
H1134 H 0.38206 0.81825 0.61075 0.0
H1135 H 0.31916 0.73061 0.61547 0.0
H1136 H 0.38261 0.53414 0.58132 0.0
H1137 H 0.38386 0.60004 0.59506 0.0
H1138 H 0.38943 0.68017 0.59253 0.0
C1139 C 0.37418 0.81462 0.62006 0.0
C1140 C 0.33461 0.71978 0.61053 0.0
C1141 C 0.37923 0.84666 0.62965 0.0
C1142 C 0.36821 0.55805 0.58022 0.0
C1143 C 0.36901 0.59601 0.58806 0.0
C1144 C 0.37394 0.69077 0.59748 0.0
C1145 C 0.35953 0.77798 0.62254 0.0
C1146 C 0.35653 0.74132 0.61284 0.0
C1147 C 0.3508 0.62802 0.58703 0.0
C1148 C 0.35223 0.66847 0.59539 0.0
H1149 H 0.34629 0.80411 0.6536 0.0
H1150 H 0.33789 0.7473 0.63691 0.0
H1151 H 0.39332 0.74196 0.60777 0.0
H1152 H 0.31582 0.5781 0.56323 0.0
H1153 H 0.31732 0.64518 0.57699 0.0
C1154 C 0.37061 0.31215 0.58428 0.0
C1155 C 0.34779 0.33098 0.58314 0.0
C1156 C 0.37667 0.28188 0.59433 0.0
C1157 C 0.35664 0.24365 0.62641 0.0
H1158 H 0.39396 0.13778 0.6199 0.0
C1159 C 0.35191 0.08112 0.65566 0.0
C1160 C 0.37314 0.05967 0.65971 0.0
C1161 C 0.35215 0.11875 0.64765 0.0
C1162 C 0.38387 0.16763 0.6219 0.0
H1163 H 0.31323 0.33165 0.59135 0.0
H1164 H 0.32348 0.27814 0.60849 0.0
H1165 H 0.38771 0.19406 0.60277 0.0
H1166 H 0.41133 0.06092 0.65877 0.0
H1167 H 0.41168 0.12659 0.64433 0.0
H1168 H 0.35177 0.21587 0.6453 0.0
C1169 C 0.33701 0.28772 0.60196 0.0
C1170 C 0.38028 0.19987 0.61211 0.0
C1171 C 0.33105 0.31816 0.59204 0.0
C1172 C 0.39473 0.0771 0.65583 0.0
C1173 C 0.39494 0.11436 0.64755 0.0
C1174 C 0.35998 0.21121 0.63611 0.0
C1175 C 0.35998 0.26963 0.60336 0.0
C1176 C 0.3661 0.23772 0.61415 0.0
C1177 C 0.3736 0.13523 0.64333 0.0
C1178 C 0.37317 0.17247 0.63384 0.0
H1179 H 0.38394 0.32155 0.57761 0.0
H1180 H 0.39455 0.26878 0.59516 0.0
H1181 H 0.34619 0.27298 0.62846 0.0
H1182 H 0.33503 0.06836 0.65854 0.0
H1183 H 0.33545 0.13401 0.64444 0.0
loop_
_geom_bond_atom_site_label_1
_geom_bond_atom_site_label_2
_geom_bond_distance
_geom_bond_site_symmetry_2
_ccdc_geom_bond_type
C0 O1 1.306 . S
C0 O3 1.160 . S
O1 C0 1.306 . S
O1 Cd2 2.228 . S
Cd2 O1 2.228 . S
Cd2 O6 2.273 . S
Cd2 O10 2.277 . S
O3 C0 1.160 . S
O3 Cd4 2.203 . S
Cd4 O3 2.203 . S
Cd4 O6 2.411 . S
Cd4 O7 2.333 . S
Cd4 O8 2.352 . S
Cd4 O12 2.277 . S
Cd4 O13 2.356 . S
C5 O10 1.209 . S
C5 O12 1.226 . S
O6 Cd2 2.273 . S
O6 Cd4 2.411 . S
O6 C9 1.320 . S
O7 Cd4 2.333 . S
O7 C9 1.214 . S
O8 Cd4 2.352 . S
O8 C11 1.258 . S
C9 O6 1.320 . S
C9 O7 1.214 . S
O10 Cd2 2.277 . S
O10 C5 1.209 . S
C11 O8 1.258 . S
C11 O13 1.282 . S
O12 Cd4 2.277 . S
O12 C5 1.226 . S
O13 Cd4 2.356 . S
O13 C11 1.282 . S
C14 O15 1.306 . S
C14 O17 1.160 . S
O15 C14 1.306 . S
O15 Cd16 2.228 . S
Cd16 O15 2.228 . S
Cd16 O20 2.273 . S
Cd16 O24 2.277 . S
O17 C14 1.160 . S
O17 Cd18 2.203 . S
Cd18 O17 2.203 . S
Cd18 O20 2.411 . S
Cd18 O21 2.333 . S
Cd18 O22 2.352 . S
Cd18 O26 2.277 . S
Cd18 O27 2.356 . S
C19 O24 1.209 . S
C19 O26 1.226 . S
O20 Cd16 2.273 . S
O20 Cd18 2.411 . S
O20 C23 1.320 . S
O21 Cd18 2.333 . S
O21 C23 1.214 . S
O22 Cd18 2.352 . S
O22 C25 1.258 . S
C23 O20 1.320 . S
C23 O21 1.214 . S
O24 Cd16 2.277 . S
O24 C19 1.209 . S
C25 O22 1.258 . S
C25 O27 1.282 . S
O26 Cd18 2.277 . S
O26 C19 1.226 . S
O27 Cd18 2.356 . S
O27 C25 1.282 . S
C28 O29 1.306 . S
C28 O31 1.160 . S
O29 C28 1.306 . S
O29 Cd30 2.228 . S
Cd30 O29 2.228 . S
Cd30 O34 2.273 . S
Cd30 O38 2.277 . S
O31 C28 1.160 . S
O31 Cd32 2.203 . S
Cd32 O31 2.203 . S
Cd32 O34 2.411 . S
Cd32 O35 2.333 . S
Cd32 O36 2.352 . S
Cd32 O40 2.277 . S
Cd32 O41 2.356 . S
C33 O38 1.209 . S
C33 O40 1.226 . S
O34 Cd30 2.273 . S
O34 Cd32 2.411 . S
O34 C37 1.320 . S
O35 Cd32 2.333 . S
O35 C37 1.214 . S
O36 Cd32 2.352 . S
O36 C39 1.258 . S
C37 O34 1.320 . S
C37 O35 1.214 . S
O38 Cd30 2.277 . S
O38 C33 1.209 . S
C39 O36 1.258 . S
C39 O41 1.282 . S
O40 Cd32 2.277 . S
O40 C33 1.226 . S
O41 Cd32 2.356 . S
O41 C39 1.282 . S
C42 O43 1.306 . S
C42 O45 1.160 . S
O43 C42 1.306 . S
O43 Cd44 2.228 . S
Cd44 O43 2.228 . S
Cd44 O48 2.273 . S
Cd44 O52 2.277 . S
O45 C42 1.160 . S
O45 Cd46 2.203 . S
Cd46 O45 2.203 . S
Cd46 O48 2.411 . S
Cd46 O49 2.333 . S
Cd46 O50 2.352 . S
Cd46 O54 2.277 . S
Cd46 O55 2.356 . S
C47 O52 1.209 . S
C47 O54 1.226 . S
O48 Cd44 2.273 . S
O48 Cd46 2.411 . S
O48 C51 1.320 . S
O49 Cd46 2.333 . S
O49 C51 1.214 . S
O50 Cd46 2.352 . S
O50 C53 1.258 . S
C51 O48 1.320 . S
C51 O49 1.214 . S
O52 Cd44 2.277 . S
O52 C47 1.209 . S
C53 O50 1.258 . S
C53 O55 1.282 . S
O54 Cd46 2.277 . S
O54 C47 1.226 . S
O55 Cd46 2.356 . S
O55 C53 1.282 . S
C56 O57 1.306 . S
C56 O59 1.160 . S
O57 C56 1.306 . S
O57 Cd58 2.228 . S
Cd58 O57 2.228 . S
Cd58 O62 2.273 . S
Cd58 O66 2.277 . S
O59 C56 1.160 . S
O59 Cd60 2.203 . S
Cd60 O59 2.203 . S
Cd60 O62 2.411 . S
Cd60 O63 2.333 . S
Cd60 O64 2.352 . S
Cd60 O68 2.277 . S
Cd60 O69 2.356 . S
C61 O66 1.209 . S
C61 O68 1.226 . S
O62 Cd58 2.273 . S
O62 Cd60 2.411 . S
O62 C65 1.320 . S
O63 Cd60 2.333 . S
O63 C65 1.214 . S
O64 Cd60 2.352 . S
O64 C67 1.258 . S
C65 O62 1.320 . S
C65 O63 1.214 . S
O66 Cd58 2.277 . S
O66 C61 1.209 . S
C67 O64 1.258 . S
C67 O69 1.282 . S
O68 Cd60 2.277 . S
O68 C61 1.226 . S
O69 Cd60 2.356 . S
O69 C67 1.282 . S
C70 O71 1.306 . S
C70 O73 1.160 . S
O71 C70 1.306 . S
O71 Cd72 2.228 . S
Cd72 O71 2.228 . S
Cd72 O76 2.273 . S
Cd72 O80 2.277 . S
O73 C70 1.160 . S
O73 Cd74 2.203 . S
Cd74 O73 2.203 . S
Cd74 O76 2.411 . S
Cd74 O77 2.333 . S
Cd74 O78 2.352 . S
Cd74 O82 2.277 . S
Cd74 O83 2.356 . S
C75 O80 1.209 . S
C75 O82 1.226 . S
O76 Cd72 2.273 . S
O76 Cd74 2.411 . S
O76 C79 1.320 . S
O77 Cd74 2.333 . S
O77 C79 1.214 . S
O78 Cd74 2.352 . S
O78 C81 1.258 . S
C79 O76 1.320 . S
C79 O77 1.214 . S
O80 Cd72 2.277 . S
O80 C75 1.209 . S
C81 O78 1.258 . S
C81 O83 1.282 . S
O82 Cd74 2.277 . S
O82 C75 1.226 . S
O83 Cd74 2.356 . S
O83 C81 1.282 . S
C84 O85 1.306 . S
C84 O87 1.160 . S
O85 C84 1.306 . S
O85 Cd86 2.228 . S
Cd86 O85 2.228 . S
Cd86 O90 2.273 . S
Cd86 O94 2.277 . S
O87 C84 1.160 . S
O87 Cd88 2.203 . S
Cd88 O87 2.203 . S
Cd88 O90 2.411 . S
Cd88 O91 2.333 . S
Cd88 O92 2.352 . S
Cd88 O96 2.277 . S
Cd88 O97 2.356 . S
C89 O94 1.209 . S
C89 O96 1.226 . S
O90 Cd86 2.273 . S
O90 Cd88 2.411 . S
O90 C93 1.320 . S
O91 Cd88 2.333 . S
O91 C93 1.214 . S
O92 Cd88 2.352 . S
O92 C95 1.258 . S
C93 O90 1.320 . S
C93 O91 1.214 . S
O94 Cd86 2.277 . S
O94 C89 1.209 . S
C95 O92 1.258 . S
C95 O97 1.282 . S
O96 Cd88 2.277 . S
O96 C89 1.226 . S
O97 Cd88 2.356 . S
O97 C95 1.282 . S
C98 O99 1.306 . S
C98 O101 1.160 . S
O99 C98 1.306 . S
O99 Cd100 2.228 . S
Cd100 O99 2.228 . S
Cd100 O104 2.273 . S
Cd100 O108 2.277 . S
O101 C98 1.160 . S
O101 Cd102 2.203 . S
Cd102 O101 2.203 . S
Cd102 O104 2.411 . S
Cd102 O105 2.333 . S
Cd102 O106 2.352 . S
Cd102 O110 2.277 . S
Cd102 O111 2.356 . S
C103 O108 1.209 . S
C103 O110 1.226 . S
O104 Cd100 2.273 . S
O104 Cd102 2.411 . S
O104 C107 1.320 . S
O105 Cd102 2.333 . S
O105 C107 1.214 . S
O106 Cd102 2.352 . S
O106 C109 1.258 . S
C107 O104 1.320 . S
C107 O105 1.214 . S
O108 Cd100 2.277 . S
O108 C103 1.209 . S
C109 O106 1.258 . S
C109 O111 1.282 . S
O110 Cd102 2.277 . S
O110 C103 1.226 . S
O111 Cd102 2.356 . S
O111 C109 1.282 . S
C112 O113 1.306 . S
C112 O115 1.160 . S
O113 C112 1.306 . S
O113 Cd114 2.228 . S
Cd114 O113 2.228 . S
Cd114 O118 2.273 . S
Cd114 O122 2.277 . S
O115 C112 1.160 . S
O115 Cd116 2.203 . S
Cd116 O115 2.203 . S
Cd116 O118 2.411 . S
Cd116 O119 2.333 . S
Cd116 O120 2.352 . S
Cd116 O124 2.277 . S
Cd116 O125 2.356 . S
C117 O122 1.209 . S
C117 O124 1.226 . S
O118 Cd114 2.273 . S
O118 Cd116 2.411 . S
O118 C121 1.320 . S
O119 Cd116 2.333 . S
O119 C121 1.214 . S
O120 Cd116 2.352 . S
O120 C123 1.258 . S
C121 O118 1.320 . S
C121 O119 1.214 . S
O122 Cd114 2.277 . S
O122 C117 1.209 . S
C123 O120 1.258 . S
C123 O125 1.282 . S
O124 Cd116 2.277 . S
O124 C117 1.226 . S
O125 Cd116 2.356 . S
O125 C123 1.282 . S
C126 O127 1.306 . S
C126 O129 1.160 . S
O127 C126 1.306 . S
O127 Cd128 2.228 . S
Cd128 O127 2.228 . S
Cd128 O132 2.273 . S
Cd128 O136 2.277 . S
O129 C126 1.160 . S
O129 Cd130 2.203 . S
Cd130 O129 2.203 . S
Cd130 O132 2.411 . S
Cd130 O133 2.333 . S
Cd130 O134 2.352 . S
Cd130 O138 2.277 . S
Cd130 O139 2.356 . S
C131 O136 1.209 . S
C131 O138 1.226 . S
O132 Cd128 2.273 . S
O132 Cd130 2.411 . S
O132 C135 1.320 . S
O133 Cd130 2.333 . S
O133 C135 1.214 . S
O134 Cd130 2.352 . S
O134 C137 1.258 . S
C135 O132 1.320 . S
C135 O133 1.214 . S
O136 Cd128 2.277 . S
O136 C131 1.209 . S
C137 O134 1.258 . S
C137 O139 1.282 . S
O138 Cd130 2.277 . S
O138 C131 1.226 . S
O139 Cd130 2.356 . S
O139 C137 1.282 . S
C140 O141 1.306 . S
C140 O143 1.160 . S
O141 C140 1.306 . S
O141 Cd142 2.228 . S
Cd142 O141 2.228 . S
Cd142 O146 2.273 . S
Cd142 O150 2.277 . S
O143 C140 1.160 . S
O143 Cd144 2.203 . S
Cd144 O143 2.203 . S
Cd144 O146 2.411 . S
Cd144 O147 2.333 . S
Cd144 O148 2.352 . S
Cd144 O152 2.277 . S
Cd144 O153 2.356 . S
C145 O150 1.209 . S
C145 O152 1.226 . S
O146 Cd142 2.273 . S
O146 Cd144 2.411 . S
O146 C149 1.320 . S
O147 Cd144 2.333 . S
O147 C149 1.214 . S
O148 Cd144 2.352 . S
O148 C151 1.258 . S
C149 O146 1.320 . S
C149 O147 1.214 . S
O150 Cd142 2.277 . S
O150 C145 1.209 . S
C151 O148 1.258 . S
C151 O153 1.282 . S
O152 Cd144 2.277 . S
O152 C145 1.226 . S
O153 Cd144 2.356 . S
O153 C151 1.282 . S
C154 O155 1.306 . S
C154 O157 1.160 . S
O155 C154 1.306 . S
O155 Cd156 2.228 . S
Cd156 O155 2.228 . S
Cd156 O160 2.273 . S
Cd156 O164 2.277 . S
O157 C154 1.160 . S
O157 Cd158 2.203 . S
Cd158 O157 2.203 . S
Cd158 O160 2.411 . S
Cd158 O161 2.333 . S
Cd158 O162 2.352 . S
Cd158 O166 2.277 . S
Cd158 O167 2.356 . S
C159 O164 1.209 . S
C159 O166 1.226 . S
O160 Cd156 2.273 . S
O160 Cd158 2.411 . S
O160 C163 1.320 . S
O161 Cd158 2.333 . S
O161 C163 1.214 . S
O162 Cd158 2.352 . S
O162 C165 1.258 . S
C163 O160 1.320 . S
C163 O161 1.214 . S
O164 Cd156 2.277 . S
O164 C159 1.209 . S
C165 O162 1.258 . S
C165 O167 1.282 . S
O166 Cd158 2.277 . S
O166 C159 1.226 . S
O167 Cd158 2.356 . S
O167 C165 1.282 . S
C168 O169 1.306 . S
C168 O171 1.160 . S
O169 C168 1.306 . S
O169 Cd170 2.228 . S
Cd170 O169 2.228 . S
Cd170 O174 2.273 . S
Cd170 O178 2.277 . S
O171 C168 1.160 . S
O171 Cd172 2.203 . S
Cd172 O171 2.203 . S
Cd172 O174 2.411 . S
Cd172 O175 2.333 . S
Cd172 O176 2.352 . S
Cd172 O180 2.277 . S
Cd172 O181 2.356 . S
C173 O178 1.209 . S
C173 O180 1.226 . S
O174 Cd170 2.273 . S
O174 Cd172 2.411 . S
O174 C177 1.320 . S
O175 Cd172 2.333 . S
O175 C177 1.214 . S
O176 Cd172 2.352 . S
O176 C179 1.258 . S
C177 O174 1.320 . S
C177 O175 1.214 . S
O178 Cd170 2.277 . S
O178 C173 1.209 . S
C179 O176 1.258 . S
C179 O181 1.282 . S
O180 Cd172 2.277 . S
O180 C173 1.226 . S
O181 Cd172 2.356 . S
O181 C179 1.282 . S
C182 O183 1.306 . S
C182 O185 1.160 . S
O183 C182 1.306 . S
O183 Cd184 2.228 . S
Cd184 O183 2.228 . S
Cd184 O188 2.273 . S
Cd184 O192 2.277 . S
O185 C182 1.160 . S
O185 Cd186 2.203 . S
Cd186 O185 2.203 . S
Cd186 O188 2.411 . S
Cd186 O189 2.333 . S
Cd186 O190 2.352 . S
Cd186 O194 2.277 . S
Cd186 O195 2.356 . S
C187 O192 1.209 . S
C187 O194 1.226 . S
O188 Cd184 2.273 . S
O188 Cd186 2.411 . S
O188 C191 1.320 . S
O189 Cd186 2.333 . S
O189 C191 1.214 . S
O190 Cd186 2.352 . S
O190 C193 1.258 . S
C191 O188 1.320 . S
C191 O189 1.214 . S
O192 Cd184 2.277 . S
O192 C187 1.209 . S
C193 O190 1.258 . S
C193 O195 1.282 . S
O194 Cd186 2.277 . S
O194 C187 1.226 . S
O195 Cd186 2.356 . S
O195 C193 1.282 . S
C196 O197 1.306 . S
C196 O199 1.160 . S
O197 C196 1.306 . S
O197 Cd198 2.228 . S
Cd198 O197 2.228 . S
Cd198 O202 2.273 . S
Cd198 O206 2.277 . S
O199 C196 1.160 . S
O199 Cd200 2.203 . S
Cd200 O199 2.203 . S
Cd200 O202 2.411 . S
Cd200 O203 2.333 . S
Cd200 O204 2.352 . S
Cd200 O208 2.277 . S
Cd200 O209 2.356 . S
C201 O206 1.209 . S
C201 O208 1.226 . S
O202 Cd198 2.273 . S
O202 Cd200 2.411 . S
O202 C205 1.320 . S
O203 Cd200 2.333 . S
O203 C205 1.214 . S
O204 Cd200 2.352 . S
O204 C207 1.258 . S
C205 O202 1.320 . S
C205 O203 1.214 . S
O206 Cd198 2.277 . S
O206 C201 1.209 . S
C207 O204 1.258 . S
C207 O209 1.282 . S
O208 Cd200 2.277 . S
O208 C201 1.226 . S
O209 Cd200 2.356 . S
O209 C207 1.282 . S
C210 O211 1.306 . S
C210 O213 1.160 . S
O211 C210 1.306 . S
O211 Cd212 2.228 . S
Cd212 O211 2.228 . S
Cd212 O216 2.273 . S
Cd212 O220 2.277 . S
O213 C210 1.160 . S
O213 Cd214 2.203 . S
Cd214 O213 2.203 . S
Cd214 O216 2.411 . S
Cd214 O217 2.333 . S
Cd214 O218 2.352 . S
Cd214 O222 2.277 . S
Cd214 O223 2.356 . S
C215 O220 1.209 . S
C215 O222 1.226 . S
O216 Cd212 2.273 . S
O216 Cd214 2.411 . S
O216 C219 1.320 . S
O217 Cd214 2.333 . S
O217 C219 1.214 . S
O218 Cd214 2.352 . S
O218 C221 1.258 . S
C219 O216 1.320 . S
C219 O217 1.214 . S
O220 Cd212 2.277 . S
O220 C215 1.209 . S
C221 O218 1.258 . S
C221 O223 1.282 . S
O222 Cd214 2.277 . S
O222 C215 1.226 . S
O223 Cd214 2.356 . S
O223 C221 1.282 . S
C224 C225 1.349 . S
C224 C226 1.327 . S
C224 H249 0.950 . S
C225 C224 1.349 . S
C225 C241 1.349 . S
C226 C224 1.327 . S
C226 C245 1.429 . S
C226 H250 0.950 . S
C227 C244 1.574 . S
C227 C246 1.368 . S
C227 H251 0.949 . S
H228 C232 0.949 . S
C229 C230 1.349 . S
C229 C231 1.327 . S
C229 H252 0.950 . S
C230 C229 1.349 . S
C230 C242 1.349 . S
C231 C229 1.327 . S
C231 C247 1.429 . S
C231 H253 0.950 . S
C232 H228 0.949 . S
C232 C240 1.574 . S
C232 C248 1.368 . S
H233 C241 0.950 . S
H234 C239 0.950 . S
H235 C240 0.949 . S
H236 C242 0.950 . S
H237 C243 0.950 . S
H238 C244 0.949 . S
C239 H234 0.950 . S
C239 C241 1.327 . S
C239 C245 1.429 . S
C240 C232 1.574 . S
C240 H235 0.949 . S
C240 C246 1.368 . S
C241 C225 1.349 . S
C241 H233 0.950 . S
C241 C239 1.327 . S
C242 C230 1.349 . S
C242 H236 0.950 . S
C242 C243 1.327 . S
C243 H237 0.950 . S
C243 C242 1.327 . S
C243 C247 1.429 . S
C244 C227 1.574 . S
C244 H238 0.949 . S
C244 C248 1.368 . S
C245 C226 1.429 . S
C245 C239 1.429 . S
C245 C246 1.523 . S
C246 C227 1.368 . S
C246 C240 1.368 . S
C246 C245 1.523 . S
C247 C231 1.429 . S
C247 C243 1.429 . S
C247 C248 1.523 . S
C248 C232 1.368 . S
C248 C244 1.368 . S
C248 C247 1.523 . S
H249 C224 0.950 . S
H250 C226 0.950 . S
H251 C227 0.949 . S
H252 C229 0.950 . S
H253 C231 0.950 . S
C254 C255 1.349 . S
C254 C256 1.327 . S
C254 H279 0.950 . S
C255 C254 1.349 . S
C255 C271 1.349 . S
C256 C254 1.327 . S
C256 C275 1.429 . S
C256 H280 0.950 . S
C257 C274 1.574 1_655 S
C257 C276 1.368 1_545 S
C257 H281 0.949 . S
H258 C262 0.949 . S
C259 C260 1.349 . S
C259 C261 1.327 . S
C259 H282 0.950 . S
C260 C259 1.349 . S
C260 C272 1.349 . S
C261 C259 1.327 . S
C261 C277 1.429 . S
C261 H283 0.950 . S
C262 H258 0.949 . S
C262 C270 1.574 1_455 S
C262 C278 1.368 1_565 S
H263 C271 0.950 . S
H264 C269 0.950 1_545 S
H265 C270 0.949 . S
H266 C272 0.950 . S
H267 C273 0.950 1_565 S
H268 C274 0.949 . S
C269 H264 0.950 1_565 S
C269 C271 1.327 . S
C269 C275 1.429 . S
C270 C262 1.574 1_655 S
C270 H265 0.949 . S
C270 C276 1.368 . S
C271 C255 1.349 . S
C271 H263 0.950 . S
C271 C269 1.327 . S
C272 C260 1.349 . S
C272 H266 0.950 . S
C272 C273 1.327 . S
C273 H267 0.950 1_545 S
C273 C272 1.327 . S
C273 C277 1.429 . S
C274 C257 1.574 1_455 S
C274 H268 0.949 . S
C274 C278 1.368 . S
C275 C256 1.429 . S
C275 C269 1.429 . S
C275 C276 1.523 . S
C276 C257 1.368 1_565 S
C276 C270 1.368 . S
C276 C275 1.523 . S
C277 C261 1.429 . S
C277 C273 1.429 . S
C277 C278 1.523 . S
C278 C262 1.368 1_545 S
C278 C274 1.368 . S
C278 C277 1.523 . S
H279 C254 0.950 . S
H280 C256 0.950 . S
H281 C257 0.949 . S
H282 C259 0.950 . S
H283 C261 0.950 . S
C284 C285 1.349 . S
C284 C286 1.327 . S
C284 H309 0.950 . S
C285 C284 1.349 . S
C285 C301 1.349 . S
C286 C284 1.327 . S
C286 C305 1.429 . S
C286 H310 0.950 1_565 S
C287 C304 1.574 . S
C287 C306 1.368 . S
C287 H311 0.949 . S
H288 C292 0.949 . S
C289 C290 1.349 . S
C289 C291 1.327 . S
C289 H312 0.950 . S
C290 C289 1.349 . S
C290 C302 1.349 . S
C291 C289 1.327 . S
C291 C307 1.429 . S
C291 H313 0.950 1_545 S
C292 H288 0.949 . S
C292 C300 1.574 . S
C292 C308 1.368 . S
H293 C301 0.950 . S
H294 C299 0.950 . S
H295 C300 0.949 . S
H296 C302 0.950 . S
H297 C303 0.950 . S
H298 C304 0.949 . S
C299 H294 0.950 . S
C299 C301 1.327 . S
C299 C305 1.429 . S
C300 C292 1.574 . S
C300 H295 0.949 . S
C300 C306 1.368 1_545 S
C301 C285 1.349 . S
C301 H293 0.950 . S
C301 C299 1.327 . S
C302 C290 1.349 . S
C302 H296 0.950 . S
C302 C303 1.327 . S
C303 H297 0.950 . S
C303 C302 1.327 . S
C303 C307 1.429 . S
C304 C287 1.574 . S
C304 H298 0.949 . S
C304 C308 1.368 1_565 S
C305 C286 1.429 . S
C305 C299 1.429 . S
C305 C306 1.523 . S
C306 C287 1.368 . S
C306 C300 1.368 1_565 S
C306 C305 1.523 . S
C307 C291 1.429 . S
C307 C303 1.429 . S
C307 C308 1.523 . S
C308 C292 1.368 . S
C308 C304 1.368 1_545 S
C308 C307 1.523 . S
H309 C284 0.950 . S
H310 C286 0.950 1_545 S
H311 C287 0.949 . S
H312 C289 0.950 . S
H313 C291 0.950 1_565 S
C314 C315 1.349 . S
C314 C316 1.327 . S
C314 H339 0.950 . S
C315 C314 1.349 . S
C315 C331 1.349 . S
C316 C314 1.327 . S
C316 C335 1.429 . S
C316 H340 0.950 . S
C317 C334 1.574 . S
C317 C336 1.368 . S
C317 H341 0.949 . S
H318 C322 0.949 . S
C319 C320 1.349 . S
C319 C321 1.327 . S
C319 H342 0.950 . S
C320 C319 1.349 . S
C320 C332 1.349 . S
C321 C319 1.327 . S
C321 C337 1.429 . S
C321 H343 0.950 . S
C322 H318 0.949 . S
C322 C330 1.574 . S
C322 C338 1.368 . S
H323 C331 0.950 . S
H324 C329 0.950 . S
H325 C330 0.949 . S
H326 C332 0.950 . S
H327 C333 0.950 . S
H328 C334 0.949 . S
C329 H324 0.950 . S
C329 C331 1.327 . S
C329 C335 1.429 . S
C330 C322 1.574 . S
C330 H325 0.949 . S
C330 C336 1.368 1_655 S
C331 C315 1.349 . S
C331 H323 0.950 . S
C331 C329 1.327 . S
C332 C320 1.349 . S
C332 H326 0.950 . S
C332 C333 1.327 . S
C333 H327 0.950 . S
C333 C332 1.327 . S
C333 C337 1.429 . S
C334 C317 1.574 . S
C334 H328 0.949 . S
C334 C338 1.368 1_455 S
C335 C316 1.429 . S
C335 C329 1.429 . S
C335 C336 1.523 . S
C336 C317 1.368 . S
C336 C330 1.368 1_455 S
C336 C335 1.523 . S
C337 C321 1.429 . S
C337 C333 1.429 . S
C337 C338 1.523 . S
C338 C322 1.368 . S
C338 C334 1.368 1_655 S
C338 C337 1.523 . S
H339 C314 0.950 . S
H340 C316 0.950 . S
H341 C317 0.949 . S
H342 C319 0.950 . S
H343 C321 0.950 . S
C344 C345 1.349 . S
C344 C346 1.327 . S
C344 H369 0.950 . S
C345 C344 1.349 . S
C345 C361 1.349 . S
C346 C344 1.327 . S
C346 C365 1.429 . S
C346 H370 0.950 . S
C347 C364 1.574 . S
C347 C366 1.368 . S
C347 H371 0.949 . S
H348 C352 0.949 . S
C349 C350 1.349 . S
C349 C351 1.327 . S
C349 H372 0.950 . S
C350 C349 1.349 . S
C350 C362 1.349 . S
C351 C349 1.327 . S
C351 C367 1.429 . S
C351 H373 0.950 . S
C352 H348 0.949 . S
C352 C360 1.574 . S
C352 C368 1.368 . S
H353 C361 0.950 . S
H354 C359 0.950 . S
H355 C360 0.949 . S
H356 C362 0.950 . S
H357 C363 0.950 . S
H358 C364 0.949 . S
C359 H354 0.950 . S
C359 C361 1.327 . S
C359 C365 1.429 . S
C360 C352 1.574 . S
C360 H355 0.949 . S
C360 C366 1.368 . S
C361 C345 1.349 . S
C361 H353 0.950 . S
C361 C359 1.327 . S
C362 C350 1.349 . S
C362 H356 0.950 . S
C362 C363 1.327 . S
C363 H357 0.950 . S
C363 C362 1.327 . S
C363 C367 1.429 . S
C364 C347 1.574 . S
C364 H358 0.949 . S
C364 C368 1.368 . S
C365 C346 1.429 . S
C365 C359 1.429 . S
C365 C366 1.523 . S
C366 C347 1.368 . S
C366 C360 1.368 . S
C366 C365 1.523 . S
C367 C351 1.429 . S
C367 C363 1.429 . S
C367 C368 1.523 . S
C368 C352 1.368 . S
C368 C364 1.368 . S
C368 C367 1.523 . S
H369 C344 0.950 . S
H370 C346 0.950 . S
H371 C347 0.949 . S
H372 C349 0.950 . S
H373 C351 0.950 . S
C374 C375 1.349 . S
C374 C376 1.327 . S
C374 H399 0.950 . S
C375 C374 1.349 . S
C375 C391 1.349 . S
C376 C374 1.327 . S
C376 C395 1.429 . S
C376 H400 0.950 . S
C377 C394 1.574 . S
C377 C396 1.368 1_565 S
C377 H401 0.949 . S
H378 C382 0.949 . S
C379 C380 1.349 . S
C379 C381 1.327 . S
C379 H402 0.950 . S
C380 C379 1.349 . S
C380 C392 1.349 . S
C381 C379 1.327 . S
C381 C397 1.429 . S
C381 H403 0.950 . S
C382 H378 0.949 . S
C382 C390 1.574 . S
C382 C398 1.368 1_545 S
H383 C391 0.950 . S
H384 C389 0.950 1_565 S
H385 C390 0.949 . S
H386 C392 0.950 . S
H387 C393 0.950 1_545 S
H388 C394 0.949 . S
C389 H384 0.950 1_545 S
C389 C391 1.327 . S
C389 C395 1.429 . S
C390 C382 1.574 . S
C390 H385 0.949 . S
C390 C396 1.368 . S
C391 C375 1.349 . S
C391 H383 0.950 . S
C391 C389 1.327 . S
C392 C380 1.349 . S
C392 H386 0.950 . S
C392 C393 1.327 . S
C393 H387 0.950 1_565 S
C393 C392 1.327 . S
C393 C397 1.429 . S
C394 C377 1.574 . S
C394 H388 0.949 . S
C394 C398 1.368 . S
C395 C376 1.429 . S
C395 C389 1.429 . S
C395 C396 1.523 . S
C396 C377 1.368 1_545 S
C396 C390 1.368 . S
C396 C395 1.523 . S
C397 C381 1.429 . S
C397 C393 1.429 . S
C397 C398 1.523 . S
C398 C382 1.368 1_565 S
C398 C394 1.368 . S
C398 C397 1.523 . S
H399 C374 0.950 . S
H400 C376 0.950 . S
H401 C377 0.949 . S
H402 C379 0.950 . S
H403 C381 0.950 . S
C404 C405 1.349 . S
C404 C406 1.327 . S
C404 H429 0.950 . S
C405 C404 1.349 . S
C405 C421 1.349 . S
C406 C404 1.327 . S
C406 C425 1.429 . S
C406 H430 0.950 . S
C407 C424 1.574 . S
C407 C426 1.368 . S
C407 H431 0.949 . S
H408 C412 0.949 . S
C409 C410 1.349 . S
C409 C411 1.327 . S
C409 H432 0.950 . S
C410 C409 1.349 . S
C410 C422 1.349 . S
C411 C409 1.327 . S
C411 C427 1.429 . S
C411 H433 0.950 . S
C412 H408 0.949 . S
C412 C420 1.574 . S
C412 C428 1.368 . S
H413 C421 0.950 . S
H414 C419 0.950 . S
H415 C420 0.949 . S
H416 C422 0.950 . S
H417 C423 0.950 . S
H418 C424 0.949 . S
C419 H414 0.950 . S
C419 C421 1.327 . S
C419 C425 1.429 . S
C420 C412 1.574 . S
C420 H415 0.949 . S
C420 C426 1.368 1_455 S
C421 C405 1.349 . S
C421 H413 0.950 . S
C421 C419 1.327 . S
C422 C410 1.349 . S
C422 H416 0.950 . S
C422 C423 1.327 . S
C423 H417 0.950 . S
C423 C422 1.327 . S
C423 C427 1.429 . S
C424 C407 1.574 . S
C424 H418 0.949 . S
C424 C428 1.368 1_655 S
C425 C406 1.429 . S
C425 C419 1.429 . S
C425 C426 1.523 . S
C426 C407 1.368 . S
C426 C420 1.368 1_655 S
C426 C425 1.523 . S
C427 C411 1.429 . S
C427 C423 1.429 . S
C427 C428 1.523 . S
C428 C412 1.368 . S
C428 C424 1.368 1_455 S
C428 C427 1.523 . S
H429 C404 0.950 . S
H430 C406 0.950 . S
H431 C407 0.949 . S
H432 C409 0.950 . S
H433 C411 0.950 . S
C434 C435 1.349 . S
C434 C436 1.327 . S
C434 H459 0.950 . S
C435 C434 1.349 . S
C435 C451 1.349 . S
C436 C434 1.327 . S
C436 C455 1.429 . S
C436 H460 0.950 . S
C437 C454 1.574 . S
C437 C456 1.368 . S
C437 H461 0.949 . S
H438 C442 0.949 . S
C439 C440 1.349 . S
C439 C441 1.327 . S
C439 H462 0.950 . S
C440 C439 1.349 . S
C440 C452 1.349 . S
C441 C439 1.327 . S
C441 C457 1.429 . S
C441 H463 0.950 . S
C442 H438 0.949 . S
C442 C450 1.574 . S
C442 C458 1.368 . S
H443 C451 0.950 . S
H444 C449 0.950 . S
H445 C450 0.949 . S
H446 C452 0.950 . S
H447 C453 0.950 . S
H448 C454 0.949 . S
C449 H444 0.950 . S
C449 C451 1.327 . S
C449 C455 1.429 . S
C450 C442 1.574 . S
C450 H445 0.949 . S
C450 C456 1.368 1_556 S
C451 C435 1.349 . S
C451 H443 0.950 . S
C451 C449 1.327 . S
C452 C440 1.349 . S
C452 H446 0.950 . S
C452 C453 1.327 . S
C453 H447 0.950 . S
C453 C452 1.327 . S
C453 C457 1.429 . S
C454 C437 1.574 . S
C454 H448 0.949 . S
C454 C458 1.368 1_554 S
C455 C436 1.429 . S
C455 C449 1.429 . S
C455 C456 1.523 . S
C456 C437 1.368 . S
C456 C450 1.368 1_554 S
C456 C455 1.523 . S
C457 C441 1.429 . S
C457 C453 1.429 . S
C457 C458 1.523 . S
C458 C442 1.368 . S
C458 C454 1.368 1_556 S
C458 C457 1.523 . S
H459 C434 0.950 . S
H460 C436 0.950 . S
H461 C437 0.949 . S
H462 C439 0.950 . S
H463 C441 0.950 . S
C464 C465 1.349 . S
C464 C466 1.327 . S
C464 H489 0.950 . S
C465 C464 1.349 . S
C465 C481 1.349 . S
C466 C464 1.327 . S
C466 C485 1.429 . S
C466 H490 0.950 . S
C467 C484 1.556 1_456 S
C467 C486 1.384 . S
C467 H491 0.948 . S
H468 C472 0.948 . S
C469 C470 1.349 . S
C469 C471 1.327 . S
C469 H492 0.950 . S
C470 C469 1.349 . S
C470 C482 1.349 . S
C471 C469 1.327 . S
C471 C487 1.429 . S
C471 H493 0.950 . S
C472 H468 0.948 . S
C472 C480 1.556 1_654 S
C472 C488 1.384 . S
H473 C481 0.950 . S
H474 C479 0.950 . S
H475 C480 0.949 . S
H476 C482 0.950 . S
H477 C483 0.950 . S
H478 C484 0.949 . S
C479 H474 0.950 . S
C479 C481 1.327 . S
C479 C485 1.429 . S
C480 C472 1.556 1_456 S
C480 H475 0.949 . S
C480 C486 1.368 . S
C481 C465 1.349 . S
C481 H473 0.950 . S
C481 C479 1.327 . S
C482 C470 1.349 . S
C482 H476 0.950 . S
C482 C483 1.327 . S
C483 H477 0.950 . S
C483 C482 1.327 . S
C483 C487 1.429 . S
C484 C467 1.556 1_654 S
C484 H478 0.949 . S
C484 C488 1.368 . S
C485 C466 1.429 . S
C485 C479 1.429 . S
C485 C486 1.523 . S
C486 C467 1.384 . S
C486 C480 1.368 . S
C486 C485 1.523 . S
C487 C471 1.429 . S
C487 C483 1.429 . S
C487 C488 1.523 . S
C488 C472 1.384 . S
C488 C484 1.368 . S
C488 C487 1.523 . S
H489 C464 0.950 . S
H490 C466 0.950 . S
H491 C467 0.948 . S
H492 C469 0.950 . S
H493 C471 0.950 . S
C494 C495 1.349 . S
C494 C496 1.327 . S
C494 H519 0.950 . S
C495 C494 1.349 . S
C495 C511 1.349 . S
C496 C494 1.327 . S
C496 C515 1.429 . S
C496 H520 0.950 . S
C497 C514 1.574 . S
C497 C516 1.368 . S
C497 H521 0.949 . S
H498 C502 0.949 . S
C499 C500 1.349 . S
C499 C501 1.327 . S
C499 H522 0.950 . S
C500 C499 1.349 . S
C500 C512 1.349 . S
C501 C499 1.327 . S
C501 C517 1.429 . S
C501 H523 0.950 . S
C502 H498 0.949 . S
C502 C510 1.574 . S
C502 C518 1.368 . S
H503 C511 0.950 . S
H504 C509 0.950 . S
H505 C510 0.949 . S
H506 C512 0.950 . S
H507 C513 0.950 . S
H508 C514 0.949 . S
C509 H504 0.950 . S
C509 C511 1.327 . S
C509 C515 1.429 . S
C510 C502 1.574 . S
C510 H505 0.949 . S
C510 C516 1.368 . S
C511 C495 1.349 . S
C511 H503 0.950 . S
C511 C509 1.327 . S
C512 C500 1.349 . S
C512 H506 0.950 . S
C512 C513 1.327 . S
C513 H507 0.950 . S
C513 C512 1.327 . S
C513 C517 1.429 . S
C514 C497 1.574 . S
C514 H508 0.949 . S
C514 C518 1.368 . S
C515 C496 1.429 . S
C515 C509 1.429 . S
C515 C516 1.523 . S
C516 C497 1.368 . S
C516 C510 1.368 . S
C516 C515 1.523 . S
C517 C501 1.429 . S
C517 C513 1.429 . S
C517 C518 1.523 . S
C518 C502 1.368 . S
C518 C514 1.368 . S
C518 C517 1.523 . S
H519 C494 0.950 . S
H520 C496 0.950 . S
H521 C497 0.949 . S
H522 C499 0.950 . S
H523 C501 0.950 . S
C524 C525 1.349 . S
C524 C526 1.327 . S
C524 H549 0.950 . S
C525 C524 1.349 . S
C525 C541 1.349 . S
C526 C524 1.327 . S
C526 C545 1.429 . S
C526 H550 0.950 . S
C527 C544 1.574 1_556 S
C527 C546 1.368 . S
C527 H551 0.949 . S
H528 C532 0.949 . S
C529 C530 1.349 . S
C529 C531 1.327 . S
C529 H552 0.950 . S
C530 C529 1.349 . S
C530 C542 1.349 . S
C531 C529 1.327 . S
C531 C547 1.429 . S
C531 H553 0.950 . S
C532 H528 0.949 . S
C532 C540 1.574 1_554 S
C532 C548 1.368 . S
H533 C541 0.950 . S
H534 C539 0.950 . S
H535 C540 0.949 . S
H536 C542 0.950 . S
H537 C543 0.950 . S
H538 C544 0.949 . S
C539 H534 0.950 . S
C539 C541 1.327 . S
C539 C545 1.429 . S
C540 C532 1.574 1_556 S
C540 H535 0.949 . S
C540 C546 1.368 . S
C541 C525 1.349 . S
C541 H533 0.950 . S
C541 C539 1.327 . S
C542 C530 1.349 . S
C542 H536 0.950 . S
C542 C543 1.327 . S
C543 H537 0.950 . S
C543 C542 1.327 . S
C543 C547 1.429 . S
C544 C527 1.574 1_554 S
C544 H538 0.949 . S
C544 C548 1.368 . S
C545 C526 1.429 . S
C545 C539 1.429 . S
C545 C546 1.523 . S
C546 C527 1.368 . S
C546 C540 1.368 . S
C546 C545 1.523 . S
C547 C531 1.429 . S
C547 C543 1.429 . S
C547 C548 1.523 . S
C548 C532 1.368 . S
C548 C544 1.368 . S
C548 C547 1.523 . S
H549 C524 0.950 . S
H550 C526 0.950 . S
H551 C527 0.949 . S
H552 C529 0.950 . S
H553 C531 0.950 . S
C554 C555 1.349 . S
C554 C556 1.327 . S
C554 H579 0.950 . S
C555 C554 1.349 . S
C555 C571 1.349 . S
C556 C554 1.327 . S
C556 C575 1.429 . S
C556 H580 0.950 . S
C557 C574 1.574 . S
C557 C576 1.368 . S
C557 H581 0.949 . S
H558 C562 0.949 . S
C559 C560 1.349 . S
C559 C561 1.327 . S
C559 H582 0.950 . S
C560 C559 1.349 . S
C560 C572 1.349 . S
C561 C559 1.327 . S
C561 C577 1.429 . S
C561 H583 0.950 . S
C562 H558 0.949 . S
C562 C570 1.574 . S
C562 C578 1.368 . S
H563 C571 0.950 . S
H564 C569 0.950 . S
H565 C570 0.949 . S
H566 C572 0.950 . S
H567 C573 0.950 . S
H568 C574 0.949 . S
C569 H564 0.950 . S
C569 C571 1.327 . S
C569 C575 1.429 . S
C570 C562 1.574 . S
C570 H565 0.949 . S
C570 C576 1.368 . S
C571 C555 1.349 . S
C571 H563 0.950 . S
C571 C569 1.327 . S
C572 C560 1.349 . S
C572 H566 0.950 . S
C572 C573 1.327 . S
C573 H567 0.950 . S
C573 C572 1.327 . S
C573 C577 1.429 . S
C574 C557 1.574 . S
C574 H568 0.949 . S
C574 C578 1.368 . S
C575 C556 1.429 . S
C575 C569 1.429 . S
C575 C576 1.523 . S
C576 C557 1.368 . S
C576 C570 1.368 . S
C576 C575 1.523 . S
C577 C561 1.429 . S
C577 C573 1.429 . S
C577 C578 1.523 . S
C578 C562 1.368 . S
C578 C574 1.368 . S
C578 C577 1.523 . S
H579 C554 0.950 . S
H580 C556 0.950 . S
H581 C557 0.949 . S
H582 C559 0.950 . S
H583 C561 0.950 . S
C584 C585 1.349 . S
C584 C586 1.327 . S
C584 H609 0.950 . S
C585 C584 1.349 . S
C585 C601 1.349 . S
C586 C584 1.327 . S
C586 C605 1.429 . S
C586 H610 0.950 . S
C587 C604 1.574 . S
C587 C606 1.368 . S
C587 H611 0.949 . S
H588 C592 0.949 . S
C589 C590 1.349 . S
C589 C591 1.327 . S
C589 H612 0.950 . S
C590 C589 1.349 . S
C590 C602 1.349 . S
C591 C589 1.327 . S
C591 C607 1.429 . S
C591 H613 0.950 . S
C592 H588 0.949 . S
C592 C600 1.574 . S
C592 C608 1.368 . S
H593 C601 0.950 . S
H594 C599 0.950 . S
H595 C600 0.949 . S
H596 C602 0.950 . S
H597 C603 0.950 . S
H598 C604 0.949 . S
C599 H594 0.950 . S
C599 C601 1.327 . S
C599 C605 1.429 . S
C600 C592 1.574 . S
C600 H595 0.949 . S
C600 C606 1.368 1_564 S
C601 C585 1.349 . S
C601 H593 0.950 . S
C601 C599 1.327 . S
C602 C590 1.349 . S
C602 H596 0.950 . S
C602 C603 1.327 . S
C603 H597 0.950 . S
C603 C602 1.327 . S
C603 C607 1.429 . S
C604 C587 1.574 . S
C604 H598 0.949 . S
C604 C608 1.368 1_546 S
C605 C586 1.429 . S
C605 C599 1.429 . S
C605 C606 1.523 . S
C606 C587 1.368 . S
C606 C600 1.368 1_546 S
C606 C605 1.523 . S
C607 C591 1.429 . S
C607 C603 1.429 . S
C607 C608 1.523 . S
C608 C592 1.368 . S
C608 C604 1.368 1_564 S
C608 C607 1.523 . S
H609 C584 0.950 . S
H610 C586 0.950 . S
H611 C587 0.949 . S
H612 C589 0.950 . S
H613 C591 0.950 . S
C614 C615 1.349 . S
C614 C616 1.327 . S
C614 H639 0.950 . S
C615 C614 1.349 . S
C615 C631 1.349 . S
C616 C614 1.327 . S
C616 C635 1.429 . S
C616 H640 0.950 . S
C617 C634 1.574 . S
C617 C636 1.368 . S
C617 H641 0.949 . S
H618 C622 0.949 . S
C619 C620 1.349 . S
C619 C621 1.327 . S
C619 H642 0.950 . S
C620 C619 1.349 . S
C620 C632 1.349 . S
C621 C619 1.327 . S
C621 C637 1.429 . S
C621 H643 0.950 . S
C622 H618 0.949 . S
C622 C630 1.574 . S
C622 C638 1.368 . S
H623 C631 0.950 . S
H624 C629 0.950 . S
H625 C630 0.949 . S
H626 C632 0.950 . S
H627 C633 0.950 . S
H628 C634 0.949 . S
C629 H624 0.950 . S
C629 C631 1.327 . S
C629 C635 1.429 . S
C630 C622 1.574 . S
C630 H625 0.949 . S
C630 C636 1.368 . S
C631 C615 1.349 . S
C631 H623 0.950 . S
C631 C629 1.327 . S
C632 C620 1.349 . S
C632 H626 0.950 . S
C632 C633 1.327 . S
C633 H627 0.950 . S
C633 C632 1.327 . S
C633 C637 1.429 . S
C634 C617 1.574 . S
C634 H628 0.949 . S
C634 C638 1.368 . S
C635 C616 1.429 . S
C635 C629 1.429 . S
C635 C636 1.523 . S
C636 C617 1.368 . S
C636 C630 1.368 . S
C636 C635 1.523 . S
C637 C621 1.429 . S
C637 C633 1.429 . S
C637 C638 1.523 . S
C638 C622 1.368 . S
C638 C634 1.368 . S
C638 C637 1.523 . S
H639 C614 0.950 . S
H640 C616 0.950 . S
H641 C617 0.949 . S
H642 C619 0.950 . S
H643 C621 0.950 . S
C644 C645 1.349 . S
C644 C646 1.327 . S
C644 H669 0.950 . S
C645 C644 1.349 . S
C645 C661 1.349 . S
C646 C644 1.327 . S
C646 C665 1.429 . S
C646 H670 0.950 . S
C647 C664 1.574 . S
C647 C666 1.368 . S
C647 H671 0.949 . S
H648 C652 0.949 . S
C649 C650 1.349 . S
C649 C651 1.327 . S
C649 H672 0.950 . S
C650 C649 1.349 . S
C650 C662 1.349 . S
C651 C649 1.327 . S
C651 C667 1.429 . S
C651 H673 0.950 . S
C652 H648 0.949 . S
C652 C660 1.574 . S
C652 C668 1.368 . S
H653 C661 0.950 . S
H654 C659 0.950 . S
H655 C660 0.949 . S
H656 C662 0.950 . S
H657 C663 0.950 . S
H658 C664 0.949 . S
C659 H654 0.950 . S
C659 C661 1.327 . S
C659 C665 1.429 . S
C660 C652 1.574 . S
C660 H655 0.949 . S
C660 C666 1.368 . S
C661 C645 1.349 . S
C661 H653 0.950 . S
C661 C659 1.327 . S
C662 C650 1.349 . S
C662 H656 0.950 . S
C662 C663 1.327 . S
C663 H657 0.950 . S
C663 C662 1.327 . S
C663 C667 1.429 . S
C664 C647 1.574 . S
C664 H658 0.949 . S
C664 C668 1.368 . S
C665 C646 1.429 . S
C665 C659 1.429 . S
C665 C666 1.523 . S
C666 C647 1.368 . S
C666 C660 1.368 . S
C666 C665 1.523 . S
C667 C651 1.429 . S
C667 C663 1.429 . S
C667 C668 1.523 . S
C668 C652 1.368 . S
C668 C664 1.368 . S
C668 C667 1.523 . S
H669 C644 0.950 . S
H670 C646 0.950 . S
H671 C647 0.949 . S
H672 C649 0.950 . S
H673 C651 0.950 . S
C674 C675 1.349 . S
C674 C676 1.327 . S
C674 H699 0.950 . S
C675 C674 1.349 . S
C675 C691 1.349 . S
C676 C674 1.327 . S
C676 C695 1.429 . S
C676 H700 0.950 . S
C677 C694 1.574 . S
C677 C696 1.368 . S
C677 H701 0.949 . S
H678 C682 0.949 . S
C679 C680 1.349 . S
C679 C681 1.327 . S
C679 H702 0.950 . S
C680 C679 1.349 . S
C680 C692 1.349 . S
C681 C679 1.327 . S
C681 C697 1.429 . S
C681 H703 0.950 . S
C682 H678 0.949 . S
C682 C690 1.574 . S
C682 C698 1.368 . S
H683 C691 0.950 . S
H684 C689 0.950 . S
H685 C690 0.949 . S
H686 C692 0.950 . S
H687 C693 0.950 . S
H688 C694 0.949 . S
C689 H684 0.950 . S
C689 C691 1.327 . S
C689 C695 1.429 . S
C690 C682 1.574 . S
C690 H685 0.949 . S
C690 C696 1.368 . S
C691 C675 1.349 . S
C691 H683 0.950 . S
C691 C689 1.327 . S
C692 C680 1.349 . S
C692 H686 0.950 . S
C692 C693 1.327 . S
C693 H687 0.950 . S
C693 C692 1.327 . S
C693 C697 1.429 . S
C694 C677 1.574 . S
C694 H688 0.949 . S
C694 C698 1.368 . S
C695 C676 1.429 . S
C695 C689 1.429 . S
C695 C696 1.523 . S
C696 C677 1.368 . S
C696 C690 1.368 . S
C696 C695 1.523 . S
C697 C681 1.429 . S
C697 C693 1.429 . S
C697 C698 1.523 . S
C698 C682 1.368 . S
C698 C694 1.368 . S
C698 C697 1.523 . S
H699 C674 0.950 . S
H700 C676 0.950 . S
H701 C677 0.949 . S
H702 C679 0.950 . S
H703 C681 0.950 . S
C704 C705 1.349 . S
C704 C706 1.327 . S
C704 H729 0.950 . S
C705 C704 1.349 . S
C705 C721 1.349 . S
C706 C704 1.327 . S
C706 C725 1.429 . S
C706 H730 0.950 . S
C707 C724 1.574 . S
C707 C726 1.368 . S
C707 H731 0.949 . S
H708 C712 0.949 . S
C709 C710 1.349 1_565 S
C709 C711 1.327 . S
C709 H732 0.950 . S
C710 C709 1.349 1_545 S
C710 C722 1.349 . S
C711 C709 1.327 . S
C711 C727 1.429 . S
C711 H733 0.950 . S
C712 H708 0.949 . S
C712 C720 1.574 . S
C712 C728 1.368 . S
H713 C721 0.950 . S
H714 C719 0.950 . S
H715 C720 0.949 . S
H716 C722 0.950 . S
H717 C723 0.950 1_545 S
H718 C724 0.949 . S
C719 H714 0.950 . S
C719 C721 1.327 . S
C719 C725 1.429 . S
C720 C712 1.574 . S
C720 H715 0.949 . S
C720 C726 1.368 . S
C721 C705 1.349 . S
C721 H713 0.950 . S
C721 C719 1.327 . S
C722 C710 1.349 . S
C722 H716 0.950 . S
C722 C723 1.327 1_545 S
C723 H717 0.950 1_565 S
C723 C722 1.327 1_565 S
C723 C727 1.429 . S
C724 C707 1.574 . S
C724 H718 0.949 . S
C724 C728 1.368 . S
C725 C706 1.429 . S
C725 C719 1.429 . S
C725 C726 1.523 . S
C726 C707 1.368 . S
C726 C720 1.368 . S
C726 C725 1.523 . S
C727 C711 1.429 . S
C727 C723 1.429 . S
C727 C728 1.523 . S
C728 C712 1.368 . S
C728 C724 1.368 . S
C728 C727 1.523 . S
H729 C704 0.950 . S
H730 C706 0.950 . S
H731 C707 0.949 . S
H732 C709 0.950 . S
H733 C711 0.950 . S
C734 C735 1.349 . S
C734 C736 1.327 . S
C734 H759 0.950 . S
C735 C734 1.349 . S
C735 C751 1.349 . S
C736 C734 1.327 . S
C736 C755 1.429 . S
C736 H760 0.950 . S
C737 C754 1.574 . S
C737 C756 1.368 . S
C737 H761 0.949 . S
H738 C742 0.949 . S
C739 C740 1.349 . S
C739 C741 1.327 . S
C739 H762 0.950 . S
C740 C739 1.349 . S
C740 C752 1.349 . S
C741 C739 1.327 . S
C741 C757 1.429 . S
C741 H763 0.950 . S
C742 H738 0.949 . S
C742 C750 1.574 . S
C742 C758 1.368 . S
H743 C751 0.950 . S
H744 C749 0.950 . S
H745 C750 0.949 . S
H746 C752 0.950 . S
H747 C753 0.950 . S
H748 C754 0.949 . S
C749 H744 0.950 . S
C749 C751 1.327 . S
C749 C755 1.429 . S
C750 C742 1.574 . S
C750 H745 0.949 . S
C750 C756 1.368 . S
C751 C735 1.349 . S
C751 H743 0.950 . S
C751 C749 1.327 . S
C752 C740 1.349 . S
C752 H746 0.950 . S
C752 C753 1.327 . S
C753 H747 0.950 . S
C753 C752 1.327 . S
C753 C757 1.429 . S
C754 C737 1.574 . S
C754 H748 0.949 . S
C754 C758 1.368 . S
C755 C736 1.429 . S
C755 C749 1.429 . S
C755 C756 1.523 . S
C756 C737 1.368 . S
C756 C750 1.368 . S
C756 C755 1.523 . S
C757 C741 1.429 . S
C757 C753 1.429 . S
C757 C758 1.523 . S
C758 C742 1.368 . S
C758 C754 1.368 . S
C758 C757 1.523 . S
H759 C734 0.950 . S
H760 C736 0.950 . S
H761 C737 0.949 . S
H762 C739 0.950 . S
H763 C741 0.950 . S
C764 C765 1.349 . S
C764 C766 1.327 . S
C764 H789 0.950 . S
C765 C764 1.349 . S
C765 C781 1.349 . S
C766 C764 1.327 . S
C766 C785 1.429 . S
C766 H790 0.950 . S
C767 C784 1.574 . S
C767 C786 1.368 . S
C767 H791 0.949 . S
H768 C772 0.949 . S
C769 C770 1.349 . S
C769 C771 1.327 . S
C769 H792 0.950 . S
C770 C769 1.349 . S
C770 C782 1.349 . S
C771 C769 1.327 . S
C771 C787 1.429 . S
C771 H793 0.950 . S
C772 H768 0.949 . S
C772 C780 1.574 . S
C772 C788 1.368 . S
H773 C781 0.950 . S
H774 C779 0.950 . S
H775 C780 0.949 . S
H776 C782 0.950 . S
H777 C783 0.950 . S
H778 C784 0.949 . S
C779 H774 0.950 . S
C779 C781 1.327 . S
C779 C785 1.429 . S
C780 C772 1.574 . S
C780 H775 0.949 . S
C780 C786 1.368 . S
C781 C765 1.349 . S
C781 H773 0.950 . S
C781 C779 1.327 . S
C782 C770 1.349 . S
C782 H776 0.950 . S
C782 C783 1.327 . S
C783 H777 0.950 . S
C783 C782 1.327 . S
C783 C787 1.429 . S
C784 C767 1.574 . S
C784 H778 0.949 . S
C784 C788 1.368 . S
C785 C766 1.429 . S
C785 C779 1.429 . S
C785 C786 1.523 . S
C786 C767 1.368 . S
C786 C780 1.368 . S
C786 C785 1.523 . S
C787 C771 1.429 . S
C787 C783 1.429 . S
C787 C788 1.523 . S
C788 C772 1.368 . S
C788 C784 1.368 . S
C788 C787 1.523 . S
H789 C764 0.950 . S
H790 C766 0.950 . S
H791 C767 0.949 . S
H792 C769 0.950 . S
H793 C771 0.950 . S
C794 C795 1.349 . S
C794 C796 1.327 . S
C794 H819 0.950 . S
C795 C794 1.349 . S
C795 C811 1.349 . S
C796 C794 1.327 . S
C796 C815 1.429 . S
C796 H820 0.950 . S
C797 C814 1.574 . S
C797 C816 1.368 . S
C797 H821 0.949 . S
H798 C802 0.949 . S
C799 C800 1.349 1_565 S
C799 C801 1.327 . S
C799 H822 0.952 . S
C800 C799 1.349 1_545 S
C800 C812 1.349 . S
C801 C799 1.327 . S
C801 C817 1.429 . S
C801 H823 0.950 . S
C802 H798 0.949 . S
C802 C810 1.574 . S
C802 C818 1.368 . S
H803 C811 0.950 . S
H804 C809 0.950 . S
H805 C810 0.949 . S
H806 C812 0.950 . S
H807 C813 0.950 . S
H808 C814 0.949 . S
C809 H804 0.950 . S
C809 C811 1.327 . S
C809 C815 1.429 . S
C810 C802 1.574 . S
C810 H805 0.949 . S
C810 C816 1.368 . S
C811 C795 1.349 . S
C811 H803 0.950 . S
C811 C809 1.327 . S
C812 C800 1.349 . S
C812 H806 0.950 . S
C812 C813 1.327 1_545 S
C813 H807 0.950 . S
C813 C812 1.327 1_565 S
C813 C817 1.429 . S
C814 C797 1.574 . S
C814 H808 0.949 . S
C814 C818 1.368 . S
C815 C796 1.429 . S
C815 C809 1.429 . S
C815 C816 1.523 . S
C816 C797 1.368 . S
C816 C810 1.368 . S
C816 C815 1.523 . S
C817 C801 1.429 . S
C817 C813 1.429 . S
C817 C818 1.523 . S
C818 C802 1.368 . S
C818 C814 1.368 . S
C818 C817 1.523 . S
H819 C794 0.950 . S
H820 C796 0.950 . S
H821 C797 0.949 . S
H822 C799 0.952 . S
H823 C801 0.950 . S
C824 C825 1.349 . S
C824 C826 1.327 . S
C824 H849 0.950 . S
C825 C824 1.349 . S
C825 C841 1.349 . S
C826 C824 1.327 . S
C826 C845 1.429 . S
C826 H850 0.950 . S
C827 C844 1.574 . S
C827 C846 1.368 . S
C827 H851 0.949 . S
H828 C832 0.949 . S
C829 C830 1.349 . S
C829 C831 1.327 1_565 S
C829 H852 0.950 . S
C830 C829 1.349 . S
C830 C842 1.349 1_565 S
C831 C829 1.327 1_545 S
C831 C847 1.429 . S
C831 H853 0.950 . S
C832 H828 0.949 . S
C832 C840 1.574 . S
C832 C848 1.368 . S
H833 C841 0.950 . S
H834 C839 0.950 . S
H835 C840 0.949 . S
H836 C842 0.950 . S
H837 C843 0.950 . S
H838 C844 0.949 . S
C839 H834 0.950 . S
C839 C841 1.327 . S
C839 C845 1.429 . S
C840 C832 1.574 . S
C840 H835 0.949 . S
C840 C846 1.368 . S
C841 C825 1.349 . S
C841 H833 0.950 . S
C841 C839 1.327 . S
C842 C830 1.349 1_545 S
C842 H836 0.950 . S
C842 C843 1.327 . S
C843 H837 0.950 . S
C843 C842 1.327 . S
C843 C847 1.429 . S
C844 C827 1.574 . S
C844 H838 0.949 . S
C844 C848 1.368 . S
C845 C826 1.429 . S
C845 C839 1.429 . S
C845 C846 1.523 . S
C846 C827 1.368 . S
C846 C840 1.368 . S
C846 C845 1.523 . S
C847 C831 1.429 . S
C847 C843 1.429 . S
C847 C848 1.523 . S
C848 C832 1.368 . S
C848 C844 1.368 . S
C848 C847 1.523 . S
H849 C824 0.950 . S
H850 C826 0.950 . S
H851 C827 0.949 . S
H852 C829 0.950 . S
H853 C831 0.950 . S
C854 C855 1.349 . S
C854 C856 1.327 . S
C854 H879 0.950 . S
C855 C854 1.349 . S
C855 C871 1.349 . S
C856 C854 1.327 . S
C856 C875 1.429 . S
C856 H880 0.950 . S
C857 C874 1.574 . S
C857 C876 1.368 . S
C857 H881 0.949 . S
H858 C862 0.949 . S
C859 C860 1.349 . S
C859 C861 1.327 . S
C859 H882 0.950 . S
C860 C859 1.349 . S
C860 C872 1.349 . S
C861 C859 1.327 . S
C861 C877 1.429 . S
C861 H883 0.950 . S
C862 H858 0.949 . S
C862 C870 1.574 . S
C862 C878 1.368 . S
H863 C871 0.950 . S
H864 C869 0.950 . S
H865 C870 0.949 . S
H866 C872 0.950 . S
H867 C873 0.950 . S
H868 C874 0.949 . S
C869 H864 0.950 . S
C869 C871 1.327 . S
C869 C875 1.429 . S
C870 C862 1.574 . S
C870 H865 0.949 . S
C870 C876 1.368 . S
C871 C855 1.349 . S
C871 H863 0.950 . S
C871 C869 1.327 . S
C872 C860 1.349 . S
C872 H866 0.950 . S
C872 C873 1.327 . S
C873 H867 0.950 . S
C873 C872 1.327 . S
C873 C877 1.429 . S
C874 C857 1.574 . S
C874 H868 0.949 . S
C874 C878 1.368 . S
C875 C856 1.429 . S
C875 C869 1.429 . S
C875 C876 1.523 . S
C876 C857 1.368 . S
C876 C870 1.368 . S
C876 C875 1.523 . S
C877 C861 1.429 . S
C877 C873 1.429 . S
C877 C878 1.523 . S
C878 C862 1.368 . S
C878 C874 1.368 . S
C878 C877 1.523 . S
H879 C854 0.950 . S
H880 C856 0.950 . S
H881 C857 0.949 . S
H882 C859 0.950 . S
H883 C861 0.950 . S
C884 C885 1.349 . S
C884 C886 1.327 . S
C884 H909 0.950 . S
C885 C884 1.349 . S
C885 C901 1.349 . S
C886 C884 1.327 . S
C886 C905 1.429 . S
C886 H910 0.950 . S
C887 C904 1.574 . S
C887 C906 1.368 . S
C887 H911 0.949 . S
H888 C892 0.949 . S
C889 C890 1.349 . S
C889 C891 1.327 . S
C889 H912 0.950 . S
C890 C889 1.349 . S
C890 C902 1.349 . S
C891 C889 1.327 . S
C891 C907 1.429 . S
C891 H913 0.950 . S
C892 H888 0.949 . S
C892 C900 1.574 . S
C892 C908 1.368 . S
H893 C901 0.950 . S
H894 C899 0.950 . S
H895 C900 0.949 . S
H896 C902 0.950 . S
H897 C903 0.950 . S
H898 C904 0.949 . S
C899 H894 0.950 . S
C899 C901 1.327 . S
C899 C905 1.429 . S
C900 C892 1.574 . S
C900 H895 0.949 . S
C900 C906 1.368 . S
C901 C885 1.349 . S
C901 H893 0.950 . S
C901 C899 1.327 . S
C902 C890 1.349 . S
C902 H896 0.950 . S
C902 C903 1.327 . S
C903 H897 0.950 . S
C903 C902 1.327 . S
C903 C907 1.429 . S
C904 C887 1.574 . S
C904 H898 0.949 . S
C904 C908 1.368 . S
C905 C886 1.429 . S
C905 C899 1.429 . S
C905 C906 1.523 . S
C906 C887 1.368 . S
C906 C900 1.368 . S
C906 C905 1.523 . S
C907 C891 1.429 . S
C907 C903 1.429 . S
C907 C908 1.523 . S
C908 C892 1.368 . S
C908 C904 1.368 . S
C908 C907 1.523 . S
H909 C884 0.950 . S
H910 C886 0.950 . S
H911 C887 0.949 . S
H912 C889 0.950 . S
H913 C891 0.950 . S
C914 C915 1.349 1_545 S
C914 C916 1.327 . S
C914 H939 0.950 . S
C915 C914 1.349 1_565 S
C915 C931 1.349 . S
C916 C914 1.327 . S
C916 C935 1.429 . S
C916 H940 0.950 . S
C917 C934 1.574 . S
C917 C936 1.368 . S
C917 H941 0.949 . S
H918 C922 0.949 . S
C919 C920 1.349 . S
C919 C921 1.327 . S
C919 H942 0.950 . S
C920 C919 1.349 . S
C920 C932 1.349 . S
C921 C919 1.327 . S
C921 C937 1.429 . S
C921 H943 0.950 . S
C922 H918 0.949 . S
C922 C930 1.574 . S
C922 C938 1.368 . S
H923 C931 0.950 . S
H924 C929 0.945 1_565 S
H925 C930 0.949 . S
H926 C932 0.950 . S
H927 C933 0.950 . S
H928 C934 0.949 . S
C929 H924 0.945 1_545 S
C929 C931 1.312 1_545 S
C929 C935 1.449 . S
C930 C922 1.574 . S
C930 H925 0.949 . S
C930 C936 1.368 . S
C931 C915 1.349 . S
C931 H923 0.950 . S
C931 C929 1.312 1_565 S
C932 C920 1.349 . S
C932 H926 0.950 . S
C932 C933 1.327 . S
C933 H927 0.950 . S
C933 C932 1.327 . S
C933 C937 1.429 . S
C934 C917 1.574 . S
C934 H928 0.949 . S
C934 C938 1.368 . S
C935 C916 1.429 . S
C935 C929 1.449 . S
C935 C936 1.523 . S
C936 C917 1.368 . S
C936 C930 1.368 . S
C936 C935 1.523 . S
C937 C921 1.429 . S
C937 C933 1.429 . S
C937 C938 1.523 . S
C938 C922 1.368 . S
C938 C934 1.368 . S
C938 C937 1.523 . S
H939 C914 0.950 . S
H940 C916 0.950 . S
H941 C917 0.949 . S
H942 C919 0.950 . S
H943 C921 0.950 . S
C944 C945 1.349 . S
C944 C946 1.327 . S
C944 H969 0.950 . S
C945 C944 1.349 . S
C945 C961 1.349 . S
C946 C944 1.327 . S
C946 C965 1.429 . S
C946 H970 0.950 . S
C947 C964 1.574 . S
C947 C966 1.368 . S
C947 H971 0.949 . S
H948 C952 0.949 . S
C949 C950 1.349 1_565 S
C949 C951 1.327 . S
C949 H972 0.950 . S
C950 C949 1.349 1_545 S
C950 C962 1.349 . S
C951 C949 1.327 . S
C951 C967 1.429 . S
C951 H973 0.950 . S
C952 H948 0.949 . S
C952 C960 1.574 . S
C952 C968 1.368 . S
H953 C961 0.950 . S
H954 C959 0.950 . S
H955 C960 0.949 . S
H956 C962 0.950 . S
H957 C963 0.950 . S
H958 C964 0.949 . S
C959 H954 0.950 . S
C959 C961 1.327 . S
C959 C965 1.429 . S
C960 C952 1.574 . S
C960 H955 0.949 . S
C960 C966 1.368 . S
C961 C945 1.349 . S
C961 H953 0.950 . S
C961 C959 1.327 . S
C962 C950 1.349 . S
C962 H956 0.950 . S
C962 C963 1.327 1_545 S
C963 H957 0.950 . S
C963 C962 1.327 1_565 S
C963 C967 1.429 . S
C964 C947 1.574 . S
C964 H958 0.949 . S
C964 C968 1.368 . S
C965 C946 1.429 . S
C965 C959 1.429 . S
C965 C966 1.523 . S
C966 C947 1.368 . S
C966 C960 1.368 . S
C966 C965 1.523 . S
C967 C951 1.429 . S
C967 C963 1.429 . S
C967 C968 1.523 . S
C968 C952 1.368 . S
C968 C964 1.368 . S
C968 C967 1.523 . S
H969 C944 0.950 . S
H970 C946 0.950 . S
H971 C947 0.949 . S
H972 C949 0.950 . S
H973 C951 0.950 . S
C974 C975 1.349 . S
C974 C976 1.327 . S
C974 H999 0.950 . S
C975 C974 1.349 . S
C975 C991 1.349 . S
C976 C974 1.327 . S
C976 C995 1.429 . S
C976 H1000 0.950 . S
C977 C994 1.574 . S
C977 C996 1.368 . S
C977 H1001 0.949 . S
H978 C982 0.949 . S
C979 C980 1.349 . S
C979 C981 1.327 . S
C979 H1002 0.950 . S
C980 C979 1.349 . S
C980 C992 1.349 . S
C981 C979 1.327 . S
C981 C997 1.429 . S
C981 H1003 0.950 . S
C982 H978 0.949 . S
C982 C990 1.574 . S
C982 C998 1.368 . S
H983 C991 0.950 . S
H984 C989 0.950 . S
H985 C990 0.949 . S
H986 C992 0.950 . S
H987 C993 0.950 . S
H988 C994 0.949 . S
C989 H984 0.950 . S
C989 C991 1.327 . S
C989 C995 1.429 . S
C990 C982 1.574 . S
C990 H985 0.949 . S
C990 C996 1.368 . S
C991 C975 1.349 . S
C991 H983 0.950 . S
C991 C989 1.327 . S
C992 C980 1.349 . S
C992 H986 0.950 . S
C992 C993 1.327 . S
C993 H987 0.950 . S
C993 C992 1.327 . S
C993 C997 1.429 . S
C994 C977 1.574 . S
C994 H988 0.949 . S
C994 C998 1.368 . S
C995 C976 1.429 . S
C995 C989 1.429 . S
C995 C996 1.523 . S
C996 C977 1.368 . S
C996 C990 1.368 . S
C996 C995 1.523 . S
C997 C981 1.429 . S
C997 C993 1.429 . S
C997 C998 1.523 . S
C998 C982 1.368 . S
C998 C994 1.368 . S
C998 C997 1.523 . S
H999 C974 0.950 . S
H1000 C976 0.950 . S
H1001 C977 0.949 . S
H1002 C979 0.950 . S
H1003 C981 0.950 . S
C1004 C1005 1.349 . S
C1004 C1006 1.327 . S
C1004 H1029 0.950 . S
C1005 C1004 1.349 . S
C1005 C1021 1.349 . S
C1006 C1004 1.327 . S
C1006 C1025 1.429 . S
C1006 H1030 0.950 . S
C1007 C1024 1.574 . S
C1007 C1026 1.368 . S
C1007 H1031 0.949 . S
H1008 C1012 0.949 . S
C1009 C1010 1.349 . S
C1009 C1011 1.327 . S
C1009 H1032 0.950 . S
C1010 C1009 1.349 . S
C1010 C1022 1.349 . S
C1011 C1009 1.327 . S
C1011 C1027 1.429 . S
C1011 H1033 0.950 . S
C1012 H1008 0.949 . S
C1012 C1020 1.574 . S
C1012 C1028 1.368 . S
H1013 C1021 0.950 . S
H1014 C1019 0.950 . S
H1015 C1020 0.949 . S
H1016 C1022 0.950 . S
H1017 C1023 0.950 . S
H1018 C1024 0.949 . S
C1019 H1014 0.950 . S
C1019 C1021 1.327 . S
C1019 C1025 1.429 . S
C1020 C1012 1.574 . S
C1020 H1015 0.949 . S
C1020 C1026 1.368 . S
C1021 C1005 1.349 . S
C1021 H1013 0.950 . S
C1021 C1019 1.327 . S
C1022 C1010 1.349 . S
C1022 H1016 0.950 . S
C1022 C1023 1.327 . S
C1023 H1017 0.950 . S
C1023 C1022 1.327 . S
C1023 C1027 1.429 . S
C1024 C1007 1.574 . S
C1024 H1018 0.949 . S
C1024 C1028 1.368 . S
C1025 C1006 1.429 . S
C1025 C1019 1.429 . S
C1025 C1026 1.523 . S
C1026 C1007 1.368 . S
C1026 C1020 1.368 . S
C1026 C1025 1.523 . S
C1027 C1011 1.429 . S
C1027 C1023 1.429 . S
C1027 C1028 1.523 . S
C1028 C1012 1.368 . S
C1028 C1024 1.368 . S
C1028 C1027 1.523 . S
H1029 C1004 0.950 . S
H1030 C1006 0.950 . S
H1031 C1007 0.949 . S
H1032 C1009 0.950 . S
H1033 C1011 0.950 . S
C1034 C1035 1.349 . S
C1034 C1036 1.327 . S
C1034 H1059 0.950 . S
C1035 C1034 1.349 . S
C1035 C1051 1.349 . S
C1036 C1034 1.327 . S
C1036 C1055 1.429 . S
C1036 H1060 0.950 . S
C1037 C1054 1.574 . S
C1037 C1056 1.368 . S
C1037 H1061 0.949 . S
H1038 C1042 0.949 . S
C1039 C1040 1.349 . S
C1039 C1041 1.327 1_545 S
C1039 H1062 0.950 . S
C1040 C1039 1.349 . S
C1040 C1052 1.349 1_545 S
C1041 C1039 1.327 1_565 S
C1041 C1057 1.429 . S
C1041 H1063 0.950 1_565 S
C1042 H1038 0.949 . S
C1042 C1050 1.574 . S
C1042 C1058 1.368 . S
H1043 C1051 0.950 . S
H1044 C1049 0.950 . S
H1045 C1050 0.949 . S
H1046 C1052 0.950 . S
H1047 C1053 0.950 . S
H1048 C1054 0.949 . S
C1049 H1044 0.950 . S
C1049 C1051 1.327 . S
C1049 C1055 1.429 . S
C1050 C1042 1.574 . S
C1050 H1045 0.949 . S
C1050 C1056 1.368 . S
C1051 C1035 1.349 . S
C1051 H1043 0.950 . S
C1051 C1049 1.327 . S
C1052 C1040 1.349 1_565 S
C1052 H1046 0.950 . S
C1052 C1053 1.327 . S
C1053 H1047 0.950 . S
C1053 C1052 1.327 . S
C1053 C1057 1.429 . S
C1054 C1037 1.574 . S
C1054 H1048 0.949 . S
C1054 C1058 1.368 . S
C1055 C1036 1.429 . S
C1055 C1049 1.429 . S
C1055 C1056 1.523 . S
C1056 C1037 1.368 . S
C1056 C1050 1.368 . S
C1056 C1055 1.523 . S
C1057 C1041 1.429 . S
C1057 C1053 1.429 . S
C1057 C1058 1.523 . S
C1058 C1042 1.368 . S
C1058 C1054 1.368 . S
C1058 C1057 1.523 . S
H1059 C1034 0.950 . S
H1060 C1036 0.950 . S
H1061 C1037 0.949 . S
H1062 C1039 0.950 . S
H1063 C1041 0.950 1_545 S
C1064 C1065 1.349 . S
C1064 C1066 1.327 . S
C1064 H1089 0.950 . S
C1065 C1064 1.349 . S
C1065 C1081 1.349 . S
C1066 C1064 1.327 . S
C1066 C1085 1.429 . S
C1066 H1090 0.950 . S
C1067 C1084 1.574 . S
C1067 C1086 1.368 . S
C1067 H1091 0.949 . S
H1068 C1072 0.949 . S
C1069 C1070 1.349 . S
C1069 C1071 1.327 1_565 S
C1069 H1092 0.950 . S
C1070 C1069 1.349 . S
C1070 C1082 1.349 1_565 S
C1071 C1069 1.327 1_545 S
C1071 C1087 1.429 . S
C1071 H1093 0.950 1_545 S
C1072 H1068 0.949 . S
C1072 C1080 1.574 . S
C1072 C1088 1.368 . S
H1073 C1081 0.950 . S
H1074 C1079 0.950 . S
H1075 C1080 0.949 . S
H1076 C1082 0.950 . S
H1077 C1083 0.950 . S
H1078 C1084 0.949 . S
C1079 H1074 0.950 . S
C1079 C1081 1.327 . S
C1079 C1085 1.429 . S
C1080 C1072 1.574 . S
C1080 H1075 0.949 . S
C1080 C1086 1.368 . S
C1081 C1065 1.349 . S
C1081 H1073 0.950 . S
C1081 C1079 1.327 . S
C1082 C1070 1.349 1_545 S
C1082 H1076 0.950 . S
C1082 C1083 1.327 . S
C1083 H1077 0.950 . S
C1083 C1082 1.327 . S
C1083 C1087 1.429 . S
C1084 C1067 1.574 . S
C1084 H1078 0.949 . S
C1084 C1088 1.368 . S
C1085 C1066 1.429 . S
C1085 C1079 1.429 . S
C1085 C1086 1.523 . S
C1086 C1067 1.368 . S
C1086 C1080 1.368 . S
C1086 C1085 1.523 . S
C1087 C1071 1.429 . S
C1087 C1083 1.429 . S
C1087 C1088 1.523 . S
C1088 C1072 1.368 . S
C1088 C1084 1.368 . S
C1088 C1087 1.523 . S
H1089 C1064 0.950 . S
H1090 C1066 0.950 . S
H1091 C1067 0.949 . S
H1092 C1069 0.950 . S
H1093 C1071 0.950 1_565 S
C1094 C1095 1.349 . S
C1094 C1096 1.327 . S
C1094 H1119 0.950 . S
C1095 C1094 1.349 . S
C1095 C1111 1.349 . S
C1096 C1094 1.327 . S
C1096 C1115 1.429 . S
C1096 H1120 0.950 . S
C1097 C1114 1.574 . S
C1097 C1116 1.368 . S
C1097 H1121 0.949 . S
H1098 C1102 0.949 . S
C1099 C1100 1.349 . S
C1099 C1101 1.327 . S
C1099 H1122 0.950 . S
C1100 C1099 1.349 . S
C1100 C1112 1.349 . S
C1101 C1099 1.327 . S
C1101 C1117 1.429 . S
C1101 H1123 0.950 . S
C1102 H1098 0.949 . S
C1102 C1110 1.574 . S
C1102 C1118 1.368 . S
H1103 C1111 0.950 . S
H1104 C1109 0.950 . S
H1105 C1110 0.949 . S
H1106 C1112 0.950 . S
H1107 C1113 0.950 . S
H1108 C1114 0.949 . S
C1109 H1104 0.950 . S
C1109 C1111 1.327 . S
C1109 C1115 1.429 . S
C1110 C1102 1.574 . S
C1110 H1105 0.949 . S
C1110 C1116 1.368 . S
C1111 C1095 1.349 . S
C1111 H1103 0.950 . S
C1111 C1109 1.327 . S
C1112 C1100 1.349 . S
C1112 H1106 0.950 . S
C1112 C1113 1.327 . S
C1113 H1107 0.950 . S
C1113 C1112 1.327 . S
C1113 C1117 1.429 . S
C1114 C1097 1.574 . S
C1114 H1108 0.949 . S
C1114 C1118 1.368 . S
C1115 C1096 1.429 . S
C1115 C1109 1.429 . S
C1115 C1116 1.523 . S
C1116 C1097 1.368 . S
C1116 C1110 1.368 . S
C1116 C1115 1.523 . S
C1117 C1101 1.429 . S
C1117 C1113 1.429 . S
C1117 C1118 1.523 . S
C1118 C1102 1.368 . S
C1118 C1114 1.368 . S
C1118 C1117 1.523 . S
H1119 C1094 0.950 . S
H1120 C1096 0.950 . S
H1121 C1097 0.949 . S
H1122 C1099 0.950 . S
H1123 C1101 0.950 . S
C1124 C1125 1.349 . S
C1124 C1126 1.327 . S
C1124 H1149 0.950 . S
C1125 C1124 1.349 . S
C1125 C1141 1.349 . S
C1126 C1124 1.327 . S
C1126 C1145 1.429 . S
C1126 H1150 0.950 . S
C1127 C1144 1.574 . S
C1127 C1146 1.368 . S
C1127 H1151 0.949 . S
H1128 C1132 0.949 . S
C1129 C1130 1.349 . S
C1129 C1131 1.327 . S
C1129 H1152 0.950 . S
C1130 C1129 1.349 . S
C1130 C1142 1.349 . S
C1131 C1129 1.327 . S
C1131 C1147 1.429 . S
C1131 H1153 0.950 . S
C1132 H1128 0.949 . S
C1132 C1140 1.574 . S
C1132 C1148 1.368 . S
H1133 C1141 0.950 . S
H1134 C1139 0.950 . S
H1135 C1140 0.949 . S
H1136 C1142 0.950 . S
H1137 C1143 0.950 . S
H1138 C1144 0.949 . S
C1139 H1134 0.950 . S
C1139 C1141 1.327 . S
C1139 C1145 1.429 . S
C1140 C1132 1.574 . S
C1140 H1135 0.949 . S
C1140 C1146 1.368 . S
C1141 C1125 1.349 . S
C1141 H1133 0.950 . S
C1141 C1139 1.327 . S
C1142 C1130 1.349 . S
C1142 H1136 0.950 . S
C1142 C1143 1.327 . S
C1143 H1137 0.950 . S
C1143 C1142 1.327 . S
C1143 C1147 1.429 . S
C1144 C1127 1.574 . S
C1144 H1138 0.949 . S
C1144 C1148 1.368 . S
C1145 C1126 1.429 . S
C1145 C1139 1.429 . S
C1145 C1146 1.523 . S
C1146 C1127 1.368 . S
C1146 C1140 1.368 . S
C1146 C1145 1.523 . S
C1147 C1131 1.429 . S
C1147 C1143 1.429 . S
C1147 C1148 1.523 . S
C1148 C1132 1.368 . S
C1148 C1144 1.368 . S
C1148 C1147 1.523 . S
H1149 C1124 0.950 . S
H1150 C1126 0.950 . S
H1151 C1127 0.949 . S
H1152 C1129 0.950 . S
H1153 C1131 0.950 . S
C1154 C1155 1.349 . S
C1154 C1156 1.327 . S
C1154 H1179 0.950 . S
C1155 C1154 1.349 . S
C1155 C1171 1.349 . S
C1156 C1154 1.327 . S
C1156 C1175 1.429 . S
C1156 H1180 0.950 . S
C1157 C1174 1.574 . S
C1157 C1176 1.368 . S
C1157 H1181 0.949 . S
H1158 C1162 0.949 . S
C1159 C1160 1.349 1_545 S
C1159 C1161 1.327 . S
C1159 H1182 0.950 . S
C1160 C1159 1.349 1_565 S
C1160 C1172 1.349 . S
C1161 C1159 1.327 . S
C1161 C1177 1.429 . S
C1161 H1183 0.950 . S
C1162 H1158 0.949 . S
C1162 C1170 1.574 . S
C1162 C1178 1.368 . S
H1163 C1171 0.950 . S
H1164 C1169 0.950 . S
H1165 C1170 0.949 . S
H1166 C1172 0.950 . S
H1167 C1173 0.950 . S
H1168 C1174 0.949 . S
C1169 H1164 0.950 . S
C1169 C1171 1.327 . S
C1169 C1175 1.429 . S
C1170 C1162 1.574 . S
C1170 H1165 0.949 . S
C1170 C1176 1.368 . S
C1171 C1155 1.349 . S
C1171 H1163 0.950 . S
C1171 C1169 1.327 . S
C1172 C1160 1.349 . S
C1172 H1166 0.950 . S
C1172 C1173 1.327 1_565 S
C1173 H1167 0.950 . S
C1173 C1172 1.327 1_545 S
C1173 C1177 1.429 . S
C1174 C1157 1.574 . S
C1174 H1168 0.949 . S
C1174 C1178 1.368 . S
C1175 C1156 1.429 . S
C1175 C1169 1.429 . S
C1175 C1176 1.523 . S
C1176 C1157 1.368 . S
C1176 C1170 1.368 . S
C1176 C1175 1.523 . S
C1177 C1161 1.429 . S
C1177 C1173 1.429 . S
C1177 C1178 1.523 . S
C1178 C1162 1.368 . S
C1178 C1174 1.368 . S
C1178 C1177 1.523 . S
H1179 C1154 0.950 . S
H1180 C1156 0.950 . S
H1181 C1157 0.949 . S
H1182 C1159 0.950 . S
H1183 C1161 0.950 . S
C225 C196 1.490 . S
C230 C0 1.490 . S
C255 C39 1.495 . S
C260 C11 1.495 . S
C285 C165 1.495 . S
C290 C25 1.495 . S
C315 C14 1.491 . S
C320 C98 1.491 . S
C345 C28 1.490 . S
C350 C168 1.490 . S
C375 C137 1.495 . S
C380 C53 1.495 . S
C405 C42 1.491 . S
C410 C70 1.491 . S
C435 C140 1.490 . S
C440 C56 1.490 . S
C465 C67 1.495 . S
C470 C95 1.495 . S
C495 C221 1.495 . S
C500 C81 1.495 . S
C525 C112 1.490 . S
C530 C84 1.490 . S
C555 C193 1.495 . S
C560 C109 1.495 . S
C585 C123 1.495 . S
C590 C151 1.495 . S
C615 C210 1.491 . S
C620 C126 1.491 . S
C645 C154 1.491 . S
C650 C182 1.491 . S
C675 C207 1.495 . S
C680 C179 1.495 . S
C705 C75 1.421 . S
C710 C9 1.417 . S
C735 C5 1.421 . S
C740 C79 1.417 . S
C765 C19 1.421 . S
C770 C65 1.417 . S
C795 C61 1.421 . S
C800 C23 1.417 . S
C825 C103 1.421 . S
C830 C37 1.417 . S
C855 C107 1.417 . S
C860 C33 1.421 . S
C885 C93 1.417 . S
C890 C47 1.421 . S
C915 C51 1.417 . S
C920 C89 1.421 . S
C945 C187 1.421 . S
C950 C121 1.417 . S
C975 C117 1.421 . S
C980 C191 1.417 . S
C1005 C131 1.421 . S
C1010 C177 1.417 . S
C1035 C173 1.421 . S
C1040 C135 1.417 . S
C1065 C215 1.421 . S
C1070 C149 1.417 . S
C1095 C219 1.417 . S
C1100 C145 1.421 . S
C1125 C159 1.421 . S
C1130 C205 1.417 . S
C1155 C201 1.421 . S
C1160 C163 1.417 . S
