# Generated by pormake.
# Topology yfq, (5)-cn, num edge types: 1
# Building blocks:
#     Node 0, Type 0, BuildingBlock: XOMCOT_clean_sbu_0, # of connection points: 5
#     Node 1, Type 0, BuildingBlock: XOMCOT_clean_sbu_0, # of connection points: 5
#     Node 2, Type 0, BuildingBlock: XOMCOT_clean_sbu_0, # of connection points: 5
#     Node 3, Type 0, BuildingBlock: XOMCOT_clean_sbu_0, # of connection points: 5
#     Node 4, Type 0, BuildingBlock: XOMCOT_clean_sbu_0, # of connection points: 5
#     Node 5, Type 0, BuildingBlock: XOMCOT_clean_sbu_0, # of connection points: 5
#     Node 6, Type 0, BuildingBlock: XOMCOT_clean_sbu_0, # of connection points: 5
#     Node 7, Type 0, BuildingBlock: XOMCOT_clean_sbu_0, # of connection points: 5
#     Node 8, Type 0, BuildingBlock: XOMCOT_clean_sbu_0, # of connection points: 5
#     Node 9, Type 0, BuildingBlock: XOMCOT_clean_sbu_0, # of connection points: 5
#     Node 10, Type 0, BuildingBlock: XOMCOT_clean_sbu_0, # of connection points: 5
#     Node 11, Type 0, BuildingBlock: XOMCOT_clean_sbu_0, # of connection points: 5
#     Node 12, Type 0, BuildingBlock: XOMCOT_clean_sbu_0, # of connection points: 5
#     Node 13, Type 0, BuildingBlock: XOMCOT_clean_sbu_0, # of connection points: 5
#     Node 14, Type 0, BuildingBlock: XOMCOT_clean_sbu_0, # of connection points: 5
#     Node 15, Type 0, BuildingBlock: XOMCOT_clean_sbu_0, # of connection points: 5
#     Node 16, Type 0, BuildingBlock: XOMCOT_clean_sbu_0, # of connection points: 5
#     Node 17, Type 0, BuildingBlock: XOMCOT_clean_sbu_0, # of connection points: 5
#     Node 18, Type 0, BuildingBlock: XOMCOT_clean_sbu_0, # of connection points: 5
#     Node 19, Type 0, BuildingBlock: XOMCOT_clean_sbu_0, # of connection points: 5
#     Node 20, Type 0, BuildingBlock: XOMCOT_clean_sbu_0, # of connection points: 5
#     Node 21, Type 0, BuildingBlock: XOMCOT_clean_sbu_0, # of connection points: 5
#     Node 22, Type 0, BuildingBlock: XOMCOT_clean_sbu_0, # of connection points: 5
#     Node 23, Type 0, BuildingBlock: XOMCOT_clean_sbu_0, # of connection points: 5
#     Node 24, Type 0, BuildingBlock: XOMCOT_clean_sbu_0, # of connection points: 5
#     Node 25, Type 0, BuildingBlock: XOMCOT_clean_sbu_0, # of connection points: 5
#     Node 26, Type 0, BuildingBlock: XOMCOT_clean_sbu_0, # of connection points: 5
#     Node 27, Type 0, BuildingBlock: XOMCOT_clean_sbu_0, # of connection points: 5
#     Node 28, Type 0, BuildingBlock: XOMCOT_clean_sbu_0, # of connection points: 5
#     Node 29, Type 0, BuildingBlock: XOMCOT_clean_sbu_0, # of connection points: 5
#     Node 30, Type 0, BuildingBlock: XOMCOT_clean_sbu_0, # of connection points: 5
#     Node 31, Type 0, BuildingBlock: XOMCOT_clean_sbu_0, # of connection points: 5
#     Edge 32, Type (0, 0), None
#     Edge 33, Type (0, 0), None
#     Edge 34, Type (0, 0), None
#     Edge 35, Type (0, 0), None
#     Edge 36, Type (0, 0), None
#     Edge 37, Type (0, 0), None
#     Edge 38, Type (0, 0), None
#     Edge 39, Type (0, 0), None
#     Edge 40, Type (0, 0), None
#     Edge 41, Type (0, 0), None
#     Edge 42, Type (0, 0), None
#     Edge 43, Type (0, 0), None
#     Edge 44, Type (0, 0), None
#     Edge 45, Type (0, 0), None
#     Edge 46, Type (0, 0), None
#     Edge 47, Type (0, 0), None
#     Edge 48, Type (0, 0), None
#     Edge 49, Type (0, 0), None
#     Edge 50, Type (0, 0), None
#     Edge 51, Type (0, 0), None
#     Edge 52, Type (0, 0), None
#     Edge 53, Type (0, 0), None
#     Edge 54, Type (0, 0), None
#     Edge 55, Type (0, 0), None
#     Edge 56, Type (0, 0), None
#     Edge 57, Type (0, 0), None
#     Edge 58, Type (0, 0), None
#     Edge 59, Type (0, 0), None
#     Edge 60, Type (0, 0), None
#     Edge 61, Type (0, 0), None
#     Edge 62, Type (0, 0), None
#     Edge 63, Type (0, 0), None
#     Edge 64, Type (0, 0), None
#     Edge 65, Type (0, 0), None
#     Edge 66, Type (0, 0), None
#     Edge 67, Type (0, 0), None
#     Edge 68, Type (0, 0), None
#     Edge 69, Type (0, 0), None
#     Edge 70, Type (0, 0), None
#     Edge 71, Type (0, 0), None
#     Edge 72, Type (0, 0), None
#     Edge 73, Type (0, 0), None
#     Edge 74, Type (0, 0), None
#     Edge 75, Type (0, 0), None
#     Edge 76, Type (0, 0), None
#     Edge 77, Type (0, 0), None
#     Edge 78, Type (0, 0), None
#     Edge 79, Type (0, 0), None
#     Edge 80, Type (0, 0), None
#     Edge 81, Type (0, 0), None
#     Edge 82, Type (0, 0), None
#     Edge 83, Type (0, 0), None
#     Edge 84, Type (0, 0), None
#     Edge 85, Type (0, 0), None
#     Edge 86, Type (0, 0), None
#     Edge 87, Type (0, 0), None
#     Edge 88, Type (0, 0), None
#     Edge 89, Type (0, 0), None
#     Edge 90, Type (0, 0), None
#     Edge 91, Type (0, 0), None
#     Edge 92, Type (0, 0), None
#     Edge 93, Type (0, 0), None
#     Edge 94, Type (0, 0), None
#     Edge 95, Type (0, 0), None
#     Edge 96, Type (0, 0), None
#     Edge 97, Type (0, 0), None
#     Edge 98, Type (0, 0), None
#     Edge 99, Type (0, 0), None
#     Edge 100, Type (0, 0), None
#     Edge 101, Type (0, 0), None
#     Edge 102, Type (0, 0), None
#     Edge 103, Type (0, 0), None
#     Edge 104, Type (0, 0), None
#     Edge 105, Type (0, 0), None
#     Edge 106, Type (0, 0), None
#     Edge 107, Type (0, 0), None
#     Edge 108, Type (0, 0), None
#     Edge 109, Type (0, 0), None
#     Edge 110, Type (0, 0), None
#     Edge 111, Type (0, 0), None
# Relax obj value: 0.332
# Max RMSD: 0.316
# Mean RMSD: 0.316
data_MOF--net-yfq--node1-XOMCOT_clean_sbu_0--edge1-none
_symmetry_space_group_name_H-M    P1
_symmetry_Int_Tables_number       1
_symmetry_cell_setting            triclinic
loop_
_symmetry_equiv_pos_as_xyz
'x, y, z'
_cell_length_a     31.756243
_cell_length_b     31.751995
_cell_length_c     29.927127
_cell_angle_alpha  89.999944
_cell_angle_beta   89.999993
_cell_angle_gamma 90.000008
loop_
_atom_site_label
_atom_site_type_symbol
_atom_site_fract_x
_atom_site_fract_y
_atom_site_fract_z
_atom_type_partial_charge
Co0 Co 0.07599 0.19225 0.29474 0.0
C1 C 0.0649 0.16435 0.20258 0.0
C2 C 0.09193 0.11583 0.2433 0.0
C3 C 0.09884 0.10585 0.19896 0.0
N4 N 0.07077 0.15267 0.24576 0.0
N5 N 0.0819 0.13657 0.17373 0.0
H6 H 0.05354 0.19492 0.1923 0.0
H7 H 0.10626 0.10005 0.27143 0.0
C8 C 0.04122 0.13808 0.35635 0.0
O9 O 0.07906 0.12331 0.34797 0.0
N10 N 0.08335 0.23494 0.34056 0.0
C11 C 0.10328 0.2713 0.33078 0.0
C12 C 0.10794 0.29462 0.36854 0.0
C13 C 0.0745 0.23746 0.38482 0.0
N14 N 0.08934 0.27399 0.40246 0.0
C15 C 0.14803 0.22393 0.24277 0.0
C16 C 0.20179 0.19845 0.31103 0.0
C17 C 0.21813 0.22353 0.27671 0.0
C18 C 0.19087 0.23478 0.24105 0.0
C19 C 0.15978 0.18713 0.31044 0.0
N20 N 0.13336 0.20163 0.27824 0.0
H21 H 0.12655 0.23491 0.21725 0.0
H22 H 0.14707 0.16955 0.33827 0.0
H23 H 0.11348 0.28076 0.29788 0.0
H24 H 0.0571 0.21406 0.40343 0.0
O25 O 0.04432 0.23676 0.25999 0.0
O26 O 0.01342 0.1928 0.30249 0.0
O27 O 0.02698 0.16672 0.3298 0.0
C28 C 0.0092 0.22367 0.27525 0.0
H29 H 0.11756 0.07992 0.18649 0.0
H30 H 0.12169 0.32581 0.37026 0.0
H31 H 0.22025 0.1892 0.33972 0.0
H32 H 0.20198 0.25267 0.21266 0.0
Co33 Co 0.03229 0.82376 0.54403 0.0
C34 C 0.06056 0.81359 0.45185 0.0
C35 C 0.10878 0.8405 0.49301 0.0
C36 C 0.11887 0.84791 0.4488 0.0
N37 N 0.07207 0.81908 0.49514 0.0
N38 N 0.08834 0.83105 0.42329 0.0
H39 H 0.0301 0.80214 0.44134 0.0
H40 H 0.12439 0.85474 0.52128 0.0
C41 C 0.08634 0.78938 0.60556 0.0
O42 O 0.10148 0.82692 0.59647 0.0
N43 N -0.01053 0.83075 0.58979 0.0
C44 C 0.95265 0.84955 0.57948 0.0
C45 C 0.93046 0.85718 0.6175 0.0
C46 C -0.0117 0.82545 0.63477 0.0
N47 N 0.95224 0.8415 0.65229 0.0
C48 C -0.00024 0.89569 0.49268 0.0
C49 C 0.02495 0.9494 0.56111 0.0
C50 C -0.00052 0.96562 0.52705 0.0
C51 C -0.01159 0.93841 0.49127 0.0
C52 C 0.03684 0.90754 0.56015 0.0
N53 N 0.02252 0.88112 0.52785 0.0
H54 H -0.01113 0.87421 0.46712 0.0
H55 H 0.05471 0.89488 0.58779 0.0
H56 H 0.94256 0.85771 0.54613 0.0
H57 H 0.01269 0.81046 0.6542 0.0
O58 O -0.01192 0.79202 0.50901 0.0
O59 O 0.03191 0.76098 0.55132 0.0
O60 O 0.05787 0.77483 0.57897 0.0
C61 C 0.00108 0.75676 0.52399 0.0
H62 H 0.14475 0.86688 0.43664 0.0
H63 H 0.89932 0.87106 0.61905 0.0
H64 H 0.03412 0.96781 0.58986 0.0
H65 H 0.97028 0.94941 0.46301 0.0
Co66 Co 0.39821 0.78208 0.79474 0.0
C67 C 0.40931 0.80998 0.70258 0.0
C68 C 0.38228 0.8585 0.7433 0.0
C69 C 0.37536 0.86848 0.69895 0.0
N70 N 0.40343 0.82166 0.74576 0.0
N71 N 0.39231 0.83776 0.67373 0.0
H72 H 0.42067 0.77942 0.6923 0.0
H73 H 0.36794 0.87428 0.77143 0.0
C74 C 0.43298 0.83625 0.85635 0.0
O75 O 0.39514 0.85103 0.84797 0.0
N76 N 0.39086 0.73939 0.84055 0.0
C77 C 0.37092 0.70303 0.83078 0.0
C78 C 0.36626 0.67971 0.86854 0.0
C79 C 0.39971 0.73687 0.88482 0.0
N80 N 0.38486 0.70035 0.90246 0.0
C81 C 0.32618 0.7504 0.74277 0.0
C82 C 0.27241 0.77589 0.81103 0.0
C83 C 0.25607 0.7508 0.77671 0.0
C84 C 0.28333 0.73956 0.74105 0.0
C85 C 0.31442 0.78721 0.81044 0.0
N86 N 0.34084 0.77271 0.77824 0.0
H87 H 0.34765 0.73942 0.71725 0.0
H88 H 0.32714 0.80478 0.83826 0.0
H89 H 0.36072 0.69357 0.79788 0.0
H90 H 0.4171 0.76027 0.90343 0.0
O91 O 0.42988 0.73757 0.75998 0.0
O92 O 0.46078 0.78153 0.80249 0.0
O93 O 0.44722 0.80761 0.8298 0.0
C94 C 0.465 0.75066 0.77525 0.0
H95 H 0.35664 0.89441 0.68649 0.0
H96 H 0.35251 0.64852 0.87026 0.0
H97 H 0.25395 0.78513 0.83972 0.0
H98 H 0.27223 0.72166 0.71266 0.0
Co99 Co 0.44192 0.15057 0.04403 0.0
C100 C 0.41364 0.16074 0.95185 0.0
C101 C 0.36542 0.13383 0.99301 0.0
C102 C 0.35533 0.12643 0.9488 0.0
N103 N 0.40213 0.15526 0.99514 0.0
N104 N 0.38586 0.14328 0.92329 0.0
H105 H 0.44411 0.17219 0.94134 0.0
H106 H 0.34981 0.11959 1.02128 0.0
C107 C 0.38787 0.18495 0.10556 0.0
O108 O 0.37273 0.14741 0.09647 0.0
N109 N 0.48474 0.14358 0.08979 0.0
C110 C 0.52155 0.12478 0.07948 0.0
C111 C 0.54374 0.11715 0.1175 0.0
C112 C 0.4859 0.14888 0.13477 0.0
N113 N 0.52196 0.13283 0.15229 0.0
C114 C 0.47444 0.07864 0.99268 0.0
C115 C 0.44925 0.02493 0.06111 0.0
C116 C 0.47472 0.00871 0.02705 0.0
C117 C 0.48579 0.03592 0.99127 0.0
C118 C 0.43736 0.06679 0.06015 0.0
N119 N 0.45169 0.09321 0.02785 0.0
H120 H 0.48533 0.10012 0.96712 0.0
H121 H 0.41949 0.07945 0.08779 0.0
H122 H 0.53164 0.11662 0.04613 0.0
H123 H 0.46152 0.16388 0.1542 0.0
O124 O 0.48612 0.18231 1.00901 0.0
O125 O 0.44229 0.21335 0.05132 0.0
O126 O 0.41633 0.1995 0.07897 0.0
C127 C 0.47312 0.21757 1.02399 0.0
H128 H 0.32945 0.10745 0.93664 0.0
H129 H 0.57488 0.10327 0.11905 0.0
H130 H 0.44008 0.00652 0.08986 0.0
H131 H 0.50392 0.02493 0.96301 0.0
Co132 Co 0.07599 0.78209 0.25602 0.0
C133 C 0.06496 0.80992 0.34819 0.0
C134 C 0.09188 0.8585 0.30749 0.0
C135 C 0.09885 0.86844 0.35184 0.0
N136 N 0.07077 0.82164 0.30502 0.0
N137 N 0.08201 0.83766 0.37704 0.0
H138 H 0.05362 0.77933 0.35846 0.0
H139 H 0.10615 0.87433 0.27936 0.0
C140 C 0.04121 0.83626 0.19441 0.0
O141 O 0.07905 0.85104 0.20279 0.0
N142 N 0.08336 0.73941 0.21019 0.0
C143 C 0.1033 0.70305 0.21996 0.0
C144 C 0.10796 0.67973 0.18219 0.0
C145 C 0.0745 0.73689 0.16592 0.0
N146 N 0.08935 0.70036 0.14828 0.0
C147 C 0.14803 0.75039 0.30798 0.0
C148 C 0.2018 0.77591 0.23973 0.0
C149 C 0.21813 0.75081 0.27404 0.0
C150 C 0.19088 0.73955 0.3097 0.0
C151 C 0.15978 0.78723 0.24033 0.0
N152 N 0.13336 0.77271 0.27252 0.0
H153 H 0.12656 0.7394 0.33349 0.0
H154 H 0.14707 0.80482 0.21251 0.0
H155 H 0.1135 0.69359 0.25286 0.0
H156 H 0.0571 0.76028 0.14732 0.0
O157 O 0.04433 0.73756 0.29075 0.0
O158 O 0.01343 0.78154 0.24827 0.0
O159 O 0.02698 0.80762 0.22097 0.0
C160 C 0.00921 0.75066 0.2755 0.0
H161 H 0.11755 0.8944 0.36431 0.0
H162 H 0.12171 0.64854 0.18047 0.0
H163 H 0.22026 0.78517 0.21105 0.0
H164 H 0.20198 0.72164 0.33807 0.0
Co165 Co 0.44191 0.82376 0.50673 0.0
C166 C 0.41371 0.81364 0.59893 0.0
C167 C 0.36542 0.84045 0.55778 0.0
C168 C 0.35536 0.84791 0.60199 0.0
N169 N 0.40215 0.81906 0.55564 0.0
N170 N 0.38596 0.83116 0.62749 0.0
H171 H 0.44419 0.80222 0.60942 0.0
H172 H 0.34976 0.85463 0.5295 0.0
C173 C 0.38786 0.78937 0.44521 0.0
O174 O 0.37271 0.82691 0.45429 0.0
N175 N 0.48472 0.83076 0.46096 0.0
C176 C 0.52154 0.84956 0.47127 0.0
C177 C 0.54373 0.85719 0.43325 0.0
C178 C 0.48589 0.82546 0.41597 0.0
N179 N 0.52195 0.84151 0.39846 0.0
C180 C 0.47445 0.89569 0.55808 0.0
C181 C 0.44923 0.9494 0.48966 0.0
C182 C 0.47472 0.96562 0.52371 0.0
C183 C 0.48581 0.93841 0.55948 0.0
C184 C 0.43735 0.90754 0.49062 0.0
N185 N 0.45168 0.88112 0.52291 0.0
H186 H 0.48536 0.87421 0.58362 0.0
H187 H 0.41946 0.89488 0.46299 0.0
H188 H 0.53163 0.85771 0.50462 0.0
H189 H 0.46151 0.81046 0.39655 0.0
O190 O 0.48613 0.79202 0.54173 0.0
O191 O 0.44228 0.76098 0.49943 0.0
O192 O 0.41632 0.77483 0.47179 0.0
C193 C 0.47312 0.75676 0.52676 0.0
H194 H 0.32947 0.86686 0.61416 0.0
H195 H 0.57486 0.87107 0.43169 0.0
H196 H 0.44005 0.96781 0.46091 0.0
H197 H 0.50394 0.9494 0.58773 0.0
Co198 Co 0.39821 0.19224 0.75602 0.0
C199 C 0.40924 0.16442 0.84819 0.0
C200 C 0.38232 0.11583 0.80749 0.0
C201 C 0.37535 0.10589 0.85184 0.0
N202 N 0.40344 0.15269 0.80502 0.0
N203 N 0.3922 0.13667 0.87704 0.0
H204 H 0.42058 0.195 0.85846 0.0
H205 H 0.36805 0.1 0.77936 0.0
C206 C 0.43299 0.13807 0.69441 0.0
O207 O 0.39515 0.12329 0.70279 0.0
N208 N 0.39084 0.23492 0.71019 0.0
C209 C 0.3709 0.27128 0.71996 0.0
C210 C 0.36624 0.2946 0.68219 0.0
C211 C 0.3997 0.23744 0.66592 0.0
N212 N 0.38486 0.27397 0.64828 0.0
C213 C 0.32617 0.22394 0.80798 0.0
C214 C 0.2724 0.19842 0.73973 0.0
C215 C 0.25607 0.22352 0.77404 0.0
C216 C 0.28332 0.23478 0.8097 0.0
C217 C 0.31442 0.18711 0.74033 0.0
N218 N 0.34084 0.20162 0.77252 0.0
H219 H 0.34764 0.23493 0.83349 0.0
H220 H 0.32713 0.16952 0.71251 0.0
H221 H 0.3607 0.28074 0.75286 0.0
H222 H 0.4171 0.21406 0.64732 0.0
O223 O 0.42987 0.23677 0.79075 0.0
O224 O 0.46078 0.19279 0.74827 0.0
O225 O 0.44723 0.16671 0.72097 0.0
C226 C 0.46499 0.22368 0.7755 0.0
H227 H 0.35666 0.07993 0.86431 0.0
H228 H 0.35249 0.32579 0.68047 0.0
H229 H 0.25394 0.18917 0.71105 0.0
H230 H 0.27222 0.25269 0.83807 0.0
Co231 Co 0.03229 0.15057 1.00673 0.0
C232 C 0.06049 0.16069 0.09893 0.0
C233 C 0.10878 0.13388 0.05778 0.0
C234 C 0.11884 0.12642 0.10199 0.0
N235 N 0.07205 0.15527 0.05564 0.0
N236 N 0.08824 0.14318 0.12749 0.0
H237 H 0.03001 0.17211 0.10942 0.0
H238 H 0.12444 0.1197 0.0295 0.0
C239 C 0.08635 0.18496 0.94521 0.0
O240 O 0.10149 0.14742 0.95429 0.0
N241 N -0.01052 0.14358 0.96096 0.0
C242 C 0.95267 0.12477 0.97127 0.0
C243 C 0.93048 0.11714 0.93325 0.0
C244 C -0.01168 0.14887 0.91597 0.0
N245 N 0.95225 0.13282 0.89846 0.0
C246 C -0.00025 0.07864 0.05808 0.0
C247 C 0.02497 0.02493 0.98966 0.0
C248 C -0.00052 0.00871 1.02371 0.0
C249 C -0.0116 0.03593 0.05948 0.0
C250 C 0.03686 0.06679 0.99062 0.0
N251 N 0.02252 0.09321 1.02291 0.0
H252 H -0.01115 0.10012 0.08363 0.0
H253 H 0.05474 0.07945 0.96299 0.0
H254 H 0.94257 0.11662 1.00462 0.0
H255 H 0.0127 0.16387 0.89655 0.0
O256 O -0.01193 0.18231 0.04173 0.0
O257 O 0.03192 0.21335 0.99943 0.0
O258 O 0.05788 0.1995 0.97179 0.0
C259 C 0.00108 0.21757 0.02676 0.0
H260 H 0.14473 0.10747 0.11416 0.0
H261 H 0.89934 0.10326 0.9317 0.0
H262 H 0.03415 0.00652 0.96091 0.0
H263 H 0.97026 0.02493 0.08773 0.0
Co264 Co 0.89896 0.78399 0.75544 0.0
C265 C 0.91153 0.81123 0.84766 0.0
C266 C 0.88349 0.85975 0.80771 0.0
C267 C 0.8769 0.86928 0.85223 0.0
N268 N 0.90499 0.82315 0.80467 0.0
N269 N 0.89454 0.8386 0.87695 0.0
H270 H 0.92332 0.78072 0.85757 0.0
H271 H 0.86867 0.87551 0.77984 0.0
C272 C 0.93553 0.83724 0.69383 0.0
O273 O 0.89829 0.85362 0.70189 0.0
N274 N 0.89072 0.74198 0.70915 0.0
C275 C 0.87009 0.70588 0.71835 0.0
C276 C 0.86438 0.68356 0.68006 0.0
C277 C 0.89891 0.74028 0.66471 0.0
N278 N 0.88301 0.70455 0.64639 0.0
C279 C 0.82672 0.75291 0.80713 0.0
C280 C 0.77301 0.77969 0.73938 0.0
C281 C 0.75665 0.754 0.77319 0.0
C282 C 0.78385 0.74225 0.80871 0.0
C283 C 0.8151 0.79082 0.74012 0.0
N284 N 0.84148 0.77557 0.77197 0.0
H285 H 0.84817 0.74142 0.83241 0.0
H286 H 0.82791 0.80877 0.7126 0.0
H287 H 0.85998 0.69601 0.75115 0.0
H288 H 0.91639 0.76373 0.64635 0.0
O289 O 0.92951 0.73845 0.78989 0.0
O290 O 0.96156 0.78204 0.74794 0.0
O291 O 0.94866 0.80835 0.72071 0.0
C292 C 0.96499 0.75088 0.77495 0.0
H293 H 0.85793 0.89482 0.86521 0.0
H294 H 0.84986 0.65275 0.67776 0.0
H295 H 0.75453 0.78948 0.7109 0.0
H296 H 0.77272 0.72399 0.83682 0.0
Co297 Co 0.94507 0.14902 0.50715 0.0
C298 C 0.91751 0.15872 0.59921 0.0
C299 C 0.86727 0.13615 0.55779 0.0
C300 C 0.85681 0.12881 0.60196 0.0
N301 N 0.90546 0.15481 0.55593 0.0
N302 N 0.88859 0.14303 0.62759 0.0
H303 H 0.94883 0.16767 0.60969 0.0
H304 H 0.8504 0.12393 0.52927 0.0
C305 C 0.89047 0.17999 0.44298 0.0
O306 O 0.87747 0.1415 0.45134 0.0
N307 N -0.0123 0.14148 0.46097 0.0
C308 C 0.02649 0.12699 0.47101 0.0
C309 C 0.04869 0.12032 0.43287 0.0
C310 C -0.01207 0.14593 0.4158 0.0
N311 N 0.02513 0.133 0.39807 0.0
C312 C -0.01011 0.08275 0.55521 0.0
C313 C 0.94662 0.02148 0.50758 0.0
C314 C 0.98358 0.0099 0.53002 0.0
C315 C 0.0045 0.04116 0.55552 0.0
C316 C 0.93454 0.06344 0.50651 0.0
N317 N 0.95737 0.0934 0.528 0.0
H318 H 0.0071 0.10691 0.57297 0.0
H319 H 0.90814 0.07266 0.48597 0.0
H320 H 0.0391 0.12311 0.50412 0.0
H321 H 0.96225 0.15854 0.39637 0.0
O322 O -0.01204 0.18372 0.54062 0.0
O323 O 0.94333 0.21133 0.49651 0.0
O324 O 0.91789 0.19584 0.46999 0.0
C325 C 0.9737 0.21772 0.52397 0.0
H326 H 0.82955 0.1118 0.61402 0.0
H327 H 0.08129 0.11033 0.43129 0.0
H328 H 0.92759 -0.00114 0.48965 0.0
H329 H 0.0331 0.0346 0.57378 0.0
Co330 Co 0.57524 0.19034 0.25544 0.0
C331 C 0.56267 0.1631 0.34766 0.0
C332 C 0.59071 0.11458 0.30771 0.0
C333 C 0.59731 0.10505 0.35223 0.0
N334 N 0.56921 0.15119 0.30467 0.0
N335 N 0.57966 0.13574 0.37695 0.0
H336 H 0.55088 0.19361 0.35757 0.0
H337 H 0.60553 0.09882 0.27984 0.0
C338 C 0.53867 0.13709 0.19383 0.0
O339 O 0.57592 0.12071 0.20189 0.0
N340 N 0.58349 0.23235 0.20915 0.0
C341 C 0.60411 0.26845 0.21835 0.0
C342 C 0.60982 0.29077 0.18006 0.0
C343 C 0.57529 0.23406 0.16471 0.0
N344 N 0.59119 0.26978 0.14639 0.0
C345 C 0.64748 0.22142 0.30713 0.0
C346 C 0.7012 0.19464 0.23938 0.0
C347 C 0.71755 0.22033 0.27319 0.0
C348 C 0.69035 0.23208 0.30871 0.0
C349 C 0.6591 0.18351 0.24012 0.0
N350 N 0.63273 0.19876 0.27197 0.0
H351 H 0.62603 0.23292 0.33241 0.0
H352 H 0.64629 0.16556 0.2126 0.0
H353 H 0.61422 0.27832 0.25115 0.0
H354 H 0.55781 0.2106 0.14635 0.0
O355 O 0.54469 0.23588 0.28989 0.0
O356 O 0.51265 0.19229 0.24794 0.0
O357 O 0.52554 0.16598 0.22071 0.0
C358 C 0.50921 0.22345 0.27495 0.0
H359 H 0.61627 0.07951 0.36521 0.0
H360 H 0.62434 0.32158 0.17776 0.0
H361 H 0.71968 0.18485 0.2109 0.0
H362 H 0.70148 0.25035 0.33682 0.0
Co363 Co 0.52913 0.82531 1.00715 0.0
C364 C 0.55669 0.81561 0.09921 0.0
C365 C 0.60694 0.83819 0.05779 0.0
C366 C 0.61739 0.84552 0.10196 0.0
N367 N 0.56875 0.81952 0.05593 0.0
N368 N 0.58561 0.8313 0.12759 0.0
H369 H 0.52537 0.80666 0.10969 0.0
H370 H 0.6238 0.8504 0.02927 0.0
C371 C 0.58373 0.79434 0.94298 0.0
O372 O 0.59673 0.83283 0.95134 0.0
N373 N 0.4865 0.83285 0.96097 0.0
C374 C 0.44772 0.84735 0.97101 0.0
C375 C 0.42551 0.85402 0.93287 0.0
C376 C 0.48627 0.8284 0.9158 0.0
N377 N 0.44907 0.84133 0.89807 0.0
C378 C 0.48431 0.89158 0.05521 0.0
C379 C 0.52758 0.95285 1.00758 0.0
C380 C 0.49062 0.96444 0.03002 0.0
C381 C 0.4697 0.93317 0.05552 0.0
C382 C 0.53967 0.91089 1.00651 0.0
N383 N 0.51683 0.88093 0.028 0.0
H384 H 0.4671 0.86742 0.07297 0.0
H385 H 0.56606 0.90167 0.98596 0.0
H386 H 0.4351 0.85122 1.00412 0.0
H387 H 0.51195 0.81579 0.89637 0.0
O388 O 0.48624 0.79061 0.04062 0.0
O389 O 0.53087 0.76301 0.9965 0.0
O390 O 0.55631 0.77849 0.96999 0.0
C391 C 0.5005 0.75661 1.02397 0.0
H392 H 0.64465 0.86253 0.11401 0.0
H393 H 0.39291 0.864 0.93129 0.0
H394 H 0.54661 0.97548 0.98965 0.0
H395 H 0.4411 0.93973 0.07378 0.0
Co396 Co 0.89896 0.19034 0.79531 0.0
C397 C 0.91147 0.16317 0.70308 0.0
C398 C 0.88353 0.11458 0.743 0.0
C399 C 0.87688 0.10509 0.69848 0.0
N400 N 0.905 0.1512 0.74606 0.0
N401 N 0.89443 0.13584 0.67379 0.0
H402 H 0.92325 0.19369 0.69318 0.0
H403 H 0.86878 0.09877 0.77088 0.0
C404 C 0.93554 0.13708 0.85692 0.0
O405 O 0.89829 0.1207 0.84886 0.0
N406 N 0.8907 0.23233 0.84161 0.0
C407 C 0.87007 0.26843 0.83241 0.0
C408 C 0.86436 0.29075 0.8707 0.0
C409 C 0.8989 0.23404 0.88606 0.0
N410 N 0.883 0.26976 0.90438 0.0
C411 C 0.82672 0.22142 0.74363 0.0
C412 C 0.773 0.19461 0.81136 0.0
C413 C 0.75665 0.22032 0.77756 0.0
C414 C 0.78385 0.23208 0.74205 0.0
C415 C 0.81509 0.18348 0.81062 0.0
N416 N 0.84147 0.19875 0.77878 0.0
H417 H 0.84817 0.23293 0.71836 0.0
H418 H 0.82791 0.16553 0.83813 0.0
H419 H 0.85996 0.2783 0.79962 0.0
H420 H 0.9164 0.21059 0.90441 0.0
O421 O 0.92951 0.23589 0.76088 0.0
O422 O 0.96155 0.19229 0.80281 0.0
O423 O 0.94866 0.16597 0.83004 0.0
C424 C 0.96498 0.22345 0.77581 0.0
H425 H 0.85794 0.07954 0.6855 0.0
H426 H 0.84984 0.32155 0.87301 0.0
H427 H 0.75452 0.18481 0.83983 0.0
H428 H 0.77272 0.25036 0.71394 0.0
Co429 Co 0.52913 0.14902 0.5436 0.0
C430 C 0.55662 0.15866 0.45152 0.0
C431 C 0.60693 0.13619 0.49292 0.0
C432 C 0.61735 0.1288 0.44875 0.0
N433 N 0.56872 0.15482 0.49479 0.0
N434 N 0.58551 0.14292 0.42314 0.0
H435 H 0.52529 0.16758 0.44106 0.0
H436 H 0.62384 0.12404 0.52145 0.0
C437 C 0.58374 0.18 0.60776 0.0
O438 O 0.59674 0.14151 0.5994 0.0
N439 N 0.48651 0.14148 0.58979 0.0
C440 C 0.44772 0.12699 0.57975 0.0
C441 C 0.42552 0.12031 0.61789 0.0
C442 C 0.48628 0.14593 0.63497 0.0
N443 N 0.44908 0.13299 0.65269 0.0
C444 C 0.4843 0.08275 0.49555 0.0
C445 C 0.52759 0.02148 0.54316 0.0
C446 C 0.49062 0.0099 0.52073 0.0
C447 C 0.46969 0.04116 0.49524 0.0
C448 C 0.53967 0.06344 0.54423 0.0
N449 N 0.51682 0.0934 0.52275 0.0
H450 H 0.46708 0.10691 0.47779 0.0
H451 H 0.56607 0.07266 0.56477 0.0
H452 H 0.43511 0.12312 0.54665 0.0
H453 H 0.51196 0.15853 0.65439 0.0
O454 O 0.48623 0.18372 0.51014 0.0
O455 O 0.53088 0.21132 0.55424 0.0
O456 O 0.55632 0.19584 0.58075 0.0
C457 C 0.5005 0.21772 0.52679 0.0
H458 H 0.64462 0.11182 0.43669 0.0
H459 H 0.39292 0.11032 0.61947 0.0
H460 H 0.54662 -0.00114 0.56108 0.0
H461 H 0.44109 0.0346 0.47699 0.0
Co462 Co 0.57524 0.784 0.29531 0.0
C463 C 0.56273 0.81117 0.20308 0.0
C464 C 0.59067 0.85975 0.243 0.0
C465 C 0.59732 0.86924 0.19848 0.0
N466 N 0.56921 0.82313 0.24606 0.0
N467 N 0.57978 0.83849 0.17379 0.0
H468 H 0.55096 0.78064 0.19318 0.0
H469 H 0.60543 0.87556 0.27088 0.0
C470 C 0.53866 0.83725 0.35692 0.0
O471 O 0.57591 0.85363 0.34886 0.0
N472 N 0.5835 0.742 0.34161 0.0
C473 C 0.60413 0.7059 0.33241 0.0
C474 C 0.60984 0.68359 0.3707 0.0
C475 C 0.5753 0.74029 0.38606 0.0
N476 N 0.5912 0.70457 0.40438 0.0
C477 C 0.64748 0.75291 0.24363 0.0
C478 C 0.7012 0.77972 0.31136 0.0
C479 C 0.71755 0.75402 0.27756 0.0
C480 C 0.69035 0.74225 0.24205 0.0
C481 C 0.65911 0.79085 0.31062 0.0
N482 N 0.63273 0.77558 0.27878 0.0
H483 H 0.62603 0.7414 0.21836 0.0
H484 H 0.6463 0.80881 0.33813 0.0
H485 H 0.61424 0.69603 0.29961 0.0
H486 H 0.5578 0.76374 0.40441 0.0
O487 O 0.5447 0.73844 0.26088 0.0
O488 O 0.51265 0.78205 0.30281 0.0
O489 O 0.52554 0.80836 0.33003 0.0
C490 C 0.50922 0.75088 0.27581 0.0
H491 H 0.61626 0.8948 0.1855 0.0
H492 H 0.62436 0.65278 0.37301 0.0
H493 H 0.71968 0.78952 0.33983 0.0
H494 H 0.70149 0.72398 0.21394 0.0
Co495 Co 0.94508 0.82531 0.0436 0.0
C496 C 0.91758 0.81567 0.95152 0.0
C497 C 0.86727 0.83815 0.99292 0.0
C498 C 0.85685 0.84553 0.94875 0.0
N499 N 0.90548 0.81952 0.99479 0.0
N500 N 0.88869 0.83141 0.92314 0.0
H501 H 0.94891 0.80675 0.94106 0.0
H502 H 0.85036 0.8503 1.02145 0.0
C503 C 0.89046 0.79434 0.10776 0.0
O504 O 0.87746 0.83282 0.0994 0.0
N505 N -0.01231 0.83285 0.08979 0.0
C506 C 0.02648 0.84735 0.07975 0.0
C507 C 0.04868 0.85402 0.11789 0.0
C508 C -0.01208 0.8284 0.13496 0.0
N509 N 0.02512 0.84134 0.15269 0.0
C510 C -0.01009 0.89158 0.99555 0.0
C511 C 0.94662 0.95285 0.04316 0.0
C512 C 0.98358 0.96444 1.02073 0.0
C513 C 0.00452 0.93317 0.99524 0.0
C514 C 0.93453 0.91089 0.04423 0.0
N515 N 0.95738 0.88093 1.02275 0.0
H516 H 0.00712 0.86742 0.97779 0.0
H517 H 0.90813 0.90167 0.06476 0.0
H518 H 0.0391 0.85121 0.04665 0.0
H519 H 0.96224 0.8158 0.15439 0.0
O520 O -0.01203 0.79061 1.01014 0.0
O521 O 0.94332 0.76301 0.05424 0.0
O522 O 0.91789 0.77849 0.08075 0.0
C523 C 0.9737 0.75661 0.02679 0.0
H524 H 0.82958 0.86252 0.93669 0.0
H525 H 0.08129 0.86401 0.11947 0.0
H526 H 0.92758 0.97548 0.06108 0.0
H527 H 0.03312 0.93973 0.97699 0.0
Co528 Co 0.57328 0.69897 0.79187 0.0
C529 C 0.56433 0.67043 0.70016 0.0
C530 C 0.58648 0.62047 0.74224 0.0
C531 C 0.59355 0.60932 0.69825 0.0
N532 N 0.56819 0.65889 0.74353 0.0
N533 N 0.57963 0.64094 0.67225 0.0
H534 H 0.55553 0.70166 0.68922 0.0
H535 H 0.59846 0.60372 0.77092 0.0
C536 C 0.54303 0.64381 0.85497 0.0
O537 O 0.5819 0.63203 0.8467 0.0
N538 N 0.58009 0.74174 0.83792 0.0
C539 C 0.59334 0.78097 0.82795 0.0
C540 C 0.60015 0.803 0.86621 0.0
C541 C 0.57662 0.74135 0.88318 0.0
N542 N 0.5888 0.77876 0.90103 0.0
C543 C 0.6395 0.74496 0.745 0.0
C544 C 0.70083 0.70082 0.79159 0.0
C545 C 0.71234 0.73828 0.77005 0.0
C546 C 0.68106 0.7597 0.74508 0.0
C547 C 0.65893 0.68858 0.79229 0.0
N548 N 0.62891 0.71177 0.77132 0.0
H549 H 0.61535 0.76241 0.7275 0.0
H550 H 0.64983 0.66169 0.81214 0.0
H551 H 0.5964 0.79388 0.79486 0.0
H552 H 0.56522 0.71502 0.90255 0.0
O553 O 0.5384 0.74125 0.75775 0.0
O554 O 0.51076 0.69684 0.80195 0.0
O555 O 0.52666 0.6715 0.82868 0.0
C556 C 0.50431 0.72694 0.77412 0.0
H557 H 0.61008 0.58163 0.68655 0.0
H558 H 0.60926 0.83585 0.86794 0.0
H559 H 0.72351 0.68145 0.80903 0.0
H560 H 0.68763 0.78866 0.72747 0.0
Co561 Co 0.53005 0.32261 0.04534 0.0
C562 C 0.55928 0.31045 0.95378 0.0
C563 C 0.60571 0.34122 0.99422 0.0
C564 C 0.61579 0.34765 0.94986 0.0
N565 N 0.57008 0.31808 0.99683 0.0
N566 N 0.58639 0.32831 0.92486 0.0
H567 H 0.52956 0.2971 0.94342 0.0
H568 H 0.62023 0.35721 1.0221 0.0
C569 C 0.58446 0.287 0.10551 0.0
O570 O 0.59967 0.32469 0.09719 0.0
N571 N 0.4875 0.32936 0.09112 0.0
C572 C 0.45066 0.3484 0.08152 0.0
C573 C 0.42855 0.35467 0.11988 0.0
C574 C 0.4867 0.32286 0.13587 0.0
N575 N 0.45061 0.33808 0.15401 0.0
C576 C 0.49857 0.39465 0.99368 0.0
C577 C 0.52262 0.44842 0.06251 0.0
C578 C 0.49825 0.46476 0.0276 0.0
C579 C 0.48771 0.43746 0.99173 0.0
C580 C 0.53414 0.40644 0.06209 0.0
N581 N 0.52041 0.38005 0.02948 0.0
H582 H 0.48826 0.37317 0.96786 0.0
H583 H 0.55139 0.39373 0.09016 0.0
H584 H 0.44047 0.3575 0.04846 0.0
H585 H 0.51128 0.30731 0.15461 0.0
O586 O 0.48562 0.29157 1.00987 0.0
O587 O 0.52913 0.25973 0.05192 0.0
O588 O 0.5552 0.27322 0.07951 0.0
C589 C 0.4983 0.25607 1.02449 0.0
H590 H 0.64065 0.36763 0.93712 0.0
H591 H 0.39733 0.36829 0.12207 0.0
H592 H 0.5313 0.46688 0.0914 0.0
H593 H 0.47047 0.4485 0.96287 0.0
Co594 Co 0.90092 0.27536 0.29187 0.0
C595 C 0.90987 0.3039 0.20016 0.0
C596 C 0.88773 0.35386 0.24224 0.0
C597 C 0.88065 0.36501 0.19825 0.0
N598 N 0.90601 0.31544 0.24353 0.0
N599 N 0.89457 0.33339 0.17225 0.0
H600 H 0.91867 0.27267 0.18922 0.0
H601 H 0.87574 0.37061 0.27092 0.0
C602 C 0.93118 0.33053 0.35497 0.0
O603 O 0.8923 0.3423 0.3467 0.0
N604 N 0.89412 0.23259 0.33792 0.0
C605 C 0.88086 0.19336 0.32795 0.0
C606 C 0.87405 0.17133 0.36621 0.0
C607 C 0.89758 0.23298 0.38318 0.0
N608 N 0.8854 0.19558 0.40103 0.0
C609 C 0.8347 0.22937 0.245 0.0
C610 C 0.77337 0.27351 0.29159 0.0
C611 C 0.76186 0.23605 0.27005 0.0
C612 C 0.79314 0.21464 0.24508 0.0
C613 C 0.81527 0.28575 0.29229 0.0
N614 N 0.84529 0.26257 0.27132 0.0
H615 H 0.85885 0.21192 0.2275 0.0
H616 H 0.82437 0.31264 0.31214 0.0
H617 H 0.87781 0.18045 0.29486 0.0
H618 H 0.90898 0.25932 0.40255 0.0
O619 O 0.9358 0.23308 0.25775 0.0
O620 O 0.96344 0.27749 0.30195 0.0
O621 O 0.94754 0.30283 0.32868 0.0
C622 C 0.96989 0.24739 0.27412 0.0
H623 H 0.86413 0.3927 0.18655 0.0
H624 H 0.86494 0.13848 0.36794 0.0
H625 H 0.7507 0.29288 0.30903 0.0
H626 H 0.78658 0.18567 0.22747 0.0
Co627 Co 0.94415 0.65172 0.54534 0.0
C628 C 0.91492 0.66389 0.45378 0.0
C629 C 0.86849 0.63311 0.49422 0.0
C630 C 0.85841 0.62668 0.44986 0.0
N631 N 0.90412 0.65625 0.49683 0.0
N632 N 0.88781 0.64602 0.42486 0.0
H633 H 0.94464 0.67724 0.44341 0.0
H634 H 0.85397 0.61712 0.5221 0.0
C635 C 0.88974 0.68733 0.60551 0.0
O636 O 0.87453 0.64964 0.59719 0.0
N637 N 0.9867 0.64497 0.59112 0.0
C638 C 0.02355 0.62594 0.58152 0.0
C639 C 0.04565 0.61966 0.61988 0.0
C640 C -0.0125 0.65147 0.63587 0.0
N641 N 0.02359 0.63625 0.65401 0.0
C642 C 0.97563 0.57968 0.49368 0.0
C643 C 0.95158 0.52591 0.56251 0.0
C644 C 0.97595 0.50957 0.5276 0.0
C645 C 0.9865 0.53687 0.49173 0.0
C646 C 0.94006 0.56789 0.56208 0.0
N647 N 0.95379 0.59428 0.52948 0.0
H648 H 0.98594 0.60116 0.46786 0.0
H649 H 0.92282 0.5806 0.59016 0.0
H650 H 0.03373 0.61684 0.54846 0.0
H651 H 0.96292 0.66703 0.65461 0.0
O652 O -0.01142 0.68276 0.50987 0.0
O653 O 0.94507 0.7146 0.55192 0.0
O654 O 0.919 0.70111 0.57951 0.0
C655 C 0.9759 0.71827 0.52449 0.0
H656 H 0.83355 0.60671 0.43712 0.0
H657 H 0.07687 0.60605 0.62207 0.0
H658 H 0.9429 0.50745 0.5914 0.0
H659 H 0.00373 0.52584 0.46287 0.0
Co660 Co 0.57328 0.27535 0.75889 0.0
C661 C 0.56441 0.30381 0.85062 0.0
C662 C 0.58641 0.35385 0.80855 0.0
C663 C 0.59354 0.36497 0.85254 0.0
N664 N 0.56819 0.3154 0.80726 0.0
N665 N 0.57974 0.33328 0.87853 0.0
H666 H 0.55565 0.27257 0.86154 0.0
H667 H 0.59832 0.37065 0.77987 0.0
C668 C 0.54302 0.33052 0.6958 0.0
O669 O 0.58189 0.3423 0.70407 0.0
N670 N 0.58008 0.23259 0.71283 0.0
C671 C 0.59333 0.19336 0.7228 0.0
C672 C 0.60015 0.17133 0.68453 0.0
C673 C 0.57662 0.23298 0.66757 0.0
N674 N 0.58881 0.19558 0.64971 0.0
C675 C 0.63949 0.22934 0.80575 0.0
C676 C 0.70083 0.2735 0.75918 0.0
C677 C 0.71234 0.23603 0.7807 0.0
C678 C 0.68106 0.21461 0.80567 0.0
C679 C 0.65892 0.28574 0.75848 0.0
N680 N 0.6289 0.26254 0.77944 0.0
H681 H 0.61534 0.21188 0.82324 0.0
H682 H 0.64982 0.31264 0.73865 0.0
H683 H 0.59638 0.18044 0.75588 0.0
H684 H 0.56523 0.25932 0.6482 0.0
O685 O 0.53839 0.23306 0.793 0.0
O686 O 0.51076 0.27748 0.74881 0.0
O687 O 0.52665 0.30283 0.72209 0.0
C688 C 0.5043 0.24738 0.77664 0.0
H689 H 0.61003 0.39268 0.86425 0.0
H690 H 0.60926 0.13848 0.6828 0.0
H691 H 0.7235 0.29288 0.74175 0.0
H692 H 0.68762 0.18564 0.82326 0.0
Co693 Co 0.94415 0.32261 1.00542 0.0
C694 C 0.915 0.31051 0.097 0.0
C695 C 0.86849 0.34117 0.05657 0.0
C696 C 0.85845 0.34766 0.10093 0.0
N697 N 0.90415 0.31807 0.05395 0.0
N698 N 0.88793 0.32843 0.12592 0.0
H699 H 0.94474 0.29719 0.10735 0.0
H700 H 0.85391 0.35709 0.02867 0.0
C701 C 0.88973 0.287 0.94525 0.0
O702 O 0.87453 0.32468 0.95356 0.0
N703 N 0.98669 0.32937 0.95962 0.0
C704 C 0.02354 0.34841 0.96922 0.0
C705 C 0.04564 0.35468 0.93086 0.0
C706 C -0.01251 0.32287 0.91487 0.0
N707 N 0.02358 0.33809 0.89673 0.0
C708 C 0.97565 0.39465 0.05706 0.0
C709 C 0.95157 0.44842 0.98825 0.0
C710 C 0.97595 0.46476 1.02316 0.0
C711 C 0.98651 0.43746 0.05902 0.0
C712 C 0.94005 0.40644 0.98868 0.0
N713 N 0.9538 0.38005 1.02128 0.0
H714 H 0.98598 0.37317 0.08288 0.0
H715 H 0.92279 0.39373 0.96061 0.0
H716 H 0.03372 0.3575 1.00228 0.0
H717 H 0.96291 0.3073 0.89613 0.0
O718 O -0.0114 0.29157 0.04087 0.0
O719 O 0.94508 0.25973 0.99884 0.0
O720 O 0.919 0.27322 0.97125 0.0
C721 C 0.97591 0.25607 0.02626 0.0
H722 H 0.83357 0.36761 0.11367 0.0
H723 H 0.07686 0.36829 0.92867 0.0
H724 H 0.94287 0.46688 0.95937 0.0
H725 H 0.00376 0.44849 0.08787 0.0
Co726 Co 0.90093 0.69898 0.25889 0.0
C727 C 0.90979 0.67052 0.35062 0.0
C728 C 0.88779 0.62048 0.30855 0.0
C729 C 0.88066 0.60936 0.35254 0.0
N730 N 0.90602 0.65893 0.30726 0.0
N731 N 0.89446 0.64105 0.37853 0.0
H732 H 0.91855 0.70176 0.36154 0.0
H733 H 0.87588 0.60368 0.27987 0.0
C734 C 0.93118 0.64381 0.1958 0.0
O735 O 0.89231 0.63203 0.20407 0.0
N736 N 0.89412 0.74174 0.21282 0.0
C737 C 0.88087 0.78098 0.22279 0.0
C738 C 0.87405 0.803 0.18453 0.0
C739 C 0.89758 0.74135 0.16757 0.0
N740 N 0.88539 0.77875 0.14971 0.0
C741 C 0.83471 0.74499 0.30575 0.0
C742 C 0.77337 0.70083 0.25918 0.0
C743 C 0.76186 0.7383 0.2807 0.0
C744 C 0.79315 0.75973 0.30567 0.0
C745 C 0.81528 0.68859 0.25848 0.0
N746 N 0.8453 0.71179 0.27944 0.0
H747 H 0.85886 0.76245 0.32324 0.0
H748 H 0.82438 0.66169 0.23865 0.0
H749 H 0.87782 0.79389 0.25588 0.0
H750 H 0.90897 0.71501 0.14819 0.0
O751 O 0.93581 0.74127 0.293 0.0
O752 O 0.96344 0.69685 0.24881 0.0
O753 O 0.94755 0.67151 0.22209 0.0
C754 C 0.9699 0.72695 0.27664 0.0
H755 H 0.86417 0.58165 0.36425 0.0
H756 H 0.86494 0.83585 0.1828 0.0
H757 H 0.7507 0.68145 0.24175 0.0
H758 H 0.78658 0.78869 0.32326 0.0
Co759 Co 0.53005 0.65172 0.50542 0.0
C760 C 0.5592 0.66382 0.597 0.0
C761 C 0.60571 0.63316 0.55657 0.0
C762 C 0.61575 0.62667 0.60093 0.0
N763 N 0.57005 0.65626 0.55395 0.0
N764 N 0.58628 0.6459 0.62592 0.0
H765 H 0.52946 0.67714 0.60735 0.0
H766 H 0.62029 0.61724 0.52867 0.0
C767 C 0.58447 0.68734 0.44525 0.0
O768 O 0.59967 0.64965 0.45356 0.0
N769 N 0.48752 0.64496 0.45962 0.0
C770 C 0.45067 0.62593 0.46922 0.0
C771 C 0.42856 0.61965 0.43086 0.0
C772 C 0.48671 0.65147 0.41487 0.0
N773 N 0.45062 0.63624 0.39673 0.0
C774 C 0.49856 0.57969 0.55706 0.0
C775 C 0.52264 0.52591 0.48825 0.0
C776 C 0.49825 0.50957 0.52316 0.0
C777 C 0.48769 0.53688 0.55902 0.0
C778 C 0.53416 0.56789 0.48868 0.0
N779 N 0.52041 0.59428 0.52127 0.0
H780 H 0.48822 0.60117 0.58288 0.0
H781 H 0.55141 0.5806 0.46061 0.0
H782 H 0.44048 0.61683 0.50227 0.0
H783 H 0.51129 0.66703 0.39613 0.0
O784 O 0.4856 0.68276 0.54087 0.0
O785 O 0.52913 0.7146 0.49884 0.0
O786 O 0.5552 0.70112 0.47125 0.0
C787 C 0.49829 0.71826 0.52626 0.0
H788 H 0.64064 0.60672 0.61367 0.0
H789 H 0.39734 0.60604 0.42867 0.0
H790 H 0.53133 0.50745 0.45937 0.0
H791 H 0.47044 0.52584 0.58787 0.0
Co792 Co 0.40198 0.27734 0.25819 0.0
C793 C 0.41247 0.30544 0.35003 0.0
C794 C 0.38782 0.3548 0.30873 0.0
C795 C 0.38107 0.36544 0.35292 0.0
N796 N 0.4074 0.31705 0.30682 0.0
N797 N 0.39663 0.33423 0.37841 0.0
H798 H 0.4225 0.27449 0.36064 0.0
H799 H 0.3746 0.37113 0.28037 0.0
C800 C 0.43416 0.33208 0.19536 0.0
O801 O 0.39592 0.34586 0.20356 0.0
N802 N 0.39471 0.23519 0.21168 0.0
C803 C 0.38072 0.1961 0.2211 0.0
C804 C 0.37278 0.175 0.18248 0.0
C805 C 0.39743 0.2364 0.16639 0.0
N806 N 0.38408 0.1997 0.14798 0.0
C807 C 0.33529 0.23215 0.30479 0.0
C808 C 0.27435 0.27607 0.25734 0.0
C809 C 0.26255 0.239 0.27948 0.0
C810 C 0.29367 0.21765 0.30473 0.0
C811 C 0.31633 0.28811 0.25668 0.0
N812 N 0.34612 0.26511 0.27826 0.0
H813 H 0.35931 0.21467 0.32247 0.0
H814 H 0.32574 0.31465 0.23641 0.0
H815 H 0.37755 0.18282 0.25403 0.0
H816 H 0.40872 0.26295 0.14732 0.0
O817 O 0.4359 0.23409 0.29209 0.0
O818 O 0.46464 0.27844 0.24869 0.0
O819 O 0.44935 0.30403 0.22201 0.0
C820 C 0.47038 0.24794 0.27619 0.0
H821 H 0.36361 0.39234 0.36515 0.0
H822 H 0.36275 0.14245 0.18019 0.0
H823 H 0.25183 0.29526 0.23945 0.0
H824 H 0.28694 0.18887 0.32261 0.0
Co825 Co 0.44718 0.64917 1.00563 0.0
C826 C 0.4192 0.66134 0.09728 0.0
C827 C 0.36988 0.63586 0.05649 0.0
C828 C 0.35933 0.62978 0.10082 0.0
N829 N 0.40757 0.65549 0.05419 0.0
N830 N 0.39051 0.64587 0.126 0.0
H831 H 0.45014 0.67156 0.10769 0.0
H832 H 0.35363 0.62213 0.02834 0.0
C833 C 0.39248 0.68236 0.9428 0.0
O834 O 0.37868 0.64399 0.95031 0.0
N835 N 0.48926 0.6411 0.95921 0.0
C836 C 0.52751 0.62472 0.96829 0.0
C837 C 0.54975 0.62023 0.92982 0.0
C838 C 0.4897 0.64842 0.9145 0.0
N839 N 0.52666 0.63588 0.89602 0.0
C840 C 0.49006 0.58225 0.05441 0.0
C841 C 0.44707 0.52145 1.00581 0.0
C842 C 0.48309 0.50934 0.02964 0.0
C843 C 0.50389 0.54041 0.05551 0.0
C844 C 0.4358 0.56362 1.00402 0.0
N845 N 0.45847 0.59328 0.02616 0.0
H846 H 0.50726 0.60623 0.07245 0.0
H847 H 0.41017 0.57321 0.98258 0.0
H848 H 0.53991 0.61837 1.00104 0.0
H849 H 0.46457 0.66342 0.89612 0.0
O850 O 0.491 0.68257 0.03936 0.0
O851 O 0.44688 0.71161 0.99566 0.0
O852 O 0.42104 0.69691 0.96926 0.0
C853 C 0.4774 0.71703 1.02317 0.0
H854 H 0.33257 0.61233 0.1134 0.0
H855 H 0.5821 0.60956 0.92758 0.0
H856 H 0.42816 0.49906 0.98744 0.0
H857 H 0.53185 0.53349 0.0747 0.0
Co858 Co 0.07222 0.69699 0.75818 0.0
C859 C 0.06173 0.66889 0.85003 0.0
C860 C 0.08639 0.61954 0.80873 0.0
C861 C 0.09313 0.6089 0.85292 0.0
N862 N 0.0668 0.65728 0.80682 0.0
N863 N 0.07758 0.64011 0.87841 0.0
H864 H 0.0517 0.69984 0.86064 0.0
H865 H 0.0996 0.60321 0.78037 0.0
C866 C 0.04004 0.64226 0.69536 0.0
O867 O 0.07828 0.62847 0.70356 0.0
N868 N 0.07949 0.73914 0.71167 0.0
C869 C 0.09348 0.77823 0.7211 0.0
C870 C 0.10143 0.79933 0.68248 0.0
C871 C 0.07678 0.73793 0.66639 0.0
N872 N 0.09013 0.77464 0.64798 0.0
C873 C 0.13891 0.74218 0.80479 0.0
C874 C 0.19986 0.69827 0.75734 0.0
C875 C 0.21165 0.73533 0.77947 0.0
C876 C 0.18053 0.75668 0.80473 0.0
C877 C 0.15787 0.68623 0.75667 0.0
N878 N 0.12808 0.70922 0.77826 0.0
H879 H 0.1149 0.75966 0.82246 0.0
H880 H 0.14846 0.65969 0.73641 0.0
H881 H 0.09666 0.79152 0.75403 0.0
H882 H 0.06549 0.71139 0.64732 0.0
O883 O 0.0383 0.74024 0.79209 0.0
O884 O 0.00956 0.6959 0.74869 0.0
O885 O 0.02485 0.6703 0.72201 0.0
C886 C 0.00382 0.72639 0.77619 0.0
H887 H 0.1106 0.582 0.86515 0.0
H888 H 0.11145 0.83189 0.68019 0.0
H889 H 0.22237 0.67907 0.73945 0.0
H890 H 0.18726 0.78546 0.82261 0.0
Co891 Co 0.02703 0.32516 0.50563 0.0
C892 C 0.055 0.31299 0.59729 0.0
C893 C 0.10432 0.33847 0.55649 0.0
C894 C 0.11487 0.34455 0.60082 0.0
N895 N 0.06664 0.31884 0.55419 0.0
N896 N 0.08369 0.32846 0.626 0.0
H897 H 0.02406 0.30278 0.60769 0.0
H898 H 0.12057 0.35221 0.52834 0.0
C899 C 0.08172 0.29197 0.4428 0.0
O900 O 0.09552 0.33034 0.45031 0.0
N901 N 0.98494 0.33324 0.45922 0.0
C902 C 0.9467 0.34961 0.46829 0.0
C903 C 0.92445 0.35411 0.42982 0.0
C904 C 0.9845 0.32592 0.4145 0.0
N905 N 0.94754 0.33845 0.39602 0.0
C906 C 0.98414 0.39208 0.55441 0.0
C907 C 0.02714 0.45288 0.50581 0.0
C908 C -0.00889 0.465 0.52964 0.0
C909 C 0.97031 0.43392 0.55551 0.0
C910 C 0.0384 0.41072 0.50402 0.0
N911 N 0.01573 0.38106 0.52616 0.0
H912 H 0.96694 0.3681 0.57245 0.0
H913 H 0.06403 0.40112 0.48258 0.0
H914 H 0.93429 0.35596 0.50104 0.0
H915 H 0.00963 0.31092 0.39612 0.0
O916 O 0.9832 0.29176 0.53937 0.0
O917 O 0.02732 0.26272 0.49566 0.0
O918 O 0.05317 0.27743 0.46926 0.0
C919 C -0.0032 0.25731 0.52317 0.0
H920 H 0.14163 0.362 0.6134 0.0
H921 H 0.8921 0.36477 0.42758 0.0
H922 H 0.04605 0.47528 0.48744 0.0
H923 H 0.94235 0.44084 0.5747 0.0
Co924 Co 0.40198 0.697 0.29256 0.0
C925 C 0.4124 0.66898 0.2007 0.0
C926 C 0.38788 0.61955 0.24198 0.0
C927 C 0.38107 0.60894 0.19779 0.0
N928 N 0.40741 0.65732 0.24391 0.0
N929 N 0.39651 0.64022 0.17232 0.0
H930 H 0.42239 0.69995 0.19011 0.0
H931 H 0.37474 0.60316 0.27035 0.0
C932 C 0.43416 0.64226 0.35538 0.0
O933 O 0.39593 0.62847 0.34719 0.0
N934 N 0.39471 0.73914 0.33908 0.0
C935 C 0.38072 0.77823 0.32966 0.0
C936 C 0.37277 0.79933 0.36828 0.0
C937 C 0.39742 0.73792 0.38437 0.0
N938 N 0.38407 0.77463 0.40279 0.0
C939 C 0.33529 0.74221 0.24597 0.0
C940 C 0.27435 0.69827 0.29339 0.0
C941 C 0.26255 0.73534 0.27127 0.0
C942 C 0.29368 0.7567 0.24603 0.0
C943 C 0.31634 0.68623 0.29405 0.0
N944 N 0.34612 0.70924 0.27248 0.0
H945 H 0.35931 0.75969 0.2283 0.0
H946 H 0.32574 0.65968 0.3143 0.0
H947 H 0.37756 0.79152 0.29674 0.0
H948 H 0.40871 0.71138 0.40344 0.0
O949 O 0.43591 0.74026 0.25868 0.0
O950 O 0.46465 0.6959 0.30206 0.0
O951 O 0.44936 0.6703 0.32873 0.0
C952 C 0.47038 0.7264 0.27457 0.0
H953 H 0.36364 0.58202 0.18555 0.0
H954 H 0.36275 0.83188 0.37058 0.0
H955 H 0.25183 0.67906 0.31126 0.0
H956 H 0.28695 0.78549 0.22816 0.0
Co957 Co 0.02702 0.64917 0.04512 0.0
C958 C 0.05492 0.66126 0.95344 0.0
C959 C 0.10431 0.63591 0.99422 0.0
C960 C 0.11483 0.62978 0.94989 0.0
N961 N 0.0666 0.6555 0.99654 0.0
N962 N 0.08357 0.64575 0.92473 0.0
H963 H 0.02396 0.67144 0.94306 0.0
H964 H 0.12062 0.62226 1.02239 0.0
C965 C 0.08172 0.68237 0.10794 0.0
O966 O 0.09552 0.644 0.10044 0.0
N967 N 0.98494 0.64109 0.09155 0.0
C968 C 0.9467 0.62471 0.08248 0.0
C969 C 0.92446 0.62022 0.12095 0.0
C970 C 0.98451 0.64842 0.13626 0.0
N971 N 0.94755 0.63588 0.15475 0.0
C972 C 0.98412 0.58225 0.99635 0.0
C973 C 0.02714 0.52145 0.04492 0.0
C974 C -0.00889 0.50934 1.02111 0.0
C975 C 0.9703 0.54041 0.99525 0.0
C976 C 0.0384 0.56362 0.04671 0.0
N977 N 0.01572 0.59328 1.02459 0.0
H978 H 0.96691 0.60623 0.97832 0.0
H979 H 0.06404 0.57322 0.06815 0.0
H980 H 0.93429 0.61836 0.04974 0.0
H981 H 0.00963 0.66343 0.15464 0.0
O982 O 0.98318 0.68257 1.0114 0.0
O983 O 0.02732 0.71161 0.05508 0.0
O984 O 0.05316 0.69691 0.08149 0.0
C985 C -0.00321 0.71702 0.02758 0.0
H986 H 0.14161 0.61236 0.93731 0.0
H987 H 0.89211 0.60955 0.12319 0.0
H988 H 0.04606 0.49906 0.06329 0.0
H989 H 0.94234 0.53349 0.97607 0.0
Co990 Co 0.07222 0.27733 0.79256 0.0
C991 C 0.0618 0.30535 0.7007 0.0
C992 C 0.08633 0.35479 0.74198 0.0
C993 C 0.09313 0.36539 0.69779 0.0
N994 N 0.06679 0.31701 0.74391 0.0
N995 N 0.07769 0.33411 0.67232 0.0
H996 H 0.05181 0.27438 0.69011 0.0
H997 H 0.09946 0.37117 0.77035 0.0
C998 C 0.04004 0.33208 0.85538 0.0
O999 O 0.07828 0.34586 0.84719 0.0
N1000 N 0.07949 0.2352 0.83908 0.0
C1001 C 0.09348 0.1961 0.82966 0.0
C1002 C 0.10143 0.17501 0.86828 0.0
C1003 C 0.07678 0.23641 0.88437 0.0
N1004 N 0.09013 0.1997 0.90279 0.0
C1005 C 0.13891 0.23213 0.74597 0.0
C1006 C 0.19985 0.27607 0.79339 0.0
C1007 C 0.21165 0.23899 0.77127 0.0
C1008 C 0.18052 0.21763 0.74603 0.0
C1009 C 0.15786 0.28811 0.79405 0.0
N1010 N 0.12808 0.26509 0.77248 0.0
H1011 H 0.11489 0.21464 0.7283 0.0
H1012 H 0.14846 0.31465 0.8143 0.0
H1013 H 0.09664 0.18281 0.79674 0.0
H1014 H 0.06549 0.26295 0.90344 0.0
O1015 O 0.03829 0.23407 0.75868 0.0
O1016 O 0.00955 0.27843 0.80206 0.0
O1017 O 0.02484 0.30403 0.82873 0.0
C1018 C 0.00382 0.24793 0.77457 0.0
H1019 H 0.11056 0.39231 0.68556 0.0
H1020 H 0.11145 0.14245 0.87058 0.0
H1021 H 0.22237 0.29527 0.81126 0.0
H1022 H 0.18725 0.18884 0.72816 0.0
Co1023 Co 0.44718 0.32516 0.54512 0.0
C1024 C 0.41929 0.31307 0.45344 0.0
C1025 C 0.36989 0.33842 0.49422 0.0
C1026 C 0.35938 0.34456 0.44989 0.0
N1027 N 0.4076 0.31883 0.49654 0.0
N1028 N 0.39063 0.32858 0.42473 0.0
H1029 H 0.45025 0.30289 0.44306 0.0
H1030 H 0.35359 0.35207 0.52239 0.0
C1031 C 0.39248 0.29196 0.60794 0.0
O1032 O 0.37868 0.33033 0.60044 0.0
N1033 N 0.48926 0.33324 0.59155 0.0
C1034 C 0.5275 0.34962 0.58248 0.0
C1035 C 0.54974 0.35411 0.62095 0.0
C1036 C 0.48969 0.32592 0.63626 0.0
N1037 N 0.52665 0.33846 0.65475 0.0
C1038 C 0.49008 0.39208 0.49635 0.0
C1039 C 0.44706 0.45288 0.54492 0.0
C1040 C 0.48309 0.465 0.52111 0.0
C1041 C 0.5039 0.43392 0.49525 0.0
C1042 C 0.4358 0.41071 0.54671 0.0
N1043 N 0.45848 0.38106 0.52459 0.0
H1044 H 0.50729 0.3681 0.47832 0.0
H1045 H 0.41016 0.40112 0.56815 0.0
H1046 H 0.53991 0.35597 0.54974 0.0
H1047 H 0.46457 0.31091 0.65464 0.0
O1048 O 0.49102 0.29176 0.5114 0.0
O1049 O 0.44689 0.26273 0.55508 0.0
O1050 O 0.42104 0.27742 0.58149 0.0
C1051 C 0.47741 0.25731 0.52758 0.0
H1052 H 0.33259 0.36197 0.43731 0.0
H1053 H 0.58209 0.36478 0.62319 0.0
H1054 H 0.42814 0.47527 0.56329 0.0
H1055 H 0.53187 0.44084 0.47607 0.0
loop_
_geom_bond_atom_site_label_1
_geom_bond_atom_site_label_2
_geom_bond_distance
_geom_bond_site_symmetry_2
_ccdc_geom_bond_type
Co0 N4 2.148 . S
Co0 N10 2.128 . S
Co0 N20 2.194 . S
Co0 O25 2.351 . S
Co0 O26 2.155 . S
Co0 O27 2.096 . S
C1 N4 1.301 . S
C1 N5 1.328 . S
C1 H6 0.930 . S
C2 C3 1.333 . S
C2 N4 1.317 . S
C2 H7 0.930 . S
C3 C2 1.333 . S
C3 N5 1.350 . S
C3 H29 0.931 . S
N4 Co0 2.148 . S
N4 C1 1.301 . S
N4 C2 1.317 . S
N5 C1 1.328 . S
N5 C3 1.350 . S
H6 C1 0.930 . S
H7 C2 0.930 . S
C8 O9 1.224 . S
C8 O27 1.247 . S
O9 C8 1.224 . S
N10 Co0 2.128 . S
N10 C11 1.355 . S
N10 C13 1.311 . S
C11 N10 1.355 . S
C11 C12 1.363 . S
C11 H23 0.929 . S
C12 C11 1.363 . S
C12 N14 1.375 . S
C12 H30 0.931 . S
C13 N10 1.311 . S
C13 N14 1.347 . S
C13 H24 0.929 . S
N14 C12 1.375 . S
N14 C13 1.347 . S
C15 C18 1.365 . S
C15 N20 1.328 . S
C15 H21 0.929 . S
C16 C17 1.362 . S
C16 C19 1.378 . S
C16 H31 0.929 . S
C17 C16 1.362 . S
C17 C18 1.366 . S
C18 C15 1.365 . S
C18 C17 1.366 . S
C18 H32 0.930 . S
C19 C16 1.378 . S
C19 N20 1.315 . S
C19 H22 0.930 . S
N20 Co0 2.194 . S
N20 C15 1.328 . S
N20 C19 1.315 . S
H21 C15 0.929 . S
H22 C19 0.930 . S
H23 C11 0.929 . S
H24 C13 0.929 . S
O25 Co0 2.351 . S
O25 C28 1.244 . S
O26 Co0 2.155 . S
O26 C28 1.240 . S
O27 Co0 2.096 . S
O27 C8 1.247 . S
C28 O25 1.244 . S
C28 O26 1.240 . S
H29 C3 0.931 . S
H30 C12 0.931 . S
H31 C16 0.929 . S
H32 C18 0.930 . S
Co33 N37 2.148 . S
Co33 N43 2.128 1_455 S
Co33 N53 2.194 . S
Co33 O58 2.351 1_455 S
Co33 O59 2.155 . S
Co33 O60 2.096 . S
C34 N37 1.301 . S
C34 N38 1.328 . S
C34 H39 0.930 . S
C35 C36 1.333 . S
C35 N37 1.317 . S
C35 H40 0.930 . S
C36 C35 1.333 . S
C36 N38 1.350 . S
C36 H62 0.931 . S
N37 Co33 2.148 . S
N37 C34 1.301 . S
N37 C35 1.317 . S
N38 C34 1.328 . S
N38 C36 1.350 . S
H39 C34 0.930 . S
H40 C35 0.930 . S
C41 O42 1.224 . S
C41 O60 1.247 . S
O42 C41 1.224 . S
N43 Co33 2.128 1_655 S
N43 C44 1.355 . S
N43 C46 1.311 . S
C44 N43 1.355 . S
C44 C45 1.363 . S
C44 H56 0.929 . S
C45 C44 1.363 . S
C45 N47 1.375 . S
C45 H63 0.931 . S
C46 N43 1.311 . S
C46 N47 1.347 . S
C46 H57 0.929 1_655 S
N47 C45 1.375 . S
N47 C46 1.347 . S
C48 C51 1.365 . S
C48 N53 1.328 1_655 S
C48 H54 0.929 . S
C49 C50 1.362 1_455 S
C49 C52 1.378 . S
C49 H64 0.929 . S
C50 C49 1.362 1_655 S
C50 C51 1.366 . S
C51 C48 1.365 . S
C51 C50 1.366 . S
C51 H65 0.930 . S
C52 C49 1.378 . S
C52 N53 1.315 . S
C52 H55 0.930 . S
N53 Co33 2.194 . S
N53 C48 1.328 1_455 S
N53 C52 1.315 . S
H54 C48 0.929 . S
H55 C52 0.930 . S
H56 C44 0.929 . S
H57 C46 0.929 1_455 S
O58 Co33 2.351 1_655 S
O58 C61 1.244 . S
O59 Co33 2.155 . S
O59 C61 1.240 1_455 S
O60 Co33 2.096 . S
O60 C41 1.247 . S
C61 O58 1.244 . S
C61 O59 1.240 1_655 S
H62 C36 0.931 . S
H63 C45 0.931 . S
H64 C49 0.929 . S
H65 C51 0.930 . S
Co66 N70 2.148 . S
Co66 N76 2.128 . S
Co66 N86 2.194 . S
Co66 O91 2.351 . S
Co66 O92 2.155 . S
Co66 O93 2.096 . S
C67 N70 1.301 . S
C67 N71 1.328 . S
C67 H72 0.930 . S
C68 C69 1.333 . S
C68 N70 1.317 . S
C68 H73 0.930 . S
C69 C68 1.333 . S
C69 N71 1.350 . S
C69 H95 0.931 . S
N70 Co66 2.148 . S
N70 C67 1.301 . S
N70 C68 1.317 . S
N71 C67 1.328 . S
N71 C69 1.350 . S
H72 C67 0.930 . S
H73 C68 0.930 . S
C74 O75 1.224 . S
C74 O93 1.247 . S
O75 C74 1.224 . S
N76 Co66 2.128 . S
N76 C77 1.355 . S
N76 C79 1.311 . S
C77 N76 1.355 . S
C77 C78 1.363 . S
C77 H89 0.929 . S
C78 C77 1.363 . S
C78 N80 1.375 . S
C78 H96 0.931 . S
C79 N76 1.311 . S
C79 N80 1.347 . S
C79 H90 0.929 . S
N80 C78 1.375 . S
N80 C79 1.347 . S
C81 C84 1.365 . S
C81 N86 1.328 . S
C81 H87 0.929 . S
C82 C83 1.362 . S
C82 C85 1.378 . S
C82 H97 0.929 . S
C83 C82 1.362 . S
C83 C84 1.366 . S
C84 C81 1.365 . S
C84 C83 1.366 . S
C84 H98 0.930 . S
C85 C82 1.378 . S
C85 N86 1.315 . S
C85 H88 0.930 . S
N86 Co66 2.194 . S
N86 C81 1.328 . S
N86 C85 1.315 . S
H87 C81 0.929 . S
H88 C85 0.930 . S
H89 C77 0.929 . S
H90 C79 0.929 . S
O91 Co66 2.351 . S
O91 C94 1.244 . S
O92 Co66 2.155 . S
O92 C94 1.240 . S
O93 Co66 2.096 . S
O93 C74 1.247 . S
C94 O91 1.244 . S
C94 O92 1.240 . S
H95 C69 0.931 . S
H96 C78 0.931 . S
H97 C82 0.929 . S
H98 C84 0.930 . S
Co99 N103 2.148 1_554 S
Co99 N109 2.128 . S
Co99 N119 2.194 . S
Co99 O124 2.351 1_554 S
Co99 O125 2.155 . S
Co99 O126 2.096 . S
C100 N103 1.301 . S
C100 N104 1.328 . S
C100 H105 0.930 . S
C101 C102 1.333 . S
C101 N103 1.317 . S
C101 H106 0.930 1_556 S
C102 C101 1.333 . S
C102 N104 1.350 . S
C102 H128 0.931 . S
N103 Co99 2.148 1_556 S
N103 C100 1.301 . S
N103 C101 1.317 . S
N104 C100 1.328 . S
N104 C102 1.350 . S
H105 C100 0.930 . S
H106 C101 0.930 1_554 S
C107 O108 1.224 . S
C107 O126 1.247 . S
O108 C107 1.224 . S
N109 Co99 2.128 . S
N109 C110 1.355 . S
N109 C112 1.311 . S
C110 N109 1.355 . S
C110 C111 1.363 . S
C110 H122 0.929 . S
C111 C110 1.363 . S
C111 N113 1.375 . S
C111 H129 0.931 . S
C112 N109 1.311 . S
C112 N113 1.347 . S
C112 H123 0.929 . S
N113 C111 1.375 . S
N113 C112 1.347 . S
C114 C117 1.365 . S
C114 N119 1.328 1_556 S
C114 H120 0.929 . S
C115 C116 1.362 1_554 S
C115 C118 1.378 . S
C115 H130 0.929 . S
C116 C115 1.362 1_556 S
C116 C117 1.366 . S
C117 C114 1.365 . S
C117 C116 1.366 . S
C117 H131 0.930 . S
C118 C115 1.378 . S
C118 N119 1.315 . S
C118 H121 0.930 . S
N119 Co99 2.194 . S
N119 C114 1.328 1_554 S
N119 C118 1.315 . S
H120 C114 0.929 . S
H121 C118 0.930 . S
H122 C110 0.929 . S
H123 C112 0.929 . S
O124 Co99 2.351 1_556 S
O124 C127 1.244 . S
O125 Co99 2.155 . S
O125 C127 1.240 1_554 S
O126 Co99 2.096 . S
O126 C107 1.247 . S
C127 O124 1.244 . S
C127 O125 1.240 1_556 S
H128 C102 0.931 . S
H129 C111 0.931 . S
H130 C115 0.929 . S
H131 C117 0.930 . S
Co132 N136 2.148 . S
Co132 N142 2.128 . S
Co132 N152 2.194 . S
Co132 O157 2.351 . S
Co132 O158 2.155 . S
Co132 O159 2.096 . S
C133 N136 1.301 . S
C133 N137 1.328 . S
C133 H138 0.930 . S
C134 C135 1.333 . S
C134 N136 1.317 . S
C134 H139 0.930 . S
C135 C134 1.333 . S
C135 N137 1.350 . S
C135 H161 0.931 . S
N136 Co132 2.148 . S
N136 C133 1.301 . S
N136 C134 1.317 . S
N137 C133 1.328 . S
N137 C135 1.350 . S
H138 C133 0.930 . S
H139 C134 0.930 . S
C140 O141 1.224 . S
C140 O159 1.247 . S
O141 C140 1.224 . S
N142 Co132 2.128 . S
N142 C143 1.355 . S
N142 C145 1.311 . S
C143 N142 1.355 . S
C143 C144 1.363 . S
C143 H155 0.929 . S
C144 C143 1.363 . S
C144 N146 1.375 . S
C144 H162 0.931 . S
C145 N142 1.311 . S
C145 N146 1.347 . S
C145 H156 0.929 . S
N146 C144 1.375 . S
N146 C145 1.347 . S
C147 C150 1.365 . S
C147 N152 1.328 . S
C147 H153 0.929 . S
C148 C149 1.362 . S
C148 C151 1.378 . S
C148 H163 0.929 . S
C149 C148 1.362 . S
C149 C150 1.366 . S
C150 C147 1.365 . S
C150 C149 1.366 . S
C150 H164 0.930 . S
C151 C148 1.378 . S
C151 N152 1.315 . S
C151 H154 0.930 . S
N152 Co132 2.194 . S
N152 C147 1.328 . S
N152 C151 1.315 . S
H153 C147 0.929 . S
H154 C151 0.930 . S
H155 C143 0.929 . S
H156 C145 0.929 . S
O157 Co132 2.351 . S
O157 C160 1.244 . S
O158 Co132 2.155 . S
O158 C160 1.240 . S
O159 Co132 2.096 . S
O159 C140 1.247 . S
C160 O157 1.244 . S
C160 O158 1.240 . S
H161 C135 0.931 . S
H162 C144 0.931 . S
H163 C148 0.929 . S
H164 C150 0.930 . S
Co165 N169 2.148 . S
Co165 N175 2.128 . S
Co165 N185 2.194 . S
Co165 O190 2.351 . S
Co165 O191 2.155 . S
Co165 O192 2.096 . S
C166 N169 1.301 . S
C166 N170 1.328 . S
C166 H171 0.930 . S
C167 C168 1.333 . S
C167 N169 1.317 . S
C167 H172 0.930 . S
C168 C167 1.333 . S
C168 N170 1.350 . S
C168 H194 0.931 . S
N169 Co165 2.148 . S
N169 C166 1.301 . S
N169 C167 1.317 . S
N170 C166 1.328 . S
N170 C168 1.350 . S
H171 C166 0.930 . S
H172 C167 0.930 . S
C173 O174 1.224 . S
C173 O192 1.247 . S
O174 C173 1.224 . S
N175 Co165 2.128 . S
N175 C176 1.355 . S
N175 C178 1.311 . S
C176 N175 1.355 . S
C176 C177 1.363 . S
C176 H188 0.929 . S
C177 C176 1.363 . S
C177 N179 1.375 . S
C177 H195 0.931 . S
C178 N175 1.311 . S
C178 N179 1.347 . S
C178 H189 0.929 . S
N179 C177 1.375 . S
N179 C178 1.347 . S
C180 C183 1.365 . S
C180 N185 1.328 . S
C180 H186 0.929 . S
C181 C182 1.362 . S
C181 C184 1.378 . S
C181 H196 0.929 . S
C182 C181 1.362 . S
C182 C183 1.366 . S
C183 C180 1.365 . S
C183 C182 1.366 . S
C183 H197 0.930 . S
C184 C181 1.378 . S
C184 N185 1.315 . S
C184 H187 0.930 . S
N185 Co165 2.194 . S
N185 C180 1.328 . S
N185 C184 1.315 . S
H186 C180 0.929 . S
H187 C184 0.930 . S
H188 C176 0.929 . S
H189 C178 0.929 . S
O190 Co165 2.351 . S
O190 C193 1.244 . S
O191 Co165 2.155 . S
O191 C193 1.240 . S
O192 Co165 2.096 . S
O192 C173 1.247 . S
C193 O190 1.244 . S
C193 O191 1.240 . S
H194 C168 0.931 . S
H195 C177 0.931 . S
H196 C181 0.929 . S
H197 C183 0.930 . S
Co198 N202 2.148 . S
Co198 N208 2.128 . S
Co198 N218 2.194 . S
Co198 O223 2.351 . S
Co198 O224 2.155 . S
Co198 O225 2.096 . S
C199 N202 1.301 . S
C199 N203 1.328 . S
C199 H204 0.930 . S
C200 C201 1.333 . S
C200 N202 1.317 . S
C200 H205 0.930 . S
C201 C200 1.333 . S
C201 N203 1.350 . S
C201 H227 0.931 . S
N202 Co198 2.148 . S
N202 C199 1.301 . S
N202 C200 1.317 . S
N203 C199 1.328 . S
N203 C201 1.350 . S
H204 C199 0.930 . S
H205 C200 0.930 . S
C206 O207 1.224 . S
C206 O225 1.247 . S
O207 C206 1.224 . S
N208 Co198 2.128 . S
N208 C209 1.355 . S
N208 C211 1.311 . S
C209 N208 1.355 . S
C209 C210 1.363 . S
C209 H221 0.929 . S
C210 C209 1.363 . S
C210 N212 1.375 . S
C210 H228 0.931 . S
C211 N208 1.311 . S
C211 N212 1.347 . S
C211 H222 0.929 . S
N212 C210 1.375 . S
N212 C211 1.347 . S
C213 C216 1.365 . S
C213 N218 1.328 . S
C213 H219 0.929 . S
C214 C215 1.362 . S
C214 C217 1.378 . S
C214 H229 0.929 . S
C215 C214 1.362 . S
C215 C216 1.366 . S
C216 C213 1.365 . S
C216 C215 1.366 . S
C216 H230 0.930 . S
C217 C214 1.378 . S
C217 N218 1.315 . S
C217 H220 0.930 . S
N218 Co198 2.194 . S
N218 C213 1.328 . S
N218 C217 1.315 . S
H219 C213 0.929 . S
H220 C217 0.930 . S
H221 C209 0.929 . S
H222 C211 0.929 . S
O223 Co198 2.351 . S
O223 C226 1.244 . S
O224 Co198 2.155 . S
O224 C226 1.240 . S
O225 Co198 2.096 . S
O225 C206 1.247 . S
C226 O223 1.244 . S
C226 O224 1.240 . S
H227 C201 0.931 . S
H228 C210 0.931 . S
H229 C214 0.929 . S
H230 C216 0.930 . S
Co231 N235 2.148 1_556 S
Co231 N241 2.128 1_455 S
Co231 N251 2.194 . S
Co231 O256 2.351 1_456 S
Co231 O257 2.155 . S
Co231 O258 2.096 . S
C232 N235 1.301 . S
C232 N236 1.328 . S
C232 H237 0.930 . S
C233 C234 1.333 . S
C233 N235 1.317 . S
C233 H238 0.930 1_554 S
C234 C233 1.333 . S
C234 N236 1.350 . S
C234 H260 0.931 . S
N235 Co231 2.148 1_554 S
N235 C232 1.301 . S
N235 C233 1.317 . S
N236 C232 1.328 . S
N236 C234 1.350 . S
H237 C232 0.930 . S
H238 C233 0.930 1_556 S
C239 O240 1.224 . S
C239 O258 1.247 . S
O240 C239 1.224 . S
N241 Co231 2.128 1_655 S
N241 C242 1.355 . S
N241 C244 1.311 . S
C242 N241 1.355 . S
C242 C243 1.363 . S
C242 H254 0.929 . S
C243 C242 1.363 . S
C243 N245 1.375 . S
C243 H261 0.931 . S
C244 N241 1.311 . S
C244 N245 1.347 . S
C244 H255 0.929 1_655 S
N245 C243 1.375 . S
N245 C244 1.347 . S
C246 C249 1.365 . S
C246 N251 1.328 1_654 S
C246 H252 0.929 . S
C247 C248 1.362 1_456 S
C247 C250 1.378 . S
C247 H262 0.929 . S
C248 C247 1.362 1_654 S
C248 C249 1.366 . S
C249 C246 1.365 . S
C249 C248 1.366 . S
C249 H263 0.930 . S
C250 C247 1.378 . S
C250 N251 1.315 . S
C250 H253 0.930 . S
N251 Co231 2.194 . S
N251 C246 1.328 1_456 S
N251 C250 1.315 . S
H252 C246 0.929 . S
H253 C250 0.930 . S
H254 C242 0.929 . S
H255 C244 0.929 1_455 S
O256 Co231 2.351 1_654 S
O256 C259 1.244 . S
O257 Co231 2.155 . S
O257 C259 1.240 1_456 S
O258 Co231 2.096 . S
O258 C239 1.247 . S
C259 O256 1.244 . S
C259 O257 1.240 1_654 S
H260 C234 0.931 . S
H261 C243 0.931 . S
H262 C247 0.929 . S
H263 C249 0.930 . S
Co264 N268 2.148 . S
Co264 N274 2.128 . S
Co264 N284 2.194 . S
Co264 O289 2.351 . S
Co264 O290 2.155 . S
Co264 O291 2.096 . S
C265 N268 1.301 . S
C265 N269 1.328 . S
C265 H270 0.930 . S
C266 C267 1.333 . S
C266 N268 1.317 . S
C266 H271 0.930 . S
C267 C266 1.333 . S
C267 N269 1.350 . S
C267 H293 0.931 . S
N268 Co264 2.148 . S
N268 C265 1.301 . S
N268 C266 1.317 . S
N269 C265 1.328 . S
N269 C267 1.350 . S
H270 C265 0.930 . S
H271 C266 0.930 . S
C272 O273 1.224 . S
C272 O291 1.247 . S
O273 C272 1.224 . S
N274 Co264 2.128 . S
N274 C275 1.355 . S
N274 C277 1.311 . S
C275 N274 1.355 . S
C275 C276 1.363 . S
C275 H287 0.929 . S
C276 C275 1.363 . S
C276 N278 1.375 . S
C276 H294 0.931 . S
C277 N274 1.311 . S
C277 N278 1.347 . S
C277 H288 0.929 . S
N278 C276 1.375 . S
N278 C277 1.347 . S
C279 C282 1.365 . S
C279 N284 1.328 . S
C279 H285 0.929 . S
C280 C281 1.362 . S
C280 C283 1.378 . S
C280 H295 0.929 . S
C281 C280 1.362 . S
C281 C282 1.366 . S
C282 C279 1.365 . S
C282 C281 1.366 . S
C282 H296 0.930 . S
C283 C280 1.378 . S
C283 N284 1.315 . S
C283 H286 0.930 . S
N284 Co264 2.194 . S
N284 C279 1.328 . S
N284 C283 1.315 . S
H285 C279 0.929 . S
H286 C283 0.930 . S
H287 C275 0.929 . S
H288 C277 0.929 . S
O289 Co264 2.351 . S
O289 C292 1.244 . S
O290 Co264 2.155 . S
O290 C292 1.240 . S
O291 Co264 2.096 . S
O291 C272 1.247 . S
C292 O289 1.244 . S
C292 O290 1.240 . S
H293 C267 0.931 . S
H294 C276 0.931 . S
H295 C280 0.929 . S
H296 C282 0.930 . S
Co297 N301 2.148 . S
Co297 N307 2.128 1_655 S
Co297 N317 2.194 . S
Co297 O322 2.351 1_655 S
Co297 O323 2.155 . S
Co297 O324 2.096 . S
C298 N301 1.301 . S
C298 N302 1.328 . S
C298 H303 0.930 . S
C299 C300 1.333 . S
C299 N301 1.317 . S
C299 H304 0.930 . S
C300 C299 1.333 . S
C300 N302 1.350 . S
C300 H326 0.931 . S
N301 Co297 2.148 . S
N301 C298 1.301 . S
N301 C299 1.317 . S
N302 C298 1.328 . S
N302 C300 1.350 . S
H303 C298 0.930 . S
H304 C299 0.930 . S
C305 O306 1.224 . S
C305 O324 1.247 . S
O306 C305 1.224 . S
N307 Co297 2.128 1_455 S
N307 C308 1.355 . S
N307 C310 1.311 . S
C308 N307 1.355 . S
C308 C309 1.363 . S
C308 H320 0.929 . S
C309 C308 1.363 . S
C309 N311 1.375 . S
C309 H327 0.931 . S
C310 N307 1.311 . S
C310 N311 1.347 . S
C310 H321 0.929 1_455 S
N311 C309 1.375 . S
N311 C310 1.347 . S
C312 C315 1.365 . S
C312 N317 1.328 1_455 S
C312 H318 0.929 . S
C313 C314 1.362 1_655 S
C313 C316 1.378 . S
C313 H328 0.929 . S
C314 C313 1.362 1_455 S
C314 C315 1.366 . S
C315 C312 1.365 . S
C315 C314 1.366 . S
C315 H329 0.930 . S
C316 C313 1.378 . S
C316 N317 1.315 . S
C316 H319 0.930 . S
N317 Co297 2.194 . S
N317 C312 1.328 1_655 S
N317 C316 1.315 . S
H318 C312 0.929 . S
H319 C316 0.930 . S
H320 C308 0.929 . S
H321 C310 0.929 1_655 S
O322 Co297 2.351 1_455 S
O322 C325 1.244 . S
O323 Co297 2.155 . S
O323 C325 1.240 1_655 S
O324 Co297 2.096 . S
O324 C305 1.247 . S
C325 O322 1.244 . S
C325 O323 1.240 1_455 S
H326 C300 0.931 . S
H327 C309 0.931 . S
H328 C313 0.929 . S
H329 C315 0.930 . S
Co330 N334 2.148 . S
Co330 N340 2.128 . S
Co330 N350 2.194 . S
Co330 O355 2.351 . S
Co330 O356 2.155 . S
Co330 O357 2.096 . S
C331 N334 1.301 . S
C331 N335 1.328 . S
C331 H336 0.930 . S
C332 C333 1.333 . S
C332 N334 1.317 . S
C332 H337 0.930 . S
C333 C332 1.333 . S
C333 N335 1.350 . S
C333 H359 0.931 . S
N334 Co330 2.148 . S
N334 C331 1.301 . S
N334 C332 1.317 . S
N335 C331 1.328 . S
N335 C333 1.350 . S
H336 C331 0.930 . S
H337 C332 0.930 . S
C338 O339 1.224 . S
C338 O357 1.247 . S
O339 C338 1.224 . S
N340 Co330 2.128 . S
N340 C341 1.355 . S
N340 C343 1.311 . S
C341 N340 1.355 . S
C341 C342 1.363 . S
C341 H353 0.929 . S
C342 C341 1.363 . S
C342 N344 1.375 . S
C342 H360 0.931 . S
C343 N340 1.311 . S
C343 N344 1.347 . S
C343 H354 0.929 . S
N344 C342 1.375 . S
N344 C343 1.347 . S
C345 C348 1.365 . S
C345 N350 1.328 . S
C345 H351 0.929 . S
C346 C347 1.362 . S
C346 C349 1.378 . S
C346 H361 0.929 . S
C347 C346 1.362 . S
C347 C348 1.366 . S
C348 C345 1.365 . S
C348 C347 1.366 . S
C348 H362 0.930 . S
C349 C346 1.378 . S
C349 N350 1.315 . S
C349 H352 0.930 . S
N350 Co330 2.194 . S
N350 C345 1.328 . S
N350 C349 1.315 . S
H351 C345 0.929 . S
H352 C349 0.930 . S
H353 C341 0.929 . S
H354 C343 0.929 . S
O355 Co330 2.351 . S
O355 C358 1.244 . S
O356 Co330 2.155 . S
O356 C358 1.240 . S
O357 Co330 2.096 . S
O357 C338 1.247 . S
C358 O355 1.244 . S
C358 O356 1.240 . S
H359 C333 0.931 . S
H360 C342 0.931 . S
H361 C346 0.929 . S
H362 C348 0.930 . S
Co363 N367 2.148 1_556 S
Co363 N373 2.128 . S
Co363 N383 2.194 . S
Co363 O388 2.351 1_556 S
Co363 O389 2.155 . S
Co363 O390 2.096 . S
C364 N367 1.301 . S
C364 N368 1.328 . S
C364 H369 0.930 . S
C365 C366 1.333 . S
C365 N367 1.317 . S
C365 H370 0.930 1_554 S
C366 C365 1.333 . S
C366 N368 1.350 . S
C366 H392 0.931 . S
N367 Co363 2.148 1_554 S
N367 C364 1.301 . S
N367 C365 1.317 . S
N368 C364 1.328 . S
N368 C366 1.350 . S
H369 C364 0.930 . S
H370 C365 0.930 1_556 S
C371 O372 1.224 . S
C371 O390 1.247 . S
O372 C371 1.224 . S
N373 Co363 2.128 . S
N373 C374 1.355 . S
N373 C376 1.311 . S
C374 N373 1.355 . S
C374 C375 1.363 . S
C374 H386 0.929 . S
C375 C374 1.363 . S
C375 N377 1.375 . S
C375 H393 0.931 . S
C376 N373 1.311 . S
C376 N377 1.347 . S
C376 H387 0.929 . S
N377 C375 1.375 . S
N377 C376 1.347 . S
C378 C381 1.365 . S
C378 N383 1.328 1_554 S
C378 H384 0.929 . S
C379 C380 1.362 1_556 S
C379 C382 1.378 . S
C379 H394 0.929 . S
C380 C379 1.362 1_554 S
C380 C381 1.366 . S
C381 C378 1.365 . S
C381 C380 1.366 . S
C381 H395 0.930 . S
C382 C379 1.378 . S
C382 N383 1.315 . S
C382 H385 0.930 . S
N383 Co363 2.194 . S
N383 C378 1.328 1_556 S
N383 C382 1.315 . S
H384 C378 0.929 . S
H385 C382 0.930 . S
H386 C374 0.929 . S
H387 C376 0.929 . S
O388 Co363 2.351 1_554 S
O388 C391 1.244 . S
O389 Co363 2.155 . S
O389 C391 1.240 1_556 S
O390 Co363 2.096 . S
O390 C371 1.247 . S
C391 O388 1.244 . S
C391 O389 1.240 1_554 S
H392 C366 0.931 . S
H393 C375 0.931 . S
H394 C379 0.929 . S
H395 C381 0.930 . S
Co396 N400 2.148 . S
Co396 N406 2.128 . S
Co396 N416 2.194 . S
Co396 O421 2.351 . S
Co396 O422 2.155 . S
Co396 O423 2.096 . S
C397 N400 1.301 . S
C397 N401 1.328 . S
C397 H402 0.930 . S
C398 C399 1.333 . S
C398 N400 1.317 . S
C398 H403 0.930 . S
C399 C398 1.333 . S
C399 N401 1.350 . S
C399 H425 0.931 . S
N400 Co396 2.148 . S
N400 C397 1.301 . S
N400 C398 1.317 . S
N401 C397 1.328 . S
N401 C399 1.350 . S
H402 C397 0.930 . S
H403 C398 0.930 . S
C404 O405 1.224 . S
C404 O423 1.247 . S
O405 C404 1.224 . S
N406 Co396 2.128 . S
N406 C407 1.355 . S
N406 C409 1.311 . S
C407 N406 1.355 . S
C407 C408 1.363 . S
C407 H419 0.929 . S
C408 C407 1.363 . S
C408 N410 1.375 . S
C408 H426 0.931 . S
C409 N406 1.311 . S
C409 N410 1.347 . S
C409 H420 0.929 . S
N410 C408 1.375 . S
N410 C409 1.347 . S
C411 C414 1.365 . S
C411 N416 1.328 . S
C411 H417 0.929 . S
C412 C413 1.362 . S
C412 C415 1.378 . S
C412 H427 0.929 . S
C413 C412 1.362 . S
C413 C414 1.366 . S
C414 C411 1.365 . S
C414 C413 1.366 . S
C414 H428 0.930 . S
C415 C412 1.378 . S
C415 N416 1.315 . S
C415 H418 0.930 . S
N416 Co396 2.194 . S
N416 C411 1.328 . S
N416 C415 1.315 . S
H417 C411 0.929 . S
H418 C415 0.930 . S
H419 C407 0.929 . S
H420 C409 0.929 . S
O421 Co396 2.351 . S
O421 C424 1.244 . S
O422 Co396 2.155 . S
O422 C424 1.240 . S
O423 Co396 2.096 . S
O423 C404 1.247 . S
C424 O421 1.244 . S
C424 O422 1.240 . S
H425 C399 0.931 . S
H426 C408 0.931 . S
H427 C412 0.929 . S
H428 C414 0.930 . S
Co429 N433 2.148 . S
Co429 N439 2.128 . S
Co429 N449 2.194 . S
Co429 O454 2.351 . S
Co429 O455 2.155 . S
Co429 O456 2.096 . S
C430 N433 1.301 . S
C430 N434 1.328 . S
C430 H435 0.930 . S
C431 C432 1.333 . S
C431 N433 1.317 . S
C431 H436 0.930 . S
C432 C431 1.333 . S
C432 N434 1.350 . S
C432 H458 0.931 . S
N433 Co429 2.148 . S
N433 C430 1.301 . S
N433 C431 1.317 . S
N434 C430 1.328 . S
N434 C432 1.350 . S
H435 C430 0.930 . S
H436 C431 0.930 . S
C437 O438 1.224 . S
C437 O456 1.247 . S
O438 C437 1.224 . S
N439 Co429 2.128 . S
N439 C440 1.355 . S
N439 C442 1.311 . S
C440 N439 1.355 . S
C440 C441 1.363 . S
C440 H452 0.929 . S
C441 C440 1.363 . S
C441 N443 1.375 . S
C441 H459 0.931 . S
C442 N439 1.311 . S
C442 N443 1.347 . S
C442 H453 0.929 . S
N443 C441 1.375 . S
N443 C442 1.347 . S
C444 C447 1.365 . S
C444 N449 1.328 . S
C444 H450 0.929 . S
C445 C446 1.362 . S
C445 C448 1.378 . S
C445 H460 0.929 . S
C446 C445 1.362 . S
C446 C447 1.366 . S
C447 C444 1.365 . S
C447 C446 1.366 . S
C447 H461 0.930 . S
C448 C445 1.378 . S
C448 N449 1.315 . S
C448 H451 0.930 . S
N449 Co429 2.194 . S
N449 C444 1.328 . S
N449 C448 1.315 . S
H450 C444 0.929 . S
H451 C448 0.930 . S
H452 C440 0.929 . S
H453 C442 0.929 . S
O454 Co429 2.351 . S
O454 C457 1.244 . S
O455 Co429 2.155 . S
O455 C457 1.240 . S
O456 Co429 2.096 . S
O456 C437 1.247 . S
C457 O454 1.244 . S
C457 O455 1.240 . S
H458 C432 0.931 . S
H459 C441 0.931 . S
H460 C445 0.929 . S
H461 C447 0.930 . S
Co462 N466 2.148 . S
Co462 N472 2.128 . S
Co462 N482 2.194 . S
Co462 O487 2.351 . S
Co462 O488 2.155 . S
Co462 O489 2.096 . S
C463 N466 1.301 . S
C463 N467 1.328 . S
C463 H468 0.930 . S
C464 C465 1.333 . S
C464 N466 1.317 . S
C464 H469 0.930 . S
C465 C464 1.333 . S
C465 N467 1.350 . S
C465 H491 0.931 . S
N466 Co462 2.148 . S
N466 C463 1.301 . S
N466 C464 1.317 . S
N467 C463 1.328 . S
N467 C465 1.350 . S
H468 C463 0.930 . S
H469 C464 0.930 . S
C470 O471 1.224 . S
C470 O489 1.247 . S
O471 C470 1.224 . S
N472 Co462 2.128 . S
N472 C473 1.355 . S
N472 C475 1.311 . S
C473 N472 1.355 . S
C473 C474 1.363 . S
C473 H485 0.929 . S
C474 C473 1.363 . S
C474 N476 1.375 . S
C474 H492 0.931 . S
C475 N472 1.311 . S
C475 N476 1.347 . S
C475 H486 0.929 . S
N476 C474 1.375 . S
N476 C475 1.347 . S
C477 C480 1.365 . S
C477 N482 1.328 . S
C477 H483 0.929 . S
C478 C479 1.362 . S
C478 C481 1.378 . S
C478 H493 0.929 . S
C479 C478 1.362 . S
C479 C480 1.366 . S
C480 C477 1.365 . S
C480 C479 1.366 . S
C480 H494 0.930 . S
C481 C478 1.378 . S
C481 N482 1.315 . S
C481 H484 0.930 . S
N482 Co462 2.194 . S
N482 C477 1.328 . S
N482 C481 1.315 . S
H483 C477 0.929 . S
H484 C481 0.930 . S
H485 C473 0.929 . S
H486 C475 0.929 . S
O487 Co462 2.351 . S
O487 C490 1.244 . S
O488 Co462 2.155 . S
O488 C490 1.240 . S
O489 Co462 2.096 . S
O489 C470 1.247 . S
C490 O487 1.244 . S
C490 O488 1.240 . S
H491 C465 0.931 . S
H492 C474 0.931 . S
H493 C478 0.929 . S
H494 C480 0.930 . S
Co495 N499 2.148 1_554 S
Co495 N505 2.128 1_655 S
Co495 N515 2.194 . S
Co495 O520 2.351 1_654 S
Co495 O521 2.155 . S
Co495 O522 2.096 . S
C496 N499 1.301 . S
C496 N500 1.328 . S
C496 H501 0.930 . S
C497 C498 1.333 . S
C497 N499 1.317 . S
C497 H502 0.930 1_556 S
C498 C497 1.333 . S
C498 N500 1.350 . S
C498 H524 0.931 . S
N499 Co495 2.148 1_556 S
N499 C496 1.301 . S
N499 C497 1.317 . S
N500 C496 1.328 . S
N500 C498 1.350 . S
H501 C496 0.930 . S
H502 C497 0.930 1_554 S
C503 O504 1.224 . S
C503 O522 1.247 . S
O504 C503 1.224 . S
N505 Co495 2.128 1_455 S
N505 C506 1.355 . S
N505 C508 1.311 . S
C506 N505 1.355 . S
C506 C507 1.363 . S
C506 H518 0.929 . S
C507 C506 1.363 . S
C507 N509 1.375 . S
C507 H525 0.931 . S
C508 N505 1.311 . S
C508 N509 1.347 . S
C508 H519 0.929 1_455 S
N509 C507 1.375 . S
N509 C508 1.347 . S
C510 C513 1.365 . S
C510 N515 1.328 1_456 S
C510 H516 0.929 . S
C511 C512 1.362 1_654 S
C511 C514 1.378 . S
C511 H526 0.929 . S
C512 C511 1.362 1_456 S
C512 C513 1.366 . S
C513 C510 1.365 . S
C513 C512 1.366 . S
C513 H527 0.930 . S
C514 C511 1.378 . S
C514 N515 1.315 . S
C514 H517 0.930 . S
N515 Co495 2.194 . S
N515 C510 1.328 1_654 S
N515 C514 1.315 . S
H516 C510 0.929 . S
H517 C514 0.930 . S
H518 C506 0.929 . S
H519 C508 0.929 1_655 S
O520 Co495 2.351 1_456 S
O520 C523 1.244 . S
O521 Co495 2.155 . S
O521 C523 1.240 1_654 S
O522 Co495 2.096 . S
O522 C503 1.247 . S
C523 O520 1.244 . S
C523 O521 1.240 1_456 S
H524 C498 0.931 . S
H525 C507 0.931 . S
H526 C511 0.929 . S
H527 C513 0.930 . S
Co528 N532 2.148 . S
Co528 N538 2.128 . S
Co528 N548 2.194 . S
Co528 O553 2.351 . S
Co528 O554 2.155 . S
Co528 O555 2.096 . S
C529 N532 1.301 . S
C529 N533 1.328 . S
C529 H534 0.930 . S
C530 C531 1.333 . S
C530 N532 1.317 . S
C530 H535 0.930 . S
C531 C530 1.333 . S
C531 N533 1.350 . S
C531 H557 0.931 . S
N532 Co528 2.148 . S
N532 C529 1.301 . S
N532 C530 1.317 . S
N533 C529 1.328 . S
N533 C531 1.350 . S
H534 C529 0.930 . S
H535 C530 0.930 . S
C536 O537 1.224 . S
C536 O555 1.247 . S
O537 C536 1.224 . S
N538 Co528 2.128 . S
N538 C539 1.355 . S
N538 C541 1.311 . S
C539 N538 1.355 . S
C539 C540 1.363 . S
C539 H551 0.929 . S
C540 C539 1.363 . S
C540 N542 1.375 . S
C540 H558 0.931 . S
C541 N538 1.311 . S
C541 N542 1.347 . S
C541 H552 0.929 . S
N542 C540 1.375 . S
N542 C541 1.347 . S
C543 C546 1.365 . S
C543 N548 1.328 . S
C543 H549 0.929 . S
C544 C545 1.362 . S
C544 C547 1.378 . S
C544 H559 0.929 . S
C545 C544 1.362 . S
C545 C546 1.366 . S
C546 C543 1.365 . S
C546 C545 1.366 . S
C546 H560 0.930 . S
C547 C544 1.378 . S
C547 N548 1.315 . S
C547 H550 0.930 . S
N548 Co528 2.194 . S
N548 C543 1.328 . S
N548 C547 1.315 . S
H549 C543 0.929 . S
H550 C547 0.930 . S
H551 C539 0.929 . S
H552 C541 0.929 . S
O553 Co528 2.351 . S
O553 C556 1.244 . S
O554 Co528 2.155 . S
O554 C556 1.240 . S
O555 Co528 2.096 . S
O555 C536 1.247 . S
C556 O553 1.244 . S
C556 O554 1.240 . S
H557 C531 0.931 . S
H558 C540 0.931 . S
H559 C544 0.929 . S
H560 C546 0.930 . S
Co561 N565 2.148 1_554 S
Co561 N571 2.128 . S
Co561 N581 2.194 . S
Co561 O586 2.351 1_554 S
Co561 O587 2.155 . S
Co561 O588 2.096 . S
C562 N565 1.301 . S
C562 N566 1.328 . S
C562 H567 0.930 . S
C563 C564 1.333 . S
C563 N565 1.317 . S
C563 H568 0.930 1_556 S
C564 C563 1.333 . S
C564 N566 1.350 . S
C564 H590 0.931 . S
N565 Co561 2.148 1_556 S
N565 C562 1.301 . S
N565 C563 1.317 . S
N566 C562 1.328 . S
N566 C564 1.350 . S
H567 C562 0.930 . S
H568 C563 0.930 1_554 S
C569 O570 1.224 . S
C569 O588 1.247 . S
O570 C569 1.224 . S
N571 Co561 2.128 . S
N571 C572 1.355 . S
N571 C574 1.311 . S
C572 N571 1.355 . S
C572 C573 1.363 . S
C572 H584 0.929 . S
C573 C572 1.363 . S
C573 N575 1.375 . S
C573 H591 0.931 . S
C574 N571 1.311 . S
C574 N575 1.347 . S
C574 H585 0.929 . S
N575 C573 1.375 . S
N575 C574 1.347 . S
C576 C579 1.365 . S
C576 N581 1.328 1_556 S
C576 H582 0.929 . S
C577 C578 1.362 1_554 S
C577 C580 1.378 . S
C577 H592 0.929 . S
C578 C577 1.362 1_556 S
C578 C579 1.366 . S
C579 C576 1.365 . S
C579 C578 1.366 . S
C579 H593 0.930 . S
C580 C577 1.378 . S
C580 N581 1.315 . S
C580 H583 0.930 . S
N581 Co561 2.194 . S
N581 C576 1.328 1_554 S
N581 C580 1.315 . S
H582 C576 0.929 . S
H583 C580 0.930 . S
H584 C572 0.929 . S
H585 C574 0.929 . S
O586 Co561 2.351 1_556 S
O586 C589 1.244 . S
O587 Co561 2.155 . S
O587 C589 1.240 1_554 S
O588 Co561 2.096 . S
O588 C569 1.247 . S
C589 O586 1.244 . S
C589 O587 1.240 1_556 S
H590 C564 0.931 . S
H591 C573 0.931 . S
H592 C577 0.929 . S
H593 C579 0.930 . S
Co594 N598 2.148 . S
Co594 N604 2.128 . S
Co594 N614 2.194 . S
Co594 O619 2.351 . S
Co594 O620 2.155 . S
Co594 O621 2.096 . S
C595 N598 1.301 . S
C595 N599 1.328 . S
C595 H600 0.930 . S
C596 C597 1.333 . S
C596 N598 1.317 . S
C596 H601 0.930 . S
C597 C596 1.333 . S
C597 N599 1.350 . S
C597 H623 0.931 . S
N598 Co594 2.148 . S
N598 C595 1.301 . S
N598 C596 1.317 . S
N599 C595 1.328 . S
N599 C597 1.350 . S
H600 C595 0.930 . S
H601 C596 0.930 . S
C602 O603 1.224 . S
C602 O621 1.247 . S
O603 C602 1.224 . S
N604 Co594 2.128 . S
N604 C605 1.355 . S
N604 C607 1.311 . S
C605 N604 1.355 . S
C605 C606 1.363 . S
C605 H617 0.929 . S
C606 C605 1.363 . S
C606 N608 1.375 . S
C606 H624 0.931 . S
C607 N604 1.311 . S
C607 N608 1.347 . S
C607 H618 0.929 . S
N608 C606 1.375 . S
N608 C607 1.347 . S
C609 C612 1.365 . S
C609 N614 1.328 . S
C609 H615 0.929 . S
C610 C611 1.362 . S
C610 C613 1.378 . S
C610 H625 0.929 . S
C611 C610 1.362 . S
C611 C612 1.366 . S
C612 C609 1.365 . S
C612 C611 1.366 . S
C612 H626 0.930 . S
C613 C610 1.378 . S
C613 N614 1.315 . S
C613 H616 0.930 . S
N614 Co594 2.194 . S
N614 C609 1.328 . S
N614 C613 1.315 . S
H615 C609 0.929 . S
H616 C613 0.930 . S
H617 C605 0.929 . S
H618 C607 0.929 . S
O619 Co594 2.351 . S
O619 C622 1.244 . S
O620 Co594 2.155 . S
O620 C622 1.240 . S
O621 Co594 2.096 . S
O621 C602 1.247 . S
C622 O619 1.244 . S
C622 O620 1.240 . S
H623 C597 0.931 . S
H624 C606 0.931 . S
H625 C610 0.929 . S
H626 C612 0.930 . S
Co627 N631 2.148 . S
Co627 N637 2.128 1_655 S
Co627 N647 2.194 . S
Co627 O652 2.351 1_655 S
Co627 O653 2.155 . S
Co627 O654 2.096 . S
C628 N631 1.301 . S
C628 N632 1.328 . S
C628 H633 0.930 . S
C629 C630 1.333 . S
C629 N631 1.317 . S
C629 H634 0.930 . S
C630 C629 1.333 . S
C630 N632 1.350 . S
C630 H656 0.931 . S
N631 Co627 2.148 . S
N631 C628 1.301 . S
N631 C629 1.317 . S
N632 C628 1.328 . S
N632 C630 1.350 . S
H633 C628 0.930 . S
H634 C629 0.930 . S
C635 O636 1.224 . S
C635 O654 1.247 . S
O636 C635 1.224 . S
N637 Co627 2.128 1_455 S
N637 C638 1.355 . S
N637 C640 1.311 . S
C638 N637 1.355 . S
C638 C639 1.363 . S
C638 H650 0.929 . S
C639 C638 1.363 . S
C639 N641 1.375 . S
C639 H657 0.931 . S
C640 N637 1.311 . S
C640 N641 1.347 . S
C640 H651 0.929 1_455 S
N641 C639 1.375 . S
N641 C640 1.347 . S
C642 C645 1.365 . S
C642 N647 1.328 1_455 S
C642 H648 0.929 . S
C643 C644 1.362 1_655 S
C643 C646 1.378 . S
C643 H658 0.929 . S
C644 C643 1.362 1_455 S
C644 C645 1.366 . S
C645 C642 1.365 . S
C645 C644 1.366 . S
C645 H659 0.930 . S
C646 C643 1.378 . S
C646 N647 1.315 . S
C646 H649 0.930 . S
N647 Co627 2.194 . S
N647 C642 1.328 1_655 S
N647 C646 1.315 . S
H648 C642 0.929 . S
H649 C646 0.930 . S
H650 C638 0.929 . S
H651 C640 0.929 1_655 S
O652 Co627 2.351 1_455 S
O652 C655 1.244 . S
O653 Co627 2.155 . S
O653 C655 1.240 1_655 S
O654 Co627 2.096 . S
O654 C635 1.247 . S
C655 O652 1.244 . S
C655 O653 1.240 1_455 S
H656 C630 0.931 . S
H657 C639 0.931 . S
H658 C643 0.929 . S
H659 C645 0.930 . S
Co660 N664 2.148 . S
Co660 N670 2.128 . S
Co660 N680 2.194 . S
Co660 O685 2.351 . S
Co660 O686 2.155 . S
Co660 O687 2.096 . S
C661 N664 1.301 . S
C661 N665 1.328 . S
C661 H666 0.930 . S
C662 C663 1.333 . S
C662 N664 1.317 . S
C662 H667 0.930 . S
C663 C662 1.333 . S
C663 N665 1.350 . S
C663 H689 0.931 . S
N664 Co660 2.148 . S
N664 C661 1.301 . S
N664 C662 1.317 . S
N665 C661 1.328 . S
N665 C663 1.350 . S
H666 C661 0.930 . S
H667 C662 0.930 . S
C668 O669 1.224 . S
C668 O687 1.247 . S
O669 C668 1.224 . S
N670 Co660 2.128 . S
N670 C671 1.355 . S
N670 C673 1.311 . S
C671 N670 1.355 . S
C671 C672 1.363 . S
C671 H683 0.929 . S
C672 C671 1.363 . S
C672 N674 1.375 . S
C672 H690 0.931 . S
C673 N670 1.311 . S
C673 N674 1.347 . S
C673 H684 0.929 . S
N674 C672 1.375 . S
N674 C673 1.347 . S
C675 C678 1.365 . S
C675 N680 1.328 . S
C675 H681 0.929 . S
C676 C677 1.362 . S
C676 C679 1.378 . S
C676 H691 0.929 . S
C677 C676 1.362 . S
C677 C678 1.366 . S
C678 C675 1.365 . S
C678 C677 1.366 . S
C678 H692 0.930 . S
C679 C676 1.378 . S
C679 N680 1.315 . S
C679 H682 0.930 . S
N680 Co660 2.194 . S
N680 C675 1.328 . S
N680 C679 1.315 . S
H681 C675 0.929 . S
H682 C679 0.930 . S
H683 C671 0.929 . S
H684 C673 0.929 . S
O685 Co660 2.351 . S
O685 C688 1.244 . S
O686 Co660 2.155 . S
O686 C688 1.240 . S
O687 Co660 2.096 . S
O687 C668 1.247 . S
C688 O685 1.244 . S
C688 O686 1.240 . S
H689 C663 0.931 . S
H690 C672 0.931 . S
H691 C676 0.929 . S
H692 C678 0.930 . S
Co693 N697 2.148 1_556 S
Co693 N703 2.128 1_655 S
Co693 N713 2.194 . S
Co693 O718 2.351 1_656 S
Co693 O719 2.155 . S
Co693 O720 2.096 . S
C694 N697 1.301 . S
C694 N698 1.328 . S
C694 H699 0.930 . S
C695 C696 1.333 . S
C695 N697 1.317 . S
C695 H700 0.930 1_554 S
C696 C695 1.333 . S
C696 N698 1.350 . S
C696 H722 0.931 . S
N697 Co693 2.148 1_554 S
N697 C694 1.301 . S
N697 C695 1.317 . S
N698 C694 1.328 . S
N698 C696 1.350 . S
H699 C694 0.930 . S
H700 C695 0.930 1_556 S
C701 O702 1.224 . S
C701 O720 1.247 . S
O702 C701 1.224 . S
N703 Co693 2.128 1_455 S
N703 C704 1.355 . S
N703 C706 1.311 . S
C704 N703 1.355 . S
C704 C705 1.363 . S
C704 H716 0.929 . S
C705 C704 1.363 . S
C705 N707 1.375 . S
C705 H723 0.931 . S
C706 N703 1.311 . S
C706 N707 1.347 . S
C706 H717 0.929 1_455 S
N707 C705 1.375 . S
N707 C706 1.347 . S
C708 C711 1.365 . S
C708 N713 1.328 1_454 S
C708 H714 0.929 . S
C709 C710 1.362 1_656 S
C709 C712 1.378 . S
C709 H724 0.929 . S
C710 C709 1.362 1_454 S
C710 C711 1.366 . S
C711 C708 1.365 . S
C711 C710 1.366 . S
C711 H725 0.930 . S
C712 C709 1.378 . S
C712 N713 1.315 . S
C712 H715 0.930 . S
N713 Co693 2.194 . S
N713 C708 1.328 1_656 S
N713 C712 1.315 . S
H714 C708 0.929 . S
H715 C712 0.930 . S
H716 C704 0.929 . S
H717 C706 0.929 1_655 S
O718 Co693 2.351 1_454 S
O718 C721 1.244 . S
O719 Co693 2.155 . S
O719 C721 1.240 1_656 S
O720 Co693 2.096 . S
O720 C701 1.247 . S
C721 O718 1.244 . S
C721 O719 1.240 1_454 S
H722 C696 0.931 . S
H723 C705 0.931 . S
H724 C709 0.929 . S
H725 C711 0.930 . S
Co726 N730 2.148 . S
Co726 N736 2.128 . S
Co726 N746 2.194 . S
Co726 O751 2.351 . S
Co726 O752 2.155 . S
Co726 O753 2.096 . S
C727 N730 1.301 . S
C727 N731 1.328 . S
C727 H732 0.930 . S
C728 C729 1.333 . S
C728 N730 1.317 . S
C728 H733 0.930 . S
C729 C728 1.333 . S
C729 N731 1.350 . S
C729 H755 0.931 . S
N730 Co726 2.148 . S
N730 C727 1.301 . S
N730 C728 1.317 . S
N731 C727 1.328 . S
N731 C729 1.350 . S
H732 C727 0.930 . S
H733 C728 0.930 . S
C734 O735 1.224 . S
C734 O753 1.247 . S
O735 C734 1.224 . S
N736 Co726 2.128 . S
N736 C737 1.355 . S
N736 C739 1.311 . S
C737 N736 1.355 . S
C737 C738 1.363 . S
C737 H749 0.929 . S
C738 C737 1.363 . S
C738 N740 1.375 . S
C738 H756 0.931 . S
C739 N736 1.311 . S
C739 N740 1.347 . S
C739 H750 0.929 . S
N740 C738 1.375 . S
N740 C739 1.347 . S
C741 C744 1.365 . S
C741 N746 1.328 . S
C741 H747 0.929 . S
C742 C743 1.362 . S
C742 C745 1.378 . S
C742 H757 0.929 . S
C743 C742 1.362 . S
C743 C744 1.366 . S
C744 C741 1.365 . S
C744 C743 1.366 . S
C744 H758 0.930 . S
C745 C742 1.378 . S
C745 N746 1.315 . S
C745 H748 0.930 . S
N746 Co726 2.194 . S
N746 C741 1.328 . S
N746 C745 1.315 . S
H747 C741 0.929 . S
H748 C745 0.930 . S
H749 C737 0.929 . S
H750 C739 0.929 . S
O751 Co726 2.351 . S
O751 C754 1.244 . S
O752 Co726 2.155 . S
O752 C754 1.240 . S
O753 Co726 2.096 . S
O753 C734 1.247 . S
C754 O751 1.244 . S
C754 O752 1.240 . S
H755 C729 0.931 . S
H756 C738 0.931 . S
H757 C742 0.929 . S
H758 C744 0.930 . S
Co759 N763 2.148 . S
Co759 N769 2.128 . S
Co759 N779 2.194 . S
Co759 O784 2.351 . S
Co759 O785 2.155 . S
Co759 O786 2.096 . S
C760 N763 1.301 . S
C760 N764 1.328 . S
C760 H765 0.930 . S
C761 C762 1.333 . S
C761 N763 1.317 . S
C761 H766 0.930 . S
C762 C761 1.333 . S
C762 N764 1.350 . S
C762 H788 0.931 . S
N763 Co759 2.148 . S
N763 C760 1.301 . S
N763 C761 1.317 . S
N764 C760 1.328 . S
N764 C762 1.350 . S
H765 C760 0.930 . S
H766 C761 0.930 . S
C767 O768 1.224 . S
C767 O786 1.247 . S
O768 C767 1.224 . S
N769 Co759 2.128 . S
N769 C770 1.355 . S
N769 C772 1.311 . S
C770 N769 1.355 . S
C770 C771 1.363 . S
C770 H782 0.929 . S
C771 C770 1.363 . S
C771 N773 1.375 . S
C771 H789 0.931 . S
C772 N769 1.311 . S
C772 N773 1.347 . S
C772 H783 0.929 . S
N773 C771 1.375 . S
N773 C772 1.347 . S
C774 C777 1.365 . S
C774 N779 1.328 . S
C774 H780 0.929 . S
C775 C776 1.362 . S
C775 C778 1.378 . S
C775 H790 0.929 . S
C776 C775 1.362 . S
C776 C777 1.366 . S
C777 C774 1.365 . S
C777 C776 1.366 . S
C777 H791 0.930 . S
C778 C775 1.378 . S
C778 N779 1.315 . S
C778 H781 0.930 . S
N779 Co759 2.194 . S
N779 C774 1.328 . S
N779 C778 1.315 . S
H780 C774 0.929 . S
H781 C778 0.930 . S
H782 C770 0.929 . S
H783 C772 0.929 . S
O784 Co759 2.351 . S
O784 C787 1.244 . S
O785 Co759 2.155 . S
O785 C787 1.240 . S
O786 Co759 2.096 . S
O786 C767 1.247 . S
C787 O784 1.244 . S
C787 O785 1.240 . S
H788 C762 0.931 . S
H789 C771 0.931 . S
H790 C775 0.929 . S
H791 C777 0.930 . S
Co792 N796 2.148 . S
Co792 N802 2.128 . S
Co792 N812 2.194 . S
Co792 O817 2.351 . S
Co792 O818 2.155 . S
Co792 O819 2.096 . S
C793 N796 1.301 . S
C793 N797 1.328 . S
C793 H798 0.930 . S
C794 C795 1.333 . S
C794 N796 1.317 . S
C794 H799 0.930 . S
C795 C794 1.333 . S
C795 N797 1.350 . S
C795 H821 0.931 . S
N796 Co792 2.148 . S
N796 C793 1.301 . S
N796 C794 1.317 . S
N797 C793 1.328 . S
N797 C795 1.350 . S
H798 C793 0.930 . S
H799 C794 0.930 . S
C800 O801 1.224 . S
C800 O819 1.247 . S
O801 C800 1.224 . S
N802 Co792 2.128 . S
N802 C803 1.355 . S
N802 C805 1.311 . S
C803 N802 1.355 . S
C803 C804 1.363 . S
C803 H815 0.929 . S
C804 C803 1.363 . S
C804 N806 1.375 . S
C804 H822 0.931 . S
C805 N802 1.311 . S
C805 N806 1.347 . S
C805 H816 0.929 . S
N806 C804 1.375 . S
N806 C805 1.347 . S
C807 C810 1.365 . S
C807 N812 1.328 . S
C807 H813 0.929 . S
C808 C809 1.362 . S
C808 C811 1.378 . S
C808 H823 0.929 . S
C809 C808 1.362 . S
C809 C810 1.366 . S
C810 C807 1.365 . S
C810 C809 1.366 . S
C810 H824 0.930 . S
C811 C808 1.378 . S
C811 N812 1.315 . S
C811 H814 0.930 . S
N812 Co792 2.194 . S
N812 C807 1.328 . S
N812 C811 1.315 . S
H813 C807 0.929 . S
H814 C811 0.930 . S
H815 C803 0.929 . S
H816 C805 0.929 . S
O817 Co792 2.351 . S
O817 C820 1.244 . S
O818 Co792 2.155 . S
O818 C820 1.240 . S
O819 Co792 2.096 . S
O819 C800 1.247 . S
C820 O817 1.244 . S
C820 O818 1.240 . S
H821 C795 0.931 . S
H822 C804 0.931 . S
H823 C808 0.929 . S
H824 C810 0.930 . S
Co825 N829 2.148 1_556 S
Co825 N835 2.128 . S
Co825 N845 2.194 . S
Co825 O850 2.351 1_556 S
Co825 O851 2.155 . S
Co825 O852 2.096 . S
C826 N829 1.301 . S
C826 N830 1.328 . S
C826 H831 0.930 . S
C827 C828 1.333 . S
C827 N829 1.317 . S
C827 H832 0.930 1_554 S
C828 C827 1.333 . S
C828 N830 1.350 . S
C828 H854 0.931 . S
N829 Co825 2.148 1_554 S
N829 C826 1.301 . S
N829 C827 1.317 . S
N830 C826 1.328 . S
N830 C828 1.350 . S
H831 C826 0.930 . S
H832 C827 0.930 1_556 S
C833 O834 1.224 . S
C833 O852 1.247 . S
O834 C833 1.224 . S
N835 Co825 2.128 . S
N835 C836 1.355 . S
N835 C838 1.311 . S
C836 N835 1.355 . S
C836 C837 1.363 . S
C836 H848 0.929 . S
C837 C836 1.363 . S
C837 N839 1.375 . S
C837 H855 0.931 . S
C838 N835 1.311 . S
C838 N839 1.347 . S
C838 H849 0.929 . S
N839 C837 1.375 . S
N839 C838 1.347 . S
C840 C843 1.365 . S
C840 N845 1.328 1_554 S
C840 H846 0.929 . S
C841 C842 1.362 1_556 S
C841 C844 1.378 . S
C841 H856 0.929 . S
C842 C841 1.362 1_554 S
C842 C843 1.366 . S
C843 C840 1.365 . S
C843 C842 1.366 . S
C843 H857 0.930 . S
C844 C841 1.378 . S
C844 N845 1.315 . S
C844 H847 0.930 . S
N845 Co825 2.194 . S
N845 C840 1.328 1_556 S
N845 C844 1.315 . S
H846 C840 0.929 . S
H847 C844 0.930 . S
H848 C836 0.929 . S
H849 C838 0.929 . S
O850 Co825 2.351 1_554 S
O850 C853 1.244 . S
O851 Co825 2.155 . S
O851 C853 1.240 1_556 S
O852 Co825 2.096 . S
O852 C833 1.247 . S
C853 O850 1.244 . S
C853 O851 1.240 1_554 S
H854 C828 0.931 . S
H855 C837 0.931 . S
H856 C841 0.929 . S
H857 C843 0.930 . S
Co858 N862 2.148 . S
Co858 N868 2.128 . S
Co858 N878 2.194 . S
Co858 O883 2.351 . S
Co858 O884 2.155 . S
Co858 O885 2.096 . S
C859 N862 1.301 . S
C859 N863 1.328 . S
C859 H864 0.930 . S
C860 C861 1.333 . S
C860 N862 1.317 . S
C860 H865 0.930 . S
C861 C860 1.333 . S
C861 N863 1.350 . S
C861 H887 0.931 . S
N862 Co858 2.148 . S
N862 C859 1.301 . S
N862 C860 1.317 . S
N863 C859 1.328 . S
N863 C861 1.350 . S
H864 C859 0.930 . S
H865 C860 0.930 . S
C866 O867 1.224 . S
C866 O885 1.247 . S
O867 C866 1.224 . S
N868 Co858 2.128 . S
N868 C869 1.355 . S
N868 C871 1.311 . S
C869 N868 1.355 . S
C869 C870 1.363 . S
C869 H881 0.929 . S
C870 C869 1.363 . S
C870 N872 1.375 . S
C870 H888 0.931 . S
C871 N868 1.311 . S
C871 N872 1.347 . S
C871 H882 0.929 . S
N872 C870 1.375 . S
N872 C871 1.347 . S
C873 C876 1.365 . S
C873 N878 1.328 . S
C873 H879 0.929 . S
C874 C875 1.362 . S
C874 C877 1.378 . S
C874 H889 0.929 . S
C875 C874 1.362 . S
C875 C876 1.366 . S
C876 C873 1.365 . S
C876 C875 1.366 . S
C876 H890 0.930 . S
C877 C874 1.378 . S
C877 N878 1.315 . S
C877 H880 0.930 . S
N878 Co858 2.194 . S
N878 C873 1.328 . S
N878 C877 1.315 . S
H879 C873 0.929 . S
H880 C877 0.930 . S
H881 C869 0.929 . S
H882 C871 0.929 . S
O883 Co858 2.351 . S
O883 C886 1.244 . S
O884 Co858 2.155 . S
O884 C886 1.240 . S
O885 Co858 2.096 . S
O885 C866 1.247 . S
C886 O883 1.244 . S
C886 O884 1.240 . S
H887 C861 0.931 . S
H888 C870 0.931 . S
H889 C874 0.929 . S
H890 C876 0.930 . S
Co891 N895 2.148 . S
Co891 N901 2.128 1_455 S
Co891 N911 2.194 . S
Co891 O916 2.351 1_455 S
Co891 O917 2.155 . S
Co891 O918 2.096 . S
C892 N895 1.301 . S
C892 N896 1.328 . S
C892 H897 0.930 . S
C893 C894 1.333 . S
C893 N895 1.317 . S
C893 H898 0.930 . S
C894 C893 1.333 . S
C894 N896 1.350 . S
C894 H920 0.931 . S
N895 Co891 2.148 . S
N895 C892 1.301 . S
N895 C893 1.317 . S
N896 C892 1.328 . S
N896 C894 1.350 . S
H897 C892 0.930 . S
H898 C893 0.930 . S
C899 O900 1.224 . S
C899 O918 1.247 . S
O900 C899 1.224 . S
N901 Co891 2.128 1_655 S
N901 C902 1.355 . S
N901 C904 1.311 . S
C902 N901 1.355 . S
C902 C903 1.363 . S
C902 H914 0.929 . S
C903 C902 1.363 . S
C903 N905 1.375 . S
C903 H921 0.931 . S
C904 N901 1.311 . S
C904 N905 1.347 . S
C904 H915 0.929 1_655 S
N905 C903 1.375 . S
N905 C904 1.347 . S
C906 C909 1.365 . S
C906 N911 1.328 1_655 S
C906 H912 0.929 . S
C907 C908 1.362 1_455 S
C907 C910 1.378 . S
C907 H922 0.929 . S
C908 C907 1.362 1_655 S
C908 C909 1.366 . S
C909 C906 1.365 . S
C909 C908 1.366 . S
C909 H923 0.930 . S
C910 C907 1.378 . S
C910 N911 1.315 . S
C910 H913 0.930 . S
N911 Co891 2.194 . S
N911 C906 1.328 1_455 S
N911 C910 1.315 . S
H912 C906 0.929 . S
H913 C910 0.930 . S
H914 C902 0.929 . S
H915 C904 0.929 1_455 S
O916 Co891 2.351 1_655 S
O916 C919 1.244 . S
O917 Co891 2.155 . S
O917 C919 1.240 1_455 S
O918 Co891 2.096 . S
O918 C899 1.247 . S
C919 O916 1.244 . S
C919 O917 1.240 1_655 S
H920 C894 0.931 . S
H921 C903 0.931 . S
H922 C907 0.929 . S
H923 C909 0.930 . S
Co924 N928 2.148 . S
Co924 N934 2.128 . S
Co924 N944 2.194 . S
Co924 O949 2.351 . S
Co924 O950 2.155 . S
Co924 O951 2.096 . S
C925 N928 1.301 . S
C925 N929 1.328 . S
C925 H930 0.930 . S
C926 C927 1.333 . S
C926 N928 1.317 . S
C926 H931 0.930 . S
C927 C926 1.333 . S
C927 N929 1.350 . S
C927 H953 0.931 . S
N928 Co924 2.148 . S
N928 C925 1.301 . S
N928 C926 1.317 . S
N929 C925 1.328 . S
N929 C927 1.350 . S
H930 C925 0.930 . S
H931 C926 0.930 . S
C932 O933 1.224 . S
C932 O951 1.247 . S
O933 C932 1.224 . S
N934 Co924 2.128 . S
N934 C935 1.355 . S
N934 C937 1.311 . S
C935 N934 1.355 . S
C935 C936 1.363 . S
C935 H947 0.929 . S
C936 C935 1.363 . S
C936 N938 1.375 . S
C936 H954 0.931 . S
C937 N934 1.311 . S
C937 N938 1.347 . S
C937 H948 0.929 . S
N938 C936 1.375 . S
N938 C937 1.347 . S
C939 C942 1.365 . S
C939 N944 1.328 . S
C939 H945 0.929 . S
C940 C941 1.362 . S
C940 C943 1.378 . S
C940 H955 0.929 . S
C941 C940 1.362 . S
C941 C942 1.366 . S
C942 C939 1.365 . S
C942 C941 1.366 . S
C942 H956 0.930 . S
C943 C940 1.378 . S
C943 N944 1.315 . S
C943 H946 0.930 . S
N944 Co924 2.194 . S
N944 C939 1.328 . S
N944 C943 1.315 . S
H945 C939 0.929 . S
H946 C943 0.930 . S
H947 C935 0.929 . S
H948 C937 0.929 . S
O949 Co924 2.351 . S
O949 C952 1.244 . S
O950 Co924 2.155 . S
O950 C952 1.240 . S
O951 Co924 2.096 . S
O951 C932 1.247 . S
C952 O949 1.244 . S
C952 O950 1.240 . S
H953 C927 0.931 . S
H954 C936 0.931 . S
H955 C940 0.929 . S
H956 C942 0.930 . S
Co957 N961 2.148 1_554 S
Co957 N967 2.128 1_455 S
Co957 N977 2.194 . S
Co957 O982 2.351 1_454 S
Co957 O983 2.155 . S
Co957 O984 2.096 . S
C958 N961 1.301 . S
C958 N962 1.328 . S
C958 H963 0.930 . S
C959 C960 1.333 . S
C959 N961 1.317 . S
C959 H964 0.930 1_556 S
C960 C959 1.333 . S
C960 N962 1.350 . S
C960 H986 0.931 . S
N961 Co957 2.148 1_556 S
N961 C958 1.301 . S
N961 C959 1.317 . S
N962 C958 1.328 . S
N962 C960 1.350 . S
H963 C958 0.930 . S
H964 C959 0.930 1_554 S
C965 O966 1.224 . S
C965 O984 1.247 . S
O966 C965 1.224 . S
N967 Co957 2.128 1_655 S
N967 C968 1.355 . S
N967 C970 1.311 . S
C968 N967 1.355 . S
C968 C969 1.363 . S
C968 H980 0.929 . S
C969 C968 1.363 . S
C969 N971 1.375 . S
C969 H987 0.931 . S
C970 N967 1.311 . S
C970 N971 1.347 . S
C970 H981 0.929 1_655 S
N971 C969 1.375 . S
N971 C970 1.347 . S
C972 C975 1.365 . S
C972 N977 1.328 1_656 S
C972 H978 0.929 . S
C973 C974 1.362 1_454 S
C973 C976 1.378 . S
C973 H988 0.929 . S
C974 C973 1.362 1_656 S
C974 C975 1.366 . S
C975 C972 1.365 . S
C975 C974 1.366 . S
C975 H989 0.930 . S
C976 C973 1.378 . S
C976 N977 1.315 . S
C976 H979 0.930 . S
N977 Co957 2.194 . S
N977 C972 1.328 1_454 S
N977 C976 1.315 . S
H978 C972 0.929 . S
H979 C976 0.930 . S
H980 C968 0.929 . S
H981 C970 0.929 1_455 S
O982 Co957 2.351 1_656 S
O982 C985 1.244 . S
O983 Co957 2.155 . S
O983 C985 1.240 1_454 S
O984 Co957 2.096 . S
O984 C965 1.247 . S
C985 O982 1.244 . S
C985 O983 1.240 1_656 S
H986 C960 0.931 . S
H987 C969 0.931 . S
H988 C973 0.929 . S
H989 C975 0.930 . S
Co990 N994 2.148 . S
Co990 N1000 2.128 . S
Co990 N1010 2.194 . S
Co990 O1015 2.351 . S
Co990 O1016 2.155 . S
Co990 O1017 2.096 . S
C991 N994 1.301 . S
C991 N995 1.328 . S
C991 H996 0.930 . S
C992 C993 1.333 . S
C992 N994 1.317 . S
C992 H997 0.930 . S
C993 C992 1.333 . S
C993 N995 1.350 . S
C993 H1019 0.931 . S
N994 Co990 2.148 . S
N994 C991 1.301 . S
N994 C992 1.317 . S
N995 C991 1.328 . S
N995 C993 1.350 . S
H996 C991 0.930 . S
H997 C992 0.930 . S
C998 O999 1.224 . S
C998 O1017 1.247 . S
O999 C998 1.224 . S
N1000 Co990 2.128 . S
N1000 C1001 1.355 . S
N1000 C1003 1.311 . S
C1001 N1000 1.355 . S
C1001 C1002 1.363 . S
C1001 H1013 0.929 . S
C1002 C1001 1.363 . S
C1002 N1004 1.375 . S
C1002 H1020 0.931 . S
C1003 N1000 1.311 . S
C1003 N1004 1.347 . S
C1003 H1014 0.929 . S
N1004 C1002 1.375 . S
N1004 C1003 1.347 . S
C1005 C1008 1.365 . S
C1005 N1010 1.328 . S
C1005 H1011 0.929 . S
C1006 C1007 1.362 . S
C1006 C1009 1.378 . S
C1006 H1021 0.929 . S
C1007 C1006 1.362 . S
C1007 C1008 1.366 . S
C1008 C1005 1.365 . S
C1008 C1007 1.366 . S
C1008 H1022 0.930 . S
C1009 C1006 1.378 . S
C1009 N1010 1.315 . S
C1009 H1012 0.930 . S
N1010 Co990 2.194 . S
N1010 C1005 1.328 . S
N1010 C1009 1.315 . S
H1011 C1005 0.929 . S
H1012 C1009 0.930 . S
H1013 C1001 0.929 . S
H1014 C1003 0.929 . S
O1015 Co990 2.351 . S
O1015 C1018 1.244 . S
O1016 Co990 2.155 . S
O1016 C1018 1.240 . S
O1017 Co990 2.096 . S
O1017 C998 1.247 . S
C1018 O1015 1.244 . S
C1018 O1016 1.240 . S
H1019 C993 0.931 . S
H1020 C1002 0.931 . S
H1021 C1006 0.929 . S
H1022 C1008 0.930 . S
Co1023 N1027 2.148 . S
Co1023 N1033 2.128 . S
Co1023 N1043 2.194 . S
Co1023 O1048 2.351 . S
Co1023 O1049 2.155 . S
Co1023 O1050 2.096 . S
C1024 N1027 1.301 . S
C1024 N1028 1.328 . S
C1024 H1029 0.930 . S
C1025 C1026 1.333 . S
C1025 N1027 1.317 . S
C1025 H1030 0.930 . S
C1026 C1025 1.333 . S
C1026 N1028 1.350 . S
C1026 H1052 0.931 . S
N1027 Co1023 2.148 . S
N1027 C1024 1.301 . S
N1027 C1025 1.317 . S
N1028 C1024 1.328 . S
N1028 C1026 1.350 . S
H1029 C1024 0.930 . S
H1030 C1025 0.930 . S
C1031 O1032 1.224 . S
C1031 O1050 1.247 . S
O1032 C1031 1.224 . S
N1033 Co1023 2.128 . S
N1033 C1034 1.355 . S
N1033 C1036 1.311 . S
C1034 N1033 1.355 . S
C1034 C1035 1.363 . S
C1034 H1046 0.929 . S
C1035 C1034 1.363 . S
C1035 N1037 1.375 . S
C1035 H1053 0.931 . S
C1036 N1033 1.311 . S
C1036 N1037 1.347 . S
C1036 H1047 0.929 . S
N1037 C1035 1.375 . S
N1037 C1036 1.347 . S
C1038 C1041 1.365 . S
C1038 N1043 1.328 . S
C1038 H1044 0.929 . S
C1039 C1040 1.362 . S
C1039 C1042 1.378 . S
C1039 H1054 0.929 . S
C1040 C1039 1.362 . S
C1040 C1041 1.366 . S
C1041 C1038 1.365 . S
C1041 C1040 1.366 . S
C1041 H1055 0.930 . S
C1042 C1039 1.378 . S
C1042 N1043 1.315 . S
C1042 H1045 0.930 . S
N1043 Co1023 2.194 . S
N1043 C1038 1.328 . S
N1043 C1042 1.315 . S
H1044 C1038 0.929 . S
H1045 C1042 0.930 . S
H1046 C1034 0.929 . S
H1047 C1036 0.929 . S
O1048 Co1023 2.351 . S
O1048 C1051 1.244 . S
O1049 Co1023 2.155 . S
O1049 C1051 1.240 . S
O1050 Co1023 2.096 . S
O1050 C1031 1.247 . S
C1051 O1048 1.244 . S
C1051 O1049 1.240 . S
H1052 C1026 0.931 . S
H1053 C1035 0.931 . S
H1054 C1039 0.929 . S
H1055 C1041 0.930 . S
N236 N5 3.026 . S
N38 N137 3.026 . S
N71 N170 3.026 . S
N203 N104 3.026 . S
N500 N269 3.026 . S
N401 N302 3.026 . S
N335 N434 3.026 . S
N368 N467 3.026 . S
N764 N533 3.026 . S
N566 N665 3.026 . S
N599 N698 3.026 . S
N731 N632 3.026 . S
N1028 N797 3.026 . S
N830 N929 3.026 . S
N962 N863 3.026 . S
N995 N896 3.026 . S
C622 C28 1.546 1_655 S
C655 C61 1.546 1_455 S
C94 C556 1.546 . S
C127 C589 1.546 . S
C754 C160 1.546 1_655 S
C787 C193 1.546 . S
C226 C688 1.546 . S
C259 C721 1.546 1_655 S
C292 C886 1.546 1_655 S
C919 C325 1.546 1_655 S
C820 C358 1.546 . S
C391 C853 1.546 . S
C424 C1018 1.546 1_655 S
C1051 C457 1.546 . S
C952 C490 1.546 . S
C985 C523 1.546 1_655 S
N14 C899 1.246 . S
C272 N47 1.246 . S
C833 N80 1.246 . S
N113 C338 1.246 . S
C965 N146 1.246 . S
C470 N179 1.246 . S
N212 C1031 1.246 . S
N245 C404 1.246 . S
N278 C635 1.246 . S
N311 C8 1.246 . S
C569 N344 1.246 . S
N377 C74 1.246 . S
C701 N410 1.246 . S
N443 C206 1.246 . S
N476 C767 1.246 . S
C140 N509 1.246 . S
N542 C371 1.246 . S
C800 N575 1.246 . S
C305 N608 1.246 . S
N641 C866 1.246 . S
N674 C437 1.246 . S
C998 N707 1.246 . S
N740 C503 1.246 . S
C932 N773 1.246 . S
C107 N806 1.246 . S
C536 N839 1.246 . S
C41 N872 1.246 . S
C602 N905 1.246 . S
N938 C173 1.246 . S
C734 N971 1.246 . S
C239 N1004 1.246 . S
C668 N1037 1.246 . S
C17 C809 1.579 . S
C50 C314 1.579 1_665 S
C875 C83 1.579 . S
C380 C116 1.579 1_564 S
C941 C149 1.579 . S
C446 C182 1.579 1_545 S
C1007 C215 1.579 . S
C512 C248 1.579 1_466 S
C281 C545 1.579 . S
C611 C347 1.579 . S
C413 C677 1.579 . S
C479 C743 1.579 . S
C842 C578 1.579 1_554 S
C644 C908 1.579 1_455 S
C974 C710 1.579 1_656 S
C1040 C776 1.579 . S
