# Generated by pormake.
# Topology xft, (5)-cn, num edge types: 1
# Building blocks:
#     Node 0, Type 0, BuildingBlock: BEQFEK_clean_sbu_0, # of connection points: 5
#     Node 1, Type 0, BuildingBlock: BEQFEK_clean_sbu_0, # of connection points: 5
#     Node 2, Type 0, BuildingBlock: BEQFEK_clean_sbu_0, # of connection points: 5
#     Node 3, Type 0, BuildingBlock: BEQFEK_clean_sbu_0, # of connection points: 5
#     Node 4, Type 0, BuildingBlock: BEQFEK_clean_sbu_0, # of connection points: 5
#     Node 5, Type 0, BuildingBlock: BEQFEK_clean_sbu_0, # of connection points: 5
#     Node 6, Type 0, BuildingBlock: BEQFEK_clean_sbu_0, # of connection points: 5
#     Node 7, Type 0, BuildingBlock: BEQFEK_clean_sbu_0, # of connection points: 5
#     Edge 8, Type (0, 0), BuildingBlock: TEMPAE_clean_linker_10, # of connection points: 2
#     Edge 9, Type (0, 0), BuildingBlock: TEMPAE_clean_linker_10, # of connection points: 2
#     Edge 10, Type (0, 0), BuildingBlock: TEMPAE_clean_linker_10, # of connection points: 2
#     Edge 11, Type (0, 0), BuildingBlock: TEMPAE_clean_linker_10, # of connection points: 2
#     Edge 12, Type (0, 0), BuildingBlock: TEMPAE_clean_linker_10, # of connection points: 2
#     Edge 13, Type (0, 0), BuildingBlock: TEMPAE_clean_linker_10, # of connection points: 2
#     Edge 14, Type (0, 0), BuildingBlock: TEMPAE_clean_linker_10, # of connection points: 2
#     Edge 15, Type (0, 0), BuildingBlock: TEMPAE_clean_linker_10, # of connection points: 2
#     Edge 16, Type (0, 0), BuildingBlock: TEMPAE_clean_linker_10, # of connection points: 2
#     Edge 17, Type (0, 0), BuildingBlock: TEMPAE_clean_linker_10, # of connection points: 2
#     Edge 18, Type (0, 0), BuildingBlock: TEMPAE_clean_linker_10, # of connection points: 2
#     Edge 19, Type (0, 0), BuildingBlock: TEMPAE_clean_linker_10, # of connection points: 2
#     Edge 20, Type (0, 0), BuildingBlock: TEMPAE_clean_linker_10, # of connection points: 2
#     Edge 21, Type (0, 0), BuildingBlock: TEMPAE_clean_linker_10, # of connection points: 2
#     Edge 22, Type (0, 0), BuildingBlock: TEMPAE_clean_linker_10, # of connection points: 2
#     Edge 23, Type (0, 0), BuildingBlock: TEMPAE_clean_linker_10, # of connection points: 2
#     Edge 24, Type (0, 0), BuildingBlock: TEMPAE_clean_linker_10, # of connection points: 2
#     Edge 25, Type (0, 0), BuildingBlock: TEMPAE_clean_linker_10, # of connection points: 2
#     Edge 26, Type (0, 0), BuildingBlock: TEMPAE_clean_linker_10, # of connection points: 2
#     Edge 27, Type (0, 0), BuildingBlock: TEMPAE_clean_linker_10, # of connection points: 2
# Relax obj value: 0.418
# Max RMSD: 0.298
# Mean RMSD: 0.298
data_MOF--net-xft--node1-BEQFEK_clean_sbu_0--edge1-TEMPAE_clean_linker_10
_symmetry_space_group_name_H-M    P1
_symmetry_Int_Tables_number       1
_symmetry_cell_setting            triclinic
loop_
_symmetry_equiv_pos_as_xyz
'x, y, z'
_cell_length_a     38.441313
_cell_length_b     38.290797
_cell_length_c     36.408697
_cell_angle_alpha  89.750801
_cell_angle_beta   90.189562
_cell_angle_gamma 90.03517
loop_
_atom_site_label
_atom_site_type_symbol
_atom_site_fract_x
_atom_site_fract_y
_atom_site_fract_z
_atom_type_partial_charge
Co0 Co 0.3331 0.00432 0.73056 0.0
Co1 Co 0.31389 0.9629 0.80184 0.0
C2 C 0.32428 0.92812 0.72829 0.0
O3 O 0.33006 0.95667 0.71135 0.0
O4 O 0.31788 0.92754 0.76257 0.0
C5 C 0.33776 0.03357 0.65648 0.0
O6 O 0.32718 0.00312 0.64426 0.0
C7 C 0.26871 0.91703 0.84315 0.0
C8 C 0.28603 0.92479 0.90047 0.0
C9 C 0.26236 0.90672 0.87894 0.0
N10 N 0.29515 0.93987 0.84335 0.0
N11 N 0.30573 0.94416 0.87761 0.0
C12 C 0.24818 0.90784 0.80956 0.0
H13 H 0.25126 0.92831 0.78813 0.0
H14 H 0.22022 0.90465 0.81633 0.0
H15 H 0.2579 0.88272 0.79851 0.0
C16 C 0.26929 0.04209 0.74967 0.0
N17 N 0.29259 0.01659 0.75591 0.0
N18 N 0.28527 0.00076 0.78703 0.0
C19 C 0.25748 0.01638 0.80226 0.0
C20 C 0.24637 0.0431 0.77896 0.0
C21 C 0.2686 0.0642 0.71566 0.0
H22 H 0.28994 0.0837 0.717 0.0
H23 H 0.27292 0.04753 0.69129 0.0
H24 H 0.24339 0.07795 0.71233 0.0
O25 O 0.37439 0.00699 0.76304 0.0
O26 O 0.36111 0.97854 0.81432 0.0
H27 H 0.22913 0.02996 0.85154 0.0
H28 H 0.22698 0.98463 0.83823 0.0
C29 C 0.24409 0.00792 0.83984 0.0
H30 H 0.2661 0.00178 0.85848 0.0
H31 H 0.32587 0.96087 0.88543 0.0
O32 O 0.34149 0.03824 0.69078 0.0
C33 C 0.38251 -0.00404 0.79499 0.0
Co34 Co 0.96871 0.83116 0.97761 0.0
Co35 Co 0.01267 0.82842 0.04972 0.0
C36 C 0.04341 0.81512 0.97474 0.0
O37 O 0.0147 0.81911 0.95779 0.0
O38 O 0.04539 0.8181 0.00946 0.0
C39 C 0.93809 0.81771 0.90608 0.0
O40 O 0.96692 0.80091 0.89837 0.0
C41 C 0.05467 0.78966 0.10092 0.0
C42 C 0.06429 0.82674 0.1462 0.0
C43 C 0.07167 0.79336 0.13406 0.0
N44 N 0.03764 0.81937 0.09357 0.0
N45 N 0.04344 0.84158 0.12065 0.0
C46 C 0.05653 0.75921 0.07533 0.0
H47 H 0.03734 0.76197 0.05269 0.0
H48 H 0.05164 0.73449 0.09044 0.0
H49 H 0.0831 0.7577 0.06362 0.0
C50 C 0.92892 0.7768 0.01717 0.0
N51 N 0.9549 0.80032 0.01531 0.0
N52 N 0.97227 0.80023 0.04649 0.0
C53 C 0.9574 0.77708 0.06956 0.0
C54 C 0.92974 0.76124 0.05161 0.0
C55 C 0.90559 0.76792 0.98557 0.0
H56 H 0.88783 0.7902 0.98011 0.0
H57 H 0.92151 0.7638 0.96062 0.0
H58 H 0.88999 0.74411 0.99106 0.0
O59 O 0.97072 0.88 -0.00448 0.0
O60 O 0.00109 0.87833 0.04743 0.0
H61 H 0.97865 0.7956 0.12061 0.0
H62 H 0.94616 0.76172 0.12534 0.0
C63 C 0.96837 0.77113 0.10858 0.0
H64 H 0.98899 0.75092 0.10951 0.0
H65 H 0.03359 0.86696 0.12144 0.0
O66 O 0.93422 0.8311 0.93767 0.0
C67 C 0.98425 0.8953 0.0231 0.0
Co68 Co 0.18753 0.50264 0.20722 0.0
Co69 Co 0.19554 0.52915 0.2875 0.0
C70 C 0.18674 0.57785 0.22247 0.0
O71 O 0.18692 0.55351 0.19881 0.0
O72 O 0.18914 0.57116 0.25661 0.0
C73 C 0.1602 0.48701 0.13879 0.0
O74 O 0.13966 0.51269 0.14875 0.0
C75 C 0.22727 0.57367 0.3411 0.0
C76 C 0.20742 0.55393 0.39417 0.0
C77 C 0.22756 0.57992 0.37837 0.0
N78 N 0.20719 0.5458 0.33472 0.0
N79 N 0.19514 0.53409 0.36647 0.0
C80 C 0.24746 0.59259 0.31207 0.0
H81 H 0.23257 0.61592 0.30305 0.0
H82 H 0.25173 0.57543 0.28801 0.0
H83 H 0.27291 0.60153 0.32305 0.0
C84 C 0.25363 0.46723 0.22629 0.0
N85 N 0.22723 0.48895 0.23419 0.0
N86 N 0.23022 0.49941 0.2684 0.0
C87 C 0.25829 0.48421 0.28372 0.0
C88 C 0.27426 0.4634 0.25744 0.0
C89 C 0.25866 0.45054 0.18961 0.0
H90 H 0.25301 0.46975 0.16749 0.0
H91 H 0.28559 0.4406 0.18642 0.0
H92 H 0.24007 0.42852 0.18671 0.0
O93 O 0.14412 0.48858 0.23323 0.0
O94 O 0.15111 0.50494 0.2911 0.0
H95 H 0.28413 0.46501 0.33295 0.0
H96 H 0.28027 0.51194 0.329 0.0
C97 C 0.26704 0.48668 0.32375 0.0
H98 H 0.24284 0.48594 0.34018 0.0
H99 H 0.17855 0.51266 0.3692 0.0
O100 O 0.18538 0.47861 0.15968 0.0
C101 C 0.1331 0.49048 0.26613 0.0
Co102 Co 0.50799 0.68966 0.43629 0.0
Co103 Co 0.4819 0.69596 0.51686 0.0
C104 C 0.43421 0.70302 0.451 0.0
O105 O 0.45861 0.6998 0.42772 0.0
O106 O 0.4402 0.70172 0.48538 0.0
C107 C 0.52319 0.65881 0.37125 0.0
O108 O 0.49431 0.6427 0.38055 0.0
C109 C 0.44469 0.73005 0.57516 0.0
C110 C 0.46267 0.7025 0.62519 0.0
C111 C 0.43999 0.728 0.61266 0.0
N112 N 0.46851 0.70635 0.56553 0.0
N113 N 0.47923 0.68984 0.59548 0.0
C114 C 0.42864 0.75586 0.54919 0.0
H115 H 0.40251 0.74643 0.54098 0.0
H116 H 0.44494 0.759 0.52429 0.0
H117 H 0.42543 0.78156 0.56278 0.0
C118 C 0.55499 0.74599 0.4609 0.0
N119 N 0.52914 0.72294 0.46673 0.0
N120 N 0.51881 0.72504 0.50106 0.0
C121 C 0.53803 0.74933 0.51835 0.0
C122 C 0.56152 0.76326 0.49348 0.0
C123 C 0.57334 0.75067 0.42507 0.0
H124 H 0.58812 0.72655 0.41878 0.0
H125 H 0.55388 0.75451 0.40283 0.0
H126 H 0.5915 0.7732 0.42583 0.0
O127 O 0.51188 0.64236 0.45804 0.0
O128 O 0.4948 0.64641 0.51586 0.0
H129 H 0.53494 0.73573 0.5753 0.0
H130 H 0.55355 0.77844 0.56672 0.0
C131 C 0.53351 0.75942 0.55772 0.0
H132 H 0.50743 0.77124 0.56133 0.0
H133 H 0.49766 0.66984 0.59561 0.0
O134 O 0.53269 0.68519 0.38976 0.0
C135 C 0.50603 0.62845 0.48916 0.0
Co136 Co 0.67753 0.9746 0.71047 0.0
Co137 Co 0.70271 0.01616 0.77882 0.0
C138 C 0.68521 0.05095 0.70677 0.0
O139 O 0.67825 0.02253 0.69038 0.0
O140 O 0.69446 0.05116 0.74026 0.0
C141 C 0.67525 0.946 0.63745 0.0
O142 O 0.69674 0.97134 0.62859 0.0
C143 C 0.75053 0.06467 0.81042 0.0
C144 C 0.7357 0.06665 0.86894 0.0
C145 C 0.75754 0.0816 0.84301 0.0
N146 N 0.72526 0.04129 0.81642 0.0
N147 N 0.71643 0.0424 0.85144 0.0
C148 C 0.76862 0.06926 0.77436 0.0
H149 H 0.7651 0.04578 0.75699 0.0
H150 H 0.79678 0.07426 0.77877 0.0
H151 H 0.75745 0.09203 0.75965 0.0
C152 C 0.74297 0.93572 0.7258 0.0
N153 N 0.7204 0.96189 0.73222 0.0
N154 N 0.73047 0.97905 0.76161 0.0
C155 C 0.75962 0.96434 0.77501 0.0
C156 C 0.76874 0.93663 0.75253 0.0
C157 C 0.7394 0.91011 0.6951 0.0
H158 H 0.71413 0.89629 0.6975 0.0
H159 H 0.7395 0.92442 0.66858 0.0
H160 H 0.76094 0.89085 0.69506 0.0
O161 O 0.63941 0.9714 0.74691 0.0
O162 O 0.65743 -0.00037 0.79658 0.0
H163 H 0.75551 0.98098 0.83105 0.0
H164 H 0.79195 0.95264 0.82245 0.0
C165 C 0.77596 0.97418 0.81093 0.0
H166 H 0.79281 -0.00262 0.80676 0.0
H167 H 0.69679 0.02723 0.86317 0.0
O168 O 0.66517 0.94274 0.67048 0.0
C169 C 0.63441 0.98207 0.77958 0.0
Co170 Co 0.02385 0.20957 0.93904 0.0
Co171 Co 0.96802 0.22507 -0.00144 0.0
C172 C 0.94958 0.2245 0.91939 0.0
O173 O 0.98047 0.21651 0.91005 0.0
O174 O 0.94159 0.2294 0.95284 0.0
C175 C 0.06162 0.20056 0.87142 0.0
O176 O 0.03139 0.20399 0.85487 0.0
C177 C 0.90568 0.2435 0.04076 0.0
C178 C 0.92803 0.24836 0.09643 0.0
C179 C 0.89728 0.25222 0.07672 0.0
N180 N 0.93988 0.23629 0.03942 0.0
N181 N 0.95281 0.23815 0.07297 0.0
C182 C 0.8814 0.23829 0.00903 0.0
H183 H 0.89006 0.2158 0.99232 0.0
H184 H 0.88153 0.26202 0.99143 0.0
H185 H 0.85453 0.23294 0.01858 0.0
C186 C 0.05857 0.2692 0.97544 0.0
N187 N 0.03199 0.2465 0.97214 0.0
N188 N 0.0078 0.25422 -0.00377 0.0
C189 C 0.01756 0.28305 0.01464 0.0
C190 C 0.05031 0.29313 0.00257 0.0
C191 C 0.09166 0.26678 0.95406 0.0
H192 H 0.10039 0.2392 0.95307 0.0
H193 H 0.08677 0.27567 0.92546 0.0
H194 H 0.1126 0.28291 0.96637 0.0
O195 O 0.02035 0.16441 0.96491 0.0
O196 O 0.98005 0.17562 0.00638 0.0
H197 H -0.00122 0.29331 0.06876 0.0
H198 H 0.00095 0.33119 0.03965 0.0
C199 C -0.00539 0.30291 0.04032 0.0
H200 H 0.96689 0.29939 0.03272 0.0
H201 H 0.97874 0.2331 0.07966 0.0
O202 O 0.06352 0.20403 0.90601 0.0
C203 C 0.00105 0.15457 0.99126 0.0
Co204 Co 0.81917 0.51076 0.23257 0.0
Co205 Co 0.80593 0.4511 0.2898 0.0
C206 C 0.80047 0.43878 0.20923 0.0
O207 O 0.80902 0.47001 0.20125 0.0
O208 O 0.79832 0.42819 0.24228 0.0
C209 C 0.81608 0.55513 0.16794 0.0
O210 O 0.80472 0.52743 0.15043 0.0
C211 C 0.77182 0.39248 0.32605 0.0
C212 C 0.793 0.3956 0.38245 0.0
C213 C 0.77053 0.37674 0.36029 0.0
N214 N 0.79439 0.41918 0.3277 0.0
N215 N 0.80741 0.42061 0.3613 0.0
C216 C 0.74945 0.38459 0.29333 0.0
H217 H 0.76326 0.36578 0.27545 0.0
H218 H 0.74436 0.40871 0.27725 0.0
H219 H 0.72427 0.37286 0.30169 0.0
C220 C 0.75973 0.5415 0.27064 0.0
N221 N 0.78428 0.51675 0.26795 0.0
N222 N 0.77815 0.4919 0.29213 0.0
C223 C 0.74904 0.49992 0.31085 0.0
C224 C 0.73629 0.53151 0.29751 0.0
C225 C 0.75829 0.57353 0.24693 0.0
H226 H 0.78416 0.58635 0.24673 0.0
H227 H 0.75178 0.5659 0.21835 0.0
H228 H 0.73873 0.59252 0.25692 0.0
O229 O 0.86486 0.50411 0.25554 0.0
O230 O 0.85623 0.46097 0.29527 0.0
H231 H 0.75019 0.46837 0.35949 0.0
H232 H 0.70811 0.48746 0.34983 0.0
C233 C 0.73159 0.47569 0.33742 0.0
H234 H 0.72379 0.45153 0.32294 0.0
H235 H 0.82535 0.4393 0.37004 0.0
O236 O 0.82312 0.55302 0.20197 0.0
C237 C 0.87623 0.48294 0.27972 0.0
Co238 Co 0.47947 0.30319 0.44429 0.0
Co239 Co 0.52349 0.29786 0.51627 0.0
C240 C 0.55327 0.28244 0.44151 0.0
O241 O 0.52491 0.28848 0.42449 0.0
O242 O 0.55557 0.28543 0.47623 0.0
C243 C 0.45279 0.31365 0.37205 0.0
O244 O 0.48583 0.31623 0.36334 0.0
C245 C 0.56941 0.26327 0.56765 0.0
C246 C 0.56434 0.29463 0.61817 0.0
C247 C 0.58121 0.26607 0.60334 0.0
N248 N 0.54698 0.28931 0.56116 0.0
N249 N 0.54418 0.30824 0.59131 0.0
C250 C 0.5769 0.23443 0.54121 0.0
H251 H 0.60189 0.23997 0.52724 0.0
H252 H 0.55592 0.23238 0.52034 0.0
H253 H 0.57953 0.20913 0.55596 0.0
C254 C 0.43922 0.2481 0.48269 0.0
N255 N 0.46454 0.27242 0.48178 0.0
N256 N 0.48229 0.2712 0.51271 0.0
C257 C 0.4685 0.24646 0.53459 0.0
C258 C 0.44106 0.23067 0.51615 0.0
C259 C 0.41621 0.23971 0.4507 0.0
H260 H 0.39647 0.26066 0.44756 0.0
H261 H 0.43189 0.23912 0.42517 0.0
H262 H 0.4028 0.21428 0.45439 0.0
O263 O 0.48375 0.35203 0.46214 0.0
O264 O 0.51457 0.34807 0.51351 0.0
H265 H 0.48822 0.26234 0.58711 0.0
H266 H 0.46143 0.22369 0.58856 0.0
C267 C 0.48139 0.23798 0.57245 0.0
H268 H 0.50499 0.22148 0.5705 0.0
H269 H 0.52816 0.3301 0.5937 0.0
O270 O 0.44456 0.30585 0.40484 0.0
C271 C 0.49853 0.36622 0.48963 0.0
C272 C 0.1863 0.05834 0.79858 0.0
C273 C 0.21883 0.06907 0.78568 0.0
C274 C 0.16098 0.08292 0.80814 0.0
C275 C 0.16826 0.11898 0.80381 0.0
C276 C 0.20039 0.12985 0.78884 0.0
C277 C 0.22557 0.10472 0.78049 0.0
C278 C 0.12715 0.07035 0.82453 0.0
C279 C 0.20878 0.16802 0.78316 0.0
C280 C 0.0893 0.1771 0.81448 0.0
C281 C 0.09165 0.18559 0.85183 0.0
C282 C 0.11529 0.15711 0.7976 0.0
C283 C 0.14378 0.14505 0.81883 0.0
C284 C 0.14736 0.15545 0.85587 0.0
C285 C 0.12144 0.17594 0.87178 0.0
C286 C 0.11129 0.14734 0.75769 0.0
C287 C 0.17731 0.14295 0.8795 0.0
H288 H 0.181 0.03071 0.80204 0.0
H289 H 0.25093 0.11306 0.77091 0.0
H290 H 0.12516 0.07943 0.85336 0.0
H291 H 0.10478 0.08153 0.8092 0.0
H292 H 0.1249 0.04142 0.82432 0.0
H293 H 0.2324 0.17178 0.76609 0.0
H294 H 0.18663 0.18169 0.76978 0.0
H295 H 0.21326 0.1806 0.81014 0.0
H296 H 0.06653 0.1848 0.79879 0.0
H297 H 0.12369 0.18271 0.90058 0.0
H298 H 0.1041 0.11935 0.75562 0.0
H299 H 0.13624 0.15092 0.7429 0.0
H300 H 0.09086 0.16307 0.74371 0.0
H301 H 0.17573 0.11418 0.88294 0.0
H302 H 0.1773 0.1551 0.90716 0.0
H303 H 0.20248 0.14887 0.86605 0.0
C304 C 0.92567 0.70186 0.07849 0.0
C305 C 0.90883 0.73161 0.06498 0.0
C306 C 0.90665 0.67379 0.09271 0.0
C307 C 0.86987 0.67569 0.09347 0.0
C308 C 0.85266 0.70547 0.07909 0.0
C309 C 0.87246 0.73321 0.06491 0.0
C310 C 0.92597 0.64242 0.10766 0.0
C311 C 0.81351 0.7084 0.07964 0.0
C312 C 0.827 0.58796 0.10956 0.0
C313 C 0.82428 0.58771 0.14794 0.0
C314 C 0.83986 0.61742 0.09097 0.0
C315 C 0.84998 0.64717 0.11134 0.0
C316 C 0.84493 0.64789 0.14979 0.0
C317 C 0.83219 0.6181 0.16764 0.0
C318 C 0.84477 0.61584 0.04989 0.0
C319 C 0.85511 0.67927 0.17243 0.0
H320 H 0.95385 0.70062 0.07801 0.0
H321 H 0.85961 0.75645 0.05451 0.0
H322 H 0.92091 0.63963 0.13751 0.0
H323 H 0.91655 0.61827 0.09416 0.0
H324 H 0.95452 0.64448 0.1035 0.0
H325 H 0.8041 0.73204 0.06488 0.0
H326 H 0.80152 0.685 0.06694 0.0
H327 H 0.80434 0.70952 0.10847 0.0
H328 H 0.82073 0.56461 0.09417 0.0
H329 H 0.82961 0.61825 0.19728 0.0
H330 H 0.87293 0.61391 0.04363 0.0
H331 H 0.83491 0.64 0.03657 0.0
H332 H 0.83132 0.59299 0.03758 0.0
H333 H 0.88387 0.68178 0.1729 0.0
H334 H 0.84579 0.6772 0.20121 0.0
H335 H 0.84449 0.70355 0.16003 0.0
C336 C 0.30099 0.40412 0.25328 0.0
C337 C 0.30373 0.4393 0.26333 0.0
C338 C 0.3266 0.37996 0.26378 0.0
C339 C 0.35496 0.39128 0.28557 0.0
C340 C 0.35887 0.4272 0.29376 0.0
C341 C 0.33334 0.45086 0.28209 0.0
C342 C 0.32209 0.34206 0.25363 0.0
C343 C 0.38861 0.44033 0.31717 0.0
C344 C 0.39211 0.33333 0.35995 0.0
C345 C 0.42575 0.32711 0.34675 0.0
C346 C 0.36812 0.35269 0.33931 0.0
C347 C 0.37775 0.36547 0.30425 0.0
C348 C 0.41052 0.35663 0.28937 0.0
C349 C 0.43435 0.33777 0.31099 0.0
C350 C 0.33344 0.36169 0.35626 0.0
C351 C 0.42122 0.36886 0.2516 0.0
H352 H 0.27798 0.39511 0.23887 0.0
H353 H 0.33564 0.47823 0.28924 0.0
H354 H 0.34728 0.33043 0.24531 0.0
H355 H 0.31259 0.32722 0.27783 0.0
H356 H 0.30302 0.33872 0.23091 0.0
H357 H 0.38928 0.4693 0.31864 0.0
H358 H 0.38601 0.42979 0.34548 0.0
H359 H 0.41381 0.43103 0.30621 0.0
H360 H 0.38511 0.32493 0.38743 0.0
H361 H 0.46018 0.33267 0.30043 0.0
H362 H 0.31189 0.3549 0.33728 0.0
H363 H 0.3321 0.39025 0.3612 0.0
H364 H 0.32915 0.34792 0.38279 0.0
H365 H 0.39955 0.36563 0.23169 0.0
H366 H 0.4443 0.35444 0.24142 0.0
H367 H 0.42779 0.39705 0.25254 0.0
C368 C 0.63344 0.90042 0.61752 0.0
C369 C 0.66244 0.92126 0.60957 0.0
C370 C 0.62084 0.87624 0.59213 0.0
C371 C 0.63792 0.87246 0.55799 0.0
C372 C 0.66702 0.89363 0.54949 0.0
C373 C 0.67889 0.91802 0.57542 0.0
C374 C 0.58943 0.85441 0.60214 0.0
C375 C 0.68596 0.88997 0.51348 0.0
C376 C 0.61637 0.78338 0.52184 0.0
C377 C 0.58685 0.79097 0.50083 0.0
C378 C 0.63606 0.81032 0.53742 0.0
C379 C 0.62532 0.84537 0.53222 0.0
C380 C 0.5974 0.85309 0.50804 0.0
C381 C 0.57836 0.82558 0.49256 0.0
C382 C 0.66594 0.80103 0.56261 0.0
C383 C 0.58517 0.89008 0.50175 0.0
H384 H 0.6204 0.90304 0.64372 0.0
H385 H 0.70138 0.93406 0.56924 0.0
H386 H 0.56885 0.8574 0.58093 0.0
H387 H 0.59671 0.82639 0.60315 0.0
H388 H 0.57835 0.8617 0.62918 0.0
H389 H 0.70638 0.91024 0.50989 0.0
H390 H 0.69841 0.86388 0.51215 0.0
H391 H 0.66739 0.89175 0.49016 0.0
H392 H 0.62262 0.75638 0.52811 0.0
H393 H 0.55528 0.8311 0.47633 0.0
H394 H 0.6574 0.80343 0.59158 0.0
H395 H 0.68812 0.81915 0.55852 0.0
H396 H 0.67506 0.77384 0.5582 0.0
H397 H 0.57013 0.89882 0.526 0.0
H398 H 0.56816 0.89221 0.47712 0.0
H399 H 0.60755 0.90812 0.49846 0.0
C400 C 0.88749 0.23182 0.9021 0.0
C401 C 0.9208 0.21975 0.89305 0.0
C402 C 0.85782 0.21596 0.88729 0.0
C403 C 0.8619 0.18762 0.86293 0.0
C404 C 0.89529 0.17931 0.84925 0.0
C405 C 0.92454 0.19575 0.86438 0.0
C406 C 0.82255 0.22644 0.90159 0.0
C407 C 0.90063 0.14972 0.82261 0.0
C408 C 0.80453 0.10898 0.87968 0.0
C409 C 0.78254 0.11007 0.84912 0.0
C410 C 0.83014 0.13453 0.88466 0.0
C411 C 0.83327 0.16206 0.85866 0.0
C412 C 0.80999 0.16414 0.82862 0.0
C413 C 0.78488 0.13794 0.82414 0.0
C414 C 0.85443 0.1315 0.91726 0.0
C415 C 0.81206 0.19343 0.80082 0.0
H416 H 0.88454 0.2512 0.92347 0.0
H417 H 0.95024 0.18673 0.85677 0.0
H418 H 0.80247 0.2249 0.8797 0.0
H419 H 0.81484 0.20828 0.92397 0.0
H420 H 0.8229 0.25336 0.91287 0.0
H421 H 0.92667 0.15095 0.8095 0.0
H422 H 0.8985 0.12449 0.83758 0.0
H423 H 0.88041 0.14997 0.80084 0.0
H424 H 0.80243 0.08749 0.89905 0.0
H425 H 0.76699 0.13935 0.80113 0.0
H426 H 0.85302 0.15549 0.93416 0.0
H427 H 0.88166 0.12885 0.90763 0.0
H428 H 0.84819 0.10869 0.93502 0.0
H429 H 0.81515 0.219 0.81469 0.0
H430 H 0.78863 0.19447 0.7829 0.0
H431 H 0.83518 0.18959 0.78316 0.0
C432 C 0.84322 0.28895 0.06912 0.0
C433 C 0.86574 0.26929 0.0916 0.0
C434 C 0.81966 0.31264 0.08447 0.0
C435 C 0.82069 0.31864 0.12267 0.0
C436 C 0.84028 0.29616 0.14572 0.0
C437 C 0.86194 0.27114 0.12983 0.0
C438 C 0.7963 0.3337 0.05944 0.0
C439 C 0.84163 0.30115 0.18685 0.0
C440 C 0.82689 0.41142 0.15524 0.0
C441 C 0.79943 0.41254 0.18018 0.0
C442 C 0.83286 0.38149 0.1344 0.0
C443 C 0.80952 0.35286 0.13727 0.0
C444 C 0.77924 0.35581 0.15905 0.0
C445 C 0.77509 0.38534 0.18124 0.0
C446 C 0.8661 0.37934 0.11239 0.0
C447 C 0.75229 0.32723 0.16104 0.0
H448 H 0.84557 0.28847 0.03962 0.0
H449 H 0.87843 0.25531 0.14746 0.0
H450 H 0.77186 0.34112 0.07359 0.0
H451 H 0.80981 0.35797 0.05085 0.0
H452 H 0.78972 0.3188 0.03424 0.0
H453 H 0.85788 0.28109 0.20081 0.0
H454 H 0.85246 0.32731 0.1933 0.0
H455 H 0.81505 0.29986 0.19842 0.0
H456 H 0.84571 0.43253 0.15473 0.0
H457 H 0.75357 0.38655 0.2004 0.0
H458 H 0.86007 0.37471 0.08304 0.0
H459 H 0.88219 0.35712 0.12229 0.0
H460 H 0.88193 0.40355 0.11431 0.0
H461 H 0.75417 0.30868 0.1378 0.0
H462 H 0.72578 0.33877 0.16114 0.0
H463 H 0.75538 0.31261 0.18722 0.0
C464 C 0.5901 0.29686 0.38782 0.0
C465 C 0.58576 0.27837 0.42074 0.0
C466 C 0.62349 0.30399 0.37448 0.0
C467 C 0.65283 0.29165 0.39427 0.0
C468 C 0.64823 0.26843 0.42414 0.0
C469 C 0.61459 0.26235 0.43737 0.0
C470 C 0.62731 0.32856 0.34219 0.0
C471 C 0.67886 0.25327 0.44472 0.0
C472 C 0.73889 0.32025 0.35364 0.0
C473 C 0.74451 0.35135 0.37287 0.0
C474 C 0.71037 0.2988 0.36201 0.0
C475 C 0.68666 0.30955 0.38936 0.0
C476 C 0.69349 0.34007 0.41012 0.0
C477 C 0.72269 0.36036 0.40188 0.0
C478 C 0.70479 0.26582 0.34025 0.0
C479 C 0.66875 0.35267 0.43942 0.0
H480 H 0.56779 0.30899 0.37469 0.0
H481 H 0.61111 0.24721 0.46227 0.0
H482 H 0.63579 0.35457 0.3522 0.0
H483 H 0.64744 0.31899 0.32298 0.0
H484 H 0.60247 0.33184 0.32687 0.0
H485 H 0.67129 0.22981 0.46089 0.0
H486 H 0.70006 0.24612 0.42554 0.0
H487 H 0.68928 0.27305 0.46404 0.0
H488 H 0.75618 0.31329 0.33137 0.0
H489 H 0.72717 0.38454 0.41656 0.0
H490 H 0.68712 0.27139 0.31681 0.0
H491 H 0.69269 0.24502 0.35727 0.0
H492 H 0.72969 0.25588 0.32895 0.0
H493 H 0.64302 0.35857 0.42693 0.0
H494 H 0.67835 0.37654 0.45343 0.0
H495 H 0.66476 0.33202 0.46043 0.0
C496 C 0.63542 0.23124 0.60676 0.0
C497 C 0.60377 0.24106 0.62251 0.0
C498 C 0.65418 0.20278 0.6207 0.0
C499 C 0.64041 0.18357 0.65054 0.0
C500 C 0.60945 0.1948 0.6679 0.0
C501 C 0.59159 0.22379 0.65378 0.0
C502 C 0.68757 0.19211 0.60216 0.0
C503 C 0.59389 0.17479 0.69969 0.0
C504 C 0.6566 0.08644 0.65771 0.0
C505 C 0.67863 0.08471 0.68838 0.0
C506 C 0.64498 0.11871 0.6442 0.0
C507 C 0.65626 0.14985 0.6614 0.0
C508 C 0.68044 0.14837 0.69065 0.0
C509 C 0.69109 0.11575 0.70405 0.0
C510 C 0.61898 0.11935 0.61299 0.0
C511 C 0.69366 0.18108 0.70906 0.0
H512 H 0.64482 0.24506 0.58269 0.0
H513 H 0.56694 0.2315 0.66567 0.0
H514 H 0.70807 0.18649 0.62288 0.0
H515 H 0.68318 0.16782 0.58631 0.0
H516 H 0.69723 0.21259 0.58303 0.0
H517 H 0.57112 0.18841 0.7117 0.0
H518 H 0.58538 0.14862 0.6902 0.0
H519 H 0.6136 0.1707 0.72159 0.0
H520 H 0.64682 0.06257 0.64555 0.0
H521 H 0.70824 0.11462 0.72767 0.0
H522 H 0.62811 0.13691 0.59071 0.0
H523 H 0.59381 0.12982 0.62293 0.0
H524 H 0.61438 0.09298 0.60131 0.0
H525 H 0.7018 0.20068 0.68826 0.0
H526 H 0.71599 0.17566 0.72769 0.0
H527 H 0.67248 0.19292 0.72544 0.0
C528 C 0.67953 0.55461 0.27556 0.0
C529 C 0.7023 0.54764 0.30479 0.0
C530 C 0.64806 0.57206 0.28141 0.0
C531 C 0.63916 0.58222 0.31744 0.0
C532 C 0.66161 0.57416 0.34725 0.0
C533 C 0.69316 0.55711 0.34048 0.0
C534 C 0.62485 0.5804 0.24901 0.0
C535 C 0.65263 0.58417 0.38617 0.0
C536 C 0.57948 0.6579 0.33774 0.0
C537 C 0.54937 0.64039 0.34917 0.0
C538 C 0.60831 0.63927 0.32496 0.0
C539 C 0.60697 0.60234 0.32412 0.0
C540 C 0.57579 0.5847 0.33311 0.0
C541 C 0.54716 0.60403 0.3452 0.0
C542 C 0.64099 0.65896 0.31491 0.0
C543 C 0.57353 0.54532 0.33267 0.0
H544 H 0.68662 0.54679 0.24799 0.0
H545 H 0.71101 0.55176 0.36293 0.0
H546 H 0.59825 0.57014 0.2538 0.0
H547 H 0.62261 0.60914 0.24572 0.0
H548 H 0.6349 0.56929 0.22299 0.0
H549 H 0.67212 0.57447 0.40636 0.0
H550 H 0.65109 0.61302 0.3884 0.0
H551 H 0.62674 0.57352 0.39366 0.0
H552 H 0.58116 0.68603 0.3406 0.0
H553 H 0.52398 0.59031 0.35412 0.0
H554 H 0.65146 0.6495 0.28839 0.0
H555 H 0.66121 0.65428 0.33618 0.0
H556 H 0.63644 0.68755 0.31274 0.0
H557 H 0.58251 0.53505 0.3059 0.0
H558 H 0.54666 0.53578 0.33777 0.0
H559 H 0.5909 0.53431 0.35419 0.0
C560 C 0.44054 0.17005 0.5403 0.0
C561 C 0.42192 0.19923 0.52796 0.0
C562 C 0.42346 0.14169 0.55651 0.0
C563 C 0.38681 0.14248 0.56007 0.0
C564 C 0.36766 0.17086 0.54522 0.0
C565 C 0.38556 0.19911 0.52936 0.0
C566 C 0.44489 0.112 0.57202 0.0
C567 C 0.32855 0.17237 0.5481 0.0
C568 C 0.34716 0.05707 0.59279 0.0
C569 C 0.34658 0.06232 0.63089 0.0
C570 C 0.35847 0.08366 0.56891 0.0
C571 C 0.36953 0.11599 0.58362 0.0
C572 C 0.36741 0.12191 0.62187 0.0
C573 C 0.35589 0.09507 0.64498 0.0
C574 C 0.36003 0.07664 0.52819 0.0
C575 C 0.37897 0.15605 0.63868 0.0
H576 H 0.46869 0.17001 0.53845 0.0
H577 H 0.37127 0.22174 0.5196 0.0
H578 H 0.44339 0.11224 0.60245 0.0
H579 H 0.43447 0.08654 0.5626 0.0
H580 H 0.47269 0.11385 0.56398 0.0
H581 H 0.31729 0.19302 0.53012 0.0
H582 H 0.31681 0.14687 0.54067 0.0
H583 H 0.32114 0.17799 0.5769 0.0
H584 H 0.33973 0.03192 0.58168 0.0
H585 H 0.35508 0.09955 0.67435 0.0
H586 H 0.38758 0.07424 0.51959 0.0
H587 H 0.34852 0.09871 0.51249 0.0
H588 H 0.34617 0.05221 0.52066 0.0
H589 H 0.40736 0.15951 0.63458 0.0
H590 H 0.37349 0.15726 0.66859 0.0
H591 H 0.36573 0.1783 0.62495 0.0
C592 C 0.91788 0.81634 0.84047 0.0
C593 C 0.91182 0.82493 0.87733 0.0
C594 C 0.89516 0.82784 0.81263 0.0
C595 C 0.86616 0.84868 0.82205 0.0
C596 C 0.85879 0.85543 0.85942 0.0
C597 C 0.88156 0.84326 0.88656 0.0
C598 C 0.90331 0.81936 0.77316 0.0
C599 C 0.82806 0.87751 0.87075 0.0
C600 C 0.83029 0.92323 0.76671 0.0
C601 C 0.79659 0.91116 0.75985 0.0
C602 C 0.85494 0.90158 0.78361 0.0
C603 C 0.84547 0.86705 0.7935 0.0
C604 C 0.8128 0.85354 0.78249 0.0
C605 C 0.78845 0.87599 0.76602 0.0
C606 C 0.88955 0.91701 0.79471 0.0
C607 C 0.80219 0.81657 0.79154 0.0
H608 H 0.94104 0.80185 0.83316 0.0
H609 H 0.87636 0.84952 0.91503 0.0
H610 H 0.87921 0.81368 0.75742 0.0
H611 H 0.91608 0.84219 0.76005 0.0
H612 H 0.92116 0.79666 0.77104 0.0
H613 H 0.82495 0.8786 0.90105 0.0
H614 H 0.83145 0.90457 0.86029 0.0
H615 H 0.80369 0.86707 0.85866 0.0
H616 H 0.83646 0.95045 0.76151 0.0
H617 H 0.76226 0.86673 0.76069 0.0
H618 H 0.91103 0.89864 0.78865 0.0
H619 H 0.88966 0.92177 0.82476 0.0
H620 H 0.89477 0.94217 0.78045 0.0
H621 H 0.82437 0.79834 0.78822 0.0
H622 H 0.78026 0.80772 0.77392 0.0
H623 H 0.79369 0.81515 0.82061 0.0
C624 C 0.07486 0.32612 0.05503 0.0
C625 C 0.07162 0.32207 0.01703 0.0
C626 C 0.09256 0.3547 0.06985 0.0
C627 C 0.10794 0.37953 0.04596 0.0
C628 C 0.10593 0.37486 0.00746 0.0
C629 C 0.08745 0.34621 0.99337 0.0
C630 C 0.09394 0.35879 0.1111 0.0
C631 C 0.12244 0.40056 0.98125 0.0
C632 C 0.1167 0.46671 0.09272 0.0
C633 C 0.14997 0.46378 0.10833 0.0
C634 C 0.10354 0.44055 0.06977 0.0
C635 C 0.12438 0.41108 0.06189 0.0
C636 C 0.15918 0.4097 0.0746 0.0
C637 C 0.17154 0.43602 0.09793 0.0
C638 C 0.06623 0.44293 0.05688 0.0
C639 C 0.18244 0.37906 0.06605 0.0
H640 H 0.06312 0.30705 0.07326 0.0
H641 H 0.08466 0.34314 0.96393 0.0
H642 H 0.12136 0.36027 0.12055 0.0
H643 H 0.08103 0.38352 0.11911 0.0
H644 H 0.08098 0.33686 0.12574 0.0
H645 H 0.1219 0.39111 0.95245 0.0
H646 H 0.1084 0.42583 0.98245 0.0
H647 H 0.14984 0.40566 0.98931 0.0
H648 H 0.09997 0.48825 0.10036 0.0
H649 H 0.19749 0.43387 0.10948 0.0
H650 H 0.0502 0.42385 0.07242 0.0
H651 H 0.06409 0.43622 0.02736 0.0
H652 H 0.05514 0.4694 0.06106 0.0
H653 H 0.17446 0.35625 0.08294 0.0
H654 H 0.21019 0.38486 0.0721 0.0
H655 H 0.17993 0.37151 0.03677 0.0
C656 C 0.39037 0.68654 0.40392 0.0
C657 C 0.39778 0.70107 0.43833 0.0
C658 C 0.35708 0.67389 0.39588 0.0
C659 C 0.33054 0.67673 0.42259 0.0
C660 C 0.33669 0.69563 0.45521 0.0
C661 C 0.37047 0.70731 0.46292 0.0
C662 C 0.35149 0.65404 0.36055 0.0
C663 C 0.30856 0.70068 0.48349 0.0
C664 C 0.2457 0.64157 0.38617 0.0
C665 C 0.24829 0.60657 0.39712 0.0
C666 C 0.27064 0.66602 0.39734 0.0
C667 C 0.29913 0.65465 0.41893 0.0
C668 C 0.30016 0.61985 0.43244 0.0
C669 C 0.27433 0.59623 0.42161 0.0
C670 C 0.26788 0.70315 0.38361 0.0
C671 C 0.33023 0.60664 0.45542 0.0
H672 H 0.41125 0.68198 0.38458 0.0
H673 H 0.37588 0.71919 0.48925 0.0
H674 H 0.34827 0.62583 0.36684 0.0
H675 H 0.32745 0.66299 0.34652 0.0
H676 H 0.37366 0.6571 0.3413 0.0
H677 H 0.31476 0.72264 0.50226 0.0
H678 H 0.28304 0.70574 0.47015 0.0
H679 H 0.306 0.67656 0.50027 0.0
H680 H 0.22513 0.64941 0.36742 0.0
H681 H 0.27614 0.56902 0.42984 0.0
H682 H 0.28404 0.70632 0.35863 0.0
H683 H 0.2775 0.72191 0.40446 0.0
H684 H 0.24063 0.70995 0.37628 0.0
H685 H 0.35429 0.60663 0.43864 0.0
H686 H 0.32574 0.57972 0.46587 0.0
H687 H 0.33481 0.62409 0.47917 0.0
C688 C 0.34707 0.89469 0.67506 0.0
C689 C 0.33036 0.89473 0.70922 0.0
C690 C 0.36017 0.86372 0.6603 0.0
C691 C 0.35591 0.83203 0.67993 0.0
C692 C 0.33634 0.83138 0.71273 0.0
C693 C 0.32393 0.86286 0.72716 0.0
C694 C 0.38085 0.86541 0.6251 0.0
C695 C 0.33045 0.79787 0.7338 0.0
C696 C 0.3818 0.75353 0.62411 0.0
C697 C 0.41666 0.74974 0.63463 0.0
C698 C 0.36063 0.77862 0.64068 0.0
C699 C 0.37507 0.80064 0.66781 0.0
C700 C 0.40967 0.79525 0.68018 0.0
C701 C 0.43004 0.76948 0.66357 0.0
C702 C 0.32361 0.78301 0.62748 0.0
C703 C 0.42602 0.81838 0.70897 0.0
H704 H 0.35194 0.91914 0.66087 0.0
H705 H 0.31061 0.86263 0.75336 0.0
H706 H 0.40852 0.85921 0.63099 0.0
H707 H 0.37118 0.84574 0.60526 0.0
H708 H 0.37959 0.89159 0.6119 0.0
H709 H 0.30981 0.80073 0.75486 0.0
H710 H 0.32315 0.77637 0.71495 0.0
H711 H 0.35491 0.79012 0.74789 0.0
H712 H 0.37146 0.73763 0.60204 0.0
H713 H 0.45708 0.76633 0.67153 0.0
H714 H 0.32172 0.80669 0.60993 0.0
H715 H 0.30574 0.78663 0.65103 0.0
H716 H 0.31467 0.76023 0.61116 0.0
H717 H 0.42878 0.84529 0.69787 0.0
H718 H 0.45212 0.80893 0.71761 0.0
H719 H 0.40912 0.81988 0.73354 0.0
C720 C 0.10658 0.80136 0.97075 0.0
C721 C 0.07608 0.81346 0.95377 0.0
C722 C 0.13925 0.80872 0.95559 0.0
C723 C 0.14123 0.82938 0.92336 0.0
C724 C 0.11043 0.83843 0.90413 0.0
C725 C 0.0781 0.82992 0.9194 0.0
C726 C 0.17155 0.79731 0.97602 0.0
C727 C 0.1114 0.86063 0.86977 0.0
C728 C 0.21202 0.89785 0.92007 0.0
C729 C 0.23338 0.8851 0.89224 0.0
C730 C 0.18222 0.87953 0.93079 0.0
C731 C 0.17428 0.84718 0.91391 0.0
C732 C 0.19686 0.8333 0.88706 0.0
C733 C 0.22602 0.85277 0.87611 0.0
C734 C 0.15854 0.89549 0.95922 0.0
C735 C 0.18983 0.79845 0.86932 0.0
H736 H 0.10503 0.78807 -0.00294 0.0
H737 H 0.05456 0.8392 0.9061 0.0
H738 H 0.19207 0.78891 0.95662 0.0
H739 H 0.18197 0.81961 0.99201 0.0
H740 H 0.166 0.77555 -0.00457 0.0
H741 H 0.08587 0.86111 0.85539 0.0
H742 H 0.11843 0.88782 0.87723 0.0
H743 H 0.13143 0.85102 0.85047 0.0
H744 H 0.21782 0.92296 0.93235 0.0
H745 H 0.243 0.8428 0.85489 0.0
H746 H 0.15561 0.87747 0.98293 0.0
H747 H 0.13227 0.8997 0.94726 0.0
H748 H 0.16848 0.9209 0.96949 0.0
H749 H 0.18253 0.77867 0.8903 0.0
H750 H 0.21273 0.78877 0.85386 0.0
H751 H 0.16766 0.80093 0.84992 0.0
C752 C 0.0766 0.73567 0.16389 0.0
C753 C 0.09258 0.76667 0.1527 0.0
C754 C 0.0964 0.70774 0.17723 0.0
C755 C 0.13308 0.71098 0.17897 0.0
C756 C 0.14924 0.74287 0.16898 0.0
C757 C 0.12862 0.77059 0.15602 0.0
C758 C 0.07813 0.67433 0.1881 0.0
C759 C 0.18825 0.74712 0.17034 0.0
C760 C 0.174 0.64019 0.23706 0.0
C761 C 0.17979 0.61419 0.21069 0.0
C762 C 0.16113 0.67306 0.22686 0.0
C763 C 0.15412 0.68007 0.18942 0.0
C764 C 0.16271 0.65506 0.1624 0.0
C765 C 0.17538 0.62232 0.17338 0.0
C766 C 0.15241 0.69911 0.25645 0.0
C767 C 0.15607 0.66188 0.1221 0.0
H768 H 0.0486 0.73303 0.16127 0.0
H769 H 0.14073 0.79471 0.14698 0.0
H770 H 0.08588 0.65299 0.1693 0.0
H771 H 0.08593 0.66642 0.21629 0.0
H772 H 0.04936 0.67691 0.18715 0.0
H773 H 0.19636 0.77461 0.16555 0.0
H774 H 0.19862 0.73832 0.19729 0.0
H775 H 0.20031 0.73052 0.14898 0.0
H776 H 0.17763 0.63432 0.26597 0.0
H777 H 0.18022 0.60256 0.15278 0.0
H778 H 0.12378 0.69994 0.26019 0.0
H779 H 0.16098 0.72574 0.24848 0.0
H780 H 0.1646 0.69213 0.2832 0.0
H781 H 0.12764 0.66154 0.11672 0.0
H782 H 0.16853 0.64195 0.10439 0.0
H783 H 0.1659 0.68806 0.11408 0.0
C784 C 0.57457 0.9572 0.77822 0.0
C785 C 0.59936 0.97828 0.79568 0.0
C786 C 0.53933 0.95951 0.78734 0.0
C787 C 0.5287 0.98349 0.81458 0.0
C788 C 0.55393 0.00218 0.83491 0.0
C789 C 0.58911 -0.00066 0.82521 0.0
C790 C 0.51323 0.9386 0.76542 0.0
C791 C 0.54363 0.02742 0.86467 0.0
C792 C 0.44181 0.02107 0.78794 0.0
C793 C 0.41907 -0.00097 0.80713 0.0
C794 C 0.47783 0.01827 0.79261 0.0
C795 C 0.49136 0.99279 0.81706 0.0
C796 C 0.46851 0.97296 0.83926 0.0
C797 C 0.43248 0.97634 0.83405 0.0
C798 C 0.50136 0.04042 0.76885 0.0
C799 C 0.48197 0.94602 0.86612 0.0
H800 H 0.58239 0.94036 0.75586 0.0
H801 H 0.60816 0.01548 0.83915 0.0
H802 H 0.49429 0.92567 0.78393 0.0
H803 H 0.49841 0.95638 0.74699 0.0
H804 H 0.5259 0.91832 0.74832 0.0
H805 H 0.56589 0.03363 0.88307 0.0
H806 H 0.53447 0.05211 0.85187 0.0
H807 H 0.52199 0.0168 0.88143 0.0
H808 H 0.43157 0.03912 0.76759 0.0
H809 H 0.41505 0.95939 0.84925 0.0
H810 H 0.51391 0.02372 0.74787 0.0
H811 H 0.52233 0.05234 0.78562 0.0
H812 H 0.48693 0.0616 0.75447 0.0
H813 H 0.48921 0.92202 0.85098 0.0
H814 H 0.462 0.93891 0.88684 0.0
H815 H 0.50559 0.95553 0.88055 0.0
C816 C 0.02317 0.09343 0.98561 0.0
C817 C 0.00071 0.11735 0.00238 0.0
C818 C 0.02036 0.05755 0.99271 0.0
C819 C -0.00557 0.04532 0.01712 0.0
C820 C 0.97265 0.06937 0.03533 0.0
C821 C 0.97609 0.10514 0.0278 0.0
C822 C 0.04424 0.03261 0.97297 0.0
C823 C 0.94473 0.05724 0.06155 0.0
C824 C 0.96394 0.95299 -0.00104 0.0
C825 C 0.98332 0.93389 0.02484 0.0
C826 C 0.96636 0.98946 -0.00291 0.0
C827 C 0.98877 0.00723 0.02163 0.0
C828 C 0.00718 0.98833 0.0489 0.0
C829 C 0.00417 0.95184 0.05026 0.0
C830 C 0.94603 0.00882 0.96785 0.0
C831 C 0.03126 0.00647 0.07556 0.0
H832 H 0.04238 0.10262 0.96608 0.0
H833 H 0.95864 0.12341 0.04098 0.0
H834 H 0.05724 0.01495 0.99296 0.0
H835 H 0.02881 0.01604 0.95402 0.0
H836 H 0.06451 0.04645 0.9568 0.0
H837 H 0.93196 0.07937 0.0758 0.0
H838 H 0.92457 0.04246 0.04623 0.0
H839 H 0.95587 0.03929 0.08248 0.0
H840 H 0.94758 0.93938 0.97937 0.0
H841 H 0.01922 0.93733 0.07039 0.0
H842 H 0.96426 0.02092 0.94794 0.0
H843 H 0.93071 0.03022 0.98034 0.0
H844 H 0.92799 0.99141 0.95257 0.0
H845 H 0.05367 0.01771 0.06044 0.0
H846 H 0.04137 0.98842 0.09704 0.0
H847 H 0.01764 0.02841 0.08914 0.0
C848 C 0.07574 0.46563 0.24705 0.0
C849 C 0.09707 0.47966 0.2746 0.0
C850 C 0.03991 0.46162 0.2526 0.0
C851 C 0.02517 0.47204 0.28642 0.0
C852 C 0.04694 0.48342 0.31535 0.0
C853 C 0.08271 0.487 0.30913 0.0
C854 C 0.01752 0.44881 0.22126 0.0
C855 C 0.0322 0.49455 0.35186 0.0
C856 C 0.93499 0.50989 0.27612 0.0
C857 C 0.91402 0.48173 0.28681 0.0
C858 C 0.97127 0.50745 0.27739 0.0
C859 C 0.98694 0.47594 0.28938 0.0
C860 C 0.966 0.44798 0.30194 0.0
C861 C 0.92965 0.45126 0.30066 0.0
C862 C 0.99279 0.5381 0.26433 0.0
C863 C 0.98188 0.41402 0.31487 0.0
H864 H 0.08667 0.45943 0.22045 0.0
H865 H 0.09904 0.49747 0.33078 0.0
H866 H -0.00129 0.4289 0.23109 0.0
H867 H 0.0023 0.47096 0.20981 0.0
H868 H 0.03327 0.43735 0.1988 0.0
H869 H 0.05276 0.49727 0.37318 0.0
H870 H 0.019 0.52015 0.34856 0.0
H871 H 0.01249 0.47555 0.3617 0.0
H872 H 0.92303 0.53361 0.26573 0.0
H873 H 0.91353 0.42934 0.30884 0.0
H874 H 0.00711 0.53083 0.23908 0.0
H875 H 0.01238 0.54524 0.28544 0.0
H876 H 0.97661 0.56145 0.25815 0.0
H877 H -0.00676 0.40013 0.29107 0.0
H878 H 0.96238 0.39662 0.32804 0.0
H879 H 0.0033 0.41894 0.33467 0.0
C880 C 0.52486 0.42097 0.51414 0.0
C881 C 0.49939 0.40469 0.49243 0.0
C882 C 0.52786 0.45743 0.51504 0.0
C883 C 0.50441 0.47807 0.4943 0.0
C884 C 0.47816 0.46186 0.47295 0.0
C885 C 0.47616 0.4253 0.47202 0.0
C886 C 0.55657 0.47383 0.53754 0.0
C887 C 0.45233 0.48312 0.45094 0.0
C888 C 0.49071 0.57263 0.52075 0.0
C889 C 0.50896 0.59018 0.49296 0.0
C890 C 0.48939 0.53607 0.5218 0.0
C891 C 0.50732 0.51668 0.49482 0.0
C892 C 0.5271 0.53421 0.46767 0.0
C893 C 0.52741 0.57081 0.46686 0.0
C894 C 0.46768 0.51824 0.55086 0.0
C895 C 0.54711 0.51441 0.43884 0.0
H896 H 0.54316 0.40519 0.52969 0.0
H897 H 0.4564 0.41285 0.45527 0.0
H898 H 0.57376 0.48953 0.51943 0.0
H899 H 0.5454 0.49189 0.5581 0.0
H900 H 0.57266 0.45405 0.55216 0.0
H901 H 0.43281 0.46651 0.43674 0.0
H902 H 0.43845 0.50154 0.46921 0.0
H903 H 0.46618 0.49898 0.43003 0.0
H904 H 0.47617 0.58747 0.54082 0.0
H905 H 0.54165 0.58426 0.44537 0.0
H906 H 0.48368 0.49913 0.56643 0.0
H907 H 0.44622 0.50348 0.53761 0.0
H908 H 0.45624 0.53708 0.57055 0.0
H909 H 0.56358 0.49404 0.4519 0.0
H910 H 0.56399 0.53185 0.42214 0.0
H911 H 0.52867 0.50098 0.42014 0.0
loop_
_geom_bond_atom_site_label_1
_geom_bond_atom_site_label_2
_geom_bond_distance
_geom_bond_site_symmetry_2
_ccdc_geom_bond_type
Co0 O3 1.970 1_545 S
Co0 N17 1.989 . S
Co0 O25 1.967 . S
Co0 O32 1.920 . S
Co1 O4 1.966 . S
Co1 N10 2.022 . S
Co1 N18 1.993 1_565 S
Co1 O26 1.941 . S
C2 O3 1.258 . S
C2 O4 1.263 . S
O3 Co0 1.970 1_565 S
O3 C2 1.258 . S
O4 Co1 1.966 . S
O4 C2 1.263 . S
C5 O6 1.235 . S
C5 O32 1.289 . S
O6 C5 1.235 . S
C7 C9 1.400 . S
C7 N10 1.351 . S
C7 C12 1.501 . S
C8 C9 1.387 . S
C8 N11 1.341 . S
C9 C7 1.400 . S
C9 C8 1.387 . S
N10 Co1 2.022 . S
N10 C7 1.351 . S
N10 N11 1.365 . S
N11 C8 1.341 . S
N11 N10 1.365 . S
N11 H31 0.862 . S
C12 C7 1.501 . S
C12 H13 0.961 . S
C12 H14 0.961 . S
C12 H15 0.960 . S
H13 C12 0.961 . S
H14 C12 0.961 . S
H15 C12 0.960 . S
C16 N17 1.342 . S
C16 C20 1.401 . S
C16 C21 1.499 . S
N17 Co0 1.989 . S
N17 C16 1.342 . S
N17 N18 1.388 . S
N18 Co1 1.993 1_545 S
N18 N17 1.388 . S
N18 C19 1.346 . S
C19 N18 1.346 . S
C19 C20 1.396 . S
C19 C29 1.510 . S
C20 C16 1.401 . S
C20 C19 1.396 . S
C21 C16 1.499 . S
C21 H22 0.959 . S
C21 H23 0.960 . S
C21 H24 0.961 . S
H22 C21 0.959 . S
H23 C21 0.960 . S
H24 C21 0.961 . S
O25 Co0 1.967 . S
O25 C33 1.241 1_545 S
O26 Co1 1.941 . S
O26 C33 1.284 . S
H27 C29 0.959 . S
H28 C29 0.961 . S
C29 C19 1.510 . S
C29 H27 0.959 . S
C29 H28 0.961 . S
C29 H30 0.960 1_545 S
H30 C29 0.960 1_565 S
H31 N11 0.862 . S
O32 Co0 1.920 . S
O32 C5 1.289 . S
C33 O25 1.241 1_565 S
C33 O26 1.284 . S
Co34 O37 1.970 1_655 S
Co34 N51 1.989 1_556 S
Co34 O59 1.960 1_556 S
Co34 O66 1.920 . S
Co35 O38 1.966 1_554 S
Co35 N44 2.022 . S
Co35 N52 1.993 1_455 S
Co35 O60 1.941 . S
C36 O37 1.258 . S
C36 O38 1.263 . S
O37 Co34 1.970 1_455 S
O37 C36 1.258 . S
O38 Co35 1.966 1_556 S
O38 C36 1.263 . S
C39 O40 1.235 . S
C39 O66 1.289 . S
O40 C39 1.235 . S
C41 C43 1.400 . S
C41 N44 1.351 . S
C41 C46 1.501 . S
C42 C43 1.387 . S
C42 N45 1.341 . S
C43 C41 1.400 . S
C43 C42 1.387 . S
N44 Co35 2.022 . S
N44 C41 1.351 . S
N44 N45 1.365 . S
N45 C42 1.341 . S
N45 N44 1.365 . S
N45 H65 0.862 . S
C46 C41 1.501 . S
C46 H47 0.961 . S
C46 H48 0.961 . S
C46 H49 0.960 . S
H47 C46 0.961 . S
H48 C46 0.961 . S
H49 C46 0.960 . S
C50 N51 1.342 . S
C50 C54 1.401 . S
C50 C55 1.499 1_554 S
N51 Co34 1.989 1_554 S
N51 C50 1.342 . S
N51 N52 1.388 . S
N52 Co35 1.993 1_655 S
N52 N51 1.388 . S
N52 C53 1.346 . S
C53 N52 1.346 . S
C53 C54 1.396 . S
C53 C63 1.510 1_655 S
C54 C50 1.401 . S
C54 C53 1.396 . S
C55 C50 1.499 1_556 S
C55 H56 0.959 . S
C55 H57 0.960 . S
C55 H58 0.961 1_556 S
H56 C55 0.959 . S
H57 C55 0.960 . S
H58 C55 0.961 1_554 S
O59 Co34 1.960 1_554 S
O59 C67 1.268 1_655 S
O60 Co35 1.941 . S
O60 C67 1.266 . S
H61 C63 0.959 1_655 S
H62 C63 0.961 . S
C63 C53 1.510 1_455 S
C63 H61 0.959 1_455 S
C63 H62 0.961 . S
C63 H64 0.960 . S
H64 C63 0.960 . S
H65 N45 0.862 . S
O66 Co34 1.920 . S
O66 C39 1.289 . S
C67 O59 1.268 1_455 S
C67 O60 1.266 . S
Co68 O71 1.970 . S
Co68 N85 1.989 . S
Co68 O93 1.967 . S
Co68 O100 1.920 . S
Co69 O72 1.966 . S
Co69 N78 2.022 . S
Co69 N86 1.993 . S
Co69 O94 1.941 . S
C70 O71 1.258 . S
C70 O72 1.263 . S
O71 Co68 1.970 . S
O71 C70 1.258 . S
O72 Co69 1.966 . S
O72 C70 1.263 . S
C73 O74 1.235 . S
C73 O100 1.289 . S
O74 C73 1.235 . S
C75 C77 1.400 . S
C75 N78 1.351 . S
C75 C80 1.501 . S
C76 C77 1.387 . S
C76 N79 1.341 . S
C77 C75 1.400 . S
C77 C76 1.387 . S
N78 Co69 2.022 . S
N78 C75 1.351 . S
N78 N79 1.365 . S
N79 C76 1.341 . S
N79 N78 1.365 . S
N79 H99 0.862 . S
C80 C75 1.501 . S
C80 H81 0.961 . S
C80 H82 0.961 . S
C80 H83 0.960 . S
H81 C80 0.961 . S
H82 C80 0.961 . S
H83 C80 0.960 . S
C84 N85 1.342 . S
C84 C88 1.401 . S
C84 C89 1.499 . S
N85 Co68 1.989 . S
N85 C84 1.342 . S
N85 N86 1.388 . S
N86 Co69 1.993 . S
N86 N85 1.388 . S
N86 C87 1.346 . S
C87 N86 1.346 . S
C87 C88 1.396 . S
C87 C97 1.510 . S
C88 C84 1.401 . S
C88 C87 1.396 . S
C89 C84 1.499 . S
C89 H90 0.959 . S
C89 H91 0.960 . S
C89 H92 0.961 . S
H90 C89 0.959 . S
H91 C89 0.960 . S
H92 C89 0.961 . S
O93 Co68 1.967 . S
O93 C101 1.258 . S
O94 Co69 1.941 . S
O94 C101 1.266 . S
H95 C97 0.959 . S
H96 C97 0.961 . S
C97 C87 1.510 . S
C97 H95 0.959 . S
C97 H96 0.961 . S
C97 H98 0.960 . S
H98 C97 0.960 . S
H99 N79 0.862 . S
O100 Co68 1.920 . S
O100 C73 1.289 . S
C101 O93 1.258 . S
C101 O94 1.266 . S
Co102 O105 1.970 . S
Co102 N119 1.989 . S
Co102 O127 1.967 . S
Co102 O134 1.920 . S
Co103 O106 1.966 . S
Co103 N112 2.022 . S
Co103 N120 1.993 . S
Co103 O128 1.941 . S
C104 O105 1.258 . S
C104 O106 1.263 . S
O105 Co102 1.970 . S
O105 C104 1.258 . S
O106 Co103 1.966 . S
O106 C104 1.263 . S
C107 O108 1.235 . S
C107 O134 1.289 . S
O108 C107 1.235 . S
C109 C111 1.400 . S
C109 N112 1.351 . S
C109 C114 1.501 . S
C110 C111 1.387 . S
C110 N113 1.341 . S
C111 C109 1.400 . S
C111 C110 1.387 . S
N112 Co103 2.022 . S
N112 C109 1.351 . S
N112 N113 1.365 . S
N113 C110 1.341 . S
N113 N112 1.365 . S
N113 H133 0.862 . S
C114 C109 1.501 . S
C114 H115 0.961 . S
C114 H116 0.961 . S
C114 H117 0.960 . S
H115 C114 0.961 . S
H116 C114 0.961 . S
H117 C114 0.960 . S
C118 N119 1.342 . S
C118 C122 1.401 . S
C118 C123 1.499 . S
N119 Co102 1.989 . S
N119 C118 1.342 . S
N119 N120 1.388 . S
N120 Co103 1.993 . S
N120 N119 1.388 . S
N120 C121 1.346 . S
C121 N120 1.346 . S
C121 C122 1.396 . S
C121 C131 1.510 . S
C122 C118 1.401 . S
C122 C121 1.396 . S
C123 C118 1.499 . S
C123 H124 0.959 . S
C123 H125 0.960 . S
C123 H126 0.961 . S
H124 C123 0.959 . S
H125 C123 0.960 . S
H126 C123 0.961 . S
O127 Co102 1.967 . S
O127 C135 1.258 . S
O128 Co103 1.941 . S
O128 C135 1.266 . S
H129 C131 0.959 . S
H130 C131 0.961 . S
C131 C121 1.510 . S
C131 H129 0.959 . S
C131 H130 0.961 . S
C131 H132 0.960 . S
H132 C131 0.960 . S
H133 N113 0.862 . S
O134 Co102 1.920 . S
O134 C107 1.289 . S
C135 O127 1.258 . S
C135 O128 1.266 . S
Co136 O139 1.970 1_565 S
Co136 N153 1.989 . S
Co136 O161 1.967 . S
Co136 O168 1.920 . S
Co137 O140 1.966 . S
Co137 N146 2.022 . S
Co137 N154 1.993 1_545 S
Co137 O162 1.941 . S
C138 O139 1.258 . S
C138 O140 1.263 . S
O139 Co136 1.970 1_545 S
O139 C138 1.258 . S
O140 Co137 1.966 . S
O140 C138 1.263 . S
C141 O142 1.235 . S
C141 O168 1.289 . S
O142 C141 1.235 . S
C143 C145 1.400 . S
C143 N146 1.351 . S
C143 C148 1.501 . S
C144 C145 1.387 . S
C144 N147 1.341 . S
C145 C143 1.400 . S
C145 C144 1.387 . S
N146 Co137 2.022 . S
N146 C143 1.351 . S
N146 N147 1.365 . S
N147 C144 1.341 . S
N147 N146 1.365 . S
N147 H167 0.862 . S
C148 C143 1.501 . S
C148 H149 0.961 . S
C148 H150 0.961 . S
C148 H151 0.960 . S
H149 C148 0.961 . S
H150 C148 0.961 . S
H151 C148 0.960 . S
C152 N153 1.342 . S
C152 C156 1.401 . S
C152 C157 1.499 . S
N153 Co136 1.989 . S
N153 C152 1.342 . S
N153 N154 1.388 . S
N154 Co137 1.993 1_565 S
N154 N153 1.388 . S
N154 C155 1.346 . S
C155 N154 1.346 . S
C155 C156 1.396 . S
C155 C165 1.510 1_565 S
C156 C152 1.401 . S
C156 C155 1.396 . S
C157 C152 1.499 . S
C157 H158 0.959 . S
C157 H159 0.960 . S
C157 H160 0.961 . S
H158 C157 0.959 . S
H159 C157 0.960 . S
H160 C157 0.961 . S
O161 Co136 1.967 . S
O161 C169 1.258 1_565 S
O162 Co137 1.941 . S
O162 C169 1.266 . S
H163 C165 0.959 1_565 S
H164 C165 0.961 . S
C165 C155 1.510 1_545 S
C165 H163 0.959 1_545 S
C165 H164 0.961 . S
C165 H166 0.960 . S
H166 C165 0.960 . S
H167 N147 0.862 . S
O168 Co136 1.920 . S
O168 C141 1.289 . S
C169 O161 1.258 1_545 S
C169 O162 1.266 . S
Co170 O173 1.970 1_455 S
Co170 N187 1.989 1_556 S
Co170 O195 1.965 . S
Co170 O202 1.920 . S
Co171 O174 1.966 1_554 S
Co171 N180 2.022 . S
Co171 N188 1.993 1_655 S
Co171 O196 1.941 . S
C172 O173 1.258 . S
C172 O174 1.263 . S
O173 Co170 1.970 1_655 S
O173 C172 1.258 . S
O174 Co171 1.966 1_556 S
O174 C172 1.263 . S
C175 O176 1.235 . S
C175 O202 1.289 . S
O176 C175 1.235 . S
C177 C179 1.400 . S
C177 N180 1.351 . S
C177 C182 1.501 . S
C178 C179 1.387 . S
C178 N181 1.341 . S
C179 C177 1.400 . S
C179 C178 1.387 . S
N180 Co171 2.022 . S
N180 C177 1.351 . S
N180 N181 1.365 . S
N181 C178 1.341 . S
N181 N180 1.365 . S
N181 H201 0.862 . S
C182 C177 1.501 . S
C182 H183 0.961 . S
C182 H184 0.961 . S
C182 H185 0.960 . S
H183 C182 0.961 . S
H184 C182 0.961 . S
H185 C182 0.960 . S
C186 N187 1.342 . S
C186 C190 1.401 . S
C186 C191 1.499 1_554 S
N187 Co170 1.989 1_554 S
N187 C186 1.342 . S
N187 N188 1.388 . S
N188 Co171 1.993 1_455 S
N188 N187 1.388 . S
N188 C189 1.346 . S
C189 N188 1.346 . S
C189 C190 1.396 . S
C189 C199 1.510 . S
C190 C186 1.401 . S
C190 C189 1.396 . S
C191 C186 1.499 1_556 S
C191 H192 0.959 . S
C191 H193 0.960 . S
C191 H194 0.961 1_556 S
H192 C191 0.959 . S
H193 C191 0.960 . S
H194 C191 0.961 1_554 S
O195 Co170 1.965 . S
O195 C203 1.261 1_456 S
O196 Co171 1.941 . S
O196 C203 1.266 . S
H197 C199 0.959 . S
H198 C199 0.961 . S
C199 C189 1.510 . S
C199 H197 0.959 . S
C199 H198 0.961 . S
C199 H200 0.960 1_455 S
H200 C199 0.960 1_655 S
H201 N181 0.862 . S
O202 Co170 1.920 . S
O202 C175 1.289 . S
C203 O195 1.261 1_654 S
C203 O196 1.266 . S
Co204 O207 1.970 . S
Co204 N221 1.989 . S
Co204 O229 1.967 . S
Co204 O236 1.920 . S
Co205 O208 1.966 . S
Co205 N214 2.022 . S
Co205 N222 1.993 . S
Co205 O230 1.941 . S
C206 O207 1.258 . S
C206 O208 1.263 . S
O207 Co204 1.970 . S
O207 C206 1.258 . S
O208 Co205 1.966 . S
O208 C206 1.263 . S
C209 O210 1.235 . S
C209 O236 1.289 . S
O210 C209 1.235 . S
C211 C213 1.400 . S
C211 N214 1.351 . S
C211 C216 1.501 . S
C212 C213 1.387 . S
C212 N215 1.341 . S
C213 C211 1.400 . S
C213 C212 1.387 . S
N214 Co205 2.022 . S
N214 C211 1.351 . S
N214 N215 1.365 . S
N215 C212 1.341 . S
N215 N214 1.365 . S
N215 H235 0.862 . S
C216 C211 1.501 . S
C216 H217 0.961 . S
C216 H218 0.961 . S
C216 H219 0.960 . S
H217 C216 0.961 . S
H218 C216 0.961 . S
H219 C216 0.960 . S
C220 N221 1.342 . S
C220 C224 1.401 . S
C220 C225 1.499 . S
N221 Co204 1.989 . S
N221 C220 1.342 . S
N221 N222 1.388 . S
N222 Co205 1.993 . S
N222 N221 1.388 . S
N222 C223 1.346 . S
C223 N222 1.346 . S
C223 C224 1.396 . S
C223 C233 1.510 . S
C224 C220 1.401 . S
C224 C223 1.396 . S
C225 C220 1.499 . S
C225 H226 0.959 . S
C225 H227 0.960 . S
C225 H228 0.961 . S
H226 C225 0.959 . S
H227 C225 0.960 . S
H228 C225 0.961 . S
O229 Co204 1.967 . S
O229 C237 1.258 . S
O230 Co205 1.941 . S
O230 C237 1.266 . S
H231 C233 0.959 . S
H232 C233 0.961 . S
C233 C223 1.510 . S
C233 H231 0.959 . S
C233 H232 0.961 . S
C233 H234 0.960 . S
H234 C233 0.960 . S
H235 N215 0.862 . S
O236 Co204 1.920 . S
O236 C209 1.289 . S
C237 O229 1.258 . S
C237 O230 1.266 . S
Co238 O241 1.970 . S
Co238 N255 1.989 . S
Co238 O263 1.967 . S
Co238 O270 1.920 . S
Co239 O242 1.966 . S
Co239 N248 2.022 . S
Co239 N256 1.993 . S
Co239 O264 1.941 . S
C240 O241 1.258 . S
C240 O242 1.263 . S
O241 Co238 1.970 . S
O241 C240 1.258 . S
O242 Co239 1.966 . S
O242 C240 1.263 . S
C243 O244 1.235 . S
C243 O270 1.289 . S
O244 C243 1.235 . S
C245 C247 1.400 . S
C245 N248 1.351 . S
C245 C250 1.501 . S
C246 C247 1.387 . S
C246 N249 1.341 . S
C247 C245 1.400 . S
C247 C246 1.387 . S
N248 Co239 2.022 . S
N248 C245 1.351 . S
N248 N249 1.365 . S
N249 C246 1.341 . S
N249 N248 1.365 . S
N249 H269 0.862 . S
C250 C245 1.501 . S
C250 H251 0.961 . S
C250 H252 0.961 . S
C250 H253 0.960 . S
H251 C250 0.961 . S
H252 C250 0.961 . S
H253 C250 0.960 . S
C254 N255 1.342 . S
C254 C258 1.401 . S
C254 C259 1.499 . S
N255 Co238 1.989 . S
N255 C254 1.342 . S
N255 N256 1.388 . S
N256 Co239 1.993 . S
N256 N255 1.388 . S
N256 C257 1.346 . S
C257 N256 1.346 . S
C257 C258 1.396 . S
C257 C267 1.510 . S
C258 C254 1.401 . S
C258 C257 1.396 . S
C259 C254 1.499 . S
C259 H260 0.959 . S
C259 H261 0.960 . S
C259 H262 0.961 . S
H260 C259 0.959 . S
H261 C259 0.960 . S
H262 C259 0.961 . S
O263 Co238 1.967 . S
O263 C271 1.258 . S
O264 Co239 1.941 . S
O264 C271 1.266 . S
H265 C267 0.959 . S
H266 C267 0.961 . S
C267 C257 1.510 . S
C267 H265 0.959 . S
C267 H266 0.961 . S
C267 H268 0.960 . S
H268 C267 0.960 . S
H269 N249 0.862 . S
O270 Co238 1.920 . S
O270 C243 1.289 . S
C271 O263 1.258 . S
C271 O264 1.266 . S
C272 C273 1.391 . S
C272 C274 1.394 . S
C272 H288 0.931 . S
C273 C272 1.391 . S
C273 C277 1.376 . S
C274 C272 1.394 . S
C274 C275 1.369 . S
C274 C278 1.531 . S
C275 C274 1.369 . S
C275 C276 1.410 . S
C275 C283 1.503 . S
C276 C275 1.410 . S
C276 C277 1.392 . S
C276 C279 1.511 . S
C277 C273 1.376 . S
C277 C276 1.392 . S
C277 H289 0.929 . S
C278 C274 1.531 . S
C278 H290 0.960 . S
C278 H291 0.962 . S
C278 H292 0.960 . S
C279 C276 1.511 . S
C279 H293 0.961 . S
C279 H294 0.961 . S
C279 H295 0.961 . S
C280 C281 1.370 . S
C280 C282 1.363 . S
C280 H296 0.931 . S
C281 C280 1.370 . S
C281 C285 1.408 . S
C282 C280 1.363 . S
C282 C283 1.370 . S
C282 C286 1.524 . S
C283 C275 1.503 . S
C283 C282 1.370 . S
C283 C284 1.403 . S
C284 C283 1.403 . S
C284 C285 1.404 . S
C284 C287 1.539 . S
C285 C281 1.408 . S
C285 C284 1.404 . S
C285 H297 0.930 . S
C286 C282 1.524 . S
C286 H298 0.956 . S
C286 H299 0.961 . S
C286 H300 0.961 . S
C287 C284 1.539 . S
C287 H301 0.958 . S
C287 H302 0.961 . S
C287 H303 0.960 . S
H288 C272 0.931 . S
H289 C277 0.929 . S
H290 C278 0.960 . S
H291 C278 0.962 . S
H292 C278 0.960 . S
H293 C279 0.961 . S
H294 C279 0.961 . S
H295 C279 0.961 . S
H296 C280 0.931 . S
H297 C285 0.930 . S
H298 C286 0.956 . S
H299 C286 0.961 . S
H300 C286 0.961 . S
H301 C287 0.958 . S
H302 C287 0.961 . S
H303 C287 0.960 . S
C304 C305 1.391 . S
C304 C306 1.394 . S
C304 H320 0.931 . S
C305 C304 1.391 . S
C305 C309 1.376 . S
C306 C304 1.394 . S
C306 C307 1.369 . S
C306 C310 1.531 . S
C307 C306 1.369 . S
C307 C308 1.410 . S
C307 C315 1.503 . S
C308 C307 1.410 . S
C308 C309 1.392 . S
C308 C311 1.511 . S
C309 C305 1.376 . S
C309 C308 1.392 . S
C309 H321 0.929 . S
C310 C306 1.531 . S
C310 H322 0.960 . S
C310 H323 0.962 . S
C310 H324 0.960 . S
C311 C308 1.511 . S
C311 H325 0.961 . S
C311 H326 0.961 . S
C311 H327 0.961 . S
C312 C313 1.370 . S
C312 C314 1.363 . S
C312 H328 0.931 . S
C313 C312 1.370 . S
C313 C317 1.408 . S
C314 C312 1.363 . S
C314 C315 1.370 . S
C314 C318 1.524 . S
C315 C307 1.503 . S
C315 C314 1.370 . S
C315 C316 1.403 . S
C316 C315 1.403 . S
C316 C317 1.404 . S
C316 C319 1.539 . S
C317 C313 1.408 . S
C317 C316 1.404 . S
C317 H329 0.930 . S
C318 C314 1.524 . S
C318 H330 0.956 . S
C318 H331 0.961 . S
C318 H332 0.961 . S
C319 C316 1.539 . S
C319 H333 0.958 . S
C319 H334 0.961 . S
C319 H335 0.960 . S
H320 C304 0.931 . S
H321 C309 0.929 . S
H322 C310 0.960 . S
H323 C310 0.962 . S
H324 C310 0.960 . S
H325 C311 0.961 . S
H326 C311 0.961 . S
H327 C311 0.961 . S
H328 C312 0.931 . S
H329 C317 0.930 . S
H330 C318 0.956 . S
H331 C318 0.961 . S
H332 C318 0.961 . S
H333 C319 0.958 . S
H334 C319 0.961 . S
H335 C319 0.960 . S
C336 C337 1.391 . S
C336 C338 1.394 . S
C336 H352 0.931 . S
C337 C336 1.391 . S
C337 C341 1.376 . S
C338 C336 1.394 . S
C338 C339 1.369 . S
C338 C342 1.531 . S
C339 C338 1.369 . S
C339 C340 1.410 . S
C339 C347 1.503 . S
C340 C339 1.410 . S
C340 C341 1.392 . S
C340 C343 1.511 . S
C341 C337 1.376 . S
C341 C340 1.392 . S
C341 H353 0.929 . S
C342 C338 1.531 . S
C342 H354 0.960 . S
C342 H355 0.962 . S
C342 H356 0.960 . S
C343 C340 1.511 . S
C343 H357 0.961 . S
C343 H358 0.961 . S
C343 H359 0.961 . S
C344 C345 1.370 . S
C344 C346 1.363 . S
C344 H360 0.931 . S
C345 C344 1.370 . S
C345 C349 1.408 . S
C346 C344 1.363 . S
C346 C347 1.370 . S
C346 C350 1.524 . S
C347 C339 1.503 . S
C347 C346 1.370 . S
C347 C348 1.403 . S
C348 C347 1.403 . S
C348 C349 1.404 . S
C348 C351 1.539 . S
C349 C345 1.408 . S
C349 C348 1.404 . S
C349 H361 0.930 . S
C350 C346 1.524 . S
C350 H362 0.956 . S
C350 H363 0.961 . S
C350 H364 0.961 . S
C351 C348 1.539 . S
C351 H365 0.958 . S
C351 H366 0.961 . S
C351 H367 0.960 . S
H352 C336 0.931 . S
H353 C341 0.929 . S
H354 C342 0.960 . S
H355 C342 0.962 . S
H356 C342 0.960 . S
H357 C343 0.961 . S
H358 C343 0.961 . S
H359 C343 0.961 . S
H360 C344 0.931 . S
H361 C349 0.930 . S
H362 C350 0.956 . S
H363 C350 0.961 . S
H364 C350 0.961 . S
H365 C351 0.958 . S
H366 C351 0.961 . S
H367 C351 0.960 . S
C368 C369 1.391 . S
C368 C370 1.394 . S
C368 H384 0.931 . S
C369 C368 1.391 . S
C369 C373 1.376 . S
C370 C368 1.394 . S
C370 C371 1.369 . S
C370 C374 1.531 . S
C371 C370 1.369 . S
C371 C372 1.410 . S
C371 C379 1.503 . S
C372 C371 1.410 . S
C372 C373 1.392 . S
C372 C375 1.511 . S
C373 C369 1.376 . S
C373 C372 1.392 . S
C373 H385 0.929 . S
C374 C370 1.531 . S
C374 H386 0.960 . S
C374 H387 0.962 . S
C374 H388 0.960 . S
C375 C372 1.511 . S
C375 H389 0.961 . S
C375 H390 0.961 . S
C375 H391 0.961 . S
C376 C377 1.370 . S
C376 C378 1.363 . S
C376 H392 0.931 . S
C377 C376 1.370 . S
C377 C381 1.408 . S
C378 C376 1.363 . S
C378 C379 1.370 . S
C378 C382 1.524 . S
C379 C371 1.503 . S
C379 C378 1.370 . S
C379 C380 1.403 . S
C380 C379 1.403 . S
C380 C381 1.404 . S
C380 C383 1.539 . S
C381 C377 1.408 . S
C381 C380 1.404 . S
C381 H393 0.930 . S
C382 C378 1.524 . S
C382 H394 0.956 . S
C382 H395 0.961 . S
C382 H396 0.961 . S
C383 C380 1.539 . S
C383 H397 0.958 . S
C383 H398 0.961 . S
C383 H399 0.960 . S
H384 C368 0.931 . S
H385 C373 0.929 . S
H386 C374 0.960 . S
H387 C374 0.962 . S
H388 C374 0.960 . S
H389 C375 0.961 . S
H390 C375 0.961 . S
H391 C375 0.961 . S
H392 C376 0.931 . S
H393 C381 0.930 . S
H394 C382 0.956 . S
H395 C382 0.961 . S
H396 C382 0.961 . S
H397 C383 0.958 . S
H398 C383 0.961 . S
H399 C383 0.960 . S
C400 C401 1.391 . S
C400 C402 1.394 . S
C400 H416 0.931 . S
C401 C400 1.391 . S
C401 C405 1.376 . S
C402 C400 1.394 . S
C402 C403 1.369 . S
C402 C406 1.531 . S
C403 C402 1.369 . S
C403 C404 1.410 . S
C403 C411 1.503 . S
C404 C403 1.410 . S
C404 C405 1.392 . S
C404 C407 1.511 . S
C405 C401 1.376 . S
C405 C404 1.392 . S
C405 H417 0.929 . S
C406 C402 1.531 . S
C406 H418 0.960 . S
C406 H419 0.962 . S
C406 H420 0.960 . S
C407 C404 1.511 . S
C407 H421 0.961 . S
C407 H422 0.961 . S
C407 H423 0.961 . S
C408 C409 1.370 . S
C408 C410 1.363 . S
C408 H424 0.931 . S
C409 C408 1.370 . S
C409 C413 1.408 . S
C410 C408 1.363 . S
C410 C411 1.370 . S
C410 C414 1.524 . S
C411 C403 1.503 . S
C411 C410 1.370 . S
C411 C412 1.403 . S
C412 C411 1.403 . S
C412 C413 1.404 . S
C412 C415 1.539 . S
C413 C409 1.408 . S
C413 C412 1.404 . S
C413 H425 0.930 . S
C414 C410 1.524 . S
C414 H426 0.956 . S
C414 H427 0.961 . S
C414 H428 0.961 . S
C415 C412 1.539 . S
C415 H429 0.958 . S
C415 H430 0.961 . S
C415 H431 0.960 . S
H416 C400 0.931 . S
H417 C405 0.929 . S
H418 C406 0.960 . S
H419 C406 0.962 . S
H420 C406 0.960 . S
H421 C407 0.961 . S
H422 C407 0.961 . S
H423 C407 0.961 . S
H424 C408 0.931 . S
H425 C413 0.930 . S
H426 C414 0.956 . S
H427 C414 0.961 . S
H428 C414 0.961 . S
H429 C415 0.958 . S
H430 C415 0.961 . S
H431 C415 0.960 . S
C432 C433 1.391 . S
C432 C434 1.394 . S
C432 H448 0.931 . S
C433 C432 1.391 . S
C433 C437 1.376 . S
C434 C432 1.394 . S
C434 C435 1.369 . S
C434 C438 1.531 . S
C435 C434 1.369 . S
C435 C436 1.410 . S
C435 C443 1.503 . S
C436 C435 1.410 . S
C436 C437 1.392 . S
C436 C439 1.511 . S
C437 C433 1.376 . S
C437 C436 1.392 . S
C437 H449 0.929 . S
C438 C434 1.531 . S
C438 H450 0.960 . S
C438 H451 0.962 . S
C438 H452 0.960 . S
C439 C436 1.511 . S
C439 H453 0.961 . S
C439 H454 0.961 . S
C439 H455 0.961 . S
C440 C441 1.370 . S
C440 C442 1.363 . S
C440 H456 0.931 . S
C441 C440 1.370 . S
C441 C445 1.408 . S
C442 C440 1.363 . S
C442 C443 1.370 . S
C442 C446 1.524 . S
C443 C435 1.503 . S
C443 C442 1.370 . S
C443 C444 1.403 . S
C444 C443 1.403 . S
C444 C445 1.404 . S
C444 C447 1.539 . S
C445 C441 1.408 . S
C445 C444 1.404 . S
C445 H457 0.930 . S
C446 C442 1.524 . S
C446 H458 0.956 . S
C446 H459 0.961 . S
C446 H460 0.961 . S
C447 C444 1.539 . S
C447 H461 0.958 . S
C447 H462 0.961 . S
C447 H463 0.960 . S
H448 C432 0.931 . S
H449 C437 0.929 . S
H450 C438 0.960 . S
H451 C438 0.962 . S
H452 C438 0.960 . S
H453 C439 0.961 . S
H454 C439 0.961 . S
H455 C439 0.961 . S
H456 C440 0.931 . S
H457 C445 0.930 . S
H458 C446 0.956 . S
H459 C446 0.961 . S
H460 C446 0.961 . S
H461 C447 0.958 . S
H462 C447 0.961 . S
H463 C447 0.960 . S
C464 C465 1.391 . S
C464 C466 1.394 . S
C464 H480 0.931 . S
C465 C464 1.391 . S
C465 C469 1.376 . S
C466 C464 1.394 . S
C466 C467 1.369 . S
C466 C470 1.531 . S
C467 C466 1.369 . S
C467 C468 1.410 . S
C467 C475 1.503 . S
C468 C467 1.410 . S
C468 C469 1.392 . S
C468 C471 1.511 . S
C469 C465 1.376 . S
C469 C468 1.392 . S
C469 H481 0.929 . S
C470 C466 1.531 . S
C470 H482 0.960 . S
C470 H483 0.962 . S
C470 H484 0.960 . S
C471 C468 1.511 . S
C471 H485 0.961 . S
C471 H486 0.961 . S
C471 H487 0.961 . S
C472 C473 1.370 . S
C472 C474 1.363 . S
C472 H488 0.931 . S
C473 C472 1.370 . S
C473 C477 1.408 . S
C474 C472 1.363 . S
C474 C475 1.370 . S
C474 C478 1.524 . S
C475 C467 1.503 . S
C475 C474 1.370 . S
C475 C476 1.403 . S
C476 C475 1.403 . S
C476 C477 1.404 . S
C476 C479 1.539 . S
C477 C473 1.408 . S
C477 C476 1.404 . S
C477 H489 0.930 . S
C478 C474 1.524 . S
C478 H490 0.956 . S
C478 H491 0.961 . S
C478 H492 0.961 . S
C479 C476 1.539 . S
C479 H493 0.958 . S
C479 H494 0.961 . S
C479 H495 0.960 . S
H480 C464 0.931 . S
H481 C469 0.929 . S
H482 C470 0.960 . S
H483 C470 0.962 . S
H484 C470 0.960 . S
H485 C471 0.961 . S
H486 C471 0.961 . S
H487 C471 0.961 . S
H488 C472 0.931 . S
H489 C477 0.930 . S
H490 C478 0.956 . S
H491 C478 0.961 . S
H492 C478 0.961 . S
H493 C479 0.958 . S
H494 C479 0.961 . S
H495 C479 0.960 . S
C496 C497 1.391 . S
C496 C498 1.394 . S
C496 H512 0.931 . S
C497 C496 1.391 . S
C497 C501 1.376 . S
C498 C496 1.394 . S
C498 C499 1.369 . S
C498 C502 1.531 . S
C499 C498 1.369 . S
C499 C500 1.410 . S
C499 C507 1.503 . S
C500 C499 1.410 . S
C500 C501 1.392 . S
C500 C503 1.511 . S
C501 C497 1.376 . S
C501 C500 1.392 . S
C501 H513 0.929 . S
C502 C498 1.531 . S
C502 H514 0.960 . S
C502 H515 0.962 . S
C502 H516 0.960 . S
C503 C500 1.511 . S
C503 H517 0.961 . S
C503 H518 0.961 . S
C503 H519 0.961 . S
C504 C505 1.370 . S
C504 C506 1.363 . S
C504 H520 0.931 . S
C505 C504 1.370 . S
C505 C509 1.408 . S
C506 C504 1.363 . S
C506 C507 1.370 . S
C506 C510 1.524 . S
C507 C499 1.503 . S
C507 C506 1.370 . S
C507 C508 1.403 . S
C508 C507 1.403 . S
C508 C509 1.404 . S
C508 C511 1.539 . S
C509 C505 1.408 . S
C509 C508 1.404 . S
C509 H521 0.930 . S
C510 C506 1.524 . S
C510 H522 0.956 . S
C510 H523 0.961 . S
C510 H524 0.961 . S
C511 C508 1.539 . S
C511 H525 0.958 . S
C511 H526 0.961 . S
C511 H527 0.960 . S
H512 C496 0.931 . S
H513 C501 0.929 . S
H514 C502 0.960 . S
H515 C502 0.962 . S
H516 C502 0.960 . S
H517 C503 0.961 . S
H518 C503 0.961 . S
H519 C503 0.961 . S
H520 C504 0.931 . S
H521 C509 0.930 . S
H522 C510 0.956 . S
H523 C510 0.961 . S
H524 C510 0.961 . S
H525 C511 0.958 . S
H526 C511 0.961 . S
H527 C511 0.960 . S
C528 C529 1.391 . S
C528 C530 1.394 . S
C528 H544 0.931 . S
C529 C528 1.391 . S
C529 C533 1.376 . S
C530 C528 1.394 . S
C530 C531 1.369 . S
C530 C534 1.531 . S
C531 C530 1.369 . S
C531 C532 1.410 . S
C531 C539 1.503 . S
C532 C531 1.410 . S
C532 C533 1.392 . S
C532 C535 1.511 . S
C533 C529 1.376 . S
C533 C532 1.392 . S
C533 H545 0.929 . S
C534 C530 1.531 . S
C534 H546 0.960 . S
C534 H547 0.962 . S
C534 H548 0.960 . S
C535 C532 1.511 . S
C535 H549 0.961 . S
C535 H550 0.961 . S
C535 H551 0.961 . S
C536 C537 1.370 . S
C536 C538 1.363 . S
C536 H552 0.931 . S
C537 C536 1.370 . S
C537 C541 1.408 . S
C538 C536 1.363 . S
C538 C539 1.370 . S
C538 C542 1.524 . S
C539 C531 1.503 . S
C539 C538 1.370 . S
C539 C540 1.403 . S
C540 C539 1.403 . S
C540 C541 1.404 . S
C540 C543 1.539 . S
C541 C537 1.408 . S
C541 C540 1.404 . S
C541 H553 0.930 . S
C542 C538 1.524 . S
C542 H554 0.956 . S
C542 H555 0.961 . S
C542 H556 0.961 . S
C543 C540 1.539 . S
C543 H557 0.958 . S
C543 H558 0.961 . S
C543 H559 0.960 . S
H544 C528 0.931 . S
H545 C533 0.929 . S
H546 C534 0.960 . S
H547 C534 0.962 . S
H548 C534 0.960 . S
H549 C535 0.961 . S
H550 C535 0.961 . S
H551 C535 0.961 . S
H552 C536 0.931 . S
H553 C541 0.930 . S
H554 C542 0.956 . S
H555 C542 0.961 . S
H556 C542 0.961 . S
H557 C543 0.958 . S
H558 C543 0.961 . S
H559 C543 0.960 . S
C560 C561 1.391 . S
C560 C562 1.394 . S
C560 H576 0.931 . S
C561 C560 1.391 . S
C561 C565 1.376 . S
C562 C560 1.394 . S
C562 C563 1.369 . S
C562 C566 1.531 . S
C563 C562 1.369 . S
C563 C564 1.410 . S
C563 C571 1.503 . S
C564 C563 1.410 . S
C564 C565 1.392 . S
C564 C567 1.511 . S
C565 C561 1.376 . S
C565 C564 1.392 . S
C565 H577 0.929 . S
C566 C562 1.531 . S
C566 H578 0.960 . S
C566 H579 0.962 . S
C566 H580 0.960 . S
C567 C564 1.511 . S
C567 H581 0.961 . S
C567 H582 0.961 . S
C567 H583 0.961 . S
C568 C569 1.370 . S
C568 C570 1.363 . S
C568 H584 0.931 . S
C569 C568 1.370 . S
C569 C573 1.408 . S
C570 C568 1.363 . S
C570 C571 1.370 . S
C570 C574 1.524 . S
C571 C563 1.503 . S
C571 C570 1.370 . S
C571 C572 1.403 . S
C572 C571 1.403 . S
C572 C573 1.404 . S
C572 C575 1.539 . S
C573 C569 1.408 . S
C573 C572 1.404 . S
C573 H585 0.930 . S
C574 C570 1.524 . S
C574 H586 0.956 . S
C574 H587 0.961 . S
C574 H588 0.961 . S
C575 C572 1.539 . S
C575 H589 0.958 . S
C575 H590 0.961 . S
C575 H591 0.960 . S
H576 C560 0.931 . S
H577 C565 0.929 . S
H578 C566 0.960 . S
H579 C566 0.962 . S
H580 C566 0.960 . S
H581 C567 0.961 . S
H582 C567 0.961 . S
H583 C567 0.961 . S
H584 C568 0.931 . S
H585 C573 0.930 . S
H586 C574 0.956 . S
H587 C574 0.961 . S
H588 C574 0.961 . S
H589 C575 0.958 . S
H590 C575 0.961 . S
H591 C575 0.960 . S
C592 C593 1.391 . S
C592 C594 1.394 . S
C592 H608 0.931 . S
C593 C592 1.391 . S
C593 C597 1.376 . S
C594 C592 1.394 . S
C594 C595 1.369 . S
C594 C598 1.531 . S
C595 C594 1.369 . S
C595 C596 1.410 . S
C595 C603 1.503 . S
C596 C595 1.410 . S
C596 C597 1.392 . S
C596 C599 1.511 . S
C597 C593 1.376 . S
C597 C596 1.392 . S
C597 H609 0.929 . S
C598 C594 1.531 . S
C598 H610 0.960 . S
C598 H611 0.962 . S
C598 H612 0.960 . S
C599 C596 1.511 . S
C599 H613 0.961 . S
C599 H614 0.961 . S
C599 H615 0.961 . S
C600 C601 1.370 . S
C600 C602 1.363 . S
C600 H616 0.931 . S
C601 C600 1.370 . S
C601 C605 1.408 . S
C602 C600 1.363 . S
C602 C603 1.370 . S
C602 C606 1.524 . S
C603 C595 1.503 . S
C603 C602 1.370 . S
C603 C604 1.403 . S
C604 C603 1.403 . S
C604 C605 1.404 . S
C604 C607 1.539 . S
C605 C601 1.408 . S
C605 C604 1.404 . S
C605 H617 0.930 . S
C606 C602 1.524 . S
C606 H618 0.956 . S
C606 H619 0.961 . S
C606 H620 0.961 . S
C607 C604 1.539 . S
C607 H621 0.958 . S
C607 H622 0.961 . S
C607 H623 0.960 . S
H608 C592 0.931 . S
H609 C597 0.929 . S
H610 C598 0.960 . S
H611 C598 0.962 . S
H612 C598 0.960 . S
H613 C599 0.961 . S
H614 C599 0.961 . S
H615 C599 0.961 . S
H616 C600 0.931 . S
H617 C605 0.930 . S
H618 C606 0.956 . S
H619 C606 0.961 . S
H620 C606 0.961 . S
H621 C607 0.958 . S
H622 C607 0.961 . S
H623 C607 0.960 . S
C624 C625 1.391 . S
C624 C626 1.394 . S
C624 H640 0.931 . S
C625 C624 1.391 . S
C625 C629 1.376 . S
C626 C624 1.394 . S
C626 C627 1.369 . S
C626 C630 1.531 . S
C627 C626 1.369 . S
C627 C628 1.410 . S
C627 C635 1.503 . S
C628 C627 1.410 . S
C628 C629 1.392 . S
C628 C631 1.511 . S
C629 C625 1.376 . S
C629 C628 1.392 . S
C629 H641 0.929 . S
C630 C626 1.531 . S
C630 H642 0.960 . S
C630 H643 0.962 . S
C630 H644 0.960 . S
C631 C628 1.511 . S
C631 H645 0.961 . S
C631 H646 0.961 . S
C631 H647 0.961 . S
C632 C633 1.370 . S
C632 C634 1.363 . S
C632 H648 0.931 . S
C633 C632 1.370 . S
C633 C637 1.408 . S
C634 C632 1.363 . S
C634 C635 1.370 . S
C634 C638 1.524 . S
C635 C627 1.503 . S
C635 C634 1.370 . S
C635 C636 1.403 . S
C636 C635 1.403 . S
C636 C637 1.404 . S
C636 C639 1.539 . S
C637 C633 1.408 . S
C637 C636 1.404 . S
C637 H649 0.930 . S
C638 C634 1.524 . S
C638 H650 0.956 . S
C638 H651 0.961 . S
C638 H652 0.961 . S
C639 C636 1.539 . S
C639 H653 0.958 . S
C639 H654 0.961 . S
C639 H655 0.960 . S
H640 C624 0.931 . S
H641 C629 0.929 . S
H642 C630 0.960 . S
H643 C630 0.962 . S
H644 C630 0.960 . S
H645 C631 0.961 . S
H646 C631 0.961 . S
H647 C631 0.961 . S
H648 C632 0.931 . S
H649 C637 0.930 . S
H650 C638 0.956 . S
H651 C638 0.961 . S
H652 C638 0.961 . S
H653 C639 0.958 . S
H654 C639 0.961 . S
H655 C639 0.960 . S
C656 C657 1.391 . S
C656 C658 1.394 . S
C656 H672 0.931 . S
C657 C656 1.391 . S
C657 C661 1.376 . S
C658 C656 1.394 . S
C658 C659 1.369 . S
C658 C662 1.531 . S
C659 C658 1.369 . S
C659 C660 1.410 . S
C659 C667 1.503 . S
C660 C659 1.410 . S
C660 C661 1.392 . S
C660 C663 1.511 . S
C661 C657 1.376 . S
C661 C660 1.392 . S
C661 H673 0.929 . S
C662 C658 1.531 . S
C662 H674 0.960 . S
C662 H675 0.962 . S
C662 H676 0.960 . S
C663 C660 1.511 . S
C663 H677 0.961 . S
C663 H678 0.961 . S
C663 H679 0.961 . S
C664 C665 1.370 . S
C664 C666 1.363 . S
C664 H680 0.931 . S
C665 C664 1.370 . S
C665 C669 1.408 . S
C666 C664 1.363 . S
C666 C667 1.370 . S
C666 C670 1.524 . S
C667 C659 1.503 . S
C667 C666 1.370 . S
C667 C668 1.403 . S
C668 C667 1.403 . S
C668 C669 1.404 . S
C668 C671 1.539 . S
C669 C665 1.408 . S
C669 C668 1.404 . S
C669 H681 0.930 . S
C670 C666 1.524 . S
C670 H682 0.956 . S
C670 H683 0.961 . S
C670 H684 0.961 . S
C671 C668 1.539 . S
C671 H685 0.958 . S
C671 H686 0.961 . S
C671 H687 0.960 . S
H672 C656 0.931 . S
H673 C661 0.929 . S
H674 C662 0.960 . S
H675 C662 0.962 . S
H676 C662 0.960 . S
H677 C663 0.961 . S
H678 C663 0.961 . S
H679 C663 0.961 . S
H680 C664 0.931 . S
H681 C669 0.930 . S
H682 C670 0.956 . S
H683 C670 0.961 . S
H684 C670 0.961 . S
H685 C671 0.958 . S
H686 C671 0.961 . S
H687 C671 0.960 . S
C688 C689 1.391 . S
C688 C690 1.394 . S
C688 H704 0.931 . S
C689 C688 1.391 . S
C689 C693 1.376 . S
C690 C688 1.394 . S
C690 C691 1.369 . S
C690 C694 1.531 . S
C691 C690 1.369 . S
C691 C692 1.410 . S
C691 C699 1.503 . S
C692 C691 1.410 . S
C692 C693 1.392 . S
C692 C695 1.511 . S
C693 C689 1.376 . S
C693 C692 1.392 . S
C693 H705 0.929 . S
C694 C690 1.531 . S
C694 H706 0.960 . S
C694 H707 0.962 . S
C694 H708 0.960 . S
C695 C692 1.511 . S
C695 H709 0.961 . S
C695 H710 0.961 . S
C695 H711 0.961 . S
C696 C697 1.370 . S
C696 C698 1.363 . S
C696 H712 0.931 . S
C697 C696 1.370 . S
C697 C701 1.408 . S
C698 C696 1.363 . S
C698 C699 1.370 . S
C698 C702 1.524 . S
C699 C691 1.503 . S
C699 C698 1.370 . S
C699 C700 1.403 . S
C700 C699 1.403 . S
C700 C701 1.404 . S
C700 C703 1.539 . S
C701 C697 1.408 . S
C701 C700 1.404 . S
C701 H713 0.930 . S
C702 C698 1.524 . S
C702 H714 0.956 . S
C702 H715 0.961 . S
C702 H716 0.961 . S
C703 C700 1.539 . S
C703 H717 0.958 . S
C703 H718 0.961 . S
C703 H719 0.960 . S
H704 C688 0.931 . S
H705 C693 0.929 . S
H706 C694 0.960 . S
H707 C694 0.962 . S
H708 C694 0.960 . S
H709 C695 0.961 . S
H710 C695 0.961 . S
H711 C695 0.961 . S
H712 C696 0.931 . S
H713 C701 0.930 . S
H714 C702 0.956 . S
H715 C702 0.961 . S
H716 C702 0.961 . S
H717 C703 0.958 . S
H718 C703 0.961 . S
H719 C703 0.960 . S
C720 C721 1.391 . S
C720 C722 1.394 . S
C720 H736 0.931 . S
C721 C720 1.391 . S
C721 C725 1.376 . S
C722 C720 1.394 . S
C722 C723 1.369 . S
C722 C726 1.531 . S
C723 C722 1.369 . S
C723 C724 1.410 . S
C723 C731 1.503 . S
C724 C723 1.410 . S
C724 C725 1.392 . S
C724 C727 1.511 . S
C725 C721 1.376 . S
C725 C724 1.392 . S
C725 H737 0.929 . S
C726 C722 1.531 . S
C726 H738 0.960 . S
C726 H739 0.962 . S
C726 H740 0.960 . S
C727 C724 1.511 . S
C727 H741 0.961 . S
C727 H742 0.961 . S
C727 H743 0.961 . S
C728 C729 1.370 . S
C728 C730 1.363 . S
C728 H744 0.931 . S
C729 C728 1.370 . S
C729 C733 1.408 . S
C730 C728 1.363 . S
C730 C731 1.370 . S
C730 C734 1.524 . S
C731 C723 1.503 . S
C731 C730 1.370 . S
C731 C732 1.403 . S
C732 C731 1.403 . S
C732 C733 1.404 . S
C732 C735 1.539 . S
C733 C729 1.408 . S
C733 C732 1.404 . S
C733 H745 0.930 . S
C734 C730 1.524 . S
C734 H746 0.956 . S
C734 H747 0.961 . S
C734 H748 0.961 . S
C735 C732 1.539 . S
C735 H749 0.958 . S
C735 H750 0.961 . S
C735 H751 0.960 . S
H736 C720 0.931 . S
H737 C725 0.929 . S
H738 C726 0.960 . S
H739 C726 0.962 . S
H740 C726 0.960 . S
H741 C727 0.961 . S
H742 C727 0.961 . S
H743 C727 0.961 . S
H744 C728 0.931 . S
H745 C733 0.930 . S
H746 C734 0.956 . S
H747 C734 0.961 . S
H748 C734 0.961 . S
H749 C735 0.958 . S
H750 C735 0.961 . S
H751 C735 0.960 . S
C752 C753 1.391 . S
C752 C754 1.394 . S
C752 H768 0.931 . S
C753 C752 1.391 . S
C753 C757 1.376 . S
C754 C752 1.394 . S
C754 C755 1.369 . S
C754 C758 1.531 . S
C755 C754 1.369 . S
C755 C756 1.410 . S
C755 C763 1.503 . S
C756 C755 1.410 . S
C756 C757 1.392 . S
C756 C759 1.511 . S
C757 C753 1.376 . S
C757 C756 1.392 . S
C757 H769 0.929 . S
C758 C754 1.531 . S
C758 H770 0.960 . S
C758 H771 0.962 . S
C758 H772 0.960 . S
C759 C756 1.511 . S
C759 H773 0.961 . S
C759 H774 0.961 . S
C759 H775 0.961 . S
C760 C761 1.370 . S
C760 C762 1.363 . S
C760 H776 0.931 . S
C761 C760 1.370 . S
C761 C765 1.408 . S
C762 C760 1.363 . S
C762 C763 1.370 . S
C762 C766 1.524 . S
C763 C755 1.503 . S
C763 C762 1.370 . S
C763 C764 1.403 . S
C764 C763 1.403 . S
C764 C765 1.404 . S
C764 C767 1.539 . S
C765 C761 1.408 . S
C765 C764 1.404 . S
C765 H777 0.930 . S
C766 C762 1.524 . S
C766 H778 0.956 . S
C766 H779 0.961 . S
C766 H780 0.961 . S
C767 C764 1.539 . S
C767 H781 0.958 . S
C767 H782 0.961 . S
C767 H783 0.960 . S
H768 C752 0.931 . S
H769 C757 0.929 . S
H770 C758 0.960 . S
H771 C758 0.962 . S
H772 C758 0.960 . S
H773 C759 0.961 . S
H774 C759 0.961 . S
H775 C759 0.961 . S
H776 C760 0.931 . S
H777 C765 0.930 . S
H778 C766 0.956 . S
H779 C766 0.961 . S
H780 C766 0.961 . S
H781 C767 0.958 . S
H782 C767 0.961 . S
H783 C767 0.960 . S
C784 C785 1.391 1_565 S
C784 C786 1.394 . S
C784 H800 0.931 . S
C785 C784 1.391 1_545 S
C785 C789 1.376 . S
C786 C784 1.394 . S
C786 C787 1.369 1_565 S
C786 C790 1.531 . S
C787 C786 1.369 1_545 S
C787 C788 1.410 . S
C787 C795 1.503 . S
C788 C787 1.410 . S
C788 C789 1.392 . S
C788 C791 1.511 . S
C789 C785 1.376 . S
C789 C788 1.392 . S
C789 H801 0.929 . S
C790 C786 1.531 . S
C790 H802 0.960 . S
C790 H803 0.962 . S
C790 H804 0.960 . S
C791 C788 1.511 . S
C791 H805 0.961 . S
C791 H806 0.961 . S
C791 H807 0.961 . S
C792 C793 1.370 1_565 S
C792 C794 1.363 . S
C792 H808 0.931 . S
C793 C792 1.370 1_545 S
C793 C797 1.408 . S
C794 C792 1.363 . S
C794 C795 1.370 1_565 S
C794 C798 1.524 . S
C795 C787 1.503 . S
C795 C794 1.370 1_545 S
C795 C796 1.403 . S
C796 C795 1.403 . S
C796 C797 1.404 . S
C796 C799 1.539 . S
C797 C793 1.408 . S
C797 C796 1.404 . S
C797 H809 0.930 . S
C798 C794 1.524 . S
C798 H810 0.956 . S
C798 H811 0.961 . S
C798 H812 0.961 . S
C799 C796 1.539 . S
C799 H813 0.958 . S
C799 H814 0.961 . S
C799 H815 0.960 . S
H800 C784 0.931 . S
H801 C789 0.929 . S
H802 C790 0.960 . S
H803 C790 0.962 . S
H804 C790 0.960 . S
H805 C791 0.961 . S
H806 C791 0.961 . S
H807 C791 0.961 . S
H808 C792 0.931 . S
H809 C797 0.930 . S
H810 C798 0.956 . S
H811 C798 0.961 . S
H812 C798 0.961 . S
H813 C799 0.958 . S
H814 C799 0.961 . S
H815 C799 0.960 . S
C816 C817 1.391 . S
C816 C818 1.394 . S
C816 H832 0.931 1_554 S
C817 C816 1.391 . S
C817 C821 1.376 . S
C818 C816 1.394 . S
C818 C819 1.369 . S
C818 C822 1.531 1_554 S
C819 C818 1.369 . S
C819 C820 1.410 . S
C819 C827 1.503 1_545 S
C820 C819 1.410 . S
C820 C821 1.392 . S
C820 C823 1.511 . S
C821 C817 1.376 . S
C821 C820 1.392 . S
C821 H833 0.929 . S
C822 C818 1.531 1_556 S
C822 H834 0.960 . S
C822 H835 0.962 1_455 S
C822 H836 0.960 . S
C823 C820 1.511 . S
C823 H837 0.972 . S
C823 H838 0.961 . S
C823 H839 0.961 . S
C824 C825 1.370 1_655 S
C824 C826 1.363 . S
C824 H840 0.931 . S
C825 C824 1.370 1_455 S
C825 C829 1.408 . S
C826 C824 1.363 . S
C826 C827 1.370 1_655 S
C826 C830 1.524 . S
C827 C819 1.503 1_565 S
C827 C826 1.370 1_455 S
C827 C828 1.403 . S
C828 C827 1.403 . S
C828 C829 1.404 . S
C828 C831 1.539 . S
C829 C825 1.408 . S
C829 C828 1.404 . S
C829 H841 0.930 . S
C830 C826 1.524 . S
C830 H842 0.944 1_565 S
C830 H843 0.961 1_565 S
C830 H844 0.961 . S
C831 C828 1.539 . S
C831 H845 0.958 . S
C831 H846 0.961 . S
C831 H847 0.960 1_565 S
H832 C816 0.931 1_556 S
H833 C821 0.929 . S
H834 C822 0.960 . S
H835 C822 0.962 1_655 S
H836 C822 0.960 . S
H837 C823 0.972 . S
H838 C823 0.961 . S
H839 C823 0.961 . S
H840 C824 0.931 . S
H841 C829 0.930 . S
H842 C830 0.944 1_545 S
H843 C830 0.961 1_545 S
H844 C830 0.961 . S
H845 C831 0.958 . S
H846 C831 0.961 . S
H847 C831 0.960 1_545 S
C848 C849 1.391 . S
C848 C850 1.394 . S
C848 H864 0.931 . S
C849 C848 1.391 . S
C849 C853 1.376 . S
C850 C848 1.394 . S
C850 C851 1.369 . S
C850 C854 1.531 . S
C851 C850 1.369 . S
C851 C852 1.410 . S
C851 C859 1.503 1_455 S
C852 C851 1.410 . S
C852 C853 1.392 . S
C852 C855 1.511 . S
C853 C849 1.376 . S
C853 C852 1.392 . S
C853 H865 0.929 . S
C854 C850 1.531 . S
C854 H866 0.960 . S
C854 H867 0.962 . S
C854 H868 0.960 . S
C855 C852 1.511 . S
C855 H869 0.961 . S
C855 H870 0.947 1_455 S
C855 H871 0.961 . S
C856 C857 1.370 . S
C856 C858 1.363 . S
C856 H872 0.931 . S
C857 C856 1.370 . S
C857 C861 1.408 . S
C858 C856 1.363 . S
C858 C859 1.370 . S
C858 C862 1.524 . S
C859 C851 1.503 1_655 S
C859 C858 1.370 . S
C859 C860 1.403 . S
C860 C859 1.403 . S
C860 C861 1.404 . S
C860 C863 1.539 . S
C861 C857 1.408 . S
C861 C860 1.404 . S
C861 H873 0.930 . S
C862 C858 1.524 . S
C862 H874 0.956 1_655 S
C862 H875 0.961 1_655 S
C862 H876 0.961 . S
C863 C860 1.539 . S
C863 H877 0.958 . S
C863 H878 0.961 . S
C863 H879 0.960 1_655 S
H864 C848 0.931 . S
H865 C853 0.929 . S
H866 C854 0.960 . S
H867 C854 0.962 . S
H868 C854 0.960 . S
H869 C855 0.961 . S
H870 C855 0.947 1_655 S
H871 C855 0.961 . S
H872 C856 0.931 . S
H873 C861 0.930 . S
H874 C862 0.956 1_455 S
H875 C862 0.961 1_455 S
H876 C862 0.961 . S
H877 C863 0.958 . S
H878 C863 0.961 . S
H879 C863 0.960 1_455 S
C880 C881 1.391 . S
C880 C882 1.394 . S
C880 H896 0.931 . S
C881 C880 1.391 . S
C881 C885 1.376 . S
C882 C880 1.394 . S
C882 C883 1.369 . S
C882 C886 1.531 . S
C883 C882 1.369 . S
C883 C884 1.410 . S
C883 C891 1.503 . S
C884 C883 1.410 . S
C884 C885 1.392 . S
C884 C887 1.511 . S
C885 C881 1.376 . S
C885 C884 1.392 . S
C885 H897 0.929 . S
C886 C882 1.531 . S
C886 H898 0.960 . S
C886 H899 0.962 . S
C886 H900 0.960 . S
C887 C884 1.511 . S
C887 H901 0.961 . S
C887 H902 0.961 . S
C887 H903 0.961 . S
C888 C889 1.370 . S
C888 C890 1.363 . S
C888 H904 0.931 . S
C889 C888 1.370 . S
C889 C893 1.408 . S
C890 C888 1.363 . S
C890 C891 1.370 . S
C890 C894 1.524 . S
C891 C883 1.503 . S
C891 C890 1.370 . S
C891 C892 1.403 . S
C892 C891 1.403 . S
C892 C893 1.404 . S
C892 C895 1.539 . S
C893 C889 1.408 . S
C893 C892 1.404 . S
C893 H905 0.930 . S
C894 C890 1.524 . S
C894 H906 0.956 . S
C894 H907 0.961 . S
C894 H908 0.961 . S
C895 C892 1.539 . S
C895 H909 0.958 . S
C895 H910 0.961 . S
C895 H911 0.960 . S
H896 C880 0.931 . S
H897 C885 0.929 . S
H898 C886 0.960 . S
H899 C886 0.962 . S
H900 C886 0.960 . S
H901 C887 0.961 . S
H902 C887 0.961 . S
H903 C887 0.961 . S
H904 C888 0.931 . S
H905 C893 0.930 . S
H906 C894 0.956 . S
H907 C894 0.961 . S
H908 C894 0.961 . S
H909 C895 0.958 . S
H910 C895 0.961 . S
H911 C895 0.960 . S
C273 C20 0.904 . S
C281 C175 0.928 . S
C305 C54 0.900 . S
C313 C209 0.927 . S
C337 C88 0.920 . S
C345 C243 0.925 . S
C369 C141 0.919 . S
C377 C122 0.924 . S
C401 C172 1.030 . S
C409 C145 1.003 . S
C433 C179 1.010 . S
C441 C206 1.007 . S
C465 C240 1.004 . S
C473 C213 0.977 . S
C497 C247 0.936 . S
C505 C138 0.993 . S
C529 C224 0.909 . S
C537 C107 0.925 . S
C561 C258 0.900 . S
C569 C5 0.928 . S
C593 C39 0.924 . S
C601 C156 0.923 . S
C625 C190 0.932 . S
C633 C73 0.925 . S
C657 C104 1.003 . S
C665 C77 0.975 . S
C689 C2 0.993 . S
C697 C111 0.970 . S
C721 C36 1.030 . S
C729 C9 1.004 . S
C753 C43 1.027 . S
C761 C70 1.016 . S
C785 C169 1.185 . S
C793 C33 1.170 1_545 S
C817 C203 1.161 1_455 S
C825 C67 1.165 . S
C849 C101 1.180 . S
C857 C237 1.172 . S
C881 C271 1.135 . S
C889 C135 1.153 . S
