# Generated by pormake.
# Topology umf, (4)-cn, num edge types: 1
# Building blocks:
#     Node 0, Type 0, BuildingBlock: ESEHIV_clean_sbu_0, # of connection points: 4
#     Node 1, Type 0, BuildingBlock: ESEHIV_clean_sbu_0, # of connection points: 4
#     Node 2, Type 0, BuildingBlock: ESEHIV_clean_sbu_0, # of connection points: 4
#     Node 3, Type 0, BuildingBlock: ESEHIV_clean_sbu_0, # of connection points: 4
#     Node 4, Type 0, BuildingBlock: ESEHIV_clean_sbu_0, # of connection points: 4
#     Node 5, Type 0, BuildingBlock: ESEHIV_clean_sbu_0, # of connection points: 4
#     Node 6, Type 0, BuildingBlock: ESEHIV_clean_sbu_0, # of connection points: 4
#     Node 7, Type 0, BuildingBlock: ESEHIV_clean_sbu_0, # of connection points: 4
#     Edge 8, Type (0, 0), BuildingBlock: FUNLAD_clean_linker_0, # of connection points: 2
#     Edge 9, Type (0, 0), BuildingBlock: FUNLAD_clean_linker_0, # of connection points: 2
#     Edge 10, Type (0, 0), BuildingBlock: FUNLAD_clean_linker_0, # of connection points: 2
#     Edge 11, Type (0, 0), BuildingBlock: FUNLAD_clean_linker_0, # of connection points: 2
#     Edge 12, Type (0, 0), BuildingBlock: FUNLAD_clean_linker_0, # of connection points: 2
#     Edge 13, Type (0, 0), BuildingBlock: FUNLAD_clean_linker_0, # of connection points: 2
#     Edge 14, Type (0, 0), BuildingBlock: FUNLAD_clean_linker_0, # of connection points: 2
#     Edge 15, Type (0, 0), BuildingBlock: FUNLAD_clean_linker_0, # of connection points: 2
#     Edge 16, Type (0, 0), BuildingBlock: FUNLAD_clean_linker_0, # of connection points: 2
#     Edge 17, Type (0, 0), BuildingBlock: FUNLAD_clean_linker_0, # of connection points: 2
#     Edge 18, Type (0, 0), BuildingBlock: FUNLAD_clean_linker_0, # of connection points: 2
#     Edge 19, Type (0, 0), BuildingBlock: FUNLAD_clean_linker_0, # of connection points: 2
#     Edge 20, Type (0, 0), BuildingBlock: FUNLAD_clean_linker_0, # of connection points: 2
#     Edge 21, Type (0, 0), BuildingBlock: FUNLAD_clean_linker_0, # of connection points: 2
#     Edge 22, Type (0, 0), BuildingBlock: FUNLAD_clean_linker_0, # of connection points: 2
#     Edge 23, Type (0, 0), BuildingBlock: FUNLAD_clean_linker_0, # of connection points: 2
# Relax obj value: 0.064
# Max RMSD: 0.102
# Mean RMSD: 0.102
data_MOF--net-umf--node1-ESEHIV_clean_sbu_0--edge1-FUNLAD_clean_linker_0
_symmetry_space_group_name_H-M    P1
_symmetry_Int_Tables_number       1
_symmetry_cell_setting            triclinic
loop_
_symmetry_equiv_pos_as_xyz
'x, y, z'
_cell_length_a     38.572772
_cell_length_b     38.393121
_cell_length_c     59.39367
_cell_angle_alpha  90.383566
_cell_angle_beta   90.268944
_cell_angle_gamma 91.104444
loop_
_atom_site_label
_atom_site_type_symbol
_atom_site_fract_x
_atom_site_fract_y
_atom_site_fract_z
_atom_type_partial_charge
Cu0 Cu 0.08215 0.26389 0.16167 0.0
N1 N 0.04733 0.23069 0.16638 0.0
N2 N 0.02213 0.17875 0.17224 0.0
C3 C 0.05236 0.19685 0.17074 0.0
C4 C 0.9971 0.20224 0.16869 0.0
C5 C 0.01277 0.23434 0.16513 0.0
O6 O 0.12024 0.24966 0.18104 0.0
C7 C 0.11224 0.2807 0.11784 0.0
O8 O 0.13034 0.30597 0.12759 0.0
H9 H 0.07779 0.18557 0.172 0.0
H10 H 0.99997 0.25851 0.16153 0.0
N11 N 0.06542 0.30692 0.17108 0.0
N12 N 0.04974 0.36254 0.17353 0.0
C13 C 0.06271 0.33741 0.16008 0.0
C14 C 0.05337 0.31292 0.19193 0.0
C15 C 0.04384 0.34713 0.19353 0.0
C16 C 0.13742 0.26984 0.19426 0.0
O17 O 0.1336 0.30367 0.19278 0.0
H18 H 0.07062 0.34126 0.1428 0.0
H19 H 0.05192 0.29364 0.2051 0.0
O20 O 0.09209 0.26158 0.12959 0.0
H21 H 0.96949 0.19662 0.16856 0.0
H22 H 0.03312 0.35965 0.20826 0.0
Cu23 Cu 0.78552 1.01365 0.67891 0.0
N24 N 0.81506 0.9757 0.68057 0.0
N25 N 0.86411 0.94557 0.67827 0.0
C26 C 0.84992 0.97746 0.67937 0.0
C27 C 0.83694 0.92286 0.67917 0.0
C28 C 0.80675 0.94153 0.68051 0.0
O29 O 0.8093 0.05218 0.69493 0.0
C30 C 0.80272 0.02579 0.63315 0.0
O31 O 0.83461 0.02805 0.64093 0.0
H32 H 0.86445 1.00182 0.67881 0.0
H33 H 0.78054 0.93099 0.68058 0.0
N34 N 0.7424 1.00231 0.69192 0.0
N35 N 0.68542 0.99081 0.69592 0.0
C36 C 0.71129 0.99921 0.68145 0.0
C37 C 0.73608 0.99547 0.71371 0.0
C38 C 0.7011 0.98848 0.71624 0.0
C39 C 0.79426 0.07502 0.70686 0.0
O40 O 0.76021 0.07511 0.70735 0.0
H41 H 0.70774 1.00339 0.66359 0.0
H42 H 0.75563 0.99552 0.72682 0.0
O43 O 0.77781 0.0223 0.64699 0.0
H44 H 0.83857 0.89481 0.67793 0.0
H45 H 0.68838 0.98156 0.73183 0.0
Cu46 Cu 0.94283 0.76353 0.16055 0.0
N47 N 0.96939 0.8045 0.15873 0.0
N48 N 0.98689 0.86019 0.16146 0.0
C49 C 0.96276 0.83608 0.16753 0.0
C50 C 1.00963 0.84289 0.14851 0.0
C51 C 0.99873 0.80862 0.14685 0.0
O52 O 0.91217 0.76689 0.18649 0.0
C53 C 0.90948 0.78205 0.12012 0.0
O54 O 0.91049 0.81307 0.12957 0.0
H55 H 0.94049 0.84133 0.17791 0.0
H56 H 1.01084 0.78822 0.13721 0.0
N57 N 0.97381 0.72793 0.16641 0.0
N58 N 1.0017 0.67738 0.16746 0.0
C59 C 0.97445 0.69472 0.15882 0.0
C60 C 1.00123 0.7316 0.1803 0.0
C61 C 0.01843 0.70065 0.181 0.0
C62 C 0.88714 0.7878 0.18851 0.0
O63 O 0.87815 0.80687 0.17126 0.0
H64 H 0.9555 0.68365 0.1472 0.0
H65 H 1.00802 0.75523 0.18946 0.0
O66 O 0.92017 0.7561 0.13132 0.0
H67 H 0.03185 0.85437 0.1401 0.0
H68 H 0.04105 0.69552 0.1912 0.0
Cu69 Cu 0.26579 0.94961 0.66995 0.0
N70 N 0.23233 0.9225 0.65451 0.0
N71 N 0.17716 0.90912 0.64559 0.0
C72 C 0.19985 0.93426 0.65231 0.0
C73 C 0.19619 0.8802 0.6432 0.0
C74 C 0.23032 0.88856 0.64863 0.0
O75 O 0.2462 0.95222 0.70026 0.0
C76 C 0.28164 0.99035 0.63374 0.0
O77 O 0.29537 0.96048 0.62813 0.0
H78 H 0.19253 0.96019 0.65747 0.0
H79 H 0.25136 0.87052 0.64962 0.0
N80 N 0.31097 0.93135 0.67107 0.0
N81 N 0.36914 0.9301 0.67372 0.0
C82 C 0.34067 0.95023 0.67383 0.0
C83 C 0.32105 0.89807 0.66931 0.0
C84 C 0.35673 0.89724 0.67087 0.0
C85 C 0.24048 0.92235 0.70897 0.0
O86 O 0.25252 0.89484 0.69858 0.0
H87 H 0.34129 0.97831 0.67559 0.0
H88 H 0.30382 0.87579 0.66731 0.0
O89 O 0.26752 0.99304 0.65304 0.0
H90 H 0.18596 0.85459 0.63878 0.0
H91 H 0.37221 0.87404 0.67041 0.0
Cu92 Cu 0.03424 0.78167 0.90282 0.0
N93 N 0.0508 0.81649 0.92255 0.0
N94 N 0.04922 0.86988 0.93789 0.0
C95 C 0.03168 0.84485 0.92632 0.0
C96 C 0.0809 0.85666 0.94172 0.0
C97 C 0.08175 0.82351 0.93233 0.0
O98 O 0.04131 0.80062 0.87258 0.0
C99 C 0.98609 0.7594 0.93243 0.0
O100 O 0.0155 0.75031 0.9417 0.0
H101 H 1.00599 0.84792 0.91928 0.0
H102 H 0.10389 0.8067 0.93165 0.0
N103 N 0.05514 0.73783 0.90451 0.0
N104 N 0.0565 0.67939 0.90472 0.0
C105 C 0.03748 0.70779 0.90042 0.0
C106 C 0.08684 0.72825 0.91137 0.0
C107 C 0.08779 0.69219 0.91144 0.0
C108 C 0.07273 0.80988 0.86882 0.0
O109 O 0.09617 0.80357 0.88429 0.0
H110 H 1.01071 0.70698 0.89489 0.0
H111 H 0.10742 0.74606 0.91661 0.0
O112 O 0.98673 0.77446 0.91332 0.0
H113 H 0.10221 0.87033 0.95004 0.0
H114 H 0.10936 0.6767 0.91693 0.0
Cu115 Cu 0.25326 0.10152 0.40282 0.0
N116 N 0.21557 0.07074 0.40331 0.0
N117 N 0.16092 0.051 0.40146 0.0
C118 C 0.18231 0.07908 0.39993 0.0
C119 C 0.18163 0.02389 0.40582 0.0
C120 C 0.21542 0.03622 0.40702 0.0
O121 O 0.24056 0.13972 0.38321 0.0
C122 C 0.24227 0.11765 0.44898 0.0
O123 O 0.2094 0.11734 0.44308 0.0
H124 H 0.17406 0.10525 0.39631 0.0
H125 H 0.23825 0.02118 0.41044 0.0
N126 N 0.29026 0.07832 0.3901 0.0
N127 N 0.34384 0.06039 0.38313 0.0
C128 C 0.32383 0.08058 0.39625 0.0
C129 C 0.28885 0.05603 0.37256 0.0
C130 C 0.32188 0.04485 0.36822 0.0
C131 C 0.26233 0.1568 0.37135 0.0
O132 O 0.29564 0.15216 0.37453 0.0
H133 H 0.33327 0.09666 0.41009 0.0
H134 H 0.26544 0.0487 0.36346 0.0
O135 O 0.26522 0.11419 0.4338 0.0
H136 H 0.17294 0.99724 0.40839 0.0
H137 H 0.32922 0.02731 0.3548 0.0
Cu138 Cu 0.98902 0.26238 0.89144 0.0
N139 N 0.96616 0.22848 0.90856 0.0
N140 N 0.96185 0.17582 0.92447 0.0
C141 C 0.98331 0.20191 0.91785 0.0
C142 C 0.92966 0.18658 0.91923 0.0
C143 C 0.93241 0.21907 0.90935 0.0
O144 O 0.98585 0.24462 0.86035 0.0
C145 C 0.03404 0.28033 0.925 0.0
O146 O 1.00432 0.29147 0.93262 0.0
H147 H 1.0113 0.20036 0.91773 0.0
H148 H 0.9116 0.23344 0.90173 0.0
N149 N 0.9703 0.30728 0.8935 0.0
N150 N 0.97025 0.36571 0.89527 0.0
C151 C 0.98831 0.3371 0.88963 0.0
C152 C 0.93962 0.31725 0.90179 0.0
C153 C 0.93947 0.35322 0.90284 0.0
C154 C 0.95758 0.24992 0.8497 0.0
O155 O 0.93437 0.26987 0.85908 0.0
H156 H 0.01495 0.3376 0.884 0.0
H157 H 0.91929 0.29964 0.90743 0.0
O158 O 0.03492 0.26583 0.90558 0.0
H159 H 0.90599 0.17135 0.92126 0.0
H160 H 0.9185 0.36884 0.90909 0.0
Cu161 Cu 0.7539 0.9788 0.38422 0.0
N162 N 0.79081 1.00964 0.37894 0.0
N163 N 0.84489 0.03045 0.37517 0.0
C164 C 0.82459 1.0018 0.37792 0.0
C165 C 0.82298 0.05741 0.37449 0.0
C166 C 0.78964 0.04448 0.37685 0.0
O167 O 0.75958 0.93751 0.36552 0.0
C168 C 0.74243 0.99733 0.42856 0.0
O169 O 0.73386 0.02617 0.41832 0.0
H170 H 0.83421 0.97581 0.38003 0.0
H171 H 0.76624 0.05951 0.37748 0.0
N172 N 0.71329 0.99917 0.37411 0.0
N173 N 0.65786 1.01392 0.37059 0.0
C174 C 0.6812 0.99614 0.38278 0.0
C175 C 0.7101 0.01903 0.35569 0.0
C176 C 0.67599 0.02834 0.35352 0.0
C177 C 0.78339 0.91509 0.36659 0.0
O178 O 0.80555 0.9162 0.38344 0.0
H179 H 0.67523 0.98141 0.39779 0.0
H180 H 0.7311 0.0259 0.34446 0.0
O181 O 0.75177 0.97138 0.41668 0.0
H182 H 0.83045 0.08454 0.37261 0.0
H183 H 0.66527 0.04382 0.34011 0.0
C184 C 0.04782 0.42422 0.18515 0.0
C185 C 0.04393 0.39858 0.16829 0.0
C186 C 0.04079 0.459 0.18065 0.0
C187 C 0.02964 0.46911 0.15912 0.0
C188 C 0.02561 0.44351 0.14223 0.0
C189 C 0.03308 0.4086 0.14669 0.0
C190 C 0.02069 0.50591 0.15443 0.0
C191 C 0.03761 0.53285 0.1645 0.0
C192 C 0.02811 0.57003 0.16221 0.0
C193 C 0.05344 0.59564 0.16722 0.0
C194 C 0.04501 0.63079 0.16799 0.0
C195 C 1.0108 0.64137 0.16411 0.0
H196 H 0.9737 0.56148 0.15385 0.0
C197 C 0.98557 0.61587 0.15827 0.0
C198 C 0.99411 0.58051 0.15734 0.0
H199 H 0.95893 0.623 0.15535 0.0
H200 H 0.0563 0.41736 0.20191 0.0
H201 H 0.04331 0.47777 0.19427 0.0
H202 H 0.01672 0.45055 0.12557 0.0
H203 H 0.02951 0.38931 0.13346 0.0
H204 H 1.00037 0.51075 0.14219 0.0
H205 H 0.06006 0.52754 0.17497 0.0
H206 H 0.07984 0.58837 0.171 0.0
H207 H 0.06534 0.64964 0.17202 0.0
C208 C 0.43208 0.92058 0.66789 0.0
C209 C 0.40515 0.94102 0.67646 0.0
C210 C 0.46697 0.93045 0.67115 0.0
C211 C 0.47598 0.96118 0.68307 0.0
C212 C 0.44907 0.98162 0.69158 0.0
C213 C 0.41418 0.97184 0.68822 0.0
C214 C 0.51287 0.97183 0.68804 0.0
C215 C 0.54048 0.96096 0.67609 0.0
C216 C 0.57747 0.97064 0.68149 0.0
C217 C 0.60275 0.96702 0.66468 0.0
C218 C 0.63791 0.97417 0.66924 0.0
C219 C 0.64892 0.9848 0.69088 0.0
H220 H 0.57015 0.98398 0.71677 0.0
C221 C 0.6236 0.98858 0.70771 0.0
C222 C 0.58842 0.98157 0.70312 0.0
H223 H 0.63091 0.99695 0.72453 0.0
H224 H 0.42624 0.89682 0.65861 0.0
H225 H 0.48666 0.9134 0.66473 0.0
H226 H 0.45504 1.00524 0.70102 0.0
H227 H 0.39432 0.98806 0.69533 0.0
H228 H 0.51707 0.99024 0.70177 0.0
H229 H 0.53602 0.94496 0.66119 0.0
H230 H 0.59532 0.95837 0.64791 0.0
H231 H 0.65652 0.97053 0.65591 0.0
C232 C 0.9684 0.42667 0.90959 0.0
C233 C 0.98252 0.40165 0.89501 0.0
C234 C 0.98103 0.46117 0.90984 0.0
C235 C 1.00801 0.47177 0.89532 0.0
C236 C 0.02211 0.44673 0.88081 0.0
C237 C 1.00953 0.41224 0.88059 0.0
C238 C 0.02293 0.50812 0.89526 0.0
C239 C 1.0063 0.5362 0.90338 0.0
C240 C 0.02053 0.57278 0.90317 0.0
C241 C 0.99742 0.6002 0.90637 0.0
C242 C 1.00918 0.63489 0.90677 0.0
C243 C 0.04457 0.64335 0.90411 0.0
H244 H 0.07504 0.56093 0.89872 0.0
C245 C 0.06791 0.61597 0.90115 0.0
C246 C 0.05609 0.5811 0.90067 0.0
H247 H 0.09532 0.62146 0.89906 0.0
H248 H 0.94812 0.41946 0.92128 0.0
H249 H 0.97002 0.47907 0.92185 0.0
H250 H 0.04298 0.45389 0.86949 0.0
H251 H 0.0209 0.39391 0.86899 0.0
H252 H 0.04798 0.51182 0.8873 0.0
H253 H 0.98014 0.53277 0.90972 0.0
H254 H 0.96998 0.59479 0.90861 0.0
H255 H 0.99043 0.65503 0.9096 0.0
C256 C 0.39681 0.02678 0.37622 0.0
C257 C 0.38096 0.0571 0.38418 0.0
C258 C 0.43287 0.02407 0.37644 0.0
C259 C 0.45394 0.05167 0.38473 0.0
C260 C 0.43808 0.08189 0.39276 0.0
C261 C 0.40202 0.08453 0.39261 0.0
C262 C 0.49239 0.05083 0.3839 0.0
C263 C 0.51049 0.02118 0.38326 0.0
C264 C 0.54879 0.02066 0.38081 0.0
C265 C 0.56689 0.99158 0.38839 0.0
C266 C 0.60273 0.98957 0.38542 0.0
C267 C 0.62116 0.01645 0.3745 0.0
H268 H 0.55422 0.07002 0.36325 0.0
C269 C 0.60303 0.04555 0.36692 0.0
C270 C 0.56728 0.04764 0.36996 0.0
H271 H 0.61648 0.06679 0.35858 0.0
H272 H 0.38133 1.00511 0.36974 0.0
H273 H 0.44402 1.00072 0.3695 0.0
H274 H 0.45368 0.10369 0.399 0.0
H275 H 0.39071 0.10845 0.39856 0.0
H276 H 0.5062 0.07575 0.3843 0.0
H277 H 0.49705 0.99626 0.38512 0.0
H278 H 0.55323 0.97025 0.39655 0.0
H279 H 0.61583 0.96659 0.39117 0.0
C280 C 0.07656 0.25101 0.94984 0.0
C281 C 0.0638 0.28178 0.94058 0.0
C282 C 0.09511 0.2521 0.97024 0.0
C283 C 0.10112 0.28406 0.98161 0.0
C284 C 0.09134 0.31495 0.97101 0.0
C285 C 0.07245 0.31379 0.95088 0.0
C286 C 0.11419 0.28631 1.00529 0.0
C287 C 0.10731 0.26139 1.02066 0.0
C288 C 0.11182 0.26602 0.04554 0.0
C289 C 0.09406 0.24271 0.05974 0.0
C290 C 0.09481 0.2472 0.0831 0.0
C291 C 0.1136 0.27508 0.09305 0.0
H292 H 0.14662 0.31138 0.04536 0.0
C293 C 0.13254 0.29775 0.07899 0.0
C294 C 0.13174 0.29328 0.0555 0.0
H295 H 0.14756 0.3193 0.08609 0.0
H296 H 0.06967 0.22597 0.9424 0.0
H297 H 0.10322 0.22781 0.97754 0.0
H298 H 0.09589 0.33995 0.97919 0.0
H299 H 0.0624 0.33781 0.94421 0.0
H300 H 0.1251 0.31122 1.01076 0.0
H301 H 0.09406 0.23761 1.0151 0.0
H302 H 0.07868 0.22133 0.05272 0.0
H303 H 0.08012 0.22899 0.09333 0.0
C304 C 0.76266 0.01664 0.59995 0.0
C305 C 0.79634 0.02256 0.60852 0.0
C306 C 0.75718 1.0104 0.57692 0.0
C307 C 0.78532 1.01008 0.56187 0.0
C308 C 0.81886 0.01636 0.57045 0.0
C309 C 0.82432 0.02268 0.59343 0.0
C310 C 0.78105 1.00231 0.53733 0.0
C311 C 0.75135 1.00706 0.52579 0.0
C312 C 0.7483 1.00207 0.50096 0.0
C313 C 0.72526 0.02296 0.489 0.0
C314 C 0.72286 0.02061 0.46557 0.0
C315 C 0.74288 0.99672 0.4535 0.0
H316 H 0.78496 0.96008 0.49775 0.0
C317 C 0.76477 0.97451 0.46548 0.0
C318 C 0.76763 0.97729 0.489 0.0
H319 H 0.78048 0.95582 0.45662 0.0
H320 H 0.74053 0.01598 0.61112 0.0
H321 H 0.73099 1.00486 0.57118 0.0
H322 H 0.84106 0.01619 0.55933 0.0
H323 H 0.85065 0.02694 0.5994 0.0
H324 H 0.80399 0.99447 0.52819 0.0
H325 H 0.72922 0.01798 0.53435 0.0
H326 H 0.70976 0.04196 0.49776 0.0
H327 H 0.70553 0.03791 0.45686 0.0
C328 C 0.90726 0.74781 0.08376 0.0
C329 C 0.90152 0.77892 0.09568 0.0
C330 C 0.90522 0.74695 0.06017 0.0
C331 C 0.89725 0.77723 0.04801 0.0
C332 C 0.88975 0.8077 0.06007 0.0
C333 C 0.89165 0.80852 0.08356 0.0
C334 C 0.90126 0.77956 1.02309 0.0
C335 C 0.9003 0.75184 1.00902 0.0
C336 C 0.91404 0.75314 0.98558 0.0
C337 C 0.92824 0.72269 0.97661 0.0
C338 C 0.94871 0.72409 0.9573 0.0
C339 C 0.9547 0.7558 0.94624 0.0
H340 H 0.90535 0.80801 0.97896 0.0
C341 C 0.93727 0.78551 0.95354 0.0
C342 C 0.917 0.78423 0.9731 0.0
H343 H 0.94189 0.81036 0.94543 0.0
H344 H 0.91506 0.72457 0.09254 0.0
H345 H 0.91198 0.7231 0.0516 0.0
H346 H 0.88368 0.83144 0.05123 0.0
H347 H 0.88687 0.83292 0.09215 0.0
H348 H 0.90796 0.80512 1.01655 0.0
H349 H 0.89339 0.72637 1.01565 0.0
H350 H 0.92606 0.69829 0.98561 0.0
H351 H 0.96219 0.7009 0.95207 0.0
C352 C 0.22625 0.11297 0.48981 0.0
C353 C 0.25201 0.1157 0.47318 0.0
C354 C 0.23495 0.10557 0.51217 0.0
C355 C 0.26981 0.10095 0.51854 0.0
C356 C 0.29561 0.10565 0.5021 0.0
C357 C 0.28689 0.11289 0.47974 0.0
C358 C 0.28038 0.08783 0.54118 0.0
C359 C 0.25878 0.08265 0.55878 0.0
C360 C 0.26847 0.0626 0.5793 0.0
C361 C 0.24844 0.06559 0.59896 0.0
C362 C 0.2539 0.04364 0.61742 0.0
C363 C 0.27927 0.0179 0.61642 0.0
H364 H 0.31039 0.03367 0.564 0.0
C365 C 0.30019 0.01589 0.59717 0.0
C366 C 0.29487 0.03779 0.57886 0.0
H367 H 0.31996 0.99633 0.59582 0.0
H368 H 0.19909 0.11501 0.48539 0.0
H369 H 0.214 0.10209 0.52399 0.0
H370 H 0.32269 0.10235 0.50637 0.0
H371 H 0.30745 0.11492 0.46743 0.0
H372 H 0.30732 0.08065 0.54297 0.0
H373 H 0.23252 0.09212 0.55806 0.0
H374 H 0.22773 0.08422 0.59978 0.0
H375 H 0.23716 0.04566 0.63193 0.0
C376 C 0.1731 0.2769 0.22964 0.0
C377 C 0.15659 0.25499 0.21362 0.0
C378 C 0.18701 0.26319 0.24948 0.0
C379 C 0.18475 0.22717 0.25374 0.0
C380 C 0.16923 0.20526 0.23738 0.0
C381 C 0.15551 0.2189 0.21754 0.0
C382 C 0.19583 0.21167 0.27553 0.0
C383 C 0.21901 0.2266 0.28988 0.0
C384 C 0.22907 0.21014 0.31155 0.0
C385 C 0.26298 0.215 0.31986 0.0
C386 C 0.27357 0.19852 0.33965 0.0
C387 C 0.25022 0.1774 0.35184 0.0
H388 H 0.1787 0.1866 0.31866 0.0
C389 C 0.2158 0.17392 0.34409 0.0
C390 C 0.20536 0.19 0.32416 0.0
H391 H 0.19707 0.15794 0.35307 0.0
H392 H 0.17423 0.30484 0.22726 0.0
H393 H 0.19812 0.28112 0.26178 0.0
H394 H 0.16703 0.17744 0.24017 0.0
H395 H 0.14291 0.2012 0.20566 0.0
H396 H 0.18499 0.18614 0.27958 0.0
H397 H 0.2326 0.25046 0.28516 0.0
H398 H 0.28164 0.23076 0.31067 0.0
H399 H 0.30023 0.20188 0.34518 0.0
C400 C 0.92055 0.24278 0.81527 0.0
C401 C 0.94793 0.23071 0.82866 0.0
C402 C 0.9071 0.22267 0.79742 0.0
C403 C 0.92026 0.18948 0.79263 0.0
C404 C 0.94901 0.17829 0.8052 0.0
C405 C 0.96272 0.19865 0.82303 0.0
C406 C 0.90434 0.16588 0.77499 0.0
C407 C 0.87093 0.16818 0.76807 0.0
C408 C 0.8528 0.14421 0.75159 0.0
C409 C 0.81656 0.14638 0.74949 0.0
C410 C 0.79784 0.12445 0.73475 0.0
C411 C 0.81478 0.09964 0.72148 0.0
H412 H 0.89785 0.11753 0.73859 0.0
C413 C 0.85116 0.0978 0.72313 0.0
C414 C 0.86998 0.11981 0.73798 0.0
H415 H 0.86512 0.07906 0.71313 0.0
H416 H 0.90887 0.26762 0.8189 0.0
H417 H 0.88615 0.23329 0.78762 0.0
H418 H 0.96015 0.15314 0.80174 0.0
H419 H 0.98378 0.18854 0.83302 0.0
H420 H 0.92008 0.14485 0.76875 0.0
H421 H 0.8549 0.18786 0.77575 0.0
H422 H 0.80244 0.16496 0.75955 0.0
H423 H 0.76992 0.12677 0.73397 0.0
C424 C 0.82063 0.87472 0.34406 0.0
C425 C 0.789 0.89174 0.34694 0.0
C426 C 0.82778 0.85707 0.3239 0.0
C427 C 0.80321 0.85574 0.30622 0.0
C428 C 0.77103 0.87143 0.30965 0.0
C429 C 0.764 0.88919 0.32968 0.0
C430 C 0.81069 0.8411 0.2834 0.0
C431 C 0.83874 0.8222 0.27818 0.0
C432 C 0.84779 0.8115 0.25472 0.0
C433 C 0.87148 0.78457 0.25157 0.0
C434 C 0.88319 0.77588 0.23001 0.0
C435 C 0.87166 0.7941 0.21101 0.0
H436 H 0.81812 0.85074 0.23715 0.0
C437 C 0.84727 0.82045 0.21405 0.0
C438 C 0.83558 0.82917 0.23561 0.0
H439 H 0.83802 0.83524 0.19985 0.0
H440 H 0.84056 0.87635 0.35695 0.0
H441 H 0.85311 0.8459 0.3221 0.0
H442 H 0.75151 0.87091 0.29646 0.0
H443 H 0.73929 0.90188 0.33133 0.0
H444 H 0.79209 0.8467 0.27021 0.0
H445 H 0.85612 0.81406 0.29146 0.0
H446 H 0.88155 0.77061 0.2659 0.0
H447 H 0.90205 0.75549 0.22834 0.0
C448 C 0.20384 0.88338 0.73292 0.0
C449 C 0.21712 0.91707 0.72855 0.0
C450 C 0.18144 0.87723 0.7509 0.0
C451 C 0.1717 0.90458 0.7652 0.0
C452 C 0.18507 0.93831 0.76101 0.0
C453 C 0.20723 0.94462 0.74268 0.0
C454 C 0.15039 0.8977 0.78566 0.0
C455 C 0.12688 0.87117 0.787 0.0
C456 C 0.1106 0.85944 0.80848 0.0
C457 C 0.07931 0.83988 0.80795 0.0
C458 C 0.06577 0.82486 0.82765 0.0
C459 C 0.0838 0.82846 0.84815 0.0
H460 H 0.15231 0.87812 0.83039 0.0
C461 C 0.11459 0.84873 0.84873 0.0
C462 C 0.12777 0.86408 0.82924 0.0
H463 H 0.12908 0.8522 0.86428 0.0
H464 H 0.21072 0.86146 0.72239 0.0
H465 H 0.17269 0.85072 0.75391 0.0
H466 H 0.17839 0.95981 0.77196 0.0
H467 H 0.21695 0.97085 0.73977 0.0
H468 H 0.15488 0.9146 0.80015 0.0
H469 H 0.11997 0.85655 0.77185 0.0
H470 H 0.06569 0.83556 0.79215 0.0
H471 H 0.04208 0.80931 0.82665 0.0
C472 C 0.98969 0.12337 0.16576 0.0
C473 C 0.01799 0.14171 0.17538 0.0
C474 C 0.98717 0.08707 0.16731 0.0
C475 C 0.01278 0.06832 0.17879 0.0
C476 C 0.04059 0.08686 0.18884 0.0
C477 C 0.04316 0.12308 0.18719 0.0
C478 C 0.01303 0.02955 0.17927 0.0
C479 C 0.98533 1.00889 0.17434 0.0
C480 C 0.98692 0.97024 0.17265 0.0
C481 C 0.95596 0.9505 0.17387 0.0
C482 C 0.956 0.91437 0.17076 0.0
C483 C 0.98704 0.89711 0.16618 0.0
H484 H 0.04242 0.967 0.16661 0.0
C485 C 0.0181 0.9168 0.16528 0.0
C486 C 0.01807 0.9529 0.16835 0.0
H487 H 0.0425 0.90437 0.16197 0.0
H488 H 0.97016 0.1369 0.15626 0.0
H489 H 0.96578 0.07399 0.15875 0.0
H490 H 0.06076 0.07322 0.19773 0.0
H491 H 0.06505 0.13649 0.19503 0.0
H492 H 0.0373 0.01773 0.18403 0.0
H493 H 0.96023 0.02042 0.17157 0.0
H494 H 0.93153 0.96314 0.17691 0.0
H495 H 0.93151 0.90019 0.17126 0.0
C496 C 0.11793 0.88497 0.65209 0.0
C497 C 0.13994 0.91223 0.64482 0.0
C498 C 0.08202 0.88968 0.65359 0.0
C499 C 0.06741 0.92175 0.64769 0.0
C500 C 0.08937 0.94834 0.63953 0.0
C501 C 0.12516 0.94377 0.63829 0.0
C502 C 0.02963 0.9288 0.64966 0.0
C503 C 1.00812 0.91248 0.66424 0.0
C504 C 0.97091 0.92163 0.66734 0.0
C505 C 0.94829 0.89736 0.67752 0.0
C506 C 0.9134 0.90514 0.68113 0.0
C507 C 0.90025 0.9376 0.67486 0.0
H508 H 0.97433 0.97434 0.65409 0.0
C509 C 0.92299 0.96206 0.66492 0.0
C510 C 0.95783 0.9543 0.66129 0.0
H511 H 0.9139 0.98723 0.65968 0.0
H512 H 0.12859 0.86041 0.65731 0.0
H513 H 0.06594 0.86816 0.65934 0.0
H514 H 0.0789 0.97316 0.6346 0.0
H515 H 0.14143 0.96509 0.6324 0.0
H516 H 0.01978 0.94947 0.6392 0.0
H517 H 0.01799 0.89169 0.67462 0.0
H518 H 0.95761 0.87217 0.68265 0.0
H519 H 0.89684 0.88582 0.68909 0.0
C520 C 0.95266 0.11168 0.92562 0.0
C521 C 0.9724 0.14158 0.93147 0.0
C522 C 0.9651 0.07832 0.93003 0.0
C523 C 0.99752 0.07404 0.94066 0.0
C524 C 0.01665 0.10402 0.94709 0.0
C525 C 1.00426 0.13729 0.94262 0.0
C526 C 0.01348 0.03918 0.94386 0.0
C527 C 0.9955 1.00865 0.9432 0.0
C528 C 1.01133 0.9734 0.94433 0.0
C529 C 0.98906 0.94426 0.94664 0.0
C530 C 1.00178 0.91046 0.94552 0.0
C531 C 0.03724 0.90473 0.94207 0.0
H532 H 0.0654 0.98908 0.93944 0.0
C533 C 0.05992 0.93372 0.94069 0.0
C534 C 0.04715 0.96769 0.94167 0.0
H535 H 0.0873 0.93015 0.93775 0.0
H536 H 0.92831 0.11395 0.91667 0.0
H537 H 0.94975 0.05617 0.92419 0.0
H538 H 0.04167 0.10173 0.95526 0.0
H539 H 0.01997 0.15975 0.94757 0.0
H540 H 0.04119 0.03909 0.947 0.0
H541 H 0.96748 1.00915 0.94173 0.0
H542 H 0.96143 0.94759 0.94876 0.0
H543 H 0.9837 0.88867 0.94689 0.0
C544 C 0.90051 0.06183 0.38214 0.0
C545 C 0.88224 0.03183 0.37478 0.0
C546 C 0.9367 0.0624 0.38301 0.0
C547 C 0.95543 0.03281 0.37665 0.0
C548 C 0.93721 1.00335 0.36849 0.0
C549 C 0.90102 1.00277 0.36765 0.0
C550 C 0.99383 0.03177 0.37815 0.0
C551 C 0.01256 0.05149 0.39278 0.0
C552 C 0.05089 0.0504 0.39465 0.0
C553 C 0.06874 0.07985 0.40315 0.0
C554 C 0.10476 0.08003 0.40535 0.0
C555 C 0.12374 0.05054 0.39934 0.0
H556 H 0.05691 0.99702 0.38297 0.0
C557 C 0.10587 0.02075 0.39125 0.0
C558 C 0.06979 0.02063 0.38891 0.0
H559 H 0.11982 0.99766 0.3865 0.0
H560 H 0.88689 0.08466 0.38772 0.0
H561 H 0.94974 0.08613 0.38858 0.0
H562 H 0.95099 0.98042 0.36315 0.0
H563 H 0.88778 0.97951 0.36143 0.0
H564 H 1.00678 1.01344 0.3672 0.0
H565 H 0.99958 0.06971 0.40378 0.0
H566 H 0.05479 0.10294 0.40798 0.0
H567 H 0.1177 0.10314 0.41204 0.0
loop_
_geom_bond_atom_site_label_1
_geom_bond_atom_site_label_2
_geom_bond_distance
_geom_bond_site_symmetry_2
_ccdc_geom_bond_type
Cu0 N1 1.999 . S
Cu0 O6 1.974 . S
Cu0 N11 1.985 . S
Cu0 O20 1.959 . S
N1 Cu0 1.999 . S
N1 C3 1.263 . S
N1 C5 1.389 . S
N2 C3 1.358 . S
N2 C4 1.400 . S
C3 N1 1.263 . S
C3 N2 1.358 . S
C3 H9 0.930 . S
C4 N2 1.400 . S
C4 C5 1.351 . S
C4 H21 0.929 1_455 S
C5 N1 1.389 . S
C5 C4 1.351 . S
C5 H10 0.930 1_455 S
O6 Cu0 1.974 . S
O6 C16 1.282 . S
C7 O8 1.261 . S
C7 O20 1.251 . S
O8 C7 1.261 . S
H9 C3 0.930 . S
H10 C5 0.930 1_655 S
N11 Cu0 1.985 . S
N11 C13 1.335 . S
N11 C14 1.390 . S
N12 C13 1.345 . S
N12 C15 1.336 . S
C13 N11 1.335 . S
C13 N12 1.345 . S
C13 H18 0.930 . S
C14 N11 1.390 . S
C14 C15 1.346 . S
C14 H19 0.930 . S
C15 N12 1.336 . S
C15 C14 1.346 . S
C15 H22 0.929 . S
C16 O6 1.282 . S
C16 O17 1.216 . S
O17 C16 1.216 . S
H18 C13 0.930 . S
H19 C14 0.930 . S
O20 Cu0 1.959 . S
O20 C7 1.251 . S
H21 C4 0.929 1_655 S
H22 C15 0.929 . S
Cu23 N24 1.999 . S
Cu23 O29 1.974 . S
Cu23 N34 1.985 . S
Cu23 O43 1.959 . S
N24 Cu23 1.999 . S
N24 C26 1.263 . S
N24 C28 1.389 . S
N25 C26 1.358 . S
N25 C27 1.400 . S
C26 N24 1.263 . S
C26 N25 1.358 . S
C26 H32 0.930 . S
C27 N25 1.400 . S
C27 C28 1.351 . S
C27 H44 0.929 1_545 S
C28 N24 1.389 . S
C28 C27 1.351 . S
C28 H33 0.930 1_545 S
O29 Cu23 1.974 . S
O29 C39 1.282 . S
C30 O31 1.261 . S
C30 O43 1.251 . S
O31 C30 1.261 . S
H32 C26 0.930 . S
H33 C28 0.930 1_565 S
N34 Cu23 1.985 . S
N34 C36 1.335 . S
N34 C37 1.390 . S
N35 C36 1.345 . S
N35 C38 1.336 . S
C36 N34 1.335 . S
C36 N35 1.345 . S
C36 H41 0.930 . S
C37 N34 1.390 . S
C37 C38 1.346 . S
C37 H42 0.930 . S
C38 N35 1.336 . S
C38 C37 1.346 . S
C38 H45 0.929 . S
C39 O29 1.282 . S
C39 O40 1.216 . S
O40 C39 1.216 . S
H41 C36 0.930 . S
H42 C37 0.930 . S
O43 Cu23 1.959 . S
O43 C30 1.251 . S
H44 C27 0.929 1_565 S
H45 C38 0.929 . S
Cu46 N47 1.999 . S
Cu46 O52 1.974 . S
Cu46 N57 1.985 . S
Cu46 O66 1.959 . S
N47 Cu46 1.999 . S
N47 C49 1.263 . S
N47 C51 1.389 . S
N48 C49 1.358 . S
N48 C50 1.400 . S
C49 N47 1.263 . S
C49 N48 1.358 . S
C49 H55 0.930 . S
C50 N48 1.400 . S
C50 C51 1.351 . S
C50 H67 0.929 1_655 S
C51 N47 1.389 . S
C51 C50 1.351 . S
C51 H56 0.930 1_655 S
O52 Cu46 1.974 . S
O52 C62 1.282 . S
C53 O54 1.261 . S
C53 O66 1.251 . S
O54 C53 1.261 . S
H55 C49 0.930 . S
H56 C51 0.930 1_455 S
N57 Cu46 1.985 . S
N57 C59 1.335 . S
N57 C60 1.390 . S
N58 C59 1.345 . S
N58 C61 1.336 . S
C59 N57 1.335 . S
C59 N58 1.345 . S
C59 H64 0.930 . S
C60 N57 1.390 . S
C60 C61 1.346 . S
C60 H65 0.930 . S
C61 N58 1.336 . S
C61 C60 1.346 . S
C61 H68 0.929 . S
C62 O52 1.282 . S
C62 O63 1.216 . S
O63 C62 1.216 . S
H64 C59 0.930 . S
H65 C60 0.930 . S
O66 Cu46 1.959 . S
O66 C53 1.251 . S
H67 C50 0.929 1_455 S
H68 C61 0.929 . S
Cu69 N70 1.999 . S
Cu69 O75 1.974 . S
Cu69 N80 1.985 . S
Cu69 O89 1.959 . S
N70 Cu69 1.999 . S
N70 C72 1.263 . S
N70 C74 1.389 . S
N71 C72 1.358 . S
N71 C73 1.400 . S
C72 N70 1.263 . S
C72 N71 1.358 . S
C72 H78 0.930 . S
C73 N71 1.400 . S
C73 C74 1.351 . S
C73 H90 0.929 1_565 S
C74 N70 1.389 . S
C74 C73 1.351 . S
C74 H79 0.930 1_565 S
O75 Cu69 1.974 . S
O75 C85 1.282 . S
C76 O77 1.261 . S
C76 O89 1.251 . S
O77 C76 1.261 . S
H78 C72 0.930 . S
H79 C74 0.930 1_545 S
N80 Cu69 1.985 . S
N80 C82 1.335 . S
N80 C83 1.390 . S
N81 C82 1.345 . S
N81 C84 1.336 . S
C82 N80 1.335 . S
C82 N81 1.345 . S
C82 H87 0.930 . S
C83 N80 1.390 . S
C83 C84 1.346 . S
C83 H88 0.930 . S
C84 N81 1.336 . S
C84 C83 1.346 . S
C84 H91 0.929 . S
C85 O75 1.282 . S
C85 O86 1.216 . S
O86 C85 1.216 . S
H87 C82 0.930 . S
H88 C83 0.930 . S
O89 Cu69 1.959 . S
O89 C76 1.251 . S
H90 C73 0.929 1_545 S
H91 C84 0.929 . S
Cu92 N93 1.999 . S
Cu92 O98 1.974 . S
Cu92 N103 1.985 . S
Cu92 O112 1.959 . S
N93 Cu92 1.999 . S
N93 C95 1.263 . S
N93 C97 1.389 . S
N94 C95 1.358 . S
N94 C96 1.400 . S
C95 N93 1.263 . S
C95 N94 1.358 . S
C95 H101 0.930 . S
C96 N94 1.400 . S
C96 C97 1.351 . S
C96 H113 0.929 1_455 S
C97 N93 1.389 . S
C97 C96 1.351 . S
C97 H102 0.930 1_455 S
O98 Cu92 1.974 . S
O98 C108 1.282 . S
C99 O100 1.261 . S
C99 O112 1.251 . S
O100 C99 1.261 . S
H101 C95 0.930 . S
H102 C97 0.930 1_655 S
N103 Cu92 1.985 . S
N103 C105 1.335 . S
N103 C106 1.390 . S
N104 C105 1.345 . S
N104 C107 1.336 . S
C105 N103 1.335 . S
C105 N104 1.345 . S
C105 H110 0.930 . S
C106 N103 1.390 . S
C106 C107 1.346 . S
C106 H111 0.930 . S
C107 N104 1.336 . S
C107 C106 1.346 . S
C107 H114 0.929 . S
C108 O98 1.282 . S
C108 O109 1.216 . S
O109 C108 1.216 . S
H110 C105 0.930 . S
H111 C106 0.930 . S
O112 Cu92 1.959 . S
O112 C99 1.251 . S
H113 C96 0.929 1_655 S
H114 C107 0.929 . S
Cu115 N116 1.999 . S
Cu115 O121 1.974 . S
Cu115 N126 1.985 . S
Cu115 O135 1.959 . S
N116 Cu115 1.999 . S
N116 C118 1.263 . S
N116 C120 1.389 . S
N117 C118 1.358 . S
N117 C119 1.400 . S
C118 N116 1.263 . S
C118 N117 1.358 . S
C118 H124 0.930 . S
C119 N117 1.400 . S
C119 C120 1.351 . S
C119 H136 0.929 1_545 S
C120 N116 1.389 . S
C120 C119 1.351 . S
C120 H125 0.930 1_545 S
O121 Cu115 1.974 . S
O121 C131 1.282 . S
C122 O123 1.261 . S
C122 O135 1.251 . S
O123 C122 1.261 . S
H124 C118 0.930 . S
H125 C120 0.930 1_565 S
N126 Cu115 1.985 . S
N126 C128 1.335 . S
N126 C129 1.390 . S
N127 C128 1.345 . S
N127 C130 1.336 . S
C128 N126 1.335 . S
C128 N127 1.345 . S
C128 H133 0.930 . S
C129 N126 1.390 . S
C129 C130 1.346 . S
C129 H134 0.930 . S
C130 N127 1.336 . S
C130 C129 1.346 . S
C130 H137 0.929 . S
C131 O121 1.282 . S
C131 O132 1.216 . S
O132 C131 1.216 . S
H133 C128 0.930 . S
H134 C129 0.930 . S
O135 Cu115 1.959 . S
O135 C122 1.251 . S
H136 C119 0.929 1_565 S
H137 C130 0.929 . S
Cu138 N139 1.999 . S
Cu138 O144 1.974 . S
Cu138 N149 1.985 . S
Cu138 O158 1.959 . S
N139 Cu138 1.999 . S
N139 C141 1.263 . S
N139 C143 1.389 . S
N140 C141 1.358 . S
N140 C142 1.400 . S
C141 N139 1.263 . S
C141 N140 1.358 . S
C141 H147 0.930 . S
C142 N140 1.400 . S
C142 C143 1.351 . S
C142 H159 0.929 1_655 S
C143 N139 1.389 . S
C143 C142 1.351 . S
C143 H148 0.930 1_655 S
O144 Cu138 1.974 . S
O144 C154 1.282 . S
C145 O146 1.261 . S
C145 O158 1.251 . S
O146 C145 1.261 . S
H147 C141 0.930 . S
H148 C143 0.930 1_455 S
N149 Cu138 1.985 . S
N149 C151 1.335 . S
N149 C152 1.390 . S
N150 C151 1.345 . S
N150 C153 1.336 . S
C151 N149 1.335 . S
C151 N150 1.345 . S
C151 H156 0.930 . S
C152 N149 1.390 . S
C152 C153 1.346 . S
C152 H157 0.930 . S
C153 N150 1.336 . S
C153 C152 1.346 . S
C153 H160 0.929 . S
C154 O144 1.282 . S
C154 O155 1.216 . S
O155 C154 1.216 . S
H156 C151 0.930 . S
H157 C152 0.930 . S
O158 Cu138 1.959 . S
O158 C145 1.251 . S
H159 C142 0.929 1_455 S
H160 C153 0.929 . S
Cu161 N162 1.999 . S
Cu161 O167 1.974 . S
Cu161 N172 1.985 . S
Cu161 O181 1.959 . S
N162 Cu161 1.999 . S
N162 C164 1.263 . S
N162 C166 1.389 . S
N163 C164 1.358 . S
N163 C165 1.400 . S
C164 N162 1.263 . S
C164 N163 1.358 . S
C164 H170 0.930 . S
C165 N163 1.400 . S
C165 C166 1.351 . S
C165 H182 0.929 1_565 S
C166 N162 1.389 . S
C166 C165 1.351 . S
C166 H171 0.930 1_565 S
O167 Cu161 1.974 . S
O167 C177 1.282 . S
C168 O169 1.261 . S
C168 O181 1.251 . S
O169 C168 1.261 . S
H170 C164 0.930 . S
H171 C166 0.930 1_545 S
N172 Cu161 1.985 . S
N172 C174 1.335 . S
N172 C175 1.390 . S
N173 C174 1.345 . S
N173 C176 1.336 . S
C174 N172 1.335 . S
C174 N173 1.345 . S
C174 H179 0.930 . S
C175 N172 1.390 . S
C175 C176 1.346 . S
C175 H180 0.930 . S
C176 N173 1.336 . S
C176 C175 1.346 . S
C176 H183 0.929 . S
C177 O167 1.282 . S
C177 O178 1.216 . S
O178 C177 1.216 . S
H179 C174 0.930 . S
H180 C175 0.930 . S
O181 Cu161 1.959 . S
O181 C168 1.251 . S
H182 C165 0.929 1_545 S
H183 C176 0.929 . S
C184 C185 1.386 . S
C184 C186 1.383 . S
C184 H200 0.951 . S
C185 C184 1.386 . S
C185 C189 1.383 . S
C186 C184 1.383 . S
C186 C187 1.402 . S
C186 H201 0.951 . S
C187 C186 1.402 . S
C187 C188 1.375 . S
C187 C190 1.481 . S
C188 C187 1.375 . S
C188 C189 1.367 . S
C188 H202 0.951 1_455 S
C189 C185 1.383 . S
C189 C188 1.367 . S
C189 H203 0.950 . S
C190 C187 1.481 . S
C190 C191 1.297 . S
C190 H204 0.950 1_455 S
C191 C190 1.297 . S
C191 C192 1.479 1_455 S
C191 H205 0.950 . S
C192 C191 1.479 1_655 S
C192 C193 1.371 1_655 S
C192 C198 1.404 . S
C193 C192 1.371 1_455 S
C193 C194 1.355 1_455 S
C193 H206 0.969 . S
C194 C193 1.355 1_655 S
C194 C195 1.392 . S
C194 H207 0.951 . S
C195 C194 1.392 . S
C195 C197 1.384 . S
H196 C198 0.949 . S
C197 C195 1.384 . S
C197 C198 1.385 . S
C197 H199 0.950 . S
C198 C192 1.404 . S
C198 H196 0.949 . S
C198 C197 1.385 . S
H199 C197 0.950 . S
H200 C184 0.951 . S
H201 C186 0.951 . S
H202 C188 0.951 1_655 S
H203 C189 0.950 . S
H204 C190 0.950 1_655 S
H205 C191 0.950 . S
H206 C193 0.969 . S
H207 C194 0.951 . S
C208 C209 1.386 . S
C208 C210 1.383 . S
C208 H224 0.951 . S
C209 C208 1.386 . S
C209 C213 1.383 . S
C210 C208 1.383 . S
C210 C211 1.402 . S
C210 H225 0.951 . S
C211 C210 1.402 . S
C211 C212 1.375 1_565 S
C211 C214 1.481 1_565 S
C212 C211 1.375 1_545 S
C212 C213 1.367 1_545 S
C212 H226 0.951 . S
C213 C209 1.383 . S
C213 C212 1.367 1_565 S
C213 H227 0.950 1_565 S
C214 C211 1.481 1_545 S
C214 C215 1.297 1_545 S
C214 H228 0.950 . S
C215 C214 1.297 1_565 S
C215 C216 1.479 1_565 S
C215 H229 0.950 . S
C216 C215 1.479 1_545 S
C216 C217 1.375 1_545 S
C216 C222 1.404 . S
C217 C216 1.375 1_565 S
C217 C218 1.369 1_565 S
C217 H230 0.950 . S
C218 C217 1.369 1_545 S
C218 C219 1.392 . S
C218 H231 0.951 1_545 S
C219 C218 1.392 . S
C219 C221 1.384 . S
H220 C222 0.949 . S
C221 C219 1.384 . S
C221 C222 1.385 . S
C221 H223 0.950 . S
C222 C216 1.404 . S
C222 H220 0.949 . S
C222 C221 1.385 . S
H223 C221 0.950 . S
H224 C208 0.951 . S
H225 C210 0.951 . S
H226 C212 0.951 . S
H227 C213 0.950 1_545 S
H228 C214 0.950 . S
H229 C215 0.950 . S
H230 C217 0.950 . S
H231 C218 0.951 1_565 S
C232 C233 1.386 . S
C232 C234 1.383 . S
C232 H248 0.951 . S
C233 C232 1.386 . S
C233 C237 1.383 . S
C234 C232 1.383 . S
C234 C235 1.402 . S
C234 H249 0.951 . S
C235 C234 1.402 . S
C235 C236 1.375 1_655 S
C235 C238 1.481 1_655 S
C236 C235 1.375 1_455 S
C236 C237 1.367 1_455 S
C236 H250 0.951 . S
C237 C233 1.383 . S
C237 C236 1.367 1_655 S
C237 H251 0.950 . S
C238 C235 1.481 1_455 S
C238 C239 1.297 . S
C238 H252 0.950 . S
C239 C238 1.297 . S
C239 C240 1.479 . S
C239 H253 0.950 1_455 S
C240 C239 1.479 . S
C240 C241 1.375 . S
C240 C246 1.404 . S
C241 C240 1.375 . S
C241 C242 1.369 . S
C241 H254 0.950 1_455 S
C242 C241 1.369 . S
C242 C243 1.392 . S
C242 H255 0.951 . S
C243 C242 1.392 . S
C243 C245 1.384 . S
H244 C246 0.949 . S
C245 C243 1.384 . S
C245 C246 1.385 . S
C245 H247 0.950 . S
C246 C240 1.404 . S
C246 H244 0.949 . S
C246 C245 1.385 . S
H247 C245 0.950 . S
H248 C232 0.951 . S
H249 C234 0.951 . S
H250 C236 0.951 . S
H251 C237 0.950 . S
H252 C238 0.950 . S
H253 C239 0.950 1_655 S
H254 C241 0.950 1_655 S
H255 C242 0.951 . S
C256 C257 1.386 . S
C256 C258 1.383 . S
C256 H272 0.951 1_545 S
C257 C256 1.386 . S
C257 C261 1.383 . S
C258 C256 1.383 . S
C258 C259 1.402 . S
C258 H273 0.951 1_545 S
C259 C258 1.402 . S
C259 C260 1.375 . S
C259 C262 1.481 . S
C260 C259 1.375 . S
C260 C261 1.367 . S
C260 H274 0.951 . S
C261 C257 1.383 . S
C261 C260 1.367 . S
C261 H275 0.950 . S
C262 C259 1.481 . S
C262 C263 1.297 1_545 S
C262 H276 0.950 . S
C263 C262 1.297 1_565 S
C263 C264 1.479 . S
C263 H277 0.950 . S
C264 C263 1.479 . S
C264 C265 1.375 . S
C264 C270 1.404 1_565 S
C265 C264 1.375 . S
C265 C266 1.369 . S
C265 H278 0.950 . S
C266 C265 1.369 . S
C266 C267 1.392 . S
C266 H279 0.951 . S
C267 C266 1.392 . S
C267 C269 1.384 . S
H268 C270 0.949 . S
C269 C267 1.384 . S
C269 C270 1.385 1_565 S
C269 H271 0.950 1_565 S
C270 C264 1.404 1_545 S
C270 H268 0.949 . S
C270 C269 1.385 1_545 S
H271 C269 0.950 1_545 S
H272 C256 0.951 1_565 S
H273 C258 0.951 1_565 S
H274 C260 0.951 . S
H275 C261 0.950 . S
H276 C262 0.950 . S
H277 C263 0.950 . S
H278 C265 0.950 . S
H279 C266 0.951 . S
C280 C281 1.386 . S
C280 C282 1.383 . S
C280 H296 0.951 . S
C281 C280 1.386 . S
C281 C285 1.383 . S
C282 C280 1.383 . S
C282 C283 1.402 . S
C282 H297 0.951 1_655 S
C283 C282 1.402 . S
C283 C284 1.375 . S
C283 C286 1.487 . S
C284 C283 1.375 . S
C284 C285 1.367 . S
C284 H298 0.951 . S
C285 C281 1.383 . S
C285 C284 1.367 . S
C285 H299 0.950 . S
C286 C283 1.487 . S
C286 C287 1.284 1_656 S
C286 H300 0.961 . S
C287 C286 1.284 1_454 S
C287 C288 1.479 . S
C287 H301 0.950 1_554 S
C288 C287 1.479 . S
C288 C289 1.375 . S
C288 C294 1.404 . S
C289 C288 1.375 . S
C289 C290 1.369 . S
C289 H302 0.950 . S
C290 C289 1.369 . S
C290 C291 1.392 . S
C290 H303 0.951 . S
C291 C290 1.392 . S
C291 C293 1.384 . S
H292 C294 0.949 . S
C293 C291 1.384 . S
C293 C294 1.385 . S
C293 H295 0.950 . S
C294 C288 1.404 . S
C294 H292 0.949 . S
C294 C293 1.385 . S
H295 C293 0.950 . S
H296 C280 0.951 . S
H297 C282 0.951 1_455 S
H298 C284 0.951 . S
H299 C285 0.950 . S
H300 C286 0.961 . S
H301 C287 0.950 1_556 S
H302 C289 0.950 . S
H303 C290 0.951 . S
C304 C305 1.386 . S
C304 C306 1.383 . S
C304 H320 0.951 . S
C305 C304 1.386 . S
C305 C309 1.383 . S
C306 C304 1.383 . S
C306 C307 1.402 . S
C306 H321 0.951 . S
C307 C306 1.402 . S
C307 C308 1.375 . S
C307 C310 1.481 . S
C308 C307 1.375 . S
C308 C309 1.367 . S
C308 H322 0.951 . S
C309 C305 1.383 . S
C309 C308 1.367 . S
C309 H323 0.950 . S
C310 C307 1.481 . S
C310 C311 1.297 . S
C310 H324 0.950 . S
C311 C310 1.297 . S
C311 C312 1.479 1_545 S
C311 H325 0.950 . S
C312 C311 1.479 1_565 S
C312 C313 1.375 . S
C312 C318 1.404 1_565 S
C313 C312 1.375 . S
C313 C314 1.369 . S
C313 H326 0.950 . S
C314 C313 1.369 . S
C314 C315 1.392 . S
C314 H327 0.951 . S
C315 C314 1.392 . S
C315 C317 1.384 . S
H316 C318 0.949 . S
C317 C315 1.384 . S
C317 C318 1.385 1_565 S
C317 H319 0.950 . S
C318 C312 1.404 1_545 S
C318 H316 0.949 . S
C318 C317 1.385 1_545 S
H319 C317 0.950 . S
H320 C304 0.951 . S
H321 C306 0.951 . S
H322 C308 0.951 . S
H323 C309 0.950 . S
H324 C310 0.950 . S
H325 C311 0.950 . S
H326 C313 0.950 . S
H327 C314 0.951 . S
C328 C329 1.386 . S
C328 C330 1.383 . S
C328 H344 0.951 . S
C329 C328 1.386 . S
C329 C333 1.383 . S
C330 C328 1.383 . S
C330 C331 1.402 . S
C330 H345 0.951 . S
C331 C330 1.402 . S
C331 C332 1.375 . S
C331 C334 1.481 . S
C332 C331 1.375 . S
C332 C333 1.367 . S
C332 H346 0.951 . S
C333 C329 1.383 . S
C333 C332 1.367 . S
C333 H347 0.950 . S
C334 C331 1.481 . S
C334 C335 1.297 1_554 S
C334 H348 0.950 1_554 S
C335 C334 1.297 1_556 S
C335 C336 1.479 1_655 S
C335 H349 0.950 . S
C336 C335 1.479 1_455 S
C336 C337 1.375 . S
C336 C342 1.404 1_455 S
C337 C336 1.375 . S
C337 C338 1.369 . S
C337 H350 0.950 . S
C338 C337 1.369 . S
C338 C339 1.392 . S
C338 H351 0.951 . S
C339 C338 1.392 . S
C339 C341 1.384 . S
H340 C342 0.949 . S
C341 C339 1.384 . S
C341 C342 1.385 1_455 S
C341 H343 0.950 . S
C342 C336 1.404 1_655 S
C342 H340 0.949 . S
C342 C341 1.385 1_655 S
H343 C341 0.950 . S
H344 C328 0.951 . S
H345 C330 0.951 . S
H346 C332 0.951 . S
H347 C333 0.950 . S
H348 C334 0.950 1_556 S
H349 C335 0.950 . S
H350 C337 0.950 . S
H351 C338 0.951 . S
C352 C353 1.386 . S
C352 C354 1.383 . S
C352 H368 0.951 . S
C353 C352 1.386 . S
C353 C357 1.350 1_545 S
C354 C352 1.383 . S
C354 C355 1.402 . S
C354 H369 0.951 . S
C355 C354 1.402 . S
C355 C356 1.375 1_545 S
C355 C358 1.481 1_545 S
C356 C355 1.375 1_565 S
C356 C357 1.381 . S
C356 H370 0.951 . S
C357 C353 1.350 1_565 S
C357 C356 1.381 . S
C357 H371 0.969 . S
C358 C355 1.481 1_565 S
C358 C359 1.297 . S
C358 H372 0.950 . S
C359 C358 1.297 . S
C359 C360 1.479 . S
C359 H373 0.950 1_565 S
C360 C359 1.479 . S
C360 C361 1.375 1_565 S
C360 C366 1.404 . S
C361 C360 1.375 1_545 S
C361 C362 1.369 1_545 S
C361 H374 0.950 . S
C362 C361 1.369 1_565 S
C362 C363 1.392 . S
C362 H375 0.951 1_565 S
C363 C362 1.392 . S
C363 C365 1.384 . S
H364 C366 0.949 . S
C365 C363 1.384 . S
C365 C366 1.385 . S
C365 H367 0.950 . S
C366 C360 1.404 . S
C366 H364 0.949 . S
C366 C365 1.385 . S
H367 C365 0.950 . S
H368 C352 0.951 . S
H369 C354 0.951 . S
H370 C356 0.951 . S
H371 C357 0.969 . S
H372 C358 0.950 . S
H373 C359 0.950 1_545 S
H374 C361 0.950 . S
H375 C362 0.951 1_545 S
C376 C377 1.386 . S
C376 C378 1.383 . S
C376 H392 0.951 . S
C377 C376 1.386 . S
C377 C381 1.383 . S
C378 C376 1.383 . S
C378 C379 1.402 . S
C378 H393 0.951 . S
C379 C378 1.402 . S
C379 C380 1.375 . S
C379 C382 1.481 . S
C380 C379 1.375 . S
C380 C381 1.367 . S
C380 H394 0.951 . S
C381 C377 1.383 . S
C381 C380 1.367 . S
C381 H395 0.950 . S
C382 C379 1.481 . S
C382 C383 1.297 . S
C382 H396 0.950 . S
C383 C382 1.297 . S
C383 C384 1.479 . S
C383 H397 0.950 . S
C384 C383 1.479 . S
C384 C385 1.375 . S
C384 C390 1.404 . S
C385 C384 1.375 . S
C385 C386 1.369 . S
C385 H398 0.950 . S
C386 C385 1.369 . S
C386 C387 1.392 . S
C386 H399 0.951 . S
C387 C386 1.392 . S
C387 C389 1.384 . S
H388 C390 0.949 . S
C389 C387 1.384 . S
C389 C390 1.385 . S
C389 H391 0.950 . S
C390 C384 1.404 . S
C390 H388 0.949 . S
C390 C389 1.385 . S
H391 C389 0.950 . S
H392 C376 0.951 . S
H393 C378 0.951 . S
H394 C380 0.951 . S
H395 C381 0.950 . S
H396 C382 0.950 . S
H397 C383 0.950 . S
H398 C385 0.950 . S
H399 C386 0.951 . S
C400 C401 1.386 . S
C400 C402 1.383 . S
C400 H416 0.951 . S
C401 C400 1.386 . S
C401 C405 1.383 . S
C402 C400 1.383 . S
C402 C403 1.402 . S
C402 H417 0.951 . S
C403 C402 1.402 . S
C403 C404 1.375 . S
C403 C406 1.481 . S
C404 C403 1.375 . S
C404 C405 1.367 . S
C404 H418 0.951 . S
C405 C401 1.383 . S
C405 C404 1.367 . S
C405 H419 0.950 . S
C406 C403 1.481 . S
C406 C407 1.297 . S
C406 H420 0.950 . S
C407 C406 1.297 . S
C407 C408 1.479 . S
C407 H421 0.950 . S
C408 C407 1.479 . S
C408 C409 1.375 . S
C408 C414 1.404 . S
C409 C408 1.375 . S
C409 C410 1.369 . S
C409 H422 0.950 . S
C410 C409 1.369 . S
C410 C411 1.392 . S
C410 H423 0.951 . S
C411 C410 1.392 . S
C411 C413 1.384 . S
H412 C414 0.949 . S
C413 C411 1.384 . S
C413 C414 1.385 . S
C413 H415 0.950 . S
C414 C408 1.404 . S
C414 H412 0.949 . S
C414 C413 1.385 . S
H415 C413 0.950 . S
H416 C400 0.951 . S
H417 C402 0.951 . S
H418 C404 0.951 . S
H419 C405 0.950 . S
H420 C406 0.950 . S
H421 C407 0.950 . S
H422 C409 0.950 . S
H423 C410 0.951 . S
C424 C425 1.386 . S
C424 C426 1.383 . S
C424 H440 0.951 . S
C425 C424 1.386 . S
C425 C429 1.383 . S
C426 C424 1.383 . S
C426 C427 1.402 . S
C426 H441 0.951 . S
C427 C426 1.402 . S
C427 C428 1.375 . S
C427 C430 1.481 . S
C428 C427 1.375 . S
C428 C429 1.367 . S
C428 H442 0.951 . S
C429 C425 1.383 . S
C429 C428 1.367 . S
C429 H443 0.950 . S
C430 C427 1.481 . S
C430 C431 1.297 . S
C430 H444 0.950 . S
C431 C430 1.297 . S
C431 C432 1.479 . S
C431 H445 0.950 . S
C432 C431 1.479 . S
C432 C433 1.375 . S
C432 C438 1.404 . S
C433 C432 1.375 . S
C433 C434 1.369 . S
C433 H446 0.950 . S
C434 C433 1.369 . S
C434 C435 1.392 . S
C434 H447 0.951 . S
C435 C434 1.392 . S
C435 C437 1.384 . S
H436 C438 0.949 . S
C437 C435 1.384 . S
C437 C438 1.385 . S
C437 H439 0.950 . S
C438 C432 1.404 . S
C438 H436 0.949 . S
C438 C437 1.385 . S
H439 C437 0.950 . S
H440 C424 0.951 . S
H441 C426 0.951 . S
H442 C428 0.951 . S
H443 C429 0.950 . S
H444 C430 0.950 . S
H445 C431 0.950 . S
H446 C433 0.950 . S
H447 C434 0.951 . S
C448 C449 1.386 . S
C448 C450 1.383 . S
C448 H464 0.951 . S
C449 C448 1.386 . S
C449 C453 1.383 . S
C450 C448 1.383 . S
C450 C451 1.402 . S
C450 H465 0.951 . S
C451 C450 1.402 . S
C451 C452 1.375 . S
C451 C454 1.481 . S
C452 C451 1.375 . S
C452 C453 1.367 . S
C452 H466 0.951 . S
C453 C449 1.383 . S
C453 C452 1.367 . S
C453 H467 0.950 . S
C454 C451 1.481 . S
C454 C455 1.297 . S
C454 H468 0.950 . S
C455 C454 1.297 . S
C455 C456 1.479 . S
C455 H469 0.950 . S
C456 C455 1.479 . S
C456 C457 1.375 . S
C456 C462 1.404 . S
C457 C456 1.375 . S
C457 C458 1.369 . S
C457 H470 0.950 . S
C458 C457 1.369 . S
C458 C459 1.392 . S
C458 H471 0.951 . S
C459 C458 1.392 . S
C459 C461 1.384 . S
H460 C462 0.949 . S
C461 C459 1.384 . S
C461 C462 1.385 . S
C461 H463 0.950 . S
C462 C456 1.404 . S
C462 H460 0.949 . S
C462 C461 1.385 . S
H463 C461 0.950 . S
H464 C448 0.951 . S
H465 C450 0.951 . S
H466 C452 0.951 . S
H467 C453 0.950 . S
H468 C454 0.950 . S
H469 C455 0.950 . S
H470 C457 0.950 . S
H471 C458 0.951 . S
C472 C473 1.386 . S
C472 C474 1.383 . S
C472 H488 0.951 . S
C473 C472 1.386 . S
C473 C477 1.383 . S
C474 C472 1.383 . S
C474 C475 1.402 . S
C474 H489 0.951 1_455 S
C475 C474 1.402 . S
C475 C476 1.375 . S
C475 C478 1.481 . S
C476 C475 1.375 . S
C476 C477 1.367 . S
C476 H490 0.951 . S
C477 C473 1.383 . S
C477 C476 1.367 . S
C477 H491 0.950 . S
C478 C475 1.481 . S
C478 C479 1.297 1_445 S
C478 H492 0.950 1_545 S
C479 C478 1.297 1_665 S
C479 C480 1.479 . S
C479 H493 0.950 1_565 S
C480 C479 1.479 . S
C480 C481 1.375 . S
C480 C486 1.404 1_655 S
C481 C480 1.375 . S
C481 C482 1.369 . S
C481 H494 0.950 . S
C482 C481 1.369 . S
C482 C483 1.392 . S
C482 H495 0.951 . S
C483 C482 1.392 . S
C483 C485 1.384 . S
H484 C486 0.949 . S
C485 C483 1.384 . S
C485 C486 1.385 1_655 S
C485 H487 0.950 1_655 S
C486 C480 1.404 1_455 S
C486 H484 0.949 . S
C486 C485 1.385 1_455 S
H487 C485 0.950 1_455 S
H488 C472 0.951 . S
H489 C474 0.951 1_655 S
H490 C476 0.951 . S
H491 C477 0.950 . S
H492 C478 0.950 1_565 S
H493 C479 0.950 1_545 S
H494 C481 0.950 . S
H495 C482 0.951 . S
C496 C497 1.386 . S
C496 C498 1.383 . S
C496 H512 0.951 . S
C497 C496 1.386 . S
C497 C501 1.383 . S
C498 C496 1.383 . S
C498 C499 1.402 . S
C498 H513 0.951 . S
C499 C498 1.402 . S
C499 C500 1.375 1_565 S
C499 C502 1.481 1_565 S
C500 C499 1.375 1_545 S
C500 C501 1.367 1_545 S
C500 H514 0.951 . S
C501 C497 1.383 . S
C501 C500 1.367 1_565 S
C501 H515 0.950 . S
C502 C499 1.481 1_545 S
C502 C503 1.297 1_455 S
C502 H516 0.950 . S
C503 C502 1.297 1_655 S
C503 C504 1.479 . S
C503 H517 0.950 1_545 S
C504 C503 1.479 . S
C504 C505 1.375 . S
C504 C510 1.404 . S
C505 C504 1.375 . S
C505 C506 1.369 . S
C505 H518 0.950 1_545 S
C506 C505 1.369 . S
C506 C507 1.392 . S
C506 H519 0.951 . S
C507 C506 1.392 . S
C507 C509 1.384 . S
H508 C510 0.949 . S
C509 C507 1.384 . S
C509 C510 1.385 . S
C509 H511 0.950 . S
C510 C504 1.404 . S
C510 H508 0.949 . S
C510 C509 1.385 . S
H511 C509 0.950 . S
H512 C496 0.951 . S
H513 C498 0.951 . S
H514 C500 0.951 . S
H515 C501 0.950 . S
H516 C502 0.950 . S
H517 C503 0.950 1_565 S
H518 C505 0.950 1_565 S
H519 C506 0.951 . S
C520 C521 1.386 . S
C520 C522 1.383 . S
C520 H536 0.951 . S
C521 C520 1.386 . S
C521 C525 1.383 . S
C522 C520 1.383 . S
C522 C523 1.402 . S
C522 H537 0.951 . S
C523 C522 1.402 . S
C523 C524 1.375 1_655 S
C523 C526 1.481 1_655 S
C524 C523 1.375 1_455 S
C524 C525 1.367 1_455 S
C524 H538 0.951 . S
C525 C521 1.383 . S
C525 C524 1.367 1_655 S
C525 H539 0.950 1_655 S
C526 C523 1.481 1_455 S
C526 C527 1.297 1_545 S
C526 H540 0.950 . S
C527 C526 1.297 1_565 S
C527 C528 1.479 . S
C527 H541 0.950 1_455 S
C528 C527 1.479 . S
C528 C529 1.376 . S
C528 C534 1.404 . S
C529 C528 1.376 . S
C529 C530 1.369 . S
C529 H542 0.949 1_455 S
C530 C529 1.369 . S
C530 C531 1.392 . S
C530 H543 0.951 1_455 S
C531 C530 1.392 . S
C531 C533 1.384 . S
H532 C534 0.949 . S
C533 C531 1.384 . S
C533 C534 1.385 . S
C533 H535 0.950 . S
C534 C528 1.404 . S
C534 H532 0.949 . S
C534 C533 1.385 . S
H535 C533 0.950 . S
H536 C520 0.951 . S
H537 C522 0.951 . S
H538 C524 0.951 . S
H539 C525 0.950 1_455 S
H540 C526 0.950 . S
H541 C527 0.950 1_655 S
H542 C529 0.949 1_655 S
H543 C530 0.951 1_655 S
C544 C545 1.386 . S
C544 C546 1.383 . S
C544 H560 0.951 . S
C545 C544 1.386 . S
C545 C549 1.383 . S
C546 C544 1.383 . S
C546 C547 1.402 . S
C546 H561 0.951 . S
C547 C546 1.402 . S
C547 C548 1.375 . S
C547 C550 1.481 . S
C548 C547 1.375 . S
C548 C549 1.367 . S
C548 H562 0.951 . S
C549 C545 1.383 . S
C549 C548 1.367 . S
C549 H563 0.950 . S
C550 C547 1.481 . S
C550 C551 1.297 1_655 S
C550 H564 0.950 1_655 S
C551 C550 1.297 1_455 S
C551 C552 1.479 1_565 S
C551 H565 0.955 . S
C552 C551 1.479 1_545 S
C552 C553 1.375 . S
C552 C558 1.401 1_545 S
C553 C552 1.375 . S
C553 C554 1.369 . S
C553 H566 0.950 . S
C554 C553 1.369 . S
C554 C555 1.392 . S
C554 H567 0.951 . S
C555 C554 1.392 . S
C555 C557 1.384 . S
H556 C558 0.957 . S
C557 C555 1.384 . S
C557 C558 1.379 1_545 S
C557 H559 0.950 . S
C558 C552 1.401 1_565 S
C558 H556 0.957 . S
C558 C557 1.379 1_565 S
H559 C557 0.950 . S
H560 C544 0.951 . S
H561 C546 0.951 . S
H562 C548 0.951 . S
H563 C549 0.950 . S
H564 C550 0.950 1_455 S
H565 C551 0.955 . S
H566 C553 0.950 . S
H567 C554 0.951 . S
C185 N12 1.712 . S
C195 N58 1.694 . S
C209 N81 1.700 . S
C219 N35 1.715 . S
C233 N150 1.690 . S
C243 N104 1.716 . S
C257 N127 1.693 . S
C267 N173 1.656 . S
C281 C145 1.675 . S
C291 C7 1.656 . S
C305 C30 1.651 . S
C315 C168 1.668 . S
C329 C53 1.649 . S
C339 C99 1.665 . S
C353 C122 1.657 . S
C363 C76 1.625 . S
C377 C16 1.682 . S
C387 C131 1.631 . S
C401 C154 1.683 . S
C411 C39 1.630 . S
C425 C177 1.674 . S
C435 C62 1.654 . S
C449 C85 1.679 . S
C459 C108 1.645 . S
C473 N2 1.384 . S
C483 N48 1.280 . S
C497 N71 1.301 . S
C507 N25 1.388 . S
C521 N140 1.305 . S
C531 N94 1.375 . S
C545 N163 1.386 . S
C555 N117 1.264 . S
