# Generated by pormake.
# Topology uki, (4)-cn, num edge types: 1
# Building blocks:
#     Node 0, Type 0, BuildingBlock: ESEHIV_clean_sbu_0, # of connection points: 4
#     Node 1, Type 0, BuildingBlock: ESEHIV_clean_sbu_0, # of connection points: 4
#     Node 2, Type 0, BuildingBlock: ESEHIV_clean_sbu_0, # of connection points: 4
#     Node 3, Type 0, BuildingBlock: ESEHIV_clean_sbu_0, # of connection points: 4
#     Node 4, Type 0, BuildingBlock: ESEHIV_clean_sbu_0, # of connection points: 4
#     Node 5, Type 0, BuildingBlock: ESEHIV_clean_sbu_0, # of connection points: 4
#     Node 6, Type 0, BuildingBlock: ESEHIV_clean_sbu_0, # of connection points: 4
#     Node 7, Type 0, BuildingBlock: ESEHIV_clean_sbu_0, # of connection points: 4
#     Node 8, Type 0, BuildingBlock: ESEHIV_clean_sbu_0, # of connection points: 4
#     Node 9, Type 0, BuildingBlock: ESEHIV_clean_sbu_0, # of connection points: 4
#     Node 10, Type 0, BuildingBlock: ESEHIV_clean_sbu_0, # of connection points: 4
#     Node 11, Type 0, BuildingBlock: ESEHIV_clean_sbu_0, # of connection points: 4
#     Node 12, Type 0, BuildingBlock: ESEHIV_clean_sbu_0, # of connection points: 4
#     Node 13, Type 0, BuildingBlock: ESEHIV_clean_sbu_0, # of connection points: 4
#     Node 14, Type 0, BuildingBlock: ESEHIV_clean_sbu_0, # of connection points: 4
#     Node 15, Type 0, BuildingBlock: ESEHIV_clean_sbu_0, # of connection points: 4
#     Edge 16, Type (0, 0), BuildingBlock: UVAHIK_clean_linker_0, # of connection points: 2
#     Edge 17, Type (0, 0), BuildingBlock: UVAHIK_clean_linker_0, # of connection points: 2
#     Edge 18, Type (0, 0), BuildingBlock: UVAHIK_clean_linker_0, # of connection points: 2
#     Edge 19, Type (0, 0), BuildingBlock: UVAHIK_clean_linker_0, # of connection points: 2
#     Edge 20, Type (0, 0), BuildingBlock: UVAHIK_clean_linker_0, # of connection points: 2
#     Edge 21, Type (0, 0), BuildingBlock: UVAHIK_clean_linker_0, # of connection points: 2
#     Edge 22, Type (0, 0), BuildingBlock: UVAHIK_clean_linker_0, # of connection points: 2
#     Edge 23, Type (0, 0), BuildingBlock: UVAHIK_clean_linker_0, # of connection points: 2
#     Edge 24, Type (0, 0), BuildingBlock: UVAHIK_clean_linker_0, # of connection points: 2
#     Edge 25, Type (0, 0), BuildingBlock: UVAHIK_clean_linker_0, # of connection points: 2
#     Edge 26, Type (0, 0), BuildingBlock: UVAHIK_clean_linker_0, # of connection points: 2
#     Edge 27, Type (0, 0), BuildingBlock: UVAHIK_clean_linker_0, # of connection points: 2
#     Edge 28, Type (0, 0), BuildingBlock: UVAHIK_clean_linker_0, # of connection points: 2
#     Edge 29, Type (0, 0), BuildingBlock: UVAHIK_clean_linker_0, # of connection points: 2
#     Edge 30, Type (0, 0), BuildingBlock: UVAHIK_clean_linker_0, # of connection points: 2
#     Edge 31, Type (0, 0), BuildingBlock: UVAHIK_clean_linker_0, # of connection points: 2
#     Edge 32, Type (0, 0), BuildingBlock: UVAHIK_clean_linker_0, # of connection points: 2
#     Edge 33, Type (0, 0), BuildingBlock: UVAHIK_clean_linker_0, # of connection points: 2
#     Edge 34, Type (0, 0), BuildingBlock: UVAHIK_clean_linker_0, # of connection points: 2
#     Edge 35, Type (0, 0), BuildingBlock: UVAHIK_clean_linker_0, # of connection points: 2
#     Edge 36, Type (0, 0), BuildingBlock: UVAHIK_clean_linker_0, # of connection points: 2
#     Edge 37, Type (0, 0), BuildingBlock: UVAHIK_clean_linker_0, # of connection points: 2
#     Edge 38, Type (0, 0), BuildingBlock: UVAHIK_clean_linker_0, # of connection points: 2
#     Edge 39, Type (0, 0), BuildingBlock: UVAHIK_clean_linker_0, # of connection points: 2
#     Edge 40, Type (0, 0), BuildingBlock: UVAHIK_clean_linker_0, # of connection points: 2
#     Edge 41, Type (0, 0), BuildingBlock: UVAHIK_clean_linker_0, # of connection points: 2
#     Edge 42, Type (0, 0), BuildingBlock: UVAHIK_clean_linker_0, # of connection points: 2
#     Edge 43, Type (0, 0), BuildingBlock: UVAHIK_clean_linker_0, # of connection points: 2
#     Edge 44, Type (0, 0), BuildingBlock: UVAHIK_clean_linker_0, # of connection points: 2
#     Edge 45, Type (0, 0), BuildingBlock: UVAHIK_clean_linker_0, # of connection points: 2
#     Edge 46, Type (0, 0), BuildingBlock: UVAHIK_clean_linker_0, # of connection points: 2
#     Edge 47, Type (0, 0), BuildingBlock: UVAHIK_clean_linker_0, # of connection points: 2
# Relax obj value: 0.101
# Max RMSD: 0.185
# Mean RMSD: 0.170
data_MOF--net-uki--node1-ESEHIV_clean_sbu_0--edge1-UVAHIK_clean_linker_0
_symmetry_space_group_name_H-M    P1
_symmetry_Int_Tables_number       1
_symmetry_cell_setting            triclinic
loop_
_symmetry_equiv_pos_as_xyz
'x, y, z'
_cell_length_a     45.00917
_cell_length_b     37.716959
_cell_length_c     108.28475
_cell_angle_alpha  90.077527
_cell_angle_beta   89.937198
_cell_angle_gamma 89.820179
loop_
_atom_site_label
_atom_site_type_symbol
_atom_site_fract_x
_atom_site_fract_y
_atom_site_fract_z
_atom_type_partial_charge
Cu0 Cu 0.07864 0.26106 0.31898 0.0
N1 N 0.04042 0.28085 0.31782 0.0
N2 N 0.99887 0.30374 0.30972 0.0
C3 C 0.02842 0.29889 0.3083 0.0
C4 C 0.99203 0.28856 0.32062 0.0
C5 C 0.0176 0.27423 0.32552 0.0
O6 O 0.10631 0.2872 0.30839 0.0
C7 C 0.05746 0.19953 0.30679 0.0
O8 O 0.0456 0.22284 0.29926 0.0
H9 H 0.04072 0.30698 0.30022 0.0
H10 H 0.01914 0.25821 0.33378 0.0
N11 N 0.09262 0.26662 0.33519 0.0
N12 N 0.12327 0.26882 0.35148 0.0
C13 C 0.11956 0.25755 0.3397 0.0
C14 C 0.07891 0.28412 0.34442 0.0
C15 C 0.09762 0.2854 0.35445 0.0
C16 C 0.1044 0.29178 0.29676 0.0
O17 O 0.08381 0.27508 0.29048 0.0
H18 H 0.13655 0.24442 0.33427 0.0
H19 H 0.05722 0.29632 0.34381 0.0
O20 O 0.07436 0.21035 0.31545 0.0
H21 H 0.96982 0.2858 0.32433 0.0
H22 H 0.09283 0.29812 0.3632 0.0
Cu23 Cu 0.25982 0.98201 0.69711 0.0
N24 N 0.23212 1.01191 0.6895 0.0
N25 N 0.18838 0.03918 0.68694 0.0
C26 C 0.20339 1.01336 0.69289 0.0
C27 C 0.20838 0.05413 0.67926 0.0
C28 C 0.23546 0.03727 0.68089 0.0
O29 O 0.25544 0.93499 0.68967 0.0
C30 C 0.2505 1.01748 0.71922 0.0
O31 O 0.24468 0.04303 0.71137 0.0
H32 H 0.19401 0.99645 0.69995 0.0
H33 H 0.25627 0.04384 0.67645 0.0
N34 N 0.29931 0.99534 0.69524 0.0
N35 N 0.34465 0.98983 0.7036 0.0
C36 C 0.32047 0.97286 0.6992 0.0
C37 C 0.31078 0.02794 0.69673 0.0
C38 C 0.33886 1.02462 0.70177 0.0
C39 C 0.26158 0.93421 0.67816 0.0
O40 O 0.27022 0.96378 0.67287 0.0
H41 H 0.31623 0.94487 0.70036 0.0
H42 H 0.29815 0.05228 0.69598 0.0
O43 O 0.25531 0.98622 0.71508 0.0
H44 H 0.20413 0.07667 0.67333 0.0
H45 H 0.35216 0.04627 0.70527 0.0
Cu46 Cu 0.88944 0.79458 0.3077 0.0
N47 N 0.92569 0.77156 0.3053 0.0
N48 N 0.96331 0.74314 0.2961 0.0
C49 C 0.93509 0.75499 0.29498 0.0
C50 C 0.97187 0.75255 0.30759 0.0
C51 C 0.94858 0.77002 0.31325 0.0
O52 O 0.8653 0.78249 0.2933 0.0
C53 C 0.90871 0.8615 0.2998 0.0
O54 O 0.90981 0.84505 0.28911 0.0
H55 H 0.92187 0.75282 0.28667 0.0
H56 H 0.94847 0.78138 0.32242 0.0
N57 N 0.87238 0.77646 0.3222 0.0
N58 N 0.84635 0.76862 0.33968 0.0
C59 C 0.85502 0.79201 0.33087 0.0
C60 C 0.87469 0.74235 0.3256 0.0
C61 C 0.85876 0.7374 0.33629 0.0
C62 C 0.83897 0.77037 0.29399 0.0
O63 O 0.82543 0.77002 0.30474 0.0
H64 H 0.8488 0.81973 0.33065 0.0
H65 H 0.88671 0.72226 0.32048 0.0
O66 O 0.89857 0.84494 0.30914 0.0
H67 H 0.99346 0.74736 0.31161 0.0
H68 H 0.85591 0.7123 0.34095 0.0
Cu69 Cu 0.80007 0.13315 0.71677 0.0
N70 N 0.83995 0.13333 0.72144 0.0
N71 N 0.88939 0.12727 0.72095 0.0
C72 C 0.86389 0.1262 0.71436 0.0
C73 C 0.881 0.13551 0.73259 0.0
C74 C 0.85057 0.13916 0.73286 0.0
O75 O 0.79773 0.15288 0.70017 0.0
C76 C 0.76141 0.07195 0.71521 0.0
O77 O 0.74391 0.09123 0.7082 0.0
H78 H 0.86249 0.1195 0.70465 0.0
H79 H 0.83705 0.14529 0.74085 0.0
N80 N 0.77907 0.16249 0.7276 0.0
N81 N 0.74519 0.18217 0.74106 0.0
C82 C 0.75317 0.1556 0.73336 0.0
C83 C 0.78763 0.19452 0.73172 0.0
C84 C 0.76683 0.20669 0.74007 0.0
C85 C 0.77448 0.16746 0.69577 0.0
O86 O 0.7495 0.16608 0.70203 0.0
H87 H 0.74083 0.13127 0.73215 0.0
H88 H 0.80782 0.20782 0.72896 0.0
O89 O 0.78594 0.08478 0.71893 0.0
H90 H 0.89578 0.13882 0.74038 0.0
H91 H 0.76749 0.23169 0.74498 0.0
Cu92 Cu 0.10143 0.30762 0.97741 0.0
N93 N 0.06454 0.28697 0.98028 0.0
N94 N 0.02806 0.25706 0.98964 0.0
C95 C 0.05736 0.26495 0.98958 0.0
C96 C 0.01658 0.2749 0.97991 0.0
C97 C 0.0391 0.29331 0.97419 0.0
O98 O 0.12695 0.2909 0.99085 0.0
C99 C 0.08078 0.37443 0.98571 0.0
O100 O 0.07427 0.35649 0.99574 0.0
H101 H 0.07336 0.25544 0.99625 0.0
H102 H 0.037 0.3109 0.96635 0.0
N103 N 0.11524 0.29209 0.96195 0.0
N104 N 0.14099 0.28654 0.94434 0.0
C105 C 0.13815 0.30435 0.95514 0.0
C106 C 0.10318 0.26586 0.9552 0.0
C107 C 0.11892 0.26242 0.94435 0.0
C108 C 0.1537 0.28043 0.98956 0.0
O109 O 0.16705 0.2849 0.9789 0.0
H110 H 0.15235 0.32595 0.95802 0.0
H111 H 0.08424 0.25021 0.958 0.0
O112 O 0.09462 0.35876 0.97699 0.0
H113 H 0.99338 0.27579 0.97733 0.0
H114 H 0.11483 0.24316 0.93713 0.0
Cu115 Cu 0.28387 0.94364 0.07933 0.0
N116 N 0.32336 0.93651 0.07454 0.0
N117 N 0.37285 0.9404 0.07337 0.0
C118 C 0.348 0.95163 0.07924 0.0
C119 C 0.36337 0.91726 0.06471 0.0
C120 C 0.33291 0.91487 0.06548 0.0
O121 O 0.28142 0.93304 0.09693 0.0
C122 C 0.27937 1.00308 0.06412 0.0
O123 O 0.29769 0.98363 0.05751 0.0
H124 H 0.34761 0.97083 0.08668 0.0
H125 H 0.31865 0.89856 0.05981 0.0
N126 N 0.26021 0.91057 0.07114 0.0
N127 N 0.22654 0.88618 0.05863 0.0
C128 C 0.24152 0.91598 0.06161 0.0
C129 C 0.25714 0.87624 0.07422 0.0
C130 C 0.23632 0.86114 0.06655 0.0
C131 C 0.25691 0.92601 0.10226 0.0
O132 O 0.23198 0.93099 0.09619 0.0
H133 H 0.23828 0.94146 0.05722 0.0
H134 H 0.26887 0.86333 0.08169 0.0
O135 O 0.27049 0.99118 0.07451 0.0
H136 H 0.37746 0.90271 0.05837 0.0
H137 H 0.22894 0.83386 0.06678 0.0
Cu138 Cu 0.92723 0.77757 0.95578 0.0
N139 N 0.9664 0.7933 0.95718 0.0
N140 N 1.00836 0.81228 0.96597 0.0
C141 C 0.97902 0.80629 0.9675 0.0
C142 C 0.01443 0.80268 0.95423 0.0
C143 C 0.98856 0.79064 0.94887 0.0
O144 O 0.90425 0.80554 0.96755 0.0
C145 C 0.93791 0.71541 0.96956 0.0
O146 O 0.94183 0.73823 0.97859 0.0
H147 H 0.96701 0.81052 0.97605 0.0
H148 H 0.9863 0.77954 0.93971 0.0
N149 N 0.91296 0.78623 0.93975 0.0
N150 N 0.88475 0.7868 0.92272 0.0
C151 C 0.88756 0.77481 0.93444 0.0
C152 C 0.92627 0.80645 0.93115 0.0
C153 C 0.90911 0.80663 0.92064 0.0
C154 C 0.87664 0.80272 0.96987 0.0
O155 O 0.86131 0.77718 0.96467 0.0
H156 H 0.87158 0.75795 0.93903 0.0
H157 H 0.94683 0.82066 0.93246 0.0
O158 O 0.92895 0.72678 0.95913 0.0
H159 H 0.03624 0.80279 0.95001 0.0
H160 H 0.91381 0.82099 0.91222 0.0
Cu161 Cu 0.74796 0.09011 0.07527 0.0
N162 N 0.721 0.06408 0.08472 0.0
N163 N 0.67778 0.03925 0.08998 0.0
C164 C 0.69297 0.05701 0.08122 0.0
C165 C 0.69699 0.0353 0.09946 0.0
C166 C 0.72372 0.05065 0.09617 0.0
O167 O 0.74032 0.14026 0.07885 0.0
C168 C 0.74308 0.04219 0.05594 0.0
O169 O 0.73935 1.02072 0.06535 0.0
H170 H 0.68379 0.06535 0.07245 0.0
H171 H 0.74359 0.05223 0.10175 0.0
N172 N 0.78766 0.08095 0.07895 0.0
N173 N 0.83625 0.08788 0.07547 0.0
C174 C 0.80918 0.10321 0.07532 0.0
C175 C 0.80147 0.05017 0.08157 0.0
C176 C 0.83159 0.05439 0.07942 0.0
C177 C 0.75099 0.15172 0.08902 0.0
O178 O 0.76614 0.12983 0.09605 0.0
H179 H 0.80454 0.12897 0.07135 0.0
H180 H 0.79025 1.02567 0.08377 0.0
O181 O 0.74521 0.07546 0.05797 0.0
H182 H 0.69217 1.02205 0.10809 0.0
H183 H 0.84836 0.03382 0.07994 0.0
Cu184 Cu 0.60362 0.76118 0.80187 0.0
N185 N 0.57386 0.79582 0.80102 0.0
N186 N 0.54103 0.83396 0.79291 0.0
C187 C 0.559 0.80582 0.79081 0.0
C188 C 0.54463 0.84173 0.80501 0.0
C189 C 0.56495 0.81825 0.80996 0.0
O190 O 0.63524 0.77808 0.79112 0.0
C191 C 0.56083 0.70688 0.79911 0.0
O192 O 0.54328 0.73083 0.80411 0.0
H193 H 0.56149 0.79273 0.78198 0.0
H194 H 0.57329 0.81816 0.81933 0.0
N195 N 0.61704 0.75671 0.81817 0.0
N196 N 0.6454 0.75452 0.83513 0.0
C197 C 0.64356 0.76514 0.82321 0.0
C198 C 0.60169 0.7406 0.82722 0.0
C199 C 0.61906 0.73914 0.83765 0.0
C200 C 0.63192 0.77747 0.77944 0.0
O201 O 0.6092 0.76025 0.77479 0.0
H202 H 0.66146 0.77757 0.81815 0.0
H203 H 0.57956 0.72993 0.82619 0.0
O204 O 0.58784 0.71493 0.7969 0.0
H205 H 0.53416 0.86352 0.80987 0.0
H206 H 0.61287 0.72749 0.84641 0.0
Cu207 Cu 0.71967 0.44592 0.20078 0.0
N208 N 0.68109 0.44762 0.20721 0.0
N209 N 0.63234 0.45688 0.20966 0.0
C210 C 0.65582 0.45949 0.20192 0.0
C211 C 0.64336 0.44303 0.2202 0.0
C212 C 0.67335 0.43737 0.21865 0.0
O213 O 0.72017 0.43551 0.18306 0.0
C214 C 0.7289 0.5202 0.20525 0.0
O215 O 0.70266 0.52492 0.2002 0.0
H216 H 0.65475 0.47006 0.19264 0.0
H217 H 0.68855 0.42648 0.22539 0.0
N218 N 0.74035 0.40917 0.20844 0.0
N219 N 0.77309 0.38097 0.22044 0.0
C220 C 0.75901 0.41192 0.21812 0.0
C221 C 0.74252 0.37535 0.20457 0.0
C222 C 0.76276 0.35789 0.21194 0.0
C223 C 0.70093 0.41466 0.17839 0.0
O224 O 0.67946 0.40252 0.18541 0.0
H225 H 0.76321 0.43651 0.22297 0.0
H226 H 0.73095 0.3645 0.19669 0.0
O227 O 0.74024 0.48925 0.20546 0.0
H228 H 0.63057 0.43686 0.22838 0.0
H229 H 0.7697 0.33051 0.21101 0.0
Cu230 Cu 0.41307 0.29657 0.81929 0.0
N231 N 0.44653 0.26773 0.82136 0.0
N232 N 0.48902 0.23995 0.81674 0.0
C233 C 0.46469 0.25646 0.81227 0.0
C234 C 0.48598 0.24063 0.82914 0.0
C235 C 0.45963 0.25768 0.83196 0.0
O236 O 0.38433 0.26852 0.81003 0.0
C237 C 0.45137 0.35262 0.81285 0.0
O238 O 0.46944 0.33504 0.82014 0.0
H239 H 0.4611 0.26229 0.80261 0.0
H240 H 0.45124 0.26366 0.8411 0.0
N241 N 0.3977 0.30951 0.83474 0.0
N242 N 0.36844 0.31635 0.8513 0.0
C243 C 0.37309 0.29816 0.84068 0.0
C244 C 0.40897 0.33535 0.84188 0.0
C245 C 0.39102 0.33967 0.85206 0.0
C246 C 0.38779 0.26269 0.79853 0.0
O247 O 0.4091 0.27933 0.79263 0.0
H248 H 0.35843 0.27789 0.83711 0.0
H249 H 0.42866 0.35047 0.83971 0.0
O250 O 0.4253 0.34048 0.81093 0.0
H251 H 0.50198 0.23036 0.83569 0.0
H252 H 0.39431 0.35859 0.85946 0.0
Cu253 Cu 0.25064 0.58945 0.20633 0.0
N254 N 0.27828 0.55933 0.1987 0.0
N255 N 0.32255 0.5356 0.19412 0.0
C256 C 0.30788 0.56132 0.20031 0.0
C257 C 0.30135 0.51715 0.18811 0.0
C258 C 0.27401 0.53187 0.19096 0.0
O259 O 0.25671 0.6374 0.19992 0.0
C260 C 0.26344 0.55729 0.22963 0.0
O261 O 0.28456 0.5398 0.22388 0.0
H262 H 0.31835 0.58088 0.20618 0.0
H263 H 0.25257 0.52284 0.18777 0.0
N264 N 0.21126 0.57815 0.203 0.0
N265 N 0.16432 0.58601 0.20934 0.0
C266 C 0.19011 0.60171 0.20615 0.0
C267 C 0.19821 0.54617 0.20387 0.0
C268 C 0.1691 0.551 0.20764 0.0
C269 C 0.25309 0.63949 0.18826 0.0
O270 O 0.24672 0.61029 0.18219 0.0
H271 H 0.19498 0.6294 0.20778 0.0
H272 H 0.21002 0.52117 0.20363 0.0
O273 O 0.25097 0.58351 0.22427 0.0
H274 H 0.30522 0.49394 0.18243 0.0
H275 H 0.15406 0.53022 0.21051 0.0
Cu276 Cu 0.60348 0.79024 0.47404 0.0
N277 N 0.56722 0.76926 0.4781 0.0
N278 N 0.53234 0.73989 0.48867 0.0
C279 C 0.5611 0.75012 0.48829 0.0
C280 C 0.52005 0.75315 0.47826 0.0
C281 C 0.54157 0.77128 0.47179 0.0
O282 O 0.6327 0.76855 0.48498 0.0
C283 C 0.58235 0.85567 0.48367 0.0
O284 O 0.57271 0.83559 0.49272 0.0
H285 H 0.5773 0.74466 0.49541 0.0
H286 H 0.53874 0.78515 0.46314 0.0
N287 N 0.6134 0.77772 0.45777 0.0
N288 N 0.63597 0.77395 0.43931 0.0
C289 C 0.63463 0.7912 0.4503 0.0
C290 C 0.60107 0.75106 0.45135 0.0
C291 C 0.61482 0.74868 0.44003 0.0
C292 C 0.64135 0.77895 0.49557 0.0
O293 O 0.6329 0.81009 0.49974 0.0
H294 H 0.64882 0.81303 0.45293 0.0
H295 H 0.58368 0.73397 0.45478 0.0
O296 O 0.59807 0.84167 0.47514 0.0
H297 H 0.49716 0.74991 0.47544 0.0
H298 H 0.6101 0.72896 0.43304 0.0
Cu299 Cu 0.80315 0.43827 0.57036 0.0
N300 N 0.84133 0.44878 0.56477 0.0
N301 N 0.89004 0.46009 0.56402 0.0
C302 C 0.86693 0.45008 0.57121 0.0
C303 C 0.8784 0.46506 0.55266 0.0
C304 C 0.84844 0.45805 0.55316 0.0
O305 O 0.8051 0.41853 0.58692 0.0
C306 C 0.78686 0.51167 0.56916 0.0
O307 O 0.81373 0.51774 0.57336 0.0
H308 H 0.86842 0.44458 0.581 0.0
H309 H 0.83278 0.45983 0.54561 0.0
N310 N 0.78736 0.40279 0.56042 0.0
N311 N 0.75672 0.37415 0.54768 0.0
C312 C 0.76502 0.40596 0.55223 0.0
C313 C 0.79352 0.36793 0.56103 0.0
C314 C 0.77461 0.35014 0.55319 0.0
C315 C 0.78369 0.41829 0.5946 0.0
O316 O 0.75924 0.43591 0.59206 0.0
H317 H 0.75416 0.43086 0.5501 0.0
H318 H 0.80995 0.35623 0.56708 0.0
O319 O 0.77779 0.47982 0.56824 0.0
H320 H 0.89069 0.47295 0.54453 0.0
H321 H 0.77376 0.32174 0.55179 0.0
Cu322 Cu 0.42768 0.26321 0.46144 0.0
N323 N 0.46644 0.2806 0.46119 0.0
N324 N 0.5108 0.29885 0.46783 0.0
C325 C 0.48363 0.28703 0.4711 0.0
C326 C 0.51071 0.29984 0.45538 0.0
C327 C 0.48338 0.28831 0.4513 0.0
O328 O 0.40743 0.28794 0.47489 0.0
C329 C 0.44003 0.19889 0.47372 0.0
O330 O 0.44228 0.21988 0.48336 0.0
H331 H 0.4763 0.28324 0.48053 0.0
H332 H 0.47647 0.28535 0.4418 0.0
N333 N 0.40903 0.27534 0.44655 0.0
N334 N 0.37876 0.2775 0.43014 0.0
C335 C 0.38752 0.25851 0.44013 0.0
C336 C 0.41369 0.30594 0.44051 0.0
C337 C 0.39529 0.30729 0.43041 0.0
C338 C 0.37946 0.29311 0.47527 0.0
O339 O 0.36246 0.2776 0.46703 0.0
H340 H 0.37824 0.23324 0.44282 0.0
H341 H 0.42891 0.32639 0.44346 0.0
O342 O 0.43151 0.21197 0.46347 0.0
H343 H 0.52931 0.30749 0.44963 0.0
H344 H 0.39342 0.32926 0.42404 0.0
Cu345 Cu 0.26989 0.57667 0.58111 0.0
N346 N 0.24313 0.54282 0.58706 0.0
N347 N 0.19892 0.51695 0.58976 0.0
C348 C 0.21347 0.54734 0.58722 0.0
C349 C 0.22045 0.49251 0.59164 0.0
C350 C 0.24774 0.50855 0.58993 0.0
O351 O 0.26043 0.62276 0.58861 0.0
C352 C 0.25294 0.55497 0.55655 0.0
O353 O 0.22789 0.54409 0.56143 0.0
H354 H 0.2028 0.57205 0.58472 0.0
H355 H 0.26925 0.49568 0.59 0.0
N356 N 0.30941 0.56664 0.58516 0.0
N357 N 0.35794 0.57 0.58069 0.0
C358 C 0.33041 0.56349 0.57637 0.0
C359 C 0.32426 0.5746 0.59558 0.0
C360 C 0.35424 0.5767 0.59285 0.0
C361 C 0.25485 0.6226 0.60018 0.0
O362 O 0.25432 0.59202 0.60597 0.0
H363 H 0.32522 0.56131 0.56667 0.0
H364 H 0.31394 0.58231 0.6042 0.0
O365 O 0.27024 0.57437 0.56297 0.0
H366 H 0.21675 0.46456 0.59325 0.0
H367 H 0.37151 0.58556 0.59906 0.0
C368 C 0.14985 0.33039 0.29582 0.0
C369 C 0.12271 0.31938 0.29067 0.0
C370 C 0.1661 0.35801 0.29042 0.0
C371 C 0.15792 0.43881 0.27268 0.0
H372 H 0.23863 0.42381 0.26134 0.0
C373 C 0.21701 0.53898 0.24058 0.0
C374 C 0.2482 0.53934 0.24001 0.0
C375 C 0.20223 0.51494 0.24827 0.0
C376 C 0.2164 0.42904 0.2647 0.0
H377 H 0.09129 0.32896 0.27586 0.0
H378 H 0.11928 0.37781 0.26668 0.0
H379 H 0.21237 0.37603 0.27171 0.0
H380 H 0.28833 0.51681 0.24773 0.0
H381 H 0.26278 0.47684 0.26181 0.0
H382 H 0.16189 0.49199 0.26612 0.0
C383 C 0.1281 0.36471 0.2748 0.0
C384 C 0.20128 0.40135 0.27056 0.0
C385 C 0.11223 0.33657 0.28 0.0
C386 C 0.26426 0.51708 0.24797 0.0
C387 C 0.2495 0.49368 0.2559 0.0
C388 C 0.17324 0.46682 0.26709 0.0
C389 C 0.15514 0.37576 0.27996 0.0
C390 C 0.17175 0.40578 0.27443 0.0
C391 C 0.21824 0.49112 0.25581 0.0
C392 C 0.20261 0.46227 0.2628 0.0
H393 H 0.15847 0.31772 0.30405 0.0
H394 H 0.1869 0.36605 0.29458 0.0
H395 H 0.13523 0.44301 0.27571 0.0
H396 H 0.20396 0.55538 0.23441 0.0
H397 H 0.17825 0.51383 0.24771 0.0
C398 C 0.49853 0.87336 0.78785 0.0
C399 C 0.52286 0.8526 0.784 0.0
C400 C 0.48073 0.89099 0.77921 0.0
C401 C 0.47843 0.92104 0.74643 0.0
H402 H 0.3933 0.92001 0.75182 0.0
C403 C 0.39362 0.99311 0.71419 0.0
C404 C 0.36693 0.97501 0.71178 0.0
C405 C 0.41393 0.98003 0.72291 0.0
C406 C 0.41702 0.92039 0.75011 0.0
H407 H 0.5479 0.83519 0.76794 0.0
H408 H 0.51642 0.86489 0.75293 0.0
H409 H 0.42609 0.8938 0.76711 0.0
H410 H 0.34122 0.92839 0.71682 0.0
H411 H 0.37661 0.90548 0.73145 0.0
H412 H 0.46907 0.94666 0.72918 0.0
C413 C 0.51128 0.86792 0.76265 0.0
C414 C 0.43589 0.90575 0.75899 0.0
C415 C 0.52912 0.85037 0.77128 0.0
C416 C 0.36151 0.94311 0.71814 0.0
C417 C 0.38172 0.93011 0.72678 0.0
C418 C 0.45948 0.93568 0.73751 0.0
C419 C 0.48672 0.88829 0.76648 0.0
C420 C 0.46684 0.90555 0.75723 0.0
C421 C 0.40796 0.94861 0.72945 0.0
C422 C 0.42849 0.93509 0.73917 0.0
H423 H 0.49287 0.87562 0.79753 0.0
H424 H 0.46225 0.9068 0.78253 0.0
H425 H 0.50217 0.92181 0.74484 0.0
H426 H 0.39867 1.01758 0.70944 0.0
H427 H 0.43393 0.99502 0.72476 0.0
C428 C 0.73269 0.58448 0.21137 0.0
C429 C 0.74315 0.54938 0.21231 0.0
C430 C 0.744 0.61113 0.21908 0.0
C431 C 0.77616 0.62191 0.24976 0.0
H432 H 0.79958 0.71579 0.23895 0.0
C433 C 0.79842 0.73366 0.28464 0.0
C434 C 0.82557 0.75162 0.28328 0.0
C435 C 0.78765 0.71183 0.27522 0.0
C436 C 0.79311 0.68967 0.24209 0.0
H437 H 0.7744 0.51511 0.22185 0.0
H438 H 0.79369 0.5614 0.23535 0.0
H439 H 0.78353 0.6716 0.22368 0.0
H440 H 0.86188 0.76204 0.2706 0.0
H441 H 0.84278 0.72413 0.25408 0.0
H442 H 0.78546 0.63974 0.26812 0.0
C443 C 0.77677 0.56829 0.22866 0.0
C444 C 0.7838 0.66448 0.23337 0.0
C445 C 0.76582 0.54182 0.22085 0.0
C446 C 0.84089 0.74862 0.27198 0.0
C447 C 0.82994 0.72695 0.26249 0.0
C448 C 0.785 0.64715 0.25846 0.0
C449 C 0.76565 0.6031 0.22801 0.0
C450 C 0.77543 0.63024 0.23712 0.0
C451 C 0.80359 0.70758 0.26414 0.0
C452 C 0.79364 0.6813 0.25475 0.0
H453 H 0.71527 0.59122 0.20489 0.0
H454 H 0.73494 0.63769 0.2184 0.0
H455 H 0.76956 0.59589 0.25295 0.0
H456 H 0.78591 0.73543 0.29317 0.0
H457 H 0.76704 0.69769 0.27669 0.0
C458 C 0.51063 0.2143 0.79775 0.0
C459 C 0.51437 0.22823 0.80968 0.0
C460 C 0.53527 0.20522 0.79053 0.0
C461 C 0.6174 0.19019 0.79202 0.0
H462 H 0.61317 0.21076 0.75698 0.0
C463 C 0.72062 0.2011 0.76039 0.0
C464 C 0.71932 0.18387 0.74889 0.0
C465 C 0.69546 0.20328 0.76794 0.0
C466 C 0.61457 0.20452 0.76673 0.0
H467 H 0.54682 0.24343 0.82342 0.0
H468 H 0.58988 0.22863 0.81076 0.0
H469 H 0.56966 0.22055 0.76995 0.0
H470 H 0.69065 0.15549 0.73626 0.0
H471 H 0.6464 0.15977 0.74939 0.0
H472 H 0.66281 0.1755 0.78876 0.0
C473 C 0.56795 0.22369 0.80705 0.0
C474 C 0.58958 0.20997 0.77419 0.0
C475 C 0.54327 0.2323 0.81433 0.0
C476 C 0.69232 0.16872 0.74511 0.0
C477 C 0.66701 0.17138 0.75258 0.0
C478 C 0.6425 0.18521 0.78458 0.0
C479 C 0.56433 0.21035 0.79498 0.0
C480 C 0.59066 0.20306 0.78696 0.0
C481 C 0.66833 0.18871 0.76406 0.0
C482 C 0.64137 0.19249 0.77187 0.0
H483 H 0.48857 0.21049 0.79401 0.0
H484 H 0.53149 0.19427 0.78142 0.0
H485 H 0.61901 0.18387 0.80175 0.0
H486 H 0.74119 0.21269 0.7636 0.0
H487 H 0.69708 0.21701 0.7767 0.0
C488 C 0.28318 0.05244 0.04892 0.0
C489 C 0.26794 0.03676 0.05883 0.0
C490 C 0.27134 0.08172 0.04276 0.0
C491 C 0.2143 0.15325 0.04416 0.0
H492 H 0.22336 0.14992 1.00856 0.0
C493 C 0.15224 0.24736 1.00979 0.0
C494 C 0.16816 0.25859 0.9993 0.0
C495 C 0.16475 0.22293 0.01807 0.0
C496 C 0.22093 0.15161 0.0185 0.0
H497 H 0.22869 0.04052 0.07036 0.0
H498 H 0.20756 0.09166 0.05942 0.0
H499 H 0.24395 0.10264 0.0211 0.0
H500 H 0.21037 0.2543 0.98972 0.0
H501 H 0.23216 0.21224 1.00415 0.0
H502 H 0.19074 0.20225 0.04139 0.0
C503 C 0.22895 0.08139 0.0565 0.0
C504 C 0.23279 0.12441 0.02572 0.0
C505 C 0.24101 0.05206 0.06277 0.0
C506 C 0.19734 0.24608 0.99763 0.0
C507 C 0.20979 0.22172 1.00587 0.0
C508 C 0.20226 0.18056 0.03688 0.0
C509 C 0.24367 0.09605 0.04622 0.0
C510 C 0.22999 0.12497 0.03867 0.0
C511 C 0.19342 0.20912 1.01603 0.0
C512 C 0.20573 0.18023 0.02395 0.0
H513 H 0.30418 0.04167 0.04573 0.0
H514 H 0.28377 0.09282 0.03513 0.0
H515 H 0.21181 0.15467 0.0541 0.0
H516 H 0.12968 0.25638 1.01137 0.0
H517 H 0.15148 0.21372 0.02576 0.0
C518 C 0.18026 0.85858 0.05114 0.0
C519 C 0.20403 0.88206 0.04929 0.0
C520 C 0.15853 0.85416 0.04207 0.0
C521 C 0.14617 0.86044 1.00886 0.0
H522 H 0.06267 0.86069 0.0177 0.0
C523 C 0.05441 0.84343 0.97197 0.0
C524 C 0.02935 0.82341 0.97524 0.0
C525 C 0.07523 0.85337 0.98091 0.0
C526 C 0.08588 0.86005 1.01507 0.0
H527 H 0.22374 0.9192 0.03647 0.0
H528 H 0.18587 0.91107 0.02046 0.0
H529 H 0.09997 0.87249 0.03347 0.0
H530 H 1.00668 0.79766 0.99041 0.0
H531 H 0.04319 0.81402 1.00593 0.0
H532 H 0.13238 0.84676 0.99058 0.0
C533 C 0.18406 0.89627 0.02899 0.0
C534 C 0.10723 0.86701 0.02411 0.0
C535 C 0.20558 0.9011 0.03816 0.0
C536 C 0.0255 0.8136 0.98764 0.0
C537 C 0.04647 0.82312 0.99655 0.0
C538 C 0.12485 0.85302 0.99983 0.0
C539 C 0.16029 0.87277 0.03086 0.0
C540 C 0.1376 0.86706 0.02112 0.0
C541 C 0.07168 0.8431 0.99332 0.0
C542 C 0.09438 0.85247 1.00282 0.0
H543 H 0.17831 0.84384 0.05967 0.0
H544 H 0.1406 0.83568 0.04373 0.0
H545 H 0.16946 0.85993 1.00632 0.0
H546 H 0.05776 0.85168 0.9625 0.0
H547 H 0.094 0.86929 0.97808 0.0
C548 C 0.87645 0.86131 0.9809 0.0
C549 C 0.86172 0.82972 0.97778 0.0
C550 C 0.86224 0.88748 0.98795 0.0
C551 C 0.78719 0.91665 0.99904 0.0
H552 H 0.83351 0.97076 0.02258 0.0
C553 C 0.73786 0.99362 0.04055 0.0
C554 C 0.75054 1.02628 0.04384 0.0
C555 C 0.7494 0.97372 0.03075 0.0
C556 C 0.82033 0.9563 1.0159 0.0
H557 H 0.8205 0.80077 0.97978 0.0
H558 H 0.79605 0.84572 0.99246 0.0
H559 H 0.858 0.92673 1.00962 0.0
H560 H 0.78454 0.06446 0.03914 0.0
H561 H 0.80508 0.02939 0.02201 0.0
H562 H 0.74929 0.94538 1.00582 0.0
C563 C 0.81835 0.85085 0.98917 0.0
C564 C 0.83438 0.93096 1.00844 0.0
C565 C 0.83247 0.82483 0.98198 0.0
C566 C 0.77405 0.03961 0.03669 0.0
C567 C 0.78601 1.01934 0.027 0.0
C568 C 0.77309 0.94171 1.00663 0.0
C569 C 0.83298 0.88267 0.99223 0.0
C570 C 0.81801 0.91051 0.99994 0.0
C571 C 0.7743 0.98573 0.02415 0.0
C572 C 0.78947 0.96166 1.01521 0.0
H573 H 0.8989 0.86619 0.97773 0.0
H574 H 0.87416 0.91175 0.98987 0.0
H575 H 0.77384 0.90211 0.99245 0.0
H576 H 0.71985 0.98261 0.04596 0.0
H577 H 0.73998 0.94789 0.02885 0.0
C578 C 0.88162 0.08098 0.06268 0.0
C579 C 0.86237 0.10247 0.0697 0.0
C580 C 0.90332 0.09635 0.05511 0.0
C581 C 0.914 0.17791 0.03767 0.0
H582 H 0.99469 0.14487 0.03237 0.0
C583 C 0.98315 0.22388 0.99606 0.0
C584 C 0.01198 0.23619 0.99863 0.0
C585 C 0.96682 0.20568 1.005 0.0
C586 C 0.97222 0.15438 0.0338 0.0
H587 H 0.85258 0.15649 0.07518 0.0
H588 H 0.89029 0.18326 0.062 0.0
H589 H 0.9639 0.11718 0.0484 0.0
H590 H 0.04631 0.2378 1.01274 0.0
H591 H 0.01792 0.20554 0.02819 0.0
H592 H 0.92201 0.21485 0.02308 0.0
C593 C 0.88825 0.15465 0.06213 0.0
C594 C 0.9546 0.13845 0.04291 0.0
C595 C 0.86673 0.13934 0.0697 0.0
C596 C 0.02436 0.22863 1.01029 0.0
C597 C 1.00808 0.2101 0.0192 0.0
C598 C 0.9314 0.19347 0.0285 0.0
C599 C 0.90607 0.13343 0.05443 0.0
C600 C 0.92534 0.15022 0.04497 0.0
C601 C 0.97895 0.19898 1.01672 0.0
C602 C 0.96069 0.18192 0.02645 0.0
H603 H 0.8787 0.05252 0.06242 0.0
H604 H 0.91672 0.07934 0.04925 0.0
H605 H 0.8914 0.18724 0.03892 0.0
H606 H 0.97299 0.22834 0.98715 0.0
H607 H 0.94457 0.19692 1.00276 0.0
C608 C 0.67438 0.81978 0.77614 0.0
C609 C 0.64984 0.80117 0.77142 0.0
C610 C 0.68876 0.8455 0.76898 0.0
C611 C 0.67329 0.90823 0.74405 0.0
H612 H 0.75879 0.91857 0.74208 0.0
C613 C 0.72587 1.02057 0.7152 0.0
C614 C 0.75123 0.03717 0.72004 0.0
C615 C 0.71506 0.98919 0.72045 0.0
C616 C 0.73485 0.91641 0.74264 0.0
H617 H 0.6219 0.79424 0.75527 0.0
H618 H 0.6468 0.83918 0.74289 0.0
H619 H 0.73758 0.86862 0.75334 0.0
H620 H 0.78533 0.03342 0.73413 0.0
H621 H 0.76608 0.97971 0.74348 0.0
H622 H 0.67024 0.9565 0.73383 0.0
C623 C 0.65484 0.83395 0.75214 0.0
C624 C 0.72274 0.88762 0.74906 0.0
C625 C 0.64072 0.80799 0.75922 0.0
C626 C 0.76585 1.02125 0.73009 0.0
C627 C 0.75485 0.99019 0.73543 0.0
C628 C 0.68535 0.93723 0.73778 0.0
C629 C 0.67868 0.85345 0.757 0.0
C630 C 0.69181 0.88326 0.74986 0.0
C631 C 0.72909 0.97385 0.73078 0.0
C632 C 0.71633 0.94189 0.73701 0.0
H633 H 0.68197 0.81522 0.7855 0.0
H634 H 0.70699 0.86019 0.773 0.0
H635 H 0.64935 0.9059 0.74466 0.0
H636 H 0.71417 0.03198 0.70742 0.0
H637 H 0.69556 0.97711 0.71641 0.0
C638 C 0.98272 0.30912 0.288 0.0
C639 C 0.97804 0.31624 0.3006 0.0
C640 C 0.96113 0.31807 0.27927 0.0
C641 C 0.89715 0.37557 0.27316 0.0
H642 H 0.87211 0.30033 0.25112 0.0
C643 C 0.79525 0.39153 0.24099 0.0
C644 C 0.79608 0.37467 0.22942 0.0
C645 C 0.81758 0.38526 0.24972 0.0
C646 C 0.8791 0.32192 0.25702 0.0
H647 H 0.94767 0.33946 0.31387 0.0
H648 H 0.91003 0.3558 0.29852 0.0
H649 H 0.91164 0.28928 0.26594 0.0
H650 H 0.82135 0.33897 0.21777 0.0
H651 H 0.86077 0.32889 0.23272 0.0
H652 H 0.86525 0.4086 0.26408 0.0
C653 C 0.93034 0.34306 0.29545 0.0
C654 C 0.90171 0.31546 0.26556 0.0
C655 C 0.95175 0.33358 0.30422 0.0
C656 C 0.81986 0.35181 0.22669 0.0
C657 C 0.84242 0.34597 0.23532 0.0
C658 C 0.87481 0.38226 0.26447 0.0
C659 C 0.9346 0.33479 0.28292 0.0
C660 C 0.91093 0.34216 0.27373 0.0
C661 C 0.84154 0.36239 0.247 0.0
C662 C 0.86541 0.35549 0.25628 0.0
H663 H 1.00258 0.29541 0.28495 0.0
H664 H 0.96505 0.3116 0.26965 0.0
H665 H 0.90399 0.3967 0.27931 0.0
H666 H 0.77702 0.40905 0.24336 0.0
H667 H 0.81574 0.39794 0.25866 0.0
C668 C 0.28508 1.01657 0.73731 0.0
C669 C 0.25842 0.02821 0.73192 0.0
C670 C 0.29762 0.03548 0.74719 0.0
C671 C 0.3297 0.09853 0.75859 0.0
H672 H 0.28484 0.15219 0.78287 0.0
C673 C 0.37543 0.22746 0.77956 0.0
C674 C 0.3706 0.23442 0.79217 0.0
C675 C 0.36136 0.19903 0.77371 0.0
C676 C 0.29783 0.13717 0.77625 0.0
H677 H 0.2228 0.06671 0.73321 0.0
H678 H 0.24419 0.09921 0.7504 0.0
H679 H 0.26062 0.10479 0.77132 0.0
H680 H 0.34658 0.21709 0.80844 0.0
H681 H 0.32202 0.16735 0.79822 0.0
H682 H 0.36685 0.13091 0.76345 0.0
C683 C 0.2556 0.07565 0.74715 0.0
C684 C 0.28387 0.11011 0.76955 0.0
C685 C 0.24325 0.05698 0.73728 0.0
C686 C 0.35074 0.21262 0.79871 0.0
C687 C 0.33662 0.18409 0.79284 0.0
C688 C 0.34364 0.12553 0.76528 0.0
C689 C 0.28361 0.06621 0.75188 0.0
C690 C 0.29943 0.09094 0.76042 0.0
C691 C 0.34205 0.17663 0.78029 0.0
C692 C 0.32773 0.14581 0.77399 0.0
H693 H 0.2975 0.99484 0.73324 0.0
H694 H 0.31902 0.02712 0.75072 0.0
H695 H 0.3424 0.08471 0.75156 0.0
H696 H 0.39047 0.24372 0.7742 0.0
H697 H 0.36558 0.19467 0.76398 0.0
C698 C 0.96819 0.70424 0.27774 0.0
C699 C 0.98122 0.7262 0.28673 0.0
C700 C 0.98564 0.68831 0.26854 0.0
C701 C 0.05597 0.69977 0.25191 0.0
H702 H 0.05126 0.59921 0.24468 0.0
C703 C 0.14827 0.62899 0.22523 0.0
C704 C 0.14124 0.60186 0.21682 0.0
C705 C 0.12651 0.64379 0.23282 0.0
C706 C 0.0525 0.62744 0.24642 0.0
H707 H 0.02273 0.74882 0.29304 0.0
H708 H 0.05309 0.72128 0.277 0.0
H709 H 0.01723 0.62568 0.25978 0.0
H710 H 0.10584 0.56857 0.20996 0.0
H711 H 0.06726 0.59499 0.2232 0.0
H712 H 0.09096 0.70192 0.23861 0.0
C713 C 0.02939 0.71631 0.27707 0.0
C714 C 0.03307 0.64255 0.2551 0.0
C715 C 0.01205 0.73182 0.28633 0.0
C716 C 0.11182 0.58958 0.2163 0.0
C717 C 0.08983 0.60462 0.22391 0.0
C718 C 0.07511 0.68483 0.24318 0.0
C719 C 0.0164 0.69449 0.26805 0.0
C720 C 0.03509 0.67873 0.25813 0.0
C721 C 0.09694 0.63207 0.23224 0.0
C722 C 0.07417 0.64831 0.24053 0.0
H723 H 0.94453 0.69919 0.27788 0.0
H724 H 0.97503 0.67169 0.26169 0.0
H725 H 0.05763 0.72788 0.25387 0.0
H726 H 0.17085 0.63827 0.22624 0.0
H727 H 0.1331 0.66402 0.23936 0.0
C728 C 0.74566 0.53369 0.55555 0.0
C729 C 0.76912 0.54105 0.56371 0.0
C730 C 0.73115 0.56109 0.54925 0.0
C731 C 0.74121 0.65568 0.53985 0.0
H732 H 0.65906 0.64592 0.52971 0.0
C733 C 0.67261 0.76559 0.51433 0.0
C734 C 0.6577 0.75383 0.50368 0.0
C735 C 0.68645 0.74124 0.52228 0.0
C736 C 0.68205 0.64897 0.53246 0.0
H737 H 0.79486 0.58325 0.57202 0.0
H738 H 0.76876 0.63116 0.56146 0.0
H739 H 0.68133 0.60122 0.54305 0.0
H740 H 0.64564 0.70717 0.49308 0.0
H741 H 0.66919 0.66494 0.50702 0.0
H742 H 0.74138 0.70405 0.5294 0.0
C743 C 0.76214 0.60413 0.55958 0.0
C744 C 0.69495 0.62321 0.54007 0.0
C745 C 0.77696 0.57663 0.56576 0.0
C746 C 0.65708 0.71724 0.50114 0.0
C747 C 0.67037 0.69296 0.50918 0.0
C748 C 0.72809 0.68178 0.53241 0.0
C749 C 0.73935 0.59676 0.55105 0.0
C750 C 0.72491 0.62577 0.54371 0.0
C751 C 0.68507 0.70462 0.51987 0.0
C752 C 0.69853 0.67837 0.52847 0.0
H753 H 0.7392 0.50659 0.55364 0.0
H754 H 0.71417 0.55401 0.54263 0.0
H755 H 0.76442 0.65853 0.54225 0.0
H756 H 0.67346 0.79357 0.51656 0.0
H757 H 0.6976 0.75095 0.53047 0.0
C758 C 0.71535 0.33608 0.5408 0.0
C759 C 0.73228 0.36708 0.53947 0.0
C760 C 0.69114 0.32961 0.53306 0.0
C761 C 0.66072 0.34988 0.50264 0.0
H762 H 0.58526 0.32255 0.51701 0.0
C763 C 0.55521 0.33445 0.47277 0.0
C764 C 0.53514 0.3075 0.47591 0.0
C765 C 0.57895 0.34271 0.48058 0.0
C766 C 0.60625 0.32961 0.5128 0.0
H767 H 0.73746 0.41531 0.52887 0.0
H768 H 0.69531 0.40372 0.51515 0.0
H769 H 0.62755 0.33444 0.53041 0.0
H770 H 0.52446 0.26758 0.48954 0.0
H771 H 0.56628 0.28107 0.50299 0.0
H772 H 0.63992 0.34407 0.48502 0.0
C773 C 0.70073 0.38458 0.52226 0.0
C774 C 0.63043 0.33659 0.5205 0.0
C775 C 0.72468 0.39132 0.53014 0.0
C776 C 0.53934 0.28885 0.48698 0.0
C777 C 0.5633 0.29673 0.49471 0.0
C778 C 0.63666 0.34242 0.49491 0.0
C779 C 0.68361 0.35376 0.5237 0.0
C780 C 0.6579 0.34678 0.5155 0.0
C781 C 0.58343 0.32383 0.49163 0.0
C782 C 0.60906 0.33216 0.49987 0.0
H783 H 0.72049 0.31712 0.54799 0.0
H784 H 0.67843 0.30554 0.53432 0.0
H785 H 0.68175 0.35733 0.49854 0.0
H786 H 0.55227 0.34954 0.46436 0.0
H787 H 0.59356 0.3642 0.47799 0.0
C788 C 0.2945 0.53997 0.5418 0.0
C789 C 0.26454 0.53659 0.54534 0.0
C790 C 0.30711 0.51657 0.53318 0.0
C791 C 0.29019 0.45008 0.50894 0.0
H792 H 0.36297 0.40504 0.52 0.0
C793 C 0.3357 0.32384 0.48505 0.0
C794 C 0.36665 0.31995 0.48385 0.0
C795 C 0.32357 0.3511 0.49229 0.0
C796 C 0.34292 0.41763 0.51662 0.0
H797 H 0.22376 0.5079 0.54167 0.0
H798 H 0.24557 0.46781 0.52649 0.0
H799 H 0.34157 0.45349 0.53198 0.0
H800 H 0.40911 0.34166 0.48946 0.0
H801 H 0.38809 0.38954 0.5018 0.0
H802 H 0.29158 0.41458 0.49352 0.0
C803 C 0.25945 0.48817 0.53052 0.0
C804 C 0.33064 0.44549 0.52352 0.0
C805 C 0.24694 0.51123 0.53925 0.0
C806 C 0.38517 0.34364 0.49025 0.0
C807 C 0.37304 0.37114 0.49738 0.0
C808 C 0.30263 0.42246 0.50196 0.0
C809 C 0.28992 0.48971 0.52771 0.0
C810 C 0.30399 0.46187 0.51983 0.0
C811 C 0.34204 0.37552 0.49842 0.0
C812 C 0.32906 0.40555 0.50575 0.0
H813 H 0.30865 0.55954 0.54609 0.0
H814 H 0.33053 0.51892 0.53103 0.0
H815 H 0.26978 0.46234 0.50578 0.0
H816 H 0.32077 0.30599 0.48029 0.0
H817 H 0.29964 0.35297 0.49305 0.0
C818 C 0.48666 0.7221 0.49983 0.0
C819 C 0.51765 0.71987 0.49828 0.0
C820 C 0.47234 0.70268 0.50905 0.0
C821 C 0.4457 0.64322 0.52416 0.0
H822 H 0.47882 0.63699 0.55714 0.0
C823 C 0.3869 0.5618 0.56153 0.0
C824 C 0.38304 0.57883 0.57298 0.0
C825 C 0.40707 0.57489 0.55285 0.0
C826 C 0.46928 0.63849 0.54798 0.0
H827 H 0.55775 0.69503 0.50531 0.0
H828 H 0.53272 0.66127 0.52144 0.0
H829 H 0.50571 0.66915 0.54105 0.0
H830 H 0.39872 0.62184 0.58453 0.0
H831 H 0.43391 0.64472 0.56941 0.0
H832 H 0.40888 0.61366 0.5311 0.0
C833 C 0.51958 0.67839 0.51556 0.0
C834 C 0.48481 0.65665 0.53873 0.0
C835 C 0.53393 0.69781 0.50629 0.0
C836 C 0.40134 0.60784 0.57587 0.0
C837 C 0.4215 0.62103 0.56716 0.0
C838 C 0.43025 0.62503 0.53337 0.0
C839 C 0.48857 0.68047 0.51701 0.0
C840 C 0.47301 0.65962 0.52674 0.0
C841 C 0.42386 0.60544 0.55537 0.0
C842 C 0.44167 0.62267 0.54544 0.0
H843 H 0.47339 0.73926 0.49403 0.0
H844 H 0.4485 0.70548 0.51005 0.0
H845 H 0.43613 0.64455 0.515 0.0
H846 H 0.37337 0.53916 0.5591 0.0
H847 H 0.40881 0.56169 0.54399 0.0
C848 C 0.33043 0.24957 0.42483 0.0
C849 C 0.35532 0.26984 0.42142 0.0
C850 C 0.30634 0.24571 0.41672 0.0
C851 C 0.27081 0.29269 0.39085 0.0
H852 H 0.22572 0.20622 0.38631 0.0
C853 C 0.15574 0.29293 0.36785 0.0
C854 C 0.14969 0.26657 0.35902 0.0
C855 C 0.18126 0.29117 0.37515 0.0
C856 C 0.23823 0.23049 0.38743 0.0
H857 H 0.37519 0.29965 0.40645 0.0
H858 H 0.33342 0.29309 0.39242 0.0
H859 H 0.27002 0.20585 0.3995 0.0
H860 H 0.16573 0.21736 0.35107 0.0
H861 H 0.21058 0.21423 0.3639 0.0
H862 H 0.2392 0.31744 0.37888 0.0
C863 C 0.33214 0.28085 0.40145 0.0
C864 C 0.26342 0.23035 0.39507 0.0
C865 C 0.35612 0.28463 0.40951 0.0
C866 C 0.16985 0.2382 0.35772 0.0
C867 C 0.19536 0.23625 0.36514 0.0
C868 C 0.2456 0.2929 0.38334 0.0
C869 C 0.30665 0.26207 0.40504 0.0
C870 C 0.28002 0.2615 0.39686 0.0
C871 C 0.20145 0.26289 0.37389 0.0
C872 C 0.22889 0.26189 0.38157 0.0
H873 H 0.32901 0.23796 0.43395 0.0
H874 H 0.28698 0.23118 0.41979 0.0
H875 H 0.28283 0.31726 0.39213 0.0
H876 H 0.14096 0.31537 0.36901 0.0
H877 H 0.1851 0.31195 0.38187 0.0
C878 C 0.24211 0.65362 0.61991 0.0
C879 C 0.25132 0.65576 0.60751 0.0
C880 C 0.24121 0.68376 0.62741 0.0
C881 C 0.24076 0.78214 0.62698 0.0
H882 H 0.26966 0.77167 0.66053 0.0
C883 C 0.26613 0.90291 0.65787 0.0
C884 C 0.25901 0.9015 0.67052 0.0
C885 C 0.26373 0.87292 0.65037 0.0
C886 C 0.26111 0.77501 0.65126 0.0
H887 H 0.266 0.69175 0.59319 0.0
H888 H 0.2646 0.74467 0.60636 0.0
H889 H 0.26825 0.7203 0.64688 0.0
H890 H 0.24375 0.86703 0.68519 0.0
H891 H 0.23938 0.81431 0.67202 0.0
H892 H 0.2338 0.83693 0.63136 0.0
C893 C 0.25787 0.7195 0.61024 0.0
C894 C 0.26032 0.74551 0.6434 0.0
C895 C 0.25872 0.68917 0.60268 0.0
C896 C 0.24946 0.86906 0.6755 0.0
C897 C 0.24708 0.83883 0.66795 0.0
C898 C 0.24153 0.81165 0.63485 0.0
C899 C 0.24956 0.71704 0.62278 0.0
C900 C 0.25021 0.74866 0.63113 0.0
C901 C 0.25409 0.84045 0.65526 0.0
C902 C 0.25189 0.80856 0.64708 0.0
H903 H 0.23594 0.62843 0.62394 0.0
H904 H 0.23403 0.68088 0.63691 0.0
H905 H 0.2324 0.78551 0.61768 0.0
H906 H 0.2737 0.92733 0.65367 0.0
H907 H 0.26989 0.87513 0.64073 0.0
C908 C 0.64972 0.76611 0.41728 0.0
C909 C 0.65636 0.7795 0.4291 0.0
C910 C 0.67019 0.76867 0.40761 0.0
C911 C 0.73651 0.81558 0.39621 0.0
H912 H 0.75067 0.72819 0.37819 0.0
C913 C 0.80722 0.80344 0.35073 0.0
C914 C 0.82697 0.77439 0.35022 0.0
C915 C 0.78706 0.80714 0.36058 0.0
C916 C 0.74703 0.75281 0.38314 0.0
H917 H 0.68974 0.80755 0.43973 0.0
H918 H 0.72531 0.81251 0.42272 0.0
H919 H 0.71403 0.72944 0.39478 0.0
H920 H 0.84193 0.72783 0.36027 0.0
H921 H 0.80657 0.73381 0.37706 0.0
H922 H 0.76966 0.83885 0.38443 0.0
C923 C 0.70413 0.79986 0.42103 0.0
C924 C 0.72586 0.7536 0.39259 0.0
C925 C 0.68368 0.79701 0.43079 0.0
C926 C 0.82664 0.74997 0.36005 0.0
C927 C 0.80638 0.75346 0.36976 0.0
C928 C 0.75749 0.81491 0.38659 0.0
C929 C 0.69784 0.78505 0.40939 0.0
C930 C 0.72038 0.78491 0.39928 0.0
C931 C 0.78603 0.78171 0.37007 0.0
C932 C 0.76314 0.78339 0.38002 0.0
H933 H 0.62871 0.75333 0.41544 0.0
H934 H 0.66441 0.7576 0.39869 0.0
H935 H 0.73268 0.84015 0.40116 0.0
H936 H 0.80665 0.82277 0.34336 0.0
H937 H 0.77159 0.82918 0.36055 0.0
C938 C 0.80345 0.20627 0.68139 0.0
C939 C 0.77649 0.18999 0.68458 0.0
C940 C 0.80476 0.23062 0.67166 0.0
C941 C 0.75549 0.28686 0.6516 0.0
H942 H 0.82902 0.30113 0.63373 0.0
C943 C 0.76631 0.39978 0.6157 0.0
C944 C 0.78489 0.39432 0.60545 0.0
C945 C 0.76619 0.37564 0.62554 0.0
C946 C 0.80807 0.29731 0.63845 0.0
H947 H 0.73002 0.18535 0.67975 0.0
H948 H 0.73254 0.22592 0.6623 0.0
H949 H 0.82643 0.25565 0.64938 0.0
H950 H 0.81773 0.35901 0.59742 0.0
H951 H 0.81652 0.31624 0.6141 0.0
H952 H 0.73656 0.32687 0.64009 0.0
C953 C 0.75254 0.22133 0.66761 0.0
C954 C 0.80674 0.27143 0.64769 0.0
C955 C 0.75109 0.19764 0.67755 0.0
C956 C 0.80345 0.36429 0.60527 0.0
C957 C 0.80283 0.33975 0.61494 0.0
C958 C 0.75662 0.31217 0.64216 0.0
C959 C 0.77928 0.23879 0.66464 0.0
C960 C 0.78048 0.26586 0.65449 0.0
C961 C 0.78413 0.34489 0.62525 0.0
C962 C 0.78297 0.31798 0.63545 0.0
H963 H 0.82336 0.2013 0.68674 0.0
H964 H 0.82569 0.24378 0.66995 0.0
H965 H 0.73494 0.28415 0.6567 0.0
H966 H 0.75184 0.42276 0.61613 0.0
H967 H 0.75198 0.38126 0.63337 0.0
C968 C 0.19251 0.30066 0.93802 0.0
C969 C 0.16333 0.29107 0.93491 0.0
C970 C 0.21451 0.3031 0.92889 0.0
C971 C 0.231 0.27597 0.8963 0.0
H972 H 0.29363 0.34554 0.89948 0.0
C973 C 0.33175 0.27984 0.86266 0.0
C974 C 0.34415 0.31305 0.85993 0.0
C975 C 0.30947 0.2767 0.87166 0.0
C976 C 0.27614 0.3262 0.89832 0.0
H977 H 0.13413 0.27773 0.91974 0.0
H978 H 0.17201 0.28313 0.90378 0.0
H979 H 0.25517 0.34233 0.91513 0.0
H980 H 0.34189 0.36917 0.86405 0.0
H981 H 0.30259 0.36409 0.87934 0.0
H982 H 0.25129 0.26091 0.87919 0.0
C983 C 0.17836 0.2876 0.9133 0.0
C984 C 0.25423 0.32395 0.90746 0.0
C985 C 0.15651 0.28469 0.92244 0.0
C986 C 0.33317 0.34313 0.86612 0.0
C987 C 0.31069 0.34012 0.87496 0.0
C988 C 0.25273 0.2785 0.88707 0.0
C989 C 0.2078 0.2965 0.91638 0.0
C990 C 0.23129 0.29881 0.90661 0.0
C991 C 0.29878 0.30681 0.87803 0.0
C992 C 0.27563 0.30371 0.88792 0.0
H993 H 0.19852 0.30526 0.94756 0.0
H994 H 0.23694 0.30944 0.93172 0.0
H995 H 0.21407 0.25582 0.89536 0.0
H996 H 0.33994 0.25618 0.8581 0.0
H997 H 0.30119 0.25052 0.87383 0.0
C998 C 0.24913 0.67349 0.16858 0.0
C999 C 0.25452 0.67359 0.18137 0.0
C1000 C 0.24908 0.70493 0.16183 0.0
C1001 C 0.27543 0.79692 0.16113 0.0
H1002 H 0.21377 0.80619 0.13634 0.0
C1003 C 0.2831 0.89221 0.1191 0.0
C1004 C 0.25668 0.90628 0.11415 0.0
C1005 C 0.28228 0.86878 0.12914 0.0
C1006 C 0.23093 0.80451 0.14332 0.0
H1007 H 0.26479 0.70719 0.19704 0.0
H1008 H 0.26485 0.76269 0.1851 0.0
H1009 H 0.21312 0.75614 0.15039 0.0
H1010 H 0.20887 0.90866 0.11649 0.0
H1011 H 0.20749 0.86856 0.1341 0.0
H1012 H 0.29335 0.84537 0.15391 0.0
C1013 C 0.26061 0.7379 0.18037 0.0
C1014 C 0.23074 0.77546 0.15131 0.0
C1015 C 0.26049 0.70617 0.18721 0.0
C1016 C 0.22963 0.89808 0.11997 0.0
C1017 C 0.22883 0.87483 0.13004 0.0
C1018 C 0.27568 0.8261 0.15308 0.0
C1019 C 0.25446 0.73761 0.16761 0.0
C1020 C 0.25329 0.77083 0.16014 0.0
C1021 C 0.25503 0.85895 0.13452 0.0
C1022 C 0.25364 0.82999 0.14393 0.0
H1023 H 0.24466 0.64901 0.16369 0.0
H1024 H 0.2449 0.70355 0.15199 0.0
H1025 H 0.29316 0.79411 0.16782 0.0
H1026 H 0.30435 0.89788 0.11486 0.0
H1027 H 0.30291 0.85697 0.13226 0.0
C1028 C 0.8311 0.77977 0.91821 0.0
C1029 C 0.86071 0.78096 0.91414 0.0
C1030 C 0.80775 0.7768 0.90969 0.0
C1031 C 0.79134 0.78752 0.87592 0.0
H1032 H 0.71889 0.73838 0.88462 0.0
C1033 C 0.68865 0.7873 0.84346 0.0
C1034 C 0.67037 0.75721 0.84343 0.0
C1035 C 0.7118 0.79053 0.85206 0.0
C1036 C 0.73908 0.75183 0.88192 0.0
H1037 H 0.88917 0.77835 0.89805 0.0
H1038 H 0.8489 0.77167 0.88327 0.0
H1039 H 0.75916 0.74151 0.89944 0.0
H1040 H 0.66283 0.70623 0.85202 0.0
H1041 H 0.70364 0.71097 0.8666 0.0
H1042 H 0.77185 0.79632 0.85819 0.0
C1043 C 0.84332 0.77448 0.89295 0.0
C1044 C 0.76213 0.75417 0.89056 0.0
C1045 C 0.86653 0.77804 0.90143 0.0
C1046 C 0.67622 0.73002 0.85195 0.0
C1047 C 0.69959 0.73292 0.86039 0.0
C1048 C 0.76847 0.78473 0.86722 0.0
C1049 C 0.8135 0.77436 0.8969 0.0
C1050 C 0.78868 0.77201 0.88771 0.0
C1051 C 0.71754 0.76342 0.86071 0.0
C1052 C 0.74196 0.7668 0.87006 0.0
H1053 H 0.82596 0.78235 0.92794 0.0
H1054 H 0.78519 0.77732 0.91316 0.0
H1055 H 0.81109 0.80211 0.87338 0.0
H1056 H 0.68446 0.80878 0.83706 0.0
H1057 H 0.72472 0.81467 0.85206 0.0
C1058 C 0.71794 0.20488 0.09225 0.0
C1059 C 0.7457 0.18821 0.09356 0.0
C1060 C 0.71167 0.23633 0.09873 0.0
C1061 C 0.74532 0.31098 0.11607 0.0
H1062 H 0.677 0.30242 0.13762 0.0
C1063 C 0.73316 0.3936 0.1609 0.0
C1064 C 0.70472 0.39963 0.16584 0.0
C1065 C 0.73673 0.37354 0.15008 0.0
C1066 C 0.69578 0.30601 0.13151 0.0
H1067 H 0.78923 0.19239 0.10195 0.0
H1068 H 0.77865 0.24754 0.11289 0.0
H1069 H 0.6855 0.25829 0.12166 0.0
H1070 H 0.65766 0.39175 0.16285 0.0
H1071 H 0.66363 0.3587 0.14368 0.0
H1072 H 0.75576 0.35863 0.12588 0.0
C1073 C 0.76161 0.23637 0.107 0.0
C1074 C 0.70065 0.28047 0.12234 0.0
C1075 C 0.76763 0.2047 0.10077 0.0
C1076 C 0.67988 0.38722 0.15932 0.0
C1077 C 0.68338 0.36788 0.14838 0.0
C1078 C 0.7402 0.33691 0.12512 0.0
C1079 C 0.7333 0.25198 0.10638 0.0
C1080 C 0.72584 0.28218 0.11471 0.0
C1081 C 0.7119 0.35958 0.14381 0.0
C1082 C 0.71572 0.33438 0.13319 0.0
H1083 H 0.70057 0.19255 0.08684 0.0
H1084 H 0.68966 0.24787 0.09806 0.0
H1085 H 0.76484 0.31311 0.11026 0.0
H1086 H 0.75274 0.40253 0.1658 0.0
H1087 H 0.7591 0.36756 0.14703 0.0
C1088 C 0.93105 0.91017 0.31275 0.0
C1089 C 0.92243 0.89712 0.30112 0.0
C1090 C 0.94687 0.94205 0.31375 0.0
C1091 C 0.99267 1.00418 0.29472 0.0
H1092 H 0.9822 0.0675 0.32262 0.0
C1093 C 0.0343 0.14913 0.29526 0.0
C1094 C 0.04756 0.16203 0.30612 0.0
C1095 C 0.02149 0.11539 0.29493 0.0
C1096 C 0.98563 0.04986 0.31485 0.0
H1097 H 0.92261 0.9082 0.28149 0.0
H1098 H 0.94897 0.96414 0.28324 0.0
H1099 H 0.95348 1.01279 0.32153 0.0
H1100 H 0.05822 0.14918 0.32512 0.0
H1101 H 0.03545 0.09021 0.32458 0.0
H1102 H 0.02414 0.04194 0.28788 0.0
C1103 C 0.94455 0.94932 0.29159 0.0
C1104 C 0.96917 1.0184 0.31421 0.0
C1105 C 0.9291 0.91731 0.29059 0.0
C1106 C 0.04838 0.13995 0.31658 0.0
C1107 C 0.0351 0.10632 0.31631 0.0
C1108 C 1.00883 0.03579 0.2953 0.0
C1109 C 0.95422 0.9619 0.30316 0.0
C1110 C 0.97225 0.99518 0.30408 0.0
C1111 C 0.0212 0.09383 0.30551 0.0
C1112 C 1.00538 0.05914 0.30532 0.0
H1113 H 0.92649 0.89514 0.32105 0.0
H1114 H 0.9541 0.95051 0.32282 0.0
H1115 H 0.99637 0.98671 0.28693 0.0
H1116 H 0.03324 0.16546 0.28705 0.0
H1117 H 0.01082 0.1067 0.2865 0.0
C1118 C 0.92715 0.12543 0.70422 0.0
C1119 C 0.91922 0.12014 0.71666 0.0
C1120 C 0.95629 0.11903 0.70019 0.0
C1121 C 0.03322 0.11001 0.71211 0.0
H1122 H 0.04888 0.06217 0.68105 0.0
C1123 C 0.14624 0.04658 0.70134 0.0
C1124 C 0.15835 0.05065 0.68945 0.0
C1125 C 0.11726 0.05755 0.70391 0.0
C1126 C 0.04487 0.07599 0.68967 0.0
H1127 H 0.93565 0.10275 0.73447 0.0
H1128 H 0.98609 0.09154 0.7275 0.0
H1129 H 0.99769 0.07633 0.68692 0.0
H1130 H 0.1494 0.06946 0.67094 0.0
H1131 H 0.09837 0.08874 0.67545 0.0
H1132 H 0.08022 0.10912 0.71499 0.0
C1133 C 0.97005 0.10145 0.72089 0.0
C1134 C 0.01555 0.08412 0.69304 0.0
C1135 C 0.94104 0.10788 0.7249 0.0
C1136 C 0.14071 0.06611 0.68019 0.0
C1137 C 0.11147 0.07688 0.68275 0.0
C1138 C 0.06241 0.10181 0.70877 0.0
C1139 C 0.97816 0.10718 0.70851 0.0
C1140 C 1.00934 0.10068 0.70441 0.0
C1141 C 0.09949 0.07283 0.69467 0.0
C1142 C 0.06858 0.08416 0.69762 0.0
H1143 H 0.911 0.13516 0.69764 0.0
H1144 H 0.96181 0.12401 0.69061 0.0
H1145 H 0.02935 0.12355 0.7208 0.0
H1146 H 0.15931 0.03532 0.70875 0.0
H1147 H 0.10864 0.05366 0.71316 0.0
C1148 C 0.05677 0.42963 0.9941 0.0
C1149 C 0.0686 0.41083 0.984 0.0
C1150 C 0.04264 0.4624 0.99241 0.0
C1151 C 0.03138 0.53558 0.96947 0.0
H1152 H 0.96355 0.55727 0.9903 0.0
C1153 C 0.9545 0.65687 0.96065 0.0
C1154 C 0.94838 0.67819 0.97103 0.0
C1155 C 0.96798 0.62353 0.96202 0.0
C1156 C 0.98254 0.5517 0.98444 0.0
H1157 H 0.07512 0.41216 0.96417 0.0
H1158 H 0.04988 0.46874 0.96115 0.0
H1159 H 0.99016 0.50151 0.99305 0.0
H1160 H 0.95067 0.68043 0.99102 0.0
H1161 H 0.97358 0.62209 0.9934 0.0
H1162 H 0.02319 0.58569 0.96073 0.0
C1163 C 0.05203 0.45866 0.97046 0.0
C1164 C 0.998 0.51974 0.98606 0.0
C1165 C 0.0665 0.42604 0.97218 0.0
C1166 C 0.95501 0.66473 0.98282 0.0
C1167 C 0.96811 0.63123 0.9842 0.0
C1168 C 0.01568 0.56737 0.96776 0.0
C1169 C 0.03953 0.47717 0.98053 0.0
C1170 C 0.02283 0.51125 0.97867 0.0
C1171 C 0.97528 0.61047 0.97381 0.0
C1172 C 0.99118 0.57594 0.97528 0.0
H1173 H 0.05813 0.41883 1.00335 0.0
H1174 H 0.03405 0.47608 1.00046 0.0
H1175 H 0.05059 0.53047 0.9637 0.0
H1176 H 0.94983 0.66644 0.95143 0.0
H1177 H 0.97292 0.60804 0.95384 0.0
C1178 C 0.41233 0.96123 0.08759 0.0
C1179 C 0.4032 0.9507 0.07572 0.0
C1180 C 0.44206 0.96998 0.08988 0.0
C1181 C 0.51786 0.95777 0.07682 0.0
H1182 H 0.53849 0.03625 0.09829 0.0
C1183 C 0.63505 1.01835 0.0777 0.0
C1184 C 0.6474 0.02732 0.0892 0.0
C1185 C 0.60545 1.00768 0.07679 0.0
C1186 C 0.53309 1.01398 0.09239 0.0
H1187 H 0.418 0.94251 0.05688 0.0
H1188 H 0.46949 0.95811 0.0608 0.0
H1189 H 0.48631 1.02089 0.09525 0.0
H1190 H 0.63826 0.03208 0.10878 0.0
H1191 H 0.58631 1.01337 0.1072 0.0
H1192 H 0.56456 0.9513 0.07378 0.0
C1193 C 0.45397 0.95868 0.06844 0.0
C1194 C 0.50317 1.00514 0.09065 0.0
C1195 C 0.42437 0.94978 0.06618 0.0
C1196 C 0.62945 1.02511 0.09981 0.0
C1197 C 0.59965 1.01472 0.09888 0.0
C1198 C 0.54768 0.96673 0.07851 0.0
C1199 C 0.46332 0.96856 0.08035 0.0
C1200 C 0.49515 0.97716 0.08272 0.0
C1201 C 0.58733 1.00588 0.08735 0.0
C1202 C 0.55566 0.99517 0.0862 0.0
H1203 H 0.39665 0.96189 0.09517 0.0
H1204 H 0.44848 0.97713 0.09919 0.0
H1205 H 0.51263 0.93553 0.07088 0.0
H1206 H 0.64836 1.01937 0.06938 0.0
H1207 H 0.5966 1.00139 0.06776 0.0
C1208 C 0.4919 0.39329 0.8063 0.0
C1209 C 0.46135 0.38716 0.80783 0.0
C1210 C 0.50244 0.42694 0.80323 0.0
C1211 C 0.47963 0.51748 0.79267 0.0
H1212 H 0.55219 0.54456 0.80946 0.0
C1213 C 0.51906 0.66311 0.79827 0.0
C1214 C 0.54966 0.67018 0.7973 0.0
C1215 C 0.50843 0.6283 0.79782 0.0
C1216 C 0.53216 0.53733 0.80454 0.0
H1217 H 0.41773 0.4113 0.80691 0.0
H1218 H 0.43611 0.47065 0.80189 0.0
H1219 H 0.53295 0.48495 0.81196 0.0
H1220 H 0.59299 0.64607 0.79468 0.0
H1221 H 0.57443 0.58517 0.79397 0.0
H1222 H 0.47854 0.57067 0.78563 0.0
C1223 C 0.452 0.44921 0.80282 0.0
C1224 C 0.52106 0.50298 0.80595 0.0
C1225 C 0.44139 0.4152 0.80572 0.0
C1226 C 0.5693 0.6416 0.79546 0.0
C1227 C 0.55868 0.60668 0.79513 0.0
C1228 C 0.49064 0.55205 0.79136 0.0
C1229 C 0.48278 0.45573 0.80184 0.0
C1230 C 0.49464 0.49244 0.80003 0.0
C1231 C 0.52814 0.59958 0.7965 0.0
C1232 C 0.51703 0.5624 0.7973 0.0
H1233 H 0.50785 0.3721 0.80771 0.0
H1234 H 0.52617 0.43044 0.80218 0.0
H1235 H 0.45946 0.51037 0.78784 0.0
H1236 H 0.50326 0.68447 0.79966 0.0
H1237 H 0.48484 0.62382 0.799 0.0
C1238 C 0.58315 0.47711 0.21698 0.0
C1239 C 0.60174 0.4661 0.20727 0.0
C1240 C 0.55314 0.48443 0.21488 0.0
C1241 C 0.49794 0.50364 0.19021 0.0
H1242 H 0.44204 0.47639 0.21575 0.0
C1243 C 0.36905 0.51227 0.18482 0.0
C1244 C 0.35386 0.52758 0.19486 0.0
C1245 C 0.39941 0.50422 0.18569 0.0
C1246 C 0.45739 0.48434 0.20856 0.0
H1247 H 0.60342 0.45448 0.18769 0.0
H1248 H 0.5508 0.46676 0.18401 0.0
H1249 H 0.49463 0.46339 0.21837 0.0
H1250 H 0.35855 0.54586 0.21374 0.0
H1251 H 0.41126 0.53181 0.21528 0.0
H1252 H 0.46026 0.52421 0.18037 0.0
C1253 C 0.55954 0.47029 0.19324 0.0
C1254 C 0.4876 0.47704 0.21008 0.0
C1255 C 0.58971 0.46322 0.19534 0.0
C1256 C 0.36965 0.53452 0.20579 0.0
C1257 C 0.39979 0.52612 0.20671 0.0
C1258 C 0.46757 0.51069 0.18865 0.0
C1259 C 0.54078 0.48064 0.20303 0.0
C1260 C 0.50839 0.48706 0.20102 0.0
C1261 C 0.41503 0.51081 0.1967 0.0
C1262 C 0.44704 0.50156 0.1979 0.0
H1263 H 0.59185 0.48026 0.22623 0.0
H1264 H 0.53965 0.49324 0.22259 0.0
H1265 H 0.51327 0.51204 0.18309 0.0
H1266 H 0.35749 0.50679 0.17627 0.0
H1267 H 0.41056 0.49229 0.17784 0.0
C1268 C 0.45718 0.14621 0.48597 0.0
C1269 C 0.45157 0.16192 0.47443 0.0
C1270 C 0.47113 0.11305 0.48676 0.0
C1271 C 0.49351 0.03344 0.46811 0.0
H1272 H 0.54781 1.01867 0.49542 0.0
C1273 C 0.57178 0.91077 0.47126 0.0
C1274 C 0.57153 0.89287 0.48265 0.0
C1275 C 0.55825 0.94416 0.47006 0.0
C1276 C 0.53262 1.02231 0.48777 0.0
H1277 H 0.45584 0.15461 0.45466 0.0
H1278 H 0.48082 0.09731 0.45601 0.0
H1279 H 0.52122 0.07475 0.49363 0.0
H1280 H 0.55778 0.89671 0.5018 0.0
H1281 H 0.53483 0.95512 0.49976 0.0
H1282 H 0.5056 0.98103 0.46217 0.0
C1283 C 0.4739 0.11016 0.46449 0.0
C1284 C 0.51715 0.05445 0.48676 0.0
C1285 C 0.45958 0.14317 0.46369 0.0
C1286 C 0.55841 0.90973 0.4929 0.0
C1287 C 0.5453 0.94328 0.49174 0.0
C1288 C 0.5093 1.00143 0.46904 0.0
C1289 C 0.48032 0.0948 0.47605 0.0
C1290 C 0.49711 0.06046 0.47698 0.0
C1291 C 0.54459 0.96067 0.48026 0.0
C1292 C 0.52888 0.99537 0.47894 0.0
H1293 H 0.45115 0.15979 0.49443 0.0
H1294 H 0.47487 0.10188 0.49583 0.0
H1295 H 0.47806 0.03665 0.46054 0.0
H1296 H 0.58153 0.89848 0.46316 0.0
H1297 H 0.55833 0.957 0.46112 0.0
C1298 C 0.93859 0.48942 0.56122 0.0
C1299 C 0.92064 0.46514 0.56761 0.0
C1300 C 0.96849 0.49359 0.5643 0.0
C1301 C 0.02414 0.47696 0.58892 0.0
H1302 H 0.07956 0.49115 0.56195 0.0
C1303 C 0.15319 0.48338 0.59491 0.0
C1304 C 0.16747 0.51061 0.58834 0.0
C1305 C 0.12292 0.47641 0.59303 0.0
C1306 C 0.06436 0.48746 0.5696 0.0
H1307 H 0.9201 0.42647 0.58238 0.0
H1308 H 0.97256 0.43347 0.58772 0.0
H1309 H 0.02729 0.48139 0.55749 0.0
H1310 H 0.16099 0.5516 0.57454 0.0
H1311 H 0.10858 0.53971 0.57137 0.0
H1312 H 0.06162 0.48289 0.601 0.0
C1313 C 0.96333 0.44962 0.5804 0.0
C1314 C 0.03433 0.48195 0.56705 0.0
C1315 C 0.93326 0.44557 0.57734 0.0
C1316 C 0.15073 0.5308 0.57992 0.0
C1317 C 0.1207 0.52368 0.57797 0.0
C1318 C 0.05435 0.4823 0.59147 0.0
C1319 C 0.98141 0.47344 0.57382 0.0
C1320 C 0.01369 0.47723 0.57667 0.0
C1321 C 0.10645 0.49623 0.58441 0.0
C1322 C 0.0747 0.48819 0.58183 0.0
H1323 H 0.92947 0.5055 0.55387 0.0
H1324 H 0.98145 0.51286 0.55924 0.0
H1325 H 1.00888 0.47364 0.59657 0.0
H1326 H 0.16544 0.46747 0.60149 0.0
H1327 H 0.11258 0.45499 0.5981 0.0
loop_
_geom_bond_atom_site_label_1
_geom_bond_atom_site_label_2
_geom_bond_distance
_geom_bond_site_symmetry_2
_ccdc_geom_bond_type
Cu0 N1 1.999 . S
Cu0 O6 1.974 . S
Cu0 N11 1.985 . S
Cu0 O20 1.959 . S
N1 Cu0 1.999 . S
N1 C3 1.263 . S
N1 C5 1.389 . S
N2 C3 1.358 . S
N2 C4 1.400 1_455 S
C3 N1 1.263 . S
C3 N2 1.358 . S
C3 H9 0.930 . S
C4 N2 1.400 1_655 S
C4 C5 1.351 1_655 S
C4 H21 0.930 . S
C5 N1 1.389 . S
C5 C4 1.351 1_455 S
C5 H10 0.930 . S
O6 Cu0 1.974 . S
O6 C16 1.282 . S
C7 O8 1.261 . S
C7 O20 1.251 . S
O8 C7 1.261 . S
H9 C3 0.930 . S
H10 C5 0.930 . S
N11 Cu0 1.985 . S
N11 C13 1.335 . S
N11 C14 1.390 . S
N12 C13 1.345 . S
N12 C15 1.336 . S
C13 N11 1.335 . S
C13 N12 1.345 . S
C13 H18 0.930 . S
C14 N11 1.390 . S
C14 C15 1.346 . S
C14 H19 0.930 . S
C15 N12 1.336 . S
C15 C14 1.346 . S
C15 H22 0.929 . S
C16 O6 1.282 . S
C16 O17 1.216 . S
O17 C16 1.216 . S
H18 C13 0.930 . S
H19 C14 0.930 . S
O20 Cu0 1.959 . S
O20 C7 1.251 . S
H21 C4 0.930 . S
H22 C15 0.929 . S
Cu23 N24 1.999 . S
Cu23 O29 1.974 . S
Cu23 N34 1.985 . S
Cu23 O43 1.959 . S
N24 Cu23 1.999 . S
N24 C26 1.263 . S
N24 C28 1.389 . S
N25 C26 1.358 . S
N25 C27 1.400 . S
C26 N24 1.263 . S
C26 N25 1.358 . S
C26 H32 0.930 . S
C27 N25 1.400 . S
C27 C28 1.351 . S
C27 H44 0.930 . S
C28 N24 1.389 . S
C28 C27 1.351 . S
C28 H33 0.930 . S
O29 Cu23 1.974 . S
O29 C39 1.282 . S
C30 O31 1.261 . S
C30 O43 1.251 . S
O31 C30 1.261 . S
H32 C26 0.930 . S
H33 C28 0.930 . S
N34 Cu23 1.985 . S
N34 C36 1.335 . S
N34 C37 1.390 . S
N35 C36 1.345 . S
N35 C38 1.336 . S
C36 N34 1.335 . S
C36 N35 1.345 . S
C36 H41 0.930 . S
C37 N34 1.390 . S
C37 C38 1.346 . S
C37 H42 0.930 . S
C38 N35 1.336 . S
C38 C37 1.346 . S
C38 H45 0.929 . S
C39 O29 1.282 . S
C39 O40 1.216 . S
O40 C39 1.216 . S
H41 C36 0.930 . S
H42 C37 0.930 . S
O43 Cu23 1.959 . S
O43 C30 1.251 . S
H44 C27 0.930 . S
H45 C38 0.929 . S
Cu46 N47 1.999 . S
Cu46 O52 1.974 . S
Cu46 N57 1.985 . S
Cu46 O66 1.959 . S
N47 Cu46 1.999 . S
N47 C49 1.263 . S
N47 C51 1.389 . S
N48 C49 1.358 . S
N48 C50 1.400 1_655 S
C49 N47 1.263 . S
C49 N48 1.358 . S
C49 H55 0.930 . S
C50 N48 1.400 1_455 S
C50 C51 1.351 1_455 S
C50 H67 0.930 . S
C51 N47 1.389 . S
C51 C50 1.351 1_655 S
C51 H56 0.930 . S
O52 Cu46 1.974 . S
O52 C62 1.282 . S
C53 O54 1.261 . S
C53 O66 1.251 . S
O54 C53 1.261 . S
H55 C49 0.930 . S
H56 C51 0.930 . S
N57 Cu46 1.985 . S
N57 C59 1.335 . S
N57 C60 1.390 . S
N58 C59 1.345 . S
N58 C61 1.336 . S
C59 N57 1.335 . S
C59 N58 1.345 . S
C59 H64 0.930 . S
C60 N57 1.390 . S
C60 C61 1.346 . S
C60 H65 0.930 . S
C61 N58 1.336 . S
C61 C60 1.346 . S
C61 H68 0.929 . S
C62 O52 1.282 . S
C62 O63 1.216 . S
O63 C62 1.216 . S
H64 C59 0.930 . S
H65 C60 0.930 . S
O66 Cu46 1.959 . S
O66 C53 1.251 . S
H67 C50 0.930 . S
H68 C61 0.929 . S
Cu69 N70 1.999 . S
Cu69 O75 1.974 . S
Cu69 N80 1.985 . S
Cu69 O89 1.959 . S
N70 Cu69 1.999 . S
N70 C72 1.263 . S
N70 C74 1.389 . S
N71 C72 1.358 . S
N71 C73 1.400 . S
C72 N70 1.263 . S
C72 N71 1.358 . S
C72 H78 0.930 . S
C73 N71 1.400 . S
C73 C74 1.351 . S
C73 H90 0.930 . S
C74 N70 1.389 . S
C74 C73 1.351 . S
C74 H79 0.930 . S
O75 Cu69 1.974 . S
O75 C85 1.282 . S
C76 O77 1.261 . S
C76 O89 1.251 . S
O77 C76 1.261 . S
H78 C72 0.930 . S
H79 C74 0.930 . S
N80 Cu69 1.985 . S
N80 C82 1.335 . S
N80 C83 1.390 . S
N81 C82 1.345 . S
N81 C84 1.336 . S
C82 N80 1.335 . S
C82 N81 1.345 . S
C82 H87 0.930 . S
C83 N80 1.390 . S
C83 C84 1.346 . S
C83 H88 0.930 . S
C84 N81 1.336 . S
C84 C83 1.346 . S
C84 H91 0.929 . S
C85 O75 1.282 . S
C85 O86 1.216 . S
O86 C85 1.216 . S
H87 C82 0.930 . S
H88 C83 0.930 . S
O89 Cu69 1.959 . S
O89 C76 1.251 . S
H90 C73 0.930 . S
H91 C84 0.929 . S
Cu92 N93 1.999 . S
Cu92 O98 1.974 . S
Cu92 N103 1.985 . S
Cu92 O112 1.959 . S
N93 Cu92 1.999 . S
N93 C95 1.263 . S
N93 C97 1.389 . S
N94 C95 1.358 . S
N94 C96 1.400 1_455 S
C95 N93 1.263 . S
C95 N94 1.358 . S
C95 H101 0.930 . S
C96 N94 1.400 1_655 S
C96 C97 1.351 1_655 S
C96 H113 0.930 . S
C97 N93 1.389 . S
C97 C96 1.351 1_455 S
C97 H102 0.930 . S
O98 Cu92 1.974 . S
O98 C108 1.282 . S
C99 O100 1.261 . S
C99 O112 1.251 . S
O100 C99 1.261 . S
H101 C95 0.930 . S
H102 C97 0.930 . S
N103 Cu92 1.985 . S
N103 C105 1.335 . S
N103 C106 1.390 . S
N104 C105 1.345 . S
N104 C107 1.336 . S
C105 N103 1.335 . S
C105 N104 1.345 . S
C105 H110 0.930 . S
C106 N103 1.390 . S
C106 C107 1.346 . S
C106 H111 0.930 . S
C107 N104 1.336 . S
C107 C106 1.346 . S
C107 H114 0.929 . S
C108 O98 1.282 . S
C108 O109 1.216 . S
O109 C108 1.216 . S
H110 C105 0.930 . S
H111 C106 0.930 . S
O112 Cu92 1.959 . S
O112 C99 1.251 . S
H113 C96 0.930 . S
H114 C107 0.929 . S
Cu115 N116 1.999 . S
Cu115 O121 1.974 . S
Cu115 N126 1.985 . S
Cu115 O135 1.959 . S
N116 Cu115 1.999 . S
N116 C118 1.263 . S
N116 C120 1.389 . S
N117 C118 1.358 . S
N117 C119 1.400 . S
C118 N116 1.263 . S
C118 N117 1.358 . S
C118 H124 0.930 . S
C119 N117 1.400 . S
C119 C120 1.351 . S
C119 H136 0.930 . S
C120 N116 1.389 . S
C120 C119 1.351 . S
C120 H125 0.930 . S
O121 Cu115 1.974 . S
O121 C131 1.282 . S
C122 O123 1.261 . S
C122 O135 1.251 . S
O123 C122 1.261 . S
H124 C118 0.930 . S
H125 C120 0.930 . S
N126 Cu115 1.985 . S
N126 C128 1.335 . S
N126 C129 1.390 . S
N127 C128 1.345 . S
N127 C130 1.336 . S
C128 N126 1.335 . S
C128 N127 1.345 . S
C128 H133 0.930 . S
C129 N126 1.390 . S
C129 C130 1.346 . S
C129 H134 0.930 . S
C130 N127 1.336 . S
C130 C129 1.346 . S
C130 H137 0.929 . S
C131 O121 1.282 . S
C131 O132 1.216 . S
O132 C131 1.216 . S
H133 C128 0.930 . S
H134 C129 0.930 . S
O135 Cu115 1.959 . S
O135 C122 1.251 . S
H136 C119 0.930 . S
H137 C130 0.929 . S
Cu138 N139 1.999 . S
Cu138 O144 1.974 . S
Cu138 N149 1.985 . S
Cu138 O158 1.959 . S
N139 Cu138 1.999 . S
N139 C141 1.263 . S
N139 C143 1.389 . S
N140 C141 1.358 . S
N140 C142 1.400 1_655 S
C141 N139 1.263 . S
C141 N140 1.358 . S
C141 H147 0.930 . S
C142 N140 1.400 1_455 S
C142 C143 1.351 1_455 S
C142 H159 0.930 . S
C143 N139 1.389 . S
C143 C142 1.351 1_655 S
C143 H148 0.930 . S
O144 Cu138 1.974 . S
O144 C154 1.282 . S
C145 O146 1.261 . S
C145 O158 1.251 . S
O146 C145 1.261 . S
H147 C141 0.930 . S
H148 C143 0.930 . S
N149 Cu138 1.985 . S
N149 C151 1.335 . S
N149 C152 1.390 . S
N150 C151 1.345 . S
N150 C153 1.336 . S
C151 N149 1.335 . S
C151 N150 1.345 . S
C151 H156 0.930 . S
C152 N149 1.390 . S
C152 C153 1.346 . S
C152 H157 0.930 . S
C153 N150 1.336 . S
C153 C152 1.346 . S
C153 H160 0.929 . S
C154 O144 1.282 . S
C154 O155 1.216 . S
O155 C154 1.216 . S
H156 C151 0.930 . S
H157 C152 0.930 . S
O158 Cu138 1.959 . S
O158 C145 1.251 . S
H159 C142 0.930 . S
H160 C153 0.929 . S
Cu161 N162 1.999 . S
Cu161 O167 1.974 . S
Cu161 N172 1.985 . S
Cu161 O181 1.959 . S
N162 Cu161 1.999 . S
N162 C164 1.263 . S
N162 C166 1.389 . S
N163 C164 1.358 . S
N163 C165 1.400 . S
C164 N162 1.263 . S
C164 N163 1.358 . S
C164 H170 0.930 . S
C165 N163 1.400 . S
C165 C166 1.351 . S
C165 H182 0.930 . S
C166 N162 1.389 . S
C166 C165 1.351 . S
C166 H171 0.930 . S
O167 Cu161 1.974 . S
O167 C177 1.282 . S
C168 O169 1.261 . S
C168 O181 1.251 . S
O169 C168 1.261 . S
H170 C164 0.930 . S
H171 C166 0.930 . S
N172 Cu161 1.985 . S
N172 C174 1.335 . S
N172 C175 1.390 . S
N173 C174 1.345 . S
N173 C176 1.336 . S
C174 N172 1.335 . S
C174 N173 1.345 . S
C174 H179 0.930 . S
C175 N172 1.390 . S
C175 C176 1.346 . S
C175 H180 0.930 . S
C176 N173 1.336 . S
C176 C175 1.346 . S
C176 H183 0.929 . S
C177 O167 1.282 . S
C177 O178 1.216 . S
O178 C177 1.216 . S
H179 C174 0.930 . S
H180 C175 0.930 . S
O181 Cu161 1.959 . S
O181 C168 1.251 . S
H182 C165 0.930 . S
H183 C176 0.929 . S
Cu184 N185 1.999 . S
Cu184 O190 1.974 . S
Cu184 N195 1.985 . S
Cu184 O204 1.959 . S
N185 Cu184 1.999 . S
N185 C187 1.263 . S
N185 C189 1.389 . S
N186 C187 1.358 . S
N186 C188 1.400 . S
C187 N185 1.263 . S
C187 N186 1.358 . S
C187 H193 0.930 . S
C188 N186 1.400 . S
C188 C189 1.351 . S
C188 H205 0.930 . S
C189 N185 1.389 . S
C189 C188 1.351 . S
C189 H194 0.930 . S
O190 Cu184 1.974 . S
O190 C200 1.282 . S
C191 O192 1.261 . S
C191 O204 1.251 . S
O192 C191 1.261 . S
H193 C187 0.930 . S
H194 C189 0.930 . S
N195 Cu184 1.985 . S
N195 C197 1.335 . S
N195 C198 1.390 . S
N196 C197 1.345 . S
N196 C199 1.336 . S
C197 N195 1.335 . S
C197 N196 1.345 . S
C197 H202 0.930 . S
C198 N195 1.390 . S
C198 C199 1.346 . S
C198 H203 0.930 . S
C199 N196 1.336 . S
C199 C198 1.346 . S
C199 H206 0.929 . S
C200 O190 1.282 . S
C200 O201 1.216 . S
O201 C200 1.216 . S
H202 C197 0.930 . S
H203 C198 0.930 . S
O204 Cu184 1.959 . S
O204 C191 1.251 . S
H205 C188 0.930 . S
H206 C199 0.929 . S
Cu207 N208 1.999 . S
Cu207 O213 1.974 . S
Cu207 N218 1.985 . S
Cu207 O227 1.959 . S
N208 Cu207 1.999 . S
N208 C210 1.263 . S
N208 C212 1.389 . S
N209 C210 1.358 . S
N209 C211 1.400 . S
C210 N208 1.263 . S
C210 N209 1.358 . S
C210 H216 0.930 . S
C211 N209 1.400 . S
C211 C212 1.351 . S
C211 H228 0.930 . S
C212 N208 1.389 . S
C212 C211 1.351 . S
C212 H217 0.930 . S
O213 Cu207 1.974 . S
O213 C223 1.282 . S
C214 O215 1.261 . S
C214 O227 1.251 . S
O215 C214 1.261 . S
H216 C210 0.930 . S
H217 C212 0.930 . S
N218 Cu207 1.985 . S
N218 C220 1.335 . S
N218 C221 1.390 . S
N219 C220 1.345 . S
N219 C222 1.336 . S
C220 N218 1.335 . S
C220 N219 1.345 . S
C220 H225 0.930 . S
C221 N218 1.390 . S
C221 C222 1.346 . S
C221 H226 0.930 . S
C222 N219 1.336 . S
C222 C221 1.346 . S
C222 H229 0.929 . S
C223 O213 1.282 . S
C223 O224 1.216 . S
O224 C223 1.216 . S
H225 C220 0.930 . S
H226 C221 0.930 . S
O227 Cu207 1.959 . S
O227 C214 1.251 . S
H228 C211 0.930 . S
H229 C222 0.929 . S
Cu230 N231 1.999 . S
Cu230 O236 1.974 . S
Cu230 N241 1.985 . S
Cu230 O250 1.959 . S
N231 Cu230 1.999 . S
N231 C233 1.263 . S
N231 C235 1.389 . S
N232 C233 1.358 . S
N232 C234 1.400 . S
C233 N231 1.263 . S
C233 N232 1.358 . S
C233 H239 0.930 . S
C234 N232 1.400 . S
C234 C235 1.351 . S
C234 H251 0.930 . S
C235 N231 1.389 . S
C235 C234 1.351 . S
C235 H240 0.930 . S
O236 Cu230 1.974 . S
O236 C246 1.282 . S
C237 O238 1.261 . S
C237 O250 1.251 . S
O238 C237 1.261 . S
H239 C233 0.930 . S
H240 C235 0.930 . S
N241 Cu230 1.985 . S
N241 C243 1.335 . S
N241 C244 1.390 . S
N242 C243 1.345 . S
N242 C245 1.336 . S
C243 N241 1.335 . S
C243 N242 1.345 . S
C243 H248 0.930 . S
C244 N241 1.390 . S
C244 C245 1.346 . S
C244 H249 0.930 . S
C245 N242 1.336 . S
C245 C244 1.346 . S
C245 H252 0.929 . S
C246 O236 1.282 . S
C246 O247 1.216 . S
O247 C246 1.216 . S
H248 C243 0.930 . S
H249 C244 0.930 . S
O250 Cu230 1.959 . S
O250 C237 1.251 . S
H251 C234 0.930 . S
H252 C245 0.929 . S
Cu253 N254 1.999 . S
Cu253 O259 1.974 . S
Cu253 N264 1.985 . S
Cu253 O273 1.959 . S
N254 Cu253 1.999 . S
N254 C256 1.263 . S
N254 C258 1.389 . S
N255 C256 1.358 . S
N255 C257 1.400 . S
C256 N254 1.263 . S
C256 N255 1.358 . S
C256 H262 0.930 . S
C257 N255 1.400 . S
C257 C258 1.351 . S
C257 H274 0.930 . S
C258 N254 1.389 . S
C258 C257 1.351 . S
C258 H263 0.930 . S
O259 Cu253 1.974 . S
O259 C269 1.282 . S
C260 O261 1.261 . S
C260 O273 1.251 . S
O261 C260 1.261 . S
H262 C256 0.930 . S
H263 C258 0.930 . S
N264 Cu253 1.985 . S
N264 C266 1.335 . S
N264 C267 1.390 . S
N265 C266 1.345 . S
N265 C268 1.336 . S
C266 N264 1.335 . S
C266 N265 1.345 . S
C266 H271 0.930 . S
C267 N264 1.390 . S
C267 C268 1.346 . S
C267 H272 0.930 . S
C268 N265 1.336 . S
C268 C267 1.346 . S
C268 H275 0.929 . S
C269 O259 1.282 . S
C269 O270 1.216 . S
O270 C269 1.216 . S
H271 C266 0.930 . S
H272 C267 0.930 . S
O273 Cu253 1.959 . S
O273 C260 1.251 . S
H274 C257 0.930 . S
H275 C268 0.929 . S
Cu276 N277 1.999 . S
Cu276 O282 1.974 . S
Cu276 N287 1.985 . S
Cu276 O296 1.959 . S
N277 Cu276 1.999 . S
N277 C279 1.263 . S
N277 C281 1.389 . S
N278 C279 1.358 . S
N278 C280 1.400 . S
C279 N277 1.263 . S
C279 N278 1.358 . S
C279 H285 0.930 . S
C280 N278 1.400 . S
C280 C281 1.351 . S
C280 H297 0.930 . S
C281 N277 1.389 . S
C281 C280 1.351 . S
C281 H286 0.930 . S
O282 Cu276 1.974 . S
O282 C292 1.282 . S
C283 O284 1.261 . S
C283 O296 1.251 . S
O284 C283 1.261 . S
H285 C279 0.930 . S
H286 C281 0.930 . S
N287 Cu276 1.985 . S
N287 C289 1.335 . S
N287 C290 1.390 . S
N288 C289 1.345 . S
N288 C291 1.336 . S
C289 N287 1.335 . S
C289 N288 1.345 . S
C289 H294 0.930 . S
C290 N287 1.390 . S
C290 C291 1.346 . S
C290 H295 0.930 . S
C291 N288 1.336 . S
C291 C290 1.346 . S
C291 H298 0.929 . S
C292 O282 1.282 . S
C292 O293 1.216 . S
O293 C292 1.216 . S
H294 C289 0.930 . S
H295 C290 0.930 . S
O296 Cu276 1.959 . S
O296 C283 1.251 . S
H297 C280 0.930 . S
H298 C291 0.929 . S
Cu299 N300 1.999 . S
Cu299 O305 1.974 . S
Cu299 N310 1.985 . S
Cu299 O319 1.959 . S
N300 Cu299 1.999 . S
N300 C302 1.263 . S
N300 C304 1.389 . S
N301 C302 1.358 . S
N301 C303 1.400 . S
C302 N300 1.263 . S
C302 N301 1.358 . S
C302 H308 0.930 . S
C303 N301 1.400 . S
C303 C304 1.351 . S
C303 H320 0.930 . S
C304 N300 1.389 . S
C304 C303 1.351 . S
C304 H309 0.930 . S
O305 Cu299 1.974 . S
O305 C315 1.282 . S
C306 O307 1.261 . S
C306 O319 1.251 . S
O307 C306 1.261 . S
H308 C302 0.930 . S
H309 C304 0.930 . S
N310 Cu299 1.985 . S
N310 C312 1.335 . S
N310 C313 1.390 . S
N311 C312 1.345 . S
N311 C314 1.336 . S
C312 N310 1.335 . S
C312 N311 1.345 . S
C312 H317 0.930 . S
C313 N310 1.390 . S
C313 C314 1.346 . S
C313 H318 0.930 . S
C314 N311 1.336 . S
C314 C313 1.346 . S
C314 H321 0.929 . S
C315 O305 1.282 . S
C315 O316 1.216 . S
O316 C315 1.216 . S
H317 C312 0.930 . S
H318 C313 0.930 . S
O319 Cu299 1.959 . S
O319 C306 1.251 . S
H320 C303 0.930 . S
H321 C314 0.929 . S
Cu322 N323 1.999 . S
Cu322 O328 1.974 . S
Cu322 N333 1.985 . S
Cu322 O342 1.959 . S
N323 Cu322 1.999 . S
N323 C325 1.263 . S
N323 C327 1.389 . S
N324 C325 1.358 . S
N324 C326 1.400 . S
C325 N323 1.263 . S
C325 N324 1.358 . S
C325 H331 0.930 . S
C326 N324 1.400 . S
C326 C327 1.351 . S
C326 H343 0.930 . S
C327 N323 1.389 . S
C327 C326 1.351 . S
C327 H332 0.930 . S
O328 Cu322 1.974 . S
O328 C338 1.282 . S
C329 O330 1.261 . S
C329 O342 1.251 . S
O330 C329 1.261 . S
H331 C325 0.930 . S
H332 C327 0.930 . S
N333 Cu322 1.985 . S
N333 C335 1.335 . S
N333 C336 1.390 . S
N334 C335 1.345 . S
N334 C337 1.336 . S
C335 N333 1.335 . S
C335 N334 1.345 . S
C335 H340 0.930 . S
C336 N333 1.390 . S
C336 C337 1.346 . S
C336 H341 0.930 . S
C337 N334 1.336 . S
C337 C336 1.346 . S
C337 H344 0.929 . S
C338 O328 1.282 . S
C338 O339 1.216 . S
O339 C338 1.216 . S
H340 C335 0.930 . S
H341 C336 0.930 . S
O342 Cu322 1.959 . S
O342 C329 1.251 . S
H343 C326 0.930 . S
H344 C337 0.929 . S
Cu345 N346 1.999 . S
Cu345 O351 1.974 . S
Cu345 N356 1.985 . S
Cu345 O365 1.959 . S
N346 Cu345 1.999 . S
N346 C348 1.263 . S
N346 C350 1.389 . S
N347 C348 1.358 . S
N347 C349 1.400 . S
C348 N346 1.263 . S
C348 N347 1.358 . S
C348 H354 0.930 . S
C349 N347 1.400 . S
C349 C350 1.351 . S
C349 H366 0.930 . S
C350 N346 1.389 . S
C350 C349 1.351 . S
C350 H355 0.930 . S
O351 Cu345 1.974 . S
O351 C361 1.282 . S
C352 O353 1.261 . S
C352 O365 1.251 . S
O353 C352 1.261 . S
H354 C348 0.930 . S
H355 C350 0.930 . S
N356 Cu345 1.985 . S
N356 C358 1.335 . S
N356 C359 1.390 . S
N357 C358 1.345 . S
N357 C360 1.336 . S
C358 N356 1.335 . S
C358 N357 1.345 . S
C358 H363 0.930 . S
C359 N356 1.390 . S
C359 C360 1.346 . S
C359 H364 0.930 . S
C360 N357 1.336 . S
C360 C359 1.346 . S
C360 H367 0.929 . S
C361 O351 1.282 . S
C361 O362 1.216 . S
O362 C361 1.216 . S
H363 C358 0.930 . S
H364 C359 0.930 . S
O365 Cu345 1.959 . S
O365 C352 1.251 . S
H366 C349 0.930 . S
H367 C360 0.929 . S
C368 C369 1.349 . S
C368 C370 1.327 . S
C368 H393 0.950 . S
C369 C368 1.349 . S
C369 C385 1.349 . S
C370 C368 1.327 . S
C370 C389 1.429 . S
C370 H394 0.950 . S
C371 C388 1.574 . S
C371 C390 1.368 . S
C371 H395 0.949 . S
H372 C376 0.949 . S
C373 C374 1.349 . S
C373 C375 1.327 . S
C373 H396 0.950 . S
C374 C373 1.349 . S
C374 C386 1.349 . S
C375 C373 1.327 . S
C375 C391 1.429 . S
C375 H397 0.950 . S
C376 H372 0.949 . S
C376 C384 1.574 . S
C376 C392 1.368 . S
H377 C385 0.950 . S
H378 C383 0.950 . S
H379 C384 0.949 . S
H380 C386 0.950 . S
H381 C387 0.950 . S
H382 C388 0.949 . S
C383 H378 0.950 . S
C383 C385 1.327 . S
C383 C389 1.429 . S
C384 C376 1.574 . S
C384 H379 0.949 . S
C384 C390 1.368 . S
C385 C369 1.349 . S
C385 H377 0.950 . S
C385 C383 1.327 . S
C386 C374 1.349 . S
C386 H380 0.950 . S
C386 C387 1.327 . S
C387 H381 0.950 . S
C387 C386 1.327 . S
C387 C391 1.429 . S
C388 C371 1.574 . S
C388 H382 0.949 . S
C388 C392 1.368 . S
C389 C370 1.429 . S
C389 C383 1.429 . S
C389 C390 1.523 . S
C390 C371 1.368 . S
C390 C384 1.368 . S
C390 C389 1.523 . S
C391 C375 1.429 . S
C391 C387 1.429 . S
C391 C392 1.523 . S
C392 C376 1.368 . S
C392 C388 1.368 . S
C392 C391 1.523 . S
H393 C368 0.950 . S
H394 C370 0.950 . S
H395 C371 0.949 . S
H396 C373 0.950 . S
H397 C375 0.950 . S
C398 C399 1.349 . S
C398 C400 1.327 . S
C398 H423 0.950 . S
C399 C398 1.349 . S
C399 C415 1.349 . S
C400 C398 1.327 . S
C400 C419 1.429 . S
C400 H424 0.950 . S
C401 C418 1.574 . S
C401 C420 1.368 . S
C401 H425 0.949 . S
H402 C406 0.949 . S
C403 C404 1.349 . S
C403 C405 1.327 . S
C403 H426 0.950 . S
C404 C403 1.349 . S
C404 C416 1.349 . S
C405 C403 1.327 . S
C405 C421 1.429 . S
C405 H427 0.950 . S
C406 H402 0.949 . S
C406 C414 1.574 . S
C406 C422 1.368 . S
H407 C415 0.950 . S
H408 C413 0.950 . S
H409 C414 0.949 . S
H410 C416 0.950 . S
H411 C417 0.950 . S
H412 C418 0.949 . S
C413 H408 0.950 . S
C413 C415 1.327 . S
C413 C419 1.429 . S
C414 C406 1.574 . S
C414 H409 0.949 . S
C414 C420 1.368 . S
C415 C399 1.349 . S
C415 H407 0.950 . S
C415 C413 1.327 . S
C416 C404 1.349 . S
C416 H410 0.950 . S
C416 C417 1.327 . S
C417 H411 0.950 . S
C417 C416 1.327 . S
C417 C421 1.429 . S
C418 C401 1.574 . S
C418 H412 0.949 . S
C418 C422 1.368 . S
C419 C400 1.429 . S
C419 C413 1.429 . S
C419 C420 1.523 . S
C420 C401 1.368 . S
C420 C414 1.368 . S
C420 C419 1.523 . S
C421 C405 1.429 . S
C421 C417 1.429 . S
C421 C422 1.523 . S
C422 C406 1.368 . S
C422 C418 1.368 . S
C422 C421 1.523 . S
H423 C398 0.950 . S
H424 C400 0.950 . S
H425 C401 0.949 . S
H426 C403 0.950 . S
H427 C405 0.950 . S
C428 C429 1.349 . S
C428 C430 1.327 . S
C428 H453 0.950 . S
C429 C428 1.349 . S
C429 C445 1.349 . S
C430 C428 1.327 . S
C430 C449 1.429 . S
C430 H454 0.950 . S
C431 C448 1.574 . S
C431 C450 1.368 . S
C431 H455 0.949 . S
H432 C436 0.949 . S
C433 C434 1.349 . S
C433 C435 1.327 . S
C433 H456 0.950 . S
C434 C433 1.349 . S
C434 C446 1.349 . S
C435 C433 1.327 . S
C435 C451 1.429 . S
C435 H457 0.950 . S
C436 H432 0.949 . S
C436 C444 1.574 . S
C436 C452 1.368 . S
H437 C445 0.950 . S
H438 C443 0.950 . S
H439 C444 0.949 . S
H440 C446 0.950 . S
H441 C447 0.950 . S
H442 C448 0.949 . S
C443 H438 0.950 . S
C443 C445 1.327 . S
C443 C449 1.429 . S
C444 C436 1.574 . S
C444 H439 0.949 . S
C444 C450 1.368 . S
C445 C429 1.349 . S
C445 H437 0.950 . S
C445 C443 1.327 . S
C446 C434 1.349 . S
C446 H440 0.950 . S
C446 C447 1.327 . S
C447 H441 0.950 . S
C447 C446 1.327 . S
C447 C451 1.429 . S
C448 C431 1.574 . S
C448 H442 0.949 . S
C448 C452 1.368 . S
C449 C430 1.429 . S
C449 C443 1.429 . S
C449 C450 1.523 . S
C450 C431 1.368 . S
C450 C444 1.368 . S
C450 C449 1.523 . S
C451 C435 1.429 . S
C451 C447 1.429 . S
C451 C452 1.523 . S
C452 C436 1.368 . S
C452 C448 1.368 . S
C452 C451 1.523 . S
H453 C428 0.950 . S
H454 C430 0.950 . S
H455 C431 0.949 . S
H456 C433 0.950 . S
H457 C435 0.950 . S
C458 C459 1.349 . S
C458 C460 1.327 . S
C458 H483 0.950 . S
C459 C458 1.349 . S
C459 C475 1.349 . S
C460 C458 1.327 . S
C460 C479 1.429 . S
C460 H484 0.950 . S
C461 C478 1.574 . S
C461 C480 1.368 . S
C461 H485 0.949 . S
H462 C466 0.949 . S
C463 C464 1.349 . S
C463 C465 1.327 . S
C463 H486 0.950 . S
C464 C463 1.349 . S
C464 C476 1.349 . S
C465 C463 1.327 . S
C465 C481 1.429 . S
C465 H487 0.950 . S
C466 H462 0.949 . S
C466 C474 1.574 . S
C466 C482 1.368 . S
H467 C475 0.950 . S
H468 C473 0.950 . S
H469 C474 0.949 . S
H470 C476 0.950 . S
H471 C477 0.950 . S
H472 C478 0.949 . S
C473 H468 0.950 . S
C473 C475 1.327 . S
C473 C479 1.429 . S
C474 C466 1.574 . S
C474 H469 0.949 . S
C474 C480 1.368 . S
C475 C459 1.349 . S
C475 H467 0.950 . S
C475 C473 1.327 . S
C476 C464 1.349 . S
C476 H470 0.950 . S
C476 C477 1.327 . S
C477 H471 0.950 . S
C477 C476 1.327 . S
C477 C481 1.429 . S
C478 C461 1.574 . S
C478 H472 0.949 . S
C478 C482 1.368 . S
C479 C460 1.429 . S
C479 C473 1.429 . S
C479 C480 1.523 . S
C480 C461 1.368 . S
C480 C474 1.368 . S
C480 C479 1.523 . S
C481 C465 1.429 . S
C481 C477 1.429 . S
C481 C482 1.523 . S
C482 C466 1.368 . S
C482 C478 1.368 . S
C482 C481 1.523 . S
H483 C458 0.950 . S
H484 C460 0.950 . S
H485 C461 0.949 . S
H486 C463 0.950 . S
H487 C465 0.950 . S
C488 C489 1.349 . S
C488 C490 1.327 . S
C488 H513 0.950 . S
C489 C488 1.349 . S
C489 C505 1.349 . S
C490 C488 1.327 . S
C490 C509 1.429 . S
C490 H514 0.950 . S
C491 C508 1.574 1_554 S
C491 C510 1.368 . S
C491 H515 0.949 . S
H492 C496 0.949 . S
C493 C494 1.349 . S
C493 C495 1.327 . S
C493 H516 0.950 . S
C494 C493 1.349 . S
C494 C506 1.349 . S
C495 C493 1.327 . S
C495 C511 1.429 . S
C495 H517 0.950 . S
C496 H492 0.949 . S
C496 C504 1.574 . S
C496 C512 1.368 1_554 S
H497 C505 0.950 1_565 S
H498 C503 0.950 . S
H499 C504 0.949 . S
H500 C506 0.950 . S
H501 C507 0.950 . S
H502 C508 0.949 . S
C503 H498 0.950 . S
C503 C505 1.327 . S
C503 C509 1.429 . S
C504 C496 1.574 . S
C504 H499 0.949 . S
C504 C510 1.368 . S
C505 C489 1.349 . S
C505 H497 0.950 1_545 S
C505 C503 1.327 . S
C506 C494 1.349 . S
C506 H500 0.950 . S
C506 C507 1.327 . S
C507 H501 0.950 . S
C507 C506 1.327 . S
C507 C511 1.429 . S
C508 C491 1.574 1_556 S
C508 H502 0.949 . S
C508 C512 1.368 . S
C509 C490 1.429 . S
C509 C503 1.429 . S
C509 C510 1.523 . S
C510 C491 1.368 . S
C510 C504 1.368 . S
C510 C509 1.523 . S
C511 C495 1.429 . S
C511 C507 1.429 . S
C511 C512 1.523 . S
C512 C496 1.368 1_556 S
C512 C508 1.368 . S
C512 C511 1.523 . S
H513 C488 0.950 . S
H514 C490 0.950 . S
H515 C491 0.949 . S
H516 C493 0.950 . S
H517 C495 0.950 . S
C518 C519 1.349 . S
C518 C520 1.327 . S
C518 H543 0.950 . S
C519 C518 1.349 . S
C519 C535 1.349 . S
C520 C518 1.327 . S
C520 C539 1.429 . S
C520 H544 0.950 . S
C521 C538 1.574 1_554 S
C521 C540 1.368 . S
C521 H545 0.949 . S
H522 C526 0.949 . S
C523 C524 1.349 1_455 S
C523 C525 1.327 . S
C523 H546 0.950 . S
C524 C523 1.349 1_655 S
C524 C536 1.349 . S
C525 C523 1.327 . S
C525 C541 1.429 . S
C525 H547 0.950 . S
C526 H522 0.949 . S
C526 C534 1.574 . S
C526 C542 1.368 . S
H527 C535 0.950 . S
H528 C533 0.950 . S
H529 C534 0.949 . S
H530 C536 0.950 . S
H531 C537 0.950 1_554 S
H532 C538 0.949 . S
C533 H528 0.950 . S
C533 C535 1.327 . S
C533 C539 1.429 . S
C534 C526 1.574 . S
C534 H529 0.949 . S
C534 C540 1.368 . S
C535 C519 1.349 . S
C535 H527 0.950 . S
C535 C533 1.327 . S
C536 C524 1.349 . S
C536 H530 0.950 . S
C536 C537 1.327 1_655 S
C537 H531 0.950 1_556 S
C537 C536 1.327 1_455 S
C537 C541 1.429 . S
C538 C521 1.574 1_556 S
C538 H532 0.949 . S
C538 C542 1.368 1_556 S
C539 C520 1.429 . S
C539 C533 1.429 . S
C539 C540 1.523 . S
C540 C521 1.368 . S
C540 C534 1.368 . S
C540 C539 1.523 . S
C541 C525 1.429 . S
C541 C537 1.429 . S
C541 C542 1.523 1_556 S
C542 C526 1.368 . S
C542 C538 1.368 1_554 S
C542 C541 1.523 1_554 S
H543 C518 0.950 . S
H544 C520 0.950 . S
H545 C521 0.949 . S
H546 C523 0.950 . S
H547 C525 0.950 . S
C548 C549 1.349 . S
C548 C550 1.327 . S
C548 H573 0.950 . S
C549 C548 1.349 . S
C549 C565 1.349 . S
C550 C548 1.327 . S
C550 C569 1.429 . S
C550 H574 0.950 . S
C551 C568 1.574 . S
C551 C570 1.368 1_554 S
C551 H575 0.949 . S
H552 C556 0.960 . S
C553 C554 1.349 . S
C553 C555 1.327 . S
C553 H576 0.950 . S
C554 C553 1.349 . S
C554 C566 1.349 . S
C555 C553 1.327 . S
C555 C571 1.429 . S
C555 H577 0.950 . S
C556 H552 0.960 . S
C556 C564 1.574 1_554 S
C556 C572 1.368 . S
H557 C565 0.950 . S
H558 C563 0.950 . S
H559 C564 0.949 . S
H560 C566 0.950 1_545 S
H561 C567 0.950 . S
H562 C568 0.949 . S
C563 H558 0.950 . S
C563 C565 1.327 . S
C563 C569 1.429 . S
C564 C556 1.574 1_556 S
C564 H559 0.949 . S
C564 C570 1.368 . S
C565 C549 1.349 . S
C565 H557 0.950 . S
C565 C563 1.327 . S
C566 C554 1.349 . S
C566 H560 0.950 1_565 S
C566 C567 1.327 . S
C567 H561 0.950 . S
C567 C566 1.327 . S
C567 C571 1.429 . S
C568 C551 1.574 . S
C568 H562 0.949 . S
C568 C572 1.368 . S
C569 C550 1.429 . S
C569 C563 1.429 . S
C569 C570 1.523 . S
C570 C551 1.368 1_556 S
C570 C564 1.368 . S
C570 C569 1.523 . S
C571 C555 1.429 . S
C571 C567 1.429 . S
C571 C572 1.523 . S
C572 C556 1.368 . S
C572 C568 1.368 . S
C572 C571 1.523 . S
H573 C548 0.950 . S
H574 C550 0.950 . S
H575 C551 0.949 . S
H576 C553 0.950 . S
H577 C555 0.950 . S
C578 C579 1.349 . S
C578 C580 1.327 . S
C578 H603 0.950 . S
C579 C578 1.349 . S
C579 C595 1.349 . S
C580 C578 1.327 . S
C580 C599 1.429 . S
C580 H604 0.950 . S
C581 C598 1.574 1_554 S
C581 C600 1.368 . S
C581 H605 0.949 . S
H582 C586 0.949 . S
C583 C584 1.349 1_655 S
C583 C585 1.327 . S
C583 H606 0.950 . S
C584 C583 1.349 1_455 S
C584 C596 1.349 . S
C585 C583 1.327 . S
C585 C601 1.429 . S
C585 H607 0.950 . S
C586 H582 0.949 . S
C586 C594 1.574 . S
C586 C602 1.368 . S
H587 C595 0.950 . S
H588 C593 0.950 . S
H589 C594 0.949 . S
H590 C596 0.950 . S
H591 C597 0.855 1_554 S
H592 C598 0.949 . S
C593 H588 0.950 . S
C593 C595 1.327 . S
C593 C599 1.429 . S
C594 C586 1.574 . S
C594 H589 0.949 . S
C594 C600 1.368 . S
C595 C579 1.349 . S
C595 H587 0.950 . S
C595 C593 1.327 . S
C596 C584 1.349 . S
C596 H590 0.950 . S
C596 C597 1.389 1_455 S
C597 H591 0.855 1_556 S
C597 C596 1.389 1_655 S
C597 C601 1.464 . S
C598 C581 1.574 1_556 S
C598 H592 0.949 . S
C598 C602 1.368 1_556 S
C599 C580 1.429 . S
C599 C593 1.429 . S
C599 C600 1.523 . S
C600 C581 1.368 . S
C600 C594 1.368 . S
C600 C599 1.523 . S
C601 C585 1.429 . S
C601 C597 1.464 . S
C601 C602 1.523 1_556 S
C602 C586 1.368 . S
C602 C598 1.368 1_554 S
C602 C601 1.523 1_554 S
H603 C578 0.950 . S
H604 C580 0.950 . S
H605 C581 0.949 . S
H606 C583 0.950 . S
H607 C585 0.950 . S
C608 C609 1.349 . S
C608 C610 1.327 . S
C608 H633 0.950 . S
C609 C608 1.349 . S
C609 C625 1.349 . S
C610 C608 1.327 . S
C610 C629 1.429 . S
C610 H634 0.950 . S
C611 C628 1.574 . S
C611 C630 1.368 . S
C611 H635 0.949 . S
H612 C616 0.949 . S
C613 C614 1.349 . S
C613 C615 1.327 . S
C613 H636 0.950 . S
C614 C613 1.349 . S
C614 C626 1.349 . S
C615 C613 1.327 . S
C615 C631 1.429 . S
C615 H637 0.950 . S
C616 H612 0.949 . S
C616 C624 1.574 . S
C616 C632 1.368 . S
H617 C625 0.950 . S
H618 C623 0.950 . S
H619 C624 0.949 . S
H620 C626 0.950 . S
H621 C627 0.950 . S
H622 C628 0.949 . S
C623 H618 0.950 . S
C623 C625 1.327 . S
C623 C629 1.429 . S
C624 C616 1.574 . S
C624 H619 0.949 . S
C624 C630 1.368 . S
C625 C609 1.349 . S
C625 H617 0.950 . S
C625 C623 1.327 . S
C626 C614 1.349 . S
C626 H620 0.950 . S
C626 C627 1.327 . S
C627 H621 0.950 . S
C627 C626 1.327 . S
C627 C631 1.429 . S
C628 C611 1.574 . S
C628 H622 0.949 . S
C628 C632 1.368 . S
C629 C610 1.429 . S
C629 C623 1.429 . S
C629 C630 1.523 . S
C630 C611 1.368 . S
C630 C624 1.368 . S
C630 C629 1.523 . S
C631 C615 1.429 . S
C631 C627 1.429 . S
C631 C632 1.523 . S
C632 C616 1.368 . S
C632 C628 1.368 . S
C632 C631 1.523 . S
H633 C608 0.950 . S
H634 C610 0.950 . S
H635 C611 0.949 . S
H636 C613 0.950 . S
H637 C615 0.950 . S
C638 C639 1.349 . S
C638 C640 1.327 1_455 S
C638 H663 0.950 . S
C639 C638 1.349 . S
C639 C655 1.349 1_455 S
C640 C638 1.327 1_655 S
C640 C659 1.429 . S
C640 H664 0.950 . S
C641 C658 1.574 . S
C641 C660 1.368 . S
C641 H665 0.949 . S
H642 C646 0.949 . S
C643 C644 1.349 . S
C643 C645 1.327 . S
C643 H666 0.950 . S
C644 C643 1.349 . S
C644 C656 1.349 . S
C645 C643 1.327 . S
C645 C661 1.429 . S
C645 H667 0.950 . S
C646 H642 0.949 . S
C646 C654 1.574 . S
C646 C662 1.368 . S
H647 C655 0.950 . S
H648 C653 0.950 . S
H649 C654 0.949 . S
H650 C656 0.950 . S
H651 C657 0.950 . S
H652 C658 0.949 . S
C653 H648 0.950 . S
C653 C655 1.327 . S
C653 C659 1.429 . S
C654 C646 1.574 . S
C654 H649 0.949 . S
C654 C660 1.368 . S
C655 C639 1.349 1_655 S
C655 H647 0.950 . S
C655 C653 1.327 . S
C656 C644 1.349 . S
C656 H650 0.950 . S
C656 C657 1.327 . S
C657 H651 0.950 . S
C657 C656 1.327 . S
C657 C661 1.429 . S
C658 C641 1.574 . S
C658 H652 0.949 . S
C658 C662 1.368 . S
C659 C640 1.429 . S
C659 C653 1.429 . S
C659 C660 1.523 . S
C660 C641 1.368 . S
C660 C654 1.368 . S
C660 C659 1.523 . S
C661 C645 1.429 . S
C661 C657 1.429 . S
C661 C662 1.523 . S
C662 C646 1.368 . S
C662 C658 1.368 . S
C662 C661 1.523 . S
H663 C638 0.950 . S
H664 C640 0.950 . S
H665 C641 0.949 . S
H666 C643 0.950 . S
H667 C645 0.950 . S
C668 C669 1.349 . S
C668 C670 1.327 . S
C668 H693 0.950 1_545 S
C669 C668 1.349 . S
C669 C685 1.349 . S
C670 C668 1.327 . S
C670 C689 1.429 . S
C670 H694 0.950 . S
C671 C688 1.574 . S
C671 C690 1.368 . S
C671 H695 0.949 . S
H672 C676 0.949 . S
C673 C674 1.349 . S
C673 C675 1.327 . S
C673 H696 0.950 . S
C674 C673 1.349 . S
C674 C686 1.349 . S
C675 C673 1.327 . S
C675 C691 1.429 . S
C675 H697 0.950 . S
C676 H672 0.949 . S
C676 C684 1.574 . S
C676 C692 1.368 . S
H677 C685 0.950 . S
H678 C683 0.950 . S
H679 C684 0.949 . S
H680 C686 0.950 . S
H681 C687 0.950 . S
H682 C688 0.949 . S
C683 H678 0.950 . S
C683 C685 1.327 . S
C683 C689 1.429 . S
C684 C676 1.574 . S
C684 H679 0.949 . S
C684 C690 1.368 . S
C685 C669 1.349 . S
C685 H677 0.950 . S
C685 C683 1.327 . S
C686 C674 1.349 . S
C686 H680 0.950 . S
C686 C687 1.327 . S
C687 H681 0.950 . S
C687 C686 1.327 . S
C687 C691 1.429 . S
C688 C671 1.574 . S
C688 H682 0.949 . S
C688 C692 1.368 . S
C689 C670 1.429 . S
C689 C683 1.429 . S
C689 C690 1.523 . S
C690 C671 1.368 . S
C690 C684 1.368 . S
C690 C689 1.523 . S
C691 C675 1.429 . S
C691 C687 1.429 . S
C691 C692 1.523 . S
C692 C676 1.368 . S
C692 C688 1.368 . S
C692 C691 1.523 . S
H693 C668 0.950 1_565 S
H694 C670 0.950 . S
H695 C671 0.949 . S
H696 C673 0.950 . S
H697 C675 0.950 . S
C698 C699 1.349 . S
C698 C700 1.327 1_655 S
C698 H723 0.950 . S
C699 C698 1.349 . S
C699 C715 1.349 1_655 S
C700 C698 1.327 1_455 S
C700 C719 1.429 . S
C700 H724 0.950 . S
C701 C718 1.574 . S
C701 C720 1.368 . S
C701 H725 0.949 . S
H702 C706 0.949 . S
C703 C704 1.349 . S
C703 C705 1.327 . S
C703 H726 0.950 . S
C704 C703 1.349 . S
C704 C716 1.349 . S
C705 C703 1.327 . S
C705 C721 1.429 . S
C705 H727 0.950 . S
C706 H702 0.949 . S
C706 C714 1.574 . S
C706 C722 1.368 . S
H707 C715 0.950 . S
H708 C713 0.950 . S
H709 C714 0.949 . S
H710 C716 0.950 . S
H711 C717 0.950 . S
H712 C718 0.949 . S
C713 H708 0.950 . S
C713 C715 1.327 . S
C713 C719 1.429 . S
C714 C706 1.574 . S
C714 H709 0.949 . S
C714 C720 1.368 . S
C715 C699 1.349 1_455 S
C715 H707 0.950 . S
C715 C713 1.327 . S
C716 C704 1.349 . S
C716 H710 0.950 . S
C716 C717 1.327 . S
C717 H711 0.950 . S
C717 C716 1.327 . S
C717 C721 1.429 . S
C718 C701 1.574 . S
C718 H712 0.949 . S
C718 C722 1.368 . S
C719 C700 1.429 . S
C719 C713 1.429 . S
C719 C720 1.523 . S
C720 C701 1.368 . S
C720 C714 1.368 . S
C720 C719 1.523 . S
C721 C705 1.429 . S
C721 C717 1.429 . S
C721 C722 1.523 . S
C722 C706 1.368 . S
C722 C718 1.368 . S
C722 C721 1.523 . S
H723 C698 0.950 . S
H724 C700 0.950 . S
H725 C701 0.949 . S
H726 C703 0.950 . S
H727 C705 0.950 . S
C728 C729 1.349 . S
C728 C730 1.327 . S
C728 H753 0.950 . S
C729 C728 1.349 . S
C729 C745 1.349 . S
C730 C728 1.327 . S
C730 C749 1.429 . S
C730 H754 0.950 . S
C731 C748 1.574 . S
C731 C750 1.368 . S
C731 H755 0.949 . S
H732 C736 0.949 . S
C733 C734 1.349 . S
C733 C735 1.327 . S
C733 H756 0.950 . S
C734 C733 1.349 . S
C734 C746 1.349 . S
C735 C733 1.327 . S
C735 C751 1.429 . S
C735 H757 0.950 . S
C736 H732 0.949 . S
C736 C744 1.574 . S
C736 C752 1.368 . S
H737 C745 0.950 . S
H738 C743 0.950 . S
H739 C744 0.949 . S
H740 C746 0.950 . S
H741 C747 0.950 . S
H742 C748 0.949 . S
C743 H738 0.950 . S
C743 C745 1.327 . S
C743 C749 1.429 . S
C744 C736 1.574 . S
C744 H739 0.949 . S
C744 C750 1.368 . S
C745 C729 1.349 . S
C745 H737 0.950 . S
C745 C743 1.327 . S
C746 C734 1.349 . S
C746 H740 0.950 . S
C746 C747 1.327 . S
C747 H741 0.950 . S
C747 C746 1.327 . S
C747 C751 1.429 . S
C748 C731 1.574 . S
C748 H742 0.949 . S
C748 C752 1.368 . S
C749 C730 1.429 . S
C749 C743 1.429 . S
C749 C750 1.523 . S
C750 C731 1.368 . S
C750 C744 1.368 . S
C750 C749 1.523 . S
C751 C735 1.429 . S
C751 C747 1.429 . S
C751 C752 1.523 . S
C752 C736 1.368 . S
C752 C748 1.368 . S
C752 C751 1.523 . S
H753 C728 0.950 . S
H754 C730 0.950 . S
H755 C731 0.949 . S
H756 C733 0.950 . S
H757 C735 0.950 . S
C758 C759 1.349 . S
C758 C760 1.327 . S
C758 H783 0.950 . S
C759 C758 1.349 . S
C759 C775 1.349 . S
C760 C758 1.327 . S
C760 C779 1.429 . S
C760 H784 0.950 . S
C761 C778 1.574 . S
C761 C780 1.368 . S
C761 H785 0.949 . S
H762 C766 0.949 . S
C763 C764 1.349 . S
C763 C765 1.327 . S
C763 H786 0.950 . S
C764 C763 1.349 . S
C764 C776 1.349 . S
C765 C763 1.327 . S
C765 C781 1.429 . S
C765 H787 0.950 . S
C766 H762 0.949 . S
C766 C774 1.574 . S
C766 C782 1.368 . S
H767 C775 0.950 . S
H768 C773 0.950 . S
H769 C774 0.949 . S
H770 C776 0.950 . S
H771 C777 0.950 . S
H772 C778 0.949 . S
C773 H768 0.950 . S
C773 C775 1.327 . S
C773 C779 1.429 . S
C774 C766 1.574 . S
C774 H769 0.949 . S
C774 C780 1.368 . S
C775 C759 1.349 . S
C775 H767 0.950 . S
C775 C773 1.327 . S
C776 C764 1.349 . S
C776 H770 0.950 . S
C776 C777 1.327 . S
C777 H771 0.950 . S
C777 C776 1.327 . S
C777 C781 1.429 . S
C778 C761 1.574 . S
C778 H772 0.949 . S
C778 C782 1.368 . S
C779 C760 1.429 . S
C779 C773 1.429 . S
C779 C780 1.523 . S
C780 C761 1.368 . S
C780 C774 1.368 . S
C780 C779 1.523 . S
C781 C765 1.429 . S
C781 C777 1.429 . S
C781 C782 1.523 . S
C782 C766 1.368 . S
C782 C778 1.368 . S
C782 C781 1.523 . S
H783 C758 0.950 . S
H784 C760 0.950 . S
H785 C761 0.949 . S
H786 C763 0.950 . S
H787 C765 0.950 . S
C788 C789 1.349 . S
C788 C790 1.327 . S
C788 H813 0.950 . S
C789 C788 1.349 . S
C789 C805 1.349 . S
C790 C788 1.327 . S
C790 C809 1.429 . S
C790 H814 0.950 . S
C791 C808 1.574 . S
C791 C810 1.368 . S
C791 H815 0.949 . S
H792 C796 0.949 . S
C793 C794 1.349 . S
C793 C795 1.327 . S
C793 H816 0.950 . S
C794 C793 1.349 . S
C794 C806 1.349 . S
C795 C793 1.327 . S
C795 C811 1.429 . S
C795 H817 0.950 . S
C796 H792 0.949 . S
C796 C804 1.574 . S
C796 C812 1.368 . S
H797 C805 0.950 . S
H798 C803 0.950 . S
H799 C804 0.949 . S
H800 C806 0.950 . S
H801 C807 0.950 . S
H802 C808 0.949 . S
C803 H798 0.950 . S
C803 C805 1.327 . S
C803 C809 1.429 . S
C804 C796 1.574 . S
C804 H799 0.949 . S
C804 C810 1.368 . S
C805 C789 1.349 . S
C805 H797 0.950 . S
C805 C803 1.327 . S
C806 C794 1.349 . S
C806 H800 0.950 . S
C806 C807 1.327 . S
C807 H801 0.950 . S
C807 C806 1.327 . S
C807 C811 1.429 . S
C808 C791 1.574 . S
C808 H802 0.949 . S
C808 C812 1.368 . S
C809 C790 1.429 . S
C809 C803 1.429 . S
C809 C810 1.523 . S
C810 C791 1.368 . S
C810 C804 1.368 . S
C810 C809 1.523 . S
C811 C795 1.429 . S
C811 C807 1.429 . S
C811 C812 1.523 . S
C812 C796 1.368 . S
C812 C808 1.368 . S
C812 C811 1.523 . S
H813 C788 0.950 . S
H814 C790 0.950 . S
H815 C791 0.949 . S
H816 C793 0.950 . S
H817 C795 0.950 . S
C818 C819 1.349 . S
C818 C820 1.327 . S
C818 H843 0.950 . S
C819 C818 1.349 . S
C819 C835 1.349 . S
C820 C818 1.327 . S
C820 C839 1.429 . S
C820 H844 0.950 . S
C821 C838 1.574 . S
C821 C840 1.368 . S
C821 H845 0.949 . S
H822 C826 0.949 . S
C823 C824 1.349 . S
C823 C825 1.327 . S
C823 H846 0.950 . S
C824 C823 1.349 . S
C824 C836 1.349 . S
C825 C823 1.327 . S
C825 C841 1.429 . S
C825 H847 0.950 . S
C826 H822 0.949 . S
C826 C834 1.574 . S
C826 C842 1.368 . S
H827 C835 0.950 . S
H828 C833 0.950 . S
H829 C834 0.949 . S
H830 C836 0.950 . S
H831 C837 0.950 . S
H832 C838 0.949 . S
C833 H828 0.950 . S
C833 C835 1.327 . S
C833 C839 1.429 . S
C834 C826 1.574 . S
C834 H829 0.949 . S
C834 C840 1.368 . S
C835 C819 1.349 . S
C835 H827 0.950 . S
C835 C833 1.327 . S
C836 C824 1.349 . S
C836 H830 0.950 . S
C836 C837 1.327 . S
C837 H831 0.950 . S
C837 C836 1.327 . S
C837 C841 1.429 . S
C838 C821 1.574 . S
C838 H832 0.949 . S
C838 C842 1.368 . S
C839 C820 1.429 . S
C839 C833 1.429 . S
C839 C840 1.523 . S
C840 C821 1.368 . S
C840 C834 1.368 . S
C840 C839 1.523 . S
C841 C825 1.429 . S
C841 C837 1.429 . S
C841 C842 1.523 . S
C842 C826 1.368 . S
C842 C838 1.368 . S
C842 C841 1.523 . S
H843 C818 0.950 . S
H844 C820 0.950 . S
H845 C821 0.949 . S
H846 C823 0.950 . S
H847 C825 0.950 . S
C848 C849 1.349 . S
C848 C850 1.327 . S
C848 H873 0.950 . S
C849 C848 1.349 . S
C849 C865 1.349 . S
C850 C848 1.327 . S
C850 C869 1.429 . S
C850 H874 0.950 . S
C851 C868 1.574 . S
C851 C870 1.368 . S
C851 H875 0.949 . S
H852 C856 0.949 . S
C853 C854 1.349 . S
C853 C855 1.327 . S
C853 H876 0.950 . S
C854 C853 1.349 . S
C854 C866 1.349 . S
C855 C853 1.327 . S
C855 C871 1.429 . S
C855 H877 0.950 . S
C856 H852 0.949 . S
C856 C864 1.574 . S
C856 C872 1.368 . S
H857 C865 0.950 . S
H858 C863 0.950 . S
H859 C864 0.949 . S
H860 C866 0.950 . S
H861 C867 0.950 . S
H862 C868 0.949 . S
C863 H858 0.950 . S
C863 C865 1.327 . S
C863 C869 1.429 . S
C864 C856 1.574 . S
C864 H859 0.949 . S
C864 C870 1.368 . S
C865 C849 1.349 . S
C865 H857 0.950 . S
C865 C863 1.327 . S
C866 C854 1.349 . S
C866 H860 0.950 . S
C866 C867 1.327 . S
C867 H861 0.950 . S
C867 C866 1.327 . S
C867 C871 1.429 . S
C868 C851 1.574 . S
C868 H862 0.949 . S
C868 C872 1.368 . S
C869 C850 1.429 . S
C869 C863 1.429 . S
C869 C870 1.523 . S
C870 C851 1.368 . S
C870 C864 1.368 . S
C870 C869 1.523 . S
C871 C855 1.429 . S
C871 C867 1.429 . S
C871 C872 1.523 . S
C872 C856 1.368 . S
C872 C868 1.368 . S
C872 C871 1.523 . S
H873 C848 0.950 . S
H874 C850 0.950 . S
H875 C851 0.949 . S
H876 C853 0.950 . S
H877 C855 0.950 . S
C878 C879 1.349 . S
C878 C880 1.327 . S
C878 H903 0.950 . S
C879 C878 1.349 . S
C879 C895 1.349 . S
C880 C878 1.327 . S
C880 C899 1.429 . S
C880 H904 0.950 . S
C881 C898 1.574 . S
C881 C900 1.368 . S
C881 H905 0.949 . S
H882 C886 0.949 . S
C883 C884 1.349 . S
C883 C885 1.327 . S
C883 H906 0.950 . S
C884 C883 1.349 . S
C884 C896 1.349 . S
C885 C883 1.327 . S
C885 C901 1.429 . S
C885 H907 0.950 . S
C886 H882 0.949 . S
C886 C894 1.574 . S
C886 C902 1.368 . S
H887 C895 0.950 . S
H888 C893 0.950 . S
H889 C894 0.949 . S
H890 C896 0.950 . S
H891 C897 0.950 . S
H892 C898 0.949 . S
C893 H888 0.950 . S
C893 C895 1.327 . S
C893 C899 1.429 . S
C894 C886 1.574 . S
C894 H889 0.949 . S
C894 C900 1.368 . S
C895 C879 1.349 . S
C895 H887 0.950 . S
C895 C893 1.327 . S
C896 C884 1.349 . S
C896 H890 0.950 . S
C896 C897 1.327 . S
C897 H891 0.950 . S
C897 C896 1.327 . S
C897 C901 1.429 . S
C898 C881 1.574 . S
C898 H892 0.949 . S
C898 C902 1.368 . S
C899 C880 1.429 . S
C899 C893 1.429 . S
C899 C900 1.523 . S
C900 C881 1.368 . S
C900 C894 1.368 . S
C900 C899 1.523 . S
C901 C885 1.429 . S
C901 C897 1.429 . S
C901 C902 1.523 . S
C902 C886 1.368 . S
C902 C898 1.368 . S
C902 C901 1.523 . S
H903 C878 0.950 . S
H904 C880 0.950 . S
H905 C881 0.949 . S
H906 C883 0.950 . S
H907 C885 0.950 . S
C908 C909 1.349 . S
C908 C910 1.327 . S
C908 H933 0.950 . S
C909 C908 1.349 . S
C909 C925 1.349 . S
C910 C908 1.327 . S
C910 C929 1.429 . S
C910 H934 0.950 . S
C911 C928 1.574 . S
C911 C930 1.368 . S
C911 H935 0.949 . S
H912 C916 0.949 . S
C913 C914 1.349 . S
C913 C915 1.327 . S
C913 H936 0.950 . S
C914 C913 1.349 . S
C914 C926 1.349 . S
C915 C913 1.327 . S
C915 C931 1.429 . S
C915 H937 0.950 . S
C916 H912 0.949 . S
C916 C924 1.574 . S
C916 C932 1.368 . S
H917 C925 0.950 . S
H918 C923 0.950 . S
H919 C924 0.949 . S
H920 C926 0.950 . S
H921 C927 0.950 . S
H922 C928 0.949 . S
C923 H918 0.950 . S
C923 C925 1.327 . S
C923 C929 1.429 . S
C924 C916 1.574 . S
C924 H919 0.949 . S
C924 C930 1.368 . S
C925 C909 1.349 . S
C925 H917 0.950 . S
C925 C923 1.327 . S
C926 C914 1.349 . S
C926 H920 0.950 . S
C926 C927 1.327 . S
C927 H921 0.950 . S
C927 C926 1.327 . S
C927 C931 1.429 . S
C928 C911 1.574 . S
C928 H922 0.949 . S
C928 C932 1.368 . S
C929 C910 1.429 . S
C929 C923 1.429 . S
C929 C930 1.523 . S
C930 C911 1.368 . S
C930 C924 1.368 . S
C930 C929 1.523 . S
C931 C915 1.429 . S
C931 C927 1.429 . S
C931 C932 1.523 . S
C932 C916 1.368 . S
C932 C928 1.368 . S
C932 C931 1.523 . S
H933 C908 0.950 . S
H934 C910 0.950 . S
H935 C911 0.949 . S
H936 C913 0.950 . S
H937 C915 0.950 . S
C938 C939 1.349 . S
C938 C940 1.327 . S
C938 H963 0.950 . S
C939 C938 1.349 . S
C939 C955 1.349 . S
C940 C938 1.327 . S
C940 C959 1.429 . S
C940 H964 0.950 . S
C941 C958 1.574 . S
C941 C960 1.368 . S
C941 H965 0.949 . S
H942 C946 0.949 . S
C943 C944 1.349 . S
C943 C945 1.327 . S
C943 H966 0.950 . S
C944 C943 1.349 . S
C944 C956 1.349 . S
C945 C943 1.327 . S
C945 C961 1.429 . S
C945 H967 0.950 . S
C946 H942 0.949 . S
C946 C954 1.574 . S
C946 C962 1.368 . S
H947 C955 0.950 . S
H948 C953 0.950 . S
H949 C954 0.949 . S
H950 C956 0.950 . S
H951 C957 0.950 . S
H952 C958 0.949 . S
C953 H948 0.950 . S
C953 C955 1.327 . S
C953 C959 1.429 . S
C954 C946 1.574 . S
C954 H949 0.949 . S
C954 C960 1.368 . S
C955 C939 1.349 . S
C955 H947 0.950 . S
C955 C953 1.327 . S
C956 C944 1.349 . S
C956 H950 0.950 . S
C956 C957 1.327 . S
C957 H951 0.950 . S
C957 C956 1.327 . S
C957 C961 1.429 . S
C958 C941 1.574 . S
C958 H952 0.949 . S
C958 C962 1.368 . S
C959 C940 1.429 . S
C959 C953 1.429 . S
C959 C960 1.523 . S
C960 C941 1.368 . S
C960 C954 1.368 . S
C960 C959 1.523 . S
C961 C945 1.429 . S
C961 C957 1.429 . S
C961 C962 1.523 . S
C962 C946 1.368 . S
C962 C958 1.368 . S
C962 C961 1.523 . S
H963 C938 0.950 . S
H964 C940 0.950 . S
H965 C941 0.949 . S
H966 C943 0.950 . S
H967 C945 0.950 . S
C968 C969 1.349 . S
C968 C970 1.327 . S
C968 H993 0.950 . S
C969 C968 1.349 . S
C969 C985 1.349 . S
C970 C968 1.327 . S
C970 C989 1.429 . S
C970 H994 0.950 . S
C971 C988 1.574 . S
C971 C990 1.368 . S
C971 H995 0.949 . S
H972 C976 0.949 . S
C973 C974 1.349 . S
C973 C975 1.327 . S
C973 H996 0.950 . S
C974 C973 1.349 . S
C974 C986 1.349 . S
C975 C973 1.327 . S
C975 C991 1.429 . S
C975 H997 0.950 . S
C976 H972 0.949 . S
C976 C984 1.574 . S
C976 C992 1.368 . S
H977 C985 0.950 . S
H978 C983 0.950 . S
H979 C984 0.949 . S
H980 C986 0.950 . S
H981 C987 0.950 . S
H982 C988 0.949 . S
C983 H978 0.950 . S
C983 C985 1.327 . S
C983 C989 1.429 . S
C984 C976 1.574 . S
C984 H979 0.949 . S
C984 C990 1.368 . S
C985 C969 1.349 . S
C985 H977 0.950 . S
C985 C983 1.327 . S
C986 C974 1.349 . S
C986 H980 0.950 . S
C986 C987 1.327 . S
C987 H981 0.950 . S
C987 C986 1.327 . S
C987 C991 1.429 . S
C988 C971 1.574 . S
C988 H982 0.949 . S
C988 C992 1.368 . S
C989 C970 1.429 . S
C989 C983 1.429 . S
C989 C990 1.523 . S
C990 C971 1.368 . S
C990 C984 1.368 . S
C990 C989 1.523 . S
C991 C975 1.429 . S
C991 C987 1.429 . S
C991 C992 1.523 . S
C992 C976 1.368 . S
C992 C988 1.368 . S
C992 C991 1.523 . S
H993 C968 0.950 . S
H994 C970 0.950 . S
H995 C971 0.949 . S
H996 C973 0.950 . S
H997 C975 0.950 . S
C998 C999 1.349 . S
C998 C1000 1.327 . S
C998 H1023 0.950 . S
C999 C998 1.349 . S
C999 C1015 1.349 . S
C1000 C998 1.327 . S
C1000 C1019 1.429 . S
C1000 H1024 0.950 . S
C1001 C1018 1.574 . S
C1001 C1020 1.368 . S
C1001 H1025 0.949 . S
H1002 C1006 0.949 . S
C1003 C1004 1.349 . S
C1003 C1005 1.327 . S
C1003 H1026 0.950 . S
C1004 C1003 1.349 . S
C1004 C1016 1.349 . S
C1005 C1003 1.327 . S
C1005 C1021 1.429 . S
C1005 H1027 0.950 . S
C1006 H1002 0.949 . S
C1006 C1014 1.574 . S
C1006 C1022 1.368 . S
H1007 C1015 0.950 . S
H1008 C1013 0.950 . S
H1009 C1014 0.949 . S
H1010 C1016 0.950 . S
H1011 C1017 0.950 . S
H1012 C1018 0.949 . S
C1013 H1008 0.950 . S
C1013 C1015 1.327 . S
C1013 C1019 1.429 . S
C1014 C1006 1.574 . S
C1014 H1009 0.949 . S
C1014 C1020 1.368 . S
C1015 C999 1.349 . S
C1015 H1007 0.950 . S
C1015 C1013 1.327 . S
C1016 C1004 1.349 . S
C1016 H1010 0.950 . S
C1016 C1017 1.327 . S
C1017 H1011 0.950 . S
C1017 C1016 1.327 . S
C1017 C1021 1.429 . S
C1018 C1001 1.574 . S
C1018 H1012 0.949 . S
C1018 C1022 1.368 . S
C1019 C1000 1.429 . S
C1019 C1013 1.429 . S
C1019 C1020 1.523 . S
C1020 C1001 1.368 . S
C1020 C1014 1.368 . S
C1020 C1019 1.523 . S
C1021 C1005 1.429 . S
C1021 C1017 1.429 . S
C1021 C1022 1.523 . S
C1022 C1006 1.368 . S
C1022 C1018 1.368 . S
C1022 C1021 1.523 . S
H1023 C998 0.950 . S
H1024 C1000 0.950 . S
H1025 C1001 0.949 . S
H1026 C1003 0.950 . S
H1027 C1005 0.950 . S
C1028 C1029 1.349 . S
C1028 C1030 1.327 . S
C1028 H1053 0.950 . S
C1029 C1028 1.349 . S
C1029 C1045 1.349 . S
C1030 C1028 1.327 . S
C1030 C1049 1.429 . S
C1030 H1054 0.950 . S
C1031 C1048 1.574 . S
C1031 C1050 1.368 . S
C1031 H1055 0.949 . S
H1032 C1036 0.949 . S
C1033 C1034 1.349 . S
C1033 C1035 1.327 . S
C1033 H1056 0.950 . S
C1034 C1033 1.349 . S
C1034 C1046 1.349 . S
C1035 C1033 1.327 . S
C1035 C1051 1.429 . S
C1035 H1057 0.950 . S
C1036 H1032 0.949 . S
C1036 C1044 1.574 . S
C1036 C1052 1.368 . S
H1037 C1045 0.950 . S
H1038 C1043 0.950 . S
H1039 C1044 0.949 . S
H1040 C1046 0.950 . S
H1041 C1047 0.950 . S
H1042 C1048 0.949 . S
C1043 H1038 0.950 . S
C1043 C1045 1.327 . S
C1043 C1049 1.429 . S
C1044 C1036 1.574 . S
C1044 H1039 0.949 . S
C1044 C1050 1.368 . S
C1045 C1029 1.349 . S
C1045 H1037 0.950 . S
C1045 C1043 1.327 . S
C1046 C1034 1.349 . S
C1046 H1040 0.950 . S
C1046 C1047 1.327 . S
C1047 H1041 0.950 . S
C1047 C1046 1.327 . S
C1047 C1051 1.429 . S
C1048 C1031 1.574 . S
C1048 H1042 0.949 . S
C1048 C1052 1.368 . S
C1049 C1030 1.429 . S
C1049 C1043 1.429 . S
C1049 C1050 1.523 . S
C1050 C1031 1.368 . S
C1050 C1044 1.368 . S
C1050 C1049 1.523 . S
C1051 C1035 1.429 . S
C1051 C1047 1.429 . S
C1051 C1052 1.523 . S
C1052 C1036 1.368 . S
C1052 C1048 1.368 . S
C1052 C1051 1.523 . S
H1053 C1028 0.950 . S
H1054 C1030 0.950 . S
H1055 C1031 0.949 . S
H1056 C1033 0.950 . S
H1057 C1035 0.950 . S
C1058 C1059 1.349 . S
C1058 C1060 1.327 . S
C1058 H1083 0.950 . S
C1059 C1058 1.349 . S
C1059 C1075 1.349 . S
C1060 C1058 1.327 . S
C1060 C1079 1.429 . S
C1060 H1084 0.950 . S
C1061 C1078 1.574 . S
C1061 C1080 1.368 . S
C1061 H1085 0.949 . S
H1062 C1066 0.949 . S
C1063 C1064 1.349 . S
C1063 C1065 1.327 . S
C1063 H1086 0.950 . S
C1064 C1063 1.349 . S
C1064 C1076 1.349 . S
C1065 C1063 1.327 . S
C1065 C1081 1.429 . S
C1065 H1087 0.950 . S
C1066 H1062 0.949 . S
C1066 C1074 1.574 . S
C1066 C1082 1.368 . S
H1067 C1075 0.950 . S
H1068 C1073 0.950 . S
H1069 C1074 0.949 . S
H1070 C1076 0.950 . S
H1071 C1077 0.950 . S
H1072 C1078 0.949 . S
C1073 H1068 0.950 . S
C1073 C1075 1.327 . S
C1073 C1079 1.429 . S
C1074 C1066 1.574 . S
C1074 H1069 0.949 . S
C1074 C1080 1.368 . S
C1075 C1059 1.349 . S
C1075 H1067 0.950 . S
C1075 C1073 1.327 . S
C1076 C1064 1.349 . S
C1076 H1070 0.950 . S
C1076 C1077 1.327 . S
C1077 H1071 0.950 . S
C1077 C1076 1.327 . S
C1077 C1081 1.429 . S
C1078 C1061 1.574 . S
C1078 H1072 0.949 . S
C1078 C1082 1.368 . S
C1079 C1060 1.429 . S
C1079 C1073 1.429 . S
C1079 C1080 1.523 . S
C1080 C1061 1.368 . S
C1080 C1074 1.368 . S
C1080 C1079 1.523 . S
C1081 C1065 1.429 . S
C1081 C1077 1.429 . S
C1081 C1082 1.523 . S
C1082 C1066 1.368 . S
C1082 C1078 1.368 . S
C1082 C1081 1.523 . S
H1083 C1058 0.950 . S
H1084 C1060 0.950 . S
H1085 C1061 0.949 . S
H1086 C1063 0.950 . S
H1087 C1065 0.950 . S
C1088 C1089 1.349 . S
C1088 C1090 1.327 . S
C1088 H1113 0.950 . S
C1089 C1088 1.349 . S
C1089 C1105 1.349 . S
C1090 C1088 1.327 . S
C1090 C1109 1.429 . S
C1090 H1114 0.950 . S
C1091 C1108 1.574 1_565 S
C1091 C1110 1.368 . S
C1091 H1115 0.949 . S
H1092 C1096 0.949 . S
C1093 C1094 1.349 . S
C1093 C1095 1.327 . S
C1093 H1116 0.950 . S
C1094 C1093 1.349 . S
C1094 C1106 1.349 . S
C1095 C1093 1.327 . S
C1095 C1111 1.429 . S
C1095 H1117 0.950 . S
C1096 H1092 0.949 . S
C1096 C1104 1.574 1_545 S
C1096 C1112 1.368 . S
H1097 C1105 0.950 . S
H1098 C1103 0.950 . S
H1099 C1104 0.949 . S
H1100 C1106 0.950 . S
H1101 C1107 0.950 . S
H1102 C1108 0.949 . S
C1103 H1098 0.950 . S
C1103 C1105 1.327 . S
C1103 C1109 1.429 . S
C1104 C1096 1.574 1_565 S
C1104 H1099 0.949 . S
C1104 C1110 1.368 1_455 S
C1105 C1089 1.349 . S
C1105 H1097 0.950 . S
C1105 C1103 1.327 . S
C1106 C1094 1.349 . S
C1106 H1100 0.950 . S
C1106 C1107 1.327 . S
C1107 H1101 0.950 . S
C1107 C1106 1.327 . S
C1107 C1111 1.429 . S
C1108 C1091 1.574 1_545 S
C1108 H1102 0.949 . S
C1108 C1112 1.368 1_655 S
C1109 C1090 1.429 . S
C1109 C1103 1.429 . S
C1109 C1110 1.523 . S
C1110 C1091 1.368 . S
C1110 C1104 1.368 1_655 S
C1110 C1109 1.523 . S
C1111 C1095 1.429 . S
C1111 C1107 1.429 . S
C1111 C1112 1.523 . S
C1112 C1096 1.368 . S
C1112 C1108 1.368 1_455 S
C1112 C1111 1.523 . S
H1113 C1088 0.950 . S
H1114 C1090 0.950 . S
H1115 C1091 0.949 . S
H1116 C1093 0.950 . S
H1117 C1095 0.950 . S
C1118 C1119 1.349 . S
C1118 C1120 1.327 . S
C1118 H1143 0.950 . S
C1119 C1118 1.349 . S
C1119 C1135 1.349 . S
C1120 C1118 1.327 . S
C1120 C1139 1.429 . S
C1120 H1144 0.950 . S
C1121 C1138 1.574 1_655 S
C1121 C1140 1.368 1_565 S
C1121 H1145 0.949 . S
H1122 C1126 0.949 . S
C1123 C1124 1.349 . S
C1123 C1125 1.327 . S
C1123 H1146 0.950 . S
C1124 C1123 1.349 . S
C1124 C1136 1.349 . S
C1125 C1123 1.327 . S
C1125 C1141 1.429 . S
C1125 H1147 0.950 . S
C1126 H1122 0.949 . S
C1126 C1134 1.574 1_455 S
C1126 C1142 1.368 1_545 S
H1127 C1135 0.950 1_565 S
H1128 C1133 0.965 . S
H1129 C1134 0.949 . S
H1130 C1136 0.950 1_545 S
H1131 C1137 0.965 . S
H1132 C1138 0.949 . S
C1133 H1128 0.965 . S
C1133 C1135 1.322 1_565 S
C1133 C1139 1.419 1_565 S
C1134 C1126 1.574 1_655 S
C1134 H1129 0.949 . S
C1134 C1140 1.368 . S
C1135 C1119 1.349 . S
C1135 H1127 0.950 1_545 S
C1135 C1133 1.322 1_545 S
C1136 C1124 1.349 . S
C1136 H1130 0.950 1_565 S
C1136 C1137 1.322 1_565 S
C1137 H1131 0.965 . S
C1137 C1136 1.322 1_545 S
C1137 C1141 1.419 1_545 S
C1138 C1121 1.574 1_455 S
C1138 H1132 0.949 . S
C1138 C1142 1.368 . S
C1139 C1120 1.429 . S
C1139 C1133 1.419 1_545 S
C1139 C1140 1.523 . S
C1140 C1121 1.368 1_545 S
C1140 C1134 1.368 . S
C1140 C1139 1.523 . S
C1141 C1125 1.429 . S
C1141 C1137 1.419 1_565 S
C1141 C1142 1.523 . S
C1142 C1126 1.368 1_565 S
C1142 C1138 1.368 . S
C1142 C1141 1.523 . S
H1143 C1118 0.950 . S
H1144 C1120 0.950 . S
H1145 C1121 0.949 . S
H1146 C1123 0.950 . S
H1147 C1125 0.950 . S
C1148 C1149 1.349 . S
C1148 C1150 1.327 . S
C1148 H1173 0.950 . S
C1149 C1148 1.349 . S
C1149 C1165 1.349 . S
C1150 C1148 1.327 . S
C1150 C1169 1.429 . S
C1150 H1174 0.950 . S
C1151 C1168 1.574 . S
C1151 C1170 1.368 1_655 S
C1151 H1175 0.949 . S
H1152 C1156 0.949 . S
C1153 C1154 1.349 . S
C1153 C1155 1.327 . S
C1153 H1176 0.950 . S
C1154 C1153 1.349 . S
C1154 C1166 1.349 . S
C1155 C1153 1.327 . S
C1155 C1171 1.429 . S
C1155 H1177 0.950 . S
C1156 H1152 0.949 . S
C1156 C1164 1.574 . S
C1156 C1172 1.368 1_455 S
H1157 C1165 0.950 . S
H1158 C1163 0.950 . S
H1159 C1164 0.949 . S
H1160 C1166 0.950 . S
H1161 C1167 0.950 . S
H1162 C1168 0.949 . S
C1163 H1158 0.950 . S
C1163 C1165 1.327 . S
C1163 C1169 1.429 . S
C1164 C1156 1.574 . S
C1164 H1159 0.949 . S
C1164 C1170 1.368 . S
C1165 C1149 1.349 . S
C1165 H1157 0.950 . S
C1165 C1163 1.327 . S
C1166 C1154 1.349 . S
C1166 H1160 0.950 . S
C1166 C1167 1.327 . S
C1167 H1161 0.950 . S
C1167 C1166 1.327 . S
C1167 C1171 1.429 . S
C1168 C1151 1.574 . S
C1168 H1162 0.949 . S
C1168 C1172 1.368 . S
C1169 C1150 1.429 . S
C1169 C1163 1.429 . S
C1169 C1170 1.523 . S
C1170 C1151 1.368 1_455 S
C1170 C1164 1.368 . S
C1170 C1169 1.523 . S
C1171 C1155 1.429 . S
C1171 C1167 1.429 . S
C1171 C1172 1.523 . S
C1172 C1156 1.368 1_655 S
C1172 C1168 1.368 . S
C1172 C1171 1.523 . S
H1173 C1148 0.950 . S
H1174 C1150 0.950 . S
H1175 C1151 0.949 . S
H1176 C1153 0.950 . S
H1177 C1155 0.950 . S
C1178 C1179 1.349 . S
C1178 C1180 1.327 . S
C1178 H1203 0.950 . S
C1179 C1178 1.349 . S
C1179 C1195 1.349 . S
C1180 C1178 1.327 . S
C1180 C1199 1.429 . S
C1180 H1204 0.950 . S
C1181 C1198 1.574 . S
C1181 C1200 1.368 1_545 S
C1181 H1205 0.949 . S
H1182 C1186 0.949 . S
C1183 C1184 1.349 . S
C1183 C1185 1.327 . S
C1183 H1206 0.950 . S
C1184 C1183 1.349 . S
C1184 C1196 1.349 . S
C1185 C1183 1.327 . S
C1185 C1201 1.429 . S
C1185 H1207 0.950 . S
C1186 H1182 0.949 . S
C1186 C1194 1.574 . S
C1186 C1202 1.368 1_565 S
H1187 C1195 0.950 1_545 S
H1188 C1193 0.965 . S
H1189 C1194 0.949 . S
H1190 C1196 0.950 1_565 S
H1191 C1197 0.965 . S
H1192 C1198 0.949 . S
C1193 H1188 0.965 . S
C1193 C1195 1.322 1_545 S
C1193 C1199 1.419 1_545 S
C1194 C1186 1.574 . S
C1194 H1189 0.949 . S
C1194 C1200 1.368 . S
C1195 C1179 1.349 . S
C1195 H1187 0.950 1_565 S
C1195 C1193 1.322 1_565 S
C1196 C1184 1.349 . S
C1196 H1190 0.950 1_545 S
C1196 C1197 1.322 1_545 S
C1197 H1191 0.965 . S
C1197 C1196 1.322 1_565 S
C1197 C1201 1.419 1_565 S
C1198 C1181 1.574 . S
C1198 H1192 0.949 . S
C1198 C1202 1.368 . S
C1199 C1180 1.429 . S
C1199 C1193 1.419 1_565 S
C1199 C1200 1.523 . S
C1200 C1181 1.368 1_565 S
C1200 C1194 1.368 . S
C1200 C1199 1.523 . S
C1201 C1185 1.429 . S
C1201 C1197 1.419 1_545 S
C1201 C1202 1.523 . S
C1202 C1186 1.368 1_545 S
C1202 C1198 1.368 . S
C1202 C1201 1.523 . S
H1203 C1178 0.950 . S
H1204 C1180 0.950 . S
H1205 C1181 0.949 . S
H1206 C1183 0.950 . S
H1207 C1185 0.950 . S
C1208 C1209 1.349 . S
C1208 C1210 1.327 . S
C1208 H1233 0.950 . S
C1209 C1208 1.349 . S
C1209 C1225 1.349 . S
C1210 C1208 1.327 . S
C1210 C1229 1.429 . S
C1210 H1234 0.950 . S
C1211 C1228 1.574 . S
C1211 C1230 1.368 . S
C1211 H1235 0.949 . S
H1212 C1216 0.949 . S
C1213 C1214 1.349 . S
C1213 C1215 1.327 . S
C1213 H1236 0.950 . S
C1214 C1213 1.349 . S
C1214 C1226 1.349 . S
C1215 C1213 1.327 . S
C1215 C1231 1.429 . S
C1215 H1237 0.950 . S
C1216 H1212 0.949 . S
C1216 C1224 1.574 . S
C1216 C1232 1.368 . S
H1217 C1225 0.950 . S
H1218 C1223 0.950 . S
H1219 C1224 0.949 . S
H1220 C1226 0.950 . S
H1221 C1227 0.950 . S
H1222 C1228 0.949 . S
C1223 H1218 0.950 . S
C1223 C1225 1.327 . S
C1223 C1229 1.429 . S
C1224 C1216 1.574 . S
C1224 H1219 0.949 . S
C1224 C1230 1.368 . S
C1225 C1209 1.349 . S
C1225 H1217 0.950 . S
C1225 C1223 1.327 . S
C1226 C1214 1.349 . S
C1226 H1220 0.950 . S
C1226 C1227 1.327 . S
C1227 H1221 0.950 . S
C1227 C1226 1.327 . S
C1227 C1231 1.429 . S
C1228 C1211 1.574 . S
C1228 H1222 0.949 . S
C1228 C1232 1.368 . S
C1229 C1210 1.429 . S
C1229 C1223 1.429 . S
C1229 C1230 1.523 . S
C1230 C1211 1.368 . S
C1230 C1224 1.368 . S
C1230 C1229 1.523 . S
C1231 C1215 1.429 . S
C1231 C1227 1.429 . S
C1231 C1232 1.523 . S
C1232 C1216 1.368 . S
C1232 C1228 1.368 . S
C1232 C1231 1.523 . S
H1233 C1208 0.950 . S
H1234 C1210 0.950 . S
H1235 C1211 0.949 . S
H1236 C1213 0.950 . S
H1237 C1215 0.950 . S
C1238 C1239 1.349 . S
C1238 C1240 1.327 . S
C1238 H1263 0.950 . S
C1239 C1238 1.349 . S
C1239 C1255 1.349 . S
C1240 C1238 1.327 . S
C1240 C1259 1.429 . S
C1240 H1264 0.950 . S
C1241 C1258 1.574 . S
C1241 C1260 1.368 . S
C1241 H1265 0.949 . S
H1242 C1246 0.949 . S
C1243 C1244 1.349 . S
C1243 C1245 1.327 . S
C1243 H1266 0.950 . S
C1244 C1243 1.349 . S
C1244 C1256 1.349 . S
C1245 C1243 1.327 . S
C1245 C1261 1.429 . S
C1245 H1267 0.950 . S
C1246 H1242 0.949 . S
C1246 C1254 1.574 . S
C1246 C1262 1.368 . S
H1247 C1255 0.950 . S
H1248 C1253 0.950 . S
H1249 C1254 0.949 . S
H1250 C1256 0.950 . S
H1251 C1257 0.950 . S
H1252 C1258 0.949 . S
C1253 H1248 0.950 . S
C1253 C1255 1.327 . S
C1253 C1259 1.429 . S
C1254 C1246 1.574 . S
C1254 H1249 0.949 . S
C1254 C1260 1.368 . S
C1255 C1239 1.349 . S
C1255 H1247 0.950 . S
C1255 C1253 1.327 . S
C1256 C1244 1.349 . S
C1256 H1250 0.950 . S
C1256 C1257 1.327 . S
C1257 H1251 0.950 . S
C1257 C1256 1.327 . S
C1257 C1261 1.429 . S
C1258 C1241 1.574 . S
C1258 H1252 0.949 . S
C1258 C1262 1.368 . S
C1259 C1240 1.429 . S
C1259 C1253 1.429 . S
C1259 C1260 1.523 . S
C1260 C1241 1.368 . S
C1260 C1254 1.368 . S
C1260 C1259 1.523 . S
C1261 C1245 1.429 . S
C1261 C1257 1.429 . S
C1261 C1262 1.523 . S
C1262 C1246 1.368 . S
C1262 C1258 1.368 . S
C1262 C1261 1.523 . S
H1263 C1238 0.950 . S
H1264 C1240 0.950 . S
H1265 C1241 0.949 . S
H1266 C1243 0.950 . S
H1267 C1245 0.950 . S
C1268 C1269 1.349 . S
C1268 C1270 1.327 . S
C1268 H1293 0.950 . S
C1269 C1268 1.349 . S
C1269 C1285 1.349 . S
C1270 C1268 1.327 . S
C1270 C1289 1.429 . S
C1270 H1294 0.950 . S
C1271 C1288 1.574 1_545 S
C1271 C1290 1.368 . S
C1271 H1295 0.949 . S
H1272 C1276 0.949 . S
C1273 C1274 1.349 . S
C1273 C1275 1.327 . S
C1273 H1296 0.950 . S
C1274 C1273 1.349 . S
C1274 C1286 1.349 . S
C1275 C1273 1.327 . S
C1275 C1291 1.429 . S
C1275 H1297 0.950 . S
C1276 H1272 0.949 . S
C1276 C1284 1.574 1_565 S
C1276 C1292 1.368 . S
H1277 C1285 0.950 . S
H1278 C1283 0.950 . S
H1279 C1284 0.949 . S
H1280 C1286 0.950 . S
H1281 C1287 0.950 . S
H1282 C1288 0.949 . S
C1283 H1278 0.950 . S
C1283 C1285 1.327 . S
C1283 C1289 1.429 . S
C1284 C1276 1.574 1_545 S
C1284 H1279 0.949 . S
C1284 C1290 1.368 . S
C1285 C1269 1.349 . S
C1285 H1277 0.950 . S
C1285 C1283 1.327 . S
C1286 C1274 1.349 . S
C1286 H1280 0.950 . S
C1286 C1287 1.327 . S
C1287 H1281 0.950 . S
C1287 C1286 1.327 . S
C1287 C1291 1.429 . S
C1288 C1271 1.574 1_565 S
C1288 H1282 0.949 . S
C1288 C1292 1.368 . S
C1289 C1270 1.429 . S
C1289 C1283 1.429 . S
C1289 C1290 1.523 . S
C1290 C1271 1.368 . S
C1290 C1284 1.368 . S
C1290 C1289 1.523 . S
C1291 C1275 1.429 . S
C1291 C1287 1.429 . S
C1291 C1292 1.523 . S
C1292 C1276 1.368 . S
C1292 C1288 1.368 . S
C1292 C1291 1.523 . S
H1293 C1268 0.950 . S
H1294 C1270 0.950 . S
H1295 C1271 0.949 . S
H1296 C1273 0.950 . S
H1297 C1275 0.950 . S
C1298 C1299 1.349 . S
C1298 C1300 1.327 . S
C1298 H1323 0.950 . S
C1299 C1298 1.349 . S
C1299 C1315 1.349 . S
C1300 C1298 1.327 . S
C1300 C1319 1.429 . S
C1300 H1324 0.950 . S
C1301 C1318 1.574 1_655 S
C1301 C1320 1.368 . S
C1301 H1325 0.949 . S
H1302 C1306 0.949 . S
C1303 C1304 1.349 . S
C1303 C1305 1.327 . S
C1303 H1326 0.950 . S
C1304 C1303 1.349 . S
C1304 C1316 1.349 . S
C1305 C1303 1.327 . S
C1305 C1321 1.429 . S
C1305 H1327 0.950 . S
C1306 H1302 0.949 . S
C1306 C1314 1.574 1_455 S
C1306 C1322 1.368 . S
H1307 C1315 0.950 . S
H1308 C1313 0.950 . S
H1309 C1314 0.949 . S
H1310 C1316 0.950 . S
H1311 C1317 0.950 . S
H1312 C1318 0.949 . S
C1313 H1308 0.950 . S
C1313 C1315 1.327 . S
C1313 C1319 1.429 . S
C1314 C1306 1.574 1_655 S
C1314 H1309 0.949 . S
C1314 C1320 1.368 . S
C1315 C1299 1.349 . S
C1315 H1307 0.950 . S
C1315 C1313 1.327 . S
C1316 C1304 1.349 . S
C1316 H1310 0.950 . S
C1316 C1317 1.327 . S
C1317 H1311 0.950 . S
C1317 C1316 1.327 . S
C1317 C1321 1.429 . S
C1318 C1301 1.574 1_455 S
C1318 H1312 0.949 . S
C1318 C1322 1.368 . S
C1319 C1300 1.429 . S
C1319 C1313 1.429 . S
C1319 C1320 1.523 . S
C1320 C1301 1.368 . S
C1320 C1314 1.368 . S
C1320 C1319 1.523 . S
C1321 C1305 1.429 . S
C1321 C1317 1.429 . S
C1321 C1322 1.523 . S
C1322 C1306 1.368 . S
C1322 C1318 1.368 . S
C1322 C1321 1.523 . S
H1323 C1298 0.950 . S
H1324 C1300 0.950 . S
H1325 C1301 0.949 . S
H1326 C1303 0.950 . S
H1327 C1305 0.950 . S
C369 C16 1.716 . S
C374 C260 1.770 . S
C399 N186 1.315 . S
C404 N35 1.326 . S
C429 C214 1.770 . S
C434 C62 1.716 . S
C459 N232 1.315 . S
C464 N81 1.326 . S
C489 C122 1.770 1_545 S
C494 C108 1.716 . S
C519 N127 1.326 . S
C524 N140 1.315 . S
C549 C154 1.716 . S
C554 C168 1.770 1_565 S
C579 N173 1.326 . S
C584 N94 1.315 . S
C609 C200 1.716 . S
C614 C76 1.770 1_565 S
C639 N2 1.315 . S
C644 N219 1.326 . S
C669 C30 1.770 1_545 S
C674 C246 1.716 . S
C699 N48 1.315 . S
C704 N265 1.326 . S
C729 C306 1.770 . S
C734 C292 1.716 . S
C759 N311 1.326 . S
C764 N324 1.315 . S
C789 C352 1.770 . S
C794 C338 1.716 . S
C819 N278 1.315 . S
C824 N357 1.326 . S
C849 N334 1.831 . S
C854 N12 1.831 . S
C879 C361 1.980 . S
C884 C39 1.980 . S
C909 N288 1.831 . S
C914 N58 1.831 . S
C939 C85 1.980 . S
C944 C315 1.980 . S
C969 N104 1.831 . S
C974 N242 1.831 . S
C999 C269 1.980 . S
C1004 C131 1.980 . S
C1029 N150 1.831 . S
C1034 N196 1.831 . S
C1059 C177 1.980 . S
C1064 C223 1.980 . S
C1089 C53 1.745 . S
C1094 C7 1.745 . S
C1119 N71 1.695 . S
C1124 N25 1.695 . S
C1149 C99 1.745 . S
C1154 C145 1.745 . S
C1179 N117 1.695 . S
C1184 N163 1.695 . S
C1209 C237 1.745 . S
C1214 C191 1.745 . S
C1239 N209 1.695 . S
C1244 N255 1.695 . S
C1269 C329 1.745 . S
C1274 C283 1.745 . S
C1299 N301 1.695 . S
C1304 N347 1.695 . S
