# Generated by pormake.
# Topology smm, (6)-cn, num edge types: 1
# Building blocks:
#     Node 0, Type 0, BuildingBlock: BETDAH_clean_sbu_0, # of connection points: 6
#     Node 1, Type 0, BuildingBlock: BETDAH_clean_sbu_0, # of connection points: 6
#     Node 2, Type 0, BuildingBlock: BETDAH_clean_sbu_0, # of connection points: 6
#     Node 3, Type 0, BuildingBlock: BETDAH_clean_sbu_0, # of connection points: 6
#     Node 4, Type 0, BuildingBlock: BETDAH_clean_sbu_0, # of connection points: 6
#     Node 5, Type 0, BuildingBlock: BETDAH_clean_sbu_0, # of connection points: 6
#     Node 6, Type 0, BuildingBlock: BETDAH_clean_sbu_0, # of connection points: 6
#     Node 7, Type 0, BuildingBlock: BETDAH_clean_sbu_0, # of connection points: 6
#     Node 8, Type 0, BuildingBlock: BETDAH_clean_sbu_0, # of connection points: 6
#     Edge 9, Type (0, 0), BuildingBlock: XIVTED_clean_linker_0, # of connection points: 2
#     Edge 10, Type (0, 0), BuildingBlock: XIVTED_clean_linker_0, # of connection points: 2
#     Edge 11, Type (0, 0), BuildingBlock: XIVTED_clean_linker_0, # of connection points: 2
#     Edge 12, Type (0, 0), BuildingBlock: XIVTED_clean_linker_0, # of connection points: 2
#     Edge 13, Type (0, 0), BuildingBlock: XIVTED_clean_linker_0, # of connection points: 2
#     Edge 14, Type (0, 0), BuildingBlock: XIVTED_clean_linker_0, # of connection points: 2
#     Edge 15, Type (0, 0), BuildingBlock: XIVTED_clean_linker_0, # of connection points: 2
#     Edge 16, Type (0, 0), BuildingBlock: XIVTED_clean_linker_0, # of connection points: 2
#     Edge 17, Type (0, 0), BuildingBlock: XIVTED_clean_linker_0, # of connection points: 2
#     Edge 18, Type (0, 0), BuildingBlock: XIVTED_clean_linker_0, # of connection points: 2
#     Edge 19, Type (0, 0), BuildingBlock: XIVTED_clean_linker_0, # of connection points: 2
#     Edge 20, Type (0, 0), BuildingBlock: XIVTED_clean_linker_0, # of connection points: 2
#     Edge 21, Type (0, 0), BuildingBlock: XIVTED_clean_linker_0, # of connection points: 2
#     Edge 22, Type (0, 0), BuildingBlock: XIVTED_clean_linker_0, # of connection points: 2
#     Edge 23, Type (0, 0), BuildingBlock: XIVTED_clean_linker_0, # of connection points: 2
#     Edge 24, Type (0, 0), BuildingBlock: XIVTED_clean_linker_0, # of connection points: 2
#     Edge 25, Type (0, 0), BuildingBlock: XIVTED_clean_linker_0, # of connection points: 2
#     Edge 26, Type (0, 0), BuildingBlock: XIVTED_clean_linker_0, # of connection points: 2
#     Edge 27, Type (0, 0), BuildingBlock: XIVTED_clean_linker_0, # of connection points: 2
#     Edge 28, Type (0, 0), BuildingBlock: XIVTED_clean_linker_0, # of connection points: 2
#     Edge 29, Type (0, 0), BuildingBlock: XIVTED_clean_linker_0, # of connection points: 2
#     Edge 30, Type (0, 0), BuildingBlock: XIVTED_clean_linker_0, # of connection points: 2
#     Edge 31, Type (0, 0), BuildingBlock: XIVTED_clean_linker_0, # of connection points: 2
#     Edge 32, Type (0, 0), BuildingBlock: XIVTED_clean_linker_0, # of connection points: 2
#     Edge 33, Type (0, 0), BuildingBlock: XIVTED_clean_linker_0, # of connection points: 2
#     Edge 34, Type (0, 0), BuildingBlock: XIVTED_clean_linker_0, # of connection points: 2
#     Edge 35, Type (0, 0), BuildingBlock: XIVTED_clean_linker_0, # of connection points: 2
# Relax obj value: 0.047
# Max RMSD: 0.126
# Mean RMSD: 0.126
data_MOF--net-smm--node1-BETDAH_clean_sbu_0--edge1-XIVTED_clean_linker_0
_symmetry_space_group_name_H-M    P1
_symmetry_Int_Tables_number       1
_symmetry_cell_setting            triclinic
loop_
_symmetry_equiv_pos_as_xyz
'x, y, z'
_cell_length_a     70.813309
_cell_length_b     70.826982
_cell_length_c     14.312338
_cell_angle_alpha  90.005723
_cell_angle_beta   89.96613
_cell_angle_gamma 120.02351
loop_
_atom_site_label
_atom_site_type_symbol
_atom_site_fract_x
_atom_site_fract_y
_atom_site_fract_z
_atom_type_partial_charge
Ho0 Ho 0.06283 0.223 0.97126 0.0
Ho1 Ho 1.02166 0.17951 0.02636 0.0
C2 C 1.01703 0.22209 0.01522 0.0
C3 C 0.09047 0.25781 0.88231 0.0
C4 C 0.09671 0.2809 0.86717 0.0
C5 C 0.09669 0.28818 0.77593 0.0
C6 C 0.10484 0.31034 0.75765 0.0
C7 C 0.11339 0.32575 0.83026 0.0
C8 C 0.11272 0.31834 0.92214 0.0
C9 C 0.10446 0.29615 0.94047 0.0
C10 C 0.05701 0.21472 0.15583 0.0
C11 C 0.0685 0.18153 0.00235 0.0
C12 C 0.99248 0.14318 0.1008 0.0
C13 C 0.98417 0.11967 0.08868 0.0
C14 C 0.99753 0.11169 0.05561 0.0
C15 C 0.98893 0.08925 0.04254 0.0
C16 C 0.9668 0.07445 0.06149 0.0
C17 C 0.95358 0.0826 0.09483 0.0
C18 C 0.96219 0.10497 0.10832 0.0
C19 C 1.02855 0.18759 0.84136 0.0
O20 O 0.03606 0.23195 0.9708 0.0
O21 O 1.00973 0.20285 0.05564 0.0
O22 O 0.09432 0.25233 0.96456 0.0
O23 O 0.07192 0.24295 0.8464 0.0
O24 O 0.07612 0.22606 0.11753 0.0
O25 O 0.04238 0.21051 0.09654 0.0
O26 O 0.04882 0.17164 0.0409 0.0
O27 O 0.07625 0.20036 0.95776 0.0
O28 O 0.98839 0.15281 0.03226 0.0
O29 O 1.01227 0.15494 0.13396 0.0
O30 O 1.00933 0.17689 0.87837 0.0
O31 O 0.04269 0.19163 0.90258 0.0
H32 H 0.09097 0.27679 0.71808 0.0
H33 H 0.1053 0.31549 0.68603 0.0
H34 H 0.11889 0.32975 0.97984 0.0
H35 H 0.10467 0.29108 0.01165 0.0
H36 H 1.01452 0.1228 0.03924 0.0
H37 H 0.9995 0.08352 0.01597 0.0
H38 H 0.93657 0.07166 0.11139 0.0
H39 H 0.95163 0.11083 0.1338 0.0
Ho40 Ho 0.85787 0.86454 0.97817 0.0
Ho41 Ho 0.9013 0.86689 0.03287 0.0
C42 C 0.85845 0.8197 0.02672 0.0
C43 C 0.82331 0.85826 0.88989 0.0
C44 C 0.79974 0.8431 0.87799 0.0
C45 C 0.79083 0.82043 0.86984 0.0
C46 C 0.76844 0.80686 0.85315 0.0
C47 C 0.75462 0.81575 0.84482 0.0
C48 C 0.76371 0.83845 0.85365 0.0
C49 C 0.78597 0.85191 0.87003 0.0
C50 C 0.8665 0.86792 0.16271 0.0
C51 C 0.89974 0.91175 0.00391 0.0
C52 C 0.93791 0.87488 0.10662 0.0
C53 C 0.96132 0.89055 0.09221 0.0
C54 C 0.97493 0.89976 0.16998 0.0
C55 C 0.99731 0.91402 0.15818 0.0
C56 C 1.00653 0.91924 0.06819 0.0
C57 C 0.99278 0.9102 -0.00974 0.0
C58 C 0.97038 0.89607 0.0021 0.0
C59 C 0.89281 0.86467 0.84799 0.0
O60 O 0.84841 0.82866 -0.01793 0.0
O61 O 0.87791 0.83182 0.06518 0.0
O62 O 0.82959 0.8686 0.96966 0.0
O63 O 0.83685 0.85232 0.85726 0.0
O64 O 0.85505 0.87542 0.12351 0.0
O65 O 0.87055 0.85718 0.10445 0.0
O66 O 0.90959 0.90207 0.04345 0.0
O67 O 0.88079 0.90048 0.9605 0.0
O68 O 0.928 0.86048 0.0405 0.0
O69 O 0.92607 0.8828 0.13969 0.0
O70 O 0.90355 0.85633 0.88609 0.0
O71 O 0.88899 0.8752 0.90798 0.0
H72 H 0.80116 0.81324 0.87568 0.0
H73 H 0.76193 0.78944 0.84746 0.0
H74 H 0.75369 0.84593 0.84598 0.0
H75 H 0.79254 0.86937 0.87515 0.0
H76 H 0.96828 0.89571 0.24006 0.0
H77 H 1.00747 0.92055 0.21964 0.0
H78 H 0.99934 0.91413 0.92004 0.0
H79 H 0.96019 0.88935 0.9408 0.0
Ho80 Ho 0.21655 1.01807 0.97491 0.0
Ho81 Ho 0.21418 0.05907 0.03062 0.0
C82 C 0.2614 0.06354 0.02301 0.0
C83 C 0.2229 0.98997 0.88547 0.0
C84 C 0.23822 0.98184 0.87193 0.0
C85 C 0.26095 0.99575 0.8687 0.0
C86 C 0.27474 0.98724 0.85083 0.0
C87 C 0.26602 0.9647 0.83639 0.0
C88 C 0.24324 0.95096 0.84006 0.0
C89 C 0.22956 0.95944 0.85767 0.0
C90 C 0.21337 0.02328 0.15979 0.0
C91 C 0.1694 1.01249 0.00321 0.0
C92 C 0.20606 0.08759 0.10472 0.0
C93 C 0.19034 0.09527 0.09062 0.0
C94 C 0.18087 0.0993 0.16855 0.0
C95 C 0.16658 0.10739 0.15712 0.0
C96 C 0.16159 0.11174 0.06736 0.0
C97 C 0.17089 0.10739 -0.01074 0.0
C98 C 0.18504 0.09914 0.0007 0.0
C99 C 0.21611 0.05279 0.84538 0.0
O100 O 0.25239 0.04461 0.97786 0.0
O101 O 0.24932 0.07083 0.06229 0.0
O102 O 0.21285 0.98588 0.96603 0.0
O103 O 0.22855 1.00938 0.85293 0.0
O104 O 0.2058 1.00434 0.12036 0.0
O105 O 0.22405 0.03809 0.10148 0.0
O106 O 0.17913 0.03193 0.04355 0.0
O107 O 0.1806 1.00499 0.95794 0.0
O108 O 0.22049 0.09215 0.0386 0.0
O109 O 0.19819 0.06781 0.1376 0.0
O110 O 0.22452 0.07187 0.88358 0.0
O111 O 0.20568 0.03844 0.90557 0.0
H112 H 0.268 1.01313 0.87942 0.0
H113 H 0.29221 0.99824 0.84917 0.0
H114 H 0.23589 0.93361 0.82757 0.0
H115 H 0.21207 0.94846 0.85896 0.0
H116 H 0.18473 0.09644 0.23849 0.0
H117 H 0.15986 0.11073 0.21875 0.0
H118 H 0.16714 0.11029 0.91917 0.0
H119 H 0.19196 0.09598 0.93925 0.0
Ho120 Ho 0.72968 0.55627 0.30833 0.0
Ho121 Ho 0.68838 0.51288 0.36349 0.0
C122 C 0.68399 0.55561 0.3524 0.0
C123 C 0.75805 0.59067 0.21929 0.0
C124 C 0.76616 0.61414 0.20574 0.0
C125 C 0.75219 0.62287 0.20214 0.0
C126 C 0.76068 0.64519 0.18467 0.0
C127 C 0.78324 0.6591 0.17101 0.0
C128 C 0.79703 0.65014 0.175 0.0
C129 C 0.78858 0.62795 0.19221 0.0
C130 C 0.72382 0.54807 0.49305 0.0
C131 C 0.73504 0.51465 0.34004 0.0
C132 C 0.65953 0.47637 0.4375 0.0
C133 C 0.6516 0.45295 0.42285 0.0
C134 C 0.64679 0.43919 0.50043 0.0
C135 C 0.63847 0.4168 0.48828 0.0
C136 C 0.63467 0.4077 0.39811 0.0
C137 C 0.63978 0.42159 0.32039 0.0
C138 C 0.64826 0.44401 0.3326 0.0
C139 C 0.69531 0.52085 0.17844 0.0
O140 O 0.70309 0.56551 0.30841 0.0
O141 O 0.67659 0.53631 0.39251 0.0
O142 O 0.76193 0.58473 0.3003 0.0
O143 O 0.73873 0.57687 0.18598 0.0
O144 O 0.74292 0.55945 0.45483 0.0
O145 O 0.70922 0.54385 0.43366 0.0
O146 O 0.71548 0.50502 0.37944 0.0
O147 O 0.74272 0.53329 0.29408 0.0
O148 O 0.65515 0.48639 0.37156 0.0
O149 O 0.67934 0.48807 0.47033 0.0
O150 O 0.67609 0.51011 0.21538 0.0
O151 O 0.70944 0.52491 0.23972 0.0
H152 H 0.7348 0.61248 0.21233 0.0
H153 H 0.74963 0.65159 0.18275 0.0
H154 H 0.81441 0.66021 0.16314 0.0
H155 H 0.7996 0.62151 0.19384 0.0
H156 H 0.64924 0.44575 0.57061 0.0
H157 H 0.63454 0.40653 0.54957 0.0
H158 H 0.63732 0.41513 0.25006 0.0
H159 H 0.65204 0.4543 0.27146 0.0
Ho160 Ho 0.52448 0.19791 0.31239 0.0
Ho161 Ho 0.56764 0.19984 0.36783 0.0
C162 C 0.52468 0.15282 0.35945 0.0
C163 C 0.49006 0.1919 0.22373 0.0
C164 C 0.4665 0.17674 0.21133 0.0
C165 C 0.45759 0.15406 0.2041 0.0
C166 C 0.43521 0.14047 0.18711 0.0
C167 C 0.42141 0.14935 0.17756 0.0
C168 C 0.43051 0.17207 0.18542 0.0
C169 C 0.45276 0.18556 0.20211 0.0
C170 C 0.5328 0.2009 0.49722 0.0
C171 C 0.56634 0.24485 0.34097 0.0
C172 C 0.60414 0.20745 0.44175 0.0
C173 C 0.62761 0.2228 0.42708 0.0
C174 C 0.64132 0.23187 0.50471 0.0
C175 C 0.66375 0.24579 0.49269 0.0
C176 C 0.67296 0.2508 0.40263 0.0
C177 C 0.65912 0.24189 0.32484 0.0
C178 C 0.63666 0.22811 0.3369 0.0
C179 C 0.55952 0.19808 0.18261 0.0
O180 O 0.51485 0.16198 0.31486 0.0
O181 O 0.54405 0.16475 0.39892 0.0
O182 O 0.49626 0.20208 0.30389 0.0
O183 O 0.50362 0.18602 0.1909 0.0
O184 O 0.5216 0.20866 0.4579 0.0
O185 O 0.53682 0.19016 0.43885 0.0
O186 O 0.57586 0.23495 0.3813 0.0
O187 O 0.54764 0.23381 0.29549 0.0
O188 O 0.59404 0.19297 0.37612 0.0
O189 O 0.59254 0.21571 0.47422 0.0
O190 O 0.57009 0.18957 0.22072 0.0
O191 O 0.55568 0.20855 0.24285 0.0
H192 H 0.4679 0.14687 0.21094 0.0
H193 H 0.42869 0.12303 0.18219 0.0
H194 H 0.42051 0.17954 0.17682 0.0
H195 H 0.45933 0.20302 0.20653 0.0
H196 H 0.63468 0.22798 0.57485 0.0
H197 H 0.67397 0.25222 0.55406 0.0
H198 H 0.66566 0.24567 0.25456 0.0
H199 H 0.62641 0.22148 0.27571 0.0
Ho200 Ho 0.88313 0.35105 0.31238 0.0
Ho201 Ho 0.88063 0.39213 0.36723 0.0
C202 C 0.92796 0.39697 0.35662 0.0
C203 C 0.89029 0.32346 0.22311 0.0
C204 C 0.90703 0.31709 0.20739 0.0
C205 C 0.91436 0.31727 0.11602 0.0
C206 C 0.92817 0.30893 0.09702 0.0
C207 C 0.93482 0.30004 0.169 0.0
C208 C 0.92806 0.30055 0.26104 0.0
C209 C 0.91432 0.30899 0.2801 0.0
C210 C 0.88056 0.35682 0.49688 0.0
C211 C 0.83592 0.34513 0.3442 0.0
C212 C 0.87269 0.42079 0.44106 0.0
C213 C 0.85722 0.42873 0.42618 0.0
C214 C 0.84837 0.43372 0.50364 0.0
C215 C 0.83441 0.44215 0.49126 0.0
C216 C 0.82912 0.4459 0.401 0.0
C217 C 0.83778 0.4406 0.32342 0.0
C218 C 0.85161 0.432 0.33585 0.0
C219 C 0.88178 0.38523 0.18226 0.0
O220 O 0.91888 0.37787 0.31275 0.0
O221 O 0.91593 0.40424 0.3965 0.0
O222 O 0.88099 0.31958 0.30546 0.0
O223 O 0.89406 0.34206 0.18744 0.0
O224 O 0.87291 0.33773 0.45867 0.0
O225 O 0.89096 0.37147 0.43757 0.0
O226 O 0.84572 0.3648 0.38261 0.0
O227 O 0.847 0.33743 0.29928 0.0
O228 O 0.88722 0.42529 0.37547 0.0
O229 O 0.86454 0.40094 0.47352 0.0
O230 O 0.89013 0.40444 0.21908 0.0
O231 O 0.87178 0.37108 0.24365 0.0
H232 H 0.90882 0.32324 0.05859 0.0
H233 H 0.93288 0.3086 0.02528 0.0
H234 H 0.93314 0.29411 0.31829 0.0
H235 H 0.909 0.30864 0.35136 0.0
H236 H 0.8525 0.43133 0.57388 0.0
H237 H 0.82817 0.44623 0.55246 0.0
H238 H 0.83378 0.44301 0.25302 0.0
H239 H 0.85806 0.4281 0.27482 0.0
Ho240 Ho 0.39644 0.88969 0.64396 0.0
Ho241 Ho 0.35513 0.84622 0.69894 0.0
C242 C 0.35084 0.8891 0.68979 0.0
C243 C 0.42485 0.92386 0.55375 0.0
C244 C 0.43337 0.94733 0.53914 0.0
C245 C 0.45534 0.96031 0.51429 0.0
C246 C 0.46415 0.98253 0.49697 0.0
C247 C 0.45117 0.99235 0.50426 0.0
C248 C 0.42903 0.97927 0.52884 0.0
C249 C 0.42019 0.9569 0.54643 0.0
C250 C 0.39067 0.88136 0.82857 0.0
C251 C 0.40174 0.84798 0.67489 0.0
C252 C 0.3263 0.80967 0.77271 0.0
C253 C 0.31838 0.78626 0.75773 0.0
C254 C 0.31327 0.77239 0.83509 0.0
C255 C 0.30498 0.75001 0.82254 0.0
C256 C 0.3015 0.74104 0.73219 0.0
C257 C 0.30692 0.75505 0.65473 0.0
C258 C 0.31538 0.77746 0.66734 0.0
C259 C 0.36204 0.85434 0.51397 0.0
O260 O 0.36996 0.89911 0.64581 0.0
O261 O 0.34342 0.86968 0.72887 0.0
O262 O 0.42879 0.91796 0.63476 0.0
O263 O 0.40533 0.91029 0.52162 0.0
O264 O 0.40975 0.89288 0.79036 0.0
O265 O 0.37605 0.87714 0.7693 0.0
O266 O 0.38219 0.83831 0.71427 0.0
O267 O 0.40943 0.86668 0.62934 0.0
O268 O 0.3219 0.81972 0.70695 0.0
O269 O 0.34611 0.82135 0.80549 0.0
O270 O 0.34281 0.84355 0.55088 0.0
O271 O 0.37617 0.85837 0.57522 0.0
H272 H 0.46571 0.95318 0.50748 0.0
H273 H 0.48112 0.99197 0.47656 0.0
H274 H 0.41865 0.98636 0.53566 0.0
H275 H 0.40315 0.94712 0.56548 0.0
H276 H 0.31547 0.77885 0.90538 0.0
H277 H 0.3008 0.73965 0.88363 0.0
H278 H 0.30472 0.7487 0.58428 0.0
H279 H 0.3194 0.78785 0.6064 0.0
Ho280 Ho 0.19124 0.53149 0.63726 0.0
Ho281 Ho 0.2344 0.53314 0.6925 0.0
C282 C 0.19132 0.4862 0.68107 0.0
C283 C 0.15717 0.52614 0.54762 0.0
C284 C 0.13366 0.51129 0.53319 0.0
C285 C 0.1208 0.52039 0.5082 0.0
C286 C 0.09855 0.50707 0.49112 0.0
C287 C 0.08858 0.48426 0.49878 0.0
C288 C 0.10154 0.4751 0.52357 0.0
C289 C 0.12394 0.48854 0.54092 0.0
C290 C 0.19933 0.5337 0.82207 0.0
C291 C 0.23314 0.57828 0.66926 0.0
C292 C 0.27077 0.54042 0.76649 0.0
C293 C 0.29426 0.55578 0.75224 0.0
C294 C 0.30792 0.56472 0.83009 0.0
C295 C 0.33036 0.57868 0.8184 0.0
C296 C 0.33961 0.58386 0.72844 0.0
C297 C 0.32582 0.57508 0.65045 0.0
C298 C 0.30336 0.56126 0.66218 0.0
C299 C 0.22652 0.53224 0.5074 0.0
O300 O 0.18163 0.49557 0.63694 0.0
O301 O 0.21063 0.49794 0.72134 0.0
O302 O 0.16314 0.53586 0.62881 0.0
O303 O 0.17062 0.52009 0.51495 0.0
O304 O 0.18808 0.54154 0.78389 0.0
O305 O 0.20345 0.52325 0.76258 0.0
O306 O 0.2426 0.56821 0.7088 0.0
O307 O 0.21453 0.56743 0.62302 0.0
O308 O 0.26069 0.52612 0.70024 0.0
O309 O 0.25919 0.54865 0.79955 0.0
O310 O 0.23708 0.52357 0.54429 0.0
O311 O 0.22258 0.54239 0.56877 0.0
H312 H 0.12804 0.5379 0.50109 0.0
H313 H 0.0892 0.51468 0.47054 0.0
H314 H 0.09434 0.45761 0.53072 0.0
H315 H 0.13362 0.48119 0.56012 0.0
H316 H 0.30124 0.5607 0.90014 0.0
H317 H 0.34053 0.58501 0.87991 0.0
H318 H 0.33239 0.579 0.58026 0.0
H319 H 0.29315 0.55474 0.60083 0.0
Ho320 Ho 0.54981 0.68448 0.64336 0.0
Ho321 Ho 0.54733 0.72538 0.69902 0.0
C322 C 0.59457 0.73009 0.69136 0.0
C323 C 0.55732 0.65714 0.55398 0.0
C324 C 0.57434 0.65116 0.53816 0.0
C325 C 0.58232 0.65224 0.44726 0.0
C326 C 0.59644 0.64428 0.42789 0.0
C327 C 0.60275 0.63488 0.49898 0.0
C328 C 0.59535 0.63449 0.59064 0.0
C329 C 0.5813 0.64255 0.61009 0.0
C330 C 0.54656 0.68965 0.8281 0.0
C331 C 0.50257 0.67855 0.67287 0.0
C332 C 0.53927 0.75395 0.773 0.0
C333 C 0.52385 0.76195 0.75799 0.0
C334 C 0.51463 0.76648 0.83542 0.0
C335 C 0.50068 0.77493 0.8231 0.0
C336 C 0.49577 0.77914 0.73293 0.0
C337 C 0.50481 0.7743 0.65533 0.0
C338 C 0.51863 0.76569 0.66769 0.0
C339 C 0.54916 0.71908 0.51374 0.0
O340 O 0.58558 0.71123 0.6457 0.0
O341 O 0.58244 0.73723 0.73125 0.0
O342 O 0.54806 0.65318 0.63643 0.0
O343 O 0.56075 0.67561 0.51818 0.0
O344 O 0.53888 0.67069 0.78854 0.0
O345 O 0.5573 0.70449 0.76993 0.0
O346 O 0.51231 0.69814 0.712 0.0
O347 O 0.51374 0.67088 0.62841 0.0
O348 O 0.55391 0.75854 0.70788 0.0
O349 O 0.53104 0.73404 0.80489 0.0
O350 O 0.55758 0.73816 0.55191 0.0
O351 O 0.53879 0.70474 0.57403 0.0
H352 H 0.57706 0.65861 0.39036 0.0
H353 H 0.60165 0.64464 0.35643 0.0
H354 H 0.60014 0.62763 0.64723 0.0
H355 H 0.57548 0.64148 0.68096 0.0
H356 H 0.51846 0.76373 0.90564 0.0
H357 H 0.49415 0.77866 0.88433 0.0
H358 H 0.50111 0.77707 0.58497 0.0
H359 H 0.52537 0.76214 0.60665 0.0
H360 H 0.15152 0.35841 0.90282 0.0
H361 H 0.15037 0.45538 0.61872 0.0
H362 H 0.10029 0.34727 0.70902 0.0
H363 H 0.20503 0.4623 0.77992 0.0
H364 H 0.13077 0.41619 0.65424 0.0
H365 H 0.17005 0.3971 0.86441 0.0
C366 C 0.14402 0.36414 0.85284 0.0
C367 C 0.12424 0.34953 0.80946 0.0
C368 C 0.14709 0.42633 0.6814 0.0
C369 C 0.14565 0.394 0.76379 0.0
C370 C 0.15831 0.4487 0.66108 0.0
C371 C 0.17941 0.46224 0.69643 0.0
C372 C 0.157 0.41751 0.73793 0.0
C373 C 0.18882 0.45263 0.75106 0.0
C374 C 0.15474 0.38625 0.83022 0.0
C375 C 0.11559 0.35791 0.7437 0.0
N376 N 0.17754 0.43096 0.7703 0.0
N377 N 0.12632 0.3796 0.72299 0.0
H378 H 0.72096 0.81895 0.92179 0.0
H379 H 0.62603 0.72078 0.62981 0.0
H380 H 0.73394 0.78055 0.72556 0.0
H381 H 0.6176 0.76716 0.79439 0.0
H382 H 0.66507 0.74063 0.66852 0.0
H383 H 0.68241 0.79795 0.88255 0.0
C384 C 0.71572 0.80611 0.87016 0.0
C385 C 0.73083 0.80172 0.82618 0.0
C386 C 0.65462 0.74643 0.6958 0.0
C387 C 0.68638 0.77731 0.78114 0.0
C388 C 0.63235 0.73514 0.67361 0.0
C389 C 0.61843 0.74227 0.70885 0.0
C390 C 0.66297 0.76487 0.75405 0.0
C391 C 0.62758 0.76098 0.76544 0.0
C392 C 0.69363 0.79405 0.84789 0.0
C393 C 0.72289 0.78446 0.76154 0.0
N394 N 0.64916 0.77152 0.78637 0.0
N395 N 0.70121 0.77294 0.74061 0.0
H396 H 0.30267 0.98098 0.72443 0.0
H397 H 0.31236 0.87379 0.78309 0.0
H398 H 0.26191 0.92675 0.90454 0.0
H399 H 0.36109 0.93077 0.63645 0.0
H400 H 0.29296 0.89295 0.81969 0.0
H401 H 0.32405 0.96334 0.68652 0.0
C402 C 0.29833 0.96549 0.75667 0.0
C403 C 0.28028 0.95524 0.81711 0.0
C404 C 0.30789 0.90136 0.77949 0.0
C405 C 0.30447 0.93489 0.77299 0.0
C406 C 0.31901 0.89035 0.7581 0.0
C407 C 0.33851 0.90065 0.70667 0.0
C408 C 0.31613 0.92292 0.74919 0.0
C409 C 0.34614 0.92217 0.67631 0.0
C410 C 0.31046 0.95539 0.73451 0.0
C411 C 0.27534 0.93509 0.85609 0.0
N412 N 0.33493 0.93262 0.69808 0.0
N413 N 0.28726 0.92559 0.83306 0.0
H414 H 0.38773 0.15274 0.25294 0.0
H415 H 0.29283 0.05398 0.96325 0.0
H416 H 0.40077 0.11388 0.05961 0.0
H417 H 0.28448 0.10082 0.12466 0.0
H418 H 0.33186 0.07386 0.00226 0.0
H419 H 0.3492 0.13168 0.21346 0.0
C420 C 0.3825 0.13979 0.20188 0.0
C421 C 0.39763 0.13529 0.15878 0.0
C422 C 0.32143 0.07975 0.02877 0.0
C423 C 0.3532 0.1108 0.11347 0.0
C424 C 0.29916 0.06845 0.00641 0.0
C425 C 0.28527 0.0757 0.04067 0.0
C426 C 0.32979 0.09832 0.08621 0.0
C427 C 0.29443 0.09454 0.09647 0.0
C428 C 0.36043 0.12769 0.17948 0.0
C429 C 0.3897 0.11788 0.09489 0.0
N430 N 0.316 0.10508 0.11758 0.0
N431 N 0.36804 0.10633 0.0738 0.0
H432 H 0.92895 0.26159 0.23958 0.0
H433 H 1.02686 0.2629 0.95279 0.0
H434 H 0.96946 0.31318 0.04775 0.0
H435 H 0.97944 0.20818 0.11491 0.0
H436 H 1.00725 0.28238 -0.01077 0.0
H437 H 0.94889 0.2429 0.19973 0.0
C438 C 0.94221 0.26912 0.18972 0.0
C439 C 0.94757 0.28906 0.14733 0.0
C440 C 1.00113 0.26608 0.0164 0.0
C441 C 0.97038 0.26749 0.10004 0.0
C442 C 1.0123 0.25492 -0.00448 0.0
C443 C 1.00485 0.23384 0.03089 0.0
C444 C 0.98247 0.25613 0.07348 0.0
C445 C 0.98588 0.22437 0.08602 0.0
C446 C 0.95348 0.25833 0.16629 0.0
C447 C 0.96465 0.29777 0.08168 0.0
N448 N 0.97546 0.2356 0.10582 0.0
N449 N 0.97548 0.28696 0.06019 0.0
H450 H 0.87353 0.79681 0.12369 0.0
H451 H 0.76706 0.67948 0.05882 0.0
H452 H 0.81707 0.78804 0.97132 0.0
H453 H 0.821 0.69298 0.24057 0.0
H454 H 0.78458 0.71855 0.02211 0.0
H455 H 0.85446 0.7582 0.16002 0.0
C456 C 0.8571 0.78677 0.09742 0.0
C457 C 0.84692 0.79583 0.04434 0.0
C458 C 0.7925 0.71291 0.07019 0.0
C459 C 0.82477 0.75114 0.08649 0.0
C460 C 0.78246 0.69064 0.09167 0.0
C461 C 0.79266 0.68284 0.15225 0.0
C462 C 0.81289 0.72747 0.10954 0.0
C463 C 0.81271 0.69808 0.19201 0.0
C464 C 0.84615 0.76462 0.11863 0.0
C465 C 0.82557 0.7818 0.01246 0.0
N466 N 0.82214 0.71954 0.16967 0.0
N467 N 0.81518 0.76013 0.03403 0.0
H468 H 0.05591 0.49168 0.55427 0.0
H469 H 0.959 0.38611 0.30578 0.0
H470 H 0.06678 0.44522 0.40325 0.0
H471 H 0.95161 0.43629 0.44352 0.0
H472 H 0.99819 0.40658 0.3413 0.0
H473 H 1.01729 0.47044 0.51686 0.0
C474 C 0.05019 0.47701 0.51289 0.0
C475 C 0.06473 0.47039 0.4811 0.0
C476 C 0.98794 0.41308 0.36342 0.0
C477 C 1.02017 0.44569 0.43831 0.0
C478 C 0.96558 0.40144 0.34293 0.0
C479 C 0.95191 0.40943 0.37179 0.0
C480 C 0.99664 0.43281 0.41318 0.0
C481 C 0.96139 0.42938 0.41994 0.0
C482 C 1.02805 0.46481 0.49173 0.0
C483 C 0.05617 0.45091 0.42959 0.0
N484 N 0.98306 0.44028 0.43917 0.0
N485 N 0.03446 0.43928 0.40941 0.0
H486 H 0.63826 0.64927 0.3817 0.0
H487 H 0.64548 0.54076 0.44555 0.0
H488 H 0.59655 0.59586 0.56355 0.0
H489 H 0.69435 0.59702 0.29557 0.0
H490 H 0.62628 0.56032 0.47974 0.0
H491 H 0.65809 0.6302 0.34136 0.0
C492 C 0.63328 0.63356 0.4132 0.0
C493 C 0.61575 0.62421 0.4765 0.0
C494 C 0.64118 0.56845 0.43926 0.0
C495 C 0.6383 0.60229 0.43037 0.0
C496 C 0.65219 0.55723 0.41931 0.0
C497 C 0.67168 0.56724 0.36775 0.0
C498 C 0.64958 0.58992 0.40739 0.0
C499 C 0.67941 0.58864 0.33564 0.0
C500 C 0.64465 0.62273 0.39035 0.0
C501 C 0.61014 0.60389 0.51563 0.0
N502 N 0.66835 0.59929 0.35611 0.0
N503 N 0.6213 0.59363 0.49169 0.0
H504 H 0.48265 0.12185 0.30924 0.0
H505 H 0.49105 0.02513 0.5608 0.0
H506 H 0.5401 0.12915 0.44767 0.0
H507 H 0.43389 1.01397 0.40772 0.0
H508 H 0.50836 0.06372 0.52318 0.0
H509 H 0.46377 0.08269 0.34571 0.0
C510 C 0.49133 0.11526 0.34679 0.0
C511 C 0.51302 0.1289 0.37552 0.0
C512 C 0.49202 0.05291 0.49764 0.0
C513 C 0.49149 0.08421 0.41796 0.0
C514 C 0.48213 0.03079 0.51893 0.0
C515 C 0.46105 1.01618 0.48657 0.0
C516 C 0.48083 0.06071 0.44348 0.0
C517 C 0.45013 0.02465 0.43445 0.0
C518 C 0.48053 0.09292 0.36779 0.0
C519 C 0.5234 0.11941 0.42417 0.0
N520 N 0.46018 0.04636 0.4141 0.0
N521 N 0.51256 0.09777 0.44387 0.0
H522 H 0.12326 0.10051 0.15856 0.0
H523 H 0.10814 0.1944 0.9197 0.0
H524 H 0.16699 0.14463 0.94948 0.0
H525 H 0.0597 0.1444 0.09787 0.0
H526 H 0.13038 0.17702 0.93286 0.0
H527 H 0.10029 0.11705 0.14087 0.0
C528 C 0.12806 0.11371 0.10905 0.0
C529 C 0.14711 0.1212 0.05548 0.0
C530 C 0.11485 0.16981 0.96884 0.0
C531 C 0.12084 0.1402 0.03467 0.0
C532 C 0.10213 0.17976 0.96148 0.0
C533 C 0.08199 0.1709 0.00781 0.0
C534 C 0.10748 0.15092 0.02344 0.0
C535 C 0.07509 0.15185 0.06083 0.0
C536 C 0.11487 0.12307 0.09862 0.0
C537 C 0.15235 0.13817 -0.00847 0.0
N538 N 0.08784 0.14256 0.06744 0.0
N539 N 0.13936 0.14715 -0.01676 0.0
H540 H 0.93986 0.94074 0.07647 0.0
H541 H 0.92728 0.04546 -0.0156 0.0
H542 H 0.88421 0.93792 0.93927 0.0
H543 H 0.98485 0.04902 0.10454 0.0
H544 H 0.91141 1.0061 0.96631 0.0
H545 H 0.95676 0.98036 0.08586 0.0
C546 C 0.93119 0.94842 0.04803 0.0
C547 C 0.91051 0.93589 0.00714 0.0
C548 C 0.92754 1.01547 -0.00361 0.0
C549 C 0.92984 0.98139 0.01802 0.0
C550 C 0.93657 0.03796 0.00723 0.0
C551 C 0.9574 0.05059 0.0466 0.0
C552 C 0.93933 1.00542 0.02546 0.0
C553 C 0.96882 0.03998 0.07325 0.0
C554 C 0.94089 0.97109 0.0534 0.0
C555 C 0.90014 0.94685 0.97142 0.0
N556 N 0.9596 1.01802 0.06266 0.0
N557 N 0.90988 0.96893 0.97801 0.0
H558 H 0.0337 0.95733 0.1604 0.0
H559 H 0.14268 0.97323 0.91748 0.0
H560 H 0.0339 0.91414 0.94829 0.0
H561 H 0.14103 1.0209 0.10027 0.0
H562 H 0.103 0.95094 0.93024 0.0
H563 H 0.07318 0.98033 0.14224 0.0
C564 C 0.04206 0.95266 0.11012 0.0
C565 C 1.03045 0.93375 0.05589 0.0
C566 C 0.11132 0.96631 0.96728 0.0
C567 C 0.07572 0.96007 0.03448 0.0
C568 C 0.13401 0.97906 0.96012 0.0
C569 C 0.14528 0.99901 0.00791 0.0
C570 C 0.09978 0.97346 0.02311 0.0
C571 C 0.13309 1.00568 0.06205 0.0
C572 C 0.0646 0.96586 0.09941 0.0
C573 C 0.04213 0.92867 -0.00909 0.0
N574 N 0.11106 0.99291 0.06842 0.0
N575 N 0.06411 0.94168 -0.01765 0.0
H576 H 0.72618 0.47801 0.43914 0.0
H577 H 0.83455 0.478 0.27824 0.0
H578 H 0.77438 0.52668 0.25565 0.0
H579 H 0.79143 0.43613 0.49435 0.0
H580 H 0.81141 0.49434 0.26017 0.0
H581 H 0.74861 0.4609 0.45156 0.0
C582 C 0.74145 0.4851 0.40116 0.0
C583 C 0.74838 0.50388 0.34629 0.0
C584 C 0.807 0.48156 0.31149 0.0
C585 C 0.77422 0.48425 0.36037 0.0
C586 C 0.82013 0.47213 0.32144 0.0
C587 C 0.81494 0.45566 0.38798 0.0
C588 C 0.78842 0.4744 0.36802 0.0
C589 C 0.7962 0.44893 0.4429 0.0
C590 C 0.75429 0.47531 0.40853 0.0
C591 C 0.76837 0.51227 0.29892 0.0
N592 N 0.78362 0.45829 0.43158 0.0
N593 N 0.78057 0.5024 0.30699 0.0
H594 H 0.60248 0.38078 0.27627 0.0
H595 H 0.60321 0.27286 0.43817 0.0
H596 H 0.64485 0.38006 0.49105 0.0
H597 H 0.55422 0.27196 0.25571 0.0
H598 H 0.62031 0.31245 0.44934 0.0
H599 H 0.58636 0.34132 0.25863 0.0
C600 C 0.60851 0.37235 0.31925 0.0
C601 C 0.62505 0.38377 0.38532 0.0
C602 C 0.60584 0.30361 0.40678 0.0
C603 C 0.60655 0.33852 0.36586 0.0
C604 C 0.59606 0.28096 0.40013 0.0
C605 C 0.57718 0.26898 0.34598 0.0
C606 C 0.59678 0.31447 0.35864 0.0
C607 C 0.56871 0.28047 0.29845 0.0
C608 C 0.5992 0.34979 0.30955 0.0
C609 C 0.63198 0.37191 0.43999 0.0
N610 N 0.57856 0.30255 0.30587 0.0
N611 N 0.62274 0.34997 0.42893 0.0
H612 H 0.69989 0.24508 0.28239 0.0
H613 H 0.80792 0.35404 0.44129 0.0
H614 H 0.70069 0.28876 0.4945 0.0
H615 H 0.80882 0.30552 0.26152 0.0
H616 H 0.76835 0.33151 0.45315 0.0
H617 H 0.73941 0.26824 0.26509 0.0
C618 C 0.70835 0.25963 0.32487 0.0
C619 C 0.69693 0.26497 0.39007 0.0
C620 C 0.77719 0.32578 0.41108 0.0
C621 C 0.74224 0.29151 0.371 0.0
C622 C 0.79983 0.33867 0.40404 0.0
C623 C 0.81181 0.33168 0.35036 0.0
C624 C 0.76631 0.30574 0.36377 0.0
C625 C 0.80032 0.31157 0.30388 0.0
C626 C 0.73094 0.27277 0.31537 0.0
C627 C 0.70883 0.28387 0.44412 0.0
N628 N 0.77823 0.29933 0.3116 0.0
N629 N 0.73079 0.29645 0.43326 0.0
H630 H 0.50161 0.81184 0.61285 0.0
H631 H 0.39268 0.81099 0.77162 0.0
H632 H 0.45767 0.76877 0.82402 0.0
H633 H 0.44125 0.86031 0.59147 0.0
H634 H 0.41508 0.79384 0.7831 0.0
H635 H 0.47847 0.82819 0.59531 0.0
C636 C 0.48701 0.8057 0.65505 0.0
C637 C 0.48159 0.7889 0.72009 0.0
C638 C 0.42085 0.8084 0.741 0.0
C639 C 0.45507 0.80766 0.70076 0.0
C640 C 0.40803 0.81822 0.73419 0.0
C641 C 0.41507 0.83719 0.68054 0.0
C642 C 0.44088 0.81752 0.69355 0.0
C643 C 0.43515 0.84575 0.6338 0.0
C644 C 0.47388 0.81515 0.64542 0.0
C645 C 0.46261 0.78183 0.77379 0.0
N646 N 0.44733 0.83585 0.64135 0.0
N647 N 0.45005 0.79121 0.76283 0.0
H648 H 0.26967 0.60599 0.76936 0.0
H649 H 0.26976 0.71438 0.60825 0.0
H650 H 0.22137 0.60566 0.58425 0.0
H651 H 0.31123 0.71318 0.82611 0.0
H652 H 0.25363 0.67494 0.5896 0.0
H653 H 0.28678 0.64557 0.78229 0.0
C654 C 0.26267 0.61421 0.73112 0.0
C655 C 0.24399 0.6024 0.67568 0.0
C656 C 0.26628 0.6833 0.64143 0.0
C657 C 0.26359 0.64786 0.69032 0.0
C658 C 0.27559 0.70585 0.65171 0.0
C659 C 0.29188 0.71713 0.7189 0.0
C660 C 0.27337 0.6719 0.69829 0.0
C661 C 0.29856 0.70514 0.77415 0.0
C662 C 0.27245 0.63685 0.73878 0.0
C663 C 0.2357 0.61403 0.62797 0.0
N664 N 0.28932 0.68321 0.76251 0.0
N665 N 0.24556 0.63609 0.63635 0.0
H666 H 0.47441 0.68734 0.76927 0.0
H667 H 0.36665 0.57842 0.60784 0.0
H668 H 0.47561 0.63905 0.58902 0.0
H669 H 0.36721 0.62171 0.82134 0.0
H670 H 0.40617 0.6017 0.59097 0.0
H671 H 0.43484 0.66475 0.7803 0.0
C672 C 0.46639 0.67201 0.73171 0.0
C673 C 0.47845 0.6651 0.67817 0.0
C674 C 0.39765 0.60612 0.64146 0.0
C675 C 0.43295 0.63908 0.69066 0.0
C676 C 0.37506 0.59291 0.65072 0.0
C677 C 0.36358 0.5981 0.71619 0.0
C678 C 0.40888 0.62478 0.69758 0.0
C679 C 0.37541 0.61693 0.77074 0.0
C680 C 0.44374 0.65908 0.73828 0.0
C681 C 0.46704 0.64504 0.63127 0.0
N682 N 0.39737 0.62959 0.76009 0.0
N683 N 0.44494 0.63276 0.63856 0.0
H684 H 0.06811 0.20575 0.75442 0.0
H685 H 1.01763 0.19395 0.24307 0.0
H686 H 0.99941 0.17865 0.70035 0.0
H687 H 0.08676 0.22508 0.29643 0.0
H688 H 1.01067 0.18718 0.41014 0.0
H689 H 0.07536 0.21224 0.58694 0.0
C690 C 0.05457 0.20124 0.70715 0.0
C691 C 0.03314 0.19174 0.74089 0.0
C692 C 1.02737 0.1955 0.38554 0.0
C693 C 0.04126 0.19891 0.54954 0.0
C694 C 1.03135 0.19934 0.29015 0.0
C695 C 0.05281 0.21015 0.25628 0.0
C696 C 0.04498 0.2025 0.44757 0.0
C697 C 0.06998 0.21673 0.32004 0.0
C698 C 0.05871 0.2049 0.61163 0.0
C699 C 1.01617 0.18604 0.67694 0.0
N700 N 0.0657 0.21282 0.41286 0.0
N701 N 1.02059 0.1897 0.58421 0.0
H702 H 0.90239 0.8445 0.70897 0.0
H703 H 0.85575 0.88744 0.30122 0.0
H704 H 0.87439 0.88547 0.75837 0.0
H705 H 0.8869 0.84929 0.25284 0.0
H706 H 0.86211 0.88679 0.46922 0.0
H707 H 0.89632 0.84567 0.54134 0.0
C708 C 0.89492 0.8537 0.68435 0.0
C709 C 0.88885 0.86488 0.74719 0.0
C710 C 0.86758 0.87859 0.42182 0.0
C711 C 0.88188 0.86635 0.55597 0.0
C712 C 0.86397 0.87898 0.3261 0.0
C713 C 0.87076 0.86835 0.26352 0.0
C714 C 0.87804 0.86746 0.45482 0.0
C715 C 0.88136 0.85765 0.29896 0.0
C716 C 0.89148 0.8544 0.58877 0.0
C717 C 0.87925 0.87658 0.71199 0.0
N718 N 0.88463 0.85743 0.39229 0.0
N719 N 0.87605 0.87701 0.61861 0.0
H720 H 0.23637 0.08253 0.70637 0.0
H721 H 0.19374 0.99297 0.29825 0.0
H722 H 0.19521 1.01356 0.75553 0.0
H723 H 0.23199 0.0623 0.25019 0.0
H724 H 0.19422 0.99996 0.46626 0.0
H725 H 0.23533 0.0753 0.53875 0.0
C726 C 0.22714 0.06586 0.68171 0.0
C727 C 0.21589 0.04861 0.74451 0.0
C728 C 0.20248 1.01364 0.41893 0.0
C729 C 0.21457 0.04017 0.55322 0.0
C730 C 0.20219 1.00965 0.32319 0.0
C731 C 0.21289 0.02708 0.26067 0.0
C732 C 0.21358 0.03523 0.45203 0.0
C733 C 0.22358 0.04839 0.29623 0.0
C734 C 0.22652 0.06173 0.58611 0.0
C735 C 0.20417 0.02731 0.70921 0.0
N736 N 0.22369 0.05186 0.38957 0.0
N737 N 0.20382 0.02368 0.61582 0.0
H738 H 0.68442 0.52699 0.58003 0.0
H739 H 0.73492 0.5395 0.09182 0.0
H740 H 0.75356 0.55864 0.63379 0.0
H741 H 0.66613 0.51144 0.0372 0.0
H742 H 0.74218 0.54596 0.92432 0.0
H743 H 0.67744 0.52017 0.74708 0.0
C744 C 0.69814 0.53248 0.62719 0.0
C745 C 0.7196 0.54346 0.59346 0.0
C746 C 0.7255 0.53841 0.94889 0.0
C747 C 0.71176 0.53575 0.78469 0.0
C748 C 0.72136 0.53476 0.04441 0.0
C749 C 0.6999 0.52499 0.07799 0.0
C750 C 0.70803 0.53216 0.88665 0.0
C751 C 0.68291 0.51903 0.0139 0.0
C752 C 0.69415 0.52861 0.72256 0.0
C753 C 0.73677 0.55016 0.6573 0.0
N754 N 0.68734 0.5227 0.92118 0.0
N755 N 0.73248 0.54622 0.75009 0.0
H756 H 0.52236 0.22072 0.63557 0.0
H757 H 0.56887 0.17773 0.0437 0.0
H758 H 0.55299 0.18207 0.5876 0.0
H759 H 0.54134 0.21912 0.09277 0.0
H760 H 0.56271 0.17879 0.87611 0.0
H761 H 0.52887 0.22023 0.80353 0.0
C762 C 0.53049 0.21217 0.66053 0.0
C763 C 0.53709 0.20136 0.59806 0.0
C764 C 0.558 0.18764 0.92344 0.0
C765 C 0.54454 0.20066 0.78936 0.0
C766 C 0.5615 0.18701 0.01902 0.0
C767 C 0.55557 0.19833 0.08178 0.0
C768 C 0.54848 0.19966 0.89053 0.0
C769 C 0.54608 0.21012 0.04646 0.0
C770 C 0.53419 0.21188 0.75623 0.0
C771 C 0.54759 0.19056 0.63362 0.0
N772 N 0.54281 0.21048 0.95309 0.0
N773 N 0.55095 0.19045 0.72694 0.0
H774 H 0.8987 0.39619 0.58378 0.0
H775 H 0.86061 0.34565 0.09562 0.0
H776 H 0.86142 0.32705 0.63767 0.0
H777 H 0.90166 0.4144 0.04097 0.0
H778 H 0.85981 0.3384 0.92812 0.0
H779 H 0.89881 0.40314 0.7508 0.0
C780 C 0.8905 0.38246 0.63097 0.0
C781 C 0.8801 0.36101 0.59727 0.0
C782 C 0.86901 0.35507 0.95269 0.0
C783 C 0.88017 0.36881 0.78849 0.0
C784 C 0.86951 0.3592 0.04821 0.0
C785 C 0.8813 0.38064 0.0818 0.0
C786 C 0.88031 0.37253 0.89045 0.0
C787 C 0.8924 0.39763 0.01768 0.0
C788 C 0.89059 0.38643 0.72633 0.0
C789 C 0.86967 0.34383 0.66115 0.0
N790 N 0.89162 0.39321 0.92497 0.0
N791 N 0.86999 0.3481 0.75394 0.0
H792 H 0.40167 0.87302 0.42755 0.0
H793 H 0.35127 0.86014 0.91539 0.0
H794 H 0.33288 0.84489 0.37254 0.0
H795 H 0.42041 0.89208 0.96948 0.0
H796 H 0.34426 0.85338 0.08243 0.0
H797 H 0.40897 0.87942 0.26006 0.0
C798 C 0.38811 0.86825 0.38006 0.0
C799 C 0.36665 0.85848 0.41353 0.0
C800 C 0.36098 0.86187 0.058 0.0
C801 C 0.37483 0.86557 0.22219 0.0
C802 C 0.36498 0.86571 0.96263 0.0
C803 C 0.38645 0.87675 0.92898 0.0
C804 C 0.37858 0.86911 0.12023 0.0
C805 C 0.40362 0.88356 -0.00708 0.0
C806 C 0.39228 0.87187 0.28454 0.0
C807 C 0.34967 0.85249 0.34933 0.0
N808 N 0.39932 0.87965 0.08573 0.0
N809 N 0.35412 0.85612 0.25661 0.0
H810 H 0.22009 0.51506 0.90892 0.0
H811 H 0.20818 0.55348 0.42092 0.0
H812 H 0.18901 0.55306 0.96297 0.0
H813 H 0.23564 0.51225 0.366 0.0
H814 H 0.20172 0.55431 0.25347 0.0
H815 H 0.2269 0.51485 0.07593 0.0
C816 C 0.21472 0.52339 0.95614 0.0
C817 C 0.20391 0.53403 0.92248 0.0
C818 C 0.20914 0.54506 0.27796 0.0
C819 C 0.21161 0.53386 0.1137 0.0
C820 C 0.21279 0.54456 0.37346 0.0
C821 C 0.22239 0.53272 0.40696 0.0
C822 C 0.21521 0.53371 0.21565 0.0
C823 C 0.22818 0.52155 0.34278 0.0
C824 C 0.21859 0.52325 0.05149 0.0
C825 C 0.19736 0.54462 -0.01359 0.0
N826 N 0.22451 0.52233 0.25009 0.0
N827 N 0.20129 0.54425 0.07918 0.0
H828 H 0.56975 0.74878 0.37492 0.0
H829 H 0.52673 0.65932 0.96638 0.0
H830 H 0.52778 0.6799 0.42358 0.0
H831 H 0.56522 0.72864 0.91868 0.0
H832 H 0.52712 0.66629 0.13439 0.0
H833 H 0.56871 0.74156 0.2073 0.0
C834 C 0.56034 0.73213 0.35015 0.0
C835 C 0.54888 0.7149 0.41283 0.0
C836 C 0.53545 0.67997 0.08712 0.0
C837 C 0.54757 0.70647 0.22152 0.0
C838 C 0.53521 0.67599 -0.00861 0.0
C839 C 0.54601 0.69343 0.92897 0.0
C840 C 0.5466 0.70155 0.12033 0.0
C841 C 0.55674 0.71472 0.96463 0.0
C842 C 0.55972 0.72801 0.25455 0.0
C843 C 0.53693 0.69363 0.37737 0.0
N844 N 0.5568 0.71818 0.05795 0.0
N845 N 0.53659 0.69001 0.28399 0.0
loop_
_geom_bond_atom_site_label_1
_geom_bond_atom_site_label_2
_geom_bond_distance
_geom_bond_site_symmetry_2
_ccdc_geom_bond_type
Ho0 C3 2.811 1_554 S
Ho0 O20 2.322 . S
Ho0 O22 2.378 . S
Ho0 O23 2.524 1_554 S
Ho0 O24 2.381 . S
Ho0 O25 2.669 . S
Ho0 O27 2.346 . S
Ho0 O31 2.305 1_554 S
Ho1 C12 2.811 1_556 S
Ho1 O21 2.346 1_556 S
Ho1 O25 2.305 1_656 S
Ho1 O26 2.322 1_655 S
Ho1 O28 2.378 . S
Ho1 O29 2.524 1_556 S
Ho1 O30 2.381 . S
Ho1 O31 2.669 1_655 S
C2 O20 1.259 1_655 S
C2 O21 1.268 . S
C3 Ho0 2.811 1_556 S
C3 C4 1.488 . S
C3 O22 1.215 1_556 S
C3 O23 1.289 . S
C4 C3 1.488 . S
C4 C5 1.348 . S
C4 C9 1.413 1_556 S
C5 C4 1.348 . S
C5 C6 1.442 . S
C5 H32 0.930 . S
C6 C5 1.442 . S
C6 C7 1.381 . S
C6 H33 0.931 . S
C7 C6 1.381 . S
C7 C8 1.321 1_556 S
C8 C7 1.321 1_554 S
C8 C9 1.403 . S
C8 H34 0.934 . S
C9 C4 1.413 1_554 S
C9 C8 1.403 . S
C9 H35 0.930 . S
C10 O24 1.275 . S
C10 O25 1.256 . S
C11 O26 1.259 . S
C11 O27 1.268 1_556 S
C12 Ho1 2.811 1_554 S
C12 C13 1.488 . S
C12 O28 1.215 1_554 S
C12 O29 1.289 . S
C13 C12 1.488 . S
C13 C14 1.348 . S
C13 C18 1.413 1_554 S
C14 C13 1.348 . S
C14 C15 1.442 . S
C14 H36 0.930 . S
C15 C14 1.442 . S
C15 C16 1.381 . S
C15 H37 0.931 . S
C16 C15 1.381 . S
C16 C17 1.321 1_554 S
C17 C16 1.321 1_556 S
C17 C18 1.403 . S
C17 H38 0.934 . S
C18 C13 1.413 1_556 S
C18 C17 1.403 . S
C18 H39 0.930 . S
C19 O30 1.275 1_455 S
C19 O31 1.256 . S
O20 Ho0 2.322 . S
O20 C2 1.259 1_455 S
O21 Ho1 2.346 1_554 S
O21 C2 1.268 . S
O22 Ho0 2.378 . S
O22 C3 1.215 1_554 S
O23 Ho0 2.524 1_556 S
O23 C3 1.289 . S
O24 Ho0 2.381 . S
O24 C10 1.275 . S
O25 Ho0 2.669 . S
O25 Ho1 2.305 1_454 S
O25 C10 1.256 . S
O26 Ho1 2.322 1_455 S
O26 C11 1.259 . S
O27 Ho0 2.346 . S
O27 C11 1.268 1_554 S
O28 Ho1 2.378 . S
O28 C12 1.215 1_556 S
O29 Ho1 2.524 1_554 S
O29 C12 1.289 . S
O30 Ho1 2.381 . S
O30 C19 1.275 1_655 S
O31 Ho0 2.305 1_556 S
O31 Ho1 2.669 1_455 S
O31 C19 1.256 . S
H32 C5 0.930 . S
H33 C6 0.931 . S
H34 C8 0.934 . S
H35 C9 0.930 . S
H36 C14 0.930 . S
H37 C15 0.931 . S
H38 C17 0.934 . S
H39 C18 0.930 . S
Ho40 C43 2.811 1_554 S
Ho40 O60 2.322 . S
Ho40 O62 2.378 . S
Ho40 O63 2.524 1_554 S
Ho40 O64 2.381 . S
Ho40 O65 2.669 . S
Ho40 O67 2.346 . S
Ho40 O71 2.305 1_554 S
Ho41 C52 2.811 1_556 S
Ho41 O61 2.346 1_556 S
Ho41 O65 2.305 1_556 S
Ho41 O66 2.322 . S
Ho41 O68 2.378 . S
Ho41 O69 2.524 1_556 S
Ho41 O70 2.381 . S
Ho41 O71 2.669 . S
C42 O60 1.259 . S
C42 O61 1.268 . S
C43 Ho40 2.811 1_556 S
C43 C44 1.488 . S
C43 O62 1.215 1_556 S
C43 O63 1.289 . S
C44 C43 1.488 . S
C44 C45 1.348 . S
C44 C49 1.413 1_556 S
C45 C44 1.348 . S
C45 C46 1.442 . S
C45 H72 0.930 . S
C46 C45 1.442 . S
C46 C47 1.381 . S
C46 H73 0.931 . S
C47 C46 1.381 . S
C47 C48 1.321 1_556 S
C48 C47 1.321 1_554 S
C48 C49 1.403 . S
C48 H74 0.934 . S
C49 C44 1.413 1_554 S
C49 C48 1.403 . S
C49 H75 0.930 . S
C50 O64 1.275 . S
C50 O65 1.256 . S
C51 O66 1.259 . S
C51 O67 1.268 1_556 S
C52 Ho41 2.811 1_554 S
C52 C53 1.488 . S
C52 O68 1.215 1_554 S
C52 O69 1.289 . S
C53 C52 1.488 . S
C53 C54 1.348 . S
C53 C58 1.413 1_554 S
C54 C53 1.348 . S
C54 C55 1.442 . S
C54 H76 0.930 . S
C55 C54 1.442 . S
C55 C56 1.381 . S
C55 H77 0.931 . S
C56 C55 1.381 . S
C56 C57 1.321 1_554 S
C57 C56 1.321 1_556 S
C57 C58 1.403 . S
C57 H78 0.934 . S
C58 C53 1.413 1_556 S
C58 C57 1.403 . S
C58 H79 0.930 . S
C59 O70 1.275 . S
C59 O71 1.256 . S
O60 Ho40 2.322 . S
O60 C42 1.259 . S
O61 Ho41 2.346 1_554 S
O61 C42 1.268 . S
O62 Ho40 2.378 . S
O62 C43 1.215 1_554 S
O63 Ho40 2.524 1_556 S
O63 C43 1.289 . S
O64 Ho40 2.381 . S
O64 C50 1.275 . S
O65 Ho40 2.669 . S
O65 Ho41 2.305 1_554 S
O65 C50 1.256 . S
O66 Ho41 2.322 . S
O66 C51 1.259 . S
O67 Ho40 2.346 . S
O67 C51 1.268 1_554 S
O68 Ho41 2.378 . S
O68 C52 1.215 1_556 S
O69 Ho41 2.524 1_554 S
O69 C52 1.289 . S
O70 Ho41 2.381 . S
O70 C59 1.275 . S
O71 Ho40 2.305 1_556 S
O71 Ho41 2.669 . S
O71 C59 1.256 . S
H72 C45 0.930 . S
H73 C46 0.931 . S
H74 C48 0.934 . S
H75 C49 0.930 . S
H76 C54 0.930 . S
H77 C55 0.931 . S
H78 C57 0.934 . S
H79 C58 0.930 . S
Ho80 C83 2.811 1_554 S
Ho80 O100 2.322 1_565 S
Ho80 O102 2.378 . S
Ho80 O103 2.524 1_554 S
Ho80 O104 2.381 . S
Ho80 O105 2.669 1_565 S
Ho80 O107 2.346 . S
Ho80 O111 2.305 1_564 S
Ho81 C92 2.811 1_556 S
Ho81 O101 2.346 1_556 S
Ho81 O105 2.305 1_556 S
Ho81 O106 2.322 . S
Ho81 O108 2.378 . S
Ho81 O109 2.524 1_556 S
Ho81 O110 2.381 . S
Ho81 O111 2.669 . S
C82 O100 1.259 . S
C82 O101 1.268 . S
C83 Ho80 2.811 1_556 S
C83 C84 1.488 . S
C83 O102 1.215 1_556 S
C83 O103 1.289 . S
C84 C83 1.488 . S
C84 C85 1.348 . S
C84 C89 1.413 1_556 S
C85 C84 1.348 . S
C85 C86 1.442 . S
C85 H112 0.930 . S
C86 C85 1.442 . S
C86 C87 1.381 . S
C86 H113 0.931 . S
C87 C86 1.381 . S
C87 C88 1.321 1_556 S
C88 C87 1.321 1_554 S
C88 C89 1.403 . S
C88 H114 0.934 . S
C89 C84 1.413 1_554 S
C89 C88 1.403 . S
C89 H115 0.930 . S
C90 O104 1.275 1_545 S
C90 O105 1.256 . S
C91 O106 1.259 1_565 S
C91 O107 1.268 1_556 S
C92 Ho81 2.811 1_554 S
C92 C93 1.488 . S
C92 O108 1.215 1_554 S
C92 O109 1.289 . S
C93 C92 1.488 . S
C93 C94 1.348 . S
C93 C98 1.413 1_554 S
C94 C93 1.348 . S
C94 C95 1.442 . S
C94 H116 0.930 . S
C95 C94 1.442 . S
C95 C96 1.381 . S
C95 H117 0.931 . S
C96 C95 1.381 . S
C96 C97 1.321 1_554 S
C97 C96 1.321 1_556 S
C97 C98 1.403 . S
C97 H118 0.934 . S
C98 C93 1.413 1_556 S
C98 C97 1.403 . S
C98 H119 0.930 . S
C99 O110 1.275 . S
C99 O111 1.256 . S
O100 Ho80 2.322 1_545 S
O100 C82 1.259 . S
O101 Ho81 2.346 1_554 S
O101 C82 1.268 . S
O102 Ho80 2.378 . S
O102 C83 1.215 1_554 S
O103 Ho80 2.524 1_556 S
O103 C83 1.289 . S
O104 Ho80 2.381 . S
O104 C90 1.275 1_565 S
O105 Ho80 2.669 1_545 S
O105 Ho81 2.305 1_554 S
O105 C90 1.256 . S
O106 Ho81 2.322 . S
O106 C91 1.259 1_545 S
O107 Ho80 2.346 . S
O107 C91 1.268 1_554 S
O108 Ho81 2.378 . S
O108 C92 1.215 1_556 S
O109 Ho81 2.524 1_554 S
O109 C92 1.289 . S
O110 Ho81 2.381 . S
O110 C99 1.275 . S
O111 Ho80 2.305 1_546 S
O111 Ho81 2.669 . S
O111 C99 1.256 . S
H112 C85 0.930 . S
H113 C86 0.931 . S
H114 C88 0.934 . S
H115 C89 0.930 . S
H116 C94 0.930 . S
H117 C95 0.931 . S
H118 C97 0.934 . S
H119 C98 0.930 . S
Ho120 C123 2.811 . S
Ho120 O140 2.322 . S
Ho120 O142 2.378 . S
Ho120 O143 2.524 . S
Ho120 O144 2.381 . S
Ho120 O145 2.669 . S
Ho120 O147 2.346 . S
Ho120 O151 2.305 . S
Ho121 C132 2.811 . S
Ho121 O141 2.346 . S
Ho121 O145 2.305 . S
Ho121 O146 2.322 . S
Ho121 O148 2.378 . S
Ho121 O149 2.524 . S
Ho121 O150 2.381 . S
Ho121 O151 2.669 . S
C122 O140 1.259 . S
C122 O141 1.268 . S
C123 Ho120 2.811 . S
C123 C124 1.488 . S
C123 O142 1.215 . S
C123 O143 1.289 . S
C124 C123 1.488 . S
C124 C125 1.348 . S
C124 C129 1.413 . S
C125 C124 1.348 . S
C125 C126 1.442 . S
C125 H152 0.930 . S
C126 C125 1.442 . S
C126 C127 1.381 . S
C126 H153 0.931 . S
C127 C126 1.381 . S
C127 C128 1.321 . S
C128 C127 1.321 . S
C128 C129 1.403 . S
C128 H154 0.934 . S
C129 C124 1.413 . S
C129 C128 1.403 . S
C129 H155 0.930 . S
C130 O144 1.275 . S
C130 O145 1.256 . S
C131 O146 1.259 . S
C131 O147 1.268 . S
C132 Ho121 2.811 . S
C132 C133 1.488 . S
C132 O148 1.215 . S
C132 O149 1.289 . S
C133 C132 1.488 . S
C133 C134 1.348 . S
C133 C138 1.413 . S
C134 C133 1.348 . S
C134 C135 1.442 . S
C134 H156 0.930 . S
C135 C134 1.442 . S
C135 C136 1.381 . S
C135 H157 0.931 . S
C136 C135 1.381 . S
C136 C137 1.321 . S
C137 C136 1.321 . S
C137 C138 1.403 . S
C137 H158 0.934 . S
C138 C133 1.413 . S
C138 C137 1.403 . S
C138 H159 0.930 . S
C139 O150 1.275 . S
C139 O151 1.256 . S
O140 Ho120 2.322 . S
O140 C122 1.259 . S
O141 Ho121 2.346 . S
O141 C122 1.268 . S
O142 Ho120 2.378 . S
O142 C123 1.215 . S
O143 Ho120 2.524 . S
O143 C123 1.289 . S
O144 Ho120 2.381 . S
O144 C130 1.275 . S
O145 Ho120 2.669 . S
O145 Ho121 2.305 . S
O145 C130 1.256 . S
O146 Ho121 2.322 . S
O146 C131 1.259 . S
O147 Ho120 2.346 . S
O147 C131 1.268 . S
O148 Ho121 2.378 . S
O148 C132 1.215 . S
O149 Ho121 2.524 . S
O149 C132 1.289 . S
O150 Ho121 2.381 . S
O150 C139 1.275 . S
O151 Ho120 2.305 . S
O151 Ho121 2.669 . S
O151 C139 1.256 . S
H152 C125 0.930 . S
H153 C126 0.931 . S
H154 C128 0.934 . S
H155 C129 0.930 . S
H156 C134 0.930 . S
H157 C135 0.931 . S
H158 C137 0.934 . S
H159 C138 0.930 . S
Ho160 C163 2.811 . S
Ho160 O180 2.322 . S
Ho160 O182 2.378 . S
Ho160 O183 2.524 . S
Ho160 O184 2.381 . S
Ho160 O185 2.669 . S
Ho160 O187 2.346 . S
Ho160 O191 2.305 . S
Ho161 C172 2.811 . S
Ho161 O181 2.346 . S
Ho161 O185 2.305 . S
Ho161 O186 2.322 . S
Ho161 O188 2.378 . S
Ho161 O189 2.524 . S
Ho161 O190 2.381 . S
Ho161 O191 2.669 . S
C162 O180 1.259 . S
C162 O181 1.268 . S
C163 Ho160 2.811 . S
C163 C164 1.488 . S
C163 O182 1.215 . S
C163 O183 1.289 . S
C164 C163 1.488 . S
C164 C165 1.348 . S
C164 C169 1.413 . S
C165 C164 1.348 . S
C165 C166 1.442 . S
C165 H192 0.930 . S
C166 C165 1.442 . S
C166 C167 1.381 . S
C166 H193 0.931 . S
C167 C166 1.381 . S
C167 C168 1.321 . S
C168 C167 1.321 . S
C168 C169 1.403 . S
C168 H194 0.934 . S
C169 C164 1.413 . S
C169 C168 1.403 . S
C169 H195 0.930 . S
C170 O184 1.275 . S
C170 O185 1.256 . S
C171 O186 1.259 . S
C171 O187 1.268 . S
C172 Ho161 2.811 . S
C172 C173 1.488 . S
C172 O188 1.215 . S
C172 O189 1.289 . S
C173 C172 1.488 . S
C173 C174 1.348 . S
C173 C178 1.413 . S
C174 C173 1.348 . S
C174 C175 1.442 . S
C174 H196 0.930 . S
C175 C174 1.442 . S
C175 C176 1.381 . S
C175 H197 0.931 . S
C176 C175 1.381 . S
C176 C177 1.321 . S
C177 C176 1.321 . S
C177 C178 1.403 . S
C177 H198 0.934 . S
C178 C173 1.413 . S
C178 C177 1.403 . S
C178 H199 0.930 . S
C179 O190 1.275 . S
C179 O191 1.256 . S
O180 Ho160 2.322 . S
O180 C162 1.259 . S
O181 Ho161 2.346 . S
O181 C162 1.268 . S
O182 Ho160 2.378 . S
O182 C163 1.215 . S
O183 Ho160 2.524 . S
O183 C163 1.289 . S
O184 Ho160 2.381 . S
O184 C170 1.275 . S
O185 Ho160 2.669 . S
O185 Ho161 2.305 . S
O185 C170 1.256 . S
O186 Ho161 2.322 . S
O186 C171 1.259 . S
O187 Ho160 2.346 . S
O187 C171 1.268 . S
O188 Ho161 2.378 . S
O188 C172 1.215 . S
O189 Ho161 2.524 . S
O189 C172 1.289 . S
O190 Ho161 2.381 . S
O190 C179 1.275 . S
O191 Ho160 2.305 . S
O191 Ho161 2.669 . S
O191 C179 1.256 . S
H192 C165 0.930 . S
H193 C166 0.931 . S
H194 C168 0.934 . S
H195 C169 0.930 . S
H196 C174 0.930 . S
H197 C175 0.931 . S
H198 C177 0.934 . S
H199 C178 0.930 . S
Ho200 C203 2.811 . S
Ho200 O220 2.322 . S
Ho200 O222 2.378 . S
Ho200 O223 2.524 . S
Ho200 O224 2.381 . S
Ho200 O225 2.669 . S
Ho200 O227 2.346 . S
Ho200 O231 2.305 . S
Ho201 C212 2.811 . S
Ho201 O221 2.346 . S
Ho201 O225 2.305 . S
Ho201 O226 2.322 . S
Ho201 O228 2.378 . S
Ho201 O229 2.524 . S
Ho201 O230 2.381 . S
Ho201 O231 2.669 . S
C202 O220 1.259 . S
C202 O221 1.268 . S
C203 Ho200 2.811 . S
C203 C204 1.488 . S
C203 O222 1.215 . S
C203 O223 1.289 . S
C204 C203 1.488 . S
C204 C205 1.348 . S
C204 C209 1.413 . S
C205 C204 1.348 . S
C205 C206 1.442 . S
C205 H232 0.930 . S
C206 C205 1.442 . S
C206 C207 1.381 . S
C206 H233 0.931 . S
C207 C206 1.381 . S
C207 C208 1.321 . S
C208 C207 1.321 . S
C208 C209 1.403 . S
C208 H234 0.934 . S
C209 C204 1.413 . S
C209 C208 1.403 . S
C209 H235 0.930 . S
C210 O224 1.275 . S
C210 O225 1.256 . S
C211 O226 1.259 . S
C211 O227 1.268 . S
C212 Ho201 2.811 . S
C212 C213 1.488 . S
C212 O228 1.215 . S
C212 O229 1.289 . S
C213 C212 1.488 . S
C213 C214 1.348 . S
C213 C218 1.413 . S
C214 C213 1.348 . S
C214 C215 1.442 . S
C214 H236 0.930 . S
C215 C214 1.442 . S
C215 C216 1.381 . S
C215 H237 0.931 . S
C216 C215 1.381 . S
C216 C217 1.321 . S
C217 C216 1.321 . S
C217 C218 1.403 . S
C217 H238 0.934 . S
C218 C213 1.413 . S
C218 C217 1.403 . S
C218 H239 0.930 . S
C219 O230 1.275 . S
C219 O231 1.256 . S
O220 Ho200 2.322 . S
O220 C202 1.259 . S
O221 Ho201 2.346 . S
O221 C202 1.268 . S
O222 Ho200 2.378 . S
O222 C203 1.215 . S
O223 Ho200 2.524 . S
O223 C203 1.289 . S
O224 Ho200 2.381 . S
O224 C210 1.275 . S
O225 Ho200 2.669 . S
O225 Ho201 2.305 . S
O225 C210 1.256 . S
O226 Ho201 2.322 . S
O226 C211 1.259 . S
O227 Ho200 2.346 . S
O227 C211 1.268 . S
O228 Ho201 2.378 . S
O228 C212 1.215 . S
O229 Ho201 2.524 . S
O229 C212 1.289 . S
O230 Ho201 2.381 . S
O230 C219 1.275 . S
O231 Ho200 2.305 . S
O231 Ho201 2.669 . S
O231 C219 1.256 . S
H232 C205 0.930 . S
H233 C206 0.931 . S
H234 C208 0.934 . S
H235 C209 0.930 . S
H236 C214 0.930 . S
H237 C215 0.931 . S
H238 C217 0.934 . S
H239 C218 0.930 . S
Ho240 C243 2.811 . S
Ho240 O260 2.322 . S
Ho240 O262 2.378 . S
Ho240 O263 2.524 . S
Ho240 O264 2.381 . S
Ho240 O265 2.669 . S
Ho240 O267 2.346 . S
Ho240 O271 2.305 . S
Ho241 C252 2.811 . S
Ho241 O261 2.346 . S
Ho241 O265 2.305 . S
Ho241 O266 2.322 . S
Ho241 O268 2.378 . S
Ho241 O269 2.524 . S
Ho241 O270 2.381 . S
Ho241 O271 2.669 . S
C242 O260 1.259 . S
C242 O261 1.268 . S
C243 Ho240 2.811 . S
C243 C244 1.488 . S
C243 O262 1.215 . S
C243 O263 1.289 . S
C244 C243 1.488 . S
C244 C245 1.348 . S
C244 C249 1.413 . S
C245 C244 1.348 . S
C245 C246 1.442 . S
C245 H272 0.930 . S
C246 C245 1.442 . S
C246 C247 1.381 . S
C246 H273 0.931 . S
C247 C246 1.381 . S
C247 C248 1.321 . S
C248 C247 1.321 . S
C248 C249 1.403 . S
C248 H274 0.934 . S
C249 C244 1.413 . S
C249 C248 1.403 . S
C249 H275 0.930 . S
C250 O264 1.275 . S
C250 O265 1.256 . S
C251 O266 1.259 . S
C251 O267 1.268 . S
C252 Ho241 2.811 . S
C252 C253 1.488 . S
C252 O268 1.215 . S
C252 O269 1.289 . S
C253 C252 1.488 . S
C253 C254 1.348 . S
C253 C258 1.413 . S
C254 C253 1.348 . S
C254 C255 1.442 . S
C254 H276 0.930 . S
C255 C254 1.442 . S
C255 C256 1.381 . S
C255 H277 0.931 . S
C256 C255 1.381 . S
C256 C257 1.321 . S
C257 C256 1.321 . S
C257 C258 1.403 . S
C257 H278 0.934 . S
C258 C253 1.413 . S
C258 C257 1.403 . S
C258 H279 0.930 . S
C259 O270 1.275 . S
C259 O271 1.256 . S
O260 Ho240 2.322 . S
O260 C242 1.259 . S
O261 Ho241 2.346 . S
O261 C242 1.268 . S
O262 Ho240 2.378 . S
O262 C243 1.215 . S
O263 Ho240 2.524 . S
O263 C243 1.289 . S
O264 Ho240 2.381 . S
O264 C250 1.275 . S
O265 Ho240 2.669 . S
O265 Ho241 2.305 . S
O265 C250 1.256 . S
O266 Ho241 2.322 . S
O266 C251 1.259 . S
O267 Ho240 2.346 . S
O267 C251 1.268 . S
O268 Ho241 2.378 . S
O268 C252 1.215 . S
O269 Ho241 2.524 . S
O269 C252 1.289 . S
O270 Ho241 2.381 . S
O270 C259 1.275 . S
O271 Ho240 2.305 . S
O271 Ho241 2.669 . S
O271 C259 1.256 . S
H272 C245 0.930 . S
H273 C246 0.931 . S
H274 C248 0.934 . S
H275 C249 0.930 . S
H276 C254 0.930 . S
H277 C255 0.931 . S
H278 C257 0.934 . S
H279 C258 0.930 . S
Ho280 C283 2.811 . S
Ho280 O300 2.322 . S
Ho280 O302 2.378 . S
Ho280 O303 2.524 . S
Ho280 O304 2.381 . S
Ho280 O305 2.669 . S
Ho280 O307 2.346 . S
Ho280 O311 2.305 . S
Ho281 C292 2.811 . S
Ho281 O301 2.346 . S
Ho281 O305 2.305 . S
Ho281 O306 2.322 . S
Ho281 O308 2.378 . S
Ho281 O309 2.524 . S
Ho281 O310 2.381 . S
Ho281 O311 2.669 . S
C282 O300 1.259 . S
C282 O301 1.268 . S
C283 Ho280 2.811 . S
C283 C284 1.488 . S
C283 O302 1.215 . S
C283 O303 1.289 . S
C284 C283 1.488 . S
C284 C285 1.348 . S
C284 C289 1.413 . S
C285 C284 1.348 . S
C285 C286 1.442 . S
C285 H312 0.930 . S
C286 C285 1.442 . S
C286 C287 1.381 . S
C286 H313 0.931 . S
C287 C286 1.381 . S
C287 C288 1.321 . S
C288 C287 1.321 . S
C288 C289 1.403 . S
C288 H314 0.934 . S
C289 C284 1.413 . S
C289 C288 1.403 . S
C289 H315 0.930 . S
C290 O304 1.275 . S
C290 O305 1.256 . S
C291 O306 1.259 . S
C291 O307 1.268 . S
C292 Ho281 2.811 . S
C292 C293 1.488 . S
C292 O308 1.215 . S
C292 O309 1.289 . S
C293 C292 1.488 . S
C293 C294 1.348 . S
C293 C298 1.413 . S
C294 C293 1.348 . S
C294 C295 1.442 . S
C294 H316 0.930 . S
C295 C294 1.442 . S
C295 C296 1.381 . S
C295 H317 0.931 . S
C296 C295 1.381 . S
C296 C297 1.321 . S
C297 C296 1.321 . S
C297 C298 1.403 . S
C297 H318 0.934 . S
C298 C293 1.413 . S
C298 C297 1.403 . S
C298 H319 0.930 . S
C299 O310 1.275 . S
C299 O311 1.256 . S
O300 Ho280 2.322 . S
O300 C282 1.259 . S
O301 Ho281 2.346 . S
O301 C282 1.268 . S
O302 Ho280 2.378 . S
O302 C283 1.215 . S
O303 Ho280 2.524 . S
O303 C283 1.289 . S
O304 Ho280 2.381 . S
O304 C290 1.275 . S
O305 Ho280 2.669 . S
O305 Ho281 2.305 . S
O305 C290 1.256 . S
O306 Ho281 2.322 . S
O306 C291 1.259 . S
O307 Ho280 2.346 . S
O307 C291 1.268 . S
O308 Ho281 2.378 . S
O308 C292 1.215 . S
O309 Ho281 2.524 . S
O309 C292 1.289 . S
O310 Ho281 2.381 . S
O310 C299 1.275 . S
O311 Ho280 2.305 . S
O311 Ho281 2.669 . S
O311 C299 1.256 . S
H312 C285 0.930 . S
H313 C286 0.931 . S
H314 C288 0.934 . S
H315 C289 0.930 . S
H316 C294 0.930 . S
H317 C295 0.931 . S
H318 C297 0.934 . S
H319 C298 0.930 . S
Ho320 C323 2.811 . S
Ho320 O340 2.322 . S
Ho320 O342 2.378 . S
Ho320 O343 2.524 . S
Ho320 O344 2.381 . S
Ho320 O345 2.669 . S
Ho320 O347 2.346 . S
Ho320 O351 2.305 . S
Ho321 C332 2.811 . S
Ho321 O341 2.346 . S
Ho321 O345 2.305 . S
Ho321 O346 2.322 . S
Ho321 O348 2.378 . S
Ho321 O349 2.524 . S
Ho321 O350 2.381 . S
Ho321 O351 2.669 . S
C322 O340 1.259 . S
C322 O341 1.268 . S
C323 Ho320 2.811 . S
C323 C324 1.488 . S
C323 O342 1.215 . S
C323 O343 1.289 . S
C324 C323 1.488 . S
C324 C325 1.348 . S
C324 C329 1.413 . S
C325 C324 1.348 . S
C325 C326 1.442 . S
C325 H352 0.930 . S
C326 C325 1.442 . S
C326 C327 1.381 . S
C326 H353 0.931 . S
C327 C326 1.381 . S
C327 C328 1.321 . S
C328 C327 1.321 . S
C328 C329 1.403 . S
C328 H354 0.934 . S
C329 C324 1.413 . S
C329 C328 1.403 . S
C329 H355 0.930 . S
C330 O344 1.275 . S
C330 O345 1.256 . S
C331 O346 1.259 . S
C331 O347 1.268 . S
C332 Ho321 2.811 . S
C332 C333 1.488 . S
C332 O348 1.215 . S
C332 O349 1.289 . S
C333 C332 1.488 . S
C333 C334 1.348 . S
C333 C338 1.413 . S
C334 C333 1.348 . S
C334 C335 1.442 . S
C334 H356 0.930 . S
C335 C334 1.442 . S
C335 C336 1.381 . S
C335 H357 0.931 . S
C336 C335 1.381 . S
C336 C337 1.321 . S
C337 C336 1.321 . S
C337 C338 1.403 . S
C337 H358 0.934 . S
C338 C333 1.413 . S
C338 C337 1.403 . S
C338 H359 0.930 . S
C339 O350 1.275 . S
C339 O351 1.256 . S
O340 Ho320 2.322 . S
O340 C322 1.259 . S
O341 Ho321 2.346 . S
O341 C322 1.268 . S
O342 Ho320 2.378 . S
O342 C323 1.215 . S
O343 Ho320 2.524 . S
O343 C323 1.289 . S
O344 Ho320 2.381 . S
O344 C330 1.275 . S
O345 Ho320 2.669 . S
O345 Ho321 2.305 . S
O345 C330 1.256 . S
O346 Ho321 2.322 . S
O346 C331 1.259 . S
O347 Ho320 2.346 . S
O347 C331 1.268 . S
O348 Ho321 2.378 . S
O348 C332 1.215 . S
O349 Ho321 2.524 . S
O349 C332 1.289 . S
O350 Ho321 2.381 . S
O350 C339 1.275 . S
O351 Ho320 2.305 . S
O351 Ho321 2.669 . S
O351 C339 1.256 . S
H352 C325 0.930 . S
H353 C326 0.931 . S
H354 C328 0.934 . S
H355 C329 0.930 . S
H356 C334 0.930 . S
H357 C335 0.931 . S
H358 C337 0.934 . S
H359 C338 0.930 . S
H360 C366 0.932 . S
H361 C370 0.930 . S
H362 C375 0.929 . S
H363 C373 0.929 . S
H364 C368 0.929 . S
H365 C374 0.929 . S
C366 H360 0.932 . S
C366 C367 1.367 . S
C366 C374 1.378 . S
C367 C366 1.367 . S
C367 C375 1.433 . S
C368 H364 0.929 . S
C368 C370 1.378 . S
C368 C372 1.350 . S
C369 C372 1.463 . S
C369 C374 1.350 . S
C369 N377 1.427 . S
C370 H361 0.930 . S
C370 C368 1.378 . S
C370 C371 1.367 . S
C371 C370 1.367 . S
C371 C373 1.433 . S
C372 C368 1.350 . S
C372 C369 1.463 . S
C372 N376 1.427 . S
C373 H363 0.929 . S
C373 C371 1.433 . S
C373 N376 1.384 . S
C374 H365 0.929 . S
C374 C366 1.378 . S
C374 C369 1.350 . S
C375 H362 0.929 . S
C375 C367 1.433 . S
C375 N377 1.384 . S
N376 C372 1.427 . S
N376 C373 1.384 . S
N377 C369 1.427 . S
N377 C375 1.384 . S
H378 C384 0.930 1_554 S
H379 C388 0.930 . S
H380 C393 0.929 . S
H381 C391 0.929 . S
H382 C386 0.929 . S
H383 C392 0.929 . S
C384 H378 0.930 1_556 S
C384 C385 1.367 . S
C384 C392 1.378 . S
C385 C384 1.367 . S
C385 C393 1.433 . S
C386 H382 0.929 . S
C386 C388 1.378 . S
C386 C390 1.350 . S
C387 C390 1.463 . S
C387 C392 1.350 . S
C387 N395 1.427 . S
C388 H379 0.930 . S
C388 C386 1.378 . S
C388 C389 1.367 . S
C389 C388 1.367 . S
C389 C391 1.433 . S
C390 C386 1.350 . S
C390 C387 1.463 . S
C390 N394 1.427 . S
C391 H381 0.929 . S
C391 C389 1.433 . S
C391 N394 1.384 . S
C392 H383 0.929 . S
C392 C384 1.378 . S
C392 C387 1.350 . S
C393 H380 0.929 . S
C393 C385 1.433 . S
C393 N395 1.384 . S
N394 C390 1.427 . S
N394 C391 1.384 . S
N395 C387 1.427 . S
N395 C393 1.384 . S
H396 C402 0.930 . S
H397 C406 0.930 . S
H398 C411 0.929 1_554 S
H399 C409 0.929 . S
H400 C404 0.929 . S
H401 C410 0.929 . S
C402 H396 0.930 . S
C402 C403 1.367 . S
C402 C410 1.378 . S
C403 C402 1.367 . S
C403 C411 1.433 . S
C404 H400 0.929 . S
C404 C406 1.378 . S
C404 C408 1.350 . S
C405 C408 1.463 . S
C405 C410 1.350 . S
C405 N413 1.427 . S
C406 H397 0.930 . S
C406 C404 1.378 . S
C406 C407 1.367 . S
C407 C406 1.367 . S
C407 C409 1.433 . S
C408 C404 1.350 . S
C408 C405 1.463 . S
C408 N412 1.427 . S
C409 H399 0.929 . S
C409 C407 1.433 . S
C409 N412 1.384 . S
C410 H401 0.929 . S
C410 C402 1.378 . S
C410 C405 1.350 . S
C411 H398 0.929 1_556 S
C411 C403 1.433 . S
C411 N413 1.384 . S
N412 C408 1.427 . S
N412 C409 1.384 . S
N413 C405 1.427 . S
N413 C411 1.384 . S
H414 C420 0.930 . S
H415 C424 0.930 . S
H416 C429 0.929 . S
H417 C427 0.929 . S
H418 C422 0.929 1_556 S
H419 C428 0.929 . S
C420 H414 0.930 . S
C420 C421 1.367 . S
C420 C428 1.378 . S
C421 C420 1.367 . S
C421 C429 1.433 . S
C422 H418 0.929 1_554 S
C422 C424 1.378 1_554 S
C422 C426 1.350 . S
C423 C426 1.463 . S
C423 C428 1.350 . S
C423 N431 1.427 . S
C424 H415 0.930 . S
C424 C422 1.378 1_556 S
C424 C425 1.367 1_556 S
C425 C424 1.367 1_554 S
C425 C427 1.433 . S
C426 C422 1.350 . S
C426 C423 1.463 . S
C426 N430 1.427 . S
C427 H417 0.929 . S
C427 C425 1.433 . S
C427 N430 1.384 . S
C428 H419 0.929 . S
C428 C420 1.378 . S
C428 C423 1.350 . S
C429 H416 0.929 . S
C429 C421 1.433 . S
C429 N431 1.384 . S
N430 C426 1.427 . S
N430 C427 1.384 . S
N431 C423 1.427 . S
N431 C429 1.384 . S
H432 C438 0.930 . S
H433 C442 0.930 1_455 S
H434 C447 0.929 . S
H435 C445 0.929 . S
H436 C440 0.929 . S
H437 C446 0.929 . S
C438 H432 0.930 . S
C438 C439 1.367 . S
C438 C446 1.378 . S
C439 C438 1.367 . S
C439 C447 1.433 . S
C440 H436 0.929 . S
C440 C442 1.378 . S
C440 C444 1.350 . S
C441 C444 1.463 . S
C441 C446 1.350 . S
C441 N449 1.427 . S
C442 H433 0.930 1_655 S
C442 C440 1.378 . S
C442 C443 1.367 . S
C443 C442 1.367 . S
C443 C445 1.433 . S
C444 C440 1.350 . S
C444 C441 1.463 . S
C444 N448 1.427 . S
C445 H435 0.929 . S
C445 C443 1.433 . S
C445 N448 1.384 . S
C446 H437 0.929 . S
C446 C438 1.378 . S
C446 C441 1.350 . S
C447 H434 0.929 . S
C447 C439 1.433 . S
C447 N449 1.384 . S
N448 C444 1.427 . S
N448 C445 1.384 . S
N449 C441 1.427 . S
N449 C447 1.384 . S
H450 C456 0.930 . S
H451 C460 0.930 . S
H452 C465 0.929 . S
H453 C463 0.929 . S
H454 C458 0.929 . S
H455 C464 0.929 . S
C456 H450 0.930 . S
C456 C457 1.367 . S
C456 C464 1.378 . S
C457 C456 1.367 . S
C457 C465 1.433 1_554 S
C458 H454 0.929 . S
C458 C460 1.378 . S
C458 C462 1.350 . S
C459 C462 1.463 . S
C459 C464 1.350 . S
C459 N467 1.427 . S
C460 H451 0.930 . S
C460 C458 1.378 . S
C460 C461 1.367 . S
C461 C460 1.367 . S
C461 C463 1.433 . S
C462 C458 1.350 . S
C462 C459 1.463 . S
C462 N466 1.427 . S
C463 H453 0.929 . S
C463 C461 1.433 . S
C463 N466 1.384 . S
C464 H455 0.929 . S
C464 C456 1.378 . S
C464 C459 1.350 . S
C465 H452 0.929 . S
C465 C457 1.433 1_556 S
C465 N467 1.384 1_556 S
N466 C462 1.427 . S
N466 C463 1.384 . S
N467 C459 1.427 . S
N467 C465 1.384 1_554 S
H468 C474 0.930 . S
H469 C478 0.930 . S
H470 C483 0.927 . S
H471 C481 0.929 . S
H472 C476 0.929 . S
H473 C482 0.929 . S
C474 H468 0.930 . S
C474 C475 1.367 . S
C474 C482 1.378 1_455 S
C475 C474 1.367 . S
C475 C483 1.432 . S
C476 H472 0.929 . S
C476 C478 1.378 . S
C476 C480 1.350 . S
C477 C480 1.463 . S
C477 C482 1.350 . S
C477 N485 1.427 . S
C478 H469 0.930 . S
C478 C476 1.378 . S
C478 C479 1.367 . S
C479 C478 1.367 . S
C479 C481 1.433 . S
C480 C476 1.350 . S
C480 C477 1.463 . S
C480 N484 1.427 . S
C481 H471 0.929 . S
C481 C479 1.433 . S
C481 N484 1.384 . S
C482 H473 0.929 . S
C482 C474 1.378 1_655 S
C482 C477 1.350 . S
C483 H470 0.927 . S
C483 C475 1.432 . S
C483 N485 1.387 1_455 S
N484 C480 1.427 . S
N484 C481 1.384 . S
N485 C477 1.427 . S
N485 C483 1.387 1_655 S
H486 C492 0.930 . S
H487 C496 0.930 . S
H488 C501 0.929 . S
H489 C499 0.929 . S
H490 C494 0.929 . S
H491 C500 0.929 . S
C492 H486 0.930 . S
C492 C493 1.367 . S
C492 C500 1.378 . S
C493 C492 1.367 . S
C493 C501 1.433 . S
C494 H490 0.929 . S
C494 C496 1.378 . S
C494 C498 1.350 . S
C495 C498 1.463 . S
C495 C500 1.350 . S
C495 N503 1.427 . S
C496 H487 0.930 . S
C496 C494 1.378 . S
C496 C497 1.367 . S
C497 C496 1.367 . S
C497 C499 1.433 . S
C498 C494 1.350 . S
C498 C495 1.463 . S
C498 N502 1.427 . S
C499 H489 0.929 . S
C499 C497 1.433 . S
C499 N502 1.384 . S
C500 H491 0.929 . S
C500 C492 1.378 . S
C500 C495 1.350 . S
C501 H488 0.929 . S
C501 C493 1.433 . S
C501 N503 1.384 . S
N502 C498 1.427 . S
N502 C499 1.384 . S
N503 C495 1.427 . S
N503 C501 1.384 . S
H504 C510 0.930 . S
H505 C514 0.930 . S
H506 C519 0.929 . S
H507 C517 0.929 . S
H508 C512 0.929 . S
H509 C518 0.929 . S
C510 H504 0.930 . S
C510 C511 1.367 . S
C510 C518 1.378 . S
C511 C510 1.367 . S
C511 C519 1.433 . S
C512 H508 0.929 . S
C512 C514 1.378 . S
C512 C516 1.350 . S
C513 C516 1.463 . S
C513 C518 1.350 . S
C513 N521 1.427 . S
C514 H505 0.930 . S
C514 C512 1.378 . S
C514 C515 1.367 . S
C515 C514 1.367 . S
C515 C517 1.433 . S
C516 C512 1.350 . S
C516 C513 1.463 . S
C516 N520 1.427 . S
C517 H507 0.929 . S
C517 C515 1.433 . S
C517 N520 1.384 . S
C518 H509 0.929 . S
C518 C510 1.378 . S
C518 C513 1.350 . S
C519 H506 0.929 . S
C519 C511 1.433 . S
C519 N521 1.384 . S
N520 C516 1.427 . S
N520 C517 1.384 . S
N521 C513 1.427 . S
N521 C519 1.384 . S
H522 C528 0.930 . S
H523 C532 0.930 . S
H524 C537 0.929 . S
H525 C535 0.929 . S
H526 C530 0.929 . S
H527 C536 0.929 . S
C528 H522 0.930 . S
C528 C529 1.367 . S
C528 C536 1.378 . S
C529 C528 1.367 . S
C529 C537 1.433 1_554 S
C530 H526 0.929 . S
C530 C532 1.378 . S
C530 C534 1.350 1_556 S
C531 C534 1.463 . S
C531 C536 1.350 . S
C531 N539 1.427 1_554 S
C532 H523 0.930 . S
C532 C530 1.378 . S
C532 C533 1.367 1_556 S
C533 C532 1.367 1_554 S
C533 C535 1.433 . S
C534 C530 1.350 1_554 S
C534 C531 1.463 . S
C534 N538 1.427 . S
C535 H525 0.929 . S
C535 C533 1.433 . S
C535 N538 1.384 . S
C536 H527 0.929 . S
C536 C528 1.378 . S
C536 C531 1.350 . S
C537 H524 0.929 . S
C537 C529 1.433 1_556 S
C537 N539 1.384 . S
N538 C534 1.427 . S
N538 C535 1.384 . S
N539 C531 1.427 1_556 S
N539 C537 1.384 . S
H540 C546 0.930 . S
H541 C550 0.930 . S
H542 C555 0.929 . S
H543 C553 0.929 . S
H544 C548 0.929 . S
H545 C554 0.929 . S
C546 H540 0.930 . S
C546 C547 1.367 . S
C546 C554 1.378 . S
C547 C546 1.367 . S
C547 C555 1.433 1_554 S
C548 H544 0.929 . S
C548 C550 1.378 1_565 S
C548 C552 1.350 1_556 S
C549 C552 1.463 . S
C549 C554 1.350 . S
C549 N557 1.427 1_554 S
C550 H541 0.930 . S
C550 C548 1.378 1_545 S
C550 C551 1.367 1_556 S
C551 C550 1.367 1_554 S
C551 C553 1.433 . S
C552 C548 1.350 1_554 S
C552 C549 1.463 . S
C552 N556 1.427 . S
C553 H543 0.929 . S
C553 C551 1.433 . S
C553 N556 1.384 1_545 S
C554 H545 0.929 . S
C554 C546 1.378 . S
C554 C549 1.350 . S
C555 H542 0.929 . S
C555 C547 1.433 1_556 S
C555 N557 1.384 . S
N556 C552 1.427 . S
N556 C553 1.384 1_565 S
N557 C549 1.427 1_556 S
N557 C555 1.384 . S
H558 C564 0.930 . S
H559 C568 0.930 . S
H560 C573 0.929 . S
H561 C571 0.902 1_545 S
H562 C566 0.929 . S
H563 C572 0.929 . S
C564 H558 0.930 . S
C564 C565 1.367 . S
C564 C572 1.378 . S
C565 C564 1.367 . S
C565 C573 1.433 1_554 S
C566 H562 0.929 . S
C566 C568 1.378 . S
C566 C570 1.350 1_556 S
C567 C570 1.463 . S
C567 C572 1.350 . S
C567 N575 1.427 1_554 S
C568 H559 0.930 . S
C568 C566 1.378 . S
C568 C569 1.367 1_556 S
C569 C568 1.367 1_554 S
C569 C571 1.433 . S
C570 C566 1.350 1_554 S
C570 C567 1.463 . S
C570 N574 1.427 . S
C571 H561 0.902 1_565 S
C571 C569 1.433 . S
C571 N574 1.384 . S
C572 H563 0.929 . S
C572 C564 1.378 . S
C572 C567 1.350 . S
C573 H560 0.929 . S
C573 C565 1.433 1_556 S
C573 N575 1.384 . S
N574 C570 1.427 . S
N574 C571 1.384 . S
N575 C567 1.427 1_556 S
N575 C573 1.384 . S
H576 C582 0.930 . S
H577 C586 0.930 . S
H578 C591 0.929 . S
H579 C589 0.929 . S
H580 C584 0.929 . S
H581 C590 0.929 . S
C582 H576 0.930 . S
C582 C583 1.367 . S
C582 C590 1.378 . S
C583 C582 1.367 . S
C583 C591 1.433 . S
C584 H580 0.929 . S
C584 C586 1.378 . S
C584 C588 1.350 . S
C585 C588 1.463 . S
C585 C590 1.350 . S
C585 N593 1.427 . S
C586 H577 0.930 . S
C586 C584 1.378 . S
C586 C587 1.367 . S
C587 C586 1.367 . S
C587 C589 1.433 . S
C588 C584 1.350 . S
C588 C585 1.463 . S
C588 N592 1.427 . S
C589 H579 0.929 . S
C589 C587 1.433 . S
C589 N592 1.384 . S
C590 H581 0.929 . S
C590 C582 1.378 . S
C590 C585 1.350 . S
C591 H578 0.929 . S
C591 C583 1.433 . S
C591 N593 1.384 . S
N592 C588 1.427 . S
N592 C589 1.384 . S
N593 C585 1.427 . S
N593 C591 1.384 . S
H594 C600 0.930 . S
H595 C604 0.930 . S
H596 C609 0.929 . S
H597 C607 0.929 . S
H598 C602 0.929 . S
H599 C608 0.929 . S
C600 H594 0.930 . S
C600 C601 1.367 . S
C600 C608 1.378 . S
C601 C600 1.367 . S
C601 C609 1.433 . S
C602 H598 0.929 . S
C602 C604 1.378 . S
C602 C606 1.350 . S
C603 C606 1.463 . S
C603 C608 1.350 . S
C603 N611 1.427 . S
C604 H595 0.930 . S
C604 C602 1.378 . S
C604 C605 1.367 . S
C605 C604 1.367 . S
C605 C607 1.433 . S
C606 C602 1.350 . S
C606 C603 1.463 . S
C606 N610 1.427 . S
C607 H597 0.929 . S
C607 C605 1.433 . S
C607 N610 1.384 . S
C608 H599 0.929 . S
C608 C600 1.378 . S
C608 C603 1.350 . S
C609 H596 0.929 . S
C609 C601 1.433 . S
C609 N611 1.384 . S
N610 C606 1.427 . S
N610 C607 1.384 . S
N611 C603 1.427 . S
N611 C609 1.384 . S
H612 C618 0.930 . S
H613 C622 0.930 . S
H614 C627 0.929 . S
H615 C625 0.929 . S
H616 C620 0.929 . S
H617 C626 0.929 . S
C618 H612 0.930 . S
C618 C619 1.367 . S
C618 C626 1.378 . S
C619 C618 1.367 . S
C619 C627 1.433 . S
C620 H616 0.929 . S
C620 C622 1.378 . S
C620 C624 1.350 . S
C621 C624 1.463 . S
C621 C626 1.350 . S
C621 N629 1.427 . S
C622 H613 0.930 . S
C622 C620 1.378 . S
C622 C623 1.367 . S
C623 C622 1.367 . S
C623 C625 1.433 . S
C624 C620 1.350 . S
C624 C621 1.463 . S
C624 N628 1.427 . S
C625 H615 0.929 . S
C625 C623 1.433 . S
C625 N628 1.384 . S
C626 H617 0.929 . S
C626 C618 1.378 . S
C626 C621 1.350 . S
C627 H614 0.929 . S
C627 C619 1.433 . S
C627 N629 1.384 . S
N628 C624 1.427 . S
N628 C625 1.384 . S
N629 C621 1.427 . S
N629 C627 1.384 . S
H630 C636 0.930 . S
H631 C640 0.930 . S
H632 C645 0.929 . S
H633 C643 0.929 . S
H634 C638 0.929 . S
H635 C644 0.929 . S
C636 H630 0.930 . S
C636 C637 1.367 . S
C636 C644 1.378 . S
C637 C636 1.367 . S
C637 C645 1.433 . S
C638 H634 0.929 . S
C638 C640 1.378 . S
C638 C642 1.350 . S
C639 C642 1.463 . S
C639 C644 1.350 . S
C639 N647 1.427 . S
C640 H631 0.930 . S
C640 C638 1.378 . S
C640 C641 1.367 . S
C641 C640 1.367 . S
C641 C643 1.433 . S
C642 C638 1.350 . S
C642 C639 1.463 . S
C642 N646 1.427 . S
C643 H633 0.929 . S
C643 C641 1.433 . S
C643 N646 1.384 . S
C644 H635 0.929 . S
C644 C636 1.378 . S
C644 C639 1.350 . S
C645 H632 0.929 . S
C645 C637 1.433 . S
C645 N647 1.384 . S
N646 C642 1.427 . S
N646 C643 1.384 . S
N647 C639 1.427 . S
N647 C645 1.384 . S
H648 C654 0.930 . S
H649 C658 0.930 . S
H650 C663 0.929 . S
H651 C661 0.929 . S
H652 C656 0.929 . S
H653 C662 0.929 . S
C654 H648 0.930 . S
C654 C655 1.367 . S
C654 C662 1.378 . S
C655 C654 1.367 . S
C655 C663 1.433 . S
C656 H652 0.929 . S
C656 C658 1.378 . S
C656 C660 1.350 . S
C657 C660 1.463 . S
C657 C662 1.350 . S
C657 N665 1.427 . S
C658 H649 0.930 . S
C658 C656 1.378 . S
C658 C659 1.367 . S
C659 C658 1.367 . S
C659 C661 1.433 . S
C660 C656 1.350 . S
C660 C657 1.463 . S
C660 N664 1.427 . S
C661 H651 0.929 . S
C661 C659 1.433 . S
C661 N664 1.384 . S
C662 H653 0.929 . S
C662 C654 1.378 . S
C662 C657 1.350 . S
C663 H650 0.929 . S
C663 C655 1.433 . S
C663 N665 1.384 . S
N664 C660 1.427 . S
N664 C661 1.384 . S
N665 C657 1.427 . S
N665 C663 1.384 . S
H666 C672 0.930 . S
H667 C676 0.930 . S
H668 C681 0.929 . S
H669 C679 0.929 . S
H670 C674 0.929 . S
H671 C680 0.929 . S
C672 H666 0.930 . S
C672 C673 1.367 . S
C672 C680 1.378 . S
C673 C672 1.367 . S
C673 C681 1.433 . S
C674 H670 0.929 . S
C674 C676 1.378 . S
C674 C678 1.350 . S
C675 C678 1.463 . S
C675 C680 1.350 . S
C675 N683 1.427 . S
C676 H667 0.930 . S
C676 C674 1.378 . S
C676 C677 1.367 . S
C677 C676 1.367 . S
C677 C679 1.433 . S
C678 C674 1.350 . S
C678 C675 1.463 . S
C678 N682 1.427 . S
C679 H669 0.929 . S
C679 C677 1.433 . S
C679 N682 1.384 . S
C680 H671 0.929 . S
C680 C672 1.378 . S
C680 C675 1.350 . S
C681 H668 0.929 . S
C681 C673 1.433 . S
C681 N683 1.384 . S
N682 C678 1.427 . S
N682 C679 1.384 . S
N683 C675 1.427 . S
N683 C681 1.384 . S
H684 C690 0.930 . S
H685 C694 0.930 . S
H686 C699 0.929 . S
H687 C697 0.929 . S
H688 C692 0.929 . S
H689 C698 0.929 . S
C690 H684 0.930 . S
C690 C691 1.367 . S
C690 C698 1.378 . S
C691 C690 1.367 . S
C691 C699 1.433 1_455 S
C692 H688 0.929 . S
C692 C694 1.378 . S
C692 C696 1.350 1_655 S
C693 C696 1.463 . S
C693 C698 1.350 . S
C693 N701 1.427 1_455 S
C694 H685 0.930 . S
C694 C692 1.378 . S
C694 C695 1.367 1_655 S
C695 C694 1.367 1_455 S
C695 C697 1.433 . S
C696 C692 1.350 1_455 S
C696 C693 1.463 . S
C696 N700 1.427 . S
C697 H687 0.929 . S
C697 C695 1.433 . S
C697 N700 1.384 . S
C698 H689 0.929 . S
C698 C690 1.378 . S
C698 C693 1.350 . S
C699 H686 0.929 . S
C699 C691 1.433 1_655 S
C699 N701 1.384 . S
N700 C696 1.427 . S
N700 C697 1.384 . S
N701 C693 1.427 1_655 S
N701 C699 1.384 . S
H702 C708 0.930 . S
H703 C712 0.930 . S
H704 C717 0.929 . S
H705 C715 0.929 . S
H706 C710 0.929 . S
H707 C716 0.929 . S
C708 H702 0.930 . S
C708 C709 1.367 . S
C708 C716 1.378 . S
C709 C708 1.367 . S
C709 C717 1.433 . S
C710 H706 0.929 . S
C710 C712 1.378 . S
C710 C714 1.350 . S
C711 C714 1.463 . S
C711 C716 1.350 . S
C711 N719 1.427 . S
C712 H703 0.930 . S
C712 C710 1.378 . S
C712 C713 1.367 . S
C713 C712 1.367 . S
C713 C715 1.433 . S
C714 C710 1.350 . S
C714 C711 1.463 . S
C714 N718 1.427 . S
C715 H705 0.929 . S
C715 C713 1.433 . S
C715 N718 1.384 . S
C716 H707 0.929 . S
C716 C708 1.378 . S
C716 C711 1.350 . S
C717 H704 0.929 . S
C717 C709 1.433 . S
C717 N719 1.384 . S
N718 C714 1.427 . S
N718 C715 1.384 . S
N719 C711 1.427 . S
N719 C717 1.384 . S
H720 C726 0.930 . S
H721 C730 0.930 . S
H722 C735 0.923 1_565 S
H723 C733 0.929 . S
H724 C728 0.929 . S
H725 C734 0.929 . S
C726 H720 0.930 . S
C726 C727 1.367 . S
C726 C734 1.378 . S
C727 C726 1.367 . S
C727 C735 1.440 . S
C728 H724 0.929 . S
C728 C730 1.378 . S
C728 C732 1.350 1_565 S
C729 C732 1.463 . S
C729 C734 1.350 . S
C729 N737 1.418 1_545 S
C730 H721 0.930 . S
C730 C728 1.378 . S
C730 C731 1.367 1_565 S
C731 C730 1.367 1_545 S
C731 C733 1.433 . S
C732 C728 1.350 1_545 S
C732 C729 1.463 . S
C732 N736 1.427 . S
C733 H723 0.929 . S
C733 C731 1.433 . S
C733 N736 1.384 . S
C734 H725 0.929 . S
C734 C726 1.378 . S
C734 C729 1.350 . S
C735 H722 0.923 1_545 S
C735 C727 1.440 . S
C735 N737 1.384 1_545 S
N736 C732 1.427 . S
N736 C733 1.384 . S
N737 C729 1.418 1_565 S
N737 C735 1.384 1_565 S
H738 C744 0.930 . S
H739 C748 0.930 . S
H740 C753 0.929 . S
H741 C751 0.929 . S
H742 C746 0.929 . S
H743 C752 0.929 . S
C744 H738 0.930 . S
C744 C745 1.367 . S
C744 C752 1.378 . S
C745 C744 1.367 . S
C745 C753 1.433 . S
C746 H742 0.929 . S
C746 C748 1.378 1_556 S
C746 C750 1.350 . S
C747 C750 1.463 . S
C747 C752 1.350 . S
C747 N755 1.427 . S
C748 H739 0.930 . S
C748 C746 1.378 1_554 S
C748 C749 1.367 . S
C749 C748 1.367 . S
C749 C751 1.433 . S
C750 C746 1.350 . S
C750 C747 1.463 . S
C750 N754 1.427 . S
C751 H741 0.929 . S
C751 C749 1.433 . S
C751 N754 1.384 1_554 S
C752 H743 0.929 . S
C752 C744 1.378 . S
C752 C747 1.350 . S
C753 H740 0.929 . S
C753 C745 1.433 . S
C753 N755 1.384 . S
N754 C750 1.427 . S
N754 C751 1.384 1_556 S
N755 C747 1.427 . S
N755 C753 1.384 . S
H756 C762 0.930 . S
H757 C766 0.930 . S
H758 C771 0.929 . S
H759 C769 0.929 . S
H760 C764 0.929 . S
H761 C770 0.929 . S
C762 H756 0.930 . S
C762 C763 1.367 . S
C762 C770 1.378 . S
C763 C762 1.367 . S
C763 C771 1.433 . S
C764 H760 0.929 . S
C764 C766 1.378 1_556 S
C764 C768 1.350 . S
C765 C768 1.463 . S
C765 C770 1.350 . S
C765 N773 1.427 . S
C766 H757 0.930 . S
C766 C764 1.378 1_554 S
C766 C767 1.367 . S
C767 C766 1.367 . S
C767 C769 1.433 . S
C768 C764 1.350 . S
C768 C765 1.463 . S
C768 N772 1.427 . S
C769 H759 0.929 . S
C769 C767 1.433 . S
C769 N772 1.384 1_554 S
C770 H761 0.929 . S
C770 C762 1.378 . S
C770 C765 1.350 . S
C771 H758 0.929 . S
C771 C763 1.433 . S
C771 N773 1.384 . S
N772 C768 1.427 . S
N772 C769 1.384 1_556 S
N773 C765 1.427 . S
N773 C771 1.384 . S
H774 C780 0.930 . S
H775 C784 0.930 . S
H776 C789 0.929 . S
H777 C787 0.929 . S
H778 C782 0.929 . S
H779 C788 0.929 . S
C780 H774 0.930 . S
C780 C781 1.367 . S
C780 C788 1.378 . S
C781 C780 1.367 . S
C781 C789 1.433 . S
C782 H778 0.929 . S
C782 C784 1.378 1_556 S
C782 C786 1.350 . S
C783 C786 1.463 . S
C783 C788 1.350 . S
C783 N791 1.427 . S
C784 H775 0.930 . S
C784 C782 1.378 1_554 S
C784 C785 1.367 . S
C785 C784 1.367 . S
C785 C787 1.433 . S
C786 C782 1.350 . S
C786 C783 1.463 . S
C786 N790 1.427 . S
C787 H777 0.929 . S
C787 C785 1.433 . S
C787 N790 1.384 1_554 S
C788 H779 0.929 . S
C788 C780 1.378 . S
C788 C783 1.350 . S
C789 H776 0.929 . S
C789 C781 1.433 . S
C789 N791 1.384 . S
N790 C786 1.427 . S
N790 C787 1.384 1_556 S
N791 C783 1.427 . S
N791 C789 1.384 . S
H792 C798 0.930 . S
H793 C802 0.930 . S
H794 C807 0.929 . S
H795 C805 0.929 . S
H796 C800 0.929 . S
H797 C806 0.929 . S
C798 H792 0.930 . S
C798 C799 1.367 . S
C798 C806 1.378 . S
C799 C798 1.367 . S
C799 C807 1.433 . S
C800 H796 0.929 . S
C800 C802 1.378 1_554 S
C800 C804 1.350 . S
C801 C804 1.463 . S
C801 C806 1.350 . S
C801 N809 1.427 . S
C802 H793 0.930 . S
C802 C800 1.378 1_556 S
C802 C803 1.367 . S
C803 C802 1.367 . S
C803 C805 1.433 . S
C804 C800 1.350 . S
C804 C801 1.463 . S
C804 N808 1.427 . S
C805 H795 0.929 . S
C805 C803 1.433 . S
C805 N808 1.384 1_556 S
C806 H797 0.929 . S
C806 C798 1.378 . S
C806 C801 1.350 . S
C807 H794 0.929 . S
C807 C799 1.433 . S
C807 N809 1.384 . S
N808 C804 1.427 . S
N808 C805 1.384 1_554 S
N809 C801 1.427 . S
N809 C807 1.384 . S
H810 C816 0.930 . S
H811 C820 0.930 . S
H812 C825 0.929 . S
H813 C823 0.929 . S
H814 C818 0.929 . S
H815 C824 0.929 . S
C816 H810 0.930 . S
C816 C817 1.367 . S
C816 C824 1.378 1_556 S
C817 C816 1.367 . S
C817 C825 1.433 . S
C818 H814 0.929 . S
C818 C820 1.378 . S
C818 C822 1.350 . S
C819 C822 1.463 . S
C819 C824 1.350 . S
C819 N827 1.427 . S
C820 H811 0.930 . S
C820 C818 1.378 . S
C820 C821 1.367 . S
C821 C820 1.367 . S
C821 C823 1.433 . S
C822 C818 1.350 . S
C822 C819 1.463 . S
C822 N826 1.427 . S
C823 H813 0.929 . S
C823 C821 1.433 . S
C823 N826 1.384 . S
C824 H815 0.929 . S
C824 C816 1.378 1_554 S
C824 C819 1.350 . S
C825 H812 0.929 . S
C825 C817 1.433 . S
C825 N827 1.384 1_556 S
N826 C822 1.427 . S
N826 C823 1.384 . S
N827 C819 1.427 . S
N827 C825 1.384 1_554 S
H828 C834 0.930 . S
H829 C838 0.930 . S
H830 C843 0.929 . S
H831 C841 0.929 . S
H832 C836 0.929 . S
H833 C842 0.929 . S
C834 H828 0.930 . S
C834 C835 1.367 . S
C834 C842 1.378 . S
C835 C834 1.367 . S
C835 C843 1.433 . S
C836 H832 0.929 . S
C836 C838 1.378 1_554 S
C836 C840 1.350 . S
C837 C840 1.463 . S
C837 C842 1.350 . S
C837 N845 1.427 . S
C838 H829 0.930 . S
C838 C836 1.378 1_556 S
C838 C839 1.367 . S
C839 C838 1.367 . S
C839 C841 1.433 . S
C840 C836 1.350 . S
C840 C837 1.463 . S
C840 N844 1.427 . S
C841 H831 0.929 . S
C841 C839 1.433 . S
C841 N844 1.384 1_556 S
C842 H833 0.929 . S
C842 C834 1.378 . S
C842 C837 1.350 . S
C843 H830 0.929 . S
C843 C835 1.433 . S
C843 N845 1.384 . S
N844 C840 1.427 . S
N844 C841 1.384 1_554 S
N845 C837 1.427 . S
N845 C843 1.384 . S
C367 C7 1.928 . S
C371 C282 1.870 . S
C385 C47 1.930 . S
C389 C322 1.871 . S
C403 C87 1.923 . S
C407 C242 1.858 . S
C421 C167 1.931 . S
C425 C82 1.871 . S
C439 C207 1.925 . S
C443 C2 1.865 . S
C457 C42 1.859 . S
C461 C127 1.923 . S
C475 C287 1.923 . S
C479 C202 1.860 . S
C493 C327 1.927 . S
C497 C122 1.861 . S
C511 C162 1.860 . S
C515 C247 1.923 1_545 S
C529 C96 1.700 . S
C533 C11 1.702 1_554 S
C547 C51 1.706 1_554 S
C551 C16 1.696 . S
C565 C56 1.701 1_455 S
C569 C91 1.702 1_554 S
C583 C131 1.706 . S
C587 C216 1.695 . S
C601 C136 1.696 . S
C605 C171 1.705 . S
C619 C176 1.695 . S
C623 C211 1.706 . S
C637 C336 1.697 . S
C641 C251 1.705 . S
C655 C291 1.706 . S
C659 C256 1.695 . S
C673 C331 1.706 . S
C677 C296 1.695 . S
C691 C19 0.983 . S
C695 C10 0.983 . S
C709 C59 0.968 . S
C713 C50 0.968 . S
C727 C99 0.974 . S
C731 C90 0.974 . S
C745 C130 0.968 . S
C749 C139 0.968 . S
C763 C170 0.966 . S
C767 C179 0.966 . S
C781 C210 0.984 . S
C785 C219 0.984 . S
C799 C259 0.975 . S
C803 C250 0.975 . S
C817 C290 0.975 . S
C821 C299 0.975 . S
C835 C339 0.975 . S
C839 C330 0.975 . S
