# Generated by pormake.
# Topology fnl, (5)-cn, num edge types: 1
# Building blocks:
#     Node 0, Type 0, BuildingBlock: XOMCOT_clean_sbu_0, # of connection points: 5
#     Node 1, Type 0, BuildingBlock: XOMCOT_clean_sbu_0, # of connection points: 5
#     Node 2, Type 0, BuildingBlock: XOMCOT_clean_sbu_0, # of connection points: 5
#     Node 3, Type 0, BuildingBlock: XOMCOT_clean_sbu_0, # of connection points: 5
#     Node 4, Type 0, BuildingBlock: XOMCOT_clean_sbu_0, # of connection points: 5
#     Node 5, Type 0, BuildingBlock: XOMCOT_clean_sbu_0, # of connection points: 5
#     Node 6, Type 0, BuildingBlock: XOMCOT_clean_sbu_0, # of connection points: 5
#     Node 7, Type 0, BuildingBlock: XOMCOT_clean_sbu_0, # of connection points: 5
#     Node 8, Type 0, BuildingBlock: XOMCOT_clean_sbu_0, # of connection points: 5
#     Node 9, Type 0, BuildingBlock: XOMCOT_clean_sbu_0, # of connection points: 5
#     Node 10, Type 0, BuildingBlock: XOMCOT_clean_sbu_0, # of connection points: 5
#     Node 11, Type 0, BuildingBlock: XOMCOT_clean_sbu_0, # of connection points: 5
#     Node 12, Type 0, BuildingBlock: XOMCOT_clean_sbu_0, # of connection points: 5
#     Node 13, Type 0, BuildingBlock: XOMCOT_clean_sbu_0, # of connection points: 5
#     Node 14, Type 0, BuildingBlock: XOMCOT_clean_sbu_0, # of connection points: 5
#     Node 15, Type 0, BuildingBlock: XOMCOT_clean_sbu_0, # of connection points: 5
#     Edge 16, Type (0, 0), BuildingBlock: OJICUG_clean_linker_0, # of connection points: 2
#     Edge 17, Type (0, 0), BuildingBlock: OJICUG_clean_linker_0, # of connection points: 2
#     Edge 18, Type (0, 0), BuildingBlock: OJICUG_clean_linker_0, # of connection points: 2
#     Edge 19, Type (0, 0), BuildingBlock: OJICUG_clean_linker_0, # of connection points: 2
#     Edge 20, Type (0, 0), BuildingBlock: OJICUG_clean_linker_0, # of connection points: 2
#     Edge 21, Type (0, 0), BuildingBlock: OJICUG_clean_linker_0, # of connection points: 2
#     Edge 22, Type (0, 0), BuildingBlock: OJICUG_clean_linker_0, # of connection points: 2
#     Edge 23, Type (0, 0), BuildingBlock: OJICUG_clean_linker_0, # of connection points: 2
#     Edge 24, Type (0, 0), BuildingBlock: OJICUG_clean_linker_0, # of connection points: 2
#     Edge 25, Type (0, 0), BuildingBlock: OJICUG_clean_linker_0, # of connection points: 2
#     Edge 26, Type (0, 0), BuildingBlock: OJICUG_clean_linker_0, # of connection points: 2
#     Edge 27, Type (0, 0), BuildingBlock: OJICUG_clean_linker_0, # of connection points: 2
#     Edge 28, Type (0, 0), BuildingBlock: OJICUG_clean_linker_0, # of connection points: 2
#     Edge 29, Type (0, 0), BuildingBlock: OJICUG_clean_linker_0, # of connection points: 2
#     Edge 30, Type (0, 0), BuildingBlock: OJICUG_clean_linker_0, # of connection points: 2
#     Edge 31, Type (0, 0), BuildingBlock: OJICUG_clean_linker_0, # of connection points: 2
#     Edge 32, Type (0, 0), BuildingBlock: OJICUG_clean_linker_0, # of connection points: 2
#     Edge 33, Type (0, 0), BuildingBlock: OJICUG_clean_linker_0, # of connection points: 2
#     Edge 34, Type (0, 0), BuildingBlock: OJICUG_clean_linker_0, # of connection points: 2
#     Edge 35, Type (0, 0), BuildingBlock: OJICUG_clean_linker_0, # of connection points: 2
#     Edge 36, Type (0, 0), BuildingBlock: OJICUG_clean_linker_0, # of connection points: 2
#     Edge 37, Type (0, 0), BuildingBlock: OJICUG_clean_linker_0, # of connection points: 2
#     Edge 38, Type (0, 0), BuildingBlock: OJICUG_clean_linker_0, # of connection points: 2
#     Edge 39, Type (0, 0), BuildingBlock: OJICUG_clean_linker_0, # of connection points: 2
#     Edge 40, Type (0, 0), BuildingBlock: OJICUG_clean_linker_0, # of connection points: 2
#     Edge 41, Type (0, 0), BuildingBlock: OJICUG_clean_linker_0, # of connection points: 2
#     Edge 42, Type (0, 0), BuildingBlock: OJICUG_clean_linker_0, # of connection points: 2
#     Edge 43, Type (0, 0), BuildingBlock: OJICUG_clean_linker_0, # of connection points: 2
#     Edge 44, Type (0, 0), BuildingBlock: OJICUG_clean_linker_0, # of connection points: 2
#     Edge 45, Type (0, 0), BuildingBlock: OJICUG_clean_linker_0, # of connection points: 2
#     Edge 46, Type (0, 0), BuildingBlock: OJICUG_clean_linker_0, # of connection points: 2
#     Edge 47, Type (0, 0), BuildingBlock: OJICUG_clean_linker_0, # of connection points: 2
#     Edge 48, Type (0, 0), BuildingBlock: OJICUG_clean_linker_0, # of connection points: 2
#     Edge 49, Type (0, 0), BuildingBlock: OJICUG_clean_linker_0, # of connection points: 2
#     Edge 50, Type (0, 0), BuildingBlock: OJICUG_clean_linker_0, # of connection points: 2
#     Edge 51, Type (0, 0), BuildingBlock: OJICUG_clean_linker_0, # of connection points: 2
#     Edge 52, Type (0, 0), BuildingBlock: OJICUG_clean_linker_0, # of connection points: 2
#     Edge 53, Type (0, 0), BuildingBlock: OJICUG_clean_linker_0, # of connection points: 2
#     Edge 54, Type (0, 0), BuildingBlock: OJICUG_clean_linker_0, # of connection points: 2
#     Edge 55, Type (0, 0), BuildingBlock: OJICUG_clean_linker_0, # of connection points: 2
# Relax obj value: 0.549
# Max RMSD: 0.272
# Mean RMSD: 0.272
data_MOF--net-fnl--node1-XOMCOT_clean_sbu_0--edge1-OJICUG_clean_linker_0
_symmetry_space_group_name_H-M    P1
_symmetry_Int_Tables_number       1
_symmetry_cell_setting            triclinic
loop_
_symmetry_equiv_pos_as_xyz
'x, y, z'
_cell_length_a     26.507033
_cell_length_b     26.504124
_cell_length_c     71.01283
_cell_angle_alpha  89.992
_cell_angle_beta   90.091322
_cell_angle_gamma 89.991405
loop_
_atom_site_label
_atom_site_type_symbol
_atom_site_fract_x
_atom_site_fract_y
_atom_site_fract_z
_atom_type_partial_charge
Co0 Co 0.02404 0.07798 0.06318 0.0
C1 C 0.00681 0.18318 0.07309 0.0
C2 C 0.08274 0.1623 0.08017 0.0
C3 C 0.07512 0.21218 0.08512 0.0
N4 N 0.03974 0.1444 0.07264 0.0
N5 N 0.02721 0.22521 0.08068 0.0
H6 H 0.96876 0.18057 0.06766 0.0
H7 H 0.11712 0.14094 0.08197 0.0
C8 C 0.11314 0.03266 0.08265 0.0
O9 O 0.14056 0.0466 0.06818 0.0
N10 N 0.00554 0.01148 0.0537 0.0
C11 C 0.98016 0.00104 0.03763 0.0
C12 C 0.96931 0.95054 0.03703 0.0
C13 C 0.00871 0.96678 0.06279 0.0
N14 N 0.98719 0.92899 0.05284 0.0
C15 C 0.91921 0.0711 0.07131 0.0
C16 C 0.92975 0.06406 0.10996 0.0
C17 C 0.88269 0.05328 0.10177 0.0
C18 C 0.87711 0.05986 0.08227 0.0
C19 C 0.97072 0.07595 0.0985 0.0
N20 N 0.96561 0.07611 0.07939 0.0
H21 H 0.91511 0.07284 0.05619 0.0
H22 H 0.00705 0.08246 0.10496 0.0
H23 H 0.96803 0.02811 0.02724 0.0
H24 H 0.02575 0.96191 0.07649 0.0
O25 O 0.99438 0.10892 0.04118 0.0
O26 O 0.07386 0.08437 0.04333 0.0
O27 O 0.06644 0.04461 0.08336 0.0
C28 C 0.03771 0.10257 0.03294 0.0
H29 H 0.10275 0.23668 0.09163 0.0
H30 H 0.94839 0.93149 0.02603 0.0
H31 H 0.93607 0.05972 0.12494 0.0
H32 H 0.84122 0.05336 0.07538 0.0
Co33 Co 0.25752 0.84264 0.30723 0.0
C34 C 0.15216 0.82085 0.31774 0.0
C35 C 0.16191 0.89866 0.31019 0.0
C36 C 0.11119 0.88946 0.31266 0.0
N37 N 0.18768 0.85577 0.31359 0.0
N38 N 0.10515 0.8405 0.31736 0.0
H39 H 0.16016 0.78115 0.3197 0.0
H40 H 0.17866 0.93365 0.30547 0.0
C41 C 0.26703 0.92269 0.33869 0.0
O42 O 0.21932 0.92007 0.34349 0.0
N43 N 0.32733 0.82828 0.30072 0.0
C44 C 0.34664 0.81014 0.28446 0.0
C45 C 0.39673 0.79878 0.28717 0.0
C46 C 0.36611 0.82735 0.31304 0.0
N47 N 0.40879 0.8094 0.30517 0.0
C48 C 0.27829 0.74316 0.3195 0.0
C49 C 0.26263 0.75873 0.35745 0.0
C50 C 0.28654 0.71402 0.35162 0.0
C51 C 0.29227 0.70572 0.33222 0.0
C52 C 0.25059 0.79584 0.34423 0.0
N53 N 0.26098 0.78871 0.32564 0.0
H54 H 0.28501 0.73701 0.30467 0.0
H55 H 0.23399 0.83043 0.34907 0.0
H56 H 0.32607 0.80365 0.27158 0.0
H57 H 0.36252 0.83734 0.32775 0.0
O58 O 0.23414 0.80408 0.28591 0.0
O59 O 0.25158 0.88591 0.2854 0.0
O60 O 0.28487 0.89475 0.32561 0.0
C61 C 0.23738 0.84575 0.27625 0.0
H62 H 0.08095 0.91638 0.31064 0.0
H63 H 0.42226 0.78387 0.27668 0.0
H64 H 0.25505 0.76604 0.37217 0.0
H65 H 0.31042 0.67217 0.32682 0.0
Co66 Co 0.49072 0.05876 0.55899 0.0
C67 C 0.50895 0.95177 0.56916 0.0
C68 C 0.42993 0.96896 0.56857 0.0
C69 C 0.43589 0.9189 0.57347 0.0
N70 N 0.47587 0.98977 0.56622 0.0
N71 N 0.48567 0.90826 0.57379 0.0
H72 H 0.54925 0.95533 0.56794 0.0
H73 H 0.39457 0.98882 0.56685 0.0
C74 C 0.42393 0.07202 0.59372 0.0
O75 O 0.44578 0.0341 0.60243 0.0
N76 N 0.50701 0.12732 0.55176 0.0
C77 C 0.54425 0.14166 0.53996 0.0
C78 C 0.55037 0.19302 0.54119 0.0
C79 C 0.4914 0.17024 0.5601 0.0
N80 N 0.51734 0.21084 0.55397 0.0
C81 C 0.59246 0.0432 0.5715 0.0
C82 C 0.58569 0.09984 0.60398 0.0
C83 C 0.63238 0.07939 0.59892 0.0
C84 C 0.63571 0.05091 0.58241 0.0
C85 C 0.5438 0.0921 0.59252 0.0
N86 N 0.54674 0.06255 0.57679 0.0
H87 H 0.59636 0.02294 0.55842 0.0
H88 H 0.51033 0.11303 0.59585 0.0
H89 H 0.56735 0.11655 0.53165 0.0
H90 H 0.46387 0.17164 0.57128 0.0
O91 O 0.52611 0.03425 0.53695 0.0
O92 O 0.44488 0.05341 0.53798 0.0
O93 O 0.43885 0.0855 0.57738 0.0
C94 C 0.48352 0.0396 0.52801 0.0
H95 H 0.4059 0.89218 0.5762 0.0
H96 H 0.5778 0.21526 0.53356 0.0
H97 H 0.58219 0.12436 0.61612 0.0
H98 H 0.67155 0.03579 0.57777 0.0
Co99 Co 0.25475 0.27093 0.81124 0.0
C100 C 0.35985 0.28442 0.82213 0.0
C101 C 0.34454 0.20667 0.81596 0.0
C102 C 0.39578 0.21254 0.8184 0.0
N103 N 0.32206 0.2517 0.81859 0.0
N104 N 0.40524 0.26157 0.82217 0.0
H105 H 0.35467 0.32485 0.82299 0.0
H106 H 0.32538 0.17263 0.81154 0.0
C107 C 0.23348 0.19229 0.84265 0.0
O108 O 0.281 0.18495 0.84707 0.0
N109 N 0.18752 0.29176 0.80379 0.0
C110 C 0.17038 0.3095 0.78712 0.0
C111 C 0.12089 0.32393 0.78919 0.0
C112 C 0.14847 0.29665 0.81574 0.0
N113 N 0.10735 0.31581 0.80721 0.0
C114 C 0.24287 0.37262 0.82249 0.0
C115 C 0.24802 0.3554 0.86078 0.0
C116 C 0.22723 0.40104 0.85426 0.0
C117 C 0.22768 0.41047 0.83482 0.0
C118 C 0.2614 0.318 0.84791 0.0
N119 N 0.25536 0.32596 0.82909 0.0
H120 H 0.23963 0.37909 0.80751 0.0
H121 H 0.27422 0.282 0.85308 0.0
H122 H 0.19182 0.31278 0.77431 0.0
H123 H 0.15059 0.28769 0.83058 0.0
O124 O 0.28317 0.3052 0.78983 0.0
O125 O 0.25763 0.22541 0.79011 0.0
O126 O 0.22102 0.22404 0.82991 0.0
C127 C 0.27606 0.26324 0.78065 0.0
H128 H 0.42402 0.1834 0.81669 0.0
H129 H 0.09649 0.33814 0.77816 0.0
H130 H 0.25098 0.34729 0.87568 0.0
H131 H 0.21242 0.4449 0.82893 0.0
Co132 Co 0.03048 0.05532 0.92172 0.0
C133 C 0.03549 0.94749 0.92929 0.0
C134 C 0.09818 0.97001 0.91229 0.0
C135 C 0.09542 0.91791 0.91236 0.0
N136 N 0.06002 0.9885 0.92275 0.0
N137 N 0.05524 0.90394 0.92278 0.0
H138 H 0.00147 0.94955 0.93757 0.0
H139 H 0.12358 0.99241 0.90383 0.0
C140 C 0.07035 0.1089 0.88719 0.0
O141 O 0.02675 0.13191 0.88534 0.0
N142 N 0.99855 0.12142 0.92096 0.0
C143 C 0.94934 0.13128 0.91758 0.0
C144 C 0.94143 0.18215 0.91836 0.0
C145 C 0.01961 0.16701 0.92436 0.0
N146 N 0.98548 0.20462 0.92256 0.0
C147 C 0.93484 0.00847 0.91515 0.0
C148 C 0.92848 0.03426 0.87766 0.0
C149 C 0.88384 0.02762 0.88803 0.0
C150 C 0.88798 0.00778 0.90624 0.0
C151 C 0.97493 0.03219 0.88697 0.0
N152 N 0.97638 0.02714 0.90608 0.0
H153 H 0.93558 0.00071 0.93003 0.0
H154 H 0.0086 0.03891 0.87897 0.0
H155 H 0.92018 0.1041 0.91502 0.0
H156 H 0.05895 0.17256 0.92789 0.0
O157 O 0.99997 0.04589 0.94614 0.0
O158 O 0.07563 0.07883 0.94147 0.0
O159 O 0.07605 0.07424 0.89965 0.0
C160 C 0.03999 0.0669 0.9532 0.0
H161 H 0.11833 0.89268 0.90398 0.0
H162 H 0.90551 0.2011 0.91665 0.0
H163 H 0.92772 0.04679 0.86315 0.0
H164 H 0.85469 0.99922 0.91447 0.0
Co165 Co 0.25604 0.83321 0.16357 0.0
C166 C 0.36431 0.83795 0.1698 0.0
C167 C 0.34158 0.90055 0.1527 0.0
C168 C 0.39384 0.89953 0.15367 0.0
N169 N 0.32331 0.86156 0.16282 0.0
N170 N 0.40771 0.85952 0.16423 0.0
H171 H 0.36276 0.80409 0.17823 0.0
H172 H 0.31903 0.9262 0.14436 0.0
C173 C 0.19169 0.87906 0.13275 0.0
O174 O 0.16381 0.8382 0.13269 0.0
N175 N 0.18988 0.80159 0.16504 0.0
C176 C 0.17827 0.75323 0.16077 0.0
C177 C 0.12854 0.74459 0.16472 0.0
C178 C 0.14685 0.82119 0.17216 0.0
N179 N 0.10888 0.7872 0.17186 0.0
C180 C 0.30139 0.73879 0.15419 0.0
C181 C 0.26364 0.73428 0.11806 0.0
C182 C 0.27507 0.6892 0.12757 0.0
C183 C 0.30026 0.69257 0.14486 0.0
C184 C 0.26693 0.78003 0.12772 0.0
N185 N 0.27921 0.78049 0.14639 0.0
H186 H 0.31387 0.73881 0.16862 0.0
H187 H 0.25503 0.81365 0.12055 0.0
H188 H 0.20362 0.72516 0.15541 0.0
H189 H 0.14318 0.85955 0.17718 0.0
O190 O 0.27103 0.80065 0.18729 0.0
O191 O 0.23853 0.87717 0.1844 0.0
O192 O 0.23263 0.8809 0.14248 0.0
C193 C 0.25309 0.84074 0.1954 0.0
H194 H 0.41952 0.92419 0.14622 0.0
H195 H 0.10864 0.70923 0.16294 0.0
H196 H 0.24606 0.73401 0.10429 0.0
H197 H 0.31184 0.65889 0.15235 0.0
Co198 Co 0.4714 0.06035 0.4154 0.0
C199 C 0.46991 0.16971 0.42279 0.0
C200 C 0.40436 0.1494 0.40699 0.0
C201 C 0.40499 0.20127 0.4093 0.0
N202 N 0.44622 0.12971 0.41495 0.0
N203 N 0.44665 0.21396 0.41918 0.0
H204 H 0.50414 0.16672 0.43089 0.0
H205 H 0.37512 0.12816 0.39998 0.0
C206 C 0.40726 0.04995 0.37979 0.0
O207 O 0.43111 0.08744 0.37159 0.0
N208 N 0.4986 0.9928 0.41645 0.0
C209 C 0.54836 0.98258 0.41762 0.0
C210 C 0.55489 0.93153 0.41859 0.0
C211 C 0.47519 0.94768 0.41735 0.0
N212 N 0.50908 0.9096 0.41846 0.0
C213 C 0.5607 0.10681 0.40106 0.0
C214 C 0.57428 0.03755 0.37253 0.0
C215 C 0.61605 0.06401 0.37948 0.0
C216 C 0.60825 0.10155 0.39293 0.0
C217 C 0.52758 0.04327 0.38127 0.0
N218 N 0.52178 0.07556 0.39615 0.0
H219 H 0.55829 0.13053 0.41322 0.0
H220 H 0.499 0.01568 0.378 0.0
H221 H 0.578 0.01053 0.41814 0.0
H222 H 0.43465 0.94287 0.41756 0.0
O223 O 0.51106 0.07521 0.43761 0.0
O224 O 0.43231 0.04703 0.43778 0.0
O225 O 0.41871 0.03662 0.39656 0.0
C226 C 0.47232 0.05981 0.44728 0.0
H227 H 0.37697 0.22743 0.40405 0.0
H228 H 0.59053 0.91204 0.42027 0.0
H229 H 0.57907 0.0073 0.36242 0.0
H230 H 0.63986 0.12227 0.39877 0.0
Co231 Co 0.26481 0.2668 0.66841 0.0
C232 C 0.15448 0.26043 0.67262 0.0
C233 C 0.1797 0.20098 0.65458 0.0
C234 C 0.12753 0.20194 0.65439 0.0
N235 N 0.19676 0.23926 0.66544 0.0
N236 N 0.11209 0.2394 0.66579 0.0
H237 H 0.15414 0.29236 0.68206 0.0
H238 H 0.20279 0.1744 0.64702 0.0
C239 C 0.286 0.20759 0.63209 0.0
O240 O 0.2495 0.23054 0.62291 0.0
N241 N 0.33057 0.29692 0.67204 0.0
C242 C 0.33792 0.3468 0.67446 0.0
C243 C 0.38776 0.35535 0.67819 0.0
C244 C 0.3761 0.27545 0.67479 0.0
N245 N 0.412 0.31059 0.6786 0.0
C246 C 0.21683 0.35606 0.65442 0.0
C247 C 0.28658 0.37362 0.62637 0.0
C248 C 0.25536 0.41311 0.63229 0.0
C249 C 0.21859 0.40343 0.64586 0.0
C250 C 0.28463 0.32745 0.63565 0.0
N251 N 0.25094 0.31929 0.64989 0.0
H252 H 0.19239 0.35187 0.66635 0.0
H253 H 0.3148 0.30113 0.63301 0.0
H254 H 0.30871 0.37521 0.6739 0.0
H255 H 0.38219 0.23511 0.67461 0.0
O256 O 0.24412 0.30184 0.69096 0.0
O257 O 0.27566 0.22425 0.68999 0.0
O258 O 0.29479 0.21817 0.64936 0.0
C259 C 0.25968 0.262 0.70001 0.0
H260 H 0.10291 0.17777 0.64622 0.0
H261 H 0.4044 0.39205 0.68052 0.0
H262 H 0.31676 0.38024 0.61639 0.0
H263 H 0.19473 0.43352 0.65108 0.0
Co264 Co 0.77149 0.3209 0.68491 0.0
C265 C 0.88097 0.31791 0.68303 0.0
C266 C 0.853 0.38152 0.66751 0.0
C267 C 0.90363 0.37532 0.66347 0.0
N268 N 0.83881 0.34515 0.67969 0.0
N269 N 0.92089 0.33535 0.67329 0.0
H270 H 0.88135 0.28297 0.69091 0.0
H271 H 0.82786 0.40824 0.66085 0.0
C272 C 0.70526 0.3611 0.65331 0.0
O273 O 0.68387 0.31656 0.65178 0.0
N274 N 0.70492 0.29351 0.69064 0.0
C275 C 0.69553 0.24614 0.69676 0.0
C276 C 0.64453 0.23905 0.69812 0.0
C277 C 0.65905 0.31569 0.68977 0.0
N278 N 0.62162 0.28251 0.69346 0.0
C279 C 0.79266 0.21899 0.67353 0.0
C280 C 0.779 0.23493 0.6355 0.0
C281 C 0.7757 0.18556 0.64257 0.0
C282 C 0.78759 0.17757 0.66158 0.0
C283 C 0.78485 0.27507 0.64803 0.0
N284 N 0.78416 0.26663 0.66698 0.0
H285 H 0.79988 0.21238 0.68827 0.0
H286 H 0.78638 0.31287 0.64245 0.0
H287 H 0.72342 0.21817 0.70026 0.0
H288 H 0.65288 0.35447 0.68561 0.0
O289 O 0.79544 0.28932 0.70783 0.0
O290 O 0.76457 0.3668 0.70591 0.0
O291 O 0.74195 0.3679 0.66485 0.0
C292 C 0.78172 0.33046 0.71642 0.0
H293 H 0.92541 0.39683 0.65339 0.0
H294 H 0.62563 0.20441 0.70206 0.0
H295 H 0.77244 0.24319 0.62077 0.0
H296 H 0.78884 0.13987 0.66745 0.0
Co297 Co 0.75455 0.78203 0.19139 0.0
C298 C 0.64735 0.79764 0.18031 0.0
C299 C 0.66434 0.71965 0.18501 0.0
C300 C 0.61377 0.72416 0.18081 0.0
N301 N 0.68552 0.76574 0.18452 0.0
N302 N 0.60291 0.77341 0.17782 0.0
H303 H 0.65151 0.83782 0.17952 0.0
H304 H 0.68414 0.68523 0.18854 0.0
C305 C 0.76541 0.71336 0.15765 0.0
O306 O 0.72673 0.73583 0.14964 0.0
N307 N 0.82268 0.7998 0.1985 0.0
C308 C 0.83601 0.84283 0.20735 0.0
C309 C 0.88748 0.84775 0.20672 0.0
C310 C 0.86631 0.77913 0.1926 0.0
N311 N 0.90652 0.80794 0.19729 0.0
C312 C 0.73782 0.88137 0.17616 0.0
C313 C 0.79858 0.86936 0.14497 0.0
C314 C 0.77584 0.91619 0.14811 0.0
C315 C 0.74547 0.92231 0.16404 0.0
C316 C 0.79071 0.83004 0.15753 0.0
N317 N 0.75869 0.8352 0.17246 0.0
H318 H 0.71633 0.88738 0.18886 0.0
H319 H 0.81344 0.79683 0.15571 0.0
H320 H 0.81003 0.87069 0.21276 0.0
H321 H 0.86844 0.74503 0.18432 0.0
O322 O 0.73013 0.8205 0.21273 0.0
O323 O 0.74944 0.73913 0.21311 0.0
O324 O 0.78107 0.72809 0.17376 0.0
C325 C 0.73565 0.77903 0.22236 0.0
H326 H 0.58717 0.69327 0.1805 0.0
H327 H 0.90871 0.88003 0.21164 0.0
H328 H 0.8249 0.86397 0.13348 0.0
H329 H 0.7288 0.95857 0.16732 0.0
Co330 Co 0.75274 0.33067 0.8289 0.0
C331 C 0.64205 0.32584 0.82719 0.0
C332 C 0.66617 0.40181 0.83178 0.0
C333 C 0.614 0.40112 0.83059 0.0
N334 N 0.6835 0.35414 0.83006 0.0
N335 N 0.59931 0.3531 0.82755 0.0
H336 H 0.64247 0.2861 0.82449 0.0
H337 H 0.68973 0.43478 0.83355 0.0
C338 C 0.75281 0.39393 0.86441 0.0
O339 O 0.70875 0.37475 0.86893 0.0
N340 N 0.82071 0.30628 0.82738 0.0
C341 C 0.83407 0.25757 0.8251 0.0
C342 C 0.88554 0.25438 0.82524 0.0
C343 C 0.86411 0.33244 0.82838 0.0
N344 N 0.90417 0.30129 0.8273 0.0
C345 C 0.71679 0.2331 0.83981 0.0
C346 C 0.7718 0.22723 0.87268 0.0
C347 C 0.75197 0.18288 0.86488 0.0
C348 C 0.72192 0.18666 0.8488 0.0
C349 C 0.76576 0.27305 0.86326 0.0
N350 N 0.73948 0.27576 0.84669 0.0
H351 H 0.70061 0.23236 0.82592 0.0
H352 H 0.78814 0.30423 0.86817 0.0
H353 H 0.80828 0.22649 0.82314 0.0
H354 H 0.86636 0.37307 0.82968 0.0
O355 O 0.73826 0.29528 0.80575 0.0
O356 O 0.76488 0.37431 0.80741 0.0
O357 O 0.77467 0.37981 0.84927 0.0
C358 C 0.75283 0.33573 0.79699 0.0
H359 H 0.58907 0.43339 0.83138 0.0
H360 H 0.90774 0.22055 0.82314 0.0
H361 H 0.79672 0.22585 0.88478 0.0
H362 H 0.70666 0.15317 0.84215 0.0
Co363 Co 0.76013 0.77339 0.33474 0.0
C364 C 0.86922 0.77134 0.3269 0.0
C365 C 0.84907 0.70571 0.34263 0.0
C366 C 0.90084 0.70596 0.34004 0.0
N367 N 0.82937 0.74783 0.33488 0.0
N368 N 0.91342 0.74764 0.33018 0.0
H369 H 0.86619 0.80573 0.3189 0.0
H370 H 0.82789 0.67651 0.34966 0.0
C371 C 0.75011 0.70826 0.37014 0.0
O372 O 0.78785 0.7313 0.37852 0.0
N373 N 0.69265 0.801 0.334 0.0
C374 C 0.68258 0.85084 0.33319 0.0
C375 C 0.63158 0.85761 0.33207 0.0
C376 C 0.64746 0.77782 0.33271 0.0
N377 N 0.60949 0.81189 0.33171 0.0
C378 C 0.80723 0.86265 0.34885 0.0
C379 C 0.73945 0.87585 0.37787 0.0
C380 C 0.76509 0.91781 0.37069 0.0
C381 C 0.80207 0.9102 0.35702 0.0
C382 C 0.74501 0.82916 0.36909 0.0
N383 N 0.77639 0.8236 0.35394 0.0
H384 H 0.83028 0.86032 0.33652 0.0
H385 H 0.71773 0.80047 0.37253 0.0
H386 H 0.7106 0.88042 0.33289 0.0
H387 H 0.64256 0.73731 0.33204 0.0
O388 O 0.77434 0.81275 0.31239 0.0
O389 O 0.74573 0.73412 0.31259 0.0
O390 O 0.73663 0.7208 0.35351 0.0
C391 C 0.75832 0.77381 0.30293 0.0
H392 H 0.927 0.67763 0.34505 0.0
H393 H 0.61228 0.8934 0.33053 0.0
H394 H 0.70969 0.88044 0.38817 0.0
H395 H 0.82219 0.94194 0.35102 0.0
Co396 Co 0.53864 0.5625 0.58436 0.0
C397 C 0.54359 0.67257 0.59024 0.0
C398 C 0.61616 0.64343 0.58304 0.0
C399 C 0.61821 0.69553 0.58266 0.0
N400 N 0.56906 0.62887 0.58777 0.0
N401 N 0.57222 0.71375 0.58709 0.0
H402 H 0.50377 0.67488 0.59269 0.0
H403 H 0.64596 0.61846 0.57855 0.0
C404 C 0.62546 0.51855 0.60517 0.0
O405 O 0.65334 0.5298 0.59052 0.0
N406 N 0.50671 0.4978 0.58063 0.0
C407 C 0.45801 0.49088 0.57575 0.0
C408 C 0.44963 0.44053 0.57295 0.0
C409 C 0.52768 0.45148 0.58036 0.0
N410 N 0.49335 0.41574 0.57579 0.0
C411 C 0.44179 0.60333 0.59305 0.0
C412 C 0.43091 0.5526 0.62668 0.0
C413 C 0.38772 0.56919 0.61705 0.0
C414 C 0.39394 0.59854 0.60089 0.0
C415 C 0.47828 0.55847 0.6184 0.0
N416 N 0.48277 0.58018 0.60103 0.0
H417 H 0.44459 0.62105 0.57941 0.0
H418 H 0.5098 0.54047 0.62522 0.0
H419 H 0.43078 0.52042 0.57335 0.0
H420 H 0.56728 0.44429 0.58292 0.0
O421 O 0.50995 0.58421 0.56073 0.0
O422 O 0.58442 0.54746 0.56378 0.0
O423 O 0.57928 0.53249 0.60574 0.0
C424 C 0.54956 0.56512 0.55273 0.0
H425 H 0.65031 0.71797 0.57839 0.0
H426 H 0.41469 0.42383 0.56809 0.0
H427 H 0.42782 0.52977 0.63928 0.0
H428 H 0.36154 0.61256 0.59318 0.0
Co429 Co 0.95662 0.57247 0.07844 0.0
C430 C 0.95423 0.46376 0.08885 0.0
C431 C 0.88888 0.48457 0.07301 0.0
C432 C 0.89095 0.43259 0.07416 0.0
N433 N 0.92947 0.50435 0.08184 0.0
N434 N 0.93278 0.4196 0.08383 0.0
H435 H 0.9884 0.46566 0.09699 0.0
H436 H 0.86169 0.50588 0.0649 0.0
C437 C 0.89686 0.58231 0.11458 0.0
O438 O 0.91371 0.5388 0.12082 0.0
N439 N 0.98505 0.6388 0.07478 0.0
C440 C 0.03319 0.64758 0.06956 0.0
C441 C 0.03967 0.69836 0.06702 0.0
C442 C 0.96257 0.68445 0.0752 0.0
N443 N 0.99555 0.72129 0.07068 0.0
C444 C 0.05234 0.53065 0.08734 0.0
C445 C 0.07005 0.59054 0.11842 0.0
C446 C 0.11069 0.56577 0.10978 0.0
C447 C 0.10105 0.53369 0.09462 0.0
C448 C 0.02188 0.58685 0.11059 0.0
N449 N 0.0137 0.55835 0.09487 0.0
H450 H 0.04647 0.50862 0.07474 0.0
H451 H 0.99299 0.61153 0.11596 0.0
H452 H 0.06128 0.61884 0.06703 0.0
H453 H 0.92282 0.69036 0.07791 0.0
O454 O 0.98639 0.55261 0.05485 0.0
O455 O 0.90987 0.58534 0.05801 0.0
O456 O 0.91237 0.60013 0.09896 0.0
C457 C 0.94554 0.56961 0.04693 0.0
H458 H 0.86598 0.40653 0.06701 0.0
H459 H 0.07348 0.717 0.06204 0.0
H460 H 0.07624 0.61678 0.12989 0.0
H461 H 0.13152 0.51408 0.08758 0.0
Co462 Co 0.54191 0.55768 0.44144 0.0
C463 C 0.52092 0.45257 0.43058 0.0
C464 C 0.59882 0.46268 0.43799 0.0
C465 C 0.58984 0.41192 0.43543 0.0
N466 N 0.55568 0.48821 0.43478 0.0
N467 N 0.54083 0.40568 0.43083 0.0
H468 H 0.48114 0.46032 0.42875 0.0
H469 H 0.63378 0.47956 0.44269 0.0
C470 C 0.61951 0.56806 0.40941 0.0
O471 O 0.61584 0.52065 0.40425 0.0
N472 N 0.52635 0.62705 0.44813 0.0
C473 C 0.50673 0.64559 0.46427 0.0
C474 C 0.49438 0.69547 0.46162 0.0
C475 C 0.52494 0.66596 0.43589 0.0
N476 N 0.50568 0.70809 0.44375 0.0
C477 C 0.4398 0.57147 0.43161 0.0
C478 C 0.45177 0.57233 0.39298 0.0
C479 C 0.40646 0.58956 0.40082 0.0
C480 C 0.39983 0.58686 0.42029 0.0
C481 C 0.49121 0.5577 0.40489 0.0
N482 N 0.48565 0.56018 0.42397 0.0
H483 H 0.43514 0.57294 0.4467 0.0
H484 H 0.52654 0.54691 0.39871 0.0
H485 H 0.4998 0.62455 0.47699 0.0
H486 H 0.5356 0.66286 0.42124 0.0
O487 O 0.50664 0.53348 0.46337 0.0
O488 O 0.58788 0.55309 0.46255 0.0
O489 O 0.59191 0.58586 0.42257 0.0
C490 C 0.54917 0.53846 0.47238 0.0
H491 H 0.61691 0.38178 0.43739 0.0
H492 H 0.47836 0.72045 0.47208 0.0
H493 H 0.45797 0.57383 0.37791 0.0
H494 H 0.36516 0.5997 0.42678 0.0
Co495 Co 0.95275 0.56072 0.93631 0.0
C496 C 0.97797 0.66599 0.92796 0.0
C497 C 0.90095 0.64986 0.92067 0.0
C498 C 0.91016 0.70041 0.91752 0.0
N499 N 0.94353 0.62857 0.92722 0.0
N500 N 0.9586 0.71053 0.92219 0.0
H501 H 0.0158 0.66099 0.9334 0.0
H502 H 0.86545 0.63038 0.9188 0.0
C503 C 0.86437 0.51077 0.91995 0.0
O504 O 0.84975 0.50701 0.93755 0.0
N505 N 0.96352 0.49222 0.94528 0.0
C506 C 0.97514 0.47582 0.96279 0.0
C507 C 0.98616 0.42523 0.96204 0.0
C508 C 0.96818 0.45121 0.93417 0.0
N509 N 0.98196 0.40991 0.94403 0.0
C510 C 0.05509 0.541 0.92877 0.0
C511 C 0.04794 0.53883 0.88993 0.0
C512 C 0.09228 0.52219 0.89876 0.0
C513 C 0.09634 0.52518 0.91832 0.0
C514 C 0.0071 0.55421 0.901 0.0
N515 N 0.0106 0.55277 0.92017 0.0
H516 H 0.05772 0.54017 0.94395 0.0
H517 H 0.97212 0.56487 0.89425 0.0
H518 H 0.97724 0.49852 0.97533 0.0
H519 H 0.96351 0.45209 0.91903 0.0
O520 O 0.98692 0.5873 0.95803 0.0
O521 O 0.90483 0.57317 0.9565 0.0
O522 O 0.90584 0.53331 0.91622 0.0
C523 C 0.94352 0.58756 0.96646 0.0
H524 H 0.883 0.72765 0.91239 0.0
H525 H 0.9963 0.40157 0.97388 0.0
H526 H 0.04376 0.5367 0.87477 0.0
H527 H 0.13011 0.51247 0.92552 0.0
C528 C 0.00917 0.36558 0.085 0.0
C529 C 0.95621 0.37029 0.08462 0.0
H530 H 0.07302 0.3165 0.08381 0.0
C531 C 0.92704 0.3261 0.08373 0.0
H532 H 0.03313 0.39859 0.08527 0.0
C533 C 0.95019 0.27858 0.08289 0.0
C534 C 0.00319 0.274 0.08277 0.0
H535 H 0.88626 0.32828 0.08358 0.0
H536 H 0.92638 0.24548 0.08226 0.0
C537 C 0.03226 0.3182 0.0841 0.0
C538 C 0.053 0.77511 0.33302 0.0
C539 C 0.05799 0.81402 0.31969 0.0
H540 H 0.00306 0.72377 0.34703 0.0
C541 C 0.0158 0.8275 0.30885 0.0
H542 H 0.08499 0.76393 0.34156 0.0
C543 C 0.96927 0.80397 0.31166 0.0
C544 C 0.96321 0.76684 0.32568 0.0
H545 H 0.01878 0.8564 0.29813 0.0
H546 H 0.93794 0.81555 0.30291 0.0
C547 C 0.00605 0.75195 0.33607 0.0
C548 C 0.48671 0.8266 0.59062 0.0
C549 C 0.50927 0.86043 0.57797 0.0
H550 H 0.4901 0.75464 0.6041 0.0
C551 C 0.55511 0.84667 0.56942 0.0
H552 H 0.45203 0.83652 0.59775 0.0
C553 C 0.57689 0.7994 0.57292 0.0
C554 C 0.55348 0.76482 0.58514 0.0
H555 H 0.57333 0.87175 0.55952 0.0
H556 H 0.61101 0.78937 0.56547 0.0
C557 C 0.50869 0.77963 0.59427 0.0
C558 C 0.49474 0.26648 0.81305 0.0
C559 C 0.4537 0.28603 0.82311 0.0
H560 H 0.57246 0.27371 0.80592 0.0
C561 C 0.46046 0.3304 0.83373 0.0
H562 H 0.49048 0.23333 0.8043 0.0
C563 C 0.50785 0.35372 0.83473 0.0
C564 C 0.5492 0.33307 0.82509 0.0
H565 H 0.4294 0.34633 0.84163 0.0
H566 H 0.51256 0.38678 0.8435 0.0
C567 C 0.54175 0.28982 0.81394 0.0
C568 C 0.03616 0.76313 0.92098 0.0
C569 C 0.9833 0.75919 0.92239 0.0
H570 H 0.10055 0.81227 0.92012 0.0
C571 C 0.95491 0.80367 0.92424 0.0
H572 H 0.0592 0.72971 0.91937 0.0
C573 C 0.97854 0.85076 0.92464 0.0
C574 C 0.03136 0.85487 0.92318 0.0
H575 H 0.91429 0.80223 0.92557 0.0
H576 H 0.95505 0.88401 0.9257 0.0
C577 C 0.05988 0.81044 0.9213 0.0
C578 C 0.49945 0.8697 0.16974 0.0
C579 C 0.45745 0.83855 0.16681 0.0
H580 H 0.57798 0.8742 0.17587 0.0
C581 C 0.46431 0.78598 0.16684 0.0
H582 H 0.49513 0.91032 0.16981 0.0
C583 C 0.51178 0.76487 0.17013 0.0
C584 C 0.554 0.79567 0.17369 0.0
H585 H 0.43282 0.76096 0.16417 0.0
H586 H 0.51488 0.72426 0.16988 0.0
C587 C 0.54708 0.8486 0.17326 0.0
C588 C 0.50393 0.27017 0.43721 0.0
C589 C 0.46636 0.26379 0.42335 0.0
H590 H 0.55703 0.31989 0.45032 0.0
C591 C 0.45153 0.30629 0.41277 0.0
H592 H 0.51552 0.23916 0.44611 0.0
C593 C 0.47506 0.3532 0.41551 0.0
C594 C 0.51433 0.35847 0.4287 0.0
H595 H 0.42304 0.30308 0.40192 0.0
H596 H 0.46383 0.38494 0.40687 0.0
C597 C 0.52786 0.31663 0.4397 0.0
C598 C 0.996 0.29544 0.68741 0.0
C599 C 0.96887 0.3105 0.67137 0.0
H600 H 0.06386 0.26131 0.69811 0.0
C601 C 0.98839 0.29942 0.65346 0.0
H602 H 0.98144 0.30347 0.70133 0.0
C603 C 0.03436 0.27381 0.65164 0.0
C604 C 0.06215 0.26001 0.66768 0.0
H605 H 0.96775 0.31016 0.64092 0.0
H606 H 0.04912 0.26622 0.63771 0.0
C607 C 0.0427 0.27122 0.68558 0.0
C608 C 0.99688 0.10732 0.00141 0.0
C609 C 0.0413 0.10323 0.01213 0.0
H610 H 0.96174 0.09744 0.97453 0.0
C611 C 0.08673 0.09123 0.00291 0.0
H612 H 0.96121 0.11648 0.008 0.0
C613 C 0.08706 0.08107 0.98351 0.0
C614 C 0.04177 0.08141 0.97323 0.0
H615 H 0.12155 0.08764 0.0108 0.0
H616 H 0.12217 0.07066 0.97676 0.0
C617 C 0.99699 0.09577 0.98225 0.0
C618 C 0.23609 0.89027 0.24506 0.0
C619 C 0.23483 0.84515 0.25546 0.0
H620 H 0.24253 0.92432 0.21772 0.0
C621 C 0.23735 0.79892 0.24584 0.0
H622 H 0.23438 0.92646 0.25212 0.0
C623 C 0.24345 0.79778 0.22634 0.0
C624 C 0.24605 0.84279 0.21598 0.0
H625 H 0.2368 0.76349 0.25344 0.0
H626 H 0.24635 0.76152 0.21938 0.0
C627 C 0.24108 0.88908 0.22543 0.0
C628 C 0.43388 0.03935 0.49804 0.0
C629 C 0.48086 0.03913 0.50724 0.0
H630 H 0.39433 0.04604 0.47181 0.0
C631 C 0.52498 0.04477 0.49652 0.0
H632 H 0.39923 0.03538 0.50597 0.0
C633 C 0.5221 0.05212 0.47705 0.0
C634 C 0.47508 0.05317 0.4679 0.0
H635 H 0.5617 0.04533 0.50323 0.0
H636 H 0.55673 0.05696 0.46918 0.0
C637 C 0.43105 0.04583 0.47852 0.0
C638 C 0.26694 0.21612 0.7306 0.0
C639 C 0.26486 0.26179 0.72061 0.0
H640 H 0.27242 0.18066 0.75766 0.0
C641 C 0.2711 0.30744 0.73031 0.0
H642 H 0.26287 0.18039 0.72334 0.0
C643 C 0.27835 0.30753 0.74977 0.0
C644 C 0.27818 0.26202 0.75992 0.0
H645 H 0.27074 0.34311 0.72286 0.0
H646 H 0.28188 0.34345 0.75692 0.0
C647 C 0.27294 0.21625 0.75015 0.0
C648 C 0.76701 0.28921 0.76699 0.0
C649 C 0.76065 0.33541 0.77639 0.0
H650 H 0.78017 0.25163 0.7408 0.0
C651 C 0.76404 0.38048 0.76606 0.0
H652 H 0.76529 0.25384 0.77462 0.0
C653 C 0.77211 0.37917 0.74655 0.0
C654 C 0.77825 0.33283 0.73718 0.0
H655 H 0.75963 0.41661 0.77298 0.0
H656 H 0.7732 0.41434 0.73879 0.0
C657 C 0.7762 0.28795 0.74764 0.0
C658 C 0.74331 0.82343 0.25325 0.0
C659 C 0.73534 0.77864 0.24311 0.0
H660 H 0.75809 0.8569 0.28018 0.0
C661 C 0.7339 0.73253 0.25283 0.0
H662 H 0.74528 0.85944 0.24607 0.0
C663 C 0.74124 0.73106 0.27229 0.0
C664 C 0.75094 0.7756 0.28236 0.0
H665 H 0.7281 0.69739 0.24534 0.0
H666 H 0.74021 0.69489 0.27938 0.0
C667 C 0.75139 0.82189 0.27271 0.0
C668 C 0.59637 0.54342 0.503 0.0
C669 C 0.55052 0.53859 0.49316 0.0
H670 H 0.63216 0.5555 0.52982 0.0
C671 C 0.505 0.541 0.50321 0.0
H672 H 0.63202 0.54192 0.49559 0.0
C673 C 0.50512 0.55061 0.52249 0.0
C674 C 0.55076 0.55667 0.53226 0.0
H675 H 0.46902 0.53772 0.49606 0.0
H676 H 0.46931 0.55304 0.52978 0.0
C677 C 0.59649 0.5517 0.52249 0.0
C678 C 0.89624 0.58371 0.99709 0.0
C679 C 0.94147 0.59155 0.98718 0.0
H680 H 0.86195 0.57055 0.02408 0.0
C681 C 0.98699 0.59484 0.99728 0.0
H682 H 0.86066 0.5807 0.98966 0.0
C683 C 0.98786 0.58714 0.01665 0.0
C684 C 0.94313 0.57735 0.02646 0.0
H685 H 0.02255 0.60083 0.99012 0.0
H686 H 0.02376 0.58876 0.02395 0.0
C687 C 0.89702 0.57729 0.01669 0.0
C688 C 0.20662 0.95231 0.11061 0.0
C689 C 0.17379 0.92257 0.12144 0.0
H690 H 0.21314 0.01025 0.08955 0.0
C691 C 0.1217 0.93232 0.12055 0.0
H692 H 0.2469 0.94553 0.11102 0.0
C693 C 0.1025 0.96986 0.10873 0.0
C694 C 0.13476 0.99783 0.09703 0.0
H695 H 0.09551 0.91028 0.12889 0.0
H696 H 0.06205 0.97552 0.10828 0.0
C697 C 0.18719 0.9892 0.09831 0.0
C698 C 0.29397 0.96755 0.36825 0.0
C699 C 0.30169 0.95691 0.34907 0.0
H700 H 0.32195 0.00453 0.39308 0.0
C701 C 0.34361 0.97841 0.33997 0.0
H702 H 0.26223 0.95128 0.37567 0.0
C703 C 0.37687 0.01011 0.34978 0.0
C704 C 0.36986 0.01969 0.36906 0.0
H705 H 0.35057 0.9709 0.3252 0.0
H706 H 0.40895 0.02589 0.34241 0.0
C707 C 0.32818 0.99792 0.37821 0.0
C708 C 0.38246 0.10381 0.62333 0.0
C709 C 0.38627 0.10409 0.60359 0.0
H710 H 0.34831 0.13658 0.6478 0.0
C711 C 0.35537 0.13741 0.5933 0.0
H712 H 0.40587 0.07888 0.63169 0.0
C713 C 0.32188 0.16999 0.6025 0.0
C714 C 0.31907 0.17074 0.62225 0.0
H715 H 0.35732 0.13861 0.57807 0.0
H716 H 0.29913 0.19551 0.59413 0.0
C717 C 0.34959 0.13707 0.63256 0.0
C718 C 0.16336 0.11571 0.87992 0.0
C719 C 0.11278 0.12459 0.87485 0.0
H720 H 0.24142 0.13047 0.87388 0.0
C721 C 0.10274 0.15272 0.8585 0.0
H722 H 0.17234 0.0943 0.89248 0.0
C723 C 0.14204 0.17293 0.84783 0.0
C724 C 0.19262 0.16641 0.85332 0.0
H725 H 0.0643 0.15995 0.85405 0.0
H726 H 0.13254 0.19447 0.83537 0.0
C727 C 0.20292 0.13661 0.8693 0.0
C728 C 0.82472 0.06102 0.86324 0.0
C729 C 0.8372 0.0549 0.88233 0.0
H730 H 0.78739 0.10664 0.8427 0.0
C731 C 0.81175 0.08458 0.8958 0.0
H732 H 0.84299 0.03842 0.85253 0.0
C733 C 0.77962 0.12343 0.89019 0.0
C734 C 0.772 0.13332 0.87103 0.0
H735 H 0.82038 0.08149 0.91066 0.0
H736 H 0.76392 0.14822 0.90081 0.0
C737 C 0.79243 0.09994 0.85763 0.0
C738 C 0.67638 0.09088 0.62956 0.0
C739 C 0.67766 0.09345 0.60986 0.0
H740 H 0.70702 0.11755 0.65539 0.0
C741 C 0.71836 0.11764 0.601 0.0
H742 H 0.64553 0.07207 0.63667 0.0
C743 C 0.75413 0.14373 0.61174 0.0
C744 C 0.74965 0.14584 0.63146 0.0
H745 H 0.72012 0.12006 0.58579 0.0
H746 H 0.78309 0.16513 0.60455 0.0
C747 C 0.71208 0.11667 0.64027 0.0
C748 C 0.72155 0.99206 0.35708 0.0
C749 C 0.74194 0.96804 0.37306 0.0
H750 H 0.66476 0.04239 0.34659 0.0
C751 C 0.72862 0.98533 0.39102 0.0
H752 H 0.73068 0.97887 0.34305 0.0
C753 C 0.69152 0.02231 0.39299 0.0
C754 C 0.6666 0.04167 0.37703 0.0
H755 H 0.74351 0.96705 0.40349 0.0
H756 H 0.67849 0.03152 0.40703 0.0
C757 C 0.68371 0.02827 0.35906 0.0
C758 C 0.79126 0.95198 0.11627 0.0
C759 C 0.78967 0.959 0.13583 0.0
H760 H 0.82205 0.97617 0.09016 0.0
C761 C 0.81015 0.0032 0.14361 0.0
H762 H 0.77528 0.91837 0.10994 0.0
C763 C 0.83671 0.03702 0.1322 0.0
C764 C 0.8432 0.02697 0.11289 0.0
H765 H 0.80937 0.00948 0.15868 0.0
H766 H 0.8549 0.06918 0.13871 0.0
C767 C 0.81782 0.98551 0.10491 0.0
C768 C 0.71683 0.44129 0.6348 0.0
C769 C 0.68494 0.40381 0.64212 0.0
H770 H 0.72302 0.50683 0.61712 0.0
C771 C 0.63289 0.40677 0.63837 0.0
H772 H 0.75706 0.43994 0.63745 0.0
C773 C 0.6132 0.44586 0.62729 0.0
C774 C 0.64532 0.48211 0.61925 0.0
H775 H 0.60732 0.37866 0.64399 0.0
H776 H 0.57309 0.44639 0.62434 0.0
C777 C 0.69732 0.47957 0.62321 0.0
C778 C 0.85503 0.47553 0.88704 0.0
C779 C 0.8347 0.48465 0.90501 0.0
H780 H 0.8454 0.43972 0.86016 0.0
C781 C 0.78629 0.46577 0.90908 0.0
H782 H 0.89228 0.48927 0.88345 0.0
C783 C 0.75936 0.43759 0.89576 0.0
C784 C 0.78014 0.42712 0.87799 0.0
H785 H 0.7693 0.47214 0.92274 0.0
H786 H 0.72256 0.42313 0.89959 0.0
C787 C 0.82814 0.44696 0.87371 0.0
C788 C 0.82812 0.64664 0.11667 0.0
C789 C 0.86103 0.61295 0.12583 0.0
H790 H 0.77145 0.70375 0.11947 0.0
C791 C 0.86053 0.61074 0.1456 0.0
H792 H 0.82751 0.64912 0.10144 0.0
C793 C 0.82898 0.64291 0.15597 0.0
C794 C 0.79637 0.67691 0.14677 0.0
H795 H 0.88563 0.58536 0.15304 0.0
H796 H 0.83034 0.64142 0.17121 0.0
C797 C 0.79577 0.67779 0.127 0.0
C798 C 0.70956 0.6765 0.39974 0.0
C799 C 0.71949 0.6705 0.38046 0.0
H800 H 0.6691 0.6495 0.42388 0.0
C801 C 0.69723 0.62979 0.37082 0.0
H802 H 0.72571 0.70784 0.40747 0.0
C803 C 0.66585 0.59563 0.38031 0.0
C804 C 0.65473 0.60248 0.39947 0.0
H805 H 0.70412 0.62439 0.35592 0.0
H806 H 0.64917 0.56469 0.37252 0.0
C807 C 0.6769 0.64331 0.40908 0.0
C808 C 0.34817 0.59774 0.37314 0.0
C809 C 0.37031 0.61842 0.38931 0.0
H810 H 0.30143 0.61075 0.34907 0.0
C811 C 0.36097 0.66897 0.39394 0.0
H812 H 0.35483 0.55867 0.36941 0.0
C813 C 0.33196 0.69923 0.38212 0.0
C814 C 0.31073 0.67943 0.36551 0.0
H815 H 0.37835 0.68585 0.40625 0.0
H816 H 0.32864 0.73883 0.38561 0.0
C817 C 0.31796 0.62779 0.36148 0.0
C818 C 0.21945 0.61813 0.13722 0.0
C819 C 0.24646 0.64276 0.1228 0.0
H820 H 0.15477 0.57376 0.14432 0.0
C821 C 0.23525 0.63089 0.10398 0.0
H822 H 0.22664 0.62636 0.15192 0.0
C823 C 0.19368 0.60055 0.0997 0.0
C824 C 0.16276 0.58181 0.11419 0.0
H825 H 0.25566 0.64876 0.09258 0.0
H826 H 0.18287 0.59617 0.08507 0.0
C827 C 0.17778 0.58821 0.13294 0.0
C828 C 0.15847 0.51575 0.87371 0.0
C829 C 0.13045 0.49363 0.88822 0.0
H830 H 0.21385 0.50464 0.85224 0.0
C831 C 0.13756 0.44258 0.89256 0.0
H832 H 0.15362 0.5553 0.87031 0.0
C833 C 0.1707 0.4133 0.88207 0.0
C834 C 0.19833 0.43461 0.86714 0.0
H835 H 0.11582 0.42479 0.90365 0.0
H836 H 0.17252 0.37336 0.88516 0.0
C837 C 0.19271 0.48661 0.86339 0.0
C838 C 0.28176 0.47892 0.60941 0.0
C839 C 0.27117 0.46516 0.62803 0.0
H840 H 0.32682 0.5244 0.59131 0.0
C841 C 0.28911 0.49546 0.64285 0.0
H842 H 0.26847 0.45589 0.59781 0.0
C843 C 0.32311 0.53448 0.63921 0.0
C844 C 0.33894 0.54394 0.6207 0.0
H845 H 0.28175 0.48524 0.65736 0.0
H846 H 0.34069 0.55385 0.65094 0.0
C847 C 0.31516 0.51831 0.60575 0.0
C848 C 0.98227 0.8397 0.04337 0.0
C849 C 0.98445 0.87631 0.05768 0.0
H850 H 0.98356 0.7609 0.03658 0.0
C851 C 0.98531 0.86046 0.07661 0.0
H852 H 0.98232 0.85047 0.02868 0.0
C853 C 0.98567 0.80898 0.08103 0.0
C854 C 0.98517 0.77295 0.06661 0.0
H855 H 0.98641 0.88771 0.08795 0.0
H856 H 0.98842 0.7972 0.09559 0.0
C857 C 0.98284 0.78854 0.04782 0.0
C858 C 0.49272 0.76887 0.30723 0.0
C859 C 0.4575 0.80429 0.31394 0.0
H860 H 0.56939 0.74291 0.30801 0.0
C861 C 0.47167 0.83688 0.32861 0.0
H862 H 0.48256 0.74255 0.29621 0.0
C863 C 0.52098 0.83663 0.33542 0.0
C864 C 0.55704 0.80369 0.3278 0.0
H865 H 0.44555 0.86459 0.33409 0.0
H866 H 0.53174 0.86394 0.34604 0.0
C867 C 0.54212 0.76845 0.31416 0.0
C868 C 0.55331 0.29586 0.55925 0.0
C869 C 0.51264 0.26193 0.5606 0.0
H870 H 0.57916 0.37168 0.56316 0.0
C871 C 0.46704 0.27874 0.56844 0.0
H872 H 0.5893 0.28388 0.55365 0.0
C873 C 0.46163 0.32868 0.57418 0.0
C874 C 0.50155 0.36308 0.57213 0.0
H875 H 0.43493 0.25377 0.56966 0.0
H876 H 0.42576 0.34065 0.57991 0.0
C877 C 0.54782 0.34598 0.56498 0.0
C878 C 0.02213 0.35332 0.80719 0.0
C879 C 0.05771 0.32009 0.81508 0.0
H880 H 0.94399 0.37385 0.80538 0.0
C881 C 0.04267 0.28728 0.82956 0.0
H882 H 0.03295 0.37974 0.7963 0.0
C883 C 0.99225 0.28417 0.83471 0.0
C884 C 0.95619 0.31419 0.82565 0.0
H885 H 0.06897 0.26132 0.83599 0.0
H886 H 0.98079 0.2561 0.84493 0.0
C887 C 0.97157 0.35053 0.81254 0.0
C888 C 0.02185 0.27448 0.94099 0.0
C889 C 0.99173 0.25755 0.92603 0.0
H890 H 0.04255 0.33695 0.95845 0.0
C891 C 0.96278 0.29256 0.91583 0.0
H892 H 0.04437 0.24813 0.94907 0.0
C893 C 0.9613 0.34303 0.92123 0.0
C894 C 0.98867 0.35949 0.93701 0.0
H895 H 0.93974 0.28039 0.90407 0.0
H896 H 0.93667 0.36851 0.91364 0.0
C897 C 0.0202 0.32507 0.94648 0.0
C898 C 0.01851 0.76877 0.1687 0.0
C899 C 0.0579 0.79364 0.17811 0.0
H900 H 0.93963 0.75435 0.16714 0.0
C901 C 0.04704 0.82297 0.19401 0.0
H902 H 0.02597 0.74644 0.15625 0.0
C903 C 0.99752 0.82686 0.20053 0.0
C904 C 0.95789 0.80201 0.19111 0.0
H905 H 0.07698 0.84186 0.20163 0.0
H906 H 0.99043 0.84899 0.21305 0.0
C907 C 0.96905 0.77305 0.17506 0.0
C908 C 0.4647 0.79182 0.44178 0.0
C909 C 0.50054 0.75695 0.43513 0.0
H910 H 0.43876 0.86853 0.4413 0.0
C911 C 0.53372 0.77171 0.42075 0.0
H912 H 0.43792 0.7812 0.45256 0.0
C913 C 0.53373 0.82127 0.41425 0.0
C914 C 0.5005 0.85701 0.4219 0.0
H915 H 0.56177 0.7459 0.41531 0.0
H916 H 0.56153 0.83248 0.4039 0.0
C917 C 0.46457 0.84151 0.43516 0.0
C918 C 0.54545 0.33551 0.69416 0.0
C919 C 0.56857 0.28926 0.69028 0.0
H920 H 0.47769 0.37818 0.69425 0.0
C921 C 0.53951 0.24973 0.68275 0.0
H922 H 0.56705 0.36632 0.70011 0.0
C923 C 0.48828 0.25653 0.67896 0.0
C924 C 0.46479 0.30291 0.68281 0.0
H925 H 0.55675 0.21387 0.67931 0.0
H926 H 0.46753 0.22563 0.67272 0.0
C927 C 0.49409 0.34215 0.69065 0.0
loop_
_geom_bond_atom_site_label_1
_geom_bond_atom_site_label_2
_geom_bond_distance
_geom_bond_site_symmetry_2
_ccdc_geom_bond_type
Co0 N4 2.148 . S
Co0 N10 2.128 1_545 S
Co0 N20 2.194 1_455 S
Co0 O25 2.351 1_455 S
Co0 O26 2.155 . S
Co0 O27 2.096 . S
C1 N4 1.301 . S
C1 N5 1.328 . S
C1 H6 0.930 1_455 S
C2 C3 1.333 . S
C2 N4 1.317 . S
C2 H7 0.930 . S
C3 C2 1.333 . S
C3 N5 1.350 . S
C3 H29 0.931 . S
N4 Co0 2.148 . S
N4 C1 1.301 . S
N4 C2 1.317 . S
N5 C1 1.328 . S
N5 C3 1.350 . S
H6 C1 0.930 1_655 S
H7 C2 0.930 . S
C8 O9 1.224 . S
C8 O27 1.247 . S
O9 C8 1.224 . S
N10 Co0 2.128 1_565 S
N10 C11 1.355 1_455 S
N10 C13 1.311 . S
C11 N10 1.355 1_655 S
C11 C12 1.363 . S
C11 H23 0.929 . S
C12 C11 1.363 . S
C12 N14 1.375 1_655 S
C12 H30 0.931 . S
C13 N10 1.311 . S
C13 N14 1.347 . S
C13 H24 0.929 . S
N14 C12 1.375 1_455 S
N14 C13 1.347 . S
C15 C18 1.365 . S
C15 N20 1.328 . S
C15 H21 0.929 . S
C16 C17 1.362 . S
C16 C19 1.378 . S
C16 H31 0.929 . S
C17 C16 1.362 . S
C17 C18 1.366 . S
C18 C15 1.365 . S
C18 C17 1.366 . S
C18 H32 0.930 . S
C19 C16 1.378 . S
C19 N20 1.315 . S
C19 H22 0.930 . S
N20 Co0 2.194 1_655 S
N20 C15 1.328 . S
N20 C19 1.315 . S
H21 C15 0.929 . S
H22 C19 0.930 . S
H23 C11 0.929 . S
H24 C13 0.929 . S
O25 Co0 2.351 1_655 S
O25 C28 1.244 1_655 S
O26 Co0 2.155 . S
O26 C28 1.240 . S
O27 Co0 2.096 . S
O27 C8 1.247 . S
C28 O25 1.244 1_455 S
C28 O26 1.240 . S
H29 C3 0.931 . S
H30 C12 0.931 . S
H31 C16 0.929 . S
H32 C18 0.930 . S
Co33 N37 2.148 . S
Co33 N43 2.128 . S
Co33 N53 2.194 . S
Co33 O58 2.351 . S
Co33 O59 2.155 . S
Co33 O60 2.096 . S
C34 N37 1.301 . S
C34 N38 1.328 . S
C34 H39 0.930 . S
C35 C36 1.333 . S
C35 N37 1.317 . S
C35 H40 0.930 . S
C36 C35 1.333 . S
C36 N38 1.350 . S
C36 H62 0.931 . S
N37 Co33 2.148 . S
N37 C34 1.301 . S
N37 C35 1.317 . S
N38 C34 1.328 . S
N38 C36 1.350 . S
H39 C34 0.930 . S
H40 C35 0.930 . S
C41 O42 1.224 . S
C41 O60 1.247 . S
O42 C41 1.224 . S
N43 Co33 2.128 . S
N43 C44 1.355 . S
N43 C46 1.311 . S
C44 N43 1.355 . S
C44 C45 1.363 . S
C44 H56 0.929 . S
C45 C44 1.363 . S
C45 N47 1.375 . S
C45 H63 0.931 . S
C46 N43 1.311 . S
C46 N47 1.347 . S
C46 H57 0.929 . S
N47 C45 1.375 . S
N47 C46 1.347 . S
C48 C51 1.365 . S
C48 N53 1.328 . S
C48 H54 0.929 . S
C49 C50 1.362 . S
C49 C52 1.378 . S
C49 H64 0.929 . S
C50 C49 1.362 . S
C50 C51 1.366 . S
C51 C48 1.365 . S
C51 C50 1.366 . S
C51 H65 0.930 . S
C52 C49 1.378 . S
C52 N53 1.315 . S
C52 H55 0.930 . S
N53 Co33 2.194 . S
N53 C48 1.328 . S
N53 C52 1.315 . S
H54 C48 0.929 . S
H55 C52 0.930 . S
H56 C44 0.929 . S
H57 C46 0.929 . S
O58 Co33 2.351 . S
O58 C61 1.244 . S
O59 Co33 2.155 . S
O59 C61 1.240 . S
O60 Co33 2.096 . S
O60 C41 1.247 . S
C61 O58 1.244 . S
C61 O59 1.240 . S
H62 C36 0.931 . S
H63 C45 0.931 . S
H64 C49 0.929 . S
H65 C51 0.930 . S
Co66 N70 2.148 1_545 S
Co66 N76 2.128 . S
Co66 N86 2.194 . S
Co66 O91 2.351 . S
Co66 O92 2.155 . S
Co66 O93 2.096 . S
C67 N70 1.301 . S
C67 N71 1.328 . S
C67 H72 0.930 . S
C68 C69 1.333 . S
C68 N70 1.317 . S
C68 H73 0.930 . S
C69 C68 1.333 . S
C69 N71 1.350 . S
C69 H95 0.931 . S
N70 Co66 2.148 1_565 S
N70 C67 1.301 . S
N70 C68 1.317 . S
N71 C67 1.328 . S
N71 C69 1.350 . S
H72 C67 0.930 . S
H73 C68 0.930 . S
C74 O75 1.224 . S
C74 O93 1.247 . S
O75 C74 1.224 . S
N76 Co66 2.128 . S
N76 C77 1.355 . S
N76 C79 1.311 . S
C77 N76 1.355 . S
C77 C78 1.363 . S
C77 H89 0.929 . S
C78 C77 1.363 . S
C78 N80 1.375 . S
C78 H96 0.931 . S
C79 N76 1.311 . S
C79 N80 1.347 . S
C79 H90 0.929 . S
N80 C78 1.375 . S
N80 C79 1.347 . S
C81 C84 1.365 . S
C81 N86 1.328 . S
C81 H87 0.929 . S
C82 C83 1.362 . S
C82 C85 1.378 . S
C82 H97 0.929 . S
C83 C82 1.362 . S
C83 C84 1.366 . S
C84 C81 1.365 . S
C84 C83 1.366 . S
C84 H98 0.930 . S
C85 C82 1.378 . S
C85 N86 1.315 . S
C85 H88 0.930 . S
N86 Co66 2.194 . S
N86 C81 1.328 . S
N86 C85 1.315 . S
H87 C81 0.929 . S
H88 C85 0.930 . S
H89 C77 0.929 . S
H90 C79 0.929 . S
O91 Co66 2.351 . S
O91 C94 1.244 . S
O92 Co66 2.155 . S
O92 C94 1.240 . S
O93 Co66 2.096 . S
O93 C74 1.247 . S
C94 O91 1.244 . S
C94 O92 1.240 . S
H95 C69 0.931 . S
H96 C78 0.931 . S
H97 C82 0.929 . S
H98 C84 0.930 . S
Co99 N103 2.148 . S
Co99 N109 2.128 . S
Co99 N119 2.194 . S
Co99 O124 2.351 . S
Co99 O125 2.155 . S
Co99 O126 2.096 . S
C100 N103 1.301 . S
C100 N104 1.328 . S
C100 H105 0.930 . S
C101 C102 1.333 . S
C101 N103 1.317 . S
C101 H106 0.930 . S
C102 C101 1.333 . S
C102 N104 1.350 . S
C102 H128 0.931 . S
N103 Co99 2.148 . S
N103 C100 1.301 . S
N103 C101 1.317 . S
N104 C100 1.328 . S
N104 C102 1.350 . S
H105 C100 0.930 . S
H106 C101 0.930 . S
C107 O108 1.224 . S
C107 O126 1.247 . S
O108 C107 1.224 . S
N109 Co99 2.128 . S
N109 C110 1.355 . S
N109 C112 1.311 . S
C110 N109 1.355 . S
C110 C111 1.363 . S
C110 H122 0.929 . S
C111 C110 1.363 . S
C111 N113 1.375 . S
C111 H129 0.931 . S
C112 N109 1.311 . S
C112 N113 1.347 . S
C112 H123 0.929 . S
N113 C111 1.375 . S
N113 C112 1.347 . S
C114 C117 1.365 . S
C114 N119 1.328 . S
C114 H120 0.929 . S
C115 C116 1.362 . S
C115 C118 1.378 . S
C115 H130 0.929 . S
C116 C115 1.362 . S
C116 C117 1.366 . S
C117 C114 1.365 . S
C117 C116 1.366 . S
C117 H131 0.930 . S
C118 C115 1.378 . S
C118 N119 1.315 . S
C118 H121 0.930 . S
N119 Co99 2.194 . S
N119 C114 1.328 . S
N119 C118 1.315 . S
H120 C114 0.929 . S
H121 C118 0.930 . S
H122 C110 0.929 . S
H123 C112 0.929 . S
O124 Co99 2.351 . S
O124 C127 1.244 . S
O125 Co99 2.155 . S
O125 C127 1.240 . S
O126 Co99 2.096 . S
O126 C107 1.247 . S
C127 O124 1.244 . S
C127 O125 1.240 . S
H128 C102 0.931 . S
H129 C111 0.931 . S
H130 C115 0.929 . S
H131 C117 0.930 . S
Co132 N136 2.148 1_545 S
Co132 N142 2.128 . S
Co132 N152 2.194 1_455 S
Co132 O157 2.351 1_455 S
Co132 O158 2.155 . S
Co132 O159 2.096 . S
C133 N136 1.301 . S
C133 N137 1.328 . S
C133 H138 0.930 1_455 S
C134 C135 1.333 . S
C134 N136 1.317 . S
C134 H139 0.930 . S
C135 C134 1.333 . S
C135 N137 1.350 . S
C135 H161 0.931 . S
N136 Co132 2.148 1_565 S
N136 C133 1.301 . S
N136 C134 1.317 . S
N137 C133 1.328 . S
N137 C135 1.350 . S
H138 C133 0.930 1_655 S
H139 C134 0.930 . S
C140 O141 1.224 . S
C140 O159 1.247 . S
O141 C140 1.224 . S
N142 Co132 2.128 . S
N142 C143 1.355 1_455 S
N142 C145 1.311 . S
C143 N142 1.355 1_655 S
C143 C144 1.363 . S
C143 H155 0.929 . S
C144 C143 1.363 . S
C144 N146 1.375 1_655 S
C144 H162 0.931 . S
C145 N142 1.311 . S
C145 N146 1.347 . S
C145 H156 0.929 . S
N146 C144 1.375 1_455 S
N146 C145 1.347 . S
C147 C150 1.365 . S
C147 N152 1.328 . S
C147 H153 0.929 . S
C148 C149 1.362 . S
C148 C151 1.378 . S
C148 H163 0.929 . S
C149 C148 1.362 . S
C149 C150 1.366 . S
C150 C147 1.365 . S
C150 C149 1.366 . S
C150 H164 0.930 . S
C151 C148 1.378 . S
C151 N152 1.315 . S
C151 H154 0.930 . S
N152 Co132 2.194 1_655 S
N152 C147 1.328 . S
N152 C151 1.315 . S
H153 C147 0.929 . S
H154 C151 0.930 . S
H155 C143 0.929 . S
H156 C145 0.929 . S
O157 Co132 2.351 1_655 S
O157 C160 1.244 1_655 S
O158 Co132 2.155 . S
O158 C160 1.240 . S
O159 Co132 2.096 . S
O159 C140 1.247 . S
C160 O157 1.244 1_455 S
C160 O158 1.240 . S
H161 C135 0.931 . S
H162 C144 0.931 . S
H163 C148 0.929 . S
H164 C150 0.930 . S
Co165 N169 2.148 . S
Co165 N175 2.128 . S
Co165 N185 2.194 . S
Co165 O190 2.351 . S
Co165 O191 2.155 . S
Co165 O192 2.096 . S
C166 N169 1.301 . S
C166 N170 1.328 . S
C166 H171 0.930 . S
C167 C168 1.333 . S
C167 N169 1.317 . S
C167 H172 0.930 . S
C168 C167 1.333 . S
C168 N170 1.350 . S
C168 H194 0.931 . S
N169 Co165 2.148 . S
N169 C166 1.301 . S
N169 C167 1.317 . S
N170 C166 1.328 . S
N170 C168 1.350 . S
H171 C166 0.930 . S
H172 C167 0.930 . S
C173 O174 1.224 . S
C173 O192 1.247 . S
O174 C173 1.224 . S
N175 Co165 2.128 . S
N175 C176 1.355 . S
N175 C178 1.311 . S
C176 N175 1.355 . S
C176 C177 1.363 . S
C176 H188 0.929 . S
C177 C176 1.363 . S
C177 N179 1.375 . S
C177 H195 0.931 . S
C178 N175 1.311 . S
C178 N179 1.347 . S
C178 H189 0.929 . S
N179 C177 1.375 . S
N179 C178 1.347 . S
C180 C183 1.365 . S
C180 N185 1.328 . S
C180 H186 0.929 . S
C181 C182 1.362 . S
C181 C184 1.378 . S
C181 H196 0.929 . S
C182 C181 1.362 . S
C182 C183 1.366 . S
C183 C180 1.365 . S
C183 C182 1.366 . S
C183 H197 0.930 . S
C184 C181 1.378 . S
C184 N185 1.315 . S
C184 H187 0.930 . S
N185 Co165 2.194 . S
N185 C180 1.328 . S
N185 C184 1.315 . S
H186 C180 0.929 . S
H187 C184 0.930 . S
H188 C176 0.929 . S
H189 C178 0.929 . S
O190 Co165 2.351 . S
O190 C193 1.244 . S
O191 Co165 2.155 . S
O191 C193 1.240 . S
O192 Co165 2.096 . S
O192 C173 1.247 . S
C193 O190 1.244 . S
C193 O191 1.240 . S
H194 C168 0.931 . S
H195 C177 0.931 . S
H196 C181 0.929 . S
H197 C183 0.930 . S
Co198 N202 2.148 . S
Co198 N208 2.128 1_545 S
Co198 N218 2.194 . S
Co198 O223 2.351 . S
Co198 O224 2.155 . S
Co198 O225 2.096 . S
C199 N202 1.301 . S
C199 N203 1.328 . S
C199 H204 0.930 . S
C200 C201 1.333 . S
C200 N202 1.317 . S
C200 H205 0.930 . S
C201 C200 1.333 . S
C201 N203 1.350 . S
C201 H227 0.931 . S
N202 Co198 2.148 . S
N202 C199 1.301 . S
N202 C200 1.317 . S
N203 C199 1.328 . S
N203 C201 1.350 . S
H204 C199 0.930 . S
H205 C200 0.930 . S
C206 O207 1.224 . S
C206 O225 1.247 . S
O207 C206 1.224 . S
N208 Co198 2.128 1_565 S
N208 C209 1.355 . S
N208 C211 1.311 . S
C209 N208 1.355 . S
C209 C210 1.363 . S
C209 H221 0.929 . S
C210 C209 1.363 . S
C210 N212 1.375 . S
C210 H228 0.931 . S
C211 N208 1.311 . S
C211 N212 1.347 . S
C211 H222 0.929 . S
N212 C210 1.375 . S
N212 C211 1.347 . S
C213 C216 1.365 . S
C213 N218 1.328 . S
C213 H219 0.929 . S
C214 C215 1.362 . S
C214 C217 1.378 . S
C214 H229 0.929 . S
C215 C214 1.362 . S
C215 C216 1.366 . S
C216 C213 1.365 . S
C216 C215 1.366 . S
C216 H230 0.930 . S
C217 C214 1.378 . S
C217 N218 1.315 . S
C217 H220 0.930 . S
N218 Co198 2.194 . S
N218 C213 1.328 . S
N218 C217 1.315 . S
H219 C213 0.929 . S
H220 C217 0.930 . S
H221 C209 0.929 . S
H222 C211 0.929 . S
O223 Co198 2.351 . S
O223 C226 1.244 . S
O224 Co198 2.155 . S
O224 C226 1.240 . S
O225 Co198 2.096 . S
O225 C206 1.247 . S
C226 O223 1.244 . S
C226 O224 1.240 . S
H227 C201 0.931 . S
H228 C210 0.931 . S
H229 C214 0.929 . S
H230 C216 0.930 . S
Co231 N235 2.148 . S
Co231 N241 2.128 . S
Co231 N251 2.194 . S
Co231 O256 2.351 . S
Co231 O257 2.155 . S
Co231 O258 2.096 . S
C232 N235 1.301 . S
C232 N236 1.328 . S
C232 H237 0.930 . S
C233 C234 1.333 . S
C233 N235 1.317 . S
C233 H238 0.930 . S
C234 C233 1.333 . S
C234 N236 1.350 . S
C234 H260 0.931 . S
N235 Co231 2.148 . S
N235 C232 1.301 . S
N235 C233 1.317 . S
N236 C232 1.328 . S
N236 C234 1.350 . S
H237 C232 0.930 . S
H238 C233 0.930 . S
C239 O240 1.224 . S
C239 O258 1.247 . S
O240 C239 1.224 . S
N241 Co231 2.128 . S
N241 C242 1.355 . S
N241 C244 1.311 . S
C242 N241 1.355 . S
C242 C243 1.363 . S
C242 H254 0.929 . S
C243 C242 1.363 . S
C243 N245 1.375 . S
C243 H261 0.931 . S
C244 N241 1.311 . S
C244 N245 1.347 . S
C244 H255 0.929 . S
N245 C243 1.375 . S
N245 C244 1.347 . S
C246 C249 1.365 . S
C246 N251 1.328 . S
C246 H252 0.929 . S
C247 C248 1.362 . S
C247 C250 1.378 . S
C247 H262 0.929 . S
C248 C247 1.362 . S
C248 C249 1.366 . S
C249 C246 1.365 . S
C249 C248 1.366 . S
C249 H263 0.930 . S
C250 C247 1.378 . S
C250 N251 1.315 . S
C250 H253 0.930 . S
N251 Co231 2.194 . S
N251 C246 1.328 . S
N251 C250 1.315 . S
H252 C246 0.929 . S
H253 C250 0.930 . S
H254 C242 0.929 . S
H255 C244 0.929 . S
O256 Co231 2.351 . S
O256 C259 1.244 . S
O257 Co231 2.155 . S
O257 C259 1.240 . S
O258 Co231 2.096 . S
O258 C239 1.247 . S
C259 O256 1.244 . S
C259 O257 1.240 . S
H260 C234 0.931 . S
H261 C243 0.931 . S
H262 C247 0.929 . S
H263 C249 0.930 . S
Co264 N268 2.148 . S
Co264 N274 2.128 . S
Co264 N284 2.194 . S
Co264 O289 2.351 . S
Co264 O290 2.155 . S
Co264 O291 2.096 . S
C265 N268 1.301 . S
C265 N269 1.328 . S
C265 H270 0.930 . S
C266 C267 1.333 . S
C266 N268 1.317 . S
C266 H271 0.930 . S
C267 C266 1.333 . S
C267 N269 1.350 . S
C267 H293 0.931 . S
N268 Co264 2.148 . S
N268 C265 1.301 . S
N268 C266 1.317 . S
N269 C265 1.328 . S
N269 C267 1.350 . S
H270 C265 0.930 . S
H271 C266 0.930 . S
C272 O273 1.224 . S
C272 O291 1.247 . S
O273 C272 1.224 . S
N274 Co264 2.128 . S
N274 C275 1.355 . S
N274 C277 1.311 . S
C275 N274 1.355 . S
C275 C276 1.363 . S
C275 H287 0.929 . S
C276 C275 1.363 . S
C276 N278 1.375 . S
C276 H294 0.931 . S
C277 N274 1.311 . S
C277 N278 1.347 . S
C277 H288 0.929 . S
N278 C276 1.375 . S
N278 C277 1.347 . S
C279 C282 1.365 . S
C279 N284 1.328 . S
C279 H285 0.929 . S
C280 C281 1.362 . S
C280 C283 1.378 . S
C280 H295 0.929 . S
C281 C280 1.362 . S
C281 C282 1.366 . S
C282 C279 1.365 . S
C282 C281 1.366 . S
C282 H296 0.930 . S
C283 C280 1.378 . S
C283 N284 1.315 . S
C283 H286 0.930 . S
N284 Co264 2.194 . S
N284 C279 1.328 . S
N284 C283 1.315 . S
H285 C279 0.929 . S
H286 C283 0.930 . S
H287 C275 0.929 . S
H288 C277 0.929 . S
O289 Co264 2.351 . S
O289 C292 1.244 . S
O290 Co264 2.155 . S
O290 C292 1.240 . S
O291 Co264 2.096 . S
O291 C272 1.247 . S
C292 O289 1.244 . S
C292 O290 1.240 . S
H293 C267 0.931 . S
H294 C276 0.931 . S
H295 C280 0.929 . S
H296 C282 0.930 . S
Co297 N301 2.148 . S
Co297 N307 2.128 . S
Co297 N317 2.194 . S
Co297 O322 2.351 . S
Co297 O323 2.155 . S
Co297 O324 2.096 . S
C298 N301 1.301 . S
C298 N302 1.328 . S
C298 H303 0.930 . S
C299 C300 1.333 . S
C299 N301 1.317 . S
C299 H304 0.930 . S
C300 C299 1.333 . S
C300 N302 1.350 . S
C300 H326 0.931 . S
N301 Co297 2.148 . S
N301 C298 1.301 . S
N301 C299 1.317 . S
N302 C298 1.328 . S
N302 C300 1.350 . S
H303 C298 0.930 . S
H304 C299 0.930 . S
C305 O306 1.224 . S
C305 O324 1.247 . S
O306 C305 1.224 . S
N307 Co297 2.128 . S
N307 C308 1.355 . S
N307 C310 1.311 . S
C308 N307 1.355 . S
C308 C309 1.363 . S
C308 H320 0.929 . S
C309 C308 1.363 . S
C309 N311 1.375 . S
C309 H327 0.931 . S
C310 N307 1.311 . S
C310 N311 1.347 . S
C310 H321 0.929 . S
N311 C309 1.375 . S
N311 C310 1.347 . S
C312 C315 1.365 . S
C312 N317 1.328 . S
C312 H318 0.929 . S
C313 C314 1.362 . S
C313 C316 1.378 . S
C313 H328 0.929 . S
C314 C313 1.362 . S
C314 C315 1.366 . S
C315 C312 1.365 . S
C315 C314 1.366 . S
C315 H329 0.930 . S
C316 C313 1.378 . S
C316 N317 1.315 . S
C316 H319 0.930 . S
N317 Co297 2.194 . S
N317 C312 1.328 . S
N317 C316 1.315 . S
H318 C312 0.929 . S
H319 C316 0.930 . S
H320 C308 0.929 . S
H321 C310 0.929 . S
O322 Co297 2.351 . S
O322 C325 1.244 . S
O323 Co297 2.155 . S
O323 C325 1.240 . S
O324 Co297 2.096 . S
O324 C305 1.247 . S
C325 O322 1.244 . S
C325 O323 1.240 . S
H326 C300 0.931 . S
H327 C309 0.931 . S
H328 C313 0.929 . S
H329 C315 0.930 . S
Co330 N334 2.148 . S
Co330 N340 2.128 . S
Co330 N350 2.194 . S
Co330 O355 2.351 . S
Co330 O356 2.155 . S
Co330 O357 2.096 . S
C331 N334 1.301 . S
C331 N335 1.328 . S
C331 H336 0.930 . S
C332 C333 1.333 . S
C332 N334 1.317 . S
C332 H337 0.930 . S
C333 C332 1.333 . S
C333 N335 1.350 . S
C333 H359 0.931 . S
N334 Co330 2.148 . S
N334 C331 1.301 . S
N334 C332 1.317 . S
N335 C331 1.328 . S
N335 C333 1.350 . S
H336 C331 0.930 . S
H337 C332 0.930 . S
C338 O339 1.224 . S
C338 O357 1.247 . S
O339 C338 1.224 . S
N340 Co330 2.128 . S
N340 C341 1.355 . S
N340 C343 1.311 . S
C341 N340 1.355 . S
C341 C342 1.363 . S
C341 H353 0.929 . S
C342 C341 1.363 . S
C342 N344 1.375 . S
C342 H360 0.931 . S
C343 N340 1.311 . S
C343 N344 1.347 . S
C343 H354 0.929 . S
N344 C342 1.375 . S
N344 C343 1.347 . S
C345 C348 1.365 . S
C345 N350 1.328 . S
C345 H351 0.929 . S
C346 C347 1.362 . S
C346 C349 1.378 . S
C346 H361 0.929 . S
C347 C346 1.362 . S
C347 C348 1.366 . S
C348 C345 1.365 . S
C348 C347 1.366 . S
C348 H362 0.930 . S
C349 C346 1.378 . S
C349 N350 1.315 . S
C349 H352 0.930 . S
N350 Co330 2.194 . S
N350 C345 1.328 . S
N350 C349 1.315 . S
H351 C345 0.929 . S
H352 C349 0.930 . S
H353 C341 0.929 . S
H354 C343 0.929 . S
O355 Co330 2.351 . S
O355 C358 1.244 . S
O356 Co330 2.155 . S
O356 C358 1.240 . S
O357 Co330 2.096 . S
O357 C338 1.247 . S
C358 O355 1.244 . S
C358 O356 1.240 . S
H359 C333 0.931 . S
H360 C342 0.931 . S
H361 C346 0.929 . S
H362 C348 0.930 . S
Co363 N367 2.148 . S
Co363 N373 2.128 . S
Co363 N383 2.194 . S
Co363 O388 2.351 . S
Co363 O389 2.155 . S
Co363 O390 2.096 . S
C364 N367 1.301 . S
C364 N368 1.328 . S
C364 H369 0.930 . S
C365 C366 1.333 . S
C365 N367 1.317 . S
C365 H370 0.930 . S
C366 C365 1.333 . S
C366 N368 1.350 . S
C366 H392 0.931 . S
N367 Co363 2.148 . S
N367 C364 1.301 . S
N367 C365 1.317 . S
N368 C364 1.328 . S
N368 C366 1.350 . S
H369 C364 0.930 . S
H370 C365 0.930 . S
C371 O372 1.224 . S
C371 O390 1.247 . S
O372 C371 1.224 . S
N373 Co363 2.128 . S
N373 C374 1.355 . S
N373 C376 1.311 . S
C374 N373 1.355 . S
C374 C375 1.363 . S
C374 H386 0.929 . S
C375 C374 1.363 . S
C375 N377 1.375 . S
C375 H393 0.931 . S
C376 N373 1.311 . S
C376 N377 1.347 . S
C376 H387 0.929 . S
N377 C375 1.375 . S
N377 C376 1.347 . S
C378 C381 1.365 . S
C378 N383 1.328 . S
C378 H384 0.929 . S
C379 C380 1.362 . S
C379 C382 1.378 . S
C379 H394 0.929 . S
C380 C379 1.362 . S
C380 C381 1.366 . S
C381 C378 1.365 . S
C381 C380 1.366 . S
C381 H395 0.930 . S
C382 C379 1.378 . S
C382 N383 1.315 . S
C382 H385 0.930 . S
N383 Co363 2.194 . S
N383 C378 1.328 . S
N383 C382 1.315 . S
H384 C378 0.929 . S
H385 C382 0.930 . S
H386 C374 0.929 . S
H387 C376 0.929 . S
O388 Co363 2.351 . S
O388 C391 1.244 . S
O389 Co363 2.155 . S
O389 C391 1.240 . S
O390 Co363 2.096 . S
O390 C371 1.247 . S
C391 O388 1.244 . S
C391 O389 1.240 . S
H392 C366 0.931 . S
H393 C375 0.931 . S
H394 C379 0.929 . S
H395 C381 0.930 . S
Co396 N400 2.148 . S
Co396 N406 2.128 . S
Co396 N416 2.194 . S
Co396 O421 2.351 . S
Co396 O422 2.155 . S
Co396 O423 2.096 . S
C397 N400 1.301 . S
C397 N401 1.328 . S
C397 H402 0.930 . S
C398 C399 1.333 . S
C398 N400 1.317 . S
C398 H403 0.930 . S
C399 C398 1.333 . S
C399 N401 1.350 . S
C399 H425 0.931 . S
N400 Co396 2.148 . S
N400 C397 1.301 . S
N400 C398 1.317 . S
N401 C397 1.328 . S
N401 C399 1.350 . S
H402 C397 0.930 . S
H403 C398 0.930 . S
C404 O405 1.224 . S
C404 O423 1.247 . S
O405 C404 1.224 . S
N406 Co396 2.128 . S
N406 C407 1.355 . S
N406 C409 1.311 . S
C407 N406 1.355 . S
C407 C408 1.363 . S
C407 H419 0.929 . S
C408 C407 1.363 . S
C408 N410 1.375 . S
C408 H426 0.931 . S
C409 N406 1.311 . S
C409 N410 1.347 . S
C409 H420 0.929 . S
N410 C408 1.375 . S
N410 C409 1.347 . S
C411 C414 1.365 . S
C411 N416 1.328 . S
C411 H417 0.929 . S
C412 C413 1.362 . S
C412 C415 1.378 . S
C412 H427 0.929 . S
C413 C412 1.362 . S
C413 C414 1.366 . S
C414 C411 1.365 . S
C414 C413 1.366 . S
C414 H428 0.930 . S
C415 C412 1.378 . S
C415 N416 1.315 . S
C415 H418 0.930 . S
N416 Co396 2.194 . S
N416 C411 1.328 . S
N416 C415 1.315 . S
H417 C411 0.929 . S
H418 C415 0.930 . S
H419 C407 0.929 . S
H420 C409 0.929 . S
O421 Co396 2.351 . S
O421 C424 1.244 . S
O422 Co396 2.155 . S
O422 C424 1.240 . S
O423 Co396 2.096 . S
O423 C404 1.247 . S
C424 O421 1.244 . S
C424 O422 1.240 . S
H425 C399 0.931 . S
H426 C408 0.931 . S
H427 C412 0.929 . S
H428 C414 0.930 . S
Co429 N433 2.148 . S
Co429 N439 2.128 . S
Co429 N449 2.194 1_655 S
Co429 O454 2.351 1_655 S
Co429 O455 2.155 . S
Co429 O456 2.096 . S
C430 N433 1.301 1_455 S
C430 N434 1.328 1_455 S
C430 H435 0.930 . S
C431 C432 1.333 . S
C431 N433 1.317 . S
C431 H436 0.930 . S
C432 C431 1.333 . S
C432 N434 1.350 . S
C432 H458 0.931 . S
N433 Co429 2.148 . S
N433 C430 1.301 1_655 S
N433 C431 1.317 . S
N434 C430 1.328 1_655 S
N434 C432 1.350 . S
H435 C430 0.930 . S
H436 C431 0.930 . S
C437 O438 1.224 . S
C437 O456 1.247 . S
O438 C437 1.224 . S
N439 Co429 2.128 . S
N439 C440 1.355 1_655 S
N439 C442 1.311 . S
C440 N439 1.355 1_455 S
C440 C441 1.363 . S
C440 H452 0.929 . S
C441 C440 1.363 . S
C441 N443 1.375 1_455 S
C441 H459 0.931 . S
C442 N439 1.311 . S
C442 N443 1.347 . S
C442 H453 0.929 . S
N443 C441 1.375 1_655 S
N443 C442 1.347 . S
C444 C447 1.365 . S
C444 N449 1.328 . S
C444 H450 0.929 . S
C445 C446 1.362 . S
C445 C448 1.378 . S
C445 H460 0.929 . S
C446 C445 1.362 . S
C446 C447 1.366 . S
C447 C444 1.365 . S
C447 C446 1.366 . S
C447 H461 0.930 . S
C448 C445 1.378 . S
C448 N449 1.315 . S
C448 H451 0.930 . S
N449 Co429 2.194 1_455 S
N449 C444 1.328 . S
N449 C448 1.315 . S
H450 C444 0.929 . S
H451 C448 0.930 . S
H452 C440 0.929 . S
H453 C442 0.929 . S
O454 Co429 2.351 1_455 S
O454 C457 1.244 1_455 S
O455 Co429 2.155 . S
O455 C457 1.240 . S
O456 Co429 2.096 . S
O456 C437 1.247 . S
C457 O454 1.244 1_655 S
C457 O455 1.240 . S
H458 C432 0.931 . S
H459 C441 0.931 . S
H460 C445 0.929 . S
H461 C447 0.930 . S
Co462 N466 2.148 . S
Co462 N472 2.128 . S
Co462 N482 2.194 . S
Co462 O487 2.351 . S
Co462 O488 2.155 . S
Co462 O489 2.096 . S
C463 N466 1.301 . S
C463 N467 1.328 . S
C463 H468 0.930 . S
C464 C465 1.333 . S
C464 N466 1.317 . S
C464 H469 0.930 . S
C465 C464 1.333 . S
C465 N467 1.350 . S
C465 H491 0.931 . S
N466 Co462 2.148 . S
N466 C463 1.301 . S
N466 C464 1.317 . S
N467 C463 1.328 . S
N467 C465 1.350 . S
H468 C463 0.930 . S
H469 C464 0.930 . S
C470 O471 1.224 . S
C470 O489 1.247 . S
O471 C470 1.224 . S
N472 Co462 2.128 . S
N472 C473 1.355 . S
N472 C475 1.311 . S
C473 N472 1.355 . S
C473 C474 1.363 . S
C473 H485 0.929 . S
C474 C473 1.363 . S
C474 N476 1.375 . S
C474 H492 0.931 . S
C475 N472 1.311 . S
C475 N476 1.347 . S
C475 H486 0.929 . S
N476 C474 1.375 . S
N476 C475 1.347 . S
C477 C480 1.365 . S
C477 N482 1.328 . S
C477 H483 0.929 . S
C478 C479 1.362 . S
C478 C481 1.378 . S
C478 H493 0.929 . S
C479 C478 1.362 . S
C479 C480 1.366 . S
C480 C477 1.365 . S
C480 C479 1.366 . S
C480 H494 0.930 . S
C481 C478 1.378 . S
C481 N482 1.315 . S
C481 H484 0.930 . S
N482 Co462 2.194 . S
N482 C477 1.328 . S
N482 C481 1.315 . S
H483 C477 0.929 . S
H484 C481 0.930 . S
H485 C473 0.929 . S
H486 C475 0.929 . S
O487 Co462 2.351 . S
O487 C490 1.244 . S
O488 Co462 2.155 . S
O488 C490 1.240 . S
O489 Co462 2.096 . S
O489 C470 1.247 . S
C490 O487 1.244 . S
C490 O488 1.240 . S
H491 C465 0.931 . S
H492 C474 0.931 . S
H493 C478 0.929 . S
H494 C480 0.930 . S
Co495 N499 2.148 . S
Co495 N505 2.128 . S
Co495 N515 2.194 1_655 S
Co495 O520 2.351 1_655 S
Co495 O521 2.155 . S
Co495 O522 2.096 . S
C496 N499 1.301 1_455 S
C496 N500 1.328 1_455 S
C496 H501 0.930 . S
C497 C498 1.333 . S
C497 N499 1.317 . S
C497 H502 0.930 . S
C498 C497 1.333 . S
C498 N500 1.350 . S
C498 H524 0.931 . S
N499 Co495 2.148 . S
N499 C496 1.301 1_655 S
N499 C497 1.317 . S
N500 C496 1.328 1_655 S
N500 C498 1.350 . S
H501 C496 0.930 . S
H502 C497 0.930 . S
C503 O504 1.224 . S
C503 O522 1.247 . S
O504 C503 1.224 . S
N505 Co495 2.128 . S
N505 C506 1.355 1_655 S
N505 C508 1.311 . S
C506 N505 1.355 1_455 S
C506 C507 1.363 . S
C506 H518 0.929 . S
C507 C506 1.363 . S
C507 N509 1.375 1_455 S
C507 H525 0.931 . S
C508 N505 1.311 . S
C508 N509 1.347 . S
C508 H519 0.929 . S
N509 C507 1.375 1_655 S
N509 C508 1.347 . S
C510 C513 1.365 . S
C510 N515 1.328 . S
C510 H516 0.929 . S
C511 C512 1.362 . S
C511 C514 1.378 . S
C511 H526 0.929 . S
C512 C511 1.362 . S
C512 C513 1.366 . S
C513 C510 1.365 . S
C513 C512 1.366 . S
C513 H527 0.930 . S
C514 C511 1.378 . S
C514 N515 1.315 . S
C514 H517 0.930 . S
N515 Co495 2.194 1_455 S
N515 C510 1.328 . S
N515 C514 1.315 . S
H516 C510 0.929 . S
H517 C514 0.930 . S
H518 C506 0.929 . S
H519 C508 0.929 . S
O520 Co495 2.351 1_455 S
O520 C523 1.244 1_455 S
O521 Co495 2.155 . S
O521 C523 1.240 . S
O522 Co495 2.096 . S
O522 C503 1.247 . S
C523 O520 1.244 1_655 S
C523 O521 1.240 . S
H524 C498 0.931 . S
H525 C507 0.931 . S
H526 C511 0.929 . S
H527 C513 0.930 . S
C528 C529 1.387 1_455 S
C528 H532 0.949 1_455 S
C528 C537 1.390 . S
C529 C528 1.387 1_655 S
C529 C531 1.387 1_655 S
H530 C537 0.950 . S
C531 C529 1.387 1_455 S
C531 C533 1.390 . S
C531 H535 0.949 1_455 S
H532 C528 0.949 1_655 S
C533 C531 1.390 . S
C533 C534 1.387 . S
C533 H536 0.950 . S
C534 C533 1.387 . S
C534 C537 1.387 . S
H535 C531 0.949 1_655 S
H536 C533 0.950 . S
C537 C528 1.390 . S
C537 H530 0.950 . S
C537 C534 1.387 . S
C538 C539 1.387 . S
C538 H542 0.950 . S
C538 C547 1.390 1_455 S
C539 C538 1.387 . S
C539 C541 1.387 . S
H540 C547 0.950 . S
C541 C539 1.387 . S
C541 C543 1.390 1_455 S
C541 H545 0.950 . S
H542 C538 0.950 . S
C543 C541 1.390 1_655 S
C543 C544 1.387 . S
C543 H546 0.950 . S
C544 C543 1.387 . S
C544 C547 1.387 . S
H545 C541 0.950 . S
H546 C543 0.950 . S
C547 C538 1.390 1_655 S
C547 H540 0.950 . S
C547 C544 1.387 . S
C548 C549 1.387 . S
C548 H552 0.950 . S
C548 C557 1.390 . S
C549 C548 1.387 . S
C549 C551 1.387 . S
H550 C557 0.950 . S
C551 C549 1.387 . S
C551 C553 1.390 . S
C551 H555 0.950 . S
H552 C548 0.950 . S
C553 C551 1.390 . S
C553 C554 1.387 . S
C553 H556 0.950 . S
C554 C553 1.387 . S
C554 C557 1.387 . S
H555 C551 0.950 . S
H556 C553 0.950 . S
C557 C548 1.390 . S
C557 H550 0.950 . S
C557 C554 1.387 . S
C558 C559 1.387 . S
C558 H562 0.950 . S
C558 C567 1.390 . S
C559 C558 1.387 . S
C559 C561 1.387 . S
H560 C567 0.950 . S
C561 C559 1.387 . S
C561 C563 1.390 . S
C561 H565 0.950 . S
H562 C558 0.950 . S
C563 C561 1.390 . S
C563 C564 1.387 . S
C563 H566 0.950 . S
C564 C563 1.387 . S
C564 C567 1.387 . S
H565 C561 0.950 . S
H566 C563 0.950 . S
C567 C558 1.390 . S
C567 H560 0.950 . S
C567 C564 1.387 . S
C568 C569 1.387 1_455 S
C568 H572 0.950 . S
C568 C577 1.390 . S
C569 C568 1.387 1_655 S
C569 C571 1.387 1_655 S
H570 C577 0.950 . S
C571 C569 1.387 1_455 S
C571 C573 1.390 . S
C571 H575 0.950 . S
H572 C568 0.950 . S
C573 C571 1.390 . S
C573 C574 1.387 . S
C573 H576 0.950 . S
C574 C573 1.387 . S
C574 C577 1.387 . S
H575 C571 0.950 . S
H576 C573 0.950 . S
C577 C568 1.390 . S
C577 H570 0.950 . S
C577 C574 1.387 . S
C578 C579 1.387 . S
C578 H582 0.950 . S
C578 C587 1.390 . S
C579 C578 1.387 . S
C579 C581 1.387 . S
H580 C587 0.950 . S
C581 C579 1.387 . S
C581 C583 1.390 . S
C581 H585 0.950 . S
H582 C578 0.950 . S
C583 C581 1.390 . S
C583 C584 1.387 . S
C583 H586 0.950 . S
C584 C583 1.387 . S
C584 C587 1.387 . S
H585 C581 0.950 . S
H586 C583 0.950 . S
C587 C578 1.390 . S
C587 H580 0.950 . S
C587 C584 1.387 . S
C588 C589 1.387 . S
C588 H592 0.950 . S
C588 C597 1.390 . S
C589 C588 1.387 . S
C589 C591 1.387 . S
H590 C597 0.950 . S
C591 C589 1.387 . S
C591 C593 1.390 . S
C591 H595 0.950 . S
H592 C588 0.950 . S
C593 C591 1.390 . S
C593 C594 1.387 . S
C593 H596 0.950 . S
C594 C593 1.387 . S
C594 C597 1.387 . S
H595 C591 0.950 . S
H596 C593 0.950 . S
C597 C588 1.390 . S
C597 H590 0.950 . S
C597 C594 1.387 . S
C598 C599 1.387 . S
C598 H602 0.950 . S
C598 C607 1.390 1_655 S
C599 C598 1.387 . S
C599 C601 1.387 . S
H600 C607 0.950 . S
C601 C599 1.387 . S
C601 C603 1.390 1_655 S
C601 H605 0.950 . S
H602 C598 0.950 . S
C603 C601 1.390 1_455 S
C603 C604 1.387 . S
C603 H606 0.950 . S
C604 C603 1.387 . S
C604 C607 1.387 . S
H605 C601 0.950 . S
H606 C603 0.950 . S
C607 C598 1.390 1_455 S
C607 H600 0.950 . S
C607 C604 1.387 . S
C608 C609 1.387 1_655 S
C608 H612 0.950 . S
C608 C617 1.390 1_554 S
C609 C608 1.387 1_455 S
C609 C611 1.387 . S
H610 C617 0.950 . S
C611 C609 1.387 . S
C611 C613 1.390 1_554 S
C611 H615 0.950 . S
H612 C608 0.950 . S
C613 C611 1.390 1_556 S
C613 C614 1.387 . S
C613 H616 0.950 . S
C614 C613 1.387 . S
C614 C617 1.387 1_455 S
H615 C611 0.950 . S
H616 C613 0.950 . S
C617 C608 1.390 1_556 S
C617 H610 0.950 . S
C617 C614 1.387 1_655 S
C618 C619 1.387 . S
C618 H622 0.950 . S
C618 C627 1.390 . S
C619 C618 1.387 . S
C619 C621 1.387 . S
H620 C627 0.950 . S
C621 C619 1.387 . S
C621 C623 1.390 . S
C621 H625 0.950 . S
H622 C618 0.950 . S
C623 C621 1.390 . S
C623 C624 1.387 . S
C623 H626 0.950 . S
C624 C623 1.387 . S
C624 C627 1.387 . S
H625 C621 0.950 . S
H626 C623 0.950 . S
C627 C618 1.390 . S
C627 H620 0.950 . S
C627 C624 1.387 . S
C628 C629 1.387 . S
C628 H632 0.950 . S
C628 C637 1.390 . S
C629 C628 1.387 . S
C629 C631 1.387 . S
H630 C637 0.950 . S
C631 C629 1.387 . S
C631 C633 1.390 . S
C631 H635 0.950 . S
H632 C628 0.950 . S
C633 C631 1.390 . S
C633 C634 1.387 . S
C633 H636 0.950 . S
C634 C633 1.387 . S
C634 C637 1.387 . S
H635 C631 0.950 . S
H636 C633 0.950 . S
C637 C628 1.390 . S
C637 H630 0.950 . S
C637 C634 1.387 . S
C638 C639 1.387 . S
C638 H642 0.950 . S
C638 C647 1.390 . S
C639 C638 1.387 . S
C639 C641 1.387 . S
H640 C647 0.950 . S
C641 C639 1.387 . S
C641 C643 1.390 . S
C641 H645 0.950 . S
H642 C638 0.950 . S
C643 C641 1.390 . S
C643 C644 1.387 . S
C643 H646 0.950 . S
C644 C643 1.387 . S
C644 C647 1.387 . S
H645 C641 0.950 . S
H646 C643 0.950 . S
C647 C638 1.390 . S
C647 H640 0.950 . S
C647 C644 1.387 . S
C648 C649 1.387 . S
C648 H652 0.950 . S
C648 C657 1.390 . S
C649 C648 1.387 . S
C649 C651 1.387 . S
H650 C657 0.950 . S
C651 C649 1.387 . S
C651 C653 1.390 . S
C651 H655 0.950 . S
H652 C648 0.950 . S
C653 C651 1.390 . S
C653 C654 1.387 . S
C653 H656 0.950 . S
C654 C653 1.387 . S
C654 C657 1.387 . S
H655 C651 0.950 . S
H656 C653 0.950 . S
C657 C648 1.390 . S
C657 H650 0.950 . S
C657 C654 1.387 . S
C658 C659 1.387 . S
C658 H662 0.950 . S
C658 C667 1.390 . S
C659 C658 1.387 . S
C659 C661 1.387 . S
H660 C667 0.950 . S
C661 C659 1.387 . S
C661 C663 1.390 . S
C661 H665 0.950 . S
H662 C658 0.950 . S
C663 C661 1.390 . S
C663 C664 1.387 . S
C663 H666 0.950 . S
C664 C663 1.387 . S
C664 C667 1.387 . S
H665 C661 0.950 . S
H666 C663 0.950 . S
C667 C658 1.390 . S
C667 H660 0.950 . S
C667 C664 1.387 . S
C668 C669 1.387 . S
C668 H672 0.950 . S
C668 C677 1.390 . S
C669 C668 1.387 . S
C669 C671 1.387 . S
H670 C677 0.950 . S
C671 C669 1.387 . S
C671 C673 1.390 . S
C671 H675 0.950 . S
H672 C668 0.950 . S
C673 C671 1.390 . S
C673 C674 1.387 . S
C673 H676 0.950 . S
C674 C673 1.387 . S
C674 C677 1.387 . S
H675 C671 0.950 . S
H676 C673 0.950 . S
C677 C668 1.390 . S
C677 H670 0.950 . S
C677 C674 1.387 . S
C678 C679 1.385 . S
C678 H682 0.950 . S
C678 C687 1.390 1_556 S
C679 C678 1.385 . S
C679 C681 1.390 1_655 S
H680 C687 0.950 . S
C681 C679 1.390 1_455 S
C681 C683 1.390 1_556 S
C681 H685 0.950 . S
H682 C678 0.950 . S
C683 C681 1.390 1_554 S
C683 C684 1.388 1_455 S
C683 H686 0.950 . S
C684 C683 1.388 1_655 S
C684 C687 1.387 . S
H685 C681 0.950 . S
H686 C683 0.950 . S
C687 C678 1.390 1_554 S
C687 H680 0.950 . S
C687 C684 1.387 . S
C688 C689 1.387 . S
C688 H692 0.950 . S
C688 C697 1.390 1_565 S
C689 C688 1.387 . S
C689 C691 1.387 . S
H690 C697 0.950 . S
C691 C689 1.387 . S
C691 C693 1.390 . S
C691 H695 0.950 . S
H692 C688 0.950 . S
C693 C691 1.390 . S
C693 C694 1.387 . S
C693 H696 0.950 . S
C694 C693 1.387 . S
C694 C697 1.387 1_565 S
H695 C691 0.950 . S
H696 C693 0.950 . S
C697 C688 1.390 1_545 S
C697 H690 0.950 . S
C697 C694 1.387 1_545 S
C698 C699 1.387 . S
C698 H702 0.950 . S
C698 C707 1.390 . S
C699 C698 1.387 . S
C699 C701 1.387 . S
H700 C707 0.950 . S
C701 C699 1.387 . S
C701 C703 1.390 1_565 S
C701 H705 0.950 . S
H702 C698 0.950 . S
C703 C701 1.390 1_545 S
C703 C704 1.387 1_545 S
C703 H706 0.950 . S
C704 C703 1.387 1_565 S
C704 C707 1.387 . S
H705 C701 0.950 . S
H706 C703 0.950 . S
C707 C698 1.390 . S
C707 H700 0.950 . S
C707 C704 1.387 . S
C708 C709 1.387 . S
C708 H712 0.950 . S
C708 C717 1.390 . S
C709 C708 1.387 . S
C709 C711 1.387 . S
H710 C717 0.950 . S
C711 C709 1.387 . S
C711 C713 1.390 . S
C711 H715 0.950 . S
H712 C708 0.950 . S
C713 C711 1.390 . S
C713 C714 1.387 . S
C713 H716 0.950 . S
C714 C713 1.387 . S
C714 C717 1.387 . S
H715 C711 0.950 . S
H716 C713 0.950 . S
C717 C708 1.390 . S
C717 H710 0.950 . S
C717 C714 1.387 . S
C718 C719 1.387 . S
C718 H722 0.950 . S
C718 C727 1.390 . S
C719 C718 1.387 . S
C719 C721 1.387 . S
H720 C727 0.950 . S
C721 C719 1.387 . S
C721 C723 1.390 . S
C721 H725 0.950 . S
H722 C718 0.950 . S
C723 C721 1.390 . S
C723 C724 1.387 . S
C723 H726 0.950 . S
C724 C723 1.387 . S
C724 C727 1.387 . S
H725 C721 0.950 . S
H726 C723 0.950 . S
C727 C718 1.390 . S
C727 H720 0.950 . S
C727 C724 1.387 . S
C728 C729 1.387 . S
C728 H732 0.950 . S
C728 C737 1.390 . S
C729 C728 1.387 . S
C729 C731 1.387 . S
H730 C737 0.950 . S
C731 C729 1.387 . S
C731 C733 1.390 . S
C731 H735 0.950 . S
H732 C728 0.950 . S
C733 C731 1.390 . S
C733 C734 1.387 . S
C733 H736 0.950 . S
C734 C733 1.387 . S
C734 C737 1.387 . S
H735 C731 0.950 . S
H736 C733 0.950 . S
C737 C728 1.390 . S
C737 H730 0.950 . S
C737 C734 1.387 . S
C738 C739 1.387 . S
C738 H742 0.950 . S
C738 C747 1.390 . S
C739 C738 1.387 . S
C739 C741 1.387 . S
H740 C747 0.950 . S
C741 C739 1.387 . S
C741 C743 1.390 . S
C741 H745 0.950 . S
H742 C738 0.950 . S
C743 C741 1.390 . S
C743 C744 1.387 . S
C743 H746 0.950 . S
C744 C743 1.387 . S
C744 C747 1.387 . S
H745 C741 0.950 . S
H746 C743 0.950 . S
C747 C738 1.390 . S
C747 H740 0.950 . S
C747 C744 1.387 . S
C748 C749 1.387 . S
C748 H752 0.950 . S
C748 C757 1.390 1_565 S
C749 C748 1.387 . S
C749 C751 1.387 . S
H750 C757 0.950 . S
C751 C749 1.387 . S
C751 C753 1.390 1_565 S
C751 H755 0.950 . S
H752 C748 0.950 . S
C753 C751 1.390 1_545 S
C753 C754 1.387 . S
C753 H756 0.950 . S
C754 C753 1.387 . S
C754 C757 1.387 . S
H755 C751 0.950 . S
H756 C753 0.950 . S
C757 C748 1.390 1_545 S
C757 H750 0.950 . S
C757 C754 1.387 . S
C758 C759 1.387 . S
C758 H762 0.950 . S
C758 C767 1.390 . S
C759 C758 1.387 . S
C759 C761 1.387 1_565 S
H760 C767 0.950 . S
C761 C759 1.387 1_545 S
C761 C763 1.390 . S
C761 H765 0.950 . S
H762 C758 0.950 . S
C763 C761 1.390 . S
C763 C764 1.387 . S
C763 H766 0.950 . S
C764 C763 1.387 . S
C764 C767 1.387 1_545 S
H765 C761 0.950 . S
H766 C763 0.950 . S
C767 C758 1.390 . S
C767 H760 0.950 . S
C767 C764 1.387 1_565 S
C768 C769 1.387 . S
C768 H772 0.950 . S
C768 C777 1.390 . S
C769 C768 1.387 . S
C769 C771 1.387 . S
H770 C777 0.950 . S
C771 C769 1.387 . S
C771 C773 1.390 . S
C771 H775 0.950 . S
H772 C768 0.950 . S
C773 C771 1.390 . S
C773 C774 1.387 . S
C773 H776 0.950 . S
C774 C773 1.387 . S
C774 C777 1.387 . S
H775 C771 0.950 . S
H776 C773 0.950 . S
C777 C768 1.390 . S
C777 H770 0.950 . S
C777 C774 1.387 . S
C778 C779 1.387 . S
C778 H782 0.950 . S
C778 C787 1.390 . S
C779 C778 1.387 . S
C779 C781 1.387 . S
H780 C787 0.950 . S
C781 C779 1.387 . S
C781 C783 1.390 . S
C781 H785 0.950 . S
H782 C778 0.950 . S
C783 C781 1.390 . S
C783 C784 1.387 . S
C783 H786 0.950 . S
C784 C783 1.387 . S
C784 C787 1.387 . S
H785 C781 0.950 . S
H786 C783 0.950 . S
C787 C778 1.390 . S
C787 H780 0.950 . S
C787 C784 1.387 . S
C788 C789 1.387 . S
C788 H792 0.950 . S
C788 C797 1.390 . S
C789 C788 1.387 . S
C789 C791 1.387 . S
H790 C797 0.950 . S
C791 C789 1.387 . S
C791 C793 1.390 . S
C791 H795 0.950 . S
H792 C788 0.950 . S
C793 C791 1.390 . S
C793 C794 1.387 . S
C793 H796 0.950 . S
C794 C793 1.387 . S
C794 C797 1.387 . S
H795 C791 0.950 . S
H796 C793 0.950 . S
C797 C788 1.390 . S
C797 H790 0.950 . S
C797 C794 1.387 . S
C798 C799 1.387 . S
C798 H802 0.950 . S
C798 C807 1.390 . S
C799 C798 1.387 . S
C799 C801 1.387 . S
H800 C807 0.950 . S
C801 C799 1.387 . S
C801 C803 1.390 . S
C801 H805 0.950 . S
H802 C798 0.950 . S
C803 C801 1.390 . S
C803 C804 1.387 . S
C803 H806 0.950 . S
C804 C803 1.387 . S
C804 C807 1.387 . S
H805 C801 0.950 . S
H806 C803 0.950 . S
C807 C798 1.390 . S
C807 H800 0.950 . S
C807 C804 1.387 . S
C808 C809 1.387 . S
C808 H812 0.950 . S
C808 C817 1.390 . S
C809 C808 1.387 . S
C809 C811 1.387 . S
H810 C817 0.950 . S
C811 C809 1.387 . S
C811 C813 1.390 . S
C811 H815 0.950 . S
H812 C808 0.950 . S
C813 C811 1.390 . S
C813 C814 1.387 . S
C813 H816 0.950 . S
C814 C813 1.387 . S
C814 C817 1.387 . S
H815 C811 0.950 . S
H816 C813 0.950 . S
C817 C808 1.390 . S
C817 H810 0.950 . S
C817 C814 1.387 . S
C818 C819 1.387 . S
C818 H822 0.950 . S
C818 C827 1.390 . S
C819 C818 1.387 . S
C819 C821 1.387 . S
H820 C827 0.950 . S
C821 C819 1.387 . S
C821 C823 1.390 . S
C821 H825 0.950 . S
H822 C818 0.950 . S
C823 C821 1.390 . S
C823 C824 1.387 . S
C823 H826 0.950 . S
C824 C823 1.387 . S
C824 C827 1.387 . S
H825 C821 0.950 . S
H826 C823 0.950 . S
C827 C818 1.390 . S
C827 H820 0.950 . S
C827 C824 1.387 . S
C828 C829 1.387 . S
C828 H832 0.950 . S
C828 C837 1.390 . S
C829 C828 1.387 . S
C829 C831 1.387 . S
H830 C837 0.950 . S
C831 C829 1.387 . S
C831 C833 1.390 . S
C831 H835 0.950 . S
H832 C828 0.950 . S
C833 C831 1.390 . S
C833 C834 1.387 . S
C833 H836 0.950 . S
C834 C833 1.387 . S
C834 C837 1.387 . S
H835 C831 0.950 . S
H836 C833 0.950 . S
C837 C828 1.390 . S
C837 H830 0.950 . S
C837 C834 1.387 . S
C838 C839 1.387 . S
C838 H842 0.950 . S
C838 C847 1.390 . S
C839 C838 1.387 . S
C839 C841 1.387 . S
H840 C847 0.950 . S
C841 C839 1.387 . S
C841 C843 1.390 . S
C841 H845 0.950 . S
H842 C838 0.950 . S
C843 C841 1.390 . S
C843 C844 1.387 . S
C843 H846 0.950 . S
C844 C843 1.387 . S
C844 C847 1.387 . S
H845 C841 0.950 . S
H846 C843 0.950 . S
C847 C838 1.390 . S
C847 H840 0.950 . S
C847 C844 1.387 . S
C848 C849 1.387 . S
C848 H852 0.950 . S
C848 C857 1.390 1_455 S
C849 C848 1.387 . S
C849 C851 1.387 . S
H850 C857 0.950 . S
C851 C849 1.387 . S
C851 C853 1.390 1_455 S
C851 H855 0.950 . S
H852 C848 0.950 . S
C853 C851 1.390 1_655 S
C853 C854 1.387 . S
C853 H856 0.950 . S
C854 C853 1.387 . S
C854 C857 1.387 . S
H855 C851 0.950 . S
H856 C853 0.950 . S
C857 C848 1.390 1_655 S
C857 H850 0.950 . S
C857 C854 1.387 . S
C858 C859 1.387 . S
C858 H862 0.950 . S
C858 C867 1.390 . S
C859 C858 1.387 . S
C859 C861 1.387 . S
H860 C867 0.950 . S
C861 C859 1.387 . S
C861 C863 1.390 . S
C861 H865 0.950 . S
H862 C858 0.950 . S
C863 C861 1.390 . S
C863 C864 1.387 . S
C863 H866 0.950 . S
C864 C863 1.387 . S
C864 C867 1.387 . S
H865 C861 0.950 . S
H866 C863 0.950 . S
C867 C858 1.390 . S
C867 H860 0.950 . S
C867 C864 1.387 . S
C868 C869 1.387 . S
C868 H872 0.950 . S
C868 C877 1.390 . S
C869 C868 1.387 . S
C869 C871 1.387 . S
H870 C877 0.950 . S
C871 C869 1.387 . S
C871 C873 1.390 . S
C871 H875 0.950 . S
H872 C868 0.950 . S
C873 C871 1.390 . S
C873 C874 1.387 . S
C873 H876 0.950 . S
C874 C873 1.387 . S
C874 C877 1.387 . S
H875 C871 0.950 . S
H876 C873 0.950 . S
C877 C868 1.390 . S
C877 H870 0.950 . S
C877 C874 1.387 . S
C878 C879 1.387 . S
C878 H882 0.950 . S
C878 C887 1.390 1_455 S
C879 C878 1.387 . S
C879 C881 1.387 . S
H880 C887 0.950 . S
C881 C879 1.387 . S
C881 C883 1.390 1_455 S
C881 H885 0.950 . S
H882 C878 0.950 . S
C883 C881 1.390 1_655 S
C883 C884 1.387 . S
C883 H886 0.950 . S
C884 C883 1.387 . S
C884 C887 1.387 . S
H885 C881 0.950 . S
H886 C883 0.950 . S
C887 C878 1.390 1_655 S
C887 H880 0.950 . S
C887 C884 1.387 . S
C888 C889 1.387 . S
C888 H892 0.950 . S
C888 C897 1.390 1_455 S
C889 C888 1.387 . S
C889 C891 1.387 . S
H890 C897 0.950 . S
C891 C889 1.387 . S
C891 C893 1.390 1_455 S
C891 H895 0.950 . S
H892 C888 0.950 . S
C893 C891 1.390 1_655 S
C893 C894 1.387 . S
C893 H896 0.950 . S
C894 C893 1.387 . S
C894 C897 1.387 . S
H895 C891 0.950 . S
H896 C893 0.950 . S
C897 C888 1.390 1_655 S
C897 H890 0.950 . S
C897 C894 1.387 . S
C898 C899 1.387 . S
C898 H902 0.950 . S
C898 C907 1.390 1_455 S
C899 C898 1.387 . S
C899 C901 1.387 . S
H900 C907 0.950 . S
C901 C899 1.387 . S
C901 C903 1.390 1_455 S
C901 H905 0.950 . S
H902 C898 0.950 . S
C903 C901 1.390 1_655 S
C903 C904 1.387 . S
C903 H906 0.950 . S
C904 C903 1.387 . S
C904 C907 1.387 . S
H905 C901 0.950 . S
H906 C903 0.950 . S
C907 C898 1.390 1_655 S
C907 H900 0.950 . S
C907 C904 1.387 . S
C908 C909 1.387 . S
C908 H912 0.950 . S
C908 C917 1.390 . S
C909 C908 1.387 . S
C909 C911 1.387 . S
H910 C917 0.950 . S
C911 C909 1.387 . S
C911 C913 1.390 . S
C911 H915 0.950 . S
H912 C908 0.950 . S
C913 C911 1.390 . S
C913 C914 1.387 . S
C913 H916 0.950 . S
C914 C913 1.387 . S
C914 C917 1.387 . S
H915 C911 0.950 . S
H916 C913 0.950 . S
C917 C908 1.390 . S
C917 H910 0.950 . S
C917 C914 1.387 . S
C918 C919 1.387 . S
C918 H922 0.950 . S
C918 C927 1.390 . S
C919 C918 1.387 . S
C919 C921 1.387 . S
H920 C927 0.950 . S
C921 C919 1.387 . S
C921 C923 1.390 . S
C921 H925 0.950 . S
H922 C918 0.950 . S
C923 C921 1.390 . S
C923 C924 1.387 . S
C923 H926 0.950 . S
C924 C923 1.387 . S
C924 C927 1.387 . S
H925 C921 0.950 . S
H926 C923 0.950 . S
C927 C918 1.390 . S
C927 H920 0.950 . S
C927 C924 1.387 . S
C529 N434 1.345 . S
C534 N5 1.345 . S
C539 N38 1.346 . S
C544 N368 1.346 . S
C549 N71 1.347 . S
C554 N401 1.347 . S
C559 N104 1.345 . S
C564 N335 1.345 . S
C569 N500 1.348 . S
C574 N137 1.346 . S
C579 N170 1.345 . S
C584 N302 1.345 . S
C589 N203 1.345 . S
C594 N467 1.345 . S
C599 N269 1.345 . S
C604 N236 1.345 . S
C609 C28 1.660 . S
C614 C160 1.660 . S
C619 C61 1.663 . S
C624 C193 1.663 . S
C629 C94 1.663 . S
C634 C226 1.663 . S
C639 C259 1.663 . S
C644 C127 1.663 . S
C649 C358 1.660 . S
C654 C292 1.660 . S
C659 C325 1.660 . S
C664 C391 1.660 . S
C669 C490 1.663 . S
C674 C424 1.663 . S
C679 C523 1.663 . S
C684 C457 1.663 . S
C689 C173 1.387 . S
C694 C8 1.391 1_565 S
C699 C41 1.390 . S
C704 C206 1.387 1_565 S
C709 C74 1.390 . S
C714 C239 1.388 . S
C719 C140 1.387 . S
C724 C107 1.390 . S
C729 C149 0.560 . S
C734 C347 0.567 . S
C739 C83 0.561 . S
C744 C281 0.567 . S
C749 C380 0.566 . S
C754 C215 0.559 . S
C759 C314 0.558 . S
C764 C17 0.565 . S
C769 C272 1.388 . S
C774 C404 1.391 . S
C779 C503 1.389 . S
C784 C338 1.388 . S
C789 C437 1.388 . S
C794 C305 1.390 . S
C799 C371 1.389 . S
C804 C470 1.388 . S
C809 C479 0.563 . S
C814 C50 0.566 . S
C819 C182 0.567 . S
C824 C446 0.560 . S
C829 C512 0.564 . S
C834 C116 0.565 . S
C839 C248 0.558 . S
C844 C413 0.566 . S
C849 N14 0.869 . S
C854 N443 0.869 . S
C859 N47 0.869 . S
C864 N377 0.869 . S
C869 N80 0.869 . S
C874 N410 0.869 . S
C879 N113 0.869 . S
C884 N344 0.869 . S
C889 N146 0.868 . S
C894 N509 0.868 . S
C899 N179 0.877 . S
C904 N311 0.877 . S
C909 N476 0.877 . S
C914 N212 0.877 . S
C919 N278 0.869 . S
C924 N245 0.869 . S
