# Generated by pormake.
# Topology est, (5)-cn, num edge types: 1
# Building blocks:
#     Node 0, Type 0, BuildingBlock: XOMCOT_clean_sbu_0, # of connection points: 5
#     Node 1, Type 0, BuildingBlock: XOMCOT_clean_sbu_0, # of connection points: 5
#     Node 2, Type 0, BuildingBlock: XOMCOT_clean_sbu_0, # of connection points: 5
#     Node 3, Type 0, BuildingBlock: XOMCOT_clean_sbu_0, # of connection points: 5
#     Edge 4, Type (0, 0), BuildingBlock: ZUJKAS_clean_linker_0, # of connection points: 2
#     Edge 5, Type (0, 0), BuildingBlock: ZUJKAS_clean_linker_0, # of connection points: 2
#     Edge 6, Type (0, 0), BuildingBlock: ZUJKAS_clean_linker_0, # of connection points: 2
#     Edge 7, Type (0, 0), BuildingBlock: ZUJKAS_clean_linker_0, # of connection points: 2
#     Edge 8, Type (0, 0), BuildingBlock: ZUJKAS_clean_linker_0, # of connection points: 2
#     Edge 9, Type (0, 0), BuildingBlock: ZUJKAS_clean_linker_0, # of connection points: 2
#     Edge 10, Type (0, 0), BuildingBlock: ZUJKAS_clean_linker_0, # of connection points: 2
#     Edge 11, Type (0, 0), BuildingBlock: ZUJKAS_clean_linker_0, # of connection points: 2
#     Edge 12, Type (0, 0), BuildingBlock: ZUJKAS_clean_linker_0, # of connection points: 2
#     Edge 13, Type (0, 0), BuildingBlock: ZUJKAS_clean_linker_0, # of connection points: 2
# Relax obj value: 0.174
# Max RMSD: 0.241
# Mean RMSD: 0.241
data_MOF--net-est--node1-XOMCOT_clean_sbu_0--edge1-ZUJKAS_clean_linker_0
_symmetry_space_group_name_H-M    P1
_symmetry_Int_Tables_number       1
_symmetry_cell_setting            triclinic
loop_
_symmetry_equiv_pos_as_xyz
'x, y, z'
_cell_length_a     21.483143
_cell_length_b     21.481164
_cell_length_c     68.238045
_cell_angle_alpha  90.109498
_cell_angle_beta   91.799168
_cell_angle_gamma 90.002357
loop_
_atom_site_label
_atom_site_type_symbol
_atom_site_fract_x
_atom_site_fract_y
_atom_site_fract_z
_atom_type_partial_charge
Co0 Co 0.29665 0.18415 0.57655 0.0
C1 C 0.16345 0.21937 0.57702 0.0
C2 C 0.21163 0.26801 0.55479 0.0
C3 C 0.14873 0.27824 0.55194 0.0
N4 N 0.22121 0.23178 0.57076 0.0
N5 N 0.11855 0.24722 0.5659 0.0
H6 H 0.1534 0.18486 0.58789 0.0
H7 H 0.24732 0.28158 0.54482 0.0
C8 C 0.34312 0.31524 0.57112 0.0
O9 O 0.29777 0.33723 0.58161 0.0
N10 N 0.37111 0.13619 0.58168 0.0
C11 C 0.38103 0.09392 0.59598 0.0
C12 C 0.44331 0.07816 0.59653 0.0
C13 C 0.42672 0.14482 0.57353 0.0
N14 N 0.4719 0.11049 0.58244 0.0
C15 C 0.25338 0.18373 0.61585 0.0
C16 C 0.34852 0.25413 0.63267 0.0
C17 C 0.30165 0.23155 0.64463 0.0
C18 C 0.25388 0.19569 0.63593 0.0
C19 C 0.34597 0.2414 0.61251 0.0
N20 N 0.29755 0.20829 0.60417 0.0
H21 H 0.21889 0.152 0.60996 0.0
H22 H 0.38431 0.25634 0.60383 0.0
H23 H 0.34615 0.0781 0.60592 0.0
H24 H 0.43473 0.17831 0.56208 0.0
O25 O 0.24655 0.10954 0.5777 0.0
O26 O 0.28756 0.14761 0.55085 0.0
O27 O 0.34972 0.25669 0.56885 0.0
C28 C 0.25172 0.10654 0.55876 0.0
H29 H 0.12686 0.30333 0.53983 0.0
H30 H 0.46608 0.04699 0.60693 0.0
H31 H 0.38716 0.28085 0.63883 0.0
H32 H 0.21834 0.17471 0.6447 0.0
Co33 Co 0.79432 0.764 0.07905 0.0
C34 C 0.76816 0.62958 0.07692 0.0
C35 C 0.71496 0.67948 0.05517 0.0
C36 C 0.71033 0.61679 0.05104 0.0
N37 N 0.75048 0.68771 0.07168 0.0
N38 N 0.74475 0.58575 0.06462 0.0
H39 H 0.80291 0.61949 0.08817 0.0
H40 H 0.69911 0.71641 0.0455 0.0
C41 C 0.66346 0.80941 0.07007 0.0
O42 O 0.63964 0.76267 0.07971 0.0
N43 N 0.83868 0.83932 0.08554 0.0
C44 C 0.87518 0.85163 0.10146 0.0
C45 C 0.89142 0.91379 0.10107 0.0
C46 C 0.83399 0.8931 0.07557 0.0
N47 N 0.86497 0.93981 0.08482 0.0
C48 C 0.78231 0.71412 0.11782 0.0
C49 C 0.71095 0.80959 0.1324 0.0
C50 C 0.72699 0.75948 0.14467 0.0
C51 C 0.76335 0.71149 0.13717 0.0
C52 C 0.73007 0.80983 0.11297 0.0
N53 N 0.76366 0.7614 0.10567 0.0
H54 H 0.8143 0.67934 0.113 0.0
H55 H 0.71944 0.8501 0.10404 0.0
H56 H 0.88686 0.81852 0.11292 0.0
H57 H 0.80717 0.89802 0.06199 0.0
O58 O 0.87041 0.71641 0.08261 0.0
O59 O 0.83643 0.75907 0.0547 0.0
O60 O 0.72228 0.81596 0.0692 0.0
C61 C 0.87728 0.72417 0.06385 0.0
H62 H 0.68874 0.59629 0.03801 0.0
H63 H 0.91789 0.93844 0.11239 0.0
H64 H 0.68421 0.84842 0.13779 0.0
H65 H 0.77913 0.67335 0.14643 0.0
Co66 Co 0.69865 0.80689 0.42207 0.0
C67 C 0.83156 0.77507 0.42046 0.0
C68 C 0.7862 0.72212 0.44232 0.0
C69 C 0.84955 0.71469 0.445 0.0
N70 N 0.77466 0.75943 0.4267 0.0
N71 N 0.87784 0.74896 0.43141 0.0
H72 H 0.83956 0.81013 0.40957 0.0
H73 H 0.75161 0.70697 0.45244 0.0
C74 C 0.65314 0.67517 0.42748 0.0
O75 O 0.69747 0.6534 0.41653 0.0
N76 N 0.62373 0.85462 0.41814 0.0
C77 C 0.61056 0.89662 0.404 0.0
C78 C 0.54856 0.91271 0.40498 0.0
C79 C 0.5706 0.84646 0.42769 0.0
N80 N 0.52348 0.88057 0.4198 0.0
C81 C 0.73675 0.81079 0.38225 0.0
C82 C 0.64213 0.73811 0.36618 0.0
C83 C 0.68657 0.76298 0.35372 0.0
C84 C 0.73396 0.80023 0.36208 0.0
C85 C 0.64646 0.75023 0.38636 0.0
N86 N 0.69475 0.78436 0.39431 0.0
H87 H 0.77131 0.84282 0.38794 0.0
H88 H 0.60959 0.73376 0.39538 0.0
H89 H 0.64282 0.91198 0.39316 0.0
H90 H 0.56619 0.81466 0.43982 0.0
O91 O 0.74794 0.88207 0.42077 0.0
O92 O 0.71056 0.84208 0.44789 0.0
O93 O 0.64679 0.73366 0.42998 0.0
C94 C 0.74486 0.88409 0.43979 0.0
H95 H 0.87288 0.69155 0.45725 0.0
H96 H 0.5232 0.94277 0.39484 0.0
H97 H 0.60393 0.70996 0.36042 0.0
H98 H 0.7676 0.82314 0.35306 0.0
Co99 Co 0.19939 0.22154 0.9213 0.0
C100 C 0.23463 0.35471 0.92152 0.0
C101 C 0.28366 0.30388 0.94406 0.0
C102 C 0.29464 0.36641 0.947 0.0
N103 N 0.24679 0.29627 0.92785 0.0
N104 N 0.26338 0.3983 0.93284 0.0
H105 H 0.2001 0.36594 0.91032 0.0
H106 H 0.29764 0.26693 0.954 0.0
C107 C 0.33155 0.17475 0.92697 0.0
O108 O 0.35397 0.2235 0.91797 0.0
N109 N 0.15183 0.1475 0.91544 0.0
C110 C 0.10954 0.13854 0.90073 0.0
C111 C 0.09398 0.07621 0.90015 0.0
C112 C 0.16061 0.09133 0.92379 0.0
N113 N 0.12646 0.04664 0.91462 0.0
C114 C 0.19325 0.27166 0.88232 0.0
C115 C 0.2698 0.18518 0.86524 0.0
C116 C 0.24426 0.23305 0.85358 0.0
C117 C 0.20514 0.27636 0.8624 0.0
C118 C 0.25658 0.18217 0.88518 0.0
N119 N 0.22078 0.22666 0.89373 0.0
H120 H 0.16008 0.30335 0.88836 0.0
H121 H 0.27357 0.14264 0.89345 0.0
H122 H 0.09338 0.17417 0.89062 0.0
H123 H 0.19401 0.08277 0.93565 0.0
O124 O 0.12401 0.271 0.92084 0.0
O125 O 0.16576 0.22453 0.94707 0.0
O126 O 0.27297 0.1675 0.92841 0.0
C127 C 0.12309 0.2612 0.93966 0.0
H128 H 0.32072 0.3868 0.95922 0.0
H129 H 0.0627 0.05417 0.88951 0.0
H130 H 0.29817 0.14915 0.85891 0.0
H131 H 0.18343 0.31358 0.85396 0.0
H132 H 0.0333 0.245 0.53561 0.0
H133 H 0.92218 0.22114 0.53739 0.0
H134 H 0.94372 0.19671 0.59995 0.0
H135 H 0.05429 0.2223 0.59835 0.0
H136 H 0.86635 0.1131 0.55073 0.0
H137 H 0.79737 0.31653 0.59523 0.0
H138 H 0.87104 0.31256 0.58328 0.0
H139 H 0.86067 0.27298 0.60616 0.0
C140 C 0.01415 0.23581 0.54979 0.0
C141 C 0.05253 0.23615 0.56689 0.0
C142 C 0.95076 0.2216 0.55075 0.0
C143 C 0.92453 0.20807 0.56883 0.0
C144 C 0.96272 0.20822 0.58589 0.0
H145 H 0.56513 0.0972 0.6098 0.0
H146 H 0.67602 0.11667 0.60548 0.0
C147 C 0.026 0.22233 0.58494 0.0
C148 C 0.85756 0.19223 0.56988 0.0
H149 H 0.72305 0.2347 0.59166 0.0
C150 C 0.83483 0.13997 0.55952 0.0
C151 C 0.81658 0.22738 0.58138 0.0
C152 C 0.83741 0.28584 0.592 0.0
C153 C 0.77249 0.12101 0.56078 0.0
C154 C 0.73197 0.15552 0.57258 0.0
C155 C 0.7545 0.20809 0.58275 0.0
C156 C 0.66578 0.13825 0.5746 0.0
C157 C 0.75073 0.06353 0.54983 0.0
C158 C 0.6235 0.14339 0.55861 0.0
C159 C 0.56007 0.1323 0.56104 0.0
C160 C 0.53785 0.11576 0.5795 0.0
C161 C 0.58074 0.10896 0.59535 0.0
C162 C 0.64405 0.12049 0.59294 0.0
H163 H 0.7904 0.03408 0.54539 0.0
H164 H 0.71951 0.03514 0.55891 0.0
H165 H 0.72407 0.07774 0.53638 0.0
H166 H 0.63931 0.1577 0.54439 0.0
H167 H 0.52824 0.13753 0.54854 0.0
H168 H 0.67497 0.48791 0.05203 0.0
H169 H 0.70569 0.37762 0.05253 0.0
H170 H 0.8877 0.42865 0.07566 0.0
H171 H 0.85769 0.53808 0.0751 0.0
H172 H 0.81598 0.31475 0.03521 0.0
H173 H 0.81175 0.30668 0.11671 0.0
H174 H 0.77289 0.36693 0.10254 0.0
H175 H 0.85594 0.36884 0.1063 0.0
C176 C 0.72159 0.47544 0.05707 0.0
C177 C 0.76335 0.52143 0.06395 0.0
C178 C 0.73908 0.41269 0.05733 0.0
C179 C 0.79856 0.39527 0.06443 0.0
C180 C 0.8412 0.44124 0.07048 0.0
H181 H 0.94866 0.02949 0.09552 0.0
H182 H 0.94006 0.14126 0.08885 0.0
C183 C 0.82375 0.50372 0.07029 0.0
C184 C 0.81528 0.3289 0.06643 0.0
H185 H 0.8441 0.21594 0.10057 0.0
C186 C 0.82238 0.29303 0.04947 0.0
C187 C 0.82389 0.30113 0.08508 0.0
C188 C 0.81537 0.33755 0.10375 0.0
C189 C 0.83789 0.22964 0.05068 0.0
C190 C 0.84496 0.20144 0.06935 0.0
C191 C 0.83894 0.23776 0.08629 0.0
C192 C 0.85383 0.13354 0.07176 0.0
C193 C 0.84694 0.1936 0.03199 0.0
C194 C 0.80817 0.09237 0.06443 0.0
C195 C 0.81273 0.02883 0.06831 0.0
C196 C 0.86291 0.00496 0.07974 0.0
C197 C 0.90919 0.04629 0.08682 0.0
C198 C 0.90455 0.11007 0.08292 0.0
H199 H 0.85989 0.22483 0.01981 0.0
H200 H 0.88358 0.1575 0.034 0.0
H201 H 0.80264 0.1701 0.02761 0.0
H202 H 0.7677 0.10964 0.05627 0.0
H203 H 0.77549 -0.00101 0.06294 0.0
H204 H 0.43314 0.96704 0.41316 0.0
H205 H 0.32134 0.95419 0.41813 0.0
H206 H 0.35486 0.76974 0.44095 0.0
H207 H 0.46552 0.78175 0.43589 0.0
H208 H 0.24797 0.86349 0.40031 0.0
H209 H 0.23861 0.84287 0.48103 0.0
H210 H 0.30552 0.87384 0.46897 0.0
H211 H 0.2944 0.79102 0.47072 0.0
C212 C 0.41669 0.92401 0.41939 0.0
C213 C 0.45849 0.87563 0.4242 0.0
C214 C 0.35294 0.91688 0.42232 0.0
C215 C 0.33006 0.86145 0.43023 0.0
C216 C 0.37171 0.81358 0.43535 0.0
H217 H 0.97657 0.67607 0.44106 0.0
H218 H 0.08696 0.70623 0.44132 0.0
C219 C 0.43522 0.82062 0.43243 0.0
C220 C 0.26229 0.85078 0.43142 0.0
H221 H 0.14957 0.80505 0.46246 0.0
C222 C 0.22614 0.85181 0.41394 0.0
C223 C 0.23422 0.83504 0.44921 0.0
C224 C 0.27009 0.83618 0.46858 0.0
C225 C 0.16295 0.83552 0.41367 0.0
C226 C 0.13522 0.81852 0.4314 0.0
C227 C 0.1711 0.81824 0.44892 0.0
C228 C 0.06887 0.8009 0.43197 0.0
C229 C 0.12692 0.83453 0.39432 0.0
C230 C 0.02259 0.8445 0.42698 0.0
C231 C 0.96002 0.82732 0.42671 0.0
C232 C 0.94253 0.76629 0.43158 0.0
C233 C 0.98892 0.72319 0.43714 0.0
C234 C 0.05172 0.74037 0.43732 0.0
H235 H 0.15824 0.83446 0.38167 0.0
H236 H 0.09623 0.79299 0.39322 0.0
H237 H 0.09709 0.87661 0.3932 0.0
H238 H 0.03491 0.89186 0.42329 0.0
H239 H 0.92537 0.86218 0.42295 0.0
H240 H 0.10951 0.95463 0.88768 0.0
H241 H 0.12957 0.84359 0.89243 0.0
H242 H 0.17879 0.8773 0.95326 0.0
H243 H 0.15744 0.9883 0.94875 0.0
H244 H 0.24793 0.79576 0.9054 0.0
H245 H 0.05947 0.72614 0.95495 0.0
H246 H 0.05545 0.79624 0.94036 0.0
H247 H 0.1037 0.79375 0.96231 0.0
C248 C 0.12309 0.93835 0.90218 0.0
C249 C 0.13187 0.98046 0.91784 0.0
C250 C 0.13497 0.8749 0.90484 0.0
C251 C 0.15521 0.85222 0.92322 0.0
C252 C 0.16238 0.89372 0.93902 0.0
H253 H 0.26759 0.48181 0.96288 0.0
H254 H 0.24513 0.5933 0.96091 0.0
C255 C 0.1507 0.95723 0.93636 0.0
C256 C 0.1732 0.78598 0.92546 0.0
H257 H 0.13661 0.65077 0.94867 0.0
C258 C 0.22349 0.76394 0.9148 0.0
C259 C 0.14174 0.74496 0.93795 0.0
C260 C 0.08676 0.76609 0.94947 0.0
C261 C 0.24334 0.70188 0.91631 0.0
C262 C 0.21099 0.66036 0.92844 0.0
C263 C 0.16123 0.68264 0.93934 0.0
C264 C 0.22688 0.59324 0.92954 0.0
C265 C 0.29947 0.68171 0.90514 0.0
C266 C 0.22386 0.55617 0.91259 0.0
C267 C 0.23731 0.49265 0.91364 0.0
C268 C 0.25342 0.46464 0.9317 0.0
C269 C 0.25647 0.50196 0.94868 0.0
C270 C 0.24308 0.56562 0.94761 0.0
H271 H 0.32963 0.72194 0.90162 0.0
H272 H 0.32778 0.64716 0.91359 0.0
H273 H 0.28366 0.65991 0.8911 0.0
H274 H 0.21022 0.5762 0.89855 0.0
H275 H 0.23481 0.46536 0.90029 0.0
H276 H 0.3543 0.21315 0.83516 0.0
H277 H 0.37348 0.22015 0.8 0.0
H278 H 0.18065 0.26731 0.78863 0.0
H279 H 0.16103 0.26015 0.82359 0.0
H280 H 0.31923 0.15335 0.76915 0.0
H281 H 0.27095 0.40509 0.75997 0.0
H282 H 0.28357 0.36961 0.78373 0.0
H283 H 0.2088 0.36394 0.77122 0.0
C284 C 0.31595 0.22484 0.82516 0.0
C285 C 0.25625 0.23665 0.83223 0.0
C286 C 0.32707 0.22914 0.80509 0.0
C287 C 0.27882 0.24557 0.79174 0.0
C288 C 0.21902 0.25635 0.79872 0.0
H289 H 0.20488 0.26099 0.66798 0.0
H290 H 0.20564 0.26701 0.70377 0.0
C291 C 0.20788 0.25216 0.81873 0.0
C292 C 0.29005 0.24909 0.7704 0.0
H293 H 0.27422 0.34453 0.73055 0.0
C294 C 0.31023 0.19536 0.76073 0.0
C295 C 0.27838 0.304 0.75946 0.0
C296 C 0.25982 0.36412 0.76914 0.0
C297 C 0.31643 0.19426 0.74029 0.0
C298 C 0.303 0.24867 0.72929 0.0
C299 C 0.28438 0.30286 0.73902 0.0
C300 C 0.30435 0.24909 0.70756 0.0
C301 C 0.33477 0.13417 0.73054 0.0
C302 C 0.35995 0.23862 0.69778 0.0
C303 C 0.35965 0.23497 0.67728 0.0
C304 C 0.30368 0.24175 0.66622 0.0
C305 C 0.24858 0.25463 0.67608 0.0
C306 C 0.24898 0.25841 0.69653 0.0
H307 H 0.3313 0.09368 0.74056 0.0
H308 H 0.30491 0.12527 0.71725 0.0
H309 H 0.38372 0.13767 0.72593 0.0
H310 H 0.40339 0.23227 0.70603 0.0
H311 H 0.40281 0.22468 0.67016 0.0
H312 H 0.67594 0.66329 0.16471 0.0
H313 H 0.65424 0.65876 0.1997 0.0
H314 H 0.72047 0.84737 0.20684 0.0
H315 H 0.7401 0.85266 0.17177 0.0
H316 H 0.73192 0.6644 0.22949 0.0
H317 H 0.56551 0.8581 0.2371 0.0
H318 H 0.58679 0.8284 0.21349 0.0
H319 H 0.63561 0.88452 0.22625 0.0
C320 C 0.68497 0.70404 0.17374 0.0
C321 C 0.70936 0.75845 0.16553 0.0
C322 C 0.67257 0.70144 0.19372 0.0
C323 C 0.68474 0.75303 0.20594 0.0
C324 C 0.70877 0.80758 0.19769 0.0
H325 H 0.78257 0.74694 0.32869 0.0
H326 H 0.77712 0.74052 0.29307 0.0
C327 C 0.7203 0.8105 0.17764 0.0
C328 C 0.67686 0.74818 0.22748 0.0
H329 H 0.61784 0.82365 0.2669 0.0
C330 C 0.70623 0.69884 0.23761 0.0
C331 C 0.64235 0.79223 0.23815 0.0
C332 C 0.60522 0.84333 0.22814 0.0
C333 C 0.7042 0.69375 0.25809 0.0
C334 C 0.67372 0.74045 0.26888 0.0
C335 C 0.64208 0.78831 0.25871 0.0
C336 C 0.6764 0.74212 0.29069 0.0
C337 C 0.73454 0.63808 0.26789 0.0
C338 C 0.62166 0.74685 0.30133 0.0
C339 C 0.62467 0.75219 0.3218 0.0
C340 C 0.68257 0.75301 0.33207 0.0
C341 C 0.73717 0.74724 0.32133 0.0
C342 C 0.73412 0.74255 0.30091 0.0
H343 H 0.73531 0.59746 0.25779 0.0
H344 H 0.78354 0.64965 0.27205 0.0
H345 H 0.71003 0.62437 0.2813 0.0
H346 H 0.57656 0.74713 0.29378 0.0
H347 H 0.58167 0.75752 0.32949 0.0
H348 H 0.45135 0.28749 0.55326 0.0
H349 H 0.50486 0.34978 0.52922 0.0
H350 H 0.3752 0.50007 0.53755 0.0
H351 H 0.32039 0.43728 0.56155 0.0
H352 H 0.38732 0.46486 0.49827 0.0
H353 H 0.61953 0.5005 0.53438 0.0
H354 H 0.59496 0.42063 0.53372 0.0
H355 H 0.55235 0.47641 0.5477 0.0
C356 C 0.43469 0.33416 0.55026 0.0
C357 C 0.38138 0.35732 0.55927 0.0
C358 C 0.46567 0.36989 0.53657 0.0
C359 C 0.44431 0.42971 0.53169 0.0
C360 C 0.39254 0.45402 0.54118 0.0
H361 H 0.54627 0.7027 0.44603 0.0
H362 H 0.49332 0.63965 0.47 0.0
C363 C 0.36152 0.41827 0.55497 0.0
C364 C 0.47301 0.46442 0.51553 0.0
H365 H 0.61067 0.52391 0.5003 0.0
C366 C 0.43604 0.47824 0.49877 0.0
C367 C 0.53672 0.48113 0.51613 0.0
C368 C 0.57814 0.46945 0.53401 0.0
C369 C 0.46128 0.50762 0.48246 0.0
C370 C 0.52496 0.52438 0.48307 0.0
C371 C 0.56197 0.51048 0.49982 0.0
C372 C 0.55341 0.55962 0.46699 0.0
C373 C 0.41984 0.5195 0.4646 0.0
C374 C 0.60472 0.53547 0.45721 0.0
C375 C 0.6353 0.57163 0.44341 0.0
C376 C 0.61548 0.6328 0.43942 0.0
C377 C 0.56275 0.65584 0.44876 0.0
C378 C 0.53216 0.6197 0.46243 0.0
H379 H 0.37832 0.48862 0.46424 0.0
H380 H 0.40324 0.5684 0.4649 0.0
H381 H 0.44558 0.51246 0.45091 0.0
H382 H 0.62198 0.48923 0.46061 0.0
H383 H 0.67604 0.55272 0.43658 0.0
H384 H 0.45099 0.19546 0.94076 0.0
H385 H 0.51071 0.13066 0.96421 0.0
H386 H 0.36368 0.99384 0.96235 0.0
H387 H 0.30476 0.05724 0.93877 0.0
H388 H 0.46695 0.10013 0.00095 0.0
H389 H 0.51823 0.88583 0.95905 0.0
H390 H 0.49483 0.9577 0.94728 0.0
H391 H 0.43755 0.90753 0.95767 0.0
C392 C 0.43233 0.15072 0.94492 0.0
C393 C 0.37305 0.1316 0.93801 0.0
C394 C 0.46625 0.11397 0.9584 0.0
C395 C 0.44174 0.0573 0.96494 0.0
C396 C 0.38398 0.03684 0.95729 0.0
H397 H 0.54413 0.78857 0.05596 0.0
H398 H 0.48596 0.85136 0.03153 0.0
C399 C 0.35011 0.07346 0.94391 0.0
C400 C 0.4732 0.02239 0.98113 0.0
H401 H 0.53131 0.87966 0.99385 0.0
C402 C 0.48156 0.0521 0.99936 0.0
C403 C 0.49143 0.95952 0.97907 0.0
C404 C 0.48562 0.92589 0.95966 0.0
C405 C 0.50692 0.02034 0.01569 0.0
C406 C 0.52509 0.95747 0.01364 0.0
C407 C 0.51671 0.92771 0.99542 0.0
C408 C 0.55658 0.92285 0.02986 0.0
C409 C 0.51306 0.054 0.03509 0.0
C410 C 0.61492 0.9428 0.03716 0.0
C411 C 0.64794 0.90728 0.05103 0.0
C412 C 0.62349 0.85088 0.05784 0.0
C413 C 0.56393 0.83205 0.0511 0.0
C414 C 0.53089 0.86762 0.03708 0.0
H415 H 0.48142 0.09485 0.03562 0.0
H416 H 0.50277 0.02245 0.04745 0.0
H417 H 0.56155 0.0711 0.03721 0.0
H418 H 0.63605 0.98472 0.03158 0.0
H419 H 0.69362 0.92306 0.05595 0.0
H420 H 0.74979 0.89633 0.47957 0.0
H421 H 0.83643 0.93791 0.49959 0.0
H422 H 0.92769 0.99638 0.44732 0.0
H423 H 0.84118 0.95476 0.42715 0.0
H424 H 0.00027 0.91906 0.47178 0.0
H425 H 0.89852 0.11284 0.5141 0.0
H426 H 0.8547 0.04174 0.51491 0.0
H427 H 0.86161 0.08194 0.49201 0.0
C428 C 0.78735 0.91977 0.47235 0.0
C429 C 0.78868 0.92226 0.45179 0.0
C430 C 0.83683 0.94358 0.48382 0.0
C431 C 0.88831 0.97044 0.47493 0.0
C432 C 0.8882 0.97604 0.45445 0.0
H433 H 0.24993 0.09358 0.51899 0.0
H434 H 0.16383 0.05391 0.49834 0.0
C435 C 0.83854 0.95258 0.44296 0.0
C436 C 0.94479 0.98644 0.48686 0.0
H437 H -0.00225 0.07567 0.52528 0.0
C438 C -6e-05 0.95365 0.48339 0.0
C439 C 0.94397 0.03119 0.50205 0.0
C440 C 0.88671 0.06942 0.50592 0.0
C441 C 0.05411 0.96351 0.49501 0.0
C442 C 0.0532 0.00801 0.51029 0.0
C443 C -0.00188 0.0411 0.51366 0.0
C444 C 0.10924 0.02288 0.52259 0.0
C445 C 0.11125 0.92517 0.49109 0.0
C446 C 0.10771 0.01735 0.54305 0.0
C447 C 0.15696 0.03986 0.55491 0.0
C448 C 0.20824 0.0689 0.54646 0.0
C449 C 0.21126 0.07109 0.52592 0.0
C450 C 0.16207 0.04841 0.51409 0.0
H451 H 0.09875 0.88093 0.4835 0.0
H452 H 0.14221 0.95185 0.48146 0.0
H453 H 0.13769 0.91405 0.50488 0.0
H454 H 0.06726 -0.00214 0.54988 0.0
H455 H 0.15297 0.03796 0.57068 0.0
H456 H 0.94745 0.62593 0.07721 0.0
H457 H 0.99566 0.54599 0.05704 0.0
H458 H 0.94685 0.65083 0.00494 0.0
H459 H 0.89968 0.731 0.02492 0.0
H460 H 0.92866 0.4777 0.03012 0.0
H461 H 0.12152 0.59675 0.99338 0.0
H462 H 0.08506 0.62916 0.0146 0.0
H463 H 0.04936 0.63812 0.99054 0.0
C464 C 0.94903 0.63301 0.06152 0.0
C465 C 0.91975 0.68471 0.05264 0.0
C466 C 0.97619 0.58709 0.05001 0.0
C467 C 0.97517 0.59261 0.0295 0.0
C468 C 0.94931 0.6461 0.02075 0.0
H469 H 0.05085 0.36141 0.92957 0.0
H470 H 0.00807 0.43825 0.95197 0.0
C471 C 0.92216 0.69188 0.03221 0.0
C472 C 0.99441 0.53979 0.01708 0.0
H473 H 0.08547 0.50135 0.97883 0.0
C474 C 0.96349 0.48258 0.01904 0.0
C475 C 0.03944 0.54647 0.00255 0.0
C476 C 0.07616 0.60578 0.00026 0.0
C477 C 0.97516 0.43235 0.0065 0.0
C478 C 0.01941 0.43945 0.99177 0.0
C479 C 0.05095 0.49633 0.98999 0.0
C480 C 0.03556 0.38815 0.97833 0.0
C481 C 0.93884 0.3728 0.00879 0.0
C482 C 0.06345 0.33369 0.98573 0.0
C483 C 0.08766 0.28961 0.97298 0.0
C484 C 0.0847 0.29947 0.9526 0.0
C485 C 0.05342 0.35224 0.94518 0.0
C486 C 0.02932 0.39638 0.95796 0.0
H487 H 0.89536 0.38067 0.01684 0.0
H488 H 0.92659 0.35174 0.99431 0.0
H489 H 0.96775 0.3389 0.01729 0.0
H490 H 0.06964 0.32687 0.0014 0.0
H491 H 0.1118 0.24957 0.97914 0.0
loop_
_geom_bond_atom_site_label_1
_geom_bond_atom_site_label_2
_geom_bond_distance
_geom_bond_site_symmetry_2
_ccdc_geom_bond_type
Co0 N4 2.148 . S
Co0 N10 2.128 . S
Co0 N20 2.194 . S
Co0 O25 2.351 . S
Co0 O26 2.155 . S
Co0 O27 2.096 . S
C1 N4 1.301 . S
C1 N5 1.328 . S
C1 H6 0.930 . S
C2 C3 1.333 . S
C2 N4 1.317 . S
C2 H7 0.930 . S
C3 C2 1.333 . S
C3 N5 1.350 . S
C3 H29 0.931 . S
N4 Co0 2.148 . S
N4 C1 1.301 . S
N4 C2 1.317 . S
N5 C1 1.328 . S
N5 C3 1.350 . S
H6 C1 0.930 . S
H7 C2 0.930 . S
C8 O9 1.224 . S
C8 O27 1.247 . S
O9 C8 1.224 . S
N10 Co0 2.128 . S
N10 C11 1.355 . S
N10 C13 1.311 . S
C11 N10 1.355 . S
C11 C12 1.363 . S
C11 H23 0.929 . S
C12 C11 1.363 . S
C12 N14 1.375 . S
C12 H30 0.931 . S
C13 N10 1.311 . S
C13 N14 1.347 . S
C13 H24 0.929 . S
N14 C12 1.375 . S
N14 C13 1.347 . S
C15 C18 1.365 . S
C15 N20 1.328 . S
C15 H21 0.929 . S
C16 C17 1.362 . S
C16 C19 1.378 . S
C16 H31 0.929 . S
C17 C16 1.362 . S
C17 C18 1.366 . S
C18 C15 1.365 . S
C18 C17 1.366 . S
C18 H32 0.930 . S
C19 C16 1.378 . S
C19 N20 1.315 . S
C19 H22 0.930 . S
N20 Co0 2.194 . S
N20 C15 1.328 . S
N20 C19 1.315 . S
H21 C15 0.929 . S
H22 C19 0.930 . S
H23 C11 0.929 . S
H24 C13 0.929 . S
O25 Co0 2.351 . S
O25 C28 1.244 . S
O26 Co0 2.155 . S
O26 C28 1.240 . S
O27 Co0 2.096 . S
O27 C8 1.247 . S
C28 O25 1.244 . S
C28 O26 1.240 . S
H29 C3 0.931 . S
H30 C12 0.931 . S
H31 C16 0.929 . S
H32 C18 0.930 . S
Co33 N37 2.148 . S
Co33 N43 2.128 . S
Co33 N53 2.194 . S
Co33 O58 2.351 . S
Co33 O59 2.155 . S
Co33 O60 2.096 . S
C34 N37 1.301 . S
C34 N38 1.328 . S
C34 H39 0.930 . S
C35 C36 1.333 . S
C35 N37 1.317 . S
C35 H40 0.930 . S
C36 C35 1.333 . S
C36 N38 1.350 . S
C36 H62 0.931 . S
N37 Co33 2.148 . S
N37 C34 1.301 . S
N37 C35 1.317 . S
N38 C34 1.328 . S
N38 C36 1.350 . S
H39 C34 0.930 . S
H40 C35 0.930 . S
C41 O42 1.224 . S
C41 O60 1.247 . S
O42 C41 1.224 . S
N43 Co33 2.128 . S
N43 C44 1.355 . S
N43 C46 1.311 . S
C44 N43 1.355 . S
C44 C45 1.363 . S
C44 H56 0.929 . S
C45 C44 1.363 . S
C45 N47 1.375 . S
C45 H63 0.931 . S
C46 N43 1.311 . S
C46 N47 1.347 . S
C46 H57 0.929 . S
N47 C45 1.375 . S
N47 C46 1.347 . S
C48 C51 1.365 . S
C48 N53 1.328 . S
C48 H54 0.929 . S
C49 C50 1.362 . S
C49 C52 1.378 . S
C49 H64 0.929 . S
C50 C49 1.362 . S
C50 C51 1.366 . S
C51 C48 1.365 . S
C51 C50 1.366 . S
C51 H65 0.930 . S
C52 C49 1.378 . S
C52 N53 1.315 . S
C52 H55 0.930 . S
N53 Co33 2.194 . S
N53 C48 1.328 . S
N53 C52 1.315 . S
H54 C48 0.929 . S
H55 C52 0.930 . S
H56 C44 0.929 . S
H57 C46 0.929 . S
O58 Co33 2.351 . S
O58 C61 1.244 . S
O59 Co33 2.155 . S
O59 C61 1.240 . S
O60 Co33 2.096 . S
O60 C41 1.247 . S
C61 O58 1.244 . S
C61 O59 1.240 . S
H62 C36 0.931 . S
H63 C45 0.931 . S
H64 C49 0.929 . S
H65 C51 0.930 . S
Co66 N70 2.148 . S
Co66 N76 2.128 . S
Co66 N86 2.194 . S
Co66 O91 2.351 . S
Co66 O92 2.155 . S
Co66 O93 2.096 . S
C67 N70 1.301 . S
C67 N71 1.328 . S
C67 H72 0.930 . S
C68 C69 1.333 . S
C68 N70 1.317 . S
C68 H73 0.930 . S
C69 C68 1.333 . S
C69 N71 1.350 . S
C69 H95 0.931 . S
N70 Co66 2.148 . S
N70 C67 1.301 . S
N70 C68 1.317 . S
N71 C67 1.328 . S
N71 C69 1.350 . S
H72 C67 0.930 . S
H73 C68 0.930 . S
C74 O75 1.224 . S
C74 O93 1.247 . S
O75 C74 1.224 . S
N76 Co66 2.128 . S
N76 C77 1.355 . S
N76 C79 1.311 . S
C77 N76 1.355 . S
C77 C78 1.363 . S
C77 H89 0.929 . S
C78 C77 1.363 . S
C78 N80 1.375 . S
C78 H96 0.931 . S
C79 N76 1.311 . S
C79 N80 1.347 . S
C79 H90 0.929 . S
N80 C78 1.375 . S
N80 C79 1.347 . S
C81 C84 1.365 . S
C81 N86 1.328 . S
C81 H87 0.929 . S
C82 C83 1.362 . S
C82 C85 1.378 . S
C82 H97 0.929 . S
C83 C82 1.362 . S
C83 C84 1.366 . S
C84 C81 1.365 . S
C84 C83 1.366 . S
C84 H98 0.930 . S
C85 C82 1.378 . S
C85 N86 1.315 . S
C85 H88 0.930 . S
N86 Co66 2.194 . S
N86 C81 1.328 . S
N86 C85 1.315 . S
H87 C81 0.929 . S
H88 C85 0.930 . S
H89 C77 0.929 . S
H90 C79 0.929 . S
O91 Co66 2.351 . S
O91 C94 1.244 . S
O92 Co66 2.155 . S
O92 C94 1.240 . S
O93 Co66 2.096 . S
O93 C74 1.247 . S
C94 O91 1.244 . S
C94 O92 1.240 . S
H95 C69 0.931 . S
H96 C78 0.931 . S
H97 C82 0.929 . S
H98 C84 0.930 . S
Co99 N103 2.148 . S
Co99 N109 2.128 . S
Co99 N119 2.194 . S
Co99 O124 2.351 . S
Co99 O125 2.155 . S
Co99 O126 2.096 . S
C100 N103 1.301 . S
C100 N104 1.328 . S
C100 H105 0.930 . S
C101 C102 1.333 . S
C101 N103 1.317 . S
C101 H106 0.930 . S
C102 C101 1.333 . S
C102 N104 1.350 . S
C102 H128 0.931 . S
N103 Co99 2.148 . S
N103 C100 1.301 . S
N103 C101 1.317 . S
N104 C100 1.328 . S
N104 C102 1.350 . S
H105 C100 0.930 . S
H106 C101 0.930 . S
C107 O108 1.224 . S
C107 O126 1.247 . S
O108 C107 1.224 . S
N109 Co99 2.128 . S
N109 C110 1.355 . S
N109 C112 1.311 . S
C110 N109 1.355 . S
C110 C111 1.363 . S
C110 H122 0.929 . S
C111 C110 1.363 . S
C111 N113 1.375 . S
C111 H129 0.931 . S
C112 N109 1.311 . S
C112 N113 1.347 . S
C112 H123 0.929 . S
N113 C111 1.375 . S
N113 C112 1.347 . S
C114 C117 1.365 . S
C114 N119 1.328 . S
C114 H120 0.929 . S
C115 C116 1.362 . S
C115 C118 1.378 . S
C115 H130 0.929 . S
C116 C115 1.362 . S
C116 C117 1.366 . S
C117 C114 1.365 . S
C117 C116 1.366 . S
C117 H131 0.930 . S
C118 C115 1.378 . S
C118 N119 1.315 . S
C118 H121 0.930 . S
N119 Co99 2.194 . S
N119 C114 1.328 . S
N119 C118 1.315 . S
H120 C114 0.929 . S
H121 C118 0.930 . S
H122 C110 0.929 . S
H123 C112 0.929 . S
O124 Co99 2.351 . S
O124 C127 1.244 . S
O125 Co99 2.155 . S
O125 C127 1.240 . S
O126 Co99 2.096 . S
O126 C107 1.247 . S
C127 O124 1.244 . S
C127 O125 1.240 . S
H128 C102 0.931 . S
H129 C111 0.931 . S
H130 C115 0.929 . S
H131 C117 0.930 . S
H132 C140 0.930 . S
H133 C142 0.930 . S
H134 C144 0.930 . S
H135 C147 0.929 . S
H136 C150 0.930 . S
H137 C152 0.960 . S
H138 C152 0.960 . S
H139 C152 0.960 . S
C140 H132 0.930 . S
C140 C141 1.377 1_655 S
C140 C142 1.384 . S
C141 C140 1.377 1_455 S
C141 C147 1.390 1_455 S
C142 H133 0.930 . S
C142 C140 1.384 . S
C142 C143 1.372 . S
C143 C142 1.372 . S
C143 C144 1.400 . S
C143 C148 1.490 . S
C144 H134 0.930 . S
C144 C143 1.400 . S
C144 C147 1.386 . S
H145 C161 0.930 . S
H146 C162 0.931 . S
C147 H135 0.929 . S
C147 C141 1.390 1_655 S
C147 C144 1.386 . S
C148 C143 1.490 . S
C148 C150 1.395 . S
C148 C151 1.403 . S
H149 C155 0.930 . S
C150 H136 0.930 . S
C150 C148 1.395 . S
C150 C153 1.403 . S
C151 C148 1.403 . S
C151 C152 1.524 . S
C151 C155 1.400 . S
C152 H137 0.960 . S
C152 H138 0.960 . S
C152 H139 0.960 . S
C152 C151 1.524 . S
C153 C150 1.403 . S
C153 C154 1.392 . S
C153 C157 1.495 . S
C154 C153 1.392 . S
C154 C155 1.385 . S
C154 C156 1.478 . S
C155 H149 0.930 . S
C155 C151 1.400 . S
C155 C154 1.385 . S
C156 C154 1.478 . S
C156 C158 1.381 . S
C156 C162 1.383 . S
C157 C153 1.495 . S
C157 H163 0.959 . S
C157 H164 0.961 . S
C157 H165 0.960 . S
C158 C156 1.381 . S
C158 C159 1.394 . S
C158 H166 0.930 . S
C159 C158 1.394 . S
C159 C160 1.383 . S
C159 H167 0.929 . S
C160 C159 1.383 . S
C160 C161 1.377 . S
C161 H145 0.930 . S
C161 C160 1.377 . S
C161 C162 1.379 . S
C162 H146 0.931 . S
C162 C156 1.383 . S
C162 C161 1.379 . S
H163 C157 0.959 . S
H164 C157 0.961 . S
H165 C157 0.960 . S
H166 C158 0.930 . S
H167 C159 0.929 . S
H168 C176 0.929 . S
H169 C178 0.930 . S
H170 C180 0.930 . S
H171 C183 0.929 . S
H172 C186 0.930 . S
H173 C188 0.960 . S
H174 C188 0.960 . S
H175 C188 0.960 . S
C176 H168 0.929 . S
C176 C177 1.377 . S
C176 C178 1.384 . S
C177 C176 1.377 . S
C177 C183 1.390 . S
C178 H169 0.930 . S
C178 C176 1.384 . S
C178 C179 1.372 . S
C179 C178 1.372 . S
C179 C180 1.400 . S
C179 C184 1.490 . S
C180 H170 0.930 . S
C180 C179 1.400 . S
C180 C183 1.386 . S
H181 C197 0.930 . S
H182 C198 0.931 . S
C183 H171 0.929 . S
C183 C177 1.390 . S
C183 C180 1.386 . S
C184 C179 1.490 . S
C184 C186 1.395 . S
C184 C187 1.403 . S
H185 C191 0.930 . S
C186 H172 0.930 . S
C186 C184 1.395 . S
C186 C189 1.403 . S
C187 C184 1.403 . S
C187 C188 1.524 . S
C187 C191 1.400 . S
C188 H173 0.960 . S
C188 H174 0.960 . S
C188 H175 0.960 . S
C188 C187 1.524 . S
C189 C186 1.403 . S
C189 C190 1.392 . S
C189 C193 1.495 . S
C190 C189 1.392 . S
C190 C191 1.385 . S
C190 C192 1.478 . S
C191 H185 0.930 . S
C191 C187 1.400 . S
C191 C190 1.385 . S
C192 C190 1.478 . S
C192 C194 1.381 . S
C192 C198 1.383 . S
C193 C189 1.495 . S
C193 H199 0.959 . S
C193 H200 0.961 . S
C193 H201 0.960 . S
C194 C192 1.381 . S
C194 C195 1.394 1_545 S
C194 H202 0.930 . S
C195 C194 1.394 1_565 S
C195 C196 1.383 . S
C195 H203 0.929 . S
C196 C195 1.383 . S
C196 C197 1.377 1_565 S
C197 H181 0.930 . S
C197 C196 1.377 1_545 S
C197 C198 1.379 . S
C198 H182 0.931 . S
C198 C192 1.383 . S
C198 C197 1.379 . S
H199 C193 0.959 . S
H200 C193 0.961 . S
H201 C193 0.960 . S
H202 C194 0.930 . S
H203 C195 0.929 . S
H204 C212 0.929 . S
H205 C214 0.930 . S
H206 C216 0.930 . S
H207 C219 0.929 . S
H208 C222 0.930 . S
H209 C224 0.960 . S
H210 C224 0.960 . S
H211 C224 0.960 . S
C212 H204 0.929 . S
C212 C213 1.377 . S
C212 C214 1.384 . S
C213 C212 1.377 . S
C213 C219 1.390 . S
C214 H205 0.930 . S
C214 C212 1.384 . S
C214 C215 1.372 . S
C215 C214 1.372 . S
C215 C216 1.400 . S
C215 C220 1.490 . S
C216 H206 0.930 . S
C216 C215 1.400 . S
C216 C219 1.386 . S
H217 C233 0.930 . S
H218 C234 0.931 . S
C219 H207 0.929 . S
C219 C213 1.390 . S
C219 C216 1.386 . S
C220 C215 1.490 . S
C220 C222 1.395 . S
C220 C223 1.403 . S
H221 C227 0.930 . S
C222 H208 0.930 . S
C222 C220 1.395 . S
C222 C225 1.403 . S
C223 C220 1.403 . S
C223 C224 1.524 . S
C223 C227 1.400 . S
C224 H209 0.960 . S
C224 H210 0.960 . S
C224 H211 0.960 . S
C224 C223 1.524 . S
C225 C222 1.403 . S
C225 C226 1.392 . S
C225 C229 1.495 . S
C226 C225 1.392 . S
C226 C227 1.385 . S
C226 C228 1.478 . S
C227 H221 0.930 . S
C227 C223 1.400 . S
C227 C226 1.385 . S
C228 C226 1.478 . S
C228 C230 1.381 . S
C228 C234 1.383 . S
C229 C225 1.495 . S
C229 H235 0.959 . S
C229 H236 0.961 . S
C229 H237 0.960 . S
C230 C228 1.381 . S
C230 C231 1.394 . S
C230 H238 0.930 . S
C231 C230 1.394 . S
C231 C232 1.383 1_455 S
C231 H239 0.929 1_455 S
C232 C231 1.383 1_655 S
C232 C233 1.377 1_655 S
C233 H217 0.930 . S
C233 C232 1.377 1_455 S
C233 C234 1.379 . S
C234 H218 0.931 . S
C234 C228 1.383 . S
C234 C233 1.379 . S
H235 C229 0.959 . S
H236 C229 0.961 . S
H237 C229 0.960 . S
H238 C230 0.930 . S
H239 C231 0.929 1_655 S
H240 C248 0.929 1_545 S
H241 C250 0.930 . S
H242 C252 0.930 . S
H243 C255 0.929 1_545 S
H244 C258 0.930 . S
H245 C260 0.960 . S
H246 C260 0.960 . S
H247 C260 0.960 . S
C248 H240 0.929 1_565 S
C248 C249 1.377 1_565 S
C248 C250 1.384 . S
C249 C248 1.377 1_545 S
C249 C255 1.390 1_545 S
C250 H241 0.930 . S
C250 C248 1.384 . S
C250 C251 1.372 . S
C251 C250 1.372 . S
C251 C252 1.400 . S
C251 C256 1.490 . S
C252 H242 0.930 . S
C252 C251 1.400 . S
C252 C255 1.386 . S
H253 C269 0.930 . S
H254 C270 0.931 . S
C255 H243 0.929 1_565 S
C255 C249 1.390 1_565 S
C255 C252 1.386 . S
C256 C251 1.490 . S
C256 C258 1.395 . S
C256 C259 1.403 . S
H257 C263 0.930 . S
C258 H244 0.930 . S
C258 C256 1.395 . S
C258 C261 1.403 . S
C259 C256 1.403 . S
C259 C260 1.524 . S
C259 C263 1.400 . S
C260 H245 0.960 . S
C260 H246 0.960 . S
C260 H247 0.960 . S
C260 C259 1.524 . S
C261 C258 1.403 . S
C261 C262 1.392 . S
C261 C265 1.495 . S
C262 C261 1.392 . S
C262 C263 1.385 . S
C262 C264 1.478 . S
C263 H257 0.930 . S
C263 C259 1.400 . S
C263 C262 1.385 . S
C264 C262 1.478 . S
C264 C266 1.381 . S
C264 C270 1.383 . S
C265 C261 1.495 . S
C265 H271 0.959 . S
C265 H272 0.961 . S
C265 H273 0.960 . S
C266 C264 1.381 . S
C266 C267 1.394 . S
C266 H274 0.930 . S
C267 C266 1.394 . S
C267 C268 1.383 . S
C267 H275 0.929 . S
C268 C267 1.383 . S
C268 C269 1.377 . S
C269 H253 0.930 . S
C269 C268 1.377 . S
C269 C270 1.379 . S
C270 H254 0.931 . S
C270 C264 1.383 . S
C270 C269 1.379 . S
H271 C265 0.959 . S
H272 C265 0.961 . S
H273 C265 0.960 . S
H274 C266 0.930 . S
H275 C267 0.929 . S
H276 C284 0.929 . S
H277 C286 0.930 . S
H278 C288 0.930 . S
H279 C291 0.929 . S
H280 C294 0.930 . S
H281 C296 0.960 . S
H282 C296 0.960 . S
H283 C296 0.960 . S
C284 H276 0.929 . S
C284 C285 1.377 . S
C284 C286 1.384 . S
C285 C284 1.377 . S
C285 C291 1.390 . S
C286 H277 0.930 . S
C286 C284 1.384 . S
C286 C287 1.372 . S
C287 C286 1.372 . S
C287 C288 1.400 . S
C287 C292 1.490 . S
C288 H278 0.930 . S
C288 C287 1.400 . S
C288 C291 1.386 . S
H289 C305 0.930 . S
H290 C306 0.931 . S
C291 H279 0.929 . S
C291 C285 1.390 . S
C291 C288 1.386 . S
C292 C287 1.490 . S
C292 C294 1.395 . S
C292 C295 1.403 . S
H293 C299 0.930 . S
C294 H280 0.930 . S
C294 C292 1.395 . S
C294 C297 1.403 . S
C295 C292 1.403 . S
C295 C296 1.524 . S
C295 C299 1.400 . S
C296 H281 0.960 . S
C296 H282 0.960 . S
C296 H283 0.960 . S
C296 C295 1.524 . S
C297 C294 1.403 . S
C297 C298 1.392 . S
C297 C301 1.495 . S
C298 C297 1.392 . S
C298 C299 1.385 . S
C298 C300 1.478 . S
C299 H293 0.930 . S
C299 C295 1.400 . S
C299 C298 1.385 . S
C300 C298 1.478 . S
C300 C302 1.381 . S
C300 C306 1.383 . S
C301 C297 1.495 . S
C301 H307 0.959 . S
C301 H308 0.961 . S
C301 H309 0.960 . S
C302 C300 1.381 . S
C302 C303 1.394 . S
C302 H310 0.930 . S
C303 C302 1.394 . S
C303 C304 1.383 . S
C303 H311 0.929 . S
C304 C303 1.383 . S
C304 C305 1.377 . S
C305 H289 0.930 . S
C305 C304 1.377 . S
C305 C306 1.379 . S
C306 H290 0.931 . S
C306 C300 1.383 . S
C306 C305 1.379 . S
H307 C301 0.959 . S
H308 C301 0.961 . S
H309 C301 0.960 . S
H310 C302 0.930 . S
H311 C303 0.929 . S
H312 C320 0.929 . S
H313 C322 0.930 . S
H314 C324 0.930 . S
H315 C327 0.929 . S
H316 C330 0.930 . S
H317 C332 0.960 . S
H318 C332 0.960 . S
H319 C332 0.960 . S
C320 H312 0.929 . S
C320 C321 1.377 . S
C320 C322 1.384 . S
C321 C320 1.377 . S
C321 C327 1.390 . S
C322 H313 0.930 . S
C322 C320 1.384 . S
C322 C323 1.372 . S
C323 C322 1.372 . S
C323 C324 1.400 . S
C323 C328 1.490 . S
C324 H314 0.930 . S
C324 C323 1.400 . S
C324 C327 1.386 . S
H325 C341 0.930 . S
H326 C342 0.931 . S
C327 H315 0.929 . S
C327 C321 1.390 . S
C327 C324 1.386 . S
C328 C323 1.490 . S
C328 C330 1.395 . S
C328 C331 1.403 . S
H329 C335 0.930 . S
C330 H316 0.930 . S
C330 C328 1.395 . S
C330 C333 1.403 . S
C331 C328 1.403 . S
C331 C332 1.524 . S
C331 C335 1.400 . S
C332 H317 0.960 . S
C332 H318 0.960 . S
C332 H319 0.960 . S
C332 C331 1.524 . S
C333 C330 1.403 . S
C333 C334 1.392 . S
C333 C337 1.495 . S
C334 C333 1.392 . S
C334 C335 1.385 . S
C334 C336 1.478 . S
C335 H329 0.930 . S
C335 C331 1.400 . S
C335 C334 1.385 . S
C336 C334 1.478 . S
C336 C338 1.381 . S
C336 C342 1.383 . S
C337 C333 1.495 . S
C337 H343 0.959 . S
C337 H344 0.961 . S
C337 H345 0.960 . S
C338 C336 1.381 . S
C338 C339 1.394 . S
C338 H346 0.930 . S
C339 C338 1.394 . S
C339 C340 1.383 . S
C339 H347 0.929 . S
C340 C339 1.383 . S
C340 C341 1.377 . S
C341 H325 0.930 . S
C341 C340 1.377 . S
C341 C342 1.379 . S
C342 H326 0.931 . S
C342 C336 1.383 . S
C342 C341 1.379 . S
H343 C337 0.959 . S
H344 C337 0.961 . S
H345 C337 0.960 . S
H346 C338 0.930 . S
H347 C339 0.929 . S
H348 C356 0.929 . S
H349 C358 0.930 . S
H350 C360 0.930 . S
H351 C363 0.929 . S
H352 C366 0.930 . S
H353 C368 0.960 . S
H354 C368 0.960 . S
H355 C368 0.960 . S
C356 H348 0.929 . S
C356 C357 1.377 . S
C356 C358 1.384 . S
C357 C356 1.377 . S
C357 C363 1.390 . S
C358 H349 0.930 . S
C358 C356 1.384 . S
C358 C359 1.372 . S
C359 C358 1.372 . S
C359 C360 1.400 . S
C359 C364 1.490 . S
C360 H350 0.930 . S
C360 C359 1.400 . S
C360 C363 1.386 . S
H361 C377 0.930 . S
H362 C378 0.931 . S
C363 H351 0.929 . S
C363 C357 1.390 . S
C363 C360 1.386 . S
C364 C359 1.490 . S
C364 C366 1.395 . S
C364 C367 1.403 . S
H365 C371 0.930 . S
C366 H352 0.930 . S
C366 C364 1.395 . S
C366 C369 1.403 . S
C367 C364 1.403 . S
C367 C368 1.524 . S
C367 C371 1.400 . S
C368 H353 0.960 . S
C368 H354 0.960 . S
C368 H355 0.960 . S
C368 C367 1.524 . S
C369 C366 1.403 . S
C369 C370 1.392 . S
C369 C373 1.495 . S
C370 C369 1.392 . S
C370 C371 1.385 . S
C370 C372 1.478 . S
C371 H365 0.930 . S
C371 C367 1.400 . S
C371 C370 1.385 . S
C372 C370 1.478 . S
C372 C374 1.381 . S
C372 C378 1.383 . S
C373 C369 1.495 . S
C373 H379 0.959 . S
C373 H380 0.961 . S
C373 H381 0.960 . S
C374 C372 1.381 . S
C374 C375 1.394 . S
C374 H382 0.930 . S
C375 C374 1.394 . S
C375 C376 1.383 . S
C375 H383 0.929 . S
C376 C375 1.383 . S
C376 C377 1.377 . S
C377 H361 0.930 . S
C377 C376 1.377 . S
C377 C378 1.379 . S
C378 H362 0.931 . S
C378 C372 1.383 . S
C378 C377 1.379 . S
H379 C373 0.959 . S
H380 C373 0.961 . S
H381 C373 0.960 . S
H382 C374 0.930 . S
H383 C375 0.929 . S
H384 C392 0.929 . S
H385 C394 0.930 . S
H386 C396 0.930 . S
H387 C399 0.929 . S
H388 C402 0.930 . S
H389 C404 0.960 . S
H390 C404 0.960 . S
H391 C404 0.960 1_545 S
C392 H384 0.929 . S
C392 C393 1.377 . S
C392 C394 1.384 . S
C393 C392 1.377 . S
C393 C399 1.390 . S
C394 H385 0.930 . S
C394 C392 1.384 . S
C394 C395 1.372 . S
C395 C394 1.372 . S
C395 C396 1.400 . S
C395 C400 1.490 . S
C396 H386 0.930 . S
C396 C395 1.400 . S
C396 C399 1.386 . S
H397 C413 0.930 . S
H398 C414 0.931 . S
C399 H387 0.929 . S
C399 C393 1.390 . S
C399 C396 1.386 . S
C400 C395 1.490 . S
C400 C402 1.395 . S
C400 C403 1.403 1_545 S
H401 C407 0.930 . S
C402 H388 0.930 . S
C402 C400 1.395 . S
C402 C405 1.403 1_556 S
C403 C400 1.403 1_565 S
C403 C404 1.524 . S
C403 C407 1.400 1_556 S
C404 H389 0.960 . S
C404 H390 0.960 . S
C404 H391 0.960 1_565 S
C404 C403 1.524 . S
C405 C402 1.403 1_554 S
C405 C406 1.392 1_545 S
C405 C409 1.495 . S
C406 C405 1.392 1_565 S
C406 C407 1.385 . S
C406 C408 1.478 . S
C407 H401 0.930 . S
C407 C403 1.400 1_554 S
C407 C406 1.385 . S
C408 C406 1.478 . S
C408 C410 1.381 . S
C408 C414 1.383 . S
C409 C405 1.495 . S
C409 H415 0.959 . S
C409 H416 0.961 . S
C409 H417 0.960 1_545 S
C410 C408 1.381 . S
C410 C411 1.394 . S
C410 H418 0.930 . S
C411 C410 1.394 . S
C411 C412 1.383 . S
C411 H419 0.929 . S
C412 C411 1.383 . S
C412 C413 1.377 . S
C413 H397 0.930 . S
C413 C412 1.377 . S
C413 C414 1.379 . S
C414 H398 0.931 . S
C414 C408 1.383 . S
C414 C413 1.379 . S
H415 C409 0.959 . S
H416 C409 0.961 . S
H417 C409 0.960 1_565 S
H418 C410 0.930 . S
H419 C411 0.929 . S
H420 C428 0.929 . S
H421 C430 0.930 . S
H422 C432 0.930 1_545 S
H423 C435 0.929 . S
H424 C438 0.930 . S
H425 C440 0.960 1_545 S
H426 C440 0.960 . S
H427 C440 0.960 1_545 S
C428 H420 0.929 . S
C428 C429 1.377 . S
C428 C430 1.384 . S
C429 C428 1.377 . S
C429 C435 1.390 . S
C430 H421 0.930 . S
C430 C428 1.384 . S
C430 C431 1.372 . S
C431 C430 1.372 . S
C431 C432 1.400 . S
C431 C436 1.490 . S
C432 H422 0.930 1_565 S
C432 C431 1.400 . S
C432 C435 1.386 . S
H433 C449 0.930 . S
H434 C450 0.931 . S
C435 H423 0.929 . S
C435 C429 1.390 . S
C435 C432 1.386 . S
C436 C431 1.490 . S
C436 C438 1.395 1_655 S
C436 C439 1.403 . S
H437 C443 0.930 . S
C438 H424 0.930 . S
C438 C436 1.395 1_455 S
C438 C441 1.412 . S
C439 C436 1.403 . S
C439 C440 1.524 . S
C439 C443 1.400 1_565 S
C440 H425 0.960 1_565 S
C440 H426 0.960 . S
C440 H427 0.960 1_565 S
C440 C439 1.524 . S
C441 C438 1.412 . S
C441 C442 1.385 1_565 S
C441 C445 1.495 1_565 S
C442 C441 1.385 1_545 S
C442 C443 1.385 1_455 S
C442 C444 1.478 . S
C443 H437 0.930 . S
C443 C439 1.400 1_545 S
C443 C442 1.385 1_655 S
C444 C442 1.478 . S
C444 C446 1.381 . S
C444 C450 1.383 . S
C445 C441 1.495 1_545 S
C445 H451 0.959 1_545 S
C445 H452 0.961 . S
C445 H453 0.960 1_545 S
C446 C444 1.381 . S
C446 C447 1.394 . S
C446 H454 0.930 1_545 S
C447 C446 1.394 . S
C447 C448 1.383 . S
C447 H455 0.929 . S
C448 C447 1.383 . S
C448 C449 1.377 . S
C449 H433 0.930 . S
C449 C448 1.377 . S
C449 C450 1.379 . S
C450 H434 0.931 . S
C450 C444 1.383 . S
C450 C449 1.379 . S
H451 C445 0.959 1_565 S
H452 C445 0.961 . S
H453 C445 0.960 1_565 S
H454 C446 0.930 1_565 S
H455 C447 0.929 . S
H456 C464 0.929 . S
H457 C466 0.930 . S
H458 C468 0.930 . S
H459 C471 0.929 . S
H460 C474 0.930 . S
H461 C476 0.960 . S
H462 C476 0.960 . S
H463 C476 0.960 . S
C464 H456 0.929 . S
C464 C465 1.377 . S
C464 C466 1.384 . S
C465 C464 1.377 . S
C465 C471 1.390 . S
C466 H457 0.930 . S
C466 C464 1.384 . S
C466 C467 1.372 . S
C467 C466 1.372 . S
C467 C468 1.400 . S
C467 C472 1.490 . S
C468 H458 0.930 . S
C468 C467 1.400 . S
C468 C471 1.386 . S
H469 C485 0.930 . S
H470 C486 0.931 . S
C471 H459 0.929 . S
C471 C465 1.390 . S
C471 C468 1.386 . S
C472 C467 1.490 . S
C472 C474 1.395 . S
C472 C475 1.403 1_655 S
H473 C479 0.930 . S
C474 H460 0.930 . S
C474 C472 1.395 . S
C474 C477 1.403 1_554 S
C475 C472 1.403 1_455 S
C475 C476 1.524 . S
C475 C479 1.400 1_554 S
C476 H461 0.960 . S
C476 H462 0.960 . S
C476 H463 0.960 . S
C476 C475 1.524 . S
C477 C474 1.403 1_556 S
C477 C478 1.392 1_655 S
C477 C481 1.495 . S
C478 C477 1.392 1_455 S
C478 C479 1.385 . S
C478 C480 1.478 . S
C479 H473 0.930 . S
C479 C475 1.400 1_556 S
C479 C478 1.385 . S
C480 C478 1.478 . S
C480 C482 1.381 . S
C480 C486 1.383 . S
C481 C477 1.495 . S
C481 H487 0.959 . S
C481 H488 0.961 . S
C481 H489 0.960 . S
C482 C480 1.381 . S
C482 C483 1.394 . S
C482 H490 0.930 . S
C483 C482 1.394 . S
C483 C484 1.383 . S
C483 H491 0.929 . S
C484 C483 1.383 . S
C484 C485 1.377 . S
C485 H469 0.930 . S
C485 C484 1.377 . S
C485 C486 1.379 . S
C486 H470 0.931 . S
C486 C480 1.383 . S
C486 C485 1.379 . S
H487 C481 0.959 . S
H488 C481 0.961 . S
H489 C481 0.960 . S
H490 C482 0.930 . S
H491 C483 0.929 . S
C141 N5 1.020 . S
C160 N14 1.021 . S
C177 N38 1.024 . S
C196 N47 1.036 . S
C213 N80 1.022 . S
C232 N71 1.034 . S
C249 N113 1.021 . S
C268 N104 1.034 . S
C285 C116 1.428 . S
C304 C17 1.429 . S
C321 C50 1.429 . S
C340 C83 1.425 . S
C357 C8 1.036 . S
C376 C74 1.032 . S
C393 C107 1.031 . S
C412 C41 0.996 . S
C429 C94 0.994 . S
C448 C28 1.003 . S
C465 C61 1.007 . S
C484 C127 1.031 . S
