# Generated by pormake.
# Topology cbo, (4)-cn, num edge types: 1
# Building blocks:
#     Node 0, Type 0, BuildingBlock: ESEHIV_clean_sbu_0, # of connection points: 4
#     Node 1, Type 0, BuildingBlock: ESEHIV_clean_sbu_0, # of connection points: 4
#     Node 2, Type 0, BuildingBlock: ESEHIV_clean_sbu_0, # of connection points: 4
#     Node 3, Type 0, BuildingBlock: ESEHIV_clean_sbu_0, # of connection points: 4
#     Node 4, Type 0, BuildingBlock: ESEHIV_clean_sbu_0, # of connection points: 4
#     Node 5, Type 0, BuildingBlock: ESEHIV_clean_sbu_0, # of connection points: 4
#     Node 6, Type 0, BuildingBlock: ESEHIV_clean_sbu_0, # of connection points: 4
#     Node 7, Type 0, BuildingBlock: ESEHIV_clean_sbu_0, # of connection points: 4
#     Node 8, Type 0, BuildingBlock: ESEHIV_clean_sbu_0, # of connection points: 4
#     Node 9, Type 0, BuildingBlock: ESEHIV_clean_sbu_0, # of connection points: 4
#     Node 10, Type 0, BuildingBlock: ESEHIV_clean_sbu_0, # of connection points: 4
#     Node 11, Type 0, BuildingBlock: ESEHIV_clean_sbu_0, # of connection points: 4
#     Node 12, Type 0, BuildingBlock: ESEHIV_clean_sbu_0, # of connection points: 4
#     Node 13, Type 0, BuildingBlock: ESEHIV_clean_sbu_0, # of connection points: 4
#     Node 14, Type 0, BuildingBlock: ESEHIV_clean_sbu_0, # of connection points: 4
#     Node 15, Type 0, BuildingBlock: ESEHIV_clean_sbu_0, # of connection points: 4
#     Node 16, Type 0, BuildingBlock: ESEHIV_clean_sbu_0, # of connection points: 4
#     Node 17, Type 0, BuildingBlock: ESEHIV_clean_sbu_0, # of connection points: 4
#     Node 18, Type 0, BuildingBlock: ESEHIV_clean_sbu_0, # of connection points: 4
#     Node 19, Type 0, BuildingBlock: ESEHIV_clean_sbu_0, # of connection points: 4
#     Node 20, Type 0, BuildingBlock: ESEHIV_clean_sbu_0, # of connection points: 4
#     Node 21, Type 0, BuildingBlock: ESEHIV_clean_sbu_0, # of connection points: 4
#     Node 22, Type 0, BuildingBlock: ESEHIV_clean_sbu_0, # of connection points: 4
#     Node 23, Type 0, BuildingBlock: ESEHIV_clean_sbu_0, # of connection points: 4
#     Edge 24, Type (0, 0), BuildingBlock: TEMPAE_clean_linker_10, # of connection points: 2
#     Edge 25, Type (0, 0), BuildingBlock: TEMPAE_clean_linker_10, # of connection points: 2
#     Edge 26, Type (0, 0), BuildingBlock: TEMPAE_clean_linker_10, # of connection points: 2
#     Edge 27, Type (0, 0), BuildingBlock: TEMPAE_clean_linker_10, # of connection points: 2
#     Edge 28, Type (0, 0), BuildingBlock: TEMPAE_clean_linker_10, # of connection points: 2
#     Edge 29, Type (0, 0), BuildingBlock: TEMPAE_clean_linker_10, # of connection points: 2
#     Edge 30, Type (0, 0), BuildingBlock: TEMPAE_clean_linker_10, # of connection points: 2
#     Edge 31, Type (0, 0), BuildingBlock: TEMPAE_clean_linker_10, # of connection points: 2
#     Edge 32, Type (0, 0), BuildingBlock: TEMPAE_clean_linker_10, # of connection points: 2
#     Edge 33, Type (0, 0), BuildingBlock: TEMPAE_clean_linker_10, # of connection points: 2
#     Edge 34, Type (0, 0), BuildingBlock: TEMPAE_clean_linker_10, # of connection points: 2
#     Edge 35, Type (0, 0), BuildingBlock: TEMPAE_clean_linker_10, # of connection points: 2
#     Edge 36, Type (0, 0), BuildingBlock: TEMPAE_clean_linker_10, # of connection points: 2
#     Edge 37, Type (0, 0), BuildingBlock: TEMPAE_clean_linker_10, # of connection points: 2
#     Edge 38, Type (0, 0), BuildingBlock: TEMPAE_clean_linker_10, # of connection points: 2
#     Edge 39, Type (0, 0), BuildingBlock: TEMPAE_clean_linker_10, # of connection points: 2
#     Edge 40, Type (0, 0), BuildingBlock: TEMPAE_clean_linker_10, # of connection points: 2
#     Edge 41, Type (0, 0), BuildingBlock: TEMPAE_clean_linker_10, # of connection points: 2
#     Edge 42, Type (0, 0), BuildingBlock: TEMPAE_clean_linker_10, # of connection points: 2
#     Edge 43, Type (0, 0), BuildingBlock: TEMPAE_clean_linker_10, # of connection points: 2
#     Edge 44, Type (0, 0), BuildingBlock: TEMPAE_clean_linker_10, # of connection points: 2
#     Edge 45, Type (0, 0), BuildingBlock: TEMPAE_clean_linker_10, # of connection points: 2
#     Edge 46, Type (0, 0), BuildingBlock: TEMPAE_clean_linker_10, # of connection points: 2
#     Edge 47, Type (0, 0), BuildingBlock: TEMPAE_clean_linker_10, # of connection points: 2
#     Edge 48, Type (0, 0), BuildingBlock: TEMPAE_clean_linker_10, # of connection points: 2
#     Edge 49, Type (0, 0), BuildingBlock: TEMPAE_clean_linker_10, # of connection points: 2
#     Edge 50, Type (0, 0), BuildingBlock: TEMPAE_clean_linker_10, # of connection points: 2
#     Edge 51, Type (0, 0), BuildingBlock: TEMPAE_clean_linker_10, # of connection points: 2
#     Edge 52, Type (0, 0), BuildingBlock: TEMPAE_clean_linker_10, # of connection points: 2
#     Edge 53, Type (0, 0), BuildingBlock: TEMPAE_clean_linker_10, # of connection points: 2
#     Edge 54, Type (0, 0), BuildingBlock: TEMPAE_clean_linker_10, # of connection points: 2
#     Edge 55, Type (0, 0), BuildingBlock: TEMPAE_clean_linker_10, # of connection points: 2
#     Edge 56, Type (0, 0), BuildingBlock: TEMPAE_clean_linker_10, # of connection points: 2
#     Edge 57, Type (0, 0), BuildingBlock: TEMPAE_clean_linker_10, # of connection points: 2
#     Edge 58, Type (0, 0), BuildingBlock: TEMPAE_clean_linker_10, # of connection points: 2
#     Edge 59, Type (0, 0), BuildingBlock: TEMPAE_clean_linker_10, # of connection points: 2
#     Edge 60, Type (0, 0), BuildingBlock: TEMPAE_clean_linker_10, # of connection points: 2
#     Edge 61, Type (0, 0), BuildingBlock: TEMPAE_clean_linker_10, # of connection points: 2
#     Edge 62, Type (0, 0), BuildingBlock: TEMPAE_clean_linker_10, # of connection points: 2
#     Edge 63, Type (0, 0), BuildingBlock: TEMPAE_clean_linker_10, # of connection points: 2
#     Edge 64, Type (0, 0), BuildingBlock: TEMPAE_clean_linker_10, # of connection points: 2
#     Edge 65, Type (0, 0), BuildingBlock: TEMPAE_clean_linker_10, # of connection points: 2
#     Edge 66, Type (0, 0), BuildingBlock: TEMPAE_clean_linker_10, # of connection points: 2
#     Edge 67, Type (0, 0), BuildingBlock: TEMPAE_clean_linker_10, # of connection points: 2
#     Edge 68, Type (0, 0), BuildingBlock: TEMPAE_clean_linker_10, # of connection points: 2
#     Edge 69, Type (0, 0), BuildingBlock: TEMPAE_clean_linker_10, # of connection points: 2
#     Edge 70, Type (0, 0), BuildingBlock: TEMPAE_clean_linker_10, # of connection points: 2
#     Edge 71, Type (0, 0), BuildingBlock: TEMPAE_clean_linker_10, # of connection points: 2
# Relax obj value: 0.118
# Max RMSD: 0.287
# Mean RMSD: 0.269
data_MOF--net-cbo--node1-ESEHIV_clean_sbu_0--edge1-TEMPAE_clean_linker_10
_symmetry_space_group_name_H-M    P1
_symmetry_Int_Tables_number       1
_symmetry_cell_setting            triclinic
loop_
_symmetry_equiv_pos_as_xyz
'x, y, z'
_cell_length_a     55.683895
_cell_length_b     60.434592
_cell_length_c     57.203042
_cell_angle_alpha  90.062629
_cell_angle_beta   89.991621
_cell_angle_gamma 89.930558
loop_
_atom_site_label
_atom_site_type_symbol
_atom_site_fract_x
_atom_site_fract_y
_atom_site_fract_z
_atom_type_partial_charge
Cu0 Cu 0.11259 0.17872 0.32455 0.0
N1 N 0.126 0.19142 0.35137 0.0
N2 N 0.13846 0.1975 0.38805 0.0
C3 C 0.127 0.18342 0.37338 0.0
C4 C 0.14467 0.21499 0.37468 0.0
C5 C 0.13699 0.21119 0.35217 0.0
O6 O 0.08297 0.16339 0.33232 0.0
C7 C 0.15625 0.15475 0.3157 0.0
O8 O 0.16112 0.15845 0.33782 0.0
H9 H 0.1199 0.16744 0.37835 0.0
H10 H 0.13923 0.22209 0.33735 0.0
N11 N 0.10312 0.20147 0.30463 0.0
N12 N 0.09966 0.22332 0.27335 0.0
C13 C 0.11285 0.20748 0.28402 0.0
C14 C 0.08328 0.21396 0.30714 0.0
C15 C 0.08109 0.22745 0.28788 0.0
C16 C 0.07678 0.14417 0.32554 0.0
O17 O 0.09228 0.13177 0.31418 0.0
H18 H 0.12875 0.19987 0.27665 0.0
H19 H 0.071 0.21292 0.32174 0.0
O20 O 0.13608 0.16095 0.30745 0.0
H21 H 0.1539 0.22967 0.38072 0.0
H22 H 0.0669 0.23935 0.28478 0.0
Cu23 Cu 0.39335 0.82741 0.82432 0.0
N24 N 0.377 0.82246 0.85241 0.0
N25 N 0.3671 0.81958 0.89028 0.0
C26 C 0.38484 0.82392 0.8747 0.0
C27 C 0.34748 0.81536 0.87709 0.0
C28 C 0.35365 0.81711 0.8539 0.0
O29 O 0.42401 0.84204 0.82981 0.0
C30 C 0.35948 0.86024 0.80946 0.0
O31 O 0.36135 0.86802 0.83084 0.0
H32 H 0.40316 0.82796 0.87931 0.0
H33 H 0.34185 0.81495 0.83905 0.0
N34 N 0.39966 0.8004 0.80971 0.0
N35 N 0.39906 0.77312 0.78316 0.0
C36 C 0.38907 0.79243 0.79028 0.0
C37 C 0.41691 0.78573 0.81519 0.0
C38 C 0.41657 0.76889 0.79891 0.0
C39 C 0.43325 0.85517 0.81494 0.0
O40 O 0.42101 0.86018 0.79603 0.0
H41 H 0.37443 0.80078 0.78152 0.0
H42 H 0.42924 0.78747 0.82969 0.0
O43 O 0.37238 0.84383 0.80335 0.0
H44 H 0.3297 0.81175 0.88366 0.0
H45 H 0.42881 0.75498 0.79839 0.0
Cu46 Cu 0.62521 0.32577 0.69817 0.0
N47 N 0.64108 0.3249 0.66929 0.0
N48 N 0.65046 0.32208 0.6313 0.0
C49 C 0.63248 0.32349 0.64724 0.0
C50 C 0.67094 0.32278 0.64393 0.0
C51 C 0.6651 0.32435 0.66718 0.0
O52 O 0.59252 0.33706 0.6958 0.0
C53 C 0.65683 0.3598 0.71445 0.0
O54 O 0.65417 0.36823 0.69344 0.0
H55 H 0.61353 0.32294 0.64308 0.0
H56 H 0.67754 0.32492 0.68169 0.0
N57 N 0.6239 0.29702 0.70999 0.0
N58 N 0.62374 0.26886 0.7353 0.0
C59 C 0.62152 0.29097 0.73255 0.0
C60 C 0.62761 0.27813 0.69806 0.0
C61 C 0.62758 0.26073 0.71363 0.0
C62 C 0.58653 0.35552 0.68682 0.0
O63 O 0.60323 0.36845 0.67812 0.0
H64 H 0.61927 0.30263 0.74677 0.0
H65 H 0.63082 0.27717 0.67944 0.0
O66 O 0.64483 0.34268 0.72006 0.0
H67 H 0.68898 0.32231 0.63693 0.0
H68 H 0.63047 0.24347 0.70939 0.0
Cu69 Cu 0.8995 0.67754 0.19584 0.0
N70 N 0.88165 0.67959 0.16818 0.0
N71 N 0.87004 0.68397 0.13095 0.0
C72 C 0.88892 0.68243 0.14585 0.0
C73 C 0.85034 0.6819 0.14455 0.0
C74 C 0.85753 0.67932 0.16735 0.0
O75 O 0.9304 0.66318 0.19084 0.0
C76 C 0.86841 0.6448 0.2158 0.0
O77 O 0.87104 0.63432 0.19582 0.0
H78 H 0.90757 0.68381 0.14075 0.0
H79 H 0.84595 0.67749 0.1824 0.0
N80 N 0.90517 0.70592 0.20734 0.0
N81 N 0.90974 0.73379 0.23265 0.0
C82 C 0.90712 0.71172 0.23 0.0
C83 C 0.9067 0.7249 0.19519 0.0
C84 C 0.90946 0.74216 0.21077 0.0
C85 C 0.94313 0.6577 0.2084 0.0
O86 O 0.93419 0.66049 0.22946 0.0
H87 H 0.90578 0.70004 0.24428 0.0
H88 H 0.90544 0.72612 0.17637 0.0
O89 O 0.87997 0.66266 0.21928 0.0
H90 H 0.83194 0.68204 0.13848 0.0
H91 H 0.911 0.75951 0.20635 0.0
Cu92 Cu 0.31972 0.11697 0.16635 0.0
N93 N 0.31235 0.09034 0.15111 0.0
N94 N 0.31048 0.0547 0.14049 0.0
C95 C 0.32149 0.06984 0.15428 0.0
C96 C 0.29403 0.06621 0.12814 0.0
C97 C 0.29523 0.08807 0.13472 0.0
O98 O 0.35421 0.11969 0.17093 0.0
C99 C 0.28574 0.10659 0.20241 0.0
O100 O 0.28364 0.08754 0.19156 0.0
H101 H 0.33535 0.06601 0.16691 0.0
H102 H 0.28413 0.10142 0.12823 0.0
N103 N 0.31107 0.14024 0.14661 0.0
N104 N 0.29638 0.17237 0.13341 0.0
C105 C 0.29877 0.15878 0.15206 0.0
C106 C 0.31675 0.14217 0.12387 0.0
C107 C 0.30769 0.1619 0.11566 0.0
C108 C 0.36697 0.11012 0.18636 0.0
O109 O 0.35666 0.09685 0.20151 0.0
H110 H 0.29165 0.16214 0.16931 0.0
H111 H 0.32698 0.13011 0.11403 0.0
O112 O 0.30109 0.12062 0.19511 0.0
H113 H 0.28192 0.05934 0.11524 0.0
H114 H 0.30974 0.16823 0.09809 0.0
Cu115 Cu 0.18739 0.91234 0.67308 0.0
N116 N 0.19457 0.93752 0.6554 0.0
N117 N 0.19766 0.97231 0.64211 0.0
C118 C 0.18868 0.95893 0.65903 0.0
C119 C 0.20961 0.95857 0.62749 0.0
C120 C 0.20756 0.93729 0.63562 0.0
O121 O 0.15432 0.91334 0.68413 0.0
C122 C 0.2324 0.91271 0.69592 0.0
O123 O 0.23966 0.92087 0.67587 0.0
H124 H 0.178 0.96445 0.67371 0.0
H125 H 0.21534 0.92261 0.62786 0.0
N126 N 0.1897 0.88775 0.65347 0.0
N127 N 0.20177 0.85603 0.63724 0.0
C128 C 0.20715 0.87231 0.65257 0.0
C129 C 0.17287 0.88113 0.63814 0.0
C130 C 0.18023 0.86154 0.62813 0.0
C131 C 0.14532 0.89576 0.69268 0.0
O132 O 0.15935 0.87847 0.69561 0.0
H133 H 0.22308 0.87265 0.66341 0.0
H134 H 0.1562 0.88978 0.63483 0.0
O135 O 0.21017 0.90844 0.6987 0.0
H136 H 0.21973 0.96343 0.6122 0.0
H137 H 0.1705 0.85208 0.61514 0.0
Cu138 Cu 0.83349 0.40617 0.84823 0.0
N139 N 0.82988 0.43118 0.86716 0.0
N140 N 0.82845 0.46608 0.88033 0.0
C141 C 0.83303 0.45273 0.8618 0.0
C142 C 0.82212 0.45229 0.89784 0.0
C143 C 0.82302 0.4309 0.88969 0.0
O144 O 0.86588 0.40589 0.83483 0.0
C145 C 0.80504 0.39005 0.81045 0.0
O146 O 0.82107 0.37412 0.80982 0.0
H147 H 0.83864 0.45843 0.84473 0.0
H148 H 0.8187 0.41612 0.89946 0.0
N149 N 0.83051 0.38134 0.86741 0.0
N150 N 0.81768 0.3497 0.88313 0.0
C151 C 0.81286 0.3661 0.8678 0.0
C152 C 0.84681 0.3745 0.8832 0.0
C153 C 0.839 0.35494 0.89285 0.0
C154 C 0.87637 0.38768 0.82996 0.0
O155 O 0.8644 0.3691 0.83219 0.0
H156 H 0.79717 0.36671 0.85665 0.0
H157 H 0.86342 0.383 0.88706 0.0
O158 O 0.80772 0.40579 0.82505 0.0
H159 H 0.8166 0.45729 0.91521 0.0
H160 H 0.84825 0.34533 0.90604 0.0
Cu161 Cu 0.695 0.60737 0.35561 0.0
N162 N 0.69942 0.58132 0.37283 0.0
N163 N 0.70007 0.54608 0.3849 0.0
C164 C 0.69397 0.56016 0.36745 0.0
C165 C 0.70984 0.55896 0.40168 0.0
C166 C 0.70939 0.58055 0.39422 0.0
O167 O 0.66167 0.61077 0.34619 0.0
C168 C 0.73951 0.60432 0.33288 0.0
O169 O 0.74619 0.59719 0.35357 0.0
H170 H 0.68562 0.55523 0.3512 0.0
H171 H 0.71615 0.59474 0.40366 0.0
N172 N 0.70059 0.63118 0.37559 0.0
N173 N 0.71423 0.66281 0.39096 0.0
C174 C 0.71673 0.64767 0.37365 0.0
C175 C 0.68742 0.63601 0.39461 0.0
C176 C 0.69577 0.65543 0.40414 0.0
C177 C 0.6491 0.59862 0.33279 0.0
O178 O 0.65892 0.58131 0.32267 0.0
H179 H 0.72988 0.64856 0.35976 0.0
H180 H 0.67244 0.62626 0.4008 0.0
O181 O 0.7175 0.60918 0.32956 0.0
H182 H 0.71734 0.55318 0.41803 0.0
H183 H 0.68826 0.66377 0.41921 0.0
Cu184 Cu 0.15126 0.35074 0.10909 0.0
N185 N 0.14564 0.37934 0.12046 0.0
N186 N 0.14621 0.41566 0.12819 0.0
C187 C 0.15765 0.39857 0.11757 0.0
C188 C 0.12661 0.40669 0.13829 0.0
C189 C 0.12632 0.38444 0.13348 0.0
O190 O 0.14011 0.34706 0.07693 0.0
C191 C 0.13278 0.31014 0.12734 0.0
O192 O 0.14087 0.30111 0.10797 0.0
H193 H 0.17397 0.40009 0.10742 0.0
H194 H 0.1128 0.3727 0.13896 0.0
N195 N 0.1836 0.34264 0.11055 0.0
N196 N 0.21434 0.31922 0.11585 0.0
C197 C 0.19199 0.32513 0.1226 0.0
C198 C 0.20146 0.34845 0.09598 0.0
C199 C 0.2205 0.3341 0.09928 0.0
C200 C 0.1336 0.36301 0.06381 0.0
O201 O 0.13322 0.3832 0.07231 0.0
H202 H 0.1813 0.31609 0.13511 0.0
H203 H 0.19999 0.36102 0.0826 0.0
O204 O 0.13442 0.33097 0.1301 0.0
H205 H 0.11344 0.41553 0.14863 0.0
H206 H 0.23673 0.33357 0.08889 0.0
Cu207 Cu 0.66982 0.17095 0.92272 0.0
N208 N 0.68078 0.14453 0.90939 0.0
N209 N 0.68361 0.11009 0.89518 0.0
C210 C 0.66948 0.12497 0.90638 0.0
C211 C 0.70455 0.12071 0.89128 0.0
C212 C 0.70272 0.14184 0.90001 0.0
O213 O 0.65399 0.16598 0.95256 0.0
C214 C 0.6393 0.18077 0.88332 0.0
O215 O 0.63498 0.15944 0.88214 0.0
H216 H 0.65115 0.12194 0.91179 0.0
H217 H 0.71644 0.15449 0.89945 0.0
N218 N 0.69655 0.18817 0.92972 0.0
N219 N 0.72342 0.21551 0.92839 0.0
C220 C 0.70514 0.20531 0.91726 0.0
C221 C 0.70988 0.18738 0.9493 0.0
C222 C 0.72648 0.20426 0.94855 0.0
C223 C 0.6318 0.16775 0.95752 0.0
O224 O 0.61628 0.17199 0.94082 0.0
H225 H 0.69753 0.2107 0.9008 0.0
H226 H 0.70728 0.17568 0.96337 0.0
O227 O 0.65181 0.18835 0.90012 0.0
H228 H 0.72021 0.1137 0.88287 0.0
H229 H 0.73965 0.20807 0.96187 0.0
Cu230 Cu 0.864 0.84077 0.41275 0.0
N231 N 0.86367 0.86751 0.39628 0.0
N232 N 0.86333 0.90307 0.38558 0.0
C233 C 0.86295 0.88872 0.40373 0.0
C234 C 0.86407 0.89043 0.36616 0.0
C235 C 0.86414 0.86861 0.3728 0.0
O236 O 0.87883 0.84283 0.44358 0.0
C237 C 0.89859 0.82155 0.38116 0.0
O238 O 0.91107 0.83983 0.38371 0.0
H239 H 0.86244 0.89355 0.42194 0.0
H240 H 0.86445 0.85441 0.36127 0.0
N241 N 0.83279 0.83017 0.41582 0.0
N242 N 0.80262 0.80581 0.41461 0.0
C243 C 0.82656 0.80888 0.41283 0.0
C244 C 0.81213 0.84116 0.41955 0.0
C245 C 0.79345 0.82615 0.41889 0.0
C246 C 0.86815 0.85289 0.46019 0.0
O247 O 0.84784 0.86313 0.45576 0.0
H248 H 0.83941 0.79603 0.40863 0.0
H249 H 0.81072 0.85884 0.42216 0.0
O250 O 0.87965 0.81877 0.39321 0.0
H251 H 0.86409 0.89654 0.34838 0.0
H252 H 0.77464 0.82999 0.42131 0.0
Cu253 Cu 0.34379 0.67276 0.59524 0.0
N254 N 0.33179 0.64438 0.60132 0.0
N255 N 0.32885 0.60825 0.60951 0.0
C256 C 0.34387 0.62562 0.60642 0.0
C257 C 0.30656 0.61657 0.60636 0.0
C258 C 0.30844 0.63875 0.60133 0.0
O259 O 0.36453 0.67284 0.56772 0.0
C260 C 0.34835 0.6841 0.64228 0.0
O261 O 0.3271 0.67469 0.64288 0.0
H262 H 0.36325 0.62472 0.60753 0.0
H263 H 0.29377 0.65006 0.59803 0.0
N264 N 0.31824 0.69168 0.58837 0.0
N265 N 0.29284 0.72029 0.58971 0.0
C266 C 0.31082 0.70945 0.60065 0.0
C267 C 0.30452 0.69127 0.56902 0.0
C268 C 0.28883 0.70891 0.56978 0.0
C269 C 0.36102 0.65951 0.55077 0.0
O270 O 0.34439 0.64423 0.55271 0.0
H271 H 0.31894 0.71477 0.61689 0.0
H272 H 0.30609 0.67915 0.55517 0.0
O273 O 0.35975 0.68444 0.62295 0.0
H274 H 0.28997 0.6074 0.608 0.0
H275 H 0.27549 0.71303 0.55672 0.0
Cu276 Cu 0.92639 0.84179 0.69606 0.0
N277 N 0.91991 0.82946 0.66673 0.0
N278 N 0.91176 0.82564 0.6286 0.0
C279 C 0.9167 0.83997 0.64616 0.0
C280 C 0.91199 0.80541 0.6386 0.0
C281 C 0.91702 0.80782 0.66204 0.0
O282 O 0.95589 0.85909 0.69367 0.0
C283 C 0.8952 0.86567 0.72664 0.0
O284 O 0.91219 0.86248 0.74218 0.0
H285 H 0.9175 0.85777 0.64425 0.0
H286 H 0.9184 0.79471 0.67482 0.0
N287 N 0.93123 0.81876 0.71738 0.0
N288 N 0.92529 0.79418 0.74602 0.0
C289 C 0.91558 0.81073 0.73322 0.0
C290 C 0.95143 0.80683 0.72012 0.0
C291 C 0.94784 0.79167 0.73776 0.0
C292 C 0.96875 0.86401 0.71135 0.0
O293 O 0.96114 0.8587 0.73233 0.0
H294 H 0.89739 0.81677 0.73513 0.0
H295 H 0.9677 0.80917 0.7101 0.0
O296 O 0.89842 0.85897 0.70575 0.0
H297 H 0.90893 0.7899 0.62961 0.0
H298 H 0.96099 0.77999 0.74425 0.0
Cu299 Cu 0.58101 0.18161 0.19631 0.0
N300 N 0.58822 0.19096 0.16579 0.0
N301 N 0.5941 0.19277 0.12702 0.0
C302 C 0.58648 0.18014 0.14517 0.0
C303 C 0.60094 0.21211 0.13682 0.0
C304 C 0.59725 0.21095 0.16051 0.0
O305 O 0.54963 0.16749 0.19747 0.0
C306 C 0.62838 0.17023 0.20663 0.0
O307 O 0.63212 0.18899 0.19566 0.0
H308 H 0.57979 0.16342 0.14353 0.0
H309 H 0.60138 0.22371 0.17315 0.0
N310 N 0.57867 0.20672 0.21525 0.0
N311 N 0.58365 0.23077 0.24457 0.0
C312 C 0.58956 0.21067 0.23588 0.0
C313 C 0.56532 0.22479 0.21084 0.0
C314 C 0.56843 0.2397 0.22882 0.0
C315 C 0.54382 0.14893 0.18864 0.0
O316 O 0.56018 0.13704 0.17783 0.0
H317 H 0.60181 0.19918 0.24416 0.0
H318 H 0.55414 0.22696 0.19555 0.0
O319 O 0.6069 0.1632 0.20865 0.0
H320 H 0.60876 0.22601 0.12768 0.0
H321 H 0.55991 0.25574 0.23031 0.0
Cu322 Cu 0.43959 0.67595 0.32133 0.0
N323 N 0.44071 0.68333 0.35314 0.0
N324 N 0.43425 0.68357 0.39175 0.0
C325 C 0.4255 0.67775 0.37055 0.0
C326 C 0.45564 0.69319 0.38747 0.0
C327 C 0.45955 0.69302 0.36372 0.0
O328 O 0.46756 0.65771 0.31462 0.0
C329 C 0.38991 0.67108 0.31588 0.0
O330 O 0.38998 0.69106 0.32497 0.0
H331 H 0.40898 0.66866 0.36787 0.0
H332 H 0.4755 0.69874 0.35483 0.0
N333 N 0.44249 0.70143 0.30299 0.0
N334 N 0.43722 0.72621 0.2744 0.0
C335 C 0.42822 0.7082 0.28531 0.0
C336 C 0.46109 0.71561 0.30321 0.0
C337 C 0.45789 0.73091 0.28564 0.0
C338 C 0.47455 0.6424 0.32828 0.0
O339 O 0.46124 0.63733 0.34647 0.0
H340 H 0.41207 0.69963 0.27998 0.0
H341 H 0.47627 0.71454 0.31493 0.0
O342 O 0.40982 0.66097 0.31335 0.0
H343 H 0.46777 0.69957 0.40063 0.0
H344 H 0.4699 0.7444 0.28141 0.0
Cu345 Cu 0.09738 0.34294 0.8236 0.0
N346 N 0.11191 0.33778 0.85248 0.0
N347 N 0.12168 0.33827 0.89038 0.0
C348 C 0.10511 0.344 0.87417 0.0
C349 C 0.13938 0.32802 0.87841 0.0
C350 C 0.13329 0.32774 0.85512 0.0
O351 O 0.06612 0.35689 0.82719 0.0
C352 C 0.13019 0.37748 0.81142 0.0
O353 O 0.12395 0.38684 0.83126 0.0
H354 H 0.08878 0.35309 0.87787 0.0
H355 H 0.14388 0.32102 0.84093 0.0
N356 N 0.09404 0.31602 0.80806 0.0
N357 N 0.10063 0.28945 0.78151 0.0
C358 C 0.1046 0.31075 0.78764 0.0
C359 C 0.08285 0.29754 0.8152 0.0
C360 C 0.08684 0.28112 0.79885 0.0
C361 C 0.05417 0.36337 0.8095 0.0
O362 O 0.06383 0.36153 0.78862 0.0
H363 H 0.11523 0.32236 0.77767 0.0
H364 H 0.0731 0.29596 0.83147 0.0
O365 O 0.11966 0.35991 0.80485 0.0
H366 H 0.1556 0.32121 0.88596 0.0
H367 H 0.08077 0.26416 0.80014 0.0
Cu368 Cu 0.67604 0.91162 0.82769 0.0
N369 N 0.64694 0.90285 0.81406 0.0
N370 N 0.60877 0.89253 0.80852 0.0
C371 C 0.62516 0.90013 0.82405 0.0
C372 C 0.6207 0.89056 0.78809 0.0
C373 C 0.64413 0.89695 0.79155 0.0
O374 O 0.67224 0.93891 0.84547 0.0
C375 C 0.68761 0.86803 0.84056 0.0
O376 O 0.67664 0.86343 0.82082 0.0
H377 H 0.62157 0.90319 0.84236 0.0
H378 H 0.65829 0.89703 0.7786 0.0
N379 N 0.69855 0.91691 0.80413 0.0
N380 N 0.73209 0.91511 0.78266 0.0
C381 C 0.71974 0.90654 0.80087 0.0
C382 C 0.6974 0.93251 0.78743 0.0
C383 C 0.71804 0.93146 0.77417 0.0
C384 C 0.65876 0.95453 0.83826 0.0
O385 O 0.64609 0.95155 0.81915 0.0
H386 H 0.72619 0.89333 0.812 0.0
H387 H 0.68262 0.94394 0.78517 0.0
O388 O 0.6888 0.88809 0.8473 0.0
H389 H 0.613 0.88501 0.77173 0.0
H390 H 0.72228 0.94185 0.75933 0.0
Cu391 Cu 0.83107 0.09907 0.32533 0.0
N392 N 0.86119 0.10668 0.31297 0.0
N393 N 0.90065 0.11287 0.30828 0.0
C394 C 0.88327 0.10479 0.32254 0.0
C395 C 0.8888 0.12009 0.28912 0.0
C396 C 0.86468 0.1162 0.29203 0.0
O397 O 0.8326 0.07004 0.33982 0.0
C398 C 0.82267 0.14203 0.34173 0.0
O399 O 0.83404 0.14711 0.32236 0.0
H400 H 0.88646 0.09766 0.33958 0.0
H401 H 0.85053 0.12049 0.2799 0.0
N402 N 0.80899 0.09736 0.30077 0.0
N403 N 0.77641 0.10255 0.2784 0.0
C404 C 0.78743 0.10741 0.29889 0.0
C405 C 0.81175 0.08573 0.28093 0.0
C406 C 0.79182 0.08893 0.2671 0.0
C407 C 0.84372 0.06559 0.35868 0.0
O408 O 0.85469 0.08152 0.37007 0.0
H409 H 0.78003 0.11796 0.31238 0.0
H410 H 0.82737 0.07585 0.27671 0.0
O411 O 0.81984 0.12172 0.34695 0.0
H412 H 0.89675 0.12825 0.2742 0.0
H413 H 0.78925 0.08209 0.24979 0.0
Cu414 Cu 0.1885 0.61108 0.19239 0.0
N415 N 0.16006 0.6256 0.20058 0.0
N416 N 0.12173 0.63653 0.20339 0.0
C417 C 0.13713 0.62143 0.19427 0.0
C418 C 0.1356 0.6505 0.21593 0.0
C419 C 0.1591 0.64374 0.21414 0.0
O420 O 0.18225 0.58168 0.17995 0.0
C421 C 0.19825 0.64213 0.15583 0.0
O422 O 0.17548 0.64003 0.15026 0.0
H423 H 0.13194 0.60792 0.18292 0.0
H424 H 0.17455 0.65155 0.22208 0.0
N425 N 0.20715 0.60765 0.2192 0.0
N426 N 0.23728 0.61197 0.24469 0.0
C427 C 0.22686 0.61938 0.22482 0.0
C428 C 0.20485 0.59231 0.23604 0.0
C429 C 0.22338 0.59495 0.25181 0.0
C430 C 0.18389 0.57566 0.15868 0.0
O431 O 0.18949 0.59031 0.14264 0.0
H432 H 0.23341 0.63303 0.2144 0.0
H433 H 0.19097 0.57981 0.23652 0.0
O434 O 0.20704 0.63015 0.17196 0.0
H435 H 0.1292 0.66451 0.22597 0.0
H436 H 0.22668 0.58465 0.26694 0.0
Cu437 Cu 0.34437 0.41689 0.6968 0.0
N438 N 0.37495 0.40815 0.70729 0.0
N439 N 0.41411 0.39984 0.70954 0.0
C440 C 0.39613 0.40742 0.69574 0.0
C441 C 0.40378 0.39547 0.73035 0.0
C442 C 0.37977 0.40049 0.72887 0.0
O443 O 0.34535 0.44615 0.68274 0.0
C444 C 0.33287 0.3743 0.68115 0.0
O445 O 0.34539 0.36878 0.69971 0.0
H446 H 0.39832 0.41237 0.67769 0.0
H447 H 0.36661 0.39821 0.74254 0.0
N448 N 0.3238 0.41931 0.72248 0.0
N449 N 0.29127 0.41701 0.74515 0.0
C450 C 0.30076 0.41263 0.72392 0.0
C451 C 0.32885 0.42854 0.74333 0.0
C452 C 0.30888 0.42692 0.75746 0.0
C453 C 0.35448 0.4513 0.66309 0.0
O454 O 0.36461 0.43588 0.65023 0.0
H455 H 0.29125 0.4045 0.70982 0.0
H456 H 0.34589 0.43592 0.74793 0.0
O457 O 0.33072 0.3947 0.67596 0.0
H458 H 0.41282 0.38854 0.74541 0.0
H459 H 0.30729 0.43283 0.77526 0.0
Cu460 Cu 0.82602 0.69294 0.91562 0.0
N461 N 0.81389 0.66619 0.90411 0.0
N462 N 0.80954 0.63047 0.89467 0.0
C463 C 0.82434 0.64603 0.90374 0.0
C464 C 0.78915 0.64134 0.88909 0.0
C465 C 0.79189 0.66328 0.89491 0.0
O466 O 0.84129 0.68762 0.94569 0.0
C467 C 0.84004 0.70797 0.87171 0.0
O468 O 0.81875 0.70008 0.86642 0.0
H469 H 0.84216 0.64278 0.91046 0.0
H470 H 0.7787 0.67626 0.89267 0.0
N471 N 0.80025 0.71225 0.9203 0.0
N472 N 0.77457 0.74049 0.91575 0.0
C473 C 0.79599 0.73164 0.90947 0.0
C474 C 0.7811 0.70869 0.93406 0.0
C475 C 0.76524 0.726 0.93129 0.0
C476 C 0.85111 0.70301 0.95749 0.0
O477 O 0.85249 0.72292 0.94838 0.0
H478 H 0.8083 0.7389 0.89706 0.0
H479 H 0.77854 0.69416 0.94479 0.0
O480 O 0.8475 0.7062 0.89269 0.0
H481 H 0.77338 0.63401 0.8812 0.0
H482 H 0.74779 0.72726 0.93949 0.0
Cu483 Cu 0.3334 0.82736 0.1082 0.0
N484 N 0.32501 0.85392 0.12309 0.0
N485 N 0.32188 0.88936 0.13424 0.0
C486 C 0.33186 0.87497 0.11883 0.0
C487 C 0.30819 0.87678 0.14847 0.0
C488 C 0.31019 0.85507 0.14159 0.0
O489 O 0.34595 0.83265 0.07691 0.0
C490 C 0.36633 0.8187 0.14536 0.0
O491 O 0.36522 0.84016 0.14885 0.0
H492 H 0.34411 0.87955 0.10497 0.0
H493 H 0.30142 0.84099 0.14951 0.0
N494 N 0.3053 0.81084 0.10518 0.0
N495 N 0.27875 0.78331 0.10798 0.0
C496 C 0.30212 0.78911 0.10949 0.0
C497 C 0.28329 0.81895 0.1006 0.0
C498 C 0.26685 0.80203 0.10242 0.0
C499 C 0.35761 0.81778 0.06591 0.0
O500 O 0.36276 0.79917 0.07666 0.0
H501 H 0.31644 0.77803 0.11472 0.0
H502 H 0.27941 0.83615 0.09699 0.0
O503 O 0.35519 0.81031 0.12805 0.0
H504 H 0.2971 0.88283 0.16265 0.0
H505 H 0.24759 0.80342 0.10025 0.0
Cu506 Cu 0.19512 0.19913 0.60277 0.0
N507 N 0.20818 0.1718 0.6117 0.0
N508 N 0.21251 0.13626 0.62221 0.0
C509 C 0.19682 0.15275 0.61709 0.0
C510 C 0.23448 0.14552 0.61985 0.0
C511 C 0.23173 0.16729 0.61351 0.0
O512 O 0.17838 0.19647 0.5729 0.0
C513 C 0.18056 0.2088 0.64849 0.0
O514 O 0.20102 0.19899 0.65338 0.0
H515 H 0.17748 0.15113 0.6172 0.0
H516 H 0.24599 0.17898 0.61015 0.0
N517 N 0.22012 0.21943 0.59881 0.0
N518 N 0.24491 0.24823 0.60406 0.0
C519 C 0.22488 0.23767 0.61158 0.0
C520 C 0.23754 0.21839 0.5826 0.0
C521 C 0.25286 0.23599 0.58582 0.0
C522 C 0.1862 0.1835 0.55703 0.0
O523 O 0.20502 0.17109 0.5615 0.0
H524 H 0.21378 0.24301 0.62603 0.0
H525 H 0.23921 0.20548 0.5696 0.0
O526 O 0.17404 0.2103 0.62721 0.0
H527 H 0.25151 0.13714 0.62192 0.0
H528 H 0.26894 0.23908 0.57574 0.0
Cu529 Cu 0.68962 0.31901 0.41631 0.0
N530 N 0.70244 0.34532 0.40467 0.0
N531 N 0.70828 0.38081 0.39519 0.0
C532 C 0.69362 0.36609 0.40586 0.0
C533 C 0.72686 0.36874 0.38695 0.0
C534 C 0.72319 0.34693 0.39277 0.0
O535 O 0.67269 0.32445 0.44551 0.0
C536 C 0.64807 0.30373 0.38998 0.0
O537 O 0.63422 0.31221 0.40628 0.0
H538 H 0.67701 0.37033 0.41464 0.0
H539 H 0.7348 0.33312 0.38859 0.0
N540 N 0.71502 0.29973 0.42228 0.0
N541 N 0.74017 0.27102 0.41842 0.0
C542 C 0.71922 0.28032 0.41149 0.0
C543 C 0.73376 0.30293 0.43667 0.0
C544 C 0.7493 0.28528 0.43434 0.0
C545 C 0.6634 0.30876 0.45726 0.0
O546 O 0.66338 0.2887 0.44836 0.0
H547 H 0.70718 0.27339 0.39859 0.0
H548 H 0.73626 0.3174 0.44754 0.0
O549 O 0.67075 0.30533 0.39177 0.0
H550 H 0.74194 0.37516 0.37713 0.0
H551 H 0.76642 0.28362 0.44311 0.0
C552 C 0.12132 0.30583 0.16936 0.0
C553 C 0.12566 0.2961 0.14746 0.0
C554 C 0.11689 0.29285 0.18919 0.0
C555 C 0.11644 0.26952 0.18711 0.0
C556 C 0.12016 0.25956 0.16497 0.0
C557 C 0.12487 0.27297 0.14542 0.0
C558 C 0.1132 0.30413 0.2125 0.0
C559 C 0.11953 0.23475 0.16202 0.0
C560 C 0.1275 0.23747 0.24328 0.0
C561 C 0.104 0.23344 0.25094 0.0
C562 C 0.13187 0.24866 0.22218 0.0
C563 C 0.11224 0.25571 0.20827 0.0
C564 C 0.0885 0.25089 0.21549 0.0
C565 C 0.08468 0.23996 0.2368 0.0
C566 C 0.15744 0.25369 0.21522 0.0
C567 C 0.06711 0.25776 0.20098 0.0
H568 H 0.12198 0.32368 0.17119 0.0
H569 H 0.12825 0.2653 0.1286 0.0
H570 H 0.09548 0.29953 0.21988 0.0
H571 H 0.12711 0.29851 0.22507 0.0
H572 H 0.11411 0.32245 0.21116 0.0
H573 H 0.12148 0.22965 0.14345 0.0
H574 H 0.13425 0.22708 0.17228 0.0
H575 H 0.10237 0.22806 0.16888 0.0
H576 H 0.14246 0.23257 0.25423 0.0
H577 H 0.0665 0.2365 0.24245 0.0
H578 H 0.1603 0.27186 0.21528 0.0
H579 H 0.16099 0.24775 0.1972 0.0
H580 H 0.17071 0.24597 0.22722 0.0
H581 H 0.06594 0.27607 0.20037 0.0
H582 H 0.04996 0.25122 0.20809 0.0
H583 H 0.06923 0.25183 0.18273 0.0
C584 C 0.39903 0.7376 0.76138 0.0
C585 C 0.39289 0.76013 0.76271 0.0
C586 C 0.39311 0.72478 0.74169 0.0
C587 C 0.38053 0.73459 0.72286 0.0
C588 C 0.37437 0.75731 0.72397 0.0
C589 C 0.38069 0.76979 0.74379 0.0
C590 C 0.40003 0.70061 0.7412 0.0
C591 C 0.36085 0.7684 0.70432 0.0
C592 C 0.37988 0.7066 0.66304 0.0
C593 C 0.35744 0.69605 0.66321 0.0
C594 C 0.38781 0.71895 0.68244 0.0
C595 C 0.37291 0.72091 0.70242 0.0
C596 C 0.35039 0.71006 0.70278 0.0
C597 C 0.343 0.69774 0.68326 0.0
C598 C 0.41202 0.73012 0.68145 0.0
C599 C 0.33388 0.71179 0.72367 0.0
H600 H 0.40815 0.72981 0.7759 0.0
H601 H 0.37617 0.7872 0.7443 0.0
H602 H 0.38363 0.69023 0.7406 0.0
H603 H 0.41056 0.69691 0.7252 0.0
H604 H 0.4108 0.69573 0.75671 0.0
H605 H 0.35773 0.78628 0.70768 0.0
H606 H 0.37097 0.76663 0.68771 0.0
H607 H 0.34321 0.76022 0.70181 0.0
H608 H 0.39117 0.7054 0.64765 0.0
H609 H 0.3256 0.68972 0.68361 0.0
H610 H 0.42323 0.72475 0.69644 0.0
H611 H 0.40972 0.74831 0.68292 0.0
H612 H 0.4218 0.72641 0.66498 0.0
H613 H 0.34321 0.70587 0.73961 0.0
H614 H 0.31715 0.70205 0.72137 0.0
H615 H 0.32894 0.72936 0.72669 0.0
C616 C 0.63964 0.2387 0.75986 0.0
C617 C 0.62397 0.25666 0.75696 0.0
C618 C 0.64058 0.22695 0.78101 0.0
C619 C 0.62513 0.23303 0.79964 0.0
C620 C 0.60898 0.25094 0.79668 0.0
C621 C 0.60878 0.2627 0.77546 0.0
C622 C 0.65842 0.20827 0.78354 0.0
C623 C 0.59192 0.25767 0.81593 0.0
C624 C 0.61697 0.18852 0.84605 0.0
C625 C 0.63323 0.1954 0.86331 0.0
C626 C 0.61326 0.20116 0.82572 0.0
C627 C 0.6265 0.22091 0.82233 0.0
C628 C 0.64238 0.22828 0.84003 0.0
C629 C 0.64536 0.21557 0.86037 0.0
C630 C 0.59578 0.19298 0.8075 0.0
C631 C 0.65715 0.24903 0.83701 0.0
H632 H 0.65163 0.23418 0.74573 0.0
H633 H 0.5965 0.27645 0.77317 0.0
H634 H 0.67083 0.2118 0.79826 0.0
H635 H 0.64891 0.19265 0.78772 0.0
H636 H 0.66922 0.20568 0.76744 0.0
H637 H 0.57983 0.27138 0.81055 0.0
H638 H 0.58079 0.24331 0.82124 0.0
H639 H 0.6022 0.26302 0.83155 0.0
H640 H 0.60745 0.17302 0.84822 0.0
H641 H 0.65807 0.221 0.87353 0.0
H642 H 0.60572 0.1879 0.79156 0.0
H643 H 0.58328 0.20644 0.80238 0.0
H644 H 0.58511 0.17864 0.81377 0.0
H645 H 0.6697 0.24688 0.82211 0.0
H646 H 0.66778 0.25309 0.85288 0.0
H647 H 0.64536 0.26329 0.83283 0.0
C648 C 0.92173 0.73658 0.27416 0.0
C649 C 0.91086 0.74593 0.25436 0.0
C650 C 0.92215 0.74792 0.29563 0.0
C651 C 0.91111 0.76898 0.29744 0.0
C652 C 0.90037 0.77859 0.27742 0.0
C653 C 0.90051 0.76702 0.25613 0.0
C654 C 0.93411 0.73725 0.31645 0.0
C655 C 0.8881 0.80087 0.27865 0.0
C656 C 0.88715 0.78954 0.3557 0.0
C657 C 0.90375 0.80614 0.36151 0.0
C658 C 0.88978 0.77685 0.3353 0.0
C659 C 0.90967 0.78059 0.32042 0.0
C660 C 0.92719 0.79647 0.3268 0.0
C661 C 0.92395 0.80916 0.3472 0.0
C662 C 0.87059 0.7602 0.3291 0.0
C663 C 0.94887 0.80067 0.31161 0.0
H664 H 0.93002 0.7204 0.2728 0.0
H665 H 0.89183 0.77421 0.24098 0.0
H666 H 0.9476 0.74867 0.32409 0.0
H667 H 0.92056 0.73389 0.33021 0.0
H668 H 0.94315 0.72145 0.31182 0.0
H669 H 0.88112 0.8063 0.26139 0.0
H670 H 0.87289 0.80013 0.29116 0.0
H671 H 0.9008 0.81357 0.28521 0.0
H672 H 0.87147 0.78702 0.3666 0.0
H673 H 0.93693 0.82186 0.35158 0.0
H674 H 0.87877 0.74378 0.32561 0.0
H675 H 0.86129 0.76546 0.31287 0.0
H676 H 0.85699 0.75835 0.34318 0.0
H677 H 0.95796 0.78484 0.30726 0.0
H678 H 0.96204 0.81185 0.32016 0.0
H679 H 0.9431 0.8083 0.29489 0.0
C680 C 0.25203 0.09683 0.22958 0.0
C681 C 0.26845 0.11257 0.22123 0.0
C682 C 0.23409 0.10263 0.24577 0.0
C683 C 0.23241 0.12474 0.2538 0.0
C684 C 0.24931 0.14059 0.24592 0.0
C685 C 0.26715 0.13431 0.2298 0.0
C686 C 0.21657 0.08519 0.25384 0.0
C687 C 0.24813 0.16435 0.25402 0.0
C688 C 0.17191 0.14585 0.2756 0.0
C689 C 0.17508 0.14561 0.29995 0.0
C690 C 0.19034 0.13897 0.26044 0.0
C691 C 0.21247 0.13148 0.26978 0.0
C692 C 0.21558 0.13071 0.29434 0.0
C693 C 0.19691 0.13784 0.3091 0.0
C694 C 0.18629 0.14013 0.23436 0.0
C695 C 0.23879 0.12266 0.30501 0.0
H696 H 0.25288 0.07997 0.22314 0.0
H697 H 0.27968 0.14663 0.22343 0.0
H698 H 0.21627 0.08442 0.27321 0.0
H699 H 0.19817 0.0896 0.24802 0.0
H700 H 0.22106 0.0685 0.24692 0.0
H701 H 0.26313 0.17446 0.24697 0.0
H702 H 0.2309 0.17188 0.24837 0.0
H703 H 0.24865 0.16512 0.27339 0.0
H704 H 0.15519 0.15192 0.26832 0.0
H705 H 0.19955 0.13755 0.32787 0.0
H706 H 0.18903 0.12357 0.2264 0.0
H707 H 0.19957 0.15149 0.22633 0.0
H708 H 0.16795 0.14601 0.22988 0.0
H709 H 0.24299 0.10575 0.29862 0.0
H710 H 0.23809 0.12235 0.32442 0.0
H711 H 0.25379 0.13355 0.29954 0.0
C712 C 0.33619 0.85836 0.77201 0.0
C713 C 0.34121 0.8693 0.79311 0.0
C714 C 0.31815 0.86602 0.75686 0.0
C715 C 0.30488 0.88523 0.76279 0.0
C716 C 0.31004 0.89653 0.78392 0.0
C717 C 0.32805 0.88837 0.79887 0.0
C718 C 0.31315 0.8534 0.73458 0.0
C719 C 0.29649 0.9172 0.79074 0.0
C720 C 0.27403 0.91469 0.71228 0.0
C721 C 0.25032 0.90701 0.71419 0.0
C722 C 0.29177 0.90824 0.72836 0.0
C723 C 0.28578 0.89355 0.74671 0.0
C724 C 0.26177 0.8861 0.74905 0.0
C725 C 0.2443 0.89302 0.73284 0.0
C726 C 0.31706 0.91678 0.72538 0.0
C727 C 0.25469 0.8703 0.76826 0.0
H728 H 0.34614 0.84355 0.76742 0.0
H729 H 0.33179 0.89695 0.81511 0.0
H730 H 0.29414 0.84794 0.73427 0.0
H731 H 0.3159 0.86433 0.71925 0.0
H732 H 0.32487 0.83863 0.73264 0.0
H733 H 0.30285 0.92421 0.8076 0.0
H734 H 0.29851 0.92996 0.77695 0.0
H735 H 0.27705 0.9135 0.79227 0.0
H736 H 0.27884 0.92561 0.69802 0.0
H737 H 0.22607 0.88694 0.73441 0.0
H738 H 0.32936 0.90281 0.72145 0.0
H739 H 0.32338 0.92453 0.74186 0.0
H740 H 0.31848 0.92912 0.71107 0.0
H741 H 0.26455 0.85446 0.76612 0.0
H742 H 0.23512 0.86676 0.76829 0.0
H743 H 0.25974 0.8772 0.78555 0.0
C744 C 0.78114 0.37183 0.77879 0.0
C745 C 0.78305 0.38847 0.79581 0.0
C746 C 0.75995 0.36896 0.76585 0.0
C747 C 0.74001 0.38298 0.77006 0.0
C748 C 0.74193 0.40009 0.7869 0.0
C749 C 0.76345 0.40268 0.79953 0.0
C750 C 0.75876 0.35061 0.74792 0.0
C751 C 0.72107 0.41534 0.79194 0.0
C752 C 0.69274 0.38381 0.72201 0.0
C753 C 0.67631 0.36792 0.73002 0.0
C754 C 0.71308 0.38953 0.73526 0.0
C755 C 0.71707 0.37922 0.75714 0.0
C756 C 0.69995 0.36399 0.76584 0.0
C757 C 0.67984 0.35848 0.75217 0.0
C758 C 0.73088 0.40583 0.72532 0.0
C759 C 0.70339 0.35276 0.78917 0.0
H760 H 0.79618 0.3608 0.7757 0.0
H761 H 0.7647 0.41554 0.81269 0.0
H762 H 0.74466 0.33856 0.75291 0.0
H763 H 0.75376 0.35746 0.7306 0.0
H764 H 0.77609 0.34164 0.74616 0.0
H765 H 0.72573 0.42838 0.80487 0.0
H766 H 0.71493 0.42342 0.77559 0.0
H767 H 0.70573 0.40563 0.79883 0.0
H768 H 0.69022 0.39124 0.70495 0.0
H769 H 0.66722 0.34627 0.7586 0.0
H770 H 0.74796 0.39717 0.72124 0.0
H771 H 0.73503 0.41889 0.73834 0.0
H772 H 0.72418 0.41383 0.7091 0.0
H773 H 0.71923 0.34163 0.78833 0.0
H774 H 0.68749 0.34282 0.79436 0.0
H775 H 0.70698 0.36522 0.80299 0.0
C776 C 0.83716 0.61775 0.22946 0.0
C777 C 0.85026 0.63728 0.23314 0.0
C778 C 0.81894 0.61122 0.24504 0.0
C779 C 0.81356 0.62459 0.26472 0.0
C780 C 0.82688 0.6442 0.26865 0.0
C781 C 0.84508 0.65025 0.25289 0.0
C782 C 0.80531 0.5901 0.24034 0.0
C783 C 0.8217 0.65895 0.28938 0.0
C784 C 0.75237 0.62043 0.29434 0.0
C785 C 0.75787 0.60817 0.31446 0.0
C786 C 0.77021 0.62557 0.27778 0.0
C787 C 0.79409 0.61811 0.28131 0.0
C788 C 0.79956 0.60518 0.30123 0.0
C789 C 0.78145 0.60046 0.31758 0.0
C790 C 0.76366 0.63949 0.25683 0.0
C791 C 0.8247 0.59672 0.30557 0.0
H792 H 0.84099 0.60761 0.21427 0.0
H793 H 0.855 0.66541 0.2559 0.0
H794 H 0.80686 0.57882 0.25556 0.0
H795 H 0.78596 0.59382 0.23796 0.0
H796 H 0.81196 0.58133 0.22453 0.0
H797 H 0.83367 0.67364 0.28996 0.0
H798 H 0.8028 0.66474 0.28873 0.0
H799 H 0.82395 0.64951 0.30585 0.0
H800 H 0.73424 0.62652 0.2918 0.0
H801 H 0.78588 0.59087 0.33299 0.0
H802 H 0.7689 0.63086 0.24048 0.0
H803 H 0.7737 0.65533 0.2574 0.0
H804 H 0.74414 0.64324 0.2561 0.0
H805 H 0.83119 0.58729 0.29016 0.0
H806 H 0.82574 0.58589 0.32121 0.0
H807 H 0.8371 0.61088 0.3081 0.0
C808 C 0.27493 0.20146 0.11138 0.0
C809 C 0.2846 0.19368 0.13249 0.0
C810 C 0.26382 0.22227 0.10997 0.0
C811 C 0.26229 0.23578 0.13016 0.0
C812 C 0.2719 0.22804 0.15157 0.0
C813 C 0.2829 0.20708 0.15249 0.0
C814 C 0.25363 0.22979 0.08682 0.0
C815 C 0.27063 0.24194 0.17348 0.0
C816 C 0.25171 0.29709 0.11874 0.0
C817 C 0.22674 0.29885 0.12152 0.0
C818 C 0.26366 0.27685 0.12228 0.0
C819 C 0.25034 0.25785 0.12874 0.0
C820 C 0.22527 0.25966 0.13234 0.0
C821 C 0.2138 0.28006 0.12864 0.0
C822 C 0.29045 0.27564 0.11842 0.0
C823 C 0.21035 0.23985 0.13922 0.0
H824 H 0.27578 0.19112 0.09593 0.0
H825 H 0.29054 0.20136 0.16881 0.0
H826 H 0.23409 0.23298 0.0886 0.0
H827 H 0.26217 0.24556 0.08144 0.0
H828 H 0.25639 0.21738 0.07273 0.0
H829 H 0.27891 0.23354 0.18876 0.0
H830 H 0.27996 0.25792 0.17062 0.0
H831 H 0.25164 0.2458 0.17771 0.0
H832 H 0.2619 0.31152 0.11354 0.0
H833 H 0.19449 0.28096 0.13051 0.0
H834 H 0.29436 0.26471 0.10328 0.0
H835 H 0.29939 0.26829 0.13391 0.0
H836 H 0.29844 0.29216 0.115 0.0
H837 H 0.21037 0.22758 0.12478 0.0
H838 H 0.19144 0.24439 0.14321 0.0
H839 H 0.2182 0.23162 0.15477 0.0
C840 C 0.77832 0.33143 0.88768 0.0
C841 C 0.80346 0.33031 0.88786 0.0
C842 C 0.76434 0.31286 0.8934 0.0
C843 C 0.77583 0.29263 0.89907 0.0
C844 C 0.80121 0.29128 0.89859 0.0
C845 C 0.8147 0.31017 0.89316 0.0
C846 C 0.73734 0.31504 0.894 0.0
C847 C 0.81414 0.26993 0.90412 0.0
C848 C 0.74431 0.25044 0.93743 0.0
C849 C 0.73611 0.23503 0.92093 0.0
C850 C 0.75678 0.26949 0.93048 0.0
C851 C 0.76145 0.2731 0.90645 0.0
C852 C 0.7531 0.25767 0.88968 0.0
C853 C 0.74038 0.23888 0.89712 0.0
C854 C 0.76506 0.28571 0.94889 0.0
C855 C 0.75801 0.26077 0.86393 0.0
H856 H 0.76962 0.34703 0.88375 0.0
H857 H 0.83412 0.30917 0.89292 0.0
H858 H 0.72899 0.3024 0.88252 0.0
H859 H 0.73074 0.312 0.91202 0.0
H860 H 0.73117 0.33168 0.88834 0.0
H861 H 0.83388 0.27134 0.90176 0.0
H862 H 0.81048 0.26505 0.92247 0.0
H863 H 0.8074 0.25643 0.89273 0.0
H864 H 0.74069 0.24771 0.9558 0.0
H865 H 0.73422 0.22692 0.88435 0.0
H866 H 0.75806 0.30249 0.94491 0.0
H867 H 0.78495 0.28674 0.94881 0.0
H868 H 0.75908 0.28097 0.96672 0.0
H869 H 0.751 0.27702 0.85803 0.0
H870 H 0.74974 0.24757 0.85309 0.0
H871 H 0.77767 0.26078 0.86078 0.0
C872 C 0.80158 0.76488 0.41467 0.0
C873 C 0.78978 0.78522 0.41153 0.0
C874 C 0.78967 0.74472 0.41101 0.0
C875 C 0.76522 0.74481 0.40431 0.0
C876 C 0.75308 0.76521 0.40132 0.0
C877 C 0.76551 0.78516 0.40489 0.0
C878 C 0.80328 0.72332 0.41435 0.0
C879 C 0.72695 0.76596 0.39432 0.0
C880 C 0.7393 0.69333 0.37549 0.0
C881 C 0.72755 0.68308 0.3943 0.0
C882 C 0.75171 0.71337 0.37849 0.0
C883 C 0.75227 0.72352 0.40081 0.0
C884 C 0.7406 0.71325 0.41988 0.0
C885 C 0.72852 0.69314 0.41643 0.0
C886 C 0.76411 0.72375 0.35775 0.0
C887 C 0.7408 0.72353 0.44396 0.0
H888 H 0.82016 0.76463 0.4202 0.0
H889 H 0.75625 0.80069 0.40212 0.0
H890 H 0.7947 0.71336 0.42832 0.0
H891 H 0.80263 0.71335 0.39806 0.0
H892 H 0.82238 0.7261 0.4191 0.0
H893 H 0.72006 0.78317 0.39285 0.0
H894 H 0.72445 0.75752 0.37726 0.0
H895 H 0.71592 0.75697 0.40736 0.0
H896 H 0.73848 0.68593 0.35828 0.0
H897 H 0.71995 0.68524 0.4312 0.0
H898 H 0.78348 0.72604 0.36159 0.0
H899 H 0.75642 0.74038 0.35432 0.0
H900 H 0.76234 0.71358 0.34165 0.0
H901 H 0.75955 0.72529 0.45023 0.0
H902 H 0.7306 0.71357 0.4569 0.0
H903 H 0.73289 0.74037 0.44327 0.0
C904 C 0.2408 0.83729 0.6317 0.0
C905 C 0.21564 0.8365 0.63202 0.0
C906 C 0.25443 0.81856 0.62555 0.0
C907 C 0.24258 0.79851 0.61996 0.0
C908 C 0.2172 0.79749 0.62089 0.0
C909 C 0.20405 0.81653 0.62674 0.0
C910 C 0.28144 0.82038 0.62449 0.0
C911 C 0.20389 0.77634 0.61544 0.0
C912 C 0.27273 0.75573 0.58104 0.0
C913 C 0.28089 0.74018 0.59739 0.0
C914 C 0.26078 0.77504 0.58821 0.0
C915 C 0.25657 0.77876 0.61231 0.0
C916 C 0.26493 0.7632 0.62893 0.0
C917 C 0.27713 0.74416 0.62127 0.0
C918 C 0.25248 0.79138 0.56995 0.0
C919 C 0.26051 0.76641 0.65476 0.0
H920 H 0.24978 0.85275 0.6356 0.0
H921 H 0.18463 0.81577 0.62736 0.0
H922 H 0.28983 0.80767 0.63583 0.0
H923 H 0.28768 0.81721 0.60636 0.0
H924 H 0.28793 0.83695 0.63003 0.0
H925 H 0.1842 0.77803 0.61807 0.0
H926 H 0.20723 0.77143 0.59704 0.0
H927 H 0.21058 0.76273 0.62671 0.0
H928 H 0.27594 0.75288 0.56261 0.0
H929 H 0.28323 0.73208 0.63393 0.0
H930 H 0.25975 0.80806 0.57389 0.0
H931 H 0.2326 0.79268 0.57028 0.0
H932 H 0.25816 0.78656 0.55204 0.0
H933 H 0.26778 0.78259 0.66055 0.0
H934 H 0.26883 0.75313 0.66547 0.0
H935 H 0.2409 0.76663 0.65823 0.0
C936 C 0.87494 0.73175 0.85956 0.0
C937 C 0.8541 0.71996 0.85368 0.0
C938 C 0.88749 0.74403 0.84261 0.0
C939 C 0.87907 0.74442 0.81923 0.0
C940 C 0.85827 0.73228 0.81316 0.0
C941 C 0.84604 0.72027 0.83043 0.0
C942 C 0.90957 0.75682 0.84976 0.0
C943 C 0.84875 0.73214 0.78843 0.0
C944 C 0.89595 0.79159 0.77839 0.0
C945 C 0.91406 0.7819 0.76472 0.0
C946 C 0.88477 0.77976 0.7965 0.0
C947 C 0.89179 0.75764 0.80104 0.0
C948 C 0.91022 0.74783 0.78747 0.0
C949 C 0.92114 0.76007 0.76952 0.0
C950 C 0.86526 0.79086 0.81064 0.0
C951 C 0.91808 0.72423 0.79159 0.0
H952 H 0.88125 0.73167 0.87748 0.0
H953 H 0.83001 0.71118 0.82566 0.0
H954 H 0.9252 0.75148 0.83914 0.0
H955 H 0.90679 0.77472 0.84637 0.0
H956 H 0.91399 0.75457 0.86855 0.0
H957 H 0.83264 0.72147 0.78647 0.0
H958 H 0.84395 0.74921 0.78304 0.0
H959 H 0.86284 0.72616 0.77624 0.0
H960 H 0.89063 0.80854 0.77507 0.0
H961 H 0.9349 0.75236 0.7589 0.0
H962 H 0.86982 0.79031 0.82951 0.0
H963 H 0.84808 0.78183 0.80836 0.0
H964 H 0.86248 0.80839 0.80546 0.0
H965 H 0.92355 0.722 0.81009 0.0
H966 H 0.93329 0.71931 0.78014 0.0
H967 H 0.90282 0.71284 0.7883 0.0
C968 C 0.59465 0.26387 0.26749 0.0
C969 C 0.592 0.24083 0.26596 0.0
C970 C 0.60297 0.27396 0.28807 0.0
C971 C 0.6086 0.26072 0.30772 0.0
C972 C 0.60568 0.23746 0.30641 0.0
C973 C 0.59755 0.2278 0.2855 0.0
C974 C 0.60616 0.29877 0.28861 0.0
C975 C 0.6113 0.2228 0.32705 0.0
C976 C 0.65292 0.28426 0.35163 0.0
C977 C 0.6377 0.29237 0.36926 0.0
C978 C 0.64368 0.27376 0.33169 0.0
C979 C 0.61855 0.27117 0.32926 0.0
C980 C 0.60305 0.27904 0.34709 0.0
C981 C 0.6128 0.28961 0.36686 0.0
C982 C 0.66084 0.2657 0.31307 0.0
C983 C 0.57617 0.27645 0.34517 0.0
H984 H 0.5907 0.27401 0.25237 0.0
H985 H 0.59525 0.21003 0.28452 0.0
H986 H 0.59569 0.306 0.30324 0.0
H987 H 0.62532 0.30284 0.29172 0.0
H988 H 0.60037 0.30676 0.27206 0.0
H989 H 0.60716 0.20513 0.32351 0.0
H990 H 0.6306 0.22421 0.33161 0.0
H991 H 0.60086 0.22825 0.34254 0.0
H992 H 0.67219 0.28624 0.35328 0.0
H993 H 0.6009 0.29574 0.3804 0.0
H994 H 0.657 0.27419 0.29629 0.0
H995 H 0.65832 0.24771 0.31009 0.0
H996 H 0.67991 0.26869 0.31778 0.0
H997 H 0.56949 0.28548 0.32959 0.0
H998 H 0.56662 0.2828 0.36086 0.0
H999 H 0.57152 0.25875 0.34275 0.0
C1000 C 0.40238 0.73982 0.25181 0.0
C1001 C 0.42731 0.73775 0.25453 0.0
C1002 C 0.39257 0.75207 0.23322 0.0
C1003 C 0.40806 0.76223 0.21675 0.0
C1004 C 0.43322 0.75956 0.21901 0.0
C1005 C 0.44253 0.7475 0.23795 0.0
C1006 C 0.36566 0.75474 0.23163 0.0
C1007 C 0.45035 0.76977 0.20165 0.0
C1008 C 0.38125 0.78153 0.15888 0.0
C1009 C 0.37825 0.80429 0.16292 0.0
C1010 C 0.39122 0.76765 0.1761 0.0
C1011 C 0.39804 0.77668 0.19798 0.0
C1012 C 0.39523 0.79965 0.20206 0.0
C1013 C 0.38554 0.81316 0.18447 0.0
C1014 C 0.39427 0.74331 0.17094 0.0
C1015 C 0.40206 0.80993 0.2252 0.0
H1016 H 0.39058 0.73244 0.26467 0.0
H1017 H 0.46178 0.74563 0.23975 0.0
H1018 H 0.36083 0.77245 0.23371 0.0
H1019 H 0.35921 0.74942 0.21417 0.0
H1020 H 0.35607 0.74503 0.2452 0.0
H1021 H 0.4693 0.76493 0.20498 0.0
H1022 H 0.44546 0.76473 0.18361 0.0
H1023 H 0.44902 0.78807 0.20249 0.0
H1024 H 0.37568 0.77452 0.1423 0.0
H1025 H 0.3832 0.83068 0.18786 0.0
H1026 H 0.38331 0.73343 0.1833 0.0
H1027 H 0.41328 0.73839 0.17353 0.0
H1028 H 0.38885 0.739 0.15281 0.0
H1029 H 0.39173 0.80204 0.23953 0.0
H1030 H 0.39864 0.82804 0.22564 0.0
H1031 H 0.42138 0.807 0.22881 0.0
C1032 C 0.17222 0.21507 0.69093 0.0
C1033 C 0.16638 0.21927 0.66749 0.0
C1034 C 0.16019 0.22589 0.70923 0.0
C1035 C 0.14197 0.24148 0.70402 0.0
C1036 C 0.13559 0.24545 0.68042 0.0
C1037 C 0.1478 0.23422 0.66242 0.0
C1038 C 0.16738 0.22101 0.73416 0.0
C1039 C 0.11639 0.26207 0.67415 0.0
C1040 C 0.09975 0.25819 0.75339 0.0
C1041 C 0.11042 0.27779 0.76153 0.0
C1042 C 0.10958 0.24635 0.73449 0.0
C1043 C 0.1305 0.25436 0.72328 0.0
C1044 C 0.14112 0.27431 0.73109 0.0
C1045 C 0.13106 0.28568 0.75013 0.0
C1046 C 0.0978 0.22508 0.72675 0.0
C1047 C 0.16342 0.28346 0.71959 0.0
H1048 H 0.18644 0.20344 0.69504 0.0
H1049 H 0.14322 0.23762 0.64437 0.0
H1050 H 0.175 0.23611 0.74233 0.0
H1051 H 0.1514 0.2162 0.74456 0.0
H1052 H 0.18092 0.20754 0.73532 0.0
H1053 H 0.11265 0.26241 0.65507 0.0
H1054 H 0.09948 0.25821 0.68354 0.0
H1055 H 0.12209 0.27884 0.67974 0.0
H1056 H 0.08365 0.25206 0.76176 0.0
H1057 H 0.13979 0.30054 0.75636 0.0
H1058 H 0.11054 0.2111 0.72886 0.0
H1059 H 0.0931 0.22601 0.70793 0.0
H1060 H 0.08126 0.22138 0.73687 0.0
H1061 H 0.17856 0.27171 0.72187 0.0
H1062 H 0.16878 0.29974 0.72697 0.0
H1063 H 0.16044 0.2854 0.70053 0.0
C1064 C 0.7707 0.92398 0.76348 0.0
C1065 C 0.75553 0.90855 0.77431 0.0
C1066 C 0.79358 0.91788 0.75534 0.0
C1067 C 0.8015 0.89575 0.75794 0.0
C1068 C 0.78626 0.88006 0.76879 0.0
C1069 C 0.76352 0.88666 0.7769 0.0
C1070 C 0.80937 0.93517 0.74411 0.0
C1071 C 0.79395 0.85625 0.77177 0.0
C1072 C 0.8518 0.8743 0.71884 0.0
C1073 C 0.87159 0.87478 0.73404 0.0
C1074 C 0.82894 0.88125 0.72632 0.0
C1075 C 0.82579 0.88902 0.74949 0.0
C1076 C 0.8458 0.89003 0.76473 0.0
C1077 C 0.8684 0.88284 0.75685 0.0
C1078 C 0.80805 0.87984 0.70956 0.0
C1079 C 0.84326 0.89839 0.78949 0.0
H1080 H 0.76484 0.94099 0.76172 0.0
H1081 H 0.75182 0.87458 0.78497 0.0
H1082 H 0.82638 0.93678 0.75407 0.0
H1083 H 0.81417 0.93001 0.72608 0.0
H1084 H 0.80053 0.95164 0.74332 0.0
H1085 H 0.77995 0.84607 0.78044 0.0
H1086 H 0.79806 0.84886 0.75446 0.0
H1087 H 0.81062 0.85543 0.78235 0.0
H1088 H 0.85403 0.86803 0.70122 0.0
H1089 H 0.88356 0.88331 0.76873 0.0
H1090 H 0.79948 0.89631 0.70764 0.0
H1091 H 0.79425 0.86843 0.71663 0.0
H1092 H 0.81356 0.87386 0.69199 0.0
H1093 H 0.83536 0.91525 0.7895 0.0
H1094 H 0.86072 0.89892 0.79886 0.0
H1095 H 0.83082 0.88754 0.79937 0.0
C1096 C 0.64557 0.14275 0.23516 0.0
C1097 C 0.64898 0.15841 0.21738 0.0
C1098 C 0.66531 0.13271 0.24635 0.0
C1099 C 0.68898 0.13823 0.23934 0.0
C1100 C 0.69245 0.15368 0.22107 0.0
C1101 C 0.67247 0.16366 0.21046 0.0
C1102 C 0.66087 0.11651 0.26594 0.0
C1103 C 0.71733 0.1598 0.21277 0.0
C1104 C 0.74319 0.13004 0.27904 0.0
C1105 C 0.75354 0.11069 0.26982 0.0
C1106 C 0.72167 0.13869 0.26993 0.0
C1107 C 0.71027 0.12793 0.25093 0.0
C1108 C 0.72023 0.10812 0.24193 0.0
C1109 C 0.74156 0.09969 0.25156 0.0
C1110 C 0.71153 0.15975 0.28019 0.0
C1111 C 0.70875 0.09618 0.2216 0.0
H1112 H 0.62748 0.13873 0.24073 0.0
H1113 H 0.6753 0.17565 0.19666 0.0
H1114 H 0.66935 0.10036 0.2618 0.0
H1115 H 0.66928 0.12269 0.28227 0.0
H1116 H 0.64142 0.11382 0.26918 0.0
H1117 H 0.71695 0.17172 0.198 0.0
H1118 H 0.72769 0.16726 0.22735 0.0
H1119 H 0.72714 0.14473 0.20709 0.0
H1120 H 0.75218 0.13884 0.29299 0.0
H1121 H 0.74893 0.08449 0.24456 0.0
H1122 H 0.69227 0.15754 0.28455 0.0
H1123 H 0.71269 0.17325 0.26711 0.0
H1124 H 0.72127 0.16501 0.29621 0.0
H1125 H 0.68964 0.09258 0.22548 0.0
H1126 H 0.71803 0.08039 0.21738 0.0
H1127 H 0.70915 0.10692 0.20588 0.0
C1128 C 0.34595 0.67391 0.30722 0.0
C1129 C 0.36719 0.66138 0.30698 0.0
C1130 C 0.32456 0.6656 0.29764 0.0
C1131 C 0.32431 0.64416 0.28766 0.0
C1132 C 0.34554 0.63122 0.28778 0.0
C1133 C 0.36674 0.64 0.29738 0.0
C1134 C 0.30234 0.67996 0.29778 0.0
C1135 C 0.34596 0.60823 0.27744 0.0
C1136 C 0.26367 0.61619 0.27929 0.0
C1137 C 0.25913 0.61998 0.25548 0.0
C1138 C 0.28488 0.62375 0.28995 0.0
C1139 C 0.30196 0.63555 0.27654 0.0
C1140 C 0.29753 0.63947 0.25253 0.0
C1141 C 0.27626 0.63159 0.24229 0.0
C1142 C 0.28895 0.61924 0.3156 0.0
C1143 C 0.31525 0.65205 0.23762 0.0
H1144 H 0.34607 0.69045 0.31455 0.0
H1145 H 0.38304 0.63018 0.29715 0.0
H1146 H 0.29658 0.68334 0.27956 0.0
H1147 H 0.28736 0.67121 0.30657 0.0
H1148 H 0.30533 0.69601 0.3068 0.0
H1149 H 0.36365 0.59999 0.27968 0.0
H1150 H 0.33194 0.59784 0.28576 0.0
H1151 H 0.34178 0.60904 0.2585 0.0
H1152 H 0.25051 0.60753 0.28976 0.0
H1153 H 0.27325 0.63434 0.22384 0.0
H1154 H 0.29044 0.6351 0.32528 0.0
H1155 H 0.30611 0.6102 0.31807 0.0
H1156 H 0.27421 0.60935 0.32346 0.0
H1157 H 0.31819 0.6688 0.24503 0.0
H1158 H 0.30907 0.65383 0.21925 0.0
H1159 H 0.33285 0.64343 0.23762 0.0
C1160 C 0.24748 0.41568 0.73881 0.0
C1161 C 0.26742 0.41204 0.75325 0.0
C1162 C 0.22407 0.41144 0.74685 0.0
C1163 C 0.22065 0.40275 0.76961 0.0
C1164 C 0.24083 0.39878 0.7841 0.0
C1165 C 0.26393 0.40376 0.77584 0.0
C1166 C 0.203 0.41641 0.7311 0.0
C1167 C 0.23807 0.38897 0.80823 0.0
C1168 C 0.16127 0.40626 0.80236 0.0
C1169 C 0.15185 0.38505 0.79866 0.0
C1170 C 0.18311 0.41266 0.79203 0.0
C1171 C 0.19611 0.39727 0.77822 0.0
C1172 C 0.18634 0.37604 0.77396 0.0
C1173 C 0.16422 0.37029 0.78399 0.0
C1174 C 0.19262 0.43567 0.79646 0.0
C1175 C 0.1998 0.35896 0.75976 0.0
H1176 H 0.25023 0.42231 0.72143 0.0
H1177 H 0.27941 0.40078 0.78688 0.0
H1178 H 0.19288 0.40101 0.72739 0.0
H1179 H 0.19047 0.42797 0.74 0.0
H1180 H 0.20865 0.42386 0.71423 0.0
H1181 H 0.25562 0.38647 0.81707 0.0
H1182 H 0.22683 0.39998 0.81926 0.0
H1183 H 0.22874 0.37279 0.80706 0.0
H1184 H 0.15173 0.41777 0.81356 0.0
H1185 H 0.15715 0.35379 0.78115 0.0
H1186 H 0.19782 0.44361 0.77973 0.0
H1187 H 0.20898 0.43473 0.80748 0.0
H1188 H 0.17925 0.44636 0.80544 0.0
H1189 H 0.20469 0.36577 0.74241 0.0
H1190 H 0.1892 0.3436 0.75709 0.0
H1191 H 0.21678 0.35458 0.76881 0.0
C1192 C 0.77089 0.76966 0.88541 0.0
C1193 C 0.76319 0.76025 0.90659 0.0
C1194 C 0.7592 0.78813 0.87577 0.0
C1195 C 0.73906 0.79734 0.88734 0.0
C1196 C 0.73144 0.78829 0.9089 0.0
C1197 C 0.74369 0.77002 0.91833 0.0
C1198 C 0.76807 0.79745 0.85285 0.0
C1199 C 0.70995 0.79753 0.92173 0.0
C1200 C 0.71801 0.85504 0.86992 0.0
C1201 C 0.69986 0.85016 0.85371 0.0
C1202 C 0.73088 0.83804 0.88112 0.0
C1203 C 0.72519 0.81566 0.87625 0.0
C1204 C 0.70646 0.81068 0.86036 0.0
C1205 C 0.69417 0.82796 0.84916 0.0
C1206 C 0.75093 0.84401 0.89771 0.0
C1207 C 0.69958 0.78705 0.85495 0.0
H1208 H 0.78571 0.76232 0.87594 0.0
H1209 H 0.73778 0.76334 0.93489 0.0
H1210 H 0.75425 0.79497 0.83913 0.0
H1211 H 0.77108 0.81553 0.85447 0.0
H1212 H 0.78504 0.78952 0.84697 0.0
H1213 H 0.70681 0.78913 0.93872 0.0
H1214 H 0.71239 0.81549 0.925 0.0
H1215 H 0.69363 0.79565 0.91078 0.0
H1216 H 0.72262 0.87215 0.87338 0.0
H1217 H 0.68009 0.82406 0.83675 0.0
H1218 H 0.7682 0.8374 0.89097 0.0
H1219 H 0.7478 0.83631 0.91503 0.0
H1220 H 0.75271 0.86218 0.90009 0.0
H1221 H 0.71499 0.77829 0.84682 0.0
H1222 H 0.68397 0.78599 0.84291 0.0
H1223 H 0.69509 0.77817 0.87134 0.0
C1224 C 0.20581 0.67104 0.12527 0.0
C1225 C 0.21266 0.66057 0.14609 0.0
C1226 C 0.21793 0.68998 0.11727 0.0
C1227 C 0.2369 0.699 0.13076 0.0
C1228 C 0.24432 0.68811 0.15144 0.0
C1229 C 0.23231 0.66889 0.15869 0.0
C1230 C 0.20991 0.70077 0.0948 0.0
C1231 C 0.2641 0.69739 0.16662 0.0
C1232 C 0.27917 0.74252 0.10569 0.0
C1233 C 0.26831 0.76215 0.11339 0.0
C1234 C 0.26889 0.72181 0.11072 0.0
C1235 C 0.24766 0.72075 0.12434 0.0
C1236 C 0.23683 0.74058 0.13236 0.0
C1237 C 0.24712 0.76102 0.12653 0.0
C1238 C 0.28064 0.70109 0.10138 0.0
C1239 C 0.21455 0.74021 0.14742 0.0
H1240 H 0.19075 0.6646 0.11538 0.0
H1241 H 0.23762 0.66099 0.1749 0.0
H1242 H 0.20132 0.71692 0.0987 0.0
H1243 H 0.2256 0.70407 0.08337 0.0
H1244 H 0.19685 0.69038 0.08504 0.0
H1245 H 0.26866 0.68626 0.18142 0.0
H1246 H 0.28054 0.70025 0.15611 0.0
H1247 H 0.25842 0.71363 0.17382 0.0
H1248 H 0.29546 0.74346 0.09538 0.0
H1249 H 0.23892 0.7762 0.13271 0.0
H1250 H 0.26754 0.6915 0.09085 0.0
H1251 H 0.2864 0.69036 0.11607 0.0
H1252 H 0.29655 0.70479 0.09033 0.0
H1253 H 0.19964 0.73204 0.13792 0.0
H1254 H 0.20864 0.75709 0.1526 0.0
H1255 H 0.21798 0.73044 0.1635 0.0
C1256 C 0.30006 0.36205 0.65393 0.0
C1257 C 0.32013 0.3569 0.66771 0.0
C1258 C 0.28679 0.34527 0.64276 0.0
C1259 C 0.29403 0.32289 0.64512 0.0
C1260 C 0.31466 0.31772 0.65851 0.0
C1261 C 0.32731 0.33473 0.66978 0.0
C1262 C 0.2647 0.35144 0.62891 0.0
C1263 C 0.32327 0.29414 0.66114 0.0
C1264 C 0.25023 0.27525 0.63645 0.0
C1265 C 0.25612 0.26782 0.61387 0.0
C1266 C 0.26179 0.29363 0.64649 0.0
C1267 C 0.28001 0.30475 0.63385 0.0
C1268 C 0.28574 0.2977 0.61093 0.0
C1269 C 0.27362 0.27952 0.60117 0.0
C1270 C 0.25492 0.3008 0.67089 0.0
C1271 C 0.30516 0.30899 0.59691 0.0
H1272 H 0.29429 0.37912 0.65243 0.0
H1273 H 0.34288 0.33064 0.68031 0.0
H1274 H 0.26626 0.34519 0.61074 0.0
H1275 H 0.24865 0.34351 0.63677 0.0
H1276 H 0.26173 0.36961 0.62837 0.0
H1277 H 0.34014 0.29297 0.67143 0.0
H1278 H 0.30929 0.2841 0.66997 0.0
H1279 H 0.32639 0.28667 0.64367 0.0
H1280 H 0.23695 0.26647 0.64664 0.0
H1281 H 0.27809 0.27444 0.58357 0.0
H1282 H 0.25082 0.31877 0.67119 0.0
H1283 H 0.27023 0.298 0.68295 0.0
H1284 H 0.23909 0.29163 0.67764 0.0
H1285 H 0.30137 0.32696 0.59551 0.0
H1286 H 0.3069 0.30202 0.57901 0.0
H1287 H 0.32267 0.30719 0.60599 0.0
C1288 C 0.76999 0.24064 0.4218 0.0
C1289 C 0.75127 0.25103 0.40949 0.0
C1290 C 0.78185 0.222 0.41266 0.0
C1291 C 0.77466 0.21327 0.39079 0.0
C1292 C 0.75532 0.22316 0.37861 0.0
C1293 C 0.744 0.24195 0.388 0.0
C1294 C 0.8025 0.21199 0.42612 0.0
C1295 C 0.74697 0.21427 0.3553 0.0
C1296 C 0.81888 0.18186 0.35266 0.0
C1297 C 0.81174 0.15984 0.35603 0.0
C1298 C 0.80748 0.19929 0.36448 0.0
C1299 C 0.78823 0.19467 0.37988 0.0
C1300 C 0.78131 0.17243 0.38384 0.0
C1301 C 0.79326 0.15525 0.37197 0.0
C1302 C 0.81565 0.22274 0.36 0.0
C1303 C 0.76073 0.16686 0.39996 0.0
H1304 H 0.77556 0.24712 0.43858 0.0
H1305 H 0.72983 0.24977 0.37806 0.0
H1306 H 0.79938 0.19406 0.42893 0.0
H1307 H 0.81931 0.2136 0.41584 0.0
H1308 H 0.80517 0.22006 0.44338 0.0
H1309 H 0.73057 0.22281 0.34888 0.0
H1310 H 0.7614 0.21634 0.3421 0.0
H1311 H 0.74316 0.1963 0.35664 0.0
H1312 H 0.83327 0.18553 0.34051 0.0
H1313 H 0.78757 0.13828 0.37457 0.0
H1314 H 0.81973 0.23117 0.37677 0.0
H1315 H 0.80103 0.23219 0.35139 0.0
H1316 H 0.83184 0.22342 0.34868 0.0
H1317 H 0.76351 0.17458 0.41735 0.0
H1318 H 0.75853 0.14873 0.4023 0.0
H1319 H 0.74378 0.17371 0.39274 0.0
C1320 C 0.18387 0.16842 0.5163 0.0
C1321 C 0.17577 0.18366 0.5331 0.0
C1322 C 0.17606 0.16952 0.49299 0.0
C1323 C 0.15978 0.18632 0.48616 0.0
C1324 C 0.1508 0.20124 0.5032 0.0
C1325 C 0.15885 0.19971 0.52647 0.0
C1326 C 0.18599 0.1532 0.47545 0.0
C1327 C 0.13342 0.21939 0.49665 0.0
C1328 C 0.16332 0.20531 0.42291 0.0
C1329 C 0.14362 0.19455 0.41265 0.0
C1330 C 0.16854 0.20293 0.44678 0.0
C1331 C 0.15379 0.18936 0.46091 0.0
C1332 C 0.13388 0.17839 0.45075 0.0
C1333 C 0.12904 0.18109 0.42675 0.0
C1334 C 0.19004 0.21484 0.45683 0.0
C1335 C 0.11773 0.16378 0.46522 0.0
H1336 H 0.19679 0.15584 0.52124 0.0
H1337 H 0.15245 0.21154 0.53929 0.0
H1338 H 0.17117 0.14527 0.46558 0.0
H1339 H 0.19742 0.16202 0.4626 0.0
H1340 H 0.19694 0.14005 0.48387 0.0
H1341 H 0.12654 0.22842 0.5122 0.0
H1342 H 0.14248 0.23141 0.48496 0.0
H1343 H 0.11796 0.21245 0.48687 0.0
H1344 H 0.17497 0.21541 0.41218 0.0
H1345 H 0.11365 0.1729 0.4191 0.0
H1346 H 0.20303 0.20265 0.46394 0.0
H1347 H 0.18436 0.22564 0.47153 0.0
H1348 H 0.19939 0.22517 0.44362 0.0
H1349 H 0.12833 0.15008 0.47299 0.0
H1350 H 0.10284 0.15657 0.45478 0.0
H1351 H 0.10994 0.17341 0.4799 0.0
C1352 C 0.35233 0.83735 0.02749 0.0
C1353 C 0.36292 0.82027 0.04055 0.0
C1354 C 0.35494 0.83833 1.00305 0.0
C1355 C 0.36869 0.82197 0.99134 0.0
C1356 C 0.38041 0.80535 1.00455 0.0
C1357 C 0.37728 0.80463 0.02893 0.0
C1358 C 0.34202 0.85625 0.98966 0.0
C1359 C 0.39547 0.78775 0.99283 0.0
C1360 C 0.35122 0.80795 0.92878 0.0
C1361 C 0.36827 0.81968 0.9156 0.0
C1362 C 0.35124 0.80859 0.95331 0.0
C1363 C 0.36895 0.82103 0.96521 0.0
C1364 C 0.38657 0.83255 0.95215 0.0
C1365 C 0.38598 0.8318 0.92752 0.0
C1366 C 0.3321 0.79602 0.96649 0.0
C1367 C 0.40588 0.84585 0.96419 0.0
H1368 H 0.34119 0.84952 0.03626 0.0
H1369 H 0.38571 0.79146 0.03885 0.0
H1370 H 0.3546 0.86479 0.97765 0.0
H1371 H 0.32769 0.84874 0.97876 0.0
H1372 H 0.3337 0.86875 1.0014 0.0
H1373 H 0.40537 0.77741 1.00567 0.0
H1374 H 0.38375 0.77679 0.98225 0.0
H1375 H 0.40861 0.79543 0.98073 0.0
H1376 H 0.33777 0.79812 0.91993 0.0
H1377 H 0.39915 0.84106 0.91765 0.0
H1378 H 0.32163 0.80758 0.97762 0.0
H1379 H 0.34056 0.78369 0.97824 0.0
H1380 H 0.31949 0.78726 0.95463 0.0
H1381 H 0.39758 0.8594 0.97451 0.0
H1382 H 0.41881 0.85318 0.9516 0.0
H1383 H 0.41591 0.83521 0.97662 0.0
C1384 C 0.66199 0.33198 0.49363 0.0
C1385 C 0.65582 0.31239 0.48189 0.0
C1386 C 0.65811 0.33432 0.5178 0.0
C1387 C 0.64753 0.31675 0.53054 0.0
C1388 C 0.63982 0.29754 0.5185 0.0
C1389 C 0.64419 0.29553 0.49438 0.0
C1390 C 0.66674 0.35504 0.52993 0.0
C1391 C 0.62815 0.27856 0.53132 0.0
C1392 C 0.66773 0.31014 0.59355 0.0
C1393 C 0.64879 0.31983 0.60615 0.0
C1394 C 0.66736 0.30893 0.56908 0.0
C1395 C 0.64736 0.31734 0.55665 0.0
C1396 C 0.6278 0.32657 0.56919 0.0
C1397 C 0.62876 0.32776 0.59379 0.0
C1398 C 0.68862 0.29889 0.55649 0.0
C1399 C 0.60605 0.33551 0.55659 0.0
H1400 H 0.67094 0.34514 0.48418 0.0
H1401 H 0.63913 0.28041 0.48544 0.0
H1402 H 0.65249 0.36182 0.54144 0.0
H1403 H 0.68237 0.35096 0.54116 0.0
H1404 H 0.67223 0.36806 0.51732 0.0
H1405 H 0.62026 0.26623 0.51913 0.0
H1406 H 0.64172 0.27007 0.54232 0.0
H1407 H 0.61382 0.28473 0.54313 0.0
H1408 H 0.68302 0.30342 0.60283 0.0
H1409 H 0.61408 0.33536 0.60329 0.0
H1410 H 0.69666 0.31128 0.54452 0.0
H1411 H 0.68269 0.28468 0.54565 0.0
H1412 H 0.70275 0.29306 0.56873 0.0
H1413 H 0.61132 0.34981 0.5456 0.0
H1414 H 0.59174 0.34092 0.56886 0.0
H1415 H 0.59859 0.32272 0.54472 0.0
C1416 C 0.88987 0.68047 0.09219 0.0
C1417 C 0.8703 0.68735 0.10589 0.0
C1418 C 0.88953 0.68272 0.06767 0.0
C1419 C 0.86911 0.692 0.05657 0.0
C1420 C 0.84956 0.69937 0.07035 0.0
C1421 C 0.85045 0.69706 0.09474 0.0
C1422 C 0.9108 0.6748 0.0536 0.0
C1423 C 0.82745 0.70944 0.05932 0.0
C1424 C 0.86988 0.7159 0.99503 0.0
C1425 C 0.85846 0.69915 0.98216 0.0
C1426 C 0.87464 0.71334 0.01903 0.0
C1427 C 0.86765 0.69363 0.03054 0.0
C1428 C 0.85706 0.6763 0.01743 0.0
C1429 C 0.85268 0.67922 0.99342 0.0
C1430 C 0.88621 0.73214 0.03227 0.0
C1431 C 0.84921 0.65505 0.029 0.0
H1432 H 0.90522 0.67285 0.10057 0.0
H1433 H 0.83547 0.70293 0.10509 0.0
H1434 H 0.90529 0.66093 0.04209 0.0
H1435 H 0.91741 0.68827 0.04212 0.0
H1436 H 0.92582 0.66911 0.06489 0.0
H1437 H 0.81389 0.71455 0.07251 0.0
H1438 H 0.83249 0.72413 0.04881 0.0
H1439 H 0.81903 0.69733 0.04725 0.0
H1440 H 0.87459 0.73129 0.98649 0.0
H1441 H 0.84391 0.66614 0.98367 0.0
H1442 H 0.90136 0.72594 0.04302 0.0
H1443 H 0.87292 0.73963 0.04439 0.0
H1444 H 0.89299 0.74528 0.02042 0.0
H1445 H 0.86412 0.64797 0.03946 0.0
H1446 H 0.84317 0.64247 0.01611 0.0
H1447 H 0.83418 0.65853 0.0412 0.0
C1448 C 0.40774 0.10486 0.20465 0.0
C1449 C 0.39332 0.11425 0.18713 0.0
C1450 C 0.43258 0.10913 0.20565 0.0
C1451 C 0.44329 0.12309 0.18872 0.0
C1452 C 0.42888 0.13236 0.17083 0.0
C1453 C 0.40415 0.12786 0.17027 0.0
C1454 C 0.4473 0.09896 0.22502 0.0
C1455 C 0.43955 0.14729 0.1524 0.0
C1456 C 0.50128 0.15384 0.20216 0.0
C1457 C 0.51839 0.14141 0.18975 0.0
C1458 C 0.47695 0.14771 0.20248 0.0
C1459 C 0.46939 0.12869 0.19003 0.0
C1460 C 0.48662 0.11577 0.17789 0.0
C1461 C 0.5109 0.12226 0.17793 0.0
C1462 C 0.45922 0.16192 0.21571 0.0
C1463 C 0.47931 0.09539 0.16438 0.0
H1464 H 0.39959 0.0943 0.21774 0.0
H1465 H 0.39326 0.13516 0.15659 0.0
H1466 H 0.4624 0.08927 0.21754 0.0
H1467 H 0.45525 0.1122 0.236 0.0
H1468 H 0.43646 0.08792 0.23639 0.0
H1469 H 0.42606 0.15265 0.13927 0.0
H1470 H 0.4473 0.16223 0.16078 0.0
H1471 H 0.45438 0.13865 0.1432 0.0
H1472 H 0.50683 0.16861 0.21146 0.0
H1473 H 0.52394 0.11252 0.16831 0.0
H1474 H 0.4489 0.15167 0.22825 0.0
H1475 H 0.44613 0.16929 0.20333 0.0
H1476 H 0.46813 0.17552 0.22549 0.0
H1477 H 0.46925 0.0839 0.17587 0.0
H1478 H 0.495 0.08647 0.15692 0.0
H1479 H 0.46713 0.10015 0.14988 0.0
C1480 C 1.00447 0.8729 0.68627 0.0
C1481 C 0.99336 0.87306 0.70829 0.0
C1482 C 0.02877 0.87878 0.68372 0.0
C1483 C 0.04223 0.8852 0.70362 0.0
C1484 C 0.03075 0.88653 0.72566 0.0
C1485 C 1.00653 0.88033 0.72776 0.0
C1486 C 0.04033 0.877 0.65992 0.0
C1487 C 0.04434 0.89357 0.74726 0.0
C1488 C 0.10923 0.87309 0.70272 0.0
C1489 C 0.11906 0.89373 0.69686 0.0
C1490 C 0.08435 0.87021 0.70509 0.0
C1491 C 0.06875 0.88846 0.70176 0.0
C1492 C 0.07853 0.90949 0.69638 0.0
C1493 C 0.10356 0.91186 0.69388 0.0
C1494 C 0.07472 0.84747 0.71073 0.0
C1495 C 0.06252 0.92939 0.69298 0.0
H1496 H 0.99448 0.8673 0.67112 0.0
H1497 H 0.99807 0.88069 0.74482 0.0
H1498 H 0.04996 0.89252 0.65559 0.0
H1499 H 0.05382 0.86346 0.66004 0.0
H1500 H 0.02702 0.87354 0.64592 0.0
H1501 H 0.03228 0.89607 0.76252 0.0
H1502 H 0.05779 0.88073 0.75185 0.0
H1503 H 0.05427 0.90916 0.74394 0.0
H1504 H 0.12097 0.85895 0.70502 0.0
H1505 H 0.11097 0.92787 0.68936 0.0
H1506 H 0.06259 0.84183 0.69654 0.0
H1507 H 0.06399 0.84807 0.72706 0.0
H1508 H 0.08924 0.83503 0.71292 0.0
H1509 H 0.05043 0.92661 0.67786 0.0
H1510 H 0.07295 0.94477 0.68988 0.0
H1511 H 0.05098 0.93183 0.70859 0.0
C1512 C 0.01756 0.37047 0.83403 0.0
C1513 C 0.02888 0.37092 0.81212 0.0
C1514 C 0.99302 0.37549 0.83636 0.0
C1515 C 0.97941 0.38119 0.81631 0.0
C1516 C 0.99097 0.38264 0.79431 0.0
C1517 C 0.01553 0.37746 0.79247 0.0
C1518 C 0.98141 0.37375 0.86015 0.0
C1519 C 0.97718 0.38876 0.77253 0.0
C1520 C 0.91315 0.36651 0.81861 0.0
C1521 C 0.90243 0.38685 0.82434 0.0
C1522 C 0.93805 0.36463 0.81547 0.0
C1523 C 0.95277 0.38355 0.81806 0.0
C1524 C 0.94206 0.4043 0.8231 0.0
C1525 C 0.91699 0.40571 0.82619 0.0
C1526 C 0.94867 0.34219 0.81 0.0
C1527 C 0.95713 0.42487 0.82587 0.0
H1528 H 0.0277 0.36554 0.84934 0.0
H1529 H 0.0241 0.37801 0.77547 0.0
H1530 H 0.97123 0.38907 0.86419 0.0
H1531 H 0.96842 0.35984 0.86018 0.0
H1532 H 0.99477 0.37089 0.87425 0.0
H1533 H 0.98918 0.39133 0.75726 0.0
H1534 H 0.96429 0.37538 0.7682 0.0
H1535 H 0.96659 0.40406 0.7755 0.0
H1536 H 0.9021 0.35183 0.81702 0.0
H1537 H 0.90891 0.42149 0.83064 0.0
H1538 H 0.96084 0.33703 0.82437 0.0
H1539 H 0.95957 0.34303 0.7938 0.0
H1540 H 0.93468 0.32927 0.80772 0.0
H1541 H 0.96907 0.42308 0.84128 0.0
H1542 H 0.94599 0.43997 0.82821 0.0
H1543 H 0.96883 0.42714 0.81035 0.0
C1544 C 0.51422 0.63964 0.30756 0.0
C1545 C 0.49889 0.63258 0.32556 0.0
C1546 C 0.53828 0.63261 0.30657 0.0
C1547 C 0.54728 0.61818 0.32399 0.0
C1548 C 0.53158 0.61012 0.3415 0.0
C1549 C 0.50761 0.61739 0.34206 0.0
C1550 C 0.55436 0.64152 0.28754 0.0
C1551 C 0.54041 0.59467 0.36037 0.0
C1552 C 0.60818 0.59 0.31628 0.0
C1553 C 0.62318 0.6038 0.32957 0.0
C1554 C 0.58347 0.59454 0.31403 0.0
C1555 C 0.57353 0.61331 0.32534 0.0
C1556 C 0.58865 0.62743 0.3385 0.0
C1557 C 0.6132 0.62252 0.34044 0.0
C1558 C 0.56794 0.57913 0.29981 0.0
C1559 C 0.57885 0.64764 0.35083 0.0
H1560 H 0.50767 0.6513 0.29465 0.0
H1561 H 0.49593 0.61173 0.35598 0.0
H1562 H 0.56776 0.65295 0.29529 0.0
H1563 H 0.56444 0.62785 0.27905 0.0
H1564 H 0.54411 0.65062 0.27393 0.0
H1565 H 0.52552 0.58824 0.37135 0.0
H1566 H 0.55015 0.58046 0.35254 0.0
H1567 H 0.55326 0.60355 0.37185 0.0
H1568 H 0.61569 0.5755 0.30781 0.0
H1569 H 0.62456 0.63335 0.35073 0.0
H1570 H 0.55841 0.58852 0.28597 0.0
H1571 H 0.55404 0.57159 0.31118 0.0
H1572 H 0.5785 0.56567 0.29147 0.0
H1573 H 0.56993 0.65873 0.33806 0.0
H1574 H 0.59307 0.65714 0.36003 0.0
H1575 H 0.56509 0.64261 0.36381 0.0
C1576 C 0.17702 0.44526 0.12856 0.0
C1577 C 0.15285 0.43876 0.12888 0.0
C1578 C 0.1835 0.46762 0.13151 0.0
C1579 C 0.16537 0.48382 0.1348 0.0
C1580 C 0.14094 0.47744 0.13411 0.0
C1581 C 0.13501 0.45507 0.13112 0.0
C1582 C 0.20975 0.47377 0.13203 0.0
C1583 C 0.121 0.49414 0.13738 0.0
C1584 C 0.17792 0.53599 0.16986 0.0
C1585 C 0.17996 0.55209 0.15231 0.0
C1586 C 0.17395 0.51366 0.16432 0.0
C1587 C 0.17172 0.50718 0.14062 0.0
C1588 C 0.17407 0.52327 0.12277 0.0
C1589 C 0.17825 0.54552 0.12882 0.0
C1590 C 0.17166 0.49704 0.1839 0.0
C1591 C 0.17163 0.51705 0.09732 0.0
H1592 H 0.19089 0.43278 0.12688 0.0
H1593 H 0.11628 0.4503 0.13082 0.0
H1594 H 0.21327 0.48773 0.11993 0.0
H1595 H 0.21469 0.47939 0.14986 0.0
H1596 H 0.22154 0.45966 0.12714 0.0
H1597 H 0.10293 0.48673 0.13491 0.0
H1598 H 0.12195 0.50125 0.15524 0.0
H1599 H 0.12312 0.508 0.12485 0.0
H1600 H 0.17941 0.54083 0.18806 0.0
H1601 H 0.17981 0.55782 0.11513 0.0
H1602 H 0.18447 0.4832 0.1812 0.0
H1603 H 0.15331 0.4899 0.18391 0.0
H1604 H 0.17511 0.50453 0.20132 0.0
H1605 H 0.1842 0.50342 0.09293 0.0
H1606 H 0.17524 0.53124 0.0855 0.0
H1607 H 0.15319 0.51093 0.09388 0.0
C1608 C 0.64402 0.99359 0.84185 0.0
C1609 C 0.65918 0.9766 0.84976 0.0
C1610 C 0.64589 0.0152 0.85074 0.0
C1611 C 0.66343 0.02003 0.86792 0.0
C1612 C 0.67806 1.00275 0.87674 0.0
C1613 C 0.67574 0.98125 0.86759 0.0
C1614 C 0.62983 0.03308 0.84096 0.0
C1615 C 0.69699 1.00719 0.89504 0.0
C1616 C 0.68936 0.07813 0.86881 0.0
C1617 C 0.67781 0.08773 0.88815 0.0
C1618 C 0.68476 0.05622 0.8621 0.0
C1619 C 0.66806 0.04344 0.87494 0.0
C1620 C 0.65601 0.05305 0.89428 0.0
C1621 C 0.66101 0.0751 0.90065 0.0
C1622 C 0.6979 0.04671 0.84127 0.0
C1623 C 0.63806 0.03997 0.90837 0.0
H1624 H 0.63103 0.99017 0.8282 0.0
H1625 H 0.6875 0.96825 0.87388 0.0
H1626 H 0.62123 0.04254 0.85534 0.0
H1627 H 0.64074 0.04493 0.83066 0.0
H1628 H 0.61556 0.02627 0.82946 0.0
H1629 H 0.70535 0.9917 0.90163 0.0
H1630 H 0.7113 0.01776 0.88749 0.0
H1631 H 0.68912 0.01632 0.91003 0.0
H1632 H 0.70196 0.08784 0.85872 0.0
H1633 H 0.65214 0.08229 0.91569 0.0
H1634 H 0.68482 0.04121 0.82785 0.0
H1635 H 0.7084 0.03196 0.84665 0.0
H1636 H 0.71034 0.05883 0.83315 0.0
H1637 H 0.6236 0.03368 0.89681 0.0
H1638 H 0.62979 0.04999 0.92255 0.0
H1639 H 0.64698 0.02537 0.91628 0.0
C1640 C 0.86251 0.03607 0.38361 0.0
C1641 C 0.84551 0.04228 0.36672 0.0
C1642 C 0.86575 0.01372 0.38975 0.0
C1643 C 0.85151 0.99724 0.37891 0.0
C1644 C 0.8336 1.00355 0.36264 0.0
C1645 C 0.83091 0.02594 0.35666 0.0
C1646 C 0.88513 1.00767 0.40705 0.0
C1647 C 0.81785 0.98655 0.35083 0.0
C1648 C 0.87514 0.93907 0.36924 0.0
C1649 C 0.86248 0.92691 0.38605 0.0
C1650 C 0.87254 0.96208 0.36748 0.0
C1651 C 0.85665 0.97328 0.38278 0.0
C1652 C 0.84453 0.96123 0.40046 0.0
C1653 C 0.84771 0.93815 0.40197 0.0
C1654 C 0.88611 0.97427 0.34861 0.0
C1655 C 0.82735 0.97254 0.41702 0.0
H1656 H 0.87387 0.04857 0.39149 0.0
H1657 H 0.81758 0.03059 0.34376 0.0
H1658 H 0.87786 0.99658 0.42077 0.0
H1659 H 0.89966 0.9985 0.39794 0.0
H1660 H 0.89307 0.02247 0.41559 0.0
H1661 H 0.80344 0.99428 0.34017 0.0
H1662 H 0.82896 0.97594 0.33924 0.0
H1663 H 0.80944 0.97561 0.36406 0.0
H1664 H 0.88686 0.93044 0.35715 0.0
H1665 H 0.8378 0.92876 0.41489 0.0
H1666 H 0.89596 0.98851 0.35621 0.0
H1667 H 0.87327 0.98097 0.33558 0.0
H1668 H 0.89916 0.96343 0.33937 0.0
H1669 H 0.83592 0.98726 0.42505 0.0
H1670 H 0.82118 0.96131 0.43116 0.0
H1671 H 0.81142 0.97843 0.40718 0.0
C1672 C 0.34105 0.49062 0.66819 0.0
C1673 C 0.35299 0.47457 0.65473 0.0
C1674 C 0.33869 0.51252 0.66035 0.0
C1675 C 0.34857 0.51868 0.6385 0.0
C1676 C 0.36107 0.50272 0.625 0.0
C1677 C 0.3631 0.48085 0.63325 0.0
C1678 C 0.32514 0.52898 0.67526 0.0
C1679 C 0.37194 0.50865 0.60167 0.0
C1680 C 0.31928 0.56831 0.60928 0.0
C1681 C 0.33487 0.58563 0.61538 0.0
C1682 C 0.32388 0.54642 0.61615 0.0
C1683 C 0.34469 0.54156 0.6294 0.0
C1684 C 0.36096 0.5588 0.63497 0.0
C1685 C 0.35585 0.58062 0.62792 0.0
C1686 C 0.30608 0.52857 0.60975 0.0
C1687 C 0.38339 0.5543 0.649 0.0
H1688 H 0.3332 0.48602 0.68483 0.0
H1689 H 0.37244 0.46863 0.62275 0.0
H1690 H 0.33654 0.54364 0.67885 0.0
H1691 H 0.30901 0.53488 0.66574 0.0
H1692 H 0.31931 0.52179 0.6922 0.0
H1693 H 0.38216 0.49467 0.59387 0.0
H1694 H 0.35755 0.5136 0.58932 0.0
H1695 H 0.38416 0.52302 0.60362 0.0
H1696 H 0.3033 0.57187 0.59917 0.0
H1697 H 0.36794 0.59384 0.63285 0.0
H1698 H 0.29809 0.52152 0.62588 0.0
H1699 H 0.3153 0.51488 0.60044 0.0
H1700 H 0.29133 0.53488 0.5985 0.0
H1701 H 0.3784 0.5489 0.66688 0.0
H1702 H 0.39508 0.56912 0.65041 0.0
H1703 H 0.39385 0.54066 0.64091 0.0
C1704 C 0.86391 0.86112 0.50295 0.0
C1705 C 0.87701 0.85132 0.48468 0.0
C1706 C 0.87063 0.85818 0.52641 0.0
C1707 C 0.89103 0.84518 0.53187 0.0
C1708 C 0.90487 0.83591 0.5135 0.0
C1709 C 0.89769 0.83905 0.49014 0.0
C1710 C 0.85534 0.86835 0.54542 0.0
C1711 C 0.92684 0.82206 0.51856 0.0
C1712 C 0.91673 0.84936 0.59359 0.0
C1713 C 0.9067 0.83067 0.60438 0.0
C1714 C 0.91206 0.85418 0.56994 0.0
C1715 C 0.89687 0.84009 0.55679 0.0
C1716 C 0.88666 0.82125 0.56762 0.0
C1717 C 0.89173 0.81677 0.59119 0.0
C1718 C 0.9234 0.87435 0.55901 0.0
C1719 C 0.87016 0.8059 0.55435 0.0
H1720 H 0.84796 0.87069 0.49898 0.0
H1721 H 0.90798 0.83146 0.47619 0.0
H1722 H 0.84689 0.85506 0.55595 0.0
H1723 H 0.86663 0.87831 0.55744 0.0
H1724 H 0.84092 0.87911 0.53828 0.0
H1725 H 0.93671 0.81747 0.50238 0.0
H1726 H 0.93921 0.83113 0.53035 0.0
H1727 H 0.92144 0.80666 0.52769 0.0
H1728 H 0.92852 0.86004 0.60354 0.0
H1729 H 0.88359 0.80251 0.59944 0.0
H1730 H 0.90922 0.88577 0.55267 0.0
H1731 H 0.93429 0.86941 0.54362 0.0
H1732 H 0.9351 0.88344 0.57147 0.0
H1733 H 0.85421 0.81517 0.54808 0.0
H1734 H 0.86393 0.7918 0.56522 0.0
H1735 H 0.87951 0.79922 0.53873 0.0
C1736 C 0.64159 0.16819 1.00025 0.0
C1737 C 0.62421 0.16747 0.98247 0.0
C1738 C 0.63503 0.17026 0.02385 0.0
C1739 C 0.61042 0.17133 0.03002 0.0
C1740 C 0.59274 0.1695 0.0123 0.0
C1741 C 0.59983 0.16779 0.98872 0.0
C1742 C 0.65452 0.17242 0.04208 0.0
C1743 C 0.56632 0.17013 0.01817 0.0
C1744 C 0.59726 0.16484 0.09516 0.0
C1745 C 0.59582 0.18701 0.10247 0.0
C1746 C 0.60093 0.15937 0.07146 0.0
C1747 C 0.6035 0.17645 0.05469 0.0
C1748 C 0.60119 0.19878 0.06182 0.0
C1749 C 0.59715 0.20374 0.08546 0.0
C1750 C 0.60285 0.13534 0.0645 0.0
C1751 C 0.60391 0.21756 0.04461 0.0
H1752 H 0.66048 0.16796 0.99569 0.0
H1753 H 0.58626 0.16708 0.97516 0.0
H1754 H 0.65368 0.18911 0.05013 0.0
H1755 H 0.65176 0.16017 0.05624 0.0
H1756 H 0.67275 0.16998 0.03462 0.0
H1757 H 0.55492 0.16585 1.0029 0.0
H1758 H 0.56229 0.15848 0.03263 0.0
H1759 H 0.56133 0.18695 0.02426 0.0
H1760 H 0.5963 0.15174 0.108 0.0
H1761 H 0.59538 0.22088 0.09064 0.0
H1762 H 0.62161 0.13154 0.05934 0.0
H1763 H 0.59127 0.1319 0.04915 0.0
H1764 H 0.59765 0.12406 0.07896 0.0
H1765 H 0.6223 0.21735 0.03712 0.0
H1766 H 0.60076 0.23399 0.05279 0.0
H1767 H 0.59114 0.2155 0.0299 0.0
C1768 C 0.4388 0.67332 0.43323 0.0
C1769 C 0.42397 0.67923 0.41442 0.0
C1770 C 0.42927 0.66955 0.45561 0.0
C1771 C 0.40431 0.67218 0.45944 0.0
C1772 C 0.38921 0.67812 0.44048 0.0
C1773 C 0.3992 0.68133 0.41813 0.0
C1774 C 0.44593 0.66271 0.47515 0.0
C1775 C 0.36257 0.68144 0.44389 0.0
C1776 C 0.37478 0.64488 0.51207 0.0
C1777 C 0.37366 0.66241 0.52814 0.0
C1778 C 0.38509 0.64772 0.48985 0.0
C1779 C 0.39403 0.66874 0.48328 0.0
C1780 C 0.3931 0.68647 0.4995 0.0
C1781 C 0.38317 0.68304 0.52182 0.0
C1782 C 0.38625 0.62824 0.47333 0.0
C1783 C 0.4021 0.70923 0.49307 0.0
H1784 H 0.45792 0.67138 0.43033 0.0
H1785 H 0.38776 0.68605 0.40365 0.0
H1786 H 0.44551 0.67525 0.48932 0.0
H1787 H 0.43982 0.64682 0.4828 0.0
H1788 H 0.46478 0.66074 0.46913 0.0
H1789 H 0.35336 0.68631 0.42745 0.0
H1790 H 0.35427 0.66599 0.45049 0.0
H1791 H 0.35939 0.69447 0.45723 0.0
H1792 H 0.36753 0.62888 0.51688 0.0
H1793 H 0.38214 0.69672 0.53405 0.0
H1794 H 0.40504 0.62548 0.46755 0.0
H1795 H 0.37544 0.63173 0.45747 0.0
H1796 H 0.37947 0.61277 0.48146 0.0
H1797 H 0.42135 0.70841 0.48815 0.0
H1798 H 0.4 0.72129 0.5076 0.0
H1799 H 0.39212 0.71547 0.47763 0.0
C1800 C 0.12933 0.33782 0.02908 0.0
C1801 C 0.12827 0.35919 0.03866 0.0
C1802 C 0.12619 0.33431 1.00496 0.0
C1803 C 0.12199 0.35259 0.99002 0.0
C1804 C 0.12008 0.37409 0.9997 0.0
C1805 C 0.12319 0.37712 0.02387 0.0
C1806 C 0.12819 0.3111 0.99537 0.0
C1807 C 0.1157 0.39405 0.98441 0.0
C1808 C 0.14292 0.34683 0.92709 0.0
C1809 C 0.12137 0.34269 0.91518 0.0
C1810 C 0.14327 0.35032 0.95133 0.0
C1811 C 0.12153 0.34946 0.96414 0.0
C1812 C 0.09963 0.34551 0.95221 0.0
C1813 C 0.0998 0.34232 0.92782 0.0
C1814 C 0.16697 0.35484 0.96326 0.0
C1815 C 0.07612 0.3443 0.96527 0.0
H1816 H 0.13312 0.32383 0.04034 0.0
H1817 H 0.12224 0.3937 0.03106 0.0
H1818 H 0.11241 0.30721 0.98426 0.0
H1819 H 0.14439 0.30978 0.98414 0.0
H1820 H 0.12951 0.29849 1.00943 0.0
H1821 H 0.11291 0.40939 0.99478 0.0
H1822 H 0.13131 0.39656 0.97265 0.0
H1823 H 0.09973 0.39135 0.97317 0.0
H1824 H 0.15958 0.34751 0.91735 0.0
H1825 H 0.08315 0.33895 0.91871 0.0
H1826 H 0.1707 0.34178 0.97638 0.0
H1827 H 0.16613 0.37085 0.97274 0.0
H1828 H 0.18219 0.35543 0.95071 0.0
H1829 H 0.07679 0.33064 0.9782 0.0
H1830 H 0.06062 0.34151 0.9534 0.0
H1831 H 0.07305 0.35984 0.97516 0.0
C1832 C 0.57292 0.87005 0.79992 0.0
C1833 C 0.58383 0.88724 0.81253 0.0
C1834 C 0.54837 0.86538 0.80243 0.0
C1835 C 0.53419 0.87833 0.8178 0.0
C1836 C 0.54518 0.89542 0.83099 0.0
C1837 C 0.56991 0.89959 0.8283 0.0
C1838 C 0.53752 0.84681 0.78826 0.0
C1839 C 0.53067 0.9097 0.84743 0.0
C1840 C 0.46778 0.8789 0.80232 0.0
C1841 C 0.45844 0.86292 0.8176 0.0
C1842 C 0.49217 0.88483 0.80298 0.0
C1843 C 0.50774 0.87439 0.81916 0.0
C1844 C 0.49826 0.85887 0.83524 0.0
C1845 C 0.47372 0.85339 0.83433 0.0
C1846 C 0.50145 0.90164 0.7857 0.0
C1847 C 0.51424 0.84727 0.85268 0.0
H1848 H 0.58366 0.8602 0.78803 0.0
H1849 H 0.57822 0.91297 0.83795 0.0
H1850 H 0.52821 0.83496 0.79995 0.0
H1851 H 0.5239 0.85356 0.77604 0.0
H1852 H 0.55121 0.83764 0.77794 0.0
H1853 H 0.54208 0.9215 0.85735 0.0
H1854 H 0.51716 0.91924 0.83735 0.0
H1855 H 0.52071 0.89921 0.86002 0.0
H1856 H 0.45612 0.88649 0.78945 0.0
H1857 H 0.46671 0.84102 0.84621 0.0
H1858 H 0.51374 0.89343 0.77311 0.0
H1859 H 0.51191 0.91463 0.79487 0.0
H1860 H 0.48673 0.90969 0.77572 0.0
H1861 H 0.52696 0.83626 0.84328 0.0
H1862 H 0.50383 0.83715 0.8653 0.0
H1863 H 0.5251 0.8595 0.86255 0.0
C1864 C 0.94226 0.1185 0.29407 0.0
C1865 C 0.92628 0.11447 0.31261 0.0
C1866 C 0.96688 0.12181 0.29797 0.0
C1867 C 0.97611 0.12057 0.32098 0.0
C1868 C 0.96041 0.11553 0.33971 0.0
C1869 C 0.93569 0.11273 0.33535 0.0
C1870 C 0.9829 0.12731 0.27747 0.0
C1871 C 0.96963 0.11364 0.36444 0.0
C1872 C 0.04427 0.11534 0.32368 0.0
C1873 C 0.05119 0.13739 0.32735 0.0
C1874 C 0.01985 0.10935 0.32293 0.0
C1875 C 1.00193 0.12588 0.32532 0.0
C1876 C 1.00885 0.14802 0.3298 0.0
C1877 C 0.03333 0.15345 0.33101 0.0
C1878 C 0.01324 0.08546 0.31874 0.0
C1879 C 0.99041 0.16626 0.33206 0.0
H1880 H 0.93559 0.1193 0.27634 0.0
H1881 H 0.92376 0.10969 0.34992 0.0
H1882 H 0.99105 0.14388 0.28006 0.0
H1883 H 0.99781 0.11519 0.27625 0.0
H1884 H 0.97301 0.12734 0.2606 0.0
H1885 H 0.95569 0.10739 0.37665 0.0
H1886 H 0.98537 0.10238 0.36508 0.0
H1887 H 0.97571 0.13009 0.37067 0.0
H1888 H 0.05795 0.10281 0.32101 0.0
H1889 H 0.03845 0.17056 0.33375 0.0
H1890 H 1.00552 0.08362 0.30098 0.0
H1891 H 0.99934 0.08008 0.33141 0.0
H1892 H 0.02902 0.07428 0.32023 0.0
H1893 H 0.98079 0.16827 0.3152 0.0
H1894 H 0.99863 0.18237 0.33686 0.0
H1895 H 0.97683 0.1619 0.34546 0.0
C1896 C 0.08208 0.61866 0.19745 0.0
C1897 C 0.09593 0.63781 0.20074 0.0
C1898 C 0.0568 0.61974 0.19674 0.0
C1899 C 0.04512 0.64045 0.19935 0.0
C1900 C 0.05907 0.65989 0.2018 0.0
C1901 C 0.0842 0.65832 0.20242 0.0
C1902 C 0.0426 0.59865 0.19399 0.0
C1903 C 0.04743 0.68234 0.20449 0.0
C1904 C 0.97954 0.65049 0.18338 0.0
C1905 C 0.96856 0.65064 0.20549 0.0
C1906 C 1.00427 0.64617 0.18093 0.0
C1907 C 0.01838 0.64192 0.20105 0.0
C1908 C 1.00717 0.64105 0.22325 0.0
C1909 C 0.98247 0.6454 0.22519 0.0
C1910 C 0.01547 0.64711 0.15693 0.0
C1911 C 0.02149 0.63655 0.24517 0.0
H1912 H 0.09095 0.60275 0.19622 0.0
H1913 H 0.09473 0.67326 0.20442 0.0
H1914 H 0.03256 0.59523 0.21035 0.0
H1915 H 0.02917 0.60044 0.17979 0.0
H1916 H 0.05428 0.58421 0.19006 0.0
H1917 H 0.06081 0.69595 0.2051 0.0
H1918 H 0.03492 0.68547 0.18977 0.0
H1919 H 0.03672 0.68279 0.22084 0.0
H1920 H 0.96897 0.65444 0.16803 0.0
H1921 H 0.9742 0.64531 0.24234 0.0
H1922 H 0.02681 0.63228 0.15383 0.0
H1923 H 0.02733 0.6618 0.15572 0.0
H1924 H 1.00177 0.64817 0.14286 0.0
H1925 H 0.03235 0.62128 0.24306 0.0
H1926 H 0.00985 0.63469 0.26082 0.0
H1927 H 0.03416 0.6504 0.24833 0.0
C1928 C 0.45677 0.39848 0.72092 0.0
C1929 C 0.43903 0.39614 0.70369 0.0
C1930 C 0.48082 0.39296 0.71644 0.0
C1931 C 0.48741 0.38476 0.69415 0.0
C1932 C 0.46976 0.38309 0.67637 0.0
C1933 C 0.44577 0.38889 0.68132 0.0
C1934 C 0.49904 0.39529 0.73585 0.0
C1935 C 0.47603 0.37437 0.65241 0.0
C1936 C 0.55447 0.3843 0.68067 0.0
C1937 C 0.56095 0.36267 0.68706 0.0
C1938 C 0.53049 0.39156 0.68217 0.0
C1939 C 0.51249 0.37682 0.69011 0.0
C1940 C 0.51881 0.35477 0.69584 0.0
C1941 C 0.54291 0.348 0.69433 0.0
C1942 C 0.52455 0.41522 0.676 0.0
C1943 C 0.50018 0.33846 0.70424 0.0
H1944 H 0.45175 0.40445 0.7381 0.0
H1945 H 0.43212 0.38692 0.66799 0.0
H1946 H 0.50608 0.37873 0.74069 0.0
H1947 H 0.51451 0.40534 0.72985 0.0
H1948 H 0.49131 0.40315 0.75172 0.0
H1949 H 0.46073 0.37566 0.64001 0.0
H1950 H 0.49155 0.38355 0.64511 0.0
H1951 H 0.48143 0.35673 0.65373 0.0
H1952 H 0.56823 0.39576 0.675 0.0
H1953 H 0.54764 0.33121 0.69915 0.0
H1954 H 0.51848 0.42416 0.69189 0.0
H1955 H 0.50957 0.41576 0.66322 0.0
H1956 H 0.54019 0.42413 0.66851 0.0
H1957 H 0.49278 0.34403 0.72127 0.0
H1958 H 0.50768 0.32154 0.70645 0.0
H1959 H 0.48501 0.33767 0.69169 0.0
C1960 C 0.79486 0.59196 0.89337 0.0
C1961 C 0.81396 0.60703 0.89207 0.0
C1962 C 0.79864 0.56914 0.89071 0.0
C1963 C 0.82213 0.56106 0.88653 0.0
C1964 C 0.84153 0.57616 0.88511 0.0
C1965 C 0.83723 0.59896 0.888 0.0
C1966 C 0.77748 0.55363 0.89264 0.0
C1967 C 0.8668 0.56821 0.88051 0.0
C1968 C 0.83227 0.50085 0.90286 0.0
C1969 C 0.82903 0.49 0.88136 0.0
C1970 C 0.83085 0.52398 0.90464 0.0
C1971 C 0.82627 0.53674 0.88439 0.0
C1972 C 0.82398 0.52602 0.86245 0.0
C1973 C 0.82534 0.50279 0.8612 0.0
C1974 C 0.83344 0.5347 0.92837 0.0
C1975 C 0.81922 0.53904 0.84043 0.0
H1976 H 0.7769 0.598 0.89687 0.0
H1977 H 0.85202 0.61051 0.88673 0.0
H1978 H 0.7758 0.54363 0.87645 0.0
H1979 H 0.78034 0.54194 0.90733 0.0
H1980 H 0.7603 0.56258 0.89559 0.0
H1981 H 0.87984 0.58208 0.87944 0.0
H1982 H 0.87258 0.55681 0.89462 0.0
H1983 H 0.86742 0.55876 0.86388 0.0
H1984 H 0.83568 0.49122 0.91845 0.0
H1985 H 0.82269 0.49465 0.84454 0.0
H1986 H 0.81627 0.54279 0.93334 0.0
H1987 H 0.84738 0.54778 0.92781 0.0
H1988 H 0.83831 0.52259 0.94218 0.0
H1989 H 0.80115 0.54675 0.84142 0.0
H1990 H 0.82002 0.5285 0.82452 0.0
H1991 H 0.83247 0.55262 0.83864 0.0
C1992 C 0.3205 0.92445 0.15649 0.0
C1993 C 0.32438 0.91318 0.13532 0.0
C1994 C 0.32045 0.94766 0.15756 0.0
C1995 C 0.32459 0.96008 0.137 0.0
C1996 C 0.32971 0.94887 0.11579 0.0
C1997 C 0.3295 0.92557 0.11518 0.0
C1998 C 0.31494 0.95887 0.18057 0.0
C1999 C 0.3344 0.9615 0.09351 0.0
C2000 C 0.29521 0.01682 0.13419 0.0
C2001 C 0.31431 0.03104 0.13968 0.0
C2002 C 0.29844 0.99382 0.13304 0.0
C2003 C 0.32141 0.98463 0.13738 0.0
C2004 C 0.34085 0.99885 0.14287 0.0
C2005 C 0.33704 0.02189 0.14407 0.0
C2006 C 0.27712 0.9793 0.12746 0.0
C2007 C 0.36564 0.98973 0.14746 0.0
H2008 H 0.31714 0.91511 0.17228 0.0
H2009 H 0.33245 0.9171 0.09874 0.0
H2010 H 0.32894 0.9713 0.18473 0.0
H2011 H 0.29758 0.96781 0.17925 0.0
H2012 H 0.31378 0.94692 0.19526 0.0
H2013 H 0.34053 0.95051 0.0791 0.0
H2014 H 0.31771 0.97 0.08788 0.0
H2015 H 0.34819 0.97443 0.09648 0.0
H2016 H 0.27751 0.02368 0.13118 0.0
H2017 H 0.35192 0.03277 0.1481 0.0
H2018 H 0.27366 0.96784 0.14222 0.0
H2019 H 0.28099 0.96902 0.11182 0.0
H2020 H 0.26055 0.98906 0.12411 0.0
H2021 H 0.36517 0.97844 0.16273 0.0
H2022 H 0.37897 1.00299 0.15092 0.0
H2023 H 0.37178 0.97985 0.13222 0.0
C2024 C 0.20159 1.00678 0.61898 0.0
C2025 C 0.19592 0.9962 0.64015 0.0
C2026 C 0.20212 0.02992 0.61716 0.0
C2027 C 0.19622 0.04306 0.63682 0.0
C2028 C 0.18923 0.03264 0.65791 0.0
C2029 C 0.18937 0.00938 0.65941 0.0
C2030 C 0.20989 0.04029 0.59436 0.0
C2031 C 0.18229 0.04608 0.67913 0.0
C2032 C 0.22532 0.09984 0.63776 0.0
C2033 C 0.20742 0.11335 0.6279 0.0
C2034 C 0.22162 0.07714 0.64138 0.0
C2035 C 0.19922 0.06758 0.63558 0.0
C2036 C 0.18057 0.08123 0.62686 0.0
C2037 C 0.18494 0.10387 0.62293 0.0
C2038 C 0.24211 0.0632 0.65053 0.0
C2039 C 0.15624 0.07177 0.62095 0.0
H2040 H 0.20599 0.99703 0.60371 0.0
H2041 H 0.18492 1.00163 0.67588 0.0
H2042 H 0.196 0.05202 0.58807 0.0
H2043 H 0.22664 0.04989 0.59709 0.0
H2044 H 0.2132 0.02778 0.58048 0.0
H2045 H 0.17453 0.03564 0.6932 0.0
H2046 H 0.19834 0.05464 0.68616 0.0
H2047 H 0.16903 0.05901 0.6743 0.0
H2048 H 0.24252 0.10686 0.64239 0.0
H2049 H 0.17088 0.11393 0.61534 0.0
H2050 H 0.24742 0.05085 0.63712 0.0
H2051 H 0.23638 0.05392 0.66628 0.0
H2052 H 0.25811 0.07328 0.65509 0.0
H2053 H 0.15775 0.06098 0.60532 0.0
H2054 H 0.1428 0.08491 0.61724 0.0
H2055 H 0.14954 0.06138 0.63553 0.0
C2056 C 0.72542 0.41833 0.39193 0.0
C2057 C 0.70525 0.40448 0.39318 0.0
C2058 C 0.72298 0.44134 0.3898 0.0
C2059 C 0.69977 0.45088 0.3888 0.0
C2060 C 0.67928 0.43702 0.3899 0.0
C2061 C 0.68227 0.41399 0.39218 0.0
C2062 C 0.7453 0.4555 0.38897 0.0
C2063 C 0.65424 0.44654 0.38871 0.0
C2064 C 0.69655 0.5112 0.40716 0.0
C2065 C 0.69767 0.52225 0.3856 0.0
C2066 C 0.69641 0.48802 0.40839 0.0
C2067 C 0.69716 0.47542 0.38754 0.0
C2068 C 0.6972 0.4864 0.36566 0.0
C2069 C 0.69751 0.50968 0.36495 0.0
C2070 C 0.69633 0.47701 0.43209 0.0
C2071 C 0.69783 0.47356 0.34303 0.0
H2072 H 0.74322 0.41117 0.39305 0.0
H2073 H 0.66662 0.40339 0.39285 0.0
H2074 H 0.74537 0.46565 0.37283 0.0
H2075 H 0.74544 0.46708 0.40404 0.0
H2076 H 0.76204 0.44548 0.38944 0.0
H2077 H 0.6402 0.43351 0.38912 0.0
H2078 H 0.65126 0.45796 0.40363 0.0
H2079 H 0.65208 0.45636 0.37246 0.0
H2080 H 0.69607 0.5207 0.4232 0.0
H2081 H 0.69846 0.51799 0.34822 0.0
H2082 H 0.71338 0.4678 0.43463 0.0
H2083 H 0.68149 0.46483 0.4332 0.0
H2084 H 0.69434 0.48911 0.44659 0.0
H2085 H 0.71529 0.46482 0.34143 0.0
H2086 H 0.69551 0.48443 0.32754 0.0
H2087 H 0.68353 0.4608 0.34287 0.0
loop_
_geom_bond_atom_site_label_1
_geom_bond_atom_site_label_2
_geom_bond_distance
_geom_bond_site_symmetry_2
_ccdc_geom_bond_type
Cu0 N1 1.999 . S
Cu0 O6 1.974 . S
Cu0 N11 1.985 . S
Cu0 O20 1.959 . S
N1 Cu0 1.999 . S
N1 C3 1.263 . S
N1 C5 1.389 . S
N2 C3 1.358 . S
N2 C4 1.400 . S
C3 N1 1.263 . S
C3 N2 1.358 . S
C3 H9 0.930 . S
C4 N2 1.400 . S
C4 C5 1.351 . S
C4 H21 0.930 . S
C5 N1 1.389 . S
C5 C4 1.351 . S
C5 H10 0.930 . S
O6 Cu0 1.974 . S
O6 C16 1.282 . S
C7 O8 1.261 . S
C7 O20 1.251 . S
O8 C7 1.261 . S
H9 C3 0.930 . S
H10 C5 0.930 . S
N11 Cu0 1.985 . S
N11 C13 1.335 . S
N11 C14 1.390 . S
N12 C13 1.345 . S
N12 C15 1.336 . S
C13 N11 1.335 . S
C13 N12 1.345 . S
C13 H18 0.930 . S
C14 N11 1.390 . S
C14 C15 1.346 . S
C14 H19 0.930 . S
C15 N12 1.336 . S
C15 C14 1.346 . S
C15 H22 0.929 . S
C16 O6 1.282 . S
C16 O17 1.216 . S
O17 C16 1.216 . S
H18 C13 0.930 . S
H19 C14 0.930 . S
O20 Cu0 1.959 . S
O20 C7 1.251 . S
H21 C4 0.930 . S
H22 C15 0.929 . S
Cu23 N24 1.999 . S
Cu23 O29 1.974 . S
Cu23 N34 1.985 . S
Cu23 O43 1.959 . S
N24 Cu23 1.999 . S
N24 C26 1.263 . S
N24 C28 1.389 . S
N25 C26 1.358 . S
N25 C27 1.400 . S
C26 N24 1.263 . S
C26 N25 1.358 . S
C26 H32 0.930 . S
C27 N25 1.400 . S
C27 C28 1.351 . S
C27 H44 0.930 . S
C28 N24 1.389 . S
C28 C27 1.351 . S
C28 H33 0.930 . S
O29 Cu23 1.974 . S
O29 C39 1.282 . S
C30 O31 1.261 . S
C30 O43 1.251 . S
O31 C30 1.261 . S
H32 C26 0.930 . S
H33 C28 0.930 . S
N34 Cu23 1.985 . S
N34 C36 1.335 . S
N34 C37 1.390 . S
N35 C36 1.345 . S
N35 C38 1.336 . S
C36 N34 1.335 . S
C36 N35 1.345 . S
C36 H41 0.930 . S
C37 N34 1.390 . S
C37 C38 1.346 . S
C37 H42 0.930 . S
C38 N35 1.336 . S
C38 C37 1.346 . S
C38 H45 0.929 . S
C39 O29 1.282 . S
C39 O40 1.216 . S
O40 C39 1.216 . S
H41 C36 0.930 . S
H42 C37 0.930 . S
O43 Cu23 1.959 . S
O43 C30 1.251 . S
H44 C27 0.930 . S
H45 C38 0.929 . S
Cu46 N47 1.999 . S
Cu46 O52 1.974 . S
Cu46 N57 1.985 . S
Cu46 O66 1.959 . S
N47 Cu46 1.999 . S
N47 C49 1.263 . S
N47 C51 1.389 . S
N48 C49 1.358 . S
N48 C50 1.400 . S
C49 N47 1.263 . S
C49 N48 1.358 . S
C49 H55 0.930 . S
C50 N48 1.400 . S
C50 C51 1.351 . S
C50 H67 0.930 . S
C51 N47 1.389 . S
C51 C50 1.351 . S
C51 H56 0.930 . S
O52 Cu46 1.974 . S
O52 C62 1.282 . S
C53 O54 1.261 . S
C53 O66 1.251 . S
O54 C53 1.261 . S
H55 C49 0.930 . S
H56 C51 0.930 . S
N57 Cu46 1.985 . S
N57 C59 1.335 . S
N57 C60 1.390 . S
N58 C59 1.345 . S
N58 C61 1.336 . S
C59 N57 1.335 . S
C59 N58 1.345 . S
C59 H64 0.930 . S
C60 N57 1.390 . S
C60 C61 1.346 . S
C60 H65 0.930 . S
C61 N58 1.336 . S
C61 C60 1.346 . S
C61 H68 0.929 . S
C62 O52 1.282 . S
C62 O63 1.216 . S
O63 C62 1.216 . S
H64 C59 0.930 . S
H65 C60 0.930 . S
O66 Cu46 1.959 . S
O66 C53 1.251 . S
H67 C50 0.930 . S
H68 C61 0.929 . S
Cu69 N70 1.999 . S
Cu69 O75 1.974 . S
Cu69 N80 1.985 . S
Cu69 O89 1.959 . S
N70 Cu69 1.999 . S
N70 C72 1.263 . S
N70 C74 1.389 . S
N71 C72 1.358 . S
N71 C73 1.400 . S
C72 N70 1.263 . S
C72 N71 1.358 . S
C72 H78 0.930 . S
C73 N71 1.400 . S
C73 C74 1.351 . S
C73 H90 0.930 . S
C74 N70 1.389 . S
C74 C73 1.351 . S
C74 H79 0.930 . S
O75 Cu69 1.974 . S
O75 C85 1.282 . S
C76 O77 1.261 . S
C76 O89 1.251 . S
O77 C76 1.261 . S
H78 C72 0.930 . S
H79 C74 0.930 . S
N80 Cu69 1.985 . S
N80 C82 1.335 . S
N80 C83 1.390 . S
N81 C82 1.345 . S
N81 C84 1.336 . S
C82 N80 1.335 . S
C82 N81 1.345 . S
C82 H87 0.930 . S
C83 N80 1.390 . S
C83 C84 1.346 . S
C83 H88 0.930 . S
C84 N81 1.336 . S
C84 C83 1.346 . S
C84 H91 0.929 . S
C85 O75 1.282 . S
C85 O86 1.216 . S
O86 C85 1.216 . S
H87 C82 0.930 . S
H88 C83 0.930 . S
O89 Cu69 1.959 . S
O89 C76 1.251 . S
H90 C73 0.930 . S
H91 C84 0.929 . S
Cu92 N93 1.999 . S
Cu92 O98 1.974 . S
Cu92 N103 1.985 . S
Cu92 O112 1.959 . S
N93 Cu92 1.999 . S
N93 C95 1.263 . S
N93 C97 1.389 . S
N94 C95 1.358 . S
N94 C96 1.400 . S
C95 N93 1.263 . S
C95 N94 1.358 . S
C95 H101 0.930 . S
C96 N94 1.400 . S
C96 C97 1.351 . S
C96 H113 0.930 . S
C97 N93 1.389 . S
C97 C96 1.351 . S
C97 H102 0.930 . S
O98 Cu92 1.974 . S
O98 C108 1.282 . S
C99 O100 1.261 . S
C99 O112 1.251 . S
O100 C99 1.261 . S
H101 C95 0.930 . S
H102 C97 0.930 . S
N103 Cu92 1.985 . S
N103 C105 1.335 . S
N103 C106 1.390 . S
N104 C105 1.345 . S
N104 C107 1.336 . S
C105 N103 1.335 . S
C105 N104 1.345 . S
C105 H110 0.930 . S
C106 N103 1.390 . S
C106 C107 1.346 . S
C106 H111 0.930 . S
C107 N104 1.336 . S
C107 C106 1.346 . S
C107 H114 0.929 . S
C108 O98 1.282 . S
C108 O109 1.216 . S
O109 C108 1.216 . S
H110 C105 0.930 . S
H111 C106 0.930 . S
O112 Cu92 1.959 . S
O112 C99 1.251 . S
H113 C96 0.930 . S
H114 C107 0.929 . S
Cu115 N116 1.999 . S
Cu115 O121 1.974 . S
Cu115 N126 1.985 . S
Cu115 O135 1.959 . S
N116 Cu115 1.999 . S
N116 C118 1.263 . S
N116 C120 1.389 . S
N117 C118 1.358 . S
N117 C119 1.400 . S
C118 N116 1.263 . S
C118 N117 1.358 . S
C118 H124 0.930 . S
C119 N117 1.400 . S
C119 C120 1.351 . S
C119 H136 0.930 . S
C120 N116 1.389 . S
C120 C119 1.351 . S
C120 H125 0.930 . S
O121 Cu115 1.974 . S
O121 C131 1.282 . S
C122 O123 1.261 . S
C122 O135 1.251 . S
O123 C122 1.261 . S
H124 C118 0.930 . S
H125 C120 0.930 . S
N126 Cu115 1.985 . S
N126 C128 1.335 . S
N126 C129 1.390 . S
N127 C128 1.345 . S
N127 C130 1.336 . S
C128 N126 1.335 . S
C128 N127 1.345 . S
C128 H133 0.930 . S
C129 N126 1.390 . S
C129 C130 1.346 . S
C129 H134 0.930 . S
C130 N127 1.336 . S
C130 C129 1.346 . S
C130 H137 0.929 . S
C131 O121 1.282 . S
C131 O132 1.216 . S
O132 C131 1.216 . S
H133 C128 0.930 . S
H134 C129 0.930 . S
O135 Cu115 1.959 . S
O135 C122 1.251 . S
H136 C119 0.930 . S
H137 C130 0.929 . S
Cu138 N139 1.999 . S
Cu138 O144 1.974 . S
Cu138 N149 1.985 . S
Cu138 O158 1.959 . S
N139 Cu138 1.999 . S
N139 C141 1.263 . S
N139 C143 1.389 . S
N140 C141 1.358 . S
N140 C142 1.400 . S
C141 N139 1.263 . S
C141 N140 1.358 . S
C141 H147 0.930 . S
C142 N140 1.400 . S
C142 C143 1.351 . S
C142 H159 0.930 . S
C143 N139 1.389 . S
C143 C142 1.351 . S
C143 H148 0.930 . S
O144 Cu138 1.974 . S
O144 C154 1.282 . S
C145 O146 1.261 . S
C145 O158 1.251 . S
O146 C145 1.261 . S
H147 C141 0.930 . S
H148 C143 0.930 . S
N149 Cu138 1.985 . S
N149 C151 1.335 . S
N149 C152 1.390 . S
N150 C151 1.345 . S
N150 C153 1.336 . S
C151 N149 1.335 . S
C151 N150 1.345 . S
C151 H156 0.930 . S
C152 N149 1.390 . S
C152 C153 1.346 . S
C152 H157 0.930 . S
C153 N150 1.336 . S
C153 C152 1.346 . S
C153 H160 0.929 . S
C154 O144 1.282 . S
C154 O155 1.216 . S
O155 C154 1.216 . S
H156 C151 0.930 . S
H157 C152 0.930 . S
O158 Cu138 1.959 . S
O158 C145 1.251 . S
H159 C142 0.930 . S
H160 C153 0.929 . S
Cu161 N162 1.999 . S
Cu161 O167 1.974 . S
Cu161 N172 1.985 . S
Cu161 O181 1.959 . S
N162 Cu161 1.999 . S
N162 C164 1.263 . S
N162 C166 1.389 . S
N163 C164 1.358 . S
N163 C165 1.400 . S
C164 N162 1.263 . S
C164 N163 1.358 . S
C164 H170 0.930 . S
C165 N163 1.400 . S
C165 C166 1.351 . S
C165 H182 0.930 . S
C166 N162 1.389 . S
C166 C165 1.351 . S
C166 H171 0.930 . S
O167 Cu161 1.974 . S
O167 C177 1.282 . S
C168 O169 1.261 . S
C168 O181 1.251 . S
O169 C168 1.261 . S
H170 C164 0.930 . S
H171 C166 0.930 . S
N172 Cu161 1.985 . S
N172 C174 1.335 . S
N172 C175 1.390 . S
N173 C174 1.345 . S
N173 C176 1.336 . S
C174 N172 1.335 . S
C174 N173 1.345 . S
C174 H179 0.930 . S
C175 N172 1.390 . S
C175 C176 1.346 . S
C175 H180 0.930 . S
C176 N173 1.336 . S
C176 C175 1.346 . S
C176 H183 0.929 . S
C177 O167 1.282 . S
C177 O178 1.216 . S
O178 C177 1.216 . S
H179 C174 0.930 . S
H180 C175 0.930 . S
O181 Cu161 1.959 . S
O181 C168 1.251 . S
H182 C165 0.930 . S
H183 C176 0.929 . S
Cu184 N185 1.999 . S
Cu184 O190 1.974 . S
Cu184 N195 1.985 . S
Cu184 O204 1.959 . S
N185 Cu184 1.999 . S
N185 C187 1.263 . S
N185 C189 1.389 . S
N186 C187 1.358 . S
N186 C188 1.400 . S
C187 N185 1.263 . S
C187 N186 1.358 . S
C187 H193 0.930 . S
C188 N186 1.400 . S
C188 C189 1.351 . S
C188 H205 0.930 . S
C189 N185 1.389 . S
C189 C188 1.351 . S
C189 H194 0.930 . S
O190 Cu184 1.974 . S
O190 C200 1.282 . S
C191 O192 1.261 . S
C191 O204 1.251 . S
O192 C191 1.261 . S
H193 C187 0.930 . S
H194 C189 0.930 . S
N195 Cu184 1.985 . S
N195 C197 1.335 . S
N195 C198 1.390 . S
N196 C197 1.345 . S
N196 C199 1.336 . S
C197 N195 1.335 . S
C197 N196 1.345 . S
C197 H202 0.930 . S
C198 N195 1.390 . S
C198 C199 1.346 . S
C198 H203 0.930 . S
C199 N196 1.336 . S
C199 C198 1.346 . S
C199 H206 0.929 . S
C200 O190 1.282 . S
C200 O201 1.216 . S
O201 C200 1.216 . S
H202 C197 0.930 . S
H203 C198 0.930 . S
O204 Cu184 1.959 . S
O204 C191 1.251 . S
H205 C188 0.930 . S
H206 C199 0.929 . S
Cu207 N208 1.999 . S
Cu207 O213 1.974 . S
Cu207 N218 1.985 . S
Cu207 O227 1.959 . S
N208 Cu207 1.999 . S
N208 C210 1.263 . S
N208 C212 1.389 . S
N209 C210 1.358 . S
N209 C211 1.400 . S
C210 N208 1.263 . S
C210 N209 1.358 . S
C210 H216 0.930 . S
C211 N209 1.400 . S
C211 C212 1.351 . S
C211 H228 0.930 . S
C212 N208 1.389 . S
C212 C211 1.351 . S
C212 H217 0.930 . S
O213 Cu207 1.974 . S
O213 C223 1.282 . S
C214 O215 1.261 . S
C214 O227 1.251 . S
O215 C214 1.261 . S
H216 C210 0.930 . S
H217 C212 0.930 . S
N218 Cu207 1.985 . S
N218 C220 1.335 . S
N218 C221 1.390 . S
N219 C220 1.345 . S
N219 C222 1.336 . S
C220 N218 1.335 . S
C220 N219 1.345 . S
C220 H225 0.930 . S
C221 N218 1.390 . S
C221 C222 1.346 . S
C221 H226 0.930 . S
C222 N219 1.336 . S
C222 C221 1.346 . S
C222 H229 0.929 . S
C223 O213 1.282 . S
C223 O224 1.216 . S
O224 C223 1.216 . S
H225 C220 0.930 . S
H226 C221 0.930 . S
O227 Cu207 1.959 . S
O227 C214 1.251 . S
H228 C211 0.930 . S
H229 C222 0.929 . S
Cu230 N231 1.999 . S
Cu230 O236 1.974 . S
Cu230 N241 1.985 . S
Cu230 O250 1.959 . S
N231 Cu230 1.999 . S
N231 C233 1.263 . S
N231 C235 1.389 . S
N232 C233 1.358 . S
N232 C234 1.400 . S
C233 N231 1.263 . S
C233 N232 1.358 . S
C233 H239 0.930 . S
C234 N232 1.400 . S
C234 C235 1.351 . S
C234 H251 0.930 . S
C235 N231 1.389 . S
C235 C234 1.351 . S
C235 H240 0.930 . S
O236 Cu230 1.974 . S
O236 C246 1.282 . S
C237 O238 1.261 . S
C237 O250 1.251 . S
O238 C237 1.261 . S
H239 C233 0.930 . S
H240 C235 0.930 . S
N241 Cu230 1.985 . S
N241 C243 1.335 . S
N241 C244 1.390 . S
N242 C243 1.345 . S
N242 C245 1.336 . S
C243 N241 1.335 . S
C243 N242 1.345 . S
C243 H248 0.930 . S
C244 N241 1.390 . S
C244 C245 1.346 . S
C244 H249 0.930 . S
C245 N242 1.336 . S
C245 C244 1.346 . S
C245 H252 0.929 . S
C246 O236 1.282 . S
C246 O247 1.216 . S
O247 C246 1.216 . S
H248 C243 0.930 . S
H249 C244 0.930 . S
O250 Cu230 1.959 . S
O250 C237 1.251 . S
H251 C234 0.930 . S
H252 C245 0.929 . S
Cu253 N254 1.999 . S
Cu253 O259 1.974 . S
Cu253 N264 1.985 . S
Cu253 O273 1.959 . S
N254 Cu253 1.999 . S
N254 C256 1.263 . S
N254 C258 1.389 . S
N255 C256 1.358 . S
N255 C257 1.400 . S
C256 N254 1.263 . S
C256 N255 1.358 . S
C256 H262 0.930 . S
C257 N255 1.400 . S
C257 C258 1.351 . S
C257 H274 0.930 . S
C258 N254 1.389 . S
C258 C257 1.351 . S
C258 H263 0.930 . S
O259 Cu253 1.974 . S
O259 C269 1.282 . S
C260 O261 1.261 . S
C260 O273 1.251 . S
O261 C260 1.261 . S
H262 C256 0.930 . S
H263 C258 0.930 . S
N264 Cu253 1.985 . S
N264 C266 1.335 . S
N264 C267 1.390 . S
N265 C266 1.345 . S
N265 C268 1.336 . S
C266 N264 1.335 . S
C266 N265 1.345 . S
C266 H271 0.930 . S
C267 N264 1.390 . S
C267 C268 1.346 . S
C267 H272 0.930 . S
C268 N265 1.336 . S
C268 C267 1.346 . S
C268 H275 0.929 . S
C269 O259 1.282 . S
C269 O270 1.216 . S
O270 C269 1.216 . S
H271 C266 0.930 . S
H272 C267 0.930 . S
O273 Cu253 1.959 . S
O273 C260 1.251 . S
H274 C257 0.930 . S
H275 C268 0.929 . S
Cu276 N277 1.999 . S
Cu276 O282 1.974 . S
Cu276 N287 1.985 . S
Cu276 O296 1.959 . S
N277 Cu276 1.999 . S
N277 C279 1.263 . S
N277 C281 1.389 . S
N278 C279 1.358 . S
N278 C280 1.400 . S
C279 N277 1.263 . S
C279 N278 1.358 . S
C279 H285 0.930 . S
C280 N278 1.400 . S
C280 C281 1.351 . S
C280 H297 0.930 . S
C281 N277 1.389 . S
C281 C280 1.351 . S
C281 H286 0.930 . S
O282 Cu276 1.974 . S
O282 C292 1.282 . S
C283 O284 1.261 . S
C283 O296 1.251 . S
O284 C283 1.261 . S
H285 C279 0.930 . S
H286 C281 0.930 . S
N287 Cu276 1.985 . S
N287 C289 1.335 . S
N287 C290 1.390 . S
N288 C289 1.345 . S
N288 C291 1.336 . S
C289 N287 1.335 . S
C289 N288 1.345 . S
C289 H294 0.930 . S
C290 N287 1.390 . S
C290 C291 1.346 . S
C290 H295 0.930 . S
C291 N288 1.336 . S
C291 C290 1.346 . S
C291 H298 0.929 . S
C292 O282 1.282 . S
C292 O293 1.216 . S
O293 C292 1.216 . S
H294 C289 0.930 . S
H295 C290 0.930 . S
O296 Cu276 1.959 . S
O296 C283 1.251 . S
H297 C280 0.930 . S
H298 C291 0.929 . S
Cu299 N300 1.999 . S
Cu299 O305 1.974 . S
Cu299 N310 1.985 . S
Cu299 O319 1.959 . S
N300 Cu299 1.999 . S
N300 C302 1.263 . S
N300 C304 1.389 . S
N301 C302 1.358 . S
N301 C303 1.400 . S
C302 N300 1.263 . S
C302 N301 1.358 . S
C302 H308 0.930 . S
C303 N301 1.400 . S
C303 C304 1.351 . S
C303 H320 0.930 . S
C304 N300 1.389 . S
C304 C303 1.351 . S
C304 H309 0.930 . S
O305 Cu299 1.974 . S
O305 C315 1.282 . S
C306 O307 1.261 . S
C306 O319 1.251 . S
O307 C306 1.261 . S
H308 C302 0.930 . S
H309 C304 0.930 . S
N310 Cu299 1.985 . S
N310 C312 1.335 . S
N310 C313 1.390 . S
N311 C312 1.345 . S
N311 C314 1.336 . S
C312 N310 1.335 . S
C312 N311 1.345 . S
C312 H317 0.930 . S
C313 N310 1.390 . S
C313 C314 1.346 . S
C313 H318 0.930 . S
C314 N311 1.336 . S
C314 C313 1.346 . S
C314 H321 0.929 . S
C315 O305 1.282 . S
C315 O316 1.216 . S
O316 C315 1.216 . S
H317 C312 0.930 . S
H318 C313 0.930 . S
O319 Cu299 1.959 . S
O319 C306 1.251 . S
H320 C303 0.930 . S
H321 C314 0.929 . S
Cu322 N323 1.999 . S
Cu322 O328 1.974 . S
Cu322 N333 1.985 . S
Cu322 O342 1.959 . S
N323 Cu322 1.999 . S
N323 C325 1.263 . S
N323 C327 1.389 . S
N324 C325 1.358 . S
N324 C326 1.400 . S
C325 N323 1.263 . S
C325 N324 1.358 . S
C325 H331 0.930 . S
C326 N324 1.400 . S
C326 C327 1.351 . S
C326 H343 0.930 . S
C327 N323 1.389 . S
C327 C326 1.351 . S
C327 H332 0.930 . S
O328 Cu322 1.974 . S
O328 C338 1.282 . S
C329 O330 1.261 . S
C329 O342 1.251 . S
O330 C329 1.261 . S
H331 C325 0.930 . S
H332 C327 0.930 . S
N333 Cu322 1.985 . S
N333 C335 1.335 . S
N333 C336 1.390 . S
N334 C335 1.345 . S
N334 C337 1.336 . S
C335 N333 1.335 . S
C335 N334 1.345 . S
C335 H340 0.930 . S
C336 N333 1.390 . S
C336 C337 1.346 . S
C336 H341 0.930 . S
C337 N334 1.336 . S
C337 C336 1.346 . S
C337 H344 0.929 . S
C338 O328 1.282 . S
C338 O339 1.216 . S
O339 C338 1.216 . S
H340 C335 0.930 . S
H341 C336 0.930 . S
O342 Cu322 1.959 . S
O342 C329 1.251 . S
H343 C326 0.930 . S
H344 C337 0.929 . S
Cu345 N346 1.999 . S
Cu345 O351 1.974 . S
Cu345 N356 1.985 . S
Cu345 O365 1.959 . S
N346 Cu345 1.999 . S
N346 C348 1.263 . S
N346 C350 1.389 . S
N347 C348 1.358 . S
N347 C349 1.400 . S
C348 N346 1.263 . S
C348 N347 1.358 . S
C348 H354 0.930 . S
C349 N347 1.400 . S
C349 C350 1.351 . S
C349 H366 0.930 . S
C350 N346 1.389 . S
C350 C349 1.351 . S
C350 H355 0.930 . S
O351 Cu345 1.974 . S
O351 C361 1.282 . S
C352 O353 1.261 . S
C352 O365 1.251 . S
O353 C352 1.261 . S
H354 C348 0.930 . S
H355 C350 0.930 . S
N356 Cu345 1.985 . S
N356 C358 1.335 . S
N356 C359 1.390 . S
N357 C358 1.345 . S
N357 C360 1.336 . S
C358 N356 1.335 . S
C358 N357 1.345 . S
C358 H363 0.930 . S
C359 N356 1.390 . S
C359 C360 1.346 . S
C359 H364 0.930 . S
C360 N357 1.336 . S
C360 C359 1.346 . S
C360 H367 0.929 . S
C361 O351 1.282 . S
C361 O362 1.216 . S
O362 C361 1.216 . S
H363 C358 0.930 . S
H364 C359 0.930 . S
O365 Cu345 1.959 . S
O365 C352 1.251 . S
H366 C349 0.930 . S
H367 C360 0.929 . S
Cu368 N369 1.999 . S
Cu368 O374 1.974 . S
Cu368 N379 1.985 . S
Cu368 O388 1.959 . S
N369 Cu368 1.999 . S
N369 C371 1.263 . S
N369 C373 1.389 . S
N370 C371 1.358 . S
N370 C372 1.400 . S
C371 N369 1.263 . S
C371 N370 1.358 . S
C371 H377 0.930 . S
C372 N370 1.400 . S
C372 C373 1.351 . S
C372 H389 0.930 . S
C373 N369 1.389 . S
C373 C372 1.351 . S
C373 H378 0.930 . S
O374 Cu368 1.974 . S
O374 C384 1.282 . S
C375 O376 1.261 . S
C375 O388 1.251 . S
O376 C375 1.261 . S
H377 C371 0.930 . S
H378 C373 0.930 . S
N379 Cu368 1.985 . S
N379 C381 1.335 . S
N379 C382 1.390 . S
N380 C381 1.345 . S
N380 C383 1.336 . S
C381 N379 1.335 . S
C381 N380 1.345 . S
C381 H386 0.930 . S
C382 N379 1.390 . S
C382 C383 1.346 . S
C382 H387 0.930 . S
C383 N380 1.336 . S
C383 C382 1.346 . S
C383 H390 0.929 . S
C384 O374 1.282 . S
C384 O385 1.216 . S
O385 C384 1.216 . S
H386 C381 0.930 . S
H387 C382 0.930 . S
O388 Cu368 1.959 . S
O388 C375 1.251 . S
H389 C372 0.930 . S
H390 C383 0.929 . S
Cu391 N392 1.999 . S
Cu391 O397 1.974 . S
Cu391 N402 1.985 . S
Cu391 O411 1.959 . S
N392 Cu391 1.999 . S
N392 C394 1.263 . S
N392 C396 1.389 . S
N393 C394 1.358 . S
N393 C395 1.400 . S
C394 N392 1.263 . S
C394 N393 1.358 . S
C394 H400 0.930 . S
C395 N393 1.400 . S
C395 C396 1.351 . S
C395 H412 0.930 . S
C396 N392 1.389 . S
C396 C395 1.351 . S
C396 H401 0.930 . S
O397 Cu391 1.974 . S
O397 C407 1.282 . S
C398 O399 1.261 . S
C398 O411 1.251 . S
O399 C398 1.261 . S
H400 C394 0.930 . S
H401 C396 0.930 . S
N402 Cu391 1.985 . S
N402 C404 1.335 . S
N402 C405 1.390 . S
N403 C404 1.345 . S
N403 C406 1.336 . S
C404 N402 1.335 . S
C404 N403 1.345 . S
C404 H409 0.930 . S
C405 N402 1.390 . S
C405 C406 1.346 . S
C405 H410 0.930 . S
C406 N403 1.336 . S
C406 C405 1.346 . S
C406 H413 0.929 . S
C407 O397 1.282 . S
C407 O408 1.216 . S
O408 C407 1.216 . S
H409 C404 0.930 . S
H410 C405 0.930 . S
O411 Cu391 1.959 . S
O411 C398 1.251 . S
H412 C395 0.930 . S
H413 C406 0.929 . S
Cu414 N415 1.999 . S
Cu414 O420 1.974 . S
Cu414 N425 1.985 . S
Cu414 O434 1.959 . S
N415 Cu414 1.999 . S
N415 C417 1.263 . S
N415 C419 1.389 . S
N416 C417 1.358 . S
N416 C418 1.400 . S
C417 N415 1.263 . S
C417 N416 1.358 . S
C417 H423 0.930 . S
C418 N416 1.400 . S
C418 C419 1.351 . S
C418 H435 0.930 . S
C419 N415 1.389 . S
C419 C418 1.351 . S
C419 H424 0.930 . S
O420 Cu414 1.974 . S
O420 C430 1.282 . S
C421 O422 1.261 . S
C421 O434 1.251 . S
O422 C421 1.261 . S
H423 C417 0.930 . S
H424 C419 0.930 . S
N425 Cu414 1.985 . S
N425 C427 1.335 . S
N425 C428 1.390 . S
N426 C427 1.345 . S
N426 C429 1.336 . S
C427 N425 1.335 . S
C427 N426 1.345 . S
C427 H432 0.930 . S
C428 N425 1.390 . S
C428 C429 1.346 . S
C428 H433 0.930 . S
C429 N426 1.336 . S
C429 C428 1.346 . S
C429 H436 0.929 . S
C430 O420 1.282 . S
C430 O431 1.216 . S
O431 C430 1.216 . S
H432 C427 0.930 . S
H433 C428 0.930 . S
O434 Cu414 1.959 . S
O434 C421 1.251 . S
H435 C418 0.930 . S
H436 C429 0.929 . S
Cu437 N438 1.999 . S
Cu437 O443 1.974 . S
Cu437 N448 1.985 . S
Cu437 O457 1.959 . S
N438 Cu437 1.999 . S
N438 C440 1.263 . S
N438 C442 1.389 . S
N439 C440 1.358 . S
N439 C441 1.400 . S
C440 N438 1.263 . S
C440 N439 1.358 . S
C440 H446 0.930 . S
C441 N439 1.400 . S
C441 C442 1.351 . S
C441 H458 0.930 . S
C442 N438 1.389 . S
C442 C441 1.351 . S
C442 H447 0.930 . S
O443 Cu437 1.974 . S
O443 C453 1.282 . S
C444 O445 1.261 . S
C444 O457 1.251 . S
O445 C444 1.261 . S
H446 C440 0.930 . S
H447 C442 0.930 . S
N448 Cu437 1.985 . S
N448 C450 1.335 . S
N448 C451 1.390 . S
N449 C450 1.345 . S
N449 C452 1.336 . S
C450 N448 1.335 . S
C450 N449 1.345 . S
C450 H455 0.930 . S
C451 N448 1.390 . S
C451 C452 1.346 . S
C451 H456 0.930 . S
C452 N449 1.336 . S
C452 C451 1.346 . S
C452 H459 0.929 . S
C453 O443 1.282 . S
C453 O454 1.216 . S
O454 C453 1.216 . S
H455 C450 0.930 . S
H456 C451 0.930 . S
O457 Cu437 1.959 . S
O457 C444 1.251 . S
H458 C441 0.930 . S
H459 C452 0.929 . S
Cu460 N461 1.999 . S
Cu460 O466 1.974 . S
Cu460 N471 1.985 . S
Cu460 O480 1.959 . S
N461 Cu460 1.999 . S
N461 C463 1.263 . S
N461 C465 1.389 . S
N462 C463 1.358 . S
N462 C464 1.400 . S
C463 N461 1.263 . S
C463 N462 1.358 . S
C463 H469 0.930 . S
C464 N462 1.400 . S
C464 C465 1.351 . S
C464 H481 0.930 . S
C465 N461 1.389 . S
C465 C464 1.351 . S
C465 H470 0.930 . S
O466 Cu460 1.974 . S
O466 C476 1.282 . S
C467 O468 1.261 . S
C467 O480 1.251 . S
O468 C467 1.261 . S
H469 C463 0.930 . S
H470 C465 0.930 . S
N471 Cu460 1.985 . S
N471 C473 1.335 . S
N471 C474 1.390 . S
N472 C473 1.345 . S
N472 C475 1.336 . S
C473 N471 1.335 . S
C473 N472 1.345 . S
C473 H478 0.930 . S
C474 N471 1.390 . S
C474 C475 1.346 . S
C474 H479 0.930 . S
C475 N472 1.336 . S
C475 C474 1.346 . S
C475 H482 0.929 . S
C476 O466 1.282 . S
C476 O477 1.216 . S
O477 C476 1.216 . S
H478 C473 0.930 . S
H479 C474 0.930 . S
O480 Cu460 1.959 . S
O480 C467 1.251 . S
H481 C464 0.930 . S
H482 C475 0.929 . S
Cu483 N484 1.999 . S
Cu483 O489 1.974 . S
Cu483 N494 1.985 . S
Cu483 O503 1.959 . S
N484 Cu483 1.999 . S
N484 C486 1.263 . S
N484 C488 1.389 . S
N485 C486 1.358 . S
N485 C487 1.400 . S
C486 N484 1.263 . S
C486 N485 1.358 . S
C486 H492 0.930 . S
C487 N485 1.400 . S
C487 C488 1.351 . S
C487 H504 0.930 . S
C488 N484 1.389 . S
C488 C487 1.351 . S
C488 H493 0.930 . S
O489 Cu483 1.974 . S
O489 C499 1.282 . S
C490 O491 1.261 . S
C490 O503 1.251 . S
O491 C490 1.261 . S
H492 C486 0.930 . S
H493 C488 0.930 . S
N494 Cu483 1.985 . S
N494 C496 1.335 . S
N494 C497 1.390 . S
N495 C496 1.345 . S
N495 C498 1.336 . S
C496 N494 1.335 . S
C496 N495 1.345 . S
C496 H501 0.930 . S
C497 N494 1.390 . S
C497 C498 1.346 . S
C497 H502 0.930 . S
C498 N495 1.336 . S
C498 C497 1.346 . S
C498 H505 0.929 . S
C499 O489 1.282 . S
C499 O500 1.216 . S
O500 C499 1.216 . S
H501 C496 0.930 . S
H502 C497 0.930 . S
O503 Cu483 1.959 . S
O503 C490 1.251 . S
H504 C487 0.930 . S
H505 C498 0.929 . S
Cu506 N507 1.999 . S
Cu506 O512 1.974 . S
Cu506 N517 1.985 . S
Cu506 O526 1.959 . S
N507 Cu506 1.999 . S
N507 C509 1.263 . S
N507 C511 1.389 . S
N508 C509 1.358 . S
N508 C510 1.400 . S
C509 N507 1.263 . S
C509 N508 1.358 . S
C509 H515 0.930 . S
C510 N508 1.400 . S
C510 C511 1.351 . S
C510 H527 0.930 . S
C511 N507 1.389 . S
C511 C510 1.351 . S
C511 H516 0.930 . S
O512 Cu506 1.974 . S
O512 C522 1.282 . S
C513 O514 1.261 . S
C513 O526 1.251 . S
O514 C513 1.261 . S
H515 C509 0.930 . S
H516 C511 0.930 . S
N517 Cu506 1.985 . S
N517 C519 1.335 . S
N517 C520 1.390 . S
N518 C519 1.345 . S
N518 C521 1.336 . S
C519 N517 1.335 . S
C519 N518 1.345 . S
C519 H524 0.930 . S
C520 N517 1.390 . S
C520 C521 1.346 . S
C520 H525 0.930 . S
C521 N518 1.336 . S
C521 C520 1.346 . S
C521 H528 0.929 . S
C522 O512 1.282 . S
C522 O523 1.216 . S
O523 C522 1.216 . S
H524 C519 0.930 . S
H525 C520 0.930 . S
O526 Cu506 1.959 . S
O526 C513 1.251 . S
H527 C510 0.930 . S
H528 C521 0.929 . S
Cu529 N530 1.999 . S
Cu529 O535 1.974 . S
Cu529 N540 1.985 . S
Cu529 O549 1.959 . S
N530 Cu529 1.999 . S
N530 C532 1.263 . S
N530 C534 1.389 . S
N531 C532 1.358 . S
N531 C533 1.400 . S
C532 N530 1.263 . S
C532 N531 1.358 . S
C532 H538 0.930 . S
C533 N531 1.400 . S
C533 C534 1.351 . S
C533 H550 0.930 . S
C534 N530 1.389 . S
C534 C533 1.351 . S
C534 H539 0.930 . S
O535 Cu529 1.974 . S
O535 C545 1.282 . S
C536 O537 1.261 . S
C536 O549 1.251 . S
O537 C536 1.261 . S
H538 C532 0.930 . S
H539 C534 0.930 . S
N540 Cu529 1.985 . S
N540 C542 1.335 . S
N540 C543 1.390 . S
N541 C542 1.345 . S
N541 C544 1.336 . S
C542 N540 1.335 . S
C542 N541 1.345 . S
C542 H547 0.930 . S
C543 N540 1.390 . S
C543 C544 1.346 . S
C543 H548 0.930 . S
C544 N541 1.336 . S
C544 C543 1.346 . S
C544 H551 0.929 . S
C545 O535 1.282 . S
C545 O546 1.216 . S
O546 C545 1.216 . S
H547 C542 0.930 . S
H548 C543 0.930 . S
O549 Cu529 1.959 . S
O549 C536 1.251 . S
H550 C533 0.930 . S
H551 C544 0.929 . S
C552 C553 1.391 . S
C552 C554 1.394 . S
C552 H568 0.931 . S
C553 C552 1.391 . S
C553 C557 1.376 . S
C554 C552 1.394 . S
C554 C555 1.369 . S
C554 C558 1.531 . S
C555 C554 1.369 . S
C555 C556 1.410 . S
C555 C563 1.503 . S
C556 C555 1.410 . S
C556 C557 1.392 . S
C556 C559 1.511 . S
C557 C553 1.376 . S
C557 C556 1.392 . S
C557 H569 0.929 . S
C558 C554 1.531 . S
C558 H570 0.960 . S
C558 H571 0.962 . S
C558 H572 0.960 . S
C559 C556 1.511 . S
C559 H573 0.961 . S
C559 H574 0.961 . S
C559 H575 0.961 . S
C560 C561 1.370 . S
C560 C562 1.363 . S
C560 H576 0.931 . S
C561 C560 1.370 . S
C561 C565 1.408 . S
C562 C560 1.363 . S
C562 C563 1.370 . S
C562 C566 1.524 . S
C563 C555 1.503 . S
C563 C562 1.370 . S
C563 C564 1.403 . S
C564 C563 1.403 . S
C564 C565 1.404 . S
C564 C567 1.539 . S
C565 C561 1.408 . S
C565 C564 1.404 . S
C565 H577 0.930 . S
C566 C562 1.524 . S
C566 H578 0.956 . S
C566 H579 0.961 . S
C566 H580 0.961 . S
C567 C564 1.539 . S
C567 H581 0.958 . S
C567 H582 0.961 . S
C567 H583 0.960 . S
H568 C552 0.931 . S
H569 C557 0.929 . S
H570 C558 0.960 . S
H571 C558 0.962 . S
H572 C558 0.960 . S
H573 C559 0.961 . S
H574 C559 0.961 . S
H575 C559 0.961 . S
H576 C560 0.931 . S
H577 C565 0.930 . S
H578 C566 0.956 . S
H579 C566 0.961 . S
H580 C566 0.961 . S
H581 C567 0.958 . S
H582 C567 0.961 . S
H583 C567 0.960 . S
C584 C585 1.391 . S
C584 C586 1.394 . S
C584 H600 0.931 . S
C585 C584 1.391 . S
C585 C589 1.376 . S
C586 C584 1.394 . S
C586 C587 1.369 . S
C586 C590 1.531 . S
C587 C586 1.369 . S
C587 C588 1.410 . S
C587 C595 1.503 . S
C588 C587 1.410 . S
C588 C589 1.392 . S
C588 C591 1.511 . S
C589 C585 1.376 . S
C589 C588 1.392 . S
C589 H601 0.929 . S
C590 C586 1.531 . S
C590 H602 0.960 . S
C590 H603 0.962 . S
C590 H604 0.960 . S
C591 C588 1.511 . S
C591 H605 0.961 . S
C591 H606 0.961 . S
C591 H607 0.961 . S
C592 C593 1.370 . S
C592 C594 1.363 . S
C592 H608 0.931 . S
C593 C592 1.370 . S
C593 C597 1.408 . S
C594 C592 1.363 . S
C594 C595 1.370 . S
C594 C598 1.524 . S
C595 C587 1.503 . S
C595 C594 1.370 . S
C595 C596 1.403 . S
C596 C595 1.403 . S
C596 C597 1.404 . S
C596 C599 1.539 . S
C597 C593 1.408 . S
C597 C596 1.404 . S
C597 H609 0.930 . S
C598 C594 1.524 . S
C598 H610 0.956 . S
C598 H611 0.961 . S
C598 H612 0.961 . S
C599 C596 1.539 . S
C599 H613 0.958 . S
C599 H614 0.961 . S
C599 H615 0.960 . S
H600 C584 0.931 . S
H601 C589 0.929 . S
H602 C590 0.960 . S
H603 C590 0.962 . S
H604 C590 0.960 . S
H605 C591 0.961 . S
H606 C591 0.961 . S
H607 C591 0.961 . S
H608 C592 0.931 . S
H609 C597 0.930 . S
H610 C598 0.956 . S
H611 C598 0.961 . S
H612 C598 0.961 . S
H613 C599 0.958 . S
H614 C599 0.961 . S
H615 C599 0.960 . S
C616 C617 1.391 . S
C616 C618 1.394 . S
C616 H632 0.931 . S
C617 C616 1.391 . S
C617 C621 1.376 . S
C618 C616 1.394 . S
C618 C619 1.369 . S
C618 C622 1.531 . S
C619 C618 1.369 . S
C619 C620 1.410 . S
C619 C627 1.503 . S
C620 C619 1.410 . S
C620 C621 1.392 . S
C620 C623 1.511 . S
C621 C617 1.376 . S
C621 C620 1.392 . S
C621 H633 0.929 . S
C622 C618 1.531 . S
C622 H634 0.960 . S
C622 H635 0.962 . S
C622 H636 0.960 . S
C623 C620 1.511 . S
C623 H637 0.961 . S
C623 H638 0.961 . S
C623 H639 0.961 . S
C624 C625 1.370 . S
C624 C626 1.363 . S
C624 H640 0.931 . S
C625 C624 1.370 . S
C625 C629 1.408 . S
C626 C624 1.363 . S
C626 C627 1.370 . S
C626 C630 1.524 . S
C627 C619 1.503 . S
C627 C626 1.370 . S
C627 C628 1.403 . S
C628 C627 1.403 . S
C628 C629 1.404 . S
C628 C631 1.539 . S
C629 C625 1.408 . S
C629 C628 1.404 . S
C629 H641 0.930 . S
C630 C626 1.524 . S
C630 H642 0.956 . S
C630 H643 0.961 . S
C630 H644 0.961 . S
C631 C628 1.539 . S
C631 H645 0.958 . S
C631 H646 0.961 . S
C631 H647 0.960 . S
H632 C616 0.931 . S
H633 C621 0.929 . S
H634 C622 0.960 . S
H635 C622 0.962 . S
H636 C622 0.960 . S
H637 C623 0.961 . S
H638 C623 0.961 . S
H639 C623 0.961 . S
H640 C624 0.931 . S
H641 C629 0.930 . S
H642 C630 0.956 . S
H643 C630 0.961 . S
H644 C630 0.961 . S
H645 C631 0.958 . S
H646 C631 0.961 . S
H647 C631 0.960 . S
C648 C649 1.391 . S
C648 C650 1.394 . S
C648 H664 0.931 . S
C649 C648 1.391 . S
C649 C653 1.376 . S
C650 C648 1.394 . S
C650 C651 1.369 . S
C650 C654 1.531 . S
C651 C650 1.369 . S
C651 C652 1.410 . S
C651 C659 1.503 . S
C652 C651 1.410 . S
C652 C653 1.392 . S
C652 C655 1.511 . S
C653 C649 1.376 . S
C653 C652 1.392 . S
C653 H665 0.929 . S
C654 C650 1.531 . S
C654 H666 0.960 . S
C654 H667 0.962 . S
C654 H668 0.960 . S
C655 C652 1.511 . S
C655 H669 0.961 . S
C655 H670 0.961 . S
C655 H671 0.961 . S
C656 C657 1.370 . S
C656 C658 1.363 . S
C656 H672 0.931 . S
C657 C656 1.370 . S
C657 C661 1.408 . S
C658 C656 1.363 . S
C658 C659 1.370 . S
C658 C662 1.524 . S
C659 C651 1.503 . S
C659 C658 1.370 . S
C659 C660 1.403 . S
C660 C659 1.403 . S
C660 C661 1.404 . S
C660 C663 1.539 . S
C661 C657 1.408 . S
C661 C660 1.404 . S
C661 H673 0.930 . S
C662 C658 1.524 . S
C662 H674 0.956 . S
C662 H675 0.961 . S
C662 H676 0.961 . S
C663 C660 1.539 . S
C663 H677 0.958 . S
C663 H678 0.961 . S
C663 H679 0.960 . S
H664 C648 0.931 . S
H665 C653 0.929 . S
H666 C654 0.960 . S
H667 C654 0.962 . S
H668 C654 0.960 . S
H669 C655 0.961 . S
H670 C655 0.961 . S
H671 C655 0.961 . S
H672 C656 0.931 . S
H673 C661 0.930 . S
H674 C662 0.956 . S
H675 C662 0.961 . S
H676 C662 0.961 . S
H677 C663 0.958 . S
H678 C663 0.961 . S
H679 C663 0.960 . S
C680 C681 1.391 . S
C680 C682 1.394 . S
C680 H696 0.931 . S
C681 C680 1.391 . S
C681 C685 1.376 . S
C682 C680 1.394 . S
C682 C683 1.369 . S
C682 C686 1.531 . S
C683 C682 1.369 . S
C683 C684 1.410 . S
C683 C691 1.503 . S
C684 C683 1.410 . S
C684 C685 1.392 . S
C684 C687 1.511 . S
C685 C681 1.376 . S
C685 C684 1.392 . S
C685 H697 0.929 . S
C686 C682 1.531 . S
C686 H698 0.960 . S
C686 H699 0.962 . S
C686 H700 0.960 . S
C687 C684 1.511 . S
C687 H701 0.961 . S
C687 H702 0.961 . S
C687 H703 0.961 . S
C688 C689 1.370 . S
C688 C690 1.363 . S
C688 H704 0.931 . S
C689 C688 1.370 . S
C689 C693 1.408 . S
C690 C688 1.363 . S
C690 C691 1.370 . S
C690 C694 1.524 . S
C691 C683 1.503 . S
C691 C690 1.370 . S
C691 C692 1.403 . S
C692 C691 1.403 . S
C692 C693 1.404 . S
C692 C695 1.539 . S
C693 C689 1.408 . S
C693 C692 1.404 . S
C693 H705 0.930 . S
C694 C690 1.524 . S
C694 H706 0.956 . S
C694 H707 0.961 . S
C694 H708 0.961 . S
C695 C692 1.539 . S
C695 H709 0.958 . S
C695 H710 0.961 . S
C695 H711 0.960 . S
H696 C680 0.931 . S
H697 C685 0.929 . S
H698 C686 0.960 . S
H699 C686 0.962 . S
H700 C686 0.960 . S
H701 C687 0.961 . S
H702 C687 0.961 . S
H703 C687 0.961 . S
H704 C688 0.931 . S
H705 C693 0.930 . S
H706 C694 0.956 . S
H707 C694 0.961 . S
H708 C694 0.961 . S
H709 C695 0.958 . S
H710 C695 0.961 . S
H711 C695 0.960 . S
C712 C713 1.391 . S
C712 C714 1.394 . S
C712 H728 0.931 . S
C713 C712 1.391 . S
C713 C717 1.376 . S
C714 C712 1.394 . S
C714 C715 1.369 . S
C714 C718 1.531 . S
C715 C714 1.369 . S
C715 C716 1.410 . S
C715 C723 1.503 . S
C716 C715 1.410 . S
C716 C717 1.392 . S
C716 C719 1.511 . S
C717 C713 1.376 . S
C717 C716 1.392 . S
C717 H729 0.929 . S
C718 C714 1.531 . S
C718 H730 0.960 . S
C718 H731 0.962 . S
C718 H732 0.960 . S
C719 C716 1.511 . S
C719 H733 0.961 . S
C719 H734 0.961 . S
C719 H735 0.961 . S
C720 C721 1.370 . S
C720 C722 1.363 . S
C720 H736 0.931 . S
C721 C720 1.370 . S
C721 C725 1.408 . S
C722 C720 1.363 . S
C722 C723 1.370 . S
C722 C726 1.524 . S
C723 C715 1.503 . S
C723 C722 1.370 . S
C723 C724 1.403 . S
C724 C723 1.403 . S
C724 C725 1.404 . S
C724 C727 1.539 . S
C725 C721 1.408 . S
C725 C724 1.404 . S
C725 H737 0.930 . S
C726 C722 1.524 . S
C726 H738 0.956 . S
C726 H739 0.961 . S
C726 H740 0.961 . S
C727 C724 1.539 . S
C727 H741 0.958 . S
C727 H742 0.961 . S
C727 H743 0.960 . S
H728 C712 0.931 . S
H729 C717 0.929 . S
H730 C718 0.960 . S
H731 C718 0.962 . S
H732 C718 0.960 . S
H733 C719 0.961 . S
H734 C719 0.961 . S
H735 C719 0.961 . S
H736 C720 0.931 . S
H737 C725 0.930 . S
H738 C726 0.956 . S
H739 C726 0.961 . S
H740 C726 0.961 . S
H741 C727 0.958 . S
H742 C727 0.961 . S
H743 C727 0.960 . S
C744 C745 1.391 . S
C744 C746 1.394 . S
C744 H760 0.931 . S
C745 C744 1.391 . S
C745 C749 1.376 . S
C746 C744 1.394 . S
C746 C747 1.369 . S
C746 C750 1.531 . S
C747 C746 1.369 . S
C747 C748 1.410 . S
C747 C755 1.503 . S
C748 C747 1.410 . S
C748 C749 1.392 . S
C748 C751 1.511 . S
C749 C745 1.376 . S
C749 C748 1.392 . S
C749 H761 0.929 . S
C750 C746 1.531 . S
C750 H762 0.960 . S
C750 H763 0.962 . S
C750 H764 0.960 . S
C751 C748 1.511 . S
C751 H765 0.961 . S
C751 H766 0.961 . S
C751 H767 0.961 . S
C752 C753 1.370 . S
C752 C754 1.363 . S
C752 H768 0.931 . S
C753 C752 1.370 . S
C753 C757 1.408 . S
C754 C752 1.363 . S
C754 C755 1.370 . S
C754 C758 1.524 . S
C755 C747 1.503 . S
C755 C754 1.370 . S
C755 C756 1.403 . S
C756 C755 1.403 . S
C756 C757 1.404 . S
C756 C759 1.539 . S
C757 C753 1.408 . S
C757 C756 1.404 . S
C757 H769 0.930 . S
C758 C754 1.524 . S
C758 H770 0.956 . S
C758 H771 0.961 . S
C758 H772 0.961 . S
C759 C756 1.539 . S
C759 H773 0.958 . S
C759 H774 0.961 . S
C759 H775 0.960 . S
H760 C744 0.931 . S
H761 C749 0.929 . S
H762 C750 0.960 . S
H763 C750 0.962 . S
H764 C750 0.960 . S
H765 C751 0.961 . S
H766 C751 0.961 . S
H767 C751 0.961 . S
H768 C752 0.931 . S
H769 C757 0.930 . S
H770 C758 0.956 . S
H771 C758 0.961 . S
H772 C758 0.961 . S
H773 C759 0.958 . S
H774 C759 0.961 . S
H775 C759 0.960 . S
C776 C777 1.391 . S
C776 C778 1.394 . S
C776 H792 0.931 . S
C777 C776 1.391 . S
C777 C781 1.376 . S
C778 C776 1.394 . S
C778 C779 1.369 . S
C778 C782 1.531 . S
C779 C778 1.369 . S
C779 C780 1.410 . S
C779 C787 1.503 . S
C780 C779 1.410 . S
C780 C781 1.392 . S
C780 C783 1.511 . S
C781 C777 1.376 . S
C781 C780 1.392 . S
C781 H793 0.929 . S
C782 C778 1.531 . S
C782 H794 0.960 . S
C782 H795 0.962 . S
C782 H796 0.960 . S
C783 C780 1.511 . S
C783 H797 0.961 . S
C783 H798 0.961 . S
C783 H799 0.961 . S
C784 C785 1.370 . S
C784 C786 1.363 . S
C784 H800 0.931 . S
C785 C784 1.370 . S
C785 C789 1.408 . S
C786 C784 1.363 . S
C786 C787 1.370 . S
C786 C790 1.524 . S
C787 C779 1.503 . S
C787 C786 1.370 . S
C787 C788 1.403 . S
C788 C787 1.403 . S
C788 C789 1.404 . S
C788 C791 1.539 . S
C789 C785 1.408 . S
C789 C788 1.404 . S
C789 H801 0.930 . S
C790 C786 1.524 . S
C790 H802 0.956 . S
C790 H803 0.961 . S
C790 H804 0.961 . S
C791 C788 1.539 . S
C791 H805 0.958 . S
C791 H806 0.961 . S
C791 H807 0.960 . S
H792 C776 0.931 . S
H793 C781 0.929 . S
H794 C782 0.960 . S
H795 C782 0.962 . S
H796 C782 0.960 . S
H797 C783 0.961 . S
H798 C783 0.961 . S
H799 C783 0.961 . S
H800 C784 0.931 . S
H801 C789 0.930 . S
H802 C790 0.956 . S
H803 C790 0.961 . S
H804 C790 0.961 . S
H805 C791 0.958 . S
H806 C791 0.961 . S
H807 C791 0.960 . S
C808 C809 1.391 . S
C808 C810 1.394 . S
C808 H824 0.931 . S
C809 C808 1.391 . S
C809 C813 1.376 . S
C810 C808 1.394 . S
C810 C811 1.369 . S
C810 C814 1.531 . S
C811 C810 1.369 . S
C811 C812 1.410 . S
C811 C819 1.503 . S
C812 C811 1.410 . S
C812 C813 1.392 . S
C812 C815 1.511 . S
C813 C809 1.376 . S
C813 C812 1.392 . S
C813 H825 0.929 . S
C814 C810 1.531 . S
C814 H826 0.960 . S
C814 H827 0.962 . S
C814 H828 0.960 . S
C815 C812 1.511 . S
C815 H829 0.961 . S
C815 H830 0.961 . S
C815 H831 0.961 . S
C816 C817 1.370 . S
C816 C818 1.363 . S
C816 H832 0.931 . S
C817 C816 1.370 . S
C817 C821 1.408 . S
C818 C816 1.363 . S
C818 C819 1.370 . S
C818 C822 1.524 . S
C819 C811 1.503 . S
C819 C818 1.370 . S
C819 C820 1.403 . S
C820 C819 1.403 . S
C820 C821 1.404 . S
C820 C823 1.539 . S
C821 C817 1.408 . S
C821 C820 1.404 . S
C821 H833 0.930 . S
C822 C818 1.524 . S
C822 H834 0.956 . S
C822 H835 0.961 . S
C822 H836 0.961 . S
C823 C820 1.539 . S
C823 H837 0.958 . S
C823 H838 0.961 . S
C823 H839 0.960 . S
H824 C808 0.931 . S
H825 C813 0.929 . S
H826 C814 0.960 . S
H827 C814 0.962 . S
H828 C814 0.960 . S
H829 C815 0.961 . S
H830 C815 0.961 . S
H831 C815 0.961 . S
H832 C816 0.931 . S
H833 C821 0.930 . S
H834 C822 0.956 . S
H835 C822 0.961 . S
H836 C822 0.961 . S
H837 C823 0.958 . S
H838 C823 0.961 . S
H839 C823 0.960 . S
C840 C841 1.391 . S
C840 C842 1.394 . S
C840 H856 0.931 . S
C841 C840 1.391 . S
C841 C845 1.376 . S
C842 C840 1.394 . S
C842 C843 1.369 . S
C842 C846 1.531 . S
C843 C842 1.369 . S
C843 C844 1.410 . S
C843 C851 1.503 . S
C844 C843 1.410 . S
C844 C845 1.392 . S
C844 C847 1.511 . S
C845 C841 1.376 . S
C845 C844 1.392 . S
C845 H857 0.929 . S
C846 C842 1.531 . S
C846 H858 0.960 . S
C846 H859 0.962 . S
C846 H860 0.960 . S
C847 C844 1.511 . S
C847 H861 0.961 . S
C847 H862 0.961 . S
C847 H863 0.961 . S
C848 C849 1.370 . S
C848 C850 1.363 . S
C848 H864 0.931 . S
C849 C848 1.370 . S
C849 C853 1.408 . S
C850 C848 1.363 . S
C850 C851 1.370 . S
C850 C854 1.524 . S
C851 C843 1.503 . S
C851 C850 1.370 . S
C851 C852 1.403 . S
C852 C851 1.403 . S
C852 C853 1.404 . S
C852 C855 1.539 . S
C853 C849 1.408 . S
C853 C852 1.404 . S
C853 H865 0.930 . S
C854 C850 1.524 . S
C854 H866 0.956 . S
C854 H867 0.961 . S
C854 H868 0.961 . S
C855 C852 1.539 . S
C855 H869 0.958 . S
C855 H870 0.961 . S
C855 H871 0.960 . S
H856 C840 0.931 . S
H857 C845 0.929 . S
H858 C846 0.960 . S
H859 C846 0.962 . S
H860 C846 0.960 . S
H861 C847 0.961 . S
H862 C847 0.961 . S
H863 C847 0.961 . S
H864 C848 0.931 . S
H865 C853 0.930 . S
H866 C854 0.956 . S
H867 C854 0.961 . S
H868 C854 0.961 . S
H869 C855 0.958 . S
H870 C855 0.961 . S
H871 C855 0.960 . S
C872 C873 1.391 . S
C872 C874 1.394 . S
C872 H888 0.931 . S
C873 C872 1.391 . S
C873 C877 1.376 . S
C874 C872 1.394 . S
C874 C875 1.369 . S
C874 C878 1.531 . S
C875 C874 1.369 . S
C875 C876 1.410 . S
C875 C883 1.503 . S
C876 C875 1.410 . S
C876 C877 1.392 . S
C876 C879 1.511 . S
C877 C873 1.376 . S
C877 C876 1.392 . S
C877 H889 0.929 . S
C878 C874 1.531 . S
C878 H890 0.960 . S
C878 H891 0.962 . S
C878 H892 0.960 . S
C879 C876 1.511 . S
C879 H893 0.961 . S
C879 H894 0.961 . S
C879 H895 0.961 . S
C880 C881 1.370 . S
C880 C882 1.363 . S
C880 H896 0.931 . S
C881 C880 1.370 . S
C881 C885 1.408 . S
C882 C880 1.363 . S
C882 C883 1.370 . S
C882 C886 1.524 . S
C883 C875 1.503 . S
C883 C882 1.370 . S
C883 C884 1.403 . S
C884 C883 1.403 . S
C884 C885 1.404 . S
C884 C887 1.539 . S
C885 C881 1.408 . S
C885 C884 1.404 . S
C885 H897 0.930 . S
C886 C882 1.524 . S
C886 H898 0.956 . S
C886 H899 0.961 . S
C886 H900 0.961 . S
C887 C884 1.539 . S
C887 H901 0.958 . S
C887 H902 0.961 . S
C887 H903 0.960 . S
H888 C872 0.931 . S
H889 C877 0.929 . S
H890 C878 0.960 . S
H891 C878 0.962 . S
H892 C878 0.960 . S
H893 C879 0.961 . S
H894 C879 0.961 . S
H895 C879 0.961 . S
H896 C880 0.931 . S
H897 C885 0.930 . S
H898 C886 0.956 . S
H899 C886 0.961 . S
H900 C886 0.961 . S
H901 C887 0.958 . S
H902 C887 0.961 . S
H903 C887 0.960 . S
C904 C905 1.391 . S
C904 C906 1.394 . S
C904 H920 0.931 . S
C905 C904 1.391 . S
C905 C909 1.376 . S
C906 C904 1.394 . S
C906 C907 1.369 . S
C906 C910 1.531 . S
C907 C906 1.369 . S
C907 C908 1.410 . S
C907 C915 1.503 . S
C908 C907 1.410 . S
C908 C909 1.392 . S
C908 C911 1.511 . S
C909 C905 1.376 . S
C909 C908 1.392 . S
C909 H921 0.929 . S
C910 C906 1.531 . S
C910 H922 0.960 . S
C910 H923 0.962 . S
C910 H924 0.960 . S
C911 C908 1.511 . S
C911 H925 0.961 . S
C911 H926 0.961 . S
C911 H927 0.961 . S
C912 C913 1.370 . S
C912 C914 1.363 . S
C912 H928 0.931 . S
C913 C912 1.370 . S
C913 C917 1.408 . S
C914 C912 1.363 . S
C914 C915 1.370 . S
C914 C918 1.524 . S
C915 C907 1.503 . S
C915 C914 1.370 . S
C915 C916 1.403 . S
C916 C915 1.403 . S
C916 C917 1.404 . S
C916 C919 1.539 . S
C917 C913 1.408 . S
C917 C916 1.404 . S
C917 H929 0.930 . S
C918 C914 1.524 . S
C918 H930 0.956 . S
C918 H931 0.961 . S
C918 H932 0.961 . S
C919 C916 1.539 . S
C919 H933 0.958 . S
C919 H934 0.961 . S
C919 H935 0.960 . S
H920 C904 0.931 . S
H921 C909 0.929 . S
H922 C910 0.960 . S
H923 C910 0.962 . S
H924 C910 0.960 . S
H925 C911 0.961 . S
H926 C911 0.961 . S
H927 C911 0.961 . S
H928 C912 0.931 . S
H929 C917 0.930 . S
H930 C918 0.956 . S
H931 C918 0.961 . S
H932 C918 0.961 . S
H933 C919 0.958 . S
H934 C919 0.961 . S
H935 C919 0.960 . S
C936 C937 1.391 . S
C936 C938 1.394 . S
C936 H952 0.931 . S
C937 C936 1.391 . S
C937 C941 1.376 . S
C938 C936 1.394 . S
C938 C939 1.369 . S
C938 C942 1.531 . S
C939 C938 1.369 . S
C939 C940 1.410 . S
C939 C947 1.503 . S
C940 C939 1.410 . S
C940 C941 1.392 . S
C940 C943 1.511 . S
C941 C937 1.376 . S
C941 C940 1.392 . S
C941 H953 0.929 . S
C942 C938 1.531 . S
C942 H954 0.960 . S
C942 H955 0.962 . S
C942 H956 0.960 . S
C943 C940 1.511 . S
C943 H957 0.961 . S
C943 H958 0.961 . S
C943 H959 0.961 . S
C944 C945 1.370 . S
C944 C946 1.363 . S
C944 H960 0.931 . S
C945 C944 1.370 . S
C945 C949 1.408 . S
C946 C944 1.363 . S
C946 C947 1.370 . S
C946 C950 1.524 . S
C947 C939 1.503 . S
C947 C946 1.370 . S
C947 C948 1.403 . S
C948 C947 1.403 . S
C948 C949 1.404 . S
C948 C951 1.539 . S
C949 C945 1.408 . S
C949 C948 1.404 . S
C949 H961 0.930 . S
C950 C946 1.524 . S
C950 H962 0.956 . S
C950 H963 0.961 . S
C950 H964 0.961 . S
C951 C948 1.539 . S
C951 H965 0.958 . S
C951 H966 0.961 . S
C951 H967 0.960 . S
H952 C936 0.931 . S
H953 C941 0.929 . S
H954 C942 0.960 . S
H955 C942 0.962 . S
H956 C942 0.960 . S
H957 C943 0.961 . S
H958 C943 0.961 . S
H959 C943 0.961 . S
H960 C944 0.931 . S
H961 C949 0.930 . S
H962 C950 0.956 . S
H963 C950 0.961 . S
H964 C950 0.961 . S
H965 C951 0.958 . S
H966 C951 0.961 . S
H967 C951 0.960 . S
C968 C969 1.391 . S
C968 C970 1.394 . S
C968 H984 0.931 . S
C969 C968 1.391 . S
C969 C973 1.376 . S
C970 C968 1.394 . S
C970 C971 1.369 . S
C970 C974 1.531 . S
C971 C970 1.369 . S
C971 C972 1.410 . S
C971 C979 1.503 . S
C972 C971 1.410 . S
C972 C973 1.392 . S
C972 C975 1.511 . S
C973 C969 1.376 . S
C973 C972 1.392 . S
C973 H985 0.929 . S
C974 C970 1.531 . S
C974 H986 0.960 . S
C974 H987 0.962 . S
C974 H988 0.960 . S
C975 C972 1.511 . S
C975 H989 0.961 . S
C975 H990 0.961 . S
C975 H991 0.961 . S
C976 C977 1.370 . S
C976 C978 1.363 . S
C976 H992 0.931 . S
C977 C976 1.370 . S
C977 C981 1.408 . S
C978 C976 1.363 . S
C978 C979 1.370 . S
C978 C982 1.524 . S
C979 C971 1.503 . S
C979 C978 1.370 . S
C979 C980 1.403 . S
C980 C979 1.403 . S
C980 C981 1.404 . S
C980 C983 1.539 . S
C981 C977 1.408 . S
C981 C980 1.404 . S
C981 H993 0.930 . S
C982 C978 1.524 . S
C982 H994 0.956 . S
C982 H995 0.961 . S
C982 H996 0.961 . S
C983 C980 1.539 . S
C983 H997 0.958 . S
C983 H998 0.961 . S
C983 H999 0.960 . S
H984 C968 0.931 . S
H985 C973 0.929 . S
H986 C974 0.960 . S
H987 C974 0.962 . S
H988 C974 0.960 . S
H989 C975 0.961 . S
H990 C975 0.961 . S
H991 C975 0.961 . S
H992 C976 0.931 . S
H993 C981 0.930 . S
H994 C982 0.956 . S
H995 C982 0.961 . S
H996 C982 0.961 . S
H997 C983 0.958 . S
H998 C983 0.961 . S
H999 C983 0.960 . S
C1000 C1001 1.391 . S
C1000 C1002 1.394 . S
C1000 H1016 0.931 . S
C1001 C1000 1.391 . S
C1001 C1005 1.376 . S
C1002 C1000 1.394 . S
C1002 C1003 1.369 . S
C1002 C1006 1.531 . S
C1003 C1002 1.369 . S
C1003 C1004 1.410 . S
C1003 C1011 1.503 . S
C1004 C1003 1.410 . S
C1004 C1005 1.392 . S
C1004 C1007 1.511 . S
C1005 C1001 1.376 . S
C1005 C1004 1.392 . S
C1005 H1017 0.929 . S
C1006 C1002 1.531 . S
C1006 H1018 0.960 . S
C1006 H1019 0.962 . S
C1006 H1020 0.960 . S
C1007 C1004 1.511 . S
C1007 H1021 0.961 . S
C1007 H1022 0.961 . S
C1007 H1023 0.961 . S
C1008 C1009 1.370 . S
C1008 C1010 1.363 . S
C1008 H1024 0.931 . S
C1009 C1008 1.370 . S
C1009 C1013 1.408 . S
C1010 C1008 1.363 . S
C1010 C1011 1.370 . S
C1010 C1014 1.524 . S
C1011 C1003 1.503 . S
C1011 C1010 1.370 . S
C1011 C1012 1.403 . S
C1012 C1011 1.403 . S
C1012 C1013 1.404 . S
C1012 C1015 1.539 . S
C1013 C1009 1.408 . S
C1013 C1012 1.404 . S
C1013 H1025 0.930 . S
C1014 C1010 1.524 . S
C1014 H1026 0.956 . S
C1014 H1027 0.961 . S
C1014 H1028 0.961 . S
C1015 C1012 1.539 . S
C1015 H1029 0.958 . S
C1015 H1030 0.961 . S
C1015 H1031 0.960 . S
H1016 C1000 0.931 . S
H1017 C1005 0.929 . S
H1018 C1006 0.960 . S
H1019 C1006 0.962 . S
H1020 C1006 0.960 . S
H1021 C1007 0.961 . S
H1022 C1007 0.961 . S
H1023 C1007 0.961 . S
H1024 C1008 0.931 . S
H1025 C1013 0.930 . S
H1026 C1014 0.956 . S
H1027 C1014 0.961 . S
H1028 C1014 0.961 . S
H1029 C1015 0.958 . S
H1030 C1015 0.961 . S
H1031 C1015 0.960 . S
C1032 C1033 1.391 . S
C1032 C1034 1.394 . S
C1032 H1048 0.931 . S
C1033 C1032 1.391 . S
C1033 C1037 1.376 . S
C1034 C1032 1.394 . S
C1034 C1035 1.369 . S
C1034 C1038 1.531 . S
C1035 C1034 1.369 . S
C1035 C1036 1.410 . S
C1035 C1043 1.503 . S
C1036 C1035 1.410 . S
C1036 C1037 1.392 . S
C1036 C1039 1.511 . S
C1037 C1033 1.376 . S
C1037 C1036 1.392 . S
C1037 H1049 0.929 . S
C1038 C1034 1.531 . S
C1038 H1050 0.960 . S
C1038 H1051 0.962 . S
C1038 H1052 0.960 . S
C1039 C1036 1.511 . S
C1039 H1053 0.961 . S
C1039 H1054 0.961 . S
C1039 H1055 0.961 . S
C1040 C1041 1.370 . S
C1040 C1042 1.363 . S
C1040 H1056 0.931 . S
C1041 C1040 1.370 . S
C1041 C1045 1.408 . S
C1042 C1040 1.363 . S
C1042 C1043 1.370 . S
C1042 C1046 1.524 . S
C1043 C1035 1.503 . S
C1043 C1042 1.370 . S
C1043 C1044 1.403 . S
C1044 C1043 1.403 . S
C1044 C1045 1.404 . S
C1044 C1047 1.539 . S
C1045 C1041 1.408 . S
C1045 C1044 1.404 . S
C1045 H1057 0.930 . S
C1046 C1042 1.524 . S
C1046 H1058 0.956 . S
C1046 H1059 0.961 . S
C1046 H1060 0.961 . S
C1047 C1044 1.539 . S
C1047 H1061 0.958 . S
C1047 H1062 0.961 . S
C1047 H1063 0.960 . S
H1048 C1032 0.931 . S
H1049 C1037 0.929 . S
H1050 C1038 0.960 . S
H1051 C1038 0.962 . S
H1052 C1038 0.960 . S
H1053 C1039 0.961 . S
H1054 C1039 0.961 . S
H1055 C1039 0.961 . S
H1056 C1040 0.931 . S
H1057 C1045 0.930 . S
H1058 C1046 0.956 . S
H1059 C1046 0.961 . S
H1060 C1046 0.961 . S
H1061 C1047 0.958 . S
H1062 C1047 0.961 . S
H1063 C1047 0.960 . S
C1064 C1065 1.391 . S
C1064 C1066 1.394 . S
C1064 H1080 0.931 . S
C1065 C1064 1.391 . S
C1065 C1069 1.376 . S
C1066 C1064 1.394 . S
C1066 C1067 1.369 . S
C1066 C1070 1.531 . S
C1067 C1066 1.369 . S
C1067 C1068 1.410 . S
C1067 C1075 1.503 . S
C1068 C1067 1.410 . S
C1068 C1069 1.392 . S
C1068 C1071 1.511 . S
C1069 C1065 1.376 . S
C1069 C1068 1.392 . S
C1069 H1081 0.929 . S
C1070 C1066 1.531 . S
C1070 H1082 0.960 . S
C1070 H1083 0.962 . S
C1070 H1084 0.960 . S
C1071 C1068 1.511 . S
C1071 H1085 0.961 . S
C1071 H1086 0.961 . S
C1071 H1087 0.961 . S
C1072 C1073 1.370 . S
C1072 C1074 1.363 . S
C1072 H1088 0.931 . S
C1073 C1072 1.370 . S
C1073 C1077 1.408 . S
C1074 C1072 1.363 . S
C1074 C1075 1.370 . S
C1074 C1078 1.524 . S
C1075 C1067 1.503 . S
C1075 C1074 1.370 . S
C1075 C1076 1.403 . S
C1076 C1075 1.403 . S
C1076 C1077 1.404 . S
C1076 C1079 1.539 . S
C1077 C1073 1.408 . S
C1077 C1076 1.404 . S
C1077 H1089 0.930 . S
C1078 C1074 1.524 . S
C1078 H1090 0.956 . S
C1078 H1091 0.961 . S
C1078 H1092 0.961 . S
C1079 C1076 1.539 . S
C1079 H1093 0.958 . S
C1079 H1094 0.961 . S
C1079 H1095 0.960 . S
H1080 C1064 0.931 . S
H1081 C1069 0.929 . S
H1082 C1070 0.960 . S
H1083 C1070 0.962 . S
H1084 C1070 0.960 . S
H1085 C1071 0.961 . S
H1086 C1071 0.961 . S
H1087 C1071 0.961 . S
H1088 C1072 0.931 . S
H1089 C1077 0.930 . S
H1090 C1078 0.956 . S
H1091 C1078 0.961 . S
H1092 C1078 0.961 . S
H1093 C1079 0.958 . S
H1094 C1079 0.961 . S
H1095 C1079 0.960 . S
C1096 C1097 1.391 . S
C1096 C1098 1.394 . S
C1096 H1112 0.931 . S
C1097 C1096 1.391 . S
C1097 C1101 1.376 . S
C1098 C1096 1.394 . S
C1098 C1099 1.369 . S
C1098 C1102 1.531 . S
C1099 C1098 1.369 . S
C1099 C1100 1.410 . S
C1099 C1107 1.503 . S
C1100 C1099 1.410 . S
C1100 C1101 1.392 . S
C1100 C1103 1.511 . S
C1101 C1097 1.376 . S
C1101 C1100 1.392 . S
C1101 H1113 0.929 . S
C1102 C1098 1.531 . S
C1102 H1114 0.960 . S
C1102 H1115 0.962 . S
C1102 H1116 0.960 . S
C1103 C1100 1.511 . S
C1103 H1117 0.961 . S
C1103 H1118 0.961 . S
C1103 H1119 0.961 . S
C1104 C1105 1.370 . S
C1104 C1106 1.363 . S
C1104 H1120 0.931 . S
C1105 C1104 1.370 . S
C1105 C1109 1.408 . S
C1106 C1104 1.363 . S
C1106 C1107 1.370 . S
C1106 C1110 1.524 . S
C1107 C1099 1.503 . S
C1107 C1106 1.370 . S
C1107 C1108 1.403 . S
C1108 C1107 1.403 . S
C1108 C1109 1.404 . S
C1108 C1111 1.539 . S
C1109 C1105 1.408 . S
C1109 C1108 1.404 . S
C1109 H1121 0.930 . S
C1110 C1106 1.524 . S
C1110 H1122 0.956 . S
C1110 H1123 0.961 . S
C1110 H1124 0.961 . S
C1111 C1108 1.539 . S
C1111 H1125 0.958 . S
C1111 H1126 0.961 . S
C1111 H1127 0.960 . S
H1112 C1096 0.931 . S
H1113 C1101 0.929 . S
H1114 C1102 0.960 . S
H1115 C1102 0.962 . S
H1116 C1102 0.960 . S
H1117 C1103 0.961 . S
H1118 C1103 0.961 . S
H1119 C1103 0.961 . S
H1120 C1104 0.931 . S
H1121 C1109 0.930 . S
H1122 C1110 0.956 . S
H1123 C1110 0.961 . S
H1124 C1110 0.961 . S
H1125 C1111 0.958 . S
H1126 C1111 0.961 . S
H1127 C1111 0.960 . S
C1128 C1129 1.391 . S
C1128 C1130 1.394 . S
C1128 H1144 0.931 . S
C1129 C1128 1.391 . S
C1129 C1133 1.376 . S
C1130 C1128 1.394 . S
C1130 C1131 1.369 . S
C1130 C1134 1.531 . S
C1131 C1130 1.369 . S
C1131 C1132 1.410 . S
C1131 C1139 1.503 . S
C1132 C1131 1.410 . S
C1132 C1133 1.392 . S
C1132 C1135 1.511 . S
C1133 C1129 1.376 . S
C1133 C1132 1.392 . S
C1133 H1145 0.929 . S
C1134 C1130 1.531 . S
C1134 H1146 0.960 . S
C1134 H1147 0.962 . S
C1134 H1148 0.960 . S
C1135 C1132 1.511 . S
C1135 H1149 0.961 . S
C1135 H1150 0.961 . S
C1135 H1151 0.961 . S
C1136 C1137 1.370 . S
C1136 C1138 1.363 . S
C1136 H1152 0.931 . S
C1137 C1136 1.370 . S
C1137 C1141 1.408 . S
C1138 C1136 1.363 . S
C1138 C1139 1.370 . S
C1138 C1142 1.524 . S
C1139 C1131 1.503 . S
C1139 C1138 1.370 . S
C1139 C1140 1.403 . S
C1140 C1139 1.403 . S
C1140 C1141 1.404 . S
C1140 C1143 1.539 . S
C1141 C1137 1.408 . S
C1141 C1140 1.404 . S
C1141 H1153 0.930 . S
C1142 C1138 1.524 . S
C1142 H1154 0.956 . S
C1142 H1155 0.961 . S
C1142 H1156 0.961 . S
C1143 C1140 1.539 . S
C1143 H1157 0.958 . S
C1143 H1158 0.961 . S
C1143 H1159 0.960 . S
H1144 C1128 0.931 . S
H1145 C1133 0.929 . S
H1146 C1134 0.960 . S
H1147 C1134 0.962 . S
H1148 C1134 0.960 . S
H1149 C1135 0.961 . S
H1150 C1135 0.961 . S
H1151 C1135 0.961 . S
H1152 C1136 0.931 . S
H1153 C1141 0.930 . S
H1154 C1142 0.956 . S
H1155 C1142 0.961 . S
H1156 C1142 0.961 . S
H1157 C1143 0.958 . S
H1158 C1143 0.961 . S
H1159 C1143 0.960 . S
C1160 C1161 1.391 . S
C1160 C1162 1.394 . S
C1160 H1176 0.931 . S
C1161 C1160 1.391 . S
C1161 C1165 1.376 . S
C1162 C1160 1.394 . S
C1162 C1163 1.369 . S
C1162 C1166 1.531 . S
C1163 C1162 1.369 . S
C1163 C1164 1.410 . S
C1163 C1171 1.503 . S
C1164 C1163 1.410 . S
C1164 C1165 1.392 . S
C1164 C1167 1.511 . S
C1165 C1161 1.376 . S
C1165 C1164 1.392 . S
C1165 H1177 0.929 . S
C1166 C1162 1.531 . S
C1166 H1178 0.960 . S
C1166 H1179 0.962 . S
C1166 H1180 0.960 . S
C1167 C1164 1.511 . S
C1167 H1181 0.961 . S
C1167 H1182 0.961 . S
C1167 H1183 0.961 . S
C1168 C1169 1.370 . S
C1168 C1170 1.363 . S
C1168 H1184 0.931 . S
C1169 C1168 1.370 . S
C1169 C1173 1.408 . S
C1170 C1168 1.363 . S
C1170 C1171 1.370 . S
C1170 C1174 1.524 . S
C1171 C1163 1.503 . S
C1171 C1170 1.370 . S
C1171 C1172 1.403 . S
C1172 C1171 1.403 . S
C1172 C1173 1.404 . S
C1172 C1175 1.539 . S
C1173 C1169 1.408 . S
C1173 C1172 1.404 . S
C1173 H1185 0.930 . S
C1174 C1170 1.524 . S
C1174 H1186 0.956 . S
C1174 H1187 0.961 . S
C1174 H1188 0.961 . S
C1175 C1172 1.539 . S
C1175 H1189 0.958 . S
C1175 H1190 0.961 . S
C1175 H1191 0.960 . S
H1176 C1160 0.931 . S
H1177 C1165 0.929 . S
H1178 C1166 0.960 . S
H1179 C1166 0.962 . S
H1180 C1166 0.960 . S
H1181 C1167 0.961 . S
H1182 C1167 0.961 . S
H1183 C1167 0.961 . S
H1184 C1168 0.931 . S
H1185 C1173 0.930 . S
H1186 C1174 0.956 . S
H1187 C1174 0.961 . S
H1188 C1174 0.961 . S
H1189 C1175 0.958 . S
H1190 C1175 0.961 . S
H1191 C1175 0.960 . S
C1192 C1193 1.391 . S
C1192 C1194 1.394 . S
C1192 H1208 0.931 . S
C1193 C1192 1.391 . S
C1193 C1197 1.376 . S
C1194 C1192 1.394 . S
C1194 C1195 1.369 . S
C1194 C1198 1.531 . S
C1195 C1194 1.369 . S
C1195 C1196 1.410 . S
C1195 C1203 1.503 . S
C1196 C1195 1.410 . S
C1196 C1197 1.392 . S
C1196 C1199 1.511 . S
C1197 C1193 1.376 . S
C1197 C1196 1.392 . S
C1197 H1209 0.929 . S
C1198 C1194 1.531 . S
C1198 H1210 0.960 . S
C1198 H1211 0.962 . S
C1198 H1212 0.960 . S
C1199 C1196 1.511 . S
C1199 H1213 0.961 . S
C1199 H1214 0.961 . S
C1199 H1215 0.961 . S
C1200 C1201 1.370 . S
C1200 C1202 1.363 . S
C1200 H1216 0.931 . S
C1201 C1200 1.370 . S
C1201 C1205 1.408 . S
C1202 C1200 1.363 . S
C1202 C1203 1.370 . S
C1202 C1206 1.524 . S
C1203 C1195 1.503 . S
C1203 C1202 1.370 . S
C1203 C1204 1.403 . S
C1204 C1203 1.403 . S
C1204 C1205 1.404 . S
C1204 C1207 1.539 . S
C1205 C1201 1.408 . S
C1205 C1204 1.404 . S
C1205 H1217 0.930 . S
C1206 C1202 1.524 . S
C1206 H1218 0.956 . S
C1206 H1219 0.961 . S
C1206 H1220 0.961 . S
C1207 C1204 1.539 . S
C1207 H1221 0.958 . S
C1207 H1222 0.961 . S
C1207 H1223 0.960 . S
H1208 C1192 0.931 . S
H1209 C1197 0.929 . S
H1210 C1198 0.960 . S
H1211 C1198 0.962 . S
H1212 C1198 0.960 . S
H1213 C1199 0.961 . S
H1214 C1199 0.961 . S
H1215 C1199 0.961 . S
H1216 C1200 0.931 . S
H1217 C1205 0.930 . S
H1218 C1206 0.956 . S
H1219 C1206 0.961 . S
H1220 C1206 0.961 . S
H1221 C1207 0.958 . S
H1222 C1207 0.961 . S
H1223 C1207 0.960 . S
C1224 C1225 1.391 . S
C1224 C1226 1.394 . S
C1224 H1240 0.931 . S
C1225 C1224 1.391 . S
C1225 C1229 1.376 . S
C1226 C1224 1.394 . S
C1226 C1227 1.369 . S
C1226 C1230 1.531 . S
C1227 C1226 1.369 . S
C1227 C1228 1.410 . S
C1227 C1235 1.503 . S
C1228 C1227 1.410 . S
C1228 C1229 1.392 . S
C1228 C1231 1.511 . S
C1229 C1225 1.376 . S
C1229 C1228 1.392 . S
C1229 H1241 0.929 . S
C1230 C1226 1.531 . S
C1230 H1242 0.960 . S
C1230 H1243 0.962 . S
C1230 H1244 0.960 . S
C1231 C1228 1.511 . S
C1231 H1245 0.961 . S
C1231 H1246 0.961 . S
C1231 H1247 0.961 . S
C1232 C1233 1.370 . S
C1232 C1234 1.363 . S
C1232 H1248 0.931 . S
C1233 C1232 1.370 . S
C1233 C1237 1.408 . S
C1234 C1232 1.363 . S
C1234 C1235 1.370 . S
C1234 C1238 1.524 . S
C1235 C1227 1.503 . S
C1235 C1234 1.370 . S
C1235 C1236 1.403 . S
C1236 C1235 1.403 . S
C1236 C1237 1.404 . S
C1236 C1239 1.539 . S
C1237 C1233 1.408 . S
C1237 C1236 1.404 . S
C1237 H1249 0.930 . S
C1238 C1234 1.524 . S
C1238 H1250 0.956 . S
C1238 H1251 0.961 . S
C1238 H1252 0.961 . S
C1239 C1236 1.539 . S
C1239 H1253 0.958 . S
C1239 H1254 0.961 . S
C1239 H1255 0.960 . S
H1240 C1224 0.931 . S
H1241 C1229 0.929 . S
H1242 C1230 0.960 . S
H1243 C1230 0.962 . S
H1244 C1230 0.960 . S
H1245 C1231 0.961 . S
H1246 C1231 0.961 . S
H1247 C1231 0.961 . S
H1248 C1232 0.931 . S
H1249 C1237 0.930 . S
H1250 C1238 0.956 . S
H1251 C1238 0.961 . S
H1252 C1238 0.961 . S
H1253 C1239 0.958 . S
H1254 C1239 0.961 . S
H1255 C1239 0.960 . S
C1256 C1257 1.391 . S
C1256 C1258 1.394 . S
C1256 H1272 0.931 . S
C1257 C1256 1.391 . S
C1257 C1261 1.376 . S
C1258 C1256 1.394 . S
C1258 C1259 1.369 . S
C1258 C1262 1.531 . S
C1259 C1258 1.369 . S
C1259 C1260 1.410 . S
C1259 C1267 1.503 . S
C1260 C1259 1.410 . S
C1260 C1261 1.392 . S
C1260 C1263 1.511 . S
C1261 C1257 1.376 . S
C1261 C1260 1.392 . S
C1261 H1273 0.929 . S
C1262 C1258 1.531 . S
C1262 H1274 0.960 . S
C1262 H1275 0.962 . S
C1262 H1276 0.960 . S
C1263 C1260 1.511 . S
C1263 H1277 0.961 . S
C1263 H1278 0.961 . S
C1263 H1279 0.961 . S
C1264 C1265 1.370 . S
C1264 C1266 1.363 . S
C1264 H1280 0.931 . S
C1265 C1264 1.370 . S
C1265 C1269 1.408 . S
C1266 C1264 1.363 . S
C1266 C1267 1.370 . S
C1266 C1270 1.524 . S
C1267 C1259 1.503 . S
C1267 C1266 1.370 . S
C1267 C1268 1.403 . S
C1268 C1267 1.403 . S
C1268 C1269 1.404 . S
C1268 C1271 1.539 . S
C1269 C1265 1.408 . S
C1269 C1268 1.404 . S
C1269 H1281 0.930 . S
C1270 C1266 1.524 . S
C1270 H1282 0.956 . S
C1270 H1283 0.961 . S
C1270 H1284 0.961 . S
C1271 C1268 1.539 . S
C1271 H1285 0.958 . S
C1271 H1286 0.961 . S
C1271 H1287 0.960 . S
H1272 C1256 0.931 . S
H1273 C1261 0.929 . S
H1274 C1262 0.960 . S
H1275 C1262 0.962 . S
H1276 C1262 0.960 . S
H1277 C1263 0.961 . S
H1278 C1263 0.961 . S
H1279 C1263 0.961 . S
H1280 C1264 0.931 . S
H1281 C1269 0.930 . S
H1282 C1270 0.956 . S
H1283 C1270 0.961 . S
H1284 C1270 0.961 . S
H1285 C1271 0.958 . S
H1286 C1271 0.961 . S
H1287 C1271 0.960 . S
C1288 C1289 1.391 . S
C1288 C1290 1.394 . S
C1288 H1304 0.931 . S
C1289 C1288 1.391 . S
C1289 C1293 1.376 . S
C1290 C1288 1.394 . S
C1290 C1291 1.369 . S
C1290 C1294 1.531 . S
C1291 C1290 1.369 . S
C1291 C1292 1.410 . S
C1291 C1299 1.503 . S
C1292 C1291 1.410 . S
C1292 C1293 1.392 . S
C1292 C1295 1.511 . S
C1293 C1289 1.376 . S
C1293 C1292 1.392 . S
C1293 H1305 0.929 . S
C1294 C1290 1.531 . S
C1294 H1306 0.960 . S
C1294 H1307 0.962 . S
C1294 H1308 0.960 . S
C1295 C1292 1.511 . S
C1295 H1309 0.961 . S
C1295 H1310 0.961 . S
C1295 H1311 0.961 . S
C1296 C1297 1.370 . S
C1296 C1298 1.363 . S
C1296 H1312 0.931 . S
C1297 C1296 1.370 . S
C1297 C1301 1.408 . S
C1298 C1296 1.363 . S
C1298 C1299 1.370 . S
C1298 C1302 1.524 . S
C1299 C1291 1.503 . S
C1299 C1298 1.370 . S
C1299 C1300 1.403 . S
C1300 C1299 1.403 . S
C1300 C1301 1.404 . S
C1300 C1303 1.539 . S
C1301 C1297 1.408 . S
C1301 C1300 1.404 . S
C1301 H1313 0.930 . S
C1302 C1298 1.524 . S
C1302 H1314 0.956 . S
C1302 H1315 0.961 . S
C1302 H1316 0.961 . S
C1303 C1300 1.539 . S
C1303 H1317 0.958 . S
C1303 H1318 0.961 . S
C1303 H1319 0.960 . S
H1304 C1288 0.931 . S
H1305 C1293 0.929 . S
H1306 C1294 0.960 . S
H1307 C1294 0.962 . S
H1308 C1294 0.960 . S
H1309 C1295 0.961 . S
H1310 C1295 0.961 . S
H1311 C1295 0.961 . S
H1312 C1296 0.931 . S
H1313 C1301 0.930 . S
H1314 C1302 0.956 . S
H1315 C1302 0.961 . S
H1316 C1302 0.961 . S
H1317 C1303 0.958 . S
H1318 C1303 0.961 . S
H1319 C1303 0.960 . S
C1320 C1321 1.391 . S
C1320 C1322 1.394 . S
C1320 H1336 0.931 . S
C1321 C1320 1.391 . S
C1321 C1325 1.376 . S
C1322 C1320 1.394 . S
C1322 C1323 1.369 . S
C1322 C1326 1.531 . S
C1323 C1322 1.369 . S
C1323 C1324 1.410 . S
C1323 C1331 1.503 . S
C1324 C1323 1.410 . S
C1324 C1325 1.392 . S
C1324 C1327 1.511 . S
C1325 C1321 1.376 . S
C1325 C1324 1.392 . S
C1325 H1337 0.929 . S
C1326 C1322 1.531 . S
C1326 H1338 0.960 . S
C1326 H1339 0.962 . S
C1326 H1340 0.960 . S
C1327 C1324 1.511 . S
C1327 H1341 0.961 . S
C1327 H1342 0.961 . S
C1327 H1343 0.961 . S
C1328 C1329 1.370 . S
C1328 C1330 1.363 . S
C1328 H1344 0.931 . S
C1329 C1328 1.370 . S
C1329 C1333 1.408 . S
C1330 C1328 1.363 . S
C1330 C1331 1.370 . S
C1330 C1334 1.524 . S
C1331 C1323 1.503 . S
C1331 C1330 1.370 . S
C1331 C1332 1.403 . S
C1332 C1331 1.403 . S
C1332 C1333 1.404 . S
C1332 C1335 1.539 . S
C1333 C1329 1.408 . S
C1333 C1332 1.404 . S
C1333 H1345 0.930 . S
C1334 C1330 1.524 . S
C1334 H1346 0.956 . S
C1334 H1347 0.961 . S
C1334 H1348 0.961 . S
C1335 C1332 1.539 . S
C1335 H1349 0.958 . S
C1335 H1350 0.961 . S
C1335 H1351 0.960 . S
H1336 C1320 0.931 . S
H1337 C1325 0.929 . S
H1338 C1326 0.960 . S
H1339 C1326 0.962 . S
H1340 C1326 0.960 . S
H1341 C1327 0.961 . S
H1342 C1327 0.961 . S
H1343 C1327 0.961 . S
H1344 C1328 0.931 . S
H1345 C1333 0.930 . S
H1346 C1334 0.956 . S
H1347 C1334 0.961 . S
H1348 C1334 0.961 . S
H1349 C1335 0.958 . S
H1350 C1335 0.961 . S
H1351 C1335 0.960 . S
C1352 C1353 1.391 . S
C1352 C1354 1.394 1_554 S
C1352 H1368 0.931 . S
C1353 C1352 1.391 . S
C1353 C1357 1.376 . S
C1354 C1352 1.394 1_556 S
C1354 C1355 1.369 . S
C1354 C1358 1.531 . S
C1355 C1354 1.369 . S
C1355 C1356 1.410 . S
C1355 C1363 1.503 . S
C1356 C1355 1.410 . S
C1356 C1357 1.392 1_556 S
C1356 C1359 1.511 . S
C1357 C1353 1.376 . S
C1357 C1356 1.392 1_554 S
C1357 H1369 0.929 . S
C1358 C1354 1.531 . S
C1358 H1370 0.960 . S
C1358 H1371 0.962 . S
C1358 H1372 0.960 . S
C1359 C1356 1.511 . S
C1359 H1373 0.961 . S
C1359 H1374 0.961 . S
C1359 H1375 0.961 . S
C1360 C1361 1.370 . S
C1360 C1362 1.363 . S
C1360 H1376 0.931 . S
C1361 C1360 1.370 . S
C1361 C1365 1.408 . S
C1362 C1360 1.363 . S
C1362 C1363 1.370 . S
C1362 C1366 1.524 . S
C1363 C1355 1.503 . S
C1363 C1362 1.370 . S
C1363 C1364 1.403 . S
C1364 C1363 1.403 . S
C1364 C1365 1.404 . S
C1364 C1367 1.539 . S
C1365 C1361 1.408 . S
C1365 C1364 1.404 . S
C1365 H1377 0.930 . S
C1366 C1362 1.524 . S
C1366 H1378 0.956 . S
C1366 H1379 0.961 . S
C1366 H1380 0.961 . S
C1367 C1364 1.539 . S
C1367 H1381 0.958 . S
C1367 H1382 0.961 . S
C1367 H1383 0.960 . S
H1368 C1352 0.931 . S
H1369 C1357 0.929 . S
H1370 C1358 0.960 . S
H1371 C1358 0.962 . S
H1372 C1358 0.960 . S
H1373 C1359 0.961 . S
H1374 C1359 0.961 . S
H1375 C1359 0.961 . S
H1376 C1360 0.931 . S
H1377 C1365 0.930 . S
H1378 C1366 0.956 . S
H1379 C1366 0.961 . S
H1380 C1366 0.961 . S
H1381 C1367 0.958 . S
H1382 C1367 0.961 . S
H1383 C1367 0.960 . S
C1384 C1385 1.391 . S
C1384 C1386 1.394 . S
C1384 H1400 0.931 . S
C1385 C1384 1.391 . S
C1385 C1389 1.376 . S
C1386 C1384 1.394 . S
C1386 C1387 1.369 . S
C1386 C1390 1.531 . S
C1387 C1386 1.369 . S
C1387 C1388 1.410 . S
C1387 C1395 1.503 . S
C1388 C1387 1.410 . S
C1388 C1389 1.392 . S
C1388 C1391 1.511 . S
C1389 C1385 1.376 . S
C1389 C1388 1.392 . S
C1389 H1401 0.929 . S
C1390 C1386 1.531 . S
C1390 H1402 0.960 . S
C1390 H1403 0.962 . S
C1390 H1404 0.960 . S
C1391 C1388 1.511 . S
C1391 H1405 0.961 . S
C1391 H1406 0.961 . S
C1391 H1407 0.961 . S
C1392 C1393 1.370 . S
C1392 C1394 1.363 . S
C1392 H1408 0.931 . S
C1393 C1392 1.370 . S
C1393 C1397 1.408 . S
C1394 C1392 1.363 . S
C1394 C1395 1.370 . S
C1394 C1398 1.524 . S
C1395 C1387 1.503 . S
C1395 C1394 1.370 . S
C1395 C1396 1.403 . S
C1396 C1395 1.403 . S
C1396 C1397 1.404 . S
C1396 C1399 1.539 . S
C1397 C1393 1.408 . S
C1397 C1396 1.404 . S
C1397 H1409 0.930 . S
C1398 C1394 1.524 . S
C1398 H1410 0.956 . S
C1398 H1411 0.961 . S
C1398 H1412 0.961 . S
C1399 C1396 1.539 . S
C1399 H1413 0.958 . S
C1399 H1414 0.961 . S
C1399 H1415 0.960 . S
H1400 C1384 0.931 . S
H1401 C1389 0.929 . S
H1402 C1390 0.960 . S
H1403 C1390 0.962 . S
H1404 C1390 0.960 . S
H1405 C1391 0.961 . S
H1406 C1391 0.961 . S
H1407 C1391 0.961 . S
H1408 C1392 0.931 . S
H1409 C1397 0.930 . S
H1410 C1398 0.956 . S
H1411 C1398 0.961 . S
H1412 C1398 0.961 . S
H1413 C1399 0.958 . S
H1414 C1399 0.961 . S
H1415 C1399 0.960 . S
C1416 C1417 1.391 . S
C1416 C1418 1.394 . S
C1416 H1432 0.931 . S
C1417 C1416 1.391 . S
C1417 C1421 1.376 . S
C1418 C1416 1.394 . S
C1418 C1419 1.369 . S
C1418 C1422 1.531 . S
C1419 C1418 1.369 . S
C1419 C1420 1.410 . S
C1419 C1427 1.503 . S
C1420 C1419 1.410 . S
C1420 C1421 1.392 . S
C1420 C1423 1.511 . S
C1421 C1417 1.376 . S
C1421 C1420 1.392 . S
C1421 H1433 0.929 . S
C1422 C1418 1.531 . S
C1422 H1434 0.960 . S
C1422 H1435 0.962 . S
C1422 H1436 0.960 . S
C1423 C1420 1.511 . S
C1423 H1437 0.961 . S
C1423 H1438 0.961 . S
C1423 H1439 0.961 . S
C1424 C1425 1.370 . S
C1424 C1426 1.363 1_556 S
C1424 H1440 0.931 . S
C1425 C1424 1.370 . S
C1425 C1429 1.408 . S
C1426 C1424 1.363 1_554 S
C1426 C1427 1.370 . S
C1426 C1430 1.524 . S
C1427 C1419 1.503 . S
C1427 C1426 1.370 . S
C1427 C1428 1.403 . S
C1428 C1427 1.403 . S
C1428 C1429 1.404 1_554 S
C1428 C1431 1.539 . S
C1429 C1425 1.408 . S
C1429 C1428 1.404 1_556 S
C1429 H1441 0.930 . S
C1430 C1426 1.524 . S
C1430 H1442 0.956 . S
C1430 H1443 0.961 . S
C1430 H1444 0.961 . S
C1431 C1428 1.539 . S
C1431 H1445 0.958 . S
C1431 H1446 0.961 . S
C1431 H1447 0.960 . S
H1432 C1416 0.931 . S
H1433 C1421 0.929 . S
H1434 C1422 0.960 . S
H1435 C1422 0.962 . S
H1436 C1422 0.960 . S
H1437 C1423 0.961 . S
H1438 C1423 0.961 . S
H1439 C1423 0.961 . S
H1440 C1424 0.931 . S
H1441 C1429 0.930 . S
H1442 C1430 0.956 . S
H1443 C1430 0.961 . S
H1444 C1430 0.961 . S
H1445 C1431 0.958 . S
H1446 C1431 0.961 . S
H1447 C1431 0.960 . S
C1448 C1449 1.391 . S
C1448 C1450 1.394 . S
C1448 H1464 0.931 . S
C1449 C1448 1.391 . S
C1449 C1453 1.376 . S
C1450 C1448 1.394 . S
C1450 C1451 1.369 . S
C1450 C1454 1.531 . S
C1451 C1450 1.369 . S
C1451 C1452 1.410 . S
C1451 C1459 1.503 . S
C1452 C1451 1.410 . S
C1452 C1453 1.392 . S
C1452 C1455 1.511 . S
C1453 C1449 1.376 . S
C1453 C1452 1.392 . S
C1453 H1465 0.929 . S
C1454 C1450 1.531 . S
C1454 H1466 0.960 . S
C1454 H1467 0.962 . S
C1454 H1468 0.960 . S
C1455 C1452 1.511 . S
C1455 H1469 0.961 . S
C1455 H1470 0.961 . S
C1455 H1471 0.961 . S
C1456 C1457 1.370 . S
C1456 C1458 1.363 . S
C1456 H1472 0.931 . S
C1457 C1456 1.370 . S
C1457 C1461 1.408 . S
C1458 C1456 1.363 . S
C1458 C1459 1.370 . S
C1458 C1462 1.524 . S
C1459 C1451 1.503 . S
C1459 C1458 1.370 . S
C1459 C1460 1.403 . S
C1460 C1459 1.403 . S
C1460 C1461 1.404 . S
C1460 C1463 1.539 . S
C1461 C1457 1.408 . S
C1461 C1460 1.404 . S
C1461 H1473 0.930 . S
C1462 C1458 1.524 . S
C1462 H1474 0.956 . S
C1462 H1475 0.961 . S
C1462 H1476 0.961 . S
C1463 C1460 1.539 . S
C1463 H1477 0.958 . S
C1463 H1478 0.961 . S
C1463 H1479 0.960 . S
H1464 C1448 0.931 . S
H1465 C1453 0.929 . S
H1466 C1454 0.960 . S
H1467 C1454 0.962 . S
H1468 C1454 0.960 . S
H1469 C1455 0.961 . S
H1470 C1455 0.961 . S
H1471 C1455 0.961 . S
H1472 C1456 0.931 . S
H1473 C1461 0.930 . S
H1474 C1462 0.956 . S
H1475 C1462 0.961 . S
H1476 C1462 0.961 . S
H1477 C1463 0.958 . S
H1478 C1463 0.961 . S
H1479 C1463 0.960 . S
C1480 C1481 1.391 . S
C1480 C1482 1.394 1_655 S
C1480 H1496 0.931 . S
C1481 C1480 1.391 . S
C1481 C1485 1.376 . S
C1482 C1480 1.394 1_455 S
C1482 C1483 1.369 . S
C1482 C1486 1.531 . S
C1483 C1482 1.369 . S
C1483 C1484 1.410 . S
C1483 C1491 1.503 . S
C1484 C1483 1.410 . S
C1484 C1485 1.392 1_455 S
C1484 C1487 1.511 . S
C1485 C1481 1.376 . S
C1485 C1484 1.392 1_655 S
C1485 H1497 0.929 . S
C1486 C1482 1.531 . S
C1486 H1498 0.960 . S
C1486 H1499 0.962 . S
C1486 H1500 0.960 . S
C1487 C1484 1.511 . S
C1487 H1501 0.961 . S
C1487 H1502 0.961 . S
C1487 H1503 0.961 . S
C1488 C1489 1.370 . S
C1488 C1490 1.363 . S
C1488 H1504 0.931 . S
C1489 C1488 1.370 . S
C1489 C1493 1.408 . S
C1490 C1488 1.363 . S
C1490 C1491 1.370 . S
C1490 C1494 1.524 . S
C1491 C1483 1.503 . S
C1491 C1490 1.370 . S
C1491 C1492 1.403 . S
C1492 C1491 1.403 . S
C1492 C1493 1.404 . S
C1492 C1495 1.539 . S
C1493 C1489 1.408 . S
C1493 C1492 1.404 . S
C1493 H1505 0.930 . S
C1494 C1490 1.524 . S
C1494 H1506 0.956 . S
C1494 H1507 0.961 . S
C1494 H1508 0.961 . S
C1495 C1492 1.539 . S
C1495 H1509 0.958 . S
C1495 H1510 0.961 . S
C1495 H1511 0.960 . S
H1496 C1480 0.931 . S
H1497 C1485 0.929 . S
H1498 C1486 0.960 . S
H1499 C1486 0.962 . S
H1500 C1486 0.960 . S
H1501 C1487 0.961 . S
H1502 C1487 0.961 . S
H1503 C1487 0.961 . S
H1504 C1488 0.931 . S
H1505 C1493 0.930 . S
H1506 C1494 0.956 . S
H1507 C1494 0.961 . S
H1508 C1494 0.961 . S
H1509 C1495 0.958 . S
H1510 C1495 0.961 . S
H1511 C1495 0.960 . S
C1512 C1513 1.391 . S
C1512 C1514 1.394 1_455 S
C1512 H1528 0.931 . S
C1513 C1512 1.391 . S
C1513 C1517 1.376 . S
C1514 C1512 1.394 1_655 S
C1514 C1515 1.369 . S
C1514 C1518 1.531 . S
C1515 C1514 1.369 . S
C1515 C1516 1.410 . S
C1515 C1523 1.503 . S
C1516 C1515 1.410 . S
C1516 C1517 1.392 1_655 S
C1516 C1519 1.511 . S
C1517 C1513 1.376 . S
C1517 C1516 1.392 1_455 S
C1517 H1529 0.929 . S
C1518 C1514 1.531 . S
C1518 H1530 0.960 . S
C1518 H1531 0.962 . S
C1518 H1532 0.960 . S
C1519 C1516 1.511 . S
C1519 H1533 0.961 . S
C1519 H1534 0.961 . S
C1519 H1535 0.961 . S
C1520 C1521 1.370 . S
C1520 C1522 1.363 . S
C1520 H1536 0.931 . S
C1521 C1520 1.370 . S
C1521 C1525 1.408 . S
C1522 C1520 1.363 . S
C1522 C1523 1.370 . S
C1522 C1526 1.524 . S
C1523 C1515 1.503 . S
C1523 C1522 1.370 . S
C1523 C1524 1.403 . S
C1524 C1523 1.403 . S
C1524 C1525 1.404 . S
C1524 C1527 1.539 . S
C1525 C1521 1.408 . S
C1525 C1524 1.404 . S
C1525 H1537 0.930 . S
C1526 C1522 1.524 . S
C1526 H1538 0.956 . S
C1526 H1539 0.961 . S
C1526 H1540 0.961 . S
C1527 C1524 1.539 . S
C1527 H1541 0.958 . S
C1527 H1542 0.961 . S
C1527 H1543 0.960 . S
H1528 C1512 0.931 . S
H1529 C1517 0.929 . S
H1530 C1518 0.960 . S
H1531 C1518 0.962 . S
H1532 C1518 0.960 . S
H1533 C1519 0.961 . S
H1534 C1519 0.961 . S
H1535 C1519 0.961 . S
H1536 C1520 0.931 . S
H1537 C1525 0.930 . S
H1538 C1526 0.956 . S
H1539 C1526 0.961 . S
H1540 C1526 0.961 . S
H1541 C1527 0.958 . S
H1542 C1527 0.961 . S
H1543 C1527 0.960 . S
C1544 C1545 1.391 . S
C1544 C1546 1.394 . S
C1544 H1560 0.931 . S
C1545 C1544 1.391 . S
C1545 C1549 1.376 . S
C1546 C1544 1.394 . S
C1546 C1547 1.369 . S
C1546 C1550 1.531 . S
C1547 C1546 1.369 . S
C1547 C1548 1.410 . S
C1547 C1555 1.503 . S
C1548 C1547 1.410 . S
C1548 C1549 1.392 . S
C1548 C1551 1.511 . S
C1549 C1545 1.376 . S
C1549 C1548 1.392 . S
C1549 H1561 0.929 . S
C1550 C1546 1.531 . S
C1550 H1562 0.960 . S
C1550 H1563 0.962 . S
C1550 H1564 0.960 . S
C1551 C1548 1.511 . S
C1551 H1565 0.961 . S
C1551 H1566 0.961 . S
C1551 H1567 0.961 . S
C1552 C1553 1.370 . S
C1552 C1554 1.363 . S
C1552 H1568 0.931 . S
C1553 C1552 1.370 . S
C1553 C1557 1.408 . S
C1554 C1552 1.363 . S
C1554 C1555 1.370 . S
C1554 C1558 1.524 . S
C1555 C1547 1.503 . S
C1555 C1554 1.370 . S
C1555 C1556 1.403 . S
C1556 C1555 1.403 . S
C1556 C1557 1.404 . S
C1556 C1559 1.539 . S
C1557 C1553 1.408 . S
C1557 C1556 1.404 . S
C1557 H1569 0.930 . S
C1558 C1554 1.524 . S
C1558 H1570 0.956 . S
C1558 H1571 0.961 . S
C1558 H1572 0.961 . S
C1559 C1556 1.539 . S
C1559 H1573 0.958 . S
C1559 H1574 0.961 . S
C1559 H1575 0.960 . S
H1560 C1544 0.931 . S
H1561 C1549 0.929 . S
H1562 C1550 0.960 . S
H1563 C1550 0.962 . S
H1564 C1550 0.960 . S
H1565 C1551 0.961 . S
H1566 C1551 0.961 . S
H1567 C1551 0.961 . S
H1568 C1552 0.931 . S
H1569 C1557 0.930 . S
H1570 C1558 0.956 . S
H1571 C1558 0.961 . S
H1572 C1558 0.961 . S
H1573 C1559 0.958 . S
H1574 C1559 0.961 . S
H1575 C1559 0.960 . S
C1576 C1577 1.391 . S
C1576 C1578 1.394 . S
C1576 H1592 0.931 . S
C1577 C1576 1.391 . S
C1577 C1581 1.376 . S
C1578 C1576 1.394 . S
C1578 C1579 1.369 . S
C1578 C1582 1.531 . S
C1579 C1578 1.369 . S
C1579 C1580 1.410 . S
C1579 C1587 1.503 . S
C1580 C1579 1.410 . S
C1580 C1581 1.392 . S
C1580 C1583 1.511 . S
C1581 C1577 1.376 . S
C1581 C1580 1.392 . S
C1581 H1593 0.929 . S
C1582 C1578 1.531 . S
C1582 H1594 0.960 . S
C1582 H1595 0.962 . S
C1582 H1596 0.960 . S
C1583 C1580 1.511 . S
C1583 H1597 0.961 . S
C1583 H1598 0.961 . S
C1583 H1599 0.961 . S
C1584 C1585 1.370 . S
C1584 C1586 1.363 . S
C1584 H1600 0.931 . S
C1585 C1584 1.370 . S
C1585 C1589 1.408 . S
C1586 C1584 1.363 . S
C1586 C1587 1.370 . S
C1586 C1590 1.524 . S
C1587 C1579 1.503 . S
C1587 C1586 1.370 . S
C1587 C1588 1.403 . S
C1588 C1587 1.403 . S
C1588 C1589 1.404 . S
C1588 C1591 1.539 . S
C1589 C1585 1.408 . S
C1589 C1588 1.404 . S
C1589 H1601 0.930 . S
C1590 C1586 1.524 . S
C1590 H1602 0.956 . S
C1590 H1603 0.961 . S
C1590 H1604 0.961 . S
C1591 C1588 1.539 . S
C1591 H1605 0.958 . S
C1591 H1606 0.961 . S
C1591 H1607 0.960 . S
H1592 C1576 0.931 . S
H1593 C1581 0.929 . S
H1594 C1582 0.960 . S
H1595 C1582 0.962 . S
H1596 C1582 0.960 . S
H1597 C1583 0.961 . S
H1598 C1583 0.961 . S
H1599 C1583 0.961 . S
H1600 C1584 0.931 . S
H1601 C1589 0.930 . S
H1602 C1590 0.956 . S
H1603 C1590 0.961 . S
H1604 C1590 0.961 . S
H1605 C1591 0.958 . S
H1606 C1591 0.961 . S
H1607 C1591 0.960 . S
C1608 C1609 1.391 . S
C1608 C1610 1.394 . S
C1608 H1624 0.931 . S
C1609 C1608 1.391 . S
C1609 C1613 1.376 . S
C1610 C1608 1.394 . S
C1610 C1611 1.369 1_565 S
C1610 C1614 1.531 1_565 S
C1611 C1610 1.369 1_545 S
C1611 C1612 1.410 . S
C1611 C1619 1.503 . S
C1612 C1611 1.410 . S
C1612 C1613 1.392 1_545 S
C1612 C1615 1.511 . S
C1613 C1609 1.376 . S
C1613 C1612 1.392 1_565 S
C1613 H1625 0.929 . S
C1614 C1610 1.531 1_545 S
C1614 H1626 0.960 . S
C1614 H1627 0.962 . S
C1614 H1628 0.960 1_545 S
C1615 C1612 1.511 . S
C1615 H1629 0.961 . S
C1615 H1630 0.961 . S
C1615 H1631 0.961 . S
C1616 C1617 1.370 . S
C1616 C1618 1.363 . S
C1616 H1632 0.931 . S
C1617 C1616 1.370 . S
C1617 C1621 1.408 . S
C1618 C1616 1.363 . S
C1618 C1619 1.370 . S
C1618 C1622 1.524 . S
C1619 C1611 1.503 . S
C1619 C1618 1.370 . S
C1619 C1620 1.403 . S
C1620 C1619 1.403 . S
C1620 C1621 1.404 . S
C1620 C1623 1.539 . S
C1621 C1617 1.408 . S
C1621 C1620 1.404 . S
C1621 H1633 0.930 . S
C1622 C1618 1.524 . S
C1622 H1634 0.956 . S
C1622 H1635 0.961 . S
C1622 H1636 0.961 . S
C1623 C1620 1.539 . S
C1623 H1637 0.958 . S
C1623 H1638 0.961 . S
C1623 H1639 0.960 . S
H1624 C1608 0.931 . S
H1625 C1613 0.929 . S
H1626 C1614 0.960 . S
H1627 C1614 0.962 . S
H1628 C1614 0.960 1_565 S
H1629 C1615 0.961 . S
H1630 C1615 0.961 . S
H1631 C1615 0.961 . S
H1632 C1616 0.931 . S
H1633 C1621 0.930 . S
H1634 C1622 0.956 . S
H1635 C1622 0.961 . S
H1636 C1622 0.961 . S
H1637 C1623 0.958 . S
H1638 C1623 0.961 . S
H1639 C1623 0.960 . S
C1640 C1641 1.391 . S
C1640 C1642 1.394 . S
C1640 H1656 0.931 . S
C1641 C1640 1.391 . S
C1641 C1645 1.376 . S
C1642 C1640 1.394 . S
C1642 C1643 1.369 1_545 S
C1642 C1646 1.524 1_545 S
C1643 C1642 1.369 1_565 S
C1643 C1644 1.410 . S
C1643 C1651 1.503 . S
C1644 C1643 1.410 . S
C1644 C1645 1.392 1_565 S
C1644 C1647 1.511 . S
C1645 C1641 1.376 . S
C1645 C1644 1.392 1_545 S
C1645 H1657 0.929 . S
C1646 C1642 1.524 1_565 S
C1646 H1658 0.996 . S
C1646 H1659 0.968 . S
C1646 H1660 0.928 1_565 S
C1647 C1644 1.511 . S
C1647 H1661 0.961 . S
C1647 H1662 0.961 . S
C1647 H1663 0.961 . S
C1648 C1649 1.370 . S
C1648 C1650 1.363 . S
C1648 H1664 0.931 . S
C1649 C1648 1.370 . S
C1649 C1653 1.408 . S
C1650 C1648 1.363 . S
C1650 C1651 1.370 . S
C1650 C1654 1.524 . S
C1651 C1643 1.503 . S
C1651 C1650 1.370 . S
C1651 C1652 1.403 . S
C1652 C1651 1.403 . S
C1652 C1653 1.404 . S
C1652 C1655 1.539 . S
C1653 C1649 1.408 . S
C1653 C1652 1.404 . S
C1653 H1665 0.930 . S
C1654 C1650 1.524 . S
C1654 H1666 0.956 . S
C1654 H1667 0.961 . S
C1654 H1668 0.961 . S
C1655 C1652 1.539 . S
C1655 H1669 0.958 . S
C1655 H1670 0.961 . S
C1655 H1671 0.960 . S
H1656 C1640 0.931 . S
H1657 C1645 0.929 . S
H1658 C1646 0.996 . S
H1659 C1646 0.968 . S
H1660 C1646 0.928 1_545 S
H1661 C1647 0.961 . S
H1662 C1647 0.961 . S
H1663 C1647 0.961 . S
H1664 C1648 0.931 . S
H1665 C1653 0.930 . S
H1666 C1654 0.956 . S
H1667 C1654 0.961 . S
H1668 C1654 0.961 . S
H1669 C1655 0.958 . S
H1670 C1655 0.961 . S
H1671 C1655 0.960 . S
C1672 C1673 1.391 . S
C1672 C1674 1.394 . S
C1672 H1688 0.931 . S
C1673 C1672 1.391 . S
C1673 C1677 1.376 . S
C1674 C1672 1.394 . S
C1674 C1675 1.369 . S
C1674 C1678 1.531 . S
C1675 C1674 1.369 . S
C1675 C1676 1.410 . S
C1675 C1683 1.503 . S
C1676 C1675 1.410 . S
C1676 C1677 1.392 . S
C1676 C1679 1.511 . S
C1677 C1673 1.376 . S
C1677 C1676 1.392 . S
C1677 H1689 0.929 . S
C1678 C1674 1.531 . S
C1678 H1690 0.960 . S
C1678 H1691 0.962 . S
C1678 H1692 0.960 . S
C1679 C1676 1.511 . S
C1679 H1693 0.961 . S
C1679 H1694 0.961 . S
C1679 H1695 0.961 . S
C1680 C1681 1.370 . S
C1680 C1682 1.363 . S
C1680 H1696 0.931 . S
C1681 C1680 1.370 . S
C1681 C1685 1.408 . S
C1682 C1680 1.363 . S
C1682 C1683 1.370 . S
C1682 C1686 1.524 . S
C1683 C1675 1.503 . S
C1683 C1682 1.370 . S
C1683 C1684 1.403 . S
C1684 C1683 1.403 . S
C1684 C1685 1.404 . S
C1684 C1687 1.539 . S
C1685 C1681 1.408 . S
C1685 C1684 1.404 . S
C1685 H1697 0.930 . S
C1686 C1682 1.524 . S
C1686 H1698 0.956 . S
C1686 H1699 0.961 . S
C1686 H1700 0.961 . S
C1687 C1684 1.539 . S
C1687 H1701 0.958 . S
C1687 H1702 0.961 . S
C1687 H1703 0.960 . S
H1688 C1672 0.931 . S
H1689 C1677 0.929 . S
H1690 C1678 0.960 . S
H1691 C1678 0.962 . S
H1692 C1678 0.960 . S
H1693 C1679 0.961 . S
H1694 C1679 0.961 . S
H1695 C1679 0.961 . S
H1696 C1680 0.931 . S
H1697 C1685 0.930 . S
H1698 C1686 0.956 . S
H1699 C1686 0.961 . S
H1700 C1686 0.961 . S
H1701 C1687 0.958 . S
H1702 C1687 0.961 . S
H1703 C1687 0.960 . S
C1704 C1705 1.391 . S
C1704 C1706 1.394 . S
C1704 H1720 0.931 . S
C1705 C1704 1.391 . S
C1705 C1709 1.376 . S
C1706 C1704 1.394 . S
C1706 C1707 1.369 . S
C1706 C1710 1.531 . S
C1707 C1706 1.369 . S
C1707 C1708 1.410 . S
C1707 C1715 1.503 . S
C1708 C1707 1.410 . S
C1708 C1709 1.392 . S
C1708 C1711 1.511 . S
C1709 C1705 1.376 . S
C1709 C1708 1.392 . S
C1709 H1721 0.929 . S
C1710 C1706 1.531 . S
C1710 H1722 0.960 . S
C1710 H1723 0.962 . S
C1710 H1724 0.960 . S
C1711 C1708 1.511 . S
C1711 H1725 0.961 . S
C1711 H1726 0.961 . S
C1711 H1727 0.961 . S
C1712 C1713 1.370 . S
C1712 C1714 1.363 . S
C1712 H1728 0.931 . S
C1713 C1712 1.370 . S
C1713 C1717 1.408 . S
C1714 C1712 1.363 . S
C1714 C1715 1.370 . S
C1714 C1718 1.524 . S
C1715 C1707 1.503 . S
C1715 C1714 1.370 . S
C1715 C1716 1.403 . S
C1716 C1715 1.403 . S
C1716 C1717 1.404 . S
C1716 C1719 1.539 . S
C1717 C1713 1.408 . S
C1717 C1716 1.404 . S
C1717 H1729 0.930 . S
C1718 C1714 1.524 . S
C1718 H1730 0.956 . S
C1718 H1731 0.961 . S
C1718 H1732 0.961 . S
C1719 C1716 1.539 . S
C1719 H1733 0.958 . S
C1719 H1734 0.961 . S
C1719 H1735 0.960 . S
H1720 C1704 0.931 . S
H1721 C1709 0.929 . S
H1722 C1710 0.960 . S
H1723 C1710 0.962 . S
H1724 C1710 0.960 . S
H1725 C1711 0.961 . S
H1726 C1711 0.961 . S
H1727 C1711 0.961 . S
H1728 C1712 0.931 . S
H1729 C1717 0.930 . S
H1730 C1718 0.956 . S
H1731 C1718 0.961 . S
H1732 C1718 0.961 . S
H1733 C1719 0.958 . S
H1734 C1719 0.961 . S
H1735 C1719 0.960 . S
C1736 C1737 1.391 . S
C1736 C1738 1.394 1_556 S
C1736 H1752 0.931 . S
C1737 C1736 1.391 . S
C1737 C1741 1.376 . S
C1738 C1736 1.394 1_554 S
C1738 C1739 1.369 . S
C1738 C1742 1.531 . S
C1739 C1738 1.369 . S
C1739 C1740 1.416 . S
C1739 C1747 1.503 . S
C1740 C1739 1.416 . S
C1740 C1741 1.383 1_554 S
C1740 C1743 1.513 . S
C1741 C1737 1.376 . S
C1741 C1740 1.383 1_556 S
C1741 H1753 0.929 . S
C1742 C1738 1.531 . S
C1742 H1754 0.960 . S
C1742 H1755 0.962 . S
C1742 H1756 0.960 . S
C1743 C1740 1.513 . S
C1743 H1757 0.961 1_554 S
C1743 H1758 0.961 . S
C1743 H1759 0.961 . S
C1744 C1745 1.370 . S
C1744 C1746 1.363 . S
C1744 H1760 0.931 . S
C1745 C1744 1.370 . S
C1745 C1749 1.408 . S
C1746 C1744 1.363 . S
C1746 C1747 1.370 . S
C1746 C1750 1.524 . S
C1747 C1739 1.503 . S
C1747 C1746 1.370 . S
C1747 C1748 1.403 . S
C1748 C1747 1.403 . S
C1748 C1749 1.404 . S
C1748 C1751 1.539 . S
C1749 C1745 1.408 . S
C1749 C1748 1.404 . S
C1749 H1761 0.930 . S
C1750 C1746 1.524 . S
C1750 H1762 0.956 . S
C1750 H1763 0.961 . S
C1750 H1764 0.961 . S
C1751 C1748 1.539 . S
C1751 H1765 0.958 . S
C1751 H1766 0.961 . S
C1751 H1767 0.960 . S
H1752 C1736 0.931 . S
H1753 C1741 0.929 . S
H1754 C1742 0.960 . S
H1755 C1742 0.962 . S
H1756 C1742 0.960 . S
H1757 C1743 0.961 1_556 S
H1758 C1743 0.961 . S
H1759 C1743 0.961 . S
H1760 C1744 0.931 . S
H1761 C1749 0.930 . S
H1762 C1750 0.956 . S
H1763 C1750 0.961 . S
H1764 C1750 0.961 . S
H1765 C1751 0.958 . S
H1766 C1751 0.961 . S
H1767 C1751 0.960 . S
C1768 C1769 1.391 . S
C1768 C1770 1.394 . S
C1768 H1784 0.931 . S
C1769 C1768 1.391 . S
C1769 C1773 1.376 . S
C1770 C1768 1.394 . S
C1770 C1771 1.369 . S
C1770 C1774 1.531 . S
C1771 C1770 1.369 . S
C1771 C1772 1.410 . S
C1771 C1779 1.503 . S
C1772 C1771 1.410 . S
C1772 C1773 1.392 . S
C1772 C1775 1.511 . S
C1773 C1769 1.376 . S
C1773 C1772 1.392 . S
C1773 H1785 0.929 . S
C1774 C1770 1.531 . S
C1774 H1786 0.960 . S
C1774 H1787 0.962 . S
C1774 H1788 0.960 . S
C1775 C1772 1.511 . S
C1775 H1789 0.961 . S
C1775 H1790 0.961 . S
C1775 H1791 0.961 . S
C1776 C1777 1.370 . S
C1776 C1778 1.363 . S
C1776 H1792 0.931 . S
C1777 C1776 1.370 . S
C1777 C1781 1.408 . S
C1778 C1776 1.363 . S
C1778 C1779 1.370 . S
C1778 C1782 1.524 . S
C1779 C1771 1.503 . S
C1779 C1778 1.370 . S
C1779 C1780 1.403 . S
C1780 C1779 1.403 . S
C1780 C1781 1.404 . S
C1780 C1783 1.539 . S
C1781 C1777 1.408 . S
C1781 C1780 1.404 . S
C1781 H1793 0.930 . S
C1782 C1778 1.524 . S
C1782 H1794 0.956 . S
C1782 H1795 0.961 . S
C1782 H1796 0.961 . S
C1783 C1780 1.539 . S
C1783 H1797 0.958 . S
C1783 H1798 0.961 . S
C1783 H1799 0.960 . S
H1784 C1768 0.931 . S
H1785 C1773 0.929 . S
H1786 C1774 0.960 . S
H1787 C1774 0.962 . S
H1788 C1774 0.960 . S
H1789 C1775 0.961 . S
H1790 C1775 0.961 . S
H1791 C1775 0.961 . S
H1792 C1776 0.931 . S
H1793 C1781 0.930 . S
H1794 C1782 0.956 . S
H1795 C1782 0.961 . S
H1796 C1782 0.961 . S
H1797 C1783 0.958 . S
H1798 C1783 0.961 . S
H1799 C1783 0.960 . S
C1800 C1801 1.391 . S
C1800 C1802 1.394 1_554 S
C1800 H1816 0.931 . S
C1801 C1800 1.391 . S
C1801 C1805 1.376 . S
C1802 C1800 1.394 1_556 S
C1802 C1803 1.369 . S
C1802 C1806 1.531 . S
C1803 C1802 1.369 . S
C1803 C1804 1.410 . S
C1803 C1811 1.503 . S
C1804 C1803 1.410 . S
C1804 C1805 1.392 1_556 S
C1804 C1807 1.511 . S
C1805 C1801 1.376 . S
C1805 C1804 1.392 1_554 S
C1805 H1817 0.929 . S
C1806 C1802 1.531 . S
C1806 H1818 0.960 . S
C1806 H1819 0.962 . S
C1806 H1820 0.960 . S
C1807 C1804 1.511 . S
C1807 H1821 0.961 1_556 S
C1807 H1822 0.961 . S
C1807 H1823 0.961 . S
C1808 C1809 1.370 . S
C1808 C1810 1.363 . S
C1808 H1824 0.931 . S
C1809 C1808 1.370 . S
C1809 C1813 1.408 . S
C1810 C1808 1.363 . S
C1810 C1811 1.370 . S
C1810 C1814 1.524 . S
C1811 C1803 1.503 . S
C1811 C1810 1.370 . S
C1811 C1812 1.403 . S
C1812 C1811 1.403 . S
C1812 C1813 1.404 . S
C1812 C1815 1.539 . S
C1813 C1809 1.408 . S
C1813 C1812 1.404 . S
C1813 H1825 0.930 . S
C1814 C1810 1.524 . S
C1814 H1826 0.956 . S
C1814 H1827 0.961 . S
C1814 H1828 0.961 . S
C1815 C1812 1.539 . S
C1815 H1829 0.958 . S
C1815 H1830 0.961 . S
C1815 H1831 0.960 . S
H1816 C1800 0.931 . S
H1817 C1805 0.929 . S
H1818 C1806 0.960 . S
H1819 C1806 0.962 . S
H1820 C1806 0.960 . S
H1821 C1807 0.961 1_554 S
H1822 C1807 0.961 . S
H1823 C1807 0.961 . S
H1824 C1808 0.931 . S
H1825 C1813 0.930 . S
H1826 C1814 0.956 . S
H1827 C1814 0.961 . S
H1828 C1814 0.961 . S
H1829 C1815 0.958 . S
H1830 C1815 0.961 . S
H1831 C1815 0.960 . S
C1832 C1833 1.391 . S
C1832 C1834 1.394 . S
C1832 H1848 0.931 . S
C1833 C1832 1.391 . S
C1833 C1837 1.376 . S
C1834 C1832 1.394 . S
C1834 C1835 1.369 . S
C1834 C1838 1.531 . S
C1835 C1834 1.369 . S
C1835 C1836 1.410 . S
C1835 C1843 1.503 . S
C1836 C1835 1.410 . S
C1836 C1837 1.392 . S
C1836 C1839 1.511 . S
C1837 C1833 1.376 . S
C1837 C1836 1.392 . S
C1837 H1849 0.929 . S
C1838 C1834 1.531 . S
C1838 H1850 0.960 . S
C1838 H1851 0.962 . S
C1838 H1852 0.960 . S
C1839 C1836 1.511 . S
C1839 H1853 0.961 . S
C1839 H1854 0.961 . S
C1839 H1855 0.961 . S
C1840 C1841 1.370 . S
C1840 C1842 1.363 . S
C1840 H1856 0.931 . S
C1841 C1840 1.370 . S
C1841 C1845 1.408 . S
C1842 C1840 1.363 . S
C1842 C1843 1.370 . S
C1842 C1846 1.524 . S
C1843 C1835 1.503 . S
C1843 C1842 1.370 . S
C1843 C1844 1.403 . S
C1844 C1843 1.403 . S
C1844 C1845 1.404 . S
C1844 C1847 1.539 . S
C1845 C1841 1.408 . S
C1845 C1844 1.404 . S
C1845 H1857 0.930 . S
C1846 C1842 1.524 . S
C1846 H1858 0.956 . S
C1846 H1859 0.961 . S
C1846 H1860 0.961 . S
C1847 C1844 1.539 . S
C1847 H1861 0.958 . S
C1847 H1862 0.961 . S
C1847 H1863 0.960 . S
H1848 C1832 0.931 . S
H1849 C1837 0.929 . S
H1850 C1838 0.960 . S
H1851 C1838 0.962 . S
H1852 C1838 0.960 . S
H1853 C1839 0.961 . S
H1854 C1839 0.961 . S
H1855 C1839 0.961 . S
H1856 C1840 0.931 . S
H1857 C1845 0.930 . S
H1858 C1846 0.956 . S
H1859 C1846 0.961 . S
H1860 C1846 0.961 . S
H1861 C1847 0.958 . S
H1862 C1847 0.961 . S
H1863 C1847 0.960 . S
C1864 C1865 1.391 . S
C1864 C1866 1.394 . S
C1864 H1880 0.931 . S
C1865 C1864 1.391 . S
C1865 C1869 1.376 . S
C1866 C1864 1.394 . S
C1866 C1867 1.369 . S
C1866 C1870 1.531 . S
C1867 C1866 1.369 . S
C1867 C1868 1.410 . S
C1867 C1875 1.503 . S
C1868 C1867 1.410 . S
C1868 C1869 1.392 . S
C1868 C1871 1.511 . S
C1869 C1865 1.376 . S
C1869 C1868 1.392 . S
C1869 H1881 0.929 . S
C1870 C1866 1.531 . S
C1870 H1882 0.960 . S
C1870 H1883 0.962 . S
C1870 H1884 0.960 . S
C1871 C1868 1.511 . S
C1871 H1885 0.961 . S
C1871 H1886 0.961 . S
C1871 H1887 0.961 . S
C1872 C1873 1.370 . S
C1872 C1874 1.363 . S
C1872 H1888 0.931 . S
C1873 C1872 1.370 . S
C1873 C1877 1.408 . S
C1874 C1872 1.363 . S
C1874 C1875 1.370 1_455 S
C1874 C1878 1.524 1_455 S
C1875 C1867 1.503 . S
C1875 C1874 1.370 1_655 S
C1875 C1876 1.403 1_655 S
C1876 C1875 1.403 1_455 S
C1876 C1877 1.404 . S
C1876 C1879 1.539 1_455 S
C1877 C1873 1.408 . S
C1877 C1876 1.404 . S
C1877 H1889 0.930 . S
C1878 C1874 1.524 1_655 S
C1878 H1890 0.956 . S
C1878 H1891 0.961 . S
C1878 H1892 0.961 1_655 S
C1879 C1876 1.539 1_655 S
C1879 H1893 0.958 . S
C1879 H1894 0.936 1_655 S
C1879 H1895 0.960 . S
H1880 C1864 0.931 . S
H1881 C1869 0.929 . S
H1882 C1870 0.960 . S
H1883 C1870 0.962 . S
H1884 C1870 0.960 . S
H1885 C1871 0.961 . S
H1886 C1871 0.961 . S
H1887 C1871 0.961 . S
H1888 C1872 0.931 . S
H1889 C1877 0.930 . S
H1890 C1878 0.956 . S
H1891 C1878 0.961 . S
H1892 C1878 0.961 1_455 S
H1893 C1879 0.958 . S
H1894 C1879 0.936 1_455 S
H1895 C1879 0.960 . S
C1896 C1897 1.391 . S
C1896 C1898 1.394 . S
C1896 H1912 0.931 . S
C1897 C1896 1.391 . S
C1897 C1901 1.376 . S
C1898 C1896 1.394 . S
C1898 C1899 1.369 . S
C1898 C1902 1.531 . S
C1899 C1898 1.369 . S
C1899 C1900 1.410 . S
C1899 C1907 1.503 . S
C1900 C1899 1.410 . S
C1900 C1901 1.392 . S
C1900 C1903 1.511 . S
C1901 C1897 1.376 . S
C1901 C1900 1.392 . S
C1901 H1913 0.929 . S
C1902 C1898 1.531 . S
C1902 H1914 0.960 . S
C1902 H1915 0.962 . S
C1902 H1916 0.960 . S
C1903 C1900 1.511 . S
C1903 H1917 0.961 . S
C1903 H1918 0.961 . S
C1903 H1919 0.961 . S
C1904 C1905 1.370 . S
C1904 C1906 1.363 . S
C1904 H1920 0.931 . S
C1905 C1904 1.370 . S
C1905 C1909 1.408 . S
C1906 C1904 1.363 . S
C1906 C1907 1.370 1_655 S
C1906 C1910 1.525 . S
C1907 C1899 1.503 . S
C1907 C1906 1.370 1_455 S
C1907 C1908 1.403 . S
C1908 C1907 1.403 . S
C1908 C1909 1.404 1_455 S
C1908 C1911 1.539 . S
C1909 C1905 1.408 . S
C1909 C1908 1.404 1_655 S
C1909 H1921 0.930 . S
C1910 C1906 1.525 . S
C1910 H1922 0.955 1_655 S
C1910 H1923 0.957 1_655 S
C1910 H1924 0.965 . S
C1911 C1908 1.539 . S
C1911 H1925 0.958 . S
C1911 H1926 0.961 . S
C1911 H1927 0.960 . S
H1912 C1896 0.931 . S
H1913 C1901 0.929 . S
H1914 C1902 0.960 . S
H1915 C1902 0.962 . S
H1916 C1902 0.960 . S
H1917 C1903 0.961 . S
H1918 C1903 0.961 . S
H1919 C1903 0.961 . S
H1920 C1904 0.931 . S
H1921 C1909 0.930 . S
H1922 C1910 0.955 1_455 S
H1923 C1910 0.957 1_455 S
H1924 C1910 0.965 . S
H1925 C1911 0.958 . S
H1926 C1911 0.961 . S
H1927 C1911 0.960 . S
C1928 C1929 1.391 . S
C1928 C1930 1.394 . S
C1928 H1944 0.931 . S
C1929 C1928 1.391 . S
C1929 C1933 1.376 . S
C1930 C1928 1.394 . S
C1930 C1931 1.369 . S
C1930 C1934 1.531 . S
C1931 C1930 1.369 . S
C1931 C1932 1.410 . S
C1931 C1939 1.503 . S
C1932 C1931 1.410 . S
C1932 C1933 1.392 . S
C1932 C1935 1.511 . S
C1933 C1929 1.376 . S
C1933 C1932 1.392 . S
C1933 H1945 0.929 . S
C1934 C1930 1.531 . S
C1934 H1946 0.960 . S
C1934 H1947 0.962 . S
C1934 H1948 0.960 . S
C1935 C1932 1.511 . S
C1935 H1949 0.961 . S
C1935 H1950 0.961 . S
C1935 H1951 0.961 . S
C1936 C1937 1.370 . S
C1936 C1938 1.363 . S
C1936 H1952 0.931 . S
C1937 C1936 1.370 . S
C1937 C1941 1.408 . S
C1938 C1936 1.363 . S
C1938 C1939 1.370 . S
C1938 C1942 1.524 . S
C1939 C1931 1.503 . S
C1939 C1938 1.370 . S
C1939 C1940 1.403 . S
C1940 C1939 1.403 . S
C1940 C1941 1.404 . S
C1940 C1943 1.539 . S
C1941 C1937 1.408 . S
C1941 C1940 1.404 . S
C1941 H1953 0.930 . S
C1942 C1938 1.524 . S
C1942 H1954 0.956 . S
C1942 H1955 0.961 . S
C1942 H1956 0.961 . S
C1943 C1940 1.539 . S
C1943 H1957 0.958 . S
C1943 H1958 0.961 . S
C1943 H1959 0.960 . S
H1944 C1928 0.931 . S
H1945 C1933 0.929 . S
H1946 C1934 0.960 . S
H1947 C1934 0.962 . S
H1948 C1934 0.960 . S
H1949 C1935 0.961 . S
H1950 C1935 0.961 . S
H1951 C1935 0.961 . S
H1952 C1936 0.931 . S
H1953 C1941 0.930 . S
H1954 C1942 0.956 . S
H1955 C1942 0.961 . S
H1956 C1942 0.961 . S
H1957 C1943 0.958 . S
H1958 C1943 0.961 . S
H1959 C1943 0.960 . S
C1960 C1961 1.391 . S
C1960 C1962 1.394 . S
C1960 H1976 0.931 . S
C1961 C1960 1.391 . S
C1961 C1965 1.376 . S
C1962 C1960 1.394 . S
C1962 C1963 1.369 . S
C1962 C1966 1.531 . S
C1963 C1962 1.369 . S
C1963 C1964 1.410 . S
C1963 C1971 1.503 . S
C1964 C1963 1.410 . S
C1964 C1965 1.392 . S
C1964 C1967 1.511 . S
C1965 C1961 1.376 . S
C1965 C1964 1.392 . S
C1965 H1977 0.929 . S
C1966 C1962 1.531 . S
C1966 H1978 0.960 . S
C1966 H1979 0.962 . S
C1966 H1980 0.960 . S
C1967 C1964 1.511 . S
C1967 H1981 0.961 . S
C1967 H1982 0.961 . S
C1967 H1983 0.961 . S
C1968 C1969 1.370 . S
C1968 C1970 1.363 . S
C1968 H1984 0.931 . S
C1969 C1968 1.370 . S
C1969 C1973 1.408 . S
C1970 C1968 1.363 . S
C1970 C1971 1.370 . S
C1970 C1974 1.524 . S
C1971 C1963 1.503 . S
C1971 C1970 1.370 . S
C1971 C1972 1.403 . S
C1972 C1971 1.403 . S
C1972 C1973 1.404 . S
C1972 C1975 1.539 . S
C1973 C1969 1.408 . S
C1973 C1972 1.404 . S
C1973 H1985 0.930 . S
C1974 C1970 1.524 . S
C1974 H1986 0.956 . S
C1974 H1987 0.961 . S
C1974 H1988 0.961 . S
C1975 C1972 1.539 . S
C1975 H1989 0.958 . S
C1975 H1990 0.961 . S
C1975 H1991 0.960 . S
H1976 C1960 0.931 . S
H1977 C1965 0.929 . S
H1978 C1966 0.960 . S
H1979 C1966 0.962 . S
H1980 C1966 0.960 . S
H1981 C1967 0.961 . S
H1982 C1967 0.961 . S
H1983 C1967 0.961 . S
H1984 C1968 0.931 . S
H1985 C1973 0.930 . S
H1986 C1974 0.956 . S
H1987 C1974 0.961 . S
H1988 C1974 0.961 . S
H1989 C1975 0.958 . S
H1990 C1975 0.961 . S
H1991 C1975 0.960 . S
C1992 C1993 1.391 . S
C1992 C1994 1.394 . S
C1992 H2008 0.931 . S
C1993 C1992 1.391 . S
C1993 C1997 1.376 . S
C1994 C1992 1.394 . S
C1994 C1995 1.369 . S
C1994 C1998 1.531 . S
C1995 C1994 1.369 . S
C1995 C1996 1.410 . S
C1995 C2003 1.503 . S
C1996 C1995 1.410 . S
C1996 C1997 1.392 . S
C1996 C1999 1.511 . S
C1997 C1993 1.376 . S
C1997 C1996 1.392 . S
C1997 H2009 0.929 . S
C1998 C1994 1.531 . S
C1998 H2010 0.960 . S
C1998 H2011 0.962 . S
C1998 H2012 0.960 . S
C1999 C1996 1.511 . S
C1999 H2013 0.961 . S
C1999 H2014 0.961 . S
C1999 H2015 0.961 . S
C2000 C2001 1.370 1_565 S
C2000 C2002 1.363 . S
C2000 H2016 0.931 . S
C2001 C2000 1.370 1_545 S
C2001 C2005 1.408 . S
C2002 C2000 1.363 . S
C2002 C2003 1.370 . S
C2002 C2006 1.524 . S
C2003 C1995 1.503 . S
C2003 C2002 1.370 . S
C2003 C2004 1.403 . S
C2004 C2003 1.403 . S
C2004 C2005 1.404 1_565 S
C2004 C2007 1.539 . S
C2005 C2001 1.408 . S
C2005 C2004 1.404 1_545 S
C2005 H2017 0.930 . S
C2006 C2002 1.524 . S
C2006 H2018 0.956 . S
C2006 H2019 0.961 . S
C2006 H2020 0.961 . S
C2007 C2004 1.539 . S
C2007 H2021 0.958 . S
C2007 H2022 0.961 . S
C2007 H2023 0.960 . S
H2008 C1992 0.931 . S
H2009 C1997 0.929 . S
H2010 C1998 0.960 . S
H2011 C1998 0.962 . S
H2012 C1998 0.960 . S
H2013 C1999 0.961 . S
H2014 C1999 0.961 . S
H2015 C1999 0.961 . S
H2016 C2000 0.931 . S
H2017 C2005 0.930 . S
H2018 C2006 0.956 . S
H2019 C2006 0.961 . S
H2020 C2006 0.961 . S
H2021 C2007 0.958 . S
H2022 C2007 0.961 . S
H2023 C2007 0.960 . S
C2024 C2025 1.391 . S
C2024 C2026 1.394 1_565 S
C2024 H2040 0.931 . S
C2025 C2024 1.391 . S
C2025 C2029 1.367 1_565 S
C2026 C2024 1.394 1_545 S
C2026 C2027 1.369 . S
C2026 C2030 1.531 . S
C2027 C2026 1.369 . S
C2027 C2028 1.410 . S
C2027 C2035 1.503 . S
C2028 C2027 1.410 . S
C2028 C2029 1.410 . S
C2028 C2031 1.511 . S
C2029 C2025 1.367 1_545 S
C2029 C2028 1.410 . S
C2029 H2041 0.921 1_545 S
C2030 C2026 1.531 . S
C2030 H2042 0.960 . S
C2030 H2043 0.962 . S
C2030 H2044 0.960 . S
C2031 C2028 1.511 . S
C2031 H2045 0.961 . S
C2031 H2046 0.961 . S
C2031 H2047 0.961 . S
C2032 C2033 1.370 . S
C2032 C2034 1.363 . S
C2032 H2048 0.931 . S
C2033 C2032 1.370 . S
C2033 C2037 1.408 . S
C2034 C2032 1.363 . S
C2034 C2035 1.370 . S
C2034 C2038 1.524 . S
C2035 C2027 1.503 . S
C2035 C2034 1.370 . S
C2035 C2036 1.403 . S
C2036 C2035 1.403 . S
C2036 C2037 1.404 . S
C2036 C2039 1.539 . S
C2037 C2033 1.408 . S
C2037 C2036 1.404 . S
C2037 H2049 0.930 . S
C2038 C2034 1.524 . S
C2038 H2050 0.956 . S
C2038 H2051 0.961 . S
C2038 H2052 0.961 . S
C2039 C2036 1.539 . S
C2039 H2053 0.958 . S
C2039 H2054 0.961 . S
C2039 H2055 0.960 . S
H2040 C2024 0.931 . S
H2041 C2029 0.921 1_565 S
H2042 C2030 0.960 . S
H2043 C2030 0.962 . S
H2044 C2030 0.960 . S
H2045 C2031 0.961 . S
H2046 C2031 0.961 . S
H2047 C2031 0.961 . S
H2048 C2032 0.931 . S
H2049 C2037 0.930 . S
H2050 C2038 0.956 . S
H2051 C2038 0.961 . S
H2052 C2038 0.961 . S
H2053 C2039 0.958 . S
H2054 C2039 0.961 . S
H2055 C2039 0.960 . S
C2056 C2057 1.391 . S
C2056 C2058 1.394 . S
C2056 H2072 0.931 . S
C2057 C2056 1.391 . S
C2057 C2061 1.376 . S
C2058 C2056 1.394 . S
C2058 C2059 1.369 . S
C2058 C2062 1.531 . S
C2059 C2058 1.369 . S
C2059 C2060 1.410 . S
C2059 C2067 1.503 . S
C2060 C2059 1.410 . S
C2060 C2061 1.392 . S
C2060 C2063 1.511 . S
C2061 C2057 1.376 . S
C2061 C2060 1.392 . S
C2061 H2073 0.929 . S
C2062 C2058 1.531 . S
C2062 H2074 0.960 . S
C2062 H2075 0.962 . S
C2062 H2076 0.960 . S
C2063 C2060 1.511 . S
C2063 H2077 0.961 . S
C2063 H2078 0.961 . S
C2063 H2079 0.961 . S
C2064 C2065 1.370 . S
C2064 C2066 1.363 . S
C2064 H2080 0.931 . S
C2065 C2064 1.370 . S
C2065 C2069 1.408 . S
C2066 C2064 1.363 . S
C2066 C2067 1.370 . S
C2066 C2070 1.524 . S
C2067 C2059 1.503 . S
C2067 C2066 1.370 . S
C2067 C2068 1.403 . S
C2068 C2067 1.403 . S
C2068 C2069 1.404 . S
C2068 C2071 1.539 . S
C2069 C2065 1.408 . S
C2069 C2068 1.404 . S
C2069 H2081 0.930 . S
C2070 C2066 1.524 . S
C2070 H2082 0.956 . S
C2070 H2083 0.961 . S
C2070 H2084 0.961 . S
C2071 C2068 1.539 . S
C2071 H2085 0.958 . S
C2071 H2086 0.961 . S
C2071 H2087 0.960 . S
H2072 C2056 0.931 . S
H2073 C2061 0.929 . S
H2074 C2062 0.960 . S
H2075 C2062 0.962 . S
H2076 C2062 0.960 . S
H2077 C2063 0.961 . S
H2078 C2063 0.961 . S
H2079 C2063 0.961 . S
H2080 C2064 0.931 . S
H2081 C2069 0.930 . S
H2082 C2070 0.956 . S
H2083 C2070 0.961 . S
H2084 C2070 0.961 . S
H2085 C2071 0.958 . S
H2086 C2071 0.961 . S
H2087 C2071 0.960 . S
C553 C191 1.813 . S
C561 N12 1.770 . S
C585 N35 1.769 . S
C593 C260 1.802 . S
C617 N58 1.793 . S
C625 C214 1.793 . S
C649 N81 1.760 . S
C657 C237 1.796 . S
C681 C99 1.778 . S
C689 C7 1.839 . S
C713 C30 1.836 . S
C721 C122 1.804 . S
C745 C145 1.833 . S
C753 C53 1.819 . S
C777 C76 1.806 . S
C785 C168 1.818 . S
C809 N104 1.619 . S
C817 N196 1.592 . S
C841 N150 1.626 . S
C849 N219 1.588 . S
C873 N242 1.569 . S
C881 N173 1.619 . S
C905 N127 1.635 . S
C913 N265 1.573 . S
C937 C467 1.743 . S
C945 N288 1.736 . S
C969 N311 1.726 . S
C977 C536 1.740 . S
C1001 N334 1.715 . S
C1009 C490 1.749 . S
C1033 C513 1.756 . S
C1041 N357 1.746 . S
C1065 N380 1.693 . S
C1073 C283 1.678 . S
C1097 C306 1.694 . S
C1105 N403 1.680 . S
C1129 C329 1.667 . S
C1137 N426 1.701 . S
C1161 N449 1.701 . S
C1169 C352 1.691 . S
C1193 N472 1.629 . S
C1201 C375 1.669 . S
C1225 C421 1.680 . S
C1233 N495 1.648 . S
C1257 C444 1.645 . S
C1265 N518 1.653 . S
C1289 N541 1.671 . S
C1297 C398 1.648 . S
C1321 C522 1.907 . S
C1329 N2 1.740 . S
C1353 C499 1.925 . S
C1361 N25 1.762 . S
C1385 C545 1.929 . S
C1393 N48 1.762 . S
C1417 N71 1.715 . S
C1425 C476 1.934 . S
C1449 C108 1.755 . S
C1457 C315 1.803 . S
C1481 C292 1.802 . S
C1489 C131 1.739 . S
C1513 C361 1.782 . S
C1521 C154 1.731 . S
C1545 C338 1.814 . S
C1553 C177 1.738 . S
C1577 N186 1.750 . S
C1585 C430 1.891 . S
C1609 C384 1.867 . S
C1617 N209 1.703 . S
C1641 C407 1.866 . S
C1649 N232 1.707 . S
C1673 C453 1.906 . S
C1681 N255 1.716 . S
C1705 C246 1.927 . S
C1713 N278 1.739 . S
C1737 C223 1.891 . S
C1745 N301 1.728 . S
C1769 N324 1.685 . S
C1777 C269 1.916 . S
C1801 C200 1.895 . S
C1809 N347 1.721 . S
C1833 N370 1.751 . S
C1841 C39 1.911 . S
C1865 N393 1.726 . S
C1873 C16 1.913 . S
C1897 N416 1.687 . S
C1905 C85 1.902 . S
C1929 N439 1.728 . S
C1937 C62 1.913 . S
C1961 N462 1.749 . S
C1969 N140 1.854 . S
C1993 N485 1.787 . S
C2001 N94 1.844 . S
C2025 N117 1.843 . S
C2033 N508 1.767 . S
C2057 N531 1.738 . S
C2065 N163 1.854 . S
