# Generated by pormake.
# Topology wgi, (5)-cn, num edge types: 1
# Building blocks:
#     Node 0, Type 0, BuildingBlock: XOMCOT_clean_sbu_0, # of connection points: 5
#     Node 1, Type 0, BuildingBlock: XOMCOT_clean_sbu_0, # of connection points: 5
#     Node 2, Type 0, BuildingBlock: XOMCOT_clean_sbu_0, # of connection points: 5
#     Node 3, Type 0, BuildingBlock: XOMCOT_clean_sbu_0, # of connection points: 5
#     Node 4, Type 0, BuildingBlock: XOMCOT_clean_sbu_0, # of connection points: 5
#     Node 5, Type 0, BuildingBlock: XOMCOT_clean_sbu_0, # of connection points: 5
#     Node 6, Type 0, BuildingBlock: XOMCOT_clean_sbu_0, # of connection points: 5
#     Node 7, Type 0, BuildingBlock: XOMCOT_clean_sbu_0, # of connection points: 5
#     Node 8, Type 0, BuildingBlock: XOMCOT_clean_sbu_0, # of connection points: 5
#     Node 9, Type 0, BuildingBlock: XOMCOT_clean_sbu_0, # of connection points: 5
#     Node 10, Type 0, BuildingBlock: XOMCOT_clean_sbu_0, # of connection points: 5
#     Node 11, Type 0, BuildingBlock: XOMCOT_clean_sbu_0, # of connection points: 5
#     Node 12, Type 0, BuildingBlock: XOMCOT_clean_sbu_0, # of connection points: 5
#     Node 13, Type 0, BuildingBlock: XOMCOT_clean_sbu_0, # of connection points: 5
#     Node 14, Type 0, BuildingBlock: XOMCOT_clean_sbu_0, # of connection points: 5
#     Node 15, Type 0, BuildingBlock: XOMCOT_clean_sbu_0, # of connection points: 5
#     Node 16, Type 0, BuildingBlock: XOMCOT_clean_sbu_0, # of connection points: 5
#     Node 17, Type 0, BuildingBlock: XOMCOT_clean_sbu_0, # of connection points: 5
#     Node 18, Type 0, BuildingBlock: XOMCOT_clean_sbu_0, # of connection points: 5
#     Node 19, Type 0, BuildingBlock: XOMCOT_clean_sbu_0, # of connection points: 5
#     Node 20, Type 0, BuildingBlock: XOMCOT_clean_sbu_0, # of connection points: 5
#     Node 21, Type 0, BuildingBlock: XOMCOT_clean_sbu_0, # of connection points: 5
#     Node 22, Type 0, BuildingBlock: XOMCOT_clean_sbu_0, # of connection points: 5
#     Node 23, Type 0, BuildingBlock: XOMCOT_clean_sbu_0, # of connection points: 5
#     Node 24, Type 0, BuildingBlock: XOMCOT_clean_sbu_0, # of connection points: 5
#     Node 25, Type 0, BuildingBlock: XOMCOT_clean_sbu_0, # of connection points: 5
#     Node 26, Type 0, BuildingBlock: XOMCOT_clean_sbu_0, # of connection points: 5
#     Node 27, Type 0, BuildingBlock: XOMCOT_clean_sbu_0, # of connection points: 5
#     Node 28, Type 0, BuildingBlock: XOMCOT_clean_sbu_0, # of connection points: 5
#     Node 29, Type 0, BuildingBlock: XOMCOT_clean_sbu_0, # of connection points: 5
#     Node 30, Type 0, BuildingBlock: XOMCOT_clean_sbu_0, # of connection points: 5
#     Node 31, Type 0, BuildingBlock: XOMCOT_clean_sbu_0, # of connection points: 5
#     Edge 32, Type (0, 0), BuildingBlock: XIVTED_clean_linker_0, # of connection points: 2
#     Edge 33, Type (0, 0), BuildingBlock: XIVTED_clean_linker_0, # of connection points: 2
#     Edge 34, Type (0, 0), BuildingBlock: XIVTED_clean_linker_0, # of connection points: 2
#     Edge 35, Type (0, 0), BuildingBlock: XIVTED_clean_linker_0, # of connection points: 2
#     Edge 36, Type (0, 0), BuildingBlock: XIVTED_clean_linker_0, # of connection points: 2
#     Edge 37, Type (0, 0), BuildingBlock: XIVTED_clean_linker_0, # of connection points: 2
#     Edge 38, Type (0, 0), BuildingBlock: XIVTED_clean_linker_0, # of connection points: 2
#     Edge 39, Type (0, 0), BuildingBlock: XIVTED_clean_linker_0, # of connection points: 2
#     Edge 40, Type (0, 0), BuildingBlock: XIVTED_clean_linker_0, # of connection points: 2
#     Edge 41, Type (0, 0), BuildingBlock: XIVTED_clean_linker_0, # of connection points: 2
#     Edge 42, Type (0, 0), BuildingBlock: XIVTED_clean_linker_0, # of connection points: 2
#     Edge 43, Type (0, 0), BuildingBlock: XIVTED_clean_linker_0, # of connection points: 2
#     Edge 44, Type (0, 0), BuildingBlock: XIVTED_clean_linker_0, # of connection points: 2
#     Edge 45, Type (0, 0), BuildingBlock: XIVTED_clean_linker_0, # of connection points: 2
#     Edge 46, Type (0, 0), BuildingBlock: XIVTED_clean_linker_0, # of connection points: 2
#     Edge 47, Type (0, 0), BuildingBlock: XIVTED_clean_linker_0, # of connection points: 2
#     Edge 48, Type (0, 0), BuildingBlock: XIVTED_clean_linker_0, # of connection points: 2
#     Edge 49, Type (0, 0), BuildingBlock: XIVTED_clean_linker_0, # of connection points: 2
#     Edge 50, Type (0, 0), BuildingBlock: XIVTED_clean_linker_0, # of connection points: 2
#     Edge 51, Type (0, 0), BuildingBlock: XIVTED_clean_linker_0, # of connection points: 2
#     Edge 52, Type (0, 0), BuildingBlock: XIVTED_clean_linker_0, # of connection points: 2
#     Edge 53, Type (0, 0), BuildingBlock: XIVTED_clean_linker_0, # of connection points: 2
#     Edge 54, Type (0, 0), BuildingBlock: XIVTED_clean_linker_0, # of connection points: 2
#     Edge 55, Type (0, 0), BuildingBlock: XIVTED_clean_linker_0, # of connection points: 2
#     Edge 56, Type (0, 0), BuildingBlock: XIVTED_clean_linker_0, # of connection points: 2
#     Edge 57, Type (0, 0), BuildingBlock: XIVTED_clean_linker_0, # of connection points: 2
#     Edge 58, Type (0, 0), BuildingBlock: XIVTED_clean_linker_0, # of connection points: 2
#     Edge 59, Type (0, 0), BuildingBlock: XIVTED_clean_linker_0, # of connection points: 2
#     Edge 60, Type (0, 0), BuildingBlock: XIVTED_clean_linker_0, # of connection points: 2
#     Edge 61, Type (0, 0), BuildingBlock: XIVTED_clean_linker_0, # of connection points: 2
#     Edge 62, Type (0, 0), BuildingBlock: XIVTED_clean_linker_0, # of connection points: 2
#     Edge 63, Type (0, 0), BuildingBlock: XIVTED_clean_linker_0, # of connection points: 2
#     Edge 64, Type (0, 0), BuildingBlock: XIVTED_clean_linker_0, # of connection points: 2
#     Edge 65, Type (0, 0), BuildingBlock: XIVTED_clean_linker_0, # of connection points: 2
#     Edge 66, Type (0, 0), BuildingBlock: XIVTED_clean_linker_0, # of connection points: 2
#     Edge 67, Type (0, 0), BuildingBlock: XIVTED_clean_linker_0, # of connection points: 2
#     Edge 68, Type (0, 0), BuildingBlock: XIVTED_clean_linker_0, # of connection points: 2
#     Edge 69, Type (0, 0), BuildingBlock: XIVTED_clean_linker_0, # of connection points: 2
#     Edge 70, Type (0, 0), BuildingBlock: XIVTED_clean_linker_0, # of connection points: 2
#     Edge 71, Type (0, 0), BuildingBlock: XIVTED_clean_linker_0, # of connection points: 2
#     Edge 72, Type (0, 0), BuildingBlock: XIVTED_clean_linker_0, # of connection points: 2
#     Edge 73, Type (0, 0), BuildingBlock: XIVTED_clean_linker_0, # of connection points: 2
#     Edge 74, Type (0, 0), BuildingBlock: XIVTED_clean_linker_0, # of connection points: 2
#     Edge 75, Type (0, 0), BuildingBlock: XIVTED_clean_linker_0, # of connection points: 2
#     Edge 76, Type (0, 0), BuildingBlock: XIVTED_clean_linker_0, # of connection points: 2
#     Edge 77, Type (0, 0), BuildingBlock: XIVTED_clean_linker_0, # of connection points: 2
#     Edge 78, Type (0, 0), BuildingBlock: XIVTED_clean_linker_0, # of connection points: 2
#     Edge 79, Type (0, 0), BuildingBlock: XIVTED_clean_linker_0, # of connection points: 2
#     Edge 80, Type (0, 0), BuildingBlock: XIVTED_clean_linker_0, # of connection points: 2
#     Edge 81, Type (0, 0), BuildingBlock: XIVTED_clean_linker_0, # of connection points: 2
#     Edge 82, Type (0, 0), BuildingBlock: XIVTED_clean_linker_0, # of connection points: 2
#     Edge 83, Type (0, 0), BuildingBlock: XIVTED_clean_linker_0, # of connection points: 2
#     Edge 84, Type (0, 0), BuildingBlock: XIVTED_clean_linker_0, # of connection points: 2
#     Edge 85, Type (0, 0), BuildingBlock: XIVTED_clean_linker_0, # of connection points: 2
#     Edge 86, Type (0, 0), BuildingBlock: XIVTED_clean_linker_0, # of connection points: 2
#     Edge 87, Type (0, 0), BuildingBlock: XIVTED_clean_linker_0, # of connection points: 2
#     Edge 88, Type (0, 0), BuildingBlock: XIVTED_clean_linker_0, # of connection points: 2
#     Edge 89, Type (0, 0), BuildingBlock: XIVTED_clean_linker_0, # of connection points: 2
#     Edge 90, Type (0, 0), BuildingBlock: XIVTED_clean_linker_0, # of connection points: 2
#     Edge 91, Type (0, 0), BuildingBlock: XIVTED_clean_linker_0, # of connection points: 2
#     Edge 92, Type (0, 0), BuildingBlock: XIVTED_clean_linker_0, # of connection points: 2
#     Edge 93, Type (0, 0), BuildingBlock: XIVTED_clean_linker_0, # of connection points: 2
#     Edge 94, Type (0, 0), BuildingBlock: XIVTED_clean_linker_0, # of connection points: 2
#     Edge 95, Type (0, 0), BuildingBlock: XIVTED_clean_linker_0, # of connection points: 2
#     Edge 96, Type (0, 0), BuildingBlock: XIVTED_clean_linker_0, # of connection points: 2
#     Edge 97, Type (0, 0), BuildingBlock: XIVTED_clean_linker_0, # of connection points: 2
#     Edge 98, Type (0, 0), BuildingBlock: XIVTED_clean_linker_0, # of connection points: 2
#     Edge 99, Type (0, 0), BuildingBlock: XIVTED_clean_linker_0, # of connection points: 2
#     Edge 100, Type (0, 0), BuildingBlock: XIVTED_clean_linker_0, # of connection points: 2
#     Edge 101, Type (0, 0), BuildingBlock: XIVTED_clean_linker_0, # of connection points: 2
#     Edge 102, Type (0, 0), BuildingBlock: XIVTED_clean_linker_0, # of connection points: 2
#     Edge 103, Type (0, 0), BuildingBlock: XIVTED_clean_linker_0, # of connection points: 2
#     Edge 104, Type (0, 0), BuildingBlock: XIVTED_clean_linker_0, # of connection points: 2
#     Edge 105, Type (0, 0), BuildingBlock: XIVTED_clean_linker_0, # of connection points: 2
#     Edge 106, Type (0, 0), BuildingBlock: XIVTED_clean_linker_0, # of connection points: 2
#     Edge 107, Type (0, 0), BuildingBlock: XIVTED_clean_linker_0, # of connection points: 2
#     Edge 108, Type (0, 0), BuildingBlock: XIVTED_clean_linker_0, # of connection points: 2
#     Edge 109, Type (0, 0), BuildingBlock: XIVTED_clean_linker_0, # of connection points: 2
#     Edge 110, Type (0, 0), BuildingBlock: XIVTED_clean_linker_0, # of connection points: 2
#     Edge 111, Type (0, 0), BuildingBlock: XIVTED_clean_linker_0, # of connection points: 2
# Relax obj value: 0.201
# Max RMSD: 0.169
# Mean RMSD: 0.169
data_MOF--net-wgi--node1-XOMCOT_clean_sbu_0--edge1-XIVTED_clean_linker_0
_symmetry_space_group_name_H-M    P1
_symmetry_Int_Tables_number       1
_symmetry_cell_setting            triclinic
loop_
_symmetry_equiv_pos_as_xyz
'x, y, z'
_cell_length_a     76.629824
_cell_length_b     76.631781
_cell_length_c     27.478171
_cell_angle_alpha  89.995707
_cell_angle_beta   89.976212
_cell_angle_gamma 90.011245
loop_
_atom_site_label
_atom_site_type_symbol
_atom_site_fract_x
_atom_site_fract_y
_atom_site_fract_z
_atom_type_partial_charge
Co0 Co 0.14386 0.15915 0.39273 0.0
C1 C 0.18213 0.16081 0.40926 0.0
C2 C 0.17555 0.14295 0.35234 0.0
C3 C 0.19299 0.14105 0.36298 0.0
N4 N 0.16869 0.15562 0.38068 0.0
N5 N 0.19708 0.15227 0.39891 0.0
H6 H 0.18071 0.16907 0.44081 0.0
H7 H 0.16814 0.1345 0.32859 0.0
C8 C 0.14469 0.15594 0.28422 0.0
O9 O 0.1575 0.16734 0.2834 0.0
N10 N 0.11932 0.16202 0.40622 0.0
C11 C 0.11223 0.17439 0.43488 0.0
C12 C 0.09483 0.17067 0.44127 0.0
C13 C 0.10622 0.1509 0.39559 0.0
N14 N 0.09109 0.15588 0.41673 0.0
C15 C 0.15479 0.19517 0.39881 0.0
C16 C 0.13105 0.20755 0.33146 0.0
C17 C 0.14118 0.2196 0.35748 0.0
C18 C 0.15337 0.21316 0.39105 0.0
C19 C 0.13292 0.18973 0.34023 0.0
N20 N 0.1448 0.18363 0.37324 0.0
H21 H 0.16318 0.19073 0.42756 0.0
H22 H 0.12396 0.1809 0.32252 0.0
H23 H 0.11938 0.18505 0.45128 0.0
H24 H 0.10793 0.139 0.37494 0.0
O25 O 0.14851 0.16166 0.46137 0.0
O26 O 0.14303 0.13662 0.42357 0.0
O27 O 0.1379 0.15134 0.32469 0.0
C28 C 0.14621 0.14485 0.46404 0.0
H29 H 0.20171 0.1314 0.34761 0.0
H30 H 0.08568 0.17813 0.46292 0.0
H31 H 0.12101 0.21183 0.30648 0.0
H32 H 0.16137 0.22194 0.41237 0.0
Co33 Co 0.09415 0.89539 0.63689 0.0
C34 C 0.09244 0.93325 0.65737 0.0
C35 C 0.1107 0.92766 0.60054 0.0
C36 C 0.11208 0.94507 0.61244 0.0
N37 N 0.09804 0.92028 0.62784 0.0
N38 N 0.1007 0.94849 0.64854 0.0
H39 H 0.08354 0.93139 0.68733 0.0
H40 H 0.11938 0.92067 0.57645 0.0
C41 C 0.09838 0.89787 0.52831 0.0
O42 O 0.08749 0.91111 0.5278 0.0
N43 N 0.0906 0.87077 0.64756 0.0
C44 C 0.0776 0.86379 0.67418 0.0
C45 C 0.07973 0.84603 0.6755 0.0
C46 C 0.10066 0.85722 0.63354 0.0
N47 N 0.0942 0.84187 0.64998 0.0
C48 C 0.058 0.90506 0.64808 0.0
C49 C 0.04578 0.88423 0.57353 0.0
C50 C 0.03366 0.89147 0.60603 0.0
C51 C 0.03999 0.90248 0.64284 0.0
C52 C 0.06358 0.8867 0.58092 0.0
N53 N 0.06964 0.89704 0.61775 0.0
H54 H 0.0625 0.91221 0.67934 0.0
H55 H 0.0724 0.87898 0.55923 0.0
H56 H 0.06743 0.87117 0.69208 0.0
H57 H 0.11241 0.85858 0.61201 0.0
O58 O 0.09179 0.89908 0.70611 0.0
O59 O 0.11667 0.89367 0.66749 0.0
O60 O 0.1021 0.89027 0.56836 0.0
C61 C 0.10857 0.89653 0.70832 0.0
H62 H 0.12171 0.95412 0.59851 0.0
H63 H 0.07151 0.83691 0.695 0.0
H64 H 0.04168 0.87582 0.54403 0.0
H65 H 0.03126 0.9081 0.66959 0.0
Co66 Co 0.35773 0.84348 0.8735 0.0
C67 C 0.32015 0.84412 0.89854 0.0
C68 C 0.32512 0.85961 0.83534 0.0
C69 C 0.30783 0.8616 0.84829 0.0
N70 N 0.33281 0.84819 0.86605 0.0
N71 N 0.30481 0.85192 0.88832 0.0
H72 H 0.32229 0.83652 0.93104 0.0
H73 H 0.33176 0.86704 0.80754 0.0
C74 C 0.35552 0.84656 0.76453 0.0
O75 O 0.34247 0.83543 0.76461 0.0
N76 N 0.38232 0.83916 0.88291 0.0
C77 C 0.38909 0.82582 0.90859 0.0
C78 C 0.40689 0.82772 0.91033 0.0
C79 C 0.39603 0.84922 0.87002 0.0
N80 N 0.41127 0.84242 0.88616 0.0
C81 C 0.3448 0.80831 0.88206 0.0
C82 C 0.36708 0.79393 0.81383 0.0
C83 C 0.3572 0.78275 0.84334 0.0
C84 C 0.34552 0.79021 0.87667 0.0
C85 C 0.36591 0.81199 0.82027 0.0
N86 N 0.35498 0.81905 0.85442 0.0
H87 H 0.33702 0.81346 0.9112 0.0
H88 H 0.37489 0.82018 0.80039 0.0
H89 H 0.38154 0.8156 0.92574 0.0
H90 H 0.39484 0.86128 0.8498 0.0
O91 O 0.35452 0.84118 0.94291 0.0
O92 O 0.36043 0.86592 0.90419 0.0
O93 O 0.36273 0.85106 0.80453 0.0
C94 C 0.35761 0.85787 0.94514 0.0
H95 H 0.29856 0.87041 0.83162 0.0
H96 H 0.41586 0.81923 0.9294 0.0
H97 H 0.37662 0.78881 0.78851 0.0
H98 H 0.33766 0.78209 0.90036 0.0
Co99 Co 0.40886 0.11298 0.14404 0.0
C100 C 0.40647 0.07527 0.16742 0.0
C101 C 0.41006 0.07927 0.09093 0.0
C102 C 0.40957 0.06154 0.1 0.0
N103 N 0.40799 0.08789 0.1333 0.0
N104 N 0.40728 0.05908 0.14823 0.0
H105 H 0.40543 0.07778 0.20594 0.0
H106 H 0.41213 0.08538 0.05593 0.0
C107 C 0.38752 0.11604 0.05392 0.0
O108 O 0.37409 0.11015 0.07868 0.0
N109 N 0.40989 0.13782 0.15553 0.0
C110 C 0.4225 0.14609 0.18072 0.0
C111 C 0.41761 0.16315 0.18747 0.0
C112 C 0.3974 0.14991 0.14755 0.0
N113 N 0.40179 0.16554 0.16695 0.0
C114 C 0.44493 0.10408 0.15426 0.0
C115 C 0.45691 0.12744 0.08512 0.0
C116 C 0.46901 0.11926 0.11583 0.0
C117 C 0.4629 0.10692 0.14953 0.0
C118 C 0.43915 0.12433 0.09123 0.0
N119 N 0.43334 0.11318 0.12644 0.0
H120 H 0.44025 0.09534 0.18226 0.0
H121 H 0.43008 0.13195 0.07004 0.0
H122 H 0.43418 0.13996 0.19468 0.0
H123 H 0.38505 0.14709 0.13014 0.0
O124 O 0.41117 0.10945 0.21311 0.0
O125 O 0.38598 0.11251 0.17423 0.0
O126 O 0.40236 0.11749 0.07442 0.0
C127 C 0.39425 0.11054 0.21528 0.0
H128 H 0.41086 0.05131 0.0731 0.0
H129 H 0.42506 0.17297 0.20666 0.0
H130 H 0.46106 0.13685 0.05809 0.0
H131 H 0.47179 0.10035 0.17407 0.0
Co132 Co 0.14412 0.84652 0.10582 0.0
C133 C 0.18189 0.84364 0.08436 0.0
C134 C 0.17733 0.86025 0.14556 0.0
C135 C 0.19474 0.86121 0.13336 0.0
N136 N 0.16924 0.84885 0.11562 0.0
N137 N 0.19753 0.85088 0.09451 0.0
H138 H 0.17952 0.8358 0.05241 0.0
H139 H 0.17087 0.86857 0.17169 0.0
C140 C 0.14566 0.84982 0.21457 0.0
O141 O 0.15773 0.83764 0.21541 0.0
N142 N 0.11934 0.84467 0.0942 0.0
C143 C 0.11164 0.83257 0.06586 0.0
C144 C 0.09429 0.8367 0.06108 0.0
C145 C 0.10661 0.85605 0.10629 0.0
N146 N 0.09115 0.85147 0.08632 0.0
C147 C 0.1532 0.80998 0.09939 0.0
C148 C 0.12874 0.79897 0.16664 0.0
C149 C 0.13736 0.78643 0.13842 0.0
C150 C 0.15016 0.79208 0.10552 0.0
C151 C 0.13207 0.81663 0.15923 0.0
N152 N 0.1441 0.82206 0.12571 0.0
H153 H 0.16188 0.81402 0.0708 0.0
H154 H 0.12393 0.82594 0.17801 0.0
H155 H 0.11833 0.82176 0.04873 0.0
H156 H 0.10878 0.86779 0.12733 0.0
O157 O 0.14791 0.84363 0.03688 0.0
O158 O 0.14401 0.86899 0.07455 0.0
O159 O 0.13914 0.8548 0.1741 0.0
C160 C 0.14638 0.86053 0.03403 0.0
H161 H 0.20425 0.86999 0.14916 0.0
H162 H 0.08473 0.82948 0.0402 0.0
H163 H 0.11876 0.79522 0.19257 0.0
H164 H 0.15687 0.78286 0.08224 0.0
Co165 Co 0.40742 0.89361 0.34359 0.0
C166 C 0.41081 0.93158 0.32473 0.0
C167 C 0.39307 0.92638 0.38301 0.0
C168 C 0.39217 0.94386 0.37175 0.0
N169 N 0.40509 0.91865 0.35434 0.0
N170 N 0.40325 0.94712 0.33473 0.0
H171 H 0.41923 0.92945 0.29389 0.0
H172 H 0.38436 0.91962 0.40754 0.0
C173 C 0.40416 0.89505 0.45234 0.0
O174 O 0.41618 0.90729 0.45281 0.0
N175 N 0.40917 0.86889 0.33126 0.0
C176 C 0.42062 0.86119 0.30086 0.0
C177 C 0.4162 0.84388 0.29623 0.0
C178 C 0.39795 0.85624 0.34486 0.0
N179 N 0.40196 0.84083 0.32383 0.0
C180 C 0.44401 0.90233 0.33625 0.0
C181 C 0.45507 0.87815 0.40414 0.0
C182 C 0.4676 0.88676 0.37579 0.0
C183 C 0.4619 0.89936 0.34242 0.0
C184 C 0.43738 0.88145 0.3967 0.0
N185 N 0.43193 0.89343 0.36311 0.0
H186 H 0.43998 0.91079 0.30718 0.0
H187 H 0.42808 0.87336 0.41571 0.0
H188 H 0.43111 0.86785 0.28219 0.0
H189 H 0.38667 0.85844 0.36778 0.0
O190 O 0.41028 0.89771 0.27476 0.0
O191 O 0.38492 0.89363 0.31223 0.0
O192 O 0.39922 0.8884 0.41199 0.0
C193 C 0.3934 0.89614 0.27176 0.0
H194 H 0.38299 0.95309 0.387 0.0
H195 H 0.42281 0.83429 0.27391 0.0
H196 H 0.45883 0.8683 0.43038 0.0
H197 H 0.47108 0.906 0.31885 0.0
Co198 Co 0.35731 0.16058 0.61122 0.0
C199 C 0.31951 0.16234 0.59343 0.0
C200 C 0.32565 0.14455 0.65132 0.0
C201 C 0.30819 0.14294 0.64027 0.0
N202 N 0.33273 0.15666 0.62179 0.0
N203 N 0.30439 0.15405 0.60365 0.0
H204 H 0.32124 0.17124 0.56322 0.0
H205 H 0.33288 0.13655 0.67668 0.0
C206 C 0.37413 0.15957 0.71011 0.0
O207 O 0.38469 0.17209 0.69594 0.0
N208 N 0.38213 0.164 0.59923 0.0
C209 C 0.38985 0.1763 0.5714 0.0
C210 C 0.40722 0.17229 0.56618 0.0
C211 C 0.39497 0.15245 0.60955 0.0
N212 N 0.41043 0.15729 0.59011 0.0
C213 C 0.35383 0.19692 0.58894 0.0
C214 C 0.35188 0.20919 0.6831 0.0
C215 C 0.35428 0.22121 0.64506 0.0
C216 C 0.35438 0.21484 0.59729 0.0
C217 C 0.3513 0.19128 0.67291 0.0
N218 N 0.35396 0.1853 0.62662 0.0
H219 H 0.35428 0.19246 0.55176 0.0
H220 H 0.34901 0.18236 0.70255 0.0
H221 H 0.38345 0.18704 0.55367 0.0
H222 H 0.39287 0.14041 0.62932 0.0
O223 O 0.35324 0.16158 0.54208 0.0
O224 O 0.35944 0.13745 0.5829 0.0
O225 O 0.36217 0.15402 0.68152 0.0
C226 C 0.35609 0.1449 0.54134 0.0
H227 H 0.29919 0.13367 0.65624 0.0
H228 H 0.41671 0.1797 0.54557 0.0
H229 H 0.35078 0.21356 0.72046 0.0
H230 H 0.35587 0.2235 0.56644 0.0
Co231 Co 0.09435 0.10975 0.8614 0.0
C232 C 0.09365 0.07197 0.83952 0.0
C233 C 0.10985 0.07718 0.90114 0.0
C234 C 0.11136 0.05974 0.88937 0.0
N235 N 0.0983 0.08482 0.8707 0.0
N236 N 0.10125 0.05658 0.8503 0.0
H237 H 0.08584 0.07398 0.80734 0.0
H238 H 0.11772 0.08393 0.92773 0.0
C239 C 0.0975 0.10814 0.9702 0.0
O240 O 0.08611 0.09532 0.97076 0.0
N241 N 0.0908 0.13436 0.8503 0.0
C242 C 0.07778 0.14128 0.82369 0.0
C243 C 0.07996 0.15904 0.82192 0.0
C244 C 0.10094 0.14792 0.86377 0.0
N245 N 0.0945 0.16323 0.84706 0.0
C246 C 0.05861 0.09792 0.85466 0.0
C247 C 0.04565 0.12066 0.92384 0.0
C248 C 0.03387 0.1105 0.89704 0.0
C249 C 0.0406 0.09882 0.86252 0.0
C250 C 0.06351 0.11935 0.91488 0.0
N251 N 0.06991 0.10798 0.88091 0.0
H252 H 0.06326 0.08991 0.82534 0.0
H253 H 0.0721 0.12836 0.93326 0.0
H254 H 0.06753 0.13386 0.80625 0.0
H255 H 0.11273 0.1466 0.8851 0.0
O256 O 0.09192 0.10598 0.79229 0.0
O257 O 0.11685 0.11148 0.83066 0.0
O258 O 0.10211 0.11505 0.92991 0.0
C259 C 0.1087 0.10857 0.78992 0.0
H260 H 0.12022 0.05047 0.90587 0.0
H261 H 0.07172 0.16813 0.80242 0.0
H262 H 0.04111 0.13034 0.94963 0.0
H263 H 0.03201 0.09082 0.84059 0.0
Co264 Co 0.85856 0.84286 0.6179 0.0
C265 C 0.82076 0.84103 0.59564 0.0
C266 C 0.82597 0.85959 0.65193 0.0
C267 C 0.80858 0.86071 0.6396 0.0
N268 N 0.83358 0.84687 0.62534 0.0
N269 N 0.80539 0.84912 0.60386 0.0
H270 H 0.82279 0.83198 0.56611 0.0
H271 H 0.83277 0.86842 0.676 0.0
C272 C 0.85554 0.84814 0.72604 0.0
O273 O 0.84227 0.83727 0.72694 0.0
N274 N 0.8833 0.83919 0.6087 0.0
C275 C 0.89053 0.82508 0.58765 0.0
C276 C 0.9081 0.82784 0.58278 0.0
C277 C 0.89657 0.85053 0.61567 0.0
N278 N 0.91197 0.84391 0.59987 0.0
C279 C 0.84867 0.80671 0.60907 0.0
C280 C 0.86898 0.79498 0.68531 0.0
C281 C 0.86197 0.78266 0.65302 0.0
C282 C 0.85117 0.78875 0.61543 0.0
C283 C 0.86661 0.81274 0.67681 0.0
N284 N 0.85659 0.81856 0.63897 0.0
H285 H 0.84176 0.81099 0.57718 0.0
H286 H 0.87424 0.82168 0.69834 0.0
H287 H 0.88345 0.81369 0.57543 0.0
H288 H 0.89482 0.86356 0.63005 0.0
O289 O 0.85535 0.8398 0.54873 0.0
O290 O 0.86051 0.86505 0.58566 0.0
O291 O 0.86331 0.85148 0.68597 0.0
C292 C 0.85796 0.85655 0.54534 0.0
H293 H 0.79936 0.87025 0.6531 0.0
H294 H 0.91725 0.81865 0.56726 0.0
H295 H 0.87721 0.79106 0.71539 0.0
H296 H 0.84573 0.77987 0.58882 0.0
Co297 Co 0.90961 0.10769 0.36565 0.0
C298 C 0.90996 0.0694 0.34902 0.0
C299 C 0.89179 0.07666 0.40454 0.0
C300 C 0.88939 0.05927 0.39387 0.0
N301 N 0.90496 0.08303 0.37713 0.0
N302 N 0.90081 0.05476 0.35881 0.0
H303 H 0.91861 0.0705 0.31817 0.0
H304 H 0.88343 0.08438 0.42774 0.0
C305 C 0.90595 0.10652 0.47402 0.0
O306 O 0.9168 0.09323 0.47456 0.0
N307 N 0.91366 0.1321 0.35279 0.0
C308 C 0.92668 0.13868 0.32548 0.0
C309 C 0.92469 0.15647 0.32282 0.0
C310 C 0.90376 0.14587 0.36587 0.0
N311 N 0.91029 0.161 0.34816 0.0
C312 C 0.94527 0.0957 0.35895 0.0
C313 C 0.95836 0.11868 0.42727 0.0
C314 C 0.97012 0.10873 0.39979 0.0
C315 C 0.96332 0.09684 0.36591 0.0
C316 C 0.94046 0.11711 0.41926 0.0
N317 N 0.934 0.10568 0.38555 0.0
H318 H 0.94057 0.08769 0.32969 0.0
H319 H 0.93191 0.12612 0.43777 0.0
H320 H 0.93678 0.13102 0.30818 0.0
H321 H 0.89204 0.14481 0.38769 0.0
O322 O 0.91211 0.10308 0.29694 0.0
O323 O 0.88723 0.10957 0.33428 0.0
O324 O 0.90184 0.11375 0.43373 0.0
C325 C 0.89541 0.10603 0.29397 0.0
H326 H 0.87933 0.0509 0.40869 0.0
H327 H 0.93297 0.16532 0.30261 0.0
H328 H 0.96291 0.1285 0.45259 0.0
H329 H 0.97187 0.08896 0.34352 0.0
Co330 Co 0.64588 0.1587 0.12031 0.0
C331 C 0.68403 0.15828 0.10212 0.0
C332 C 0.67663 0.13963 0.15626 0.0
C333 C 0.69394 0.13704 0.14483 0.0
N334 N 0.67042 0.1532 0.13015 0.0
N335 N 0.69854 0.14879 0.11069 0.0
H336 H 0.683 0.1673 0.07216 0.0
H337 H 0.66882 0.13124 0.17922 0.0
C338 C 0.64759 0.15436 0.22886 0.0
O339 O 0.66148 0.16443 0.22966 0.0
N340 N 0.62157 0.16368 0.10917 0.0
C341 C 0.61519 0.17709 0.083 0.0
C342 C 0.59734 0.17559 0.08108 0.0
C343 C 0.60762 0.15405 0.12231 0.0
N344 N 0.59259 0.16111 0.10574 0.0
C345 C 0.65866 0.19398 0.11179 0.0
C346 C 0.63783 0.20769 0.18439 0.0
C347 C 0.64756 0.21915 0.15532 0.0
C348 C 0.65831 0.21204 0.11913 0.0
C349 C 0.63854 0.18977 0.17581 0.0
N350 N 0.649 0.18298 0.14017 0.0
H351 H 0.6657 0.18911 0.08085 0.0
H352 H 0.62958 0.18153 0.19558 0.0
H353 H 0.62302 0.18708 0.0658 0.0
H354 H 0.6085 0.14212 0.14325 0.0
O355 O 0.64999 0.16105 0.05125 0.0
O356 O 0.64288 0.13643 0.08898 0.0
O357 O 0.63999 0.151 0.18858 0.0
C358 C 0.64631 0.14449 0.04842 0.0
H359 H 0.70221 0.12671 0.1586 0.0
H360 H 0.58859 0.18423 0.06173 0.0
H361 H 0.6288 0.21256 0.21152 0.0
H362 H 0.66589 0.22038 0.09532 0.0
Co363 Co 0.59466 0.89311 0.8583 0.0
C364 C 0.59173 0.9311 0.83971 0.0
C365 C 0.6085 0.92594 0.9002 0.0
C366 C 0.60921 0.94352 0.88984 0.0
N367 N 0.59713 0.91813 0.86961 0.0
N368 N 0.59875 0.9467 0.85148 0.0
H369 H 0.58385 0.92906 0.80768 0.0
H370 H 0.61686 0.91924 0.92575 0.0
C371 C 0.5976 0.89399 0.96727 0.0
O372 O 0.58551 0.90615 0.96832 0.0
N373 N 0.5926 0.86844 0.84526 0.0
C374 C 0.58058 0.86109 0.81599 0.0
C375 C 0.58435 0.84366 0.81109 0.0
C376 C 0.6036 0.85544 0.85777 0.0
N377 N 0.59884 0.84013 0.83718 0.0
C378 C 0.55824 0.90216 0.84972 0.0
C379 C 0.5466 0.87765 0.91596 0.0
C380 C 0.53434 0.88617 0.88653 0.0
C381 C 0.54031 0.899 0.8542 0.0
C382 C 0.56433 0.88111 0.91015 0.0
N383 N 0.57008 0.89316 0.8771 0.0
H384 H 0.56252 0.91078 0.82127 0.0
H385 H 0.57347 0.87297 0.9296 0.0
H386 H 0.57001 0.86804 0.79851 0.0
H387 H 0.61517 0.85729 0.87976 0.0
O388 O 0.59214 0.89741 0.78947 0.0
O389 O 0.61728 0.89299 0.82774 0.0
O390 O 0.6026 0.8876 0.92665 0.0
C391 C 0.60903 0.8957 0.78706 0.0
H392 H 0.61782 0.95295 0.90669 0.0
H393 H 0.57705 0.83431 0.78971 0.0
H394 H 0.54262 0.86765 0.94152 0.0
H395 H 0.53136 0.90563 0.82996 0.0
Co396 Co 0.85869 0.15635 0.89702 0.0
C397 C 0.82049 0.15783 0.91422 0.0
C398 C 0.8271 0.13988 0.85753 0.0
C399 C 0.80976 0.13772 0.86887 0.0
N400 N 0.83388 0.15274 0.88532 0.0
N401 N 0.80565 0.14895 0.90478 0.0
H402 H 0.82193 0.16628 0.9454 0.0
H403 H 0.83455 0.13143 0.83387 0.0
C404 C 0.85766 0.15289 0.78854 0.0
O405 O 0.84481 0.16425 0.78783 0.0
N406 N 0.88324 0.1593 0.9101 0.0
C407 C 0.89035 0.17162 0.93886 0.0
C408 C 0.90785 0.16814 0.944 0.0
C409 C 0.8964 0.14845 0.89817 0.0
N410 N 0.91162 0.15355 0.91856 0.0
C411 C 0.84838 0.19249 0.90425 0.0
C412 C 0.87252 0.20455 0.83752 0.0
C413 C 0.86367 0.21668 0.86657 0.0
C414 C 0.851 0.2105 0.89912 0.0
C415 C 0.86961 0.18676 0.84399 0.0
N416 N 0.85776 0.18081 0.8773 0.0
H417 H 0.83988 0.18806 0.93283 0.0
H418 H 0.87804 0.1778 0.82488 0.0
H419 H 0.8832 0.18214 0.95594 0.0
H420 H 0.89472 0.13668 0.87689 0.0
O421 O 0.85413 0.15905 0.96565 0.0
O422 O 0.8596 0.13389 0.9285 0.0
O423 O 0.86454 0.14838 0.82897 0.0
C424 C 0.85646 0.14226 0.96879 0.0
H425 H 0.80116 0.12784 0.85412 0.0
H426 H 0.91707 0.17565 0.96525 0.0
H427 H 0.8824 0.2087 0.81181 0.0
H428 H 0.84412 0.21938 0.92302 0.0
Co429 Co 0.59296 0.1106 0.65071 0.0
C430 C 0.59096 0.07262 0.6709 0.0
C431 C 0.60702 0.07778 0.60892 0.0
C432 C 0.60803 0.06024 0.61962 0.0
N433 N 0.59587 0.08556 0.64021 0.0
N434 N 0.59801 0.05706 0.65889 0.0
H435 H 0.58335 0.07466 0.70347 0.0
H436 H 0.61504 0.08446 0.5825 0.0
C437 C 0.59604 0.10968 0.54168 0.0
O438 O 0.58396 0.0975 0.54047 0.0
N439 N 0.5906 0.1353 0.66289 0.0
C440 C 0.57791 0.14289 0.68937 0.0
C441 C 0.58199 0.16022 0.69551 0.0
C442 C 0.60231 0.148 0.65358 0.0
N443 N 0.59738 0.16341 0.67328 0.0
C444 C 0.55682 0.09995 0.65627 0.0
C445 C 0.54465 0.12378 0.58884 0.0
C446 C 0.53251 0.11361 0.61446 0.0
C447 C 0.53885 0.10141 0.64815 0.0
C448 C 0.56246 0.1219 0.59802 0.0
N449 N 0.56845 0.10999 0.63108 0.0
H450 H 0.56119 0.09143 0.68479 0.0
H451 H 0.57137 0.1308 0.58038 0.0
H452 H 0.56673 0.13616 0.70439 0.0
H453 H 0.61455 0.1458 0.63487 0.0
O454 O 0.59026 0.10657 0.71967 0.0
O455 O 0.61546 0.11115 0.68176 0.0
O456 O 0.60102 0.11601 0.58238 0.0
C457 C 0.60713 0.1085 0.72236 0.0
H458 H 0.61654 0.05084 0.60221 0.0
H459 H 0.57428 0.16967 0.71536 0.0
H460 H 0.54044 0.13381 0.5637 0.0
H461 H 0.53 0.09334 0.6691 0.0
Co462 Co 0.64404 0.84333 0.38976 0.0
C463 C 0.68185 0.84117 0.4112 0.0
C464 C 0.67676 0.85929 0.35371 0.0
C465 C 0.6942 0.86028 0.36565 0.0
N466 N 0.66904 0.84694 0.38138 0.0
N467 N 0.69732 0.84897 0.40214 0.0
H468 H 0.67976 0.83241 0.44137 0.0
H469 H 0.67003 0.86799 0.32912 0.0
C470 C 0.64671 0.84756 0.28098 0.0
O471 O 0.65986 0.83655 0.28038 0.0
N472 N 0.61933 0.83998 0.3998 0.0
C473 C 0.61222 0.82709 0.42655 0.0
C474 C 0.59442 0.82897 0.42619 0.0
C475 C 0.6058 0.84974 0.38402 0.0
N476 N 0.59036 0.84317 0.39947 0.0
C477 C 0.65342 0.80712 0.40102 0.0
C478 C 0.63281 0.79503 0.32587 0.0
C479 C 0.63994 0.78285 0.3584 0.0
C480 C 0.65083 0.78912 0.39556 0.0
C481 C 0.63529 0.81282 0.33349 0.0
N482 N 0.64555 0.81882 0.37058 0.0
H483 H 0.66048 0.81156 0.4325 0.0
H484 H 0.62767 0.82168 0.3117 0.0
H485 H 0.61952 0.81706 0.44532 0.0
H486 H 0.60721 0.86127 0.36162 0.0
O487 O 0.6475 0.84091 0.45906 0.0
O488 O 0.64243 0.86586 0.4205 0.0
O489 O 0.63918 0.85136 0.32109 0.0
C490 C 0.64509 0.8577 0.46135 0.0
H491 H 0.70353 0.86957 0.35133 0.0
H492 H 0.58518 0.82069 0.44505 0.0
H493 H 0.62449 0.79098 0.29612 0.0
H494 H 0.65633 0.78037 0.42238 0.0
Co495 Co 0.90875 0.89376 0.14649 0.0
C496 C 0.90871 0.9319 0.1663 0.0
C497 C 0.89054 0.92497 0.11046 0.0
C498 C 0.88799 0.94222 0.12238 0.0
N499 N 0.90381 0.91848 0.13724 0.0
N500 N 0.8994 0.94653 0.15765 0.0
H501 H 0.91744 0.93061 0.19689 0.0
H502 H 0.88222 0.91739 0.08679 0.0
C503 C 0.90438 0.8958 0.03817 0.0
O504 O 0.91507 0.90921 0.03745 0.0
N505 N 0.91296 0.86921 0.15698 0.0
C506 C 0.92691 0.86197 0.17898 0.0
C507 C 0.92442 0.84421 0.1814 0.0
C508 C 0.90199 0.8559 0.14736 0.0
N509 N 0.90873 0.84047 0.16179 0.0
C510 C 0.94421 0.9062 0.15312 0.0
C511 C 0.95742 0.88471 0.08127 0.0
C512 C 0.9691 0.8946 0.10925 0.0
C513 C 0.96222 0.90569 0.14501 0.0
C514 C 0.93954 0.88562 0.0905 0.0
N515 N 0.93302 0.89635 0.12591 0.0
H516 H 0.9395 0.91363 0.18353 0.0
H517 H 0.93109 0.87668 0.07138 0.0
H518 H 0.93801 0.86913 0.19281 0.0
H519 H 0.88936 0.85748 0.13032 0.0
O520 O 0.9115 0.89758 0.21547 0.0
O521 O 0.88652 0.89132 0.17828 0.0
O522 O 0.90069 0.88829 0.07836 0.0
C523 C 0.89484 0.89441 0.21864 0.0
H524 H 0.87785 0.95064 0.10819 0.0
H525 H 0.93325 0.83479 0.19742 0.0
H526 H 0.96208 0.87547 0.05444 0.0
H527 H 0.97071 0.91348 0.16784 0.0
Co528 Co 0.64238 0.65693 0.9014 0.0
C529 C 0.68038 0.65889 0.92069 0.0
C530 C 0.675 0.6424 0.85978 0.0
C531 C 0.69256 0.64139 0.87015 0.0
N532 N 0.66735 0.65381 0.89059 0.0
N533 N 0.69588 0.65169 0.90874 0.0
H534 H 0.67846 0.66672 0.95287 0.0
H535 H 0.66819 0.63425 0.83394 0.0
C536 C 0.64312 0.65341 0.79227 0.0
O537 O 0.6556 0.66515 0.78998 0.0
N538 N 0.61772 0.65946 0.9137 0.0
C539 C 0.61009 0.67205 0.94043 0.0
C540 C 0.59274 0.66794 0.9463 0.0
C541 C 0.60503 0.64779 0.90395 0.0
N542 N 0.58959 0.65264 0.92357 0.0
C543 C 0.65314 0.69295 0.90736 0.0
C544 C 0.62988 0.7053 0.83872 0.0
C545 C 0.64003 0.71733 0.86474 0.0
C546 C 0.65194 0.7109 0.89905 0.0
C547 C 0.63151 0.68747 0.84811 0.0
N548 N 0.64319 0.68139 0.8817 0.0
H549 H 0.66138 0.68854 0.93647 0.0
H550 H 0.62261 0.67864 0.83021 0.0
H551 H 0.6168 0.68318 0.95577 0.0
H552 H 0.60727 0.63563 0.8849 0.0
O553 O 0.64652 0.65962 0.97025 0.0
O554 O 0.64167 0.63445 0.93246 0.0
O555 O 0.63679 0.64887 0.83336 0.0
C556 C 0.64441 0.64278 0.97299 0.0
H557 H 0.70187 0.63273 0.85298 0.0
H558 H 0.58324 0.67556 0.96624 0.0
H559 H 0.62006 0.70961 0.8131 0.0
H560 H 0.65995 0.71968 0.92036 0.0
Co561 Co 0.59379 0.39214 0.14938 0.0
C562 C 0.58993 0.42961 0.16681 0.0
C563 C 0.60506 0.42505 0.10235 0.0
C564 C 0.60518 0.44273 0.11247 0.0
N565 N 0.5955 0.41689 0.13662 0.0
N566 N 0.59584 0.4455 0.15343 0.0
H567 H 0.58237 0.42717 0.19936 0.0
H568 H 0.6123 0.41857 0.07381 0.0
C569 C 0.59295 0.37393 0.05308 0.0
O570 O 0.5808 0.36393 0.07217 0.0
N571 N 0.59245 0.36733 0.16422 0.0
C572 C 0.58163 0.35925 0.19581 0.0
C573 C 0.58703 0.34233 0.20206 0.0
C574 C 0.60456 0.35515 0.15261 0.0
N575 N 0.60144 0.33976 0.17501 0.0
C576 C 0.55778 0.39297 0.17719 0.0
C577 C 0.54344 0.3939 0.08514 0.0
C578 C 0.5326 0.3903 0.12504 0.0
C579 C 0.53985 0.39087 0.17168 0.0
C580 C 0.56147 0.39593 0.09249 0.0
N581 N 0.56859 0.39359 0.13771 0.0
H582 H 0.56296 0.39319 0.21362 0.0
H583 H 0.56962 0.39882 0.06152 0.0
H584 H 0.57107 0.36518 0.21556 0.0
H585 H 0.61581 0.35773 0.12991 0.0
O586 O 0.59374 0.3969 0.21828 0.0
O587 O 0.61754 0.39202 0.17481 0.0
O588 O 0.59925 0.38656 0.07819 0.0
C589 C 0.61056 0.3952 0.21716 0.0
H590 H 0.61258 0.45257 0.09317 0.0
H591 H 0.581 0.33272 0.22559 0.0
H592 H 0.53822 0.39431 0.04854 0.0
H593 H 0.5318 0.38909 0.20372 0.0
Co594 Co 0.85883 0.34393 0.39152 0.0
C595 C 0.82125 0.3406 0.41422 0.0
C596 C 0.82534 0.3576 0.3536 0.0
C597 C 0.80799 0.35836 0.36662 0.0
N598 N 0.83367 0.34608 0.38266 0.0
N599 N 0.80551 0.34779 0.40513 0.0
H600 H 0.82384 0.33262 0.44575 0.0
H601 H 0.8316 0.3661 0.32752 0.0
C602 C 0.85658 0.34725 0.28294 0.0
O603 O 0.84447 0.33511 0.28293 0.0
N604 N 0.88365 0.34217 0.40239 0.0
C605 C 0.89146 0.32994 0.43004 0.0
C606 C 0.90878 0.33415 0.4349 0.0
C607 C 0.89627 0.35373 0.39083 0.0
N608 N 0.91178 0.34912 0.41047 0.0
C609 C 0.8503 0.30732 0.39918 0.0
C610 C 0.87423 0.29645 0.3303 0.0
C611 C 0.86614 0.28389 0.35967 0.0
C612 C 0.8536 0.28947 0.39342 0.0
C613 C 0.87067 0.31409 0.33746 0.0
N614 N 0.85891 0.31945 0.37177 0.0
H615 H 0.8419 0.31132 0.42845 0.0
H616 H 0.87851 0.32344 0.31787 0.0
H617 H 0.88486 0.31899 0.44675 0.0
H618 H 0.89399 0.36562 0.37053 0.0
O619 O 0.85535 0.34104 0.46058 0.0
O620 O 0.85895 0.36641 0.42276 0.0
O621 O 0.86345 0.35221 0.32298 0.0
C622 C 0.85676 0.35794 0.46335 0.0
H623 H 0.79832 0.36715 0.35165 0.0
H624 H 0.9184 0.32686 0.45536 0.0
H625 H 0.88397 0.29278 0.30363 0.0
H626 H 0.8473 0.28026 0.41763 0.0
Co627 Co 0.91149 0.60823 0.6355 0.0
C628 C 0.9056 0.57132 0.66369 0.0
C629 C 0.9082 0.57394 0.58642 0.0
C630 C 0.90648 0.55645 0.59765 0.0
N631 N 0.90754 0.58329 0.62792 0.0
N632 N 0.90484 0.55486 0.64636 0.0
H633 H 0.90556 0.57442 0.70201 0.0
H634 H 0.91034 0.57932 0.55055 0.0
C635 C 0.88979 0.61241 0.54672 0.0
O636 O 0.87623 0.60808 0.57332 0.0
N637 N 0.91563 0.63293 0.6437 0.0
C638 C 0.93005 0.64012 0.66318 0.0
C639 C 0.92739 0.65771 0.66837 0.0
C640 C 0.90424 0.64622 0.63795 0.0
N641 N 0.91109 0.66159 0.65304 0.0
C642 C 0.94614 0.59573 0.64821 0.0
C643 C 0.96101 0.61497 0.57373 0.0
C644 C 0.97187 0.60685 0.6079 0.0
C645 C 0.96428 0.59666 0.64453 0.0
C646 C 0.94291 0.61401 0.5793 0.0
N647 N 0.93574 0.60499 0.61729 0.0
H648 H 0.94043 0.58853 0.67806 0.0
H649 H 0.93484 0.62176 0.5555 0.0
H650 H 0.94156 0.633 0.67434 0.0
H651 H 0.891 0.64448 0.62518 0.0
O652 O 0.91382 0.60551 0.70491 0.0
O653 O 0.88891 0.61094 0.66691 0.0
O654 O 0.90499 0.61255 0.56564 0.0
C655 C 0.89717 0.60848 0.70778 0.0
H656 H 0.90666 0.54577 0.57191 0.0
H657 H 0.93676 0.66684 0.6831 0.0
H658 H 0.96644 0.62314 0.54535 0.0
H659 H 0.97231 0.59019 0.6715 0.0
Co660 Co 0.64428 0.34363 0.6125 0.0
C661 C 0.68171 0.34059 0.59624 0.0
C662 C 0.67662 0.35782 0.65611 0.0
C663 C 0.69425 0.35842 0.64524 0.0
N664 N 0.66885 0.34665 0.62512 0.0
N665 N 0.69732 0.34775 0.60709 0.0
H666 H 0.67949 0.33185 0.56595 0.0
H667 H 0.66984 0.36583 0.6824 0.0
C668 C 0.62611 0.34208 0.7084 0.0
O669 O 0.61718 0.32915 0.68926 0.0
N670 N 0.61959 0.341 0.59772 0.0
C671 C 0.61191 0.32967 0.56676 0.0
C672 C 0.59479 0.3344 0.56037 0.0
C673 C 0.60699 0.3527 0.60881 0.0
N674 N 0.59174 0.34888 0.58671 0.0
C675 C 0.64652 0.30727 0.58822 0.0
C676 C 0.65032 0.29465 0.6816 0.0
C677 C 0.64715 0.28278 0.64367 0.0
C678 C 0.6461 0.28931 0.59614 0.0
C679 C 0.65072 0.31258 0.67179 0.0
N680 N 0.64704 0.31872 0.62622 0.0
H681 H 0.64585 0.3119 0.55124 0.0
H682 H 0.6536 0.32145 0.70121 0.0
H683 H 0.61821 0.31922 0.54749 0.0
H684 H 0.60919 0.36421 0.6308 0.0
O685 O 0.64914 0.34317 0.54362 0.0
O686 O 0.64305 0.36708 0.5854 0.0
O687 O 0.63828 0.34932 0.68336 0.0
C688 C 0.64665 0.3599 0.54358 0.0
H689 H 0.70377 0.36703 0.66169 0.0
H690 H 0.58541 0.32789 0.53718 0.0
H691 H 0.65219 0.29015 0.71859 0.0
H692 H 0.64415 0.28073 0.5653 0.0
Co693 Co 0.90789 0.39294 0.86144 0.0
C694 C 0.90964 0.43072 0.83922 0.0
C695 C 0.89133 0.42542 0.89605 0.0
C696 C 0.88972 0.44268 0.88269 0.0
N697 N 0.90413 0.41793 0.86956 0.0
N698 N 0.90115 0.44596 0.84654 0.0
H699 H 0.91862 0.42864 0.80963 0.0
H700 H 0.88266 0.41855 0.92045 0.0
C701 C 0.90389 0.39589 0.96976 0.0
O702 O 0.91498 0.40898 0.96936 0.0
N703 N 0.91126 0.36823 0.85155 0.0
C704 C 0.92422 0.36109 0.8251 0.0
C705 C 0.92222 0.3433 0.82519 0.0
C706 C 0.90133 0.35474 0.86679 0.0
N707 N 0.90787 0.3393 0.85137 0.0
C708 C 0.94407 0.4028 0.85149 0.0
C709 C 0.95613 0.38066 0.92332 0.0
C710 C 0.96823 0.38836 0.89171 0.0
C711 C 0.96205 0.40008 0.85655 0.0
C712 C 0.93835 0.38362 0.91686 0.0
N713 N 0.93237 0.39447 0.88099 0.0
H714 H 0.93967 0.41029 0.82083 0.0
H715 H 0.92942 0.37581 0.938 0.0
H716 H 0.93436 0.36837 0.80671 0.0
H717 H 0.88969 0.35619 0.88873 0.0
O718 O 0.91047 0.39635 0.79222 0.0
O719 O 0.88543 0.39127 0.83046 0.0
O720 O 0.89986 0.38818 0.9301 0.0
C721 C 0.89367 0.39393 0.78974 0.0
H722 H 0.87989 0.45165 0.89583 0.0
H723 H 0.93051 0.33404 0.80648 0.0
H724 H 0.96028 0.3715 0.95102 0.0
H725 H 0.97089 0.40601 0.8306 0.0
Co726 Co 0.8601 0.65952 0.10522 0.0
C727 C 0.82253 0.66049 0.08395 0.0
C728 C 0.8275 0.64646 0.15009 0.0
C729 C 0.80988 0.64562 0.14002 0.0
N730 N 0.83539 0.65581 0.11485 0.0
N731 N 0.80684 0.65432 0.09817 0.0
H732 H 0.82468 0.66792 0.05101 0.0
H733 H 0.83409 0.64007 0.17992 0.0
C734 C 0.87743 0.65744 0.20377 0.0
O735 O 0.88875 0.66918 0.1891 0.0
N736 N 0.88493 0.66304 0.09396 0.0
C737 C 0.89325 0.67764 0.07903 0.0
C738 C 0.91082 0.67433 0.07627 0.0
C739 C 0.89764 0.65089 0.09864 0.0
N740 N 0.91355 0.65755 0.08859 0.0
C741 C 0.85484 0.69542 0.08098 0.0
C742 C 0.85843 0.70912 0.17331 0.0
C743 C 0.85963 0.72027 0.13303 0.0
C744 C 0.85667 0.71337 0.08673 0.0
C745 C 0.85657 0.69111 0.1658 0.0
N746 N 0.85668 0.68435 0.11969 0.0
H747 H 0.85364 0.6905 0.04444 0.0
H748 H 0.85565 0.68279 0.19722 0.0
H749 H 0.88731 0.69001 0.07086 0.0
H750 H 0.89537 0.63767 0.11095 0.0
O751 O 0.85653 0.66036 0.03585 0.0
O752 O 0.86227 0.63627 0.07711 0.0
O753 O 0.86474 0.65298 0.176 0.0
C754 C 0.85924 0.64368 0.03531 0.0
H755 H 0.80023 0.6384 0.16056 0.0
H756 H 0.92087 0.68357 0.0661 0.0
H757 H 0.85997 0.71411 0.20994 0.0
H758 H 0.85689 0.72167 0.05481 0.0
Co759 Co 0.59294 0.60683 0.37203 0.0
C760 C 0.59065 0.56913 0.34819 0.0
C761 C 0.60929 0.57388 0.40459 0.0
C762 C 0.61029 0.55657 0.39139 0.0
N763 N 0.59658 0.58174 0.37855 0.0
N764 N 0.59866 0.55365 0.35558 0.0
H765 H 0.58163 0.57141 0.31876 0.0
H766 H 0.61819 0.58048 0.4289 0.0
C767 C 0.59768 0.603 0.47961 0.0
O768 O 0.58671 0.58982 0.47837 0.0
N769 N 0.58966 0.63166 0.36334 0.0
C770 C 0.57572 0.63903 0.34181 0.0
C771 C 0.57867 0.65657 0.33705 0.0
C772 C 0.60112 0.64481 0.37065 0.0
N773 N 0.59471 0.66027 0.35463 0.0
C774 C 0.55652 0.59709 0.36523 0.0
C775 C 0.54555 0.61879 0.43949 0.0
C776 C 0.53299 0.61132 0.40897 0.0
C777 C 0.53862 0.5998 0.37254 0.0
C778 C 0.5632 0.61591 0.4307 0.0
N779 N 0.56865 0.6053 0.39364 0.0
H780 H 0.56051 0.58971 0.33387 0.0
H781 H 0.5724 0.62367 0.45102 0.0
H782 H 0.56432 0.63205 0.32922 0.0
H783 H 0.61408 0.64294 0.38539 0.0
O784 O 0.58974 0.6039 0.30279 0.0
O785 O 0.61512 0.60851 0.33967 0.0
O786 O 0.60155 0.61113 0.44045 0.0
C787 C 0.60654 0.60623 0.29935 0.0
H788 H 0.61979 0.54722 0.40443 0.0
H789 H 0.56963 0.66581 0.32126 0.0
H790 H 0.54183 0.62778 0.4681 0.0
H791 H 0.52938 0.59404 0.34743 0.0
Co792 Co 0.35794 0.34408 0.10499 0.0
C793 C 0.32018 0.34435 0.08537 0.0
C794 C 0.32694 0.36196 0.14316 0.0
C795 C 0.30956 0.36419 0.13203 0.0
N796 N 0.33357 0.34957 0.11378 0.0
N797 N 0.30536 0.35319 0.09548 0.0
H798 H 0.32157 0.33523 0.05555 0.0
H799 H 0.33441 0.36959 0.16885 0.0
C800 C 0.37421 0.34465 0.20454 0.0
O801 O 0.38415 0.33152 0.19123 0.0
N802 N 0.38262 0.33902 0.095 0.0
C803 C 0.39019 0.32448 0.07693 0.0
C804 C 0.40794 0.32687 0.07532 0.0
C805 C 0.39599 0.35025 0.10267 0.0
N806 N 0.41157 0.34304 0.09148 0.0
C807 C 0.35184 0.30798 0.08361 0.0
C808 C 0.34888 0.2963 0.17817 0.0
C809 C 0.35068 0.28398 0.14065 0.0
C810 C 0.35122 0.29009 0.09262 0.0
C811 C 0.34954 0.31415 0.16735 0.0
N812 N 0.35277 0.31971 0.12095 0.0
H813 H 0.35306 0.31222 0.04635 0.0
H814 H 0.34779 0.32333 0.19664 0.0
H815 H 0.38363 0.31286 0.06491 0.0
H816 H 0.39436 0.36327 0.11724 0.0
O817 O 0.35444 0.34303 0.0356 0.0
O818 O 0.36172 0.3669 0.07625 0.0
O819 O 0.36265 0.35065 0.17535 0.0
C820 C 0.35825 0.35953 0.03468 0.0
H821 H 0.30086 0.37369 0.14823 0.0
H822 H 0.41746 0.31748 0.0626 0.0
H823 H 0.34743 0.2922 0.21567 0.0
H824 H 0.35233 0.28122 0.06214 0.0
Co825 Co 0.40915 0.60899 0.85984 0.0
C826 C 0.41141 0.57188 0.83075 0.0
C827 C 0.39515 0.57544 0.89358 0.0
C828 C 0.3945 0.55818 0.88001 0.0
N829 N 0.40576 0.58401 0.86275 0.0
N830 N 0.40465 0.55593 0.8403 0.0
H831 H 0.4199 0.57481 0.80034 0.0
H832 H 0.38771 0.58139 0.92257 0.0
C833 C 0.38939 0.61781 0.94782 0.0
O834 O 0.37698 0.62262 0.91777 0.0
N835 N 0.41241 0.63419 0.85847 0.0
C836 C 0.42425 0.64289 0.88563 0.0
C837 C 0.42046 0.66036 0.88484 0.0
C838 C 0.40139 0.6467 0.8419 0.0
N839 N 0.40606 0.66274 0.85765 0.0
C840 C 0.44528 0.61098 0.83881 0.0
C841 C 0.45761 0.5997 0.92799 0.0
C842 C 0.46954 0.60579 0.89301 0.0
C843 C 0.46315 0.61104 0.84759 0.0
C844 C 0.4397 0.59961 0.91741 0.0
N845 N 0.43377 0.60584 0.87388 0.0
H846 H 0.44064 0.61604 0.80454 0.0
H847 H 0.43065 0.59501 0.94469 0.0
H848 H 0.43424 0.63695 0.90782 0.0
H849 H 0.38946 0.64411 0.82219 0.0
O850 O 0.41065 0.60762 0.79011 0.0
O851 O 0.38602 0.61133 0.83076 0.0
O852 O 0.40349 0.6113 0.93106 0.0
C853 C 0.39387 0.60945 0.78903 0.0
H854 H 0.3864 0.54827 0.89671 0.0
H855 H 0.42722 0.67046 0.90494 0.0
H856 H 0.46205 0.59534 0.96336 0.0
H857 H 0.4718 0.6161 0.81976 0.0
Co858 Co 0.14481 0.66011 0.60695 0.0
C859 C 0.18226 0.66115 0.5804 0.0
C860 C 0.17865 0.6498 0.65098 0.0
C861 C 0.19603 0.64853 0.63863 0.0
N862 N 0.16994 0.65762 0.61426 0.0
N863 N 0.19823 0.65569 0.59429 0.0
H864 H 0.17957 0.66675 0.54507 0.0
H865 H 0.17287 0.64476 0.68391 0.0
C866 C 0.13829 0.63757 0.6934 0.0
O867 O 0.13926 0.62398 0.66443 0.0
N868 N 0.11984 0.6625 0.59912 0.0
C869 C 0.11113 0.67669 0.58317 0.0
C870 C 0.09355 0.67303 0.58299 0.0
C871 C 0.10753 0.65022 0.60695 0.0
N872 N 0.0914 0.6564 0.59765 0.0
C873 C 0.15433 0.69607 0.59671 0.0
C874 C 0.13415 0.70806 0.67311 0.0
C875 C 0.14112 0.72018 0.64017 0.0
C876 C 0.15196 0.71405 0.60279 0.0
C877 C 0.13675 0.69027 0.66563 0.0
N878 N 0.14623 0.68443 0.62679 0.0
H879 H 0.16163 0.69153 0.56562 0.0
H880 H 0.12976 0.6813 0.6887 0.0
H881 H 0.11711 0.68885 0.57225 0.0
H882 H 0.11025 0.63711 0.61933 0.0
O883 O 0.14742 0.66311 0.53763 0.0
O884 O 0.14378 0.63765 0.57443 0.0
O885 O 0.141 0.65286 0.67661 0.0
C886 C 0.14577 0.6463 0.53401 0.0
H887 H 0.20621 0.64247 0.6601 0.0
H888 H 0.08315 0.68176 0.5721 0.0
H889 H 0.12587 0.71224 0.70287 0.0
H890 H 0.15752 0.72293 0.57633 0.0
Co891 Co 0.09383 0.39417 0.35077 0.0
C892 C 0.09293 0.43212 0.33104 0.0
C893 C 0.10929 0.42644 0.39201 0.0
C894 C 0.11087 0.44393 0.38104 0.0
N895 N 0.09761 0.41905 0.36149 0.0
N896 N 0.10067 0.4474 0.34238 0.0
H897 H 0.08504 0.43033 0.29892 0.0
H898 H 0.11727 0.41949 0.41793 0.0
C899 C 0.09765 0.3948 0.45967 0.0
O900 O 0.08614 0.40749 0.46198 0.0
N901 N 0.0906 0.36959 0.3385 0.0
C902 C 0.07802 0.36249 0.31058 0.0
C903 C 0.08137 0.34496 0.30549 0.0
C904 C 0.10147 0.35638 0.34997 0.0
N905 N 0.09612 0.34116 0.33011 0.0
C906 C 0.0581 0.40587 0.34636 0.0
C907 C 0.04544 0.38241 0.4141 0.0
C908 C 0.03355 0.39285 0.38852 0.0
C909 C 0.04013 0.40489 0.35477 0.0
C910 C 0.06327 0.38381 0.40462 0.0
N911 N 0.0695 0.39553 0.37136 0.0
H912 H 0.06261 0.41422 0.31762 0.0
H913 H 0.07198 0.37467 0.42208 0.0
H914 H 0.06744 0.36968 0.29398 0.0
H915 H 0.11342 0.35804 0.37044 0.0
O916 O 0.09088 0.39844 0.28209 0.0
O917 O 0.11614 0.39296 0.31866 0.0
O918 O 0.10205 0.38838 0.41856 0.0
C919 C 0.10765 0.39606 0.27856 0.0
H920 H 0.11987 0.45302 0.39772 0.0
H921 H 0.07365 0.33575 0.28479 0.0
H922 H 0.04099 0.37249 0.4393 0.0
H923 H 0.03145 0.41314 0.33384 0.0
Co924 Co 0.35884 0.65954 0.39116 0.0
C925 C 0.32077 0.66031 0.4038 0.0
C926 C 0.32848 0.6414 0.35032 0.0
C927 C 0.31091 0.63939 0.35959 0.0
N928 N 0.33463 0.65448 0.37821 0.0
N929 N 0.30614 0.65126 0.3933 0.0
H930 H 0.32165 0.66988 0.43263 0.0
H931 H 0.33642 0.63307 0.32753 0.0
C932 C 0.37837 0.65578 0.29567 0.0
O933 O 0.39014 0.66698 0.3108 0.0
N934 N 0.38313 0.66432 0.40598 0.0
C935 C 0.38992 0.67902 0.42507 0.0
C936 C 0.40749 0.67663 0.43223 0.0
C937 C 0.39662 0.65298 0.40333 0.0
N938 N 0.41178 0.6603 0.41816 0.0
C939 C 0.34972 0.69507 0.41093 0.0
C940 C 0.35829 0.70887 0.3214 0.0
C941 C 0.35528 0.72035 0.36037 0.0
C942 C 0.34988 0.71313 0.40476 0.0
C943 C 0.35749 0.69082 0.32885 0.0
N944 N 0.35476 0.6841 0.3743 0.0
H945 H 0.34646 0.69011 0.44644 0.0
H946 H 0.35946 0.68258 0.29784 0.0
H947 H 0.38273 0.69068 0.43402 0.0
H948 H 0.3954 0.63985 0.38926 0.0
O949 O 0.35392 0.66077 0.45993 0.0
O950 O 0.36142 0.63668 0.42093 0.0
O951 O 0.36485 0.65251 0.32163 0.0
C952 C 0.35733 0.64421 0.46184 0.0
H953 H 0.3025 0.62939 0.34461 0.0
H954 H 0.41636 0.6862 0.44726 0.0
H955 H 0.36201 0.71362 0.2858 0.0
H956 H 0.34641 0.72132 0.43537 0.0
Co957 Co 0.0939 0.60989 0.13698 0.0
C958 C 0.09386 0.5725 0.15938 0.0
C959 C 0.10873 0.5776 0.09475 0.0
C960 C 0.11002 0.56007 0.10577 0.0
N961 N 0.09857 0.58533 0.12845 0.0
N962 N 0.10078 0.55697 0.1467 0.0
H963 H 0.08589 0.5746 0.19135 0.0
H964 H 0.11537 0.58429 0.06546 0.0
C965 C 0.09465 0.62651 0.03736 0.0
O966 O 0.08262 0.63758 0.05168 0.0
N967 N 0.08937 0.63456 0.14737 0.0
C968 C 0.0753 0.64183 0.16878 0.0
C969 C 0.07768 0.65954 0.17137 0.0
C970 C 0.10039 0.64802 0.13871 0.0
N971 N 0.09339 0.66348 0.15223 0.0
C972 C 0.05854 0.6028 0.1638 0.0
C973 C 0.04374 0.60598 0.07272 0.0
C974 C 0.03292 0.60645 0.11385 0.0
C975 C 0.04046 0.60361 0.15948 0.0
C976 C 0.06189 0.605 0.07878 0.0
N977 N 0.06911 0.60532 0.12433 0.0
H978 H 0.06388 0.60166 0.19989 0.0
H979 H 0.06989 0.60451 0.04668 0.0
H980 H 0.06415 0.63496 0.18286 0.0
H981 H 0.11309 0.64652 0.12194 0.0
O982 O 0.09386 0.60672 0.20655 0.0
O983 O 0.11727 0.61327 0.16318 0.0
O984 O 0.09966 0.61421 0.06568 0.0
C985 C 0.11041 0.61013 0.20565 0.0
H986 H 0.11788 0.55055 0.08662 0.0
H987 H 0.06863 0.66878 0.18722 0.0
H988 H 0.03836 0.6074 0.03649 0.0
H989 H 0.03251 0.60312 0.19206 0.0
Co990 Co 0.14476 0.3453 0.88052 0.0
C991 C 0.18295 0.34435 0.89944 0.0
C992 C 0.17609 0.36369 0.84663 0.0
C993 C 0.19337 0.36587 0.85872 0.0
N994 N 0.16954 0.34996 0.87143 0.0
N995 N 0.19764 0.35374 0.89213 0.0
H996 H 0.18163 0.33501 0.92857 0.0
H997 H 0.16852 0.37249 0.8243 0.0
C998 C 0.14776 0.34945 0.77282 0.0
O999 O 0.1614 0.33907 0.77436 0.0
N1000 N 0.12021 0.34117 0.89116 0.0
C1001 C 0.11344 0.32793 0.91725 0.0
C1002 C 0.09565 0.32987 0.91912 0.0
C1003 C 0.1065 0.35118 0.87804 0.0
N1004 N 0.09126 0.34448 0.89452 0.0
C1005 C 0.15554 0.3094 0.89011 0.0
C1006 C 0.13363 0.29688 0.81837 0.0
C1007 C 0.14148 0.28497 0.85018 0.0
C1008 C 0.15312 0.29136 0.88521 0.0
C1009 C 0.13626 0.31471 0.82473 0.0
N1010 N 0.14697 0.32092 0.86061 0.0
H1011 H 0.16294 0.31397 0.92078 0.0
H1012 H 0.12824 0.32344 0.80363 0.0
H1013 H 0.12098 0.31774 0.93451 0.0
H1014 H 0.1077 0.36312 0.85725 0.0
O1015 O 0.1486 0.34266 0.94948 0.0
O1016 O 0.1425 0.36764 0.91215 0.0
O1017 O 0.13954 0.35319 0.81193 0.0
C1018 C 0.14563 0.35934 0.95256 0.0
H1019 H 0.20183 0.37624 0.8461 0.0
H1020 H 0.08669 0.32145 0.93848 0.0
H1021 H 0.12452 0.29254 0.79075 0.0
H1022 H 0.15916 0.28266 0.91129 0.0
Co1023 Co 0.41009 0.3932 0.63627 0.0
C1024 C 0.40624 0.43076 0.65975 0.0
C1025 C 0.40987 0.42692 0.58324 0.0
C1026 C 0.40921 0.44463 0.5925 0.0
N1027 N 0.4079 0.41821 0.62551 0.0
N1028 N 0.40693 0.447 0.64077 0.0
H1029 H 0.40543 0.42817 0.69828 0.0
H1030 H 0.41223 0.42091 0.54826 0.0
C1031 C 0.38911 0.38988 0.54605 0.0
O1032 O 0.37582 0.39628 0.57042 0.0
N1033 N 0.4124 0.36843 0.64757 0.0
C1034 C 0.42544 0.36062 0.67211 0.0
C1035 C 0.42122 0.34335 0.67879 0.0
C1036 C 0.40033 0.3559 0.63998 0.0
N1037 N 0.40538 0.3404 0.65891 0.0
C1038 C 0.44529 0.40495 0.6457 0.0
C1039 C 0.45917 0.38297 0.57583 0.0
C1040 C 0.47053 0.39316 0.60407 0.0
C1041 C 0.46335 0.40451 0.63879 0.0
C1042 C 0.44123 0.3838 0.58392 0.0
N1043 N 0.43454 0.39448 0.619 0.0
H1044 H 0.43992 0.41328 0.67368 0.0
H1045 H 0.43283 0.37508 0.56384 0.0
H1046 H 0.43695 0.36717 0.68569 0.0
H1047 H 0.38779 0.35832 0.62321 0.0
O1048 O 0.41211 0.3968 0.70537 0.0
O1049 O 0.38719 0.39241 0.66613 0.0
O1050 O 0.40391 0.38829 0.56666 0.0
C1051 C 0.39527 0.39479 0.7073 0.0
H1052 H 0.41058 0.4549 0.56576 0.0
H1053 H 0.42914 0.33379 0.69754 0.0
H1054 H 0.46411 0.37374 0.54937 0.0
H1055 H 0.47161 0.41271 0.66111 0.0
H1056 H 0.12209 0.13372 0.98179 0.0
H1057 H 0.11893 0.13148 0.2729 0.0
H1058 H 0.08965 0.0982 0.06371 0.0
H1059 H 0.15476 0.1635 0.19072 0.0
H1060 H 0.10763 0.11957 0.19678 0.0
H1061 H 0.13377 0.14515 0.05795 0.0
C1062 C 0.11743 0.12828 0.01579 0.0
C1063 C 0.10485 0.11495 0.01629 0.0
C1064 C 0.11799 0.12917 0.19538 0.0
C1065 C 0.11819 0.12807 0.10384 0.0
C1066 C 0.12445 0.13601 0.23886 0.0
C1067 C 0.13785 0.14853 0.23826 0.0
C1068 C 0.12489 0.13492 0.15083 0.0
C1069 C 0.14445 0.15387 0.193 0.0
C1070 C 0.12413 0.13483 0.05932 0.0
C1071 C 0.09933 0.10846 0.06152 0.0
N1072 N 0.13789 0.14707 0.15113 0.0
N1073 N 0.106 0.11511 0.10347 0.0
H1074 H 0.12195 0.87135 0.51679 0.0
H1075 H 0.12131 0.87567 0.22579 0.0
H1076 H 0.09192 0.90891 0.43493 0.0
H1077 H 0.15491 0.84144 0.3082 0.0
H1078 H 0.11014 0.88775 0.30185 0.0
H1079 H 0.13385 0.86001 0.44077 0.0
C1080 C 0.11786 0.87725 0.48284 0.0
C1081 C 0.10589 0.89113 0.48232 0.0
C1082 C 0.11999 0.87764 0.30333 0.0
C1083 C 0.11949 0.87811 0.3949 0.0
C1084 C 0.12639 0.87071 0.25987 0.0
C1085 C 0.13909 0.8575 0.26054 0.0
C1086 C 0.12626 0.87128 0.34794 0.0
C1087 C 0.14514 0.85161 0.30587 0.0
C1088 C 0.12469 0.87076 0.43939 0.0
C1089 C 0.10111 0.89822 0.43714 0.0
N1090 N 0.13864 0.85851 0.34772 0.0
N1091 N 0.10789 0.8916 0.39526 0.0
H1092 H 0.34468 0.83912 0.67153 0.0
H1093 H 0.41249 0.90488 0.54552 0.0
H1094 H 0.38151 0.87068 0.75145 0.0
H1095 H 0.37888 0.87011 0.46492 0.0
H1096 H 0.4004 0.89338 0.62134 0.0
H1097 H 0.35615 0.85116 0.59551 0.0
C1098 C 0.35515 0.84859 0.67316 0.0
C1099 C 0.36213 0.85387 0.71804 0.0
C1100 C 0.39565 0.88827 0.58707 0.0
C1101 C 0.37534 0.86774 0.63103 0.0
C1102 C 0.40254 0.89486 0.5437 0.0
C1103 C 0.39671 0.88847 0.49868 0.0
C1104 C 0.38279 0.8752 0.58555 0.0
C1105 C 0.38378 0.87545 0.49872 0.0
C1106 C 0.36171 0.85546 0.62969 0.0
C1107 C 0.37571 0.8662 0.71778 0.0
N1108 N 0.37727 0.86926 0.54143 0.0
N1109 N 0.38185 0.8727 0.67503 0.0
H1110 H 0.35119 0.13827 0.75945 0.0
H1111 H 0.41212 0.13109 0.99527 0.0
H1112 H 0.40061 0.16469 0.77517 0.0
H1113 H 0.3585 0.11381 0.99473 0.0
H1114 H 0.40875 0.14112 0.91182 0.0
H1115 H 0.35421 0.12704 0.84265 0.0
C1116 C 0.36268 0.14169 0.78029 0.0
C1117 C 0.37565 0.15249 0.76023 0.0
C1118 C 0.39769 0.13514 0.92984 0.0
C1119 C 0.37921 0.1396 0.85536 0.0
C1120 C 0.39962 0.12934 0.97765 0.0
C1121 C 0.38555 0.12161 0.00239 0.0
C1122 C 0.38161 0.13315 0.90605 0.0
C1123 C 0.36969 0.11972 0.97723 0.0
C1124 C 0.36437 0.1353 0.82783 0.0
C1125 C 0.39023 0.15649 0.78907 0.0
N1126 N 0.36815 0.12544 0.93043 0.0
N1127 N 0.39162 0.15003 0.83496 0.0
H1128 H 0.88149 0.8724 0.73654 0.0
H1129 H 0.88007 0.86991 0.02749 0.0
H1130 H 0.84506 0.84143 0.81978 0.0
H1131 H 0.91112 0.90634 0.94451 0.0
H1132 H 0.86772 0.85874 0.95181 0.0
H1133 H 0.89304 0.88441 0.81222 0.0
C1134 C 0.87587 0.86814 0.77073 0.0
C1135 C 0.86227 0.85585 0.77175 0.0
C1136 C 0.8772 0.86921 0.95012 0.0
C1137 C 0.87554 0.86955 0.85871 0.0
C1138 C 0.8843 0.87559 0.99335 0.0
C1139 C 0.89668 0.8891 0.99241 0.0
C1140 C 0.88257 0.87629 0.90544 0.0
C1141 C 0.90161 0.89593 0.94703 0.0
C1142 C 0.88248 0.87503 0.81396 0.0
C1143 C 0.85553 0.85087 0.81719 0.0
N1144 N 0.89459 0.88941 0.90537 0.0
N1145 N 0.86228 0.85768 0.85883 0.0
H1146 H 0.88339 0.12843 0.77691 0.0
H1147 H 0.88202 0.13272 0.48583 0.0
H1148 H 0.84792 0.16092 0.6951 0.0
H1149 H 0.91306 0.09589 0.56729 0.0
H1150 H 0.87006 0.14385 0.56212 0.0
H1151 H 0.89503 0.11699 0.7006 0.0
C1152 C 0.87801 0.13315 0.74291 0.0
C1153 C 0.86462 0.14567 0.74247 0.0
C1154 C 0.87946 0.13331 0.56333 0.0
C1155 C 0.87799 0.13262 0.65481 0.0
C1156 C 0.88633 0.12695 0.51974 0.0
C1157 C 0.89857 0.11332 0.52009 0.0
C1158 C 0.88492 0.12607 0.60774 0.0
C1159 C 0.90365 0.10639 0.56521 0.0
C1160 C 0.88468 0.12659 0.69932 0.0
C1161 C 0.85822 0.15128 0.69725 0.0
N1162 N 0.89682 0.11286 0.60719 0.0
N1163 N 0.86498 0.14475 0.65527 0.0
H1164 H 0.61987 0.13214 0.2398 0.0
H1165 H 0.62236 0.13361 0.53109 0.0
H1166 H 0.65833 0.16065 0.32264 0.0
H1167 H 0.58782 0.1006 0.44779 0.0
H1168 H 0.63516 0.14427 0.4553 0.0
H1169 H 0.6075 0.12108 0.31561 0.0
C1170 C 0.62576 0.13607 0.27392 0.0
C1171 C 0.6402 0.14736 0.27476 0.0
C1172 C 0.62481 0.13467 0.45358 0.0
C1173 C 0.62599 0.13473 0.36196 0.0
C1174 C 0.61746 0.12857 0.49688 0.0
C1175 C 0.60397 0.11615 0.49589 0.0
C1176 C 0.6186 0.12839 0.40879 0.0
C1177 C 0.59819 0.11015 0.45039 0.0
C1178 C 0.61867 0.12972 0.31726 0.0
C1179 C 0.64722 0.15197 0.32017 0.0
N1180 N 0.60551 0.11635 0.40872 0.0
N1181 N 0.64003 0.14567 0.36192 0.0
H1182 H 0.62029 0.87125 0.26952 0.0
H1183 H 0.62332 0.86945 0.97828 0.0
H1184 H 0.65738 0.84073 0.18738 0.0
H1185 H 0.58949 0.90337 0.06101 0.0
H1186 H 0.63566 0.85847 0.05427 0.0
H1187 H 0.60863 0.88283 0.1935 0.0
C1188 C 0.62603 0.867 0.23551 0.0
C1189 C 0.63986 0.85497 0.23494 0.0
C1190 C 0.62557 0.86834 0.05583 0.0
C1191 C 0.62647 0.8682 0.14747 0.0
C1192 C 0.61849 0.87463 0.01241 0.0
C1193 C 0.60532 0.88738 0.01318 0.0
C1194 C 0.61942 0.87478 0.10051 0.0
C1195 C 0.59961 0.89355 0.05857 0.0
C1196 C 0.61935 0.87364 0.19205 0.0
C1197 C 0.64673 0.84997 0.18965 0.0
N1198 N 0.60666 0.88717 0.10036 0.0
N1199 N 0.63993 0.85657 0.14776 0.0
H1200 H 0.59332 0.58834 0.56966 0.0
H1201 H 0.61613 0.63028 0.78417 0.0
H1202 H 0.61812 0.63173 0.49712 0.0
H1203 H 0.65411 0.65811 0.69782 0.0
H1204 H 0.60463 0.6171 0.71059 0.0
H1205 H 0.60426 0.59912 0.64711 0.0
C1206 C 0.60096 0.60024 0.57008 0.0
C1207 C 0.60466 0.60921 0.52679 0.0
C1208 C 0.61572 0.62575 0.70748 0.0
C1209 C 0.61686 0.62207 0.616 0.0
C1210 C 0.62221 0.63347 0.7497 0.0
C1211 C 0.63623 0.64525 0.74733 0.0
C1212 C 0.62335 0.6297 0.66227 0.0
C1213 C 0.64335 0.64905 0.70146 0.0
C1214 C 0.60708 0.60653 0.61457 0.0
C1215 C 0.61486 0.62442 0.52958 0.0
N1216 N 0.63681 0.64132 0.66076 0.0
N1217 N 0.62057 0.63037 0.5734 0.0
H1218 H 0.602 0.32775 0.76894 0.0
H1219 H 0.61789 0.39117 0.99729 0.0
H1220 H 0.64074 0.36863 0.76453 0.0
H1221 H 0.5811 0.34856 0.99221 0.0
H1222 H 0.62677 0.38412 0.91318 0.0
H1223 H 0.59461 0.33608 0.85123 0.0
C1224 C 0.60903 0.33853 0.78524 0.0
C1225 C 0.62207 0.34746 0.75935 0.0
C1226 C 0.61676 0.37637 0.93066 0.0
C1227 C 0.61349 0.35725 0.85517 0.0
C1228 C 0.61167 0.38039 0.97864 0.0
C1229 C 0.59869 0.37047 0.0021 0.0
C1230 C 0.60879 0.36235 0.9061 0.0
C1231 C 0.59112 0.35664 0.97603 0.0
C1232 C 0.60476 0.34332 0.83262 0.0
C1233 C 0.63061 0.36134 0.78303 0.0
N1234 N 0.59627 0.35306 0.92984 0.0
N1235 N 0.62617 0.36583 0.82964 0.0
H1236 H 0.91102 0.4073 0.06239 0.0
H1237 H 0.84646 0.3388 0.19012 0.0
H1238 H 0.88004 0.36972 0.98338 0.0
H1239 H 0.88104 0.37292 0.26968 0.0
H1240 H 0.85752 0.35103 0.11396 0.0
H1241 H 0.89911 0.39592 0.13866 0.0
C1242 C 0.90169 0.39669 0.06102 0.0
C1243 C 0.89655 0.38946 0.01634 0.0
C1244 C 0.86267 0.35586 0.14808 0.0
C1245 C 0.88285 0.37637 0.10361 0.0
C1246 C 0.85634 0.3489 0.19163 0.0
C1247 C 0.86282 0.35482 0.23644 0.0
C1248 C 0.87557 0.3689 0.14924 0.0
C1249 C 0.87565 0.36793 0.23604 0.0
C1250 C 0.8949 0.39019 0.10462 0.0
C1251 C 0.88441 0.37572 0.01691 0.0
N1252 N 0.88159 0.37451 0.19317 0.0
N1253 N 0.87799 0.36963 0.05979 0.0
H1254 H 0.90522 0.66017 0.26525 0.0
H1255 H 0.85984 0.61222 0.49114 0.0
H1256 H 0.8535 0.6381 0.25642 0.0
H1257 H 0.91458 0.62527 0.48446 0.0
H1258 H 0.8565 0.6225 0.40704 0.0
H1259 H 0.90807 0.64857 0.34736 0.0
C1260 C 0.89441 0.6529 0.28058 0.0
C1261 C 0.87907 0.65017 0.25373 0.0
C1262 C 0.86925 0.62303 0.424 0.0
C1263 C 0.88227 0.63678 0.34847 0.0
C1264 C 0.87117 0.61717 0.47205 0.0
C1265 C 0.88752 0.61787 0.49514 0.0
C1266 C 0.88375 0.62979 0.39895 0.0
C1267 C 0.90172 0.62444 0.46841 0.0
C1268 C 0.89609 0.64621 0.32756 0.0
C1269 C 0.86558 0.64052 0.27567 0.0
N1270 N 0.89947 0.63019 0.42204 0.0
N1271 N 0.86746 0.63424 0.32184 0.0
H1272 H 0.41293 0.37279 0.48931 0.0
H1273 H 0.35242 0.36761 0.25214 0.0
H1274 H 0.36048 0.39331 0.48601 0.0
H1275 H 0.40004 0.33829 0.27072 0.0
H1276 H 0.35586 0.37919 0.33483 0.0
H1277 H 0.40921 0.36228 0.40633 0.0
C1278 C 0.40062 0.37516 0.47113 0.0
C1279 C 0.38698 0.38395 0.49492 0.0
C1280 C 0.36553 0.37021 0.32074 0.0
C1281 C 0.38263 0.37186 0.39927 0.0
C1282 C 0.3636 0.36362 0.2735 0.0
C1283 C 0.37595 0.35191 0.25439 0.0
C1284 C 0.37999 0.3652 0.34892 0.0
C1285 C 0.39015 0.3472 0.28387 0.0
C1286 C 0.39849 0.36908 0.42366 0.0
C1287 C 0.37134 0.38657 0.46923 0.0
N1288 N 0.39179 0.35388 0.32945 0.0
N1289 N 0.36959 0.38057 0.42278 0.0
H1290 H 0.35932 0.62469 0.998 0.0
H1291 H 0.4079 0.6532 0.24076 0.0
H1292 H 0.41486 0.61867 0.01793 0.0
H1293 H 0.35283 0.64151 0.2376 0.0
H1294 H 0.41059 0.64214 0.1577 0.0
H1295 H 0.35647 0.63226 0.08417 0.0
C1296 C 0.37091 0.62486 0.02056 0.0
C1297 C 0.38737 0.62108 1.00067 0.0
C1298 C 0.39793 0.64189 0.17525 0.0
C1299 C 0.3842 0.62995 0.09923 0.0
C1300 C 0.39636 0.64828 0.2226 0.0
C1301 C 0.38009 0.64837 0.2461 0.0
C1302 C 0.38308 0.63577 0.15073 0.0
C1303 C 0.36562 0.64168 0.22088 0.0
C1304 C 0.36926 0.62913 0.06978 0.0
C1305 C 0.40191 0.62145 0.03171 0.0
N1306 N 0.36742 0.63582 0.17436 0.0
N1307 N 0.40001 0.62599 0.0793 0.0
H1308 H 0.09294 0.65456 0.97655 0.0
H1309 H 0.13436 0.60708 0.74539 0.0
H1310 H 0.11246 0.6018 0.98387 0.0
H1311 H 0.1306 0.66304 0.75995 0.0
H1312 H 0.12446 0.60402 0.82995 0.0
H1313 H 0.10441 0.65702 0.89402 0.0
C1314 C 0.09961 0.64345 0.96077 0.0
C1315 C 0.10171 0.62793 0.98724 0.0
C1316 C 0.1259 0.61695 0.81457 0.0
C1317 C 0.11488 0.63067 0.89231 0.0
C1318 C 0.13153 0.61872 0.7663 0.0
C1319 C 0.13327 0.63535 0.74528 0.0
C1320 C 0.12175 0.6319 0.84179 0.0
C1321 C 0.12943 0.64995 0.7743 0.0
C1322 C 0.10624 0.64491 0.91366 0.0
C1323 C 0.11059 0.61403 0.96487 0.0
N1324 N 0.12374 0.64787 0.82078 0.0
N1325 N 0.11675 0.61568 0.91855 0.0
H1326 H 0.16241 0.345 0.68279 0.0
H1327 H 0.12062 0.36766 0.46784 0.0
H1328 H 0.11868 0.36935 0.75493 0.0
H1329 H 0.09283 0.40568 0.5541 0.0
H1330 H 0.13358 0.35599 0.54157 0.0
H1331 H 0.15159 0.35577 0.60521 0.0
C1332 C 0.15043 0.35249 0.68226 0.0
C1333 C 0.14138 0.35613 0.72548 0.0
C1334 C 0.12498 0.36712 0.54461 0.0
C1335 C 0.12851 0.36818 0.63613 0.0
C1336 C 0.11739 0.37371 0.50232 0.0
C1337 C 0.1057 0.38779 0.50463 0.0
C1338 C 0.12097 0.37472 0.58981 0.0
C1339 C 0.10184 0.39488 0.55051 0.0
C1340 C 0.14412 0.35852 0.63769 0.0
C1341 C 0.12605 0.36613 0.72252 0.0
N1342 N 0.10943 0.38824 0.59127 0.0
N1343 N 0.12011 0.3718 0.67864 0.0
H1344 H 0.13163 0.11315 0.48334 0.0
H1345 H 0.14022 0.12368 0.77139 0.0
H1346 H 0.15791 0.1564 0.5522 0.0
H1347 H 0.09765 0.09664 0.70152 0.0
H1348 H 0.15302 0.12946 0.69133 0.0
H1349 H 0.12553 0.10081 0.56375 0.0
C1350 C 0.13644 0.11985 0.51534 0.0
C1351 C 0.14512 0.1359 0.51132 0.0
C1352 C 0.14101 0.12205 0.69369 0.0
C1353 C 0.13822 0.12188 0.60293 0.0
C1354 C 0.13374 0.11867 0.73925 0.0
C1355 C 0.11776 0.10985 0.74285 0.0
C1356 C 0.13234 0.11633 0.65167 0.0
C1357 C 0.10989 0.10367 0.70016 0.0
C1358 C 0.13287 0.11286 0.56111 0.0
C1359 C 0.15102 0.14408 0.55387 0.0
N1360 N 0.11722 0.10712 0.65618 0.0
N1361 N 0.14736 0.13703 0.59805 0.0
H1362 H 0.14004 0.88132 0.72652 0.0
H1363 H 0.13226 0.8924 0.01458 0.0
H1364 H 0.09767 0.90855 0.7968 0.0
H1365 H 0.15761 0.84858 0.94584 0.0
H1366 H 0.12608 0.90464 0.93407 0.0
H1367 H 0.15294 0.87555 0.80645 0.0
C1368 C 0.13363 0.88637 0.75872 0.0
C1369 C 0.11768 0.89525 0.75529 0.0
C1370 C 0.13324 0.89249 0.93676 0.0
C1371 C 0.13238 0.8888 0.84629 0.0
C1372 C 0.13686 0.88555 0.98257 0.0
C1373 C 0.14529 0.86938 0.98665 0.0
C1374 C 0.13832 0.88328 0.89498 0.0
C1375 C 0.15091 0.86099 0.94411 0.0
C1376 C 0.14096 0.88301 0.8042 0.0
C1377 C 0.10989 0.90148 0.79805 0.0
N1378 N 0.14723 0.86801 0.89989 0.0
N1379 N 0.11729 0.89805 0.84194 0.0
H1380 H 0.37376 0.88891 0.96347 0.0
H1381 H 0.36162 0.88183 0.25165 0.0
H1382 H 0.34544 0.84725 0.03373 0.0
H1383 H 0.40556 0.90728 0.18369 0.0
H1384 H 0.34974 0.87536 0.17088 0.0
H1385 H 0.37965 0.90179 0.04342 0.0
C1386 C 0.36853 0.88264 0.99567 0.0
C1387 C 0.35926 0.86691 0.9922 0.0
C1388 C 0.36184 0.8826 0.17377 0.0
C1389 C 0.36585 0.88158 0.08329 0.0
C1390 C 0.36857 0.8864 0.21974 0.0
C1391 C 0.38467 0.89495 0.22417 0.0
C1392 C 0.37119 0.88761 0.13213 0.0
C1393 C 0.39318 0.9005 0.18173 0.0
C1394 C 0.37195 0.88996 0.04117 0.0
C1395 C 0.35281 0.8593 0.03498 0.0
N1396 N 0.38639 0.89664 0.13736 0.0
N1397 N 0.35629 0.86668 0.07887 0.0
H1398 H 0.40627 0.09775 0.30134 0.0
H1399 H 0.34089 0.15397 0.45567 0.0
H1400 H 0.362 0.12373 0.23702 0.0
H1401 H 0.374 0.1149 0.52067 0.0
H1402 H 0.34685 0.14153 0.37555 0.0
H1403 H 0.39345 0.10209 0.38185 0.0
C1404 C 0.39371 0.10415 0.3042 0.0
C1405 C 0.38525 0.11058 0.26265 0.0
C1406 C 0.35256 0.13545 0.40734 0.0
C1407 C 0.37063 0.11581 0.35461 0.0
C1408 C 0.34919 0.14256 0.45306 0.0
C1409 C 0.3571 0.13552 0.49465 0.0
C1410 C 0.36424 0.12142 0.40309 0.0
C1411 C 0.36766 0.12071 0.48941 0.0
C1412 C 0.38637 0.10658 0.35013 0.0
C1413 C 0.36895 0.11863 0.26823 0.0
N1414 N 0.3712 0.11433 0.44427 0.0
N1415 N 0.3623 0.12132 0.31352 0.0
H1416 H 0.86384 0.87841 0.2379 0.0
H1417 H 0.87298 0.88802 0.52601 0.0
H1418 H 0.90626 0.90587 0.30721 0.0
H1419 H 0.8471 0.84461 0.45672 0.0
H1420 H 0.87925 0.90036 0.44571 0.0
H1421 H 0.85169 0.87176 0.31819 0.0
C1422 C 0.87042 0.88331 0.26999 0.0
C1423 C 0.88616 0.89256 0.26611 0.0
C1424 C 0.872 0.88826 0.44822 0.0
C1425 C 0.87232 0.88506 0.35758 0.0
C1426 C 0.86835 0.88125 0.49391 0.0
C1427 C 0.85966 0.8652 0.4978 0.0
C1428 C 0.86671 0.87925 0.40632 0.0
C1429 C 0.85399 0.85693 0.45515 0.0
C1430 C 0.86352 0.87944 0.31568 0.0
C1431 C 0.89418 0.89856 0.30877 0.0
N1432 N 0.85768 0.86403 0.41103 0.0
N1433 N 0.88721 0.89464 0.35288 0.0
H1434 H 0.90682 0.09361 0.20642 0.0
H1435 H 0.84422 0.15398 0.05611 0.0
H1436 H 0.86401 0.12111 0.27368 0.0
H1437 H 0.87179 0.11104 0.98977 0.0
H1438 H 0.85061 0.14172 0.13635 0.0
H1439 H 0.89384 0.09919 0.12657 0.0
C1440 C 0.89457 0.10061 0.20437 0.0
C1441 C 0.88654 0.10705 0.24653 0.0
C1442 C 0.85498 0.13481 0.10421 0.0
C1443 C 0.87178 0.11368 0.15559 0.0
C1444 C 0.85137 0.14182 0.05848 0.0
C1445 C 0.85761 0.13357 0.01643 0.0
C1446 C 0.86523 0.11967 0.10781 0.0
C1447 C 0.86676 0.11781 0.02138 0.0
C1448 C 0.88713 0.10374 0.15886 0.0
C1449 C 0.87064 0.11596 0.24198 0.0
N1450 N 0.87059 0.11153 0.06636 0.0
N1451 N 0.86392 0.11929 0.1972 0.0
H1452 H 0.63913 0.12251 0.74117 0.0
H1453 H 0.62955 0.11383 0.02962 0.0
H1454 H 0.5953 0.09753 0.81107 0.0
H1455 H 0.65809 0.1554 0.95957 0.0
H1456 H 0.62261 0.10168 0.94951 0.0
H1457 H 0.65177 0.12841 0.82131 0.0
C1458 C 0.63234 0.11796 0.77336 0.0
C1459 C 0.61607 0.10966 0.76967 0.0
C1460 C 0.63059 0.11332 0.95181 0.0
C1461 C 0.63046 0.11634 0.86103 0.0
C1462 C 0.63463 0.12021 0.99741 0.0
C1463 C 0.64427 0.13572 0.00106 0.0
C1464 C 0.63643 0.12189 0.90973 0.0
C1465 C 0.65048 0.1435 0.95824 0.0
C1466 C 0.63951 0.12143 0.81898 0.0
C1467 C 0.60779 0.10411 0.81246 0.0
N1468 N 0.64638 0.13654 0.91423 0.0
N1469 N 0.61504 0.10763 0.85649 0.0
H1470 H 0.64075 0.88114 0.76788 0.0
H1471 H 0.6302 0.88934 0.47965 0.0
H1472 H 0.59752 0.90737 0.69887 0.0
H1473 H 0.65681 0.84659 0.54993 0.0
H1474 H 0.62449 0.90226 0.55963 0.0
H1475 H 0.65301 0.87484 0.68744 0.0
C1476 C 0.63405 0.88591 0.73583 0.0
C1477 C 0.61802 0.89462 0.73982 0.0
C1478 C 0.63179 0.89019 0.55737 0.0
C1479 C 0.63195 0.88751 0.6482 0.0
C1480 C 0.63512 0.88285 0.51186 0.0
C1481 C 0.64381 0.86679 0.5084 0.0
C1482 C 0.63742 0.88151 0.59949 0.0
C1483 C 0.64988 0.8589 0.55118 0.0
C1484 C 0.641 0.88222 0.69006 0.0
C1485 C 0.60982 0.90046 0.69723 0.0
N1486 N 0.64649 0.8663 0.5951 0.0
N1487 N 0.61683 0.8967 0.65305 0.0
H1488 H 0.6291 0.61144 0.99209 0.0
H1489 H 0.6382 0.62085 0.2802 0.0
H1490 H 0.656 0.65422 0.06138 0.0
H1491 H 0.59453 0.59552 0.21059 0.0
H1492 H 0.65075 0.62688 0.19999 0.0
H1493 H 0.62249 0.59928 0.07242 0.0
C1494 C 0.63394 0.61807 0.02418 0.0
C1495 C 0.64297 0.63393 0.02031 0.0
C1496 C 0.63854 0.6198 0.20242 0.0
C1497 C 0.6355 0.6201 0.11178 0.0
C1498 C 0.63141 0.61629 0.24805 0.0
C1499 C 0.61523 0.60783 0.25182 0.0
C1500 C 0.62954 0.61458 0.16046 0.0
C1501 C 0.60695 0.60224 0.20911 0.0
C1502 C 0.63006 0.61118 0.06989 0.0
C1503 C 0.64886 0.64204 0.06295 0.0
N1504 N 0.61418 0.60578 0.16504 0.0
N1505 N 0.64494 0.63507 0.10707 0.0
H1506 H 0.63072 0.39117 0.52399 0.0
H1507 H 0.64187 0.3792 0.23594 0.0
H1508 H 0.66117 0.35035 0.4572 0.0
H1509 H 0.60161 0.41029 0.30311 0.0
H1510 H 0.65474 0.3742 0.31658 0.0
H1511 H 0.62568 0.40386 0.44319 0.0
C1512 C 0.63667 0.38512 0.49246 0.0
C1513 C 0.64619 0.36959 0.49712 0.0
C1514 C 0.64327 0.38238 0.3135 0.0
C1515 C 0.64044 0.38391 0.40483 0.0
C1516 C 0.63601 0.38533 0.26749 0.0
C1517 C 0.62057 0.39501 0.26305 0.0
C1518 C 0.63507 0.38928 0.35511 0.0
C1519 C 0.61342 0.40256 0.3051 0.0
C1520 C 0.63371 0.39229 0.44636 0.0
C1521 C 0.65355 0.36222 0.45508 0.0
N1522 N 0.62062 0.39941 0.3494 0.0
N1523 N 0.6504 0.36935 0.41067 0.0
H1524 H 0.86218 0.37884 0.77088 0.0
H1525 H 0.87092 0.38979 0.48295 0.0
H1526 H 0.90487 0.40592 0.70154 0.0
H1527 H 0.84526 0.34605 0.55129 0.0
H1528 H 0.87685 0.40208 0.56357 0.0
H1529 H 0.84949 0.37312 0.69064 0.0
C1530 C 0.8687 0.38387 0.73881 0.0
C1531 C 0.88469 0.39268 0.74259 0.0
C1532 C 0.86968 0.38994 0.56076 0.0
C1533 C 0.87024 0.38629 0.65126 0.0
C1534 C 0.86621 0.38297 0.51489 0.0
C1535 C 0.85777 0.36681 0.5107 0.0
C1536 C 0.86444 0.38076 0.60246 0.0
C1537 C 0.85199 0.35846 0.55313 0.0
C1538 C 0.8615 0.38054 0.69317 0.0
C1539 C 0.89262 0.39888 0.70001 0.0
N1540 N 0.85552 0.3655 0.5974 0.0
N1541 N 0.88535 0.39549 0.65596 0.0
H1542 H 0.90893 0.59568 0.79411 0.0
H1543 H 0.84378 0.65255 0.94998 0.0
H1544 H 0.86579 0.62366 0.73034 0.0
H1545 H 0.87774 0.61404 0.01406 0.0
H1546 H 0.84998 0.6405 0.86957 0.0
H1547 H 0.89644 0.60053 0.87473 0.0
C1548 C 0.89671 0.6027 0.79709 0.0
C1549 C 0.88846 0.60947 0.7556 0.0
C1550 C 0.85586 0.63445 0.90119 0.0
C1551 C 0.87417 0.61521 0.84785 0.0
C1552 C 0.85233 0.64134 0.9471 0.0
C1553 C 0.86039 0.63434 0.98855 0.0
C1554 C 0.86782 0.62068 0.89657 0.0
C1555 C 0.87126 0.61978 0.98294 0.0
C1556 C 0.88955 0.6054 0.84314 0.0
C1557 C 0.87258 0.61829 0.76146 0.0
N1558 N 0.87492 0.61361 0.93761 0.0
N1559 N 0.86608 0.62115 0.80685 0.0
H1560 H 0.37614 0.38969 0.01563 0.0
H1561 H 0.3633 0.38067 0.72756 0.0
H1562 H 0.34417 0.35031 0.94754 0.0
H1563 H 0.40683 0.40709 0.79447 0.0
H1564 H 0.35085 0.37558 0.80858 0.0
H1565 H 0.38213 0.40219 0.93511 0.0
C1566 C 0.37012 0.3839 0.98384 0.0
C1567 C 0.35983 0.36885 0.988 0.0
C1568 C 0.363 0.38272 0.80539 0.0
C1569 C 0.36658 0.383 0.89627 0.0
C1570 C 0.37004 0.3857 0.75923 0.0
C1571 C 0.3862 0.39411 0.75453 0.0
C1572 C 0.37213 0.38835 0.84688 0.0
C1573 C 0.39445 0.40034 0.79666 0.0
C1574 C 0.3736 0.39097 0.93797 0.0
C1575 C 0.35237 0.3618 0.94574 0.0
N1576 N 0.38738 0.39722 0.84115 0.0
N1577 N 0.35598 0.36887 0.90156 0.0
H1578 H 0.40427 0.59439 0.70495 0.0
H1579 H 0.36839 0.61082 0.48028 0.0
H1580 H 0.36308 0.62588 0.76592 0.0
H1581 H 0.34804 0.65681 0.55094 0.0
H1582 H 0.37361 0.59781 0.56021 0.0
H1583 H 0.39215 0.59885 0.62429 0.0
C1584 C 0.3924 0.60197 0.70131 0.0
C1585 C 0.3847 0.6099 0.74197 0.0
C1586 C 0.36808 0.61078 0.5583 0.0
C1587 C 0.37051 0.61493 0.64943 0.0
C1588 C 0.36491 0.61812 0.51261 0.0
C1589 C 0.35814 0.63506 0.50904 0.0
C1590 C 0.3646 0.62055 0.60057 0.0
C1591 C 0.3536 0.64383 0.55208 0.0
C1592 C 0.38534 0.60436 0.65515 0.0
C1593 C 0.36936 0.61954 0.73537 0.0
N1594 N 0.35709 0.63656 0.59607 0.0
N1595 N 0.36294 0.62209 0.6897 0.0
H1596 H 0.13331 0.61379 0.51164 0.0
H1597 H 0.13959 0.62974 0.22395 0.0
H1598 H 0.15631 0.65964 0.44687 0.0
H1599 H 0.10314 0.59441 0.29178 0.0
H1600 H 0.15216 0.63598 0.30437 0.0
H1601 H 0.12851 0.60184 0.42997 0.0
C1602 C 0.13762 0.62119 0.48027 0.0
C1603 C 0.14501 0.6378 0.48588 0.0
C1604 C 0.1416 0.62665 0.30144 0.0
C1605 C 0.13959 0.62426 0.39267 0.0
C1606 C 0.13452 0.62301 0.25562 0.0
C1607 C 0.12023 0.61171 0.25151 0.0
C1608 C 0.1344 0.61874 0.34306 0.0
C1609 C 0.11404 0.60339 0.29359 0.0
C1610 C 0.13482 0.61441 0.43373 0.0
C1611 C 0.15035 0.64687 0.44405 0.0
N1612 N 0.12108 0.60716 0.33767 0.0
N1613 N 0.14743 0.64003 0.39916 0.0
H1614 H 0.09554 0.4081 0.1914 0.0
H1615 H 0.1582 0.34805 0.03986 0.0
H1616 H 0.13918 0.38148 0.25716 0.0
H1617 H 0.1294 0.39014 0.97337 0.0
H1618 H 0.15196 0.36049 0.11997 0.0
H1619 H 0.10805 0.40236 0.11103 0.0
C1620 C 0.10789 0.40127 0.18889 0.0
C1621 C 0.11628 0.3951 0.23079 0.0
C1622 C 0.14726 0.36717 0.08781 0.0
C1623 C 0.13049 0.38828 0.13929 0.0
C1624 C 0.15077 0.36005 0.04216 0.0
C1625 C 0.14417 0.36803 1.00013 0.0
C1626 C 0.13678 0.38215 0.09138 0.0
C1627 C 0.1347 0.38359 0.00499 0.0
C1628 C 0.11504 0.39804 0.14309 0.0
C1629 C 0.13228 0.38641 0.22566 0.0
N1630 N 0.13101 0.38999 0.04992 0.0
N1631 N 0.13873 0.38298 0.18063 0.0
H1632 H 0.29 0.18207 0.55857 0.0
H1633 H 0.21836 0.12507 0.42037 0.0
H1634 H 0.28294 0.12695 0.58295 0.0
H1635 H 0.21195 0.18042 0.44197 0.0
H1636 H 0.24464 0.12587 0.47074 0.0
H1637 H 0.26366 0.18214 0.50735 0.0
C1638 C 0.28287 0.17003 0.55322 0.0
C1639 C 0.28857 0.15452 0.57529 0.0
C1640 C 0.23751 0.13786 0.4644 0.0
C1641 C 0.25873 0.15442 0.51642 0.0
C1642 C 0.2226 0.13743 0.43528 0.0
C1643 C 0.213 0.15273 0.42686 0.0
C1644 C 0.24304 0.15372 0.48478 0.0
C1645 C 0.21896 0.16834 0.44784 0.0
C1646 C 0.26786 0.17007 0.5242 0.0
C1647 C 0.27887 0.13924 0.56728 0.0
N1648 N 0.23366 0.16848 0.47566 0.0
N1649 N 0.26453 0.13955 0.53824 0.0
H1650 H 0.10483 0.98161 0.6165 0.0
H1651 H 0.10324 0.02331 0.88324 0.0
H1652 H 0.09491 0.95132 0.7458 0.0
H1653 H 0.09808 0.05382 0.7522 0.0
H1654 H 0.10246 0.99661 0.83389 0.0
H1655 H 0.10455 0.00823 0.66598 0.0
C1656 C 0.10255 0.9806 0.65529 0.0
C1657 C 0.0998 0.96427 0.677 0.0
C1658 C 0.10141 0.00916 0.816 0.0
C1659 C 0.09959 0.99458 0.73395 0.0
C1660 C 0.10195 0.02436 0.84412 0.0
C1661 C 0.10061 0.04078 0.82185 0.0
C1662 C 0.0998 0.01041 0.76516 0.0
C1663 C 0.09887 0.04145 0.77099 0.0
C1664 C 0.10233 0.99576 0.68348 0.0
C1665 C 0.09682 0.96366 0.72744 0.0
N1666 N 0.09861 0.0265 0.74438 0.0
N1667 N 0.09692 0.97858 0.75425 0.0
H1668 H 0.23096 0.85329 0.12578 0.0
H1669 H 0.27137 0.85467 0.8569 0.0
H1670 H 0.19982 0.84726 0.9962 0.0
H1671 H 0.30244 0.84849 0.98657 0.0
H1672 H 0.24492 0.85394 0.90721 0.0
H1673 H 0.25733 0.85335 0.0753 0.0
C1674 C 0.22969 0.85195 0.08673 0.0
C1675 C 0.21317 0.85018 0.06527 0.0
C1676 C 0.25753 0.85267 0.9246 0.0
C1677 C 0.24326 0.85034 0.00712 0.0
C1678 C 0.27261 0.85319 0.89592 0.0
C1679 C 0.28913 0.85153 0.91746 0.0
C1680 C 0.25897 0.8507 0.97531 0.0
C1681 C 0.28999 0.84952 0.96825 0.0
C1682 C 0.24473 0.85192 0.05792 0.0
C1683 C 0.21228 0.84838 0.01442 0.0
N1684 N 0.27516 0.84924 0.9954 0.0
N1685 N 0.22709 0.84861 0.98709 0.0
H1686 H 0.4141 0.9513 0.2405 0.0
H1687 H 0.39289 0.05341 0.23748 0.0
H1688 H 0.39552 0.97993 0.36559 0.0
H1689 H 0.41955 0.02718 0.11992 0.0
H1690 H 0.39259 0.02624 0.28311 0.0
H1691 H 0.41533 0.97851 0.19465 0.0
C1692 C 0.41043 0.96326 0.25868 0.0
C1693 C 0.40468 0.96319 0.30732 0.0
C1694 C 0.39854 0.02641 0.24736 0.0
C1695 C 0.40578 0.9945 0.25423 0.0
C1696 C 0.3988 0.04201 0.22121 0.0
C1697 C 0.40642 0.04277 0.1747 0.0
C1698 C 0.40583 0.01128 0.22698 0.0
C1699 C 0.41344 0.02729 0.15538 0.0
C1700 C 0.41103 0.97883 0.23218 0.0
C1701 C 0.39981 0.97921 0.32815 0.0
N1702 N 0.41299 0.0122 0.1816 0.0
N1703 N 0.40042 0.99416 0.30151 0.0
H1704 H 0.73057 0.85167 0.36968 0.0
H1705 H 0.77216 0.8525 0.63593 0.0
H1706 H 0.70005 0.84366 0.49959 0.0
H1707 H 0.80265 0.84299 0.50677 0.0
H1708 H 0.74553 0.85146 0.58651 0.0
H1709 H 0.75723 0.85068 0.41908 0.0
C1710 C 0.72951 0.84966 0.40857 0.0
C1711 C 0.7131 0.84767 0.43051 0.0
C1712 C 0.75804 0.84948 0.56904 0.0
C1713 C 0.74346 0.84668 0.48731 0.0
C1714 C 0.77322 0.85015 0.59719 0.0
C1715 C 0.78961 0.84775 0.57548 0.0
C1716 C 0.75928 0.8467 0.51861 0.0
C1717 C 0.79027 0.84466 0.52511 0.0
C1718 C 0.7447 0.84902 0.4367 0.0
C1719 C 0.71243 0.84501 0.48107 0.0
N1720 N 0.77534 0.84437 0.49833 0.0
N1721 N 0.72737 0.84474 0.50779 0.0
H1722 H 0.87186 0.9672 0.18054 0.0
H1723 H 0.92889 0.03939 0.3169 0.0
H1724 H 0.92743 0.96187 0.2 0.0
H1725 H 0.87338 0.03375 0.3371 0.0
H1726 H 0.92891 0.01275 0.2672 0.0
H1727 H 0.87242 0.99359 0.23046 0.0
C1728 C 0.88421 0.97169 0.19495 0.0
C1729 C 0.89965 0.96237 0.18596 0.0
C1730 C 0.91676 0.01731 0.28277 0.0
C1731 C 0.90037 0.99254 0.24342 0.0
C1732 C 0.91673 0.03252 0.31092 0.0
C1733 C 0.90113 0.03874 0.33131 0.0
C1734 C 0.90101 0.00844 0.27428 0.0
C1735 C 0.88573 0.0293 0.32266 0.0
C1736 C 0.8845 0.98666 0.22381 0.0
C1737 C 0.91524 0.96863 0.20631 0.0
N1738 N 0.88604 0.01471 0.29455 0.0
N1739 N 0.91523 0.98339 0.2339 0.0
H1740 H 0.78489 0.12131 0.92626 0.0
H1741 H 0.71404 0.17723 0.07124 0.0
H1742 H 0.79071 0.17662 0.95006 0.0
H1743 H 0.71928 0.12147 0.08596 0.0
H1744 H 0.74041 0.17765 0.02047 0.0
H1745 H 0.75886 0.12147 0.9776 0.0
C1746 C 0.78058 0.13354 0.94188 0.0
C1747 C 0.78993 0.14901 0.93366 0.0
C1748 C 0.73583 0.16535 0.03507 0.0
C1749 C 0.76018 0.14926 0.99289 0.0
C1750 C 0.72078 0.1651 0.06384 0.0
C1751 C 0.7145 0.1493 0.08294 0.0
C1752 C 0.7445 0.14964 0.02466 0.0
C1753 C 0.72377 0.13395 0.07252 0.0
C1754 C 0.76581 0.13359 0.97159 0.0
C1755 C 0.78391 0.16441 0.95567 0.0
N1756 N 0.73821 0.13449 0.0438 0.0
N1757 N 0.76935 0.16418 0.9841 0.0
H1758 H 0.59983 0.02412 0.62342 0.0
H1759 H 0.60072 0.97963 0.88693 0.0
H1760 H 0.5943 0.05326 0.75679 0.0
H1761 H 0.5943 0.95052 0.75384 0.0
H1762 H 0.59977 0.0068 0.83993 0.0
H1763 H 0.59922 0.99697 0.67051 0.0
C1764 C 0.59847 0.02479 0.66259 0.0
C1765 C 0.59706 0.04098 0.68613 0.0
C1766 C 0.59847 0.99447 0.82105 0.0
C1767 C 0.59641 0.00999 0.74036 0.0
C1768 C 0.59909 0.97897 0.84785 0.0
C1769 C 0.59753 0.96278 0.82437 0.0
C1770 C 0.5965 0.99379 0.77023 0.0
C1771 C 0.5953 0.96268 0.7736 0.0
C1772 C 0.59804 0.0093 0.68945 0.0
C1773 C 0.59519 0.04109 0.73701 0.0
N1774 N 0.59497 0.97793 0.74824 0.0
N1775 N 0.59502 0.02585 0.76241 0.0
H1776 H 0.7287 0.64899 0.87273 0.0
H1777 H 0.77398 0.6542 0.13496 0.0
H1778 H 0.70003 0.65695 0.006 0.0
H1779 H 0.80273 0.65587 1.00008 0.0
H1780 H 0.74668 0.65419 0.08858 0.0
H1781 H 0.756 0.65036 0.91892 0.0
C1782 C 0.72816 0.65102 0.91168 0.0
C1783 C 0.71205 0.65292 0.93542 0.0
C1784 C 0.75897 0.65465 0.06914 0.0
C1785 C 0.74322 0.65451 0.98863 0.0
C1786 C 0.77454 0.65458 0.09561 0.0
C1787 C 0.79066 0.65507 0.07142 0.0
C1788 C 0.7595 0.65502 0.01801 0.0
C1789 C 0.79062 0.65572 0.02031 0.0
C1790 C 0.74373 0.6519 0.93802 0.0
C1791 C 0.71212 0.65569 0.98598 0.0
N1792 N 0.77531 0.65557 0.99534 0.0
N1793 N 0.72743 0.65631 0.01088 0.0
H1794 H 0.60263 0.52036 0.38642 0.0
H1795 H 0.59593 0.47886 0.11982 0.0
H1796 H 0.59127 0.5511 0.25891 0.0
H1797 H 0.59409 0.44845 0.25178 0.0
H1798 H 0.5957 0.50561 0.16909 0.0
H1799 H 0.60107 0.49388 0.33676 0.0
C1800 C 0.59978 0.52152 0.34797 0.0
C1801 C 0.59703 0.53796 0.32688 0.0
C1802 C 0.59522 0.49307 0.18717 0.0
C1803 C 0.59529 0.50771 0.26957 0.0
C1804 C 0.59542 0.47782 0.15908 0.0
C1805 C 0.59493 0.46138 0.18161 0.0
C1806 C 0.59478 0.49187 0.23823 0.0
C1807 C 0.5942 0.46079 0.23271 0.0
C1808 C 0.59881 0.50641 0.31964 0.0
C1809 C 0.59325 0.5387 0.27685 0.0
N1810 N 0.59427 0.47577 0.25919 0.0
N1811 N 0.59261 0.52381 0.24985 0.0
H1812 H 0.69956 0.34303 0.50942 0.0
H1813 H 0.80389 0.34371 0.5034 0.0
H1814 H 0.73089 0.35049 0.6381 0.0
H1815 H 0.77187 0.3498 0.37553 0.0
H1816 H 0.77751 0.3429 0.55356 0.0
H1817 H 0.72606 0.34216 0.46037 0.0
C1818 C 0.71203 0.34427 0.52751 0.0
C1819 C 0.713 0.34671 0.57812 0.0
C1820 C 0.77625 0.34437 0.51452 0.0
C1821 C 0.7435 0.34592 0.52178 0.0
C1822 C 0.7913 0.34468 0.48578 0.0
C1823 C 0.79007 0.34674 0.43508 0.0
C1824 C 0.75981 0.34596 0.49243 0.0
C1825 C 0.7734 0.34829 0.41444 0.0
C1826 C 0.72718 0.34393 0.49934 0.0
C1827 C 0.72957 0.34866 0.59924 0.0
N1828 N 0.75893 0.34781 0.44313 0.0
N1829 N 0.74418 0.34816 0.571 0.0
H1830 H 0.91209 0.44888 0.7522 0.0
H1831 H 0.89151 0.55115 0.73761 0.0
H1832 H 0.89224 0.47897 0.87297 0.0
H1833 H 0.9155 0.52215 0.62071 0.0
H1834 H 0.89094 0.52468 0.78669 0.0
H1835 H 0.91294 0.47534 0.7031 0.0
C1836 C 0.90807 0.46104 0.76874 0.0
C1837 C 0.90214 0.46161 0.81718 0.0
C1838 C 0.89633 0.52409 0.75029 0.0
C1839 C 0.9028 0.49207 0.76034 0.0
C1840 C 0.89674 0.53926 0.7222 0.0
C1841 C 0.90369 0.53901 0.67484 0.0
C1842 C 0.90286 0.50842 0.73107 0.0
C1843 C 0.9099 0.52302 0.65673 0.0
C1844 C 0.90844 0.47617 0.74038 0.0
C1845 C 0.89675 0.47781 0.83581 0.0
N1846 N 0.90937 0.5084 0.68488 0.0
N1847 N 0.8972 0.49235 0.80742 0.0
H1848 H 0.21304 0.32501 0.93069 0.0
H1849 H 0.28377 0.38046 0.0778 0.0
H1850 H 0.21804 0.38091 0.91969 0.0
H1851 H 0.29057 0.32556 0.04922 0.0
H1852 H 0.25737 0.38025 0.02816 0.0
H1853 H 0.23942 0.32433 0.98158 0.0
C1854 C 0.21971 0.33711 0.93895 0.0
C1855 C 0.21341 0.35302 0.92071 0.0
C1856 C 0.2646 0.36822 0.03278 0.0
C1857 C 0.24337 0.35238 0.97911 0.0
C1858 C 0.2796 0.3683 0.06151 0.0
C1859 C 0.28937 0.35298 0.06781 0.0
C1860 C 0.25915 0.35267 0.01049 0.0
C1861 C 0.28347 0.33766 0.04502 0.0
C1862 C 0.23476 0.33671 0.96777 0.0
C1863 C 0.22256 0.36834 0.93233 0.0
N1864 N 0.26869 0.33786 0.0175 0.0
N1865 N 0.23698 0.36764 0.961 0.0
H1866 H 0.39948 0.52262 0.87082 0.0
H1867 H 0.41926 0.47891 0.61226 0.0
H1868 H 0.41343 0.55294 0.74421 0.0
H1869 H 0.39355 0.45251 0.73124 0.0
H1870 H 0.4194 0.50578 0.66049 0.0
H1871 H 0.40001 0.49632 0.82124 0.0
C1872 C 0.40262 0.5238 0.83258 0.0
C1873 C 0.40625 0.54015 0.81177 0.0
C1874 C 0.41374 0.49407 0.6759 0.0
C1875 C 0.40706 0.50984 0.75452 0.0
C1876 C 0.41356 0.47871 0.64827 0.0
C1877 C 0.40652 0.46325 0.66764 0.0
C1878 C 0.40691 0.49397 0.72335 0.0
C1879 C 0.39948 0.46389 0.71488 0.0
C1880 C 0.40296 0.50872 0.80423 0.0
C1881 C 0.41066 0.54068 0.76206 0.0
N1882 N 0.39993 0.47892 0.74102 0.0
N1883 N 0.41089 0.52576 0.73512 0.0
H1884 H 0.2861 0.62397 0.42129 0.0
H1885 H 0.2095 0.6812 0.53378 0.0
H1886 H 0.28944 0.68008 0.42614 0.0
H1887 H 0.22236 0.63004 0.58806 0.0
H1888 H 0.23587 0.68049 0.48267 0.0
H1889 H 0.25944 0.62529 0.47046 0.0
C1890 C 0.28107 0.63658 0.4322 0.0
C1891 C 0.2899 0.65196 0.41958 0.0
C1892 C 0.23291 0.66947 0.50594 0.0
C1893 C 0.25949 0.65356 0.47571 0.0
C1894 C 0.2179 0.66984 0.53485 0.0
C1895 C 0.21386 0.6557 0.56526 0.0
C1896 C 0.24369 0.65465 0.50663 0.0
C1897 C 0.22515 0.64128 0.56554 0.0
C1898 C 0.26598 0.63731 0.46058 0.0
C1899 C 0.28299 0.66796 0.43534 0.0
N1900 N 0.23947 0.64105 0.53634 0.0
N1901 N 0.26811 0.66837 0.46238 0.0
H1902 H 0.1023 0.52389 0.11177 0.0
H1903 H 0.10381 0.48038 0.37669 0.0
H1904 H 0.09791 0.55349 0.24469 0.0
H1905 H 0.09658 0.45088 0.24459 0.0
H1906 H 0.10342 0.50736 0.32878 0.0
H1907 H 0.10191 0.4969 0.15963 0.0
C1908 C 0.10126 0.5247 0.15099 0.0
C1909 C 0.10007 0.54096 0.1742 0.0
C1910 C 0.10183 0.49498 0.31032 0.0
C1911 C 0.09967 0.51019 0.22926 0.0
C1912 C 0.10214 0.4796 0.33764 0.0
C1913 C 0.10012 0.46338 0.3147 0.0
C1914 C 0.09971 0.49413 0.25956 0.0
C1915 C 0.09789 0.4631 0.26394 0.0
C1916 C 0.10095 0.50931 0.17829 0.0
C1917 C 0.0986 0.54126 0.22517 0.0
N1918 N 0.09783 0.47822 0.23809 0.0
N1919 N 0.09853 0.52612 0.25097 0.0
H1920 H 0.14095 0.24467 0.42919 0.0
H1921 H 0.09677 0.31641 0.25997 0.0
H1922 H 0.13335 0.23805 0.27458 0.0
H1923 H 0.11522 0.32789 0.40468 0.0
H1924 H 0.11012 0.28758 0.26519 0.0
H1925 H 0.13221 0.27519 0.4214 0.0
C1926 C 0.13775 0.24966 0.39344 0.0
C1927 C 0.13779 0.23866 0.3525 0.0
C1928 C 0.11137 0.2964 0.29576 0.0
C1929 C 0.12736 0.27357 0.34365 0.0
C1930 C 0.10362 0.31282 0.29292 0.0
C1931 C 0.10474 0.32448 0.33215 0.0
C1932 C 0.12016 0.29146 0.3384 0.0
C1933 C 0.11409 0.31929 0.3736 0.0
C1934 C 0.13263 0.2671 0.38912 0.0
C1935 C 0.1332 0.2459 0.30732 0.0
N1936 N 0.12131 0.30307 0.37587 0.0
N1937 N 0.12802 0.26282 0.30422 0.0
H1938 H 0.93958 0.83524 0.54266 0.0
H1939 H 0.00388 0.91036 0.6297 0.0
H1940 H 0.92331 0.872 0.6529 0.0
H1941 H 0.02062 0.85944 0.5807 0.0
H1942 H 0.97351 0.89993 0.62826 0.0
H1943 H 0.96852 0.84785 0.54406 0.0
C1944 C 0.94203 0.84587 0.56756 0.0
C1945 C 0.92891 0.85223 0.59857 0.0
C1946 C 0.98393 0.89118 0.61766 0.0
C1947 C 0.9623 0.86713 0.59929 0.0
C1948 C 1.00127 0.89707 0.61853 0.0
C1949 C 0.01498 0.88591 0.60447 0.0
C1950 C 0.98031 0.87412 0.60204 0.0
C1951 C 0.01065 0.86882 0.59021 0.0
C1952 C 0.95863 0.85316 0.56805 0.0
C1953 C 0.93296 0.86659 0.62849 0.0
N1954 N 0.99378 0.86355 0.58909 0.0
N1955 N 0.94935 0.87356 0.62823 0.0
H1956 H 0.38965 0.6759 0.77806 0.0
H1957 H 0.35983 0.76157 0.92288 0.0
H1958 H 0.40012 0.68583 0.92958 0.0
H1959 H 0.36348 0.7605 0.76612 0.0
H1960 H 0.36893 0.7312 0.9254 0.0
H1961 H 0.37488 0.70449 0.77266 0.0
C1962 C 0.38868 0.68405 0.81015 0.0
C1963 C 0.39627 0.67871 0.85413 0.0
C1964 C 0.36761 0.73753 0.89036 0.0
C1965 C 0.3794 0.71102 0.84856 0.0
C1966 C 0.36221 0.75487 0.88882 0.0
C1967 C 0.36085 0.76367 0.84417 0.0
C1968 C 0.37174 0.72879 0.84698 0.0
C1969 C 0.36452 0.75429 0.80137 0.0
C1970 C 0.38036 0.70031 0.80707 0.0
C1971 C 0.39471 0.68963 0.8948 0.0
N1972 N 0.36988 0.73735 0.80381 0.0
N1973 N 0.38647 0.70523 0.89103 0.0
H1974 H 0.48119 0.15255 0.10956 0.0
H1975 H 0.58248 0.12728 0.11814 0.0
H1976 H 0.49894 0.09934 0.12366 0.0
H1977 H 0.56264 0.17979 0.10593 0.0
H1978 H 0.55239 0.11647 0.123 0.0
H1979 H 0.51128 0.16239 0.10962 0.0
C1980 C 0.49145 0.14288 0.11214 0.0
C1981 C 0.48751 0.12504 0.11582 0.0
C1982 C 0.55467 0.13035 0.11938 0.0
C1983 C 0.52225 0.13633 0.11688 0.0
C1984 C 0.57183 0.13654 0.1169 0.0
C1985 C 0.57509 0.15447 0.11123 0.0
C1986 C 0.54072 0.1422 0.11631 0.0
C1987 C 0.56078 0.16585 0.10935 0.0
C1988 C 0.50869 0.14854 0.11261 0.0
C1989 C 0.5014 0.11321 0.12066 0.0
N1990 N 0.54428 0.15952 0.11176 0.0
N1991 N 0.5182 0.11906 0.12083 0.0
H1992 H 0.10391 0.77453 0.14081 0.0
H1993 H 0.12778 0.67282 0.14942 0.0
H1994 H 0.15715 0.75623 0.1367 0.0
H1995 H 0.07556 0.69371 0.14238 0.0
H1996 H 0.13935 0.70271 0.14413 0.0
H1997 H 0.09382 0.74454 0.14219 0.0
C1998 C 0.11353 0.76417 0.14075 0.0
C1999 C 0.13144 0.76795 0.13942 0.0
C2000 C 0.12537 0.70068 0.14368 0.0
C2001 C 0.11987 0.73326 0.14006 0.0
C2002 C 0.11877 0.68364 0.14647 0.0
C2003 C 0.10065 0.68075 0.14694 0.0
C2004 C 0.11375 0.71486 0.14123 0.0
C2005 C 0.08958 0.69527 0.14329 0.0
C2006 C 0.10773 0.74698 0.14108 0.0
C2007 C 0.14323 0.7539 0.13783 0.0
N2008 N 0.09629 0.71161 0.14075 0.0
N2009 N 0.13724 0.73714 0.13843 0.0
H2010 H 0.49738 0.90708 0.37218 0.0
H2011 H 0.56078 0.82424 0.39248 0.0
H2012 H 0.48021 0.85354 0.38159 0.0
H2013 H 0.58028 0.87698 0.38626 0.0
H2014 H 0.53119 0.83525 0.38456 0.0
H2015 H 0.5278 0.8969 0.37375 0.0
C2016 C 0.49999 0.89322 0.37458 0.0
C2017 C 0.48619 0.88117 0.37744 0.0
C2018 C 0.54188 0.8445 0.3848 0.0
C2019 C 0.52087 0.86947 0.37905 0.0
C2020 C 0.55881 0.83818 0.38951 0.0
C2021 C 0.57302 0.84971 0.39064 0.0
C2022 C 0.53897 0.86254 0.38132 0.0
C2023 C 0.56969 0.86765 0.38544 0.0
C2024 C 0.51734 0.88743 0.37555 0.0
C2025 C 0.49035 0.86337 0.38051 0.0
N2026 N 0.55297 0.87355 0.38137 0.0
N2027 N 0.50724 0.8581 0.38127 0.0
H2028 H 0.37424 0.23499 0.71827 0.0
H2029 H 0.38008 0.32954 0.59628 0.0
H2030 H 0.34376 0.25019 0.59313 0.0
H2031 H 0.40819 0.31437 0.72558 0.0
H2032 H 0.36475 0.30149 0.59799 0.0
H2033 H 0.3845 0.26496 0.72597 0.0
C2034 C 0.36941 0.24468 0.69294 0.0
C2035 C 0.35823 0.23993 0.65467 0.0
C2036 C 0.37422 0.30436 0.62612 0.0
C2037 C 0.37035 0.27435 0.66256 0.0
C2038 C 0.38294 0.3204 0.62522 0.0
C2039 C 0.39563 0.32428 0.66046 0.0
C2040 C 0.3782 0.2921 0.66255 0.0
C2041 C 0.39884 0.31185 0.69697 0.0
C2042 C 0.37543 0.26181 0.69707 0.0
C2043 C 0.35266 0.25311 0.6226 0.0
N2044 N 0.39027 0.29633 0.6969 0.0
N2045 N 0.35891 0.26966 0.62695 0.0
H2046 H 0.92484 0.13492 0.84303 0.0
H2047 H 0.0152 0.11672 0.98057 0.0
H2048 H 0.93633 0.1523 0.98878 0.0
H2049 H 0.00888 0.11115 0.82521 0.0
H2050 H 0.98456 0.12513 0.98695 0.0
H2051 H 0.95393 0.12156 0.83869 0.0
C2052 C 0.93343 0.13579 0.8742 0.0
C2053 C 0.92826 0.14488 0.91612 0.0
C2054 C 0.98985 0.12194 0.9515 0.0
C2055 C 0.96142 0.12965 0.91156 0.0
C2056 C 0.00737 0.11717 0.9478 0.0
C2057 C 0.01474 0.11339 0.90221 0.0
C2058 C 0.97954 0.12291 0.90936 0.0
C2059 C 0.00379 0.11382 0.86118 0.0
C2060 C 0.95003 0.12825 0.87166 0.0
C2061 C 0.93991 0.1457 0.95545 0.0
N2062 N 0.98678 0.11863 0.86567 0.0
N2063 N 0.95592 0.13821 0.95219 0.0
H2064 H 0.9204 0.68911 0.70987 0.0
H2065 H 0.84349 0.75267 0.62898 0.0
H2066 H 0.88223 0.67287 0.60342 0.0
H2067 H 0.89394 0.76995 0.68029 0.0
H2068 H 0.85436 0.72249 0.62962 0.0
H2069 H 0.90735 0.71787 0.71115 0.0
C2070 C 0.90936 0.69153 0.68636 0.0
C2071 C 0.9027 0.67847 0.65567 0.0
C2072 C 0.86291 0.73297 0.64098 0.0
C2073 C 0.88734 0.71165 0.65799 0.0
C2074 C 0.85677 0.75021 0.64056 0.0
C2075 C 0.86768 0.76403 0.65526 0.0
C2076 C 0.87999 0.72954 0.65673 0.0
C2077 C 0.88474 0.75989 0.67014 0.0
C2078 C 0.90183 0.70803 0.68741 0.0
C2079 C 0.88787 0.68247 0.62756 0.0
N2080 N 0.89028 0.7431 0.67066 0.0
N2081 N 0.88069 0.69875 0.62926 0.0
H2082 H 0.99434 0.10952 0.32583 0.0
H2083 H 0.06725 0.15444 0.48927 0.0
H2084 H 0.98954 0.11617 0.48132 0.0
H2085 H 0.07735 0.13664 0.34311 0.0
H2086 H 0.03869 0.1404 0.48658 0.0
H2087 H 0.0248 0.11866 0.33102 0.0
C2088 C 0.99973 0.11257 0.36123 0.0
C2089 C 0.98923 0.11216 0.40319 0.0
C2090 C 0.04716 0.13944 0.45513 0.0
C2091 C 0.02408 0.12309 0.40908 0.0
C2092 C 0.06342 0.14758 0.45653 0.0
C2093 C 0.0746 0.14685 0.41615 0.0
C2094 C 0.04189 0.13065 0.41279 0.0
C2095 C 0.06912 0.13748 0.37503 0.0
C2096 C 0.01713 0.11793 0.36406 0.0
C2097 C 0.99698 0.1166 0.44784 0.0
N2098 N 0.05305 0.12988 0.37418 0.0
N2099 N 0.01385 0.12203 0.44951 0.0
H2100 H 0.64368 0.23864 0.23844 0.0
H2101 H 0.61879 0.32668 0.09699 0.0
H2102 H 0.64515 0.24344 0.08195 0.0
H2103 H 0.60715 0.31684 0.24799 0.0
H2104 H 0.63355 0.29823 0.09253 0.0
H2105 H 0.63535 0.26932 0.24416 0.0
C2106 C 0.64238 0.24617 0.20528 0.0
C2107 C 0.64495 0.23834 0.15964 0.0
C2108 C 0.62788 0.30239 0.12671 0.0
C2109 C 0.63546 0.27358 0.16593 0.0
C2110 C 0.61956 0.31862 0.12928 0.0
C2111 C 0.61157 0.32397 0.17273 0.0
C2112 C 0.62834 0.29158 0.16807 0.0
C2113 C 0.61284 0.31305 0.21355 0.0
C2114 C 0.63766 0.26371 0.20857 0.0
C2115 C 0.64342 0.24889 0.11796 0.0
N2116 N 0.62099 0.29737 0.21018 0.0
N2117 N 0.63862 0.26592 0.12208 0.0
H2118 H 0.42083 0.87659 0.87779 0.0
H2119 H 0.52249 0.85265 0.88936 0.0
H2120 H 0.44148 0.82428 0.88358 0.0
H2121 H 0.50415 0.90579 0.87978 0.0
H2122 H 0.49254 0.84246 0.88643 0.0
H2123 H 0.45081 0.88796 0.87586 0.0
C2124 C 0.43164 0.8675 0.87817 0.0
C2125 C 0.42864 0.84945 0.88132 0.0
C2126 C 0.49497 0.85637 0.88508 0.0
C2127 C 0.46287 0.86233 0.87961 0.0
C2128 C 0.51213 0.86223 0.88725 0.0
C2129 C 0.51589 0.88014 0.88559 0.0
C2130 C 0.48127 0.86845 0.88112 0.0
C2131 C 0.50186 0.89186 0.88122 0.0
C2132 C 0.44873 0.874 0.87738 0.0
C2133 C 0.44314 0.83828 0.88211 0.0
N2134 N 0.48514 0.88582 0.87933 0.0
N2135 N 0.45955 0.84489 0.88144 0.0
H2136 H 0.92657 0.30964 0.85952 0.0
H2137 H 0.84331 0.24644 0.87107 0.0
H2138 H 0.87389 0.32939 0.86202 0.0
H2139 H 0.89689 0.22926 0.86445 0.0
H2140 H 0.85357 0.27687 0.87206 0.0
H2141 H 0.91533 0.28009 0.86607 0.0
C2142 C 0.91259 0.30773 0.86142 0.0
C2143 C 0.90115 0.32198 0.85961 0.0
C2144 C 0.86303 0.2664 0.87032 0.0
C2145 C 0.88805 0.28799 0.86727 0.0
C2146 C 0.85719 0.24906 0.86981 0.0
C2147 C 0.86924 0.23527 0.86685 0.0
C2148 C 0.88103 0.26991 0.86827 0.0
C2149 C 0.88708 0.23941 0.86545 0.0
C2150 C 0.90614 0.29082 0.86533 0.0
C2151 C 0.88315 0.31874 0.86339 0.0
N2152 N 0.89238 0.25628 0.8661 0.0
N2153 N 0.87711 0.30204 0.86664 0.0
H2154 H 0.51446 0.12108 0.53066 0.0
H2155 H 0.42309 0.13795 0.665 0.0
H2156 H 0.50699 0.11368 0.68504 0.0
H2157 H 0.43532 0.15599 0.52035 0.0
H2158 H 0.45218 0.12454 0.66991 0.0
H2159 H 0.48386 0.12952 0.52333 0.0
C2160 C 0.50639 0.12116 0.56303 0.0
C2161 C 0.51344 0.11682 0.60863 0.0
C2162 C 0.44843 0.13136 0.63702 0.0
C2163 C 0.47824 0.12636 0.60036 0.0
C2164 C 0.43183 0.13891 0.63414 0.0
C2165 C 0.42688 0.14824 0.59242 0.0
C2166 C 0.46005 0.13301 0.59766 0.0
C2167 C 0.43872 0.1492 0.55352 0.0
C2168 C 0.48889 0.12593 0.55877 0.0
C2169 C 0.50217 0.11679 0.64906 0.0
N2170 N 0.45473 0.14173 0.55713 0.0
N2171 N 0.48517 0.12161 0.64404 0.0
H2172 H 0.60801 0.76985 0.33182 0.0
H2173 H 0.62231 0.67157 0.40961 0.0
H2174 H 0.65864 0.75302 0.3829 0.0
H2175 H 0.58673 0.68778 0.29641 0.0
H2176 H 0.63491 0.70113 0.40957 0.0
H2177 H 0.59865 0.73973 0.32902 0.0
C2178 C 0.61735 0.75987 0.34166 0.0
C2179 C 0.63437 0.76417 0.35653 0.0
C2180 C 0.62438 0.69806 0.38473 0.0
C2181 C 0.62326 0.7293 0.35519 0.0
C2182 C 0.61719 0.68121 0.38463 0.0
C2183 C 0.60315 0.67715 0.35365 0.0
C2184 C 0.61731 0.7109 0.35405 0.0
C2185 C 0.5971 0.69026 0.32212 0.0
C2186 C 0.61187 0.74259 0.34047 0.0
C2187 C 0.64541 0.75043 0.37116 0.0
N2188 N 0.60408 0.7065 0.32353 0.0
N2189 N 0.63965 0.73359 0.3703 0.0
H2190 H 0.0782 0.86992 0.16261 0.0
H2191 H 0.98799 0.88955 0.02541 0.0
H2192 H 0.0668 0.85399 0.01557 0.0
H2193 H 0.99401 0.89333 0.1813 0.0
H2194 H 0.01872 0.88149 0.01871 0.0
H2195 H 0.04919 0.88353 0.1675 0.0
C2196 C 0.06966 0.86946 0.13126 0.0
C2197 C 0.07478 0.86065 0.08885 0.0
C2198 C 0.01335 0.88423 0.05436 0.0
C2199 C 0.04176 0.87616 0.09399 0.0
C2200 C 0.99577 0.88879 0.05824 0.0
C2201 C 0.98828 0.89195 0.10404 0.0
C2202 C 0.0236 0.88284 0.09654 0.0
C2203 C 0.99918 0.89114 0.14516 0.0
C2204 C 0.05311 0.87714 0.1341 0.0
C2205 C 0.06322 0.86036 0.04925 0.0
N2206 N 0.01625 0.88654 0.14048 0.0
N2207 N 0.04727 0.86795 0.05282 0.0
H2208 H 0.61681 0.82696 0.91408 0.0
H2209 H 0.63353 0.73546 0.78047 0.0
H2210 H 0.60076 0.8154 0.76721 0.0
H2211 H 0.63965 0.74279 0.93533 0.0
H2212 H 0.62576 0.76622 0.77256 0.0
H2213 H 0.6296 0.79763 0.91999 0.0
C2214 C 0.61614 0.81831 0.88298 0.0
C2215 C 0.60754 0.82351 0.84032 0.0
C2216 C 0.62892 0.76112 0.80824 0.0
C2217 C 0.62208 0.79008 0.84668 0.0
C2218 C 0.63331 0.74353 0.81282 0.0
C2219 C 0.63711 0.73642 0.85869 0.0
C2220 C 0.62832 0.77178 0.84981 0.0
C2221 C 0.63696 0.74767 0.89915 0.0
C2222 C 0.62335 0.80158 0.88641 0.0
C2223 C 0.60697 0.81179 0.8011 0.0
N2224 N 0.63252 0.76475 0.89381 0.0
N2225 N 0.61408 0.79564 0.80527 0.0
H2226 H 0.44063 0.32623 0.1202 0.0
H2227 H 0.50631 0.4048 0.06904 0.0
H2228 H 0.42156 0.37665 0.0756 0.0
H2229 H 0.51737 0.36211 0.16656 0.0
H2230 H 0.4761 0.39397 0.06102 0.0
H2231 H 0.46994 0.33836 0.12729 0.0
C2232 C 0.44267 0.33988 0.11177 0.0
C2233 C 0.4287 0.35046 0.09724 0.0
C2234 C 0.48518 0.38709 0.08431 0.0
C2235 C 0.46229 0.36448 0.10508 0.0
C2236 C 0.50238 0.39319 0.08866 0.0
C2237 C 0.51428 0.3844 0.11881 0.0
C2238 C 0.48009 0.37194 0.10945 0.0
C2239 C 0.50856 0.36942 0.14348 0.0
C2240 C 0.45938 0.34683 0.11606 0.0
C2241 C 0.43201 0.36813 0.08728 0.0
N2242 N 0.49196 0.36364 0.13805 0.0
N2243 N 0.44854 0.37461 0.091 0.0
H2244 H 0.89969 0.2723 0.35258 0.0
H2245 H 0.87636 0.17048 0.36222 0.0
H2246 H 0.84681 0.25351 0.36637 0.0
H2247 H 0.92835 0.19132 0.34635 0.0
H2248 H 0.86499 0.20039 0.36686 0.0
H2249 H 0.91006 0.24239 0.35187 0.0
C2250 C 0.89019 0.26186 0.35486 0.0
C2251 C 0.87229 0.26548 0.35875 0.0
C2252 C 0.87888 0.19837 0.36245 0.0
C2253 C 0.88422 0.23092 0.35902 0.0
C2254 C 0.88539 0.18131 0.3601 0.0
C2255 C 0.90334 0.17838 0.35349 0.0
C2256 C 0.89043 0.21255 0.35835 0.0
C2257 C 0.91441 0.19292 0.35053 0.0
C2258 C 0.89617 0.24472 0.35491 0.0
C2259 C 0.86072 0.25133 0.36325 0.0
N2260 N 0.90778 0.20931 0.35288 0.0
N2261 N 0.86687 0.23465 0.36309 0.0
H2262 H 0.98955 0.62111 0.68342 0.0
H2263 H 0.08312 0.62493 0.55982 0.0
H2264 H 0.99652 0.60318 0.53596 0.0
H2265 H 0.06279 0.66743 0.64514 0.0
H2266 H 0.05427 0.61057 0.56378 0.0
H2267 H 0.01972 0.63176 0.68354 0.0
C2268 C 0.99758 0.6191 0.65144 0.0
C2269 C 0.99065 0.61123 0.60965 0.0
C2270 C 0.05624 0.62298 0.58185 0.0
C2271 C 0.02502 0.62327 0.60971 0.0
C2272 C 0.0726 0.63106 0.57983 0.0
C2273 C 0.07512 0.64731 0.60214 0.0
C2274 C 0.04262 0.63104 0.60759 0.0
C2275 C 0.06119 0.65493 0.62737 0.0
C2276 C 0.01469 0.62529 0.65144 0.0
C2277 C 0.00147 0.60919 0.56883 0.0
N2278 N 0.04554 0.64666 0.62976 0.0
N2279 N 0.01821 0.61514 0.56988 0.0
H2280 H 0.59583 0.18916 0.74094 0.0
H2281 H 0.6571 0.25405 0.58989 0.0
H2282 H 0.62072 0.17491 0.60579 0.0
H2283 H 0.62864 0.26867 0.71925 0.0
H2284 H 0.64692 0.22402 0.60009 0.0
H2285 H 0.61051 0.21731 0.73808 0.0
C2286 C 0.60434 0.19196 0.71051 0.0
C2287 C 0.60682 0.1797 0.67315 0.0
C2288 C 0.64306 0.23377 0.62651 0.0
C2289 C 0.62392 0.212 0.66993 0.0
C2290 C 0.64883 0.25094 0.62067 0.0
C2291 C 0.64357 0.26401 0.65346 0.0
C2292 C 0.63192 0.2296 0.66539 0.0
C2293 C 0.63315 0.25908 0.6932 0.0
C2294 C 0.61284 0.20803 0.70908 0.0
C2295 C 0.61843 0.18394 0.63537 0.0
N2296 N 0.62754 0.24234 0.69775 0.0
N2297 N 0.62644 0.19979 0.63451 0.0
H2298 H 0.98011 0.35503 0.9009 0.0
H2299 H 0.08174 0.37857 0.88328 0.0
H2300 H 0.99837 0.40779 0.88008 0.0
H2301 H 0.06098 0.32638 0.89399 0.0
H2302 H 0.05178 0.38996 0.88059 0.0
H2303 H 0.01006 0.34479 0.89887 0.0
C2304 C 0.99046 0.36453 0.89653 0.0
C2305 C 0.98669 0.38236 0.89145 0.0
C2306 C 0.05384 0.37602 0.88337 0.0
C2307 C 0.02129 0.37058 0.888 0.0
C2308 C 0.07092 0.3695 0.88461 0.0
C2309 C 0.07389 0.35148 0.88938 0.0
C2310 C 0.03968 0.36441 0.88684 0.0
C2311 C 0.05936 0.34036 0.89133 0.0
C2312 C 0.00762 0.35863 0.89486 0.0
C2313 C 1.00069 0.39394 0.88425 0.0
N2314 N 0.04296 0.347 0.89024 0.0
N2315 N 0.01741 0.38786 0.88294 0.0
H2316 H 0.87468 0.83198 0.17507 0.0
H2317 H 0.8874 0.73424 0.08681 0.0
H2318 H 0.92501 0.81032 0.13979 0.0
H2319 H 0.84708 0.74713 0.19024 0.0
H2320 H 0.89897 0.76382 0.09405 0.0
H2321 H 0.8619 0.80252 0.16956 0.0
C2322 C 0.88297 0.82102 0.1659 0.0
C2323 C 0.9009 0.82348 0.15784 0.0
C2324 C 0.88758 0.76021 0.11516 0.0
C2325 C 0.88646 0.79007 0.15115 0.0
C2326 C 0.88092 0.7434 0.11084 0.0
C2327 C 0.86623 0.73833 0.13781 0.0
C2328 C 0.87937 0.7722 0.14613 0.0
C2329 C 0.85844 0.7506 0.16891 0.0
C2330 C 0.87573 0.80428 0.16316 0.0
C2331 C 0.91117 0.8089 0.14658 0.0
N2332 N 0.86504 0.76709 0.17197 0.0
N2333 N 0.90378 0.79285 0.14315 0.0
H2334 H 0.4426 0.67771 0.41578 0.0
H2335 H 0.50246 0.59223 0.40099 0.0
H2336 H 0.42077 0.62576 0.4167 0.0
H2337 H 0.52167 0.64472 0.42025 0.0
H2338 H 0.47242 0.60363 0.40299 0.0
H2339 H 0.47163 0.66526 0.41418 0.0
C2340 C 0.44385 0.66366 0.41613 0.0
C2341 C 0.42908 0.65282 0.4169 0.0
C2342 C 0.48326 0.61258 0.40705 0.0
C2343 C 0.46266 0.63832 0.41417 0.0
C2344 C 0.50037 0.6061 0.40578 0.0
C2345 C 0.51461 0.61749 0.41117 0.0
C2346 C 0.48045 0.63059 0.41315 0.0
C2347 C 0.51115 0.63536 0.41714 0.0
C2348 C 0.46053 0.65651 0.41489 0.0
C2349 C 0.43172 0.63465 0.41589 0.0
N2350 N 0.4945 0.6413 0.41789 0.0
N2351 N 0.4482 0.62795 0.41462 0.0
H2352 H 0.40249 0.19069 0.23622 0.0
H2353 H 0.33949 0.25503 0.08936 0.0
H2354 H 0.37755 0.17648 0.10122 0.0
H2355 H 0.36967 0.26992 0.21538 0.0
H2356 H 0.34959 0.22497 0.09946 0.0
H2357 H 0.38702 0.21841 0.23508 0.0
C2358 C 0.39378 0.19341 0.2062 0.0
C2359 C 0.39158 0.18134 0.16827 0.0
C2360 C 0.35381 0.23479 0.12521 0.0
C2361 C 0.37358 0.21316 0.16697 0.0
C2362 C 0.34808 0.25199 0.11945 0.0
C2363 C 0.35389 0.26517 0.1512 0.0
C2364 C 0.36542 0.2307 0.16304 0.0
C2365 C 0.36472 0.26028 0.19013 0.0
C2366 C 0.38484 0.20924 0.20574 0.0
C2367 C 0.37967 0.18541 0.13112 0.0
N2368 N 0.37025 0.24352 0.1946 0.0
N2369 N 0.37124 0.20106 0.13113 0.0
H2370 H 0.484 0.61956 0.97566 0.0
H2371 H 0.57853 0.62968 0.85477 0.0
H2372 H 0.49781 0.59825 0.83551 0.0
H2373 H 0.56342 0.65382 0.99023 0.0
H2374 H 0.55029 0.61482 0.85209 0.0
H2375 H 0.51436 0.62849 0.98724 0.0
C2376 C 0.49349 0.61641 0.94779 0.0
C2377 C 0.48832 0.6083 0.90435 0.0
C2378 C 0.5532 0.6233 0.88254 0.0
C2379 C 0.52303 0.61882 0.91687 0.0
C2380 C 0.56936 0.63174 0.88416 0.0
C2381 C 0.57331 0.64318 0.92249 0.0
C2382 C 0.5409 0.62627 0.91959 0.0
C2383 C 0.56083 0.64543 0.95943 0.0
C2384 C 0.5108 0.62168 0.95419 0.0
C2385 C 0.50117 0.60474 0.86923 0.0
N2386 N 0.54518 0.63713 0.95695 0.0
N2387 N 0.51788 0.61017 0.87604 0.0
H2388 H 0.07616 0.81161 0.64821 0.0
H2389 H 0.16038 0.75024 0.62544 0.0
H2390 H 0.12827 0.83255 0.63731 0.0
H2391 H 0.10814 0.73212 0.65552 0.0
H2392 H 0.14935 0.78039 0.62424 0.0
H2393 H 0.08806 0.78227 0.64461 0.0
C2394 C 0.09015 0.81003 0.64518 0.0
C2395 C 0.10123 0.82458 0.64374 0.0
C2396 C 0.14037 0.76978 0.63131 0.0
C2397 C 0.11508 0.79082 0.63926 0.0
C2398 C 0.14664 0.7526 0.63195 0.0
C2399 C 0.13521 0.73865 0.64125 0.0
C2400 C 0.12254 0.77294 0.63947 0.0
C2401 C 0.11753 0.74244 0.64935 0.0
C2402 C 0.09697 0.79323 0.64297 0.0
C2403 C 0.11925 0.8217 0.63845 0.0
N2404 N 0.11178 0.75916 0.64819 0.0
N2405 N 0.12565 0.80511 0.63669 0.0
H2406 H 0.92451 0.36837 0.33545 0.0
H2407 H 0.01519 0.38606 0.47221 0.0
H2408 H 0.93615 0.35119 0.48125 0.0
H2409 H 0.0083 0.39289 0.31743 0.0
H2410 H 0.98448 0.37794 0.47907 0.0
H2411 H 0.95345 0.38215 0.33123 0.0
C2412 C 0.93309 0.36768 0.36668 0.0
C2413 C 0.92807 0.35845 0.40849 0.0
C2414 C 0.98966 0.38135 0.44365 0.0
C2415 C 0.96102 0.37411 0.4041 0.0
C2416 C 0.00722 0.38595 0.43968 0.0
C2417 C 0.01444 0.39 0.39411 0.0
C2418 C 0.97917 0.3808 0.40177 0.0
C2419 C 0.00332 0.38999 0.35339 0.0
C2420 C 0.9496 0.37544 0.36422 0.0
C2421 C 0.93966 0.35787 0.44797 0.0
N2422 N 0.98628 0.38532 0.35812 0.0
N2423 N 0.95559 0.36553 0.44475 0.0
H2424 H 0.39596 0.81736 0.2524 0.0
H2425 H 0.36722 0.74268 0.43139 0.0
H2426 H 0.38692 0.82735 0.40465 0.0
H2427 H 0.35247 0.74183 0.27949 0.0
H2428 H 0.37577 0.77304 0.42263 0.0
H2429 H 0.38182 0.78885 0.26117 0.0
C2430 C 0.39094 0.81352 0.28765 0.0
C2431 C 0.39269 0.82459 0.32799 0.0
C2432 C 0.37046 0.76624 0.3914 0.0
C2433 C 0.37665 0.79207 0.33837 0.0
C2434 C 0.36541 0.74885 0.39633 0.0
C2435 C 0.35903 0.73943 0.35609 0.0
C2436 C 0.36956 0.77428 0.3457 0.0
C2437 C 0.35762 0.74829 0.3114 0.0
C2438 C 0.38278 0.79735 0.29255 0.0
C2439 C 0.38577 0.81916 0.37273 0.0
N2440 N 0.36305 0.76513 0.30728 0.0
N2441 N 0.37826 0.80315 0.37694 0.0
H2442 H 0.00711 0.5955 0.05026 0.0
H2443 H 0.9426 0.67178 0.12626 0.0
H2444 H 0.01693 0.63084 0.16938 0.0
H2445 H 0.92246 0.62452 0.06255 0.0
H2446 H 0.97131 0.65818 0.13275 0.0
H2447 H 0.97706 0.60695 0.04494 0.0
C2448 C 0.00292 0.60555 0.07537 0.0
C2449 C 0.01445 0.61213 0.11059 0.0
C2450 C 0.96063 0.65072 0.11747 0.0
C2451 C 0.9805 0.62536 0.10422 0.0
C2452 C 0.9443 0.65851 0.11354 0.0
C2453 C 0.93025 0.64923 0.09379 0.0
C2454 C 0.96306 0.63358 0.10077 0.0
C2455 C 0.93303 0.632 0.07826 0.0
C2456 C 0.98582 0.612 0.07247 0.0
C2457 C 0.00841 0.62519 0.1422 0.0
N2458 N 0.94922 0.62472 0.08163 0.0
N2459 N 0.99195 0.63145 0.13799 0.0
H2460 H 0.16103 0.25491 0.86198 0.0
H2461 H 0.07647 0.19346 0.85011 0.0
H2462 H 0.10816 0.27302 0.84239 0.0
H2463 H 0.12866 0.17256 0.85731 0.0
H2464 H 0.08839 0.22281 0.85288 0.0
H2465 H 0.15003 0.22474 0.8653 0.0
C2466 C 0.14716 0.25255 0.85825 0.0
C2467 C 0.13554 0.2665 0.85108 0.0
C2468 C 0.09732 0.21186 0.85393 0.0
C2469 C 0.12291 0.2322 0.85528 0.0
C2470 C 0.09049 0.19506 0.85219 0.0
C2471 C 0.10158 0.18053 0.85284 0.0
C2472 C 0.11546 0.2143 0.85627 0.0
C2473 C 0.11964 0.18342 0.85682 0.0
C2474 C 0.1409 0.23536 0.8601 0.0
C2475 C 0.11769 0.2627 0.84669 0.0
N2476 N 0.12606 0.20001 0.85804 0.0
N2477 N 0.11197 0.24599 0.84885 0.0
H2478 H 0.4899 0.38872 0.52103 0.0
H2479 H 0.57841 0.36674 0.66341 0.0
H2480 H 0.49488 0.39197 0.67726 0.0
H2481 H 0.56852 0.35316 0.51369 0.0
H2482 H 0.54977 0.38111 0.66692 0.0
H2483 H 0.5207 0.38081 0.51562 0.0
C2484 C 0.4975 0.38789 0.55419 0.0
C2485 C 0.48971 0.3908 0.59971 0.0
C2486 C 0.55395 0.37509 0.63323 0.0
C2487 C 0.52503 0.38181 0.59376 0.0
C2488 C 0.57029 0.36698 0.63119 0.0
C2489 C 0.57568 0.35858 0.58841 0.0
C2490 C 0.54309 0.37491 0.592 0.0
C2491 C 0.56468 0.35918 0.54766 0.0
C2492 C 0.51509 0.38341 0.55107 0.0
C2493 C 0.50032 0.38991 0.64137 0.0
N2494 N 0.5489 0.36713 0.55051 0.0
N2495 N 0.5174 0.38533 0.63743 0.0
loop_
_geom_bond_atom_site_label_1
_geom_bond_atom_site_label_2
_geom_bond_distance
_geom_bond_site_symmetry_2
_ccdc_geom_bond_type
Co0 N4 2.148 . S
Co0 N10 2.128 . S
Co0 N20 2.194 . S
Co0 O25 2.351 . S
Co0 O26 2.155 . S
Co0 O27 2.096 . S
C1 N4 1.301 . S
C1 N5 1.328 . S
C1 H6 0.930 . S
C2 C3 1.333 . S
C2 N4 1.317 . S
C2 H7 0.930 . S
C3 C2 1.333 . S
C3 N5 1.350 . S
C3 H29 0.931 . S
N4 Co0 2.148 . S
N4 C1 1.301 . S
N4 C2 1.317 . S
N5 C1 1.328 . S
N5 C3 1.350 . S
H6 C1 0.930 . S
H7 C2 0.930 . S
C8 O9 1.224 . S
C8 O27 1.247 . S
O9 C8 1.224 . S
N10 Co0 2.128 . S
N10 C11 1.355 . S
N10 C13 1.311 . S
C11 N10 1.355 . S
C11 C12 1.363 . S
C11 H23 0.929 . S
C12 C11 1.363 . S
C12 N14 1.375 . S
C12 H30 0.931 . S
C13 N10 1.311 . S
C13 N14 1.347 . S
C13 H24 0.929 . S
N14 C12 1.375 . S
N14 C13 1.347 . S
C15 C18 1.365 . S
C15 N20 1.328 . S
C15 H21 0.929 . S
C16 C17 1.362 . S
C16 C19 1.378 . S
C16 H31 0.929 . S
C17 C16 1.362 . S
C17 C18 1.366 . S
C18 C15 1.365 . S
C18 C17 1.366 . S
C18 H32 0.930 . S
C19 C16 1.378 . S
C19 N20 1.315 . S
C19 H22 0.930 . S
N20 Co0 2.194 . S
N20 C15 1.328 . S
N20 C19 1.315 . S
H21 C15 0.929 . S
H22 C19 0.930 . S
H23 C11 0.929 . S
H24 C13 0.929 . S
O25 Co0 2.351 . S
O25 C28 1.244 . S
O26 Co0 2.155 . S
O26 C28 1.240 . S
O27 Co0 2.096 . S
O27 C8 1.247 . S
C28 O25 1.244 . S
C28 O26 1.240 . S
H29 C3 0.931 . S
H30 C12 0.931 . S
H31 C16 0.929 . S
H32 C18 0.930 . S
Co33 N37 2.148 . S
Co33 N43 2.128 . S
Co33 N53 2.194 . S
Co33 O58 2.351 . S
Co33 O59 2.155 . S
Co33 O60 2.096 . S
C34 N37 1.301 . S
C34 N38 1.328 . S
C34 H39 0.930 . S
C35 C36 1.333 . S
C35 N37 1.317 . S
C35 H40 0.930 . S
C36 C35 1.333 . S
C36 N38 1.350 . S
C36 H62 0.931 . S
N37 Co33 2.148 . S
N37 C34 1.301 . S
N37 C35 1.317 . S
N38 C34 1.328 . S
N38 C36 1.350 . S
H39 C34 0.930 . S
H40 C35 0.930 . S
C41 O42 1.224 . S
C41 O60 1.247 . S
O42 C41 1.224 . S
N43 Co33 2.128 . S
N43 C44 1.355 . S
N43 C46 1.311 . S
C44 N43 1.355 . S
C44 C45 1.363 . S
C44 H56 0.929 . S
C45 C44 1.363 . S
C45 N47 1.375 . S
C45 H63 0.931 . S
C46 N43 1.311 . S
C46 N47 1.347 . S
C46 H57 0.929 . S
N47 C45 1.375 . S
N47 C46 1.347 . S
C48 C51 1.365 . S
C48 N53 1.328 . S
C48 H54 0.929 . S
C49 C50 1.362 . S
C49 C52 1.378 . S
C49 H64 0.929 . S
C50 C49 1.362 . S
C50 C51 1.366 . S
C51 C48 1.365 . S
C51 C50 1.366 . S
C51 H65 0.930 . S
C52 C49 1.378 . S
C52 N53 1.315 . S
C52 H55 0.930 . S
N53 Co33 2.194 . S
N53 C48 1.328 . S
N53 C52 1.315 . S
H54 C48 0.929 . S
H55 C52 0.930 . S
H56 C44 0.929 . S
H57 C46 0.929 . S
O58 Co33 2.351 . S
O58 C61 1.244 . S
O59 Co33 2.155 . S
O59 C61 1.240 . S
O60 Co33 2.096 . S
O60 C41 1.247 . S
C61 O58 1.244 . S
C61 O59 1.240 . S
H62 C36 0.931 . S
H63 C45 0.931 . S
H64 C49 0.929 . S
H65 C51 0.930 . S
Co66 N70 2.148 . S
Co66 N76 2.128 . S
Co66 N86 2.194 . S
Co66 O91 2.351 . S
Co66 O92 2.155 . S
Co66 O93 2.096 . S
C67 N70 1.301 . S
C67 N71 1.328 . S
C67 H72 0.930 . S
C68 C69 1.333 . S
C68 N70 1.317 . S
C68 H73 0.930 . S
C69 C68 1.333 . S
C69 N71 1.350 . S
C69 H95 0.931 . S
N70 Co66 2.148 . S
N70 C67 1.301 . S
N70 C68 1.317 . S
N71 C67 1.328 . S
N71 C69 1.350 . S
H72 C67 0.930 . S
H73 C68 0.930 . S
C74 O75 1.224 . S
C74 O93 1.247 . S
O75 C74 1.224 . S
N76 Co66 2.128 . S
N76 C77 1.355 . S
N76 C79 1.311 . S
C77 N76 1.355 . S
C77 C78 1.363 . S
C77 H89 0.929 . S
C78 C77 1.363 . S
C78 N80 1.375 . S
C78 H96 0.931 . S
C79 N76 1.311 . S
C79 N80 1.347 . S
C79 H90 0.929 . S
N80 C78 1.375 . S
N80 C79 1.347 . S
C81 C84 1.365 . S
C81 N86 1.328 . S
C81 H87 0.929 . S
C82 C83 1.362 . S
C82 C85 1.378 . S
C82 H97 0.929 . S
C83 C82 1.362 . S
C83 C84 1.366 . S
C84 C81 1.365 . S
C84 C83 1.366 . S
C84 H98 0.930 . S
C85 C82 1.378 . S
C85 N86 1.315 . S
C85 H88 0.930 . S
N86 Co66 2.194 . S
N86 C81 1.328 . S
N86 C85 1.315 . S
H87 C81 0.929 . S
H88 C85 0.930 . S
H89 C77 0.929 . S
H90 C79 0.929 . S
O91 Co66 2.351 . S
O91 C94 1.244 . S
O92 Co66 2.155 . S
O92 C94 1.240 . S
O93 Co66 2.096 . S
O93 C74 1.247 . S
C94 O91 1.244 . S
C94 O92 1.240 . S
H95 C69 0.931 . S
H96 C78 0.931 . S
H97 C82 0.929 . S
H98 C84 0.930 . S
Co99 N103 2.148 . S
Co99 N109 2.128 . S
Co99 N119 2.194 . S
Co99 O124 2.351 . S
Co99 O125 2.155 . S
Co99 O126 2.096 . S
C100 N103 1.301 . S
C100 N104 1.328 . S
C100 H105 0.930 . S
C101 C102 1.333 . S
C101 N103 1.317 . S
C101 H106 0.930 . S
C102 C101 1.333 . S
C102 N104 1.350 . S
C102 H128 0.931 . S
N103 Co99 2.148 . S
N103 C100 1.301 . S
N103 C101 1.317 . S
N104 C100 1.328 . S
N104 C102 1.350 . S
H105 C100 0.930 . S
H106 C101 0.930 . S
C107 O108 1.224 . S
C107 O126 1.247 . S
O108 C107 1.224 . S
N109 Co99 2.128 . S
N109 C110 1.355 . S
N109 C112 1.311 . S
C110 N109 1.355 . S
C110 C111 1.363 . S
C110 H122 0.929 . S
C111 C110 1.363 . S
C111 N113 1.375 . S
C111 H129 0.931 . S
C112 N109 1.311 . S
C112 N113 1.347 . S
C112 H123 0.929 . S
N113 C111 1.375 . S
N113 C112 1.347 . S
C114 C117 1.365 . S
C114 N119 1.328 . S
C114 H120 0.929 . S
C115 C116 1.362 . S
C115 C118 1.378 . S
C115 H130 0.929 . S
C116 C115 1.362 . S
C116 C117 1.366 . S
C117 C114 1.365 . S
C117 C116 1.366 . S
C117 H131 0.930 . S
C118 C115 1.378 . S
C118 N119 1.315 . S
C118 H121 0.930 . S
N119 Co99 2.194 . S
N119 C114 1.328 . S
N119 C118 1.315 . S
H120 C114 0.929 . S
H121 C118 0.930 . S
H122 C110 0.929 . S
H123 C112 0.929 . S
O124 Co99 2.351 . S
O124 C127 1.244 . S
O125 Co99 2.155 . S
O125 C127 1.240 . S
O126 Co99 2.096 . S
O126 C107 1.247 . S
C127 O124 1.244 . S
C127 O125 1.240 . S
H128 C102 0.931 . S
H129 C111 0.931 . S
H130 C115 0.929 . S
H131 C117 0.930 . S
Co132 N136 2.148 . S
Co132 N142 2.128 . S
Co132 N152 2.194 . S
Co132 O157 2.351 . S
Co132 O158 2.155 . S
Co132 O159 2.096 . S
C133 N136 1.301 . S
C133 N137 1.328 . S
C133 H138 0.930 . S
C134 C135 1.333 . S
C134 N136 1.317 . S
C134 H139 0.930 . S
C135 C134 1.333 . S
C135 N137 1.350 . S
C135 H161 0.931 . S
N136 Co132 2.148 . S
N136 C133 1.301 . S
N136 C134 1.317 . S
N137 C133 1.328 . S
N137 C135 1.350 . S
H138 C133 0.930 . S
H139 C134 0.930 . S
C140 O141 1.224 . S
C140 O159 1.247 . S
O141 C140 1.224 . S
N142 Co132 2.128 . S
N142 C143 1.355 . S
N142 C145 1.311 . S
C143 N142 1.355 . S
C143 C144 1.363 . S
C143 H155 0.929 . S
C144 C143 1.363 . S
C144 N146 1.375 . S
C144 H162 0.931 . S
C145 N142 1.311 . S
C145 N146 1.347 . S
C145 H156 0.929 . S
N146 C144 1.375 . S
N146 C145 1.347 . S
C147 C150 1.365 . S
C147 N152 1.328 . S
C147 H153 0.929 . S
C148 C149 1.362 . S
C148 C151 1.378 . S
C148 H163 0.929 . S
C149 C148 1.362 . S
C149 C150 1.366 . S
C150 C147 1.365 . S
C150 C149 1.366 . S
C150 H164 0.930 . S
C151 C148 1.378 . S
C151 N152 1.315 . S
C151 H154 0.930 . S
N152 Co132 2.194 . S
N152 C147 1.328 . S
N152 C151 1.315 . S
H153 C147 0.929 . S
H154 C151 0.930 . S
H155 C143 0.929 . S
H156 C145 0.929 . S
O157 Co132 2.351 . S
O157 C160 1.244 . S
O158 Co132 2.155 . S
O158 C160 1.240 . S
O159 Co132 2.096 . S
O159 C140 1.247 . S
C160 O157 1.244 . S
C160 O158 1.240 . S
H161 C135 0.931 . S
H162 C144 0.931 . S
H163 C148 0.929 . S
H164 C150 0.930 . S
Co165 N169 2.148 . S
Co165 N175 2.128 . S
Co165 N185 2.194 . S
Co165 O190 2.351 . S
Co165 O191 2.155 . S
Co165 O192 2.096 . S
C166 N169 1.301 . S
C166 N170 1.328 . S
C166 H171 0.930 . S
C167 C168 1.333 . S
C167 N169 1.317 . S
C167 H172 0.930 . S
C168 C167 1.333 . S
C168 N170 1.350 . S
C168 H194 0.931 . S
N169 Co165 2.148 . S
N169 C166 1.301 . S
N169 C167 1.317 . S
N170 C166 1.328 . S
N170 C168 1.350 . S
H171 C166 0.930 . S
H172 C167 0.930 . S
C173 O174 1.224 . S
C173 O192 1.247 . S
O174 C173 1.224 . S
N175 Co165 2.128 . S
N175 C176 1.355 . S
N175 C178 1.311 . S
C176 N175 1.355 . S
C176 C177 1.363 . S
C176 H188 0.929 . S
C177 C176 1.363 . S
C177 N179 1.375 . S
C177 H195 0.931 . S
C178 N175 1.311 . S
C178 N179 1.347 . S
C178 H189 0.929 . S
N179 C177 1.375 . S
N179 C178 1.347 . S
C180 C183 1.365 . S
C180 N185 1.328 . S
C180 H186 0.929 . S
C181 C182 1.362 . S
C181 C184 1.378 . S
C181 H196 0.929 . S
C182 C181 1.362 . S
C182 C183 1.366 . S
C183 C180 1.365 . S
C183 C182 1.366 . S
C183 H197 0.930 . S
C184 C181 1.378 . S
C184 N185 1.315 . S
C184 H187 0.930 . S
N185 Co165 2.194 . S
N185 C180 1.328 . S
N185 C184 1.315 . S
H186 C180 0.929 . S
H187 C184 0.930 . S
H188 C176 0.929 . S
H189 C178 0.929 . S
O190 Co165 2.351 . S
O190 C193 1.244 . S
O191 Co165 2.155 . S
O191 C193 1.240 . S
O192 Co165 2.096 . S
O192 C173 1.247 . S
C193 O190 1.244 . S
C193 O191 1.240 . S
H194 C168 0.931 . S
H195 C177 0.931 . S
H196 C181 0.929 . S
H197 C183 0.930 . S
Co198 N202 2.148 . S
Co198 N208 2.128 . S
Co198 N218 2.194 . S
Co198 O223 2.351 . S
Co198 O224 2.155 . S
Co198 O225 2.096 . S
C199 N202 1.301 . S
C199 N203 1.328 . S
C199 H204 0.930 . S
C200 C201 1.333 . S
C200 N202 1.317 . S
C200 H205 0.930 . S
C201 C200 1.333 . S
C201 N203 1.350 . S
C201 H227 0.931 . S
N202 Co198 2.148 . S
N202 C199 1.301 . S
N202 C200 1.317 . S
N203 C199 1.328 . S
N203 C201 1.350 . S
H204 C199 0.930 . S
H205 C200 0.930 . S
C206 O207 1.224 . S
C206 O225 1.247 . S
O207 C206 1.224 . S
N208 Co198 2.128 . S
N208 C209 1.355 . S
N208 C211 1.311 . S
C209 N208 1.355 . S
C209 C210 1.363 . S
C209 H221 0.929 . S
C210 C209 1.363 . S
C210 N212 1.375 . S
C210 H228 0.931 . S
C211 N208 1.311 . S
C211 N212 1.347 . S
C211 H222 0.929 . S
N212 C210 1.375 . S
N212 C211 1.347 . S
C213 C216 1.365 . S
C213 N218 1.328 . S
C213 H219 0.929 . S
C214 C215 1.362 . S
C214 C217 1.378 . S
C214 H229 0.929 . S
C215 C214 1.362 . S
C215 C216 1.366 . S
C216 C213 1.365 . S
C216 C215 1.366 . S
C216 H230 0.930 . S
C217 C214 1.378 . S
C217 N218 1.315 . S
C217 H220 0.930 . S
N218 Co198 2.194 . S
N218 C213 1.328 . S
N218 C217 1.315 . S
H219 C213 0.929 . S
H220 C217 0.930 . S
H221 C209 0.929 . S
H222 C211 0.929 . S
O223 Co198 2.351 . S
O223 C226 1.244 . S
O224 Co198 2.155 . S
O224 C226 1.240 . S
O225 Co198 2.096 . S
O225 C206 1.247 . S
C226 O223 1.244 . S
C226 O224 1.240 . S
H227 C201 0.931 . S
H228 C210 0.931 . S
H229 C214 0.929 . S
H230 C216 0.930 . S
Co231 N235 2.148 . S
Co231 N241 2.128 . S
Co231 N251 2.194 . S
Co231 O256 2.351 . S
Co231 O257 2.155 . S
Co231 O258 2.096 . S
C232 N235 1.301 . S
C232 N236 1.328 . S
C232 H237 0.930 . S
C233 C234 1.333 . S
C233 N235 1.317 . S
C233 H238 0.930 . S
C234 C233 1.333 . S
C234 N236 1.350 . S
C234 H260 0.931 . S
N235 Co231 2.148 . S
N235 C232 1.301 . S
N235 C233 1.317 . S
N236 C232 1.328 . S
N236 C234 1.350 . S
H237 C232 0.930 . S
H238 C233 0.930 . S
C239 O240 1.224 . S
C239 O258 1.247 . S
O240 C239 1.224 . S
N241 Co231 2.128 . S
N241 C242 1.355 . S
N241 C244 1.311 . S
C242 N241 1.355 . S
C242 C243 1.363 . S
C242 H254 0.929 . S
C243 C242 1.363 . S
C243 N245 1.375 . S
C243 H261 0.931 . S
C244 N241 1.311 . S
C244 N245 1.347 . S
C244 H255 0.929 . S
N245 C243 1.375 . S
N245 C244 1.347 . S
C246 C249 1.365 . S
C246 N251 1.328 . S
C246 H252 0.929 . S
C247 C248 1.362 . S
C247 C250 1.378 . S
C247 H262 0.929 . S
C248 C247 1.362 . S
C248 C249 1.366 . S
C249 C246 1.365 . S
C249 C248 1.366 . S
C249 H263 0.930 . S
C250 C247 1.378 . S
C250 N251 1.315 . S
C250 H253 0.930 . S
N251 Co231 2.194 . S
N251 C246 1.328 . S
N251 C250 1.315 . S
H252 C246 0.929 . S
H253 C250 0.930 . S
H254 C242 0.929 . S
H255 C244 0.929 . S
O256 Co231 2.351 . S
O256 C259 1.244 . S
O257 Co231 2.155 . S
O257 C259 1.240 . S
O258 Co231 2.096 . S
O258 C239 1.247 . S
C259 O256 1.244 . S
C259 O257 1.240 . S
H260 C234 0.931 . S
H261 C243 0.931 . S
H262 C247 0.929 . S
H263 C249 0.930 . S
Co264 N268 2.148 . S
Co264 N274 2.128 . S
Co264 N284 2.194 . S
Co264 O289 2.351 . S
Co264 O290 2.155 . S
Co264 O291 2.096 . S
C265 N268 1.301 . S
C265 N269 1.328 . S
C265 H270 0.930 . S
C266 C267 1.333 . S
C266 N268 1.317 . S
C266 H271 0.930 . S
C267 C266 1.333 . S
C267 N269 1.350 . S
C267 H293 0.931 . S
N268 Co264 2.148 . S
N268 C265 1.301 . S
N268 C266 1.317 . S
N269 C265 1.328 . S
N269 C267 1.350 . S
H270 C265 0.930 . S
H271 C266 0.930 . S
C272 O273 1.224 . S
C272 O291 1.247 . S
O273 C272 1.224 . S
N274 Co264 2.128 . S
N274 C275 1.355 . S
N274 C277 1.311 . S
C275 N274 1.355 . S
C275 C276 1.363 . S
C275 H287 0.929 . S
C276 C275 1.363 . S
C276 N278 1.375 . S
C276 H294 0.931 . S
C277 N274 1.311 . S
C277 N278 1.347 . S
C277 H288 0.929 . S
N278 C276 1.375 . S
N278 C277 1.347 . S
C279 C282 1.365 . S
C279 N284 1.328 . S
C279 H285 0.929 . S
C280 C281 1.362 . S
C280 C283 1.378 . S
C280 H295 0.929 . S
C281 C280 1.362 . S
C281 C282 1.366 . S
C282 C279 1.365 . S
C282 C281 1.366 . S
C282 H296 0.930 . S
C283 C280 1.378 . S
C283 N284 1.315 . S
C283 H286 0.930 . S
N284 Co264 2.194 . S
N284 C279 1.328 . S
N284 C283 1.315 . S
H285 C279 0.929 . S
H286 C283 0.930 . S
H287 C275 0.929 . S
H288 C277 0.929 . S
O289 Co264 2.351 . S
O289 C292 1.244 . S
O290 Co264 2.155 . S
O290 C292 1.240 . S
O291 Co264 2.096 . S
O291 C272 1.247 . S
C292 O289 1.244 . S
C292 O290 1.240 . S
H293 C267 0.931 . S
H294 C276 0.931 . S
H295 C280 0.929 . S
H296 C282 0.930 . S
Co297 N301 2.148 . S
Co297 N307 2.128 . S
Co297 N317 2.194 . S
Co297 O322 2.351 . S
Co297 O323 2.155 . S
Co297 O324 2.096 . S
C298 N301 1.301 . S
C298 N302 1.328 . S
C298 H303 0.930 . S
C299 C300 1.333 . S
C299 N301 1.317 . S
C299 H304 0.930 . S
C300 C299 1.333 . S
C300 N302 1.350 . S
C300 H326 0.931 . S
N301 Co297 2.148 . S
N301 C298 1.301 . S
N301 C299 1.317 . S
N302 C298 1.328 . S
N302 C300 1.350 . S
H303 C298 0.930 . S
H304 C299 0.930 . S
C305 O306 1.224 . S
C305 O324 1.247 . S
O306 C305 1.224 . S
N307 Co297 2.128 . S
N307 C308 1.355 . S
N307 C310 1.311 . S
C308 N307 1.355 . S
C308 C309 1.363 . S
C308 H320 0.929 . S
C309 C308 1.363 . S
C309 N311 1.375 . S
C309 H327 0.931 . S
C310 N307 1.311 . S
C310 N311 1.347 . S
C310 H321 0.929 . S
N311 C309 1.375 . S
N311 C310 1.347 . S
C312 C315 1.365 . S
C312 N317 1.328 . S
C312 H318 0.929 . S
C313 C314 1.362 . S
C313 C316 1.378 . S
C313 H328 0.929 . S
C314 C313 1.362 . S
C314 C315 1.366 . S
C315 C312 1.365 . S
C315 C314 1.366 . S
C315 H329 0.930 . S
C316 C313 1.378 . S
C316 N317 1.315 . S
C316 H319 0.930 . S
N317 Co297 2.194 . S
N317 C312 1.328 . S
N317 C316 1.315 . S
H318 C312 0.929 . S
H319 C316 0.930 . S
H320 C308 0.929 . S
H321 C310 0.929 . S
O322 Co297 2.351 . S
O322 C325 1.244 . S
O323 Co297 2.155 . S
O323 C325 1.240 . S
O324 Co297 2.096 . S
O324 C305 1.247 . S
C325 O322 1.244 . S
C325 O323 1.240 . S
H326 C300 0.931 . S
H327 C309 0.931 . S
H328 C313 0.929 . S
H329 C315 0.930 . S
Co330 N334 2.148 . S
Co330 N340 2.128 . S
Co330 N350 2.194 . S
Co330 O355 2.351 . S
Co330 O356 2.155 . S
Co330 O357 2.096 . S
C331 N334 1.301 . S
C331 N335 1.328 . S
C331 H336 0.930 . S
C332 C333 1.333 . S
C332 N334 1.317 . S
C332 H337 0.930 . S
C333 C332 1.333 . S
C333 N335 1.350 . S
C333 H359 0.931 . S
N334 Co330 2.148 . S
N334 C331 1.301 . S
N334 C332 1.317 . S
N335 C331 1.328 . S
N335 C333 1.350 . S
H336 C331 0.930 . S
H337 C332 0.930 . S
C338 O339 1.224 . S
C338 O357 1.247 . S
O339 C338 1.224 . S
N340 Co330 2.128 . S
N340 C341 1.355 . S
N340 C343 1.311 . S
C341 N340 1.355 . S
C341 C342 1.363 . S
C341 H353 0.929 . S
C342 C341 1.363 . S
C342 N344 1.375 . S
C342 H360 0.931 . S
C343 N340 1.311 . S
C343 N344 1.347 . S
C343 H354 0.929 . S
N344 C342 1.375 . S
N344 C343 1.347 . S
C345 C348 1.365 . S
C345 N350 1.328 . S
C345 H351 0.929 . S
C346 C347 1.362 . S
C346 C349 1.378 . S
C346 H361 0.929 . S
C347 C346 1.362 . S
C347 C348 1.366 . S
C348 C345 1.365 . S
C348 C347 1.366 . S
C348 H362 0.930 . S
C349 C346 1.378 . S
C349 N350 1.315 . S
C349 H352 0.930 . S
N350 Co330 2.194 . S
N350 C345 1.328 . S
N350 C349 1.315 . S
H351 C345 0.929 . S
H352 C349 0.930 . S
H353 C341 0.929 . S
H354 C343 0.929 . S
O355 Co330 2.351 . S
O355 C358 1.244 . S
O356 Co330 2.155 . S
O356 C358 1.240 . S
O357 Co330 2.096 . S
O357 C338 1.247 . S
C358 O355 1.244 . S
C358 O356 1.240 . S
H359 C333 0.931 . S
H360 C342 0.931 . S
H361 C346 0.929 . S
H362 C348 0.930 . S
Co363 N367 2.148 . S
Co363 N373 2.128 . S
Co363 N383 2.194 . S
Co363 O388 2.351 . S
Co363 O389 2.155 . S
Co363 O390 2.096 . S
C364 N367 1.301 . S
C364 N368 1.328 . S
C364 H369 0.930 . S
C365 C366 1.333 . S
C365 N367 1.317 . S
C365 H370 0.930 . S
C366 C365 1.333 . S
C366 N368 1.350 . S
C366 H392 0.931 . S
N367 Co363 2.148 . S
N367 C364 1.301 . S
N367 C365 1.317 . S
N368 C364 1.328 . S
N368 C366 1.350 . S
H369 C364 0.930 . S
H370 C365 0.930 . S
C371 O372 1.224 . S
C371 O390 1.247 . S
O372 C371 1.224 . S
N373 Co363 2.128 . S
N373 C374 1.355 . S
N373 C376 1.311 . S
C374 N373 1.355 . S
C374 C375 1.363 . S
C374 H386 0.929 . S
C375 C374 1.363 . S
C375 N377 1.375 . S
C375 H393 0.931 . S
C376 N373 1.311 . S
C376 N377 1.347 . S
C376 H387 0.929 . S
N377 C375 1.375 . S
N377 C376 1.347 . S
C378 C381 1.365 . S
C378 N383 1.328 . S
C378 H384 0.929 . S
C379 C380 1.362 . S
C379 C382 1.378 . S
C379 H394 0.929 . S
C380 C379 1.362 . S
C380 C381 1.366 . S
C381 C378 1.365 . S
C381 C380 1.366 . S
C381 H395 0.930 . S
C382 C379 1.378 . S
C382 N383 1.315 . S
C382 H385 0.930 . S
N383 Co363 2.194 . S
N383 C378 1.328 . S
N383 C382 1.315 . S
H384 C378 0.929 . S
H385 C382 0.930 . S
H386 C374 0.929 . S
H387 C376 0.929 . S
O388 Co363 2.351 . S
O388 C391 1.244 . S
O389 Co363 2.155 . S
O389 C391 1.240 . S
O390 Co363 2.096 . S
O390 C371 1.247 . S
C391 O388 1.244 . S
C391 O389 1.240 . S
H392 C366 0.931 . S
H393 C375 0.931 . S
H394 C379 0.929 . S
H395 C381 0.930 . S
Co396 N400 2.148 . S
Co396 N406 2.128 . S
Co396 N416 2.194 . S
Co396 O421 2.351 . S
Co396 O422 2.155 . S
Co396 O423 2.096 . S
C397 N400 1.301 . S
C397 N401 1.328 . S
C397 H402 0.930 . S
C398 C399 1.333 . S
C398 N400 1.317 . S
C398 H403 0.930 . S
C399 C398 1.333 . S
C399 N401 1.350 . S
C399 H425 0.931 . S
N400 Co396 2.148 . S
N400 C397 1.301 . S
N400 C398 1.317 . S
N401 C397 1.328 . S
N401 C399 1.350 . S
H402 C397 0.930 . S
H403 C398 0.930 . S
C404 O405 1.224 . S
C404 O423 1.247 . S
O405 C404 1.224 . S
N406 Co396 2.128 . S
N406 C407 1.355 . S
N406 C409 1.311 . S
C407 N406 1.355 . S
C407 C408 1.363 . S
C407 H419 0.929 . S
C408 C407 1.363 . S
C408 N410 1.375 . S
C408 H426 0.931 . S
C409 N406 1.311 . S
C409 N410 1.347 . S
C409 H420 0.929 . S
N410 C408 1.375 . S
N410 C409 1.347 . S
C411 C414 1.365 . S
C411 N416 1.328 . S
C411 H417 0.929 . S
C412 C413 1.362 . S
C412 C415 1.378 . S
C412 H427 0.929 . S
C413 C412 1.362 . S
C413 C414 1.366 . S
C414 C411 1.365 . S
C414 C413 1.366 . S
C414 H428 0.930 . S
C415 C412 1.378 . S
C415 N416 1.315 . S
C415 H418 0.930 . S
N416 Co396 2.194 . S
N416 C411 1.328 . S
N416 C415 1.315 . S
H417 C411 0.929 . S
H418 C415 0.930 . S
H419 C407 0.929 . S
H420 C409 0.929 . S
O421 Co396 2.351 . S
O421 C424 1.244 . S
O422 Co396 2.155 . S
O422 C424 1.240 . S
O423 Co396 2.096 . S
O423 C404 1.247 . S
C424 O421 1.244 . S
C424 O422 1.240 . S
H425 C399 0.931 . S
H426 C408 0.931 . S
H427 C412 0.929 . S
H428 C414 0.930 . S
Co429 N433 2.148 . S
Co429 N439 2.128 . S
Co429 N449 2.194 . S
Co429 O454 2.351 . S
Co429 O455 2.155 . S
Co429 O456 2.096 . S
C430 N433 1.301 . S
C430 N434 1.328 . S
C430 H435 0.930 . S
C431 C432 1.333 . S
C431 N433 1.317 . S
C431 H436 0.930 . S
C432 C431 1.333 . S
C432 N434 1.350 . S
C432 H458 0.931 . S
N433 Co429 2.148 . S
N433 C430 1.301 . S
N433 C431 1.317 . S
N434 C430 1.328 . S
N434 C432 1.350 . S
H435 C430 0.930 . S
H436 C431 0.930 . S
C437 O438 1.224 . S
C437 O456 1.247 . S
O438 C437 1.224 . S
N439 Co429 2.128 . S
N439 C440 1.355 . S
N439 C442 1.311 . S
C440 N439 1.355 . S
C440 C441 1.363 . S
C440 H452 0.929 . S
C441 C440 1.363 . S
C441 N443 1.375 . S
C441 H459 0.931 . S
C442 N439 1.311 . S
C442 N443 1.347 . S
C442 H453 0.929 . S
N443 C441 1.375 . S
N443 C442 1.347 . S
C444 C447 1.365 . S
C444 N449 1.328 . S
C444 H450 0.929 . S
C445 C446 1.362 . S
C445 C448 1.378 . S
C445 H460 0.929 . S
C446 C445 1.362 . S
C446 C447 1.366 . S
C447 C444 1.365 . S
C447 C446 1.366 . S
C447 H461 0.930 . S
C448 C445 1.378 . S
C448 N449 1.315 . S
C448 H451 0.930 . S
N449 Co429 2.194 . S
N449 C444 1.328 . S
N449 C448 1.315 . S
H450 C444 0.929 . S
H451 C448 0.930 . S
H452 C440 0.929 . S
H453 C442 0.929 . S
O454 Co429 2.351 . S
O454 C457 1.244 . S
O455 Co429 2.155 . S
O455 C457 1.240 . S
O456 Co429 2.096 . S
O456 C437 1.247 . S
C457 O454 1.244 . S
C457 O455 1.240 . S
H458 C432 0.931 . S
H459 C441 0.931 . S
H460 C445 0.929 . S
H461 C447 0.930 . S
Co462 N466 2.148 . S
Co462 N472 2.128 . S
Co462 N482 2.194 . S
Co462 O487 2.351 . S
Co462 O488 2.155 . S
Co462 O489 2.096 . S
C463 N466 1.301 . S
C463 N467 1.328 . S
C463 H468 0.930 . S
C464 C465 1.333 . S
C464 N466 1.317 . S
C464 H469 0.930 . S
C465 C464 1.333 . S
C465 N467 1.350 . S
C465 H491 0.931 . S
N466 Co462 2.148 . S
N466 C463 1.301 . S
N466 C464 1.317 . S
N467 C463 1.328 . S
N467 C465 1.350 . S
H468 C463 0.930 . S
H469 C464 0.930 . S
C470 O471 1.224 . S
C470 O489 1.247 . S
O471 C470 1.224 . S
N472 Co462 2.128 . S
N472 C473 1.355 . S
N472 C475 1.311 . S
C473 N472 1.355 . S
C473 C474 1.363 . S
C473 H485 0.929 . S
C474 C473 1.363 . S
C474 N476 1.375 . S
C474 H492 0.931 . S
C475 N472 1.311 . S
C475 N476 1.347 . S
C475 H486 0.929 . S
N476 C474 1.375 . S
N476 C475 1.347 . S
C477 C480 1.365 . S
C477 N482 1.328 . S
C477 H483 0.929 . S
C478 C479 1.362 . S
C478 C481 1.378 . S
C478 H493 0.929 . S
C479 C478 1.362 . S
C479 C480 1.366 . S
C480 C477 1.365 . S
C480 C479 1.366 . S
C480 H494 0.930 . S
C481 C478 1.378 . S
C481 N482 1.315 . S
C481 H484 0.930 . S
N482 Co462 2.194 . S
N482 C477 1.328 . S
N482 C481 1.315 . S
H483 C477 0.929 . S
H484 C481 0.930 . S
H485 C473 0.929 . S
H486 C475 0.929 . S
O487 Co462 2.351 . S
O487 C490 1.244 . S
O488 Co462 2.155 . S
O488 C490 1.240 . S
O489 Co462 2.096 . S
O489 C470 1.247 . S
C490 O487 1.244 . S
C490 O488 1.240 . S
H491 C465 0.931 . S
H492 C474 0.931 . S
H493 C478 0.929 . S
H494 C480 0.930 . S
Co495 N499 2.148 . S
Co495 N505 2.128 . S
Co495 N515 2.194 . S
Co495 O520 2.351 . S
Co495 O521 2.155 . S
Co495 O522 2.096 . S
C496 N499 1.301 . S
C496 N500 1.328 . S
C496 H501 0.930 . S
C497 C498 1.333 . S
C497 N499 1.317 . S
C497 H502 0.930 . S
C498 C497 1.333 . S
C498 N500 1.350 . S
C498 H524 0.931 . S
N499 Co495 2.148 . S
N499 C496 1.301 . S
N499 C497 1.317 . S
N500 C496 1.328 . S
N500 C498 1.350 . S
H501 C496 0.930 . S
H502 C497 0.930 . S
C503 O504 1.224 . S
C503 O522 1.247 . S
O504 C503 1.224 . S
N505 Co495 2.128 . S
N505 C506 1.355 . S
N505 C508 1.311 . S
C506 N505 1.355 . S
C506 C507 1.363 . S
C506 H518 0.929 . S
C507 C506 1.363 . S
C507 N509 1.375 . S
C507 H525 0.931 . S
C508 N505 1.311 . S
C508 N509 1.347 . S
C508 H519 0.929 . S
N509 C507 1.375 . S
N509 C508 1.347 . S
C510 C513 1.365 . S
C510 N515 1.328 . S
C510 H516 0.929 . S
C511 C512 1.362 . S
C511 C514 1.378 . S
C511 H526 0.929 . S
C512 C511 1.362 . S
C512 C513 1.366 . S
C513 C510 1.365 . S
C513 C512 1.366 . S
C513 H527 0.930 . S
C514 C511 1.378 . S
C514 N515 1.315 . S
C514 H517 0.930 . S
N515 Co495 2.194 . S
N515 C510 1.328 . S
N515 C514 1.315 . S
H516 C510 0.929 . S
H517 C514 0.930 . S
H518 C506 0.929 . S
H519 C508 0.929 . S
O520 Co495 2.351 . S
O520 C523 1.244 . S
O521 Co495 2.155 . S
O521 C523 1.240 . S
O522 Co495 2.096 . S
O522 C503 1.247 . S
C523 O520 1.244 . S
C523 O521 1.240 . S
H524 C498 0.931 . S
H525 C507 0.931 . S
H526 C511 0.929 . S
H527 C513 0.930 . S
Co528 N532 2.148 . S
Co528 N538 2.128 . S
Co528 N548 2.194 . S
Co528 O553 2.351 . S
Co528 O554 2.155 . S
Co528 O555 2.096 . S
C529 N532 1.301 . S
C529 N533 1.328 . S
C529 H534 0.930 . S
C530 C531 1.333 . S
C530 N532 1.317 . S
C530 H535 0.930 . S
C531 C530 1.333 . S
C531 N533 1.350 . S
C531 H557 0.931 . S
N532 Co528 2.148 . S
N532 C529 1.301 . S
N532 C530 1.317 . S
N533 C529 1.328 . S
N533 C531 1.350 . S
H534 C529 0.930 . S
H535 C530 0.930 . S
C536 O537 1.224 . S
C536 O555 1.247 . S
O537 C536 1.224 . S
N538 Co528 2.128 . S
N538 C539 1.355 . S
N538 C541 1.311 . S
C539 N538 1.355 . S
C539 C540 1.363 . S
C539 H551 0.929 . S
C540 C539 1.363 . S
C540 N542 1.375 . S
C540 H558 0.931 . S
C541 N538 1.311 . S
C541 N542 1.347 . S
C541 H552 0.929 . S
N542 C540 1.375 . S
N542 C541 1.347 . S
C543 C546 1.365 . S
C543 N548 1.328 . S
C543 H549 0.929 . S
C544 C545 1.362 . S
C544 C547 1.378 . S
C544 H559 0.929 . S
C545 C544 1.362 . S
C545 C546 1.366 . S
C546 C543 1.365 . S
C546 C545 1.366 . S
C546 H560 0.930 . S
C547 C544 1.378 . S
C547 N548 1.315 . S
C547 H550 0.930 . S
N548 Co528 2.194 . S
N548 C543 1.328 . S
N548 C547 1.315 . S
H549 C543 0.929 . S
H550 C547 0.930 . S
H551 C539 0.929 . S
H552 C541 0.929 . S
O553 Co528 2.351 . S
O553 C556 1.244 . S
O554 Co528 2.155 . S
O554 C556 1.240 . S
O555 Co528 2.096 . S
O555 C536 1.247 . S
C556 O553 1.244 . S
C556 O554 1.240 . S
H557 C531 0.931 . S
H558 C540 0.931 . S
H559 C544 0.929 . S
H560 C546 0.930 . S
Co561 N565 2.148 . S
Co561 N571 2.128 . S
Co561 N581 2.194 . S
Co561 O586 2.351 . S
Co561 O587 2.155 . S
Co561 O588 2.096 . S
C562 N565 1.301 . S
C562 N566 1.328 . S
C562 H567 0.930 . S
C563 C564 1.333 . S
C563 N565 1.317 . S
C563 H568 0.930 . S
C564 C563 1.333 . S
C564 N566 1.350 . S
C564 H590 0.931 . S
N565 Co561 2.148 . S
N565 C562 1.301 . S
N565 C563 1.317 . S
N566 C562 1.328 . S
N566 C564 1.350 . S
H567 C562 0.930 . S
H568 C563 0.930 . S
C569 O570 1.224 . S
C569 O588 1.247 . S
O570 C569 1.224 . S
N571 Co561 2.128 . S
N571 C572 1.355 . S
N571 C574 1.311 . S
C572 N571 1.355 . S
C572 C573 1.363 . S
C572 H584 0.929 . S
C573 C572 1.363 . S
C573 N575 1.375 . S
C573 H591 0.931 . S
C574 N571 1.311 . S
C574 N575 1.347 . S
C574 H585 0.929 . S
N575 C573 1.375 . S
N575 C574 1.347 . S
C576 C579 1.365 . S
C576 N581 1.328 . S
C576 H582 0.929 . S
C577 C578 1.362 . S
C577 C580 1.378 . S
C577 H592 0.929 . S
C578 C577 1.362 . S
C578 C579 1.366 . S
C579 C576 1.365 . S
C579 C578 1.366 . S
C579 H593 0.930 . S
C580 C577 1.378 . S
C580 N581 1.315 . S
C580 H583 0.930 . S
N581 Co561 2.194 . S
N581 C576 1.328 . S
N581 C580 1.315 . S
H582 C576 0.929 . S
H583 C580 0.930 . S
H584 C572 0.929 . S
H585 C574 0.929 . S
O586 Co561 2.351 . S
O586 C589 1.244 . S
O587 Co561 2.155 . S
O587 C589 1.240 . S
O588 Co561 2.096 . S
O588 C569 1.247 . S
C589 O586 1.244 . S
C589 O587 1.240 . S
H590 C564 0.931 . S
H591 C573 0.931 . S
H592 C577 0.929 . S
H593 C579 0.930 . S
Co594 N598 2.148 . S
Co594 N604 2.128 . S
Co594 N614 2.194 . S
Co594 O619 2.351 . S
Co594 O620 2.155 . S
Co594 O621 2.096 . S
C595 N598 1.301 . S
C595 N599 1.328 . S
C595 H600 0.930 . S
C596 C597 1.333 . S
C596 N598 1.317 . S
C596 H601 0.930 . S
C597 C596 1.333 . S
C597 N599 1.350 . S
C597 H623 0.931 . S
N598 Co594 2.148 . S
N598 C595 1.301 . S
N598 C596 1.317 . S
N599 C595 1.328 . S
N599 C597 1.350 . S
H600 C595 0.930 . S
H601 C596 0.930 . S
C602 O603 1.224 . S
C602 O621 1.247 . S
O603 C602 1.224 . S
N604 Co594 2.128 . S
N604 C605 1.355 . S
N604 C607 1.311 . S
C605 N604 1.355 . S
C605 C606 1.363 . S
C605 H617 0.929 . S
C606 C605 1.363 . S
C606 N608 1.375 . S
C606 H624 0.931 . S
C607 N604 1.311 . S
C607 N608 1.347 . S
C607 H618 0.929 . S
N608 C606 1.375 . S
N608 C607 1.347 . S
C609 C612 1.365 . S
C609 N614 1.328 . S
C609 H615 0.929 . S
C610 C611 1.362 . S
C610 C613 1.378 . S
C610 H625 0.929 . S
C611 C610 1.362 . S
C611 C612 1.366 . S
C612 C609 1.365 . S
C612 C611 1.366 . S
C612 H626 0.930 . S
C613 C610 1.378 . S
C613 N614 1.315 . S
C613 H616 0.930 . S
N614 Co594 2.194 . S
N614 C609 1.328 . S
N614 C613 1.315 . S
H615 C609 0.929 . S
H616 C613 0.930 . S
H617 C605 0.929 . S
H618 C607 0.929 . S
O619 Co594 2.351 . S
O619 C622 1.244 . S
O620 Co594 2.155 . S
O620 C622 1.240 . S
O621 Co594 2.096 . S
O621 C602 1.247 . S
C622 O619 1.244 . S
C622 O620 1.240 . S
H623 C597 0.931 . S
H624 C606 0.931 . S
H625 C610 0.929 . S
H626 C612 0.930 . S
Co627 N631 2.148 . S
Co627 N637 2.128 . S
Co627 N647 2.194 . S
Co627 O652 2.351 . S
Co627 O653 2.155 . S
Co627 O654 2.096 . S
C628 N631 1.301 . S
C628 N632 1.328 . S
C628 H633 0.930 . S
C629 C630 1.333 . S
C629 N631 1.317 . S
C629 H634 0.930 . S
C630 C629 1.333 . S
C630 N632 1.350 . S
C630 H656 0.931 . S
N631 Co627 2.148 . S
N631 C628 1.301 . S
N631 C629 1.317 . S
N632 C628 1.328 . S
N632 C630 1.350 . S
H633 C628 0.930 . S
H634 C629 0.930 . S
C635 O636 1.224 . S
C635 O654 1.247 . S
O636 C635 1.224 . S
N637 Co627 2.128 . S
N637 C638 1.355 . S
N637 C640 1.311 . S
C638 N637 1.355 . S
C638 C639 1.363 . S
C638 H650 0.929 . S
C639 C638 1.363 . S
C639 N641 1.375 . S
C639 H657 0.931 . S
C640 N637 1.311 . S
C640 N641 1.347 . S
C640 H651 0.929 . S
N641 C639 1.375 . S
N641 C640 1.347 . S
C642 C645 1.365 . S
C642 N647 1.328 . S
C642 H648 0.929 . S
C643 C644 1.362 . S
C643 C646 1.378 . S
C643 H658 0.929 . S
C644 C643 1.362 . S
C644 C645 1.366 . S
C645 C642 1.365 . S
C645 C644 1.366 . S
C645 H659 0.930 . S
C646 C643 1.378 . S
C646 N647 1.315 . S
C646 H649 0.930 . S
N647 Co627 2.194 . S
N647 C642 1.328 . S
N647 C646 1.315 . S
H648 C642 0.929 . S
H649 C646 0.930 . S
H650 C638 0.929 . S
H651 C640 0.929 . S
O652 Co627 2.351 . S
O652 C655 1.244 . S
O653 Co627 2.155 . S
O653 C655 1.240 . S
O654 Co627 2.096 . S
O654 C635 1.247 . S
C655 O652 1.244 . S
C655 O653 1.240 . S
H656 C630 0.931 . S
H657 C639 0.931 . S
H658 C643 0.929 . S
H659 C645 0.930 . S
Co660 N664 2.148 . S
Co660 N670 2.128 . S
Co660 N680 2.194 . S
Co660 O685 2.351 . S
Co660 O686 2.155 . S
Co660 O687 2.096 . S
C661 N664 1.301 . S
C661 N665 1.328 . S
C661 H666 0.930 . S
C662 C663 1.333 . S
C662 N664 1.317 . S
C662 H667 0.930 . S
C663 C662 1.333 . S
C663 N665 1.350 . S
C663 H689 0.931 . S
N664 Co660 2.148 . S
N664 C661 1.301 . S
N664 C662 1.317 . S
N665 C661 1.328 . S
N665 C663 1.350 . S
H666 C661 0.930 . S
H667 C662 0.930 . S
C668 O669 1.224 . S
C668 O687 1.247 . S
O669 C668 1.224 . S
N670 Co660 2.128 . S
N670 C671 1.355 . S
N670 C673 1.311 . S
C671 N670 1.355 . S
C671 C672 1.363 . S
C671 H683 0.929 . S
C672 C671 1.363 . S
C672 N674 1.375 . S
C672 H690 0.931 . S
C673 N670 1.311 . S
C673 N674 1.347 . S
C673 H684 0.929 . S
N674 C672 1.375 . S
N674 C673 1.347 . S
C675 C678 1.365 . S
C675 N680 1.328 . S
C675 H681 0.929 . S
C676 C677 1.362 . S
C676 C679 1.378 . S
C676 H691 0.929 . S
C677 C676 1.362 . S
C677 C678 1.366 . S
C678 C675 1.365 . S
C678 C677 1.366 . S
C678 H692 0.930 . S
C679 C676 1.378 . S
C679 N680 1.315 . S
C679 H682 0.930 . S
N680 Co660 2.194 . S
N680 C675 1.328 . S
N680 C679 1.315 . S
H681 C675 0.929 . S
H682 C679 0.930 . S
H683 C671 0.929 . S
H684 C673 0.929 . S
O685 Co660 2.351 . S
O685 C688 1.244 . S
O686 Co660 2.155 . S
O686 C688 1.240 . S
O687 Co660 2.096 . S
O687 C668 1.247 . S
C688 O685 1.244 . S
C688 O686 1.240 . S
H689 C663 0.931 . S
H690 C672 0.931 . S
H691 C676 0.929 . S
H692 C678 0.930 . S
Co693 N697 2.148 . S
Co693 N703 2.128 . S
Co693 N713 2.194 . S
Co693 O718 2.351 . S
Co693 O719 2.155 . S
Co693 O720 2.096 . S
C694 N697 1.301 . S
C694 N698 1.328 . S
C694 H699 0.930 . S
C695 C696 1.333 . S
C695 N697 1.317 . S
C695 H700 0.930 . S
C696 C695 1.333 . S
C696 N698 1.350 . S
C696 H722 0.931 . S
N697 Co693 2.148 . S
N697 C694 1.301 . S
N697 C695 1.317 . S
N698 C694 1.328 . S
N698 C696 1.350 . S
H699 C694 0.930 . S
H700 C695 0.930 . S
C701 O702 1.224 . S
C701 O720 1.247 . S
O702 C701 1.224 . S
N703 Co693 2.128 . S
N703 C704 1.355 . S
N703 C706 1.311 . S
C704 N703 1.355 . S
C704 C705 1.363 . S
C704 H716 0.929 . S
C705 C704 1.363 . S
C705 N707 1.375 . S
C705 H723 0.931 . S
C706 N703 1.311 . S
C706 N707 1.347 . S
C706 H717 0.929 . S
N707 C705 1.375 . S
N707 C706 1.347 . S
C708 C711 1.365 . S
C708 N713 1.328 . S
C708 H714 0.929 . S
C709 C710 1.362 . S
C709 C712 1.378 . S
C709 H724 0.929 . S
C710 C709 1.362 . S
C710 C711 1.366 . S
C711 C708 1.365 . S
C711 C710 1.366 . S
C711 H725 0.930 . S
C712 C709 1.378 . S
C712 N713 1.315 . S
C712 H715 0.930 . S
N713 Co693 2.194 . S
N713 C708 1.328 . S
N713 C712 1.315 . S
H714 C708 0.929 . S
H715 C712 0.930 . S
H716 C704 0.929 . S
H717 C706 0.929 . S
O718 Co693 2.351 . S
O718 C721 1.244 . S
O719 Co693 2.155 . S
O719 C721 1.240 . S
O720 Co693 2.096 . S
O720 C701 1.247 . S
C721 O718 1.244 . S
C721 O719 1.240 . S
H722 C696 0.931 . S
H723 C705 0.931 . S
H724 C709 0.929 . S
H725 C711 0.930 . S
Co726 N730 2.148 . S
Co726 N736 2.128 . S
Co726 N746 2.194 . S
Co726 O751 2.351 . S
Co726 O752 2.155 . S
Co726 O753 2.096 . S
C727 N730 1.301 . S
C727 N731 1.328 . S
C727 H732 0.930 . S
C728 C729 1.333 . S
C728 N730 1.317 . S
C728 H733 0.930 . S
C729 C728 1.333 . S
C729 N731 1.350 . S
C729 H755 0.931 . S
N730 Co726 2.148 . S
N730 C727 1.301 . S
N730 C728 1.317 . S
N731 C727 1.328 . S
N731 C729 1.350 . S
H732 C727 0.930 . S
H733 C728 0.930 . S
C734 O735 1.224 . S
C734 O753 1.247 . S
O735 C734 1.224 . S
N736 Co726 2.128 . S
N736 C737 1.355 . S
N736 C739 1.311 . S
C737 N736 1.355 . S
C737 C738 1.363 . S
C737 H749 0.929 . S
C738 C737 1.363 . S
C738 N740 1.375 . S
C738 H756 0.931 . S
C739 N736 1.311 . S
C739 N740 1.347 . S
C739 H750 0.929 . S
N740 C738 1.375 . S
N740 C739 1.347 . S
C741 C744 1.365 . S
C741 N746 1.328 . S
C741 H747 0.929 . S
C742 C743 1.362 . S
C742 C745 1.378 . S
C742 H757 0.929 . S
C743 C742 1.362 . S
C743 C744 1.366 . S
C744 C741 1.365 . S
C744 C743 1.366 . S
C744 H758 0.930 . S
C745 C742 1.378 . S
C745 N746 1.315 . S
C745 H748 0.930 . S
N746 Co726 2.194 . S
N746 C741 1.328 . S
N746 C745 1.315 . S
H747 C741 0.929 . S
H748 C745 0.930 . S
H749 C737 0.929 . S
H750 C739 0.929 . S
O751 Co726 2.351 . S
O751 C754 1.244 . S
O752 Co726 2.155 . S
O752 C754 1.240 . S
O753 Co726 2.096 . S
O753 C734 1.247 . S
C754 O751 1.244 . S
C754 O752 1.240 . S
H755 C729 0.931 . S
H756 C738 0.931 . S
H757 C742 0.929 . S
H758 C744 0.930 . S
Co759 N763 2.148 . S
Co759 N769 2.128 . S
Co759 N779 2.194 . S
Co759 O784 2.351 . S
Co759 O785 2.155 . S
Co759 O786 2.096 . S
C760 N763 1.301 . S
C760 N764 1.328 . S
C760 H765 0.930 . S
C761 C762 1.333 . S
C761 N763 1.317 . S
C761 H766 0.930 . S
C762 C761 1.333 . S
C762 N764 1.350 . S
C762 H788 0.931 . S
N763 Co759 2.148 . S
N763 C760 1.301 . S
N763 C761 1.317 . S
N764 C760 1.328 . S
N764 C762 1.350 . S
H765 C760 0.930 . S
H766 C761 0.930 . S
C767 O768 1.224 . S
C767 O786 1.247 . S
O768 C767 1.224 . S
N769 Co759 2.128 . S
N769 C770 1.355 . S
N769 C772 1.311 . S
C770 N769 1.355 . S
C770 C771 1.363 . S
C770 H782 0.929 . S
C771 C770 1.363 . S
C771 N773 1.375 . S
C771 H789 0.931 . S
C772 N769 1.311 . S
C772 N773 1.347 . S
C772 H783 0.929 . S
N773 C771 1.375 . S
N773 C772 1.347 . S
C774 C777 1.365 . S
C774 N779 1.328 . S
C774 H780 0.929 . S
C775 C776 1.362 . S
C775 C778 1.378 . S
C775 H790 0.929 . S
C776 C775 1.362 . S
C776 C777 1.366 . S
C777 C774 1.365 . S
C777 C776 1.366 . S
C777 H791 0.930 . S
C778 C775 1.378 . S
C778 N779 1.315 . S
C778 H781 0.930 . S
N779 Co759 2.194 . S
N779 C774 1.328 . S
N779 C778 1.315 . S
H780 C774 0.929 . S
H781 C778 0.930 . S
H782 C770 0.929 . S
H783 C772 0.929 . S
O784 Co759 2.351 . S
O784 C787 1.244 . S
O785 Co759 2.155 . S
O785 C787 1.240 . S
O786 Co759 2.096 . S
O786 C767 1.247 . S
C787 O784 1.244 . S
C787 O785 1.240 . S
H788 C762 0.931 . S
H789 C771 0.931 . S
H790 C775 0.929 . S
H791 C777 0.930 . S
Co792 N796 2.148 . S
Co792 N802 2.128 . S
Co792 N812 2.194 . S
Co792 O817 2.351 . S
Co792 O818 2.155 . S
Co792 O819 2.096 . S
C793 N796 1.301 . S
C793 N797 1.328 . S
C793 H798 0.930 . S
C794 C795 1.333 . S
C794 N796 1.317 . S
C794 H799 0.930 . S
C795 C794 1.333 . S
C795 N797 1.350 . S
C795 H821 0.931 . S
N796 Co792 2.148 . S
N796 C793 1.301 . S
N796 C794 1.317 . S
N797 C793 1.328 . S
N797 C795 1.350 . S
H798 C793 0.930 . S
H799 C794 0.930 . S
C800 O801 1.224 . S
C800 O819 1.247 . S
O801 C800 1.224 . S
N802 Co792 2.128 . S
N802 C803 1.355 . S
N802 C805 1.311 . S
C803 N802 1.355 . S
C803 C804 1.363 . S
C803 H815 0.929 . S
C804 C803 1.363 . S
C804 N806 1.375 . S
C804 H822 0.931 . S
C805 N802 1.311 . S
C805 N806 1.347 . S
C805 H816 0.929 . S
N806 C804 1.375 . S
N806 C805 1.347 . S
C807 C810 1.365 . S
C807 N812 1.328 . S
C807 H813 0.929 . S
C808 C809 1.362 . S
C808 C811 1.378 . S
C808 H823 0.929 . S
C809 C808 1.362 . S
C809 C810 1.366 . S
C810 C807 1.365 . S
C810 C809 1.366 . S
C810 H824 0.930 . S
C811 C808 1.378 . S
C811 N812 1.315 . S
C811 H814 0.930 . S
N812 Co792 2.194 . S
N812 C807 1.328 . S
N812 C811 1.315 . S
H813 C807 0.929 . S
H814 C811 0.930 . S
H815 C803 0.929 . S
H816 C805 0.929 . S
O817 Co792 2.351 . S
O817 C820 1.244 . S
O818 Co792 2.155 . S
O818 C820 1.240 . S
O819 Co792 2.096 . S
O819 C800 1.247 . S
C820 O817 1.244 . S
C820 O818 1.240 . S
H821 C795 0.931 . S
H822 C804 0.931 . S
H823 C808 0.929 . S
H824 C810 0.930 . S
Co825 N829 2.148 . S
Co825 N835 2.128 . S
Co825 N845 2.194 . S
Co825 O850 2.351 . S
Co825 O851 2.155 . S
Co825 O852 2.096 . S
C826 N829 1.301 . S
C826 N830 1.328 . S
C826 H831 0.930 . S
C827 C828 1.333 . S
C827 N829 1.317 . S
C827 H832 0.930 . S
C828 C827 1.333 . S
C828 N830 1.350 . S
C828 H854 0.931 . S
N829 Co825 2.148 . S
N829 C826 1.301 . S
N829 C827 1.317 . S
N830 C826 1.328 . S
N830 C828 1.350 . S
H831 C826 0.930 . S
H832 C827 0.930 . S
C833 O834 1.224 . S
C833 O852 1.247 . S
O834 C833 1.224 . S
N835 Co825 2.128 . S
N835 C836 1.355 . S
N835 C838 1.311 . S
C836 N835 1.355 . S
C836 C837 1.363 . S
C836 H848 0.929 . S
C837 C836 1.363 . S
C837 N839 1.375 . S
C837 H855 0.931 . S
C838 N835 1.311 . S
C838 N839 1.347 . S
C838 H849 0.929 . S
N839 C837 1.375 . S
N839 C838 1.347 . S
C840 C843 1.365 . S
C840 N845 1.328 . S
C840 H846 0.929 . S
C841 C842 1.362 . S
C841 C844 1.378 . S
C841 H856 0.929 . S
C842 C841 1.362 . S
C842 C843 1.366 . S
C843 C840 1.365 . S
C843 C842 1.366 . S
C843 H857 0.930 . S
C844 C841 1.378 . S
C844 N845 1.315 . S
C844 H847 0.930 . S
N845 Co825 2.194 . S
N845 C840 1.328 . S
N845 C844 1.315 . S
H846 C840 0.929 . S
H847 C844 0.930 . S
H848 C836 0.929 . S
H849 C838 0.929 . S
O850 Co825 2.351 . S
O850 C853 1.244 . S
O851 Co825 2.155 . S
O851 C853 1.240 . S
O852 Co825 2.096 . S
O852 C833 1.247 . S
C853 O850 1.244 . S
C853 O851 1.240 . S
H854 C828 0.931 . S
H855 C837 0.931 . S
H856 C841 0.929 . S
H857 C843 0.930 . S
Co858 N862 2.148 . S
Co858 N868 2.128 . S
Co858 N878 2.194 . S
Co858 O883 2.351 . S
Co858 O884 2.155 . S
Co858 O885 2.096 . S
C859 N862 1.301 . S
C859 N863 1.328 . S
C859 H864 0.930 . S
C860 C861 1.333 . S
C860 N862 1.317 . S
C860 H865 0.930 . S
C861 C860 1.333 . S
C861 N863 1.350 . S
C861 H887 0.931 . S
N862 Co858 2.148 . S
N862 C859 1.301 . S
N862 C860 1.317 . S
N863 C859 1.328 . S
N863 C861 1.350 . S
H864 C859 0.930 . S
H865 C860 0.930 . S
C866 O867 1.224 . S
C866 O885 1.247 . S
O867 C866 1.224 . S
N868 Co858 2.128 . S
N868 C869 1.355 . S
N868 C871 1.311 . S
C869 N868 1.355 . S
C869 C870 1.363 . S
C869 H881 0.929 . S
C870 C869 1.363 . S
C870 N872 1.375 . S
C870 H888 0.931 . S
C871 N868 1.311 . S
C871 N872 1.347 . S
C871 H882 0.929 . S
N872 C870 1.375 . S
N872 C871 1.347 . S
C873 C876 1.365 . S
C873 N878 1.328 . S
C873 H879 0.929 . S
C874 C875 1.362 . S
C874 C877 1.378 . S
C874 H889 0.929 . S
C875 C874 1.362 . S
C875 C876 1.366 . S
C876 C873 1.365 . S
C876 C875 1.366 . S
C876 H890 0.930 . S
C877 C874 1.378 . S
C877 N878 1.315 . S
C877 H880 0.930 . S
N878 Co858 2.194 . S
N878 C873 1.328 . S
N878 C877 1.315 . S
H879 C873 0.929 . S
H880 C877 0.930 . S
H881 C869 0.929 . S
H882 C871 0.929 . S
O883 Co858 2.351 . S
O883 C886 1.244 . S
O884 Co858 2.155 . S
O884 C886 1.240 . S
O885 Co858 2.096 . S
O885 C866 1.247 . S
C886 O883 1.244 . S
C886 O884 1.240 . S
H887 C861 0.931 . S
H888 C870 0.931 . S
H889 C874 0.929 . S
H890 C876 0.930 . S
Co891 N895 2.148 . S
Co891 N901 2.128 . S
Co891 N911 2.194 . S
Co891 O916 2.351 . S
Co891 O917 2.155 . S
Co891 O918 2.096 . S
C892 N895 1.301 . S
C892 N896 1.328 . S
C892 H897 0.930 . S
C893 C894 1.333 . S
C893 N895 1.317 . S
C893 H898 0.930 . S
C894 C893 1.333 . S
C894 N896 1.350 . S
C894 H920 0.931 . S
N895 Co891 2.148 . S
N895 C892 1.301 . S
N895 C893 1.317 . S
N896 C892 1.328 . S
N896 C894 1.350 . S
H897 C892 0.930 . S
H898 C893 0.930 . S
C899 O900 1.224 . S
C899 O918 1.247 . S
O900 C899 1.224 . S
N901 Co891 2.128 . S
N901 C902 1.355 . S
N901 C904 1.311 . S
C902 N901 1.355 . S
C902 C903 1.363 . S
C902 H914 0.929 . S
C903 C902 1.363 . S
C903 N905 1.375 . S
C903 H921 0.931 . S
C904 N901 1.311 . S
C904 N905 1.347 . S
C904 H915 0.929 . S
N905 C903 1.375 . S
N905 C904 1.347 . S
C906 C909 1.365 . S
C906 N911 1.328 . S
C906 H912 0.929 . S
C907 C908 1.362 . S
C907 C910 1.378 . S
C907 H922 0.929 . S
C908 C907 1.362 . S
C908 C909 1.366 . S
C909 C906 1.365 . S
C909 C908 1.366 . S
C909 H923 0.930 . S
C910 C907 1.378 . S
C910 N911 1.315 . S
C910 H913 0.930 . S
N911 Co891 2.194 . S
N911 C906 1.328 . S
N911 C910 1.315 . S
H912 C906 0.929 . S
H913 C910 0.930 . S
H914 C902 0.929 . S
H915 C904 0.929 . S
O916 Co891 2.351 . S
O916 C919 1.244 . S
O917 Co891 2.155 . S
O917 C919 1.240 . S
O918 Co891 2.096 . S
O918 C899 1.247 . S
C919 O916 1.244 . S
C919 O917 1.240 . S
H920 C894 0.931 . S
H921 C903 0.931 . S
H922 C907 0.929 . S
H923 C909 0.930 . S
Co924 N928 2.148 . S
Co924 N934 2.128 . S
Co924 N944 2.194 . S
Co924 O949 2.351 . S
Co924 O950 2.155 . S
Co924 O951 2.096 . S
C925 N928 1.301 . S
C925 N929 1.328 . S
C925 H930 0.930 . S
C926 C927 1.333 . S
C926 N928 1.317 . S
C926 H931 0.930 . S
C927 C926 1.333 . S
C927 N929 1.350 . S
C927 H953 0.931 . S
N928 Co924 2.148 . S
N928 C925 1.301 . S
N928 C926 1.317 . S
N929 C925 1.328 . S
N929 C927 1.350 . S
H930 C925 0.930 . S
H931 C926 0.930 . S
C932 O933 1.224 . S
C932 O951 1.247 . S
O933 C932 1.224 . S
N934 Co924 2.128 . S
N934 C935 1.355 . S
N934 C937 1.311 . S
C935 N934 1.355 . S
C935 C936 1.363 . S
C935 H947 0.929 . S
C936 C935 1.363 . S
C936 N938 1.375 . S
C936 H954 0.931 . S
C937 N934 1.311 . S
C937 N938 1.347 . S
C937 H948 0.929 . S
N938 C936 1.375 . S
N938 C937 1.347 . S
C939 C942 1.365 . S
C939 N944 1.328 . S
C939 H945 0.929 . S
C940 C941 1.362 . S
C940 C943 1.378 . S
C940 H955 0.929 . S
C941 C940 1.362 . S
C941 C942 1.366 . S
C942 C939 1.365 . S
C942 C941 1.366 . S
C942 H956 0.930 . S
C943 C940 1.378 . S
C943 N944 1.315 . S
C943 H946 0.930 . S
N944 Co924 2.194 . S
N944 C939 1.328 . S
N944 C943 1.315 . S
H945 C939 0.929 . S
H946 C943 0.930 . S
H947 C935 0.929 . S
H948 C937 0.929 . S
O949 Co924 2.351 . S
O949 C952 1.244 . S
O950 Co924 2.155 . S
O950 C952 1.240 . S
O951 Co924 2.096 . S
O951 C932 1.247 . S
C952 O949 1.244 . S
C952 O950 1.240 . S
H953 C927 0.931 . S
H954 C936 0.931 . S
H955 C940 0.929 . S
H956 C942 0.930 . S
Co957 N961 2.148 . S
Co957 N967 2.128 . S
Co957 N977 2.194 . S
Co957 O982 2.351 . S
Co957 O983 2.155 . S
Co957 O984 2.096 . S
C958 N961 1.301 . S
C958 N962 1.328 . S
C958 H963 0.930 . S
C959 C960 1.333 . S
C959 N961 1.317 . S
C959 H964 0.930 . S
C960 C959 1.333 . S
C960 N962 1.350 . S
C960 H986 0.931 . S
N961 Co957 2.148 . S
N961 C958 1.301 . S
N961 C959 1.317 . S
N962 C958 1.328 . S
N962 C960 1.350 . S
H963 C958 0.930 . S
H964 C959 0.930 . S
C965 O966 1.224 . S
C965 O984 1.247 . S
O966 C965 1.224 . S
N967 Co957 2.128 . S
N967 C968 1.355 . S
N967 C970 1.311 . S
C968 N967 1.355 . S
C968 C969 1.363 . S
C968 H980 0.929 . S
C969 C968 1.363 . S
C969 N971 1.375 . S
C969 H987 0.931 . S
C970 N967 1.311 . S
C970 N971 1.347 . S
C970 H981 0.929 . S
N971 C969 1.375 . S
N971 C970 1.347 . S
C972 C975 1.365 . S
C972 N977 1.328 . S
C972 H978 0.929 . S
C973 C974 1.362 . S
C973 C976 1.378 . S
C973 H988 0.929 . S
C974 C973 1.362 . S
C974 C975 1.366 . S
C975 C972 1.365 . S
C975 C974 1.366 . S
C975 H989 0.930 . S
C976 C973 1.378 . S
C976 N977 1.315 . S
C976 H979 0.930 . S
N977 Co957 2.194 . S
N977 C972 1.328 . S
N977 C976 1.315 . S
H978 C972 0.929 . S
H979 C976 0.930 . S
H980 C968 0.929 . S
H981 C970 0.929 . S
O982 Co957 2.351 . S
O982 C985 1.244 . S
O983 Co957 2.155 . S
O983 C985 1.240 . S
O984 Co957 2.096 . S
O984 C965 1.247 . S
C985 O982 1.244 . S
C985 O983 1.240 . S
H986 C960 0.931 . S
H987 C969 0.931 . S
H988 C973 0.929 . S
H989 C975 0.930 . S
Co990 N994 2.148 . S
Co990 N1000 2.128 . S
Co990 N1010 2.194 . S
Co990 O1015 2.351 . S
Co990 O1016 2.155 . S
Co990 O1017 2.096 . S
C991 N994 1.301 . S
C991 N995 1.328 . S
C991 H996 0.930 . S
C992 C993 1.333 . S
C992 N994 1.317 . S
C992 H997 0.930 . S
C993 C992 1.333 . S
C993 N995 1.350 . S
C993 H1019 0.931 . S
N994 Co990 2.148 . S
N994 C991 1.301 . S
N994 C992 1.317 . S
N995 C991 1.328 . S
N995 C993 1.350 . S
H996 C991 0.930 . S
H997 C992 0.930 . S
C998 O999 1.224 . S
C998 O1017 1.247 . S
O999 C998 1.224 . S
N1000 Co990 2.128 . S
N1000 C1001 1.355 . S
N1000 C1003 1.311 . S
C1001 N1000 1.355 . S
C1001 C1002 1.363 . S
C1001 H1013 0.929 . S
C1002 C1001 1.363 . S
C1002 N1004 1.375 . S
C1002 H1020 0.931 . S
C1003 N1000 1.311 . S
C1003 N1004 1.347 . S
C1003 H1014 0.929 . S
N1004 C1002 1.375 . S
N1004 C1003 1.347 . S
C1005 C1008 1.365 . S
C1005 N1010 1.328 . S
C1005 H1011 0.929 . S
C1006 C1007 1.362 . S
C1006 C1009 1.378 . S
C1006 H1021 0.929 . S
C1007 C1006 1.362 . S
C1007 C1008 1.366 . S
C1008 C1005 1.365 . S
C1008 C1007 1.366 . S
C1008 H1022 0.930 . S
C1009 C1006 1.378 . S
C1009 N1010 1.315 . S
C1009 H1012 0.930 . S
N1010 Co990 2.194 . S
N1010 C1005 1.328 . S
N1010 C1009 1.315 . S
H1011 C1005 0.929 . S
H1012 C1009 0.930 . S
H1013 C1001 0.929 . S
H1014 C1003 0.929 . S
O1015 Co990 2.351 . S
O1015 C1018 1.244 . S
O1016 Co990 2.155 . S
O1016 C1018 1.240 . S
O1017 Co990 2.096 . S
O1017 C998 1.247 . S
C1018 O1015 1.244 . S
C1018 O1016 1.240 . S
H1019 C993 0.931 . S
H1020 C1002 0.931 . S
H1021 C1006 0.929 . S
H1022 C1008 0.930 . S
Co1023 N1027 2.148 . S
Co1023 N1033 2.128 . S
Co1023 N1043 2.194 . S
Co1023 O1048 2.351 . S
Co1023 O1049 2.155 . S
Co1023 O1050 2.096 . S
C1024 N1027 1.301 . S
C1024 N1028 1.328 . S
C1024 H1029 0.930 . S
C1025 C1026 1.333 . S
C1025 N1027 1.317 . S
C1025 H1030 0.930 . S
C1026 C1025 1.333 . S
C1026 N1028 1.350 . S
C1026 H1052 0.931 . S
N1027 Co1023 2.148 . S
N1027 C1024 1.301 . S
N1027 C1025 1.317 . S
N1028 C1024 1.328 . S
N1028 C1026 1.350 . S
H1029 C1024 0.930 . S
H1030 C1025 0.930 . S
C1031 O1032 1.224 . S
C1031 O1050 1.247 . S
O1032 C1031 1.224 . S
N1033 Co1023 2.128 . S
N1033 C1034 1.355 . S
N1033 C1036 1.311 . S
C1034 N1033 1.355 . S
C1034 C1035 1.363 . S
C1034 H1046 0.929 . S
C1035 C1034 1.363 . S
C1035 N1037 1.375 . S
C1035 H1053 0.931 . S
C1036 N1033 1.311 . S
C1036 N1037 1.347 . S
C1036 H1047 0.929 . S
N1037 C1035 1.375 . S
N1037 C1036 1.347 . S
C1038 C1041 1.365 . S
C1038 N1043 1.328 . S
C1038 H1044 0.929 . S
C1039 C1040 1.362 . S
C1039 C1042 1.378 . S
C1039 H1054 0.929 . S
C1040 C1039 1.362 . S
C1040 C1041 1.366 . S
C1041 C1038 1.365 . S
C1041 C1040 1.366 . S
C1041 H1055 0.930 . S
C1042 C1039 1.378 . S
C1042 N1043 1.315 . S
C1042 H1045 0.930 . S
N1043 Co1023 2.194 . S
N1043 C1038 1.328 . S
N1043 C1042 1.315 . S
H1044 C1038 0.929 . S
H1045 C1042 0.930 . S
H1046 C1034 0.929 . S
H1047 C1036 0.929 . S
O1048 Co1023 2.351 . S
O1048 C1051 1.244 . S
O1049 Co1023 2.155 . S
O1049 C1051 1.240 . S
O1050 Co1023 2.096 . S
O1050 C1031 1.247 . S
C1051 O1048 1.244 . S
C1051 O1049 1.240 . S
H1052 C1026 0.931 . S
H1053 C1035 0.931 . S
H1054 C1039 0.929 . S
H1055 C1041 0.930 . S
H1056 C1062 0.930 . S
H1057 C1066 0.930 . S
H1058 C1071 0.929 . S
H1059 C1069 0.929 . S
H1060 C1064 0.929 . S
H1061 C1070 0.929 . S
C1062 H1056 0.930 . S
C1062 C1063 1.367 . S
C1062 C1070 1.378 . S
C1063 C1062 1.367 . S
C1063 C1071 1.433 . S
C1064 H1060 0.929 . S
C1064 C1066 1.378 . S
C1064 C1068 1.350 . S
C1065 C1068 1.463 . S
C1065 C1070 1.350 . S
C1065 N1073 1.427 . S
C1066 H1057 0.930 . S
C1066 C1064 1.378 . S
C1066 C1067 1.367 . S
C1067 C1066 1.367 . S
C1067 C1069 1.433 . S
C1068 C1064 1.350 . S
C1068 C1065 1.463 . S
C1068 N1072 1.427 . S
C1069 H1059 0.929 . S
C1069 C1067 1.433 . S
C1069 N1072 1.384 . S
C1070 H1061 0.929 . S
C1070 C1062 1.378 . S
C1070 C1065 1.350 . S
C1071 H1058 0.929 . S
C1071 C1063 1.433 . S
C1071 N1073 1.384 . S
N1072 C1068 1.427 . S
N1072 C1069 1.384 . S
N1073 C1065 1.427 . S
N1073 C1071 1.384 . S
H1074 C1080 0.930 . S
H1075 C1084 0.930 . S
H1076 C1089 0.929 . S
H1077 C1087 0.929 . S
H1078 C1082 0.929 . S
H1079 C1088 0.929 . S
C1080 H1074 0.930 . S
C1080 C1081 1.367 . S
C1080 C1088 1.378 . S
C1081 C1080 1.367 . S
C1081 C1089 1.433 . S
C1082 H1078 0.929 . S
C1082 C1084 1.378 . S
C1082 C1086 1.350 . S
C1083 C1086 1.463 . S
C1083 C1088 1.350 . S
C1083 N1091 1.427 . S
C1084 H1075 0.930 . S
C1084 C1082 1.378 . S
C1084 C1085 1.367 . S
C1085 C1084 1.367 . S
C1085 C1087 1.433 . S
C1086 C1082 1.350 . S
C1086 C1083 1.463 . S
C1086 N1090 1.427 . S
C1087 H1077 0.929 . S
C1087 C1085 1.433 . S
C1087 N1090 1.384 . S
C1088 H1079 0.929 . S
C1088 C1080 1.378 . S
C1088 C1083 1.350 . S
C1089 H1076 0.929 . S
C1089 C1081 1.433 . S
C1089 N1091 1.384 . S
N1090 C1086 1.427 . S
N1090 C1087 1.384 . S
N1091 C1083 1.427 . S
N1091 C1089 1.384 . S
H1092 C1098 0.930 . S
H1093 C1102 0.930 . S
H1094 C1107 0.929 . S
H1095 C1105 0.929 . S
H1096 C1100 0.929 . S
H1097 C1106 0.929 . S
C1098 H1092 0.930 . S
C1098 C1099 1.367 . S
C1098 C1106 1.378 . S
C1099 C1098 1.367 . S
C1099 C1107 1.433 . S
C1100 H1096 0.929 . S
C1100 C1102 1.378 . S
C1100 C1104 1.350 . S
C1101 C1104 1.463 . S
C1101 C1106 1.350 . S
C1101 N1109 1.427 . S
C1102 H1093 0.930 . S
C1102 C1100 1.378 . S
C1102 C1103 1.367 . S
C1103 C1102 1.367 . S
C1103 C1105 1.433 . S
C1104 C1100 1.350 . S
C1104 C1101 1.463 . S
C1104 N1108 1.427 . S
C1105 H1095 0.929 . S
C1105 C1103 1.433 . S
C1105 N1108 1.384 . S
C1106 H1097 0.929 . S
C1106 C1098 1.378 . S
C1106 C1101 1.350 . S
C1107 H1094 0.929 . S
C1107 C1099 1.433 . S
C1107 N1109 1.384 . S
N1108 C1104 1.427 . S
N1108 C1105 1.384 . S
N1109 C1101 1.427 . S
N1109 C1107 1.384 . S
H1110 C1116 0.930 . S
H1111 C1120 0.930 . S
H1112 C1125 0.929 . S
H1113 C1123 0.929 1_554 S
H1114 C1118 0.929 . S
H1115 C1124 0.929 . S
C1116 H1110 0.930 . S
C1116 C1117 1.367 . S
C1116 C1124 1.378 . S
C1117 C1116 1.367 . S
C1117 C1125 1.433 . S
C1118 H1114 0.929 . S
C1118 C1120 1.378 . S
C1118 C1122 1.350 . S
C1119 C1122 1.463 . S
C1119 C1124 1.350 . S
C1119 N1127 1.427 . S
C1120 H1111 0.930 . S
C1120 C1118 1.378 . S
C1120 C1121 1.367 . S
C1121 C1120 1.367 . S
C1121 C1123 1.433 . S
C1122 C1118 1.350 . S
C1122 C1119 1.463 . S
C1122 N1126 1.427 . S
C1123 H1113 0.929 1_556 S
C1123 C1121 1.433 . S
C1123 N1126 1.384 . S
C1124 H1115 0.929 . S
C1124 C1116 1.378 . S
C1124 C1119 1.350 . S
C1125 H1112 0.929 . S
C1125 C1117 1.433 . S
C1125 N1127 1.384 . S
N1126 C1122 1.427 . S
N1126 C1123 1.384 . S
N1127 C1119 1.427 . S
N1127 C1125 1.384 . S
H1128 C1134 0.930 . S
H1129 C1138 0.930 . S
H1130 C1143 0.929 . S
H1131 C1141 0.929 . S
H1132 C1136 0.929 . S
H1133 C1142 0.929 . S
C1134 H1128 0.930 . S
C1134 C1135 1.367 . S
C1134 C1142 1.378 . S
C1135 C1134 1.367 . S
C1135 C1143 1.433 . S
C1136 H1132 0.929 . S
C1136 C1138 1.378 . S
C1136 C1140 1.350 . S
C1137 C1140 1.463 . S
C1137 C1142 1.350 . S
C1137 N1145 1.427 . S
C1138 H1129 0.930 . S
C1138 C1136 1.378 . S
C1138 C1139 1.367 . S
C1139 C1138 1.367 . S
C1139 C1141 1.433 . S
C1140 C1136 1.350 . S
C1140 C1137 1.463 . S
C1140 N1144 1.427 . S
C1141 H1131 0.929 . S
C1141 C1139 1.433 . S
C1141 N1144 1.384 . S
C1142 H1133 0.929 . S
C1142 C1134 1.378 . S
C1142 C1137 1.350 . S
C1143 H1130 0.929 . S
C1143 C1135 1.433 . S
C1143 N1145 1.384 . S
N1144 C1140 1.427 . S
N1144 C1141 1.384 . S
N1145 C1137 1.427 . S
N1145 C1143 1.384 . S
H1146 C1152 0.930 . S
H1147 C1156 0.930 . S
H1148 C1161 0.929 . S
H1149 C1159 0.929 . S
H1150 C1154 0.929 . S
H1151 C1160 0.929 . S
C1152 H1146 0.930 . S
C1152 C1153 1.367 . S
C1152 C1160 1.378 . S
C1153 C1152 1.367 . S
C1153 C1161 1.433 . S
C1154 H1150 0.929 . S
C1154 C1156 1.378 . S
C1154 C1158 1.350 . S
C1155 C1158 1.463 . S
C1155 C1160 1.350 . S
C1155 N1163 1.427 . S
C1156 H1147 0.930 . S
C1156 C1154 1.378 . S
C1156 C1157 1.367 . S
C1157 C1156 1.367 . S
C1157 C1159 1.433 . S
C1158 C1154 1.350 . S
C1158 C1155 1.463 . S
C1158 N1162 1.427 . S
C1159 H1149 0.929 . S
C1159 C1157 1.433 . S
C1159 N1162 1.384 . S
C1160 H1151 0.929 . S
C1160 C1152 1.378 . S
C1160 C1155 1.350 . S
C1161 H1148 0.929 . S
C1161 C1153 1.433 . S
C1161 N1163 1.384 . S
N1162 C1158 1.427 . S
N1162 C1159 1.384 . S
N1163 C1155 1.427 . S
N1163 C1161 1.384 . S
H1164 C1170 0.930 . S
H1165 C1174 0.930 . S
H1166 C1179 0.929 . S
H1167 C1177 0.929 . S
H1168 C1172 0.929 . S
H1169 C1178 0.929 . S
C1170 H1164 0.930 . S
C1170 C1171 1.367 . S
C1170 C1178 1.378 . S
C1171 C1170 1.367 . S
C1171 C1179 1.433 . S
C1172 H1168 0.929 . S
C1172 C1174 1.378 . S
C1172 C1176 1.350 . S
C1173 C1176 1.463 . S
C1173 C1178 1.350 . S
C1173 N1181 1.427 . S
C1174 H1165 0.930 . S
C1174 C1172 1.378 . S
C1174 C1175 1.367 . S
C1175 C1174 1.367 . S
C1175 C1177 1.433 . S
C1176 C1172 1.350 . S
C1176 C1173 1.463 . S
C1176 N1180 1.427 . S
C1177 H1167 0.929 . S
C1177 C1175 1.433 . S
C1177 N1180 1.384 . S
C1178 H1169 0.929 . S
C1178 C1170 1.378 . S
C1178 C1173 1.350 . S
C1179 H1166 0.929 . S
C1179 C1171 1.433 . S
C1179 N1181 1.384 . S
N1180 C1176 1.427 . S
N1180 C1177 1.384 . S
N1181 C1173 1.427 . S
N1181 C1179 1.384 . S
H1182 C1188 0.930 . S
H1183 C1192 0.930 . S
H1184 C1197 0.929 . S
H1185 C1195 0.929 . S
H1186 C1190 0.929 . S
H1187 C1196 0.929 . S
C1188 H1182 0.930 . S
C1188 C1189 1.367 . S
C1188 C1196 1.378 . S
C1189 C1188 1.367 . S
C1189 C1197 1.433 . S
C1190 H1186 0.929 . S
C1190 C1192 1.378 . S
C1190 C1194 1.350 . S
C1191 C1194 1.463 . S
C1191 C1196 1.350 . S
C1191 N1199 1.427 . S
C1192 H1183 0.930 . S
C1192 C1190 1.378 . S
C1192 C1193 1.367 . S
C1193 C1192 1.367 . S
C1193 C1195 1.433 . S
C1194 C1190 1.350 . S
C1194 C1191 1.463 . S
C1194 N1198 1.427 . S
C1195 H1185 0.929 . S
C1195 C1193 1.433 . S
C1195 N1198 1.384 . S
C1196 H1187 0.929 . S
C1196 C1188 1.378 . S
C1196 C1191 1.350 . S
C1197 H1184 0.929 . S
C1197 C1189 1.433 . S
C1197 N1199 1.384 . S
N1198 C1194 1.427 . S
N1198 C1195 1.384 . S
N1199 C1191 1.427 . S
N1199 C1197 1.384 . S
H1200 C1206 0.930 . S
H1201 C1210 0.930 . S
H1202 C1215 0.929 . S
H1203 C1213 0.929 . S
H1204 C1208 0.929 . S
H1205 C1214 0.929 . S
C1206 H1200 0.930 . S
C1206 C1207 1.367 . S
C1206 C1214 1.378 . S
C1207 C1206 1.367 . S
C1207 C1215 1.433 . S
C1208 H1204 0.929 . S
C1208 C1210 1.378 . S
C1208 C1212 1.350 . S
C1209 C1212 1.463 . S
C1209 C1214 1.350 . S
C1209 N1217 1.427 . S
C1210 H1201 0.930 . S
C1210 C1208 1.378 . S
C1210 C1211 1.367 . S
C1211 C1210 1.367 . S
C1211 C1213 1.433 . S
C1212 C1208 1.350 . S
C1212 C1209 1.463 . S
C1212 N1216 1.427 . S
C1213 H1203 0.929 . S
C1213 C1211 1.433 . S
C1213 N1216 1.384 . S
C1214 H1205 0.929 . S
C1214 C1206 1.378 . S
C1214 C1209 1.350 . S
C1215 H1202 0.929 . S
C1215 C1207 1.433 . S
C1215 N1217 1.384 . S
N1216 C1212 1.427 . S
N1216 C1213 1.384 . S
N1217 C1209 1.427 . S
N1217 C1215 1.384 . S
H1218 C1224 0.930 . S
H1219 C1228 0.930 . S
H1220 C1233 0.929 . S
H1221 C1231 0.929 1_554 S
H1222 C1226 0.929 . S
H1223 C1232 0.929 . S
C1224 H1218 0.930 . S
C1224 C1225 1.367 . S
C1224 C1232 1.378 . S
C1225 C1224 1.367 . S
C1225 C1233 1.433 . S
C1226 H1222 0.929 . S
C1226 C1228 1.378 . S
C1226 C1230 1.350 . S
C1227 C1230 1.463 . S
C1227 C1232 1.350 . S
C1227 N1235 1.427 . S
C1228 H1219 0.930 . S
C1228 C1226 1.378 . S
C1228 C1229 1.367 . S
C1229 C1228 1.367 . S
C1229 C1231 1.433 . S
C1230 C1226 1.350 . S
C1230 C1227 1.463 . S
C1230 N1234 1.427 . S
C1231 H1221 0.929 1_556 S
C1231 C1229 1.433 . S
C1231 N1234 1.384 . S
C1232 H1223 0.929 . S
C1232 C1224 1.378 . S
C1232 C1227 1.350 . S
C1233 H1220 0.929 . S
C1233 C1225 1.433 . S
C1233 N1235 1.384 . S
N1234 C1230 1.427 . S
N1234 C1231 1.384 . S
N1235 C1227 1.427 . S
N1235 C1233 1.384 . S
H1236 C1242 0.930 . S
H1237 C1246 0.930 . S
H1238 C1251 0.929 . S
H1239 C1249 0.929 . S
H1240 C1244 0.929 . S
H1241 C1250 0.929 . S
C1242 H1236 0.930 . S
C1242 C1243 1.367 . S
C1242 C1250 1.378 . S
C1243 C1242 1.367 . S
C1243 C1251 1.433 . S
C1244 H1240 0.929 . S
C1244 C1246 1.378 . S
C1244 C1248 1.350 . S
C1245 C1248 1.463 . S
C1245 C1250 1.350 . S
C1245 N1253 1.427 . S
C1246 H1237 0.930 . S
C1246 C1244 1.378 . S
C1246 C1247 1.367 . S
C1247 C1246 1.367 . S
C1247 C1249 1.433 . S
C1248 C1244 1.350 . S
C1248 C1245 1.463 . S
C1248 N1252 1.427 . S
C1249 H1239 0.929 . S
C1249 C1247 1.433 . S
C1249 N1252 1.384 . S
C1250 H1241 0.929 . S
C1250 C1242 1.378 . S
C1250 C1245 1.350 . S
C1251 H1238 0.929 . S
C1251 C1243 1.433 . S
C1251 N1253 1.384 . S
N1252 C1248 1.427 . S
N1252 C1249 1.384 . S
N1253 C1245 1.427 . S
N1253 C1251 1.384 . S
H1254 C1260 0.930 . S
H1255 C1264 0.930 . S
H1256 C1269 0.929 . S
H1257 C1267 0.929 . S
H1258 C1262 0.929 . S
H1259 C1268 0.929 . S
C1260 H1254 0.930 . S
C1260 C1261 1.367 . S
C1260 C1268 1.378 . S
C1261 C1260 1.367 . S
C1261 C1269 1.433 . S
C1262 H1258 0.929 . S
C1262 C1264 1.378 . S
C1262 C1266 1.350 . S
C1263 C1266 1.463 . S
C1263 C1268 1.350 . S
C1263 N1271 1.427 . S
C1264 H1255 0.930 . S
C1264 C1262 1.378 . S
C1264 C1265 1.367 . S
C1265 C1264 1.367 . S
C1265 C1267 1.433 . S
C1266 C1262 1.350 . S
C1266 C1263 1.463 . S
C1266 N1270 1.427 . S
C1267 H1257 0.929 . S
C1267 C1265 1.433 . S
C1267 N1270 1.384 . S
C1268 H1259 0.929 . S
C1268 C1260 1.378 . S
C1268 C1263 1.350 . S
C1269 H1256 0.929 . S
C1269 C1261 1.433 . S
C1269 N1271 1.384 . S
N1270 C1266 1.427 . S
N1270 C1267 1.384 . S
N1271 C1263 1.427 . S
N1271 C1269 1.384 . S
H1272 C1278 0.930 . S
H1273 C1282 0.930 . S
H1274 C1287 0.929 . S
H1275 C1285 0.929 . S
H1276 C1280 0.929 . S
H1277 C1286 0.929 . S
C1278 H1272 0.930 . S
C1278 C1279 1.367 . S
C1278 C1286 1.378 . S
C1279 C1278 1.367 . S
C1279 C1287 1.433 . S
C1280 H1276 0.929 . S
C1280 C1282 1.378 . S
C1280 C1284 1.350 . S
C1281 C1284 1.463 . S
C1281 C1286 1.350 . S
C1281 N1289 1.427 . S
C1282 H1273 0.930 . S
C1282 C1280 1.378 . S
C1282 C1283 1.367 . S
C1283 C1282 1.367 . S
C1283 C1285 1.433 . S
C1284 C1280 1.350 . S
C1284 C1281 1.463 . S
C1284 N1288 1.427 . S
C1285 H1275 0.929 . S
C1285 C1283 1.433 . S
C1285 N1288 1.384 . S
C1286 H1277 0.929 . S
C1286 C1278 1.378 . S
C1286 C1281 1.350 . S
C1287 H1274 0.929 . S
C1287 C1279 1.433 . S
C1287 N1289 1.384 . S
N1288 C1284 1.427 . S
N1288 C1285 1.384 . S
N1289 C1281 1.427 . S
N1289 C1287 1.384 . S
H1290 C1296 0.930 1_556 S
H1291 C1300 0.930 . S
H1292 C1305 0.929 . S
H1293 C1303 0.929 . S
H1294 C1298 0.929 . S
H1295 C1304 0.929 . S
C1296 H1290 0.930 1_554 S
C1296 C1297 1.367 . S
C1296 C1304 1.378 . S
C1297 C1296 1.367 . S
C1297 C1305 1.433 . S
C1298 H1294 0.929 . S
C1298 C1300 1.378 . S
C1298 C1302 1.350 . S
C1299 C1302 1.463 . S
C1299 C1304 1.350 . S
C1299 N1307 1.427 . S
C1300 H1291 0.930 . S
C1300 C1298 1.378 . S
C1300 C1301 1.367 . S
C1301 C1300 1.367 . S
C1301 C1303 1.433 . S
C1302 C1298 1.350 . S
C1302 C1299 1.463 . S
C1302 N1306 1.427 . S
C1303 H1293 0.929 . S
C1303 C1301 1.433 . S
C1303 N1306 1.384 . S
C1304 H1295 0.929 . S
C1304 C1296 1.378 . S
C1304 C1299 1.350 . S
C1305 H1292 0.929 . S
C1305 C1297 1.433 . S
C1305 N1307 1.384 . S
N1306 C1302 1.427 . S
N1306 C1303 1.384 . S
N1307 C1299 1.427 . S
N1307 C1305 1.384 . S
H1308 C1314 0.930 1_554 S
H1309 C1318 0.930 . S
H1310 C1323 0.929 . S
H1311 C1321 0.929 . S
H1312 C1316 0.929 . S
H1313 C1322 0.929 . S
C1314 H1308 0.930 1_556 S
C1314 C1315 1.367 . S
C1314 C1322 1.378 . S
C1315 C1314 1.367 . S
C1315 C1323 1.433 . S
C1316 H1312 0.929 . S
C1316 C1318 1.378 . S
C1316 C1320 1.350 . S
C1317 C1320 1.463 . S
C1317 C1322 1.350 . S
C1317 N1325 1.427 . S
C1318 H1309 0.930 . S
C1318 C1316 1.378 . S
C1318 C1319 1.367 . S
C1319 C1318 1.367 . S
C1319 C1321 1.433 . S
C1320 C1316 1.350 . S
C1320 C1317 1.463 . S
C1320 N1324 1.427 . S
C1321 H1311 0.929 . S
C1321 C1319 1.433 . S
C1321 N1324 1.384 . S
C1322 H1313 0.929 . S
C1322 C1314 1.378 . S
C1322 C1317 1.350 . S
C1323 H1310 0.929 . S
C1323 C1315 1.433 . S
C1323 N1325 1.384 . S
N1324 C1320 1.427 . S
N1324 C1321 1.384 . S
N1325 C1317 1.427 . S
N1325 C1323 1.384 . S
H1326 C1332 0.930 . S
H1327 C1336 0.930 . S
H1328 C1341 0.929 . S
H1329 C1339 0.929 . S
H1330 C1334 0.929 . S
H1331 C1340 0.929 . S
C1332 H1326 0.930 . S
C1332 C1333 1.367 . S
C1332 C1340 1.378 . S
C1333 C1332 1.367 . S
C1333 C1341 1.433 . S
C1334 H1330 0.929 . S
C1334 C1336 1.378 . S
C1334 C1338 1.350 . S
C1335 C1338 1.463 . S
C1335 C1340 1.350 . S
C1335 N1343 1.427 . S
C1336 H1327 0.930 . S
C1336 C1334 1.378 . S
C1336 C1337 1.367 . S
C1337 C1336 1.367 . S
C1337 C1339 1.433 . S
C1338 C1334 1.350 . S
C1338 C1335 1.463 . S
C1338 N1342 1.427 . S
C1339 H1329 0.929 . S
C1339 C1337 1.433 . S
C1339 N1342 1.384 . S
C1340 H1331 0.929 . S
C1340 C1332 1.378 . S
C1340 C1335 1.350 . S
C1341 H1328 0.929 . S
C1341 C1333 1.433 . S
C1341 N1343 1.384 . S
N1342 C1338 1.427 . S
N1342 C1339 1.384 . S
N1343 C1335 1.427 . S
N1343 C1341 1.384 . S
H1344 C1350 0.930 . S
H1345 C1354 0.930 . S
H1346 C1359 0.929 . S
H1347 C1357 0.929 . S
H1348 C1352 0.929 . S
H1349 C1358 0.929 . S
C1350 H1344 0.930 . S
C1350 C1351 1.367 . S
C1350 C1358 1.378 . S
C1351 C1350 1.367 . S
C1351 C1359 1.433 . S
C1352 H1348 0.929 . S
C1352 C1354 1.378 . S
C1352 C1356 1.350 . S
C1353 C1356 1.463 . S
C1353 C1358 1.350 . S
C1353 N1361 1.427 . S
C1354 H1345 0.930 . S
C1354 C1352 1.378 . S
C1354 C1355 1.367 . S
C1355 C1354 1.367 . S
C1355 C1357 1.433 . S
C1356 C1352 1.350 . S
C1356 C1353 1.463 . S
C1356 N1360 1.427 . S
C1357 H1347 0.929 . S
C1357 C1355 1.433 . S
C1357 N1360 1.384 . S
C1358 H1349 0.929 . S
C1358 C1350 1.378 . S
C1358 C1353 1.350 . S
C1359 H1346 0.929 . S
C1359 C1351 1.433 . S
C1359 N1361 1.384 . S
N1360 C1356 1.427 . S
N1360 C1357 1.384 . S
N1361 C1353 1.427 . S
N1361 C1359 1.384 . S
H1362 C1368 0.930 . S
H1363 C1372 0.930 1_554 S
H1364 C1377 0.929 . S
H1365 C1375 0.929 . S
H1366 C1370 0.929 . S
H1367 C1376 0.929 . S
C1368 H1362 0.930 . S
C1368 C1369 1.367 . S
C1368 C1376 1.378 . S
C1369 C1368 1.367 . S
C1369 C1377 1.433 . S
C1370 H1366 0.929 . S
C1370 C1372 1.378 . S
C1370 C1374 1.350 . S
C1371 C1374 1.463 . S
C1371 C1376 1.350 . S
C1371 N1379 1.427 . S
C1372 H1363 0.930 1_556 S
C1372 C1370 1.378 . S
C1372 C1373 1.367 . S
C1373 C1372 1.367 . S
C1373 C1375 1.433 . S
C1374 C1370 1.350 . S
C1374 C1371 1.463 . S
C1374 N1378 1.427 . S
C1375 H1365 0.929 . S
C1375 C1373 1.433 . S
C1375 N1378 1.384 . S
C1376 H1367 0.929 . S
C1376 C1368 1.378 . S
C1376 C1371 1.350 . S
C1377 H1364 0.929 . S
C1377 C1369 1.433 . S
C1377 N1379 1.384 . S
N1378 C1374 1.427 . S
N1378 C1375 1.384 . S
N1379 C1371 1.427 . S
N1379 C1377 1.384 . S
H1380 C1386 0.930 1_556 S
H1381 C1390 0.930 . S
H1382 C1395 0.929 . S
H1383 C1393 0.929 . S
H1384 C1388 0.929 . S
H1385 C1394 0.929 . S
C1386 H1380 0.930 1_554 S
C1386 C1387 1.367 . S
C1386 C1394 1.378 . S
C1387 C1386 1.367 . S
C1387 C1395 1.433 . S
C1388 H1384 0.929 . S
C1388 C1390 1.378 . S
C1388 C1392 1.350 . S
C1389 C1392 1.463 . S
C1389 C1394 1.350 . S
C1389 N1397 1.427 . S
C1390 H1381 0.930 . S
C1390 C1388 1.378 . S
C1390 C1391 1.367 . S
C1391 C1390 1.367 . S
C1391 C1393 1.433 . S
C1392 C1388 1.350 . S
C1392 C1389 1.463 . S
C1392 N1396 1.427 . S
C1393 H1383 0.929 . S
C1393 C1391 1.433 . S
C1393 N1396 1.384 . S
C1394 H1385 0.929 . S
C1394 C1386 1.378 . S
C1394 C1389 1.350 . S
C1395 H1382 0.929 . S
C1395 C1387 1.433 . S
C1395 N1397 1.384 . S
N1396 C1392 1.427 . S
N1396 C1393 1.384 . S
N1397 C1389 1.427 . S
N1397 C1395 1.384 . S
H1398 C1404 0.930 . S
H1399 C1408 0.930 . S
H1400 C1413 0.929 . S
H1401 C1411 0.929 . S
H1402 C1406 0.929 . S
H1403 C1412 0.929 . S
C1404 H1398 0.930 . S
C1404 C1405 1.367 . S
C1404 C1412 1.378 . S
C1405 C1404 1.367 . S
C1405 C1413 1.433 . S
C1406 H1402 0.929 . S
C1406 C1408 1.378 . S
C1406 C1410 1.350 . S
C1407 C1410 1.463 . S
C1407 C1412 1.350 . S
C1407 N1415 1.427 . S
C1408 H1399 0.930 . S
C1408 C1406 1.378 . S
C1408 C1409 1.367 . S
C1409 C1408 1.367 . S
C1409 C1411 1.433 . S
C1410 C1406 1.350 . S
C1410 C1407 1.463 . S
C1410 N1414 1.427 . S
C1411 H1401 0.929 . S
C1411 C1409 1.433 . S
C1411 N1414 1.384 . S
C1412 H1403 0.929 . S
C1412 C1404 1.378 . S
C1412 C1407 1.350 . S
C1413 H1400 0.929 . S
C1413 C1405 1.433 . S
C1413 N1415 1.384 . S
N1414 C1410 1.427 . S
N1414 C1411 1.384 . S
N1415 C1407 1.427 . S
N1415 C1413 1.384 . S
H1416 C1422 0.930 . S
H1417 C1426 0.930 . S
H1418 C1431 0.929 . S
H1419 C1429 0.929 . S
H1420 C1424 0.929 . S
H1421 C1430 0.929 . S
C1422 H1416 0.930 . S
C1422 C1423 1.367 . S
C1422 C1430 1.378 . S
C1423 C1422 1.367 . S
C1423 C1431 1.433 . S
C1424 H1420 0.929 . S
C1424 C1426 1.378 . S
C1424 C1428 1.350 . S
C1425 C1428 1.463 . S
C1425 C1430 1.350 . S
C1425 N1433 1.427 . S
C1426 H1417 0.930 . S
C1426 C1424 1.378 . S
C1426 C1427 1.367 . S
C1427 C1426 1.367 . S
C1427 C1429 1.433 . S
C1428 C1424 1.350 . S
C1428 C1425 1.463 . S
C1428 N1432 1.427 . S
C1429 H1419 0.929 . S
C1429 C1427 1.433 . S
C1429 N1432 1.384 . S
C1430 H1421 0.929 . S
C1430 C1422 1.378 . S
C1430 C1425 1.350 . S
C1431 H1418 0.929 . S
C1431 C1423 1.433 . S
C1431 N1433 1.384 . S
N1432 C1428 1.427 . S
N1432 C1429 1.384 . S
N1433 C1425 1.427 . S
N1433 C1431 1.384 . S
H1434 C1440 0.930 . S
H1435 C1444 0.930 . S
H1436 C1449 0.929 . S
H1437 C1447 0.929 . S
H1438 C1442 0.929 . S
H1439 C1448 0.929 . S
C1440 H1434 0.930 . S
C1440 C1441 1.367 . S
C1440 C1448 1.378 . S
C1441 C1440 1.367 . S
C1441 C1449 1.433 . S
C1442 H1438 0.929 . S
C1442 C1444 1.378 . S
C1442 C1446 1.350 . S
C1443 C1446 1.463 . S
C1443 C1448 1.350 . S
C1443 N1451 1.427 . S
C1444 H1435 0.930 . S
C1444 C1442 1.378 . S
C1444 C1445 1.367 . S
C1445 C1444 1.367 . S
C1445 C1447 1.433 . S
C1446 C1442 1.350 . S
C1446 C1443 1.463 . S
C1446 N1450 1.427 . S
C1447 H1437 0.929 . S
C1447 C1445 1.433 . S
C1447 N1450 1.384 . S
C1448 H1439 0.929 . S
C1448 C1440 1.378 . S
C1448 C1443 1.350 . S
C1449 H1436 0.929 . S
C1449 C1441 1.433 . S
C1449 N1451 1.384 . S
N1450 C1446 1.427 . S
N1450 C1447 1.384 . S
N1451 C1443 1.427 . S
N1451 C1449 1.384 . S
H1452 C1458 0.930 . S
H1453 C1462 0.929 . S
H1454 C1467 0.929 . S
H1455 C1465 0.929 . S
H1456 C1460 0.929 . S
H1457 C1466 0.929 . S
C1458 H1452 0.930 . S
C1458 C1459 1.367 . S
C1458 C1466 1.378 . S
C1459 C1458 1.367 . S
C1459 C1467 1.433 . S
C1460 H1456 0.929 . S
C1460 C1462 1.378 . S
C1460 C1464 1.350 . S
C1461 C1464 1.463 . S
C1461 C1466 1.350 . S
C1461 N1469 1.427 . S
C1462 H1453 0.929 . S
C1462 C1460 1.378 . S
C1462 C1463 1.367 . S
C1463 C1462 1.367 . S
C1463 C1465 1.433 . S
C1464 C1460 1.350 . S
C1464 C1461 1.463 . S
C1464 N1468 1.427 . S
C1465 H1455 0.929 . S
C1465 C1463 1.433 . S
C1465 N1468 1.384 . S
C1466 H1457 0.929 . S
C1466 C1458 1.378 . S
C1466 C1461 1.350 . S
C1467 H1454 0.929 . S
C1467 C1459 1.433 . S
C1467 N1469 1.384 . S
N1468 C1464 1.427 . S
N1468 C1465 1.384 . S
N1469 C1461 1.427 . S
N1469 C1467 1.384 . S
H1470 C1476 0.930 . S
H1471 C1480 0.930 . S
H1472 C1485 0.929 . S
H1473 C1483 0.929 . S
H1474 C1478 0.929 . S
H1475 C1484 0.929 . S
C1476 H1470 0.930 . S
C1476 C1477 1.367 . S
C1476 C1484 1.378 . S
C1477 C1476 1.367 . S
C1477 C1485 1.433 . S
C1478 H1474 0.929 . S
C1478 C1480 1.378 . S
C1478 C1482 1.350 . S
C1479 C1482 1.463 . S
C1479 C1484 1.350 . S
C1479 N1487 1.427 . S
C1480 H1471 0.930 . S
C1480 C1478 1.378 . S
C1480 C1481 1.367 . S
C1481 C1480 1.367 . S
C1481 C1483 1.433 . S
C1482 C1478 1.350 . S
C1482 C1479 1.463 . S
C1482 N1486 1.427 . S
C1483 H1473 0.929 . S
C1483 C1481 1.433 . S
C1483 N1486 1.384 . S
C1484 H1475 0.929 . S
C1484 C1476 1.378 . S
C1484 C1479 1.350 . S
C1485 H1472 0.929 . S
C1485 C1477 1.433 . S
C1485 N1487 1.384 . S
N1486 C1482 1.427 . S
N1486 C1483 1.384 . S
N1487 C1479 1.427 . S
N1487 C1485 1.384 . S
H1488 C1494 0.930 1_556 S
H1489 C1498 0.930 . S
H1490 C1503 0.929 . S
H1491 C1501 0.929 . S
H1492 C1496 0.929 . S
H1493 C1502 0.929 . S
C1494 H1488 0.930 1_554 S
C1494 C1495 1.367 . S
C1494 C1502 1.378 . S
C1495 C1494 1.367 . S
C1495 C1503 1.433 . S
C1496 H1492 0.929 . S
C1496 C1498 1.378 . S
C1496 C1500 1.350 . S
C1497 C1500 1.463 . S
C1497 C1502 1.350 . S
C1497 N1505 1.427 . S
C1498 H1489 0.930 . S
C1498 C1496 1.378 . S
C1498 C1499 1.367 . S
C1499 C1498 1.367 . S
C1499 C1501 1.433 . S
C1500 C1496 1.350 . S
C1500 C1497 1.463 . S
C1500 N1504 1.427 . S
C1501 H1491 0.929 . S
C1501 C1499 1.433 . S
C1501 N1504 1.384 . S
C1502 H1493 0.929 . S
C1502 C1494 1.378 . S
C1502 C1497 1.350 . S
C1503 H1490 0.929 . S
C1503 C1495 1.433 . S
C1503 N1505 1.384 . S
N1504 C1500 1.427 . S
N1504 C1501 1.384 . S
N1505 C1497 1.427 . S
N1505 C1503 1.384 . S
H1506 C1512 0.930 . S
H1507 C1516 0.930 . S
H1508 C1521 0.929 . S
H1509 C1519 0.929 . S
H1510 C1514 0.929 . S
H1511 C1520 0.929 . S
C1512 H1506 0.930 . S
C1512 C1513 1.367 . S
C1512 C1520 1.378 . S
C1513 C1512 1.367 . S
C1513 C1521 1.433 . S
C1514 H1510 0.929 . S
C1514 C1516 1.378 . S
C1514 C1518 1.350 . S
C1515 C1518 1.463 . S
C1515 C1520 1.350 . S
C1515 N1523 1.427 . S
C1516 H1507 0.930 . S
C1516 C1514 1.378 . S
C1516 C1517 1.367 . S
C1517 C1516 1.367 . S
C1517 C1519 1.433 . S
C1518 C1514 1.350 . S
C1518 C1515 1.463 . S
C1518 N1522 1.427 . S
C1519 H1509 0.929 . S
C1519 C1517 1.433 . S
C1519 N1522 1.384 . S
C1520 H1511 0.929 . S
C1520 C1512 1.378 . S
C1520 C1515 1.350 . S
C1521 H1508 0.929 . S
C1521 C1513 1.433 . S
C1521 N1523 1.384 . S
N1522 C1518 1.427 . S
N1522 C1519 1.384 . S
N1523 C1515 1.427 . S
N1523 C1521 1.384 . S
H1524 C1530 0.930 . S
H1525 C1534 0.930 . S
H1526 C1539 0.929 . S
H1527 C1537 0.929 . S
H1528 C1532 0.929 . S
H1529 C1538 0.929 . S
C1530 H1524 0.930 . S
C1530 C1531 1.367 . S
C1530 C1538 1.378 . S
C1531 C1530 1.367 . S
C1531 C1539 1.433 . S
C1532 H1528 0.929 . S
C1532 C1534 1.378 . S
C1532 C1536 1.350 . S
C1533 C1536 1.463 . S
C1533 C1538 1.350 . S
C1533 N1541 1.427 . S
C1534 H1525 0.930 . S
C1534 C1532 1.378 . S
C1534 C1535 1.367 . S
C1535 C1534 1.367 . S
C1535 C1537 1.433 . S
C1536 C1532 1.350 . S
C1536 C1533 1.463 . S
C1536 N1540 1.427 . S
C1537 H1527 0.929 . S
C1537 C1535 1.433 . S
C1537 N1540 1.384 . S
C1538 H1529 0.929 . S
C1538 C1530 1.378 . S
C1538 C1533 1.350 . S
C1539 H1526 0.929 . S
C1539 C1531 1.433 . S
C1539 N1541 1.384 . S
N1540 C1536 1.427 . S
N1540 C1537 1.384 . S
N1541 C1533 1.427 . S
N1541 C1539 1.384 . S
H1542 C1548 0.930 . S
H1543 C1552 0.930 . S
H1544 C1557 0.929 . S
H1545 C1555 0.929 . S
H1546 C1550 0.929 . S
H1547 C1556 0.929 . S
C1548 H1542 0.930 . S
C1548 C1549 1.367 . S
C1548 C1556 1.378 . S
C1549 C1548 1.367 . S
C1549 C1557 1.433 . S
C1550 H1546 0.929 . S
C1550 C1552 1.378 . S
C1550 C1554 1.350 . S
C1551 C1554 1.463 . S
C1551 C1556 1.350 . S
C1551 N1559 1.427 . S
C1552 H1543 0.930 . S
C1552 C1550 1.378 . S
C1552 C1553 1.367 . S
C1553 C1552 1.367 . S
C1553 C1555 1.433 . S
C1554 C1550 1.350 . S
C1554 C1551 1.463 . S
C1554 N1558 1.427 . S
C1555 H1545 0.929 . S
C1555 C1553 1.433 . S
C1555 N1558 1.384 . S
C1556 H1547 0.929 . S
C1556 C1548 1.378 . S
C1556 C1551 1.350 . S
C1557 H1544 0.929 . S
C1557 C1549 1.433 . S
C1557 N1559 1.384 . S
N1558 C1554 1.427 . S
N1558 C1555 1.384 . S
N1559 C1551 1.427 . S
N1559 C1557 1.384 . S
H1560 C1566 0.930 . S
H1561 C1570 0.930 . S
H1562 C1575 0.929 . S
H1563 C1573 0.929 . S
H1564 C1568 0.929 . S
H1565 C1574 0.929 . S
C1566 H1560 0.930 . S
C1566 C1567 1.367 . S
C1566 C1574 1.378 . S
C1567 C1566 1.367 . S
C1567 C1575 1.433 . S
C1568 H1564 0.929 . S
C1568 C1570 1.378 . S
C1568 C1572 1.350 . S
C1569 C1572 1.463 . S
C1569 C1574 1.350 . S
C1569 N1577 1.427 . S
C1570 H1561 0.930 . S
C1570 C1568 1.378 . S
C1570 C1571 1.367 . S
C1571 C1570 1.367 . S
C1571 C1573 1.433 . S
C1572 C1568 1.350 . S
C1572 C1569 1.463 . S
C1572 N1576 1.427 . S
C1573 H1563 0.929 . S
C1573 C1571 1.433 . S
C1573 N1576 1.384 . S
C1574 H1565 0.929 . S
C1574 C1566 1.378 . S
C1574 C1569 1.350 . S
C1575 H1562 0.929 . S
C1575 C1567 1.433 . S
C1575 N1577 1.384 . S
N1576 C1572 1.427 . S
N1576 C1573 1.384 . S
N1577 C1569 1.427 . S
N1577 C1575 1.384 . S
H1578 C1584 0.930 . S
H1579 C1588 0.930 . S
H1580 C1593 0.929 . S
H1581 C1591 0.929 . S
H1582 C1586 0.929 . S
H1583 C1592 0.929 . S
C1584 H1578 0.930 . S
C1584 C1585 1.367 . S
C1584 C1592 1.378 . S
C1585 C1584 1.367 . S
C1585 C1593 1.433 . S
C1586 H1582 0.929 . S
C1586 C1588 1.378 . S
C1586 C1590 1.350 . S
C1587 C1590 1.463 . S
C1587 C1592 1.350 . S
C1587 N1595 1.427 . S
C1588 H1579 0.930 . S
C1588 C1586 1.378 . S
C1588 C1589 1.367 . S
C1589 C1588 1.367 . S
C1589 C1591 1.433 . S
C1590 C1586 1.350 . S
C1590 C1587 1.463 . S
C1590 N1594 1.427 . S
C1591 H1581 0.929 . S
C1591 C1589 1.433 . S
C1591 N1594 1.384 . S
C1592 H1583 0.929 . S
C1592 C1584 1.378 . S
C1592 C1587 1.350 . S
C1593 H1580 0.929 . S
C1593 C1585 1.433 . S
C1593 N1595 1.384 . S
N1594 C1590 1.427 . S
N1594 C1591 1.384 . S
N1595 C1587 1.427 . S
N1595 C1593 1.384 . S
H1596 C1602 0.930 . S
H1597 C1606 0.930 . S
H1598 C1611 0.929 . S
H1599 C1609 0.929 . S
H1600 C1604 0.929 . S
H1601 C1610 0.929 . S
C1602 H1596 0.930 . S
C1602 C1603 1.367 . S
C1602 C1610 1.378 . S
C1603 C1602 1.367 . S
C1603 C1611 1.433 . S
C1604 H1600 0.929 . S
C1604 C1606 1.378 . S
C1604 C1608 1.350 . S
C1605 C1608 1.463 . S
C1605 C1610 1.350 . S
C1605 N1613 1.427 . S
C1606 H1597 0.930 . S
C1606 C1604 1.378 . S
C1606 C1607 1.367 . S
C1607 C1606 1.367 . S
C1607 C1609 1.433 . S
C1608 C1604 1.350 . S
C1608 C1605 1.463 . S
C1608 N1612 1.427 . S
C1609 H1599 0.929 . S
C1609 C1607 1.433 . S
C1609 N1612 1.384 . S
C1610 H1601 0.929 . S
C1610 C1602 1.378 . S
C1610 C1605 1.350 . S
C1611 H1598 0.929 . S
C1611 C1603 1.433 . S
C1611 N1613 1.384 . S
N1612 C1608 1.427 . S
N1612 C1609 1.384 . S
N1613 C1605 1.427 . S
N1613 C1611 1.384 . S
H1614 C1620 0.930 . S
H1615 C1624 0.930 . S
H1616 C1629 0.929 . S
H1617 C1627 0.929 1_556 S
H1618 C1622 0.929 . S
H1619 C1628 0.929 . S
C1620 H1614 0.930 . S
C1620 C1621 1.367 . S
C1620 C1628 1.378 . S
C1621 C1620 1.367 . S
C1621 C1629 1.433 . S
C1622 H1618 0.929 . S
C1622 C1624 1.378 . S
C1622 C1626 1.350 . S
C1623 C1626 1.463 . S
C1623 C1628 1.350 . S
C1623 N1631 1.427 . S
C1624 H1615 0.930 . S
C1624 C1622 1.378 . S
C1624 C1625 1.367 . S
C1625 C1624 1.367 . S
C1625 C1627 1.433 . S
C1626 C1622 1.350 . S
C1626 C1623 1.463 . S
C1626 N1630 1.427 . S
C1627 H1617 0.929 1_554 S
C1627 C1625 1.433 . S
C1627 N1630 1.384 . S
C1628 H1619 0.929 . S
C1628 C1620 1.378 . S
C1628 C1623 1.350 . S
C1629 H1616 0.929 . S
C1629 C1621 1.433 . S
C1629 N1631 1.384 . S
N1630 C1626 1.427 . S
N1630 C1627 1.384 . S
N1631 C1623 1.427 . S
N1631 C1629 1.384 . S
H1632 C1638 0.930 . S
H1633 C1642 0.930 . S
H1634 C1647 0.929 . S
H1635 C1645 0.929 . S
H1636 C1640 0.929 . S
H1637 C1646 0.929 . S
C1638 H1632 0.930 . S
C1638 C1639 1.367 . S
C1638 C1646 1.378 . S
C1639 C1638 1.367 . S
C1639 C1647 1.433 . S
C1640 H1636 0.929 . S
C1640 C1642 1.378 . S
C1640 C1644 1.350 . S
C1641 C1644 1.463 . S
C1641 C1646 1.350 . S
C1641 N1649 1.427 . S
C1642 H1633 0.930 . S
C1642 C1640 1.378 . S
C1642 C1643 1.367 . S
C1643 C1642 1.367 . S
C1643 C1645 1.433 . S
C1644 C1640 1.350 . S
C1644 C1641 1.463 . S
C1644 N1648 1.427 . S
C1645 H1635 0.929 . S
C1645 C1643 1.433 . S
C1645 N1648 1.384 . S
C1646 H1637 0.929 . S
C1646 C1638 1.378 . S
C1646 C1641 1.350 . S
C1647 H1634 0.929 . S
C1647 C1639 1.433 . S
C1647 N1649 1.384 . S
N1648 C1644 1.427 . S
N1648 C1645 1.384 . S
N1649 C1641 1.427 . S
N1649 C1647 1.384 . S
H1650 C1656 0.930 . S
H1651 C1660 0.930 . S
H1652 C1665 0.929 . S
H1653 C1663 0.929 . S
H1654 C1658 0.948 . S
H1655 C1664 0.948 . S
C1656 H1650 0.930 . S
C1656 C1657 1.367 . S
C1656 C1664 1.378 . S
C1657 C1656 1.367 . S
C1657 C1665 1.433 . S
C1658 H1654 0.948 . S
C1658 C1660 1.378 . S
C1658 C1662 1.350 . S
C1659 C1662 1.463 1_565 S
C1659 C1664 1.350 . S
C1659 N1667 1.427 . S
C1660 H1651 0.930 . S
C1660 C1658 1.378 . S
C1660 C1661 1.367 . S
C1661 C1660 1.367 . S
C1661 C1663 1.433 . S
C1662 C1658 1.350 . S
C1662 C1659 1.463 1_545 S
C1662 N1666 1.427 . S
C1663 H1653 0.929 . S
C1663 C1661 1.433 . S
C1663 N1666 1.384 . S
C1664 H1655 0.948 . S
C1664 C1656 1.378 . S
C1664 C1659 1.350 . S
C1665 H1652 0.929 . S
C1665 C1657 1.433 . S
C1665 N1667 1.384 . S
N1666 C1662 1.427 . S
N1666 C1663 1.384 . S
N1667 C1659 1.427 . S
N1667 C1665 1.384 . S
H1668 C1674 0.930 . S
H1669 C1678 0.930 . S
H1670 C1683 0.929 . S
H1671 C1681 0.929 . S
H1672 C1676 0.929 . S
H1673 C1682 0.929 . S
C1674 H1668 0.930 . S
C1674 C1675 1.367 . S
C1674 C1682 1.378 . S
C1675 C1674 1.367 . S
C1675 C1683 1.433 . S
C1676 H1672 0.929 . S
C1676 C1678 1.378 . S
C1676 C1680 1.350 . S
C1677 C1680 1.463 1_554 S
C1677 C1682 1.350 . S
C1677 N1685 1.427 1_554 S
C1678 H1669 0.930 . S
C1678 C1676 1.378 . S
C1678 C1679 1.367 . S
C1679 C1678 1.367 . S
C1679 C1681 1.433 . S
C1680 C1676 1.350 . S
C1680 C1677 1.463 1_556 S
C1680 N1684 1.427 1_556 S
C1681 H1671 0.929 . S
C1681 C1679 1.433 . S
C1681 N1684 1.384 1_556 S
C1682 H1673 0.929 . S
C1682 C1674 1.378 . S
C1682 C1677 1.350 . S
C1683 H1670 0.929 . S
C1683 C1675 1.433 . S
C1683 N1685 1.384 1_554 S
N1684 C1680 1.427 1_554 S
N1684 C1681 1.384 1_554 S
N1685 C1677 1.427 1_556 S
N1685 C1683 1.384 1_556 S
H1686 C1692 0.930 . S
H1687 C1696 0.930 . S
H1688 C1701 0.929 . S
H1689 C1699 0.929 . S
H1690 C1694 0.929 . S
H1691 C1700 0.929 . S
C1692 H1686 0.930 . S
C1692 C1693 1.367 . S
C1692 C1700 1.378 . S
C1693 C1692 1.367 . S
C1693 C1701 1.433 . S
C1694 H1690 0.929 . S
C1694 C1696 1.378 . S
C1694 C1698 1.350 . S
C1695 C1698 1.463 1_565 S
C1695 C1700 1.350 . S
C1695 N1703 1.427 . S
C1696 H1687 0.930 . S
C1696 C1694 1.378 . S
C1696 C1697 1.367 . S
C1697 C1696 1.367 . S
C1697 C1699 1.433 . S
C1698 C1694 1.350 . S
C1698 C1695 1.463 1_545 S
C1698 N1702 1.427 . S
C1699 H1689 0.929 . S
C1699 C1697 1.433 . S
C1699 N1702 1.384 . S
C1700 H1691 0.929 . S
C1700 C1692 1.378 . S
C1700 C1695 1.350 . S
C1701 H1688 0.929 . S
C1701 C1693 1.433 . S
C1701 N1703 1.384 . S
N1702 C1698 1.427 . S
N1702 C1699 1.384 . S
N1703 C1695 1.427 . S
N1703 C1701 1.384 . S
H1704 C1710 0.930 . S
H1705 C1714 0.930 . S
H1706 C1719 0.929 . S
H1707 C1717 0.929 . S
H1708 C1712 0.929 . S
H1709 C1718 0.929 . S
C1710 H1704 0.930 . S
C1710 C1711 1.367 . S
C1710 C1718 1.378 . S
C1711 C1710 1.367 . S
C1711 C1719 1.433 . S
C1712 H1708 0.929 . S
C1712 C1714 1.378 . S
C1712 C1716 1.350 . S
C1713 C1716 1.463 . S
C1713 C1718 1.350 . S
C1713 N1721 1.427 . S
C1714 H1705 0.930 . S
C1714 C1712 1.378 . S
C1714 C1715 1.367 . S
C1715 C1714 1.367 . S
C1715 C1717 1.433 . S
C1716 C1712 1.350 . S
C1716 C1713 1.463 . S
C1716 N1720 1.427 . S
C1717 H1707 0.929 . S
C1717 C1715 1.433 . S
C1717 N1720 1.384 . S
C1718 H1709 0.929 . S
C1718 C1710 1.378 . S
C1718 C1713 1.350 . S
C1719 H1706 0.929 . S
C1719 C1711 1.433 . S
C1719 N1721 1.384 . S
N1720 C1716 1.427 . S
N1720 C1717 1.384 . S
N1721 C1713 1.427 . S
N1721 C1719 1.384 . S
H1722 C1728 0.930 . S
H1723 C1732 0.930 . S
H1724 C1737 0.929 . S
H1725 C1735 0.929 . S
H1726 C1730 0.929 . S
H1727 C1736 0.929 . S
C1728 H1722 0.930 . S
C1728 C1729 1.367 . S
C1728 C1736 1.378 . S
C1729 C1728 1.367 . S
C1729 C1737 1.433 . S
C1730 H1726 0.929 . S
C1730 C1732 1.378 . S
C1730 C1734 1.350 . S
C1731 C1734 1.463 1_565 S
C1731 C1736 1.350 . S
C1731 N1739 1.427 . S
C1732 H1723 0.930 . S
C1732 C1730 1.378 . S
C1732 C1733 1.367 . S
C1733 C1732 1.367 . S
C1733 C1735 1.433 . S
C1734 C1730 1.350 . S
C1734 C1731 1.463 1_545 S
C1734 N1738 1.427 . S
C1735 H1725 0.929 . S
C1735 C1733 1.433 . S
C1735 N1738 1.384 . S
C1736 H1727 0.929 . S
C1736 C1728 1.378 . S
C1736 C1731 1.350 . S
C1737 H1724 0.929 . S
C1737 C1729 1.433 . S
C1737 N1739 1.384 . S
N1738 C1734 1.427 . S
N1738 C1735 1.384 . S
N1739 C1731 1.427 . S
N1739 C1737 1.384 . S
H1740 C1746 0.930 . S
H1741 C1750 0.930 . S
H1742 C1755 0.929 . S
H1743 C1753 0.929 . S
H1744 C1748 0.929 1_556 S
H1745 C1754 0.929 1_554 S
C1746 H1740 0.930 . S
C1746 C1747 1.367 . S
C1746 C1754 1.378 . S
C1747 C1746 1.367 . S
C1747 C1755 1.433 . S
C1748 H1744 0.929 1_554 S
C1748 C1750 1.378 . S
C1748 C1752 1.350 . S
C1749 C1752 1.463 1_556 S
C1749 C1754 1.350 . S
C1749 N1757 1.427 . S
C1750 H1741 0.930 . S
C1750 C1748 1.378 . S
C1750 C1751 1.367 . S
C1751 C1750 1.367 . S
C1751 C1753 1.433 . S
C1752 C1748 1.350 . S
C1752 C1749 1.463 1_554 S
C1752 N1756 1.427 . S
C1753 H1743 0.929 . S
C1753 C1751 1.433 . S
C1753 N1756 1.384 . S
C1754 H1745 0.929 1_556 S
C1754 C1746 1.378 . S
C1754 C1749 1.350 . S
C1755 H1742 0.929 . S
C1755 C1747 1.433 . S
C1755 N1757 1.384 . S
N1756 C1752 1.427 . S
N1756 C1753 1.384 . S
N1757 C1749 1.427 . S
N1757 C1755 1.384 . S
H1758 C1764 0.930 . S
H1759 C1768 0.930 . S
H1760 C1773 0.929 . S
H1761 C1771 0.929 . S
H1762 C1766 0.931 . S
H1763 C1772 0.931 . S
C1764 H1758 0.930 . S
C1764 C1765 1.367 . S
C1764 C1772 1.378 . S
C1765 C1764 1.367 . S
C1765 C1773 1.433 . S
C1766 H1762 0.931 . S
C1766 C1768 1.378 . S
C1766 C1770 1.350 . S
C1767 C1770 1.463 1_545 S
C1767 C1772 1.350 . S
C1767 N1775 1.427 . S
C1768 H1759 0.930 . S
C1768 C1766 1.378 . S
C1768 C1769 1.367 . S
C1769 C1768 1.367 . S
C1769 C1771 1.433 . S
C1770 C1766 1.350 . S
C1770 C1767 1.463 1_565 S
C1770 N1774 1.427 . S
C1771 H1761 0.929 . S
C1771 C1769 1.433 . S
C1771 N1774 1.384 . S
C1772 H1763 0.931 . S
C1772 C1764 1.378 . S
C1772 C1767 1.350 . S
C1773 H1760 0.929 . S
C1773 C1765 1.433 . S
C1773 N1775 1.384 . S
N1774 C1770 1.427 . S
N1774 C1771 1.384 . S
N1775 C1767 1.427 . S
N1775 C1773 1.384 . S
H1776 C1782 0.930 . S
H1777 C1786 0.930 . S
H1778 C1791 0.929 . S
H1779 C1789 0.929 . S
H1780 C1784 0.929 . S
H1781 C1790 0.929 . S
C1782 H1776 0.930 . S
C1782 C1783 1.367 . S
C1782 C1790 1.378 . S
C1783 C1782 1.367 . S
C1783 C1791 1.433 . S
C1784 H1780 0.929 . S
C1784 C1786 1.378 . S
C1784 C1788 1.350 . S
C1785 C1788 1.463 1_556 S
C1785 C1790 1.350 . S
C1785 N1793 1.427 . S
C1786 H1777 0.930 . S
C1786 C1784 1.378 . S
C1786 C1787 1.367 . S
C1787 C1786 1.367 . S
C1787 C1789 1.433 . S
C1788 C1784 1.350 . S
C1788 C1785 1.463 1_554 S
C1788 N1792 1.427 . S
C1789 H1779 0.929 . S
C1789 C1787 1.433 . S
C1789 N1792 1.384 . S
C1790 H1781 0.929 . S
C1790 C1782 1.378 . S
C1790 C1785 1.350 . S
C1791 H1778 0.929 . S
C1791 C1783 1.433 . S
C1791 N1793 1.384 . S
N1792 C1788 1.427 . S
N1792 C1789 1.384 . S
N1793 C1785 1.427 . S
N1793 C1791 1.384 . S
H1794 C1800 0.930 . S
H1795 C1804 0.930 . S
H1796 C1809 0.929 . S
H1797 C1807 0.929 . S
H1798 C1802 0.929 . S
H1799 C1808 0.929 . S
C1800 H1794 0.930 . S
C1800 C1801 1.367 . S
C1800 C1808 1.378 . S
C1801 C1800 1.367 . S
C1801 C1809 1.433 . S
C1802 H1798 0.929 . S
C1802 C1804 1.378 . S
C1802 C1806 1.350 . S
C1803 C1806 1.463 . S
C1803 C1808 1.350 . S
C1803 N1811 1.427 . S
C1804 H1795 0.930 . S
C1804 C1802 1.378 . S
C1804 C1805 1.367 . S
C1805 C1804 1.367 . S
C1805 C1807 1.433 . S
C1806 C1802 1.350 . S
C1806 C1803 1.463 . S
C1806 N1810 1.427 . S
C1807 H1797 0.929 . S
C1807 C1805 1.433 . S
C1807 N1810 1.384 . S
C1808 H1799 0.929 . S
C1808 C1800 1.378 . S
C1808 C1803 1.350 . S
C1809 H1796 0.929 . S
C1809 C1801 1.433 . S
C1809 N1811 1.384 . S
N1810 C1806 1.427 . S
N1810 C1807 1.384 . S
N1811 C1803 1.427 . S
N1811 C1809 1.384 . S
H1812 C1818 0.930 . S
H1813 C1822 0.930 . S
H1814 C1827 0.929 . S
H1815 C1825 0.929 . S
H1816 C1820 0.929 . S
H1817 C1826 0.929 . S
C1818 H1812 0.930 . S
C1818 C1819 1.367 . S
C1818 C1826 1.378 . S
C1819 C1818 1.367 . S
C1819 C1827 1.433 . S
C1820 H1816 0.929 . S
C1820 C1822 1.378 . S
C1820 C1824 1.350 . S
C1821 C1824 1.463 . S
C1821 C1826 1.350 . S
C1821 N1829 1.427 . S
C1822 H1813 0.930 . S
C1822 C1820 1.378 . S
C1822 C1823 1.367 . S
C1823 C1822 1.367 . S
C1823 C1825 1.433 . S
C1824 C1820 1.350 . S
C1824 C1821 1.463 . S
C1824 N1828 1.427 . S
C1825 H1815 0.929 . S
C1825 C1823 1.433 . S
C1825 N1828 1.384 . S
C1826 H1817 0.929 . S
C1826 C1818 1.378 . S
C1826 C1821 1.350 . S
C1827 H1814 0.929 . S
C1827 C1819 1.433 . S
C1827 N1829 1.384 . S
N1828 C1824 1.427 . S
N1828 C1825 1.384 . S
N1829 C1821 1.427 . S
N1829 C1827 1.384 . S
H1830 C1836 0.930 . S
H1831 C1840 0.930 . S
H1832 C1845 0.929 . S
H1833 C1843 0.929 . S
H1834 C1838 0.929 . S
H1835 C1844 0.929 . S
C1836 H1830 0.930 . S
C1836 C1837 1.367 . S
C1836 C1844 1.378 . S
C1837 C1836 1.367 . S
C1837 C1845 1.433 . S
C1838 H1834 0.929 . S
C1838 C1840 1.378 . S
C1838 C1842 1.350 . S
C1839 C1842 1.463 . S
C1839 C1844 1.350 . S
C1839 N1847 1.427 . S
C1840 H1831 0.930 . S
C1840 C1838 1.378 . S
C1840 C1841 1.367 . S
C1841 C1840 1.367 . S
C1841 C1843 1.433 . S
C1842 C1838 1.350 . S
C1842 C1839 1.463 . S
C1842 N1846 1.427 . S
C1843 H1833 0.929 . S
C1843 C1841 1.433 . S
C1843 N1846 1.384 . S
C1844 H1835 0.929 . S
C1844 C1836 1.378 . S
C1844 C1839 1.350 . S
C1845 H1832 0.929 . S
C1845 C1837 1.433 . S
C1845 N1847 1.384 . S
N1846 C1842 1.427 . S
N1846 C1843 1.384 . S
N1847 C1839 1.427 . S
N1847 C1845 1.384 . S
H1848 C1854 0.930 . S
H1849 C1858 0.930 . S
H1850 C1863 0.929 . S
H1851 C1861 0.929 . S
H1852 C1856 0.929 . S
H1853 C1862 0.929 . S
C1854 H1848 0.930 . S
C1854 C1855 1.367 . S
C1854 C1862 1.378 . S
C1855 C1854 1.367 . S
C1855 C1863 1.433 . S
C1856 H1852 0.929 . S
C1856 C1858 1.378 . S
C1856 C1860 1.350 . S
C1857 C1860 1.463 1_556 S
C1857 C1862 1.350 . S
C1857 N1865 1.427 . S
C1858 H1849 0.930 . S
C1858 C1856 1.378 . S
C1858 C1859 1.367 . S
C1859 C1858 1.367 . S
C1859 C1861 1.433 . S
C1860 C1856 1.350 . S
C1860 C1857 1.463 1_554 S
C1860 N1864 1.427 . S
C1861 H1851 0.929 . S
C1861 C1859 1.433 . S
C1861 N1864 1.384 . S
C1862 H1853 0.929 . S
C1862 C1854 1.378 . S
C1862 C1857 1.350 . S
C1863 H1850 0.929 . S
C1863 C1855 1.433 . S
C1863 N1865 1.384 . S
N1864 C1860 1.427 . S
N1864 C1861 1.384 . S
N1865 C1857 1.427 . S
N1865 C1863 1.384 . S
H1866 C1872 0.930 . S
H1867 C1876 0.930 . S
H1868 C1881 0.929 . S
H1869 C1879 0.929 . S
H1870 C1874 0.929 . S
H1871 C1880 0.929 . S
C1872 H1866 0.930 . S
C1872 C1873 1.367 . S
C1872 C1880 1.378 . S
C1873 C1872 1.367 . S
C1873 C1881 1.433 . S
C1874 H1870 0.929 . S
C1874 C1876 1.378 . S
C1874 C1878 1.350 . S
C1875 C1878 1.463 . S
C1875 C1880 1.350 . S
C1875 N1883 1.427 . S
C1876 H1867 0.930 . S
C1876 C1874 1.378 . S
C1876 C1877 1.367 . S
C1877 C1876 1.367 . S
C1877 C1879 1.433 . S
C1878 C1874 1.350 . S
C1878 C1875 1.463 . S
C1878 N1882 1.427 . S
C1879 H1869 0.929 . S
C1879 C1877 1.433 . S
C1879 N1882 1.384 . S
C1880 H1871 0.929 . S
C1880 C1872 1.378 . S
C1880 C1875 1.350 . S
C1881 H1868 0.929 . S
C1881 C1873 1.433 . S
C1881 N1883 1.384 . S
N1882 C1878 1.427 . S
N1882 C1879 1.384 . S
N1883 C1875 1.427 . S
N1883 C1881 1.384 . S
H1884 C1890 0.930 . S
H1885 C1894 0.930 . S
H1886 C1899 0.929 . S
H1887 C1897 0.929 . S
H1888 C1892 0.929 . S
H1889 C1898 0.929 . S
C1890 H1884 0.930 . S
C1890 C1891 1.367 . S
C1890 C1898 1.378 . S
C1891 C1890 1.367 . S
C1891 C1899 1.433 . S
C1892 H1888 0.929 . S
C1892 C1894 1.378 . S
C1892 C1896 1.350 . S
C1893 C1896 1.463 . S
C1893 C1898 1.350 . S
C1893 N1901 1.427 . S
C1894 H1885 0.930 . S
C1894 C1892 1.378 . S
C1894 C1895 1.367 . S
C1895 C1894 1.367 . S
C1895 C1897 1.433 . S
C1896 C1892 1.350 . S
C1896 C1893 1.463 . S
C1896 N1900 1.427 . S
C1897 H1887 0.929 . S
C1897 C1895 1.433 . S
C1897 N1900 1.384 . S
C1898 H1889 0.929 . S
C1898 C1890 1.378 . S
C1898 C1893 1.350 . S
C1899 H1886 0.929 . S
C1899 C1891 1.433 . S
C1899 N1901 1.384 . S
N1900 C1896 1.427 . S
N1900 C1897 1.384 . S
N1901 C1893 1.427 . S
N1901 C1899 1.384 . S
H1902 C1908 0.930 . S
H1903 C1912 0.930 . S
H1904 C1917 0.929 . S
H1905 C1915 0.929 . S
H1906 C1910 0.929 . S
H1907 C1916 0.929 . S
C1908 H1902 0.930 . S
C1908 C1909 1.367 . S
C1908 C1916 1.378 . S
C1909 C1908 1.367 . S
C1909 C1917 1.433 . S
C1910 H1906 0.929 . S
C1910 C1912 1.378 . S
C1910 C1914 1.350 . S
C1911 C1914 1.463 . S
C1911 C1916 1.350 . S
C1911 N1919 1.427 . S
C1912 H1903 0.930 . S
C1912 C1910 1.378 . S
C1912 C1913 1.367 . S
C1913 C1912 1.367 . S
C1913 C1915 1.433 . S
C1914 C1910 1.350 . S
C1914 C1911 1.463 . S
C1914 N1918 1.427 . S
C1915 H1905 0.929 . S
C1915 C1913 1.433 . S
C1915 N1918 1.384 . S
C1916 H1907 0.929 . S
C1916 C1908 1.378 . S
C1916 C1911 1.350 . S
C1917 H1904 0.929 . S
C1917 C1909 1.433 . S
C1917 N1919 1.384 . S
N1918 C1914 1.427 . S
N1918 C1915 1.384 . S
N1919 C1911 1.427 . S
N1919 C1917 1.384 . S
H1920 C1926 0.930 . S
H1921 C1930 0.930 . S
H1922 C1935 0.929 . S
H1923 C1933 0.929 . S
H1924 C1928 0.929 . S
H1925 C1934 0.929 . S
C1926 H1920 0.930 . S
C1926 C1927 1.367 . S
C1926 C1934 1.378 . S
C1927 C1926 1.367 . S
C1927 C1935 1.433 . S
C1928 H1924 0.929 . S
C1928 C1930 1.378 . S
C1928 C1932 1.350 . S
C1929 C1932 1.463 . S
C1929 C1934 1.350 . S
C1929 N1937 1.427 . S
C1930 H1921 0.930 . S
C1930 C1928 1.378 . S
C1930 C1931 1.367 . S
C1931 C1930 1.367 . S
C1931 C1933 1.433 . S
C1932 C1928 1.350 . S
C1932 C1929 1.463 . S
C1932 N1936 1.427 . S
C1933 H1923 0.929 . S
C1933 C1931 1.433 . S
C1933 N1936 1.384 . S
C1934 H1925 0.929 . S
C1934 C1926 1.378 . S
C1934 C1929 1.350 . S
C1935 H1922 0.929 . S
C1935 C1927 1.433 . S
C1935 N1937 1.384 . S
N1936 C1932 1.427 . S
N1936 C1933 1.384 . S
N1937 C1929 1.427 . S
N1937 C1935 1.384 . S
H1938 C1944 0.930 . S
H1939 C1948 0.930 . S
H1940 C1953 0.929 . S
H1941 C1951 0.929 . S
H1942 C1946 0.929 . S
H1943 C1952 0.929 . S
C1944 H1938 0.930 . S
C1944 C1945 1.367 . S
C1944 C1952 1.378 . S
C1945 C1944 1.367 . S
C1945 C1953 1.433 . S
C1946 H1942 0.929 . S
C1946 C1948 1.378 1_655 S
C1946 C1950 1.350 . S
C1947 C1950 1.463 . S
C1947 C1952 1.350 . S
C1947 N1955 1.427 . S
C1948 H1939 0.930 . S
C1948 C1946 1.378 1_455 S
C1948 C1949 1.367 . S
C1949 C1948 1.367 . S
C1949 C1951 1.433 . S
C1950 C1946 1.350 . S
C1950 C1947 1.463 . S
C1950 N1954 1.427 . S
C1951 H1941 0.929 . S
C1951 C1949 1.433 . S
C1951 N1954 1.384 1_455 S
C1952 H1943 0.929 . S
C1952 C1944 1.378 . S
C1952 C1947 1.350 . S
C1953 H1940 0.929 . S
C1953 C1945 1.433 . S
C1953 N1955 1.384 . S
N1954 C1950 1.427 . S
N1954 C1951 1.384 1_655 S
N1955 C1947 1.427 . S
N1955 C1953 1.384 . S
H1956 C1962 0.930 . S
H1957 C1966 0.930 . S
H1958 C1971 0.929 . S
H1959 C1969 0.929 . S
H1960 C1964 0.929 . S
H1961 C1970 0.929 . S
C1962 H1956 0.930 . S
C1962 C1963 1.367 . S
C1962 C1970 1.378 . S
C1963 C1962 1.367 . S
C1963 C1971 1.433 . S
C1964 H1960 0.929 . S
C1964 C1966 1.378 . S
C1964 C1968 1.350 . S
C1965 C1968 1.463 . S
C1965 C1970 1.350 . S
C1965 N1973 1.427 . S
C1966 H1957 0.930 . S
C1966 C1964 1.378 . S
C1966 C1967 1.367 . S
C1967 C1966 1.367 . S
C1967 C1969 1.433 . S
C1968 C1964 1.350 . S
C1968 C1965 1.463 . S
C1968 N1972 1.427 . S
C1969 H1959 0.929 . S
C1969 C1967 1.433 . S
C1969 N1972 1.384 . S
C1970 H1961 0.929 . S
C1970 C1962 1.378 . S
C1970 C1965 1.350 . S
C1971 H1958 0.929 . S
C1971 C1963 1.433 . S
C1971 N1973 1.384 . S
N1972 C1968 1.427 . S
N1972 C1969 1.384 . S
N1973 C1965 1.427 . S
N1973 C1971 1.384 . S
H1974 C1980 0.930 . S
H1975 C1984 0.930 . S
H1976 C1989 0.929 . S
H1977 C1987 0.929 . S
H1978 C1982 0.929 . S
H1979 C1988 0.929 . S
C1980 H1974 0.930 . S
C1980 C1981 1.367 . S
C1980 C1988 1.378 . S
C1981 C1980 1.367 . S
C1981 C1989 1.433 . S
C1982 H1978 0.929 . S
C1982 C1984 1.378 . S
C1982 C1986 1.350 . S
C1983 C1986 1.463 . S
C1983 C1988 1.350 . S
C1983 N1991 1.427 . S
C1984 H1975 0.930 . S
C1984 C1982 1.378 . S
C1984 C1985 1.367 . S
C1985 C1984 1.367 . S
C1985 C1987 1.433 . S
C1986 C1982 1.350 . S
C1986 C1983 1.463 . S
C1986 N1990 1.427 . S
C1987 H1977 0.929 . S
C1987 C1985 1.433 . S
C1987 N1990 1.384 . S
C1988 H1979 0.929 . S
C1988 C1980 1.378 . S
C1988 C1983 1.350 . S
C1989 H1976 0.929 . S
C1989 C1981 1.433 . S
C1989 N1991 1.384 . S
N1990 C1986 1.427 . S
N1990 C1987 1.384 . S
N1991 C1983 1.427 . S
N1991 C1989 1.384 . S
H1992 C1998 0.930 . S
H1993 C2002 0.930 . S
H1994 C2007 0.929 . S
H1995 C2005 0.929 . S
H1996 C2000 0.929 . S
H1997 C2006 0.929 . S
C1998 H1992 0.930 . S
C1998 C1999 1.367 . S
C1998 C2006 1.378 . S
C1999 C1998 1.367 . S
C1999 C2007 1.433 . S
C2000 H1996 0.929 . S
C2000 C2002 1.378 . S
C2000 C2004 1.350 . S
C2001 C2004 1.463 . S
C2001 C2006 1.350 . S
C2001 N2009 1.427 . S
C2002 H1993 0.930 . S
C2002 C2000 1.378 . S
C2002 C2003 1.367 . S
C2003 C2002 1.367 . S
C2003 C2005 1.433 . S
C2004 C2000 1.350 . S
C2004 C2001 1.463 . S
C2004 N2008 1.427 . S
C2005 H1995 0.929 . S
C2005 C2003 1.433 . S
C2005 N2008 1.384 . S
C2006 H1997 0.929 . S
C2006 C1998 1.378 . S
C2006 C2001 1.350 . S
C2007 H1994 0.929 . S
C2007 C1999 1.433 . S
C2007 N2009 1.384 . S
N2008 C2004 1.427 . S
N2008 C2005 1.384 . S
N2009 C2001 1.427 . S
N2009 C2007 1.384 . S
H2010 C2016 0.930 . S
H2011 C2020 0.930 . S
H2012 C2025 0.929 . S
H2013 C2023 0.929 . S
H2014 C2018 0.929 . S
H2015 C2024 0.929 . S
C2016 H2010 0.930 . S
C2016 C2017 1.367 . S
C2016 C2024 1.378 . S
C2017 C2016 1.367 . S
C2017 C2025 1.433 . S
C2018 H2014 0.929 . S
C2018 C2020 1.378 . S
C2018 C2022 1.350 . S
C2019 C2022 1.463 . S
C2019 C2024 1.350 . S
C2019 N2027 1.427 . S
C2020 H2011 0.930 . S
C2020 C2018 1.378 . S
C2020 C2021 1.367 . S
C2021 C2020 1.367 . S
C2021 C2023 1.433 . S
C2022 C2018 1.350 . S
C2022 C2019 1.463 . S
C2022 N2026 1.427 . S
C2023 H2013 0.929 . S
C2023 C2021 1.433 . S
C2023 N2026 1.384 . S
C2024 H2015 0.929 . S
C2024 C2016 1.378 . S
C2024 C2019 1.350 . S
C2025 H2012 0.929 . S
C2025 C2017 1.433 . S
C2025 N2027 1.384 . S
N2026 C2022 1.427 . S
N2026 C2023 1.384 . S
N2027 C2019 1.427 . S
N2027 C2025 1.384 . S
H2028 C2034 0.930 . S
H2029 C2038 0.930 . S
H2030 C2043 0.929 . S
H2031 C2041 0.929 . S
H2032 C2036 0.929 . S
H2033 C2042 0.929 . S
C2034 H2028 0.930 . S
C2034 C2035 1.367 . S
C2034 C2042 1.378 . S
C2035 C2034 1.367 . S
C2035 C2043 1.433 . S
C2036 H2032 0.929 . S
C2036 C2038 1.378 . S
C2036 C2040 1.350 . S
C2037 C2040 1.463 . S
C2037 C2042 1.350 . S
C2037 N2045 1.427 . S
C2038 H2029 0.930 . S
C2038 C2036 1.378 . S
C2038 C2039 1.367 . S
C2039 C2038 1.367 . S
C2039 C2041 1.433 . S
C2040 C2036 1.350 . S
C2040 C2037 1.463 . S
C2040 N2044 1.427 . S
C2041 H2031 0.929 . S
C2041 C2039 1.433 . S
C2041 N2044 1.384 . S
C2042 H2033 0.929 . S
C2042 C2034 1.378 . S
C2042 C2037 1.350 . S
C2043 H2030 0.929 . S
C2043 C2035 1.433 . S
C2043 N2045 1.384 . S
N2044 C2040 1.427 . S
N2044 C2041 1.384 . S
N2045 C2037 1.427 . S
N2045 C2043 1.384 . S
H2046 C2052 0.930 . S
H2047 C2056 0.930 . S
H2048 C2061 0.929 . S
H2049 C2059 0.929 . S
H2050 C2054 0.929 . S
H2051 C2060 0.929 . S
C2052 H2046 0.930 . S
C2052 C2053 1.367 . S
C2052 C2060 1.378 . S
C2053 C2052 1.367 . S
C2053 C2061 1.433 . S
C2054 H2050 0.929 . S
C2054 C2056 1.378 1_655 S
C2054 C2058 1.350 . S
C2055 C2058 1.463 . S
C2055 C2060 1.350 . S
C2055 N2063 1.427 . S
C2056 H2047 0.930 . S
C2056 C2054 1.378 1_455 S
C2056 C2057 1.367 . S
C2057 C2056 1.367 . S
C2057 C2059 1.433 . S
C2058 C2054 1.350 . S
C2058 C2055 1.463 . S
C2058 N2062 1.427 . S
C2059 H2049 0.929 . S
C2059 C2057 1.433 . S
C2059 N2062 1.384 1_455 S
C2060 H2051 0.929 . S
C2060 C2052 1.378 . S
C2060 C2055 1.350 . S
C2061 H2048 0.929 . S
C2061 C2053 1.433 . S
C2061 N2063 1.384 . S
N2062 C2058 1.427 . S
N2062 C2059 1.384 1_655 S
N2063 C2055 1.427 . S
N2063 C2061 1.384 . S
H2064 C2070 0.930 . S
H2065 C2074 0.930 . S
H2066 C2079 0.929 . S
H2067 C2077 0.929 . S
H2068 C2072 0.929 . S
H2069 C2078 0.929 . S
C2070 H2064 0.930 . S
C2070 C2071 1.367 . S
C2070 C2078 1.378 . S
C2071 C2070 1.367 . S
C2071 C2079 1.433 . S
C2072 H2068 0.929 . S
C2072 C2074 1.378 . S
C2072 C2076 1.350 . S
C2073 C2076 1.463 . S
C2073 C2078 1.350 . S
C2073 N2081 1.427 . S
C2074 H2065 0.930 . S
C2074 C2072 1.378 . S
C2074 C2075 1.367 . S
C2075 C2074 1.367 . S
C2075 C2077 1.433 . S
C2076 C2072 1.350 . S
C2076 C2073 1.463 . S
C2076 N2080 1.427 . S
C2077 H2067 0.929 . S
C2077 C2075 1.433 . S
C2077 N2080 1.384 . S
C2078 H2069 0.929 . S
C2078 C2070 1.378 . S
C2078 C2073 1.350 . S
C2079 H2066 0.929 . S
C2079 C2071 1.433 . S
C2079 N2081 1.384 . S
N2080 C2076 1.427 . S
N2080 C2077 1.384 . S
N2081 C2073 1.427 . S
N2081 C2079 1.384 . S
H2082 C2088 0.930 . S
H2083 C2092 0.930 . S
H2084 C2097 0.929 . S
H2085 C2095 0.929 . S
H2086 C2090 0.929 . S
H2087 C2096 0.929 . S
C2088 H2082 0.930 . S
C2088 C2089 1.367 . S
C2088 C2096 1.378 1_655 S
C2089 C2088 1.367 . S
C2089 C2097 1.433 . S
C2090 H2086 0.929 . S
C2090 C2092 1.378 . S
C2090 C2094 1.350 . S
C2091 C2094 1.463 . S
C2091 C2096 1.350 . S
C2091 N2099 1.427 . S
C2092 H2083 0.930 . S
C2092 C2090 1.378 . S
C2092 C2093 1.367 . S
C2093 C2092 1.367 . S
C2093 C2095 1.433 . S
C2094 C2090 1.350 . S
C2094 C2091 1.463 . S
C2094 N2098 1.427 . S
C2095 H2085 0.929 . S
C2095 C2093 1.433 . S
C2095 N2098 1.384 . S
C2096 H2087 0.929 . S
C2096 C2088 1.378 1_455 S
C2096 C2091 1.350 . S
C2097 H2084 0.929 . S
C2097 C2089 1.433 . S
C2097 N2099 1.384 1_655 S
N2098 C2094 1.427 . S
N2098 C2095 1.384 . S
N2099 C2091 1.427 . S
N2099 C2097 1.384 1_455 S
H2100 C2106 0.930 . S
H2101 C2110 0.930 . S
H2102 C2115 0.929 . S
H2103 C2113 0.929 . S
H2104 C2108 0.929 . S
H2105 C2114 0.929 . S
C2106 H2100 0.930 . S
C2106 C2107 1.367 . S
C2106 C2114 1.378 . S
C2107 C2106 1.367 . S
C2107 C2115 1.433 . S
C2108 H2104 0.929 . S
C2108 C2110 1.378 . S
C2108 C2112 1.350 . S
C2109 C2112 1.463 . S
C2109 C2114 1.350 . S
C2109 N2117 1.427 . S
C2110 H2101 0.930 . S
C2110 C2108 1.378 . S
C2110 C2111 1.367 . S
C2111 C2110 1.367 . S
C2111 C2113 1.433 . S
C2112 C2108 1.350 . S
C2112 C2109 1.463 . S
C2112 N2116 1.427 . S
C2113 H2103 0.929 . S
C2113 C2111 1.433 . S
C2113 N2116 1.384 . S
C2114 H2105 0.929 . S
C2114 C2106 1.378 . S
C2114 C2109 1.350 . S
C2115 H2102 0.929 . S
C2115 C2107 1.433 . S
C2115 N2117 1.384 . S
N2116 C2112 1.427 . S
N2116 C2113 1.384 . S
N2117 C2109 1.427 . S
N2117 C2115 1.384 . S
H2118 C2124 0.930 . S
H2119 C2128 0.930 . S
H2120 C2133 0.929 . S
H2121 C2131 0.929 . S
H2122 C2126 0.929 . S
H2123 C2132 0.929 . S
C2124 H2118 0.930 . S
C2124 C2125 1.367 . S
C2124 C2132 1.378 . S
C2125 C2124 1.367 . S
C2125 C2133 1.433 . S
C2126 H2122 0.929 . S
C2126 C2128 1.378 . S
C2126 C2130 1.350 . S
C2127 C2130 1.463 . S
C2127 C2132 1.350 . S
C2127 N2135 1.427 . S
C2128 H2119 0.930 . S
C2128 C2126 1.378 . S
C2128 C2129 1.367 . S
C2129 C2128 1.367 . S
C2129 C2131 1.433 . S
C2130 C2126 1.350 . S
C2130 C2127 1.463 . S
C2130 N2134 1.427 . S
C2131 H2121 0.929 . S
C2131 C2129 1.433 . S
C2131 N2134 1.384 . S
C2132 H2123 0.929 . S
C2132 C2124 1.378 . S
C2132 C2127 1.350 . S
C2133 H2120 0.929 . S
C2133 C2125 1.433 . S
C2133 N2135 1.384 . S
N2134 C2130 1.427 . S
N2134 C2131 1.384 . S
N2135 C2127 1.427 . S
N2135 C2133 1.384 . S
H2136 C2142 0.930 . S
H2137 C2146 0.930 . S
H2138 C2151 0.929 . S
H2139 C2149 0.929 . S
H2140 C2144 0.929 . S
H2141 C2150 0.929 . S
C2142 H2136 0.930 . S
C2142 C2143 1.367 . S
C2142 C2150 1.378 . S
C2143 C2142 1.367 . S
C2143 C2151 1.433 . S
C2144 H2140 0.929 . S
C2144 C2146 1.378 . S
C2144 C2148 1.350 . S
C2145 C2148 1.463 . S
C2145 C2150 1.350 . S
C2145 N2153 1.427 . S
C2146 H2137 0.930 . S
C2146 C2144 1.378 . S
C2146 C2147 1.367 . S
C2147 C2146 1.367 . S
C2147 C2149 1.433 . S
C2148 C2144 1.350 . S
C2148 C2145 1.463 . S
C2148 N2152 1.427 . S
C2149 H2139 0.929 . S
C2149 C2147 1.433 . S
C2149 N2152 1.384 . S
C2150 H2141 0.929 . S
C2150 C2142 1.378 . S
C2150 C2145 1.350 . S
C2151 H2138 0.929 . S
C2151 C2143 1.433 . S
C2151 N2153 1.384 . S
N2152 C2148 1.427 . S
N2152 C2149 1.384 . S
N2153 C2145 1.427 . S
N2153 C2151 1.384 . S
H2154 C2160 0.930 . S
H2155 C2164 0.930 . S
H2156 C2169 0.929 . S
H2157 C2167 0.929 . S
H2158 C2162 0.929 . S
H2159 C2168 0.929 . S
C2160 H2154 0.930 . S
C2160 C2161 1.367 . S
C2160 C2168 1.378 . S
C2161 C2160 1.367 . S
C2161 C2169 1.433 . S
C2162 H2158 0.929 . S
C2162 C2164 1.378 . S
C2162 C2166 1.350 . S
C2163 C2166 1.463 . S
C2163 C2168 1.350 . S
C2163 N2171 1.427 . S
C2164 H2155 0.930 . S
C2164 C2162 1.378 . S
C2164 C2165 1.367 . S
C2165 C2164 1.367 . S
C2165 C2167 1.433 . S
C2166 C2162 1.350 . S
C2166 C2163 1.463 . S
C2166 N2170 1.427 . S
C2167 H2157 0.929 . S
C2167 C2165 1.433 . S
C2167 N2170 1.384 . S
C2168 H2159 0.929 . S
C2168 C2160 1.378 . S
C2168 C2163 1.350 . S
C2169 H2156 0.929 . S
C2169 C2161 1.433 . S
C2169 N2171 1.384 . S
N2170 C2166 1.427 . S
N2170 C2167 1.384 . S
N2171 C2163 1.427 . S
N2171 C2169 1.384 . S
H2172 C2178 0.930 . S
H2173 C2182 0.930 . S
H2174 C2187 0.929 . S
H2175 C2185 0.929 . S
H2176 C2180 0.929 . S
H2177 C2186 0.929 . S
C2178 H2172 0.930 . S
C2178 C2179 1.367 . S
C2178 C2186 1.378 . S
C2179 C2178 1.367 . S
C2179 C2187 1.433 . S
C2180 H2176 0.929 . S
C2180 C2182 1.378 . S
C2180 C2184 1.350 . S
C2181 C2184 1.463 . S
C2181 C2186 1.350 . S
C2181 N2189 1.427 . S
C2182 H2173 0.930 . S
C2182 C2180 1.378 . S
C2182 C2183 1.367 . S
C2183 C2182 1.367 . S
C2183 C2185 1.433 . S
C2184 C2180 1.350 . S
C2184 C2181 1.463 . S
C2184 N2188 1.427 . S
C2185 H2175 0.929 . S
C2185 C2183 1.433 . S
C2185 N2188 1.384 . S
C2186 H2177 0.929 . S
C2186 C2178 1.378 . S
C2186 C2181 1.350 . S
C2187 H2174 0.929 . S
C2187 C2179 1.433 . S
C2187 N2189 1.384 . S
N2188 C2184 1.427 . S
N2188 C2185 1.384 . S
N2189 C2181 1.427 . S
N2189 C2187 1.384 . S
H2190 C2196 0.930 . S
H2191 C2200 0.930 . S
H2192 C2205 0.929 . S
H2193 C2203 0.929 . S
H2194 C2198 0.929 . S
H2195 C2204 0.929 . S
C2196 H2190 0.930 . S
C2196 C2197 1.367 . S
C2196 C2204 1.378 . S
C2197 C2196 1.367 . S
C2197 C2205 1.433 . S
C2198 H2194 0.929 . S
C2198 C2200 1.378 1_455 S
C2198 C2202 1.350 . S
C2199 C2202 1.463 . S
C2199 C2204 1.350 . S
C2199 N2207 1.427 . S
C2200 H2191 0.930 . S
C2200 C2198 1.378 1_655 S
C2200 C2201 1.367 . S
C2201 C2200 1.367 . S
C2201 C2203 1.433 . S
C2202 C2198 1.350 . S
C2202 C2199 1.463 . S
C2202 N2206 1.427 . S
C2203 H2193 0.929 . S
C2203 C2201 1.433 . S
C2203 N2206 1.384 1_655 S
C2204 H2195 0.929 . S
C2204 C2196 1.378 . S
C2204 C2199 1.350 . S
C2205 H2192 0.929 . S
C2205 C2197 1.433 . S
C2205 N2207 1.384 . S
N2206 C2202 1.427 . S
N2206 C2203 1.384 1_455 S
N2207 C2199 1.427 . S
N2207 C2205 1.384 . S
H2208 C2214 0.930 . S
H2209 C2218 0.930 . S
H2210 C2223 0.929 . S
H2211 C2221 0.929 . S
H2212 C2216 0.929 . S
H2213 C2222 0.929 . S
C2214 H2208 0.930 . S
C2214 C2215 1.367 . S
C2214 C2222 1.378 . S
C2215 C2214 1.367 . S
C2215 C2223 1.433 . S
C2216 H2212 0.929 . S
C2216 C2218 1.378 . S
C2216 C2220 1.350 . S
C2217 C2220 1.463 . S
C2217 C2222 1.350 . S
C2217 N2225 1.427 . S
C2218 H2209 0.930 . S
C2218 C2216 1.378 . S
C2218 C2219 1.367 . S
C2219 C2218 1.367 . S
C2219 C2221 1.433 . S
C2220 C2216 1.350 . S
C2220 C2217 1.463 . S
C2220 N2224 1.427 . S
C2221 H2211 0.929 . S
C2221 C2219 1.433 . S
C2221 N2224 1.384 . S
C2222 H2213 0.929 . S
C2222 C2214 1.378 . S
C2222 C2217 1.350 . S
C2223 H2210 0.929 . S
C2223 C2215 1.433 . S
C2223 N2225 1.384 . S
N2224 C2220 1.427 . S
N2224 C2221 1.384 . S
N2225 C2217 1.427 . S
N2225 C2223 1.384 . S
H2226 C2232 0.930 . S
H2227 C2236 0.930 . S
H2228 C2241 0.929 . S
H2229 C2239 0.929 . S
H2230 C2234 0.929 . S
H2231 C2240 0.929 . S
C2232 H2226 0.930 . S
C2232 C2233 1.367 . S
C2232 C2240 1.378 . S
C2233 C2232 1.367 . S
C2233 C2241 1.433 . S
C2234 H2230 0.929 . S
C2234 C2236 1.378 . S
C2234 C2238 1.350 . S
C2235 C2238 1.463 . S
C2235 C2240 1.350 . S
C2235 N2243 1.427 . S
C2236 H2227 0.930 . S
C2236 C2234 1.378 . S
C2236 C2237 1.367 . S
C2237 C2236 1.367 . S
C2237 C2239 1.433 . S
C2238 C2234 1.350 . S
C2238 C2235 1.463 . S
C2238 N2242 1.427 . S
C2239 H2229 0.929 . S
C2239 C2237 1.433 . S
C2239 N2242 1.384 . S
C2240 H2231 0.929 . S
C2240 C2232 1.378 . S
C2240 C2235 1.350 . S
C2241 H2228 0.929 . S
C2241 C2233 1.433 . S
C2241 N2243 1.384 . S
N2242 C2238 1.427 . S
N2242 C2239 1.384 . S
N2243 C2235 1.427 . S
N2243 C2241 1.384 . S
H2244 C2250 0.930 . S
H2245 C2254 0.930 . S
H2246 C2259 0.929 . S
H2247 C2257 0.929 . S
H2248 C2252 0.929 . S
H2249 C2258 0.929 . S
C2250 H2244 0.930 . S
C2250 C2251 1.367 . S
C2250 C2258 1.378 . S
C2251 C2250 1.367 . S
C2251 C2259 1.433 . S
C2252 H2248 0.929 . S
C2252 C2254 1.378 . S
C2252 C2256 1.350 . S
C2253 C2256 1.463 . S
C2253 C2258 1.350 . S
C2253 N2261 1.427 . S
C2254 H2245 0.930 . S
C2254 C2252 1.378 . S
C2254 C2255 1.367 . S
C2255 C2254 1.367 . S
C2255 C2257 1.433 . S
C2256 C2252 1.350 . S
C2256 C2253 1.463 . S
C2256 N2260 1.427 . S
C2257 H2247 0.929 . S
C2257 C2255 1.433 . S
C2257 N2260 1.384 . S
C2258 H2249 0.929 . S
C2258 C2250 1.378 . S
C2258 C2253 1.350 . S
C2259 H2246 0.929 . S
C2259 C2251 1.433 . S
C2259 N2261 1.384 . S
N2260 C2256 1.427 . S
N2260 C2257 1.384 . S
N2261 C2253 1.427 . S
N2261 C2259 1.384 . S
H2262 C2268 0.930 . S
H2263 C2272 0.930 . S
H2264 C2277 0.929 . S
H2265 C2275 0.929 . S
H2266 C2270 0.929 . S
H2267 C2276 0.947 . S
C2268 H2262 0.930 . S
C2268 C2269 1.367 . S
C2268 C2276 1.333 1_655 S
C2269 C2268 1.367 . S
C2269 C2277 1.433 . S
C2270 H2266 0.929 . S
C2270 C2272 1.378 . S
C2270 C2274 1.350 . S
C2271 C2274 1.463 . S
C2271 C2276 1.378 . S
C2271 N2279 1.427 . S
C2272 H2263 0.930 . S
C2272 C2270 1.378 . S
C2272 C2273 1.367 . S
C2273 C2272 1.367 . S
C2273 C2275 1.433 . S
C2274 C2270 1.350 . S
C2274 C2271 1.463 . S
C2274 N2278 1.427 . S
C2275 H2265 0.929 . S
C2275 C2273 1.433 . S
C2275 N2278 1.384 . S
C2276 H2267 0.947 . S
C2276 C2268 1.333 1_455 S
C2276 C2271 1.378 . S
C2277 H2264 0.929 . S
C2277 C2269 1.433 . S
C2277 N2279 1.384 1_655 S
N2278 C2274 1.427 . S
N2278 C2275 1.384 . S
N2279 C2271 1.427 . S
N2279 C2277 1.384 1_455 S
H2280 C2286 0.930 . S
H2281 C2290 0.930 . S
H2282 C2295 0.929 . S
H2283 C2293 0.929 . S
H2284 C2288 0.929 . S
H2285 C2294 0.929 . S
C2286 H2280 0.930 . S
C2286 C2287 1.367 . S
C2286 C2294 1.378 . S
C2287 C2286 1.367 . S
C2287 C2295 1.433 . S
C2288 H2284 0.929 . S
C2288 C2290 1.378 . S
C2288 C2292 1.350 . S
C2289 C2292 1.463 . S
C2289 C2294 1.350 . S
C2289 N2297 1.427 . S
C2290 H2281 0.930 . S
C2290 C2288 1.378 . S
C2290 C2291 1.367 . S
C2291 C2290 1.367 . S
C2291 C2293 1.433 . S
C2292 C2288 1.350 . S
C2292 C2289 1.463 . S
C2292 N2296 1.427 . S
C2293 H2283 0.929 . S
C2293 C2291 1.433 . S
C2293 N2296 1.384 . S
C2294 H2285 0.929 . S
C2294 C2286 1.378 . S
C2294 C2289 1.350 . S
C2295 H2282 0.929 . S
C2295 C2287 1.433 . S
C2295 N2297 1.384 . S
N2296 C2292 1.427 . S
N2296 C2293 1.384 . S
N2297 C2289 1.427 . S
N2297 C2295 1.384 . S
H2298 C2304 0.930 . S
H2299 C2308 0.930 . S
H2300 C2313 0.929 . S
H2301 C2311 0.929 . S
H2302 C2306 0.929 . S
H2303 C2312 0.929 . S
C2304 H2298 0.930 . S
C2304 C2305 1.367 . S
C2304 C2312 1.378 1_655 S
C2305 C2304 1.367 . S
C2305 C2313 1.433 . S
C2306 H2302 0.929 . S
C2306 C2308 1.378 . S
C2306 C2310 1.350 . S
C2307 C2310 1.463 . S
C2307 C2312 1.350 . S
C2307 N2315 1.427 . S
C2308 H2299 0.930 . S
C2308 C2306 1.378 . S
C2308 C2309 1.367 . S
C2309 C2308 1.367 . S
C2309 C2311 1.433 . S
C2310 C2306 1.350 . S
C2310 C2307 1.463 . S
C2310 N2314 1.427 . S
C2311 H2301 0.929 . S
C2311 C2309 1.433 . S
C2311 N2314 1.384 . S
C2312 H2303 0.929 . S
C2312 C2304 1.378 1_455 S
C2312 C2307 1.350 . S
C2313 H2300 0.929 . S
C2313 C2305 1.433 . S
C2313 N2315 1.384 1_655 S
N2314 C2310 1.427 . S
N2314 C2311 1.384 . S
N2315 C2307 1.427 . S
N2315 C2313 1.384 1_455 S
H2316 C2322 0.930 . S
H2317 C2326 0.930 . S
H2318 C2331 0.929 . S
H2319 C2329 0.929 . S
H2320 C2324 0.929 . S
H2321 C2330 0.929 . S
C2322 H2316 0.930 . S
C2322 C2323 1.367 . S
C2322 C2330 1.378 . S
C2323 C2322 1.367 . S
C2323 C2331 1.433 . S
C2324 H2320 0.929 . S
C2324 C2326 1.378 . S
C2324 C2328 1.350 . S
C2325 C2328 1.463 . S
C2325 C2330 1.350 . S
C2325 N2333 1.427 . S
C2326 H2317 0.930 . S
C2326 C2324 1.378 . S
C2326 C2327 1.367 . S
C2327 C2326 1.367 . S
C2327 C2329 1.433 . S
C2328 C2324 1.350 . S
C2328 C2325 1.463 . S
C2328 N2332 1.427 . S
C2329 H2319 0.929 . S
C2329 C2327 1.433 . S
C2329 N2332 1.384 . S
C2330 H2321 0.929 . S
C2330 C2322 1.378 . S
C2330 C2325 1.350 . S
C2331 H2318 0.929 . S
C2331 C2323 1.433 . S
C2331 N2333 1.384 . S
N2332 C2328 1.427 . S
N2332 C2329 1.384 . S
N2333 C2325 1.427 . S
N2333 C2331 1.384 . S
H2334 C2340 0.930 . S
H2335 C2344 0.930 . S
H2336 C2349 0.929 . S
H2337 C2347 0.929 . S
H2338 C2342 0.929 . S
H2339 C2348 0.929 . S
C2340 H2334 0.930 . S
C2340 C2341 1.367 . S
C2340 C2348 1.378 . S
C2341 C2340 1.367 . S
C2341 C2349 1.433 . S
C2342 H2338 0.929 . S
C2342 C2344 1.378 . S
C2342 C2346 1.350 . S
C2343 C2346 1.463 . S
C2343 C2348 1.350 . S
C2343 N2351 1.427 . S
C2344 H2335 0.930 . S
C2344 C2342 1.378 . S
C2344 C2345 1.367 . S
C2345 C2344 1.367 . S
C2345 C2347 1.433 . S
C2346 C2342 1.350 . S
C2346 C2343 1.463 . S
C2346 N2350 1.427 . S
C2347 H2337 0.929 . S
C2347 C2345 1.433 . S
C2347 N2350 1.384 . S
C2348 H2339 0.929 . S
C2348 C2340 1.378 . S
C2348 C2343 1.350 . S
C2349 H2336 0.929 . S
C2349 C2341 1.433 . S
C2349 N2351 1.384 . S
N2350 C2346 1.427 . S
N2350 C2347 1.384 . S
N2351 C2343 1.427 . S
N2351 C2349 1.384 . S
H2352 C2358 0.930 . S
H2353 C2362 0.930 . S
H2354 C2367 0.929 . S
H2355 C2365 0.929 . S
H2356 C2360 0.929 . S
H2357 C2366 0.929 . S
C2358 H2352 0.930 . S
C2358 C2359 1.367 . S
C2358 C2366 1.378 . S
C2359 C2358 1.367 . S
C2359 C2367 1.433 . S
C2360 H2356 0.929 . S
C2360 C2362 1.378 . S
C2360 C2364 1.350 . S
C2361 C2364 1.463 . S
C2361 C2366 1.350 . S
C2361 N2369 1.427 . S
C2362 H2353 0.930 . S
C2362 C2360 1.378 . S
C2362 C2363 1.367 . S
C2363 C2362 1.367 . S
C2363 C2365 1.433 . S
C2364 C2360 1.350 . S
C2364 C2361 1.463 . S
C2364 N2368 1.427 . S
C2365 H2355 0.929 . S
C2365 C2363 1.433 . S
C2365 N2368 1.384 . S
C2366 H2357 0.929 . S
C2366 C2358 1.378 . S
C2366 C2361 1.350 . S
C2367 H2354 0.929 . S
C2367 C2359 1.433 . S
C2367 N2369 1.384 . S
N2368 C2364 1.427 . S
N2368 C2365 1.384 . S
N2369 C2361 1.427 . S
N2369 C2367 1.384 . S
H2370 C2376 0.930 . S
H2371 C2380 0.930 . S
H2372 C2385 0.929 . S
H2373 C2383 0.929 . S
H2374 C2378 0.929 . S
H2375 C2384 0.929 . S
C2376 H2370 0.930 . S
C2376 C2377 1.367 . S
C2376 C2384 1.378 . S
C2377 C2376 1.367 . S
C2377 C2385 1.433 . S
C2378 H2374 0.929 . S
C2378 C2380 1.378 . S
C2378 C2382 1.350 . S
C2379 C2382 1.463 . S
C2379 C2384 1.350 . S
C2379 N2387 1.427 . S
C2380 H2371 0.930 . S
C2380 C2378 1.378 . S
C2380 C2381 1.367 . S
C2381 C2380 1.367 . S
C2381 C2383 1.433 . S
C2382 C2378 1.350 . S
C2382 C2379 1.463 . S
C2382 N2386 1.427 . S
C2383 H2373 0.929 . S
C2383 C2381 1.433 . S
C2383 N2386 1.384 . S
C2384 H2375 0.929 . S
C2384 C2376 1.378 . S
C2384 C2379 1.350 . S
C2385 H2372 0.929 . S
C2385 C2377 1.433 . S
C2385 N2387 1.384 . S
N2386 C2382 1.427 . S
N2386 C2383 1.384 . S
N2387 C2379 1.427 . S
N2387 C2385 1.384 . S
H2388 C2394 0.930 . S
H2389 C2398 0.930 . S
H2390 C2403 0.929 . S
H2391 C2401 0.929 . S
H2392 C2396 0.929 . S
H2393 C2402 0.929 . S
C2394 H2388 0.930 . S
C2394 C2395 1.367 . S
C2394 C2402 1.378 . S
C2395 C2394 1.367 . S
C2395 C2403 1.433 . S
C2396 H2392 0.929 . S
C2396 C2398 1.378 . S
C2396 C2400 1.350 . S
C2397 C2400 1.463 . S
C2397 C2402 1.350 . S
C2397 N2405 1.427 . S
C2398 H2389 0.930 . S
C2398 C2396 1.378 . S
C2398 C2399 1.367 . S
C2399 C2398 1.367 . S
C2399 C2401 1.433 . S
C2400 C2396 1.350 . S
C2400 C2397 1.463 . S
C2400 N2404 1.427 . S
C2401 H2391 0.929 . S
C2401 C2399 1.433 . S
C2401 N2404 1.384 . S
C2402 H2393 0.929 . S
C2402 C2394 1.378 . S
C2402 C2397 1.350 . S
C2403 H2390 0.929 . S
C2403 C2395 1.433 . S
C2403 N2405 1.384 . S
N2404 C2400 1.427 . S
N2404 C2401 1.384 . S
N2405 C2397 1.427 . S
N2405 C2403 1.384 . S
H2406 C2412 0.930 . S
H2407 C2416 0.930 . S
H2408 C2421 0.929 . S
H2409 C2419 0.929 . S
H2410 C2414 0.929 . S
H2411 C2420 0.929 . S
C2412 H2406 0.930 . S
C2412 C2413 1.367 . S
C2412 C2420 1.378 . S
C2413 C2412 1.367 . S
C2413 C2421 1.433 . S
C2414 H2410 0.929 . S
C2414 C2416 1.378 1_655 S
C2414 C2418 1.350 . S
C2415 C2418 1.463 . S
C2415 C2420 1.350 . S
C2415 N2423 1.427 . S
C2416 H2407 0.930 . S
C2416 C2414 1.378 1_455 S
C2416 C2417 1.367 . S
C2417 C2416 1.367 . S
C2417 C2419 1.433 . S
C2418 C2414 1.350 . S
C2418 C2415 1.463 . S
C2418 N2422 1.413 1_655 S
C2419 H2409 0.929 . S
C2419 C2417 1.433 . S
C2419 N2422 1.405 . S
C2420 H2411 0.929 . S
C2420 C2412 1.378 . S
C2420 C2415 1.350 . S
C2421 H2408 0.929 . S
C2421 C2413 1.433 . S
C2421 N2423 1.384 . S
N2422 C2418 1.413 1_455 S
N2422 C2419 1.405 . S
N2423 C2415 1.427 . S
N2423 C2421 1.384 . S
H2424 C2430 0.930 . S
H2425 C2434 0.930 . S
H2426 C2439 0.929 . S
H2427 C2437 0.929 . S
H2428 C2432 0.929 . S
H2429 C2438 0.929 . S
C2430 H2424 0.930 . S
C2430 C2431 1.367 . S
C2430 C2438 1.378 . S
C2431 C2430 1.367 . S
C2431 C2439 1.433 . S
C2432 H2428 0.929 . S
C2432 C2434 1.378 . S
C2432 C2436 1.350 . S
C2433 C2436 1.463 . S
C2433 C2438 1.350 . S
C2433 N2441 1.427 . S
C2434 H2425 0.930 . S
C2434 C2432 1.378 . S
C2434 C2435 1.367 . S
C2435 C2434 1.367 . S
C2435 C2437 1.433 . S
C2436 C2432 1.350 . S
C2436 C2433 1.463 . S
C2436 N2440 1.427 . S
C2437 H2427 0.929 . S
C2437 C2435 1.433 . S
C2437 N2440 1.384 . S
C2438 H2429 0.929 . S
C2438 C2430 1.378 . S
C2438 C2433 1.350 . S
C2439 H2426 0.929 . S
C2439 C2431 1.433 . S
C2439 N2441 1.384 . S
N2440 C2436 1.427 . S
N2440 C2437 1.384 . S
N2441 C2433 1.427 . S
N2441 C2439 1.384 . S
H2442 C2448 0.930 . S
H2443 C2452 0.930 . S
H2444 C2457 0.929 . S
H2445 C2455 0.929 . S
H2446 C2450 0.929 . S
H2447 C2456 0.929 . S
C2448 H2442 0.930 . S
C2448 C2449 1.367 . S
C2448 C2456 1.378 1_455 S
C2449 C2448 1.367 . S
C2449 C2457 1.433 . S
C2450 H2446 0.929 . S
C2450 C2452 1.378 . S
C2450 C2454 1.350 . S
C2451 C2454 1.463 . S
C2451 C2456 1.350 . S
C2451 N2459 1.410 1_655 S
C2452 H2443 0.930 . S
C2452 C2450 1.378 . S
C2452 C2453 1.367 . S
C2453 C2452 1.367 . S
C2453 C2455 1.433 . S
C2454 C2450 1.350 . S
C2454 C2451 1.463 . S
C2454 N2458 1.427 . S
C2455 H2445 0.929 . S
C2455 C2453 1.433 . S
C2455 N2458 1.384 . S
C2456 H2447 0.929 . S
C2456 C2448 1.378 1_655 S
C2456 C2451 1.350 . S
C2457 H2444 0.929 . S
C2457 C2449 1.433 . S
C2457 N2459 1.411 . S
N2458 C2454 1.427 . S
N2458 C2455 1.384 . S
N2459 C2451 1.410 1_455 S
N2459 C2457 1.411 . S
H2460 C2466 0.930 . S
H2461 C2470 0.930 . S
H2462 C2475 0.929 . S
H2463 C2473 0.929 . S
H2464 C2468 0.929 . S
H2465 C2474 0.929 . S
C2466 H2460 0.930 . S
C2466 C2467 1.367 . S
C2466 C2474 1.378 . S
C2467 C2466 1.367 . S
C2467 C2475 1.433 . S
C2468 H2464 0.929 . S
C2468 C2470 1.378 . S
C2468 C2472 1.350 . S
C2469 C2472 1.463 . S
C2469 C2474 1.350 . S
C2469 N2477 1.427 . S
C2470 H2461 0.930 . S
C2470 C2468 1.378 . S
C2470 C2471 1.367 . S
C2471 C2470 1.367 . S
C2471 C2473 1.433 . S
C2472 C2468 1.350 . S
C2472 C2469 1.463 . S
C2472 N2476 1.427 . S
C2473 H2463 0.929 . S
C2473 C2471 1.433 . S
C2473 N2476 1.384 . S
C2474 H2465 0.929 . S
C2474 C2466 1.378 . S
C2474 C2469 1.350 . S
C2475 H2462 0.929 . S
C2475 C2467 1.433 . S
C2475 N2477 1.384 . S
N2476 C2472 1.427 . S
N2476 C2473 1.384 . S
N2477 C2469 1.427 . S
N2477 C2475 1.384 . S
H2478 C2484 0.930 . S
H2479 C2488 0.930 . S
H2480 C2493 0.929 . S
H2481 C2491 0.929 . S
H2482 C2486 0.929 . S
H2483 C2492 0.929 . S
C2484 H2478 0.930 . S
C2484 C2485 1.367 . S
C2484 C2492 1.378 . S
C2485 C2484 1.367 . S
C2485 C2493 1.433 . S
C2486 H2482 0.929 . S
C2486 C2488 1.378 . S
C2486 C2490 1.350 . S
C2487 C2490 1.463 . S
C2487 C2492 1.350 . S
C2487 N2495 1.427 . S
C2488 H2479 0.930 . S
C2488 C2486 1.378 . S
C2488 C2489 1.367 . S
C2489 C2488 1.367 . S
C2489 C2491 1.433 . S
C2490 C2486 1.350 . S
C2490 C2487 1.463 . S
C2490 N2494 1.427 . S
C2491 H2481 0.929 . S
C2491 C2489 1.433 . S
C2491 N2494 1.384 . S
C2492 H2483 0.929 . S
C2492 C2484 1.378 . S
C2492 C2487 1.350 . S
C2493 H2480 0.929 . S
C2493 C2485 1.433 . S
C2493 N2495 1.384 . S
N2494 C2490 1.427 . S
N2494 C2491 1.384 . S
N2495 C2487 1.427 . S
N2495 C2493 1.384 . S
C1063 C239 1.353 1_554 S
C1067 C8 1.363 . S
C1081 C41 1.351 . S
C1085 C140 1.363 . S
C1099 C74 1.360 . S
C1103 C173 1.348 . S
C1117 C206 1.353 . S
C1121 C107 1.351 1_556 S
C1135 C272 1.350 . S
C1139 C503 1.363 1_556 S
C1153 C404 1.363 . S
C1157 C305 1.351 . S
C1171 C338 1.363 . S
C1175 C437 1.350 . S
C1189 C470 1.363 . S
C1193 C371 1.352 1_554 S
C1207 C767 1.362 . S
C1211 C536 1.349 . S
C1225 C668 1.351 . S
C1229 C569 1.353 1_556 S
C1243 C701 1.359 1_554 S
C1247 C602 1.348 . S
C1261 C734 1.360 . S
C1265 C635 1.359 . S
C1279 C1031 1.355 . S
C1283 C800 1.350 . S
C1297 C833 1.360 1_554 S
C1301 C932 1.359 . S
C1315 C965 1.357 1_556 S
C1319 C866 1.361 . S
C1333 C998 1.362 . S
C1337 C899 1.350 . S
C1351 C28 0.752 . S
C1355 C259 0.764 . S
C1369 C61 0.759 . S
C1373 C160 0.758 1_556 S
C1387 C94 0.764 1_554 S
C1391 C193 0.752 . S
C1405 C127 0.756 . S
C1409 C226 0.756 . S
C1423 C523 0.766 . S
C1427 C292 0.749 . S
C1441 C325 0.748 . S
C1445 C424 0.765 1_554 S
C1459 C457 0.750 . S
C1463 C358 0.765 1_556 S
C1477 C391 0.747 . S
C1481 C490 0.767 . S
C1495 C556 0.761 1_554 S
C1499 C787 0.756 . S
C1513 C688 0.767 . S
C1517 C589 0.747 . S
C1531 C721 0.753 . S
C1535 C622 0.763 . S
C1549 C655 0.766 . S
C1553 C754 0.747 1_556 S
C1567 C820 0.749 1_556 S
C1571 C1051 0.766 . S
C1585 C853 0.767 . S
C1589 C952 0.747 . S
C1603 C886 0.762 . S
C1607 C985 0.755 . S
C1621 C919 0.763 . S
C1625 C1018 0.749 1_554 S
C1639 N203 1.529 . S
C1643 N5 1.524 . S
C1657 N38 1.528 . S
C1661 N236 1.524 . S
C1675 N137 1.528 . S
C1679 N71 1.524 . S
C1693 N170 1.525 . S
C1697 N104 1.528 . S
C1711 N467 1.524 . S
C1715 N269 1.528 . S
C1729 N500 1.523 . S
C1733 N302 1.529 . S
C1747 N401 1.523 . S
C1751 N335 1.529 . S
C1765 N434 1.524 . S
C1769 N368 1.528 . S
C1783 N533 1.524 . S
C1787 N731 1.528 . S
C1801 N764 1.526 . S
C1805 N566 1.526 . S
C1819 N665 1.528 . S
C1823 N599 1.526 . S
C1837 N698 1.524 . S
C1841 N632 1.529 . S
C1855 N995 1.529 . S
C1859 N797 1.523 . S
C1873 N830 1.526 . S
C1877 N1028 1.526 . S
C1891 N929 1.523 . S
C1895 N863 1.529 . S
C1909 N962 1.524 . S
C1913 N896 1.527 . S
C1927 C17 1.692 . S
C1931 N905 1.608 . S
C1945 N278 1.609 . S
C1949 C50 1.693 . S
C1963 N839 1.611 . S
C1967 C83 1.692 . S
C1981 C116 1.693 . S
C1985 N344 1.620 . S
C1999 C149 1.692 . S
C2003 N971 1.614 . S
C2017 C182 1.694 . S
C2021 N476 1.612 . S
C2035 C215 1.694 . S
C2039 N1037 1.621 . S
C2053 N410 1.624 . S
C2057 C248 1.695 . S
C2071 N641 1.609 . S
C2075 C281 1.692 . S
C2089 C314 1.693 . S
C2093 N14 1.609 . S
C2107 C347 1.695 . S
C2111 N575 1.622 . S
C2125 N80 1.623 . S
C2129 C380 1.694 . S
C2143 N707 1.610 . S
C2147 C413 1.693 . S
C2161 C446 1.695 . S
C2165 N212 1.622 . S
C2179 C479 1.695 . S
C2183 N773 1.624 . S
C2197 N146 1.624 . S
C2201 C512 1.695 . S
C2215 N377 1.624 . S
C2219 C545 1.695 . S
C2233 N806 1.617 . S
C2237 C578 1.695 . S
C2251 C611 1.694 . S
C2255 N311 1.622 . S
C2269 C644 1.692 . S
C2273 N872 1.609 . S
C2287 N443 1.609 . S
C2291 C677 1.692 . S
C2305 C710 1.694 . S
C2309 N1004 1.622 . S
C2323 N509 1.610 . S
C2327 C743 1.692 . S
C2341 N938 1.611 . S
C2345 C776 1.693 . S
C2359 N113 1.609 . S
C2363 C809 1.692 . S
C2377 C842 1.694 . S
C2381 N542 1.623 . S
C2395 N47 1.612 . S
C2399 C875 1.694 . S
C2413 N608 1.620 . S
C2417 C908 1.695 . S
C2431 N179 1.610 . S
C2435 C941 1.692 . S
C2449 C974 1.695 . S
C2453 N740 1.620 . S
C2467 C1007 1.695 . S
C2471 N245 1.620 . S
C2485 C1040 1.695 . S
C2489 N674 1.623 . S
