# Generated by pormake.
# Topology lcv, (4)-cn, num edge types: 1
# Building blocks:
#     Node 0, Type 0, BuildingBlock: ESEHIV_clean_sbu_0, # of connection points: 4
#     Node 1, Type 0, BuildingBlock: ESEHIV_clean_sbu_0, # of connection points: 4
#     Node 2, Type 0, BuildingBlock: ESEHIV_clean_sbu_0, # of connection points: 4
#     Node 3, Type 0, BuildingBlock: ESEHIV_clean_sbu_0, # of connection points: 4
#     Node 4, Type 0, BuildingBlock: ESEHIV_clean_sbu_0, # of connection points: 4
#     Node 5, Type 0, BuildingBlock: ESEHIV_clean_sbu_0, # of connection points: 4
#     Node 6, Type 0, BuildingBlock: ESEHIV_clean_sbu_0, # of connection points: 4
#     Node 7, Type 0, BuildingBlock: ESEHIV_clean_sbu_0, # of connection points: 4
#     Node 8, Type 0, BuildingBlock: ESEHIV_clean_sbu_0, # of connection points: 4
#     Node 9, Type 0, BuildingBlock: ESEHIV_clean_sbu_0, # of connection points: 4
#     Node 10, Type 0, BuildingBlock: ESEHIV_clean_sbu_0, # of connection points: 4
#     Node 11, Type 0, BuildingBlock: ESEHIV_clean_sbu_0, # of connection points: 4
#     Edge 12, Type (0, 0), BuildingBlock: AJUNOK_clean_linker_0, # of connection points: 2
#     Edge 13, Type (0, 0), BuildingBlock: AJUNOK_clean_linker_0, # of connection points: 2
#     Edge 14, Type (0, 0), BuildingBlock: AJUNOK_clean_linker_0, # of connection points: 2
#     Edge 15, Type (0, 0), BuildingBlock: AJUNOK_clean_linker_0, # of connection points: 2
#     Edge 16, Type (0, 0), BuildingBlock: AJUNOK_clean_linker_0, # of connection points: 2
#     Edge 17, Type (0, 0), BuildingBlock: AJUNOK_clean_linker_0, # of connection points: 2
#     Edge 18, Type (0, 0), BuildingBlock: AJUNOK_clean_linker_0, # of connection points: 2
#     Edge 19, Type (0, 0), BuildingBlock: AJUNOK_clean_linker_0, # of connection points: 2
#     Edge 20, Type (0, 0), BuildingBlock: AJUNOK_clean_linker_0, # of connection points: 2
#     Edge 21, Type (0, 0), BuildingBlock: AJUNOK_clean_linker_0, # of connection points: 2
#     Edge 22, Type (0, 0), BuildingBlock: AJUNOK_clean_linker_0, # of connection points: 2
#     Edge 23, Type (0, 0), BuildingBlock: AJUNOK_clean_linker_0, # of connection points: 2
#     Edge 24, Type (0, 0), BuildingBlock: AJUNOK_clean_linker_0, # of connection points: 2
#     Edge 25, Type (0, 0), BuildingBlock: AJUNOK_clean_linker_0, # of connection points: 2
#     Edge 26, Type (0, 0), BuildingBlock: AJUNOK_clean_linker_0, # of connection points: 2
#     Edge 27, Type (0, 0), BuildingBlock: AJUNOK_clean_linker_0, # of connection points: 2
#     Edge 28, Type (0, 0), BuildingBlock: AJUNOK_clean_linker_0, # of connection points: 2
#     Edge 29, Type (0, 0), BuildingBlock: AJUNOK_clean_linker_0, # of connection points: 2
#     Edge 30, Type (0, 0), BuildingBlock: AJUNOK_clean_linker_0, # of connection points: 2
#     Edge 31, Type (0, 0), BuildingBlock: AJUNOK_clean_linker_0, # of connection points: 2
#     Edge 32, Type (0, 0), BuildingBlock: AJUNOK_clean_linker_0, # of connection points: 2
#     Edge 33, Type (0, 0), BuildingBlock: AJUNOK_clean_linker_0, # of connection points: 2
#     Edge 34, Type (0, 0), BuildingBlock: AJUNOK_clean_linker_0, # of connection points: 2
#     Edge 35, Type (0, 0), BuildingBlock: AJUNOK_clean_linker_0, # of connection points: 2
# Relax obj value: 0.164
# Max RMSD: 0.314
# Mean RMSD: 0.279
data_MOF--net-lcv--node1-ESEHIV_clean_sbu_0--edge1-AJUNOK_clean_linker_0
_symmetry_space_group_name_H-M    P1
_symmetry_Int_Tables_number       1
_symmetry_cell_setting            triclinic
loop_
_symmetry_equiv_pos_as_xyz
'x, y, z'
_cell_length_a     37.933005
_cell_length_b     36.905272
_cell_length_c     37.458458
_cell_angle_alpha  97.287684
_cell_angle_beta   89.704667
_cell_angle_gamma 104.71399
loop_
_atom_site_label
_atom_site_type_symbol
_atom_site_fract_x
_atom_site_fract_y
_atom_site_fract_z
_atom_type_partial_charge
Cu0 Cu 0.0632 0.24983 0.17491 0.0
N1 N 0.0622 0.21049 0.20165 0.0
N2 N 0.0853 0.17353 0.23263 0.0
C3 C 0.09042 0.19542 0.20581 0.0
C4 C 0.05225 0.17479 0.24561 0.0
C5 C 0.03805 0.19758 0.22638 0.0
O6 O 0.10225 0.25281 0.14149 0.0
C7 C 0.08128 0.30294 0.23871 0.0
O8 O 0.09504 0.27757 0.2511 0.0
H9 H 0.11512 0.20218 0.19074 0.0
H10 H 0.01326 0.20644 0.23183 0.0
N11 N 0.02095 0.24229 0.14736 0.0
N12 N 0.98231 0.25948 0.11241 0.0
C13 C 0.00861 0.271 0.13841 0.0
C14 C 0.00146 0.21115 0.12679 0.0
C15 C 0.97717 0.22169 0.10535 0.0
C16 C 0.13537 0.26994 0.14891 0.0
O17 O 0.14455 0.28798 0.18138 0.0
H18 H 0.01965 0.30002 0.15016 0.0
H19 H 0.00593 0.18327 0.12607 0.0
O20 O 0.06819 0.29665 0.20668 0.0
H21 H 0.04031 0.16267 0.26906 0.0
H22 H 0.95852 0.20336 0.08498 0.0
Cu23 Cu 0.16883 0.8018 0.44335 0.0
N24 N 0.16025 0.82227 0.40238 0.0
N25 N 0.17202 0.85465 0.3554 0.0
C26 C 0.1861 0.84413 0.3842 0.0
C27 C 0.13575 0.83912 0.35572 0.0
C28 C 0.12858 0.81882 0.38466 0.0
O29 O 0.22026 0.82105 0.45485 0.0
C30 C 0.15605 0.72855 0.4043 0.0
O31 O 0.17553 0.74613 0.37958 0.0
H32 H 0.21457 0.85311 0.39266 0.0
H33 H 0.10221 0.803 0.39244 0.0
N34 N 0.14387 0.81919 0.48199 0.0
N35 N 0.10382 0.82069 0.52575 0.0
C36 C 0.11212 0.8011 0.49526 0.0
C37 C 0.15621 0.85111 0.50483 0.0
C38 C 0.13166 0.85208 0.53191 0.0
C39 C 0.2356 0.81865 0.4842 0.0
O40 O 0.21724 0.79747 0.50718 0.0
H41 H 0.09574 0.77391 0.48305 0.0
H42 H 0.18194 0.87155 0.50259 0.0
O43 O 0.15214 0.74731 0.4343 0.0
H44 H 0.11587 0.84247 0.3366 0.0
H45 H 0.13493 0.87351 0.55507 0.0
Cu46 Cu 0.67756 0.86335 0.71716 0.0
N47 N 0.66604 0.83647 0.75603 0.0
N48 N 0.67443 0.8105 0.80479 0.0
C49 C 0.69043 0.83234 0.78002 0.0
C50 C 0.63854 0.80009 0.79578 0.0
C51 C 0.63338 0.8165 0.76573 0.0
O52 O 0.72675 0.86344 0.70384 0.0
C53 C 0.67829 0.93393 0.75933 0.0
O54 O 0.69725 0.92382 0.78378 0.0
H55 H 0.71955 0.84389 0.77837 0.0
H56 H 0.60785 0.81347 0.75149 0.0
N57 N 0.64682 0.84077 0.67771 0.0
N58 N 0.61277 0.84005 0.62914 0.0
C59 C 0.62578 0.85852 0.66164 0.0
C60 C 0.64663 0.80937 0.65503 0.0
C61 C 0.62528 0.80869 0.62503 0.0
C62 C 0.73836 0.87076 0.67302 0.0
O63 O 0.71791 0.88286 0.65148 0.0
H64 H 0.6214 0.88533 0.67305 0.0
H65 H 0.66274 0.78978 0.65895 0.0
O66 O 0.67025 0.91322 0.72927 0.0
H67 H 0.61772 0.78146 0.80955 0.0
H68 H 0.62108 0.788 0.6012 0.0
Cu69 Cu 0.60728 0.38617 0.9607 0.0
N70 N 0.6154 0.42682 0.93422 0.0
N71 N 0.64312 0.47997 0.91234 0.0
C72 C 0.64728 0.45236 0.93108 0.0
C73 C 0.60728 0.47153 0.90345 0.0
C74 C 0.59027 0.43853 0.91679 0.0
O75 O 0.64851 0.39323 0.99357 0.0
C76 C 0.61845 0.33416 0.90102 0.0
O77 O 0.64701 0.36099 0.89456 0.0
H78 H 0.67263 0.45174 0.94383 0.0
H79 H 0.56143 0.42468 0.91499 0.0
N80 N 0.56483 0.38352 0.98653 0.0
N81 N 0.51026 0.35906 0.00822 0.0
C82 C 0.53974 0.35164 0.99155 0.0
C83 C 0.55079 0.41211 0.00039 0.0
C84 C 0.517 0.39707 0.01369 0.0
C85 C 0.65653 0.42241 0.01704 0.0
O86 O 0.63591 0.44625 0.01876 0.0
H87 H 0.54214 0.32362 0.98126 0.0
H88 H 0.56357 0.44172 0.99953 0.0
O89 O 0.59953 0.33948 0.92835 0.0
H90 H 0.59425 0.48853 0.88911 0.0
H91 H 0.49832 0.41278 0.02543 0.0
Cu92 Cu 0.26966 0.05438 0.27913 0.0
N93 N 0.23843 0.08446 0.29454 0.0
N94 N 0.19368 0.1134 0.29278 0.0
C95 C 0.22053 0.10219 0.2744 0.0
C96 C 0.19495 0.10289 0.32581 0.0
C97 C 0.22268 0.08508 0.32682 0.0
O98 O 0.28629 0.06273 0.23119 0.0
C99 C 0.255 0.97437 0.28119 0.0
O100 O 0.28931 0.97762 0.27313 0.0
H101 H 0.22522 0.10449 0.24618 0.0
H102 H 0.22933 0.07124 0.34871 0.0
N103 N 0.31092 0.06732 0.30936 0.0
N104 N 0.35461 0.06352 0.34735 0.0
C105 C 0.32057 0.04733 0.3336 0.0
C106 C 0.33947 0.09736 0.3081 0.0
C107 C 0.36641 0.0952 0.33161 0.0
C108 C 0.26574 0.05699 0.20331 0.0
O109 O 0.23052 0.04252 0.20571 0.0
H110 H 0.3031 0.02135 0.34071 0.0
H111 H 0.34099 0.11863 0.29037 0.0
O112 O 0.24222 0.00316 0.28263 0.0
H113 H 0.17616 0.10638 0.34704 0.0
H114 H 0.39315 0.11465 0.33577 0.0
Cu115 Cu 0.45069 0.95131 0.52597 0.0
N116 N 0.45519 0.98172 0.48925 0.0
N117 N 0.44063 0.01143 0.44539 0.0
C118 C 0.42948 0.98246 0.46489 0.0
C119 C 0.47472 0.0294 0.45778 0.0
C120 C 0.48369 0.01087 0.48472 0.0
O121 O 0.40238 0.91731 0.5249 0.0
C122 C 0.45606 0.01494 0.57969 0.0
O123 O 0.43692 0.0269 0.55677 0.0
H124 H 0.40249 0.96345 0.4628 0.0
H125 H 0.50859 0.01902 0.501 0.0
N126 N 0.48327 0.9213 0.51945 0.0
N127 N 0.52396 0.89094 0.53368 0.0
C128 C 0.50775 0.91891 0.54422 0.0
C129 C 0.48384 0.89387 0.49227 0.0
C130 C 0.50893 0.87488 0.50109 0.0
C131 C 0.37318 0.92813 0.5249 0.0
O132 O 0.37498 0.96438 0.52745 0.0
H133 H 0.51197 0.93583 0.57039 0.0
H134 H 0.4661 0.88713 0.46853 0.0
O135 O 0.46309 0.98298 0.57192 0.0
H136 H 0.49153 0.05473 0.44868 0.0
H137 H 0.51495 0.8506 0.48532 0.0
Cu138 Cu 0.53748 0.11535 0.78724 0.0
N139 N 0.57282 0.0937 0.80275 0.0
N140 N 0.60986 0.05534 0.8017 0.0
C141 C 0.58921 0.07078 0.78198 0.0
C142 C 0.60692 0.06994 0.83618 0.0
C143 C 0.58388 0.09351 0.83675 0.0
O144 O 0.53184 0.10333 0.73538 0.0
C145 C 0.58194 0.1895 0.80857 0.0
O146 O 0.60889 0.17561 0.79609 0.0
H147 H 0.58531 0.06503 0.75304 0.0
H148 H 0.5746 0.10821 0.86032 0.0
N149 N 0.49354 0.09272 0.80678 0.0
N150 N 0.44391 0.08476 0.84007 0.0
C151 C 0.47651 0.10796 0.834 0.0
C152 C 0.47112 0.05877 0.79512 0.0
C153 C 0.44034 0.05381 0.81554 0.0
C154 C 0.50316 0.10454 0.71866 0.0
O155 O 0.47916 0.11962 0.73616 0.0
H156 H 0.48768 0.13566 0.84881 0.0
H157 H 0.47637 0.03954 0.77265 0.0
O158 O 0.5495 0.16876 0.8049 0.0
H159 H 0.61902 0.06257 0.85944 0.0
H160 H 0.41666 0.02995 0.8116 0.0
Cu161 Cu 0.32116 0.18484 0.03185 0.0
N162 N 0.32131 0.15087 0.99092 0.0
N163 N 0.34201 0.12031 0.94361 0.0
C164 C 0.34971 0.1503 0.96946 0.0
C165 C 0.30733 0.1014 0.9488 0.0
C166 C 0.29461 0.12039 0.97815 0.0
O167 O 0.36784 0.22228 0.03704 0.0
C168 C 0.32536 0.13282 0.08138 0.0
O169 O 0.35305 0.12613 0.06288 0.0
H170 H 0.3759 0.1708 0.97343 0.0
H171 H 0.26804 0.11228 0.98978 0.0
N172 N 0.28406 0.20882 0.02845 0.0
N173 N 0.24071 0.23723 0.04697 0.0
C174 C 0.26887 0.2243 0.05691 0.0
C175 C 0.26488 0.21178 0.99934 0.0
C176 C 0.23791 0.22926 0.01075 0.0
C177 C 0.37334 0.2488 0.01738 0.0
O178 O 0.34721 0.25012 0.9951 0.0
H179 H 0.27701 0.22396 0.08449 0.0
H180 H 0.26946 0.20094 0.97198 0.0
O181 O 0.30991 0.15739 0.07284 0.0
H182 H 0.29231 0.07579 0.93258 0.0
H183 H 0.21718 0.23462 0.9939 0.0
Cu184 Cu 0.86629 0.44443 0.10009 0.0
N185 N 0.8886 0.49185 0.08721 0.0
N186 N 0.89887 0.54422 0.06041 0.0
C187 C 0.8812 0.50716 0.0583 0.0
C188 C 0.91804 0.5522 0.09198 0.0
C189 C 0.91197 0.51987 0.10815 0.0
O190 O 0.81388 0.43304 0.09294 0.0
C191 C 0.87842 0.46647 0.1758 0.0
O192 O 0.8571 0.48897 0.17264 0.0
H193 H 0.86222 0.49165 0.03687 0.0
H194 H 0.92252 0.5175 0.13425 0.0
N195 N 0.88194 0.40701 0.07158 0.0
N196 N 0.90795 0.35918 0.06031 0.0
C197 C 0.90865 0.39195 0.0811 0.0
C198 C 0.86374 0.38307 0.04369 0.0
C199 C 0.87968 0.35327 0.03678 0.0
C200 C 0.79589 0.45794 0.09528 0.0
O201 O 0.81256 0.49317 0.10705 0.0
H202 H 0.92591 0.40282 0.10501 0.0
H203 H 0.83887 0.38551 0.03131 0.0
O204 O 0.88264 0.44365 0.14873 0.0
H205 H 0.93359 0.57979 0.10395 0.0
H206 H 0.86995 0.32817 0.01758 0.0
Cu207 Cu 0.00877 0.51056 0.36785 0.0
N208 N 0.03657 0.47537 0.36244 0.0
N209 N 0.06013 0.42902 0.33717 0.0
C210 C 0.03252 0.44588 0.33638 0.0
C211 C 0.08184 0.44799 0.36547 0.0
C212 C 0.06729 0.47673 0.38093 0.0
O213 O 0.97641 0.50461 0.32653 0.0
C214 C 0.07061 0.57347 0.36297 0.0
O215 O 0.08234 0.55116 0.33818 0.0
H216 H 0.01003 0.43734 0.31692 0.0
H217 H 0.07899 0.49804 0.40317 0.0
N218 N 0.97874 0.50395 0.40687 0.0
N219 N 0.94306 0.52248 0.44913 0.0
C220 C 0.97318 0.53287 0.42976 0.0
C221 C 0.95149 0.47386 0.41201 0.0
C222 C 0.9294 0.4852 0.43824 0.0
C223 C 0.98561 0.50088 0.29392 0.0
O224 O 0.01978 0.50233 0.28646 0.0
H225 H 0.98943 0.56162 0.43016 0.0
H226 H 0.94622 0.44662 0.39562 0.0
O227 O 0.04002 0.56137 0.37707 0.0
H228 H 0.10716 0.44245 0.37345 0.0
H229 H 0.90366 0.46813 0.44618 0.0
Cu230 Cu 0.90419 0.7216 0.60878 0.0
N231 N 0.88402 0.67963 0.57587 0.0
N232 N 0.88187 0.62773 0.53771 0.0
C233 C 0.90259 0.66165 0.55225 0.0
C234 C 0.84889 0.62422 0.55248 0.0
C235 C 0.85031 0.65646 0.57614 0.0
O236 O 0.95579 0.73783 0.59943 0.0
C237 C 0.89723 0.72516 0.68572 0.0
O238 O 0.91366 0.76132 0.68794 0.0
H239 H 0.93143 0.67198 0.54772 0.0
H240 H 0.82905 0.66169 0.59388 0.0
N241 N 0.88247 0.76034 0.60259 0.0
N242 N 0.85049 0.80344 0.6132 0.0
C243 C 0.85873 0.7731 0.62433 0.0
C244 C 0.88914 0.78294 0.57652 0.0
C245 C 0.86932 0.80953 0.58293 0.0
C246 C 0.97391 0.77206 0.60693 0.0
O247 O 0.95868 0.79603 0.62607 0.0
H248 H 0.84741 0.76002 0.64754 0.0
H249 H 0.90763 0.78059 0.55478 0.0
O250 O 0.89319 0.70485 0.65531 0.0
H251 H 0.82595 0.59967 0.54744 0.0
H252 H 0.86912 0.83189 0.56688 0.0
Cu253 Cu 0.8166 0.67072 0.88795 0.0
N254 N 0.79511 0.71036 0.90006 0.0
N255 N 0.76009 0.74926 0.8932 0.0
C256 C 0.76988 0.71793 0.87926 0.0
C257 C 0.7799 0.76198 0.92417 0.0
C258 C 0.80157 0.73773 0.92839 0.0
O259 O 0.84107 0.67957 0.8433 0.0
C260 C 0.7519 0.61946 0.90397 0.0
O261 O 0.74843 0.64863 0.92641 0.0
H262 H 0.75977 0.70139 0.85371 0.0
H263 H 0.821 0.74016 0.95015 0.0
N264 N 0.85159 0.6699 0.92193 0.0
N265 N 0.87901 0.64688 0.9632 0.0
C266 C 0.84686 0.64854 0.94894 0.0
C267 C 0.88779 0.68251 0.91895 0.0
C268 C 0.9048 0.66828 0.94422 0.0
C269 C 0.82599 0.66717 0.81246 0.0
O270 O 0.79255 0.64545 0.81011 0.0
H271 H 0.82034 0.63273 0.95637 0.0
H272 H 0.90082 0.69827 0.89791 0.0
O273 O 0.77954 0.62289 0.88402 0.0
H274 H 0.77896 0.787 0.94227 0.0
H275 H 0.9338 0.67096 0.94604 0.0
C276 C 0.14964 0.17475 0.24534 0.0
C277 C 0.11208 0.15756 0.24763 0.0
C278 C 0.17615 0.1601 0.26006 0.0
C279 C 0.16613 0.12822 0.27821 0.0
H280 H 0.15878 0.20007 0.23257 0.0
H281 H 0.2047 0.17406 0.25775 0.0
S282 S 0.07233 0.07062 0.28925 0.0
N283 N 0.06674 0.10501 0.26739 0.0
N284 N 0.11675 0.0785 0.29615 0.0
C285 C 0.12895 0.1105 0.28054 0.0
C286 C 0.10189 0.12495 0.26503 0.0
C287 C 0.31202 0.90834 0.49428 0.0
C288 C 0.33799 0.89998 0.51627 0.0
C289 C 0.27943 0.88143 0.48348 0.0
C290 C 0.27116 0.8454 0.49495 0.0
H291 H 0.31725 0.93562 0.48461 0.0
H292 H 0.26029 0.8892 0.46642 0.0
S293 S 0.32977 0.80977 0.55341 0.0
N294 N 0.35348 0.85316 0.54917 0.0
N295 N 0.29137 0.80292 0.52991 0.0
C296 C 0.29661 0.83683 0.51742 0.0
C297 C 0.33028 0.864 0.52775 0.0
C298 C 0.65996 0.02441 0.80683 0.0
C299 C 0.62775 0.0261 0.78937 0.0
C300 C 0.67669 0.99499 0.79654 0.0
C301 C 0.66195 0.96633 0.76821 0.0
H302 H 0.67222 0.04592 0.82875 0.0
H303 H 0.70121 0.99459 0.81102 0.0
S304 S 0.57666 0.95635 0.71524 0.0
N305 N 0.58076 0.99533 0.74356 0.0
N306 N 0.61257 0.94096 0.72354 0.0
C307 C 0.62987 0.96788 0.75035 0.0
C308 C 0.61268 0.99752 0.76107 0.0
C309 C 0.44317 0.33954 0.00459 0.0
C310 C 0.4764 0.33218 0.01343 0.0
C311 C 0.41002 0.31258 0.00664 0.0
C312 C 0.40874 0.27743 0.01819 0.0
H313 H 0.44291 0.36586 0.99483 0.0
H314 H 0.3852 0.31926 0.99876 0.0
S315 S 0.48814 0.24533 0.04648 0.0
N316 N 0.5061 0.288 0.03551 0.0
N317 N 0.44365 0.23729 0.03983 0.0
C318 C 0.44171 0.27018 0.02825 0.0
C319 C 0.47557 0.29752 0.02566 0.0
C320 C 0.19622 0.93809 0.30417 0.0
C321 C 0.23267 0.9399 0.29487 0.0
C322 C 0.17597 0.90913 0.32241 0.0
C323 C 0.19135 0.88091 0.33224 0.0
H324 H 0.18352 0.96003 0.29857 0.0
H325 H 0.14869 0.90993 0.33045 0.0
S326 S 0.28331 0.86888 0.30952 0.0
N327 N 0.28174 0.90814 0.2935 0.0
N328 N 0.24339 0.85369 0.32771 0.0
C329 C 0.22682 0.88087 0.32119 0.0
C330 C 0.2475 0.9103 0.30245 0.0
C331 C 0.54354 0.83952 0.55744 0.0
C332 C 0.54857 0.87824 0.55516 0.0
C333 C 0.56515 0.8271 0.58113 0.0
C334 C 0.59252 0.85301 0.60318 0.0
H335 H 0.52189 0.81885 0.54181 0.0
H336 H 0.55966 0.79717 0.58307 0.0
S337 S 0.61997 0.95705 0.60284 0.0
N338 N 0.58493 0.94201 0.57407 0.0
N339 N 0.6262 0.9189 0.61784 0.0
C340 C 0.59896 0.89169 0.59965 0.0
C341 C 0.5768 0.90424 0.57583 0.0
C342 C 0.63338 0.28721 0.85265 0.0
C343 C 0.608 0.29794 0.87656 0.0
C344 C 0.62449 0.25248 0.83024 0.0
C345 C 0.58969 0.22733 0.83042 0.0
H346 H 0.66063 0.30538 0.85173 0.0
H347 H 0.64524 0.24519 0.81287 0.0
S348 S 0.51256 0.24298 0.88672 0.0
N349 N 0.54603 0.28116 0.8981 0.0
N350 N 0.52924 0.21634 0.85587 0.0
C351 C 0.56369 0.23823 0.85351 0.0
C352 C 0.57287 0.27336 0.87661 0.0
C353 C 0.17768 0.23733 0.06276 0.0
C354 C 0.21524 0.25009 0.07077 0.0
C355 C 0.1522 0.24511 0.08777 0.0
C356 C 0.16328 0.26605 0.1218 0.0
H357 H 0.16784 0.2197 0.03766 0.0
H358 H 0.12355 0.23352 0.08065 0.0
S359 S 0.25891 0.31025 0.15366 0.0
N360 N 0.26255 0.2879 0.11328 0.0
N361 N 0.21474 0.30242 0.16064 0.0
C362 C 0.20089 0.28075 0.12932 0.0
C363 C 0.22683 0.27275 0.10375 0.0
C364 C 0.25893 0.0869 0.14852 0.0
C365 C 0.28078 0.07249 0.17028 0.0
C366 C 0.27365 0.10609 0.11973 0.0
C367 C 0.31062 0.11096 0.1111 0.0
H368 H 0.23056 0.08466 0.15459 0.0
H369 H 0.25589 0.11741 0.10424 0.0
S370 S 0.37875 0.07618 0.15825 0.0
N371 N 0.34087 0.06297 0.18045 0.0
N372 N 0.36831 0.09822 0.12567 0.0
C373 C 0.33243 0.09538 0.13175 0.0
C374 C 0.31758 0.07641 0.16153 0.0
C375 C 0.42152 0.06249 0.42061 0.0
C376 C 0.41889 0.02376 0.42034 0.0
C377 C 0.40012 0.07511 0.39702 0.0
C378 C 0.3753 0.04953 0.37215 0.0
H379 H 0.43986 0.08317 0.43964 0.0
H380 H 0.40278 0.10517 0.39846 0.0
S381 S 0.36027 0.94527 0.3588 0.0
N382 N 0.39084 0.95999 0.39217 0.0
N383 N 0.35083 0.98364 0.34744 0.0
C384 C 0.37267 0.01069 0.37134 0.0
C385 C 0.39442 0.99784 0.39551 0.0
C386 C 0.46382 0.08801 0.66241 0.0
C387 C 0.49401 0.08392 0.68177 0.0
C388 C 0.45215 0.0661 0.62916 0.0
C389 C 0.46984 0.03877 0.61418 0.0
H390 H 0.44864 0.10793 0.67324 0.0
H391 H 0.4285 0.06998 0.61556 0.0
S392 S 0.55181 0.01853 0.65248 0.0
N393 N 0.54263 0.05166 0.68223 0.0
N394 N 0.52039 0.01032 0.6201 0.0
C395 C 0.50062 0.035 0.63271 0.0
C396 C 0.51282 0.05763 0.66635 0.0
C397 C 0.41458 0.13012 0.87452 0.0
C398 C 0.41764 0.09283 0.86578 0.0
C399 C 0.38958 0.13878 0.89972 0.0
C400 C 0.36652 0.11046 0.91692 0.0
H401 H 0.43141 0.15279 0.86156 0.0
H402 H 0.38804 0.16782 0.90565 0.0
S403 S 0.36559 0.009 0.9059 0.0
N404 N 0.39681 0.02773 0.878 0.0
N405 N 0.34942 0.04407 0.92499 0.0
C406 C 0.36932 0.07313 0.90865 0.0
C407 C 0.39498 0.06429 0.88316 0.0
C408 C 0.74492 0.41311 0.05768 0.0
C409 C 0.75837 0.44811 0.07923 0.0
C410 C 0.71161 0.40472 0.03847 0.0
C411 C 0.69016 0.43086 0.04012 0.0
H412 H 0.76077 0.39233 0.05455 0.0
H413 H 0.70307 0.37778 0.02157 0.0
S414 S 0.71132 0.52523 0.09536 0.0
N415 N 0.74635 0.50812 0.10302 0.0
N416 N 0.68373 0.49239 0.06715 0.0
C417 C 0.70248 0.46534 0.06284 0.0
C418 C 0.73655 0.47395 0.0823 0.0
C419 C 0.081 0.37079 0.32393 0.0
C420 C 0.06644 0.39865 0.3119 0.0
C421 C 0.08651 0.34045 0.29995 0.0
C422 C 0.07779 0.33689 0.26294 0.0
H423 H 0.08742 0.37203 0.35226 0.0
H424 H 0.09703 0.31928 0.31074 0.0
S425 S 0.04249 0.40484 0.21731 0.0
N426 N 0.04613 0.42256 0.26025 0.0
N427 N 0.05601 0.36551 0.21515 0.0
C428 C 0.06425 0.36533 0.2504 0.0
C429 C 0.05864 0.39617 0.27488 0.0
C430 C 0.02635 0.75928 0.57094 0.0
C431 C 0.00916 0.78557 0.58925 0.0
C432 C 0.05742 0.77097 0.55069 0.0
C433 C 0.0726 0.80942 0.54782 0.0
H434 H 0.01541 0.72928 0.57175 0.0
H435 H 0.06962 0.74967 0.5371 0.0
S436 S 0.03785 0.88971 0.58988 0.0
N437 N 0.00996 0.85206 0.6032 0.0
N438 N 0.06778 0.87376 0.56456 0.0
C439 C 0.05604 0.83607 0.56633 0.0
C440 C 0.02451 0.82422 0.58717 0.0
C441 C 0.12207 0.62935 0.35409 0.0
C442 C 0.09295 0.61245 0.37489 0.0
C443 C 0.14279 0.66656 0.36421 0.0
C444 C 0.13555 0.68828 0.39577 0.0
H445 H 0.12854 0.61401 0.32937 0.0
H446 H 0.16445 0.67849 0.34688 0.0
S447 S 0.06344 0.65652 0.46083 0.0
N448 N 0.05881 0.61992 0.42938 0.0
N449 N 0.09774 0.6895 0.44846 0.0
C450 C 0.10709 0.67135 0.41736 0.0
C451 C 0.08579 0.6336 0.40689 0.0
C452 C 0.68814 0.583 0.91245 0.0
C453 C 0.72413 0.58303 0.90314 0.0
C454 C 0.66157 0.54916 0.91429 0.0
C455 C 0.67017 0.51412 0.9076 0.0
H456 H 0.68043 0.60939 0.91862 0.0
H457 H 0.63436 0.55045 0.92214 0.0
S458 S 0.76001 0.49846 0.88137 0.0
N459 N 0.76672 0.54486 0.88617 0.0
N460 N 0.71673 0.4812 0.89028 0.0
C461 C 0.70586 0.51361 0.8978 0.0
C462 C 0.73284 0.54808 0.89532 0.0
C463 C 0.68286 0.75837 0.83603 0.0
C464 C 0.69292 0.79683 0.83156 0.0
C465 C 0.7041 0.74336 0.85768 0.0
C466 C 0.73581 0.76636 0.87598 0.0
H467 H 0.65956 0.73942 0.82118 0.0
H468 H 0.69636 0.71329 0.85928 0.0
S469 S 0.77163 0.86962 0.87599 0.0
N470 N 0.73479 0.85821 0.84944 0.0
N471 N 0.7749 0.8299 0.89002 0.0
C472 C 0.74497 0.80524 0.87338 0.0
C473 C 0.72349 0.82048 0.85112 0.0
C474 C 0.9275 0.27088 0.08534 0.0
C475 C 0.96484 0.28317 0.09494 0.0
C476 C 0.90922 0.29525 0.07204 0.0
C477 C 0.92776 0.33262 0.06805 0.0
H478 H 0.91202 0.24289 0.08967 0.0
H479 H 0.88011 0.28549 0.06661 0.0
S480 S 0.02649 0.37652 0.08343 0.0
N481 N 0.02055 0.3336 0.09472 0.0
N482 N 0.98576 0.37949 0.07089 0.0
C483 C 0.96534 0.34449 0.07557 0.0
C484 C 0.98402 0.31974 0.08871 0.0
C485 C 0.80314 0.83746 0.60706 0.0
C486 C 0.82542 0.82389 0.62913 0.0
C487 C 0.77631 0.85445 0.62171 0.0
C488 C 0.77069 0.85849 0.65904 0.0
H489 H 0.80544 0.83351 0.57809 0.0
H490 H 0.75886 0.86297 0.60339 0.0
S491 S 0.82583 0.83296 0.72893 0.0
N492 N 0.84317 0.8197 0.69043 0.0
N493 N 0.79241 0.85111 0.71809 0.0
C494 C 0.79423 0.84697 0.6816 0.0
C495 C 0.82162 0.82974 0.66663 0.0
C496 C 0.8733 0.71354 0.78299 0.0
C497 C 0.84502 0.68001 0.77988 0.0
C498 C 0.89033 0.72772 0.7525 0.0
C499 C 0.88019 0.70861 0.71773 0.0
H500 H 0.88181 0.72957 0.80915 0.0
H501 H 0.91146 0.75398 0.75627 0.0
S502 S 0.80869 0.61865 0.69504 0.0
N503 N 0.80832 0.62752 0.73933 0.0
N504 N 0.84049 0.65368 0.68208 0.0
C505 C 0.85252 0.67451 0.71431 0.0
C506 C 0.83488 0.66037 0.74534 0.0
C507 C 0.85746 0.58857 0.99178 0.0
C508 C 0.8843 0.62219 0.98862 0.0
C509 C 0.86244 0.56346 0.01515 0.0
C510 C 0.89472 0.57046 0.03612 0.0
H511 H 0.83246 0.58105 0.97569 0.0
H512 H 0.84053 0.53849 0.0169 0.0
S513 S 0.97369 0.65446 0.03803 0.0
N514 N 0.94387 0.66186 0.00974 0.0
N515 N 0.95451 0.61326 0.05141 0.0
C516 C 0.92198 0.60385 0.03309 0.0
C517 C 0.9165 0.62995 0.00988 0.0
C518 C 0.93725 0.46342 0.20335 0.0
C519 C 0.90378 0.47332 0.20736 0.0
C520 C 0.96361 0.47286 0.23132 0.0
C521 C 0.9574 0.49201 0.26468 0.0
H522 H 0.94369 0.44912 0.17803 0.0
H523 H 0.98899 0.46484 0.22676 0.0
S524 S 0.87378 0.52309 0.28963 0.0
N525 N 0.86562 0.50275 0.24758 0.0
N526 N 0.91489 0.51983 0.30053 0.0
C527 C 0.92375 0.50136 0.26941 0.0
C528 C 0.89706 0.49222 0.24067 0.0
C529 C 0.93023 0.58497 0.46316 0.0
C530 C 0.92589 0.54777 0.47108 0.0
C531 C 0.91508 0.61061 0.48466 0.0
C532 C 0.89445 0.59992 0.51449 0.0
H533 H 0.94541 0.5945 0.4401 0.0
H534 H 0.91954 0.63912 0.47803 0.0
S535 S 0.8755 0.50667 0.54766 0.0
N536 N 0.90001 0.50199 0.5116 0.0
N537 N 0.87068 0.55023 0.55152 0.0
C538 C 0.88923 0.56281 0.52252 0.0
C539 C 0.9051 0.5367 0.50088 0.0
loop_
_geom_bond_atom_site_label_1
_geom_bond_atom_site_label_2
_geom_bond_distance
_geom_bond_site_symmetry_2
_ccdc_geom_bond_type
Cu0 N1 1.999 . S
Cu0 O6 1.974 . S
Cu0 N11 1.985 1_455 S
Cu0 O20 1.959 1_455 S
N1 Cu0 1.999 . S
N1 C3 1.263 . S
N1 C5 1.389 . S
N2 C3 1.358 . S
N2 C4 1.400 . S
C3 N1 1.263 . S
C3 N2 1.358 . S
C3 H9 0.930 . S
C4 N2 1.400 . S
C4 C5 1.351 . S
C4 H21 0.930 . S
C5 N1 1.389 . S
C5 C4 1.351 . S
C5 H10 0.935 . S
O6 Cu0 1.974 . S
O6 C16 1.282 . S
C7 O8 1.261 . S
C7 O20 1.251 1_455 S
O8 C7 1.261 . S
H9 C3 0.930 . S
H10 C5 0.935 . S
N11 Cu0 1.985 1_655 S
N11 C13 1.335 . S
N11 C14 1.390 1_655 S
N12 C13 1.345 . S
N12 C15 1.336 . S
C13 N11 1.335 . S
C13 N12 1.345 . S
C13 H18 0.930 . S
C14 N11 1.390 1_455 S
C14 C15 1.346 1_455 S
C14 H19 0.930 . S
C15 N12 1.336 . S
C15 C14 1.346 1_655 S
C15 H22 0.929 . S
C16 O6 1.282 . S
C16 O17 1.216 . S
O17 C16 1.216 . S
H18 C13 0.930 . S
H19 C14 0.930 . S
O20 Cu0 1.959 1_655 S
O20 C7 1.251 1_655 S
H21 C4 0.930 . S
H22 C15 0.929 . S
Cu23 N24 1.999 . S
Cu23 O29 1.974 . S
Cu23 N34 1.985 . S
Cu23 O43 1.959 . S
N24 Cu23 1.999 . S
N24 C26 1.263 . S
N24 C28 1.389 . S
N25 C26 1.358 . S
N25 C27 1.400 . S
C26 N24 1.263 . S
C26 N25 1.358 . S
C26 H32 0.930 . S
C27 N25 1.400 . S
C27 C28 1.351 . S
C27 H44 0.930 . S
C28 N24 1.389 . S
C28 C27 1.351 . S
C28 H33 0.930 . S
O29 Cu23 1.974 . S
O29 C39 1.282 . S
C30 O31 1.261 . S
C30 O43 1.251 . S
O31 C30 1.261 . S
H32 C26 0.930 . S
H33 C28 0.930 . S
N34 Cu23 1.985 . S
N34 C36 1.335 . S
N34 C37 1.390 . S
N35 C36 1.345 . S
N35 C38 1.336 . S
C36 N34 1.335 . S
C36 N35 1.345 . S
C36 H41 0.930 . S
C37 N34 1.390 . S
C37 C38 1.346 . S
C37 H42 0.930 . S
C38 N35 1.336 . S
C38 C37 1.346 . S
C38 H45 0.929 . S
C39 O29 1.282 . S
C39 O40 1.216 . S
O40 C39 1.216 . S
H41 C36 0.930 . S
H42 C37 0.930 . S
O43 Cu23 1.959 . S
O43 C30 1.251 . S
H44 C27 0.930 . S
H45 C38 0.929 . S
Cu46 N47 1.999 . S
Cu46 O52 1.974 . S
Cu46 N57 1.985 . S
Cu46 O66 1.959 . S
N47 Cu46 1.999 . S
N47 C49 1.263 . S
N47 C51 1.389 . S
N48 C49 1.358 . S
N48 C50 1.400 . S
C49 N47 1.263 . S
C49 N48 1.358 . S
C49 H55 0.930 . S
C50 N48 1.400 . S
C50 C51 1.351 . S
C50 H67 0.930 . S
C51 N47 1.389 . S
C51 C50 1.351 . S
C51 H56 0.930 . S
O52 Cu46 1.974 . S
O52 C62 1.282 . S
C53 O54 1.261 1_565 S
C53 O66 1.251 . S
O54 C53 1.261 1_545 S
H55 C49 0.930 . S
H56 C51 0.930 . S
N57 Cu46 1.985 . S
N57 C59 1.335 . S
N57 C60 1.390 . S
N58 C59 1.345 . S
N58 C61 1.336 . S
C59 N57 1.335 . S
C59 N58 1.345 . S
C59 H64 0.930 . S
C60 N57 1.390 . S
C60 C61 1.346 . S
C60 H65 0.930 . S
C61 N58 1.336 . S
C61 C60 1.346 . S
C61 H68 0.929 . S
C62 O52 1.282 . S
C62 O63 1.216 . S
O63 C62 1.216 . S
H64 C59 0.930 . S
H65 C60 0.930 . S
O66 Cu46 1.959 . S
O66 C53 1.251 . S
H67 C50 0.930 . S
H68 C61 0.929 . S
Cu69 N70 1.999 . S
Cu69 O75 1.974 1_556 S
Cu69 N80 1.985 . S
Cu69 O89 1.959 . S
N70 Cu69 1.999 . S
N70 C72 1.263 . S
N70 C74 1.389 . S
N71 C72 1.358 . S
N71 C73 1.400 . S
C72 N70 1.263 . S
C72 N71 1.358 . S
C72 H78 0.930 . S
C73 N71 1.400 . S
C73 C74 1.351 . S
C73 H90 0.930 . S
C74 N70 1.389 . S
C74 C73 1.351 . S
C74 H79 0.930 . S
O75 Cu69 1.974 1_554 S
O75 C85 1.282 . S
C76 O77 1.261 . S
C76 O89 1.251 . S
O77 C76 1.261 . S
H78 C72 0.930 . S
H79 C74 0.930 . S
N80 Cu69 1.985 . S
N80 C82 1.335 . S
N80 C83 1.390 1_556 S
N81 C82 1.345 . S
N81 C84 1.336 1_556 S
C82 N80 1.335 . S
C82 N81 1.345 . S
C82 H87 0.930 . S
C83 N80 1.390 1_554 S
C83 C84 1.346 . S
C83 H88 0.930 . S
C84 N81 1.336 1_554 S
C84 C83 1.346 . S
C84 H91 0.929 . S
C85 O75 1.282 . S
C85 O86 1.216 . S
O86 C85 1.216 . S
H87 C82 0.930 . S
H88 C83 0.930 . S
O89 Cu69 1.959 . S
O89 C76 1.251 . S
H90 C73 0.930 . S
H91 C84 0.929 . S
Cu92 N93 1.999 . S
Cu92 O98 1.974 . S
Cu92 N103 1.994 . S
Cu92 O112 1.959 1_545 S
N93 Cu92 1.999 . S
N93 C95 1.263 . S
N93 C97 1.389 . S
N94 C95 1.358 . S
N94 C96 1.400 . S
C95 N93 1.263 . S
C95 N94 1.358 . S
C95 H101 0.930 . S
C96 N94 1.400 . S
C96 C97 1.351 . S
C96 H113 0.930 . S
C97 N93 1.389 . S
C97 C96 1.351 . S
C97 H102 0.930 . S
O98 Cu92 1.974 . S
O98 C108 1.282 . S
C99 O100 1.261 . S
C99 O112 1.251 . S
O100 C99 1.261 . S
H101 C95 0.930 . S
H102 C97 0.930 . S
N103 Cu92 1.994 . S
N103 C105 1.326 1_545 S
N103 C106 1.390 . S
N104 C105 1.345 . S
N104 C107 1.336 . S
C105 N103 1.326 1_565 S
C105 N104 1.345 . S
C105 H110 0.930 . S
C106 N103 1.390 . S
C106 C107 1.346 1_545 S
C106 H111 0.930 . S
C107 N104 1.336 . S
C107 C106 1.346 1_565 S
C107 H114 0.929 . S
C108 O98 1.282 . S
C108 O109 1.216 . S
O109 C108 1.216 . S
H110 C105 0.930 . S
H111 C106 0.930 . S
O112 Cu92 1.959 1_565 S
O112 C99 1.251 . S
H113 C96 0.930 . S
H114 C107 0.929 . S
Cu115 N116 1.999 . S
Cu115 O121 1.974 . S
Cu115 N126 1.985 . S
Cu115 O135 1.959 1_565 S
N116 Cu115 1.999 . S
N116 C118 1.263 . S
N116 C120 1.389 1_565 S
N117 C118 1.358 1_545 S
N117 C119 1.400 . S
C118 N116 1.263 . S
C118 N117 1.358 1_565 S
C118 H124 0.930 . S
C119 N117 1.400 . S
C119 C120 1.351 . S
C119 H136 0.930 . S
C120 N116 1.389 1_545 S
C120 C119 1.351 . S
C120 H125 0.930 . S
O121 Cu115 1.974 . S
O121 C131 1.282 . S
C122 O123 1.261 . S
C122 O135 1.251 . S
O123 C122 1.261 . S
H124 C118 0.930 . S
H125 C120 0.930 . S
N126 Cu115 1.985 . S
N126 C128 1.335 . S
N126 C129 1.390 . S
N127 C128 1.345 . S
N127 C130 1.336 . S
C128 N126 1.335 . S
C128 N127 1.345 . S
C128 H133 0.930 . S
C129 N126 1.390 . S
C129 C130 1.346 . S
C129 H134 0.930 . S
C130 N127 1.336 . S
C130 C129 1.346 . S
C130 H137 0.929 . S
C131 O121 1.282 . S
C131 O132 1.216 . S
O132 C131 1.216 . S
H133 C128 0.930 . S
H134 C129 0.930 . S
O135 Cu115 1.959 1_545 S
O135 C122 1.251 . S
H136 C119 0.930 . S
H137 C130 0.929 . S
Cu138 N139 1.999 . S
Cu138 O144 1.974 . S
Cu138 N149 1.985 . S
Cu138 O158 1.959 . S
N139 Cu138 1.999 . S
N139 C141 1.263 . S
N139 C143 1.389 . S
N140 C141 1.358 . S
N140 C142 1.400 . S
C141 N139 1.263 . S
C141 N140 1.358 . S
C141 H147 0.930 . S
C142 N140 1.400 . S
C142 C143 1.351 . S
C142 H159 0.930 . S
C143 N139 1.389 . S
C143 C142 1.351 . S
C143 H148 0.930 . S
O144 Cu138 1.974 . S
O144 C154 1.282 . S
C145 O146 1.261 . S
C145 O158 1.251 . S
O146 C145 1.261 . S
H147 C141 0.930 . S
H148 C143 0.930 . S
N149 Cu138 1.985 . S
N149 C151 1.335 . S
N149 C152 1.390 . S
N150 C151 1.345 . S
N150 C153 1.336 . S
C151 N149 1.335 . S
C151 N150 1.345 . S
C151 H156 0.930 . S
C152 N149 1.390 . S
C152 C153 1.346 . S
C152 H157 0.930 . S
C153 N150 1.336 . S
C153 C152 1.346 . S
C153 H160 0.929 . S
C154 O144 1.282 . S
C154 O155 1.216 . S
O155 C154 1.216 . S
H156 C151 0.930 . S
H157 C152 0.930 . S
O158 Cu138 1.959 . S
O158 C145 1.251 . S
H159 C142 0.930 . S
H160 C153 0.929 . S
Cu161 N162 1.999 . S
Cu161 O167 1.974 . S
Cu161 N172 1.985 1_556 S
Cu161 O181 1.959 1_556 S
N162 Cu161 1.999 . S
N162 C164 1.263 . S
N162 C166 1.389 . S
N163 C164 1.358 . S
N163 C165 1.400 . S
C164 N162 1.263 . S
C164 N163 1.358 . S
C164 H170 0.930 . S
C165 N163 1.400 . S
C165 C166 1.351 . S
C165 H182 0.930 . S
C166 N162 1.389 . S
C166 C165 1.351 . S
C166 H171 0.930 . S
O167 Cu161 1.974 . S
O167 C177 1.282 . S
C168 O169 1.261 . S
C168 O181 1.251 . S
O169 C168 1.261 . S
H170 C164 0.930 . S
H171 C166 0.930 . S
N172 Cu161 1.985 1_554 S
N172 C174 1.335 . S
N172 C175 1.390 . S
N173 C174 1.345 . S
N173 C176 1.336 . S
C174 N172 1.335 . S
C174 N173 1.345 . S
C174 H179 0.930 . S
C175 N172 1.390 . S
C175 C176 1.346 . S
C175 H180 0.930 . S
C176 N173 1.336 . S
C176 C175 1.346 . S
C176 H183 0.929 . S
C177 O167 1.282 . S
C177 O178 1.216 1_556 S
O178 C177 1.216 1_554 S
H179 C174 0.930 . S
H180 C175 0.930 . S
O181 Cu161 1.959 1_554 S
O181 C168 1.251 . S
H182 C165 0.930 . S
H183 C176 0.929 . S
Cu184 N185 1.999 . S
Cu184 O190 1.974 . S
Cu184 N195 1.985 . S
Cu184 O204 1.959 . S
N185 Cu184 1.999 . S
N185 C187 1.263 . S
N185 C189 1.389 . S
N186 C187 1.358 . S
N186 C188 1.400 . S
C187 N185 1.263 . S
C187 N186 1.358 . S
C187 H193 0.930 . S
C188 N186 1.400 . S
C188 C189 1.351 . S
C188 H205 0.930 . S
C189 N185 1.389 . S
C189 C188 1.351 . S
C189 H194 0.930 . S
O190 Cu184 1.974 . S
O190 C200 1.282 . S
C191 O192 1.261 . S
C191 O204 1.251 . S
O192 C191 1.261 . S
H193 C187 0.930 . S
H194 C189 0.930 . S
N195 Cu184 1.985 . S
N195 C197 1.335 . S
N195 C198 1.390 . S
N196 C197 1.345 . S
N196 C199 1.336 . S
C197 N195 1.335 . S
C197 N196 1.345 . S
C197 H202 0.930 . S
C198 N195 1.390 . S
C198 C199 1.346 . S
C198 H203 0.930 . S
C199 N196 1.336 . S
C199 C198 1.346 . S
C199 H206 0.929 . S
C200 O190 1.282 . S
C200 O201 1.216 . S
O201 C200 1.216 . S
H202 C197 0.930 . S
H203 C198 0.930 . S
O204 Cu184 1.959 . S
O204 C191 1.251 . S
H205 C188 0.930 . S
H206 C199 0.929 . S
Cu207 N208 1.999 1_655 S
Cu207 O213 1.974 . S
Cu207 N218 1.985 . S
Cu207 O227 1.959 1_655 S
N208 Cu207 1.999 1_455 S
N208 C210 1.263 . S
N208 C212 1.389 . S
N209 C210 1.358 . S
N209 C211 1.400 . S
C210 N208 1.263 . S
C210 N209 1.358 . S
C210 H216 0.930 1_455 S
C211 N209 1.400 . S
C211 C212 1.351 . S
C211 H228 0.930 . S
C212 N208 1.389 . S
C212 C211 1.351 . S
C212 H217 0.930 . S
O213 Cu207 1.974 . S
O213 C223 1.282 . S
C214 O215 1.261 . S
C214 O227 1.251 . S
O215 C214 1.261 . S
H216 C210 0.930 1_655 S
H217 C212 0.930 . S
N218 Cu207 1.985 . S
N218 C220 1.335 . S
N218 C221 1.390 . S
N219 C220 1.345 . S
N219 C222 1.336 . S
C220 N218 1.335 . S
C220 N219 1.345 . S
C220 H225 0.955 . S
C221 N218 1.390 . S
C221 C222 1.346 . S
C221 H226 0.930 . S
C222 N219 1.336 . S
C222 C221 1.346 . S
C222 H229 0.929 . S
C223 O213 1.282 . S
C223 O224 1.216 . S
O224 C223 1.216 . S
H225 C220 0.955 . S
H226 C221 0.930 . S
O227 Cu207 1.959 1_455 S
O227 C214 1.251 . S
H228 C211 0.930 . S
H229 C222 0.929 . S
Cu230 N231 1.999 . S
Cu230 O236 1.974 . S
Cu230 N241 1.985 . S
Cu230 O250 1.959 . S
N231 Cu230 1.999 . S
N231 C233 1.263 . S
N231 C235 1.389 . S
N232 C233 1.358 . S
N232 C234 1.400 . S
C233 N231 1.263 . S
C233 N232 1.358 . S
C233 H239 0.926 1_655 S
C234 N232 1.400 . S
C234 C235 1.351 . S
C234 H251 0.930 . S
C235 N231 1.389 . S
C235 C234 1.351 . S
C235 H240 0.930 . S
O236 Cu230 1.974 . S
O236 C246 1.282 1_655 S
C237 O238 1.261 . S
C237 O250 1.251 . S
O238 C237 1.261 . S
H239 C233 0.926 1_455 S
H240 C235 0.930 . S
N241 Cu230 1.985 . S
N241 C243 1.335 . S
N241 C244 1.390 . S
N242 C243 1.345 . S
N242 C245 1.336 . S
C243 N241 1.335 . S
C243 N242 1.345 . S
C243 H248 0.930 . S
C244 N241 1.390 . S
C244 C245 1.346 . S
C244 H249 0.930 . S
C245 N242 1.336 . S
C245 C244 1.346 . S
C245 H252 0.929 . S
C246 O236 1.282 1_455 S
C246 O247 1.216 . S
O247 C246 1.216 . S
H248 C243 0.930 . S
H249 C244 0.930 . S
O250 Cu230 1.959 . S
O250 C237 1.251 . S
H251 C234 0.930 . S
H252 C245 0.929 . S
Cu253 N254 1.999 . S
Cu253 O259 1.974 . S
Cu253 N264 1.985 . S
Cu253 O273 1.959 . S
N254 Cu253 1.999 . S
N254 C256 1.263 . S
N254 C258 1.389 . S
N255 C256 1.358 . S
N255 C257 1.400 . S
C256 N254 1.263 . S
C256 N255 1.358 . S
C256 H262 0.930 . S
C257 N255 1.400 . S
C257 C258 1.351 . S
C257 H274 0.930 . S
C258 N254 1.389 . S
C258 C257 1.351 . S
C258 H263 0.930 . S
O259 Cu253 1.974 . S
O259 C269 1.282 . S
C260 O261 1.261 . S
C260 O273 1.251 . S
O261 C260 1.261 . S
H262 C256 0.930 . S
H263 C258 0.930 . S
N264 Cu253 1.985 . S
N264 C266 1.335 . S
N264 C267 1.390 . S
N265 C266 1.345 . S
N265 C268 1.336 . S
C266 N264 1.335 . S
C266 N265 1.345 . S
C266 H271 0.930 . S
C267 N264 1.390 . S
C267 C268 1.346 . S
C267 H272 0.930 . S
C268 N265 1.336 . S
C268 C267 1.346 . S
C268 H275 0.929 . S
C269 O259 1.282 . S
C269 O270 1.216 . S
O270 C269 1.216 . S
H271 C266 0.930 . S
H272 C267 0.930 . S
O273 Cu253 1.959 . S
O273 C260 1.251 . S
H274 C257 0.930 . S
H275 C268 0.929 . S
C276 C277 1.369 . S
C276 C278 1.419 . S
C276 H280 0.930 . S
C277 C276 1.369 . S
C277 C286 1.429 . S
C278 C276 1.419 . S
C278 C279 1.363 . S
C278 H281 0.929 . S
C279 C278 1.363 . S
C279 C285 1.428 . S
H280 C276 0.930 . S
H281 C278 0.929 . S
S282 N283 1.613 . S
S282 N284 1.610 . S
N283 S282 1.613 . S
N283 C286 1.350 . S
N284 S282 1.610 . S
N284 C285 1.351 . S
C285 C279 1.428 . S
C285 N284 1.351 . S
C285 C286 1.434 . S
C286 C277 1.429 . S
C286 N283 1.350 . S
C286 C285 1.434 . S
C287 C288 1.369 . S
C287 C289 1.419 . S
C287 H291 0.930 . S
C288 C287 1.369 . S
C288 C297 1.429 . S
C289 C287 1.419 . S
C289 C290 1.363 . S
C289 H292 0.929 . S
C290 C289 1.363 . S
C290 C296 1.428 . S
H291 C287 0.930 . S
H292 C289 0.929 . S
S293 N294 1.613 . S
S293 N295 1.610 . S
N294 S293 1.613 . S
N294 C297 1.350 . S
N295 S293 1.610 . S
N295 C296 1.351 . S
C296 C290 1.428 . S
C296 N295 1.351 . S
C296 C297 1.434 . S
C297 C288 1.429 . S
C297 N294 1.350 . S
C297 C296 1.434 . S
C298 C299 1.369 . S
C298 C300 1.419 . S
C298 H302 0.930 . S
C299 C298 1.369 . S
C299 C308 1.429 . S
C300 C298 1.419 . S
C300 C301 1.363 . S
C300 H303 0.929 . S
C301 C300 1.363 . S
C301 C307 1.428 . S
H302 C298 0.930 . S
H303 C300 0.929 . S
S304 N305 1.613 1_565 S
S304 N306 1.610 . S
N305 S304 1.613 1_545 S
N305 C308 1.350 . S
N306 S304 1.610 . S
N306 C307 1.351 1_565 S
C307 C301 1.428 . S
C307 N306 1.351 1_545 S
C307 C308 1.434 . S
C308 C299 1.429 . S
C308 N305 1.350 . S
C308 C307 1.434 . S
C309 C310 1.369 . S
C309 C311 1.419 . S
C309 H313 0.930 . S
C310 C309 1.369 . S
C310 C319 1.429 . S
C311 C309 1.419 . S
C311 C312 1.363 . S
C311 H314 0.929 . S
C312 C311 1.363 . S
C312 C318 1.428 . S
H313 C309 0.930 . S
H314 C311 0.929 . S
S315 N316 1.613 . S
S315 N317 1.610 . S
N316 S315 1.613 . S
N316 C319 1.350 . S
N317 S315 1.610 . S
N317 C318 1.351 . S
C318 C312 1.428 . S
C318 N317 1.351 . S
C318 C319 1.434 . S
C319 C310 1.429 . S
C319 N316 1.350 . S
C319 C318 1.434 . S
C320 C321 1.369 . S
C320 C322 1.419 . S
C320 H324 0.930 . S
C321 C320 1.369 . S
C321 C330 1.429 . S
C322 C320 1.419 . S
C322 C323 1.363 . S
C322 H325 0.929 . S
C323 C322 1.363 . S
C323 C329 1.428 . S
H324 C320 0.930 . S
H325 C322 0.929 . S
S326 N327 1.613 . S
S326 N328 1.610 . S
N327 S326 1.613 . S
N327 C330 1.350 . S
N328 S326 1.610 . S
N328 C329 1.351 . S
C329 C323 1.428 . S
C329 N328 1.351 . S
C329 C330 1.434 . S
C330 C321 1.429 . S
C330 N327 1.350 . S
C330 C329 1.434 . S
C331 C332 1.369 . S
C331 C333 1.419 . S
C331 H335 0.930 . S
C332 C331 1.369 . S
C332 C341 1.429 . S
C333 C331 1.419 . S
C333 C334 1.363 . S
C333 H336 0.929 . S
C334 C333 1.363 . S
C334 C340 1.428 . S
H335 C331 0.930 . S
H336 C333 0.929 . S
S337 N338 1.613 . S
S337 N339 1.610 . S
N338 S337 1.613 . S
N338 C341 1.350 . S
N339 S337 1.610 . S
N339 C340 1.351 . S
C340 C334 1.428 . S
C340 N339 1.351 . S
C340 C341 1.434 . S
C341 C332 1.429 . S
C341 N338 1.350 . S
C341 C340 1.434 . S
C342 C343 1.369 . S
C342 C344 1.419 . S
C342 H346 0.930 . S
C343 C342 1.369 . S
C343 C352 1.429 . S
C344 C342 1.419 . S
C344 C345 1.363 . S
C344 H347 0.929 . S
C345 C344 1.363 . S
C345 C351 1.428 . S
H346 C342 0.930 . S
H347 C344 0.929 . S
S348 N349 1.613 . S
S348 N350 1.610 . S
N349 S348 1.613 . S
N349 C352 1.350 . S
N350 S348 1.610 . S
N350 C351 1.351 . S
C351 C345 1.428 . S
C351 N350 1.351 . S
C351 C352 1.434 . S
C352 C343 1.429 . S
C352 N349 1.350 . S
C352 C351 1.434 . S
C353 C354 1.369 . S
C353 C355 1.419 . S
C353 H357 0.930 . S
C354 C353 1.369 . S
C354 C363 1.429 . S
C355 C353 1.419 . S
C355 C356 1.363 . S
C355 H358 0.929 . S
C356 C355 1.363 . S
C356 C362 1.428 . S
H357 C353 0.930 . S
H358 C355 0.929 . S
S359 N360 1.613 . S
S359 N361 1.610 . S
N360 S359 1.613 . S
N360 C363 1.350 . S
N361 S359 1.610 . S
N361 C362 1.351 . S
C362 C356 1.428 . S
C362 N361 1.351 . S
C362 C363 1.434 . S
C363 C354 1.429 . S
C363 N360 1.350 . S
C363 C362 1.434 . S
C364 C365 1.369 . S
C364 C366 1.419 . S
C364 H368 0.930 . S
C365 C364 1.369 . S
C365 C374 1.429 . S
C366 C364 1.419 . S
C366 C367 1.363 . S
C366 H369 0.929 . S
C367 C366 1.363 . S
C367 C373 1.428 . S
H368 C364 0.930 . S
H369 C366 0.929 . S
S370 N371 1.613 . S
S370 N372 1.610 . S
N371 S370 1.613 . S
N371 C374 1.350 . S
N372 S370 1.610 . S
N372 C373 1.351 . S
C373 C367 1.428 . S
C373 N372 1.351 . S
C373 C374 1.434 . S
C374 C365 1.429 . S
C374 N371 1.350 . S
C374 C373 1.434 . S
C375 C376 1.369 . S
C375 C377 1.419 . S
C375 H379 0.930 . S
C376 C375 1.369 . S
C376 C385 1.429 1_545 S
C377 C375 1.419 . S
C377 C378 1.363 1_545 S
C377 H380 0.929 . S
C378 C377 1.363 1_565 S
C378 C384 1.428 . S
H379 C375 0.930 . S
H380 C377 0.929 . S
S381 N382 1.613 . S
S381 N383 1.610 . S
N382 S381 1.613 . S
N382 C385 1.350 . S
N383 S381 1.610 . S
N383 C384 1.351 . S
C384 C378 1.428 . S
C384 N383 1.351 . S
C384 C385 1.434 . S
C385 C376 1.429 1_565 S
C385 N382 1.350 . S
C385 C384 1.434 . S
C386 C387 1.369 . S
C386 C388 1.419 . S
C386 H390 0.930 . S
C387 C386 1.369 . S
C387 C396 1.429 . S
C388 C386 1.419 . S
C388 C389 1.363 . S
C388 H391 0.929 . S
C389 C388 1.363 . S
C389 C395 1.428 . S
H390 C386 0.930 . S
H391 C388 0.929 . S
S392 N393 1.613 1_565 S
S392 N394 1.610 . S
N393 S392 1.613 1_545 S
N393 C396 1.350 . S
N394 S392 1.610 . S
N394 C395 1.351 1_565 S
C395 C389 1.428 . S
C395 N394 1.351 1_545 S
C395 C396 1.434 . S
C396 C387 1.429 . S
C396 N393 1.350 . S
C396 C395 1.434 . S
C397 C398 1.369 . S
C397 C399 1.419 . S
C397 H401 0.930 . S
C398 C397 1.369 . S
C398 C407 1.429 . S
C399 C397 1.419 . S
C399 C400 1.363 . S
C399 H402 0.929 . S
C400 C399 1.363 . S
C400 C406 1.428 . S
H401 C397 0.930 . S
H402 C399 0.929 . S
S403 N404 1.613 . S
S403 N405 1.610 . S
N404 S403 1.613 . S
N404 C407 1.350 . S
N405 S403 1.610 . S
N405 C406 1.351 . S
C406 C400 1.428 . S
C406 N405 1.351 . S
C406 C407 1.434 . S
C407 C398 1.429 . S
C407 N404 1.350 . S
C407 C406 1.434 . S
C408 C409 1.369 . S
C408 C410 1.419 . S
C408 H412 0.930 . S
C409 C408 1.369 . S
C409 C418 1.429 . S
C410 C408 1.419 . S
C410 C411 1.363 . S
C410 H413 0.929 1_554 S
C411 C410 1.363 . S
C411 C417 1.428 . S
H412 C408 0.930 . S
H413 C410 0.929 1_556 S
S414 N415 1.613 . S
S414 N416 1.610 . S
N415 S414 1.613 . S
N415 C418 1.350 . S
N416 S414 1.610 . S
N416 C417 1.351 . S
C417 C411 1.428 . S
C417 N416 1.351 . S
C417 C418 1.434 . S
C418 C409 1.429 . S
C418 N415 1.350 . S
C418 C417 1.434 . S
C419 C420 1.368 . S
C419 C421 1.419 1_455 S
C419 H423 0.932 1_455 S
C420 C419 1.368 . S
C420 C429 1.429 . S
C421 C419 1.419 1_655 S
C421 C422 1.363 1_655 S
C421 H424 0.929 . S
C422 C421 1.363 1_455 S
C422 C428 1.428 . S
H423 C419 0.932 1_655 S
H424 C421 0.929 . S
S425 N426 1.613 . S
S425 N427 1.610 . S
N426 S425 1.613 . S
N426 C429 1.350 . S
N427 S425 1.610 . S
N427 C428 1.351 . S
C428 C422 1.428 . S
C428 N427 1.351 . S
C428 C429 1.434 . S
C429 C420 1.429 . S
C429 N426 1.350 . S
C429 C428 1.434 . S
C430 C431 1.369 . S
C430 C432 1.419 . S
C430 H434 0.930 . S
C431 C430 1.369 . S
C431 C440 1.429 . S
C432 C430 1.419 . S
C432 C433 1.363 . S
C432 H435 0.929 . S
C433 C432 1.363 . S
C433 C439 1.428 . S
H434 C430 0.930 . S
H435 C432 0.929 . S
S436 N437 1.613 . S
S436 N438 1.610 . S
N437 S436 1.613 . S
N437 C440 1.350 . S
N438 S436 1.610 . S
N438 C439 1.351 . S
C439 C433 1.428 . S
C439 N438 1.351 . S
C439 C440 1.434 . S
C440 C431 1.429 . S
C440 N437 1.350 . S
C440 C439 1.434 . S
C441 C442 1.369 . S
C441 C443 1.419 . S
C441 H445 0.930 . S
C442 C441 1.369 . S
C442 C451 1.429 . S
C443 C441 1.419 . S
C443 C444 1.363 . S
C443 H446 0.929 . S
C444 C443 1.363 . S
C444 C450 1.428 . S
H445 C441 0.930 . S
H446 C443 0.929 . S
S447 N448 1.613 . S
S447 N449 1.610 . S
N448 S447 1.613 . S
N448 C451 1.350 . S
N449 S447 1.610 . S
N449 C450 1.351 . S
C450 C444 1.428 . S
C450 N449 1.351 . S
C450 C451 1.434 . S
C451 C442 1.429 . S
C451 N448 1.350 . S
C451 C450 1.434 . S
C452 C453 1.369 . S
C452 C454 1.419 . S
C452 H456 0.930 . S
C453 C452 1.369 . S
C453 C462 1.429 . S
C454 C452 1.419 . S
C454 C455 1.363 . S
C454 H457 0.929 . S
C455 C454 1.363 . S
C455 C461 1.428 . S
H456 C452 0.930 . S
H457 C454 0.929 . S
S458 N459 1.613 . S
S458 N460 1.610 . S
N459 S458 1.613 . S
N459 C462 1.350 . S
N460 S458 1.610 . S
N460 C461 1.351 . S
C461 C455 1.428 . S
C461 N460 1.351 . S
C461 C462 1.434 . S
C462 C453 1.429 . S
C462 N459 1.350 . S
C462 C461 1.434 . S
C463 C464 1.369 . S
C463 C465 1.419 . S
C463 H467 0.930 . S
C464 C463 1.369 . S
C464 C473 1.429 . S
C465 C463 1.419 . S
C465 C466 1.363 . S
C465 H468 0.929 . S
C466 C465 1.363 . S
C466 C472 1.428 . S
H467 C463 0.930 . S
H468 C465 0.929 . S
S469 N470 1.613 . S
S469 N471 1.610 . S
N470 S469 1.613 . S
N470 C473 1.350 . S
N471 S469 1.610 . S
N471 C472 1.351 . S
C472 C466 1.428 . S
C472 N471 1.351 . S
C472 C473 1.434 . S
C473 C464 1.429 . S
C473 N470 1.350 . S
C473 C472 1.434 . S
C474 C475 1.369 . S
C474 C476 1.419 . S
C474 H478 0.930 . S
C475 C474 1.369 . S
C475 C484 1.429 . S
C476 C474 1.419 . S
C476 C477 1.363 . S
C476 H479 0.929 . S
C477 C476 1.363 . S
C477 C483 1.428 . S
H478 C474 0.930 . S
H479 C476 0.929 . S
S480 N481 1.613 . S
S480 N482 1.610 . S
N481 S480 1.613 . S
N481 C484 1.350 . S
N482 S480 1.610 . S
N482 C483 1.351 . S
C483 C477 1.428 . S
C483 N482 1.351 . S
C483 C484 1.434 . S
C484 C475 1.429 . S
C484 N481 1.350 . S
C484 C483 1.434 . S
C485 C486 1.369 . S
C485 C487 1.419 . S
C485 H489 0.930 . S
C486 C485 1.369 . S
C486 C495 1.429 . S
C487 C485 1.419 . S
C487 C488 1.363 . S
C487 H490 0.929 . S
C488 C487 1.363 . S
C488 C494 1.428 . S
H489 C485 0.930 . S
H490 C487 0.929 . S
S491 N492 1.613 . S
S491 N493 1.610 . S
N492 S491 1.613 . S
N492 C495 1.350 . S
N493 S491 1.610 . S
N493 C494 1.351 . S
C494 C488 1.428 . S
C494 N493 1.351 . S
C494 C495 1.434 . S
C495 C486 1.429 . S
C495 N492 1.350 . S
C495 C494 1.434 . S
C496 C497 1.369 . S
C496 C498 1.419 . S
C496 H500 0.930 . S
C497 C496 1.369 . S
C497 C506 1.429 . S
C498 C496 1.419 . S
C498 C499 1.363 . S
C498 H501 0.929 . S
C499 C498 1.363 . S
C499 C505 1.428 . S
H500 C496 0.930 . S
H501 C498 0.929 . S
S502 N503 1.613 . S
S502 N504 1.610 . S
N503 S502 1.613 . S
N503 C506 1.350 . S
N504 S502 1.610 . S
N504 C505 1.351 . S
C505 C499 1.428 . S
C505 N504 1.351 . S
C505 C506 1.434 . S
C506 C497 1.429 . S
C506 N503 1.350 . S
C506 C505 1.434 . S
C507 C508 1.369 . S
C507 C509 1.419 . S
C507 H511 0.930 . S
C508 C507 1.369 . S
C508 C517 1.429 . S
C509 C507 1.419 . S
C509 C510 1.363 . S
C509 H512 0.929 . S
C510 C509 1.363 . S
C510 C516 1.428 . S
H511 C507 0.930 . S
H512 C509 0.929 . S
S513 N514 1.613 . S
S513 N515 1.610 . S
N514 S513 1.613 . S
N514 C517 1.350 . S
N515 S513 1.610 . S
N515 C516 1.351 . S
C516 C510 1.428 . S
C516 N515 1.351 . S
C516 C517 1.434 . S
C517 C508 1.429 . S
C517 N514 1.350 . S
C517 C516 1.434 . S
C518 C519 1.369 . S
C518 C520 1.419 . S
C518 H522 0.930 . S
C519 C518 1.369 . S
C519 C528 1.429 . S
C520 C518 1.419 . S
C520 C521 1.363 . S
C520 H523 0.929 . S
C521 C520 1.363 . S
C521 C527 1.428 . S
H522 C518 0.930 . S
H523 C520 0.929 . S
S524 N525 1.613 . S
S524 N526 1.610 . S
N525 S524 1.613 . S
N525 C528 1.350 . S
N526 S524 1.610 . S
N526 C527 1.351 . S
C527 C521 1.428 . S
C527 N526 1.351 . S
C527 C528 1.434 . S
C528 C519 1.429 . S
C528 N525 1.350 . S
C528 C527 1.434 . S
C529 C530 1.369 . S
C529 C531 1.419 . S
C529 H533 0.930 . S
C530 C529 1.369 . S
C530 C539 1.429 . S
C531 C529 1.419 . S
C531 C532 1.363 . S
C531 H534 0.929 . S
C532 C531 1.363 . S
C532 C538 1.428 . S
H533 C529 0.930 . S
H534 C531 0.929 . S
S535 N536 1.613 1_455 S
S535 N537 1.610 . S
N536 S535 1.613 1_655 S
N536 C539 1.350 . S
N537 S535 1.610 . S
N537 C538 1.351 1_455 S
C538 C532 1.428 . S
C538 N537 1.351 1_655 S
C538 C539 1.434 . S
C539 C530 1.429 . S
C539 N536 1.350 . S
C539 C538 1.434 . S
C277 N2 1.502 . S
C279 N94 1.315 . S
C288 C131 1.714 . S
C290 C39 1.875 . S
C299 N140 1.403 . S
C301 C53 1.642 1_545 S
C310 N81 1.766 . S
C312 C177 1.530 . S
C321 C99 1.733 . S
C323 N25 1.478 . S
C332 N127 1.697 . S
C334 N58 1.603 . S
C343 C76 1.764 . S
C345 C145 1.895 . S
C354 N173 1.666 . S
C356 C16 1.464 . S
C365 C108 1.734 . S
C367 C168 1.639 . S
C376 N117 1.554 . S
C378 N104 1.582 . S
C387 C154 1.832 . S
C389 C122 1.737 . S
C398 N150 1.594 . S
C400 N163 1.603 . S
C409 C200 1.776 . S
C411 C85 1.601 . S
C420 N209 1.669 . S
C422 C7 1.617 . S
C431 C246 1.758 . S
C433 N35 1.734 . S
C442 C214 1.770 . S
C444 C30 1.906 . S
C453 C260 1.646 . S
C455 N71 1.703 . S
C464 N48 1.374 . S
C466 N255 1.524 . S
C475 N12 1.518 . S
C477 N196 1.429 . S
C486 N242 1.585 . S
C488 C62 1.634 . S
C497 C269 1.612 . S
C499 C237 1.814 . S
C508 N265 1.625 1_554 S
C510 N186 1.353 . S
C519 C191 1.846 . S
C521 C223 1.635 . S
C530 N219 1.732 . S
C532 N232 1.470 . S
