# Generated by pormake.
# Topology smc, (6)-cn, num edge types: 1
# Building blocks:
#     Node 0, Type 0, BuildingBlock: JUFBIX_clean_sbu_0, # of connection points: 6
#     Node 1, Type 0, BuildingBlock: JUFBIX_clean_sbu_0, # of connection points: 6
#     Node 2, Type 0, BuildingBlock: JUFBIX_clean_sbu_0, # of connection points: 6
#     Node 3, Type 0, BuildingBlock: JUFBIX_clean_sbu_0, # of connection points: 6
#     Node 4, Type 0, BuildingBlock: JUFBIX_clean_sbu_0, # of connection points: 6
#     Node 5, Type 0, BuildingBlock: JUFBIX_clean_sbu_0, # of connection points: 6
#     Node 6, Type 0, BuildingBlock: JUFBIX_clean_sbu_0, # of connection points: 6
#     Node 7, Type 0, BuildingBlock: JUFBIX_clean_sbu_0, # of connection points: 6
#     Node 8, Type 0, BuildingBlock: JUFBIX_clean_sbu_0, # of connection points: 6
#     Edge 9, Type (0, 0), BuildingBlock: ZUJKAS_clean_linker_0, # of connection points: 2
#     Edge 10, Type (0, 0), BuildingBlock: ZUJKAS_clean_linker_0, # of connection points: 2
#     Edge 11, Type (0, 0), BuildingBlock: ZUJKAS_clean_linker_0, # of connection points: 2
#     Edge 12, Type (0, 0), BuildingBlock: ZUJKAS_clean_linker_0, # of connection points: 2
#     Edge 13, Type (0, 0), BuildingBlock: ZUJKAS_clean_linker_0, # of connection points: 2
#     Edge 14, Type (0, 0), BuildingBlock: ZUJKAS_clean_linker_0, # of connection points: 2
#     Edge 15, Type (0, 0), BuildingBlock: ZUJKAS_clean_linker_0, # of connection points: 2
#     Edge 16, Type (0, 0), BuildingBlock: ZUJKAS_clean_linker_0, # of connection points: 2
#     Edge 17, Type (0, 0), BuildingBlock: ZUJKAS_clean_linker_0, # of connection points: 2
#     Edge 18, Type (0, 0), BuildingBlock: ZUJKAS_clean_linker_0, # of connection points: 2
#     Edge 19, Type (0, 0), BuildingBlock: ZUJKAS_clean_linker_0, # of connection points: 2
#     Edge 20, Type (0, 0), BuildingBlock: ZUJKAS_clean_linker_0, # of connection points: 2
#     Edge 21, Type (0, 0), BuildingBlock: ZUJKAS_clean_linker_0, # of connection points: 2
#     Edge 22, Type (0, 0), BuildingBlock: ZUJKAS_clean_linker_0, # of connection points: 2
#     Edge 23, Type (0, 0), BuildingBlock: ZUJKAS_clean_linker_0, # of connection points: 2
#     Edge 24, Type (0, 0), BuildingBlock: ZUJKAS_clean_linker_0, # of connection points: 2
#     Edge 25, Type (0, 0), BuildingBlock: ZUJKAS_clean_linker_0, # of connection points: 2
#     Edge 26, Type (0, 0), BuildingBlock: ZUJKAS_clean_linker_0, # of connection points: 2
#     Edge 27, Type (0, 0), BuildingBlock: ZUJKAS_clean_linker_0, # of connection points: 2
#     Edge 28, Type (0, 0), BuildingBlock: ZUJKAS_clean_linker_0, # of connection points: 2
#     Edge 29, Type (0, 0), BuildingBlock: ZUJKAS_clean_linker_0, # of connection points: 2
#     Edge 30, Type (0, 0), BuildingBlock: ZUJKAS_clean_linker_0, # of connection points: 2
#     Edge 31, Type (0, 0), BuildingBlock: ZUJKAS_clean_linker_0, # of connection points: 2
#     Edge 32, Type (0, 0), BuildingBlock: ZUJKAS_clean_linker_0, # of connection points: 2
#     Edge 33, Type (0, 0), BuildingBlock: ZUJKAS_clean_linker_0, # of connection points: 2
#     Edge 34, Type (0, 0), BuildingBlock: ZUJKAS_clean_linker_0, # of connection points: 2
#     Edge 35, Type (0, 0), BuildingBlock: ZUJKAS_clean_linker_0, # of connection points: 2
# Relax obj value: 0.422
# Max RMSD: 0.307
# Mean RMSD: 0.299
data_MOF--net-smc--node1-JUFBIX_clean_sbu_0--edge1-ZUJKAS_clean_linker_0
_symmetry_space_group_name_H-M    P1
_symmetry_Int_Tables_number       1
_symmetry_cell_setting            triclinic
loop_
_symmetry_equiv_pos_as_xyz
'x, y, z'
_cell_length_a     37.437907
_cell_length_b     42.227745
_cell_length_c     53.939081
_cell_angle_alpha  89.602464
_cell_angle_beta   89.54187
_cell_angle_gamma 119.922
loop_
_atom_site_label
_atom_site_type_symbol
_atom_site_fract_x
_atom_site_fract_y
_atom_site_fract_z
_atom_type_partial_charge
Co0 Co 0.06494 0.47928 1.01304 0.0
C1 C 0.02624 0.43054 0.97451 0.0
Co2 Co 0.02254 0.42302 0.02601 0.0
C3 C 0.10139 0.55747 1.00999 0.0
C4 C 0.12992 0.53765 0.98473 0.0
N5 N 0.1007 0.52669 1.00264 0.0
N6 N 0.12961 0.58725 0.99721 0.0
C7 C 0.14779 0.57482 0.98139 0.0
H8 H 0.08053 0.55772 0.02388 0.0
H9 H 0.13721 0.51966 0.97443 0.0
C10 C 0.0609 0.46843 0.06488 0.0
N11 N 0.98496 0.37538 0.03598 0.0
C12 C 0.94468 0.35709 0.02993 0.0
C13 C 0.98942 0.35302 0.05203 0.0
N14 N 0.92352 0.32454 0.0418 0.0
C15 C 0.9517 0.32167 0.05559 0.0
C16 C 0.10427 0.43898 1.01773 0.0
O17 O 0.07963 0.49255 0.04784 0.0
O18 O 0.03327 0.43663 0.05896 0.0
O19 O 0.06929 0.41335 0.02578 0.0
O20 O 0.10741 0.46884 1.0106 0.0
O21 O 1.01141 0.40853 0.99278 0.0
H22 H 0.01784 0.35964 0.06123 0.0
H23 H 0.93092 0.3678 1.01726 0.0
O24 O 0.05033 0.46438 0.97875 0.0
O25 O 0.02244 0.49069 1.0153 0.0
O26 O 0.97806 0.43477 0.02653 0.0
C27 C 0.98589 0.46711 0.02133 0.0
H28 H 0.17221 0.59127 0.96824 0.0
H29 H 0.94523 0.29928 0.06815 0.0
Co30 Co 0.59411 0.54633 0.04555 0.0
C31 C 0.61559 0.59513 0.08403 0.0
Co32 Co 0.62288 0.60302 0.03233 0.0
C33 C 0.53458 0.47195 0.04295 0.0
C34 C 0.57332 0.48089 0.07415 0.0
N35 N 0.56739 0.49807 0.05483 0.0
N36 N 0.51951 0.439 0.05392 0.0
C37 C 0.54375 0.44435 0.07365 0.0
H38 H 0.52149 0.47728 0.02672 0.0
H39 H 0.59738 0.49407 0.08768 0.0
C40 C 0.60444 0.55686 0.99347 0.0
N41 N 0.64877 0.65159 0.02285 0.0
C42 C 0.6392 0.67662 0.03088 0.0
C43 C 0.67945 0.6695 1.00607 0.0
N44 N 0.66235 0.70943 1.01969 0.0
C45 C 0.68773 0.7051 1.00398 0.0
C46 C 0.67767 0.57611 0.04127 0.0
O47 O 0.59234 0.53267 1.01066 0.0
O48 O 0.61776 0.58982 0.99919 0.0
O49 O 0.67642 0.60421 0.03335 0.0
O50 O 0.64443 0.54824 0.04823 0.0
O51 O 0.62868 0.61725 0.06576 0.0
H52 H 0.69419 0.65725 0.99567 0.0
H53 H 0.61453 0.67042 0.04406 0.0
O54 O 0.59749 0.56095 0.07983 0.0
O55 O 0.54254 0.54326 0.04325 0.0
O56 O 0.5685 0.59998 0.03102 0.0
C57 C 0.53703 0.5693 0.03683 0.0
H58 H 0.54079 0.42337 0.08651 0.0
H59 H 0.71027 0.72598 0.99166 0.0
Co60 Co 0.43379 0.99381 1.00927 0.0
C61 C 0.42752 0.03675 0.97133 0.0
Co62 Co 0.40699 0.02697 0.0212 0.0
C63 C 0.48405 0.95948 1.01054 0.0
C64 C 0.45228 0.95127 0.97626 0.0
N65 N 0.4578 0.96725 0.99853 0.0
N66 N 0.49524 0.93936 0.99655 0.0
C67 C 0.47525 0.93417 0.97498 0.0
H68 H 0.49489 0.96863 0.02909 0.0
H69 H 0.43247 0.95174 0.96194 0.0
C70 C 0.41216 0.98488 0.05933 0.0
N71 N 0.38104 0.05192 0.03191 0.0
C72 C 0.38172 0.08131 0.02149 0.0
C73 C 0.35307 0.04159 0.05064 0.0
N74 N 0.35536 0.08955 0.03296 0.0
C75 C 0.3376 0.06499 0.0515 0.0
C76 C 0.3501 0.95699 1.00521 0.0
O77 O 0.42446 0.97158 0.04233 0.0
O78 O 0.40525 0.01047 0.05379 0.0
O79 O 0.35351 0.98536 1.01544 0.0
O80 O 0.38234 0.95578 0.99978 0.0
O81 O 0.40902 0.04384 0.98831 0.0
H82 H 0.34361 0.01794 0.06255 0.0
H83 H 0.40116 0.09645 1.00582 0.0
O84 O 0.44217 0.01602 0.97652 0.0
O85 O 0.4857 0.03204 1.0188 0.0
O86 O 0.46103 0.06837 0.0271 0.0
C87 C 0.49174 0.06313 0.02542 0.0
H88 H 0.47628 0.91834 0.95957 0.0
H89 H 0.31459 0.06371 0.0644 0.0
Co90 Co 0.75237 0.80861 0.3644 0.0
C91 C 0.7084 0.76027 0.32611 0.0
Co92 Co 0.69788 0.75727 0.377 0.0
C93 C 0.80208 0.88705 0.35988 0.0
C94 C 0.82446 0.86047 0.33587 0.0
N95 N 0.79576 0.85367 0.35352 0.0
N96 N 0.83312 0.91442 0.34668 0.0
C97 C 0.84739 0.89769 0.33162 0.0
H98 H 0.78288 0.89101 0.37316 0.0
H99 H 0.82763 0.83966 0.32616 0.0
C100 C 0.74085 0.80284 0.41574 0.0
N101 N 0.6551 0.71369 0.38858 0.0
C102 C 0.61684 0.69393 0.37952 0.0
C103 C 0.65607 0.69442 0.40835 0.0
N104 N 0.59384 0.66299 0.39286 0.0
C105 C 0.61845 0.66325 0.41105 0.0
C106 C 0.77084 0.75495 0.37381 0.0
O107 O 0.76514 0.82399 0.39878 0.0
O108 O 0.70947 0.77327 0.40955 0.0
O109 O 0.73287 0.73751 0.37955 0.0
O110 O 0.78717 0.78794 0.36621 0.0
O111 O 0.68623 0.74089 0.34422 0.0
H112 H 0.68249 0.70257 0.42008 0.0
H113 H 0.60638 0.70192 0.36324 0.0
O114 O 0.73909 0.79189 0.33037 0.0
O115 O 0.71692 0.82836 0.36247 0.0
O116 O 0.66271 0.7771 0.3745 0.0
C117 C 0.67866 0.81018 0.36744 0.0
H118 H 0.87228 0.91128 0.3182 0.0
H119 H 0.60978 0.64272 0.4255 0.0
Co120 Co 0.22675 0.90031 0.35408 0.0
C121 C 0.27034 0.90817 0.31004 0.0
Co122 Co 0.293 0.92546 0.35904 0.0
C123 C 0.14346 0.84812 0.36444 0.0
C124 C 0.14786 0.8837 0.3346 0.0
N125 N 0.17073 0.87703 0.35074 0.0
N126 N 0.10456 0.83628 0.35746 0.0
C127 C 0.10686 0.85865 0.33884 0.0
H128 H 0.15189 0.83611 0.37947 0.0
H129 H 0.1602 0.90514 0.32061 0.0
C130 C 0.25265 0.92026 0.40305 0.0
N131 N 0.34906 0.94893 0.36297 0.0
C132 C 0.37548 0.93885 0.35402 0.0
C133 C 0.37218 0.97854 0.37691 0.0
N134 N 0.41408 0.96064 0.36207 0.0
C135 C 0.41224 0.98563 0.37657 0.0
C136 C 0.2635 0.97472 0.34972 0.0
O137 O 0.22084 0.90741 0.38943 0.0
O138 O 0.28677 0.92774 0.39322 0.0
O139 O 0.29582 0.97324 0.35507 0.0
O140 O 0.2299 0.94507 0.3474 0.0
O141 O 0.3003 0.9237 0.32474 0.0
H142 H 0.36033 0.99316 0.38738 0.0
H143 H 0.36615 0.91476 0.34291 0.0
O144 O 0.23375 0.8945 0.3188 0.0
O145 O 0.22245 0.85457 0.36074 0.0
O146 O 0.2888 0.87691 0.36314 0.0
C147 C 0.25245 0.84913 0.36364 0.0
H148 H 0.08088 0.85657 0.32878 0.0
H149 H 0.43772 0.00669 0.38676 0.0
Co150 Co 0.1096 0.32299 0.34848 0.0
C151 C 0.10588 0.36576 0.30979 0.0
Co152 Co 0.08887 0.36176 0.36064 0.0
C153 C 0.14638 0.27497 0.34831 0.0
C154 C 0.10931 0.26898 0.31676 0.0
N155 N 0.12294 0.28772 0.33799 0.0
N156 N 0.1481 0.24928 0.33412 0.0
C157 C 0.12459 0.24558 0.31434 0.0
H158 H 0.16219 0.28461 0.36572 0.0
H159 H 0.08919 0.27198 0.30385 0.0
C160 C 0.09049 0.31918 0.39947 0.0
N161 N 0.07832 0.39951 0.37002 0.0
C162 C 0.10236 0.43542 0.36371 0.0
C163 C 0.04942 0.39881 0.3854 0.0
N164 N 0.09007 0.45728 0.37464 0.0
C165 C 0.05644 0.43405 0.38821 0.0
C166 C 0.0241 0.29495 0.34799 0.0
O167 O 0.10164 0.30487 0.38243 0.0
O168 O 0.08515 0.34593 0.39401 0.0
O169 O 0.03087 0.32556 0.35676 0.0
O170 O 0.05413 0.29019 0.3427 0.0
O171 O 0.09235 0.37706 0.32725 0.0
H172 H 0.0255 0.37446 0.39455 0.0
H173 H 0.12885 0.44538 0.3514 0.0
O174 O 0.11638 0.34195 0.31474 0.0
O175 O 0.16526 0.35601 0.35439 0.0
O176 O 0.14587 0.39538 0.36458 0.0
C177 C 0.17437 0.38781 0.36123 0.0
H178 H 0.1181 0.22672 0.2993 0.0
H179 H 0.03879 0.44193 0.40005 0.0
Co180 Co 0.39687 0.15149 0.6747 0.0
C181 C 0.35146 0.10121 0.63796 0.0
Co182 Co 0.3522 0.09685 0.68925 0.0
C183 C 0.44066 0.22986 0.67101 0.0
C184 C 0.45921 0.20567 0.64262 0.0
N185 N 0.43412 0.19742 0.66259 0.0
N186 N 0.46875 0.25814 0.65702 0.0
C187 C 0.48058 0.24296 0.63917 0.0
H188 H 0.42498 0.23256 0.6871 0.0
H189 H 0.46128 0.18578 0.63108 0.0
C190 C 0.39606 0.144 0.72651 0.0
N191 N 0.3133 0.05086 0.70129 0.0
C192 C 0.27238 0.03394 0.69702 0.0
C193 C 0.31772 0.02963 0.71835 0.0
N194 N 0.25082 1.00343 0.71105 0.0
C195 C 0.27939 1.00043 0.72435 0.0
C196 C 0.43151 0.10751 0.6793 0.0
O197 O 0.41531 0.16656 0.70876 0.0
O198 O 0.36628 0.1127 0.72159 0.0
O199 O 0.39638 0.08395 0.68853 0.0
O200 O 0.4366 0.13772 0.67134 0.0
O201 O 0.33733 0.08018 0.65675 0.0
H202 H 0.34662 0.03594 0.72678 0.0
H203 H 0.25854 0.04447 0.68428 0.0
O204 O 0.37816 0.13478 0.64113 0.0
O205 O 0.35731 0.16635 0.67791 0.0
O206 O 0.31048 0.11165 0.69006 0.0
C207 C 0.32047 0.14444 0.68456 0.0
H208 H 0.50235 0.25761 0.62429 0.0
H209 H 0.27296 0.97973 0.73836 0.0
Co210 Co 0.92953 0.21176 0.69642 0.0
C211 C 0.94409 0.26251 0.73322 0.0
Co212 Co 0.94926 0.26621 0.68153 0.0
C213 C 0.87873 0.13471 0.69952 0.0
C214 C 0.92325 0.15458 0.72846 0.0
N215 N 0.91101 0.1653 0.70821 0.0
N216 N 0.86973 0.10524 0.71371 0.0
C217 C 0.8979 0.11754 0.73188 0.0
H218 H 0.86175 0.13432 0.68327 0.0
H219 H 0.94806 0.17272 0.7404 0.0
C220 C 0.93786 0.21849 0.64429 0.0
N221 N 0.96741 0.31282 0.66999 0.0
C222 C 0.95329 0.33482 0.67769 0.0
C223 C 0.99621 0.33231 0.6525 0.0
N224 N 0.97191 0.36734 0.66574 0.0
C225 C 0.99894 0.36593 0.64976 0.0
C226 C 1.01335 0.25145 0.6918 0.0
O227 O 0.9308 0.19618 0.66228 0.0
O228 O 0.94447 0.25025 0.64895 0.0
O229 O 1.00621 0.27536 0.68203 0.0
O230 O 0.98348 0.22202 0.70015 0.0
O231 O 0.95475 0.28332 0.7143 0.0
H232 H 1.01376 0.32257 0.64229 0.0
H233 H 0.92895 0.32665 0.69144 0.0
O234 O 0.92986 0.22843 0.73003 0.0
O235 O 0.87433 0.20038 0.693 0.0
O236 O 0.89171 0.25562 0.6809 0.0
C237 C 0.86351 0.22317 0.68648 0.0
H238 H 0.89921 0.10128 0.74706 0.0
H239 H 0.01918 0.38756 0.63704 0.0
Co240 Co 0.78025 0.68112 0.70363 0.0
C241 C 0.7685 0.72173 0.66623 0.0
Co242 Co 0.74065 0.70356 0.71439 0.0
C243 C 0.81491 0.63397 0.69574 0.0
C244 C 0.85285 0.68837 0.6815 0.0
N245 N 0.81704 0.6667 0.6937 0.0
N246 N 0.8479 0.63441 0.68507 0.0
C247 C 0.87183 0.6686 0.67614 0.0
H248 H 0.78933 0.61016 0.70441 0.0
H249 H 0.86433 0.71677 0.67668 0.0
C250 C 0.75173 0.6631 0.75193 0.0
N251 N 0.70355 0.71826 0.72408 0.0
C252 C 0.69847 0.74483 0.71372 0.0
C253 C 0.67424 0.7036 0.74213 0.0
N254 N 0.66736 0.74722 0.72445 0.0
C255 C 0.65239 0.7219 0.74268 0.0
C256 C 0.70013 0.6332 0.69389 0.0
O257 O 0.77239 0.65722 0.73555 0.0
O258 O 0.73702 0.68354 0.74641 0.0
O259 O 0.69489 0.65775 0.70403 0.0
O260 O 0.73637 0.63847 0.69115 0.0
O261 O 0.74488 0.72378 0.68228 0.0
H262 H 0.66897 0.68106 0.75417 0.0
H263 H 0.71792 0.76295 0.69901 0.0
O264 O 0.78729 0.70459 0.67172 0.0
O265 O 0.82435 0.72387 0.71626 0.0
O266 O 0.78714 0.74947 0.72457 0.0
C267 C 0.82203 0.75103 0.72399 0.0
H268 H 0.90117 0.6787 0.66664 0.0
H269 H 0.6278 0.7173 0.75549 0.0
H270 H 0.49863 0.59048 1.00206 0.0
H271 H 0.42368 0.56646 0.99857 0.0
H272 H 0.40291 0.50566 0.06678 0.0
H273 H 0.47685 0.52897 0.07015 0.0
H274 H 0.36175 0.48559 0.99813 0.0
H275 H 0.33323 0.55794 0.0746 0.0
H276 H 0.38328 0.57537 0.05999 0.0
H277 H 0.36491 0.53835 0.08206 0.0
C278 C 0.47811 0.57285 1.01662 0.0
C279 C 0.49375 0.56195 0.03651 0.0
C280 C 0.43525 0.55882 1.01451 0.0
C281 C 0.40751 0.53431 0.0325 0.0
C282 C 0.42347 0.52476 0.05281 0.0
H283 H 0.13881 0.4211 0.05638 0.0
H284 H 0.21232 0.43983 0.05979 0.0
C285 C 0.46588 0.53821 0.05472 0.0
C286 C 0.36178 0.51659 0.02959 0.0
H287 H 0.27456 0.50871 0.05656 0.0
C288 C 0.3427 0.49088 1.01076 0.0
C289 C 0.3367 0.52276 0.0464 0.0
C290 C 0.35541 0.55027 0.06683 0.0
C291 C 0.29942 0.47101 1.00843 0.0
C292 C 0.27423 0.4776 0.02499 0.0
C293 C 0.29346 0.50326 0.04391 0.0
C294 C 0.22838 0.46029 0.02202 0.0
C295 C 0.28119 0.44238 0.98862 0.0
C296 C 0.21226 0.46429 0.99955 0.0
C297 C 0.17035 0.45303 0.99752 0.0
C298 C 0.14316 0.4376 1.01792 0.0
C299 C 0.15858 0.43169 0.04009 0.0
C300 C 0.20083 0.44305 0.04214 0.0
H301 H 0.3019 0.43141 0.98399 0.0
H302 H 0.25068 0.41928 0.99442 0.0
H303 H 0.27727 0.45495 0.97147 0.0
H304 H 0.23252 0.47828 0.98391 0.0
H305 H 0.1597 0.45892 0.98041 0.0
H306 H 0.54198 0.92422 0.9658 0.0
H307 H 0.57998 0.89306 0.9766 0.0
H308 H 0.54661 0.8907 0.05357 0.0
H309 H 0.50754 0.92113 0.0428 0.0
H310 H 0.64557 0.91004 1.01128 0.0
H311 H 0.49958 0.78193 0.03493 0.0
H312 H 0.50017 0.81918 1.01798 0.0
H313 H 0.50877 0.82258 0.05078 0.0
C314 C 0.54272 0.9171 0.98503 0.0
C315 C 0.52122 0.92463 1.00339 0.0
C316 C 0.56476 0.89962 0.9912 0.0
C317 C 0.56562 0.88923 1.01581 0.0
C318 C 0.54588 0.89819 0.03441 0.0
H319 H 0.6373 0.72987 0.06068 0.0
H320 H 0.61996 0.77848 0.06337 0.0
C321 C 0.52383 0.91579 0.02825 0.0
C322 C 0.58478 0.86676 0.02144 0.0
H323 H 0.56071 0.77963 0.03623 0.0
C324 C 0.62719 0.88163 1.01703 0.0
C325 C 0.56064 0.82977 0.02897 0.0
C326 C 0.51472 0.81216 0.03331 0.0
C327 C 0.64602 0.86017 1.01945 0.0
C328 C 0.62153 0.82276 0.02594 0.0
C329 C 0.57943 0.80833 0.03128 0.0
C330 C 0.63782 0.7972 0.02546 0.0
C331 C 0.69183 0.8777 1.01488 0.0
C332 C 0.65414 0.79191 1.00336 0.0
C333 C 0.66406 0.76417 1.00179 0.0
C334 C 0.65726 0.74088 0.02219 0.0
C335 C 0.64233 0.74709 0.04456 0.0
C336 C 0.63265 0.77495 0.04617 0.0
H337 H 0.70773 0.90752 1.01848 0.0
H338 H 0.70562 0.86508 0.02672 0.0
H339 H 0.69758 0.87407 0.99517 0.0
H340 H 0.65737 0.80809 0.98694 0.0
H341 H 0.67496 0.75977 0.98423 0.0
H342 H 0.28048 0.93384 0.03371 0.0
H343 H 0.22072 0.87158 0.03503 0.0
H344 H 0.27024 0.843 0.97212 0.0
H345 H 0.32975 0.90461 0.97082 0.0
H346 H 0.17754 0.81046 0.97499 0.0
H347 H 0.25203 0.79253 0.05907 0.0
H348 H 0.24103 0.82945 0.05777 0.0
H349 H 0.28023 0.83049 0.0379 0.0
C350 C 0.27777 0.91458 1.01966 0.0
C351 C 0.30978 0.92377 1.0023 0.0
C352 C 0.24381 0.87908 1.02051 0.0
C353 C 0.24145 0.85277 1.00381 0.0
C354 C 0.27156 0.86299 0.98513 0.0
H355 H 0.16382 0.64107 0.96223 0.0
H356 H 0.18064 0.70425 0.96642 0.0
C357 C 0.30557 0.89813 0.98446 0.0
C358 C 0.21181 0.81349 1.0076 0.0
H359 H 0.20278 0.73979 0.03946 0.0
C360 C 0.18216 0.79493 0.98946 0.0
C361 C 0.21784 0.79344 0.0266 0.0
C362 C 0.24951 0.81225 0.04649 0.0
C363 C 0.16011 0.75661 0.98892 0.0
C364 C 0.169 0.73658 1.00654 0.0
C365 C 0.19622 0.75517 0.02585 0.0
C366 C 0.15496 0.69722 1.00351 0.0
C367 C 0.12853 0.73805 0.969 0.0
C368 C 0.13596 0.67231 0.02322 0.0
C369 C 0.12718 0.63613 0.0211 0.0
C370 C 0.13744 0.62423 0.99925 0.0
C371 C 0.15593 0.64922 0.97945 0.0
C372 C 0.16485 0.68532 0.98163 0.0
H373 H 0.11399 0.75452 0.96387 0.0
H374 H 0.14399 0.73546 0.95212 0.0
H375 H 0.10402 0.71037 0.975 0.0
H376 H 0.12863 0.68104 0.04042 0.0
H377 H 0.11337 0.61784 0.03684 0.0
H378 H 0.34983 0.1139 0.98759 0.0
H379 H 0.35079 0.17133 0.97828 0.0
H380 H 0.3509 0.19113 0.05673 0.0
H381 H 0.34766 0.13312 0.06587 0.0
H382 H 0.31146 0.21995 0.03125 0.0
H383 H 0.46273 0.25868 0.98575 0.0
H384 H 0.41735 0.22235 0.97212 0.0
H385 H 0.43346 0.2159 1.00216 0.0
C386 C 0.34915 0.13034 1.00271 0.0
C387 C 0.34955 0.11982 0.02741 0.0
C388 C 0.34966 0.16297 0.99742 0.0
C389 C 0.35212 0.18593 1.01681 0.0
C390 C 0.34907 0.17385 0.04146 0.0
H391 H 0.46887 0.37939 0.08172 0.0
H392 H 0.41614 0.32014 0.06641 0.0
C393 C 0.34748 0.14087 0.04672 0.0
C394 C 0.36483 0.22466 1.01223 0.0
H395 H 0.45167 0.30522 0.99832 0.0
C396 C 0.34165 0.23866 0.0234 0.0
C397 C 0.40408 0.24902 1.00174 0.0
C398 C 0.43105 0.23593 0.98986 0.0
C399 C 0.35851 0.27632 0.0267 0.0
C400 C 0.39929 0.30019 1.01852 0.0
C401 C 0.42044 0.28659 1.00471 0.0
C402 C 0.42372 0.33762 0.02792 0.0
C403 C 0.33363 0.29005 0.04023 0.0
C404 C 0.44545 0.36692 1.01136 0.0
C405 C 0.47608 0.4005 1.02002 0.0
C406 C 0.48565 0.40528 0.0454 0.0
C407 C 0.46254 0.37634 0.06208 0.0
C408 C 0.43184 0.34274 0.05339 0.0
H409 H 0.3001 0.27181 0.03727 0.0
H410 H 0.33925 0.29035 0.06042 0.0
H411 H 0.34244 0.31823 0.03413 0.0
H412 H 0.44014 0.36322 0.9916 0.0
H413 H 0.4936 0.4221 1.00664 0.0
H414 H 0.52297 0.13774 0.02745 0.0
H415 H 0.59593 0.18529 0.03095 0.0
H416 H 0.62973 0.10187 0.03799 0.0
H417 H 0.55785 0.05473 0.03409 0.0
H418 H 0.65585 0.2007 0.0672 0.0
H419 H 0.70017 0.16182 0.97925 0.0
H420 H 0.64713 0.1456 0.98795 0.0
H421 H 0.67419 0.12397 1.00046 0.0
C422 C 0.54599 0.12964 0.02993 0.0
C423 C 0.53464 0.09247 0.03015 0.0
C424 C 0.58764 0.15679 0.03188 0.0
C425 C 0.61843 0.14713 0.03408 0.0
C426 C 0.60675 0.11004 0.03557 0.0
H427 H 0.8832 0.25096 0.0487 0.0
H428 H 0.80849 0.20909 0.04751 0.0
C429 C 0.56549 0.08308 0.03346 0.0
C430 C 0.66293 0.17537 0.03447 0.0
H431 H 0.7553 0.20078 1.00576 0.0
C432 C 0.67755 0.20101 0.05362 0.0
C433 C 0.69129 0.17584 1.0167 0.0
C434 C 0.67739 0.15058 0.99479 0.0
C435 C 0.7199 0.22619 0.05597 0.0
C436 C 0.74826 0.22585 0.03861 0.0
C437 C 0.73356 0.20072 1.01921 0.0
C438 C 0.79337 0.25143 0.04012 0.0
C439 C 0.7342 0.2523 0.07738 0.0
C440 C 0.80965 0.28904 0.03616 0.0
C441 C 0.85224 0.31294 0.03673 0.0
C442 C 0.87953 0.29974 0.04128 0.0
C443 C 0.86307 0.26202 0.04535 0.0
C444 C 0.82042 0.23808 0.04459 0.0
H445 H 0.70974 0.24428 0.09181 0.0
H446 H 0.76179 0.25375 0.08602 0.0
H447 H 0.74292 0.28007 0.07044 0.0
H448 H 0.7894 0.29989 0.03238 0.0
H449 H 0.86374 0.34183 0.03385 0.0
H450 H 0.99221 0.53011 1.00325 0.0
H451 H 0.94259 0.55135 1.00664 0.0
H452 H 0.85767 0.45198 0.04549 0.0
H453 H 0.90741 0.4301 0.042 0.0
H454 H 0.85596 0.51516 0.99013 0.0
H455 H 0.87476 0.5392 0.09162 0.0
H456 H 0.91244 0.53546 0.07265 0.0
H457 H 0.86495 0.49524 0.08112 0.0
C458 C 0.96293 0.51253 1.01245 0.0
C459 C 0.95395 0.47836 0.02247 0.0
C460 C 0.93454 0.5248 1.01432 0.0
C461 C 0.89657 0.50351 0.02651 0.0
C462 C 0.887 0.46907 0.0362 0.0
H463 H 0.69009 0.52762 0.06744 0.0
H464 H 0.74552 0.514 0.06313 0.0
C465 C 0.91536 0.45651 0.03411 0.0
C466 C 0.86752 0.51784 0.02925 0.0
H467 H 0.82497 0.54904 0.07206 0.0
C468 C 0.84916 0.52265 1.00802 0.0
C469 C 0.85901 0.52793 0.05255 0.0
C470 C 0.87894 0.52453 0.07585 0.0
C471 C 0.82137 0.53598 1.00956 0.0
C472 C 0.81258 0.54589 0.03295 0.0
C473 C 0.83171 0.54171 0.0541 0.0
C474 C 0.7807 0.55712 0.03634 0.0
C475 C 0.80046 0.53786 0.98625 0.0
C476 C 0.78221 0.58689 0.02333 0.0
C477 C 0.74992 0.5948 0.02567 0.0
C478 C 0.71575 0.57318 0.0412 0.0
C479 C 0.71567 0.54477 0.05512 0.0
C480 C 0.74754 0.53689 0.05271 0.0
H481 H 0.80305 0.52131 0.97116 0.0
H482 H 0.7673 0.52809 0.98983 0.0
H483 H 0.81527 0.56664 0.97961 0.0
H484 H 0.80796 0.60362 1.01104 0.0
H485 H 0.75096 0.61681 1.01468 0.0
H486 H 0.84434 0.77386 0.35154 0.0
H487 H 0.88625 0.74507 0.35748 0.0
H488 H 0.79481 0.66619 0.4081 0.0
H489 H 0.75212 0.69457 0.40188 0.0
H490 H 0.87735 0.70938 0.427 0.0
H491 H 0.88052 0.64677 0.33875 0.0
H492 H 0.87707 0.68701 0.33284 0.0
H493 H 0.83585 0.64902 0.34953 0.0
C494 C 0.83286 0.75007 0.36361 0.0
C495 C 0.79524 0.7366 0.37634 0.0
C496 C 0.85644 0.73326 0.36672 0.0
C497 C 0.84299 0.70292 0.38275 0.0
C498 C 0.80512 0.689 0.39523 0.0
H499 H 0.09468 0.77045 0.37042 0.0
H500 H 0.03071 0.71716 0.38617 0.0
C501 C 0.78109 0.70546 0.39179 0.0
C502 C 0.87265 0.69109 0.38932 0.0
H503 H 0.94999 0.69108 0.35623 0.0
C504 C 0.89247 0.7032 0.4121 0.0
C505 C 0.89162 0.68147 0.37043 0.0
C506 C 0.86979 0.66488 0.34661 0.0
C507 C 0.93445 0.71469 0.41396 0.0
C508 C 0.9559 0.71383 0.39261 0.0
C509 C 0.93359 0.69292 0.37234 0.0
C510 C 0.99628 0.74575 0.38669 0.0
C511 C 0.95711 0.73407 0.43696 0.0
C512 C 0.99748 0.77892 0.38154 0.0
C513 C 0.03311 0.80865 0.37203 0.0
C514 C 0.06832 0.80586 0.36785 0.0
C515 C 0.06767 0.77303 0.3737 0.0
C516 C 0.0315 0.74281 0.38275 0.0
H517 H 0.93741 0.7217 0.45374 0.0
H518 H 0.98608 0.7331 0.43888 0.0
H519 H 0.96507 0.76313 0.43578 0.0
H520 H 0.97017 0.78136 0.384 0.0
H521 H 0.03322 0.83381 0.36782 0.0
H522 H 0.17724 0.22114 0.29967 0.0
H523 H 0.20617 0.18145 0.30667 0.0
H524 H 0.19818 0.19211 0.38565 0.0
H525 H 0.16776 0.23126 0.37871 0.0
H526 H 0.2752 0.18959 0.33031 0.0
H527 H 0.13269 0.08171 0.37697 0.0
H528 H 0.13424 0.11977 0.36061 0.0
H529 H 0.15601 0.12596 0.39096 0.0
C530 C 0.18138 0.21501 0.31858 0.0
C531 C 0.16934 0.22898 0.33862 0.0
C532 C 0.19837 0.19249 0.32255 0.0
C533 C 0.20381 0.18312 0.34668 0.0
C534 C 0.1936 0.1983 0.36682 0.0
H535 H 0.3183 0.04309 0.36828 0.0
H536 H 0.30894 0.0969 0.36948 0.0
C537 C 0.17655 0.221 0.36285 0.0
C538 C 0.2183 0.15616 0.35029 0.0
H539 H 0.18656 0.06924 0.37103 0.0
C540 C 0.25606 0.16343 0.33949 0.0
C541 C 0.19322 0.12181 0.36206 0.0
C542 C 0.15163 0.11153 0.37316 0.0
C543 C 0.2688 0.1371 0.33958 0.0
C544 C 0.24333 0.10256 0.35095 0.0
C545 C 0.20623 0.09574 0.3624 0.0
C546 C 0.25197 0.07167 0.34899 0.0
C547 C 0.30844 0.14576 0.32648 0.0
C548 C 0.22352 0.03974 0.33692 0.0
C549 C 0.22877 0.00926 0.33626 0.0
C550 C 0.26267 0.00961 0.34768 0.0
C551 C 0.29214 0.04202 0.35906 0.0
C552 C 0.28673 0.07276 0.35979 0.0
H553 H 0.3211 0.17123 0.31511 0.0
H554 H 0.33173 0.14933 0.34043 0.0
H555 H 0.30359 0.12291 0.31427 0.0
H556 H 0.19662 0.03814 0.32832 0.0
H557 H 0.20547 0.98491 0.32723 0.0
H558 H 0.98709 0.25565 0.30751 0.0
H559 H 0.94171 0.18941 0.30807 0.0
H560 H 0.92772 0.19114 0.38733 0.0
H561 H 0.97311 0.25771 0.38673 0.0
H562 H 0.9742 0.15204 0.33802 0.0
H563 H 0.81136 0.10832 0.3628 0.0
H564 H 0.8452 0.15176 0.34778 0.0
H565 H 0.85136 0.14523 0.38 0.0
C566 C 0.97213 0.24223 0.32482 0.0
C567 C 0.98297 0.26199 0.347 0.0
C568 C 0.94664 0.20424 0.32519 0.0
C569 C 0.93136 0.18518 0.34774 0.0
C570 C 0.9386 0.20523 0.36966 0.0
H571 H 0.82786 0.9528 0.38552 0.0
H572 H 0.85071 0.01824 0.38638 0.0
C573 C 0.96415 0.24342 0.36927 0.0
C574 C 0.91511 0.14497 0.34867 0.0
H575 H 0.8292 0.06199 0.36012 0.0
C576 C 0.94242 0.13234 0.34276 0.0
C577 C 0.87394 0.11935 0.35532 0.0
C578 C 0.84349 0.13158 0.36174 0.0
C579 C 0.92979 0.09493 0.34323 0.0
C580 C 0.8882 0.06903 0.34907 0.0
C581 C 0.86097 0.08169 0.35544 0.0
C582 C 0.87261 0.02884 0.34832 0.0
C583 C 0.96154 0.08366 0.338 0.0
C584 C 0.87651 0.01264 0.32655 0.0
C585 C 0.86376 0.97533 0.32607 0.0
C586 C 0.84617 0.95301 0.34725 0.0
C587 C 0.84117 0.96906 0.36885 0.0
C588 C 0.85424 0.00653 0.36937 0.0
H589 H 0.99328 0.10628 0.34156 0.0
H590 H 0.95582 0.05964 0.34951 0.0
H591 H 0.96011 0.07631 0.31818 0.0
H592 H 0.88946 0.02892 0.30983 0.0
H593 H 0.86722 0.96388 0.30894 0.0
H594 H 0.1787 0.79041 0.37647 0.0
H595 H 0.1585 0.72619 0.37793 0.0
H596 H 0.28271 0.75345 0.3588 0.0
H597 H 0.3036 0.81892 0.35762 0.0
H598 H 0.15836 0.68461 0.34052 0.0
H599 H 0.25715 0.68092 0.41545 0.0
H600 H 0.25038 0.71987 0.41023 0.0
H601 H 0.28415 0.71238 0.39038 0.0
C602 C 0.20215 0.78312 0.3728 0.0
C603 C 0.24298 0.81029 0.36688 0.0
C604 C 0.19035 0.74602 0.37361 0.0
C605 C 0.21883 0.7344 0.36858 0.0
C606 C 0.26004 0.76141 0.36318 0.0
H607 H 0.17033 0.50648 0.36243 0.0
H608 H 0.20291 0.57318 0.35984 0.0
C609 C 0.27205 0.79897 0.36246 0.0
C610 C 0.20396 0.69398 0.36795 0.0
H611 H 0.21389 0.62524 0.39541 0.0
C612 C 0.17071 0.67178 0.35253 0.0
C613 C 0.21989 0.67676 0.38343 0.0
C614 C 0.25463 0.69855 0.40099 0.0
C615 C 0.15286 0.6334 0.35232 0.0
C616 C 0.16793 0.61606 0.36831 0.0
C617 C 0.20198 0.63823 0.38323 0.0
C618 C 0.14806 0.57505 0.37014 0.0
C619 C 0.11808 0.61179 0.33471 0.0
C620 C 0.10629 0.55334 0.3771 0.0
C621 C 0.08741 0.51502 0.37851 0.0
C622 C 0.1097 0.49705 0.37306 0.0
C623 C 0.15173 0.51892 0.36637 0.0
C624 C 0.17063 0.55731 0.36507 0.0
H625 H 0.11828 0.62902 0.31899 0.0
H626 H 0.11987 0.58823 0.32714 0.0
H627 H 0.08825 0.60113 0.34479 0.0
H628 H 0.08815 0.56607 0.38158 0.0
H629 H 0.05512 0.49948 0.38364 0.0
H630 H 0.20332 0.45755 0.37691 0.0
H631 H 0.27523 0.50524 0.38131 0.0
H632 H 0.315 0.4303 0.35755 0.0
H633 H 0.24312 0.38226 0.35301 0.0
H634 H 0.33658 0.50113 0.41179 0.0
H635 H 0.37723 0.52279 0.31126 0.0
H636 H 0.3246 0.50067 0.32259 0.0
H637 H 0.35237 0.47619 0.32221 0.0
C638 C 0.22733 0.45115 0.37263 0.0
C639 C 0.21764 0.41619 0.36456 0.0
C640 C 0.26829 0.47841 0.37515 0.0
C641 C 0.30008 0.47121 0.36945 0.0
C642 C 0.29065 0.43633 0.36167 0.0
H643 H 0.55693 0.59159 0.40634 0.0
H644 H 0.48479 0.54539 0.40061 0.0
C645 C 0.24966 0.40895 0.35922 0.0
C646 C 0.34322 0.50011 0.37216 0.0
H647 H 0.43192 0.55385 0.33946 0.0
C648 C 0.35749 0.51277 0.39602 0.0
C649 C 0.36994 0.51528 0.35143 0.0
C650 C 0.35535 0.50334 0.32536 0.0
C651 C 0.39837 0.53999 0.39977 0.0
C652 C 0.42539 0.55447 0.37912 0.0
C653 C 0.41094 0.54232 0.3552 0.0
C654 C 0.46895 0.5822 0.38208 0.0
C655 C 0.41236 0.55326 0.42572 0.0
C656 C 0.48372 0.61783 0.37309 0.0
C657 C 0.52482 0.64437 0.37647 0.0
C658 C 0.55174 0.63551 0.38876 0.0
C659 C 0.53682 0.59947 0.39727 0.0
C660 C 0.49573 0.57302 0.39394 0.0
H661 H 0.38591 0.54486 0.43875 0.0
H662 H 0.43126 0.54159 0.43261 0.0
H663 H 0.43178 0.58351 0.42587 0.0
H664 H 0.46326 0.62521 0.36384 0.0
H665 H 0.53522 0.67193 0.36993 0.0
H666 H 0.43603 0.93873 0.32082 0.0
H667 H 0.48714 0.91868 0.31791 0.0
H668 H 0.51714 0.94534 0.39487 0.0
H669 H 0.46735 0.96665 0.39744 0.0
H670 H 0.58438 0.96186 0.36815 0.0
H671 H 0.46047 0.82124 0.34661 0.0
H672 H 0.46541 0.85483 0.32422 0.0
H673 H 0.44974 0.85671 0.35556 0.0
C674 C 0.45412 0.94076 0.33691 0.0
C675 C 0.44775 0.95388 0.35938 0.0
C676 C 0.48299 0.92914 0.33532 0.0
C677 C 0.505 0.92958 0.35637 0.0
C678 C 0.50028 0.9446 0.37844 0.0
H679 H 0.60333 0.78845 0.38848 0.0
H680 H 0.5627 0.8191 0.3852 0.0
C681 C 0.47199 0.95686 0.37989 0.0
C682 C 0.53114 0.91253 0.35603 0.0
H683 H 0.52853 0.83162 0.34671 0.0
C684 C 0.57227 0.9334 0.36342 0.0
C685 C 0.51489 0.8752 0.35031 0.0
C686 C 0.47013 0.85056 0.34397 0.0
C687 C 0.59761 0.91788 0.36546 0.0
C688 C 0.58168 0.88083 0.35906 0.0
C689 C 0.54068 0.86008 0.35143 0.0
C690 C 0.60645 0.86255 0.36095 0.0
C691 C 0.6406 0.94101 0.37534 0.0
C692 C 0.64414 0.87655 0.34813 0.0
C693 C 0.66768 0.85952 0.35035 0.0
C694 C 0.65336 0.82765 0.36492 0.0
C695 C 0.61504 0.813 0.37714 0.0
C696 C 0.59187 0.83046 0.37527 0.0
H697 H 0.64348 0.96448 0.38612 0.0
H698 H 0.64941 0.92467 0.38741 0.0
H699 H 0.66283 0.95221 0.35956 0.0
H700 H 0.65533 0.9006 0.33635 0.0
H701 H 0.6969 0.8711 0.34046 0.0
H702 H 0.7999 0.15524 0.69782 0.0
H703 H 0.72628 0.13263 0.69659 0.0
H704 H 0.74919 0.2386 0.67213 0.0
H705 H 0.82412 0.26201 0.6736 0.0
H706 H 0.68697 0.20637 0.70936 0.0
H707 H 0.65702 0.10758 0.63437 0.0
H708 H 0.68413 0.10244 0.65995 0.0
H709 H 0.70823 0.14376 0.64153 0.0
C710 C 0.78966 0.17402 0.69209 0.0
C711 C 0.81838 0.21059 0.68563 0.0
C712 C 0.74721 0.16081 0.69128 0.0
C713 C 0.73182 0.18354 0.68382 0.0
C714 C 0.7602 0.22034 0.67778 0.0
H715 H 0.48238 0.11816 0.64055 0.0
H716 H 0.55451 0.13381 0.6426 0.0
C717 C 0.80307 0.23372 0.67858 0.0
C718 C 0.68614 0.1685 0.6826 0.0
H719 H 0.59823 0.10096 0.65631 0.0
C720 C 0.6676 0.18341 0.69769 0.0
C721 C 0.66062 0.13861 0.66728 0.0
C722 C 0.67848 0.12234 0.64968 0.0
C723 C 0.62449 0.16903 0.69814 0.0
C724 C 0.59885 0.13841 0.68338 0.0
C725 C 0.61753 0.1239 0.66801 0.0
C726 C 0.55313 0.12315 0.68197 0.0
C727 C 0.60689 0.18741 0.71397 0.0
C728 C 0.5272 0.10975 0.70313 0.0
C729 C 0.48537 0.1001 0.70187 0.0
C730 C 0.46875 0.10356 0.67941 0.0
C731 C 0.49403 0.11444 0.65801 0.0
C732 C 0.53551 0.12383 0.65923 0.0
H733 H 0.63098 0.21516 0.71963 0.0
H734 H 0.58249 0.18976 0.70395 0.0
H735 H 0.59288 0.17079 0.73104 0.0
H736 H 0.5397 0.10823 0.72084 0.0
H737 H 0.46706 0.09282 0.7188 0.0
H738 H 0.94276 0.38286 0.70717 0.0
H739 H 0.9194 0.42723 0.71096 0.0
H740 H 0.9576 0.46266 0.63534 0.0
H741 H 0.97959 0.41723 0.63108 0.0
H742 H 0.96109 0.50224 0.70514 0.0
H743 H 0.83642 0.43579 0.63623 0.0
H744 H 0.86288 0.41365 0.64902 0.0
H745 H 0.88652 0.44715 0.62454 0.0
C746 C 0.94592 0.39989 0.69128 0.0
C747 C 0.96235 0.39612 0.66868 0.0
C748 C 0.93283 0.42537 0.69354 0.0
C749 C 0.93597 0.44755 0.67326 0.0
C750 C 0.9541 0.44512 0.65102 0.0
H751 H 0.88771 0.62244 0.64769 0.0
H752 H 0.90677 0.57493 0.64594 0.0
C753 C 0.9671 0.41951 0.64871 0.0
C754 C 0.91991 0.47299 0.67542 0.0
H755 H 0.85048 0.49392 0.65075 0.0
C756 C 0.93673 0.50032 0.69339 0.0
C757 C 0.88784 0.47004 0.66018 0.0
C758 C 0.86703 0.43987 0.64157 0.0
C759 C 0.92311 0.5256 0.69601 0.0
C760 C 0.89178 0.52313 0.68038 0.0
C761 C 0.87453 0.49554 0.66266 0.0
C762 C 0.87818 0.55032 0.68121 0.0
C763 C 0.94299 0.55537 0.71497 0.0
C764 C 0.85514 0.55151 0.70144 0.0
C765 C 0.84416 0.57862 0.70247 0.0
C766 C 0.8564 0.60491 0.68336 0.0
C767 C 0.87853 0.60289 0.66285 0.0
C768 C 0.8892 0.57572 0.66175 0.0
H769 H 0.97066 0.55646 0.72323 0.0
H770 H 0.95206 0.58238 0.70641 0.0
H771 H 0.92046 0.5504 0.7301 0.0
H772 H 0.84615 0.5318 0.71651 0.0
H773 H 0.82726 0.57972 0.7185 0.0
H774 H 0.70158 0.58401 0.66247 0.0
H775 H 0.64628 0.52223 0.65447 0.0
H776 H 0.56374 0.53961 0.70119 0.0
H777 H 0.61944 0.60209 0.70938 0.0
H778 H 0.56941 0.47731 0.71365 0.0
H779 H 0.54107 0.47965 0.6135 0.0
H780 H 0.59506 0.50053 0.61986 0.0
H781 H 0.56597 0.5207 0.63174 0.0
C782 C 0.67147 0.57502 0.6707 0.0
C783 C 0.66484 0.59784 0.68661 0.0
C784 C 0.63978 0.53976 0.66593 0.0
C785 C 0.60078 0.52653 0.67695 0.0
C786 C 0.59356 0.54953 0.6923 0.0
H787 H 0.42732 0.28813 0.67927 0.0
H788 H 0.45175 0.35328 0.68476 0.0
C789 C 0.62531 0.58515 0.69692 0.0
C790 C 0.56974 0.48742 0.67445 0.0
H791 H 0.52591 0.42098 0.63094 0.0
C792 C 0.55881 0.46493 0.69568 0.0
C793 C 0.55599 0.47148 0.65098 0.0
C794 C 0.56479 0.49443 0.62776 0.0
C795 C 0.53742 0.42671 0.69379 0.0
C796 C 0.5264 0.41083 0.67009 0.0
C797 C 0.53477 0.43331 0.64907 0.0
C798 C 0.51051 0.37138 0.66644 0.0
C799 C 0.52933 0.40365 0.71691 0.0
C800 C 0.53527 0.36013 0.65407 0.0
C801 C 0.52158 0.32306 0.65101 0.0
C802 C 0.4827 0.29643 0.66018 0.0
C803 C 0.45771 0.30786 0.67237 0.0
C804 C 0.47151 0.34506 0.67544 0.0
H805 H 0.54448 0.42045 0.73343 0.0
H806 H 0.49565 0.38771 0.72066 0.0
H807 H 0.54046 0.38394 0.71428 0.0
H808 H 0.56557 0.38011 0.64708 0.0
H809 H 0.54181 0.3153 0.64181 0.0
H810 H 0.64631 0.76366 0.6808 0.0
H811 H 0.65249 0.8228 0.67005 0.0
H812 H 0.67856 0.85511 0.74651 0.0
H813 H 0.66958 0.79526 0.7573 0.0
H814 H 0.64662 0.89237 0.72292 0.0
H815 H 0.77362 0.89455 0.66646 0.0
H816 H 0.72198 0.86252 0.65756 0.0
H817 H 0.74133 0.85667 0.68665 0.0
C818 C 0.65135 0.78294 0.69535 0.0
C819 C 0.65813 0.77564 0.71973 0.0
C820 C 0.65511 0.81664 0.68924 0.0
C821 C 0.66758 0.84376 0.70731 0.0
C822 C 0.66922 0.83466 0.73222 0.0
H823 H 0.86575 0.04273 0.72945 0.0
H824 H 0.80912 0.98068 0.72367 0.0
C825 C 0.6642 0.80058 0.73843 0.0
C826 C 0.6878 0.88284 0.70021 0.0
H827 H 0.77889 0.95001 0.67578 0.0
C828 C 0.67498 0.90507 0.71205 0.0
C829 C 0.72498 0.89924 0.68605 0.0
C830 C 0.74157 0.87718 0.67355 0.0
C831 C 0.70018 0.94323 0.71198 0.0
C832 C 0.73855 0.95917 0.69937 0.0
C833 C 0.74941 0.9373 0.68552 0.0
C834 C 0.77099 0.99714 0.70368 0.0
C835 C 0.68737 0.96597 0.72701 0.0
C836 C 0.76797 0.02676 0.69447 0.0
C837 C 0.80023 0.06236 0.69798 0.0
C838 C 0.83602 0.06871 0.71059 0.0
C839 C 0.83855 0.03882 0.71993 0.0
C840 C 0.80633 1.00338 0.7165 0.0
H841 H 0.65777 0.94897 0.73717 0.0
H842 H 0.71158 0.98249 0.74061 0.0
H843 H 0.6838 0.9852 0.71454 0.0
H844 H 0.74102 0.02234 0.68435 0.0
H845 H 0.797 0.08483 0.69091 0.0
H846 H 0.84835 0.82242 0.7109 0.0
H847 H 0.92064 0.87254 0.71069 0.0
H848 H 0.95608 0.80307 0.74946 0.0
H849 H 0.88466 0.75332 0.74953 0.0
H850 H 0.98932 0.90555 0.75233 0.0
H851 H 1.01221 0.82841 0.67669 0.0
H852 H 0.96217 0.82215 0.68483 0.0
H853 H 0.98502 0.80208 0.7038 0.0
C854 C 0.87138 0.81849 0.72025 0.0
C855 C 0.86105 0.78411 0.73027 0.0
C856 C 0.91263 0.84696 0.71995 0.0
C857 C 0.94367 0.84123 0.72977 0.0
C858 C 0.93264 0.80793 0.74164 0.0
H859 H 0.20658 0.93238 0.72587 0.0
H860 H 0.13159 0.89529 0.73049 0.0
C861 C 0.8918 0.77962 0.74178 0.0
C862 C 0.98796 0.8678 0.7253 0.0
H863 H 0.07236 0.87729 0.69382 0.0
C864 C 1.0075 0.89975 0.73933 0.0
C865 C 1.01151 0.85997 0.70838 0.0
C866 C 0.99176 0.82645 0.69237 0.0
C867 C 0.05043 0.92347 0.7375 0.0
C868 C 0.07413 0.91513 0.72097 0.0
C869 C 0.05426 0.88357 0.70656 0.0
C870 C 0.11971 0.93821 0.71867 0.0
C871 C 0.07027 0.95648 0.75393 0.0
C872 C 0.13798 0.97453 0.71021 0.0
C873 C 0.18086 0.99582 0.7076 0.0
C874 C 0.20646 0.98118 0.71328 0.0
C875 C 0.18795 0.94466 0.72158 0.0
C876 C 0.14505 0.92338 0.72414 0.0
H877 H 0.04956 0.95441 0.76949 0.0
H878 H 0.09946 0.96013 0.76169 0.0
H879 H 0.07766 0.98124 0.74279 0.0
H880 H 0.11907 0.98639 0.70544 0.0
H881 H 0.19387 0.02391 0.70146 0.0
H882 H 0.23669 0.10539 0.69447 0.0
H883 H 0.18833 0.12885 0.69516 0.0
H884 H 0.28805 0.23697 0.67729 0.0
H885 H 0.33626 0.2141 0.6768 0.0
H886 H 0.23849 0.23704 0.71539 0.0
H887 H 0.14444 0.15905 0.63522 0.0
H888 H 0.14879 0.1315 0.65923 0.0
H889 H 0.19386 0.16336 0.64185 0.0
C890 C 0.24825 0.13413 0.69069 0.0
C891 C 0.29038 0.15775 0.68549 0.0
C892 C 0.22055 0.14749 0.69092 0.0
C893 C 0.23444 0.18465 0.68593 0.0
C894 C 0.27651 0.20822 0.68109 0.0
H895 H 0.07155 0.27449 0.6544 0.0
H896 H 0.13019 0.26336 0.65233 0.0
C897 C 0.30406 0.19497 0.68079 0.0
C898 C 0.20565 0.19948 0.68614 0.0
H899 H 0.12034 0.19257 0.65826 0.0
C900 C 0.21274 0.22738 0.70284 0.0
C901 C 0.1725 0.18745 0.66944 0.0
C902 C 0.16451 0.15894 0.65024 0.0
C903 C 0.18699 0.24278 0.70377 0.0
C904 C 0.15291 0.22978 0.68772 0.0
C905 C 0.14645 0.20259 0.67056 0.0
C906 C 0.12174 0.24181 0.6898 0.0
C907 C 0.19654 0.27292 0.72192 0.0
C908 C 0.0982 0.23428 0.71166 0.0
C909 C 0.06502 0.24063 0.71282 0.0
C910 C 0.05464 0.25487 0.69222 0.0
C911 C 0.07949 0.26436 0.67074 0.0
C912 C 0.11262 0.25757 0.66946 0.0
H913 H 0.22949 0.28712 0.72728 0.0
H914 H 0.18921 0.29336 0.71406 0.0
H915 H 0.17759 0.26101 0.73898 0.0
H916 H 0.10403 0.22156 0.72742 0.0
H917 H 0.04597 0.23251 0.72948 0.0
H918 H 0.13103 0.34774 0.26638 0.0
H919 H 0.13401 0.37242 0.22449 0.0
H920 H 0.08931 0.44126 0.25357 0.0
H921 H 0.08698 0.41753 0.29512 0.0
H922 H 0.07241 0.36881 0.19683 0.0
H923 H 0.18517 0.51439 0.21185 0.0
H924 H 0.17754 0.47897 0.23376 0.0
H925 H 0.14349 0.4976 0.23396 0.0
C926 C 0.12225 0.3684 0.26385 0.0
C927 C 0.10889 0.38065 0.28422 0.0
C928 C 0.12398 0.38253 0.23989 0.0
C929 C 0.11273 0.40937 0.23584 0.0
C930 C 0.09933 0.42145 0.25617 0.0
H931 H 1.01076 0.44738 0.10519 0.0
H932 H 0.02777 0.43679 0.14694 0.0
C933 C 0.09763 0.40746 0.27999 0.0
C934 C 0.11213 0.42309 0.2103 0.0
H935 H 0.14187 0.50121 0.17606 0.0
C936 C 0.08808 0.39774 0.19225 0.0
C937 C 0.13297 0.46087 0.20402 0.0
C938 C 0.16159 0.48948 0.22185 0.0
C939 C 0.08275 0.40909 0.16867 0.0
C940 C 0.1013 0.44691 0.16299 0.0
C941 C 0.12702 0.47227 0.18053 0.0
C942 C 0.09293 0.46011 0.13918 0.0
C943 C 0.057 0.38034 0.15003 0.0
C944 C 0.12437 0.47931 0.1214 0.0
C945 C 0.11474 0.48617 0.09751 0.0
C946 C 0.07355 0.47389 0.09115 0.0
C947 C 0.0428 0.45745 0.10964 0.0
C948 C 0.05243 0.45093 0.13342 0.0
H949 H 0.05491 0.35372 0.15444 0.0
H950 H 0.02527 0.37611 0.15033 0.0
H951 H 0.06989 0.38893 0.13097 0.0
H952 H 0.15591 0.48687 0.12547 0.0
H953 H 0.13891 0.49813 0.08348 0.0
H954 H 0.64991 0.69143 0.31346 0.0
H955 H 0.63513 0.66369 0.27276 0.0
H956 H 0.72892 0.76527 0.24011 0.0
H957 H 0.74498 0.79319 0.2813 0.0
H958 H 0.60736 0.67813 0.23182 0.0
H959 H 0.76174 0.69555 0.21186 0.0
H960 H 0.74726 0.70375 0.24209 0.0
H961 H 0.76293 0.7378 0.21786 0.0
C962 C 0.66761 0.70806 0.2977 0.0
C963 C 0.69889 0.74463 0.30076 0.0
C964 C 0.659 0.69203 0.27434 0.0
C965 C 0.68128 0.71205 0.2533 0.0
C966 C 0.71196 0.74888 0.25611 0.0
H967 H 0.66002 0.6666 0.09695 0.0
H968 H 0.67448 0.69262 0.13825 0.0
C969 C 0.7209 0.76495 0.27965 0.0
C970 C 0.67161 0.69409 0.22858 0.0
H971 H 0.71371 0.67367 0.17897 0.0
C972 C 0.63064 0.67701 0.22037 0.0
C973 C 0.70181 0.69228 0.2136 0.0
C974 C 0.7458 0.70799 0.22186 0.0
C975 C 0.61928 0.65889 0.19753 0.0
C976 C 0.64959 0.65764 0.18247 0.0
C977 C 0.69049 0.67458 0.19061 0.0
C978 C 0.63996 0.64079 0.15752 0.0
C979 C 0.57514 0.64189 0.18933 0.0
C980 C 0.61571 0.60276 0.15457 0.0
C981 C 0.60743 0.58751 0.13076 0.0
C982 C 0.62312 0.61013 0.10956 0.0
C983 C 0.64725 0.6482 0.11277 0.0
C984 C 0.65571 0.66326 0.13642 0.0
H985 H 0.5566 0.64953 0.20149 0.0
H986 H 0.57382 0.65037 0.16998 0.0
H987 H 0.56083 0.61169 0.18973 0.0
H988 H 0.60351 0.58489 0.17067 0.0
H989 H 0.58887 0.55814 0.12897 0.0
H990 H 0.37872 0.91332 0.0754 0.0
H991 H 0.34795 0.88902 0.1167 0.0
H992 H 0.3912 0.99876 0.14197 0.0
H993 H 0.42094 0.02282 0.10107 0.0
H994 H 0.37673 0.89987 0.16566 0.0
H995 H 0.26725 0.95043 0.15395 0.0
H996 H 0.29751 0.94824 0.12849 0.0
H997 H 0.31954 0.98628 0.14935 0.0
C998 C 0.38248 0.93218 0.09001 0.0
C999 C 0.40212 0.96995 0.085 0.0
C1000 C 0.36458 0.9183 0.11351 0.0
C1001 C 0.36614 0.94202 0.13224 0.0
C1002 C 0.38843 0.97981 0.12766 0.0
H1003 H 0.34577 0.93456 0.28824 0.0
H1004 H 0.36292 0.93564 0.24471 0.0
C1005 C 0.40585 0.99357 0.10431 0.0
C1006 C 0.34387 0.92799 0.15643 0.0
H1007 H 0.27764 0.93705 0.1959 0.0
C1008 C 0.35458 0.90749 0.17213 0.0
C1009 C 0.31402 0.93697 0.16474 0.0
C1010 C 0.29854 0.95633 0.14813 0.0
C1011 C 0.33845 0.89801 0.19646 0.0
C1012 C 0.31156 0.91001 0.20554 0.0
C1013 C 0.29867 0.92826 0.18922 0.0
C1014 C 0.29978 0.90714 0.23234 0.0
C1015 C 0.35086 0.87557 0.21227 0.0
C1016 C 0.25834 0.89176 0.24015 0.0
C1017 C 0.24821 0.89149 0.26538 0.0
C1018 C 0.2794 0.90689 0.28321 0.0
C1019 C 0.32073 0.92221 0.27519 0.0
C1020 C 0.33072 0.92253 0.25018 0.0
H1021 H 0.35769 0.85755 0.20066 0.0
H1022 H 0.37934 0.89414 0.2224 0.0
H1023 H 0.32638 0.85838 0.226 0.0
H1024 H 0.23386 0.88011 0.22672 0.0
H1025 H 0.21613 0.87959 0.27087 0.0
H1026 H 0.46325 0.02669 0.92946 0.0
H1027 H 0.46955 0.05368 0.88804 0.0
H1028 H 0.40761 0.10997 0.91468 0.0
H1029 H 0.40163 0.08367 0.9559 0.0
H1030 H 0.40818 0.04581 0.8572 0.0
H1031 H 0.50642 0.1922 0.87888 0.0
H1032 H 0.49992 0.15618 0.89991 0.0
H1033 H 0.46161 0.17001 0.89865 0.0
C1034 C 0.45126 0.04504 0.92653 0.0
C1035 C 0.43203 0.05302 0.9461 0.0
C1036 C 0.45493 0.0605 0.90284 0.0
C1037 C 0.43983 0.08452 0.89828 0.0
C1038 C 0.42054 0.09238 0.91779 0.0
H1039 H 0.34734 0.12801 0.76708 0.0
H1040 H 0.36393 0.11828 0.80915 0.0
C1041 C 0.4168 0.07696 0.94138 0.0
C1042 C 0.44158 0.09952 0.87285 0.0
H1043 H 0.46959 0.17876 0.84041 0.0
C1044 C 0.42218 0.0749 0.85351 0.0
C1045 C 0.46014 0.13755 0.86782 0.0
C1046 C 0.48357 0.16553 0.88736 0.0
C1047 C 0.41911 0.08711 0.82972 0.0
C1048 C 0.43556 0.12494 0.8251 0.0
C1049 C 0.45664 0.14976 0.84405 0.0
C1050 C 0.42841 0.13837 0.80111 0.0
C1051 C 0.39741 0.05934 0.80974 0.0
C1052 C 0.45974 0.15494 0.78294 0.0
C1053 C 0.45037 0.16105 0.75878 0.0
C1054 C 0.40955 0.15056 0.75259 0.0
C1055 C 0.37914 0.13675 0.7714 0.0
C1056 C 0.38849 0.13087 0.7954 0.0
H1057 H 0.39427 0.03243 0.81455 0.0
H1058 H 0.36605 0.05542 0.80727 0.0
H1059 H 0.41427 0.06904 0.79176 0.0
H1060 H 0.49076 0.16088 0.78698 0.0
H1061 H 0.47418 0.17089 0.74452 0.0
H1062 H 0.05447 0.46663 0.92929 0.0
H1063 H 0.03852 0.43938 0.88777 0.0
H1064 H 0.96066 0.33306 0.92083 0.0
H1065 H 0.97538 0.35976 0.96179 0.0
H1066 H 0.05303 0.38734 0.8678 0.0
H1067 H 0.8849 0.33456 0.86917 0.0
H1068 H 0.91885 0.36685 0.89159 0.0
H1069 H 0.90092 0.3188 0.89547 0.0
C1070 C 0.03354 0.43754 0.92764 0.0
C1071 C 1.01605 0.41555 0.94896 0.0
C1072 C 0.02452 0.42195 0.9039 0.0
C1073 C 0.99767 0.38416 0.90105 0.0
C1074 C 0.98048 0.36234 0.92235 0.0
H1075 H 0.92391 0.22805 0.77924 0.0
H1076 H 0.93688 0.25718 0.82013 0.0
C1077 C 0.98928 0.37778 0.94589 0.0
C1078 C 0.9888 0.3669 0.87608 0.0
H1079 H 0.91011 0.3101 0.83812 0.0
C1080 C 0.0218 0.37077 0.86124 0.0
C1081 C 0.94799 0.34505 0.86742 0.0
C1082 C 0.91119 0.34135 0.88164 0.0
C1083 C 1.01509 0.35282 0.83839 0.0
C1084 C 0.97431 0.33051 0.83001 0.0
C1085 C 0.94132 0.3268 0.8447 0.0
C1086 C 0.96557 0.31241 0.80543 0.0
C1087 C 0.05165 0.35732 0.82351 0.0
C1088 C 0.97668 0.33367 0.78367 0.0
C1089 C 0.96905 0.31721 0.76045 0.0
C1090 C 0.95017 0.27893 0.75831 0.0
C1091 C 0.93852 0.25753 0.78017 0.0
C1092 C 0.94594 0.27414 0.80353 0.0
H1093 H 0.08009 0.3689 0.83474 0.0
H1094 H 0.04551 0.33068 0.81597 0.0
H1095 H 0.05731 0.37613 0.80761 0.0
H1096 H 0.99131 0.36315 0.78464 0.0
H1097 H 0.97839 0.33471 0.74411 0.0
H1098 H 0.75283 0.60094 0.76702 0.0
H1099 H 0.72798 0.56841 0.80716 0.0
H1100 H 0.70355 0.65229 0.83271 0.0
H1101 H 0.72771 0.68452 0.79306 0.0
H1102 H 0.75192 0.61993 0.86627 0.0
H1103 H 0.5948 0.52633 0.83038 0.0
H1104 H 0.64044 0.53822 0.81199 0.0
H1105 H 0.62521 0.57168 0.81722 0.0
C1106 C 0.7428 0.61268 0.78137 0.0
C1107 C 0.74218 0.64527 0.77682 0.0
C1108 C 0.72845 0.59401 0.8042 0.0
C1109 C 0.71377 0.60793 0.8228 0.0
C1110 C 0.71467 0.64108 0.81858 0.0
H1111 H 0.58562 0.58388 0.9533 0.0
H1112 H 0.61005 0.58652 0.91077 0.0
C1113 C 0.72852 0.65945 0.79587 0.0
C1114 C 0.6957 0.58784 0.84646 0.0
H1115 H 0.60261 0.5297 0.87384 0.0
C1116 C 0.71958 0.59937 0.86793 0.0
C1117 C 0.65339 0.56142 0.84851 0.0
C1118 C 0.62667 0.54842 0.82588 0.0
C1119 C 0.70175 0.58643 0.89155 0.0
C1120 C 0.65894 0.56135 0.89372 0.0
C1121 C 0.63546 0.5486 0.87213 0.0
C1122 C 0.6374 0.5529 0.91821 0.0
C1123 C 0.72817 0.60152 0.91419 0.0
C1124 C 0.6429 0.53159 0.93629 0.0
C1125 C 0.62816 0.52947 0.96066 0.0
C1126 C 0.60825 0.54902 0.96722 0.0
C1127 C 0.6005 0.56826 0.94867 0.0
C1128 C 0.61461 0.56992 0.92439 0.0
H1129 H 0.76032 0.62274 0.90939 0.0
H1130 H 0.71472 0.6136 0.92682 0.0
H1131 H 0.729 0.57903 0.92446 0.0
H1132 H 0.66038 0.5182 0.93188 0.0
H1133 H 0.63525 0.51505 0.97471 0.0
H1134 H 0.68816 0.76625 0.45364 0.0
H1135 H 0.70318 0.76742 0.49716 0.0
H1136 H 0.82754 0.85491 0.4835 0.0
H1137 H 0.813 0.85269 0.43885 0.0
H1138 H 0.82884 0.80484 0.51189 0.0
H1139 H 0.71145 0.83122 0.55231 0.0
H1140 H 0.68608 0.7932 0.53201 0.0
H1141 H 0.72366 0.83744 0.51959 0.0
C1142 C 0.71864 0.78632 0.45975 0.0
C1143 C 0.74941 0.80942 0.44262 0.0
C1144 C 0.72707 0.78718 0.48488 0.0
C1145 C 0.76623 0.81176 0.49391 0.0
C1146 C 0.79691 0.83588 0.47705 0.0
H1147 H 0.76624 0.78372 0.65528 0.0
H1148 H 0.77428 0.8127 0.61465 0.0
C1149 C 0.78853 0.83481 0.45157 0.0
C1150 C 0.77518 0.80921 0.52053 0.0
H1151 H 0.73028 0.79378 0.57794 0.0
C1152 C 0.80787 0.80328 0.52646 0.0
C1153 C 0.7487 0.80813 0.53984 0.0
C1154 C 0.71587 0.8183 0.53557 0.0
C1155 C 0.81292 0.79374 0.55072 0.0
C1156 C 0.78338 0.78834 0.56937 0.0
C1157 C 0.7525 0.79688 0.56374 0.0
C1158 C 0.78263 0.7726 0.59445 0.0
C1159 C 0.84996 0.78966 0.55591 0.0
C1160 C 0.78482 0.74038 0.59698 0.0
C1161 C 0.7815 0.72443 0.62037 0.0
C1162 C 0.77425 0.73949 0.64163 0.0
C1163 C 0.77162 0.77141 0.63916 0.0
C1164 C 0.77623 0.78799 0.6159 0.0
H1165 H 0.87649 0.80828 0.54379 0.0
H1166 H 0.85957 0.79559 0.57553 0.0
H1167 H 0.84245 0.76131 0.55175 0.0
H1168 H 0.788 0.7269 0.58083 0.0
H1169 H 0.78315 0.69958 0.62172 0.0
H1170 H 0.19773 0.93573 0.42717 0.0
H1171 H 0.20758 0.96532 0.46771 0.0
H1172 H 0.31955 0.96144 0.47752 0.0
H1173 H 0.30948 0.93144 0.43781 0.0
H1174 H 0.27641 0.94501 0.51987 0.0
H1175 H 0.29106 0.07234 0.4794 0.0
H1176 H 0.24316 0.03154 0.4733 0.0
H1177 H 0.29041 0.03692 0.46056 0.0
C1178 C 0.22385 0.94042 0.43829 0.0
C1179 C 0.25283 0.93127 0.4292 0.0
C1180 C 0.22985 0.95789 0.46128 0.0
C1181 C 0.26494 0.96652 0.47547 0.0
C1182 C 0.29246 0.95546 0.46694 0.0
H1183 H 0.38932 0.12645 0.59214 0.0
H1184 H 0.36682 0.09467 0.55227 0.0
C1185 C 0.28654 0.93815 0.44417 0.0
C1186 C 0.27411 0.98754 0.49898 0.0
H1187 H 0.2967 0.07032 0.52296 0.0
C1188 C 0.28058 0.97232 0.52054 0.0
C1189 C 0.2805 0.02356 0.49982 0.0
C1190 C 0.27633 0.04231 0.47702 0.0
C1191 C 0.29328 0.99193 0.54274 0.0
C1192 C 0.29868 0.02759 0.54378 0.0
C1193 C 0.2923 0.04294 0.52225 0.0
C1194 C 0.3107 0.04898 0.56718 0.0
C1195 C 0.30202 0.97455 0.56468 0.0
C1196 C 0.28604 0.03467 0.58858 0.0
C1197 C 0.29896 0.05248 0.61122 0.0
C1198 C 0.33661 0.08548 0.61305 0.0
C1199 C 0.36024 0.10107 0.59135 0.0
C1200 C 0.3474 0.08289 0.56859 0.0
H1201 H 0.30815 0.95249 0.55888 0.0
H1202 H 0.32894 0.99508 0.57519 0.0
H1203 H 0.27476 0.9622 0.57732 0.0
H1204 H 0.25708 0.00916 0.5879 0.0
H1205 H 0.27961 0.03995 0.62747 0.0
H1206 H 0.90952 0.23506 0.60313 0.0
H1207 H 0.93495 0.23967 0.56065 0.0
H1208 H 1.00941 0.19365 0.58416 0.0
H1209 H 0.98339 0.18857 0.62695 0.0
H1210 H 0.05376 0.26326 0.55944 0.0
H1211 H 0.91852 0.16735 0.50481 0.0
H1212 H 0.90826 0.19544 0.52515 0.0
H1213 H 0.92095 0.16295 0.53802 0.0
C1214 C 0.92998 0.22448 0.59906 0.0
C1215 C 0.94386 0.21082 0.61828 0.0
C1216 C 0.94462 0.22723 0.57474 0.0
C1217 C 0.97392 0.2168 0.56906 0.0
C1218 C 0.98652 0.20156 0.58802 0.0
H1219 H 0.0733 0.25081 0.41537 0.0
H1220 H 0.04821 0.22291 0.45664 0.0
C1221 C 0.97128 0.19824 0.6124 0.0
C1222 C 0.99456 0.22604 0.54413 0.0
H1223 H 0.97471 0.2161 0.48198 0.0
C1224 C 0.03663 0.25242 0.54251 0.0
C1225 C 0.97238 0.21193 0.52197 0.0
C1226 C 0.9276 0.18259 0.52249 0.0
C1227 C 0.05645 0.26638 0.51945 0.0
C1228 C 0.03367 0.25378 0.49735 0.0
C1229 C 0.99218 0.22599 0.49889 0.0
C1230 C 0.05146 0.27106 0.47271 0.0
C1231 C 0.10148 0.29514 0.5189 0.0
C1232 C 0.06177 0.3074 0.468 0.0
C1233 C 0.07579 0.32327 0.44448 0.0
C1234 C 0.08014 0.30329 0.42505 0.0
C1235 C 0.07078 0.26713 0.42995 0.0
C1236 C 0.05621 0.25107 0.4535 0.0
H1237 H 0.11699 0.29504 0.53635 0.0
H1238 H 0.11773 0.29097 0.50304 0.0
H1239 H 0.10438 0.32247 0.51665 0.0
H1240 H 0.05788 0.32325 0.48237 0.0
H1241 H 0.08248 0.35109 0.44139 0.0
loop_
_geom_bond_atom_site_label_1
_geom_bond_atom_site_label_2
_geom_bond_distance
_geom_bond_site_symmetry_2
_ccdc_geom_bond_type
Co0 N5 2.057 1_554 S
Co0 O17 2.021 . S
Co0 O20 2.062 . S
Co0 O24 2.117 1_554 S
Co0 O25 2.020 1_455 S
C1 O21 1.259 . S
C1 O24 1.258 1_655 S
Co2 N11 2.057 . S
Co2 O18 2.117 . S
Co2 O19 2.020 1_655 S
Co2 O21 2.021 1_554 S
Co2 O26 2.062 . S
C3 N5 1.316 1_554 S
C3 N6 1.347 1_554 S
C3 H8 0.931 . S
C4 N5 1.375 . S
C4 C7 1.350 . S
C4 H9 0.930 . S
N5 Co0 2.057 1_556 S
N5 C3 1.316 1_556 S
N5 C4 1.375 . S
N6 C3 1.347 1_556 S
N6 C7 1.373 . S
C7 C4 1.350 . S
C7 N6 1.373 . S
C7 H28 0.931 . S
H8 C3 0.931 . S
H9 C4 0.930 . S
C10 O17 1.259 . S
C10 O18 1.258 1_455 S
N11 Co2 2.057 . S
N11 C12 1.316 . S
N11 C13 1.375 . S
C12 N11 1.316 . S
C12 N14 1.347 . S
C12 H23 0.931 1_554 S
C13 N11 1.375 . S
C13 C15 1.350 . S
C13 H22 0.930 . S
N14 C12 1.347 . S
N14 C15 1.373 . S
C15 C13 1.350 . S
C15 N14 1.373 . S
C15 H29 0.931 . S
C16 O19 1.256 . S
C16 O20 1.255 . S
O17 Co0 2.021 . S
O17 C10 1.259 . S
O18 Co2 2.117 . S
O18 C10 1.258 1_655 S
O19 Co2 2.020 1_455 S
O19 C16 1.256 . S
O20 Co0 2.062 . S
O20 C16 1.255 . S
O21 C1 1.259 . S
O21 Co2 2.021 1_556 S
H22 C13 0.930 . S
H23 C12 0.931 1_556 S
O24 Co0 2.117 1_556 S
O24 C1 1.258 1_455 S
O25 Co0 2.020 1_655 S
O25 C27 1.256 . S
O26 Co2 2.062 . S
O26 C27 1.255 . S
C27 O25 1.256 . S
C27 O26 1.255 . S
H28 C7 0.931 . S
H29 C15 0.931 . S
Co30 N35 2.057 . S
Co30 O47 2.021 1_554 S
Co30 O50 2.062 . S
Co30 O54 2.117 . S
Co30 O55 2.020 . S
C31 O51 1.259 . S
C31 O54 1.258 . S
Co32 N41 2.057 1_554 S
Co32 O48 2.117 1_554 S
Co32 O49 2.020 . S
Co32 O51 2.021 . S
Co32 O56 2.062 . S
C33 N35 1.316 . S
C33 N36 1.347 . S
C33 H38 0.931 1_554 S
C34 N35 1.375 . S
C34 C37 1.350 . S
C34 H39 0.930 . S
N35 Co30 2.057 . S
N35 C33 1.316 . S
N35 C34 1.375 . S
N36 C33 1.347 . S
N36 C37 1.373 . S
C37 C34 1.350 . S
C37 N36 1.373 . S
C37 H58 0.931 . S
H38 C33 0.931 1_556 S
H39 C34 0.930 . S
C40 O47 1.259 . S
C40 O48 1.258 . S
N41 Co32 2.057 1_556 S
N41 C42 1.316 1_556 S
N41 C43 1.375 . S
C42 N41 1.316 1_554 S
C42 N44 1.347 1_554 S
C42 H53 0.931 . S
C43 N41 1.375 . S
C43 C45 1.350 . S
C43 H52 0.930 . S
N44 C42 1.347 1_556 S
N44 C45 1.373 . S
C45 C43 1.350 . S
C45 N44 1.373 . S
C45 H59 0.931 . S
C46 O49 1.256 . S
C46 O50 1.255 . S
O47 Co30 2.021 1_556 S
O47 C40 1.259 . S
O48 Co32 2.117 1_556 S
O48 C40 1.258 . S
O49 Co32 2.020 . S
O49 C46 1.256 . S
O50 Co30 2.062 . S
O50 C46 1.255 . S
O51 C31 1.259 . S
O51 Co32 2.021 . S
H52 C43 0.930 . S
H53 C42 0.931 . S
O54 Co30 2.117 . S
O54 C31 1.258 . S
O55 Co30 2.020 . S
O55 C57 1.256 . S
O56 Co32 2.062 . S
O56 C57 1.255 . S
C57 O55 1.256 . S
C57 O56 1.255 . S
H58 C37 0.931 . S
H59 C45 0.931 . S
Co60 N65 2.057 1_554 S
Co60 O77 2.021 . S
Co60 O80 2.062 . S
Co60 O84 2.117 1_554 S
Co60 O85 2.020 1_565 S
C61 O81 1.259 . S
C61 O84 1.258 1_545 S
Co62 N71 2.057 . S
Co62 O78 2.117 . S
Co62 O79 2.020 1_545 S
Co62 O81 2.021 1_554 S
Co62 O86 2.062 . S
C63 N65 1.316 1_554 S
C63 N66 1.347 1_554 S
C63 H68 0.931 . S
C64 N65 1.375 . S
C64 C67 1.350 . S
C64 H69 0.930 . S
N65 Co60 2.057 1_556 S
N65 C63 1.316 1_556 S
N65 C64 1.375 . S
N66 C63 1.347 1_556 S
N66 C67 1.373 . S
C67 C64 1.350 . S
C67 N66 1.373 . S
C67 H88 0.931 . S
H68 C63 0.931 . S
H69 C64 0.930 . S
C70 O77 1.259 . S
C70 O78 1.258 1_565 S
N71 Co62 2.057 . S
N71 C72 1.316 . S
N71 C73 1.375 . S
C72 N71 1.316 . S
C72 N74 1.347 . S
C72 H83 0.931 1_554 S
C73 N71 1.375 . S
C73 C75 1.350 . S
C73 H82 0.930 . S
N74 C72 1.347 . S
N74 C75 1.373 . S
C75 C73 1.350 . S
C75 N74 1.373 . S
C75 H89 0.931 . S
C76 O79 1.256 . S
C76 O80 1.255 . S
O77 Co60 2.021 . S
O77 C70 1.259 . S
O78 Co62 2.117 . S
O78 C70 1.258 1_545 S
O79 Co62 2.020 1_565 S
O79 C76 1.256 . S
O80 Co60 2.062 . S
O80 C76 1.255 . S
O81 C61 1.259 . S
O81 Co62 2.021 1_556 S
H82 C73 0.930 . S
H83 C72 0.931 1_556 S
O84 Co60 2.117 1_556 S
O84 C61 1.258 1_565 S
O85 Co60 2.020 1_545 S
O85 C87 1.256 . S
O86 Co62 2.062 . S
O86 C87 1.255 . S
C87 O85 1.256 . S
C87 O86 1.255 . S
H88 C67 0.931 . S
H89 C75 0.931 . S
Co90 N95 2.057 . S
Co90 O107 2.021 . S
Co90 O110 2.062 . S
Co90 O114 2.117 . S
Co90 O115 2.020 . S
C91 O111 1.259 . S
C91 O114 1.258 . S
Co92 N101 2.057 . S
Co92 O108 2.117 . S
Co92 O109 2.020 . S
Co92 O111 2.021 . S
Co92 O116 2.062 . S
C93 N95 1.316 . S
C93 N96 1.347 . S
C93 H98 0.931 . S
C94 N95 1.375 . S
C94 C97 1.350 . S
C94 H99 0.930 . S
N95 Co90 2.057 . S
N95 C93 1.316 . S
N95 C94 1.375 . S
N96 C93 1.347 . S
N96 C97 1.373 . S
C97 C94 1.350 . S
C97 N96 1.373 . S
C97 H118 0.931 . S
H98 C93 0.931 . S
H99 C94 0.930 . S
C100 O107 1.259 . S
C100 O108 1.258 . S
N101 Co92 2.057 . S
N101 C102 1.316 . S
N101 C103 1.375 . S
C102 N101 1.316 . S
C102 N104 1.347 . S
C102 H113 0.931 . S
C103 N101 1.375 . S
C103 C105 1.350 . S
C103 H112 0.930 . S
N104 C102 1.347 . S
N104 C105 1.373 . S
C105 C103 1.350 . S
C105 N104 1.373 . S
C105 H119 0.931 . S
C106 O109 1.256 . S
C106 O110 1.255 . S
O107 Co90 2.021 . S
O107 C100 1.259 . S
O108 Co92 2.117 . S
O108 C100 1.258 . S
O109 Co92 2.020 . S
O109 C106 1.256 . S
O110 Co90 2.062 . S
O110 C106 1.255 . S
O111 C91 1.259 . S
O111 Co92 2.021 . S
H112 C103 0.930 . S
H113 C102 0.931 . S
O114 Co90 2.117 . S
O114 C91 1.258 . S
O115 Co90 2.020 . S
O115 C117 1.256 . S
O116 Co92 2.062 . S
O116 C117 1.255 . S
C117 O115 1.256 . S
C117 O116 1.255 . S
H118 C97 0.931 . S
H119 C105 0.931 . S
Co120 N125 2.057 . S
Co120 O137 2.021 . S
Co120 O140 2.062 . S
Co120 O144 2.117 . S
Co120 O145 2.020 . S
C121 O141 1.259 . S
C121 O144 1.258 . S
Co122 N131 2.057 . S
Co122 O138 2.117 . S
Co122 O139 2.020 . S
Co122 O141 2.021 . S
Co122 O146 2.062 . S
C123 N125 1.316 . S
C123 N126 1.347 . S
C123 H128 0.931 . S
C124 N125 1.375 . S
C124 C127 1.350 . S
C124 H129 0.930 . S
N125 Co120 2.057 . S
N125 C123 1.316 . S
N125 C124 1.375 . S
N126 C123 1.347 . S
N126 C127 1.373 . S
C127 C124 1.350 . S
C127 N126 1.373 . S
C127 H148 0.931 . S
H128 C123 0.931 . S
H129 C124 0.930 . S
C130 O137 1.259 . S
C130 O138 1.258 . S
N131 Co122 2.057 . S
N131 C132 1.316 . S
N131 C133 1.375 . S
C132 N131 1.316 . S
C132 N134 1.347 . S
C132 H143 0.931 . S
C133 N131 1.375 . S
C133 C135 1.350 . S
C133 H142 0.930 . S
N134 C132 1.347 . S
N134 C135 1.373 . S
C135 C133 1.350 . S
C135 N134 1.373 . S
C135 H149 0.931 . S
C136 O139 1.256 . S
C136 O140 1.255 . S
O137 Co120 2.021 . S
O137 C130 1.259 . S
O138 Co122 2.117 . S
O138 C130 1.258 . S
O139 Co122 2.020 . S
O139 C136 1.256 . S
O140 Co120 2.062 . S
O140 C136 1.255 . S
O141 C121 1.259 . S
O141 Co122 2.021 . S
H142 C133 0.930 . S
H143 C132 0.931 . S
O144 Co120 2.117 . S
O144 C121 1.258 . S
O145 Co120 2.020 . S
O145 C147 1.256 . S
O146 Co122 2.062 . S
O146 C147 1.255 . S
C147 O145 1.256 . S
C147 O146 1.255 . S
H148 C127 0.931 . S
H149 C135 0.931 . S
Co150 N155 2.057 . S
Co150 O167 2.021 . S
Co150 O170 2.062 . S
Co150 O174 2.117 . S
Co150 O175 2.020 . S
C151 O171 1.259 . S
C151 O174 1.258 . S
Co152 N161 2.057 . S
Co152 O168 2.117 . S
Co152 O169 2.020 . S
Co152 O171 2.021 . S
Co152 O176 2.062 . S
C153 N155 1.316 . S
C153 N156 1.347 . S
C153 H158 0.931 . S
C154 N155 1.375 . S
C154 C157 1.350 . S
C154 H159 0.930 . S
N155 Co150 2.057 . S
N155 C153 1.316 . S
N155 C154 1.375 . S
N156 C153 1.347 . S
N156 C157 1.373 . S
C157 C154 1.350 . S
C157 N156 1.373 . S
C157 H178 0.931 . S
H158 C153 0.931 . S
H159 C154 0.930 . S
C160 O167 1.259 . S
C160 O168 1.258 . S
N161 Co152 2.057 . S
N161 C162 1.316 . S
N161 C163 1.375 . S
C162 N161 1.316 . S
C162 N164 1.347 . S
C162 H173 0.931 . S
C163 N161 1.375 . S
C163 C165 1.350 . S
C163 H172 0.930 . S
N164 C162 1.347 . S
N164 C165 1.373 . S
C165 C163 1.350 . S
C165 N164 1.373 . S
C165 H179 0.931 . S
C166 O169 1.256 . S
C166 O170 1.255 . S
O167 Co150 2.021 . S
O167 C160 1.259 . S
O168 Co152 2.117 . S
O168 C160 1.258 . S
O169 Co152 2.020 . S
O169 C166 1.256 . S
O170 Co150 2.062 . S
O170 C166 1.255 . S
O171 C151 1.259 . S
O171 Co152 2.021 . S
H172 C163 0.930 . S
H173 C162 0.931 . S
O174 Co150 2.117 . S
O174 C151 1.258 . S
O175 Co150 2.020 . S
O175 C177 1.256 . S
O176 Co152 2.062 . S
O176 C177 1.255 . S
C177 O175 1.256 . S
C177 O176 1.255 . S
H178 C157 0.931 . S
H179 C165 0.931 . S
Co180 N185 2.057 . S
Co180 O197 2.021 . S
Co180 O200 2.062 . S
Co180 O204 2.117 . S
Co180 O205 2.020 . S
C181 O201 1.259 . S
C181 O204 1.258 . S
Co182 N191 2.057 . S
Co182 O198 2.117 . S
Co182 O199 2.020 . S
Co182 O201 2.021 . S
Co182 O206 2.062 . S
C183 N185 1.316 . S
C183 N186 1.347 . S
C183 H188 0.931 . S
C184 N185 1.375 . S
C184 C187 1.350 . S
C184 H189 0.930 . S
N185 Co180 2.057 . S
N185 C183 1.316 . S
N185 C184 1.375 . S
N186 C183 1.347 . S
N186 C187 1.373 . S
C187 C184 1.350 . S
C187 N186 1.373 . S
C187 H208 0.931 . S
H188 C183 0.931 . S
H189 C184 0.930 . S
C190 O197 1.259 . S
C190 O198 1.258 . S
N191 Co182 2.057 . S
N191 C192 1.316 . S
N191 C193 1.375 . S
C192 N191 1.316 . S
C192 N194 1.347 1_545 S
C192 H203 0.931 . S
C193 N191 1.375 . S
C193 C195 1.350 1_545 S
C193 H202 0.930 . S
N194 C192 1.347 1_565 S
N194 C195 1.373 . S
C195 C193 1.350 1_565 S
C195 N194 1.373 . S
C195 H209 0.931 . S
C196 O199 1.256 . S
C196 O200 1.255 . S
O197 Co180 2.021 . S
O197 C190 1.259 . S
O198 Co182 2.117 . S
O198 C190 1.258 . S
O199 Co182 2.020 . S
O199 C196 1.256 . S
O200 Co180 2.062 . S
O200 C196 1.255 . S
O201 C181 1.259 . S
O201 Co182 2.021 . S
H202 C193 0.930 . S
H203 C192 0.931 . S
O204 Co180 2.117 . S
O204 C181 1.258 . S
O205 Co180 2.020 . S
O205 C207 1.256 . S
O206 Co182 2.062 . S
O206 C207 1.255 . S
C207 O205 1.256 . S
C207 O206 1.255 . S
H208 C187 0.931 . S
H209 C195 0.931 . S
Co210 N215 2.057 . S
Co210 O227 2.021 . S
Co210 O230 2.062 . S
Co210 O234 2.117 . S
Co210 O235 2.020 . S
C211 O231 1.259 . S
C211 O234 1.258 . S
Co212 N221 2.057 . S
Co212 O228 2.117 . S
Co212 O229 2.020 . S
Co212 O231 2.021 . S
Co212 O236 2.062 . S
C213 N215 1.316 . S
C213 N216 1.347 . S
C213 H218 0.931 . S
C214 N215 1.375 . S
C214 C217 1.350 . S
C214 H219 0.930 . S
N215 Co210 2.057 . S
N215 C213 1.316 . S
N215 C214 1.375 . S
N216 C213 1.347 . S
N216 C217 1.373 . S
C217 C214 1.350 . S
C217 N216 1.373 . S
C217 H238 0.931 . S
H218 C213 0.931 . S
H219 C214 0.930 . S
C220 O227 1.259 . S
C220 O228 1.258 . S
N221 Co212 2.057 . S
N221 C222 1.316 . S
N221 C223 1.375 . S
C222 N221 1.316 . S
C222 N224 1.347 . S
C222 H233 0.931 . S
C223 N221 1.375 . S
C223 C225 1.350 . S
C223 H232 0.930 . S
N224 C222 1.347 . S
N224 C225 1.373 . S
C225 C223 1.350 . S
C225 N224 1.373 . S
C225 H239 0.931 . S
C226 O229 1.256 . S
C226 O230 1.255 . S
O227 Co210 2.021 . S
O227 C220 1.259 . S
O228 Co212 2.117 . S
O228 C220 1.258 . S
O229 Co212 2.020 . S
O229 C226 1.256 . S
O230 Co210 2.062 . S
O230 C226 1.255 . S
O231 C211 1.259 . S
O231 Co212 2.021 . S
H232 C223 0.930 . S
H233 C222 0.931 . S
O234 Co210 2.117 . S
O234 C211 1.258 . S
O235 Co210 2.020 . S
O235 C237 1.256 . S
O236 Co212 2.062 . S
O236 C237 1.255 . S
C237 O235 1.256 . S
C237 O236 1.255 . S
H238 C217 0.931 . S
H239 C225 0.931 . S
Co240 N245 2.057 . S
Co240 O257 2.021 . S
Co240 O260 2.062 . S
Co240 O264 2.117 . S
Co240 O265 2.020 . S
C241 O261 1.259 . S
C241 O264 1.258 . S
Co242 N251 2.057 . S
Co242 O258 2.117 . S
Co242 O259 2.020 . S
Co242 O261 2.021 . S
Co242 O266 2.062 . S
C243 N245 1.316 . S
C243 N246 1.347 . S
C243 H248 0.931 . S
C244 N245 1.375 . S
C244 C247 1.350 . S
C244 H249 0.930 . S
N245 Co240 2.057 . S
N245 C243 1.316 . S
N245 C244 1.375 . S
N246 C243 1.347 . S
N246 C247 1.373 . S
C247 C244 1.350 . S
C247 N246 1.373 . S
C247 H268 0.931 . S
H248 C243 0.931 . S
H249 C244 0.930 . S
C250 O257 1.259 . S
C250 O258 1.258 . S
N251 Co242 2.057 . S
N251 C252 1.316 . S
N251 C253 1.375 . S
C252 N251 1.316 . S
C252 N254 1.347 . S
C252 H263 0.931 . S
C253 N251 1.375 . S
C253 C255 1.350 . S
C253 H262 0.930 . S
N254 C252 1.347 . S
N254 C255 1.373 . S
C255 C253 1.350 . S
C255 N254 1.373 . S
C255 H269 0.931 . S
C256 O259 1.256 . S
C256 O260 1.255 . S
O257 Co240 2.021 . S
O257 C250 1.259 . S
O258 Co242 2.117 . S
O258 C250 1.258 . S
O259 Co242 2.020 . S
O259 C256 1.256 . S
O260 Co240 2.062 . S
O260 C256 1.255 . S
O261 C241 1.259 . S
O261 Co242 2.021 . S
H262 C253 0.930 . S
H263 C252 0.931 . S
O264 Co240 2.117 . S
O264 C241 1.258 . S
O265 Co240 2.020 . S
O265 C267 1.256 . S
O266 Co242 2.062 . S
O266 C267 1.255 . S
C267 O265 1.256 . S
C267 O266 1.255 . S
H268 C247 0.931 . S
H269 C255 0.931 . S
H270 C278 0.929 . S
H271 C280 0.930 . S
H272 C282 0.930 . S
H273 C285 0.929 . S
H274 C288 0.930 . S
H275 C290 0.960 . S
H276 C290 0.960 . S
H277 C290 0.960 . S
C278 H270 0.929 . S
C278 C279 1.377 1_556 S
C278 C280 1.384 . S
C279 C278 1.377 1_554 S
C279 C285 1.390 . S
C280 H271 0.930 . S
C280 C278 1.384 . S
C280 C281 1.372 1_556 S
C281 C280 1.372 1_554 S
C281 C282 1.400 . S
C281 C286 1.490 . S
C282 H272 0.930 . S
C282 C281 1.400 . S
C282 C285 1.386 . S
H283 C299 0.930 . S
H284 C300 0.931 . S
C285 H273 0.929 . S
C285 C279 1.390 . S
C285 C282 1.386 . S
C286 C281 1.490 . S
C286 C288 1.395 1_554 S
C286 C289 1.403 . S
H287 C293 0.930 . S
C288 H274 0.930 . S
C288 C286 1.395 1_556 S
C288 C291 1.403 . S
C289 C286 1.403 . S
C289 C290 1.524 . S
C289 C293 1.400 . S
C290 H275 0.960 . S
C290 H276 0.960 . S
C290 H277 0.960 . S
C290 C289 1.524 . S
C291 C288 1.403 . S
C291 C292 1.381 1_556 S
C291 C295 1.495 . S
C292 C291 1.381 1_554 S
C292 C293 1.397 . S
C292 C294 1.478 . S
C293 H287 0.930 . S
C293 C289 1.400 . S
C293 C292 1.397 . S
C294 C292 1.478 . S
C294 C296 1.381 1_554 S
C294 C300 1.383 . S
C295 C291 1.495 . S
C295 H301 0.959 . S
C295 H302 0.961 . S
C295 H303 0.960 . S
C296 C294 1.381 1_556 S
C296 C297 1.394 . S
C296 H304 0.930 . S
C297 C296 1.394 . S
C297 C298 1.383 1_556 S
C297 H305 0.929 . S
C298 C297 1.383 1_554 S
C298 C299 1.377 . S
C299 H283 0.930 . S
C299 C298 1.377 . S
C299 C300 1.379 . S
C300 H284 0.931 . S
C300 C294 1.383 . S
C300 C299 1.379 . S
H301 C295 0.959 . S
H302 C295 0.961 . S
H303 C295 0.960 . S
H304 C296 0.930 . S
H305 C297 0.929 . S
H306 C314 0.929 . S
H307 C316 0.930 . S
H308 C318 0.930 . S
H309 C321 0.929 . S
H310 C324 0.930 . S
H311 C326 0.960 . S
H312 C326 0.960 . S
H313 C326 0.949 1_554 S
C314 H306 0.929 . S
C314 C315 1.377 . S
C314 C316 1.384 . S
C315 C314 1.377 . S
C315 C321 1.390 1_556 S
C316 H307 0.930 . S
C316 C314 1.384 . S
C316 C317 1.372 . S
C317 C316 1.372 . S
C317 C318 1.400 1_556 S
C317 C322 1.490 . S
C318 H308 0.930 . S
C318 C317 1.400 1_554 S
C318 C321 1.386 . S
H319 C335 0.930 . S
H320 C336 0.931 . S
C321 H309 0.929 . S
C321 C315 1.390 1_554 S
C321 C318 1.386 . S
C322 C317 1.490 . S
C322 C324 1.395 1_556 S
C322 C325 1.403 . S
H323 C329 0.930 . S
C324 H310 0.930 . S
C324 C322 1.395 1_554 S
C324 C327 1.403 . S
C325 C322 1.403 . S
C325 C326 1.524 . S
C325 C329 1.400 . S
C326 H311 0.960 . S
C326 H312 0.960 . S
C326 H313 0.949 1_556 S
C326 C325 1.524 . S
C327 C324 1.403 . S
C327 C328 1.395 . S
C327 C331 1.495 . S
C328 C327 1.395 . S
C328 C329 1.382 1_554 S
C328 C330 1.478 . S
C329 H323 0.930 . S
C329 C325 1.400 . S
C329 C328 1.382 1_556 S
C330 C328 1.478 . S
C330 C332 1.381 1_554 S
C330 C336 1.383 . S
C331 C327 1.495 . S
C331 H337 0.959 . S
C331 H338 0.961 . S
C331 H339 0.960 1_554 S
C332 C330 1.381 1_556 S
C332 C333 1.394 . S
C332 H340 0.930 . S
C333 C332 1.394 . S
C333 C334 1.383 1_556 S
C333 H341 0.929 . S
C334 C333 1.383 1_554 S
C334 C335 1.377 . S
C335 H319 0.930 . S
C335 C334 1.377 . S
C335 C336 1.379 . S
C336 H320 0.931 . S
C336 C330 1.383 . S
C336 C335 1.379 . S
H337 C331 0.959 . S
H338 C331 0.961 . S
H339 C331 0.960 1_556 S
H340 C332 0.930 . S
H341 C333 0.929 . S
H342 C350 0.929 . S
H343 C352 0.930 . S
H344 C354 0.930 . S
H345 C357 0.929 . S
H346 C360 0.930 . S
H347 C362 0.960 . S
H348 C362 0.960 . S
H349 C362 0.960 . S
C350 H342 0.929 . S
C350 C351 1.377 . S
C350 C352 1.384 . S
C351 C350 1.377 . S
C351 C357 1.390 1_554 S
C352 H343 0.930 . S
C352 C350 1.384 . S
C352 C353 1.372 . S
C353 C352 1.372 . S
C353 C354 1.400 1_554 S
C353 C358 1.490 . S
C354 H344 0.930 . S
C354 C353 1.400 1_556 S
C354 C357 1.386 . S
H355 C371 0.930 . S
H356 C372 0.931 . S
C357 H345 0.929 . S
C357 C351 1.390 1_556 S
C357 C354 1.386 . S
C358 C353 1.490 . S
C358 C360 1.395 . S
C358 C361 1.403 1_554 S
H359 C365 0.930 . S
C360 H346 0.930 . S
C360 C358 1.395 . S
C360 C363 1.403 . S
C361 C358 1.403 1_556 S
C361 C362 1.524 . S
C361 C365 1.400 . S
C362 H347 0.960 . S
C362 H348 0.960 . S
C362 H349 0.960 . S
C362 C361 1.524 . S
C363 C360 1.403 . S
C363 C364 1.392 . S
C363 C367 1.495 . S
C364 C363 1.392 . S
C364 C365 1.385 1_554 S
C364 C366 1.478 . S
C365 H359 0.930 . S
C365 C361 1.400 . S
C365 C364 1.385 1_556 S
C366 C364 1.478 . S
C366 C368 1.381 . S
C366 C372 1.383 1_554 S
C367 C363 1.495 . S
C367 H373 0.959 . S
C367 H374 0.961 . S
C367 H375 0.960 . S
C368 C366 1.381 . S
C368 C369 1.394 . S
C368 H376 0.930 . S
C369 C368 1.394 . S
C369 C370 1.383 . S
C369 H377 0.929 . S
C370 C369 1.383 . S
C370 C371 1.377 1_554 S
C371 H355 0.930 . S
C371 C370 1.377 1_556 S
C371 C372 1.379 . S
C372 H356 0.931 . S
C372 C366 1.383 1_556 S
C372 C371 1.379 . S
H373 C367 0.959 . S
H374 C367 0.961 . S
H375 C367 0.960 . S
H376 C368 0.930 . S
H377 C369 0.929 . S
H378 C386 0.929 . S
H379 C388 0.930 . S
H380 C390 0.930 . S
H381 C393 0.929 . S
H382 C396 0.930 . S
H383 C398 0.960 . S
H384 C398 0.960 . S
H385 C398 0.960 1_554 S
C386 H378 0.929 . S
C386 C387 1.377 1_556 S
C386 C388 1.384 . S
C387 C386 1.377 1_554 S
C387 C393 1.390 . S
C388 H379 0.930 . S
C388 C386 1.384 . S
C388 C389 1.372 1_556 S
C389 C388 1.372 1_554 S
C389 C390 1.400 . S
C389 C394 1.490 . S
C390 H380 0.930 . S
C390 C389 1.400 . S
C390 C393 1.386 . S
H391 C407 0.930 . S
H392 C408 0.931 . S
C393 H381 0.929 . S
C393 C387 1.390 . S
C393 C390 1.386 . S
C394 C389 1.490 . S
C394 C396 1.395 . S
C394 C397 1.403 . S
H395 C401 0.937 . S
C396 H382 0.930 . S
C396 C394 1.395 . S
C396 C399 1.403 . S
C397 C394 1.403 . S
C397 C398 1.524 1_554 S
C397 C401 1.400 . S
C398 H383 0.960 . S
C398 H384 0.960 . S
C398 H385 0.960 1_556 S
C398 C397 1.524 1_556 S
C399 C396 1.403 . S
C399 C400 1.392 . S
C399 C403 1.495 . S
C400 C399 1.392 . S
C400 C401 1.385 . S
C400 C402 1.478 . S
C401 H395 0.937 . S
C401 C397 1.400 . S
C401 C400 1.385 . S
C402 C400 1.478 . S
C402 C404 1.381 1_554 S
C402 C408 1.383 . S
C403 C399 1.495 . S
C403 H409 0.959 . S
C403 H410 0.961 . S
C403 H411 0.960 . S
C404 C402 1.381 1_556 S
C404 C405 1.394 . S
C404 H412 0.930 . S
C405 C404 1.394 . S
C405 C406 1.383 1_556 S
C405 H413 0.929 . S
C406 C405 1.383 1_554 S
C406 C407 1.377 . S
C407 H391 0.930 . S
C407 C406 1.377 . S
C407 C408 1.379 . S
C408 H392 0.931 . S
C408 C402 1.383 . S
C408 C407 1.379 . S
H409 C403 0.959 . S
H410 C403 0.961 . S
H411 C403 0.960 . S
H412 C404 0.930 . S
H413 C405 0.929 . S
H414 C422 0.929 . S
H415 C424 0.930 . S
H416 C426 0.930 . S
H417 C429 0.929 . S
H418 C432 0.930 . S
H419 C434 0.960 . S
H420 C434 0.960 . S
H421 C434 0.960 . S
C422 H414 0.929 . S
C422 C423 1.377 1_556 S
C422 C424 1.384 . S
C423 C422 1.377 1_554 S
C423 C429 1.390 . S
C424 H415 0.930 . S
C424 C422 1.384 . S
C424 C425 1.372 1_556 S
C425 C424 1.372 1_554 S
C425 C426 1.400 . S
C425 C430 1.490 . S
C426 H416 0.930 . S
C426 C425 1.400 . S
C426 C429 1.386 . S
H427 C443 0.930 . S
H428 C444 0.931 . S
C429 H417 0.929 . S
C429 C423 1.390 . S
C429 C426 1.386 . S
C430 C425 1.490 . S
C430 C432 1.395 . S
C430 C433 1.403 1_554 S
H431 C437 0.930 . S
C432 H418 0.930 . S
C432 C430 1.395 . S
C432 C435 1.403 . S
C433 C430 1.403 1_556 S
C433 C434 1.524 . S
C433 C437 1.400 . S
C434 H419 0.960 . S
C434 H420 0.960 . S
C434 H421 0.960 . S
C434 C433 1.524 . S
C435 C432 1.403 . S
C435 C436 1.392 . S
C435 C439 1.495 . S
C436 C435 1.392 . S
C436 C437 1.385 1_554 S
C436 C438 1.478 . S
C437 H431 0.930 . S
C437 C433 1.400 . S
C437 C436 1.385 1_556 S
C438 C436 1.478 . S
C438 C440 1.403 . S
C438 C444 1.383 . S
C439 C435 1.495 . S
C439 H445 0.959 . S
C439 H446 0.961 . S
C439 H447 0.960 . S
C440 C438 1.403 . S
C440 C441 1.394 . S
C440 H448 0.910 1_554 S
C441 C440 1.394 . S
C441 C442 1.388 . S
C441 H449 0.925 1_554 S
C442 C441 1.388 . S
C442 C443 1.377 . S
C443 H427 0.930 . S
C443 C442 1.377 . S
C443 C444 1.379 . S
C444 H428 0.931 . S
C444 C438 1.383 . S
C444 C443 1.379 . S
H445 C439 0.959 . S
H446 C439 0.961 . S
H447 C439 0.960 . S
H448 C440 0.910 1_556 S
H449 C441 0.925 1_556 S
H450 C458 0.929 . S
H451 C460 0.930 . S
H452 C462 0.930 . S
H453 C465 0.929 . S
H454 C468 0.930 . S
H455 C470 0.960 . S
H456 C470 0.960 1_554 S
H457 C470 0.960 . S
C458 H450 0.929 . S
C458 C459 1.377 . S
C458 C460 1.384 . S
C459 C458 1.377 . S
C459 C465 1.390 1_554 S
C460 H451 0.930 . S
C460 C458 1.384 . S
C460 C461 1.372 . S
C461 C460 1.372 . S
C461 C462 1.400 1_554 S
C461 C466 1.490 . S
C462 H452 0.930 . S
C462 C461 1.400 1_556 S
C462 C465 1.386 . S
H463 C479 0.930 . S
H464 C480 0.931 . S
C465 H453 0.929 . S
C465 C459 1.390 1_556 S
C465 C462 1.386 . S
C466 C461 1.490 . S
C466 C468 1.395 . S
C466 C469 1.403 . S
H467 C473 0.920 1_556 S
C468 H454 0.930 . S
C468 C466 1.395 . S
C468 C471 1.403 . S
C469 C466 1.403 . S
C469 C470 1.524 1_554 S
C469 C473 1.400 . S
C470 H455 0.960 . S
C470 H456 0.960 1_556 S
C470 H457 0.960 . S
C470 C469 1.524 1_556 S
C471 C468 1.403 . S
C471 C472 1.392 . S
C471 C475 1.495 . S
C472 C471 1.392 . S
C472 C473 1.385 . S
C472 C474 1.478 . S
C473 H467 0.920 1_554 S
C473 C469 1.400 . S
C473 C472 1.385 . S
C474 C472 1.478 . S
C474 C476 1.381 . S
C474 C480 1.383 1_554 S
C475 C471 1.495 . S
C475 H481 0.959 . S
C475 H482 0.961 . S
C475 H483 0.960 . S
C476 C474 1.381 . S
C476 C477 1.394 . S
C476 H484 0.930 . S
C477 C476 1.394 . S
C477 C478 1.383 . S
C477 H485 0.929 . S
C478 C477 1.383 . S
C478 C479 1.377 1_554 S
C479 H463 0.930 . S
C479 C478 1.377 1_556 S
C479 C480 1.379 . S
C480 H464 0.931 . S
C480 C474 1.383 1_556 S
C480 C479 1.379 . S
H481 C475 0.959 . S
H482 C475 0.961 . S
H483 C475 0.960 . S
H484 C476 0.930 . S
H485 C477 0.929 . S
H486 C494 0.929 . S
H487 C496 0.930 . S
H488 C498 0.930 . S
H489 C501 0.929 . S
H490 C504 0.930 . S
H491 C506 0.960 . S
H492 C506 0.960 . S
H493 C506 0.960 . S
C494 H486 0.929 . S
C494 C495 1.377 . S
C494 C496 1.384 . S
C495 C494 1.377 . S
C495 C501 1.390 . S
C496 H487 0.930 . S
C496 C494 1.384 . S
C496 C497 1.372 . S
C497 C496 1.372 . S
C497 C498 1.400 . S
C497 C502 1.490 . S
C498 H488 0.930 . S
C498 C497 1.400 . S
C498 C501 1.386 . S
H499 C515 0.930 . S
H500 C516 0.931 1_655 S
C501 H489 0.929 . S
C501 C495 1.390 . S
C501 C498 1.386 . S
C502 C497 1.490 . S
C502 C504 1.395 . S
C502 C505 1.403 . S
H503 C509 0.930 . S
C504 H490 0.930 . S
C504 C502 1.395 . S
C504 C507 1.403 . S
C505 C502 1.403 . S
C505 C506 1.524 . S
C505 C509 1.400 . S
C506 H491 0.960 . S
C506 H492 0.960 . S
C506 H493 0.960 . S
C506 C505 1.524 . S
C507 C504 1.403 . S
C507 C508 1.392 . S
C507 C511 1.495 . S
C508 C507 1.392 . S
C508 C509 1.385 . S
C508 C510 1.478 . S
C509 H503 0.930 . S
C509 C505 1.400 . S
C509 C508 1.385 . S
C510 C508 1.478 . S
C510 C512 1.381 1_655 S
C510 C516 1.383 1_655 S
C511 C507 1.495 . S
C511 H517 0.959 . S
C511 H518 0.961 . S
C511 H519 0.960 . S
C512 C510 1.381 1_455 S
C512 C513 1.394 . S
C512 H520 0.930 1_455 S
C513 C512 1.394 . S
C513 C514 1.383 . S
C513 H521 0.929 . S
C514 C513 1.383 . S
C514 C515 1.377 . S
C515 H499 0.930 . S
C515 C514 1.377 . S
C515 C516 1.379 . S
C516 H500 0.931 1_455 S
C516 C510 1.383 1_455 S
C516 C515 1.379 . S
H517 C511 0.959 . S
H518 C511 0.961 . S
H519 C511 0.960 . S
H520 C512 0.930 1_655 S
H521 C513 0.929 . S
H522 C530 0.929 . S
H523 C532 0.930 . S
H524 C534 0.930 . S
H525 C537 0.929 . S
H526 C540 0.930 . S
H527 C542 0.960 . S
H528 C542 0.960 . S
H529 C542 0.960 . S
C530 H522 0.929 . S
C530 C531 1.377 . S
C530 C532 1.384 . S
C531 C530 1.377 . S
C531 C537 1.390 . S
C532 H523 0.930 . S
C532 C530 1.384 . S
C532 C533 1.372 . S
C533 C532 1.372 . S
C533 C534 1.400 . S
C533 C538 1.490 . S
C534 H524 0.930 . S
C534 C533 1.400 . S
C534 C537 1.386 . S
H535 C551 0.930 . S
H536 C552 0.931 . S
C537 H525 0.929 . S
C537 C531 1.390 . S
C537 C534 1.386 . S
C538 C533 1.490 . S
C538 C540 1.395 . S
C538 C541 1.403 . S
H539 C545 0.930 . S
C540 H526 0.930 . S
C540 C538 1.395 . S
C540 C543 1.403 . S
C541 C538 1.403 . S
C541 C542 1.524 . S
C541 C545 1.400 . S
C542 H527 0.960 . S
C542 H528 0.960 . S
C542 H529 0.960 . S
C542 C541 1.524 . S
C543 C540 1.403 . S
C543 C544 1.392 . S
C543 C547 1.495 . S
C544 C543 1.392 . S
C544 C545 1.385 . S
C544 C546 1.478 . S
C545 H539 0.930 . S
C545 C541 1.400 . S
C545 C544 1.385 . S
C546 C544 1.478 . S
C546 C548 1.381 . S
C546 C552 1.383 . S
C547 C543 1.495 . S
C547 H553 0.959 . S
C547 H554 0.961 . S
C547 H555 0.960 . S
C548 C546 1.381 . S
C548 C549 1.394 . S
C548 H556 0.930 . S
C549 C548 1.394 . S
C549 C550 1.383 1_545 S
C549 H557 0.929 . S
C550 C549 1.383 1_565 S
C550 C551 1.377 . S
C551 H535 0.930 . S
C551 C550 1.377 . S
C551 C552 1.379 1_565 S
C552 H536 0.931 . S
C552 C546 1.383 . S
C552 C551 1.379 1_545 S
H553 C547 0.959 . S
H554 C547 0.961 . S
H555 C547 0.960 . S
H556 C548 0.930 . S
H557 C549 0.929 . S
H558 C566 0.929 . S
H559 C568 0.930 . S
H560 C570 0.930 . S
H561 C573 0.929 . S
H562 C576 0.930 . S
H563 C578 0.960 . S
H564 C578 0.960 . S
H565 C578 0.960 . S
C566 H558 0.929 . S
C566 C567 1.377 1_655 S
C566 C568 1.384 . S
C567 C566 1.377 1_455 S
C567 C573 1.390 . S
C568 H559 0.930 . S
C568 C566 1.384 . S
C568 C569 1.372 . S
C569 C568 1.372 . S
C569 C570 1.400 . S
C569 C574 1.490 . S
C570 H560 0.930 . S
C570 C569 1.400 . S
C570 C573 1.386 1_655 S
H571 C587 0.930 . S
H572 C588 0.931 . S
C573 H561 0.929 . S
C573 C567 1.390 . S
C573 C570 1.386 1_455 S
C574 C569 1.490 . S
C574 C576 1.395 . S
C574 C577 1.403 . S
H575 C581 0.930 . S
C576 H562 0.930 . S
C576 C574 1.395 . S
C576 C579 1.403 . S
C577 C574 1.403 . S
C577 C578 1.524 . S
C577 C581 1.400 . S
C578 H563 0.960 . S
C578 H564 0.960 . S
C578 H565 0.960 . S
C578 C577 1.524 . S
C579 C576 1.403 . S
C579 C580 1.392 . S
C579 C583 1.495 . S
C580 C579 1.392 . S
C580 C581 1.385 . S
C580 C582 1.478 . S
C581 H575 0.930 . S
C581 C577 1.400 . S
C581 C580 1.385 . S
C582 C580 1.478 . S
C582 C584 1.381 . S
C582 C588 1.383 . S
C583 C579 1.495 . S
C583 H589 0.959 . S
C583 H590 0.961 . S
C583 H591 0.960 . S
C584 C582 1.381 . S
C584 C585 1.394 1_545 S
C584 H592 0.930 . S
C585 C584 1.394 1_565 S
C585 C586 1.383 . S
C585 H593 0.929 . S
C586 C585 1.383 . S
C586 C587 1.377 . S
C587 H571 0.930 . S
C587 C586 1.377 . S
C587 C588 1.379 1_565 S
C588 H572 0.931 . S
C588 C582 1.383 . S
C588 C587 1.379 1_545 S
H589 C583 0.959 . S
H590 C583 0.961 . S
H591 C583 0.960 . S
H592 C584 0.930 . S
H593 C585 0.929 . S
H594 C602 0.929 . S
H595 C604 0.930 . S
H596 C606 0.930 . S
H597 C609 0.929 . S
H598 C612 0.930 . S
H599 C614 0.960 . S
H600 C614 0.960 . S
H601 C614 0.960 . S
C602 H594 0.929 . S
C602 C603 1.377 . S
C602 C604 1.384 . S
C603 C602 1.377 . S
C603 C609 1.390 . S
C604 H595 0.930 . S
C604 C602 1.384 . S
C604 C605 1.372 . S
C605 C604 1.372 . S
C605 C606 1.400 . S
C605 C610 1.490 . S
C606 H596 0.930 . S
C606 C605 1.400 . S
C606 C609 1.386 . S
H607 C623 0.930 . S
H608 C624 0.931 . S
C609 H597 0.929 . S
C609 C603 1.390 . S
C609 C606 1.386 . S
C610 C605 1.490 . S
C610 C612 1.395 . S
C610 C613 1.403 . S
H611 C617 0.930 . S
C612 H598 0.930 . S
C612 C610 1.395 . S
C612 C615 1.403 . S
C613 C610 1.403 . S
C613 C614 1.524 . S
C613 C617 1.400 . S
C614 H599 0.960 . S
C614 H600 0.960 . S
C614 H601 0.960 . S
C614 C613 1.524 . S
C615 C612 1.403 . S
C615 C616 1.392 . S
C615 C619 1.495 . S
C616 C615 1.392 . S
C616 C617 1.385 . S
C616 C618 1.478 . S
C617 H611 0.930 . S
C617 C613 1.400 . S
C617 C616 1.385 . S
C618 C616 1.478 . S
C618 C620 1.381 . S
C618 C624 1.383 . S
C619 C615 1.495 . S
C619 H625 0.959 . S
C619 H626 0.961 . S
C619 H627 0.960 . S
C620 C618 1.381 . S
C620 C621 1.394 . S
C620 H628 0.930 . S
C621 C620 1.394 . S
C621 C622 1.383 . S
C621 H629 0.929 . S
C622 C621 1.383 . S
C622 C623 1.377 . S
C623 H607 0.930 . S
C623 C622 1.377 . S
C623 C624 1.379 . S
C624 H608 0.931 . S
C624 C618 1.383 . S
C624 C623 1.379 . S
H625 C619 0.959 . S
H626 C619 0.961 . S
H627 C619 0.960 . S
H628 C620 0.930 . S
H629 C621 0.929 . S
H630 C638 0.929 . S
H631 C640 0.930 . S
H632 C642 0.930 . S
H633 C645 0.929 . S
H634 C648 0.930 . S
H635 C650 0.960 . S
H636 C650 0.960 . S
H637 C650 0.960 . S
C638 H630 0.929 . S
C638 C639 1.377 . S
C638 C640 1.384 . S
C639 C638 1.377 . S
C639 C645 1.390 . S
C640 H631 0.930 . S
C640 C638 1.384 . S
C640 C641 1.372 . S
C641 C640 1.372 . S
C641 C642 1.400 . S
C641 C646 1.490 . S
C642 H632 0.930 . S
C642 C641 1.400 . S
C642 C645 1.386 . S
H643 C659 0.930 . S
H644 C660 0.931 . S
C645 H633 0.929 . S
C645 C639 1.390 . S
C645 C642 1.386 . S
C646 C641 1.490 . S
C646 C648 1.395 . S
C646 C649 1.403 . S
H647 C653 0.930 . S
C648 H634 0.930 . S
C648 C646 1.395 . S
C648 C651 1.403 . S
C649 C646 1.403 . S
C649 C650 1.524 . S
C649 C653 1.400 . S
C650 H635 0.960 . S
C650 H636 0.960 . S
C650 H637 0.960 . S
C650 C649 1.524 . S
C651 C648 1.403 . S
C651 C652 1.392 . S
C651 C655 1.495 . S
C652 C651 1.392 . S
C652 C653 1.385 . S
C652 C654 1.478 . S
C653 H647 0.930 . S
C653 C649 1.400 . S
C653 C652 1.385 . S
C654 C652 1.478 . S
C654 C656 1.381 . S
C654 C660 1.383 . S
C655 C651 1.495 . S
C655 H661 0.959 . S
C655 H662 0.961 . S
C655 H663 0.960 . S
C656 C654 1.381 . S
C656 C657 1.394 . S
C656 H664 0.930 . S
C657 C656 1.394 . S
C657 C658 1.383 . S
C657 H665 0.929 . S
C658 C657 1.383 . S
C658 C659 1.377 . S
C659 H643 0.930 . S
C659 C658 1.377 . S
C659 C660 1.379 . S
C660 H644 0.931 . S
C660 C654 1.383 . S
C660 C659 1.379 . S
H661 C655 0.959 . S
H662 C655 0.961 . S
H663 C655 0.960 . S
H664 C656 0.930 . S
H665 C657 0.929 . S
H666 C674 0.929 . S
H667 C676 0.930 . S
H668 C678 0.930 . S
H669 C681 0.929 . S
H670 C684 0.930 . S
H671 C686 0.960 . S
H672 C686 0.960 . S
H673 C686 0.960 . S
C674 H666 0.929 . S
C674 C675 1.377 . S
C674 C676 1.384 . S
C675 C674 1.377 . S
C675 C681 1.390 . S
C676 H667 0.930 . S
C676 C674 1.384 . S
C676 C677 1.372 . S
C677 C676 1.372 . S
C677 C678 1.400 . S
C677 C682 1.490 . S
C678 H668 0.930 . S
C678 C677 1.400 . S
C678 C681 1.386 . S
H679 C695 0.930 . S
H680 C696 0.931 . S
C681 H669 0.929 . S
C681 C675 1.390 . S
C681 C678 1.386 . S
C682 C677 1.490 . S
C682 C684 1.395 . S
C682 C685 1.403 . S
H683 C689 0.930 . S
C684 H670 0.930 . S
C684 C682 1.395 . S
C684 C687 1.403 . S
C685 C682 1.403 . S
C685 C686 1.524 . S
C685 C689 1.400 . S
C686 H671 0.960 . S
C686 H672 0.960 . S
C686 H673 0.960 . S
C686 C685 1.524 . S
C687 C684 1.403 . S
C687 C688 1.392 . S
C687 C691 1.495 . S
C688 C687 1.392 . S
C688 C689 1.385 . S
C688 C690 1.478 . S
C689 H683 0.930 . S
C689 C685 1.400 . S
C689 C688 1.385 . S
C690 C688 1.478 . S
C690 C692 1.381 . S
C690 C696 1.383 . S
C691 C687 1.495 . S
C691 H697 0.959 . S
C691 H698 0.961 . S
C691 H699 0.960 . S
C692 C690 1.381 . S
C692 C693 1.394 . S
C692 H700 0.930 . S
C693 C692 1.394 . S
C693 C694 1.383 . S
C693 H701 0.929 . S
C694 C693 1.383 . S
C694 C695 1.377 . S
C695 H679 0.930 . S
C695 C694 1.377 . S
C695 C696 1.379 . S
C696 H680 0.931 . S
C696 C690 1.383 . S
C696 C695 1.379 . S
H697 C691 0.959 . S
H698 C691 0.961 . S
H699 C691 0.960 . S
H700 C692 0.930 . S
H701 C693 0.929 . S
H702 C710 0.929 . S
H703 C712 0.930 . S
H704 C714 0.930 . S
H705 C717 0.929 . S
H706 C720 0.930 . S
H707 C722 0.960 . S
H708 C722 0.960 . S
H709 C722 0.960 . S
C710 H702 0.929 . S
C710 C711 1.377 . S
C710 C712 1.384 . S
C711 C710 1.377 . S
C711 C717 1.390 . S
C712 H703 0.930 . S
C712 C710 1.384 . S
C712 C713 1.372 . S
C713 C712 1.372 . S
C713 C714 1.400 . S
C713 C718 1.490 . S
C714 H704 0.930 . S
C714 C713 1.400 . S
C714 C717 1.386 . S
H715 C731 0.930 . S
H716 C732 0.931 . S
C717 H705 0.929 . S
C717 C711 1.390 . S
C717 C714 1.386 . S
C718 C713 1.490 . S
C718 C720 1.395 . S
C718 C721 1.403 . S
H719 C725 0.930 . S
C720 H706 0.930 . S
C720 C718 1.395 . S
C720 C723 1.403 . S
C721 C718 1.403 . S
C721 C722 1.524 . S
C721 C725 1.400 . S
C722 H707 0.960 . S
C722 H708 0.960 . S
C722 H709 0.960 . S
C722 C721 1.524 . S
C723 C720 1.403 . S
C723 C724 1.392 . S
C723 C727 1.495 . S
C724 C723 1.392 . S
C724 C725 1.385 . S
C724 C726 1.478 . S
C725 H719 0.930 . S
C725 C721 1.400 . S
C725 C724 1.385 . S
C726 C724 1.478 . S
C726 C728 1.381 . S
C726 C732 1.383 . S
C727 C723 1.495 . S
C727 H733 0.959 . S
C727 H734 0.961 . S
C727 H735 0.960 . S
C728 C726 1.381 . S
C728 C729 1.394 . S
C728 H736 0.930 . S
C729 C728 1.394 . S
C729 C730 1.383 . S
C729 H737 0.929 . S
C730 C729 1.383 . S
C730 C731 1.377 . S
C731 H715 0.930 . S
C731 C730 1.377 . S
C731 C732 1.379 . S
C732 H716 0.931 . S
C732 C726 1.383 . S
C732 C731 1.379 . S
H733 C727 0.959 . S
H734 C727 0.961 . S
H735 C727 0.960 . S
H736 C728 0.930 . S
H737 C729 0.929 . S
H738 C746 0.929 . S
H739 C748 0.930 . S
H740 C750 0.930 . S
H741 C753 0.929 . S
H742 C756 0.930 . S
H743 C758 0.960 . S
H744 C758 0.960 . S
H745 C758 0.960 . S
C746 H738 0.929 . S
C746 C747 1.377 . S
C746 C748 1.384 . S
C747 C746 1.377 . S
C747 C753 1.390 . S
C748 H739 0.930 . S
C748 C746 1.384 . S
C748 C749 1.372 . S
C749 C748 1.372 . S
C749 C750 1.400 . S
C749 C754 1.490 . S
C750 H740 0.930 . S
C750 C749 1.400 . S
C750 C753 1.386 . S
H751 C767 0.930 . S
H752 C768 0.931 . S
C753 H741 0.929 . S
C753 C747 1.390 . S
C753 C750 1.386 . S
C754 C749 1.490 . S
C754 C756 1.395 . S
C754 C757 1.403 . S
H755 C761 0.930 . S
C756 H742 0.930 . S
C756 C754 1.395 . S
C756 C759 1.403 . S
C757 C754 1.403 . S
C757 C758 1.524 . S
C757 C761 1.400 . S
C758 H743 0.960 . S
C758 H744 0.960 . S
C758 H745 0.960 . S
C758 C757 1.524 . S
C759 C756 1.403 . S
C759 C760 1.392 . S
C759 C763 1.495 . S
C760 C759 1.392 . S
C760 C761 1.385 . S
C760 C762 1.478 . S
C761 H755 0.930 . S
C761 C757 1.400 . S
C761 C760 1.385 . S
C762 C760 1.478 . S
C762 C764 1.381 . S
C762 C768 1.383 . S
C763 C759 1.495 . S
C763 H769 0.959 . S
C763 H770 0.961 . S
C763 H771 0.960 . S
C764 C762 1.381 . S
C764 C765 1.394 . S
C764 H772 0.930 . S
C765 C764 1.394 . S
C765 C766 1.383 . S
C765 H773 0.929 . S
C766 C765 1.383 . S
C766 C767 1.377 . S
C767 H751 0.930 . S
C767 C766 1.377 . S
C767 C768 1.379 . S
C768 H752 0.931 . S
C768 C762 1.383 . S
C768 C767 1.379 . S
H769 C763 0.959 . S
H770 C763 0.961 . S
H771 C763 0.960 . S
H772 C764 0.930 . S
H773 C765 0.929 . S
H774 C782 0.929 . S
H775 C784 0.930 . S
H776 C786 0.930 . S
H777 C789 0.929 . S
H778 C792 0.930 . S
H779 C794 0.960 . S
H780 C794 0.960 . S
H781 C794 0.960 . S
C782 H774 0.929 . S
C782 C783 1.377 . S
C782 C784 1.384 . S
C783 C782 1.377 . S
C783 C789 1.390 . S
C784 H775 0.930 . S
C784 C782 1.384 . S
C784 C785 1.372 . S
C785 C784 1.372 . S
C785 C786 1.400 . S
C785 C790 1.490 . S
C786 H776 0.930 . S
C786 C785 1.400 . S
C786 C789 1.386 . S
H787 C803 0.930 . S
H788 C804 0.931 . S
C789 H777 0.929 . S
C789 C783 1.390 . S
C789 C786 1.386 . S
C790 C785 1.490 . S
C790 C792 1.395 . S
C790 C793 1.403 . S
H791 C797 0.930 . S
C792 H778 0.930 . S
C792 C790 1.395 . S
C792 C795 1.403 . S
C793 C790 1.403 . S
C793 C794 1.524 . S
C793 C797 1.400 . S
C794 H779 0.960 . S
C794 H780 0.960 . S
C794 H781 0.960 . S
C794 C793 1.524 . S
C795 C792 1.403 . S
C795 C796 1.392 . S
C795 C799 1.495 . S
C796 C795 1.392 . S
C796 C797 1.385 . S
C796 C798 1.478 . S
C797 H791 0.930 . S
C797 C793 1.400 . S
C797 C796 1.385 . S
C798 C796 1.478 . S
C798 C800 1.381 . S
C798 C804 1.383 . S
C799 C795 1.495 . S
C799 H805 0.959 . S
C799 H806 0.961 . S
C799 H807 0.960 . S
C800 C798 1.381 . S
C800 C801 1.394 . S
C800 H808 0.930 . S
C801 C800 1.394 . S
C801 C802 1.383 . S
C801 H809 0.929 . S
C802 C801 1.383 . S
C802 C803 1.377 . S
C803 H787 0.930 . S
C803 C802 1.377 . S
C803 C804 1.379 . S
C804 H788 0.931 . S
C804 C798 1.383 . S
C804 C803 1.379 . S
H805 C799 0.959 . S
H806 C799 0.961 . S
H807 C799 0.960 . S
H808 C800 0.930 . S
H809 C801 0.929 . S
H810 C818 0.929 . S
H811 C820 0.930 . S
H812 C822 0.930 . S
H813 C825 0.929 . S
H814 C828 0.930 . S
H815 C830 0.960 . S
H816 C830 0.960 . S
H817 C830 0.960 . S
C818 H810 0.929 . S
C818 C819 1.377 . S
C818 C820 1.384 . S
C819 C818 1.377 . S
C819 C825 1.390 . S
C820 H811 0.930 . S
C820 C818 1.384 . S
C820 C821 1.372 . S
C821 C820 1.372 . S
C821 C822 1.400 . S
C821 C826 1.490 . S
C822 H812 0.930 . S
C822 C821 1.400 . S
C822 C825 1.386 . S
H823 C839 0.930 . S
H824 C840 0.931 . S
C825 H813 0.929 . S
C825 C819 1.390 . S
C825 C822 1.386 . S
C826 C821 1.490 . S
C826 C828 1.395 . S
C826 C829 1.403 . S
H827 C833 0.930 . S
C828 H814 0.930 . S
C828 C826 1.395 . S
C828 C831 1.403 . S
C829 C826 1.403 . S
C829 C830 1.524 . S
C829 C833 1.400 . S
C830 H815 0.960 . S
C830 H816 0.960 . S
C830 H817 0.960 . S
C830 C829 1.524 . S
C831 C828 1.403 . S
C831 C832 1.392 . S
C831 C835 1.495 . S
C832 C831 1.392 . S
C832 C833 1.385 . S
C832 C834 1.478 1_565 S
C833 H827 0.930 . S
C833 C829 1.400 . S
C833 C832 1.385 . S
C834 C832 1.478 1_545 S
C834 C836 1.381 . S
C834 C840 1.383 . S
C835 C831 1.495 . S
C835 H841 0.959 . S
C835 H842 0.961 . S
C835 H843 0.960 . S
C836 C834 1.381 . S
C836 C837 1.394 . S
C836 H844 0.930 . S
C837 C836 1.394 . S
C837 C838 1.383 . S
C837 H845 0.929 . S
C838 C837 1.383 . S
C838 C839 1.377 . S
C839 H823 0.930 . S
C839 C838 1.377 . S
C839 C840 1.379 . S
C840 H824 0.931 . S
C840 C834 1.383 . S
C840 C839 1.379 . S
H841 C835 0.959 . S
H842 C835 0.961 . S
H843 C835 0.960 . S
H844 C836 0.930 . S
H845 C837 0.929 . S
H846 C854 0.929 . S
H847 C856 0.930 . S
H848 C858 0.930 . S
H849 C861 0.929 . S
H850 C864 0.930 1_655 S
H851 C866 0.960 . S
H852 C866 0.960 . S
H853 C866 0.960 . S
C854 H846 0.929 . S
C854 C855 1.377 . S
C854 C856 1.384 . S
C855 C854 1.377 . S
C855 C861 1.390 . S
C856 H847 0.930 . S
C856 C854 1.384 . S
C856 C857 1.372 . S
C857 C856 1.372 . S
C857 C858 1.400 . S
C857 C862 1.490 . S
C858 H848 0.930 . S
C858 C857 1.400 . S
C858 C861 1.386 . S
H859 C875 0.930 . S
H860 C876 0.931 . S
C861 H849 0.929 . S
C861 C855 1.390 . S
C861 C858 1.386 . S
C862 C857 1.490 . S
C862 C864 1.395 1_655 S
C862 C865 1.403 1_655 S
H863 C869 0.930 . S
C864 H850 0.930 1_455 S
C864 C862 1.395 1_455 S
C864 C867 1.403 . S
C865 C862 1.403 1_455 S
C865 C866 1.524 . S
C865 C869 1.400 . S
C866 H851 0.960 . S
C866 H852 0.960 . S
C866 H853 0.960 . S
C866 C865 1.524 . S
C867 C864 1.403 . S
C867 C868 1.392 . S
C867 C871 1.495 . S
C868 C867 1.392 . S
C868 C869 1.385 . S
C868 C870 1.478 . S
C869 H863 0.930 . S
C869 C865 1.400 . S
C869 C868 1.385 . S
C870 C868 1.478 . S
C870 C872 1.381 . S
C870 C876 1.383 . S
C871 C867 1.495 . S
C871 H877 0.959 . S
C871 H878 0.961 . S
C871 H879 0.960 . S
C872 C870 1.381 . S
C872 C873 1.394 . S
C872 H880 0.930 . S
C873 C872 1.394 . S
C873 C874 1.383 . S
C873 H881 0.929 . S
C874 C873 1.383 . S
C874 C875 1.377 . S
C875 H859 0.930 . S
C875 C874 1.377 . S
C875 C876 1.379 . S
C876 H860 0.931 . S
C876 C870 1.383 . S
C876 C875 1.379 . S
H877 C871 0.959 . S
H878 C871 0.961 . S
H879 C871 0.960 . S
H880 C872 0.930 . S
H881 C873 0.929 . S
H882 C890 0.929 . S
H883 C892 0.930 . S
H884 C894 0.930 . S
H885 C897 0.929 . S
H886 C900 0.930 . S
H887 C902 0.960 . S
H888 C902 0.960 . S
H889 C902 0.960 . S
C890 H882 0.929 . S
C890 C891 1.377 . S
C890 C892 1.384 . S
C891 C890 1.377 . S
C891 C897 1.390 . S
C892 H883 0.930 . S
C892 C890 1.384 . S
C892 C893 1.372 . S
C893 C892 1.372 . S
C893 C894 1.400 . S
C893 C898 1.490 . S
C894 H884 0.930 . S
C894 C893 1.400 . S
C894 C897 1.386 . S
H895 C911 0.930 . S
H896 C912 0.931 . S
C897 H885 0.929 . S
C897 C891 1.390 . S
C897 C894 1.386 . S
C898 C893 1.490 . S
C898 C900 1.395 . S
C898 C901 1.403 . S
H899 C905 0.930 . S
C900 H886 0.930 . S
C900 C898 1.395 . S
C900 C903 1.403 . S
C901 C898 1.403 . S
C901 C902 1.524 . S
C901 C905 1.400 . S
C902 H887 0.960 . S
C902 H888 0.960 . S
C902 H889 0.960 . S
C902 C901 1.524 . S
C903 C900 1.403 . S
C903 C904 1.392 . S
C903 C907 1.495 . S
C904 C903 1.392 . S
C904 C905 1.385 . S
C904 C906 1.478 . S
C905 H899 0.930 . S
C905 C901 1.400 . S
C905 C904 1.385 . S
C906 C904 1.478 . S
C906 C908 1.381 . S
C906 C912 1.383 . S
C907 C903 1.495 . S
C907 H913 0.959 . S
C907 H914 0.961 . S
C907 H915 0.960 . S
C908 C906 1.381 . S
C908 C909 1.394 . S
C908 H916 0.930 . S
C909 C908 1.394 . S
C909 C910 1.383 . S
C909 H917 0.929 . S
C910 C909 1.383 . S
C910 C911 1.377 . S
C911 H895 0.930 . S
C911 C910 1.377 . S
C911 C912 1.379 . S
C912 H896 0.931 . S
C912 C906 1.383 . S
C912 C911 1.379 . S
H913 C907 0.959 . S
H914 C907 0.961 . S
H915 C907 0.960 . S
H916 C908 0.930 . S
H917 C909 0.929 . S
H918 C926 0.929 . S
H919 C928 0.930 . S
H920 C930 0.930 . S
H921 C933 0.929 . S
H922 C936 0.930 . S
H923 C938 0.960 . S
H924 C938 0.960 . S
H925 C938 0.960 . S
C926 H918 0.929 . S
C926 C927 1.377 . S
C926 C928 1.384 . S
C927 C926 1.377 . S
C927 C933 1.390 . S
C928 H919 0.930 . S
C928 C926 1.384 . S
C928 C929 1.372 . S
C929 C928 1.372 . S
C929 C930 1.400 . S
C929 C934 1.490 . S
C930 H920 0.930 . S
C930 C929 1.400 . S
C930 C933 1.386 . S
H931 C947 0.930 1_655 S
H932 C948 0.931 1_655 S
C933 H921 0.929 . S
C933 C927 1.390 . S
C933 C930 1.386 . S
C934 C929 1.490 . S
C934 C936 1.395 . S
C934 C937 1.403 . S
H935 C941 0.930 . S
C936 H922 0.930 . S
C936 C934 1.395 . S
C936 C939 1.403 . S
C937 C934 1.403 . S
C937 C938 1.524 . S
C937 C941 1.400 . S
C938 H923 0.960 . S
C938 H924 0.960 . S
C938 H925 0.960 . S
C938 C937 1.524 . S
C939 C936 1.403 . S
C939 C940 1.392 . S
C939 C943 1.495 . S
C940 C939 1.392 . S
C940 C941 1.385 . S
C940 C942 1.478 . S
C941 H935 0.930 . S
C941 C937 1.400 . S
C941 C940 1.385 . S
C942 C940 1.478 . S
C942 C944 1.381 . S
C942 C948 1.383 . S
C943 C939 1.495 . S
C943 H949 0.959 . S
C943 H950 0.961 . S
C943 H951 0.960 . S
C944 C942 1.381 . S
C944 C945 1.394 . S
C944 H952 0.930 . S
C945 C944 1.394 . S
C945 C946 1.383 . S
C945 H953 0.929 . S
C946 C945 1.383 . S
C946 C947 1.377 . S
C947 H931 0.930 1_455 S
C947 C946 1.377 . S
C947 C948 1.379 . S
C948 H932 0.931 1_455 S
C948 C942 1.383 . S
C948 C947 1.379 . S
H949 C943 0.959 . S
H950 C943 0.961 . S
H951 C943 0.960 . S
H952 C944 0.930 . S
H953 C945 0.929 . S
H954 C962 0.929 . S
H955 C964 0.930 . S
H956 C966 0.930 . S
H957 C969 0.929 . S
H958 C972 0.930 . S
H959 C974 0.960 . S
H960 C974 0.960 . S
H961 C974 0.960 . S
C962 H954 0.929 . S
C962 C963 1.377 . S
C962 C964 1.384 . S
C963 C962 1.377 . S
C963 C969 1.390 . S
C964 H955 0.930 . S
C964 C962 1.384 . S
C964 C965 1.372 . S
C965 C964 1.372 . S
C965 C966 1.400 . S
C965 C970 1.490 . S
C966 H956 0.930 . S
C966 C965 1.400 . S
C966 C969 1.386 . S
H967 C983 0.930 . S
H968 C984 0.931 . S
C969 H957 0.929 . S
C969 C963 1.390 . S
C969 C966 1.386 . S
C970 C965 1.490 . S
C970 C972 1.395 . S
C970 C973 1.403 . S
H971 C977 0.930 . S
C972 H958 0.930 . S
C972 C970 1.395 . S
C972 C975 1.403 . S
C973 C970 1.403 . S
C973 C974 1.524 . S
C973 C977 1.400 . S
C974 H959 0.960 . S
C974 H960 0.960 . S
C974 H961 0.960 . S
C974 C973 1.524 . S
C975 C972 1.403 . S
C975 C976 1.392 . S
C975 C979 1.495 . S
C976 C975 1.392 . S
C976 C977 1.385 . S
C976 C978 1.478 . S
C977 H971 0.930 . S
C977 C973 1.400 . S
C977 C976 1.385 . S
C978 C976 1.478 . S
C978 C980 1.381 . S
C978 C984 1.383 . S
C979 C975 1.495 . S
C979 H985 0.959 . S
C979 H986 0.961 . S
C979 H987 0.960 . S
C980 C978 1.381 . S
C980 C981 1.394 . S
C980 H988 0.930 . S
C981 C980 1.394 . S
C981 C982 1.383 . S
C981 H989 0.929 . S
C982 C981 1.383 . S
C982 C983 1.377 . S
C983 H967 0.930 . S
C983 C982 1.377 . S
C983 C984 1.379 . S
C984 H968 0.931 . S
C984 C978 1.383 . S
C984 C983 1.379 . S
H985 C979 0.959 . S
H986 C979 0.961 . S
H987 C979 0.960 . S
H988 C980 0.930 . S
H989 C981 0.929 . S
H990 C998 0.929 . S
H991 C1000 0.930 . S
H992 C1002 0.930 1_545 S
H993 C1005 0.929 . S
H994 C1008 0.930 . S
H995 C1010 0.960 . S
H996 C1010 0.960 . S
H997 C1010 0.960 . S
C998 H990 0.929 . S
C998 C999 1.377 . S
C998 C1000 1.384 . S
C999 C998 1.377 . S
C999 C1005 1.390 1_565 S
C1000 H991 0.930 . S
C1000 C998 1.384 . S
C1000 C1001 1.372 . S
C1001 C1000 1.372 . S
C1001 C1002 1.400 . S
C1001 C1006 1.490 . S
C1002 H992 0.930 1_565 S
C1002 C1001 1.400 . S
C1002 C1005 1.386 1_565 S
H1003 C1019 0.930 . S
H1004 C1020 0.931 . S
C1005 H993 0.929 . S
C1005 C999 1.390 1_545 S
C1005 C1002 1.386 1_545 S
C1006 C1001 1.490 . S
C1006 C1008 1.395 . S
C1006 C1009 1.403 . S
H1007 C1013 0.930 . S
C1008 H994 0.930 . S
C1008 C1006 1.395 . S
C1008 C1011 1.403 . S
C1009 C1006 1.403 . S
C1009 C1010 1.524 . S
C1009 C1013 1.400 . S
C1010 H995 0.960 . S
C1010 H996 0.960 . S
C1010 H997 0.960 . S
C1010 C1009 1.524 . S
C1011 C1008 1.403 . S
C1011 C1012 1.392 . S
C1011 C1015 1.495 . S
C1012 C1011 1.392 . S
C1012 C1013 1.385 . S
C1012 C1014 1.478 . S
C1013 H1007 0.930 . S
C1013 C1009 1.400 . S
C1013 C1012 1.385 . S
C1014 C1012 1.478 . S
C1014 C1016 1.381 . S
C1014 C1020 1.383 . S
C1015 C1011 1.495 . S
C1015 H1021 0.959 . S
C1015 H1022 0.961 . S
C1015 H1023 0.960 . S
C1016 C1014 1.381 . S
C1016 C1017 1.394 . S
C1016 H1024 0.930 . S
C1017 C1016 1.394 . S
C1017 C1018 1.383 . S
C1017 H1025 0.929 . S
C1018 C1017 1.383 . S
C1018 C1019 1.377 . S
C1019 H1003 0.930 . S
C1019 C1018 1.377 . S
C1019 C1020 1.379 . S
C1020 H1004 0.931 . S
C1020 C1014 1.383 . S
C1020 C1019 1.379 . S
H1021 C1015 0.959 . S
H1022 C1015 0.961 . S
H1023 C1015 0.960 . S
H1024 C1016 0.930 . S
H1025 C1017 0.929 . S
H1026 C1034 0.929 . S
H1027 C1036 0.930 . S
H1028 C1038 0.930 . S
H1029 C1041 0.929 . S
H1030 C1044 0.930 . S
H1031 C1046 0.960 . S
H1032 C1046 0.960 . S
H1033 C1046 0.960 . S
C1034 H1026 0.929 . S
C1034 C1035 1.377 . S
C1034 C1036 1.384 . S
C1035 C1034 1.377 . S
C1035 C1041 1.390 . S
C1036 H1027 0.930 . S
C1036 C1034 1.384 . S
C1036 C1037 1.372 . S
C1037 C1036 1.372 . S
C1037 C1038 1.400 . S
C1037 C1042 1.490 . S
C1038 H1028 0.930 . S
C1038 C1037 1.400 . S
C1038 C1041 1.386 . S
H1039 C1055 0.930 . S
H1040 C1056 0.931 . S
C1041 H1029 0.929 . S
C1041 C1035 1.390 . S
C1041 C1038 1.386 . S
C1042 C1037 1.490 . S
C1042 C1044 1.395 . S
C1042 C1045 1.403 . S
H1043 C1049 0.930 . S
C1044 H1030 0.930 . S
C1044 C1042 1.395 . S
C1044 C1047 1.403 . S
C1045 C1042 1.403 . S
C1045 C1046 1.524 . S
C1045 C1049 1.400 . S
C1046 H1031 0.960 . S
C1046 H1032 0.960 . S
C1046 H1033 0.960 . S
C1046 C1045 1.524 . S
C1047 C1044 1.403 . S
C1047 C1048 1.392 . S
C1047 C1051 1.495 . S
C1048 C1047 1.392 . S
C1048 C1049 1.385 . S
C1048 C1050 1.478 . S
C1049 H1043 0.930 . S
C1049 C1045 1.400 . S
C1049 C1048 1.385 . S
C1050 C1048 1.478 . S
C1050 C1052 1.381 . S
C1050 C1056 1.383 . S
C1051 C1047 1.495 . S
C1051 H1057 0.959 1_545 S
C1051 H1058 0.961 . S
C1051 H1059 0.960 . S
C1052 C1050 1.381 . S
C1052 C1053 1.394 . S
C1052 H1060 0.930 . S
C1053 C1052 1.394 . S
C1053 C1054 1.383 . S
C1053 H1061 0.929 . S
C1054 C1053 1.383 . S
C1054 C1055 1.377 . S
C1055 H1039 0.930 . S
C1055 C1054 1.377 . S
C1055 C1056 1.379 . S
C1056 H1040 0.931 . S
C1056 C1050 1.383 . S
C1056 C1055 1.379 . S
H1057 C1051 0.959 1_565 S
H1058 C1051 0.961 . S
H1059 C1051 0.960 . S
H1060 C1052 0.930 . S
H1061 C1053 0.929 . S
H1062 C1070 0.929 . S
H1063 C1072 0.930 . S
H1064 C1074 0.930 . S
H1065 C1077 0.929 1_455 S
H1066 C1080 0.930 . S
H1067 C1082 0.960 . S
H1068 C1082 0.960 . S
H1069 C1082 0.960 . S
C1070 H1062 0.929 . S
C1070 C1071 1.377 . S
C1070 C1072 1.384 . S
C1071 C1070 1.377 . S
C1071 C1077 1.390 . S
C1072 H1063 0.930 . S
C1072 C1070 1.384 . S
C1072 C1073 1.372 . S
C1073 C1072 1.372 . S
C1073 C1074 1.400 . S
C1073 C1078 1.490 . S
C1074 H1064 0.930 . S
C1074 C1073 1.400 . S
C1074 C1077 1.386 . S
H1075 C1091 0.930 . S
H1076 C1092 0.931 . S
C1077 H1065 0.929 1_655 S
C1077 C1071 1.390 . S
C1077 C1074 1.386 . S
C1078 C1073 1.490 . S
C1078 C1080 1.395 . S
C1078 C1081 1.403 . S
H1079 C1085 0.930 . S
C1080 H1066 0.930 . S
C1080 C1078 1.395 . S
C1080 C1083 1.403 . S
C1081 C1078 1.403 . S
C1081 C1082 1.524 . S
C1081 C1085 1.400 . S
C1082 H1067 0.960 . S
C1082 H1068 0.960 . S
C1082 H1069 0.960 . S
C1082 C1081 1.524 . S
C1083 C1080 1.403 . S
C1083 C1084 1.392 . S
C1083 C1087 1.495 . S
C1084 C1083 1.392 . S
C1084 C1085 1.385 . S
C1084 C1086 1.478 . S
C1085 H1079 0.930 . S
C1085 C1081 1.400 . S
C1085 C1084 1.385 . S
C1086 C1084 1.478 . S
C1086 C1088 1.381 . S
C1086 C1092 1.383 . S
C1087 C1083 1.495 . S
C1087 H1093 0.959 . S
C1087 H1094 0.961 . S
C1087 H1095 0.960 . S
C1088 C1086 1.381 . S
C1088 C1089 1.394 . S
C1088 H1096 0.930 . S
C1089 C1088 1.394 . S
C1089 C1090 1.383 . S
C1089 H1097 0.929 . S
C1090 C1089 1.383 . S
C1090 C1091 1.377 . S
C1091 H1075 0.930 . S
C1091 C1090 1.377 . S
C1091 C1092 1.379 . S
C1092 H1076 0.931 . S
C1092 C1086 1.383 . S
C1092 C1091 1.379 . S
H1093 C1087 0.959 . S
H1094 C1087 0.961 . S
H1095 C1087 0.960 . S
H1096 C1088 0.930 . S
H1097 C1089 0.929 . S
H1098 C1106 0.929 . S
H1099 C1108 0.930 . S
H1100 C1110 0.930 . S
H1101 C1113 0.929 . S
H1102 C1116 0.930 . S
H1103 C1118 0.960 . S
H1104 C1118 0.960 . S
H1105 C1118 0.960 . S
C1106 H1098 0.929 . S
C1106 C1107 1.377 . S
C1106 C1108 1.384 . S
C1107 C1106 1.377 . S
C1107 C1113 1.390 . S
C1108 H1099 0.930 . S
C1108 C1106 1.384 . S
C1108 C1109 1.372 . S
C1109 C1108 1.372 . S
C1109 C1110 1.400 . S
C1109 C1114 1.490 . S
C1110 H1100 0.930 . S
C1110 C1109 1.400 . S
C1110 C1113 1.386 . S
H1111 C1127 0.930 . S
H1112 C1128 0.931 . S
C1113 H1101 0.929 . S
C1113 C1107 1.390 . S
C1113 C1110 1.386 . S
C1114 C1109 1.490 . S
C1114 C1116 1.395 . S
C1114 C1117 1.403 . S
H1115 C1121 0.930 . S
C1116 H1102 0.930 . S
C1116 C1114 1.395 . S
C1116 C1119 1.403 . S
C1117 C1114 1.403 . S
C1117 C1118 1.524 . S
C1117 C1121 1.400 . S
C1118 H1103 0.960 . S
C1118 H1104 0.960 . S
C1118 H1105 0.960 . S
C1118 C1117 1.524 . S
C1119 C1116 1.403 . S
C1119 C1120 1.392 . S
C1119 C1123 1.495 . S
C1120 C1119 1.392 . S
C1120 C1121 1.385 . S
C1120 C1122 1.478 . S
C1121 H1115 0.930 . S
C1121 C1117 1.400 . S
C1121 C1120 1.385 . S
C1122 C1120 1.478 . S
C1122 C1124 1.381 . S
C1122 C1128 1.383 . S
C1123 C1119 1.495 . S
C1123 H1129 0.959 . S
C1123 H1130 0.961 . S
C1123 H1131 0.960 . S
C1124 C1122 1.381 . S
C1124 C1125 1.394 . S
C1124 H1132 0.930 . S
C1125 C1124 1.394 . S
C1125 C1126 1.383 . S
C1125 H1133 0.929 . S
C1126 C1125 1.383 . S
C1126 C1127 1.377 . S
C1127 H1111 0.930 . S
C1127 C1126 1.377 . S
C1127 C1128 1.379 . S
C1128 H1112 0.931 . S
C1128 C1122 1.383 . S
C1128 C1127 1.379 . S
H1129 C1123 0.959 . S
H1130 C1123 0.961 . S
H1131 C1123 0.960 . S
H1132 C1124 0.930 . S
H1133 C1125 0.929 . S
H1134 C1142 0.929 . S
H1135 C1144 0.930 . S
H1136 C1146 0.930 . S
H1137 C1149 0.929 . S
H1138 C1152 0.930 . S
H1139 C1154 0.960 . S
H1140 C1154 0.960 . S
H1141 C1154 0.960 . S
C1142 H1134 0.929 . S
C1142 C1143 1.377 . S
C1142 C1144 1.384 . S
C1143 C1142 1.377 . S
C1143 C1149 1.390 . S
C1144 H1135 0.930 . S
C1144 C1142 1.384 . S
C1144 C1145 1.372 . S
C1145 C1144 1.372 . S
C1145 C1146 1.400 . S
C1145 C1150 1.490 . S
C1146 H1136 0.930 . S
C1146 C1145 1.400 . S
C1146 C1149 1.386 . S
H1147 C1163 0.930 . S
H1148 C1164 0.931 . S
C1149 H1137 0.929 . S
C1149 C1143 1.390 . S
C1149 C1146 1.386 . S
C1150 C1145 1.490 . S
C1150 C1152 1.395 . S
C1150 C1153 1.403 . S
H1151 C1157 0.930 . S
C1152 H1138 0.930 . S
C1152 C1150 1.395 . S
C1152 C1155 1.403 . S
C1153 C1150 1.403 . S
C1153 C1154 1.524 . S
C1153 C1157 1.400 . S
C1154 H1139 0.960 . S
C1154 H1140 0.960 . S
C1154 H1141 0.960 . S
C1154 C1153 1.524 . S
C1155 C1152 1.403 . S
C1155 C1156 1.392 . S
C1155 C1159 1.495 . S
C1156 C1155 1.392 . S
C1156 C1157 1.385 . S
C1156 C1158 1.478 . S
C1157 H1151 0.930 . S
C1157 C1153 1.400 . S
C1157 C1156 1.385 . S
C1158 C1156 1.478 . S
C1158 C1160 1.381 . S
C1158 C1164 1.383 . S
C1159 C1155 1.495 . S
C1159 H1165 0.959 . S
C1159 H1166 0.961 . S
C1159 H1167 0.960 . S
C1160 C1158 1.381 . S
C1160 C1161 1.394 . S
C1160 H1168 0.930 . S
C1161 C1160 1.394 . S
C1161 C1162 1.383 . S
C1161 H1169 0.929 . S
C1162 C1161 1.383 . S
C1162 C1163 1.377 . S
C1163 H1147 0.930 . S
C1163 C1162 1.377 . S
C1163 C1164 1.379 . S
C1164 H1148 0.931 . S
C1164 C1158 1.383 . S
C1164 C1163 1.379 . S
H1165 C1159 0.959 . S
H1166 C1159 0.961 . S
H1167 C1159 0.960 . S
H1168 C1160 0.930 . S
H1169 C1161 0.929 . S
H1170 C1178 0.929 . S
H1171 C1180 0.930 . S
H1172 C1182 0.930 1_545 S
H1173 C1185 0.929 . S
H1174 C1188 0.930 . S
H1175 C1190 0.960 . S
H1176 C1190 0.960 . S
H1177 C1190 0.960 . S
C1178 H1170 0.929 . S
C1178 C1179 1.377 . S
C1178 C1180 1.384 . S
C1179 C1178 1.377 . S
C1179 C1185 1.390 . S
C1180 H1171 0.930 . S
C1180 C1178 1.384 . S
C1180 C1181 1.372 . S
C1181 C1180 1.372 . S
C1181 C1182 1.400 . S
C1181 C1186 1.490 . S
C1182 H1172 0.930 1_565 S
C1182 C1181 1.400 . S
C1182 C1185 1.386 . S
H1183 C1199 0.930 . S
H1184 C1200 0.931 . S
C1185 H1173 0.929 . S
C1185 C1179 1.390 . S
C1185 C1182 1.386 . S
C1186 C1181 1.490 . S
C1186 C1188 1.395 . S
C1186 C1189 1.403 1_565 S
H1187 C1193 0.930 . S
C1188 H1174 0.930 . S
C1188 C1186 1.395 . S
C1188 C1191 1.403 . S
C1189 C1186 1.403 1_545 S
C1189 C1190 1.524 . S
C1189 C1193 1.400 . S
C1190 H1175 0.960 . S
C1190 H1176 0.960 . S
C1190 H1177 0.960 . S
C1190 C1189 1.524 . S
C1191 C1188 1.403 . S
C1191 C1192 1.392 1_565 S
C1191 C1195 1.495 . S
C1192 C1191 1.392 1_545 S
C1192 C1193 1.385 . S
C1192 C1194 1.478 . S
C1193 H1187 0.930 . S
C1193 C1189 1.400 . S
C1193 C1192 1.385 . S
C1194 C1192 1.478 . S
C1194 C1196 1.381 . S
C1194 C1200 1.383 . S
C1195 C1191 1.495 . S
C1195 H1201 0.959 . S
C1195 H1202 0.961 1_565 S
C1195 H1203 0.960 . S
C1196 C1194 1.381 . S
C1196 C1197 1.394 . S
C1196 H1204 0.930 . S
C1197 C1196 1.394 . S
C1197 C1198 1.383 . S
C1197 H1205 0.929 . S
C1198 C1197 1.383 . S
C1198 C1199 1.377 . S
C1199 H1183 0.930 . S
C1199 C1198 1.377 . S
C1199 C1200 1.379 . S
C1200 H1184 0.931 . S
C1200 C1194 1.383 . S
C1200 C1199 1.379 . S
H1201 C1195 0.959 . S
H1202 C1195 0.961 1_545 S
H1203 C1195 0.960 . S
H1204 C1196 0.930 . S
H1205 C1197 0.929 . S
H1206 C1214 0.929 . S
H1207 C1216 0.930 . S
H1208 C1218 0.930 . S
H1209 C1221 0.929 . S
H1210 C1224 0.930 . S
H1211 C1226 0.960 . S
H1212 C1226 0.960 . S
H1213 C1226 0.960 . S
C1214 H1206 0.929 . S
C1214 C1215 1.377 . S
C1214 C1216 1.384 . S
C1215 C1214 1.377 . S
C1215 C1221 1.390 . S
C1216 H1207 0.930 . S
C1216 C1214 1.384 . S
C1216 C1217 1.372 . S
C1217 C1216 1.372 . S
C1217 C1218 1.400 . S
C1217 C1222 1.490 . S
C1218 H1208 0.930 . S
C1218 C1217 1.400 . S
C1218 C1221 1.386 . S
H1219 C1235 0.930 . S
H1220 C1236 0.931 . S
C1221 H1209 0.929 . S
C1221 C1215 1.390 . S
C1221 C1218 1.386 . S
C1222 C1217 1.490 . S
C1222 C1224 1.395 1_655 S
C1222 C1225 1.403 . S
H1223 C1229 0.930 . S
C1224 H1210 0.930 . S
C1224 C1222 1.395 1_455 S
C1224 C1227 1.403 . S
C1225 C1222 1.403 . S
C1225 C1226 1.524 . S
C1225 C1229 1.400 . S
C1226 H1211 0.960 . S
C1226 H1212 0.960 . S
C1226 H1213 0.960 . S
C1226 C1225 1.524 . S
C1227 C1224 1.403 . S
C1227 C1228 1.392 . S
C1227 C1231 1.495 . S
C1228 C1227 1.392 . S
C1228 C1229 1.385 1_455 S
C1228 C1230 1.478 . S
C1229 H1223 0.930 . S
C1229 C1225 1.400 . S
C1229 C1228 1.385 1_655 S
C1230 C1228 1.478 . S
C1230 C1232 1.381 . S
C1230 C1236 1.383 . S
C1231 C1227 1.495 . S
C1231 H1237 0.959 . S
C1231 H1238 0.961 . S
C1231 H1239 0.960 . S
C1232 C1230 1.381 . S
C1232 C1233 1.394 . S
C1232 H1240 0.930 . S
C1233 C1232 1.394 . S
C1233 C1234 1.383 . S
C1233 H1241 0.929 . S
C1234 C1233 1.383 . S
C1234 C1235 1.377 . S
C1235 H1219 0.930 . S
C1235 C1234 1.377 . S
C1235 C1236 1.379 . S
C1236 H1220 0.931 . S
C1236 C1230 1.383 . S
C1236 C1235 1.379 . S
H1237 C1231 0.959 . S
H1238 C1231 0.961 . S
H1239 C1231 0.960 . S
H1240 C1232 0.930 . S
H1241 C1233 0.929 . S
C279 C57 1.592 . S
C298 C16 1.574 . S
C315 N66 0.360 . S
C334 N44 0.424 1_554 S
C351 C76 0.927 . S
C370 N6 0.942 1_554 S
C387 N74 0.389 . S
C406 N36 0.306 . S
C423 C87 0.752 . S
C442 N14 0.716 . S
C459 C27 1.795 . S
C478 C46 1.764 . S
C495 C106 0.357 . S
C514 N126 0.400 . S
C531 N156 1.183 . S
C550 C136 1.201 . S
C567 C166 1.017 . S
C586 N96 1.010 . S
C603 C147 1.627 . S
C622 N164 1.611 . S
C639 C177 0.652 . S
C658 N104 0.627 . S
C675 N134 0.642 . S
C694 C117 0.594 . S
C711 C237 1.613 . S
C730 C196 1.577 . S
C747 N224 0.340 . S
C766 N246 0.323 . S
C783 C256 0.939 . S
C802 N186 0.957 . S
C819 N254 0.377 . S
C838 N216 0.369 . S
C855 C267 0.741 . S
C874 N194 0.708 . S
C891 C207 1.779 . S
C910 C226 1.747 1_455 S
C927 C151 2.095 . S
C946 C10 2.138 . S
C963 C91 2.185 . S
C982 C31 2.208 . S
C999 C70 1.995 . S
C1018 C121 1.919 . S
C1035 C61 2.082 . S
C1054 C190 2.127 . S
C1071 C1 2.204 . S
C1090 C211 2.184 . S
C1107 C250 1.988 . S
C1126 C40 1.975 . S
C1143 C100 2.125 . S
C1162 C241 2.076 . S
C1179 C130 2.273 . S
C1198 C181 2.179 . S
C1215 C220 2.009 . S
C1234 C160 2.017 . S
