# Generated by pormake.
# Topology ecf, (8)-cn, num edge types: 1
# Building blocks:
#     Node 0, Type 0, BuildingBlock: LIZSOE_clean_sbu_0, # of connection points: 8
#     Node 1, Type 0, BuildingBlock: LIZSOE_clean_sbu_0, # of connection points: 8
#     Node 2, Type 0, BuildingBlock: LIZSOE_clean_sbu_0, # of connection points: 8
#     Node 3, Type 0, BuildingBlock: LIZSOE_clean_sbu_0, # of connection points: 8
#     Node 4, Type 0, BuildingBlock: LIZSOE_clean_sbu_0, # of connection points: 8
#     Node 5, Type 0, BuildingBlock: LIZSOE_clean_sbu_0, # of connection points: 8
#     Edge 6, Type (0, 0), BuildingBlock: UVAHIK_clean_linker_0, # of connection points: 2
#     Edge 7, Type (0, 0), BuildingBlock: UVAHIK_clean_linker_0, # of connection points: 2
#     Edge 8, Type (0, 0), BuildingBlock: UVAHIK_clean_linker_0, # of connection points: 2
#     Edge 9, Type (0, 0), BuildingBlock: UVAHIK_clean_linker_0, # of connection points: 2
#     Edge 10, Type (0, 0), BuildingBlock: UVAHIK_clean_linker_0, # of connection points: 2
#     Edge 11, Type (0, 0), BuildingBlock: UVAHIK_clean_linker_0, # of connection points: 2
#     Edge 12, Type (0, 0), BuildingBlock: UVAHIK_clean_linker_0, # of connection points: 2
#     Edge 13, Type (0, 0), BuildingBlock: UVAHIK_clean_linker_0, # of connection points: 2
#     Edge 14, Type (0, 0), BuildingBlock: UVAHIK_clean_linker_0, # of connection points: 2
#     Edge 15, Type (0, 0), BuildingBlock: UVAHIK_clean_linker_0, # of connection points: 2
#     Edge 16, Type (0, 0), BuildingBlock: UVAHIK_clean_linker_0, # of connection points: 2
#     Edge 17, Type (0, 0), BuildingBlock: UVAHIK_clean_linker_0, # of connection points: 2
#     Edge 18, Type (0, 0), BuildingBlock: UVAHIK_clean_linker_0, # of connection points: 2
#     Edge 19, Type (0, 0), BuildingBlock: UVAHIK_clean_linker_0, # of connection points: 2
#     Edge 20, Type (0, 0), BuildingBlock: UVAHIK_clean_linker_0, # of connection points: 2
#     Edge 21, Type (0, 0), BuildingBlock: UVAHIK_clean_linker_0, # of connection points: 2
#     Edge 22, Type (0, 0), BuildingBlock: UVAHIK_clean_linker_0, # of connection points: 2
#     Edge 23, Type (0, 0), BuildingBlock: UVAHIK_clean_linker_0, # of connection points: 2
#     Edge 24, Type (0, 0), BuildingBlock: UVAHIK_clean_linker_0, # of connection points: 2
#     Edge 25, Type (0, 0), BuildingBlock: UVAHIK_clean_linker_0, # of connection points: 2
#     Edge 26, Type (0, 0), BuildingBlock: UVAHIK_clean_linker_0, # of connection points: 2
#     Edge 27, Type (0, 0), BuildingBlock: UVAHIK_clean_linker_0, # of connection points: 2
#     Edge 28, Type (0, 0), BuildingBlock: UVAHIK_clean_linker_0, # of connection points: 2
#     Edge 29, Type (0, 0), BuildingBlock: UVAHIK_clean_linker_0, # of connection points: 2
# Relax obj value: 0.277
# Max RMSD: 0.202
# Mean RMSD: 0.199
data_MOF--net-ecf--node1-LIZSOE_clean_sbu_0--edge1-UVAHIK_clean_linker_0
_symmetry_space_group_name_H-M    P1
_symmetry_Int_Tables_number       1
_symmetry_cell_setting            triclinic
loop_
_symmetry_equiv_pos_as_xyz
'x, y, z'
_cell_length_a     46.335137
_cell_length_b     46.352963
_cell_length_c     28.315624
_cell_angle_alpha  90.101283
_cell_angle_beta   90.17144
_cell_angle_gamma 119.66128
loop_
_atom_site_label
_atom_site_type_symbol
_atom_site_fract_x
_atom_site_fract_y
_atom_site_fract_z
_atom_type_partial_charge
Co0 Co 0.11254 0.26251 0.28256 0.0
N1 N 0.08228 0.22179 0.25833 0.0
C2 C 0.08321 0.19315 0.2585 0.0
N3 N 0.03913 0.18363 0.21673 0.0
C4 C 0.05481 0.21509 0.2333 0.0
C5 C 0.05681 0.16972 0.23261 0.0
Co6 Co 0.25907 0.39778 0.28767 0.0
N7 N 0.29041 0.44005 0.30797 0.0
N8 N 0.33525 0.4906 0.31695 0.0
C9 C 0.31355 0.48595 0.35158 0.0
C10 C 0.28628 0.45506 0.34615 0.0
C11 C 0.32062 0.46226 0.29079 0.0
Co12 Co 0.18529 0.33111 0.28734 0.0
C13 C 0.24409 0.374 0.22417 0.0
H14 H 0.26449 0.44435 0.36836 0.0
O15 O 0.13896 0.30033 0.3108 0.0
O16 O 0.17573 0.36832 0.29607 0.0
O17 O 0.16884 0.32696 0.21998 0.0
O18 O 0.19575 0.29535 0.2784 0.0
O19 O 0.14605 0.25099 0.2721 0.0
O20 O 0.22675 0.41121 0.29 0.0
O21 O 0.23161 0.36005 0.26465 0.0
O22 O 0.25107 0.38298 0.35132 0.0
O23 O 0.1197 0.28019 0.22247 0.0
O24 O 0.10864 0.24942 0.34199 0.0
O25 O 0.20213 0.33573 0.35356 0.0
O26 O 0.26417 0.40604 0.22431 0.0
C27 C 0.14189 0.30499 0.20039 0.0
C28 C 0.3341 0.45667 0.24569 0.0
H29 H 0.32178 0.46149 0.21549 0.0
H30 H 0.36114 0.47326 0.24201 0.0
H31 H 0.32831 0.43043 0.24348 0.0
C32 C 0.19566 0.39945 0.29403 0.0
C33 C 0.17738 0.26469 0.2711 0.0
H34 H 0.10202 0.18956 0.27583 0.0
H35 H 0.01761 0.23003 0.2276 0.0
H36 H 0.05046 0.24827 0.18533 0.0
H37 H 0.0582 0.26261 0.24599 0.0
C38 C 0.04468 0.24053 0.22278 0.0
C39 C 0.12749 0.28131 0.34836 0.0
C40 C 0.22903 0.35764 0.37334 0.0
H41 H 0.0507 0.14426 0.22644 0.0
H42 H 0.31708 0.50393 0.37871 0.0
Co43 Co 0.84329 0.10164 0.78635 0.0
N44 N 0.81911 0.05544 0.78513 0.0
C45 C 0.78632 0.03684 0.77578 0.0
N46 N 0.80361 1.00134 0.79234 0.0
C47 C 0.82899 0.03314 0.79557 0.0
C48 C 0.77689 1.00383 0.7797 0.0
Co49 Co 0.86446 0.25455 0.78094 0.0
N50 N 0.8878 0.30109 0.78482 0.0
N51 N 0.89821 0.35407 0.78865 0.0
C52 C 0.92717 0.35401 0.79263 0.0
C53 C 0.92074 0.32157 0.79043 0.0
C54 C 0.87477 0.32164 0.78341 0.0
Co55 Co 0.85216 0.17727 0.78282 0.0
C56 C 0.82002 0.21818 0.80835 0.0
H57 H 0.9389 0.31344 0.79318 0.0
O58 O 0.86807 0.14429 0.78497 0.0
O59 O 0.88482 0.20191 0.83376 0.0
O60 O 0.81775 0.15155 0.83401 0.0
O61 O 0.81938 0.15236 0.73126 0.0
O62 O 0.81552 0.10269 0.73874 0.0
O63 O 0.89098 0.25275 0.83186 0.0
O64 O 0.83782 0.21111 0.77983 0.0
O65 O 0.89642 0.25514 0.73659 0.0
O66 O 0.81521 0.10188 0.83191 0.0
O67 O 0.87299 0.106 0.74268 0.0
O68 O 0.88653 0.20254 0.73291 0.0
O69 O 0.83229 0.24898 0.82168 0.0
C70 C 0.80635 0.1216 0.84896 0.0
C71 C 0.83873 0.30962 0.77403 0.0
H72 H 0.82547 0.30484 0.80817 0.0
H73 H 0.8355 0.32858 0.75452 0.0
H74 H 0.82756 0.28613 0.75342 0.0
C75 C 0.89811 0.23165 0.84906 0.0
C76 C 0.80709 0.122 0.71928 0.0
H77 H 0.77004 0.04661 0.7673 0.0
H78 H 0.87131 0.02569 0.79272 0.0
H79 H 0.86594 0.04202 0.84769 0.0
H80 H 0.88155 0.06875 0.7976 0.0
C81 C 0.86405 0.04302 0.80874 0.0
C82 C 0.88456 0.13707 0.75421 0.0
C83 C 0.90251 0.233 0.71978 0.0
H84 H 0.75208 0.98312 0.77427 0.0
H85 H 0.95124 0.37587 0.7978 0.0
Co86 Co 0.75762 0.84072 0.26696 0.0
N87 N 0.79095 0.83729 0.23641 0.0
C88 C 0.82243 0.86261 0.23938 0.0
N89 N 0.82409 0.82527 0.1933 0.0
C90 C 0.79274 0.8144 0.20847 0.0
C91 C 0.84271 0.85541 0.21287 0.0
Co92 Co 0.63993 0.88041 0.2782 0.0
N93 N 0.6022 0.88054 0.30001 0.0
N94 N 0.55349 0.87939 0.31022 0.0
C95 C 0.57645 0.90313 0.33832 0.0
C96 C 0.60605 0.90383 0.3319 0.0
C97 C 0.56965 0.86577 0.28732 0.0
Co98 Co 0.69873 0.86052 0.27556 0.0
C99 C 0.66104 0.88488 0.21381 0.0
H100 H 0.6295 0.92145 0.34789 0.0
O101 O 0.72632 0.8413 0.2999 0.0
O102 O 0.65698 0.81851 0.29171 0.0
O103 O 0.69568 0.84238 0.20972 0.0
O104 O 0.73941 0.90217 0.2583 0.0
O105 O 0.77344 0.88299 0.2392 0.0
O106 O 0.61822 0.83332 0.27891 0.0
O107 O 0.67411 0.88268 0.2535 0.0
O108 O 0.65448 0.8822 0.34144 0.0
O109 O 0.72995 0.82165 0.21475 0.0
O110 O 0.7397 0.80127 0.29531 0.0
O111 O 0.70101 0.87874 0.3402 0.0
O112 O 0.6311 0.88067 0.21562 0.0
C113 C 0.70793 0.82513 0.19314 0.0
C114 C 0.55411 0.83935 0.25004 0.0
H115 H 0.57294 0.83767 0.22816 0.0
H116 H 0.53888 0.81498 0.26742 0.0
H117 H 0.53748 0.84411 0.22707 0.0
C118 C 0.62672 0.81142 0.28654 0.0
C119 C 0.76575 0.90576 0.23914 0.0
H120 H 0.83015 0.885 0.25985 0.0
H121 H 0.77121 0.76295 0.18764 0.0
H122 H 0.75289 0.78518 0.16106 0.0
H123 H 0.74399 0.77251 0.22173 0.0
C124 C 0.76353 0.78176 0.19435 0.0
C125 C 0.72147 0.81235 0.31429 0.0
C126 C 0.68006 0.88434 0.36182 0.0
H127 H 0.86939 0.87063 0.20941 0.0
H128 H 0.57235 0.91971 0.36071 0.0
Co129 Co 0.9246 0.75018 0.75755 0.0
N130 N 0.97064 0.77494 0.75103 0.0
C131 C 0.9852 0.77684 0.70905 0.0
N132 N 0.02552 0.81079 0.75658 0.0
C133 C 0.99596 0.79606 0.77958 0.0
C134 C 0.01861 0.79837 0.71245 0.0
Co135 Co 0.77612 0.61456 0.77309 0.0
N136 N 0.72941 0.59002 0.77498 0.0
N137 N 0.67648 0.54744 0.77239 0.0
C138 C 0.67619 0.57638 0.77094 0.0
C139 C 0.70845 0.60226 0.7723 0.0
C140 C 0.70927 0.5565 0.77522 0.0
Co141 Co 0.85149 0.68189 0.77145 0.0
C142 C 0.81377 0.61043 0.80612 0.0
H143 H 0.71616 0.6284 0.77046 0.0
O144 O 0.88218 0.73056 0.76488 0.0
O145 O 0.82623 0.6912 0.82044 0.0
O146 O 0.88097 0.67972 0.8238 0.0
O147 O 0.87589 0.6711 0.72208 0.0
O148 O 0.9242 0.7182 0.71874 0.0
O149 O 0.77621 0.64539 0.81855 0.0
O150 O 0.81987 0.63322 0.77442 0.0
O151 O 0.77374 0.64124 0.7228 0.0
O152 O 0.92869 0.72719 0.80986 0.0
O153 O 0.92084 0.77892 0.79563 0.0
O154 O 0.82402 0.68653 0.71982 0.0
O155 O 0.78304 0.59211 0.81937 0.0
C156 C 0.9116 0.70083 0.83372 0.0
C157 C 0.72253 0.53306 0.78204 0.0
H158 H 0.73193 0.53564 0.81874 0.0
H159 H 0.70367 0.5067 0.77716 0.0
H160 H 0.74372 0.53982 0.75782 0.0
C161 C 0.79625 0.67427 0.83476 0.0
C162 C 0.90525 0.6885 0.70625 0.0
H163 H 0.97215 0.76434 0.67706 0.0
H164 H 0.98363 0.82132 0.83216 0.0
H165 H 1.01517 0.81155 0.85034 0.0
H166 H 0.97214 0.7795 0.84732 0.0
C167 C 0.99157 0.80236 0.83035 0.0
C168 C 0.88961 0.75666 0.79095 0.0
C169 C 0.79404 0.66941 0.70497 0.0
H170 H 0.03624 0.80594 0.68373 0.0
H171 H 0.65411 0.57866 0.76791 0.0
Co172 Co 0.1521 0.76313 0.27376 0.0
N173 N 0.15787 0.72788 0.29083 0.0
C174 C 0.17772 0.72829 0.32606 0.0
N175 N 0.15151 0.67691 0.29883 0.0
C176 C 0.14197 0.69618 0.27501 0.0
C177 C 0.17395 0.69717 0.33091 0.0
Co178 Co 0.17934 0.91648 0.28209 0.0
N179 N 0.18046 0.95316 0.25446 0.0
N180 N 0.19486 1.0016 0.21881 0.0
C181 C 0.16286 0.98768 0.23202 0.0
C182 C 0.1542 0.9582 0.25405 0.0
C183 C 0.20512 0.98019 0.23269 0.0
Co184 Co 0.16603 0.83949 0.28182 0.0
C185 C 0.21116 0.9097 0.32465 0.0
H186 H 0.13038 0.94182 0.26984 0.0
O187 O 0.14626 0.79412 0.25379 0.0
O188 O 0.18366 0.85746 0.21715 0.0
O189 O 0.21013 0.8429 0.29616 0.0
O190 O 0.14833 0.81936 0.34529 0.0
O191 O 0.14603 0.7701 0.33754 0.0
O192 O 0.19429 0.90914 0.22565 0.0
O193 O 0.18209 0.88464 0.31212 0.0
O194 O 0.13529 0.88931 0.25966 0.0
O195 O 0.19827 0.79138 0.27894 0.0
O196 O 0.15562 0.75946 0.21036 0.0
O197 O 0.1227 0.8363 0.26645 0.0
O198 O 0.2205 0.93817 0.30459 0.0
C199 C 0.21908 0.82121 0.28956 0.0
C200 C 0.23981 0.9861 0.22533 0.0
H201 H 0.24033 0.96298 0.21806 0.0
H202 H 0.25201 1.00326 0.1954 0.0
H203 H 0.25465 0.99728 0.25784 0.0
C204 C 0.19485 0.88668 0.20139 0.0
C205 C 0.14282 0.79141 0.36214 0.0
H206 H 0.19349 0.74977 0.34753 0.0
H207 H 0.10284 0.69932 0.23851 0.0
H208 H 0.09629 0.6575 0.24473 0.0
H209 H 0.12614 0.68588 0.20306 0.0
C210 C 0.11504 0.68387 0.2384 0.0
C211 C 0.14702 0.78235 0.2122 0.0
C212 C 0.1151 0.85833 0.25547 0.0
H213 H 0.18686 0.68995 0.35605 0.0
H214 H 0.14729 0.99887 0.22806 0.0
Co215 Co 0.27551 0.18079 0.78486 0.0
N216 N 0.25279 0.20413 0.77722 0.0
C217 C 0.26754 0.23745 0.77276 0.0
N218 N 0.21375 0.21882 0.76682 0.0
C219 C 0.2199 0.19341 0.77379 0.0
C220 C 0.2437 0.24648 0.76653 0.0
Co221 Co 0.41115 0.16617 0.78652 0.0
N222 N 0.4365 0.14482 0.78146 0.0
N223 N 0.48015 0.13572 0.7838 0.0
C224 C 0.4535 0.10852 0.76615 0.0
C225 C 0.42683 0.11397 0.76526 0.0
C226 C 0.46901 0.15734 0.79312 0.0
Co227 Co 0.3436 0.17425 0.78861 0.0
C228 C 0.41621 0.20997 0.76192 0.0
H229 H 0.40196 0.09646 0.75351 0.0
O230 O 0.29442 0.15689 0.78906 0.0
O231 O 0.33706 0.14015 0.83737 0.0
O232 O 0.3489 0.20705 0.84139 0.0
O233 O 0.35196 0.20841 0.73881 0.0
O234 O 0.30281 0.2057 0.73544 0.0
O235 O 0.38145 0.13299 0.829 0.0
O236 O 0.39213 0.19057 0.79016 0.0
O237 O 0.38375 0.14014 0.73377 0.0
O238 O 0.30354 0.21207 0.8291 0.0
O239 O 0.25075 0.14795 0.74424 0.0
O240 O 0.33638 0.14147 0.73624 0.0
O241 O 0.43637 0.19986 0.74721 0.0
C242 C 0.33051 0.2201 0.85099 0.0
C243 C 0.49001 0.19152 0.81318 0.0
H244 H 0.478 0.20689 0.80861 0.0
H245 H 0.49336 0.18963 0.85162 0.0
H246 H 0.51487 0.20384 0.7964 0.0
C247 C 0.35338 0.12521 0.8476 0.0
C248 C 0.33194 0.21649 0.72033 0.0
H249 H 0.29408 0.25416 0.77353 0.0
H250 H 0.18718 0.14547 0.74483 0.0
H251 H 0.17103 0.15592 0.79586 0.0
H252 H 0.20325 0.14476 0.8025 0.0
C253 C 0.19376 0.15782 0.77992 0.0
C254 C 0.27059 0.13768 0.75998 0.0
C255 C 0.3547 0.13099 0.71775 0.0
H256 H 0.24802 0.27145 0.76134 0.0
H257 H 0.45328 0.08608 0.75484 0.0
C258 C 0.1486 0.41219 0.29237 0.0
C259 C 0.18286 0.42311 0.29389 0.0
C260 C 0.13735 0.43518 0.28838 0.0
C261 C 0.16592 0.52057 0.24759 0.0
H262 H 0.09901 0.51963 0.3304 0.0
C263 C 0.14096 0.62967 0.24706 0.0
C264 C 0.14159 0.64244 0.29226 0.0
C265 C 0.13687 0.59784 0.24171 0.0
C266 C 0.1176 0.5201 0.30681 0.0
H267 H 0.23201 0.46687 0.29422 0.0
H268 H 0.21245 0.50638 0.28758 0.0
H269 H 0.11082 0.47367 0.33274 0.0
H270 H 0.13673 0.63157 0.36697 0.0
H271 H 0.13029 0.57639 0.35802 0.0
H272 H 0.1742 0.5676 0.22337 0.0
C273 C 0.19427 0.48016 0.28851 0.0
C274 C 0.12414 0.49367 0.30792 0.0
C275 C 0.20545 0.45741 0.29268 0.0
C276 C 0.13635 0.62221 0.33177 0.0
C277 C 0.13233 0.59048 0.32652 0.0
C278 C 0.15939 0.54688 0.24643 0.0
C279 C 0.16018 0.46937 0.2855 0.0
C280 C 0.1492 0.49426 0.27944 0.0
C281 C 0.1336 0.5783 0.28153 0.0
C282 C 0.13589 0.5475 0.27705 0.0
H283 H 0.13054 0.38595 0.29326 0.0
H284 H 0.1109 0.42621 0.28633 0.0
H285 H 0.18499 0.52142 0.22465 0.0
H286 H 0.14555 0.64496 0.21609 0.0
H287 H 0.13764 0.58908 0.20651 0.0
C288 C 0.53248 0.15379 0.82952 0.0
C289 C 0.51334 0.1402 0.78839 0.0
C290 C 0.56435 0.15741 0.83368 0.0
C291 C 0.63309 0.16016 0.76126 0.0
H292 H 0.66568 0.14933 0.88241 0.0
C293 C 0.76409 0.17494 0.77768 0.0
C294 C 0.78367 0.19577 0.81469 0.0
C295 C 0.72955 0.16225 0.77692 0.0
C296 C 0.65706 0.15256 0.84829 0.0
H297 H 0.51241 0.11884 0.72005 0.0
H298 H 0.56749 0.1245 0.72739 0.0
H299 H 0.60926 0.1403 0.87574 0.0
H300 H 0.78186 0.21752 0.88157 0.0
H301 H 0.72196 0.19521 0.88068 0.0
H302 H 0.68094 0.17274 0.73391 0.0
C303 C 0.5584 0.13321 0.75614 0.0
C304 C 0.62463 0.14752 0.84448 0.0
C305 C 0.52663 0.12968 0.752 0.0
C306 C 0.76751 0.20132 0.85271 0.0
C307 C 0.73304 0.18853 0.85211 0.0
C308 C 0.66543 0.16509 0.76505 0.0
C309 C 0.5779 0.14727 0.79697 0.0
C310 C 0.6122 0.15155 0.80097 0.0
C311 C 0.71369 0.17 0.81324 0.0
C312 C 0.67807 0.16168 0.8087 0.0
H313 H 0.52265 0.16107 0.85891 0.0
H314 H 0.57847 0.1685 0.8656 0.0
H315 H 0.62485 0.16408 0.72728 0.0
H316 H 0.77563 0.17072 0.74731 0.0
H317 H 0.71546 0.14759 0.74677 0.0
C318 C 0.36563 0.55132 0.31111 0.0
C319 C 0.3657 0.52114 0.30914 0.0
C320 C 0.39514 0.58142 0.30713 0.0
C321 C 0.48749 0.61918 0.31283 0.0
H322 H 0.4829 0.69321 0.25779 0.0
C323 C 0.59818 0.75431 0.32147 0.0
C324 C 0.60029 0.77648 0.28626 0.0
C325 C 0.57103 0.72194 0.3224 0.0
C326 C 0.48509 0.67282 0.27242 0.0
H327 H 0.39693 0.49874 0.3043 0.0
H328 H 0.44846 0.55121 0.29321 0.0
H329 H 0.43378 0.63945 0.2598 0.0
H330 H 0.57762 0.78201 0.22255 0.0
H331 H 0.53193 0.72539 0.22186 0.0
H332 H 0.5395 0.65239 0.32263 0.0
C333 C 0.42564 0.55181 0.29855 0.0
C334 C 0.45644 0.64186 0.27459 0.0
C335 C 0.39603 0.52163 0.3037 0.0
C336 C 0.57607 0.76545 0.25064 0.0
C337 C 0.54966 0.73299 0.25063 0.0
C338 C 0.51649 0.6501 0.30954 0.0
C339 C 0.42562 0.5822 0.30027 0.0
C340 C 0.45698 0.61466 0.29554 0.0
C341 C 0.54606 0.71098 0.2873 0.0
C342 C 0.51565 0.67749 0.28964 0.0
H343 H 0.3426 0.55155 0.31631 0.0
H344 H 0.39394 0.60407 0.31031 0.0
H345 H 0.48901 0.59904 0.32973 0.0
H346 H 0.61673 0.7624 0.34925 0.0
H347 H 0.56917 0.70601 0.35149 0.0
C348 C 0.9138 0.4114 0.76484 0.0
C349 C 0.89393 0.38292 0.79175 0.0
C350 C 0.91015 0.43967 0.76845 0.0
C351 C 0.88064 0.48271 0.84849 0.0
H352 H 0.8725 0.5248 0.73506 0.0
C353 C 0.82931 0.57399 0.85174 0.0
C354 C 0.83654 0.5968 0.81478 0.0
C355 C 0.84223 0.5523 0.85208 0.0
C356 C 0.87548 0.51403 0.7673 0.0
H357 H 0.8556 0.36223 0.84491 0.0
H358 H 0.84931 0.41158 0.85166 0.0
H359 H 0.88253 0.47809 0.72868 0.0
H360 H 0.86528 0.61592 0.75088 0.0
H361 H 0.88959 0.57992 0.75299 0.0
H362 H 0.87412 0.51871 0.88733 0.0
C363 C 0.86747 0.41198 0.82728 0.0
C364 C 0.88102 0.48693 0.76351 0.0
C365 C 0.87076 0.38356 0.82306 0.0
C366 C 0.85956 0.59933 0.78045 0.0
C367 C 0.87285 0.57785 0.78104 0.0
C368 C 0.87561 0.51011 0.85235 0.0
C369 C 0.88704 0.44041 0.79991 0.0
C370 C 0.88311 0.47053 0.80402 0.0
C371 C 0.86319 0.5529 0.81566 0.0
C372 C 0.87231 0.52593 0.8118 0.0
H373 H 0.932 0.41163 0.74072 0.0
H374 H 0.9258 0.46117 0.74712 0.0
H375 H 0.8827 0.47105 0.88048 0.0
H376 H 0.81151 0.57109 0.87867 0.0
H377 H 0.8338 0.53358 0.87936 0.0
C378 C 0.26261 0.80454 0.29328 0.0
C379 C 0.25447 0.83004 0.29368 0.0
C380 C 0.29556 0.81181 0.29389 0.0
C381 C 0.38136 0.87694 0.3209 0.0
H382 H 0.40296 0.82123 0.24313 0.0
C383 C 0.51569 0.90184 0.29895 0.0
C384 C 0.52049 0.87427 0.3028 0.0
C385 C 0.48378 0.89765 0.29558 0.0
C386 C 0.39728 0.83682 0.26529 0.0
H387 H 0.27495 0.8834 0.29601 0.0
H388 H 0.33311 0.89626 0.29646 0.0
H389 H 0.34685 0.81307 0.24161 0.0
H390 H 0.4956 0.82069 0.30667 0.0
H391 H 0.43953 0.81311 0.29981 0.0
H392 H 0.43201 0.90075 0.34435 0.0
C393 C 0.31364 0.87051 0.29611 0.0
C394 C 0.36511 0.83217 0.26449 0.0
C395 C 0.28035 0.86318 0.2958 0.0
C396 C 0.49266 0.84229 0.30251 0.0
C397 C 0.46061 0.83804 0.29887 0.0
C398 C 0.41366 0.88172 0.32147 0.0
C399 C 0.32156 0.84482 0.29442 0.0
C400 C 0.35657 0.85179 0.29285 0.0
C401 C 0.45583 0.86573 0.29591 0.0
C402 C 0.42186 0.86143 0.29409 0.0
H403 H 0.24351 0.77869 0.29198 0.0
H404 H 0.30061 0.79136 0.29389 0.0
H405 H 0.37559 0.89227 0.34348 0.0
H406 H 0.53677 0.92677 0.29883 0.0
H407 H 0.48099 0.91944 0.29265 0.0
C408 C 0.43668 0.26472 0.80105 0.0
C409 C 0.42819 0.24606 0.75915 0.0
C410 C 0.45891 0.29902 0.80048 0.0
C411 C 0.52384 0.36392 0.72028 0.0
H412 H 0.53781 0.4197 0.82939 0.0
C413 C 0.61852 0.5078 0.79548 0.0
C414 C 0.64721 0.51471 0.77001 0.0
C415 C 0.58957 0.47671 0.79204 0.0
C416 C 0.53429 0.40505 0.79794 0.0
H417 H 0.43376 0.24902 0.68334 0.0
H418 H 0.46932 0.30905 0.68132 0.0
H419 H 0.48904 0.36567 0.82519 0.0
H420 H 0.66671 0.49494 0.71762 0.0
H421 H 0.61829 0.43997 0.71542 0.0
H422 H 0.56754 0.40421 0.69125 0.0
C423 C 0.461 0.29738 0.71537 0.0
C424 C 0.5062 0.3732 0.79598 0.0
C425 C 0.43976 0.26285 0.7162 0.0
C426 C 0.64581 0.48993 0.73988 0.0
C427 C 0.61729 0.45846 0.73756 0.0
C428 C 0.55127 0.39614 0.72152 0.0
C429 C 0.47263 0.31593 0.75771 0.0
C430 C 0.50073 0.35158 0.7576 0.0
C431 C 0.58842 0.45112 0.76349 0.0
C432 C 0.5576 0.41719 0.76086 0.0
H433 H 0.42872 0.25233 0.83482 0.0
H434 H 0.46687 0.31152 0.8342 0.0
H435 H 0.52156 0.34858 0.69015 0.0
H436 H 0.61848 0.52664 0.8181 0.0
H437 H 0.56804 0.47316 0.81154 0.0
C438 C 0.22585 0.25528 0.27051 0.0
C439 C 0.19324 0.24554 0.25611 0.0
C440 C 0.24208 0.23904 0.25286 0.0
C441 C 0.23777 0.18044 0.16028 0.0
H442 H 0.26337 0.14209 0.26225 0.0
C443 C 0.19982 0.04629 0.16735 0.0
C444 C 0.21402 0.03475 0.2008 0.0
C445 C 0.21395 0.08017 0.15863 0.0
C446 C 0.25764 0.15316 0.23266 0.0
H447 H 0.15221 0.21181 0.21142 0.0
H448 H 0.18016 0.18268 0.18164 0.0
H449 H 0.25574 0.18888 0.2781 0.0
H450 H 0.25581 0.04937 0.24831 0.0
H451 H 0.28183 0.10809 0.23056 0.0
H452 H 0.23787 0.14334 0.11535 0.0
C453 C 0.19343 0.2033 0.2058 0.0
C454 C 0.25308 0.18009 0.24201 0.0
C455 C 0.17715 0.21941 0.22365 0.0
C456 C 0.24457 0.05731 0.2216 0.0
C457 C 0.25921 0.09115 0.21196 0.0
C458 C 0.24272 0.15364 0.15073 0.0
C459 C 0.22598 0.21286 0.22041 0.0
C460 C 0.24089 0.19241 0.20669 0.0
C461 C 0.24277 0.10318 0.18312 0.0
C462 C 0.25025 0.13814 0.18767 0.0
H463 H 0.23883 0.27555 0.29534 0.0
H464 H 0.26707 0.2467 0.26489 0.0
H465 H 0.22917 0.19021 0.13219 0.0
H466 H 0.17636 0.02925 0.15072 0.0
H467 H 0.20032 0.08826 0.1363 0.0
C468 C 0.93366 0.15386 0.70221 0.0
C469 C 0.91892 0.16133 0.7401 0.0
C470 C 0.96815 0.17079 0.69686 0.0
C471 C 0.03986 0.21068 0.77671 0.0
H472 H 0.08896 0.2154 0.66364 0.0
C473 C 0.15919 0.19613 0.72722 0.0
C474 C 0.18254 0.21791 0.76017 0.0
C475 C 0.12943 0.19634 0.71972 0.0
C476 C 0.07551 0.21423 0.69546 0.0
H477 H 0.92888 0.19442 0.79944 0.0
H478 H 0.98842 0.22541 0.78842 0.0
H479 H 0.03273 0.20728 0.65661 0.0
H480 H 0.19383 0.25752 0.81004 0.0
H481 H 0.14157 0.25763 0.79761 0.0
H482 H 0.08227 0.21712 0.81553 0.0
C483 C 0.97353 0.20571 0.76366 0.0
C484 C 0.04334 0.20959 0.69148 0.0
C485 C 0.93913 0.18832 0.76953 0.0
C486 C 0.17596 0.24029 0.78484 0.0
C487 C 0.14614 0.24032 0.77771 0.0
C488 C 0.07202 0.21569 0.78061 0.0
C489 C 0.98862 0.19571 0.72921 0.0
C490 C 0.02475 0.20683 0.73216 0.0
C491 C 0.1225 0.21825 0.74521 0.0
C492 C 0.08987 0.21666 0.74015 0.0
H493 H 0.91875 0.13324 0.67874 0.0
H494 H 0.9787 0.1623 0.66982 0.0
H495 H 0.02627 0.20797 0.80896 0.0
H496 H 0.16417 0.17929 0.70692 0.0
H497 H 0.11155 0.17888 0.69472 0.0
C498 C 1.00758 0.1508 0.14811 0.0
C499 C 1.00866 0.16669 0.19074 0.0
C500 C 0.97708 0.1282 0.12794 0.0
C501 C 0.88507 0.08781 0.14449 0.0
H502 H 0.89126 1.00755 0.13798 0.0
C503 C 0.7914 0.96709 0.23037 0.0
C504 C 0.78741 0.93676 0.21411 0.0
C505 C 0.81291 0.99654 0.20723 0.0
C506 C 0.88869 0.02953 0.13816 0.0
H507 H 0.97952 0.17311 0.24478 0.0
H508 H 0.92619 0.13346 0.2103 0.0
H509 H 0.94082 0.06067 0.13003 0.0
H510 H 0.80054 0.91275 0.15919 0.0
H511 H 0.83775 0.96412 0.11818 0.0
H512 H 0.83291 0.05623 0.15563 0.0
C513 C 0.94858 0.13896 0.19132 0.0
C514 C 0.91733 0.06022 0.13349 0.0
C515 C 0.97908 0.16163 0.21125 0.0
C516 C 0.80388 0.93603 0.173 0.0
C517 C 0.82498 0.96539 0.14942 0.0
C518 C 0.85627 0.05697 0.1489 0.0
C519 C 0.94727 0.12075 0.15075 0.0
C520 C 0.91614 0.0897 0.1395 0.0
C521 C 0.83055 0.9961 0.16709 0.0
C522 C 0.85818 0.02762 0.14868 0.0
H523 H 0.03034 0.15454 0.132 0.0
H524 H 0.97685 0.11479 0.09643 0.0
H525 H 0.88336 0.11017 0.14836 0.0
H526 H 0.77876 0.96817 0.26189 0.0
H527 H 0.81695 0.01973 0.22234 0.0
C528 C 0.82032 0.9658 0.83681 0.0
C529 C 0.80384 0.97057 0.79849 0.0
C530 C 0.82041 0.93581 0.84201 0.0
C531 C 0.80884 0.86352 0.7714 0.0
H532 H 0.81396 0.82882 0.89377 0.0
C533 C 0.83595 0.75685 0.78079 0.0
C534 C 0.8648 0.76568 0.80725 0.0
C535 C 0.81822 0.77375 0.78717 0.0
C536 C 0.81228 0.83809 0.85937 0.0
H537 H 0.77303 0.9471 0.73713 0.0
H538 H 0.77226 0.8945 0.74676 0.0
H539 H 0.8037 0.87569 0.88918 0.0
H540 H 0.89583 0.79682 0.86447 0.0
H541 H 0.86504 0.82618 0.87572 0.0
H542 H 0.81826 0.82666 0.74158 0.0
C543 C 0.78608 0.91419 0.77205 0.0
C544 C 0.80667 0.8651 0.85669 0.0
C545 C 0.78629 0.94424 0.76667 0.0
C546 C 0.87371 0.78949 0.84337 0.0
C547 C 0.85592 0.80623 0.85001 0.0
C548 C 0.81418 0.83647 0.77407 0.0
C549 C 0.80357 0.9097 0.80938 0.0
C550 C 0.80575 0.87872 0.81266 0.0
C551 C 0.82911 0.79982 0.82019 0.0
C552 C 0.81685 0.82397 0.81806 0.0
H553 H 0.83291 0.98508 0.86299 0.0
H554 H 0.8343 0.93342 0.87108 0.0
H555 H 0.80881 0.87351 0.73688 0.0
H556 H 0.8286 0.73892 0.75261 0.0
H557 H 0.79735 0.76795 0.76407 0.0
C558 C 0.84301 0.78469 0.19347 0.0
C559 C 0.83783 0.80789 0.16876 0.0
C560 C 0.86858 0.7787 0.1801 0.0
C561 C 0.9501 0.83436 0.13856 0.0
H562 H 0.96733 0.76313 0.17117 0.0
C563 C 0.08086 0.86497 0.19346 0.0
C564 C 0.08283 0.84747 0.23252 0.0
C565 C 0.05082 0.85385 0.16953 0.0
C566 C 0.96293 0.78331 0.16208 0.0
H567 H 0.85128 0.83927 0.10728 0.0
H568 H 0.89541 0.82815 0.08267 0.0
H569 H 0.9106 0.75041 0.15259 0.0
H570 H 0.05551 0.80432 0.27672 0.0
H571 H 1.00233 0.78607 0.23726 0.0
H572 H 1.00124 0.86764 0.15189 0.0
C573 C 0.88033 0.81501 0.11285 0.0
C574 C 0.93051 0.77593 0.15094 0.0
C575 C 0.855 0.8212 0.12659 0.0
C576 C 0.0544 0.81841 0.24696 0.0
C577 C 0.0241 0.80769 0.22376 0.0
C578 C 0.98222 0.84175 0.15028 0.0
C579 C 0.8892 0.796 0.14184 0.0
C580 C 0.92361 0.80157 0.14074 0.0
C581 C 0.02182 0.82547 0.18497 0.0
C582 C 0.98891 0.81651 0.16399 0.0
H583 H 0.83019 0.77455 0.22643 0.0
H584 H 0.87471 0.76391 0.20323 0.0
H585 H 0.94571 0.85487 0.13179 0.0
H586 H 0.10274 0.88695 0.18085 0.0
H587 H 0.05032 0.86774 0.13915 0.0
C588 C 0.23778 0.08314 0.7187 0.0
C589 C 0.2597 0.10194 0.75522 0.0
C590 C 0.22102 0.04845 0.72019 0.0
C591 C 0.19265 0.97347 0.72809 0.0
H592 H 0.14705 0.94463 0.84813 0.0
C593 C 0.08659 0.83967 0.75555 0.0
C594 C 0.05708 0.83838 0.77055 0.0
C595 C 0.11701 0.86905 0.75948 0.0
C596 C 0.15985 0.95223 0.81463 0.0
H597 H 0.28027 0.09877 0.82204 0.0
H598 H 0.25224 0.03859 0.82429 0.0
H599 H 0.19227 1.00157 0.83941 0.0
H600 H 0.03649 0.86677 0.80225 0.0
H601 H 0.08964 0.91766 0.81083 0.0
H602 H 0.1591 0.92445 0.70278 0.0
C603 C 0.24853 0.05063 0.79396 0.0
C604 C 0.18593 0.98473 0.80968 0.0
C605 C 0.26537 0.08525 0.79218 0.0
C606 C 0.05884 0.86656 0.79196 0.0
C607 C 0.08931 0.89583 0.79644 0.0
C608 C 0.16676 0.94083 0.7332 0.0
C609 C 0.22524 0.03189 0.75887 0.0
C610 C 0.20193 0.99598 0.76595 0.0
C611 C 0.11852 0.89766 0.77885 0.0
C612 C 0.14944 0.93022 0.77611 0.0
H613 H 0.23244 0.09526 0.69004 0.0
H614 H 0.20296 0.03473 0.69282 0.0
H615 H 0.20466 0.98143 0.69409 0.0
H616 H 0.08579 0.8183 0.73869 0.0
H617 H 0.13917 0.86973 0.7459 0.0
C618 C 0.25268 0.36691 0.13778 0.0
C619 C 0.24653 0.35427 0.18402 0.0
C620 C 0.26259 0.35238 0.10222 0.0
C621 C 0.27099 0.2774 0.0729 0.0
H622 H 0.33805 0.33814 0.98622 0.0
C623 C 0.33369 0.23045 0.93839 0.0
C624 C 0.33678 0.24255 0.89209 0.0
C625 C 0.32614 0.24551 0.97611 0.0
C626 C 0.31915 0.32066 1.00979 0.0
H627 H 0.24748 0.31712 0.22885 0.0
H628 H 0.2633 0.29105 0.16742 0.0
H629 H 0.31484 0.3594 0.04468 0.0
H630 H 0.3357 0.28076 0.8497 0.0
H631 H 0.32359 0.30738 0.91476 0.0
H632 H 0.27531 0.23864 0.03783 0.0
C633 C 0.25963 0.31162 0.15785 0.0
C634 C 0.30561 0.33291 0.04341 0.0
C635 C 0.24981 0.32621 0.19325 0.0
C636 C 0.33444 0.27137 0.88511 0.0
C637 C 0.32714 0.2865 0.92262 0.0
C638 C 0.28455 0.26513 0.03923 0.0
C639 C 0.26705 0.32495 0.11193 0.0
C640 C 0.28111 0.31152 0.07542 0.0
C641 C 0.32156 0.27311 0.9685 0.0
C642 C 0.30875 0.28652 1.00683 0.0
H643 H 0.25106 0.38887 0.12951 0.0
H644 H 0.26745 0.36318 0.06728 0.0
H645 H 0.25203 0.25992 0.09642 0.0
H646 H 0.3343 0.20773 0.94482 0.0
H647 H 0.32258 0.23467 1.01092 0.0
C648 C 0.95764 0.27472 0.68417 0.0
C649 C 0.92944 0.24277 0.68392 0.0
C650 C 0.98339 0.28335 0.65131 0.0
C651 C 0.99985 0.2671 0.53178 0.0
H652 H 0.09099 0.29767 0.56988 0.0
C653 C 0.10466 0.31193 0.39308 0.0
C654 C 0.12161 0.29376 0.39379 0.0
C655 C 0.0854 0.31122 0.43189 0.0
C656 C 0.06571 0.28942 0.55867 0.0
H657 H 0.90635 0.19502 0.64844 0.0
H658 H 0.95055 0.21056 0.59008 0.0
H659 H 0.04801 0.28404 0.6302 0.0
H660 H 0.13377 0.26301 0.4375 0.0
H661 H 0.10195 0.26347 0.5061 0.0
H662 H 0.01731 0.27261 0.46043 0.0
C663 C 0.95293 0.22874 0.61617 0.0
C664 C 0.04112 0.28168 0.59322 0.0
C665 C 0.92762 0.21984 0.64969 0.0
C666 C 0.12164 0.27786 0.43612 0.0
C667 C 0.10302 0.27779 0.4753 0.0
C668 C 0.0245 0.27559 0.49732 0.0
C669 C 0.9812 0.26057 0.61658 0.0
C670 C 1.0078 0.27007 0.58017 0.0
C671 C 0.08322 0.29297 0.47281 0.0
C672 C 0.05776 0.28661 0.51017 0.0
H673 H 0.96006 0.29291 0.71026 0.0
H674 H 1.00479 0.30808 0.65251 0.0
H675 H 0.97446 0.25827 0.52056 0.0
H676 H 0.10338 0.32376 0.36079 0.0
H677 H 0.07077 0.3235 0.4289 0.0
C678 C 0.66829 0.89837 0.12767 0.0
C679 C 0.68193 0.90436 0.17341 0.0
C680 C 0.68255 0.92265 0.09242 0.0
C681 C 0.75653 1.00471 0.06196 0.0
H682 H 0.69172 0.01569 0.98887 0.0
C683 C 0.7985 0.11635 0.93573 0.0
C684 C 0.78433 0.10823 0.89034 0.0
C685 C 0.78444 0.09375 0.97317 0.0
C686 C 0.71025 0.01296 1.00864 0.0
H687 H 0.72126 0.94074 0.21765 0.0
H688 H 0.7469 0.98242 0.15626 0.0
H689 H 0.67312 0.96988 0.04428 0.0
H690 H 0.74327 0.07103 0.84937 0.0
H691 H 0.71822 0.03225 0.91427 0.0
H692 H 0.79368 0.04774 0.02606 0.0
C693 C 0.72558 0.95876 0.14703 0.0
C694 C 0.69956 0.98643 0.04036 0.0
C695 C 0.71125 0.93448 0.18222 0.0
C696 C 0.75416 0.07847 0.8843 0.0
C697 C 0.74004 0.05597 0.92159 0.0
C698 C 0.76725 0.03124 0.0301 0.0
C699 C 0.71065 0.95376 0.10214 0.0
C700 C 0.7225 0.98172 0.06732 0.0
C701 C 0.75586 0.06251 0.96602 0.0
C702 C 0.74427 0.03571 1.00273 0.0
H703 H 0.64532 0.87572 0.12001 0.0
H704 H 0.67067 0.91754 0.05806 0.0
H705 H 0.77501 1.00191 0.0818 0.0
H706 H 0.82227 0.13859 0.94116 0.0
H707 H 0.79702 0.10002 1.00705 0.0
C708 C 0.80174 0.71722 0.65354 0.0
C709 C 0.78225 0.68377 0.66699 0.0
C710 C 0.79037 0.73146 0.61983 0.0
C711 C 0.71367 0.71586 0.55017 0.0
H712 H 0.77899 0.79035 0.4777 0.0
C713 C 0.69264 0.7648 0.36927 0.0
C714 C 0.70955 0.79942 0.36245 0.0
C715 C 0.69559 0.75105 0.412 0.0
C716 C 0.76036 0.76984 0.49804 0.0
H717 H 0.7354 0.63897 0.65382 0.0
H718 H 0.71645 0.66298 0.59302 0.0
H719 H 0.79728 0.76512 0.53688 0.0
H720 H 0.74041 0.84667 0.39695 0.0
H721 H 0.74571 0.82278 0.4713 0.0
H722 H 0.67688 0.71972 0.50813 0.0
C723 C 0.74009 0.67889 0.60996 0.0
C724 C 0.77084 0.75526 0.53251 0.0
C725 C 0.75117 0.66484 0.6447 0.0
C726 C 0.72648 0.81996 0.40122 0.0
C727 C 0.73008 0.80623 0.44359 0.0
C728 C 0.70321 0.73002 0.51473 0.0
C729 C 0.75941 0.71261 0.59692 0.0
C730 C 0.74777 0.72804 0.55958 0.0
C731 C 0.71606 0.77162 0.44861 0.0
C732 C 0.72644 0.75735 0.48839 0.0
H733 H 0.82584 0.7328 0.66953 0.0
H734 H 0.80598 0.7576 0.61241 0.0
H735 H 0.6948 0.69547 0.5703 0.0
H736 H 0.68002 0.7483 0.33983 0.0
H737 H 0.68443 0.72434 0.41461 0.0
C738 C 0.96101 0.7014 0.86888 0.0
C739 C 0.92911 0.69727 0.87542 0.0
C740 C 0.98312 0.70922 0.90687 0.0
C741 C 1.00185 0.74987 0.02487 0.0
H742 H 0.06588 0.71925 0.03088 0.0
C743 C 0.13369 0.77883 0.12557 0.0
C744 C 0.12665 0.78366 0.17222 0.0
C745 C 0.10999 0.7706 0.08943 0.0
C746 C 0.04864 0.72861 0.02945 0.0
H747 H 0.89529 0.69769 0.92748 0.0
H748 H 0.93368 0.71065 0.99453 0.0
H749 H 0.02238 0.69677 0.97112 0.0
H750 H 0.08872 0.78326 0.21703 0.0
H751 H 0.04794 0.76998 0.15442 0.0
H752 H 0.02827 0.78183 0.08329 0.0
C753 C 0.94163 0.70784 0.95974 0.0
C754 C 0.02339 0.71546 0.99512 0.0
C755 C 0.91929 0.69968 0.92151 0.0
C756 C 0.09578 0.7815 0.18125 0.0
C757 C 0.07203 0.77324 0.14518 0.0
C758 C 0.0272 0.7631 0.05929 0.0
C759 C 0.97424 0.71362 0.95275 0.0
C760 C 0.9997 0.72602 0.99192 0.0
C761 C 0.07827 0.76647 0.09895 0.0
C762 C 0.05124 0.7529 0.0619 0.0
H763 H 0.96966 0.70069 0.8336 0.0
H764 H 1.00797 0.71381 0.89958 0.0
H765 H 0.98446 0.75907 0.02332 0.0
H766 H 0.15697 0.77976 0.11747 0.0
H767 H 0.11622 0.7664 0.05422 0.0
C768 C 0.35939 0.09176 0.65907 0.0
C769 C 0.34108 0.10595 0.67798 0.0
C770 C 0.34583 0.06707 0.6237 0.0
C771 C 0.26661 1.00069 0.57471 0.0
H772 H 0.31601 0.00994 0.4604 0.0
C773 C 0.20445 0.9147 0.41084 0.0
C774 C 0.22419 0.91377 0.37386 0.0
C775 C 0.21898 0.93405 0.45166 0.0
C776 C 0.30186 1.00607 0.49235 0.0
H777 H 0.29482 0.10633 0.67104 0.0
H778 H 0.27034 0.06193 0.61192 0.0
H779 H 0.34053 0.05163 0.5223 0.0
H780 H 0.27483 0.93039 0.35313 0.0
H781 H 0.30005 0.96096 0.42564 0.0
H782 H 0.22841 0.95471 0.54623 0.0
C783 C 0.29517 0.06977 0.62487 0.0
C784 C 0.31605 0.03049 0.52793 0.0
C785 C 0.3091 0.09508 0.65926 0.0
C786 C 0.25875 0.92989 0.38119 0.0
C787 C 0.27329 0.94851 0.42253 0.0
C788 C 0.25269 0.97579 0.53965 0.0
C789 C 0.31329 0.05529 0.60658 0.0
C790 C 0.29851 0.02845 0.5694 0.0
C791 C 0.25387 0.95269 0.45748 0.0
C792 C 0.26979 0.97806 0.49726 0.0
H793 H 0.38426 0.09959 0.67171 0.0
H794 H 0.36063 0.05668 0.61037 0.0
H795 H 0.25248 0.99802 0.60641 0.0
H796 H 0.17785 0.90358 0.40594 0.0
H797 H 0.20258 0.93616 0.47674 0.0
C798 C 0.80611 0.7188 0.89363 0.0
C799 C 0.7839 0.68938 0.86997 0.0
C800 C 0.7945 0.73467 0.9238 0.0
C801 C 0.7167 0.73543 0.95875 0.0
H802 H 0.77151 0.78574 0.06516 0.0
C803 C 0.68243 0.77889 0.13567 0.0
C804 C 0.70184 0.81312 0.14425 0.0
C805 C 0.68766 0.7648 0.09507 0.0
C806 C 0.7561 0.77198 0.03529 0.0
H807 H 0.73187 0.65247 0.86181 0.0
H808 H 0.7117 0.67876 0.91683 0.0
H809 H 0.79114 0.75795 1.01206 0.0
H810 H 0.74067 0.85969 0.11667 0.0
H811 H 0.75011 0.83503 0.04599 0.0
H812 H 0.68087 0.74829 0.98461 0.0
C813 C 0.73812 0.69074 0.91021 0.0
C814 C 0.76739 0.75616 1.00454 0.0
C815 C 0.74975 0.67531 0.87905 0.0
C816 C 0.72467 0.83339 0.10998 0.0
C817 C 0.73037 0.81927 0.06994 0.0
C818 C 0.70511 0.75071 0.99029 0.0
C819 C 0.76029 0.72091 0.93265 0.0
C820 C 0.74797 0.73772 0.96559 0.0
C821 C 0.71287 0.78474 0.06326 0.0
C822 C 0.72486 0.76926 0.02856 0.0
H823 H 0.83259 0.7297 0.88878 0.0
H824 H 0.81253 0.758 0.93966 0.0
H825 H 0.70119 0.72204 0.92887 0.0
H826 H 0.66553 0.7627 0.16243 0.0
H827 H 0.67419 0.73806 0.09083 0.0
C828 C 0.11852 0.74838 0.42515 0.0
C829 C 0.12644 0.78012 0.40864 0.0
C830 C 0.09595 0.73352 0.4618 0.0
C831 C 0.05394 0.74596 0.56121 0.0
H832 H 0.97707 0.66309 0.52182 0.0
C833 C 0.91438 0.67633 0.62463 0.0
C834 C 0.91976 0.67505 0.67314 0.0
C835 C 0.93908 0.68081 0.59233 0.0
C836 C 0.99854 0.68597 0.53334 0.0
H837 H 0.11934 0.82239 0.4212 0.0
H838 H 0.08048 0.79654 0.48661 0.0
H839 H 0.02488 0.69137 0.4689 0.0
H840 H 0.95304 0.67388 0.72588 0.0
H841 H 0.99606 0.68156 0.66959 0.0
H842 H 0.02757 0.74074 0.62548 0.0
C843 C 0.09141 0.78311 0.47016 0.0
C844 C 0.02583 0.70209 0.50329 0.0
C845 C 0.11373 0.79792 0.43285 0.0
C846 C 0.94817 0.6742 0.68846 0.0
C847 C 0.97296 0.67909 0.65641 0.0
C848 C 0.02698 0.7295 0.59164 0.0
C849 C 0.08132 0.75027 0.48347 0.0
C850 C 0.05356 0.73242 0.51677 0.0
C851 C 0.96941 0.68443 0.60854 0.0
C852 C 0.99893 0.69955 0.57775 0.0
H853 H 0.12814 0.73403 0.40788 0.0
H854 H 0.08895 0.70838 0.47205 0.0
H855 H 0.07502 0.76931 0.57227 0.0
H856 H 0.89304 0.67789 0.61225 0.0
H857 H 0.93589 0.68496 0.55552 0.0
C858 C 0.30877 0.08857 0.90478 0.0
C859 C 0.33839 0.09669 0.88084 0.0
C860 C 0.29321 0.06019 0.93292 0.0
C861 C 0.30769 1.00362 1.00471 0.0
H862 H 0.21313 0.94425 0.98844 0.0
C863 C 0.23513 0.8967 0.13613 0.0
C864 C 0.20594 0.89543 0.15228 0.0
C865 C 0.25074 0.91469 0.09516 0.0
C866 C 0.23952 0.96058 0.99365 0.0
H867 H 0.37559 0.08183 0.86979 0.0
H868 H 0.34887 0.0329 0.92049 0.0
H869 H 0.24246 0.99083 0.93465 0.0
H870 H 0.16914 0.91005 0.13765 0.0
H871 H 0.19582 0.941 0.06699 0.0
H872 H 0.30456 0.97466 0.06529 0.0
C873 C 0.33747 0.04829 0.91644 0.0
C874 C 0.25629 0.98724 0.96275 0.0
C875 C 0.35276 0.07637 0.8875 0.0
C876 C 0.19139 0.91026 0.12535 0.0
C877 C 0.20679 0.92804 0.08471 0.0
C878 C 0.29082 0.97719 0.03613 0.0
C879 C 0.30726 0.03963 0.9388 0.0
C880 C 0.29037 1.00948 0.96864 0.0
C881 C 0.23732 0.93159 0.0699 0.0
C882 C 0.2563 0.95582 0.03178 0.0
H883 H 0.29735 0.10397 0.90157 0.0
H884 H 0.27026 0.05445 0.95051 0.0
H885 H 0.33398 0.02044 1.01008 0.0
H886 H 0.24708 0.88595 0.1569 0.0
H887 H 0.27402 0.91656 0.08447 0.0
C888 C 0.35393 0.27254 0.68623 0.0
C889 C 0.34103 0.23837 0.67926 0.0
C890 C 0.34939 0.29159 0.65174 0.0
C891 C 0.31483 0.28693 0.52972 0.0
H892 H 0.2849 0.34449 0.58401 0.0
C893 C 0.22362 0.31645 0.43441 0.0
C894 C 0.23857 0.3497 0.41953 0.0
C895 C 0.23866 0.30698 0.46924 0.0
C896 C 0.2934 0.32864 0.56851 0.0
H897 H 0.3151 0.19755 0.63048 0.0
H898 H 0.30706 0.2302 0.57054 0.0
H899 H 0.31166 0.32174 0.6345 0.0
H900 H 0.27906 0.39956 0.4333 0.0
H901 H 0.30456 0.38289 0.49566 0.0
H902 H 0.29455 0.29235 0.46437 0.0
C903 C 0.32132 0.24294 0.60169 0.0
C904 C 0.30909 0.31586 0.59718 0.0
C905 C 0.3261 0.22409 0.63595 0.0
C906 C 0.26697 0.37373 0.4438 0.0
C907 C 0.28165 0.36426 0.47935 0.0
C908 C 0.29858 0.29914 0.50143 0.0
C909 C 0.33142 0.2766 0.61005 0.0
C910 C 0.31946 0.29427 0.57835 0.0
C911 C 0.26842 0.33063 0.49068 0.0
C912 C 0.28723 0.31959 0.52075 0.0
H913 H 0.36482 0.28385 0.71995 0.0
H914 H 0.35816 0.31757 0.65904 0.0
H915 H 0.32308 0.27108 0.51359 0.0
H916 H 0.20183 0.29724 0.41655 0.0
H917 H 0.22791 0.2809 0.47786 0.0
C918 C 0.12156 0.2801 0.12202 0.0
C919 C 0.13354 0.30819 0.15128 0.0
C920 C 0.10083 0.27615 0.08384 0.0
C921 C 0.06388 0.31406 1.00799 0.0
H922 H 0.9845 0.22827 0.0225 0.0
C923 C 0.94214 0.27547 0.90161 0.0
C924 C 0.92475 0.24242 0.88536 0.0
C925 C 0.96894 0.2858 0.93308 0.0
C926 C 1.00656 0.25214 1.01734 0.0
H927 H 0.13571 0.35548 0.16155 0.0
H928 H 0.09959 0.34882 0.0939 0.0
H929 H 0.03195 0.24344 0.0738 0.0
H930 H 0.92202 0.19435 0.88995 0.0
H931 H 0.96867 0.21238 0.94341 0.0
H932 H 0.03839 0.3225 0.95094 0.0
C933 C 0.10639 0.32994 0.10045 0.0
C934 C 0.03382 0.26084 0.04683 0.0
C935 C 0.12732 0.33393 0.13884 0.0
C936 C 0.93458 0.21995 0.90178 0.0
C937 C 0.96137 0.23029 0.93281 0.0
C938 C 0.03656 0.30518 0.97796 0.0
C939 C 0.09147 0.30013 0.07434 0.0
C940 C 0.06294 0.29171 0.04221 0.0
C941 C 0.97898 0.26334 0.94892 0.0
C942 C 1.00765 0.27391 0.982 0.0
H943 H 0.12571 0.25976 0.13131 0.0
H944 H 0.09019 0.2532 0.06381 0.0
H945 H 0.08595 0.33808 1.00383 0.0
H946 H 0.93534 0.29349 0.88964 0.0
H947 H 0.98165 0.31134 0.94515 0.0
C948 C 0.7527 0.08234 0.68518 0.0
C949 C 0.78525 0.10837 0.67819 0.0
C950 C 0.73639 0.05873 0.64964 0.0
C951 C 0.75824 0.01419 0.57363 0.0
H952 H 0.67755 0.98421 0.50046 0.0
C953 C 0.72236 0.91978 0.42193 0.0
C954 C 0.68885 0.90064 0.40867 0.0
C955 C 0.73165 0.94274 0.45886 0.0
C956 C 0.69975 0.99174 0.52139 0.0
H957 H 0.8255 0.13174 0.62823 0.0
H958 H 0.79705 0.09027 0.56606 0.0
H959 H 0.69661 0.03243 0.55265 0.0
H960 H 0.6385 0.88787 0.42696 0.0
H961 H 0.65454 0.92664 0.49294 0.0
H962 H 0.76116 0.97323 0.54442 0.0
C963 C 0.784 0.08847 0.59859 0.0
C964 C 0.71078 0.01961 0.55072 0.0
C965 C 0.80005 0.11237 0.63381 0.0
C966 C 0.66459 0.90257 0.43605 0.0
C967 C 0.67385 0.92515 0.47347 0.0
C968 C 0.74695 0.98602 0.54516 0.0
C969 C 0.75278 0.06069 0.60721 0.0
C970 C 0.74041 0.0313 0.57629 0.0
C971 C 0.70759 0.94664 0.48395 0.0
C972 C 0.71784 0.97468 0.51797 0.0
H973 H 0.74128 0.07837 0.71967 0.0
H974 H 0.71242 0.0373 0.65704 0.0
H975 H 0.78086 0.02252 0.59397 0.0
H976 H 0.74169 0.91905 0.40142 0.0
H977 H 0.7579 0.95888 0.46548 0.0
loop_
_geom_bond_atom_site_label_1
_geom_bond_atom_site_label_2
_geom_bond_distance
_geom_bond_site_symmetry_2
_ccdc_geom_bond_type
Co0 N1 2.034 . S
Co0 O15 2.262 . S
Co0 O19 1.958 . S
Co0 O23 1.950 . S
Co0 O24 2.057 . S
N1 Co0 2.034 . S
N1 C2 1.366 . S
N1 C4 1.332 1_455 S
C2 N1 1.366 . S
C2 C5 1.377 1_455 S
C2 H34 0.931 . S
N3 C4 1.346 . S
N3 C5 1.337 . S
C4 N1 1.332 1_655 S
C4 N3 1.346 . S
C4 C38 1.361 . S
C5 C2 1.377 1_655 S
C5 N3 1.337 . S
C5 H41 0.930 . S
Co6 N7 2.034 . S
Co6 O20 1.950 . S
Co6 O21 2.262 . S
Co6 O22 1.958 . S
Co6 O26 2.057 . S
N7 Co6 2.034 . S
N7 C10 1.366 . S
N7 C11 1.332 . S
N8 C9 1.337 . S
N8 C11 1.346 . S
C9 N8 1.337 . S
C9 C10 1.377 . S
C9 H42 0.930 . S
C10 N7 1.366 . S
C10 C9 1.377 . S
C10 H14 0.931 . S
C11 N7 1.332 . S
C11 N8 1.346 . S
C11 C28 1.361 . S
Co12 O15 2.097 . S
Co12 O16 2.065 . S
Co12 O17 2.065 . S
Co12 O18 2.042 . S
Co12 O21 2.097 . S
Co12 O25 2.042 . S
C13 O21 1.253 . S
C13 O26 1.263 . S
H14 C10 0.931 . S
O15 Co0 2.262 . S
O15 Co12 2.097 . S
O15 C39 1.253 . S
O16 Co12 2.065 . S
O16 C32 1.221 . S
O17 Co12 2.065 . S
O17 C27 1.221 . S
O18 Co12 2.042 . S
O18 C33 1.237 . S
O19 Co0 1.958 . S
O19 C33 1.278 . S
O20 Co6 1.950 . S
O20 C32 1.277 . S
O21 Co6 2.262 . S
O21 Co12 2.097 . S
O21 C13 1.253 . S
O22 Co6 1.958 . S
O22 C40 1.278 . S
O23 Co0 1.950 . S
O23 C27 1.277 . S
O24 Co0 2.057 . S
O24 C39 1.263 . S
O25 Co12 2.042 . S
O25 C40 1.237 . S
O26 Co6 2.057 . S
O26 C13 1.263 . S
C27 O17 1.221 . S
C27 O23 1.277 . S
C28 C11 1.361 . S
C28 H29 0.960 . S
C28 H30 0.961 . S
C28 H31 0.961 . S
H29 C28 0.960 . S
H30 C28 0.961 . S
H31 C28 0.961 . S
C32 O16 1.221 . S
C32 O20 1.277 . S
C33 O18 1.237 . S
C33 O19 1.278 . S
H34 C2 0.931 . S
H35 C38 0.961 . S
H36 C38 0.961 . S
H37 C38 0.960 . S
C38 C4 1.361 . S
C38 H35 0.961 . S
C38 H36 0.961 . S
C38 H37 0.960 . S
C39 O15 1.253 . S
C39 O24 1.263 . S
C40 O22 1.278 . S
C40 O25 1.237 . S
H41 C5 0.930 . S
H42 C9 0.930 . S
Co43 N44 2.034 . S
Co43 O58 2.262 . S
Co43 O62 1.958 . S
Co43 O66 1.950 . S
Co43 O67 2.057 . S
N44 Co43 2.034 . S
N44 C45 1.366 1_545 S
N44 C47 1.332 1_545 S
C45 N44 1.366 1_565 S
C45 C48 1.377 . S
C45 H77 0.931 . S
N46 C47 1.346 . S
N46 C48 1.337 . S
C47 N44 1.332 1_565 S
C47 N46 1.346 . S
C47 C81 1.358 1_565 S
C48 C45 1.377 . S
C48 N46 1.337 . S
C48 H84 0.930 . S
Co49 N50 2.034 . S
Co49 O63 1.950 . S
Co49 O64 2.262 . S
Co49 O65 1.958 . S
Co49 O69 2.057 . S
N50 Co49 2.034 . S
N50 C53 1.366 . S
N50 C54 1.332 . S
N51 C52 1.337 . S
N51 C54 1.346 . S
C52 N51 1.337 . S
C52 C53 1.377 . S
C52 H85 0.930 . S
C53 N50 1.366 . S
C53 C52 1.377 . S
C53 H57 0.931 . S
C54 N50 1.332 . S
C54 N51 1.346 . S
C54 C71 1.361 . S
Co55 O58 2.097 . S
Co55 O59 2.065 . S
Co55 O60 2.065 . S
Co55 O61 2.042 . S
Co55 O64 2.097 . S
Co55 O68 2.042 . S
C56 O64 1.253 . S
C56 O69 1.263 . S
H57 C53 0.931 . S
O58 Co43 2.262 . S
O58 Co55 2.097 . S
O58 C82 1.253 . S
O59 Co55 2.065 . S
O59 C75 1.221 . S
O60 Co55 2.065 . S
O60 C70 1.221 . S
O61 Co55 2.042 . S
O61 C76 1.237 . S
O62 Co43 1.958 . S
O62 C76 1.278 . S
O63 Co49 1.950 . S
O63 C75 1.277 . S
O64 Co49 2.262 . S
O64 Co55 2.097 . S
O64 C56 1.253 . S
O65 Co49 1.958 . S
O65 C83 1.278 . S
O66 Co43 1.950 . S
O66 C70 1.277 . S
O67 Co43 2.057 . S
O67 C82 1.263 . S
O68 Co55 2.042 . S
O68 C83 1.237 . S
O69 Co49 2.057 . S
O69 C56 1.263 . S
C70 O60 1.221 . S
C70 O66 1.277 . S
C71 C54 1.361 . S
C71 H72 0.960 . S
C71 H73 0.961 . S
C71 H74 0.961 . S
H72 C71 0.960 . S
H73 C71 0.961 . S
H74 C71 0.961 . S
C75 O59 1.221 . S
C75 O63 1.277 . S
C76 O61 1.237 . S
C76 O62 1.278 . S
H77 C45 0.931 . S
H78 C81 0.953 . S
H79 C81 0.955 1_565 S
H80 C81 0.977 . S
C81 C47 1.358 1_545 S
C81 H78 0.953 . S
C81 H79 0.955 1_545 S
C81 H80 0.977 . S
C82 O58 1.253 . S
C82 O67 1.263 . S
C83 O65 1.278 . S
C83 O68 1.237 . S
H84 C48 0.930 . S
H85 C52 0.930 . S
Co86 N87 2.034 . S
Co86 O101 2.262 . S
Co86 O105 1.958 . S
Co86 O109 1.950 . S
Co86 O110 2.057 . S
N87 Co86 2.034 . S
N87 C88 1.366 . S
N87 C90 1.332 . S
C88 N87 1.366 . S
C88 C91 1.377 . S
C88 H120 0.931 . S
N89 C90 1.346 . S
N89 C91 1.337 . S
C90 N87 1.332 . S
C90 N89 1.346 . S
C90 C124 1.361 . S
C91 C88 1.377 . S
C91 N89 1.337 . S
C91 H127 0.930 . S
Co92 N93 2.034 . S
Co92 O106 1.950 . S
Co92 O107 2.262 . S
Co92 O108 1.958 . S
Co92 O112 2.057 . S
N93 Co92 2.034 . S
N93 C96 1.366 . S
N93 C97 1.332 . S
N94 C95 1.337 . S
N94 C97 1.346 . S
C95 N94 1.337 . S
C95 C96 1.377 . S
C95 H128 0.930 . S
C96 N93 1.366 . S
C96 C95 1.377 . S
C96 H100 0.931 . S
C97 N93 1.332 . S
C97 N94 1.346 . S
C97 C114 1.361 . S
Co98 O101 2.097 . S
Co98 O102 2.065 . S
Co98 O103 2.065 . S
Co98 O104 2.042 . S
Co98 O107 2.097 . S
Co98 O111 2.042 . S
C99 O107 1.253 . S
C99 O112 1.263 . S
H100 C96 0.931 . S
O101 Co86 2.262 . S
O101 Co98 2.097 . S
O101 C125 1.253 . S
O102 Co98 2.065 . S
O102 C118 1.221 . S
O103 Co98 2.065 . S
O103 C113 1.221 . S
O104 Co98 2.042 . S
O104 C119 1.237 . S
O105 Co86 1.958 . S
O105 C119 1.278 . S
O106 Co92 1.950 . S
O106 C118 1.277 . S
O107 Co92 2.262 . S
O107 Co98 2.097 . S
O107 C99 1.253 . S
O108 Co92 1.958 . S
O108 C126 1.278 . S
O109 Co86 1.950 . S
O109 C113 1.277 . S
O110 Co86 2.057 . S
O110 C125 1.263 . S
O111 Co98 2.042 . S
O111 C126 1.237 . S
O112 Co92 2.057 . S
O112 C99 1.263 . S
C113 O103 1.221 . S
C113 O109 1.277 . S
C114 C97 1.361 . S
C114 H115 0.960 . S
C114 H116 0.961 . S
C114 H117 0.961 . S
H115 C114 0.960 . S
H116 C114 0.961 . S
H117 C114 0.961 . S
C118 O102 1.221 . S
C118 O106 1.277 . S
C119 O104 1.237 . S
C119 O105 1.278 . S
H120 C88 0.931 . S
H121 C124 0.961 . S
H122 C124 0.961 . S
H123 C124 0.960 . S
C124 C90 1.361 . S
C124 H121 0.961 . S
C124 H122 0.961 . S
C124 H123 0.960 . S
C125 O101 1.253 . S
C125 O110 1.263 . S
C126 O108 1.278 . S
C126 O111 1.237 . S
H127 C91 0.930 . S
H128 C95 0.930 . S
Co129 N130 2.034 . S
Co129 O144 2.262 . S
Co129 O148 1.958 . S
Co129 O152 1.950 . S
Co129 O153 2.057 . S
N130 Co129 2.034 . S
N130 C131 1.366 1_655 S
N130 C133 1.332 1_655 S
C131 N130 1.366 1_455 S
C131 C134 1.377 . S
C131 H163 0.931 . S
N132 C133 1.346 . S
N132 C134 1.337 . S
C133 N130 1.332 1_455 S
C133 N132 1.346 . S
C133 C167 1.354 1_455 S
C134 C131 1.377 . S
C134 N132 1.337 . S
C134 H170 0.930 . S
Co135 N136 2.034 . S
Co135 O149 1.950 . S
Co135 O150 2.262 . S
Co135 O151 1.958 . S
Co135 O155 2.057 . S
N136 Co135 2.034 . S
N136 C139 1.366 . S
N136 C140 1.332 . S
N137 C138 1.337 . S
N137 C140 1.346 . S
C138 N137 1.337 . S
C138 C139 1.377 . S
C138 H171 0.930 . S
C139 N136 1.366 . S
C139 C138 1.377 . S
C139 H143 0.931 . S
C140 N136 1.332 . S
C140 N137 1.346 . S
C140 C157 1.361 . S
Co141 O144 2.097 . S
Co141 O145 2.065 . S
Co141 O146 2.065 . S
Co141 O147 2.042 . S
Co141 O150 2.097 . S
Co141 O154 2.042 . S
C142 O150 1.253 . S
C142 O155 1.263 . S
H143 C139 0.931 . S
O144 Co129 2.262 . S
O144 Co141 2.097 . S
O144 C168 1.253 . S
O145 Co141 2.065 . S
O145 C161 1.221 . S
O146 Co141 2.065 . S
O146 C156 1.221 . S
O147 Co141 2.042 . S
O147 C162 1.237 . S
O148 Co129 1.958 . S
O148 C162 1.278 . S
O149 Co135 1.950 . S
O149 C161 1.277 . S
O150 Co135 2.262 . S
O150 Co141 2.097 . S
O150 C142 1.253 . S
O151 Co135 1.958 . S
O151 C169 1.278 . S
O152 Co129 1.950 . S
O152 C156 1.277 . S
O153 Co129 2.057 . S
O153 C168 1.263 . S
O154 Co141 2.042 . S
O154 C169 1.237 . S
O155 Co135 2.057 . S
O155 C142 1.263 . S
C156 O146 1.221 . S
C156 O152 1.277 . S
C157 C140 1.361 . S
C157 H158 0.960 . S
C157 H159 0.961 . S
C157 H160 0.961 . S
H158 C157 0.960 . S
H159 C157 0.961 . S
H160 C157 0.961 . S
C161 O145 1.221 . S
C161 O149 1.277 . S
C162 O147 1.237 . S
C162 O148 1.278 . S
H163 C131 0.931 . S
H164 C167 0.970 . S
H165 C167 0.949 1_455 S
H166 C167 0.971 . S
C167 C133 1.354 1_655 S
C167 H164 0.970 . S
C167 H165 0.949 1_655 S
C167 H166 0.971 . S
C168 O144 1.253 . S
C168 O153 1.263 . S
C169 O151 1.278 . S
C169 O154 1.237 . S
H170 C134 0.930 . S
H171 C138 0.930 . S
Co172 N173 2.034 . S
Co172 O187 2.262 . S
Co172 O191 1.958 . S
Co172 O195 1.950 . S
Co172 O196 2.057 . S
N173 Co172 2.034 . S
N173 C174 1.366 . S
N173 C176 1.332 . S
C174 N173 1.366 . S
C174 C177 1.377 . S
C174 H206 0.931 . S
N175 C176 1.346 . S
N175 C177 1.337 . S
C176 N173 1.332 . S
C176 N175 1.346 . S
C176 C210 1.361 . S
C177 C174 1.377 . S
C177 N175 1.337 . S
C177 H213 0.930 . S
Co178 N179 2.034 . S
Co178 O192 1.950 . S
Co178 O193 2.262 . S
Co178 O194 1.958 . S
Co178 O198 2.057 . S
N179 Co178 2.034 . S
N179 C182 1.366 . S
N179 C183 1.332 1_565 S
N180 C181 1.337 . S
N180 C183 1.346 . S
C181 N180 1.337 . S
C181 C182 1.377 1_545 S
C181 H214 0.930 . S
C182 N179 1.366 . S
C182 C181 1.377 1_565 S
C182 H186 0.931 . S
C183 N179 1.332 1_545 S
C183 N180 1.346 . S
C183 C200 1.361 . S
Co184 O187 2.097 . S
Co184 O188 2.065 . S
Co184 O189 2.065 . S
Co184 O190 2.042 . S
Co184 O193 2.097 . S
Co184 O197 2.042 . S
C185 O193 1.253 . S
C185 O198 1.263 . S
H186 C182 0.931 . S
O187 Co172 2.262 . S
O187 Co184 2.097 . S
O187 C211 1.253 . S
O188 Co184 2.065 . S
O188 C204 1.221 . S
O189 Co184 2.065 . S
O189 C199 1.221 . S
O190 Co184 2.042 . S
O190 C205 1.237 . S
O191 Co172 1.958 . S
O191 C205 1.278 . S
O192 Co178 1.950 . S
O192 C204 1.277 . S
O193 Co178 2.262 . S
O193 Co184 2.097 . S
O193 C185 1.253 . S
O194 Co178 1.958 . S
O194 C212 1.278 . S
O195 Co172 1.950 . S
O195 C199 1.277 . S
O196 Co172 2.057 . S
O196 C211 1.263 . S
O197 Co184 2.042 . S
O197 C212 1.237 . S
O198 Co178 2.057 . S
O198 C185 1.263 . S
C199 O189 1.221 . S
C199 O195 1.277 . S
C200 C183 1.361 . S
C200 H201 0.960 . S
C200 H202 0.961 . S
C200 H203 0.961 . S
H201 C200 0.960 . S
H202 C200 0.961 . S
H203 C200 0.961 . S
C204 O188 1.221 . S
C204 O192 1.277 . S
C205 O190 1.237 . S
C205 O191 1.278 . S
H206 C174 0.931 . S
H207 C210 0.961 . S
H208 C210 0.961 . S
H209 C210 0.960 . S
C210 C176 1.361 . S
C210 H207 0.961 . S
C210 H208 0.961 . S
C210 H209 0.960 . S
C211 O187 1.253 . S
C211 O196 1.263 . S
C212 O194 1.278 . S
C212 O197 1.237 . S
H213 C177 0.930 . S
H214 C181 0.930 . S
Co215 N216 2.034 . S
Co215 O230 2.262 . S
Co215 O234 1.958 . S
Co215 O238 1.950 . S
Co215 O239 2.057 . S
N216 Co215 2.034 . S
N216 C217 1.366 . S
N216 C219 1.332 . S
C217 N216 1.366 . S
C217 C220 1.377 . S
C217 H249 0.931 . S
N218 C219 1.346 . S
N218 C220 1.337 . S
C219 N216 1.332 . S
C219 N218 1.346 . S
C219 C253 1.361 . S
C220 C217 1.377 . S
C220 N218 1.337 . S
C220 H256 0.930 . S
Co221 N222 2.034 . S
Co221 O235 1.950 . S
Co221 O236 2.262 . S
Co221 O237 1.958 . S
Co221 O241 2.057 . S
N222 Co221 2.034 . S
N222 C225 1.366 . S
N222 C226 1.332 . S
N223 C224 1.337 . S
N223 C226 1.346 . S
C224 N223 1.337 . S
C224 C225 1.377 . S
C224 H257 0.930 . S
C225 N222 1.366 . S
C225 C224 1.377 . S
C225 H229 0.931 . S
C226 N222 1.332 . S
C226 N223 1.346 . S
C226 C243 1.361 . S
Co227 O230 2.097 . S
Co227 O231 2.065 . S
Co227 O232 2.065 . S
Co227 O233 2.042 . S
Co227 O236 2.097 . S
Co227 O240 2.042 . S
C228 O236 1.253 . S
C228 O241 1.263 . S
H229 C225 0.931 . S
O230 Co215 2.262 . S
O230 Co227 2.097 . S
O230 C254 1.253 . S
O231 Co227 2.065 . S
O231 C247 1.221 . S
O232 Co227 2.065 . S
O232 C242 1.221 . S
O233 Co227 2.042 . S
O233 C248 1.237 . S
O234 Co215 1.958 . S
O234 C248 1.278 . S
O235 Co221 1.950 . S
O235 C247 1.277 . S
O236 Co221 2.262 . S
O236 Co227 2.097 . S
O236 C228 1.253 . S
O237 Co221 1.958 . S
O237 C255 1.278 . S
O238 Co215 1.950 . S
O238 C242 1.277 . S
O239 Co215 2.057 . S
O239 C254 1.263 . S
O240 Co227 2.042 . S
O240 C255 1.237 . S
O241 Co221 2.057 . S
O241 C228 1.263 . S
C242 O232 1.221 . S
C242 O238 1.277 . S
C243 C226 1.361 . S
C243 H244 0.960 . S
C243 H245 0.961 . S
C243 H246 0.961 . S
H244 C243 0.960 . S
H245 C243 0.961 . S
H246 C243 0.961 . S
C247 O231 1.221 . S
C247 O235 1.277 . S
C248 O233 1.237 . S
C248 O234 1.278 . S
H249 C217 0.931 . S
H250 C253 0.961 . S
H251 C253 0.961 . S
H252 C253 0.960 . S
C253 C219 1.361 . S
C253 H250 0.961 . S
C253 H251 0.961 . S
C253 H252 0.960 . S
C254 O230 1.253 . S
C254 O239 1.263 . S
C255 O237 1.278 . S
C255 O240 1.237 . S
H256 C220 0.930 . S
H257 C224 0.930 . S
C258 C259 1.349 . S
C258 C260 1.327 . S
C258 H283 0.950 . S
C259 C258 1.349 . S
C259 C275 1.349 . S
C260 C258 1.327 . S
C260 C279 1.429 . S
C260 H284 0.950 . S
C261 C278 1.574 . S
C261 C280 1.368 . S
C261 H285 0.949 . S
H262 C266 0.949 . S
C263 C264 1.349 . S
C263 C265 1.327 . S
C263 H286 0.950 . S
C264 C263 1.349 . S
C264 C276 1.349 . S
C265 C263 1.327 . S
C265 C281 1.429 . S
C265 H287 0.950 . S
C266 H262 0.949 . S
C266 C274 1.574 . S
C266 C282 1.368 . S
H267 C275 0.950 . S
H268 C273 0.950 . S
H269 C274 0.949 . S
H270 C276 0.950 . S
H271 C277 0.950 . S
H272 C278 0.949 . S
C273 H268 0.950 . S
C273 C275 1.327 . S
C273 C279 1.429 . S
C274 C266 1.574 . S
C274 H269 0.949 . S
C274 C280 1.368 . S
C275 C259 1.349 . S
C275 H267 0.950 . S
C275 C273 1.327 . S
C276 C264 1.349 . S
C276 H270 0.950 . S
C276 C277 1.327 . S
C277 H271 0.950 . S
C277 C276 1.327 . S
C277 C281 1.429 . S
C278 C261 1.574 . S
C278 H272 0.949 . S
C278 C282 1.368 . S
C279 C260 1.429 . S
C279 C273 1.429 . S
C279 C280 1.523 . S
C280 C261 1.368 . S
C280 C274 1.368 . S
C280 C279 1.523 . S
C281 C265 1.429 . S
C281 C277 1.429 . S
C281 C282 1.523 . S
C282 C266 1.368 . S
C282 C278 1.368 . S
C282 C281 1.523 . S
H283 C258 0.950 . S
H284 C260 0.950 . S
H285 C261 0.949 . S
H286 C263 0.950 . S
H287 C265 0.950 . S
C288 C289 1.349 . S
C288 C290 1.327 . S
C288 H313 0.950 . S
C289 C288 1.349 . S
C289 C305 1.349 . S
C290 C288 1.327 . S
C290 C309 1.429 . S
C290 H314 0.950 . S
C291 C308 1.574 . S
C291 C310 1.368 . S
C291 H315 0.949 . S
H292 C296 0.949 . S
C293 C294 1.349 . S
C293 C295 1.327 . S
C293 H316 0.950 . S
C294 C293 1.349 . S
C294 C306 1.349 . S
C295 C293 1.327 . S
C295 C311 1.429 . S
C295 H317 0.950 . S
C296 H292 0.949 . S
C296 C304 1.574 . S
C296 C312 1.368 . S
H297 C305 0.950 . S
H298 C303 0.950 . S
H299 C304 0.949 . S
H300 C306 0.950 . S
H301 C307 0.950 . S
H302 C308 0.949 . S
C303 H298 0.950 . S
C303 C305 1.327 . S
C303 C309 1.429 . S
C304 C296 1.574 . S
C304 H299 0.949 . S
C304 C310 1.368 . S
C305 C289 1.349 . S
C305 H297 0.950 . S
C305 C303 1.327 . S
C306 C294 1.349 . S
C306 H300 0.950 . S
C306 C307 1.327 . S
C307 H301 0.950 . S
C307 C306 1.327 . S
C307 C311 1.429 . S
C308 C291 1.574 . S
C308 H302 0.949 . S
C308 C312 1.368 . S
C309 C290 1.429 . S
C309 C303 1.429 . S
C309 C310 1.523 . S
C310 C291 1.368 . S
C310 C304 1.368 . S
C310 C309 1.523 . S
C311 C295 1.429 . S
C311 C307 1.429 . S
C311 C312 1.523 . S
C312 C296 1.368 . S
C312 C308 1.368 . S
C312 C311 1.523 . S
H313 C288 0.950 . S
H314 C290 0.950 . S
H315 C291 0.949 . S
H316 C293 0.950 . S
H317 C295 0.950 . S
C318 C319 1.349 . S
C318 C320 1.327 . S
C318 H343 0.950 . S
C319 C318 1.349 . S
C319 C335 1.349 . S
C320 C318 1.327 . S
C320 C339 1.429 . S
C320 H344 0.950 . S
C321 C338 1.574 . S
C321 C340 1.368 . S
C321 H345 0.949 . S
H322 C326 0.949 . S
C323 C324 1.349 . S
C323 C325 1.327 . S
C323 H346 0.950 . S
C324 C323 1.349 . S
C324 C336 1.349 . S
C325 C323 1.327 . S
C325 C341 1.429 . S
C325 H347 0.950 . S
C326 H322 0.949 . S
C326 C334 1.574 . S
C326 C342 1.368 . S
H327 C335 0.950 . S
H328 C333 0.950 . S
H329 C334 0.949 . S
H330 C336 0.950 . S
H331 C337 0.950 . S
H332 C338 0.949 . S
C333 H328 0.950 . S
C333 C335 1.327 . S
C333 C339 1.429 . S
C334 C326 1.574 . S
C334 H329 0.949 . S
C334 C340 1.368 . S
C335 C319 1.349 . S
C335 H327 0.950 . S
C335 C333 1.327 . S
C336 C324 1.349 . S
C336 H330 0.950 . S
C336 C337 1.327 . S
C337 H331 0.950 . S
C337 C336 1.327 . S
C337 C341 1.429 . S
C338 C321 1.574 . S
C338 H332 0.949 . S
C338 C342 1.368 . S
C339 C320 1.429 . S
C339 C333 1.429 . S
C339 C340 1.523 . S
C340 C321 1.368 . S
C340 C334 1.368 . S
C340 C339 1.523 . S
C341 C325 1.429 . S
C341 C337 1.429 . S
C341 C342 1.523 . S
C342 C326 1.368 . S
C342 C338 1.368 . S
C342 C341 1.523 . S
H343 C318 0.950 . S
H344 C320 0.950 . S
H345 C321 0.949 . S
H346 C323 0.950 . S
H347 C325 0.950 . S
C348 C349 1.349 . S
C348 C350 1.327 . S
C348 H373 0.950 . S
C349 C348 1.349 . S
C349 C365 1.349 . S
C350 C348 1.327 . S
C350 C369 1.429 . S
C350 H374 0.950 . S
C351 C368 1.574 . S
C351 C370 1.368 . S
C351 H375 0.949 . S
H352 C356 0.949 . S
C353 C354 1.349 . S
C353 C355 1.327 . S
C353 H376 0.950 . S
C354 C353 1.349 . S
C354 C366 1.349 . S
C355 C353 1.327 . S
C355 C371 1.429 . S
C355 H377 0.950 . S
C356 H352 0.949 . S
C356 C364 1.574 . S
C356 C372 1.368 . S
H357 C365 0.950 . S
H358 C363 0.950 . S
H359 C364 0.949 . S
H360 C366 0.950 . S
H361 C367 0.950 . S
H362 C368 0.949 . S
C363 H358 0.950 . S
C363 C365 1.327 . S
C363 C369 1.429 . S
C364 C356 1.574 . S
C364 H359 0.949 . S
C364 C370 1.368 . S
C365 C349 1.349 . S
C365 H357 0.950 . S
C365 C363 1.327 . S
C366 C354 1.349 . S
C366 H360 0.950 . S
C366 C367 1.327 . S
C367 H361 0.950 . S
C367 C366 1.327 . S
C367 C371 1.429 . S
C368 C351 1.574 . S
C368 H362 0.949 . S
C368 C372 1.368 . S
C369 C350 1.429 . S
C369 C363 1.429 . S
C369 C370 1.523 . S
C370 C351 1.368 . S
C370 C364 1.368 . S
C370 C369 1.523 . S
C371 C355 1.429 . S
C371 C367 1.429 . S
C371 C372 1.523 . S
C372 C356 1.368 . S
C372 C368 1.368 . S
C372 C371 1.523 . S
H373 C348 0.950 . S
H374 C350 0.950 . S
H375 C351 0.949 . S
H376 C353 0.950 . S
H377 C355 0.950 . S
C378 C379 1.349 . S
C378 C380 1.327 . S
C378 H403 0.950 . S
C379 C378 1.349 . S
C379 C395 1.349 . S
C380 C378 1.327 . S
C380 C399 1.429 . S
C380 H404 0.950 . S
C381 C398 1.574 . S
C381 C400 1.368 . S
C381 H405 0.949 . S
H382 C386 0.949 . S
C383 C384 1.349 . S
C383 C385 1.327 . S
C383 H406 0.950 . S
C384 C383 1.349 . S
C384 C396 1.349 . S
C385 C383 1.327 . S
C385 C401 1.429 . S
C385 H407 0.950 . S
C386 H382 0.949 . S
C386 C394 1.574 . S
C386 C402 1.368 . S
H387 C395 0.950 . S
H388 C393 0.950 . S
H389 C394 0.949 . S
H390 C396 0.950 . S
H391 C397 0.950 . S
H392 C398 0.949 . S
C393 H388 0.950 . S
C393 C395 1.327 . S
C393 C399 1.429 . S
C394 C386 1.574 . S
C394 H389 0.949 . S
C394 C400 1.368 . S
C395 C379 1.349 . S
C395 H387 0.950 . S
C395 C393 1.327 . S
C396 C384 1.349 . S
C396 H390 0.950 . S
C396 C397 1.327 . S
C397 H391 0.950 . S
C397 C396 1.327 . S
C397 C401 1.429 . S
C398 C381 1.574 . S
C398 H392 0.949 . S
C398 C402 1.368 . S
C399 C380 1.429 . S
C399 C393 1.429 . S
C399 C400 1.523 . S
C400 C381 1.368 . S
C400 C394 1.368 . S
C400 C399 1.523 . S
C401 C385 1.429 . S
C401 C397 1.429 . S
C401 C402 1.523 . S
C402 C386 1.368 . S
C402 C398 1.368 . S
C402 C401 1.523 . S
H403 C378 0.950 . S
H404 C380 0.950 . S
H405 C381 0.949 . S
H406 C383 0.950 . S
H407 C385 0.950 . S
C408 C409 1.349 . S
C408 C410 1.327 . S
C408 H433 0.950 . S
C409 C408 1.349 . S
C409 C425 1.349 . S
C410 C408 1.327 . S
C410 C429 1.429 . S
C410 H434 0.950 . S
C411 C428 1.574 . S
C411 C430 1.368 . S
C411 H435 0.949 . S
H412 C416 0.949 . S
C413 C414 1.349 . S
C413 C415 1.327 . S
C413 H436 0.950 . S
C414 C413 1.349 . S
C414 C426 1.349 . S
C415 C413 1.327 . S
C415 C431 1.429 . S
C415 H437 0.950 . S
C416 H412 0.949 . S
C416 C424 1.574 . S
C416 C432 1.368 . S
H417 C425 0.950 . S
H418 C423 0.950 . S
H419 C424 0.949 . S
H420 C426 0.950 . S
H421 C427 0.950 . S
H422 C428 0.949 . S
C423 H418 0.950 . S
C423 C425 1.327 . S
C423 C429 1.429 . S
C424 C416 1.574 . S
C424 H419 0.949 . S
C424 C430 1.368 . S
C425 C409 1.349 . S
C425 H417 0.950 . S
C425 C423 1.327 . S
C426 C414 1.349 . S
C426 H420 0.950 . S
C426 C427 1.327 . S
C427 H421 0.950 . S
C427 C426 1.327 . S
C427 C431 1.429 . S
C428 C411 1.574 . S
C428 H422 0.949 . S
C428 C432 1.368 . S
C429 C410 1.429 . S
C429 C423 1.429 . S
C429 C430 1.523 . S
C430 C411 1.368 . S
C430 C424 1.368 . S
C430 C429 1.523 . S
C431 C415 1.429 . S
C431 C427 1.429 . S
C431 C432 1.523 . S
C432 C416 1.368 . S
C432 C428 1.368 . S
C432 C431 1.523 . S
H433 C408 0.950 . S
H434 C410 0.950 . S
H435 C411 0.949 . S
H436 C413 0.950 . S
H437 C415 0.950 . S
C438 C439 1.349 . S
C438 C440 1.327 . S
C438 H463 0.950 . S
C439 C438 1.349 . S
C439 C455 1.349 . S
C440 C438 1.327 . S
C440 C459 1.429 . S
C440 H464 0.950 . S
C441 C458 1.574 . S
C441 C460 1.368 . S
C441 H465 0.949 . S
H442 C446 0.949 . S
C443 C444 1.349 . S
C443 C445 1.327 . S
C443 H466 0.950 . S
C444 C443 1.349 . S
C444 C456 1.349 . S
C445 C443 1.327 . S
C445 C461 1.429 . S
C445 H467 0.950 . S
C446 H442 0.949 . S
C446 C454 1.574 . S
C446 C462 1.368 . S
H447 C455 0.950 . S
H448 C453 0.950 . S
H449 C454 0.949 . S
H450 C456 0.950 . S
H451 C457 0.950 . S
H452 C458 0.949 . S
C453 H448 0.950 . S
C453 C455 1.327 . S
C453 C459 1.429 . S
C454 C446 1.574 . S
C454 H449 0.949 . S
C454 C460 1.368 . S
C455 C439 1.349 . S
C455 H447 0.950 . S
C455 C453 1.327 . S
C456 C444 1.349 . S
C456 H450 0.950 . S
C456 C457 1.327 . S
C457 H451 0.950 . S
C457 C456 1.327 . S
C457 C461 1.429 . S
C458 C441 1.574 . S
C458 H452 0.949 . S
C458 C462 1.368 . S
C459 C440 1.429 . S
C459 C453 1.429 . S
C459 C460 1.523 . S
C460 C441 1.368 . S
C460 C454 1.368 . S
C460 C459 1.523 . S
C461 C445 1.429 . S
C461 C457 1.429 . S
C461 C462 1.523 . S
C462 C446 1.368 . S
C462 C458 1.368 . S
C462 C461 1.523 . S
H463 C438 0.950 . S
H464 C440 0.950 . S
H465 C441 0.949 . S
H466 C443 0.950 . S
H467 C445 0.950 . S
C468 C469 1.349 . S
C468 C470 1.327 . S
C468 H493 0.950 . S
C469 C468 1.349 . S
C469 C485 1.349 . S
C470 C468 1.327 . S
C470 C489 1.429 . S
C470 H494 0.950 . S
C471 C488 1.574 1_655 S
C471 C490 1.368 . S
C471 H495 0.949 . S
H472 C476 0.949 . S
C473 C474 1.349 . S
C473 C475 1.327 . S
C473 H496 0.950 . S
C474 C473 1.349 . S
C474 C486 1.349 . S
C475 C473 1.327 . S
C475 C491 1.429 . S
C475 H497 0.950 . S
C476 H472 0.949 . S
C476 C484 1.574 1_455 S
C476 C492 1.368 . S
H477 C485 0.950 . S
H478 C483 0.950 . S
H479 C484 0.949 . S
H480 C486 0.950 . S
H481 C487 0.950 . S
H482 C488 0.949 . S
C483 H478 0.950 . S
C483 C485 1.327 . S
C483 C489 1.429 . S
C484 C476 1.574 1_655 S
C484 H479 0.949 . S
C484 C490 1.368 . S
C485 C469 1.349 . S
C485 H477 0.950 . S
C485 C483 1.327 . S
C486 C474 1.349 . S
C486 H480 0.950 . S
C486 C487 1.327 . S
C487 H481 0.950 . S
C487 C486 1.327 . S
C487 C491 1.429 . S
C488 C471 1.574 1_455 S
C488 H482 0.949 . S
C488 C492 1.368 . S
C489 C470 1.429 . S
C489 C483 1.429 . S
C489 C490 1.523 . S
C490 C471 1.368 . S
C490 C484 1.368 . S
C490 C489 1.523 . S
C491 C475 1.429 . S
C491 C487 1.429 . S
C491 C492 1.523 . S
C492 C476 1.368 . S
C492 C488 1.368 . S
C492 C491 1.523 . S
H493 C468 0.950 . S
H494 C470 0.950 . S
H495 C471 0.949 . S
H496 C473 0.950 . S
H497 C475 0.950 . S
C498 C499 1.349 . S
C498 C500 1.327 . S
C498 H523 0.950 . S
C499 C498 1.349 . S
C499 C515 1.349 . S
C500 C498 1.327 . S
C500 C519 1.429 . S
C500 H524 0.950 . S
C501 C518 1.574 . S
C501 C520 1.368 . S
C501 H525 0.949 . S
H502 C506 0.973 . S
C503 C504 1.349 . S
C503 C505 1.327 . S
C503 H526 0.950 . S
C504 C503 1.349 . S
C504 C516 1.349 . S
C505 C503 1.327 . S
C505 C521 1.429 . S
C505 H527 0.950 . S
C506 H502 0.973 . S
C506 C514 1.548 1_565 S
C506 C522 1.367 . S
H507 C515 0.950 . S
H508 C513 0.950 . S
H509 C514 0.949 . S
H510 C516 0.950 . S
H511 C517 0.950 . S
H512 C518 0.949 1_565 S
C513 H508 0.950 . S
C513 C515 1.327 . S
C513 C519 1.429 . S
C514 C506 1.548 1_545 S
C514 H509 0.949 . S
C514 C520 1.368 . S
C515 C499 1.349 . S
C515 H507 0.950 . S
C515 C513 1.327 . S
C516 C504 1.349 . S
C516 H510 0.950 . S
C516 C517 1.327 . S
C517 H511 0.950 . S
C517 C516 1.327 . S
C517 C521 1.429 . S
C518 C501 1.574 . S
C518 H512 0.949 1_545 S
C518 C522 1.368 1_545 S
C519 C500 1.429 . S
C519 C513 1.429 . S
C519 C520 1.523 . S
C520 C501 1.368 . S
C520 C514 1.368 . S
C520 C519 1.523 . S
C521 C505 1.429 . S
C521 C517 1.429 . S
C521 C522 1.523 . S
C522 C506 1.367 . S
C522 C518 1.368 1_565 S
C522 C521 1.523 . S
H523 C498 0.950 . S
H524 C500 0.950 . S
H525 C501 0.949 . S
H526 C503 0.950 . S
H527 C505 0.950 . S
C528 C529 1.349 . S
C528 C530 1.327 . S
C528 H553 0.950 . S
C529 C528 1.349 . S
C529 C545 1.349 . S
C530 C528 1.327 . S
C530 C549 1.429 . S
C530 H554 0.950 . S
C531 C548 1.574 . S
C531 C550 1.368 . S
C531 H555 0.949 . S
H532 C536 0.949 . S
C533 C534 1.349 . S
C533 C535 1.327 . S
C533 H556 0.950 . S
C534 C533 1.349 . S
C534 C546 1.349 . S
C535 C533 1.327 . S
C535 C551 1.429 . S
C535 H557 0.950 . S
C536 H532 0.949 . S
C536 C544 1.574 . S
C536 C552 1.368 . S
H537 C545 0.950 . S
H538 C543 0.950 . S
H539 C544 0.949 . S
H540 C546 0.950 . S
H541 C547 0.950 . S
H542 C548 0.949 . S
C543 H538 0.950 . S
C543 C545 1.327 . S
C543 C549 1.429 . S
C544 C536 1.574 . S
C544 H539 0.949 . S
C544 C550 1.368 . S
C545 C529 1.349 . S
C545 H537 0.950 . S
C545 C543 1.327 . S
C546 C534 1.349 . S
C546 H540 0.950 . S
C546 C547 1.327 . S
C547 H541 0.950 . S
C547 C546 1.327 . S
C547 C551 1.429 . S
C548 C531 1.574 . S
C548 H542 0.949 . S
C548 C552 1.368 . S
C549 C530 1.429 . S
C549 C543 1.429 . S
C549 C550 1.523 . S
C550 C531 1.368 . S
C550 C544 1.368 . S
C550 C549 1.523 . S
C551 C535 1.429 . S
C551 C547 1.429 . S
C551 C552 1.523 . S
C552 C536 1.368 . S
C552 C548 1.368 . S
C552 C551 1.523 . S
H553 C528 0.950 . S
H554 C530 0.950 . S
H555 C531 0.949 . S
H556 C533 0.950 . S
H557 C535 0.950 . S
C558 C559 1.349 . S
C558 C560 1.327 . S
C558 H583 0.950 . S
C559 C558 1.349 . S
C559 C575 1.349 . S
C560 C558 1.327 . S
C560 C579 1.429 . S
C560 H584 0.950 . S
C561 C578 1.543 1_655 S
C561 C580 1.368 . S
C561 H585 0.949 . S
H562 C566 0.949 1_455 S
C563 C564 1.349 . S
C563 C565 1.327 . S
C563 H586 0.950 . S
C564 C563 1.349 . S
C564 C576 1.349 . S
C565 C563 1.327 . S
C565 C581 1.429 . S
C565 H587 0.950 . S
C566 H562 0.949 1_655 S
C566 C574 1.574 . S
C566 C582 1.368 1_655 S
H567 C575 0.950 . S
H568 C573 0.950 . S
H569 C574 0.949 . S
H570 C576 0.950 . S
H571 C577 0.950 . S
H572 C578 0.961 . S
C573 H568 0.950 . S
C573 C575 1.327 . S
C573 C579 1.429 . S
C574 C566 1.574 . S
C574 H569 0.949 . S
C574 C580 1.368 . S
C575 C559 1.349 . S
C575 H567 0.950 . S
C575 C573 1.327 . S
C576 C564 1.349 . S
C576 H570 0.950 . S
C576 C577 1.327 . S
C577 H571 0.950 . S
C577 C576 1.327 . S
C577 C581 1.429 . S
C578 C561 1.543 1_455 S
C578 H572 0.961 . S
C578 C582 1.386 . S
C579 C560 1.429 . S
C579 C573 1.429 . S
C579 C580 1.523 . S
C580 C561 1.368 . S
C580 C574 1.368 . S
C580 C579 1.523 . S
C581 C565 1.429 . S
C581 C577 1.429 . S
C581 C582 1.523 . S
C582 C566 1.368 1_455 S
C582 C578 1.386 . S
C582 C581 1.523 . S
H583 C558 0.950 . S
H584 C560 0.950 . S
H585 C561 0.949 . S
H586 C563 0.950 . S
H587 C565 0.950 . S
C588 C589 1.349 . S
C588 C590 1.327 . S
C588 H613 0.950 . S
C589 C588 1.349 . S
C589 C605 1.349 . S
C590 C588 1.327 . S
C590 C609 1.429 . S
C590 H614 0.950 . S
C591 C608 1.574 1_545 S
C591 C610 1.368 . S
C591 H615 0.949 . S
H592 C596 0.949 . S
C593 C594 1.349 . S
C593 C595 1.327 . S
C593 H616 0.950 . S
C594 C593 1.349 . S
C594 C606 1.349 . S
C595 C593 1.327 . S
C595 C611 1.429 . S
C595 H617 0.950 . S
C596 H592 0.949 . S
C596 C604 1.574 1_565 S
C596 C612 1.368 . S
H597 C605 0.950 . S
H598 C603 0.950 . S
H599 C604 0.949 . S
H600 C606 0.950 . S
H601 C607 0.950 . S
H602 C608 0.949 . S
C603 H598 0.950 . S
C603 C605 1.327 . S
C603 C609 1.429 . S
C604 C596 1.574 1_545 S
C604 H599 0.949 . S
C604 C610 1.368 . S
C605 C589 1.349 . S
C605 H597 0.950 . S
C605 C603 1.327 . S
C606 C594 1.349 . S
C606 H600 0.950 . S
C606 C607 1.327 . S
C607 H601 0.950 . S
C607 C606 1.327 . S
C607 C611 1.429 . S
C608 C591 1.574 1_565 S
C608 H602 0.949 . S
C608 C612 1.368 . S
C609 C590 1.429 . S
C609 C603 1.429 . S
C609 C610 1.523 . S
C610 C591 1.368 . S
C610 C604 1.368 . S
C610 C609 1.523 . S
C611 C595 1.429 . S
C611 C607 1.429 . S
C611 C612 1.523 . S
C612 C596 1.368 . S
C612 C608 1.368 . S
C612 C611 1.523 . S
H613 C588 0.950 . S
H614 C590 0.950 . S
H615 C591 0.949 . S
H616 C593 0.950 . S
H617 C595 0.950 . S
C618 C619 1.349 . S
C618 C620 1.327 . S
C618 H643 0.950 . S
C619 C618 1.349 . S
C619 C635 1.349 . S
C620 C618 1.327 . S
C620 C639 1.429 . S
C620 H644 0.950 . S
C621 C638 1.574 1_554 S
C621 C640 1.368 . S
C621 H645 0.949 . S
H622 C626 0.949 . S
C623 C624 1.349 . S
C623 C625 1.327 . S
C623 H646 0.950 . S
C624 C623 1.349 . S
C624 C636 1.349 . S
C625 C623 1.327 . S
C625 C641 1.429 . S
C625 H647 0.950 . S
C626 H622 0.949 . S
C626 C634 1.574 1_556 S
C626 C642 1.368 . S
H627 C635 0.950 . S
H628 C633 0.950 . S
H629 C634 0.949 . S
H630 C636 0.950 . S
H631 C637 0.950 . S
H632 C638 0.949 . S
C633 H628 0.950 . S
C633 C635 1.327 . S
C633 C639 1.429 . S
C634 C626 1.574 1_554 S
C634 H629 0.949 . S
C634 C640 1.368 . S
C635 C619 1.349 . S
C635 H627 0.950 . S
C635 C633 1.327 . S
C636 C624 1.349 . S
C636 H630 0.950 . S
C636 C637 1.327 . S
C637 H631 0.950 . S
C637 C636 1.327 . S
C637 C641 1.429 . S
C638 C621 1.574 1_556 S
C638 H632 0.949 . S
C638 C642 1.368 . S
C639 C620 1.429 . S
C639 C633 1.429 . S
C639 C640 1.523 . S
C640 C621 1.368 . S
C640 C634 1.368 . S
C640 C639 1.523 . S
C641 C625 1.429 . S
C641 C637 1.429 . S
C641 C642 1.523 . S
C642 C626 1.368 . S
C642 C638 1.368 . S
C642 C641 1.523 . S
H643 C618 0.950 . S
H644 C620 0.950 . S
H645 C621 0.949 . S
H646 C623 0.950 . S
H647 C625 0.950 . S
C648 C649 1.349 . S
C648 C650 1.327 . S
C648 H673 0.950 . S
C649 C648 1.349 . S
C649 C665 1.349 . S
C650 C648 1.327 . S
C650 C669 1.429 . S
C650 H674 0.950 . S
C651 C668 1.574 . S
C651 C670 1.368 . S
C651 H675 0.949 . S
H652 C656 0.949 1_455 S
C653 C654 1.349 . S
C653 C655 1.308 1_455 S
C653 H676 0.950 . S
C654 C653 1.349 . S
C654 C666 1.349 . S
C655 C653 1.308 1_655 S
C655 C671 1.431 1_655 S
C655 H677 0.968 . S
C656 H652 0.949 1_655 S
C656 C664 1.574 . S
C656 C672 1.368 . S
H657 C665 0.950 . S
H658 C663 0.950 . S
H659 C664 0.949 . S
H660 C666 0.950 . S
H661 C667 0.950 . S
H662 C668 0.949 . S
C663 H658 0.950 . S
C663 C665 1.327 . S
C663 C669 1.429 . S
C664 C656 1.574 . S
C664 H659 0.949 . S
C664 C670 1.368 . S
C665 C649 1.349 . S
C665 H657 0.950 . S
C665 C663 1.327 . S
C666 C654 1.349 . S
C666 H660 0.950 . S
C666 C667 1.327 . S
C667 H661 0.950 . S
C667 C666 1.327 . S
C667 C671 1.429 . S
C668 C651 1.574 . S
C668 H662 0.949 . S
C668 C672 1.368 . S
C669 C650 1.429 . S
C669 C663 1.429 . S
C669 C670 1.523 . S
C670 C651 1.368 . S
C670 C664 1.368 . S
C670 C669 1.523 . S
C671 C655 1.431 1_455 S
C671 C667 1.429 . S
C671 C672 1.523 1_455 S
C672 C656 1.368 . S
C672 C668 1.368 . S
C672 C671 1.523 1_655 S
H673 C648 0.950 . S
H674 C650 0.950 . S
H675 C651 0.949 . S
H676 C653 0.950 . S
H677 C655 0.968 . S
C678 C679 1.349 . S
C678 C680 1.327 . S
C678 H703 0.950 . S
C679 C678 1.349 . S
C679 C695 1.349 . S
C680 C678 1.327 . S
C680 C699 1.429 . S
C680 H704 0.950 . S
C681 C698 1.574 1_554 S
C681 C700 1.368 . S
C681 H705 0.949 . S
H682 C686 0.949 . S
C683 C684 1.349 . S
C683 C685 1.327 . S
C683 H706 0.950 . S
C684 C683 1.349 . S
C684 C696 1.349 . S
C685 C683 1.327 . S
C685 C701 1.429 . S
C685 H707 0.950 . S
C686 H682 0.949 . S
C686 C694 1.574 1_556 S
C686 C702 1.368 . S
H687 C695 0.950 . S
H688 C693 0.950 . S
H689 C694 0.949 . S
H690 C696 0.950 . S
H691 C697 0.950 . S
H692 C698 0.949 . S
C693 H688 0.950 . S
C693 C695 1.327 . S
C693 C699 1.429 . S
C694 C686 1.574 1_554 S
C694 H689 0.949 . S
C694 C700 1.368 . S
C695 C679 1.349 . S
C695 H687 0.950 . S
C695 C693 1.327 . S
C696 C684 1.349 . S
C696 H690 0.950 . S
C696 C697 1.327 . S
C697 H691 0.950 . S
C697 C696 1.327 . S
C697 C701 1.429 . S
C698 C681 1.574 1_556 S
C698 H692 0.949 . S
C698 C702 1.368 . S
C699 C680 1.429 . S
C699 C693 1.429 . S
C699 C700 1.523 . S
C700 C681 1.368 . S
C700 C694 1.368 . S
C700 C699 1.523 . S
C701 C685 1.429 . S
C701 C697 1.429 . S
C701 C702 1.523 1_545 S
C702 C686 1.368 . S
C702 C698 1.368 . S
C702 C701 1.523 1_565 S
H703 C678 0.950 . S
H704 C680 0.950 . S
H705 C681 0.949 . S
H706 C683 0.950 . S
H707 C685 0.950 . S
C708 C709 1.349 . S
C708 C710 1.327 . S
C708 H733 0.950 . S
C709 C708 1.349 . S
C709 C725 1.349 . S
C710 C708 1.327 . S
C710 C729 1.429 . S
C710 H734 0.950 . S
C711 C728 1.574 . S
C711 C730 1.368 . S
C711 H735 0.949 . S
H712 C716 0.949 . S
C713 C714 1.349 . S
C713 C715 1.327 . S
C713 H736 0.950 . S
C714 C713 1.349 . S
C714 C726 1.349 . S
C715 C713 1.327 . S
C715 C731 1.429 . S
C715 H737 0.950 . S
C716 H712 0.949 . S
C716 C724 1.574 . S
C716 C732 1.368 . S
H717 C725 0.950 . S
H718 C723 0.950 . S
H719 C724 0.949 . S
H720 C726 0.950 . S
H721 C727 0.950 . S
H722 C728 0.949 . S
C723 H718 0.950 . S
C723 C725 1.327 . S
C723 C729 1.429 . S
C724 C716 1.574 . S
C724 H719 0.949 . S
C724 C730 1.368 . S
C725 C709 1.349 . S
C725 H717 0.950 . S
C725 C723 1.327 . S
C726 C714 1.349 . S
C726 H720 0.950 . S
C726 C727 1.327 . S
C727 H721 0.950 . S
C727 C726 1.327 . S
C727 C731 1.429 . S
C728 C711 1.574 . S
C728 H722 0.949 . S
C728 C732 1.368 . S
C729 C710 1.429 . S
C729 C723 1.429 . S
C729 C730 1.523 . S
C730 C711 1.368 . S
C730 C724 1.368 . S
C730 C729 1.523 . S
C731 C715 1.429 . S
C731 C727 1.429 . S
C731 C732 1.523 . S
C732 C716 1.368 . S
C732 C728 1.368 . S
C732 C731 1.523 . S
H733 C708 0.950 . S
H734 C710 0.950 . S
H735 C711 0.949 . S
H736 C713 0.950 . S
H737 C715 0.950 . S
C738 C739 1.349 . S
C738 C740 1.327 . S
C738 H763 0.950 . S
C739 C738 1.349 . S
C739 C755 1.349 . S
C740 C738 1.327 . S
C740 C759 1.429 . S
C740 H764 0.950 . S
C741 C758 1.574 1_556 S
C741 C760 1.368 . S
C741 H765 0.949 . S
H742 C746 0.949 . S
C743 C744 1.349 . S
C743 C745 1.327 . S
C743 H766 0.950 . S
C744 C743 1.349 . S
C744 C756 1.349 . S
C745 C743 1.327 . S
C745 C761 1.429 . S
C745 H767 0.950 . S
C746 H742 0.949 . S
C746 C754 1.574 1_554 S
C746 C762 1.368 . S
H747 C755 0.950 . S
H748 C753 0.950 1_455 S
H749 C754 0.949 . S
H750 C756 0.950 . S
H751 C757 0.950 . S
H752 C758 0.949 . S
C753 H748 0.950 1_655 S
C753 C755 1.327 . S
C753 C759 1.429 . S
C754 C746 1.574 1_556 S
C754 H749 0.949 . S
C754 C760 1.368 . S
C755 C739 1.349 . S
C755 H747 0.950 . S
C755 C753 1.327 . S
C756 C744 1.349 . S
C756 H750 0.950 . S
C756 C757 1.327 . S
C757 H751 0.950 . S
C757 C756 1.327 . S
C757 C761 1.429 . S
C758 C741 1.574 1_554 S
C758 H752 0.949 . S
C758 C762 1.368 . S
C759 C740 1.429 . S
C759 C753 1.429 . S
C759 C760 1.523 1_655 S
C760 C741 1.368 . S
C760 C754 1.368 . S
C760 C759 1.523 1_455 S
C761 C745 1.429 . S
C761 C757 1.429 . S
C761 C762 1.523 . S
C762 C746 1.368 . S
C762 C758 1.368 . S
C762 C761 1.523 . S
H763 C738 0.950 . S
H764 C740 0.950 . S
H765 C741 0.949 . S
H766 C743 0.950 . S
H767 C745 0.950 . S
C768 C769 1.349 . S
C768 C770 1.327 . S
C768 H793 0.950 . S
C769 C768 1.349 . S
C769 C785 1.349 . S
C770 C768 1.327 . S
C770 C789 1.429 . S
C770 H794 0.950 . S
C771 C788 1.574 . S
C771 C790 1.368 . S
C771 H795 0.949 . S
H772 C776 0.949 . S
C773 C774 1.349 . S
C773 C775 1.327 . S
C773 H796 0.950 . S
C774 C773 1.349 . S
C774 C786 1.349 . S
C775 C773 1.327 . S
C775 C791 1.429 . S
C775 H797 0.950 . S
C776 H772 0.949 . S
C776 C784 1.574 . S
C776 C792 1.368 . S
H777 C785 0.950 . S
H778 C783 0.950 . S
H779 C784 0.949 . S
H780 C786 0.950 . S
H781 C787 0.950 1_545 S
H782 C788 0.949 . S
C783 H778 0.950 . S
C783 C785 1.327 . S
C783 C789 1.429 . S
C784 C776 1.574 . S
C784 H779 0.949 . S
C784 C790 1.368 . S
C785 C769 1.349 . S
C785 H777 0.950 . S
C785 C783 1.327 . S
C786 C774 1.349 . S
C786 H780 0.950 . S
C786 C787 1.327 . S
C787 H781 0.950 1_565 S
C787 C786 1.327 . S
C787 C791 1.429 . S
C788 C771 1.574 . S
C788 H782 0.949 . S
C788 C792 1.368 . S
C789 C770 1.429 . S
C789 C783 1.429 . S
C789 C790 1.523 . S
C790 C771 1.368 . S
C790 C784 1.368 . S
C790 C789 1.523 . S
C791 C775 1.429 . S
C791 C787 1.429 . S
C791 C792 1.523 1_565 S
C792 C776 1.368 . S
C792 C788 1.368 . S
C792 C791 1.523 1_545 S
H793 C768 0.950 . S
H794 C770 0.950 . S
H795 C771 0.949 . S
H796 C773 0.950 . S
H797 C775 0.950 . S
C798 C799 1.349 . S
C798 C800 1.327 . S
C798 H823 0.950 . S
C799 C798 1.349 . S
C799 C815 1.349 . S
C800 C798 1.327 . S
C800 C819 1.429 . S
C800 H824 0.950 . S
C801 C818 1.574 . S
C801 C820 1.368 . S
C801 H825 0.949 . S
H802 C806 0.949 . S
C803 C804 1.349 . S
C803 C805 1.327 . S
C803 H826 0.950 . S
C804 C803 1.349 . S
C804 C816 1.349 . S
C805 C803 1.327 . S
C805 C821 1.429 . S
C805 H827 0.950 . S
C806 H802 0.949 . S
C806 C814 1.574 . S
C806 C822 1.368 . S
H807 C815 0.950 . S
H808 C813 0.950 . S
H809 C814 0.949 . S
H810 C816 0.950 . S
H811 C817 0.950 . S
H812 C818 0.949 . S
C813 H808 0.950 . S
C813 C815 1.327 . S
C813 C819 1.429 . S
C814 C806 1.574 . S
C814 H809 0.949 . S
C814 C820 1.368 1_554 S
C815 C799 1.349 . S
C815 H807 0.950 . S
C815 C813 1.327 . S
C816 C804 1.349 . S
C816 H810 0.950 . S
C816 C817 1.327 . S
C817 H811 0.950 . S
C817 C816 1.327 . S
C817 C821 1.429 . S
C818 C801 1.574 . S
C818 H812 0.949 . S
C818 C822 1.368 1_556 S
C819 C800 1.429 . S
C819 C813 1.429 . S
C819 C820 1.523 . S
C820 C801 1.368 . S
C820 C814 1.368 1_556 S
C820 C819 1.523 . S
C821 C805 1.429 . S
C821 C817 1.429 . S
C821 C822 1.523 . S
C822 C806 1.368 . S
C822 C818 1.368 1_554 S
C822 C821 1.523 . S
H823 C798 0.950 . S
H824 C800 0.950 . S
H825 C801 0.949 . S
H826 C803 0.950 . S
H827 C805 0.950 . S
C828 C829 1.349 . S
C828 C830 1.327 . S
C828 H853 0.950 . S
C829 C828 1.349 . S
C829 C845 1.349 . S
C830 C828 1.327 . S
C830 C849 1.429 . S
C830 H854 0.950 . S
C831 C848 1.574 . S
C831 C850 1.368 . S
C831 H855 0.949 . S
H832 C836 0.949 . S
C833 C834 1.349 . S
C833 C835 1.327 . S
C833 H856 0.950 . S
C834 C833 1.349 . S
C834 C846 1.349 . S
C835 C833 1.327 . S
C835 C851 1.429 . S
C835 H857 0.950 1_655 S
C836 H832 0.949 . S
C836 C844 1.574 . S
C836 C852 1.368 . S
H837 C845 0.950 . S
H838 C843 0.950 . S
H839 C844 0.949 . S
H840 C846 0.950 . S
H841 C847 0.950 . S
H842 C848 0.949 . S
C843 H838 0.950 . S
C843 C845 1.327 . S
C843 C849 1.429 . S
C844 C836 1.574 . S
C844 H839 0.949 . S
C844 C850 1.368 . S
C845 C829 1.349 . S
C845 H837 0.950 . S
C845 C843 1.327 . S
C846 C834 1.349 . S
C846 H840 0.950 . S
C846 C847 1.327 . S
C847 H841 0.950 . S
C847 C846 1.327 . S
C847 C851 1.429 . S
C848 C831 1.574 . S
C848 H842 0.949 . S
C848 C852 1.368 . S
C849 C830 1.429 . S
C849 C843 1.429 . S
C849 C850 1.523 . S
C850 C831 1.368 . S
C850 C844 1.368 . S
C850 C849 1.523 . S
C851 C835 1.429 . S
C851 C847 1.429 . S
C851 C852 1.523 1_655 S
C852 C836 1.368 . S
C852 C848 1.368 . S
C852 C851 1.523 1_455 S
H853 C828 0.950 . S
H854 C830 0.950 . S
H855 C831 0.949 . S
H856 C833 0.950 . S
H857 C835 0.950 1_455 S
C858 C859 1.349 . S
C858 C860 1.327 . S
C858 H883 0.950 . S
C859 C858 1.349 . S
C859 C875 1.349 . S
C860 C858 1.327 . S
C860 C879 1.429 . S
C860 H884 0.950 . S
C861 C878 1.574 . S
C861 C880 1.368 1_554 S
C861 H885 0.949 . S
H862 C866 0.949 1_565 S
C863 C864 1.349 . S
C863 C865 1.327 . S
C863 H886 0.950 . S
C864 C863 1.349 . S
C864 C876 1.349 . S
C865 C863 1.327 . S
C865 C881 1.429 . S
C865 H887 0.950 1_565 S
C866 H862 0.949 1_545 S
C866 C874 1.574 . S
C866 C882 1.368 1_556 S
H867 C875 0.950 . S
H868 C873 0.950 . S
H869 C874 0.949 . S
H870 C876 0.950 . S
H871 C877 0.950 . S
H872 C878 0.949 . S
C873 H868 0.950 . S
C873 C875 1.327 . S
C873 C879 1.429 . S
C874 C866 1.574 . S
C874 H869 0.949 . S
C874 C880 1.368 . S
C875 C859 1.349 . S
C875 H867 0.950 . S
C875 C873 1.327 . S
C876 C864 1.349 . S
C876 H870 0.950 . S
C876 C877 1.327 . S
C877 H871 0.950 . S
C877 C876 1.327 . S
C877 C881 1.429 . S
C878 C861 1.574 . S
C878 H872 0.949 . S
C878 C882 1.368 . S
C879 C860 1.429 . S
C879 C873 1.429 . S
C879 C880 1.523 . S
C880 C861 1.368 1_556 S
C880 C874 1.368 . S
C880 C879 1.523 . S
C881 C865 1.429 . S
C881 C877 1.429 . S
C881 C882 1.523 1_565 S
C882 C866 1.368 1_554 S
C882 C878 1.368 . S
C882 C881 1.523 1_545 S
H883 C858 0.950 . S
H884 C860 0.950 . S
H885 C861 0.949 . S
H886 C863 0.950 . S
H887 C865 0.950 1_545 S
C888 C889 1.349 . S
C888 C890 1.327 . S
C888 H913 0.950 . S
C889 C888 1.349 . S
C889 C905 1.349 . S
C890 C888 1.327 . S
C890 C909 1.429 . S
C890 H914 0.950 . S
C891 C908 1.574 . S
C891 C910 1.368 . S
C891 H915 0.949 . S
H892 C896 0.949 . S
C893 C894 1.349 . S
C893 C895 1.327 . S
C893 H916 0.950 . S
C894 C893 1.349 . S
C894 C906 1.349 . S
C895 C893 1.327 . S
C895 C911 1.429 . S
C895 H917 0.950 . S
C896 H892 0.949 . S
C896 C904 1.574 . S
C896 C912 1.368 . S
H897 C905 0.950 . S
H898 C903 0.950 . S
H899 C904 0.949 . S
H900 C906 0.950 . S
H901 C907 0.950 . S
H902 C908 0.949 . S
C903 H898 0.950 . S
C903 C905 1.327 . S
C903 C909 1.429 . S
C904 C896 1.574 . S
C904 H899 0.949 . S
C904 C910 1.368 . S
C905 C889 1.349 . S
C905 H897 0.950 . S
C905 C903 1.327 . S
C906 C894 1.349 . S
C906 H900 0.950 . S
C906 C907 1.327 . S
C907 H901 0.950 . S
C907 C906 1.327 . S
C907 C911 1.429 . S
C908 C891 1.574 . S
C908 H902 0.949 . S
C908 C912 1.368 . S
C909 C890 1.429 . S
C909 C903 1.429 . S
C909 C910 1.523 . S
C910 C891 1.368 . S
C910 C904 1.368 . S
C910 C909 1.523 . S
C911 C895 1.429 . S
C911 C907 1.429 . S
C911 C912 1.523 . S
C912 C896 1.368 . S
C912 C908 1.368 . S
C912 C911 1.523 . S
H913 C888 0.950 . S
H914 C890 0.950 . S
H915 C891 0.949 . S
H916 C893 0.950 . S
H917 C895 0.950 . S
C918 C919 1.349 . S
C918 C920 1.350 . S
C918 H943 0.950 . S
C919 C918 1.349 . S
C919 C935 1.349 . S
C920 C918 1.350 . S
C920 C939 1.424 . S
C920 H944 0.933 1_455 S
C921 C938 1.574 . S
C921 C940 1.368 1_556 S
C921 H945 0.949 1_655 S
H922 C926 0.949 . S
C923 C924 1.349 . S
C923 C925 1.327 . S
C923 H946 0.950 . S
C924 C923 1.349 . S
C924 C936 1.349 . S
C925 C923 1.327 . S
C925 C941 1.429 . S
C925 H947 0.950 . S
C926 H922 0.949 . S
C926 C934 1.574 . S
C926 C942 1.368 1_554 S
H927 C935 0.950 . S
H928 C933 0.950 . S
H929 C934 0.949 . S
H930 C936 0.950 . S
H931 C937 0.950 . S
H932 C938 0.949 . S
C933 H928 0.950 . S
C933 C935 1.327 . S
C933 C939 1.429 . S
C934 C926 1.574 . S
C934 H929 0.949 . S
C934 C940 1.368 . S
C935 C919 1.349 . S
C935 H927 0.950 . S
C935 C933 1.327 . S
C936 C924 1.349 . S
C936 H930 0.950 . S
C936 C937 1.327 . S
C937 H931 0.950 . S
C937 C936 1.327 . S
C937 C941 1.429 . S
C938 C921 1.574 . S
C938 H932 0.949 . S
C938 C942 1.368 . S
C939 C920 1.424 . S
C939 C933 1.429 . S
C939 C940 1.523 1_455 S
C940 C921 1.368 1_554 S
C940 C934 1.368 . S
C940 C939 1.523 1_655 S
C941 C925 1.429 . S
C941 C937 1.429 . S
C941 C942 1.523 . S
C942 C926 1.368 1_556 S
C942 C938 1.368 . S
C942 C941 1.523 . S
H943 C918 0.950 . S
H944 C920 0.933 1_655 S
H945 C921 0.949 1_455 S
H946 C923 0.950 . S
H947 C925 0.950 . S
C948 C949 1.349 . S
C948 C950 1.327 . S
C948 H973 0.950 . S
C949 C948 1.349 . S
C949 C965 1.349 . S
C950 C948 1.327 . S
C950 C969 1.429 . S
C950 H974 0.950 1_545 S
C951 C968 1.574 . S
C951 C970 1.368 . S
C951 H975 0.949 1_565 S
H952 C956 0.949 . S
C953 C954 1.349 . S
C953 C955 1.327 . S
C953 H976 0.950 . S
C954 C953 1.349 . S
C954 C966 1.349 . S
C955 C953 1.327 . S
C955 C971 1.429 . S
C955 H977 0.950 . S
C956 H952 0.949 . S
C956 C964 1.574 . S
C956 C972 1.368 . S
H957 C965 0.950 . S
H958 C963 0.950 . S
H959 C964 0.949 . S
H960 C966 0.950 . S
H961 C967 0.950 . S
H962 C968 0.949 . S
C963 H958 0.950 . S
C963 C965 1.327 . S
C963 C969 1.429 . S
C964 C956 1.574 . S
C964 H959 0.949 . S
C964 C970 1.368 . S
C965 C949 1.349 . S
C965 H957 0.950 . S
C965 C963 1.327 . S
C966 C954 1.349 . S
C966 H960 0.950 . S
C966 C967 1.327 . S
C967 H961 0.950 . S
C967 C966 1.327 . S
C967 C971 1.429 . S
C968 C951 1.574 . S
C968 H962 0.949 . S
C968 C972 1.368 . S
C969 C950 1.429 . S
C969 C963 1.429 . S
C969 C970 1.523 1_545 S
C970 C951 1.368 . S
C970 C964 1.368 . S
C970 C969 1.523 1_565 S
C971 C955 1.429 . S
C971 C967 1.429 . S
C971 C972 1.523 . S
C972 C956 1.368 . S
C972 C968 1.368 . S
C972 C971 1.523 . S
H973 C948 0.950 . S
H974 C950 0.950 1_565 S
H975 C951 0.949 1_545 S
H976 C953 0.950 . S
H977 C955 0.950 . S
C259 C32 1.397 . S
C264 N175 1.416 . S
C289 N223 1.384 . S
C294 C56 1.259 . S
C319 N8 1.415 . S
C324 C118 1.397 . S
C349 N51 1.384 . S
C354 C142 1.258 . S
C379 C199 1.397 . S
C384 N94 1.416 . S
C409 C228 1.258 . S
C414 N137 1.384 . S
C439 C33 0.923 . S
C444 N180 0.871 . S
C469 C82 0.903 . S
C474 N218 0.920 . S
C499 N3 0.871 . S
C504 C119 0.922 . S
C529 N46 0.920 . S
C534 C168 0.903 . S
C559 N89 0.871 . S
C564 C212 0.923 . S
C589 C254 0.903 . S
C594 N132 0.920 . S
C619 C13 1.595 . S
C624 C242 1.561 . S
C649 C83 1.707 . S
C654 C39 1.469 . S
C679 C99 1.594 . S
C684 C70 1.561 . S
C709 C169 1.707 . S
C714 C125 1.468 . S
C739 C156 1.561 . S
C744 C211 1.594 . S
C769 C255 1.707 . S
C774 C185 1.469 . S
C799 C161 1.689 . S
C804 C113 1.607 . S
C829 C205 1.587 . S
C834 C162 1.503 . S
C859 C247 1.689 . S
C864 C204 1.607 . S
C889 C248 1.503 . S
C894 C40 1.587 . S
C919 C27 1.607 . S
C924 C75 1.689 . S
C949 C76 1.503 . S
C954 C126 1.587 . S
