# Generated by pormake.
# Topology uoh, (4)-cn, num edge types: 1
# Building blocks:
#     Node 0, Type 0, BuildingBlock: KUFVIS_clean_sbu_0, # of connection points: 4
#     Node 1, Type 0, BuildingBlock: KUFVIS_clean_sbu_0, # of connection points: 4
#     Node 2, Type 0, BuildingBlock: KUFVIS_clean_sbu_0, # of connection points: 4
#     Node 3, Type 0, BuildingBlock: KUFVIS_clean_sbu_0, # of connection points: 4
#     Node 4, Type 0, BuildingBlock: KUFVIS_clean_sbu_0, # of connection points: 4
#     Node 5, Type 0, BuildingBlock: KUFVIS_clean_sbu_0, # of connection points: 4
#     Node 6, Type 0, BuildingBlock: KUFVIS_clean_sbu_0, # of connection points: 4
#     Node 7, Type 0, BuildingBlock: KUFVIS_clean_sbu_0, # of connection points: 4
#     Node 8, Type 0, BuildingBlock: KUFVIS_clean_sbu_0, # of connection points: 4
#     Node 9, Type 0, BuildingBlock: KUFVIS_clean_sbu_0, # of connection points: 4
#     Node 10, Type 0, BuildingBlock: KUFVIS_clean_sbu_0, # of connection points: 4
#     Node 11, Type 0, BuildingBlock: KUFVIS_clean_sbu_0, # of connection points: 4
#     Node 12, Type 0, BuildingBlock: KUFVIS_clean_sbu_0, # of connection points: 4
#     Node 13, Type 0, BuildingBlock: KUFVIS_clean_sbu_0, # of connection points: 4
#     Node 14, Type 0, BuildingBlock: KUFVIS_clean_sbu_0, # of connection points: 4
#     Node 15, Type 0, BuildingBlock: KUFVIS_clean_sbu_0, # of connection points: 4
#     Node 16, Type 0, BuildingBlock: KUFVIS_clean_sbu_0, # of connection points: 4
#     Node 17, Type 0, BuildingBlock: KUFVIS_clean_sbu_0, # of connection points: 4
#     Node 18, Type 0, BuildingBlock: KUFVIS_clean_sbu_0, # of connection points: 4
#     Node 19, Type 0, BuildingBlock: KUFVIS_clean_sbu_0, # of connection points: 4
#     Node 20, Type 0, BuildingBlock: KUFVIS_clean_sbu_0, # of connection points: 4
#     Node 21, Type 0, BuildingBlock: KUFVIS_clean_sbu_0, # of connection points: 4
#     Node 22, Type 0, BuildingBlock: KUFVIS_clean_sbu_0, # of connection points: 4
#     Node 23, Type 0, BuildingBlock: KUFVIS_clean_sbu_0, # of connection points: 4
#     Node 24, Type 0, BuildingBlock: KUFVIS_clean_sbu_0, # of connection points: 4
#     Node 25, Type 0, BuildingBlock: KUFVIS_clean_sbu_0, # of connection points: 4
#     Node 26, Type 0, BuildingBlock: KUFVIS_clean_sbu_0, # of connection points: 4
#     Node 27, Type 0, BuildingBlock: KUFVIS_clean_sbu_0, # of connection points: 4
#     Node 28, Type 0, BuildingBlock: KUFVIS_clean_sbu_0, # of connection points: 4
#     Node 29, Type 0, BuildingBlock: KUFVIS_clean_sbu_0, # of connection points: 4
#     Node 30, Type 0, BuildingBlock: KUFVIS_clean_sbu_0, # of connection points: 4
#     Node 31, Type 0, BuildingBlock: KUFVIS_clean_sbu_0, # of connection points: 4
#     Node 32, Type 0, BuildingBlock: KUFVIS_clean_sbu_0, # of connection points: 4
#     Node 33, Type 0, BuildingBlock: KUFVIS_clean_sbu_0, # of connection points: 4
#     Node 34, Type 0, BuildingBlock: KUFVIS_clean_sbu_0, # of connection points: 4
#     Node 35, Type 0, BuildingBlock: KUFVIS_clean_sbu_0, # of connection points: 4
#     Edge 36, Type (0, 0), BuildingBlock: KIFKEQ_clean_linker_1, # of connection points: 2
#     Edge 37, Type (0, 0), BuildingBlock: KIFKEQ_clean_linker_1, # of connection points: 2
#     Edge 38, Type (0, 0), BuildingBlock: KIFKEQ_clean_linker_1, # of connection points: 2
#     Edge 39, Type (0, 0), BuildingBlock: KIFKEQ_clean_linker_1, # of connection points: 2
#     Edge 40, Type (0, 0), BuildingBlock: KIFKEQ_clean_linker_1, # of connection points: 2
#     Edge 41, Type (0, 0), BuildingBlock: KIFKEQ_clean_linker_1, # of connection points: 2
#     Edge 42, Type (0, 0), BuildingBlock: KIFKEQ_clean_linker_1, # of connection points: 2
#     Edge 43, Type (0, 0), BuildingBlock: KIFKEQ_clean_linker_1, # of connection points: 2
#     Edge 44, Type (0, 0), BuildingBlock: KIFKEQ_clean_linker_1, # of connection points: 2
#     Edge 45, Type (0, 0), BuildingBlock: KIFKEQ_clean_linker_1, # of connection points: 2
#     Edge 46, Type (0, 0), BuildingBlock: KIFKEQ_clean_linker_1, # of connection points: 2
#     Edge 47, Type (0, 0), BuildingBlock: KIFKEQ_clean_linker_1, # of connection points: 2
#     Edge 48, Type (0, 0), BuildingBlock: KIFKEQ_clean_linker_1, # of connection points: 2
#     Edge 49, Type (0, 0), BuildingBlock: KIFKEQ_clean_linker_1, # of connection points: 2
#     Edge 50, Type (0, 0), BuildingBlock: KIFKEQ_clean_linker_1, # of connection points: 2
#     Edge 51, Type (0, 0), BuildingBlock: KIFKEQ_clean_linker_1, # of connection points: 2
#     Edge 52, Type (0, 0), BuildingBlock: KIFKEQ_clean_linker_1, # of connection points: 2
#     Edge 53, Type (0, 0), BuildingBlock: KIFKEQ_clean_linker_1, # of connection points: 2
#     Edge 54, Type (0, 0), BuildingBlock: KIFKEQ_clean_linker_1, # of connection points: 2
#     Edge 55, Type (0, 0), BuildingBlock: KIFKEQ_clean_linker_1, # of connection points: 2
#     Edge 56, Type (0, 0), BuildingBlock: KIFKEQ_clean_linker_1, # of connection points: 2
#     Edge 57, Type (0, 0), BuildingBlock: KIFKEQ_clean_linker_1, # of connection points: 2
#     Edge 58, Type (0, 0), BuildingBlock: KIFKEQ_clean_linker_1, # of connection points: 2
#     Edge 59, Type (0, 0), BuildingBlock: KIFKEQ_clean_linker_1, # of connection points: 2
#     Edge 60, Type (0, 0), BuildingBlock: KIFKEQ_clean_linker_1, # of connection points: 2
#     Edge 61, Type (0, 0), BuildingBlock: KIFKEQ_clean_linker_1, # of connection points: 2
#     Edge 62, Type (0, 0), BuildingBlock: KIFKEQ_clean_linker_1, # of connection points: 2
#     Edge 63, Type (0, 0), BuildingBlock: KIFKEQ_clean_linker_1, # of connection points: 2
#     Edge 64, Type (0, 0), BuildingBlock: KIFKEQ_clean_linker_1, # of connection points: 2
#     Edge 65, Type (0, 0), BuildingBlock: KIFKEQ_clean_linker_1, # of connection points: 2
#     Edge 66, Type (0, 0), BuildingBlock: KIFKEQ_clean_linker_1, # of connection points: 2
#     Edge 67, Type (0, 0), BuildingBlock: KIFKEQ_clean_linker_1, # of connection points: 2
#     Edge 68, Type (0, 0), BuildingBlock: KIFKEQ_clean_linker_1, # of connection points: 2
#     Edge 69, Type (0, 0), BuildingBlock: KIFKEQ_clean_linker_1, # of connection points: 2
#     Edge 70, Type (0, 0), BuildingBlock: KIFKEQ_clean_linker_1, # of connection points: 2
#     Edge 71, Type (0, 0), BuildingBlock: KIFKEQ_clean_linker_1, # of connection points: 2
#     Edge 72, Type (0, 0), BuildingBlock: KIFKEQ_clean_linker_1, # of connection points: 2
#     Edge 73, Type (0, 0), BuildingBlock: KIFKEQ_clean_linker_1, # of connection points: 2
#     Edge 74, Type (0, 0), BuildingBlock: KIFKEQ_clean_linker_1, # of connection points: 2
#     Edge 75, Type (0, 0), BuildingBlock: KIFKEQ_clean_linker_1, # of connection points: 2
#     Edge 76, Type (0, 0), BuildingBlock: KIFKEQ_clean_linker_1, # of connection points: 2
#     Edge 77, Type (0, 0), BuildingBlock: KIFKEQ_clean_linker_1, # of connection points: 2
#     Edge 78, Type (0, 0), BuildingBlock: KIFKEQ_clean_linker_1, # of connection points: 2
#     Edge 79, Type (0, 0), BuildingBlock: KIFKEQ_clean_linker_1, # of connection points: 2
#     Edge 80, Type (0, 0), BuildingBlock: KIFKEQ_clean_linker_1, # of connection points: 2
#     Edge 81, Type (0, 0), BuildingBlock: KIFKEQ_clean_linker_1, # of connection points: 2
#     Edge 82, Type (0, 0), BuildingBlock: KIFKEQ_clean_linker_1, # of connection points: 2
#     Edge 83, Type (0, 0), BuildingBlock: KIFKEQ_clean_linker_1, # of connection points: 2
#     Edge 84, Type (0, 0), BuildingBlock: KIFKEQ_clean_linker_1, # of connection points: 2
#     Edge 85, Type (0, 0), BuildingBlock: KIFKEQ_clean_linker_1, # of connection points: 2
#     Edge 86, Type (0, 0), BuildingBlock: KIFKEQ_clean_linker_1, # of connection points: 2
#     Edge 87, Type (0, 0), BuildingBlock: KIFKEQ_clean_linker_1, # of connection points: 2
#     Edge 88, Type (0, 0), BuildingBlock: KIFKEQ_clean_linker_1, # of connection points: 2
#     Edge 89, Type (0, 0), BuildingBlock: KIFKEQ_clean_linker_1, # of connection points: 2
#     Edge 90, Type (0, 0), BuildingBlock: KIFKEQ_clean_linker_1, # of connection points: 2
#     Edge 91, Type (0, 0), BuildingBlock: KIFKEQ_clean_linker_1, # of connection points: 2
#     Edge 92, Type (0, 0), BuildingBlock: KIFKEQ_clean_linker_1, # of connection points: 2
#     Edge 93, Type (0, 0), BuildingBlock: KIFKEQ_clean_linker_1, # of connection points: 2
#     Edge 94, Type (0, 0), BuildingBlock: KIFKEQ_clean_linker_1, # of connection points: 2
#     Edge 95, Type (0, 0), BuildingBlock: KIFKEQ_clean_linker_1, # of connection points: 2
#     Edge 96, Type (0, 0), BuildingBlock: KIFKEQ_clean_linker_1, # of connection points: 2
#     Edge 97, Type (0, 0), BuildingBlock: KIFKEQ_clean_linker_1, # of connection points: 2
#     Edge 98, Type (0, 0), BuildingBlock: KIFKEQ_clean_linker_1, # of connection points: 2
#     Edge 99, Type (0, 0), BuildingBlock: KIFKEQ_clean_linker_1, # of connection points: 2
#     Edge 100, Type (0, 0), BuildingBlock: KIFKEQ_clean_linker_1, # of connection points: 2
#     Edge 101, Type (0, 0), BuildingBlock: KIFKEQ_clean_linker_1, # of connection points: 2
#     Edge 102, Type (0, 0), BuildingBlock: KIFKEQ_clean_linker_1, # of connection points: 2
#     Edge 103, Type (0, 0), BuildingBlock: KIFKEQ_clean_linker_1, # of connection points: 2
#     Edge 104, Type (0, 0), BuildingBlock: KIFKEQ_clean_linker_1, # of connection points: 2
#     Edge 105, Type (0, 0), BuildingBlock: KIFKEQ_clean_linker_1, # of connection points: 2
#     Edge 106, Type (0, 0), BuildingBlock: KIFKEQ_clean_linker_1, # of connection points: 2
#     Edge 107, Type (0, 0), BuildingBlock: KIFKEQ_clean_linker_1, # of connection points: 2
# Relax obj value: 0.124
# Max RMSD: 0.188
# Mean RMSD: 0.175
data_MOF--net-uoh--node1-KUFVIS_clean_sbu_0--edge1-KIFKEQ_clean_linker_1
_symmetry_space_group_name_H-M    P1
_symmetry_Int_Tables_number       1
_symmetry_cell_setting            triclinic
loop_
_symmetry_equiv_pos_as_xyz
'x, y, z'
_cell_length_a     88.202449
_cell_length_b     90.618435
_cell_length_c     27.61347
_cell_angle_alpha  89.821125
_cell_angle_beta   89.99892
_cell_angle_gamma 119.12448
loop_
_atom_site_label
_atom_site_type_symbol
_atom_site_fract_x
_atom_site_fract_y
_atom_site_fract_z
_atom_type_partial_charge
Mn0 Mn 0.24334 0.14756 0.16689 0.0
Mn1 Mn 0.2019 0.11708 0.15279 0.0
C2 C 0.23204 0.13984 0.09011 0.0
C3 C 0.27221 0.15433 0.17738 0.0
C4 C 0.21226 0.15295 0.1843 0.0
O5 O 0.23683 0.1363 0.23271 0.0
O6 O 0.21007 0.11459 0.21838 0.0
C7 C 0.20715 0.08723 0.15167 0.0
N8 N 0.2014 0.09701 0.12948 0.0
C9 C 0.19258 0.07922 0.05901 0.0
C10 C 0.19829 0.06887 0.08126 0.0
C11 C 0.20562 0.0729 0.12778 0.0
C12 C 0.19429 0.09323 0.08478 0.0
H13 H 0.21293 0.09037 0.18724 0.0
C14 C 0.22321 0.12293 0.24604 0.0
O15 O 0.26678 0.16472 0.19083 0.0
O16 O 0.26088 0.14018 0.15836 0.0
N17 N 0.19256 0.11798 0.09094 0.0
C18 C 0.18857 0.12975 0.07352 0.0
C19 C 0.18156 0.12785 0.02683 0.0
C20 C 0.1787 0.11386 -0.0014 0.0
C21 C 0.18278 0.10184 0.01745 0.0
C22 C 0.18954 0.1043 0.06444 0.0
H23 H 0.19085 0.14059 0.09492 0.0
O24 O 0.24577 0.15434 0.09728 0.0
O25 O 0.22556 0.13032 0.12818 0.0
O26 O 0.22868 0.15904 0.1807 0.0
O27 O 0.20133 0.13747 0.17567 0.0
C28 C 0.18073 0.08769 0.9911 0.0
C29 C 0.18562 0.07639 0.01186 0.0
H30 H 0.19726 0.05789 0.06279 0.0
H31 H 0.21015 0.06504 0.14506 0.0
H32 H 0.17847 0.1372 0.0125 0.0
H33 H 0.17349 0.11254 0.96237 0.0
H34 H 0.17561 0.08551 0.9546 0.0
H35 H 0.18419 0.06568 0.99101 0.0
Mn36 Mn 0.85411 0.09745 0.1659 0.0
Mn37 Mn 0.88508 0.0862 0.15352 0.0
C38 C 0.86179 0.09277 0.08994 0.0
C39 C 0.84768 0.11964 0.17047 0.0
C40 C 0.84825 0.06183 0.18684 0.0
O41 O 0.86632 0.10356 0.23075 0.0
O42 O 0.88756 0.09693 0.21822 0.0
C43 C 0.91587 0.12031 0.15105 0.0
N44 N 0.90579 0.10509 0.12955 0.0
C45 C 0.92403 0.11358 0.05872 0.0
C46 C 0.93468 0.12928 0.08027 0.0
C47 C 0.93057 0.13266 0.12662 0.0
C48 C 0.90966 0.10168 0.08504 0.0
H49 H 0.91267 0.12303 0.18646 0.0
C50 C 0.87977 0.10285 0.24448 0.0
O51 O 0.83697 0.10474 0.18766 0.0
O52 O 0.86197 0.12155 0.15193 0.0
N53 N 0.8842 0.07597 0.09224 0.0
C54 C 0.87199 0.06064 0.07527 0.0
C55 C 0.87389 0.05552 0.02877 0.0
C56 C 0.88829 0.06622 0.00018 0.0
C57 C 0.90071 0.08192 0.01845 0.0
C58 C 0.89825 0.08624 0.06533 0.0
H59 H 0.86079 0.05244 0.09685 0.0
O60 O 0.84682 0.09191 0.09673 0.0
O61 O 0.87154 0.09616 0.12799 0.0
O62 O 0.84219 0.0721 0.18427 0.0
O63 O 0.86402 0.06605 0.17682 0.0
C64 C 0.91522 0.0936 0.99158 0.0
C65 C 0.92687 0.10942 0.01169 0.0
H66 H 0.94593 0.13891 0.06135 0.0
H67 H 0.93867 0.14479 0.14336 0.0
H68 H 0.86421 0.04342 0.01483 0.0
H69 H 0.8896 0.06232 0.96408 0.0
H70 H 0.91741 0.09064 0.95515 0.0
H71 H 0.93784 0.11838 0.99041 0.0
Mn72 Mn 0.90372 0.757 0.15145 0.0
Mn73 Mn 0.91186 0.7971 0.13647 0.0
C74 C 0.90838 0.76858 0.07501 0.0
C75 C 0.88275 0.72855 0.15815 0.0
C76 C 0.93879 0.78796 0.17294 0.0
O77 O 0.89654 0.76245 0.2154 0.0
O78 O 0.90078 0.7887 0.2012 0.0
C79 C 0.8756 0.79058 0.13151 0.0
N80 N 0.89159 0.79684 0.11091 0.0
C81 C 0.88218 0.80515 0.03907 0.0
C82 C 0.86564 0.79891 0.05968 0.0
C83 C 0.86234 0.79158 0.10608 0.0
C84 C 0.89492 0.80395 0.06632 0.0
H85 H 0.87297 0.7848 0.16699 0.0
C86 C 0.89602 0.77568 0.22844 0.0
O87 O 0.89826 0.734 0.1757 0.0
O88 O 0.87956 0.73959 0.13767 0.0
N89 N 0.92241 0.80671 0.07544 0.0
C90 C 0.93877 0.81132 0.05975 0.0
C91 C 0.94402 0.81846 0.01344 0.0
C92 C 0.93242 0.82082 0.98381 0.0
C93 C 0.91571 0.81612 0.00092 0.0
C94 C 0.91128 0.80925 0.04763 0.0
H95 H 0.94769 0.80941 0.08221 0.0
O96 O 0.91027 0.75546 0.08323 0.0
O97 O 0.90369 0.77433 0.11181 0.0
O98 O 0.92937 0.77189 0.17039 0.0
O99 O 0.93336 0.79829 0.16154 0.0
C100 C 0.90316 0.81766 0.9731 0.0
C101 C 0.8864 0.81218 0.99216 0.0
H102 H 0.85533 0.79952 0.04002 0.0
H103 H 0.84958 0.78664 0.1221 0.0
H104 H 0.95694 0.82203 0.00045 0.0
H105 H 0.93644 0.82613 0.94787 0.0
H106 H 0.90618 0.82284 0.93677 0.0
H107 H 0.8768 0.81323 0.97018 0.0
Mn108 Mn 0.15065 0.24676 0.34293 0.0
Mn109 Mn 0.11866 0.20682 0.36033 0.0
C110 C 0.1431 0.23626 0.42032 0.0
C111 C 0.15782 0.27494 0.33138 0.0
C112 C 0.15507 0.21574 0.32717 0.0
O113 O 0.13869 0.24027 0.27802 0.0
O114 O 0.11619 0.21447 0.29424 0.0
C115 C 0.08874 0.2131 0.3614 0.0
N116 N 0.09846 0.20716 0.38381 0.0
C117 C 0.08035 0.19941 0.45484 0.0
C118 C 0.07006 0.20532 0.43236 0.0
C119 C 0.07428 0.21221 0.38546 0.0
C120 C 0.0945 0.20049 0.4289 0.0
H121 H 0.09203 0.21853 0.32552 0.0
C122 C 0.12483 0.22703 0.2657 0.0
O123 O 0.16834 0.26951 0.31762 0.0
O124 O 0.14338 0.26406 0.35131 0.0
N125 N 0.11943 0.19794 0.42273 0.0
C126 C 0.13121 0.19364 0.44026 0.0
C127 C 0.12912 0.18696 0.48728 0.0
C128 C 0.11495 0.18474 0.51572 0.0
C129 C 0.10292 0.18912 0.49674 0.0
C130 C 0.10555 0.19552 0.44943 0.0
H131 H 0.14219 0.19544 0.41871 0.0
O132 O 0.15808 0.2494 0.41201 0.0
O133 O 0.133 0.2299 0.38307 0.0
O134 O 0.16179 0.23183 0.32896 0.0
O135 O 0.13917 0.20552 0.33743 0.0
C136 C 0.08862 0.1877 0.52327 0.0
C137 C 0.07735 0.19284 0.50234 0.0
H138 H 0.05898 0.20478 0.45095 0.0
H139 H 0.06647 0.21689 0.368 0.0
H140 H 0.13848 0.18365 0.5017 0.0
H141 H 0.11352 0.1798 0.5522 0.0
H142 H 0.08631 0.18287 0.56003 0.0
H143 H 0.06653 0.1919 0.52332 0.0
Mn144 Mn 0.75605 0.90632 0.32785 0.0
Mn145 Mn 0.79795 0.91632 0.33992 0.0
C146 C 0.76811 0.90961 0.40394 0.0
C147 C 0.72728 0.88465 0.32082 0.0
C148 C 0.78647 0.94181 0.3103 0.0
O149 O 0.76216 0.90105 0.26173 0.0
O150 O 0.78961 0.90633 0.27446 0.0
C151 C 0.7937 0.88185 0.33895 0.0
N152 N 0.79917 0.89689 0.36181 0.0
C153 C 0.80853 0.88733 0.43122 0.0
C154 C 0.80312 0.87179 0.40825 0.0
C155 C 0.79567 0.86904 0.36192 0.0
C156 C 0.80643 0.8997 0.40631 0.0
H157 H 0.7878 0.87961 0.30355 0.0
C158 C 0.77606 0.90126 0.24781 0.0
O159 O 0.73179 0.89996 0.30662 0.0
O160 O 0.7394 0.8821 0.33825 0.0
N161 N 0.80737 0.92579 0.40188 0.0
C162 C 0.81084 0.94104 0.42038 0.0
C163 C 0.81789 0.94556 0.46706 0.0
C164 C 0.82125 0.93435 0.49428 0.0
C165 C 0.81761 0.91875 0.47447 0.0
C166 C 0.81082 0.91503 0.42748 0.0
H167 H 0.80808 0.94962 0.39988 0.0
O168 O 0.75418 0.91084 0.39786 0.0
O169 O 0.77443 0.90655 0.36521 0.0
O170 O 0.77005 0.93191 0.31285 0.0
O171 O 0.79768 0.93701 0.31878 0.0
C172 C 0.82007 0.90658 0.49993 0.0
C173 C 0.81553 0.89088 0.47833 0.0
H174 H 0.80445 0.86181 0.42605 0.0
H175 H 0.79135 0.85703 0.3441 0.0
H176 H 0.82058 0.95759 0.4822 0.0
H177 H 0.82647 0.9378 0.53053 0.0
H178 H 0.82521 0.90907 0.53641 0.0
H179 H 0.81725 0.88154 0.49854 0.0
Mn180 Mn 0.09532 0.85416 0.33289 0.0
Mn181 Mn 0.08479 0.88495 0.34652 0.0
C182 C 0.09187 0.86207 0.40953 0.0
C183 C 0.11731 0.84719 0.32288 0.0
C184 C 0.05894 0.8491 0.31583 0.0
O185 O 0.10018 0.86532 0.26692 0.0
O186 O 0.09527 0.88713 0.28079 0.0
C187 C 0.12008 0.91456 0.34672 0.0
N188 N 0.10455 0.90497 0.36923 0.0
C189 C 0.11388 0.92299 0.43924 0.0
C190 C 0.12992 0.93313 0.41664 0.0
C191 C 0.13303 0.92888 0.3702 0.0
C192 C 0.1014 0.90896 0.41387 0.0
H193 H 0.12257 0.91125 0.3112 0.0
C194 C 0.1 0.87869 0.25331 0.0
O195 O 0.10149 0.83685 0.30938 0.0
O196 O 0.12019 0.86139 0.34159 0.0
N197 N 0.07475 0.88438 0.40846 0.0
C198 C 0.05898 0.87277 0.42628 0.0
C199 C 0.05404 0.8749 0.47297 0.0
C200 C 0.06535 0.88893 0.5008 0.0
C201 C 0.08146 0.90077 0.48155 0.0
C202 C 0.08559 0.89809 0.43458 0.0
H203 H 0.05028 0.8619 0.40522 0.0
O204 O 0.09093 0.8475 0.40257 0.0
O205 O 0.09499 0.87156 0.37133 0.0
O206 O 0.06917 0.84287 0.31909 0.0
O207 O 0.06366 0.86462 0.32433 0.0
C208 C 0.09373 0.91493 0.50749 0.0
C209 C 0.10992 0.92603 0.48635 0.0
H210 H 0.14 0.9441 0.4348 0.0
H211 H 0.14541 0.93659 0.35264 0.0
H212 H 0.04159 0.86569 0.48762 0.0
H213 H 0.06158 0.89041 0.53703 0.0
H214 H 0.09093 0.91728 0.54397 0.0
H215 H 0.11933 0.93676 0.5069 0.0
Mn216 Mn 0.75535 0.85079 0.83295 0.0
Mn217 Mn 0.72911 0.82254 0.7503 0.0
C218 C 0.72713 0.84558 0.82462 0.0
C219 C 0.76659 0.85689 0.91114 0.0
C220 C 0.75713 0.85799 0.72475 0.0
O221 O 0.76829 0.83803 0.81529 0.0
O222 O 0.74874 0.81838 0.7653 0.0
C223 C 0.71571 0.79154 0.81016 0.0
N224 N 0.71271 0.80227 0.78227 0.0
C225 C 0.6818 0.78478 0.79058 0.0
C226 C 0.68455 0.77349 0.8192 0.0
C227 C 0.70158 0.77692 0.82916 0.0
C228 C 0.69639 0.79916 0.77276 0.0
H229 H 0.72879 0.79414 0.81781 0.0
C230 C 0.76319 0.82506 0.78821 0.0
O231 O 0.7747 0.8669 0.87508 0.0
O232 O 0.75258 0.84296 0.9011 0.0
N233 N 0.7095 0.82497 0.73218 0.0
C234 C 0.70911 0.83749 0.70565 0.0
C235 C 0.69305 0.83621 0.69352 0.0
C236 C 0.67758 0.82197 0.70818 0.0
C237 C 0.67831 0.80913 0.73479 0.0
C238 C 0.69469 0.81112 0.74586 0.0
H239 H 0.72096 0.84841 0.69405 0.0
O240 O 0.7387 0.85933 0.84502 0.0
O241 O 0.73232 0.83506 0.81057 0.0
O242 O 0.7621 0.86318 0.76773 0.0
O243 O 0.74529 0.84308 0.71425 0.0
C244 C 0.66344 0.79453 0.75121 0.0
C245 C 0.66518 0.78242 0.77938 0.0
H246 H 0.67368 0.7622 0.83392 0.0
H247 H 0.7038 0.7683 0.85136 0.0
H248 H 0.6926 0.84616 0.67291 0.0
H249 H 0.66521 0.82106 0.69896 0.0
H250 H 0.65059 0.79258 0.74289 0.0
H251 H 0.65364 0.77138 0.79245 0.0
Mn252 Mn 0.14862 0.90563 0.8353 0.0
Mn253 Mn 0.11687 0.91597 0.84271 0.0
C254 C 0.14018 0.91047 0.91008 0.0
C255 C 0.15555 0.88376 0.83255 0.0
C256 C 0.15365 0.94045 0.80882 0.0
O257 O 0.13721 0.89951 0.76917 0.0
O258 O 0.11453 0.90416 0.77997 0.0
C259 C 0.08638 0.88178 0.8494 0.0
N260 N 0.09633 0.8974 0.86867 0.0
C261 C 0.07798 0.89021 0.9391 0.0
C262 C 0.06746 0.87408 0.91983 0.0
C263 C 0.07168 0.86984 0.8748 0.0
C264 C 0.09235 0.90164 0.91187 0.0
H265 H 0.08967 0.87843 0.81499 0.0
C266 C 0.12336 0.89923 0.75433 0.0
O267 O 0.16623 0.89871 0.81564 0.0
O268 O 0.141 0.88161 0.84985 0.0
N269 N 0.11769 0.9273 0.90186 0.0
C270 C 0.12981 0.94298 0.91677 0.0
C271 C 0.12785 0.94894 0.96193 0.0
C272 C 0.11346 0.93873 0.99124 0.0
C273 C 0.10112 0.92267 0.97501 0.0
C274 C 0.10365 0.91748 0.92943 0.0
H275 H 0.14096 0.95082 0.89454 0.0
O276 O 0.15522 0.91136 0.90481 0.0
O277 O 0.13069 0.90676 0.87133 0.0
O278 O 0.16036 0.93091 0.81646 0.0
O279 O 0.13765 0.93582 0.81665 0.0
C280 C 0.08661 0.91147 0.00273 0.0
C281 C 0.07504 0.89526 0.98477 0.0
H282 H 0.05621 0.86478 0.93953 0.0
H283 H 0.06368 0.85738 0.85984 0.0
H284 H 0.13746 0.96133 0.97426 0.0
H285 H 0.11211 0.9433 0.0263 0.0
H286 H 0.08435 0.91511 0.0382 0.0
H287 H 0.06406 0.88667 0.00671 0.0
Mn288 Mn 0.09872 0.24711 0.84802 0.0
Mn289 Mn 0.08772 0.206 0.85315 0.0
C290 C 0.09372 0.23378 0.92196 0.0
C291 C 0.12084 0.27516 0.84378 0.0
C292 C 0.06301 0.21859 0.82103 0.0
O293 O 0.10466 0.24217 0.78129 0.0
O294 O 0.10024 0.21563 0.79105 0.0
C295 C 0.12259 0.20904 0.86015 0.0
N296 N 0.10647 0.20357 0.87911 0.0
C297 C 0.11323 0.19194 0.94897 0.0
C298 C 0.12987 0.19733 0.93004 0.0
C299 C 0.13457 0.20593 0.88545 0.0
C300 C 0.10178 0.19522 0.92186 0.0
H301 H 0.12629 0.21577 0.82609 0.0
C302 C 0.10518 0.22915 0.76593 0.0
O303 O 0.10523 0.27076 0.82883 0.0
O304 O 0.12352 0.26328 0.86073 0.0
N305 N 0.07569 0.19543 0.91177 0.0
C306 C 0.05959 0.19212 0.92653 0.0
C307 C 0.05315 0.1841 0.97131 0.0
C308 C 0.06332 0.17958 0.00042 0.0
C309 C 0.07982 0.18305 0.98437 0.0
C310 C 0.08547 0.19089 0.93916 0.0
H311 H 0.05178 0.19568 0.90447 0.0
O312 O 0.09311 0.24775 0.91767 0.0
O313 O 0.09749 0.2283 0.88284 0.0
O314 O 0.07285 0.23419 0.83075 0.0
O315 O 0.06753 0.20725 0.82666 0.0
C316 C 0.09103 0.1794 0.01195 0.0
C317 C 0.10772 0.18382 0.99425 0.0
H318 H 0.13921 0.19511 0.94967 0.0
H319 H 0.14742 0.21022 0.87074 0.0
H320 H 0.04043 0.18152 0.98352 0.0
H321 H 0.05839 0.17359 0.0352 0.0
H322 H 0.08704 0.1734 0.04712 0.0
H323 H 0.11631 0.18116 0.01608 0.0
Mn324 Mn 0.85348 0.75662 0.64887 0.0
Mn325 Mn 0.88292 0.79794 0.64059 0.0
C326 C 0.86027 0.76973 0.57443 0.0
C327 C 0.84777 0.72864 0.65184 0.0
C328 C 0.84602 0.78518 0.67614 0.0
O329 O 0.86566 0.76169 0.71346 0.0
O330 O 0.88613 0.78893 0.70369 0.0
C331 C 0.91476 0.79486 0.63412 0.0
N332 N 0.90402 0.80014 0.61467 0.0
C333 C 0.92207 0.81098 0.54382 0.0
C334 C 0.93339 0.80577 0.56327 0.0
C335 C 0.92971 0.79767 0.60861 0.0
C336 C 0.90747 0.80801 0.57116 0.0
H337 H 0.91189 0.78849 0.66876 0.0
C338 C 0.87861 0.77523 0.72862 0.0
O339 O 0.83693 0.73302 0.66994 0.0
O340 O 0.86185 0.7405 0.6326 0.0
N341 N 0.88128 0.80803 0.58122 0.0
C342 C 0.86852 0.81136 0.56633 0.0
C343 C 0.86994 0.81898 0.52098 0.0
C344 C 0.88445 0.82311 0.49147 0.0
C345 C 0.89747 0.81966 0.50772 0.0
C346 C 0.89545 0.81223 0.5535 0.0
H347 H 0.85728 0.80808 0.5887 0.0
O348 O 0.84577 0.7558 0.58061 0.0
O349 O 0.87029 0.77541 0.61213 0.0
O350 O 0.84082 0.76945 0.67012 0.0
O351 O 0.86147 0.79678 0.66651 0.0
C352 C 0.91218 0.82298 0.47986 0.0
C353 C 0.92448 0.81865 0.49791 0.0
H354 H 0.94484 0.80777 0.5435 0.0
H355 H 0.93833 0.79351 0.62372 0.0
H356 H 0.85982 0.82156 0.50864 0.0
H357 H 0.88539 0.8288 0.45626 0.0
H358 H 0.91406 0.82866 0.44424 0.0
H359 H 0.93562 0.82107 0.47589 0.0
Mn360 Mn 0.24436 0.09597 0.66376 0.0
Mn361 Mn 0.2023 0.08574 0.65733 0.0
C362 C 0.23082 0.09088 0.58934 0.0
C363 C 0.27319 0.11783 0.66515 0.0
C364 C 0.21461 0.0613 0.69154 0.0
O365 O 0.23936 0.10237 0.72987 0.0
O366 O 0.21202 0.09774 0.71968 0.0
C367 C 0.20612 0.11996 0.64988 0.0
N368 N 0.20033 0.10426 0.63101 0.0
C369 C 0.18907 0.11129 0.56051 0.0
C370 C 0.1948 0.12751 0.57936 0.0
C371 C 0.20336 0.13185 0.62423 0.0
C372 C 0.192 0.09991 0.58798 0.0
H373 H 0.21284 0.12339 0.68415 0.0
C374 C 0.22586 0.10273 0.74497 0.0
O375 O 0.269 0.10296 0.68257 0.0
O376 O 0.2607 0.11991 0.64828 0.0
N377 N 0.19158 0.07423 0.59857 0.0
C378 C 0.18794 0.05849 0.58402 0.0
C379 C 0.17991 0.05241 0.53904 0.0
C380 C 0.17572 0.06256 0.50954 0.0
C381 C 0.17953 0.07869 0.52539 0.0
C382 C 0.18735 0.08399 0.57082 0.0
H383 H 0.19126 0.05069 0.60639 0.0
O384 O 0.24496 0.08996 0.59438 0.0
O385 O 0.22521 0.09477 0.62812 0.0
O386 O 0.23085 0.07076 0.6834 0.0
O387 O 0.20324 0.06595 0.68379 0.0
C388 C 0.17623 0.08985 0.49744 0.0
C389 C 0.18098 0.10614 0.515 0.0
H390 H 0.19286 0.13677 0.55946 0.0
H391 H 0.20792 0.14437 0.63887 0.0
H392 H 0.17707 0.03997 0.52698 0.0
H393 H 0.16972 0.05791 0.47461 0.0
H394 H 0.17026 0.08613 0.46208 0.0
H395 H 0.1786 0.11469 0.49288 0.0
Mn396 Mn 0.9068 0.15059 0.66032 0.0
Mn397 Mn 0.9088 0.17891 0.74251 0.0
C398 C 0.88386 0.15593 0.66745 0.0
C399 C 0.91281 0.14496 0.58263 0.0
C400 C 0.90131 0.14336 0.76797 0.0
O401 O 0.93227 0.16296 0.68017 0.0
O402 O 0.93275 0.18361 0.72667 0.0
C403 C 0.9256 0.20991 0.68247 0.0
N404 N 0.91209 0.19902 0.71076 0.0
C405 C 0.89805 0.21597 0.70317 0.0
C406 C 0.91186 0.22744 0.67421 0.0
C407 C 0.92566 0.22436 0.66368 0.0
C408 C 0.89869 0.20178 0.72079 0.0
H409 H 0.93621 0.20757 0.67431 0.0
C410 C 0.94027 0.17636 0.70549 0.0
O411 O 0.91034 0.13464 0.61833 0.0
O412 O 0.91268 0.15885 0.59278 0.0
N413 N 0.88661 0.17597 0.76132 0.0
C414 C 0.87394 0.16329 0.78801 0.0
C415 C 0.85899 0.16421 0.80063 0.0
C416 C 0.85734 0.17824 0.78626 0.0
C417 C 0.87067 0.19125 0.75945 0.0
C418 C 0.88525 0.18964 0.74792 0.0
H419 H 0.87518 0.15253 0.79942 0.0
O420 O 0.88178 0.14231 0.64636 0.0
O421 O 0.89949 0.16632 0.68237 0.0
O422 O 0.90045 0.13795 0.72498 0.0
O423 O 0.905 0.15847 0.77843 0.0
C424 C 0.86997 0.20566 0.74325 0.0
C425 C 0.88359 0.21796 0.71485 0.0
H426 H 0.91196 0.2386 0.65963 0.0
H427 H 0.93633 0.23312 0.64117 0.0
H428 H 0.84877 0.15412 0.82138 0.0
H429 H 0.84575 0.17886 0.79583 0.0
H430 H 0.85891 0.20731 0.7519 0.0
H431 H 0.88277 0.22884 0.70194 0.0
Mn432 Mn 0.90734 0.47943 0.49232 0.0
Mn433 Mn 0.86597 0.44856 0.48124 0.0
C434 C 0.89559 0.47091 0.41634 0.0
C435 C 0.93627 0.48646 0.50235 0.0
C436 C 0.87622 0.48462 0.51044 0.0
O437 O 0.90133 0.46881 0.55894 0.0
O438 O 0.87471 0.44663 0.54657 0.0
C439 C 0.87148 0.41886 0.48119 0.0
N440 N 0.86548 0.42841 0.45878 0.0
C441 C 0.85634 0.41013 0.38932 0.0
C442 C 0.8623 0.40003 0.41182 0.0
C443 C 0.86991 0.40442 0.45794 0.0
C444 C 0.85809 0.42427 0.41447 0.0
H445 H 0.87748 0.42227 0.51645 0.0
C446 C 0.88799 0.4554 0.57337 0.0
O447 O 0.93083 0.49691 0.51486 0.0
O448 O 0.92495 0.47213 0.48422 0.0
N449 N 0.85616 0.44893 0.41969 0.0
C450 C 0.85197 0.46053 0.40187 0.0
C451 C 0.84468 0.45827 0.35546 0.0
C452 C 0.84175 0.44412 0.32789 0.0
C453 C 0.84606 0.4323 0.34713 0.0
C454 C 0.8531 0.43511 0.39383 0.0
H455 H 0.85431 0.47149 0.42275 0.0
O456 O 0.90929 0.48553 0.42225 0.0
O457 O 0.88941 0.46175 0.45518 0.0
O458 O 0.89261 0.49085 0.50555 0.0
O459 O 0.86535 0.46902 0.50334 0.0
C460 C 0.84396 0.41803 0.32142 0.0
C461 C 0.84909 0.40695 0.3425 0.0
H462 H 0.86125 0.38896 0.39384 0.0
H463 H 0.87464 0.39674 0.47541 0.0
H464 H 0.84143 0.46747 0.34082 0.0
H465 H 0.83632 0.44253 0.29187 0.0
H466 H 0.83862 0.41556 0.28515 0.0
H467 H 0.84762 0.39613 0.32214 0.0
Mn468 Mn 0.52006 0.42935 0.50873 0.0
Mn469 Mn 0.55078 0.41798 0.49258 0.0
C470 C 0.52856 0.42681 0.43139 0.0
C471 C 0.51406 0.45176 0.51743 0.0
C472 C 0.51348 0.39317 0.52145 0.0
O473 O 0.53124 0.43311 0.575 0.0
O474 O 0.55278 0.42707 0.55955 0.0
C475 C 0.58205 0.45171 0.49705 0.0
N476 N 0.57198 0.43715 0.47248 0.0
C477 C 0.59121 0.44692 0.40375 0.0
C478 C 0.60189 0.46194 0.42854 0.0
C479 C 0.59728 0.46434 0.47537 0.0
C480 C 0.57633 0.43467 0.42747 0.0
H481 H 0.57845 0.4537 0.53279 0.0
C482 C 0.5445 0.43191 0.58785 0.0
O483 O 0.50292 0.43656 0.53169 0.0
O484 O 0.5286 0.45383 0.50037 0.0
N485 N 0.5503 0.40932 0.42909 0.0
C486 C 0.53784 0.3948 0.40858 0.0
C487 C 0.54006 0.39086 0.36088 0.0
C488 C 0.55502 0.4019 0.33475 0.0
C489 C 0.56765 0.41677 0.3566 0.0
C490 C 0.56483 0.41994 0.40445 0.0
H491 H 0.52622 0.38638 0.42826 0.0
O492 O 0.51361 0.42592 0.43863 0.0
O493 O 0.53785 0.42894 0.46987 0.0
O494 O 0.50755 0.40357 0.52114 0.0
O495 O 0.52931 0.39749 0.51193 0.0
C496 C 0.58271 0.42879 0.33237 0.0
C497 C 0.59449 0.44384 0.35594 0.0
H498 H 0.61354 0.4718 0.41172 0.0
H499 H 0.60537 0.47596 0.49457 0.0
H500 H 0.5302 0.37941 0.34416 0.0
H501 H 0.55659 0.39891 0.29777 0.0
H502 H 0.58522 0.42669 0.29532 0.0
H503 H 0.60588 0.4531 0.33666 0.0
Mn504 Mn 0.57238 0.08975 0.48772 0.0
Mn505 Mn 0.57995 0.12969 0.47349 0.0
C506 C 0.57673 0.10141 0.41143 0.0
C507 C 0.55164 0.06121 0.49404 0.0
C508 C 0.60726 0.12096 0.50927 0.0
O509 O 0.56515 0.09495 0.55192 0.0
O510 O 0.56904 0.12111 0.53831 0.0
C511 C 0.54354 0.12275 0.46934 0.0
N512 N 0.55951 0.12919 0.44845 0.0
C513 C 0.54977 0.13739 0.37703 0.0
C514 C 0.53325 0.13096 0.39794 0.0
C515 C 0.53013 0.1236 0.44429 0.0
C516 C 0.56267 0.13634 0.40393 0.0
H517 H 0.54105 0.11695 0.50478 0.0
C518 C 0.56446 0.10806 0.56532 0.0
O519 O 0.56718 0.06676 0.51147 0.0
O520 O 0.54829 0.0722 0.47393 0.0
N521 N 0.59031 0.13942 0.41239 0.0
C522 C 0.60666 0.14416 0.39629 0.0
C523 C 0.61173 0.15132 0.34993 0.0
C524 C 0.59997 0.15356 0.32068 0.0
C525 C 0.58326 0.1487 0.33818 0.0
C526 C 0.57901 0.14182 0.38491 0.0
H527 H 0.6157 0.14233 0.41845 0.0
O528 O 0.5789 0.08843 0.41929 0.0
O529 O 0.57202 0.107 0.44854 0.0
O530 O 0.59802 0.10487 0.50659 0.0
O531 O 0.60162 0.13114 0.49807 0.0
C532 C 0.57055 0.1501 0.31072 0.0
C533 C 0.55382 0.14444 0.33013 0.0
H534 H 0.52283 0.13145 0.37856 0.0
H535 H 0.51739 0.11851 0.46054 0.0
H536 H 0.62463 0.155 0.33663 0.0
H537 H 0.60385 0.15888 0.2847 0.0
H538 H 0.57344 0.15529 0.27438 0.0
H539 H 0.54409 0.14538 0.30842 0.0
Mn540 Mn 0.81547 0.57911 0.66994 0.0
Mn541 Mn 0.78337 0.53922 0.68739 0.0
C542 C 0.80796 0.56859 0.74732 0.0
C543 C 0.82278 0.60735 0.65863 0.0
C544 C 0.81969 0.54798 0.65391 0.0
O545 O 0.80344 0.5727 0.60515 0.0
O546 O 0.78093 0.54691 0.62135 0.0
C547 C 0.75357 0.5457 0.68861 0.0
N548 N 0.76323 0.53968 0.71096 0.0
C549 C 0.74514 0.53198 0.78201 0.0
C550 C 0.73491 0.53797 0.7596 0.0
C551 C 0.73916 0.54488 0.71272 0.0
C552 C 0.75925 0.53299 0.75603 0.0
H553 H 0.75689 0.55114 0.65274 0.0
C554 C 0.78957 0.55948 0.59284 0.0
O555 O 0.83322 0.60185 0.64465 0.0
O556 O 0.80834 0.5965 0.67864 0.0
N557 N 0.7841 0.5303 0.74976 0.0
C558 C 0.79582 0.52592 0.76723 0.0
C559 C 0.79371 0.51922 0.81422 0.0
C560 C 0.77957 0.51706 0.8427 0.0
C561 C 0.76759 0.52152 0.82379 0.0
C562 C 0.77025 0.52794 0.77649 0.0
H563 H 0.80678 0.52768 0.74565 0.0
O564 O 0.82297 0.58168 0.73896 0.0
O565 O 0.79781 0.56228 0.71012 0.0
O566 O 0.82648 0.56408 0.65562 0.0
O567 O 0.8038 0.53781 0.6644 0.0
C568 C 0.75333 0.52016 0.85035 0.0
C569 C 0.74211 0.5254 0.82949 0.0
H570 H 0.72387 0.53749 0.77823 0.0
H571 H 0.73139 0.54962 0.69531 0.0
H572 H 0.80303 0.51584 0.8286 0.0
H573 H 0.77811 0.51209 0.87916 0.0
H574 H 0.751 0.51532 0.8871 0.0
H575 H 0.73132 0.5245 0.8505 0.0
Mn576 Mn 0.42453 0.23747 0.66044 0.0
Mn577 Mn 0.46646 0.24828 0.67689 0.0
C578 C 0.43562 0.24072 0.73782 0.0
C579 C 0.3961 0.2154 0.65077 0.0
C580 C 0.45446 0.27313 0.64396 0.0
O581 O 0.43191 0.23307 0.59485 0.0
O582 O 0.45894 0.23773 0.61173 0.0
C583 C 0.46322 0.21421 0.6799 0.0
N584 N 0.46813 0.22937 0.70142 0.0
C585 C 0.4775 0.22086 0.77299 0.0
C586 C 0.4727 0.20522 0.75138 0.0
C587 C 0.46552 0.20188 0.70466 0.0
C588 C 0.4751 0.23274 0.74633 0.0
H589 H 0.4575 0.2115 0.64424 0.0
C590 C 0.44594 0.23312 0.58315 0.0
O591 O 0.40046 0.23068 0.63674 0.0
O592 O 0.40823 0.21305 0.66917 0.0
N593 N 0.47508 0.25832 0.73884 0.0
C594 C 0.47787 0.27354 0.75584 0.0
C595 C 0.48446 0.27856 0.80279 0.0
C596 C 0.48809 0.2679 0.83176 0.0
C597 C 0.48517 0.25232 0.81342 0.0
C598 C 0.4788 0.24808 0.76612 0.0
H599 H 0.47498 0.28174 0.73391 0.0
O600 O 0.42149 0.24144 0.73015 0.0
O601 O 0.44264 0.23806 0.69993 0.0
O602 O 0.43808 0.26311 0.64682 0.0
O603 O 0.4658 0.26854 0.65297 0.0
C604 C 0.48794 0.24067 0.84062 0.0
C605 C 0.48411 0.22496 0.82042 0.0
H606 H 0.47428 0.19561 0.77056 0.0
H607 H 0.46165 0.18978 0.6879 0.0
H608 H 0.48662 0.29058 0.81675 0.0
H609 H 0.49296 0.27173 0.86817 0.0
H610 H 0.49278 0.24357 0.87737 0.0
H611 H 0.48605 0.216 0.84196 0.0
Mn612 Mn 0.76353 0.1894 0.67106 0.0
Mn613 Mn 0.7527 0.22007 0.68222 0.0
C614 C 0.76043 0.19806 0.74706 0.0
C615 C 0.78556 0.18247 0.66145 0.0
C616 C 0.727 0.18387 0.65395 0.0
O617 O 0.76798 0.19992 0.6042 0.0
O618 O 0.76306 0.22182 0.61656 0.0
C619 C 0.78781 0.24993 0.68075 0.0
N620 N 0.77238 0.24039 0.70375 0.0
C621 C 0.78169 0.25897 0.77253 0.0
C622 C 0.79764 0.26907 0.74942 0.0
C623 C 0.80071 0.26451 0.70335 0.0
C624 C 0.76927 0.24467 0.74803 0.0
H625 H 0.79028 0.24639 0.64552 0.0
C626 C 0.76771 0.21317 0.5897 0.0
O627 O 0.76968 0.17197 0.64886 0.0
O628 O 0.78849 0.19684 0.67907 0.0
N629 N 0.74278 0.21985 0.74406 0.0
C630 C 0.72712 0.20824 0.76256 0.0
C631 C 0.72225 0.21065 0.80904 0.0
C632 C 0.73351 0.22496 0.83597 0.0
C633 C 0.7495 0.23679 0.81604 0.0
C634 C 0.75356 0.23383 0.76932 0.0
H635 H 0.71847 0.19715 0.74218 0.0
O636 O 0.75956 0.18347 0.74132 0.0
O637 O 0.76324 0.20711 0.70806 0.0
O638 O 0.73732 0.1778 0.65816 0.0
O639 O 0.73162 0.19945 0.66114 0.0
C640 C 0.76172 0.25123 0.84111 0.0
C641 C 0.7778 0.26231 0.81937 0.0
H642 H 0.80768 0.28024 0.76691 0.0
H643 H 0.81302 0.27219 0.68541 0.0
H644 H 0.70991 0.20144 0.82421 0.0
H645 H 0.7298 0.22667 0.87205 0.0
H646 H 0.75897 0.25381 0.87739 0.0
H647 H 0.78717 0.27325 0.83925 0.0
Mn648 Mn 0.42473 0.1846 0.17018 0.0
Mn649 Mn 0.39673 0.15581 0.09136 0.0
C650 C 0.39653 0.17971 0.16586 0.0
C651 C 0.43766 0.19159 0.24616 0.0
C652 C 0.4243 0.19095 0.06186 0.0
O653 O 0.43708 0.17145 0.15097 0.0
O654 O 0.41672 0.15184 0.10265 0.0
C655 C 0.3848 0.12533 0.15284 0.0
N656 N 0.38113 0.13577 0.12572 0.0
C657 C 0.35046 0.1181 0.13848 0.0
C658 C 0.35389 0.1071 0.16636 0.0
C659 C 0.37114 0.11077 0.17373 0.0
C660 C 0.3646 0.13245 0.11881 0.0
H661 H 0.39804 0.1281 0.15843 0.0
C662 C 0.43149 0.15844 0.1239 0.0
O663 O 0.44497 0.2011 0.20861 0.0
O664 O 0.42337 0.17759 0.23896 0.0
N665 N 0.37669 0.15794 0.07665 0.0
C666 C 0.37563 0.17012 0.05012 0.0
C667 C 0.35928 0.16854 0.04032 0.0
C668 C 0.34419 0.15432 0.05714 0.0
C669 C 0.34559 0.14181 0.08357 0.0
C670 C 0.36224 0.1441 0.09238 0.0
H671 H 0.38718 0.18099 0.03675 0.0
O672 O 0.40861 0.19358 0.18445 0.0
O673 O 0.40118 0.16884 0.15131 0.0
O674 O 0.43036 0.1963 0.10395 0.0
O675 O 0.41201 0.17609 0.053 0.0
C676 C 0.33114 0.12721 0.10185 0.0
C677 C 0.33357 0.11543 0.12962 0.0
H678 H 0.34339 0.09584 0.18245 0.0
H679 H 0.3739 0.10237 0.19532 0.0
H680 H 0.35831 0.17823 0.01978 0.0
H681 H 0.33161 0.15318 0.04966 0.0
H682 H 0.3181 0.125 0.09518 0.0
H683 H 0.32236 0.10438 0.14409 0.0
Mn684 Mn 0.81793 0.24073 0.17136 0.0
Mn685 Mn 0.78695 0.25208 0.18144 0.0
C686 C 0.80909 0.24434 0.24703 0.0
C687 C 0.82421 0.21851 0.16452 0.0
C688 C 0.82438 0.27664 0.15305 0.0
O689 O 0.80721 0.23624 0.10438 0.0
O690 O 0.78529 0.24195 0.11615 0.0
C691 C 0.75593 0.21814 0.17995 0.0
N692 N 0.76579 0.23313 0.20277 0.0
C693 C 0.74627 0.2244 0.27086 0.0
C694 C 0.73583 0.20892 0.24791 0.0
C695 C 0.74069 0.20577 0.20228 0.0
C696 C 0.76121 0.23631 0.24662 0.0
H697 H 0.7597 0.21562 0.14507 0.0
C698 C 0.79387 0.23696 0.08965 0.0
O699 O 0.8354 0.23376 0.15088 0.0
O700 O 0.80955 0.21629 0.1812 0.0
N701 N 0.78703 0.26183 0.24293 0.0
C702 C 0.79905 0.27698 0.26142 0.0
C703 C 0.79641 0.28184 0.30751 0.0
C704 C 0.78144 0.2711 0.33407 0.0
C705 C 0.76919 0.25562 0.31417 0.0
C706 C 0.77243 0.25154 0.26782 0.0
H707 H 0.81066 0.28522 0.24137 0.0
O708 O 0.82395 0.24487 0.24162 0.0
O709 O 0.7999 0.2416 0.20797 0.0
O710 O 0.83041 0.26636 0.15685 0.0
O711 O 0.80844 0.27233 0.16066 0.0
C712 C 0.7541 0.24393 0.33892 0.0
C713 C 0.74264 0.22833 0.31728 0.0
H714 H 0.72414 0.19928 0.2652 0.0
H715 H 0.73276 0.19381 0.18448 0.0
H716 H 0.80594 0.29378 0.32269 0.0
H717 H 0.77955 0.27479 0.36987 0.0
H718 H 0.7513 0.2467 0.3749 0.0
H719 H 0.7312 0.21935 0.33694 0.0
Mn720 Mn 0.76371 0.57941 0.17497 0.0
Mn721 Mn 0.75263 0.53826 0.18031 0.0
C722 C 0.75871 0.56612 0.24894 0.0
C723 C 0.78586 0.60742 0.17053 0.0
C724 C 0.72791 0.55088 0.14852 0.0
O725 O 0.7696 0.57442 0.10828 0.0
O726 O 0.76503 0.54783 0.11799 0.0
C727 C 0.78753 0.54131 0.18669 0.0
N728 N 0.77144 0.53586 0.20592 0.0
C729 C 0.77835 0.52427 0.27562 0.0
C730 C 0.79495 0.52965 0.25641 0.0
C731 C 0.79956 0.53822 0.21176 0.0
C732 C 0.76684 0.52754 0.24873 0.0
H733 H 0.79116 0.54802 0.15258 0.0
C734 C 0.77002 0.56136 0.09288 0.0
O735 O 0.77025 0.60305 0.15567 0.0
O736 O 0.78853 0.59555 0.18753 0.0
N737 N 0.74073 0.52774 0.23912 0.0
C738 C 0.72465 0.52441 0.25411 0.0
C739 C 0.71831 0.51641 0.29897 0.0
C740 C 0.72854 0.51192 0.32788 0.0
C741 C 0.74501 0.5154 0.31157 0.0
C742 C 0.75057 0.52321 0.2663 0.0
H743 H 0.71679 0.52795 0.2322 0.0
O744 O 0.75814 0.5801 0.2446 0.0
O745 O 0.76247 0.5606 0.20987 0.0
O746 O 0.73784 0.5665 0.15784 0.0
O747 O 0.73239 0.53952 0.15426 0.0
C748 C 0.75628 0.51176 0.33893 0.0
C749 C 0.77293 0.51618 0.32095 0.0
H750 H 0.80433 0.52744 0.27586 0.0
H751 H 0.81238 0.5425 0.19684 0.0
H752 H 0.7056 0.51382 0.31138 0.0
H753 H 0.72368 0.50594 0.36271 0.0
H754 H 0.75236 0.50577 0.37414 0.0
H755 H 0.78157 0.51353 0.34262 0.0
Mn756 Mn 0.5203 0.08806 0.98588 0.0
Mn757 Mn 0.54995 0.12929 0.97658 0.0
C758 C 0.52766 0.10072 0.91088 0.0
C759 C 0.51459 0.06011 0.99138 0.0
C760 C 0.51281 0.11679 0.00997 0.0
O761 O 0.53192 0.09356 0.0514 0.0
O762 O 0.55294 0.12052 0.04027 0.0
C763 C 0.58178 0.12615 0.97195 0.0
N764 N 0.57113 0.13139 0.95166 0.0
C765 C 0.58948 0.14208 0.88134 0.0
C766 C 0.60072 0.13691 0.90165 0.0
C767 C 0.59684 0.12891 0.94714 0.0
C768 C 0.57476 0.13916 0.90799 0.0
H769 H 0.57876 0.11986 0.00672 0.0
C770 C 0.54507 0.10705 0.06606 0.0
O771 O 0.5035 0.06455 0.00711 0.0
O772 O 0.5289 0.07189 0.97291 0.0
N773 N 0.54852 0.13917 0.91656 0.0
C774 C 0.53583 0.14248 0.90083 0.0
C775 C 0.53746 0.15002 0.85523 0.0
C776 C 0.55209 0.15409 0.82635 0.0
C777 C 0.56504 0.15067 0.84347 0.0
C778 C 0.56281 0.14333 0.88945 0.0
H779 H 0.5245 0.13927 0.92273 0.0
O780 O 0.51317 0.08678 0.91686 0.0
O781 O 0.53741 0.10663 0.949 0.0
O782 O 0.50746 0.10103 0.00406 0.0
O783 O 0.52842 0.12825 0.00142 0.0
C784 C 0.57988 0.15395 0.81631 0.0
C785 C 0.59209 0.14966 0.83523 0.0
H786 H 0.61226 0.13888 0.88243 0.0
H787 H 0.60539 0.12479 0.96292 0.0
H788 H 0.52739 0.15258 0.84223 0.0
H789 H 0.55319 0.15971 0.79095 0.0
H790 H 0.58191 0.15955 0.78055 0.0
H791 H 0.60334 0.15204 0.81373 0.0
Mn792 Mn 0.91243 0.42989 0.99151 0.0
Mn793 Mn 0.86997 0.4181 0.98155 0.0
C794 C 0.89961 0.42518 0.91606 0.0
C795 C 0.94099 0.45234 0.99504 0.0
C796 C 0.88312 0.39405 0.01269 0.0
O797 O 0.90649 0.43535 0.05765 0.0
O798 O 0.87854 0.42865 0.04631 0.0
C799 C 0.87279 0.452 0.98095 0.0
N800 N 0.86764 0.43686 0.95903 0.0
C801 C 0.85667 0.44508 0.89026 0.0
C802 C 0.86174 0.46072 0.91227 0.0
C803 C 0.86984 0.46419 0.9578 0.0
C804 C 0.85979 0.43336 0.91529 0.0
H805 H 0.87916 0.45478 0.01575 0.0
C806 C 0.89227 0.43427 0.07242 0.0
O807 O 0.93709 0.43744 0.01164 0.0
O808 O 0.92833 0.45412 0.97803 0.0
N809 N 0.86017 0.40791 0.92059 0.0
C810 C 0.85706 0.39266 0.90301 0.0
C811 C 0.84947 0.38747 0.85712 0.0
C812 C 0.84515 0.398 0.82984 0.0
C813 C 0.84837 0.41359 0.84882 0.0
C814 C 0.85577 0.418 0.895 0.0
H815 H 0.86052 0.38459 0.9236 0.0
O816 O 0.91395 0.42469 0.92189 0.0
O817 O 0.89333 0.4284 0.95462 0.0
O818 O 0.89941 0.40446 0.00927 0.0
O819 O 0.87137 0.39808 0.00357 0.0
C820 C 0.84488 0.42509 0.82327 0.0
C821 C 0.84903 0.44082 0.84398 0.0
H822 H 0.85963 0.47022 0.89434 0.0
H823 H 0.87389 0.47627 0.97488 0.0
H824 H 0.84708 0.37544 0.84265 0.0
H825 H 0.8395 0.39405 0.79419 0.0
H826 H 0.83924 0.42206 0.78739 0.0
H827 H 0.8465 0.44965 0.82371 0.0
Mn828 Mn 0.57067 0.48318 0.99837 0.0
Mn829 Mn 0.57503 0.51633 0.06427 0.0
C830 C 0.54849 0.48976 -0.00079 0.0
C831 C 0.57509 0.4729 0.92567 0.0
C832 C 0.56579 0.48213 0.10804 0.0
O833 O 0.59639 0.49559 0.01467 0.0
O834 O 0.59824 0.51838 0.05253 0.0
C835 C 0.59349 0.54319 0.99122 0.0
N836 N 0.57986 0.53486 0.02209 0.0
C837 C 0.56836 0.55332 0.00199 0.0
C838 C 0.58234 0.56219 0.97021 0.0
C839 C 0.59491 0.55705 0.96464 0.0
C840 C 0.56758 0.53956 0.02726 0.0
H841 H 0.6032 0.53929 0.98697 0.0
C842 C 0.60506 0.50981 0.03567 0.0
O843 O 0.57261 0.46451 0.96584 0.0
O844 O 0.57574 0.48747 0.92825 0.0
N845 N 0.55386 0.5164 0.07896 0.0
C846 C 0.54096 0.50622 0.11008 0.0
C847 C 0.52715 0.50942 0.1189 0.0
C848 C 0.52693 0.52325 0.09647 0.0
C849 C 0.54055 0.53377 0.06545 0.0
C850 C 0.55391 0.5299 0.05784 0.0
H851 H 0.54116 0.49568 0.12782 0.0
O852 O 0.54565 0.47497 0.98558 0.0
O853 O 0.56447 0.50061 0.01032 0.0
O854 O 0.56514 0.47456 0.06848 0.0
O855 O 0.56966 0.49768 0.11011 0.0
C856 C 0.54133 0.54787 0.04146 0.0
C857 C 0.55514 0.55756 0.00944 0.0
H858 H 0.5835 0.57291 0.94974 0.0
H859 H 0.6057 0.56379 0.94004 0.0
H860 H 0.51672 0.50128 0.14304 0.0
H861 H 0.51623 0.52566 0.10324 0.0
H862 H 0.53128 0.5513 0.04706 0.0
H863 H 0.55545 0.56822 0.99068 0.0
Mn864 Mn 0.57273 0.81012 0.8266 0.0
Mn865 Mn 0.53111 0.77953 0.81642 0.0
C866 C 0.56068 0.80181 0.75084 0.0
C867 C 0.60177 0.81722 0.835 0.0
C868 C 0.54185 0.81569 0.84556 0.0
O869 O 0.56698 0.79942 0.89314 0.0
O870 O 0.54002 0.77768 0.88158 0.0
C871 C 0.53602 0.74947 0.81685 0.0
N872 N 0.53007 0.75908 0.79453 0.0
C873 C 0.51954 0.74007 0.7268 0.0
C874 C 0.52543 0.7299 0.74924 0.0
C875 C 0.53372 0.73464 0.79443 0.0
C876 C 0.52201 0.75461 0.75114 0.0
H877 H 0.5425 0.75313 0.85143 0.0
C878 C 0.55349 0.78622 0.90793 0.0
O879 O 0.59631 0.82757 0.8485 0.0
O880 O 0.59036 0.80286 0.81718 0.0
N881 N 0.52104 0.77979 0.75523 0.0
C882 C 0.51729 0.79162 0.7369 0.0
C883 C 0.5096 0.78916 0.69098 0.0
C884 C 0.5058 0.77455 0.66449 0.0
C885 C 0.50968 0.76251 0.68423 0.0
C886 C 0.5172 0.76557 0.73034 0.0
H887 H 0.52028 0.80292 0.75696 0.0
O888 O 0.57444 0.81637 0.75689 0.0
O889 O 0.55454 0.79246 0.78948 0.0
O890 O 0.55822 0.82171 0.841 0.0
O891 O 0.53084 0.80017 0.8381 0.0
C892 C 0.50677 0.74779 0.65947 0.0
C893 C 0.51169 0.73658 0.68074 0.0
H894 H 0.52382 0.71853 0.73186 0.0
H895 H 0.5384 0.7269 0.81183 0.0
H896 H 0.5067 0.79854 0.67592 0.0
H897 H 0.50005 0.77279 0.62885 0.0
H898 H 0.501 0.7451 0.62372 0.0
H899 H 0.50963 0.72543 0.66103 0.0
Mn900 Mn 0.18744 0.76406 0.83424 0.0
Mn901 Mn 0.21871 0.75321 0.82144 0.0
C902 C 0.19527 0.75977 0.75804 0.0
C903 C 0.18075 0.78602 0.84063 0.0
C904 C 0.18193 0.72857 0.85471 0.0
O905 O 0.19948 0.76984 0.89938 0.0
O906 O 0.22129 0.76407 0.88598 0.0
C907 C 0.24945 0.78735 0.81827 0.0
N908 N 0.23936 0.77208 0.79708 0.0
C909 C 0.2576 0.78036 0.72626 0.0
C910 C 0.26826 0.79612 0.7475 0.0
C911 C 0.26416 0.79963 0.7937 0.0
C912 C 0.24323 0.76854 0.75274 0.0
H913 H 0.24625 0.79016 0.85357 0.0
C914 C 0.21321 0.76958 0.91266 0.0
O915 O 0.17001 0.77089 0.85619 0.0
O916 O 0.19518 0.78826 0.82212 0.0
N917 N 0.21774 0.74287 0.7603 0.0
C918 C 0.20548 0.72753 0.74354 0.0
C919 C 0.20732 0.72233 0.69711 0.0
C920 C 0.22173 0.73293 0.6684 0.0
C921 C 0.23421 0.74864 0.68649 0.0
C922 C 0.2318 0.75306 0.73328 0.0
H923 H 0.19429 0.71939 0.76524 0.0
O924 O 0.1803 0.75888 0.76496 0.0
O925 O 0.20506 0.76311 0.79605 0.0
O926 O 0.17563 0.73863 0.85136 0.0
O927 O 0.19779 0.73304 0.84529 0.0
C928 C 0.24873 0.76023 0.65949 0.0
C929 C 0.26042 0.77608 0.67936 0.0
H930 H 0.27952 0.80569 0.72846 0.0
H931 H 0.27226 0.8118 0.81019 0.0
H932 H 0.1976 0.71022 0.68332 0.0
H933 H 0.22299 0.72896 0.63237 0.0
H934 H 0.25088 0.75719 0.62313 0.0
H935 H 0.27139 0.78498 0.65797 0.0
Mn936 Mn 0.23791 0.42507 0.82524 0.0
Mn937 Mn 0.24542 0.46493 0.80926 0.0
C938 C 0.24262 0.4365 0.74862 0.0
C939 C 0.21722 0.39652 0.83191 0.0
C940 C 0.27266 0.45644 0.84702 0.0
O941 O 0.23037 0.43044 0.88868 0.0
O942 O 0.23435 0.45657 0.87403 0.0
C943 C 0.20896 0.45777 0.80367 0.0
N944 N 0.225 0.46422 0.78323 0.0
C945 C 0.21539 0.47203 0.71084 0.0
C946 C 0.1988 0.46559 0.73127 0.0
C947 C 0.19558 0.45843 0.77787 0.0
C948 C 0.22826 0.47118 0.73845 0.0
H949 H 0.20639 0.45212 0.83931 0.0
C950 C 0.22968 0.4436 0.90145 0.0
O951 O 0.2327 0.40218 0.84996 0.0
O952 O 0.21391 0.40741 0.81099 0.0
N953 N 0.25595 0.47449 0.74817 0.0
C954 C 0.27239 0.47932 0.73271 0.0
C955 C 0.27758 0.48635 0.68625 0.0
C956 C 0.26585 0.48836 0.65624 0.0
C957 C 0.24905 0.48343 0.67311 0.0
C958 C 0.24468 0.4767 0.71997 0.0
H959 H 0.28141 0.47768 0.75547 0.0
O960 O 0.24477 0.42356 0.75737 0.0
O961 O 0.23767 0.44218 0.78506 0.0
O962 O 0.26345 0.44034 0.8448 0.0
O963 O 0.26706 0.46657 0.83483 0.0
C964 C 0.23637 0.48462 0.64491 0.0
C965 C 0.21955 0.47892 0.66375 0.0
H966 H 0.1884 0.46594 0.71133 0.0
H967 H 0.18278 0.45333 0.79377 0.0
H968 H 0.29056 0.49009 0.67345 0.0
H969 H 0.26983 0.49358 0.62019 0.0
H970 H 0.23935 0.48968 0.60844 0.0
H971 H 0.20985 0.4797 0.6415 0.0
Mn972 Mn 0.48209 0.91036 0.01215 0.0
Mn973 Mn 0.44956 0.87049 0.02636 0.0
C974 C 0.47463 0.89875 0.08847 0.0
C975 C 0.49006 0.93893 0.00563 0.0
C976 C 0.4856 0.87903 0.99102 0.0
O977 O 0.46973 0.90517 0.94781 0.0
O978 O 0.44736 0.87907 0.96141 0.0
C979 C 0.4202 0.8776 0.03 0.0
N980 N 0.42964 0.8711 0.05111 0.0
C981 C 0.41162 0.86301 0.12235 0.0
C982 C 0.40162 0.8695 0.10122 0.0
C983 C 0.40595 0.87684 0.05486 0.0
C984 C 0.42557 0.86398 0.09565 0.0
H985 H 0.42358 0.88338 0.99455 0.0
C986 C 0.45591 0.89209 0.93437 0.0
O987 O 0.50001 0.93329 0.9884 0.0
O988 O 0.47567 0.92801 0.02563 0.0
N989 N 0.45007 0.86076 0.08759 0.0
C990 C 0.4616 0.85596 0.10392 0.0
C991 C 0.45942 0.84881 0.15032 0.0
C992 C 0.44541 0.84666 0.1794 0.0
C993 C 0.43364 0.85157 0.16166 0.0
C994 C 0.43635 0.85843 0.11489 0.0
H995 H 0.47248 0.85773 0.0819 0.0
O996 O 0.48983 0.91167 0.08068 0.0
O997 O 0.46437 0.89317 0.05127 0.0
O998 O 0.49252 0.89513 0.99362 0.0
O999 O 0.46975 0.86891 0.0021 0.0
C1000 C 0.41953 0.85026 0.18893 0.0
C1001 C 0.40853 0.85598 0.16929 0.0
H1002 H 0.39071 0.86907 0.12045 0.0
H1003 H 0.39836 0.88197 0.03843 0.0
H1004 H 0.46859 0.84509 0.1638 0.0
H1005 H 0.4439 0.84134 0.21541 0.0
H1006 H 0.41716 0.84509 0.22529 0.0
H1007 H 0.39786 0.85511 0.19085 0.0
Mn1008 Mn 0.09201 0.57254 0.98879 0.0
Mn1009 Mn 0.13408 0.58381 0.00514 0.0
C1010 C 0.10278 0.5742 0.06609 0.0
C1011 C 0.06364 0.55044 0.97734 0.0
C1012 C 0.12155 0.6088 0.97866 0.0
O1013 O 0.09975 0.56966 0.92191 0.0
O1014 O 0.12712 0.57511 0.93782 0.0
C1015 C 0.13184 0.5502 -0.00122 0.0
N1016 N 0.13621 0.5646 0.0241 0.0
C1017 C 0.14584 0.55458 0.09192 0.0
C1018 C 0.14162 0.53973 0.06635 0.0
C1019 C 0.13457 0.53753 0.01961 0.0
C1020 C 0.14306 0.56687 0.06905 0.0
H1021 H 0.12622 0.54836 0.9631 0.0
C1022 C 0.11417 0.57071 0.90918 0.0
O1023 O 0.06788 0.56591 0.96577 0.0
O1024 O 0.0759 0.54791 0.99388 0.0
N1025 N 0.14211 0.5921 0.069 0.0
C1026 C 0.14408 0.60646 0.09032 0.0
C1027 C 0.15024 0.61018 0.13806 0.0
C1028 C 0.1543 0.59909 0.16339 0.0
C1029 C 0.15217 0.58438 0.14071 0.0
C1030 C 0.14616 0.58143 0.09287 0.0
H1031 H 0.14079 0.61493 0.07125 0.0
O1032 O 0.08866 0.57502 0.05929 0.0
O1033 O 0.1101 0.57251 0.02729 0.0
O1034 O 0.10523 0.59842 0.97923 0.0
O1035 O 0.13307 0.60439 0.98695 0.0
C1036 C 0.15537 0.57233 0.1641 0.0
C1037 C 0.15223 0.55745 0.1397 0.0
H1038 H 0.14352 0.52984 0.08249 0.0
H1039 H 0.13113 0.52604 -0.0002 0.0
H1040 H 0.15175 0.6215 0.15542 0.0
H1041 H 0.15886 0.6019 0.20041 0.0
H1042 H 0.16 0.57426 0.20111 0.0
H1043 H 0.15448 0.54816 0.15834 0.0
Mn1044 Mn 0.42902 0.52384 0.00585 0.0
Mn1045 Mn 0.41913 0.55511 0.01761 0.0
C1046 C 0.42674 0.53286 0.08201 0.0
C1047 C 0.45059 0.51644 0.99415 0.0
C1048 C 0.3927 0.51899 0.99059 0.0
O1049 O 0.43305 0.53411 0.93886 0.0
O1050 O 0.42909 0.55657 0.9515 0.0
C1051 C 0.45452 0.58454 0.0148 0.0
N1052 N 0.43917 0.57525 0.03844 0.0
C1053 C 0.44919 0.59391 0.10701 0.0
C1054 C 0.46506 0.60375 0.08324 0.0
C1055 C 0.46773 0.59903 0.03695 0.0
C1056 C 0.43644 0.5797 0.08293 0.0
H1057 H 0.45669 0.58087 0.9794 0.0
C1058 C 0.43317 0.54754 0.92441 0.0
O1059 O 0.43453 0.50605 0.98294 0.0
O1060 O 0.45395 0.53092 0.01194 0.0
N1061 N 0.40964 0.5552 0.07989 0.0
C1062 C 0.39398 0.54385 0.09896 0.0
C1063 C 0.38947 0.54645 0.14569 0.0
C1064 C 0.40109 0.56069 0.17228 0.0
C1065 C 0.41707 0.57226 0.15177 0.0
C1066 C 0.42077 0.56911 0.10483 0.0
H1067 H 0.38505 0.53282 0.07883 0.0
O1068 O 0.42558 0.51814 0.07625 0.0
O1069 O 0.42941 0.54184 0.04291 0.0
O1070 O 0.40276 0.51262 0.99474 0.0
O1071 O 0.39769 0.53468 0.99724 0.0
C1072 C 0.42963 0.58662 0.17644 0.0
C1073 C 0.44567 0.59743 0.15407 0.0
H1074 H 0.47534 0.61485 0.10037 0.0
H1075 H 0.47998 0.6065 0.0185 0.0
H1076 H 0.37712 0.53745 0.16131 0.0
H1077 H 0.39765 0.56255 0.20855 0.0
H1078 H 0.42716 0.58934 0.21286 0.0
H1079 H 0.4553 0.60831 0.17363 0.0
Mn1080 Mn 0.08931 0.51859 0.49921 0.0
Mn1081 Mn 0.06079 0.48518 0.43366 0.0
C1082 C 0.06055 0.51197 0.49729 0.0
C1083 C 0.1038 0.52914 0.572 0.0
C1084 C 0.08585 0.51925 0.38935 0.0
O1085 O 0.10272 0.5062 0.48418 0.0
O1086 O 0.08192 0.48319 0.44666 0.0
C1087 C 0.05212 0.45855 0.50765 0.0
N1088 N 0.04694 0.4668 0.47609 0.0
C1089 C 0.0169 0.44843 0.49567 0.0
C1090 C 0.02189 0.43966 0.52818 0.0
C1091 C 0.03958 0.44479 0.53434 0.0
C1092 C 0.02998 0.46209 0.47028 0.0
H1093 H 0.06571 0.46245 0.51237 0.0
C1094 C 0.09727 0.4919 0.46376 0.0
O1095 O 0.10981 0.5374 0.53167 0.0
O1096 O 0.0899 0.51456 0.56955 0.0
N1097 N 0.03961 0.48507 0.41782 0.0
C1098 C 0.03701 0.49517 0.38612 0.0
C1099 C 0.02003 0.49197 0.37668 0.0
C1100 C 0.0059 0.47823 0.39914 0.0
C1101 C 0.00888 0.46779 0.43081 0.0
C1102 C 0.02608 0.47164 0.43898 0.0
H1103 H 0.04781 0.50565 0.36838 0.0
O1104 O 0.07244 0.52681 0.51076 0.0
O1105 O 0.06573 0.50109 0.48702 0.0
O1106 O 0.0926 0.52698 0.42885 0.0
O1107 O 0.07424 0.50368 0.3875 0.0
C1108 C 0.99547 0.45381 0.45496 0.0
C1109 C 0.99948 0.44421 0.48765 0.0
H1110 H 0.01225 0.42902 0.54876 0.0
H1111 H 0.04354 0.43813 0.55949 0.0
H1112 H 0.01783 0.50006 0.35206 0.0
H1113 H 0.99282 0.47584 0.39192 0.0
H1114 H 0.98202 0.4504 0.44899 0.0
H1115 H 0.98906 0.43364 0.50651 0.0
Mn1116 Mn 0.48483 0.57322 0.50727 0.0
Mn1117 Mn 0.45462 0.58565 0.51668 0.0
C1118 C 0.47595 0.57705 0.58266 0.0
C1119 C 0.49063 0.55065 0.50136 0.0
C1120 C 0.49233 0.60952 0.48962 0.0
O1121 O 0.47433 0.56901 0.43991 0.0
O1122 O 0.45306 0.57569 0.45129 0.0
C1123 C 0.423 0.55217 0.51352 0.0
N1124 N 0.43306 0.567 0.53689 0.0
C1125 C 0.41302 0.5586 0.60374 0.0
C1126 C 0.40238 0.54328 0.58021 0.0
C1127 C 0.40741 0.54006 0.53493 0.0
C1128 C 0.42833 0.57026 0.58042 0.0
H1129 H 0.42688 0.54959 0.47887 0.0
C1130 C 0.46133 0.57032 0.42492 0.0
O1131 O 0.50203 0.56581 0.48768 0.0
O1132 O 0.47595 0.54866 0.51715 0.0
N1133 N 0.45463 0.59533 0.57823 0.0
C1134 C 0.46684 0.61026 0.59741 0.0
C1135 C 0.46405 0.61515 0.64329 0.0
C1136 C 0.44875 0.60467 0.66893 0.0
C1137 C 0.43632 0.58942 0.64833 0.0
C1138 C 0.43972 0.58529 0.60224 0.0
H1139 H 0.4787 0.61828 0.57809 0.0
O1140 O 0.49064 0.57721 0.57767 0.0
O1141 O 0.46692 0.57453 0.5434 0.0
O1142 O 0.49792 0.59889 0.49299 0.0
O1143 O 0.4765 0.60562 0.49704 0.0
C1144 C 0.42087 0.57799 0.67215 0.0
C1145 C 0.40923 0.56259 0.64987 0.0
H1146 H 0.39042 0.53385 0.59677 0.0
H1147 H 0.39932 0.52823 0.51667 0.0
H1148 H 0.47374 0.62691 0.65902 0.0
H1149 H 0.44675 0.60839 0.70458 0.0
H1150 H 0.41793 0.58081 0.7079 0.0
H1151 H 0.3975 0.5538 0.66882 0.0
Mn1152 Mn 0.43176 0.91253 0.51406 0.0
Mn1153 Mn 0.41975 0.8712 0.52317 0.0
C1154 C 0.42648 0.89986 0.58906 0.0
C1155 C 0.45421 0.94038 0.5084 0.0
C1156 C 0.39536 0.88408 0.49032 0.0
O1157 O 0.43764 0.90692 0.44834 0.0
O1158 O 0.43149 0.8799 0.45942 0.0
C1159 C 0.45454 0.87391 0.52738 0.0
N1160 N 0.4387 0.86884 0.54783 0.0
C1161 C 0.44624 0.85795 0.61794 0.0
C1162 C 0.46259 0.86295 0.59747 0.0
C1163 C 0.46675 0.87097 0.55201 0.0
C1164 C 0.43453 0.86105 0.59148 0.0
H1165 H 0.45784 0.88022 0.49263 0.0
C1166 C 0.43715 0.89337 0.43363 0.0
O1167 O 0.43869 0.9361 0.49294 0.0
O1168 O 0.45662 0.92851 0.52669 0.0
N1169 N 0.40845 0.86139 0.58324 0.0
C1170 C 0.39252 0.85825 0.59914 0.0
C1171 C 0.38659 0.85072 0.64474 0.0
C1172 C 0.39706 0.84648 0.67345 0.0
C1173 C 0.41335 0.84971 0.65615 0.0
C1174 C 0.41849 0.85706 0.61018 0.0
H1175 H 0.38447 0.8616 0.57737 0.0
O1176 O 0.42611 0.9139 0.58323 0.0
O1177 O 0.43014 0.89387 0.55079 0.0
O1178 O 0.40591 0.89981 0.49632 0.0
O1179 O 0.39938 0.87251 0.49858 0.0
C1180 C 0.42482 0.84625 0.68313 0.0
C1181 C 0.44126 0.85037 0.66404 0.0
H1182 H 0.4721 0.86084 0.61654 0.0
H1183 H 0.47938 0.87496 0.5361 0.0
H1184 H 0.37402 0.8483 0.65788 0.0
H1185 H 0.39253 0.84086 0.70885 0.0
H1186 H 0.42123 0.84064 0.71888 0.0
H1187 H 0.45005 0.84785 0.68539 0.0
Mn1188 Mn 0.18744 0.42384 0.32162 0.0
Mn1189 Mn 0.21684 0.46517 0.31485 0.0
C1190 C 0.19438 0.43715 0.24754 0.0
C1191 C 0.18201 0.39595 0.32457 0.0
C1192 C 0.17989 0.45202 0.35072 0.0
O1193 O 0.19939 0.42893 0.38675 0.0
O1194 O 0.22055 0.45588 0.37661 0.0
C1195 C 0.24886 0.4626 0.30498 0.0
N1196 N 0.23785 0.4678 0.28708 0.0
C1197 C 0.25542 0.47929 0.21567 0.0
C1198 C 0.26702 0.47416 0.2335 0.0
C1199 C 0.26372 0.46577 0.27835 0.0
C1200 C 0.24095 0.47595 0.24409 0.0
H1201 H 0.24628 0.45601 0.33923 0.0
C1202 C 0.2127 0.44224 0.40164 0.0
O1203 O 0.17098 0.40017 0.3422 0.0
O1204 O 0.19612 0.40792 0.30579 0.0
N1205 N 0.21462 0.47548 0.25662 0.0
C1206 C 0.20158 0.4786 0.24317 0.0
C1207 C 0.20258 0.48642 0.1984 0.0
C1208 C 0.21696 0.49096 0.16798 0.0
C1209 C 0.23026 0.48769 0.18272 0.0
C1210 C 0.22866 0.48005 0.22798 0.0
H1211 H 0.19044 0.47502 0.26624 0.0
O1212 O 0.17999 0.42307 0.25311 0.0
O1213 O 0.20425 0.44278 0.28553 0.0
O1214 O 0.17445 0.43641 0.34203 0.0
O1215 O 0.19549 0.46364 0.34305 0.0
C1216 C 0.24486 0.49139 0.15381 0.0
C1217 C 0.25743 0.4872 0.17029 0.0
H1218 H 0.2784 0.47643 0.21285 0.0
H1219 H 0.27255 0.46168 0.29221 0.0
H1220 H 0.19224 0.48885 0.18722 0.0
H1221 H 0.21758 0.4968 0.13322 0.0
H1222 H 0.24642 0.49724 0.11856 0.0
H1223 H 0.26848 0.48989 0.14746 0.0
Mn1224 Mn 0.57701 0.76267 0.32801 0.0
Mn1225 Mn 0.53406 0.74834 0.316 0.0
C1226 C 0.56447 0.75704 0.25217 0.0
C1227 C 0.60507 0.78582 0.33238 0.0
C1228 C 0.54903 0.72602 0.34831 0.0
O1229 O 0.57038 0.76828 0.39288 0.0
O1230 O 0.54173 0.75856 0.38157 0.0
C1231 C 0.53468 0.78129 0.31691 0.0
N1232 N 0.53057 0.7665 0.29416 0.0
C1233 C 0.51923 0.77427 0.2253 0.0
C1234 C 0.52322 0.78953 0.24816 0.0
C1235 C 0.53099 0.79305 0.29414 0.0
C1236 C 0.52305 0.76296 0.24996 0.0
H1237 H 0.54078 0.7841 0.35208 0.0
C1238 C 0.55554 0.76565 0.40742 0.0
O1239 O 0.60159 0.77113 0.34975 0.0
O1240 O 0.59227 0.78701 0.31368 0.0
N1241 N 0.52503 0.73831 0.25433 0.0
C1242 C 0.52289 0.72345 0.23612 0.0
C1243 C 0.51571 0.71828 0.18979 0.0
C1244 C 0.5108 0.72841 0.16272 0.0
C1245 C 0.51301 0.74359 0.18236 0.0
C1246 C 0.52004 0.74799 0.22895 0.0
H1247 H 0.52682 0.71571 0.25655 0.0
O1248 O 0.57914 0.75726 0.25906 0.0
O1249 O 0.55763 0.75999 0.29002 0.0
O1250 O 0.56507 0.73734 0.34706 0.0
O1251 O 0.53667 0.72895 0.33719 0.0
C1252 C 0.50884 0.75468 0.15714 0.0
C1253 C 0.51195 0.77 0.1786 0.0
H1254 H 0.52052 0.7987 0.23055 0.0
H1255 H 0.5342 0.80485 0.31189 0.0
H1256 H 0.51411 0.70659 0.17482 0.0
H1257 H 0.50547 0.72449 0.12675 0.0
H1258 H 0.50345 0.75164 0.12097 0.0
H1259 H 0.50888 0.77852 0.15861 0.0
Mn1260 Mn 0.23993 0.81745 0.32794 0.0
Mn1261 Mn 0.23983 0.84453 0.41145 0.0
C1262 C 0.21623 0.82168 0.33445 0.0
C1263 C 0.24637 0.8123 0.25016 0.0
C1264 C 0.23288 0.80914 0.4354 0.0
O1265 O 0.26533 0.83068 0.34782 0.0
O1266 O 0.26401 0.84911 0.39985 0.0
C1267 C 0.2582 0.87606 0.35413 0.0
N1268 N 0.24405 0.865 0.38009 0.0
C1269 C 0.23051 0.88232 0.36999 0.0
C1270 C 0.24499 0.89395 0.34335 0.0
C1271 C 0.25886 0.89077 0.33524 0.0
C1272 C 0.23056 0.86786 0.38773 0.0
H1273 H 0.2689 0.87366 0.34792 0.0
C1274 C 0.27246 0.84316 0.37688 0.0
O1275 O 0.24434 0.80209 0.28578 0.0
O1276 O 0.24559 0.82587 0.26046 0.0
N1277 N 0.21742 0.84174 0.42662 0.0
C1278 C 0.2042 0.829 0.45172 0.0
C1279 C 0.18916 0.83006 0.46202 0.0
C1280 C 0.18799 0.84431 0.44712 0.0
C1281 C 0.2019 0.85739 0.42213 0.0
C1282 C 0.21653 0.85562 0.41279 0.0
H1283 H 0.20508 0.81808 0.46357 0.0
O1284 O 0.21478 0.80825 0.31367 0.0
O1285 O 0.23164 0.83247 0.34998 0.0
O1286 O 0.23397 0.8046 0.39247 0.0
O1287 O 0.23501 0.82369 0.44653 0.0
C1288 C 0.20176 0.87207 0.40576 0.0
C1289 C 0.216 0.88446 0.37938 0.0
H1290 H 0.24555 0.90532 0.32876 0.0
H1291 H 0.27005 0.89965 0.31458 0.0
H1292 H 0.1785 0.81992 0.48143 0.0
H1293 H 0.17635 0.84505 0.45494 0.0
H1294 H 0.19069 0.87386 0.41281 0.0
H1295 H 0.21562 0.89557 0.36636 0.0
H1296 H 0.24911 0.10748 0.81666 0.0
H1297 H 0.20275 0.11092 0.78743 0.0
H1298 H 0.24868 0.11565 0.90026 0.0
H1299 H 0.20242 0.11915 0.87168 0.0
H1300 H 0.23173 0.11177 0.05688 0.0
H1301 H 0.2289 0.10234 0.97288 0.0
H1302 H 0.22203 0.14435 0.92739 0.0
H1303 H 0.22486 0.15374 0.01191 0.0
C1304 C 0.23887 0.11006 0.8279 0.0
C1305 C 0.22596 0.10853 0.79521 0.0
C1306 C 0.23855 0.1146 0.87597 0.0
C1307 C 0.22544 0.11789 0.89246 0.0
C1308 C 0.21269 0.11671 0.85978 0.0
C1309 C 0.21288 0.11196 0.81166 0.0
C1310 C 0.2292 0.11872 0.02897 0.0
C1311 C 0.22801 0.13317 0.04064 0.0
C1312 C 0.22778 0.11345 0.98097 0.0
C1313 C 0.22529 0.12264 0.94368 0.0
C1314 C 0.22377 0.13695 0.95552 0.0
C1315 C 0.22541 0.14233 0.00363 0.0
H1316 H 0.86967 0.11753 0.79073 0.0
H1317 H 0.9231 0.14318 0.83654 0.0
H1318 H 0.86119 0.10199 0.86721 0.0
H1319 H 0.915 0.1269 0.91193 0.0
H1320 H 0.89052 0.12077 0.06245 0.0
H1321 H 0.90141 0.12964 0.98105 0.0
H1322 H 0.86047 0.0824 0.92519 0.0
H1323 H 0.84924 0.07387 0.00781 0.0
C1324 C 0.87964 0.1193 0.81664 0.0
C1325 C 0.89696 0.13149 0.80839 0.0
C1326 C 0.87485 0.11036 0.86037 0.0
C1327 C 0.88738 0.11336 0.89623 0.0
C1328 C 0.90495 0.1246 0.88575 0.0
C1329 C 0.90965 0.1338 0.84254 0.0
C1330 C 0.88414 0.11212 0.03282 0.0
C1331 C 0.86934 0.0965 0.04117 0.0
C1332 C 0.89041 0.11715 0.98602 0.0
C1333 C 0.88193 0.1067 0.94625 0.0
C1334 C 0.86726 0.09082 0.95488 0.0
C1335 C 0.86087 0.08587 0.002 0.0
H1336 H 0.93097 0.77677 -0.00062 0.0
H1337 H 0.8798 0.76777 0.03826 0.0
H1338 H 0.92507 0.77995 0.91394 0.0
H1339 H 0.87388 0.77091 0.95358 0.0
H1340 H 0.86225 0.75118 0.79798 0.0
H1341 H 0.87087 0.75151 0.88158 0.0
H1342 H 0.91705 0.79935 0.85757 0.0
H1343 H 0.90844 0.79918 0.77294 0.0
C1344 C 0.91863 0.7758 0.98957 0.0
C1345 C 0.90598 0.7725 0.02505 0.0
C1346 C 0.91528 0.77766 0.94103 0.0
C1347 C 0.89904 0.77567 0.92744 0.0
C1348 C 0.88649 0.77246 0.96319 0.0
C1349 C 0.8899 0.77081 0.01153 0.0
C1350 C 0.87431 0.76177 0.81011 0.0
C1351 C 0.88462 0.7752 0.77866 0.0
C1352 C 0.87917 0.76198 0.85816 0.0
C1353 C 0.89451 0.77553 0.87591 0.0
C1354 C 0.90515 0.78877 0.8445 0.0
C1355 C 0.90018 0.78867 0.79626 0.0
H1356 H 0.11496 0.23694 0.45499 0.0
H1357 H 0.15745 0.22895 0.49757 0.0
H1358 H 0.10548 0.23408 0.5393 0.0
H1359 H 0.14802 0.2261 0.58248 0.0
H1360 H 0.11093 0.25262 0.69592 0.0
H1361 H 0.11958 0.25278 0.6123 0.0
H1362 H 0.12171 0.20679 0.63753 0.0
H1363 H 0.11303 0.20654 0.72191 0.0
C1364 C 0.12202 0.23421 0.48248 0.0
C1365 C 0.13657 0.23264 0.47011 0.0
C1366 C 0.11673 0.23275 0.53062 0.0
C1367 C 0.12604 0.22987 0.56726 0.0
C1368 C 0.14053 0.22813 0.55477 0.0
C1369 C 0.14593 0.22978 0.50649 0.0
C1370 C 0.1133 0.24255 0.68396 0.0
C1371 C 0.11124 0.22954 0.71571 0.0
C1372 C 0.11813 0.2426 0.6359 0.0
C1373 C 0.12116 0.22973 0.61852 0.0
C1374 C 0.11948 0.21688 0.65024 0.0
C1375 C 0.11446 0.21672 0.69839 0.0
H1376 H 0.76834 0.88121 0.43001 0.0
H1377 H 0.77493 0.92822 0.48667 0.0
H1378 H 0.77029 0.87192 0.51102 0.0
H1379 H 0.77759 0.91929 0.56876 0.0
H1380 H 0.75176 0.88417 0.70304 0.0
H1381 H 0.75868 0.89975 0.62665 0.0
H1382 H 0.78665 0.87415 0.57976 0.0
H1383 H 0.77863 0.85787 0.65516 0.0
C1384 C 0.77081 0.88978 0.45998 0.0
C1385 C 0.77192 0.90556 0.45232 0.0
C1386 C 0.77201 0.88451 0.50654 0.0
C1387 C 0.77423 0.89488 0.54674 0.0
C1388 C 0.77574 0.91092 0.53876 0.0
C1389 C 0.77434 0.9161 0.49193 0.0
C1390 C 0.75975 0.88227 0.67669 0.0
C1391 C 0.76468 0.86991 0.68442 0.0
C1392 C 0.7638 0.89122 0.63298 0.0
C1393 C 0.77303 0.88806 0.59655 0.0
C1394 C 0.77914 0.8766 0.6064 0.0
C1395 C 0.77474 0.8674 0.64964 0.0
H1396 H 0.14172 0.89445 0.68229 0.0
H1397 H 0.09208 0.89129 0.71217 0.0
H1398 H 0.13299 0.88633 0.59875 0.0
H1399 H 0.0834 0.88312 0.62796 0.0
H1400 H 0.07083 0.84842 0.48791 0.0
H1401 H 0.07755 0.8579 0.57231 0.0
H1402 H 0.12656 0.89961 0.52622 0.0
H1403 H 0.11981 0.89008 0.44236 0.0
C1404 C 0.12891 0.89195 0.67119 0.0
C1405 C 0.11761 0.89354 0.70406 0.0
C1406 C 0.12398 0.88744 0.62316 0.0
C1407 C 0.10758 0.88424 0.60687 0.0
C1408 C 0.09611 0.8855 0.63971 0.0
C1409 C 0.10111 0.89021 0.68781 0.0
C1410 C 0.08285 0.85979 0.49603 0.0
C1411 C 0.09461 0.86884 0.4589 0.0
C1412 C 0.08668 0.86522 0.54408 0.0
C1413 C 0.10258 0.87946 0.55571 0.0
C1414 C 0.11425 0.88854 0.5183 0.0
C1415 C 0.11033 0.88322 0.47036 0.0
H1416 H 0.80416 0.90458 0.19588 0.0
H1417 H 0.74836 0.88289 0.18886 0.0
H1418 H 0.80405 0.89303 0.11571 0.0
H1419 H 0.74836 0.87145 0.10937 0.0
H1420 H 0.75081 0.83885 0.99237 0.0
H1421 H 0.7547 0.84927 0.0751 0.0
H1422 H 0.79678 0.89731 0.0283 0.0
H1423 H 0.79292 0.88688 0.94504 0.0
C1424 C 0.79189 0.89737 0.17735 0.0
C1425 C 0.77627 0.89469 0.19884 0.0
C1426 C 0.79186 0.89081 0.13146 0.0
C1427 C 0.77618 0.88122 0.10659 0.0
C1428 C 0.76061 0.87857 0.12804 0.0
C1429 C 0.76065 0.88527 0.17346 0.0
C1430 C 0.76113 0.85152 -0.00026 0.0
C1431 C 0.77143 0.86211 0.96203 0.0
C1432 C 0.76328 0.85751 0.04711 0.0
C1433 C 0.77583 0.87418 0.05792 0.0
C1434 C 0.78699 0.8844 0.02094 0.0
C1435 C 0.78477 0.87843 0.97331 0.0
H1436 H 0.1076 0.90926 0.21203 0.0
H1437 H 0.10442 0.86116 0.17975 0.0
H1438 H 0.1162 0.91827 0.12792 0.0
H1439 H 0.11299 0.87018 0.09672 0.0
H1440 H 0.15309 0.93112 0.98862 0.0
H1441 H 0.14229 0.92447 0.07235 0.0
H1442 H 0.10018 0.87672 0.02444 0.0
H1443 H 0.11112 0.8833 0.94159 0.0
C1444 C 0.10869 0.90061 0.18713 0.0
C1445 C 0.1053 0.88448 0.20272 0.0
C1446 C 0.11367 0.90581 0.13912 0.0
C1447 C 0.11512 0.89487 0.10578 0.0
C1448 C 0.11172 0.87879 0.12141 0.0
C1449 C 0.10693 0.87368 0.16921 0.0
C1450 C 0.14134 0.91939 0.99619 0.0
C1451 C 0.13263 0.90789 0.95884 0.0
C1452 C 0.13514 0.91561 0.04385 0.0
C1453 C 0.12043 0.90006 0.05485 0.0
C1454 C 0.11161 0.88874 0.01709 0.0
C1455 C 0.11774 0.89257 0.96966 0.0
H1456 H 0.12083 0.23072 0.95403 0.0
H1457 H 0.07192 0.22615 -0.00083 0.0
H1458 H 0.12696 0.22627 0.03733 0.0
H1459 H 0.07816 0.22199 0.08331 0.0
H1460 H 0.09337 0.20428 0.22608 0.0
H1461 H 0.08422 0.20287 0.1415 0.0
H1462 H 0.13366 0.24618 0.10713 0.0
H1463 H 0.14282 0.24764 0.19052 0.0
C1464 C 0.11118 0.22825 0.98175 0.0
C1465 C 0.09573 0.22831 0.97039 0.0
C1466 C 0.11475 0.2259 0.0294 0.0
C1467 C 0.10307 0.22388 0.06673 0.0
C1468 C 0.08729 0.22334 0.05511 0.0
C1469 C 0.08375 0.22577 0.00724 0.0
C1470 C 0.10228 0.21346 0.20038 0.0
C1471 C 0.11884 0.22607 0.21512 0.0
C1472 C 0.09701 0.21266 0.15212 0.0
C1473 C 0.10831 0.22429 0.11781 0.0
C1474 C 0.12479 0.23686 0.13264 0.0
C1475 C 0.12997 0.23777 0.18064 0.0
H1476 H 0.89177 0.75395 0.30208 0.0
H1477 H 0.88771 0.79859 0.26892 0.0
H1478 H 0.88413 0.75527 0.3857 0.0
H1479 H 0.87993 0.79979 0.35364 0.0
H1480 H 0.8449 0.77657 0.49846 0.0
H1481 H 0.85417 0.78013 0.4132 0.0
H1482 H 0.89929 0.77622 0.45468 0.0
H1483 H 0.88995 0.77252 0.5391 0.0
C1484 C 0.88916 0.76401 0.31247 0.0
C1485 C 0.89041 0.7762 0.27868 0.0
C1486 C 0.88492 0.76483 0.36056 0.0
C1487 C 0.88166 0.77775 0.3761 0.0
C1488 C 0.88243 0.78973 0.34239 0.0
C1489 C 0.88691 0.78904 0.29408 0.0
C1490 C 0.85699 0.7769 0.48914 0.0
C1491 C 0.86698 0.77471 0.52505 0.0
C1492 C 0.86231 0.77897 0.44065 0.0
C1493 C 0.87739 0.77838 0.42755 0.0
C1494 C 0.88757 0.77664 0.46385 0.0
C1495 C 0.88234 0.77471 0.5121 0.0
H1496 H 0.22289 0.07013 0.511 0.0
H1497 H 0.22901 0.11808 0.5577 0.0
H1498 H 0.2189 0.07681 0.42716 0.0
H1499 H 0.2248 0.12468 0.47476 0.0
H1500 H 0.19997 0.09237 0.2869 0.0
H1501 H 0.19927 0.08326 0.37103 0.0
H1502 H 0.24438 0.13109 0.40296 0.0
H1503 H 0.24513 0.14022 0.31992 0.0
C1504 C 0.22295 0.08189 0.50334 0.0
C1505 C 0.22579 0.09342 0.54062 0.0
C1506 C 0.22062 0.08569 0.45562 0.0
C1507 C 0.2216 0.10129 0.4445 0.0
C1508 C 0.2241 0.11262 0.4822 0.0
C1509 C 0.22631 0.10877 0.52969 0.0
C1510 C 0.2097 0.10094 0.31196 0.0
C1511 C 0.22259 0.11704 0.29658 0.0
C1512 C 0.20932 0.09568 0.35998 0.0
C1513 C 0.22168 0.10652 0.39354 0.0
C1514 C 0.23452 0.12256 0.3781 0.0
C1515 C 0.23501 0.12773 0.33029 0.0
H1516 H 0.91761 0.16418 0.50223 0.0
H1517 H 0.90836 0.11481 0.54777 0.0
H1518 H 0.91213 0.15463 0.41856 0.0
H1519 H 0.9028 0.10524 0.46363 0.0
H1520 H 0.87219 0.12286 0.30179 0.0
H1521 H 0.88364 0.13392 0.38152 0.0
H1522 H 0.91506 0.10939 0.37746 0.0
H1523 H 0.90357 0.09819 0.29705 0.0
C1524 C 0.91475 0.15138 0.4943 0.0
C1525 C 0.91318 0.14017 0.5317 0.0
C1526 C 0.91153 0.14591 0.44638 0.0
C1527 C 0.90673 0.12912 0.43477 0.0
C1528 C 0.90648 0.11826 0.47159 0.0
C1529 C 0.90964 0.12373 0.51973 0.0
C1530 C 0.88154 0.11979 0.31769 0.0
C1531 C 0.88691 0.10958 0.293 0.0
C1532 C 0.88823 0.12627 0.36325 0.0
C1533 C 0.90035 0.12263 0.38549 0.0
C1534 C 0.90572 0.11238 0.3611 0.0
C1535 C 0.89917 0.10602 0.31507 0.0
H1536 H 0.91469 0.4388 0.14628 0.0
H1537 H 0.8679 0.44101 0.11326 0.0
H1538 H 0.91307 0.44634 0.22991 0.0
H1539 H 0.8664 0.44864 0.19746 0.0
H1540 H 0.88786 0.48393 0.33719 0.0
H1541 H 0.88528 0.47411 0.25324 0.0
H1542 H 0.89281 0.43278 0.30177 0.0
H1543 H 0.8954 0.44265 0.38525 0.0
C1544 C 0.90408 0.44094 0.15675 0.0
C1545 C 0.89143 0.43931 0.12297 0.0
C1546 C 0.90308 0.44512 0.20481 0.0
C1547 C 0.88954 0.44795 0.22016 0.0
C1548 C 0.87698 0.44654 0.18646 0.0
C1549 C 0.87784 0.44213 0.13837 0.0
C1550 C 0.88856 0.47255 0.32973 0.0
C1551 C 0.89135 0.46375 0.36742 0.0
C1552 C 0.88706 0.46692 0.28193 0.0
C1553 C 0.8889 0.45272 0.27109 0.0
C1554 C 0.89144 0.44381 0.3091 0.0
C1555 C 0.89273 0.44932 0.3568 0.0
H1556 H 0.5666 0.49422 0.19875 0.0
H1557 H 0.55562 0.44842 0.12268 0.0
H1558 H 0.55937 0.47901 0.27471 0.0
H1559 H 0.54856 0.43312 0.19999 0.0
H1560 H 0.51493 0.41182 0.34472 0.0
H1561 H 0.52558 0.42394 0.26408 0.0
H1562 H 0.5703 0.46565 0.32987 0.0
H1563 H 0.55913 0.45405 0.40967 0.0
C1564 C 0.56279 0.48091 0.19813 0.0
C1565 C 0.56172 0.47258 0.15435 0.0
C1566 C 0.55877 0.4722 0.24197 0.0
C1567 C 0.5536 0.45489 0.2435 0.0
C1568 C 0.55251 0.44646 0.19989 0.0
C1569 C 0.55659 0.45524 0.1557 0.0
C1570 C 0.52723 0.42335 0.3415 0.0
C1571 C 0.53648 0.4318 0.38309 0.0
C1572 C 0.53337 0.43025 0.2955 0.0
C1573 C 0.54871 0.44583 0.29066 0.0
C1574 C 0.55833 0.45375 0.33238 0.0
C1575 C 0.55212 0.44696 0.37808 0.0
H1576 H 0.59881 0.10964 0.33453 0.0
H1577 H 0.54775 0.10021 0.37643 0.0
H1578 H 0.59223 0.11253 0.24954 0.0
H1579 H 0.54118 0.10315 0.29224 0.0
H1580 H 0.52841 0.08362 0.13682 0.0
H1581 H 0.53734 0.08415 0.2202 0.0
H1582 H 0.58412 0.13127 0.19355 0.0
H1583 H 0.57522 0.13085 0.10919 0.0
C1584 C 0.58634 0.10853 0.32548 0.0
C1585 C 0.57392 0.10518 0.36168 0.0
C1586 C 0.5826 0.11021 0.27718 0.0
C1587 C 0.5662 0.10804 0.26454 0.0
C1588 C 0.55389 0.10481 0.30104 0.0
C1589 C 0.55768 0.1033 0.34913 0.0
C1590 C 0.54065 0.0941 0.14838 0.0
C1591 C 0.55107 0.10723 0.11623 0.0
C1592 C 0.54569 0.09444 0.19631 0.0
C1593 C 0.56133 0.10782 0.21326 0.0
C1594 C 0.57201 0.1208 0.18117 0.0
C1595 C 0.56687 0.12057 0.13306 0.0
H1596 H 0.82225 0.56115 0.82448 0.0
H1597 H 0.77993 0.56943 0.78207 0.0
H1598 H 0.81279 0.55824 0.90939 0.0
H1599 H 0.77042 0.56651 0.86636 0.0
H1600 H 0.77765 0.53863 0.04863 0.0
H1601 H 0.78636 0.53892 0.96424 0.0
H1602 H 0.78461 0.58513 0.93947 0.0
H1603 H 0.77593 0.58493 0.02307 0.0
C1604 C 0.81076 0.56204 0.83344 0.0
C1605 C 0.80146 0.56499 0.79712 0.0
C1606 C 0.80535 0.56035 0.88171 0.0
C1607 C 0.79089 0.56215 0.89423 0.0
C1608 C 0.78165 0.56514 0.85765 0.0
C1609 C 0.78695 0.56663 0.80953 0.0
C1610 C 0.77917 0.54887 0.02521 0.0
C1611 C 0.77605 0.56173 0.04264 0.0
C1612 C 0.7842 0.54904 0.97706 0.0
C1613 C 0.78601 0.56197 0.94548 0.0
C1614 C 0.78307 0.57489 0.96298 0.0
C1615 C 0.77822 0.57482 0.01101 0.0
H1616 H 0.43704 0.21307 0.7662 0.0
H1617 H 0.44075 0.25935 0.81966 0.0
H1618 H 0.43877 0.20437 0.84832 0.0
H1619 H 0.44287 0.25087 0.90283 0.0
H1620 H 0.41576 0.2146 0.03498 0.0
H1621 H 0.42274 0.22994 0.95806 0.0
H1622 H 0.45553 0.20856 0.91965 0.0
H1623 H 0.4478 0.1927 0.99596 0.0
C1624 C 0.43882 0.22163 0.79571 0.0
C1625 C 0.43925 0.23705 0.78688 0.0
C1626 C 0.43985 0.21668 0.84283 0.0
C1627 C 0.44109 0.22697 0.88232 0.0
C1628 C 0.44185 0.24262 0.87325 0.0
C1629 C 0.44073 0.24753 0.82585 0.0
C1630 C 0.42478 0.21358 0.0104 0.0
C1631 C 0.43129 0.20259 0.0208 0.0
C1632 C 0.42887 0.2224 0.96649 0.0
C1633 C 0.43958 0.22036 0.93242 0.0
C1634 C 0.447 0.21017 0.9447 0.0
C1635 C 0.44272 0.2012 0.98836 0.0
H1636 H 0.78849 0.22656 0.77685 0.0
H1637 H 0.74006 0.18525 0.82707 0.0
H1638 H 0.79587 0.23711 0.85967 0.0
H1639 H 0.74741 0.19574 0.91043 0.0
H1640 H 0.81223 0.23302 0.01604 0.0
H1641 H 0.80311 0.22483 0.93274 0.0
H1642 H 0.75353 0.22131 0.96437 0.0
H1643 H 0.76262 0.22956 0.04831 0.0
C1644 C 0.77926 0.22 0.80564 0.0
C1645 C 0.76352 0.2054 0.79578 0.0
C1646 C 0.78354 0.22591 0.85299 0.0
C1647 C 0.77222 0.21723 0.89144 0.0
C1648 C 0.75628 0.20278 0.88138 0.0
C1649 C 0.75209 0.19676 0.83392 0.0
C1650 C 0.79937 0.23051 0.00544 0.0
C1651 C 0.78816 0.23193 0.03897 0.0
C1652 C 0.79421 0.22595 0.95756 0.0
C1653 C 0.77765 0.22252 0.94209 0.0
C1654 C 0.76635 0.22383 0.97547 0.0
C1655 C 0.77159 0.22861 0.0234 0.0
H1656 H 0.42921 0.23461 0.50198 0.0
H1657 H 0.46557 0.21897 0.55294 0.0
H1658 H 0.43089 0.22497 0.42053 0.0
H1659 H 0.46676 0.20887 0.47129 0.0
H1660 H 0.42939 0.17284 0.32923 0.0
H1661 H 0.4343 0.18355 0.4124 0.0
H1662 H 0.46322 0.23457 0.3584 0.0
H1663 H 0.4588 0.22397 0.27526 0.0
C1664 C 0.43752 0.2291 0.49582 0.0
C1665 C 0.44723 0.22752 0.53384 0.0
C1666 C 0.43853 0.22368 0.44928 0.0
C1667 C 0.449 0.2163 0.44008 0.0
C1668 C 0.45868 0.21462 0.47782 0.0
C1669 C 0.45798 0.2204 0.5243 0.0
C1670 C 0.43724 0.1863 0.33517 0.0
C1671 C 0.44366 0.19758 0.29581 0.0
C1672 C 0.44004 0.19239 0.38264 0.0
C1673 C 0.44906 0.20982 0.3913 0.0
C1674 C 0.45628 0.22106 0.35228 0.0
C1675 C 0.45378 0.21498 0.30486 0.0
H1676 H 0.77625 0.24384 0.54768 0.0
H1677 H 0.771 0.19483 0.51648 0.0
H1678 H 0.78512 0.25251 0.46355 0.0
H1679 H 0.77983 0.20352 0.43328 0.0
H1680 H 0.77936 0.21756 0.27728 0.0
H1681 H 0.76806 0.21093 0.3599 0.0
H1682 H 0.81123 0.25763 0.40979 0.0
H1683 H 0.82243 0.26429 0.32651 0.0
C1684 C 0.77692 0.23491 0.52298 0.0
C1685 C 0.77294 0.21864 0.5389 0.0
C1686 C 0.78206 0.23991 0.47496 0.0
C1687 C 0.78306 0.22865 0.44192 0.0
C1688 C 0.77894 0.21239 0.45778 0.0
C1689 C 0.77402 0.20747 0.50565 0.0
C1690 C 0.78616 0.22658 0.3058 0.0
C1691 C 0.80146 0.24163 0.29569 0.0
C1692 C 0.77982 0.22272 0.35305 0.0
C1693 C 0.78878 0.23376 0.39123 0.0
C1694 C 0.80395 0.249 0.38094 0.0
C1695 C 0.81039 0.25278 0.33354 0.0
H1696 H 0.75812 0.53671 0.55322 0.0
H1697 H 0.80756 0.5801 0.51769 0.0
H1698 H 0.74901 0.53525 0.46859 0.0
H1699 H 0.79844 0.57858 0.43424 0.0
H1700 H 0.73686 0.55855 0.32594 0.0
H1701 H 0.74301 0.55441 0.41018 0.0
H1702 H 0.79178 0.55852 0.36466 0.0
H1703 H 0.78574 0.56295 0.28126 0.0
C1704 C 0.76703 0.5459 0.52752 0.0
C1705 C 0.78358 0.55852 0.54228 0.0
C1706 C 0.76179 0.54506 0.47924 0.0
C1707 C 0.77311 0.55668 0.44492 0.0
C1708 C 0.78957 0.56927 0.45977 0.0
C1709 C 0.79472 0.57022 0.5078 0.0
C1710 C 0.74866 0.55814 0.33413 0.0
C1711 C 0.76066 0.56063 0.29739 0.0
C1712 C 0.75215 0.55572 0.38205 0.0
C1713 C 0.7679 0.55622 0.39381 0.0
C1714 C 0.77959 0.55818 0.35659 0.0
C1715 C 0.77607 0.56052 0.3089 0.0
H1716 H 0.55581 0.13062 0.60657 0.0
H1717 H 0.56055 0.08625 0.63842 0.0
H1718 H 0.54784 0.13141 0.69133 0.0
H1719 H 0.55269 0.08716 0.72208 0.0
H1720 H 0.55745 0.10354 0.87631 0.0
H1721 H 0.56715 0.10755 0.79213 0.0
H1722 H 0.52214 0.11151 0.74966 0.0
H1723 H 0.51253 0.10763 0.8346 0.0
C1724 C 0.55513 0.12105 0.63145 0.0
C1725 C 0.55885 0.10839 0.61567 0.0
C1726 C 0.55055 0.1215 0.6798 0.0
C1727 C 0.54987 0.10946 0.71314 0.0
C1728 C 0.5534 0.09676 0.69723 0.0
C1729 C 0.55776 0.09618 0.64911 0.0
C1730 C 0.54993 0.10578 0.84912 0.0
C1731 C 0.53453 0.10574 0.86169 0.0
C1732 C 0.55537 0.1079 0.80102 0.0
C1733 C 0.54534 0.10978 0.76452 0.0
C1734 C 0.53017 0.11026 0.77727 0.0
C1735 C 0.52466 0.108 0.82557 0.0
H1736 H 0.91 0.47378 0.64576 0.0
H1737 H 0.86613 0.42469 0.61589 0.0
H1738 H 0.91063 0.4652 0.72867 0.0
H1739 H 0.86682 0.41612 0.69992 0.0
H1740 H 0.89299 0.40492 0.83708 0.0
H1741 H 0.88814 0.41121 0.75361 0.0
H1742 H 0.89167 0.45805 0.80218 0.0
H1743 H 0.89667 0.45181 0.88482 0.0
C1744 C 0.90045 0.46114 0.65682 0.0
C1745 C 0.88801 0.44992 0.62402 0.0
C1746 C 0.90075 0.45628 0.70454 0.0
C1747 C 0.88871 0.44004 0.72077 0.0
C1748 C 0.87628 0.42871 0.68819 0.0
C1749 C 0.87586 0.43365 0.64026 0.0
C1750 C 0.8924 0.41638 0.82969 0.0
C1751 C 0.8947 0.42769 0.86717 0.0
C1752 C 0.88957 0.41995 0.78221 0.0
C1753 C 0.88953 0.43511 0.77151 0.0
C1754 C 0.89171 0.44631 0.80933 0.0
C1755 C 0.8944 0.44268 0.85661 0.0
H1756 H 0.5777 0.44496 0.62201 0.0
H1757 H 0.52503 0.42874 0.66765 0.0
H1758 H 0.58775 0.45358 0.70532 0.0
H1759 H 0.53506 0.43686 0.75082 0.0
H1760 H 0.55837 0.43958 0.90127 0.0
H1761 H 0.55237 0.42798 0.81904 0.0
H1762 H 0.58481 0.47787 0.76042 0.0
H1763 H 0.59039 0.48957 0.84236 0.0
C1764 C 0.56827 0.44304 0.64988 0.0
C1765 C 0.5506 0.43631 0.63832 0.0
C1766 C 0.57403 0.44795 0.69738 0.0
C1767 C 0.56213 0.44573 0.73425 0.0
C1768 C 0.54443 0.43851 0.723 0.0
C1769 C 0.53874 0.43401 0.67542 0.0
C1770 C 0.56461 0.44798 0.8709 0.0
C1771 C 0.5748 0.46546 0.87803 0.0
C1772 C 0.56109 0.44136 0.82399 0.0
C1773 C 0.56811 0.45208 0.78369 0.0
C1774 C 0.57935 0.46937 0.79102 0.0
C1775 C 0.58251 0.47604 0.8378 0.0
H1776 H 0.55664 0.77212 0.71663 0.0
H1777 H 0.55603 0.81757 0.67325 0.0
H1778 H 0.55252 0.76271 0.63214 0.0
H1779 H 0.55284 0.80857 0.58825 0.0
H1780 H 0.58016 0.79252 0.4571 0.0
H1781 H 0.5785 0.8008 0.54043 0.0
H1782 H 0.52667 0.75876 0.55387 0.0
H1783 H 0.52801 0.75069 0.46972 0.0
C1784 C 0.55501 0.77978 0.68915 0.0
C1785 C 0.55585 0.79518 0.70142 0.0
C1786 C 0.55285 0.7745 0.64095 0.0
C1787 C 0.55219 0.78488 0.60417 0.0
C1788 C 0.55309 0.80031 0.6163 0.0
C1789 C 0.5549 0.80542 0.66465 0.0
C1790 C 0.56836 0.78513 0.47767 0.0
C1791 C 0.55422 0.77097 0.45703 0.0
C1792 C 0.5674 0.78992 0.52509 0.0
C1793 C 0.55245 0.78041 0.55304 0.0
C1794 C 0.53827 0.76628 0.53265 0.0
C1795 C 0.53906 0.76172 0.48469 0.0
H1796 H 0.2007 0.78548 0.46237 0.0
H1797 H 0.25481 0.8062 0.49811 0.0
H1798 H 0.19259 0.76978 0.53871 0.0
H1799 H 0.24689 0.79005 0.57395 0.0
H1800 H 0.18151 0.74057 0.67723 0.0
H1801 H 0.19188 0.74851 0.59362 0.0
H1802 H 0.23479 0.79508 0.64583 0.0
H1803 H 0.22448 0.78701 0.72832 0.0
C1804 C 0.21082 0.78611 0.48597 0.0
C1805 C 0.22831 0.7969 0.47488 0.0
C1806 C 0.20622 0.7771 0.52955 0.0
C1807 C 0.2191 0.77879 0.56267 0.0
C1808 C 0.23667 0.78869 0.54955 0.0
C1809 C 0.24123 0.79781 0.50615 0.0
C1810 C 0.19338 0.75228 0.67047 0.0
C1811 C 0.20253 0.76298 0.70892 0.0
C1812 C 0.19928 0.75686 0.62283 0.0
C1813 C 0.21424 0.77238 0.61301 0.0
C1814 C 0.2235 0.78285 0.65197 0.0
C1815 C 0.21761 0.77826 0.6993 0.0
H1816 H 0.24262 0.46604 0.44582 0.0
H1817 H 0.1964 0.41806 0.47088 0.0
H1818 H 0.25119 0.46626 0.53042 0.0
H1819 H 0.205 0.41844 0.55456 0.0
H1820 H 0.21381 0.43502 0.71119 0.0
H1821 H 0.20783 0.43768 0.62623 0.0
H1822 H 0.25933 0.44742 0.58749 0.0
H1823 H 0.2653 0.44474 0.67321 0.0
C1824 C 0.23435 0.45553 0.46912 0.0
C1825 C 0.21877 0.44207 0.45155 0.0
C1826 C 0.2393 0.45566 0.51737 0.0
C1827 C 0.22865 0.44245 0.54886 0.0
C1828 C 0.21331 0.42889 0.53109 0.0
C1829 C 0.20846 0.42865 0.483 0.0
C1830 C 0.22397 0.43811 0.68458 0.0
C1831 C 0.24015 0.44016 0.69844 0.0
C1832 C 0.2205 0.43947 0.63608 0.0
C1833 C 0.23313 0.44273 0.60049 0.0
C1834 C 0.24947 0.44507 0.61442 0.0
C1835 C 0.25286 0.44351 0.66313 0.0
H1836 H 0.48831 0.89046 0.16565 0.0
H1837 H 0.44689 0.90011 0.12309 0.0
H1838 H 0.47876 0.88764 0.25053 0.0
H1839 H 0.43729 0.89724 0.20718 0.0
H1840 H 0.44341 0.8695 0.39061 0.0
H1841 H 0.45189 0.86902 0.3063 0.0
H1842 H 0.45233 0.91616 0.27934 0.0
H1843 H 0.44391 0.91675 0.3627 0.0
C1844 C 0.47699 0.89164 0.17453 0.0
C1845 C 0.46799 0.89502 0.13818 0.0
C1846 C 0.47151 0.88999 0.22277 0.0
C1847 C 0.45732 0.89224 0.23521 0.0
C1848 C 0.44832 0.89552 0.19855 0.0
C1849 C 0.45368 0.89699 0.15052 0.0
C1850 C 0.44535 0.87977 0.36668 0.0
C1851 C 0.44293 0.89314 0.38342 0.0
C1852 C 0.45026 0.8795 0.3186 0.0
C1853 C 0.4526 0.89248 0.28643 0.0
C1854 C 0.45036 0.90588 0.30328 0.0
C1855 C 0.44565 0.90625 0.3512 0.0
H1856 H 0.10421 0.58902 0.15298 0.0
H1857 H 0.1065 0.54711 0.08696 0.0
H1858 H 0.10322 0.57697 0.23336 0.0
H1859 H 0.10656 0.53557 0.16656 0.0
H1860 H 0.07494 0.50683 0.2987 0.0
H1861 H 0.08275 0.52191 0.22253 0.0
H1862 H 0.11727 0.56814 0.29676 0.0
H1863 H 0.10917 0.55298 0.37426 0.0
C1864 C 0.10514 0.57756 0.15591 0.0
C1865 C 0.1059 0.56919 0.11411 0.0
C1866 C 0.10467 0.57071 0.20176 0.0
C1867 C 0.10467 0.55523 0.20629 0.0
C1868 C 0.1063 0.54738 0.16432 0.0
C1869 C 0.10659 0.55413 0.11874 0.0
C1870 C 0.08429 0.52019 0.29915 0.0
C1871 C 0.09139 0.52866 0.34286 0.0
C1872 C 0.0889 0.52883 0.25519 0.0
C1873 C 0.10079 0.5462 0.25347 0.0
C1874 C 0.10804 0.55475 0.29699 0.0
C1875 C 0.10343 0.54605 0.3413 0.0
H1876 H 0.40653 0.52039 0.16225 0.0
H1877 H 0.45527 0.56107 0.1114 0.0
H1878 H 0.41435 0.53063 0.24562 0.0
H1879 H 0.46315 0.57136 0.19438 0.0
H1880 H 0.43042 0.56396 0.38387 0.0
H1881 H 0.42122 0.55629 0.29983 0.0
H1882 H 0.47011 0.55843 0.26714 0.0
H1883 H 0.47935 0.56606 0.35077 0.0
C1884 C 0.41873 0.53173 0.16899 0.0
C1885 C 0.43012 0.54025 0.13067 0.0
C1886 C 0.4232 0.5376 0.21647 0.0
C1887 C 0.43936 0.55177 0.22638 0.0
C1888 C 0.45065 0.56037 0.18778 0.0
C1889 C 0.44608 0.55461 0.14036 0.0
C1890 C 0.43923 0.56283 0.35874 0.0
C1891 C 0.45562 0.56559 0.37412 0.0
C1892 C 0.43392 0.55839 0.31073 0.0
C1893 C 0.44498 0.55685 0.27703 0.0
C1894 C 0.4614 0.55973 0.29225 0.0
C1895 C 0.46662 0.56396 0.34029 0.0
H1896 H 0.098 0.57407 0.82921 0.0
H1897 H 0.13431 0.55768 0.875 0.0
H1898 H 0.09985 0.56585 0.74609 0.0
H1899 H 0.13568 0.54898 0.79182 0.0
H1900 H 0.10236 0.51273 0.65585 0.0
H1901 H 0.10844 0.52467 0.73748 0.0
H1902 H 0.12584 0.57438 0.67754 0.0
H1903 H 0.12028 0.56253 0.59558 0.0
C1904 C 0.1064 0.56876 0.82149 0.0
C1905 C 0.11593 0.56643 0.85863 0.0
C1906 C 0.10756 0.5642 0.77393 0.0
C1907 C 0.11797 0.55689 0.76279 0.0
C1908 C 0.12763 0.55468 0.79968 0.0
C1909 C 0.12682 0.55964 0.84712 0.0
C1910 C 0.10798 0.52627 0.66006 0.0
C1911 C 0.11085 0.53673 0.61954 0.0
C1912 C 0.11147 0.53308 0.70666 0.0
C1913 C 0.1175 0.55039 0.71352 0.0
C1914 C 0.12118 0.56098 0.67295 0.0
C1915 C 0.1181 0.55423 0.6262 0.0
H1916 H 0.43507 0.52843 0.85132 0.0
H1917 H 0.44297 0.57845 0.88202 0.0
H1918 H 0.44428 0.5368 0.76828 0.0
H1919 H 0.45219 0.58681 0.79787 0.0
H1920 H 0.48964 0.59685 0.66222 0.0
H1921 H 0.47796 0.59069 0.74507 0.0
H1922 H 0.43377 0.54489 0.69439 0.0
H1923 H 0.44559 0.55099 0.6123 0.0
C1924 C 0.43872 0.54122 0.84037 0.0
C1925 C 0.43832 0.55278 0.87347 0.0
C1926 C 0.44387 0.54596 0.79257 0.0
C1927 C 0.44887 0.56242 0.77659 0.0
C1928 C 0.44845 0.57405 0.8094 0.0
C1929 C 0.44311 0.56924 0.8574 0.0
C1930 C 0.4773 0.58566 0.669 0.0
C1931 C 0.46822 0.57461 0.63109 0.0
C1932 C 0.47058 0.58217 0.71613 0.0
C1933 C 0.45495 0.56733 0.72608 0.0
C1934 C 0.44587 0.55638 0.68782 0.0
C1935 C 0.45252 0.55994 0.64085 0.0
H1936 H 0.4246 0.86978 0.89322 0.0
H1937 H 0.47402 0.9137 0.8611 0.0
H1938 H 0.41585 0.86906 0.80849 0.0
H1939 H 0.46527 0.91287 0.77745 0.0
H1940 H 0.45329 0.89667 0.62321 0.0
H1941 H 0.45899 0.89252 0.70726 0.0
H1942 H 0.41032 0.88912 0.75038 0.0
H1943 H 0.40457 0.89314 0.66559 0.0
C1944 C 0.43356 0.87926 0.86827 0.0
C1945 C 0.45002 0.89178 0.88398 0.0
C1946 C 0.42853 0.87885 0.81994 0.0
C1947 C 0.43997 0.89079 0.78653 0.0
C1948 C 0.45631 0.90334 0.80234 0.0
C1949 C 0.46124 0.90388 0.85045 0.0
C1950 C 0.4436 0.89452 0.65051 0.0
C1951 C 0.42831 0.89476 0.63817 0.0
C1952 C 0.44692 0.89232 0.69854 0.0
C1953 C 0.43511 0.89056 0.7352 0.0
C1954 C 0.41953 0.89028 0.72266 0.0
C1955 C 0.41627 0.89262 0.67444 0.0
H1956 H 0.17897 0.44431 0.17237 0.0
H1957 H 0.2242 0.44041 0.21184 0.0
H1958 H 0.18817 0.44816 0.08703 0.0
H1959 H 0.23348 0.44441 0.12733 0.0
H1960 H 0.22536 0.42184 0.97503 0.0
H1961 H 0.21794 0.42328 0.05875 0.0
H1962 H 0.2139 0.46789 0.0269 0.0
H1963 H 0.22148 0.46659 0.94201 0.0
C1964 C 0.1911 0.44476 0.16279 0.0
C1965 C 0.20114 0.4425 0.19838 0.0
C1966 C 0.19638 0.447 0.11426 0.0
C1967 C 0.21148 0.4465 0.1008 0.0
C1968 C 0.22175 0.44477 0.13681 0.0
C1969 C 0.21655 0.44266 0.18511 0.0
C1970 C 0.22284 0.43195 0.98546 0.0
C1971 C 0.22408 0.44414 0.95168 0.0
C1972 C 0.21872 0.43284 0.03362 0.0
C1973 C 0.21559 0.44582 0.04926 0.0
C1974 C 0.21633 0.45779 0.01557 0.0
C1975 C 0.22068 0.45704 0.96715 0.0
H1976 H 0.53213 0.75529 0.94992 0.0
H1977 H 0.5749 0.80493 0.98087 0.0
H1978 H 0.5327 0.74681 0.0342 0.0
H1979 H 0.57535 0.79647 0.06413 0.0
H1980 H 0.55972 0.73716 0.17326 0.0
H1981 H 0.55501 0.74306 0.08921 0.0
H1982 H 0.55507 0.78846 0.13655 0.0
H1983 H 0.55985 0.7826 0.21983 0.0
C1984 C 0.54158 0.76438 0.9746 0.0
C1985 C 0.55348 0.78078 0.95862 0.0
C1986 C 0.54194 0.7595 0.02264 0.0
C1987 C 0.554 0.77103 0.05559 0.0
C1988 C 0.56578 0.78739 0.03964 0.0
C1989 C 0.56558 0.79219 0.99176 0.0
C1990 C 0.5584 0.74821 0.16547 0.0
C1991 C 0.55967 0.75922 0.20279 0.0
C1992 C 0.55564 0.75154 0.11766 0.0
C1993 C 0.55467 0.76621 0.10651 0.0
C1994 C 0.55582 0.7771 0.14413 0.0
C1995 C 0.5584 0.77368 0.19173 0.0
H1996 H 0.24307 0.7826 0.2151 0.0
H1997 H 0.25027 0.8313 0.16982 0.0
H1998 H 0.23749 0.77295 0.13106 0.0
H1999 H 0.24478 0.82166 0.08623 0.0
H2000 H 0.23781 0.76587 0.96432 0.0
H2001 H 0.2494 0.77735 0.04445 0.0
H2002 H 0.21645 0.80023 0.05008 0.0
H2003 H 0.2049 0.78889 0.97066 0.0
C2004 C 0.24391 0.79138 0.18713 0.0
C2005 C 0.24686 0.80763 0.19917 0.0
C2006 C 0.24073 0.78585 0.13903 0.0
C2007 C 0.24039 0.79647 0.10234 0.0
C2008 C 0.24463 0.81311 0.11397 0.0
C2009 C 0.24787 0.81865 0.16184 0.0
C2010 C 0.23308 0.7734 0.98264 0.0
C2011 C 0.22037 0.77642 0.96109 0.0
C2012 C 0.2397 0.77992 0.0285 0.0
C2013 C 0.23393 0.7898 0.05324 0.0
C2014 C 0.22134 0.79289 0.03153 0.0
C2015 C 0.2146 0.78624 0.98615 0.0
H2016 H 0.18626 0.23102 0.27794 0.0
H2017 H 0.14787 0.18311 0.33776 0.0
H2018 H 0.20138 0.2171 0.24163 0.0
H2019 H 0.16296 0.16946 0.30233 0.0
H2020 H 0.17855 0.14612 0.1836 0.0
H2021 H 0.16643 0.1626 0.21874 0.0
H2022 H 0.21773 0.20127 0.25999 0.0
H2023 H 0.23008 0.18478 0.22404 0.0
C2024 C 0.1812 0.21762 0.284 0.0
C2025 C 0.16571 0.20816 0.31022 0.0
C2026 C 0.18985 0.20966 0.26321 0.0
C2027 C 0.18315 0.19212 0.2683 0.0
C2028 C 0.1682 0.1829 0.29662 0.0
C2029 C 0.15959 0.19079 0.31718 0.0
C2030 C 0.18734 0.15817 0.19987 0.0
C2031 C 0.2053 0.16399 0.20148 0.0
C2032 C 0.18035 0.16759 0.22026 0.0
C2033 C 0.19108 0.18309 0.24299 0.0
C2034 C 0.20913 0.18936 0.24276 0.0
C2035 C 0.21618 0.17989 0.22222 0.0
H2036 H 0.76945 0.95721 0.26645 0.0
H2037 H 0.81939 0.96745 0.32253 0.0
H2038 H 0.7826 0.98645 0.23611 0.0
H2039 H 0.83217 0.9962 0.2932 0.0
H2040 H 0.85488 0.03563 0.17844 0.0
H2041 H 0.83816 0.00713 0.20899 0.0
H2042 H 0.79887 0.0184 0.26173 0.0
H2043 H 0.81575 0.04742 0.23024 0.0
C2044 C 0.78311 0.96569 0.27291 0.0
C2045 C 0.7934 0.95983 0.29622 0.0
C2046 C 0.79061 0.98242 0.25565 0.0
C2047 C 0.80849 0.99351 0.26145 0.0
C2048 C 0.81845 0.98786 0.28708 0.0
C2049 C 0.81106 0.97131 0.30404 0.0
C2050 C 0.84268 0.03218 0.19635 0.0
C2051 C 0.83685 0.04402 0.20249 0.0
C2052 C 0.83308 0.01577 0.21401 0.0
C2053 C 0.81736 0.01059 0.23864 0.0
C2054 C 0.81099 0.02206 0.24299 0.0
C2055 C 0.82067 0.03867 0.22509 0.0
H2056 H 0.95442 0.77209 0.22069 0.0
H2057 H 0.96413 0.82082 0.16711 0.0
H2058 H 0.98336 0.78549 0.25766 0.0
H2059 H 0.99274 0.83394 0.20315 0.0
H2060 H 0.03209 0.85587 0.32066 0.0
H2061 H 0.00326 0.83974 0.28664 0.0
H2062 H 0.01554 0.80145 0.23885 0.0
H2063 H 0.04463 0.81759 0.27378 0.0
C2064 C 0.96275 0.78557 0.21628 0.0
C2065 C 0.95682 0.79538 0.19146 0.0
C2066 C 0.97931 0.79323 0.2374 0.0
C2067 C 0.99019 0.81082 0.2341 0.0
C2068 C 0.98451 0.82043 0.20748 0.0
C2069 C 0.96808 0.81285 0.18656 0.0
C2070 C 0.0287 0.84397 0.30322 0.0
C2071 C 0.04082 0.83817 0.29942 0.0
C2072 C 0.01215 0.83475 0.2835 0.0
C2073 C 0.00723 0.81948 0.2592 0.0
C2074 C 0.01898 0.81318 0.25734 0.0
C2075 C 0.03564 0.82245 0.27727 0.0
H2076 H 0.85119 0.81731 0.68755 0.0
H2077 H 0.81293 0.76493 0.71029 0.0
H2078 H 0.83117 0.82598 0.72015 0.0
H2079 H 0.79301 0.7737 0.7439 0.0
H2080 H 0.75583 0.7961 0.73965 0.0
H2081 H 0.77575 0.78608 0.71627 0.0
H2082 H 0.81706 0.82735 0.79409 0.0
H2083 H 0.79716 0.83772 0.81665 0.0
C2084 C 0.83855 0.80761 0.69976 0.0
C2085 C 0.83369 0.79039 0.69602 0.0
C2086 C 0.82711 0.81263 0.7189 0.0
C2087 C 0.81049 0.80056 0.73489 0.0
C2088 C 0.80564 0.78333 0.73147 0.0
C2089 C 0.81709 0.7783 0.71224 0.0
C2090 C 0.76912 0.80301 0.75224 0.0
C2091 C 0.7749 0.81786 0.77968 0.0
C2092 C 0.78054 0.79716 0.73903 0.0
C2093 C 0.79805 0.80597 0.75294 0.0
C2094 C 0.8037 0.82042 0.78208 0.0
C2095 C 0.79225 0.82629 0.79536 0.0
H2096 H 0.18551 0.04351 0.74484 0.0
H2097 H 0.22893 0.04008 0.68498 0.0
H2098 H 0.17279 0.01464 0.77317 0.0
H2099 H 0.21574 0.01053 0.71277 0.0
H2100 H 0.14238 0.95908 0.75935 0.0
H2101 H 0.15882 0.98797 0.73149 0.0
H2102 H 0.20604 0.99061 0.78539 0.0
H2103 H 0.18936 0.96104 0.81274 0.0
C2104 C 0.19235 0.03655 0.73753 0.0
C2105 C 0.2081 0.04405 0.71181 0.0
C2106 C 0.185 0.01992 0.75372 0.0
C2107 C 0.19301 0.01009 0.74423 0.0
C2108 C 0.20922 0.01775 0.72052 0.0
C2109 C 0.21674 0.03463 0.70452 0.0
C2110 C 0.15627 0.96572 0.76539 0.0
C2111 C 0.16449 0.95779 0.78913 0.0
C2112 C 0.16572 0.98237 0.74947 0.0
C2113 C 0.18371 0.99178 0.75721 0.0
C2114 C 0.19218 0.98371 0.77901 0.0
C2115 C 0.18264 0.96682 0.79478 0.0
H2116 H 0.95817 0.159 0.71164 0.0
H2117 H 0.96456 0.20923 0.72119 0.0
H2118 H 0.98794 0.1696 0.73797 0.0
H2119 H 0.99478 0.2202 0.74443 0.0
H2120 H 0.0413 0.23149 0.84007 0.0
H2121 H 0.01213 0.22167 0.80861 0.0
H2122 H 0.017 0.18455 0.72153 0.0
H2123 H 0.04555 0.19366 0.75574 0.0
C2124 C 0.96613 0.17242 0.71809 0.0
C2125 C 0.95904 0.18327 0.71443 0.0
C2126 C 0.9833 0.17857 0.7331 0.0
C2127 C 0.99395 0.19583 0.74377 0.0
C2128 C 0.98697 0.20679 0.7379 0.0
C2129 C 0.96967 0.20055 0.72399 0.0
C2130 C 0.03605 0.22122 0.81424 0.0
C2131 C 0.04559 0.21322 0.80074 0.0
C2132 C 0.01936 0.21565 0.79575 0.0
C2133 C 0.012 0.20221 0.76238 0.0
C2134 C 0.02189 0.19459 0.74801 0.0
C2135 C 0.03835 0.19988 0.76741 0.0
H2136 H 0.85056 0.56302 0.60313 0.0
H2137 H 0.81256 0.5154 0.66548 0.0
H2138 H 0.86542 0.54891 0.56644 0.0
H2139 H 0.82742 0.50157 0.62975 0.0
H2140 H 0.84242 0.47753 0.5117 0.0
H2141 H 0.8304 0.49412 0.54678 0.0
H2142 H 0.88193 0.53336 0.58394 0.0
H2143 H 0.89415 0.51677 0.54797 0.0
C2144 C 0.84554 0.54965 0.60967 0.0
C2145 C 0.83023 0.54031 0.63672 0.0
C2146 C 0.85405 0.54158 0.58865 0.0
C2147 C 0.84738 0.52406 0.59437 0.0
C2148 C 0.83262 0.51499 0.6235 0.0
C2149 C 0.82415 0.52297 0.64427 0.0
C2150 C 0.85127 0.48972 0.52704 0.0
C2151 C 0.86926 0.49569 0.52749 0.0
C2152 C 0.84435 0.49921 0.54741 0.0
C2153 C 0.85519 0.51491 0.56901 0.0
C2154 C 0.87325 0.5213 0.5676 0.0
C2155 C 0.88023 0.51177 0.54705 0.0
H2156 H 0.48785 0.29868 0.64737 0.0
H2157 H 0.43632 0.28833 0.60601 0.0
H2158 H 0.49974 0.32719 0.61659 0.0
H2159 H 0.44854 0.31735 0.57459 0.0
H2160 H 0.48206 0.37862 0.57052 0.0
H2161 H 0.4658 0.34937 0.60076 0.0
H2162 H 0.50278 0.33797 0.53178 0.0
H2163 H 0.5189 0.36672 0.5023 0.0
C2164 C 0.47898 0.30245 0.63177 0.0
C2165 C 0.46109 0.29101 0.62857 0.0
C2166 C 0.48586 0.31886 0.61398 0.0
C2167 C 0.47513 0.32444 0.59233 0.0
C2168 C 0.45712 0.31337 0.59099 0.0
C2169 C 0.45015 0.29676 0.60887 0.0
C2170 C 0.48653 0.36976 0.56128 0.0
C2171 C 0.50197 0.37514 0.53466 0.0
C2172 C 0.47722 0.35304 0.57855 0.0
C2173 C 0.48323 0.34149 0.56946 0.0
C2174 C 0.49804 0.34667 0.54042 0.0
C2175 C 0.50727 0.3632 0.52339 0.0
H2176 H 0.62305 0.10556 0.55866 0.0
H2177 H 0.63242 0.15384 0.50214 0.0
H2178 H 0.65188 0.11941 0.59634 0.0
H2179 H 0.66092 0.1674 0.53886 0.0
H2180 H 0.71302 0.15208 0.61399 0.0
H2181 H 0.68407 0.13551 0.57864 0.0
H2182 H 0.6712 0.17379 0.62238 0.0
H2183 H 0.69991 0.19036 0.65681 0.0
C2184 C 0.63129 0.11904 0.55372 0.0
C2185 C 0.62529 0.1286 0.52789 0.0
C2186 C 0.64779 0.12695 0.57528 0.0
C2187 C 0.65853 0.14455 0.57139 0.0
C2188 C 0.65279 0.1539 0.54369 0.0
C2189 C 0.63643 0.14606 0.52236 0.0
C2190 C 0.70393 0.15685 0.61653 0.0
C2191 C 0.70891 0.17269 0.63763 0.0
C2192 C 0.68734 0.14734 0.59635 0.0
C2193 C 0.67547 0.1535 0.5969 0.0
C2194 C 0.68019 0.16889 0.62023 0.0
C2195 C 0.69667 0.17837 0.6402 0.0
H2196 H 0.42357 0.12985 0.0724 0.0
H2197 H 0.46539 0.17025 0.15161 0.0
H2198 H 0.44299 0.11937 0.04759 0.0
H2199 H 0.48476 0.15944 0.12756 0.0
H2200 H 0.51852 0.14909 0.02133 0.0
H2201 H 0.49876 0.15819 0.05326 0.0
H2202 H 0.4596 0.10612 0.07455 0.0
H2203 H 0.47929 0.09691 0.04165 0.0
C2204 C 0.43685 0.1364 0.08512 0.0
C2205 C 0.44292 0.15103 0.1137 0.0
C2206 C 0.44798 0.13029 0.07106 0.0
C2207 C 0.46548 0.13862 0.08523 0.0
C2208 C 0.47142 0.15288 0.11531 0.0
C2209 C 0.46027 0.15901 0.12943 0.0
C2210 C 0.50571 0.13952 0.0328 0.0
C2211 C 0.50052 0.12223 0.02874 0.0
C2212 C 0.49441 0.14478 0.05154 0.0
C2213 C 0.47762 0.13291 0.0668 0.0
C2214 C 0.4724 0.11561 0.06274 0.0
C2215 C 0.4837 0.11033 0.04392 0.0
H2216 H 0.90143 0.38059 0.05985 0.0
H2217 H 0.85066 0.36733 0.00353 0.0
H2218 H 0.88939 0.35216 0.09579 0.0
H2219 H 0.83896 0.33944 0.03879 0.0
H2220 H 0.81821 0.30312 0.16175 0.0
H2221 H 0.83453 0.33118 0.12745 0.0
H2222 H 0.87313 0.31912 0.07372 0.0
H2223 H 0.85664 0.29057 0.10868 0.0
C2224 C 0.88784 0.37161 0.05447 0.0
C2225 C 0.87698 0.3764 0.02944 0.0
C2226 C 0.88097 0.35536 0.07501 0.0
C2227 C 0.86317 0.34372 0.0709 0.0
C2228 C 0.85264 0.34825 0.04356 0.0
C2229 C 0.85942 0.3643 0.02321 0.0
C2230 C 0.83023 0.30635 0.14305 0.0
C2231 C 0.83593 0.2944 0.13736 0.0
C2232 C 0.83958 0.32249 0.12327 0.0
C2233 C 0.85492 0.32725 0.09706 0.0
C2234 C 0.8613 0.31576 0.09365 0.0
C2235 C 0.85186 0.29943 0.11362 0.0
H2236 H 0.70706 0.56496 0.16453 0.0
H2237 H 0.70937 0.52474 0.08747 0.0
H2238 H 0.67783 0.5553 0.13382 0.0
H2239 H 0.6807 0.51567 0.05419 0.0
H2240 H 0.62186 0.49155 0.04762 0.0
H2241 H 0.65166 0.50181 0.07333 0.0
H2242 H 0.66055 0.55316 0.06819 0.0
H2243 H 0.63036 0.54266 0.04536 0.0
C2244 C 0.70138 0.55418 0.14049 0.0
C2245 C 0.71042 0.54551 0.12879 0.0
C2246 C 0.68465 0.54869 0.12245 0.0
C2247 C 0.67672 0.53461 0.09139 0.0
C2248 C 0.68607 0.52626 0.07887 0.0
C2249 C 0.7026 0.53152 0.09776 0.0
C2250 C 0.63027 0.50505 0.05141 0.0
C2251 C 0.62377 0.51629 0.0446 0.0
C2252 C 0.64744 0.51099 0.06606 0.0
C2253 C 0.65866 0.52839 0.07326 0.0
C2254 C 0.65227 0.53967 0.06433 0.0
C2255 C 0.63499 0.53367 0.05069 0.0
H2256 H 0.51676 0.89427 0.94147 0.0
H2257 H 0.47782 0.84615 -0.00122 0.0
H2258 H 0.53162 0.88028 0.90395 0.0
H2259 H 0.49265 0.83245 0.96221 0.0
H2260 H 0.5083 0.80929 0.84373 0.0
H2261 H 0.49632 0.82592 0.87866 0.0
H2262 H 0.54765 0.86411 0.9215 0.0
H2263 H 0.55985 0.84745 0.88567 0.0
C2264 C 0.5115 0.88081 0.94664 0.0
C2265 C 0.49595 0.87132 0.97261 0.0
C2266 C 0.52001 0.87281 0.92517 0.0
C2267 C 0.5131 0.85521 0.92931 0.0
C2268 C 0.49805 0.84595 0.9572 0.0
C2269 C 0.48959 0.85386 0.97843 0.0
C2270 C 0.51712 0.82126 0.86028 0.0
C2271 C 0.53504 0.8269 0.86242 0.0
C2272 C 0.51022 0.83078 0.88053 0.0
C2273 C 0.52099 0.84618 0.90371 0.0
C2274 C 0.53901 0.85228 0.90392 0.0
C2275 C 0.54598 0.84272 0.88345 0.0
H2276 H 0.10445 0.62341 0.93135 0.0
H2277 H 0.15345 0.63525 0.99765 0.0
H2278 H 0.11727 0.65267 0.9015 0.0
H2279 H 0.16594 0.66406 0.96856 0.0
H2280 H 0.18965 0.70297 0.85145 0.0
H2281 H 0.17321 0.67463 0.88342 0.0
H2282 H 0.13221 0.68476 0.92717 0.0
H2283 H 0.14884 0.71364 0.89453 0.0
C2284 C 0.11779 0.63227 0.94032 0.0
C2285 C 0.12799 0.62687 0.9662 0.0
C2286 C 0.12511 0.649 0.92327 0.0
C2287 C 0.1427 0.66055 0.93188 0.0
C2288 C 0.15246 0.65537 0.96034 0.0
C2289 C 0.14525 0.6388 0.97713 0.0
C2290 C 0.17714 0.69931 0.86772 0.0
C2291 C 0.17075 0.7108 0.87101 0.0
C2292 C 0.16771 0.68299 0.88621 0.0
C2293 C 0.15157 0.67755 0.90868 0.0
C2294 C 0.14466 0.68865 0.91018 0.0
C2295 C 0.1542 0.70517 0.89158 0.0
H2296 H 0.28838 0.44115 0.89723 0.0
H2297 H 0.29776 0.48938 0.84029 0.0
H2298 H 0.31715 0.45502 0.93507 0.0
H2299 H 0.32625 0.50297 0.87711 0.0
H2300 H 0.36604 0.52614 0.99312 0.0
H2301 H 0.33714 0.50977 0.95947 0.0
H2302 H 0.34902 0.47066 0.91745 0.0
H2303 H 0.37808 0.48699 0.95207 0.0
C2304 C 0.2966 0.45462 0.89227 0.0
C2305 C 0.29064 0.46416 0.86617 0.0
C2306 C 0.31308 0.46256 0.91392 0.0
C2307 C 0.32384 0.48015 0.90986 0.0
C2308 C 0.3181 0.48948 0.8821 0.0
C2309 C 0.30175 0.48163 0.86068 0.0
C2310 C 0.36252 0.51401 0.97707 0.0
C2311 C 0.37451 0.50801 0.9748 0.0
C2312 C 0.34595 0.50464 0.95753 0.0
C2313 C 0.34089 0.48905 0.93492 0.0
C2314 C 0.35253 0.48262 0.93463 0.0
C2315 C 0.36919 0.49201 0.9544 0.0
H2316 H 0.09004 0.45909 0.45553 0.0
H2317 H 0.13231 0.51036 0.45209 0.0
H2318 H 0.10997 0.44877 0.43358 0.0
H2319 H 0.15206 0.50028 0.42718 0.0
H2320 H 0.18739 0.47811 0.41196 0.0
H2321 H 0.16759 0.48681 0.44614 0.0
H2322 H 0.12507 0.44659 0.36813 0.0
H2323 H 0.14484 0.43731 0.33665 0.0
C2324 C 0.10363 0.46814 0.45016 0.0
C2325 C 0.10963 0.48552 0.4556 0.0
C2326 C 0.11506 0.46226 0.43703 0.0
C2327 C 0.1327 0.47364 0.42792 0.0
C2328 C 0.1387 0.49103 0.43461 0.0
C2329 C 0.12735 0.49687 0.44878 0.0
C2330 C 0.17378 0.47111 0.40232 0.0
C2331 C 0.16766 0.45708 0.37147 0.0
C2332 C 0.1624 0.47615 0.4217 0.0
C2333 C 0.14464 0.46754 0.4098 0.0
C2334 C 0.13854 0.4534 0.37904 0.0
C2335 C 0.14989 0.44812 0.36057 0.0
H2336 H 0.52428 0.62279 0.44364 0.0
H2337 H 0.48732 0.63658 0.50119 0.0
H2338 H 0.54104 0.65132 0.40847 0.0
H2339 H 0.50385 0.66456 0.46637 0.0
H2340 H 0.56822 0.71453 0.40012 0.0
H2341 H 0.55733 0.68628 0.43661 0.0
H2342 H 0.50742 0.67015 0.37052 0.0
H2343 H 0.51799 0.69781 0.33437 0.0
C2344 C 0.51992 0.63193 0.44964 0.0
C2345 C 0.50427 0.62726 0.47455 0.0
C2346 C 0.52952 0.64823 0.42958 0.0
C2347 C 0.52356 0.66 0.43418 0.0
C2348 C 0.50859 0.65564 0.4617 0.0
C2349 C 0.49911 0.63954 0.48161 0.0
C2350 C 0.55504 0.70483 0.3927 0.0
C2351 C 0.54391 0.70858 0.36497 0.0
C2352 C 0.54884 0.6887 0.41352 0.0
C2353 C 0.53147 0.67618 0.40689 0.0
C2354 C 0.52079 0.67966 0.3768 0.0
C2355 C 0.5269 0.69558 0.35612 0.0
H2356 H 0.38161 0.90424 0.46204 0.0
H2357 H 0.36887 0.85191 0.47618 0.0
H2358 H 0.3527 0.89532 0.42959 0.0
H2359 H 0.34003 0.8431 0.4446 0.0
H2360 H 0.29494 0.83221 0.34617 0.0
H2361 H 0.32509 0.84293 0.37035 0.0
H2362 H 0.32264 0.8814 0.45665 0.0
H2363 H 0.29273 0.87099 0.43183 0.0
C2364 C 0.37266 0.89085 0.45848 0.0
C2365 C 0.37764 0.87882 0.47181 0.0
C2366 C 0.35607 0.88574 0.43993 0.0
C2367 C 0.34407 0.86849 0.43422 0.0
C2368 C 0.34904 0.85649 0.44764 0.0
C2369 C 0.36558 0.86158 0.46618 0.0
C2370 C 0.30088 0.84309 0.3698 0.0
C2371 C 0.2913 0.85062 0.3873 0.0
C2372 C 0.31814 0.84916 0.38397 0.0
C2373 C 0.32623 0.86292 0.41584 0.0
C2374 C 0.31687 0.87085 0.43181 0.0
C2375 C 0.29963 0.86479 0.41774 0.0
H2376 H 0.30072 0.18486 0.19814 0.0
H2377 H 0.28497 0.13269 0.16683 0.0
H2378 H 0.3311 0.19131 0.19972 0.0
H2379 H 0.31501 0.13906 0.16838 0.0
H2380 H 0.36978 0.15242 0.20808 0.0
H2381 H 0.33986 0.14674 0.21747 0.0
H2382 H 0.35304 0.1936 0.14339 0.0
H2383 H 0.38305 0.19933 0.13547 0.0
C2384 C 0.30374 0.17477 0.19192 0.0
C2385 C 0.29049 0.15831 0.18199 0.0
C2386 C 0.32112 0.17847 0.19246 0.0
C2387 C 0.32554 0.16573 0.18354 0.0
C2388 C 0.31216 0.14918 0.17531 0.0
C2389 C 0.29489 0.14554 0.17429 0.0
C2390 C 0.36613 0.16135 0.19345 0.0
C2391 C 0.37839 0.17595 0.16943 0.0
C2392 C 0.34906 0.15818 0.19896 0.0
C2393 C 0.34397 0.16965 0.18082 0.0
C2394 C 0.35651 0.18457 0.15819 0.0
C2395 C 0.37361 0.18778 0.15312 0.0
H2396 H 0.85567 0.21949 0.1552 0.0
H2397 H 0.80082 0.18507 0.17118 0.0
H2398 H 0.86136 0.19568 0.15878 0.0
H2399 H 0.8063 0.16127 0.17254 0.0
H2400 H 0.8225 0.12289 0.22075 0.0
H2401 H 0.81722 0.14701 0.21985 0.0
H2402 H 0.85886 0.17237 0.11619 0.0
H2403 H 0.86454 0.14877 0.11896 0.0
C2404 C 0.84482 0.20682 0.15876 0.0
C2405 C 0.82783 0.20417 0.16296 0.0
C2406 C 0.84804 0.19312 0.16069 0.0
C2407 C 0.83429 0.17644 0.16617 0.0
C2408 C 0.81727 0.17388 0.16942 0.0
C2409 C 0.8141 0.18756 0.16814 0.0
C2410 C 0.83051 0.13366 0.19795 0.0
C2411 C 0.84396 0.13393 0.17013 0.0
C2412 C 0.82745 0.14748 0.19712 0.0
C2413 C 0.83763 0.16177 0.16794 0.0
C2414 C 0.85097 0.16185 0.13991 0.0
C2415 C 0.85415 0.1482 0.14124 0.0
H2416 H 0.82047 0.61873 0.18196 0.0
H2417 H 0.78345 0.63606 0.15553 0.0
H2418 H 0.84408 0.64774 0.17908 0.0
H2419 H 0.80695 0.66519 0.15485 0.0
H2420 H 0.85326 0.71355 0.105 0.0
H2421 H 0.83029 0.68443 0.10773 0.0
H2422 H 0.85778 0.67383 0.22022 0.0
H2423 H 0.88132 0.70307 0.2157 0.0
C2424 C 0.81737 0.62878 0.17587 0.0
C2425 C 0.8001 0.62511 0.16872 0.0
C2426 C 0.83092 0.64545 0.17462 0.0
C2427 C 0.82752 0.65891 0.16673 0.0
C2428 C 0.81017 0.65518 0.16007 0.0
C2429 C 0.79664 0.63848 0.16069 0.0
C2430 C 0.85445 0.70501 0.13033 0.0
C2431 C 0.8691 0.71062 0.16026 0.0
C2432 C 0.84115 0.68828 0.13218 0.0
C2433 C 0.84199 0.6767 0.16455 0.0
C2434 C 0.85675 0.6823 0.19441 0.0
C2435 C 0.87022 0.69907 0.19205 0.0
H2436 H 0.15735 0.36916 0.37596 0.0
H2437 H 0.19935 0.38295 0.27426 0.0
H2438 H 0.1522 0.34019 0.37675 0.0
H2439 H 0.19375 0.35386 0.27318 0.0
H2440 H 0.18962 0.3032 0.31881 0.0
H2441 H 0.19585 0.33263 0.31776 0.0
H2442 H 0.14092 0.31584 0.329 0.0
H2443 H 0.13492 0.28674 0.33224 0.0
C2444 C 0.16538 0.36596 0.35347 0.0
C2445 C 0.17873 0.37832 0.32505 0.0
C2446 C 0.16238 0.34931 0.35361 0.0
C2447 C 0.17248 0.34457 0.32475 0.0
C2448 C 0.18586 0.35703 0.2964 0.0
C2449 C 0.189 0.37371 0.29677 0.0
C2450 C 0.17894 0.30588 0.32075 0.0
C2451 C 0.16182 0.2927 0.32596 0.0
C2452 C 0.18246 0.32273 0.32004 0.0
C2453 C 0.1689 0.3267 0.32389 0.0
C2454 C 0.15175 0.31338 0.32736 0.0
C2455 C 0.14829 0.29664 0.32875 0.0
H2456 H 0.61626 0.81531 0.28278 0.0
H2457 H 0.63401 0.78963 0.38039 0.0
H2458 H 0.64545 0.83918 0.27829 0.0
H2459 H 0.6632 0.8139 0.37781 0.0
H2460 H 0.71679 0.85116 0.32442 0.0
H2461 H 0.68742 0.82765 0.32712 0.0
H2462 H 0.66732 0.86263 0.31895 0.0
H2463 H 0.69698 0.88622 0.31403 0.0
C2464 C 0.62639 0.81485 0.3038 0.0
C2465 C 0.62283 0.80053 0.33184 0.0
C2466 C 0.64316 0.82864 0.30147 0.0
C2467 C 0.65682 0.82858 0.32755 0.0
C2468 C 0.65314 0.81433 0.35636 0.0
C2469 C 0.63637 0.80042 0.3582 0.0
C2470 C 0.7061 0.85385 0.32287 0.0
C2471 C 0.7092 0.87056 0.31905 0.0
C2472 C 0.6892 0.84033 0.32494 0.0
C2473 C 0.67486 0.84313 0.32396 0.0
C2474 C 0.67798 0.8599 0.31933 0.0
C2475 C 0.69498 0.87347 0.31658 0.0
H2476 H 0.21695 0.84941 0.29512 0.0
H2477 H 0.18291 0.80157 0.36268 0.0
H2478 H 0.19272 0.85508 0.28591 0.0
H2479 H 0.15862 0.80732 0.35518 0.0
H2480 H 0.15164 0.86862 0.33568 0.0
H2481 H 0.17525 0.8622 0.33468 0.0
H2482 H 0.13923 0.81023 0.29966 0.0
H2483 H 0.11533 0.81673 0.3009 0.0
C2484 C 0.20427 0.84026 0.30873 0.0
C2485 C 0.20181 0.82538 0.33125 0.0
C2486 C 0.19038 0.84344 0.30336 0.0
C2487 C 0.1737 0.83173 0.32022 0.0
C2488 C 0.17121 0.81655 0.34137 0.0
C2489 C 0.18511 0.81333 0.34623 0.0
C2490 C 0.14871 0.85581 0.32756 0.0
C2491 C 0.13159 0.84314 0.3187 0.0
C2492 C 0.16232 0.85214 0.32683 0.0
C2493 C 0.15918 0.83566 0.31765 0.0
C2494 C 0.14207 0.82301 0.30767 0.0
C2495 C 0.1284 0.82674 0.308 0.0
H2496 H 0.71305 0.86461 0.79333 0.0
H2497 H 0.70051 0.81762 0.86438 0.0
H2498 H 0.68271 0.858 0.7995 0.0
H2499 H 0.67025 0.81105 0.87189 0.0
H2500 H 0.62997 0.84792 0.85573 0.0
H2501 H 0.6605 0.85495 0.85623 0.0
H2502 H 0.64541 0.80313 0.82189 0.0
H2503 H 0.61516 0.79616 0.82147 0.0
C2504 C 0.7037 0.85284 0.81016 0.0
C2505 C 0.7088 0.84128 0.82666 0.0
C2506 C 0.6864 0.84912 0.81422 0.0
C2507 C 0.67399 0.83394 0.83597 0.0
C2508 C 0.67936 0.82268 0.85405 0.0
C2509 C 0.69663 0.82637 0.84962 0.0
C2510 C 0.63323 0.83805 0.84854 0.0
C2511 C 0.62019 0.82153 0.83827 0.0
C2512 C 0.65071 0.84209 0.84846 0.0
C2513 C 0.65545 0.82964 0.8385 0.0
C2514 C 0.6423 0.81304 0.82964 0.0
C2515 C 0.62491 0.80905 0.82928 0.0
H2516 H 0.14916 0.78466 0.85157 0.0
H2517 H 0.20377 0.81949 0.83265 0.0
H2518 H 0.14307 0.8082 0.8479 0.0
H2519 H 0.19793 0.84305 0.83134 0.0
H2520 H 0.18089 0.88073 0.7827 0.0
H2521 H 0.18659 0.8569 0.78442 0.0
H2522 H 0.14533 0.83158 0.88918 0.0
H2523 H 0.1392 0.8549 0.88546 0.0
C2524 C 0.15988 0.79737 0.84738 0.0
C2525 C 0.17691 0.8002 0.8423 0.0
C2526 C 0.15643 0.81093 0.84541 0.0
C2527 C 0.17 0.82766 0.83908 0.0
C2528 C 0.18707 0.83041 0.83508 0.0
C2529 C 0.19046 0.81687 0.83633 0.0
C2530 C 0.17306 0.87004 0.80595 0.0
C2531 C 0.15957 0.86968 0.83373 0.0
C2532 C 0.17637 0.85638 0.80725 0.0
C2533 C 0.16641 0.84218 0.83696 0.0
C2534 C 0.15305 0.84202 0.86505 0.0
C2535 C 0.14961 0.85551 0.86319 0.0
H2536 H 0.21587 0.3712 0.89019 0.0
H2537 H 0.18801 0.38121 0.7778 0.0
H2538 H 0.19247 0.34187 0.89462 0.0
H2539 H 0.1652 0.35203 0.78051 0.0
H2540 H 0.11835 0.30372 0.82815 0.0
H2541 H 0.14178 0.33288 0.82762 0.0
H2542 H 0.17898 0.31565 0.85368 0.0
H2543 H 0.15544 0.2866 0.85634 0.0
C2544 C 0.20485 0.36709 0.86616 0.0
C2545 C 0.20373 0.37852 0.83394 0.0
C2546 C 0.19146 0.35027 0.86847 0.0
C2547 C 0.17679 0.34453 0.83817 0.0
C2548 C 0.17599 0.356 0.80532 0.0
C2549 C 0.18919 0.37276 0.80349 0.0
C2550 C 0.13154 0.30619 0.83374 0.0
C2551 C 0.13504 0.29287 0.84217 0.0
C2552 C 0.14502 0.32291 0.83321 0.0
C2553 C 0.16238 0.32671 0.84039 0.0
C2554 C 0.16582 0.31331 0.84878 0.0
C2555 C 0.15231 0.29661 0.8499 0.0
H2556 H 0.82317 0.702 0.70392 0.0
H2557 H 0.86469 0.71535 0.60084 0.0
H2558 H 0.8178 0.67296 0.70478 0.0
H2559 H 0.85887 0.6862 0.59985 0.0
H2560 H 0.85462 0.63549 0.64528 0.0
H2561 H 0.86101 0.66498 0.64428 0.0
H2562 H 0.8062 0.64849 0.65744 0.0
H2563 H 0.80004 0.61934 0.6606 0.0
C2564 C 0.83105 0.69869 0.68114 0.0
C2565 C 0.84433 0.71095 0.65233 0.0
C2566 C 0.82792 0.682 0.68132 0.0
C2567 C 0.83783 0.67712 0.65212 0.0
C2568 C 0.85114 0.68947 0.62335 0.0
C2569 C 0.8544 0.70619 0.62367 0.0
C2570 C 0.84399 0.63825 0.64767 0.0
C2571 C 0.82687 0.62515 0.65337 0.0
C2572 C 0.84761 0.65513 0.64698 0.0
C2573 C 0.83414 0.6592 0.65135 0.0
C2574 C 0.81697 0.64595 0.65536 0.0
C2575 C 0.81341 0.62918 0.65673 0.0
H2576 H 0.28524 0.14659 0.61194 0.0
H2577 H 0.30207 0.1209 0.71237 0.0
H2578 H 0.31467 0.16982 0.60595 0.0
H2579 H 0.33163 0.14465 0.70828 0.0
H2580 H 0.3857 0.18188 0.65625 0.0
H2581 H 0.35628 0.15833 0.65882 0.0
H2582 H 0.33622 0.19325 0.64633 0.0
H2583 H 0.36584 0.21679 0.64151 0.0
C2584 C 0.29524 0.14598 0.63322 0.0
C2585 C 0.2913 0.13188 0.66272 0.0
C2586 C 0.31216 0.15942 0.63003 0.0
C2587 C 0.32565 0.15928 0.65676 0.0
C2588 C 0.32168 0.14515 0.68649 0.0
C2589 C 0.30472 0.13154 0.68916 0.0
C2590 C 0.37499 0.18452 0.65361 0.0
C2591 C 0.37808 0.2012 0.64857 0.0
C2592 C 0.35807 0.17099 0.65562 0.0
C2593 C 0.34374 0.17377 0.65331 0.0
C2594 C 0.34687 0.19051 0.64758 0.0
C2595 C 0.36386 0.20406 0.64489 0.0
H2596 H 0.851 0.13663 0.7 0.0
H2597 H 0.88463 0.18371 0.62815 0.0
H2598 H 0.82693 0.14276 0.69473 0.0
H2599 H 0.86058 0.1898 0.62144 0.0
H2600 H 0.81999 0.20394 0.67314 0.0
H2601 H 0.84358 0.19744 0.67168 0.0
H2602 H 0.80726 0.14533 0.6391 0.0
H2603 H 0.78343 0.1519 0.64074 0.0
C2604 C 0.85317 0.14833 0.6832 0.0
C2605 C 0.8697 0.16005 0.66621 0.0
C2606 C 0.83939 0.15176 0.67964 0.0
C2607 C 0.84181 0.16682 0.65785 0.0
C2608 C 0.85832 0.17825 0.63932 0.0
C2609 C 0.87211 0.17485 0.64329 0.0
C2610 C 0.817 0.19109 0.66549 0.0
C2611 C 0.79982 0.1784 0.65737 0.0
C2612 C 0.83058 0.18737 0.66451 0.0
C2613 C 0.82734 0.17082 0.65586 0.0
C2614 C 0.81017 0.15816 0.64671 0.0
C2615 C 0.79654 0.16193 0.64728 0.0
H2616 H 0.04643 0.5296 0.45687 0.0
H2617 H 0.03427 0.48623 0.54663 0.0
H2618 H 0.01642 0.52395 0.46334 0.0
H2619 H 0.00419 0.48051 0.55367 0.0
H2620 H 0.94894 0.46459 0.49713 0.0
H2621 H 0.97905 0.47099 0.50014 0.0
H2622 H 0.9952 0.52376 0.52185 0.0
H2623 H 0.96482 0.51732 0.51906 0.0
C2624 C 0.03723 0.5188 0.47781 0.0
C2625 C 0.04231 0.5079 0.49957 0.0
C2626 C 0.02014 0.51566 0.48198 0.0
C2627 C 0.00791 0.50174 0.50884 0.0
C2628 C 0.01324 0.49118 0.53209 0.0
C2629 C 0.03035 0.49434 0.52781 0.0
C2630 C 0.95889 0.47756 0.50282 0.0
C2631 C 0.95454 0.49049 0.50752 0.0
C2632 C 0.97616 0.4812 0.50475 0.0
C2633 C 0.98952 0.49787 0.51079 0.0
C2634 C 0.98518 0.5108 0.51655 0.0
C2635 C 0.96781 0.50712 0.51523 0.0
H2636 H 0.52211 0.55154 0.49722 0.0
H2637 H 0.46707 0.51718 0.50712 0.0
H2638 H 0.52773 0.52781 0.50436 0.0
H2639 H 0.47251 0.49335 0.51176 0.0
H2640 H 0.53202 0.48136 0.46906 0.0
H2641 H 0.52624 0.5048 0.464 0.0
H2642 H 0.48247 0.47871 0.56073 0.0
H2643 H 0.48786 0.45463 0.56367 0.0
C2644 C 0.51121 0.53888 0.50009 0.0
C2645 C 0.49417 0.53625 0.50151 0.0
C2646 C 0.51438 0.5252 0.50407 0.0
C2647 C 0.50058 0.50851 0.50875 0.0
C2648 C 0.48352 0.50595 0.5093 0.0
C2649 C 0.48037 0.51964 0.50608 0.0
C2650 C 0.52117 0.48059 0.48948 0.0
C2651 C 0.51042 0.46611 0.51695 0.0
C2652 C 0.51792 0.49417 0.48682 0.0
C2653 C 0.50395 0.49386 0.51216 0.0
C2654 C 0.49322 0.47938 0.54007 0.0
C2655 C 0.49635 0.4656 0.54214 0.0
H2656 H 0.52256 0.04603 0.43944 0.0
H2657 H 0.55003 0.03584 0.55253 0.0
H2658 H 0.49953 0.01693 0.44233 0.0
H2659 H 0.52642 0.00661 0.55722 0.0
H2660 H 0.48873 0.95139 0.52096 0.0
H2661 H 0.51259 0.98028 0.51725 0.0
H2662 H 0.47598 0.99813 0.48943 0.0
H2663 H 0.45225 0.96912 0.49094 0.0
C2664 C 0.5236 0.03755 0.4653 0.0
C2665 C 0.53809 0.04324 0.49592 0.0
C2666 C 0.51028 0.02084 0.46724 0.0
C2667 C 0.51091 0.00936 0.50042 0.0
C2668 C 0.52554 0.01502 0.53082 0.0
C2669 C 0.53906 0.03177 0.52836 0.0
C2670 C 0.4858 0.9615 0.51388 0.0
C2671 C 0.46861 0.95798 0.50597 0.0
C2672 C 0.49949 0.97811 0.51215 0.0
C2673 C 0.49631 0.99164 0.503 0.0
C2674 C 0.47904 0.98806 0.49559 0.0
C2675 C 0.46537 0.97142 0.49669 0.0
H2676 H 0.53784 0.0488 0.97872 0.0
H2677 H 0.48373 0.03155 0.00883 0.0
H2678 H 0.53253 0.01982 0.98237 0.0
H2679 H 0.47816 0.00244 0.01025 0.0
H2680 H 0.47631 0.95429 0.06008 0.0
H2681 H 0.48264 0.98346 0.05719 0.0
H2682 H 0.51984 0.9935 0.94246 0.0
H2683 H 0.51397 0.9642 0.94717 0.0
C2684 C 0.52476 0.03877 0.98579 0.0
C2685 C 0.51121 0.04245 0.99376 0.0
C2686 C 0.52168 0.02211 0.98749 0.0
C2687 C 0.50491 0.00869 0.99664 0.0
C2688 C 0.49133 0.01243 0.0041 0.0
C2689 C 0.49447 0.02912 0.00305 0.0
C2690 C 0.48588 0.96272 0.03425 0.0
C2691 C 0.49461 0.95693 0.00369 0.0
C2692 C 0.48942 0.97947 0.03231 0.0
C2693 C 0.50161 0.9909 -0.00081 0.0
C2694 C 0.5105 0.98514 0.96883 0.0
C2695 C 0.50711 0.96834 0.9713 0.0
H2696 H 0.95232 0.4818 0.94563 0.0
H2697 H 0.97036 0.45532 0.03915 0.0
H2698 H 0.98162 0.5052 0.93885 0.0
H2699 H 0.99982 0.47923 0.03427 0.0
H2700 H 0.05325 0.51687 0.97876 0.0
H2701 H 0.02385 0.4933 0.98269 0.0
H2702 H 0.00375 0.52832 0.97886 0.0
H2703 H 0.03331 0.55189 0.97273 0.0
C2704 C 0.96255 0.48106 0.96531 0.0
C2705 C 0.95898 0.46666 0.993 0.0
C2706 C 0.97942 0.4946 0.96164 0.0
C2707 C 0.99323 0.49427 0.98605 0.0
C2708 C 0.98962 0.47988 0.01421 0.0
C2709 C 0.9727 0.46619 0.01739 0.0
C2710 C 0.04253 0.51953 0.97824 0.0
C2711 C 0.0456 0.53625 0.97528 0.0
C2712 C 0.02563 0.50598 0.98107 0.0
C2713 C 0.01129 0.50878 0.98167 0.0
C2714 C 0.01439 0.52557 0.97789 0.0
C2715 C 0.03135 0.53913 0.97441 0.0
H2716 H 0.51652 0.47214 0.03838 0.0
H2717 H 0.54827 0.51556 0.94942 0.0
H2718 H 0.49233 0.47801 0.03124 0.0
H2719 H 0.52405 0.52143 0.94135 0.0
H2720 H 0.44772 0.48532 0.97796 0.0
H2721 H 0.47137 0.47849 0.9743 0.0
H2722 H 0.50864 0.53125 0.993 0.0
H2723 H 0.48523 0.53802 0.99678 0.0
C2724 C 0.51825 0.48298 0.01738 0.0
C2725 C 0.53434 0.49385 0.99613 0.0
C2726 C 0.50439 0.48624 0.01279 0.0
C2727 C 0.50628 0.50024 0.98591 0.0
C2728 C 0.52226 0.51072 0.963 0.0
C2729 C 0.53614 0.50747 0.96782 0.0
C2730 C 0.46099 0.49543 0.98091 0.0
C2731 C 0.46463 0.51217 0.98809 0.0
C2732 C 0.47452 0.49153 0.97912 0.0
C2733 C 0.4919 0.50433 0.98391 0.0
C2734 C 0.49546 0.52111 0.98921 0.0
C2735 C 0.482 0.52497 0.99158 0.0
loop_
_geom_bond_atom_site_label_1
_geom_bond_atom_site_label_2
_geom_bond_distance
_geom_bond_site_symmetry_2
_ccdc_geom_bond_type
Mn0 O5 2.095 . S
Mn0 O15 2.162 . S
Mn0 O16 2.297 . S
Mn0 O24 2.385 . S
Mn0 O25 2.209 . S
Mn0 O26 2.094 . S
Mn1 O6 2.121 . S
Mn1 N8 2.257 . S
Mn1 N17 2.282 . S
Mn1 O25 2.215 . S
Mn1 O27 2.117 . S
C2 O24 1.234 . S
C2 O25 1.283 . S
C3 O15 1.281 . S
C3 O16 1.236 . S
C4 O26 1.240 . S
C4 O27 1.264 . S
O5 Mn0 2.095 . S
O5 C14 1.250 . S
O6 Mn1 2.121 . S
O6 C14 1.258 . S
C7 N8 1.326 . S
C7 C11 1.460 . S
C7 H13 0.929 . S
N8 Mn1 2.257 . S
N8 C7 1.326 . S
N8 C12 1.362 . S
C9 C10 1.258 . S
C9 C12 1.431 . S
C9 C29 1.449 . S
C10 C9 1.258 . S
C10 C11 1.477 . S
C10 H30 0.931 . S
C11 C7 1.460 . S
C11 C10 1.477 . S
C11 H31 0.930 . S
C12 N8 1.362 . S
C12 C9 1.431 . S
C12 C22 1.476 . S
H13 C7 0.929 . S
C14 O5 1.250 . S
C14 O6 1.258 . S
O15 Mn0 2.162 . S
O15 C3 1.281 . S
O16 Mn0 2.297 . S
O16 C3 1.236 . S
N17 Mn1 2.282 . S
N17 C18 1.328 . S
N17 C22 1.318 . S
C18 N17 1.328 . S
C18 C19 1.457 . S
C18 H23 0.929 . S
C19 C18 1.457 . S
C19 C20 1.291 . S
C19 H32 0.931 . S
C20 C19 1.291 . S
C20 C21 1.373 . S
C20 H33 0.929 . S
C21 C20 1.373 . S
C21 C22 1.396 . S
C21 C28 1.403 . S
C22 C12 1.476 . S
C22 N17 1.318 . S
C22 C21 1.396 . S
H23 C18 0.929 . S
O24 Mn0 2.385 . S
O24 C2 1.234 . S
O25 Mn0 2.209 . S
O25 Mn1 2.215 . S
O25 C2 1.283 . S
O26 Mn0 2.094 . S
O26 C4 1.240 . S
O27 Mn1 2.117 . S
O27 C4 1.264 . S
C28 C21 1.403 . S
C28 C29 1.399 . S
C28 H34 0.929 . S
C29 C9 1.449 . S
C29 C28 1.399 . S
C29 H35 0.930 . S
H30 C10 0.931 . S
H31 C11 0.930 . S
H32 C19 0.931 . S
H33 C20 0.929 . S
H34 C28 0.929 . S
H35 C29 0.930 . S
Mn36 O41 2.095 . S
Mn36 O51 2.162 . S
Mn36 O52 2.297 . S
Mn36 O60 2.385 . S
Mn36 O61 2.209 . S
Mn36 O62 2.094 . S
Mn37 O42 2.121 . S
Mn37 N44 2.257 . S
Mn37 N53 2.282 . S
Mn37 O61 2.215 . S
Mn37 O63 2.117 . S
C38 O60 1.234 . S
C38 O61 1.283 . S
C39 O51 1.281 . S
C39 O52 1.236 . S
C40 O62 1.240 . S
C40 O63 1.264 . S
O41 Mn36 2.095 . S
O41 C50 1.250 . S
O42 Mn37 2.121 . S
O42 C50 1.258 . S
C43 N44 1.326 . S
C43 C47 1.460 . S
C43 H49 0.929 . S
N44 Mn37 2.257 . S
N44 C43 1.326 . S
N44 C48 1.362 . S
C45 C46 1.258 . S
C45 C48 1.431 . S
C45 C65 1.449 . S
C46 C45 1.258 . S
C46 C47 1.477 . S
C46 H66 0.931 . S
C47 C43 1.460 . S
C47 C46 1.477 . S
C47 H67 0.930 . S
C48 N44 1.362 . S
C48 C45 1.431 . S
C48 C58 1.476 . S
H49 C43 0.929 . S
C50 O41 1.250 . S
C50 O42 1.258 . S
O51 Mn36 2.162 . S
O51 C39 1.281 . S
O52 Mn36 2.297 . S
O52 C39 1.236 . S
N53 Mn37 2.282 . S
N53 C54 1.328 . S
N53 C58 1.318 . S
C54 N53 1.328 . S
C54 C55 1.457 . S
C54 H59 0.929 . S
C55 C54 1.457 . S
C55 C56 1.291 . S
C55 H68 0.931 . S
C56 C55 1.291 . S
C56 C57 1.373 . S
C56 H69 0.929 . S
C57 C56 1.373 . S
C57 C58 1.396 . S
C57 C64 1.403 . S
C58 C48 1.476 . S
C58 N53 1.318 . S
C58 C57 1.396 . S
H59 C54 0.929 . S
O60 Mn36 2.385 . S
O60 C38 1.234 . S
O61 Mn36 2.209 . S
O61 Mn37 2.215 . S
O61 C38 1.283 . S
O62 Mn36 2.094 . S
O62 C40 1.240 . S
O63 Mn37 2.117 . S
O63 C40 1.264 . S
C64 C57 1.403 . S
C64 C65 1.399 . S
C64 H70 0.929 . S
C65 C45 1.449 . S
C65 C64 1.399 . S
C65 H71 0.930 . S
H66 C46 0.931 . S
H67 C47 0.930 . S
H68 C55 0.931 . S
H69 C56 0.929 . S
H70 C64 0.929 . S
H71 C65 0.930 . S
Mn72 O77 2.095 . S
Mn72 O87 2.162 . S
Mn72 O88 2.297 . S
Mn72 O96 2.385 . S
Mn72 O97 2.209 . S
Mn72 O98 2.094 . S
Mn73 O78 2.121 . S
Mn73 N80 2.257 . S
Mn73 N89 2.282 . S
Mn73 O97 2.215 . S
Mn73 O99 2.117 . S
C74 O96 1.234 . S
C74 O97 1.283 . S
C75 O87 1.281 . S
C75 O88 1.236 . S
C76 O98 1.240 . S
C76 O99 1.264 . S
O77 Mn72 2.095 . S
O77 C86 1.250 . S
O78 Mn73 2.121 . S
O78 C86 1.258 . S
C79 N80 1.326 . S
C79 C83 1.460 . S
C79 H85 0.929 . S
N80 Mn73 2.257 . S
N80 C79 1.326 . S
N80 C84 1.362 . S
C81 C82 1.258 . S
C81 C84 1.431 . S
C81 C101 1.449 . S
C82 C81 1.258 . S
C82 C83 1.477 . S
C82 H102 0.931 . S
C83 C79 1.460 . S
C83 C82 1.477 . S
C83 H103 0.930 . S
C84 N80 1.362 . S
C84 C81 1.431 . S
C84 C94 1.476 . S
H85 C79 0.929 . S
C86 O77 1.250 . S
C86 O78 1.258 . S
O87 Mn72 2.162 . S
O87 C75 1.281 . S
O88 Mn72 2.297 . S
O88 C75 1.236 . S
N89 Mn73 2.282 . S
N89 C90 1.328 . S
N89 C94 1.318 . S
C90 N89 1.328 . S
C90 C91 1.457 . S
C90 H95 0.929 . S
C91 C90 1.457 . S
C91 C92 1.291 . S
C91 H104 0.931 . S
C92 C91 1.291 . S
C92 C93 1.373 . S
C92 H105 0.929 . S
C93 C92 1.373 . S
C93 C94 1.396 . S
C93 C100 1.403 . S
C94 C84 1.476 . S
C94 N89 1.318 . S
C94 C93 1.396 . S
H95 C90 0.929 . S
O96 Mn72 2.385 . S
O96 C74 1.234 . S
O97 Mn72 2.209 . S
O97 Mn73 2.215 . S
O97 C74 1.283 . S
O98 Mn72 2.094 . S
O98 C76 1.240 . S
O99 Mn73 2.117 . S
O99 C76 1.264 . S
C100 C93 1.403 . S
C100 C101 1.399 . S
C100 H106 0.929 . S
C101 C81 1.449 . S
C101 C100 1.399 . S
C101 H107 0.930 . S
H102 C82 0.931 . S
H103 C83 0.930 . S
H104 C91 0.931 . S
H105 C92 0.929 . S
H106 C100 0.929 . S
H107 C101 0.930 . S
Mn108 O113 2.095 . S
Mn108 O123 2.162 . S
Mn108 O124 2.297 . S
Mn108 O132 2.385 . S
Mn108 O133 2.209 . S
Mn108 O134 2.094 . S
Mn109 O114 2.121 . S
Mn109 N116 2.257 . S
Mn109 N125 2.282 . S
Mn109 O133 2.215 . S
Mn109 O135 2.117 . S
C110 O132 1.234 . S
C110 O133 1.283 . S
C111 O123 1.281 . S
C111 O124 1.236 . S
C112 O134 1.240 . S
C112 O135 1.264 . S
O113 Mn108 2.095 . S
O113 C122 1.250 . S
O114 Mn109 2.121 . S
O114 C122 1.258 . S
C115 N116 1.326 . S
C115 C119 1.460 . S
C115 H121 0.929 . S
N116 Mn109 2.257 . S
N116 C115 1.326 . S
N116 C120 1.362 . S
C117 C118 1.258 . S
C117 C120 1.431 . S
C117 C137 1.449 . S
C118 C117 1.258 . S
C118 C119 1.477 . S
C118 H138 0.931 . S
C119 C115 1.460 . S
C119 C118 1.477 . S
C119 H139 0.930 . S
C120 N116 1.362 . S
C120 C117 1.431 . S
C120 C130 1.476 . S
H121 C115 0.929 . S
C122 O113 1.250 . S
C122 O114 1.258 . S
O123 Mn108 2.162 . S
O123 C111 1.281 . S
O124 Mn108 2.297 . S
O124 C111 1.236 . S
N125 Mn109 2.282 . S
N125 C126 1.328 . S
N125 C130 1.318 . S
C126 N125 1.328 . S
C126 C127 1.457 . S
C126 H131 0.929 . S
C127 C126 1.457 . S
C127 C128 1.291 . S
C127 H140 0.931 . S
C128 C127 1.291 . S
C128 C129 1.373 . S
C128 H141 0.929 . S
C129 C128 1.373 . S
C129 C130 1.396 . S
C129 C136 1.403 . S
C130 C120 1.476 . S
C130 N125 1.318 . S
C130 C129 1.396 . S
H131 C126 0.929 . S
O132 Mn108 2.385 . S
O132 C110 1.234 . S
O133 Mn108 2.209 . S
O133 Mn109 2.215 . S
O133 C110 1.283 . S
O134 Mn108 2.094 . S
O134 C112 1.240 . S
O135 Mn109 2.117 . S
O135 C112 1.264 . S
C136 C129 1.403 . S
C136 C137 1.399 . S
C136 H142 0.929 . S
C137 C117 1.449 . S
C137 C136 1.399 . S
C137 H143 0.930 . S
H138 C118 0.931 . S
H139 C119 0.930 . S
H140 C127 0.931 . S
H141 C128 0.929 . S
H142 C136 0.929 . S
H143 C137 0.930 . S
Mn144 O149 2.095 . S
Mn144 O159 2.162 . S
Mn144 O160 2.297 . S
Mn144 O168 2.385 . S
Mn144 O169 2.209 . S
Mn144 O170 2.094 . S
Mn145 O150 2.121 . S
Mn145 N152 2.257 . S
Mn145 N161 2.282 . S
Mn145 O169 2.215 . S
Mn145 O171 2.117 . S
C146 O168 1.234 . S
C146 O169 1.283 . S
C147 O159 1.281 . S
C147 O160 1.236 . S
C148 O170 1.240 . S
C148 O171 1.264 . S
O149 Mn144 2.095 . S
O149 C158 1.250 . S
O150 Mn145 2.121 . S
O150 C158 1.258 . S
C151 N152 1.326 . S
C151 C155 1.460 . S
C151 H157 0.929 . S
N152 Mn145 2.257 . S
N152 C151 1.326 . S
N152 C156 1.362 . S
C153 C154 1.258 . S
C153 C156 1.431 . S
C153 C173 1.449 . S
C154 C153 1.258 . S
C154 C155 1.477 . S
C154 H174 0.931 . S
C155 C151 1.460 . S
C155 C154 1.477 . S
C155 H175 0.930 . S
C156 N152 1.362 . S
C156 C153 1.431 . S
C156 C166 1.476 . S
H157 C151 0.929 . S
C158 O149 1.250 . S
C158 O150 1.258 . S
O159 Mn144 2.162 . S
O159 C147 1.281 . S
O160 Mn144 2.297 . S
O160 C147 1.236 . S
N161 Mn145 2.282 . S
N161 C162 1.328 . S
N161 C166 1.318 . S
C162 N161 1.328 . S
C162 C163 1.457 . S
C162 H167 0.929 . S
C163 C162 1.457 . S
C163 C164 1.291 . S
C163 H176 0.931 . S
C164 C163 1.291 . S
C164 C165 1.373 . S
C164 H177 0.929 . S
C165 C164 1.373 . S
C165 C166 1.396 . S
C165 C172 1.403 . S
C166 C156 1.476 . S
C166 N161 1.318 . S
C166 C165 1.396 . S
H167 C162 0.929 . S
O168 Mn144 2.385 . S
O168 C146 1.234 . S
O169 Mn144 2.209 . S
O169 Mn145 2.215 . S
O169 C146 1.283 . S
O170 Mn144 2.094 . S
O170 C148 1.240 . S
O171 Mn145 2.117 . S
O171 C148 1.264 . S
C172 C165 1.403 . S
C172 C173 1.399 . S
C172 H178 0.929 . S
C173 C153 1.449 . S
C173 C172 1.399 . S
C173 H179 0.930 . S
H174 C154 0.931 . S
H175 C155 0.930 . S
H176 C163 0.931 . S
H177 C164 0.929 . S
H178 C172 0.929 . S
H179 C173 0.930 . S
Mn180 O185 2.095 . S
Mn180 O195 2.162 . S
Mn180 O196 2.297 . S
Mn180 O204 2.385 . S
Mn180 O205 2.209 . S
Mn180 O206 2.094 . S
Mn181 O186 2.121 . S
Mn181 N188 2.257 . S
Mn181 N197 2.282 . S
Mn181 O205 2.215 . S
Mn181 O207 2.117 . S
C182 O204 1.234 . S
C182 O205 1.283 . S
C183 O195 1.281 . S
C183 O196 1.236 . S
C184 O206 1.240 . S
C184 O207 1.264 . S
O185 Mn180 2.095 . S
O185 C194 1.250 . S
O186 Mn181 2.121 . S
O186 C194 1.258 . S
C187 N188 1.326 . S
C187 C191 1.460 . S
C187 H193 0.929 . S
N188 Mn181 2.257 . S
N188 C187 1.326 . S
N188 C192 1.362 . S
C189 C190 1.258 . S
C189 C192 1.431 . S
C189 C209 1.449 . S
C190 C189 1.258 . S
C190 C191 1.477 . S
C190 H210 0.931 . S
C191 C187 1.460 . S
C191 C190 1.477 . S
C191 H211 0.930 . S
C192 N188 1.362 . S
C192 C189 1.431 . S
C192 C202 1.476 . S
H193 C187 0.929 . S
C194 O185 1.250 . S
C194 O186 1.258 . S
O195 Mn180 2.162 . S
O195 C183 1.281 . S
O196 Mn180 2.297 . S
O196 C183 1.236 . S
N197 Mn181 2.282 . S
N197 C198 1.328 . S
N197 C202 1.318 . S
C198 N197 1.328 . S
C198 C199 1.457 . S
C198 H203 0.929 . S
C199 C198 1.457 . S
C199 C200 1.291 . S
C199 H212 0.931 . S
C200 C199 1.291 . S
C200 C201 1.373 . S
C200 H213 0.929 . S
C201 C200 1.373 . S
C201 C202 1.396 . S
C201 C208 1.403 . S
C202 C192 1.476 . S
C202 N197 1.318 . S
C202 C201 1.396 . S
H203 C198 0.929 . S
O204 Mn180 2.385 . S
O204 C182 1.234 . S
O205 Mn180 2.209 . S
O205 Mn181 2.215 . S
O205 C182 1.283 . S
O206 Mn180 2.094 . S
O206 C184 1.240 . S
O207 Mn181 2.117 . S
O207 C184 1.264 . S
C208 C201 1.403 . S
C208 C209 1.399 . S
C208 H214 0.929 . S
C209 C189 1.449 . S
C209 C208 1.399 . S
C209 H215 0.930 . S
H210 C190 0.931 . S
H211 C191 0.930 . S
H212 C199 0.931 . S
H213 C200 0.929 . S
H214 C208 0.929 . S
H215 C209 0.930 . S
Mn216 O221 2.095 . S
Mn216 O231 2.162 . S
Mn216 O232 2.297 . S
Mn216 O240 2.385 . S
Mn216 O241 2.209 . S
Mn216 O242 2.094 . S
Mn217 O222 2.121 . S
Mn217 N224 2.257 . S
Mn217 N233 2.282 . S
Mn217 O241 2.215 . S
Mn217 O243 2.117 . S
C218 O240 1.234 . S
C218 O241 1.283 . S
C219 O231 1.281 . S
C219 O232 1.236 . S
C220 O242 1.240 . S
C220 O243 1.264 . S
O221 Mn216 2.095 . S
O221 C230 1.250 . S
O222 Mn217 2.121 . S
O222 C230 1.258 . S
C223 N224 1.326 . S
C223 C227 1.460 . S
C223 H229 0.929 . S
N224 Mn217 2.257 . S
N224 C223 1.326 . S
N224 C228 1.362 . S
C225 C226 1.258 . S
C225 C228 1.431 . S
C225 C245 1.449 . S
C226 C225 1.258 . S
C226 C227 1.477 . S
C226 H246 0.931 . S
C227 C223 1.460 . S
C227 C226 1.477 . S
C227 H247 0.930 . S
C228 N224 1.362 . S
C228 C225 1.431 . S
C228 C238 1.476 . S
H229 C223 0.929 . S
C230 O221 1.250 . S
C230 O222 1.258 . S
O231 Mn216 2.162 . S
O231 C219 1.281 . S
O232 Mn216 2.297 . S
O232 C219 1.236 . S
N233 Mn217 2.282 . S
N233 C234 1.328 . S
N233 C238 1.318 . S
C234 N233 1.328 . S
C234 C235 1.457 . S
C234 H239 0.929 . S
C235 C234 1.457 . S
C235 C236 1.291 . S
C235 H248 0.931 . S
C236 C235 1.291 . S
C236 C237 1.373 . S
C236 H249 0.929 . S
C237 C236 1.373 . S
C237 C238 1.396 . S
C237 C244 1.403 . S
C238 C228 1.476 . S
C238 N233 1.318 . S
C238 C237 1.396 . S
H239 C234 0.929 . S
O240 Mn216 2.385 . S
O240 C218 1.234 . S
O241 Mn216 2.209 . S
O241 Mn217 2.215 . S
O241 C218 1.283 . S
O242 Mn216 2.094 . S
O242 C220 1.240 . S
O243 Mn217 2.117 . S
O243 C220 1.264 . S
C244 C237 1.403 . S
C244 C245 1.399 . S
C244 H250 0.929 . S
C245 C225 1.449 . S
C245 C244 1.399 . S
C245 H251 0.930 . S
H246 C226 0.931 . S
H247 C227 0.930 . S
H248 C235 0.931 . S
H249 C236 0.929 . S
H250 C244 0.929 . S
H251 C245 0.930 . S
Mn252 O257 2.095 . S
Mn252 O267 2.162 . S
Mn252 O268 2.297 . S
Mn252 O276 2.385 . S
Mn252 O277 2.209 . S
Mn252 O278 2.094 . S
Mn253 O258 2.121 . S
Mn253 N260 2.257 . S
Mn253 N269 2.282 . S
Mn253 O277 2.215 . S
Mn253 O279 2.117 . S
C254 O276 1.234 . S
C254 O277 1.283 . S
C255 O267 1.281 . S
C255 O268 1.236 . S
C256 O278 1.240 . S
C256 O279 1.264 . S
O257 Mn252 2.095 . S
O257 C266 1.250 . S
O258 Mn253 2.121 . S
O258 C266 1.258 . S
C259 N260 1.326 . S
C259 C263 1.460 . S
C259 H265 0.929 . S
N260 Mn253 2.257 . S
N260 C259 1.326 . S
N260 C264 1.362 . S
C261 C262 1.258 . S
C261 C264 1.431 . S
C261 C281 1.449 . S
C262 C261 1.258 . S
C262 C263 1.477 . S
C262 H282 0.931 . S
C263 C259 1.460 . S
C263 C262 1.477 . S
C263 H283 0.930 . S
C264 N260 1.362 . S
C264 C261 1.431 . S
C264 C274 1.476 . S
H265 C259 0.929 . S
C266 O257 1.250 . S
C266 O258 1.258 . S
O267 Mn252 2.162 . S
O267 C255 1.281 . S
O268 Mn252 2.297 . S
O268 C255 1.236 . S
N269 Mn253 2.282 . S
N269 C270 1.328 . S
N269 C274 1.318 . S
C270 N269 1.328 . S
C270 C271 1.457 . S
C270 H275 0.929 . S
C271 C270 1.457 . S
C271 C272 1.291 . S
C271 H284 0.931 . S
C272 C271 1.291 . S
C272 C273 1.373 . S
C272 H285 0.929 . S
C273 C272 1.373 . S
C273 C274 1.396 . S
C273 C280 1.403 . S
C274 C264 1.476 . S
C274 N269 1.318 . S
C274 C273 1.396 . S
H275 C270 0.929 . S
O276 Mn252 2.385 . S
O276 C254 1.234 . S
O277 Mn252 2.209 . S
O277 Mn253 2.215 . S
O277 C254 1.283 . S
O278 Mn252 2.094 . S
O278 C256 1.240 . S
O279 Mn253 2.117 . S
O279 C256 1.264 . S
C280 C273 1.403 . S
C280 C281 1.399 . S
C280 H286 0.929 . S
C281 C261 1.449 . S
C281 C280 1.399 . S
C281 H287 0.930 . S
H282 C262 0.931 . S
H283 C263 0.930 . S
H284 C271 0.931 . S
H285 C272 0.929 . S
H286 C280 0.929 . S
H287 C281 0.930 . S
Mn288 O293 2.095 . S
Mn288 O303 2.162 . S
Mn288 O304 2.297 . S
Mn288 O312 2.385 . S
Mn288 O313 2.209 . S
Mn288 O314 2.094 . S
Mn289 O294 2.121 . S
Mn289 N296 2.257 . S
Mn289 N305 2.282 . S
Mn289 O313 2.215 . S
Mn289 O315 2.117 . S
C290 O312 1.234 . S
C290 O313 1.283 . S
C291 O303 1.281 . S
C291 O304 1.236 . S
C292 O314 1.240 . S
C292 O315 1.264 . S
O293 Mn288 2.095 . S
O293 C302 1.250 . S
O294 Mn289 2.121 . S
O294 C302 1.258 . S
C295 N296 1.326 . S
C295 C299 1.460 . S
C295 H301 0.929 . S
N296 Mn289 2.257 . S
N296 C295 1.326 . S
N296 C300 1.362 . S
C297 C298 1.258 . S
C297 C300 1.431 . S
C297 C317 1.449 . S
C298 C297 1.258 . S
C298 C299 1.477 . S
C298 H318 0.931 . S
C299 C295 1.460 . S
C299 C298 1.477 . S
C299 H319 0.930 . S
C300 N296 1.362 . S
C300 C297 1.431 . S
C300 C310 1.476 . S
H301 C295 0.929 . S
C302 O293 1.250 . S
C302 O294 1.258 . S
O303 Mn288 2.162 . S
O303 C291 1.281 . S
O304 Mn288 2.297 . S
O304 C291 1.236 . S
N305 Mn289 2.282 . S
N305 C306 1.328 . S
N305 C310 1.318 . S
C306 N305 1.328 . S
C306 C307 1.457 . S
C306 H311 0.929 . S
C307 C306 1.457 . S
C307 C308 1.291 . S
C307 H320 0.931 . S
C308 C307 1.291 . S
C308 C309 1.373 . S
C308 H321 0.929 . S
C309 C308 1.373 . S
C309 C310 1.396 . S
C309 C316 1.403 . S
C310 C300 1.476 . S
C310 N305 1.318 . S
C310 C309 1.396 . S
H311 C306 0.929 . S
O312 Mn288 2.385 . S
O312 C290 1.234 . S
O313 Mn288 2.209 . S
O313 Mn289 2.215 . S
O313 C290 1.283 . S
O314 Mn288 2.094 . S
O314 C292 1.240 . S
O315 Mn289 2.117 . S
O315 C292 1.264 . S
C316 C309 1.403 . S
C316 C317 1.399 . S
C316 H322 0.929 . S
C317 C297 1.449 . S
C317 C316 1.399 . S
C317 H323 0.930 . S
H318 C298 0.931 . S
H319 C299 0.930 . S
H320 C307 0.931 . S
H321 C308 0.929 . S
H322 C316 0.929 . S
H323 C317 0.930 . S
Mn324 O329 2.095 . S
Mn324 O339 2.162 . S
Mn324 O340 2.297 . S
Mn324 O348 2.385 . S
Mn324 O349 2.209 . S
Mn324 O350 2.094 . S
Mn325 O330 2.121 . S
Mn325 N332 2.257 . S
Mn325 N341 2.282 . S
Mn325 O349 2.215 . S
Mn325 O351 2.117 . S
C326 O348 1.234 . S
C326 O349 1.283 . S
C327 O339 1.281 . S
C327 O340 1.236 . S
C328 O350 1.240 . S
C328 O351 1.264 . S
O329 Mn324 2.095 . S
O329 C338 1.250 . S
O330 Mn325 2.121 . S
O330 C338 1.258 . S
C331 N332 1.326 . S
C331 C335 1.460 . S
C331 H337 0.929 . S
N332 Mn325 2.257 . S
N332 C331 1.326 . S
N332 C336 1.362 . S
C333 C334 1.258 . S
C333 C336 1.431 . S
C333 C353 1.449 . S
C334 C333 1.258 . S
C334 C335 1.477 . S
C334 H354 0.931 . S
C335 C331 1.460 . S
C335 C334 1.477 . S
C335 H355 0.930 . S
C336 N332 1.362 . S
C336 C333 1.431 . S
C336 C346 1.476 . S
H337 C331 0.929 . S
C338 O329 1.250 . S
C338 O330 1.258 . S
O339 Mn324 2.162 . S
O339 C327 1.281 . S
O340 Mn324 2.297 . S
O340 C327 1.236 . S
N341 Mn325 2.282 . S
N341 C342 1.328 . S
N341 C346 1.318 . S
C342 N341 1.328 . S
C342 C343 1.457 . S
C342 H347 0.929 . S
C343 C342 1.457 . S
C343 C344 1.291 . S
C343 H356 0.931 . S
C344 C343 1.291 . S
C344 C345 1.373 . S
C344 H357 0.929 . S
C345 C344 1.373 . S
C345 C346 1.396 . S
C345 C352 1.403 . S
C346 C336 1.476 . S
C346 N341 1.318 . S
C346 C345 1.396 . S
H347 C342 0.929 . S
O348 Mn324 2.385 . S
O348 C326 1.234 . S
O349 Mn324 2.209 . S
O349 Mn325 2.215 . S
O349 C326 1.283 . S
O350 Mn324 2.094 . S
O350 C328 1.240 . S
O351 Mn325 2.117 . S
O351 C328 1.264 . S
C352 C345 1.403 . S
C352 C353 1.399 . S
C352 H358 0.929 . S
C353 C333 1.449 . S
C353 C352 1.399 . S
C353 H359 0.930 . S
H354 C334 0.931 . S
H355 C335 0.930 . S
H356 C343 0.931 . S
H357 C344 0.929 . S
H358 C352 0.929 . S
H359 C353 0.930 . S
Mn360 O365 2.095 . S
Mn360 O375 2.162 . S
Mn360 O376 2.297 . S
Mn360 O384 2.385 . S
Mn360 O385 2.209 . S
Mn360 O386 2.094 . S
Mn361 O366 2.121 . S
Mn361 N368 2.257 . S
Mn361 N377 2.282 . S
Mn361 O385 2.215 . S
Mn361 O387 2.117 . S
C362 O384 1.234 . S
C362 O385 1.283 . S
C363 O375 1.281 . S
C363 O376 1.236 . S
C364 O386 1.240 . S
C364 O387 1.264 . S
O365 Mn360 2.095 . S
O365 C374 1.250 . S
O366 Mn361 2.121 . S
O366 C374 1.258 . S
C367 N368 1.326 . S
C367 C371 1.460 . S
C367 H373 0.929 . S
N368 Mn361 2.257 . S
N368 C367 1.326 . S
N368 C372 1.362 . S
C369 C370 1.258 . S
C369 C372 1.431 . S
C369 C389 1.449 . S
C370 C369 1.258 . S
C370 C371 1.477 . S
C370 H390 0.931 . S
C371 C367 1.460 . S
C371 C370 1.477 . S
C371 H391 0.930 . S
C372 N368 1.362 . S
C372 C369 1.431 . S
C372 C382 1.476 . S
H373 C367 0.929 . S
C374 O365 1.250 . S
C374 O366 1.258 . S
O375 Mn360 2.162 . S
O375 C363 1.281 . S
O376 Mn360 2.297 . S
O376 C363 1.236 . S
N377 Mn361 2.282 . S
N377 C378 1.328 . S
N377 C382 1.318 . S
C378 N377 1.328 . S
C378 C379 1.457 . S
C378 H383 0.929 . S
C379 C378 1.457 . S
C379 C380 1.291 . S
C379 H392 0.931 . S
C380 C379 1.291 . S
C380 C381 1.373 . S
C380 H393 0.929 . S
C381 C380 1.373 . S
C381 C382 1.396 . S
C381 C388 1.403 . S
C382 C372 1.476 . S
C382 N377 1.318 . S
C382 C381 1.396 . S
H383 C378 0.929 . S
O384 Mn360 2.385 . S
O384 C362 1.234 . S
O385 Mn360 2.209 . S
O385 Mn361 2.215 . S
O385 C362 1.283 . S
O386 Mn360 2.094 . S
O386 C364 1.240 . S
O387 Mn361 2.117 . S
O387 C364 1.264 . S
C388 C381 1.403 . S
C388 C389 1.399 . S
C388 H394 0.929 . S
C389 C369 1.449 . S
C389 C388 1.399 . S
C389 H395 0.930 . S
H390 C370 0.931 . S
H391 C371 0.930 . S
H392 C379 0.931 . S
H393 C380 0.929 . S
H394 C388 0.929 . S
H395 C389 0.930 . S
Mn396 O401 2.095 . S
Mn396 O411 2.162 . S
Mn396 O412 2.297 . S
Mn396 O420 2.385 . S
Mn396 O421 2.209 . S
Mn396 O422 2.094 . S
Mn397 O402 2.121 . S
Mn397 N404 2.257 . S
Mn397 N413 2.282 . S
Mn397 O421 2.215 . S
Mn397 O423 2.117 . S
C398 O420 1.234 . S
C398 O421 1.283 . S
C399 O411 1.281 . S
C399 O412 1.236 . S
C400 O422 1.240 . S
C400 O423 1.264 . S
O401 Mn396 2.095 . S
O401 C410 1.250 . S
O402 Mn397 2.121 . S
O402 C410 1.258 . S
C403 N404 1.326 . S
C403 C407 1.460 . S
C403 H409 0.929 . S
N404 Mn397 2.257 . S
N404 C403 1.326 . S
N404 C408 1.362 . S
C405 C406 1.258 . S
C405 C408 1.431 . S
C405 C425 1.449 . S
C406 C405 1.258 . S
C406 C407 1.477 . S
C406 H426 0.931 . S
C407 C403 1.460 . S
C407 C406 1.477 . S
C407 H427 0.930 . S
C408 N404 1.362 . S
C408 C405 1.431 . S
C408 C418 1.476 . S
H409 C403 0.929 . S
C410 O401 1.250 . S
C410 O402 1.258 . S
O411 Mn396 2.162 . S
O411 C399 1.281 . S
O412 Mn396 2.297 . S
O412 C399 1.236 . S
N413 Mn397 2.282 . S
N413 C414 1.328 . S
N413 C418 1.318 . S
C414 N413 1.328 . S
C414 C415 1.457 . S
C414 H419 0.929 . S
C415 C414 1.457 . S
C415 C416 1.291 . S
C415 H428 0.931 . S
C416 C415 1.291 . S
C416 C417 1.373 . S
C416 H429 0.929 . S
C417 C416 1.373 . S
C417 C418 1.396 . S
C417 C424 1.403 . S
C418 C408 1.476 . S
C418 N413 1.318 . S
C418 C417 1.396 . S
H419 C414 0.929 . S
O420 Mn396 2.385 . S
O420 C398 1.234 . S
O421 Mn396 2.209 . S
O421 Mn397 2.215 . S
O421 C398 1.283 . S
O422 Mn396 2.094 . S
O422 C400 1.240 . S
O423 Mn397 2.117 . S
O423 C400 1.264 . S
C424 C417 1.403 . S
C424 C425 1.399 . S
C424 H430 0.929 . S
C425 C405 1.449 . S
C425 C424 1.399 . S
C425 H431 0.930 . S
H426 C406 0.931 . S
H427 C407 0.930 . S
H428 C415 0.931 . S
H429 C416 0.929 . S
H430 C424 0.929 . S
H431 C425 0.930 . S
Mn432 O437 2.095 . S
Mn432 O447 2.162 . S
Mn432 O448 2.297 . S
Mn432 O456 2.385 . S
Mn432 O457 2.209 . S
Mn432 O458 2.094 . S
Mn433 O438 2.121 . S
Mn433 N440 2.257 . S
Mn433 N449 2.282 . S
Mn433 O457 2.215 . S
Mn433 O459 2.117 . S
C434 O456 1.234 . S
C434 O457 1.283 . S
C435 O447 1.281 . S
C435 O448 1.236 . S
C436 O458 1.240 . S
C436 O459 1.264 . S
O437 Mn432 2.095 . S
O437 C446 1.250 . S
O438 Mn433 2.121 . S
O438 C446 1.258 . S
C439 N440 1.326 . S
C439 C443 1.460 . S
C439 H445 0.929 . S
N440 Mn433 2.257 . S
N440 C439 1.326 . S
N440 C444 1.362 . S
C441 C442 1.258 . S
C441 C444 1.431 . S
C441 C461 1.449 . S
C442 C441 1.258 . S
C442 C443 1.477 . S
C442 H462 0.931 . S
C443 C439 1.460 . S
C443 C442 1.477 . S
C443 H463 0.930 . S
C444 N440 1.362 . S
C444 C441 1.431 . S
C444 C454 1.476 . S
H445 C439 0.929 . S
C446 O437 1.250 . S
C446 O438 1.258 . S
O447 Mn432 2.162 . S
O447 C435 1.281 . S
O448 Mn432 2.297 . S
O448 C435 1.236 . S
N449 Mn433 2.282 . S
N449 C450 1.328 . S
N449 C454 1.318 . S
C450 N449 1.328 . S
C450 C451 1.457 . S
C450 H455 0.929 . S
C451 C450 1.457 . S
C451 C452 1.291 . S
C451 H464 0.931 . S
C452 C451 1.291 . S
C452 C453 1.373 . S
C452 H465 0.929 . S
C453 C452 1.373 . S
C453 C454 1.396 . S
C453 C460 1.403 . S
C454 C444 1.476 . S
C454 N449 1.318 . S
C454 C453 1.396 . S
H455 C450 0.929 . S
O456 Mn432 2.385 . S
O456 C434 1.234 . S
O457 Mn432 2.209 . S
O457 Mn433 2.215 . S
O457 C434 1.283 . S
O458 Mn432 2.094 . S
O458 C436 1.240 . S
O459 Mn433 2.117 . S
O459 C436 1.264 . S
C460 C453 1.403 . S
C460 C461 1.399 . S
C460 H466 0.929 . S
C461 C441 1.449 . S
C461 C460 1.399 . S
C461 H467 0.930 . S
H462 C442 0.931 . S
H463 C443 0.930 . S
H464 C451 0.931 . S
H465 C452 0.929 . S
H466 C460 0.929 . S
H467 C461 0.930 . S
Mn468 O473 2.095 . S
Mn468 O483 2.162 . S
Mn468 O484 2.297 . S
Mn468 O492 2.385 . S
Mn468 O493 2.209 . S
Mn468 O494 2.094 . S
Mn469 O474 2.121 . S
Mn469 N476 2.257 . S
Mn469 N485 2.282 . S
Mn469 O493 2.215 . S
Mn469 O495 2.117 . S
C470 O492 1.234 . S
C470 O493 1.283 . S
C471 O483 1.281 . S
C471 O484 1.236 . S
C472 O494 1.240 . S
C472 O495 1.264 . S
O473 Mn468 2.095 . S
O473 C482 1.250 . S
O474 Mn469 2.121 . S
O474 C482 1.258 . S
C475 N476 1.326 . S
C475 C479 1.460 . S
C475 H481 0.929 . S
N476 Mn469 2.257 . S
N476 C475 1.326 . S
N476 C480 1.362 . S
C477 C478 1.258 . S
C477 C480 1.431 . S
C477 C497 1.449 . S
C478 C477 1.258 . S
C478 C479 1.477 . S
C478 H498 0.931 . S
C479 C475 1.460 . S
C479 C478 1.477 . S
C479 H499 0.930 . S
C480 N476 1.362 . S
C480 C477 1.431 . S
C480 C490 1.476 . S
H481 C475 0.929 . S
C482 O473 1.250 . S
C482 O474 1.258 . S
O483 Mn468 2.162 . S
O483 C471 1.281 . S
O484 Mn468 2.297 . S
O484 C471 1.236 . S
N485 Mn469 2.282 . S
N485 C486 1.328 . S
N485 C490 1.318 . S
C486 N485 1.328 . S
C486 C487 1.457 . S
C486 H491 0.929 . S
C487 C486 1.457 . S
C487 C488 1.291 . S
C487 H500 0.931 . S
C488 C487 1.291 . S
C488 C489 1.373 . S
C488 H501 0.929 . S
C489 C488 1.373 . S
C489 C490 1.396 . S
C489 C496 1.403 . S
C490 C480 1.476 . S
C490 N485 1.318 . S
C490 C489 1.396 . S
H491 C486 0.929 . S
O492 Mn468 2.385 . S
O492 C470 1.234 . S
O493 Mn468 2.209 . S
O493 Mn469 2.215 . S
O493 C470 1.283 . S
O494 Mn468 2.094 . S
O494 C472 1.240 . S
O495 Mn469 2.117 . S
O495 C472 1.264 . S
C496 C489 1.403 . S
C496 C497 1.399 . S
C496 H502 0.929 . S
C497 C477 1.449 . S
C497 C496 1.399 . S
C497 H503 0.930 . S
H498 C478 0.931 . S
H499 C479 0.930 . S
H500 C487 0.931 . S
H501 C488 0.929 . S
H502 C496 0.929 . S
H503 C497 0.930 . S
Mn504 O509 2.095 . S
Mn504 O519 2.162 . S
Mn504 O520 2.297 . S
Mn504 O528 2.385 . S
Mn504 O529 2.209 . S
Mn504 O530 2.094 . S
Mn505 O510 2.121 . S
Mn505 N512 2.257 . S
Mn505 N521 2.282 . S
Mn505 O529 2.215 . S
Mn505 O531 2.117 . S
C506 O528 1.234 . S
C506 O529 1.283 . S
C507 O519 1.281 . S
C507 O520 1.236 . S
C508 O530 1.240 . S
C508 O531 1.264 . S
O509 Mn504 2.095 . S
O509 C518 1.250 . S
O510 Mn505 2.121 . S
O510 C518 1.258 . S
C511 N512 1.326 . S
C511 C515 1.460 . S
C511 H517 0.929 . S
N512 Mn505 2.257 . S
N512 C511 1.326 . S
N512 C516 1.362 . S
C513 C514 1.258 . S
C513 C516 1.431 . S
C513 C533 1.449 . S
C514 C513 1.258 . S
C514 C515 1.477 . S
C514 H534 0.931 . S
C515 C511 1.460 . S
C515 C514 1.477 . S
C515 H535 0.930 . S
C516 N512 1.362 . S
C516 C513 1.431 . S
C516 C526 1.476 . S
H517 C511 0.929 . S
C518 O509 1.250 . S
C518 O510 1.258 . S
O519 Mn504 2.162 . S
O519 C507 1.281 . S
O520 Mn504 2.297 . S
O520 C507 1.236 . S
N521 Mn505 2.282 . S
N521 C522 1.328 . S
N521 C526 1.318 . S
C522 N521 1.328 . S
C522 C523 1.457 . S
C522 H527 0.929 . S
C523 C522 1.457 . S
C523 C524 1.291 . S
C523 H536 0.931 . S
C524 C523 1.291 . S
C524 C525 1.373 . S
C524 H537 0.929 . S
C525 C524 1.373 . S
C525 C526 1.396 . S
C525 C532 1.403 . S
C526 C516 1.476 . S
C526 N521 1.318 . S
C526 C525 1.396 . S
H527 C522 0.929 . S
O528 Mn504 2.385 . S
O528 C506 1.234 . S
O529 Mn504 2.209 . S
O529 Mn505 2.215 . S
O529 C506 1.283 . S
O530 Mn504 2.094 . S
O530 C508 1.240 . S
O531 Mn505 2.117 . S
O531 C508 1.264 . S
C532 C525 1.403 . S
C532 C533 1.399 . S
C532 H538 0.929 . S
C533 C513 1.449 . S
C533 C532 1.399 . S
C533 H539 0.930 . S
H534 C514 0.931 . S
H535 C515 0.930 . S
H536 C523 0.931 . S
H537 C524 0.929 . S
H538 C532 0.929 . S
H539 C533 0.930 . S
Mn540 O545 2.095 . S
Mn540 O555 2.162 . S
Mn540 O556 2.297 . S
Mn540 O564 2.385 . S
Mn540 O565 2.209 . S
Mn540 O566 2.094 . S
Mn541 O546 2.121 . S
Mn541 N548 2.257 . S
Mn541 N557 2.282 . S
Mn541 O565 2.215 . S
Mn541 O567 2.117 . S
C542 O564 1.234 . S
C542 O565 1.283 . S
C543 O555 1.281 . S
C543 O556 1.236 . S
C544 O566 1.240 . S
C544 O567 1.264 . S
O545 Mn540 2.095 . S
O545 C554 1.250 . S
O546 Mn541 2.121 . S
O546 C554 1.258 . S
C547 N548 1.326 . S
C547 C551 1.460 . S
C547 H553 0.929 . S
N548 Mn541 2.257 . S
N548 C547 1.326 . S
N548 C552 1.362 . S
C549 C550 1.258 . S
C549 C552 1.431 . S
C549 C569 1.449 . S
C550 C549 1.258 . S
C550 C551 1.477 . S
C550 H570 0.931 . S
C551 C547 1.460 . S
C551 C550 1.477 . S
C551 H571 0.930 . S
C552 N548 1.362 . S
C552 C549 1.431 . S
C552 C562 1.476 . S
H553 C547 0.929 . S
C554 O545 1.250 . S
C554 O546 1.258 . S
O555 Mn540 2.162 . S
O555 C543 1.281 . S
O556 Mn540 2.297 . S
O556 C543 1.236 . S
N557 Mn541 2.282 . S
N557 C558 1.328 . S
N557 C562 1.318 . S
C558 N557 1.328 . S
C558 C559 1.457 . S
C558 H563 0.929 . S
C559 C558 1.457 . S
C559 C560 1.291 . S
C559 H572 0.931 . S
C560 C559 1.291 . S
C560 C561 1.373 . S
C560 H573 0.929 . S
C561 C560 1.373 . S
C561 C562 1.396 . S
C561 C568 1.403 . S
C562 C552 1.476 . S
C562 N557 1.318 . S
C562 C561 1.396 . S
H563 C558 0.929 . S
O564 Mn540 2.385 . S
O564 C542 1.234 . S
O565 Mn540 2.209 . S
O565 Mn541 2.215 . S
O565 C542 1.283 . S
O566 Mn540 2.094 . S
O566 C544 1.240 . S
O567 Mn541 2.117 . S
O567 C544 1.264 . S
C568 C561 1.403 . S
C568 C569 1.399 . S
C568 H574 0.929 . S
C569 C549 1.449 . S
C569 C568 1.399 . S
C569 H575 0.930 . S
H570 C550 0.931 . S
H571 C551 0.930 . S
H572 C559 0.931 . S
H573 C560 0.929 . S
H574 C568 0.929 . S
H575 C569 0.930 . S
Mn576 O581 2.095 . S
Mn576 O591 2.162 . S
Mn576 O592 2.297 . S
Mn576 O600 2.385 . S
Mn576 O601 2.209 . S
Mn576 O602 2.094 . S
Mn577 O582 2.121 . S
Mn577 N584 2.257 . S
Mn577 N593 2.282 . S
Mn577 O601 2.215 . S
Mn577 O603 2.117 . S
C578 O600 1.234 . S
C578 O601 1.283 . S
C579 O591 1.281 . S
C579 O592 1.236 . S
C580 O602 1.240 . S
C580 O603 1.264 . S
O581 Mn576 2.095 . S
O581 C590 1.250 . S
O582 Mn577 2.121 . S
O582 C590 1.258 . S
C583 N584 1.326 . S
C583 C587 1.460 . S
C583 H589 0.929 . S
N584 Mn577 2.257 . S
N584 C583 1.326 . S
N584 C588 1.362 . S
C585 C586 1.258 . S
C585 C588 1.431 . S
C585 C605 1.449 . S
C586 C585 1.258 . S
C586 C587 1.477 . S
C586 H606 0.931 . S
C587 C583 1.460 . S
C587 C586 1.477 . S
C587 H607 0.930 . S
C588 N584 1.362 . S
C588 C585 1.431 . S
C588 C598 1.476 . S
H589 C583 0.929 . S
C590 O581 1.250 . S
C590 O582 1.258 . S
O591 Mn576 2.162 . S
O591 C579 1.281 . S
O592 Mn576 2.297 . S
O592 C579 1.236 . S
N593 Mn577 2.282 . S
N593 C594 1.328 . S
N593 C598 1.318 . S
C594 N593 1.328 . S
C594 C595 1.457 . S
C594 H599 0.929 . S
C595 C594 1.457 . S
C595 C596 1.291 . S
C595 H608 0.931 . S
C596 C595 1.291 . S
C596 C597 1.373 . S
C596 H609 0.929 . S
C597 C596 1.373 . S
C597 C598 1.396 . S
C597 C604 1.403 . S
C598 C588 1.476 . S
C598 N593 1.318 . S
C598 C597 1.396 . S
H599 C594 0.929 . S
O600 Mn576 2.385 . S
O600 C578 1.234 . S
O601 Mn576 2.209 . S
O601 Mn577 2.215 . S
O601 C578 1.283 . S
O602 Mn576 2.094 . S
O602 C580 1.240 . S
O603 Mn577 2.117 . S
O603 C580 1.264 . S
C604 C597 1.403 . S
C604 C605 1.399 . S
C604 H610 0.929 . S
C605 C585 1.449 . S
C605 C604 1.399 . S
C605 H611 0.930 . S
H606 C586 0.931 . S
H607 C587 0.930 . S
H608 C595 0.931 . S
H609 C596 0.929 . S
H610 C604 0.929 . S
H611 C605 0.930 . S
Mn612 O617 2.095 . S
Mn612 O627 2.162 . S
Mn612 O628 2.297 . S
Mn612 O636 2.385 . S
Mn612 O637 2.209 . S
Mn612 O638 2.094 . S
Mn613 O618 2.121 . S
Mn613 N620 2.257 . S
Mn613 N629 2.282 . S
Mn613 O637 2.215 . S
Mn613 O639 2.117 . S
C614 O636 1.234 . S
C614 O637 1.283 . S
C615 O627 1.281 . S
C615 O628 1.236 . S
C616 O638 1.240 . S
C616 O639 1.264 . S
O617 Mn612 2.095 . S
O617 C626 1.250 . S
O618 Mn613 2.121 . S
O618 C626 1.258 . S
C619 N620 1.326 . S
C619 C623 1.460 . S
C619 H625 0.929 . S
N620 Mn613 2.257 . S
N620 C619 1.326 . S
N620 C624 1.362 . S
C621 C622 1.258 . S
C621 C624 1.431 . S
C621 C641 1.449 . S
C622 C621 1.258 . S
C622 C623 1.477 . S
C622 H642 0.931 . S
C623 C619 1.460 . S
C623 C622 1.477 . S
C623 H643 0.930 . S
C624 N620 1.362 . S
C624 C621 1.431 . S
C624 C634 1.476 . S
H625 C619 0.929 . S
C626 O617 1.250 . S
C626 O618 1.258 . S
O627 Mn612 2.162 . S
O627 C615 1.281 . S
O628 Mn612 2.297 . S
O628 C615 1.236 . S
N629 Mn613 2.282 . S
N629 C630 1.328 . S
N629 C634 1.318 . S
C630 N629 1.328 . S
C630 C631 1.457 . S
C630 H635 0.929 . S
C631 C630 1.457 . S
C631 C632 1.291 . S
C631 H644 0.931 . S
C632 C631 1.291 . S
C632 C633 1.373 . S
C632 H645 0.929 . S
C633 C632 1.373 . S
C633 C634 1.396 . S
C633 C640 1.403 . S
C634 C624 1.476 . S
C634 N629 1.318 . S
C634 C633 1.396 . S
H635 C630 0.929 . S
O636 Mn612 2.385 . S
O636 C614 1.234 . S
O637 Mn612 2.209 . S
O637 Mn613 2.215 . S
O637 C614 1.283 . S
O638 Mn612 2.094 . S
O638 C616 1.240 . S
O639 Mn613 2.117 . S
O639 C616 1.264 . S
C640 C633 1.403 . S
C640 C641 1.399 . S
C640 H646 0.929 . S
C641 C621 1.449 . S
C641 C640 1.399 . S
C641 H647 0.930 . S
H642 C622 0.931 . S
H643 C623 0.930 . S
H644 C631 0.931 . S
H645 C632 0.929 . S
H646 C640 0.929 . S
H647 C641 0.930 . S
Mn648 O653 2.095 . S
Mn648 O663 2.162 . S
Mn648 O664 2.297 . S
Mn648 O672 2.385 . S
Mn648 O673 2.209 . S
Mn648 O674 2.094 . S
Mn649 O654 2.121 . S
Mn649 N656 2.257 . S
Mn649 N665 2.282 . S
Mn649 O673 2.215 . S
Mn649 O675 2.117 . S
C650 O672 1.234 . S
C650 O673 1.283 . S
C651 O663 1.281 . S
C651 O664 1.236 . S
C652 O674 1.240 . S
C652 O675 1.264 . S
O653 Mn648 2.095 . S
O653 C662 1.250 . S
O654 Mn649 2.121 . S
O654 C662 1.258 . S
C655 N656 1.326 . S
C655 C659 1.460 . S
C655 H661 0.929 . S
N656 Mn649 2.257 . S
N656 C655 1.326 . S
N656 C660 1.362 . S
C657 C658 1.258 . S
C657 C660 1.431 . S
C657 C677 1.449 . S
C658 C657 1.258 . S
C658 C659 1.477 . S
C658 H678 0.931 . S
C659 C655 1.460 . S
C659 C658 1.477 . S
C659 H679 0.930 . S
C660 N656 1.362 . S
C660 C657 1.431 . S
C660 C670 1.476 . S
H661 C655 0.929 . S
C662 O653 1.250 . S
C662 O654 1.258 . S
O663 Mn648 2.162 . S
O663 C651 1.281 . S
O664 Mn648 2.297 . S
O664 C651 1.236 . S
N665 Mn649 2.282 . S
N665 C666 1.332 . S
N665 C670 1.318 . S
C666 N665 1.332 . S
C666 C667 1.453 1_554 S
C666 H671 0.928 1_554 S
C667 C666 1.453 1_556 S
C667 C668 1.291 . S
C667 H680 0.931 . S
C668 C667 1.291 . S
C668 C669 1.373 1_556 S
C668 H681 0.929 . S
C669 C668 1.373 1_554 S
C669 C670 1.396 . S
C669 C676 1.403 . S
C670 C660 1.476 . S
C670 N665 1.318 . S
C670 C669 1.396 . S
H671 C666 0.928 1_556 S
O672 Mn648 2.385 . S
O672 C650 1.234 . S
O673 Mn648 2.209 . S
O673 Mn649 2.215 . S
O673 C650 1.283 . S
O674 Mn648 2.094 . S
O674 C652 1.240 . S
O675 Mn649 2.117 . S
O675 C652 1.264 . S
C676 C669 1.403 . S
C676 C677 1.399 . S
C676 H682 0.929 . S
C677 C657 1.449 . S
C677 C676 1.399 . S
C677 H683 0.930 . S
H678 C658 0.931 . S
H679 C659 0.930 . S
H680 C667 0.931 . S
H681 C668 0.929 . S
H682 C676 0.929 . S
H683 C677 0.930 . S
Mn684 O689 2.095 . S
Mn684 O699 2.162 . S
Mn684 O700 2.297 . S
Mn684 O708 2.385 . S
Mn684 O709 2.209 . S
Mn684 O710 2.094 . S
Mn685 O690 2.121 . S
Mn685 N692 2.257 . S
Mn685 N701 2.282 . S
Mn685 O709 2.215 . S
Mn685 O711 2.117 . S
C686 O708 1.234 . S
C686 O709 1.283 . S
C687 O699 1.281 . S
C687 O700 1.236 . S
C688 O710 1.240 . S
C688 O711 1.264 . S
O689 Mn684 2.095 . S
O689 C698 1.250 . S
O690 Mn685 2.121 . S
O690 C698 1.258 . S
C691 N692 1.326 . S
C691 C695 1.460 . S
C691 H697 0.929 . S
N692 Mn685 2.257 . S
N692 C691 1.326 . S
N692 C696 1.362 . S
C693 C694 1.258 . S
C693 C696 1.431 . S
C693 C713 1.449 . S
C694 C693 1.258 . S
C694 C695 1.477 . S
C694 H714 0.931 . S
C695 C691 1.460 . S
C695 C694 1.477 . S
C695 H715 0.930 . S
C696 N692 1.362 . S
C696 C693 1.431 . S
C696 C706 1.476 . S
H697 C691 0.929 . S
C698 O689 1.250 . S
C698 O690 1.258 . S
O699 Mn684 2.162 . S
O699 C687 1.281 . S
O700 Mn684 2.297 . S
O700 C687 1.236 . S
N701 Mn685 2.282 . S
N701 C702 1.328 . S
N701 C706 1.318 . S
C702 N701 1.328 . S
C702 C703 1.457 . S
C702 H707 0.929 . S
C703 C702 1.457 . S
C703 C704 1.291 . S
C703 H716 0.931 . S
C704 C703 1.291 . S
C704 C705 1.373 . S
C704 H717 0.929 . S
C705 C704 1.373 . S
C705 C706 1.396 . S
C705 C712 1.403 . S
C706 C696 1.476 . S
C706 N701 1.318 . S
C706 C705 1.396 . S
H707 C702 0.929 . S
O708 Mn684 2.385 . S
O708 C686 1.234 . S
O709 Mn684 2.209 . S
O709 Mn685 2.215 . S
O709 C686 1.283 . S
O710 Mn684 2.094 . S
O710 C688 1.240 . S
O711 Mn685 2.117 . S
O711 C688 1.264 . S
C712 C705 1.403 . S
C712 C713 1.399 . S
C712 H718 0.929 . S
C713 C693 1.449 . S
C713 C712 1.399 . S
C713 H719 0.930 . S
H714 C694 0.931 . S
H715 C695 0.930 . S
H716 C703 0.931 . S
H717 C704 0.929 . S
H718 C712 0.929 . S
H719 C713 0.930 . S
Mn720 O725 2.095 . S
Mn720 O735 2.162 . S
Mn720 O736 2.297 . S
Mn720 O744 2.385 . S
Mn720 O745 2.209 . S
Mn720 O746 2.094 . S
Mn721 O726 2.121 . S
Mn721 N728 2.257 . S
Mn721 N737 2.282 . S
Mn721 O745 2.215 . S
Mn721 O747 2.117 . S
C722 O744 1.234 . S
C722 O745 1.283 . S
C723 O735 1.281 . S
C723 O736 1.236 . S
C724 O746 1.240 . S
C724 O747 1.264 . S
O725 Mn720 2.095 . S
O725 C734 1.250 . S
O726 Mn721 2.121 . S
O726 C734 1.258 . S
C727 N728 1.326 . S
C727 C731 1.460 . S
C727 H733 0.929 . S
N728 Mn721 2.257 . S
N728 C727 1.326 . S
N728 C732 1.362 . S
C729 C730 1.258 . S
C729 C732 1.431 . S
C729 C749 1.449 . S
C730 C729 1.258 . S
C730 C731 1.477 . S
C730 H750 0.931 . S
C731 C727 1.460 . S
C731 C730 1.477 . S
C731 H751 0.930 . S
C732 N728 1.362 . S
C732 C729 1.431 . S
C732 C742 1.476 . S
H733 C727 0.929 . S
C734 O725 1.250 . S
C734 O726 1.258 . S
O735 Mn720 2.162 . S
O735 C723 1.281 . S
O736 Mn720 2.297 . S
O736 C723 1.236 . S
N737 Mn721 2.282 . S
N737 C738 1.328 . S
N737 C742 1.318 . S
C738 N737 1.328 . S
C738 C739 1.457 . S
C738 H743 0.929 . S
C739 C738 1.457 . S
C739 C740 1.291 . S
C739 H752 0.931 . S
C740 C739 1.291 . S
C740 C741 1.373 . S
C740 H753 0.929 . S
C741 C740 1.373 . S
C741 C742 1.396 . S
C741 C748 1.403 . S
C742 C732 1.476 . S
C742 N737 1.318 . S
C742 C741 1.396 . S
H743 C738 0.929 . S
O744 Mn720 2.385 . S
O744 C722 1.234 . S
O745 Mn720 2.209 . S
O745 Mn721 2.215 . S
O745 C722 1.283 . S
O746 Mn720 2.094 . S
O746 C724 1.240 . S
O747 Mn721 2.117 . S
O747 C724 1.264 . S
C748 C741 1.403 . S
C748 C749 1.399 . S
C748 H754 0.929 . S
C749 C729 1.449 . S
C749 C748 1.399 . S
C749 H755 0.930 . S
H750 C730 0.931 . S
H751 C731 0.930 . S
H752 C739 0.931 . S
H753 C740 0.929 . S
H754 C748 0.929 . S
H755 C749 0.930 . S
Mn756 O761 2.095 . S
Mn756 O771 2.162 . S
Mn756 O772 2.297 . S
Mn756 O780 2.385 1_554 S
Mn756 O781 2.209 . S
Mn756 O782 2.094 . S
Mn757 O762 2.121 . S
Mn757 N764 2.257 . S
Mn757 N773 2.282 1_554 S
Mn757 O781 2.215 . S
Mn757 O783 2.117 . S
C758 O780 1.234 . S
C758 O781 1.283 1_556 S
C759 O771 1.281 . S
C759 O772 1.236 . S
C760 O782 1.240 . S
C760 O783 1.264 . S
O761 Mn756 2.095 . S
O761 C770 1.250 . S
O762 Mn757 2.121 . S
O762 C770 1.258 . S
C763 N764 1.326 . S
C763 C767 1.460 . S
C763 H769 0.929 . S
N764 Mn757 2.257 . S
N764 C763 1.326 . S
N764 C768 1.362 1_554 S
C765 C766 1.258 . S
C765 C768 1.431 . S
C765 C785 1.449 . S
C766 C765 1.258 . S
C766 C767 1.477 1_556 S
C766 H786 0.931 . S
C767 C763 1.460 . S
C767 C766 1.477 1_554 S
C767 H787 0.930 . S
C768 N764 1.362 1_556 S
C768 C765 1.431 . S
C768 C778 1.476 . S
H769 C763 0.929 . S
C770 O761 1.250 . S
C770 O762 1.258 . S
O771 Mn756 2.162 . S
O771 C759 1.281 . S
O772 Mn756 2.297 . S
O772 C759 1.236 . S
N773 Mn757 2.282 1_556 S
N773 C774 1.328 . S
N773 C778 1.318 . S
C774 N773 1.328 . S
C774 C775 1.457 . S
C774 H779 0.929 . S
C775 C774 1.457 . S
C775 C776 1.291 . S
C775 H788 0.931 . S
C776 C775 1.291 . S
C776 C777 1.373 . S
C776 H789 0.929 . S
C777 C776 1.373 . S
C777 C778 1.396 . S
C777 C784 1.403 . S
C778 C768 1.476 . S
C778 N773 1.318 . S
C778 C777 1.396 . S
H779 C774 0.929 . S
O780 Mn756 2.385 1_556 S
O780 C758 1.234 . S
O781 Mn756 2.209 . S
O781 Mn757 2.215 . S
O781 C758 1.283 1_554 S
O782 Mn756 2.094 . S
O782 C760 1.240 . S
O783 Mn757 2.117 . S
O783 C760 1.264 . S
C784 C777 1.403 . S
C784 C785 1.399 . S
C784 H790 0.929 . S
C785 C765 1.449 . S
C785 C784 1.399 . S
C785 H791 0.930 . S
H786 C766 0.931 . S
H787 C767 0.930 . S
H788 C775 0.931 . S
H789 C776 0.929 . S
H790 C784 0.929 . S
H791 C785 0.930 . S
Mn792 O797 2.095 . S
Mn792 O807 2.162 . S
Mn792 O808 2.297 . S
Mn792 O816 2.385 1_554 S
Mn792 O817 2.209 . S
Mn792 O818 2.094 . S
Mn793 O798 2.121 . S
Mn793 N800 2.257 . S
Mn793 N809 2.282 1_554 S
Mn793 O817 2.215 . S
Mn793 O819 2.117 . S
C794 O816 1.234 . S
C794 O817 1.283 1_556 S
C795 O807 1.281 . S
C795 O808 1.236 . S
C796 O818 1.240 . S
C796 O819 1.264 . S
O797 Mn792 2.095 . S
O797 C806 1.250 . S
O798 Mn793 2.121 . S
O798 C806 1.258 . S
C799 N800 1.326 . S
C799 C803 1.460 . S
C799 H805 0.929 . S
N800 Mn793 2.257 . S
N800 C799 1.326 . S
N800 C804 1.362 1_554 S
C801 C802 1.258 . S
C801 C804 1.431 . S
C801 C821 1.449 . S
C802 C801 1.258 . S
C802 C803 1.477 1_556 S
C802 H822 0.931 . S
C803 C799 1.460 . S
C803 C802 1.477 1_554 S
C803 H823 0.930 . S
C804 N800 1.362 1_556 S
C804 C801 1.431 . S
C804 C814 1.476 . S
H805 C799 0.929 . S
C806 O797 1.250 . S
C806 O798 1.258 . S
O807 Mn792 2.162 . S
O807 C795 1.281 . S
O808 Mn792 2.297 . S
O808 C795 1.236 . S
N809 Mn793 2.282 1_556 S
N809 C810 1.328 . S
N809 C814 1.318 . S
C810 N809 1.328 . S
C810 C811 1.457 . S
C810 H815 0.929 . S
C811 C810 1.457 . S
C811 C812 1.291 . S
C811 H824 0.931 . S
C812 C811 1.291 . S
C812 C813 1.373 . S
C812 H825 0.929 . S
C813 C812 1.373 . S
C813 C814 1.396 . S
C813 C820 1.403 . S
C814 C804 1.476 . S
C814 N809 1.318 . S
C814 C813 1.396 . S
H815 C810 0.929 . S
O816 Mn792 2.385 1_556 S
O816 C794 1.234 . S
O817 Mn792 2.209 . S
O817 Mn793 2.215 . S
O817 C794 1.283 1_554 S
O818 Mn792 2.094 . S
O818 C796 1.240 . S
O819 Mn793 2.117 . S
O819 C796 1.264 . S
C820 C813 1.403 . S
C820 C821 1.399 . S
C820 H826 0.929 . S
C821 C801 1.449 . S
C821 C820 1.399 . S
C821 H827 0.930 . S
H822 C802 0.931 . S
H823 C803 0.930 . S
H824 C811 0.931 . S
H825 C812 0.929 . S
H826 C820 0.929 . S
H827 C821 0.930 . S
Mn828 O833 2.095 . S
Mn828 O843 2.162 1_554 S
Mn828 O844 2.297 1_554 S
Mn828 O852 2.385 . S
Mn828 O853 2.209 . S
Mn828 O854 2.094 . S
Mn829 O834 2.121 . S
Mn829 N836 2.257 . S
Mn829 N845 2.282 . S
Mn829 O853 2.215 . S
Mn829 O855 2.117 . S
C830 O852 1.234 . S
C830 O853 1.283 . S
C831 O843 1.281 . S
C831 O844 1.236 . S
C832 O854 1.240 . S
C832 O855 1.264 . S
O833 Mn828 2.095 . S
O833 C842 1.250 . S
O834 Mn829 2.121 . S
O834 C842 1.258 . S
C835 N836 1.326 . S
C835 C839 1.460 . S
C835 H841 0.929 . S
N836 Mn829 2.257 . S
N836 C835 1.326 . S
N836 C840 1.362 . S
C837 C838 1.258 . S
C837 C840 1.431 . S
C837 C857 1.449 . S
C838 C837 1.258 . S
C838 C839 1.477 . S
C838 H858 0.931 . S
C839 C835 1.460 . S
C839 C838 1.477 . S
C839 H859 0.930 . S
C840 N836 1.362 . S
C840 C837 1.431 . S
C840 C850 1.476 . S
H841 C835 0.929 . S
C842 O833 1.250 . S
C842 O834 1.258 . S
O843 Mn828 2.162 1_556 S
O843 C831 1.281 . S
O844 Mn828 2.297 1_556 S
O844 C831 1.236 . S
N845 Mn829 2.282 . S
N845 C846 1.328 . S
N845 C850 1.318 . S
C846 N845 1.328 . S
C846 C847 1.457 . S
C846 H851 0.929 . S
C847 C846 1.457 . S
C847 C848 1.291 . S
C847 H860 0.931 . S
C848 C847 1.291 . S
C848 C849 1.373 . S
C848 H861 0.929 . S
C849 C848 1.373 . S
C849 C850 1.396 . S
C849 C856 1.403 . S
C850 C840 1.476 . S
C850 N845 1.318 . S
C850 C849 1.396 . S
H851 C846 0.929 . S
O852 Mn828 2.385 . S
O852 C830 1.234 . S
O853 Mn828 2.209 . S
O853 Mn829 2.215 . S
O853 C830 1.283 . S
O854 Mn828 2.094 . S
O854 C832 1.240 . S
O855 Mn829 2.117 . S
O855 C832 1.264 . S
C856 C849 1.403 . S
C856 C857 1.399 . S
C856 H862 0.929 . S
C857 C837 1.449 . S
C857 C856 1.399 . S
C857 H863 0.930 . S
H858 C838 0.931 . S
H859 C839 0.930 . S
H860 C847 0.931 . S
H861 C848 0.929 . S
H862 C856 0.929 . S
H863 C857 0.930 . S
Mn864 O869 2.095 . S
Mn864 O879 2.162 . S
Mn864 O880 2.297 . S
Mn864 O888 2.385 . S
Mn864 O889 2.209 . S
Mn864 O890 2.094 . S
Mn865 O870 2.121 . S
Mn865 N872 2.257 . S
Mn865 N881 2.282 . S
Mn865 O889 2.215 . S
Mn865 O891 2.117 . S
C866 O888 1.234 . S
C866 O889 1.283 . S
C867 O879 1.281 . S
C867 O880 1.236 . S
C868 O890 1.240 . S
C868 O891 1.264 . S
O869 Mn864 2.095 . S
O869 C878 1.250 . S
O870 Mn865 2.121 . S
O870 C878 1.258 . S
C871 N872 1.326 . S
C871 C875 1.460 . S
C871 H877 0.929 . S
N872 Mn865 2.257 . S
N872 C871 1.326 . S
N872 C876 1.362 . S
C873 C874 1.258 . S
C873 C876 1.431 . S
C873 C893 1.449 . S
C874 C873 1.258 . S
C874 C875 1.477 . S
C874 H894 0.931 . S
C875 C871 1.460 . S
C875 C874 1.477 . S
C875 H895 0.930 . S
C876 N872 1.362 . S
C876 C873 1.431 . S
C876 C886 1.476 . S
H877 C871 0.929 . S
C878 O869 1.250 . S
C878 O870 1.258 . S
O879 Mn864 2.162 . S
O879 C867 1.281 . S
O880 Mn864 2.297 . S
O880 C867 1.236 . S
N881 Mn865 2.282 . S
N881 C882 1.328 . S
N881 C886 1.318 . S
C882 N881 1.328 . S
C882 C883 1.457 . S
C882 H887 0.929 . S
C883 C882 1.457 . S
C883 C884 1.291 . S
C883 H896 0.931 . S
C884 C883 1.291 . S
C884 C885 1.373 . S
C884 H897 0.929 . S
C885 C884 1.373 . S
C885 C886 1.396 . S
C885 C892 1.403 . S
C886 C876 1.476 . S
C886 N881 1.318 . S
C886 C885 1.396 . S
H887 C882 0.929 . S
O888 Mn864 2.385 . S
O888 C866 1.234 . S
O889 Mn864 2.209 . S
O889 Mn865 2.215 . S
O889 C866 1.283 . S
O890 Mn864 2.094 . S
O890 C868 1.240 . S
O891 Mn865 2.117 . S
O891 C868 1.264 . S
C892 C885 1.403 . S
C892 C893 1.399 . S
C892 H898 0.929 . S
C893 C873 1.449 . S
C893 C892 1.399 . S
C893 H899 0.930 . S
H894 C874 0.931 . S
H895 C875 0.930 . S
H896 C883 0.931 . S
H897 C884 0.929 . S
H898 C892 0.929 . S
H899 C893 0.930 . S
Mn900 O905 2.095 . S
Mn900 O915 2.162 . S
Mn900 O916 2.297 . S
Mn900 O924 2.385 . S
Mn900 O925 2.209 . S
Mn900 O926 2.094 . S
Mn901 O906 2.121 . S
Mn901 N908 2.257 . S
Mn901 N917 2.282 . S
Mn901 O925 2.215 . S
Mn901 O927 2.117 . S
C902 O924 1.234 . S
C902 O925 1.283 . S
C903 O915 1.281 . S
C903 O916 1.236 . S
C904 O926 1.240 . S
C904 O927 1.264 . S
O905 Mn900 2.095 . S
O905 C914 1.250 . S
O906 Mn901 2.121 . S
O906 C914 1.258 . S
C907 N908 1.326 . S
C907 C911 1.460 . S
C907 H913 0.929 . S
N908 Mn901 2.257 . S
N908 C907 1.326 . S
N908 C912 1.362 . S
C909 C910 1.258 . S
C909 C912 1.431 . S
C909 C929 1.449 . S
C910 C909 1.258 . S
C910 C911 1.477 . S
C910 H930 0.931 . S
C911 C907 1.460 . S
C911 C910 1.477 . S
C911 H931 0.930 . S
C912 N908 1.362 . S
C912 C909 1.431 . S
C912 C922 1.476 . S
H913 C907 0.929 . S
C914 O905 1.250 . S
C914 O906 1.258 . S
O915 Mn900 2.162 . S
O915 C903 1.281 . S
O916 Mn900 2.297 . S
O916 C903 1.236 . S
N917 Mn901 2.282 . S
N917 C918 1.328 . S
N917 C922 1.318 . S
C918 N917 1.328 . S
C918 C919 1.457 . S
C918 H923 0.929 . S
C919 C918 1.457 . S
C919 C920 1.291 . S
C919 H932 0.931 . S
C920 C919 1.291 . S
C920 C921 1.373 . S
C920 H933 0.929 . S
C921 C920 1.373 . S
C921 C922 1.396 . S
C921 C928 1.403 . S
C922 C912 1.476 . S
C922 N917 1.318 . S
C922 C921 1.396 . S
H923 C918 0.929 . S
O924 Mn900 2.385 . S
O924 C902 1.234 . S
O925 Mn900 2.209 . S
O925 Mn901 2.215 . S
O925 C902 1.283 . S
O926 Mn900 2.094 . S
O926 C904 1.240 . S
O927 Mn901 2.117 . S
O927 C904 1.264 . S
C928 C921 1.403 . S
C928 C929 1.399 . S
C928 H934 0.929 . S
C929 C909 1.449 . S
C929 C928 1.399 . S
C929 H935 0.930 . S
H930 C910 0.931 . S
H931 C911 0.930 . S
H932 C919 0.931 . S
H933 C920 0.929 . S
H934 C928 0.929 . S
H935 C929 0.930 . S
Mn936 O941 2.095 . S
Mn936 O951 2.162 . S
Mn936 O952 2.297 . S
Mn936 O960 2.385 . S
Mn936 O961 2.209 . S
Mn936 O962 2.094 . S
Mn937 O942 2.121 . S
Mn937 N944 2.257 . S
Mn937 N953 2.282 . S
Mn937 O961 2.215 . S
Mn937 O963 2.117 . S
C938 O960 1.234 . S
C938 O961 1.283 . S
C939 O951 1.281 . S
C939 O952 1.236 . S
C940 O962 1.240 . S
C940 O963 1.264 . S
O941 Mn936 2.095 . S
O941 C950 1.250 . S
O942 Mn937 2.121 . S
O942 C950 1.258 . S
C943 N944 1.326 . S
C943 C947 1.460 . S
C943 H949 0.929 . S
N944 Mn937 2.257 . S
N944 C943 1.326 . S
N944 C948 1.362 . S
C945 C946 1.258 . S
C945 C948 1.431 . S
C945 C965 1.449 . S
C946 C945 1.258 . S
C946 C947 1.477 . S
C946 H966 0.931 . S
C947 C943 1.460 . S
C947 C946 1.477 . S
C947 H967 0.930 . S
C948 N944 1.362 . S
C948 C945 1.431 . S
C948 C958 1.476 . S
H949 C943 0.929 . S
C950 O941 1.250 . S
C950 O942 1.258 . S
O951 Mn936 2.162 . S
O951 C939 1.281 . S
O952 Mn936 2.297 . S
O952 C939 1.236 . S
N953 Mn937 2.282 . S
N953 C954 1.328 . S
N953 C958 1.318 . S
C954 N953 1.328 . S
C954 C955 1.457 . S
C954 H959 0.929 . S
C955 C954 1.457 . S
C955 C956 1.291 . S
C955 H968 0.931 . S
C956 C955 1.291 . S
C956 C957 1.373 . S
C956 H969 0.929 . S
C957 C956 1.373 . S
C957 C958 1.396 . S
C957 C964 1.403 . S
C958 C948 1.476 . S
C958 N953 1.318 . S
C958 C957 1.396 . S
H959 C954 0.929 . S
O960 Mn936 2.385 . S
O960 C938 1.234 . S
O961 Mn936 2.209 . S
O961 Mn937 2.215 . S
O961 C938 1.283 . S
O962 Mn936 2.094 . S
O962 C940 1.240 . S
O963 Mn937 2.117 . S
O963 C940 1.264 . S
C964 C957 1.403 . S
C964 C965 1.399 . S
C964 H970 0.929 . S
C965 C945 1.449 . S
C965 C964 1.399 . S
C965 H971 0.930 . S
H966 C946 0.931 . S
H967 C947 0.930 . S
H968 C955 0.931 . S
H969 C956 0.929 . S
H970 C964 0.929 . S
H971 C965 0.930 . S
Mn972 O977 2.095 . S
Mn972 O987 2.162 . S
Mn972 O988 2.297 . S
Mn972 O996 2.385 1_556 S
Mn972 O997 2.209 . S
Mn972 O998 2.094 . S
Mn973 O978 2.121 . S
Mn973 N980 2.257 . S
Mn973 N989 2.282 1_556 S
Mn973 O997 2.215 . S
Mn973 O999 2.117 . S
C974 O996 1.234 . S
C974 O997 1.283 1_554 S
C975 O987 1.281 . S
C975 O988 1.236 . S
C976 O998 1.240 . S
C976 O999 1.264 . S
O977 Mn972 2.095 . S
O977 C986 1.250 . S
O978 Mn973 2.121 . S
O978 C986 1.258 . S
C979 N980 1.326 . S
C979 C983 1.460 . S
C979 H985 0.929 . S
N980 Mn973 2.257 . S
N980 C979 1.326 . S
N980 C984 1.362 1_556 S
C981 C982 1.258 . S
C981 C984 1.431 . S
C981 C1001 1.449 . S
C982 C981 1.258 . S
C982 C983 1.477 1_554 S
C982 H1002 0.931 . S
C983 C979 1.460 . S
C983 C982 1.477 1_556 S
C983 H1003 0.930 . S
C984 N980 1.362 1_554 S
C984 C981 1.431 . S
C984 C994 1.476 . S
H985 C979 0.929 . S
C986 O977 1.250 . S
C986 O978 1.258 . S
O987 Mn972 2.162 . S
O987 C975 1.281 . S
O988 Mn972 2.297 . S
O988 C975 1.236 . S
N989 Mn973 2.282 1_554 S
N989 C990 1.328 . S
N989 C994 1.318 . S
C990 N989 1.328 . S
C990 C991 1.457 . S
C990 H995 0.929 . S
C991 C990 1.457 . S
C991 C992 1.291 . S
C991 H1004 0.931 . S
C992 C991 1.291 . S
C992 C993 1.373 . S
C992 H1005 0.929 . S
C993 C992 1.373 . S
C993 C994 1.396 . S
C993 C1000 1.403 . S
C994 C984 1.476 . S
C994 N989 1.318 . S
C994 C993 1.396 . S
H995 C990 0.929 . S
O996 Mn972 2.385 1_554 S
O996 C974 1.234 . S
O997 Mn972 2.209 . S
O997 Mn973 2.215 . S
O997 C974 1.283 1_556 S
O998 Mn972 2.094 . S
O998 C976 1.240 . S
O999 Mn973 2.117 . S
O999 C976 1.264 . S
C1000 C993 1.403 . S
C1000 C1001 1.399 . S
C1000 H1006 0.929 . S
C1001 C981 1.449 . S
C1001 C1000 1.399 . S
C1001 H1007 0.930 . S
H1002 C982 0.931 . S
H1003 C983 0.930 . S
H1004 C991 0.931 . S
H1005 C992 0.929 . S
H1006 C1000 0.929 . S
H1007 C1001 0.930 . S
Mn1008 O1013 2.095 . S
Mn1008 O1023 2.162 . S
Mn1008 O1024 2.297 . S
Mn1008 O1032 2.385 1_556 S
Mn1008 O1033 2.209 . S
Mn1008 O1034 2.094 . S
Mn1009 O1014 2.121 . S
Mn1009 N1016 2.257 . S
Mn1009 N1025 2.282 1_556 S
Mn1009 O1033 2.215 . S
Mn1009 O1035 2.117 . S
C1010 O1032 1.234 . S
C1010 O1033 1.283 1_554 S
C1011 O1023 1.281 . S
C1011 O1024 1.236 . S
C1012 O1034 1.240 . S
C1012 O1035 1.264 . S
O1013 Mn1008 2.095 . S
O1013 C1022 1.250 . S
O1014 Mn1009 2.121 . S
O1014 C1022 1.258 . S
C1015 N1016 1.326 . S
C1015 C1019 1.460 . S
C1015 H1021 0.929 . S
N1016 Mn1009 2.257 . S
N1016 C1015 1.326 . S
N1016 C1020 1.362 1_556 S
C1017 C1018 1.258 . S
C1017 C1020 1.431 . S
C1017 C1037 1.449 . S
C1018 C1017 1.258 . S
C1018 C1019 1.477 1_554 S
C1018 H1038 0.931 . S
C1019 C1015 1.460 . S
C1019 C1018 1.477 1_556 S
C1019 H1039 0.930 . S
C1020 N1016 1.362 1_554 S
C1020 C1017 1.431 . S
C1020 C1030 1.476 . S
H1021 C1015 0.929 . S
C1022 O1013 1.250 . S
C1022 O1014 1.258 . S
O1023 Mn1008 2.162 . S
O1023 C1011 1.281 . S
O1024 Mn1008 2.297 . S
O1024 C1011 1.236 . S
N1025 Mn1009 2.282 1_554 S
N1025 C1026 1.328 . S
N1025 C1030 1.318 . S
C1026 N1025 1.328 . S
C1026 C1027 1.457 . S
C1026 H1031 0.929 . S
C1027 C1026 1.457 . S
C1027 C1028 1.291 . S
C1027 H1040 0.931 . S
C1028 C1027 1.291 . S
C1028 C1029 1.373 . S
C1028 H1041 0.929 . S
C1029 C1028 1.373 . S
C1029 C1030 1.396 . S
C1029 C1036 1.403 . S
C1030 C1020 1.476 . S
C1030 N1025 1.318 . S
C1030 C1029 1.396 . S
H1031 C1026 0.929 . S
O1032 Mn1008 2.385 1_554 S
O1032 C1010 1.234 . S
O1033 Mn1008 2.209 . S
O1033 Mn1009 2.215 . S
O1033 C1010 1.283 1_556 S
O1034 Mn1008 2.094 . S
O1034 C1012 1.240 . S
O1035 Mn1009 2.117 . S
O1035 C1012 1.264 . S
C1036 C1029 1.403 . S
C1036 C1037 1.399 . S
C1036 H1042 0.929 . S
C1037 C1017 1.449 . S
C1037 C1036 1.399 . S
C1037 H1043 0.930 . S
H1038 C1018 0.931 . S
H1039 C1019 0.930 . S
H1040 C1027 0.931 . S
H1041 C1028 0.929 . S
H1042 C1036 0.929 . S
H1043 C1037 0.930 . S
Mn1044 O1049 2.095 . S
Mn1044 O1059 2.162 . S
Mn1044 O1060 2.297 . S
Mn1044 O1068 2.385 1_556 S
Mn1044 O1069 2.209 . S
Mn1044 O1070 2.094 . S
Mn1045 O1050 2.121 . S
Mn1045 N1052 2.257 . S
Mn1045 N1061 2.282 1_556 S
Mn1045 O1069 2.215 . S
Mn1045 O1071 2.117 . S
C1046 O1068 1.234 . S
C1046 O1069 1.283 1_554 S
C1047 O1059 1.281 . S
C1047 O1060 1.236 . S
C1048 O1070 1.240 . S
C1048 O1071 1.264 . S
O1049 Mn1044 2.095 . S
O1049 C1058 1.250 . S
O1050 Mn1045 2.121 . S
O1050 C1058 1.258 . S
C1051 N1052 1.326 . S
C1051 C1055 1.460 . S
C1051 H1057 0.929 . S
N1052 Mn1045 2.257 . S
N1052 C1051 1.326 . S
N1052 C1056 1.362 1_556 S
C1053 C1054 1.258 . S
C1053 C1056 1.431 . S
C1053 C1073 1.449 . S
C1054 C1053 1.258 . S
C1054 C1055 1.477 1_554 S
C1054 H1074 0.931 . S
C1055 C1051 1.460 . S
C1055 C1054 1.477 1_556 S
C1055 H1075 0.930 . S
C1056 N1052 1.362 1_554 S
C1056 C1053 1.431 . S
C1056 C1066 1.476 . S
H1057 C1051 0.929 . S
C1058 O1049 1.250 . S
C1058 O1050 1.258 . S
O1059 Mn1044 2.162 . S
O1059 C1047 1.281 . S
O1060 Mn1044 2.297 . S
O1060 C1047 1.236 . S
N1061 Mn1045 2.282 1_554 S
N1061 C1062 1.328 . S
N1061 C1066 1.318 . S
C1062 N1061 1.328 . S
C1062 C1063 1.457 . S
C1062 H1067 0.929 . S
C1063 C1062 1.457 . S
C1063 C1064 1.291 . S
C1063 H1076 0.931 . S
C1064 C1063 1.291 . S
C1064 C1065 1.373 . S
C1064 H1077 0.929 . S
C1065 C1064 1.373 . S
C1065 C1066 1.396 . S
C1065 C1072 1.403 . S
C1066 C1056 1.476 . S
C1066 N1061 1.318 . S
C1066 C1065 1.396 . S
H1067 C1062 0.929 . S
O1068 Mn1044 2.385 1_554 S
O1068 C1046 1.234 . S
O1069 Mn1044 2.209 . S
O1069 Mn1045 2.215 . S
O1069 C1046 1.283 1_556 S
O1070 Mn1044 2.094 . S
O1070 C1048 1.240 . S
O1071 Mn1045 2.117 . S
O1071 C1048 1.264 . S
C1072 C1065 1.403 . S
C1072 C1073 1.399 . S
C1072 H1078 0.929 . S
C1073 C1053 1.449 . S
C1073 C1072 1.399 . S
C1073 H1079 0.930 . S
H1074 C1054 0.931 . S
H1075 C1055 0.930 . S
H1076 C1063 0.931 . S
H1077 C1064 0.929 . S
H1078 C1072 0.929 . S
H1079 C1073 0.930 . S
Mn1080 O1085 2.095 . S
Mn1080 O1095 2.162 . S
Mn1080 O1096 2.297 . S
Mn1080 O1104 2.385 . S
Mn1080 O1105 2.209 . S
Mn1080 O1106 2.094 . S
Mn1081 O1086 2.121 . S
Mn1081 N1088 2.257 . S
Mn1081 N1097 2.282 . S
Mn1081 O1105 2.215 . S
Mn1081 O1107 2.117 . S
C1082 O1104 1.234 . S
C1082 O1105 1.283 . S
C1083 O1095 1.281 . S
C1083 O1096 1.236 . S
C1084 O1106 1.240 . S
C1084 O1107 1.264 . S
O1085 Mn1080 2.095 . S
O1085 C1094 1.250 . S
O1086 Mn1081 2.121 . S
O1086 C1094 1.258 . S
C1087 N1088 1.326 . S
C1087 C1091 1.460 . S
C1087 H1093 0.929 . S
N1088 Mn1081 2.257 . S
N1088 C1087 1.326 . S
N1088 C1092 1.362 . S
C1089 C1090 1.258 . S
C1089 C1092 1.431 . S
C1089 C1109 1.449 . S
C1090 C1089 1.258 . S
C1090 C1091 1.477 . S
C1090 H1110 0.931 . S
C1091 C1087 1.460 . S
C1091 C1090 1.477 . S
C1091 H1111 0.930 . S
C1092 N1088 1.362 . S
C1092 C1089 1.431 . S
C1092 C1102 1.476 . S
H1093 C1087 0.929 . S
C1094 O1085 1.250 . S
C1094 O1086 1.258 . S
O1095 Mn1080 2.162 . S
O1095 C1083 1.281 . S
O1096 Mn1080 2.297 . S
O1096 C1083 1.236 . S
N1097 Mn1081 2.282 . S
N1097 C1098 1.328 . S
N1097 C1102 1.318 . S
C1098 N1097 1.328 . S
C1098 C1099 1.457 . S
C1098 H1103 0.929 . S
C1099 C1098 1.457 . S
C1099 C1100 1.291 . S
C1099 H1112 0.931 . S
C1100 C1099 1.291 . S
C1100 C1101 1.373 . S
C1100 H1113 0.929 . S
C1101 C1100 1.373 . S
C1101 C1102 1.396 . S
C1101 C1108 1.403 . S
C1102 C1092 1.476 . S
C1102 N1097 1.318 . S
C1102 C1101 1.396 . S
H1103 C1098 0.929 . S
O1104 Mn1080 2.385 . S
O1104 C1082 1.234 . S
O1105 Mn1080 2.209 . S
O1105 Mn1081 2.215 . S
O1105 C1082 1.283 . S
O1106 Mn1080 2.094 . S
O1106 C1084 1.240 . S
O1107 Mn1081 2.117 . S
O1107 C1084 1.264 . S
C1108 C1101 1.403 . S
C1108 C1109 1.399 . S
C1108 H1114 0.961 . S
C1109 C1089 1.449 . S
C1109 C1108 1.399 . S
C1109 H1115 0.930 . S
H1110 C1090 0.931 . S
H1111 C1091 0.930 . S
H1112 C1099 0.931 . S
H1113 C1100 0.929 . S
H1114 C1108 0.961 . S
H1115 C1109 0.930 . S
Mn1116 O1121 2.095 . S
Mn1116 O1131 2.162 . S
Mn1116 O1132 2.297 . S
Mn1116 O1140 2.385 . S
Mn1116 O1141 2.209 . S
Mn1116 O1142 2.094 . S
Mn1117 O1122 2.121 . S
Mn1117 N1124 2.257 . S
Mn1117 N1133 2.282 . S
Mn1117 O1141 2.215 . S
Mn1117 O1143 2.117 . S
C1118 O1140 1.234 . S
C1118 O1141 1.283 . S
C1119 O1131 1.281 . S
C1119 O1132 1.236 . S
C1120 O1142 1.240 . S
C1120 O1143 1.264 . S
O1121 Mn1116 2.095 . S
O1121 C1130 1.250 . S
O1122 Mn1117 2.121 . S
O1122 C1130 1.258 . S
C1123 N1124 1.326 . S
C1123 C1127 1.460 . S
C1123 H1129 0.929 . S
N1124 Mn1117 2.257 . S
N1124 C1123 1.326 . S
N1124 C1128 1.362 . S
C1125 C1126 1.258 . S
C1125 C1128 1.431 . S
C1125 C1145 1.449 . S
C1126 C1125 1.258 . S
C1126 C1127 1.477 . S
C1126 H1146 0.931 . S
C1127 C1123 1.460 . S
C1127 C1126 1.477 . S
C1127 H1147 0.930 . S
C1128 N1124 1.362 . S
C1128 C1125 1.431 . S
C1128 C1138 1.476 . S
H1129 C1123 0.929 . S
C1130 O1121 1.250 . S
C1130 O1122 1.258 . S
O1131 Mn1116 2.162 . S
O1131 C1119 1.281 . S
O1132 Mn1116 2.297 . S
O1132 C1119 1.236 . S
N1133 Mn1117 2.282 . S
N1133 C1134 1.328 . S
N1133 C1138 1.318 . S
C1134 N1133 1.328 . S
C1134 C1135 1.457 . S
C1134 H1139 0.929 . S
C1135 C1134 1.457 . S
C1135 C1136 1.291 . S
C1135 H1148 0.931 . S
C1136 C1135 1.291 . S
C1136 C1137 1.373 . S
C1136 H1149 0.929 . S
C1137 C1136 1.373 . S
C1137 C1138 1.396 . S
C1137 C1144 1.403 . S
C1138 C1128 1.476 . S
C1138 N1133 1.318 . S
C1138 C1137 1.396 . S
H1139 C1134 0.929 . S
O1140 Mn1116 2.385 . S
O1140 C1118 1.234 . S
O1141 Mn1116 2.209 . S
O1141 Mn1117 2.215 . S
O1141 C1118 1.283 . S
O1142 Mn1116 2.094 . S
O1142 C1120 1.240 . S
O1143 Mn1117 2.117 . S
O1143 C1120 1.264 . S
C1144 C1137 1.403 . S
C1144 C1145 1.399 . S
C1144 H1150 0.929 . S
C1145 C1125 1.449 . S
C1145 C1144 1.399 . S
C1145 H1151 0.930 . S
H1146 C1126 0.931 . S
H1147 C1127 0.930 . S
H1148 C1135 0.931 . S
H1149 C1136 0.929 . S
H1150 C1144 0.929 . S
H1151 C1145 0.930 . S
Mn1152 O1157 2.095 . S
Mn1152 O1167 2.162 . S
Mn1152 O1168 2.297 . S
Mn1152 O1176 2.385 . S
Mn1152 O1177 2.209 . S
Mn1152 O1178 2.094 . S
Mn1153 O1158 2.121 . S
Mn1153 N1160 2.257 . S
Mn1153 N1169 2.282 . S
Mn1153 O1177 2.215 . S
Mn1153 O1179 2.117 . S
C1154 O1176 1.234 . S
C1154 O1177 1.283 . S
C1155 O1167 1.281 . S
C1155 O1168 1.236 . S
C1156 O1178 1.240 . S
C1156 O1179 1.264 . S
O1157 Mn1152 2.095 . S
O1157 C1166 1.250 . S
O1158 Mn1153 2.121 . S
O1158 C1166 1.258 . S
C1159 N1160 1.326 . S
C1159 C1163 1.460 . S
C1159 H1165 0.929 . S
N1160 Mn1153 2.257 . S
N1160 C1159 1.326 . S
N1160 C1164 1.362 . S
C1161 C1162 1.258 . S
C1161 C1164 1.431 . S
C1161 C1181 1.449 . S
C1162 C1161 1.258 . S
C1162 C1163 1.477 . S
C1162 H1182 0.931 . S
C1163 C1159 1.460 . S
C1163 C1162 1.477 . S
C1163 H1183 0.930 . S
C1164 N1160 1.362 . S
C1164 C1161 1.431 . S
C1164 C1174 1.476 . S
H1165 C1159 0.929 . S
C1166 O1157 1.250 . S
C1166 O1158 1.258 . S
O1167 Mn1152 2.162 . S
O1167 C1155 1.281 . S
O1168 Mn1152 2.297 . S
O1168 C1155 1.236 . S
N1169 Mn1153 2.282 . S
N1169 C1170 1.328 . S
N1169 C1174 1.318 . S
C1170 N1169 1.328 . S
C1170 C1171 1.457 . S
C1170 H1175 0.929 . S
C1171 C1170 1.457 . S
C1171 C1172 1.291 . S
C1171 H1184 0.931 . S
C1172 C1171 1.291 . S
C1172 C1173 1.373 . S
C1172 H1185 0.929 . S
C1173 C1172 1.373 . S
C1173 C1174 1.396 . S
C1173 C1180 1.403 . S
C1174 C1164 1.476 . S
C1174 N1169 1.318 . S
C1174 C1173 1.396 . S
H1175 C1170 0.929 . S
O1176 Mn1152 2.385 . S
O1176 C1154 1.234 . S
O1177 Mn1152 2.209 . S
O1177 Mn1153 2.215 . S
O1177 C1154 1.283 . S
O1178 Mn1152 2.094 . S
O1178 C1156 1.240 . S
O1179 Mn1153 2.117 . S
O1179 C1156 1.264 . S
C1180 C1173 1.403 . S
C1180 C1181 1.399 . S
C1180 H1186 0.929 . S
C1181 C1161 1.449 . S
C1181 C1180 1.399 . S
C1181 H1187 0.930 . S
H1182 C1162 0.931 . S
H1183 C1163 0.930 . S
H1184 C1171 0.931 . S
H1185 C1172 0.929 . S
H1186 C1180 0.929 . S
H1187 C1181 0.930 . S
Mn1188 O1193 2.095 . S
Mn1188 O1203 2.162 . S
Mn1188 O1204 2.297 . S
Mn1188 O1212 2.385 . S
Mn1188 O1213 2.209 . S
Mn1188 O1214 2.094 . S
Mn1189 O1194 2.121 . S
Mn1189 N1196 2.257 . S
Mn1189 N1205 2.282 . S
Mn1189 O1213 2.215 . S
Mn1189 O1215 2.117 . S
C1190 O1212 1.234 . S
C1190 O1213 1.283 . S
C1191 O1203 1.281 . S
C1191 O1204 1.236 . S
C1192 O1214 1.240 . S
C1192 O1215 1.264 . S
O1193 Mn1188 2.095 . S
O1193 C1202 1.250 . S
O1194 Mn1189 2.121 . S
O1194 C1202 1.258 . S
C1195 N1196 1.326 . S
C1195 C1199 1.460 . S
C1195 H1201 0.929 . S
N1196 Mn1189 2.257 . S
N1196 C1195 1.326 . S
N1196 C1200 1.362 . S
C1197 C1198 1.258 . S
C1197 C1200 1.431 . S
C1197 C1217 1.449 . S
C1198 C1197 1.258 . S
C1198 C1199 1.477 . S
C1198 H1218 0.931 . S
C1199 C1195 1.460 . S
C1199 C1198 1.477 . S
C1199 H1219 0.930 . S
C1200 N1196 1.362 . S
C1200 C1197 1.431 . S
C1200 C1210 1.476 . S
H1201 C1195 0.929 . S
C1202 O1193 1.250 . S
C1202 O1194 1.258 . S
O1203 Mn1188 2.162 . S
O1203 C1191 1.281 . S
O1204 Mn1188 2.297 . S
O1204 C1191 1.236 . S
N1205 Mn1189 2.282 . S
N1205 C1206 1.328 . S
N1205 C1210 1.318 . S
C1206 N1205 1.328 . S
C1206 C1207 1.457 . S
C1206 H1211 0.929 . S
C1207 C1206 1.457 . S
C1207 C1208 1.291 . S
C1207 H1220 0.931 . S
C1208 C1207 1.291 . S
C1208 C1209 1.373 . S
C1208 H1221 0.929 . S
C1209 C1208 1.373 . S
C1209 C1210 1.396 . S
C1209 C1216 1.403 . S
C1210 C1200 1.476 . S
C1210 N1205 1.318 . S
C1210 C1209 1.396 . S
H1211 C1206 0.929 . S
O1212 Mn1188 2.385 . S
O1212 C1190 1.234 . S
O1213 Mn1188 2.209 . S
O1213 Mn1189 2.215 . S
O1213 C1190 1.283 . S
O1214 Mn1188 2.094 . S
O1214 C1192 1.240 . S
O1215 Mn1189 2.117 . S
O1215 C1192 1.264 . S
C1216 C1209 1.403 . S
C1216 C1217 1.399 . S
C1216 H1222 0.929 . S
C1217 C1197 1.449 . S
C1217 C1216 1.399 . S
C1217 H1223 0.930 . S
H1218 C1198 0.931 . S
H1219 C1199 0.930 . S
H1220 C1207 0.931 . S
H1221 C1208 0.929 . S
H1222 C1216 0.929 . S
H1223 C1217 0.930 . S
Mn1224 O1229 2.095 . S
Mn1224 O1239 2.162 . S
Mn1224 O1240 2.297 . S
Mn1224 O1248 2.385 . S
Mn1224 O1249 2.209 . S
Mn1224 O1250 2.094 . S
Mn1225 O1230 2.121 . S
Mn1225 N1232 2.257 . S
Mn1225 N1241 2.282 . S
Mn1225 O1249 2.215 . S
Mn1225 O1251 2.117 . S
C1226 O1248 1.234 . S
C1226 O1249 1.283 . S
C1227 O1239 1.281 . S
C1227 O1240 1.236 . S
C1228 O1250 1.240 . S
C1228 O1251 1.264 . S
O1229 Mn1224 2.095 . S
O1229 C1238 1.250 . S
O1230 Mn1225 2.121 . S
O1230 C1238 1.258 . S
C1231 N1232 1.326 . S
C1231 C1235 1.460 . S
C1231 H1237 0.929 . S
N1232 Mn1225 2.257 . S
N1232 C1231 1.326 . S
N1232 C1236 1.362 . S
C1233 C1234 1.258 . S
C1233 C1236 1.431 . S
C1233 C1253 1.449 . S
C1234 C1233 1.258 . S
C1234 C1235 1.477 . S
C1234 H1254 0.931 . S
C1235 C1231 1.460 . S
C1235 C1234 1.477 . S
C1235 H1255 0.930 . S
C1236 N1232 1.362 . S
C1236 C1233 1.431 . S
C1236 C1246 1.476 . S
H1237 C1231 0.929 . S
C1238 O1229 1.250 . S
C1238 O1230 1.258 . S
O1239 Mn1224 2.162 . S
O1239 C1227 1.281 . S
O1240 Mn1224 2.297 . S
O1240 C1227 1.236 . S
N1241 Mn1225 2.282 . S
N1241 C1242 1.328 . S
N1241 C1246 1.318 . S
C1242 N1241 1.328 . S
C1242 C1243 1.457 . S
C1242 H1247 0.929 . S
C1243 C1242 1.457 . S
C1243 C1244 1.291 . S
C1243 H1256 0.931 . S
C1244 C1243 1.291 . S
C1244 C1245 1.373 . S
C1244 H1257 0.929 . S
C1245 C1244 1.373 . S
C1245 C1246 1.396 . S
C1245 C1252 1.403 . S
C1246 C1236 1.476 . S
C1246 N1241 1.318 . S
C1246 C1245 1.396 . S
H1247 C1242 0.929 . S
O1248 Mn1224 2.385 . S
O1248 C1226 1.234 . S
O1249 Mn1224 2.209 . S
O1249 Mn1225 2.215 . S
O1249 C1226 1.283 . S
O1250 Mn1224 2.094 . S
O1250 C1228 1.240 . S
O1251 Mn1225 2.117 . S
O1251 C1228 1.264 . S
C1252 C1245 1.403 . S
C1252 C1253 1.399 . S
C1252 H1258 0.929 . S
C1253 C1233 1.449 . S
C1253 C1252 1.399 . S
C1253 H1259 0.930 . S
H1254 C1234 0.931 . S
H1255 C1235 0.930 . S
H1256 C1243 0.931 . S
H1257 C1244 0.929 . S
H1258 C1252 0.929 . S
H1259 C1253 0.930 . S
Mn1260 O1265 2.095 . S
Mn1260 O1275 2.162 . S
Mn1260 O1276 2.297 . S
Mn1260 O1284 2.385 . S
Mn1260 O1285 2.209 . S
Mn1260 O1286 2.094 . S
Mn1261 O1266 2.121 . S
Mn1261 N1268 2.257 . S
Mn1261 N1277 2.282 . S
Mn1261 O1285 2.215 . S
Mn1261 O1287 2.117 . S
C1262 O1284 1.234 . S
C1262 O1285 1.283 . S
C1263 O1275 1.281 . S
C1263 O1276 1.236 . S
C1264 O1286 1.240 . S
C1264 O1287 1.264 . S
O1265 Mn1260 2.095 . S
O1265 C1274 1.250 . S
O1266 Mn1261 2.121 . S
O1266 C1274 1.258 . S
C1267 N1268 1.326 . S
C1267 C1271 1.460 . S
C1267 H1273 0.929 . S
N1268 Mn1261 2.257 . S
N1268 C1267 1.326 . S
N1268 C1272 1.362 . S
C1269 C1270 1.258 . S
C1269 C1272 1.431 . S
C1269 C1289 1.449 . S
C1270 C1269 1.258 . S
C1270 C1271 1.477 . S
C1270 H1290 0.931 . S
C1271 C1267 1.460 . S
C1271 C1270 1.477 . S
C1271 H1291 0.930 . S
C1272 N1268 1.362 . S
C1272 C1269 1.431 . S
C1272 C1282 1.476 . S
H1273 C1267 0.929 . S
C1274 O1265 1.250 . S
C1274 O1266 1.258 . S
O1275 Mn1260 2.162 . S
O1275 C1263 1.281 . S
O1276 Mn1260 2.297 . S
O1276 C1263 1.236 . S
N1277 Mn1261 2.282 . S
N1277 C1278 1.328 . S
N1277 C1282 1.318 . S
C1278 N1277 1.328 . S
C1278 C1279 1.457 . S
C1278 H1283 0.929 . S
C1279 C1278 1.457 . S
C1279 C1280 1.291 . S
C1279 H1292 0.931 . S
C1280 C1279 1.291 . S
C1280 C1281 1.373 . S
C1280 H1293 0.929 . S
C1281 C1280 1.373 . S
C1281 C1282 1.396 . S
C1281 C1288 1.403 . S
C1282 C1272 1.476 . S
C1282 N1277 1.318 . S
C1282 C1281 1.396 . S
H1283 C1278 0.929 . S
O1284 Mn1260 2.385 . S
O1284 C1262 1.234 . S
O1285 Mn1260 2.209 . S
O1285 Mn1261 2.215 . S
O1285 C1262 1.283 . S
O1286 Mn1260 2.094 . S
O1286 C1264 1.240 . S
O1287 Mn1261 2.117 . S
O1287 C1264 1.264 . S
C1288 C1281 1.403 . S
C1288 C1289 1.399 . S
C1288 H1294 0.929 . S
C1289 C1269 1.449 . S
C1289 C1288 1.399 . S
C1289 H1295 0.930 . S
H1290 C1270 0.931 . S
H1291 C1271 0.930 . S
H1292 C1279 0.931 . S
H1293 C1280 0.929 . S
H1294 C1288 0.929 . S
H1295 C1289 0.930 . S
H1296 C1304 0.950 . S
H1297 C1309 0.950 . S
H1298 C1306 0.950 . S
H1299 C1308 0.950 . S
H1300 C1310 0.950 . S
H1301 C1312 0.950 . S
H1302 C1314 0.950 . S
H1303 C1315 0.950 . S
C1304 H1296 0.950 . S
C1304 C1305 1.386 . S
C1304 C1306 1.391 . S
C1305 C1304 1.386 . S
C1305 C1309 1.393 . S
C1306 H1298 0.950 . S
C1306 C1304 1.391 . S
C1306 C1307 1.400 . S
C1307 C1306 1.400 . S
C1307 C1308 1.398 . S
C1307 C1313 1.491 . S
C1308 H1299 0.950 . S
C1308 C1307 1.398 . S
C1308 C1309 1.391 . S
C1309 H1297 0.950 . S
C1309 C1305 1.393 . S
C1309 C1308 1.391 . S
C1310 H1300 0.950 . S
C1310 C1311 1.386 . S
C1310 C1312 1.391 . S
C1311 C1310 1.386 . S
C1311 C1315 1.393 . S
C1312 H1301 0.950 . S
C1312 C1310 1.391 . S
C1312 C1313 1.400 1_554 S
C1313 C1307 1.491 . S
C1313 C1312 1.400 1_556 S
C1313 C1314 1.398 1_556 S
C1314 H1302 0.950 . S
C1314 C1313 1.398 1_554 S
C1314 C1315 1.391 . S
C1315 H1303 0.950 . S
C1315 C1311 1.393 . S
C1315 C1314 1.391 . S
H1316 C1324 0.950 . S
H1317 C1329 0.950 . S
H1318 C1326 0.950 . S
H1319 C1328 0.950 . S
H1320 C1330 0.950 . S
H1321 C1332 0.950 . S
H1322 C1334 0.951 . S
H1323 C1335 0.950 . S
C1324 H1316 0.950 . S
C1324 C1325 1.386 . S
C1324 C1326 1.391 . S
C1325 C1324 1.386 . S
C1325 C1329 1.393 . S
C1326 H1318 0.950 . S
C1326 C1324 1.391 . S
C1326 C1327 1.400 . S
C1327 C1326 1.400 . S
C1327 C1328 1.398 . S
C1327 C1333 1.491 . S
C1328 H1319 0.950 . S
C1328 C1327 1.398 . S
C1328 C1329 1.391 . S
C1329 H1317 0.950 . S
C1329 C1325 1.393 . S
C1329 C1328 1.391 . S
C1330 H1320 0.950 . S
C1330 C1331 1.386 . S
C1330 C1332 1.391 . S
C1331 C1330 1.386 . S
C1331 C1335 1.393 . S
C1332 H1321 0.950 . S
C1332 C1330 1.391 . S
C1332 C1333 1.400 1_554 S
C1333 C1327 1.491 . S
C1333 C1332 1.400 1_556 S
C1333 C1334 1.398 1_556 S
C1334 H1322 0.951 . S
C1334 C1333 1.398 1_554 S
C1334 C1335 1.391 . S
C1335 H1323 0.950 . S
C1335 C1331 1.393 . S
C1335 C1334 1.391 . S
H1336 C1344 0.950 . S
H1337 C1349 0.950 . S
H1338 C1346 0.950 . S
H1339 C1348 0.961 . S
H1340 C1350 0.950 . S
H1341 C1352 0.950 . S
H1342 C1354 0.950 . S
H1343 C1355 0.950 . S
C1344 H1336 0.950 . S
C1344 C1345 1.386 . S
C1344 C1346 1.391 . S
C1345 C1344 1.386 . S
C1345 C1349 1.393 . S
C1346 H1338 0.950 . S
C1346 C1344 1.391 . S
C1346 C1347 1.400 1_554 S
C1347 C1346 1.400 1_556 S
C1347 C1348 1.398 1_556 S
C1347 C1353 1.491 . S
C1348 H1339 0.961 . S
C1348 C1347 1.398 1_554 S
C1348 C1349 1.391 . S
C1349 H1337 0.950 . S
C1349 C1345 1.393 . S
C1349 C1348 1.391 . S
C1350 H1340 0.950 . S
C1350 C1351 1.386 . S
C1350 C1352 1.391 . S
C1351 C1350 1.386 . S
C1351 C1355 1.393 . S
C1352 H1341 0.950 . S
C1352 C1350 1.391 . S
C1352 C1353 1.400 . S
C1353 C1347 1.491 . S
C1353 C1352 1.400 . S
C1353 C1354 1.398 . S
C1354 H1342 0.950 . S
C1354 C1353 1.398 . S
C1354 C1355 1.391 . S
C1355 H1343 0.950 . S
C1355 C1351 1.393 . S
C1355 C1354 1.391 . S
H1356 C1364 0.950 . S
H1357 C1369 0.950 . S
H1358 C1366 0.950 . S
H1359 C1368 0.950 . S
H1360 C1370 0.950 . S
H1361 C1372 0.950 . S
H1362 C1374 0.950 . S
H1363 C1375 0.950 . S
C1364 H1356 0.950 . S
C1364 C1365 1.386 . S
C1364 C1366 1.391 . S
C1365 C1364 1.386 . S
C1365 C1369 1.393 . S
C1366 H1358 0.950 . S
C1366 C1364 1.391 . S
C1366 C1367 1.400 . S
C1367 C1366 1.400 . S
C1367 C1368 1.398 . S
C1367 C1373 1.491 . S
C1368 H1359 0.950 . S
C1368 C1367 1.398 . S
C1368 C1369 1.391 . S
C1369 H1357 0.950 . S
C1369 C1365 1.393 . S
C1369 C1368 1.391 . S
C1370 H1360 0.950 . S
C1370 C1371 1.386 . S
C1370 C1372 1.391 . S
C1371 C1370 1.386 . S
C1371 C1375 1.393 . S
C1372 H1361 0.950 . S
C1372 C1370 1.391 . S
C1372 C1373 1.400 . S
C1373 C1367 1.491 . S
C1373 C1372 1.400 . S
C1373 C1374 1.398 . S
C1374 H1362 0.950 . S
C1374 C1373 1.398 . S
C1374 C1375 1.391 . S
C1375 H1363 0.950 . S
C1375 C1371 1.393 . S
C1375 C1374 1.391 . S
H1376 C1384 0.950 . S
H1377 C1389 0.950 . S
H1378 C1386 0.950 . S
H1379 C1388 0.950 . S
H1380 C1390 0.950 . S
H1381 C1392 0.950 . S
H1382 C1394 0.950 . S
H1383 C1395 0.950 . S
C1384 H1376 0.950 . S
C1384 C1385 1.386 . S
C1384 C1386 1.391 . S
C1385 C1384 1.386 . S
C1385 C1389 1.393 . S
C1386 H1378 0.950 . S
C1386 C1384 1.391 . S
C1386 C1387 1.400 . S
C1387 C1386 1.400 . S
C1387 C1388 1.398 . S
C1387 C1393 1.491 . S
C1388 H1379 0.950 . S
C1388 C1387 1.398 . S
C1388 C1389 1.391 . S
C1389 H1377 0.950 . S
C1389 C1385 1.393 . S
C1389 C1388 1.391 . S
C1390 H1380 0.950 . S
C1390 C1391 1.386 . S
C1390 C1392 1.391 . S
C1391 C1390 1.386 . S
C1391 C1395 1.393 . S
C1392 H1381 0.950 . S
C1392 C1390 1.391 . S
C1392 C1393 1.400 . S
C1393 C1387 1.491 . S
C1393 C1392 1.400 . S
C1393 C1394 1.398 . S
C1394 H1382 0.950 . S
C1394 C1393 1.398 . S
C1394 C1395 1.391 . S
C1395 H1383 0.950 . S
C1395 C1391 1.393 . S
C1395 C1394 1.391 . S
H1396 C1404 0.950 . S
H1397 C1409 0.950 . S
H1398 C1406 0.950 . S
H1399 C1408 0.950 . S
H1400 C1410 0.950 . S
H1401 C1412 0.950 . S
H1402 C1414 0.950 . S
H1403 C1415 0.950 . S
C1404 H1396 0.950 . S
C1404 C1405 1.386 . S
C1404 C1406 1.391 . S
C1405 C1404 1.386 . S
C1405 C1409 1.393 . S
C1406 H1398 0.950 . S
C1406 C1404 1.391 . S
C1406 C1407 1.400 . S
C1407 C1406 1.400 . S
C1407 C1408 1.398 . S
C1407 C1413 1.491 . S
C1408 H1399 0.950 . S
C1408 C1407 1.398 . S
C1408 C1409 1.391 . S
C1409 H1397 0.950 . S
C1409 C1405 1.393 . S
C1409 C1408 1.391 . S
C1410 H1400 0.950 . S
C1410 C1411 1.386 . S
C1410 C1412 1.391 . S
C1411 C1410 1.386 . S
C1411 C1415 1.393 . S
C1412 H1401 0.950 . S
C1412 C1410 1.391 . S
C1412 C1413 1.400 . S
C1413 C1407 1.491 . S
C1413 C1412 1.400 . S
C1413 C1414 1.398 . S
C1414 H1402 0.950 . S
C1414 C1413 1.398 . S
C1414 C1415 1.391 . S
C1415 H1403 0.950 . S
C1415 C1411 1.393 . S
C1415 C1414 1.391 . S
H1416 C1424 0.950 . S
H1417 C1429 0.950 . S
H1418 C1426 0.950 . S
H1419 C1428 0.950 . S
H1420 C1430 0.950 . S
H1421 C1432 0.950 1_554 S
H1422 C1434 0.950 1_554 S
H1423 C1435 0.950 . S
C1424 H1416 0.950 . S
C1424 C1425 1.386 . S
C1424 C1426 1.391 . S
C1425 C1424 1.386 . S
C1425 C1429 1.393 . S
C1426 H1418 0.950 . S
C1426 C1424 1.391 . S
C1426 C1427 1.400 . S
C1427 C1426 1.400 . S
C1427 C1428 1.398 . S
C1427 C1433 1.491 . S
C1428 H1419 0.950 . S
C1428 C1427 1.398 . S
C1428 C1429 1.391 . S
C1429 H1417 0.950 . S
C1429 C1425 1.393 . S
C1429 C1428 1.391 . S
C1430 H1420 0.950 . S
C1430 C1431 1.386 . S
C1430 C1432 1.391 . S
C1431 C1430 1.386 . S
C1431 C1435 1.393 . S
C1432 H1421 0.950 1_556 S
C1432 C1430 1.391 . S
C1432 C1433 1.400 1_556 S
C1433 C1427 1.491 . S
C1433 C1432 1.400 1_554 S
C1433 C1434 1.398 1_554 S
C1434 H1422 0.950 1_556 S
C1434 C1433 1.398 1_556 S
C1434 C1435 1.391 . S
C1435 H1423 0.950 . S
C1435 C1431 1.393 . S
C1435 C1434 1.391 . S
H1436 C1444 0.950 . S
H1437 C1449 0.950 . S
H1438 C1446 0.950 . S
H1439 C1448 0.950 . S
H1440 C1450 0.950 . S
H1441 C1452 0.950 1_554 S
H1442 C1454 0.950 . S
H1443 C1455 0.950 . S
C1444 H1436 0.950 . S
C1444 C1445 1.386 . S
C1444 C1446 1.391 . S
C1445 C1444 1.386 . S
C1445 C1449 1.393 . S
C1446 H1438 0.950 . S
C1446 C1444 1.391 . S
C1446 C1447 1.400 . S
C1447 C1446 1.400 . S
C1447 C1448 1.398 . S
C1447 C1453 1.491 . S
C1448 H1439 0.950 . S
C1448 C1447 1.398 . S
C1448 C1449 1.391 . S
C1449 H1437 0.950 . S
C1449 C1445 1.393 . S
C1449 C1448 1.391 . S
C1450 H1440 0.950 . S
C1450 C1451 1.386 . S
C1450 C1452 1.391 . S
C1451 C1450 1.386 . S
C1451 C1455 1.393 . S
C1452 H1441 0.950 1_556 S
C1452 C1450 1.391 . S
C1452 C1453 1.400 1_556 S
C1453 C1447 1.491 . S
C1453 C1452 1.400 1_554 S
C1453 C1454 1.398 1_554 S
C1454 H1442 0.950 . S
C1454 C1453 1.398 1_556 S
C1454 C1455 1.391 . S
C1455 H1443 0.950 . S
C1455 C1451 1.393 . S
C1455 C1454 1.391 . S
H1456 C1464 0.950 . S
H1457 C1469 0.950 . S
H1458 C1466 0.950 . S
H1459 C1468 0.950 1_554 S
H1460 C1470 0.950 . S
H1461 C1472 0.950 . S
H1462 C1474 0.950 . S
H1463 C1475 0.950 . S
C1464 H1456 0.950 . S
C1464 C1465 1.386 . S
C1464 C1466 1.391 . S
C1465 C1464 1.386 . S
C1465 C1469 1.393 . S
C1466 H1458 0.950 . S
C1466 C1464 1.391 . S
C1466 C1467 1.400 1_556 S
C1467 C1466 1.400 1_554 S
C1467 C1468 1.398 1_554 S
C1467 C1473 1.491 . S
C1468 H1459 0.950 1_556 S
C1468 C1467 1.398 1_556 S
C1468 C1469 1.391 . S
C1469 H1457 0.950 . S
C1469 C1465 1.393 . S
C1469 C1468 1.391 . S
C1470 H1460 0.950 . S
C1470 C1471 1.386 . S
C1470 C1472 1.391 . S
C1471 C1470 1.386 . S
C1471 C1475 1.393 . S
C1472 H1461 0.950 . S
C1472 C1470 1.391 . S
C1472 C1473 1.400 . S
C1473 C1467 1.491 . S
C1473 C1472 1.400 . S
C1473 C1474 1.398 . S
C1474 H1462 0.950 . S
C1474 C1473 1.398 . S
C1474 C1475 1.391 . S
C1475 H1463 0.950 . S
C1475 C1471 1.393 . S
C1475 C1474 1.391 . S
H1476 C1484 0.950 . S
H1477 C1489 0.950 . S
H1478 C1486 0.950 . S
H1479 C1488 0.950 . S
H1480 C1490 0.950 . S
H1481 C1492 0.950 . S
H1482 C1494 0.950 . S
H1483 C1495 0.950 . S
C1484 H1476 0.950 . S
C1484 C1485 1.386 . S
C1484 C1486 1.391 . S
C1485 C1484 1.386 . S
C1485 C1489 1.393 . S
C1486 H1478 0.950 . S
C1486 C1484 1.391 . S
C1486 C1487 1.400 . S
C1487 C1486 1.400 . S
C1487 C1488 1.398 . S
C1487 C1493 1.491 . S
C1488 H1479 0.950 . S
C1488 C1487 1.398 . S
C1488 C1489 1.391 . S
C1489 H1477 0.950 . S
C1489 C1485 1.393 . S
C1489 C1488 1.391 . S
C1490 H1480 0.950 . S
C1490 C1491 1.386 . S
C1490 C1492 1.391 . S
C1491 C1490 1.386 . S
C1491 C1495 1.393 . S
C1492 H1481 0.950 . S
C1492 C1490 1.391 . S
C1492 C1493 1.400 . S
C1493 C1487 1.491 . S
C1493 C1492 1.400 . S
C1493 C1494 1.398 . S
C1494 H1482 0.950 . S
C1494 C1493 1.398 . S
C1494 C1495 1.391 . S
C1495 H1483 0.950 . S
C1495 C1491 1.393 . S
C1495 C1494 1.391 . S
H1496 C1504 0.950 . S
H1497 C1509 0.950 . S
H1498 C1506 0.950 . S
H1499 C1508 0.950 . S
H1500 C1510 0.950 . S
H1501 C1512 0.950 . S
H1502 C1514 0.950 . S
H1503 C1515 0.950 . S
C1504 H1496 0.950 . S
C1504 C1505 1.386 . S
C1504 C1506 1.391 . S
C1505 C1504 1.386 . S
C1505 C1509 1.393 . S
C1506 H1498 0.950 . S
C1506 C1504 1.391 . S
C1506 C1507 1.400 . S
C1507 C1506 1.400 . S
C1507 C1508 1.398 . S
C1507 C1513 1.491 . S
C1508 H1499 0.950 . S
C1508 C1507 1.398 . S
C1508 C1509 1.391 . S
C1509 H1497 0.950 . S
C1509 C1505 1.393 . S
C1509 C1508 1.391 . S
C1510 H1500 0.950 . S
C1510 C1511 1.386 . S
C1510 C1512 1.391 . S
C1511 C1510 1.386 . S
C1511 C1515 1.393 . S
C1512 H1501 0.950 . S
C1512 C1510 1.391 . S
C1512 C1513 1.400 . S
C1513 C1507 1.491 . S
C1513 C1512 1.400 . S
C1513 C1514 1.398 . S
C1514 H1502 0.950 . S
C1514 C1513 1.398 . S
C1514 C1515 1.391 . S
C1515 H1503 0.950 . S
C1515 C1511 1.393 . S
C1515 C1514 1.391 . S
H1516 C1524 0.950 . S
H1517 C1529 0.950 . S
H1518 C1526 0.950 . S
H1519 C1528 0.950 . S
H1520 C1530 0.950 . S
H1521 C1532 0.950 . S
H1522 C1534 0.950 . S
H1523 C1535 0.950 . S
C1524 H1516 0.950 . S
C1524 C1525 1.386 . S
C1524 C1526 1.391 . S
C1525 C1524 1.386 . S
C1525 C1529 1.393 . S
C1526 H1518 0.950 . S
C1526 C1524 1.391 . S
C1526 C1527 1.400 . S
C1527 C1526 1.400 . S
C1527 C1528 1.398 . S
C1527 C1533 1.491 . S
C1528 H1519 0.950 . S
C1528 C1527 1.398 . S
C1528 C1529 1.391 . S
C1529 H1517 0.950 . S
C1529 C1525 1.393 . S
C1529 C1528 1.391 . S
C1530 H1520 0.950 . S
C1530 C1531 1.386 . S
C1530 C1532 1.391 . S
C1531 C1530 1.386 . S
C1531 C1535 1.393 . S
C1532 H1521 0.950 . S
C1532 C1530 1.391 . S
C1532 C1533 1.400 . S
C1533 C1527 1.491 . S
C1533 C1532 1.400 . S
C1533 C1534 1.398 . S
C1534 H1522 0.950 . S
C1534 C1533 1.398 . S
C1534 C1535 1.391 . S
C1535 H1523 0.950 . S
C1535 C1531 1.393 . S
C1535 C1534 1.391 . S
H1536 C1544 0.950 . S
H1537 C1549 0.950 . S
H1538 C1546 0.950 . S
H1539 C1548 0.950 . S
H1540 C1550 0.950 . S
H1541 C1552 0.950 . S
H1542 C1554 0.950 . S
H1543 C1555 0.950 . S
C1544 H1536 0.950 . S
C1544 C1545 1.386 . S
C1544 C1546 1.391 . S
C1545 C1544 1.386 . S
C1545 C1549 1.393 . S
C1546 H1538 0.950 . S
C1546 C1544 1.391 . S
C1546 C1547 1.400 . S
C1547 C1546 1.400 . S
C1547 C1548 1.398 . S
C1547 C1553 1.491 . S
C1548 H1539 0.950 . S
C1548 C1547 1.398 . S
C1548 C1549 1.391 . S
C1549 H1537 0.950 . S
C1549 C1545 1.393 . S
C1549 C1548 1.391 . S
C1550 H1540 0.950 . S
C1550 C1551 1.386 . S
C1550 C1552 1.391 . S
C1551 C1550 1.386 . S
C1551 C1555 1.393 . S
C1552 H1541 0.950 . S
C1552 C1550 1.391 . S
C1552 C1553 1.400 . S
C1553 C1547 1.491 . S
C1553 C1552 1.400 . S
C1553 C1554 1.398 . S
C1554 H1542 0.950 . S
C1554 C1553 1.398 . S
C1554 C1555 1.391 . S
C1555 H1543 0.950 . S
C1555 C1551 1.393 . S
C1555 C1554 1.391 . S
H1556 C1564 0.950 . S
H1557 C1569 0.950 . S
H1558 C1566 0.950 . S
H1559 C1568 0.950 . S
H1560 C1570 0.950 . S
H1561 C1572 0.950 . S
H1562 C1574 0.950 . S
H1563 C1575 0.950 . S
C1564 H1556 0.950 . S
C1564 C1565 1.386 . S
C1564 C1566 1.391 . S
C1565 C1564 1.386 . S
C1565 C1569 1.393 . S
C1566 H1558 0.950 . S
C1566 C1564 1.391 . S
C1566 C1567 1.400 . S
C1567 C1566 1.400 . S
C1567 C1568 1.398 . S
C1567 C1573 1.491 . S
C1568 H1559 0.950 . S
C1568 C1567 1.398 . S
C1568 C1569 1.391 . S
C1569 H1557 0.950 . S
C1569 C1565 1.393 . S
C1569 C1568 1.391 . S
C1570 H1560 0.950 . S
C1570 C1571 1.386 . S
C1570 C1572 1.391 . S
C1571 C1570 1.386 . S
C1571 C1575 1.393 . S
C1572 H1561 0.950 . S
C1572 C1570 1.391 . S
C1572 C1573 1.400 . S
C1573 C1567 1.491 . S
C1573 C1572 1.400 . S
C1573 C1574 1.398 . S
C1574 H1562 0.950 . S
C1574 C1573 1.398 . S
C1574 C1575 1.391 . S
C1575 H1563 0.950 . S
C1575 C1571 1.393 . S
C1575 C1574 1.391 . S
H1576 C1584 0.950 . S
H1577 C1589 0.950 . S
H1578 C1586 0.950 . S
H1579 C1588 0.950 . S
H1580 C1590 0.950 . S
H1581 C1592 0.950 . S
H1582 C1594 0.950 . S
H1583 C1595 0.950 . S
C1584 H1576 0.950 . S
C1584 C1585 1.386 . S
C1584 C1586 1.391 . S
C1585 C1584 1.386 . S
C1585 C1589 1.393 . S
C1586 H1578 0.950 . S
C1586 C1584 1.391 . S
C1586 C1587 1.400 . S
C1587 C1586 1.400 . S
C1587 C1588 1.398 . S
C1587 C1593 1.491 . S
C1588 H1579 0.950 . S
C1588 C1587 1.398 . S
C1588 C1589 1.391 . S
C1589 H1577 0.950 . S
C1589 C1585 1.393 . S
C1589 C1588 1.391 . S
C1590 H1580 0.950 . S
C1590 C1591 1.386 . S
C1590 C1592 1.391 . S
C1591 C1590 1.386 . S
C1591 C1595 1.393 . S
C1592 H1581 0.950 . S
C1592 C1590 1.391 . S
C1592 C1593 1.400 . S
C1593 C1587 1.491 . S
C1593 C1592 1.400 . S
C1593 C1594 1.398 . S
C1594 H1582 0.950 . S
C1594 C1593 1.398 . S
C1594 C1595 1.391 . S
C1595 H1583 0.950 . S
C1595 C1591 1.393 . S
C1595 C1594 1.391 . S
H1596 C1604 0.950 . S
H1597 C1609 0.950 . S
H1598 C1606 0.950 . S
H1599 C1608 0.950 . S
H1600 C1610 0.950 . S
H1601 C1612 0.950 . S
H1602 C1614 0.950 . S
H1603 C1615 0.950 . S
C1604 H1596 0.950 . S
C1604 C1605 1.386 . S
C1604 C1606 1.391 . S
C1605 C1604 1.386 . S
C1605 C1609 1.393 . S
C1606 H1598 0.950 . S
C1606 C1604 1.391 . S
C1606 C1607 1.400 . S
C1607 C1606 1.400 . S
C1607 C1608 1.398 . S
C1607 C1613 1.491 . S
C1608 H1599 0.950 . S
C1608 C1607 1.398 . S
C1608 C1609 1.391 . S
C1609 H1597 0.950 . S
C1609 C1605 1.393 . S
C1609 C1608 1.391 . S
C1610 H1600 0.950 . S
C1610 C1611 1.386 . S
C1610 C1612 1.391 . S
C1611 C1610 1.386 . S
C1611 C1615 1.393 . S
C1612 H1601 0.950 . S
C1612 C1610 1.391 . S
C1612 C1613 1.400 . S
C1613 C1607 1.491 . S
C1613 C1612 1.400 . S
C1613 C1614 1.398 . S
C1614 H1602 0.950 . S
C1614 C1613 1.398 . S
C1614 C1615 1.391 . S
C1615 H1603 0.950 . S
C1615 C1611 1.393 . S
C1615 C1614 1.391 . S
H1616 C1624 0.950 . S
H1617 C1629 0.950 . S
H1618 C1626 0.950 . S
H1619 C1628 0.950 . S
H1620 C1630 0.950 . S
H1621 C1632 0.950 . S
H1622 C1634 0.950 . S
H1623 C1635 0.950 . S
C1624 H1616 0.950 . S
C1624 C1625 1.386 . S
C1624 C1626 1.391 . S
C1625 C1624 1.386 . S
C1625 C1629 1.393 . S
C1626 H1618 0.950 . S
C1626 C1624 1.391 . S
C1626 C1627 1.400 . S
C1627 C1626 1.400 . S
C1627 C1628 1.398 . S
C1627 C1633 1.491 . S
C1628 H1619 0.950 . S
C1628 C1627 1.398 . S
C1628 C1629 1.391 . S
C1629 H1617 0.950 . S
C1629 C1625 1.393 . S
C1629 C1628 1.391 . S
C1630 H1620 0.950 . S
C1630 C1631 1.386 . S
C1630 C1632 1.391 . S
C1631 C1630 1.386 . S
C1631 C1635 1.393 . S
C1632 H1621 0.950 . S
C1632 C1630 1.391 . S
C1632 C1633 1.400 . S
C1633 C1627 1.491 . S
C1633 C1632 1.400 . S
C1633 C1634 1.398 . S
C1634 H1622 0.950 . S
C1634 C1633 1.398 . S
C1634 C1635 1.391 . S
C1635 H1623 0.950 . S
C1635 C1631 1.393 . S
C1635 C1634 1.391 . S
H1636 C1644 0.950 . S
H1637 C1649 0.950 . S
H1638 C1646 0.950 . S
H1639 C1648 0.950 . S
H1640 C1650 0.950 . S
H1641 C1652 0.950 . S
H1642 C1654 0.950 . S
H1643 C1655 0.950 . S
C1644 H1636 0.950 . S
C1644 C1645 1.386 . S
C1644 C1646 1.391 . S
C1645 C1644 1.386 . S
C1645 C1649 1.393 . S
C1646 H1638 0.950 . S
C1646 C1644 1.391 . S
C1646 C1647 1.400 . S
C1647 C1646 1.400 . S
C1647 C1648 1.398 . S
C1647 C1653 1.491 . S
C1648 H1639 0.950 . S
C1648 C1647 1.398 . S
C1648 C1649 1.391 . S
C1649 H1637 0.950 . S
C1649 C1645 1.393 . S
C1649 C1648 1.391 . S
C1650 H1640 0.950 . S
C1650 C1651 1.386 . S
C1650 C1652 1.391 . S
C1651 C1650 1.386 . S
C1651 C1655 1.393 . S
C1652 H1641 0.950 . S
C1652 C1650 1.391 . S
C1652 C1653 1.400 . S
C1653 C1647 1.491 . S
C1653 C1652 1.400 . S
C1653 C1654 1.398 . S
C1654 H1642 0.950 . S
C1654 C1653 1.398 . S
C1654 C1655 1.391 . S
C1655 H1643 0.950 . S
C1655 C1651 1.393 . S
C1655 C1654 1.391 . S
H1656 C1664 0.950 . S
H1657 C1669 0.950 . S
H1658 C1666 0.950 . S
H1659 C1668 0.950 . S
H1660 C1670 0.950 . S
H1661 C1672 0.950 . S
H1662 C1674 0.950 . S
H1663 C1675 0.950 . S
C1664 H1656 0.950 . S
C1664 C1665 1.386 . S
C1664 C1666 1.391 . S
C1665 C1664 1.386 . S
C1665 C1669 1.393 . S
C1666 H1658 0.950 . S
C1666 C1664 1.391 . S
C1666 C1667 1.400 . S
C1667 C1666 1.400 . S
C1667 C1668 1.398 . S
C1667 C1673 1.491 . S
C1668 H1659 0.950 . S
C1668 C1667 1.398 . S
C1668 C1669 1.391 . S
C1669 H1657 0.950 . S
C1669 C1665 1.393 . S
C1669 C1668 1.391 . S
C1670 H1660 0.950 . S
C1670 C1671 1.386 . S
C1670 C1672 1.391 . S
C1671 C1670 1.386 . S
C1671 C1675 1.393 . S
C1672 H1661 0.950 . S
C1672 C1670 1.391 . S
C1672 C1673 1.400 . S
C1673 C1667 1.491 . S
C1673 C1672 1.400 . S
C1673 C1674 1.398 . S
C1674 H1662 0.950 . S
C1674 C1673 1.398 . S
C1674 C1675 1.391 . S
C1675 H1663 0.950 . S
C1675 C1671 1.393 . S
C1675 C1674 1.391 . S
H1676 C1684 0.950 . S
H1677 C1689 0.950 . S
H1678 C1686 0.950 . S
H1679 C1688 0.950 . S
H1680 C1690 0.950 . S
H1681 C1692 0.950 . S
H1682 C1694 0.950 . S
H1683 C1695 0.950 . S
C1684 H1676 0.950 . S
C1684 C1685 1.386 . S
C1684 C1686 1.391 . S
C1685 C1684 1.386 . S
C1685 C1689 1.393 . S
C1686 H1678 0.950 . S
C1686 C1684 1.391 . S
C1686 C1687 1.400 . S
C1687 C1686 1.400 . S
C1687 C1688 1.398 . S
C1687 C1693 1.491 . S
C1688 H1679 0.950 . S
C1688 C1687 1.398 . S
C1688 C1689 1.391 . S
C1689 H1677 0.950 . S
C1689 C1685 1.393 . S
C1689 C1688 1.391 . S
C1690 H1680 0.950 . S
C1690 C1691 1.386 . S
C1690 C1692 1.391 . S
C1691 C1690 1.386 . S
C1691 C1695 1.393 . S
C1692 H1681 0.950 . S
C1692 C1690 1.391 . S
C1692 C1693 1.400 . S
C1693 C1687 1.491 . S
C1693 C1692 1.400 . S
C1693 C1694 1.398 . S
C1694 H1682 0.950 . S
C1694 C1693 1.398 . S
C1694 C1695 1.391 . S
C1695 H1683 0.950 . S
C1695 C1691 1.393 . S
C1695 C1694 1.391 . S
H1696 C1704 0.950 . S
H1697 C1709 0.950 . S
H1698 C1706 0.950 . S
H1699 C1708 0.950 . S
H1700 C1710 0.950 . S
H1701 C1712 0.950 . S
H1702 C1714 0.950 . S
H1703 C1715 0.950 . S
C1704 H1696 0.950 . S
C1704 C1705 1.386 . S
C1704 C1706 1.391 . S
C1705 C1704 1.386 . S
C1705 C1709 1.393 . S
C1706 H1698 0.950 . S
C1706 C1704 1.391 . S
C1706 C1707 1.400 . S
C1707 C1706 1.400 . S
C1707 C1708 1.398 . S
C1707 C1713 1.491 . S
C1708 H1699 0.950 . S
C1708 C1707 1.398 . S
C1708 C1709 1.391 . S
C1709 H1697 0.950 . S
C1709 C1705 1.393 . S
C1709 C1708 1.391 . S
C1710 H1700 0.950 . S
C1710 C1711 1.386 . S
C1710 C1712 1.391 . S
C1711 C1710 1.386 . S
C1711 C1715 1.393 . S
C1712 H1701 0.950 . S
C1712 C1710 1.391 . S
C1712 C1713 1.400 . S
C1713 C1707 1.491 . S
C1713 C1712 1.400 . S
C1713 C1714 1.398 . S
C1714 H1702 0.950 . S
C1714 C1713 1.398 . S
C1714 C1715 1.391 . S
C1715 H1703 0.950 . S
C1715 C1711 1.393 . S
C1715 C1714 1.391 . S
H1716 C1724 0.950 . S
H1717 C1729 0.950 . S
H1718 C1726 0.950 . S
H1719 C1728 0.950 . S
H1720 C1730 0.950 . S
H1721 C1732 0.950 . S
H1722 C1734 0.950 . S
H1723 C1735 0.950 . S
C1724 H1716 0.950 . S
C1724 C1725 1.386 . S
C1724 C1726 1.391 . S
C1725 C1724 1.386 . S
C1725 C1729 1.393 . S
C1726 H1718 0.950 . S
C1726 C1724 1.391 . S
C1726 C1727 1.400 . S
C1727 C1726 1.400 . S
C1727 C1728 1.398 . S
C1727 C1733 1.491 . S
C1728 H1719 0.950 . S
C1728 C1727 1.398 . S
C1728 C1729 1.391 . S
C1729 H1717 0.950 . S
C1729 C1725 1.393 . S
C1729 C1728 1.391 . S
C1730 H1720 0.950 . S
C1730 C1731 1.386 . S
C1730 C1732 1.391 . S
C1731 C1730 1.386 . S
C1731 C1735 1.393 . S
C1732 H1721 0.950 . S
C1732 C1730 1.391 . S
C1732 C1733 1.400 . S
C1733 C1727 1.491 . S
C1733 C1732 1.400 . S
C1733 C1734 1.398 . S
C1734 H1722 0.950 . S
C1734 C1733 1.398 . S
C1734 C1735 1.391 . S
C1735 H1723 0.950 . S
C1735 C1731 1.393 . S
C1735 C1734 1.391 . S
H1736 C1744 0.950 . S
H1737 C1749 0.950 . S
H1738 C1746 0.950 . S
H1739 C1748 0.950 . S
H1740 C1750 0.950 . S
H1741 C1752 0.950 . S
H1742 C1754 0.950 . S
H1743 C1755 0.950 . S
C1744 H1736 0.950 . S
C1744 C1745 1.386 . S
C1744 C1746 1.391 . S
C1745 C1744 1.386 . S
C1745 C1749 1.393 . S
C1746 H1738 0.950 . S
C1746 C1744 1.391 . S
C1746 C1747 1.400 . S
C1747 C1746 1.400 . S
C1747 C1748 1.398 . S
C1747 C1753 1.491 . S
C1748 H1739 0.950 . S
C1748 C1747 1.398 . S
C1748 C1749 1.391 . S
C1749 H1737 0.950 . S
C1749 C1745 1.393 . S
C1749 C1748 1.391 . S
C1750 H1740 0.950 . S
C1750 C1751 1.386 . S
C1750 C1752 1.391 . S
C1751 C1750 1.386 . S
C1751 C1755 1.393 . S
C1752 H1741 0.950 . S
C1752 C1750 1.391 . S
C1752 C1753 1.400 . S
C1753 C1747 1.491 . S
C1753 C1752 1.400 . S
C1753 C1754 1.398 . S
C1754 H1742 0.950 . S
C1754 C1753 1.398 . S
C1754 C1755 1.391 . S
C1755 H1743 0.950 . S
C1755 C1751 1.393 . S
C1755 C1754 1.391 . S
H1756 C1764 0.950 . S
H1757 C1769 0.950 . S
H1758 C1766 0.950 . S
H1759 C1768 0.950 . S
H1760 C1770 0.950 . S
H1761 C1772 0.950 . S
H1762 C1774 0.950 . S
H1763 C1775 0.950 . S
C1764 H1756 0.950 . S
C1764 C1765 1.386 . S
C1764 C1766 1.391 . S
C1765 C1764 1.386 . S
C1765 C1769 1.393 . S
C1766 H1758 0.950 . S
C1766 C1764 1.391 . S
C1766 C1767 1.400 . S
C1767 C1766 1.400 . S
C1767 C1768 1.398 . S
C1767 C1773 1.491 . S
C1768 H1759 0.950 . S
C1768 C1767 1.398 . S
C1768 C1769 1.391 . S
C1769 H1757 0.950 . S
C1769 C1765 1.393 . S
C1769 C1768 1.391 . S
C1770 H1760 0.950 . S
C1770 C1771 1.386 . S
C1770 C1772 1.391 . S
C1771 C1770 1.386 . S
C1771 C1775 1.393 . S
C1772 H1761 0.950 . S
C1772 C1770 1.391 . S
C1772 C1773 1.400 . S
C1773 C1767 1.491 . S
C1773 C1772 1.400 . S
C1773 C1774 1.398 . S
C1774 H1762 0.950 . S
C1774 C1773 1.398 . S
C1774 C1775 1.391 . S
C1775 H1763 0.950 . S
C1775 C1771 1.393 . S
C1775 C1774 1.391 . S
H1776 C1784 0.950 . S
H1777 C1789 0.950 . S
H1778 C1786 0.950 . S
H1779 C1788 0.950 . S
H1780 C1790 0.950 . S
H1781 C1792 0.950 . S
H1782 C1794 0.950 . S
H1783 C1795 0.950 . S
C1784 H1776 0.950 . S
C1784 C1785 1.386 . S
C1784 C1786 1.391 . S
C1785 C1784 1.386 . S
C1785 C1789 1.393 . S
C1786 H1778 0.950 . S
C1786 C1784 1.391 . S
C1786 C1787 1.400 . S
C1787 C1786 1.400 . S
C1787 C1788 1.398 . S
C1787 C1793 1.491 . S
C1788 H1779 0.950 . S
C1788 C1787 1.398 . S
C1788 C1789 1.391 . S
C1789 H1777 0.950 . S
C1789 C1785 1.393 . S
C1789 C1788 1.391 . S
C1790 H1780 0.950 . S
C1790 C1791 1.386 . S
C1790 C1792 1.391 . S
C1791 C1790 1.386 . S
C1791 C1795 1.393 . S
C1792 H1781 0.950 . S
C1792 C1790 1.391 . S
C1792 C1793 1.400 . S
C1793 C1787 1.491 . S
C1793 C1792 1.400 . S
C1793 C1794 1.398 . S
C1794 H1782 0.950 . S
C1794 C1793 1.398 . S
C1794 C1795 1.391 . S
C1795 H1783 0.950 . S
C1795 C1791 1.393 . S
C1795 C1794 1.391 . S
H1796 C1804 0.950 . S
H1797 C1809 0.950 . S
H1798 C1806 0.950 . S
H1799 C1808 0.950 . S
H1800 C1810 0.950 . S
H1801 C1812 0.950 . S
H1802 C1814 0.950 . S
H1803 C1815 0.950 . S
C1804 H1796 0.950 . S
C1804 C1805 1.386 . S
C1804 C1806 1.391 . S
C1805 C1804 1.386 . S
C1805 C1809 1.393 . S
C1806 H1798 0.950 . S
C1806 C1804 1.391 . S
C1806 C1807 1.400 . S
C1807 C1806 1.400 . S
C1807 C1808 1.398 . S
C1807 C1813 1.491 . S
C1808 H1799 0.950 . S
C1808 C1807 1.398 . S
C1808 C1809 1.391 . S
C1809 H1797 0.950 . S
C1809 C1805 1.393 . S
C1809 C1808 1.391 . S
C1810 H1800 0.950 . S
C1810 C1811 1.386 . S
C1810 C1812 1.391 . S
C1811 C1810 1.386 . S
C1811 C1815 1.393 . S
C1812 H1801 0.950 . S
C1812 C1810 1.391 . S
C1812 C1813 1.400 . S
C1813 C1807 1.491 . S
C1813 C1812 1.400 . S
C1813 C1814 1.398 . S
C1814 H1802 0.950 . S
C1814 C1813 1.398 . S
C1814 C1815 1.391 . S
C1815 H1803 0.950 . S
C1815 C1811 1.393 . S
C1815 C1814 1.391 . S
H1816 C1824 0.950 . S
H1817 C1829 0.950 . S
H1818 C1826 0.950 . S
H1819 C1828 0.950 . S
H1820 C1830 0.950 . S
H1821 C1832 0.950 . S
H1822 C1834 0.950 . S
H1823 C1835 0.950 . S
C1824 H1816 0.950 . S
C1824 C1825 1.386 . S
C1824 C1826 1.391 . S
C1825 C1824 1.386 . S
C1825 C1829 1.393 . S
C1826 H1818 0.950 . S
C1826 C1824 1.391 . S
C1826 C1827 1.400 . S
C1827 C1826 1.400 . S
C1827 C1828 1.398 . S
C1827 C1833 1.491 . S
C1828 H1819 0.950 . S
C1828 C1827 1.398 . S
C1828 C1829 1.391 . S
C1829 H1817 0.950 . S
C1829 C1825 1.393 . S
C1829 C1828 1.391 . S
C1830 H1820 0.950 . S
C1830 C1831 1.386 . S
C1830 C1832 1.391 . S
C1831 C1830 1.386 . S
C1831 C1835 1.393 . S
C1832 H1821 0.950 . S
C1832 C1830 1.391 . S
C1832 C1833 1.400 . S
C1833 C1827 1.491 . S
C1833 C1832 1.400 . S
C1833 C1834 1.398 . S
C1834 H1822 0.950 . S
C1834 C1833 1.398 . S
C1834 C1835 1.391 . S
C1835 H1823 0.950 . S
C1835 C1831 1.393 . S
C1835 C1834 1.391 . S
H1836 C1844 0.950 . S
H1837 C1849 0.950 . S
H1838 C1846 0.950 . S
H1839 C1848 0.950 . S
H1840 C1850 0.950 . S
H1841 C1852 0.950 . S
H1842 C1854 0.950 . S
H1843 C1855 0.950 . S
C1844 H1836 0.950 . S
C1844 C1845 1.386 . S
C1844 C1846 1.391 . S
C1845 C1844 1.386 . S
C1845 C1849 1.393 . S
C1846 H1838 0.950 . S
C1846 C1844 1.391 . S
C1846 C1847 1.400 . S
C1847 C1846 1.400 . S
C1847 C1848 1.398 . S
C1847 C1853 1.491 . S
C1848 H1839 0.950 . S
C1848 C1847 1.398 . S
C1848 C1849 1.391 . S
C1849 H1837 0.950 . S
C1849 C1845 1.393 . S
C1849 C1848 1.391 . S
C1850 H1840 0.950 . S
C1850 C1851 1.386 . S
C1850 C1852 1.391 . S
C1851 C1850 1.386 . S
C1851 C1855 1.393 . S
C1852 H1841 0.950 . S
C1852 C1850 1.391 . S
C1852 C1853 1.400 . S
C1853 C1847 1.491 . S
C1853 C1852 1.400 . S
C1853 C1854 1.398 . S
C1854 H1842 0.950 . S
C1854 C1853 1.398 . S
C1854 C1855 1.391 . S
C1855 H1843 0.950 . S
C1855 C1851 1.393 . S
C1855 C1854 1.391 . S
H1856 C1864 0.950 . S
H1857 C1869 0.950 . S
H1858 C1866 0.950 . S
H1859 C1868 0.950 . S
H1860 C1870 0.950 . S
H1861 C1872 0.950 . S
H1862 C1874 0.950 . S
H1863 C1875 0.950 . S
C1864 H1856 0.950 . S
C1864 C1865 1.386 . S
C1864 C1866 1.391 . S
C1865 C1864 1.386 . S
C1865 C1869 1.393 . S
C1866 H1858 0.950 . S
C1866 C1864 1.391 . S
C1866 C1867 1.400 . S
C1867 C1866 1.400 . S
C1867 C1868 1.398 . S
C1867 C1873 1.491 . S
C1868 H1859 0.950 . S
C1868 C1867 1.398 . S
C1868 C1869 1.391 . S
C1869 H1857 0.950 . S
C1869 C1865 1.393 . S
C1869 C1868 1.391 . S
C1870 H1860 0.950 . S
C1870 C1871 1.386 . S
C1870 C1872 1.391 . S
C1871 C1870 1.386 . S
C1871 C1875 1.393 . S
C1872 H1861 0.950 . S
C1872 C1870 1.391 . S
C1872 C1873 1.400 . S
C1873 C1867 1.491 . S
C1873 C1872 1.400 . S
C1873 C1874 1.398 . S
C1874 H1862 0.950 . S
C1874 C1873 1.398 . S
C1874 C1875 1.391 . S
C1875 H1863 0.950 . S
C1875 C1871 1.393 . S
C1875 C1874 1.391 . S
H1876 C1884 0.950 . S
H1877 C1889 0.950 . S
H1878 C1886 0.950 . S
H1879 C1888 0.950 . S
H1880 C1890 0.950 . S
H1881 C1892 0.950 . S
H1882 C1894 0.950 . S
H1883 C1895 0.950 . S
C1884 H1876 0.950 . S
C1884 C1885 1.386 . S
C1884 C1886 1.391 . S
C1885 C1884 1.386 . S
C1885 C1889 1.393 . S
C1886 H1878 0.950 . S
C1886 C1884 1.391 . S
C1886 C1887 1.400 . S
C1887 C1886 1.400 . S
C1887 C1888 1.398 . S
C1887 C1893 1.491 . S
C1888 H1879 0.950 . S
C1888 C1887 1.398 . S
C1888 C1889 1.391 . S
C1889 H1877 0.950 . S
C1889 C1885 1.393 . S
C1889 C1888 1.391 . S
C1890 H1880 0.950 . S
C1890 C1891 1.386 . S
C1890 C1892 1.391 . S
C1891 C1890 1.386 . S
C1891 C1895 1.393 . S
C1892 H1881 0.950 . S
C1892 C1890 1.391 . S
C1892 C1893 1.400 . S
C1893 C1887 1.491 . S
C1893 C1892 1.400 . S
C1893 C1894 1.398 . S
C1894 H1882 0.950 . S
C1894 C1893 1.398 . S
C1894 C1895 1.391 . S
C1895 H1883 0.950 . S
C1895 C1891 1.393 . S
C1895 C1894 1.391 . S
H1896 C1904 0.950 . S
H1897 C1909 0.950 . S
H1898 C1906 0.950 . S
H1899 C1908 0.950 . S
H1900 C1910 0.950 . S
H1901 C1912 0.950 . S
H1902 C1914 0.950 . S
H1903 C1915 0.950 . S
C1904 H1896 0.950 . S
C1904 C1905 1.386 . S
C1904 C1906 1.391 . S
C1905 C1904 1.386 . S
C1905 C1909 1.393 . S
C1906 H1898 0.950 . S
C1906 C1904 1.391 . S
C1906 C1907 1.400 . S
C1907 C1906 1.400 . S
C1907 C1908 1.398 . S
C1907 C1913 1.491 . S
C1908 H1899 0.950 . S
C1908 C1907 1.398 . S
C1908 C1909 1.391 . S
C1909 H1897 0.950 . S
C1909 C1905 1.393 . S
C1909 C1908 1.391 . S
C1910 H1900 0.950 . S
C1910 C1911 1.386 . S
C1910 C1912 1.391 . S
C1911 C1910 1.386 . S
C1911 C1915 1.393 . S
C1912 H1901 0.950 . S
C1912 C1910 1.391 . S
C1912 C1913 1.400 . S
C1913 C1907 1.491 . S
C1913 C1912 1.400 . S
C1913 C1914 1.398 . S
C1914 H1902 0.950 . S
C1914 C1913 1.398 . S
C1914 C1915 1.391 . S
C1915 H1903 0.950 . S
C1915 C1911 1.393 . S
C1915 C1914 1.391 . S
H1916 C1924 0.950 . S
H1917 C1929 0.950 . S
H1918 C1926 0.950 . S
H1919 C1928 0.950 . S
H1920 C1930 0.950 . S
H1921 C1932 0.950 . S
H1922 C1934 0.950 . S
H1923 C1935 0.950 . S
C1924 H1916 0.950 . S
C1924 C1925 1.386 . S
C1924 C1926 1.391 . S
C1925 C1924 1.386 . S
C1925 C1929 1.393 . S
C1926 H1918 0.950 . S
C1926 C1924 1.391 . S
C1926 C1927 1.400 . S
C1927 C1926 1.400 . S
C1927 C1928 1.398 . S
C1927 C1933 1.491 . S
C1928 H1919 0.950 . S
C1928 C1927 1.398 . S
C1928 C1929 1.391 . S
C1929 H1917 0.950 . S
C1929 C1925 1.393 . S
C1929 C1928 1.391 . S
C1930 H1920 0.950 . S
C1930 C1931 1.386 . S
C1930 C1932 1.391 . S
C1931 C1930 1.386 . S
C1931 C1935 1.393 . S
C1932 H1921 0.950 . S
C1932 C1930 1.391 . S
C1932 C1933 1.400 . S
C1933 C1927 1.491 . S
C1933 C1932 1.400 . S
C1933 C1934 1.398 . S
C1934 H1922 0.950 . S
C1934 C1933 1.398 . S
C1934 C1935 1.391 . S
C1935 H1923 0.950 . S
C1935 C1931 1.393 . S
C1935 C1934 1.391 . S
H1936 C1944 0.950 . S
H1937 C1949 0.950 . S
H1938 C1946 0.950 . S
H1939 C1948 0.950 . S
H1940 C1950 0.950 . S
H1941 C1952 0.950 . S
H1942 C1954 0.950 . S
H1943 C1955 0.950 . S
C1944 H1936 0.950 . S
C1944 C1945 1.386 . S
C1944 C1946 1.391 . S
C1945 C1944 1.386 . S
C1945 C1949 1.393 . S
C1946 H1938 0.950 . S
C1946 C1944 1.391 . S
C1946 C1947 1.400 . S
C1947 C1946 1.400 . S
C1947 C1948 1.398 . S
C1947 C1953 1.491 . S
C1948 H1939 0.950 . S
C1948 C1947 1.398 . S
C1948 C1949 1.391 . S
C1949 H1937 0.950 . S
C1949 C1945 1.393 . S
C1949 C1948 1.391 . S
C1950 H1940 0.950 . S
C1950 C1951 1.386 . S
C1950 C1952 1.391 . S
C1951 C1950 1.386 . S
C1951 C1955 1.393 . S
C1952 H1941 0.950 . S
C1952 C1950 1.391 . S
C1952 C1953 1.400 . S
C1953 C1947 1.491 . S
C1953 C1952 1.400 . S
C1953 C1954 1.398 . S
C1954 H1942 0.950 . S
C1954 C1953 1.398 . S
C1954 C1955 1.391 . S
C1955 H1943 0.950 . S
C1955 C1951 1.393 . S
C1955 C1954 1.391 . S
H1956 C1964 0.950 . S
H1957 C1969 0.950 . S
H1958 C1966 0.950 . S
H1959 C1968 0.950 . S
H1960 C1970 0.950 . S
H1961 C1972 0.950 . S
H1962 C1974 0.950 . S
H1963 C1975 0.950 . S
C1964 H1956 0.950 . S
C1964 C1965 1.386 . S
C1964 C1966 1.391 . S
C1965 C1964 1.386 . S
C1965 C1969 1.393 . S
C1966 H1958 0.950 . S
C1966 C1964 1.391 . S
C1966 C1967 1.400 . S
C1967 C1966 1.400 . S
C1967 C1968 1.398 . S
C1967 C1973 1.491 . S
C1968 H1959 0.950 . S
C1968 C1967 1.398 . S
C1968 C1969 1.391 . S
C1969 H1957 0.950 . S
C1969 C1965 1.393 . S
C1969 C1968 1.391 . S
C1970 H1960 0.950 . S
C1970 C1971 1.386 . S
C1970 C1972 1.391 . S
C1971 C1970 1.386 . S
C1971 C1975 1.393 . S
C1972 H1961 0.950 . S
C1972 C1970 1.391 . S
C1972 C1973 1.400 . S
C1973 C1967 1.491 . S
C1973 C1972 1.400 . S
C1973 C1974 1.398 . S
C1974 H1962 0.950 . S
C1974 C1973 1.398 . S
C1974 C1975 1.391 . S
C1975 H1963 0.950 . S
C1975 C1971 1.393 . S
C1975 C1974 1.391 . S
H1976 C1984 0.950 . S
H1977 C1989 0.950 . S
H1978 C1986 0.950 . S
H1979 C1988 0.950 . S
H1980 C1990 0.950 . S
H1981 C1992 0.950 . S
H1982 C1994 0.950 . S
H1983 C1995 0.950 . S
C1984 H1976 0.950 . S
C1984 C1985 1.386 . S
C1984 C1986 1.391 . S
C1985 C1984 1.386 . S
C1985 C1989 1.393 . S
C1986 H1978 0.950 . S
C1986 C1984 1.391 . S
C1986 C1987 1.400 . S
C1987 C1986 1.400 . S
C1987 C1988 1.398 . S
C1987 C1993 1.491 . S
C1988 H1979 0.950 . S
C1988 C1987 1.398 . S
C1988 C1989 1.391 . S
C1989 H1977 0.950 . S
C1989 C1985 1.393 . S
C1989 C1988 1.391 . S
C1990 H1980 0.950 . S
C1990 C1991 1.386 . S
C1990 C1992 1.391 . S
C1991 C1990 1.386 . S
C1991 C1995 1.393 . S
C1992 H1981 0.950 . S
C1992 C1990 1.391 . S
C1992 C1993 1.400 . S
C1993 C1987 1.491 . S
C1993 C1992 1.400 . S
C1993 C1994 1.398 . S
C1994 H1982 0.950 . S
C1994 C1993 1.398 . S
C1994 C1995 1.391 . S
C1995 H1983 0.950 . S
C1995 C1991 1.393 . S
C1995 C1994 1.391 . S
H1996 C2004 0.950 . S
H1997 C2009 0.950 . S
H1998 C2006 0.950 . S
H1999 C2008 0.950 . S
H2000 C2010 0.950 1_556 S
H2001 C2012 0.950 . S
H2002 C2014 0.950 . S
H2003 C2015 0.950 . S
C2004 H1996 0.950 . S
C2004 C2005 1.386 . S
C2004 C2006 1.391 . S
C2005 C2004 1.386 . S
C2005 C2009 1.393 . S
C2006 H1998 0.950 . S
C2006 C2004 1.391 . S
C2006 C2007 1.400 . S
C2007 C2006 1.400 . S
C2007 C2008 1.398 . S
C2007 C2013 1.491 . S
C2008 H1999 0.950 . S
C2008 C2007 1.398 . S
C2008 C2009 1.391 . S
C2009 H1997 0.950 . S
C2009 C2005 1.393 . S
C2009 C2008 1.391 . S
C2010 H2000 0.950 1_554 S
C2010 C2011 1.386 1_554 S
C2010 C2012 1.391 . S
C2011 C2010 1.386 1_556 S
C2011 C2015 1.393 1_556 S
C2012 H2001 0.950 . S
C2012 C2010 1.391 . S
C2012 C2013 1.400 . S
C2013 C2007 1.491 . S
C2013 C2012 1.400 . S
C2013 C2014 1.398 . S
C2014 H2002 0.950 . S
C2014 C2013 1.398 . S
C2014 C2015 1.391 . S
C2015 H2003 0.950 . S
C2015 C2011 1.393 1_554 S
C2015 C2014 1.391 . S
H2016 C2024 0.950 . S
H2017 C2029 0.950 . S
H2018 C2026 0.950 . S
H2019 C2028 0.950 . S
H2020 C2030 0.950 . S
H2021 C2032 0.950 . S
H2022 C2034 0.950 . S
H2023 C2035 0.950 . S
C2024 H2016 0.950 . S
C2024 C2025 1.386 . S
C2024 C2026 1.391 . S
C2025 C2024 1.386 . S
C2025 C2029 1.393 . S
C2026 H2018 0.950 . S
C2026 C2024 1.391 . S
C2026 C2027 1.400 . S
C2027 C2026 1.400 . S
C2027 C2028 1.398 . S
C2027 C2033 1.491 . S
C2028 H2019 0.950 . S
C2028 C2027 1.398 . S
C2028 C2029 1.391 . S
C2029 H2017 0.950 . S
C2029 C2025 1.393 . S
C2029 C2028 1.391 . S
C2030 H2020 0.950 . S
C2030 C2031 1.386 . S
C2030 C2032 1.391 . S
C2031 C2030 1.386 . S
C2031 C2035 1.393 . S
C2032 H2021 0.950 . S
C2032 C2030 1.391 . S
C2032 C2033 1.400 . S
C2033 C2027 1.491 . S
C2033 C2032 1.400 . S
C2033 C2034 1.398 . S
C2034 H2022 0.950 . S
C2034 C2033 1.398 . S
C2034 C2035 1.391 . S
C2035 H2023 0.950 . S
C2035 C2031 1.393 . S
C2035 C2034 1.391 . S
H2036 C2044 0.950 . S
H2037 C2049 0.950 . S
H2038 C2046 0.950 . S
H2039 C2048 0.950 . S
H2040 C2050 0.950 . S
H2041 C2052 0.950 . S
H2042 C2054 0.950 . S
H2043 C2055 0.950 . S
C2044 H2036 0.950 . S
C2044 C2045 1.386 . S
C2044 C2046 1.391 . S
C2045 C2044 1.386 . S
C2045 C2049 1.393 . S
C2046 H2038 0.950 . S
C2046 C2044 1.391 . S
C2046 C2047 1.400 . S
C2047 C2046 1.400 . S
C2047 C2048 1.398 . S
C2047 C2053 1.491 1_565 S
C2048 H2039 0.950 . S
C2048 C2047 1.398 . S
C2048 C2049 1.391 . S
C2049 H2037 0.950 . S
C2049 C2045 1.393 . S
C2049 C2048 1.391 . S
C2050 H2040 0.950 . S
C2050 C2051 1.386 . S
C2050 C2052 1.391 . S
C2051 C2050 1.386 . S
C2051 C2055 1.393 . S
C2052 H2041 0.950 . S
C2052 C2050 1.391 . S
C2052 C2053 1.400 . S
C2053 C2047 1.491 1_545 S
C2053 C2052 1.400 . S
C2053 C2054 1.398 . S
C2054 H2042 0.950 . S
C2054 C2053 1.398 . S
C2054 C2055 1.391 . S
C2055 H2043 0.950 . S
C2055 C2051 1.393 . S
C2055 C2054 1.391 . S
H2056 C2064 0.950 . S
H2057 C2069 0.950 . S
H2058 C2066 0.950 . S
H2059 C2068 0.950 . S
H2060 C2070 0.950 . S
H2061 C2072 0.950 . S
H2062 C2074 0.950 . S
H2063 C2075 0.950 . S
C2064 H2056 0.950 . S
C2064 C2065 1.386 . S
C2064 C2066 1.391 . S
C2065 C2064 1.386 . S
C2065 C2069 1.393 . S
C2066 H2058 0.950 . S
C2066 C2064 1.391 . S
C2066 C2067 1.400 . S
C2067 C2066 1.400 . S
C2067 C2068 1.398 . S
C2067 C2073 1.491 1_655 S
C2068 H2059 0.950 . S
C2068 C2067 1.398 . S
C2068 C2069 1.391 . S
C2069 H2057 0.950 . S
C2069 C2065 1.393 . S
C2069 C2068 1.391 . S
C2070 H2060 0.950 . S
C2070 C2071 1.386 . S
C2070 C2072 1.391 . S
C2071 C2070 1.386 . S
C2071 C2075 1.393 . S
C2072 H2061 0.950 . S
C2072 C2070 1.391 . S
C2072 C2073 1.400 . S
C2073 C2067 1.491 1_455 S
C2073 C2072 1.400 . S
C2073 C2074 1.398 . S
C2074 H2062 0.950 . S
C2074 C2073 1.398 . S
C2074 C2075 1.391 . S
C2075 H2063 0.950 . S
C2075 C2071 1.393 . S
C2075 C2074 1.391 . S
H2076 C2084 0.950 . S
H2077 C2089 0.950 . S
H2078 C2086 0.950 . S
H2079 C2088 0.950 . S
H2080 C2090 0.950 . S
H2081 C2092 0.950 . S
H2082 C2094 0.950 . S
H2083 C2095 0.950 . S
C2084 H2076 0.950 . S
C2084 C2085 1.386 . S
C2084 C2086 1.391 . S
C2085 C2084 1.386 . S
C2085 C2089 1.393 . S
C2086 H2078 0.950 . S
C2086 C2084 1.391 . S
C2086 C2087 1.400 . S
C2087 C2086 1.400 . S
C2087 C2088 1.398 . S
C2087 C2093 1.491 . S
C2088 H2079 0.950 . S
C2088 C2087 1.398 . S
C2088 C2089 1.391 . S
C2089 H2077 0.950 . S
C2089 C2085 1.393 . S
C2089 C2088 1.391 . S
C2090 H2080 0.950 . S
C2090 C2091 1.386 . S
C2090 C2092 1.391 . S
C2091 C2090 1.386 . S
C2091 C2095 1.393 . S
C2092 H2081 0.950 . S
C2092 C2090 1.391 . S
C2092 C2093 1.400 . S
C2093 C2087 1.491 . S
C2093 C2092 1.400 . S
C2093 C2094 1.398 . S
C2094 H2082 0.950 . S
C2094 C2093 1.398 . S
C2094 C2095 1.391 . S
C2095 H2083 0.950 . S
C2095 C2091 1.393 . S
C2095 C2094 1.391 . S
H2096 C2104 0.950 . S
H2097 C2109 0.950 . S
H2098 C2106 0.950 . S
H2099 C2108 0.950 . S
H2100 C2110 0.950 . S
H2101 C2112 0.950 . S
H2102 C2114 0.950 . S
H2103 C2115 0.950 . S
C2104 H2096 0.950 . S
C2104 C2105 1.386 . S
C2104 C2106 1.391 . S
C2105 C2104 1.386 . S
C2105 C2109 1.393 . S
C2106 H2098 0.950 . S
C2106 C2104 1.391 . S
C2106 C2107 1.400 . S
C2107 C2106 1.400 . S
C2107 C2108 1.398 . S
C2107 C2113 1.491 1_545 S
C2108 H2099 0.950 . S
C2108 C2107 1.398 . S
C2108 C2109 1.391 . S
C2109 H2097 0.950 . S
C2109 C2105 1.393 . S
C2109 C2108 1.391 . S
C2110 H2100 0.950 . S
C2110 C2111 1.386 . S
C2110 C2112 1.391 . S
C2111 C2110 1.386 . S
C2111 C2115 1.393 . S
C2112 H2101 0.950 . S
C2112 C2110 1.391 . S
C2112 C2113 1.400 . S
C2113 C2107 1.491 1_565 S
C2113 C2112 1.400 . S
C2113 C2114 1.398 . S
C2114 H2102 0.950 . S
C2114 C2113 1.398 . S
C2114 C2115 1.391 . S
C2115 H2103 0.950 . S
C2115 C2111 1.393 . S
C2115 C2114 1.391 . S
H2116 C2124 0.950 . S
H2117 C2129 0.950 . S
H2118 C2126 0.950 . S
H2119 C2128 0.950 . S
H2120 C2130 0.950 . S
H2121 C2132 0.950 . S
H2122 C2134 0.950 . S
H2123 C2135 0.950 . S
C2124 H2116 0.950 . S
C2124 C2125 1.386 . S
C2124 C2126 1.391 . S
C2125 C2124 1.386 . S
C2125 C2129 1.393 . S
C2126 H2118 0.950 . S
C2126 C2124 1.391 . S
C2126 C2127 1.400 . S
C2127 C2126 1.400 . S
C2127 C2128 1.398 . S
C2127 C2133 1.491 1_655 S
C2128 H2119 0.950 . S
C2128 C2127 1.398 . S
C2128 C2129 1.391 . S
C2129 H2117 0.950 . S
C2129 C2125 1.393 . S
C2129 C2128 1.391 . S
C2130 H2120 0.950 . S
C2130 C2131 1.386 . S
C2130 C2132 1.391 . S
C2131 C2130 1.386 . S
C2131 C2135 1.393 . S
C2132 H2121 0.950 . S
C2132 C2130 1.391 . S
C2132 C2133 1.400 . S
C2133 C2127 1.491 1_455 S
C2133 C2132 1.400 . S
C2133 C2134 1.398 . S
C2134 H2122 0.950 . S
C2134 C2133 1.398 . S
C2134 C2135 1.391 . S
C2135 H2123 0.950 . S
C2135 C2131 1.393 . S
C2135 C2134 1.391 . S
H2136 C2144 0.950 . S
H2137 C2149 0.950 . S
H2138 C2146 0.950 . S
H2139 C2148 0.950 . S
H2140 C2150 0.950 . S
H2141 C2152 0.950 . S
H2142 C2154 0.950 . S
H2143 C2155 0.950 . S
C2144 H2136 0.950 . S
C2144 C2145 1.386 . S
C2144 C2146 1.391 . S
C2145 C2144 1.386 . S
C2145 C2149 1.393 . S
C2146 H2138 0.950 . S
C2146 C2144 1.391 . S
C2146 C2147 1.400 . S
C2147 C2146 1.400 . S
C2147 C2148 1.398 . S
C2147 C2153 1.491 . S
C2148 H2139 0.950 . S
C2148 C2147 1.398 . S
C2148 C2149 1.391 . S
C2149 H2137 0.950 . S
C2149 C2145 1.393 . S
C2149 C2148 1.391 . S
C2150 H2140 0.950 . S
C2150 C2151 1.386 . S
C2150 C2152 1.391 . S
C2151 C2150 1.386 . S
C2151 C2155 1.393 . S
C2152 H2141 0.950 . S
C2152 C2150 1.391 . S
C2152 C2153 1.400 . S
C2153 C2147 1.491 . S
C2153 C2152 1.400 . S
C2153 C2154 1.398 . S
C2154 H2142 0.950 . S
C2154 C2153 1.398 . S
C2154 C2155 1.391 . S
C2155 H2143 0.950 . S
C2155 C2151 1.393 . S
C2155 C2154 1.391 . S
H2156 C2164 0.950 . S
H2157 C2169 0.950 . S
H2158 C2166 0.950 . S
H2159 C2168 0.950 . S
H2160 C2170 0.950 . S
H2161 C2172 0.950 . S
H2162 C2174 0.950 . S
H2163 C2175 0.950 . S
C2164 H2156 0.950 . S
C2164 C2165 1.386 . S
C2164 C2166 1.391 . S
C2165 C2164 1.386 . S
C2165 C2169 1.393 . S
C2166 H2158 0.950 . S
C2166 C2164 1.391 . S
C2166 C2167 1.400 . S
C2167 C2166 1.400 . S
C2167 C2168 1.398 . S
C2167 C2173 1.491 . S
C2168 H2159 0.950 . S
C2168 C2167 1.398 . S
C2168 C2169 1.391 . S
C2169 H2157 0.950 . S
C2169 C2165 1.393 . S
C2169 C2168 1.391 . S
C2170 H2160 0.950 . S
C2170 C2171 1.386 . S
C2170 C2172 1.391 . S
C2171 C2170 1.386 . S
C2171 C2175 1.393 . S
C2172 H2161 0.950 . S
C2172 C2170 1.391 . S
C2172 C2173 1.400 . S
C2173 C2167 1.491 . S
C2173 C2172 1.400 . S
C2173 C2174 1.398 . S
C2174 H2162 0.950 . S
C2174 C2173 1.398 . S
C2174 C2175 1.391 . S
C2175 H2163 0.950 . S
C2175 C2171 1.393 . S
C2175 C2174 1.391 . S
H2176 C2184 0.950 . S
H2177 C2189 0.950 . S
H2178 C2186 0.950 . S
H2179 C2188 0.950 . S
H2180 C2190 0.950 . S
H2181 C2192 0.950 . S
H2182 C2194 0.950 . S
H2183 C2195 0.950 . S
C2184 H2176 0.950 . S
C2184 C2185 1.386 . S
C2184 C2186 1.391 . S
C2185 C2184 1.386 . S
C2185 C2189 1.393 . S
C2186 H2178 0.950 . S
C2186 C2184 1.391 . S
C2186 C2187 1.400 . S
C2187 C2186 1.400 . S
C2187 C2188 1.398 . S
C2187 C2193 1.491 . S
C2188 H2179 0.950 . S
C2188 C2187 1.398 . S
C2188 C2189 1.391 . S
C2189 H2177 0.950 . S
C2189 C2185 1.393 . S
C2189 C2188 1.391 . S
C2190 H2180 0.950 . S
C2190 C2191 1.386 . S
C2190 C2192 1.391 . S
C2191 C2190 1.386 . S
C2191 C2195 1.393 . S
C2192 H2181 0.950 . S
C2192 C2190 1.391 . S
C2192 C2193 1.400 . S
C2193 C2187 1.491 . S
C2193 C2192 1.400 . S
C2193 C2194 1.398 . S
C2194 H2182 0.950 . S
C2194 C2193 1.398 . S
C2194 C2195 1.391 . S
C2195 H2183 0.950 . S
C2195 C2191 1.393 . S
C2195 C2194 1.391 . S
H2196 C2204 0.950 . S
H2197 C2209 0.950 . S
H2198 C2206 0.950 . S
H2199 C2208 0.950 . S
H2200 C2210 0.950 . S
H2201 C2212 0.950 . S
H2202 C2214 0.950 . S
H2203 C2215 0.950 . S
C2204 H2196 0.950 . S
C2204 C2205 1.386 . S
C2204 C2206 1.391 . S
C2205 C2204 1.386 . S
C2205 C2209 1.393 . S
C2206 H2198 0.950 . S
C2206 C2204 1.391 . S
C2206 C2207 1.400 . S
C2207 C2206 1.400 . S
C2207 C2208 1.398 . S
C2207 C2213 1.491 . S
C2208 H2199 0.950 . S
C2208 C2207 1.398 . S
C2208 C2209 1.391 . S
C2209 H2197 0.950 . S
C2209 C2205 1.393 . S
C2209 C2208 1.391 . S
C2210 H2200 0.950 . S
C2210 C2211 1.386 . S
C2210 C2212 1.391 . S
C2211 C2210 1.386 . S
C2211 C2215 1.393 . S
C2212 H2201 0.950 . S
C2212 C2210 1.391 . S
C2212 C2213 1.400 . S
C2213 C2207 1.491 . S
C2213 C2212 1.400 . S
C2213 C2214 1.398 . S
C2214 H2202 0.950 . S
C2214 C2213 1.398 . S
C2214 C2215 1.391 . S
C2215 H2203 0.950 . S
C2215 C2211 1.393 . S
C2215 C2214 1.391 . S
H2216 C2224 0.950 . S
H2217 C2229 0.950 1_556 S
H2218 C2226 0.950 . S
H2219 C2228 0.950 . S
H2220 C2230 0.950 . S
H2221 C2232 0.950 . S
H2222 C2234 0.950 . S
H2223 C2235 0.950 . S
C2224 H2216 0.950 . S
C2224 C2225 1.386 . S
C2224 C2226 1.391 . S
C2225 C2224 1.386 . S
C2225 C2229 1.393 . S
C2226 H2218 0.950 . S
C2226 C2224 1.391 . S
C2226 C2227 1.400 . S
C2227 C2226 1.400 . S
C2227 C2228 1.398 . S
C2227 C2233 1.491 . S
C2228 H2219 0.950 . S
C2228 C2227 1.398 . S
C2228 C2229 1.391 . S
C2229 H2217 0.950 1_554 S
C2229 C2225 1.393 . S
C2229 C2228 1.391 . S
C2230 H2220 0.950 . S
C2230 C2231 1.386 . S
C2230 C2232 1.391 . S
C2231 C2230 1.386 . S
C2231 C2235 1.393 . S
C2232 H2221 0.950 . S
C2232 C2230 1.391 . S
C2232 C2233 1.400 . S
C2233 C2227 1.491 . S
C2233 C2232 1.400 . S
C2233 C2234 1.398 . S
C2234 H2222 0.950 . S
C2234 C2233 1.398 . S
C2234 C2235 1.391 . S
C2235 H2223 0.950 . S
C2235 C2231 1.393 . S
C2235 C2234 1.391 . S
H2236 C2244 0.950 . S
H2237 C2249 0.950 . S
H2238 C2246 0.950 . S
H2239 C2248 0.950 . S
H2240 C2250 0.950 . S
H2241 C2252 0.950 . S
H2242 C2254 0.950 . S
H2243 C2255 0.950 . S
C2244 H2236 0.950 . S
C2244 C2245 1.386 . S
C2244 C2246 1.391 . S
C2245 C2244 1.386 . S
C2245 C2249 1.393 . S
C2246 H2238 0.950 . S
C2246 C2244 1.391 . S
C2246 C2247 1.400 . S
C2247 C2246 1.400 . S
C2247 C2248 1.398 . S
C2247 C2253 1.491 . S
C2248 H2239 0.950 . S
C2248 C2247 1.398 . S
C2248 C2249 1.391 . S
C2249 H2237 0.950 . S
C2249 C2245 1.393 . S
C2249 C2248 1.391 . S
C2250 H2240 0.950 . S
C2250 C2251 1.386 . S
C2250 C2252 1.391 . S
C2251 C2250 1.386 . S
C2251 C2255 1.393 . S
C2252 H2241 0.950 . S
C2252 C2250 1.391 . S
C2252 C2253 1.400 . S
C2253 C2247 1.491 . S
C2253 C2252 1.400 . S
C2253 C2254 1.398 . S
C2254 H2242 0.950 . S
C2254 C2253 1.398 . S
C2254 C2255 1.391 . S
C2255 H2243 0.950 . S
C2255 C2251 1.393 . S
C2255 C2254 1.391 . S
H2256 C2264 0.950 1_554 S
H2257 C2269 0.950 . S
H2258 C2266 0.950 . S
H2259 C2268 0.950 . S
H2260 C2270 0.950 . S
H2261 C2272 0.950 . S
H2262 C2274 0.950 . S
H2263 C2275 0.950 . S
C2264 H2256 0.950 1_556 S
C2264 C2265 1.386 . S
C2264 C2266 1.391 . S
C2265 C2264 1.386 . S
C2265 C2269 1.393 . S
C2266 H2258 0.950 . S
C2266 C2264 1.391 . S
C2266 C2267 1.400 . S
C2267 C2266 1.400 . S
C2267 C2268 1.398 . S
C2267 C2273 1.491 . S
C2268 H2259 0.950 . S
C2268 C2267 1.398 . S
C2268 C2269 1.391 . S
C2269 H2257 0.950 . S
C2269 C2265 1.393 . S
C2269 C2268 1.391 . S
C2270 H2260 0.950 . S
C2270 C2271 1.386 . S
C2270 C2272 1.391 . S
C2271 C2270 1.386 . S
C2271 C2275 1.393 . S
C2272 H2261 0.950 . S
C2272 C2270 1.391 . S
C2272 C2273 1.400 . S
C2273 C2267 1.491 . S
C2273 C2272 1.400 . S
C2273 C2274 1.398 . S
C2274 H2262 0.950 . S
C2274 C2273 1.398 . S
C2274 C2275 1.391 . S
C2275 H2263 0.950 . S
C2275 C2271 1.393 . S
C2275 C2274 1.391 . S
H2276 C2284 0.950 . S
H2277 C2289 0.950 1_554 S
H2278 C2286 0.950 . S
H2279 C2288 0.950 . S
H2280 C2290 0.950 . S
H2281 C2292 0.950 . S
H2282 C2294 0.950 . S
H2283 C2295 0.950 . S
C2284 H2276 0.950 . S
C2284 C2285 1.386 . S
C2284 C2286 1.391 . S
C2285 C2284 1.386 . S
C2285 C2289 1.393 . S
C2286 H2278 0.950 . S
C2286 C2284 1.391 . S
C2286 C2287 1.400 . S
C2287 C2286 1.400 . S
C2287 C2288 1.398 . S
C2287 C2293 1.491 . S
C2288 H2279 0.950 . S
C2288 C2287 1.398 . S
C2288 C2289 1.391 . S
C2289 H2277 0.950 1_556 S
C2289 C2285 1.393 . S
C2289 C2288 1.391 . S
C2290 H2280 0.950 . S
C2290 C2291 1.386 . S
C2290 C2292 1.391 . S
C2291 C2290 1.386 . S
C2291 C2295 1.393 . S
C2292 H2281 0.950 . S
C2292 C2290 1.391 . S
C2292 C2293 1.400 . S
C2293 C2287 1.491 . S
C2293 C2292 1.400 . S
C2293 C2294 1.398 . S
C2294 H2282 0.950 . S
C2294 C2293 1.398 . S
C2294 C2295 1.391 . S
C2295 H2283 0.950 . S
C2295 C2291 1.393 . S
C2295 C2294 1.391 . S
H2296 C2304 0.950 . S
H2297 C2309 0.950 . S
H2298 C2306 0.950 . S
H2299 C2308 0.950 . S
H2300 C2310 0.950 . S
H2301 C2312 0.950 . S
H2302 C2314 0.950 . S
H2303 C2315 0.950 . S
C2304 H2296 0.950 . S
C2304 C2305 1.386 . S
C2304 C2306 1.391 . S
C2305 C2304 1.386 . S
C2305 C2309 1.393 . S
C2306 H2298 0.950 . S
C2306 C2304 1.391 . S
C2306 C2307 1.400 . S
C2307 C2306 1.400 . S
C2307 C2308 1.398 . S
C2307 C2313 1.491 . S
C2308 H2299 0.950 . S
C2308 C2307 1.398 . S
C2308 C2309 1.391 . S
C2309 H2297 0.950 . S
C2309 C2305 1.393 . S
C2309 C2308 1.391 . S
C2310 H2300 0.950 . S
C2310 C2311 1.386 . S
C2310 C2312 1.391 . S
C2311 C2310 1.386 . S
C2311 C2315 1.393 . S
C2312 H2301 0.950 . S
C2312 C2310 1.391 . S
C2312 C2313 1.400 . S
C2313 C2307 1.491 . S
C2313 C2312 1.400 . S
C2313 C2314 1.398 . S
C2314 H2302 0.950 . S
C2314 C2313 1.398 . S
C2314 C2315 1.391 . S
C2315 H2303 0.950 . S
C2315 C2311 1.393 . S
C2315 C2314 1.391 . S
H2316 C2324 0.950 . S
H2317 C2329 0.950 . S
H2318 C2326 0.950 . S
H2319 C2328 0.950 . S
H2320 C2330 0.950 . S
H2321 C2332 0.950 . S
H2322 C2334 0.950 . S
H2323 C2335 0.950 . S
C2324 H2316 0.950 . S
C2324 C2325 1.386 . S
C2324 C2326 1.391 . S
C2325 C2324 1.386 . S
C2325 C2329 1.393 . S
C2326 H2318 0.950 . S
C2326 C2324 1.391 . S
C2326 C2327 1.400 . S
C2327 C2326 1.400 . S
C2327 C2328 1.398 . S
C2327 C2333 1.491 . S
C2328 H2319 0.950 . S
C2328 C2327 1.398 . S
C2328 C2329 1.391 . S
C2329 H2317 0.950 . S
C2329 C2325 1.393 . S
C2329 C2328 1.391 . S
C2330 H2320 0.950 . S
C2330 C2331 1.386 . S
C2330 C2332 1.391 . S
C2331 C2330 1.386 . S
C2331 C2335 1.393 . S
C2332 H2321 0.950 . S
C2332 C2330 1.391 . S
C2332 C2333 1.400 . S
C2333 C2327 1.491 . S
C2333 C2332 1.400 . S
C2333 C2334 1.398 . S
C2334 H2322 0.950 . S
C2334 C2333 1.398 . S
C2334 C2335 1.391 . S
C2335 H2323 0.950 . S
C2335 C2331 1.393 . S
C2335 C2334 1.391 . S
H2336 C2344 0.950 . S
H2337 C2349 0.950 . S
H2338 C2346 0.950 . S
H2339 C2348 0.950 . S
H2340 C2350 0.950 . S
H2341 C2352 0.950 . S
H2342 C2354 0.950 . S
H2343 C2355 0.950 . S
C2344 H2336 0.950 . S
C2344 C2345 1.386 . S
C2344 C2346 1.391 . S
C2345 C2344 1.386 . S
C2345 C2349 1.393 . S
C2346 H2338 0.950 . S
C2346 C2344 1.391 . S
C2346 C2347 1.400 . S
C2347 C2346 1.400 . S
C2347 C2348 1.398 . S
C2347 C2353 1.491 . S
C2348 H2339 0.950 . S
C2348 C2347 1.398 . S
C2348 C2349 1.391 . S
C2349 H2337 0.950 . S
C2349 C2345 1.393 . S
C2349 C2348 1.391 . S
C2350 H2340 0.950 . S
C2350 C2351 1.386 . S
C2350 C2352 1.391 . S
C2351 C2350 1.386 . S
C2351 C2355 1.393 . S
C2352 H2341 0.950 . S
C2352 C2350 1.391 . S
C2352 C2353 1.400 . S
C2353 C2347 1.491 . S
C2353 C2352 1.400 . S
C2353 C2354 1.398 . S
C2354 H2342 0.950 . S
C2354 C2353 1.398 . S
C2354 C2355 1.391 . S
C2355 H2343 0.950 . S
C2355 C2351 1.393 . S
C2355 C2354 1.391 . S
H2356 C2364 0.950 . S
H2357 C2369 0.950 . S
H2358 C2366 0.950 . S
H2359 C2368 0.950 . S
H2360 C2370 0.950 . S
H2361 C2372 0.950 . S
H2362 C2374 0.950 . S
H2363 C2375 0.950 . S
C2364 H2356 0.950 . S
C2364 C2365 1.386 . S
C2364 C2366 1.391 . S
C2365 C2364 1.386 . S
C2365 C2369 1.393 . S
C2366 H2358 0.950 . S
C2366 C2364 1.391 . S
C2366 C2367 1.400 . S
C2367 C2366 1.400 . S
C2367 C2368 1.398 . S
C2367 C2373 1.491 . S
C2368 H2359 0.950 . S
C2368 C2367 1.398 . S
C2368 C2369 1.391 . S
C2369 H2357 0.950 . S
C2369 C2365 1.393 . S
C2369 C2368 1.391 . S
C2370 H2360 0.950 . S
C2370 C2371 1.386 . S
C2370 C2372 1.391 . S
C2371 C2370 1.386 . S
C2371 C2375 1.393 . S
C2372 H2361 0.950 . S
C2372 C2370 1.391 . S
C2372 C2373 1.400 . S
C2373 C2367 1.491 . S
C2373 C2372 1.400 . S
C2373 C2374 1.398 . S
C2374 H2362 0.950 . S
C2374 C2373 1.398 . S
C2374 C2375 1.391 . S
C2375 H2363 0.950 . S
C2375 C2371 1.393 . S
C2375 C2374 1.391 . S
H2376 C2384 0.950 . S
H2377 C2389 0.950 . S
H2378 C2386 0.950 . S
H2379 C2388 0.950 . S
H2380 C2390 0.950 . S
H2381 C2392 0.950 . S
H2382 C2394 0.950 . S
H2383 C2395 0.950 . S
C2384 H2376 0.950 . S
C2384 C2385 1.386 . S
C2384 C2386 1.391 . S
C2385 C2384 1.386 . S
C2385 C2389 1.393 . S
C2386 H2378 0.950 . S
C2386 C2384 1.391 . S
C2386 C2387 1.400 . S
C2387 C2386 1.400 . S
C2387 C2388 1.398 . S
C2387 C2393 1.491 . S
C2388 H2379 0.950 . S
C2388 C2387 1.398 . S
C2388 C2389 1.391 . S
C2389 H2377 0.950 . S
C2389 C2385 1.393 . S
C2389 C2388 1.391 . S
C2390 H2380 0.950 . S
C2390 C2391 1.386 . S
C2390 C2392 1.391 . S
C2391 C2390 1.386 . S
C2391 C2395 1.393 . S
C2392 H2381 0.950 . S
C2392 C2390 1.391 . S
C2392 C2393 1.400 . S
C2393 C2387 1.491 . S
C2393 C2392 1.400 . S
C2393 C2394 1.398 . S
C2394 H2382 0.950 . S
C2394 C2393 1.398 . S
C2394 C2395 1.391 . S
C2395 H2383 0.950 . S
C2395 C2391 1.393 . S
C2395 C2394 1.391 . S
H2396 C2404 0.950 . S
H2397 C2409 0.950 . S
H2398 C2406 0.950 . S
H2399 C2408 0.950 . S
H2400 C2410 0.950 . S
H2401 C2412 0.950 . S
H2402 C2414 0.950 . S
H2403 C2415 0.950 . S
C2404 H2396 0.950 . S
C2404 C2405 1.386 . S
C2404 C2406 1.391 . S
C2405 C2404 1.386 . S
C2405 C2409 1.393 . S
C2406 H2398 0.950 . S
C2406 C2404 1.391 . S
C2406 C2407 1.400 . S
C2407 C2406 1.400 . S
C2407 C2408 1.398 . S
C2407 C2413 1.491 . S
C2408 H2399 0.950 . S
C2408 C2407 1.398 . S
C2408 C2409 1.391 . S
C2409 H2397 0.950 . S
C2409 C2405 1.393 . S
C2409 C2408 1.391 . S
C2410 H2400 0.950 . S
C2410 C2411 1.386 . S
C2410 C2412 1.391 . S
C2411 C2410 1.386 . S
C2411 C2415 1.393 . S
C2412 H2401 0.950 . S
C2412 C2410 1.391 . S
C2412 C2413 1.400 . S
C2413 C2407 1.491 . S
C2413 C2412 1.400 . S
C2413 C2414 1.398 . S
C2414 H2402 0.950 . S
C2414 C2413 1.398 . S
C2414 C2415 1.391 . S
C2415 H2403 0.950 . S
C2415 C2411 1.393 . S
C2415 C2414 1.391 . S
H2416 C2424 0.950 . S
H2417 C2429 0.950 . S
H2418 C2426 0.950 . S
H2419 C2428 0.950 . S
H2420 C2430 0.950 . S
H2421 C2432 0.950 . S
H2422 C2434 0.950 . S
H2423 C2435 0.950 . S
C2424 H2416 0.950 . S
C2424 C2425 1.386 . S
C2424 C2426 1.391 . S
C2425 C2424 1.386 . S
C2425 C2429 1.393 . S
C2426 H2418 0.950 . S
C2426 C2424 1.391 . S
C2426 C2427 1.400 . S
C2427 C2426 1.400 . S
C2427 C2428 1.398 . S
C2427 C2433 1.491 . S
C2428 H2419 0.950 . S
C2428 C2427 1.398 . S
C2428 C2429 1.391 . S
C2429 H2417 0.950 . S
C2429 C2425 1.393 . S
C2429 C2428 1.391 . S
C2430 H2420 0.950 . S
C2430 C2431 1.386 . S
C2430 C2432 1.391 . S
C2431 C2430 1.386 . S
C2431 C2435 1.393 . S
C2432 H2421 0.950 . S
C2432 C2430 1.391 . S
C2432 C2433 1.400 . S
C2433 C2427 1.491 . S
C2433 C2432 1.400 . S
C2433 C2434 1.398 . S
C2434 H2422 0.950 . S
C2434 C2433 1.398 . S
C2434 C2435 1.391 . S
C2435 H2423 0.950 . S
C2435 C2431 1.393 . S
C2435 C2434 1.391 . S
H2436 C2444 0.950 . S
H2437 C2449 0.950 . S
H2438 C2446 0.950 . S
H2439 C2448 0.950 . S
H2440 C2450 0.950 . S
H2441 C2452 0.950 . S
H2442 C2454 0.950 . S
H2443 C2455 0.950 . S
C2444 H2436 0.950 . S
C2444 C2445 1.386 . S
C2444 C2446 1.391 . S
C2445 C2444 1.386 . S
C2445 C2449 1.393 . S
C2446 H2438 0.950 . S
C2446 C2444 1.391 . S
C2446 C2447 1.400 . S
C2447 C2446 1.400 . S
C2447 C2448 1.398 . S
C2447 C2453 1.491 . S
C2448 H2439 0.950 . S
C2448 C2447 1.398 . S
C2448 C2449 1.391 . S
C2449 H2437 0.950 . S
C2449 C2445 1.393 . S
C2449 C2448 1.391 . S
C2450 H2440 0.950 . S
C2450 C2451 1.386 . S
C2450 C2452 1.391 . S
C2451 C2450 1.386 . S
C2451 C2455 1.393 . S
C2452 H2441 0.950 . S
C2452 C2450 1.391 . S
C2452 C2453 1.400 . S
C2453 C2447 1.491 . S
C2453 C2452 1.400 . S
C2453 C2454 1.398 . S
C2454 H2442 0.950 . S
C2454 C2453 1.398 . S
C2454 C2455 1.391 . S
C2455 H2443 0.950 . S
C2455 C2451 1.393 . S
C2455 C2454 1.391 . S
H2456 C2464 0.950 . S
H2457 C2469 0.950 . S
H2458 C2466 0.950 . S
H2459 C2468 0.950 . S
H2460 C2470 0.950 . S
H2461 C2472 0.950 . S
H2462 C2474 0.950 . S
H2463 C2475 0.950 . S
C2464 H2456 0.950 . S
C2464 C2465 1.386 . S
C2464 C2466 1.391 . S
C2465 C2464 1.386 . S
C2465 C2469 1.393 . S
C2466 H2458 0.950 . S
C2466 C2464 1.391 . S
C2466 C2467 1.400 . S
C2467 C2466 1.400 . S
C2467 C2468 1.398 . S
C2467 C2473 1.491 . S
C2468 H2459 0.950 . S
C2468 C2467 1.398 . S
C2468 C2469 1.391 . S
C2469 H2457 0.950 . S
C2469 C2465 1.393 . S
C2469 C2468 1.391 . S
C2470 H2460 0.950 . S
C2470 C2471 1.386 . S
C2470 C2472 1.391 . S
C2471 C2470 1.386 . S
C2471 C2475 1.393 . S
C2472 H2461 0.950 . S
C2472 C2470 1.391 . S
C2472 C2473 1.400 . S
C2473 C2467 1.491 . S
C2473 C2472 1.400 . S
C2473 C2474 1.398 . S
C2474 H2462 0.950 . S
C2474 C2473 1.398 . S
C2474 C2475 1.391 . S
C2475 H2463 0.950 . S
C2475 C2471 1.393 . S
C2475 C2474 1.391 . S
H2476 C2484 0.950 . S
H2477 C2489 0.950 . S
H2478 C2486 0.950 . S
H2479 C2488 0.950 . S
H2480 C2490 0.950 . S
H2481 C2492 0.950 . S
H2482 C2494 0.950 . S
H2483 C2495 0.950 . S
C2484 H2476 0.950 . S
C2484 C2485 1.386 . S
C2484 C2486 1.391 . S
C2485 C2484 1.386 . S
C2485 C2489 1.393 . S
C2486 H2478 0.950 . S
C2486 C2484 1.391 . S
C2486 C2487 1.400 . S
C2487 C2486 1.400 . S
C2487 C2488 1.398 . S
C2487 C2493 1.491 . S
C2488 H2479 0.950 . S
C2488 C2487 1.398 . S
C2488 C2489 1.391 . S
C2489 H2477 0.950 . S
C2489 C2485 1.393 . S
C2489 C2488 1.391 . S
C2490 H2480 0.950 . S
C2490 C2491 1.386 . S
C2490 C2492 1.391 . S
C2491 C2490 1.386 . S
C2491 C2495 1.393 . S
C2492 H2481 0.950 . S
C2492 C2490 1.391 . S
C2492 C2493 1.400 . S
C2493 C2487 1.491 . S
C2493 C2492 1.400 . S
C2493 C2494 1.398 . S
C2494 H2482 0.950 . S
C2494 C2493 1.398 . S
C2494 C2495 1.391 . S
C2495 H2483 0.950 . S
C2495 C2491 1.393 . S
C2495 C2494 1.391 . S
H2496 C2504 0.950 . S
H2497 C2509 0.950 . S
H2498 C2506 0.950 . S
H2499 C2508 0.950 . S
H2500 C2510 0.950 . S
H2501 C2512 0.950 . S
H2502 C2514 0.950 . S
H2503 C2515 0.950 . S
C2504 H2496 0.950 . S
C2504 C2505 1.386 . S
C2504 C2506 1.391 . S
C2505 C2504 1.386 . S
C2505 C2509 1.393 . S
C2506 H2498 0.950 . S
C2506 C2504 1.391 . S
C2506 C2507 1.400 . S
C2507 C2506 1.400 . S
C2507 C2508 1.398 . S
C2507 C2513 1.491 . S
C2508 H2499 0.950 . S
C2508 C2507 1.398 . S
C2508 C2509 1.391 . S
C2509 H2497 0.950 . S
C2509 C2505 1.393 . S
C2509 C2508 1.391 . S
C2510 H2500 0.950 . S
C2510 C2511 1.386 . S
C2510 C2512 1.391 . S
C2511 C2510 1.386 . S
C2511 C2515 1.393 . S
C2512 H2501 0.950 . S
C2512 C2510 1.391 . S
C2512 C2513 1.400 . S
C2513 C2507 1.491 . S
C2513 C2512 1.400 . S
C2513 C2514 1.398 . S
C2514 H2502 0.950 . S
C2514 C2513 1.398 . S
C2514 C2515 1.391 . S
C2515 H2503 0.950 . S
C2515 C2511 1.393 . S
C2515 C2514 1.391 . S
H2516 C2524 0.950 . S
H2517 C2529 0.950 . S
H2518 C2526 0.950 . S
H2519 C2528 0.950 . S
H2520 C2530 0.950 . S
H2521 C2532 0.950 . S
H2522 C2534 0.950 . S
H2523 C2535 0.950 . S
C2524 H2516 0.950 . S
C2524 C2525 1.386 . S
C2524 C2526 1.391 . S
C2525 C2524 1.386 . S
C2525 C2529 1.393 . S
C2526 H2518 0.950 . S
C2526 C2524 1.391 . S
C2526 C2527 1.400 . S
C2527 C2526 1.400 . S
C2527 C2528 1.398 . S
C2527 C2533 1.491 . S
C2528 H2519 0.950 . S
C2528 C2527 1.398 . S
C2528 C2529 1.391 . S
C2529 H2517 0.950 . S
C2529 C2525 1.393 . S
C2529 C2528 1.391 . S
C2530 H2520 0.950 . S
C2530 C2531 1.386 . S
C2530 C2532 1.391 . S
C2531 C2530 1.386 . S
C2531 C2535 1.393 . S
C2532 H2521 0.950 . S
C2532 C2530 1.391 . S
C2532 C2533 1.400 . S
C2533 C2527 1.491 . S
C2533 C2532 1.400 . S
C2533 C2534 1.398 . S
C2534 H2522 0.950 . S
C2534 C2533 1.398 . S
C2534 C2535 1.391 . S
C2535 H2523 0.950 . S
C2535 C2531 1.393 . S
C2535 C2534 1.391 . S
H2536 C2544 0.950 . S
H2537 C2549 0.950 . S
H2538 C2546 0.950 . S
H2539 C2548 0.950 . S
H2540 C2550 0.950 . S
H2541 C2552 0.950 . S
H2542 C2554 0.950 . S
H2543 C2555 0.950 . S
C2544 H2536 0.950 . S
C2544 C2545 1.386 . S
C2544 C2546 1.391 . S
C2545 C2544 1.386 . S
C2545 C2549 1.393 . S
C2546 H2538 0.950 . S
C2546 C2544 1.391 . S
C2546 C2547 1.400 . S
C2547 C2546 1.400 . S
C2547 C2548 1.398 . S
C2547 C2553 1.491 . S
C2548 H2539 0.950 . S
C2548 C2547 1.398 . S
C2548 C2549 1.391 . S
C2549 H2537 0.950 . S
C2549 C2545 1.393 . S
C2549 C2548 1.391 . S
C2550 H2540 0.950 . S
C2550 C2551 1.386 . S
C2550 C2552 1.391 . S
C2551 C2550 1.386 . S
C2551 C2555 1.393 . S
C2552 H2541 0.950 . S
C2552 C2550 1.391 . S
C2552 C2553 1.400 . S
C2553 C2547 1.491 . S
C2553 C2552 1.400 . S
C2553 C2554 1.398 . S
C2554 H2542 0.950 . S
C2554 C2553 1.398 . S
C2554 C2555 1.391 . S
C2555 H2543 0.950 . S
C2555 C2551 1.393 . S
C2555 C2554 1.391 . S
H2556 C2564 0.950 . S
H2557 C2569 0.950 . S
H2558 C2566 0.950 . S
H2559 C2568 0.950 . S
H2560 C2570 0.950 . S
H2561 C2572 0.950 . S
H2562 C2574 0.950 . S
H2563 C2575 0.950 . S
C2564 H2556 0.950 . S
C2564 C2565 1.386 . S
C2564 C2566 1.391 . S
C2565 C2564 1.386 . S
C2565 C2569 1.393 . S
C2566 H2558 0.950 . S
C2566 C2564 1.391 . S
C2566 C2567 1.400 . S
C2567 C2566 1.400 . S
C2567 C2568 1.398 . S
C2567 C2573 1.491 . S
C2568 H2559 0.950 . S
C2568 C2567 1.398 . S
C2568 C2569 1.391 . S
C2569 H2557 0.950 . S
C2569 C2565 1.393 . S
C2569 C2568 1.391 . S
C2570 H2560 0.950 . S
C2570 C2571 1.386 . S
C2570 C2572 1.391 . S
C2571 C2570 1.386 . S
C2571 C2575 1.393 . S
C2572 H2561 0.950 . S
C2572 C2570 1.391 . S
C2572 C2573 1.400 . S
C2573 C2567 1.491 . S
C2573 C2572 1.400 . S
C2573 C2574 1.398 . S
C2574 H2562 0.950 . S
C2574 C2573 1.398 . S
C2574 C2575 1.391 . S
C2575 H2563 0.950 . S
C2575 C2571 1.393 . S
C2575 C2574 1.391 . S
H2576 C2584 0.950 . S
H2577 C2589 0.950 . S
H2578 C2586 0.950 . S
H2579 C2588 0.950 . S
H2580 C2590 0.950 . S
H2581 C2592 0.950 . S
H2582 C2594 0.950 . S
H2583 C2595 0.950 . S
C2584 H2576 0.950 . S
C2584 C2585 1.386 . S
C2584 C2586 1.391 . S
C2585 C2584 1.386 . S
C2585 C2589 1.393 . S
C2586 H2578 0.950 . S
C2586 C2584 1.391 . S
C2586 C2587 1.400 . S
C2587 C2586 1.400 . S
C2587 C2588 1.398 . S
C2587 C2593 1.491 . S
C2588 H2579 0.950 . S
C2588 C2587 1.398 . S
C2588 C2589 1.391 . S
C2589 H2577 0.950 . S
C2589 C2585 1.393 . S
C2589 C2588 1.391 . S
C2590 H2580 0.950 . S
C2590 C2591 1.386 . S
C2590 C2592 1.391 . S
C2591 C2590 1.386 . S
C2591 C2595 1.393 . S
C2592 H2581 0.950 . S
C2592 C2590 1.391 . S
C2592 C2593 1.400 . S
C2593 C2587 1.491 . S
C2593 C2592 1.400 . S
C2593 C2594 1.398 . S
C2594 H2582 0.950 . S
C2594 C2593 1.398 . S
C2594 C2595 1.391 . S
C2595 H2583 0.950 . S
C2595 C2591 1.393 . S
C2595 C2594 1.391 . S
H2596 C2604 0.950 . S
H2597 C2609 0.950 . S
H2598 C2606 0.950 . S
H2599 C2608 0.950 . S
H2600 C2610 0.950 . S
H2601 C2612 0.950 . S
H2602 C2614 0.950 . S
H2603 C2615 0.950 . S
C2604 H2596 0.950 . S
C2604 C2605 1.386 . S
C2604 C2606 1.391 . S
C2605 C2604 1.386 . S
C2605 C2609 1.393 . S
C2606 H2598 0.950 . S
C2606 C2604 1.391 . S
C2606 C2607 1.400 . S
C2607 C2606 1.400 . S
C2607 C2608 1.398 . S
C2607 C2613 1.491 . S
C2608 H2599 0.950 . S
C2608 C2607 1.398 . S
C2608 C2609 1.391 . S
C2609 H2597 0.950 . S
C2609 C2605 1.393 . S
C2609 C2608 1.391 . S
C2610 H2600 0.950 . S
C2610 C2611 1.386 . S
C2610 C2612 1.391 . S
C2611 C2610 1.386 . S
C2611 C2615 1.393 . S
C2612 H2601 0.950 . S
C2612 C2610 1.391 . S
C2612 C2613 1.400 . S
C2613 C2607 1.491 . S
C2613 C2612 1.400 . S
C2613 C2614 1.398 . S
C2614 H2602 0.950 . S
C2614 C2613 1.398 . S
C2614 C2615 1.391 . S
C2615 H2603 0.950 . S
C2615 C2611 1.393 . S
C2615 C2614 1.391 . S
H2616 C2624 0.950 . S
H2617 C2629 0.950 . S
H2618 C2626 0.950 . S
H2619 C2628 0.950 . S
H2620 C2630 0.950 . S
H2621 C2632 0.950 . S
H2622 C2634 0.950 . S
H2623 C2635 0.950 . S
C2624 H2616 0.950 . S
C2624 C2625 1.386 . S
C2624 C2626 1.391 . S
C2625 C2624 1.386 . S
C2625 C2629 1.393 . S
C2626 H2618 0.950 . S
C2626 C2624 1.391 . S
C2626 C2627 1.400 . S
C2627 C2626 1.400 . S
C2627 C2628 1.398 . S
C2627 C2633 1.491 1_455 S
C2628 H2619 0.950 . S
C2628 C2627 1.398 . S
C2628 C2629 1.391 . S
C2629 H2617 0.950 . S
C2629 C2625 1.393 . S
C2629 C2628 1.391 . S
C2630 H2620 0.950 . S
C2630 C2631 1.386 . S
C2630 C2632 1.391 . S
C2631 C2630 1.386 . S
C2631 C2635 1.393 . S
C2632 H2621 0.950 . S
C2632 C2630 1.391 . S
C2632 C2633 1.400 . S
C2633 C2627 1.491 1_655 S
C2633 C2632 1.400 . S
C2633 C2634 1.398 . S
C2634 H2622 0.950 . S
C2634 C2633 1.398 . S
C2634 C2635 1.391 . S
C2635 H2623 0.950 . S
C2635 C2631 1.393 . S
C2635 C2634 1.391 . S
H2636 C2644 0.950 . S
H2637 C2649 0.950 . S
H2638 C2646 0.950 . S
H2639 C2648 0.950 . S
H2640 C2650 0.950 . S
H2641 C2652 0.950 . S
H2642 C2654 0.950 . S
H2643 C2655 0.950 . S
C2644 H2636 0.950 . S
C2644 C2645 1.386 . S
C2644 C2646 1.391 . S
C2645 C2644 1.386 . S
C2645 C2649 1.393 . S
C2646 H2638 0.950 . S
C2646 C2644 1.391 . S
C2646 C2647 1.400 . S
C2647 C2646 1.400 . S
C2647 C2648 1.398 . S
C2647 C2653 1.491 . S
C2648 H2639 0.950 . S
C2648 C2647 1.398 . S
C2648 C2649 1.391 . S
C2649 H2637 0.950 . S
C2649 C2645 1.393 . S
C2649 C2648 1.391 . S
C2650 H2640 0.950 . S
C2650 C2651 1.386 . S
C2650 C2652 1.391 . S
C2651 C2650 1.386 . S
C2651 C2655 1.393 . S
C2652 H2641 0.950 . S
C2652 C2650 1.391 . S
C2652 C2653 1.400 . S
C2653 C2647 1.491 . S
C2653 C2652 1.400 . S
C2653 C2654 1.398 . S
C2654 H2642 0.950 . S
C2654 C2653 1.398 . S
C2654 C2655 1.391 . S
C2655 H2643 0.950 . S
C2655 C2651 1.393 . S
C2655 C2654 1.391 . S
H2656 C2664 0.950 . S
H2657 C2669 0.950 . S
H2658 C2666 0.950 . S
H2659 C2668 0.950 . S
H2660 C2670 0.950 . S
H2661 C2672 0.950 . S
H2662 C2674 0.950 . S
H2663 C2675 0.950 . S
C2664 H2656 0.950 . S
C2664 C2665 1.386 . S
C2664 C2666 1.391 . S
C2665 C2664 1.386 . S
C2665 C2669 1.393 . S
C2666 H2658 0.950 . S
C2666 C2664 1.391 . S
C2666 C2667 1.400 . S
C2667 C2666 1.400 . S
C2667 C2668 1.398 . S
C2667 C2673 1.491 1_545 S
C2668 H2659 0.950 . S
C2668 C2667 1.398 . S
C2668 C2669 1.391 . S
C2669 H2657 0.950 . S
C2669 C2665 1.393 . S
C2669 C2668 1.391 . S
C2670 H2660 0.950 . S
C2670 C2671 1.386 . S
C2670 C2672 1.391 . S
C2671 C2670 1.386 . S
C2671 C2675 1.393 . S
C2672 H2661 0.950 . S
C2672 C2670 1.391 . S
C2672 C2673 1.400 . S
C2673 C2667 1.491 1_565 S
C2673 C2672 1.400 . S
C2673 C2674 1.398 . S
C2674 H2662 0.950 . S
C2674 C2673 1.398 . S
C2674 C2675 1.391 . S
C2675 H2663 0.950 . S
C2675 C2671 1.393 . S
C2675 C2674 1.391 . S
H2676 C2684 0.950 . S
H2677 C2689 0.950 . S
H2678 C2686 0.950 . S
H2679 C2688 0.950 . S
H2680 C2690 0.950 . S
H2681 C2692 0.950 . S
H2682 C2694 0.950 . S
H2683 C2695 0.950 . S
C2684 H2676 0.950 . S
C2684 C2685 1.386 . S
C2684 C2686 1.391 . S
C2685 C2684 1.386 . S
C2685 C2689 1.393 1_554 S
C2686 H2678 0.950 . S
C2686 C2684 1.391 . S
C2686 C2687 1.400 . S
C2687 C2686 1.400 . S
C2687 C2688 1.398 1_554 S
C2687 C2693 1.491 1_544 S
C2688 H2679 0.950 . S
C2688 C2687 1.398 1_556 S
C2688 C2689 1.391 . S
C2689 H2677 0.950 . S
C2689 C2685 1.393 1_556 S
C2689 C2688 1.391 . S
C2690 H2680 0.950 . S
C2690 C2691 1.386 . S
C2690 C2692 1.391 . S
C2691 C2690 1.386 . S
C2691 C2695 1.393 1_556 S
C2692 H2681 0.950 . S
C2692 C2690 1.391 . S
C2692 C2693 1.400 . S
C2693 C2687 1.491 1_566 S
C2693 C2692 1.400 . S
C2693 C2694 1.398 1_556 S
C2694 H2682 0.950 . S
C2694 C2693 1.398 1_554 S
C2694 C2695 1.391 . S
C2695 H2683 0.950 . S
C2695 C2691 1.393 1_554 S
C2695 C2694 1.391 . S
H2696 C2704 0.950 . S
H2697 C2709 0.950 . S
H2698 C2706 0.950 . S
H2699 C2708 0.950 . S
H2700 C2710 0.950 . S
H2701 C2712 0.950 . S
H2702 C2714 0.950 . S
H2703 C2715 0.950 . S
C2704 H2696 0.950 . S
C2704 C2705 1.386 . S
C2704 C2706 1.391 . S
C2705 C2704 1.386 . S
C2705 C2709 1.393 1_554 S
C2706 H2698 0.950 . S
C2706 C2704 1.391 . S
C2706 C2707 1.400 . S
C2707 C2706 1.400 . S
C2707 C2708 1.398 1_554 S
C2707 C2713 1.491 1_654 S
C2708 H2699 0.950 . S
C2708 C2707 1.398 1_556 S
C2708 C2709 1.391 . S
C2709 H2697 0.950 . S
C2709 C2705 1.393 1_556 S
C2709 C2708 1.391 . S
C2710 H2700 0.950 . S
C2710 C2711 1.386 . S
C2710 C2712 1.391 . S
C2711 C2710 1.386 . S
C2711 C2715 1.393 1_556 S
C2712 H2701 0.950 . S
C2712 C2710 1.391 . S
C2712 C2713 1.400 . S
C2713 C2707 1.491 1_456 S
C2713 C2712 1.400 . S
C2713 C2714 1.398 1_556 S
C2714 H2702 0.950 . S
C2714 C2713 1.398 1_554 S
C2714 C2715 1.391 . S
C2715 H2703 0.950 . S
C2715 C2711 1.393 1_554 S
C2715 C2714 1.391 . S
H2716 C2724 0.950 . S
H2717 C2729 0.950 . S
H2718 C2726 0.950 . S
H2719 C2728 0.950 . S
H2720 C2730 0.950 . S
H2721 C2732 0.950 . S
H2722 C2734 0.950 . S
H2723 C2735 0.950 . S
C2724 H2716 0.950 . S
C2724 C2725 1.386 . S
C2724 C2726 1.391 . S
C2725 C2724 1.386 . S
C2725 C2729 1.393 1_554 S
C2726 H2718 0.950 . S
C2726 C2724 1.391 . S
C2726 C2727 1.400 . S
C2727 C2726 1.400 . S
C2727 C2728 1.398 1_554 S
C2727 C2733 1.491 1_554 S
C2728 H2719 0.950 . S
C2728 C2727 1.398 1_556 S
C2728 C2729 1.391 . S
C2729 H2717 0.950 . S
C2729 C2725 1.393 1_556 S
C2729 C2728 1.391 . S
C2730 H2720 0.950 . S
C2730 C2731 1.386 . S
C2730 C2732 1.391 . S
C2731 C2730 1.386 . S
C2731 C2735 1.393 1_556 S
C2732 H2721 0.950 . S
C2732 C2730 1.391 . S
C2732 C2733 1.400 . S
C2733 C2727 1.491 1_556 S
C2733 C2732 1.400 . S
C2733 C2734 1.398 1_556 S
C2734 H2722 0.950 . S
C2734 C2733 1.398 1_554 S
C2734 C2735 1.391 . S
C2735 H2723 0.950 . S
C2735 C2731 1.393 1_554 S
C2735 C2734 1.391 . S
C1305 C374 1.196 . S
C1311 C2 1.170 . S
C1325 C400 1.005 . S
C1331 C38 0.963 . S
C1345 C74 1.174 . S
C1351 C338 1.200 . S
C1365 C110 1.150 . S
C1371 C302 1.181 . S
C1385 C146 0.998 . S
C1391 C220 0.992 . S
C1405 C266 1.200 . S
C1411 C182 1.178 . S
C1425 C158 0.985 . S
C1431 C219 0.998 . S
C1445 C194 1.181 . S
C1451 C254 1.149 . S
C1465 C290 1.140 . S
C1471 C122 1.171 . S
C1485 C86 1.172 . S
C1491 C326 1.141 . S
C1505 C362 1.180 . S
C1511 C14 1.207 . S
C1525 C399 1.010 . S
C1531 C50 1.002 . S
C1545 C806 1.200 . S
C1551 C434 1.178 . S
C1565 C832 0.987 . S
C1571 C470 0.979 . S
C1585 C506 1.172 . S
C1591 C770 1.199 . S
C1605 C542 1.181 . S
C1611 C734 1.206 1_556 S
C1625 C578 0.992 . S
C1631 C652 0.989 1_556 S
C1645 C614 1.142 . S
C1651 C698 1.173 1_556 S
C1665 C590 0.995 . S
C1671 C651 1.005 . S
C1685 C626 1.208 . S
C1691 C686 1.182 . S
C1705 C554 1.194 . S
C1711 C722 1.169 . S
C1725 C518 1.199 . S
C1731 C758 1.176 . S
C1745 C446 1.182 . S
C1751 C794 1.149 . S
C1765 C482 0.974 . S
C1771 C831 0.993 . S
C1785 C866 1.147 . S
C1791 C1238 1.176 . S
C1805 C1264 1.019 . S
C1811 C902 1.004 . S
C1825 C1202 1.178 . S
C1831 C938 1.145 . S
C1845 C974 1.160 . S
C1851 C1166 1.190 . S
C1865 C1010 0.997 . S
C1871 C1084 1.022 . S
C1885 C1046 1.171 . S
C1891 C1130 1.196 . S
C1905 C1022 1.002 . S
C1911 C1083 1.010 . S
C1925 C1058 1.205 . S
C1931 C1118 1.177 . S
C1945 C986 1.198 . S
C1951 C1154 1.175 . S
C1965 C1190 1.176 . S
C1971 C950 1.199 1_554 S
C1985 C878 1.210 1_554 S
C1991 C1226 1.184 . S
C2005 C1263 0.987 . S
C2011 C914 0.969 . S
C2025 C112 1.499 . S
C2031 C4 1.509 . S
C2045 C148 1.446 . S
C2051 C40 1.438 . S
C2065 C76 1.500 . S
C2071 C184 1.509 . S
C2085 C328 1.435 . S
C2091 C230 1.387 . S
C2105 C364 1.470 . S
C2111 C256 1.479 . S
C2125 C410 1.382 . S
C2131 C292 1.430 . S
C2145 C544 1.508 . S
C2151 C436 1.503 . S
C2165 C580 1.446 . S
C2171 C472 1.437 . S
C2185 C508 1.506 . S
C2191 C616 1.501 . S
C2205 C662 1.370 . S
C2211 C760 1.433 . S
C2225 C796 1.469 . S
C2231 C688 1.478 . S
C2245 C724 1.427 . S
C2251 C842 1.357 . S
C2265 C976 1.499 . S
C2271 C868 1.509 . S
C2285 C1012 1.446 . S
C2291 C904 1.437 . S
C2305 C940 1.500 . S
C2311 C1048 1.509 . S
C2325 C1094 1.357 . S
C2331 C1192 1.426 . S
C2345 C1120 1.473 . S
C2351 C1228 1.478 . S
C2365 C1156 1.435 . S
C2371 C1274 1.377 . S
C2385 C3 1.544 . S
C2391 C650 1.514 . S
C2405 C687 1.421 . S
C2411 C39 1.421 . S
C2425 C723 1.483 . S
C2431 C75 1.483 . S
C2445 C1191 1.477 . S
C2451 C111 1.478 . S
C2465 C1227 1.426 . S
C2471 C147 1.426 . S
C2485 C1262 1.509 . S
C2491 C183 1.543 . S
C2505 C218 1.525 . S
C2511 C867 1.545 . S
C2525 C903 1.422 . S
C2531 C255 1.422 . S
C2545 C939 1.482 . S
C2551 C291 1.481 . S
C2565 C327 1.477 . S
C2571 C543 1.478 . S
C2585 C363 1.426 . S
C2591 C579 1.426 . S
C2605 C398 1.518 . S
C2611 C615 1.545 . S
C2625 C1082 1.524 . S
C2631 C435 1.545 . S
C2645 C1119 1.421 . S
C2651 C471 1.421 . S
C2665 C507 1.478 . S
C2671 C1155 1.478 . S
C2685 C759 1.483 . S
C2691 C975 1.483 . S
C2705 C795 1.427 . S
C2711 C1011 1.427 . S
C2725 C830 1.522 . S
C2731 C1047 1.544 . S
