# Generated by pormake.
# Topology une, (4)-cn, num edge types: 1
# Building blocks:
#     Node 0, Type 0, BuildingBlock: NAHDIM_clean_sbu_0, # of connection points: 4
#     Node 1, Type 0, BuildingBlock: NAHDIM_clean_sbu_0, # of connection points: 4
#     Node 2, Type 0, BuildingBlock: NAHDIM_clean_sbu_0, # of connection points: 4
#     Node 3, Type 0, BuildingBlock: NAHDIM_clean_sbu_0, # of connection points: 4
#     Node 4, Type 0, BuildingBlock: NAHDIM_clean_sbu_0, # of connection points: 4
#     Node 5, Type 0, BuildingBlock: NAHDIM_clean_sbu_0, # of connection points: 4
#     Node 6, Type 0, BuildingBlock: NAHDIM_clean_sbu_0, # of connection points: 4
#     Node 7, Type 0, BuildingBlock: NAHDIM_clean_sbu_0, # of connection points: 4
#     Node 8, Type 0, BuildingBlock: NAHDIM_clean_sbu_0, # of connection points: 4
#     Node 9, Type 0, BuildingBlock: NAHDIM_clean_sbu_0, # of connection points: 4
#     Node 10, Type 0, BuildingBlock: NAHDIM_clean_sbu_0, # of connection points: 4
#     Node 11, Type 0, BuildingBlock: NAHDIM_clean_sbu_0, # of connection points: 4
#     Node 12, Type 0, BuildingBlock: NAHDIM_clean_sbu_0, # of connection points: 4
#     Node 13, Type 0, BuildingBlock: NAHDIM_clean_sbu_0, # of connection points: 4
#     Node 14, Type 0, BuildingBlock: NAHDIM_clean_sbu_0, # of connection points: 4
#     Node 15, Type 0, BuildingBlock: NAHDIM_clean_sbu_0, # of connection points: 4
#     Node 16, Type 0, BuildingBlock: NAHDIM_clean_sbu_0, # of connection points: 4
#     Node 17, Type 0, BuildingBlock: NAHDIM_clean_sbu_0, # of connection points: 4
#     Edge 18, Type (0, 0), BuildingBlock: EZIPEK_clean_linker_0, # of connection points: 2
#     Edge 19, Type (0, 0), BuildingBlock: EZIPEK_clean_linker_0, # of connection points: 2
#     Edge 20, Type (0, 0), BuildingBlock: EZIPEK_clean_linker_0, # of connection points: 2
#     Edge 21, Type (0, 0), BuildingBlock: EZIPEK_clean_linker_0, # of connection points: 2
#     Edge 22, Type (0, 0), BuildingBlock: EZIPEK_clean_linker_0, # of connection points: 2
#     Edge 23, Type (0, 0), BuildingBlock: EZIPEK_clean_linker_0, # of connection points: 2
#     Edge 24, Type (0, 0), BuildingBlock: EZIPEK_clean_linker_0, # of connection points: 2
#     Edge 25, Type (0, 0), BuildingBlock: EZIPEK_clean_linker_0, # of connection points: 2
#     Edge 26, Type (0, 0), BuildingBlock: EZIPEK_clean_linker_0, # of connection points: 2
#     Edge 27, Type (0, 0), BuildingBlock: EZIPEK_clean_linker_0, # of connection points: 2
#     Edge 28, Type (0, 0), BuildingBlock: EZIPEK_clean_linker_0, # of connection points: 2
#     Edge 29, Type (0, 0), BuildingBlock: EZIPEK_clean_linker_0, # of connection points: 2
#     Edge 30, Type (0, 0), BuildingBlock: EZIPEK_clean_linker_0, # of connection points: 2
#     Edge 31, Type (0, 0), BuildingBlock: EZIPEK_clean_linker_0, # of connection points: 2
#     Edge 32, Type (0, 0), BuildingBlock: EZIPEK_clean_linker_0, # of connection points: 2
#     Edge 33, Type (0, 0), BuildingBlock: EZIPEK_clean_linker_0, # of connection points: 2
#     Edge 34, Type (0, 0), BuildingBlock: EZIPEK_clean_linker_0, # of connection points: 2
#     Edge 35, Type (0, 0), BuildingBlock: EZIPEK_clean_linker_0, # of connection points: 2
#     Edge 36, Type (0, 0), BuildingBlock: EZIPEK_clean_linker_0, # of connection points: 2
#     Edge 37, Type (0, 0), BuildingBlock: EZIPEK_clean_linker_0, # of connection points: 2
#     Edge 38, Type (0, 0), BuildingBlock: EZIPEK_clean_linker_0, # of connection points: 2
#     Edge 39, Type (0, 0), BuildingBlock: EZIPEK_clean_linker_0, # of connection points: 2
#     Edge 40, Type (0, 0), BuildingBlock: EZIPEK_clean_linker_0, # of connection points: 2
#     Edge 41, Type (0, 0), BuildingBlock: EZIPEK_clean_linker_0, # of connection points: 2
#     Edge 42, Type (0, 0), BuildingBlock: EZIPEK_clean_linker_0, # of connection points: 2
#     Edge 43, Type (0, 0), BuildingBlock: EZIPEK_clean_linker_0, # of connection points: 2
#     Edge 44, Type (0, 0), BuildingBlock: EZIPEK_clean_linker_0, # of connection points: 2
#     Edge 45, Type (0, 0), BuildingBlock: EZIPEK_clean_linker_0, # of connection points: 2
#     Edge 46, Type (0, 0), BuildingBlock: EZIPEK_clean_linker_0, # of connection points: 2
#     Edge 47, Type (0, 0), BuildingBlock: EZIPEK_clean_linker_0, # of connection points: 2
#     Edge 48, Type (0, 0), BuildingBlock: EZIPEK_clean_linker_0, # of connection points: 2
#     Edge 49, Type (0, 0), BuildingBlock: EZIPEK_clean_linker_0, # of connection points: 2
#     Edge 50, Type (0, 0), BuildingBlock: EZIPEK_clean_linker_0, # of connection points: 2
#     Edge 51, Type (0, 0), BuildingBlock: EZIPEK_clean_linker_0, # of connection points: 2
#     Edge 52, Type (0, 0), BuildingBlock: EZIPEK_clean_linker_0, # of connection points: 2
#     Edge 53, Type (0, 0), BuildingBlock: EZIPEK_clean_linker_0, # of connection points: 2
# Relax obj value: 0.222
# Max RMSD: 0.185
# Mean RMSD: 0.171
data_MOF--net-une--node1-NAHDIM_clean_sbu_0--edge1-EZIPEK_clean_linker_0
_symmetry_space_group_name_H-M    P1
_symmetry_Int_Tables_number       1
_symmetry_cell_setting            triclinic
loop_
_symmetry_equiv_pos_as_xyz
'x, y, z'
_cell_length_a     27.675822
_cell_length_b     27.451809
_cell_length_c     41.235587
_cell_angle_alpha  90.378486
_cell_angle_beta   90.34008
_cell_angle_gamma 120.65674
loop_
_atom_site_label
_atom_site_type_symbol
_atom_site_fract_x
_atom_site_fract_y
_atom_site_fract_z
_atom_type_partial_charge
C0 C 0.43374 0.04086 0.03738 0.0
O1 O 0.45211 0.09184 0.02613 0.0
O2 O 0.35623 0.10283 0.01459 0.0
Zn3 Zn 0.33488 0.04684 0.05071 0.0
O4 O 0.26029 0.98124 0.03713 0.0
C5 C 0.28796 0.09253 0.09408 0.0
O6 O 0.25353 0.07933 0.06917 0.0
O7 O 0.38754 0.01598 0.05249 0.0
C8 C 0.21841 0.94967 0.05466 0.0
O9 O 0.22017 0.95919 0.08601 0.0
C10 C 0.35362 0.08738 0.98518 0.0
O11 O 0.33963 0.03505 0.97818 0.0
O12 O 0.32805 0.0825 0.09241 0.0
C13 C 0.91049 0.20338 0.11275 0.0
O14 O 0.93079 0.18167 0.09225 0.0
O15 O 0.02171 0.27119 0.06327 0.0
Zn16 Zn 0.95632 0.28396 0.06436 0.0
O17 O 0.90038 0.23677 0.02963 0.0
C18 C 0.02793 0.40005 0.04263 0.0
O19 O 0.0659 0.38511 0.04049 0.0
O20 O 0.91657 0.25173 0.10681 0.0
C21 C 0.89612 0.25526 1.00222 0.0
O22 O 0.93011 0.30841 0.99465 0.0
C23 C 0.03899 0.26349 0.03644 0.0
O24 O 0.0144 0.26485 0.00941 0.0
O25 O 0.98029 0.36604 0.0549 0.0
C26 C 0.79383 0.68102 0.11504 0.0
O27 O 0.81606 0.71064 0.08875 0.0
O28 O 0.71005 0.7236 0.07161 0.0
Zn29 Zn 0.70215 0.64661 0.07424 0.0
O30 O 0.74637 0.63794 0.03865 0.0
C31 C 0.5903 0.59343 0.04839 0.0
O32 O 0.61004 0.64488 0.03754 0.0
O33 O 0.74097 0.64657 0.11595 0.0
C34 C 0.72941 0.59365 0.02132 0.0
O35 O 0.67845 0.55007 0.02474 0.0
C36 C 0.72026 0.74838 0.04451 0.0
O37 O 0.72724 0.7241 0.01886 0.0
O38 O 0.62063 0.58348 0.06744 0.0
C39 C 0.62283 0.86282 0.89989 0.0
O40 O 0.6113 0.83336 0.92663 0.0
O41 O 0.58285 0.96102 0.96096 0.0
Zn42 Zn 0.64708 0.95214 0.94534 0.0
O43 O 0.66518 0.90943 0.97768 0.0
C44 C 0.7116 0.07278 0.93619 0.0
O45 O 0.66477 0.06639 0.92392 0.0
O46 O 0.63585 0.91445 0.9014 0.0
C47 C 0.70276 0.93265 0.99965 0.0
O48 O 0.73139 0.98795 0.00324 0.0
C49 C 0.56011 0.94234 0.9883 0.0
O50 O 0.57312 0.91026 0.00524 0.0
O51 O 0.71413 0.02982 0.94461 0.0
C52 C 0.11894 0.73568 0.89231 0.0
O53 O 0.1503 0.74714 0.91853 0.0
O54 O 0.03939 0.60183 0.95391 0.0
Zn55 Zn 0.03271 0.66787 0.93734 0.0
O56 O 0.07094 0.73275 0.96918 0.0
C57 C 0.92829 0.62844 0.9641 0.0
O58 O 0.95968 0.63213 0.98907 0.0
O59 O 0.0668 0.69901 0.89364 0.0
C60 C 0.05405 0.76662 0.9764 0.0
O61 O 0.00755 0.75977 0.96342 0.0
C62 C 0.0641 0.60529 0.98074 0.0
O63 O 0.09245 0.6544 0.99582 0.0
O64 O 0.95027 0.64103 0.93624 0.0
C65 C 0.2305 0.36178 0.91684 0.0
O66 O 0.22318 0.37204 0.94701 0.0
O67 O 0.37774 0.39616 0.96469 0.0
Zn68 Zn 0.30449 0.33124 0.94724 0.0
O69 O 0.24833 0.30332 0.98245 0.0
C70 C 0.36047 0.27042 0.92748 0.0
O71 O 0.40632 0.32043 0.92973 0.0
O72 O 0.2676 0.3489 0.91038 0.0
C73 C 0.22766 0.25725 0.99783 0.0
O74 O 0.24618 0.22224 0.99319 0.0
C75 C 0.3791 0.4245 0.98958 0.0
O76 O 0.3318 0.4148 1.00256 0.0
O77 O 0.31389 0.26665 0.93389 0.0
C78 C 0.03654 0.29755 0.37575 0.0
O79 O 0.98914 0.28206 0.36033 0.0
O80 O 0.98158 0.38158 0.38358 0.0
Zn81 Zn 0.98049 0.32969 0.4179 0.0
O82 O 0.90861 0.25417 0.41245 0.0
C83 C 0.95214 0.36508 0.47808 0.0
O84 O 0.9007 0.32639 0.46979 0.0
O85 O 0.04432 0.31905 0.40412 0.0
C86 C 0.86172 0.24993 0.40585 0.0
O87 O 0.85671 0.29481 0.40763 0.0
C88 C 0.95832 0.41106 0.38548 0.0
O89 O 0.9282 0.40721 0.41083 0.0
O90 O 0.99308 0.37062 0.46135 0.0
C91 C 0.54245 0.51414 0.44039 0.0
O92 O 0.53952 0.48223 0.41571 0.0
O93 O 0.6624 0.6067 0.37979 0.0
Zn94 Zn 0.58687 0.59593 0.39052 0.0
O95 O 0.53262 0.53855 0.35824 0.0
C96 C 0.64196 0.7151 0.37994 0.0
O97 O 0.685 0.71266 0.39143 0.0
O98 O 0.56204 0.56683 0.43607 0.0
C99 C 0.53251 0.55367 0.3292 0.0
O100 O 0.56502 0.60693 0.32121 0.0
C101 C 0.67522 0.5688 0.37606 0.0
O102 O 0.63889 0.51592 0.38298 0.0
O103 O 0.59317 0.6711 0.38038 0.0
C104 C 0.48149 0.0543 0.43386 0.0
O105 O 0.50397 0.09392 0.41183 0.0
O106 O 0.38075 0.07203 0.38045 0.0
Zn107 Zn 0.39052 0.00469 0.387 0.0
O108 O 0.43348 0.99472 0.35045 0.0
C109 C 0.28558 0.92346 0.35934 0.0
O110 O 0.31134 0.95307 0.33379 0.0
O111 O 0.43226 0.01204 0.42908 0.0
C112 C 0.43533 0.00793 0.32076 0.0
O113 O 0.40845 0.03294 0.31054 0.0
C114 C 0.41265 0.11622 0.36441 0.0
O115 O 0.46065 0.12415 0.35359 0.0
O116 O 0.31121 0.93576 0.38659 0.0
C117 C 0.24548 0.188 0.20916 0.0
O118 O 0.21758 0.1552 0.2335 0.0
O119 O 0.20493 0.26686 0.27647 0.0
Zn120 Zn 0.27597 0.27547 0.25718 0.0
O121 O 0.30546 0.23796 0.28628 0.0
C122 C 0.38398 0.36914 0.24913 0.0
O123 O 0.39181 0.32702 0.24195 0.0
O124 O 0.26938 0.24139 0.21272 0.0
C125 C 0.33542 0.2593 0.31173 0.0
O126 O 0.34769 0.3097 0.32208 0.0
C127 C 0.21265 0.29863 0.30096 0.0
O128 O 0.26399 0.33505 0.31075 0.0
O129 O 0.33453 0.3572 0.25598 0.0
C130 C 0.79892 0.06473 0.22455 0.0
O131 O 0.82658 0.07354 0.25203 0.0
O132 O 0.68863 0.9219 0.28007 0.0
Zn133 Zn 0.70225 -0.00188 0.26455 0.0
O134 O 0.74088 0.05675 0.2993 0.0
C135 C 0.58109 0.9515 0.26128 0.0
O136 O 0.57803 0.90484 0.27159 0.0
O137 O 0.74636 0.02956 0.22358 0.0
C138 C 0.71503 0.06226 0.3231 0.0
O139 O 0.66053 0.02847 0.32579 0.0
C140 C 0.7045 0.91814 0.30853 0.0
O141 O 0.7344 0.96405 0.32616 0.0
O142 O 0.62937 0.99455 0.25711 0.0
C143 C 0.94668 0.72146 0.22214 0.0
O144 O 0.97413 0.76953 0.23836 0.0
O145 O 0.05398 0.74012 0.28975 0.0
Zn146 Zn 0.97796 0.67374 0.27601 0.0
O147 O 0.91837 0.66285 0.30738 0.0
C148 C 0.98735 0.59194 0.3082 0.0
O149 O -0.00514 0.62857 0.33112 0.0
O150 O 0.94808 0.67847 0.23208 0.0
C151 C 0.86995 0.62142 0.30039 0.0
O152 O 0.86237 0.59234 0.27351 0.0
C153 C 0.06086 0.76162 0.31809 0.0
O154 O 0.01761 0.74418 0.33732 0.0
O155 O 0.98074 0.6022 0.27907 0.0
C156 C 0.74326 0.66904 0.70676 0.0
O157 O 0.69495 0.63761 0.69179 0.0
O158 O 0.68129 0.76632 0.70055 0.0
Zn159 Zn 0.68064 0.71392 0.73424 0.0
O160 O 0.61172 0.63827 0.72723 0.0
C161 C 0.63938 0.75751 0.78163 0.0
O162 O 0.60325 0.74646 0.75788 0.0
O163 O 0.7486 0.70592 0.72759 0.0
C164 C 0.58239 0.60328 0.74895 0.0
O165 O 0.59562 0.61564 0.77974 0.0
C166 C 0.67286 0.75568 0.67033 0.0
O167 O 0.66172 0.70636 0.65869 0.0
O168 O 0.67828 0.74621 0.77791 0.0
C169 C 0.22409 0.86757 0.77751 0.0
O170 O 0.24967 0.84828 0.75934 0.0
O171 O 0.33814 0.94577 0.7271 0.0
Zn172 Zn 0.26558 0.94553 0.72702 0.0
O173 O 0.2179 0.89559 0.68991 0.0
C174 C 0.32827 0.07004 0.72291 0.0
O175 O 0.36169 0.07037 0.74576 0.0
O176 O 0.22475 0.91244 0.76904 0.0
C177 C 0.21123 0.91535 0.6635 0.0
O178 O 0.23598 0.97022 0.65924 0.0
C179 C 0.36611 0.96451 0.70131 0.0
O180 O 0.34551 0.97983 0.67734 0.0
O181 O 0.28335 0.02421 0.71569 0.0
C182 C 0.07628 0.34962 0.81725 0.0
O183 O 0.08059 0.39769 0.80894 0.0
O184 O 0.02531 0.3879 0.74845 0.0
Zn185 Zn 0.02521 0.31528 0.75378 0.0
O186 O 0.08534 0.32003 0.72467 0.0
C187 C 0.91155 0.26111 0.72919 0.0
O188 O 0.91534 0.30822 0.73967 0.0
O189 O 0.04895 0.30616 0.79903 0.0
C190 C 0.07765 0.30517 0.69497 0.0
O191 O 0.0281 0.28583 0.68129 0.0
C192 C 0.0701 0.43387 0.74226 0.0
O193 O 0.11837 0.43564 0.7426 0.0
O194 O 0.95107 0.25159 0.73553 0.0
C195 C 0.94345 0.51152 0.57604 0.0
O196 O 0.90579 0.48803 0.59892 0.0
O197 O 0.91153 0.61021 0.62884 0.0
Zn198 Zn 0.98092 0.6087 0.61699 0.0
O199 O -0.00262 0.57114 0.65271 0.0
C200 C 0.05168 0.72459 0.59382 0.0
O201 O 0.01816 0.71028 0.56841 0.0
O202 O 0.97743 0.5647 0.57701 0.0
C203 C 0.03864 0.59543 0.67236 0.0
O204 O 0.07311 0.65042 0.67125 0.0
C205 C 0.91856 0.6385 0.65481 0.0
O206 O 0.96723 0.66218 0.67006 0.0
O207 O 0.04407 0.68822 0.61503 0.0
C208 C 0.46132 0.40227 0.5638 0.0
O209 O 0.49464 0.39586 0.5839 0.0
O210 O 0.36738 0.2744 0.62287 0.0
Zn211 Zn 0.38088 0.35346 0.61598 0.0
O212 O 0.43252 0.40945 0.65004 0.0
C213 C 0.27359 0.31564 0.64235 0.0
O214 O 0.28747 0.28405 0.65904 0.0
O215 O 0.41098 0.38522 0.5719 0.0
C216 C 0.42685 0.40162 0.68049 0.0
O217 O 0.38751 0.35291 0.69183 0.0
C218 C 0.39712 0.26404 0.6419 0.0
O219 O 0.44297 0.30683 0.65437 0.0
O220 O 0.30662 0.3487 0.62095 0.0
C221 C 0.60688 0.07317 0.55152 0.0
O222 O 0.60389 0.10127 0.57659 0.0
O223 O 0.72271 0.09033 0.62041 0.0
Zn224 Zn 0.64805 0.03008 0.60056 0.0
O225 O 0.58378 0.01942 0.62797 0.0
C226 C 0.68382 0.94917 0.61229 0.0
O227 O 0.73318 0.99448 0.61767 0.0
O228 O 0.62982 0.04343 0.55503 0.0
C229 C 0.5803 0.01206 0.65844 0.0
O230 O 0.62242 0.01497 0.67489 0.0
C231 C 0.72611 0.12667 0.64101 0.0
O232 O 0.68202 0.13134 0.64664 0.0
O233 O 0.64321 0.9544 0.6023 0.0
C234 C 0.43756 0.96438 0.00564 0.0
C235 C 0.46315 0.01029 0.0283 0.0
C236 C 0.54955 0.0058 0.0279 0.0
C237 C 0.52572 0.96368 0.00305 0.0
N238 N 0.44953 0.90493 0.96644 0.0
N239 N 0.54334 0.07652 0.0604 0.0
C240 C 0.47027 0.94331 0.99155 0.0
C241 C 0.51906 0.03128 0.03939 0.0
N242 N 0.38201 0.94092 0.99747 0.0
N243 N 0.6014 0.02141 0.04049 0.0
H244 H 0.52108 0.09354 0.07114 0.0
H245 H 0.58595 0.09892 0.06627 0.0
H246 H 0.62667 0.00657 0.03141 0.0
H247 H 0.61862 0.04685 0.06106 0.0
H248 H 0.35922 0.9034 0.98424 0.0
H249 H 0.35695 0.95653 0.00564 0.0
H250 H 0.4124 0.89352 0.95395 0.0
H251 H 0.47122 0.88655 0.95661 0.0
C252 C 0.05409 0.46313 0.99388 0.0
C253 C 0.03805 0.45307 0.02702 0.0
C254 C 0.03374 0.54004 0.02866 0.0
C255 C 0.05581 0.55322 0.99675 0.0
N256 N 0.0973 0.53246 0.95141 0.0
N257 N 0.02323 0.48759 0.07771 0.0
C258 C 0.06891 0.5162 0.98002 0.0
C259 C 0.03086 0.49313 0.04492 0.0
N260 N 0.05266 0.42118 0.97507 0.0
N261 N 0.01295 0.57052 0.043 0.0
H262 H 0.02181 0.45435 0.09062 0.0
H263 H 0.02386 0.51882 0.0925 0.0
H264 H 0.01274 0.60434 0.03188 0.0
H265 H 0.99078 0.55873 0.06464 0.0
H266 H 0.05797 0.42428 0.95003 0.0
H267 H 0.04057 0.38101 0.9837 0.0
H268 H 0.11329 0.50979 0.93995 0.0
H269 H 0.10976 0.57139 0.94072 0.0
C270 C 0.443 0.46376 0.03861 0.0
C271 C 0.43375 0.46628 0.00483 0.0
C272 C 0.53119 0.54314 0.99957 0.0
C273 C 0.53752 0.54672 0.03387 0.0
N274 N 0.49622 0.51497 0.08656 0.0
N275 N 0.46651 0.51624 0.95427 0.0
C276 C 0.49261 0.50815 0.05361 0.0
C277 C 0.47719 0.50806 0.98555 0.0
N278 N 0.40584 0.41784 0.05614 0.0
N279 N 0.57712 0.57154 0.98022 0.0
H280 H 0.42694 0.49311 0.94333 0.0
H281 H 0.49547 0.55004 0.94036 0.0
H282 H 0.61797 0.59541 0.98943 0.0
H283 H 0.57535 0.56604 0.95512 0.0
H284 H 0.41339 0.41141 0.08007 0.0
H285 H 0.37038 0.38313 0.04586 0.0
H286 H 0.46228 0.49172 0.1018 0.0
H287 H 0.53158 0.54718 0.09846 0.0
C288 C 0.11242 0.34216 0.3346 0.0
C289 C 0.08311 0.29883 0.35766 0.0
C290 C 0.13344 0.25122 0.34023 0.0
C291 C 0.16501 0.29623 0.31848 0.0
N292 N 0.18895 0.38682 0.29636 0.0
N293 N 0.06863 0.21568 0.38542 0.0
C294 C 0.15569 0.34236 0.31606 0.0
C295 C 0.09446 0.2543 0.36133 0.0
N296 N 0.09808 0.38257 0.33007 0.0
N297 N 0.14057 0.20544 0.34048 0.0
H298 H 0.03919 0.21634 0.40083 0.0
H299 H 0.07879 0.18534 0.39174 0.0
H300 H 0.16982 0.20256 0.32604 0.0
H301 H 0.11528 0.1686 0.3533 0.0
H302 H 0.11255 0.41114 0.31104 0.0
H303 H 0.06915 0.38604 0.34452 0.0
H304 H 0.18948 0.42498 0.29643 0.0
H305 H 0.21844 0.38676 0.28073 0.0
C306 C 0.63351 0.80063 0.36985 0.0
C307 C 0.65253 0.7639 0.35977 0.0
C308 C 0.70258 0.8262 0.31419 0.0
C309 C 0.68272 0.86238 0.32394 0.0
N310 N 0.61931 0.87824 0.356 0.0
N311 N 0.69359 0.73392 0.31843 0.0
C312 C 0.64507 0.84778 0.35028 0.0
C313 C 0.6836 0.77434 0.3307 0.0
N314 N 0.60641 0.79175 0.39874 0.0
N315 N 0.74136 0.84249 0.29008 0.0
H316 H 0.67989 0.69518 0.32966 0.0
H317 H 0.71086 0.7364 0.29571 0.0
H318 H 0.75532 0.87964 0.27699 0.0
H319 H 0.76257 0.8213 0.28448 0.0
H320 H 0.59726 0.82062 0.40931 0.0
H321 H 0.59644 0.75708 0.41338 0.0
H322 H 0.58739 0.86661 0.37278 0.0
H323 H 0.62616 0.91247 0.3418 0.0
C324 C 0.13175 0.85761 0.34005 0.0
C325 C 0.11792 0.80202 0.33085 0.0
C326 C 0.21279 0.82352 0.34611 0.0
C327 C 0.22615 0.87866 0.35563 0.0
N328 N 0.19696 0.94542 0.36811 0.0
N329 N 0.14081 0.72807 0.33103 0.0
C330 C 0.18495 0.89468 0.35474 0.0
C331 C 0.1572 0.78378 0.33557 0.0
N332 N 0.09513 0.87583 0.33326 0.0
N333 N 0.25386 0.80982 0.34623 0.0
H334 H 0.10078 0.69784 0.32294 0.0
H335 H 0.16529 0.71078 0.33754 0.0
H336 H 0.29383 0.83658 0.35604 0.0
H337 H 0.24928 0.77328 0.33545 0.0
H338 H 0.10495 0.91759 0.33616 0.0
H339 H 0.05605 0.85006 0.32219 0.0
H340 H 0.16746 0.95789 0.37095 0.0
H341 H 0.23564 0.97316 0.3791 0.0
C342 C 0.84568 0.61675 0.6968 0.0
C343 C 0.87319 0.64568 0.6681 0.0
C344 C 0.82343 0.69816 0.66932 0.0
C345 C 0.79216 0.66547 0.69612 0.0
N346 N 0.77034 0.59225 0.73498 0.0
N347 N 0.88578 0.71004 0.62506 0.0
C348 C 0.80258 0.6245 0.70987 0.0
C349 C 0.86131 0.68529 0.65375 0.0
N350 N 0.86125 0.58236 0.71166 0.0
N351 N 0.81776 0.74243 0.65936 0.0
H352 H 0.91489 0.70275 0.61342 0.0
H353 H 0.87457 0.73469 0.61152 0.0
H354 H 0.7908 0.75324 0.6706 0.0
H355 H 0.84302 0.7715 0.64199 0.0
H356 H 0.84768 0.56516 0.73453 0.0
H357 H 0.89034 0.5731 0.70182 0.0
H358 H 0.77058 0.55683 0.74359 0.0
H359 H 0.74128 0.59973 0.74653 0.0
C360 C 0.41608 0.19038 0.66419 0.0
C361 C 0.37642 0.20616 0.65509 0.0
C362 C 0.3078 0.13572 0.69191 0.0
C363 C 0.34678 0.11912 0.70096 0.0
N364 N 0.43251 0.11985 0.68806 0.0
N365 N 0.27716 0.17308 0.64899 0.0
C366 C 0.39957 0.14344 0.68503 0.0
C367 C 0.31991 0.17256 0.66535 0.0
N368 N 0.46942 0.2197 0.65234 0.0
N369 N 0.2597 0.11759 0.70918 0.0
H370 H 0.28256 0.19293 0.62681 0.0
H371 H 0.23502 0.14637 0.65469 0.0
H372 H 0.25007 0.09209 0.72957 0.0
H373 H 0.23264 0.13299 0.70532 0.0
H374 H 0.50263 0.21628 0.66165 0.0
H375 H 0.48058 0.24858 0.63349 0.0
H376 H 0.46813 0.13179 0.67423 0.0
H377 H 0.42174 0.08456 0.70207 0.0
C378 C 0.78859 0.13278 0.68727 0.0
C379 C 0.77747 0.15958 0.66126 0.0
C380 C 0.86074 0.25004 0.67655 0.0
C381 C 0.86689 0.22504 0.70522 0.0
N382 N 0.83328 0.14385 0.73979 0.0
N383 N 0.80021 0.2443 0.6321 0.0
C384 C 0.83026 0.16656 0.71097 0.0
C385 C 0.81275 0.21844 0.65621 0.0
N386 N 0.75951 0.07507 0.68934 0.0
N387 N 0.90215 0.30308 0.66791 0.0
H388 H 0.7673 0.22202 0.61554 0.0
H389 H 0.82026 0.28809 0.62969 0.0
H390 H 0.93911 0.32669 0.68136 0.0
H391 H 0.90269 0.32138 0.6458 0.0
H392 H 0.76979 0.05289 0.70566 0.0
H393 H 0.72814 0.04884 0.67286 0.0
H394 H 0.80362 0.10312 0.74702 0.0
H395 H 0.86291 0.16727 0.75782 0.0
C396 C 0.26778 0.16304 0.12077 0.0
C397 C 0.27908 0.11816 0.12374 0.0
C398 C 0.27626 0.1253 0.18288 0.0
C399 C 0.25644 0.16371 0.17967 0.0
N400 N 0.22365 0.21127 0.14462 0.0
N401 N 0.28126 0.04812 0.15811 0.0
C402 C 0.24944 0.18041 0.14832 0.0
C403 C 0.27976 0.09685 0.15492 0.0
N404 N 0.27697 0.19095 0.09208 0.0
N405 N 0.29462 0.11793 0.21228 0.0
H406 H 0.28148 0.02426 0.13844 0.0
H407 H 0.27607 0.02815 0.18031 0.0
H408 H 0.29644 0.14049 0.23314 0.0
H409 H 0.31435 0.09443 0.21506 0.0
H410 H 0.2744 0.22731 0.08959 0.0
H411 H 0.29344 0.1819 0.07179 0.0
H412 H 0.2126 0.21973 0.12204 0.0
H413 H 0.20812 0.22346 0.16408 0.0
C414 C 0.89213 0.19392 0.17308 0.0
C415 C 0.87915 0.16976 0.14142 0.0
C416 C 0.81849 0.07586 0.16466 0.0
C417 C 0.82695 0.10079 0.19597 0.0
N418 N 0.85914 0.18643 0.22796 0.0
N419 N 0.81733 0.09009 0.10695 0.0
C420 C 0.86015 0.16069 0.19968 0.0
C421 C 0.83853 0.11137 0.13715 0.0
N422 N 0.93638 0.24756 0.17821 0.0
N423 N 0.7933 0.01844 0.16111 0.0
H424 H 0.82846 0.11531 0.08636 0.0
H425 H 0.78397 0.04897 0.10298 0.0
H426 H 0.77999 0.99092 0.18071 0.0
H427 H 0.79111 -0.00126 0.139 0.0
H428 H 0.95083 0.26459 0.20133 0.0
H429 H 0.96221 0.27296 0.15969 0.0
H430 H 0.87857 0.23026 0.23059 0.0
H431 H 0.83364 0.16441 0.24742 0.0
C432 C 0.91354 0.68946 0.16494 0.0
C433 C 0.90946 0.71482 0.19415 0.0
C434 C 0.83058 0.72057 0.17066 0.0
C435 C 0.83094 0.68955 0.14315 0.0
N436 N 0.86739 0.63764 0.11553 0.0
N437 N 0.85872 0.74776 0.22658 0.0
C438 C 0.87094 0.67206 0.1407 0.0
C439 C 0.86675 0.72891 0.19747 0.0
N440 N 0.95953 0.68437 0.15975 0.0
N441 N 0.79693 0.74365 0.17078 0.0
H442 H 0.88314 0.7539 0.24719 0.0
H443 H 0.82426 0.75222 0.23136 0.0
H444 H 0.76893 0.73743 0.15196 0.0
H445 H 0.79988 0.77264 0.18826 0.0
H446 H 0.96777 0.67157 0.13767 0.0
H447 H 0.9926 0.69855 0.17643 0.0
H448 H 0.89156 0.61851 0.11419 0.0
H449 H 0.83672 0.62406 0.09732 0.0
C450 C 0.67851 0.86132 0.85236 0.0
C451 C 0.62653 0.83736 0.86887 0.0
C452 C 0.58519 0.7577 0.83021 0.0
C453 C 0.6354 0.78454 0.81195 0.0
N454 N 0.72568 0.8677 0.80197 0.0
N455 N 0.52757 0.76813 0.87051 0.0
C456 C 0.68096 0.83801 0.82198 0.0
C457 C 0.57901 0.78701 0.85694 0.0
N458 N 0.72625 0.9046 0.86634 0.0
N459 N 0.54431 0.7033 0.82286 0.0
H460 H 0.52133 0.78893 0.88985 0.0
H461 H 0.49035 0.73507 0.86071 0.0
H462 H 0.54773 0.68002 0.80387 0.0
H463 H 0.50949 0.67942 0.83738 0.0
H464 H 0.76619 0.91933 0.85701 0.0
H465 H 0.72688 0.92227 0.88891 0.0
H466 H 0.75705 0.90951 0.80654 0.0
H467 H 0.72881 0.85269 0.77925 0.0
C468 C 0.17356 0.82988 0.86479 0.0
C469 C 0.14307 0.76973 0.86257 0.0
C470 C 0.15528 0.776 0.80366 0.0
C471 C 0.19325 0.83526 0.80663 0.0
N472 N 0.24565 0.91743 0.8414 0.0
N473 N 0.11263 0.68521 0.83014 0.0
C474 C 0.20421 0.86206 0.83755 0.0
C475 C 0.13577 0.7426 0.83204 0.0
N476 N 0.17155 0.85653 0.89243 0.0
N477 N 0.13617 0.75177 0.77373 0.0
H478 H 0.09908 0.65916 0.85038 0.0
H479 H 0.11216 0.66426 0.80888 0.0
H480 H 0.14753 0.7751 0.75239 0.0
H481 H 0.10427 0.7098 0.77044 0.0
H482 H 0.18846 0.90017 0.89412 0.0
H483 H 0.14773 0.83475 0.91249 0.0
H484 H 0.25925 0.93701 0.86405 0.0
H485 H 0.27017 0.94238 0.82235 0.0
C486 C 0.21163 0.39091 0.86285 0.0
C487 C 0.19084 0.35792 0.89119 0.0
C488 C 0.09394 0.32065 0.87176 0.0
C489 C 0.11503 0.35035 0.84243 0.0
N490 N 0.19366 0.40328 0.8069 0.0
N491 N 0.11275 0.2819 0.91956 0.0
C492 C 0.17384 0.3825 0.83706 0.0
C493 C 0.13206 0.32017 0.89489 0.0
N494 N 0.26712 0.43186 0.86104 0.0
N495 N 0.03769 0.29408 0.87787 0.0
H496 H 0.13919 0.27844 0.93631 0.0
H497 H 0.07095 0.24979 0.92159 0.0
H498 H 0.00853 0.29268 0.86116 0.0
H499 H 0.02056 0.27734 0.90037 0.0
H500 H 0.28339 0.46133 0.84246 0.0
H501 H 0.29607 0.43991 0.87962 0.0
H502 H 0.23582 0.42187 0.80071 0.0
H503 H 0.1674 0.39689 0.78709 0.0
C504 C 0.94836 0.38786 0.53676 0.0
C505 C 0.96064 0.40615 0.50424 0.0
C506 C 0.95916 0.49215 0.51834 0.0
C507 C 0.95028 0.47573 0.55135 0.0
N508 N 0.95524 0.41649 0.59295 0.0
N509 N -0.00391 0.48414 0.46691 0.0
C510 C 0.9502 0.42594 0.56094 0.0
C511 C 0.97222 0.46114 0.49595 0.0
N512 N 0.93493 0.33415 0.54463 0.0
N513 N 0.95208 0.53524 0.50781 0.0
H514 H 0.00897 0.46403 0.4506 0.0
H515 H 0.00939 0.52591 0.46087 0.0
H516 H 0.93935 0.55713 0.5229 0.0
H517 H 0.9527 0.54496 0.48337 0.0
H518 H 0.91916 0.31645 0.56719 0.0
H519 H 0.93661 0.3063 0.52795 0.0
H520 H 0.96108 0.38381 0.60076 0.0
H521 H 0.96053 0.44495 0.61142 0.0
C522 C 0.4674 0.43801 0.47435 0.0
C523 C 0.52123 0.4877 0.47246 0.0
C524 C 0.53283 0.48513 0.5313 0.0
C525 C 0.48264 0.43133 0.53233 0.0
N526 N 0.40851 0.35116 0.50308 0.0
N527 N 0.6102 0.55213 0.49847 0.0
C528 C 0.45162 0.40621 0.50335 0.0
C529 C 0.55542 0.50964 0.50075 0.0
N530 N 0.43031 0.42224 0.44892 0.0
N531 N 0.5577 0.51419 0.55937 0.0
H532 H 0.62911 0.57024 0.47652 0.0
H533 H 0.63838 0.56541 0.51796 0.0
H534 H 0.5414 0.49913 0.58227 0.0
H535 H 0.5911 0.55591 0.55973 0.0
H536 H 0.38866 0.38942 0.4503 0.0
H537 H 0.4391 0.44579 0.42777 0.0
H538 H 0.38829 0.32926 0.48184 0.0
H539 H 0.39696 0.32547 0.52346 0.0
C540 C 0.51719 0.05049 0.52291 0.0
C541 C 0.57516 0.06822 0.52122 0.0
C542 C 0.56946 0.06922 0.46186 0.0
C543 C 0.51368 0.05884 0.46392 0.0
N544 N 0.43923 0.05222 0.4974 0.0
N545 N 0.65902 0.10407 0.48926 0.0
C546 C 0.48882 0.053 0.49473 0.0
C547 C 0.60208 0.08029 0.49073 0.0
N548 N 0.48827 0.0286 0.55096 0.0
N549 N 0.59055 0.06588 0.43257 0.0
H550 H 0.68444 0.11323 0.50984 0.0
H551 H 0.68144 0.11972 0.4679 0.0
H552 H 0.56737 0.05547 0.411 0.0
H553 H 0.62883 0.06756 0.43017 0.0
H554 H 0.4448 0.00995 0.5524 0.0
H555 H 0.50642 0.02314 0.57181 0.0
H556 H 0.42241 0.05386 0.51965 0.0
H557 H 0.41793 0.0561 0.47757 0.0
C558 C 0.14482 0.91508 0.01142 0.0
C559 C 0.16784 0.90283 0.03883 0.0
C560 C 0.10236 0.80165 0.02997 0.0
C561 C 0.08766 0.81377 0.99932 0.0
N562 N 0.09955 0.88266 0.95904 0.0
N563 N 0.17236 0.83367 0.07275 0.0
C564 C 0.10943 0.87067 0.98965 0.0
C565 C 0.14714 0.84591 0.0481 0.0
N566 N 0.1564 0.96915 0.00643 0.0
N567 N 0.07299 0.74796 0.04191 0.0
H568 H 0.20591 0.86455 0.08645 0.0
H569 H 0.16299 0.79267 0.07787 0.0
H570 H 0.03902 0.71486 0.02951 0.0
H571 H 0.07842 0.73774 0.06541 0.0
H572 H 0.1367 0.97965 0.98849 0.0
H573 H 0.1813 0.00249 0.02237 0.0
H574 H 0.12012 0.92343 0.94964 0.0
H575 H 0.07467 0.85167 0.94193 0.0
C576 C 0.07629 0.20393 0.0157 0.0
C577 C 0.08465 0.25043 0.03517 0.0
C578 C 0.18322 0.27842 0.04287 0.0
C579 C 0.17742 0.24159 0.01715 0.0
N580 N 0.11841 0.16705 0.97922 0.0
N581 N 0.14674 0.33217 0.06858 0.0
C582 C 0.1237 0.20253 0.00416 0.0
C583 C 0.13793 0.28693 0.04996 0.0
N584 N 0.02299 0.16113 0.00847 0.0
N585 N 0.23287 0.30629 0.05972 0.0
H586 H 0.11522 0.3404 0.07475 0.0
H587 H 0.18639 0.36388 0.07641 0.0
H588 H 0.26641 0.30038 0.05439 0.0
H589 H 0.23875 0.33026 0.08062 0.0
H590 H 0.0142 0.12383 0.99661 0.0
H591 H 0.98745 0.16041 0.01746 0.0
H592 H 0.08144 0.14333 0.96583 0.0
H593 H 0.15186 0.16334 0.97086 0.0
C594 C 0.76862 0.84665 0.02345 0.0
C595 C 0.72317 0.80347 0.041 0.0
C596 C 0.67878 0.86109 0.04239 0.0
C597 C 0.71705 0.89665 0.0188 0.0
N598 N 0.79948 0.92518 0.9866 0.0
N599 N 0.6332 0.76903 0.06714 0.0
C600 C 0.76299 0.89071 0.00965 0.0
C601 C 0.67825 0.81094 0.05119 0.0
N602 N 0.8173 0.84574 0.0204 0.0
N603 N 0.6431 0.87557 0.0563 0.0
H604 H 0.63041 0.73164 0.07465 0.0
H605 H 0.59643 0.7697 0.07117 0.0
H606 H 0.64405 0.91303 0.05058 0.0
H607 H 0.61741 0.85409 0.07579 0.0
H608 H 0.85361 0.87857 0.01021 0.0
H609 H 0.82315 0.81481 0.0312 0.0
H610 H 0.82958 0.91828 0.97601 0.0
H611 H 0.79762 0.95908 0.97672 0.0
C612 C 0.7474 0.15213 0.9765 0.0
C613 C 0.75639 0.12857 0.94803 0.0
C614 C 0.85766 0.1955 0.95186 0.0
C615 C 0.84857 0.21795 0.9807 0.0
N616 N 0.78552 0.23011 0.01518 0.0
N617 N 0.81636 0.13483 0.90432 0.0
C618 C 0.79352 0.20034 0.99122 0.0
C619 C 0.81049 0.15282 0.93424 0.0
N620 N 0.69576 0.12631 0.99073 0.0
N621 N 0.91124 0.21289 0.94231 0.0
H622 H 0.78216 0.10365 0.89104 0.0
H623 H 0.85378 0.15384 0.89151 0.0
H624 H 0.9466 0.24526 0.95416 0.0
H625 H 0.92092 0.19357 0.92372 0.0
H626 H 0.68861 0.13729 0.01368 0.0
H627 H 0.6604 0.09118 0.98072 0.0
H628 H 0.74611 0.2228 0.02178 0.0
H629 H 0.8187 0.26593 0.02633 0.0
C630 C 0.79074 0.55454 0.00647 0.0
C631 C 0.76959 0.59069 0.99931 0.0
C632 C 0.84553 0.64343 0.96093 0.0
C633 C 0.86834 0.60906 0.96944 0.0
N634 N 0.8526 0.52057 0.99038 0.0
N635 N 0.76507 0.65638 0.96298 0.0
C636 C 0.83725 0.56059 0.98885 0.0
C637 C 0.79312 0.63073 0.97414 0.0
N638 N 0.76925 0.51733 0.03155 0.0
N639 N 0.87513 0.69011 0.9421 0.0
H640 H 0.72617 0.64695 0.97213 0.0
H641 H 0.77729 0.68231 0.94273 0.0
H642 H 0.9122 0.69981 0.93053 0.0
H643 H 0.86415 0.72088 0.93905 0.0
H644 H 0.7878 0.49518 0.04038 0.0
H645 H 0.73499 0.51125 0.0451 0.0
H646 H 0.82883 0.48188 1.00193 0.0
H647 H 0.88605 0.52371 0.97709 0.0
C648 C 0.4136 0.21859 0.9337 0.0
C649 C 0.36288 0.2173 0.92665 0.0
C650 C 0.30826 0.11967 0.94502 0.0
C651 C 0.35803 0.1261 0.95923 0.0
N652 N 0.45897 0.17556 0.96254 0.0
N653 N 0.26782 0.158 0.90795 0.0
C654 C 0.41124 0.17342 0.95167 0.0
C655 C 0.31189 0.16465 0.92645 0.0
N656 N 0.46292 0.26112 0.92169 0.0
N657 N 0.25736 0.07266 0.95118 0.0
H658 H 0.27172 0.19005 0.89272 0.0
H659 H 0.23047 0.11952 0.90481 0.0
H660 H 0.25314 0.0382 0.96409 0.0
H661 H 0.21911 0.06892 0.94487 0.0
H662 H 0.50145 0.26353 0.92458 0.0
H663 H 0.46385 0.29027 0.90522 0.0
H664 H 0.49884 0.21145 0.96144 0.0
H665 H 0.45815 0.14083 0.97319 0.0
C666 C 0.78595 0.14795 0.3998 0.0
C667 C 0.82103 0.2016 0.38575 0.0
C668 C 0.77635 0.16534 0.33287 0.0
C669 C 0.74639 0.11016 0.3458 0.0
N670 N 0.7253 0.04677 0.3908 0.0
N671 N 0.85811 0.25877 0.33777 0.0
C672 C 0.75137 0.10075 0.37918 0.0
C673 C 0.81845 0.20974 0.35199 0.0
N674 N 0.78548 0.14241 0.43272 0.0
N675 N 0.76362 0.17557 0.3025 0.0
H676 H 0.89118 0.29193 0.35063 0.0
H677 H 0.86162 0.26427 0.31274 0.0
H678 H 0.7318 0.14415 0.288 0.0
H679 H 0.78044 0.21613 0.29311 0.0
H680 H 0.75728 0.10563 0.44478 0.0
H681 H 0.81098 0.1762 0.44828 0.0
H682 H 0.73218 0.03665 0.41399 0.0
H683 H 0.69934 0.01127 0.37651 0.0
C684 C 0.81611 0.58741 0.35212 0.0
C685 C 0.82123 0.60917 0.32039 0.0
C686 C 0.72903 0.6001 0.32446 0.0
C687 C 0.72566 0.58258 0.35715 0.0
N688 N 0.76832 0.56649 0.40378 0.0
N689 N 0.7873 0.6443 0.27786 0.0
C690 C 0.76984 0.57804 0.37148 0.0
C691 C 0.77899 0.61774 0.30699 0.0
N692 N 0.85419 0.57358 0.36319 0.0
N693 N 0.68355 0.59752 0.30953 0.0
H694 H 0.82265 0.65632 0.26376 0.0
H695 H 0.76146 0.65848 0.26883 0.0
H696 H 0.64637 0.58604 0.32145 0.0
H697 H 0.68089 0.60243 0.28468 0.0
H698 H 0.84943 0.55171 0.38458 0.0
H699 H 0.88861 0.58001 0.34967 0.0
H700 H 0.80195 0.56861 0.41651 0.0
H701 H 0.73477 0.55896 0.41857 0.0
C702 C 0.31582 0.16788 0.33523 0.0
C703 C 0.35478 0.22577 0.32971 0.0
C704 C 0.4288 0.21399 0.35456 0.0
C705 C 0.39208 0.15433 0.35404 0.0
N706 N 0.30314 0.07471 0.33535 0.0
N707 N 0.4516 0.30268 0.32971 0.0
C708 C 0.33603 0.13115 0.34231 0.0
C709 C 0.41224 0.24887 0.33839 0.0
N710 N 0.25939 0.14786 0.33394 0.0
N711 N 0.47876 0.23756 0.37109 0.0
H712 H 0.44202 0.32918 0.31677 0.0
H713 H 0.49462 0.31903 0.33265 0.0
H714 H 0.49129 0.21356 0.38432 0.0
H715 H 0.50463 0.28112 0.37457 0.0
H716 H 0.22951 0.10669 0.3405 0.0
H717 H 0.24292 0.17411 0.33006 0.0
H718 H 0.26386 0.0573 0.32408 0.0
H719 H 0.31769 0.04662 0.3367 0.0
C720 C 0.51343 0.4702 0.29458 0.0
C721 C 0.49905 0.51115 0.30388 0.0
C722 C 0.42169 0.47101 0.26417 0.0
C723 C 0.43188 0.42611 0.25849 0.0
N724 N 0.50481 0.4035 0.25311 0.0
N725 N 0.44051 0.55225 0.29748 0.0
C726 C 0.48317 0.4318 0.26899 0.0
C727 C 0.45421 0.51296 0.28807 0.0
N728 N 0.55466 0.46653 0.31074 0.0
N729 N 0.38238 0.47418 0.24558 0.0
H730 H 0.46298 0.58316 0.31518 0.0
H731 H 0.40492 0.5524 0.28937 0.0
H732 H 0.36143 0.44572 0.22649 0.0
H733 H 0.37474 0.50754 0.24655 0.0
H734 H 0.56196 0.43318 0.30734 0.0
H735 H 0.57847 0.49395 0.3295 0.0
H736 H 0.54422 0.40914 0.25837 0.0
H737 H 0.48742 0.38151 0.23142 0.0
C738 C 0.48029 0.91636 0.27609 0.0
C739 C 0.53169 0.95949 0.26343 0.0
C740 C 0.50926 0.03158 0.27888 0.0
C741 C 0.46381 0.99032 0.29733 0.0
N742 N 0.39917 0.89205 0.30943 0.0
N743 N 0.57453 0.04834 0.23555 0.0
C744 C 0.44673 0.93198 0.29434 0.0
C745 C 0.53966 0.01421 0.25922 0.0
N746 N 0.46244 0.8611 0.26875 0.0
N747 N 0.52611 0.08767 0.28185 0.0
H748 H 0.59297 0.03391 0.219 0.0
H749 H 0.57893 0.08724 0.22967 0.0
H750 H 0.50559 0.10264 0.2963 0.0
H751 H 0.56312 0.11982 0.27187 0.0
H752 H 0.4241 0.82697 0.27578 0.0
H753 H 0.48365 0.85004 0.25214 0.0
H754 H 0.38767 0.84976 0.31157 0.0
H755 H 0.37126 0.90166 0.32051 0.0
C756 C 0.02917 0.5385 0.33053 0.0
C757 C 0.98137 0.5376 0.31771 0.0
C758 C 0.92025 0.44511 0.34191 0.0
C759 C 0.96716 0.45159 0.35976 0.0
N760 N 0.06664 0.50525 0.37236 0.0
N761 N 0.8815 0.48941 0.30846 0.0
C762 C 0.02205 0.49789 0.35397 0.0
C763 C 0.92693 0.49009 0.32206 0.0
N764 N 0.08123 0.57855 0.32017 0.0
N765 N 0.86967 0.39576 0.3437 0.0
H766 H 0.88565 0.51936 0.29166 0.0
H767 H 0.84006 0.46042 0.31439 0.0
H768 H 0.86324 0.3623 0.35841 0.0
H769 H 0.83531 0.38602 0.32884 0.0
H770 H 0.118 0.57917 0.32652 0.0
H771 H 0.08657 0.60764 0.30231 0.0
H772 H 0.10632 0.54151 0.37163 0.0
H773 H 0.06332 0.47717 0.3903 0.0
C774 C 0.52322 0.46601 0.70337 0.0
C775 C 0.46507 0.44763 0.70296 0.0
C776 C 0.48256 0.5271 0.73856 0.0
C777 C 0.54046 0.5453 0.73852 0.0
N778 N 0.61371 0.52427 0.72974 0.0
N779 N 0.38732 0.453 0.72536 0.0
C780 C 0.56001 0.51206 0.72374 0.0
C781 C 0.44397 0.47541 0.72252 0.0
N782 N 0.54364 0.44057 0.68366 0.0
N783 N 0.46501 0.56071 0.75246 0.0
H784 H 0.35768 0.41656 0.71302 0.0
H785 H 0.36939 0.46808 0.74174 0.0
H786 H 0.49216 0.59778 0.76528 0.0
H787 H 0.42447 0.55363 0.74996 0.0
H788 H 0.58631 0.45671 0.67992 0.0
H789 H 0.51802 0.40515 0.66934 0.0
H790 H 0.62931 0.49873 0.72211 0.0
H791 H 0.64096 0.55716 0.74531 0.0
C792 C 0.47751 0.9438 0.6626 0.0
C793 C 0.52612 0.99348 0.67431 0.0
C794 C 0.46886 0.00938 0.71309 0.0
C795 C 0.42002 0.9668 0.69691 0.0
N796 N 0.3759 0.89 0.65821 0.0
N797 N 0.56897 0.0754 0.70988 0.0
C798 C 0.42382 0.93262 0.67239 0.0
C799 C 0.5223 0.02626 0.69981 0.0
N800 N 0.48292 0.90666 0.64284 0.0
N801 N 0.46411 0.03382 0.74092 0.0
H802 H 0.60893 0.08942 0.70074 0.0
H803 H 0.56756 0.10454 0.72555 0.0
H804 H 0.42549 0.02232 0.7512 0.0
H805 H 0.49831 0.06142 0.75544 0.0
H806 H 0.44952 0.86712 0.63595 0.0
H807 H 0.52173 0.91308 0.63556 0.0
H808 H 0.37544 0.86852 0.63721 0.0
H809 H 0.33599 0.87726 0.6671 0.0
C810 C 0.05892 0.47374 0.69089 0.0
C811 C 0.06539 0.47797 0.72508 0.0
C812 C 0.05573 0.56172 0.72539 0.0
C813 C 0.05378 0.55961 0.691 0.0
N814 N 0.06998 0.52382 0.6411 0.0
N815 N 0.07831 0.5297 0.77491 0.0
C816 C 0.06059 0.51879 0.67377 0.0
C817 C 0.06667 0.52336 0.7424 0.0
N818 N 0.04861 0.42564 0.67481 0.0
N819 N 0.04438 0.59817 0.74169 0.0
H820 H 0.08519 0.5014 0.78806 0.0
H821 H 0.08511 0.56499 0.78829 0.0
H822 H 0.03655 0.62701 0.72992 0.0
H823 H 0.03875 0.59703 0.76667 0.0
H824 H 0.03775 0.41829 0.65028 0.0
H825 H 0.04508 0.39057 0.6866 0.0
H826 H 0.08032 0.49789 0.62797 0.0
H827 H 0.07343 0.55761 0.62776 0.0
C828 C 0.19272 0.84515 0.61958 0.0
C829 C 0.17418 0.87614 0.63796 0.0
C830 C 0.08082 0.8218 0.61297 0.0
C831 C 0.0962 0.78361 0.60027 0.0
N832 N 0.16663 0.75964 0.58854 0.0
N833 N 0.10207 0.89696 0.65191 0.0
C834 C 0.15252 0.79613 0.60222 0.0
C835 C 0.11893 0.86621 0.63404 0.0
N836 N 0.2487 0.86309 0.61866 0.0
N837 N 0.0295 0.81475 0.60539 0.0
H838 H 0.1293 0.93067 0.66702 0.0
H839 H 0.0606 0.88741 0.65319 0.0
H840 H 0.00109 0.78274 0.58982 0.0
H841 H 0.01715 0.84349 0.61185 0.0
H842 H 0.26577 0.84495 0.60387 0.0
H843 H 0.27886 0.8998 0.63068 0.0
H844 H 0.20505 0.76215 0.59233 0.0
H845 H 0.13855 0.72532 0.57402 0.0
C846 C 0.17438 0.36234 0.67285 0.0
C847 C 0.12477 0.30887 0.67633 0.0
C848 C 0.16975 0.26315 0.649 0.0
C849 C 0.2216 0.31514 0.65046 0.0
N850 N 0.27522 0.41359 0.66714 0.0
N851 N 0.07592 0.20703 0.67038 0.0
C852 C 0.22447 0.36484 0.66291 0.0
C853 C 0.12227 0.25884 0.66475 0.0
N854 N 0.1733 0.41086 0.67841 0.0
N855 N 0.16587 0.2182 0.63215 0.0
H856 H 0.0402 0.20188 0.68191 0.0
H857 H 0.07443 0.16892 0.66589 0.0
H858 H 0.19987 0.22035 0.62 0.0
H859 H 0.12801 0.18085 0.62756 0.0
H860 H 0.20659 0.45111 0.6731 0.0
H861 H 0.13695 0.41041 0.68513 0.0
H862 H 0.28016 0.4487 0.67996 0.0
H863 H 0.3133 0.41775 0.66029 0.0
C864 C 0.70791 0.82649 0.6252 0.0
C865 C 0.66788 0.79646 0.64957 0.0
C866 C 0.63366 0.86242 0.64684 0.0
C867 C 0.67385 0.89318 0.62249 0.0
N868 N 0.73913 0.89688 0.58279 0.0
N869 N 0.58151 0.7741 0.6756 0.0
C870 C 0.70783 0.87271 0.60982 0.0
C871 C 0.62696 0.81057 0.65763 0.0
N872 N 0.74739 0.8125 0.6178 0.0
N873 N 0.60483 0.88449 0.66154 0.0
H874 H 0.57518 0.73525 0.68353 0.0
H875 H 0.54738 0.7795 0.67961 0.0
H876 H 0.60938 0.92314 0.65532 0.0
H877 H 0.58022 0.86698 0.682 0.0
H878 H 0.78199 0.8371 0.60329 0.0
H879 H 0.74694 0.77733 0.6275 0.0
H880 H 0.76081 0.8807 0.57056 0.0
H881 H 0.73922 0.93029 0.5708 0.0
loop_
_geom_bond_atom_site_label_1
_geom_bond_atom_site_label_2
_geom_bond_distance
_geom_bond_site_symmetry_2
_ccdc_geom_bond_type
C0 O1 1.160 . S
C0 O7 1.185 . S
O1 C0 1.160 . S
O2 Zn3 1.899 . S
O2 C10 1.284 . S
Zn3 O2 1.899 . S
Zn3 O4 2.032 1_545 S
Zn3 O7 2.086 . S
Zn3 O12 1.977 . S
O4 Zn3 2.032 1_565 S
O4 C8 1.278 . S
C5 O6 1.203 . S
C5 O12 1.267 . S
O6 C5 1.203 . S
O7 C0 1.185 . S
O7 Zn3 2.086 . S
C8 O4 1.278 . S
C8 O9 1.211 . S
O9 C8 1.211 . S
C10 O2 1.284 . S
C10 O11 1.273 . S
O11 C10 1.273 . S
O12 Zn3 1.977 . S
O12 C5 1.267 . S
C13 O14 1.160 . S
C13 O20 1.185 . S
O14 C13 1.160 . S
O15 Zn16 1.899 1_455 S
O15 C23 1.284 . S
Zn16 O15 1.899 1_655 S
Zn16 O17 2.032 . S
Zn16 O20 2.086 . S
Zn16 O25 1.977 . S
O17 Zn16 2.032 . S
O17 C21 1.278 . S
C18 O19 1.203 1_655 S
C18 O25 1.267 . S
O19 C18 1.203 1_455 S
O20 C13 1.185 . S
O20 Zn16 2.086 . S
C21 O17 1.278 . S
C21 O22 1.211 1_554 S
O22 C21 1.211 1_556 S
C23 O15 1.284 . S
C23 O24 1.273 . S
O24 C23 1.273 . S
O25 Zn16 1.977 . S
O25 C18 1.267 . S
C26 O27 1.160 . S
C26 O33 1.185 . S
O27 C26 1.160 . S
O28 Zn29 1.899 . S
O28 C36 1.284 . S
Zn29 O28 1.899 . S
Zn29 O30 2.032 . S
Zn29 O33 2.086 . S
Zn29 O38 1.977 . S
O30 Zn29 2.032 . S
O30 C34 1.278 . S
C31 O32 1.203 . S
C31 O38 1.267 . S
O32 C31 1.203 . S
O33 C26 1.185 . S
O33 Zn29 2.086 . S
C34 O30 1.278 . S
C34 O35 1.211 1_554 S
O35 C34 1.211 1_556 S
C36 O28 1.284 . S
C36 O37 1.273 . S
O37 C36 1.273 . S
O38 Zn29 1.977 . S
O38 C31 1.267 . S
C39 O40 1.160 . S
C39 O46 1.185 . S
O40 C39 1.160 . S
O41 Zn42 1.899 . S
O41 C49 1.284 . S
Zn42 O41 1.899 . S
Zn42 O43 2.032 . S
Zn42 O46 2.086 . S
Zn42 O51 1.977 1_565 S
O43 Zn42 2.032 . S
O43 C47 1.278 . S
C44 O45 1.203 . S
C44 O51 1.267 . S
O45 C44 1.203 . S
O46 C39 1.185 . S
O46 Zn42 2.086 . S
C47 O43 1.278 . S
C47 O48 1.211 1_556 S
O48 C47 1.211 1_554 S
C49 O41 1.284 . S
C49 O50 1.273 . S
O50 C49 1.273 . S
O51 Zn42 1.977 1_545 S
O51 C44 1.267 . S
C52 O53 1.160 . S
C52 O59 1.185 . S
O53 C52 1.160 . S
O54 Zn55 1.899 . S
O54 C62 1.284 . S
Zn55 O54 1.899 . S
Zn55 O56 2.032 . S
Zn55 O59 2.086 . S
Zn55 O64 1.977 1_455 S
O56 Zn55 2.032 . S
O56 C60 1.278 . S
C57 O58 1.203 . S
C57 O64 1.267 . S
O58 C57 1.203 . S
O59 C52 1.185 . S
O59 Zn55 2.086 . S
C60 O56 1.278 . S
C60 O61 1.211 1_556 S
O61 C60 1.211 1_554 S
C62 O54 1.284 . S
C62 O63 1.273 . S
O63 C62 1.273 . S
O64 Zn55 1.977 1_655 S
O64 C57 1.267 . S
C65 O66 1.160 . S
C65 O72 1.185 . S
O66 C65 1.160 . S
O67 Zn68 1.899 . S
O67 C75 1.284 . S
Zn68 O67 1.899 . S
Zn68 O69 2.032 . S
Zn68 O72 2.086 . S
Zn68 O77 1.977 . S
O69 Zn68 2.032 . S
O69 C73 1.278 . S
C70 O71 1.203 . S
C70 O77 1.267 . S
O71 C70 1.203 . S
O72 C65 1.185 . S
O72 Zn68 2.086 . S
C73 O69 1.278 . S
C73 O74 1.211 1_556 S
O74 C73 1.211 1_554 S
C75 O67 1.284 . S
C75 O76 1.273 . S
O76 C75 1.273 . S
O77 Zn68 1.977 . S
O77 C70 1.267 . S
C78 O79 1.160 . S
C78 O85 1.185 . S
O79 C78 1.160 . S
O80 Zn81 1.899 . S
O80 C88 1.284 1_455 S
Zn81 O80 1.899 . S
Zn81 O82 2.032 1_455 S
Zn81 O85 2.086 . S
Zn81 O90 1.977 . S
O82 Zn81 2.032 1_655 S
O82 C86 1.278 . S
C83 O84 1.203 . S
C83 O90 1.267 1_655 S
O84 C83 1.203 . S
O85 C78 1.185 . S
O85 Zn81 2.086 . S
C86 O82 1.278 . S
C86 O87 1.211 . S
O87 C86 1.211 . S
C88 O80 1.284 1_655 S
C88 O89 1.273 . S
O89 C88 1.273 . S
O90 Zn81 1.977 . S
O90 C83 1.267 1_455 S
C91 O92 1.160 . S
C91 O98 1.185 . S
O92 C91 1.160 . S
O93 Zn94 1.899 . S
O93 C101 1.284 . S
Zn94 O93 1.899 . S
Zn94 O95 2.032 . S
Zn94 O98 2.086 . S
Zn94 O103 1.977 . S
O95 Zn94 2.032 . S
O95 C99 1.278 . S
C96 O97 1.203 . S
C96 O103 1.267 . S
O97 C96 1.203 . S
O98 C91 1.185 . S
O98 Zn94 2.086 . S
C99 O95 1.278 . S
C99 O100 1.211 . S
O100 C99 1.211 . S
C101 O93 1.284 . S
C101 O102 1.273 . S
O102 C101 1.273 . S
O103 Zn94 1.977 . S
O103 C96 1.267 . S
C104 O105 1.160 . S
C104 O111 1.185 1_545 S
O105 C104 1.160 . S
O106 Zn107 1.899 1_545 S
O106 C114 1.284 . S
Zn107 O106 1.899 1_565 S
Zn107 O108 2.032 1_565 S
Zn107 O111 2.086 . S
Zn107 O116 1.977 . S
O108 Zn107 2.032 1_545 S
O108 C112 1.278 1_545 S
C109 O110 1.203 . S
C109 O116 1.267 . S
O110 C109 1.203 . S
O111 C104 1.185 1_565 S
O111 Zn107 2.086 . S
C112 O108 1.278 1_565 S
C112 O113 1.211 . S
O113 C112 1.211 . S
C114 O106 1.284 . S
C114 O115 1.273 . S
O115 C114 1.273 . S
O116 Zn107 1.977 . S
O116 C109 1.267 . S
C117 O118 1.160 . S
C117 O124 1.185 . S
O118 C117 1.160 . S
O119 Zn120 1.899 . S
O119 C127 1.284 . S
Zn120 O119 1.899 . S
Zn120 O121 2.032 . S
Zn120 O124 2.086 . S
Zn120 O129 1.977 . S
O121 Zn120 2.032 . S
O121 C125 1.278 . S
C122 O123 1.203 . S
C122 O129 1.267 . S
O123 C122 1.203 . S
O124 C117 1.185 . S
O124 Zn120 2.086 . S
C125 O121 1.278 . S
C125 O126 1.211 . S
O126 C125 1.211 . S
C127 O119 1.284 . S
C127 O128 1.273 . S
O128 C127 1.273 . S
O129 Zn120 1.977 . S
O129 C122 1.267 . S
C130 O131 1.160 . S
C130 O137 1.185 . S
O131 C130 1.160 . S
O132 Zn133 1.899 1_565 S
O132 C140 1.284 . S
Zn133 O132 1.899 1_545 S
Zn133 O134 2.032 . S
Zn133 O137 2.086 . S
Zn133 O142 1.977 . S
O134 Zn133 2.032 . S
O134 C138 1.278 . S
C135 O136 1.203 1_545 S
C135 O142 1.267 . S
O136 C135 1.203 1_565 S
O137 C130 1.185 . S
O137 Zn133 2.086 . S
C138 O134 1.278 . S
C138 O139 1.211 . S
O139 C138 1.211 . S
C140 O132 1.284 . S
C140 O141 1.273 . S
O141 C140 1.273 . S
O142 Zn133 1.977 . S
O142 C135 1.267 . S
C143 O144 1.160 . S
C143 O150 1.185 . S
O144 C143 1.160 . S
O145 Zn146 1.899 1_455 S
O145 C153 1.284 . S
Zn146 O145 1.899 1_655 S
Zn146 O147 2.032 . S
Zn146 O150 2.086 . S
Zn146 O155 1.977 . S
O147 Zn146 2.032 . S
O147 C151 1.278 . S
C148 O149 1.203 1_655 S
C148 O155 1.267 . S
O149 C148 1.203 1_455 S
O150 C143 1.185 . S
O150 Zn146 2.086 . S
C151 O147 1.278 . S
C151 O152 1.211 . S
O152 C151 1.211 . S
C153 O145 1.284 . S
C153 O154 1.273 . S
O154 C153 1.273 . S
O155 Zn146 1.977 . S
O155 C148 1.267 . S
C156 O157 1.160 . S
C156 O163 1.185 . S
O157 C156 1.160 . S
O158 Zn159 1.899 . S
O158 C166 1.284 . S
Zn159 O158 1.899 . S
Zn159 O160 2.032 . S
Zn159 O163 2.086 . S
Zn159 O168 1.977 . S
O160 Zn159 2.032 . S
O160 C164 1.278 . S
C161 O162 1.203 . S
C161 O168 1.267 . S
O162 C161 1.203 . S
O163 C156 1.185 . S
O163 Zn159 2.086 . S
C164 O160 1.278 . S
C164 O165 1.211 . S
O165 C164 1.211 . S
C166 O158 1.284 . S
C166 O167 1.273 . S
O167 C166 1.273 . S
O168 Zn159 1.977 . S
O168 C161 1.267 . S
C169 O170 1.160 . S
C169 O176 1.185 . S
O170 C169 1.160 . S
O171 Zn172 1.899 . S
O171 C179 1.284 . S
Zn172 O171 1.899 . S
Zn172 O173 2.032 . S
Zn172 O176 2.086 . S
Zn172 O181 1.977 1_565 S
O173 Zn172 2.032 . S
O173 C177 1.278 . S
C174 O175 1.203 . S
C174 O181 1.267 . S
O175 C174 1.203 . S
O176 C169 1.185 . S
O176 Zn172 2.086 . S
C177 O173 1.278 . S
C177 O178 1.211 . S
O178 C177 1.211 . S
C179 O171 1.284 . S
C179 O180 1.273 . S
O180 C179 1.273 . S
O181 Zn172 1.977 1_545 S
O181 C174 1.267 . S
C182 O183 1.160 . S
C182 O189 1.185 . S
O183 C182 1.160 . S
O184 Zn185 1.899 . S
O184 C192 1.284 . S
Zn185 O184 1.899 . S
Zn185 O186 2.032 . S
Zn185 O189 2.086 . S
Zn185 O194 1.977 1_455 S
O186 Zn185 2.032 . S
O186 C190 1.278 . S
C187 O188 1.203 . S
C187 O194 1.267 . S
O188 C187 1.203 . S
O189 C182 1.185 . S
O189 Zn185 2.086 . S
C190 O186 1.278 . S
C190 O191 1.211 . S
O191 C190 1.211 . S
C192 O184 1.284 . S
C192 O193 1.273 . S
O193 C192 1.273 . S
O194 Zn185 1.977 1_655 S
O194 C187 1.267 . S
C195 O196 1.160 . S
C195 O202 1.185 1_655 S
O196 C195 1.160 . S
O197 Zn198 1.899 1_655 S
O197 C205 1.284 . S
Zn198 O197 1.899 1_455 S
Zn198 O199 2.032 1_455 S
Zn198 O202 2.086 . S
Zn198 O207 1.977 . S
O199 Zn198 2.032 1_655 S
O199 C203 1.278 1_655 S
C200 O201 1.203 . S
C200 O207 1.267 . S
O201 C200 1.203 . S
O202 C195 1.185 1_455 S
O202 Zn198 2.086 . S
C203 O199 1.278 1_455 S
C203 O204 1.211 . S
O204 C203 1.211 . S
C205 O197 1.284 . S
C205 O206 1.273 . S
O206 C205 1.273 . S
O207 Zn198 1.977 . S
O207 C200 1.267 . S
C208 O209 1.160 . S
C208 O215 1.185 . S
O209 C208 1.160 . S
O210 Zn211 1.899 . S
O210 C218 1.284 . S
Zn211 O210 1.899 . S
Zn211 O212 2.032 . S
Zn211 O215 2.086 . S
Zn211 O220 1.977 . S
O212 Zn211 2.032 . S
O212 C216 1.278 . S
C213 O214 1.203 . S
C213 O220 1.267 . S
O214 C213 1.203 . S
O215 C208 1.185 . S
O215 Zn211 2.086 . S
C216 O212 1.278 . S
C216 O217 1.211 . S
O217 C216 1.211 . S
C218 O210 1.284 . S
C218 O219 1.273 . S
O219 C218 1.273 . S
O220 Zn211 1.977 . S
O220 C213 1.267 . S
C221 O222 1.160 . S
C221 O228 1.185 1_545 S
O222 C221 1.160 . S
O223 Zn224 1.899 1_545 S
O223 C231 1.284 . S
Zn224 O223 1.899 1_565 S
Zn224 O225 2.032 1_565 S
Zn224 O228 2.086 . S
Zn224 O233 1.977 . S
O225 Zn224 2.032 1_545 S
O225 C229 1.278 1_545 S
C226 O227 1.203 . S
C226 O233 1.267 . S
O227 C226 1.203 . S
O228 C221 1.185 1_565 S
O228 Zn224 2.086 . S
C229 O225 1.278 1_565 S
C229 O230 1.211 . S
O230 C229 1.211 . S
C231 O223 1.284 . S
C231 O232 1.273 . S
O232 C231 1.273 . S
O233 Zn224 1.977 . S
O233 C226 1.267 . S
C234 C235 1.361 1_566 S
C234 C240 1.379 . S
C234 N242 1.356 1_565 S
C235 C234 1.361 1_544 S
C235 C241 1.350 1_545 S
C236 C237 1.363 1_554 S
C236 C241 1.379 . S
C236 N243 1.356 . S
C237 C236 1.363 1_556 S
C237 C240 1.363 . S
N238 C240 1.356 . S
N238 H250 0.984 . S
N238 H251 0.985 . S
N239 C241 1.356 1_545 S
N239 H244 0.984 . S
N239 H245 0.985 . S
C240 C234 1.379 . S
C240 C237 1.363 . S
C240 N238 1.356 . S
C241 C235 1.350 1_565 S
C241 C236 1.379 . S
C241 N239 1.356 1_565 S
N242 C234 1.356 1_545 S
N242 H248 0.984 1_545 S
N242 H249 0.984 . S
N243 C236 1.356 . S
N243 H246 0.984 1_554 S
N243 H247 0.985 . S
H244 N239 0.984 . S
H245 N239 0.985 . S
H246 N243 0.984 1_556 S
H247 N243 0.985 . S
H248 N242 0.984 1_565 S
H249 N242 0.984 . S
H250 N238 0.984 . S
H251 N238 0.985 . S
C252 C253 1.363 1_456 S
C252 C258 1.379 . S
C252 N260 1.356 . S
C253 C252 1.363 1_654 S
C253 C259 1.363 . S
C254 C255 1.363 1_654 S
C254 C259 1.379 . S
C254 N261 1.356 . S
C255 C254 1.363 1_456 S
C255 C258 1.363 . S
N256 C258 1.356 . S
N256 H268 0.984 . S
N256 H269 0.985 . S
N257 C259 1.356 . S
N257 H262 0.984 . S
N257 H263 0.985 . S
C258 C252 1.379 . S
C258 C255 1.363 . S
C258 N256 1.356 . S
C259 C253 1.363 . S
C259 C254 1.379 . S
C259 N257 1.356 . S
N260 C252 1.356 . S
N260 H266 0.984 . S
N260 H267 0.984 1_556 S
N261 C254 1.356 . S
N261 H264 0.984 1_554 S
N261 H265 0.985 . S
H262 N257 0.984 . S
H263 N257 0.985 . S
H264 N261 0.984 1_556 S
H265 N261 0.985 . S
H266 N260 0.984 . S
H267 N260 0.984 1_554 S
H268 N256 0.984 . S
H269 N256 0.985 . S
C270 C271 1.363 1_554 S
C270 C276 1.379 . S
C270 N278 1.356 . S
C271 C270 1.363 1_556 S
C271 C277 1.363 . S
C272 C273 1.363 1_556 S
C272 C277 1.379 . S
C272 N279 1.356 . S
C273 C272 1.363 1_554 S
C273 C276 1.363 . S
N274 C276 1.356 . S
N274 H286 0.984 . S
N274 H287 0.985 . S
N275 C277 1.356 . S
N275 H280 0.984 . S
N275 H281 0.985 . S
C276 C270 1.379 . S
C276 C273 1.363 . S
C276 N274 1.356 . S
C277 C271 1.363 . S
C277 C272 1.379 . S
C277 N275 1.356 . S
N278 C270 1.356 . S
N278 H284 0.984 . S
N278 H285 0.993 . S
N279 C272 1.356 . S
N279 H282 0.984 . S
N279 H283 0.985 . S
H280 N275 0.984 . S
H281 N275 0.985 . S
H282 N279 0.984 . S
H283 N279 0.985 . S
H284 N278 0.984 . S
H285 N278 0.993 . S
H286 N274 0.984 . S
H287 N274 0.985 . S
C288 C289 1.363 . S
C288 C294 1.379 . S
C288 N296 1.356 . S
C289 C288 1.363 . S
C289 C295 1.363 . S
C290 C291 1.363 . S
C290 C295 1.379 . S
C290 N297 1.356 . S
C291 C290 1.363 . S
C291 C294 1.363 . S
N292 C294 1.356 . S
N292 H304 0.984 . S
N292 H305 0.985 . S
N293 C295 1.356 . S
N293 H298 0.984 . S
N293 H299 0.985 . S
C294 C288 1.379 . S
C294 C291 1.363 . S
C294 N292 1.356 . S
C295 C289 1.363 . S
C295 C290 1.379 . S
C295 N293 1.356 . S
N296 C288 1.356 . S
N296 H302 0.984 . S
N296 H303 0.984 . S
N297 C290 1.356 . S
N297 H300 0.984 . S
N297 H301 0.985 . S
H298 N293 0.984 . S
H299 N293 0.985 . S
H300 N297 0.984 . S
H301 N297 0.985 . S
H302 N296 0.984 . S
H303 N296 0.984 . S
H304 N292 0.984 . S
H305 N292 0.985 . S
C306 C307 1.363 . S
C306 C312 1.379 . S
C306 N314 1.356 . S
C307 C306 1.363 . S
C307 C313 1.363 . S
C308 C309 1.363 . S
C308 C313 1.379 . S
C308 N315 1.356 . S
C309 C308 1.363 . S
C309 C312 1.363 . S
N310 C312 1.356 . S
N310 H322 0.984 . S
N310 H323 0.985 . S
N311 C313 1.356 . S
N311 H316 0.984 . S
N311 H317 0.985 . S
C312 C306 1.379 . S
C312 C309 1.363 . S
C312 N310 1.356 . S
C313 C307 1.363 . S
C313 C308 1.379 . S
C313 N311 1.356 . S
N314 C306 1.356 . S
N314 H320 0.984 . S
N314 H321 0.984 . S
N315 C308 1.356 . S
N315 H318 0.984 . S
N315 H319 0.985 . S
H316 N311 0.984 . S
H317 N311 0.985 . S
H318 N315 0.984 . S
H319 N315 0.985 . S
H320 N314 0.984 . S
H321 N314 0.984 . S
H322 N310 0.984 . S
H323 N310 0.985 . S
C324 C325 1.363 . S
C324 C330 1.379 . S
C324 N332 1.356 . S
C325 C324 1.363 . S
C325 C331 1.363 . S
C326 C327 1.363 . S
C326 C331 1.379 . S
C326 N333 1.356 . S
C327 C326 1.363 . S
C327 C330 1.363 . S
N328 C330 1.356 . S
N328 H340 0.984 . S
N328 H341 0.985 . S
N329 C331 1.356 . S
N329 H334 0.984 . S
N329 H335 0.985 . S
C330 C324 1.379 . S
C330 C327 1.363 . S
C330 N328 1.356 . S
C331 C325 1.363 . S
C331 C326 1.379 . S
C331 N329 1.356 . S
N332 C324 1.356 . S
N332 H338 0.984 . S
N332 H339 0.984 . S
N333 C326 1.356 . S
N333 H336 0.984 . S
N333 H337 0.985 . S
H334 N329 0.984 . S
H335 N329 0.985 . S
H336 N333 0.984 . S
H337 N333 0.985 . S
H338 N332 0.984 . S
H339 N332 0.984 . S
H340 N328 0.984 . S
H341 N328 0.985 . S
C342 C343 1.363 . S
C342 C348 1.379 . S
C342 N350 1.356 . S
C343 C342 1.363 . S
C343 C349 1.363 . S
C344 C345 1.363 . S
C344 C349 1.379 . S
C344 N351 1.356 . S
C345 C344 1.363 . S
C345 C348 1.363 . S
N346 C348 1.356 . S
N346 H358 0.984 . S
N346 H359 0.985 . S
N347 C349 1.356 . S
N347 H352 0.984 . S
N347 H353 0.985 . S
C348 C342 1.379 . S
C348 C345 1.363 . S
C348 N346 1.356 . S
C349 C343 1.363 . S
C349 C344 1.379 . S
C349 N347 1.356 . S
N350 C342 1.356 . S
N350 H356 0.984 . S
N350 H357 0.984 . S
N351 C344 1.356 . S
N351 H354 0.984 . S
N351 H355 0.985 . S
H352 N347 0.984 . S
H353 N347 0.985 . S
H354 N351 0.984 . S
H355 N351 0.985 . S
H356 N350 0.984 . S
H357 N350 0.984 . S
H358 N346 0.984 . S
H359 N346 0.985 . S
C360 C361 1.363 . S
C360 C366 1.379 . S
C360 N368 1.356 . S
C361 C360 1.363 . S
C361 C367 1.363 . S
C362 C363 1.363 . S
C362 C367 1.379 . S
C362 N369 1.356 . S
C363 C362 1.363 . S
C363 C366 1.363 . S
N364 C366 1.356 . S
N364 H376 0.984 . S
N364 H377 0.985 . S
N365 C367 1.356 . S
N365 H370 0.984 . S
N365 H371 0.985 . S
C366 C360 1.379 . S
C366 C363 1.363 . S
C366 N364 1.356 . S
C367 C361 1.363 . S
C367 C362 1.379 . S
C367 N365 1.356 . S
N368 C360 1.356 . S
N368 H374 0.984 . S
N368 H375 0.984 . S
N369 C362 1.356 . S
N369 H372 0.984 . S
N369 H373 0.985 . S
H370 N365 0.984 . S
H371 N365 0.985 . S
H372 N369 0.984 . S
H373 N369 0.985 . S
H374 N368 0.984 . S
H375 N368 0.984 . S
H376 N364 0.984 . S
H377 N364 0.985 . S
C378 C379 1.363 . S
C378 C384 1.379 . S
C378 N386 1.356 . S
C379 C378 1.363 . S
C379 C385 1.363 . S
C380 C381 1.363 . S
C380 C385 1.379 . S
C380 N387 1.356 . S
C381 C380 1.363 . S
C381 C384 1.363 . S
N382 C384 1.356 . S
N382 H394 0.984 . S
N382 H395 0.985 . S
N383 C385 1.356 . S
N383 H388 0.984 . S
N383 H389 0.985 . S
C384 C378 1.379 . S
C384 C381 1.363 . S
C384 N382 1.356 . S
C385 C379 1.363 . S
C385 C380 1.379 . S
C385 N383 1.356 . S
N386 C378 1.356 . S
N386 H392 0.984 . S
N386 H393 0.984 . S
N387 C380 1.356 . S
N387 H390 0.984 . S
N387 H391 0.985 . S
H388 N383 0.984 . S
H389 N383 0.985 . S
H390 N387 0.984 . S
H391 N387 0.985 . S
H392 N386 0.984 . S
H393 N386 0.984 . S
H394 N382 0.984 . S
H395 N382 0.985 . S
C396 C397 1.363 . S
C396 C402 1.379 . S
C396 N404 1.356 . S
C397 C396 1.363 . S
C397 C403 1.363 . S
C398 C399 1.363 . S
C398 C403 1.379 . S
C398 N405 1.356 . S
C399 C398 1.363 . S
C399 C402 1.363 . S
N400 C402 1.356 . S
N400 H412 0.984 . S
N400 H413 0.985 . S
N401 C403 1.356 . S
N401 H406 0.984 . S
N401 H407 0.985 . S
C402 C396 1.379 . S
C402 C399 1.363 . S
C402 N400 1.356 . S
C403 C397 1.363 . S
C403 C398 1.379 . S
C403 N401 1.356 . S
N404 C396 1.356 . S
N404 H410 0.984 . S
N404 H411 0.984 . S
N405 C398 1.356 . S
N405 H408 0.984 . S
N405 H409 0.985 . S
H406 N401 0.984 . S
H407 N401 0.985 . S
H408 N405 0.984 . S
H409 N405 0.985 . S
H410 N404 0.984 . S
H411 N404 0.984 . S
H412 N400 0.984 . S
H413 N400 0.985 . S
C414 C415 1.363 . S
C414 C420 1.379 . S
C414 N422 1.356 . S
C415 C414 1.363 . S
C415 C421 1.363 . S
C416 C417 1.363 . S
C416 C421 1.379 . S
C416 N423 1.356 . S
C417 C416 1.363 . S
C417 C420 1.363 . S
N418 C420 1.356 . S
N418 H430 0.984 . S
N418 H431 0.985 . S
N419 C421 1.356 . S
N419 H424 0.984 . S
N419 H425 0.985 . S
C420 C414 1.379 . S
C420 C417 1.363 . S
C420 N418 1.356 . S
C421 C415 1.363 . S
C421 C416 1.379 . S
C421 N419 1.356 . S
N422 C414 1.356 . S
N422 H428 0.984 . S
N422 H429 0.984 . S
N423 C416 1.356 . S
N423 H426 0.984 . S
N423 H427 0.985 . S
H424 N419 0.984 . S
H425 N419 0.985 . S
H426 N423 0.984 . S
H427 N423 0.985 . S
H428 N422 0.984 . S
H429 N422 0.984 . S
H430 N418 0.984 . S
H431 N418 0.985 . S
C432 C433 1.363 . S
C432 C438 1.379 . S
C432 N440 1.356 . S
C433 C432 1.363 . S
C433 C439 1.363 . S
C434 C435 1.363 . S
C434 C439 1.379 . S
C434 N441 1.356 . S
C435 C434 1.363 . S
C435 C438 1.363 . S
N436 C438 1.356 . S
N436 H448 0.984 . S
N436 H449 0.985 . S
N437 C439 1.356 . S
N437 H442 0.984 . S
N437 H443 0.985 . S
C438 C432 1.379 . S
C438 C435 1.363 . S
C438 N436 1.356 . S
C439 C433 1.363 . S
C439 C434 1.379 . S
C439 N437 1.356 . S
N440 C432 1.356 . S
N440 H446 0.984 . S
N440 H447 0.984 . S
N441 C434 1.356 . S
N441 H444 0.984 . S
N441 H445 0.985 . S
H442 N437 0.984 . S
H443 N437 0.985 . S
H444 N441 0.984 . S
H445 N441 0.985 . S
H446 N440 0.984 . S
H447 N440 0.984 . S
H448 N436 0.984 . S
H449 N436 0.985 . S
C450 C451 1.363 . S
C450 C456 1.379 . S
C450 N458 1.356 . S
C451 C450 1.363 . S
C451 C457 1.363 . S
C452 C453 1.363 . S
C452 C457 1.379 . S
C452 N459 1.356 . S
C453 C452 1.363 . S
C453 C456 1.363 . S
N454 C456 1.356 . S
N454 H466 0.984 . S
N454 H467 0.985 . S
N455 C457 1.356 . S
N455 H460 0.984 . S
N455 H461 0.985 . S
C456 C450 1.379 . S
C456 C453 1.363 . S
C456 N454 1.356 . S
C457 C451 1.363 . S
C457 C452 1.379 . S
C457 N455 1.356 . S
N458 C450 1.356 . S
N458 H464 0.984 . S
N458 H465 0.984 . S
N459 C452 1.356 . S
N459 H462 0.984 . S
N459 H463 0.985 . S
H460 N455 0.984 . S
H461 N455 0.985 . S
H462 N459 0.984 . S
H463 N459 0.985 . S
H464 N458 0.984 . S
H465 N458 0.984 . S
H466 N454 0.984 . S
H467 N454 0.985 . S
C468 C469 1.363 . S
C468 C474 1.379 . S
C468 N476 1.356 . S
C469 C468 1.363 . S
C469 C475 1.363 . S
C470 C471 1.363 . S
C470 C475 1.379 . S
C470 N477 1.356 . S
C471 C470 1.363 . S
C471 C474 1.363 . S
N472 C474 1.356 . S
N472 H484 0.984 . S
N472 H485 0.985 . S
N473 C475 1.356 . S
N473 H478 0.984 . S
N473 H479 0.985 . S
C474 C468 1.379 . S
C474 C471 1.363 . S
C474 N472 1.356 . S
C475 C469 1.363 . S
C475 C470 1.379 . S
C475 N473 1.356 . S
N476 C468 1.356 . S
N476 H482 0.984 . S
N476 H483 0.984 . S
N477 C470 1.356 . S
N477 H480 0.984 . S
N477 H481 0.985 . S
H478 N473 0.984 . S
H479 N473 0.985 . S
H480 N477 0.984 . S
H481 N477 0.985 . S
H482 N476 0.984 . S
H483 N476 0.984 . S
H484 N472 0.984 . S
H485 N472 0.985 . S
C486 C487 1.363 . S
C486 C492 1.379 . S
C486 N494 1.356 . S
C487 C486 1.363 . S
C487 C493 1.363 . S
C488 C489 1.363 . S
C488 C493 1.379 . S
C488 N495 1.356 . S
C489 C488 1.363 . S
C489 C492 1.363 . S
N490 C492 1.356 . S
N490 H502 0.984 . S
N490 H503 0.985 . S
N491 C493 1.356 . S
N491 H496 0.984 . S
N491 H497 0.985 . S
C492 C486 1.379 . S
C492 C489 1.363 . S
C492 N490 1.356 . S
C493 C487 1.363 . S
C493 C488 1.379 . S
C493 N491 1.356 . S
N494 C486 1.356 . S
N494 H500 0.984 . S
N494 H501 0.984 . S
N495 C488 1.356 . S
N495 H498 0.984 . S
N495 H499 0.985 . S
H496 N491 0.984 . S
H497 N491 0.985 . S
H498 N495 0.984 . S
H499 N495 0.985 . S
H500 N494 0.984 . S
H501 N494 0.984 . S
H502 N490 0.984 . S
H503 N490 0.985 . S
C504 C505 1.363 . S
C504 C510 1.379 . S
C504 N512 1.356 . S
C505 C504 1.363 . S
C505 C511 1.363 1_655 S
C506 C507 1.363 1_455 S
C506 C511 1.379 . S
C506 N513 1.356 . S
C507 C506 1.363 1_655 S
C507 C510 1.363 . S
N508 C510 1.356 . S
N508 H520 0.984 . S
N508 H521 0.985 . S
N509 C511 1.356 . S
N509 H514 0.984 . S
N509 H515 0.985 . S
C510 C504 1.379 . S
C510 C507 1.363 . S
C510 N508 1.356 . S
C511 C505 1.363 1_455 S
C511 C506 1.379 . S
C511 N509 1.356 . S
N512 C504 1.356 . S
N512 H518 0.984 . S
N512 H519 0.984 . S
N513 C506 1.356 . S
N513 H516 0.984 . S
N513 H517 0.985 . S
H514 N509 0.984 . S
H515 N509 0.985 . S
H516 N513 0.984 . S
H517 N513 0.985 . S
H518 N512 0.984 . S
H519 N512 0.984 . S
H520 N508 0.984 . S
H521 N508 0.985 . S
C522 C523 1.363 . S
C522 C528 1.379 . S
C522 N530 1.356 . S
C523 C522 1.363 . S
C523 C529 1.363 . S
C524 C525 1.363 . S
C524 C529 1.379 . S
C524 N531 1.356 . S
C525 C524 1.363 . S
C525 C528 1.363 . S
N526 C528 1.356 . S
N526 H538 0.984 . S
N526 H539 0.985 . S
N527 C529 1.356 . S
N527 H532 0.984 . S
N527 H533 0.985 . S
C528 C522 1.379 . S
C528 C525 1.363 . S
C528 N526 1.356 . S
C529 C523 1.363 . S
C529 C524 1.379 . S
C529 N527 1.356 . S
N530 C522 1.356 . S
N530 H536 0.984 . S
N530 H537 0.984 . S
N531 C524 1.356 . S
N531 H534 0.984 . S
N531 H535 0.985 . S
H532 N527 0.984 . S
H533 N527 0.985 . S
H534 N531 0.984 . S
H535 N531 0.985 . S
H536 N530 0.984 . S
H537 N530 0.984 . S
H538 N526 0.984 . S
H539 N526 0.985 . S
C540 C541 1.363 . S
C540 C546 1.379 . S
C540 N548 1.356 . S
C541 C540 1.363 . S
C541 C547 1.363 1_545 S
C542 C543 1.363 1_565 S
C542 C547 1.379 . S
C542 N549 1.356 . S
C543 C542 1.363 1_545 S
C543 C546 1.363 . S
N544 C546 1.356 . S
N544 H556 0.984 . S
N544 H557 0.985 . S
N545 C547 1.356 . S
N545 H550 0.984 . S
N545 H551 0.985 . S
C546 C540 1.379 . S
C546 C543 1.363 . S
C546 N544 1.356 . S
C547 C541 1.363 1_565 S
C547 C542 1.379 . S
C547 N545 1.356 . S
N548 C540 1.356 . S
N548 H554 0.984 . S
N548 H555 0.984 . S
N549 C542 1.356 . S
N549 H552 0.984 . S
N549 H553 0.985 . S
H550 N545 0.984 . S
H551 N545 0.985 . S
H552 N549 0.984 . S
H553 N549 0.985 . S
H554 N548 0.984 . S
H555 N548 0.984 . S
H556 N544 0.984 . S
H557 N544 0.985 . S
C558 C559 1.363 . S
C558 C564 1.379 1_554 S
C558 N566 1.356 . S
C559 C558 1.363 . S
C559 C565 1.363 . S
C560 C561 1.363 1_554 S
C560 C565 1.379 . S
C560 N567 1.356 . S
C561 C560 1.363 1_556 S
C561 C564 1.363 . S
N562 C564 1.356 . S
N562 H574 0.984 . S
N562 H575 0.985 . S
N563 C565 1.356 . S
N563 H568 0.984 . S
N563 H569 0.985 . S
C564 C558 1.379 1_556 S
C564 C561 1.363 . S
C564 N562 1.356 . S
C565 C559 1.363 . S
C565 C560 1.379 . S
C565 N563 1.356 . S
N566 C558 1.356 . S
N566 H572 0.984 1_554 S
N566 H573 0.984 . S
N567 C560 1.356 . S
N567 H570 0.959 1_554 S
N567 H571 0.985 . S
H568 N563 0.984 . S
H569 N563 0.985 . S
H570 N567 0.959 1_556 S
H571 N567 0.985 . S
H572 N566 0.984 1_556 S
H573 N566 0.984 . S
H574 N562 0.984 . S
H575 N562 0.985 . S
C576 C577 1.363 . S
C576 C582 1.379 1_554 S
C576 N584 1.356 . S
C577 C576 1.363 . S
C577 C583 1.363 . S
C578 C579 1.363 1_554 S
C578 C583 1.379 . S
C578 N585 1.356 . S
C579 C578 1.363 1_556 S
C579 C582 1.363 . S
N580 C582 1.356 . S
N580 H592 0.984 . S
N580 H593 0.985 . S
N581 C583 1.356 . S
N581 H586 0.984 . S
N581 H587 0.985 . S
C582 C576 1.379 1_556 S
C582 C579 1.363 . S
C582 N580 1.356 . S
C583 C577 1.363 . S
C583 C578 1.379 . S
C583 N581 1.356 . S
N584 C576 1.356 . S
N584 H590 0.984 . S
N584 H591 0.984 . S
N585 C578 1.356 . S
N585 H588 0.984 1_554 S
N585 H589 0.985 . S
H586 N581 0.984 . S
H587 N581 0.985 . S
H588 N585 0.984 1_556 S
H589 N585 0.985 . S
H590 N584 0.984 . S
H591 N584 0.984 . S
H592 N580 0.984 . S
H593 N580 0.985 . S
C594 C595 1.363 . S
C594 C600 1.379 1_554 S
C594 N602 1.356 . S
C595 C594 1.363 . S
C595 C601 1.363 . S
C596 C597 1.363 1_554 S
C596 C601 1.379 . S
C596 N603 1.356 . S
C597 C596 1.363 1_556 S
C597 C600 1.363 . S
N598 C600 1.356 . S
N598 H610 0.984 . S
N598 H611 0.985 . S
N599 C601 1.356 . S
N599 H604 0.984 . S
N599 H605 0.985 . S
C600 C594 1.379 1_556 S
C600 C597 1.363 . S
C600 N598 1.356 . S
C601 C595 1.363 . S
C601 C596 1.379 . S
C601 N599 1.356 . S
N602 C594 1.356 . S
N602 H608 0.984 1_554 S
N602 H609 0.984 . S
N603 C596 1.356 . S
N603 H606 0.984 1_554 S
N603 H607 0.985 . S
H604 N599 0.984 . S
H605 N599 0.985 . S
H606 N603 0.984 1_556 S
H607 N603 0.985 . S
H608 N602 0.984 1_556 S
H609 N602 0.984 . S
H610 N598 0.984 . S
H611 N598 0.985 . S
C612 C613 1.382 . S
C612 C618 1.367 1_556 S
C612 N620 1.355 1_556 S
C613 C612 1.382 . S
C613 C619 1.363 . S
C614 C615 1.363 1_556 S
C614 C619 1.379 . S
C614 N621 1.356 . S
C615 C614 1.363 1_554 S
C615 C618 1.363 . S
N616 C618 1.356 . S
N616 H628 0.984 . S
N616 H629 0.985 . S
N617 C619 1.356 . S
N617 H622 0.984 . S
N617 H623 0.985 . S
C618 C612 1.367 1_554 S
C618 C615 1.363 . S
C618 N616 1.356 . S
C619 C613 1.363 . S
C619 C614 1.379 . S
C619 N617 1.356 . S
N620 C612 1.355 1_554 S
N620 H626 0.984 . S
N620 H627 0.984 1_554 S
N621 C614 1.356 . S
N621 H624 0.984 . S
N621 H625 0.985 . S
H622 N617 0.984 . S
H623 N617 0.985 . S
H624 N621 0.984 . S
H625 N621 0.985 . S
H626 N620 0.984 . S
H627 N620 0.984 1_556 S
H628 N616 0.984 . S
H629 N616 0.985 . S
C630 C631 1.363 . S
C630 C636 1.379 1_554 S
C630 N638 1.356 . S
C631 C630 1.363 . S
C631 C637 1.363 1_554 S
C632 C633 1.363 . S
C632 C637 1.379 . S
C632 N639 1.356 . S
C633 C632 1.363 . S
C633 C636 1.363 . S
N634 C636 1.356 . S
N634 H646 0.971 1_556 S
N634 H647 0.985 . S
N635 C637 1.356 . S
N635 H640 0.984 1_556 S
N635 H641 0.985 . S
C636 C630 1.379 1_556 S
C636 C633 1.363 . S
C636 N634 1.356 . S
C637 C631 1.363 1_556 S
C637 C632 1.379 . S
C637 N635 1.356 . S
N638 C630 1.356 . S
N638 H644 0.984 . S
N638 H645 0.984 . S
N639 C632 1.356 . S
N639 H642 0.984 . S
N639 H643 0.985 . S
H640 N635 0.984 1_554 S
H641 N635 0.985 . S
H642 N639 0.984 . S
H643 N639 0.985 . S
H644 N638 0.984 . S
H645 N638 0.984 . S
H646 N634 0.971 1_554 S
H647 N634 0.985 . S
C648 C649 1.363 . S
C648 C654 1.368 1_556 S
C648 N656 1.356 . S
C649 C648 1.363 . S
C649 C655 1.363 . S
C650 C651 1.363 1_556 S
C650 C655 1.379 . S
C650 N657 1.356 1_556 S
C651 C650 1.363 1_554 S
C651 C654 1.368 . S
N652 C654 1.365 . S
N652 H664 0.984 . S
N652 H665 0.985 . S
N653 C655 1.356 . S
N653 H658 0.984 . S
N653 H659 0.985 . S
C654 C648 1.368 1_554 S
C654 C651 1.368 . S
C654 N652 1.365 . S
C655 C649 1.363 . S
C655 C650 1.379 . S
C655 N653 1.356 . S
N656 C648 1.356 . S
N656 H662 0.984 . S
N656 H663 0.984 . S
N657 C650 1.356 1_554 S
N657 H660 0.984 . S
N657 H661 0.985 . S
H658 N653 0.984 . S
H659 N653 0.985 . S
H660 N657 0.984 . S
H661 N657 0.985 . S
H662 N656 0.984 . S
H663 N656 0.984 . S
H664 N652 0.984 . S
H665 N652 0.985 . S
C666 C667 1.363 . S
C666 C672 1.379 . S
C666 N674 1.356 . S
C667 C666 1.363 . S
C667 C673 1.363 . S
C668 C669 1.363 . S
C668 C673 1.379 . S
C668 N675 1.356 . S
C669 C668 1.363 . S
C669 C672 1.363 . S
N670 C672 1.356 . S
N670 H682 0.984 . S
N670 H683 0.985 . S
N671 C673 1.356 . S
N671 H676 0.984 . S
N671 H677 0.985 . S
C672 C666 1.379 . S
C672 C669 1.363 . S
C672 N670 1.356 . S
C673 C667 1.363 . S
C673 C668 1.379 . S
C673 N671 1.356 . S
N674 C666 1.356 . S
N674 H680 0.984 . S
N674 H681 0.984 . S
N675 C668 1.356 . S
N675 H678 0.984 . S
N675 H679 0.985 . S
H676 N671 0.984 . S
H677 N671 0.985 . S
H678 N675 0.984 . S
H679 N675 0.985 . S
H680 N674 0.984 . S
H681 N674 0.984 . S
H682 N670 0.984 . S
H683 N670 0.985 . S
C684 C685 1.363 . S
C684 C690 1.379 . S
C684 N692 1.356 . S
C685 C684 1.363 . S
C685 C691 1.363 . S
C686 C687 1.363 . S
C686 C691 1.379 . S
C686 N693 1.356 . S
C687 C686 1.363 . S
C687 C690 1.363 . S
N688 C690 1.356 . S
N688 H700 0.984 . S
N688 H701 0.985 . S
N689 C691 1.356 . S
N689 H694 0.984 . S
N689 H695 0.985 . S
C690 C684 1.379 . S
C690 C687 1.363 . S
C690 N688 1.356 . S
C691 C685 1.363 . S
C691 C686 1.379 . S
C691 N689 1.356 . S
N692 C684 1.356 . S
N692 H698 0.984 . S
N692 H699 0.984 . S
N693 C686 1.356 . S
N693 H696 0.984 . S
N693 H697 0.985 . S
H694 N689 0.984 . S
H695 N689 0.985 . S
H696 N693 0.984 . S
H697 N693 0.985 . S
H698 N692 0.984 . S
H699 N692 0.984 . S
H700 N688 0.984 . S
H701 N688 0.985 . S
C702 C703 1.363 . S
C702 C708 1.379 . S
C702 N710 1.356 . S
C703 C702 1.363 . S
C703 C709 1.363 . S
C704 C705 1.363 . S
C704 C709 1.379 . S
C704 N711 1.356 . S
C705 C704 1.363 . S
C705 C708 1.363 . S
N706 C708 1.356 . S
N706 H718 0.984 . S
N706 H719 0.985 . S
N707 C709 1.356 . S
N707 H712 0.984 . S
N707 H713 0.985 . S
C708 C702 1.379 . S
C708 C705 1.363 . S
C708 N706 1.356 . S
C709 C703 1.363 . S
C709 C704 1.379 . S
C709 N707 1.356 . S
N710 C702 1.356 . S
N710 H716 0.984 . S
N710 H717 0.984 . S
N711 C704 1.356 . S
N711 H714 0.984 . S
N711 H715 0.985 . S
H712 N707 0.984 . S
H713 N707 0.985 . S
H714 N711 0.984 . S
H715 N711 0.985 . S
H716 N710 0.984 . S
H717 N710 0.984 . S
H718 N706 0.984 . S
H719 N706 0.985 . S
C720 C721 1.363 . S
C720 C726 1.379 . S
C720 N728 1.356 . S
C721 C720 1.363 . S
C721 C727 1.363 . S
C722 C723 1.363 . S
C722 C727 1.379 . S
C722 N729 1.356 . S
C723 C722 1.363 . S
C723 C726 1.363 . S
N724 C726 1.356 . S
N724 H736 0.984 . S
N724 H737 0.985 . S
N725 C727 1.356 . S
N725 H730 0.984 . S
N725 H731 0.985 . S
C726 C720 1.379 . S
C726 C723 1.363 . S
C726 N724 1.356 . S
C727 C721 1.363 . S
C727 C722 1.379 . S
C727 N725 1.356 . S
N728 C720 1.356 . S
N728 H734 0.984 . S
N728 H735 0.984 . S
N729 C722 1.356 . S
N729 H732 0.984 . S
N729 H733 0.985 . S
H730 N725 0.984 . S
H731 N725 0.985 . S
H732 N729 0.984 . S
H733 N729 0.985 . S
H734 N728 0.984 . S
H735 N728 0.984 . S
H736 N724 0.984 . S
H737 N724 0.985 . S
C738 C739 1.363 1_565 S
C738 C744 1.379 . S
C738 N746 1.356 . S
C739 C738 1.363 1_545 S
C739 C745 1.363 . S
C740 C741 1.361 1_545 S
C740 C745 1.379 . S
C740 N747 1.356 . S
C741 C740 1.361 1_565 S
C741 C744 1.368 . S
N742 C744 1.356 . S
N742 H754 0.984 . S
N742 H755 0.985 . S
N743 C745 1.356 . S
N743 H748 0.984 . S
N743 H749 0.985 . S
C744 C738 1.379 . S
C744 C741 1.368 . S
C744 N742 1.356 . S
C745 C739 1.363 . S
C745 C740 1.379 . S
C745 N743 1.356 . S
N746 C738 1.356 . S
N746 H752 0.984 . S
N746 H753 0.984 . S
N747 C740 1.356 . S
N747 H750 0.984 . S
N747 H751 0.985 . S
H748 N743 0.984 . S
H749 N743 0.985 . S
H750 N747 0.984 . S
H751 N747 0.985 . S
H752 N746 0.984 . S
H753 N746 0.984 . S
H754 N742 0.984 . S
H755 N742 0.985 . S
C756 C757 1.363 1_455 S
C756 C762 1.379 . S
C756 N764 1.356 . S
C757 C756 1.363 1_655 S
C757 C763 1.363 . S
C758 C759 1.363 . S
C758 C763 1.379 . S
C758 N765 1.356 . S
C759 C758 1.363 . S
C759 C762 1.363 1_655 S
N760 C762 1.356 . S
N760 H772 0.984 . S
N760 H773 0.985 . S
N761 C763 1.356 . S
N761 H766 0.984 . S
N761 H767 0.985 . S
C762 C756 1.379 . S
C762 C759 1.363 1_455 S
C762 N760 1.356 . S
C763 C757 1.363 . S
C763 C758 1.379 . S
C763 N761 1.356 . S
N764 C756 1.356 . S
N764 H770 0.984 . S
N764 H771 0.984 . S
N765 C758 1.356 . S
N765 H768 0.984 . S
N765 H769 0.985 . S
H766 N761 0.984 . S
H767 N761 0.985 . S
H768 N765 0.984 . S
H769 N765 0.985 . S
H770 N764 0.984 . S
H771 N764 0.984 . S
H772 N760 0.984 . S
H773 N760 0.985 . S
C774 C775 1.363 . S
C774 C780 1.379 . S
C774 N782 1.356 . S
C775 C774 1.363 . S
C775 C781 1.363 . S
C776 C777 1.363 . S
C776 C781 1.379 . S
C776 N783 1.356 . S
C777 C776 1.363 . S
C777 C780 1.363 . S
N778 C780 1.356 . S
N778 H790 0.984 . S
N778 H791 0.985 . S
N779 C781 1.356 . S
N779 H784 0.984 . S
N779 H785 0.985 . S
C780 C774 1.379 . S
C780 C777 1.363 . S
C780 N778 1.356 . S
C781 C775 1.363 . S
C781 C776 1.379 . S
C781 N779 1.356 . S
N782 C774 1.356 . S
N782 H788 0.984 . S
N782 H789 0.984 . S
N783 C776 1.356 . S
N783 H786 0.984 . S
N783 H787 0.985 . S
H784 N779 0.984 . S
H785 N779 0.985 . S
H786 N783 0.984 . S
H787 N783 0.985 . S
H788 N782 0.984 . S
H789 N782 0.984 . S
H790 N778 0.984 . S
H791 N778 0.985 . S
C792 C793 1.363 . S
C792 C798 1.379 . S
C792 N800 1.356 . S
C793 C792 1.363 . S
C793 C799 1.363 1_565 S
C794 C795 1.363 1_545 S
C794 C799 1.379 . S
C794 N801 1.356 . S
C795 C794 1.363 1_565 S
C795 C798 1.363 . S
N796 C798 1.356 . S
N796 H808 0.984 . S
N796 H809 0.985 . S
N797 C799 1.356 . S
N797 H802 0.984 . S
N797 H803 0.985 . S
C798 C792 1.379 . S
C798 C795 1.363 . S
C798 N796 1.356 . S
C799 C793 1.363 1_545 S
C799 C794 1.379 . S
C799 N797 1.356 . S
N800 C792 1.356 . S
N800 H806 0.984 . S
N800 H807 0.984 . S
N801 C794 1.356 . S
N801 H804 0.984 . S
N801 H805 0.985 . S
H802 N797 0.984 . S
H803 N797 0.985 . S
H804 N801 0.984 . S
H805 N801 0.985 . S
H806 N800 0.984 . S
H807 N800 0.984 . S
H808 N796 0.984 . S
H809 N796 0.985 . S
C810 C811 1.363 . S
C810 C816 1.379 . S
C810 N818 1.356 . S
C811 C810 1.363 . S
C811 C817 1.363 . S
C812 C813 1.363 1_655 S
C812 C817 1.379 1_655 S
C812 N819 1.356 . S
C813 C812 1.363 1_455 S
C813 C816 1.363 . S
N814 C816 1.356 . S
N814 H826 0.984 . S
N814 H827 0.985 . S
N815 C817 1.356 . S
N815 H820 0.984 . S
N815 H821 0.985 1_455 S
C816 C810 1.379 . S
C816 C813 1.363 . S
C816 N814 1.356 . S
C817 C811 1.363 . S
C817 C812 1.379 1_455 S
C817 N815 1.356 . S
N818 C810 1.356 . S
N818 H824 0.984 . S
N818 H825 0.984 . S
N819 C812 1.356 . S
N819 H822 0.984 . S
N819 H823 0.985 . S
H820 N815 0.984 . S
H821 N815 0.985 1_655 S
H822 N819 0.984 . S
H823 N819 0.985 . S
H824 N818 0.984 . S
H825 N818 0.984 . S
H826 N814 0.984 . S
H827 N814 0.985 . S
C828 C829 1.363 . S
C828 C834 1.379 . S
C828 N836 1.356 . S
C829 C828 1.363 . S
C829 C835 1.363 . S
C830 C831 1.363 . S
C830 C835 1.379 . S
C830 N837 1.356 . S
C831 C830 1.363 . S
C831 C834 1.363 . S
N832 C834 1.356 . S
N832 H844 0.984 . S
N832 H845 0.985 . S
N833 C835 1.356 . S
N833 H838 0.984 . S
N833 H839 0.985 . S
C834 C828 1.379 . S
C834 C831 1.363 . S
C834 N832 1.356 . S
C835 C829 1.363 . S
C835 C830 1.379 . S
C835 N833 1.356 . S
N836 C828 1.356 . S
N836 H842 0.984 . S
N836 H843 0.984 . S
N837 C830 1.356 . S
N837 H840 0.984 . S
N837 H841 0.985 . S
H838 N833 0.984 . S
H839 N833 0.985 . S
H840 N837 0.984 . S
H841 N837 0.985 . S
H842 N836 0.984 . S
H843 N836 0.984 . S
H844 N832 0.984 . S
H845 N832 0.985 . S
C846 C847 1.363 . S
C846 C852 1.379 . S
C846 N854 1.356 . S
C847 C846 1.363 . S
C847 C853 1.363 . S
C848 C849 1.363 . S
C848 C853 1.379 . S
C848 N855 1.356 . S
C849 C848 1.363 . S
C849 C852 1.363 . S
N850 C852 1.356 . S
N850 H862 0.984 . S
N850 H863 0.985 . S
N851 C853 1.356 . S
N851 H856 0.984 . S
N851 H857 0.985 . S
C852 C846 1.379 . S
C852 C849 1.363 . S
C852 N850 1.356 . S
C853 C847 1.363 . S
C853 C848 1.379 . S
C853 N851 1.356 . S
N854 C846 1.356 . S
N854 H860 0.984 . S
N854 H861 0.984 . S
N855 C848 1.356 . S
N855 H858 0.984 . S
N855 H859 0.985 . S
H856 N851 0.984 . S
H857 N851 0.985 . S
H858 N855 0.984 . S
H859 N855 0.985 . S
H860 N854 0.984 . S
H861 N854 0.984 . S
H862 N850 0.984 . S
H863 N850 0.985 . S
C864 C865 1.363 . S
C864 C870 1.379 . S
C864 N872 1.356 . S
C865 C864 1.363 . S
C865 C871 1.363 . S
C866 C867 1.363 . S
C866 C871 1.379 . S
C866 N873 1.356 . S
C867 C866 1.363 . S
C867 C870 1.363 . S
N868 C870 1.356 . S
N868 H880 0.984 . S
N868 H881 0.985 . S
N869 C871 1.356 . S
N869 H874 0.984 . S
N869 H875 0.985 . S
C870 C864 1.379 . S
C870 C867 1.363 . S
C870 N868 1.356 . S
C871 C865 1.363 . S
C871 C866 1.379 . S
C871 N869 1.356 . S
N872 C864 1.356 . S
N872 H878 0.984 . S
N872 H879 0.984 . S
N873 C866 1.356 . S
N873 H876 0.984 . S
N873 H877 0.985 . S
H874 N869 0.984 . S
H875 N869 0.985 . S
H876 N873 0.984 . S
H877 N873 0.985 . S
H878 N872 0.984 . S
H879 N872 0.984 . S
H880 N868 0.984 . S
H881 N868 0.985 . S
C235 C0 1.606 . S
C237 C49 1.594 . S
C253 C18 1.567 . S
C255 C62 1.609 . S
C271 C75 1.583 . S
C273 C31 1.532 . S
C289 C78 1.583 . S
C291 C127 1.586 . S
C307 C96 1.565 . S
C309 C140 1.606 . S
C325 C153 1.574 . S
C327 C109 1.522 . S
C343 C205 1.587 . S
C345 C156 1.582 . S
C361 C218 1.607 . S
C363 C174 1.564 . S
C379 C231 1.574 . S
C381 C187 1.521 . S
C397 C5 1.656 . S
C399 C117 1.829 . S
C415 C13 1.844 . S
C417 C130 1.837 . S
C433 C143 1.812 . S
C435 C26 1.815 . S
C451 C39 1.828 . S
C453 C161 1.654 . S
C469 C52 1.836 . S
C471 C169 1.844 . S
C487 C65 1.812 . S
C489 C182 1.815 . S
C505 C83 1.656 . S
C507 C195 1.837 . S
C523 C91 1.857 . S
C525 C208 1.846 . S
C541 C221 1.801 . S
C543 C104 1.796 . S
C559 C8 0.886 . S
C561 C60 0.873 . S
C577 C23 0.863 . S
C579 C73 0.872 . S
C595 C36 0.869 . S
C597 C47 0.879 . S
C613 C44 0.871 . S
C615 C21 0.892 . S
C631 C34 0.889 . S
C633 C57 0.870 . S
C649 C70 0.884 . S
C651 C10 0.902 . S
C667 C86 0.900 . S
C669 C138 0.888 . S
C685 C151 0.877 . S
C687 C101 0.867 . S
C703 C125 0.881 . S
C705 C114 0.874 . S
C721 C99 0.889 . S
C723 C122 0.868 . S
C739 C135 0.875 . S
C741 C112 0.892 . S
C757 C148 0.880 . S
C759 C88 0.898 . S
C775 C216 0.871 . S
C777 C164 0.885 . S
C793 C229 0.877 . S
C795 C179 0.869 . S
C811 C192 0.867 . S
C813 C203 0.876 . S
C829 C177 0.906 . S
C831 C200 0.886 . S
C847 C190 0.893 . S
C849 C213 0.873 . S
C865 C166 0.908 . S
C867 C226 0.894 . S
