# Generated by pormake.
# Topology ukk, (4)-cn, num edge types: 1
# Building blocks:
#     Node 0, Type 0, BuildingBlock: CEKHIL_clean_sbu_0, # of connection points: 4
#     Node 1, Type 0, BuildingBlock: CEKHIL_clean_sbu_0, # of connection points: 4
#     Node 2, Type 0, BuildingBlock: CEKHIL_clean_sbu_0, # of connection points: 4
#     Node 3, Type 0, BuildingBlock: CEKHIL_clean_sbu_0, # of connection points: 4
#     Node 4, Type 0, BuildingBlock: CEKHIL_clean_sbu_0, # of connection points: 4
#     Node 5, Type 0, BuildingBlock: CEKHIL_clean_sbu_0, # of connection points: 4
#     Node 6, Type 0, BuildingBlock: CEKHIL_clean_sbu_0, # of connection points: 4
#     Node 7, Type 0, BuildingBlock: CEKHIL_clean_sbu_0, # of connection points: 4
#     Node 8, Type 0, BuildingBlock: CEKHIL_clean_sbu_0, # of connection points: 4
#     Node 9, Type 0, BuildingBlock: CEKHIL_clean_sbu_0, # of connection points: 4
#     Node 10, Type 0, BuildingBlock: CEKHIL_clean_sbu_0, # of connection points: 4
#     Node 11, Type 0, BuildingBlock: CEKHIL_clean_sbu_0, # of connection points: 4
#     Node 12, Type 0, BuildingBlock: CEKHIL_clean_sbu_0, # of connection points: 4
#     Node 13, Type 0, BuildingBlock: CEKHIL_clean_sbu_0, # of connection points: 4
#     Node 14, Type 0, BuildingBlock: CEKHIL_clean_sbu_0, # of connection points: 4
#     Node 15, Type 0, BuildingBlock: CEKHIL_clean_sbu_0, # of connection points: 4
#     Edge 16, Type (0, 0), BuildingBlock: XUDNAN_clean_linker_2, # of connection points: 2
#     Edge 17, Type (0, 0), BuildingBlock: XUDNAN_clean_linker_2, # of connection points: 2
#     Edge 18, Type (0, 0), BuildingBlock: XUDNAN_clean_linker_2, # of connection points: 2
#     Edge 19, Type (0, 0), BuildingBlock: XUDNAN_clean_linker_2, # of connection points: 2
#     Edge 20, Type (0, 0), BuildingBlock: XUDNAN_clean_linker_2, # of connection points: 2
#     Edge 21, Type (0, 0), BuildingBlock: XUDNAN_clean_linker_2, # of connection points: 2
#     Edge 22, Type (0, 0), BuildingBlock: XUDNAN_clean_linker_2, # of connection points: 2
#     Edge 23, Type (0, 0), BuildingBlock: XUDNAN_clean_linker_2, # of connection points: 2
#     Edge 24, Type (0, 0), BuildingBlock: XUDNAN_clean_linker_2, # of connection points: 2
#     Edge 25, Type (0, 0), BuildingBlock: XUDNAN_clean_linker_2, # of connection points: 2
#     Edge 26, Type (0, 0), BuildingBlock: XUDNAN_clean_linker_2, # of connection points: 2
#     Edge 27, Type (0, 0), BuildingBlock: XUDNAN_clean_linker_2, # of connection points: 2
#     Edge 28, Type (0, 0), BuildingBlock: XUDNAN_clean_linker_2, # of connection points: 2
#     Edge 29, Type (0, 0), BuildingBlock: XUDNAN_clean_linker_2, # of connection points: 2
#     Edge 30, Type (0, 0), BuildingBlock: XUDNAN_clean_linker_2, # of connection points: 2
#     Edge 31, Type (0, 0), BuildingBlock: XUDNAN_clean_linker_2, # of connection points: 2
#     Edge 32, Type (0, 0), BuildingBlock: XUDNAN_clean_linker_2, # of connection points: 2
#     Edge 33, Type (0, 0), BuildingBlock: XUDNAN_clean_linker_2, # of connection points: 2
#     Edge 34, Type (0, 0), BuildingBlock: XUDNAN_clean_linker_2, # of connection points: 2
#     Edge 35, Type (0, 0), BuildingBlock: XUDNAN_clean_linker_2, # of connection points: 2
#     Edge 36, Type (0, 0), BuildingBlock: XUDNAN_clean_linker_2, # of connection points: 2
#     Edge 37, Type (0, 0), BuildingBlock: XUDNAN_clean_linker_2, # of connection points: 2
#     Edge 38, Type (0, 0), BuildingBlock: XUDNAN_clean_linker_2, # of connection points: 2
#     Edge 39, Type (0, 0), BuildingBlock: XUDNAN_clean_linker_2, # of connection points: 2
#     Edge 40, Type (0, 0), BuildingBlock: XUDNAN_clean_linker_2, # of connection points: 2
#     Edge 41, Type (0, 0), BuildingBlock: XUDNAN_clean_linker_2, # of connection points: 2
#     Edge 42, Type (0, 0), BuildingBlock: XUDNAN_clean_linker_2, # of connection points: 2
#     Edge 43, Type (0, 0), BuildingBlock: XUDNAN_clean_linker_2, # of connection points: 2
#     Edge 44, Type (0, 0), BuildingBlock: XUDNAN_clean_linker_2, # of connection points: 2
#     Edge 45, Type (0, 0), BuildingBlock: XUDNAN_clean_linker_2, # of connection points: 2
#     Edge 46, Type (0, 0), BuildingBlock: XUDNAN_clean_linker_2, # of connection points: 2
#     Edge 47, Type (0, 0), BuildingBlock: XUDNAN_clean_linker_2, # of connection points: 2
# Relax obj value: 0.119
# Max RMSD: 0.294
# Mean RMSD: 0.294
data_MOF--net-ukk--node1-CEKHIL_clean_sbu_0--edge1-XUDNAN_clean_linker_2
_symmetry_space_group_name_H-M    P1
_symmetry_Int_Tables_number       1
_symmetry_cell_setting            triclinic
loop_
_symmetry_equiv_pos_as_xyz
'x, y, z'
_cell_length_a     53.724
_cell_length_b     53.724
_cell_length_c     16.12
_cell_angle_alpha  90.000999
_cell_angle_beta   90.000999
_cell_angle_gamma 90.0
loop_
_atom_site_label
_atom_site_type_symbol
_atom_site_fract_x
_atom_site_fract_y
_atom_site_fract_z
_atom_type_partial_charge
Co0 Co 0.35527 0.11082 0.17067 0.0
O1 O 0.32011 0.10604 0.17454 0.0
O2 O 0.34082 0.11846 0.06313 0.0
C3 C 0.36602 0.07516 0.23344 0.0
O4 O 0.39205 0.11701 0.14653 0.0
Co5 Co 0.38133 0.11778 0.34021 0.0
O6 O 0.41165 0.11641 0.27044 0.0
C7 C 0.35491 0.16003 0.26768 0.0
C8 C 0.31955 0.11312 0.09782 0.0
C9 C 0.41186 0.11769 0.19145 0.0
O10 O 0.3509 0.14655 0.20346 0.0
O11 O 0.36523 0.1516 0.33349 0.0
O12 O 0.36088 0.07562 0.15476 0.0
O13 O 0.36114 0.09541 0.27392 0.0
Co14 Co 0.11393 0.65526 0.81597 0.0
O15 O 0.1125 0.69074 0.81408 0.0
O16 O 0.11897 0.66818 0.92721 0.0
C17 C 0.07982 0.64841 0.7381 0.0
O18 O 0.11603 0.61785 0.8381 0.0
Co19 Co 0.12465 0.63 0.64633 0.0
O20 O 0.11737 0.59964 0.71191 0.0
C21 C 0.16573 0.6533 0.73605 0.0
C22 C 0.11691 0.69008 0.89302 0.0
C23 C 0.11591 0.59847 0.79087 0.0
O24 O 0.15086 0.65664 0.79726 0.0
O25 O 0.15856 0.64487 0.66571 0.0
O26 O 0.07778 0.653 0.81681 0.0
O27 O 0.10191 0.65119 0.70736 0.0
Co28 Co 0.64655 0.89999 0.15318 0.0
O29 O 0.68051 0.91041 0.14313 0.0
O30 O 0.65555 0.90197 0.03693 0.0
C31 C 0.63518 0.92843 0.24819 0.0
O32 O 0.61012 0.88981 0.14119 0.0
Co33 Co 0.63001 0.87756 0.31923 0.0
O34 O 0.59675 0.87726 0.26684 0.0
C35 C 0.65505 0.84508 0.19997 0.0
C36 C 0.67739 0.90874 0.06373 0.0
C37 C 0.593 0.88188 0.19036 0.0
O38 O 0.65683 0.86399 0.15175 0.0
O39 O 0.6459 0.84658 0.27309 0.0
O40 O 0.63577 0.9339 0.16985 0.0
O41 O 0.64456 0.90704 0.26857 0.0
Co42 Co 0.89181 0.35215 0.87751 0.0
O43 O 0.89651 0.31803 0.90952 0.0
O44 O 0.8881 0.34879 0.99656 0.0
C45 C 0.92467 0.35584 0.79276 0.0
O46 O 0.88682 0.38981 0.86552 0.0
Co47 Co 0.87749 0.363 0.69657 0.0
O48 O 0.88768 0.39718 0.72797 0.0
C49 C 0.83898 0.34441 0.80757 0.0
C50 C 0.89196 0.3251 0.98493 0.0
C51 C 0.88824 0.40468 0.80291 0.0
O52 O 0.85522 0.34576 0.86557 0.0
O53 O 0.84406 0.34952 0.7319 0.0
O54 O 0.92724 0.35778 0.8726 0.0
O55 O 0.90309 0.34811 0.76706 0.0
Co56 Co 0.35404 0.3906 0.13443 0.0
O57 O 0.31972 0.39477 0.16469 0.0
O58 O 0.35114 0.39304 0.25358 0.0
C59 C 0.35558 0.41843 0.03155 0.0
O60 O 0.39182 0.38739 0.1247 0.0
Co61 Co 0.3657 0.36751 0.9643 0.0
O62 O 0.40057 0.37585 0.9934 0.0
C63 C 0.34949 0.33459 0.09729 0.0
C64 C 0.32724 0.39469 0.24115 0.0
C65 C 0.40727 0.38265 0.0657 0.0
O66 O 0.35026 0.35363 0.14502 0.0
O67 O 0.35341 0.33607 0.01916 0.0
O68 O 0.35736 0.42542 0.10842 0.0
O69 O 0.34924 0.3954 0.01922 0.0
Co70 Co 0.39299 0.63777 0.90323 0.0
O71 O 0.40114 0.67229 0.91028 0.0
O72 O 0.39838 0.65111 0.79272 0.0
C73 C 0.41895 0.62522 0.00389 0.0
O74 O 0.38581 0.60139 0.87472 0.0
Co75 Co 0.36626 0.61438 0.05055 0.0
O76 O 0.37628 0.58292 0.99591 0.0
C77 C 0.33682 0.64367 0.93442 0.0
C78 C 0.4025 0.67223 0.83015 0.0
C79 C 0.38171 0.5819 0.91913 0.0
O80 O 0.35683 0.6463 0.89216 0.0
O81 O 0.3364 0.63247 0.00446 0.0
O82 O 0.42677 0.62865 0.9287 0.0
O83 O 0.39633 0.63239 0.01924 0.0
Co84 Co 0.6428 0.62098 0.10303 0.0
O85 O 0.67834 0.6216 0.09884 0.0
O86 O 0.65597 0.62684 0.21331 0.0
C87 C 0.63706 0.58638 0.02786 0.0
O88 O 0.60557 0.62067 0.12836 0.0
Co89 Co 0.61523 0.62979 0.93792 0.0
O90 O 0.58588 0.61959 0.00473 0.0
C91 C 0.63872 0.67206 0.02012 0.0
C92 C 0.67775 0.62589 0.17785 0.0
C93 C 0.58582 0.61841 0.08371 0.0
O94 O 0.64225 0.65786 0.08291 0.0
O95 O 0.63014 0.66406 0.951 0.0
O96 O 0.64235 0.58509 0.10628 0.0
O97 O 0.63889 0.60828 0.99455 0.0
Co98 Co 0.61285 0.35893 0.84749 0.0
O99 O 0.60902 0.325 0.81313 0.0
O100 O 0.62054 0.35586 0.73044 0.0
C101 C 0.57727 0.36223 0.91986 0.0
O102 O 0.61782 0.39632 0.86288 0.0
Co103 Co 0.61975 0.36871 0.03553 0.0
O104 O 0.61386 0.40357 0.99986 0.0
C105 C 0.6617 0.34905 0.94026 0.0
C106 C 0.61603 0.33219 0.74002 0.0
C107 C 0.61566 0.41123 0.92514 0.0
O108 O 0.64887 0.35239 0.87402 0.0
O109 O 0.6528 0.3524 0.01308 0.0
O110 O 0.57717 0.36479 0.83979 0.0
O111 O 0.59797 0.35458 0.95197 0.0
Co112 Co 0.8549 0.61276 0.62766 0.0
O113 O 0.82028 0.60982 0.60079 0.0
O114 O 0.84955 0.623 0.51426 0.0
C115 C 0.85941 0.57555 0.68939 0.0
O116 O 0.89265 0.61714 0.63369 0.0
Co117 Co 0.87024 0.61605 0.8111 0.0
O118 O 0.90374 0.60849 0.76529 0.0
C119 C 0.84979 0.66052 0.73144 0.0
C120 C 0.82615 0.61817 0.52787 0.0
C121 C 0.90916 0.61249 0.68952 0.0
O122 O 0.84952 0.64811 0.66349 0.0
O123 O 0.85602 0.65077 0.80087 0.0
O124 O 0.85991 0.57758 0.60919 0.0
O125 O 0.85297 0.59549 0.72962 0.0
Co126 Co 0.61871 0.14915 0.31514 0.0
O127 O 0.62396 0.18428 0.30179 0.0
O128 O 0.62543 0.16436 0.4219 0.0
C129 C 0.58402 0.14731 0.23717 0.0
O130 O 0.61373 0.11288 0.3519 0.0
Co131 Co 0.62185 0.11436 0.16282 0.0
O132 O 0.60398 0.09122 0.23722 0.0
C133 C 0.66787 0.12845 0.25121 0.0
C134 C 0.62685 0.18531 0.38152 0.0
C135 C 0.60601 0.0929 0.31569 0.0
O136 O 0.65513 0.14262 0.2991 0.0
O137 O 0.65831 0.11558 0.1924 0.0
O138 O 0.58313 0.15423 0.31415 0.0
O139 O 0.60611 0.14399 0.20667 0.0
Co140 Co 0.14791 0.39077 0.69007 0.0
O141 O 0.18345 0.39107 0.69468 0.0
O142 O 0.16169 0.3843 0.58035 0.0
C143 C 0.14224 0.4261 0.76206 0.0
O144 O 0.11046 0.38972 0.66486 0.0
Co145 Co 0.11926 0.38522 0.85587 0.0
O146 O 0.09148 0.39766 0.78652 0.0
C147 C 0.13871 0.34037 0.77238 0.0
C148 C 0.18338 0.38656 0.61587 0.0
C149 C 0.0909 0.395 0.70795 0.0
O150 O 0.1475 0.3541 0.7142 0.0
O151 O 0.12772 0.34921 0.83649 0.0
O152 O 0.14698 0.42672 0.68322 0.0
O153 O 0.14393 0.40451 0.79708 0.0
Co154 Co 0.39641 0.84662 0.36658 0.0
O155 O 0.39947 0.81195 0.39246 0.0
O156 O 0.39787 0.84236 0.48543 0.0
C157 C 0.42585 0.84779 0.26839 0.0
O158 O 0.39416 0.88453 0.36176 0.0
Co159 Co 0.37693 0.86157 0.19432 0.0
O160 O 0.38944 0.89476 0.22748 0.0
C161 C 0.34112 0.84487 0.31938 0.0
C162 C 0.39974 0.81866 0.46971 0.0
C163 C 0.39359 0.90068 0.30276 0.0
O164 O 0.35923 0.84363 0.37097 0.0
O165 O 0.34416 0.85052 0.24289 0.0
O166 O 0.43164 0.84894 0.34635 0.0
O167 O 0.40274 0.84287 0.25157 0.0
Co168 Co 0.8513 0.8917 0.61301 0.0
O169 O 0.81783 0.89957 0.64379 0.0
O170 O 0.84912 0.89493 0.73264 0.0
C171 C 0.85478 0.91983 0.51039 0.0
O172 O 0.88844 0.88418 0.60093 0.0
Co173 Co 0.85886 0.8685 0.44026 0.0
O174 O 0.89443 0.87311 0.46775 0.0
C175 C 0.84136 0.83635 0.57456 0.0
C176 C 0.82566 0.89963 0.71968 0.0
C177 C 0.90272 0.87805 0.54 0.0
O178 O 0.84367 0.85509 0.62347 0.0
O179 O 0.84503 0.83797 0.49632 0.0
O180 O 0.85804 0.92623 0.58711 0.0
O181 O 0.84624 0.89754 0.49832 0.0
Co182 Co 0.88446 0.1411 0.41128 0.0
O183 O 0.88489 0.17666 0.42272 0.0
O184 O 0.877 0.15682 0.30539 0.0
C185 C 0.92049 0.13383 0.47777 0.0
O186 O 0.88289 0.10428 0.37786 0.0
Co187 Co 0.88095 0.10859 0.57012 0.0
O188 O 0.89113 0.08186 0.49281 0.0
C189 C 0.83498 0.12699 0.48987 0.0
C190 C 0.87975 0.1779 0.34436 0.0
C191 C 0.8877 0.08353 0.41486 0.0
O192 O 0.84801 0.13997 0.43899 0.0
O193 O 0.84446 0.11347 0.54714 0.0
O194 O 0.92031 0.14031 0.40029 0.0
O195 O 0.89927 0.13485 0.51565 0.0
Co196 Co 0.14808 0.11478 0.62155 0.0
O197 O 0.18267 0.1168 0.65039 0.0
O198 O 0.15141 0.11645 0.74036 0.0
C199 C 0.15019 0.08366 0.53005 0.0
O200 O 0.11032 0.11218 0.61365 0.0
Co201 Co 0.13259 0.12948 0.44358 0.0
O202 O 0.10079 0.11365 0.47783 0.0
C203 C 0.14156 0.1689 0.56435 0.0
C204 C 0.17529 0.11746 0.72702 0.0
C205 C 0.0947 0.11015 0.55344 0.0
O206 O 0.14558 0.15186 0.61821 0.0
O207 O 0.13741 0.16438 0.48766 0.0
O208 O 0.15025 0.07923 0.60917 0.0
O209 O 0.15299 0.10679 0.50864 0.0
Co210 Co 0.11675 0.86052 0.37407 0.0
O211 O 0.11547 0.82574 0.34615 0.0
O212 O 0.12545 0.85614 0.25921 0.0
C213 C 0.08025 0.86202 0.44148 0.0
O214 O 0.11933 0.89826 0.37887 0.0
Co215 Co 0.12073 0.877 0.55625 0.0
O216 O 0.11257 0.91035 0.51031 0.0
C217 C 0.16511 0.85749 0.47287 0.0
C218 C 0.12196 0.83248 0.2719 0.0
C219 C 0.11548 0.91524 0.43355 0.0
O220 O 0.15261 0.85718 0.40519 0.0
O221 O 0.15544 0.86297 0.54317 0.0
O222 O 0.08118 0.86323 0.36113 0.0
O223 O 0.10113 0.85735 0.47879 0.0
H224 H 0.40851 0.93677 0.19682 0.0
H225 H 0.38317 0.92515 0.44914 0.0
H226 H 0.3799 0.97085 0.46825 0.0
H227 H 0.44249 0.99704 0.2332 0.0
H228 H 0.43241 0.0088 0.13399 0.0
H229 H 0.4379 0.97594 0.14759 0.0
H230 H 0.39315 0.96664 0.09577 0.0
H231 H 0.38748 0.9993 0.08264 0.0
H232 H 0.36708 0.98105 0.14729 0.0
H233 H 0.37259 0.01763 0.44999 0.0
H234 H 0.36192 0.05962 0.39595 0.0
H235 H 0.39165 0.03901 0.15579 0.0
C236 C 0.40296 0.94382 0.257 0.0
C237 C 0.39608 0.92749 0.32149 0.0
C238 C 0.38879 0.9374 0.39916 0.0
C239 C 0.38687 0.96332 0.41047 0.0
C240 C 0.39275 0.97892 0.34396 0.0
C241 C 0.40099 0.96942 0.26906 0.0
C242 C 0.40334 0.98942 0.20382 0.0
C243 C 0.43066 0.99301 0.17818 0.0
C244 C 0.38677 0.98376 0.12802 0.0
C245 C 0.39387 0.01154 0.252 0.0
C246 C 0.38835 0.00545 0.3333 0.0
C247 C 0.37734 0.02268 0.38697 0.0
C248 C 0.37136 0.04645 0.35595 0.0
C249 C 0.37598 0.05238 0.27187 0.0
C250 C 0.388 0.03494 0.22048 0.0
H251 H 0.0416 0.67232 0.66114 0.0
H252 H 0.06943 0.59949 0.72686 0.0
H253 H 0.02946 0.58074 0.68977 0.0
H254 H 0.98701 0.66716 0.75121 0.0
H255 H 0.96779 0.68281 0.67581 0.0
H256 H 0.00037 0.68993 0.68208 0.0
H257 H 0.00603 0.67896 0.52686 0.0
H258 H 0.97322 0.67215 0.51951 0.0
H259 H 0.9958 0.6491 0.48893 0.0
H260 H 0.9853 0.57219 0.68978 0.0
H261 H 0.94006 0.57325 0.709 0.0
H262 H 0.93824 0.65022 0.63011 0.0
C263 C 0.03956 0.65227 0.66255 0.0
C264 C 0.05894 0.63711 0.69313 0.0
C265 C 0.05537 0.61118 0.69955 0.0
C266 C 0.03252 0.6004 0.67915 0.0
C267 C 0.01337 0.61586 0.65218 0.0
C268 C 0.0167 0.64121 0.64184 0.0
C269 C 0.99207 0.65397 0.62343 0.0
C270 C 0.9865 0.67467 0.68695 0.0
C271 C 0.99177 0.66415 0.53437 0.0
C272 C 0.97425 0.63222 0.63256 0.0
C273 C 0.98709 0.61037 0.64786 0.0
C274 C 0.97498 0.58876 0.67322 0.0
C275 C 0.94919 0.58947 0.68372 0.0
C276 C 0.93559 0.61137 0.66646 0.0
C277 C 0.9482 0.63291 0.63923 0.0
H278 H 0.59304 0.9549 0.2389 0.0
H279 H 0.65967 0.94566 0.38565 0.0
H280 H 0.65165 0.98614 0.45434 0.0
H281 H 0.60118 0.01169 0.18539 0.0
H282 H 0.56948 0.02262 0.19026 0.0
H283 H 0.57554 0.99021 0.17559 0.0
H284 H 0.54913 0.97961 0.3053 0.0
H285 H 0.54282 0.01229 0.32036 0.0
H286 H 0.55617 0.99417 0.40328 0.0
H287 H 0.64339 0.03177 0.47365 0.0
H288 H 0.6361 0.07611 0.44094 0.0
H289 H 0.57372 0.0555 0.28595 0.0
C290 C 0.60507 0.96086 0.28902 0.0
C291 C 0.62668 0.94723 0.30822 0.0
C292 C 0.64265 0.95565 0.37188 0.0
C293 C 0.63822 0.97867 0.41096 0.0
C294 C 0.61741 0.99258 0.38695 0.0
C295 C 0.6007 0.98358 0.32875 0.0
C296 C 0.58221 0.00337 0.30298 0.0
C297 C 0.58216 0.0072 0.20805 0.0
C298 C 0.55603 0.99698 0.33491 0.0
C299 C 0.59271 0.02566 0.34838 0.0
C300 C 0.61243 0.01901 0.39913 0.0
C301 C 0.62743 0.03706 0.43666 0.0
C302 C 0.62307 0.0623 0.41824 0.0
C303 C 0.60414 0.06915 0.36166 0.0
C304 C 0.58794 0.05069 0.3308 0.0
H305 H 0.05143 0.4227 0.75361 0.0
H306 H 0.07353 0.36429 0.58424 0.0
H307 H 0.02921 0.35373 0.56093 0.0
H308 H 0.01219 0.38954 0.85829 0.0
H309 H 0.98912 0.41313 0.87882 0.0
H310 H 0.02064 0.42204 0.8587 0.0
H311 H 0.00648 0.45022 0.73667 0.0
H312 H 0.97467 0.44188 0.75887 0.0
H313 H 0.98706 0.43743 0.65602 0.0
H314 H 0.98357 0.34287 0.5843 0.0
H315 H 0.94324 0.33304 0.65253 0.0
H316 H 0.95271 0.39653 0.81427 0.0
C317 C 0.04683 0.40856 0.70823 0.0
C318 C 0.0658 0.39445 0.67022 0.0
C319 C 0.05925 0.37569 0.61264 0.0
C320 C 0.03406 0.3695 0.59945 0.0
C321 C 0.01576 0.3825 0.64343 0.0
C322 C 0.02195 0.40202 0.69566 0.0
C323 C 0.99998 0.41014 0.74772 0.0
C324 C 0.00585 0.40858 0.8413 0.0
C325 C 0.99154 0.43647 0.7233 0.0
C326 C 0.98099 0.39091 0.7219 0.0
C327 C 0.9899 0.37569 0.65933 0.0
C328 C 0.97623 0.3551 0.63172 0.0
C329 C 0.95336 0.34961 0.67061 0.0
C330 C 0.94493 0.36425 0.7378 0.0
C331 C 0.95862 0.3854 0.76182 0.0
H332 H 0.39725 0.44514 0.02258 0.0
H333 H 0.32693 0.4331 0.89942 0.0
H334 H 0.33259 0.47245 0.82123 0.0
H335 H 0.38968 0.5023 0.06927 0.0
H336 H 0.42091 0.51364 0.05328 0.0
H337 H 0.41592 0.48139 0.07486 0.0
H338 H 0.4389 0.46913 0.93982 0.0
H339 H 0.4443 0.50162 0.91787 0.0
H340 H 0.42912 0.48218 0.84208 0.0
H341 H 0.34007 0.5176 0.79003 0.0
H342 H 0.34818 0.56257 0.81014 0.0
H343 H 0.41374 0.5451 0.9538 0.0
C344 C 0.38388 0.45013 0.97525 0.0
C345 C 0.36199 0.43609 0.96535 0.0
C346 C 0.34416 0.44338 0.9058 0.0
C347 C 0.34727 0.46574 0.86141 0.0
C348 C 0.36853 0.48014 0.87637 0.0
C349 C 0.38686 0.47221 0.93073 0.0
C350 C 0.40565 0.49254 0.948 0.0
C351 C 0.40812 0.49777 0.04182 0.0
C352 C 0.43099 0.48597 0.90963 0.0
C353 C 0.39366 0.51399 0.9024 0.0
C354 C 0.37284 0.50636 0.85842 0.0
C355 C 0.35682 0.52361 0.82146 0.0
C356 C 0.36159 0.54913 0.83276 0.0
C357 C 0.38194 0.55701 0.8816 0.0
C358 C 0.39863 0.5393 0.91374 0.0
H359 H 0.4494 0.65856 0.07298 0.0
H360 H 0.43193 0.58015 0.06688 0.0
H361 H 0.47293 0.57051 0.12876 0.0
H362 H 0.50395 0.65351 0.99379 0.0
H363 H 0.52 0.67745 0.0511 0.0
H364 H 0.48694 0.67909 0.03898 0.0
H365 H 0.48118 0.68084 0.19831 0.0
H366 H 0.51451 0.67957 0.21124 0.0
H367 H 0.49494 0.65712 0.26272 0.0
H368 H 0.51864 0.5687 0.14972 0.0
H369 H 0.5638 0.5749 0.12752 0.0
H370 H 0.55254 0.65446 0.11654 0.0
C371 C 0.45366 0.63957 0.09057 0.0
C372 C 0.43736 0.62014 0.06872 0.0
C373 C 0.44388 0.59528 0.08669 0.0
C374 C 0.46721 0.58969 0.12141 0.0
C375 C 0.48372 0.60923 0.13749 0.0
C376 C 0.47702 0.6338 0.12383 0.0
C377 C 0.49938 0.65093 0.12902 0.0
C378 C 0.50275 0.66608 0.04844 0.0
C379 C 0.49738 0.66813 0.20486 0.0
C380 C 0.52 0.63205 0.14045 0.0
C381 C 0.51058 0.60816 0.14825 0.0
C382 C 0.5262 0.58735 0.14708 0.0
C383 C 0.55182 0.59099 0.13472 0.0
C384 C 0.56147 0.6152 0.12336 0.0
C385 C 0.54554 0.63592 0.12892 0.0
H386 H 0.59879 0.44623 0.0325 0.0
H387 H 0.63228 0.43799 0.78923 0.0
H388 H 0.6358 0.48396 0.77827 0.0
H389 H 0.56496 0.50522 0.99202 0.0
H390 H 0.57127 0.51636 0.09536 0.0
H391 H 0.5677 0.48347 0.07668 0.0
H392 H 0.61096 0.4753 0.14281 0.0
H393 H 0.61464 0.50802 0.16176 0.0
H394 H 0.63783 0.49144 0.10283 0.0
H395 H 0.64037 0.53114 0.80399 0.0
H396 H 0.64683 0.57311 0.86566 0.0
H397 H 0.61079 0.54847 0.09142 0.0
C398 C 0.60649 0.454 0.97606 0.0
C399 C 0.61537 0.43852 0.91185 0.0
C400 C 0.62524 0.44953 0.83908 0.0
C401 C 0.62726 0.47561 0.83233 0.0
C402 C 0.61896 0.49031 0.89832 0.0
C403 C 0.60858 0.47973 0.96847 0.0
C404 C 0.60325 0.49891 0.03451 0.0
C405 C 0.57512 0.50112 0.05055 0.0
C406 C 0.61753 0.49307 0.11515 0.0
C407 C 0.61323 0.5219 0.99243 0.0
C408 C 0.62177 0.51689 0.9132 0.0
C409 C 0.63336 0.53527 0.86539 0.0
C410 C 0.63689 0.55905 0.90057 0.0
C411 C 0.62926 0.56383 0.983 0.0
C412 C 0.6167 0.54524 0.02805 0.0
H413 H 0.44063 0.34522 0.07926 0.0
H414 H 0.43404 0.42546 0.07567 0.0
H415 H 0.47972 0.42921 0.06074 0.0
H416 H 0.50433 0.34379 0.18993 0.0
H417 H 0.51368 0.31712 0.12968 0.0
H418 H 0.48148 0.3211 0.1585 0.0
H419 H 0.46883 0.31789 0.00382 0.0
H420 H 0.50084 0.31427 0.97436 0.0
H421 H 0.48251 0.33897 0.92962 0.0
H422 H 0.52351 0.42376 0.01292 0.0
H423 H 0.56288 0.40974 0.94915 0.0
H424 H 0.54252 0.333 0.99404 0.0
C425 C 0.44908 0.36353 0.07947 0.0
C426 C 0.43413 0.38508 0.08012 0.0
C427 C 0.44538 0.40881 0.07712 0.0
C428 C 0.47128 0.41107 0.06854 0.0
C429 C 0.48557 0.38938 0.06495 0.0
C430 C 0.47493 0.36604 0.07252 0.0
C431 C 0.49397 0.34565 0.05844 0.0
C432 C 0.49864 0.33105 0.13893 0.0
C433 C 0.48606 0.3282 0.98732 0.0
C434 C 0.5165 0.36108 0.03516 0.0
C435 C 0.51138 0.38629 0.04065 0.0
C436 C 0.5281 0.40415 0.01168 0.0
C437 C 0.55042 0.39605 0.97559 0.0
C438 C 0.55594 0.37039 0.96984 0.0
C439 C 0.53901 0.35273 0.00115 0.0
H440 H 0.85608 0.43913 0.86965 0.0
H441 H 0.92821 0.43042 0.75367 0.0
H442 H 0.93192 0.47576 0.73915 0.0
H443 H 0.83451 0.48201 0.73781 0.0
H444 H 0.81751 0.50125 0.8098 0.0
H445 H 0.82299 0.46905 0.83363 0.0
H446 H 0.84404 0.48139 0.97206 0.0
H447 H 0.83833 0.51376 0.9492 0.0
H448 H 0.86949 0.50326 0.97153 0.0
H449 H 0.92315 0.51822 0.70051 0.0
H450 H 0.90422 0.55739 0.65354 0.0
H451 H 0.83887 0.54271 0.80212 0.0
C452 C 0.87316 0.44705 0.84561 0.0
C453 C 0.89232 0.43148 0.81532 0.0
C454 C 0.91382 0.44215 0.77971 0.0
C455 C 0.91601 0.4679 0.77092 0.0
C456 C 0.89643 0.48283 0.79787 0.0
C457 C 0.87553 0.47298 0.83584 0.0
C458 C 0.85582 0.49301 0.84803 0.0
C459 C 0.83127 0.48589 0.8047 0.0
C460 C 0.85168 0.49816 0.94074 0.0
C461 C 0.86824 0.51505 0.8058 0.0
C462 C 0.89181 0.50866 0.77837 0.0
C463 C 0.90537 0.524 0.7255 0.0
C464 C 0.89461 0.54632 0.69957 0.0
C465 C 0.87097 0.55371 0.72861 0.0
C466 C 0.85765 0.53805 0.78323 0.0
H467 H 0.54231 0.17407 0.25429 0.0
H468 H 0.57316 0.11182 0.11843 0.0
H469 H 0.53093 0.1014 0.06591 0.0
H470 H 0.4921 0.14536 0.32746 0.0
H471 H 0.47107 0.17142 0.32022 0.0
H472 H 0.50385 0.17679 0.33023 0.0
H473 H 0.50346 0.20318 0.19549 0.0
H474 H 0.47046 0.19789 0.18507 0.0
H475 H 0.49118 0.19002 0.10111 0.0
H476 H 0.48403 0.09311 0.05426 0.0
H477 H 0.43877 0.08857 0.08331 0.0
H478 H 0.44007 0.15734 0.2225 0.0
C479 C 0.54029 0.15876 0.21106 0.0
C480 C 0.56079 0.14372 0.19025 0.0
C481 C 0.55759 0.12368 0.13437 0.0
C482 C 0.53369 0.11769 0.1043 0.0
C483 C 0.51351 0.13238 0.12911 0.0
C484 C 0.51682 0.15286 0.18006 0.0
C485 C 0.49233 0.16412 0.2063 0.0
C486 C 0.4897 0.1644 0.30162 0.0
C487 C 0.48918 0.19036 0.16977 0.0
C488 C 0.47454 0.14596 0.16665 0.0
C489 C 0.48687 0.12798 0.12085 0.0
C490 C 0.47416 0.10754 0.08763 0.0
C491 C 0.44849 0.10511 0.10396 0.0
C492 C 0.43613 0.12294 0.15353 0.0
C493 C 0.44915 0.1439 0.1825 0.0
H494 H 0.09102 0.55976 0.72528 0.0
H495 H 0.13797 0.5801 0.93273 0.0
H496 H 0.14274 0.53539 0.96845 0.0
H497 H 0.06274 0.5009 0.82074 0.0
H498 H 0.06357 0.48584 0.72089 0.0
H499 H 0.05819 0.51892 0.72762 0.0
H500 H 0.09534 0.52662 0.6283 0.0
H501 H 0.10099 0.49383 0.62185 0.0
H502 H 0.12558 0.5144 0.65487 0.0
H503 H 0.1496 0.48846 0.96108 0.0
H504 H 0.15814 0.44562 0.91024 0.0
H505 H 0.10736 0.45743 0.70584 0.0
C506 C 0.10142 0.55488 0.78048 0.0
C507 C 0.114 0.57326 0.82666 0.0
C508 C 0.12785 0.56624 0.89747 0.0
C509 C 0.13065 0.54089 0.918 0.0
C510 C 0.11902 0.52304 0.86803 0.0
C511 C 0.10428 0.52991 0.80144 0.0
C512 C 0.09683 0.50776 0.74932 0.0
C513 C 0.06866 0.50308 0.75503 0.0
C514 C 0.10522 0.51085 0.65833 0.0
C515 C 0.11122 0.48751 0.79286 0.0
C516 C 0.12328 0.49632 0.86288 0.0
C517 C 0.13972 0.48127 0.90771 0.0
C518 C 0.14446 0.457 0.87866 0.0
C519 C 0.13324 0.4485 0.80464 0.0
C520 C 0.11589 0.46361 0.76317 0.0
H521 H 0.4657 0.81858 0.25906 0.0
H522 H 0.43167 0.88331 0.14771 0.0
H523 H 0.47212 0.89487 0.0849 0.0
H524 H 0.51434 0.84654 0.32987 0.0
H525 H 0.53707 0.8223 0.31433 0.0
H526 H 0.50487 0.81437 0.32483 0.0
H527 H 0.50557 0.79156 0.18332 0.0
H528 H 0.53816 0.79896 0.17284 0.0
H529 H 0.51658 0.80759 0.09219 0.0
H530 H 0.51792 0.90482 0.06644 0.0
H531 H 0.56301 0.91142 0.09293 0.0
H532 H 0.56644 0.8406 0.22015 0.0
C533 C 0.46654 0.83429 0.21698 0.0
C534 C 0.44568 0.84973 0.20622 0.0
C535 C 0.44737 0.87085 0.15432 0.0
C536 C 0.47035 0.87757 0.11883 0.0
C537 C 0.49118 0.86277 0.1353 0.0
C538 C 0.48926 0.84118 0.18194 0.0
C539 C 0.51455 0.8308 0.204 0.0
C540 C 0.51788 0.82841 0.29879 0.0
C541 C 0.51898 0.80574 0.16045 0.0
C542 C 0.53105 0.85084 0.16828 0.0
C543 C 0.51748 0.86878 0.12652 0.0
C544 C 0.52877 0.8905 0.09682 0.0
C545 C 0.55433 0.89415 0.11204 0.0
C546 C 0.56796 0.87641 0.15814 0.0
C547 C 0.55632 0.85426 0.18399 0.0
H548 H 0.82475 0.95825 0.47438 0.0
H549 H 0.89517 0.92463 0.41003 0.0
H550 H 0.90808 0.96356 0.34023 0.0
H551 H 0.81988 0.00275 0.2843 0.0
H552 H 0.80669 0.02648 0.35007 0.0
H553 H 0.80014 0.9941 0.37 0.0
H554 H 0.81603 0.99944 0.52071 0.0
H555 H 0.82272 0.03154 0.50101 0.0
H556 H 0.84703 0.01124 0.53801 0.0
H557 H 0.91782 0.00851 0.31776 0.0
H558 H 0.92231 0.05395 0.33917 0.0
H559 H 0.84489 0.05865 0.40946 0.0
C560 C 0.84217 0.95869 0.44054 0.0
C561 C 0.85864 0.93833 0.44454 0.0
C562 C 0.88196 0.93977 0.4045 0.0
C563 C 0.88945 0.9619 0.36516 0.0
C564 C 0.87326 0.98227 0.36583 0.0
C565 C 0.84978 0.98063 0.40099 0.0
C566 C 0.83752 0.00597 0.40656 0.0
C567 C 0.81471 0.0074 0.34927 0.0
C568 C 0.83045 0.0124 0.49687 0.0
C569 C 0.85838 0.02237 0.37493 0.0
C570 C 0.87873 0.00841 0.35015 0.0
C571 C 0.90167 0.01963 0.33314 0.0
C572 C 0.9041 0.04547 0.34484 0.0
C573 C 0.88362 0.05974 0.37221 0.0
C574 C 0.86035 0.04819 0.38402 0.0
H575 H 0.9573 0.10903 0.40014 0.0
H576 H 0.93534 0.13751 0.64052 0.0
H577 H 0.97712 0.12694 0.69635 0.0
H578 H 0.99946 0.05779 0.48092 0.0
H579 H 0.02074 0.06245 0.3959 0.0
H580 H 0.98785 0.06757 0.3812 0.0
H581 H 0.99692 0.11233 0.329 0.0
H582 H 0.02964 0.1074 0.34359 0.0
H583 H 0.01451 0.13328 0.39387 0.0
H584 H 0.02365 0.12059 0.71639 0.0
H585 H 0.0694 0.11898 0.69903 0.0
H586 H 0.05961 0.09314 0.44631 0.0
C587 C 0.96109 0.1124 0.46518 0.0
C588 C 0.94335 0.12412 0.51621 0.0
C589 C 0.94878 0.12835 0.60084 0.0
C590 C 0.9724 0.12235 0.63291 0.0
C591 C 0.98993 0.11156 0.57985 0.0
C592 C 0.98427 0.10619 0.49804 0.0
C593 C 0.00677 0.09697 0.45103 0.0
C594 C 0.0035 0.06957 0.42579 0.0
C595 C 0.01228 0.11349 0.37499 0.0
C596 C 0.02647 0.09969 0.51718 0.0
C597 C 0.01644 0.10754 0.59178 0.0
C598 C 0.0316 0.11384 0.65895 0.0
C599 C 0.05758 0.11284 0.6486 0.0
C600 C 0.06802 0.10596 0.57126 0.0
C601 C 0.05217 0.09838 0.50627 0.0
H602 H 0.09045 0.95403 0.50188 0.0
H603 H 0.14483 0.9359 0.31303 0.0
H604 H 0.15364 0.98072 0.29344 0.0
H605 H 0.06978 0.01629 0.40546 0.0
H606 H 0.06628 0.02969 0.50727 0.0
H607 H 0.05984 0.99709 0.49099 0.0
H608 H 0.09124 0.98557 0.60702 0.0
H609 H 0.09763 0.0179 0.62376 0.0
H610 H 0.1228 0.99684 0.60033 0.0
H611 H 0.16333 0.0262 0.31884 0.0
H612 H 0.1721 0.0669 0.38607 0.0
H613 H 0.11026 0.05504 0.55323 0.0
C614 C 0.10352 0.95961 0.45421 0.0
C615 C 0.11692 0.94165 0.40888 0.0
C616 C 0.13412 0.94947 0.34765 0.0
C617 C 0.13921 0.97489 0.33605 0.0
C618 C 0.12641 0.99221 0.3845 0.0
C619 C 0.10846 0.98484 0.44111 0.0
C620 C 0.09949 0.00647 0.49299 0.0
C621 C 0.07223 0.01275 0.47295 0.0
C622 C 0.10304 0.00138 0.58645 0.0
C623 C 0.11672 0.02666 0.46214 0.0
C624 C 0.13166 0.01847 0.39782 0.0
C625 C 0.15119 0.03309 0.36721 0.0
C626 C 0.15603 0.05619 0.40534 0.0
C627 C 0.1416 0.06399 0.47372 0.0
C628 C 0.1212 0.04954 0.4998 0.0
H629 H 0.93475 0.85299 0.44111 0.0
H630 H 0.9324 0.89741 0.66571 0.0
H631 H 0.97854 0.89476 0.67553 0.0
H632 H 0.9867 0.81276 0.50099 0.0
H633 H 0.99855 0.81206 0.39643 0.0
H634 H 0.96561 0.81531 0.41443 0.0
H635 H 0.96518 0.85574 0.32629 0.0
H636 H 0.99801 0.85263 0.30803 0.0
H637 H 0.98593 0.88086 0.35311 0.0
H638 H 0.0263 0.88932 0.65128 0.0
H639 H 0.06886 0.88329 0.59307 0.0
H640 H 0.0372 0.84375 0.38417 0.0
C641 C 0.94376 0.86207 0.49306 0.0
C642 C 0.92995 0.87557 0.55234 0.0
C643 C 0.94262 0.88692 0.61958 0.0
C644 C 0.96879 0.88546 0.62563 0.0
C645 C 0.98183 0.87233 0.56458 0.0
C646 C 0.96951 0.86076 0.49994 0.0
C647 C 0.98724 0.84911 0.43881 0.0
C648 C 0.98435 0.82062 0.43765 0.0
C649 C 0.98389 0.86026 0.35147 0.0
C650 C 0.01168 0.85668 0.47686 0.0
C651 C 0.00849 0.86962 0.55031 0.0
C652 C 0.02889 0.87903 0.59422 0.0
C653 C 0.05294 0.8755 0.56105 0.0
C654 C 0.05608 0.86316 0.48422 0.0
C655 C 0.03523 0.85333 0.44295 0.0
H656 H 0.3461 0.28821 0.02327 0.0
H657 H 0.34443 0.32517 0.26308 0.0
H658 H 0.34218 0.28461 0.33268 0.0
H659 H 0.30325 0.2369 0.08196 0.0
H660 H 0.32016 0.21433 0.02143 0.0
H661 H 0.31944 0.24646 0.98933 0.0
H662 H 0.36768 0.24752 0.9886 0.0
H663 H 0.36853 0.21547 0.02073 0.0
H664 H 0.38445 0.2388 0.08105 0.0
H665 H 0.34511 0.24009 0.3778 0.0
H666 H 0.35053 0.19457 0.39321 0.0
H667 H 0.34806 0.1866 0.12524 0.0
C668 C 0.34481 0.28781 0.09028 0.0
C669 C 0.34551 0.31 0.13728 0.0
C670 C 0.34393 0.30854 0.22515 0.0
C671 C 0.3426 0.28554 0.26563 0.0
C672 C 0.34248 0.26405 0.21767 0.0
C673 C 0.3432 0.26494 0.13192 0.0
C674 C 0.34383 0.239 0.09533 0.0
C675 C 0.32026 0.23387 0.04398 0.0
C676 C 0.36754 0.23497 0.04341 0.0
C677 C 0.34419 0.22353 0.17392 0.0
C678 C 0.34331 0.23829 0.24389 0.0
C679 C 0.34531 0.22825 0.3235 0.0
C680 C 0.34845 0.20241 0.33172 0.0
C681 C 0.3494 0.18696 0.26069 0.0
C682 C 0.34687 0.19778 0.18103 0.0
H683 H 0.18979 0.65306 0.88505 0.0
H684 H 0.20239 0.66222 0.62085 0.0
H685 H 0.24759 0.66628 0.64708 0.0
H686 H 0.24055 0.6946 0.95862 0.0
H687 H 0.24798 0.67428 0.04407 0.0
H688 H 0.21646 0.6761 0.0061 0.0
H689 H 0.21607 0.62833 0.98382 0.0
H690 H 0.24751 0.62635 0.02144 0.0
H691 H 0.23983 0.61419 0.9204 0.0
H692 H 0.29119 0.6665 0.70077 0.0
H693 H 0.33044 0.65872 0.77408 0.0
H694 H 0.28967 0.64647 0.00335 0.0
C695 C 0.20196 0.65654 0.83278 0.0
C696 C 0.19255 0.65765 0.75086 0.0
C697 C 0.20919 0.66147 0.68404 0.0
C698 C 0.23485 0.66394 0.69847 0.0
C699 C 0.24351 0.66239 0.77994 0.0
C700 C 0.22758 0.65863 0.84594 0.0
C701 C 0.24179 0.65495 0.92631 0.0
C702 C 0.23637 0.67625 0.98738 0.0
C703 C 0.23595 0.62944 0.96521 0.0
C704 C 0.26829 0.6562 0.8947 0.0
C705 C 0.26881 0.66125 0.81056 0.0
C706 C 0.29102 0.66267 0.76668 0.0
C707 C 0.31327 0.6582 0.80925 0.0
C708 C 0.31323 0.65182 0.8948 0.0
C709 C 0.29038 0.65131 0.93819 0.0
H710 H 0.64878 0.79898 0.27242 0.0
H711 H 0.67213 0.83467 0.04341 0.0
H712 H 0.6722 0.79402 0.97317 0.0
H713 H 0.68509 0.74046 0.24055 0.0
H714 H 0.66087 0.72172 0.28621 0.0
H715 H 0.66551 0.75329 0.32069 0.0
H716 H 0.61924 0.76298 0.28838 0.0
H717 H 0.61457 0.73164 0.25237 0.0
H718 H 0.60741 0.75751 0.18531 0.0
H719 H 0.6636 0.75033 0.92225 0.0
H720 H 0.65279 0.70591 0.90086 0.0
H721 H 0.63723 0.69867 0.16384 0.0
C722 C 0.65465 0.79822 0.20822 0.0
C723 C 0.66036 0.82018 0.16376 0.0
C724 C 0.66765 0.81823 0.07928 0.0
C725 C 0.66769 0.79517 0.03849 0.0
C726 C 0.66082 0.77409 0.08312 0.0
C727 C 0.65502 0.7753 0.16664 0.0
C728 C 0.64735 0.75004 0.19954 0.0
C729 C 0.66581 0.74084 0.26565 0.0
C730 C 0.62056 0.75059 0.23336 0.0
C731 C 0.64908 0.73464 0.12109 0.0
C732 C 0.65677 0.74881 0.05441 0.0
C733 C 0.65805 0.73892 0.97438 0.0
C734 C 0.6517 0.71377 0.96262 0.0
C735 C 0.64444 0.69881 0.03071 0.0
C736 C 0.64314 0.70952 0.11073 0.0
H737 H 0.69122 0.35612 0.80388 0.0
H738 H 0.69249 0.32763 0.05587 0.0
H739 H 0.73744 0.3188 0.04168 0.0
H740 H 0.7379 0.3133 0.71504 0.0
H741 H 0.75142 0.33726 0.651 0.0
H742 H 0.71881 0.33845 0.67713 0.0
H743 H 0.72468 0.38279 0.7373 0.0
H744 H 0.75723 0.38175 0.71136 0.0
H745 H 0.74777 0.38793 0.81665 0.0
H746 H 0.78232 0.31586 0.00417 0.0
H747 H 0.82476 0.32147 0.95052 0.0
H748 H 0.79494 0.35325 0.72353 0.0
C749 C 0.70082 0.34753 0.85557 0.0
C750 C 0.68828 0.34233 0.93085 0.0
C751 C 0.70168 0.33169 0.99763 0.0
C752 C 0.72717 0.32649 0.98994 0.0
C753 C 0.73899 0.33213 0.91521 0.0
C754 C 0.7263 0.34252 0.8493 0.0
C755 C 0.74381 0.34891 0.7786 0.0
C756 C 0.73761 0.33356 0.70084 0.0
C757 C 0.74335 0.37701 0.75994 0.0
C758 C 0.76848 0.34102 0.81581 0.0
C759 C 0.76515 0.33101 0.8941 0.0
C760 C 0.78514 0.32349 0.94275 0.0
C761 C 0.80922 0.32684 0.91162 0.0
C762 C 0.81324 0.33785 0.83268 0.0
C763 C 0.7925 0.34448 0.78348 0.0
H764 H 0.84521 0.68856 0.59069 0.0
H765 H 0.84187 0.69392 0.85926 0.0
H766 H 0.83473 0.73933 0.84718 0.0
H767 H 0.87962 0.74271 0.55947 0.0
H768 H 0.86424 0.75128 0.4643 0.0
H769 H 0.86605 0.71908 0.49418 0.0
H770 H 0.81803 0.71543 0.48467 0.0
H771 H 0.81605 0.74769 0.45473 0.0
H772 H 0.79877 0.73658 0.54313 0.0
H773 H 0.83063 0.7846 0.80505 0.0
H774 H 0.83261 0.82585 0.73866 0.0
H775 H 0.84001 0.7905 0.49755 0.0
C776 C 0.84254 0.69909 0.64729 0.0
C777 C 0.84392 0.68753 0.72611 0.0
C778 C 0.84079 0.70227 0.79825 0.0
C779 C 0.83663 0.72806 0.7919 0.0
C780 C 0.83568 0.73883 0.71307 0.0
C781 C 0.83862 0.72476 0.6421 0.0
C782 C 0.83884 0.7409 0.56501 0.0
C783 C 0.86366 0.73834 0.51803 0.0
C784 C 0.8166 0.73478 0.50857 0.0
C785 C 0.83614 0.76643 0.60361 0.0
C786 C 0.83394 0.76483 0.68894 0.0
C787 C 0.8322 0.78603 0.73829 0.0
C788 C 0.83336 0.80943 0.69975 0.0
C789 C 0.83652 0.81157 0.61257 0.0
C790 C 0.83739 0.78964 0.56407 0.0
H791 H 0.80111 0.1624 0.43992 0.0
H792 H 0.80985 0.08347 0.48874 0.0
H793 H 0.76903 0.07528 0.42436 0.0
H794 H 0.73326 0.1631 0.48633 0.0
H795 H 0.72703 0.18628 0.40822 0.0
H796 H 0.75668 0.18584 0.46036 0.0
H797 H 0.77875 0.1834 0.31769 0.0
H798 H 0.74916 0.18313 0.26521 0.0
H799 H 0.77119 0.15839 0.24751 0.0
H800 H 0.73012 0.07506 0.33939 0.0
H801 H 0.68993 0.08361 0.27041 0.0
H802 H 0.70357 0.16293 0.29093 0.0
C803 C 0.79404 0.14352 0.43894 0.0
C804 C 0.80848 0.12356 0.46958 0.0
C805 C 0.79886 0.09904 0.46677 0.0
C806 C 0.77585 0.09417 0.4294 0.0
C807 C 0.76243 0.11411 0.39716 0.0
C808 C 0.77066 0.1384 0.40433 0.0
C809 C 0.752 0.15645 0.36744 0.0
C810 C 0.74162 0.17395 0.4346 0.0
C811 C 0.76347 0.17121 0.29518 0.0
C812 C 0.7323 0.13844 0.3369 0.0
C813 C 0.73901 0.11409 0.35304 0.0
C814 C 0.72445 0.09405 0.32745 0.0
C815 C 0.70186 0.09906 0.28737 0.0
C816 C 0.69388 0.12387 0.27508 0.0
C817 C 0.70942 0.14379 0.29929 0.0
H818 H 0.16561 0.31333 0.6579 0.0
H819 H 0.11063 0.3058 0.85414 0.0
H820 H 0.10508 0.26169 0.81762 0.0
H821 H 0.13628 0.27533 0.50971 0.0
H822 H 0.1643 0.26087 0.47147 0.0
H823 H 0.16555 0.29167 0.51538 0.0
H824 H 0.19891 0.27731 0.62102 0.0
H825 H 0.19813 0.24657 0.57637 0.0
H826 H 0.19277 0.25068 0.68588 0.0
H827 H 0.10326 0.21981 0.7563 0.0
H828 H 0.10868 0.18005 0.68254 0.0
H829 H 0.1649 0.21348 0.52478 0.0
C830 C 0.15271 0.3023 0.69413 0.0
C831 C 0.13857 0.3131 0.7591 0.0
C832 C 0.12186 0.298 0.80478 0.0
C833 C 0.11842 0.27294 0.78409 0.0
C834 C 0.13203 0.26316 0.71823 0.0
C835 C 0.14919 0.27713 0.67481 0.0
C836 C 0.16143 0.26179 0.6069 0.0
C837 C 0.15659 0.2731 0.52077 0.0
C838 C 0.18947 0.25892 0.62355 0.0
C839 C 0.1479 0.23721 0.61761 0.0
C840 C 0.13108 0.23857 0.6825 0.0
C841 C 0.11646 0.21843 0.70579 0.0
C842 C 0.1196 0.19601 0.6634 0.0
C843 C 0.13709 0.19389 0.59813 0.0
C844 C 0.15118 0.21483 0.57377 0.0
H845 H 0.19449 0.8646 0.33782 0.0
H846 H 0.19662 0.83905 0.59311 0.0
H847 H 0.24168 0.82997 0.57792 0.0
H848 H 0.23793 0.82075 0.25099 0.0
H849 H 0.2519 0.84336 0.1827 0.0
H850 H 0.21977 0.84655 0.21287 0.0
H851 H 0.22859 0.89101 0.26807 0.0
H852 H 0.26068 0.88804 0.23752 0.0
H853 H 0.25297 0.89562 0.34336 0.0
H854 H 0.28654 0.82436 0.53416 0.0
H855 H 0.32825 0.82581 0.47089 0.0
H856 H 0.29639 0.85625 0.24493 0.0
C857 C 0.20433 0.85684 0.39047 0.0
C858 C 0.19204 0.85226 0.46651 0.0
C859 C 0.20571 0.84267 0.53438 0.0
C860 C 0.23122 0.83734 0.52608 0.0
C861 C 0.24269 0.84198 0.44985 0.0
C862 C 0.22969 0.85177 0.3836 0.0
C863 C 0.2465 0.85654 0.30994 0.0
C864 C 0.23855 0.84085 0.23469 0.0
C865 C 0.24723 0.88445 0.2885 0.0
C866 C 0.27112 0.84778 0.34474 0.0
C867 C 0.2685 0.8393 0.42531 0.0
C868 C 0.28878 0.83095 0.47116 0.0
C869 C 0.31242 0.83187 0.43449 0.0
C870 C 0.31566 0.84119 0.35276 0.0
C871 C 0.29457 0.8488 0.30705 0.0
H872 H 0.22575 0.12333 0.71508 0.0
H873 H 0.16573 0.11476 0.89325 0.0
H874 H 0.19635 0.11505 0.00742 0.0
H875 H 0.26878 0.0839 0.81307 0.0
H876 H 0.29574 0.10268 0.79034 0.0
H877 H 0.2691 0.10369 0.72273 0.0
H878 H 0.26637 0.15151 0.74126 0.0
H879 H 0.29311 0.15069 0.80871 0.0
H880 H 0.26444 0.16447 0.84421 0.0
H881 H 0.23305 0.11322 0.1001 0.0
H882 H 0.27382 0.11052 0.16836 0.0
H883 H 0.31063 0.121 0.93095 0.0
C884 C 0.21903 0.12175 0.77819 0.0
C885 C 0.19338 0.11895 0.79552 0.0
C886 C 0.18529 0.11693 0.87874 0.0
C887 C 0.20253 0.11712 0.9439 0.0
C888 C 0.22769 0.11957 0.9246 0.0
C889 C 0.23596 0.12205 0.84396 0.0
C890 C 0.26412 0.12365 0.84019 0.0
C891 C 0.27507 0.1022 0.78854 0.0
C892 C 0.2725 0.14909 0.80661 0.0
C893 C 0.27043 0.12091 0.93129 0.0
C894 C 0.24907 0.11877 0.97866 0.0
C895 C 0.24991 0.11511 0.06389 0.0
C896 C 0.27321 0.11349 0.10194 0.0
C897 C 0.29542 0.11554 0.05489 0.0
C898 C 0.29398 0.11952 0.96846 0.0
H899 H 0.11844 0.78169 0.28356 0.0
H900 H 0.13121 0.84178 0.1084 0.0
H901 H 0.1333 0.81128 0.99428 0.0
H902 H 0.15955 0.73626 0.18207 0.0
H903 H 0.13928 0.71039 0.20451 0.0
H904 H 0.14025 0.73676 0.27354 0.0
H905 H 0.09256 0.74217 0.25815 0.0
H906 H 0.09144 0.71591 0.18888 0.0
H907 H 0.07925 0.74558 0.1561 0.0
H908 H 0.13092 0.77535 0.89908 0.0
H909 H 0.12592 0.73545 0.82657 0.0
H910 H 0.11577 0.69777 0.06257 0.0
C911 C 0.12193 0.7884 0.22129 0.0
C912 C 0.12464 0.8141 0.20464 0.0
C913 C 0.12912 0.82218 0.12247 0.0
C914 C 0.13036 0.805 0.05732 0.0
C915 C 0.12729 0.77986 0.07565 0.0
C916 C 0.12338 0.77148 0.15555 0.0
C917 C 0.12003 0.74345 0.15766 0.0
C918 C 0.14103 0.73098 0.20739 0.0
C919 C 0.09429 0.73638 0.19223 0.0
C920 C 0.12207 0.73748 0.06606 0.0
C921 C 0.12634 0.75882 0.02022 0.0
C922 C 0.12784 0.75846 0.93421 0.0
C923 C 0.12484 0.73569 0.89367 0.0
C924 C 0.12048 0.71352 0.93903 0.0
C925 C 0.1193 0.7144 0.02648 0.0
H926 H 0.70093 0.87446 0.9681 0.0
H927 H 0.70249 0.9519 0.04238 0.0
H928 H 0.74247 0.95764 0.96803 0.0
H929 H 0.7663 0.86465 0.99792 0.0
H930 H 0.76961 0.84343 0.91207 0.0
H931 H 0.74032 0.84569 0.96607 0.0
H932 H 0.71759 0.85572 0.82823 0.0
H933 H 0.74667 0.85286 0.77366 0.0
H934 H 0.7286 0.881 0.76441 0.0
H935 H 0.78264 0.95452 0.88845 0.0
H936 H 0.81871 0.94342 0.79972 0.0
H937 H 0.79163 0.86771 0.78214 0.0
C938 C 0.70944 0.89274 0.96643 0.0
C939 C 0.69857 0.91298 0.00846 0.0
C940 C 0.71052 0.93641 0.00866 0.0
C941 C 0.73324 0.93974 0.96737 0.0
C942 C 0.74391 0.91925 0.92805 0.0
C943 C 0.73237 0.89622 0.92695 0.0
C944 C 0.74823 0.87703 0.88299 0.0
C945 C 0.7566 0.85649 0.94337 0.0
C946 C 0.73445 0.86603 0.80783 0.0
C947 C 0.77003 0.89306 0.85683 0.0
C948 C 0.7674 0.91726 0.88466 0.0
C949 C 0.78504 0.93558 0.86701 0.0
C950 C 0.80553 0.92912 0.81749 0.0
C951 C 0.80802 0.90466 0.78659 0.0
C952 C 0.79028 0.88638 0.80722 0.0
H953 H 0.88358 0.18823 0.17731 0.0
H954 H 0.87348 0.223 0.41794 0.0
H955 H 0.87486 0.26445 0.35249 0.0
H956 H 0.92732 0.23212 0.10134 0.0
H957 H 0.91588 0.23188 0.99624 0.0
H958 H 0.91221 0.20475 0.06065 0.0
H959 H 0.86456 0.20542 0.03531 0.0
H960 H 0.86814 0.23242 0.97011 0.0
H961 H 0.84719 0.23336 0.0574 0.0
H962 H 0.87885 0.30234 0.26176 0.0
H963 H 0.88461 0.33376 0.15107 0.0
H964 H 0.89338 0.27442 0.97063 0.0
C965 C 0.88123 0.20457 0.21588 0.0
C966 C 0.87829 0.20239 0.30262 0.0
C967 C 0.87573 0.22422 0.35129 0.0
C968 C 0.87648 0.24787 0.31474 0.0
C969 C 0.87992 0.24945 0.22935 0.0
C970 C 0.88219 0.2284 0.18042 0.0
C971 C 0.88674 0.23534 0.09061 0.0
C972 C 0.91204 0.22544 0.06048 0.0
C973 C 0.86538 0.22609 0.03509 0.0
C974 C 0.88683 0.26349 0.09696 0.0
C975 C 0.88274 0.27128 0.17741 0.0
C976 C 0.88203 0.29647 0.19843 0.0
C977 C 0.88539 0.31418 0.13529 0.0
C978 C 0.88957 0.30658 0.0524 0.0
C979 C 0.89038 0.28087 0.03349 0.0
H980 H 0.1918 0.39021 0.44699 0.0
H981 H 0.22906 0.37993 0.68357 0.0
H982 H 0.26972 0.38126 0.61372 0.0
H983 H 0.23547 0.35316 0.32358 0.0
H984 H 0.23394 0.3738 0.23556 0.0
H985 H 0.20753 0.37077 0.30364 0.0
H986 H 0.20763 0.4185 0.32691 0.0
H987 H 0.23424 0.42163 0.25974 0.0
H988 H 0.2355 0.43345 0.36429 0.0
H989 H 0.30645 0.38546 0.52061 0.0
H990 H 0.33702 0.38986 0.40703 0.0
H991 H 0.27645 0.39771 0.23055 0.0
C992 C 0.20852 0.38786 0.48369 0.0
C993 C 0.20726 0.38498 0.57067 0.0
C994 C 0.22956 0.38226 0.61684 0.0
C995 C 0.25279 0.38299 0.57782 0.0
C996 C 0.25349 0.38648 0.49245 0.0
C997 C 0.23201 0.38868 0.44564 0.0
C998 C 0.23819 0.39281 0.35493 0.0
C999 C 0.22819 0.37135 0.30128 0.0
C1000 C 0.2283 0.4181 0.32473 0.0
C1001 C 0.2664 0.39262 0.35851 0.0
C1002 C 0.27482 0.38899 0.43848 0.0
C1003 C 0.30012 0.38825 0.45755 0.0
C1004 C 0.31734 0.39088 0.39277 0.0
C1005 C 0.30914 0.39419 0.3101 0.0
C1006 C 0.28331 0.39528 0.29318 0.0
H1007 H 0.392 0.76871 0.45656 0.0
H1008 H 0.41317 0.82638 0.63144 0.0
H1009 H 0.41885 0.79438 0.74026 0.0
H1010 H 0.35668 0.73255 0.60169 0.0
H1011 H 0.3657 0.70311 0.55733 0.0
H1012 H 0.36429 0.73046 0.49299 0.0
H1013 H 0.41017 0.72343 0.44898 0.0
H1014 H 0.4118 0.69617 0.51384 0.0
H1015 H 0.43395 0.72104 0.5275 0.0
H1016 H 0.42202 0.75647 0.82893 0.0
H1017 H 0.41923 0.71552 0.89658 0.0
H1018 H 0.39504 0.68237 0.66449 0.0
C1019 C 0.39795 0.77459 0.51768 0.0
C1020 C 0.40234 0.79995 0.53578 0.0
C1021 C 0.40972 0.80702 0.61659 0.0
C1022 C 0.41312 0.78899 0.67847 0.0
C1023 C 0.40884 0.76411 0.65832 0.0
C1024 C 0.40115 0.75692 0.58021 0.0
C1025 C 0.39664 0.72911 0.57579 0.0
C1026 C 0.3692 0.72349 0.55579 0.0
C1027 C 0.41419 0.71671 0.51279 0.0
C1028 C 0.40311 0.72172 0.66374 0.0
C1029 C 0.41025 0.74221 0.70999 0.0
C1030 C 0.41649 0.7403 0.7934 0.0
C1031 C 0.41484 0.71693 0.83116 0.0
C1032 C 0.40694 0.69578 0.78564 0.0
C1033 C 0.40141 0.69816 0.70047 0.0
H1034 H 0.68947 0.61116 0.336 0.0
H1035 H 0.71882 0.64899 0.11947 0.0
H1036 H 0.75979 0.65275 0.18768 0.0
H1037 H 0.72508 0.64487 0.49407 0.0
H1038 H 0.73031 0.61738 0.55576 0.0
H1039 H 0.70265 0.6199 0.49314 0.0
H1040 H 0.71374 0.57828 0.42069 0.0
H1041 H 0.74154 0.57576 0.48247 0.0
H1042 H 0.7436 0.57495 0.37091 0.0
H1043 H 0.79808 0.65023 0.27533 0.0
H1044 H 0.83117 0.64197 0.37845 0.0
H1045 H 0.77728 0.60459 0.53585 0.0
C1046 C 0.70442 0.62071 0.30406 0.0
C1047 C 0.70111 0.63001 0.2231 0.0
C1048 C 0.72114 0.64179 0.18178 0.0
C1049 C 0.74442 0.64405 0.21996 0.0
C1050 C 0.74737 0.63415 0.29908 0.0
C1051 C 0.72797 0.6227 0.34076 0.0
C1052 C 0.73663 0.61208 0.42276 0.0
C1053 C 0.72285 0.6243 0.49574 0.0
C1054 C 0.7337 0.58358 0.42425 0.0
C1055 C 0.7638 0.61954 0.42078 0.0
C1056 C 0.76963 0.63224 0.34893 0.0
C1057 C 0.79375 0.6404 0.33212 0.0
C1058 C 0.81242 0.63553 0.39074 0.0
C1059 C 0.80677 0.62267 0.46495 0.0
C1060 C 0.78214 0.61459 0.47982 0.0
H1061 H 0.62192 0.19569 0.54755 0.0
H1062 H 0.63768 0.22991 0.30943 0.0
H1063 H 0.63827 0.2713 0.37567 0.0
H1064 H 0.58024 0.24138 0.61714 0.0
H1065 H 0.59008 0.24048 0.724 0.0
H1066 H 0.59337 0.21328 0.65981 0.0
H1067 H 0.64055 0.21156 0.69287 0.0
H1068 H 0.63736 0.23864 0.75793 0.0
H1069 H 0.6596 0.23861 0.67421 0.0
H1070 H 0.6347 0.30936 0.46663 0.0
H1071 H 0.62775 0.34089 0.57643 0.0
H1072 H 0.61332 0.28168 0.75325 0.0
C1073 C 0.62601 0.21184 0.50973 0.0
C1074 C 0.62988 0.20958 0.42348 0.0
C1075 C 0.63471 0.23121 0.37574 0.0
C1076 C 0.63511 0.25482 0.41277 0.0
C1077 C 0.63062 0.2565 0.49761 0.0
C1078 C 0.62629 0.23559 0.5456 0.0
C1079 C 0.62073 0.24261 0.6346 0.0
C1080 C 0.59455 0.23392 0.66035 0.0
C1081 C 0.64076 0.23224 0.69336 0.0
C1082 C 0.62216 0.2707 0.62873 0.0
C1083 C 0.62811 0.27839 0.54947 0.0
C1084 C 0.63015 0.30356 0.52909 0.0
C1085 C 0.6261 0.32133 0.59166 0.0
C1086 C 0.61989 0.31377 0.67315 0.0
C1087 C 0.61793 0.2881 0.69145 0.0
loop_
_geom_bond_atom_site_label_1
_geom_bond_atom_site_label_2
_geom_bond_distance
_geom_bond_site_symmetry_2
_ccdc_geom_bond_type
Co0 O1 2.216 . S
Co0 O2 2.091 1_554 S
Co0 O4 2.004 . S
Co0 O10 2.021 . S
Co0 O12 2.137 . S
Co0 O13 2.244 . S
O1 Co0 2.216 . S
O1 C8 1.247 . S
O2 Co0 2.091 1_556 S
O2 C8 1.261 1_556 S
C3 O12 1.247 . S
C3 O13 1.272 . S
O4 Co0 2.004 . S
O4 C9 1.259 . S
Co5 O6 2.061 . S
Co5 O11 2.052 . S
Co5 O13 2.135 . S
O6 Co5 2.061 . S
O6 C9 1.235 . S
C7 O10 1.238 . S
C7 O11 1.241 . S
C8 O1 1.247 . S
C8 O2 1.261 1_554 S
C9 O4 1.259 . S
C9 O6 1.235 . S
O10 Co0 2.021 . S
O10 C7 1.238 . S
O11 Co5 2.052 . S
O11 C7 1.241 . S
O12 Co0 2.137 . S
O12 C3 1.247 . S
O13 Co0 2.244 . S
O13 C3 1.272 . S
O13 Co5 2.135 . S
Co14 O15 2.216 . S
Co14 O16 2.091 1_556 S
Co14 O18 2.004 . S
Co14 O24 2.021 . S
Co14 O26 2.137 . S
Co14 O27 2.244 . S
O15 Co14 2.216 . S
O15 C22 1.247 . S
O16 Co14 2.091 1_554 S
O16 C22 1.261 1_554 S
C17 O26 1.247 . S
C17 O27 1.272 . S
O18 Co14 2.004 . S
O18 C23 1.259 . S
Co19 O20 2.061 . S
Co19 O25 2.052 . S
Co19 O27 2.135 . S
O20 Co19 2.061 . S
O20 C23 1.235 . S
C21 O24 1.238 . S
C21 O25 1.241 . S
C22 O15 1.247 . S
C22 O16 1.261 1_556 S
C23 O18 1.259 . S
C23 O20 1.235 . S
O24 Co14 2.021 . S
O24 C21 1.238 . S
O25 Co19 2.052 . S
O25 C21 1.241 . S
O26 Co14 2.137 . S
O26 C17 1.247 . S
O27 Co14 2.244 . S
O27 C17 1.272 . S
O27 Co19 2.135 . S
Co28 O29 2.216 . S
Co28 O30 2.091 1_554 S
Co28 O32 2.004 . S
Co28 O38 2.021 . S
Co28 O40 2.137 . S
Co28 O41 2.244 . S
O29 Co28 2.216 . S
O29 C36 1.247 . S
O30 Co28 2.091 1_556 S
O30 C36 1.261 1_556 S
C31 O40 1.247 . S
C31 O41 1.272 . S
O32 Co28 2.004 . S
O32 C37 1.259 . S
Co33 O34 2.061 . S
Co33 O39 2.052 . S
Co33 O41 2.135 . S
O34 Co33 2.061 . S
O34 C37 1.235 . S
C35 O38 1.238 . S
C35 O39 1.241 . S
C36 O29 1.247 . S
C36 O30 1.261 1_554 S
C37 O32 1.259 . S
C37 O34 1.235 . S
O38 Co28 2.021 . S
O38 C35 1.238 . S
O39 Co33 2.052 . S
O39 C35 1.241 . S
O40 Co28 2.137 . S
O40 C31 1.247 . S
O41 Co28 2.244 . S
O41 C31 1.272 . S
O41 Co33 2.135 . S
Co42 O43 2.216 . S
Co42 O44 2.091 1_556 S
Co42 O46 2.004 . S
Co42 O52 2.021 . S
Co42 O54 2.137 . S
Co42 O55 2.244 . S
O43 Co42 2.216 . S
O43 C50 1.247 . S
O44 Co42 2.091 1_554 S
O44 C50 1.261 1_554 S
C45 O54 1.247 . S
C45 O55 1.272 . S
O46 Co42 2.004 . S
O46 C51 1.259 . S
Co47 O48 2.061 . S
Co47 O53 2.052 . S
Co47 O55 2.135 . S
O48 Co47 2.061 . S
O48 C51 1.235 . S
C49 O52 1.238 . S
C49 O53 1.241 . S
C50 O43 1.247 . S
C50 O44 1.261 1_556 S
C51 O46 1.259 . S
C51 O48 1.235 . S
O52 Co42 2.021 . S
O52 C49 1.238 . S
O53 Co47 2.052 . S
O53 C49 1.241 . S
O54 Co42 2.137 . S
O54 C45 1.247 . S
O55 Co42 2.244 . S
O55 C45 1.272 . S
O55 Co47 2.135 . S
Co56 O57 2.216 . S
Co56 O58 2.091 . S
Co56 O60 2.004 . S
Co56 O66 2.021 . S
Co56 O68 2.137 . S
Co56 O69 2.244 1_554 S
O57 Co56 2.216 . S
O57 C64 1.247 . S
O58 Co56 2.091 . S
O58 C64 1.261 . S
C59 O68 1.247 . S
C59 O69 1.272 1_554 S
O60 Co56 2.004 . S
O60 C65 1.259 . S
Co61 O62 2.061 1_556 S
Co61 O67 2.052 . S
Co61 O69 2.135 . S
O62 Co61 2.061 1_554 S
O62 C65 1.235 . S
C63 O66 1.238 . S
C63 O67 1.241 1_554 S
C64 O57 1.247 . S
C64 O58 1.261 . S
C65 O60 1.259 . S
C65 O62 1.235 . S
O66 Co56 2.021 . S
O66 C63 1.238 . S
O67 Co61 2.052 . S
O67 C63 1.241 1_556 S
O68 Co56 2.137 . S
O68 C59 1.247 . S
O69 Co56 2.244 1_556 S
O69 C59 1.272 1_556 S
O69 Co61 2.135 . S
Co70 O71 2.216 . S
Co70 O72 2.091 . S
Co70 O74 2.004 . S
Co70 O80 2.021 . S
Co70 O82 2.137 . S
Co70 O83 2.244 1_556 S
O71 Co70 2.216 . S
O71 C78 1.247 . S
O72 Co70 2.091 . S
O72 C78 1.261 . S
C73 O82 1.247 . S
C73 O83 1.272 1_556 S
O74 Co70 2.004 . S
O74 C79 1.259 . S
Co75 O76 2.061 1_554 S
Co75 O81 2.052 . S
Co75 O83 2.135 . S
O76 Co75 2.061 1_556 S
O76 C79 1.235 . S
C77 O80 1.238 . S
C77 O81 1.241 1_556 S
C78 O71 1.247 . S
C78 O72 1.261 . S
C79 O74 1.259 . S
C79 O76 1.235 . S
O80 Co70 2.021 . S
O80 C77 1.238 . S
O81 Co75 2.052 . S
O81 C77 1.241 1_554 S
O82 Co70 2.137 . S
O82 C73 1.247 . S
O83 Co70 2.244 1_554 S
O83 C73 1.272 1_554 S
O83 Co75 2.135 . S
Co84 O85 2.216 . S
Co84 O86 2.091 . S
Co84 O88 2.004 . S
Co84 O94 2.021 . S
Co84 O96 2.137 . S
Co84 O97 2.244 1_554 S
O85 Co84 2.216 . S
O85 C92 1.247 . S
O86 Co84 2.091 . S
O86 C92 1.261 . S
C87 O96 1.247 . S
C87 O97 1.272 1_554 S
O88 Co84 2.004 . S
O88 C93 1.259 . S
Co89 O90 2.061 1_556 S
Co89 O95 2.052 . S
Co89 O97 2.135 . S
O90 Co89 2.061 1_554 S
O90 C93 1.235 . S
C91 O94 1.238 . S
C91 O95 1.241 1_554 S
C92 O85 1.247 . S
C92 O86 1.261 . S
C93 O88 1.259 . S
C93 O90 1.235 . S
O94 Co84 2.021 . S
O94 C91 1.238 . S
O95 Co89 2.052 . S
O95 C91 1.241 1_556 S
O96 Co84 2.137 . S
O96 C87 1.247 . S
O97 Co84 2.244 1_556 S
O97 C87 1.272 1_556 S
O97 Co89 2.135 . S
Co98 O99 2.216 . S
Co98 O100 2.091 . S
Co98 O102 2.004 . S
Co98 O108 2.021 . S
Co98 O110 2.137 . S
Co98 O111 2.244 1_556 S
O99 Co98 2.216 . S
O99 C106 1.247 . S
O100 Co98 2.091 . S
O100 C106 1.261 . S
C101 O110 1.247 . S
C101 O111 1.272 1_556 S
O102 Co98 2.004 . S
O102 C107 1.259 . S
Co103 O104 2.061 1_554 S
Co103 O109 2.052 . S
Co103 O111 2.135 . S
O104 Co103 2.061 1_556 S
O104 C107 1.235 . S
C105 O108 1.238 . S
C105 O109 1.241 1_556 S
C106 O99 1.247 . S
C106 O100 1.261 . S
C107 O102 1.259 . S
C107 O104 1.235 . S
O108 Co98 2.021 . S
O108 C105 1.238 . S
O109 Co103 2.052 . S
O109 C105 1.241 1_554 S
O110 Co98 2.137 . S
O110 C101 1.247 . S
O111 Co98 2.244 1_554 S
O111 C101 1.272 1_554 S
O111 Co103 2.135 . S
Co112 O113 2.216 . S
Co112 O114 2.091 . S
Co112 O116 2.004 . S
Co112 O122 2.021 . S
Co112 O124 2.137 . S
Co112 O125 2.244 . S
O113 Co112 2.216 . S
O113 C120 1.247 . S
O114 Co112 2.091 . S
O114 C120 1.261 . S
C115 O124 1.247 . S
C115 O125 1.272 . S
O116 Co112 2.004 . S
O116 C121 1.259 . S
Co117 O118 2.061 . S
Co117 O123 2.052 . S
Co117 O125 2.135 . S
O118 Co117 2.061 . S
O118 C121 1.235 . S
C119 O122 1.238 . S
C119 O123 1.241 . S
C120 O113 1.247 . S
C120 O114 1.261 . S
C121 O116 1.259 . S
C121 O118 1.235 . S
O122 Co112 2.021 . S
O122 C119 1.238 . S
O123 Co117 2.052 . S
O123 C119 1.241 . S
O124 Co112 2.137 . S
O124 C115 1.247 . S
O125 Co112 2.244 . S
O125 C115 1.272 . S
O125 Co117 2.135 . S
Co126 O127 2.216 . S
Co126 O128 2.091 . S
Co126 O130 2.004 . S
Co126 O136 2.021 . S
Co126 O138 2.137 . S
Co126 O139 2.244 . S
O127 Co126 2.216 . S
O127 C134 1.247 . S
O128 Co126 2.091 . S
O128 C134 1.261 . S
C129 O138 1.247 . S
C129 O139 1.272 . S
O130 Co126 2.004 . S
O130 C135 1.259 . S
Co131 O132 2.061 . S
Co131 O137 2.052 . S
Co131 O139 2.135 . S
O132 Co131 2.061 . S
O132 C135 1.235 . S
C133 O136 1.238 . S
C133 O137 1.241 . S
C134 O127 1.247 . S
C134 O128 1.261 . S
C135 O130 1.259 . S
C135 O132 1.235 . S
O136 Co126 2.021 . S
O136 C133 1.238 . S
O137 Co131 2.052 . S
O137 C133 1.241 . S
O138 Co126 2.137 . S
O138 C129 1.247 . S
O139 Co126 2.244 . S
O139 C129 1.272 . S
O139 Co131 2.135 . S
Co140 O141 2.216 . S
Co140 O142 2.091 . S
Co140 O144 2.004 . S
Co140 O150 2.021 . S
Co140 O152 2.137 . S
Co140 O153 2.244 . S
O141 Co140 2.216 . S
O141 C148 1.247 . S
O142 Co140 2.091 . S
O142 C148 1.261 . S
C143 O152 1.247 . S
C143 O153 1.272 . S
O144 Co140 2.004 . S
O144 C149 1.259 . S
Co145 O146 2.061 . S
Co145 O151 2.052 . S
Co145 O153 2.135 . S
O146 Co145 2.061 . S
O146 C149 1.235 . S
C147 O150 1.238 . S
C147 O151 1.241 . S
C148 O141 1.247 . S
C148 O142 1.261 . S
C149 O144 1.259 . S
C149 O146 1.235 . S
O150 Co140 2.021 . S
O150 C147 1.238 . S
O151 Co145 2.052 . S
O151 C147 1.241 . S
O152 Co140 2.137 . S
O152 C143 1.247 . S
O153 Co140 2.244 . S
O153 C143 1.272 . S
O153 Co145 2.135 . S
Co154 O155 2.216 . S
Co154 O156 2.091 . S
Co154 O158 2.004 . S
Co154 O164 2.021 . S
Co154 O166 2.137 . S
Co154 O167 2.244 . S
O155 Co154 2.216 . S
O155 C162 1.247 . S
O156 Co154 2.091 . S
O156 C162 1.261 . S
C157 O166 1.247 . S
C157 O167 1.272 . S
O158 Co154 2.004 . S
O158 C163 1.259 . S
Co159 O160 2.061 . S
Co159 O165 2.052 . S
Co159 O167 2.135 . S
O160 Co159 2.061 . S
O160 C163 1.235 . S
C161 O164 1.238 . S
C161 O165 1.241 . S
C162 O155 1.247 . S
C162 O156 1.261 . S
C163 O158 1.259 . S
C163 O160 1.235 . S
O164 Co154 2.021 . S
O164 C161 1.238 . S
O165 Co159 2.052 . S
O165 C161 1.241 . S
O166 Co154 2.137 . S
O166 C157 1.247 . S
O167 Co154 2.244 . S
O167 C157 1.272 . S
O167 Co159 2.135 . S
Co168 O169 2.216 . S
Co168 O170 2.091 . S
Co168 O172 2.004 . S
Co168 O178 2.021 . S
Co168 O180 2.137 . S
Co168 O181 2.244 . S
O169 Co168 2.216 . S
O169 C176 1.247 . S
O170 Co168 2.091 . S
O170 C176 1.261 . S
C171 O180 1.247 . S
C171 O181 1.272 . S
O172 Co168 2.004 . S
O172 C177 1.259 . S
Co173 O174 2.061 . S
Co173 O179 2.052 . S
Co173 O181 2.135 . S
O174 Co173 2.061 . S
O174 C177 1.235 . S
C175 O178 1.238 . S
C175 O179 1.241 . S
C176 O169 1.247 . S
C176 O170 1.261 . S
C177 O172 1.259 . S
C177 O174 1.235 . S
O178 Co168 2.021 . S
O178 C175 1.238 . S
O179 Co173 2.052 . S
O179 C175 1.241 . S
O180 Co168 2.137 . S
O180 C171 1.247 . S
O181 Co168 2.244 . S
O181 C171 1.272 . S
O181 Co173 2.135 . S
Co182 O183 2.216 . S
Co182 O184 2.091 . S
Co182 O186 2.004 . S
Co182 O192 2.021 . S
Co182 O194 2.137 . S
Co182 O195 2.244 . S
O183 Co182 2.216 . S
O183 C190 1.247 . S
O184 Co182 2.091 . S
O184 C190 1.261 . S
C185 O194 1.247 . S
C185 O195 1.272 . S
O186 Co182 2.004 . S
O186 C191 1.259 . S
Co187 O188 2.061 . S
Co187 O193 2.052 . S
Co187 O195 2.135 . S
O188 Co187 2.061 . S
O188 C191 1.235 . S
C189 O192 1.238 . S
C189 O193 1.241 . S
C190 O183 1.247 . S
C190 O184 1.261 . S
C191 O186 1.259 . S
C191 O188 1.235 . S
O192 Co182 2.021 . S
O192 C189 1.238 . S
O193 Co187 2.052 . S
O193 C189 1.241 . S
O194 Co182 2.137 . S
O194 C185 1.247 . S
O195 Co182 2.244 . S
O195 C185 1.272 . S
O195 Co187 2.135 . S
Co196 O197 2.216 . S
Co196 O198 2.091 . S
Co196 O200 2.004 . S
Co196 O206 2.021 . S
Co196 O208 2.137 . S
Co196 O209 2.244 . S
O197 Co196 2.216 . S
O197 C204 1.247 . S
O198 Co196 2.091 . S
O198 C204 1.261 . S
C199 O208 1.247 . S
C199 O209 1.272 . S
O200 Co196 2.004 . S
O200 C205 1.259 . S
Co201 O202 2.061 . S
Co201 O207 2.052 . S
Co201 O209 2.135 . S
O202 Co201 2.061 . S
O202 C205 1.235 . S
C203 O206 1.238 . S
C203 O207 1.241 . S
C204 O197 1.247 . S
C204 O198 1.261 . S
C205 O200 1.259 . S
C205 O202 1.235 . S
O206 Co196 2.021 . S
O206 C203 1.238 . S
O207 Co201 2.052 . S
O207 C203 1.241 . S
O208 Co196 2.137 . S
O208 C199 1.247 . S
O209 Co196 2.244 . S
O209 C199 1.272 . S
O209 Co201 2.135 . S
Co210 O211 2.216 . S
Co210 O212 2.091 . S
Co210 O214 2.004 . S
Co210 O220 2.021 . S
Co210 O222 2.137 . S
Co210 O223 2.244 . S
O211 Co210 2.216 . S
O211 C218 1.247 . S
O212 Co210 2.091 . S
O212 C218 1.261 . S
C213 O222 1.247 . S
C213 O223 1.272 . S
O214 Co210 2.004 . S
O214 C219 1.259 . S
Co215 O216 2.061 . S
Co215 O221 2.052 . S
Co215 O223 2.135 . S
O216 Co215 2.061 . S
O216 C219 1.235 . S
C217 O220 1.238 . S
C217 O221 1.241 . S
C218 O211 1.247 . S
C218 O212 1.261 . S
C219 O214 1.259 . S
C219 O216 1.235 . S
O220 Co210 2.021 . S
O220 C217 1.238 . S
O221 Co215 2.052 . S
O221 C217 1.241 . S
O222 Co210 2.137 . S
O222 C213 1.247 . S
O223 Co210 2.244 . S
O223 C213 1.272 . S
O223 Co215 2.135 . S
H224 C236 0.930 . S
H225 C238 0.930 . S
H226 C239 0.930 . S
H227 C243 0.959 1_545 S
H228 C243 0.959 1_545 S
H229 C243 0.961 . S
H230 C244 0.960 . S
H231 C244 0.961 1_545 S
H232 C244 0.959 . S
H233 C247 0.929 . S
H234 C248 0.931 . S
H235 C250 0.930 . S
C236 H224 0.930 . S
C236 C237 1.399 . S
C236 C241 1.399 . S
C237 C236 1.399 . S
C237 C238 1.376 . S
C238 H225 0.930 . S
C238 C237 1.376 . S
C238 C239 1.388 . S
C239 H226 0.930 . S
C239 C238 1.388 . S
C239 C240 1.390 . S
C240 C239 1.390 . S
C240 C241 1.394 . S
C240 C246 1.465 1_565 S
C241 C236 1.399 . S
C241 C240 1.394 . S
C241 C242 1.516 . S
C242 C241 1.516 . S
C242 C243 1.502 . S
C242 C244 1.561 . S
C242 C245 1.526 1_565 S
C243 H227 0.959 1_565 S
C243 H228 0.959 1_565 S
C243 H229 0.961 . S
C243 C242 1.502 . S
C244 H230 0.960 . S
C244 H231 0.961 1_565 S
C244 H232 0.959 . S
C244 C242 1.561 . S
C245 C242 1.526 1_545 S
C245 C246 1.396 . S
C245 C250 1.390 . S
C246 C240 1.465 1_545 S
C246 C245 1.396 . S
C246 C247 1.399 . S
C247 H233 0.929 . S
C247 C246 1.399 . S
C247 C248 1.385 . S
C248 H234 0.931 . S
C248 C247 1.385 . S
C248 C249 1.389 . S
C249 C248 1.389 . S
C249 C250 1.387 . S
C250 H235 0.930 . S
C250 C245 1.390 . S
C250 C249 1.387 . S
H251 C263 0.930 . S
H252 C265 0.930 . S
H253 C266 0.930 . S
H254 C270 0.947 1_655 S
H255 C270 0.931 1_655 S
H256 C270 0.999 . S
H257 C271 0.960 . S
H258 C271 0.961 1_655 S
H259 C271 0.959 . S
H260 C274 0.929 . S
H261 C275 0.931 . S
H262 C277 0.930 . S
C263 H251 0.930 . S
C263 C264 1.399 . S
C263 C268 1.399 . S
C264 C263 1.399 . S
C264 C265 1.376 . S
C265 H252 0.930 . S
C265 C264 1.376 . S
C265 C266 1.388 . S
C266 H253 0.930 . S
C266 C265 1.388 . S
C266 C267 1.390 . S
C267 C266 1.390 . S
C267 C268 1.394 . S
C267 C273 1.465 1_455 S
C268 C263 1.399 . S
C268 C267 1.394 . S
C268 C269 1.516 . S
C269 C268 1.516 . S
C269 C270 1.507 . S
C269 C271 1.561 . S
C269 C272 1.526 1_455 S
C270 H254 0.947 1_455 S
C270 H255 0.931 1_455 S
C270 H256 0.999 . S
C270 C269 1.507 . S
C271 H257 0.960 . S
C271 H258 0.961 1_455 S
C271 H259 0.959 . S
C271 C269 1.561 . S
C272 C269 1.526 1_655 S
C272 C273 1.396 . S
C272 C277 1.390 . S
C273 C267 1.465 1_655 S
C273 C272 1.396 . S
C273 C274 1.399 . S
C274 H260 0.929 . S
C274 C273 1.399 . S
C274 C275 1.385 . S
C275 H261 0.931 . S
C275 C274 1.385 . S
C275 C276 1.389 . S
C276 C275 1.389 . S
C276 C277 1.387 . S
C277 H262 0.930 . S
C277 C272 1.390 . S
C277 C276 1.387 . S
H278 C290 0.930 . S
H279 C292 0.930 . S
H280 C293 0.930 . S
H281 C297 0.959 . S
H282 C297 0.959 . S
H283 C297 0.961 . S
H284 C298 0.960 . S
H285 C298 0.961 1_545 S
H286 C298 0.959 . S
H287 C301 0.929 . S
H288 C302 0.931 . S
H289 C304 0.930 . S
C290 H278 0.930 . S
C290 C291 1.399 . S
C290 C295 1.399 . S
C291 C290 1.399 . S
C291 C292 1.376 . S
C292 H279 0.930 . S
C292 C291 1.376 . S
C292 C293 1.388 . S
C293 H280 0.930 . S
C293 C292 1.388 . S
C293 C294 1.390 . S
C294 C293 1.390 . S
C294 C295 1.394 . S
C294 C300 1.465 1_565 S
C295 C290 1.399 . S
C295 C294 1.394 . S
C295 C296 1.516 . S
C296 C295 1.516 . S
C296 C297 1.502 . S
C296 C298 1.561 . S
C296 C299 1.526 1_565 S
C297 H281 0.959 . S
C297 H282 0.959 . S
C297 H283 0.961 . S
C297 C296 1.502 . S
C298 H284 0.960 . S
C298 H285 0.961 1_565 S
C298 H286 0.959 . S
C298 C296 1.561 . S
C299 C296 1.526 1_545 S
C299 C300 1.396 . S
C299 C304 1.390 . S
C300 C294 1.465 1_545 S
C300 C299 1.396 . S
C300 C301 1.399 . S
C301 H287 0.929 . S
C301 C300 1.399 . S
C301 C302 1.385 . S
C302 H288 0.931 . S
C302 C301 1.385 . S
C302 C303 1.389 . S
C303 C302 1.389 . S
C303 C304 1.387 . S
C304 H289 0.930 . S
C304 C299 1.390 . S
C304 C303 1.387 . S
H305 C317 0.930 . S
H306 C319 0.930 . S
H307 C320 0.930 . S
H308 C324 0.959 . S
H309 C324 0.959 1_655 S
H310 C324 0.961 . S
H311 C325 0.960 1_455 S
H312 C325 0.961 . S
H313 C325 0.959 . S
H314 C328 0.929 . S
H315 C329 0.931 . S
H316 C331 0.930 . S
C317 H305 0.930 . S
C317 C318 1.399 . S
C317 C322 1.399 . S
C318 C317 1.399 . S
C318 C319 1.376 . S
C319 H306 0.930 . S
C319 C318 1.376 . S
C319 C320 1.388 . S
C320 H307 0.930 . S
C320 C319 1.388 . S
C320 C321 1.390 . S
C321 C320 1.390 . S
C321 C322 1.394 . S
C321 C327 1.465 1_455 S
C322 C317 1.399 . S
C322 C321 1.394 . S
C322 C323 1.519 . S
C323 C322 1.519 . S
C323 C324 1.502 . S
C323 C325 1.561 1_455 S
C323 C326 1.523 1_455 S
C324 H308 0.959 . S
C324 H309 0.959 1_455 S
C324 H310 0.961 . S
C324 C323 1.502 . S
C325 H311 0.960 1_655 S
C325 H312 0.961 . S
C325 H313 0.959 . S
C325 C323 1.561 1_655 S
C326 C323 1.523 1_655 S
C326 C327 1.396 . S
C326 C331 1.390 . S
C327 C321 1.465 1_655 S
C327 C326 1.396 . S
C327 C328 1.399 . S
C328 H314 0.929 . S
C328 C327 1.399 . S
C328 C329 1.385 . S
C329 H315 0.931 . S
C329 C328 1.385 . S
C329 C330 1.389 . S
C330 C329 1.389 . S
C330 C331 1.387 . S
C331 H316 0.930 . S
C331 C326 1.390 . S
C331 C330 1.387 . S
H332 C344 0.930 . S
H333 C346 0.930 . S
H334 C347 0.930 . S
H335 C351 0.959 . S
H336 C351 0.959 . S
H337 C351 0.961 . S
H338 C352 0.960 . S
H339 C352 0.961 . S
H340 C352 0.959 . S
H341 C355 0.929 . S
H342 C356 0.933 . S
H343 C358 0.930 . S
C344 H332 0.930 . S
C344 C345 1.399 . S
C344 C349 1.399 . S
C345 C344 1.399 . S
C345 C346 1.376 1_556 S
C346 H333 0.930 . S
C346 C345 1.376 1_554 S
C346 C347 1.388 . S
C347 H334 0.930 . S
C347 C346 1.388 . S
C347 C348 1.390 1_554 S
C348 C347 1.390 1_556 S
C348 C349 1.394 . S
C348 C354 1.465 . S
C349 C344 1.399 . S
C349 C348 1.394 . S
C349 C350 1.516 . S
C350 C349 1.516 . S
C350 C351 1.502 . S
C350 C352 1.561 . S
C350 C353 1.526 . S
C351 H335 0.959 . S
C351 H336 0.959 . S
C351 H337 0.961 . S
C351 C350 1.502 . S
C352 H338 0.960 . S
C352 H339 0.961 . S
C352 H340 0.959 . S
C352 C350 1.561 . S
C353 C350 1.526 . S
C353 C354 1.396 . S
C353 C358 1.390 . S
C354 C348 1.465 . S
C354 C353 1.396 . S
C354 C355 1.399 1_556 S
C355 H341 0.929 . S
C355 C354 1.399 1_554 S
C355 C356 1.386 . S
C356 H342 0.933 . S
C356 C355 1.386 . S
C356 C357 1.386 1_554 S
C357 C356 1.386 1_556 S
C357 C358 1.387 . S
C358 H343 0.930 . S
C358 C353 1.390 . S
C358 C357 1.387 . S
H359 C371 0.930 . S
H360 C373 0.930 1_556 S
H361 C374 0.930 . S
H362 C378 0.959 1_556 S
H363 C378 0.959 . S
H364 C378 0.961 . S
H365 C379 0.960 . S
H366 C379 0.961 . S
H367 C379 0.959 . S
H368 C382 0.929 . S
H369 C383 0.931 . S
H370 C385 0.930 . S
C371 H359 0.930 . S
C371 C372 1.399 . S
C371 C376 1.399 . S
C372 C371 1.399 . S
C372 C373 1.376 . S
C373 H360 0.930 1_554 S
C373 C372 1.376 . S
C373 C374 1.388 . S
C374 H361 0.930 . S
C374 C373 1.388 . S
C374 C375 1.390 . S
C375 C374 1.390 . S
C375 C376 1.394 . S
C375 C381 1.465 . S
C376 C371 1.399 . S
C376 C375 1.394 . S
C376 C377 1.516 . S
C377 C376 1.516 . S
C377 C378 1.502 . S
C377 C379 1.561 . S
C377 C380 1.526 . S
C378 H362 0.959 1_554 S
C378 H363 0.959 . S
C378 H364 0.961 . S
C378 C377 1.502 . S
C379 H365 0.960 . S
C379 H366 0.961 . S
C379 H367 0.959 . S
C379 C377 1.561 . S
C380 C377 1.526 . S
C380 C381 1.396 . S
C380 C385 1.390 . S
C381 C375 1.465 . S
C381 C380 1.396 . S
C381 C382 1.399 . S
C382 H368 0.929 . S
C382 C381 1.399 . S
C382 C383 1.385 . S
C383 H369 0.931 . S
C383 C382 1.385 . S
C383 C384 1.389 . S
C384 C383 1.389 . S
C384 C385 1.387 . S
C385 H370 0.930 . S
C385 C380 1.390 . S
C385 C384 1.387 . S
H386 C398 0.930 1_554 S
H387 C400 0.930 . S
H388 C401 0.930 . S
H389 C405 0.959 . S
H390 C405 0.959 . S
H391 C405 0.961 . S
H392 C406 0.960 . S
H393 C406 0.961 . S
H394 C406 0.959 . S
H395 C409 0.929 . S
H396 C410 0.931 . S
H397 C412 0.930 . S
C398 H386 0.930 1_556 S
C398 C399 1.399 . S
C398 C403 1.399 . S
C399 C398 1.399 . S
C399 C400 1.376 . S
C400 H387 0.930 . S
C400 C399 1.376 . S
C400 C401 1.388 . S
C401 H388 0.930 . S
C401 C400 1.388 . S
C401 C402 1.390 . S
C402 C401 1.390 . S
C402 C403 1.394 . S
C402 C408 1.465 . S
C403 C398 1.399 . S
C403 C402 1.394 . S
C403 C404 1.516 1_556 S
C404 C403 1.516 1_554 S
C404 C405 1.502 . S
C404 C406 1.561 . S
C404 C407 1.526 . S
C405 H389 0.959 . S
C405 H390 0.959 . S
C405 H391 0.961 . S
C405 C404 1.502 . S
C406 H392 0.960 . S
C406 H393 0.961 . S
C406 H394 0.959 . S
C406 C404 1.561 . S
C407 C404 1.526 . S
C407 C408 1.396 1_554 S
C407 C412 1.390 . S
C408 C402 1.465 . S
C408 C407 1.396 1_556 S
C408 C409 1.399 . S
C409 H395 0.929 . S
C409 C408 1.399 . S
C409 C410 1.385 . S
C410 H396 0.931 . S
C410 C409 1.385 . S
C410 C411 1.389 . S
C411 C410 1.389 . S
C411 C412 1.387 1_556 S
C412 H397 0.930 . S
C412 C407 1.390 . S
C412 C411 1.387 1_554 S
H413 C425 0.930 . S
H414 C427 0.930 1_556 S
H415 C428 0.930 . S
H416 C432 0.959 . S
H417 C432 0.959 . S
H418 C432 0.961 . S
H419 C433 0.960 . S
H420 C433 0.961 . S
H421 C433 0.959 . S
H422 C436 0.929 . S
H423 C437 0.931 . S
H424 C439 0.930 . S
C425 H413 0.930 . S
C425 C426 1.399 . S
C425 C430 1.399 . S
C426 C425 1.399 . S
C426 C427 1.376 . S
C427 H414 0.930 1_554 S
C427 C426 1.376 . S
C427 C428 1.388 1_554 S
C428 H415 0.930 . S
C428 C427 1.388 1_556 S
C428 C429 1.390 1_556 S
C429 C428 1.390 1_554 S
C429 C430 1.394 . S
C429 C435 1.465 1_554 S
C430 C425 1.399 . S
C430 C429 1.394 . S
C430 C431 1.516 . S
C431 C430 1.516 . S
C431 C432 1.502 . S
C431 C433 1.561 . S
C431 C434 1.526 . S
C432 H416 0.959 . S
C432 H417 0.959 . S
C432 H418 0.961 . S
C432 C431 1.502 . S
C433 H419 0.960 . S
C433 H420 0.961 . S
C433 H421 0.959 . S
C433 C431 1.561 . S
C434 C431 1.526 . S
C434 C435 1.395 1_554 S
C434 C439 1.390 . S
C435 C429 1.465 1_556 S
C435 C434 1.395 1_556 S
C435 C436 1.400 . S
C436 H422 0.929 . S
C436 C435 1.400 . S
C436 C437 1.385 . S
C437 H423 0.931 . S
C437 C436 1.385 . S
C437 C438 1.385 1_556 S
C438 C437 1.385 1_554 S
C438 C439 1.391 . S
C439 H424 0.930 . S
C439 C434 1.390 . S
C439 C438 1.391 . S
H440 C452 0.930 . S
H441 C454 0.930 . S
H442 C455 0.930 . S
H443 C459 0.959 . S
H444 C459 0.959 . S
H445 C459 0.961 . S
H446 C460 0.960 1_554 S
H447 C460 0.961 . S
H448 C460 0.959 . S
H449 C463 0.929 . S
H450 C464 0.931 . S
H451 C466 0.930 . S
C452 H440 0.930 . S
C452 C453 1.399 . S
C452 C457 1.399 . S
C453 C452 1.399 . S
C453 C454 1.376 . S
C454 H441 0.930 . S
C454 C453 1.376 . S
C454 C455 1.388 . S
C455 H442 0.930 . S
C455 C454 1.388 . S
C455 C456 1.390 . S
C456 C455 1.390 . S
C456 C457 1.394 . S
C456 C462 1.465 . S
C457 C452 1.399 . S
C457 C456 1.394 . S
C457 C458 1.516 . S
C458 C457 1.516 . S
C458 C459 1.502 . S
C458 C460 1.561 . S
C458 C461 1.526 . S
C459 H443 0.959 . S
C459 H444 0.959 . S
C459 H445 0.961 . S
C459 C458 1.502 . S
C460 H446 0.960 1_556 S
C460 H447 0.961 . S
C460 H448 0.959 . S
C460 C458 1.561 . S
C461 C458 1.526 . S
C461 C462 1.396 . S
C461 C466 1.390 . S
C462 C456 1.465 . S
C462 C461 1.396 . S
C462 C463 1.399 . S
C463 H449 0.929 . S
C463 C462 1.399 . S
C463 C464 1.385 . S
C464 H450 0.931 . S
C464 C463 1.385 . S
C464 C465 1.389 . S
C465 C464 1.389 . S
C465 C466 1.387 . S
C466 H451 0.930 . S
C466 C461 1.390 . S
C466 C465 1.387 . S
H467 C479 0.930 . S
H468 C481 0.930 . S
H469 C482 0.930 . S
H470 C486 0.959 . S
H471 C486 0.959 . S
H472 C486 0.961 . S
H473 C487 0.960 . S
H474 C487 0.961 . S
H475 C487 0.959 . S
H476 C490 0.929 . S
H477 C491 0.931 . S
H478 C493 0.930 . S
C479 H467 0.930 . S
C479 C480 1.399 . S
C479 C484 1.399 . S
C480 C479 1.399 . S
C480 C481 1.376 . S
C481 H468 0.930 . S
C481 C480 1.376 . S
C481 C482 1.388 . S
C482 H469 0.930 . S
C482 C481 1.388 . S
C482 C483 1.390 . S
C483 C482 1.390 . S
C483 C484 1.394 . S
C483 C489 1.465 . S
C484 C479 1.399 . S
C484 C483 1.394 . S
C484 C485 1.516 . S
C485 C484 1.516 . S
C485 C486 1.502 . S
C485 C487 1.561 . S
C485 C488 1.526 . S
C486 H470 0.959 . S
C486 H471 0.959 . S
C486 H472 0.961 . S
C486 C485 1.502 . S
C487 H473 0.960 . S
C487 H474 0.961 . S
C487 H475 0.959 . S
C487 C485 1.561 . S
C488 C485 1.526 . S
C488 C489 1.396 . S
C488 C493 1.390 . S
C489 C483 1.465 . S
C489 C488 1.396 . S
C489 C490 1.399 . S
C490 H476 0.929 . S
C490 C489 1.399 . S
C490 C491 1.385 . S
C491 H477 0.931 . S
C491 C490 1.385 . S
C491 C492 1.389 . S
C492 C491 1.389 . S
C492 C493 1.387 . S
C493 H478 0.930 . S
C493 C488 1.390 . S
C493 C492 1.387 . S
H494 C506 0.930 . S
H495 C508 0.930 . S
H496 C509 0.930 . S
H497 C513 0.959 . S
H498 C513 0.959 . S
H499 C513 0.961 . S
H500 C514 0.960 . S
H501 C514 0.961 . S
H502 C514 0.959 . S
H503 C517 0.929 . S
H504 C518 0.931 . S
H505 C520 0.930 . S
C506 H494 0.930 . S
C506 C507 1.399 . S
C506 C511 1.399 . S
C507 C506 1.399 . S
C507 C508 1.376 . S
C508 H495 0.930 . S
C508 C507 1.376 . S
C508 C509 1.388 . S
C509 H496 0.930 . S
C509 C508 1.388 . S
C509 C510 1.390 . S
C510 C509 1.390 . S
C510 C511 1.394 . S
C510 C516 1.465 . S
C511 C506 1.399 . S
C511 C510 1.394 . S
C511 C512 1.516 . S
C512 C511 1.516 . S
C512 C513 1.502 . S
C512 C514 1.561 . S
C512 C515 1.526 . S
C513 H497 0.959 . S
C513 H498 0.959 . S
C513 H499 0.961 . S
C513 C512 1.502 . S
C514 H500 0.960 . S
C514 H501 0.961 . S
C514 H502 0.959 . S
C514 C512 1.561 . S
C515 C512 1.526 . S
C515 C516 1.396 . S
C515 C520 1.390 . S
C516 C510 1.465 . S
C516 C515 1.396 . S
C516 C517 1.399 . S
C517 H503 0.929 . S
C517 C516 1.399 . S
C517 C518 1.385 . S
C518 H504 0.931 . S
C518 C517 1.385 . S
C518 C519 1.389 . S
C519 C518 1.389 . S
C519 C520 1.387 . S
C520 H505 0.930 . S
C520 C515 1.390 . S
C520 C519 1.387 . S
H521 C533 0.930 . S
H522 C535 0.930 . S
H523 C536 0.930 . S
H524 C540 0.959 . S
H525 C540 0.959 . S
H526 C540 0.961 . S
H527 C541 0.960 . S
H528 C541 0.961 . S
H529 C541 0.959 . S
H530 C544 0.929 . S
H531 C545 0.931 . S
H532 C547 0.930 . S
C533 H521 0.930 . S
C533 C534 1.399 . S
C533 C538 1.399 . S
C534 C533 1.399 . S
C534 C535 1.376 . S
C535 H522 0.930 . S
C535 C534 1.376 . S
C535 C536 1.388 . S
C536 H523 0.930 . S
C536 C535 1.388 . S
C536 C537 1.390 . S
C537 C536 1.390 . S
C537 C538 1.394 . S
C537 C543 1.465 . S
C538 C533 1.399 . S
C538 C537 1.394 . S
C538 C539 1.516 . S
C539 C538 1.516 . S
C539 C540 1.502 . S
C539 C541 1.561 . S
C539 C542 1.526 . S
C540 H524 0.959 . S
C540 H525 0.959 . S
C540 H526 0.961 . S
C540 C539 1.502 . S
C541 H527 0.960 . S
C541 H528 0.961 . S
C541 H529 0.959 . S
C541 C539 1.561 . S
C542 C539 1.526 . S
C542 C543 1.396 . S
C542 C547 1.390 . S
C543 C537 1.465 . S
C543 C542 1.396 . S
C543 C544 1.399 . S
C544 H530 0.929 . S
C544 C543 1.399 . S
C544 C545 1.385 . S
C545 H531 0.931 . S
C545 C544 1.385 . S
C545 C546 1.389 . S
C546 C545 1.389 . S
C546 C547 1.387 . S
C547 H532 0.930 . S
C547 C542 1.390 . S
C547 C546 1.387 . S
H548 C560 0.930 . S
H549 C562 0.930 . S
H550 C563 0.930 . S
H551 C567 0.959 . S
H552 C567 0.959 . S
H553 C567 0.960 . S
H554 C568 0.960 1_565 S
H555 C568 0.961 . S
H556 C568 0.959 . S
H557 C571 0.929 . S
H558 C572 0.931 . S
H559 C574 0.930 . S
C560 H548 0.930 . S
C560 C561 1.399 . S
C560 C565 1.399 . S
C561 C560 1.399 . S
C561 C562 1.376 . S
C562 H549 0.930 . S
C562 C561 1.376 . S
C562 C563 1.388 . S
C563 H550 0.930 . S
C563 C562 1.388 . S
C563 C564 1.390 . S
C564 C563 1.390 . S
C564 C565 1.394 . S
C564 C570 1.465 1_565 S
C565 C560 1.399 . S
C565 C564 1.394 . S
C565 C566 1.516 1_565 S
C566 C565 1.516 1_545 S
C566 C567 1.502 . S
C566 C568 1.561 . S
C566 C569 1.526 . S
C567 H551 0.959 . S
C567 H552 0.959 . S
C567 H553 0.960 . S
C567 C566 1.502 . S
C568 H554 0.960 1_545 S
C568 H555 0.961 . S
C568 H556 0.959 . S
C568 C566 1.561 . S
C569 C566 1.526 . S
C569 C570 1.396 . S
C569 C574 1.390 . S
C570 C564 1.465 1_545 S
C570 C569 1.396 . S
C570 C571 1.399 . S
C571 H557 0.929 . S
C571 C570 1.399 . S
C571 C572 1.385 . S
C572 H558 0.931 . S
C572 C571 1.385 . S
C572 C573 1.389 . S
C573 C572 1.389 . S
C573 C574 1.387 . S
C574 H559 0.930 . S
C574 C569 1.390 . S
C574 C573 1.387 . S
H575 C587 0.930 . S
H576 C589 0.930 . S
H577 C590 0.930 . S
H578 C594 0.959 . S
H579 C594 0.959 1_455 S
H580 C594 0.961 . S
H581 C595 0.960 1_655 S
H582 C595 0.961 . S
H583 C595 0.959 . S
H584 C598 0.929 . S
H585 C599 0.931 . S
H586 C601 0.930 . S
C587 H575 0.930 . S
C587 C588 1.399 . S
C587 C592 1.399 . S
C588 C587 1.399 . S
C588 C589 1.376 . S
C589 H576 0.930 . S
C589 C588 1.376 . S
C589 C590 1.388 . S
C590 H577 0.930 . S
C590 C589 1.388 . S
C590 C591 1.390 . S
C591 C590 1.390 . S
C591 C592 1.394 . S
C591 C597 1.465 1_655 S
C592 C587 1.399 . S
C592 C591 1.394 . S
C592 C593 1.516 . S
C593 C592 1.516 . S
C593 C594 1.502 . S
C593 C595 1.561 1_655 S
C593 C596 1.526 1_655 S
C594 H578 0.959 . S
C594 H579 0.959 1_655 S
C594 H580 0.961 . S
C594 C593 1.502 . S
C595 H581 0.960 1_455 S
C595 H582 0.961 . S
C595 H583 0.959 . S
C595 C593 1.561 1_455 S
C596 C593 1.526 1_455 S
C596 C597 1.396 . S
C596 C601 1.390 . S
C597 C591 1.465 1_455 S
C597 C596 1.396 . S
C597 C598 1.399 . S
C598 H584 0.929 . S
C598 C597 1.399 . S
C598 C599 1.385 . S
C599 H585 0.931 . S
C599 C598 1.385 . S
C599 C600 1.389 . S
C600 C599 1.389 . S
C600 C601 1.387 . S
C601 H586 0.930 . S
C601 C596 1.390 . S
C601 C600 1.387 . S
H602 C614 0.930 . S
H603 C616 0.930 . S
H604 C617 0.930 . S
H605 C621 0.959 . S
H606 C621 0.959 . S
H607 C621 0.954 1_565 S
H608 C622 0.940 1_565 S
H609 C622 0.961 . S
H610 C622 0.959 . S
H611 C625 0.929 . S
H612 C626 0.931 . S
H613 C628 0.930 . S
C614 H602 0.930 . S
C614 C615 1.399 . S
C614 C619 1.399 . S
C615 C614 1.399 . S
C615 C616 1.376 . S
C616 H603 0.930 . S
C616 C615 1.376 . S
C616 C617 1.388 . S
C617 H604 0.930 . S
C617 C616 1.388 . S
C617 C618 1.390 . S
C618 C617 1.390 . S
C618 C619 1.394 . S
C618 C624 1.465 1_565 S
C619 C614 1.399 . S
C619 C618 1.394 . S
C619 C620 1.516 1_565 S
C620 C619 1.516 1_545 S
C620 C621 1.502 . S
C620 C622 1.561 . S
C620 C623 1.526 . S
C621 H605 0.959 . S
C621 H606 0.959 . S
C621 H607 0.954 1_545 S
C621 C620 1.502 . S
C622 H608 0.940 1_545 S
C622 H609 0.961 . S
C622 H610 0.959 . S
C622 C620 1.561 . S
C623 C620 1.526 . S
C623 C624 1.396 . S
C623 C628 1.390 . S
C624 C618 1.465 1_545 S
C624 C623 1.396 . S
C624 C625 1.399 . S
C625 H611 0.929 . S
C625 C624 1.399 . S
C625 C626 1.385 . S
C626 H612 0.931 . S
C626 C625 1.385 . S
C626 C627 1.389 . S
C627 C626 1.389 . S
C627 C628 1.387 . S
C628 H613 0.930 . S
C628 C623 1.390 . S
C628 C627 1.387 . S
H629 C641 0.930 . S
H630 C643 0.930 . S
H631 C644 0.930 . S
H632 C648 0.959 . S
H633 C648 0.948 1_455 S
H634 C648 0.961 . S
H635 C649 0.960 . S
H636 C649 0.961 . S
H637 C649 0.959 . S
H638 C652 0.929 . S
H639 C653 0.931 . S
H640 C655 0.930 . S
C641 H629 0.930 . S
C641 C642 1.399 . S
C641 C646 1.399 . S
C642 C641 1.399 . S
C642 C643 1.376 . S
C643 H630 0.930 . S
C643 C642 1.376 . S
C643 C644 1.388 . S
C644 H631 0.930 . S
C644 C643 1.388 . S
C644 C645 1.390 . S
C645 C644 1.390 . S
C645 C646 1.394 . S
C645 C651 1.465 1_655 S
C646 C641 1.399 . S
C646 C645 1.394 . S
C646 C647 1.516 . S
C647 C646 1.516 . S
C647 C648 1.502 . S
C647 C649 1.561 . S
C647 C650 1.526 1_655 S
C648 H632 0.959 . S
C648 H633 0.948 1_655 S
C648 H634 0.961 . S
C648 C647 1.502 . S
C649 H635 0.960 . S
C649 H636 0.961 . S
C649 H637 0.959 . S
C649 C647 1.561 . S
C650 C647 1.526 1_455 S
C650 C651 1.396 . S
C650 C655 1.390 . S
C651 C645 1.465 1_455 S
C651 C650 1.396 . S
C651 C652 1.399 . S
C652 H638 0.929 . S
C652 C651 1.399 . S
C652 C653 1.385 . S
C653 H639 0.931 . S
C653 C652 1.385 . S
C653 C654 1.389 . S
C654 C653 1.389 . S
C654 C655 1.387 . S
C655 H640 0.930 . S
C655 C650 1.390 . S
C655 C654 1.387 . S
H656 C668 0.930 1_556 S
H657 C670 0.930 . S
H658 C671 0.930 . S
H659 C675 0.959 . S
H660 C675 0.959 . S
H661 C675 0.961 1_556 S
H662 C676 0.960 . S
H663 C676 0.961 . S
H664 C676 0.959 . S
H665 C679 0.929 . S
H666 C680 0.931 . S
H667 C682 0.930 . S
C668 H656 0.930 1_554 S
C668 C669 1.399 . S
C668 C673 1.399 . S
C669 C668 1.399 . S
C669 C670 1.376 . S
C670 H657 0.930 . S
C670 C669 1.376 . S
C670 C671 1.388 . S
C671 H658 0.930 . S
C671 C670 1.388 . S
C671 C672 1.390 . S
C672 C671 1.390 . S
C672 C673 1.394 . S
C672 C678 1.465 . S
C673 C668 1.399 . S
C673 C672 1.394 . S
C673 C674 1.516 . S
C674 C673 1.516 . S
C674 C675 1.502 . S
C674 C676 1.561 1_554 S
C674 C677 1.526 . S
C675 H659 0.959 . S
C675 H660 0.959 . S
C675 H661 0.961 1_554 S
C675 C674 1.502 . S
C676 H662 0.960 . S
C676 H663 0.961 . S
C676 H664 0.959 . S
C676 C674 1.561 1_556 S
C677 C674 1.526 . S
C677 C678 1.396 . S
C677 C682 1.390 . S
C678 C672 1.465 . S
C678 C677 1.396 . S
C678 C679 1.399 . S
C679 H665 0.929 . S
C679 C678 1.399 . S
C679 C680 1.385 . S
C680 H666 0.931 . S
C680 C679 1.385 . S
C680 C681 1.389 . S
C681 C680 1.389 . S
C681 C682 1.387 . S
C682 H667 0.930 . S
C682 C677 1.390 . S
C682 C681 1.387 . S
H683 C695 0.930 . S
H684 C697 0.930 . S
H685 C698 0.930 . S
H686 C702 0.959 . S
H687 C702 0.959 . S
H688 C702 0.961 . S
H689 C703 0.960 . S
H690 C703 0.961 . S
H691 C703 0.959 . S
H692 C706 0.929 . S
H693 C707 0.931 . S
H694 C709 0.930 . S
C695 H683 0.930 . S
C695 C696 1.399 . S
C695 C700 1.399 . S
C696 C695 1.399 . S
C696 C697 1.376 . S
C697 H684 0.930 . S
C697 C696 1.376 . S
C697 C698 1.388 . S
C698 H685 0.930 . S
C698 C697 1.388 . S
C698 C699 1.390 . S
C699 C698 1.390 . S
C699 C700 1.394 . S
C699 C705 1.465 . S
C700 C695 1.399 . S
C700 C699 1.394 . S
C700 C701 1.516 . S
C701 C700 1.516 . S
C701 C702 1.502 . S
C701 C703 1.561 1_556 S
C701 C704 1.526 . S
C702 H686 0.959 . S
C702 H687 0.959 . S
C702 H688 0.961 . S
C702 C701 1.502 . S
C703 H689 0.960 . S
C703 H690 0.961 . S
C703 H691 0.959 . S
C703 C701 1.561 1_554 S
C704 C701 1.526 . S
C704 C705 1.396 . S
C704 C709 1.390 . S
C705 C699 1.465 . S
C705 C704 1.396 . S
C705 C706 1.399 . S
C706 H692 0.929 . S
C706 C705 1.399 . S
C706 C707 1.385 . S
C707 H693 0.931 . S
C707 C706 1.385 . S
C707 C708 1.389 . S
C708 C707 1.389 . S
C708 C709 1.387 . S
C709 H694 0.930 . S
C709 C704 1.390 . S
C709 C708 1.387 . S
H710 C722 0.930 . S
H711 C724 0.930 . S
H712 C725 0.930 . S
H713 C729 0.959 . S
H714 C729 0.959 . S
H715 C729 0.961 . S
H716 C730 0.960 . S
H717 C730 0.961 . S
H718 C730 0.959 . S
H719 C733 0.929 . S
H720 C734 0.931 . S
H721 C736 0.930 . S
C722 H710 0.930 . S
C722 C723 1.399 . S
C722 C727 1.399 . S
C723 C722 1.399 . S
C723 C724 1.376 . S
C724 H711 0.930 . S
C724 C723 1.376 . S
C724 C725 1.388 . S
C725 H712 0.930 . S
C725 C724 1.388 . S
C725 C726 1.390 . S
C726 C725 1.390 . S
C726 C727 1.394 . S
C726 C732 1.465 . S
C727 C722 1.399 . S
C727 C726 1.394 . S
C727 C728 1.516 . S
C728 C727 1.516 . S
C728 C729 1.502 . S
C728 C730 1.561 . S
C728 C731 1.526 . S
C729 H713 0.959 . S
C729 H714 0.959 . S
C729 H715 0.961 . S
C729 C728 1.502 . S
C730 H716 0.960 . S
C730 H717 0.961 . S
C730 H718 0.959 . S
C730 C728 1.561 . S
C731 C728 1.526 . S
C731 C732 1.396 . S
C731 C736 1.390 . S
C732 C726 1.465 . S
C732 C731 1.396 . S
C732 C733 1.400 1_554 S
C733 H719 0.929 . S
C733 C732 1.400 1_556 S
C733 C734 1.385 . S
C734 H720 0.931 . S
C734 C733 1.385 . S
C734 C735 1.389 1_556 S
C735 C734 1.389 1_554 S
C735 C736 1.387 . S
C736 H721 0.930 . S
C736 C731 1.390 . S
C736 C735 1.387 . S
H737 C749 0.930 . S
H738 C751 0.930 . S
H739 C752 0.930 . S
H740 C756 0.959 . S
H741 C756 0.959 . S
H742 C756 0.961 . S
H743 C757 0.960 . S
H744 C757 0.961 . S
H745 C757 0.959 . S
H746 C760 0.929 . S
H747 C761 0.931 . S
H748 C763 0.930 . S
C749 H737 0.930 . S
C749 C750 1.399 . S
C749 C754 1.399 . S
C750 C749 1.399 . S
C750 C751 1.376 1_556 S
C751 H738 0.930 . S
C751 C750 1.376 1_554 S
C751 C752 1.388 . S
C752 H739 0.930 . S
C752 C751 1.388 . S
C752 C753 1.390 1_554 S
C753 C752 1.390 1_556 S
C753 C754 1.394 . S
C753 C759 1.465 . S
C754 C749 1.399 . S
C754 C753 1.394 . S
C754 C755 1.516 . S
C755 C754 1.516 . S
C755 C756 1.502 . S
C755 C757 1.561 . S
C755 C758 1.526 . S
C756 H740 0.959 . S
C756 H741 0.959 . S
C756 H742 0.961 . S
C756 C755 1.502 . S
C757 H743 0.960 . S
C757 H744 0.961 . S
C757 H745 0.959 . S
C757 C755 1.561 . S
C758 C755 1.526 . S
C758 C759 1.396 . S
C758 C763 1.390 . S
C759 C753 1.465 . S
C759 C758 1.396 . S
C759 C760 1.399 . S
C760 H746 0.929 . S
C760 C759 1.399 . S
C760 C761 1.385 . S
C761 H747 0.931 . S
C761 C760 1.385 . S
C761 C762 1.389 . S
C762 C761 1.389 . S
C762 C763 1.387 . S
C763 H748 0.930 . S
C763 C758 1.390 . S
C763 C762 1.387 . S
H764 C776 0.930 . S
H765 C778 0.930 . S
H766 C779 0.930 . S
H767 C783 0.959 . S
H768 C783 0.959 . S
H769 C783 0.961 . S
H770 C784 0.960 . S
H771 C784 0.961 . S
H772 C784 0.959 . S
H773 C787 0.929 . S
H774 C788 0.931 . S
H775 C790 0.930 . S
C776 H764 0.930 . S
C776 C777 1.399 . S
C776 C781 1.399 . S
C777 C776 1.399 . S
C777 C778 1.376 . S
C778 H765 0.930 . S
C778 C777 1.376 . S
C778 C779 1.388 . S
C779 H766 0.930 . S
C779 C778 1.388 . S
C779 C780 1.390 . S
C780 C779 1.390 . S
C780 C781 1.394 . S
C780 C786 1.465 . S
C781 C776 1.399 . S
C781 C780 1.394 . S
C781 C782 1.516 . S
C782 C781 1.516 . S
C782 C783 1.502 . S
C782 C784 1.561 . S
C782 C785 1.526 . S
C783 H767 0.959 . S
C783 H768 0.959 . S
C783 H769 0.961 . S
C783 C782 1.502 . S
C784 H770 0.960 . S
C784 H771 0.961 . S
C784 H772 0.959 . S
C784 C782 1.561 . S
C785 C782 1.526 . S
C785 C786 1.396 . S
C785 C790 1.390 . S
C786 C780 1.465 . S
C786 C785 1.396 . S
C786 C787 1.399 . S
C787 H773 0.929 . S
C787 C786 1.399 . S
C787 C788 1.385 . S
C788 H774 0.931 . S
C788 C787 1.385 . S
C788 C789 1.389 . S
C789 C788 1.389 . S
C789 C790 1.387 . S
C790 H775 0.930 . S
C790 C785 1.390 . S
C790 C789 1.387 . S
H791 C803 0.930 . S
H792 C805 0.930 . S
H793 C806 0.930 . S
H794 C810 0.959 . S
H795 C810 0.959 . S
H796 C810 0.961 . S
H797 C811 0.960 . S
H798 C811 0.961 . S
H799 C811 0.959 . S
H800 C814 0.929 . S
H801 C815 0.931 . S
H802 C817 0.930 . S
C803 H791 0.930 . S
C803 C804 1.399 . S
C803 C808 1.399 . S
C804 C803 1.399 . S
C804 C805 1.376 . S
C805 H792 0.930 . S
C805 C804 1.376 . S
C805 C806 1.388 . S
C806 H793 0.930 . S
C806 C805 1.388 . S
C806 C807 1.390 . S
C807 C806 1.390 . S
C807 C808 1.394 . S
C807 C813 1.465 . S
C808 C803 1.399 . S
C808 C807 1.394 . S
C808 C809 1.516 . S
C809 C808 1.516 . S
C809 C810 1.502 . S
C809 C811 1.561 . S
C809 C812 1.526 . S
C810 H794 0.959 . S
C810 H795 0.959 . S
C810 H796 0.961 . S
C810 C809 1.502 . S
C811 H797 0.960 . S
C811 H798 0.961 . S
C811 H799 0.959 . S
C811 C809 1.561 . S
C812 C809 1.526 . S
C812 C813 1.396 . S
C812 C817 1.390 . S
C813 C807 1.465 . S
C813 C812 1.396 . S
C813 C814 1.399 . S
C814 H800 0.929 . S
C814 C813 1.399 . S
C814 C815 1.385 . S
C815 H801 0.931 . S
C815 C814 1.385 . S
C815 C816 1.389 . S
C816 C815 1.389 . S
C816 C817 1.387 . S
C817 H802 0.930 . S
C817 C812 1.390 . S
C817 C816 1.387 . S
H818 C830 0.930 . S
H819 C832 0.930 . S
H820 C833 0.930 . S
H821 C837 0.959 . S
H822 C837 0.959 . S
H823 C837 0.961 . S
H824 C838 0.960 . S
H825 C838 0.961 . S
H826 C838 0.959 . S
H827 C841 0.929 . S
H828 C842 0.931 . S
H829 C844 0.930 . S
C830 H818 0.930 . S
C830 C831 1.399 . S
C830 C835 1.399 . S
C831 C830 1.399 . S
C831 C832 1.376 . S
C832 H819 0.930 . S
C832 C831 1.376 . S
C832 C833 1.388 . S
C833 H820 0.930 . S
C833 C832 1.388 . S
C833 C834 1.390 . S
C834 C833 1.390 . S
C834 C835 1.394 . S
C834 C840 1.465 . S
C835 C830 1.399 . S
C835 C834 1.394 . S
C835 C836 1.516 . S
C836 C835 1.516 . S
C836 C837 1.502 . S
C836 C838 1.561 . S
C836 C839 1.526 . S
C837 H821 0.959 . S
C837 H822 0.959 . S
C837 H823 0.961 . S
C837 C836 1.502 . S
C838 H824 0.960 . S
C838 H825 0.961 . S
C838 H826 0.959 . S
C838 C836 1.561 . S
C839 C836 1.526 . S
C839 C840 1.396 . S
C839 C844 1.390 . S
C840 C834 1.465 . S
C840 C839 1.396 . S
C840 C841 1.399 . S
C841 H827 0.929 . S
C841 C840 1.399 . S
C841 C842 1.385 . S
C842 H828 0.931 . S
C842 C841 1.385 . S
C842 C843 1.389 . S
C843 C842 1.389 . S
C843 C844 1.387 . S
C844 H829 0.930 . S
C844 C839 1.390 . S
C844 C843 1.387 . S
H845 C857 0.930 . S
H846 C859 0.930 . S
H847 C860 0.930 . S
H848 C864 0.959 . S
H849 C864 0.959 . S
H850 C864 0.961 . S
H851 C865 0.960 . S
H852 C865 0.961 . S
H853 C865 0.959 . S
H854 C868 0.929 . S
H855 C869 0.931 . S
H856 C871 0.930 . S
C857 H845 0.930 . S
C857 C858 1.399 . S
C857 C862 1.399 . S
C858 C857 1.399 . S
C858 C859 1.376 . S
C859 H846 0.930 . S
C859 C858 1.376 . S
C859 C860 1.388 . S
C860 H847 0.930 . S
C860 C859 1.388 . S
C860 C861 1.390 . S
C861 C860 1.390 . S
C861 C862 1.394 . S
C861 C867 1.465 . S
C862 C857 1.399 . S
C862 C861 1.394 . S
C862 C863 1.516 . S
C863 C862 1.516 . S
C863 C864 1.502 . S
C863 C865 1.561 . S
C863 C866 1.526 . S
C864 H848 0.959 . S
C864 H849 0.959 . S
C864 H850 0.961 . S
C864 C863 1.502 . S
C865 H851 0.960 . S
C865 H852 0.961 . S
C865 H853 0.959 . S
C865 C863 1.561 . S
C866 C863 1.526 . S
C866 C867 1.396 . S
C866 C871 1.390 . S
C867 C861 1.465 . S
C867 C866 1.396 . S
C867 C868 1.399 . S
C868 H854 0.929 . S
C868 C867 1.399 . S
C868 C869 1.385 . S
C869 H855 0.931 . S
C869 C868 1.385 . S
C869 C870 1.389 . S
C870 C869 1.389 . S
C870 C871 1.387 . S
C871 H856 0.930 . S
C871 C866 1.390 . S
C871 C870 1.387 . S
H872 C884 0.930 . S
H873 C886 0.930 . S
H874 C887 0.930 . S
H875 C891 0.959 . S
H876 C891 0.959 . S
H877 C891 0.961 . S
H878 C892 0.960 . S
H879 C892 0.961 . S
H880 C892 0.959 . S
H881 C895 0.929 . S
H882 C896 0.931 1_554 S
H883 C898 0.930 . S
C884 H872 0.930 . S
C884 C885 1.399 . S
C884 C889 1.399 . S
C885 C884 1.399 . S
C885 C886 1.376 . S
C886 H873 0.930 . S
C886 C885 1.376 . S
C886 C887 1.388 . S
C887 H874 0.930 . S
C887 C886 1.388 . S
C887 C888 1.390 . S
C888 C887 1.390 . S
C888 C889 1.394 . S
C888 C894 1.465 . S
C889 C884 1.399 . S
C889 C888 1.394 . S
C889 C890 1.516 . S
C890 C889 1.516 . S
C890 C891 1.502 . S
C890 C892 1.561 . S
C890 C893 1.526 . S
C891 H875 0.959 . S
C891 H876 0.959 . S
C891 H877 0.961 . S
C891 C890 1.502 . S
C892 H878 0.960 . S
C892 H879 0.961 . S
C892 H880 0.959 . S
C892 C890 1.561 . S
C893 C890 1.526 . S
C893 C894 1.396 . S
C893 C898 1.390 . S
C894 C888 1.465 . S
C894 C893 1.396 . S
C894 C895 1.399 . S
C895 H881 0.929 . S
C895 C894 1.399 . S
C895 C896 1.385 . S
C896 H882 0.931 1_556 S
C896 C895 1.385 . S
C896 C897 1.389 . S
C897 C896 1.389 . S
C897 C898 1.387 . S
C898 H883 0.930 . S
C898 C893 1.390 . S
C898 C897 1.387 . S
H899 C911 0.930 . S
H900 C913 0.930 . S
H901 C914 0.930 . S
H902 C918 0.959 . S
H903 C918 0.959 . S
H904 C918 0.961 . S
H905 C919 0.960 . S
H906 C919 0.961 . S
H907 C919 0.959 . S
H908 C922 0.929 . S
H909 C923 0.931 . S
H910 C925 0.930 . S
C911 H899 0.930 . S
C911 C912 1.399 . S
C911 C916 1.399 . S
C912 C911 1.399 . S
C912 C913 1.376 . S
C913 H900 0.930 . S
C913 C912 1.376 . S
C913 C914 1.388 . S
C914 H901 0.930 . S
C914 C913 1.388 . S
C914 C915 1.390 . S
C915 C914 1.390 . S
C915 C916 1.394 . S
C915 C921 1.465 . S
C916 C911 1.399 . S
C916 C915 1.394 . S
C916 C917 1.516 . S
C917 C916 1.516 . S
C917 C918 1.502 . S
C917 C919 1.561 . S
C917 C920 1.526 . S
C918 H902 0.959 . S
C918 H903 0.959 . S
C918 H904 0.961 . S
C918 C917 1.502 . S
C919 H905 0.960 . S
C919 H906 0.961 . S
C919 H907 0.959 . S
C919 C917 1.561 . S
C920 C917 1.526 . S
C920 C921 1.396 . S
C920 C925 1.390 . S
C921 C915 1.465 . S
C921 C920 1.396 . S
C921 C922 1.399 1_554 S
C922 H908 0.929 . S
C922 C921 1.399 1_556 S
C922 C923 1.385 . S
C923 H909 0.931 . S
C923 C922 1.385 . S
C923 C924 1.389 1_556 S
C924 C923 1.389 1_554 S
C924 C925 1.387 . S
C925 H910 0.930 . S
C925 C920 1.390 . S
C925 C924 1.387 . S
H926 C938 0.930 . S
H927 C940 0.930 . S
H928 C941 0.930 . S
H929 C945 0.959 . S
H930 C945 0.959 . S
H931 C945 0.961 . S
H932 C946 0.960 . S
H933 C946 0.961 . S
H934 C946 0.959 . S
H935 C949 0.929 . S
H936 C950 0.931 . S
H937 C952 0.930 . S
C938 H926 0.930 . S
C938 C939 1.399 . S
C938 C943 1.399 . S
C939 C938 1.399 . S
C939 C940 1.376 . S
C940 H927 0.930 . S
C940 C939 1.376 . S
C940 C941 1.388 . S
C941 H928 0.930 . S
C941 C940 1.388 . S
C941 C942 1.390 . S
C942 C941 1.390 . S
C942 C943 1.394 . S
C942 C948 1.465 . S
C943 C938 1.399 . S
C943 C942 1.394 . S
C943 C944 1.516 . S
C944 C943 1.516 . S
C944 C945 1.502 . S
C944 C946 1.561 . S
C944 C947 1.526 . S
C945 H929 0.959 . S
C945 H930 0.959 . S
C945 H931 0.961 . S
C945 C944 1.502 . S
C946 H932 0.960 . S
C946 H933 0.961 . S
C946 H934 0.959 . S
C946 C944 1.561 . S
C947 C944 1.526 . S
C947 C948 1.396 . S
C947 C952 1.390 . S
C948 C942 1.465 . S
C948 C947 1.396 . S
C948 C949 1.399 . S
C949 H935 0.929 . S
C949 C948 1.399 . S
C949 C950 1.385 . S
C950 H936 0.931 . S
C950 C949 1.385 . S
C950 C951 1.389 . S
C951 C950 1.389 . S
C951 C952 1.387 . S
C952 H937 0.930 . S
C952 C947 1.390 . S
C952 C951 1.387 . S
H953 C965 0.930 . S
H954 C967 0.930 . S
H955 C968 0.930 . S
H956 C972 0.959 1_554 S
H957 C972 0.959 . S
H958 C972 0.961 . S
H959 C973 0.960 . S
H960 C973 0.961 . S
H961 C973 0.959 1_554 S
H962 C976 0.929 . S
H963 C977 0.931 . S
H964 C979 0.930 1_556 S
C965 H953 0.930 . S
C965 C966 1.399 . S
C965 C970 1.399 . S
C966 C965 1.399 . S
C966 C967 1.376 . S
C967 H954 0.930 . S
C967 C966 1.376 . S
C967 C968 1.388 . S
C968 H955 0.930 . S
C968 C967 1.388 . S
C968 C969 1.390 . S
C969 C968 1.390 . S
C969 C970 1.394 . S
C969 C975 1.465 . S
C970 C965 1.399 . S
C970 C969 1.394 . S
C970 C971 1.516 . S
C971 C970 1.516 . S
C971 C972 1.502 1_554 S
C971 C973 1.561 1_554 S
C971 C974 1.526 . S
C972 H956 0.959 1_556 S
C972 H957 0.959 . S
C972 H958 0.961 . S
C972 C971 1.502 1_556 S
C973 H959 0.960 . S
C973 H960 0.961 . S
C973 H961 0.959 1_556 S
C973 C971 1.561 1_556 S
C974 C971 1.526 . S
C974 C975 1.396 . S
C974 C979 1.390 . S
C975 C969 1.465 . S
C975 C974 1.396 . S
C975 C976 1.399 . S
C976 H962 0.929 . S
C976 C975 1.399 . S
C976 C977 1.385 . S
C977 H963 0.931 . S
C977 C976 1.385 . S
C977 C978 1.389 . S
C978 C977 1.389 . S
C978 C979 1.387 . S
C979 H964 0.930 1_554 S
C979 C974 1.390 . S
C979 C978 1.387 . S
H980 C992 0.930 . S
H981 C994 0.930 . S
H982 C995 0.930 . S
H983 C999 0.959 . S
H984 C999 0.959 . S
H985 C999 0.961 . S
H986 C1000 0.960 . S
H987 C1000 0.961 . S
H988 C1000 0.959 . S
H989 C1003 0.929 . S
H990 C1004 0.931 . S
H991 C1006 0.930 . S
C992 H980 0.930 . S
C992 C993 1.399 . S
C992 C997 1.399 . S
C993 C992 1.399 . S
C993 C994 1.376 . S
C994 H981 0.930 . S
C994 C993 1.376 . S
C994 C995 1.388 . S
C995 H982 0.930 . S
C995 C994 1.388 . S
C995 C996 1.390 . S
C996 C995 1.390 . S
C996 C997 1.394 . S
C996 C1002 1.465 . S
C997 C992 1.399 . S
C997 C996 1.394 . S
C997 C998 1.516 . S
C998 C997 1.516 . S
C998 C999 1.502 . S
C998 C1000 1.561 . S
C998 C1001 1.526 . S
C999 H983 0.959 . S
C999 H984 0.959 . S
C999 H985 0.961 . S
C999 C998 1.502 . S
C1000 H986 0.960 . S
C1000 H987 0.961 . S
C1000 H988 0.959 . S
C1000 C998 1.561 . S
C1001 C998 1.526 . S
C1001 C1002 1.396 . S
C1001 C1006 1.390 . S
C1002 C996 1.465 . S
C1002 C1001 1.396 . S
C1002 C1003 1.399 . S
C1003 H989 0.929 . S
C1003 C1002 1.399 . S
C1003 C1004 1.385 . S
C1004 H990 0.931 . S
C1004 C1003 1.385 . S
C1004 C1005 1.389 . S
C1005 C1004 1.389 . S
C1005 C1006 1.387 . S
C1006 H991 0.930 . S
C1006 C1001 1.390 . S
C1006 C1005 1.387 . S
H1007 C1019 0.930 . S
H1008 C1021 0.930 . S
H1009 C1022 0.930 . S
H1010 C1026 0.959 . S
H1011 C1026 0.959 . S
H1012 C1026 0.961 . S
H1013 C1027 0.960 . S
H1014 C1027 0.961 . S
H1015 C1027 0.959 . S
H1016 C1030 0.929 . S
H1017 C1031 0.931 . S
H1018 C1033 0.930 . S
C1019 H1007 0.930 . S
C1019 C1020 1.399 . S
C1019 C1024 1.399 . S
C1020 C1019 1.399 . S
C1020 C1021 1.376 . S
C1021 H1008 0.930 . S
C1021 C1020 1.376 . S
C1021 C1022 1.388 . S
C1022 H1009 0.930 . S
C1022 C1021 1.388 . S
C1022 C1023 1.390 . S
C1023 C1022 1.390 . S
C1023 C1024 1.394 . S
C1023 C1029 1.465 . S
C1024 C1019 1.399 . S
C1024 C1023 1.394 . S
C1024 C1025 1.516 . S
C1025 C1024 1.516 . S
C1025 C1026 1.502 . S
C1025 C1027 1.561 . S
C1025 C1028 1.526 . S
C1026 H1010 0.959 . S
C1026 H1011 0.959 . S
C1026 H1012 0.961 . S
C1026 C1025 1.502 . S
C1027 H1013 0.960 . S
C1027 H1014 0.961 . S
C1027 H1015 0.959 . S
C1027 C1025 1.561 . S
C1028 C1025 1.526 . S
C1028 C1029 1.396 . S
C1028 C1033 1.390 . S
C1029 C1023 1.465 . S
C1029 C1028 1.396 . S
C1029 C1030 1.399 . S
C1030 H1016 0.929 . S
C1030 C1029 1.399 . S
C1030 C1031 1.385 . S
C1031 H1017 0.931 . S
C1031 C1030 1.385 . S
C1031 C1032 1.389 . S
C1032 C1031 1.389 . S
C1032 C1033 1.387 . S
C1033 H1018 0.930 . S
C1033 C1028 1.390 . S
C1033 C1032 1.387 . S
H1034 C1046 0.930 . S
H1035 C1048 0.930 . S
H1036 C1049 0.930 . S
H1037 C1053 0.959 . S
H1038 C1053 0.959 . S
H1039 C1053 0.961 . S
H1040 C1054 0.960 . S
H1041 C1054 0.961 . S
H1042 C1054 0.959 . S
H1043 C1057 0.929 . S
H1044 C1058 0.931 . S
H1045 C1060 0.930 . S
C1046 H1034 0.930 . S
C1046 C1047 1.399 . S
C1046 C1051 1.399 . S
C1047 C1046 1.399 . S
C1047 C1048 1.376 . S
C1048 H1035 0.930 . S
C1048 C1047 1.376 . S
C1048 C1049 1.388 . S
C1049 H1036 0.930 . S
C1049 C1048 1.388 . S
C1049 C1050 1.390 . S
C1050 C1049 1.390 . S
C1050 C1051 1.394 . S
C1050 C1056 1.465 . S
C1051 C1046 1.399 . S
C1051 C1050 1.394 . S
C1051 C1052 1.516 . S
C1052 C1051 1.516 . S
C1052 C1053 1.502 . S
C1052 C1054 1.561 . S
C1052 C1055 1.526 . S
C1053 H1037 0.959 . S
C1053 H1038 0.959 . S
C1053 H1039 0.961 . S
C1053 C1052 1.502 . S
C1054 H1040 0.960 . S
C1054 H1041 0.961 . S
C1054 H1042 0.959 . S
C1054 C1052 1.561 . S
C1055 C1052 1.526 . S
C1055 C1056 1.396 . S
C1055 C1060 1.390 . S
C1056 C1050 1.465 . S
C1056 C1055 1.396 . S
C1056 C1057 1.399 . S
C1057 H1043 0.929 . S
C1057 C1056 1.399 . S
C1057 C1058 1.385 . S
C1058 H1044 0.931 . S
C1058 C1057 1.385 . S
C1058 C1059 1.389 . S
C1059 C1058 1.389 . S
C1059 C1060 1.387 . S
C1060 H1045 0.930 . S
C1060 C1055 1.390 . S
C1060 C1059 1.387 . S
H1061 C1073 0.930 . S
H1062 C1075 0.930 . S
H1063 C1076 0.930 . S
H1064 C1080 0.959 . S
H1065 C1080 0.959 . S
H1066 C1080 0.961 . S
H1067 C1081 0.960 . S
H1068 C1081 0.961 . S
H1069 C1081 0.959 . S
H1070 C1084 0.929 . S
H1071 C1085 0.931 . S
H1072 C1087 0.930 . S
C1073 H1061 0.930 . S
C1073 C1074 1.399 . S
C1073 C1078 1.399 . S
C1074 C1073 1.399 . S
C1074 C1075 1.376 . S
C1075 H1062 0.930 . S
C1075 C1074 1.376 . S
C1075 C1076 1.388 . S
C1076 H1063 0.930 . S
C1076 C1075 1.388 . S
C1076 C1077 1.390 . S
C1077 C1076 1.390 . S
C1077 C1078 1.394 . S
C1077 C1083 1.465 . S
C1078 C1073 1.399 . S
C1078 C1077 1.394 . S
C1078 C1079 1.516 . S
C1079 C1078 1.516 . S
C1079 C1080 1.502 . S
C1079 C1081 1.561 . S
C1079 C1082 1.526 . S
C1080 H1064 0.959 . S
C1080 H1065 0.959 . S
C1080 H1066 0.961 . S
C1080 C1079 1.502 . S
C1081 H1067 0.960 . S
C1081 H1068 0.961 . S
C1081 H1069 0.959 . S
C1081 C1079 1.561 . S
C1082 C1079 1.526 . S
C1082 C1083 1.396 . S
C1082 C1087 1.390 . S
C1083 C1077 1.465 . S
C1083 C1082 1.396 . S
C1083 C1084 1.399 . S
C1084 H1070 0.929 . S
C1084 C1083 1.399 . S
C1084 C1085 1.385 . S
C1085 H1071 0.931 . S
C1085 C1084 1.385 . S
C1085 C1086 1.389 . S
C1086 C1085 1.389 . S
C1086 C1087 1.387 . S
C1087 H1072 0.930 . S
C1087 C1082 1.390 . S
C1087 C1086 1.387 . S
C237 C163 1.290 . S
C249 C3 1.307 . S
C264 C17 1.221 . S
C276 C121 1.247 . S
C291 C31 1.255 . S
C303 C135 1.232 . S
C318 C149 1.306 . S
C330 C45 1.307 . S
C345 C59 1.244 1_556 S
C357 C79 1.231 . S
C372 C73 1.248 1_554 S
C384 C93 1.279 . S
C399 C107 1.292 . S
C411 C87 1.306 1_556 S
C426 C65 1.231 . S
C438 C101 1.219 1_554 S
C453 C51 1.252 . S
C465 C115 1.218 . S
C480 C129 1.273 . S
C492 C9 1.299 . S
C507 C23 1.287 . S
C519 C143 1.307 . S
C534 C157 1.273 . S
C546 C37 1.298 . S
C561 C171 1.266 . S
C573 C191 1.309 . S
C588 C185 1.286 . S
C600 C205 1.273 . S
C615 C219 1.231 . S
C627 C199 1.236 . S
C642 C177 1.295 . S
C654 C213 1.268 . S
C669 C63 1.203 . S
C681 C7 1.238 . S
C696 C21 1.210 . S
C708 C77 1.207 . S
C723 C35 1.223 . S
C735 C91 1.277 . S
C750 C105 1.269 . S
C762 C49 1.233 . S
C777 C119 1.265 . S
C789 C175 1.210 . S
C804 C189 1.203 . S
C816 C133 1.223 . S
C831 C147 1.237 . S
C843 C203 1.205 . S
C858 C217 1.282 . S
C870 C161 1.261 . S
C885 C204 1.408 . S
C897 C8 1.375 1_556 S
C912 C218 1.403 . S
C924 C22 1.370 1_554 S
C939 C36 1.402 1_556 S
C951 C176 1.384 . S
C966 C190 1.368 . S
C978 C50 1.411 1_554 S
C993 C148 1.368 . S
C1005 C64 1.404 . S
C1020 C162 1.392 . S
C1032 C78 1.380 . S
C1047 C92 1.374 . S
C1059 C120 1.396 . S
C1074 C134 1.367 . S
C1086 C106 1.412 . S
