# Generated by pormake.
# Topology umv, (4)-cn, num edge types: 1
# Building blocks:
#     Node 0, Type 0, BuildingBlock: GALJAG_clean_sbu_0, # of connection points: 4
#     Node 1, Type 0, BuildingBlock: GALJAG_clean_sbu_0, # of connection points: 4
#     Node 2, Type 0, BuildingBlock: GALJAG_clean_sbu_0, # of connection points: 4
#     Node 3, Type 0, BuildingBlock: GALJAG_clean_sbu_0, # of connection points: 4
#     Node 4, Type 0, BuildingBlock: GALJAG_clean_sbu_0, # of connection points: 4
#     Node 5, Type 0, BuildingBlock: GALJAG_clean_sbu_0, # of connection points: 4
#     Node 6, Type 0, BuildingBlock: GALJAG_clean_sbu_0, # of connection points: 4
#     Node 7, Type 0, BuildingBlock: GALJAG_clean_sbu_0, # of connection points: 4
#     Node 8, Type 0, BuildingBlock: GALJAG_clean_sbu_0, # of connection points: 4
#     Node 9, Type 0, BuildingBlock: GALJAG_clean_sbu_0, # of connection points: 4
#     Node 10, Type 0, BuildingBlock: GALJAG_clean_sbu_0, # of connection points: 4
#     Node 11, Type 0, BuildingBlock: GALJAG_clean_sbu_0, # of connection points: 4
#     Node 12, Type 0, BuildingBlock: GALJAG_clean_sbu_0, # of connection points: 4
#     Node 13, Type 0, BuildingBlock: GALJAG_clean_sbu_0, # of connection points: 4
#     Node 14, Type 0, BuildingBlock: GALJAG_clean_sbu_0, # of connection points: 4
#     Node 15, Type 0, BuildingBlock: GALJAG_clean_sbu_0, # of connection points: 4
#     Node 16, Type 0, BuildingBlock: GALJAG_clean_sbu_0, # of connection points: 4
#     Node 17, Type 0, BuildingBlock: GALJAG_clean_sbu_0, # of connection points: 4
#     Node 18, Type 0, BuildingBlock: GALJAG_clean_sbu_0, # of connection points: 4
#     Node 19, Type 0, BuildingBlock: GALJAG_clean_sbu_0, # of connection points: 4
#     Node 20, Type 0, BuildingBlock: GALJAG_clean_sbu_0, # of connection points: 4
#     Node 21, Type 0, BuildingBlock: GALJAG_clean_sbu_0, # of connection points: 4
#     Node 22, Type 0, BuildingBlock: GALJAG_clean_sbu_0, # of connection points: 4
#     Node 23, Type 0, BuildingBlock: GALJAG_clean_sbu_0, # of connection points: 4
#     Node 24, Type 0, BuildingBlock: GALJAG_clean_sbu_0, # of connection points: 4
#     Node 25, Type 0, BuildingBlock: GALJAG_clean_sbu_0, # of connection points: 4
#     Node 26, Type 0, BuildingBlock: GALJAG_clean_sbu_0, # of connection points: 4
#     Node 27, Type 0, BuildingBlock: GALJAG_clean_sbu_0, # of connection points: 4
#     Node 28, Type 0, BuildingBlock: GALJAG_clean_sbu_0, # of connection points: 4
#     Node 29, Type 0, BuildingBlock: GALJAG_clean_sbu_0, # of connection points: 4
#     Node 30, Type 0, BuildingBlock: GALJAG_clean_sbu_0, # of connection points: 4
#     Node 31, Type 0, BuildingBlock: GALJAG_clean_sbu_0, # of connection points: 4
#     Edge 32, Type (0, 0), BuildingBlock: ZUJKAS_clean_linker_0, # of connection points: 2
#     Edge 33, Type (0, 0), BuildingBlock: ZUJKAS_clean_linker_0, # of connection points: 2
#     Edge 34, Type (0, 0), BuildingBlock: ZUJKAS_clean_linker_0, # of connection points: 2
#     Edge 35, Type (0, 0), BuildingBlock: ZUJKAS_clean_linker_0, # of connection points: 2
#     Edge 36, Type (0, 0), BuildingBlock: ZUJKAS_clean_linker_0, # of connection points: 2
#     Edge 37, Type (0, 0), BuildingBlock: ZUJKAS_clean_linker_0, # of connection points: 2
#     Edge 38, Type (0, 0), BuildingBlock: ZUJKAS_clean_linker_0, # of connection points: 2
#     Edge 39, Type (0, 0), BuildingBlock: ZUJKAS_clean_linker_0, # of connection points: 2
#     Edge 40, Type (0, 0), BuildingBlock: ZUJKAS_clean_linker_0, # of connection points: 2
#     Edge 41, Type (0, 0), BuildingBlock: ZUJKAS_clean_linker_0, # of connection points: 2
#     Edge 42, Type (0, 0), BuildingBlock: ZUJKAS_clean_linker_0, # of connection points: 2
#     Edge 43, Type (0, 0), BuildingBlock: ZUJKAS_clean_linker_0, # of connection points: 2
#     Edge 44, Type (0, 0), BuildingBlock: ZUJKAS_clean_linker_0, # of connection points: 2
#     Edge 45, Type (0, 0), BuildingBlock: ZUJKAS_clean_linker_0, # of connection points: 2
#     Edge 46, Type (0, 0), BuildingBlock: ZUJKAS_clean_linker_0, # of connection points: 2
#     Edge 47, Type (0, 0), BuildingBlock: ZUJKAS_clean_linker_0, # of connection points: 2
#     Edge 48, Type (0, 0), BuildingBlock: ZUJKAS_clean_linker_0, # of connection points: 2
#     Edge 49, Type (0, 0), BuildingBlock: ZUJKAS_clean_linker_0, # of connection points: 2
#     Edge 50, Type (0, 0), BuildingBlock: ZUJKAS_clean_linker_0, # of connection points: 2
#     Edge 51, Type (0, 0), BuildingBlock: ZUJKAS_clean_linker_0, # of connection points: 2
#     Edge 52, Type (0, 0), BuildingBlock: ZUJKAS_clean_linker_0, # of connection points: 2
#     Edge 53, Type (0, 0), BuildingBlock: ZUJKAS_clean_linker_0, # of connection points: 2
#     Edge 54, Type (0, 0), BuildingBlock: ZUJKAS_clean_linker_0, # of connection points: 2
#     Edge 55, Type (0, 0), BuildingBlock: ZUJKAS_clean_linker_0, # of connection points: 2
#     Edge 56, Type (0, 0), BuildingBlock: ZUJKAS_clean_linker_0, # of connection points: 2
#     Edge 57, Type (0, 0), BuildingBlock: ZUJKAS_clean_linker_0, # of connection points: 2
#     Edge 58, Type (0, 0), BuildingBlock: ZUJKAS_clean_linker_0, # of connection points: 2
#     Edge 59, Type (0, 0), BuildingBlock: ZUJKAS_clean_linker_0, # of connection points: 2
#     Edge 60, Type (0, 0), BuildingBlock: ZUJKAS_clean_linker_0, # of connection points: 2
#     Edge 61, Type (0, 0), BuildingBlock: ZUJKAS_clean_linker_0, # of connection points: 2
#     Edge 62, Type (0, 0), BuildingBlock: ZUJKAS_clean_linker_0, # of connection points: 2
#     Edge 63, Type (0, 0), BuildingBlock: ZUJKAS_clean_linker_0, # of connection points: 2
#     Edge 64, Type (0, 0), BuildingBlock: ZUJKAS_clean_linker_0, # of connection points: 2
#     Edge 65, Type (0, 0), BuildingBlock: ZUJKAS_clean_linker_0, # of connection points: 2
#     Edge 66, Type (0, 0), BuildingBlock: ZUJKAS_clean_linker_0, # of connection points: 2
#     Edge 67, Type (0, 0), BuildingBlock: ZUJKAS_clean_linker_0, # of connection points: 2
#     Edge 68, Type (0, 0), BuildingBlock: ZUJKAS_clean_linker_0, # of connection points: 2
#     Edge 69, Type (0, 0), BuildingBlock: ZUJKAS_clean_linker_0, # of connection points: 2
#     Edge 70, Type (0, 0), BuildingBlock: ZUJKAS_clean_linker_0, # of connection points: 2
#     Edge 71, Type (0, 0), BuildingBlock: ZUJKAS_clean_linker_0, # of connection points: 2
#     Edge 72, Type (0, 0), BuildingBlock: ZUJKAS_clean_linker_0, # of connection points: 2
#     Edge 73, Type (0, 0), BuildingBlock: ZUJKAS_clean_linker_0, # of connection points: 2
#     Edge 74, Type (0, 0), BuildingBlock: ZUJKAS_clean_linker_0, # of connection points: 2
#     Edge 75, Type (0, 0), BuildingBlock: ZUJKAS_clean_linker_0, # of connection points: 2
#     Edge 76, Type (0, 0), BuildingBlock: ZUJKAS_clean_linker_0, # of connection points: 2
#     Edge 77, Type (0, 0), BuildingBlock: ZUJKAS_clean_linker_0, # of connection points: 2
#     Edge 78, Type (0, 0), BuildingBlock: ZUJKAS_clean_linker_0, # of connection points: 2
#     Edge 79, Type (0, 0), BuildingBlock: ZUJKAS_clean_linker_0, # of connection points: 2
#     Edge 80, Type (0, 0), BuildingBlock: ZUJKAS_clean_linker_0, # of connection points: 2
#     Edge 81, Type (0, 0), BuildingBlock: ZUJKAS_clean_linker_0, # of connection points: 2
#     Edge 82, Type (0, 0), BuildingBlock: ZUJKAS_clean_linker_0, # of connection points: 2
#     Edge 83, Type (0, 0), BuildingBlock: ZUJKAS_clean_linker_0, # of connection points: 2
#     Edge 84, Type (0, 0), BuildingBlock: ZUJKAS_clean_linker_0, # of connection points: 2
#     Edge 85, Type (0, 0), BuildingBlock: ZUJKAS_clean_linker_0, # of connection points: 2
#     Edge 86, Type (0, 0), BuildingBlock: ZUJKAS_clean_linker_0, # of connection points: 2
#     Edge 87, Type (0, 0), BuildingBlock: ZUJKAS_clean_linker_0, # of connection points: 2
#     Edge 88, Type (0, 0), BuildingBlock: ZUJKAS_clean_linker_0, # of connection points: 2
#     Edge 89, Type (0, 0), BuildingBlock: ZUJKAS_clean_linker_0, # of connection points: 2
#     Edge 90, Type (0, 0), BuildingBlock: ZUJKAS_clean_linker_0, # of connection points: 2
#     Edge 91, Type (0, 0), BuildingBlock: ZUJKAS_clean_linker_0, # of connection points: 2
#     Edge 92, Type (0, 0), BuildingBlock: ZUJKAS_clean_linker_0, # of connection points: 2
#     Edge 93, Type (0, 0), BuildingBlock: ZUJKAS_clean_linker_0, # of connection points: 2
#     Edge 94, Type (0, 0), BuildingBlock: ZUJKAS_clean_linker_0, # of connection points: 2
#     Edge 95, Type (0, 0), BuildingBlock: ZUJKAS_clean_linker_0, # of connection points: 2
# Relax obj value: 0.082
# Max RMSD: 0.091
# Mean RMSD: 0.091
data_MOF--net-umv--node1-GALJAG_clean_sbu_0--edge1-ZUJKAS_clean_linker_0
_symmetry_space_group_name_H-M    P1
_symmetry_Int_Tables_number       1
_symmetry_cell_setting            triclinic
loop_
_symmetry_equiv_pos_as_xyz
'x, y, z'
_cell_length_a     137.94314
_cell_length_b     35.377759
_cell_length_c     65.411255
_cell_angle_alpha  89.998414
_cell_angle_beta   90.000425
_cell_angle_gamma 89.981031
loop_
_atom_site_label
_atom_site_type_symbol
_atom_site_fract_x
_atom_site_fract_y
_atom_site_fract_z
_atom_type_partial_charge
In0 In 0.05694 0.12599 0.30956 0.0
O1 O 0.05798 0.16181 0.3386 0.0
O2 O 0.06055 0.18845 0.30998 0.0
C3 C 0.05294 0.05774 0.3258 0.0
C4 C 0.04025 0.14663 0.29117 0.0
C5 C 0.07495 0.11376 0.29485 0.0
O6 O 0.05435 0.08687 0.33654 0.0
O7 O 0.05341 0.0631 0.30671 0.0
O8 O 0.06783 0.11993 0.28311 0.0
O9 O 0.07288 0.11319 0.31361 0.0
C10 C 0.05996 0.19192 0.32911 0.0
O11 O 0.04801 0.14174 0.28123 0.0
O12 O 0.04085 0.13922 0.30998 0.0
In13 In 0.19422 0.12392 0.3073 0.0
O14 O 0.2028 0.11172 0.27798 0.0
O15 O 0.21049 0.11522 0.30606 0.0
C16 C 0.17575 0.1307 0.29414 0.0
C17 C 0.19292 0.05626 0.32588 0.0
C18 C 0.19715 0.19175 0.32507 0.0
O19 O 0.18282 0.13088 0.28183 0.0
O20 O 0.17807 0.12791 0.31271 0.0
O21 O 0.19661 0.16131 0.33506 0.0
O22 O 0.19634 0.18804 0.30593 0.0
C23 C 0.21083 0.10853 0.28714 0.0
O24 O 0.19429 0.08647 0.33575 0.0
O25 O 0.1921 0.06039 0.30682 0.0
In26 In 0.05647 0.12478 0.93922 0.0
O27 O 0.0565 0.08883 0.91016 0.0
O28 O 0.06133 0.06353 0.93779 0.0
C29 C 0.05268 0.19294 0.92262 0.0
C30 C 0.03992 0.1037 0.95812 0.0
C31 C 0.0744 0.13667 0.95437 0.0
O32 O 0.05425 0.16369 0.91208 0.0
O33 O 0.05291 0.18785 0.94175 0.0
O34 O 0.0673 0.12876 0.96581 0.0
O35 O 0.07236 0.13943 0.93563 0.0
C36 C 0.05967 0.0596 0.91898 0.0
O37 O 0.04768 0.10948 0.96787 0.0
O38 O 0.04044 0.11041 0.93924 0.0
In39 In 0.19313 0.12299 0.93975 0.0
O40 O 0.20163 0.13674 0.969 0.0
O41 O 0.20921 0.13642 0.94076 0.0
C42 C 0.17505 0.11099 0.95405 0.0
C43 C 0.19047 0.18962 0.92057 0.0
C44 C 0.19682 0.0556 0.92213 0.0
O45 O 0.18213 0.11698 0.9659 0.0
O46 O 0.17718 0.11026 0.9353 0.0
O47 O 0.19527 0.08537 0.91202 0.0
O48 O 0.19663 0.05978 0.94133 0.0
C49 C 0.20952 0.14248 0.95973 0.0
O50 O 0.19371 0.16084 0.91143 0.0
O51 O 0.18844 0.18449 0.93913 0.0
In52 In 0.94362 0.8738 0.69005 0.0
O53 O 0.94315 0.83751 0.66112 0.0
O54 O 0.94032 0.811 0.68965 0.0
C55 C 0.947 0.94217 0.67329 0.0
C56 C 0.9604 0.85587 0.70896 0.0
C57 C 0.92556 0.88342 0.70504 0.0
O58 O 0.94569 0.91269 0.66277 0.0
O59 O 0.94675 0.93714 0.69241 0.0
O60 O 0.93273 0.87704 0.71658 0.0
O61 O 0.92758 0.88558 0.68629 0.0
C62 C 0.9412 0.80735 0.67059 0.0
O63 O 0.95264 0.86167 0.71876 0.0
O64 O 0.95974 0.861 0.68994 0.0
In65 In 0.80688 0.87526 0.69257 0.0
O66 O 0.79789 0.88744 0.72134 0.0
O67 O 0.79093 0.89086 0.6924 0.0
C68 C 0.82489 0.86331 0.70734 0.0
C69 C 0.81004 0.94125 0.67313 0.0
C70 C 0.80281 0.80725 0.67609 0.0
O71 O 0.81787 0.87162 0.71892 0.0
O72 O 0.82274 0.86041 0.68868 0.0
O73 O 0.80416 0.83655 0.66544 0.0
O74 O 0.80335 0.81234 0.69518 0.0
C75 C 0.79024 0.89499 0.71149 0.0
O76 O 0.80799 0.91126 0.6636 0.0
O77 O 0.8106 0.93767 0.69226 0.0
In78 In 0.94451 0.87401 0.05836 0.0
O79 O 0.9446 0.90984 0.08755 0.0
O80 O 0.94423 0.93792 0.0588 0.0
C81 C 0.94661 0.80483 0.07526 0.0
C82 C 0.96053 0.88607 0.03554 0.0
C83 C 0.92577 0.87374 0.04673 0.0
O84 O 0.94931 0.83469 0.08414 0.0
O85 O 0.94298 0.80973 0.05775 0.0
O86 O 0.93255 0.86704 0.0342 0.0
O87 O 0.9285 0.87971 0.06486 0.0
C88 C 0.94441 0.9409 0.07799 0.0
O89 O 0.95212 0.8868 0.02793 0.0
O90 O 0.96082 0.87683 0.05413 0.0
In91 In 0.80607 0.87181 0.05923 0.0
O92 O 0.79742 0.85881 0.0301 0.0
O93 O 0.79004 0.85804 0.05864 0.0
C94 C 0.82432 0.88392 0.04595 0.0
C95 C 0.8088 0.80492 0.07795 0.0
C96 C 0.80195 0.93942 0.07612 0.0
O97 O 0.81737 0.87889 0.03363 0.0
O98 O 0.82196 0.88345 0.06457 0.0
O99 O 0.80312 0.90976 0.08657 0.0
O100 O 0.80272 0.93491 0.05701 0.0
C101 C 0.78958 0.85274 0.03961 0.0
O102 O 0.80672 0.83458 0.08776 0.0
O103 O 0.8096 0.80928 0.0589 0.0
In104 In 0.05681 0.62486 0.80945 0.0
O105 O 0.0563 0.66292 0.83769 0.0
O106 O 0.06141 0.68637 0.80978 0.0
C107 C 0.053 0.55722 0.82664 0.0
C108 C 0.04048 0.64453 0.78934 0.0
C109 C 0.07502 0.61269 0.79597 0.0
O110 O 0.05449 0.58677 0.83698 0.0
O111 O 0.0533 0.56183 0.80748 0.0
O112 O 0.06803 0.61771 0.78375 0.0
O113 O 0.07273 0.61304 0.81463 0.0
C114 C 0.05948 0.69163 0.82839 0.0
O115 O 0.04839 0.63866 0.7801 0.0
O116 O 0.04077 0.63864 0.80833 0.0
In117 In 0.19448 0.62314 0.80945 0.0
O118 O 0.19493 0.58676 0.83833 0.0
O119 O 0.19015 0.56136 0.81068 0.0
C120 C 0.19813 0.69161 0.82586 0.0
C121 C 0.21082 0.60339 0.78935 0.0
C122 C 0.17622 0.63326 0.79575 0.0
O123 O 0.19697 0.66219 0.83649 0.0
O124 O 0.19757 0.68649 0.80676 0.0
O125 O 0.18323 0.6277 0.78366 0.0
O126 O 0.17851 0.63462 0.8144 0.0
C127 C 0.19193 0.55733 0.82944 0.0
O128 O 0.20289 0.609 0.78014 0.0
O129 O 0.21055 0.60959 0.8083 0.0
In130 In 0.05642 0.62642 0.43919 0.0
O131 O 0.04767 0.61326 0.46812 0.0
O132 O 0.04035 0.61312 0.43952 0.0
C133 C 0.07454 0.63847 0.45321 0.0
C134 C 0.05934 0.55907 0.42104 0.0
C135 C 0.05244 0.69352 0.42156 0.0
O136 O 0.06744 0.63449 0.46524 0.0
O137 O 0.0724 0.63715 0.4345 0.0
O138 O 0.0535 0.66339 0.41147 0.0
O139 O 0.05324 0.68978 0.4407 0.0
C140 C 0.03985 0.60744 0.45852 0.0
O141 O 0.05747 0.58859 0.41091 0.0
O142 O 0.05982 0.5638 0.4401 0.0
In143 In 0.19394 0.62363 0.43967 0.0
O144 O 0.20217 0.63832 0.46904 0.0
O145 O 0.21023 0.63165 0.44159 0.0
C146 C 0.17539 0.61865 0.4525 0.0
C147 C 0.19291 0.69041 0.42014 0.0
C148 C 0.19686 0.55496 0.42283 0.0
O149 O 0.18241 0.61589 0.46483 0.0
O150 O 0.17779 0.62282 0.43405 0.0
O151 O 0.19636 0.58493 0.41242 0.0
O152 O 0.19597 0.55958 0.4419 0.0
C153 C 0.21033 0.64024 0.46029 0.0
O154 O 0.19428 0.65971 0.41069 0.0
O155 O 0.192 0.68717 0.43923 0.0
In156 In 0.94397 0.37338 0.19267 0.0
O157 O 0.95154 0.36068 0.22318 0.0
O158 O 0.96027 0.37106 0.19706 0.0
C159 C 0.92516 0.37354 0.20381 0.0
C160 C 0.94406 0.30636 0.17317 0.0
C161 C 0.94612 0.44255 0.17582 0.0
O162 O 0.93186 0.37984 0.21658 0.0
O163 O 0.92799 0.36804 0.18571 0.0
O164 O 0.94878 0.41265 0.16692 0.0
O165 O 0.94249 0.4377 0.19334 0.0
C166 C 0.95997 0.36173 0.21563 0.0
O167 O 0.94427 0.33736 0.16356 0.0
O168 O 0.94375 0.30946 0.19235 0.0
In169 In 0.80533 0.37109 0.18931 0.0
O170 O 0.79677 0.38656 0.21818 0.0
O171 O 0.78906 0.38012 0.19026 0.0
C172 C 0.82364 0.36025 0.2026 0.0
C173 C 0.80761 0.43807 0.17039 0.0
C174 C 0.80166 0.30342 0.17212 0.0
O175 O 0.8166 0.36277 0.21493 0.0
O176 O 0.82135 0.36259 0.184 0.0
O177 O 0.80232 0.33358 0.1619 0.0
O178 O 0.80272 0.30739 0.1912 0.0
C179 C 0.78873 0.38873 0.20895 0.0
O180 O 0.80604 0.4079 0.16062 0.0
O181 O 0.8081 0.43423 0.18951 0.0
In182 In 0.94462 0.37371 0.55823 0.0
O183 O 0.95294 0.38615 0.52866 0.0
O184 O 0.96091 0.38163 0.55637 0.0
C185 C 0.92605 0.36886 0.54554 0.0
C186 C 0.9436 0.44149 0.57674 0.0
C187 C 0.94746 0.30568 0.57592 0.0
O188 O 0.93306 0.36542 0.53321 0.0
O189 O 0.92849 0.37361 0.56393 0.0
O190 O 0.94718 0.33616 0.58592 0.0
O191 O 0.94641 0.30947 0.55684 0.0
C192 C 0.96107 0.38875 0.53749 0.0
O193 O 0.94474 0.4112 0.5867 0.0
O194 O 0.94295 0.43736 0.55765 0.0
In195 In 0.80754 0.37561 0.56293 0.0
O196 O 0.7985 0.36167 0.53454 0.0
O197 O 0.79142 0.36321 0.5634 0.0
C198 C 0.82547 0.38778 0.54788 0.0
C199 C 0.8106 0.30836 0.58114 0.0
C200 C 0.8037 0.44288 0.58049 0.0
O201 O 0.81822 0.38356 0.53627 0.0
O202 O 0.82357 0.38662 0.56672 0.0
O203 O 0.80494 0.41294 0.59066 0.0
O204 O 0.80428 0.43888 0.56132 0.0
C205 C 0.79075 0.35676 0.5445 0.0
O206 O 0.80887 0.338 0.59127 0.0
O207 O 0.81088 0.31293 0.56205 0.0
In208 In 0.55746 0.12108 0.80872 0.0
O209 O 0.54815 0.13385 0.78049 0.0
O210 O 0.54159 0.13772 0.80982 0.0
C211 C 0.57527 0.10844 0.79314 0.0
C212 C 0.56141 0.18697 0.82768 0.0
C213 C 0.55326 0.05305 0.82511 0.0
O214 O 0.56815 0.11695 0.78187 0.0
O215 O 0.5733 0.10551 0.81189 0.0
O216 O 0.55437 0.08248 0.83579 0.0
O217 O 0.55411 0.05803 0.80606 0.0
C218 C 0.54066 0.14188 0.79078 0.0
O219 O 0.55949 0.15716 0.83752 0.0
O220 O 0.56138 0.18325 0.80852 0.0
In221 In 0.69338 0.12464 0.81089 0.0
O222 O 0.692 0.08925 0.84006 0.0
O223 O 0.68992 0.062 0.81144 0.0
C224 C 0.69707 0.19319 0.82722 0.0
C225 C 0.71024 0.1054 0.79269 0.0
C226 C 0.6755 0.13481 0.79501 0.0
O227 O 0.69577 0.16395 0.83794 0.0
O228 O 0.69666 0.1878 0.80814 0.0
O229 O 0.68272 0.12674 0.78392 0.0
O230 O 0.6774 0.13848 0.81375 0.0
C231 C 0.69021 0.05891 0.83062 0.0
O232 O 0.70268 0.11289 0.78254 0.0
O233 O 0.70936 0.10935 0.81176 0.0
In234 In 0.55493 0.11953 0.44051 0.0
O235 O 0.55071 0.08298 0.413 0.0
O236 O 0.55736 0.0564 0.43861 0.0
C237 C 0.55292 0.18766 0.42242 0.0
C238 C 0.54013 0.10789 0.46694 0.0
C239 C 0.57403 0.12135 0.4486 0.0
O240 O 0.55046 0.15724 0.41378 0.0
O241 O 0.55631 0.18381 0.44022 0.0
O242 O 0.56781 0.13225 0.46157 0.0
O243 O 0.57059 0.11046 0.43172 0.0
C244 C 0.5537 0.05269 0.42107 0.0
O245 O 0.54885 0.10257 0.47192 0.0
O246 O 0.53899 0.12145 0.44932 0.0
In247 In 0.6962 0.1299 0.44074 0.0
O248 O 0.70305 0.14396 0.47181 0.0
O249 O 0.71238 0.13181 0.44688 0.0
C250 C 0.67737 0.12783 0.45166 0.0
C251 C 0.69735 0.19765 0.42244 0.0
C252 C 0.6978 0.06362 0.42056 0.0
O253 O 0.68382 0.11191 0.46239 0.0
O254 O 0.68043 0.14362 0.43567 0.0
O255 O 0.697 0.09493 0.41147 0.0
O256 O 0.69784 0.06576 0.43982 0.0
C257 C 0.71165 0.14207 0.46524 0.0
O258 O 0.70045 0.16792 0.41389 0.0
O259 O 0.69371 0.1929 0.43995 0.0
In260 In 0.44474 0.87976 0.18654 0.0
O261 O 0.45394 0.86616 0.21479 0.0
O262 O 0.46089 0.8675 0.18579 0.0
C263 C 0.42683 0.89107 0.20198 0.0
C264 C 0.44195 0.81239 0.16823 0.0
C265 C 0.44826 0.94764 0.16932 0.0
O266 O 0.43409 0.88557 0.21339 0.0
O267 O 0.42869 0.8916 0.18311 0.0
O268 O 0.44672 0.91812 0.15897 0.0
O269 O 0.44815 0.94287 0.18848 0.0
C270 C 0.46165 0.86111 0.20469 0.0
O271 O 0.44384 0.84195 0.15815 0.0
O272 O 0.44132 0.81717 0.18726 0.0
In273 In 0.30825 0.87729 0.19139 0.0
O274 O 0.29925 0.89049 0.22004 0.0
O275 O 0.29221 0.89126 0.19114 0.0
C276 C 0.32633 0.86628 0.20605 0.0
C277 C 0.31097 0.9436 0.17201 0.0
C278 C 0.30434 0.80929 0.17477 0.0
O279 O 0.31926 0.87354 0.21772 0.0
O280 O 0.32419 0.86382 0.18736 0.0
O281 O 0.30584 0.83856 0.1642 0.0
O282 O 0.3047 0.81432 0.1939 0.0
C283 C 0.29154 0.89672 0.21012 0.0
O284 O 0.30891 0.91361 0.16249 0.0
O285 O 0.31183 0.9398 0.19107 0.0
In286 In 0.44393 0.87545 0.56151 0.0
O287 O 0.45261 0.89063 0.53281 0.0
O288 O 0.46029 0.88197 0.56059 0.0
C289 C 0.42563 0.86869 0.54745 0.0
C290 C 0.4425 0.94314 0.57998 0.0
C291 C 0.44682 0.8077 0.57938 0.0
O292 O 0.43286 0.86487 0.53575 0.0
O293 O 0.42771 0.87488 0.56591 0.0
O294 O 0.44617 0.8381 0.58939 0.0
O295 O 0.44607 0.81143 0.56023 0.0
C296 C 0.46066 0.89136 0.54201 0.0
O297 O 0.44354 0.91287 0.59001 0.0
O298 O 0.44213 0.939 0.56086 0.0
In299 In 0.30637 0.87219 0.55744 0.0
O300 O 0.30622 0.83487 0.58595 0.0
O301 O 0.3079 0.80847 0.55692 0.0
C302 C 0.30378 0.94001 0.57554 0.0
C303 C 0.28988 0.85745 0.53677 0.0
C304 C 0.32489 0.87706 0.54439 0.0
O305 O 0.30403 0.90935 0.58538 0.0
O306 O 0.30473 0.93652 0.55642 0.0
O307 O 0.31784 0.88244 0.53239 0.0
O308 O 0.32254 0.87025 0.56263 0.0
C309 C 0.30727 0.80448 0.57603 0.0
O310 O 0.29804 0.85861 0.52803 0.0
O311 O 0.29003 0.86587 0.5555 0.0
In312 In 0.5544 0.62046 0.30788 0.0
O313 O 0.54829 0.64012 0.27691 0.0
O314 O 0.53838 0.62334 0.29988 0.0
C315 C 0.57345 0.61674 0.29935 0.0
C316 C 0.55392 0.6854 0.32939 0.0
C317 C 0.55186 0.55045 0.32336 0.0
O318 O 0.56707 0.61394 0.28551 0.0
O319 O 0.57017 0.62047 0.31727 0.0
O320 O 0.55017 0.58006 0.33351 0.0
O321 O 0.55473 0.55601 0.30528 0.0
C322 C 0.53954 0.63704 0.28231 0.0
O323 O 0.54989 0.65561 0.33576 0.0
O324 O 0.55826 0.68212 0.31256 0.0
In325 In 0.69482 0.62982 0.30888 0.0
O326 O 0.70017 0.59444 0.33593 0.0
O327 O 0.68964 0.57043 0.31613 0.0
C328 C 0.69784 0.69966 0.32407 0.0
C329 C 0.70967 0.60973 0.28418 0.0
C330 C 0.67601 0.6379 0.29873 0.0
O331 O 0.69701 0.67072 0.33523 0.0
O332 O 0.69726 0.69338 0.30509 0.0
O333 O 0.68259 0.63598 0.28525 0.0
O334 O 0.679 0.63635 0.31694 0.0
C335 C 0.69499 0.5662 0.33155 0.0
O336 O 0.70093 0.60609 0.2788 0.0
O337 O 0.71083 0.62549 0.30127 0.0
In338 In 0.5581 0.6192 0.93568 0.0
O339 O 0.54676 0.61378 0.9614 0.0
O340 O 0.54367 0.58964 0.93235 0.0
C341 C 0.575 0.63335 0.95503 0.0
C342 C 0.56355 0.5546 0.91726 0.0
C343 C 0.55377 0.68581 0.91769 0.0
O344 O 0.56779 0.61941 0.96427 0.0
O345 O 0.57353 0.64101 0.93646 0.0
O346 O 0.55661 0.65732 0.90771 0.0
O347 O 0.55295 0.68049 0.93671 0.0
C348 C 0.54095 0.59479 0.95052 0.0
O349 O 0.56069 0.58304 0.90719 0.0
O350 O 0.56384 0.5593 0.93636 0.0
In351 In 0.69248 0.62474 0.94087 0.0
O352 O 0.69103 0.66273 0.9127 0.0
O353 O 0.68891 0.68728 0.94202 0.0
C354 C 0.69634 0.55774 0.92295 0.0
C355 C 0.70936 0.64315 0.95919 0.0
C356 C 0.67463 0.6122 0.95634 0.0
O357 O 0.69497 0.58777 0.91292 0.0
O358 O 0.69588 0.56154 0.94214 0.0
O359 O 0.68186 0.61846 0.96774 0.0
O360 O 0.67651 0.61155 0.93748 0.0
C361 C 0.6892 0.69214 0.92295 0.0
O362 O 0.70177 0.636 0.96931 0.0
O363 O 0.70849 0.63926 0.94012 0.0
In364 In 0.4443 0.37572 0.69262 0.0
O365 O 0.45317 0.36313 0.72152 0.0
O366 O 0.46034 0.36156 0.69277 0.0
C367 C 0.42616 0.38697 0.70681 0.0
C368 C 0.44154 0.30949 0.67318 0.0
C369 C 0.44808 0.44391 0.67608 0.0
O370 O 0.43315 0.37963 0.71867 0.0
O371 O 0.42841 0.38922 0.68818 0.0
O372 O 0.44682 0.41452 0.66547 0.0
O373 O 0.44762 0.43883 0.69519 0.0
C374 C 0.46092 0.35661 0.71182 0.0
O375 O 0.44376 0.33938 0.66373 0.0
O376 O 0.44059 0.3133 0.69222 0.0
In377 In 0.30708 0.37199 0.68973 0.0
O378 O 0.3072 0.40846 0.66084 0.0
O379 O 0.31001 0.43502 0.68936 0.0
C380 C 0.3038 0.3035 0.673 0.0
C381 C 0.29041 0.38918 0.70924 0.0
C382 C 0.3253 0.36354 0.70409 0.0
O383 O 0.30488 0.33312 0.66249 0.0
O384 O 0.30424 0.30842 0.69212 0.0
O385 O 0.31816 0.36871 0.71589 0.0
O386 O 0.32317 0.36194 0.68537 0.0
C387 C 0.30901 0.43872 0.67032 0.0
O388 O 0.29828 0.38416 0.71874 0.0
O389 O 0.29089 0.38352 0.69024 0.0
In390 In 0.44317 0.37895 0.05552 0.0
O391 O 0.44972 0.40097 0.02574 0.0
O392 O 0.45941 0.38257 0.04893 0.0
C393 C 0.42451 0.36773 0.04468 0.0
C394 C 0.44202 0.44545 0.07552 0.0
C395 C 0.44727 0.31154 0.07269 0.0
O396 O 0.43131 0.36654 0.03173 0.0
O397 O 0.4272 0.37381 0.06279 0.0
O398 O 0.44724 0.34211 0.08267 0.0
O399 O 0.44541 0.31501 0.05385 0.0
C400 C 0.4584 0.39744 0.03155 0.0
O401 O 0.44418 0.41506 0.08458 0.0
O402 O 0.44044 0.44201 0.05666 0.0
In403 In 0.30438 0.37747 0.06086 0.0
O404 O 0.29602 0.36518 0.0313 0.0
O405 O 0.28813 0.36829 0.05917 0.0
C406 C 0.32296 0.38332 0.04839 0.0
C407 C 0.30589 0.30994 0.07948 0.0
C408 C 0.30133 0.44553 0.0783 0.0
O409 O 0.316 0.38463 0.03583 0.0
O410 O 0.32047 0.38016 0.06684 0.0
O411 O 0.3014 0.41505 0.08831 0.0
O412 O 0.30266 0.44173 0.05929 0.0
C413 C 0.28794 0.36171 0.04024 0.0
O414 O 0.30465 0.34022 0.0894 0.0
O415 O 0.30636 0.31394 0.06036 0.0
H416 H 0.08245 0.13108 0.25709 0.0
H417 H 0.09965 0.13062 0.2471 0.0
H418 H 0.10732 0.08791 0.3067 0.0
H419 H 0.09031 0.08838 0.31671 0.0
H420 H 0.11442 0.17239 0.268 0.0
H421 H 0.12274 0.01946 0.26755 0.0
H422 H 0.11052 0.0375 0.26547 0.0
H423 H 0.11626 0.03354 0.29009 0.0
C424 C 0.08781 0.12095 0.26787 0.0
C425 C 0.08505 0.10975 0.28767 0.0
C426 C 0.09761 0.12077 0.26217 0.0
C427 C 0.10474 0.10873 0.27607 0.0
C428 C 0.10193 0.09658 0.29559 0.0
H429 H 0.15995 0.13588 0.31863 0.0
H430 H 0.14292 0.13198 0.30881 0.0
C431 C 0.0922 0.09709 0.30134 0.0
C432 C 0.1152 0.11186 0.27125 0.0
H433 H 0.13627 0.06157 0.27422 0.0
C434 C 0.11919 0.14807 0.26871 0.0
C435 C 0.12142 0.0801 0.2721 0.0
C436 C 0.1175 0.04041 0.27374 0.0
C437 C 0.12928 0.15354 0.26876 0.0
C438 C 0.13545 0.12208 0.27134 0.0
C439 C 0.13149 0.08565 0.27229 0.0
C440 C 0.1458 0.12693 0.27645 0.0
C441 C 0.13332 0.19305 0.26746 0.0
C442 C 0.15303 0.12575 0.26138 0.0
C443 C 0.16284 0.12816 0.26694 0.0
C444 C 0.16548 0.13145 0.28765 0.0
C445 C 0.15816 0.13334 0.30256 0.0
C446 C 0.14842 0.13112 0.297 0.0
H447 H 0.1277 0.214 0.26297 0.0
H448 H 0.13631 0.20127 0.28257 0.0
H449 H 0.13935 0.19404 0.25622 0.0
H450 H 0.1511 0.12244 0.24543 0.0
H451 H 0.16833 0.12653 0.25515 0.0
H452 H 0.16758 0.13064 0.99141 0.0
H453 H 0.15036 0.13314 0.00107 0.0
H454 H 0.14252 0.08825 0.94206 0.0
H455 H 0.15958 0.0859 0.93232 0.0
H456 H 0.13626 0.17637 0.97868 0.0
H457 H 0.12617 0.02513 0.98273 0.0
H458 H 0.13856 0.04127 0.98484 0.0
H459 H 0.13295 0.03666 0.96014 0.0
C460 C 0.16218 0.12061 0.98069 0.0
C461 C 0.16491 0.10809 0.96112 0.0
C462 C 0.15237 0.12214 0.98621 0.0
C463 C 0.14519 0.11047 0.97236 0.0
C464 C 0.14795 0.09675 0.95311 0.0
H465 H 0.08982 0.16614 0.93414 0.0
H466 H 0.10687 0.16285 0.94388 0.0
C467 C 0.1577 0.09562 0.94752 0.0
C468 C 0.13476 0.11585 0.97692 0.0
H469 H 0.11314 0.06908 0.97612 0.0
C470 C 0.13121 0.15289 0.97863 0.0
C471 C 0.1282 0.08519 0.97708 0.0
C472 C 0.13166 0.04478 0.9763 0.0
C473 C 0.1212 0.16017 0.97889 0.0
C474 C 0.11463 0.12966 0.97728 0.0
C475 C 0.11819 0.09249 0.9772 0.0
C476 C 0.10421 0.13573 0.973 0.0
C477 C 0.11773 0.20054 0.98007 0.0
C478 C 0.09703 0.12169 0.98619 0.0
C479 C 0.08723 0.12376 0.98069 0.0
C480 C 0.0845 0.13922 0.96173 0.0
C481 C 0.0917 0.15414 0.94885 0.0
C482 C 0.10144 0.15247 0.95445 0.0
H483 H 0.12323 0.21906 0.9874 0.0
H484 H 0.11644 0.21129 0.96437 0.0
H485 H 0.11084 0.20262 0.98876 0.0
H486 H 0.09904 0.10835 0.00049 0.0
H487 H 0.08183 0.1118 0.99083 0.0
H488 H 0.90996 0.90981 0.68422 0.0
H489 H 0.89297 0.90742 0.69449 0.0
H490 H 0.90116 0.85865 0.75239 0.0
H491 H 0.91831 0.86122 0.7422 0.0
H492 H 0.88662 0.81764 0.72958 0.0
H493 H 0.87733 0.96923 0.73716 0.0
H494 H 0.88392 0.9588 0.71416 0.0
H495 H 0.88965 0.95196 0.73859 0.0
C496 C 0.90817 0.89916 0.69929 0.0
C497 C 0.91545 0.88571 0.71242 0.0
C498 C 0.89846 0.89802 0.70518 0.0
C499 C 0.89582 0.88328 0.72428 0.0
C500 C 0.90308 0.87046 0.73765 0.0
H501 H 0.83256 0.88639 0.74395 0.0
H502 H 0.84981 0.88788 0.75345 0.0
C503 C 0.91285 0.87201 0.73184 0.0
C504 C 0.88542 0.87835 0.72916 0.0
H505 H 0.86404 0.92683 0.73001 0.0
C506 C 0.88169 0.8415 0.7302 0.0
C507 C 0.87901 0.90948 0.73019 0.0
C508 C 0.88268 0.94963 0.73017 0.0
C509 C 0.87165 0.83498 0.7306 0.0
C510 C 0.86523 0.86611 0.72981 0.0
C511 C 0.86898 0.90296 0.73045 0.0
C512 C 0.85476 0.86119 0.72558 0.0
C513 C 0.868 0.79482 0.73105 0.0
C514 C 0.85186 0.84556 0.70685 0.0
C515 C 0.84209 0.84498 0.70135 0.0
C516 C 0.83501 0.85998 0.71449 0.0
C517 C 0.83787 0.87442 0.73359 0.0
C518 C 0.84769 0.87535 0.73902 0.0
H519 H 0.8734 0.77549 0.73809 0.0
H520 H 0.86108 0.79269 0.73966 0.0
H521 H 0.86669 0.78511 0.71516 0.0
H522 H 0.8572 0.83516 0.69608 0.0
H523 H 0.84011 0.83373 0.68652 0.0
H524 H 0.91748 0.85831 0.00939 0.0
H525 H 0.90021 0.86376 0.00023 0.0
H526 H 0.89366 0.89964 0.06169 0.0
H527 H 0.91071 0.89422 0.07092 0.0
H528 H 0.88373 0.8262 0.0205 0.0
H529 H 0.88147 0.98226 0.0242 0.0
H530 H 0.89281 0.95732 0.02098 0.0
H531 H 0.88746 0.96188 0.04594 0.0
C532 C 0.91233 0.86738 0.0209 0.0
C533 C 0.91544 0.87594 0.04085 0.0
C534 C 0.9025 0.8705 0.01565 0.0
C535 C 0.89572 0.88274 0.03021 0.0
C536 C 0.89881 0.89084 0.05014 0.0
H537 H 0.83953 0.90366 0.06985 0.0
H538 H 0.85665 0.90514 0.06069 0.0
C539 C 0.90856 0.8875 0.05541 0.0
C540 C 0.88528 0.88607 0.02523 0.0
H541 H 0.86647 0.94829 0.02889 0.0
C542 C 0.87994 0.85297 0.02173 0.0
C543 C 0.8804 0.92109 0.02675 0.0
C544 C 0.88584 0.95773 0.02947 0.0
C545 C 0.86975 0.8536 0.02148 0.0
C546 C 0.86486 0.88829 0.02459 0.0
C547 C 0.87024 0.92172 0.02657 0.0
C548 C 0.85435 0.88965 0.02907 0.0
C549 C 0.86427 0.81689 0.01944 0.0
C550 C 0.84735 0.88115 0.01418 0.0
C551 C 0.83748 0.8804 0.01938 0.0
C552 C 0.83454 0.88799 0.03955 0.0
C553 C 0.84157 0.89753 0.0542 0.0
C554 C 0.85136 0.89847 0.04899 0.0
H555 H 0.86918 0.79201 0.01894 0.0
H556 H 0.85917 0.81343 0.03244 0.0
H557 H 0.85993 0.81732 0.00516 0.0
H558 H 0.84952 0.87463 0.99866 0.0
H559 H 0.83221 0.87296 0.00779 0.0
H560 H 0.09045 0.59343 0.81945 0.0
H561 H 0.10757 0.59514 0.81017 0.0
H562 H 0.09998 0.62694 0.74857 0.0
H563 H 0.08269 0.62535 0.75782 0.0
H564 H 0.11825 0.55653 0.77774 0.0
H565 H 0.11795 0.71367 0.77077 0.0
H566 H 0.10837 0.68841 0.78368 0.0
H567 H 0.10921 0.68688 0.75634 0.0
C568 C 0.09239 0.60036 0.80385 0.0
C569 C 0.08524 0.60951 0.78939 0.0
C570 C 0.10218 0.60124 0.79856 0.0
C571 C 0.10503 0.61151 0.77876 0.0
C572 C 0.09791 0.61927 0.76399 0.0
H573 H 0.16863 0.61531 0.75819 0.0
H574 H 0.15135 0.61097 0.74909 0.0
C575 C 0.08806 0.61819 0.76926 0.0
C576 C 0.11549 0.61606 0.77435 0.0
H577 H 0.1331 0.68362 0.77101 0.0
C578 C 0.12151 0.58417 0.77571 0.0
C579 C 0.11969 0.65226 0.7719 0.0
C580 C 0.11352 0.68743 0.77066 0.0
C581 C 0.13164 0.58774 0.77571 0.0
C582 C 0.13582 0.6241 0.77433 0.0
C583 C 0.12983 0.6558 0.77191 0.0
C584 C 0.14623 0.63005 0.77859 0.0
C585 C 0.13783 0.55299 0.77858 0.0
C586 C 0.149 0.64296 0.79798 0.0
C587 C 0.15878 0.64524 0.80322 0.0
C588 C 0.16599 0.63494 0.7891 0.0
C589 C 0.16322 0.62352 0.76934 0.0
C590 C 0.15338 0.62093 0.76415 0.0
H591 H 0.13344 0.52677 0.77975 0.0
H592 H 0.14291 0.55008 0.7655 0.0
H593 H 0.14226 0.55593 0.79267 0.0
H594 H 0.14357 0.65005 0.80931 0.0
H595 H 0.16068 0.6542 0.81854 0.0
H596 H 0.09014 0.65581 0.42988 0.0
H597 H 0.10716 0.65536 0.43979 0.0
H598 H 0.09915 0.62813 0.5018 0.0
H599 H 0.08193 0.62837 0.49189 0.0
H600 H 0.11718 0.69781 0.47117 0.0
H601 H 0.11805 0.54175 0.48346 0.0
H602 H 0.10834 0.56419 0.46946 0.0
H603 H 0.10904 0.56936 0.49668 0.0
C604 C 0.09196 0.65005 0.44568 0.0
C605 C 0.08471 0.64191 0.46009 0.0
C606 C 0.1017 0.64988 0.45133 0.0
C607 C 0.10441 0.64134 0.47146 0.0
C608 C 0.09719 0.63439 0.48613 0.0
H609 H 0.16781 0.61188 0.49129 0.0
H610 H 0.15064 0.61802 0.50126 0.0
C611 C 0.08738 0.63475 0.48048 0.0
C612 C 0.11486 0.6384 0.47636 0.0
H613 H 0.13298 0.5732 0.48136 0.0
C614 C 0.12063 0.67074 0.47396 0.0
C615 C 0.11933 0.60303 0.48002 0.0
C616 C 0.11343 0.56743 0.4825 0.0
C617 C 0.13077 0.66822 0.47376 0.0
C618 C 0.13522 0.63246 0.47583 0.0
C619 C 0.1295 0.60054 0.4798 0.0
C620 C 0.14552 0.62705 0.47039 0.0
C621 C 0.13668 0.70345 0.4701 0.0
C622 C 0.14821 0.62929 0.44978 0.0
C623 C 0.15789 0.62556 0.44408 0.0
C624 C 0.16511 0.61958 0.45889 0.0
C625 C 0.16239 0.61648 0.47956 0.0
C626 C 0.15263 0.62002 0.48528 0.0
H627 H 0.1325 0.72943 0.47379 0.0
H628 H 0.14342 0.70305 0.47939 0.0
H629 H 0.13879 0.70472 0.45374 0.0
H630 H 0.1428 0.63435 0.43808 0.0
H631 H 0.15973 0.62804 0.42803 0.0
H632 H 0.91667 0.38655 0.24124 0.0
H633 H 0.89936 0.38039 0.24992 0.0
H634 H 0.89311 0.34902 0.18761 0.0
H635 H 0.91019 0.35511 0.17887 0.0
H636 H 0.88286 0.41893 0.23037 0.0
H637 H 0.88096 0.26328 0.22294 0.0
H638 H 0.89224 0.28827 0.22683 0.0
H639 H 0.88695 0.28552 0.20174 0.0
C640 C 0.91158 0.37836 0.22944 0.0
C641 C 0.91479 0.37119 0.2094 0.0
C642 C 0.90173 0.37482 0.23442 0.0
C643 C 0.89501 0.36359 0.21948 0.0
C644 C 0.89821 0.357 0.19945 0.0
H645 H 0.83906 0.34491 0.17836 0.0
H646 H 0.85615 0.34373 0.18775 0.0
C647 C 0.90798 0.36072 0.19446 0.0
C648 C 0.88456 0.35957 0.2242 0.0
H649 H 0.8659 0.29714 0.21876 0.0
C650 C 0.87913 0.39218 0.22844 0.0
C651 C 0.87977 0.32455 0.22177 0.0
C652 C 0.88529 0.28833 0.21827 0.0
C653 C 0.86894 0.39119 0.22855 0.0
C654 C 0.86414 0.35666 0.2245 0.0
C655 C 0.8696 0.3236 0.22179 0.0
C656 C 0.85365 0.35536 0.21978 0.0
C657 C 0.86337 0.42748 0.23144 0.0
C658 C 0.84656 0.36165 0.23481 0.0
C659 C 0.83671 0.36217 0.22948 0.0
C660 C 0.83387 0.35662 0.20904 0.0
C661 C 0.84101 0.34943 0.19422 0.0
C662 C 0.85078 0.34868 0.19956 0.0
H663 H 0.86821 0.4524 0.23292 0.0
H664 H 0.8584 0.43213 0.21831 0.0
H665 H 0.85886 0.42544 0.24546 0.0
H666 H 0.84865 0.36653 0.25055 0.0
H667 H 0.83135 0.3678 0.2412 0.0
H668 H 0.91836 0.3597 0.50698 0.0
H669 H 0.90117 0.36567 0.49709 0.0
H670 H 0.89356 0.38704 0.55995 0.0
H671 H 0.91049 0.38088 0.56992 0.0
H672 H 0.88363 0.32273 0.51788 0.0
H673 H 0.88307 0.47924 0.52275 0.0
H674 H 0.89399 0.45261 0.51759 0.0
H675 H 0.88941 0.45603 0.54324 0.0
C676 C 0.91299 0.3654 0.51865 0.0
C677 C 0.91577 0.3699 0.53921 0.0
C678 C 0.90321 0.36885 0.51299 0.0
C679 C 0.89617 0.37724 0.5278 0.0
C680 C 0.89893 0.38096 0.5483 0.0
H681 H 0.84132 0.40627 0.57019 0.0
H682 H 0.85821 0.40592 0.55934 0.0
C683 C 0.90861 0.37728 0.55396 0.0
C684 C 0.88585 0.38229 0.52241 0.0
H685 H 0.86778 0.4476 0.52672 0.0
C686 C 0.88013 0.3501 0.51911 0.0
C687 C 0.88138 0.41809 0.52405 0.0
C688 C 0.88727 0.45359 0.52693 0.0
C689 C 0.86996 0.35243 0.51923 0.0
C690 C 0.86548 0.38791 0.52255 0.0
C691 C 0.87124 0.42045 0.52419 0.0
C692 C 0.85509 0.39087 0.52797 0.0
C693 C 0.86407 0.31664 0.51751 0.0
C694 C 0.84771 0.3833 0.51377 0.0
C695 C 0.83797 0.38361 0.51995 0.0
C696 C 0.83554 0.39131 0.54042 0.0
C697 C 0.84296 0.40008 0.55434 0.0
C698 C 0.85262 0.39997 0.54816 0.0
H699 H 0.86871 0.29102 0.51654 0.0
H700 H 0.85918 0.31382 0.53091 0.0
H701 H 0.85948 0.31796 0.5036 0.0
H702 H 0.84949 0.37657 0.49806 0.0
H703 H 0.83239 0.37674 0.50891 0.0
H704 H 0.66852 0.11036 0.75805 0.0
H705 H 0.65144 0.10692 0.74746 0.0
H706 H 0.64286 0.15957 0.8041 0.0
H707 H 0.65978 0.16297 0.81474 0.0
H708 H 0.63709 0.06693 0.76981 0.0
H709 H 0.62696 0.21728 0.76092 0.0
H710 H 0.6394 0.20125 0.76029 0.0
H711 H 0.63335 0.20853 0.78435 0.0
C712 C 0.66299 0.12188 0.76802 0.0
C713 C 0.66546 0.13692 0.78722 0.0
C714 C 0.65325 0.11983 0.76198 0.0
C715 C 0.6459 0.13343 0.77489 0.0
C716 C 0.64842 0.1496 0.79373 0.0
H717 H 0.59071 0.07903 0.8133 0.0
H718 H 0.60772 0.08152 0.80326 0.0
C719 C 0.6581 0.1513 0.79985 0.0
C720 C 0.63553 0.12753 0.76995 0.0
H721 H 0.61388 0.17407 0.76891 0.0
C722 C 0.63202 0.09034 0.76908 0.0
C723 C 0.62894 0.15805 0.76872 0.0
C724 C 0.63236 0.19854 0.76841 0.0
C725 C 0.62202 0.08292 0.76873 0.0
C726 C 0.61542 0.11346 0.76944 0.0
C727 C 0.61895 0.15063 0.76857 0.0
C728 C 0.60499 0.10769 0.7739 0.0
C729 C 0.61861 0.04242 0.76843 0.0
C730 C 0.59779 0.12155 0.76071 0.0
C731 C 0.588 0.12005 0.76643 0.0
C732 C 0.58533 0.1053 0.78558 0.0
C733 C 0.59255 0.09049 0.79844 0.0
C734 C 0.60227 0.09166 0.79266 0.0
H735 H 0.62408 0.02363 0.76119 0.0
H736 H 0.61751 0.03259 0.78437 0.0
H737 H 0.61164 0.03958 0.76008 0.0
H738 H 0.59976 0.13437 0.74626 0.0
H739 H 0.58259 0.13189 0.75628 0.0
H740 H 0.66494 0.18496 0.44441 0.0
H741 H 0.64744 0.18562 0.4495 0.0
H742 H 0.6488 0.07289 0.47465 0.0
H743 H 0.66652 0.07322 0.47065 0.0
H744 H 0.63556 0.14333 0.43038 0.0
H745 H 0.62967 0.11865 0.51301 0.0
H746 H 0.64141 0.13052 0.50267 0.0
H747 H 0.63704 0.0826 0.50159 0.0
C748 C 0.66152 0.16065 0.45145 0.0
C749 C 0.66702 0.12899 0.4571 0.0
C750 C 0.65152 0.16102 0.45435 0.0
C751 C 0.64675 0.12939 0.46254 0.0
C752 C 0.6523 0.09802 0.46877 0.0
H753 H 0.58763 0.08033 0.42861 0.0
H754 H 0.60514 0.08109 0.43368 0.0
C755 C 0.6624 0.09806 0.46635 0.0
C756 C 0.63598 0.12813 0.46229 0.0
H757 H 0.61583 0.1106 0.49122 0.0
C758 C 0.63128 0.13651 0.44379 0.0
C759 C 0.63033 0.1196 0.47978 0.0
C760 C 0.63487 0.11273 0.50043 0.0
C761 C 0.62116 0.13639 0.44219 0.0
C762 C 0.61552 0.12592 0.45936 0.0
C763 C 0.62017 0.1181 0.478 0.0
C764 C 0.60482 0.12264 0.45797 0.0
C765 C 0.61663 0.14824 0.42216 0.0
C766 C 0.59876 0.14416 0.47073 0.0
C767 C 0.58868 0.14315 0.46813 0.0
C768 C 0.58456 0.12087 0.45262 0.0
C769 C 0.59062 0.09832 0.44043 0.0
C770 C 0.60064 0.09882 0.44327 0.0
H771 H 0.62159 0.16664 0.4132 0.0
H772 H 0.61512 0.12273 0.41282 0.0
H773 H 0.60972 0.16368 0.42462 0.0
H774 H 0.60183 0.16252 0.48228 0.0
H775 H 0.58414 0.16062 0.47781 0.0
H776 H 0.34166 0.83761 0.18522 0.0
H777 H 0.35876 0.84062 0.19459 0.0
H778 H 0.35122 0.89362 0.25179 0.0
H779 H 0.33395 0.89044 0.2425 0.0
H780 H 0.36526 0.93336 0.22751 0.0
H781 H 0.37528 0.78294 0.23722 0.0
H782 H 0.36837 0.7914 0.21441 0.0
H783 H 0.36291 0.79951 0.23899 0.0
C784 C 0.34361 0.84924 0.19997 0.0
C785 C 0.33648 0.86379 0.21314 0.0
C786 C 0.35338 0.85074 0.20536 0.0
C787 C 0.35624 0.86694 0.22398 0.0
C788 C 0.34914 0.88068 0.23743 0.0
H789 H 0.41983 0.87075 0.23966 0.0
H790 H 0.40273 0.86825 0.25027 0.0
C791 C 0.3393 0.87877 0.23214 0.0
C792 C 0.3667 0.87273 0.22808 0.0
H793 H 0.38829 0.82562 0.22826 0.0
C794 C 0.37029 0.90984 0.2282 0.0
C795 C 0.37325 0.84207 0.2292 0.0
C796 C 0.36976 0.80172 0.23016 0.0
C797 C 0.3803 0.91697 0.22777 0.0
C798 C 0.38684 0.88621 0.22707 0.0
C799 C 0.38326 0.84919 0.22862 0.0
C800 C 0.39721 0.89155 0.22199 0.0
C801 C 0.3838 0.95734 0.2272 0.0
C802 C 0.39974 0.9056 0.20266 0.0
C803 C 0.40942 0.90669 0.19654 0.0
C804 C 0.41678 0.89389 0.20965 0.0
C805 C 0.4143 0.88104 0.22931 0.0
C806 C 0.40456 0.87952 0.23536 0.0
H807 H 0.37839 0.97689 0.23403 0.0
H808 H 0.39079 0.96047 0.23546 0.0
H809 H 0.38494 0.96592 0.21105 0.0
H810 H 0.39417 0.91438 0.19198 0.0
H811 H 0.41111 0.91668 0.18129 0.0
H812 H 0.34051 0.85973 0.56765 0.0
H813 H 0.35749 0.85806 0.55753 0.0
H814 H 0.34971 0.89226 0.49644 0.0
H815 H 0.33248 0.89384 0.50648 0.0
H816 H 0.36567 0.81345 0.52075 0.0
H817 H 0.37129 0.96962 0.5208 0.0
H818 H 0.3617 0.94869 0.5358 0.0
H819 H 0.36083 0.94914 0.50847 0.0
C820 C 0.34236 0.86697 0.55204 0.0
C821 C 0.33516 0.87705 0.53787 0.0
C822 C 0.35207 0.86583 0.54628 0.0
C823 C 0.35482 0.87495 0.52627 0.0
C824 C 0.34769 0.88513 0.51197 0.0
H825 H 0.41867 0.8553 0.50863 0.0
H826 H 0.40158 0.85639 0.49756 0.0
C827 C 0.33789 0.88608 0.51772 0.0
C828 C 0.36524 0.87426 0.52104 0.0
H829 H 0.3852 0.93113 0.52196 0.0
C830 C 0.36996 0.83914 0.52029 0.0
C831 C 0.37076 0.90787 0.52059 0.0
C832 C 0.36595 0.94613 0.52145 0.0
C833 C 0.38012 0.83677 0.52054 0.0
C834 C 0.38562 0.87034 0.52168 0.0
C835 C 0.38092 0.90549 0.52096 0.0
C836 C 0.39595 0.86944 0.52761 0.0
C837 C 0.38492 0.79851 0.5213 0.0
C838 C 0.39835 0.87619 0.54808 0.0
C839 C 0.40798 0.87532 0.55442 0.0
C840 C 0.41545 0.86789 0.54037 0.0
C841 C 0.41305 0.86101 0.51979 0.0
C842 C 0.40333 0.8617 0.51344 0.0
H843 H 0.37964 0.77507 0.51942 0.0
H844 H 0.39047 0.79641 0.50906 0.0
H845 H 0.3887 0.79502 0.53618 0.0
H846 H 0.39273 0.88206 0.55922 0.0
H847 H 0.40957 0.88083 0.57036 0.0
H848 H 0.66125 0.64772 0.32558 0.0
H849 H 0.6439 0.64668 0.31867 0.0
H850 H 0.64958 0.63137 0.25437 0.0
H851 H 0.66712 0.63214 0.26122 0.0
H852 H 0.63277 0.69421 0.29202 0.0
H853 H 0.63131 0.54201 0.27009 0.0
H854 H 0.64154 0.56185 0.28358 0.0
H855 H 0.63984 0.57191 0.25695 0.0
C856 C 0.65884 0.64431 0.30993 0.0
C857 C 0.66555 0.63985 0.29395 0.0
C858 C 0.64891 0.64376 0.30601 0.0
C859 C 0.64546 0.63854 0.28606 0.0
C860 C 0.65211 0.63493 0.26992 0.0
H861 H 0.58267 0.61039 0.26226 0.0
H862 H 0.60014 0.61691 0.25552 0.0
C863 C 0.66211 0.63561 0.27383 0.0
C864 C 0.63485 0.63644 0.28264 0.0
H865 H 0.61647 0.57386 0.27371 0.0
C866 C 0.62921 0.66808 0.28768 0.0
C867 C 0.63023 0.60235 0.2769 0.0
C868 C 0.63599 0.56741 0.27165 0.0
C869 C 0.61906 0.66609 0.288 0.0
C870 C 0.61445 0.6314 0.28346 0.0
C871 C 0.62005 0.60035 0.27725 0.0
C872 C 0.60396 0.62598 0.28721 0.0
C873 C 0.61334 0.70082 0.29381 0.0
C874 C 0.60042 0.62796 0.30727 0.0
C875 C 0.59053 0.62407 0.31115 0.0
C876 C 0.58397 0.61805 0.29504 0.0
C877 C 0.58755 0.61508 0.27497 0.0
C878 C 0.59751 0.61883 0.27109 0.0
H879 H 0.61758 0.72709 0.29122 0.0
H880 H 0.60648 0.70255 0.28496 0.0
H881 H 0.61147 0.69938 0.31029 0.0
H882 H 0.60532 0.63283 0.31995 0.0
H883 H 0.58802 0.62637 0.32679 0.0
H884 H 0.66765 0.62951 0.9945 0.0
H885 H 0.65057 0.63045 0.00532 0.0
H886 H 0.64202 0.58889 0.94602 0.0
H887 H 0.65892 0.58788 0.9352 0.0
H888 H 0.63607 0.67382 0.98616 0.0
H889 H 0.62627 0.52248 0.98512 0.0
H890 H 0.63869 0.53853 0.98649 0.0
H891 H 0.63253 0.5361 0.96225 0.0
C892 C 0.66212 0.61986 0.98396 0.0
C893 C 0.6646 0.60862 0.96401 0.0
C894 C 0.65239 0.62048 0.99014 0.0
C895 C 0.64505 0.60923 0.97657 0.0
C896 C 0.64757 0.59691 0.95689 0.0
H897 H 0.59045 0.67143 0.93974 0.0
H898 H 0.60721 0.66829 0.95135 0.0
C899 C 0.65724 0.5966 0.95068 0.0
C900 C 0.63466 0.61369 0.98185 0.0
H901 H 0.61311 0.56674 0.97903 0.0
C902 C 0.63106 0.65029 0.98515 0.0
C903 C 0.62813 0.58295 0.9809 0.0
C904 C 0.63162 0.54275 0.97871 0.0
C905 C 0.62104 0.65734 0.98569 0.0
C906 C 0.61451 0.62707 0.98258 0.0
C907 C 0.61812 0.59006 0.98116 0.0
C908 C 0.60413 0.63356 0.97782 0.0
C909 C 0.61756 0.69735 0.98873 0.0
C910 C 0.59678 0.61518 0.98888 0.0
C911 C 0.58713 0.61695 0.98222 0.0
C912 C 0.58475 0.6366 0.96422 0.0
C913 C 0.59206 0.65614 0.95369 0.0
C914 C 0.60165 0.65461 0.96041 0.0
H915 H 0.62282 0.71394 0.99795 0.0
H916 H 0.61687 0.71134 0.97361 0.0
H917 H 0.61038 0.69807 0.99642 0.0
H918 H 0.59856 0.59847 0.00224 0.0
H919 H 0.58164 0.60141 0.99056 0.0
H920 H 0.34093 0.33938 0.68259 0.0
H921 H 0.35797 0.34262 0.69256 0.0
H922 H 0.34981 0.38857 0.75114 0.0
H923 H 0.33262 0.38505 0.74129 0.0
H924 H 0.36424 0.43137 0.7276 0.0
H925 H 0.37377 0.27986 0.73529 0.0
H926 H 0.36693 0.29053 0.71264 0.0
H927 H 0.36146 0.29705 0.73735 0.0
C928 C 0.34274 0.34961 0.69773 0.0
C929 C 0.33546 0.36193 0.71118 0.0
C930 C 0.35247 0.35127 0.70344 0.0
C931 C 0.35513 0.36545 0.72265 0.0
C932 C 0.34788 0.37722 0.73631 0.0
H933 H 0.41833 0.36474 0.74343 0.0
H934 H 0.40102 0.36287 0.75249 0.0
C935 C 0.33809 0.37512 0.73069 0.0
C936 C 0.36553 0.3707 0.72744 0.0
H937 H 0.38697 0.32267 0.72867 0.0
C938 C 0.3692 0.40764 0.72834 0.0
C939 C 0.37197 0.33971 0.7286 0.0
C940 C 0.36834 0.29951 0.72862 0.0
C941 C 0.37923 0.41436 0.72881 0.0
C942 C 0.3857 0.38335 0.72825 0.0
C943 C 0.382 0.34643 0.72896 0.0
C944 C 0.39618 0.38843 0.72423 0.0
C945 C 0.38284 0.45459 0.72908 0.0
C946 C 0.39915 0.40355 0.70543 0.0
C947 C 0.40895 0.40431 0.70018 0.0
C948 C 0.41599 0.39006 0.71366 0.0
C949 C 0.41305 0.37613 0.73282 0.0
C950 C 0.4032 0.37498 0.73798 0.0
H951 H 0.37736 0.47402 0.73578 0.0
H952 H 0.38969 0.45705 0.7379 0.0
H953 H 0.38427 0.46391 0.71316 0.0
H954 H 0.39385 0.4134 0.69443 0.0
H955 H 0.41099 0.41517 0.6853 0.0
H956 H 0.33074 0.3851 0.00961 0.0
H957 H 0.34799 0.37858 0.00036 0.0
H958 H 0.35553 0.373 0.06425 0.0
H959 H 0.33852 0.37961 0.07357 0.0
H960 H 0.3652 0.42587 0.01611 0.0
H961 H 0.36653 0.27359 0.03595 0.0
H962 H 0.35538 0.29774 0.02952 0.0
H963 H 0.36052 0.30255 0.05464 0.0
C964 C 0.33611 0.38282 0.02163 0.0
C965 C 0.33328 0.38267 0.0423 0.0
C966 C 0.34592 0.37904 0.01633 0.0
C967 C 0.35297 0.37474 0.03165 0.0
C968 C 0.35017 0.37576 0.05222 0.0
H969 H 0.40936 0.36156 0.07085 0.0
H970 H 0.39213 0.36034 0.06265 0.0
C971 C 0.34044 0.37968 0.05751 0.0
C972 C 0.36331 0.36878 0.02666 0.0
H973 H 0.38172 0.30675 0.03595 0.0
C974 C 0.36883 0.39956 0.01983 0.0
C975 C 0.36796 0.33434 0.03152 0.0
C976 C 0.36229 0.3 0.03815 0.0
C977 C 0.37901 0.39767 0.01935 0.0
C978 C 0.38369 0.36407 0.02571 0.0
C979 C 0.37811 0.33249 0.03112 0.0
C980 C 0.39422 0.36297 0.02991 0.0
C981 C 0.38473 0.43237 0.01353 0.0
C982 C 0.40112 0.36423 0.01414 0.0
C983 C 0.41104 0.36476 0.0188 0.0
C984 C 0.41415 0.36421 0.03928 0.0
C985 C 0.4072 0.36212 0.05493 0.0
C986 C 0.39735 0.36138 0.05028 0.0
H987 H 0.37999 0.45707 0.01035 0.0
H988 H 0.38984 0.43992 0.026 0.0
H989 H 0.38909 0.42633 -0.00034 0.0
H990 H 0.39882 0.36514 0.99831 0.0
H991 H 0.41625 0.36639 0.00644 0.0
H992 H 0.03818 0.17887 0.25337 0.0
H993 H 0.02441 0.21644 0.24109 0.0
H994 H 0.00894 0.19308 0.29695 0.0
H995 H 0.02262 0.1555 0.30931 0.0
H996 H 0.99758 0.18753 0.25977 0.0
H997 H 0.01809 0.32231 0.26609 0.0
H998 H 0.02384 0.28556 0.25146 0.0
H999 H 0.02201 0.27925 0.27842 0.0
C1000 C 0.03178 0.18124 0.26288 0.0
C1001 C 0.03149 0.1644 0.28234 0.0
C1002 C 0.02396 0.20295 0.25593 0.0
C1003 C 0.01574 0.20805 0.2683 0.0
C1004 C 0.01525 0.18969 0.28726 0.0
H1005 H 0.9609 0.32922 0.25361 0.0
H1006 H 0.9746 0.29393 0.26802 0.0
C1007 C 0.02306 0.16819 0.29426 0.0
C1008 C 0.00777 0.23339 0.26181 0.0
H1009 H 0.00235 0.32582 0.25193 0.0
C1010 C 0.99859 0.21778 0.2581 0.0
C1011 C 0.00913 0.27283 0.25975 0.0
C1012 C 0.01877 0.2912 0.26428 0.0
C1013 C 0.99078 0.24048 0.25188 0.0
C1014 C 0.99214 0.27998 0.24982 0.0
C1015 C 0.00131 0.29559 0.25364 0.0
C1016 C 0.98424 0.30522 0.24265 0.0
C1017 C 0.98122 0.22178 0.24695 0.0
C1018 C 0.98533 0.32511 0.22424 0.0
C1019 C 0.97758 0.34564 0.21613 0.0
C1020 C 0.9686 0.34673 0.2263 0.0
C1021 C 0.96772 0.32883 0.2454 0.0
C1022 C 0.9755 0.30833 0.25354 0.0
H1023 H 0.98205 0.19085 0.24457 0.0
H1024 H 0.97613 0.22613 0.25987 0.0
H1025 H 0.97793 0.2343 0.23301 0.0
H1026 H 0.99204 0.32338 0.21568 0.0
H1027 H 0.9785 0.35919 0.20141 0.0
H1028 H 0.21281 0.08117 0.24818 0.0
H1029 H 0.22663 0.0459 0.23432 0.0
H1030 H 0.24233 0.06358 0.29053 0.0
H1031 H 0.22864 0.09921 0.30434 0.0
H1032 H 0.25383 0.07177 0.25556 0.0
H1033 H 0.23271 0.93807 0.25381 0.0
H1034 H 0.22739 0.97651 0.2398 0.0
H1035 H 0.22854 0.9797 0.26711 0.0
C1036 C 0.21927 0.0781 0.25743 0.0
C1037 C 0.21962 0.09274 0.27739 0.0
C1038 C 0.22712 0.05765 0.24958 0.0
C1039 C 0.23541 0.05139 0.26159 0.0
C1040 C 0.23597 0.0678 0.28107 0.0
H1041 H 0.28923 0.92378 0.24906 0.0
H1042 H 0.27545 0.96017 0.26231 0.0
C1043 C 0.22814 0.08821 0.28892 0.0
C1044 C 0.24337 0.02668 0.25428 0.0
H1045 H 0.24862 0.93587 0.24032 0.0
C1046 C 0.2527 0.04205 0.25226 0.0
C1047 C 0.24188 0.98784 0.25012 0.0
C1048 C 0.23212 0.96935 0.25297 0.0
C1049 C 0.26056 0.01976 0.24581 0.0
C1050 C 0.25906 0.98096 0.24162 0.0
C1051 C 0.24973 0.9656 0.24362 0.0
C1052 C 0.26703 0.9562 0.23447 0.0
C1053 C 0.27035 0.03808 0.2431 0.0
C1054 C 0.26667 0.94057 0.21479 0.0
C1055 C 0.27448 0.91967 0.20725 0.0
C1056 C 0.28278 0.91378 0.21932 0.0
C1057 C 0.28294 0.92785 0.23942 0.0
C1058 C 0.27511 0.94891 0.24693 0.0
H1059 H 0.26982 0.06941 0.2426 0.0
H1060 H 0.27508 0.03024 0.25615 0.0
H1061 H 0.27388 0.02811 0.22883 0.0
H1062 H 0.26047 0.94564 0.20499 0.0
H1063 H 0.27414 0.90914 0.19172 0.0
H1064 H 0.03811 0.07271 0.99628 0.0
H1065 H 0.02453 0.03481 0.00917 0.0
H1066 H 0.00878 0.05535 0.95333 0.0
H1067 H 0.02227 0.09324 0.94037 0.0
H1068 H 0.99753 0.06151 0.99065 0.0
H1069 H 0.01857 0.92775 0.98526 0.0
H1070 H 0.02419 0.96535 0.99945 0.0
H1071 H 0.02227 0.97062 0.97246 0.0
C1072 C 0.03169 0.06964 0.9869 0.0
C1073 C 0.03127 0.08577 0.96729 0.0
C1074 C 0.02398 0.04775 0.9942 0.0
C1075 C 0.01574 0.04177 0.98202 0.0
C1076 C 0.0151 0.05943 0.96289 0.0
H1077 H 0.96144 0.91796 0.99743 0.0
H1078 H 0.97502 0.95377 0.98298 0.0
C1079 C 0.02281 0.08111 0.95554 0.0
C1080 C 0.00789 0.01618 0.98886 0.0
H1081 H 0.00284 0.92371 0.99943 0.0
C1082 C 0.99866 0.03137 0.99253 0.0
C1083 C 0.00942 0.97688 0.99122 0.0
C1084 C 0.01912 0.95896 0.98676 0.0
C1085 C 0.99095 0.00839 0.99896 0.0
C1086 C 0.99246 0.96901 0.00127 0.0
C1087 C 0.00169 0.95383 0.99752 0.0
C1088 C 0.98465 0.94347 0.00851 0.0
C1089 C 0.98132 0.02665 0.0038 0.0
C1090 C 0.98577 0.92397 0.02702 0.0
C1091 C 0.97809 0.90314 0.03516 0.0
C1092 C 0.96914 0.90137 0.0249 0.0
C1093 C 0.96823 0.91889 0.00571 0.0
C1094 C 0.97595 0.93968 0.99754 0.0
H1095 H 0.98204 0.05766 0.00604 0.0
H1096 H 0.97625 0.02184 0.9909 0.0
H1097 H 0.97808 0.01419 0.01779 0.0
H1098 H 0.99245 0.92622 0.03564 0.0
H1099 H 0.97902 0.8899 0.04996 0.0
H1100 H 0.22727 0.15441 0.94271 0.0
H1101 H 0.24066 0.19133 0.95683 0.0
H1102 H 0.22441 0.20861 0.01239 0.0
H1103 H 0.21102 0.17112 0.99847 0.0
H1104 H 0.23943 0.26638 0.9679 0.0
H1105 H 0.25106 0.17891 0.03395 0.0
H1106 H 0.24346 0.16064 0.01377 0.0
H1107 H 0.23834 0.18956 0.03363 0.0
C1108 C 0.22662 0.1654 0.95811 0.0
C1109 C 0.2181 0.15979 0.96952 0.0
C1110 C 0.23426 0.18662 0.96611 0.0
C1111 C 0.23356 0.20256 0.98569 0.0
C1112 C 0.22519 0.19602 0.99739 0.0
H1113 H 0.26998 0.35253 0.05674 0.0
H1114 H 0.25643 0.3167 0.04248 0.0
C1115 C 0.21754 0.17463 0.98941 0.0
C1116 C 0.24131 0.22809 0.99321 0.0
H1117 H 0.25769 0.2407 0.03171 0.0
C1118 C 0.24346 0.26069 0.98181 0.0
C1119 C 0.24653 0.22067 0.01138 0.0
C1120 C 0.24481 0.18539 0.02382 0.0
C1121 C 0.2506 0.28637 0.98824 0.0
C1122 C 0.25581 0.27896 0.0064 0.0
C1123 C 0.25365 0.24639 0.01782 0.0
C1124 C 0.2636 0.30431 0.01385 0.0
C1125 C 0.25237 0.32157 0.97576 0.0
C1126 C 0.27206 0.30991 0.00229 0.0
C1127 C 0.27982 0.3306 0.01037 0.0
C1128 C 0.27925 0.34572 0.0302 0.0
C1129 C 0.27063 0.3413 0.0414 0.0
C1130 C 0.26289 0.3207 0.03331 0.0
H1131 H 0.24617 0.32795 0.96547 0.0
H1132 H 0.25366 0.34637 0.9858 0.0
H1133 H 0.2589 0.31738 0.96613 0.0
H1134 H 0.27283 0.29699 0.98737 0.0
H1135 H 0.2864 0.33324 0.00146 0.0
H1136 H 0.97783 0.84297 0.69069 0.0
H1137 H 0.99153 0.80724 0.70445 0.0
H1138 H 0.97658 0.79532 0.76197 0.0
H1139 H 0.96277 0.83088 0.74825 0.0
H1140 H 0.00344 0.81819 0.7396 0.0
H1141 H 0.98204 0.6853 0.74358 0.0
H1142 H 0.97802 0.72615 0.72935 0.0
H1143 H 0.97681 0.72503 0.75669 0.0
C1144 C 0.9775 0.8332 0.70637 0.0
C1145 C 0.9692 0.83951 0.71836 0.0
C1146 C 0.98533 0.81275 0.71418 0.0
C1147 C 0.98498 0.79803 0.73407 0.0
C1148 C 0.9769 0.80587 0.74644 0.0
H1149 H 0.02282 0.65761 0.80648 0.0
H1150 H 0.00938 0.69381 0.79204 0.0
C1151 C 0.96906 0.82644 0.73865 0.0
C1152 C 0.99292 0.77344 0.74152 0.0
H1153 H 0.99797 0.6833 0.75693 0.0
C1154 C 0.00227 0.78868 0.74334 0.0
C1155 C 0.99136 0.7349 0.74627 0.0
C1156 C 0.98154 0.71665 0.74374 0.0
C1157 C 0.01007 0.76658 0.75025 0.0
C1158 C 0.0085 0.72805 0.75506 0.0
C1159 C 0.99916 0.7128 0.75315 0.0
C1160 C 0.01638 0.70356 0.76292 0.0
C1161 C 0.01987 0.7849 0.75287 0.0
C1162 C 0.02464 0.6959 0.75106 0.0
C1163 C 0.03235 0.67507 0.75926 0.0
C1164 C 0.03188 0.66152 0.77944 0.0
C1165 C 0.02341 0.66774 0.7909 0.0
C1166 C 0.01572 0.68847 0.78269 0.0
H1167 H 0.01936 0.81624 0.75301 0.0
H1168 H 0.02336 0.77546 0.76729 0.0
H1169 H 0.02463 0.77655 0.73996 0.0
H1170 H 0.0252 0.70666 0.7356 0.0
H1171 H 0.03878 0.6707 0.75007 0.0
H1172 H 0.72722 0.08838 0.81183 0.0
H1173 H 0.74097 0.05335 0.7979 0.0
H1174 H 0.72696 0.04914 0.73902 0.0
H1175 H 0.71308 0.084 0.75293 0.0
H1176 H 0.73329 0.97835 0.75367 0.0
H1177 H 0.76263 0.08527 0.75864 0.0
H1178 H 0.75598 0.07869 0.78197 0.0
H1179 H 0.74995 0.0977 0.75989 0.0
C1180 C 0.72713 0.08062 0.79581 0.0
C1181 C 0.71907 0.089 0.78345 0.0
C1182 C 0.73502 0.06071 0.78786 0.0
C1183 C 0.73503 0.04894 0.76739 0.0
C1184 C 0.72711 0.05812 0.75485 0.0
H1185 H 0.77312 0.91205 0.69296 0.0
H1186 H 0.75949 0.94712 0.70732 0.0
C1187 C 0.71921 0.07817 0.76278 0.0
C1188 C 0.74298 0.0248 0.75953 0.0
H1189 H 0.76744 0.02209 0.75162 0.0
C1190 C 0.74075 0.98796 0.75309 0.0
C1191 C 0.75271 0.03732 0.75898 0.0
C1192 C 0.75548 0.07701 0.76507 0.0
C1193 C 0.74801 0.96309 0.74635 0.0
C1194 C 0.75774 0.97565 0.74574 0.0
C1195 C 0.75998 0.01246 0.75223 0.0
C1196 C 0.76567 0.95164 0.73763 0.0
C1197 C 0.74523 0.92338 0.74032 0.0
C1198 C 0.7737 0.94256 0.74989 0.0
C1199 C 0.78154 0.9225 0.74169 0.0
C1200 C 0.7815 0.91155 0.72104 0.0
C1201 C 0.77334 0.91988 0.70896 0.0
C1202 C 0.76552 0.93982 0.71717 0.0
H1203 H 0.73815 0.91499 0.74703 0.0
H1204 H 0.74457 0.92181 0.72343 0.0
H1205 H 0.75083 0.90273 0.74522 0.0
H1206 H 0.77397 0.95159 0.76571 0.0
H1207 H 0.78775 0.91671 0.75133 0.0
H1208 H 0.7265 0.65808 0.94023 0.0
H1209 H 0.74033 0.6929 0.95398 0.0
H1210 H 0.72606 0.70066 0.01249 0.0
H1211 H 0.71211 0.66595 0.99876 0.0
H1212 H 0.73267 0.7706 0.9966 0.0
H1213 H 0.76168 0.66184 0.99441 0.0
H1214 H 0.75512 0.66724 0.97087 0.0
H1215 H 0.74895 0.65001 0.9932 0.0
C1216 C 0.72637 0.66655 0.95614 0.0
C1217 C 0.71822 0.65923 0.96843 0.0
C1218 C 0.7343 0.68635 0.96399 0.0
C1219 C 0.73425 0.69909 0.98429 0.0
C1220 C 0.72625 0.69091 0.99679 0.0
H1221 H 0.77215 0.8386 0.05746 0.0
H1222 H 0.75851 0.80362 0.0431 0.0
C1223 C 0.71831 0.67095 0.98896 0.0
C1224 C 0.74224 0.72327 0.99194 0.0
H1225 H 0.76664 0.7251 0.00056 0.0
C1226 C 0.74009 0.76062 0.9976 0.0
C1227 C 0.75191 0.71025 0.99301 0.0
C1228 C 0.75458 0.67005 0.98772 0.0
C1229 C 0.7474 0.78551 0.00407 0.0
C1230 C 0.75708 0.77245 0.00525 0.0
C1231 C 0.75922 0.73512 0.99952 0.0
C1232 C 0.76502 0.79646 0.01325 0.0
C1233 C 0.74472 0.82575 0.00922 0.0
C1234 C 0.77324 0.80401 0.00125 0.0
C1235 C 0.78109 0.82398 0.00946 0.0
C1236 C 0.78087 0.83639 0.02987 0.0
C1237 C 0.77252 0.82963 0.04164 0.0
C1238 C 0.76469 0.80975 0.03344 0.0
H1239 H 0.73776 0.83417 0.00195 0.0
H1240 H 0.74384 0.82842 0.02602 0.0
H1241 H 0.75047 0.84574 0.00427 0.0
H1242 H 0.77366 0.79382 0.98566 0.0
H1243 H 0.78745 0.82855 7e-05 0.0
H1244 H 0.21237 0.57574 0.75037 0.0
H1245 H 0.22589 0.53923 0.73609 0.0
H1246 H 0.24198 0.55472 0.79198 0.0
H1247 H 0.22858 0.59141 0.80626 0.0
H1248 H 0.25319 0.56362 0.75608 0.0
H1249 H 0.23182 0.43043 0.75536 0.0
H1250 H 0.22641 0.46944 0.74194 0.0
H1251 H 0.22796 0.47197 0.76917 0.0
C1252 C 0.21885 0.57185 0.75948 0.0
C1253 C 0.2194 0.58623 0.77947 0.0
C1254 C 0.22653 0.55072 0.75138 0.0
C1255 C 0.23484 0.54364 0.76316 0.0
C1256 C 0.2356 0.55961 0.78271 0.0
H1257 H 0.28841 0.416 0.74826 0.0
H1258 H 0.27471 0.45205 0.76208 0.0
C1259 C 0.22794 0.58061 0.79082 0.0
C1260 C 0.24267 0.51872 0.75546 0.0
H1261 H 0.24762 0.42772 0.74139 0.0
C1262 C 0.25199 0.5339 0.75289 0.0
C1263 C 0.24107 0.47992 0.75141 0.0
C1264 C 0.2313 0.46176 0.75475 0.0
C1265 C 0.25973 0.51143 0.74605 0.0
C1266 C 0.25813 0.47261 0.74206 0.0
C1267 C 0.24881 0.45745 0.74456 0.0
C1268 C 0.26601 0.44763 0.73465 0.0
C1269 C 0.2695 0.52958 0.74274 0.0
C1270 C 0.26545 0.43177 0.71505 0.0
C1271 C 0.27322 0.41103 0.70718 0.0
C1272 C 0.28167 0.40558 0.71885 0.0
C1273 C 0.282 0.41974 0.73892 0.0
C1274 C 0.27422 0.44061 0.74676 0.0
H1275 H 0.26899 0.5609 0.74206 0.0
H1276 H 0.27437 0.522 0.7556 0.0
H1277 H 0.27287 0.51925 0.72836 0.0
H1278 H 0.25914 0.43664 0.70553 0.0
H1279 H 0.27274 0.40042 0.69168 0.0
H1280 H 0.02224 0.5956 0.4409 0.0
H1281 H 0.00872 0.55893 0.45463 0.0
H1282 H 0.0245 0.54196 0.5108 0.0
H1283 H 0.03802 0.57924 0.49728 0.0
H1284 H 0.0098 0.48411 0.4658 0.0
H1285 H 0.99774 0.57168 0.53143 0.0
H1286 H 0.00552 0.58985 0.51154 0.0
H1287 H 0.01046 0.56097 0.53162 0.0
C1288 C 0.02275 0.58475 0.45635 0.0
C1289 C 0.03118 0.59037 0.46804 0.0
C1290 C 0.01503 0.56367 0.46413 0.0
C1291 C 0.01557 0.54788 0.48376 0.0
C1292 C 0.02385 0.55445 0.49575 0.0
H1293 H 0.97906 0.3972 0.55395 0.0
H1294 H 0.99264 0.43306 0.53981 0.0
C1295 C 0.03158 0.57571 0.488 0.0
C1296 C 0.00777 0.5224 0.49106 0.0
H1297 H 0.99121 0.50967 0.5292 0.0
C1298 C 0.00569 0.48978 0.4796 0.0
C1299 C 0.00245 0.52981 0.50909 0.0
C1300 C 0.00407 0.56514 0.52155 0.0
C1301 C 0.99853 0.46406 0.48588 0.0
C1302 C 0.99324 0.47143 0.50394 0.0
C1303 C 0.99532 0.50403 0.51539 0.0
C1304 C 0.98545 0.44596 0.51126 0.0
C1305 C 0.99682 0.42887 0.47336 0.0
C1306 C 0.97699 0.44062 0.49968 0.0
C1307 C 0.96922 0.41995 0.50769 0.0
C1308 C 0.96978 0.40456 0.52747 0.0
C1309 C 0.97842 0.40865 0.53865 0.0
C1310 C 0.98617 0.42926 0.53064 0.0
H1311 H 0.00302 0.42271 0.46303 0.0
H1312 H 0.99559 0.404 0.48339 0.0
H1313 H 0.99026 0.43288 0.46379 0.0
H1314 H 0.97623 0.45377 0.48481 0.0
H1315 H 0.96263 0.41756 0.49879 0.0
H1316 H 0.22846 0.64631 0.44418 0.0
H1317 H 0.24206 0.6828 0.45773 0.0
H1318 H 0.22529 0.70999 0.51141 0.0
H1319 H 0.21168 0.67306 0.49806 0.0
H1320 H 0.24121 0.75977 0.46585 0.0
H1321 H 0.25149 0.67955 0.5355 0.0
H1322 H 0.24404 0.65951 0.51556 0.0
H1323 H 0.23885 0.69132 0.53398 0.0
C1324 C 0.22774 0.65934 0.45909 0.0
C1325 C 0.219 0.65677 0.47008 0.0
C1326 C 0.2355 0.68032 0.46676 0.0
C1327 C 0.23471 0.69898 0.4856 0.0
C1328 C 0.22612 0.69531 0.49699 0.0
H1329 H 0.27172 0.85264 0.55292 0.0
H1330 H 0.25797 0.81703 0.53938 0.0
C1331 C 0.21835 0.67422 0.48934 0.0
C1332 C 0.24257 0.72448 0.49254 0.0
H1333 H 0.25865 0.74003 0.53127 0.0
C1334 C 0.24506 0.75538 0.48011 0.0
C1335 C 0.24755 0.71877 0.51118 0.0
C1336 C 0.24543 0.68532 0.52477 0.0
C1337 C 0.25231 0.78105 0.48596 0.0
C1338 C 0.25729 0.77531 0.50458 0.0
C1339 C 0.25479 0.74445 0.51702 0.0
C1340 C 0.26522 0.80059 0.51144 0.0
C1341 C 0.25444 0.81448 0.47236 0.0
C1342 C 0.2738 0.80387 0.5 0.0
C1343 C 0.28167 0.82443 0.50765 0.0
C1344 C 0.28111 0.84175 0.52695 0.0
C1345 C 0.27237 0.83969 0.53797 0.0
C1346 C 0.26452 0.81922 0.53031 0.0
H1347 H 0.24836 0.82037 0.46169 0.0
H1348 H 0.25587 0.84026 0.48156 0.0
H1349 H 0.26099 0.80837 0.46308 0.0
H1350 H 0.27456 0.7892 0.48555 0.0
H1351 H 0.28833 0.82522 0.4989 0.0
H1352 H 0.78719 0.42622 0.24536 0.0
H1353 H 0.77322 0.46269 0.25759 0.0
H1354 H 0.7566 0.42628 0.20537 0.0
H1355 H 0.7705 0.38993 0.19301 0.0
H1356 H 0.76435 0.52221 0.2321 0.0
H1357 H 0.73821 0.41073 0.2557 0.0
H1358 H 0.75111 0.40228 0.25407 0.0
H1359 H 0.74394 0.40454 0.23122 0.0
C1360 C 0.78048 0.42527 0.23675 0.0
C1361 C 0.77993 0.40522 0.21824 0.0
C1362 C 0.77254 0.44626 0.24369 0.0
C1363 C 0.76389 0.44703 0.2324 0.0
C1364 C 0.76318 0.42569 0.21441 0.0
H1365 H 0.70899 0.56563 0.24977 0.0
H1366 H 0.7223 0.52844 0.23511 0.0
C1367 C 0.77113 0.40499 0.20737 0.0
C1368 C 0.75588 0.47252 0.23849 0.0
H1369 H 0.73247 0.47367 0.25533 0.0
C1370 C 0.75738 0.51167 0.23725 0.0
C1371 C 0.74677 0.45859 0.24488 0.0
C1372 C 0.74487 0.41675 0.24672 0.0
C1373 C 0.74999 0.53738 0.2422 0.0
C1374 C 0.74093 0.52351 0.24903 0.0
C1375 C 0.7394 0.48428 0.25003 0.0
C1376 C 0.73313 0.54907 0.2563 0.0
C1377 C 0.75192 0.57912 0.23973 0.0
C1378 C 0.73483 0.57342 0.27285 0.0
C1379 C 0.72728 0.59484 0.2811 0.0
C1380 C 0.71785 0.59204 0.27313 0.0
C1381 C 0.7162 0.56859 0.25613 0.0
C1382 C 0.72378 0.54718 0.24783 0.0
H1383 H 0.75776 0.58445 0.22839 0.0
H1384 H 0.7453 0.59446 0.23481 0.0
H1385 H 0.75433 0.59096 0.2546 0.0
H1386 H 0.74191 0.57476 0.27994 0.0
H1387 H 0.72877 0.6124 0.2943 0.0
H1388 H 0.78865 0.32514 0.50662 0.0
H1389 H 0.77479 0.28835 0.49415 0.0
H1390 H 0.75929 0.31208 0.54993 0.0
H1391 H 0.77307 0.34878 0.5625 0.0
H1392 H 0.76721 0.22304 0.51655 0.0
H1393 H 0.73942 0.33431 0.50335 0.0
H1394 H 0.75224 0.34458 0.50428 0.0
H1395 H 0.74564 0.33617 0.52749 0.0
C1396 C 0.7822 0.32321 0.51602 0.0
C1397 C 0.78193 0.33986 0.53552 0.0
C1398 C 0.77432 0.30204 0.50893 0.0
C1399 C 0.76602 0.29767 0.5211 0.0
C1400 C 0.76559 0.3155 0.54022 0.0
H1401 H 0.71175 0.17602 0.50286 0.0
H1402 H 0.72526 0.21044 0.51858 0.0
C1403 C 0.77347 0.33641 0.54737 0.0
C1404 C 0.75809 0.27228 0.51451 0.0
H1405 H 0.73424 0.27082 0.50075 0.0
C1406 C 0.76 0.23342 0.51302 0.0
C1407 C 0.74869 0.28595 0.51022 0.0
C1408 C 0.74634 0.32756 0.51124 0.0
C1409 C 0.75272 0.20773 0.50741 0.0
C1410 C 0.74335 0.22144 0.50273 0.0
C1411 C 0.74142 0.26032 0.50444 0.0
C1412 C 0.73558 0.19644 0.49482 0.0
C1413 C 0.75511 0.16612 0.50685 0.0
C1414 C 0.73695 0.17653 0.4765 0.0
C1415 C 0.7293 0.15667 0.46762 0.0
C1416 C 0.72007 0.1567 0.47675 0.0
C1417 C 0.71879 0.1753 0.49554 0.0
C1418 C 0.72648 0.19514 0.50447 0.0
H1419 H 0.76134 0.15932 0.51697 0.0
H1420 H 0.74881 0.14869 0.51156 0.0
H1421 H 0.75715 0.15807 0.49103 0.0
H1422 H 0.74383 0.17776 0.46855 0.0
H1423 H 0.73049 0.14284 0.45306 0.0
H1424 H 0.46321 0.33262 0.75134 0.0
H1425 H 0.47698 0.29728 0.76547 0.0
H1426 H 0.49184 0.30612 0.70767 0.0
H1427 H 0.47823 0.34169 0.69358 0.0
H1428 H 0.48366 0.22809 0.75036 0.0
H1429 H 0.51292 0.33548 0.74841 0.0
H1430 H 0.50025 0.34779 0.74641 0.0
H1431 H 0.50669 0.3301 0.72449 0.0
C1432 C 0.46951 0.32773 0.74181 0.0
C1433 C 0.46966 0.34002 0.72138 0.0
C1434 C 0.47734 0.3074 0.74986 0.0
C1435 C 0.48547 0.29937 0.73768 0.0
C1436 C 0.48573 0.31259 0.71747 0.0
H1437 H 0.5379 0.16526 0.75131 0.0
H1438 H 0.52409 0.20118 0.73783 0.0
C1439 C 0.47792 0.33282 0.70942 0.0
C1440 C 0.49337 0.27489 0.74552 0.0
H1441 H 0.5178 0.27165 0.75379 0.0
C1442 C 0.49111 0.23769 0.75128 0.0
C1443 C 0.5031 0.2874 0.74653 0.0
C1444 C 0.5059 0.32748 0.74131 0.0
C1445 C 0.49835 0.21241 0.75769 0.0
C1446 C 0.50808 0.22488 0.75862 0.0
C1447 C 0.51034 0.2621 0.75291 0.0
C1448 C 0.516 0.20023 0.76617 0.0
C1449 C 0.49557 0.17237 0.76302 0.0
C1450 C 0.51597 0.18749 0.78647 0.0
C1451 C 0.52382 0.16701 0.79417 0.0
C1452 C 0.53187 0.15899 0.78173 0.0
C1453 C 0.53177 0.1708 0.76121 0.0
C1454 C 0.52392 0.19144 0.75353 0.0
H1455 H 0.48841 0.16457 0.75645 0.0
H1456 H 0.5011 0.15201 0.75744 0.0
H1457 H 0.49508 0.16958 0.77988 0.0
H1458 H 0.51001 0.19449 0.79658 0.0
H1459 H 0.52371 0.15849 0.81008 0.0
H1460 H 0.4624 0.92972 0.50594 0.0
H1461 H 0.47643 0.96636 0.4943 0.0
H1462 H 0.49283 0.92789 0.54642 0.0
H1463 H 0.47886 0.89129 0.55817 0.0
H1464 H 0.48518 0.0249 0.5203 0.0
H1465 H 0.51142 0.91388 0.49646 0.0
H1466 H 0.49852 0.90535 0.49792 0.0
H1467 H 0.50564 0.90719 0.52085 0.0
C1468 C 0.46907 0.92833 0.51464 0.0
C1469 C 0.46954 0.90764 0.53295 0.0
C1470 C 0.47705 0.94943 0.50804 0.0
C1471 C 0.48565 0.94971 0.51949 0.0
C1472 C 0.48629 0.9277 0.53726 0.0
H1473 H 0.5407 0.06654 0.50229 0.0
H1474 H 0.52726 0.03119 0.51766 0.0
C1475 C 0.4783 0.90684 0.54395 0.0
C1476 C 0.49369 0.97533 0.51379 0.0
H1477 H 0.51714 0.97676 0.4973 0.0
C1478 C 0.49217 0.01446 0.51521 0.0
C1479 C 0.50282 0.9615 0.50748 0.0
C1480 C 0.50474 0.9197 0.50541 0.0
C1481 C 0.49956 0.04026 0.51049 0.0
C1482 C 0.50865 0.0265 0.50373 0.0
C1483 C 0.51019 0.98729 0.50258 0.0
C1484 C 0.51645 0.05208 0.49651 0.0
C1485 C 0.49761 0.08196 0.51306 0.0
C1486 C 0.51478 0.07625 0.47987 0.0
C1487 C 0.5224 0.09665 0.47121 0.0
C1488 C 0.53187 0.09294 0.47886 0.0
C1489 C 0.53347 0.07016 0.49615 0.0
C1490 C 0.52581 0.04978 0.50485 0.0
H1491 H 0.49177 0.08714 0.52441 0.0
H1492 H 0.50423 0.0973 0.51802 0.0
H1493 H 0.49521 0.09391 0.49822 0.0
H1494 H 0.50767 0.07791 0.4729 0.0
H1495 H 0.52095 0.11375 0.45782 0.0
H1496 H 0.46374 0.82825 0.24225 0.0
H1497 H 0.47753 0.7905 0.25427 0.0
H1498 H 0.49308 0.816 0.1988 0.0
H1499 H 0.47934 0.85356 0.18663 0.0
H1500 H 0.48506 0.72564 0.22958 0.0
H1501 H 0.51283 0.83513 0.24703 0.0
H1502 H 0.49999 0.8454 0.2468 0.0
H1503 H 0.50642 0.83957 0.22317 0.0
C1504 C 0.47018 0.82651 0.23283 0.0
C1505 C 0.47047 0.84387 0.21351 0.0
C1506 C 0.47802 0.8048 0.23966 0.0
C1507 C 0.48631 0.8006 0.22742 0.0
C1508 C 0.48678 0.81922 0.20853 0.0
H1509 H 0.54028 0.67641 0.24626 0.0
H1510 H 0.52716 0.71326 0.23068 0.0
C1511 C 0.47892 0.84064 0.20162 0.0
C1512 C 0.49415 0.77449 0.23367 0.0
H1513 H 0.51777 0.77139 0.24904 0.0
C1514 C 0.49222 0.73556 0.23388 0.0
C1515 C 0.50349 0.78759 0.23894 0.0
C1516 C 0.50586 0.82921 0.23914 0.0
C1517 C 0.4994 0.70926 0.23925 0.0
C1518 C 0.5087 0.72236 0.24505 0.0
C1519 C 0.51066 0.76134 0.24454 0.0
C1520 C 0.51632 0.69646 0.25284 0.0
C1521 C 0.49699 0.66768 0.23833 0.0
C1522 C 0.51456 0.67426 0.27022 0.0
C1523 C 0.522 0.65296 0.27898 0.0
C1524 C 0.5314 0.65382 0.27072 0.0
C1525 C 0.5331 0.67497 0.25289 0.0
C1526 C 0.52562 0.6962 0.24405 0.0
H1527 H 0.491 0.66204 0.22739 0.0
H1528 H 0.5034 0.65063 0.23377 0.0
H1529 H 0.49457 0.6581 0.25366 0.0
H1530 H 0.50752 0.67463 0.27756 0.0
H1531 H 0.52047 0.63723 0.29282 0.0
H1532 H 0.47754 0.37831 0.0337 0.0
H1533 H 0.49124 0.41259 0.01879 0.0
H1534 H 0.4714 0.49225 0.99138 0.0
H1535 H 0.45772 0.45653 0.00508 0.0
H1536 H 0.48505 0.48111 0.9664 0.0
H1537 H 0.50231 0.50635 0.04136 0.0
H1538 H 0.50133 0.45675 0.03632 0.0
H1539 H 0.49051 0.48496 0.03907 0.0
C1540 C 0.47613 0.40279 0.0242 0.0
C1541 C 0.46659 0.41482 0.02054 0.0
C1542 C 0.48396 0.42272 0.01594 0.0
C1543 C 0.48241 0.45589 0.00455 0.0
C1544 C 0.47284 0.46699 0.00025 0.0
H1545 H 0.5301 0.61577 0.98383 0.0
H1546 H 0.51529 0.58512 0.99653 0.0
C1547 C 0.465 0.44647 0.00802 0.0
C1548 C 0.49069 0.47909 0.9971 0.0
H1549 H 0.51199 0.52003 0.01195 0.0
C1550 C 0.49089 0.48987 0.97644 0.0
C1551 C 0.49821 0.4916 0.01024 0.0
C1552 C 0.49803 0.48469 0.03301 0.0
C1553 C 0.49846 0.51187 0.96846 0.0
C1554 C 0.50635 0.52185 0.98124 0.0
C1555 C 0.50604 0.51196 0.00202 0.0
C1556 C 0.51512 0.54146 0.97327 0.0
C1557 C 0.49775 0.5248 0.94652 0.0
C1558 C 0.52003 0.52701 0.95617 0.0
C1559 C 0.52828 0.54503 0.94865 0.0
C1560 C 0.53202 0.57717 0.95847 0.0
C1561 C 0.52732 0.59114 0.97594 0.0
C1562 C 0.51888 0.57359 0.98319 0.0
H1563 H 0.49007 0.52748 0.94163 0.0
H1564 H 0.50138 0.55246 0.94417 0.0
H1565 H 0.50122 0.50347 0.93646 0.0
H1566 H 0.51756 0.50144 0.94873 0.0
H1567 H 0.53187 0.53317 0.93539 0.0
H1568 H 0.06179 0.49183 0.44049 0.0
H1569 H 0.063 0.42904 0.42508 0.0
H1570 H 0.0607 0.47841 0.36501 0.0
H1571 H 0.05946 0.54155 0.38031 0.0
H1572 H 0.04829 0.39713 0.39758 0.0
H1573 H 0.08506 0.40661 0.36299 0.0
H1574 H 0.08118 0.43705 0.38361 0.0
H1575 H 0.07695 0.44541 0.35806 0.0
C1576 C 0.06162 0.48939 0.42399 0.0
C1577 C 0.06054 0.52155 0.41157 0.0
C1578 C 0.06231 0.45353 0.41524 0.0
C1579 C 0.06202 0.44928 0.39396 0.0
C1580 C 0.06106 0.48131 0.38148 0.0
H1581 H 0.06241 0.26044 0.31101 0.0
H1582 H 0.06311 0.32225 0.32755 0.0
C1583 C 0.06032 0.51725 0.39022 0.0
C1584 C 0.06223 0.41108 0.38493 0.0
H1585 H 0.07585 0.35201 0.35537 0.0
C1586 C 0.05432 0.38709 0.38843 0.0
C1587 C 0.07011 0.3984 0.37298 0.0
C1588 C 0.07886 0.423 0.36923 0.0
C1589 C 0.05397 0.35078 0.37988 0.0
C1590 C 0.06188 0.33791 0.36799 0.0
C1591 C 0.06982 0.36193 0.36459 0.0
C1592 C 0.06188 0.30014 0.35829 0.0
C1593 C 0.04501 0.32705 0.38315 0.0
C1594 C 0.06115 0.26717 0.37014 0.0
C1595 C 0.06067 0.23176 0.36071 0.0
C1596 C 0.06103 0.22884 0.33931 0.0
C1597 C 0.06209 0.26182 0.32754 0.0
C1598 C 0.06251 0.29715 0.33696 0.0
H1599 H 0.03872 0.34449 0.38798 0.0
H1600 H 0.04302 0.31154 0.369 0.0
H1601 H 0.04644 0.30601 0.39536 0.0
H1602 H 0.06088 0.26884 0.38666 0.0
H1603 H 0.05992 0.20676 0.37014 0.0
H1604 H 0.19134 0.75943 0.43809 0.0
H1605 H 0.19105 0.8212 0.42135 0.0
H1606 H 0.19347 0.76721 0.36247 0.0
H1607 H 0.19377 0.70506 0.37912 0.0
H1608 H 0.206 0.85045 0.39399 0.0
H1609 H 0.16955 0.84004 0.35794 0.0
H1610 H 0.17319 0.81045 0.37911 0.0
H1611 H 0.17765 0.8009 0.35386 0.0
C1612 C 0.19176 0.76066 0.42156 0.0
C1613 C 0.19255 0.72747 0.40987 0.0
C1614 C 0.19161 0.79593 0.41206 0.0
C1615 C 0.19215 0.79859 0.39073 0.0
C1616 C 0.19292 0.76556 0.37896 0.0
H1617 H 0.19165 0.98789 0.30705 0.0
H1618 H 0.19165 0.92544 0.32301 0.0
C1619 C 0.19313 0.73019 0.38848 0.0
C1620 C 0.19217 0.83612 0.3809 0.0
H1621 H 0.17882 0.89434 0.35033 0.0
C1622 C 0.20007 0.86017 0.38445 0.0
C1623 C 0.18442 0.84841 0.36847 0.0
C1624 C 0.17567 0.82382 0.36466 0.0
C1625 C 0.20048 0.89626 0.37565 0.0
C1626 C 0.19267 0.90881 0.3634 0.0
C1627 C 0.18478 0.88463 0.35979 0.0
C1628 C 0.19258 0.94678 0.35395 0.0
C1629 C 0.20938 0.92024 0.37917 0.0
C1630 C 0.19296 0.97945 0.36611 0.0
C1631 C 0.19302 0.0152 0.35702 0.0
C1632 C 0.19258 0.01875 0.33566 0.0
C1633 C 0.192 0.986 0.32356 0.0
C1634 C 0.19199 0.95033 0.33264 0.0
H1635 H 0.21568 0.90291 0.38408 0.0
H1636 H 0.2114 0.93599 0.36512 0.0
H1637 H 0.20784 0.94108 0.39143 0.0
H1638 H 0.19319 0.9773 0.38262 0.0
H1639 H 0.19341 0.03999 0.36671 0.0
H1640 H 0.06731 0.9949 0.93468 0.0
H1641 H 0.06826 0.93294 0.91826 0.0
H1642 H 0.05559 0.97935 0.86344 0.0
H1643 H 0.05459 0.04159 0.87981 0.0
H1644 H 0.04651 0.9121 0.87903 0.0
H1645 H 0.08645 0.89691 0.87149 0.0
H1646 H 0.08226 0.91048 0.89646 0.0
H1647 H 0.0806 0.94208 0.87526 0.0
C1648 C 0.06482 0.99203 0.91905 0.0
C1649 C 0.06088 0.02303 0.90849 0.0
C1650 C 0.06541 0.95668 0.90968 0.0
C1651 C 0.06209 0.95179 0.88961 0.0
C1652 C 0.05825 0.98275 0.87893 0.0
H1653 H 0.06719 0.7553 0.81169 0.0
H1654 H 0.06795 0.8184 0.82687 0.0
C1655 C 0.05769 0.01821 0.88826 0.0
C1656 C 0.0621 0.91383 0.88025 0.0
H1657 H 0.07697 0.8421 0.86497 0.0
C1658 C 0.05316 0.89681 0.87586 0.0
C1659 C 0.0708 0.89421 0.87608 0.0
C1660 C 0.08059 0.91188 0.87989 0.0
C1661 C 0.05268 0.86023 0.86769 0.0
C1662 C 0.06138 0.84022 0.86402 0.0
C1663 C 0.07033 0.85749 0.86805 0.0
C1664 C 0.06131 0.80166 0.85542 0.0
C1665 C 0.0429 0.84339 0.86282 0.0
C1666 C 0.0575 0.77135 0.86668 0.0
C1667 C 0.05709 0.73522 0.85808 0.0
C1668 C 0.06048 0.72901 0.83811 0.0
C1669 C 0.0645 0.75929 0.82709 0.0
C1670 C 0.06495 0.7953 0.83573 0.0
H1671 H 0.03709 0.86513 0.86265 0.0
H1672 H 0.04304 0.82896 0.84774 0.0
H1673 H 0.04104 0.82202 0.8746 0.0
H1674 H 0.05477 0.77574 0.88203 0.0
H1675 H 0.05397 0.71237 0.86692 0.0
H1676 H 0.18464 0.49228 0.81351 0.0
H1677 H 0.18357 0.43046 0.83004 0.0
H1678 H 0.19584 0.47724 0.88515 0.0
H1679 H 0.19696 0.53938 0.86867 0.0
H1680 H 0.20482 0.40898 0.87039 0.0
H1681 H 0.16476 0.39669 0.87617 0.0
H1682 H 0.16924 0.40945 0.8513 0.0
H1683 H 0.17084 0.44137 0.87239 0.0
C1684 C 0.18703 0.48951 0.82921 0.0
C1685 C 0.19087 0.52062 0.83985 0.0
C1686 C 0.18638 0.45424 0.83864 0.0
C1687 C 0.18952 0.44952 0.85885 0.0
C1688 C 0.19332 0.48051 0.86956 0.0
H1689 H 0.18276 0.25366 0.9369 0.0
H1690 H 0.18242 0.31684 0.92171 0.0
C1691 C 0.19394 0.51591 0.86016 0.0
C1692 C 0.18926 0.41175 0.86841 0.0
H1693 H 0.17391 0.34123 0.8832 0.0
C1694 C 0.19807 0.39418 0.8733 0.0
C1695 C 0.18043 0.39278 0.87225 0.0
C1696 C 0.17076 0.41108 0.86794 0.0
C1697 C 0.1983 0.35767 0.8816 0.0
C1698 C 0.18948 0.33828 0.88489 0.0
C1699 C 0.18065 0.35613 0.88041 0.0
C1700 C 0.18929 0.29971 0.89347 0.0
C1701 C 0.20795 0.34019 0.88698 0.0
C1702 C 0.19308 0.26917 0.88237 0.0
C1703 C 0.19325 0.23302 0.89096 0.0
C1704 C 0.18964 0.22699 0.91078 0.0
C1705 C 0.18562 0.2575 0.92162 0.0
C1706 C 0.18541 0.29356 0.91299 0.0
H1707 H 0.21385 0.36156 0.88744 0.0
H1708 H 0.20758 0.32581 0.90205 0.0
H1709 H 0.20986 0.31868 0.87531 0.0
H1710 H 0.19598 0.27341 0.86716 0.0
H1711 H 0.19638 0.20999 0.88226 0.0
H1712 H 0.94241 0.792 0.62971 0.0
H1713 H 0.94198 0.72971 0.61331 0.0
H1714 H 0.93831 0.67694 0.67226 0.0
H1715 H 0.93852 0.73891 0.68865 0.0
H1716 H 0.95458 0.67078 0.61971 0.0
H1717 H 0.91708 0.627 0.63899 0.0
H1718 H 0.9212 0.67522 0.64145 0.0
H1719 H 0.92404 0.64099 0.66089 0.0
C1720 C 0.94139 0.76712 0.63911 0.0
C1721 C 0.94045 0.77027 0.66043 0.0
C1722 C 0.94116 0.73161 0.62975 0.0
C1723 C 0.93997 0.6988 0.64155 0.0
C1724 C 0.939 0.70195 0.66283 0.0
H1725 H 0.94347 0.45795 0.61759 0.0
H1726 H 0.94269 0.52082 0.63339 0.0
C1727 C 0.93918 0.73738 0.67217 0.0
C1728 C 0.94027 0.6611 0.6318 0.0
H1729 H 0.92758 0.57891 0.62616 0.0
C1730 C 0.94865 0.6508 0.62097 0.0
C1731 C 0.93253 0.63508 0.63356 0.0
C1732 C 0.92317 0.6452 0.64418 0.0
C1733 C 0.94956 0.61486 0.61216 0.0
C1734 C 0.94186 0.58879 0.6141 0.0
C1735 C 0.93348 0.59903 0.62486 0.0
C1736 C 0.94231 0.55098 0.60463 0.0
C1737 C 0.95882 0.60473 0.60113 0.0
C1738 C 0.94224 0.54739 0.58331 0.0
C1739 C 0.94264 0.51171 0.57428 0.0
C1740 C 0.94312 0.47903 0.58646 0.0
C1741 C 0.94313 0.48268 0.60785 0.0
C1742 C 0.94268 0.51846 0.61688 0.0
H1743 H 0.96477 0.62482 0.60467 0.0
H1744 H 0.9612 0.57572 0.60524 0.0
H1745 H 0.95751 0.60542 0.58439 0.0
H1746 H 0.94183 0.57222 0.57365 0.0
H1747 H 0.94259 0.50976 0.55776 0.0
H1748 H 0.81274 0.00961 0.69126 0.0
H1749 H 0.81371 0.07141 0.67474 0.0
H1750 H 0.81128 0.01822 0.61562 0.0
H1751 H 0.81006 0.95619 0.63211 0.0
H1752 H 0.82657 0.10045 0.64691 0.0
H1753 H 0.78942 0.09521 0.61429 0.0
H1754 H 0.79359 0.06198 0.63327 0.0
H1755 H 0.79699 0.05625 0.60691 0.0
C1756 C 0.81243 0.01104 0.67473 0.0
C1757 C 0.81124 0.97814 0.66296 0.0
C1758 C 0.813 0.04636 0.66533 0.0
C1759 C 0.81239 0.04942 0.644 0.0
C1760 C 0.81153 0.01651 0.63214 0.0
H1761 H 0.81283 0.24098 0.56171 0.0
H1762 H 0.81392 0.17819 0.57714 0.0
C1763 C 0.8109 0.98112 0.64156 0.0
C1764 C 0.81255 0.0872 0.6343 0.0
H1765 H 0.79921 0.14722 0.60467 0.0
C1766 C 0.82059 0.11073 0.6377 0.0
C1767 C 0.8047 0.10055 0.62239 0.0
C1768 C 0.79564 0.07737 0.61913 0.0
C1769 C 0.82103 0.14717 0.62928 0.0
C1770 C 0.81321 0.16033 0.61732 0.0
C1771 C 0.8052 0.13682 0.61383 0.0
C1772 C 0.81314 0.19854 0.60827 0.0
C1773 C 0.82989 0.17121 0.63301 0.0
C1774 C 0.81235 0.23065 0.62074 0.0
C1775 C 0.81168 0.26661 0.61198 0.0
C1776 C 0.8118 0.27084 0.59062 0.0
C1777 C 0.81274 0.2386 0.57822 0.0
C1778 C 0.81336 0.20273 0.58698 0.0
H1779 H 0.83603 0.1544 0.63919 0.0
H1780 H 0.83224 0.18519 0.61864 0.0
H1781 H 0.82808 0.19367 0.64422 0.0
H1782 H 0.81204 0.22782 0.63722 0.0
H1783 H 0.81093 0.29097 0.62188 0.0
H1784 H 0.94397 0.23735 0.1914 0.0
H1785 H 0.94422 0.17541 0.17493 0.0
H1786 H 0.94448 0.22895 0.11569 0.0
H1787 H 0.94435 0.2913 0.13211 0.0
H1788 H 0.93074 0.14525 0.14752 0.0
H1789 H 0.96744 0.15505 0.11291 0.0
H1790 H 0.96334 0.18688 0.13268 0.0
H1791 H 0.95944 0.19347 0.10672 0.0
C1792 C 0.94411 0.23599 0.17486 0.0
C1793 C 0.94418 0.26914 0.16301 0.0
C1794 C 0.94425 0.20058 0.16549 0.0
C1795 C 0.94449 0.19766 0.14414 0.0
C1796 C 0.94447 0.23068 0.13222 0.0
H1797 H 0.9443 0.01003 0.05989 0.0
H1798 H 0.94416 0.07187 0.07647 0.0
C1799 C 0.94435 0.26621 0.1416 0.0
C1800 C 0.94456 0.15991 0.13444 0.0
H1801 H 0.95796 0.10174 0.1039 0.0
C1802 C 0.9367 0.13563 0.13803 0.0
C1803 C 0.95236 0.14754 0.12213 0.0
C1804 C 0.96117 0.1719 0.11848 0.0
C1805 C 0.93635 0.09943 0.12932 0.0
C1806 C 0.94414 0.0871 0.11699 0.0
C1807 C 0.95201 0.11136 0.11341 0.0
C1808 C 0.94418 0.04942 0.10723 0.0
C1809 C 0.92755 0.075 0.133 0.0
C1810 C 0.94433 0.01633 0.11908 0.0
C1811 C 0.9444 0.98086 0.10964 0.0
C1812 C 0.94436 0.97806 0.08822 0.0
C1813 C 0.9443 0.01129 0.07643 0.0
C1814 C 0.94424 0.04663 0.08586 0.0
H1815 H 0.92131 0.09171 0.13882 0.0
H1816 H 0.92532 0.06037 0.11874 0.0
H1817 H 0.92934 0.05314 0.14457 0.0
H1818 H 0.94446 0.01797 0.13562 0.0
H1819 H 0.94449 0.95571 0.11909 0.0
H1820 H 0.80921 0.50658 0.18893 0.0
H1821 H 0.81007 0.56864 0.17266 0.0
H1822 H 0.80922 0.51579 0.11324 0.0
H1823 H 0.80812 0.4535 0.12946 0.0
H1824 H 0.82347 0.59848 0.14625 0.0
H1825 H 0.78716 0.59165 0.10975 0.0
H1826 H 0.79099 0.55852 0.1291 0.0
H1827 H 0.795 0.55304 0.10311 0.0
C1828 C 0.8092 0.50816 0.17239 0.0
C1829 C 0.80853 0.47527 0.16043 0.0
C1830 C 0.80971 0.54362 0.16313 0.0
C1831 C 0.80955 0.54681 0.14177 0.0
C1832 C 0.80913 0.51395 0.12977 0.0
H1833 H 0.81172 0.73735 0.05912 0.0
H1834 H 0.8125 0.67482 0.07495 0.0
C1835 C 0.80856 0.47842 0.13903 0.0
C1836 C 0.8098 0.58463 0.13216 0.0
H1837 H 0.79707 0.6439 0.10094 0.0
C1838 C 0.81769 0.60848 0.13638 0.0
C1839 C 0.80222 0.5976 0.11939 0.0
C1840 C 0.79332 0.57405 0.11519 0.0
C1841 C 0.81826 0.64484 0.12792 0.0
C1842 C 0.81072 0.65759 0.11506 0.0
C1843 C 0.80285 0.6338 0.11078 0.0
C1844 C 0.81082 0.69563 0.10583 0.0
C1845 C 0.82696 0.66923 0.13253 0.0
C1846 C 0.80962 0.72789 0.11804 0.0
C1847 C 0.80912 0.76368 0.10904 0.0
C1848 C 0.80983 0.76759 0.08772 0.0
C1849 C 0.81118 0.73521 0.0756 0.0
C1850 C 0.81162 0.6995 0.08458 0.0
H1851 H 0.83296 0.65274 0.13953 0.0
H1852 H 0.82966 0.68299 0.11838 0.0
H1853 H 0.82482 0.69186 0.14338 0.0
H1854 H 0.80886 0.72529 0.13446 0.0
H1855 H 0.80805 0.78816 0.11873 0.0
H1856 H 0.56426 0.25465 0.80896 0.0
H1857 H 0.56643 0.31632 0.82497 0.0
H1858 H 0.56495 0.26452 0.8846 0.0
H1859 H 0.56255 0.20252 0.8686 0.0
H1860 H 0.5532 0.32576 0.8813 0.0
H1861 H 0.58979 0.36241 0.85263 0.0
H1862 H 0.58156 0.35006 0.83247 0.0
H1863 H 0.58494 0.3151 0.85115 0.0
C1864 C 0.5645 0.25629 0.82549 0.0
C1865 C 0.56325 0.22377 0.83755 0.0
C1866 C 0.56582 0.29155 0.83461 0.0
C1867 C 0.56605 0.29492 0.85597 0.0
C1868 C 0.56488 0.26245 0.86808 0.0
H1869 H 0.5688 0.48966 0.93658 0.0
H1870 H 0.57015 0.42645 0.92175 0.0
C1871 C 0.56351 0.22711 0.85894 0.0
C1872 C 0.5668 0.33272 0.86557 0.0
H1873 H 0.58045 0.41329 0.86675 0.0
C1874 C 0.55921 0.34471 0.87832 0.0
C1875 C 0.57464 0.35745 0.86158 0.0
C1876 C 0.58324 0.34549 0.84887 0.0
C1877 C 0.55913 0.38112 0.88676 0.0
C1878 C 0.56687 0.40602 0.88243 0.0
C1879 C 0.57452 0.39404 0.8699 0.0
C1880 C 0.56706 0.44468 0.89089 0.0
C1881 C 0.55068 0.39311 0.89989 0.0
C1882 C 0.56516 0.47584 0.87825 0.0
C1883 C 0.56435 0.51206 0.88667 0.0
C1884 C 0.5655 0.51749 0.90782 0.0
C1885 C 0.56784 0.48635 0.92024 0.0
C1886 C 0.56861 0.45024 0.91183 0.0
H1887 H 0.54455 0.37278 0.89903 0.0
H1888 H 0.55307 0.39505 0.91606 0.0
H1889 H 0.54804 0.42148 0.89519 0.0
H1890 H 0.56396 0.47194 0.86202 0.0
H1891 H 0.56255 0.53554 0.87674 0.0
H1892 H 0.68666 0.75917 0.94261 0.0
H1893 H 0.68554 0.82217 0.92741 0.0
H1894 H 0.6879 0.77346 0.86719 0.0
H1895 H 0.68903 0.71014 0.88228 0.0
H1896 H 0.70028 0.85421 0.90088 0.0
H1897 H 0.66396 0.84615 0.86425 0.0
H1898 H 0.66762 0.81486 0.88468 0.0
H1899 H 0.67204 0.80733 0.85919 0.0
C1900 C 0.68684 0.7618 0.92611 0.0
C1901 C 0.68793 0.72977 0.9136 0.0
C1902 C 0.68621 0.79778 0.91749 0.0
C1903 C 0.68655 0.80231 0.89622 0.0
C1904 C 0.68748 0.77038 0.88364 0.0
H1905 H 0.68796 0.99004 0.81279 0.0
H1906 H 0.68682 0.92861 0.82964 0.0
C1907 C 0.68817 0.73432 0.89227 0.0
C1908 C 0.68651 0.84065 0.8873 0.0
H1909 H 0.67351 0.90005 0.85671 0.0
C1910 C 0.69441 0.86442 0.89132 0.0
C1911 C 0.67884 0.8536 0.87482 0.0
C1912 C 0.67008 0.82936 0.87054 0.0
C1913 C 0.69499 0.90067 0.88274 0.0
C1914 C 0.68731 0.91372 0.87023 0.0
C1915 C 0.67936 0.88999 0.86637 0.0
C1916 C 0.6876 0.95131 0.86032 0.0
C1917 C 0.70395 0.9241 0.88658 0.0
C1918 C 0.68823 0.98451 0.87201 0.0
C1919 C 0.68896 0.01971 0.8624 0.0
C1920 C 0.68895 0.0222 0.84097 0.0
C1921 C 0.68801 0.989 0.82934 0.0
C1922 C 0.68734 0.95388 0.83893 0.0
H1923 H 0.7101 0.90651 0.89201 0.0
H1924 H 0.70623 0.93925 0.87252 0.0
H1925 H 0.70235 0.94544 0.89855 0.0
H1926 H 0.68822 0.98318 0.88855 0.0
H1927 H 0.6896 0.04488 0.87173 0.0
H1928 H 0.54028 0.70797 0.35708 0.0
H1929 H 0.53851 0.77101 0.37225 0.0
H1930 H 0.56464 0.80715 0.34163 0.0
H1931 H 0.56612 0.74504 0.32568 0.0
H1932 H 0.54892 0.81096 0.39714 0.0
H1933 H 0.54687 0.88944 0.3244 0.0
H1934 H 0.54632 0.83855 0.3254 0.0
H1935 H 0.55786 0.86254 0.32548 0.0
C1936 C 0.54563 0.72946 0.35364 0.0
C1937 C 0.55328 0.72191 0.34009 0.0
C1938 C 0.54461 0.76544 0.36225 0.0
C1939 C 0.55128 0.79419 0.3576 0.0
C1940 C 0.55918 0.78595 0.34481 0.0
H1941 H 0.5643 0.99005 0.42937 0.0
H1942 H 0.56282 0.92763 0.41385 0.0
C1943 C 0.56009 0.75034 0.33589 0.0
C1944 C 0.55017 0.83255 0.36645 0.0
H1945 H 0.55095 0.92625 0.35419 0.0
C1946 C 0.54923 0.83616 0.38772 0.0
C1947 C 0.5503 0.8655 0.35415 0.0
C1948 C 0.55027 0.86379 0.33109 0.0
C1949 C 0.54888 0.87179 0.39709 0.0
C1950 C 0.5499 0.90467 0.38493 0.0
C1951 C 0.55037 0.90108 0.36358 0.0
C1952 C 0.55086 0.9429 0.39403 0.0
C1953 C 0.54734 0.87364 0.41992 0.0
C1954 C 0.54499 0.9729 0.38728 0.0
C1955 C 0.54604 0.00901 0.3957 0.0
C1956 C 0.5529 0.01548 0.41115 0.0
C1957 C 0.55886 0.98565 0.41765 0.0
C1958 C 0.55795 0.94986 0.40895 0.0
H1959 H 0.54321 0.84869 0.42546 0.0
H1960 H 0.55448 0.87345 0.42772 0.0
H1961 H 0.54336 0.89962 0.42443 0.0
H1962 H 0.53953 0.9683 0.37563 0.0
H1963 H 0.54135 0.03159 0.39046 0.0
H1964 H 0.68697 0.25961 0.43305 0.0
H1965 H 0.68742 0.32214 0.41741 0.0
H1966 H 0.70944 0.28388 0.37531 0.0
H1967 H 0.70867 0.22048 0.3904 0.0
H1968 H 0.70138 0.37227 0.41488 0.0
H1969 H 0.69048 0.33016 0.33647 0.0
H1970 H 0.68985 0.29809 0.35784 0.0
H1971 H 0.70124 0.30674 0.34524 0.0
C1972 C 0.69187 0.26446 0.42038 0.0
C1973 C 0.69774 0.23522 0.41281 0.0
C1974 C 0.69214 0.30023 0.41148 0.0
C1975 C 0.69836 0.3076 0.395 0.0
C1976 C 0.70439 0.27858 0.38766 0.0
H1977 H 0.70964 0.54068 0.35593 0.0
H1978 H 0.71104 0.47811 0.37168 0.0
C1979 C 0.70399 0.24248 0.39634 0.0
C1980 C 0.69852 0.34589 0.38581 0.0
H1981 H 0.69513 0.3939 0.34117 0.0
C1982 C 0.70001 0.37704 0.39875 0.0
C1983 C 0.69662 0.35205 0.36482 0.0
C1984 C 0.69436 0.32004 0.35031 0.0
C1985 C 0.69949 0.41421 0.39138 0.0
C1986 C 0.6978 0.42033 0.3703 0.0
C1987 C 0.69647 0.38915 0.35731 0.0
C1988 C 0.69695 0.45875 0.36144 0.0
C1989 C 0.70041 0.44641 0.4064 0.0
C1990 C 0.68867 0.46841 0.3501 0.0
C1991 C 0.68797 0.5037 0.34072 0.0
C1992 C 0.69549 0.53017 0.34273 0.0
C1993 C 0.70369 0.5209 0.35441 0.0
C1994 C 0.70447 0.48525 0.36348 0.0
H1995 H 0.6988 0.43713 0.42227 0.0
H1996 H 0.70795 0.45725 0.40613 0.0
H1997 H 0.69543 0.46998 0.40243 0.0
H1998 H 0.68278 0.44845 0.34833 0.0
H1999 H 0.68157 0.51017 0.33178 0.0
H2000 H 0.44362 0.46034 0.11647 0.0
H2001 H 0.44263 0.5223 0.13323 0.0
H2002 H 0.43849 0.5756 0.07455 0.0
H2003 H 0.43924 0.51405 0.05784 0.0
H2004 H 0.45424 0.58419 0.1279 0.0
H2005 H 0.41637 0.61996 0.10729 0.0
H2006 H 0.42123 0.57283 0.10463 0.0
H2007 H 0.42363 0.60811 0.08545 0.0
C2008 C 0.44243 0.48529 0.1072 0.0
C2009 C 0.44144 0.4824 0.08589 0.0
C2010 C 0.44187 0.52059 0.11677 0.0
C2011 C 0.44029 0.55342 0.10515 0.0
C2012 C 0.43944 0.55054 0.08385 0.0
H2013 H 0.4424 0.7943 0.12756 0.0
H2014 H 0.44176 0.73077 0.11248 0.0
C2015 C 0.43994 0.51536 0.07432 0.0
C2016 C 0.43996 0.59096 0.11511 0.0
H2017 H 0.42616 0.67069 0.11987 0.0
C2018 C 0.44807 0.60295 0.12632 0.0
C2019 C 0.43188 0.61538 0.11301 0.0
C2020 C 0.42275 0.6033 0.10211 0.0
C2021 C 0.44842 0.63913 0.13505 0.0
C2022 C 0.44044 0.66373 0.13255 0.0
C2023 C 0.43229 0.65171 0.12156 0.0
C2024 C 0.44041 0.70198 0.14151 0.0
C2025 C 0.45738 0.65119 0.14655 0.0
C2026 C 0.43968 0.70653 0.16272 0.0
C2027 C 0.43998 0.74258 0.17133 0.0
C2028 C 0.44105 0.77467 0.15884 0.0
C2029 C 0.44159 0.77006 0.13753 0.0
C2030 C 0.44123 0.73391 0.12892 0.0
H2031 H 0.46352 0.63133 0.14419 0.0
H2032 H 0.45966 0.67993 0.14171 0.0
H2033 H 0.45573 0.65229 0.16315 0.0
H2034 H 0.43895 0.68214 0.17262 0.0
H2035 H 0.43953 0.74525 0.1878 0.0
H2036 H 0.30953 0.95958 0.13121 0.0
H2037 H 0.30951 0.02229 0.11521 0.0
H2038 H 0.31384 0.07403 0.17419 0.0
H2039 H 0.31389 0.01167 0.19029 0.0
H2040 H 0.29762 0.10233 0.14977 0.0
H2041 H 0.33262 0.09837 0.10751 0.0
H2042 H 0.32479 0.05808 0.1045 0.0
H2043 H 0.33011 0.06776 0.12898 0.0
C2044 C 0.3106 0.98431 0.14071 0.0
C2045 C 0.31171 0.9808 0.16198 0.0
C2046 C 0.31061 0.02002 0.13156 0.0
C2047 C 0.31174 0.05259 0.14355 0.0
C2048 C 0.313 0.04911 0.16472 0.0
H2049 H 0.30681 0.29412 0.12034 0.0
H2050 H 0.30832 0.23175 0.13631 0.0
C2051 C 0.31304 0.0135 0.17386 0.0
C2052 C 0.31104 0.09048 0.13425 0.0
H2053 H 0.32246 0.15114 0.1017 0.0
C2054 C 0.30306 0.11316 0.13931 0.0
C2055 C 0.31814 0.10419 0.12059 0.0
C2056 C 0.32695 0.08106 0.11511 0.0
C2057 C 0.30188 0.1492 0.13075 0.0
C2058 C 0.30902 0.16313 0.11719 0.0
C2059 C 0.31702 0.14039 0.11216 0.0
C2060 C 0.30824 0.20095 0.1077 0.0
C2061 C 0.29288 0.17155 0.13588 0.0
C2062 C 0.30795 0.2043 0.08636 0.0
C2063 C 0.3072 0.2398 0.07723 0.0
C2064 C 0.30672 0.2726 0.0893 0.0
C2065 C 0.30708 0.26927 0.11068 0.0
C2066 C 0.3079 0.2337 0.11981 0.0
H2067 H 0.28702 0.15313 0.14192 0.0
H2068 H 0.29465 0.19272 0.14782 0.0
H2069 H 0.2901 0.18682 0.12226 0.0
H2070 H 0.30824 0.17936 0.07675 0.0
H2071 H 0.30694 0.24151 0.0607 0.0
H2072 H 0.44288 0.29383 0.63235 0.0
H2073 H 0.44205 0.23156 0.616 0.0
H2074 H 0.43755 0.17952 0.67489 0.0
H2075 H 0.43817 0.2415 0.69123 0.0
H2076 H 0.45415 0.17134 0.62289 0.0
H2077 H 0.41622 0.13173 0.641 0.0
H2078 H 0.42066 0.17949 0.64354 0.0
H2079 H 0.42311 0.14507 0.66311 0.0
C2080 C 0.44159 0.26913 0.64175 0.0
C2081 C 0.44055 0.27248 0.66303 0.0
C2082 C 0.44113 0.23364 0.63242 0.0
C2083 C 0.43959 0.20104 0.64422 0.0
C2084 C 0.43851 0.2044 0.66545 0.0
H2085 H 0.44201 0.95981 0.62081 0.0
H2086 H 0.4413 0.02282 0.63648 0.0
C2087 C 0.43892 0.23982 0.67477 0.0
C2088 C 0.43969 0.16327 0.63452 0.0
H2089 H 0.42647 0.08241 0.62863 0.0
C2090 C 0.44807 0.15201 0.62399 0.0
C2091 C 0.43175 0.1381 0.63608 0.0
C2092 C 0.42239 0.14929 0.64637 0.0
C2093 C 0.4488 0.11593 0.61528 0.0
C2094 C 0.44091 0.0907 0.61702 0.0
C2095 C 0.43251 0.10189 0.62748 0.0
C2096 C 0.44118 0.05279 0.60765 0.0
C2097 C 0.45806 0.10476 0.60457 0.0
C2098 C 0.44121 0.04907 0.58633 0.0
C2099 C 0.44157 0.01332 0.57739 0.0
C2100 C 0.44192 0.98071 0.58964 0.0
C2101 C 0.44178 0.98449 0.61102 0.0
C2102 C 0.44136 0.02034 0.61997 0.0
H2103 H 0.46412 0.12432 0.60819 0.0
H2104 H 0.46022 0.07558 0.60887 0.0
H2105 H 0.45686 0.1053 0.58779 0.0
H2106 H 0.44095 0.07386 0.57662 0.0
H2107 H 0.44165 0.01128 0.56087 0.0
H2108 H 0.31138 0.50719 0.68854 0.0
H2109 H 0.31132 0.56937 0.67226 0.0
H2110 H 0.30755 0.51695 0.61328 0.0
H2111 H 0.3076 0.45435 0.62948 0.0
H2112 H 0.32262 0.57665 0.61672 0.0
H2113 H 0.28646 0.61908 0.64661 0.0
H2114 H 0.29487 0.60071 0.66513 0.0
H2115 H 0.29033 0.57035 0.64533 0.0
C2116 C 0.31058 0.50884 0.67209 0.0
C2117 C 0.30946 0.47596 0.66026 0.0
C2118 C 0.3105 0.54436 0.66285 0.0
C2119 C 0.30931 0.54759 0.64166 0.0
C2120 C 0.30843 0.51486 0.6297 0.0
H2121 H 0.30812 0.736 0.55724 0.0
H2122 H 0.3088 0.67373 0.57327 0.0
C2123 C 0.30846 0.47924 0.63895 0.0
C2124 C 0.30899 0.58528 0.63203 0.0
H2125 H 0.29549 0.6659 0.62922 0.0
C2126 C 0.31668 0.59618 0.61934 0.0
C2127 C 0.30125 0.61057 0.63566 0.0
C2128 C 0.29271 0.59966 0.6488 0.0
C2129 C 0.31692 0.6322 0.61038 0.0
C2130 C 0.30914 0.65746 0.61389 0.0
C2131 C 0.30145 0.64647 0.6266 0.0
C2132 C 0.30875 0.69523 0.60425 0.0
C2133 C 0.3256 0.64314 0.59764 0.0
C2134 C 0.30821 0.72791 0.61637 0.0
C2135 C 0.30771 0.76358 0.60724 0.0
C2136 C 0.30774 0.76702 0.58585 0.0
C2137 C 0.30818 0.73423 0.57377 0.0
C2138 C 0.30863 0.69864 0.58289 0.0
H2139 H 0.33201 0.62531 0.60123 0.0
H2140 H 0.32384 0.63916 0.58123 0.0
H2141 H 0.32756 0.67325 0.60006 0.0
H2142 H 0.30822 0.72579 0.6329 0.0
H2143 H 0.30735 0.78839 0.61691 0.0
H2144 H 0.05101 0.76298 0.43968 0.0
H2145 H 0.04958 0.82445 0.42272 0.0
H2146 H 0.04891 0.76907 0.36399 0.0
H2147 H 0.05047 0.70761 0.3808 0.0
H2148 H 0.06225 0.82725 0.3661 0.0
H2149 H 0.02642 0.87486 0.39479 0.0
H2150 H 0.0347 0.86069 0.41454 0.0
H2151 H 0.03039 0.82631 0.39646 0.0
C2152 C 0.05044 0.76389 0.42317 0.0
C2153 C 0.05085 0.73049 0.41156 0.0
C2154 C 0.04956 0.79901 0.41351 0.0
C2155 C 0.04901 0.80128 0.39211 0.0
C2156 C 0.04927 0.76792 0.38053 0.0
H2157 H 0.05039 0.99032 0.30605 0.0
H2158 H 0.04884 0.9275 0.32151 0.0
C2159 C 0.05016 0.73284 0.39016 0.0
C2160 C 0.04882 0.83851 0.3817 0.0
H2161 H 0.03607 0.92099 0.37776 0.0
C2162 C 0.05649 0.84763 0.36849 0.0
C2163 C 0.0413 0.86505 0.38492 0.0
C2164 C 0.03269 0.8562 0.3983 0.0
C2165 C 0.05698 0.88295 0.3588 0.0
C2166 C 0.0495 0.90962 0.36213 0.0
C2167 C 0.04178 0.90043 0.37522 0.0
C2168 C 0.04975 0.94768 0.35269 0.0
C2169 C 0.06565 0.89187 0.34558 0.0
C2170 C 0.05044 0.97988 0.36511 0.0
C2171 C 0.05127 0.01574 0.35634 0.0
C2172 C 0.05138 0.02004 0.33497 0.0
C2173 C 0.05038 0.98786 0.32255 0.0
C2174 C 0.04954 0.95196 0.33135 0.0
H2175 H 0.07175 0.87202 0.34839 0.0
H2176 H 0.06355 0.8895 0.32925 0.0
H2177 H 0.06823 0.92116 0.34833 0.0
H2178 H 0.05057 0.97717 0.3816 0.0
H2179 H 0.052 0.04002 0.36631 0.0
H2180 H 0.19779 0.48611 0.44177 0.0
H2181 H 0.19909 0.42384 0.42555 0.0
H2182 H 0.19964 0.47675 0.36616 0.0
H2183 H 0.19848 0.53895 0.38222 0.0
H2184 H 0.18612 0.39223 0.39802 0.0
H2185 H 0.22261 0.40441 0.36303 0.0
H2186 H 0.21838 0.43632 0.38264 0.0
H2187 H 0.2146 0.44257 0.35654 0.0
C2188 C 0.19829 0.48446 0.42527 0.0
C2189 C 0.19806 0.51739 0.41326 0.0
C2190 C 0.19903 0.4489 0.41603 0.0
C2191 C 0.19961 0.44571 0.39467 0.0
C2192 C 0.19942 0.47858 0.38268 0.0
H2193 H 0.19783 0.26168 0.30722 0.0
H2194 H 0.19866 0.32315 0.32447 0.0
C2195 C 0.19869 0.5141 0.39189 0.0
C2196 C 0.19984 0.40797 0.38484 0.0
H2197 H 0.21291 0.35242 0.35217 0.0
C2198 C 0.19202 0.38337 0.38814 0.0
C2199 C 0.20752 0.3966 0.37187 0.0
C2200 C 0.2163 0.42119 0.36842 0.0
C2201 C 0.19155 0.34801 0.37847 0.0
C2202 C 0.1992 0.33674 0.36541 0.0
C2203 C 0.20705 0.36122 0.36217 0.0
C2204 C 0.19914 0.29958 0.35498 0.0
C2205 C 0.18277 0.32341 0.38191 0.0
C2206 C 0.19935 0.26605 0.36641 0.0
C2207 C 0.19887 0.23101 0.35663 0.0
C2208 C 0.19822 0.22886 0.33521 0.0
C2209 C 0.19829 0.26246 0.32374 0.0
C2210 C 0.19878 0.29755 0.33356 0.0
H2211 H 0.17658 0.33976 0.38824 0.0
H2212 H 0.18043 0.30977 0.36744 0.0
H2213 H 0.18462 0.30077 0.39299 0.0
H2214 H 0.19981 0.26701 0.38294 0.0
H2215 H 0.19889 0.20562 0.36588 0.0
H2216 H 0.05216 0.5412 0.86738 0.0
H2217 H 0.0509 0.47893 0.88346 0.0
H2218 H 0.04922 0.42672 0.824 0.0
H2219 H 0.05057 0.48892 0.80776 0.0
H2220 H 0.03644 0.42151 0.88 0.0
H2221 H 0.07245 0.37401 0.85182 0.0
H2222 H 0.06874 0.42294 0.85139 0.0
H2223 H 0.0643 0.39066 0.83237 0.0
C2224 C 0.05147 0.51648 0.85772 0.0
C2225 C 0.05154 0.51988 0.8363 0.0
C2226 C 0.05074 0.48096 0.86693 0.0
C2227 C 0.05011 0.44824 0.85491 0.0
C2228 C 0.04986 0.45162 0.83353 0.0
H2229 H 0.05119 0.20889 0.88204 0.0
H2230 H 0.04975 0.27097 0.86596 0.0
C2231 C 0.05059 0.48716 0.82429 0.0
C2232 C 0.04998 0.41056 0.86477 0.0
H2233 H 0.06295 0.32884 0.86929 0.0
C2234 C 0.04223 0.4012 0.8777 0.0
C2235 C 0.05757 0.38427 0.86177 0.0
C2236 C 0.06629 0.39345 0.84873 0.0
C2237 C 0.04177 0.36585 0.88746 0.0
C2238 C 0.04937 0.33955 0.88444 0.0
C2239 C 0.05712 0.34901 0.87152 0.0
C2240 C 0.04948 0.30197 0.89447 0.0
C2241 C 0.03308 0.35668 0.90055 0.0
C2242 C 0.04977 0.29877 0.91587 0.0
C2243 C 0.05056 0.26323 0.92512 0.0
C2244 C 0.05116 0.23038 0.91311 0.0
C2245 C 0.05074 0.23368 0.89171 0.0
C2246 C 0.04992 0.26912 0.8825 0.0
H2247 H 0.02683 0.37535 0.897 0.0
H2248 H 0.03082 0.32681 0.89847 0.0
H2249 H 0.035 0.36082 0.91687 0.0
H2250 H 0.04964 0.3238 0.92539 0.0
H2251 H 0.05093 0.26156 0.94164 0.0
H2252 H 0.19814 0.04136 0.88131 0.0
H2253 H 0.19961 0.97995 0.86447 0.0
H2254 H 0.20015 0.92471 0.92324 0.0
H2255 H 0.19882 0.98628 0.94027 0.0
H2256 H 0.21399 0.89646 0.89517 0.0
H2257 H 0.17724 0.90411 0.86069 0.0
H2258 H 0.18487 0.94384 0.85495 0.0
H2259 H 0.18112 0.93542 0.88088 0.0
C2260 C 0.19861 0.01617 0.89067 0.0
C2261 C 0.19829 0.01858 0.91212 0.0
C2262 C 0.19941 0.9811 0.88102 0.0
C2263 C 0.19981 0.94777 0.8926 0.0
C2264 C 0.19979 0.95013 0.91403 0.0
H2265 H 0.19992 0.70824 0.86636 0.0
H2266 H 0.2011 0.77071 0.8821 0.0
C2267 C 0.19902 0.98527 0.92372 0.0
C2268 C 0.20007 0.91046 0.88232 0.0
H2269 H 0.1872 0.85309 0.85031 0.0
C2270 C 0.20813 0.88689 0.88539 0.0
C2271 C 0.19241 0.89811 0.86957 0.0
C2272 C 0.18338 0.92148 0.86643 0.0
C2273 C 0.20879 0.85143 0.87582 0.0
C2274 C 0.20112 0.83911 0.8631 0.0
C2275 C 0.19309 0.86275 0.85997 0.0
C2276 C 0.20108 0.80123 0.85344 0.0
C2277 C 0.21774 0.8277 0.87915 0.0
C2278 C 0.20056 0.79767 0.83208 0.0
C2279 C 0.19985 0.76196 0.82302 0.0
C2280 C 0.19954 0.72925 0.8352 0.0
C2281 C 0.20017 0.73291 0.85656 0.0
C2282 C 0.20091 0.76857 0.86559 0.0
H2283 H 0.22394 0.845 0.88461 0.0
H2284 H 0.21618 0.80593 0.89091 0.0
H2285 H 0.2199 0.81301 0.86486 0.0
H2286 H 0.20061 0.82258 0.82245 0.0
H2287 H 0.19934 0.76003 0.80653 0.0
H2288 H 0.94952 0.29145 0.61664 0.0
H2289 H 0.95069 0.22988 0.63348 0.0
H2290 H 0.94888 0.17435 0.57491 0.0
H2291 H 0.94781 0.23592 0.5579 0.0
H2292 H 0.93689 0.1722 0.63197 0.0
H2293 H 0.97234 0.12311 0.60178 0.0
H2294 H 0.96853 0.1719 0.60049 0.0
H2295 H 0.96388 0.13802 0.58251 0.0
C2296 C 0.94947 0.26614 0.60732 0.0
C2297 C 0.9486 0.26849 0.58594 0.0
C2298 C 0.95013 0.23101 0.61697 0.0
C2299 C 0.94999 0.19759 0.60543 0.0
C2300 C 0.94919 0.19983 0.58407 0.0
H2301 H 0.94744 0.95906 0.63264 0.0
H2302 H 0.94849 0.0216 0.61687 0.0
C2303 C 0.94853 0.235 0.57439 0.0
C2304 C 0.95017 0.16042 0.61587 0.0
H2305 H 0.96286 0.07781 0.6197 0.0
C2306 C 0.9426 0.15165 0.62942 0.0
C2307 C 0.95761 0.13368 0.61245 0.0
C2308 C 0.96611 0.14216 0.59866 0.0
C2309 C 0.94216 0.11648 0.6393 0.0
C2310 C 0.94959 0.08966 0.63582 0.0
C2311 C 0.95719 0.09849 0.62236 0.0
C2312 C 0.94943 0.05183 0.64555 0.0
C2313 C 0.9336 0.10793 0.6529 0.0
C2314 C 0.94982 0.04806 0.66691 0.0
C2315 C 0.9492 0.01233 0.67598 0.0
C2316 C 0.94825 0.97979 0.66382 0.0
C2317 C 0.94815 0.98361 0.64242 0.0
C2318 C 0.94875 0.0193 0.63338 0.0
H2319 H 0.92747 0.12765 0.65012 0.0
H2320 H 0.93101 0.07854 0.65052 0.0
H2321 H 0.93582 0.11085 0.66913 0.0
H2322 H 0.95052 0.07279 0.67656 0.0
H2323 H 0.94935 0.01025 0.6925 0.0
H2324 H 0.80202 0.45744 0.62125 0.0
H2325 H 0.80024 0.519 0.63785 0.0
H2326 H 0.80021 0.57357 0.57888 0.0
H2327 H 0.80185 0.51198 0.56214 0.0
H2328 H 0.8132 0.5783 0.63518 0.0
H2329 H 0.77693 0.62227 0.60718 0.0
H2330 H 0.78119 0.57409 0.60556 0.0
H2331 H 0.78521 0.60869 0.5873 0.0
C2332 C 0.80152 0.48251 0.6118 0.0
C2333 C 0.80206 0.4799 0.59039 0.0
C2334 C 0.80051 0.51765 0.62131 0.0
C2335 C 0.79997 0.55081 0.6096 0.0
C2336 C 0.8004 0.54827 0.5882 0.0
H2337 H 0.80174 0.78997 0.63552 0.0
H2338 H 0.80055 0.72717 0.62004 0.0
C2339 C 0.8014 0.51309 0.57866 0.0
C2340 C 0.79961 0.58814 0.61987 0.0
H2341 H 0.78636 0.66935 0.624 0.0
C2342 C 0.80729 0.59809 0.63288 0.0
C2343 C 0.79191 0.61393 0.61677 0.0
C2344 C 0.7833 0.60417 0.60359 0.0
C2345 C 0.80759 0.63348 0.64254 0.0
C2346 C 0.79992 0.65935 0.63936 0.0
C2347 C 0.79221 0.64938 0.62643 0.0
C2348 C 0.79995 0.69735 0.64888 0.0
C2349 C 0.81626 0.6433 0.65557 0.0
C2350 C 0.79976 0.7014 0.67023 0.0
C2351 C 0.80046 0.73725 0.67913 0.0
C2352 C 0.8013 0.76962 0.6668 0.0
C2353 C 0.80114 0.76554 0.64542 0.0
C2354 C 0.80044 0.72971 0.63655 0.0
H2355 H 0.82248 0.62408 0.65264 0.0
H2356 H 0.81863 0.67284 0.65276 0.0
H2357 H 0.81426 0.64073 0.67195 0.0
H2358 H 0.79921 0.67679 0.68001 0.0
H2359 H 0.80051 0.73953 0.69564 0.0
H2360 H 0.93503 0.50457 0.18349 0.0
H2361 H 0.93547 0.5655 0.16584 0.0
H2362 H 0.9597 0.5269 0.12963 0.0
H2363 H 0.95882 0.46508 0.14633 0.0
H2364 H 0.94766 0.61903 0.16341 0.0
H2365 H 0.94312 0.56379 0.08493 0.0
H2366 H 0.9419 0.53404 0.10712 0.0
H2367 H 0.95373 0.54458 0.09683 0.0
C2368 C 0.94042 0.50913 0.1717 0.0
C2369 C 0.94683 0.48009 0.1661 0.0
C2370 C 0.94068 0.54396 0.16162 0.0
C2371 C 0.94746 0.55068 0.14599 0.0
C2372 C 0.95415 0.52209 0.14104 0.0
H2373 H 0.95922 0.78195 0.10488 0.0
H2374 H 0.95993 0.72014 0.12164 0.0
C2375 C 0.95372 0.48689 0.15073 0.0
C2376 C 0.94758 0.58773 0.13516 0.0
H2377 H 0.94774 0.6284 0.0878 0.0
C2378 C 0.94761 0.62103 0.14687 0.0
C2379 C 0.94735 0.59056 0.11355 0.0
C2380 C 0.94641 0.55633 0.0999 0.0
C2381 C 0.94741 0.65689 0.13766 0.0
C2382 C 0.94769 0.65971 0.11605 0.0
C2383 C 0.94765 0.62641 0.10435 0.0
C2384 C 0.94767 0.69676 0.10521 0.0
C2385 C 0.94654 0.69117 0.1513 0.0
C2386 C 0.94093 0.70368 0.08953 0.0
C2387 C 0.94077 0.73848 0.07942 0.0
C2388 C 0.94723 0.7673 0.08503 0.0
C2389 C 0.95407 0.76031 0.10046 0.0
C2390 C 0.95441 0.72512 0.11019 0.0
H2391 H 0.94321 0.68385 0.16625 0.0
H2392 H 0.95388 0.70264 0.15441 0.0
H2393 H 0.94209 0.71363 0.14405 0.0
H2394 H 0.93567 0.68232 0.08529 0.0
H2395 H 0.9354 0.74319 0.06759 0.0
H2396 H 0.80108 0.2339 0.19041 0.0
H2397 H 0.79989 0.17214 0.17355 0.0
H2398 H 0.7978 0.22727 0.11492 0.0
H2399 H 0.79908 0.28894 0.13157 0.0
H2400 H 0.78537 0.1417 0.14703 0.0
H2401 H 0.82111 0.15543 0.10852 0.0
H2402 H 0.81745 0.18571 0.12935 0.0
H2403 H 0.81289 0.19393 0.104 0.0
C2404 C 0.80031 0.23283 0.17394 0.0
C2405 C 0.80025 0.26622 0.16228 0.0
C2406 C 0.79963 0.19758 0.16435 0.0
C2407 C 0.79892 0.19519 0.14298 0.0
C2408 C 0.79853 0.22851 0.1314 0.0
H2409 H 0.79989 0.00768 0.05703 0.0
H2410 H 0.79823 0.06991 0.0731 0.0
C2411 C 0.79922 0.26371 0.14095 0.0
C2412 C 0.79881 0.15786 0.13274 0.0
H2413 H 0.81157 0.10245 0.09956 0.0
C2414 C 0.7911 0.13302 0.13667 0.0
C2415 C 0.80629 0.14672 0.11924 0.0
C2416 C 0.81496 0.17164 0.11511 0.0
C2417 C 0.79061 0.09743 0.1272 0.0
C2418 C 0.79812 0.08626 0.11376 0.0
C2419 C 0.8058 0.11119 0.10979 0.0
C2420 C 0.79835 0.0484 0.10407 0.0
C2421 C 0.782 0.07236 0.13142 0.0
C2422 C 0.79895 0.01573 0.11616 0.0
C2423 C 0.79989 0.98021 0.10703 0.0
C2424 C 0.8003 0.97675 0.08564 0.0
C2425 C 0.79956 0.00945 0.07354 0.0
C2426 C 0.79863 0.04499 0.0827 0.0
H2427 H 0.77572 0.08881 0.13727 0.0
H2428 H 0.77973 0.05695 0.11743 0.0
H2429 H 0.78399 0.0512 0.14322 0.0
H2430 H 0.79897 0.01777 0.13268 0.0
H2431 H 0.80049 0.95554 0.11676 0.0
H2432 H 0.55504 0.70384 0.87716 0.0
H2433 H 0.55353 0.7666 0.86162 0.0
H2434 H 0.54726 0.8146 0.92075 0.0
H2435 H 0.5488 0.75202 0.93644 0.0
H2436 H 0.53761 0.82075 0.86266 0.0
H2437 H 0.57125 0.87407 0.89955 0.0
H2438 H 0.56842 0.82435 0.8979 0.0
H2439 H 0.56246 0.85356 0.91651 0.0
C2440 C 0.55327 0.72772 0.88684 0.0
C2441 C 0.55211 0.72307 0.90804 0.0
C2442 C 0.5524 0.76351 0.87793 0.0
C2443 C 0.55041 0.79524 0.89009 0.0
C2444 C 0.54893 0.79051 0.91116 0.0
H2445 H 0.55036 0.03645 0.86538 0.0
H2446 H 0.54873 0.97392 0.88096 0.0
C2447 C 0.54978 0.75473 0.92007 0.0
C2448 C 0.5502 0.83345 0.88082 0.0
H2449 H 0.56216 0.91787 0.8803 0.0
C2450 C 0.54296 0.84205 0.86648 0.0
C2451 C 0.5572 0.86108 0.88588 0.0
C2452 C 0.56533 0.85289 0.90067 0.0
C2453 C 0.54247 0.87787 0.85723 0.0
C2454 C 0.54953 0.90544 0.86216 0.0
C2455 C 0.55674 0.89677 0.87657 0.0
C2456 C 0.54972 0.94332 0.85239 0.0
C2457 C 0.53428 0.88606 0.84258 0.0
C2458 C 0.55079 0.94694 0.83113 0.0
C2459 C 0.55167 0.98268 0.82216 0.0
C2460 C 0.55161 0.01542 0.83434 0.0
C2461 C 0.55042 0.01175 0.85559 0.0
C2462 C 0.5495 0.97604 0.86452 0.0
H2463 H 0.52806 0.86664 0.84502 0.0
H2464 H 0.5317 0.91564 0.84417 0.0
H2465 H 0.53689 0.88202 0.82668 0.0
H2466 H 0.55121 0.92209 0.8215 0.0
H2467 H 0.55264 0.9846 0.80576 0.0
H2468 H 0.69831 0.48847 0.94103 0.0
H2469 H 0.69986 0.42705 0.92407 0.0
H2470 H 0.69945 0.48217 0.86526 0.0
H2471 H 0.69777 0.54357 0.88208 0.0
H2472 H 0.68662 0.42278 0.86788 0.0
H2473 H 0.72296 0.37865 0.89525 0.0
H2474 H 0.71478 0.39185 0.91537 0.0
H2475 H 0.71868 0.42677 0.89717 0.0
C2476 C 0.69866 0.48752 0.92449 0.0
C2477 C 0.69793 0.52082 0.91288 0.0
C2478 C 0.69961 0.45243 0.91483 0.0
C2479 C 0.69991 0.45008 0.89341 0.0
C2480 C 0.69929 0.48336 0.88181 0.0
H2481 H 0.69919 0.26084 0.80748 0.0
H2482 H 0.70043 0.32376 0.82294 0.0
C2483 C 0.69833 0.51841 0.89145 0.0
C2484 C 0.70023 0.41282 0.88304 0.0
H2485 H 0.71343 0.33147 0.87874 0.0
C2486 C 0.69252 0.40294 0.8701 0.0
C2487 C 0.70793 0.38696 0.88602 0.0
C2488 C 0.71661 0.39664 0.89905 0.0
C2489 C 0.69217 0.36754 0.86045 0.0
C2490 C 0.69983 0.34156 0.86356 0.0
C2491 C 0.70758 0.3515 0.87638 0.0
C2492 C 0.69974 0.30348 0.85412 0.0
C2493 C 0.68347 0.35781 0.8475 0.0
C2494 C 0.69926 0.27122 0.86654 0.0
C2495 C 0.6986 0.2353 0.85777 0.0
C2496 C 0.69845 0.231 0.8364 0.0
C2497 C 0.69924 0.26328 0.82398 0.0
C2498 C 0.6999 0.29923 0.83278 0.0
H2499 H 0.67728 0.37718 0.85043 0.0
H2500 H 0.68545 0.36019 0.83111 0.0
H2501 H 0.68106 0.32833 0.85039 0.0
H2502 H 0.69917 0.27391 0.88304 0.0
H2503 H 0.69804 0.21095 0.86774 0.0
H2504 H 0.5621 0.48729 0.3135 0.0
H2505 H 0.56135 0.42541 0.33007 0.0
H2506 H 0.53835 0.46554 0.36925 0.0
H2507 H 0.53962 0.52823 0.35368 0.0
H2508 H 0.54984 0.4285 0.39102 0.0
H2509 H 0.54355 0.34032 0.32278 0.0
H2510 H 0.55458 0.36637 0.31992 0.0
H2511 H 0.54317 0.39118 0.32168 0.0
C2512 C 0.55683 0.48268 0.32553 0.0
C2513 C 0.55088 0.51236 0.33228 0.0
C2514 C 0.55633 0.44719 0.33488 0.0
C2515 C 0.54962 0.44026 0.35062 0.0
C2516 C 0.54357 0.46995 0.35712 0.0
H2517 H 0.53999 0.20863 0.39304 0.0
H2518 H 0.53847 0.27057 0.37662 0.0
C2519 C 0.54428 0.50575 0.3482 0.0
C2520 C 0.54927 0.40289 0.36113 0.0
H2521 H 0.54916 0.30762 0.35275 0.0
C2522 C 0.54955 0.4021 0.3826 0.0
C2523 C 0.54871 0.36824 0.35031 0.0
C2524 C 0.54737 0.3666 0.32743 0.0
C2525 C 0.54949 0.36792 0.3935 0.0
C2526 C 0.54969 0.33328 0.38263 0.0
C2527 C 0.54918 0.33403 0.36117 0.0
C2528 C 0.55043 0.29599 0.39312 0.0
C2529 C 0.54897 0.36959 0.41654 0.0
C2530 C 0.55769 0.28932 0.40778 0.0
C2531 C 0.55836 0.25434 0.41761 0.0
C2532 C 0.55203 0.22483 0.41239 0.0
C2533 C 0.54496 0.23099 0.39733 0.0
C2534 C 0.5441 0.26635 0.38793 0.0
H2535 H 0.54533 0.3959 0.42177 0.0
H2536 H 0.54498 0.34505 0.42293 0.0
H2537 H 0.55643 0.36976 0.42289 0.0
H2538 H 0.56293 0.31103 0.41151 0.0
H2539 H 0.56398 0.25007 0.42894 0.0
H2540 H 0.6981 0.05225 0.37926 0.0
H2541 H 0.69903 0.99183 0.36109 0.0
H2542 H 0.69997 0.9326 0.41868 0.0
H2543 H 0.69917 0.99289 0.43696 0.0
H2544 H 0.71373 0.90708 0.39015 0.0
H2545 H 0.67689 0.91512 0.35598 0.0
H2546 H 0.68454 0.95512 0.35093 0.0
H2547 H 0.6807 0.94547 0.37665 0.0
C2548 C 0.69851 0.02634 0.38805 0.0
C2549 C 0.69852 0.02726 0.40953 0.0
C2550 C 0.69899 0.99186 0.37764 0.0
C2551 C 0.69942 0.95774 0.38855 0.0
C2552 C 0.69959 0.95863 0.40999 0.0
H2553 H 0.69959 0.71885 0.36423 0.0
H2554 H 0.70068 0.78227 0.37884 0.0
C2555 C 0.69912 0.99308 0.4204 0.0
C2556 C 0.69973 0.92102 0.37767 0.0
H2557 H 0.68667 0.86343 0.34612 0.0
C2558 C 0.70782 0.89752 0.3805 0.0
C2559 C 0.69203 0.90873 0.36504 0.0
C2560 C 0.683 0.93221 0.36205 0.0
C2561 C 0.70841 0.86199 0.37103 0.0
C2562 C 0.70064 0.84944 0.35868 0.0
C2563 C 0.69263 0.87321 0.35556 0.0
C2564 C 0.70045 0.81105 0.34965 0.0
C2565 C 0.71738 0.83828 0.37421 0.0
C2566 C 0.69981 0.80622 0.32839 0.0
C2567 C 0.69914 0.76995 0.31998 0.0
C2568 C 0.69902 0.73797 0.33273 0.0
C2569 C 0.69971 0.74293 0.354 0.0
C2570 C 0.70039 0.77914 0.36237 0.0
H2571 H 0.72366 0.85579 0.37906 0.0
H2572 H 0.71597 0.81718 0.3864 0.0
H2573 H 0.71936 0.82283 0.36003 0.0
H2574 H 0.69977 0.83055 0.31833 0.0
H2575 H 0.69859 0.76699 0.30354 0.0
H2576 H 0.44681 0.24153 0.05496 0.0
H2577 H 0.44823 0.1801 0.07206 0.0
H2578 H 0.45276 0.23634 0.12975 0.0
H2579 H 0.45125 0.29777 0.11286 0.0
H2580 H 0.46346 0.14878 0.0963 0.0
H2581 H 0.42938 0.16682 0.14059 0.0
H2582 H 0.43243 0.19637 0.11903 0.0
H2583 H 0.43802 0.20445 0.14345 0.0
C2584 C 0.44816 0.24079 0.07127 0.0
C2585 C 0.44884 0.27445 0.0826 0.0
C2586 C 0.44898 0.20571 0.081 0.0
C2587 C 0.45044 0.20371 0.10221 0.0
C2588 C 0.45145 0.23728 0.11343 0.0
H2589 H 0.45118 0.01562 0.18826 0.0
H2590 H 0.45259 0.07794 0.17216 0.0
C2591 C 0.45063 0.27233 0.10373 0.0
C2592 C 0.4507 0.16654 0.11266 0.0
H2593 H 0.43877 0.11264 0.1479 0.0
C2594 C 0.45807 0.14081 0.10758 0.0
C2595 C 0.44366 0.1563 0.12738 0.0
C2596 C 0.43537 0.18224 0.13286 0.0
C2597 C 0.45863 0.10518 0.11699 0.0
C2598 C 0.45154 0.09483 0.13159 0.0
C2599 C 0.44423 0.1207 0.13677 0.0
C2600 C 0.45134 0.05686 0.14122 0.0
C2601 C 0.46689 0.07917 0.11146 0.0
C2602 C 0.45015 0.02438 0.12917 0.0
C2603 C 0.44935 0.98881 0.13831 0.0
C2604 C 0.44966 0.98508 0.1597 0.0
C2605 C 0.45094 0.01759 0.17174 0.0
C2606 C 0.45174 0.05319 0.16258 0.0
H2607 H 0.47309 0.09498 0.10478 0.0
H2608 H 0.46949 0.06326 0.12503 0.0
H2609 H 0.46436 0.05847 0.09988 0.0
H2610 H 0.4496 0.02661 0.11269 0.0
H2611 H 0.44832 0.96431 0.12862 0.0
H2612 H 0.30343 0.79255 0.13416 0.0
H2613 H 0.30156 0.73036 0.11841 0.0
H2614 H 0.29958 0.67925 0.17812 0.0
H2615 H 0.30158 0.7415 0.19405 0.0
H2616 H 0.31277 0.64375 0.15234 0.0
H2617 H 0.27752 0.66375 0.11301 0.0
H2618 H 0.28627 0.6998 0.10731 0.0
H2619 H 0.28172 0.69503 0.13295 0.0
C2620 C 0.3025 0.76813 0.14395 0.0
C2621 C 0.30264 0.7719 0.16535 0.0
C2622 C 0.30136 0.73264 0.13492 0.0
C2623 C 0.30027 0.70027 0.14709 0.0
C2624 C 0.30034 0.70395 0.16846 0.0
H2625 H 0.2985 0.45974 0.11882 0.0
H2626 H 0.29778 0.52129 0.13577 0.0
C2627 C 0.30147 0.73949 0.17753 0.0
C2628 C 0.29969 0.66238 0.13749 0.0
H2629 H 0.2867 0.60938 0.10349 0.0
C2630 C 0.30702 0.63607 0.14182 0.0
C2631 C 0.29221 0.65257 0.12367 0.0
C2632 C 0.28393 0.67912 0.11907 0.0
C2633 C 0.30721 0.60052 0.13233 0.0
C2634 C 0.29978 0.5908 0.1184 0.0
C2635 C 0.2924 0.61697 0.11416 0.0
C2636 C 0.29961 0.55363 0.10797 0.0
C2637 C 0.31553 0.57405 0.13685 0.0
C2638 C 0.30054 0.55149 0.08663 0.0
C2639 C 0.3009 0.51633 0.07687 0.0
C2640 C 0.30029 0.48278 0.0883 0.0
C2641 C 0.29905 0.48509 0.1096 0.0
C2642 C 0.29868 0.52021 0.11933 0.0
H2643 H 0.32176 0.58907 0.1439 0.0
H2644 H 0.31306 0.55196 0.14771 0.0
H2645 H 0.31806 0.55979 0.1227 0.0
H2646 H 0.30121 0.57702 0.07759 0.0
H2647 H 0.30183 0.51544 0.06043 0.0
H2648 H 0.4502 0.51188 0.69551 0.0
H2649 H 0.45122 0.5746 0.67975 0.0
H2650 H 0.44983 0.52378 0.61989 0.0
H2651 H 0.44892 0.46104 0.63549 0.0
H2652 H 0.46383 0.58175 0.62333 0.0
H2653 H 0.42784 0.62677 0.6528 0.0
H2654 H 0.4362 0.61066 0.67198 0.0
H2655 H 0.43176 0.5781 0.65308 0.0
C2656 C 0.45018 0.51407 0.67899 0.0
C2657 C 0.44941 0.48159 0.66673 0.0
C2658 C 0.45071 0.5499 0.67002 0.0
C2659 C 0.45043 0.55382 0.64867 0.0
C2660 C 0.45 0.52135 0.6364 0.0
H2661 H 0.44794 0.73812 0.56132 0.0
H2662 H 0.44942 0.67666 0.57828 0.0
C2663 C 0.44948 0.48555 0.64534 0.0
C2664 C 0.45036 0.59173 0.63905 0.0
H2665 H 0.43697 0.67257 0.63497 0.0
C2666 C 0.45797 0.60166 0.62586 0.0
C2667 C 0.44268 0.61754 0.64236 0.0
C2668 C 0.4341 0.60775 0.65567 0.0
C2669 C 0.45816 0.63697 0.61604 0.0
C2670 C 0.45046 0.66268 0.61928 0.0
C2671 C 0.44288 0.65281 0.63256 0.0
C2672 C 0.45001 0.69986 0.60888 0.0
C2673 C 0.46667 0.64668 0.60255 0.0
C2674 C 0.4497 0.73321 0.62047 0.0
C2675 C 0.4488 0.76828 0.61084 0.0
C2676 C 0.44813 0.77062 0.58943 0.0
C2677 C 0.44849 0.73721 0.57783 0.0
C2678 C 0.44939 0.7021 0.58749 0.0
H2679 H 0.47306 0.62856 0.60591 0.0
H2680 H 0.46462 0.64218 0.58633 0.0
H2681 H 0.4688 0.67675 0.60444 0.0
H2682 H 0.45011 0.73206 0.637 0.0
H2683 H 0.44852 0.79352 0.62019 0.0
H2684 H 0.30352 0.01009 0.55787 0.0
H2685 H 0.30264 0.07145 0.57521 0.0
H2686 H 0.30083 0.01494 0.6335 0.0
H2687 H 0.3018 0.95362 0.61635 0.0
H2688 H 0.28818 0.10085 0.60197 0.0
H2689 H 0.32395 0.08739 0.64036 0.0
H2690 H 0.32035 0.0574 0.61937 0.0
H2691 H 0.3158 0.04862 0.64466 0.0
C2692 C 0.30291 0.01077 0.57438 0.0
C2693 C 0.30279 0.97708 0.58577 0.0
C2694 C 0.3024 0.0458 0.58425 0.0
C2695 C 0.30182 0.0477 0.60564 0.0
C2696 C 0.30146 0.01409 0.617 0.0
H2697 H 0.30216 0.23504 0.69214 0.0
H2698 H 0.30091 0.1726 0.67609 0.0
C2699 C 0.30196 0.97909 0.60716 0.0
C2700 C 0.30166 0.08483 0.61611 0.0
H2701 H 0.31434 0.14012 0.6495 0.0
C2702 C 0.2939 0.10952 0.61234 0.0
C2703 C 0.30913 0.09595 0.62966 0.0
C2704 C 0.31783 0.07116 0.63367 0.0
C2705 C 0.29335 0.14497 0.62195 0.0
C2706 C 0.30086 0.15618 0.63539 0.0
C2707 C 0.30858 0.13137 0.63926 0.0
C2708 C 0.30103 0.19404 0.6451 0.0
C2709 C 0.28468 0.16985 0.61787 0.0
C2710 C 0.30155 0.22672 0.633 0.0
C2711 C 0.30226 0.26232 0.64211 0.0
C2712 C 0.30253 0.2659 0.66351 0.0
C2713 C 0.30194 0.23317 0.67562 0.0
C2714 C 0.30123 0.19752 0.66648 0.0
H2715 H 0.27842 0.15327 0.61203 0.0
H2716 H 0.28241 0.18508 0.63192 0.0
H2717 H 0.28662 0.19115 0.6061 0.0
H2718 H 0.30162 0.22465 0.61648 0.0
H2719 H 0.30275 0.287 0.63237 0.0
loop_
_geom_bond_atom_site_label_1
_geom_bond_atom_site_label_2
_geom_bond_distance
_geom_bond_site_symmetry_2
_ccdc_geom_bond_type
In0 O1 2.294 . S
In0 O2 2.326 . S
In0 O6 2.266 . S
In0 O7 2.326 . S
In0 O8 2.266 . S
In0 O9 2.326 . S
In0 O11 2.294 . S
In0 O12 2.326 . S
O1 In0 2.294 . S
O1 C10 1.240 . S
O2 In0 2.326 . S
O2 C10 1.252 . S
C3 O6 1.252 . S
C3 O7 1.260 . S
C4 O11 1.240 . S
C4 O12 1.252 . S
C5 O8 1.252 . S
C5 O9 1.260 . S
O6 In0 2.266 . S
O6 C3 1.252 . S
O7 In0 2.326 . S
O7 C3 1.260 . S
O8 In0 2.266 . S
O8 C5 1.252 . S
O9 In0 2.326 . S
O9 C5 1.260 . S
C10 O1 1.240 . S
C10 O2 1.252 . S
O11 In0 2.294 . S
O11 C4 1.240 . S
O12 In0 2.326 . S
O12 C4 1.252 . S
In13 O14 2.294 . S
In13 O15 2.326 . S
In13 O19 2.266 . S
In13 O20 2.326 . S
In13 O21 2.266 . S
In13 O22 2.326 . S
In13 O24 2.294 . S
In13 O25 2.326 . S
O14 In13 2.294 . S
O14 C23 1.240 . S
O15 In13 2.326 . S
O15 C23 1.252 . S
C16 O19 1.252 . S
C16 O20 1.260 . S
C17 O24 1.240 . S
C17 O25 1.252 . S
C18 O21 1.252 . S
C18 O22 1.260 . S
O19 In13 2.266 . S
O19 C16 1.252 . S
O20 In13 2.326 . S
O20 C16 1.260 . S
O21 In13 2.266 . S
O21 C18 1.252 . S
O22 In13 2.326 . S
O22 C18 1.260 . S
C23 O14 1.240 . S
C23 O15 1.252 . S
O24 In13 2.294 . S
O24 C17 1.240 . S
O25 In13 2.326 . S
O25 C17 1.252 . S
In26 O27 2.294 . S
In26 O28 2.326 . S
In26 O32 2.266 . S
In26 O33 2.326 . S
In26 O34 2.266 . S
In26 O35 2.326 . S
In26 O37 2.294 . S
In26 O38 2.326 . S
O27 In26 2.294 . S
O27 C36 1.240 . S
O28 In26 2.326 . S
O28 C36 1.252 . S
C29 O32 1.252 . S
C29 O33 1.260 . S
C30 O37 1.240 . S
C30 O38 1.252 . S
C31 O34 1.252 . S
C31 O35 1.260 . S
O32 In26 2.266 . S
O32 C29 1.252 . S
O33 In26 2.326 . S
O33 C29 1.260 . S
O34 In26 2.266 . S
O34 C31 1.252 . S
O35 In26 2.326 . S
O35 C31 1.260 . S
C36 O27 1.240 . S
C36 O28 1.252 . S
O37 In26 2.294 . S
O37 C30 1.240 . S
O38 In26 2.326 . S
O38 C30 1.252 . S
In39 O40 2.294 . S
In39 O41 2.326 . S
In39 O45 2.266 . S
In39 O46 2.326 . S
In39 O47 2.266 . S
In39 O48 2.326 . S
In39 O50 2.294 . S
In39 O51 2.326 . S
O40 In39 2.294 . S
O40 C49 1.240 . S
O41 In39 2.326 . S
O41 C49 1.252 . S
C42 O45 1.252 . S
C42 O46 1.260 . S
C43 O50 1.240 . S
C43 O51 1.252 . S
C44 O47 1.252 . S
C44 O48 1.260 . S
O45 In39 2.266 . S
O45 C42 1.252 . S
O46 In39 2.326 . S
O46 C42 1.260 . S
O47 In39 2.266 . S
O47 C44 1.252 . S
O48 In39 2.326 . S
O48 C44 1.260 . S
C49 O40 1.240 . S
C49 O41 1.252 . S
O50 In39 2.294 . S
O50 C43 1.240 . S
O51 In39 2.326 . S
O51 C43 1.252 . S
In52 O53 2.294 . S
In52 O54 2.326 . S
In52 O58 2.266 . S
In52 O59 2.326 . S
In52 O60 2.266 . S
In52 O61 2.326 . S
In52 O63 2.294 . S
In52 O64 2.326 . S
O53 In52 2.294 . S
O53 C62 1.240 . S
O54 In52 2.326 . S
O54 C62 1.252 . S
C55 O58 1.252 . S
C55 O59 1.260 . S
C56 O63 1.240 . S
C56 O64 1.252 . S
C57 O60 1.252 . S
C57 O61 1.260 . S
O58 In52 2.266 . S
O58 C55 1.252 . S
O59 In52 2.326 . S
O59 C55 1.260 . S
O60 In52 2.266 . S
O60 C57 1.252 . S
O61 In52 2.326 . S
O61 C57 1.260 . S
C62 O53 1.240 . S
C62 O54 1.252 . S
O63 In52 2.294 . S
O63 C56 1.240 . S
O64 In52 2.326 . S
O64 C56 1.252 . S
In65 O66 2.294 . S
In65 O67 2.326 . S
In65 O71 2.266 . S
In65 O72 2.326 . S
In65 O73 2.266 . S
In65 O74 2.326 . S
In65 O76 2.294 . S
In65 O77 2.326 . S
O66 In65 2.294 . S
O66 C75 1.240 . S
O67 In65 2.326 . S
O67 C75 1.252 . S
C68 O71 1.252 . S
C68 O72 1.260 . S
C69 O76 1.240 . S
C69 O77 1.252 . S
C70 O73 1.252 . S
C70 O74 1.260 . S
O71 In65 2.266 . S
O71 C68 1.252 . S
O72 In65 2.326 . S
O72 C68 1.260 . S
O73 In65 2.266 . S
O73 C70 1.252 . S
O74 In65 2.326 . S
O74 C70 1.260 . S
C75 O66 1.240 . S
C75 O67 1.252 . S
O76 In65 2.294 . S
O76 C69 1.240 . S
O77 In65 2.326 . S
O77 C69 1.252 . S
In78 O79 2.294 . S
In78 O80 2.326 . S
In78 O84 2.266 . S
In78 O85 2.326 . S
In78 O86 2.266 . S
In78 O87 2.326 . S
In78 O89 2.294 . S
In78 O90 2.326 . S
O79 In78 2.294 . S
O79 C88 1.240 . S
O80 In78 2.326 . S
O80 C88 1.252 . S
C81 O84 1.252 . S
C81 O85 1.260 . S
C82 O89 1.240 . S
C82 O90 1.252 . S
C83 O86 1.252 . S
C83 O87 1.260 . S
O84 In78 2.266 . S
O84 C81 1.252 . S
O85 In78 2.326 . S
O85 C81 1.260 . S
O86 In78 2.266 . S
O86 C83 1.252 . S
O87 In78 2.326 . S
O87 C83 1.260 . S
C88 O79 1.240 . S
C88 O80 1.252 . S
O89 In78 2.294 . S
O89 C82 1.240 . S
O90 In78 2.326 . S
O90 C82 1.252 . S
In91 O92 2.294 . S
In91 O93 2.326 . S
In91 O97 2.266 . S
In91 O98 2.326 . S
In91 O99 2.266 . S
In91 O100 2.326 . S
In91 O102 2.294 . S
In91 O103 2.326 . S
O92 In91 2.294 . S
O92 C101 1.240 . S
O93 In91 2.326 . S
O93 C101 1.252 . S
C94 O97 1.252 . S
C94 O98 1.260 . S
C95 O102 1.240 . S
C95 O103 1.252 . S
C96 O99 1.252 . S
C96 O100 1.260 . S
O97 In91 2.266 . S
O97 C94 1.252 . S
O98 In91 2.326 . S
O98 C94 1.260 . S
O99 In91 2.266 . S
O99 C96 1.252 . S
O100 In91 2.326 . S
O100 C96 1.260 . S
C101 O92 1.240 . S
C101 O93 1.252 . S
O102 In91 2.294 . S
O102 C95 1.240 . S
O103 In91 2.326 . S
O103 C95 1.252 . S
In104 O105 2.294 . S
In104 O106 2.326 . S
In104 O110 2.266 . S
In104 O111 2.326 . S
In104 O112 2.266 . S
In104 O113 2.326 . S
In104 O115 2.294 . S
In104 O116 2.326 . S
O105 In104 2.294 . S
O105 C114 1.240 . S
O106 In104 2.326 . S
O106 C114 1.252 . S
C107 O110 1.252 . S
C107 O111 1.260 . S
C108 O115 1.240 . S
C108 O116 1.252 . S
C109 O112 1.252 . S
C109 O113 1.260 . S
O110 In104 2.266 . S
O110 C107 1.252 . S
O111 In104 2.326 . S
O111 C107 1.260 . S
O112 In104 2.266 . S
O112 C109 1.252 . S
O113 In104 2.326 . S
O113 C109 1.260 . S
C114 O105 1.240 . S
C114 O106 1.252 . S
O115 In104 2.294 . S
O115 C108 1.240 . S
O116 In104 2.326 . S
O116 C108 1.252 . S
In117 O118 2.294 . S
In117 O119 2.326 . S
In117 O123 2.266 . S
In117 O124 2.326 . S
In117 O125 2.266 . S
In117 O126 2.326 . S
In117 O128 2.294 . S
In117 O129 2.326 . S
O118 In117 2.294 . S
O118 C127 1.240 . S
O119 In117 2.326 . S
O119 C127 1.252 . S
C120 O123 1.252 . S
C120 O124 1.260 . S
C121 O128 1.240 . S
C121 O129 1.252 . S
C122 O125 1.252 . S
C122 O126 1.260 . S
O123 In117 2.266 . S
O123 C120 1.252 . S
O124 In117 2.326 . S
O124 C120 1.260 . S
O125 In117 2.266 . S
O125 C122 1.252 . S
O126 In117 2.326 . S
O126 C122 1.260 . S
C127 O118 1.240 . S
C127 O119 1.252 . S
O128 In117 2.294 . S
O128 C121 1.240 . S
O129 In117 2.326 . S
O129 C121 1.252 . S
In130 O131 2.294 . S
In130 O132 2.326 . S
In130 O136 2.266 . S
In130 O137 2.326 . S
In130 O138 2.266 . S
In130 O139 2.326 . S
In130 O141 2.294 . S
In130 O142 2.326 . S
O131 In130 2.294 . S
O131 C140 1.240 . S
O132 In130 2.326 . S
O132 C140 1.252 . S
C133 O136 1.252 . S
C133 O137 1.260 . S
C134 O141 1.240 . S
C134 O142 1.252 . S
C135 O138 1.252 . S
C135 O139 1.260 . S
O136 In130 2.266 . S
O136 C133 1.252 . S
O137 In130 2.326 . S
O137 C133 1.260 . S
O138 In130 2.266 . S
O138 C135 1.252 . S
O139 In130 2.326 . S
O139 C135 1.260 . S
C140 O131 1.240 . S
C140 O132 1.252 . S
O141 In130 2.294 . S
O141 C134 1.240 . S
O142 In130 2.326 . S
O142 C134 1.252 . S
In143 O144 2.294 . S
In143 O145 2.326 . S
In143 O149 2.266 . S
In143 O150 2.326 . S
In143 O151 2.266 . S
In143 O152 2.326 . S
In143 O154 2.294 . S
In143 O155 2.326 . S
O144 In143 2.294 . S
O144 C153 1.240 . S
O145 In143 2.326 . S
O145 C153 1.252 . S
C146 O149 1.252 . S
C146 O150 1.260 . S
C147 O154 1.240 . S
C147 O155 1.252 . S
C148 O151 1.252 . S
C148 O152 1.260 . S
O149 In143 2.266 . S
O149 C146 1.252 . S
O150 In143 2.326 . S
O150 C146 1.260 . S
O151 In143 2.266 . S
O151 C148 1.252 . S
O152 In143 2.326 . S
O152 C148 1.260 . S
C153 O144 1.240 . S
C153 O145 1.252 . S
O154 In143 2.294 . S
O154 C147 1.240 . S
O155 In143 2.326 . S
O155 C147 1.252 . S
In156 O157 2.294 . S
In156 O158 2.326 . S
In156 O162 2.266 . S
In156 O163 2.326 . S
In156 O164 2.266 . S
In156 O165 2.326 . S
In156 O167 2.294 . S
In156 O168 2.326 . S
O157 In156 2.294 . S
O157 C166 1.240 . S
O158 In156 2.326 . S
O158 C166 1.252 . S
C159 O162 1.252 . S
C159 O163 1.260 . S
C160 O167 1.240 . S
C160 O168 1.252 . S
C161 O164 1.252 . S
C161 O165 1.260 . S
O162 In156 2.266 . S
O162 C159 1.252 . S
O163 In156 2.326 . S
O163 C159 1.260 . S
O164 In156 2.266 . S
O164 C161 1.252 . S
O165 In156 2.326 . S
O165 C161 1.260 . S
C166 O157 1.240 . S
C166 O158 1.252 . S
O167 In156 2.294 . S
O167 C160 1.240 . S
O168 In156 2.326 . S
O168 C160 1.252 . S
In169 O170 2.294 . S
In169 O171 2.326 . S
In169 O175 2.266 . S
In169 O176 2.326 . S
In169 O177 2.266 . S
In169 O178 2.326 . S
In169 O180 2.294 . S
In169 O181 2.326 . S
O170 In169 2.294 . S
O170 C179 1.240 . S
O171 In169 2.326 . S
O171 C179 1.252 . S
C172 O175 1.252 . S
C172 O176 1.260 . S
C173 O180 1.240 . S
C173 O181 1.252 . S
C174 O177 1.252 . S
C174 O178 1.260 . S
O175 In169 2.266 . S
O175 C172 1.252 . S
O176 In169 2.326 . S
O176 C172 1.260 . S
O177 In169 2.266 . S
O177 C174 1.252 . S
O178 In169 2.326 . S
O178 C174 1.260 . S
C179 O170 1.240 . S
C179 O171 1.252 . S
O180 In169 2.294 . S
O180 C173 1.240 . S
O181 In169 2.326 . S
O181 C173 1.252 . S
In182 O183 2.294 . S
In182 O184 2.326 . S
In182 O188 2.266 . S
In182 O189 2.326 . S
In182 O190 2.266 . S
In182 O191 2.326 . S
In182 O193 2.294 . S
In182 O194 2.326 . S
O183 In182 2.294 . S
O183 C192 1.240 . S
O184 In182 2.326 . S
O184 C192 1.252 . S
C185 O188 1.252 . S
C185 O189 1.260 . S
C186 O193 1.240 . S
C186 O194 1.252 . S
C187 O190 1.252 . S
C187 O191 1.260 . S
O188 In182 2.266 . S
O188 C185 1.252 . S
O189 In182 2.326 . S
O189 C185 1.260 . S
O190 In182 2.266 . S
O190 C187 1.252 . S
O191 In182 2.326 . S
O191 C187 1.260 . S
C192 O183 1.240 . S
C192 O184 1.252 . S
O193 In182 2.294 . S
O193 C186 1.240 . S
O194 In182 2.326 . S
O194 C186 1.252 . S
In195 O196 2.294 . S
In195 O197 2.326 . S
In195 O201 2.266 . S
In195 O202 2.326 . S
In195 O203 2.266 . S
In195 O204 2.326 . S
In195 O206 2.294 . S
In195 O207 2.326 . S
O196 In195 2.294 . S
O196 C205 1.240 . S
O197 In195 2.326 . S
O197 C205 1.252 . S
C198 O201 1.252 . S
C198 O202 1.260 . S
C199 O206 1.240 . S
C199 O207 1.252 . S
C200 O203 1.252 . S
C200 O204 1.260 . S
O201 In195 2.266 . S
O201 C198 1.252 . S
O202 In195 2.326 . S
O202 C198 1.260 . S
O203 In195 2.266 . S
O203 C200 1.252 . S
O204 In195 2.326 . S
O204 C200 1.260 . S
C205 O196 1.240 . S
C205 O197 1.252 . S
O206 In195 2.294 . S
O206 C199 1.240 . S
O207 In195 2.326 . S
O207 C199 1.252 . S
In208 O209 2.294 . S
In208 O210 2.326 . S
In208 O214 2.266 . S
In208 O215 2.326 . S
In208 O216 2.266 . S
In208 O217 2.326 . S
In208 O219 2.294 . S
In208 O220 2.326 . S
O209 In208 2.294 . S
O209 C218 1.240 . S
O210 In208 2.326 . S
O210 C218 1.252 . S
C211 O214 1.252 . S
C211 O215 1.260 . S
C212 O219 1.240 . S
C212 O220 1.252 . S
C213 O216 1.252 . S
C213 O217 1.260 . S
O214 In208 2.266 . S
O214 C211 1.252 . S
O215 In208 2.326 . S
O215 C211 1.260 . S
O216 In208 2.266 . S
O216 C213 1.252 . S
O217 In208 2.326 . S
O217 C213 1.260 . S
C218 O209 1.240 . S
C218 O210 1.252 . S
O219 In208 2.294 . S
O219 C212 1.240 . S
O220 In208 2.326 . S
O220 C212 1.252 . S
In221 O222 2.294 . S
In221 O223 2.326 . S
In221 O227 2.266 . S
In221 O228 2.326 . S
In221 O229 2.266 . S
In221 O230 2.326 . S
In221 O232 2.294 . S
In221 O233 2.326 . S
O222 In221 2.294 . S
O222 C231 1.240 . S
O223 In221 2.326 . S
O223 C231 1.252 . S
C224 O227 1.252 . S
C224 O228 1.260 . S
C225 O232 1.240 . S
C225 O233 1.252 . S
C226 O229 1.252 . S
C226 O230 1.260 . S
O227 In221 2.266 . S
O227 C224 1.252 . S
O228 In221 2.326 . S
O228 C224 1.260 . S
O229 In221 2.266 . S
O229 C226 1.252 . S
O230 In221 2.326 . S
O230 C226 1.260 . S
C231 O222 1.240 . S
C231 O223 1.252 . S
O232 In221 2.294 . S
O232 C225 1.240 . S
O233 In221 2.326 . S
O233 C225 1.252 . S
In234 O235 2.294 . S
In234 O236 2.326 . S
In234 O240 2.266 . S
In234 O241 2.326 . S
In234 O242 2.266 . S
In234 O243 2.326 . S
In234 O245 2.294 . S
In234 O246 2.326 . S
O235 In234 2.294 . S
O235 C244 1.240 . S
O236 In234 2.326 . S
O236 C244 1.252 . S
C237 O240 1.252 . S
C237 O241 1.260 . S
C238 O245 1.240 . S
C238 O246 1.252 . S
C239 O242 1.252 . S
C239 O243 1.260 . S
O240 In234 2.266 . S
O240 C237 1.252 . S
O241 In234 2.326 . S
O241 C237 1.260 . S
O242 In234 2.266 . S
O242 C239 1.252 . S
O243 In234 2.326 . S
O243 C239 1.260 . S
C244 O235 1.240 . S
C244 O236 1.252 . S
O245 In234 2.294 . S
O245 C238 1.240 . S
O246 In234 2.326 . S
O246 C238 1.252 . S
In247 O248 2.294 . S
In247 O249 2.326 . S
In247 O253 2.266 . S
In247 O254 2.326 . S
In247 O255 2.266 . S
In247 O256 2.326 . S
In247 O258 2.294 . S
In247 O259 2.326 . S
O248 In247 2.294 . S
O248 C257 1.240 . S
O249 In247 2.326 . S
O249 C257 1.252 . S
C250 O253 1.252 . S
C250 O254 1.260 . S
C251 O258 1.240 . S
C251 O259 1.252 . S
C252 O255 1.252 . S
C252 O256 1.260 . S
O253 In247 2.266 . S
O253 C250 1.252 . S
O254 In247 2.326 . S
O254 C250 1.260 . S
O255 In247 2.266 . S
O255 C252 1.252 . S
O256 In247 2.326 . S
O256 C252 1.260 . S
C257 O248 1.240 . S
C257 O249 1.252 . S
O258 In247 2.294 . S
O258 C251 1.240 . S
O259 In247 2.326 . S
O259 C251 1.252 . S
In260 O261 2.294 . S
In260 O262 2.326 . S
In260 O266 2.266 . S
In260 O267 2.326 . S
In260 O268 2.266 . S
In260 O269 2.326 . S
In260 O271 2.294 . S
In260 O272 2.326 . S
O261 In260 2.294 . S
O261 C270 1.240 . S
O262 In260 2.326 . S
O262 C270 1.252 . S
C263 O266 1.252 . S
C263 O267 1.260 . S
C264 O271 1.240 . S
C264 O272 1.252 . S
C265 O268 1.252 . S
C265 O269 1.260 . S
O266 In260 2.266 . S
O266 C263 1.252 . S
O267 In260 2.326 . S
O267 C263 1.260 . S
O268 In260 2.266 . S
O268 C265 1.252 . S
O269 In260 2.326 . S
O269 C265 1.260 . S
C270 O261 1.240 . S
C270 O262 1.252 . S
O271 In260 2.294 . S
O271 C264 1.240 . S
O272 In260 2.326 . S
O272 C264 1.252 . S
In273 O274 2.294 . S
In273 O275 2.326 . S
In273 O279 2.266 . S
In273 O280 2.326 . S
In273 O281 2.266 . S
In273 O282 2.326 . S
In273 O284 2.294 . S
In273 O285 2.326 . S
O274 In273 2.294 . S
O274 C283 1.240 . S
O275 In273 2.326 . S
O275 C283 1.252 . S
C276 O279 1.252 . S
C276 O280 1.260 . S
C277 O284 1.240 . S
C277 O285 1.252 . S
C278 O281 1.252 . S
C278 O282 1.260 . S
O279 In273 2.266 . S
O279 C276 1.252 . S
O280 In273 2.326 . S
O280 C276 1.260 . S
O281 In273 2.266 . S
O281 C278 1.252 . S
O282 In273 2.326 . S
O282 C278 1.260 . S
C283 O274 1.240 . S
C283 O275 1.252 . S
O284 In273 2.294 . S
O284 C277 1.240 . S
O285 In273 2.326 . S
O285 C277 1.252 . S
In286 O287 2.294 . S
In286 O288 2.326 . S
In286 O292 2.266 . S
In286 O293 2.326 . S
In286 O294 2.266 . S
In286 O295 2.326 . S
In286 O297 2.294 . S
In286 O298 2.326 . S
O287 In286 2.294 . S
O287 C296 1.240 . S
O288 In286 2.326 . S
O288 C296 1.252 . S
C289 O292 1.252 . S
C289 O293 1.260 . S
C290 O297 1.240 . S
C290 O298 1.252 . S
C291 O294 1.252 . S
C291 O295 1.260 . S
O292 In286 2.266 . S
O292 C289 1.252 . S
O293 In286 2.326 . S
O293 C289 1.260 . S
O294 In286 2.266 . S
O294 C291 1.252 . S
O295 In286 2.326 . S
O295 C291 1.260 . S
C296 O287 1.240 . S
C296 O288 1.252 . S
O297 In286 2.294 . S
O297 C290 1.240 . S
O298 In286 2.326 . S
O298 C290 1.252 . S
In299 O300 2.294 . S
In299 O301 2.326 . S
In299 O305 2.266 . S
In299 O306 2.326 . S
In299 O307 2.266 . S
In299 O308 2.326 . S
In299 O310 2.294 . S
In299 O311 2.326 . S
O300 In299 2.294 . S
O300 C309 1.240 . S
O301 In299 2.326 . S
O301 C309 1.252 . S
C302 O305 1.252 . S
C302 O306 1.260 . S
C303 O310 1.240 . S
C303 O311 1.252 . S
C304 O307 1.252 . S
C304 O308 1.260 . S
O305 In299 2.266 . S
O305 C302 1.252 . S
O306 In299 2.326 . S
O306 C302 1.260 . S
O307 In299 2.266 . S
O307 C304 1.252 . S
O308 In299 2.326 . S
O308 C304 1.260 . S
C309 O300 1.240 . S
C309 O301 1.252 . S
O310 In299 2.294 . S
O310 C303 1.240 . S
O311 In299 2.326 . S
O311 C303 1.252 . S
In312 O313 2.294 . S
In312 O314 2.326 . S
In312 O318 2.266 . S
In312 O319 2.326 . S
In312 O320 2.266 . S
In312 O321 2.326 . S
In312 O323 2.294 . S
In312 O324 2.326 . S
O313 In312 2.294 . S
O313 C322 1.240 . S
O314 In312 2.326 . S
O314 C322 1.252 . S
C315 O318 1.252 . S
C315 O319 1.260 . S
C316 O323 1.240 . S
C316 O324 1.252 . S
C317 O320 1.252 . S
C317 O321 1.260 . S
O318 In312 2.266 . S
O318 C315 1.252 . S
O319 In312 2.326 . S
O319 C315 1.260 . S
O320 In312 2.266 . S
O320 C317 1.252 . S
O321 In312 2.326 . S
O321 C317 1.260 . S
C322 O313 1.240 . S
C322 O314 1.252 . S
O323 In312 2.294 . S
O323 C316 1.240 . S
O324 In312 2.326 . S
O324 C316 1.252 . S
In325 O326 2.294 . S
In325 O327 2.326 . S
In325 O331 2.266 . S
In325 O332 2.326 . S
In325 O333 2.266 . S
In325 O334 2.326 . S
In325 O336 2.294 . S
In325 O337 2.326 . S
O326 In325 2.294 . S
O326 C335 1.240 . S
O327 In325 2.326 . S
O327 C335 1.252 . S
C328 O331 1.252 . S
C328 O332 1.260 . S
C329 O336 1.240 . S
C329 O337 1.252 . S
C330 O333 1.252 . S
C330 O334 1.260 . S
O331 In325 2.266 . S
O331 C328 1.252 . S
O332 In325 2.326 . S
O332 C328 1.260 . S
O333 In325 2.266 . S
O333 C330 1.252 . S
O334 In325 2.326 . S
O334 C330 1.260 . S
C335 O326 1.240 . S
C335 O327 1.252 . S
O336 In325 2.294 . S
O336 C329 1.240 . S
O337 In325 2.326 . S
O337 C329 1.252 . S
In338 O339 2.294 . S
In338 O340 2.326 . S
In338 O344 2.266 . S
In338 O345 2.326 . S
In338 O346 2.266 . S
In338 O347 2.326 . S
In338 O349 2.294 . S
In338 O350 2.326 . S
O339 In338 2.294 . S
O339 C348 1.240 . S
O340 In338 2.326 . S
O340 C348 1.252 . S
C341 O344 1.252 . S
C341 O345 1.260 . S
C342 O349 1.240 . S
C342 O350 1.252 . S
C343 O346 1.252 . S
C343 O347 1.260 . S
O344 In338 2.266 . S
O344 C341 1.252 . S
O345 In338 2.326 . S
O345 C341 1.260 . S
O346 In338 2.266 . S
O346 C343 1.252 . S
O347 In338 2.326 . S
O347 C343 1.260 . S
C348 O339 1.240 . S
C348 O340 1.252 . S
O349 In338 2.294 . S
O349 C342 1.240 . S
O350 In338 2.326 . S
O350 C342 1.252 . S
In351 O352 2.294 . S
In351 O353 2.326 . S
In351 O357 2.266 . S
In351 O358 2.326 . S
In351 O359 2.266 . S
In351 O360 2.326 . S
In351 O362 2.294 . S
In351 O363 2.326 . S
O352 In351 2.294 . S
O352 C361 1.240 . S
O353 In351 2.326 . S
O353 C361 1.252 . S
C354 O357 1.252 . S
C354 O358 1.260 . S
C355 O362 1.240 . S
C355 O363 1.252 . S
C356 O359 1.252 . S
C356 O360 1.260 . S
O357 In351 2.266 . S
O357 C354 1.252 . S
O358 In351 2.326 . S
O358 C354 1.260 . S
O359 In351 2.266 . S
O359 C356 1.252 . S
O360 In351 2.326 . S
O360 C356 1.260 . S
C361 O352 1.240 . S
C361 O353 1.252 . S
O362 In351 2.294 . S
O362 C355 1.240 . S
O363 In351 2.326 . S
O363 C355 1.252 . S
In364 O365 2.294 . S
In364 O366 2.326 . S
In364 O370 2.266 . S
In364 O371 2.326 . S
In364 O372 2.266 . S
In364 O373 2.326 . S
In364 O375 2.294 . S
In364 O376 2.326 . S
O365 In364 2.294 . S
O365 C374 1.240 . S
O366 In364 2.326 . S
O366 C374 1.252 . S
C367 O370 1.252 . S
C367 O371 1.260 . S
C368 O375 1.240 . S
C368 O376 1.252 . S
C369 O372 1.252 . S
C369 O373 1.260 . S
O370 In364 2.266 . S
O370 C367 1.252 . S
O371 In364 2.326 . S
O371 C367 1.260 . S
O372 In364 2.266 . S
O372 C369 1.252 . S
O373 In364 2.326 . S
O373 C369 1.260 . S
C374 O365 1.240 . S
C374 O366 1.252 . S
O375 In364 2.294 . S
O375 C368 1.240 . S
O376 In364 2.326 . S
O376 C368 1.252 . S
In377 O378 2.294 . S
In377 O379 2.326 . S
In377 O383 2.266 . S
In377 O384 2.326 . S
In377 O385 2.266 . S
In377 O386 2.326 . S
In377 O388 2.294 . S
In377 O389 2.326 . S
O378 In377 2.294 . S
O378 C387 1.240 . S
O379 In377 2.326 . S
O379 C387 1.252 . S
C380 O383 1.252 . S
C380 O384 1.260 . S
C381 O388 1.240 . S
C381 O389 1.252 . S
C382 O385 1.252 . S
C382 O386 1.260 . S
O383 In377 2.266 . S
O383 C380 1.252 . S
O384 In377 2.326 . S
O384 C380 1.260 . S
O385 In377 2.266 . S
O385 C382 1.252 . S
O386 In377 2.326 . S
O386 C382 1.260 . S
C387 O378 1.240 . S
C387 O379 1.252 . S
O388 In377 2.294 . S
O388 C381 1.240 . S
O389 In377 2.326 . S
O389 C381 1.252 . S
In390 O391 2.294 . S
In390 O392 2.326 . S
In390 O396 2.266 . S
In390 O397 2.326 . S
In390 O398 2.266 . S
In390 O399 2.326 . S
In390 O401 2.294 . S
In390 O402 2.326 . S
O391 In390 2.294 . S
O391 C400 1.240 . S
O392 In390 2.326 . S
O392 C400 1.252 . S
C393 O396 1.252 . S
C393 O397 1.260 . S
C394 O401 1.240 . S
C394 O402 1.252 . S
C395 O398 1.252 . S
C395 O399 1.260 . S
O396 In390 2.266 . S
O396 C393 1.252 . S
O397 In390 2.326 . S
O397 C393 1.260 . S
O398 In390 2.266 . S
O398 C395 1.252 . S
O399 In390 2.326 . S
O399 C395 1.260 . S
C400 O391 1.240 . S
C400 O392 1.252 . S
O401 In390 2.294 . S
O401 C394 1.240 . S
O402 In390 2.326 . S
O402 C394 1.252 . S
In403 O404 2.294 . S
In403 O405 2.326 . S
In403 O409 2.266 . S
In403 O410 2.326 . S
In403 O411 2.266 . S
In403 O412 2.326 . S
In403 O414 2.294 . S
In403 O415 2.326 . S
O404 In403 2.294 . S
O404 C413 1.240 . S
O405 In403 2.326 . S
O405 C413 1.252 . S
C406 O409 1.252 . S
C406 O410 1.260 . S
C407 O414 1.240 . S
C407 O415 1.252 . S
C408 O411 1.252 . S
C408 O412 1.260 . S
O409 In403 2.266 . S
O409 C406 1.252 . S
O410 In403 2.326 . S
O410 C406 1.260 . S
O411 In403 2.266 . S
O411 C408 1.252 . S
O412 In403 2.326 . S
O412 C408 1.260 . S
C413 O404 1.240 . S
C413 O405 1.252 . S
O414 In403 2.294 . S
O414 C407 1.240 . S
O415 In403 2.326 . S
O415 C407 1.252 . S
H416 C424 0.929 . S
H417 C426 0.930 . S
H418 C428 0.930 . S
H419 C431 0.929 . S
H420 C434 0.930 . S
H421 C436 0.960 . S
H422 C436 0.960 . S
H423 C436 0.960 . S
C424 H416 0.929 . S
C424 C425 1.377 . S
C424 C426 1.384 . S
C425 C424 1.377 . S
C425 C431 1.390 . S
C426 H417 0.930 . S
C426 C424 1.384 . S
C426 C427 1.372 . S
C427 C426 1.372 . S
C427 C428 1.400 . S
C427 C432 1.490 . S
C428 H418 0.930 . S
C428 C427 1.400 . S
C428 C431 1.386 . S
H429 C445 0.930 . S
H430 C446 0.931 . S
C431 H419 0.929 . S
C431 C425 1.390 . S
C431 C428 1.386 . S
C432 C427 1.490 . S
C432 C434 1.395 . S
C432 C435 1.403 . S
H433 C439 0.930 . S
C434 H420 0.930 . S
C434 C432 1.395 . S
C434 C437 1.403 . S
C435 C432 1.403 . S
C435 C436 1.524 . S
C435 C439 1.400 . S
C436 H421 0.960 . S
C436 H422 0.960 . S
C436 H423 0.960 . S
C436 C435 1.524 . S
C437 C434 1.403 . S
C437 C438 1.392 . S
C437 C441 1.495 . S
C438 C437 1.392 . S
C438 C439 1.385 . S
C438 C440 1.478 . S
C439 H433 0.930 . S
C439 C435 1.400 . S
C439 C438 1.385 . S
C440 C438 1.478 . S
C440 C442 1.381 . S
C440 C446 1.383 . S
C441 C437 1.495 . S
C441 H447 0.959 . S
C441 H448 0.961 . S
C441 H449 0.960 . S
C442 C440 1.381 . S
C442 C443 1.394 . S
C442 H450 0.930 . S
C443 C442 1.394 . S
C443 C444 1.383 . S
C443 H451 0.929 . S
C444 C443 1.383 . S
C444 C445 1.377 . S
C445 H429 0.930 . S
C445 C444 1.377 . S
C445 C446 1.379 . S
C446 H430 0.931 . S
C446 C440 1.383 . S
C446 C445 1.379 . S
H447 C441 0.959 . S
H448 C441 0.961 . S
H449 C441 0.960 . S
H450 C442 0.930 . S
H451 C443 0.929 . S
H452 C460 0.929 . S
H453 C462 0.930 . S
H454 C464 0.930 . S
H455 C467 0.929 . S
H456 C470 0.930 . S
H457 C472 0.960 . S
H458 C472 0.960 . S
H459 C472 0.960 . S
C460 H452 0.929 . S
C460 C461 1.377 . S
C460 C462 1.384 . S
C461 C460 1.377 . S
C461 C467 1.390 . S
C462 H453 0.930 . S
C462 C460 1.384 . S
C462 C463 1.372 . S
C463 C462 1.372 . S
C463 C464 1.400 . S
C463 C468 1.490 . S
C464 H454 0.930 . S
C464 C463 1.400 . S
C464 C467 1.386 . S
H465 C481 0.930 . S
H466 C482 0.931 . S
C467 H455 0.929 . S
C467 C461 1.390 . S
C467 C464 1.386 . S
C468 C463 1.490 . S
C468 C470 1.395 . S
C468 C471 1.403 . S
H469 C475 0.930 . S
C470 H456 0.930 . S
C470 C468 1.395 . S
C470 C473 1.403 . S
C471 C468 1.403 . S
C471 C472 1.524 . S
C471 C475 1.400 . S
C472 H457 0.960 . S
C472 H458 0.960 . S
C472 H459 0.960 . S
C472 C471 1.524 . S
C473 C470 1.403 . S
C473 C474 1.392 . S
C473 C477 1.495 . S
C474 C473 1.392 . S
C474 C475 1.385 . S
C474 C476 1.478 . S
C475 H469 0.930 . S
C475 C471 1.400 . S
C475 C474 1.385 . S
C476 C474 1.478 . S
C476 C478 1.381 . S
C476 C482 1.383 . S
C477 C473 1.495 . S
C477 H483 0.959 . S
C477 H484 0.961 . S
C477 H485 0.960 . S
C478 C476 1.381 . S
C478 C479 1.394 . S
C478 H486 0.930 . S
C479 C478 1.394 . S
C479 C480 1.383 . S
C479 H487 0.929 . S
C480 C479 1.383 . S
C480 C481 1.377 . S
C481 H465 0.930 . S
C481 C480 1.377 . S
C481 C482 1.379 . S
C482 H466 0.931 . S
C482 C476 1.383 . S
C482 C481 1.379 . S
H483 C477 0.959 . S
H484 C477 0.961 . S
H485 C477 0.960 . S
H486 C478 0.930 . S
H487 C479 0.929 . S
H488 C496 0.929 . S
H489 C498 0.930 . S
H490 C500 0.930 . S
H491 C503 0.929 . S
H492 C506 0.930 . S
H493 C508 0.960 . S
H494 C508 0.960 . S
H495 C508 0.960 . S
C496 H488 0.929 . S
C496 C497 1.377 . S
C496 C498 1.384 . S
C497 C496 1.377 . S
C497 C503 1.390 . S
C498 H489 0.930 . S
C498 C496 1.384 . S
C498 C499 1.372 . S
C499 C498 1.372 . S
C499 C500 1.400 . S
C499 C504 1.490 . S
C500 H490 0.930 . S
C500 C499 1.400 . S
C500 C503 1.386 . S
H501 C517 0.930 . S
H502 C518 0.931 . S
C503 H491 0.929 . S
C503 C497 1.390 . S
C503 C500 1.386 . S
C504 C499 1.490 . S
C504 C506 1.395 . S
C504 C507 1.403 . S
H505 C511 0.930 . S
C506 H492 0.930 . S
C506 C504 1.395 . S
C506 C509 1.403 . S
C507 C504 1.403 . S
C507 C508 1.524 . S
C507 C511 1.400 . S
C508 H493 0.960 . S
C508 H494 0.960 . S
C508 H495 0.960 . S
C508 C507 1.524 . S
C509 C506 1.403 . S
C509 C510 1.392 . S
C509 C513 1.495 . S
C510 C509 1.392 . S
C510 C511 1.385 . S
C510 C512 1.478 . S
C511 H505 0.930 . S
C511 C507 1.400 . S
C511 C510 1.385 . S
C512 C510 1.478 . S
C512 C514 1.381 . S
C512 C518 1.383 . S
C513 C509 1.495 . S
C513 H519 0.959 . S
C513 H520 0.961 . S
C513 H521 0.960 . S
C514 C512 1.381 . S
C514 C515 1.394 . S
C514 H522 0.930 . S
C515 C514 1.394 . S
C515 C516 1.383 . S
C515 H523 0.929 . S
C516 C515 1.383 . S
C516 C517 1.377 . S
C517 H501 0.930 . S
C517 C516 1.377 . S
C517 C518 1.379 . S
C518 H502 0.931 . S
C518 C512 1.383 . S
C518 C517 1.379 . S
H519 C513 0.959 . S
H520 C513 0.961 . S
H521 C513 0.960 . S
H522 C514 0.930 . S
H523 C515 0.929 . S
H524 C532 0.929 . S
H525 C534 0.930 . S
H526 C536 0.930 . S
H527 C539 0.929 . S
H528 C542 0.930 . S
H529 C544 0.960 . S
H530 C544 0.960 . S
H531 C544 0.960 . S
C532 H524 0.929 . S
C532 C533 1.377 . S
C532 C534 1.384 . S
C533 C532 1.377 . S
C533 C539 1.390 . S
C534 H525 0.930 . S
C534 C532 1.384 . S
C534 C535 1.372 . S
C535 C534 1.372 . S
C535 C536 1.400 . S
C535 C540 1.490 . S
C536 H526 0.930 . S
C536 C535 1.400 . S
C536 C539 1.386 . S
H537 C553 0.930 . S
H538 C554 0.931 . S
C539 H527 0.929 . S
C539 C533 1.390 . S
C539 C536 1.386 . S
C540 C535 1.490 . S
C540 C542 1.395 . S
C540 C543 1.403 . S
H541 C547 0.930 . S
C542 H528 0.930 . S
C542 C540 1.395 . S
C542 C545 1.403 . S
C543 C540 1.403 . S
C543 C544 1.524 . S
C543 C547 1.400 . S
C544 H529 0.960 . S
C544 H530 0.960 . S
C544 H531 0.960 . S
C544 C543 1.524 . S
C545 C542 1.403 . S
C545 C546 1.392 . S
C545 C549 1.495 . S
C546 C545 1.392 . S
C546 C547 1.385 . S
C546 C548 1.478 . S
C547 H541 0.930 . S
C547 C543 1.400 . S
C547 C546 1.385 . S
C548 C546 1.478 . S
C548 C550 1.381 . S
C548 C554 1.383 . S
C549 C545 1.495 . S
C549 H555 0.959 . S
C549 H556 0.961 . S
C549 H557 0.960 . S
C550 C548 1.381 . S
C550 C551 1.394 . S
C550 H558 0.930 . S
C551 C550 1.394 . S
C551 C552 1.383 . S
C551 H559 0.929 . S
C552 C551 1.383 . S
C552 C553 1.377 . S
C553 H537 0.930 . S
C553 C552 1.377 . S
C553 C554 1.379 . S
C554 H538 0.931 . S
C554 C548 1.383 . S
C554 C553 1.379 . S
H555 C549 0.959 . S
H556 C549 0.961 . S
H557 C549 0.960 . S
H558 C550 0.930 . S
H559 C551 0.929 . S
H560 C568 0.929 . S
H561 C570 0.930 . S
H562 C572 0.930 . S
H563 C575 0.929 . S
H564 C578 0.930 . S
H565 C580 0.960 . S
H566 C580 0.960 . S
H567 C580 0.960 . S
C568 H560 0.929 . S
C568 C569 1.377 . S
C568 C570 1.384 . S
C569 C568 1.377 . S
C569 C575 1.390 . S
C570 H561 0.930 . S
C570 C568 1.384 . S
C570 C571 1.372 . S
C571 C570 1.372 . S
C571 C572 1.400 . S
C571 C576 1.490 . S
C572 H562 0.930 . S
C572 C571 1.400 . S
C572 C575 1.386 . S
H573 C589 0.930 . S
H574 C590 0.931 . S
C575 H563 0.929 . S
C575 C569 1.390 . S
C575 C572 1.386 . S
C576 C571 1.490 . S
C576 C578 1.395 . S
C576 C579 1.403 . S
H577 C583 0.930 . S
C578 H564 0.930 . S
C578 C576 1.395 . S
C578 C581 1.403 . S
C579 C576 1.403 . S
C579 C580 1.524 . S
C579 C583 1.400 . S
C580 H565 0.960 . S
C580 H566 0.960 . S
C580 H567 0.960 . S
C580 C579 1.524 . S
C581 C578 1.403 . S
C581 C582 1.392 . S
C581 C585 1.495 . S
C582 C581 1.392 . S
C582 C583 1.385 . S
C582 C584 1.478 . S
C583 H577 0.930 . S
C583 C579 1.400 . S
C583 C582 1.385 . S
C584 C582 1.478 . S
C584 C586 1.381 . S
C584 C590 1.383 . S
C585 C581 1.495 . S
C585 H591 0.959 . S
C585 H592 0.961 . S
C585 H593 0.960 . S
C586 C584 1.381 . S
C586 C587 1.394 . S
C586 H594 0.930 . S
C587 C586 1.394 . S
C587 C588 1.383 . S
C587 H595 0.929 . S
C588 C587 1.383 . S
C588 C589 1.377 . S
C589 H573 0.930 . S
C589 C588 1.377 . S
C589 C590 1.379 . S
C590 H574 0.931 . S
C590 C584 1.383 . S
C590 C589 1.379 . S
H591 C585 0.959 . S
H592 C585 0.961 . S
H593 C585 0.960 . S
H594 C586 0.930 . S
H595 C587 0.929 . S
H596 C604 0.929 . S
H597 C606 0.930 . S
H598 C608 0.930 . S
H599 C611 0.929 . S
H600 C614 0.930 . S
H601 C616 0.960 . S
H602 C616 0.960 . S
H603 C616 0.960 . S
C604 H596 0.929 . S
C604 C605 1.377 . S
C604 C606 1.384 . S
C605 C604 1.377 . S
C605 C611 1.390 . S
C606 H597 0.930 . S
C606 C604 1.384 . S
C606 C607 1.372 . S
C607 C606 1.372 . S
C607 C608 1.400 . S
C607 C612 1.490 . S
C608 H598 0.930 . S
C608 C607 1.400 . S
C608 C611 1.386 . S
H609 C625 0.930 . S
H610 C626 0.931 . S
C611 H599 0.929 . S
C611 C605 1.390 . S
C611 C608 1.386 . S
C612 C607 1.490 . S
C612 C614 1.395 . S
C612 C615 1.403 . S
H613 C619 0.930 . S
C614 H600 0.930 . S
C614 C612 1.395 . S
C614 C617 1.403 . S
C615 C612 1.403 . S
C615 C616 1.524 . S
C615 C619 1.400 . S
C616 H601 0.960 . S
C616 H602 0.960 . S
C616 H603 0.960 . S
C616 C615 1.524 . S
C617 C614 1.403 . S
C617 C618 1.392 . S
C617 C621 1.495 . S
C618 C617 1.392 . S
C618 C619 1.385 . S
C618 C620 1.478 . S
C619 H613 0.930 . S
C619 C615 1.400 . S
C619 C618 1.385 . S
C620 C618 1.478 . S
C620 C622 1.381 . S
C620 C626 1.383 . S
C621 C617 1.495 . S
C621 H627 0.959 . S
C621 H628 0.961 . S
C621 H629 0.960 . S
C622 C620 1.381 . S
C622 C623 1.394 . S
C622 H630 0.930 . S
C623 C622 1.394 . S
C623 C624 1.383 . S
C623 H631 0.929 . S
C624 C623 1.383 . S
C624 C625 1.377 . S
C625 H609 0.930 . S
C625 C624 1.377 . S
C625 C626 1.379 . S
C626 H610 0.931 . S
C626 C620 1.383 . S
C626 C625 1.379 . S
H627 C621 0.959 . S
H628 C621 0.961 . S
H629 C621 0.960 . S
H630 C622 0.930 . S
H631 C623 0.929 . S
H632 C640 0.929 . S
H633 C642 0.930 . S
H634 C644 0.930 . S
H635 C647 0.929 . S
H636 C650 0.930 . S
H637 C652 0.960 . S
H638 C652 0.960 . S
H639 C652 0.960 . S
C640 H632 0.929 . S
C640 C641 1.377 . S
C640 C642 1.384 . S
C641 C640 1.377 . S
C641 C647 1.390 . S
C642 H633 0.930 . S
C642 C640 1.384 . S
C642 C643 1.372 . S
C643 C642 1.372 . S
C643 C644 1.400 . S
C643 C648 1.490 . S
C644 H634 0.930 . S
C644 C643 1.400 . S
C644 C647 1.386 . S
H645 C661 0.930 . S
H646 C662 0.931 . S
C647 H635 0.929 . S
C647 C641 1.390 . S
C647 C644 1.386 . S
C648 C643 1.490 . S
C648 C650 1.395 . S
C648 C651 1.403 . S
H649 C655 0.930 . S
C650 H636 0.930 . S
C650 C648 1.395 . S
C650 C653 1.403 . S
C651 C648 1.403 . S
C651 C652 1.524 . S
C651 C655 1.400 . S
C652 H637 0.960 . S
C652 H638 0.960 . S
C652 H639 0.960 . S
C652 C651 1.524 . S
C653 C650 1.403 . S
C653 C654 1.392 . S
C653 C657 1.495 . S
C654 C653 1.392 . S
C654 C655 1.385 . S
C654 C656 1.478 . S
C655 H649 0.930 . S
C655 C651 1.400 . S
C655 C654 1.385 . S
C656 C654 1.478 . S
C656 C658 1.381 . S
C656 C662 1.383 . S
C657 C653 1.495 . S
C657 H663 0.959 . S
C657 H664 0.961 . S
C657 H665 0.960 . S
C658 C656 1.381 . S
C658 C659 1.394 . S
C658 H666 0.930 . S
C659 C658 1.394 . S
C659 C660 1.383 . S
C659 H667 0.929 . S
C660 C659 1.383 . S
C660 C661 1.377 . S
C661 H645 0.930 . S
C661 C660 1.377 . S
C661 C662 1.379 . S
C662 H646 0.931 . S
C662 C656 1.383 . S
C662 C661 1.379 . S
H663 C657 0.959 . S
H664 C657 0.961 . S
H665 C657 0.960 . S
H666 C658 0.930 . S
H667 C659 0.929 . S
H668 C676 0.929 . S
H669 C678 0.930 . S
H670 C680 0.930 . S
H671 C683 0.929 . S
H672 C686 0.930 . S
H673 C688 0.960 . S
H674 C688 0.960 . S
H675 C688 0.960 . S
C676 H668 0.929 . S
C676 C677 1.377 . S
C676 C678 1.384 . S
C677 C676 1.377 . S
C677 C683 1.390 . S
C678 H669 0.930 . S
C678 C676 1.384 . S
C678 C679 1.372 . S
C679 C678 1.372 . S
C679 C680 1.400 . S
C679 C684 1.490 . S
C680 H670 0.930 . S
C680 C679 1.400 . S
C680 C683 1.386 . S
H681 C697 0.930 . S
H682 C698 0.931 . S
C683 H671 0.929 . S
C683 C677 1.390 . S
C683 C680 1.386 . S
C684 C679 1.490 . S
C684 C686 1.395 . S
C684 C687 1.403 . S
H685 C691 0.930 . S
C686 H672 0.930 . S
C686 C684 1.395 . S
C686 C689 1.403 . S
C687 C684 1.403 . S
C687 C688 1.524 . S
C687 C691 1.400 . S
C688 H673 0.960 . S
C688 H674 0.960 . S
C688 H675 0.960 . S
C688 C687 1.524 . S
C689 C686 1.403 . S
C689 C690 1.392 . S
C689 C693 1.495 . S
C690 C689 1.392 . S
C690 C691 1.385 . S
C690 C692 1.478 . S
C691 H685 0.930 . S
C691 C687 1.400 . S
C691 C690 1.385 . S
C692 C690 1.478 . S
C692 C694 1.381 . S
C692 C698 1.383 . S
C693 C689 1.495 . S
C693 H699 0.959 . S
C693 H700 0.961 . S
C693 H701 0.960 . S
C694 C692 1.381 . S
C694 C695 1.394 . S
C694 H702 0.930 . S
C695 C694 1.394 . S
C695 C696 1.383 . S
C695 H703 0.929 . S
C696 C695 1.383 . S
C696 C697 1.377 . S
C697 H681 0.930 . S
C697 C696 1.377 . S
C697 C698 1.379 . S
C698 H682 0.931 . S
C698 C692 1.383 . S
C698 C697 1.379 . S
H699 C693 0.959 . S
H700 C693 0.961 . S
H701 C693 0.960 . S
H702 C694 0.930 . S
H703 C695 0.929 . S
H704 C712 0.929 . S
H705 C714 0.930 . S
H706 C716 0.930 . S
H707 C719 0.929 . S
H708 C722 0.930 . S
H709 C724 0.960 . S
H710 C724 0.960 . S
H711 C724 0.960 . S
C712 H704 0.929 . S
C712 C713 1.377 . S
C712 C714 1.384 . S
C713 C712 1.377 . S
C713 C719 1.390 . S
C714 H705 0.930 . S
C714 C712 1.384 . S
C714 C715 1.372 . S
C715 C714 1.372 . S
C715 C716 1.400 . S
C715 C720 1.490 . S
C716 H706 0.930 . S
C716 C715 1.400 . S
C716 C719 1.386 . S
H717 C733 0.930 . S
H718 C734 0.931 . S
C719 H707 0.929 . S
C719 C713 1.390 . S
C719 C716 1.386 . S
C720 C715 1.490 . S
C720 C722 1.395 . S
C720 C723 1.403 . S
H721 C727 0.930 . S
C722 H708 0.930 . S
C722 C720 1.395 . S
C722 C725 1.403 . S
C723 C720 1.403 . S
C723 C724 1.524 . S
C723 C727 1.400 . S
C724 H709 0.960 . S
C724 H710 0.960 . S
C724 H711 0.960 . S
C724 C723 1.524 . S
C725 C722 1.403 . S
C725 C726 1.392 . S
C725 C729 1.495 . S
C726 C725 1.392 . S
C726 C727 1.385 . S
C726 C728 1.478 . S
C727 H721 0.930 . S
C727 C723 1.400 . S
C727 C726 1.385 . S
C728 C726 1.478 . S
C728 C730 1.381 . S
C728 C734 1.383 . S
C729 C725 1.495 . S
C729 H735 0.959 . S
C729 H736 0.961 . S
C729 H737 0.960 . S
C730 C728 1.381 . S
C730 C731 1.394 . S
C730 H738 0.930 . S
C731 C730 1.394 . S
C731 C732 1.383 . S
C731 H739 0.929 . S
C732 C731 1.383 . S
C732 C733 1.377 . S
C733 H717 0.930 . S
C733 C732 1.377 . S
C733 C734 1.379 . S
C734 H718 0.931 . S
C734 C728 1.383 . S
C734 C733 1.379 . S
H735 C729 0.959 . S
H736 C729 0.961 . S
H737 C729 0.960 . S
H738 C730 0.930 . S
H739 C731 0.929 . S
H740 C748 0.929 . S
H741 C750 0.930 . S
H742 C752 0.930 . S
H743 C755 0.929 . S
H744 C758 0.930 . S
H745 C760 0.960 . S
H746 C760 0.960 . S
H747 C760 0.960 . S
C748 H740 0.929 . S
C748 C749 1.377 . S
C748 C750 1.384 . S
C749 C748 1.377 . S
C749 C755 1.390 . S
C750 H741 0.930 . S
C750 C748 1.384 . S
C750 C751 1.372 . S
C751 C750 1.372 . S
C751 C752 1.400 . S
C751 C756 1.490 . S
C752 H742 0.930 . S
C752 C751 1.400 . S
C752 C755 1.386 . S
H753 C769 0.930 . S
H754 C770 0.931 . S
C755 H743 0.929 . S
C755 C749 1.390 . S
C755 C752 1.386 . S
C756 C751 1.490 . S
C756 C758 1.395 . S
C756 C759 1.403 . S
H757 C763 0.930 . S
C758 H744 0.930 . S
C758 C756 1.395 . S
C758 C761 1.403 . S
C759 C756 1.403 . S
C759 C760 1.524 . S
C759 C763 1.400 . S
C760 H745 0.960 . S
C760 H746 0.960 . S
C760 H747 0.960 . S
C760 C759 1.524 . S
C761 C758 1.403 . S
C761 C762 1.392 . S
C761 C765 1.495 . S
C762 C761 1.392 . S
C762 C763 1.385 . S
C762 C764 1.478 . S
C763 H757 0.930 . S
C763 C759 1.400 . S
C763 C762 1.385 . S
C764 C762 1.478 . S
C764 C766 1.381 . S
C764 C770 1.383 . S
C765 C761 1.495 . S
C765 H771 0.959 . S
C765 H772 0.961 . S
C765 H773 0.960 . S
C766 C764 1.381 . S
C766 C767 1.394 . S
C766 H774 0.930 . S
C767 C766 1.394 . S
C767 C768 1.383 . S
C767 H775 0.929 . S
C768 C767 1.383 . S
C768 C769 1.377 . S
C769 H753 0.930 . S
C769 C768 1.377 . S
C769 C770 1.379 . S
C770 H754 0.931 . S
C770 C764 1.383 . S
C770 C769 1.379 . S
H771 C765 0.959 . S
H772 C765 0.961 . S
H773 C765 0.960 . S
H774 C766 0.930 . S
H775 C767 0.929 . S
H776 C784 0.929 . S
H777 C786 0.930 . S
H778 C788 0.930 . S
H779 C791 0.929 . S
H780 C794 0.930 . S
H781 C796 0.960 . S
H782 C796 0.960 . S
H783 C796 0.960 . S
C784 H776 0.929 . S
C784 C785 1.377 . S
C784 C786 1.384 . S
C785 C784 1.377 . S
C785 C791 1.390 . S
C786 H777 0.930 . S
C786 C784 1.384 . S
C786 C787 1.372 . S
C787 C786 1.372 . S
C787 C788 1.400 . S
C787 C792 1.490 . S
C788 H778 0.930 . S
C788 C787 1.400 . S
C788 C791 1.386 . S
H789 C805 0.930 . S
H790 C806 0.931 . S
C791 H779 0.929 . S
C791 C785 1.390 . S
C791 C788 1.386 . S
C792 C787 1.490 . S
C792 C794 1.395 . S
C792 C795 1.403 . S
H793 C799 0.930 . S
C794 H780 0.930 . S
C794 C792 1.395 . S
C794 C797 1.403 . S
C795 C792 1.403 . S
C795 C796 1.524 . S
C795 C799 1.400 . S
C796 H781 0.960 . S
C796 H782 0.960 . S
C796 H783 0.960 . S
C796 C795 1.524 . S
C797 C794 1.403 . S
C797 C798 1.392 . S
C797 C801 1.495 . S
C798 C797 1.392 . S
C798 C799 1.385 . S
C798 C800 1.478 . S
C799 H793 0.930 . S
C799 C795 1.400 . S
C799 C798 1.385 . S
C800 C798 1.478 . S
C800 C802 1.381 . S
C800 C806 1.383 . S
C801 C797 1.495 . S
C801 H807 0.959 . S
C801 H808 0.961 . S
C801 H809 0.960 . S
C802 C800 1.381 . S
C802 C803 1.394 . S
C802 H810 0.930 . S
C803 C802 1.394 . S
C803 C804 1.383 . S
C803 H811 0.929 . S
C804 C803 1.383 . S
C804 C805 1.377 . S
C805 H789 0.930 . S
C805 C804 1.377 . S
C805 C806 1.379 . S
C806 H790 0.931 . S
C806 C800 1.383 . S
C806 C805 1.379 . S
H807 C801 0.959 . S
H808 C801 0.961 . S
H809 C801 0.960 . S
H810 C802 0.930 . S
H811 C803 0.929 . S
H812 C820 0.929 . S
H813 C822 0.930 . S
H814 C824 0.930 . S
H815 C827 0.929 . S
H816 C830 0.930 . S
H817 C832 0.960 . S
H818 C832 0.960 . S
H819 C832 0.960 . S
C820 H812 0.929 . S
C820 C821 1.377 . S
C820 C822 1.384 . S
C821 C820 1.377 . S
C821 C827 1.390 . S
C822 H813 0.930 . S
C822 C820 1.384 . S
C822 C823 1.372 . S
C823 C822 1.372 . S
C823 C824 1.400 . S
C823 C828 1.490 . S
C824 H814 0.930 . S
C824 C823 1.400 . S
C824 C827 1.386 . S
H825 C841 0.930 . S
H826 C842 0.931 . S
C827 H815 0.929 . S
C827 C821 1.390 . S
C827 C824 1.386 . S
C828 C823 1.490 . S
C828 C830 1.395 . S
C828 C831 1.403 . S
H829 C835 0.930 . S
C830 H816 0.930 . S
C830 C828 1.395 . S
C830 C833 1.403 . S
C831 C828 1.403 . S
C831 C832 1.524 . S
C831 C835 1.400 . S
C832 H817 0.960 . S
C832 H818 0.960 . S
C832 H819 0.960 . S
C832 C831 1.524 . S
C833 C830 1.403 . S
C833 C834 1.392 . S
C833 C837 1.495 . S
C834 C833 1.392 . S
C834 C835 1.385 . S
C834 C836 1.478 . S
C835 H829 0.930 . S
C835 C831 1.400 . S
C835 C834 1.385 . S
C836 C834 1.478 . S
C836 C838 1.381 . S
C836 C842 1.383 . S
C837 C833 1.495 . S
C837 H843 0.959 . S
C837 H844 0.961 . S
C837 H845 0.960 . S
C838 C836 1.381 . S
C838 C839 1.394 . S
C838 H846 0.930 . S
C839 C838 1.394 . S
C839 C840 1.383 . S
C839 H847 0.929 . S
C840 C839 1.383 . S
C840 C841 1.377 . S
C841 H825 0.930 . S
C841 C840 1.377 . S
C841 C842 1.379 . S
C842 H826 0.931 . S
C842 C836 1.383 . S
C842 C841 1.379 . S
H843 C837 0.959 . S
H844 C837 0.961 . S
H845 C837 0.960 . S
H846 C838 0.930 . S
H847 C839 0.929 . S
H848 C856 0.929 . S
H849 C858 0.930 . S
H850 C860 0.930 . S
H851 C863 0.929 . S
H852 C866 0.930 . S
H853 C868 0.960 . S
H854 C868 0.960 . S
H855 C868 0.960 . S
C856 H848 0.929 . S
C856 C857 1.377 . S
C856 C858 1.384 . S
C857 C856 1.377 . S
C857 C863 1.390 . S
C858 H849 0.930 . S
C858 C856 1.384 . S
C858 C859 1.372 . S
C859 C858 1.372 . S
C859 C860 1.400 . S
C859 C864 1.490 . S
C860 H850 0.930 . S
C860 C859 1.400 . S
C860 C863 1.386 . S
H861 C877 0.930 . S
H862 C878 0.931 . S
C863 H851 0.929 . S
C863 C857 1.390 . S
C863 C860 1.386 . S
C864 C859 1.490 . S
C864 C866 1.395 . S
C864 C867 1.403 . S
H865 C871 0.930 . S
C866 H852 0.930 . S
C866 C864 1.395 . S
C866 C869 1.403 . S
C867 C864 1.403 . S
C867 C868 1.524 . S
C867 C871 1.400 . S
C868 H853 0.960 . S
C868 H854 0.960 . S
C868 H855 0.960 . S
C868 C867 1.524 . S
C869 C866 1.403 . S
C869 C870 1.392 . S
C869 C873 1.495 . S
C870 C869 1.392 . S
C870 C871 1.385 . S
C870 C872 1.478 . S
C871 H865 0.930 . S
C871 C867 1.400 . S
C871 C870 1.385 . S
C872 C870 1.478 . S
C872 C874 1.381 . S
C872 C878 1.383 . S
C873 C869 1.495 . S
C873 H879 0.959 . S
C873 H880 0.961 . S
C873 H881 0.960 . S
C874 C872 1.381 . S
C874 C875 1.394 . S
C874 H882 0.930 . S
C875 C874 1.394 . S
C875 C876 1.383 . S
C875 H883 0.929 . S
C876 C875 1.383 . S
C876 C877 1.377 . S
C877 H861 0.930 . S
C877 C876 1.377 . S
C877 C878 1.379 . S
C878 H862 0.931 . S
C878 C872 1.383 . S
C878 C877 1.379 . S
H879 C873 0.959 . S
H880 C873 0.961 . S
H881 C873 0.960 . S
H882 C874 0.930 . S
H883 C875 0.929 . S
H884 C892 0.929 . S
H885 C894 0.930 . S
H886 C896 0.930 . S
H887 C899 0.929 . S
H888 C902 0.930 . S
H889 C904 0.960 . S
H890 C904 0.960 . S
H891 C904 0.960 . S
C892 H884 0.929 . S
C892 C893 1.377 . S
C892 C894 1.384 . S
C893 C892 1.377 . S
C893 C899 1.390 . S
C894 H885 0.930 . S
C894 C892 1.384 . S
C894 C895 1.372 . S
C895 C894 1.372 . S
C895 C896 1.400 . S
C895 C900 1.490 . S
C896 H886 0.930 . S
C896 C895 1.400 . S
C896 C899 1.386 . S
H897 C913 0.930 . S
H898 C914 0.931 . S
C899 H887 0.929 . S
C899 C893 1.390 . S
C899 C896 1.386 . S
C900 C895 1.490 . S
C900 C902 1.395 . S
C900 C903 1.403 . S
H901 C907 0.930 . S
C902 H888 0.930 . S
C902 C900 1.395 . S
C902 C905 1.403 . S
C903 C900 1.403 . S
C903 C904 1.524 . S
C903 C907 1.400 . S
C904 H889 0.960 . S
C904 H890 0.960 . S
C904 H891 0.960 . S
C904 C903 1.524 . S
C905 C902 1.403 . S
C905 C906 1.392 . S
C905 C909 1.495 . S
C906 C905 1.392 . S
C906 C907 1.385 . S
C906 C908 1.478 . S
C907 H901 0.930 . S
C907 C903 1.400 . S
C907 C906 1.385 . S
C908 C906 1.478 . S
C908 C910 1.381 . S
C908 C914 1.383 . S
C909 C905 1.495 . S
C909 H915 0.959 . S
C909 H916 0.961 . S
C909 H917 0.960 . S
C910 C908 1.381 . S
C910 C911 1.394 . S
C910 H918 0.930 . S
C911 C910 1.394 . S
C911 C912 1.383 . S
C911 H919 0.929 . S
C912 C911 1.383 . S
C912 C913 1.377 . S
C913 H897 0.930 . S
C913 C912 1.377 . S
C913 C914 1.379 . S
C914 H898 0.931 . S
C914 C908 1.383 . S
C914 C913 1.379 . S
H915 C909 0.959 . S
H916 C909 0.961 . S
H917 C909 0.960 . S
H918 C910 0.930 . S
H919 C911 0.929 . S
H920 C928 0.929 . S
H921 C930 0.930 . S
H922 C932 0.930 . S
H923 C935 0.929 . S
H924 C938 0.930 . S
H925 C940 0.960 . S
H926 C940 0.960 . S
H927 C940 0.960 . S
C928 H920 0.929 . S
C928 C929 1.377 . S
C928 C930 1.384 . S
C929 C928 1.377 . S
C929 C935 1.390 . S
C930 H921 0.930 . S
C930 C928 1.384 . S
C930 C931 1.372 . S
C931 C930 1.372 . S
C931 C932 1.400 . S
C931 C936 1.490 . S
C932 H922 0.930 . S
C932 C931 1.400 . S
C932 C935 1.386 . S
H933 C949 0.930 . S
H934 C950 0.931 . S
C935 H923 0.929 . S
C935 C929 1.390 . S
C935 C932 1.386 . S
C936 C931 1.490 . S
C936 C938 1.395 . S
C936 C939 1.403 . S
H937 C943 0.930 . S
C938 H924 0.930 . S
C938 C936 1.395 . S
C938 C941 1.403 . S
C939 C936 1.403 . S
C939 C940 1.524 . S
C939 C943 1.400 . S
C940 H925 0.960 . S
C940 H926 0.960 . S
C940 H927 0.960 . S
C940 C939 1.524 . S
C941 C938 1.403 . S
C941 C942 1.392 . S
C941 C945 1.495 . S
C942 C941 1.392 . S
C942 C943 1.385 . S
C942 C944 1.478 . S
C943 H937 0.930 . S
C943 C939 1.400 . S
C943 C942 1.385 . S
C944 C942 1.478 . S
C944 C946 1.381 . S
C944 C950 1.383 . S
C945 C941 1.495 . S
C945 H951 0.959 . S
C945 H952 0.961 . S
C945 H953 0.960 . S
C946 C944 1.381 . S
C946 C947 1.394 . S
C946 H954 0.930 . S
C947 C946 1.394 . S
C947 C948 1.383 . S
C947 H955 0.929 . S
C948 C947 1.383 . S
C948 C949 1.377 . S
C949 H933 0.930 . S
C949 C948 1.377 . S
C949 C950 1.379 . S
C950 H934 0.931 . S
C950 C944 1.383 . S
C950 C949 1.379 . S
H951 C945 0.959 . S
H952 C945 0.961 . S
H953 C945 0.960 . S
H954 C946 0.930 . S
H955 C947 0.929 . S
H956 C964 0.929 . S
H957 C966 0.930 . S
H958 C968 0.930 . S
H959 C971 0.929 . S
H960 C974 0.930 . S
H961 C976 0.960 . S
H962 C976 0.960 . S
H963 C976 0.960 . S
C964 H956 0.929 . S
C964 C965 1.377 . S
C964 C966 1.384 . S
C965 C964 1.377 . S
C965 C971 1.390 . S
C966 H957 0.930 . S
C966 C964 1.384 . S
C966 C967 1.372 . S
C967 C966 1.372 . S
C967 C968 1.400 . S
C967 C972 1.490 . S
C968 H958 0.930 . S
C968 C967 1.400 . S
C968 C971 1.386 . S
H969 C985 0.930 . S
H970 C986 0.931 . S
C971 H959 0.929 . S
C971 C965 1.390 . S
C971 C968 1.386 . S
C972 C967 1.490 . S
C972 C974 1.395 . S
C972 C975 1.403 . S
H973 C979 0.930 . S
C974 H960 0.930 . S
C974 C972 1.395 . S
C974 C977 1.403 . S
C975 C972 1.403 . S
C975 C976 1.524 . S
C975 C979 1.400 . S
C976 H961 0.960 . S
C976 H962 0.960 . S
C976 H963 0.960 . S
C976 C975 1.524 . S
C977 C974 1.403 . S
C977 C978 1.392 . S
C977 C981 1.495 . S
C978 C977 1.392 . S
C978 C979 1.385 . S
C978 C980 1.478 . S
C979 H973 0.930 . S
C979 C975 1.400 . S
C979 C978 1.385 . S
C980 C978 1.478 . S
C980 C982 1.381 . S
C980 C986 1.383 . S
C981 C977 1.495 . S
C981 H987 0.959 . S
C981 H988 0.961 . S
C981 H989 0.960 . S
C982 C980 1.381 . S
C982 C983 1.394 . S
C982 H990 0.930 . S
C983 C982 1.394 . S
C983 C984 1.383 . S
C983 H991 0.929 . S
C984 C983 1.383 . S
C984 C985 1.377 . S
C985 H969 0.930 . S
C985 C984 1.377 . S
C985 C986 1.379 . S
C986 H970 0.931 . S
C986 C980 1.383 . S
C986 C985 1.379 . S
H987 C981 0.959 . S
H988 C981 0.961 . S
H989 C981 0.960 . S
H990 C982 0.930 . S
H991 C983 0.929 . S
H992 C1000 0.929 . S
H993 C1002 0.930 . S
H994 C1004 0.930 . S
H995 C1007 0.929 . S
H996 C1010 0.930 . S
H997 C1012 0.960 . S
H998 C1012 0.960 . S
H999 C1012 0.960 . S
C1000 H992 0.929 . S
C1000 C1001 1.377 . S
C1000 C1002 1.384 . S
C1001 C1000 1.377 . S
C1001 C1007 1.390 . S
C1002 H993 0.930 . S
C1002 C1000 1.384 . S
C1002 C1003 1.372 . S
C1003 C1002 1.372 . S
C1003 C1004 1.400 . S
C1003 C1008 1.490 . S
C1004 H994 0.930 . S
C1004 C1003 1.400 . S
C1004 C1007 1.386 . S
H1005 C1021 0.930 . S
H1006 C1022 0.931 . S
C1007 H995 0.929 . S
C1007 C1001 1.390 . S
C1007 C1004 1.386 . S
C1008 C1003 1.490 . S
C1008 C1010 1.395 . S
C1008 C1011 1.403 . S
H1009 C1015 0.930 . S
C1010 H996 0.930 . S
C1010 C1008 1.395 . S
C1010 C1013 1.403 1_455 S
C1011 C1008 1.403 . S
C1011 C1012 1.524 . S
C1011 C1015 1.400 1_455 S
C1012 H997 0.960 . S
C1012 H998 0.960 . S
C1012 H999 0.960 . S
C1012 C1011 1.524 . S
C1013 C1010 1.403 1_655 S
C1013 C1014 1.392 . S
C1013 C1017 1.495 . S
C1014 C1013 1.392 . S
C1014 C1015 1.385 . S
C1014 C1016 1.478 . S
C1015 H1009 0.930 . S
C1015 C1011 1.400 1_655 S
C1015 C1014 1.385 . S
C1016 C1014 1.478 . S
C1016 C1018 1.381 . S
C1016 C1022 1.383 . S
C1017 C1013 1.495 . S
C1017 H1023 0.959 . S
C1017 H1024 0.961 . S
C1017 H1025 0.960 . S
C1018 C1016 1.381 . S
C1018 C1019 1.394 . S
C1018 H1026 0.930 . S
C1019 C1018 1.394 . S
C1019 C1020 1.383 . S
C1019 H1027 0.929 . S
C1020 C1019 1.383 . S
C1020 C1021 1.377 . S
C1021 H1005 0.930 . S
C1021 C1020 1.377 . S
C1021 C1022 1.379 . S
C1022 H1006 0.931 . S
C1022 C1016 1.383 . S
C1022 C1021 1.379 . S
H1023 C1017 0.959 . S
H1024 C1017 0.961 . S
H1025 C1017 0.960 . S
H1026 C1018 0.930 . S
H1027 C1019 0.929 . S
H1028 C1036 0.929 . S
H1029 C1038 0.930 . S
H1030 C1040 0.930 1_565 S
H1031 C1043 0.929 . S
H1032 C1046 0.930 . S
H1033 C1048 0.960 . S
H1034 C1048 0.960 . S
H1035 C1048 0.960 . S
C1036 H1028 0.929 . S
C1036 C1037 1.377 . S
C1036 C1038 1.384 . S
C1037 C1036 1.377 . S
C1037 C1043 1.390 . S
C1038 H1029 0.930 . S
C1038 C1036 1.384 . S
C1038 C1039 1.372 . S
C1039 C1038 1.372 . S
C1039 C1040 1.400 . S
C1039 C1044 1.490 . S
C1040 H1030 0.930 1_545 S
C1040 C1039 1.400 . S
C1040 C1043 1.386 . S
H1041 C1057 0.930 . S
H1042 C1058 0.931 . S
C1043 H1031 0.929 . S
C1043 C1037 1.390 . S
C1043 C1040 1.386 . S
C1044 C1039 1.490 . S
C1044 C1046 1.395 . S
C1044 C1047 1.403 1_545 S
H1045 C1051 0.930 . S
C1046 H1032 0.930 . S
C1046 C1044 1.395 . S
C1046 C1049 1.403 . S
C1047 C1044 1.403 1_565 S
C1047 C1048 1.524 . S
C1047 C1051 1.400 . S
C1048 H1033 0.960 . S
C1048 H1034 0.960 . S
C1048 H1035 0.960 . S
C1048 C1047 1.524 . S
C1049 C1046 1.403 . S
C1049 C1050 1.392 1_545 S
C1049 C1053 1.495 . S
C1050 C1049 1.392 1_565 S
C1050 C1051 1.385 . S
C1050 C1052 1.478 . S
C1051 H1045 0.930 . S
C1051 C1047 1.400 . S
C1051 C1050 1.385 . S
C1052 C1050 1.478 . S
C1052 C1054 1.381 . S
C1052 C1058 1.383 . S
C1053 C1049 1.495 . S
C1053 H1059 0.959 . S
C1053 H1060 0.961 . S
C1053 H1061 0.960 . S
C1054 C1052 1.381 . S
C1054 C1055 1.394 . S
C1054 H1062 0.930 1_565 S
C1055 C1054 1.394 . S
C1055 C1056 1.383 . S
C1055 H1063 0.929 . S
C1056 C1055 1.383 . S
C1056 C1057 1.377 . S
C1057 H1041 0.930 . S
C1057 C1056 1.377 . S
C1057 C1058 1.379 . S
C1058 H1042 0.931 . S
C1058 C1052 1.383 . S
C1058 C1057 1.379 . S
H1059 C1053 0.959 . S
H1060 C1053 0.961 . S
H1061 C1053 0.960 . S
H1062 C1054 0.930 1_545 S
H1063 C1055 0.929 . S
H1064 C1072 0.929 . S
H1065 C1074 0.930 . S
H1066 C1076 0.930 1_565 S
H1067 C1079 0.929 . S
H1068 C1082 0.930 . S
H1069 C1084 0.960 . S
H1070 C1084 0.960 . S
H1071 C1084 0.960 1_556 S
C1072 H1064 0.929 . S
C1072 C1073 1.377 . S
C1072 C1074 1.384 . S
C1073 C1072 1.377 . S
C1073 C1079 1.390 . S
C1074 H1065 0.930 . S
C1074 C1072 1.384 . S
C1074 C1075 1.372 . S
C1075 C1074 1.372 . S
C1075 C1076 1.400 . S
C1075 C1080 1.490 . S
C1076 H1066 0.930 1_545 S
C1076 C1075 1.400 . S
C1076 C1079 1.386 . S
H1077 C1093 0.930 . S
H1078 C1094 0.917 1_556 S
C1079 H1067 0.929 . S
C1079 C1073 1.390 . S
C1079 C1076 1.386 . S
C1080 C1075 1.490 . S
C1080 C1082 1.395 1_455 S
C1080 C1083 1.403 1_546 S
H1081 C1087 0.927 . S
C1082 H1068 0.930 . S
C1082 C1080 1.395 1_655 S
C1082 C1085 1.403 . S
C1083 C1080 1.403 1_564 S
C1083 C1084 1.524 . S
C1083 C1087 1.391 . S
C1084 H1069 0.960 . S
C1084 H1070 0.960 . S
C1084 H1071 0.960 1_554 S
C1084 C1083 1.524 . S
C1085 C1082 1.403 . S
C1085 C1086 1.392 1_546 S
C1085 C1089 1.495 . S
C1086 C1085 1.392 1_564 S
C1086 C1087 1.395 1_655 S
C1086 C1088 1.478 . S
C1087 H1081 0.927 . S
C1087 C1083 1.391 . S
C1087 C1086 1.395 1_455 S
C1088 C1086 1.478 . S
C1088 C1090 1.381 . S
C1088 C1094 1.383 . S
C1089 C1085 1.495 . S
C1089 H1095 0.959 . S
C1089 H1096 0.961 . S
C1089 H1097 0.960 1_556 S
C1090 C1088 1.381 . S
C1090 C1091 1.394 . S
C1090 H1098 0.930 1_565 S
C1091 C1090 1.394 . S
C1091 C1092 1.383 . S
C1091 H1099 0.929 . S
C1092 C1091 1.383 . S
C1092 C1093 1.377 . S
C1093 H1077 0.930 . S
C1093 C1092 1.377 . S
C1093 C1094 1.379 . S
C1094 H1078 0.917 1_554 S
C1094 C1088 1.383 . S
C1094 C1093 1.379 . S
H1095 C1089 0.959 . S
H1096 C1089 0.961 . S
H1097 C1089 0.960 1_554 S
H1098 C1090 0.930 1_545 S
H1099 C1091 0.929 . S
H1100 C1108 0.929 . S
H1101 C1110 0.930 . S
H1102 C1112 0.930 . S
H1103 C1115 0.929 . S
H1104 C1118 0.930 . S
H1105 C1120 0.960 . S
H1106 C1120 0.960 . S
H1107 C1120 0.960 . S
C1108 H1100 0.929 . S
C1108 C1109 1.377 . S
C1108 C1110 1.384 . S
C1109 C1108 1.377 . S
C1109 C1115 1.390 . S
C1110 H1101 0.930 . S
C1110 C1108 1.384 . S
C1110 C1111 1.372 . S
C1111 C1110 1.372 . S
C1111 C1112 1.400 . S
C1111 C1116 1.490 . S
C1112 H1102 0.930 . S
C1112 C1111 1.400 . S
C1112 C1115 1.386 . S
H1113 C1129 0.930 . S
H1114 C1130 0.931 . S
C1115 H1103 0.929 . S
C1115 C1109 1.390 . S
C1115 C1112 1.386 . S
C1116 C1111 1.490 . S
C1116 C1118 1.395 . S
C1116 C1119 1.403 1_556 S
H1117 C1123 0.930 . S
C1118 H1104 0.930 . S
C1118 C1116 1.395 . S
C1118 C1121 1.403 . S
C1119 C1116 1.403 1_554 S
C1119 C1120 1.524 . S
C1119 C1123 1.400 . S
C1120 H1105 0.960 . S
C1120 H1106 0.960 . S
C1120 H1107 0.960 . S
C1120 C1119 1.524 . S
C1121 C1118 1.403 . S
C1121 C1122 1.392 1_556 S
C1121 C1125 1.495 . S
C1122 C1121 1.392 1_554 S
C1122 C1123 1.385 . S
C1122 C1124 1.478 . S
C1123 H1117 0.930 . S
C1123 C1119 1.400 . S
C1123 C1122 1.385 . S
C1124 C1122 1.478 . S
C1124 C1126 1.381 . S
C1124 C1130 1.383 . S
C1125 C1121 1.495 . S
C1125 H1131 0.959 . S
C1125 H1132 0.961 . S
C1125 H1133 0.960 . S
C1126 C1124 1.381 . S
C1126 C1127 1.394 . S
C1126 H1134 0.930 . S
C1127 C1126 1.394 . S
C1127 C1128 1.383 . S
C1127 H1135 0.929 . S
C1128 C1127 1.383 . S
C1128 C1129 1.377 . S
C1129 H1113 0.930 . S
C1129 C1128 1.377 . S
C1129 C1130 1.379 . S
C1130 H1114 0.931 . S
C1130 C1124 1.383 . S
C1130 C1129 1.379 . S
H1131 C1125 0.959 . S
H1132 C1125 0.961 . S
H1133 C1125 0.960 . S
H1134 C1126 0.930 . S
H1135 C1127 0.929 . S
H1136 C1144 0.929 . S
H1137 C1146 0.930 . S
H1138 C1148 0.930 . S
H1139 C1151 0.929 . S
H1140 C1154 0.930 . S
H1141 C1156 0.960 . S
H1142 C1156 0.960 . S
H1143 C1156 0.960 . S
C1144 H1136 0.929 . S
C1144 C1145 1.377 . S
C1144 C1146 1.384 . S
C1145 C1144 1.377 . S
C1145 C1151 1.390 . S
C1146 H1137 0.930 . S
C1146 C1144 1.384 . S
C1146 C1147 1.372 . S
C1147 C1146 1.372 . S
C1147 C1148 1.400 . S
C1147 C1152 1.490 . S
C1148 H1138 0.930 . S
C1148 C1147 1.400 . S
C1148 C1151 1.386 . S
H1149 C1165 0.930 . S
H1150 C1166 0.931 . S
C1151 H1139 0.929 . S
C1151 C1145 1.390 . S
C1151 C1148 1.386 . S
C1152 C1147 1.490 . S
C1152 C1154 1.395 1_655 S
C1152 C1155 1.403 . S
H1153 C1159 0.929 1_655 S
C1154 H1140 0.930 . S
C1154 C1152 1.395 1_455 S
C1154 C1157 1.403 . S
C1155 C1152 1.403 . S
C1155 C1156 1.524 . S
C1155 C1159 1.406 1_655 S
C1156 H1141 0.960 . S
C1156 H1142 0.960 . S
C1156 H1143 0.960 . S
C1156 C1155 1.524 . S
C1157 C1154 1.403 . S
C1157 C1158 1.392 . S
C1157 C1161 1.495 . S
C1158 C1157 1.392 . S
C1158 C1159 1.378 . S
C1158 C1160 1.478 . S
C1159 H1153 0.929 1_455 S
C1159 C1155 1.406 1_455 S
C1159 C1158 1.378 . S
C1160 C1158 1.478 . S
C1160 C1162 1.381 . S
C1160 C1166 1.383 . S
C1161 C1157 1.495 . S
C1161 H1167 0.959 . S
C1161 H1168 0.961 . S
C1161 H1169 0.960 . S
C1162 C1160 1.381 . S
C1162 C1163 1.394 . S
C1162 H1170 0.930 . S
C1163 C1162 1.394 . S
C1163 C1164 1.383 . S
C1163 H1171 0.929 . S
C1164 C1163 1.383 . S
C1164 C1165 1.377 . S
C1165 H1149 0.930 . S
C1165 C1164 1.377 . S
C1165 C1166 1.379 . S
C1166 H1150 0.931 . S
C1166 C1160 1.383 . S
C1166 C1165 1.379 . S
H1167 C1161 0.959 . S
H1168 C1161 0.961 . S
H1169 C1161 0.960 . S
H1170 C1162 0.930 . S
H1171 C1163 0.929 . S
H1172 C1180 0.929 . S
H1173 C1182 0.930 1_565 S
H1174 C1184 0.930 . S
H1175 C1187 0.929 . S
H1176 C1190 0.930 . S
H1177 C1192 0.960 . S
H1178 C1192 0.960 . S
H1179 C1192 0.960 . S
C1180 H1172 0.929 . S
C1180 C1181 1.377 . S
C1180 C1182 1.384 . S
C1181 C1180 1.377 . S
C1181 C1187 1.390 . S
C1182 H1173 0.930 1_545 S
C1182 C1180 1.384 . S
C1182 C1183 1.372 . S
C1183 C1182 1.372 . S
C1183 C1184 1.400 . S
C1183 C1188 1.490 . S
C1184 H1174 0.930 . S
C1184 C1183 1.400 . S
C1184 C1187 1.386 . S
H1185 C1201 0.930 . S
H1186 C1202 0.931 . S
C1187 H1175 0.929 . S
C1187 C1181 1.390 . S
C1187 C1184 1.386 . S
C1188 C1183 1.490 . S
C1188 C1190 1.395 1_545 S
C1188 C1191 1.403 . S
H1189 C1195 0.930 . S
C1190 H1176 0.930 . S
C1190 C1188 1.395 1_565 S
C1190 C1193 1.403 . S
C1191 C1188 1.403 . S
C1191 C1192 1.524 . S
C1191 C1195 1.400 . S
C1192 H1177 0.960 . S
C1192 H1178 0.960 . S
C1192 H1179 0.960 . S
C1192 C1191 1.524 . S
C1193 C1190 1.403 . S
C1193 C1194 1.392 . S
C1193 C1197 1.495 . S
C1194 C1193 1.392 . S
C1194 C1195 1.385 1_565 S
C1194 C1196 1.478 . S
C1195 H1189 0.930 . S
C1195 C1191 1.400 . S
C1195 C1194 1.385 1_545 S
C1196 C1194 1.478 . S
C1196 C1198 1.381 . S
C1196 C1202 1.383 . S
C1197 C1193 1.495 . S
C1197 H1203 0.959 . S
C1197 H1204 0.961 . S
C1197 H1205 0.960 . S
C1198 C1196 1.381 . S
C1198 C1199 1.394 . S
C1198 H1206 0.930 . S
C1199 C1198 1.394 . S
C1199 C1200 1.383 . S
C1199 H1207 0.929 . S
C1200 C1199 1.383 . S
C1200 C1201 1.377 . S
C1201 H1185 0.930 . S
C1201 C1200 1.377 . S
C1201 C1202 1.379 . S
C1202 H1186 0.931 . S
C1202 C1196 1.383 . S
C1202 C1201 1.379 . S
H1203 C1197 0.959 . S
H1204 C1197 0.961 . S
H1205 C1197 0.960 . S
H1206 C1198 0.930 . S
H1207 C1199 0.929 . S
H1208 C1216 0.929 . S
H1209 C1218 0.930 . S
H1210 C1220 0.930 . S
H1211 C1223 0.929 . S
H1212 C1226 0.930 . S
H1213 C1228 0.960 . S
H1214 C1228 0.960 . S
H1215 C1228 0.960 . S
C1216 H1208 0.929 . S
C1216 C1217 1.377 . S
C1216 C1218 1.384 . S
C1217 C1216 1.377 . S
C1217 C1223 1.390 . S
C1218 H1209 0.930 . S
C1218 C1216 1.384 . S
C1218 C1219 1.372 . S
C1219 C1218 1.372 . S
C1219 C1220 1.400 . S
C1219 C1224 1.490 . S
C1220 H1210 0.930 . S
C1220 C1219 1.400 . S
C1220 C1223 1.386 . S
H1221 C1237 0.930 . S
H1222 C1238 0.931 . S
C1223 H1211 0.929 . S
C1223 C1217 1.390 . S
C1223 C1220 1.386 . S
C1224 C1219 1.490 . S
C1224 C1226 1.395 1_556 S
C1224 C1227 1.403 . S
H1225 C1231 0.930 . S
C1226 H1212 0.930 . S
C1226 C1224 1.395 1_554 S
C1226 C1229 1.403 . S
C1227 C1224 1.403 . S
C1227 C1228 1.524 . S
C1227 C1231 1.400 . S
C1228 H1213 0.960 . S
C1228 H1214 0.960 . S
C1228 H1215 0.960 . S
C1228 C1227 1.524 . S
C1229 C1226 1.403 . S
C1229 C1230 1.392 . S
C1229 C1233 1.495 . S
C1230 C1229 1.392 . S
C1230 C1231 1.385 1_554 S
C1230 C1232 1.478 . S
C1231 H1225 0.930 . S
C1231 C1227 1.400 . S
C1231 C1230 1.385 1_556 S
C1232 C1230 1.478 . S
C1232 C1234 1.381 . S
C1232 C1238 1.383 . S
C1233 C1229 1.495 . S
C1233 H1239 0.959 . S
C1233 H1240 0.961 . S
C1233 H1241 0.960 . S
C1234 C1232 1.381 . S
C1234 C1235 1.394 . S
C1234 H1242 0.930 . S
C1235 C1234 1.394 . S
C1235 C1236 1.383 . S
C1235 H1243 0.929 . S
C1236 C1235 1.383 . S
C1236 C1237 1.377 . S
C1237 H1221 0.930 . S
C1237 C1236 1.377 . S
C1237 C1238 1.379 . S
C1238 H1222 0.931 . S
C1238 C1232 1.383 . S
C1238 C1237 1.379 . S
H1239 C1233 0.959 . S
H1240 C1233 0.961 . S
H1241 C1233 0.960 . S
H1242 C1234 0.930 . S
H1243 C1235 0.929 . S
H1244 C1252 0.929 . S
H1245 C1254 0.930 . S
H1246 C1256 0.930 . S
H1247 C1259 0.929 . S
H1248 C1262 0.930 . S
H1249 C1264 0.960 . S
H1250 C1264 0.960 . S
H1251 C1264 0.960 . S
C1252 H1244 0.929 . S
C1252 C1253 1.377 . S
C1252 C1254 1.384 . S
C1253 C1252 1.377 . S
C1253 C1259 1.390 . S
C1254 H1245 0.930 . S
C1254 C1252 1.384 . S
C1254 C1255 1.372 . S
C1255 C1254 1.372 . S
C1255 C1256 1.400 . S
C1255 C1260 1.490 . S
C1256 H1246 0.930 . S
C1256 C1255 1.400 . S
C1256 C1259 1.386 . S
H1257 C1273 0.930 . S
H1258 C1274 0.931 . S
C1259 H1247 0.929 . S
C1259 C1253 1.390 . S
C1259 C1256 1.386 . S
C1260 C1255 1.490 . S
C1260 C1262 1.395 . S
C1260 C1263 1.403 . S
H1261 C1267 0.930 . S
C1262 H1248 0.930 . S
C1262 C1260 1.395 . S
C1262 C1265 1.403 . S
C1263 C1260 1.403 . S
C1263 C1264 1.524 . S
C1263 C1267 1.400 . S
C1264 H1249 0.960 . S
C1264 H1250 0.960 . S
C1264 H1251 0.960 . S
C1264 C1263 1.524 . S
C1265 C1262 1.403 . S
C1265 C1266 1.392 . S
C1265 C1269 1.495 . S
C1266 C1265 1.392 . S
C1266 C1267 1.385 . S
C1266 C1268 1.478 . S
C1267 H1261 0.930 . S
C1267 C1263 1.400 . S
C1267 C1266 1.385 . S
C1268 C1266 1.478 . S
C1268 C1270 1.381 . S
C1268 C1274 1.383 . S
C1269 C1265 1.495 . S
C1269 H1275 0.959 . S
C1269 H1276 0.961 . S
C1269 H1277 0.960 . S
C1270 C1268 1.381 . S
C1270 C1271 1.394 . S
C1270 H1278 0.930 . S
C1271 C1270 1.394 . S
C1271 C1272 1.383 . S
C1271 H1279 0.929 . S
C1272 C1271 1.383 . S
C1272 C1273 1.377 . S
C1273 H1257 0.930 . S
C1273 C1272 1.377 . S
C1273 C1274 1.379 . S
C1274 H1258 0.931 . S
C1274 C1268 1.383 . S
C1274 C1273 1.379 . S
H1275 C1269 0.959 . S
H1276 C1269 0.961 . S
H1277 C1269 0.960 . S
H1278 C1270 0.930 . S
H1279 C1271 0.929 . S
H1280 C1288 0.929 . S
H1281 C1290 0.930 . S
H1282 C1292 0.930 . S
H1283 C1295 0.929 . S
H1284 C1298 0.930 . S
H1285 C1300 0.960 . S
H1286 C1300 0.960 . S
H1287 C1300 0.960 . S
C1288 H1280 0.929 . S
C1288 C1289 1.377 . S
C1288 C1290 1.384 . S
C1289 C1288 1.377 . S
C1289 C1295 1.390 . S
C1290 H1281 0.930 . S
C1290 C1288 1.384 . S
C1290 C1291 1.372 . S
C1291 C1290 1.372 . S
C1291 C1292 1.400 . S
C1291 C1296 1.490 . S
C1292 H1282 0.930 . S
C1292 C1291 1.400 . S
C1292 C1295 1.386 . S
H1293 C1309 0.930 . S
H1294 C1310 0.931 . S
C1295 H1283 0.929 . S
C1295 C1289 1.390 . S
C1295 C1292 1.386 . S
C1296 C1291 1.490 . S
C1296 C1298 1.395 . S
C1296 C1299 1.403 . S
H1297 C1303 0.930 . S
C1298 H1284 0.930 . S
C1298 C1296 1.395 . S
C1298 C1301 1.403 1_455 S
C1299 C1296 1.403 . S
C1299 C1300 1.524 . S
C1299 C1303 1.400 1_455 S
C1300 H1285 0.960 . S
C1300 H1286 0.960 . S
C1300 H1287 0.960 . S
C1300 C1299 1.524 . S
C1301 C1298 1.403 1_655 S
C1301 C1302 1.392 . S
C1301 C1305 1.495 . S
C1302 C1301 1.392 . S
C1302 C1303 1.385 . S
C1302 C1304 1.478 . S
C1303 H1297 0.930 . S
C1303 C1299 1.400 1_655 S
C1303 C1302 1.385 . S
C1304 C1302 1.478 . S
C1304 C1306 1.381 . S
C1304 C1310 1.383 . S
C1305 C1301 1.495 . S
C1305 H1311 0.959 . S
C1305 H1312 0.961 . S
C1305 H1313 0.960 . S
C1306 C1304 1.381 . S
C1306 C1307 1.394 . S
C1306 H1314 0.930 . S
C1307 C1306 1.394 . S
C1307 C1308 1.383 . S
C1307 H1315 0.929 . S
C1308 C1307 1.383 . S
C1308 C1309 1.377 . S
C1309 H1293 0.930 . S
C1309 C1308 1.377 . S
C1309 C1310 1.379 . S
C1310 H1294 0.931 . S
C1310 C1304 1.383 . S
C1310 C1309 1.379 . S
H1311 C1305 0.959 . S
H1312 C1305 0.961 . S
H1313 C1305 0.960 . S
H1314 C1306 0.930 . S
H1315 C1307 0.929 . S
H1316 C1324 0.929 . S
H1317 C1326 0.930 . S
H1318 C1328 0.930 . S
H1319 C1331 0.929 . S
H1320 C1334 0.930 . S
H1321 C1336 0.960 . S
H1322 C1336 0.960 . S
H1323 C1336 0.960 . S
C1324 H1316 0.929 . S
C1324 C1325 1.377 . S
C1324 C1326 1.384 . S
C1325 C1324 1.377 . S
C1325 C1331 1.390 . S
C1326 H1317 0.930 . S
C1326 C1324 1.384 . S
C1326 C1327 1.372 . S
C1327 C1326 1.372 . S
C1327 C1328 1.400 . S
C1327 C1332 1.490 . S
C1328 H1318 0.930 . S
C1328 C1327 1.400 . S
C1328 C1331 1.386 . S
H1329 C1345 0.930 . S
H1330 C1346 0.931 . S
C1331 H1319 0.929 . S
C1331 C1325 1.390 . S
C1331 C1328 1.386 . S
C1332 C1327 1.490 . S
C1332 C1334 1.395 . S
C1332 C1335 1.403 . S
H1333 C1339 0.930 . S
C1334 H1320 0.930 . S
C1334 C1332 1.395 . S
C1334 C1337 1.403 . S
C1335 C1332 1.403 . S
C1335 C1336 1.524 . S
C1335 C1339 1.400 . S
C1336 H1321 0.960 . S
C1336 H1322 0.960 . S
C1336 H1323 0.960 . S
C1336 C1335 1.524 . S
C1337 C1334 1.403 . S
C1337 C1338 1.392 . S
C1337 C1341 1.495 . S
C1338 C1337 1.392 . S
C1338 C1339 1.385 . S
C1338 C1340 1.478 . S
C1339 H1333 0.930 . S
C1339 C1335 1.400 . S
C1339 C1338 1.385 . S
C1340 C1338 1.478 . S
C1340 C1342 1.381 . S
C1340 C1346 1.383 . S
C1341 C1337 1.495 . S
C1341 H1347 0.959 . S
C1341 H1348 0.961 . S
C1341 H1349 0.960 . S
C1342 C1340 1.381 . S
C1342 C1343 1.394 . S
C1342 H1350 0.930 . S
C1343 C1342 1.394 . S
C1343 C1344 1.383 . S
C1343 H1351 0.929 . S
C1344 C1343 1.383 . S
C1344 C1345 1.377 . S
C1345 H1329 0.930 . S
C1345 C1344 1.377 . S
C1345 C1346 1.379 . S
C1346 H1330 0.931 . S
C1346 C1340 1.383 . S
C1346 C1345 1.379 . S
H1347 C1341 0.959 . S
H1348 C1341 0.961 . S
H1349 C1341 0.960 . S
H1350 C1342 0.930 . S
H1351 C1343 0.929 . S
H1352 C1360 0.929 . S
H1353 C1362 0.930 . S
H1354 C1364 0.930 . S
H1355 C1367 0.929 . S
H1356 C1370 0.930 . S
H1357 C1372 0.960 . S
H1358 C1372 0.960 . S
H1359 C1372 0.960 . S
C1360 H1352 0.929 . S
C1360 C1361 1.377 . S
C1360 C1362 1.384 . S
C1361 C1360 1.377 . S
C1361 C1367 1.390 . S
C1362 H1353 0.930 . S
C1362 C1360 1.384 . S
C1362 C1363 1.372 . S
C1363 C1362 1.372 . S
C1363 C1364 1.400 . S
C1363 C1368 1.490 . S
C1364 H1354 0.930 . S
C1364 C1363 1.400 . S
C1364 C1367 1.386 . S
H1365 C1381 0.930 . S
H1366 C1382 0.931 . S
C1367 H1355 0.929 . S
C1367 C1361 1.390 . S
C1367 C1364 1.386 . S
C1368 C1363 1.490 . S
C1368 C1370 1.395 . S
C1368 C1371 1.403 . S
H1369 C1375 0.930 . S
C1370 H1356 0.930 . S
C1370 C1368 1.395 . S
C1370 C1373 1.403 . S
C1371 C1368 1.403 . S
C1371 C1372 1.524 . S
C1371 C1375 1.400 . S
C1372 H1357 0.960 . S
C1372 H1358 0.960 . S
C1372 H1359 0.960 . S
C1372 C1371 1.524 . S
C1373 C1370 1.403 . S
C1373 C1374 1.392 . S
C1373 C1377 1.495 . S
C1374 C1373 1.392 . S
C1374 C1375 1.385 . S
C1374 C1376 1.478 . S
C1375 H1369 0.930 . S
C1375 C1371 1.400 . S
C1375 C1374 1.385 . S
C1376 C1374 1.478 . S
C1376 C1378 1.381 . S
C1376 C1382 1.383 . S
C1377 C1373 1.495 . S
C1377 H1383 0.959 . S
C1377 H1384 0.961 . S
C1377 H1385 0.960 . S
C1378 C1376 1.381 . S
C1378 C1379 1.394 . S
C1378 H1386 0.930 . S
C1379 C1378 1.394 . S
C1379 C1380 1.383 . S
C1379 H1387 0.929 . S
C1380 C1379 1.383 . S
C1380 C1381 1.377 . S
C1381 H1365 0.930 . S
C1381 C1380 1.377 . S
C1381 C1382 1.379 . S
C1382 H1366 0.931 . S
C1382 C1376 1.383 . S
C1382 C1381 1.379 . S
H1383 C1377 0.959 . S
H1384 C1377 0.961 . S
H1385 C1377 0.960 . S
H1386 C1378 0.930 . S
H1387 C1379 0.929 . S
H1388 C1396 0.929 . S
H1389 C1398 0.930 . S
H1390 C1400 0.930 . S
H1391 C1403 0.929 . S
H1392 C1406 0.930 . S
H1393 C1408 0.960 . S
H1394 C1408 0.960 . S
H1395 C1408 0.960 . S
C1396 H1388 0.929 . S
C1396 C1397 1.377 . S
C1396 C1398 1.384 . S
C1397 C1396 1.377 . S
C1397 C1403 1.390 . S
C1398 H1389 0.930 . S
C1398 C1396 1.384 . S
C1398 C1399 1.372 . S
C1399 C1398 1.372 . S
C1399 C1400 1.400 . S
C1399 C1404 1.490 . S
C1400 H1390 0.930 . S
C1400 C1399 1.400 . S
C1400 C1403 1.386 . S
H1401 C1417 0.930 . S
H1402 C1418 0.931 . S
C1403 H1391 0.929 . S
C1403 C1397 1.390 . S
C1403 C1400 1.386 . S
C1404 C1399 1.490 . S
C1404 C1406 1.395 . S
C1404 C1407 1.403 . S
H1405 C1411 0.930 . S
C1406 H1392 0.930 . S
C1406 C1404 1.395 . S
C1406 C1409 1.403 . S
C1407 C1404 1.403 . S
C1407 C1408 1.524 . S
C1407 C1411 1.400 . S
C1408 H1393 0.960 . S
C1408 H1394 0.960 . S
C1408 H1395 0.960 . S
C1408 C1407 1.524 . S
C1409 C1406 1.403 . S
C1409 C1410 1.392 . S
C1409 C1413 1.495 . S
C1410 C1409 1.392 . S
C1410 C1411 1.385 . S
C1410 C1412 1.478 . S
C1411 H1405 0.930 . S
C1411 C1407 1.400 . S
C1411 C1410 1.385 . S
C1412 C1410 1.478 . S
C1412 C1414 1.381 . S
C1412 C1418 1.383 . S
C1413 C1409 1.495 . S
C1413 H1419 0.959 . S
C1413 H1420 0.961 . S
C1413 H1421 0.960 . S
C1414 C1412 1.381 . S
C1414 C1415 1.394 . S
C1414 H1422 0.930 . S
C1415 C1414 1.394 . S
C1415 C1416 1.383 . S
C1415 H1423 0.929 . S
C1416 C1415 1.383 . S
C1416 C1417 1.377 . S
C1417 H1401 0.930 . S
C1417 C1416 1.377 . S
C1417 C1418 1.379 . S
C1418 H1402 0.931 . S
C1418 C1412 1.383 . S
C1418 C1417 1.379 . S
H1419 C1413 0.959 . S
H1420 C1413 0.961 . S
H1421 C1413 0.960 . S
H1422 C1414 0.930 . S
H1423 C1415 0.929 . S
H1424 C1432 0.929 . S
H1425 C1434 0.930 . S
H1426 C1436 0.930 . S
H1427 C1439 0.929 . S
H1428 C1442 0.930 . S
H1429 C1444 0.960 . S
H1430 C1444 0.960 . S
H1431 C1444 0.960 . S
C1432 H1424 0.929 . S
C1432 C1433 1.377 . S
C1432 C1434 1.384 . S
C1433 C1432 1.377 . S
C1433 C1439 1.390 . S
C1434 H1425 0.930 . S
C1434 C1432 1.384 . S
C1434 C1435 1.372 . S
C1435 C1434 1.372 . S
C1435 C1436 1.400 . S
C1435 C1440 1.490 . S
C1436 H1426 0.930 . S
C1436 C1435 1.400 . S
C1436 C1439 1.386 . S
H1437 C1453 0.930 . S
H1438 C1454 0.931 . S
C1439 H1427 0.929 . S
C1439 C1433 1.390 . S
C1439 C1436 1.386 . S
C1440 C1435 1.490 . S
C1440 C1442 1.395 . S
C1440 C1443 1.403 . S
H1441 C1447 0.930 . S
C1442 H1428 0.930 . S
C1442 C1440 1.395 . S
C1442 C1445 1.403 . S
C1443 C1440 1.403 . S
C1443 C1444 1.524 . S
C1443 C1447 1.400 . S
C1444 H1429 0.960 . S
C1444 H1430 0.960 . S
C1444 H1431 0.960 . S
C1444 C1443 1.524 . S
C1445 C1442 1.403 . S
C1445 C1446 1.392 . S
C1445 C1449 1.495 . S
C1446 C1445 1.392 . S
C1446 C1447 1.385 . S
C1446 C1448 1.478 . S
C1447 H1441 0.930 . S
C1447 C1443 1.400 . S
C1447 C1446 1.385 . S
C1448 C1446 1.478 . S
C1448 C1450 1.381 . S
C1448 C1454 1.383 . S
C1449 C1445 1.495 . S
C1449 H1455 0.959 . S
C1449 H1456 0.961 . S
C1449 H1457 0.960 . S
C1450 C1448 1.381 . S
C1450 C1451 1.394 . S
C1450 H1458 0.930 . S
C1451 C1450 1.394 . S
C1451 C1452 1.383 . S
C1451 H1459 0.929 . S
C1452 C1451 1.383 . S
C1452 C1453 1.377 . S
C1453 H1437 0.930 . S
C1453 C1452 1.377 . S
C1453 C1454 1.379 . S
C1454 H1438 0.931 . S
C1454 C1448 1.383 . S
C1454 C1453 1.379 . S
H1455 C1449 0.959 . S
H1456 C1449 0.961 . S
H1457 C1449 0.960 . S
H1458 C1450 0.930 . S
H1459 C1451 0.929 . S
H1460 C1468 0.929 . S
H1461 C1470 0.930 1_545 S
H1462 C1472 0.930 . S
H1463 C1475 0.929 . S
H1464 C1478 0.930 . S
H1465 C1480 0.960 . S
H1466 C1480 0.960 . S
H1467 C1480 0.960 . S
C1468 H1460 0.929 . S
C1468 C1469 1.377 . S
C1468 C1470 1.384 . S
C1469 C1468 1.377 . S
C1469 C1475 1.390 . S
C1470 H1461 0.930 1_565 S
C1470 C1468 1.384 . S
C1470 C1471 1.372 . S
C1471 C1470 1.372 . S
C1471 C1472 1.400 . S
C1471 C1476 1.490 . S
C1472 H1462 0.930 . S
C1472 C1471 1.400 . S
C1472 C1475 1.386 . S
H1473 C1489 0.930 . S
H1474 C1490 0.931 . S
C1475 H1463 0.929 . S
C1475 C1469 1.390 . S
C1475 C1472 1.386 . S
C1476 C1471 1.490 . S
C1476 C1478 1.395 1_565 S
C1476 C1479 1.403 . S
H1477 C1483 0.930 . S
C1478 H1464 0.930 . S
C1478 C1476 1.395 1_545 S
C1478 C1481 1.403 . S
C1479 C1476 1.403 . S
C1479 C1480 1.524 . S
C1479 C1483 1.400 . S
C1480 H1465 0.960 . S
C1480 H1466 0.960 . S
C1480 H1467 0.960 . S
C1480 C1479 1.524 . S
C1481 C1478 1.403 . S
C1481 C1482 1.392 . S
C1481 C1485 1.495 . S
C1482 C1481 1.392 . S
C1482 C1483 1.385 1_545 S
C1482 C1484 1.478 . S
C1483 H1477 0.930 . S
C1483 C1479 1.400 . S
C1483 C1482 1.385 1_565 S
C1484 C1482 1.478 . S
C1484 C1486 1.381 . S
C1484 C1490 1.383 . S
C1485 C1481 1.495 . S
C1485 H1491 0.959 . S
C1485 H1492 0.961 . S
C1485 H1493 0.960 . S
C1486 C1484 1.381 . S
C1486 C1487 1.394 . S
C1486 H1494 0.930 . S
C1487 C1486 1.394 . S
C1487 C1488 1.383 . S
C1487 H1495 0.929 . S
C1488 C1487 1.383 . S
C1488 C1489 1.377 . S
C1489 H1473 0.930 . S
C1489 C1488 1.377 . S
C1489 C1490 1.379 . S
C1490 H1474 0.931 . S
C1490 C1484 1.383 . S
C1490 C1489 1.379 . S
H1491 C1485 0.959 . S
H1492 C1485 0.961 . S
H1493 C1485 0.960 . S
H1494 C1486 0.930 . S
H1495 C1487 0.929 . S
H1496 C1504 0.929 . S
H1497 C1506 0.930 . S
H1498 C1508 0.930 . S
H1499 C1511 0.929 . S
H1500 C1514 0.930 . S
H1501 C1516 0.960 . S
H1502 C1516 0.960 . S
H1503 C1516 0.960 . S
C1504 H1496 0.929 . S
C1504 C1505 1.377 . S
C1504 C1506 1.384 . S
C1505 C1504 1.377 . S
C1505 C1511 1.390 . S
C1506 H1497 0.930 . S
C1506 C1504 1.384 . S
C1506 C1507 1.372 . S
C1507 C1506 1.372 . S
C1507 C1508 1.400 . S
C1507 C1512 1.490 . S
C1508 H1498 0.930 . S
C1508 C1507 1.400 . S
C1508 C1511 1.386 . S
H1509 C1525 0.930 . S
H1510 C1526 0.931 . S
C1511 H1499 0.929 . S
C1511 C1505 1.390 . S
C1511 C1508 1.386 . S
C1512 C1507 1.490 . S
C1512 C1514 1.395 . S
C1512 C1515 1.403 . S
H1513 C1519 0.930 . S
C1514 H1500 0.930 . S
C1514 C1512 1.395 . S
C1514 C1517 1.403 . S
C1515 C1512 1.403 . S
C1515 C1516 1.524 . S
C1515 C1519 1.400 . S
C1516 H1501 0.960 . S
C1516 H1502 0.960 . S
C1516 H1503 0.960 . S
C1516 C1515 1.524 . S
C1517 C1514 1.403 . S
C1517 C1518 1.392 . S
C1517 C1521 1.495 . S
C1518 C1517 1.392 . S
C1518 C1519 1.385 . S
C1518 C1520 1.478 . S
C1519 H1513 0.930 . S
C1519 C1515 1.400 . S
C1519 C1518 1.385 . S
C1520 C1518 1.478 . S
C1520 C1522 1.381 . S
C1520 C1526 1.383 . S
C1521 C1517 1.495 . S
C1521 H1527 0.959 . S
C1521 H1528 0.961 . S
C1521 H1529 0.960 . S
C1522 C1520 1.381 . S
C1522 C1523 1.394 . S
C1522 H1530 0.930 . S
C1523 C1522 1.394 . S
C1523 C1524 1.383 . S
C1523 H1531 0.929 . S
C1524 C1523 1.383 . S
C1524 C1525 1.377 . S
C1525 H1509 0.930 . S
C1525 C1524 1.377 . S
C1525 C1526 1.379 . S
C1526 H1510 0.931 . S
C1526 C1520 1.383 . S
C1526 C1525 1.379 . S
H1527 C1521 0.959 . S
H1528 C1521 0.961 . S
H1529 C1521 0.960 . S
H1530 C1522 0.930 . S
H1531 C1523 0.929 . S
H1532 C1540 0.929 . S
H1533 C1542 0.930 . S
H1534 C1544 0.930 . S
H1535 C1547 0.929 . S
H1536 C1550 0.930 . S
H1537 C1552 0.960 . S
H1538 C1552 0.960 . S
H1539 C1552 0.960 . S
C1540 H1532 0.929 . S
C1540 C1541 1.377 . S
C1540 C1542 1.384 . S
C1541 C1540 1.377 . S
C1541 C1547 1.390 . S
C1542 H1533 0.930 . S
C1542 C1540 1.384 . S
C1542 C1543 1.372 . S
C1543 C1542 1.372 . S
C1543 C1544 1.400 . S
C1543 C1548 1.490 . S
C1544 H1534 0.930 . S
C1544 C1543 1.400 . S
C1544 C1547 1.386 . S
H1545 C1561 0.930 . S
H1546 C1562 0.931 . S
C1547 H1535 0.929 . S
C1547 C1541 1.390 . S
C1547 C1544 1.386 . S
C1548 C1543 1.490 . S
C1548 C1550 1.395 1_554 S
C1548 C1551 1.403 . S
H1549 C1555 0.930 . S
C1550 H1536 0.930 . S
C1550 C1548 1.395 1_556 S
C1550 C1553 1.403 . S
C1551 C1548 1.403 . S
C1551 C1552 1.524 . S
C1551 C1555 1.400 . S
C1552 H1537 0.960 . S
C1552 H1538 0.960 . S
C1552 H1539 0.960 . S
C1552 C1551 1.524 . S
C1553 C1550 1.403 . S
C1553 C1554 1.392 . S
C1553 C1557 1.495 . S
C1554 C1553 1.392 . S
C1554 C1555 1.385 1_556 S
C1554 C1556 1.478 . S
C1555 H1549 0.930 . S
C1555 C1551 1.400 . S
C1555 C1554 1.385 1_554 S
C1556 C1554 1.478 . S
C1556 C1558 1.381 . S
C1556 C1562 1.383 . S
C1557 C1553 1.495 . S
C1557 H1563 0.959 . S
C1557 H1564 0.961 . S
C1557 H1565 0.960 . S
C1558 C1556 1.381 . S
C1558 C1559 1.394 . S
C1558 H1566 0.930 . S
C1559 C1558 1.394 . S
C1559 C1560 1.383 . S
C1559 H1567 0.929 . S
C1560 C1559 1.383 . S
C1560 C1561 1.377 . S
C1561 H1545 0.930 . S
C1561 C1560 1.377 . S
C1561 C1562 1.379 . S
C1562 H1546 0.931 . S
C1562 C1556 1.383 . S
C1562 C1561 1.379 . S
H1563 C1557 0.959 . S
H1564 C1557 0.961 . S
H1565 C1557 0.960 . S
H1566 C1558 0.930 . S
H1567 C1559 0.929 . S
H1568 C1576 0.929 . S
H1569 C1578 0.930 . S
H1570 C1580 0.930 . S
H1571 C1583 0.929 . S
H1572 C1586 0.930 . S
H1573 C1588 0.960 . S
H1574 C1588 0.960 . S
H1575 C1588 0.960 . S
C1576 H1568 0.929 . S
C1576 C1577 1.377 . S
C1576 C1578 1.384 . S
C1577 C1576 1.377 . S
C1577 C1583 1.390 . S
C1578 H1569 0.930 . S
C1578 C1576 1.384 . S
C1578 C1579 1.372 . S
C1579 C1578 1.372 . S
C1579 C1580 1.400 . S
C1579 C1584 1.490 . S
C1580 H1570 0.930 . S
C1580 C1579 1.400 . S
C1580 C1583 1.386 . S
H1581 C1597 0.930 . S
H1582 C1598 0.931 . S
C1583 H1571 0.929 . S
C1583 C1577 1.390 . S
C1583 C1580 1.386 . S
C1584 C1579 1.490 . S
C1584 C1586 1.395 . S
C1584 C1587 1.403 . S
H1585 C1591 0.930 . S
C1586 H1572 0.930 . S
C1586 C1584 1.395 . S
C1586 C1589 1.403 . S
C1587 C1584 1.403 . S
C1587 C1588 1.524 . S
C1587 C1591 1.400 . S
C1588 H1573 0.960 . S
C1588 H1574 0.960 . S
C1588 H1575 0.960 . S
C1588 C1587 1.524 . S
C1589 C1586 1.403 . S
C1589 C1590 1.392 . S
C1589 C1593 1.495 . S
C1590 C1589 1.392 . S
C1590 C1591 1.385 . S
C1590 C1592 1.478 . S
C1591 H1585 0.930 . S
C1591 C1587 1.400 . S
C1591 C1590 1.385 . S
C1592 C1590 1.478 . S
C1592 C1594 1.381 . S
C1592 C1598 1.383 . S
C1593 C1589 1.495 . S
C1593 H1599 0.959 . S
C1593 H1600 0.961 . S
C1593 H1601 0.960 . S
C1594 C1592 1.381 . S
C1594 C1595 1.394 . S
C1594 H1602 0.930 . S
C1595 C1594 1.394 . S
C1595 C1596 1.383 . S
C1595 H1603 0.929 . S
C1596 C1595 1.383 . S
C1596 C1597 1.377 . S
C1597 H1581 0.930 . S
C1597 C1596 1.377 . S
C1597 C1598 1.379 . S
C1598 H1582 0.931 . S
C1598 C1592 1.383 . S
C1598 C1597 1.379 . S
H1599 C1593 0.959 . S
H1600 C1593 0.961 . S
H1601 C1593 0.960 . S
H1602 C1594 0.930 . S
H1603 C1595 0.929 . S
H1604 C1612 0.929 . S
H1605 C1614 0.930 . S
H1606 C1616 0.930 . S
H1607 C1619 0.929 . S
H1608 C1622 0.930 . S
H1609 C1624 0.960 . S
H1610 C1624 0.960 . S
H1611 C1624 0.960 . S
C1612 H1604 0.929 . S
C1612 C1613 1.377 . S
C1612 C1614 1.384 . S
C1613 C1612 1.377 . S
C1613 C1619 1.390 . S
C1614 H1605 0.930 . S
C1614 C1612 1.384 . S
C1614 C1615 1.372 . S
C1615 C1614 1.372 . S
C1615 C1616 1.400 . S
C1615 C1620 1.490 . S
C1616 H1606 0.930 . S
C1616 C1615 1.400 . S
C1616 C1619 1.386 . S
H1617 C1633 0.923 1_545 S
H1618 C1634 0.931 . S
C1619 H1607 0.929 . S
C1619 C1613 1.390 . S
C1619 C1616 1.386 . S
C1620 C1615 1.490 . S
C1620 C1622 1.395 . S
C1620 C1623 1.403 . S
H1621 C1627 0.930 . S
C1622 H1608 0.930 . S
C1622 C1620 1.395 . S
C1622 C1625 1.403 . S
C1623 C1620 1.403 . S
C1623 C1624 1.524 . S
C1623 C1627 1.400 . S
C1624 H1609 0.960 . S
C1624 H1610 0.960 . S
C1624 H1611 0.960 . S
C1624 C1623 1.524 . S
C1625 C1622 1.403 . S
C1625 C1626 1.392 . S
C1625 C1629 1.495 . S
C1626 C1625 1.392 . S
C1626 C1627 1.385 . S
C1626 C1628 1.478 . S
C1627 H1621 0.930 . S
C1627 C1623 1.400 . S
C1627 C1626 1.385 . S
C1628 C1626 1.478 . S
C1628 C1630 1.381 . S
C1628 C1634 1.383 . S
C1629 C1625 1.495 . S
C1629 H1635 0.959 . S
C1629 H1636 0.961 . S
C1629 H1637 0.960 . S
C1630 C1628 1.381 . S
C1630 C1631 1.394 1_565 S
C1630 H1638 0.930 . S
C1631 C1630 1.394 1_545 S
C1631 C1632 1.383 . S
C1631 H1639 0.929 . S
C1632 C1631 1.383 . S
C1632 C1633 1.358 1_545 S
C1633 H1617 0.923 1_565 S
C1633 C1632 1.358 1_565 S
C1633 C1634 1.405 . S
C1634 H1618 0.931 . S
C1634 C1628 1.383 . S
C1634 C1633 1.405 . S
H1635 C1629 0.959 . S
H1636 C1629 0.961 . S
H1637 C1629 0.960 . S
H1638 C1630 0.930 . S
H1639 C1631 0.929 . S
H1640 C1648 0.932 . S
H1641 C1650 0.930 . S
H1642 C1652 0.930 . S
H1643 C1655 0.929 . S
H1644 C1658 0.930 . S
H1645 C1660 0.960 . S
H1646 C1660 0.960 . S
H1647 C1660 0.960 . S
C1648 H1640 0.932 . S
C1648 C1649 1.377 1_565 S
C1648 C1650 1.384 . S
C1649 C1648 1.377 1_545 S
C1649 C1655 1.390 . S
C1650 H1641 0.930 . S
C1650 C1648 1.384 . S
C1650 C1651 1.372 . S
C1651 C1650 1.372 . S
C1651 C1652 1.400 . S
C1651 C1656 1.490 . S
C1652 H1642 0.930 . S
C1652 C1651 1.400 . S
C1652 C1655 1.386 1_565 S
H1653 C1669 0.930 . S
H1654 C1670 0.931 . S
C1655 H1643 0.929 . S
C1655 C1649 1.390 . S
C1655 C1652 1.386 1_545 S
C1656 C1651 1.490 . S
C1656 C1658 1.395 . S
C1656 C1659 1.403 . S
H1657 C1663 0.930 . S
C1658 H1644 0.930 . S
C1658 C1656 1.395 . S
C1658 C1661 1.403 . S
C1659 C1656 1.403 . S
C1659 C1660 1.524 . S
C1659 C1663 1.400 . S
C1660 H1645 0.960 . S
C1660 H1646 0.960 . S
C1660 H1647 0.960 . S
C1660 C1659 1.524 . S
C1661 C1658 1.403 . S
C1661 C1662 1.392 . S
C1661 C1665 1.495 . S
C1662 C1661 1.392 . S
C1662 C1663 1.385 . S
C1662 C1664 1.478 . S
C1663 H1657 0.930 . S
C1663 C1659 1.400 . S
C1663 C1662 1.385 . S
C1664 C1662 1.478 . S
C1664 C1666 1.381 . S
C1664 C1670 1.383 . S
C1665 C1661 1.495 . S
C1665 H1671 0.959 . S
C1665 H1672 0.961 . S
C1665 H1673 0.960 . S
C1666 C1664 1.381 . S
C1666 C1667 1.394 . S
C1666 H1674 0.930 . S
C1667 C1666 1.394 . S
C1667 C1668 1.383 . S
C1667 H1675 0.929 . S
C1668 C1667 1.383 . S
C1668 C1669 1.377 . S
C1669 H1653 0.930 . S
C1669 C1668 1.377 . S
C1669 C1670 1.379 . S
C1670 H1654 0.931 . S
C1670 C1664 1.383 . S
C1670 C1669 1.379 . S
H1671 C1665 0.959 . S
H1672 C1665 0.961 . S
H1673 C1665 0.960 . S
H1674 C1666 0.930 . S
H1675 C1667 0.929 . S
H1676 C1684 0.929 . S
H1677 C1686 0.930 . S
H1678 C1688 0.930 . S
H1679 C1691 0.929 . S
H1680 C1694 0.930 . S
H1681 C1696 0.960 . S
H1682 C1696 0.960 . S
H1683 C1696 0.960 . S
C1684 H1676 0.929 . S
C1684 C1685 1.377 . S
C1684 C1686 1.384 . S
C1685 C1684 1.377 . S
C1685 C1691 1.390 . S
C1686 H1677 0.930 . S
C1686 C1684 1.384 . S
C1686 C1687 1.372 . S
C1687 C1686 1.372 . S
C1687 C1688 1.400 . S
C1687 C1692 1.490 . S
C1688 H1678 0.930 . S
C1688 C1687 1.400 . S
C1688 C1691 1.386 . S
H1689 C1705 0.930 . S
H1690 C1706 0.931 . S
C1691 H1679 0.929 . S
C1691 C1685 1.390 . S
C1691 C1688 1.386 . S
C1692 C1687 1.490 . S
C1692 C1694 1.395 . S
C1692 C1695 1.403 . S
H1693 C1699 0.930 . S
C1694 H1680 0.930 . S
C1694 C1692 1.395 . S
C1694 C1697 1.403 . S
C1695 C1692 1.403 . S
C1695 C1696 1.524 . S
C1695 C1699 1.400 . S
C1696 H1681 0.960 . S
C1696 H1682 0.960 . S
C1696 H1683 0.960 . S
C1696 C1695 1.524 . S
C1697 C1694 1.403 . S
C1697 C1698 1.392 . S
C1697 C1701 1.495 . S
C1698 C1697 1.392 . S
C1698 C1699 1.385 . S
C1698 C1700 1.478 . S
C1699 H1693 0.930 . S
C1699 C1695 1.400 . S
C1699 C1698 1.385 . S
C1700 C1698 1.478 . S
C1700 C1702 1.381 . S
C1700 C1706 1.383 . S
C1701 C1697 1.495 . S
C1701 H1707 0.959 . S
C1701 H1708 0.961 . S
C1701 H1709 0.960 . S
C1702 C1700 1.381 . S
C1702 C1703 1.394 . S
C1702 H1710 0.930 . S
C1703 C1702 1.394 . S
C1703 C1704 1.383 . S
C1703 H1711 0.929 . S
C1704 C1703 1.383 . S
C1704 C1705 1.377 . S
C1705 H1689 0.930 . S
C1705 C1704 1.377 . S
C1705 C1706 1.379 . S
C1706 H1690 0.931 . S
C1706 C1700 1.383 . S
C1706 C1705 1.379 . S
H1707 C1701 0.959 . S
H1708 C1701 0.961 . S
H1709 C1701 0.960 . S
H1710 C1702 0.930 . S
H1711 C1703 0.929 . S
H1712 C1720 0.929 . S
H1713 C1722 0.930 . S
H1714 C1724 0.930 . S
H1715 C1727 0.929 . S
H1716 C1730 0.930 . S
H1717 C1732 0.960 . S
H1718 C1732 0.960 . S
H1719 C1732 0.960 . S
C1720 H1712 0.929 . S
C1720 C1721 1.377 . S
C1720 C1722 1.384 . S
C1721 C1720 1.377 . S
C1721 C1727 1.390 . S
C1722 H1713 0.930 . S
C1722 C1720 1.384 . S
C1722 C1723 1.372 . S
C1723 C1722 1.372 . S
C1723 C1724 1.400 . S
C1723 C1728 1.490 . S
C1724 H1714 0.930 . S
C1724 C1723 1.400 . S
C1724 C1727 1.386 . S
H1725 C1741 0.930 . S
H1726 C1742 0.931 . S
C1727 H1715 0.929 . S
C1727 C1721 1.390 . S
C1727 C1724 1.386 . S
C1728 C1723 1.490 . S
C1728 C1730 1.395 . S
C1728 C1731 1.403 . S
H1729 C1735 0.930 . S
C1730 H1716 0.930 . S
C1730 C1728 1.395 . S
C1730 C1733 1.403 . S
C1731 C1728 1.403 . S
C1731 C1732 1.524 . S
C1731 C1735 1.400 . S
C1732 H1717 0.960 . S
C1732 H1718 0.960 . S
C1732 H1719 0.960 . S
C1732 C1731 1.524 . S
C1733 C1730 1.403 . S
C1733 C1734 1.392 . S
C1733 C1737 1.495 . S
C1734 C1733 1.392 . S
C1734 C1735 1.385 . S
C1734 C1736 1.478 . S
C1735 H1729 0.930 . S
C1735 C1731 1.400 . S
C1735 C1734 1.385 . S
C1736 C1734 1.478 . S
C1736 C1738 1.381 . S
C1736 C1742 1.383 . S
C1737 C1733 1.495 . S
C1737 H1743 0.959 . S
C1737 H1744 0.961 . S
C1737 H1745 0.960 . S
C1738 C1736 1.381 . S
C1738 C1739 1.394 . S
C1738 H1746 0.930 . S
C1739 C1738 1.394 . S
C1739 C1740 1.383 . S
C1739 H1747 0.929 . S
C1740 C1739 1.383 . S
C1740 C1741 1.377 . S
C1741 H1725 0.930 . S
C1741 C1740 1.377 . S
C1741 C1742 1.379 . S
C1742 H1726 0.931 . S
C1742 C1736 1.383 . S
C1742 C1741 1.379 . S
H1743 C1737 0.959 . S
H1744 C1737 0.961 . S
H1745 C1737 0.960 . S
H1746 C1738 0.930 . S
H1747 C1739 0.929 . S
H1748 C1756 0.929 . S
H1749 C1758 0.930 . S
H1750 C1760 0.930 . S
H1751 C1763 0.929 . S
H1752 C1766 0.930 . S
H1753 C1768 0.960 . S
H1754 C1768 0.960 . S
H1755 C1768 0.960 . S
C1756 H1748 0.929 . S
C1756 C1757 1.377 1_545 S
C1756 C1758 1.384 . S
C1757 C1756 1.377 1_565 S
C1757 C1763 1.390 . S
C1758 H1749 0.930 . S
C1758 C1756 1.384 . S
C1758 C1759 1.372 . S
C1759 C1758 1.372 . S
C1759 C1760 1.400 . S
C1759 C1764 1.490 . S
C1760 H1750 0.930 . S
C1760 C1759 1.400 . S
C1760 C1763 1.386 1_545 S
H1761 C1777 0.930 . S
H1762 C1778 0.931 . S
C1763 H1751 0.929 . S
C1763 C1757 1.390 . S
C1763 C1760 1.386 1_565 S
C1764 C1759 1.490 . S
C1764 C1766 1.395 . S
C1764 C1767 1.403 . S
H1765 C1771 0.930 . S
C1766 H1752 0.930 . S
C1766 C1764 1.395 . S
C1766 C1769 1.403 . S
C1767 C1764 1.403 . S
C1767 C1768 1.524 . S
C1767 C1771 1.400 . S
C1768 H1753 0.960 . S
C1768 H1754 0.960 . S
C1768 H1755 0.960 . S
C1768 C1767 1.524 . S
C1769 C1766 1.403 . S
C1769 C1770 1.392 . S
C1769 C1773 1.495 . S
C1770 C1769 1.392 . S
C1770 C1771 1.385 . S
C1770 C1772 1.478 . S
C1771 H1765 0.930 . S
C1771 C1767 1.400 . S
C1771 C1770 1.385 . S
C1772 C1770 1.478 . S
C1772 C1774 1.381 . S
C1772 C1778 1.383 . S
C1773 C1769 1.495 . S
C1773 H1779 0.959 . S
C1773 H1780 0.961 . S
C1773 H1781 0.960 . S
C1774 C1772 1.381 . S
C1774 C1775 1.394 . S
C1774 H1782 0.930 . S
C1775 C1774 1.394 . S
C1775 C1776 1.383 . S
C1775 H1783 0.929 . S
C1776 C1775 1.383 . S
C1776 C1777 1.377 . S
C1777 H1761 0.930 . S
C1777 C1776 1.377 . S
C1777 C1778 1.379 . S
C1778 H1762 0.931 . S
C1778 C1772 1.383 . S
C1778 C1777 1.379 . S
H1779 C1773 0.959 . S
H1780 C1773 0.961 . S
H1781 C1773 0.960 . S
H1782 C1774 0.930 . S
H1783 C1775 0.929 . S
H1784 C1792 0.929 . S
H1785 C1794 0.930 . S
H1786 C1796 0.930 . S
H1787 C1799 0.929 . S
H1788 C1802 0.930 . S
H1789 C1804 0.960 . S
H1790 C1804 0.960 . S
H1791 C1804 0.960 . S
C1792 H1784 0.929 . S
C1792 C1793 1.377 . S
C1792 C1794 1.384 . S
C1793 C1792 1.377 . S
C1793 C1799 1.390 . S
C1794 H1785 0.930 . S
C1794 C1792 1.384 . S
C1794 C1795 1.372 . S
C1795 C1794 1.372 . S
C1795 C1796 1.400 . S
C1795 C1800 1.490 . S
C1796 H1786 0.930 . S
C1796 C1795 1.400 . S
C1796 C1799 1.386 . S
H1797 C1813 0.930 . S
H1798 C1814 0.931 . S
C1799 H1787 0.929 . S
C1799 C1793 1.390 . S
C1799 C1796 1.386 . S
C1800 C1795 1.490 . S
C1800 C1802 1.395 . S
C1800 C1803 1.403 . S
H1801 C1807 0.930 . S
C1802 H1788 0.930 . S
C1802 C1800 1.395 . S
C1802 C1805 1.403 . S
C1803 C1800 1.403 . S
C1803 C1804 1.524 . S
C1803 C1807 1.400 . S
C1804 H1789 0.960 . S
C1804 H1790 0.960 . S
C1804 H1791 0.960 . S
C1804 C1803 1.524 . S
C1805 C1802 1.403 . S
C1805 C1806 1.392 . S
C1805 C1809 1.495 . S
C1806 C1805 1.392 . S
C1806 C1807 1.385 . S
C1806 C1808 1.478 . S
C1807 H1801 0.930 . S
C1807 C1803 1.400 . S
C1807 C1806 1.385 . S
C1808 C1806 1.478 . S
C1808 C1810 1.381 . S
C1808 C1814 1.383 . S
C1809 C1805 1.495 . S
C1809 H1815 0.959 . S
C1809 H1816 0.961 . S
C1809 H1817 0.960 . S
C1810 C1808 1.381 . S
C1810 C1811 1.394 1_545 S
C1810 H1818 0.930 . S
C1811 C1810 1.394 1_565 S
C1811 C1812 1.383 . S
C1811 H1819 0.929 . S
C1812 C1811 1.383 . S
C1812 C1813 1.377 1_565 S
C1813 H1797 0.930 . S
C1813 C1812 1.377 1_545 S
C1813 C1814 1.379 . S
C1814 H1798 0.931 . S
C1814 C1808 1.383 . S
C1814 C1813 1.379 . S
H1815 C1809 0.959 . S
H1816 C1809 0.961 . S
H1817 C1809 0.960 . S
H1818 C1810 0.930 . S
H1819 C1811 0.929 . S
H1820 C1828 0.929 . S
H1821 C1830 0.930 . S
H1822 C1832 0.930 . S
H1823 C1835 0.929 . S
H1824 C1838 0.930 . S
H1825 C1840 0.960 . S
H1826 C1840 0.960 . S
H1827 C1840 0.960 . S
C1828 H1820 0.929 . S
C1828 C1829 1.377 . S
C1828 C1830 1.384 . S
C1829 C1828 1.377 . S
C1829 C1835 1.390 . S
C1830 H1821 0.930 . S
C1830 C1828 1.384 . S
C1830 C1831 1.372 . S
C1831 C1830 1.372 . S
C1831 C1832 1.400 . S
C1831 C1836 1.490 . S
C1832 H1822 0.930 . S
C1832 C1831 1.400 . S
C1832 C1835 1.386 . S
H1833 C1849 0.930 . S
H1834 C1850 0.931 . S
C1835 H1823 0.929 . S
C1835 C1829 1.390 . S
C1835 C1832 1.386 . S
C1836 C1831 1.490 . S
C1836 C1838 1.395 . S
C1836 C1839 1.403 . S
H1837 C1843 0.930 . S
C1838 H1824 0.930 . S
C1838 C1836 1.395 . S
C1838 C1841 1.403 . S
C1839 C1836 1.403 . S
C1839 C1840 1.524 . S
C1839 C1843 1.400 . S
C1840 H1825 0.960 . S
C1840 H1826 0.960 . S
C1840 H1827 0.960 . S
C1840 C1839 1.524 . S
C1841 C1838 1.403 . S
C1841 C1842 1.392 . S
C1841 C1845 1.495 . S
C1842 C1841 1.392 . S
C1842 C1843 1.385 . S
C1842 C1844 1.478 . S
C1843 H1837 0.930 . S
C1843 C1839 1.400 . S
C1843 C1842 1.385 . S
C1844 C1842 1.478 . S
C1844 C1846 1.381 . S
C1844 C1850 1.383 . S
C1845 C1841 1.495 . S
C1845 H1851 0.959 . S
C1845 H1852 0.961 . S
C1845 H1853 0.960 . S
C1846 C1844 1.381 . S
C1846 C1847 1.394 . S
C1846 H1854 0.930 . S
C1847 C1846 1.394 . S
C1847 C1848 1.383 . S
C1847 H1855 0.929 . S
C1848 C1847 1.383 . S
C1848 C1849 1.377 . S
C1849 H1833 0.930 . S
C1849 C1848 1.377 . S
C1849 C1850 1.379 . S
C1850 H1834 0.931 . S
C1850 C1844 1.383 . S
C1850 C1849 1.379 . S
H1851 C1845 0.959 . S
H1852 C1845 0.961 . S
H1853 C1845 0.960 . S
H1854 C1846 0.930 . S
H1855 C1847 0.929 . S
H1856 C1864 0.929 . S
H1857 C1866 0.930 . S
H1858 C1868 0.930 . S
H1859 C1871 0.929 . S
H1860 C1874 0.930 . S
H1861 C1876 0.960 . S
H1862 C1876 0.960 . S
H1863 C1876 0.960 . S
C1864 H1856 0.929 . S
C1864 C1865 1.377 . S
C1864 C1866 1.384 . S
C1865 C1864 1.377 . S
C1865 C1871 1.390 . S
C1866 H1857 0.930 . S
C1866 C1864 1.384 . S
C1866 C1867 1.372 . S
C1867 C1866 1.372 . S
C1867 C1868 1.400 . S
C1867 C1872 1.490 . S
C1868 H1858 0.930 . S
C1868 C1867 1.400 . S
C1868 C1871 1.386 . S
H1869 C1885 0.930 . S
H1870 C1886 0.931 . S
C1871 H1859 0.929 . S
C1871 C1865 1.390 . S
C1871 C1868 1.386 . S
C1872 C1867 1.490 . S
C1872 C1874 1.395 . S
C1872 C1875 1.403 . S
H1873 C1879 0.930 . S
C1874 H1860 0.930 . S
C1874 C1872 1.395 . S
C1874 C1877 1.403 . S
C1875 C1872 1.403 . S
C1875 C1876 1.524 . S
C1875 C1879 1.400 . S
C1876 H1861 0.960 . S
C1876 H1862 0.960 . S
C1876 H1863 0.960 . S
C1876 C1875 1.524 . S
C1877 C1874 1.403 . S
C1877 C1878 1.392 . S
C1877 C1881 1.495 . S
C1878 C1877 1.392 . S
C1878 C1879 1.385 . S
C1878 C1880 1.478 . S
C1879 H1873 0.930 . S
C1879 C1875 1.400 . S
C1879 C1878 1.385 . S
C1880 C1878 1.478 . S
C1880 C1882 1.381 . S
C1880 C1886 1.383 . S
C1881 C1877 1.495 . S
C1881 H1887 0.959 . S
C1881 H1888 0.961 . S
C1881 H1889 0.960 . S
C1882 C1880 1.381 . S
C1882 C1883 1.394 . S
C1882 H1890 0.930 . S
C1883 C1882 1.394 . S
C1883 C1884 1.383 . S
C1883 H1891 0.929 . S
C1884 C1883 1.383 . S
C1884 C1885 1.377 . S
C1885 H1869 0.930 . S
C1885 C1884 1.377 . S
C1885 C1886 1.379 . S
C1886 H1870 0.931 . S
C1886 C1880 1.383 . S
C1886 C1885 1.379 . S
H1887 C1881 0.959 . S
H1888 C1881 0.961 . S
H1889 C1881 0.960 . S
H1890 C1882 0.930 . S
H1891 C1883 0.929 . S
H1892 C1900 0.929 . S
H1893 C1902 0.930 . S
H1894 C1904 0.930 . S
H1895 C1907 0.929 . S
H1896 C1910 0.930 . S
H1897 C1912 0.960 . S
H1898 C1912 0.960 . S
H1899 C1912 0.960 . S
C1900 H1892 0.929 . S
C1900 C1901 1.377 . S
C1900 C1902 1.384 . S
C1901 C1900 1.377 . S
C1901 C1907 1.390 . S
C1902 H1893 0.930 . S
C1902 C1900 1.384 . S
C1902 C1903 1.372 . S
C1903 C1902 1.372 . S
C1903 C1904 1.400 . S
C1903 C1908 1.490 . S
C1904 H1894 0.930 . S
C1904 C1903 1.400 . S
C1904 C1907 1.386 . S
H1905 C1921 0.930 1_545 S
H1906 C1922 0.931 . S
C1907 H1895 0.929 . S
C1907 C1901 1.390 . S
C1907 C1904 1.386 . S
C1908 C1903 1.490 . S
C1908 C1910 1.395 . S
C1908 C1911 1.403 . S
H1909 C1915 0.930 . S
C1910 H1896 0.930 . S
C1910 C1908 1.395 . S
C1910 C1913 1.403 . S
C1911 C1908 1.403 . S
C1911 C1912 1.524 . S
C1911 C1915 1.400 . S
C1912 H1897 0.960 . S
C1912 H1898 0.960 . S
C1912 H1899 0.960 . S
C1912 C1911 1.524 . S
C1913 C1910 1.403 . S
C1913 C1914 1.392 . S
C1913 C1917 1.495 . S
C1914 C1913 1.392 . S
C1914 C1915 1.385 . S
C1914 C1916 1.478 . S
C1915 H1909 0.930 . S
C1915 C1911 1.400 . S
C1915 C1914 1.385 . S
C1916 C1914 1.478 . S
C1916 C1918 1.381 . S
C1916 C1922 1.383 . S
C1917 C1913 1.495 . S
C1917 H1923 0.959 . S
C1917 H1924 0.961 . S
C1917 H1925 0.960 . S
C1918 C1916 1.381 . S
C1918 C1919 1.394 1_565 S
C1918 H1926 0.930 . S
C1919 C1918 1.394 1_545 S
C1919 C1920 1.383 . S
C1919 H1927 0.929 . S
C1920 C1919 1.383 . S
C1920 C1921 1.377 1_545 S
C1921 H1905 0.930 1_565 S
C1921 C1920 1.377 1_565 S
C1921 C1922 1.379 . S
C1922 H1906 0.931 . S
C1922 C1916 1.383 . S
C1922 C1921 1.379 . S
H1923 C1917 0.959 . S
H1924 C1917 0.961 . S
H1925 C1917 0.960 . S
H1926 C1918 0.930 . S
H1927 C1919 0.929 . S
H1928 C1936 0.929 . S
H1929 C1938 0.930 . S
H1930 C1940 0.930 . S
H1931 C1943 0.929 . S
H1932 C1946 0.930 . S
H1933 C1948 0.960 . S
H1934 C1948 0.960 . S
H1935 C1948 0.960 . S
C1936 H1928 0.929 . S
C1936 C1937 1.377 . S
C1936 C1938 1.384 . S
C1937 C1936 1.377 . S
C1937 C1943 1.390 . S
C1938 H1929 0.930 . S
C1938 C1936 1.384 . S
C1938 C1939 1.372 . S
C1939 C1938 1.372 . S
C1939 C1940 1.400 . S
C1939 C1944 1.490 . S
C1940 H1930 0.930 . S
C1940 C1939 1.400 . S
C1940 C1943 1.386 . S
H1941 C1957 0.930 . S
H1942 C1958 0.931 . S
C1943 H1931 0.929 . S
C1943 C1937 1.390 . S
C1943 C1940 1.386 . S
C1944 C1939 1.490 . S
C1944 C1946 1.395 . S
C1944 C1947 1.403 . S
H1945 C1951 0.930 . S
C1946 H1932 0.930 . S
C1946 C1944 1.395 . S
C1946 C1949 1.403 . S
C1947 C1944 1.403 . S
C1947 C1948 1.524 . S
C1947 C1951 1.400 . S
C1948 H1933 0.960 . S
C1948 H1934 0.960 . S
C1948 H1935 0.960 . S
C1948 C1947 1.524 . S
C1949 C1946 1.403 . S
C1949 C1950 1.392 . S
C1949 C1953 1.495 . S
C1950 C1949 1.392 . S
C1950 C1951 1.385 . S
C1950 C1952 1.478 . S
C1951 H1945 0.930 . S
C1951 C1947 1.400 . S
C1951 C1950 1.385 . S
C1952 C1950 1.478 . S
C1952 C1954 1.381 . S
C1952 C1958 1.383 . S
C1953 C1949 1.495 . S
C1953 H1959 0.959 . S
C1953 H1960 0.961 . S
C1953 H1961 0.960 . S
C1954 C1952 1.381 . S
C1954 C1955 1.394 1_565 S
C1954 H1962 0.930 . S
C1955 C1954 1.394 1_545 S
C1955 C1956 1.383 . S
C1955 H1963 0.929 . S
C1956 C1955 1.383 . S
C1956 C1957 1.377 . S
C1957 H1941 0.930 . S
C1957 C1956 1.377 . S
C1957 C1958 1.379 1_545 S
C1958 H1942 0.931 . S
C1958 C1952 1.383 . S
C1958 C1957 1.379 1_565 S
H1959 C1953 0.959 . S
H1960 C1953 0.961 . S
H1961 C1953 0.960 . S
H1962 C1954 0.930 . S
H1963 C1955 0.929 . S
H1964 C1972 0.929 . S
H1965 C1974 0.930 . S
H1966 C1976 0.930 . S
H1967 C1979 0.929 . S
H1968 C1982 0.930 . S
H1969 C1984 0.960 . S
H1970 C1984 0.960 . S
H1971 C1984 0.960 . S
C1972 H1964 0.929 . S
C1972 C1973 1.377 . S
C1972 C1974 1.384 . S
C1973 C1972 1.377 . S
C1973 C1979 1.390 . S
C1974 H1965 0.930 . S
C1974 C1972 1.384 . S
C1974 C1975 1.372 . S
C1975 C1974 1.372 . S
C1975 C1976 1.400 . S
C1975 C1980 1.490 . S
C1976 H1966 0.930 . S
C1976 C1975 1.400 . S
C1976 C1979 1.386 . S
H1977 C1993 0.930 . S
H1978 C1994 0.931 . S
C1979 H1967 0.929 . S
C1979 C1973 1.390 . S
C1979 C1976 1.386 . S
C1980 C1975 1.490 . S
C1980 C1982 1.395 . S
C1980 C1983 1.403 . S
H1981 C1987 0.930 . S
C1982 H1968 0.930 . S
C1982 C1980 1.395 . S
C1982 C1985 1.403 . S
C1983 C1980 1.403 . S
C1983 C1984 1.524 . S
C1983 C1987 1.400 . S
C1984 H1969 0.960 . S
C1984 H1970 0.960 . S
C1984 H1971 0.960 . S
C1984 C1983 1.524 . S
C1985 C1982 1.403 . S
C1985 C1986 1.392 . S
C1985 C1989 1.495 . S
C1986 C1985 1.392 . S
C1986 C1987 1.385 . S
C1986 C1988 1.478 . S
C1987 H1981 0.930 . S
C1987 C1983 1.400 . S
C1987 C1986 1.385 . S
C1988 C1986 1.478 . S
C1988 C1990 1.381 . S
C1988 C1994 1.383 . S
C1989 C1985 1.495 . S
C1989 H1995 0.959 . S
C1989 H1996 0.961 . S
C1989 H1997 0.960 . S
C1990 C1988 1.381 . S
C1990 C1991 1.394 . S
C1990 H1998 0.930 . S
C1991 C1990 1.394 . S
C1991 C1992 1.383 . S
C1991 H1999 0.929 . S
C1992 C1991 1.383 . S
C1992 C1993 1.377 . S
C1993 H1977 0.930 . S
C1993 C1992 1.377 . S
C1993 C1994 1.379 . S
C1994 H1978 0.931 . S
C1994 C1988 1.383 . S
C1994 C1993 1.379 . S
H1995 C1989 0.959 . S
H1996 C1989 0.961 . S
H1997 C1989 0.960 . S
H1998 C1990 0.930 . S
H1999 C1991 0.929 . S
H2000 C2008 0.929 . S
H2001 C2010 0.930 . S
H2002 C2012 0.930 . S
H2003 C2015 0.929 . S
H2004 C2018 0.930 . S
H2005 C2020 0.960 . S
H2006 C2020 0.960 . S
H2007 C2020 0.960 . S
C2008 H2000 0.929 . S
C2008 C2009 1.377 . S
C2008 C2010 1.384 . S
C2009 C2008 1.377 . S
C2009 C2015 1.390 . S
C2010 H2001 0.930 . S
C2010 C2008 1.384 . S
C2010 C2011 1.372 . S
C2011 C2010 1.372 . S
C2011 C2012 1.400 . S
C2011 C2016 1.490 . S
C2012 H2002 0.930 . S
C2012 C2011 1.400 . S
C2012 C2015 1.386 . S
H2013 C2029 0.930 . S
H2014 C2030 0.931 . S
C2015 H2003 0.929 . S
C2015 C2009 1.390 . S
C2015 C2012 1.386 . S
C2016 C2011 1.490 . S
C2016 C2018 1.395 . S
C2016 C2019 1.403 . S
H2017 C2023 0.930 . S
C2018 H2004 0.930 . S
C2018 C2016 1.395 . S
C2018 C2021 1.403 . S
C2019 C2016 1.403 . S
C2019 C2020 1.524 . S
C2019 C2023 1.400 . S
C2020 H2005 0.960 . S
C2020 H2006 0.960 . S
C2020 H2007 0.960 . S
C2020 C2019 1.524 . S
C2021 C2018 1.403 . S
C2021 C2022 1.392 . S
C2021 C2025 1.495 . S
C2022 C2021 1.392 . S
C2022 C2023 1.385 . S
C2022 C2024 1.478 . S
C2023 H2017 0.930 . S
C2023 C2019 1.400 . S
C2023 C2022 1.385 . S
C2024 C2022 1.478 . S
C2024 C2026 1.381 . S
C2024 C2030 1.383 . S
C2025 C2021 1.495 . S
C2025 H2031 0.959 . S
C2025 H2032 0.961 . S
C2025 H2033 0.960 . S
C2026 C2024 1.381 . S
C2026 C2027 1.394 . S
C2026 H2034 0.930 . S
C2027 C2026 1.394 . S
C2027 C2028 1.383 . S
C2027 H2035 0.929 . S
C2028 C2027 1.383 . S
C2028 C2029 1.377 . S
C2029 H2013 0.930 . S
C2029 C2028 1.377 . S
C2029 C2030 1.379 . S
C2030 H2014 0.931 . S
C2030 C2024 1.383 . S
C2030 C2029 1.379 . S
H2031 C2025 0.959 . S
H2032 C2025 0.961 . S
H2033 C2025 0.960 . S
H2034 C2026 0.930 . S
H2035 C2027 0.929 . S
H2036 C2044 0.929 . S
H2037 C2046 0.930 . S
H2038 C2048 0.930 . S
H2039 C2051 0.926 1_565 S
H2040 C2054 0.930 . S
H2041 C2056 0.960 . S
H2042 C2056 0.960 . S
H2043 C2056 0.960 . S
C2044 H2036 0.929 . S
C2044 C2045 1.377 . S
C2044 C2046 1.384 1_565 S
C2045 C2044 1.377 . S
C2045 C2051 1.383 1_565 S
C2046 H2037 0.930 . S
C2046 C2044 1.384 1_545 S
C2046 C2047 1.372 . S
C2047 C2046 1.372 . S
C2047 C2048 1.400 . S
C2047 C2052 1.490 . S
C2048 H2038 0.930 . S
C2048 C2047 1.400 . S
C2048 C2051 1.395 . S
H2049 C2065 0.930 . S
H2050 C2066 0.931 . S
C2051 H2039 0.926 1_545 S
C2051 C2045 1.383 1_545 S
C2051 C2048 1.395 . S
C2052 C2047 1.490 . S
C2052 C2054 1.395 . S
C2052 C2055 1.403 . S
H2053 C2059 0.930 . S
C2054 H2040 0.930 . S
C2054 C2052 1.395 . S
C2054 C2057 1.403 . S
C2055 C2052 1.403 . S
C2055 C2056 1.524 . S
C2055 C2059 1.400 . S
C2056 H2041 0.960 . S
C2056 H2042 0.960 . S
C2056 H2043 0.960 . S
C2056 C2055 1.524 . S
C2057 C2054 1.403 . S
C2057 C2058 1.392 . S
C2057 C2061 1.495 . S
C2058 C2057 1.392 . S
C2058 C2059 1.385 . S
C2058 C2060 1.478 . S
C2059 H2053 0.930 . S
C2059 C2055 1.400 . S
C2059 C2058 1.385 . S
C2060 C2058 1.478 . S
C2060 C2062 1.381 . S
C2060 C2066 1.383 . S
C2061 C2057 1.495 . S
C2061 H2067 0.959 . S
C2061 H2068 0.961 . S
C2061 H2069 0.960 . S
C2062 C2060 1.381 . S
C2062 C2063 1.394 . S
C2062 H2070 0.930 . S
C2063 C2062 1.394 . S
C2063 C2064 1.383 . S
C2063 H2071 0.929 . S
C2064 C2063 1.383 . S
C2064 C2065 1.377 . S
C2065 H2049 0.930 . S
C2065 C2064 1.377 . S
C2065 C2066 1.379 . S
C2066 H2050 0.931 . S
C2066 C2060 1.383 . S
C2066 C2065 1.379 . S
H2067 C2061 0.959 . S
H2068 C2061 0.961 . S
H2069 C2061 0.960 . S
H2070 C2062 0.930 . S
H2071 C2063 0.929 . S
H2072 C2080 0.929 . S
H2073 C2082 0.930 . S
H2074 C2084 0.930 . S
H2075 C2087 0.929 . S
H2076 C2090 0.930 . S
H2077 C2092 0.960 . S
H2078 C2092 0.960 . S
H2079 C2092 0.960 . S
C2080 H2072 0.929 . S
C2080 C2081 1.377 . S
C2080 C2082 1.384 . S
C2081 C2080 1.377 . S
C2081 C2087 1.390 . S
C2082 H2073 0.930 . S
C2082 C2080 1.384 . S
C2082 C2083 1.372 . S
C2083 C2082 1.372 . S
C2083 C2084 1.400 . S
C2083 C2088 1.490 . S
C2084 H2074 0.930 . S
C2084 C2083 1.400 . S
C2084 C2087 1.386 . S
H2085 C2101 0.930 . S
H2086 C2102 0.931 . S
C2087 H2075 0.929 . S
C2087 C2081 1.390 . S
C2087 C2084 1.386 . S
C2088 C2083 1.490 . S
C2088 C2090 1.395 . S
C2088 C2091 1.403 . S
H2089 C2095 0.930 . S
C2090 H2076 0.930 . S
C2090 C2088 1.395 . S
C2090 C2093 1.403 . S
C2091 C2088 1.403 . S
C2091 C2092 1.524 . S
C2091 C2095 1.400 . S
C2092 H2077 0.960 . S
C2092 H2078 0.960 . S
C2092 H2079 0.960 . S
C2092 C2091 1.524 . S
C2093 C2090 1.403 . S
C2093 C2094 1.392 . S
C2093 C2097 1.495 . S
C2094 C2093 1.392 . S
C2094 C2095 1.385 . S
C2094 C2096 1.478 . S
C2095 H2089 0.930 . S
C2095 C2091 1.400 . S
C2095 C2094 1.385 . S
C2096 C2094 1.478 . S
C2096 C2098 1.381 . S
C2096 C2102 1.383 . S
C2097 C2093 1.495 . S
C2097 H2103 0.959 . S
C2097 H2104 0.961 . S
C2097 H2105 0.960 . S
C2098 C2096 1.381 . S
C2098 C2099 1.394 . S
C2098 H2106 0.930 . S
C2099 C2098 1.394 . S
C2099 C2100 1.383 1_545 S
C2099 H2107 0.929 1_545 S
C2100 C2099 1.383 1_565 S
C2100 C2101 1.377 . S
C2101 H2085 0.930 . S
C2101 C2100 1.377 . S
C2101 C2102 1.379 1_565 S
C2102 H2086 0.931 . S
C2102 C2096 1.383 . S
C2102 C2101 1.379 1_545 S
H2103 C2097 0.959 . S
H2104 C2097 0.961 . S
H2105 C2097 0.960 . S
H2106 C2098 0.930 . S
H2107 C2099 0.929 1_565 S
H2108 C2116 0.929 . S
H2109 C2118 0.930 . S
H2110 C2120 0.930 . S
H2111 C2123 0.929 . S
H2112 C2126 0.930 . S
H2113 C2128 0.960 . S
H2114 C2128 0.960 . S
H2115 C2128 0.960 . S
C2116 H2108 0.929 . S
C2116 C2117 1.377 . S
C2116 C2118 1.384 . S
C2117 C2116 1.377 . S
C2117 C2123 1.390 . S
C2118 H2109 0.930 . S
C2118 C2116 1.384 . S
C2118 C2119 1.372 . S
C2119 C2118 1.372 . S
C2119 C2120 1.400 . S
C2119 C2124 1.490 . S
C2120 H2110 0.930 . S
C2120 C2119 1.400 . S
C2120 C2123 1.386 . S
H2121 C2137 0.930 . S
H2122 C2138 0.931 . S
C2123 H2111 0.929 . S
C2123 C2117 1.390 . S
C2123 C2120 1.386 . S
C2124 C2119 1.490 . S
C2124 C2126 1.395 . S
C2124 C2127 1.403 . S
H2125 C2131 0.930 . S
C2126 H2112 0.930 . S
C2126 C2124 1.395 . S
C2126 C2129 1.403 . S
C2127 C2124 1.403 . S
C2127 C2128 1.524 . S
C2127 C2131 1.400 . S
C2128 H2113 0.960 . S
C2128 H2114 0.960 . S
C2128 H2115 0.960 . S
C2128 C2127 1.524 . S
C2129 C2126 1.403 . S
C2129 C2130 1.392 . S
C2129 C2133 1.495 . S
C2130 C2129 1.392 . S
C2130 C2131 1.385 . S
C2130 C2132 1.478 . S
C2131 H2125 0.930 . S
C2131 C2127 1.400 . S
C2131 C2130 1.385 . S
C2132 C2130 1.478 . S
C2132 C2134 1.381 . S
C2132 C2138 1.383 . S
C2133 C2129 1.495 . S
C2133 H2139 0.959 . S
C2133 H2140 0.961 . S
C2133 H2141 0.960 . S
C2134 C2132 1.381 . S
C2134 C2135 1.394 . S
C2134 H2142 0.930 . S
C2135 C2134 1.394 . S
C2135 C2136 1.383 . S
C2135 H2143 0.929 . S
C2136 C2135 1.383 . S
C2136 C2137 1.377 . S
C2137 H2121 0.930 . S
C2137 C2136 1.377 . S
C2137 C2138 1.379 . S
C2138 H2122 0.931 . S
C2138 C2132 1.383 . S
C2138 C2137 1.379 . S
H2139 C2133 0.959 . S
H2140 C2133 0.961 . S
H2141 C2133 0.960 . S
H2142 C2134 0.930 . S
H2143 C2135 0.929 . S
H2144 C2152 0.929 . S
H2145 C2154 0.930 . S
H2146 C2156 0.930 . S
H2147 C2159 0.929 . S
H2148 C2162 0.930 . S
H2149 C2164 0.960 . S
H2150 C2164 0.960 . S
H2151 C2164 0.960 . S
C2152 H2144 0.929 . S
C2152 C2153 1.377 . S
C2152 C2154 1.384 . S
C2153 C2152 1.377 . S
C2153 C2159 1.390 . S
C2154 H2145 0.930 . S
C2154 C2152 1.384 . S
C2154 C2155 1.372 . S
C2155 C2154 1.372 . S
C2155 C2156 1.400 . S
C2155 C2160 1.490 . S
C2156 H2146 0.930 . S
C2156 C2155 1.400 . S
C2156 C2159 1.386 . S
H2157 C2173 0.930 1_545 S
H2158 C2174 0.931 . S
C2159 H2147 0.929 . S
C2159 C2153 1.390 . S
C2159 C2156 1.386 . S
C2160 C2155 1.490 . S
C2160 C2162 1.395 . S
C2160 C2163 1.403 . S
H2161 C2167 0.930 . S
C2162 H2148 0.930 . S
C2162 C2160 1.395 . S
C2162 C2165 1.403 . S
C2163 C2160 1.403 . S
C2163 C2164 1.524 . S
C2163 C2167 1.400 . S
C2164 H2149 0.960 . S
C2164 H2150 0.960 . S
C2164 H2151 0.960 . S
C2164 C2163 1.524 . S
C2165 C2162 1.403 . S
C2165 C2166 1.392 . S
C2165 C2169 1.495 . S
C2166 C2165 1.392 . S
C2166 C2167 1.385 . S
C2166 C2168 1.478 . S
C2167 H2161 0.930 . S
C2167 C2163 1.400 . S
C2167 C2166 1.385 . S
C2168 C2166 1.478 . S
C2168 C2170 1.381 . S
C2168 C2174 1.383 . S
C2169 C2165 1.495 . S
C2169 H2175 0.959 . S
C2169 H2176 0.961 . S
C2169 H2177 0.960 . S
C2170 C2168 1.381 . S
C2170 C2171 1.394 1_565 S
C2170 H2178 0.930 . S
C2171 C2170 1.394 1_545 S
C2171 C2172 1.383 . S
C2171 H2179 0.929 . S
C2172 C2171 1.383 . S
C2172 C2173 1.377 1_545 S
C2173 H2157 0.930 1_565 S
C2173 C2172 1.377 1_565 S
C2173 C2174 1.379 . S
C2174 H2158 0.931 . S
C2174 C2168 1.383 . S
C2174 C2173 1.379 . S
H2175 C2169 0.959 . S
H2176 C2169 0.961 . S
H2177 C2169 0.960 . S
H2178 C2170 0.930 . S
H2179 C2171 0.929 . S
H2180 C2188 0.929 . S
H2181 C2190 0.930 . S
H2182 C2192 0.930 . S
H2183 C2195 0.929 . S
H2184 C2198 0.930 . S
H2185 C2200 0.960 . S
H2186 C2200 0.960 . S
H2187 C2200 0.960 . S
C2188 H2180 0.929 . S
C2188 C2189 1.377 . S
C2188 C2190 1.384 . S
C2189 C2188 1.377 . S
C2189 C2195 1.390 . S
C2190 H2181 0.930 . S
C2190 C2188 1.384 . S
C2190 C2191 1.372 . S
C2191 C2190 1.372 . S
C2191 C2192 1.400 . S
C2191 C2196 1.490 . S
C2192 H2182 0.930 . S
C2192 C2191 1.400 . S
C2192 C2195 1.386 . S
H2193 C2209 0.930 . S
H2194 C2210 0.931 . S
C2195 H2183 0.929 . S
C2195 C2189 1.390 . S
C2195 C2192 1.386 . S
C2196 C2191 1.490 . S
C2196 C2198 1.395 . S
C2196 C2199 1.403 . S
H2197 C2203 0.930 . S
C2198 H2184 0.930 . S
C2198 C2196 1.395 . S
C2198 C2201 1.403 . S
C2199 C2196 1.403 . S
C2199 C2200 1.524 . S
C2199 C2203 1.400 . S
C2200 H2185 0.960 . S
C2200 H2186 0.960 . S
C2200 H2187 0.960 . S
C2200 C2199 1.524 . S
C2201 C2198 1.403 . S
C2201 C2202 1.392 . S
C2201 C2205 1.495 . S
C2202 C2201 1.392 . S
C2202 C2203 1.385 . S
C2202 C2204 1.478 . S
C2203 H2197 0.930 . S
C2203 C2199 1.400 . S
C2203 C2202 1.385 . S
C2204 C2202 1.478 . S
C2204 C2206 1.381 . S
C2204 C2210 1.383 . S
C2205 C2201 1.495 . S
C2205 H2211 0.959 . S
C2205 H2212 0.961 . S
C2205 H2213 0.960 . S
C2206 C2204 1.381 . S
C2206 C2207 1.394 . S
C2206 H2214 0.930 . S
C2207 C2206 1.394 . S
C2207 C2208 1.383 . S
C2207 H2215 0.929 . S
C2208 C2207 1.383 . S
C2208 C2209 1.377 . S
C2209 H2193 0.930 . S
C2209 C2208 1.377 . S
C2209 C2210 1.379 . S
C2210 H2194 0.931 . S
C2210 C2204 1.383 . S
C2210 C2209 1.379 . S
H2211 C2205 0.959 . S
H2212 C2205 0.961 . S
H2213 C2205 0.960 . S
H2214 C2206 0.930 . S
H2215 C2207 0.929 . S
H2216 C2224 0.929 . S
H2217 C2226 0.930 . S
H2218 C2228 0.930 . S
H2219 C2231 0.929 . S
H2220 C2234 0.930 . S
H2221 C2236 0.960 . S
H2222 C2236 0.960 . S
H2223 C2236 0.960 . S
C2224 H2216 0.929 . S
C2224 C2225 1.377 . S
C2224 C2226 1.384 . S
C2225 C2224 1.377 . S
C2225 C2231 1.390 . S
C2226 H2217 0.930 . S
C2226 C2224 1.384 . S
C2226 C2227 1.372 . S
C2227 C2226 1.372 . S
C2227 C2228 1.400 . S
C2227 C2232 1.490 . S
C2228 H2218 0.930 . S
C2228 C2227 1.400 . S
C2228 C2231 1.386 . S
H2229 C2245 0.930 . S
H2230 C2246 0.931 . S
C2231 H2219 0.929 . S
C2231 C2225 1.390 . S
C2231 C2228 1.386 . S
C2232 C2227 1.490 . S
C2232 C2234 1.395 . S
C2232 C2235 1.403 . S
H2233 C2239 0.930 . S
C2234 H2220 0.930 . S
C2234 C2232 1.395 . S
C2234 C2237 1.403 . S
C2235 C2232 1.403 . S
C2235 C2236 1.524 . S
C2235 C2239 1.400 . S
C2236 H2221 0.960 . S
C2236 H2222 0.960 . S
C2236 H2223 0.960 . S
C2236 C2235 1.524 . S
C2237 C2234 1.403 . S
C2237 C2238 1.392 . S
C2237 C2241 1.495 . S
C2238 C2237 1.392 . S
C2238 C2239 1.385 . S
C2238 C2240 1.478 . S
C2239 H2233 0.930 . S
C2239 C2235 1.400 . S
C2239 C2238 1.385 . S
C2240 C2238 1.478 . S
C2240 C2242 1.381 . S
C2240 C2246 1.383 . S
C2241 C2237 1.495 . S
C2241 H2247 0.959 . S
C2241 H2248 0.961 . S
C2241 H2249 0.960 . S
C2242 C2240 1.381 . S
C2242 C2243 1.394 . S
C2242 H2250 0.930 . S
C2243 C2242 1.394 . S
C2243 C2244 1.383 . S
C2243 H2251 0.929 . S
C2244 C2243 1.383 . S
C2244 C2245 1.377 . S
C2245 H2229 0.930 . S
C2245 C2244 1.377 . S
C2245 C2246 1.379 . S
C2246 H2230 0.931 . S
C2246 C2240 1.383 . S
C2246 C2245 1.379 . S
H2247 C2241 0.959 . S
H2248 C2241 0.961 . S
H2249 C2241 0.960 . S
H2250 C2242 0.930 . S
H2251 C2243 0.929 . S
H2252 C2260 0.929 . S
H2253 C2262 0.930 . S
H2254 C2264 0.930 . S
H2255 C2267 0.929 1_545 S
H2256 C2270 0.930 . S
H2257 C2272 0.960 . S
H2258 C2272 0.960 . S
H2259 C2272 0.960 . S
C2260 H2252 0.929 . S
C2260 C2261 1.377 . S
C2260 C2262 1.384 1_545 S
C2261 C2260 1.377 . S
C2261 C2267 1.390 1_545 S
C2262 H2253 0.930 . S
C2262 C2260 1.384 1_565 S
C2262 C2263 1.372 . S
C2263 C2262 1.372 . S
C2263 C2264 1.400 . S
C2263 C2268 1.490 . S
C2264 H2254 0.930 . S
C2264 C2263 1.400 . S
C2264 C2267 1.386 . S
H2265 C2281 0.930 . S
H2266 C2282 0.931 . S
C2267 H2255 0.929 1_565 S
C2267 C2261 1.390 1_565 S
C2267 C2264 1.386 . S
C2268 C2263 1.490 . S
C2268 C2270 1.395 . S
C2268 C2271 1.403 . S
H2269 C2275 0.930 . S
C2270 H2256 0.930 . S
C2270 C2268 1.395 . S
C2270 C2273 1.403 . S
C2271 C2268 1.403 . S
C2271 C2272 1.524 . S
C2271 C2275 1.400 . S
C2272 H2257 0.960 . S
C2272 H2258 0.960 . S
C2272 H2259 0.960 . S
C2272 C2271 1.524 . S
C2273 C2270 1.403 . S
C2273 C2274 1.392 . S
C2273 C2277 1.495 . S
C2274 C2273 1.392 . S
C2274 C2275 1.385 . S
C2274 C2276 1.478 . S
C2275 H2269 0.930 . S
C2275 C2271 1.400 . S
C2275 C2274 1.385 . S
C2276 C2274 1.478 . S
C2276 C2278 1.381 . S
C2276 C2282 1.383 . S
C2277 C2273 1.495 . S
C2277 H2283 0.959 . S
C2277 H2284 0.961 . S
C2277 H2285 0.960 . S
C2278 C2276 1.381 . S
C2278 C2279 1.394 . S
C2278 H2286 0.930 . S
C2279 C2278 1.394 . S
C2279 C2280 1.383 . S
C2279 H2287 0.929 . S
C2280 C2279 1.383 . S
C2280 C2281 1.377 . S
C2281 H2265 0.930 . S
C2281 C2280 1.377 . S
C2281 C2282 1.379 . S
C2282 H2266 0.931 . S
C2282 C2276 1.383 . S
C2282 C2281 1.379 . S
H2283 C2277 0.959 . S
H2284 C2277 0.961 . S
H2285 C2277 0.960 . S
H2286 C2278 0.930 . S
H2287 C2279 0.929 . S
H2288 C2296 0.929 . S
H2289 C2298 0.930 . S
H2290 C2300 0.930 . S
H2291 C2303 0.929 . S
H2292 C2306 0.930 . S
H2293 C2308 0.960 . S
H2294 C2308 0.960 . S
H2295 C2308 0.960 . S
C2296 H2288 0.929 . S
C2296 C2297 1.377 . S
C2296 C2298 1.384 . S
C2297 C2296 1.377 . S
C2297 C2303 1.390 . S
C2298 H2289 0.930 . S
C2298 C2296 1.384 . S
C2298 C2299 1.372 . S
C2299 C2298 1.372 . S
C2299 C2300 1.400 . S
C2299 C2304 1.490 . S
C2300 H2290 0.930 . S
C2300 C2299 1.400 . S
C2300 C2303 1.386 . S
H2301 C2317 0.930 . S
H2302 C2318 0.931 . S
C2303 H2291 0.929 . S
C2303 C2297 1.390 . S
C2303 C2300 1.386 . S
C2304 C2299 1.490 . S
C2304 C2306 1.395 . S
C2304 C2307 1.403 . S
H2305 C2311 0.930 . S
C2306 H2292 0.930 . S
C2306 C2304 1.395 . S
C2306 C2309 1.403 . S
C2307 C2304 1.403 . S
C2307 C2308 1.524 . S
C2307 C2311 1.400 . S
C2308 H2293 0.960 . S
C2308 H2294 0.960 . S
C2308 H2295 0.960 . S
C2308 C2307 1.524 . S
C2309 C2306 1.403 . S
C2309 C2310 1.392 . S
C2309 C2313 1.495 . S
C2310 C2309 1.392 . S
C2310 C2311 1.385 . S
C2310 C2312 1.478 . S
C2311 H2305 0.930 . S
C2311 C2307 1.400 . S
C2311 C2310 1.385 . S
C2312 C2310 1.478 . S
C2312 C2314 1.381 . S
C2312 C2318 1.383 . S
C2313 C2309 1.495 . S
C2313 H2319 0.959 . S
C2313 H2320 0.961 . S
C2313 H2321 0.960 . S
C2314 C2312 1.381 . S
C2314 C2315 1.394 . S
C2314 H2322 0.930 . S
C2315 C2314 1.394 . S
C2315 C2316 1.383 1_545 S
C2315 H2323 0.929 . S
C2316 C2315 1.383 1_565 S
C2316 C2317 1.377 . S
C2317 H2301 0.930 . S
C2317 C2316 1.377 . S
C2317 C2318 1.379 1_565 S
C2318 H2302 0.931 . S
C2318 C2312 1.383 . S
C2318 C2317 1.379 1_545 S
H2319 C2313 0.959 . S
H2320 C2313 0.961 . S
H2321 C2313 0.960 . S
H2322 C2314 0.930 . S
H2323 C2315 0.929 . S
H2324 C2332 0.929 . S
H2325 C2334 0.930 . S
H2326 C2336 0.930 . S
H2327 C2339 0.929 . S
H2328 C2342 0.930 . S
H2329 C2344 0.960 . S
H2330 C2344 0.960 . S
H2331 C2344 0.960 . S
C2332 H2324 0.929 . S
C2332 C2333 1.377 . S
C2332 C2334 1.384 . S
C2333 C2332 1.377 . S
C2333 C2339 1.390 . S
C2334 H2325 0.930 . S
C2334 C2332 1.384 . S
C2334 C2335 1.372 . S
C2335 C2334 1.372 . S
C2335 C2336 1.400 . S
C2335 C2340 1.490 . S
C2336 H2326 0.930 . S
C2336 C2335 1.400 . S
C2336 C2339 1.386 . S
H2337 C2353 0.930 . S
H2338 C2354 0.931 . S
C2339 H2327 0.929 . S
C2339 C2333 1.390 . S
C2339 C2336 1.386 . S
C2340 C2335 1.490 . S
C2340 C2342 1.395 . S
C2340 C2343 1.403 . S
H2341 C2347 0.930 . S
C2342 H2328 0.930 . S
C2342 C2340 1.395 . S
C2342 C2345 1.403 . S
C2343 C2340 1.403 . S
C2343 C2344 1.524 . S
C2343 C2347 1.400 . S
C2344 H2329 0.960 . S
C2344 H2330 0.960 . S
C2344 H2331 0.960 . S
C2344 C2343 1.524 . S
C2345 C2342 1.403 . S
C2345 C2346 1.392 . S
C2345 C2349 1.495 . S
C2346 C2345 1.392 . S
C2346 C2347 1.385 . S
C2346 C2348 1.478 . S
C2347 H2341 0.930 . S
C2347 C2343 1.400 . S
C2347 C2346 1.385 . S
C2348 C2346 1.478 . S
C2348 C2350 1.381 . S
C2348 C2354 1.383 . S
C2349 C2345 1.495 . S
C2349 H2355 0.959 . S
C2349 H2356 0.961 . S
C2349 H2357 0.960 . S
C2350 C2348 1.381 . S
C2350 C2351 1.394 . S
C2350 H2358 0.930 . S
C2351 C2350 1.394 . S
C2351 C2352 1.383 . S
C2351 H2359 0.929 . S
C2352 C2351 1.383 . S
C2352 C2353 1.377 . S
C2353 H2337 0.930 . S
C2353 C2352 1.377 . S
C2353 C2354 1.379 . S
C2354 H2338 0.931 . S
C2354 C2348 1.383 . S
C2354 C2353 1.379 . S
H2355 C2349 0.959 . S
H2356 C2349 0.961 . S
H2357 C2349 0.960 . S
H2358 C2350 0.930 . S
H2359 C2351 0.929 . S
H2360 C2368 0.929 . S
H2361 C2370 0.930 . S
H2362 C2372 0.930 . S
H2363 C2375 0.929 . S
H2364 C2378 0.930 . S
H2365 C2380 0.960 . S
H2366 C2380 0.960 . S
H2367 C2380 0.960 . S
C2368 H2360 0.929 . S
C2368 C2369 1.377 . S
C2368 C2370 1.384 . S
C2369 C2368 1.377 . S
C2369 C2375 1.390 . S
C2370 H2361 0.930 . S
C2370 C2368 1.384 . S
C2370 C2371 1.372 . S
C2371 C2370 1.372 . S
C2371 C2372 1.400 . S
C2371 C2376 1.490 . S
C2372 H2362 0.930 . S
C2372 C2371 1.400 . S
C2372 C2375 1.386 . S
H2373 C2389 0.930 . S
H2374 C2390 0.931 . S
C2375 H2363 0.929 . S
C2375 C2369 1.390 . S
C2375 C2372 1.386 . S
C2376 C2371 1.490 . S
C2376 C2378 1.395 . S
C2376 C2379 1.403 . S
H2377 C2383 0.930 . S
C2378 H2364 0.930 . S
C2378 C2376 1.395 . S
C2378 C2381 1.403 . S
C2379 C2376 1.403 . S
C2379 C2380 1.524 . S
C2379 C2383 1.400 . S
C2380 H2365 0.960 . S
C2380 H2366 0.960 . S
C2380 H2367 0.960 . S
C2380 C2379 1.524 . S
C2381 C2378 1.403 . S
C2381 C2382 1.392 . S
C2381 C2385 1.495 . S
C2382 C2381 1.392 . S
C2382 C2383 1.385 . S
C2382 C2384 1.478 . S
C2383 H2377 0.930 . S
C2383 C2379 1.400 . S
C2383 C2382 1.385 . S
C2384 C2382 1.478 . S
C2384 C2386 1.381 . S
C2384 C2390 1.383 . S
C2385 C2381 1.495 . S
C2385 H2391 0.959 . S
C2385 H2392 0.961 . S
C2385 H2393 0.960 . S
C2386 C2384 1.381 . S
C2386 C2387 1.394 . S
C2386 H2394 0.930 . S
C2387 C2386 1.394 . S
C2387 C2388 1.383 . S
C2387 H2395 0.929 . S
C2388 C2387 1.383 . S
C2388 C2389 1.377 . S
C2389 H2373 0.930 . S
C2389 C2388 1.377 . S
C2389 C2390 1.379 . S
C2390 H2374 0.931 . S
C2390 C2384 1.383 . S
C2390 C2389 1.379 . S
H2391 C2385 0.959 . S
H2392 C2385 0.961 . S
H2393 C2385 0.960 . S
H2394 C2386 0.930 . S
H2395 C2387 0.929 . S
H2396 C2404 0.929 . S
H2397 C2406 0.930 . S
H2398 C2408 0.930 . S
H2399 C2411 0.929 . S
H2400 C2414 0.930 . S
H2401 C2416 0.960 . S
H2402 C2416 0.960 . S
H2403 C2416 0.960 . S
C2404 H2396 0.929 . S
C2404 C2405 1.377 . S
C2404 C2406 1.384 . S
C2405 C2404 1.377 . S
C2405 C2411 1.390 . S
C2406 H2397 0.930 . S
C2406 C2404 1.384 . S
C2406 C2407 1.372 . S
C2407 C2406 1.372 . S
C2407 C2408 1.400 . S
C2407 C2412 1.490 . S
C2408 H2398 0.930 . S
C2408 C2407 1.400 . S
C2408 C2411 1.386 . S
H2409 C2425 0.930 . S
H2410 C2426 0.931 . S
C2411 H2399 0.929 . S
C2411 C2405 1.390 . S
C2411 C2408 1.386 . S
C2412 C2407 1.490 . S
C2412 C2414 1.395 . S
C2412 C2415 1.403 . S
H2413 C2419 0.930 . S
C2414 H2400 0.930 . S
C2414 C2412 1.395 . S
C2414 C2417 1.403 . S
C2415 C2412 1.403 . S
C2415 C2416 1.524 . S
C2415 C2419 1.400 . S
C2416 H2401 0.960 . S
C2416 H2402 0.960 . S
C2416 H2403 0.960 . S
C2416 C2415 1.524 . S
C2417 C2414 1.403 . S
C2417 C2418 1.392 . S
C2417 C2421 1.495 . S
C2418 C2417 1.392 . S
C2418 C2419 1.385 . S
C2418 C2420 1.478 . S
C2419 H2413 0.930 . S
C2419 C2415 1.400 . S
C2419 C2418 1.385 . S
C2420 C2418 1.478 . S
C2420 C2422 1.381 . S
C2420 C2426 1.383 . S
C2421 C2417 1.495 . S
C2421 H2427 0.959 . S
C2421 H2428 0.961 . S
C2421 H2429 0.960 . S
C2422 C2420 1.381 . S
C2422 C2423 1.394 1_545 S
C2422 H2430 0.930 . S
C2423 C2422 1.394 1_565 S
C2423 C2424 1.383 . S
C2423 H2431 0.929 . S
C2424 C2423 1.383 . S
C2424 C2425 1.377 . S
C2425 H2409 0.930 . S
C2425 C2424 1.377 . S
C2425 C2426 1.379 1_565 S
C2426 H2410 0.931 . S
C2426 C2420 1.383 . S
C2426 C2425 1.379 1_545 S
H2427 C2421 0.959 . S
H2428 C2421 0.961 . S
H2429 C2421 0.960 . S
H2430 C2422 0.930 . S
H2431 C2423 0.929 . S
H2432 C2440 0.929 . S
H2433 C2442 0.930 . S
H2434 C2444 0.930 . S
H2435 C2447 0.929 . S
H2436 C2450 0.930 . S
H2437 C2452 0.960 . S
H2438 C2452 0.960 . S
H2439 C2452 0.960 . S
C2440 H2432 0.929 . S
C2440 C2441 1.377 . S
C2440 C2442 1.384 . S
C2441 C2440 1.377 . S
C2441 C2447 1.390 . S
C2442 H2433 0.930 . S
C2442 C2440 1.384 . S
C2442 C2443 1.372 . S
C2443 C2442 1.372 . S
C2443 C2444 1.400 . S
C2443 C2448 1.490 . S
C2444 H2434 0.930 . S
C2444 C2443 1.400 . S
C2444 C2447 1.386 . S
H2445 C2461 0.930 . S
H2446 C2462 0.931 . S
C2447 H2435 0.929 . S
C2447 C2441 1.390 . S
C2447 C2444 1.386 . S
C2448 C2443 1.490 . S
C2448 C2450 1.395 . S
C2448 C2451 1.403 . S
H2449 C2455 0.930 . S
C2450 H2436 0.930 . S
C2450 C2448 1.395 . S
C2450 C2453 1.403 . S
C2451 C2448 1.403 . S
C2451 C2452 1.524 . S
C2451 C2455 1.400 . S
C2452 H2437 0.960 . S
C2452 H2438 0.960 . S
C2452 H2439 0.960 . S
C2452 C2451 1.524 . S
C2453 C2450 1.403 . S
C2453 C2454 1.392 . S
C2453 C2457 1.495 . S
C2454 C2453 1.392 . S
C2454 C2455 1.385 . S
C2454 C2456 1.478 . S
C2455 H2449 0.930 . S
C2455 C2451 1.400 . S
C2455 C2454 1.385 . S
C2456 C2454 1.478 . S
C2456 C2458 1.381 . S
C2456 C2462 1.383 . S
C2457 C2453 1.495 . S
C2457 H2463 0.959 . S
C2457 H2464 0.961 . S
C2457 H2465 0.960 . S
C2458 C2456 1.381 . S
C2458 C2459 1.394 . S
C2458 H2466 0.930 . S
C2459 C2458 1.394 . S
C2459 C2460 1.383 1_565 S
C2459 H2467 0.929 1_565 S
C2460 C2459 1.383 1_545 S
C2460 C2461 1.377 . S
C2461 H2445 0.930 . S
C2461 C2460 1.377 . S
C2461 C2462 1.379 1_545 S
C2462 H2446 0.931 . S
C2462 C2456 1.383 . S
C2462 C2461 1.379 1_565 S
H2463 C2457 0.959 . S
H2464 C2457 0.961 . S
H2465 C2457 0.960 . S
H2466 C2458 0.930 . S
H2467 C2459 0.929 1_545 S
H2468 C2476 0.929 . S
H2469 C2478 0.930 . S
H2470 C2480 0.930 . S
H2471 C2483 0.929 . S
H2472 C2486 0.930 . S
H2473 C2488 0.960 . S
H2474 C2488 0.960 . S
H2475 C2488 0.960 . S
C2476 H2468 0.929 . S
C2476 C2477 1.377 . S
C2476 C2478 1.384 . S
C2477 C2476 1.377 . S
C2477 C2483 1.390 . S
C2478 H2469 0.930 . S
C2478 C2476 1.384 . S
C2478 C2479 1.372 . S
C2479 C2478 1.372 . S
C2479 C2480 1.400 . S
C2479 C2484 1.490 . S
C2480 H2470 0.930 . S
C2480 C2479 1.400 . S
C2480 C2483 1.386 . S
H2481 C2497 0.930 . S
H2482 C2498 0.931 . S
C2483 H2471 0.929 . S
C2483 C2477 1.390 . S
C2483 C2480 1.386 . S
C2484 C2479 1.490 . S
C2484 C2486 1.395 . S
C2484 C2487 1.403 . S
H2485 C2491 0.930 . S
C2486 H2472 0.930 . S
C2486 C2484 1.395 . S
C2486 C2489 1.403 . S
C2487 C2484 1.403 . S
C2487 C2488 1.524 . S
C2487 C2491 1.400 . S
C2488 H2473 0.960 . S
C2488 H2474 0.960 . S
C2488 H2475 0.960 . S
C2488 C2487 1.524 . S
C2489 C2486 1.403 . S
C2489 C2490 1.392 . S
C2489 C2493 1.495 . S
C2490 C2489 1.392 . S
C2490 C2491 1.385 . S
C2490 C2492 1.478 . S
C2491 H2485 0.930 . S
C2491 C2487 1.400 . S
C2491 C2490 1.385 . S
C2492 C2490 1.478 . S
C2492 C2494 1.381 . S
C2492 C2498 1.383 . S
C2493 C2489 1.495 . S
C2493 H2499 0.959 . S
C2493 H2500 0.961 . S
C2493 H2501 0.960 . S
C2494 C2492 1.381 . S
C2494 C2495 1.394 . S
C2494 H2502 0.930 . S
C2495 C2494 1.394 . S
C2495 C2496 1.383 . S
C2495 H2503 0.929 . S
C2496 C2495 1.383 . S
C2496 C2497 1.377 . S
C2497 H2481 0.930 . S
C2497 C2496 1.377 . S
C2497 C2498 1.379 . S
C2498 H2482 0.931 . S
C2498 C2492 1.383 . S
C2498 C2497 1.379 . S
H2499 C2493 0.959 . S
H2500 C2493 0.961 . S
H2501 C2493 0.960 . S
H2502 C2494 0.930 . S
H2503 C2495 0.929 . S
H2504 C2512 0.929 . S
H2505 C2514 0.930 . S
H2506 C2516 0.930 . S
H2507 C2519 0.929 . S
H2508 C2522 0.930 . S
H2509 C2524 0.960 . S
H2510 C2524 0.960 . S
H2511 C2524 0.960 . S
C2512 H2504 0.929 . S
C2512 C2513 1.377 . S
C2512 C2514 1.384 . S
C2513 C2512 1.377 . S
C2513 C2519 1.390 . S
C2514 H2505 0.930 . S
C2514 C2512 1.384 . S
C2514 C2515 1.372 . S
C2515 C2514 1.372 . S
C2515 C2516 1.400 . S
C2515 C2520 1.490 . S
C2516 H2506 0.930 . S
C2516 C2515 1.400 . S
C2516 C2519 1.386 . S
H2517 C2533 0.930 . S
H2518 C2534 0.931 . S
C2519 H2507 0.929 . S
C2519 C2513 1.390 . S
C2519 C2516 1.386 . S
C2520 C2515 1.490 . S
C2520 C2522 1.395 . S
C2520 C2523 1.403 . S
H2521 C2527 0.930 . S
C2522 H2508 0.930 . S
C2522 C2520 1.395 . S
C2522 C2525 1.403 . S
C2523 C2520 1.403 . S
C2523 C2524 1.524 . S
C2523 C2527 1.400 . S
C2524 H2509 0.960 . S
C2524 H2510 0.960 . S
C2524 H2511 0.960 . S
C2524 C2523 1.524 . S
C2525 C2522 1.403 . S
C2525 C2526 1.392 . S
C2525 C2529 1.495 . S
C2526 C2525 1.392 . S
C2526 C2527 1.385 . S
C2526 C2528 1.478 . S
C2527 H2521 0.930 . S
C2527 C2523 1.400 . S
C2527 C2526 1.385 . S
C2528 C2526 1.478 . S
C2528 C2530 1.381 . S
C2528 C2534 1.383 . S
C2529 C2525 1.495 . S
C2529 H2535 0.959 . S
C2529 H2536 0.961 . S
C2529 H2537 0.960 . S
C2530 C2528 1.381 . S
C2530 C2531 1.394 . S
C2530 H2538 0.930 . S
C2531 C2530 1.394 . S
C2531 C2532 1.383 . S
C2531 H2539 0.929 . S
C2532 C2531 1.383 . S
C2532 C2533 1.377 . S
C2533 H2517 0.930 . S
C2533 C2532 1.377 . S
C2533 C2534 1.379 . S
C2534 H2518 0.931 . S
C2534 C2528 1.383 . S
C2534 C2533 1.379 . S
H2535 C2529 0.959 . S
H2536 C2529 0.961 . S
H2537 C2529 0.960 . S
H2538 C2530 0.930 . S
H2539 C2531 0.929 . S
H2540 C2548 0.929 . S
H2541 C2550 0.930 . S
H2542 C2552 0.930 . S
H2543 C2555 0.929 1_545 S
H2544 C2558 0.930 . S
H2545 C2560 0.960 . S
H2546 C2560 0.960 . S
H2547 C2560 0.960 . S
C2548 H2540 0.929 . S
C2548 C2549 1.377 . S
C2548 C2550 1.384 1_545 S
C2549 C2548 1.377 . S
C2549 C2555 1.390 1_545 S
C2550 H2541 0.930 . S
C2550 C2548 1.384 1_565 S
C2550 C2551 1.372 . S
C2551 C2550 1.372 . S
C2551 C2552 1.400 . S
C2551 C2556 1.490 . S
C2552 H2542 0.930 . S
C2552 C2551 1.400 . S
C2552 C2555 1.386 . S
H2553 C2569 0.930 . S
H2554 C2570 0.931 . S
C2555 H2543 0.929 1_565 S
C2555 C2549 1.390 1_565 S
C2555 C2552 1.386 . S
C2556 C2551 1.490 . S
C2556 C2558 1.395 . S
C2556 C2559 1.403 . S
H2557 C2563 0.930 . S
C2558 H2544 0.930 . S
C2558 C2556 1.395 . S
C2558 C2561 1.403 . S
C2559 C2556 1.403 . S
C2559 C2560 1.524 . S
C2559 C2563 1.400 . S
C2560 H2545 0.960 . S
C2560 H2546 0.960 . S
C2560 H2547 0.960 . S
C2560 C2559 1.524 . S
C2561 C2558 1.403 . S
C2561 C2562 1.392 . S
C2561 C2565 1.495 . S
C2562 C2561 1.392 . S
C2562 C2563 1.385 . S
C2562 C2564 1.478 . S
C2563 H2557 0.930 . S
C2563 C2559 1.400 . S
C2563 C2562 1.385 . S
C2564 C2562 1.478 . S
C2564 C2566 1.381 . S
C2564 C2570 1.383 . S
C2565 C2561 1.495 . S
C2565 H2571 0.959 . S
C2565 H2572 0.961 . S
C2565 H2573 0.960 . S
C2566 C2564 1.381 . S
C2566 C2567 1.394 . S
C2566 H2574 0.930 . S
C2567 C2566 1.394 . S
C2567 C2568 1.383 . S
C2567 H2575 0.929 . S
C2568 C2567 1.383 . S
C2568 C2569 1.377 . S
C2569 H2553 0.930 . S
C2569 C2568 1.377 . S
C2569 C2570 1.379 . S
C2570 H2554 0.931 . S
C2570 C2564 1.383 . S
C2570 C2569 1.379 . S
H2571 C2565 0.959 . S
H2572 C2565 0.961 . S
H2573 C2565 0.960 . S
H2574 C2566 0.930 . S
H2575 C2567 0.929 . S
H2576 C2584 0.929 . S
H2577 C2586 0.930 . S
H2578 C2588 0.930 . S
H2579 C2591 0.929 . S
H2580 C2594 0.930 . S
H2581 C2596 0.960 . S
H2582 C2596 0.960 . S
H2583 C2596 0.960 . S
C2584 H2576 0.929 . S
C2584 C2585 1.377 . S
C2584 C2586 1.384 . S
C2585 C2584 1.377 . S
C2585 C2591 1.390 . S
C2586 H2577 0.930 . S
C2586 C2584 1.384 . S
C2586 C2587 1.372 . S
C2587 C2586 1.372 . S
C2587 C2588 1.400 . S
C2587 C2592 1.490 . S
C2588 H2578 0.930 . S
C2588 C2587 1.400 . S
C2588 C2591 1.386 . S
H2589 C2605 0.929 1_565 S
H2590 C2606 0.931 . S
C2591 H2579 0.929 . S
C2591 C2585 1.390 . S
C2591 C2588 1.386 . S
C2592 C2587 1.490 . S
C2592 C2594 1.395 . S
C2592 C2595 1.403 . S
H2593 C2599 0.930 . S
C2594 H2580 0.930 . S
C2594 C2592 1.395 . S
C2594 C2597 1.403 . S
C2595 C2592 1.403 . S
C2595 C2596 1.524 . S
C2595 C2599 1.400 . S
C2596 H2581 0.960 . S
C2596 H2582 0.960 . S
C2596 H2583 0.960 . S
C2596 C2595 1.524 . S
C2597 C2594 1.403 . S
C2597 C2598 1.392 . S
C2597 C2601 1.495 . S
C2598 C2597 1.392 . S
C2598 C2599 1.385 . S
C2598 C2600 1.478 . S
C2599 H2593 0.930 . S
C2599 C2595 1.400 . S
C2599 C2598 1.385 . S
C2600 C2598 1.478 . S
C2600 C2602 1.381 . S
C2600 C2606 1.383 . S
C2601 C2597 1.495 . S
C2601 H2607 0.959 . S
C2601 H2608 0.961 . S
C2601 H2609 0.960 . S
C2602 C2600 1.381 . S
C2602 C2603 1.394 1_545 S
C2602 H2610 0.930 . S
C2603 C2602 1.394 1_565 S
C2603 C2604 1.383 . S
C2603 H2611 0.929 . S
C2604 C2603 1.383 . S
C2604 C2605 1.377 1_565 S
C2605 H2589 0.929 1_545 S
C2605 C2604 1.377 1_545 S
C2605 C2606 1.379 . S
C2606 H2590 0.931 . S
C2606 C2600 1.383 . S
C2606 C2605 1.379 . S
H2607 C2601 0.959 . S
H2608 C2601 0.961 . S
H2609 C2601 0.960 . S
H2610 C2602 0.930 . S
H2611 C2603 0.929 . S
H2612 C2620 0.929 . S
H2613 C2622 0.930 . S
H2614 C2624 0.930 . S
H2615 C2627 0.929 . S
H2616 C2630 0.930 . S
H2617 C2632 0.960 . S
H2618 C2632 0.960 . S
H2619 C2632 0.960 . S
C2620 H2612 0.929 . S
C2620 C2621 1.377 . S
C2620 C2622 1.384 . S
C2621 C2620 1.377 . S
C2621 C2627 1.390 . S
C2622 H2613 0.930 . S
C2622 C2620 1.384 . S
C2622 C2623 1.372 . S
C2623 C2622 1.372 . S
C2623 C2624 1.400 . S
C2623 C2628 1.490 . S
C2624 H2614 0.930 . S
C2624 C2623 1.400 . S
C2624 C2627 1.386 . S
H2625 C2641 0.930 . S
H2626 C2642 0.931 . S
C2627 H2615 0.929 . S
C2627 C2621 1.390 . S
C2627 C2624 1.386 . S
C2628 C2623 1.490 . S
C2628 C2630 1.395 . S
C2628 C2631 1.403 . S
H2629 C2635 0.930 . S
C2630 H2616 0.930 . S
C2630 C2628 1.395 . S
C2630 C2633 1.403 . S
C2631 C2628 1.403 . S
C2631 C2632 1.524 . S
C2631 C2635 1.400 . S
C2632 H2617 0.960 . S
C2632 H2618 0.960 . S
C2632 H2619 0.960 . S
C2632 C2631 1.524 . S
C2633 C2630 1.403 . S
C2633 C2634 1.392 . S
C2633 C2637 1.495 . S
C2634 C2633 1.392 . S
C2634 C2635 1.385 . S
C2634 C2636 1.478 . S
C2635 H2629 0.930 . S
C2635 C2631 1.400 . S
C2635 C2634 1.385 . S
C2636 C2634 1.478 . S
C2636 C2638 1.381 . S
C2636 C2642 1.383 . S
C2637 C2633 1.495 . S
C2637 H2643 0.959 . S
C2637 H2644 0.961 . S
C2637 H2645 0.960 . S
C2638 C2636 1.381 . S
C2638 C2639 1.394 . S
C2638 H2646 0.930 . S
C2639 C2638 1.394 . S
C2639 C2640 1.383 . S
C2639 H2647 0.929 . S
C2640 C2639 1.383 . S
C2640 C2641 1.377 . S
C2641 H2625 0.930 . S
C2641 C2640 1.377 . S
C2641 C2642 1.379 . S
C2642 H2626 0.931 . S
C2642 C2636 1.383 . S
C2642 C2641 1.379 . S
H2643 C2637 0.959 . S
H2644 C2637 0.961 . S
H2645 C2637 0.960 . S
H2646 C2638 0.930 . S
H2647 C2639 0.929 . S
H2648 C2656 0.929 . S
H2649 C2658 0.930 . S
H2650 C2660 0.930 . S
H2651 C2663 0.929 . S
H2652 C2666 0.930 . S
H2653 C2668 0.960 . S
H2654 C2668 0.960 . S
H2655 C2668 0.960 . S
C2656 H2648 0.929 . S
C2656 C2657 1.377 . S
C2656 C2658 1.384 . S
C2657 C2656 1.377 . S
C2657 C2663 1.390 . S
C2658 H2649 0.930 . S
C2658 C2656 1.384 . S
C2658 C2659 1.372 . S
C2659 C2658 1.372 . S
C2659 C2660 1.400 . S
C2659 C2664 1.490 . S
C2660 H2650 0.930 . S
C2660 C2659 1.400 . S
C2660 C2663 1.386 . S
H2661 C2677 0.930 . S
H2662 C2678 0.931 . S
C2663 H2651 0.929 . S
C2663 C2657 1.390 . S
C2663 C2660 1.386 . S
C2664 C2659 1.490 . S
C2664 C2666 1.395 . S
C2664 C2667 1.403 . S
H2665 C2671 0.930 . S
C2666 H2652 0.930 . S
C2666 C2664 1.395 . S
C2666 C2669 1.403 . S
C2667 C2664 1.403 . S
C2667 C2668 1.524 . S
C2667 C2671 1.400 . S
C2668 H2653 0.960 . S
C2668 H2654 0.960 . S
C2668 H2655 0.960 . S
C2668 C2667 1.524 . S
C2669 C2666 1.403 . S
C2669 C2670 1.392 . S
C2669 C2673 1.495 . S
C2670 C2669 1.392 . S
C2670 C2671 1.385 . S
C2670 C2672 1.478 . S
C2671 H2665 0.930 . S
C2671 C2667 1.400 . S
C2671 C2670 1.385 . S
C2672 C2670 1.478 . S
C2672 C2674 1.381 . S
C2672 C2678 1.383 . S
C2673 C2669 1.495 . S
C2673 H2679 0.959 . S
C2673 H2680 0.961 . S
C2673 H2681 0.960 . S
C2674 C2672 1.381 . S
C2674 C2675 1.394 . S
C2674 H2682 0.930 . S
C2675 C2674 1.394 . S
C2675 C2676 1.383 . S
C2675 H2683 0.929 . S
C2676 C2675 1.383 . S
C2676 C2677 1.377 . S
C2677 H2661 0.930 . S
C2677 C2676 1.377 . S
C2677 C2678 1.379 . S
C2678 H2662 0.931 . S
C2678 C2672 1.383 . S
C2678 C2677 1.379 . S
H2679 C2673 0.959 . S
H2680 C2673 0.961 . S
H2681 C2673 0.960 . S
H2682 C2674 0.930 . S
H2683 C2675 0.929 . S
H2684 C2692 0.929 1_565 S
H2685 C2694 0.930 . S
H2686 C2696 0.930 . S
H2687 C2699 0.929 . S
H2688 C2702 0.930 . S
H2689 C2704 0.960 . S
H2690 C2704 0.960 . S
H2691 C2704 0.960 . S
C2692 H2684 0.929 1_545 S
C2692 C2693 1.377 1_545 S
C2692 C2694 1.384 . S
C2693 C2692 1.377 1_565 S
C2693 C2699 1.390 . S
C2694 H2685 0.930 . S
C2694 C2692 1.384 . S
C2694 C2695 1.372 . S
C2695 C2694 1.372 . S
C2695 C2696 1.400 . S
C2695 C2700 1.490 . S
C2696 H2686 0.930 . S
C2696 C2695 1.400 . S
C2696 C2699 1.386 1_545 S
H2697 C2713 0.930 . S
H2698 C2714 0.931 . S
C2699 H2687 0.929 . S
C2699 C2693 1.390 . S
C2699 C2696 1.386 1_565 S
C2700 C2695 1.490 . S
C2700 C2702 1.395 . S
C2700 C2703 1.403 . S
H2701 C2707 0.930 . S
C2702 H2688 0.930 . S
C2702 C2700 1.395 . S
C2702 C2705 1.403 . S
C2703 C2700 1.403 . S
C2703 C2704 1.524 . S
C2703 C2707 1.400 . S
C2704 H2689 0.960 . S
C2704 H2690 0.960 . S
C2704 H2691 0.960 . S
C2704 C2703 1.524 . S
C2705 C2702 1.403 . S
C2705 C2706 1.392 . S
C2705 C2709 1.495 . S
C2706 C2705 1.392 . S
C2706 C2707 1.385 . S
C2706 C2708 1.478 . S
C2707 H2701 0.930 . S
C2707 C2703 1.400 . S
C2707 C2706 1.385 . S
C2708 C2706 1.478 . S
C2708 C2710 1.381 . S
C2708 C2714 1.383 . S
C2709 C2705 1.495 . S
C2709 H2715 0.959 . S
C2709 H2716 0.961 . S
C2709 H2717 0.960 . S
C2710 C2708 1.381 . S
C2710 C2711 1.394 . S
C2710 H2718 0.930 . S
C2711 C2710 1.394 . S
C2711 C2712 1.383 . S
C2711 H2719 0.929 . S
C2712 C2711 1.383 . S
C2712 C2713 1.377 . S
C2713 H2697 0.930 . S
C2713 C2712 1.377 . S
C2713 C2714 1.379 . S
C2714 H2698 0.931 . S
C2714 C2708 1.383 . S
C2714 C2713 1.379 . S
H2715 C2709 0.959 . S
H2716 C2709 0.961 . S
H2717 C2709 0.960 . S
H2718 C2710 0.930 . S
H2719 C2711 0.929 . S
C425 C5 1.442 . S
C444 C16 1.446 . S
C461 C42 1.442 . S
C480 C31 1.446 . S
C497 C57 1.439 . S
C516 C68 1.445 . S
C533 C83 1.441 . S
C552 C94 1.426 . S
C569 C109 1.437 . S
C588 C122 1.424 . S
C605 C133 1.437 . S
C624 C146 1.431 . S
C641 C159 1.441 . S
C660 C172 1.427 . S
C677 C185 1.442 . S
C696 C198 1.426 . S
C713 C226 1.441 . S
C732 C211 1.437 . S
C749 C250 1.440 . S
C768 C239 1.430 . S
C785 C276 1.438 . S
C804 C263 1.448 . S
C821 C304 1.438 . S
C840 C289 1.448 . S
C857 C330 1.437 . S
C876 C315 1.425 . S
C893 C356 1.442 . S
C912 C341 1.448 . S
C929 C382 1.438 . S
C948 C367 1.447 . S
C965 C406 1.437 . S
C984 C393 1.445 . S
C1001 C4 1.378 . S
C1020 C166 1.358 . S
C1037 C23 1.381 . S
C1056 C283 1.367 . S
C1073 C30 1.381 . S
C1092 C82 1.370 . S
C1109 C49 1.382 . S
C1128 C413 1.389 . S
C1145 C56 1.375 . S
C1164 C108 1.374 . S
C1181 C225 1.376 . S
C1200 C75 1.383 . S
C1217 C355 1.376 . S
C1236 C101 1.382 . S
C1253 C121 1.380 . S
C1272 C381 1.363 . S
C1289 C140 1.381 . S
C1308 C192 1.394 . S
C1325 C153 1.381 . S
C1344 C303 1.393 . S
C1361 C179 1.380 . S
C1380 C329 1.394 . S
C1397 C205 1.382 . S
C1416 C257 1.385 . S
C1433 C374 1.380 . S
C1452 C218 1.394 . S
C1469 C296 1.379 . S
C1488 C238 1.394 . S
C1505 C270 1.381 . S
C1524 C322 1.373 . S
C1541 C400 1.381 . S
C1560 C348 1.367 . S
C1577 C134 0.618 . S
C1596 C10 0.633 . S
C1613 C147 0.619 . S
C1632 C17 0.633 . S
C1649 C36 0.617 . S
C1668 C114 0.625 . S
C1685 C127 0.617 . S
C1704 C43 0.623 . S
C1721 C62 0.620 . S
C1740 C186 0.620 . S
C1757 C69 0.620 . S
C1776 C199 0.622 . S
C1793 C160 0.618 . S
C1812 C88 0.615 . S
C1829 C173 0.619 . S
C1848 C95 0.617 . S
C1865 C212 0.618 . S
C1884 C342 0.618 . S
C1901 C361 0.619 . S
C1920 C231 0.633 . S
C1937 C316 0.619 . S
C1956 C244 0.613 . S
C1973 C251 0.620 . S
C1992 C335 0.631 . S
C2009 C394 0.619 . S
C2028 C264 0.618 . S
C2045 C277 0.622 . S
C2064 C407 0.632 . S
C2081 C368 0.618 . S
C2100 C290 0.613 . S
C2117 C387 0.617 . S
C2136 C309 0.609 . S
C2153 C135 1.808 . S
C2172 C3 1.802 . S
C2189 C148 1.809 . S
C2208 C18 1.799 . S
C2225 C107 1.807 . S
C2244 C29 1.807 . S
C2261 C44 1.808 . S
C2280 C120 1.808 . S
C2297 C187 1.808 . S
C2316 C55 1.800 . S
C2333 C200 1.808 . S
C2352 C70 1.799 . S
C2369 C161 1.807 . S
C2388 C81 1.801 . S
C2405 C174 1.807 . S
C2424 C96 1.802 . S
C2441 C343 1.807 . S
C2460 C213 1.808 . S
C2477 C354 1.808 . S
C2496 C224 1.801 . S
C2513 C317 1.808 . S
C2532 C237 1.804 . S
C2549 C252 1.808 . S
C2568 C328 1.807 . S
C2585 C395 1.807 . S
C2604 C265 1.805 . S
C2621 C278 1.808 . S
C2640 C408 1.799 . S
C2657 C369 1.809 . S
C2676 C291 1.809 . S
C2693 C302 1.807 . S
C2712 C380 1.804 . S
