# Generated by pormake.
# Topology wla, (5)-cn, num edge types: 1
# Building blocks:
#     Node 0, Type 0, BuildingBlock: XOMCOT_clean_sbu_1, # of connection points: 5
#     Node 1, Type 0, BuildingBlock: XOMCOT_clean_sbu_1, # of connection points: 5
#     Node 2, Type 0, BuildingBlock: XOMCOT_clean_sbu_1, # of connection points: 5
#     Node 3, Type 0, BuildingBlock: XOMCOT_clean_sbu_1, # of connection points: 5
#     Node 4, Type 0, BuildingBlock: XOMCOT_clean_sbu_1, # of connection points: 5
#     Node 5, Type 0, BuildingBlock: XOMCOT_clean_sbu_1, # of connection points: 5
#     Node 6, Type 0, BuildingBlock: XOMCOT_clean_sbu_1, # of connection points: 5
#     Node 7, Type 0, BuildingBlock: XOMCOT_clean_sbu_1, # of connection points: 5
#     Node 8, Type 0, BuildingBlock: XOMCOT_clean_sbu_1, # of connection points: 5
#     Node 9, Type 0, BuildingBlock: XOMCOT_clean_sbu_1, # of connection points: 5
#     Node 10, Type 0, BuildingBlock: XOMCOT_clean_sbu_1, # of connection points: 5
#     Node 11, Type 0, BuildingBlock: XOMCOT_clean_sbu_1, # of connection points: 5
#     Node 12, Type 0, BuildingBlock: XOMCOT_clean_sbu_1, # of connection points: 5
#     Node 13, Type 0, BuildingBlock: XOMCOT_clean_sbu_1, # of connection points: 5
#     Node 14, Type 0, BuildingBlock: XOMCOT_clean_sbu_1, # of connection points: 5
#     Node 15, Type 0, BuildingBlock: XOMCOT_clean_sbu_1, # of connection points: 5
#     Node 16, Type 0, BuildingBlock: XOMCOT_clean_sbu_1, # of connection points: 5
#     Node 17, Type 0, BuildingBlock: XOMCOT_clean_sbu_1, # of connection points: 5
#     Edge 18, Type (0, 0), BuildingBlock: AJUNOK_clean_linker_0, # of connection points: 2
#     Edge 19, Type (0, 0), BuildingBlock: AJUNOK_clean_linker_0, # of connection points: 2
#     Edge 20, Type (0, 0), BuildingBlock: AJUNOK_clean_linker_0, # of connection points: 2
#     Edge 21, Type (0, 0), BuildingBlock: AJUNOK_clean_linker_0, # of connection points: 2
#     Edge 22, Type (0, 0), BuildingBlock: AJUNOK_clean_linker_0, # of connection points: 2
#     Edge 23, Type (0, 0), BuildingBlock: AJUNOK_clean_linker_0, # of connection points: 2
#     Edge 24, Type (0, 0), BuildingBlock: AJUNOK_clean_linker_0, # of connection points: 2
#     Edge 25, Type (0, 0), BuildingBlock: AJUNOK_clean_linker_0, # of connection points: 2
#     Edge 26, Type (0, 0), BuildingBlock: AJUNOK_clean_linker_0, # of connection points: 2
#     Edge 27, Type (0, 0), BuildingBlock: AJUNOK_clean_linker_0, # of connection points: 2
#     Edge 28, Type (0, 0), BuildingBlock: AJUNOK_clean_linker_0, # of connection points: 2
#     Edge 29, Type (0, 0), BuildingBlock: AJUNOK_clean_linker_0, # of connection points: 2
#     Edge 30, Type (0, 0), BuildingBlock: AJUNOK_clean_linker_0, # of connection points: 2
#     Edge 31, Type (0, 0), BuildingBlock: AJUNOK_clean_linker_0, # of connection points: 2
#     Edge 32, Type (0, 0), BuildingBlock: AJUNOK_clean_linker_0, # of connection points: 2
#     Edge 33, Type (0, 0), BuildingBlock: AJUNOK_clean_linker_0, # of connection points: 2
#     Edge 34, Type (0, 0), BuildingBlock: AJUNOK_clean_linker_0, # of connection points: 2
#     Edge 35, Type (0, 0), BuildingBlock: AJUNOK_clean_linker_0, # of connection points: 2
#     Edge 36, Type (0, 0), BuildingBlock: AJUNOK_clean_linker_0, # of connection points: 2
#     Edge 37, Type (0, 0), BuildingBlock: AJUNOK_clean_linker_0, # of connection points: 2
#     Edge 38, Type (0, 0), BuildingBlock: AJUNOK_clean_linker_0, # of connection points: 2
#     Edge 39, Type (0, 0), BuildingBlock: AJUNOK_clean_linker_0, # of connection points: 2
#     Edge 40, Type (0, 0), BuildingBlock: AJUNOK_clean_linker_0, # of connection points: 2
#     Edge 41, Type (0, 0), BuildingBlock: AJUNOK_clean_linker_0, # of connection points: 2
#     Edge 42, Type (0, 0), BuildingBlock: AJUNOK_clean_linker_0, # of connection points: 2
#     Edge 43, Type (0, 0), BuildingBlock: AJUNOK_clean_linker_0, # of connection points: 2
#     Edge 44, Type (0, 0), BuildingBlock: AJUNOK_clean_linker_0, # of connection points: 2
#     Edge 45, Type (0, 0), BuildingBlock: AJUNOK_clean_linker_0, # of connection points: 2
#     Edge 46, Type (0, 0), BuildingBlock: AJUNOK_clean_linker_0, # of connection points: 2
#     Edge 47, Type (0, 0), BuildingBlock: AJUNOK_clean_linker_0, # of connection points: 2
#     Edge 48, Type (0, 0), BuildingBlock: AJUNOK_clean_linker_0, # of connection points: 2
#     Edge 49, Type (0, 0), BuildingBlock: AJUNOK_clean_linker_0, # of connection points: 2
#     Edge 50, Type (0, 0), BuildingBlock: AJUNOK_clean_linker_0, # of connection points: 2
#     Edge 51, Type (0, 0), BuildingBlock: AJUNOK_clean_linker_0, # of connection points: 2
#     Edge 52, Type (0, 0), BuildingBlock: AJUNOK_clean_linker_0, # of connection points: 2
#     Edge 53, Type (0, 0), BuildingBlock: AJUNOK_clean_linker_0, # of connection points: 2
#     Edge 54, Type (0, 0), BuildingBlock: AJUNOK_clean_linker_0, # of connection points: 2
#     Edge 55, Type (0, 0), BuildingBlock: AJUNOK_clean_linker_0, # of connection points: 2
#     Edge 56, Type (0, 0), BuildingBlock: AJUNOK_clean_linker_0, # of connection points: 2
#     Edge 57, Type (0, 0), BuildingBlock: AJUNOK_clean_linker_0, # of connection points: 2
#     Edge 58, Type (0, 0), BuildingBlock: AJUNOK_clean_linker_0, # of connection points: 2
#     Edge 59, Type (0, 0), BuildingBlock: AJUNOK_clean_linker_0, # of connection points: 2
#     Edge 60, Type (0, 0), BuildingBlock: AJUNOK_clean_linker_0, # of connection points: 2
#     Edge 61, Type (0, 0), BuildingBlock: AJUNOK_clean_linker_0, # of connection points: 2
#     Edge 62, Type (0, 0), BuildingBlock: AJUNOK_clean_linker_0, # of connection points: 2
# Relax obj value: 0.395
# Max RMSD: 0.238
# Mean RMSD: 0.238
data_MOF--net-wla--node1-XOMCOT_clean_sbu_1--edge1-AJUNOK_clean_linker_0
_symmetry_space_group_name_H-M    P1
_symmetry_Int_Tables_number       1
_symmetry_cell_setting            triclinic
loop_
_symmetry_equiv_pos_as_xyz
'x, y, z'
_cell_length_a     48.299196
_cell_length_b     48.339074
_cell_length_c     20.488997
_cell_angle_alpha  90.163656
_cell_angle_beta   89.932982
_cell_angle_gamma 120.22279
loop_
_atom_site_label
_atom_site_type_symbol
_atom_site_fract_x
_atom_site_fract_y
_atom_site_fract_z
_atom_type_partial_charge
C0 C 0.12384 0.01327 0.20565 0.0
C1 C 0.09448 0.98595 0.20829 0.0
N2 N 0.09284 0.97049 0.26401 0.0
N3 N 0.14074 0.01496 0.25921 0.0
C4 C 0.12125 0.98855 0.2942 0.0
H5 H 0.13221 0.03119 0.16772 0.0
Co6 Co 0.18096 0.04937 0.27343 0.0
C7 C 0.19921 0.0417 0.41007 0.0
O8 O 0.21528 0.07298 0.41427 0.0
N9 N 0.22255 0.08582 0.28486 0.0
C10 C 0.2622 0.13644 0.29662 0.0
C11 C 0.23072 0.11499 0.31001 0.0
C12 C 0.25016 0.09035 0.25816 0.0
N13 N 0.27411 0.12091 0.26314 0.0
O14 O 0.19734 0.02924 0.21345 0.0
H15 H 0.21495 0.12101 0.33576 0.0
H16 H 0.25248 0.0723 0.23157 0.0
O17 O 0.18589 0.0286 0.35515 0.0
C18 C 0.19943 0.04074 0.15583 0.0
O19 O 0.19686 0.06645 0.15051 0.0
N20 N 0.16193 0.06849 0.32014 0.0
C21 C 0.11788 0.08749 0.35001 0.0
C22 C 0.12201 0.06699 0.39203 0.0
C23 C 0.14391 0.05727 0.37561 0.0
C24 C 0.1591 0.08955 0.28066 0.0
C25 C 0.13775 0.09992 0.2954 0.0
H26 H 0.14369 0.0384 0.40389 0.0
H27 H 0.17203 0.09663 0.23493 0.0
H28 H 0.12758 0.98276 0.34072 0.0
H29 H 0.07538 0.97845 0.17288 0.0
H30 H 0.27504 0.16171 0.3085 0.0
H31 H 0.10655 0.05647 0.43398 0.0
H32 H 0.13463 0.11507 0.26085 0.0
C33 C 0.96587 0.09206 0.24571 0.0
C34 C 0.98678 0.08099 0.25438 0.0
N35 N 0.00851 0.09953 0.29958 0.0
N36 N 0.97454 0.11759 0.28491 0.0
C37 C 0.00091 0.12185 0.31657 0.0
H38 H 0.94496 0.08147 0.21455 0.0
Co39 Co 0.95008 0.13686 0.29716 0.0
C40 C -0.01135 0.1855 0.40331 0.0
O41 O -0.00659 0.20986 0.36698 0.0
N42 N 0.92492 0.15546 0.30891 0.0
C43 C 0.89604 0.17559 0.34931 0.0
C44 C 0.91547 0.1633 0.3646 0.0
C45 C 0.91031 0.16231 0.261 0.0
N46 N 0.89277 0.17475 0.28394 0.0
O47 O 0.97901 0.17163 0.23816 0.0
H48 H 0.922 0.16007 0.41324 0.0
H49 H 0.9117 0.1576 0.21005 0.0
O50 O 0.97343 0.15726 0.37922 0.0
C51 C 0.96864 0.16166 0.17992 0.0
O52 O 0.94316 0.1331 0.17362 0.0
N53 N 0.92073 0.10105 0.34383 0.0
C54 C 0.89337 0.03538 0.35196 0.0
C55 C 0.91551 0.05528 0.39935 0.0
C56 C 0.92928 0.08841 0.39409 0.0
C57 C 0.89499 0.08196 0.30563 0.0
C58 C 0.88097 0.04879 0.30855 0.0
H59 H 0.95018 0.10332 0.42324 0.0
H60 H 0.889 0.09231 0.26517 0.0
H61 H 0.01359 0.14006 0.35328 0.0
H62 H 0.98599 0.06083 0.22948 0.0
H63 H 0.88568 0.18489 0.38367 0.0
H64 H 0.92542 0.04571 0.43405 0.0
H65 H 0.86416 0.03449 0.27069 0.0
C66 C 0.91061 0.89448 0.20448 0.0
C67 C 0.91646 0.92528 0.21231 0.0
N68 N 0.89246 0.92419 0.24803 0.0
N69 N 0.88331 0.87428 0.23601 0.0
C70 C 0.87255 0.893 0.26096 0.0
H71 H 0.92606 0.8874 0.18057 0.0
Co72 Co 0.86663 0.83086 0.25054 0.0
C73 C 0.8208 0.81934 0.36617 0.0
O74 O 0.79622 0.79262 0.34473 0.0
N75 N 0.84955 0.78726 0.26536 0.0
C76 C 0.83374 0.74022 0.31245 0.0
C77 C 0.84672 0.77252 0.32303 0.0
C78 C 0.83888 0.76365 0.22052 0.0
N79 N 0.82897 0.73496 0.24792 0.0
O80 O 0.83173 0.8225 0.19107 0.0
H81 H 0.85413 0.78455 0.36972 0.0
H82 H 0.8383 0.7671 0.16862 0.0
O83 O 0.84603 0.83393 0.33106 0.0
C84 C 0.84312 0.82245 0.13423 0.0
O85 O 0.87183 0.82575 0.1314 0.0
N86 N 0.9031 0.83994 0.29945 0.0
C87 C 0.96806 0.86821 0.32771 0.0
C88 C 0.94937 0.87964 0.35683 0.0
C89 C 0.91667 0.8647 0.34299 0.0
C90 C 0.92003 0.82632 0.2768 0.0
C91 C 0.95231 0.83944 0.29229 0.0
H92 H 0.90354 0.8759 0.35997 0.0
H93 H 0.90945 0.80712 0.24138 0.0
H94 H 0.85166 0.88425 0.29185 0.0
H95 H 0.93738 0.9469 0.19533 0.0
H96 H 0.82882 0.72214 0.3489 0.0
H97 H 0.96023 0.90202 0.3835 0.0
H98 H 0.96561 0.82933 0.27002 0.0
C99 C -0.00113 0.11511 0.85877 0.0
C100 C 0.97038 0.0871 0.85009 0.0
N101 N 0.95498 0.09079 0.799 0.0
N102 N 0.00141 0.13632 0.8134 0.0
C103 C 0.97425 0.12096 0.77777 0.0
H104 H 0.0169 0.11969 0.89517 0.0
Co105 Co 0.03668 0.17665 0.80682 0.0
C106 C 0.0342 0.20071 0.67365 0.0
O107 O 0.06553 0.21463 0.67335 0.0
N108 N 0.07322 0.21832 0.80218 0.0
C109 C 0.12248 0.26084 0.79606 0.0
C110 C 0.10423 0.22839 0.78702 0.0
C111 C 0.07348 0.24549 0.81903 0.0
N112 N 0.10308 0.27135 0.81704 0.0
O113 O 0.01612 0.19148 0.86969 0.0
H114 H 0.11366 0.21364 0.77011 0.0
H115 H 0.05245 0.24643 0.83363 0.0
O116 O 0.01857 0.18527 0.72496 0.0
C117 C 0.02866 0.19301 0.92607 0.0
O118 O 0.05379 0.18929 0.9281 0.0
N119 N 0.05661 0.15904 0.7581 0.0
C120 C 0.07888 0.11818 0.72261 0.0
C121 C 0.05749 0.12164 0.68191 0.0
C122 C 0.04639 0.14225 0.70083 0.0
C123 C 0.07708 0.15542 0.79794 0.0
C124 C 0.08935 0.13605 0.78019 0.0
H125 H 0.02757 0.14228 0.67259 0.0
H126 H 0.0828 0.16666 0.84555 0.0
H127 H 0.96859 0.13163 0.73747 0.0
H128 H 0.96196 0.06538 0.87819 0.0
H129 H 0.14819 0.27541 0.79028 0.0
H130 H 0.04792 0.10705 0.63845 0.0
H131 H 0.10473 0.13292 0.81418 0.0
C132 C 0.8804 0.93082 0.79569 0.0
C133 C 0.91179 0.93857 0.80286 0.0
N134 N 0.91337 0.91184 0.79344 0.0
N135 N 0.86243 0.89956 0.77951 0.0
C136 C 0.88303 0.88839 0.78171 0.0
H137 H 0.87141 0.94715 0.80081 0.0
Co138 Co 0.81814 0.87686 0.76428 0.0
C139 C 0.8434 0.85917 0.64062 0.0
O140 O 0.87368 0.87948 0.65261 0.0
N141 N 0.77405 0.85425 0.75152 0.0
C142 C 0.72519 0.82808 0.70856 0.0
C143 C 0.75749 0.84403 0.69504 0.0
C144 C 0.75146 0.84466 0.7983 0.0
N145 N 0.7216 0.82867 0.77365 0.0
O146 O 0.81472 0.8439 0.82424 0.0
H147 H 0.7681 0.84787 0.64701 0.0
H148 H 0.75663 0.84968 0.84965 0.0
O149 O 0.82191 0.85563 0.68223 0.0
C150 C 0.81395 0.8545 0.88154 0.0
O151 O 0.81483 0.88209 0.8854 0.0
N152 N 0.8212 0.91138 0.71537 0.0
C153 C 0.84659 0.97693 0.70317 0.0
C154 C 0.85703 0.96071 0.66204 0.0
C155 C 0.84353 0.92763 0.66816 0.0
C156 C 0.80681 0.92577 0.74661 0.0
C157 C 0.81863 0.95853 0.73976 0.0
H158 H 0.85487 0.91683 0.64221 0.0
H159 H 0.78917 0.91304 0.78409 0.0
H160 H 0.87611 0.86367 0.77231 0.0
H161 H 0.93205 0.96228 0.81148 0.0
H162 H 0.70598 0.81644 0.67339 0.0
H163 H 0.87842 0.97352 0.63261 0.0
H164 H 0.80904 0.96992 0.77071 0.0
C165 C 0.10547 0.98733 0.85583 0.0
C166 C 0.09515 0.00857 0.84391 0.0
N167 N 0.10776 0.0231 0.78676 0.0
N168 N 0.12451 0.98858 0.80639 0.0
C169 C 0.12601 0.01117 0.76547 0.0
H170 H 0.09771 0.97038 0.89556 0.0
Co171 Co 0.13571 0.95758 0.7948 0.0
C172 C 0.15685 0.96637 0.65331 0.0
O173 O 0.13874 0.93539 0.64548 0.0
N174 N 0.14652 0.92482 0.78506 0.0
C175 C 0.1423 0.87728 0.76679 0.0
C176 C 0.13031 0.89681 0.75181 0.0
C177 C 0.16844 0.92133 0.81975 0.0
N178 N 0.16574 0.89244 0.81098 0.0
O179 O 0.17306 0.98311 0.85093 0.0
H180 H 0.10969 0.88977 0.72096 0.0
H181 H 0.18484 0.93856 0.85453 0.0
O182 O 0.15886 0.97858 0.71046 0.0
C183 C 0.16423 0.97296 0.90963 0.0
O184 O 0.13618 0.94695 0.91741 0.0
N185 N 0.09623 0.93256 0.7529 0.0
C186 C 0.03143 0.91259 0.75005 0.0
C187 C 0.0518 0.93271 0.70104 0.0
C188 C 0.08445 0.9426 0.70335 0.0
C189 C 0.0759 0.91016 0.79629 0.0
C190 C 0.0433 0.89971 0.79555 0.0
H191 H 0.10037 0.96159 0.67106 0.0
H192 H 0.08556 0.90355 0.83703 0.0
H193 H 0.1378 0.01681 0.71846 0.0
H194 H 0.07855 0.01211 0.87334 0.0
H195 H 0.13338 0.85321 0.74869 0.0
H196 H 0.04332 0.94348 0.66592 0.0
H197 H 0.02816 0.88439 0.83444 0.0
C198 C 0.78735 0.36428 0.5498 0.0
C199 C 0.75592 0.34024 0.55226 0.0
N200 N 0.75428 0.31628 0.58854 0.0
N201 N 0.80536 0.35565 0.58499 0.0
C202 C 0.7845 0.32621 0.60802 0.0
H203 H 0.79651 0.38678 0.52437 0.0
Co204 Co 0.84936 0.38104 0.59547 0.0
C205 C 0.84645 0.33625 0.71001 0.0
O206 O 0.84522 0.31263 0.67581 0.0
N207 N 0.89361 0.40677 0.605 0.0
C208 C 0.94365 0.43085 0.64201 0.0
C209 C 0.91202 0.4115 0.65815 0.0
C210 C 0.91465 0.42381 0.55743 0.0
N211 N 0.94516 0.43854 0.57862 0.0
O212 O 0.85515 0.35177 0.53804 0.0
H213 H 0.90353 0.40087 0.70528 0.0
H214 H 0.90797 0.4244 0.50742 0.0
O215 O 0.84766 0.36004 0.68014 0.0
C216 C 0.85491 0.36229 0.48034 0.0
O217 O 0.85172 0.38766 0.47591 0.0
N218 N 0.84292 0.41094 0.64003 0.0
C219 C 0.80482 0.43854 0.64893 0.0
C220 C 0.80332 0.41728 0.69735 0.0
C221 C 0.82227 0.40316 0.69136 0.0
C222 C 0.84898 0.4359 0.60027 0.0
C223 C 0.82981 0.44984 0.60325 0.0
H224 H 0.81653 0.38276 0.72173 0.0
H225 H 0.86477 0.44123 0.55889 0.0
H226 H 0.79114 0.31205 0.63766 0.0
H227 H 0.73576 0.34056 0.53002 0.0
H228 H 0.96402 0.43804 0.67392 0.0
H229 H 0.7847 0.40837 0.73419 0.0
H230 H 0.83179 0.46585 0.56437 0.0
C231 C 0.64003 0.42277 0.55155 0.0
C232 C 0.66423 0.41572 0.5499 0.0
N233 N 0.69148 0.44162 0.57059 0.0
N234 N 0.65173 0.45277 0.57452 0.0
C235 C 0.68341 0.46413 0.58249 0.0
H236 H 0.61537 0.4067 0.53821 0.0
Co237 Co 0.62939 0.47438 0.58983 0.0
C238 C 0.66476 0.48337 0.72091 0.0
O239 O 0.66797 0.45833 0.71022 0.0
N240 N 0.60726 0.49595 0.60377 0.0
C241 C 0.5804 0.51721 0.64913 0.0
C242 C 0.59868 0.50329 0.66118 0.0
C243 C 0.59384 0.50535 0.55786 0.0
N244 N 0.5772 0.51809 0.58408 0.0
O245 O 0.66106 0.50947 0.53604 0.0
H246 H 0.60447 0.49803 0.70883 0.0
H247 H 0.59594 0.50273 0.50605 0.0
O248 O 0.65207 0.49237 0.67656 0.0
C249 C 0.65041 0.49979 0.47777 0.0
O250 O 0.6235 0.47237 0.47169 0.0
N251 N 0.59548 0.43774 0.62891 0.0
C252 C 0.55489 0.37203 0.63072 0.0
C253 C 0.57502 0.38765 0.68414 0.0
C254 C 0.59492 0.42094 0.68283 0.0
C255 C 0.57187 0.42357 0.58316 0.0
C256 C 0.55118 0.39059 0.58314 0.0
H257 H 0.61114 0.4321 0.72264 0.0
H258 H 0.57186 0.43712 0.54135 0.0
H259 H 0.69957 0.48766 0.6022 0.0
H260 H 0.66167 0.39285 0.53673 0.0
H261 H 0.56947 0.52512 0.68521 0.0
H262 H 0.57809 0.37421 0.72284 0.0
H263 H 0.53539 0.37945 0.54182 0.0
C264 C 0.57335 0.22548 0.57564 0.0
C265 C 0.5757 0.25474 0.56721 0.0
N266 N 0.54782 0.25231 0.58581 0.0
N267 N 0.54433 0.20479 0.60069 0.0
C268 C 0.52885 0.22155 0.60388 0.0
H269 H 0.59171 0.21973 0.56442 0.0
Co270 Co 0.52901 0.1616 0.6181 0.0
C271 C 0.5114 0.18337 0.74586 0.0
O272 O 0.53104 0.21391 0.73525 0.0
N273 N 0.51357 0.11851 0.63434 0.0
C274 C 0.4997 0.07253 0.68394 0.0
C275 C 0.51119 0.10469 0.6929 0.0
C276 C 0.50373 0.09448 0.59072 0.0
N277 N 0.49535 0.0664 0.61954 0.0
O278 O 0.49211 0.15129 0.56316 0.0
H279 H 0.51785 0.11726 0.73912 0.0
H280 H 0.50246 0.09726 0.53875 0.0
O281 O 0.50812 0.16262 0.70268 0.0
C282 C 0.50269 0.15093 0.50559 0.0
O283 O 0.53179 0.15532 0.50079 0.0
N284 N 0.56786 0.17174 0.65963 0.0
C285 C 0.63426 0.20574 0.65834 0.0
C286 C 0.61743 0.21199 0.70638 0.0
C287 C 0.58393 0.19424 0.70682 0.0
C288 C 0.58411 0.16185 0.62049 0.0
C289 C 0.61746 0.17823 0.61986 0.0
H290 H 0.57173 0.2013 0.74041 0.0
H291 H 0.57146 0.14402 0.58318 0.0
H292 H 0.50434 0.21152 0.62032 0.0
H293 H 0.59665 0.27644 0.55065 0.0
H294 H 0.4954 0.05511 0.72151 0.0
H295 H 0.62965 0.23258 0.73834 0.0
H296 H 0.62974 0.1719 0.58373 0.0
C297 C 0.71229 0.45905 0.15852 0.0
C298 C 0.68764 0.42775 0.15872 0.0
N299 N 0.66329 0.42608 0.12365 0.0
N300 N 0.70324 0.47683 0.12381 0.0
C301 C 0.67318 0.45611 0.1036 0.0
H302 H 0.73542 0.46827 0.18165 0.0
Co303 Co 0.72772 0.52024 0.10741 0.0
C304 C 0.69092 0.52902 0.9929 0.0
O305 O 0.69369 0.55612 1.01303 0.0
N306 N 0.75246 0.56387 0.0912 0.0
C307 C 0.77948 0.61195 0.04536 0.0
C308 C 0.76378 0.57941 0.03404 0.0
C309 C 0.76257 0.58722 0.13633 0.0
N310 N 0.77817 0.6166 0.10984 0.0
O311 O 0.70066 0.52722 0.16891 0.0
H312 H 0.76034 0.56786 0.98706 0.0
H313 H 0.75917 0.58297 0.18805 0.0
O314 O 0.70189 0.51491 1.02832 0.0
C315 C 0.71248 0.5279 0.22567 0.0
O316 O 0.73836 0.52545 0.22806 0.0
N317 N 0.75548 0.51262 0.05761 0.0
C318 C 0.78525 0.47692 0.04263 0.0
C319 C 0.75959 0.47131 1.00196 0.0
C320 C 0.74496 0.48967 1.01011 0.0
C321 C 0.78356 0.52188 0.0894 0.0
C322 C 0.79909 0.50435 0.08225 0.0
H323 H 0.72244 0.48182 0.98592 0.0
H324 H 0.79127 0.5397 0.12769 0.0
H325 H 0.65857 0.46289 0.07552 0.0
H326 H 0.68769 0.4077 0.18205 0.0
H327 H 0.79034 0.63064 1.00901 0.0
H328 H 0.74797 0.4502 0.97123 0.0
H329 H 0.81903 0.5095 0.11407 0.0
C330 C 0.55031 0.24203 0.19669 0.0
C331 C 0.58117 0.24809 0.18927 0.0
N332 N 0.58094 0.2275 0.14453 0.0
N333 N 0.53089 0.21796 0.15632 0.0
C334 C 0.55018 0.20931 0.12585 0.0
H335 H 0.5428 0.25558 0.22652 0.0
Co336 Co 0.48866 0.20567 0.13825 0.0
C337 C 0.47186 0.16127 1.0195 0.0
O338 O 0.44261 0.14078 0.03876 0.0
N339 N 0.44624 0.19367 0.11953 0.0
C340 C 0.40243 0.18753 0.07017 0.0
C341 C 0.43479 0.19908 0.06371 0.0
C342 C 0.42046 0.17883 0.15883 0.0
N343 N 0.39372 0.17487 0.13016 0.0
O344 O 0.47534 0.1688 0.19507 0.0
H345 H 0.44908 0.21071 1.02097 0.0
H346 H 0.42097 0.17152 0.20827 0.0
O347 O 0.49029 0.18461 0.05688 0.0
C348 C 0.47456 0.17975 0.25199 0.0
O349 O 0.47942 0.20903 0.25555 0.0
N350 N 0.50306 0.24398 0.09352 0.0
C351 C 0.54487 0.30896 0.07888 0.0
C352 C 0.54672 0.28705 0.03674 0.0
C353 C 0.52541 0.25437 0.04491 0.0
C354 C 0.49826 0.26512 0.12876 0.0
C355 C 0.51898 0.29792 0.12211 0.0
H356 H 0.52987 0.23779 1.01833 0.0
H357 H 0.48092 0.25649 0.16799 0.0
H358 H 0.54239 0.19166 0.08728 0.0
H359 H 0.60233 0.26703 0.21281 0.0
H360 H 0.38657 0.18817 0.03367 0.0
H361 H 0.56669 0.29469 1.00343 0.0
H362 H 0.51689 0.31424 0.15538 0.0
C363 C 0.76001 0.31193 0.15428 0.0
C364 C 0.75689 0.33859 0.14968 0.0
N365 N 0.7803 0.35975 0.11042 0.0
N366 N 0.78539 0.31648 0.11838 0.0
C367 C 0.79735 0.34595 0.09243 0.0
H368 H 0.74464 0.29045 0.18162 0.0
Co369 Co 0.79857 0.28665 0.10978 0.0
C370 C 0.84493 0.32842 0.99805 0.0
O371 O 0.86784 0.35091 0.03367 0.0
N372 N 0.81152 0.25652 0.10162 0.0
C373 C 0.82518 0.22214 0.06215 0.0
C374 C 0.81404 0.24251 0.04657 0.0
C375 C 0.82047 0.24381 0.14987 0.0
N376 N 0.82886 0.22294 0.12728 0.0
O377 O 0.8347 0.31292 0.16833 0.0
H378 H 0.80818 0.24681 0.99824 0.0
H379 H 0.82185 0.2502 0.20066 0.0
O380 O 0.82037 0.30567 1.02593 0.0
C381 C 0.82283 0.30352 0.22589 0.0
O382 O 0.79282 0.28036 0.23001 0.0
N383 N 0.76127 0.26021 0.06375 0.0
C384 C 0.6961 0.23514 0.04842 0.0
C385 C 0.7177 0.25851 1.00509 0.0
C386 C 0.75055 0.27082 1.01346 0.0
C387 C 0.74054 0.2343 0.09962 0.0
C388 C 0.70763 0.22121 0.09253 0.0
H389 H 0.76697 0.29184 0.98606 0.0
H390 H 0.74939 0.22677 0.14031 0.0
H391 H 0.81832 0.35747 0.06182 0.0
H392 H 0.73866 0.34206 0.17263 0.0
H393 H 0.83037 0.20804 1.02847 0.0
H394 H 0.70955 0.26979 0.97049 0.0
H395 H 0.69183 0.20349 0.12749 0.0
C396 C 0.44834 0.70422 0.88235 0.0
C397 C 0.41657 0.68076 0.88558 0.0
N398 N 0.41442 0.65608 0.92025 0.0
N399 N 0.46588 0.69435 0.91545 0.0
C400 C 0.44464 0.66491 0.93746 0.0
H401 H 0.45799 0.72732 0.85905 0.0
Co402 Co 0.5095 0.71729 0.9305 0.0
C403 C 0.51673 0.68159 0.04994 0.0
O404 O 0.5436 0.6833 0.03149 0.0
N405 N 0.55352 0.7405 0.94486 0.0
C406 C 0.60203 0.77149 0.98721 0.0
C407 C 0.56975 0.75351 1.00083 0.0
C408 C 0.57623 0.75112 0.89823 0.0
N409 N 0.60577 0.77014 0.92243 0.0
O410 O 0.51398 0.6879 0.87064 0.0
H411 H 0.55875 0.75093 0.04814 0.0
H412 H 0.57139 0.7455 0.84706 0.0
O413 O 0.50335 0.69262 1.01238 0.0
C414 C 0.51432 0.69884 0.81308 0.0
O415 O 0.5135 0.72556 0.80922 0.0
N416 N 0.50423 0.74741 0.97855 0.0
C417 C 0.47743 0.78585 0.9977 0.0
C418 C 0.46598 0.75716 0.03254 0.0
C419 C 0.48006 0.73836 1.02283 0.0
C420 C 0.51861 0.77727 0.95196 0.0
C421 C 0.50611 0.79738 0.96263 0.0
H422 H 0.46828 0.71459 0.04312 0.0
H423 H 0.53752 0.78421 0.9164 0.0
H424 H 0.45106 0.65075 0.96784 0.0
H425 H 0.39658 0.6819 0.86479 0.0
H426 H 0.62108 0.78532 1.02165 0.0
H427 H 0.44404 0.74733 0.06062 0.0
H428 H 0.51664 0.82009 0.93735 0.0
C429 C 0.32418 0.7866 0.90152 0.0
C430 C 0.35175 0.78521 0.89745 0.0
N431 N 0.37199 0.80422 0.9443 0.0
N432 N 0.32685 0.80617 0.95103 0.0
C433 C 0.35625 0.81653 0.97663 0.0
H434 H 0.3032 0.77378 0.87099 0.0
Co435 Co 0.29424 0.81421 0.97064 0.0
C436 C 0.30317 0.82982 0.11394 0.0
O437 O 0.27337 0.80706 0.12102 0.0
N438 N 0.25989 0.82237 0.98806 0.0
C439 C 0.21205 0.81599 1.01395 0.0
C440 C 0.23289 0.80503 1.02383 0.0
C441 C 0.25436 0.84386 0.95704 0.0
N442 N 0.22523 0.83986 0.97035 0.0
O443 O 0.31705 0.85293 0.91834 0.0
H444 H 0.22707 0.78397 0.05206 0.0
H445 H 0.27017 0.8608 0.92133 0.0
O446 O 0.31573 0.83576 0.05632 0.0
C447 C 0.30619 0.84397 0.86003 0.0
O448 O 0.28046 0.81563 0.85288 0.0
N449 N 0.27181 0.77355 1.00815 0.0
C450 C 0.24961 0.70812 1.00674 0.0
C451 C 0.2742 0.72842 0.04966 0.0
C452 C 0.28513 0.76129 0.04951 0.0
C453 C 0.24666 0.75373 0.96915 0.0
C454 C 0.23486 0.72095 0.96846 0.0
H455 H 0.30661 0.77707 0.07655 0.0
H456 H 0.23794 0.76377 0.93304 0.0
H457 H 0.36592 0.83261 1.01794 0.0
H458 H 0.35618 0.77052 0.86391 0.0
H459 H 0.18829 0.80587 0.03463 0.0
H460 H 0.28659 0.71939 0.07889 0.0
H461 H 0.2167 0.7064 0.93287 0.0
C462 C 0.23729 0.55363 0.85016 0.0
C463 C 0.24774 0.58567 0.85874 0.0
N464 N 0.22874 0.58841 0.90336 0.0
N465 N 0.21203 0.53636 0.88966 0.0
C466 C 0.20718 0.55822 0.9207 0.0
H467 H 0.24862 0.54369 0.82022 0.0
Co468 Co 0.19428 0.49312 0.90855 0.0
C469 C 0.14827 0.48204 1.0227 0.0
O470 O 0.12562 0.45346 1.00424 0.0
N471 N 0.17703 0.44996 0.92867 0.0
C472 C 0.16359 0.40528 0.98346 0.0
C473 C 0.17842 0.43803 0.98742 0.0
C474 C 0.1616 0.42404 0.88973 0.0
N475 N 0.15299 0.39668 0.92198 0.0
O476 O 0.15978 0.48377 0.84722 0.0
H477 H 0.18968 0.45227 0.0305 0.0
H478 H 0.15677 0.42487 0.83856 0.0
O479 O 0.17279 0.49791 0.98619 0.0
C480 C 0.17058 0.4811 0.79149 0.0
O481 O 0.19816 0.48183 0.79079 0.0
N482 N 0.23041 0.50339 0.95812 0.0
C483 C 0.29512 0.54287 0.98121 0.0
C484 C 0.27255 0.54272 1.02452 0.0
C485 C 0.24001 0.52278 1.01183 0.0
C486 C 0.25187 0.49944 0.9222 0.0
C487 C 0.28461 0.51925 0.93258 0.0
H488 H 0.22323 0.5261 0.04037 0.0
H489 H 0.24379 0.48427 0.87935 0.0
H490 H 0.18966 0.55241 0.9587 0.0
H491 H 0.26844 0.60544 0.83588 0.0
H492 H 0.16172 0.38918 1.02207 0.0
H493 H 0.27987 0.56043 0.06309 0.0
H494 H 0.30114 0.51875 0.89751 0.0
C495 C 0.33642 0.79305 0.56395 0.0
C496 C 0.3085 0.76437 0.55645 0.0
N497 N 0.295 0.76482 0.49914 0.0
N498 N 0.34076 0.81141 0.5114 0.0
C499 C 0.31521 0.79361 0.47257 0.0
H500 H 0.35322 0.79972 0.60392 0.0
Co501 Co 0.37708 0.8507 0.49947 0.0
C502 C 0.37403 0.8689 0.3611 0.0
O503 O 0.40521 0.8813 0.35817 0.0
N504 N 0.4146 0.89114 0.48885 0.0
C505 C 0.4651 0.93131 0.48183 0.0
C506 C 0.44512 0.8989 0.47483 0.0
C507 C 0.41683 0.91956 0.50214 0.0
N508 N 0.44718 0.9441 0.49964 0.0
O509 O 0.35778 0.86923 0.5556 0.0
H510 H 0.45308 0.88237 0.46211 0.0
H511 H 0.39682 0.92232 0.51662 0.0
O512 O 0.35947 0.85704 0.41555 0.0
C513 C 0.37029 0.87294 0.61268 0.0
O514 O 0.39485 0.86849 0.6187 0.0
N515 N 0.39557 0.82987 0.45762 0.0
C516 C 0.41389 0.78452 0.43622 0.0
C517 C 0.39533 0.78928 0.38976 0.0
C518 C 0.38589 0.81184 0.4019 0.0
C519 C 0.41389 0.82567 0.50247 0.0
C520 C 0.42372 0.80357 0.49242 0.0
H521 H 0.36862 0.81248 0.36956 0.0
H522 H 0.41928 0.83833 0.5485 0.0
H523 H 0.31185 0.80112 0.42502 0.0
H524 H 0.29982 0.74415 0.58915 0.0
H525 H 0.49099 0.94407 0.47868 0.0
H526 H 0.38637 0.77417 0.34682 0.0
H527 H 0.4366 0.79962 0.5311 0.0
C528 C 0.22136 0.58709 0.46581 0.0
C529 C 0.25101 0.58963 0.46778 0.0
N530 N 0.24792 0.56181 0.44652 0.0
N531 N 0.19995 0.55827 0.44084 0.0
C532 C 0.21652 0.54282 0.43315 0.0
H533 H 0.21596 0.6055 0.47946 0.0
Co534 Co 0.15644 0.54259 0.42481 0.0
C535 C 0.17622 0.52433 0.2939 0.0
O536 O 0.20725 0.54238 0.30214 0.0
N537 N 0.11277 0.52607 0.41033 0.0
C538 C 0.06496 0.50851 0.36464 0.0
C539 C 0.09742 0.52283 0.35319 0.0
C540 C 0.08936 0.51396 0.45546 0.0
N541 N 0.06019 0.50296 0.42911 0.0
O542 O 0.14721 0.50592 0.47951 0.0
H543 H 0.10902 0.53008 0.30611 0.0
H544 H 0.0933 0.51307 0.50704 0.0
O545 O 0.15673 0.52203 0.3392 0.0
C546 C 0.14775 0.51657 0.53749 0.0
O547 O 0.15226 0.54567 0.54308 0.0
N548 N 0.1658 0.58134 0.38233 0.0
C549 C 0.19559 0.64776 0.38584 0.0
C550 C 0.20833 0.63264 0.34771 0.0
C551 C 0.19253 0.5992 0.34526 0.0
C552 C 0.15047 0.59574 0.40991 0.0
C553 C 0.16434 0.62892 0.40957 0.0
H554 H 0.20505 0.58862 0.32312 0.0
H555 H 0.12943 0.58222 0.43969 0.0
H556 H 0.20605 0.51872 0.41402 0.0
H557 H 0.27332 0.61067 0.48165 0.0
H558 H 0.04636 0.50177 0.32837 0.0
H559 H 0.23212 0.64608 0.32694 0.0
H560 H 0.15244 0.6396 0.43535 0.0
C561 C 0.40397 0.61978 0.49139 0.0
C562 C 0.39572 0.64307 0.49394 0.0
N563 N 0.4204 0.67032 0.47052 0.0
N564 N 0.4333 0.63196 0.46421 0.0
C565 C 0.44326 0.66323 0.45523 0.0
H566 H 0.3894 0.59573 0.50929 0.0
Co567 Co 0.45655 0.6114 0.44684 0.0
C568 C 0.46533 0.64843 0.31855 0.0
O569 O 0.4374 0.64644 0.32674 0.0
N570 N 0.47962 0.59113 0.43097 0.0
C571 C 0.50478 0.56882 0.38263 0.0
C572 C 0.4872 0.58364 0.37262 0.0
C573 C 0.49245 0.58042 0.47548 0.0
N574 N 0.50792 0.56685 0.44744 0.0
O575 O 0.49028 0.64259 0.50502 0.0
H576 H 0.48048 0.58869 0.32574 0.0
H577 H 0.49037 0.58221 0.52762 0.0
O578 O 0.47583 0.63727 0.36331 0.0
C579 C 0.48105 0.63182 0.5633 0.0
O580 O 0.4546 0.60397 0.56918 0.0
N581 N 0.42127 0.57818 0.40211 0.0
C582 C 0.35602 0.54712 0.38394 0.0
C583 C 0.3767 0.5627 0.33124 0.0
C584 C 0.4098 0.57754 0.34102 0.0
C585 C 0.40185 0.55612 0.44688 0.0
C586 C 0.36866 0.54035 0.43913 0.0
H587 H 0.42553 0.59048 0.3013 0.0
H588 H 0.41153 0.5553 0.49392 0.0
H589 H 0.46626 0.68003 0.43432 0.0
H590 H 0.37324 0.64018 0.5114 0.0
H591 H 0.51499 0.56076 0.34528 0.0
H592 H 0.36765 0.56665 0.28598 0.0
H593 H 0.35369 0.52784 0.48061 0.0
C594 C 0.09189 0.1209 0.34652 0.0
C595 C 0.08907 0.09065 0.35348 0.0
C596 C 0.06504 0.12374 0.33244 0.0
C597 C 0.03469 0.0964 0.32383 0.0
H598 H 0.11525 0.14239 0.3485 0.0
H599 H 0.06836 0.14734 0.32428 0.0
S600 S 0.01408 0.01191 0.3443 0.0
N601 N 0.05316 0.03297 0.35612 0.0
N602 N 0.00279 0.0384 0.33026 0.0
C603 C 0.03126 0.06616 0.33491 0.0
C604 C 0.05846 0.06326 0.34976 0.0
C605 C 0.91984 0.97744 0.29931 0.0
C606 C 0.89143 0.95079 0.2771 0.0
C607 C 0.91963 0.00363 0.32768 0.0
C608 C 0.89104 0.00441 0.33482 0.0
H609 H 0.94246 0.97809 0.29443 0.0
H610 H 0.94234 0.02412 0.34143 0.0
S611 S 0.80981 0.93988 0.28736 0.0
N612 N 0.83364 0.92609 0.26594 0.0
N613 N 0.83326 0.97549 0.32011 0.0
C614 C 0.86225 0.97748 0.31466 0.0
C615 C 0.86243 0.95064 0.28574 0.0
C616 C 0.01615 0.89284 0.25592 0.0
C617 C 0.00317 0.89001 0.31888 0.0
C618 C 0.0465 0.91799 0.24004 0.0
C619 C 0.0652 0.94159 0.28602 0.0
H620 H 0.00197 0.87697 0.2167 0.0
H621 H 0.05476 0.92001 0.19017 0.0
S622 S 0.045 0.94301 0.46018 0.0
N623 N 0.01351 0.9108 0.43007 0.0
N624 N 0.07045 0.95911 0.39894 0.0
C625 C 0.0539 0.93795 0.35047 0.0
C626 C 0.02287 0.91198 0.36709 0.0
C627 C 0.12475 0.075 0.73543 0.0
C628 C 0.10022 0.0443 0.75285 0.0
C629 C 0.11752 0.09857 0.71709 0.0
C630 C 0.08556 0.09179 0.71476 0.0
H631 H 0.14958 0.08149 0.74147 0.0
H632 H 0.13703 0.12288 0.71026 0.0
S633 S 0.01285 0.01297 0.74388 0.0
N634 N 0.04302 0.0068 0.75736 0.0
N635 N 0.02925 0.05101 0.72284 0.0
C636 C 0.06085 0.06015 0.72508 0.0
C637 C 0.06825 0.03637 0.7444 0.0
C638 C 0.90129 0.04452 0.81492 0.0
C639 C 0.92486 0.06646 0.77247 0.0
C640 C 0.87438 0.01711 0.79127 0.0
C641 C 0.86971 0.01042 0.72381 0.0
H642 H 0.90451 0.04778 0.86723 0.0
H643 H 0.85854 -9e-05 0.82693 0.0
S644 S 0.92192 0.0633 0.59146 0.0
N645 N 0.94036 0.08181 0.65946 0.0
N646 N 0.88887 0.03061 0.61447 0.0
C647 C 0.8917 0.03372 0.68044 0.0
C648 C 0.91944 0.06168 0.70482 0.0
C649 C 0.97437 0.89422 0.72068 0.0
C650 C 0.00055 0.91088 0.76282 0.0
C651 C 0.94539 0.89352 0.73248 0.0
C652 C 0.94205 0.9101 0.78584 0.0
H653 H 0.97638 0.88181 0.67844 0.0
H654 H 0.92583 0.8808 0.69851 0.0
S655 S 0.00372 0.9569 0.91047 0.0
N656 N 0.02135 0.9437 0.86035 0.0
N657 N 0.96714 0.94295 0.88157 0.0
C658 C 0.96807 0.92661 0.82835 0.0
C659 C -0.00272 0.92688 0.81703 0.0
C660 C 0.71851 0.41416 0.61525 0.0
C661 C 0.72037 0.44221 0.59093 0.0
C662 C 0.74577 0.41384 0.63661 0.0
C663 C 0.77624 0.44167 0.63541 0.0
H664 H 0.69572 0.39209 0.61805 0.0
H665 H 0.74292 0.39114 0.65206 0.0
S666 S 0.7942 0.52178 0.57799 0.0
N667 N 0.7552 0.49874 0.56696 0.0
N668 N 0.80653 0.49848 0.60986 0.0
C669 C 0.77847 0.47017 0.6126 0.0
C670 C 0.75055 0.47039 0.58997 0.0
C671 C 0.55515 0.33174 0.55567 0.0
C672 C 0.54537 0.33839 0.61565 0.0
C673 C 0.55372 0.30253 0.54459 0.0
C674 C 0.54213 0.27866 0.59259 0.0
H675 H 0.56615 0.35006 0.51857 0.0
H676 H 0.56328 0.29913 0.49937 0.0
S677 S 0.50941 0.28239 0.7543 0.0
N678 N 0.52073 0.31761 0.72105 0.0
N679 N 0.5175 0.26223 0.69974 0.0
C680 C 0.52983 0.28392 0.65068 0.0
C681 C 0.5317 0.31397 0.66242 0.0
C682 C 0.69094 0.24775 0.68566 0.0
C683 C 0.66681 0.23124 0.63876 0.0
C684 C 0.72019 0.27485 0.66847 0.0
C685 C 0.72589 0.2866 0.60418 0.0
H686 H 0.68687 0.24011 0.73614 0.0
H687 H 0.73789 0.28751 0.70611 0.0
S688 S 0.67132 0.25162 0.46272 0.0
N689 N 0.65122 0.2284 0.52468 0.0
N690 N 0.70618 0.2789 0.49301 0.0
C691 C 0.70248 0.2698 0.55661 0.0
C692 C 0.67294 0.24222 0.57374 0.0
C693 C 0.7844 0.41073 0.14055 0.0
C694 C 0.78595 0.39083 0.0926 0.0
C695 C 0.78674 0.43981 0.12392 0.0
C696 C 0.79037 0.44995 0.05848 0.0
H697 H 0.78054 0.40329 0.19115 0.0
H698 H 0.78377 0.45352 0.1624 0.0
S699 S 0.79688 0.40678 0.91484 0.0
N700 N 0.79258 0.38345 0.97743 0.0
N701 N 0.7967 0.43831 0.94574 0.0
C702 C 0.79308 0.43074 1.01019 0.0
C703 C 0.79103 0.40116 1.02736 0.0
C704 C 0.61651 0.37677 0.16269 0.0
C705 C 0.63278 0.39806 0.11155 0.0
C706 C 0.58727 0.34876 0.1518 0.0
C707 C 0.57342 0.34088 0.08915 0.0
H708 H 0.62661 0.38179 0.21138 0.0
H709 H 0.57598 0.33256 0.19237 0.0
S710 S 0.60684 0.3887 0.93869 0.0
N711 N 0.63321 0.40967 0.9961 0.0
N712 N 0.5781 0.35663 0.97535 0.0
C713 C 0.58934 0.36209 0.03759 0.0
C714 C 0.61903 0.39086 0.0489 0.0
C715 C 0.66329 0.25991 0.07507 0.0
C716 C 0.66447 0.232 0.06102 0.0
C717 C 0.63578 0.25819 0.1015 0.0
C718 C 0.60837 0.22852 0.11462 0.0
H719 H 0.68437 0.28335 0.06898 0.0
H720 H 0.63612 0.28026 0.11266 0.0
S721 S 0.59832 0.14845 0.0825 0.0
N722 N 0.63531 0.17385 0.0587 0.0
N723 N 0.58337 0.1706 0.10867 0.0
C724 C 0.60865 0.20042 0.09813 0.0
C725 C 0.63679 0.20216 0.07141 0.0
C726 C 0.41031 0.80406 1.02366 0.0
C727 C 0.40256 0.80751 0.95925 0.0
C728 C 0.43644 0.79975 0.03682 0.0
C729 C 0.45569 0.79886 0.98597 0.0
H730 H 0.39479 0.80244 0.06347 0.0
H731 H 0.44051 0.79531 0.08669 0.0
S732 S 0.44737 0.81142 0.80956 0.0
N733 N 0.4182 0.81407 0.84544 0.0
N734 N 0.4663 0.80467 0.8688 0.0
C735 C 0.44943 0.80485 0.92182 0.0
C736 C 0.42309 0.80946 0.90884 0.0
C737 C 0.26958 0.67172 0.9729 0.0
C738 C 0.24365 0.67562 0.99112 0.0
C739 C 0.26452 0.64311 0.94472 0.0
C740 C 0.23337 0.61734 0.93377 0.0
H741 H 0.29396 0.69144 0.9775 0.0
H742 H 0.28517 0.64127 0.93082 0.0
S743 S 0.15745 0.61483 0.97661 0.0
N744 N 0.18582 0.65077 1.00003 0.0
N745 N 0.17623 0.59721 0.94557 0.0
C746 C 0.20725 0.62053 0.95399 0.0
C747 C 0.21242 0.64961 0.98296 0.0
C748 C 0.32943 0.60189 0.972 0.0
C749 C 0.32724 0.57176 0.97557 0.0
C750 C 0.35805 0.62928 0.95468 0.0
C751 C 0.38561 0.62766 0.94013 0.0
H752 H 0.30846 0.60418 0.97969 0.0
H753 H 0.35851 0.65187 0.95197 0.0
S754 S 0.39289 0.55481 0.94485 0.0
N755 N 0.35539 0.54211 0.96616 0.0
N756 N 0.40924 0.59363 0.93176 0.0
C757 C 0.38409 0.59789 0.94529 0.0
C758 C 0.35488 0.56993 0.9633 0.0
C759 C 0.39198 0.69792 0.43512 0.0
C760 C 0.42036 0.69939 0.45643 0.0
C761 C 0.39076 0.72578 0.42392 0.0
C762 C 0.41791 0.75616 0.43353 0.0
H763 H 0.37038 0.67501 0.42802 0.0
H764 H 0.36792 0.72342 0.41099 0.0
S765 S 0.49871 0.77306 0.484 0.0
N766 N 0.47663 0.73361 0.48382 0.0
N767 N 0.47463 0.78616 0.46065 0.0
C768 C 0.44689 0.75798 0.45156 0.0
C769 C 0.44806 0.72956 0.46347 0.0
C770 C 0.26631 0.73266 0.40184 0.0
C771 C 0.26715 0.73841 0.46941 0.0
C772 C 0.24176 0.70427 0.37401 0.0
C773 C 0.2172 0.68051 0.41272 0.0
H774 H 0.28563 0.74937 0.37075 0.0
H775 H 0.2428 0.70032 0.32222 0.0
S776 S 0.20681 0.6863 0.59157 0.0
N777 N 0.23937 0.72025 0.57285 0.0
N778 N 0.19461 0.66611 0.52249 0.0
C779 C 0.21692 0.68705 0.47997 0.0
C780 C 0.24156 0.71614 0.50777 0.0
C781 C 0.3266 0.5769 0.37982 0.0
C782 C 0.32567 0.54767 0.3905 0.0
C783 C 0.30113 0.58117 0.39816 0.0
C784 C 0.27355 0.55639 0.42774 0.0
H785 H 0.3479 0.59731 0.36009 0.0
H786 H 0.30317 0.6042 0.38951 0.0
S787 S 0.25825 0.47478 0.46398 0.0
N788 N 0.29426 0.4931 0.43045 0.0
N789 N 0.24614 0.50123 0.46502 0.0
C790 C 0.27168 0.52668 0.43682 0.0
C791 C 0.29782 0.52233 0.41838 0.0
C792 C 0.3518 0.13307 0.1983 0.0
C793 C 0.36278 0.16079 0.16013 0.0
C794 C 0.32269 0.12007 0.23181 0.0
C795 C 0.30403 0.13478 0.22919 0.0
H796 H 0.3659 0.12143 0.20216 0.0
H797 H 0.31485 0.09868 0.26072 0.0
S798 S 0.32176 0.2072 0.13482 0.0
N799 N 0.35261 0.20217 0.12064 0.0
N800 N 0.29768 0.17766 0.18369 0.0
C801 C 0.31453 0.16228 0.19066 0.0
C802 C 0.34398 0.17529 0.15594 0.0
C803 C 0.87094 0.20937 0.14297 0.0
C804 C 0.84297 0.20835 0.16505 0.0
C805 C 0.88703 0.19842 0.18225 0.0
C806 C 0.87553 0.18572 0.24478 0.0
H807 H 0.88105 0.21981 0.09599 0.0
H808 H 0.9091 0.20063 0.16401 0.0
S809 S 0.80116 0.17493 0.32177 0.0
N810 N 0.80317 0.19211 0.251 0.0
N811 N 0.833 0.17068 0.32467 0.0
C812 C 0.84695 0.1837 0.26653 0.0
C813 C 0.83074 0.19516 0.22664 0.0
C814 C 0.81866 0.67363 0.12353 0.0
C815 C 0.79023 0.64646 0.14413 0.0
C816 C 0.8313 0.70256 0.15788 0.0
C817 C 0.81607 0.70506 0.21418 0.0
H818 H 0.83147 0.67235 0.08131 0.0
H819 H 0.85334 0.72302 0.14099 0.0
S820 S 0.73931 0.64239 0.28413 0.0
N821 N 0.74564 0.625 0.22101 0.0
N822 N 0.7703 0.67918 0.28658 0.0
C823 C 0.78743 0.67842 0.23465 0.0
C824 C 0.77425 0.64914 0.1993 0.0
C825 C 0.13617 0.32968 0.80724 0.0
C826 C 0.11306 0.30277 0.84139 0.0
C827 C 0.14845 0.36046 0.83308 0.0
C828 C 0.13837 0.36517 0.89439 0.0
H829 H 0.14504 0.32677 0.76067 0.0
H830 H 0.16674 0.38061 0.80601 0.0
S831 S 0.07774 0.30255 1.00231 0.0
N832 N 0.0801 0.28268 0.93888 0.0
N833 N 0.10313 0.34074 0.98735 0.0
C834 C 0.11482 0.33853 0.92842 0.0
C835 C 0.1021 0.30723 0.90186 0.0
C836 C 0.66271 0.787 0.90906 0.0
C837 C 0.63499 0.7861 0.88566 0.0
C838 C 0.6909 0.8009 0.87206 0.0
C839 C 0.69232 0.8145 0.81056 0.0
H840 H 0.66232 0.77619 0.95552 0.0
H841 H 0.71158 0.8005 0.89121 0.0
S842 S 0.62712 0.82137 0.73113 0.0
N843 N 0.61119 0.80201 0.79977 0.0
N844 N 0.66426 0.82829 0.7303 0.0
C845 C 0.66496 0.81446 0.78744 0.0
C846 C 0.63626 0.80026 0.82505 0.0
C847 C 0.22665 0.88498 0.91145 0.0
C848 C 0.20937 0.85312 0.9333 0.0
C849 C 0.21232 0.89764 0.87117 0.0
C850 C 0.1803 0.87878 0.85084 0.0
H851 H 0.25146 0.90017 0.92553 0.0
H852 H 0.22646 0.92225 0.85519 0.0
S853 S 0.12439 0.79404 0.89535 0.0
N854 N 0.1585 0.80288 0.93089 0.0
N855 N 0.13127 0.82708 0.85798 0.0
C856 C 0.16262 0.84701 0.87306 0.0
C857 C 0.17721 0.83409 0.9137 0.0
C858 C -0.00084 0.4495 0.55102 0.0
C859 C 0.97359 0.45486 0.53964 0.0
C860 C 0.02706 0.46487 0.51374 0.0
C861 C 0.03043 0.4862 0.46375 0.0
H862 H -0.00256 0.433 0.58859 0.0
H863 H 0.04616 0.45995 0.52393 0.0
S864 S 0.97094 0.50937 0.41613 0.0
N865 N 0.9535 0.48341 0.47597 0.0
N866 N 0.00631 0.51247 0.40548 0.0
C867 C 0.00502 0.49167 0.45143 0.0
C868 C 0.97649 0.47596 0.48956 0.0
C869 C 0.54311 0.56967 0.53696 0.0
C870 C 0.52518 0.55417 0.48084 0.0
C871 C 0.55987 0.5576 0.5708 0.0
C872 C 0.55926 0.52967 0.54956 0.0
H873 H 0.54452 0.59153 0.55427 0.0
H874 H 0.57383 0.57045 0.61321 0.0
S875 S 0.51325 0.47845 0.40934 0.0
N876 N 0.50609 0.50844 0.40799 0.0
N877 N 0.53752 0.48557 0.47183 0.0
C878 C 0.54094 0.5136 0.49425 0.0
C879 C 0.52393 0.52593 0.45975 0.0
C880 C 0.44558 0.97866 0.58579 0.0
C881 C 0.45869 0.97532 0.52699 0.0
C882 C 0.45786 0.00851 0.61597 0.0
C883 C 0.48342 0.03599 0.58805 0.0
H884 H 0.42622 0.95793 0.60946 0.0
H885 H 0.44718 0.01018 0.66121 0.0
S886 S 0.5261 0.03986 0.43471 0.0
N887 N 0.49834 0.00173 0.44179 0.0
N888 N 0.52178 0.05808 0.49892 0.0
C889 C 0.49664 0.03302 0.52911 0.0
C890 C 0.48422 0.00257 0.49855 0.0
C891 C 0.17198 0.98922 0.47206 0.0
C892 C 0.19133 0.02275 0.47255 0.0
C893 C 0.16191 0.97152 0.53052 0.0
C894 C 0.17038 0.98637 0.59277 0.0
H895 H 0.16398 0.97645 0.42614 0.0
H896 H 0.14661 0.94581 0.52644 0.0
S897 S 0.22183 0.07352 0.62229 0.0
N898 N 0.2197 0.0701 0.54201 0.0
N899 N 0.2003 0.03676 0.65069 0.0
C900 C 0.19027 0.01978 0.59414 0.0
C901 C 0.20083 0.0379 0.53458 0.0
C902 C -0.00674 0.16913 0.58587 0.0
C903 C 0.01848 0.19846 0.60927 0.0
C904 C 0.9836 0.16519 0.51969 0.0
C905 C -0.00144 0.19043 0.47404 0.0
H906 H 0.98197 0.14861 0.61795 0.0
H907 H 0.96437 0.14202 0.50429 0.0
S908 S 0.06404 0.27288 0.51221 0.0
N909 N 0.05688 0.2537 0.5823 0.0
N910 N 0.03867 0.24649 0.45929 0.0
C911 C 0.02276 0.22026 0.49787 0.0
C912 C 0.03271 0.22417 0.56488 0.0
C913 C 0.85392 0.86881 0.52115 0.0
C914 C 0.83455 0.8484 0.57147 0.0
C915 C 0.84788 0.85986 0.45529 0.0
C916 C 0.82261 0.82966 0.43599 0.0
H917 H 0.87414 0.89219 0.5326 0.0
H918 H 0.86363 0.87678 0.41924 0.0
S919 S 0.7629 0.76814 0.54824 0.0
N920 N 0.78729 0.79758 0.59731 0.0
N921 N 0.77645 0.77999 0.47341 0.0
C922 C 0.80206 0.80942 0.48562 0.0
C923 C 0.80794 0.81893 0.5532 0.0
C924 C 0.83502 0.30369 0.88515 0.0
C925 C 0.84577 0.33104 0.92497 0.0
C926 C 0.83558 0.30569 0.81632 0.0
C927 C 0.846 0.33502 0.78375 0.0
H928 H 0.82657 0.28051 0.90722 0.0
H929 H 0.82743 0.28387 0.78842 0.0
S930 S 0.87447 0.41359 0.86603 0.0
N931 N 0.86635 0.38829 0.92679 0.0
N932 N 0.86598 0.39202 0.79866 0.0
C933 C 0.85596 0.36245 0.82341 0.0
C934 C 0.85623 0.36048 0.89344 0.0
C935 C 0.67433 0.48667 0.90619 0.0
C936 C 0.68088 0.51752 0.92395 0.0
C937 C 0.66916 0.47628 0.84099 0.0
C938 C 0.6697 0.49595 0.7896 0.0
H939 H 0.67352 0.4703 0.943 0.0
H940 H 0.66463 0.45233 0.83106 0.0
S941 S 0.68293 0.57804 0.80915 0.0
N942 N 0.68587 0.56729 0.88416 0.0
N943 N 0.67526 0.54728 0.76175 0.0
C944 C 0.67464 0.52635 0.80659 0.0
C945 C 0.68036 0.53719 0.87347 0.0
C946 C 0.52276 0.18925 0.86533 0.0
C947 C 0.50071 0.17354 0.81445 0.0
C948 C 0.51362 0.18325 0.93112 0.0
C949 C 0.48167 0.16196 0.94959 0.0
H950 H 0.54746 0.20674 0.85422 0.0
H951 H 0.53177 0.19618 0.96773 0.0
S952 S 0.41508 0.11238 0.83476 0.0
N953 N 0.44617 0.13355 0.78658 0.0
N954 N 0.42831 0.12305 0.91024 0.0
C955 C 0.45961 0.14479 0.89904 0.0
C956 C 0.46926 0.15046 0.83161 0.0
C957 C 0.46243 0.66042 0.19996 0.0
C958 C 0.48004 0.65705 0.25131 0.0
C959 C 0.47401 0.66716 0.13557 0.0
C960 C 0.50416 0.67146 0.11846 0.0
H961 H 0.439 0.65748 0.20906 0.0
H962 H 0.45893 0.66894 0.09881 0.0
S963 S 0.55999 0.66448 0.23336 0.0
N964 N 0.52915 0.65767 0.27959 0.0
N965 N 0.55135 0.67106 0.15906 0.0
C966 C 0.52204 0.66777 0.16899 0.0
C967 C 0.50998 0.66052 0.23497 0.0
C968 C 0.35527 0.85769 0.17771 0.0
C969 C 0.3219 0.84462 0.17526 0.0
C970 C 0.37194 0.86666 0.23768 0.0
C971 C 0.35603 0.86288 0.29802 0.0
H972 H 0.36845 0.8597 0.13348 0.0
H973 H 0.39746 0.87549 0.23666 0.0
S974 S 0.26936 0.83383 0.31774 0.0
N975 N 0.27402 0.83156 0.23846 0.0
N976 N 0.30528 0.84793 0.35002 0.0
C977 C 0.32297 0.85144 0.29577 0.0
C978 C 0.306 0.8425 0.23486 0.0
C979 C 0.18018 0.53456 0.17422 0.0
C980 C 0.1646 0.51332 0.22617 0.0
C981 C 0.17278 0.52481 0.10894 0.0
C982 C 0.15005 0.49303 0.09205 0.0
H983 H 0.19881 0.55899 0.18408 0.0
H984 H 0.18606 0.54222 0.07146 0.0
S985 S 0.10011 0.42868 0.21036 0.0
N986 N 0.12315 0.4599 0.25695 0.0
N987 N 0.10992 0.44088 0.13416 0.0
C988 C 0.13289 0.47192 0.14377 0.0
C989 C 0.14007 0.48219 0.21072 0.0
C990 C 0.20551 0.04028 0.03378 0.0
C991 C 0.19868 0.02367 0.09391 0.0
C992 C 0.19736 0.02413 0.97316 0.0
C993 C 0.18186 0.99059 0.96997 0.0
H994 H 0.21552 0.06599 0.03351 0.0
H995 H 0.20092 0.03785 0.92908 0.0
S996 S 0.16326 0.93597 0.11153 0.0
N997 N 0.179 0.97187 0.14501 0.0
N998 N 0.16388 0.94157 0.03193 0.0
C999 C 0.17752 0.97393 1.02927 0.0
C1000 C 0.1859 0.9904 0.09092 0.0
C1001 C 0.01815 0.19342 0.11074 0.0
C1002 C 0.98482 0.17883 0.11824 0.0
C1003 C 0.03231 0.2006 0.04812 0.0
C1004 C 0.01384 0.19359 0.99024 0.0
H1005 H 0.03312 0.19692 0.15285 0.0
H1006 H 0.05789 0.20992 0.04498 0.0
S1007 S 0.92608 0.16074 0.98439 0.0
N1008 N 0.93415 0.16183 0.06299 0.0
N1009 N 0.96075 0.1751 0.94621 0.0
C1010 C 0.98089 0.1819 0.99767 0.0
C1011 C 0.96645 0.17453 0.06134 0.0
C1012 C 0.80522 0.84789 1.0027 0.0
C1013 C 0.81449 0.83897 0.9443 0.0
C1014 C 0.81163 0.83986 0.06474 0.0
C1015 C 0.82777 0.82268 0.07107 0.0
H1016 H 0.79434 0.86274 1.0007 0.0
H1017 H 0.80606 0.84924 0.10774 0.0
S1018 S 0.8528 0.78927 0.93438 0.0
N1019 N 0.8373 0.80873 0.8976 0.0
N1020 N 0.84931 0.79348 1.01348 0.0
C1021 C 0.83477 0.81133 1.01316 0.0
C1022 C 0.82811 0.81943 0.95002 0.0
C1023 C 0.85786 0.35133 0.29685 0.0
C1024 C 0.83983 0.31801 0.28879 0.0
C1025 C 0.86519 0.36521 0.35973 0.0
C1026 C 0.85497 0.34645 0.41732 0.0
H1027 H 0.86402 0.36684 0.25473 0.0
H1028 H 0.87725 0.39108 0.36318 0.0
S1029 S 0.81185 0.25788 0.42241 0.0
N1030 N 0.81568 0.26642 0.34373 0.0
N1031 N 0.82935 0.29264 0.46108 0.0
C1032 C 0.83965 0.31314 0.40973 0.0
C1033 C 0.83207 0.29895 0.34575 0.0
C1034 C 0.66425 0.51475 0.29533 0.0
C1035 C 0.69758 0.52886 0.2892 0.0
C1036 C 0.6496 0.50817 0.35728 0.0
C1037 C 0.66756 0.51547 0.41587 0.0
H1038 H 0.6492 0.50662 0.25227 0.0
H1039 H 0.62366 0.49544 0.35913 0.0
S1040 S 0.75604 0.55774 0.42665 0.0
N1041 N 0.74855 0.55414 0.34747 0.0
N1042 N 0.72077 0.54121 0.46307 0.0
C1043 C 0.70101 0.53222 0.41043 0.0
C1044 C 0.71602 0.53896 0.34736 0.0
C1045 C 0.48778 0.14563 0.32308 0.0
C1046 C 0.47204 0.1631 0.31488 0.0
C1047 C 0.49466 0.13894 0.38595 0.0
C1048 C 0.48599 0.14929 0.44316 0.0
H1049 H 0.49735 0.13957 0.28107 0.0
H1050 H 0.50896 0.12749 0.38965 0.0
S1051 S 0.43901 0.19057 0.44793 0.0
N1052 N 0.44366 0.18639 0.36931 0.0
N1053 N 0.45695 0.17402 0.48678 0.0
C1054 C 0.46733 0.16377 0.43553 0.0
C1055 C 0.46035 0.17066 0.37157 0.0
C1056 C 0.49652 0.64854 0.74616 0.0
C1057 C 0.51284 0.68208 0.75022 0.0
C1058 C 0.48846 0.63278 0.68512 0.0
C1059 C 0.49642 0.64974 0.62522 0.0
H1060 H 0.48808 0.63433 0.7902 0.0
H1061 H 0.47445 0.60687 0.6851 0.0
S1062 S 0.54333 0.73798 0.60889 0.0
N1063 N 0.54006 0.73185 0.6885 0.0
N1064 N 0.52454 0.70212 0.5748 0.0
C1065 C 0.51486 0.68322 0.62865 0.0
C1066 C 0.52307 0.69934 0.69076 0.0
C1067 C 0.30595 0.85344 0.7399 0.0
C1068 C 0.32334 0.86105 0.79918 0.0
C1069 C 0.32133 0.86044 0.67869 0.0
C1070 C 0.35482 0.87528 0.67415 0.0
H1071 H 0.28 0.83984 0.74067 0.0
H1072 H 0.30674 0.85168 0.63507 0.0
S1073 S 0.41178 0.90527 0.81385 0.0
N1074 N 0.37611 0.88804 0.84868 0.0
N1075 N 0.40514 0.90165 0.73437 0.0
C1076 C 0.37259 0.88593 0.73291 0.0
C1077 C 0.35687 0.87878 0.7952 0.0
C1078 C 0.1353 0.50781 0.65691 0.0
C1079 C 0.14554 0.49927 0.59937 0.0
C1080 C 0.1405 0.4992 0.71941 0.0
C1081 C 0.15638 0.48182 0.72708 0.0
H1082 H 0.12484 0.52301 0.65392 0.0
H1083 H 0.13431 0.50839 0.76185 0.0
S1084 S 0.18335 0.44909 0.59234 0.0
N1085 N 0.16879 0.46912 0.55441 0.0
N1086 N 0.17841 0.4526 0.67112 0.0
C1087 C 0.1641 0.47065 0.66974 0.0
C1088 C 0.15869 0.47938 0.60611 0.0
loop_
_geom_bond_atom_site_label_1
_geom_bond_atom_site_label_2
_geom_bond_distance
_geom_bond_site_symmetry_2
_ccdc_geom_bond_type
C0 C1 1.351 . S
C0 N3 1.368 . S
C0 H5 0.931 . S
C1 C0 1.351 . S
C1 N2 1.373 . S
C1 H29 0.930 . S
N2 C1 1.373 . S
N2 C4 1.340 . S
N3 C0 1.368 . S
N3 C4 1.321 . S
N3 Co6 2.135 1_565 S
C4 N2 1.340 . S
C4 N3 1.321 . S
C4 H28 0.930 . S
H5 C0 0.931 . S
Co6 N3 2.135 1_545 S
Co6 N9 2.121 . S
Co6 O14 2.055 1_545 S
Co6 O17 2.039 1_545 S
Co6 N20 2.140 . S
C7 O8 1.192 1_565 S
C7 O17 1.283 . S
O8 C7 1.192 1_545 S
N9 Co6 2.121 . S
N9 C11 1.375 . S
N9 C12 1.313 . S
C10 C11 1.338 . S
C10 N13 1.377 . S
C10 H30 0.930 . S
C11 N9 1.375 . S
C11 C10 1.338 . S
C11 H15 0.931 . S
C12 N9 1.313 . S
C12 N13 1.344 . S
C12 H16 0.930 . S
N13 C10 1.377 . S
N13 C12 1.344 . S
O14 Co6 2.055 1_565 S
O14 C18 1.232 1_565 S
H15 C11 0.931 . S
H16 C12 0.930 . S
O17 Co6 2.039 1_565 S
O17 C7 1.283 . S
C18 O14 1.232 1_545 S
C18 O19 1.267 . S
O19 C18 1.267 . S
N20 Co6 2.140 . S
N20 C23 1.346 . S
N20 C24 1.345 . S
C21 C22 1.387 . S
C21 C25 1.391 . S
C22 C21 1.387 . S
C22 C23 1.369 . S
C22 H31 0.929 . S
C23 N20 1.346 . S
C23 C22 1.369 . S
C23 H26 0.928 . S
C24 N20 1.345 . S
C24 C25 1.371 . S
C24 H27 0.931 . S
C25 C21 1.391 . S
C25 C24 1.371 . S
C25 H32 0.930 . S
H26 C23 0.928 . S
H27 C24 0.931 . S
H28 C4 0.930 . S
H29 C1 0.930 . S
H30 C10 0.930 . S
H31 C22 0.929 . S
H32 C25 0.930 . S
C33 C34 1.351 . S
C33 N36 1.368 . S
C33 H38 0.931 . S
C34 C33 1.351 . S
C34 N35 1.373 . S
C34 H62 0.930 . S
N35 C34 1.373 . S
N35 C37 1.340 . S
N36 C33 1.368 . S
N36 C37 1.321 . S
N36 Co39 2.135 . S
C37 N35 1.340 . S
C37 N36 1.321 . S
C37 H61 0.930 . S
H38 C33 0.931 . S
Co39 N36 2.135 . S
Co39 N42 2.121 1_455 S
Co39 O47 2.055 . S
Co39 O50 2.039 . S
Co39 N53 2.140 1_455 S
C40 O41 1.227 . S
C40 O50 1.265 . S
O41 C40 1.227 . S
N42 Co39 2.121 1_655 S
N42 C44 1.375 . S
N42 C45 1.313 . S
C43 C44 1.338 . S
C43 N46 1.377 . S
C43 H63 0.930 . S
C44 N42 1.375 . S
C44 C43 1.338 . S
C44 H48 0.931 . S
C45 N42 1.313 . S
C45 N46 1.344 . S
C45 H49 0.930 . S
N46 C43 1.377 . S
N46 C45 1.344 . S
O47 Co39 2.055 . S
O47 C51 1.253 . S
H48 C44 0.931 . S
H49 C45 0.930 . S
O50 Co39 2.039 . S
O50 C40 1.265 . S
C51 O47 1.253 . S
C51 O52 1.237 . S
O52 C51 1.237 . S
N53 Co39 2.140 1_655 S
N53 C56 1.346 . S
N53 C57 1.345 . S
C54 C55 1.387 . S
C54 C58 1.391 . S
C55 C54 1.387 . S
C55 C56 1.369 . S
C55 H64 0.929 . S
C56 N53 1.346 . S
C56 C55 1.369 . S
C56 H59 0.928 . S
C57 N53 1.345 . S
C57 C58 1.371 . S
C57 H60 0.931 . S
C58 C54 1.391 . S
C58 C57 1.371 . S
C58 H65 0.930 . S
H59 C56 0.928 . S
H60 C57 0.931 . S
H61 C37 0.930 . S
H62 C34 0.930 . S
H63 C43 0.930 . S
H64 C55 0.929 . S
H65 C58 0.930 . S
C66 C67 1.351 . S
C66 N69 1.368 . S
C66 H71 0.931 . S
C67 C66 1.351 . S
C67 N68 1.373 . S
C67 H95 0.930 . S
N68 C67 1.373 . S
N68 C70 1.340 . S
N69 C66 1.368 . S
N69 C70 1.321 . S
N69 Co72 2.135 . S
C70 N68 1.340 . S
C70 N69 1.321 . S
C70 H94 0.930 . S
H71 C66 0.931 . S
Co72 N69 2.135 . S
Co72 N75 2.121 . S
Co72 O80 2.055 . S
Co72 O83 2.039 . S
Co72 N86 2.140 . S
C73 O74 1.227 . S
C73 O83 1.265 . S
O74 C73 1.227 . S
N75 Co72 2.121 . S
N75 C77 1.375 . S
N75 C78 1.313 . S
C76 C77 1.338 . S
C76 N79 1.377 . S
C76 H96 0.930 . S
C77 N75 1.375 . S
C77 C76 1.338 . S
C77 H81 0.931 . S
C78 N75 1.313 . S
C78 N79 1.344 . S
C78 H82 0.930 . S
N79 C76 1.377 . S
N79 C78 1.344 . S
O80 Co72 2.055 . S
O80 C84 1.253 . S
H81 C77 0.931 . S
H82 C78 0.930 . S
O83 Co72 2.039 . S
O83 C73 1.265 . S
C84 O80 1.253 . S
C84 O85 1.227 . S
O85 C84 1.227 . S
N86 Co72 2.140 . S
N86 C89 1.346 . S
N86 C90 1.345 . S
C87 C88 1.387 . S
C87 C91 1.391 . S
C88 C87 1.387 . S
C88 C89 1.369 . S
C88 H97 0.929 . S
C89 N86 1.346 . S
C89 C88 1.369 . S
C89 H92 0.928 . S
C90 N86 1.345 . S
C90 C91 1.371 . S
C90 H93 0.931 . S
C91 C87 1.391 . S
C91 C90 1.371 . S
C91 H98 0.930 . S
H92 C89 0.928 . S
H93 C90 0.931 . S
H94 C70 0.930 . S
H95 C67 0.930 . S
H96 C76 0.930 . S
H97 C88 0.929 . S
H98 C91 0.930 . S
C99 C100 1.351 . S
C99 N102 1.368 . S
C99 H104 0.931 . S
C100 C99 1.351 . S
C100 N101 1.373 . S
C100 H128 0.930 . S
N101 C100 1.373 . S
N101 C103 1.340 . S
N102 C99 1.368 . S
N102 C103 1.321 . S
N102 Co105 2.135 1_655 S
C103 N101 1.340 . S
C103 N102 1.321 . S
C103 H127 0.930 . S
H104 C99 0.931 . S
Co105 N102 2.135 1_455 S
Co105 N108 2.121 . S
Co105 O113 2.055 1_455 S
Co105 O116 2.039 1_455 S
Co105 N119 2.140 . S
C106 O107 1.192 1_655 S
C106 O116 1.283 . S
O107 C106 1.192 1_455 S
N108 Co105 2.121 . S
N108 C110 1.375 . S
N108 C111 1.313 . S
C109 C110 1.338 . S
C109 N112 1.377 . S
C109 H129 0.930 . S
C110 N108 1.375 . S
C110 C109 1.338 . S
C110 H114 0.931 . S
C111 N108 1.313 . S
C111 N112 1.344 . S
C111 H115 0.930 . S
N112 C109 1.377 . S
N112 C111 1.344 . S
O113 Co105 2.055 1_655 S
O113 C117 1.232 1_655 S
H114 C110 0.931 . S
H115 C111 0.930 . S
O116 Co105 2.039 1_655 S
O116 C106 1.283 . S
C117 O113 1.232 1_455 S
C117 O118 1.267 . S
O118 C117 1.267 . S
N119 Co105 2.140 . S
N119 C122 1.346 . S
N119 C123 1.345 . S
C120 C121 1.387 . S
C120 C124 1.391 . S
C121 C120 1.387 . S
C121 C122 1.369 . S
C121 H130 0.929 . S
C122 N119 1.346 . S
C122 C121 1.369 . S
C122 H125 0.928 . S
C123 N119 1.345 . S
C123 C124 1.371 . S
C123 H126 0.931 . S
C124 C120 1.391 . S
C124 C123 1.371 . S
C124 H131 0.930 . S
H125 C122 0.928 . S
H126 C123 0.931 . S
H127 C103 0.930 . S
H128 C100 0.930 . S
H129 C109 0.930 . S
H130 C121 0.929 . S
H131 C124 0.930 . S
C132 C133 1.351 . S
C132 N135 1.368 . S
C132 H137 0.931 . S
C133 C132 1.351 . S
C133 N134 1.373 . S
C133 H161 0.930 . S
N134 C133 1.373 . S
N134 C136 1.340 . S
N135 C132 1.368 . S
N135 C136 1.321 . S
N135 Co138 2.135 . S
C136 N134 1.340 . S
C136 N135 1.321 . S
C136 H160 0.930 . S
H137 C132 0.931 . S
Co138 N135 2.135 . S
Co138 N141 2.121 . S
Co138 O146 2.055 . S
Co138 O149 2.039 . S
Co138 N152 2.140 . S
C139 O140 1.227 . S
C139 O149 1.265 . S
O140 C139 1.227 . S
N141 Co138 2.121 . S
N141 C143 1.375 . S
N141 C144 1.313 . S
C142 C143 1.338 . S
C142 N145 1.377 . S
C142 H162 0.930 . S
C143 N141 1.375 . S
C143 C142 1.338 . S
C143 H147 0.931 . S
C144 N141 1.313 . S
C144 N145 1.344 . S
C144 H148 0.930 . S
N145 C142 1.377 . S
N145 C144 1.344 . S
O146 Co138 2.055 . S
O146 C150 1.253 . S
H147 C143 0.931 . S
H148 C144 0.930 . S
O149 Co138 2.039 . S
O149 C139 1.265 . S
C150 O146 1.253 . S
C150 O151 1.227 . S
O151 C150 1.227 . S
N152 Co138 2.140 . S
N152 C155 1.346 . S
N152 C156 1.345 . S
C153 C154 1.387 . S
C153 C157 1.391 . S
C154 C153 1.387 . S
C154 C155 1.369 . S
C154 H163 0.929 . S
C155 N152 1.346 . S
C155 C154 1.369 . S
C155 H158 0.928 . S
C156 N152 1.345 . S
C156 C157 1.371 . S
C156 H159 0.931 . S
C157 C153 1.391 . S
C157 C156 1.371 . S
C157 H164 0.930 . S
H158 C155 0.928 . S
H159 C156 0.931 . S
H160 C136 0.930 . S
H161 C133 0.930 . S
H162 C142 0.930 . S
H163 C154 0.929 . S
H164 C157 0.930 . S
C165 C166 1.351 . S
C165 N168 1.368 . S
C165 H170 0.931 . S
C166 C165 1.351 . S
C166 N167 1.373 . S
C166 H194 0.930 . S
N167 C166 1.373 . S
N167 C169 1.340 . S
N168 C165 1.368 . S
N168 C169 1.321 . S
N168 Co171 2.135 . S
C169 N167 1.340 . S
C169 N168 1.321 . S
C169 H193 0.930 . S
H170 C165 0.931 . S
Co171 N168 2.135 . S
Co171 N174 2.121 1_545 S
Co171 O179 2.055 . S
Co171 O182 2.039 . S
Co171 N185 2.140 1_545 S
C172 O173 1.227 . S
C172 O182 1.265 . S
O173 C172 1.227 . S
N174 Co171 2.121 1_565 S
N174 C176 1.375 . S
N174 C177 1.313 . S
C175 C176 1.338 . S
C175 N178 1.377 . S
C175 H195 0.930 . S
C176 N174 1.375 . S
C176 C175 1.338 . S
C176 H180 0.931 . S
C177 N174 1.313 . S
C177 N178 1.344 . S
C177 H181 0.930 . S
N178 C175 1.377 . S
N178 C177 1.344 . S
O179 Co171 2.055 . S
O179 C183 1.253 . S
H180 C176 0.931 . S
H181 C177 0.930 . S
O182 Co171 2.039 . S
O182 C172 1.265 . S
C183 O179 1.253 . S
C183 O184 1.237 . S
O184 C183 1.237 . S
N185 Co171 2.140 1_565 S
N185 C188 1.346 . S
N185 C189 1.345 . S
C186 C187 1.387 . S
C186 C190 1.391 . S
C187 C186 1.387 . S
C187 C188 1.369 . S
C187 H196 0.929 . S
C188 N185 1.346 . S
C188 C187 1.369 . S
C188 H191 0.928 . S
C189 N185 1.345 . S
C189 C190 1.371 . S
C189 H192 0.931 . S
C190 C186 1.391 . S
C190 C189 1.371 . S
C190 H197 0.930 . S
H191 C188 0.928 . S
H192 C189 0.931 . S
H193 C169 0.930 . S
H194 C166 0.930 . S
H195 C175 0.930 . S
H196 C187 0.929 . S
H197 C190 0.930 . S
C198 C199 1.351 . S
C198 N201 1.368 . S
C198 H203 0.931 . S
C199 C198 1.351 . S
C199 N200 1.373 . S
C199 H227 0.930 . S
N200 C199 1.373 . S
N200 C202 1.340 . S
N201 C198 1.368 . S
N201 C202 1.321 . S
N201 Co204 2.135 . S
C202 N200 1.340 . S
C202 N201 1.321 . S
C202 H226 0.930 . S
H203 C198 0.931 . S
Co204 N201 2.135 . S
Co204 N207 2.121 . S
Co204 O212 2.055 . S
Co204 O215 2.039 . S
Co204 N218 2.140 . S
C205 O206 1.227 . S
C205 O215 1.265 . S
O206 C205 1.227 . S
N207 Co204 2.121 . S
N207 C209 1.375 . S
N207 C210 1.313 . S
C208 C209 1.338 . S
C208 N211 1.377 . S
C208 H228 0.930 . S
C209 N207 1.375 . S
C209 C208 1.338 . S
C209 H213 0.931 . S
C210 N207 1.313 . S
C210 N211 1.344 . S
C210 H214 0.930 . S
N211 C208 1.377 . S
N211 C210 1.344 . S
O212 Co204 2.055 . S
O212 C216 1.253 . S
H213 C209 0.931 . S
H214 C210 0.930 . S
O215 Co204 2.039 . S
O215 C205 1.265 . S
C216 O212 1.253 . S
C216 O217 1.227 . S
O217 C216 1.227 . S
N218 Co204 2.140 . S
N218 C221 1.346 . S
N218 C222 1.345 . S
C219 C220 1.387 . S
C219 C223 1.391 . S
C220 C219 1.387 . S
C220 C221 1.369 . S
C220 H229 0.929 . S
C221 N218 1.346 . S
C221 C220 1.369 . S
C221 H224 0.928 . S
C222 N218 1.345 . S
C222 C223 1.371 . S
C222 H225 0.931 . S
C223 C219 1.391 . S
C223 C222 1.371 . S
C223 H230 0.930 . S
H224 C221 0.928 . S
H225 C222 0.931 . S
H226 C202 0.930 . S
H227 C199 0.930 . S
H228 C208 0.930 . S
H229 C220 0.929 . S
H230 C223 0.930 . S
C231 C232 1.351 . S
C231 N234 1.368 . S
C231 H236 0.931 . S
C232 C231 1.351 . S
C232 N233 1.373 . S
C232 H260 0.930 . S
N233 C232 1.373 . S
N233 C235 1.340 . S
N234 C231 1.368 . S
N234 C235 1.321 . S
N234 Co237 2.135 . S
C235 N233 1.340 . S
C235 N234 1.321 . S
C235 H259 0.930 . S
H236 C231 0.931 . S
Co237 N234 2.135 . S
Co237 N240 2.121 . S
Co237 O245 2.055 . S
Co237 O248 2.039 . S
Co237 N251 2.140 . S
C238 O239 1.227 . S
C238 O248 1.265 . S
O239 C238 1.227 . S
N240 Co237 2.121 . S
N240 C242 1.375 . S
N240 C243 1.313 . S
C241 C242 1.338 . S
C241 N244 1.377 . S
C241 H261 0.930 . S
C242 N240 1.375 . S
C242 C241 1.338 . S
C242 H246 0.931 . S
C243 N240 1.313 . S
C243 N244 1.344 . S
C243 H247 0.930 . S
N244 C241 1.377 . S
N244 C243 1.344 . S
O245 Co237 2.055 . S
O245 C249 1.253 . S
H246 C242 0.931 . S
H247 C243 0.930 . S
O248 Co237 2.039 . S
O248 C238 1.265 . S
C249 O245 1.253 . S
C249 O250 1.227 . S
O250 C249 1.227 . S
N251 Co237 2.140 . S
N251 C254 1.346 . S
N251 C255 1.345 . S
C252 C253 1.387 . S
C252 C256 1.391 . S
C253 C252 1.387 . S
C253 C254 1.369 . S
C253 H262 0.929 . S
C254 N251 1.346 . S
C254 C253 1.369 . S
C254 H257 0.928 . S
C255 N251 1.345 . S
C255 C256 1.371 . S
C255 H258 0.931 . S
C256 C252 1.391 . S
C256 C255 1.371 . S
C256 H263 0.930 . S
H257 C254 0.928 . S
H258 C255 0.931 . S
H259 C235 0.930 . S
H260 C232 0.930 . S
H261 C241 0.930 . S
H262 C253 0.929 . S
H263 C256 0.930 . S
C264 C265 1.351 . S
C264 N267 1.368 . S
C264 H269 0.931 . S
C265 C264 1.351 . S
C265 N266 1.373 . S
C265 H293 0.930 . S
N266 C265 1.373 . S
N266 C268 1.340 . S
N267 C264 1.368 . S
N267 C268 1.321 . S
N267 Co270 2.135 . S
C268 N266 1.340 . S
C268 N267 1.321 . S
C268 H292 0.930 . S
H269 C264 0.931 . S
Co270 N267 2.135 . S
Co270 N273 2.121 . S
Co270 O278 2.055 . S
Co270 O281 2.039 . S
Co270 N284 2.140 . S
C271 O272 1.227 . S
C271 O281 1.265 . S
O272 C271 1.227 . S
N273 Co270 2.121 . S
N273 C275 1.375 . S
N273 C276 1.313 . S
C274 C275 1.338 . S
C274 N277 1.377 . S
C274 H294 0.930 . S
C275 N273 1.375 . S
C275 C274 1.338 . S
C275 H279 0.931 . S
C276 N273 1.313 . S
C276 N277 1.344 . S
C276 H280 0.930 . S
N277 C274 1.377 . S
N277 C276 1.344 . S
O278 Co270 2.055 . S
O278 C282 1.253 . S
H279 C275 0.931 . S
H280 C276 0.930 . S
O281 Co270 2.039 . S
O281 C271 1.265 . S
C282 O278 1.253 . S
C282 O283 1.227 . S
O283 C282 1.227 . S
N284 Co270 2.140 . S
N284 C287 1.346 . S
N284 C288 1.345 . S
C285 C286 1.387 . S
C285 C289 1.391 . S
C286 C285 1.387 . S
C286 C287 1.369 . S
C286 H295 0.929 . S
C287 N284 1.346 . S
C287 C286 1.369 . S
C287 H290 0.928 . S
C288 N284 1.345 . S
C288 C289 1.371 . S
C288 H291 0.931 . S
C289 C285 1.391 . S
C289 C288 1.371 . S
C289 H296 0.930 . S
H290 C287 0.928 . S
H291 C288 0.931 . S
H292 C268 0.930 . S
H293 C265 0.930 . S
H294 C274 0.930 . S
H295 C286 0.929 . S
H296 C289 0.930 . S
C297 C298 1.351 . S
C297 N300 1.368 . S
C297 H302 0.931 . S
C298 C297 1.351 . S
C298 N299 1.373 . S
C298 H326 0.930 . S
N299 C298 1.373 . S
N299 C301 1.340 . S
N300 C297 1.368 . S
N300 C301 1.321 . S
N300 Co303 2.135 . S
C301 N299 1.340 . S
C301 N300 1.321 . S
C301 H325 0.930 . S
H302 C297 0.931 . S
Co303 N300 2.135 . S
Co303 N306 2.121 . S
Co303 O311 2.055 . S
Co303 O314 2.039 . S
Co303 N317 2.140 . S
C304 O305 1.227 . S
C304 O314 1.265 1_556 S
O305 C304 1.227 . S
N306 Co303 2.121 . S
N306 C308 1.375 . S
N306 C309 1.313 . S
C307 C308 1.338 . S
C307 N310 1.377 . S
C307 H327 0.930 . S
C308 N306 1.375 . S
C308 C307 1.338 . S
C308 H312 0.931 1_554 S
C309 N306 1.313 . S
C309 N310 1.344 . S
C309 H313 0.930 . S
N310 C307 1.377 . S
N310 C309 1.344 . S
O311 Co303 2.055 . S
O311 C315 1.253 . S
H312 C308 0.931 1_556 S
H313 C309 0.930 . S
O314 Co303 2.039 . S
O314 C304 1.265 1_554 S
C315 O311 1.253 . S
C315 O316 1.227 . S
O316 C315 1.227 . S
N317 Co303 2.140 . S
N317 C320 1.346 . S
N317 C321 1.345 . S
C318 C319 1.387 . S
C318 C322 1.391 . S
C319 C318 1.387 . S
C319 C320 1.369 . S
C319 H328 0.929 . S
C320 N317 1.346 . S
C320 C319 1.369 . S
C320 H323 0.928 . S
C321 N317 1.345 . S
C321 C322 1.371 . S
C321 H324 0.931 . S
C322 C318 1.391 . S
C322 C321 1.371 . S
C322 H329 0.930 . S
H323 C320 0.928 . S
H324 C321 0.931 . S
H325 C301 0.930 . S
H326 C298 0.930 . S
H327 C307 0.930 . S
H328 C319 0.929 . S
H329 C322 0.930 . S
C330 C331 1.351 . S
C330 N333 1.368 . S
C330 H335 0.931 . S
C331 C330 1.351 . S
C331 N332 1.373 . S
C331 H359 0.930 . S
N332 C331 1.373 . S
N332 C334 1.340 . S
N333 C330 1.368 . S
N333 C334 1.321 . S
N333 Co336 2.135 . S
C334 N332 1.340 . S
C334 N333 1.321 . S
C334 H358 0.930 . S
H335 C330 0.931 . S
Co336 N333 2.135 . S
Co336 N339 2.121 . S
Co336 O344 2.055 . S
Co336 O347 2.039 . S
Co336 N350 2.140 . S
C337 O338 1.227 . S
C337 O347 1.265 1_556 S
O338 C337 1.227 . S
N339 Co336 2.121 . S
N339 C341 1.375 . S
N339 C342 1.313 . S
C340 C341 1.338 . S
C340 N343 1.377 . S
C340 H360 0.930 . S
C341 N339 1.375 . S
C341 C340 1.338 . S
C341 H345 0.931 1_554 S
C342 N339 1.313 . S
C342 N343 1.344 . S
C342 H346 0.930 . S
N343 C340 1.377 . S
N343 C342 1.344 . S
O344 Co336 2.055 . S
O344 C348 1.253 . S
H345 C341 0.931 1_556 S
H346 C342 0.930 . S
O347 Co336 2.039 . S
O347 C337 1.265 1_554 S
C348 O344 1.253 . S
C348 O349 1.227 . S
O349 C348 1.227 . S
N350 Co336 2.140 . S
N350 C353 1.346 . S
N350 C354 1.345 . S
C351 C352 1.387 . S
C351 C355 1.391 . S
C352 C351 1.387 . S
C352 C353 1.369 . S
C352 H361 0.929 . S
C353 N350 1.346 . S
C353 C352 1.369 . S
C353 H356 0.928 . S
C354 N350 1.345 . S
C354 C355 1.371 . S
C354 H357 0.931 . S
C355 C351 1.391 . S
C355 C354 1.371 . S
C355 H362 0.930 . S
H356 C353 0.928 . S
H357 C354 0.931 . S
H358 C334 0.930 . S
H359 C331 0.930 . S
H360 C340 0.930 . S
H361 C352 0.929 . S
H362 C355 0.930 . S
C363 C364 1.351 . S
C363 N366 1.368 . S
C363 H368 0.931 . S
C364 C363 1.351 . S
C364 N365 1.373 . S
C364 H392 0.930 . S
N365 C364 1.373 . S
N365 C367 1.340 . S
N366 C363 1.368 . S
N366 C367 1.321 . S
N366 Co369 2.135 . S
C367 N365 1.340 . S
C367 N366 1.321 . S
C367 H391 0.930 . S
H368 C363 0.931 . S
Co369 N366 2.135 . S
Co369 N372 2.121 . S
Co369 O377 2.055 . S
Co369 O380 2.039 . S
Co369 N383 2.140 . S
C370 O371 1.227 . S
C370 O380 1.265 1_556 S
O371 C370 1.227 . S
N372 Co369 2.121 . S
N372 C374 1.375 . S
N372 C375 1.313 . S
C373 C374 1.338 . S
C373 N376 1.377 . S
C373 H393 0.930 . S
C374 N372 1.375 . S
C374 C373 1.338 . S
C374 H378 0.931 1_554 S
C375 N372 1.313 . S
C375 N376 1.344 . S
C375 H379 0.930 . S
N376 C373 1.377 . S
N376 C375 1.344 . S
O377 Co369 2.055 . S
O377 C381 1.253 . S
H378 C374 0.931 1_556 S
H379 C375 0.930 . S
O380 Co369 2.039 . S
O380 C370 1.265 1_554 S
C381 O377 1.253 . S
C381 O382 1.227 . S
O382 C381 1.227 . S
N383 Co369 2.140 . S
N383 C386 1.346 . S
N383 C387 1.345 . S
C384 C385 1.387 . S
C384 C388 1.391 . S
C385 C384 1.387 . S
C385 C386 1.369 . S
C385 H394 0.929 . S
C386 N383 1.346 . S
C386 C385 1.369 . S
C386 H389 0.928 . S
C387 N383 1.345 . S
C387 C388 1.371 . S
C387 H390 0.931 . S
C388 C384 1.391 . S
C388 C387 1.371 . S
C388 H395 0.930 . S
H389 C386 0.928 . S
H390 C387 0.931 . S
H391 C367 0.930 . S
H392 C364 0.930 . S
H393 C373 0.930 . S
H394 C385 0.929 . S
H395 C388 0.930 . S
C396 C397 1.351 . S
C396 N399 1.368 . S
C396 H401 0.931 . S
C397 C396 1.351 . S
C397 N398 1.373 . S
C397 H425 0.930 . S
N398 C397 1.373 . S
N398 C400 1.340 . S
N399 C396 1.368 . S
N399 C400 1.321 . S
N399 Co402 2.135 . S
C400 N398 1.340 . S
C400 N399 1.321 . S
C400 H424 0.930 . S
H401 C396 0.931 . S
Co402 N399 2.135 . S
Co402 N405 2.121 . S
Co402 O410 2.055 . S
Co402 O413 2.039 . S
Co402 N416 2.140 . S
C403 O404 1.227 . S
C403 O413 1.265 1_554 S
O404 C403 1.227 . S
N405 Co402 2.121 . S
N405 C407 1.375 . S
N405 C408 1.313 . S
C406 C407 1.338 . S
C406 N409 1.377 . S
C406 H426 0.930 . S
C407 N405 1.375 . S
C407 C406 1.338 . S
C407 H411 0.931 1_556 S
C408 N405 1.313 . S
C408 N409 1.344 . S
C408 H412 0.930 . S
N409 C406 1.377 . S
N409 C408 1.344 . S
O410 Co402 2.055 . S
O410 C414 1.253 . S
H411 C407 0.931 1_554 S
H412 C408 0.930 . S
O413 Co402 2.039 . S
O413 C403 1.265 1_556 S
C414 O410 1.253 . S
C414 O415 1.227 . S
O415 C414 1.227 . S
N416 Co402 2.140 . S
N416 C419 1.346 . S
N416 C420 1.345 . S
C417 C418 1.387 . S
C417 C421 1.391 . S
C418 C417 1.387 . S
C418 C419 1.369 . S
C418 H427 0.929 . S
C419 N416 1.346 . S
C419 C418 1.369 . S
C419 H422 0.928 . S
C420 N416 1.345 . S
C420 C421 1.371 . S
C420 H423 0.931 . S
C421 C417 1.391 . S
C421 C420 1.371 . S
C421 H428 0.930 . S
H422 C419 0.928 . S
H423 C420 0.931 . S
H424 C400 0.930 . S
H425 C397 0.930 . S
H426 C406 0.930 . S
H427 C418 0.929 . S
H428 C421 0.930 . S
C429 C430 1.351 . S
C429 N432 1.368 . S
C429 H434 0.931 . S
C430 C429 1.351 . S
C430 N431 1.373 . S
C430 H458 0.930 . S
N431 C430 1.373 . S
N431 C433 1.340 . S
N432 C429 1.368 . S
N432 C433 1.321 . S
N432 Co435 2.135 . S
C433 N431 1.340 . S
C433 N432 1.321 . S
C433 H457 0.930 . S
H434 C429 0.931 . S
Co435 N432 2.135 . S
Co435 N438 2.121 . S
Co435 O443 2.055 . S
Co435 O446 2.039 . S
Co435 N449 2.140 . S
C436 O437 1.227 . S
C436 O446 1.265 1_554 S
O437 C436 1.227 . S
N438 Co435 2.121 . S
N438 C440 1.375 . S
N438 C441 1.313 . S
C439 C440 1.338 . S
C439 N442 1.377 . S
C439 H459 0.930 . S
C440 N438 1.375 . S
C440 C439 1.338 . S
C440 H444 0.931 1_556 S
C441 N438 1.313 . S
C441 N442 1.344 . S
C441 H445 0.930 . S
N442 C439 1.377 . S
N442 C441 1.344 . S
O443 Co435 2.055 . S
O443 C447 1.253 . S
H444 C440 0.931 1_554 S
H445 C441 0.930 . S
O446 Co435 2.039 . S
O446 C436 1.265 1_556 S
C447 O443 1.253 . S
C447 O448 1.227 . S
O448 C447 1.227 . S
N449 Co435 2.140 . S
N449 C452 1.346 . S
N449 C453 1.345 . S
C450 C451 1.387 . S
C450 C454 1.391 . S
C451 C450 1.387 . S
C451 C452 1.369 . S
C451 H460 0.929 . S
C452 N449 1.346 . S
C452 C451 1.369 . S
C452 H455 0.928 . S
C453 N449 1.345 . S
C453 C454 1.371 . S
C453 H456 0.931 . S
C454 C450 1.391 . S
C454 C453 1.371 . S
C454 H461 0.930 . S
H455 C452 0.928 . S
H456 C453 0.931 . S
H457 C433 0.930 . S
H458 C430 0.930 . S
H459 C439 0.930 . S
H460 C451 0.929 . S
H461 C454 0.930 . S
C462 C463 1.351 . S
C462 N465 1.368 . S
C462 H467 0.931 . S
C463 C462 1.351 . S
C463 N464 1.373 . S
C463 H491 0.930 . S
N464 C463 1.373 . S
N464 C466 1.340 . S
N465 C462 1.368 . S
N465 C466 1.321 . S
N465 Co468 2.135 . S
C466 N464 1.340 . S
C466 N465 1.321 . S
C466 H490 0.930 . S
H467 C462 0.931 . S
Co468 N465 2.135 . S
Co468 N471 2.121 . S
Co468 O476 2.055 . S
Co468 O479 2.039 . S
Co468 N482 2.140 . S
C469 O470 1.227 . S
C469 O479 1.265 1_554 S
O470 C469 1.227 . S
N471 Co468 2.121 . S
N471 C473 1.375 . S
N471 C474 1.313 . S
C472 C473 1.338 . S
C472 N475 1.377 . S
C472 H492 0.930 . S
C473 N471 1.375 . S
C473 C472 1.338 . S
C473 H477 0.931 1_556 S
C474 N471 1.313 . S
C474 N475 1.344 . S
C474 H478 0.930 . S
N475 C472 1.377 . S
N475 C474 1.344 . S
O476 Co468 2.055 . S
O476 C480 1.253 . S
H477 C473 0.931 1_554 S
H478 C474 0.930 . S
O479 Co468 2.039 . S
O479 C469 1.265 1_556 S
C480 O476 1.253 . S
C480 O481 1.227 . S
O481 C480 1.227 . S
N482 Co468 2.140 . S
N482 C485 1.346 . S
N482 C486 1.345 . S
C483 C484 1.387 . S
C483 C487 1.391 . S
C484 C483 1.387 . S
C484 C485 1.369 . S
C484 H493 0.929 . S
C485 N482 1.346 . S
C485 C484 1.369 . S
C485 H488 0.928 . S
C486 N482 1.345 . S
C486 C487 1.371 . S
C486 H489 0.931 . S
C487 C483 1.391 . S
C487 C486 1.371 . S
C487 H494 0.930 . S
H488 C485 0.928 . S
H489 C486 0.931 . S
H490 C466 0.930 . S
H491 C463 0.930 . S
H492 C472 0.930 . S
H493 C484 0.929 . S
H494 C487 0.930 . S
C495 C496 1.351 . S
C495 N498 1.368 . S
C495 H500 0.931 . S
C496 C495 1.351 . S
C496 N497 1.373 . S
C496 H524 0.930 . S
N497 C496 1.373 . S
N497 C499 1.340 . S
N498 C495 1.368 . S
N498 C499 1.321 . S
N498 Co501 2.135 . S
C499 N497 1.340 . S
C499 N498 1.321 . S
C499 H523 0.930 . S
H500 C495 0.931 . S
Co501 N498 2.135 . S
Co501 N504 2.121 . S
Co501 O509 2.055 . S
Co501 O512 2.039 . S
Co501 N515 2.140 . S
C502 O503 1.227 . S
C502 O512 1.265 . S
O503 C502 1.227 . S
N504 Co501 2.121 . S
N504 C506 1.375 . S
N504 C507 1.313 . S
C505 C506 1.338 . S
C505 N508 1.377 . S
C505 H525 0.930 . S
C506 N504 1.375 . S
C506 C505 1.338 . S
C506 H510 0.931 . S
C507 N504 1.313 . S
C507 N508 1.344 . S
C507 H511 0.930 . S
N508 C505 1.377 . S
N508 C507 1.344 . S
O509 Co501 2.055 . S
O509 C513 1.253 . S
H510 C506 0.931 . S
H511 C507 0.930 . S
O512 Co501 2.039 . S
O512 C502 1.265 . S
C513 O509 1.253 . S
C513 O514 1.227 . S
O514 C513 1.227 . S
N515 Co501 2.140 . S
N515 C518 1.346 . S
N515 C519 1.345 . S
C516 C517 1.387 . S
C516 C520 1.391 . S
C517 C516 1.387 . S
C517 C518 1.369 . S
C517 H526 0.929 . S
C518 N515 1.346 . S
C518 C517 1.369 . S
C518 H521 0.928 . S
C519 N515 1.345 . S
C519 C520 1.371 . S
C519 H522 0.931 . S
C520 C516 1.391 . S
C520 C519 1.371 . S
C520 H527 0.930 . S
H521 C518 0.928 . S
H522 C519 0.931 . S
H523 C499 0.930 . S
H524 C496 0.930 . S
H525 C505 0.930 . S
H526 C517 0.929 . S
H527 C520 0.930 . S
C528 C529 1.351 . S
C528 N531 1.368 . S
C528 H533 0.931 . S
C529 C528 1.351 . S
C529 N530 1.373 . S
C529 H557 0.930 . S
N530 C529 1.373 . S
N530 C532 1.340 . S
N531 C528 1.368 . S
N531 C532 1.321 . S
N531 Co534 2.135 . S
C532 N530 1.340 . S
C532 N531 1.321 . S
C532 H556 0.930 . S
H533 C528 0.931 . S
Co534 N531 2.135 . S
Co534 N537 2.121 . S
Co534 O542 2.055 . S
Co534 O545 2.039 . S
Co534 N548 2.140 . S
C535 O536 1.227 . S
C535 O545 1.265 . S
O536 C535 1.227 . S
N537 Co534 2.121 . S
N537 C539 1.375 . S
N537 C540 1.313 . S
C538 C539 1.338 . S
C538 N541 1.377 . S
C538 H558 0.930 . S
C539 N537 1.375 . S
C539 C538 1.338 . S
C539 H543 0.931 . S
C540 N537 1.313 . S
C540 N541 1.344 . S
C540 H544 0.930 . S
N541 C538 1.377 . S
N541 C540 1.344 . S
O542 Co534 2.055 . S
O542 C546 1.253 . S
H543 C539 0.931 . S
H544 C540 0.930 . S
O545 Co534 2.039 . S
O545 C535 1.265 . S
C546 O542 1.253 . S
C546 O547 1.227 . S
O547 C546 1.227 . S
N548 Co534 2.140 . S
N548 C551 1.346 . S
N548 C552 1.345 . S
C549 C550 1.387 . S
C549 C553 1.391 . S
C550 C549 1.387 . S
C550 C551 1.369 . S
C550 H559 0.929 . S
C551 N548 1.346 . S
C551 C550 1.369 . S
C551 H554 0.928 . S
C552 N548 1.345 . S
C552 C553 1.371 . S
C552 H555 0.931 . S
C553 C549 1.391 . S
C553 C552 1.371 . S
C553 H560 0.930 . S
H554 C551 0.928 . S
H555 C552 0.931 . S
H556 C532 0.930 . S
H557 C529 0.930 . S
H558 C538 0.930 . S
H559 C550 0.929 . S
H560 C553 0.930 . S
C561 C562 1.351 . S
C561 N564 1.368 . S
C561 H566 0.931 . S
C562 C561 1.351 . S
C562 N563 1.373 . S
C562 H590 0.930 . S
N563 C562 1.373 . S
N563 C565 1.340 . S
N564 C561 1.368 . S
N564 C565 1.321 . S
N564 Co567 2.135 . S
C565 N563 1.340 . S
C565 N564 1.321 . S
C565 H589 0.930 . S
H566 C561 0.931 . S
Co567 N564 2.135 . S
Co567 N570 2.121 . S
Co567 O575 2.055 . S
Co567 O578 2.039 . S
Co567 N581 2.140 . S
C568 O569 1.227 . S
C568 O578 1.265 . S
O569 C568 1.227 . S
N570 Co567 2.121 . S
N570 C572 1.375 . S
N570 C573 1.313 . S
C571 C572 1.338 . S
C571 N574 1.377 . S
C571 H591 0.930 . S
C572 N570 1.375 . S
C572 C571 1.338 . S
C572 H576 0.931 . S
C573 N570 1.313 . S
C573 N574 1.344 . S
C573 H577 0.930 . S
N574 C571 1.377 . S
N574 C573 1.344 . S
O575 Co567 2.055 . S
O575 C579 1.253 . S
H576 C572 0.931 . S
H577 C573 0.930 . S
O578 Co567 2.039 . S
O578 C568 1.265 . S
C579 O575 1.253 . S
C579 O580 1.227 . S
O580 C579 1.227 . S
N581 Co567 2.140 . S
N581 C584 1.346 . S
N581 C585 1.345 . S
C582 C583 1.387 . S
C582 C586 1.391 . S
C583 C582 1.387 . S
C583 C584 1.369 . S
C583 H592 0.929 . S
C584 N581 1.346 . S
C584 C583 1.369 . S
C584 H587 0.928 . S
C585 N581 1.345 . S
C585 C586 1.371 . S
C585 H588 0.931 . S
C586 C582 1.391 . S
C586 C585 1.371 . S
C586 H593 0.930 . S
H587 C584 0.928 . S
H588 C585 0.931 . S
H589 C565 0.930 . S
H590 C562 0.930 . S
H591 C571 0.930 . S
H592 C583 0.929 . S
H593 C586 0.930 . S
C594 C595 1.369 . S
C594 C596 1.419 . S
C594 H598 0.930 . S
C595 C594 1.369 . S
C595 C604 1.429 . S
C596 C594 1.419 . S
C596 C597 1.363 . S
C596 H599 0.929 . S
C597 C596 1.363 . S
C597 C603 1.428 . S
H598 C594 0.930 . S
H599 C596 0.929 . S
S600 N601 1.613 . S
S600 N602 1.610 . S
N601 S600 1.613 . S
N601 C604 1.350 . S
N602 S600 1.610 . S
N602 C603 1.351 . S
C603 C597 1.428 . S
C603 N602 1.351 . S
C603 C604 1.434 . S
C604 C595 1.429 . S
C604 N601 1.350 . S
C604 C603 1.434 . S
C605 C606 1.369 . S
C605 C607 1.419 1_565 S
C605 H609 0.930 . S
C606 C605 1.369 . S
C606 C615 1.429 . S
C607 C605 1.419 1_545 S
C607 C608 1.363 . S
C607 H610 0.929 . S
C608 C607 1.363 . S
C608 C614 1.428 . S
H609 C605 0.930 . S
H610 C607 0.929 . S
S611 N612 1.613 . S
S611 N613 1.610 1_565 S
N612 S611 1.613 . S
N612 C615 1.350 . S
N613 S611 1.610 1_545 S
N613 C614 1.351 . S
C614 C608 1.428 . S
C614 N613 1.351 . S
C614 C615 1.434 1_545 S
C615 C606 1.429 . S
C615 N612 1.350 . S
C615 C614 1.434 1_565 S
C616 C617 1.369 1_455 S
C616 C618 1.419 . S
C616 H620 0.931 . S
C617 C616 1.369 1_655 S
C617 C626 1.429 . S
C618 C616 1.419 . S
C618 C619 1.363 . S
C618 H621 0.929 . S
C619 C618 1.363 . S
C619 C625 1.428 . S
H620 C616 0.931 . S
H621 C618 0.929 . S
S622 N623 1.613 1_455 S
S622 N624 1.610 . S
N623 S622 1.613 1_655 S
N623 C626 1.350 . S
N624 S622 1.610 . S
N624 C625 1.351 . S
C625 C619 1.428 . S
C625 N624 1.351 . S
C625 C626 1.434 1_455 S
C626 C617 1.429 . S
C626 N623 1.350 . S
C626 C625 1.434 1_655 S
C627 C628 1.369 . S
C627 C629 1.419 . S
C627 H631 0.930 . S
C628 C627 1.369 . S
C628 C637 1.429 . S
C629 C627 1.419 . S
C629 C630 1.363 . S
C629 H632 0.929 . S
C630 C629 1.363 . S
C630 C636 1.428 . S
H631 C627 0.930 . S
H632 C629 0.929 . S
S633 N634 1.613 . S
S633 N635 1.610 . S
N634 S633 1.613 . S
N634 C637 1.350 . S
N635 S633 1.610 . S
N635 C636 1.351 . S
C636 C630 1.428 . S
C636 N635 1.351 . S
C636 C637 1.434 . S
C637 C628 1.429 . S
C637 N634 1.350 . S
C637 C636 1.434 . S
C638 C639 1.369 . S
C638 C640 1.419 . S
C638 H642 0.930 . S
C639 C638 1.369 . S
C639 C648 1.429 . S
C640 C638 1.419 . S
C640 C641 1.363 1_545 S
C640 H643 0.929 1_545 S
C641 C640 1.363 1_565 S
C641 C647 1.439 . S
H642 C638 0.930 . S
H643 C640 0.929 1_565 S
S644 N645 1.613 . S
S644 N646 1.610 1_545 S
N645 S644 1.613 . S
N645 C648 1.350 . S
N646 S644 1.610 1_565 S
N646 C647 1.368 . S
C647 C641 1.439 . S
C647 N646 1.368 . S
C647 C648 1.403 1_565 S
C648 C639 1.429 . S
C648 N645 1.350 . S
C648 C647 1.403 1_545 S
C649 C650 1.369 . S
C649 C651 1.419 1_455 S
C649 H653 0.930 . S
C650 C649 1.369 . S
C650 C659 1.429 . S
C651 C649 1.419 1_655 S
C651 C652 1.363 . S
C651 H654 0.929 . S
C652 C651 1.363 . S
C652 C658 1.428 . S
H653 C649 0.930 . S
H654 C651 0.929 . S
S655 N656 1.613 1_655 S
S655 N657 1.610 . S
N656 S655 1.613 1_455 S
N656 C659 1.350 . S
N657 S655 1.610 . S
N657 C658 1.351 . S
C658 C652 1.428 . S
C658 N657 1.351 . S
C658 C659 1.434 1_655 S
C659 C650 1.429 . S
C659 N656 1.350 . S
C659 C658 1.434 1_455 S
C660 C661 1.369 . S
C660 C662 1.419 . S
C660 H664 0.930 . S
C661 C660 1.369 . S
C661 C670 1.429 . S
C662 C660 1.419 . S
C662 C663 1.363 . S
C662 H665 0.929 . S
C663 C662 1.363 . S
C663 C669 1.428 . S
H664 C660 0.930 . S
H665 C662 0.929 . S
S666 N667 1.613 . S
S666 N668 1.610 . S
N667 S666 1.613 . S
N667 C670 1.350 . S
N668 S666 1.610 . S
N668 C669 1.351 . S
C669 C663 1.428 . S
C669 N668 1.351 . S
C669 C670 1.434 . S
C670 C661 1.429 . S
C670 N667 1.350 . S
C670 C669 1.434 . S
C671 C672 1.369 . S
C671 C673 1.419 . S
C671 H675 0.930 . S
C672 C671 1.369 . S
C672 C681 1.429 . S
C673 C671 1.419 . S
C673 C674 1.363 . S
C673 H676 0.929 . S
C674 C673 1.363 . S
C674 C680 1.428 . S
H675 C671 0.930 . S
H676 C673 0.929 . S
S677 N678 1.613 . S
S677 N679 1.610 . S
N678 S677 1.613 . S
N678 C681 1.350 . S
N679 S677 1.610 . S
N679 C680 1.351 . S
C680 C674 1.428 . S
C680 N679 1.351 . S
C680 C681 1.434 . S
C681 C672 1.429 . S
C681 N678 1.350 . S
C681 C680 1.434 . S
C682 C683 1.369 . S
C682 C684 1.419 . S
C682 H686 0.930 . S
C683 C682 1.369 . S
C683 C692 1.429 . S
C684 C682 1.419 . S
C684 C685 1.363 . S
C684 H687 0.929 . S
C685 C684 1.363 . S
C685 C691 1.428 . S
H686 C682 0.930 . S
H687 C684 0.929 . S
S688 N689 1.613 . S
S688 N690 1.610 . S
N689 S688 1.613 . S
N689 C692 1.350 . S
N690 S688 1.610 . S
N690 C691 1.351 . S
C691 C685 1.428 . S
C691 N690 1.351 . S
C691 C692 1.434 . S
C692 C683 1.429 . S
C692 N689 1.350 . S
C692 C691 1.434 . S
C693 C694 1.369 . S
C693 C695 1.419 . S
C693 H697 0.930 . S
C694 C693 1.369 . S
C694 C703 1.429 . S
C695 C693 1.419 . S
C695 C696 1.363 . S
C695 H698 0.929 . S
C696 C695 1.363 . S
C696 C702 1.428 . S
H697 C693 0.930 . S
H698 C695 0.929 . S
S699 N700 1.613 . S
S699 N701 1.610 . S
N700 S699 1.613 . S
N700 C703 1.350 1_556 S
N701 S699 1.610 . S
N701 C702 1.351 1_556 S
C702 C696 1.428 . S
C702 N701 1.351 1_554 S
C702 C703 1.434 . S
C703 C694 1.429 . S
C703 N700 1.350 1_554 S
C703 C702 1.434 . S
C704 C705 1.369 . S
C704 C706 1.419 . S
C704 H708 0.930 . S
C705 C704 1.369 . S
C705 C714 1.429 . S
C706 C704 1.419 . S
C706 C707 1.363 . S
C706 H709 0.929 . S
C707 C706 1.363 . S
C707 C713 1.428 . S
H708 C704 0.930 . S
H709 C706 0.929 . S
S710 N711 1.613 . S
S710 N712 1.610 . S
N711 S710 1.613 . S
N711 C714 1.350 1_556 S
N712 S710 1.610 . S
N712 C713 1.351 1_556 S
C713 C707 1.428 . S
C713 N712 1.351 1_554 S
C713 C714 1.434 . S
C714 C705 1.429 . S
C714 N711 1.350 1_554 S
C714 C713 1.434 . S
C715 C716 1.369 . S
C715 C717 1.419 . S
C715 H719 0.930 . S
C716 C715 1.369 . S
C716 C725 1.429 . S
C717 C715 1.419 . S
C717 C718 1.363 . S
C717 H720 0.929 . S
C718 C717 1.363 . S
C718 C724 1.428 . S
H719 C715 0.930 . S
H720 C717 0.929 . S
S721 N722 1.613 1_556 S
S721 N723 1.608 1_556 S
N722 S721 1.613 1_554 S
N722 C725 1.350 . S
N723 S721 1.608 1_554 S
N723 C724 1.357 . S
C724 C718 1.428 . S
C724 N723 1.357 . S
C724 C725 1.434 . S
C725 C716 1.429 . S
C725 N722 1.350 . S
C725 C724 1.434 . S
C726 C727 1.369 . S
C726 C728 1.419 . S
C726 H730 0.930 1_556 S
C727 C726 1.369 . S
C727 C736 1.429 . S
C728 C726 1.419 . S
C728 C729 1.363 . S
C728 H731 0.929 1_556 S
C729 C728 1.363 . S
C729 C735 1.428 . S
H730 C726 0.930 1_554 S
H731 C728 0.929 1_554 S
S732 N733 1.613 . S
S732 N734 1.610 . S
N733 S732 1.613 . S
N733 C736 1.350 . S
N734 S732 1.610 . S
N734 C735 1.351 . S
C735 C729 1.428 . S
C735 N734 1.351 . S
C735 C736 1.434 . S
C736 C727 1.429 . S
C736 N733 1.350 . S
C736 C735 1.434 . S
C737 C738 1.369 . S
C737 C739 1.419 . S
C737 H741 0.930 . S
C738 C737 1.369 . S
C738 C747 1.429 . S
C739 C737 1.419 . S
C739 C740 1.363 . S
C739 H742 0.929 . S
C740 C739 1.363 . S
C740 C746 1.428 . S
H741 C737 0.930 . S
H742 C739 0.929 . S
S743 N744 1.613 . S
S743 N745 1.610 . S
N744 S743 1.613 . S
N744 C747 1.350 1_554 S
N745 S743 1.610 . S
N745 C746 1.351 1_554 S
C746 C740 1.428 . S
C746 N745 1.351 1_556 S
C746 C747 1.434 . S
C747 C738 1.429 . S
C747 N744 1.350 1_556 S
C747 C746 1.434 . S
C748 C749 1.369 . S
C748 C750 1.419 . S
C748 H752 0.930 . S
C749 C748 1.369 . S
C749 C758 1.429 . S
C750 C748 1.419 . S
C750 C751 1.363 . S
C750 H753 0.929 . S
C751 C750 1.363 . S
C751 C757 1.428 . S
H752 C748 0.930 . S
H753 C750 0.929 . S
S754 N755 1.613 . S
S754 N756 1.610 . S
N755 S754 1.613 . S
N755 C758 1.350 . S
N756 S754 1.610 . S
N756 C757 1.351 . S
C757 C751 1.428 . S
C757 N756 1.351 . S
C757 C758 1.434 . S
C758 C749 1.429 . S
C758 N755 1.350 . S
C758 C757 1.434 . S
C759 C760 1.369 . S
C759 C761 1.419 . S
C759 H763 0.930 . S
C760 C759 1.369 . S
C760 C769 1.429 . S
C761 C759 1.419 . S
C761 C762 1.363 . S
C761 H764 0.929 . S
C762 C761 1.363 . S
C762 C768 1.428 . S
H763 C759 0.930 . S
H764 C761 0.929 . S
S765 N766 1.613 . S
S765 N767 1.610 . S
N766 S765 1.613 . S
N766 C769 1.350 . S
N767 S765 1.610 . S
N767 C768 1.351 . S
C768 C762 1.428 . S
C768 N767 1.351 . S
C768 C769 1.434 . S
C769 C760 1.429 . S
C769 N766 1.350 . S
C769 C768 1.434 . S
C770 C771 1.369 . S
C770 C772 1.419 . S
C770 H774 0.930 . S
C771 C770 1.369 . S
C771 C780 1.429 . S
C772 C770 1.419 . S
C772 C773 1.363 . S
C772 H775 0.929 . S
C773 C772 1.363 . S
C773 C779 1.428 . S
H774 C770 0.930 . S
H775 C772 0.929 . S
S776 N777 1.613 . S
S776 N778 1.610 . S
N777 S776 1.613 . S
N777 C780 1.350 . S
N778 S776 1.610 . S
N778 C779 1.351 . S
C779 C773 1.428 . S
C779 N778 1.351 . S
C779 C780 1.434 . S
C780 C771 1.429 . S
C780 N777 1.350 . S
C780 C779 1.434 . S
C781 C782 1.369 . S
C781 C783 1.419 . S
C781 H785 0.930 . S
C782 C781 1.369 . S
C782 C791 1.429 . S
C783 C781 1.419 . S
C783 C784 1.363 . S
C783 H786 0.929 . S
C784 C783 1.363 . S
C784 C790 1.428 . S
H785 C781 0.930 . S
H786 C783 0.929 . S
S787 N788 1.613 . S
S787 N789 1.610 . S
N788 S787 1.613 . S
N788 C791 1.350 . S
N789 S787 1.610 . S
N789 C790 1.351 . S
C790 C784 1.428 . S
C790 N789 1.351 . S
C790 C791 1.434 . S
C791 C782 1.429 . S
C791 N788 1.350 . S
C791 C790 1.434 . S
C792 C793 1.369 . S
C792 C794 1.419 . S
C792 H796 0.930 . S
C793 C792 1.369 . S
C793 C802 1.429 . S
C794 C792 1.419 . S
C794 C795 1.363 . S
C794 H797 0.929 . S
C795 C794 1.363 . S
C795 C801 1.428 . S
H796 C792 0.930 . S
H797 C794 0.929 . S
S798 N799 1.613 . S
S798 N800 1.610 . S
N799 S798 1.613 . S
N799 C802 1.350 . S
N800 S798 1.610 . S
N800 C801 1.351 . S
C801 C795 1.428 . S
C801 N800 1.351 . S
C801 C802 1.434 . S
C802 C793 1.429 . S
C802 N799 1.350 . S
C802 C801 1.434 . S
C803 C804 1.369 . S
C803 C805 1.419 . S
C803 H807 0.930 . S
C804 C803 1.369 . S
C804 C813 1.429 . S
C805 C803 1.419 . S
C805 C806 1.363 . S
C805 H808 0.929 . S
C806 C805 1.363 . S
C806 C812 1.428 . S
H807 C803 0.930 . S
H808 C805 0.929 . S
S809 N810 1.613 . S
S809 N811 1.610 . S
N810 S809 1.613 . S
N810 C813 1.350 . S
N811 S809 1.610 . S
N811 C812 1.351 . S
C812 C806 1.428 . S
C812 N811 1.351 . S
C812 C813 1.434 . S
C813 C804 1.429 . S
C813 N810 1.350 . S
C813 C812 1.434 . S
C814 C815 1.369 . S
C814 C816 1.419 . S
C814 H818 0.930 . S
C815 C814 1.369 . S
C815 C824 1.429 . S
C816 C814 1.419 . S
C816 C817 1.363 . S
C816 H819 0.929 . S
C817 C816 1.363 . S
C817 C823 1.428 . S
H818 C814 0.930 . S
H819 C816 0.929 . S
S820 N821 1.613 . S
S820 N822 1.610 . S
N821 S820 1.613 . S
N821 C824 1.350 . S
N822 S820 1.610 . S
N822 C823 1.351 . S
C823 C817 1.428 . S
C823 N822 1.351 . S
C823 C824 1.434 . S
C824 C815 1.429 . S
C824 N821 1.350 . S
C824 C823 1.434 . S
C825 C826 1.369 . S
C825 C827 1.419 . S
C825 H829 0.930 . S
C826 C825 1.369 . S
C826 C835 1.429 . S
C827 C825 1.419 . S
C827 C828 1.363 . S
C827 H830 0.929 . S
C828 C827 1.363 . S
C828 C834 1.428 . S
H829 C825 0.930 . S
H830 C827 0.929 . S
S831 N832 1.613 . S
S831 N833 1.610 . S
N832 S831 1.613 . S
N832 C835 1.350 . S
N833 S831 1.610 . S
N833 C834 1.351 . S
C834 C828 1.428 . S
C834 N833 1.351 . S
C834 C835 1.434 . S
C835 C826 1.429 . S
C835 N832 1.350 . S
C835 C834 1.434 . S
C836 C837 1.369 . S
C836 C838 1.419 . S
C836 H840 0.930 . S
C837 C836 1.369 . S
C837 C846 1.429 . S
C838 C836 1.419 . S
C838 C839 1.363 . S
C838 H841 0.929 . S
C839 C838 1.363 . S
C839 C845 1.428 . S
H840 C836 0.930 . S
H841 C838 0.929 . S
S842 N843 1.613 . S
S842 N844 1.610 . S
N843 S842 1.613 . S
N843 C846 1.350 . S
N844 S842 1.610 . S
N844 C845 1.351 . S
C845 C839 1.428 . S
C845 N844 1.351 . S
C845 C846 1.434 . S
C846 C837 1.429 . S
C846 N843 1.350 . S
C846 C845 1.434 . S
C847 C848 1.369 . S
C847 C849 1.419 . S
C847 H851 0.930 . S
C848 C847 1.369 . S
C848 C857 1.429 . S
C849 C847 1.419 . S
C849 C850 1.363 . S
C849 H852 0.929 . S
C850 C849 1.363 . S
C850 C856 1.428 . S
H851 C847 0.930 . S
H852 C849 0.929 . S
S853 N854 1.613 . S
S853 N855 1.610 . S
N854 S853 1.613 . S
N854 C857 1.350 . S
N855 S853 1.610 . S
N855 C856 1.351 . S
C856 C850 1.428 . S
C856 N855 1.351 . S
C856 C857 1.434 . S
C857 C848 1.429 . S
C857 N854 1.350 . S
C857 C856 1.434 . S
C858 C859 1.369 . S
C858 C860 1.419 1_655 S
C858 H862 0.930 . S
C859 C858 1.369 . S
C859 C868 1.429 . S
C860 C858 1.419 1_455 S
C860 C861 1.363 . S
C860 H863 0.929 . S
C861 C860 1.363 . S
C861 C867 1.428 . S
H862 C858 0.930 . S
H863 C860 0.929 . S
S864 N865 1.613 1_455 S
S864 N866 1.610 . S
N865 S864 1.613 1_655 S
N865 C868 1.350 . S
N866 S864 1.610 . S
N866 C867 1.351 . S
C867 C861 1.428 . S
C867 N866 1.351 . S
C867 C868 1.434 1_455 S
C868 C859 1.429 . S
C868 N865 1.350 . S
C868 C867 1.434 1_655 S
C869 C870 1.369 . S
C869 C871 1.419 . S
C869 H873 0.930 . S
C870 C869 1.369 . S
C870 C879 1.429 . S
C871 C869 1.419 . S
C871 C872 1.363 . S
C871 H874 0.929 . S
C872 C871 1.363 . S
C872 C878 1.428 . S
H873 C869 0.930 . S
H874 C871 0.929 . S
S875 N876 1.613 . S
S875 N877 1.610 . S
N876 S875 1.613 . S
N876 C879 1.350 . S
N877 S875 1.610 . S
N877 C878 1.351 . S
C878 C872 1.428 . S
C878 N877 1.351 . S
C878 C879 1.434 . S
C879 C870 1.429 . S
C879 N876 1.350 . S
C879 C878 1.434 . S
C880 C881 1.369 . S
C880 C882 1.419 1_565 S
C880 H884 0.930 . S
C881 C880 1.369 . S
C881 C890 1.429 1_565 S
C882 C880 1.419 1_545 S
C882 C883 1.363 . S
C882 H885 0.929 . S
C883 C882 1.363 . S
C883 C889 1.428 . S
H884 C880 0.930 . S
H885 C882 0.929 . S
S886 N887 1.613 . S
S886 N888 1.610 . S
N887 S886 1.613 . S
N887 C890 1.350 . S
N888 S886 1.610 . S
N888 C889 1.351 . S
C889 C883 1.428 . S
C889 N888 1.351 . S
C889 C890 1.434 . S
C890 C881 1.429 1_545 S
C890 N887 1.350 . S
C890 C889 1.434 . S
C891 C892 1.366 . S
C891 C893 1.419 . S
C891 H895 0.930 . S
C892 C891 1.366 . S
C892 C901 1.437 . S
C893 C891 1.419 . S
C893 C894 1.363 . S
C893 H896 0.929 . S
C894 C893 1.363 . S
C894 C900 1.428 . S
H895 C891 0.930 . S
H896 C893 0.929 . S
S897 N898 1.624 . S
S897 N899 1.610 . S
N898 S897 1.624 . S
N898 C901 1.343 . S
N899 S897 1.610 . S
N899 C900 1.351 . S
C900 C894 1.428 . S
C900 N899 1.351 . S
C900 C901 1.434 . S
C901 C892 1.437 . S
C901 N898 1.343 . S
C901 C900 1.434 . S
C902 C903 1.367 1_655 S
C902 C904 1.419 . S
C902 H906 0.930 . S
C903 C902 1.367 1_455 S
C903 C912 1.437 . S
C904 C902 1.419 . S
C904 C905 1.363 1_655 S
C904 H907 0.929 . S
C905 C904 1.363 1_455 S
C905 C911 1.428 . S
H906 C902 0.930 . S
H907 C904 0.929 . S
S908 N909 1.613 . S
S908 N910 1.610 . S
N909 S908 1.613 . S
N909 C912 1.350 . S
N910 S908 1.610 . S
N910 C911 1.351 . S
C911 C905 1.428 . S
C911 N910 1.351 . S
C911 C912 1.434 . S
C912 C903 1.437 . S
C912 N909 1.350 . S
C912 C911 1.434 . S
C913 C914 1.369 . S
C913 C915 1.419 . S
C913 H917 0.930 . S
C914 C913 1.369 . S
C914 C923 1.429 . S
C915 C913 1.419 . S
C915 C916 1.363 . S
C915 H918 0.929 . S
C916 C915 1.363 . S
C916 C922 1.428 . S
H917 C913 0.930 . S
H918 C915 0.929 . S
S919 N920 1.613 . S
S919 N921 1.610 . S
N920 S919 1.613 . S
N920 C923 1.350 . S
N921 S919 1.610 . S
N921 C922 1.351 . S
C922 C916 1.428 . S
C922 N921 1.351 . S
C922 C923 1.434 . S
C923 C914 1.429 . S
C923 N920 1.350 . S
C923 C922 1.434 . S
C924 C925 1.369 . S
C924 C926 1.419 . S
C924 H928 0.930 . S
C925 C924 1.369 . S
C925 C934 1.429 . S
C926 C924 1.419 . S
C926 C927 1.363 . S
C926 H929 0.929 . S
C927 C926 1.363 . S
C927 C933 1.428 . S
H928 C924 0.930 . S
H929 C926 0.929 . S
S930 N931 1.613 . S
S930 N932 1.610 . S
N931 S930 1.613 . S
N931 C934 1.350 . S
N932 S930 1.610 . S
N932 C933 1.351 . S
C933 C927 1.428 . S
C933 N932 1.351 . S
C933 C934 1.434 . S
C934 C925 1.429 . S
C934 N931 1.350 . S
C934 C933 1.434 . S
C935 C936 1.369 . S
C935 C937 1.419 . S
C935 H939 0.930 . S
C936 C935 1.369 . S
C936 C945 1.429 . S
C937 C935 1.419 . S
C937 C938 1.363 . S
C937 H940 0.929 . S
C938 C937 1.363 . S
C938 C944 1.428 . S
H939 C935 0.930 . S
H940 C937 0.929 . S
S941 N942 1.613 . S
S941 N943 1.610 . S
N942 S941 1.613 . S
N942 C945 1.350 . S
N943 S941 1.610 . S
N943 C944 1.351 . S
C944 C938 1.428 . S
C944 N943 1.351 . S
C944 C945 1.434 . S
C945 C936 1.429 . S
C945 N942 1.350 . S
C945 C944 1.434 . S
C946 C947 1.369 . S
C946 C948 1.419 . S
C946 H950 0.930 . S
C947 C946 1.369 . S
C947 C956 1.429 . S
C948 C946 1.419 . S
C948 C949 1.363 . S
C948 H951 0.929 . S
C949 C948 1.363 . S
C949 C955 1.428 . S
H950 C946 0.930 . S
H951 C948 0.929 . S
S952 N953 1.613 . S
S952 N954 1.610 . S
N953 S952 1.613 . S
N953 C956 1.350 . S
N954 S952 1.610 . S
N954 C955 1.351 . S
C955 C949 1.428 . S
C955 N954 1.351 . S
C955 C956 1.434 . S
C956 C947 1.429 . S
C956 N953 1.350 . S
C956 C955 1.434 . S
C957 C958 1.369 . S
C957 C959 1.419 . S
C957 H961 0.930 . S
C958 C957 1.369 . S
C958 C967 1.429 . S
C959 C957 1.419 . S
C959 C960 1.363 . S
C959 H962 0.929 . S
C960 C959 1.363 . S
C960 C966 1.428 . S
H961 C957 0.930 . S
H962 C959 0.929 . S
S963 N964 1.613 . S
S963 N965 1.610 . S
N964 S963 1.613 . S
N964 C967 1.350 . S
N965 S963 1.610 . S
N965 C966 1.351 . S
C966 C960 1.428 . S
C966 N965 1.351 . S
C966 C967 1.434 . S
C967 C958 1.429 . S
C967 N964 1.350 . S
C967 C966 1.434 . S
C968 C969 1.369 . S
C968 C970 1.419 . S
C968 H972 0.930 . S
C969 C968 1.369 . S
C969 C978 1.429 . S
C970 C968 1.419 . S
C970 C971 1.363 . S
C970 H973 0.929 . S
C971 C970 1.363 . S
C971 C977 1.428 . S
H972 C968 0.930 . S
H973 C970 0.929 . S
S974 N975 1.613 . S
S974 N976 1.610 . S
N975 S974 1.613 . S
N975 C978 1.350 . S
N976 S974 1.610 . S
N976 C977 1.351 . S
C977 C971 1.428 . S
C977 N976 1.351 . S
C977 C978 1.434 . S
C978 C969 1.429 . S
C978 N975 1.350 . S
C978 C977 1.434 . S
C979 C980 1.369 . S
C979 C981 1.419 . S
C979 H983 0.930 . S
C980 C979 1.369 . S
C980 C989 1.429 . S
C981 C979 1.419 . S
C981 C982 1.363 . S
C981 H984 0.929 . S
C982 C981 1.363 . S
C982 C988 1.428 . S
H983 C979 0.930 . S
H984 C981 0.929 . S
S985 N986 1.613 . S
S985 N987 1.610 . S
N986 S985 1.613 . S
N986 C989 1.350 . S
N987 S985 1.610 . S
N987 C988 1.351 . S
C988 C982 1.428 . S
C988 N987 1.351 . S
C988 C989 1.434 . S
C989 C980 1.429 . S
C989 N986 1.350 . S
C989 C988 1.434 . S
C990 C991 1.377 . S
C990 C992 1.419 1_554 S
C990 H994 0.930 . S
C991 C990 1.377 . S
C991 C1000 1.427 1_545 S
C992 C990 1.419 1_556 S
C992 C993 1.363 . S
C992 H995 0.929 . S
C993 C992 1.363 . S
C993 C999 1.428 1_545 S
H994 C990 0.930 . S
H995 C992 0.929 . S
S996 N997 1.613 1_556 S
S996 N998 1.610 . S
N997 S996 1.613 1_554 S
N997 C1000 1.350 . S
N998 S996 1.610 . S
N998 C999 1.351 . S
C999 C993 1.428 1_565 S
C999 N998 1.351 . S
C999 C1000 1.434 1_556 S
C1000 C991 1.427 1_565 S
C1000 N997 1.350 . S
C1000 C999 1.434 1_554 S
C1001 C1002 1.369 . S
C1001 C1003 1.419 1_554 S
C1001 H1005 0.930 . S
C1002 C1001 1.369 . S
C1002 C1011 1.429 1_455 S
C1003 C1001 1.419 1_556 S
C1003 C1004 1.380 . S
C1003 H1006 0.929 . S
C1004 C1003 1.380 . S
C1004 C1010 1.420 1_455 S
H1005 C1001 0.930 . S
H1006 C1003 0.929 . S
S1007 N1008 1.613 . S
S1007 N1009 1.610 1_554 S
N1008 S1007 1.613 . S
N1008 C1011 1.350 . S
N1009 S1007 1.610 1_556 S
N1009 C1010 1.351 . S
C1010 C1004 1.420 1_655 S
C1010 N1009 1.351 . S
C1010 C1011 1.434 1_556 S
C1011 C1002 1.429 1_655 S
C1011 N1008 1.350 . S
C1011 C1010 1.434 1_554 S
C1012 C1013 1.369 . S
C1012 C1014 1.419 1_556 S
C1012 H1016 0.930 . S
C1013 C1012 1.369 . S
C1013 C1022 1.429 . S
C1014 C1012 1.419 1_554 S
C1014 C1015 1.363 . S
C1014 H1017 0.929 . S
C1015 C1014 1.363 . S
C1015 C1021 1.428 . S
H1016 C1012 0.930 . S
H1017 C1014 0.929 . S
S1018 N1019 1.613 1_554 S
S1018 N1020 1.610 . S
N1019 S1018 1.613 1_556 S
N1019 C1022 1.350 . S
N1020 S1018 1.610 . S
N1020 C1021 1.351 . S
C1021 C1015 1.428 . S
C1021 N1020 1.351 . S
C1021 C1022 1.434 1_554 S
C1022 C1013 1.429 . S
C1022 N1019 1.350 . S
C1022 C1021 1.434 1_556 S
C1023 C1024 1.369 . S
C1023 C1025 1.419 . S
C1023 H1027 0.930 . S
C1024 C1023 1.369 . S
C1024 C1033 1.429 . S
C1025 C1023 1.419 . S
C1025 C1026 1.363 . S
C1025 H1028 0.929 . S
C1026 C1025 1.363 . S
C1026 C1032 1.428 . S
H1027 C1023 0.930 . S
H1028 C1025 0.929 . S
S1029 N1030 1.613 . S
S1029 N1031 1.610 . S
N1030 S1029 1.613 . S
N1030 C1033 1.350 . S
N1031 S1029 1.610 . S
N1031 C1032 1.351 . S
C1032 C1026 1.428 . S
C1032 N1031 1.351 . S
C1032 C1033 1.434 . S
C1033 C1024 1.429 . S
C1033 N1030 1.350 . S
C1033 C1032 1.434 . S
C1034 C1035 1.369 . S
C1034 C1036 1.419 . S
C1034 H1038 0.930 . S
C1035 C1034 1.369 . S
C1035 C1044 1.429 . S
C1036 C1034 1.419 . S
C1036 C1037 1.363 . S
C1036 H1039 0.929 . S
C1037 C1036 1.363 . S
C1037 C1043 1.428 . S
H1038 C1034 0.930 . S
H1039 C1036 0.929 . S
S1040 N1041 1.613 . S
S1040 N1042 1.610 . S
N1041 S1040 1.613 . S
N1041 C1044 1.350 . S
N1042 S1040 1.610 . S
N1042 C1043 1.351 . S
C1043 C1037 1.428 . S
C1043 N1042 1.351 . S
C1043 C1044 1.434 . S
C1044 C1035 1.429 . S
C1044 N1041 1.350 . S
C1044 C1043 1.434 . S
C1045 C1046 1.369 . S
C1045 C1047 1.419 . S
C1045 H1049 0.930 . S
C1046 C1045 1.369 . S
C1046 C1055 1.429 . S
C1047 C1045 1.419 . S
C1047 C1048 1.363 . S
C1047 H1050 0.929 . S
C1048 C1047 1.363 . S
C1048 C1054 1.428 . S
H1049 C1045 0.930 . S
H1050 C1047 0.929 . S
S1051 N1052 1.613 . S
S1051 N1053 1.610 . S
N1052 S1051 1.613 . S
N1052 C1055 1.350 . S
N1053 S1051 1.610 . S
N1053 C1054 1.351 . S
C1054 C1048 1.428 . S
C1054 N1053 1.351 . S
C1054 C1055 1.434 . S
C1055 C1046 1.429 . S
C1055 N1052 1.350 . S
C1055 C1054 1.434 . S
C1056 C1057 1.369 . S
C1056 C1058 1.419 . S
C1056 H1060 0.930 . S
C1057 C1056 1.369 . S
C1057 C1066 1.429 . S
C1058 C1056 1.419 . S
C1058 C1059 1.363 . S
C1058 H1061 0.929 . S
C1059 C1058 1.363 . S
C1059 C1065 1.428 . S
H1060 C1056 0.930 . S
H1061 C1058 0.929 . S
S1062 N1063 1.613 . S
S1062 N1064 1.610 . S
N1063 S1062 1.613 . S
N1063 C1066 1.350 . S
N1064 S1062 1.610 . S
N1064 C1065 1.351 . S
C1065 C1059 1.428 . S
C1065 N1064 1.351 . S
C1065 C1066 1.434 . S
C1066 C1057 1.429 . S
C1066 N1063 1.350 . S
C1066 C1065 1.434 . S
C1067 C1068 1.369 . S
C1067 C1069 1.419 . S
C1067 H1071 0.930 . S
C1068 C1067 1.369 . S
C1068 C1077 1.429 . S
C1069 C1067 1.419 . S
C1069 C1070 1.363 . S
C1069 H1072 0.929 . S
C1070 C1069 1.363 . S
C1070 C1076 1.428 . S
H1071 C1067 0.930 . S
H1072 C1069 0.929 . S
S1073 N1074 1.613 . S
S1073 N1075 1.610 . S
N1074 S1073 1.613 . S
N1074 C1077 1.350 . S
N1075 S1073 1.610 . S
N1075 C1076 1.351 . S
C1076 C1070 1.428 . S
C1076 N1075 1.351 . S
C1076 C1077 1.434 . S
C1077 C1068 1.429 . S
C1077 N1074 1.350 . S
C1077 C1076 1.434 . S
C1078 C1079 1.369 . S
C1078 C1080 1.419 . S
C1078 H1082 0.930 . S
C1079 C1078 1.369 . S
C1079 C1088 1.429 . S
C1080 C1078 1.419 . S
C1080 C1081 1.363 . S
C1080 H1083 0.929 . S
C1081 C1080 1.363 . S
C1081 C1087 1.428 . S
H1082 C1078 0.930 . S
H1083 C1080 0.929 . S
S1084 N1085 1.613 . S
S1084 N1086 1.610 . S
N1085 S1084 1.613 . S
N1085 C1088 1.350 . S
N1086 S1084 1.610 . S
N1086 C1087 1.351 . S
C1087 C1081 1.428 . S
C1087 N1086 1.351 . S
C1087 C1088 1.434 . S
C1088 C1079 1.429 . S
C1088 N1085 1.350 . S
C1088 C1087 1.434 . S
C595 C21 1.230 . S
C597 N35 1.180 . S
C606 N68 1.183 . S
C608 C54 1.233 . S
C617 C87 1.226 . S
C619 N2 1.187 . S
C628 N167 1.177 . S
C630 C120 1.231 . S
C639 N101 1.190 . S
C641 C153 1.230 . S
C650 C186 1.234 . S
C652 N134 1.181 . S
C661 N233 1.182 . S
C663 C219 1.233 . S
C672 C252 1.226 . S
C674 N266 1.186 . S
C683 C285 1.232 . S
C685 N200 1.178 . S
C694 N365 1.190 . S
C696 C318 1.229 . S
C705 N299 1.189 . S
C707 C351 1.231 . S
C716 C384 1.232 . S
C718 N332 1.187 . S
C727 N431 1.176 . S
C729 C417 1.230 . S
C738 C450 1.231 . S
C740 N464 1.188 . S
C749 C483 1.233 . S
C751 N398 1.186 . S
C760 N563 1.183 . S
C762 C516 1.233 . S
C771 N497 1.176 . S
C773 C549 1.231 . S
C782 C582 1.230 . S
C784 N530 1.188 . S
C793 N343 1.441 . S
C795 N13 1.441 . S
C804 N376 1.440 . S
C806 N46 1.437 . S
C815 N310 1.439 . S
C817 N79 1.439 . S
C826 N112 1.441 . S
C828 N475 1.440 . S
C837 N409 1.441 . S
C839 N145 1.440 . S
C848 N442 1.441 . S
C850 N178 1.438 . S
C859 N211 1.441 . S
C861 N541 1.440 . S
C870 N574 1.440 . S
C872 N244 1.440 . S
C881 N508 1.440 . S
C883 N277 1.441 . S
C892 C7 1.398 1_545 S
C894 C172 1.396 . S
C903 C106 1.407 1_455 S
C905 C40 1.403 . S
C914 C139 1.405 . S
C916 C73 1.396 . S
C925 C370 1.401 . S
C927 C205 1.394 . S
C936 C304 1.402 . S
C938 C238 1.403 . S
C947 C271 1.405 . S
C949 C337 1.398 . S
C958 C568 1.404 . S
C960 C403 1.395 . S
C969 C436 1.404 . S
C971 C502 1.402 . S
C980 C535 1.404 . S
C982 C469 1.395 . S
C991 C18 1.473 . S
C993 C183 1.465 . S
C1002 C51 1.464 . S
C1004 C117 1.471 . S
C1013 C150 1.472 . S
C1015 C84 1.473 . S
C1024 C381 1.464 . S
C1026 C216 1.475 . S
C1035 C315 1.471 . S
C1037 C249 1.474 . S
C1046 C348 1.465 . S
C1048 C282 1.471 . S
C1057 C414 1.465 . S
C1059 C579 1.475 . S
C1068 C447 1.476 . S
C1070 C513 1.466 . S
C1079 C546 1.470 . S
C1081 C480 1.467 . S
