# Generated by pormake.
# Topology smc, (6)-cn, num edge types: 1
# Building blocks:
#     Node 0, Type 0, BuildingBlock: KUMBOL_clean_sbu_0, # of connection points: 6
#     Node 1, Type 0, BuildingBlock: KUMBOL_clean_sbu_0, # of connection points: 6
#     Node 2, Type 0, BuildingBlock: KUMBOL_clean_sbu_0, # of connection points: 6
#     Node 3, Type 0, BuildingBlock: KUMBOL_clean_sbu_0, # of connection points: 6
#     Node 4, Type 0, BuildingBlock: KUMBOL_clean_sbu_0, # of connection points: 6
#     Node 5, Type 0, BuildingBlock: KUMBOL_clean_sbu_0, # of connection points: 6
#     Node 6, Type 0, BuildingBlock: KUMBOL_clean_sbu_0, # of connection points: 6
#     Node 7, Type 0, BuildingBlock: KUMBOL_clean_sbu_0, # of connection points: 6
#     Node 8, Type 0, BuildingBlock: KUMBOL_clean_sbu_0, # of connection points: 6
#     Edge 9, Type (0, 0), BuildingBlock: EZIPEK_clean_linker_0, # of connection points: 2
#     Edge 10, Type (0, 0), BuildingBlock: EZIPEK_clean_linker_0, # of connection points: 2
#     Edge 11, Type (0, 0), BuildingBlock: EZIPEK_clean_linker_0, # of connection points: 2
#     Edge 12, Type (0, 0), BuildingBlock: EZIPEK_clean_linker_0, # of connection points: 2
#     Edge 13, Type (0, 0), BuildingBlock: EZIPEK_clean_linker_0, # of connection points: 2
#     Edge 14, Type (0, 0), BuildingBlock: EZIPEK_clean_linker_0, # of connection points: 2
#     Edge 15, Type (0, 0), BuildingBlock: EZIPEK_clean_linker_0, # of connection points: 2
#     Edge 16, Type (0, 0), BuildingBlock: EZIPEK_clean_linker_0, # of connection points: 2
#     Edge 17, Type (0, 0), BuildingBlock: EZIPEK_clean_linker_0, # of connection points: 2
#     Edge 18, Type (0, 0), BuildingBlock: EZIPEK_clean_linker_0, # of connection points: 2
#     Edge 19, Type (0, 0), BuildingBlock: EZIPEK_clean_linker_0, # of connection points: 2
#     Edge 20, Type (0, 0), BuildingBlock: EZIPEK_clean_linker_0, # of connection points: 2
#     Edge 21, Type (0, 0), BuildingBlock: EZIPEK_clean_linker_0, # of connection points: 2
#     Edge 22, Type (0, 0), BuildingBlock: EZIPEK_clean_linker_0, # of connection points: 2
#     Edge 23, Type (0, 0), BuildingBlock: EZIPEK_clean_linker_0, # of connection points: 2
#     Edge 24, Type (0, 0), BuildingBlock: EZIPEK_clean_linker_0, # of connection points: 2
#     Edge 25, Type (0, 0), BuildingBlock: EZIPEK_clean_linker_0, # of connection points: 2
#     Edge 26, Type (0, 0), BuildingBlock: EZIPEK_clean_linker_0, # of connection points: 2
#     Edge 27, Type (0, 0), BuildingBlock: EZIPEK_clean_linker_0, # of connection points: 2
#     Edge 28, Type (0, 0), BuildingBlock: EZIPEK_clean_linker_0, # of connection points: 2
#     Edge 29, Type (0, 0), BuildingBlock: EZIPEK_clean_linker_0, # of connection points: 2
#     Edge 30, Type (0, 0), BuildingBlock: EZIPEK_clean_linker_0, # of connection points: 2
#     Edge 31, Type (0, 0), BuildingBlock: EZIPEK_clean_linker_0, # of connection points: 2
#     Edge 32, Type (0, 0), BuildingBlock: EZIPEK_clean_linker_0, # of connection points: 2
#     Edge 33, Type (0, 0), BuildingBlock: EZIPEK_clean_linker_0, # of connection points: 2
#     Edge 34, Type (0, 0), BuildingBlock: EZIPEK_clean_linker_0, # of connection points: 2
#     Edge 35, Type (0, 0), BuildingBlock: EZIPEK_clean_linker_0, # of connection points: 2
# Relax obj value: 0.112
# Max RMSD: 0.303
# Mean RMSD: 0.303
data_MOF--net-smc--node1-KUMBOL_clean_sbu_0--edge1-EZIPEK_clean_linker_0
_symmetry_space_group_name_H-M    P1
_symmetry_Int_Tables_number       1
_symmetry_cell_setting            triclinic
loop_
_symmetry_equiv_pos_as_xyz
'x, y, z'
_cell_length_a     29.970203
_cell_length_b     29.948169
_cell_length_c     29.86475
_cell_angle_alpha  90.211541
_cell_angle_beta   89.778392
_cell_angle_gamma 119.75377
loop_
_atom_site_label
_atom_site_type_symbol
_atom_site_fract_x
_atom_site_fract_y
_atom_site_fract_z
_atom_type_partial_charge
Gd0 Gd 0.97713 0.37105 0.01154 0.0
Gd1 Gd 0.06558 0.49977 0.97884 0.0
C2 C 1.01833 0.61559 0.02602 0.0
C3 C 0.99859 0.64244 0.95584 0.0
C4 C 1.0217 0.57501 0.95659 0.0
C5 C 1.02728 0.57952 0.00282 0.0
C6 C 1.00743 0.60673 0.93275 0.0
C7 C 1.00473 0.64733 0.00222 0.0
C8 C 1.0236 0.61908 0.07254 0.0
C9 C 0.03671 0.58662 0.095 0.0
N10 N 0.04129 0.54881 0.02513 0.0
C11 C 0.04497 0.55135 0.07079 0.0
H12 H 0.0517 0.52491 0.08941 0.0
C13 C 0.03344 0.54134 0.88889 0.0
N14 N 0.03198 0.54124 0.93469 0.0
C15 C 1.01808 0.57079 0.86405 0.0
C16 C 1.00433 0.60316 0.8861 0.0
H17 H 0.04798 0.52002 0.87075 0.0
H18 H 0.99915 0.67613 0.01936 0.0
H19 H 0.03559 0.34525 0.92443 0.0
H20 H 1.01685 0.64612 0.09146 0.0
H21 H 0.03953 0.58802 0.13116 0.0
H22 H 0.98798 0.66722 0.93799 0.0
H23 H 0.9381 0.34923 0.11731 0.0
H24 H 0.04405 0.21169 0.95983 0.0
H25 H 0.05559 0.27757 0.90434 0.0
H26 H 0.98749 0.1814 0.11237 0.0
H27 H 1.01841 0.56963 0.82782 0.0
H28 H 0.99336 0.62671 0.86673 0.0
H29 H 1.02028 0.17726 0.03782 0.0
H30 H 0.92488 0.28704 0.17644 0.0
N31 N 1.01184 0.31815 0.99105 0.0
C32 C 0.03512 0.24142 0.96901 0.0
C33 C 0.04186 0.27863 0.93763 0.0
C34 C 1.01763 0.24344 0.01208 0.0
C35 C 1.00596 0.28263 0.02225 0.0
C36 C 0.03082 0.31734 0.94947 0.0
N37 N 0.97548 0.32235 0.0731 0.0
C38 C 0.98798 0.28527 0.06457 0.0
C39 C 0.9438 0.28667 0.1457 0.0
C40 C 0.95873 0.24985 0.13833 0.0
C41 C 0.95161 0.32217 0.11225 0.0
C42 C 0.98058 0.24843 0.09732 0.0
H43 H 0.95154 0.22132 0.16362 0.0
O44 O 0.89498 0.34432 0.0227 0.0
O45 O 0.98444 0.44727 -0.00413 0.0
O46 O 0.0904 0.48611 0.05024 0.0
O47 O 1.02781 0.40311 0.07115 0.0
O48 O 0.94778 0.4128 0.05492 0.0
O49 O 0.91801 0.29427 0.99279 0.0
O50 O 0.12351 0.54082 0.92735 0.0
O51 O 0.05471 0.41989 0.97237 0.0
O52 O 0.95617 0.3734 0.94138 0.0
O53 O 1.02587 0.44711 0.9139 0.0
O54 O 0.12318 0.47727 -0.00134 0.0
O55 O 0.13065 0.57676 0.99159 0.0
C56 C 0.95867 0.45065 0.02819 0.0
C57 C 0.99292 0.20996 0.08752 0.0
C58 C 1.01138 0.20747 0.04502 0.0
C59 C 0.87958 0.29875 0.00677 0.0
C60 C 0.8387 0.25444 0.03142 0.0
C61 C 0.8501 0.22148 0.05597 0.0
C62 C 0.78698 0.2422 0.02736 0.0
C63 C 0.74735 0.19667 0.04665 0.0
C64 C 0.81143 0.17843 0.07747 0.0
C65 C 0.76041 0.1661 0.07292 0.0
C66 C 0.07115 0.4459 0.07869 0.0
C67 C 0.10092 0.43072 0.98376 0.0
C68 C 0.14845 0.58305 0.95091 0.0
C69 C 0.16489 0.63404 0.92855 0.0
C70 C 0.15561 0.63508 0.88258 0.0
C71 C 0.19393 0.68214 0.95134 0.0
C72 C 0.21478 0.72991 0.92772 0.0
C73 C 0.17357 0.68149 0.85996 0.0
C74 C 0.2032 0.72816 0.88196 0.0
C75 C 0.98329 0.40046 0.90755 0.0
H76 H 0.88862 0.22804 0.05778 0.0
H77 H 0.77737 0.26648 0.00751 0.0
H78 H 0.82093 0.15377 0.09676 0.0
H79 H 0.73088 0.13192 0.08921 0.0
H80 H 0.13536 0.59989 0.86345 0.0
H81 H 0.20257 0.68241 0.98656 0.0
H82 H 0.16588 0.68126 0.82454 0.0
H83 H 0.21852 0.76328 0.8626 0.0
Gd84 Gd 0.66143 0.60094 0.00738 0.0
Gd85 Gd 0.53054 0.55587 0.97417 0.0
C86 C 0.41046 0.40236 0.03325 0.0
C87 C 0.38476 0.34661 0.96831 0.0
C88 C 0.45676 0.43452 0.96306 0.0
C89 C 0.44977 0.44272 0.00793 0.0
C90 C 0.42435 0.38577 0.94332 0.0
C91 C 0.37733 0.35521 0.01285 0.0
C92 C 0.40462 0.4105 0.07838 0.0
C93 C 0.43648 0.4583 0.0973 0.0
N94 N 0.48037 0.48989 0.02666 0.0
C95 C 0.47337 0.49781 0.07088 0.0
H96 H 0.49421 0.53429 0.08702 0.0
C97 C 0.49913 0.46581 0.89381 0.0
N98 N 0.49408 0.47377 0.93855 0.0
C99 C 0.46939 0.41777 0.87384 0.0
C100 C 0.4316 0.37769 0.89854 0.0
H101 H 0.5225 0.49618 0.87105 0.0
H102 H 0.34603 0.32471 0.03152 0.0
H103 H 0.69802 0.69894 0.9354 0.0
H104 H 0.37528 0.38027 0.09882 0.0
H105 H 0.43179 0.46527 0.13214 0.0
H106 H 0.35937 0.30946 0.95337 0.0
H107 H 0.68121 0.5615 0.10593 0.0
H108 H 0.82124 0.83422 0.9927 0.0
H109 H 0.76233 0.79036 0.92941 0.0
H110 H 0.84827 0.77493 0.13318 0.0
H111 H 0.47408 0.41242 0.83861 0.0
H112 H 0.40766 0.34084 0.8825 0.0
H113 H 0.8524 0.8283 0.06912 0.0
H114 H 0.74538 0.59545 0.1661 0.0
N115 N 0.71838 0.69011 0.00098 0.0
C116 C 0.79251 0.79391 0.99546 0.0
C117 C 0.75957 0.76929 0.95964 0.0
C118 C 0.78862 0.76591 0.03407 0.0
C119 C 0.7503 0.71353 0.03604 0.0
C120 C 0.72303 0.71712 0.96294 0.0
N121 N 0.71009 0.63372 0.07302 0.0
C122 C 0.74648 0.68424 0.07295 0.0
C123 C 0.74552 0.62099 0.14049 0.0
C124 C 0.78257 0.67295 0.14102 0.0
C125 C 0.70901 0.60198 0.10634 0.0
C126 C 0.78286 0.70554 0.10765 0.0
H127 H 0.81215 0.68719 0.1661 0.0
O128 O 0.69497 0.55131 0.01615 0.0
O129 O 0.58691 0.53103 0.98688 0.0
O130 O 0.54945 0.60027 0.04523 0.0
O131 O 0.63182 0.61972 0.06893 0.0
O132 O 0.6218 0.52567 0.04443 0.0
O133 O 0.72634 0.61136 0.96659 0.0
O134 O 0.48496 0.56904 0.92493 0.0
O135 O 0.60169 0.62708 0.99419 0.0
O136 O 0.66251 0.60806 0.93338 0.0
O137 O 0.57765 0.56386 0.90979 0.0
O138 O 0.56632 0.63075 0.93729 0.0
O139 O 0.453 0.5426 0.99031 0.0
C140 C 0.58362 0.50085 0.01796 0.0
C141 C 0.82034 0.75786 0.10649 0.0
C142 C 0.82281 0.78816 0.06998 0.0
C143 C 0.73205 0.57645 0.98776 0.0
C144 C 0.78455 0.5911 0.00353 0.0
C145 C 0.81849 0.64193 0.01679 0.0
C146 C 0.8009 0.55424 0.00647 0.0
C147 C 0.85036 0.56839 0.0232 0.0
C148 C 0.86616 0.65528 0.03523 0.0
C149 C 0.8817 0.61867 0.03896 0.0
C150 C 0.58757 0.61803 0.07643 0.0
C151 C 0.60026 0.65921 0.96668 0.0
C152 C 0.44394 0.55178 0.9498 0.0
C153 C 0.39379 0.51421 0.92886 0.0
C154 C 0.39326 0.48521 0.89156 0.0
C155 C 0.34623 0.50799 0.94468 0.0
C156 C 0.2992 0.47189 0.92406 0.0
C157 C 0.34718 0.44925 0.87183 0.0
C158 C 0.30059 0.44242 0.88801 0.0
C159 C 0.62805 0.58673 0.90178 0.0
H160 H 0.80828 0.67149 0.01303 0.0
H161 H 0.77567 0.51507 0.99548 0.0
H162 H 0.89129 0.69431 0.04647 0.0
H163 H 0.91856 0.62969 0.05387 0.0
H164 H 0.42858 0.49074 0.87702 0.0
H165 H 0.34571 0.53063 0.97284 0.0
H166 H 0.34762 0.42678 0.84353 0.0
H167 H 0.26528 0.41416 0.87206 0.0
Gd168 Gd 0.42205 0.0554 0.00701 0.0
Gd169 Gd 0.48558 0.98252 0.97959 0.0
C170 C 0.64424 0.03736 0.03783 0.0
C171 C 0.69722 0.05856 0.97107 0.0
C172 C 0.60658 0.03329 0.96497 0.0
C173 C 0.60134 0.02719 0.01119 0.0
C174 C 0.65489 0.04934 0.94463 0.0
C175 C 0.69184 0.05232 0.01745 0.0
C176 C 0.63818 0.03232 0.0843 0.0
C177 C 0.59073 0.01901 0.10334 0.0
N178 N 0.55473 1.0123 0.03023 0.0
C179 C 0.54937 1.00942 0.07575 0.0
H180 H 0.51405 1.00163 0.09142 0.0
C181 C 0.56893 0.02684 0.89409 0.0
N182 N 0.56472 0.02328 0.93994 0.0
C183 C 0.61634 0.04453 0.87287 0.0
C184 C 0.65947 0.05559 0.8982 0.0
H185 H 0.5354 1.01284 0.87302 0.0
H186 H 0.72495 0.05962 0.03735 0.0
H187 H 0.32934 1.01632 0.93017 0.0
H188 H 0.6701 0.03954 0.10583 0.0
H189 H 0.58602 1.01654 0.13937 0.0
H190 H 0.73441 0.07072 0.95592 0.0
H191 H 0.45635 0.09283 0.1157 0.0
H192 H 0.18925 0.98416 0.99414 0.0
H193 H 0.23669 0.98501 0.92598 0.0
H194 H 0.24267 0.04538 0.14309 0.0
H195 H 0.61906 0.04735 0.83674 0.0
H196 H 0.69595 0.06813 0.88152 0.0
H197 H 0.19224 1.00822 0.07487 0.0
H198 H 0.41742 0.10407 0.18361 0.0
N199 N 0.33329 0.02454 0.00084 0.0
C200 C 0.22957 0.99546 -0.00354 0.0
C201 C 0.25611 0.99566 0.95799 0.0
C202 C 0.25607 1.01261 0.03695 0.0
C203 C 0.30857 0.02684 0.03822 0.0
C204 C 0.30845 1.01171 0.96068 0.0
N205 N 0.38727 0.06077 0.07703 0.0
C206 C 0.33656 0.04654 0.07721 0.0
C207 C 0.39426 0.08786 0.15391 0.0
C208 C 0.34253 0.0739 0.15428 0.0
C209 C 0.4163 0.08164 0.11483 0.0
C210 C 0.31293 0.05285 0.11578 0.0
H211 H 0.3261 0.08015 0.18428 0.0
O212 O 0.46759 0.13839 0.01406 0.0
O213 O 0.49785 0.05886 0.99507 0.0
O214 O 0.44003 0.95534 0.04933 0.0
O215 O 0.39477 0.99913 0.06171 0.0
O216 O 0.49543 0.10258 0.04635 0.0
O217 O 0.4042 0.10584 0.96758 0.0
O218 O 0.47882 0.92089 0.93629 0.0
O219 O 0.40725 0.97296 0.98833 0.0
O220 O 0.41892 0.04447 0.93329 0.0
O221 O 0.49096 0.03691 0.92163 0.0
O222 O 0.41915 0.9391 0.93303 0.0
O223 O 0.50244 0.92356 0.0049 0.0
C224 C 0.52499 0.09016 0.02529 0.0
C225 C 0.26091 0.03913 0.11442 0.0
C226 C 0.23232 1.01832 0.07538 0.0
C227 C 0.43991 0.14767 0.9865 0.0
C228 C 0.42719 0.18684 0.00159 0.0
C229 C 0.37868 0.17254 0.01953 0.0
C230 C 0.46544 0.23926 0.00066 0.0
C231 C 0.45499 0.27733 0.01715 0.0
C232 C 0.36864 0.2098 0.03718 0.0
C233 C 0.40658 0.26156 0.0365 0.0
C234 C 0.40675 0.96424 0.07322 0.0
C235 C 0.3835 0.94102 0.95595 0.0
C236 C 0.49722 0.90211 0.9657 0.0
C237 C 0.53885 0.89158 0.95033 0.0
C238 C 0.56622 0.914 0.91072 0.0
C239 C 0.54901 0.85596 0.97282 0.0
C240 C 0.58562 0.8433 0.95532 0.0
C241 C 0.60513 0.90495 0.89573 0.0
C242 C 0.61475 0.86977 0.91776 0.0
C243 C 0.45808 0.05216 0.90847 0.0
H244 H 0.34891 0.13262 0.02072 0.0
H245 H 0.50329 0.25039 0.98744 0.0
H246 H 0.33155 0.19846 0.05207 0.0
H247 H 0.39856 0.28928 0.05227 0.0
H248 H 0.55641 0.9371 0.89007 0.0
H249 H 0.52602 0.83538 0.00166 0.0
H250 H 0.62613 0.92334 0.86546 0.0
H251 H 0.64265 0.86061 0.90368 0.0
Gd252 Gd 0.65747 0.70753 0.3352 0.0
Gd253 Gd 0.73339 0.84028 0.3078 0.0
C254 C 0.68283 0.95487 0.34863 0.0
C255 C 0.66516 0.97999 0.27663 0.0
C256 C 0.68737 0.91203 0.28094 0.0
C257 C 0.69103 0.91723 0.32743 0.0
C258 C 0.6748 0.94389 0.25528 0.0
C259 C 0.67006 0.98607 0.323 0.0
C260 C 0.68934 0.96145 0.39494 0.0
C261 C 0.70301 0.93068 0.41929 0.0
N262 N 0.70555 0.888 0.35163 0.0
C263 C 0.71144 0.89443 0.39715 0.0
H264 H 0.72338 0.87288 0.41745 0.0
C265 C 0.70626 0.88089 0.21493 0.0
N266 N 0.69986 0.87902 0.2605 0.0
C267 C 0.69159 0.90959 0.18831 0.0
C268 C 0.67499 0.94069 0.20857 0.0
H269 H 0.7233 0.86055 0.19878 0.0
H270 H 0.66456 1.01566 0.33869 0.0
H271 H 0.73934 0.67833 0.2898 0.0
H272 H 0.68441 0.99056 0.41226 0.0
H273 H 0.70804 0.9355 0.4552 0.0
H274 H 0.65564 1.00473 0.25739 0.0
H275 H 0.55453 0.66231 0.40545 0.0
H276 H 0.76403 0.57989 0.37689 0.0
H277 H 0.78621 0.6319 0.30764 0.0
H278 H 0.62995 0.53264 0.48549 0.0
H279 H 0.69493 0.90915 0.15223 0.0
H280 H 0.66509 0.96416 0.1879 0.0
H281 H 0.7051 0.54273 0.44331 0.0
H282 H 0.51795 0.60275 0.46811 0.0
N283 N 0.69904 0.66044 0.35034 0.0
C284 C 0.74552 0.60229 0.36982 0.0
C285 C 0.75827 0.6317 0.33083 0.0
C286 C 0.70657 0.59955 0.39765 0.0
C287 C 0.68384 0.62962 0.38687 0.0
C288 C 0.73328 0.65942 0.32116 0.0
N289 N 0.62066 0.65314 0.39833 0.0
C290 C 0.64254 0.62493 0.41117 0.0
C291 C 0.55345 0.60913 0.45284 0.0
C292 C 0.57671 0.58145 0.46735 0.0
C293 C 0.57542 0.64419 0.41771 0.0
C294 C 0.62142 0.58861 0.44609 0.0
H295 H 0.55933 0.55395 0.49432 0.0
O296 O 0.57716 0.67443 0.31527 0.0
O297 O 0.65481 0.77932 0.3186 0.0
O298 O 0.74818 0.8216 0.38343 0.0
O299 O 0.69672 0.73402 0.39868 0.0
O300 O 0.61512 0.73989 0.37445 0.0
O301 O 0.62038 0.63786 0.29495 0.0
O302 O 0.79768 0.88881 0.26458 0.0
O303 O 0.74327 0.77332 0.32534 0.0
O304 O 0.68379 0.7172 0.26526 0.0
O305 O 0.68076 0.78891 0.24818 0.0
O306 O 0.78019 0.81453 0.26846 0.0
O307 O 0.7908 0.91952 0.32917 0.0
C308 C 0.62601 0.77879 0.3497 0.0
C309 C 0.64507 0.56002 0.45822 0.0
C310 C 0.68793 0.56588 0.4343 0.0
C311 C 0.57478 0.63293 0.29921 0.0
C312 C 0.53364 0.58376 0.31815 0.0
C313 C 0.54655 0.54948 0.33867 0.0
C314 C 0.48187 0.5725 0.31928 0.0
C315 C 0.44386 0.52765 0.34095 0.0
C316 C 0.50966 0.50675 0.36189 0.0
C317 C 0.459 0.49638 0.36362 0.0
C318 C 0.73079 0.78049 0.41134 0.0
C319 C 0.77805 0.78039 0.2959 0.0
C320 C 0.81508 0.92875 0.29099 0.0
C321 C 0.86258 0.97805 0.27963 0.0
C322 C 0.89553 0.97651 0.24682 0.0
C323 C 0.87384 0.02671 0.29771 0.0
C324 C 0.91741 0.07271 0.28221 0.0
C325 C 0.93804 0.02147 0.23174 0.0
C326 C 0.94875 0.06898 0.24903 0.0
C327 C 0.67192 0.742 0.23623 0.0
H328 H 0.58563 0.55653 0.33825 0.0
H329 H 0.47115 0.59831 0.30344 0.0
H330 H 0.52053 0.48181 0.37902 0.0
H331 H 0.43141 0.46383 0.38293 0.0
H332 H 0.88821 0.94027 0.23234 0.0
H333 H 0.84906 0.02886 0.32308 0.0
H334 H 0.96292 0.01947 0.2064 0.0
H335 H 0.98246 0.10325 0.23692 0.0
Gd336 Gd 0.35183 0.95272 0.33598 0.0
Gd337 Gd 0.21863 0.90665 0.3232 0.0
C338 C 0.11684 0.75994 0.40115 0.0
C339 C 0.06407 0.70228 0.3421 0.0
C340 C 0.13525 0.78718 0.32368 0.0
C341 C 0.14595 0.79778 0.36886 0.0
C342 C 0.09452 0.73889 0.30992 0.0
C343 C 0.07485 0.71306 0.38762 0.0
C344 C 0.13134 0.76983 0.44608 0.0
C345 C 0.17507 0.81567 0.45768 0.0
N346 N 0.18623 0.84404 0.38108 0.0
C347 C 0.20253 0.85207 0.4246 0.0
H348 H 0.23762 0.88547 0.43433 0.0
C349 C 0.15429 0.8144 0.24848 0.0
N350 N 0.16495 0.82368 0.29324 0.0
C351 C 0.11524 0.76679 0.23335 0.0
C352 C 0.08509 0.72888 0.26418 0.0
H353 H 0.17402 0.84411 0.224 0.0
H354 H 0.05133 0.6842 0.4121 0.0
H355 H 0.4074 0.0455 0.25791 0.0
H356 H 0.11018 0.7416 0.47177 0.0
H357 H 0.18811 0.82282 0.49207 0.0
H358 H 0.03235 0.66529 0.33211 0.0
H359 H 0.36236 0.91132 0.43655 0.0
H360 H 0.52672 0.1796 0.32141 0.0
H361 H 0.47831 0.1348 0.25332 0.0
H362 H 0.52533 0.12508 0.47211 0.0
H363 H 0.10748 0.75992 0.19788 0.0
H364 H 0.05435 0.69223 0.25236 0.0
H365 H 0.54292 0.1761 0.40333 0.0
H366 H 0.41669 0.94592 0.5041 0.0
N367 N 0.41464 0.03954 0.32838 0.0
C368 C 0.4955 0.14028 0.32375 0.0
C369 C 0.46835 0.11507 0.28519 0.0
C370 C 0.48324 0.11395 0.36458 0.0
C371 C 0.44241 0.06271 0.36582 0.0
C372 C 0.428 0.0643 0.28801 0.0
N373 N 0.39435 0.98399 0.40448 0.0
C374 C 0.43225 0.03407 0.40489 0.0
C375 C 0.42013 0.97147 0.47714 0.0
C376 C 0.45576 0.02393 0.47997 0.0
C377 C 0.38966 0.95193 0.43892 0.0
C378 C 0.46298 0.05576 0.44323 0.0
H379 H 0.47916 0.03896 0.50977 0.0
O380 O 0.38569 0.90462 0.34765 0.0
O381 O 0.27275 0.88508 0.34829 0.0
O382 O 0.23962 0.95401 0.38896 0.0
O383 O 0.3259 0.97736 0.39906 0.0
O384 O 0.32694 0.86783 0.32821 0.0
O385 O 0.42029 0.96639 0.29893 0.0
O386 O 0.17242 0.91615 0.27217 0.0
O387 O 0.29548 0.9752 0.30339 0.0
O388 O 0.34057 0.95781 0.26292 0.0
O389 O 0.25555 0.89554 0.25687 0.0
O390 O 0.24245 0.98923 0.33484 0.0
O391 O 0.14256 0.89452 0.34071 0.0
C392 C 0.27911 0.84816 0.33582 0.0
C393 C 0.50174 0.10759 0.44279 0.0
C394 C 0.5118 0.13662 0.40358 0.0
C395 C 0.42348 0.92975 0.31978 0.0
C396 C 0.47383 0.94009 0.33607 0.0
C397 C 0.50822 0.98742 0.35564 0.0
C398 C 0.4858 0.90021 0.33527 0.0
C399 C 0.53183 0.9076 0.3543 0.0
C400 C 0.55249 0.99399 0.37659 0.0
C401 C 0.56364 0.95403 0.37672 0.0
C402 C 0.28387 0.97842 0.41176 0.0
C403 C 0.28656 1.01181 0.31503 0.0
C404 C 0.13393 0.90279 0.29965 0.0
C405 C 0.08563 0.9007 0.28612 0.0
C406 C 0.0875 0.93489 0.25328 0.0
C407 C 0.03749 0.86344 0.30369 0.0
C408 C 0.99191 0.86098 0.28809 0.0
C409 C 0.0426 0.93284 0.23827 0.0
C410 C 0.99516 0.8962 0.25548 0.0
C411 C 0.30321 0.92135 0.2396 0.0
H412 H 0.50062 0.01896 0.35548 0.0
H413 H 0.45945 0.86355 0.31997 0.0
H414 H 0.57807 0.03004 0.39303 0.0
H415 H 0.59728 0.95943 0.39431 0.0
H416 H 0.12387 0.96327 0.23925 0.0
H417 H 0.0354 0.83628 0.32866 0.0
H418 H 0.04455 0.95964 0.21306 0.0
H419 H 0.96066 0.89526 0.24332 0.0
Gd420 Gd 0.11675 0.40599 0.34187 0.0
Gd421 Gd 0.16529 0.32185 0.31135 0.0
C422 C 0.32461 0.36448 0.36246 0.0
C423 C 0.37276 0.38117 0.29324 0.0
C424 C 0.28416 0.3638 0.29193 0.0
C425 C 0.28124 0.358 0.33835 0.0
C426 C 0.33029 0.37568 0.26919 0.0
C427 C 0.36965 0.37486 0.33958 0.0
C428 C 0.32147 0.35955 0.40899 0.0
C429 C 0.2757 0.3475 0.43055 0.0
N430 N 0.23619 0.34528 0.35982 0.0
C431 C 0.23323 0.33983 0.40549 0.0
H432 H 0.19883 0.32936 0.4239 0.0
C433 C 0.24356 0.35909 0.22296 0.0
N434 N 0.24206 0.35685 0.26888 0.0
C435 C 0.28881 0.37247 0.19947 0.0
C436 C 0.33235 0.38066 0.22264 0.0
H437 H 0.20928 0.3475 0.20346 0.0
H438 H 0.40256 0.37829 0.35753 0.0
H439 H 1.00851 0.33637 0.28887 0.0
H440 H 0.35409 0.36474 0.42856 0.0
H441 H 0.2728 0.34336 0.46661 0.0
H442 H 0.40816 0.38985 0.27622 0.0
H443 H 0.17448 0.49203 0.42583 0.0
H444 H 0.88194 0.31096 0.37178 0.0
H445 H 0.91453 0.29375 0.30143 0.0
H446 H 0.96644 0.43351 0.48886 0.0
H447 H 0.28942 0.37432 0.16326 0.0
H448 H 0.36709 0.38989 0.20419 0.0
H449 H 0.90179 0.36461 0.44126 0.0
H450 H 0.14998 0.52912 0.48737 0.0
N451 N 1.02777 0.36596 0.35387 0.0
C452 C 0.92288 0.32639 0.36728 0.0
C453 C 0.94109 0.3164 0.32763 0.0
C454 C 0.95806 0.35987 0.39883 0.0
C455 C 1.01099 0.3787 0.39139 0.0
C456 C 0.99404 0.33843 0.32099 0.0
N457 N 0.09758 0.43427 0.40977 0.0
C458 C 0.04707 0.41543 0.41949 0.0
C459 C 0.1206 0.49688 0.46879 0.0
C460 C 0.0689 0.47801 0.47884 0.0
C461 C 0.13432 0.47474 0.43397 0.0
C462 C 0.03141 0.43657 0.45436 0.0
H463 H 0.05834 0.4956 0.50556 0.0
O464 O 0.1638 0.4889 0.33218 0.0
O465 O 0.1872 0.40229 0.32033 0.0
O466 O 0.12565 0.30319 0.38419 0.0
O467 O 0.11074 0.36956 0.40635 0.0
O468 O 0.19656 0.4507 0.37202 0.0
O469 O 0.08707 0.44866 0.30541 0.0
O470 O 0.14378 0.2567 0.26673 0.0
O471 O 0.09086 0.31832 0.32913 0.0
O472 O 0.10105 0.38805 0.26983 0.0
O473 O 0.16837 0.37459 0.25262 0.0
O474 O 0.09364 0.28208 0.27078 0.0
O475 O 0.18282 0.26018 0.32799 0.0
C476 C 0.22016 0.43421 0.34713 0.0
C477 C 0.9789 0.41727 0.46251 0.0
C478 C 0.94221 0.37821 0.43536 0.0
C479 C 0.12689 0.49345 0.31421 0.0
C480 C 0.1176 0.53386 0.33368 0.0
C481 C 0.0715 0.52005 0.35648 0.0
C482 C 0.15546 0.58656 0.33096 0.0
C483 C 0.14721 0.6246 0.35147 0.0
C484 C 0.06422 0.5572 0.3782 0.0
C485 C 0.10192 0.60889 0.37612 0.0
C486 C 0.11048 0.32654 0.41468 0.0
C487 C 0.06245 0.2859 0.29831 0.0
C488 C 0.16592 0.23631 0.28988 0.0
C489 C 0.19848 0.2195 0.26444 0.0
C490 C 0.21444 0.23761 0.22062 0.0
C491 C 0.21119 0.18296 0.28184 0.0
C492 C 0.24129 0.1673 0.25612 0.0
C493 C 0.24553 0.22393 0.19624 0.0
C494 C 0.25928 0.18959 0.21392 0.0
C495 C 0.13587 0.39125 0.24169 0.0
H496 H 0.04114 0.48042 0.35803 0.0
H497 H 0.19085 0.59798 0.31275 0.0
H498 H 0.02909 0.54584 0.39672 0.0
H499 H 0.09565 0.63678 0.39369 0.0
H500 H 0.20208 0.26172 0.20444 0.0
H501 H 0.19741 0.16647 0.31466 0.0
H502 H 0.25819 0.23928 0.16293 0.0
H503 H 0.28282 0.17896 0.19388 0.0
Gd504 Gd 0.31627 0.06016 0.67578 0.0
Gd505 Gd 0.40824 0.18919 0.65547 0.0
C506 C 0.36708 0.29765 0.72863 0.0
C507 C 0.35589 0.34352 0.66687 0.0
C508 C 0.37048 0.27168 0.65226 0.0
C509 C 0.37411 0.26566 0.69789 0.0
C510 C 0.36025 0.31013 0.63644 0.0
C511 C 0.35957 0.33747 0.71285 0.0
C512 C 0.36654 0.28803 0.77441 0.0
C513 C 0.37077 0.24606 0.78854 0.0
N514 N 0.3814 0.22669 0.71222 0.0
C515 C 0.37751 0.21536 0.75693 0.0
H516 H 0.37724 0.18163 0.7689 0.0
C517 C 0.36934 0.24269 0.57843 0.0
N518 N 0.37484 0.23873 0.62349 0.0
C519 C 0.35821 0.27947 0.56143 0.0
C520 C 0.35423 0.31374 0.59049 0.0
H521 H 0.37596 0.21971 0.55465 0.0
H522 H 0.35498 0.36284 0.73602 0.0
H523 H 0.35481 0.02439 0.57834 0.0
H524 H 0.36106 0.31161 0.79898 0.0
H525 H 0.36817 0.23685 0.82381 0.0
H526 H 0.34857 0.37352 0.65524 0.0
H527 H 0.29871 0.04264 0.78765 0.0
H528 H 0.34743 0.88175 0.60401 0.0
H529 H 0.35784 0.94974 0.5517 0.0
H530 H 0.31716 0.85738 0.76127 0.0
H531 H 0.35418 0.28227 0.52571 0.0
H532 H 0.34618 0.34259 0.57714 0.0
H533 H 0.3338 0.84866 0.68213 0.0
H534 H 0.28968 0.97906 0.84358 0.0
N535 N 0.33336 0.99683 0.6457 0.0
C536 C 0.3438 0.91392 0.6162 0.0
C537 C 0.34995 0.95226 0.58656 0.0
C538 C 0.3342 0.9181 0.66136 0.0
C539 C 0.32906 0.96047 0.67551 0.0
C540 C 0.34614 0.99421 0.602 0.0
N541 N 0.31671 1.00715 0.73391 0.0
C542 C 0.32063 0.96582 0.72058 0.0
C543 C 0.2987 0.97478 0.80932 0.0
C544 C 0.30505 0.93349 0.7966 0.0
C545 C 0.30359 1.01068 0.77737 0.0
C546 C 0.31567 0.9283 0.75186 0.0
H547 H 0.3011 0.9054 0.82133 0.0
O548 O 0.25431 0.05213 0.71677 0.0
O549 O 0.33097 0.14165 0.68273 0.0
O550 O 0.43708 0.17147 0.72182 0.0
O551 O 0.37218 0.08759 0.73302 0.0
O552 O 0.26652 0.09016 0.64728 0.0
O553 O 0.23999 0.98908 0.67155 0.0
O554 O 0.46155 0.23509 0.60292 0.0
O555 O 0.39502 0.10971 0.63935 0.0
O556 O 0.30697 0.05993 0.60324 0.0
O557 O 0.36623 0.14582 0.58794 0.0
O558 O 0.46449 0.16228 0.66707 0.0
O559 O 0.4758 0.26375 0.67061 0.0
C560 C 0.29134 0.13643 0.66216 0.0
C561 C 0.32066 0.88633 0.73764 0.0
C562 C 0.32995 0.88128 0.69256 0.0
C563 C 0.22065 1.00707 0.70136 0.0
C564 C 0.17817 0.97377 0.73254 0.0
C565 C 0.18015 0.98972 0.77732 0.0
C566 C 0.13133 0.93285 0.71619 0.0
C567 C 0.08654 0.911 0.74344 0.0
C568 C 0.1367 0.9674 0.80444 0.0
C569 C 0.09007 0.92949 0.78739 0.0
C570 C 0.41567 0.12764 0.74528 0.0
C571 C 0.44055 0.11722 0.64895 0.0
C572 C 0.48921 0.27444 0.62878 0.0
C573 C 0.50194 0.32667 0.61217 0.0
C574 C 0.48544 0.33217 0.56952 0.0
C575 C 0.53399 0.37193 0.63694 0.0
C576 C 0.54871 0.42125 0.61902 0.0
C577 C 0.49654 0.38033 0.55357 0.0
C578 C 0.52794 0.42459 0.57808 0.0
C579 C 0.32967 0.09814 0.57484 0.0
H580 H 0.21447 0.02174 0.79103 0.0
H581 H 0.12885 0.92029 0.68176 0.0
H582 H 0.13873 0.98102 0.83841 0.0
H583 H 0.05639 0.91438 0.80874 0.0
H584 H 0.46447 0.29933 0.54782 0.0
H585 H 0.55036 0.3691 0.66837 0.0
H586 H 0.4826 0.38352 0.52103 0.0
H587 H 0.53888 0.46179 0.56361 0.0
Gd588 Gd 1.006 0.29492 0.65832 0.0
Gd589 Gd 0.87005 0.2406 0.63422 0.0
C590 C 0.7739 0.07569 0.68677 0.0
C591 C 0.75641 0.0254 0.61869 0.0
C592 C 0.80774 0.119 0.61595 0.0
C593 C 0.80301 0.12154 0.66204 0.0
C594 C 0.78346 0.07078 0.59384 0.0
C595 C 0.75149 0.02785 0.66499 0.0
C596 C 0.76812 0.07896 0.73284 0.0
C597 C 0.79014 0.12697 0.75324 0.0
N598 N 0.82639 0.16839 0.68268 0.0
C599 C 0.81838 0.17129 0.72765 0.0
H600 H 0.83211 0.20705 0.74503 0.0
C601 C 0.83217 0.16212 0.54676 0.0
N602 N 0.83467 0.16337 0.59249 0.0
C603 C 0.80933 0.11551 0.52346 0.0
C604 C 0.78581 0.06951 0.54715 0.0
H605 H 0.84648 0.19721 0.52777 0.0
H606 H 0.72984 0.99247 0.68367 0.0
H607 H 0.0503 0.41125 0.61344 0.0
H608 H 0.74625 0.04469 0.75286 0.0
H609 H 0.78489 0.12999 0.78879 0.0
H610 H 0.73821 0.9882 0.60226 0.0
H611 H 1.00616 0.22388 0.74283 0.0
H612 H 0.15955 0.52243 0.70394 0.0
H613 H 0.11289 0.50149 0.63181 0.0
H614 H 0.16323 0.41841 0.82417 0.0
H615 H 0.80888 0.11518 0.48722 0.0
H616 H 0.7677 0.03335 0.52904 0.0
H617 H 0.17868 0.491 0.77544 0.0
H618 H 0.0506 0.23614 0.81548 0.0
N619 N 0.05962 0.38193 0.67498 0.0
C620 C 0.13143 0.48289 0.69628 0.0
C621 C 0.10536 0.47123 0.65545 0.0
C622 C 0.12172 0.44325 0.72629 0.0
C623 C 0.08453 0.39255 0.71483 0.0
C624 C 0.06989 0.4201 0.64506 0.0
N625 N 0.0388 0.30374 0.73072 0.0
C626 C 0.07454 0.35213 0.74326 0.0
C627 C 0.05721 0.26912 0.79574 0.0
C628 C 0.09272 0.31878 0.80997 0.0
C629 C 0.03134 0.26222 0.75517 0.0
C630 C 0.10235 0.36097 0.78328 0.0
H631 H 0.11354 0.32408 0.84092 0.0
O632 O 0.04572 0.25116 0.65088 0.0
O633 O 0.92712 0.22343 0.66377 0.0
O634 O 0.8857 0.27697 0.70583 0.0
O635 O 0.97281 0.30607 0.72133 0.0
O636 O 0.98654 0.21445 0.64005 0.0
O637 O 0.08047 0.32828 0.62426 0.0
O638 O 0.8252 0.2543 0.58414 0.0
O639 O 0.94667 0.31389 0.629 0.0
O640 O 0.99435 0.31719 0.59159 0.0
O641 O 0.92175 0.2463 0.56981 0.0
O642 O 0.88426 0.31925 0.651 0.0
O643 O 0.79149 0.22394 0.64868 0.0
C644 C 0.93859 0.19086 0.64868 0.0
C645 C 0.14017 0.41123 0.79441 0.0
C646 C 0.1493 0.45241 0.76639 0.0
C647 C 0.08664 0.28883 0.63308 0.0
C648 C 0.13597 0.29813 0.65315 0.0
C649 C 0.1679 0.34429 0.67576 0.0
C650 C 0.15036 0.25954 0.65158 0.0
C651 C 0.19644 0.26758 0.67203 0.0
C652 C 0.21233 0.35165 0.69715 0.0
C653 C 0.22639 0.31371 0.69544 0.0
C654 C 0.92774 0.30098 0.73168 0.0
C655 C 0.93259 0.34593 0.64205 0.0
C656 C 0.78336 0.23541 0.60861 0.0
C657 C 0.73243 0.19924 0.58689 0.0
C658 C 0.73164 0.1803 0.54359 0.0
C659 C 0.68412 0.18554 0.60758 0.0
C660 C 0.6368 0.15242 0.58528 0.0
C661 C 0.68552 0.1463 0.52269 0.0
C662 C 0.63869 0.13231 0.54331 0.0
C663 C 0.97047 0.28269 0.56049 0.0
H664 H 0.15846 0.37471 0.67727 0.0
H665 H 0.12618 0.22368 0.63419 0.0
H666 H 0.23615 0.38712 0.71512 0.0
H667 H 0.26087 0.32041 0.71249 0.0
H668 H 0.76666 0.19255 0.52499 0.0
H669 H 0.68332 0.20148 0.63999 0.0
H670 H 0.68609 0.13172 0.48959 0.0
H671 H 0.60349 0.10707 0.52555 0.0
Gd672 Gd 0.77504 0.74154 0.67518 0.0
Gd673 Gd 0.82898 0.66317 0.64797 0.0
C674 C 0.97501 0.70152 0.72601 0.0
C675 C 0.04207 0.75708 0.67432 0.0
C676 C 0.95187 0.72355 0.65477 0.0
C677 C 0.93703 0.6982 0.69588 0.0
C678 C 1.0048 0.75303 0.64387 0.0
C679 C 1.02724 0.73107 0.71502 0.0
C680 C 0.9597 0.67516 0.76662 0.0
C681 C 0.90771 0.64507 0.77618 0.0
N682 N 0.88605 0.67009 0.70639 0.0
C683 C 0.87138 0.64196 0.74538 0.0
H684 H 0.83202 0.61419 0.75252 0.0
C685 C 0.92967 0.73877 0.58288 0.0
N686 N 0.9152 0.71913 0.6253 0.0
C687 C 0.98137 0.76893 0.57125 0.0
C688 C 1.01912 0.77683 0.6021 0.0
H689 H 0.90255 0.72966 0.55625 0.0
H690 H 0.05658 0.7342 0.73798 0.0
H691 H 0.67268 0.66546 0.60566 0.0
H692 H 0.98774 0.67706 0.79049 0.0
H693 H 0.89546 0.623 0.80686 0.0
H694 H 0.08264 0.77971 0.66638 0.0
H695 H 0.81416 0.81942 0.7655 0.0
H696 H 0.53751 0.65286 0.66328 0.0
H697 H 0.58122 0.6341 0.60198 0.0
H698 H 0.59601 0.75394 0.79642 0.0
H699 H 0.99203 0.7848 0.53788 0.0
H700 H 0.05923 0.79971 0.5927 0.0
H701 H 0.5432 0.69621 0.73607 0.0
H702 H 0.77675 0.84692 0.82496 0.0
N703 N 0.68452 0.70483 0.668 0.0
C704 C 0.5786 0.66767 0.66496 0.0
C705 C 0.60314 0.65729 0.63022 0.0
C706 C 0.60739 0.69749 0.70123 0.0
C707 C 0.66093 0.71586 0.70197 0.0
C708 C 0.65607 0.6762 0.63224 0.0
N709 N 0.74199 0.76584 0.73639 0.0
C710 C 0.69044 0.74731 0.73691 0.0
C711 C 0.75197 0.81852 0.80072 0.0
C712 C 0.69902 0.79884 0.80246 0.0
C713 C 0.77295 0.80192 0.76717 0.0
C714 C 0.66753 0.76272 0.77053 0.0
H715 H 0.68286 0.81192 0.82848 0.0
O716 O 0.82766 0.80743 0.63505 0.0
O717 O 0.85007 0.74265 0.66353 0.0
O718 O 0.78062 0.63745 0.71705 0.0
O719 O 0.76482 0.7027 0.73982 0.0
O720 O 0.84083 0.77024 0.72404 0.0
O721 O 0.76688 0.81014 0.67023 0.0
O722 O 0.82894 0.61441 0.59341 0.0
O723 O 0.75327 0.65633 0.66496 0.0
O724 O 0.75928 0.7218 0.6038 0.0
O725 O 0.82485 0.70629 0.58431 0.0
O726 O 0.7559 0.61836 0.60916 0.0
O727 O 0.84495 0.6002 0.66006 0.0
C728 C 0.87289 0.76462 0.69932 0.0
C729 C 0.61424 0.74309 0.77049 0.0
C730 C 0.58422 0.71033 0.73608 0.0
C731 C 0.80907 0.83633 0.6478 0.0
C732 C 0.8464 0.88748 0.66595 0.0
C733 C 0.88557 0.89259 0.69477 0.0
C734 C 0.84366 0.93164 0.65467 0.0
C735 C 0.88118 0.9802 0.67091 0.0
C736 C 0.92269 0.94042 0.71058 0.0
C737 C 0.92081 0.98412 0.69849 0.0
C738 C 0.76404 0.65925 0.74819 0.0
C739 C 0.7244 0.62123 0.63712 0.0
C740 C 0.84375 0.5884 0.61812 0.0
C741 C 0.88717 0.58179 0.60144 0.0
C742 C 0.92375 0.61783 0.57185 0.0
C743 C 0.89222 0.53902 0.61454 0.0
C744 C 0.93341 0.53301 0.59809 0.0
C745 C 0.96495 0.61256 0.55655 0.0
C746 C 0.96976 0.57046 0.56946 0.0
C747 C 0.79164 0.72221 0.57408 0.0
H748 H 0.88782 0.85979 0.70524 0.0
H749 H 0.81312 0.9285 0.63323 0.0
H750 H 0.95294 0.94353 0.73233 0.0
H751 H 0.95001 0.02118 0.7111 0.0
H752 H 0.92025 0.64983 0.55988 0.0
H753 H 0.8639 0.51018 0.63664 0.0
H754 H 0.99289 0.64088 0.53393 0.0
H755 H 1.00144 0.56653 0.55643 0.0
C756 C 0.22373 0.4295 0.97651 0.0
C757 C 0.24712 0.46194 0.93939 0.0
C758 C 0.1624 0.45177 0.91914 0.0
C759 C 0.13936 0.42098 0.95769 0.0
N760 N 0.14577 0.35896 0.00362 0.0
N761 N 0.23985 0.50644 0.87552 0.0
C762 C 0.16951 0.40444 0.98167 0.0
C763 C 0.21657 0.47376 0.91065 0.0
N764 N 0.25286 0.42117 0.00681 0.0
N765 N 0.13122 0.45766 0.88974 0.0
H766 H 0.27938 0.52416 0.86982 0.0
H767 H 0.22121 0.51818 0.85322 0.0
H768 H 0.09185 0.43255 0.89077 0.0
H769 H 0.1435 0.48256 0.86259 0.0
H770 H 0.23794 0.40226 0.03711 0.0
H771 H 0.29248 0.4368 0.00371 0.0
H772 H 0.16496 0.34125 0.01739 0.0
H773 H 0.10648 0.33586 0.00225 0.0
C774 C 0.63185 0.79905 0.98942 0.0
C775 C 0.58712 0.79617 0.96966 0.0
C776 C 0.54644 0.70303 0.97208 0.0
C777 C 0.59407 0.70528 0.98063 0.0
N778 N 0.66785 0.75195 0.02652 0.0
N779 N 0.50302 0.74243 0.93687 0.0
C780 C 0.63388 0.75268 -0.00292 0.0
C781 C 0.54463 0.74737 0.95981 0.0
N782 N 0.6725 0.8459 0.00022 0.0
N783 N 0.50213 0.65958 0.98214 0.0
H784 H 0.49987 0.77347 0.92519 0.0
H785 H 0.47367 0.70684 0.92576 0.0
H786 H 0.5038 0.63127 0.00056 0.0
H787 H 0.46595 0.65652 0.98025 0.0
H788 H 0.70814 0.85108 0.00984 0.0
H789 H 0.67096 0.87985 -0.00247 0.0
H790 H 0.69547 0.78431 0.04348 0.0
H791 H 0.66188 0.71704 0.0391 0.0
C792 C 0.28827 0.87616 0.93887 0.0
C793 C 0.33497 0.8876 0.96047 0.0
C794 C 0.30088 0.79271 0.96438 0.0
C795 C 0.25249 0.78233 0.94751 0.0
N796 N 0.19673 0.81692 0.93208 0.0
N797 N 0.37937 0.85144 0.00104 0.0
C798 C 0.24498 0.8251 0.94005 0.0
C799 C 0.33854 0.84417 0.9763 0.0
N800 N 0.28671 0.91198 0.9122 0.0
N801 N 0.31376 0.75483 0.96506 0.0
H802 H 0.41073 0.8872 0.00486 0.0
H803 H 0.3806 0.82222 0.01892 0.0
H804 H 0.28947 0.71726 0.95455 0.0
H805 H 0.35087 0.76196 0.97161 0.0
H806 H 0.25434 0.90463 0.89369 0.0
H807 H 0.32013 0.94553 0.90344 0.0
H808 H 0.1888 0.847 0.92927 0.0
H809 H 0.16445 0.78019 0.93313 0.0
C810 C 0.50839 0.36083 0.05822 0.0
C811 C 0.49471 0.33356 0.01705 0.0
C812 C 0.55145 0.41484 0.97809 0.0
C813 C 0.55447 0.44298 0.01753 0.0
N814 N 0.53613 0.44137 0.09668 0.0
N815 N 0.50257 0.33556 0.93635 0.0
C816 C 0.53354 0.41551 0.05815 0.0
C817 C 0.51655 0.3607 0.97654 0.0
N818 N 0.499 0.33434 0.09753 0.0
N819 N 0.58344 0.43921 0.94285 0.0
H820 H 0.47535 0.29674 0.93325 0.0
H821 H 0.51451 0.35422 0.90564 0.0
H822 H 0.61156 0.47792 0.94382 0.0
H823 H 0.58628 0.41981 0.91493 0.0
H824 H 0.51259 0.35207 0.12844 0.0
H825 H 0.48266 0.29443 0.09865 0.0
H826 H 0.51599 0.42324 0.12571 0.0
H827 H 0.55468 0.48123 0.09873 0.0
C828 C 0.60546 0.13709 0.07259 0.0
C829 C 0.58283 0.12169 0.02924 0.0
C830 C 0.66971 0.16391 -0.00417 0.0
C831 C 0.69166 0.17865 0.03908 0.0
N832 N 0.68067 0.19476 0.11605 0.0
N833 N 0.59517 0.13848 0.94967 0.0
C834 C 0.65946 0.17024 0.07659 0.0
C835 C 0.61546 0.14081 0.99084 0.0
N836 N 0.57606 0.11812 0.11034 0.0
N837 N 0.70009 0.16969 0.95954 0.0
H838 H 0.55621 0.12258 0.94473 0.0
H839 H 0.61704 0.15687 0.92144 0.0
H840 H 0.73952 0.18385 0.96156 0.0
H841 H 0.68572 0.15633 0.92764 0.0
H842 H 0.59156 0.1235 0.14237 0.0
H843 H 0.5368 0.09211 0.10988 0.0
H844 H 0.65898 0.19455 0.14346 0.0
H845 H 0.72002 0.22008 0.11959 0.0
C846 C 0.91203 0.49199 0.06745 0.0
C847 C 0.92566 0.47611 0.02685 0.0
C848 C 0.88478 0.51665 0.98402 0.0
C849 C 0.87105 0.53194 0.02423 0.0
N850 N 0.85895 0.52203 0.1039 0.0
N851 N 0.90587 0.45965 0.94713 0.0
C852 C 0.88079 0.51577 0.06586 0.0
C853 C 0.90657 0.4842 0.98563 0.0
N854 N 0.93063 0.4867 0.10763 0.0
N855 N 0.87669 0.53243 0.94348 0.0
H856 H 0.91471 0.43024 0.94523 0.0
H857 H 0.91471 0.43024 0.94523 0.0
H858 H 0.86188 0.55722 0.94006 0.0
H859 H 0.88709 0.52232 0.9133 0.0
H860 H 0.92716 0.50316 0.13726 0.0
H861 H 0.95408 0.47048 0.11123 0.0
H862 H 0.85953 0.5061 0.13467 0.0
H863 H 0.83559 0.53876 0.1037 0.0
C864 C 0.86691 0.82888 0.33425 0.0
C865 C 0.83151 0.78799 0.30577 0.0
C866 C 0.90648 0.78221 0.27677 0.0
C867 C 0.9396 0.82307 0.305 0.0
N868 N 0.94964 0.87148 0.37149 0.0
N869 N 0.82166 0.7273 0.24821 0.0
C870 C 0.91861 0.84014 0.33833 0.0
C871 C 0.85244 0.76413 0.27765 0.0
N872 N 0.85472 0.86352 0.351 0.0
N873 N 0.92765 0.76446 0.24579 0.0
H874 H 0.78849 0.72554 0.23608 0.0
H875 H 0.82941 0.69875 0.23744 0.0
H876 H 0.96684 0.77634 0.24581 0.0
H877 H 0.90714 0.73915 0.21997 0.0
H878 H 0.88125 0.89803 0.36611 0.0
H879 H 0.82063 0.86159 0.34313 0.0
H880 H 0.93581 0.88334 0.39841 0.0
H881 H 0.98815 0.88118 0.37403 0.0
C882 C 0.2941 0.13948 0.30198 0.0
C883 C 0.25421 0.12682 0.27071 0.0
C884 C 0.25482 0.04604 0.25344 0.0
C885 C 0.29231 0.057 0.28709 0.0
N886 N 0.36326 0.12608 0.3248 0.0
N887 N 0.19529 0.06756 0.21648 0.0
C888 C 0.31592 0.10691 0.30662 0.0
C889 C 0.23442 0.0799 0.24613 0.0
N890 N 0.31162 0.1829 0.32754 0.0
N891 N 0.23999 1.00328 0.22794 0.0
H892 H 0.17754 0.08974 0.2128 0.0
H893 H 0.17867 0.03481 0.19655 0.0
H894 H 0.25943 0.98272 0.23012 0.0
H895 H 0.21133 0.98952 0.2038 0.0
H896 H 0.33608 0.19064 0.35476 0.0
H897 H 0.29861 0.20914 0.32398 0.0
H898 H 0.38611 0.16411 0.33508 0.0
H899 H 0.38185 0.10497 0.3238 0.0
C900 C 1.01644 0.19345 0.3314 0.0
C901 C 1.01419 0.23291 0.30588 0.0
C902 C 0.93144 0.16283 0.27473 0.0
C903 C 0.93539 0.12577 0.30115 0.0
N904 N 0.97186 0.10857 0.36504 0.0
N905 N 0.96867 0.2506 0.24875 0.0
C906 C 0.97362 0.1428 0.33403 0.0
C907 C 0.97052 0.21632 0.27724 0.0
N908 N 0.06214 0.20074 0.34634 0.0
N909 N 0.89238 0.14569 0.24434 0.0
H910 H 1.00159 0.28378 0.23821 0.0
H911 H 0.93428 0.24562 0.23604 0.0
H912 H 0.86343 0.10717 0.24322 0.0
H913 H 0.88832 0.16869 0.22056 0.0
H914 H 0.0678 0.17147 0.35884 0.0
H915 H 0.09542 0.23428 0.34032 0.0
H916 H 0.99836 0.11871 0.39092 0.0
H917 H 0.94109 0.07101 0.36688 0.0
C918 C 0.23955 0.7661 0.38208 0.0
C919 C 0.24462 0.79072 0.34011 0.0
C920 C 0.19045 0.7058 0.30494 0.0
C921 C 0.18448 0.68123 0.3468 0.0
N922 N 0.21052 0.68616 0.42352 0.0
N923 N 0.24074 0.78104 0.25963 0.0
C924 C 0.21109 0.71101 0.38498 0.0
C925 C 0.22497 0.75964 0.30097 0.0
N926 N 0.26333 0.79549 0.41889 0.0
N927 N 0.16154 0.67819 0.26908 0.0
H928 H 0.26642 0.81978 0.2551 0.0
H929 H 0.23245 0.75966 0.23018 0.0
H930 H 0.13528 0.63891 0.27036 0.0
H931 H 0.16022 0.69499 0.23901 0.0
H932 H 0.25805 0.78151 0.45141 0.0
H933 H 0.28701 0.83523 0.41728 0.0
H934 H 0.23132 0.70428 0.45216 0.0
H935 H 0.1916 0.64616 0.42603 0.0
C936 C 0.30482 0.4776 0.30253 0.0
C937 C 0.2782 0.46141 0.34429 0.0
C938 C 0.36226 0.50593 0.38242 0.0
C939 C 0.38788 0.51201 0.34098 0.0
N940 N 0.3827 0.50022 0.26078 0.0
N941 N 0.28376 0.45946 0.42513 0.0
C942 C 0.35901 0.49739 0.30074 0.0
C943 C 0.30761 0.47594 0.38457 0.0
N944 N 0.27896 0.47596 0.26463 0.0
N945 N 0.39038 0.53004 0.4197 0.0
H946 H 0.24415 0.43674 0.42891 0.0
H947 H 0.30357 0.46379 0.45486 0.0
H948 H 0.43028 0.55333 0.41884 0.0
H949 H 0.37397 0.53162 0.45005 0.0
H950 H 0.29685 0.49228 0.23433 0.0
H951 H 0.24 0.46311 0.2647 0.0
H952 H 0.36294 0.4862 0.23079 0.0
H953 H 0.42174 0.51259 0.2578 0.0
C954 C 0.55481 0.84739 0.39283 0.0
C955 C 0.54698 0.86698 0.35233 0.0
C956 C 0.57568 0.81494 0.31071 0.0
C957 C 0.59552 0.80618 0.35082 0.0
N958 N 0.60368 0.81529 0.4315 0.0
N959 N 0.5529 0.87125 0.27147 0.0
C960 C 0.58419 0.82193 0.39242 0.0
C961 C 0.55764 0.85084 0.31081 0.0
N962 N 0.53338 0.85244 0.43163 0.0
N963 N 0.57163 0.78728 0.27304 0.0
H964 H 0.54169 0.89901 0.26976 0.0
H965 H 0.56483 0.86415 0.24075 0.0
H966 H 0.58052 0.75779 0.27257 0.0
H967 H 0.55308 0.78891 0.24417 0.0
H968 H 0.53339 0.83458 0.46148 0.0
H969 H 0.51059 0.8698 0.4327 0.0
H970 H 0.60125 0.83108 0.46193 0.0
H971 H 0.62735 0.79917 0.43296 0.0
C972 C 0.56027 0.16616 0.58082 0.0
C973 C 0.58426 0.14099 0.60162 0.0
C974 C 0.5003 0.08007 0.63581 0.0
C975 C 0.4777 0.10876 0.61938 0.0
N976 N 0.4809 0.16327 0.56033 0.0
N977 N 0.57725 0.07458 0.65093 0.0
C978 C 0.5065 0.14717 0.58705 0.0
C979 C 0.55415 0.09792 0.62953 0.0
N980 N 0.58939 0.20955 0.55616 0.0
N981 N 0.46877 0.03232 0.65235 0.0
H982 H 0.6161 0.08628 0.64667 0.0
H983 H 0.55906 0.04667 0.67554 0.0
H984 H 0.42928 1.01735 0.65271 0.0
H985 H 0.48068 1.00614 0.66067 0.0
H986 H 0.57563 0.23296 0.54398 0.0
H987 H 0.62881 0.22483 0.55125 0.0
H988 H 0.49707 0.18782 0.53311 0.0
H989 H 0.44135 0.14583 0.56305 0.0
C990 C 0.925 0.40173 0.58456 0.0
C991 C 0.9493 0.39871 0.62443 0.0
C992 C 0.96799 0.48643 0.64461 0.0
C993 C 0.93793 0.48634 0.60797 0.0
N994 N 0.88629 0.44399 0.54331 0.0
N995 N 0.98969 0.43663 0.69468 0.0
C996 C 0.91623 0.44401 0.57784 0.0
C997 C 0.97034 0.44106 0.65471 0.0
N998 N 0.9085 0.36268 0.55401 0.0
N999 N 0.99422 0.52996 0.66992 0.0
H1000 H 0.99137 0.40388 0.7033 0.0
H1001 H 1.00078 0.46348 0.72049 0.0
H1002 H 0.99129 0.56288 0.66496 0.0
H1003 H 1.02157 0.53484 0.69374 0.0
H1004 H 0.88992 0.36081 0.52423 0.0
H1005 H 0.91621 0.33265 0.55729 0.0
H1006 H 0.86572 0.41322 0.52173 0.0
H1007 H 0.87946 0.47436 0.53731 0.0
C1008 C 0.68613 0.52466 0.64245 0.0
C1009 C 0.6805 0.56822 0.65084 0.0
C1010 C 0.58739 0.50931 0.65712 0.0
C1011 C 0.5935 0.46931 0.63696 0.0
N1012 N 0.65151 0.44158 0.60793 0.0
N1013 N 0.62976 0.59147 0.69642 0.0
C1014 C 0.64365 0.47745 0.62949 0.0
C1015 C 0.63196 0.55816 0.66671 0.0
N1016 N 0.73131 0.52705 0.65243 0.0
N1017 N 0.53924 0.50114 0.66594 0.0
H1018 H 0.66341 0.62253 0.70868 0.0
H1019 H 0.59629 0.58452 0.71301 0.0
H1020 H 0.50642 0.46537 0.66116 0.0
H1021 H 0.5321 0.53038 0.67597 0.0
H1022 H 0.73735 0.49567 0.6505 0.0
H1023 H 0.75819 0.55812 0.67078 0.0
H1024 H 0.68795 0.44907 0.59783 0.0
H1025 H 0.62195 0.40627 0.59674 0.0
C1026 C 0.87424 0.05501 0.69739 0.0
C1027 C 0.88019 0.0282 0.66093 0.0
C1028 C 0.90902 0.10448 0.61386 0.0
C1029 C 0.91055 0.13361 0.65223 0.0
N1030 N 0.90408 0.13738 0.73252 0.0
N1031 N 0.90585 0.02731 0.58455 0.0
C1032 C 0.89527 0.10898 0.69455 0.0
C1033 C 0.89727 0.05253 0.61884 0.0
N1034 N 0.84928 0.02871 0.73516 0.0
N1035 N 0.91952 0.1269 0.5726 0.0
H1036 H 0.89694 0.98904 0.5866 0.0
H1037 H 0.92463 0.04501 0.55494 0.0
H1038 H 0.93061 0.16543 0.56816 0.0
H1039 H 0.91323 0.10664 0.54272 0.0
H1040 H 0.84044 0.04546 0.76187 0.0
H1041 H 0.83288 0.98884 0.73769 0.0
H1042 H 0.8994 0.12236 0.7647 0.0
H1043 H 0.91992 0.17689 0.73152 0.0
C1044 C 0.96181 0.83755 0.67523 0.0
C1045 C 0.92996 0.79824 0.70636 0.0
C1046 C 1.00556 0.82612 0.75452 0.0
C1047 C 0.03478 0.86992 0.72721 0.0
N1048 N 0.03426 0.92343 0.66703 0.0
N1049 N 0.92124 0.76337 0.78094 0.0
C1050 C 1.01143 0.87719 0.68875 0.0
C1051 C 0.95169 0.79549 0.74781 0.0
N1052 N 0.9449 0.83855 0.63316 0.0
N1053 N 0.02957 0.81288 0.78633 0.0
H1054 H 0.88218 0.73763 0.7769 0.0
H1055 H 0.93448 0.76449 0.81337 0.0
H1056 H 0.06945 0.8322 0.78997 0.0
H1057 H 1.0107 0.77944 0.80535 0.0
H1058 H 0.96875 0.86321 0.60824 0.0
H1059 H 0.90914 0.81145 0.62141 0.0
H1060 H 1.01594 0.93259 0.64208 0.0
H1061 H 0.06879 0.95489 0.67723 0.0
C1062 C 0.25066 0.18415 0.62514 0.0
C1063 C 0.2657 0.16918 0.66516 0.0
C1064 C 0.22146 0.20664 0.70858 0.0
C1065 C 0.21506 0.22911 0.66896 0.0
N1066 N 0.22874 0.24322 0.58944 0.0
N1067 N 0.25986 0.16186 0.74571 0.0
C1068 C 0.23038 0.21832 0.62718 0.0
C1069 C 0.24953 0.17932 0.70714 0.0
N1070 N 0.25576 0.1659 0.58467 0.0
N1071 N 0.19845 0.20953 0.74728 0.0
H1072 H 0.27639 0.13849 0.74613 0.0
H1073 H 0.25489 0.17274 0.77762 0.0
H1074 H 0.17631 0.22754 0.74893 0.0
H1075 H 0.197 0.19038 0.77669 0.0
H1076 H 0.23863 0.16894 0.55542 0.0
H1077 H 0.27534 0.14574 0.58058 0.0
H1078 H 0.24449 0.24122 0.55887 0.0
H1079 H 0.21588 0.26977 0.58925 0.0
C1080 C 0.14458 0.4629 0.19032 0.0
C1081 C 0.13474 0.41137 0.19604 0.0
C1082 C 0.1029 0.39309 0.11954 0.0
C1083 C 0.10255 0.44055 0.11636 0.0
N1084 N 0.12998 0.524 0.14818 0.0
N1085 N 0.10264 0.32668 0.16538 0.0
C1086 C 0.12604 0.47681 0.15142 0.0
C1087 C 0.11406 0.3766 0.16023 0.0
N1088 N 0.17338 0.49906 0.22147 0.0
N1089 N 0.09466 0.36414 0.0824 0.0
H1090 H 0.11425 0.31385 0.19286 0.0
H1091 H 0.07944 0.29726 0.14333 0.0
H1092 H 0.08691 0.37519 0.05208 0.0
H1093 H 0.0998 0.33222 0.08108 0.0
H1094 H 0.18651 0.53821 0.21804 0.0
H1095 H 0.18778 0.49006 0.24942 0.0
H1096 H 0.13907 0.54937 0.17497 0.0
H1097 H 0.12404 0.53772 0.11821 0.0
C1098 C 0.64057 0.66217 0.18661 0.0
C1099 C 0.64407 0.71137 0.19344 0.0
C1100 C 0.59101 0.69169 0.12405 0.0
C1101 C 0.58658 0.64224 0.12082 0.0
N1102 N 0.58717 0.57438 0.16198 0.0
N1103 N 0.60866 0.76539 0.17056 0.0
C1104 C 0.60327 0.6254 0.15751 0.0
C1105 C 0.61508 0.72409 0.16278 0.0
N1106 N 0.67634 0.65172 0.20387 0.0
N1107 N 0.57186 0.70754 0.09031 0.0
H1108 H 0.62387 0.78934 0.19799 0.0
H1109 H 0.58414 0.77327 0.15186 0.0
H1110 H 0.5492 0.68222 0.06532 0.0
H1111 H 0.57925 0.74521 0.08684 0.0
H1112 H 0.67439 0.61614 0.20075 0.0
H1113 H 0.71211 0.68099 0.21359 0.0
H1114 H 0.59609 0.55937 0.18982 0.0
H1115 H 0.55994 0.54726 0.14033 0.0
C1116 C 0.32092 0.92015 0.11181 0.0
C1117 C 0.37288 0.93048 0.11074 0.0
C1118 C 0.36329 0.90629 0.18995 0.0
C1119 C 0.31843 0.91143 0.19364 0.0
N1120 N 0.25211 0.91937 0.15525 0.0
N1121 N 0.43973 0.92324 0.14801 0.0
C1122 C 0.29585 0.91611 0.15361 0.0
C1123 C 0.39275 0.9199 0.14948 0.0
N1124 N 0.29573 0.91427 0.07235 0.0
N1125 N 0.37619 0.88566 0.22467 0.0
H1126 H 0.45768 0.92426 0.11786 0.0
H1127 H 0.46026 0.92438 0.17648 0.0
H1128 H 0.35295 0.87163 0.25274 0.0
H1129 H 0.40564 0.87678 0.22344 0.0
H1130 H 0.25681 0.90277 0.07026 0.0
H1131 H 0.31299 0.91593 0.04157 0.0
H1132 H 0.23771 0.92961 0.12788 0.0
H1133 H 0.23124 0.9138 0.18453 0.0
C1134 C 0.47294 0.12939 0.86182 0.0
C1135 C 0.46252 0.07737 0.86388 0.0
C1136 C 0.44148 0.06867 0.78407 0.0
C1137 C 0.4423 0.1169 0.78376 0.0
N1138 N 0.46368 0.19545 0.82268 0.0
N1139 N 0.43554 0.99694 0.82635 0.0
C1140 C 0.46032 0.14833 0.82254 0.0
C1141 C 0.44726 0.04723 0.82461 0.0
N1142 N 0.49622 0.16125 0.89727 0.0
N1143 N 0.43625 0.04358 0.74479 0.0
H1144 H 0.44147 0.98047 0.8547 0.0
H1145 H 0.41736 0.97062 0.80057 0.0
H1146 H 0.43181 0.0582 0.71494 0.0
H1147 H 0.44087 1.01151 0.7413 0.0
H1148 H 0.51034 0.20077 0.89679 0.0
H1149 H 0.5048 0.14846 0.92645 0.0
H1150 H 0.46817 0.21681 0.85158 0.0
H1151 H 0.46114 0.21302 0.79362 0.0
C1152 C 0.94855 0.39533 0.82678 0.0
C1153 C 0.96317 0.37304 0.86203 0.0
C1154 C 0.93671 0.29636 0.81336 0.0
C1155 C 0.92616 0.31995 0.77782 0.0
N1156 N 0.90463 0.38338 0.75506 0.0
N1157 N 0.94051 0.28741 0.89099 0.0
C1158 C 0.92724 0.36727 0.78563 0.0
C1159 C 0.94874 0.31949 0.85604 0.0
N1160 N 0.95124 0.44148 0.83383 0.0
N1161 N 0.93385 0.24988 0.80681 0.0
H1162 H 0.94606 0.29838 0.92344 0.0
H1163 H 0.92189 0.24743 0.88838 0.0
H1164 H 0.91575 0.22726 0.77906 0.0
H1165 H 0.95025 0.23476 0.82843 0.0
H1166 H 0.94844 0.46377 0.80853 0.0
H1167 H 0.95504 0.4565 0.8659 0.0
H1168 H 0.90017 0.41544 0.75922 0.0
H1169 H 0.88667 0.36178 0.72658 0.0
C1170 C 0.72887 0.66648 0.82188 0.0
C1171 C 0.7327 0.633 0.79015 0.0
C1172 C 0.65874 0.5617 0.83019 0.0
C1173 C 0.65086 0.59782 0.85526 0.0
N1174 N 0.66815 0.68466 0.85891 0.0
N1175 N 0.69659 0.5449 0.76457 0.0
C1176 C 0.6824 0.65016 0.84537 0.0
C1177 C 0.69613 0.57926 0.79422 0.0
N1178 N 0.7699 0.71401 0.82999 0.0
N1179 N 0.63179 0.51103 0.84145 0.0
H1180 H 0.7265 0.55451 0.74217 0.0
H1181 H 0.66681 0.50696 0.76218 0.0
H1182 H 0.60324 0.4976 0.86594 0.0
H1183 H 0.63943 0.48334 0.82805 0.0
H1184 H 0.76933 0.7383 0.85485 0.0
H1185 H 0.80576 0.72606 0.81533 0.0
H1186 H 0.69073 0.72391 0.85323 0.0
H1187 H 0.63232 0.67291 0.87345 0.0
C1188 C 0.8029 0.80513 0.47087 0.0
C1189 C 0.75019 0.77987 0.45835 0.0
C1190 C 0.73214 0.7126 0.51354 0.0
C1191 C 0.78378 0.73695 0.52764 0.0
N1192 N 0.86835 0.81104 0.52339 0.0
N1193 N 0.66436 0.7263 0.48626 0.0
C1194 C 0.81949 0.7847 0.50715 0.0
C1195 C 0.71487 0.7393 0.4862 0.0
N1196 N 0.83601 0.85001 0.45028 0.0
N1197 N 0.69919 0.66351 0.52687 0.0
H1198 H 0.65119 0.7465 0.46722 0.0
H1199 H 0.63752 0.69995 0.50866 0.0
H1200 H 0.712 0.64133 0.54336 0.0
H1201 H 0.66021 0.64426 0.51956 0.0
H1202 H 0.87558 0.86934 0.45479 0.0
H1203 H 0.82258 0.86932 0.43038 0.0
H1204 H 0.89588 0.84765 0.51307 0.0
H1205 H 0.88101 0.79592 0.54838 0.0
C1206 C 0.25289 1.00284 0.48428 0.0
C1207 C 0.29025 1.01521 0.45001 0.0
C1208 C 0.34804 0.09669 0.49063 0.0
C1209 C 0.31296 0.08136 0.52676 0.0
N1210 N 0.22321 0.03323 0.54657 0.0
N1211 N 0.36375 0.08426 0.41377 0.0
C1212 C 0.2626 0.03864 0.51978 0.0
C1213 C 0.33519 0.06512 0.45148 0.0
N1214 N 0.20871 0.9564 0.48448 0.0
N1215 N 0.39334 0.14181 0.49284 0.0
H1216 H 0.35336 0.06348 0.38427 0.0
H1217 H 0.39395 0.12175 0.41027 0.0
H1218 H 0.39938 0.17067 0.51544 0.0
H1219 H 0.42478 0.1506 0.47227 0.0
H1220 H 0.18446 0.94231 0.51222 0.0
H1221 H 0.19707 0.93071 0.45798 0.0
H1222 H 0.18479 1.00633 0.54074 0.0
H1223 H 0.22836 0.05982 0.57135 0.0
C1224 C 0.05063 0.33711 0.5157 0.0
C1225 C 1.00353 0.28922 0.51891 0.0
C1226 C 0.04003 0.25549 0.4619 0.0
C1227 C 0.08528 0.30395 0.45914 0.0
N1228 N 0.14182 0.3804 0.49912 0.0
N1229 N 0.95111 0.2054 0.48591 0.0
C1230 C 0.09331 0.3404 0.49241 0.0
C1231 C 0.99766 0.24866 0.48978 0.0
N1232 N 0.05326 0.38108 0.53156 0.0
N1233 N 0.04027 0.21477 0.44211 0.0
H1234 H 0.91906 0.20184 0.50224 0.0
H1235 H 0.94303 0.17643 0.46259 0.0
H1236 H 0.07408 0.21906 0.42807 0.0
H1237 H 1.01114 0.17694 0.44653 0.0
H1238 H 0.0869 0.41652 0.53194 0.0
H1239 H 1.02022 0.38296 0.53936 0.0
H1240 H 0.15131 0.40674 0.52524 0.0
H1241 H 0.17308 0.38316 0.48117 0.0
loop_
_geom_bond_atom_site_label_1
_geom_bond_atom_site_label_2
_geom_bond_distance
_geom_bond_site_symmetry_2
_ccdc_geom_bond_type
Gd0 N31 2.661 1_654 S
Gd0 N37 2.601 . S
Gd0 O44 2.545 . S
Gd0 O45 2.610 . S
Gd0 O47 2.429 . S
Gd0 O48 2.545 . S
Gd0 O49 2.412 1_554 S
Gd0 O51 2.362 1_655 S
Gd0 O52 2.324 1_554 S
Gd0 C59 2.828 . S
Gd1 N10 2.659 1_556 S
Gd1 N14 2.601 . S
Gd1 O45 2.358 1_456 S
Gd1 O46 2.324 1_556 S
Gd1 O50 2.545 . S
Gd1 O51 2.606 1_556 S
Gd1 O53 2.429 . S
Gd1 O54 2.545 . S
Gd1 O55 2.412 1_556 S
Gd1 C68 2.828 . S
C2 C5 1.417 1_554 S
C2 C7 1.431 1_554 S
C2 C8 1.412 . S
C3 C6 1.437 . S
C3 C7 1.317 . S
C3 H22 0.929 . S
C4 C5 1.426 . S
C4 C6 1.413 . S
C4 N14 1.359 1_655 S
C5 C2 1.417 1_556 S
C5 C4 1.426 . S
C5 N10 1.352 1_656 S
C6 C3 1.437 . S
C6 C4 1.413 . S
C6 C16 1.391 . S
C7 C2 1.431 1_556 S
C7 C3 1.317 . S
C7 H18 0.930 . S
C8 C2 1.412 . S
C8 C9 1.355 . S
C8 H20 0.930 . S
C9 C8 1.355 . S
C9 C11 1.402 . S
C9 H21 0.930 . S
N10 Gd1 2.659 1_554 S
N10 C5 1.352 1_454 S
N10 C11 1.308 1_455 S
C11 C9 1.402 . S
C11 N10 1.308 1_655 S
C11 H12 0.930 . S
H12 C11 0.930 . S
C13 N14 1.334 . S
C13 C15 1.394 . S
C13 H17 0.930 . S
N14 Gd1 2.601 . S
N14 C4 1.359 1_455 S
N14 C13 1.334 . S
C15 C13 1.394 . S
C15 C16 1.359 1_455 S
C15 H27 0.930 . S
C16 C6 1.391 . S
C16 C15 1.359 1_655 S
C16 H28 0.929 . S
H17 C13 0.930 . S
H18 C7 0.930 . S
H19 C36 0.930 . S
H20 C8 0.930 . S
H21 C9 0.930 . S
H22 C3 0.929 . S
H23 C41 0.930 . S
H24 C32 0.930 . S
H25 C33 0.930 . S
H26 C57 0.929 . S
H27 C15 0.930 . S
H28 C16 0.929 . S
H29 C58 0.930 . S
H30 C39 0.930 . S
N31 Gd0 2.661 1_456 S
N31 C35 1.350 1_556 S
N31 C36 1.307 . S
C32 H24 0.930 . S
C32 C33 1.355 . S
C32 C34 1.412 . S
C33 H25 0.930 . S
C33 C32 1.355 . S
C33 C36 1.402 . S
C34 C32 1.412 . S
C34 C35 1.417 1_556 S
C34 C58 1.431 1_556 S
C35 N31 1.350 1_554 S
C35 C34 1.417 1_554 S
C35 C38 1.426 . S
C36 H19 0.930 . S
C36 N31 1.307 . S
C36 C33 1.402 . S
N37 Gd0 2.601 . S
N37 C38 1.359 1_655 S
N37 C41 1.334 . S
C38 C35 1.426 . S
C38 N37 1.359 1_455 S
C38 C42 1.413 . S
C39 H30 0.930 . S
C39 C40 1.359 1_655 S
C39 C41 1.394 . S
C40 C39 1.359 1_455 S
C40 C42 1.391 . S
C40 H43 0.929 . S
C41 H23 0.930 . S
C41 N37 1.334 . S
C41 C39 1.394 . S
C42 C38 1.413 . S
C42 C40 1.391 . S
C42 C57 1.437 . S
H43 C40 0.929 . S
O44 Gd0 2.545 . S
O44 C59 1.258 . S
O45 Gd0 2.610 . S
O45 Gd1 2.358 1_654 S
O45 C56 1.288 . S
O46 Gd1 2.324 1_554 S
O46 C66 1.254 . S
O47 Gd0 2.429 . S
O47 C66 1.268 1_655 S
O48 Gd0 2.545 . S
O48 C56 1.250 . S
O49 Gd0 2.412 1_556 S
O49 C59 1.252 1_556 S
O50 Gd1 2.545 . S
O50 C68 1.258 . S
O51 Gd0 2.362 1_455 S
O51 Gd1 2.606 1_554 S
O51 C67 1.284 1_554 S
O52 Gd0 2.324 1_556 S
O52 C75 1.254 . S
O53 Gd1 2.429 . S
O53 C75 1.268 1_455 S
O54 Gd1 2.545 . S
O54 C67 1.250 . S
O55 Gd1 2.412 1_554 S
O55 C68 1.252 1_554 S
C56 O45 1.288 . S
C56 O48 1.250 . S
C57 H26 0.929 . S
C57 C42 1.437 . S
C57 C58 1.317 . S
C58 H29 0.930 . S
C58 C34 1.431 1_554 S
C58 C57 1.317 . S
C59 Gd0 2.828 . S
C59 O44 1.258 . S
C59 O49 1.252 1_554 S
C59 C60 1.497 . S
C60 C59 1.497 . S
C60 C61 1.395 . S
C60 C62 1.380 1_554 S
C61 C60 1.395 . S
C61 C64 1.398 . S
C61 H76 0.930 . S
C62 C60 1.380 1_556 S
C62 C63 1.391 . S
C62 H77 0.930 . S
C63 C62 1.391 . S
C63 C65 1.381 1_556 S
C64 C61 1.398 . S
C64 C65 1.380 . S
C64 H78 0.930 . S
C65 C63 1.381 1_554 S
C65 C64 1.380 . S
C65 H79 0.930 . S
C66 O46 1.254 . S
C66 O47 1.268 1_455 S
C67 O51 1.284 1_556 S
C67 O54 1.250 . S
C68 Gd1 2.828 . S
C68 O50 1.258 . S
C68 O55 1.252 1_556 S
C68 C69 1.497 . S
C69 C68 1.497 . S
C69 C70 1.395 . S
C69 C71 1.380 1_556 S
C70 C69 1.395 . S
C70 C73 1.398 . S
C70 H80 0.930 . S
C71 C69 1.380 1_554 S
C71 C72 1.391 . S
C71 H81 0.930 . S
C72 C71 1.391 . S
C72 C74 1.387 1_554 S
C73 C70 1.398 . S
C73 C74 1.380 . S
C73 H82 0.930 . S
C74 C72 1.387 1_556 S
C74 C73 1.380 . S
C74 H83 0.930 . S
C75 O52 1.254 . S
C75 O53 1.268 1_655 S
H76 C61 0.930 . S
H77 C62 0.930 . S
H78 C64 0.930 . S
H79 C65 0.930 . S
H80 C70 0.930 . S
H81 C71 0.930 . S
H82 C73 0.930 . S
H83 C74 0.930 . S
Gd84 N115 2.661 1_554 S
Gd84 N121 2.601 . S
Gd84 O128 2.545 . S
Gd84 O129 2.610 . S
Gd84 O131 2.429 . S
Gd84 O132 2.545 . S
Gd84 O133 2.412 1_554 S
Gd84 O135 2.362 . S
Gd84 O136 2.324 1_554 S
Gd84 C143 2.828 . S
Gd85 N94 2.661 1_556 S
Gd85 N98 2.601 . S
Gd85 O129 2.358 1_556 S
Gd85 O130 2.324 1_556 S
Gd85 O134 2.545 . S
Gd85 O135 2.606 1_556 S
Gd85 O137 2.429 . S
Gd85 O138 2.545 . S
Gd85 O139 2.412 1_556 S
Gd85 C152 2.828 . S
C86 C89 1.417 1_554 S
C86 C91 1.431 1_554 S
C86 C92 1.412 . S
C87 C90 1.437 . S
C87 C91 1.317 . S
C87 H106 0.929 . S
C88 C89 1.426 . S
C88 C90 1.413 . S
C88 N98 1.359 . S
C89 C86 1.417 1_556 S
C89 C88 1.426 . S
C89 N94 1.350 1_556 S
C90 C87 1.437 . S
C90 C88 1.413 . S
C90 C100 1.391 . S
C91 C86 1.431 1_556 S
C91 C87 1.317 . S
C91 H102 0.930 . S
C92 C86 1.412 . S
C92 C93 1.355 . S
C92 H104 0.930 . S
C93 C92 1.355 . S
C93 C95 1.402 . S
C93 H105 0.930 . S
N94 Gd85 2.661 1_554 S
N94 C89 1.350 1_554 S
N94 C95 1.307 . S
C95 C93 1.402 . S
C95 N94 1.307 . S
C95 H96 0.930 . S
H96 C95 0.930 . S
C97 N98 1.334 . S
C97 C99 1.394 . S
C97 H101 0.930 . S
N98 Gd85 2.601 . S
N98 C88 1.359 . S
N98 C97 1.334 . S
C99 C97 1.394 . S
C99 C100 1.359 . S
C99 H111 0.930 . S
C100 C90 1.391 . S
C100 C99 1.359 . S
C100 H112 0.929 . S
H101 C97 0.930 . S
H102 C91 0.930 . S
H103 C120 0.930 . S
H104 C92 0.930 . S
H105 C93 0.930 . S
H106 C87 0.929 . S
H107 C125 0.930 . S
H108 C116 0.930 . S
H109 C117 0.930 . S
H110 C141 0.929 . S
H111 C99 0.930 . S
H112 C100 0.929 . S
H113 C142 0.930 . S
H114 C123 0.930 . S
N115 Gd84 2.661 1_556 S
N115 C119 1.350 1_556 S
N115 C120 1.307 . S
C116 H108 0.930 . S
C116 C117 1.355 . S
C116 C118 1.412 . S
C117 H109 0.930 . S
C117 C116 1.355 . S
C117 C120 1.402 . S
C118 C116 1.412 . S
C118 C119 1.417 1_556 S
C118 C142 1.431 1_556 S
C119 N115 1.350 1_554 S
C119 C118 1.417 1_554 S
C119 C122 1.426 . S
C120 H103 0.930 . S
C120 N115 1.307 . S
C120 C117 1.402 . S
N121 Gd84 2.601 . S
N121 C122 1.359 . S
N121 C125 1.334 . S
C122 C119 1.426 . S
C122 N121 1.359 . S
C122 C126 1.413 . S
C123 H114 0.930 . S
C123 C124 1.359 . S
C123 C125 1.394 . S
C124 C123 1.359 . S
C124 C126 1.391 . S
C124 H127 0.929 . S
C125 H107 0.930 . S
C125 N121 1.334 . S
C125 C123 1.394 . S
C126 C122 1.413 . S
C126 C124 1.391 . S
C126 C141 1.437 . S
H127 C124 0.929 . S
O128 Gd84 2.545 . S
O128 C143 1.258 . S
O129 Gd84 2.610 . S
O129 Gd85 2.358 1_554 S
O129 C140 1.288 . S
O130 Gd85 2.324 1_554 S
O130 C150 1.254 . S
O131 Gd84 2.429 . S
O131 C150 1.268 . S
O132 Gd84 2.545 . S
O132 C140 1.250 . S
O133 Gd84 2.412 1_556 S
O133 C143 1.252 1_556 S
O134 Gd85 2.545 . S
O134 C152 1.258 . S
O135 Gd84 2.362 . S
O135 Gd85 2.606 1_554 S
O135 C151 1.284 1_554 S
O136 Gd84 2.324 1_556 S
O136 C159 1.254 . S
O137 Gd85 2.429 . S
O137 C159 1.268 . S
O138 Gd85 2.545 . S
O138 C151 1.250 . S
O139 Gd85 2.412 1_554 S
O139 C152 1.252 1_554 S
C140 O129 1.288 . S
C140 O132 1.250 . S
C141 H110 0.929 . S
C141 C126 1.437 . S
C141 C142 1.317 . S
C142 H113 0.930 . S
C142 C118 1.431 1_554 S
C142 C141 1.317 . S
C143 Gd84 2.828 . S
C143 O128 1.258 . S
C143 O133 1.252 1_554 S
C143 C144 1.497 . S
C144 C143 1.497 . S
C144 C145 1.395 . S
C144 C146 1.380 1_554 S
C145 C144 1.395 . S
C145 C148 1.398 . S
C145 H160 0.930 . S
C146 C144 1.380 1_556 S
C146 C147 1.391 . S
C146 H161 0.930 . S
C147 C146 1.391 . S
C147 C149 1.381 1_556 S
C148 C145 1.398 . S
C148 C149 1.380 . S
C148 H162 0.930 . S
C149 C147 1.381 1_554 S
C149 C148 1.380 . S
C149 H163 0.930 . S
C150 O130 1.254 . S
C150 O131 1.268 . S
C151 O135 1.284 1_556 S
C151 O138 1.250 . S
C152 Gd85 2.828 . S
C152 O134 1.258 . S
C152 O139 1.252 1_556 S
C152 C153 1.497 . S
C153 C152 1.497 . S
C153 C154 1.395 . S
C153 C155 1.380 1_556 S
C154 C153 1.395 . S
C154 C157 1.398 . S
C154 H164 0.930 . S
C155 C153 1.380 1_554 S
C155 C156 1.391 . S
C155 H165 0.930 . S
C156 C155 1.391 . S
C156 C158 1.387 1_554 S
C157 C154 1.398 . S
C157 C158 1.380 . S
C157 H166 0.930 . S
C158 C156 1.387 1_556 S
C158 C157 1.380 . S
C158 H167 0.930 . S
C159 O136 1.254 . S
C159 O137 1.268 . S
H160 C145 0.930 . S
H161 C146 0.930 . S
H162 C148 0.930 . S
H163 C149 0.930 . S
H164 C154 0.930 . S
H165 C155 0.930 . S
H166 C157 0.930 . S
H167 C158 0.930 . S
Gd168 N199 2.661 1_554 S
Gd168 N205 2.601 . S
Gd168 O212 2.545 . S
Gd168 O213 2.610 . S
Gd168 O215 2.429 . S
Gd168 O216 2.545 . S
Gd168 O217 2.412 1_554 S
Gd168 O219 2.362 1_545 S
Gd168 O220 2.324 1_554 S
Gd168 C227 2.828 . S
Gd169 N178 2.661 1_566 S
Gd169 N182 2.601 . S
Gd169 O213 2.358 1_566 S
Gd169 O214 2.324 1_556 S
Gd169 O218 2.545 . S
Gd169 O219 2.606 1_556 S
Gd169 O221 2.430 . S
Gd169 O222 2.545 . S
Gd169 O223 2.412 1_556 S
Gd169 C236 2.828 . S
C170 C173 1.417 1_554 S
C170 C175 1.431 1_554 S
C170 C176 1.412 . S
C171 C174 1.437 . S
C171 C175 1.317 . S
C171 H190 0.929 . S
C172 C173 1.426 . S
C172 C174 1.413 . S
C172 N182 1.359 1_545 S
C173 C170 1.417 1_556 S
C173 C172 1.426 . S
C173 N178 1.350 1_556 S
C174 C171 1.437 . S
C174 C172 1.413 . S
C174 C184 1.391 . S
C175 C170 1.431 1_556 S
C175 C171 1.317 . S
C175 H186 0.930 . S
C176 C170 1.412 . S
C176 C177 1.355 . S
C176 H188 0.930 . S
C177 C176 1.355 . S
C177 C179 1.402 . S
C177 H189 0.930 . S
N178 Gd169 2.661 1_544 S
N178 C173 1.350 1_554 S
N178 C179 1.307 . S
C179 C177 1.402 . S
C179 N178 1.307 . S
C179 H180 0.930 . S
H180 C179 0.930 . S
C181 N182 1.334 . S
C181 C183 1.394 . S
C181 H185 0.930 . S
N182 Gd169 2.601 . S
N182 C172 1.359 1_565 S
N182 C181 1.334 . S
C183 C181 1.394 . S
C183 C184 1.359 1_565 S
C183 H195 0.930 . S
C184 C174 1.391 . S
C184 C183 1.359 1_545 S
C184 H196 0.929 . S
H185 C181 0.930 . S
H186 C175 0.930 . S
H187 C204 0.927 . S
H188 C176 0.930 . S
H189 C177 0.930 . S
H190 C171 0.929 . S
H191 C209 0.930 . S
H192 C200 0.930 . S
H193 C201 0.930 . S
H194 C225 0.929 . S
H195 C183 0.930 . S
H196 C184 0.929 . S
H197 C226 0.930 . S
H198 C207 0.930 . S
N199 Gd168 2.661 1_556 S
N199 C203 1.350 1_546 S
N199 C204 1.307 1_545 S
C200 H192 0.930 . S
C200 C201 1.355 . S
C200 C202 1.412 . S
C201 H193 0.930 . S
C201 C200 1.355 . S
C201 C204 1.402 . S
C202 C200 1.412 . S
C202 C203 1.417 1_556 S
C202 C226 1.431 1_556 S
C203 N199 1.350 1_564 S
C203 C202 1.417 1_554 S
C203 C206 1.426 . S
C204 H187 0.927 . S
C204 N199 1.307 1_565 S
C204 C201 1.402 . S
N205 Gd168 2.601 . S
N205 C206 1.359 1_545 S
N205 C209 1.334 . S
C206 C203 1.426 . S
C206 N205 1.359 1_565 S
C206 C210 1.413 . S
C207 H198 0.930 . S
C207 C208 1.359 1_545 S
C207 C209 1.394 . S
C208 C207 1.359 1_565 S
C208 C210 1.391 . S
C208 H211 0.929 . S
C209 H191 0.930 . S
C209 N205 1.334 . S
C209 C207 1.394 . S
C210 C206 1.413 . S
C210 C208 1.391 . S
C210 C225 1.437 . S
H211 C208 0.929 . S
O212 Gd168 2.545 . S
O212 C227 1.258 . S
O213 Gd168 2.610 . S
O213 Gd169 2.358 1_544 S
O213 C224 1.288 . S
O214 Gd169 2.324 1_554 S
O214 C234 1.254 . S
O215 Gd168 2.429 . S
O215 C234 1.268 1_545 S
O216 Gd168 2.545 . S
O216 C224 1.250 . S
O217 Gd168 2.412 1_556 S
O217 C227 1.252 1_556 S
O218 Gd169 2.545 . S
O218 C236 1.258 . S
O219 Gd168 2.362 1_565 S
O219 Gd169 2.606 1_554 S
O219 C235 1.284 1_554 S
O220 Gd168 2.324 1_556 S
O220 C243 1.254 . S
O221 Gd169 2.430 . S
O221 C243 1.266 1_565 S
O222 Gd169 2.545 . S
O222 C235 1.250 . S
O223 Gd169 2.412 1_554 S
O223 C236 1.252 1_554 S
C224 O213 1.288 . S
C224 O216 1.250 . S
C225 H194 0.929 . S
C225 C210 1.437 . S
C225 C226 1.317 . S
C226 H197 0.930 . S
C226 C202 1.431 1_554 S
C226 C225 1.317 . S
C227 Gd168 2.828 . S
C227 O212 1.258 . S
C227 O217 1.252 1_554 S
C227 C228 1.497 . S
C228 C227 1.497 . S
C228 C229 1.395 . S
C228 C230 1.380 1_554 S
C229 C228 1.395 . S
C229 C232 1.398 . S
C229 H244 0.930 . S
C230 C228 1.380 1_556 S
C230 C231 1.391 . S
C230 H245 0.930 . S
C231 C230 1.391 . S
C231 C233 1.381 1_556 S
C232 C229 1.398 . S
C232 C233 1.380 . S
C232 H246 0.930 . S
C233 C231 1.381 1_554 S
C233 C232 1.380 . S
C233 H247 0.930 . S
C234 O214 1.254 . S
C234 O215 1.268 1_565 S
C235 O219 1.284 1_556 S
C235 O222 1.250 . S
C236 Gd169 2.828 . S
C236 O218 1.258 . S
C236 O223 1.252 1_556 S
C236 C237 1.497 . S
C237 C236 1.497 . S
C237 C238 1.395 . S
C237 C239 1.380 1_556 S
C238 C237 1.395 . S
C238 C241 1.398 . S
C238 H248 0.930 . S
C239 C237 1.380 1_554 S
C239 C240 1.391 . S
C239 H249 0.930 . S
C240 C239 1.391 . S
C240 C242 1.387 1_554 S
C241 C238 1.398 . S
C241 C242 1.380 . S
C241 H250 0.930 . S
C242 C240 1.387 1_556 S
C242 C241 1.380 . S
C242 H251 0.930 . S
C243 O220 1.254 . S
C243 O221 1.266 1_545 S
H244 C229 0.930 . S
H245 C230 0.930 . S
H246 C232 0.930 . S
H247 C233 0.930 . S
H248 C238 0.930 . S
H249 C239 0.930 . S
H250 C241 0.930 . S
H251 C242 0.930 . S
Gd252 N283 2.661 . S
Gd252 N289 2.601 . S
Gd252 O296 2.545 . S
Gd252 O297 2.606 . S
Gd252 O299 2.429 . S
Gd252 O300 2.545 . S
Gd252 O301 2.412 . S
Gd252 O303 2.362 . S
Gd252 O304 2.324 . S
Gd252 C311 2.828 . S
Gd253 N262 2.661 . S
Gd253 N266 2.601 . S
Gd253 O297 2.362 . S
Gd253 O298 2.324 . S
Gd253 O302 2.545 . S
Gd253 O303 2.606 . S
Gd253 O305 2.429 . S
Gd253 O306 2.545 . S
Gd253 O307 2.412 . S
Gd253 C320 2.828 . S
C254 C257 1.417 . S
C254 C259 1.428 1_565 S
C254 C260 1.412 . S
C255 C258 1.437 1_545 S
C255 C259 1.317 . S
C255 H274 0.929 . S
C256 C257 1.426 . S
C256 C258 1.413 . S
C256 N266 1.359 . S
C257 C254 1.417 . S
C257 C256 1.426 . S
C257 N262 1.350 . S
C258 C255 1.437 1_565 S
C258 C256 1.413 . S
C258 C268 1.391 . S
C259 C254 1.428 1_545 S
C259 C255 1.317 . S
C259 H270 0.933 . S
C260 C254 1.412 . S
C260 C261 1.355 . S
C260 H272 0.930 . S
C261 C260 1.355 . S
C261 C263 1.402 . S
C261 H273 0.930 . S
N262 Gd253 2.661 . S
N262 C257 1.350 . S
N262 C263 1.307 . S
C263 C261 1.402 . S
C263 N262 1.307 . S
C263 H264 0.930 . S
H264 C263 0.930 . S
C265 N266 1.334 . S
C265 C267 1.394 . S
C265 H269 0.930 . S
N266 Gd253 2.601 . S
N266 C256 1.359 . S
N266 C265 1.334 . S
C267 C265 1.394 . S
C267 C268 1.359 . S
C267 H279 0.930 . S
C268 C258 1.391 . S
C268 C267 1.359 . S
C268 H280 0.929 1_565 S
H269 C265 0.930 . S
H270 C259 0.933 . S
H271 C288 0.930 . S
H272 C260 0.930 . S
H273 C261 0.930 . S
H274 C255 0.929 . S
H275 C293 0.930 . S
H276 C284 0.930 . S
H277 C285 0.930 . S
H278 C309 0.929 . S
H279 C267 0.930 . S
H280 C268 0.929 1_545 S
H281 C310 0.930 . S
H282 C291 0.930 . S
N283 Gd252 2.661 . S
N283 C287 1.350 . S
N283 C288 1.307 . S
C284 H276 0.930 . S
C284 C285 1.355 . S
C284 C286 1.412 . S
C285 H277 0.930 . S
C285 C284 1.355 . S
C285 C288 1.402 . S
C286 C284 1.412 . S
C286 C287 1.417 . S
C286 C310 1.431 . S
C287 N283 1.350 . S
C287 C286 1.417 . S
C287 C290 1.426 . S
C288 H271 0.930 . S
C288 N283 1.307 . S
C288 C285 1.402 . S
N289 Gd252 2.601 . S
N289 C290 1.359 . S
N289 C293 1.334 . S
C290 C287 1.426 . S
C290 N289 1.359 . S
C290 C294 1.413 . S
C291 H282 0.930 . S
C291 C292 1.359 . S
C291 C293 1.394 . S
C292 C291 1.359 . S
C292 C294 1.391 . S
C292 H295 0.929 . S
C293 H275 0.930 . S
C293 N289 1.334 . S
C293 C291 1.394 . S
C294 C290 1.413 . S
C294 C292 1.391 . S
C294 C309 1.437 . S
H295 C292 0.929 . S
O296 Gd252 2.545 . S
O296 C311 1.258 . S
O297 Gd252 2.606 . S
O297 Gd253 2.362 . S
O297 C308 1.284 . S
O298 Gd253 2.324 . S
O298 C318 1.254 . S
O299 Gd252 2.429 . S
O299 C318 1.268 . S
O300 Gd252 2.545 . S
O300 C308 1.250 . S
O301 Gd252 2.412 . S
O301 C311 1.252 . S
O302 Gd253 2.545 . S
O302 C320 1.258 . S
O303 Gd252 2.362 . S
O303 Gd253 2.606 . S
O303 C319 1.284 . S
O304 Gd252 2.324 . S
O304 C327 1.254 . S
O305 Gd253 2.429 . S
O305 C327 1.268 . S
O306 Gd253 2.545 . S
O306 C319 1.250 . S
O307 Gd253 2.412 . S
O307 C320 1.252 . S
C308 O297 1.284 . S
C308 O300 1.250 . S
C309 H278 0.929 . S
C309 C294 1.437 . S
C309 C310 1.317 . S
C310 H281 0.930 . S
C310 C286 1.431 . S
C310 C309 1.317 . S
C311 Gd252 2.828 . S
C311 O296 1.258 . S
C311 O301 1.252 . S
C311 C312 1.497 . S
C312 C311 1.497 . S
C312 C313 1.395 . S
C312 C314 1.380 . S
C313 C312 1.395 . S
C313 C316 1.398 . S
C313 H328 0.930 . S
C314 C312 1.380 . S
C314 C315 1.391 . S
C314 H329 0.930 . S
C315 C314 1.391 . S
C315 C317 1.387 . S
C316 C313 1.398 . S
C316 C317 1.380 . S
C316 H330 0.930 . S
C317 C315 1.387 . S
C317 C316 1.380 . S
C317 H331 0.930 . S
C318 O298 1.254 . S
C318 O299 1.268 . S
C319 O303 1.284 . S
C319 O306 1.250 . S
C320 Gd253 2.828 . S
C320 O302 1.258 . S
C320 O307 1.252 . S
C320 C321 1.497 1_565 S
C321 C320 1.497 1_545 S
C321 C322 1.395 . S
C321 C323 1.380 . S
C322 C321 1.395 . S
C322 C325 1.398 . S
C322 H332 0.930 . S
C323 C321 1.380 . S
C323 C324 1.391 . S
C323 H333 0.930 . S
C324 C323 1.391 . S
C324 C326 1.387 . S
C325 C322 1.398 . S
C325 C326 1.380 . S
C325 H334 0.930 . S
C326 C324 1.387 . S
C326 C325 1.380 . S
C326 H335 0.930 . S
C327 O304 1.254 . S
C327 O305 1.268 . S
H328 C313 0.930 . S
H329 C314 0.930 . S
H330 C316 0.930 . S
H331 C317 0.930 . S
H332 C322 0.930 . S
H333 C323 0.930 . S
H334 C325 0.930 . S
H335 C326 0.930 . S
Gd336 N367 2.661 . S
Gd336 N373 2.601 . S
Gd336 O380 2.545 . S
Gd336 O381 2.606 . S
Gd336 O383 2.429 . S
Gd336 O384 2.545 . S
Gd336 O385 2.412 . S
Gd336 O387 2.362 . S
Gd336 O388 2.324 . S
Gd336 C395 2.828 . S
Gd337 N346 2.661 . S
Gd337 N350 2.601 . S
Gd337 O381 2.362 . S
Gd337 O382 2.324 . S
Gd337 O386 2.545 . S
Gd337 O387 2.606 . S
Gd337 O389 2.429 . S
Gd337 O390 2.545 . S
Gd337 O391 2.412 . S
Gd337 C404 2.828 . S
C338 C341 1.417 . S
C338 C343 1.431 . S
C338 C344 1.412 . S
C339 C342 1.437 . S
C339 C343 1.317 . S
C339 H358 0.929 1_455 S
C340 C341 1.426 . S
C340 C342 1.413 . S
C340 N350 1.359 . S
C341 C338 1.417 . S
C341 C340 1.426 . S
C341 N346 1.350 . S
C342 C339 1.437 . S
C342 C340 1.413 . S
C342 C352 1.391 . S
C343 C338 1.431 . S
C343 C339 1.317 . S
C343 H354 0.930 1_455 S
C344 C338 1.412 . S
C344 C345 1.355 . S
C344 H356 0.930 . S
C345 C344 1.355 . S
C345 C347 1.402 . S
C345 H357 0.930 . S
N346 Gd337 2.661 . S
N346 C341 1.350 . S
N346 C347 1.307 . S
C347 C345 1.402 . S
C347 N346 1.307 . S
C347 H348 0.930 . S
H348 C347 0.930 . S
C349 N350 1.334 . S
C349 C351 1.394 . S
C349 H353 0.930 . S
N350 Gd337 2.601 . S
N350 C340 1.359 . S
N350 C349 1.334 . S
C351 C349 1.394 . S
C351 C352 1.359 . S
C351 H363 0.930 . S
C352 C342 1.391 . S
C352 C351 1.359 . S
C352 H364 0.929 . S
H353 C349 0.930 . S
H354 C343 0.930 1_655 S
H355 C372 0.930 . S
H356 C344 0.930 . S
H357 C345 0.930 . S
H358 C339 0.929 1_655 S
H359 C377 0.930 . S
H360 C368 0.930 . S
H361 C369 0.930 . S
H362 C393 0.929 . S
H363 C351 0.930 . S
H364 C352 0.929 . S
H365 C394 0.930 . S
H366 C375 0.930 . S
N367 Gd336 2.661 . S
N367 C371 1.350 1_565 S
N367 C372 1.307 . S
C368 H360 0.930 . S
C368 C369 1.355 . S
C368 C370 1.412 . S
C369 H361 0.930 . S
C369 C368 1.355 . S
C369 C372 1.402 1_545 S
C370 C368 1.412 . S
C370 C371 1.417 . S
C370 C394 1.431 . S
C371 N367 1.350 1_545 S
C371 C370 1.417 . S
C371 C374 1.426 . S
C372 H355 0.930 . S
C372 N367 1.307 . S
C372 C369 1.402 1_565 S
N373 Gd336 2.601 . S
N373 C374 1.359 1_565 S
N373 C377 1.334 . S
C374 C371 1.426 . S
C374 N373 1.359 1_545 S
C374 C378 1.413 . S
C375 H366 0.930 . S
C375 C376 1.359 . S
C375 C377 1.394 1_545 S
C376 C375 1.359 . S
C376 C378 1.391 . S
C376 H379 0.929 . S
C377 H359 0.930 . S
C377 N373 1.334 . S
C377 C375 1.394 1_565 S
C378 C374 1.413 . S
C378 C376 1.391 . S
C378 C393 1.437 . S
H379 C376 0.929 . S
O380 Gd336 2.545 . S
O380 C395 1.258 . S
O381 Gd336 2.606 . S
O381 Gd337 2.362 . S
O381 C392 1.284 . S
O382 Gd337 2.324 . S
O382 C402 1.254 . S
O383 Gd336 2.429 . S
O383 C402 1.268 . S
O384 Gd336 2.545 . S
O384 C392 1.250 . S
O385 Gd336 2.412 . S
O385 C395 1.252 . S
O386 Gd337 2.545 . S
O386 C404 1.258 . S
O387 Gd336 2.362 . S
O387 Gd337 2.606 . S
O387 C403 1.284 . S
O388 Gd336 2.324 . S
O388 C411 1.254 . S
O389 Gd337 2.429 . S
O389 C411 1.268 . S
O390 Gd337 2.545 . S
O390 C403 1.250 . S
O391 Gd337 2.412 . S
O391 C404 1.252 . S
C392 O381 1.284 . S
C392 O384 1.250 . S
C393 H362 0.929 . S
C393 C378 1.437 . S
C393 C394 1.317 . S
C394 H365 0.930 . S
C394 C370 1.431 . S
C394 C393 1.317 . S
C395 Gd336 2.828 . S
C395 O380 1.258 . S
C395 O385 1.252 . S
C395 C396 1.497 . S
C396 C395 1.497 . S
C396 C397 1.395 . S
C396 C398 1.380 . S
C397 C396 1.395 . S
C397 C400 1.398 . S
C397 H412 0.930 . S
C398 C396 1.380 . S
C398 C399 1.391 . S
C398 H413 0.930 . S
C399 C398 1.391 . S
C399 C401 1.387 . S
C400 C397 1.398 . S
C400 C401 1.380 . S
C400 H414 0.930 . S
C401 C399 1.387 . S
C401 C400 1.380 . S
C401 H415 0.930 . S
C402 O382 1.254 . S
C402 O383 1.268 . S
C403 O387 1.284 . S
C403 O390 1.250 . S
C404 Gd337 2.828 . S
C404 O386 1.258 . S
C404 O391 1.252 . S
C404 C405 1.497 1_455 S
C405 C404 1.497 1_655 S
C405 C406 1.395 . S
C405 C407 1.380 . S
C406 C405 1.395 . S
C406 C409 1.398 . S
C406 H416 0.930 . S
C407 C405 1.380 . S
C407 C408 1.391 . S
C407 H417 0.930 1_655 S
C408 C407 1.391 . S
C408 C410 1.387 . S
C409 C406 1.398 . S
C409 C410 1.380 . S
C409 H418 0.930 . S
C410 C408 1.387 . S
C410 C409 1.380 . S
C410 H419 0.930 . S
C411 O388 1.254 . S
C411 O389 1.268 . S
H412 C397 0.930 . S
H413 C398 0.930 . S
H414 C400 0.930 . S
H415 C401 0.930 . S
H416 C406 0.930 . S
H417 C407 0.930 1_455 S
H418 C409 0.930 . S
H419 C410 0.930 . S
Gd420 N451 2.661 . S
Gd420 N457 2.601 . S
Gd420 O464 2.545 . S
Gd420 O465 2.606 . S
Gd420 O467 2.429 . S
Gd420 O468 2.545 . S
Gd420 O469 2.412 . S
Gd420 O471 2.362 . S
Gd420 O472 2.324 . S
Gd420 C479 2.828 . S
Gd421 N430 2.661 . S
Gd421 N434 2.601 . S
Gd421 O465 2.362 . S
Gd421 O466 2.324 . S
Gd421 O470 2.545 . S
Gd421 O471 2.606 . S
Gd421 O473 2.429 . S
Gd421 O474 2.545 . S
Gd421 O475 2.412 . S
Gd421 C488 2.828 . S
C422 C425 1.417 . S
C422 C427 1.431 . S
C422 C428 1.412 . S
C423 C426 1.437 . S
C423 C427 1.317 . S
C423 H442 0.929 . S
C424 C425 1.426 . S
C424 C426 1.413 . S
C424 N434 1.359 . S
C425 C422 1.417 . S
C425 C424 1.426 . S
C425 N430 1.350 . S
C426 C423 1.437 . S
C426 C424 1.413 . S
C426 C436 1.391 . S
C427 C422 1.431 . S
C427 C423 1.317 . S
C427 H438 0.930 . S
C428 C422 1.412 . S
C428 C429 1.355 . S
C428 H440 0.930 . S
C429 C428 1.355 . S
C429 C431 1.402 . S
C429 H441 0.930 . S
N430 Gd421 2.661 . S
N430 C425 1.350 . S
N430 C431 1.307 . S
C431 C429 1.402 . S
C431 N430 1.307 . S
C431 H432 0.930 . S
H432 C431 0.930 . S
C433 N434 1.334 . S
C433 C435 1.394 . S
C433 H437 0.930 . S
N434 Gd421 2.601 . S
N434 C424 1.359 . S
N434 C433 1.334 . S
C435 C433 1.394 . S
C435 C436 1.359 . S
C435 H447 0.930 . S
C436 C426 1.391 . S
C436 C435 1.359 . S
C436 H448 0.929 . S
H437 C433 0.930 . S
H438 C427 0.930 . S
H439 C456 0.930 . S
H440 C428 0.930 . S
H441 C429 0.930 . S
H442 C423 0.929 . S
H443 C461 0.930 . S
H444 C452 0.930 . S
H445 C453 0.930 . S
H446 C477 0.929 . S
H447 C435 0.930 . S
H448 C436 0.929 . S
H449 C478 0.930 . S
H450 C459 0.930 1_455 S
N451 Gd420 2.661 . S
N451 C455 1.350 1_455 S
N451 C456 1.307 . S
C452 H444 0.930 . S
C452 C453 1.355 . S
C452 C454 1.412 . S
C453 H445 0.930 . S
C453 C452 1.355 . S
C453 C456 1.402 1_655 S
C454 C452 1.412 . S
C454 C455 1.417 . S
C454 C478 1.431 . S
C455 N451 1.350 1_655 S
C455 C454 1.417 . S
C455 C458 1.426 . S
C456 H439 0.930 . S
C456 N451 1.307 . S
C456 C453 1.402 1_455 S
N457 Gd420 2.601 . S
N457 C458 1.359 1_455 S
N457 C461 1.334 . S
C458 C455 1.426 . S
C458 N457 1.359 1_655 S
C458 C462 1.413 . S
C459 H450 0.930 1_655 S
C459 C460 1.359 . S
C459 C461 1.394 1_655 S
C460 C459 1.359 . S
C460 C462 1.391 . S
C460 H463 0.929 . S
C461 H443 0.930 . S
C461 N457 1.334 . S
C461 C459 1.394 1_455 S
C462 C458 1.413 . S
C462 C460 1.391 . S
C462 C477 1.437 . S
H463 C460 0.929 . S
O464 Gd420 2.545 . S
O464 C479 1.258 . S
O465 Gd420 2.606 . S
O465 Gd421 2.362 . S
O465 C476 1.284 . S
O466 Gd421 2.324 . S
O466 C486 1.254 . S
O467 Gd420 2.429 . S
O467 C486 1.268 . S
O468 Gd420 2.545 . S
O468 C476 1.250 . S
O469 Gd420 2.412 . S
O469 C479 1.252 . S
O470 Gd421 2.545 . S
O470 C488 1.258 . S
O471 Gd420 2.362 . S
O471 Gd421 2.606 . S
O471 C487 1.284 . S
O472 Gd420 2.324 . S
O472 C495 1.254 . S
O473 Gd421 2.429 . S
O473 C495 1.268 . S
O474 Gd421 2.545 . S
O474 C487 1.250 . S
O475 Gd421 2.412 . S
O475 C488 1.252 . S
C476 O465 1.284 . S
C476 O468 1.250 . S
C477 H446 0.929 . S
C477 C462 1.437 . S
C477 C478 1.317 . S
C478 H449 0.930 . S
C478 C454 1.431 . S
C478 C477 1.317 . S
C479 Gd420 2.828 . S
C479 O464 1.258 . S
C479 O469 1.252 . S
C479 C480 1.497 . S
C480 C479 1.497 . S
C480 C481 1.395 . S
C480 C482 1.380 . S
C481 C480 1.395 . S
C481 C484 1.398 . S
C481 H496 0.930 . S
C482 C480 1.380 . S
C482 C483 1.391 . S
C482 H497 0.930 . S
C483 C482 1.391 . S
C483 C485 1.387 . S
C484 C481 1.398 . S
C484 C485 1.380 . S
C484 H498 0.930 . S
C485 C483 1.387 . S
C485 C484 1.380 . S
C485 H499 0.930 . S
C486 O466 1.254 . S
C486 O467 1.268 . S
C487 O471 1.284 . S
C487 O474 1.250 . S
C488 Gd421 2.828 . S
C488 O470 1.258 . S
C488 O475 1.252 . S
C488 C489 1.497 . S
C489 C488 1.497 . S
C489 C490 1.395 . S
C489 C491 1.380 . S
C490 C489 1.395 . S
C490 C493 1.398 . S
C490 H500 0.930 . S
C491 C489 1.380 . S
C491 C492 1.391 . S
C491 H501 0.930 . S
C492 C491 1.391 . S
C492 C494 1.387 . S
C493 C490 1.398 . S
C493 C494 1.380 . S
C493 H502 0.930 . S
C494 C492 1.387 . S
C494 C493 1.380 . S
C494 H503 0.930 . S
C495 O472 1.254 . S
C495 O473 1.268 . S
H496 C481 0.930 . S
H497 C482 0.930 . S
H498 C484 0.930 . S
H499 C485 0.930 . S
H500 C490 0.930 . S
H501 C491 0.930 . S
H502 C493 0.930 . S
H503 C494 0.930 . S
Gd504 N535 2.661 . S
Gd504 N541 2.601 . S
Gd504 O548 2.545 1_545 S
Gd504 O549 2.606 . S
Gd504 O551 2.429 . S
Gd504 O552 2.545 . S
Gd504 O553 2.412 1_545 S
Gd504 O555 2.362 . S
Gd504 O556 2.324 . S
Gd504 C563 2.828 1_545 S
Gd505 N514 2.661 . S
Gd505 N518 2.601 . S
Gd505 O549 2.362 . S
Gd505 O550 2.324 . S
Gd505 O554 2.545 . S
Gd505 O555 2.606 . S
Gd505 O557 2.429 . S
Gd505 O558 2.545 . S
Gd505 O559 2.412 . S
Gd505 C572 2.828 . S
C506 C509 1.417 . S
C506 C511 1.431 . S
C506 C512 1.412 . S
C507 C510 1.437 . S
C507 C511 1.317 . S
C507 H526 0.929 . S
C508 C509 1.426 . S
C508 C510 1.413 . S
C508 N518 1.359 . S
C509 C506 1.417 . S
C509 C508 1.426 . S
C509 N514 1.350 . S
C510 C507 1.437 . S
C510 C508 1.413 . S
C510 C520 1.391 . S
C511 C506 1.431 . S
C511 C507 1.317 . S
C511 H522 0.930 . S
C512 C506 1.412 . S
C512 C513 1.355 . S
C512 H524 0.930 . S
C513 C512 1.355 . S
C513 C515 1.402 . S
C513 H525 0.930 . S
N514 Gd505 2.661 . S
N514 C509 1.350 . S
N514 C515 1.307 . S
C515 C513 1.402 . S
C515 N514 1.307 . S
C515 H516 0.930 . S
H516 C515 0.930 . S
C517 N518 1.334 . S
C517 C519 1.394 . S
C517 H521 0.930 . S
N518 Gd505 2.601 . S
N518 C508 1.359 . S
N518 C517 1.334 . S
C519 C517 1.394 . S
C519 C520 1.359 . S
C519 H531 0.930 . S
C520 C510 1.391 . S
C520 C519 1.359 . S
C520 H532 0.929 . S
H521 C517 0.930 . S
H522 C511 0.930 . S
H523 C540 0.930 . S
H524 C512 0.930 . S
H525 C513 0.930 . S
H526 C507 0.929 . S
H527 C545 0.930 . S
H528 C536 0.930 . S
H529 C537 0.930 . S
H530 C561 0.929 . S
H531 C519 0.930 . S
H532 C520 0.929 . S
H533 C562 0.930 . S
H534 C543 0.930 . S
N535 Gd504 2.661 . S
N535 C539 1.350 1_545 S
N535 C540 1.307 . S
C536 H528 0.930 . S
C536 C537 1.355 1_565 S
C536 C538 1.412 . S
C537 H529 0.930 . S
C537 C536 1.355 1_545 S
C537 C540 1.402 . S
C538 C536 1.412 . S
C538 C539 1.417 . S
C538 C562 1.431 . S
C539 N535 1.350 1_565 S
C539 C538 1.417 . S
C539 C542 1.426 . S
C540 H523 0.930 . S
C540 N535 1.307 . S
C540 C537 1.402 . S
N541 Gd504 2.601 . S
N541 C542 1.359 1_545 S
N541 C545 1.334 . S
C542 C539 1.426 . S
C542 N541 1.359 1_565 S
C542 C546 1.413 . S
C543 H534 0.930 . S
C543 C544 1.359 . S
C543 C545 1.394 1_565 S
C544 C543 1.359 . S
C544 C546 1.391 . S
C544 H547 0.929 . S
C545 H527 0.930 . S
C545 N541 1.334 . S
C545 C543 1.394 1_545 S
C546 C542 1.413 . S
C546 C544 1.391 . S
C546 C561 1.437 . S
H547 C544 0.929 . S
O548 Gd504 2.545 1_565 S
O548 C563 1.258 . S
O549 Gd504 2.606 . S
O549 Gd505 2.362 . S
O549 C560 1.284 . S
O550 Gd505 2.324 . S
O550 C570 1.254 . S
O551 Gd504 2.429 . S
O551 C570 1.268 . S
O552 Gd504 2.545 . S
O552 C560 1.250 . S
O553 Gd504 2.412 1_565 S
O553 C563 1.252 . S
O554 Gd505 2.545 . S
O554 C572 1.258 . S
O555 Gd504 2.362 . S
O555 Gd505 2.606 . S
O555 C571 1.284 . S
O556 Gd504 2.324 . S
O556 C579 1.254 . S
O557 Gd505 2.429 . S
O557 C579 1.268 . S
O558 Gd505 2.545 . S
O558 C571 1.250 . S
O559 Gd505 2.412 . S
O559 C572 1.252 . S
C560 O549 1.284 . S
C560 O552 1.250 . S
C561 H530 0.929 . S
C561 C546 1.437 . S
C561 C562 1.317 . S
C562 H533 0.930 . S
C562 C538 1.431 . S
C562 C561 1.317 . S
C563 Gd504 2.828 1_565 S
C563 O548 1.258 . S
C563 O553 1.252 . S
C563 C564 1.497 . S
C564 C563 1.497 . S
C564 C565 1.395 . S
C564 C566 1.380 . S
C565 C564 1.395 . S
C565 C568 1.398 . S
C565 H580 0.930 . S
C566 C564 1.380 . S
C566 C567 1.391 . S
C566 H581 0.930 . S
C567 C566 1.391 . S
C567 C569 1.387 . S
C568 C565 1.398 . S
C568 C569 1.380 . S
C568 H582 0.930 . S
C569 C567 1.387 . S
C569 C568 1.380 . S
C569 H583 0.930 . S
C570 O550 1.254 . S
C570 O551 1.268 . S
C571 O555 1.284 . S
C571 O558 1.250 . S
C572 Gd505 2.828 . S
C572 O554 1.258 . S
C572 O559 1.252 . S
C572 C573 1.497 . S
C573 C572 1.497 . S
C573 C574 1.395 . S
C573 C575 1.380 . S
C574 C573 1.395 . S
C574 C577 1.398 . S
C574 H584 0.930 . S
C575 C573 1.380 . S
C575 C576 1.391 . S
C575 H585 0.930 . S
C576 C575 1.391 . S
C576 C578 1.387 . S
C577 C574 1.398 . S
C577 C578 1.380 . S
C577 H586 0.930 . S
C578 C576 1.387 . S
C578 C577 1.380 . S
C578 H587 0.930 . S
C579 O556 1.254 . S
C579 O557 1.268 . S
H580 C565 0.930 . S
H581 C566 0.930 . S
H582 C568 0.930 . S
H583 C569 0.930 . S
H584 C574 0.930 . S
H585 C575 0.930 . S
H586 C577 0.930 . S
H587 C578 0.930 . S
Gd588 N619 2.661 . S
Gd588 N625 2.601 . S
Gd588 O632 2.545 1_655 S
Gd588 O633 2.606 . S
Gd588 O635 2.429 . S
Gd588 O636 2.545 . S
Gd588 O637 2.412 1_655 S
Gd588 O639 2.362 . S
Gd588 O640 2.324 . S
Gd588 C647 2.828 1_655 S
Gd589 N598 2.661 . S
Gd589 N602 2.601 . S
Gd589 O633 2.362 . S
Gd589 O634 2.324 . S
Gd589 O638 2.545 . S
Gd589 O639 2.606 . S
Gd589 O641 2.429 . S
Gd589 O642 2.545 . S
Gd589 O643 2.412 . S
Gd589 C656 2.828 . S
C590 C593 1.417 1_565 S
C590 C595 1.431 . S
C590 C596 1.412 . S
C591 C594 1.437 1_565 S
C591 C595 1.317 . S
C591 H610 0.929 . S
C592 C593 1.426 . S
C592 C594 1.413 . S
C592 N602 1.359 . S
C593 C590 1.417 1_545 S
C593 C592 1.426 . S
C593 N598 1.350 . S
C594 C591 1.437 1_545 S
C594 C592 1.413 . S
C594 C604 1.391 . S
C595 C590 1.431 . S
C595 C591 1.317 . S
C595 H606 0.930 . S
C596 C590 1.412 . S
C596 C597 1.355 1_565 S
C596 H608 0.930 . S
C597 C596 1.355 1_545 S
C597 C599 1.402 . S
C597 H609 0.930 . S
N598 Gd589 2.661 . S
N598 C593 1.350 . S
N598 C599 1.307 . S
C599 C597 1.402 . S
C599 N598 1.307 . S
C599 H600 0.930 . S
H600 C599 0.930 . S
C601 N602 1.334 . S
C601 C603 1.394 . S
C601 H605 0.930 . S
N602 Gd589 2.601 . S
N602 C592 1.359 . S
N602 C601 1.334 . S
C603 C601 1.394 . S
C603 C604 1.359 . S
C603 H615 0.930 . S
C604 C594 1.391 . S
C604 C603 1.359 . S
C604 H616 0.929 1_545 S
H605 C601 0.930 . S
H606 C595 0.930 . S
H607 C624 0.930 . S
H608 C596 0.930 . S
H609 C597 0.930 . S
H610 C591 0.929 . S
H611 C629 0.930 . S
H612 C620 0.930 . S
H613 C621 0.930 . S
H614 C645 0.929 . S
H615 C603 0.930 . S
H616 C604 0.929 1_565 S
H617 C646 0.930 . S
H618 C627 0.930 . S
N619 Gd588 2.661 . S
N619 C623 1.350 1_655 S
N619 C624 1.307 . S
C620 H612 0.930 . S
C620 C621 1.355 . S
C620 C622 1.412 . S
C621 H613 0.930 . S
C621 C620 1.355 . S
C621 C624 1.402 1_455 S
C622 C620 1.412 . S
C622 C623 1.417 . S
C622 C646 1.431 . S
C623 N619 1.350 1_455 S
C623 C622 1.417 . S
C623 C626 1.426 . S
C624 H607 0.930 . S
C624 N619 1.307 . S
C624 C621 1.402 1_655 S
N625 Gd588 2.601 . S
N625 C626 1.359 1_655 S
N625 C629 1.334 . S
C626 C623 1.426 . S
C626 N625 1.359 1_455 S
C626 C630 1.413 . S
C627 H618 0.930 . S
C627 C628 1.359 . S
C627 C629 1.394 1_455 S
C628 C627 1.359 . S
C628 C630 1.391 . S
C628 H631 0.929 . S
C629 H611 0.930 . S
C629 N625 1.334 . S
C629 C627 1.394 1_655 S
C630 C626 1.413 . S
C630 C628 1.391 . S
C630 C645 1.437 . S
H631 C628 0.929 . S
O632 Gd588 2.545 1_455 S
O632 C647 1.258 . S
O633 Gd588 2.606 . S
O633 Gd589 2.362 . S
O633 C644 1.284 . S
O634 Gd589 2.324 . S
O634 C654 1.254 . S
O635 Gd588 2.429 . S
O635 C654 1.268 . S
O636 Gd588 2.545 . S
O636 C644 1.250 . S
O637 Gd588 2.412 1_455 S
O637 C647 1.252 . S
O638 Gd589 2.545 . S
O638 C656 1.258 . S
O639 Gd588 2.362 . S
O639 Gd589 2.606 . S
O639 C655 1.284 . S
O640 Gd588 2.324 . S
O640 C663 1.254 . S
O641 Gd589 2.429 . S
O641 C663 1.268 . S
O642 Gd589 2.545 . S
O642 C655 1.250 . S
O643 Gd589 2.412 . S
O643 C656 1.252 . S
C644 O633 1.284 . S
C644 O636 1.250 . S
C645 H614 0.929 . S
C645 C630 1.437 . S
C645 C646 1.317 . S
C646 H617 0.930 . S
C646 C622 1.431 . S
C646 C645 1.317 . S
C647 Gd588 2.828 1_455 S
C647 O632 1.258 . S
C647 O637 1.252 . S
C647 C648 1.497 . S
C648 C647 1.497 . S
C648 C649 1.395 . S
C648 C650 1.380 . S
C649 C648 1.395 . S
C649 C652 1.398 . S
C649 H664 0.930 . S
C650 C648 1.380 . S
C650 C651 1.391 . S
C650 H665 0.930 . S
C651 C650 1.391 . S
C651 C653 1.387 . S
C652 C649 1.398 . S
C652 C653 1.380 . S
C652 H666 0.930 . S
C653 C651 1.387 . S
C653 C652 1.380 . S
C653 H667 0.930 . S
C654 O634 1.254 . S
C654 O635 1.268 . S
C655 O639 1.284 . S
C655 O642 1.250 . S
C656 Gd589 2.828 . S
C656 O638 1.258 . S
C656 O643 1.252 . S
C656 C657 1.497 . S
C657 C656 1.497 . S
C657 C658 1.395 . S
C657 C659 1.380 . S
C658 C657 1.395 . S
C658 C661 1.398 . S
C658 H668 0.930 . S
C659 C657 1.380 . S
C659 C660 1.391 . S
C659 H669 0.930 . S
C660 C659 1.391 . S
C660 C662 1.387 . S
C661 C658 1.398 . S
C661 C662 1.380 . S
C661 H670 0.930 . S
C662 C660 1.387 . S
C662 C661 1.380 . S
C662 H671 0.930 . S
C663 O640 1.254 . S
C663 O641 1.268 . S
H664 C649 0.930 . S
H665 C650 0.930 . S
H666 C652 0.930 . S
H667 C653 0.930 . S
H668 C658 0.930 . S
H669 C659 0.930 . S
H670 C661 0.930 . S
H671 C662 0.930 . S
Gd672 N703 2.661 . S
Gd672 N709 2.601 . S
Gd672 O716 2.545 . S
Gd672 O717 2.606 . S
Gd672 O719 2.429 . S
Gd672 O720 2.545 . S
Gd672 O721 2.412 . S
Gd672 O723 2.362 . S
Gd672 O724 2.324 . S
Gd672 C731 2.828 . S
Gd673 N682 2.661 . S
Gd673 N686 2.601 . S
Gd673 O717 2.362 . S
Gd673 O718 2.324 . S
Gd673 O722 2.545 . S
Gd673 O723 2.606 . S
Gd673 O725 2.429 . S
Gd673 O726 2.545 . S
Gd673 O727 2.412 . S
Gd673 C740 2.828 . S
C674 C677 1.417 1_455 S
C674 C679 1.431 . S
C674 C680 1.412 . S
C675 C678 1.437 . S
C675 C679 1.317 . S
C675 H694 0.929 . S
C676 C677 1.426 . S
C676 C678 1.413 1_655 S
C676 N686 1.359 . S
C677 C674 1.417 1_655 S
C677 C676 1.426 . S
C677 N682 1.350 . S
C678 C675 1.437 . S
C678 C676 1.413 1_455 S
C678 C688 1.391 1_455 S
C679 C674 1.431 . S
C679 C675 1.317 . S
C679 H690 0.930 . S
C680 C674 1.412 . S
C680 C681 1.355 1_455 S
C680 H692 0.930 . S
C681 C680 1.355 1_655 S
C681 C683 1.402 . S
C681 H693 0.930 . S
N682 Gd673 2.661 . S
N682 C677 1.350 . S
N682 C683 1.307 . S
C683 C681 1.402 . S
C683 N682 1.307 . S
C683 H684 0.930 . S
H684 C683 0.930 . S
C685 N686 1.334 . S
C685 C687 1.394 . S
C685 H689 0.930 . S
N686 Gd673 2.601 . S
N686 C676 1.359 . S
N686 C685 1.334 . S
C687 C685 1.394 . S
C687 C688 1.359 . S
C687 H699 0.930 . S
C688 C678 1.391 1_655 S
C688 C687 1.359 . S
C688 H700 0.929 1_655 S
H689 C685 0.930 . S
H690 C679 0.930 . S
H691 C708 0.930 . S
H692 C680 0.930 . S
H693 C681 0.930 . S
H694 C675 0.929 . S
H695 C713 0.930 . S
H696 C704 0.930 . S
H697 C705 0.930 . S
H698 C729 0.929 . S
H699 C687 0.930 . S
H700 C688 0.929 1_455 S
H701 C730 0.930 . S
H702 C711 0.930 . S
N703 Gd672 2.661 . S
N703 C707 1.350 . S
N703 C708 1.307 . S
C704 H696 0.930 . S
C704 C705 1.355 . S
C704 C706 1.412 . S
C705 H697 0.930 . S
C705 C704 1.355 . S
C705 C708 1.402 . S
C706 C704 1.412 . S
C706 C707 1.417 . S
C706 C730 1.431 . S
C707 N703 1.350 . S
C707 C706 1.417 . S
C707 C710 1.426 . S
C708 H691 0.930 . S
C708 N703 1.307 . S
C708 C705 1.402 . S
N709 Gd672 2.601 . S
N709 C710 1.359 . S
N709 C713 1.334 . S
C710 C707 1.426 . S
C710 N709 1.359 . S
C710 C714 1.413 . S
C711 H702 0.930 . S
C711 C712 1.359 . S
C711 C713 1.394 . S
C712 C711 1.359 . S
C712 C714 1.391 . S
C712 H715 0.929 . S
C713 H695 0.930 . S
C713 N709 1.334 . S
C713 C711 1.394 . S
C714 C710 1.413 . S
C714 C712 1.391 . S
C714 C729 1.437 . S
H715 C712 0.929 . S
O716 Gd672 2.545 . S
O716 C731 1.258 . S
O717 Gd672 2.606 . S
O717 Gd673 2.362 . S
O717 C728 1.284 . S
O718 Gd673 2.324 . S
O718 C738 1.254 . S
O719 Gd672 2.429 . S
O719 C738 1.268 . S
O720 Gd672 2.545 . S
O720 C728 1.250 . S
O721 Gd672 2.412 . S
O721 C731 1.252 . S
O722 Gd673 2.545 . S
O722 C740 1.258 . S
O723 Gd672 2.362 . S
O723 Gd673 2.606 . S
O723 C739 1.284 . S
O724 Gd672 2.324 . S
O724 C747 1.254 . S
O725 Gd673 2.429 . S
O725 C747 1.268 . S
O726 Gd673 2.545 . S
O726 C739 1.250 . S
O727 Gd673 2.412 . S
O727 C740 1.252 . S
C728 O717 1.284 . S
C728 O720 1.250 . S
C729 H698 0.929 . S
C729 C714 1.437 . S
C729 C730 1.317 . S
C730 H701 0.930 . S
C730 C706 1.431 . S
C730 C729 1.317 . S
C731 Gd672 2.828 . S
C731 O716 1.258 . S
C731 O721 1.252 . S
C731 C732 1.497 . S
C732 C731 1.497 . S
C732 C733 1.395 . S
C732 C734 1.380 . S
C733 C732 1.395 . S
C733 C736 1.398 . S
C733 H748 0.930 . S
C734 C732 1.380 . S
C734 C735 1.391 . S
C734 H749 0.930 . S
C735 C734 1.391 . S
C735 C737 1.387 . S
C736 C733 1.398 . S
C736 C737 1.380 . S
C736 H750 0.930 . S
C737 C735 1.387 . S
C737 C736 1.380 . S
C737 H751 0.930 . S
C738 O718 1.254 . S
C738 O719 1.268 . S
C739 O723 1.284 . S
C739 O726 1.250 . S
C740 Gd673 2.828 . S
C740 O722 1.258 . S
C740 O727 1.252 . S
C740 C741 1.497 . S
C741 C740 1.497 . S
C741 C742 1.395 . S
C741 C743 1.380 . S
C742 C741 1.395 . S
C742 C745 1.398 . S
C742 H752 0.930 . S
C743 C741 1.380 . S
C743 C744 1.391 . S
C743 H753 0.930 . S
C744 C743 1.391 . S
C744 C746 1.387 . S
C745 C742 1.398 . S
C745 C746 1.380 . S
C745 H754 0.930 . S
C746 C744 1.387 . S
C746 C745 1.380 . S
C746 H755 0.930 . S
C747 O724 1.254 . S
C747 O725 1.268 . S
H748 C733 0.930 . S
H749 C734 0.930 . S
H750 C736 0.930 . S
H751 C737 0.930 . S
H752 C742 0.930 . S
H753 C743 0.930 . S
H754 C745 0.930 . S
H755 C746 0.930 . S
C756 C757 1.363 . S
C756 C762 1.379 . S
C756 N764 1.356 . S
C757 C756 1.363 . S
C757 C763 1.363 1_554 S
C758 C759 1.363 1_556 S
C758 C763 1.379 . S
C758 N765 1.356 . S
C759 C758 1.363 1_554 S
C759 C762 1.363 . S
N760 C762 1.356 . S
N760 H772 0.984 . S
N760 H773 0.985 . S
N761 C763 1.356 . S
N761 H766 0.984 . S
N761 H767 0.985 . S
C762 C756 1.379 . S
C762 C759 1.363 . S
C762 N760 1.356 . S
C763 C757 1.363 1_556 S
C763 C758 1.379 . S
C763 N761 1.356 . S
N764 C756 1.356 . S
N764 H770 0.984 . S
N764 H771 0.984 . S
N765 C758 1.356 . S
N765 H768 0.984 . S
N765 H769 0.985 . S
H766 N761 0.984 . S
H767 N761 0.985 . S
H768 N765 0.984 . S
H769 N765 0.985 . S
H770 N764 0.984 . S
H771 N764 0.984 . S
H772 N760 0.984 . S
H773 N760 0.985 . S
C774 C775 1.363 . S
C774 C780 1.379 . S
C774 N782 1.356 . S
C775 C774 1.363 . S
C775 C781 1.363 . S
C776 C777 1.363 . S
C776 C781 1.379 . S
C776 N783 1.356 . S
C777 C776 1.363 . S
C777 C780 1.363 . S
N778 C780 1.356 . S
N778 H790 0.984 . S
N778 H791 0.985 1_554 S
N779 C781 1.356 . S
N779 H784 0.984 . S
N779 H785 0.985 . S
C780 C774 1.379 . S
C780 C777 1.363 . S
C780 N778 1.356 . S
C781 C775 1.363 . S
C781 C776 1.379 . S
C781 N779 1.356 . S
N782 C774 1.356 . S
N782 H788 0.984 . S
N782 H789 0.984 . S
N783 C776 1.356 . S
N783 H786 0.984 1_554 S
N783 H787 0.985 . S
H784 N779 0.984 . S
H785 N779 0.985 . S
H786 N783 0.984 1_556 S
H787 N783 0.985 . S
H788 N782 0.984 . S
H789 N782 0.984 . S
H790 N778 0.984 . S
H791 N778 0.985 1_556 S
C792 C793 1.363 1_556 S
C792 C798 1.379 . S
C792 N800 1.356 . S
C793 C792 1.363 1_554 S
C793 C799 1.363 . S
C794 C795 1.363 . S
C794 C799 1.379 . S
C794 N801 1.356 . S
C795 C794 1.363 . S
C795 C798 1.363 1_554 S
N796 C798 1.356 . S
N796 H808 0.984 . S
N796 H809 0.985 . S
N797 C799 1.356 . S
N797 H802 0.984 . S
N797 H803 0.985 . S
C798 C792 1.379 . S
C798 C795 1.363 1_556 S
C798 N796 1.356 . S
C799 C793 1.363 . S
C799 C794 1.379 . S
C799 N797 1.356 . S
N800 C792 1.356 . S
N800 H806 0.984 . S
N800 H807 0.984 . S
N801 C794 1.356 . S
N801 H804 0.984 . S
N801 H805 0.985 . S
H802 N797 0.984 . S
H803 N797 0.985 . S
H804 N801 0.984 . S
H805 N801 0.985 . S
H806 N800 0.984 . S
H807 N800 0.984 . S
H808 N796 0.984 . S
H809 N796 0.985 . S
C810 C811 1.363 1_554 S
C810 C816 1.379 . S
C810 N818 1.356 . S
C811 C810 1.363 1_556 S
C811 C817 1.363 . S
C812 C813 1.357 1_556 S
C812 C817 1.379 . S
C812 N819 1.356 . S
C813 C812 1.357 1_554 S
C813 C816 1.368 . S
N814 C816 1.356 . S
N814 H826 0.984 . S
N814 H827 0.985 . S
N815 C817 1.356 . S
N815 H820 0.984 . S
N815 H821 0.985 . S
C816 C810 1.379 . S
C816 C813 1.368 . S
C816 N814 1.356 . S
C817 C811 1.363 . S
C817 C812 1.379 . S
C817 N815 1.356 . S
N818 C810 1.356 . S
N818 H824 0.984 . S
N818 H825 0.984 . S
N819 C812 1.356 . S
N819 H822 0.984 . S
N819 H823 0.985 . S
H820 N815 0.984 . S
H821 N815 0.985 . S
H822 N819 0.984 . S
H823 N819 0.985 . S
H824 N818 0.984 . S
H825 N818 0.984 . S
H826 N814 0.984 . S
H827 N814 0.985 . S
C828 C829 1.367 . S
C828 C834 1.379 . S
C828 N836 1.356 . S
C829 C828 1.367 . S
C829 C835 1.358 1_554 S
C830 C831 1.363 . S
C830 C835 1.379 . S
C830 N837 1.356 . S
C831 C830 1.363 . S
C831 C834 1.363 1_556 S
N832 C834 1.356 . S
N832 H844 0.984 . S
N832 H845 0.985 . S
N833 C835 1.356 . S
N833 H838 0.984 . S
N833 H839 0.985 . S
C834 C828 1.379 . S
C834 C831 1.363 1_554 S
C834 N832 1.356 . S
C835 C829 1.358 1_556 S
C835 C830 1.379 . S
C835 N833 1.356 . S
N836 C828 1.356 . S
N836 H842 0.984 . S
N836 H843 0.984 . S
N837 C830 1.356 . S
N837 H840 0.984 . S
N837 H841 0.985 . S
H838 N833 0.984 . S
H839 N833 0.985 . S
H840 N837 0.984 . S
H841 N837 0.985 . S
H842 N836 0.984 . S
H843 N836 0.984 . S
H844 N832 0.984 . S
H845 N832 0.985 . S
C846 C847 1.363 1_556 S
C846 C852 1.379 . S
C846 N854 1.356 1_556 S
C847 C846 1.363 1_554 S
C847 C853 1.362 1_554 S
C848 C849 1.363 . S
C848 C853 1.379 . S
C848 N855 1.356 . S
C849 C848 1.363 . S
C849 C852 1.363 . S
N850 C852 1.356 . S
N850 H862 0.984 . S
N850 H863 0.985 . S
N851 C853 1.356 . S
N851 H856 0.984 1_556 S
N851 H857 0.985 . S
C852 C846 1.379 . S
C852 C849 1.363 . S
C852 N850 1.356 . S
C853 C847 1.362 1_556 S
C853 C848 1.379 . S
C853 N851 1.356 . S
N854 C846 1.356 1_554 S
N854 H860 0.984 . S
N854 H861 0.984 . S
N855 C848 1.356 . S
N855 H858 0.984 . S
N855 H859 0.985 . S
H856 N851 0.984 1_554 S
H857 N851 0.985 . S
H858 N855 0.984 . S
H859 N855 0.985 . S
H860 N854 0.984 . S
H861 N854 0.984 . S
H862 N850 0.984 . S
H863 N850 0.985 . S
C864 C865 1.363 . S
C864 C870 1.379 . S
C864 N872 1.356 . S
C865 C864 1.363 . S
C865 C871 1.363 . S
C866 C867 1.363 . S
C866 C871 1.379 . S
C866 N873 1.356 . S
C867 C866 1.363 . S
C867 C870 1.363 . S
N868 C870 1.356 . S
N868 H880 0.984 . S
N868 H881 0.985 . S
N869 C871 1.356 . S
N869 H874 0.984 . S
N869 H875 0.985 . S
C870 C864 1.379 . S
C870 C867 1.363 . S
C870 N868 1.356 . S
C871 C865 1.363 . S
C871 C866 1.379 . S
C871 N869 1.356 . S
N872 C864 1.356 . S
N872 H878 0.984 . S
N872 H879 0.984 . S
N873 C866 1.356 . S
N873 H876 0.984 . S
N873 H877 0.985 . S
H874 N869 0.984 . S
H875 N869 0.985 . S
H876 N873 0.984 . S
H877 N873 0.985 . S
H878 N872 0.984 . S
H879 N872 0.984 . S
H880 N868 0.984 . S
H881 N868 0.985 . S
C882 C883 1.363 . S
C882 C888 1.379 . S
C882 N890 1.356 . S
C883 C882 1.363 . S
C883 C889 1.363 . S
C884 C885 1.363 . S
C884 C889 1.379 1_565 S
C884 N891 1.356 . S
C885 C884 1.363 . S
C885 C888 1.363 1_565 S
N886 C888 1.356 . S
N886 H898 0.984 . S
N886 H899 0.985 1_545 S
N887 C889 1.356 . S
N887 H892 0.984 . S
N887 H893 0.985 1_545 S
C888 C882 1.379 . S
C888 C885 1.363 1_545 S
C888 N886 1.356 . S
C889 C883 1.363 . S
C889 C884 1.379 1_545 S
C889 N887 1.356 . S
N890 C882 1.356 . S
N890 H896 0.984 . S
N890 H897 0.984 . S
N891 C884 1.356 . S
N891 H894 0.984 . S
N891 H895 0.985 . S
H892 N887 0.984 . S
H893 N887 0.985 1_565 S
H894 N891 0.984 . S
H895 N891 0.985 . S
H896 N890 0.984 . S
H897 N890 0.984 . S
H898 N886 0.984 . S
H899 N886 0.985 1_565 S
C900 C901 1.363 . S
C900 C906 1.379 . S
C900 N908 1.356 . S
C901 C900 1.363 . S
C901 C907 1.363 1_455 S
C902 C903 1.363 . S
C902 C907 1.379 . S
C902 N909 1.356 . S
C903 C902 1.363 . S
C903 C906 1.363 1_655 S
N904 C906 1.356 . S
N904 H916 0.984 . S
N904 H917 0.985 1_455 S
N905 C907 1.356 . S
N905 H910 0.984 1_655 S
N905 H911 0.985 . S
C906 C900 1.379 . S
C906 C903 1.363 1_455 S
C906 N904 1.356 . S
C907 C901 1.363 1_655 S
C907 C902 1.379 . S
C907 N905 1.356 . S
N908 C900 1.356 . S
N908 H914 0.984 . S
N908 H915 0.984 . S
N909 C902 1.356 . S
N909 H912 0.984 . S
N909 H913 0.985 . S
H910 N905 0.984 1_455 S
H911 N905 0.985 . S
H912 N909 0.984 . S
H913 N909 0.985 . S
H914 N908 0.984 . S
H915 N908 0.984 . S
H916 N904 0.984 . S
H917 N904 0.985 1_655 S
C918 C919 1.363 . S
C918 C924 1.379 . S
C918 N926 1.356 . S
C919 C918 1.363 . S
C919 C925 1.363 . S
C920 C921 1.363 . S
C920 C925 1.379 . S
C920 N927 1.356 . S
C921 C920 1.363 . S
C921 C924 1.363 . S
N922 C924 1.356 . S
N922 H934 0.984 . S
N922 H935 0.985 . S
N923 C925 1.356 . S
N923 H928 0.984 . S
N923 H929 0.985 . S
C924 C918 1.379 . S
C924 C921 1.363 . S
C924 N922 1.356 . S
C925 C919 1.363 . S
C925 C920 1.379 . S
C925 N923 1.356 . S
N926 C918 1.356 . S
N926 H932 0.984 . S
N926 H933 0.984 . S
N927 C920 1.356 . S
N927 H930 0.984 . S
N927 H931 0.985 . S
H928 N923 0.984 . S
H929 N923 0.985 . S
H930 N927 0.984 . S
H931 N927 0.985 . S
H932 N926 0.984 . S
H933 N926 0.984 . S
H934 N922 0.984 . S
H935 N922 0.985 . S
C936 C937 1.363 . S
C936 C942 1.379 . S
C936 N944 1.356 . S
C937 C936 1.363 . S
C937 C943 1.363 . S
C938 C939 1.363 . S
C938 C943 1.379 . S
C938 N945 1.356 . S
C939 C938 1.363 . S
C939 C942 1.363 . S
N940 C942 1.356 . S
N940 H952 0.984 . S
N940 H953 0.985 . S
N941 C943 1.356 . S
N941 H946 0.984 . S
N941 H947 0.985 . S
C942 C936 1.379 . S
C942 C939 1.363 . S
C942 N940 1.356 . S
C943 C937 1.363 . S
C943 C938 1.379 . S
C943 N941 1.356 . S
N944 C936 1.356 . S
N944 H950 0.984 . S
N944 H951 0.984 . S
N945 C938 1.356 . S
N945 H948 0.984 . S
N945 H949 0.985 . S
H946 N941 0.984 . S
H947 N941 0.985 . S
H948 N945 0.984 . S
H949 N945 0.985 . S
H950 N944 0.984 . S
H951 N944 0.984 . S
H952 N940 0.984 . S
H953 N940 0.985 . S
C954 C955 1.363 . S
C954 C960 1.379 . S
C954 N962 1.356 . S
C955 C954 1.363 . S
C955 C961 1.363 . S
C956 C957 1.363 . S
C956 C961 1.379 . S
C956 N963 1.356 . S
C957 C956 1.363 . S
C957 C960 1.363 . S
N958 C960 1.356 . S
N958 H970 0.984 . S
N958 H971 0.985 . S
N959 C961 1.356 . S
N959 H964 0.984 . S
N959 H965 0.985 . S
C960 C954 1.379 . S
C960 C957 1.363 . S
C960 N958 1.356 . S
C961 C955 1.363 . S
C961 C956 1.379 . S
C961 N959 1.356 . S
N962 C954 1.356 . S
N962 H968 0.984 . S
N962 H969 0.984 . S
N963 C956 1.356 . S
N963 H966 0.984 . S
N963 H967 0.985 . S
H964 N959 0.984 . S
H965 N959 0.985 . S
H966 N963 0.984 . S
H967 N963 0.985 . S
H968 N962 0.984 . S
H969 N962 0.984 . S
H970 N958 0.984 . S
H971 N958 0.985 . S
C972 C973 1.363 . S
C972 C978 1.379 . S
C972 N980 1.356 . S
C973 C972 1.363 . S
C973 C979 1.363 . S
C974 C975 1.363 . S
C974 C979 1.379 . S
C974 N981 1.356 . S
C975 C974 1.363 . S
C975 C978 1.363 . S
N976 C978 1.356 . S
N976 H988 0.984 . S
N976 H989 0.985 . S
N977 C979 1.356 . S
N977 H982 0.984 . S
N977 H983 0.985 . S
C978 C972 1.379 . S
C978 C975 1.363 . S
C978 N976 1.356 . S
C979 C973 1.363 . S
C979 C974 1.379 . S
C979 N977 1.356 . S
N980 C972 1.356 . S
N980 H986 0.984 . S
N980 H987 0.984 . S
N981 C974 1.356 . S
N981 H984 0.984 . S
N981 H985 0.985 . S
H982 N977 0.984 . S
H983 N977 0.985 . S
H984 N981 0.984 . S
H985 N981 0.985 . S
H986 N980 0.984 . S
H987 N980 0.984 . S
H988 N976 0.984 . S
H989 N976 0.985 . S
C990 C991 1.363 . S
C990 C996 1.379 . S
C990 N998 1.356 . S
C991 C990 1.363 . S
C991 C997 1.363 . S
C992 C993 1.363 . S
C992 C997 1.379 . S
C992 N999 1.356 . S
C993 C992 1.363 . S
C993 C996 1.363 . S
N994 C996 1.356 . S
N994 H1006 0.984 . S
N994 H1007 0.985 . S
N995 C997 1.356 . S
N995 H1000 0.984 . S
N995 H1001 0.985 . S
C996 C990 1.379 . S
C996 C993 1.363 . S
C996 N994 1.356 . S
C997 C991 1.363 . S
C997 C992 1.379 . S
C997 N995 1.356 . S
N998 C990 1.356 . S
N998 H1004 0.984 . S
N998 H1005 0.984 . S
N999 C992 1.356 . S
N999 H1002 0.984 . S
N999 H1003 0.985 . S
H1000 N995 0.984 . S
H1001 N995 0.985 . S
H1002 N999 0.984 . S
H1003 N999 0.985 . S
H1004 N998 0.984 . S
H1005 N998 0.984 . S
H1006 N994 0.984 . S
H1007 N994 0.985 . S
C1008 C1009 1.363 . S
C1008 C1014 1.379 . S
C1008 N1016 1.356 . S
C1009 C1008 1.363 . S
C1009 C1015 1.363 . S
C1010 C1011 1.363 . S
C1010 C1015 1.379 . S
C1010 N1017 1.356 . S
C1011 C1010 1.363 . S
C1011 C1014 1.363 . S
N1012 C1014 1.356 . S
N1012 H1024 0.984 . S
N1012 H1025 0.985 . S
N1013 C1015 1.356 . S
N1013 H1018 0.984 . S
N1013 H1019 0.985 . S
C1014 C1008 1.379 . S
C1014 C1011 1.363 . S
C1014 N1012 1.356 . S
C1015 C1009 1.363 . S
C1015 C1010 1.379 . S
C1015 N1013 1.356 . S
N1016 C1008 1.356 . S
N1016 H1022 0.984 . S
N1016 H1023 0.984 . S
N1017 C1010 1.356 . S
N1017 H1020 0.984 . S
N1017 H1021 0.985 . S
H1018 N1013 0.984 . S
H1019 N1013 0.985 . S
H1020 N1017 0.984 . S
H1021 N1017 0.985 . S
H1022 N1016 0.984 . S
H1023 N1016 0.984 . S
H1024 N1012 0.984 . S
H1025 N1012 0.985 . S
C1026 C1027 1.363 . S
C1026 C1032 1.379 1_565 S
C1026 N1034 1.356 . S
C1027 C1026 1.363 . S
C1027 C1033 1.363 1_565 S
C1028 C1029 1.363 . S
C1028 C1033 1.379 . S
C1028 N1035 1.356 . S
C1029 C1028 1.363 . S
C1029 C1032 1.363 . S
N1030 C1032 1.356 . S
N1030 H1042 0.984 . S
N1030 H1043 0.985 . S
N1031 C1033 1.356 1_565 S
N1031 H1036 0.984 . S
N1031 H1037 0.985 . S
C1032 C1026 1.379 1_545 S
C1032 C1029 1.363 . S
C1032 N1030 1.356 . S
C1033 C1027 1.363 1_545 S
C1033 C1028 1.379 . S
C1033 N1031 1.356 1_545 S
N1034 C1026 1.356 . S
N1034 H1040 0.984 . S
N1034 H1041 0.984 . S
N1035 C1028 1.356 . S
N1035 H1038 0.984 . S
N1035 H1039 0.985 . S
H1036 N1031 0.984 . S
H1037 N1031 0.985 . S
H1038 N1035 0.984 . S
H1039 N1035 0.985 . S
H1040 N1034 0.984 . S
H1041 N1034 0.984 . S
H1042 N1030 0.984 . S
H1043 N1030 0.985 . S
C1044 C1045 1.363 . S
C1044 C1050 1.379 1_655 S
C1044 N1052 1.356 . S
C1045 C1044 1.363 . S
C1045 C1051 1.363 . S
C1046 C1047 1.363 . S
C1046 C1051 1.379 1_455 S
C1046 N1053 1.356 . S
C1047 C1046 1.363 . S
C1047 C1050 1.363 . S
N1048 C1050 1.356 . S
N1048 H1060 0.984 . S
N1048 H1061 0.985 . S
N1049 C1051 1.356 . S
N1049 H1054 0.984 . S
N1049 H1055 0.985 . S
C1050 C1044 1.379 1_455 S
C1050 C1047 1.363 . S
C1050 N1048 1.356 . S
C1051 C1045 1.363 . S
C1051 C1046 1.379 1_655 S
C1051 N1049 1.356 . S
N1052 C1044 1.356 . S
N1052 H1058 0.984 . S
N1052 H1059 0.984 . S
N1053 C1046 1.356 . S
N1053 H1056 0.984 . S
N1053 H1057 0.985 . S
H1054 N1049 0.984 . S
H1055 N1049 0.985 . S
H1056 N1053 0.984 . S
H1057 N1053 0.985 . S
H1058 N1052 0.984 . S
H1059 N1052 0.984 . S
H1060 N1048 0.984 . S
H1061 N1048 0.985 . S
C1062 C1063 1.363 . S
C1062 C1068 1.379 . S
C1062 N1070 1.356 . S
C1063 C1062 1.363 . S
C1063 C1069 1.363 . S
C1064 C1065 1.363 . S
C1064 C1069 1.379 . S
C1064 N1071 1.356 . S
C1065 C1064 1.363 . S
C1065 C1068 1.363 . S
N1066 C1068 1.356 . S
N1066 H1078 0.984 . S
N1066 H1079 0.985 . S
N1067 C1069 1.356 . S
N1067 H1072 0.984 . S
N1067 H1073 0.985 . S
C1068 C1062 1.379 . S
C1068 C1065 1.363 . S
C1068 N1066 1.356 . S
C1069 C1063 1.363 . S
C1069 C1064 1.379 . S
C1069 N1067 1.356 . S
N1070 C1062 1.356 . S
N1070 H1076 0.984 . S
N1070 H1077 0.984 . S
N1071 C1064 1.356 . S
N1071 H1074 0.984 . S
N1071 H1075 0.985 . S
H1072 N1067 0.984 . S
H1073 N1067 0.985 . S
H1074 N1071 0.984 . S
H1075 N1071 0.985 . S
H1076 N1070 0.984 . S
H1077 N1070 0.984 . S
H1078 N1066 0.984 . S
H1079 N1066 0.985 . S
C1080 C1081 1.363 . S
C1080 C1086 1.379 . S
C1080 N1088 1.356 . S
C1081 C1080 1.363 . S
C1081 C1087 1.363 . S
C1082 C1083 1.363 . S
C1082 C1087 1.379 . S
C1082 N1089 1.356 . S
C1083 C1082 1.363 . S
C1083 C1086 1.363 . S
N1084 C1086 1.356 . S
N1084 H1096 0.984 . S
N1084 H1097 0.985 . S
N1085 C1087 1.356 . S
N1085 H1090 0.984 . S
N1085 H1091 0.985 . S
C1086 C1080 1.379 . S
C1086 C1083 1.363 . S
C1086 N1084 1.356 . S
C1087 C1081 1.363 . S
C1087 C1082 1.379 . S
C1087 N1085 1.356 . S
N1088 C1080 1.356 . S
N1088 H1094 0.984 . S
N1088 H1095 0.984 . S
N1089 C1082 1.356 . S
N1089 H1092 0.984 . S
N1089 H1093 0.985 . S
H1090 N1085 0.984 . S
H1091 N1085 0.985 . S
H1092 N1089 0.984 . S
H1093 N1089 0.985 . S
H1094 N1088 0.984 . S
H1095 N1088 0.984 . S
H1096 N1084 0.984 . S
H1097 N1084 0.985 . S
C1098 C1099 1.363 . S
C1098 C1104 1.379 . S
C1098 N1106 1.356 . S
C1099 C1098 1.363 . S
C1099 C1105 1.363 . S
C1100 C1101 1.363 . S
C1100 C1105 1.379 . S
C1100 N1107 1.356 . S
C1101 C1100 1.363 . S
C1101 C1104 1.363 . S
N1102 C1104 1.356 . S
N1102 H1114 0.984 . S
N1102 H1115 0.985 . S
N1103 C1105 1.356 . S
N1103 H1108 0.984 . S
N1103 H1109 0.985 . S
C1104 C1098 1.379 . S
C1104 C1101 1.363 . S
C1104 N1102 1.356 . S
C1105 C1099 1.363 . S
C1105 C1100 1.379 . S
C1105 N1103 1.356 . S
N1106 C1098 1.356 . S
N1106 H1112 0.984 . S
N1106 H1113 0.984 . S
N1107 C1100 1.356 . S
N1107 H1110 0.984 . S
N1107 H1111 0.985 . S
H1108 N1103 0.984 . S
H1109 N1103 0.985 . S
H1110 N1107 0.984 . S
H1111 N1107 0.985 . S
H1112 N1106 0.984 . S
H1113 N1106 0.984 . S
H1114 N1102 0.984 . S
H1115 N1102 0.985 . S
C1116 C1117 1.363 . S
C1116 C1122 1.379 . S
C1116 N1124 1.356 . S
C1117 C1116 1.363 . S
C1117 C1123 1.363 . S
C1118 C1119 1.363 . S
C1118 C1123 1.379 . S
C1118 N1125 1.356 . S
C1119 C1118 1.363 . S
C1119 C1122 1.363 . S
N1120 C1122 1.356 . S
N1120 H1132 0.984 . S
N1120 H1133 0.985 . S
N1121 C1123 1.356 . S
N1121 H1126 0.984 . S
N1121 H1127 0.985 . S
C1122 C1116 1.379 . S
C1122 C1119 1.363 . S
C1122 N1120 1.356 . S
C1123 C1117 1.363 . S
C1123 C1118 1.379 . S
C1123 N1121 1.356 . S
N1124 C1116 1.356 . S
N1124 H1130 0.984 . S
N1124 H1131 0.984 . S
N1125 C1118 1.356 . S
N1125 H1128 0.984 . S
N1125 H1129 0.985 . S
H1126 N1121 0.984 . S
H1127 N1121 0.985 . S
H1128 N1125 0.984 . S
H1129 N1125 0.985 . S
H1130 N1124 0.984 . S
H1131 N1124 0.984 . S
H1132 N1120 0.984 . S
H1133 N1120 0.985 . S
C1134 C1135 1.363 . S
C1134 C1140 1.379 . S
C1134 N1142 1.356 . S
C1135 C1134 1.363 . S
C1135 C1141 1.363 . S
C1136 C1137 1.363 . S
C1136 C1141 1.379 . S
C1136 N1143 1.356 . S
C1137 C1136 1.363 . S
C1137 C1140 1.363 . S
N1138 C1140 1.356 . S
N1138 H1150 0.984 . S
N1138 H1151 0.985 . S
N1139 C1141 1.356 . S
N1139 H1144 0.984 . S
N1139 H1145 0.985 . S
C1140 C1134 1.379 . S
C1140 C1137 1.363 . S
C1140 N1138 1.356 . S
C1141 C1135 1.363 . S
C1141 C1136 1.379 . S
C1141 N1139 1.356 . S
N1142 C1134 1.356 . S
N1142 H1148 0.984 . S
N1142 H1149 0.984 . S
N1143 C1136 1.356 . S
N1143 H1146 0.984 . S
N1143 H1147 0.985 . S
H1144 N1139 0.984 . S
H1145 N1139 0.985 . S
H1146 N1143 0.984 . S
H1147 N1143 0.985 . S
H1148 N1142 0.984 . S
H1149 N1142 0.984 . S
H1150 N1138 0.984 . S
H1151 N1138 0.985 . S
C1152 C1153 1.363 . S
C1152 C1158 1.379 . S
C1152 N1160 1.356 . S
C1153 C1152 1.363 . S
C1153 C1159 1.363 . S
C1154 C1155 1.363 . S
C1154 C1159 1.379 . S
C1154 N1161 1.356 . S
C1155 C1154 1.363 . S
C1155 C1158 1.363 . S
N1156 C1158 1.356 . S
N1156 H1168 0.984 . S
N1156 H1169 0.985 . S
N1157 C1159 1.356 . S
N1157 H1162 0.984 . S
N1157 H1163 0.985 . S
C1158 C1152 1.379 . S
C1158 C1155 1.363 . S
C1158 N1156 1.356 . S
C1159 C1153 1.363 . S
C1159 C1154 1.379 . S
C1159 N1157 1.356 . S
N1160 C1152 1.356 . S
N1160 H1166 0.984 . S
N1160 H1167 0.984 . S
N1161 C1154 1.356 . S
N1161 H1164 0.984 . S
N1161 H1165 0.985 . S
H1162 N1157 0.984 . S
H1163 N1157 0.985 . S
H1164 N1161 0.984 . S
H1165 N1161 0.985 . S
H1166 N1160 0.984 . S
H1167 N1160 0.984 . S
H1168 N1156 0.984 . S
H1169 N1156 0.985 . S
C1170 C1171 1.363 . S
C1170 C1176 1.379 . S
C1170 N1178 1.356 . S
C1171 C1170 1.363 . S
C1171 C1177 1.363 . S
C1172 C1173 1.363 . S
C1172 C1177 1.379 . S
C1172 N1179 1.356 . S
C1173 C1172 1.363 . S
C1173 C1176 1.363 . S
N1174 C1176 1.356 . S
N1174 H1186 0.984 . S
N1174 H1187 0.985 . S
N1175 C1177 1.356 . S
N1175 H1180 0.984 . S
N1175 H1181 0.985 . S
C1176 C1170 1.379 . S
C1176 C1173 1.363 . S
C1176 N1174 1.356 . S
C1177 C1171 1.363 . S
C1177 C1172 1.379 . S
C1177 N1175 1.356 . S
N1178 C1170 1.356 . S
N1178 H1184 0.984 . S
N1178 H1185 0.984 . S
N1179 C1172 1.356 . S
N1179 H1182 0.984 . S
N1179 H1183 0.985 . S
H1180 N1175 0.984 . S
H1181 N1175 0.985 . S
H1182 N1179 0.984 . S
H1183 N1179 0.985 . S
H1184 N1178 0.984 . S
H1185 N1178 0.984 . S
H1186 N1174 0.984 . S
H1187 N1174 0.985 . S
C1188 C1189 1.363 . S
C1188 C1194 1.379 . S
C1188 N1196 1.356 . S
C1189 C1188 1.363 . S
C1189 C1195 1.363 . S
C1190 C1191 1.363 . S
C1190 C1195 1.379 . S
C1190 N1197 1.356 . S
C1191 C1190 1.363 . S
C1191 C1194 1.363 . S
N1192 C1194 1.356 . S
N1192 H1204 0.984 . S
N1192 H1205 0.985 . S
N1193 C1195 1.356 . S
N1193 H1198 0.984 . S
N1193 H1199 0.985 . S
C1194 C1188 1.379 . S
C1194 C1191 1.363 . S
C1194 N1192 1.356 . S
C1195 C1189 1.363 . S
C1195 C1190 1.379 . S
C1195 N1193 1.356 . S
N1196 C1188 1.356 . S
N1196 H1202 0.984 . S
N1196 H1203 0.984 . S
N1197 C1190 1.356 . S
N1197 H1200 0.984 . S
N1197 H1201 0.985 . S
H1198 N1193 0.984 . S
H1199 N1193 0.985 . S
H1200 N1197 0.984 . S
H1201 N1197 0.985 . S
H1202 N1196 0.984 . S
H1203 N1196 0.984 . S
H1204 N1192 0.984 . S
H1205 N1192 0.985 . S
C1206 C1207 1.363 . S
C1206 C1212 1.363 1_565 S
C1206 N1214 1.356 . S
C1207 C1206 1.363 . S
C1207 C1213 1.363 . S
C1208 C1209 1.363 . S
C1208 C1213 1.379 1_545 S
C1208 N1215 1.356 . S
C1209 C1208 1.363 . S
C1209 C1212 1.373 . S
N1210 C1212 1.367 . S
N1210 H1222 0.984 1_545 S
N1210 H1223 0.985 . S
N1211 C1213 1.356 . S
N1211 H1216 0.984 . S
N1211 H1217 0.985 . S
C1212 C1206 1.363 1_545 S
C1212 C1209 1.373 . S
C1212 N1210 1.367 . S
C1213 C1207 1.363 . S
C1213 C1208 1.379 1_565 S
C1213 N1211 1.356 . S
N1214 C1206 1.356 . S
N1214 H1220 0.984 . S
N1214 H1221 0.984 . S
N1215 C1208 1.356 . S
N1215 H1218 0.984 . S
N1215 H1219 0.985 . S
H1216 N1211 0.984 . S
H1217 N1211 0.985 . S
H1218 N1215 0.984 . S
H1219 N1215 0.985 . S
H1220 N1214 0.984 . S
H1221 N1214 0.984 . S
H1222 N1210 0.984 1_565 S
H1223 N1210 0.985 . S
C1224 C1225 1.363 1_455 S
C1224 C1230 1.379 . S
C1224 N1232 1.356 1_455 S
C1225 C1224 1.363 1_655 S
C1225 C1231 1.363 . S
C1226 C1227 1.363 . S
C1226 C1231 1.379 1_455 S
C1226 N1233 1.356 . S
C1227 C1226 1.363 . S
C1227 C1230 1.363 . S
N1228 C1230 1.356 . S
N1228 H1240 0.984 . S
N1228 H1241 0.985 . S
N1229 C1231 1.356 . S
N1229 H1234 0.984 . S
N1229 H1235 0.985 . S
C1230 C1224 1.379 . S
C1230 C1227 1.363 . S
C1230 N1228 1.356 . S
C1231 C1225 1.363 . S
C1231 C1226 1.379 1_655 S
C1231 N1229 1.356 . S
N1232 C1224 1.356 1_655 S
N1232 H1238 0.984 . S
N1232 H1239 0.984 . S
N1233 C1226 1.356 . S
N1233 H1236 0.984 . S
N1233 H1237 0.985 . S
H1234 N1229 0.984 . S
H1235 N1229 0.985 . S
H1236 N1233 0.984 . S
H1237 N1233 0.985 . S
H1238 N1232 0.984 . S
H1239 N1232 0.984 . S
H1240 N1228 0.984 . S
H1241 N1228 0.985 . S
C757 C156 1.177 . S
C759 C67 1.375 1_554 S
C775 C240 1.177 . S
C777 C151 1.375 1_554 S
C793 C235 1.375 1_554 S
C795 C72 1.177 . S
C811 C231 1.268 . S
C813 C140 1.452 . S
C829 C224 1.452 . S
C831 C63 1.268 . S
C847 C56 1.453 . S
C849 C147 1.268 . S
C865 C319 1.375 . S
C867 C408 1.177 . S
C883 C492 1.177 . S
C885 C403 1.375 . S
C901 C487 1.375 . S
C903 C324 1.177 . S
C919 C392 1.451 . S
C921 C483 1.265 . S
C937 C476 1.451 . S
C939 C315 1.265 . S
C955 C399 1.265 . S
C957 C308 1.451 . S
C973 C660 1.177 . S
C975 C571 1.375 . S
C991 C655 1.375 . S
C993 C744 1.177 . S
C1009 C739 1.375 . S
C1011 C576 1.177 . S
C1027 C735 1.265 . S
C1029 C644 1.451 . S
C1045 C728 1.451 . S
C1047 C567 1.265 . S
C1063 C560 1.451 . S
C1065 C651 1.265 . S
C1081 C495 2.578 . S
C1083 C66 2.649 . S
C1099 C327 2.578 . S
C1101 C150 2.649 . S
C1117 C234 2.648 . S
C1119 C411 2.578 . S
C1135 C243 2.578 . S
C1137 C570 2.649 . S
C1153 C75 2.578 . S
C1155 C654 2.648 . S
C1171 C738 2.648 . S
C1173 C159 2.578 . S
C1189 C318 2.649 . S
C1191 C747 2.579 . S
C1207 C402 2.648 . S
C1209 C579 2.578 . S
C1225 C663 2.578 . S
C1227 C486 2.648 . S
