# Generated by pormake.
# Topology wjh, (4)-cn, num edge types: 1
# Building blocks:
#     Node 0, Type 0, BuildingBlock: KUFVIS_clean_sbu_0, # of connection points: 4
#     Node 1, Type 0, BuildingBlock: KUFVIS_clean_sbu_0, # of connection points: 4
#     Node 2, Type 0, BuildingBlock: KUFVIS_clean_sbu_0, # of connection points: 4
#     Node 3, Type 0, BuildingBlock: KUFVIS_clean_sbu_0, # of connection points: 4
#     Node 4, Type 0, BuildingBlock: KUFVIS_clean_sbu_0, # of connection points: 4
#     Node 5, Type 0, BuildingBlock: KUFVIS_clean_sbu_0, # of connection points: 4
#     Node 6, Type 0, BuildingBlock: KUFVIS_clean_sbu_0, # of connection points: 4
#     Node 7, Type 0, BuildingBlock: KUFVIS_clean_sbu_0, # of connection points: 4
#     Node 8, Type 0, BuildingBlock: KUFVIS_clean_sbu_0, # of connection points: 4
#     Node 9, Type 0, BuildingBlock: KUFVIS_clean_sbu_0, # of connection points: 4
#     Node 10, Type 0, BuildingBlock: KUFVIS_clean_sbu_0, # of connection points: 4
#     Node 11, Type 0, BuildingBlock: KUFVIS_clean_sbu_0, # of connection points: 4
#     Edge 12, Type (0, 0), BuildingBlock: XIVTED_clean_linker_0, # of connection points: 2
#     Edge 13, Type (0, 0), BuildingBlock: XIVTED_clean_linker_0, # of connection points: 2
#     Edge 14, Type (0, 0), BuildingBlock: XIVTED_clean_linker_0, # of connection points: 2
#     Edge 15, Type (0, 0), BuildingBlock: XIVTED_clean_linker_0, # of connection points: 2
#     Edge 16, Type (0, 0), BuildingBlock: XIVTED_clean_linker_0, # of connection points: 2
#     Edge 17, Type (0, 0), BuildingBlock: XIVTED_clean_linker_0, # of connection points: 2
#     Edge 18, Type (0, 0), BuildingBlock: XIVTED_clean_linker_0, # of connection points: 2
#     Edge 19, Type (0, 0), BuildingBlock: XIVTED_clean_linker_0, # of connection points: 2
#     Edge 20, Type (0, 0), BuildingBlock: XIVTED_clean_linker_0, # of connection points: 2
#     Edge 21, Type (0, 0), BuildingBlock: XIVTED_clean_linker_0, # of connection points: 2
#     Edge 22, Type (0, 0), BuildingBlock: XIVTED_clean_linker_0, # of connection points: 2
#     Edge 23, Type (0, 0), BuildingBlock: XIVTED_clean_linker_0, # of connection points: 2
#     Edge 24, Type (0, 0), BuildingBlock: XIVTED_clean_linker_0, # of connection points: 2
#     Edge 25, Type (0, 0), BuildingBlock: XIVTED_clean_linker_0, # of connection points: 2
#     Edge 26, Type (0, 0), BuildingBlock: XIVTED_clean_linker_0, # of connection points: 2
#     Edge 27, Type (0, 0), BuildingBlock: XIVTED_clean_linker_0, # of connection points: 2
#     Edge 28, Type (0, 0), BuildingBlock: XIVTED_clean_linker_0, # of connection points: 2
#     Edge 29, Type (0, 0), BuildingBlock: XIVTED_clean_linker_0, # of connection points: 2
#     Edge 30, Type (0, 0), BuildingBlock: XIVTED_clean_linker_0, # of connection points: 2
#     Edge 31, Type (0, 0), BuildingBlock: XIVTED_clean_linker_0, # of connection points: 2
#     Edge 32, Type (0, 0), BuildingBlock: XIVTED_clean_linker_0, # of connection points: 2
#     Edge 33, Type (0, 0), BuildingBlock: XIVTED_clean_linker_0, # of connection points: 2
#     Edge 34, Type (0, 0), BuildingBlock: XIVTED_clean_linker_0, # of connection points: 2
#     Edge 35, Type (0, 0), BuildingBlock: XIVTED_clean_linker_0, # of connection points: 2
# Relax obj value: 0.090
# Max RMSD: 0.110
# Mean RMSD: 0.110
data_MOF--net-wjh--node1-KUFVIS_clean_sbu_0--edge1-XIVTED_clean_linker_0
_symmetry_space_group_name_H-M    P1
_symmetry_Int_Tables_number       1
_symmetry_cell_setting            triclinic
loop_
_symmetry_equiv_pos_as_xyz
'x, y, z'
_cell_length_a     62.178233
_cell_length_b     62.202055
_cell_length_c     26.110339
_cell_angle_alpha  89.96254
_cell_angle_beta   89.991236
_cell_angle_gamma 119.97676
loop_
_atom_site_label
_atom_site_type_symbol
_atom_site_fract_x
_atom_site_fract_y
_atom_site_fract_z
_atom_type_partial_charge
Mn0 Mn 0.52015 0.15127 0.06686 0.0
Mn1 Mn 0.55172 0.12013 0.0645 0.0
C2 C 0.5298 0.13842 0.14192 0.0
C3 C 0.52075 0.18906 0.07177 0.0
C4 C 0.49679 0.09649 0.0399 0.0
O5 O 0.53443 0.15759 -0.00612 0.0
O6 O 0.55828 0.13985 0.00157 0.0
C7 C 0.60259 0.16348 0.07007 0.0
N8 N 0.58478 0.14117 0.0888 0.0
C9 C 0.61228 0.14192 0.15447 0.0
C10 C 0.63105 0.16469 0.13533 0.0
C11 C 0.62612 0.1756 0.09317 0.0
C12 C 0.58913 0.13081 0.13011 0.0
H13 H 0.59881 0.17202 0.03797 0.0
C14 C 0.55097 0.15283 0.97708 0.0
O15 O 0.5014 0.16925 0.05441 0.0
O16 O 0.54001 0.18715 0.08303 0.0
N17 N 0.54745 0.10042 0.12411 0.0
C18 C 0.52709 0.07883 0.13906 0.0
C19 C 0.52876 0.0658 0.18139 0.0
C20 C 0.55143 0.07485 0.20736 0.0
C21 C 0.57224 0.09689 0.19085 0.0
C22 C 0.56944 0.10909 0.14847 0.0
H23 H 0.50971 0.07154 0.11882 0.0
O24 O 0.51232 0.14399 0.14152 0.0
O25 O 0.54129 0.14107 0.0991 0.0
O26 O 0.49432 0.11524 0.04988 0.0
O27 O 0.51756 0.0969 0.04076 0.0
C28 C 0.59563 0.10728 0.2148 0.0
C29 C 0.61555 0.12991 0.19702 0.0
H30 H 0.64924 0.17407 0.15299 0.0
H31 H 0.64043 0.19331 0.07851 0.0
H32 H 0.51264 0.04875 0.19377 0.0
H33 H 0.55265 0.06471 0.23993 0.0
H34 H 0.59848 0.09813 0.24724 0.0
H35 H 0.6333 0.13794 0.21639 0.0
Mn36 Mn 0.3728 0.51854 0.23225 0.0
Mn37 Mn 0.43559 0.54686 0.23382 0.0
C38 C 0.39449 0.53431 0.3073 0.0
C39 C 0.33555 0.51916 0.22948 0.0
C40 C 0.40259 0.49129 0.23414 0.0
O41 O 0.38113 0.52663 0.15647 0.0
O42 O 0.4226 0.54283 0.16335 0.0
C43 C 0.4458 0.59593 0.19549 0.0
N44 N 0.44922 0.58201 0.23137 0.0
C45 C 0.47901 0.61856 0.27655 0.0
C46 C 0.47591 0.6333 0.23995 0.0
C47 C 0.45913 0.62192 0.1994 0.0
C48 C 0.46509 0.59276 0.27086 0.0
H49 H 0.43308 0.58728 0.16404 0.0
C50 C 0.40286 0.53602 0.13716 0.0
O51 O 0.33617 0.49897 0.22005 0.0
O52 O 0.35674 0.53926 0.23572 0.0
N53 N 0.45135 0.55247 0.29925 0.0
C54 C 0.45121 0.5356 0.33278 0.0
C55 C 0.46643 0.54393 0.37638 0.0
C56 C 0.4821 0.56948 0.38439 0.0
C57 C 0.48216 0.58651 0.34903 0.0
C58 C 0.46644 0.5771 0.30651 0.0
H59 H 0.43955 0.51595 0.32631 0.0
O60 O 0.37158 0.51654 0.3081 0.0
O61 O 0.40447 0.54244 0.26257 0.0
O62 O 0.38189 0.49078 0.2292 0.0
O63 O 0.42351 0.51116 0.23762 0.0
C64 C 0.497 0.61244 0.35455 0.0
C65 C 0.49527 0.62845 0.31859 0.0
H66 H 0.48622 0.65335 0.24273 0.0
H67 H 0.45657 0.63316 0.17108 0.0
H68 H 0.46625 0.53069 0.40355 0.0
H69 H 0.49388 0.57582 0.41798 0.0
H70 H 0.50957 0.62029 0.38668 0.0
H71 H 0.50645 0.64834 0.32376 0.0
Mn72 Mn 0.86003 0.37316 0.3994 0.0
Mn73 Mn 0.89037 0.43586 0.3973 0.0
C74 C 0.87106 0.39553 0.4746 0.0
C75 C 0.82235 0.33569 0.40289 0.0
C76 C 0.9151 0.40528 0.37536 0.0
O77 O 0.8549 0.38114 0.32551 0.0
O78 O 0.87155 0.42263 0.33336 0.0
C79 C 0.84663 0.44285 0.39974 0.0
N80 N 0.86878 0.44756 0.41979 0.0
C81 C 0.8668 0.47394 0.48475 0.0
C82 C 0.84421 0.46978 0.46414 0.0
C83 C 0.834 0.45401 0.42167 0.0
C84 C 0.87848 0.46223 0.46138 0.0
H85 H 0.83857 0.43051 0.36754 0.0
C86 C 0.85943 0.40233 0.30846 0.0
O87 O 0.84255 0.33637 0.38731 0.0
O88 O 0.82385 0.35677 0.41292 0.0
N89 N 0.90916 0.45124 0.45794 0.0
C90 C 0.93045 0.45237 0.4748 0.0
C91 C 0.94258 0.46669 0.51814 0.0
C92 C 0.93295 0.48003 0.54322 0.0
C93 C 0.91127 0.47895 0.52465 0.0
C94 C 0.89998 0.46434 0.48133 0.0
H95 H 0.93816 0.44245 0.45541 0.0
O96 O 0.86597 0.37263 0.47475 0.0
O97 O 0.86917 0.40434 0.4311 0.0
O98 O 0.89653 0.38392 0.38522 0.0
O99 O 0.91423 0.42539 0.3754 0.0
C100 C 0.90031 0.49161 0.5477 0.0
C101 C 0.87797 0.48894 0.52806 0.0
H102 H 0.8344 0.47833 0.48099 0.0
H103 H 0.81641 0.45044 0.40594 0.0
H104 H 0.95936 0.4675 0.53211 0.0
H105 H 0.94228 0.49095 0.57678 0.0
H106 H 0.90873 0.50321 0.58097 0.0
H107 H 0.86945 0.49836 0.54677 0.0
Mn108 Mn 0.48976 0.85847 0.57157 0.0
Mn109 Mn 0.45543 0.88652 0.55988 0.0
C110 C 0.47668 0.87038 0.6432 0.0
C111 C 0.49115 0.82177 0.58061 0.0
C112 C 0.51123 0.9129 0.54307 0.0
O113 O 0.47812 0.85169 0.49664 0.0
O114 O 0.45169 0.86667 0.4983 0.0
C115 C 0.40582 0.84123 0.56263 0.0
N116 N 0.42208 0.8642 0.58107 0.0
C117 C 0.39214 0.86188 0.64252 0.0
C118 C 0.37486 0.83847 0.62326 0.0
C119 C 0.38181 0.82802 0.5834 0.0
C120 C 0.41582 0.87414 0.62034 0.0
H121 H 0.41124 0.83295 0.53273 0.0
C122 C 0.46119 0.85496 0.47649 0.0
O123 O 0.51042 0.8421 0.56472 0.0
O124 O 0.47093 0.82251 0.58773 0.0
N125 N 0.4569 0.90622 0.6176 0.0
C126 C 0.47605 0.92851 0.63328 0.0
C127 C 0.47239 0.94114 0.67387 0.0
C128 C 0.449 0.93095 0.69741 0.0
C129 C 0.42946 0.9082 0.6801 0.0
C130 C 0.43418 0.89652 0.63933 0.0
H131 H 0.49399 0.93664 0.61501 0.0
O132 O 0.49488 0.86593 0.64666 0.0
O133 O 0.4664 0.86709 0.59872 0.0
O134 O 0.51462 0.89498 0.55589 0.0
O135 O 0.48984 0.91105 0.53938 0.0
C136 C 0.40552 0.89658 0.70189 0.0
C137 C 0.38694 0.87334 0.68342 0.0
H138 H 0.35634 0.8282 0.63927 0.0
H139 H 0.36872 0.80978 0.56888 0.0
H140 H 0.48754 0.95874 0.68687 0.0
H141 H 0.44628 0.94073 0.72876 0.0
H142 H 0.40126 0.90521 0.73328 0.0
H143 H 0.36876 0.86438 0.70116 0.0
Mn144 Mn 0.6377 0.48993 0.72998 0.0
Mn145 Mn 0.57513 0.45869 0.72462 0.0
C146 C 0.61436 0.48057 0.80398 0.0
C147 C 0.67464 0.48895 0.73799 0.0
C148 C 0.60712 0.5132 0.69644 0.0
O149 O 0.63028 0.47524 0.65732 0.0
O150 O 0.58863 0.45068 0.66386 0.0
C151 C 0.56609 0.40745 0.73586 0.0
N152 N 0.56221 0.42603 0.75212 0.0
C153 C 0.53529 0.40044 0.8198 0.0
C154 C 0.53868 0.3809 0.80325 0.0
C155 C 0.55426 0.38447 0.76126 0.0
C156 C 0.54757 0.42292 0.79297 0.0
H157 H 0.57826 0.41021 0.70399 0.0
C158 C 0.60924 0.45827 0.64027 0.0
O159 O 0.67457 0.5083 0.71929 0.0
O160 O 0.65326 0.46989 0.74876 0.0
N161 N 0.55977 0.46464 0.78232 0.0
C162 C 0.55959 0.48577 0.79532 0.0
C163 C 0.54555 0.48557 0.83763 0.0
C164 C 0.53164 0.46362 0.86583 0.0
C165 C 0.53188 0.44203 0.85139 0.0
C166 C 0.54615 0.44332 0.80876 0.0
H167 H 0.57009 0.50266 0.77366 0.0
O168 O 0.63741 0.49807 0.80431 0.0
O169 O 0.60603 0.46915 0.76096 0.0
O170 O 0.62805 0.51587 0.70995 0.0
O171 O 0.58679 0.49241 0.69707 0.0
C172 C 0.51877 0.41939 0.87806 0.0
C173 C 0.5206 0.39865 0.86247 0.0
H174 H 0.52967 0.36318 0.82287 0.0
H175 H 0.5572 0.36957 0.74861 0.0
H176 H 0.54544 0.50231 0.84849 0.0
H177 H 0.52097 0.46359 0.89866 0.0
H178 H 0.50753 0.41782 0.91107 0.0
H179 H 0.51083 0.38148 0.88391 0.0
Mn180 Mn 0.15305 0.63856 0.901 0.0
Mn181 Mn 0.12153 0.57589 0.89959 0.0
C182 C 0.14056 0.61632 0.97634 0.0
C183 C 0.19093 0.67564 0.90603 0.0
C184 C 0.09826 0.60743 0.87412 0.0
O185 O 0.15901 0.63022 0.82808 0.0
O186 O 0.14126 0.58862 0.83643 0.0
C187 C 0.16426 0.56735 0.90552 0.0
N188 N 0.14219 0.56348 0.92441 0.0
C189 C 0.14275 0.53717 -0.00861 0.0
C190 C 0.16528 0.54054 0.97212 0.0
C191 C 0.17616 0.55583 0.92919 0.0
C192 C 0.1318 0.5492 0.96629 0.0
H193 H 0.1728 0.57927 0.87286 0.0
C194 C 0.15416 0.60884 0.8116 0.0
O195 O 0.17117 0.67527 0.88846 0.0
O196 O 0.18897 0.65443 0.91692 0.0
N197 N 0.10188 0.5611 0.95964 0.0
C198 C 0.08076 0.56075 0.97505 0.0
C199 C 0.068 0.54694 0.01852 0.0
C200 C 0.07688 0.53335 0.04529 0.0
C201 C 0.09843 0.53368 0.02828 0.0
C202 C 0.11035 0.54778 0.98471 0.0
H203 H 0.07366 0.57092 0.95442 0.0
O204 O 0.14607 0.63935 0.97573 0.0
O205 O 0.14286 0.60732 0.93346 0.0
O206 O 0.11703 0.62858 0.88431 0.0
O207 O 0.09857 0.58704 0.8752 0.0
C208 C 0.10867 0.52076 0.05314 0.0
C209 C 0.13093 0.52266 0.03498 0.0
H210 H 0.17453 0.53172 -0.00967 0.0
H211 H 0.19368 0.55874 0.91443 0.0
H212 H 0.05134 0.54673 0.0313 0.0
H213 H 0.06706 0.52282 0.07895 0.0
H214 H 0.09975 0.50955 0.08668 0.0
H215 H 0.13888 0.51304 0.05505 0.0
Mn216 Mn 0.86566 0.49277 0.87082 0.0
Mn217 Mn 0.89833 0.46277 0.86783 0.0
C218 C 0.87697 0.48303 0.79393 0.0
C219 C 0.82738 0.4913 0.86932 0.0
C220 C 0.92099 0.51744 0.89353 0.0
O221 O 0.86103 0.47836 0.94349 0.0
O222 O 0.87977 0.45554 0.9326 0.0
C223 C 0.85641 0.41104 0.86453 0.0
N224 N 0.87778 0.42957 0.84384 0.0
C225 C 0.87655 0.40289 0.77582 0.0
C226 C 0.85471 0.38343 0.7968 0.0
C227 C 0.84452 0.38757 0.84117 0.0
C228 C 0.88749 0.42591 0.80063 0.0
H229 H 0.84843 0.41418 0.89844 0.0
C230 C 0.86673 0.46224 0.95881 0.0
O231 O 0.84725 0.51085 0.88585 0.0
O232 O 0.82953 0.47226 0.85738 0.0
N233 N 0.91682 0.46795 0.80587 0.0
C234 C 0.93725 0.48897 0.78894 0.0
C235 C 0.94925 0.48817 0.74401 0.0
C236 C 0.94035 0.4657 0.71732 0.0
C237 C 0.91951 0.44424 0.73583 0.0
C238 C 0.90828 0.44618 0.78074 0.0
H239 H 0.94437 0.50623 0.8095 0.0
O240 O 0.87123 0.50039 0.79569 0.0
O241 O 0.8758 0.4721 0.83671 0.0
O242 O 0.90176 0.51933 0.88535 0.0
O243 O 0.92119 0.49702 0.89126 0.0
C244 C 0.90931 0.42104 0.71123 0.0
C245 C 0.88771 0.40043 0.73092 0.0
H246 H 0.84548 0.3653 0.77888 0.0
H247 H 0.82754 0.37271 0.85734 0.0
H248 H 0.96536 0.50481 0.73005 0.0
H249 H 0.94959 0.46518 0.68257 0.0
H250 H 0.91775 0.41892 0.67673 0.0
H251 H 0.87975 0.38282 0.71104 0.0
Mn252 Mn 0.37829 0.86477 0.04338 0.0
Mn253 Mn 0.44087 0.89767 0.037 0.0
C254 C 0.39819 0.87775 0.96557 0.0
C255 C 0.34181 0.82626 0.04119 0.0
C256 C 0.40907 0.91978 0.06897 0.0
O257 O 0.38902 0.85904 0.11408 0.0
O258 O 0.4304 0.87828 0.10096 0.0
C259 C 0.45055 0.85579 0.028 0.0
N260 N 0.45303 0.87734 0.00918 0.0
C261 C 0.47698 0.87658 0.93752 0.0
C262 C 0.47486 0.85449 0.95636 0.0
C263 C 0.46149 0.84399 0.00168 0.0
C264 C 0.46554 0.8874 0.96521 0.0
H265 H 0.44025 0.84763 0.06276 0.0
C266 C 0.41104 0.86477 0.12782 0.0
O267 O 0.34196 0.84566 0.06022 0.0
O268 O 0.36298 0.82899 0.02703 0.0
N269 N 0.45353 0.91707 0.97587 0.0
C270 C 0.4534 0.93815 0.96213 0.0
C271 C 0.4658 0.95083 0.91739 0.0
C272 C 0.47852 0.94195 0.88763 0.0
C273 C 0.47875 0.92045 0.90294 0.0
C274 C 0.46606 0.90859 0.9479 0.0
H275 H 0.44397 0.94529 0.98512 0.0
O276 O 0.37505 0.87163 0.96964 0.0
O277 O 0.40865 0.87575 0.00665 0.0
O278 O 0.38786 0.90057 0.06146 0.0
O279 O 0.42971 0.92014 0.06417 0.0
C280 C 0.49095 0.91026 0.87519 0.0
C281 C 0.48987 0.8882 0.89218 0.0
H282 H 0.4833 0.84536 0.93621 0.0
H283 H 0.45965 0.82687 0.01632 0.0
H284 H 0.46561 0.96747 0.90596 0.0
H285 H 0.48798 0.95172 0.85303 0.0
H286 H 0.50103 0.9191 0.84045 0.0
H287 H 0.49899 0.88033 0.87005 0.0
Mn288 Mn 0.52027 0.3786 0.20288 0.0
Mn289 Mn 0.55054 0.44116 0.20319 0.0
C290 C 0.52864 0.40054 0.12706 0.0
C291 C 0.52182 0.34191 0.19752 0.0
C292 C 0.4965 0.40899 0.23444 0.0
O293 O 0.53602 0.38759 0.27456 0.0
O294 O 0.55962 0.42917 0.2649 0.0
C295 C 0.60209 0.45111 0.19107 0.0
N296 N 0.58297 0.45406 0.1744 0.0
C297 C 0.60739 0.47956 0.10397 0.0
C298 C 0.62745 0.47707 0.12081 0.0
C299 C 0.62474 0.46268 0.1644 0.0
C300 C 0.58527 0.46758 0.13208 0.0
H301 H 0.60002 0.43988 0.22426 0.0
C302 C 0.55289 0.40907 0.28988 0.0
O303 O 0.50252 0.34199 0.21648 0.0
O304 O 0.54054 0.3632 0.18489 0.0
N305 N 0.54351 0.45492 0.14417 0.0
C306 C 0.52194 0.45422 0.1311 0.0
C307 C 0.52128 0.46703 0.08737 0.0
C308 C 0.54282 0.4806 0.05777 0.0
C309 C 0.56485 0.48124 0.07221 0.0
C310 C 0.56442 0.46817 0.11626 0.0
H311 H 0.50535 0.44396 0.15379 0.0
O312 O 0.51127 0.37745 0.1286 0.0
O313 O 0.54029 0.40971 0.16949 0.0
O314 O 0.49412 0.38801 0.22264 0.0
O315 O 0.51704 0.42952 0.23194 0.0
C316 C 0.58712 0.49404 0.04418 0.0
C317 C 0.60834 0.49307 0.05985 0.0
H318 H 0.64492 0.4859 0.10023 0.0
H319 H 0.64005 0.46047 0.17735 0.0
H320 H 0.5042 0.46645 0.0765 0.0
H321 H 0.5422 0.49033 0.02388 0.0
H322 H 0.58803 0.50437 0.01005 0.0
H323 H 0.6252 0.50257 0.03738 0.0
Mn324 Mn 0.14799 0.52022 0.37274 0.0
Mn325 Mn 0.11626 0.55117 0.37413 0.0
C326 C 0.1357 0.53023 0.2974 0.0
C327 C 0.18609 0.52134 0.36749 0.0
C328 C 0.09305 0.49633 0.39926 0.0
O329 O 0.15389 0.5345 0.44569 0.0
O330 O 0.13588 0.55815 0.4374 0.0
C331 C 0.15885 0.60249 0.36856 0.0
N332 N 0.13689 0.58424 0.3494 0.0
C333 C 0.13778 0.61097 0.28173 0.0
C334 C 0.16019 0.63017 0.30127 0.0
C335 C 0.17084 0.62585 0.3447 0.0
C336 C 0.12671 0.58806 0.3071 0.0
H337 H 0.16724 0.59917 0.40155 0.0
C338 C 0.14893 0.55097 0.46217 0.0
O339 O 0.16641 0.50183 0.38492 0.0
O340 O 0.18391 0.54049 0.35691 0.0
N341 N 0.09681 0.54625 0.31376 0.0
C342 C 0.07588 0.52542 0.29798 0.0
C343 C 0.06339 0.52637 0.25399 0.0
C344 C 0.07237 0.54878 0.22698 0.0
C345 C 0.09375 0.57005 0.24428 0.0
C346 C 0.10539 0.568 0.28844 0.0
H347 H 0.06874 0.50818 0.31871 0.0
O348 O 0.14118 0.51268 0.29785 0.0
O349 O 0.13776 0.54123 0.34051 0.0
O350 O 0.11192 0.49404 0.38924 0.0
O351 O 0.09335 0.51703 0.39835 0.0
C352 C 0.10414 0.59314 0.21907 0.0
C353 C 0.12624 0.61354 0.23755 0.0
H354 H 0.16953 0.64819 0.28289 0.0
H355 H 0.18827 0.64048 0.35967 0.0
H356 H 0.04687 0.50988 0.24095 0.0
H357 H 0.06277 0.54941 0.19288 0.0
H358 H 0.09548 0.59531 0.18499 0.0
H359 H 0.13432 0.63105 0.21722 0.0
Mn360 Mn 0.63272 0.14644 0.53911 0.0
Mn361 Mn 0.57005 0.11711 0.54189 0.0
C362 C 0.61006 0.13352 0.46432 0.0
C363 C 0.67044 0.18376 0.53267 0.0
C364 C 0.59986 0.09206 0.56839 0.0
O365 O 0.62519 0.15374 0.61161 0.0
O366 O 0.58377 0.1375 0.60383 0.0
C367 C 0.56436 0.16148 0.53278 0.0
N368 N 0.55916 0.13874 0.51541 0.0
C369 C 0.53399 0.14031 0.44711 0.0
C370 C 0.53874 0.16356 0.46479 0.0
C371 C 0.55411 0.17425 0.50764 0.0
C372 C 0.54481 0.12852 0.47359 0.0
H373 H 0.57638 0.16989 0.56532 0.0
C374 C 0.6042 0.15004 0.6281 0.0
O375 O 0.66956 0.16388 0.55097 0.0
O376 O 0.64944 0.1822 0.52144 0.0
N377 N 0.55417 0.09688 0.48316 0.0
C378 C 0.55183 0.07457 0.47022 0.0
C379 C 0.53721 0.06152 0.42788 0.0
C380 C 0.52485 0.07132 0.39968 0.0
C381 C 0.52716 0.09408 0.41422 0.0
C382 C 0.54188 0.10619 0.45694 0.0
H383 H 0.56099 0.06674 0.49202 0.0
O384 O 0.63291 0.13844 0.4648 0.0
O385 O 0.60155 0.13681 0.50692 0.0
O386 O 0.62137 0.11023 0.55758 0.0
O387 O 0.57996 0.09336 0.56768 0.0
C388 C 0.51561 0.10532 0.38771 0.0
C389 C 0.51919 0.12852 0.40387 0.0
H390 H 0.53089 0.17347 0.44549 0.0
H391 H 0.55809 0.1923 0.52121 0.0
H392 H 0.53543 0.04391 0.41705 0.0
H393 H 0.51372 0.06128 0.36684 0.0
H394 H 0.50417 0.09641 0.35447 0.0
H395 H 0.51054 0.13716 0.38268 0.0
Mn396 Mn 0.49574 0.63524 0.70648 0.0
Mn397 Mn 0.46814 0.57268 0.69924 0.0
C398 C 0.48056 0.61505 0.6297 0.0
C399 C 0.49442 0.67203 0.71276 0.0
C400 C 0.52364 0.60616 0.7012 0.0
O401 O 0.48691 0.62526 0.78138 0.0
O402 O 0.47158 0.58412 0.77095 0.0
C403 C 0.41863 0.56084 0.73811 0.0
N404 N 0.4329 0.5585 0.7014 0.0
C405 C 0.39674 0.52907 0.65465 0.0
C406 C 0.38165 0.53106 0.69207 0.0
C407 C 0.39265 0.54713 0.73382 0.0
C408 C 0.42251 0.54333 0.66077 0.0
H409 H 0.42697 0.57297 0.77052 0.0
C410 C 0.4777 0.60321 0.79889 0.0
O411 O 0.51478 0.67163 0.72174 0.0
O412 O 0.47459 0.65083 0.70473 0.0
N413 N 0.46303 0.55844 0.63229 0.0
C414 C 0.48017 0.55988 0.59787 0.0
C415 C 0.47221 0.5457 0.55281 0.0
C416 C 0.44674 0.52972 0.54425 0.0
C417 C 0.42944 0.52832 0.58052 0.0
C418 C 0.43847 0.54312 0.62438 0.0
H419 H 0.49975 0.57181 0.60471 0.0
O420 O 0.4983 0.63797 0.6307 0.0
O421 O 0.47229 0.60418 0.67364 0.0
O422 O 0.52382 0.62654 0.70865 0.0
O423 O 0.50395 0.58525 0.6956 0.0
C424 C 0.40357 0.51305 0.57462 0.0
C425 C 0.38723 0.5136 0.6114 0.0
H426 H 0.3616 0.52044 0.689 0.0
H427 H 0.38114 0.54882 0.7628 0.0
H428 H 0.48566 0.54693 0.52494 0.0
H429 H 0.44068 0.51875 0.50952 0.0
H430 H 0.39601 0.50109 0.54152 0.0
H431 H 0.36738 0.50214 0.60589 0.0
H432 H 0.5753 0.17103 0.17524 0.0
H433 H 0.59226 0.09728 0.39129 0.0
H434 H 0.50886 0.10341 0.21731 0.0
H435 H 0.60186 0.16906 0.42874 0.0
H436 H 0.56978 0.09682 0.31297 0.0
H437 H 0.59487 0.16899 0.25524 0.0
C438 C 0.56496 0.15574 0.20147 0.0
C439 C 0.54076 0.1371 0.19007 0.0
C440 C 0.57721 0.11271 0.33818 0.0
C441 C 0.56289 0.13454 0.2797 0.0
C442 C 0.58984 0.11296 0.38246 0.0
C443 C 0.59821 0.13299 0.41615 0.0
C444 C 0.57452 0.13327 0.32697 0.0
C445 C 0.59518 0.15316 0.40353 0.0
C446 C 0.57604 0.15463 0.24665 0.0
C447 C 0.52772 0.11786 0.22511 0.0
N448 N 0.58373 0.15295 0.35936 0.0
N449 N 0.53919 0.11677 0.26852 0.0
H450 H 0.39117 0.51333 0.39993 0.0
H451 H 0.50056 0.62128 0.53473 0.0
H452 H 0.42227 0.58406 0.32338 0.0
H453 H 0.43075 0.58729 0.61541 0.0
H454 H 0.47791 0.60368 0.45457 0.0
H455 H 0.41066 0.53507 0.47979 0.0
C456 C 0.40238 0.5334 0.39999 0.0
C457 C 0.40632 0.54702 0.35492 0.0
C458 C 0.46773 0.59989 0.49001 0.0
C459 C 0.4285 0.57149 0.44507 0.0
C460 C 0.48052 0.6098 0.5355 0.0
C461 C 0.46744 0.60445 0.5817 0.0
C462 C 0.44194 0.58435 0.49129 0.0
C463 C 0.44147 0.59041 0.58077 0.0
C464 C 0.41336 0.54566 0.44532 0.0
C465 C 0.42014 0.57298 0.357 0.0
N466 N 0.42947 0.58019 0.53626 0.0
N467 N 0.43136 0.58451 0.40132 0.0
H468 H 0.84247 0.43685 0.76853 0.0
H469 H 0.83771 0.40836 0.5038 0.0
H470 H 0.90771 0.50156 0.71082 0.0
H471 H 0.90444 0.4094 0.55282 0.0
H472 H 0.83851 0.43033 0.58256 0.0
H473 H 0.84027 0.41471 0.6892 0.0
C474 C 0.8563 0.4463 0.73895 0.0
C475 C 0.87553 0.47074 0.74576 0.0
C476 C 0.85293 0.42574 0.5757 0.0
C477 C 0.87325 0.44577 0.65684 0.0
C478 C 0.85251 0.41332 0.53129 0.0
C479 C 0.87132 0.40769 0.52219 0.0
C480 C 0.87243 0.43266 0.6103 0.0
C481 C 0.88988 0.41386 0.5588 0.0
C482 C 0.855 0.43375 0.6942 0.0
C483 C 0.89283 0.48256 0.70659 0.0
N484 N 0.89026 0.42655 0.60137 0.0
N485 N 0.89157 0.4697 0.6636 0.0
H486 H 0.43077 0.83746 0.6749 0.0
H487 H 0.41015 0.91129 0.88777 0.0
H488 H 0.49551 0.90682 0.71545 0.0
H489 H 0.40834 0.84346 0.93073 0.0
H490 H 0.43002 0.91097 0.80598 0.0
H491 H 0.40987 0.84007 0.75258 0.0
C492 C 0.44039 0.85331 0.70012 0.0
C493 C 0.46454 0.87221 0.68911 0.0
C494 C 0.42488 0.8961 0.8333 0.0
C495 C 0.44092 0.87544 0.77579 0.0
C496 C 0.41372 0.8963 0.87948 0.0
C497 C 0.40839 0.87771 0.91562 0.0
C498 C 0.42929 0.87652 0.82317 0.0
C499 C 0.41277 0.85832 0.90367 0.0
C500 C 0.42855 0.85477 0.74389 0.0
C501 C 0.47669 0.89215 0.72292 0.0
N502 N 0.42293 0.85812 0.85803 0.0
N503 N 0.46453 0.89348 0.76488 0.0
H504 H 0.57418 0.4115 0.098 0.0
H505 H 0.60151 0.43481 0.83576 0.0
H506 H 0.50964 0.41416 0.04659 0.0
H507 H 0.59975 0.50065 0.88029 0.0
H508 H 0.57965 0.41445 0.91511 0.0
H509 H 0.59541 0.43137 0.01793 0.0
C510 C 0.56458 0.41638 0.06969 0.0
C511 C 0.54044 0.41173 0.07853 0.0
C512 C 0.584 0.4333 0.90714 0.0
C513 C 0.56445 0.43436 0.98848 0.0
C514 C 0.59637 0.44485 0.86235 0.0
C515 C 0.60185 0.46912 0.85178 0.0
C516 C 0.57698 0.44613 0.94089 0.0
C517 C 0.59541 0.48175 0.88737 0.0
C518 C 0.57663 0.42761 0.02446 0.0
C519 C 0.52842 0.41784 0.04082 0.0
N520 N 0.58285 0.46989 0.93052 0.0
N521 N 0.54079 0.42934 -0.0028 0.0
H522 H 0.17019 0.57619 0.27053 0.0
H523 H 0.17349 0.60326 0.00687 0.0
H524 H 0.10355 0.51191 0.21652 0.0
H525 H 0.10708 0.60326 0.05448 0.0
H526 H 0.17252 0.58187 0.08659 0.0
H527 H 0.17167 0.59817 0.19139 0.0
C528 C 0.15586 0.56683 0.24187 0.0
C529 C 0.13648 0.54254 0.24964 0.0
C530 C 0.1582 0.58656 0.07925 0.0
C531 C 0.13796 0.56734 0.16091 0.0
C532 C 0.15871 0.59864 0.03427 0.0
C533 C 0.14005 0.6044 0.02448 0.0
C534 C 0.13878 0.58013 0.11385 0.0
C535 C 0.12152 0.59868 0.06101 0.0
C536 C 0.15674 0.57929 0.19723 0.0
C537 C 0.11855 0.5308 0.21155 0.0
N538 N 0.12106 0.58633 0.10428 0.0
N539 N 0.11946 0.54356 0.16861 0.0
H540 H 0.56157 0.33672 0.17329 0.0
H541 H 0.48033 0.19569 0.08004 0.0
H542 H 0.48191 0.29457 0.18986 0.0
H543 H 0.5601 0.23444 0.09475 0.0
H544 H 0.48013 0.23252 0.11331 0.0
H545 H 0.56104 0.29983 0.14017 0.0
C546 C 0.54396 0.31959 0.17054 0.0
C547 C 0.52176 0.31872 0.18453 0.0
C548 C 0.49766 0.23296 0.10896 0.0
C549 C 0.52094 0.27637 0.14549 0.0
C550 C 0.49781 0.21205 0.08948 0.0
C551 C 0.52027 0.21201 0.08456 0.0
C552 C 0.52015 0.25398 0.12321 0.0
C553 C 0.54235 0.23362 0.09793 0.0
C554 C 0.54366 0.29852 0.15138 0.0
C555 C 0.49949 0.29601 0.1799 0.0
N556 N 0.54172 0.25366 0.11664 0.0
N557 N 0.49961 0.27576 0.16037 0.0
H558 H 0.28914 0.47866 0.24421 0.0
H559 H 0.23102 0.56089 0.34237 0.0
H560 H 0.32882 0.55873 0.24626 0.0
H561 H 0.193 0.48115 0.35681 0.0
H562 H 0.26658 0.56008 0.30529 0.0
H563 H 0.25276 0.47875 0.28029 0.0
C564 C 0.29007 0.49626 0.2513 0.0
C565 C 0.31209 0.51874 0.24212 0.0
C566 C 0.25057 0.54273 0.31686 0.0
C567 C 0.27069 0.51895 0.28435 0.0
C568 C 0.23027 0.54319 0.33838 0.0
C569 C 0.20898 0.52105 0.35288 0.0
C570 C 0.24963 0.51993 0.30922 0.0
C571 C 0.20909 0.49868 0.34654 0.0
C572 C 0.26937 0.49629 0.27244 0.0
C573 C 0.31227 0.54096 0.25265 0.0
N574 N 0.22903 0.49867 0.32483 0.0
N575 N 0.29198 0.54049 0.27335 0.0
H576 H 0.71741 0.18985 0.52471 0.0
H577 H 0.77632 0.3292 0.41961 0.0
H578 H 0.67693 0.22902 0.50712 0.0
H579 H 0.81628 0.28907 0.41739 0.0
H580 H 0.74006 0.29247 0.45324 0.0
H581 H 0.75457 0.2262 0.48991 0.0
C582 C 0.71644 0.20619 0.51431 0.0
C583 C 0.69403 0.2064 0.51891 0.0
C584 C 0.75664 0.29152 0.4451 0.0
C585 C 0.73624 0.24779 0.47842 0.0
C586 C 0.77736 0.31251 0.42559 0.0
C587 C 0.79937 0.31222 0.41553 0.0
C588 C 0.75785 0.26997 0.45527 0.0
C589 C 0.79961 0.29004 0.42423 0.0
C590 C 0.73756 0.22683 0.49398 0.0
C591 C 0.69375 0.22797 0.50426 0.0
N592 N 0.77922 0.26983 0.44401 0.0
N593 N 0.71444 0.24769 0.48466 0.0
H594 H 0.53255 0.81679 0.59145 0.0
H595 H 0.45427 0.67831 0.70245 0.0
H596 H 0.45283 0.77644 0.60786 0.0
H597 H 0.53433 0.71874 0.69706 0.0
H598 H 0.45387 0.7148 0.66964 0.0
H599 H 0.53406 0.78126 0.62857 0.0
C600 C 0.51536 0.80036 0.60217 0.0
C601 C 0.49252 0.79958 0.5964 0.0
C602 C 0.47158 0.71586 0.67604 0.0
C603 C 0.49414 0.75909 0.63966 0.0
C604 C 0.47182 0.69503 0.69518 0.0
C605 C 0.49436 0.69544 0.70257 0.0
C606 C 0.49406 0.73732 0.66364 0.0
C607 C 0.51651 0.71764 0.69223 0.0
C608 C 0.51625 0.78018 0.6238 0.0
C609 C 0.47086 0.77791 0.61151 0.0
N610 N 0.51581 0.73763 0.67281 0.0
N611 N 0.47222 0.75863 0.63246 0.0
H612 H 0.68 0.44942 0.76341 0.0
H613 H 0.8203 0.53142 0.86125 0.0
H614 H 0.7217 0.52913 0.74831 0.0
H615 H 0.78198 0.45166 0.84731 0.0
H616 H 0.78341 0.53132 0.82734 0.0
H617 H 0.71666 0.45022 0.79884 0.0
C618 C 0.69699 0.4671 0.767 0.0
C619 C 0.69779 0.48924 0.75268 0.0
C620 C 0.78306 0.51385 0.83207 0.0
C621 C 0.73988 0.49035 0.79436 0.0
C622 C 0.804 0.51387 0.85195 0.0
C623 C 0.80422 0.49151 0.85716 0.0
C624 C 0.76217 0.49129 0.81767 0.0
C625 C 0.78267 0.46935 0.84391 0.0
C626 C 0.71792 0.46756 0.78749 0.0
C627 C 0.72032 0.51161 0.75846 0.0
N628 N 0.76261 0.46981 0.82472 0.0
N629 N 0.74044 0.51162 0.77922 0.0
H630 H 0.19722 0.72249 0.91594 0.0
H631 H 0.33661 0.78114 0.01949 0.0
H632 H 0.2361 0.6816 0.93113 0.0
H633 H 0.29453 0.81891 0.03174 0.0
H634 H 0.30014 0.74499 0.98453 0.0
H635 H 0.23334 0.75905 0.95266 0.0
C636 C 0.21349 0.72132 0.92616 0.0
C637 C 0.21367 0.69896 0.92034 0.0
C638 C 0.29872 0.76106 -0.00474 0.0
C639 C 0.25481 0.7405 0.96308 0.0
C640 C 0.31954 0.78169 0.01553 0.0
C641 C 0.31861 0.80306 0.02869 0.0
C642 C 0.27676 0.7618 0.98737 0.0
C643 C 0.296 0.80273 0.02249 0.0
C644 C 0.23398 0.74209 0.94765 0.0
C645 C 0.23512 0.69842 0.93487 0.0
N646 N 0.27601 0.7825 0.00179 0.0
N647 N 0.25474 0.71881 0.95558 0.0
H648 H 0.63489 0.16208 0.71239 0.0
H649 H 0.53257 0.16492 0.89233 0.0
H650 H 0.56886 0.16097 0.65742 0.0
H651 H 0.59654 0.16193 0.94709 0.0
H652 H 0.55042 0.17309 0.80578 0.0
H653 H 0.6261 0.17164 0.79842 0.0
C654 C 0.61887 0.16431 0.71818 0.0
C655 C 0.6023 0.16014 0.67803 0.0
C656 C 0.5607 0.17104 0.83704 0.0
C657 C 0.59201 0.17089 0.77582 0.0
C658 C 0.55053 0.16646 0.88637 0.0
C659 C 0.56278 0.16218 0.92666 0.0
C660 C 0.58323 0.17133 0.82833 0.0
C661 C 0.58613 0.16455 0.91694 0.0
C662 C 0.61377 0.16969 0.76723 0.0
C663 C 0.58186 0.16344 0.68752 0.0
N664 N 0.5954 0.16862 0.86876 0.0
N665 N 0.57712 0.16827 0.73548 0.0
H666 H 0.48515 0.57264 0.86004 0.0
H667 H 0.39262 0.56666 0.0802 0.0
H668 H 0.45271 0.61977 0.85871 0.0
H669 H 0.4251 0.5197 0.07224 0.0
H670 H 0.41256 0.58567 -0.00195 0.0
H671 H 0.46386 0.55432 0.94014 0.0
C672 C 0.474 0.57958 0.87756 0.0
C673 C 0.47083 0.59786 0.85319 0.0
C674 C 0.41488 0.57085 0.01381 0.0
C675 C 0.44546 0.57627 0.94403 0.0
C676 C 0.40312 0.55969 0.06002 0.0
C677 C 0.40698 0.54137 0.08222 0.0
C678 C 0.43061 0.56359 -0.00973 0.0
C679 C 0.42145 0.53356 0.05583 0.0
C680 C 0.46153 0.56888 0.92293 0.0
C681 C 0.45592 0.60599 0.87696 0.0
N682 N 0.43287 0.54483 0.01152 0.0
N683 N 0.44351 0.59492 0.92099 0.0
H684 H 0.84976 0.47676 0.04243 0.0
H685 H 0.85282 0.37409 0.22223 0.0
H686 H 0.86313 0.41873 0.98905 0.0
H687 H 0.84725 0.4365 0.27756 0.0
H688 H 0.84704 0.38468 0.13459 0.0
H689 H 0.83969 0.45705 0.12727 0.0
C690 C 0.8503 0.45979 0.04831 0.0
C691 C 0.85784 0.44975 0.0089 0.0
C692 C 0.84666 0.39577 0.16614 0.0
C693 C 0.8463 0.42709 0.10529 0.0
C694 C 0.84982 0.38962 0.21608 0.0
C695 C 0.851 0.4047 0.257 0.0
C696 C 0.84463 0.41707 0.15751 0.0
C697 C 0.84696 0.42463 0.247 0.0
C698 C 0.84456 0.44853 0.09665 0.0
C699 C 0.85796 0.42753 0.01852 0.0
N700 N 0.84428 0.43041 0.1983 0.0
N701 N 0.85256 0.41713 0.06574 0.0
H702 H 0.48726 0.85482 0.39145 0.0
H703 H 0.37891 0.84331 0.20941 0.0
H704 H 0.41383 0.83518 0.44328 0.0
H705 H 0.45301 0.86478 0.15784 0.0
H706 H 0.38886 0.83221 0.29266 0.0
H707 H 0.47248 0.84979 0.30263 0.0
C708 C 0.4679 0.84872 0.38417 0.0
C709 C 0.45184 0.84579 0.42456 0.0
C710 C 0.40283 0.83911 0.26281 0.0
C711 C 0.43492 0.84048 0.3238 0.0
C712 C 0.39713 0.84548 0.21535 0.0
C713 C 0.41528 0.85555 0.17695 0.0
C714 C 0.42682 0.84286 0.27177 0.0
C715 C 0.43854 0.85766 0.18663 0.0
C716 C 0.45948 0.84606 0.33358 0.0
C717 C 0.42693 0.83802 0.41318 0.0
N718 N 0.4437 0.85166 0.23313 0.0
N719 N 0.41933 0.836 0.36393 0.0
H720 H 0.57609 0.41122 0.61121 0.0
H721 H 0.59856 0.44643 0.31748 0.0
H722 H 0.63753 0.47939 0.55398 0.0
H723 H 0.53684 0.37832 0.37456 0.0
H724 H 0.61752 0.45475 0.4017 0.0
H725 H 0.56657 0.39511 0.52437 0.0
C726 C 0.58791 0.42266 0.58035 0.0
C727 C 0.6074 0.44689 0.5897 0.0
C728 C 0.6 0.43782 0.39585 0.0
C729 C 0.59625 0.42862 0.48976 0.0
C730 C 0.58905 0.43302 0.34767 0.0
C731 C 0.56576 0.41183 0.33914 0.0
C732 C 0.58749 0.4215 0.43631 0.0
C733 C 0.55467 0.39499 0.37955 0.0
C734 C 0.5824 0.41342 0.53068 0.0
C735 C 0.62226 0.46069 0.54839 0.0
N736 N 0.56545 0.40041 0.42671 0.0
N737 N 0.61606 0.45153 0.49996 0.0
H738 H 0.16327 0.53398 0.54601 0.0
H739 H 0.16478 0.63863 0.7262 0.0
H740 H 0.15645 0.59598 0.49229 0.0
H741 H 0.16363 0.57263 0.78144 0.0
H742 H 0.17178 0.62841 0.63924 0.0
H743 H 0.17317 0.55282 0.63166 0.0
C744 C 0.16425 0.55168 0.55197 0.0
C745 C 0.15849 0.56311 0.51226 0.0
C746 C 0.17039 0.61641 0.67065 0.0
C747 C 0.16976 0.58474 0.60954 0.0
C748 C 0.16651 0.62233 0.72023 0.0
C749 C 0.16307 0.6062 0.76084 0.0
C750 C 0.17087 0.59428 0.662 0.0
C751 C 0.16562 0.58534 0.75106 0.0
C752 C 0.16984 0.56242 0.60078 0.0
C753 C 0.16022 0.58617 0.52199 0.0
N754 N 0.16902 0.57981 0.70264 0.0
N755 N 0.1654 0.59605 0.56964 0.0
H756 H 0.4837 0.06135 0.96541 0.0
H757 H 0.43116 0.9545 0.14413 0.0
H758 H 0.46102 0.07514 0.11188 0.0
H759 H 0.39332 0.94091 -0.00063 0.0
H760 H 0.44477 0.99887 0.13553 0.0
H761 H 0.45312 0.01696 0.97492 0.0
C762 C 0.47164 0.0551 -0.00137 0.0
C763 C 0.47445 0.0718 0.03752 0.0
C764 C 0.43277 0.98599 0.10657 0.0
C765 C 0.44069 0.02136 0.04978 0.0
C766 C 0.42495 0.96078 0.11159 0.0
C767 C 0.41077 0.94415 0.07284 0.0
C768 C 0.42729 0.99459 0.06147 0.0
C769 C 0.4038 0.9532 0.03051 0.0
C770 C 0.45432 0.02989 0.00412 0.0
C771 C 0.45894 0.0628 0.08065 0.0
N772 N 0.41279 0.97799 0.02509 0.0
N773 N 0.44319 0.03801 0.08642 0.0
H774 H 0.4535 0.38846 0.17972 0.0
H775 H 0.40775 0.47195 0.32243 0.0
H776 H 0.48958 0.43474 0.31066 0.0
H777 H 0.40114 0.45987 0.15944 0.0
H778 H 0.42383 0.44328 0.33022 0.0
H779 H 0.42128 0.40036 0.18448 0.0
C780 C 0.45408 0.40037 0.21061 0.0
C781 C 0.47411 0.41067 0.24496 0.0
C782 C 0.41811 0.44628 0.29297 0.0
C783 C 0.43755 0.42415 0.25062 0.0
C784 C 0.40879 0.46245 0.28856 0.0
C785 C 0.40315 0.46813 0.24026 0.0
C786 C 0.4218 0.43576 0.2487 0.0
C787 C 0.40508 0.45567 0.19737 0.0
C788 C 0.43587 0.40728 0.21299 0.0
C789 C 0.4744 0.42643 0.28356 0.0
N790 N 0.4146 0.44025 0.20245 0.0
N791 N 0.45645 0.43279 0.28523 0.0
H792 H 0.07295 0.45757 0.33313 0.0
H793 H 0.94878 0.42468 0.29752 0.0
H794 H 0.05664 0.48558 0.46982 0.0
H795 H 0.93847 0.39489 0.45026 0.0
H796 H 0.99349 0.43948 0.30456 0.0
H797 H 0.02841 0.42749 0.32357 0.0
C798 C 0.06012 0.45663 0.36232 0.0
C799 C 0.06837 0.4739 0.40253 0.0
C800 C 0.98126 0.42893 0.33578 0.0
C801 C 0.01784 0.43984 0.39173 0.0
C802 C 0.95586 0.42049 0.33172 0.0
C803 C 0.94003 0.40815 0.37297 0.0
C804 C 0.99087 0.42586 0.38215 0.0
C805 C 0.95011 0.40384 0.41725 0.0
C806 C 0.03479 0.43973 0.35646 0.0
C807 C 0.05095 0.47244 0.43853 0.0
N808 N 0.97506 0.41336 0.42133 0.0
N809 N 0.02642 0.45573 0.43222 0.0
H810 H 0.54618 0.93484 0.61668 0.0
H811 H 0.61581 0.07026 0.50045 0.0
H812 H 0.5235 0.94888 0.47035 0.0
H813 H 0.57425 0.05637 0.64059 0.0
H814 H 0.59992 0.02541 0.49193 0.0
H815 H 0.57469 0.9797 0.62681 0.0
C816 C 0.54802 0.94727 0.58574 0.0
C817 C 0.53276 0.93825 0.54231 0.0
C818 C 0.59505 0.03239 0.52535 0.0
C819 C 0.56525 0.98909 0.55355 0.0
C820 C 0.60426 0.05788 0.53059 0.0
C821 C 0.59651 0.06693 0.57164 0.0
C822 C 0.57863 0.01609 0.56221 0.0
C823 C 0.58083 0.05007 0.60876 0.0
C824 C 0.56404 0.97275 0.59184 0.0
C825 C 0.53518 0.95516 0.50408 0.0
N826 N 0.57234 0.02536 0.60316 0.0
N827 N 0.55115 0.97986 0.51057 0.0
H828 H 0.58231 0.52016 0.61839 0.0
H829 H 0.55495 0.6082 0.77676 0.0
H830 H 0.62582 0.5556 0.75288 0.0
H831 H 0.54367 0.6012 0.61357 0.0
H832 H 0.58427 0.59274 0.76856 0.0
H833 H 0.5706 0.55223 0.61348 0.0
C834 C 0.58993 0.53515 0.64602 0.0
C835 C 0.60511 0.5354 0.68588 0.0
C836 C 0.57604 0.5954 0.73432 0.0
C837 C 0.59106 0.57158 0.68191 0.0
C838 C 0.5595 0.6044 0.73901 0.0
C839 C 0.54703 0.60594 0.69573 0.0
C840 C 0.57946 0.58735 0.68623 0.0
C841 C 0.55294 0.60016 0.6478 0.0
C842 C 0.58326 0.55345 0.64333 0.0
C843 C 0.61428 0.555 0.72123 0.0
N844 N 0.56831 0.5906 0.6444 0.0
N845 N 0.6066 0.57201 0.71922 0.0
H846 H 0.07661 0.62232 0.94457 0.0
H847 H 0.942 0.55309 0.82118 0.0
H848 H 0.0635 0.58531 0.7989 0.0
H849 H 0.95586 0.53158 0.96893 0.0
H850 H 0.98659 0.5833 0.81305 0.0
H851 H 0.03185 0.60718 0.95209 0.0
C852 C 0.06445 0.61201 0.91311 0.0
C853 C 0.07362 0.60519 0.87079 0.0
C854 C 0.97962 0.57258 0.84797 0.0
C855 C 0.02292 0.5882 0.87903 0.0
C856 C 0.95428 0.5556 0.8529 0.0
C857 C 0.94539 0.54013 0.89605 0.0
C858 C 0.99587 0.57448 0.88713 0.0
C859 C 0.96208 0.54341 0.9354 0.0
C860 C 0.03901 0.60323 0.91771 0.0
C861 C 0.05707 0.59111 0.8318 0.0
N862 N 0.98663 0.56024 0.92997 0.0
N863 N 0.0324 0.58297 0.8369 0.0
loop_
_geom_bond_atom_site_label_1
_geom_bond_atom_site_label_2
_geom_bond_distance
_geom_bond_site_symmetry_2
_ccdc_geom_bond_type
Mn0 O5 2.095 1_554 S
Mn0 O15 2.162 . S
Mn0 O16 2.297 . S
Mn0 O24 2.385 . S
Mn0 O25 2.209 . S
Mn0 O26 2.094 . S
Mn1 O6 2.115 1_554 S
Mn1 N8 2.257 . S
Mn1 N17 2.282 . S
Mn1 O25 2.215 . S
Mn1 O27 2.117 . S
C2 O24 1.234 . S
C2 O25 1.283 . S
C3 O15 1.281 . S
C3 O16 1.236 . S
C4 O26 1.240 . S
C4 O27 1.264 . S
O5 Mn0 2.095 1_556 S
O5 C14 1.250 . S
O6 Mn1 2.115 1_556 S
O6 C14 1.261 . S
C7 N8 1.326 . S
C7 C11 1.460 . S
C7 H13 0.929 . S
N8 Mn1 2.257 . S
N8 C7 1.326 . S
N8 C12 1.362 . S
C9 C10 1.258 . S
C9 C12 1.431 . S
C9 C29 1.449 . S
C10 C9 1.258 . S
C10 C11 1.477 . S
C10 H30 0.931 . S
C11 C7 1.460 . S
C11 C10 1.477 . S
C11 H31 0.930 . S
C12 N8 1.362 . S
C12 C9 1.431 . S
C12 C22 1.476 . S
H13 C7 0.929 . S
C14 O5 1.250 . S
C14 O6 1.261 . S
O15 Mn0 2.162 . S
O15 C3 1.281 . S
O16 Mn0 2.297 . S
O16 C3 1.236 . S
N17 Mn1 2.282 . S
N17 C18 1.328 . S
N17 C22 1.318 . S
C18 N17 1.328 . S
C18 C19 1.457 . S
C18 H23 0.929 . S
C19 C18 1.457 . S
C19 C20 1.291 . S
C19 H32 0.931 . S
C20 C19 1.291 . S
C20 C21 1.373 . S
C20 H33 0.929 . S
C21 C20 1.373 . S
C21 C22 1.396 . S
C21 C28 1.403 . S
C22 C12 1.476 . S
C22 N17 1.318 . S
C22 C21 1.396 . S
H23 C18 0.929 . S
O24 Mn0 2.385 . S
O24 C2 1.234 . S
O25 Mn0 2.209 . S
O25 Mn1 2.215 . S
O25 C2 1.283 . S
O26 Mn0 2.094 . S
O26 C4 1.240 . S
O27 Mn1 2.117 . S
O27 C4 1.264 . S
C28 C21 1.403 . S
C28 C29 1.399 . S
C28 H34 0.929 . S
C29 C9 1.449 . S
C29 C28 1.399 . S
C29 H35 0.930 . S
H30 C10 0.931 . S
H31 C11 0.930 . S
H32 C19 0.931 . S
H33 C20 0.929 . S
H34 C28 0.929 . S
H35 C29 0.930 . S
Mn36 O41 2.095 . S
Mn36 O51 2.162 . S
Mn36 O52 2.297 . S
Mn36 O60 2.385 . S
Mn36 O61 2.209 . S
Mn36 O62 2.094 . S
Mn37 O42 2.121 . S
Mn37 N44 2.257 . S
Mn37 N53 2.282 . S
Mn37 O61 2.215 . S
Mn37 O63 2.117 . S
C38 O60 1.234 . S
C38 O61 1.283 . S
C39 O51 1.281 . S
C39 O52 1.236 . S
C40 O62 1.240 . S
C40 O63 1.264 . S
O41 Mn36 2.095 . S
O41 C50 1.250 . S
O42 Mn37 2.121 . S
O42 C50 1.258 . S
C43 N44 1.326 . S
C43 C47 1.460 . S
C43 H49 0.929 . S
N44 Mn37 2.257 . S
N44 C43 1.326 . S
N44 C48 1.362 . S
C45 C46 1.258 . S
C45 C48 1.431 . S
C45 C65 1.449 . S
C46 C45 1.258 . S
C46 C47 1.477 . S
C46 H66 0.931 . S
C47 C43 1.460 . S
C47 C46 1.477 . S
C47 H67 0.930 . S
C48 N44 1.362 . S
C48 C45 1.431 . S
C48 C58 1.476 . S
H49 C43 0.929 . S
C50 O41 1.250 . S
C50 O42 1.258 . S
O51 Mn36 2.162 . S
O51 C39 1.281 . S
O52 Mn36 2.297 . S
O52 C39 1.236 . S
N53 Mn37 2.282 . S
N53 C54 1.328 . S
N53 C58 1.318 . S
C54 N53 1.328 . S
C54 C55 1.457 . S
C54 H59 0.929 . S
C55 C54 1.457 . S
C55 C56 1.291 . S
C55 H68 0.931 . S
C56 C55 1.291 . S
C56 C57 1.373 . S
C56 H69 0.929 . S
C57 C56 1.373 . S
C57 C58 1.396 . S
C57 C64 1.403 . S
C58 C48 1.476 . S
C58 N53 1.318 . S
C58 C57 1.396 . S
H59 C54 0.929 . S
O60 Mn36 2.385 . S
O60 C38 1.234 . S
O61 Mn36 2.209 . S
O61 Mn37 2.215 . S
O61 C38 1.283 . S
O62 Mn36 2.094 . S
O62 C40 1.240 . S
O63 Mn37 2.117 . S
O63 C40 1.264 . S
C64 C57 1.403 . S
C64 C65 1.399 . S
C64 H70 0.929 . S
C65 C45 1.449 . S
C65 C64 1.399 . S
C65 H71 0.930 . S
H66 C46 0.931 . S
H67 C47 0.930 . S
H68 C55 0.931 . S
H69 C56 0.929 . S
H70 C64 0.929 . S
H71 C65 0.930 . S
Mn72 O77 2.095 . S
Mn72 O87 2.162 . S
Mn72 O88 2.297 . S
Mn72 O96 2.385 . S
Mn72 O97 2.209 . S
Mn72 O98 2.094 . S
Mn73 O78 2.121 . S
Mn73 N80 2.257 . S
Mn73 N89 2.282 . S
Mn73 O97 2.215 . S
Mn73 O99 2.117 . S
C74 O96 1.234 . S
C74 O97 1.283 . S
C75 O87 1.281 . S
C75 O88 1.236 . S
C76 O98 1.240 . S
C76 O99 1.264 . S
O77 Mn72 2.095 . S
O77 C86 1.250 . S
O78 Mn73 2.121 . S
O78 C86 1.258 . S
C79 N80 1.326 . S
C79 C83 1.460 . S
C79 H85 0.929 . S
N80 Mn73 2.257 . S
N80 C79 1.326 . S
N80 C84 1.362 . S
C81 C82 1.258 . S
C81 C84 1.431 . S
C81 C101 1.449 . S
C82 C81 1.258 . S
C82 C83 1.477 . S
C82 H102 0.931 . S
C83 C79 1.460 . S
C83 C82 1.477 . S
C83 H103 0.930 . S
C84 N80 1.362 . S
C84 C81 1.431 . S
C84 C94 1.476 . S
H85 C79 0.929 . S
C86 O77 1.250 . S
C86 O78 1.258 . S
O87 Mn72 2.162 . S
O87 C75 1.281 . S
O88 Mn72 2.297 . S
O88 C75 1.236 . S
N89 Mn73 2.282 . S
N89 C90 1.328 . S
N89 C94 1.318 . S
C90 N89 1.328 . S
C90 C91 1.457 . S
C90 H95 0.929 . S
C91 C90 1.457 . S
C91 C92 1.291 . S
C91 H104 0.931 . S
C92 C91 1.291 . S
C92 C93 1.373 . S
C92 H105 0.929 . S
C93 C92 1.373 . S
C93 C94 1.396 . S
C93 C100 1.403 . S
C94 C84 1.476 . S
C94 N89 1.318 . S
C94 C93 1.396 . S
H95 C90 0.929 . S
O96 Mn72 2.385 . S
O96 C74 1.234 . S
O97 Mn72 2.209 . S
O97 Mn73 2.215 . S
O97 C74 1.283 . S
O98 Mn72 2.094 . S
O98 C76 1.240 . S
O99 Mn73 2.117 . S
O99 C76 1.264 . S
C100 C93 1.403 . S
C100 C101 1.399 . S
C100 H106 0.929 . S
C101 C81 1.449 . S
C101 C100 1.399 . S
C101 H107 0.930 . S
H102 C82 0.931 . S
H103 C83 0.930 . S
H104 C91 0.931 . S
H105 C92 0.929 . S
H106 C100 0.929 . S
H107 C101 0.930 . S
Mn108 O113 2.095 . S
Mn108 O123 2.162 . S
Mn108 O124 2.297 . S
Mn108 O132 2.385 . S
Mn108 O133 2.209 . S
Mn108 O134 2.094 . S
Mn109 O114 2.121 . S
Mn109 N116 2.257 . S
Mn109 N125 2.282 . S
Mn109 O133 2.215 . S
Mn109 O135 2.117 . S
C110 O132 1.234 . S
C110 O133 1.283 . S
C111 O123 1.281 . S
C111 O124 1.236 . S
C112 O134 1.240 . S
C112 O135 1.264 . S
O113 Mn108 2.095 . S
O113 C122 1.250 . S
O114 Mn109 2.121 . S
O114 C122 1.258 . S
C115 N116 1.326 . S
C115 C119 1.460 . S
C115 H121 0.929 . S
N116 Mn109 2.257 . S
N116 C115 1.326 . S
N116 C120 1.362 . S
C117 C118 1.258 . S
C117 C120 1.431 . S
C117 C137 1.449 . S
C118 C117 1.258 . S
C118 C119 1.477 . S
C118 H138 0.931 . S
C119 C115 1.460 . S
C119 C118 1.477 . S
C119 H139 0.930 . S
C120 N116 1.362 . S
C120 C117 1.431 . S
C120 C130 1.476 . S
H121 C115 0.929 . S
C122 O113 1.250 . S
C122 O114 1.258 . S
O123 Mn108 2.162 . S
O123 C111 1.281 . S
O124 Mn108 2.297 . S
O124 C111 1.236 . S
N125 Mn109 2.282 . S
N125 C126 1.328 . S
N125 C130 1.318 . S
C126 N125 1.328 . S
C126 C127 1.457 . S
C126 H131 0.929 . S
C127 C126 1.457 . S
C127 C128 1.291 . S
C127 H140 0.931 . S
C128 C127 1.291 . S
C128 C129 1.373 . S
C128 H141 0.929 . S
C129 C128 1.373 . S
C129 C130 1.396 . S
C129 C136 1.403 . S
C130 C120 1.476 . S
C130 N125 1.318 . S
C130 C129 1.396 . S
H131 C126 0.929 . S
O132 Mn108 2.385 . S
O132 C110 1.234 . S
O133 Mn108 2.209 . S
O133 Mn109 2.215 . S
O133 C110 1.283 . S
O134 Mn108 2.094 . S
O134 C112 1.240 . S
O135 Mn109 2.117 . S
O135 C112 1.264 . S
C136 C129 1.403 . S
C136 C137 1.399 . S
C136 H142 0.929 . S
C137 C117 1.449 . S
C137 C136 1.399 . S
C137 H143 0.930 . S
H138 C118 0.931 . S
H139 C119 0.930 . S
H140 C127 0.931 . S
H141 C128 0.929 . S
H142 C136 0.929 . S
H143 C137 0.930 . S
Mn144 O149 2.095 . S
Mn144 O159 2.162 . S
Mn144 O160 2.297 . S
Mn144 O168 2.385 . S
Mn144 O169 2.209 . S
Mn144 O170 2.094 . S
Mn145 O150 2.121 . S
Mn145 N152 2.257 . S
Mn145 N161 2.282 . S
Mn145 O169 2.215 . S
Mn145 O171 2.117 . S
C146 O168 1.234 . S
C146 O169 1.283 . S
C147 O159 1.281 . S
C147 O160 1.236 . S
C148 O170 1.240 . S
C148 O171 1.264 . S
O149 Mn144 2.095 . S
O149 C158 1.250 . S
O150 Mn145 2.121 . S
O150 C158 1.258 . S
C151 N152 1.326 . S
C151 C155 1.460 . S
C151 H157 0.929 . S
N152 Mn145 2.257 . S
N152 C151 1.326 . S
N152 C156 1.362 . S
C153 C154 1.258 . S
C153 C156 1.431 . S
C153 C173 1.449 . S
C154 C153 1.258 . S
C154 C155 1.477 . S
C154 H174 0.931 . S
C155 C151 1.460 . S
C155 C154 1.477 . S
C155 H175 0.930 . S
C156 N152 1.362 . S
C156 C153 1.431 . S
C156 C166 1.476 . S
H157 C151 0.929 . S
C158 O149 1.250 . S
C158 O150 1.258 . S
O159 Mn144 2.162 . S
O159 C147 1.281 . S
O160 Mn144 2.297 . S
O160 C147 1.236 . S
N161 Mn145 2.282 . S
N161 C162 1.328 . S
N161 C166 1.318 . S
C162 N161 1.328 . S
C162 C163 1.457 . S
C162 H167 0.929 . S
C163 C162 1.457 . S
C163 C164 1.291 . S
C163 H176 0.931 . S
C164 C163 1.291 . S
C164 C165 1.373 . S
C164 H177 0.929 . S
C165 C164 1.373 . S
C165 C166 1.396 . S
C165 C172 1.403 . S
C166 C156 1.476 . S
C166 N161 1.318 . S
C166 C165 1.396 . S
H167 C162 0.929 . S
O168 Mn144 2.385 . S
O168 C146 1.234 . S
O169 Mn144 2.209 . S
O169 Mn145 2.215 . S
O169 C146 1.283 . S
O170 Mn144 2.094 . S
O170 C148 1.240 . S
O171 Mn145 2.117 . S
O171 C148 1.264 . S
C172 C165 1.403 . S
C172 C173 1.399 . S
C172 H178 0.929 . S
C173 C153 1.449 . S
C173 C172 1.399 . S
C173 H179 0.930 . S
H174 C154 0.931 . S
H175 C155 0.930 . S
H176 C163 0.931 . S
H177 C164 0.929 . S
H178 C172 0.929 . S
H179 C173 0.930 . S
Mn180 O185 2.095 . S
Mn180 O195 2.162 . S
Mn180 O196 2.297 . S
Mn180 O204 2.367 1_556 S
Mn180 O205 2.209 . S
Mn180 O206 2.094 . S
Mn181 O186 2.121 . S
Mn181 N188 2.257 . S
Mn181 N197 2.282 . S
Mn181 O205 2.215 . S
Mn181 O207 2.117 . S
C182 O204 1.230 1_556 S
C182 O205 1.283 . S
C183 O195 1.281 . S
C183 O196 1.236 . S
C184 O206 1.240 . S
C184 O207 1.264 . S
O185 Mn180 2.095 . S
O185 C194 1.250 . S
O186 Mn181 2.121 . S
O186 C194 1.258 . S
C187 N188 1.326 . S
C187 C191 1.460 . S
C187 H193 0.929 . S
N188 Mn181 2.257 . S
N188 C187 1.326 . S
N188 C192 1.362 . S
C189 C190 1.258 . S
C189 C192 1.431 . S
C189 C209 1.449 1_556 S
C190 C189 1.258 . S
C190 C191 1.477 . S
C190 H210 0.931 . S
C191 C187 1.460 . S
C191 C190 1.477 . S
C191 H211 0.930 . S
C192 N188 1.362 . S
C192 C189 1.431 . S
C192 C202 1.476 . S
H193 C187 0.929 . S
C194 O185 1.250 . S
C194 O186 1.258 . S
O195 Mn180 2.162 . S
O195 C183 1.281 . S
O196 Mn180 2.297 . S
O196 C183 1.236 . S
N197 Mn181 2.282 . S
N197 C198 1.328 1_556 S
N197 C202 1.318 . S
C198 N197 1.328 1_554 S
C198 C199 1.457 . S
C198 H203 0.929 1_554 S
C199 C198 1.457 . S
C199 C200 1.291 . S
C199 H212 0.931 . S
C200 C199 1.291 . S
C200 C201 1.373 . S
C200 H213 0.929 . S
C201 C200 1.373 . S
C201 C202 1.396 1_554 S
C201 C208 1.403 . S
C202 C192 1.476 . S
C202 N197 1.318 . S
C202 C201 1.396 1_556 S
H203 C198 0.929 1_556 S
O204 Mn180 2.367 1_554 S
O204 C182 1.230 1_554 S
O205 Mn180 2.209 . S
O205 Mn181 2.215 . S
O205 C182 1.283 . S
O206 Mn180 2.094 . S
O206 C184 1.240 . S
O207 Mn181 2.117 . S
O207 C184 1.264 . S
C208 C201 1.403 . S
C208 C209 1.399 . S
C208 H214 0.929 . S
C209 C189 1.449 1_554 S
C209 C208 1.399 . S
C209 H215 0.930 . S
H210 C190 0.931 . S
H211 C191 0.930 . S
H212 C199 0.931 . S
H213 C200 0.929 . S
H214 C208 0.929 . S
H215 C209 0.930 . S
Mn216 O221 2.095 . S
Mn216 O231 2.162 . S
Mn216 O232 2.297 . S
Mn216 O240 2.385 . S
Mn216 O241 2.209 . S
Mn216 O242 2.094 . S
Mn217 O222 2.121 . S
Mn217 N224 2.257 . S
Mn217 N233 2.282 . S
Mn217 O241 2.215 . S
Mn217 O243 2.117 . S
C218 O240 1.234 . S
C218 O241 1.283 . S
C219 O231 1.281 . S
C219 O232 1.236 . S
C220 O242 1.240 . S
C220 O243 1.264 . S
O221 Mn216 2.095 . S
O221 C230 1.250 . S
O222 Mn217 2.121 . S
O222 C230 1.258 . S
C223 N224 1.326 . S
C223 C227 1.460 . S
C223 H229 0.929 . S
N224 Mn217 2.257 . S
N224 C223 1.326 . S
N224 C228 1.362 . S
C225 C226 1.258 . S
C225 C228 1.431 . S
C225 C245 1.449 . S
C226 C225 1.258 . S
C226 C227 1.477 . S
C226 H246 0.931 . S
C227 C223 1.460 . S
C227 C226 1.477 . S
C227 H247 0.930 . S
C228 N224 1.362 . S
C228 C225 1.431 . S
C228 C238 1.476 . S
H229 C223 0.929 . S
C230 O221 1.250 . S
C230 O222 1.258 . S
O231 Mn216 2.162 . S
O231 C219 1.281 . S
O232 Mn216 2.297 . S
O232 C219 1.236 . S
N233 Mn217 2.282 . S
N233 C234 1.328 . S
N233 C238 1.318 . S
C234 N233 1.328 . S
C234 C235 1.457 . S
C234 H239 0.929 . S
C235 C234 1.457 . S
C235 C236 1.291 . S
C235 H248 0.931 . S
C236 C235 1.291 . S
C236 C237 1.373 . S
C236 H249 0.929 . S
C237 C236 1.373 . S
C237 C238 1.396 . S
C237 C244 1.403 . S
C238 C228 1.476 . S
C238 N233 1.318 . S
C238 C237 1.396 . S
H239 C234 0.929 . S
O240 Mn216 2.385 . S
O240 C218 1.234 . S
O241 Mn216 2.209 . S
O241 Mn217 2.215 . S
O241 C218 1.283 . S
O242 Mn216 2.094 . S
O242 C220 1.240 . S
O243 Mn217 2.117 . S
O243 C220 1.264 . S
C244 C237 1.403 . S
C244 C245 1.399 . S
C244 H250 0.929 . S
C245 C225 1.449 . S
C245 C244 1.399 . S
C245 H251 0.930 . S
H246 C226 0.931 . S
H247 C227 0.930 . S
H248 C235 0.931 . S
H249 C236 0.929 . S
H250 C244 0.929 . S
H251 C245 0.930 . S
Mn252 O257 2.095 . S
Mn252 O267 2.162 . S
Mn252 O268 2.297 . S
Mn252 O276 2.385 1_554 S
Mn252 O277 2.209 . S
Mn252 O278 2.094 . S
Mn253 O258 2.121 . S
Mn253 N260 2.257 . S
Mn253 N269 2.282 1_554 S
Mn253 O277 2.215 . S
Mn253 O279 2.117 . S
C254 O276 1.234 . S
C254 O277 1.283 1_556 S
C255 O267 1.281 . S
C255 O268 1.236 . S
C256 O278 1.240 . S
C256 O279 1.264 . S
O257 Mn252 2.095 . S
O257 C266 1.250 . S
O258 Mn253 2.121 . S
O258 C266 1.258 . S
C259 N260 1.326 . S
C259 C263 1.460 . S
C259 H265 0.929 . S
N260 Mn253 2.257 . S
N260 C259 1.326 . S
N260 C264 1.362 1_554 S
C261 C262 1.258 1_556 S
C261 C264 1.431 . S
C261 C281 1.449 . S
C262 C261 1.258 1_554 S
C262 C263 1.477 . S
C262 H282 0.931 1_554 S
C263 C259 1.460 . S
C263 C262 1.477 . S
C263 H283 0.930 . S
C264 N260 1.362 1_556 S
C264 C261 1.431 . S
C264 C274 1.476 . S
H265 C259 0.929 . S
C266 O257 1.250 . S
C266 O258 1.258 . S
O267 Mn252 2.162 . S
O267 C255 1.281 . S
O268 Mn252 2.297 . S
O268 C255 1.236 . S
N269 Mn253 2.282 1_556 S
N269 C270 1.328 . S
N269 C274 1.318 . S
C270 N269 1.328 . S
C270 C271 1.457 . S
C270 H275 0.929 . S
C271 C270 1.457 . S
C271 C272 1.291 . S
C271 H284 0.931 . S
C272 C271 1.291 . S
C272 C273 1.373 . S
C272 H285 0.929 . S
C273 C272 1.373 . S
C273 C274 1.396 . S
C273 C280 1.403 . S
C274 C264 1.476 . S
C274 N269 1.318 . S
C274 C273 1.396 . S
H275 C270 0.929 . S
O276 Mn252 2.385 1_556 S
O276 C254 1.234 . S
O277 Mn252 2.209 . S
O277 Mn253 2.215 . S
O277 C254 1.283 1_554 S
O278 Mn252 2.094 . S
O278 C256 1.240 . S
O279 Mn253 2.117 . S
O279 C256 1.264 . S
C280 C273 1.403 . S
C280 C281 1.399 . S
C280 H286 0.929 . S
C281 C261 1.449 . S
C281 C280 1.399 . S
C281 H287 0.930 . S
H282 C262 0.931 1_556 S
H283 C263 0.930 . S
H284 C271 0.931 . S
H285 C272 0.929 . S
H286 C280 0.929 . S
H287 C281 0.930 . S
Mn288 O293 2.095 . S
Mn288 O303 2.162 . S
Mn288 O304 2.297 . S
Mn288 O312 2.385 . S
Mn288 O313 2.209 . S
Mn288 O314 2.094 . S
Mn289 O294 2.121 . S
Mn289 N296 2.257 . S
Mn289 N305 2.282 . S
Mn289 O313 2.215 . S
Mn289 O315 2.117 . S
C290 O312 1.234 . S
C290 O313 1.283 . S
C291 O303 1.281 . S
C291 O304 1.236 . S
C292 O314 1.240 . S
C292 O315 1.264 . S
O293 Mn288 2.095 . S
O293 C302 1.250 . S
O294 Mn289 2.121 . S
O294 C302 1.258 . S
C295 N296 1.326 . S
C295 C299 1.460 . S
C295 H301 0.929 . S
N296 Mn289 2.257 . S
N296 C295 1.326 . S
N296 C300 1.362 . S
C297 C298 1.258 . S
C297 C300 1.431 . S
C297 C317 1.449 . S
C298 C297 1.258 . S
C298 C299 1.477 . S
C298 H318 0.931 . S
C299 C295 1.460 . S
C299 C298 1.477 . S
C299 H319 0.930 . S
C300 N296 1.362 . S
C300 C297 1.431 . S
C300 C310 1.476 . S
H301 C295 0.929 . S
C302 O293 1.250 . S
C302 O294 1.258 . S
O303 Mn288 2.162 . S
O303 C291 1.281 . S
O304 Mn288 2.297 . S
O304 C291 1.236 . S
N305 Mn289 2.282 . S
N305 C306 1.328 . S
N305 C310 1.318 . S
C306 N305 1.328 . S
C306 C307 1.457 . S
C306 H311 0.929 . S
C307 C306 1.457 . S
C307 C308 1.291 . S
C307 H320 0.931 . S
C308 C307 1.291 . S
C308 C309 1.373 . S
C308 H321 0.929 . S
C309 C308 1.373 . S
C309 C310 1.396 . S
C309 C316 1.403 . S
C310 C300 1.476 . S
C310 N305 1.318 . S
C310 C309 1.396 . S
H311 C306 0.929 . S
O312 Mn288 2.385 . S
O312 C290 1.234 . S
O313 Mn288 2.209 . S
O313 Mn289 2.215 . S
O313 C290 1.283 . S
O314 Mn288 2.094 . S
O314 C292 1.240 . S
O315 Mn289 2.117 . S
O315 C292 1.264 . S
C316 C309 1.403 . S
C316 C317 1.399 . S
C316 H322 0.929 . S
C317 C297 1.449 . S
C317 C316 1.399 . S
C317 H323 0.930 . S
H318 C298 0.931 . S
H319 C299 0.930 . S
H320 C307 0.931 . S
H321 C308 0.929 . S
H322 C316 0.929 . S
H323 C317 0.930 . S
Mn324 O329 2.095 . S
Mn324 O339 2.162 . S
Mn324 O340 2.297 . S
Mn324 O348 2.385 . S
Mn324 O349 2.209 . S
Mn324 O350 2.094 . S
Mn325 O330 2.121 . S
Mn325 N332 2.257 . S
Mn325 N341 2.282 . S
Mn325 O349 2.215 . S
Mn325 O351 2.117 . S
C326 O348 1.234 . S
C326 O349 1.283 . S
C327 O339 1.281 . S
C327 O340 1.236 . S
C328 O350 1.240 . S
C328 O351 1.264 . S
O329 Mn324 2.095 . S
O329 C338 1.250 . S
O330 Mn325 2.121 . S
O330 C338 1.258 . S
C331 N332 1.326 . S
C331 C335 1.460 . S
C331 H337 0.929 . S
N332 Mn325 2.257 . S
N332 C331 1.326 . S
N332 C336 1.362 . S
C333 C334 1.258 . S
C333 C336 1.431 . S
C333 C353 1.449 . S
C334 C333 1.258 . S
C334 C335 1.477 . S
C334 H354 0.931 . S
C335 C331 1.460 . S
C335 C334 1.477 . S
C335 H355 0.930 . S
C336 N332 1.362 . S
C336 C333 1.431 . S
C336 C346 1.476 . S
H337 C331 0.929 . S
C338 O329 1.250 . S
C338 O330 1.258 . S
O339 Mn324 2.162 . S
O339 C327 1.281 . S
O340 Mn324 2.297 . S
O340 C327 1.236 . S
N341 Mn325 2.282 . S
N341 C342 1.328 . S
N341 C346 1.318 . S
C342 N341 1.328 . S
C342 C343 1.457 . S
C342 H347 0.929 . S
C343 C342 1.457 . S
C343 C344 1.291 . S
C343 H356 0.931 . S
C344 C343 1.291 . S
C344 C345 1.373 . S
C344 H357 0.929 . S
C345 C344 1.373 . S
C345 C346 1.396 . S
C345 C352 1.403 . S
C346 C336 1.476 . S
C346 N341 1.318 . S
C346 C345 1.396 . S
H347 C342 0.929 . S
O348 Mn324 2.385 . S
O348 C326 1.234 . S
O349 Mn324 2.209 . S
O349 Mn325 2.215 . S
O349 C326 1.283 . S
O350 Mn324 2.094 . S
O350 C328 1.240 . S
O351 Mn325 2.117 . S
O351 C328 1.264 . S
C352 C345 1.403 . S
C352 C353 1.399 . S
C352 H358 0.929 . S
C353 C333 1.449 . S
C353 C352 1.399 . S
C353 H359 0.930 . S
H354 C334 0.931 . S
H355 C335 0.930 . S
H356 C343 0.931 . S
H357 C344 0.929 . S
H358 C352 0.929 . S
H359 C353 0.930 . S
Mn360 O365 2.095 . S
Mn360 O375 2.162 . S
Mn360 O376 2.297 . S
Mn360 O384 2.385 . S
Mn360 O385 2.209 . S
Mn360 O386 2.094 . S
Mn361 O366 2.121 . S
Mn361 N368 2.257 . S
Mn361 N377 2.282 . S
Mn361 O385 2.215 . S
Mn361 O387 2.117 . S
C362 O384 1.234 . S
C362 O385 1.283 . S
C363 O375 1.281 . S
C363 O376 1.236 . S
C364 O386 1.240 . S
C364 O387 1.264 . S
O365 Mn360 2.095 . S
O365 C374 1.250 . S
O366 Mn361 2.121 . S
O366 C374 1.258 . S
C367 N368 1.326 . S
C367 C371 1.460 . S
C367 H373 0.929 . S
N368 Mn361 2.257 . S
N368 C367 1.326 . S
N368 C372 1.362 . S
C369 C370 1.258 . S
C369 C372 1.431 . S
C369 C389 1.449 . S
C370 C369 1.258 . S
C370 C371 1.477 . S
C370 H390 0.931 . S
C371 C367 1.460 . S
C371 C370 1.477 . S
C371 H391 0.930 . S
C372 N368 1.362 . S
C372 C369 1.431 . S
C372 C382 1.476 . S
H373 C367 0.929 . S
C374 O365 1.250 . S
C374 O366 1.258 . S
O375 Mn360 2.162 . S
O375 C363 1.281 . S
O376 Mn360 2.297 . S
O376 C363 1.236 . S
N377 Mn361 2.282 . S
N377 C378 1.328 . S
N377 C382 1.318 . S
C378 N377 1.328 . S
C378 C379 1.457 . S
C378 H383 0.929 . S
C379 C378 1.457 . S
C379 C380 1.291 . S
C379 H392 0.931 . S
C380 C379 1.291 . S
C380 C381 1.373 . S
C380 H393 0.929 . S
C381 C380 1.373 . S
C381 C382 1.396 . S
C381 C388 1.403 . S
C382 C372 1.476 . S
C382 N377 1.318 . S
C382 C381 1.396 . S
H383 C378 0.929 . S
O384 Mn360 2.385 . S
O384 C362 1.234 . S
O385 Mn360 2.209 . S
O385 Mn361 2.215 . S
O385 C362 1.283 . S
O386 Mn360 2.094 . S
O386 C364 1.240 . S
O387 Mn361 2.117 . S
O387 C364 1.264 . S
C388 C381 1.403 . S
C388 C389 1.399 . S
C388 H394 0.929 . S
C389 C369 1.449 . S
C389 C388 1.399 . S
C389 H395 0.930 . S
H390 C370 0.931 . S
H391 C371 0.930 . S
H392 C379 0.931 . S
H393 C380 0.929 . S
H394 C388 0.929 . S
H395 C389 0.930 . S
Mn396 O401 2.095 . S
Mn396 O411 2.162 . S
Mn396 O412 2.297 . S
Mn396 O420 2.385 . S
Mn396 O421 2.209 . S
Mn396 O422 2.094 . S
Mn397 O402 2.121 . S
Mn397 N404 2.257 . S
Mn397 N413 2.282 . S
Mn397 O421 2.215 . S
Mn397 O423 2.117 . S
C398 O420 1.234 . S
C398 O421 1.283 . S
C399 O411 1.281 . S
C399 O412 1.236 . S
C400 O422 1.240 . S
C400 O423 1.264 . S
O401 Mn396 2.095 . S
O401 C410 1.250 . S
O402 Mn397 2.121 . S
O402 C410 1.258 . S
C403 N404 1.326 . S
C403 C407 1.460 . S
C403 H409 0.929 . S
N404 Mn397 2.257 . S
N404 C403 1.326 . S
N404 C408 1.362 . S
C405 C406 1.258 . S
C405 C408 1.431 . S
C405 C425 1.449 . S
C406 C405 1.258 . S
C406 C407 1.477 . S
C406 H426 0.931 . S
C407 C403 1.460 . S
C407 C406 1.477 . S
C407 H427 0.930 . S
C408 N404 1.362 . S
C408 C405 1.431 . S
C408 C418 1.476 . S
H409 C403 0.929 . S
C410 O401 1.250 . S
C410 O402 1.258 . S
O411 Mn396 2.162 . S
O411 C399 1.281 . S
O412 Mn396 2.297 . S
O412 C399 1.236 . S
N413 Mn397 2.282 . S
N413 C414 1.328 . S
N413 C418 1.318 . S
C414 N413 1.328 . S
C414 C415 1.457 . S
C414 H419 0.929 . S
C415 C414 1.457 . S
C415 C416 1.291 . S
C415 H428 0.931 . S
C416 C415 1.291 . S
C416 C417 1.373 . S
C416 H429 0.929 . S
C417 C416 1.373 . S
C417 C418 1.396 . S
C417 C424 1.403 . S
C418 C408 1.476 . S
C418 N413 1.318 . S
C418 C417 1.396 . S
H419 C414 0.929 . S
O420 Mn396 2.385 . S
O420 C398 1.234 . S
O421 Mn396 2.209 . S
O421 Mn397 2.215 . S
O421 C398 1.283 . S
O422 Mn396 2.094 . S
O422 C400 1.240 . S
O423 Mn397 2.117 . S
O423 C400 1.264 . S
C424 C417 1.403 . S
C424 C425 1.399 . S
C424 H430 0.929 . S
C425 C405 1.449 . S
C425 C424 1.399 . S
C425 H431 0.930 . S
H426 C406 0.931 . S
H427 C407 0.930 . S
H428 C415 0.931 . S
H429 C416 0.929 . S
H430 C424 0.929 . S
H431 C425 0.930 . S
H432 C438 0.930 . S
H433 C442 0.930 . S
H434 C447 0.929 . S
H435 C445 0.929 . S
H436 C440 0.929 . S
H437 C446 0.929 . S
C438 H432 0.930 . S
C438 C439 1.367 . S
C438 C446 1.378 . S
C439 C438 1.367 . S
C439 C447 1.433 . S
C440 H436 0.929 . S
C440 C442 1.378 . S
C440 C444 1.350 . S
C441 C444 1.463 . S
C441 C446 1.350 . S
C441 N449 1.427 . S
C442 H433 0.930 . S
C442 C440 1.378 . S
C442 C443 1.367 . S
C443 C442 1.367 . S
C443 C445 1.433 . S
C444 C440 1.350 . S
C444 C441 1.463 . S
C444 N448 1.427 . S
C445 H435 0.929 . S
C445 C443 1.433 . S
C445 N448 1.384 . S
C446 H437 0.929 . S
C446 C438 1.378 . S
C446 C441 1.350 . S
C447 H434 0.929 . S
C447 C439 1.433 . S
C447 N449 1.384 . S
N448 C444 1.427 . S
N448 C445 1.384 . S
N449 C441 1.427 . S
N449 C447 1.384 . S
H450 C456 0.930 . S
H451 C460 0.930 . S
H452 C465 0.929 . S
H453 C463 0.929 . S
H454 C458 0.929 . S
H455 C464 0.929 . S
C456 H450 0.930 . S
C456 C457 1.367 . S
C456 C464 1.378 . S
C457 C456 1.367 . S
C457 C465 1.433 . S
C458 H454 0.929 . S
C458 C460 1.378 . S
C458 C462 1.350 . S
C459 C462 1.463 . S
C459 C464 1.350 . S
C459 N467 1.427 . S
C460 H451 0.930 . S
C460 C458 1.378 . S
C460 C461 1.367 . S
C461 C460 1.367 . S
C461 C463 1.433 . S
C462 C458 1.350 . S
C462 C459 1.463 . S
C462 N466 1.427 . S
C463 H453 0.929 . S
C463 C461 1.433 . S
C463 N466 1.384 . S
C464 H455 0.929 . S
C464 C456 1.378 . S
C464 C459 1.350 . S
C465 H452 0.929 . S
C465 C457 1.433 . S
C465 N467 1.384 . S
N466 C462 1.427 . S
N466 C463 1.384 . S
N467 C459 1.427 . S
N467 C465 1.384 . S
H468 C474 0.930 . S
H469 C478 0.930 . S
H470 C483 0.929 . S
H471 C481 0.929 . S
H472 C476 0.929 . S
H473 C482 0.929 . S
C474 H468 0.930 . S
C474 C475 1.367 . S
C474 C482 1.378 . S
C475 C474 1.367 . S
C475 C483 1.433 . S
C476 H472 0.929 . S
C476 C478 1.378 . S
C476 C480 1.350 . S
C477 C480 1.463 . S
C477 C482 1.350 . S
C477 N485 1.427 . S
C478 H469 0.930 . S
C478 C476 1.378 . S
C478 C479 1.367 . S
C479 C478 1.367 . S
C479 C481 1.433 . S
C480 C476 1.350 . S
C480 C477 1.463 . S
C480 N484 1.427 . S
C481 H471 0.929 . S
C481 C479 1.433 . S
C481 N484 1.384 . S
C482 H473 0.929 . S
C482 C474 1.378 . S
C482 C477 1.350 . S
C483 H470 0.929 . S
C483 C475 1.433 . S
C483 N485 1.384 . S
N484 C480 1.427 . S
N484 C481 1.384 . S
N485 C477 1.427 . S
N485 C483 1.384 . S
H486 C492 0.930 . S
H487 C496 0.930 . S
H488 C501 0.929 . S
H489 C499 0.929 . S
H490 C494 0.929 . S
H491 C500 0.929 . S
C492 H486 0.930 . S
C492 C493 1.367 . S
C492 C500 1.378 . S
C493 C492 1.367 . S
C493 C501 1.433 . S
C494 H490 0.929 . S
C494 C496 1.378 . S
C494 C498 1.350 . S
C495 C498 1.463 . S
C495 C500 1.350 . S
C495 N503 1.427 . S
C496 H487 0.930 . S
C496 C494 1.378 . S
C496 C497 1.367 . S
C497 C496 1.367 . S
C497 C499 1.433 . S
C498 C494 1.350 . S
C498 C495 1.463 . S
C498 N502 1.427 . S
C499 H489 0.929 . S
C499 C497 1.433 . S
C499 N502 1.384 . S
C500 H491 0.929 . S
C500 C492 1.378 . S
C500 C495 1.350 . S
C501 H488 0.929 . S
C501 C493 1.433 . S
C501 N503 1.384 . S
N502 C498 1.427 . S
N502 C499 1.384 . S
N503 C495 1.427 . S
N503 C501 1.384 . S
H504 C510 0.930 . S
H505 C514 0.930 . S
H506 C519 0.929 . S
H507 C517 0.929 . S
H508 C512 0.929 . S
H509 C518 0.929 . S
C510 H504 0.930 . S
C510 C511 1.367 . S
C510 C518 1.378 . S
C511 C510 1.367 . S
C511 C519 1.433 . S
C512 H508 0.929 . S
C512 C514 1.378 . S
C512 C516 1.350 . S
C513 C516 1.463 1_554 S
C513 C518 1.350 . S
C513 N521 1.427 . S
C514 H505 0.930 . S
C514 C512 1.378 . S
C514 C515 1.367 . S
C515 C514 1.367 . S
C515 C517 1.433 . S
C516 C512 1.350 . S
C516 C513 1.463 1_556 S
C516 N520 1.427 . S
C517 H507 0.929 . S
C517 C515 1.433 . S
C517 N520 1.384 . S
C518 H509 0.929 . S
C518 C510 1.378 . S
C518 C513 1.350 . S
C519 H506 0.929 . S
C519 C511 1.433 . S
C519 N521 1.384 . S
N520 C516 1.427 . S
N520 C517 1.384 . S
N521 C513 1.427 . S
N521 C519 1.384 . S
H522 C528 0.930 . S
H523 C532 0.930 1_556 S
H524 C537 0.929 . S
H525 C535 0.929 . S
H526 C530 0.929 . S
H527 C536 0.929 . S
C528 H522 0.930 . S
C528 C529 1.367 . S
C528 C536 1.378 . S
C529 C528 1.367 . S
C529 C537 1.433 . S
C530 H526 0.929 . S
C530 C532 1.378 . S
C530 C534 1.350 . S
C531 C534 1.463 . S
C531 C536 1.350 . S
C531 N539 1.427 . S
C532 H523 0.930 1_554 S
C532 C530 1.378 . S
C532 C533 1.367 . S
C533 C532 1.367 . S
C533 C535 1.433 . S
C534 C530 1.350 . S
C534 C531 1.463 . S
C534 N538 1.427 . S
C535 H525 0.929 . S
C535 C533 1.433 . S
C535 N538 1.384 . S
C536 H527 0.929 . S
C536 C528 1.378 . S
C536 C531 1.350 . S
C537 H524 0.929 . S
C537 C529 1.433 . S
C537 N539 1.384 . S
N538 C534 1.427 . S
N538 C535 1.384 . S
N539 C531 1.427 . S
N539 C537 1.384 . S
H540 C546 0.930 . S
H541 C550 0.930 . S
H542 C555 0.929 . S
H543 C553 0.929 . S
H544 C548 0.929 . S
H545 C554 0.929 . S
C546 H540 0.930 . S
C546 C547 1.367 . S
C546 C554 1.378 . S
C547 C546 1.367 . S
C547 C555 1.433 . S
C548 H544 0.929 . S
C548 C550 1.378 . S
C548 C552 1.350 . S
C549 C552 1.463 . S
C549 C554 1.350 . S
C549 N557 1.427 . S
C550 H541 0.930 . S
C550 C548 1.378 . S
C550 C551 1.367 . S
C551 C550 1.367 . S
C551 C553 1.433 . S
C552 C548 1.350 . S
C552 C549 1.463 . S
C552 N556 1.427 . S
C553 H543 0.929 . S
C553 C551 1.433 . S
C553 N556 1.384 . S
C554 H545 0.929 . S
C554 C546 1.378 . S
C554 C549 1.350 . S
C555 H542 0.929 . S
C555 C547 1.433 . S
C555 N557 1.384 . S
N556 C552 1.427 . S
N556 C553 1.384 . S
N557 C549 1.427 . S
N557 C555 1.384 . S
H558 C564 0.930 . S
H559 C568 0.930 . S
H560 C573 0.929 . S
H561 C571 0.929 . S
H562 C566 0.929 . S
H563 C572 0.929 . S
C564 H558 0.930 . S
C564 C565 1.367 . S
C564 C572 1.378 . S
C565 C564 1.367 . S
C565 C573 1.433 . S
C566 H562 0.929 . S
C566 C568 1.378 . S
C566 C570 1.350 . S
C567 C570 1.463 . S
C567 C572 1.350 . S
C567 N575 1.427 . S
C568 H559 0.930 . S
C568 C566 1.378 . S
C568 C569 1.367 . S
C569 C568 1.367 . S
C569 C571 1.433 . S
C570 C566 1.350 . S
C570 C567 1.463 . S
C570 N574 1.427 . S
C571 H561 0.929 . S
C571 C569 1.433 . S
C571 N574 1.384 . S
C572 H563 0.929 . S
C572 C564 1.378 . S
C572 C567 1.350 . S
C573 H560 0.929 . S
C573 C565 1.433 . S
C573 N575 1.384 . S
N574 C570 1.427 . S
N574 C571 1.384 . S
N575 C567 1.427 . S
N575 C573 1.384 . S
H576 C582 0.930 . S
H577 C586 0.930 . S
H578 C591 0.929 . S
H579 C589 0.929 . S
H580 C584 0.929 . S
H581 C590 0.929 . S
C582 H576 0.930 . S
C582 C583 1.367 . S
C582 C590 1.378 . S
C583 C582 1.367 . S
C583 C591 1.433 . S
C584 H580 0.929 . S
C584 C586 1.378 . S
C584 C588 1.350 . S
C585 C588 1.463 . S
C585 C590 1.350 . S
C585 N593 1.427 . S
C586 H577 0.930 . S
C586 C584 1.378 . S
C586 C587 1.367 . S
C587 C586 1.367 . S
C587 C589 1.433 . S
C588 C584 1.350 . S
C588 C585 1.463 . S
C588 N592 1.427 . S
C589 H579 0.929 . S
C589 C587 1.433 . S
C589 N592 1.384 . S
C590 H581 0.929 . S
C590 C582 1.378 . S
C590 C585 1.350 . S
C591 H578 0.929 . S
C591 C583 1.433 . S
C591 N593 1.384 . S
N592 C588 1.427 . S
N592 C589 1.384 . S
N593 C585 1.427 . S
N593 C591 1.384 . S
H594 C600 0.930 . S
H595 C604 0.930 . S
H596 C609 0.929 . S
H597 C607 0.929 . S
H598 C602 0.929 . S
H599 C608 0.929 . S
C600 H594 0.930 . S
C600 C601 1.367 . S
C600 C608 1.378 . S
C601 C600 1.367 . S
C601 C609 1.433 . S
C602 H598 0.929 . S
C602 C604 1.378 . S
C602 C606 1.350 . S
C603 C606 1.463 . S
C603 C608 1.350 . S
C603 N611 1.427 . S
C604 H595 0.930 . S
C604 C602 1.378 . S
C604 C605 1.367 . S
C605 C604 1.367 . S
C605 C607 1.433 . S
C606 C602 1.350 . S
C606 C603 1.463 . S
C606 N610 1.427 . S
C607 H597 0.929 . S
C607 C605 1.433 . S
C607 N610 1.384 . S
C608 H599 0.929 . S
C608 C600 1.378 . S
C608 C603 1.350 . S
C609 H596 0.929 . S
C609 C601 1.433 . S
C609 N611 1.384 . S
N610 C606 1.427 . S
N610 C607 1.384 . S
N611 C603 1.427 . S
N611 C609 1.384 . S
H612 C618 0.930 . S
H613 C622 0.930 . S
H614 C627 0.929 . S
H615 C625 0.929 . S
H616 C620 0.929 . S
H617 C626 0.929 . S
C618 H612 0.930 . S
C618 C619 1.367 . S
C618 C626 1.378 . S
C619 C618 1.367 . S
C619 C627 1.433 . S
C620 H616 0.929 . S
C620 C622 1.378 . S
C620 C624 1.350 . S
C621 C624 1.463 . S
C621 C626 1.350 . S
C621 N629 1.427 . S
C622 H613 0.930 . S
C622 C620 1.378 . S
C622 C623 1.367 . S
C623 C622 1.367 . S
C623 C625 1.433 . S
C624 C620 1.350 . S
C624 C621 1.463 . S
C624 N628 1.427 . S
C625 H615 0.929 . S
C625 C623 1.433 . S
C625 N628 1.384 . S
C626 H617 0.929 . S
C626 C618 1.378 . S
C626 C621 1.350 . S
C627 H614 0.929 . S
C627 C619 1.433 . S
C627 N629 1.384 . S
N628 C624 1.427 . S
N628 C625 1.384 . S
N629 C621 1.427 . S
N629 C627 1.384 . S
H630 C636 0.930 1_554 S
H631 C640 0.930 . S
H632 C645 0.929 . S
H633 C643 0.929 . S
H634 C638 0.929 . S
H635 C644 0.946 . S
C636 H630 0.930 1_556 S
C636 C637 1.367 . S
C636 C644 1.371 1_556 S
C637 C636 1.367 . S
C637 C645 1.433 . S
C638 H634 0.929 . S
C638 C640 1.378 . S
C638 C642 1.350 . S
C639 C642 1.463 . S
C639 C644 1.339 1_556 S
C639 N647 1.427 . S
C640 H631 0.930 . S
C640 C638 1.378 . S
C640 C641 1.367 1_556 S
C641 C640 1.367 1_554 S
C641 C643 1.433 . S
C642 C638 1.350 . S
C642 C639 1.463 . S
C642 N646 1.427 1_556 S
C643 H633 0.929 . S
C643 C641 1.433 . S
C643 N646 1.384 . S
C644 H635 0.946 . S
C644 C636 1.371 1_554 S
C644 C639 1.339 1_554 S
C645 H632 0.929 . S
C645 C637 1.433 . S
C645 N647 1.384 . S
N646 C642 1.427 1_554 S
N646 C643 1.384 . S
N647 C639 1.427 . S
N647 C645 1.384 . S
H648 C654 0.930 . S
H649 C658 0.930 . S
H650 C663 0.929 . S
H651 C661 0.929 . S
H652 C656 0.929 . S
H653 C662 0.929 . S
C654 H648 0.930 . S
C654 C655 1.367 . S
C654 C662 1.378 . S
C655 C654 1.367 . S
C655 C663 1.433 . S
C656 H652 0.929 . S
C656 C658 1.378 . S
C656 C660 1.350 . S
C657 C660 1.463 . S
C657 C662 1.350 . S
C657 N665 1.427 . S
C658 H649 0.930 . S
C658 C656 1.378 . S
C658 C659 1.367 . S
C659 C658 1.367 . S
C659 C661 1.433 . S
C660 C656 1.350 . S
C660 C657 1.463 . S
C660 N664 1.427 . S
C661 H651 0.929 . S
C661 C659 1.433 . S
C661 N664 1.384 . S
C662 H653 0.929 . S
C662 C654 1.378 . S
C662 C657 1.350 . S
C663 H650 0.929 . S
C663 C655 1.433 . S
C663 N665 1.384 . S
N664 C660 1.427 . S
N664 C661 1.384 . S
N665 C657 1.427 . S
N665 C663 1.384 . S
H666 C672 0.930 . S
H667 C676 0.930 . S
H668 C681 0.929 . S
H669 C679 0.929 . S
H670 C674 0.929 . S
H671 C680 0.929 . S
C672 H666 0.930 . S
C672 C673 1.367 . S
C672 C680 1.378 . S
C673 C672 1.367 . S
C673 C681 1.433 . S
C674 H670 0.929 . S
C674 C676 1.378 . S
C674 C678 1.350 . S
C675 C678 1.463 1_556 S
C675 C680 1.350 . S
C675 N683 1.427 . S
C676 H667 0.930 . S
C676 C674 1.378 . S
C676 C677 1.367 . S
C677 C676 1.367 . S
C677 C679 1.433 . S
C678 C674 1.350 . S
C678 C675 1.463 1_554 S
C678 N682 1.427 . S
C679 H669 0.929 . S
C679 C677 1.433 . S
C679 N682 1.384 . S
C680 H671 0.929 . S
C680 C672 1.378 . S
C680 C675 1.350 . S
C681 H668 0.929 . S
C681 C673 1.433 . S
C681 N683 1.384 . S
N682 C678 1.427 . S
N682 C679 1.384 . S
N683 C675 1.427 . S
N683 C681 1.384 . S
H684 C690 0.930 . S
H685 C694 0.930 . S
H686 C699 0.929 1_556 S
H687 C697 0.929 . S
H688 C692 0.929 . S
H689 C698 0.929 . S
C690 H684 0.930 . S
C690 C691 1.367 . S
C690 C698 1.378 . S
C691 C690 1.367 . S
C691 C699 1.433 . S
C692 H688 0.929 . S
C692 C694 1.378 . S
C692 C696 1.350 . S
C693 C696 1.463 . S
C693 C698 1.350 . S
C693 N701 1.427 . S
C694 H685 0.930 . S
C694 C692 1.378 . S
C694 C695 1.367 . S
C695 C694 1.367 . S
C695 C697 1.433 . S
C696 C692 1.350 . S
C696 C693 1.463 . S
C696 N700 1.427 . S
C697 H687 0.929 . S
C697 C695 1.433 . S
C697 N700 1.384 . S
C698 H689 0.929 . S
C698 C690 1.378 . S
C698 C693 1.350 . S
C699 H686 0.929 1_554 S
C699 C691 1.433 . S
C699 N701 1.384 . S
N700 C696 1.427 . S
N700 C697 1.384 . S
N701 C693 1.427 . S
N701 C699 1.384 . S
H702 C708 0.930 . S
H703 C712 0.930 . S
H704 C717 0.929 . S
H705 C715 0.929 . S
H706 C710 0.929 . S
H707 C716 0.929 . S
C708 H702 0.930 . S
C708 C709 1.367 . S
C708 C716 1.378 . S
C709 C708 1.367 . S
C709 C717 1.433 . S
C710 H706 0.929 . S
C710 C712 1.378 . S
C710 C714 1.350 . S
C711 C714 1.463 . S
C711 C716 1.350 . S
C711 N719 1.427 . S
C712 H703 0.930 . S
C712 C710 1.378 . S
C712 C713 1.367 . S
C713 C712 1.367 . S
C713 C715 1.433 . S
C714 C710 1.350 . S
C714 C711 1.463 . S
C714 N718 1.427 . S
C715 H705 0.929 . S
C715 C713 1.433 . S
C715 N718 1.384 . S
C716 H707 0.929 . S
C716 C708 1.378 . S
C716 C711 1.350 . S
C717 H704 0.929 . S
C717 C709 1.433 . S
C717 N719 1.384 . S
N718 C714 1.427 . S
N718 C715 1.384 . S
N719 C711 1.427 . S
N719 C717 1.384 . S
H720 C726 0.930 . S
H721 C730 0.930 . S
H722 C735 0.929 . S
H723 C733 0.929 . S
H724 C728 0.929 . S
H725 C734 0.929 . S
C726 H720 0.930 . S
C726 C727 1.367 . S
C726 C734 1.378 . S
C727 C726 1.367 . S
C727 C735 1.433 . S
C728 H724 0.929 . S
C728 C730 1.378 . S
C728 C732 1.350 . S
C729 C732 1.463 . S
C729 C734 1.350 . S
C729 N737 1.427 . S
C730 H721 0.930 . S
C730 C728 1.378 . S
C730 C731 1.367 . S
C731 C730 1.367 . S
C731 C733 1.433 . S
C732 C728 1.350 . S
C732 C729 1.463 . S
C732 N736 1.427 . S
C733 H723 0.929 . S
C733 C731 1.433 . S
C733 N736 1.384 . S
C734 H725 0.929 . S
C734 C726 1.378 . S
C734 C729 1.350 . S
C735 H722 0.929 . S
C735 C727 1.433 . S
C735 N737 1.384 . S
N736 C732 1.427 . S
N736 C733 1.384 . S
N737 C729 1.427 . S
N737 C735 1.384 . S
H738 C744 0.930 . S
H739 C748 0.930 . S
H740 C753 0.929 . S
H741 C751 0.929 . S
H742 C746 0.929 . S
H743 C752 0.929 . S
C744 H738 0.930 . S
C744 C745 1.367 . S
C744 C752 1.378 . S
C745 C744 1.367 . S
C745 C753 1.433 . S
C746 H742 0.929 . S
C746 C748 1.378 . S
C746 C750 1.350 . S
C747 C750 1.463 . S
C747 C752 1.350 . S
C747 N755 1.427 . S
C748 H739 0.930 . S
C748 C746 1.378 . S
C748 C749 1.367 . S
C749 C748 1.367 . S
C749 C751 1.433 . S
C750 C746 1.350 . S
C750 C747 1.463 . S
C750 N754 1.427 . S
C751 H741 0.929 . S
C751 C749 1.433 . S
C751 N754 1.384 . S
C752 H743 0.929 . S
C752 C744 1.378 . S
C752 C747 1.350 . S
C753 H740 0.929 . S
C753 C745 1.433 . S
C753 N755 1.384 . S
N754 C750 1.427 . S
N754 C751 1.384 . S
N755 C747 1.427 . S
N755 C753 1.384 . S
H756 C762 0.930 . S
H757 C766 0.930 . S
H758 C771 0.929 . S
H759 C769 0.929 1_556 S
H760 C764 0.929 . S
H761 C770 0.929 . S
C762 H756 0.930 . S
C762 C763 1.367 . S
C762 C770 1.378 . S
C763 C762 1.367 . S
C763 C771 1.433 . S
C764 H760 0.929 . S
C764 C766 1.378 . S
C764 C768 1.350 . S
C765 C768 1.463 1_545 S
C765 C770 1.350 . S
C765 N773 1.427 . S
C766 H757 0.930 . S
C766 C764 1.378 . S
C766 C767 1.367 . S
C767 C766 1.367 . S
C767 C769 1.433 . S
C768 C764 1.350 . S
C768 C765 1.463 1_565 S
C768 N772 1.427 . S
C769 H759 0.929 1_554 S
C769 C767 1.433 . S
C769 N772 1.384 . S
C770 H761 0.929 . S
C770 C762 1.378 . S
C770 C765 1.350 . S
C771 H758 0.929 . S
C771 C763 1.433 . S
C771 N773 1.384 . S
N772 C768 1.427 . S
N772 C769 1.384 . S
N773 C765 1.427 . S
N773 C771 1.384 . S
H774 C780 0.930 . S
H775 C784 0.930 . S
H776 C789 0.929 . S
H777 C787 0.929 . S
H778 C782 0.929 . S
H779 C788 0.929 . S
C780 H774 0.930 . S
C780 C781 1.367 . S
C780 C788 1.378 . S
C781 C780 1.367 . S
C781 C789 1.433 . S
C782 H778 0.929 . S
C782 C784 1.378 . S
C782 C786 1.350 . S
C783 C786 1.463 . S
C783 C788 1.350 . S
C783 N791 1.427 . S
C784 H775 0.930 . S
C784 C782 1.378 . S
C784 C785 1.367 . S
C785 C784 1.367 . S
C785 C787 1.433 . S
C786 C782 1.350 . S
C786 C783 1.463 . S
C786 N790 1.427 . S
C787 H777 0.929 . S
C787 C785 1.433 . S
C787 N790 1.384 . S
C788 H779 0.929 . S
C788 C780 1.378 . S
C788 C783 1.350 . S
C789 H776 0.929 . S
C789 C781 1.433 . S
C789 N791 1.384 . S
N790 C786 1.427 . S
N790 C787 1.384 . S
N791 C783 1.427 . S
N791 C789 1.384 . S
H792 C798 0.930 . S
H793 C802 0.930 . S
H794 C807 0.929 . S
H795 C805 0.929 . S
H796 C800 0.929 . S
H797 C806 0.929 . S
C798 H792 0.930 . S
C798 C799 1.367 . S
C798 C806 1.378 . S
C799 C798 1.367 . S
C799 C807 1.433 . S
C800 H796 0.929 . S
C800 C802 1.378 . S
C800 C804 1.350 . S
C801 C804 1.463 1_455 S
C801 C806 1.350 . S
C801 N809 1.427 . S
C802 H793 0.930 . S
C802 C800 1.378 . S
C802 C803 1.367 . S
C803 C802 1.367 . S
C803 C805 1.433 . S
C804 C800 1.350 . S
C804 C801 1.463 1_655 S
C804 N808 1.427 . S
C805 H795 0.929 . S
C805 C803 1.433 . S
C805 N808 1.384 . S
C806 H797 0.929 . S
C806 C798 1.378 . S
C806 C801 1.350 . S
C807 H794 0.929 . S
C807 C799 1.433 . S
C807 N809 1.384 . S
N808 C804 1.427 . S
N808 C805 1.384 . S
N809 C801 1.427 . S
N809 C807 1.384 . S
H810 C816 0.930 . S
H811 C820 0.930 . S
H812 C825 0.929 . S
H813 C823 0.929 . S
H814 C818 0.929 . S
H815 C824 0.929 . S
C816 H810 0.930 . S
C816 C817 1.367 . S
C816 C824 1.378 . S
C817 C816 1.367 . S
C817 C825 1.433 . S
C818 H814 0.929 . S
C818 C820 1.378 . S
C818 C822 1.350 . S
C819 C822 1.463 1_565 S
C819 C824 1.350 . S
C819 N827 1.427 . S
C820 H811 0.930 . S
C820 C818 1.378 . S
C820 C821 1.367 . S
C821 C820 1.367 . S
C821 C823 1.433 . S
C822 C818 1.350 . S
C822 C819 1.463 1_545 S
C822 N826 1.427 . S
C823 H813 0.929 . S
C823 C821 1.433 . S
C823 N826 1.384 . S
C824 H815 0.929 . S
C824 C816 1.378 . S
C824 C819 1.350 . S
C825 H812 0.929 . S
C825 C817 1.433 . S
C825 N827 1.384 . S
N826 C822 1.427 . S
N826 C823 1.384 . S
N827 C819 1.427 . S
N827 C825 1.384 . S
H828 C834 0.930 . S
H829 C838 0.930 . S
H830 C843 0.929 . S
H831 C841 0.929 . S
H832 C836 0.929 . S
H833 C842 0.929 . S
C834 H828 0.930 . S
C834 C835 1.367 . S
C834 C842 1.378 . S
C835 C834 1.367 . S
C835 C843 1.433 . S
C836 H832 0.929 . S
C836 C838 1.378 . S
C836 C840 1.350 . S
C837 C840 1.463 . S
C837 C842 1.350 . S
C837 N845 1.427 . S
C838 H829 0.930 . S
C838 C836 1.378 . S
C838 C839 1.367 . S
C839 C838 1.367 . S
C839 C841 1.433 . S
C840 C836 1.350 . S
C840 C837 1.463 . S
C840 N844 1.427 . S
C841 H831 0.929 . S
C841 C839 1.433 . S
C841 N844 1.384 . S
C842 H833 0.929 . S
C842 C834 1.378 . S
C842 C837 1.350 . S
C843 H830 0.929 . S
C843 C835 1.433 . S
C843 N845 1.384 . S
N844 C840 1.427 . S
N844 C841 1.384 . S
N845 C837 1.427 . S
N845 C843 1.384 . S
H846 C852 0.930 . S
H847 C856 0.930 . S
H848 C861 0.929 . S
H849 C859 0.929 . S
H850 C854 0.929 . S
H851 C860 0.929 . S
C852 H846 0.930 . S
C852 C853 1.367 . S
C852 C860 1.378 . S
C853 C852 1.367 . S
C853 C861 1.433 . S
C854 H850 0.929 . S
C854 C856 1.378 . S
C854 C858 1.350 . S
C855 C858 1.463 1_455 S
C855 C860 1.350 . S
C855 N863 1.427 . S
C856 H847 0.930 . S
C856 C854 1.378 . S
C856 C857 1.367 . S
C857 C856 1.367 . S
C857 C859 1.433 . S
C858 C854 1.350 . S
C858 C855 1.463 1_655 S
C858 N862 1.427 . S
C859 H849 0.929 . S
C859 C857 1.433 . S
C859 N862 1.384 . S
C860 H851 0.929 . S
C860 C852 1.378 . S
C860 C855 1.350 . S
C861 H848 0.929 . S
C861 C853 1.433 . S
C861 N863 1.384 . S
N862 C858 1.427 . S
N862 C859 1.384 . S
N863 C855 1.427 . S
N863 C861 1.384 . S
C439 C2 1.210 . S
C443 C362 1.206 . S
C457 C38 1.202 . S
C461 C398 1.205 . S
C475 C218 1.210 . S
C479 C74 1.212 . S
C493 C110 1.210 . S
C497 C254 1.206 . S
C511 C290 1.211 . S
C515 C146 1.211 . S
C529 C326 1.211 . S
C533 C182 1.211 1_554 S
C547 C291 1.289 . S
C551 C3 1.291 . S
C565 C39 1.295 . S
C569 C327 1.293 . S
C583 C363 1.295 . S
C587 C75 1.292 . S
C601 C111 1.295 . S
C605 C399 1.295 . S
C619 C147 1.291 . S
C623 C219 1.294 . S
C637 C183 1.289 . S
C641 C255 1.288 . S
C655 C374 1.472 . S
C659 C14 1.486 . S
C673 C410 1.469 . S
C677 C50 1.478 . S
C691 C230 1.483 1_554 S
C695 C86 1.482 . S
C709 C122 1.474 . S
C713 C266 1.487 . S
C727 C158 1.473 . S
C731 C302 1.472 . S
C745 C338 1.482 . S
C749 C194 1.483 . S
C763 C4 1.306 . S
C767 C256 1.314 . S
C781 C292 1.309 . S
C785 C40 1.307 . S
C799 C328 1.315 . S
C803 C76 1.303 . S
C817 C112 1.305 . S
C821 C364 1.311 . S
C835 C148 1.310 . S
C839 C400 1.310 . S
C853 C184 1.312 . S
C857 C220 1.305 . S
