# Generated by pormake.
# Topology uoc, (4)-cn, num edge types: 1
# Building blocks:
#     Node 0, Type 0, BuildingBlock: NAHDIM_clean_sbu_0, # of connection points: 4
#     Node 1, Type 0, BuildingBlock: NAHDIM_clean_sbu_0, # of connection points: 4
#     Node 2, Type 0, BuildingBlock: NAHDIM_clean_sbu_0, # of connection points: 4
#     Node 3, Type 0, BuildingBlock: NAHDIM_clean_sbu_0, # of connection points: 4
#     Node 4, Type 0, BuildingBlock: NAHDIM_clean_sbu_0, # of connection points: 4
#     Node 5, Type 0, BuildingBlock: NAHDIM_clean_sbu_0, # of connection points: 4
#     Node 6, Type 0, BuildingBlock: NAHDIM_clean_sbu_0, # of connection points: 4
#     Node 7, Type 0, BuildingBlock: NAHDIM_clean_sbu_0, # of connection points: 4
#     Edge 8, Type (0, 0), BuildingBlock: AJUNOK_clean_linker_0, # of connection points: 2
#     Edge 9, Type (0, 0), BuildingBlock: AJUNOK_clean_linker_0, # of connection points: 2
#     Edge 10, Type (0, 0), BuildingBlock: AJUNOK_clean_linker_0, # of connection points: 2
#     Edge 11, Type (0, 0), BuildingBlock: AJUNOK_clean_linker_0, # of connection points: 2
#     Edge 12, Type (0, 0), BuildingBlock: AJUNOK_clean_linker_0, # of connection points: 2
#     Edge 13, Type (0, 0), BuildingBlock: AJUNOK_clean_linker_0, # of connection points: 2
#     Edge 14, Type (0, 0), BuildingBlock: AJUNOK_clean_linker_0, # of connection points: 2
#     Edge 15, Type (0, 0), BuildingBlock: AJUNOK_clean_linker_0, # of connection points: 2
#     Edge 16, Type (0, 0), BuildingBlock: AJUNOK_clean_linker_0, # of connection points: 2
#     Edge 17, Type (0, 0), BuildingBlock: AJUNOK_clean_linker_0, # of connection points: 2
#     Edge 18, Type (0, 0), BuildingBlock: AJUNOK_clean_linker_0, # of connection points: 2
#     Edge 19, Type (0, 0), BuildingBlock: AJUNOK_clean_linker_0, # of connection points: 2
#     Edge 20, Type (0, 0), BuildingBlock: AJUNOK_clean_linker_0, # of connection points: 2
#     Edge 21, Type (0, 0), BuildingBlock: AJUNOK_clean_linker_0, # of connection points: 2
#     Edge 22, Type (0, 0), BuildingBlock: AJUNOK_clean_linker_0, # of connection points: 2
#     Edge 23, Type (0, 0), BuildingBlock: AJUNOK_clean_linker_0, # of connection points: 2
# Relax obj value: 0.196
# Max RMSD: 0.195
# Mean RMSD: 0.195
data_MOF--net-uoc--node1-NAHDIM_clean_sbu_0--edge1-AJUNOK_clean_linker_0
_symmetry_space_group_name_H-M    P1
_symmetry_Int_Tables_number       1
_symmetry_cell_setting            triclinic
loop_
_symmetry_equiv_pos_as_xyz
'x, y, z'
_cell_length_a     20.507701
_cell_length_b     20.566566
_cell_length_c     38.605808
_cell_angle_alpha  89.699807
_cell_angle_beta   90.036938
_cell_angle_gamma 95.176385
loop_
_atom_site_label
_atom_site_type_symbol
_atom_site_fract_x
_atom_site_fract_y
_atom_site_fract_z
_atom_type_partial_charge
C0 C 0.10548 0.41339 0.10374 0.0
O1 O 0.16936 0.41838 0.10769 0.0
O2 O 0.17903 0.29019 0.04734 0.0
Zn3 Zn 0.12907 0.28218 0.09171 0.0
O4 O 0.18791 0.2812 0.1332 0.0
C5 C 0.09251 0.14565 0.08628 0.0
O6 O 0.15623 0.14506 0.08304 0.0
O7 O 0.07627 0.35819 0.09629 0.0
C8 C 0.16788 0.2495 0.16006 0.0
O9 O 0.11071 0.21522 0.15911 0.0
C10 C 0.23649 0.27277 0.04412 0.0
O11 O 0.26708 0.2528 0.07156 0.0
O12 O 0.06865 0.19999 0.09014 0.0
C13 C 0.89868 0.56789 0.36185 0.0
O14 O 0.9073 0.63126 0.36673 0.0
O15 O 0.77661 0.64091 0.41102 0.0
Zn16 Zn 0.76798 0.59897 0.3642 0.0
O17 O 0.77806 0.66406 0.32502 0.0
C18 C 0.63007 0.56643 0.37269 0.0
O19 O 0.63367 0.62567 0.38549 0.0
O20 O 0.84063 0.54095 0.35968 0.0
C21 C 0.73347 0.67684 0.30381 0.0
O22 O 0.67373 0.6494 0.30831 0.0
C23 C 0.76461 0.69893 0.41789 0.0
O24 O 0.74557 0.73653 0.39292 0.0
O25 O 0.68191 0.54422 0.36157 0.0
C26 C 0.40606 0.10399 0.61312 0.0
O27 O 0.34266 0.09246 0.6082 0.0
O28 O 0.32459 0.23026 0.57034 0.0
Zn29 Zn 0.37051 0.23402 0.61591 0.0
O30 O 0.30822 0.21987 0.65561 0.0
C31 C 0.40409 0.37173 0.6078 0.0
O32 O 0.34409 0.37002 0.59565 0.0
O33 O 0.43009 0.16251 0.61712 0.0
C34 C 0.28807 0.26313 0.67528 0.0
O35 O 0.30726 0.32491 0.66958 0.0
C36 C 0.26323 0.22791 0.56536 0.0
O37 O 0.22356 0.22664 0.59209 0.0
O38 O 0.42517 0.31946 0.6191 0.0
C39 C 0.56736 0.87505 0.87157 0.0
O40 O 0.5611 0.81177 0.86622 0.0
O41 O 0.69469 0.79438 0.92173 0.0
Zn42 Zn 0.69911 0.84794 0.87811 0.0
O43 O 0.69193 0.7968 0.83392 0.0
C44 C 0.83567 0.8884 0.88902 0.0
O45 O 0.83634 0.8284 0.90071 0.0
O46 O 0.62383 0.90283 0.87807 0.0
C47 C 0.73867 0.77947 0.81552 0.0
O48 O 0.79899 0.78841 0.82711 0.0
C49 C 0.71695 0.73921 0.92559 0.0
O50 O 0.74079 0.71057 0.89866 0.0
O51 O 0.78232 0.90753 0.87785 0.0
C52 C 0.56788 0.88533 0.61342 0.0
O53 O 0.6314 0.89287 0.61867 0.0
O54 O 0.65317 0.76144 0.56652 0.0
Zn55 Zn 0.59884 0.75514 0.60994 0.0
O56 O 0.64765 0.76436 0.65511 0.0
C57 C 0.56801 0.61744 0.60339 0.0
O58 O 0.63024 0.62008 0.59503 0.0
O59 O 0.5408 0.82816 0.60839 0.0
C60 C 0.68403 0.72618 0.67028 0.0
O61 O 0.69927 0.67301 0.65474 0.0
C62 C 0.71151 0.74739 0.56177 0.0
O63 O 0.74561 0.72831 0.58814 0.0
O64 O 0.5428 0.67003 0.61033 0.0
C65 C 0.34835 0.03544 0.86215 0.0
O66 O 0.36056 0.09926 0.86216 0.0
O67 O 0.23916 0.13083 0.90389 0.0
Zn68 Zn 0.21962 0.07284 0.86308 0.0
O69 O 0.21989 0.11949 0.81751 0.0
C70 C 0.082 0.05008 0.87596 0.0
O71 O 0.08658 0.1141 0.87765 0.0
O72 O 0.28923 0.01114 0.86194 0.0
C73 C 0.1977 0.17329 0.80955 0.0
O74 O 0.17162 0.20818 0.83337 0.0
C75 C 0.26661 0.1886 0.90546 0.0
O76 O 0.28368 0.2213 0.87713 0.0
O77 O 0.13321 0.02155 0.87008 0.0
C78 C 0.94893 0.63408 0.11601 0.0
O79 O 0.88498 0.62276 0.11835 0.0
O80 O 0.85507 0.74222 0.07047 0.0
Zn81 Zn 0.91086 0.76095 0.11262 0.0
O82 O 0.86451 0.75641 0.15841 0.0
C83 C 0.93272 0.89813 0.09911 0.0
O84 O 0.86886 0.89226 0.09507 0.0
O85 O 0.97376 0.6927 0.11359 0.0
C86 C 0.80976 0.77445 0.16798 0.0
O87 O 0.77111 0.79975 0.14544 0.0
C88 C 0.79712 0.71579 0.06677 0.0
O89 O 0.76084 0.69905 0.09393 0.0
O90 O 0.96144 0.84791 0.10693 0.0
C91 C 0.11626 0.40549 0.35235 0.0
O92 O 0.10646 0.34717 0.33853 0.0
O93 O 0.24437 0.30951 0.40607 0.0
Zn94 Zn 0.24603 0.36636 0.36383 0.0
O95 O 0.23913 0.31315 0.32045 0.0
C96 C 0.38469 0.40078 0.36705 0.0
O97 O 0.38619 0.33704 0.36774 0.0
O98 O 0.17202 0.4236 0.36509 0.0
C99 C 0.27023 0.33241 0.29331 0.0
O100 O 0.31016 0.38599 0.29464 0.0
C101 C 0.19521 0.29756 0.42587 0.0
O102 O 0.1393 0.31994 0.41755 0.0
O103 O 0.32978 0.42444 0.36485 0.0
C104 C 0.23853 0.29714 0.98085 0.0
C105 C 0.2604 0.26077 0.00892 0.0
C106 C 0.24623 0.27684 0.94662 0.0
C107 C 0.27487 0.21895 0.93962 0.0
H108 H 0.21194 0.33946 0.98548 0.0
H109 H 0.2251 0.30365 0.92583 0.0
S110 S 0.34812 0.11114 0.00308 0.0
N111 N 0.31902 0.16845 0.02687 0.0
N112 N 0.33162 0.12951 0.9625 0.0
C113 C 0.30135 0.18498 0.96708 0.0
C114 C 0.29476 0.20623 0.00183 0.0
C115 C 0.70472 0.7159 0.24452 0.0
C116 C 0.75126 0.71299 0.27127 0.0
C117 C 0.72302 0.73984 0.21148 0.0
C118 C 0.78853 0.76113 0.20403 0.0
H119 H 0.65433 0.6968 0.24855 0.0
H120 H 0.6864 0.73812 0.19118 0.0
S121 S 0.92702 0.77467 0.26617 0.0
N122 N 0.86419 0.74211 0.28898 0.0
N123 N 0.89832 0.78584 0.22684 0.0
C124 C 0.83452 0.7629 0.23106 0.0
C125 C 0.81594 0.73924 0.26471 0.0
C126 C 0.28226 0.22803 0.50178 0.0
C127 C 0.23893 0.23454 0.52952 0.0
C128 C 0.26574 0.24455 0.46799 0.0
C129 C 0.20517 0.26844 0.46044 0.0
H130 H 0.33065 0.21246 0.50628 0.0
H131 H 0.30216 0.2412 0.44792 0.0
S132 S 0.07011 0.28507 0.52293 0.0
N133 N 0.12971 0.25922 0.54665 0.0
N134 N 0.09842 0.29044 0.4829 0.0
C135 C 0.15918 0.27031 0.48744 0.0
C136 C 0.17612 0.25333 0.52204 0.0
C137 C 0.66922 0.78169 0.76282 0.0
C138 C 0.72548 0.76132 0.77897 0.0
C139 C 0.65712 0.77059 0.72767 0.0
C140 C 0.70005 0.7375 0.70722 0.0
H141 H 0.63472 0.808 0.77719 0.0
H142 H 0.61322 0.78772 0.71654 0.0
S143 S 0.85323 0.672 0.737 0.0
N144 N 0.82436 0.70567 0.77191 0.0
N145 N 0.80041 0.68309 0.70565 0.0
C146 C 0.75582 0.71547 0.72303 0.0
C147 C 0.76889 0.72791 0.75892 0.0
C148 C 0.2763 0.33311 0.22876 0.0
C149 C 0.25289 0.30203 0.25945 0.0
C150 C 0.25155 0.31298 0.1964 0.0
C151 C 0.20237 0.261 0.19346 0.0
H152 H 0.3116 0.37554 0.22971 0.0
H153 H 0.2687 0.34081 0.17377 0.0
S154 S 0.13413 0.15494 0.26524 0.0
N155 N 0.18483 0.21044 0.28439 0.0
N156 N 0.13829 0.17262 0.2235 0.0
C157 C 0.18269 0.22586 0.22362 0.0
C158 C 0.20796 0.24636 0.25663 0.0
C159 C 0.70527 0.77671 0.49914 0.0
C160 C 0.73555 0.74319 0.52574 0.0
C161 C 0.71826 0.7653 0.4642 0.0
C162 C 0.76136 0.71923 0.45451 0.0
H163 H 0.66924 0.8103 0.50531 0.0
H164 H 0.69144 0.79008 0.44472 0.0
S165 S 0.85984 0.62473 0.51395 0.0
N166 N 0.81584 0.66701 0.53992 0.0
N167 N 0.83973 0.64503 0.47418 0.0
C168 C 0.7952 0.68849 0.48078 0.0
C169 C 0.78253 0.70069 0.51642 0.0
C170 C 0.24979 0.28638 0.73522 0.0
C171 C 0.25253 0.24253 0.70743 0.0
C172 C 0.22753 0.26459 0.76801 0.0
C173 C 0.20777 0.19831 0.77399 0.0
H174 H 0.2683 0.3371 0.73222 0.0
H175 H 0.22974 0.299 0.78922 0.0
S176 S 0.19296 0.06651 0.70859 0.0
N177 N 0.22376 0.1317 0.68705 0.0
N178 N 0.18327 0.09098 0.74876 0.0
C179 C 0.20523 0.15517 0.74589 0.0
C180 C 0.22721 0.17726 0.71255 0.0
C181 C 0.70938 0.72874 0.02322 0.0
C182 C 0.77074 0.70766 0.03145 0.0
C183 C 0.68994 0.7344 -0.01143 0.0
C184 C 0.73057 0.71765 0.96121 0.0
H185 H 0.67835 0.7453 0.04346 0.0
H186 H 0.64426 0.7551 0.9831 0.0
S187 S 0.89184 0.65071 0.96994 0.0
N188 N 0.86907 0.66373 0.01015 0.0
N189 N 0.83191 0.67257 0.94509 0.0
C190 C 0.78952 0.69116 0.9694 0.0
C191 C 0.80984 0.68675 0.00457 0.0
C192 C 0.07868 0.02409 0.0904 0.0
C193 C 0.05 0.08352 0.08796 0.0
C194 C 0.04026 0.96467 0.09378 0.0
C195 C 0.97145 0.96202 0.09463 0.0
H196 H 0.13141 0.02325 0.09024 0.0
H197 H 0.065 0.92045 0.09586 0.0
S198 S 0.87176 0.10358 0.08776 0.0
N199 N 0.94827 0.136 0.08563 0.0
N200 N 0.87601 0.02415 0.09185 0.0
C201 C 0.94192 0.02095 0.09154 0.0
C202 C 0.98117 0.08169 0.08826 0.0
C203 C -0.00244 0.42295 0.34748 0.0
C204 C 0.0622 0.44852 0.35429 0.0
C205 C 0.94521 0.46193 0.34996 0.0
C206 C 0.95536 0.52825 0.35909 0.0
H207 H 0.98698 0.37212 0.34054 0.0
H208 H 0.89636 0.43967 0.34464 0.0
S209 S 0.11571 0.61965 0.37849 0.0
N210 N 0.13375 0.54485 0.36989 0.0
N211 N 0.03549 0.61814 0.37442 0.0
C212 C 0.01991 0.55474 0.36557 0.0
C213 C 0.07324 0.5149 0.36322 0.0
C214 C 0.41948 0.49342 0.60399 0.0
C215 C 0.44705 0.43353 0.60742 0.0
C216 C 0.45896 0.55262 0.603 0.0
C217 C 0.5276 0.55417 0.60485 0.0
H218 H 0.36689 0.49473 0.60223 0.0
H219 H 0.43541 0.59747 0.60034 0.0
S220 S 0.6243 0.41091 0.61405 0.0
N221 N 0.54741 0.37943 0.61289 0.0
N222 N 0.62155 0.49064 0.61064 0.0
C223 C 0.55589 0.49466 0.60826 0.0
C224 C 0.51565 0.43439 0.60969 0.0
C225 C 0.51948 0.98241 0.87246 0.0
C226 C 0.51025 0.91411 0.86907 0.0
C227 C 0.46693 0.02101 0.86985 0.0
C228 C 0.40284 -0.00703 0.86389 0.0
H229 H 0.56779 0.00662 0.87712 0.0
H230 H 0.47683 0.07331 0.87283 0.0
S231 S 0.35204 0.81638 0.85263 0.0
N232 N 0.43183 0.81992 0.85909 0.0
N233 N 0.33299 0.89256 0.85426 0.0
C234 C 0.39273 0.9247 0.86034 0.0
C235 C 0.44641 0.88529 0.86291 0.0
C236 C 0.96101 0.51516 0.11029 0.0
C237 C 0.99056 0.57907 0.11425 0.0
C238 C -0.00134 0.46217 0.10708 0.0
C239 C 0.0675 0.47076 0.10788 0.0
H240 H 0.90822 0.50578 0.10917 0.0
H241 H 0.97331 0.41406 0.10383 0.0
S242 S 0.16912 0.62808 0.11912 0.0
N243 N 0.09295 0.64797 0.11977 0.0
N244 N 0.16386 0.54819 0.11383 0.0
C245 C 0.09785 0.5343 0.11242 0.0
C246 C 0.05937 0.58847 0.11556 0.0
C247 C 0.50677 0.41831 0.36411 0.0
C248 C 0.44624 0.44438 0.3685 0.0
C249 C 0.56577 0.45823 0.36527 0.0
C250 C 0.56671 0.52577 0.37122 0.0
H251 H 0.5088 0.36661 0.35955 0.0
H252 H 0.61104 0.4357 0.36176 0.0
S253 S 0.42158 0.61853 0.38433 0.0
N254 N 0.39084 0.54231 0.37895 0.0
N255 N 0.50171 0.61716 0.38131 0.0
C256 C 0.50655 0.55257 0.37571 0.0
C257 C 0.44637 0.51197 0.37427 0.0
C258 C 0.42194 0.98573 0.60609 0.0
C259 C 0.44871 0.04949 0.61359 0.0
C260 C 0.46085 0.9332 0.60608 0.0
C261 C 0.52822 0.94217 0.61359 0.0
H262 H 0.37042 0.97605 0.60002 0.0
H263 H 0.43771 0.88517 0.60003 0.0
S264 S 0.62235 0.09934 0.63577 0.0
N265 N 0.5469 0.11858 0.62928 0.0
N266 N 0.61998 0.01993 0.62927 0.0
C267 C 0.55571 0.00567 0.62132 0.0
C268 C 0.51602 0.05926 0.62132 0.0
C269 C 0.9576 0.90428 0.88901 0.0
C270 C 0.89728 0.93157 0.88694 0.0
C271 C 0.01683 0.94315 0.88564 0.0
C272 C 0.01826 0.01105 0.88046 0.0
H273 H 0.95928 0.85219 0.89263 0.0
H274 H 0.06189 0.91952 0.88705 0.0
S275 S 0.87374 0.10714 0.87483 0.0
N276 N 0.84241 0.03104 0.88046 0.0
N277 N 0.95392 0.10431 0.87441 0.0
C278 C 0.95831 0.0393 0.8791 0.0
C279 C 0.89781 -0.00047 0.88222 0.0
loop_
_geom_bond_atom_site_label_1
_geom_bond_atom_site_label_2
_geom_bond_distance
_geom_bond_site_symmetry_2
_ccdc_geom_bond_type
C0 O1 1.160 . S
C0 O7 1.185 . S
O1 C0 1.160 . S
O2 Zn3 1.899 . S
O2 C10 1.284 . S
Zn3 O2 1.899 . S
Zn3 O4 2.032 . S
Zn3 O7 2.086 . S
Zn3 O12 1.977 . S
O4 Zn3 2.032 . S
O4 C8 1.278 . S
C5 O6 1.203 . S
C5 O12 1.267 . S
O6 C5 1.203 . S
O7 C0 1.185 . S
O7 Zn3 2.086 . S
C8 O4 1.278 . S
C8 O9 1.211 . S
O9 C8 1.211 . S
C10 O2 1.284 . S
C10 O11 1.273 . S
O11 C10 1.273 . S
O12 Zn3 1.977 . S
O12 C5 1.267 . S
C13 O14 1.160 . S
C13 O20 1.185 . S
O14 C13 1.160 . S
O15 Zn16 1.899 . S
O15 C23 1.284 . S
Zn16 O15 1.899 . S
Zn16 O17 2.032 . S
Zn16 O20 2.086 . S
Zn16 O25 1.977 . S
O17 Zn16 2.032 . S
O17 C21 1.278 . S
C18 O19 1.203 . S
C18 O25 1.267 . S
O19 C18 1.203 . S
O20 C13 1.185 . S
O20 Zn16 2.086 . S
C21 O17 1.278 . S
C21 O22 1.211 . S
O22 C21 1.211 . S
C23 O15 1.284 . S
C23 O24 1.273 . S
O24 C23 1.273 . S
O25 Zn16 1.977 . S
O25 C18 1.267 . S
C26 O27 1.160 . S
C26 O33 1.185 . S
O27 C26 1.160 . S
O28 Zn29 1.899 . S
O28 C36 1.284 . S
Zn29 O28 1.899 . S
Zn29 O30 2.032 . S
Zn29 O33 2.086 . S
Zn29 O38 1.977 . S
O30 Zn29 2.032 . S
O30 C34 1.278 . S
C31 O32 1.203 . S
C31 O38 1.267 . S
O32 C31 1.203 . S
O33 C26 1.185 . S
O33 Zn29 2.086 . S
C34 O30 1.278 . S
C34 O35 1.211 . S
O35 C34 1.211 . S
C36 O28 1.284 . S
C36 O37 1.273 . S
O37 C36 1.273 . S
O38 Zn29 1.977 . S
O38 C31 1.267 . S
C39 O40 1.160 . S
C39 O46 1.185 . S
O40 C39 1.160 . S
O41 Zn42 1.899 . S
O41 C49 1.284 . S
Zn42 O41 1.899 . S
Zn42 O43 2.032 . S
Zn42 O46 2.086 . S
Zn42 O51 1.977 . S
O43 Zn42 2.032 . S
O43 C47 1.278 . S
C44 O45 1.203 . S
C44 O51 1.267 . S
O45 C44 1.203 . S
O46 C39 1.185 . S
O46 Zn42 2.086 . S
C47 O43 1.278 . S
C47 O48 1.211 . S
O48 C47 1.211 . S
C49 O41 1.284 . S
C49 O50 1.273 . S
O50 C49 1.273 . S
O51 Zn42 1.977 . S
O51 C44 1.267 . S
C52 O53 1.160 . S
C52 O59 1.185 . S
O53 C52 1.160 . S
O54 Zn55 1.899 . S
O54 C62 1.284 . S
Zn55 O54 1.899 . S
Zn55 O56 2.032 . S
Zn55 O59 2.086 . S
Zn55 O64 1.977 . S
O56 Zn55 2.032 . S
O56 C60 1.278 . S
C57 O58 1.203 . S
C57 O64 1.267 . S
O58 C57 1.203 . S
O59 C52 1.185 . S
O59 Zn55 2.086 . S
C60 O56 1.278 . S
C60 O61 1.211 . S
O61 C60 1.211 . S
C62 O54 1.284 . S
C62 O63 1.273 . S
O63 C62 1.273 . S
O64 Zn55 1.977 . S
O64 C57 1.267 . S
C65 O66 1.160 . S
C65 O72 1.185 . S
O66 C65 1.160 . S
O67 Zn68 1.899 . S
O67 C75 1.284 . S
Zn68 O67 1.899 . S
Zn68 O69 2.032 . S
Zn68 O72 2.086 . S
Zn68 O77 1.977 . S
O69 Zn68 2.032 . S
O69 C73 1.278 . S
C70 O71 1.203 . S
C70 O77 1.267 . S
O71 C70 1.203 . S
O72 C65 1.185 . S
O72 Zn68 2.086 . S
C73 O69 1.278 . S
C73 O74 1.211 . S
O74 C73 1.211 . S
C75 O67 1.284 . S
C75 O76 1.273 . S
O76 C75 1.273 . S
O77 Zn68 1.977 . S
O77 C70 1.267 . S
C78 O79 1.160 . S
C78 O85 1.185 . S
O79 C78 1.160 . S
O80 Zn81 1.899 . S
O80 C88 1.284 . S
Zn81 O80 1.899 . S
Zn81 O82 2.032 . S
Zn81 O85 2.086 . S
Zn81 O90 1.977 . S
O82 Zn81 2.032 . S
O82 C86 1.278 . S
C83 O84 1.203 . S
C83 O90 1.267 . S
O84 C83 1.203 . S
O85 C78 1.185 . S
O85 Zn81 2.086 . S
C86 O82 1.278 . S
C86 O87 1.211 . S
O87 C86 1.211 . S
C88 O80 1.284 . S
C88 O89 1.273 . S
O89 C88 1.273 . S
O90 Zn81 1.977 . S
O90 C83 1.267 . S
C91 O92 1.160 . S
C91 O98 1.185 . S
O92 C91 1.160 . S
O93 Zn94 1.899 . S
O93 C101 1.284 . S
Zn94 O93 1.899 . S
Zn94 O95 2.032 . S
Zn94 O98 2.086 . S
Zn94 O103 1.977 . S
O95 Zn94 2.032 . S
O95 C99 1.278 . S
C96 O97 1.203 . S
C96 O103 1.267 . S
O97 C96 1.203 . S
O98 C91 1.185 . S
O98 Zn94 2.086 . S
C99 O95 1.278 . S
C99 O100 1.211 . S
O100 C99 1.211 . S
C101 O93 1.284 . S
C101 O102 1.273 . S
O102 C101 1.273 . S
O103 Zn94 1.977 . S
O103 C96 1.267 . S
C104 C105 1.369 . S
C104 C106 1.419 1_554 S
C104 H108 0.930 . S
C105 C104 1.369 . S
C105 C114 1.429 . S
C106 C104 1.419 1_556 S
C106 C107 1.363 . S
C106 H109 0.929 . S
C107 C106 1.363 . S
C107 C113 1.428 . S
H108 C104 0.930 . S
H109 C106 0.929 . S
S110 N111 1.613 1_556 S
S110 N112 1.610 . S
N111 S110 1.613 1_554 S
N111 C114 1.350 . S
N112 S110 1.610 . S
N112 C113 1.351 . S
C113 C107 1.428 . S
C113 N112 1.351 . S
C113 C114 1.434 1_556 S
C114 C105 1.429 . S
C114 N111 1.350 . S
C114 C113 1.434 1_554 S
C115 C116 1.369 . S
C115 C117 1.419 . S
C115 H119 0.930 . S
C116 C115 1.369 . S
C116 C125 1.429 . S
C117 C115 1.419 . S
C117 C118 1.363 . S
C117 H120 0.929 . S
C118 C117 1.363 . S
C118 C124 1.428 . S
H119 C115 0.930 . S
H120 C117 0.929 . S
S121 N122 1.613 . S
S121 N123 1.610 . S
N122 S121 1.613 . S
N122 C125 1.350 . S
N123 S121 1.610 . S
N123 C124 1.351 . S
C124 C118 1.428 . S
C124 N123 1.351 . S
C124 C125 1.434 . S
C125 C116 1.429 . S
C125 N122 1.350 . S
C125 C124 1.434 . S
C126 C127 1.369 . S
C126 C128 1.419 . S
C126 H130 0.930 . S
C127 C126 1.369 . S
C127 C136 1.429 . S
C128 C126 1.419 . S
C128 C129 1.363 . S
C128 H131 0.929 . S
C129 C128 1.363 . S
C129 C135 1.428 . S
H130 C126 0.930 . S
H131 C128 0.929 . S
S132 N133 1.613 . S
S132 N134 1.610 . S
N133 S132 1.613 . S
N133 C136 1.350 . S
N134 S132 1.610 . S
N134 C135 1.351 . S
C135 C129 1.428 . S
C135 N134 1.351 . S
C135 C136 1.434 . S
C136 C127 1.429 . S
C136 N133 1.350 . S
C136 C135 1.434 . S
C137 C138 1.369 . S
C137 C139 1.419 . S
C137 H141 0.930 . S
C138 C137 1.369 . S
C138 C147 1.429 . S
C139 C137 1.419 . S
C139 C140 1.363 . S
C139 H142 0.929 . S
C140 C139 1.363 . S
C140 C146 1.428 . S
H141 C137 0.930 . S
H142 C139 0.929 . S
S143 N144 1.613 . S
S143 N145 1.610 . S
N144 S143 1.613 . S
N144 C147 1.350 . S
N145 S143 1.610 . S
N145 C146 1.351 . S
C146 C140 1.428 . S
C146 N145 1.351 . S
C146 C147 1.434 . S
C147 C138 1.429 . S
C147 N144 1.350 . S
C147 C146 1.434 . S
C148 C149 1.369 . S
C148 C150 1.419 . S
C148 H152 0.930 . S
C149 C148 1.369 . S
C149 C158 1.429 . S
C150 C148 1.419 . S
C150 C151 1.363 . S
C150 H153 0.929 . S
C151 C150 1.363 . S
C151 C157 1.428 . S
H152 C148 0.930 . S
H153 C150 0.929 . S
S154 N155 1.613 . S
S154 N156 1.610 . S
N155 S154 1.613 . S
N155 C158 1.350 . S
N156 S154 1.610 . S
N156 C157 1.351 . S
C157 C151 1.428 . S
C157 N156 1.351 . S
C157 C158 1.434 . S
C158 C149 1.429 . S
C158 N155 1.350 . S
C158 C157 1.434 . S
C159 C160 1.369 . S
C159 C161 1.419 . S
C159 H163 0.930 . S
C160 C159 1.369 . S
C160 C169 1.429 . S
C161 C159 1.419 . S
C161 C162 1.363 . S
C161 H164 0.929 . S
C162 C161 1.363 . S
C162 C168 1.428 . S
H163 C159 0.930 . S
H164 C161 0.929 . S
S165 N166 1.613 . S
S165 N167 1.610 . S
N166 S165 1.613 . S
N166 C169 1.350 . S
N167 S165 1.610 . S
N167 C168 1.351 . S
C168 C162 1.428 . S
C168 N167 1.351 . S
C168 C169 1.434 . S
C169 C160 1.429 . S
C169 N166 1.350 . S
C169 C168 1.434 . S
C170 C171 1.369 . S
C170 C172 1.419 . S
C170 H174 0.930 . S
C171 C170 1.369 . S
C171 C180 1.429 . S
C172 C170 1.419 . S
C172 C173 1.363 . S
C172 H175 0.929 . S
C173 C172 1.363 . S
C173 C179 1.428 . S
H174 C170 0.930 . S
H175 C172 0.929 . S
S176 N177 1.613 . S
S176 N178 1.610 . S
N177 S176 1.613 . S
N177 C180 1.350 . S
N178 S176 1.610 . S
N178 C179 1.351 . S
C179 C173 1.428 . S
C179 N178 1.351 . S
C179 C180 1.434 . S
C180 C171 1.429 . S
C180 N177 1.350 . S
C180 C179 1.434 . S
C181 C182 1.369 . S
C181 C183 1.419 1_554 S
C181 H185 0.930 . S
C182 C181 1.369 . S
C182 C191 1.429 . S
C183 C181 1.419 1_556 S
C183 C184 1.363 . S
C183 H186 0.929 . S
C184 C183 1.363 . S
C184 C190 1.428 . S
H185 C181 0.930 . S
H186 C183 0.929 . S
S187 N188 1.613 . S
S187 N189 1.610 1_554 S
N188 S187 1.613 . S
N188 C191 1.350 . S
N189 S187 1.610 1_556 S
N189 C190 1.351 . S
C190 C184 1.428 . S
C190 N189 1.351 . S
C190 C191 1.434 1_556 S
C191 C182 1.429 . S
C191 N188 1.350 . S
C191 C190 1.434 1_554 S
C192 C193 1.369 . S
C192 C194 1.419 1_545 S
C192 H196 0.930 . S
C193 C192 1.369 . S
C193 C202 1.429 1_455 S
C194 C192 1.419 1_565 S
C194 C195 1.363 1_455 S
C194 H197 0.929 . S
C195 C194 1.363 1_655 S
C195 C201 1.428 . S
H196 C192 0.930 . S
H197 C194 0.929 . S
S198 N199 1.613 . S
S198 N200 1.610 1_545 S
N199 S198 1.613 . S
N199 C202 1.350 . S
N200 S198 1.610 1_565 S
N200 C201 1.351 . S
C201 C195 1.428 . S
C201 N200 1.351 . S
C201 C202 1.434 1_565 S
C202 C193 1.429 1_655 S
C202 N199 1.350 . S
C202 C201 1.434 1_545 S
C203 C204 1.369 . S
C203 C205 1.419 1_455 S
C203 H207 0.930 1_455 S
C204 C203 1.369 . S
C204 C213 1.429 . S
C205 C203 1.419 1_655 S
C205 C206 1.363 . S
C205 H208 0.929 . S
C206 C205 1.363 . S
C206 C212 1.415 1_655 S
H207 C203 0.930 1_655 S
H208 C205 0.929 . S
S209 N210 1.613 . S
S209 N211 1.610 . S
N210 S209 1.613 . S
N210 C213 1.350 . S
N211 S209 1.610 . S
N211 C212 1.352 . S
C212 C206 1.415 1_455 S
C212 N211 1.352 . S
C212 C213 1.448 . S
C213 C204 1.429 . S
C213 N210 1.350 . S
C213 C212 1.448 . S
C214 C215 1.369 . S
C214 C216 1.419 . S
C214 H218 0.930 . S
C215 C214 1.369 . S
C215 C224 1.429 . S
C216 C214 1.419 . S
C216 C217 1.363 . S
C216 H219 0.929 . S
C217 C216 1.363 . S
C217 C223 1.428 . S
H218 C214 0.930 . S
H219 C216 0.929 . S
S220 N221 1.613 . S
S220 N222 1.610 . S
N221 S220 1.613 . S
N221 C224 1.350 . S
N222 S220 1.610 . S
N222 C223 1.351 . S
C223 C217 1.428 . S
C223 N222 1.351 . S
C223 C224 1.434 . S
C224 C215 1.429 . S
C224 N221 1.350 . S
C224 C223 1.434 . S
C225 C226 1.369 1_545 S
C225 C227 1.419 . S
C225 H229 0.930 . S
C226 C225 1.369 1_565 S
C226 C235 1.429 . S
C227 C225 1.419 . S
C227 C228 1.363 . S
C227 H230 0.929 . S
C228 C227 1.363 . S
C228 C234 1.428 1_545 S
H229 C225 0.930 . S
H230 C227 0.929 . S
S231 N232 1.613 . S
S231 N233 1.610 . S
N232 S231 1.613 . S
N232 C235 1.350 . S
N233 S231 1.610 . S
N233 C234 1.351 . S
C234 C228 1.428 1_565 S
C234 N233 1.351 . S
C234 C235 1.434 . S
C235 C226 1.429 . S
C235 N232 1.350 . S
C235 C234 1.434 . S
C236 C237 1.369 . S
C236 C238 1.419 . S
C236 H240 0.930 . S
C237 C236 1.369 . S
C237 C246 1.429 1_655 S
C238 C236 1.419 . S
C238 C239 1.363 1_655 S
C238 H241 0.929 . S
C239 C238 1.363 1_455 S
C239 C245 1.428 . S
H240 C236 0.930 . S
H241 C238 0.929 . S
S242 N243 1.613 . S
S242 N244 1.610 . S
N243 S242 1.613 . S
N243 C246 1.350 . S
N244 S242 1.610 . S
N244 C245 1.351 . S
C245 C239 1.428 . S
C245 N244 1.351 . S
C245 C246 1.434 . S
C246 C237 1.429 1_455 S
C246 N243 1.350 . S
C246 C245 1.434 . S
C247 C248 1.369 . S
C247 C249 1.419 . S
C247 H251 0.930 . S
C248 C247 1.369 . S
C248 C257 1.429 . S
C249 C247 1.419 . S
C249 C250 1.363 . S
C249 H252 0.929 . S
C250 C249 1.363 . S
C250 C256 1.428 . S
H251 C247 0.930 . S
H252 C249 0.929 . S
S253 N254 1.613 . S
S253 N255 1.610 . S
N254 S253 1.613 . S
N254 C257 1.350 . S
N255 S253 1.610 . S
N255 C256 1.351 . S
C256 C250 1.428 . S
C256 N255 1.351 . S
C256 C257 1.434 . S
C257 C248 1.429 . S
C257 N254 1.350 . S
C257 C256 1.434 . S
C258 C259 1.369 . S
C258 C260 1.419 1_545 S
C258 H262 0.930 . S
C259 C258 1.369 . S
C259 C268 1.429 . S
C260 C258 1.419 1_565 S
C260 C261 1.363 . S
C260 H263 0.929 . S
C261 C260 1.363 . S
C261 C267 1.428 . S
H262 C258 0.930 . S
H263 C260 0.929 . S
S264 N265 1.613 . S
S264 N266 1.610 1_545 S
N265 S264 1.613 . S
N265 C268 1.350 . S
N266 S264 1.610 1_565 S
N266 C267 1.351 . S
C267 C261 1.428 . S
C267 N266 1.351 . S
C267 C268 1.434 1_565 S
C268 C259 1.429 . S
C268 N265 1.350 . S
C268 C267 1.434 1_545 S
C269 C270 1.369 . S
C269 C271 1.419 1_655 S
C269 H273 0.930 . S
C270 C269 1.369 . S
C270 C279 1.429 1_565 S
C271 C269 1.419 1_455 S
C271 C272 1.363 1_565 S
C271 H274 0.929 . S
C272 C271 1.363 1_545 S
C272 C278 1.428 . S
H273 C269 0.930 . S
H274 C271 0.929 . S
S275 N276 1.613 . S
S275 N277 1.597 1_655 S
N276 S275 1.613 . S
N276 C279 1.350 . S
N277 S275 1.597 1_455 S
N277 C278 1.353 . S
C278 C272 1.428 . S
C278 N277 1.353 . S
C278 C279 1.434 1_455 S
C279 C270 1.429 1_545 S
C279 N276 1.350 . S
C279 C278 1.434 1_655 S
C105 C10 1.309 . S
C107 C75 1.304 . S
C116 C21 1.211 . S
C118 C86 1.196 . S
C127 C36 1.308 . S
C129 C101 1.306 . S
C138 C47 1.198 . S
C140 C60 1.207 . S
C149 C99 1.211 . S
C151 C8 1.196 . S
C160 C62 1.309 . S
C162 C23 1.303 . S
C171 C34 1.211 . S
C173 C73 1.196 . S
C182 C88 1.302 . S
C184 C49 1.308 . S
C193 C5 1.501 . S
C195 C83 1.497 . S
C204 C91 1.516 . S
C206 C13 1.513 . S
C215 C31 1.501 . S
C217 C57 1.496 . S
C226 C39 1.514 . S
C228 C65 1.516 . S
C237 C78 1.514 . S
C239 C0 1.512 . S
C248 C96 1.501 . S
C250 C18 1.496 . S
C259 C26 1.517 . S
C261 C52 1.514 . S
C270 C44 1.502 . S
C272 C70 1.496 . S
