# Generated by pormake.
# Topology wna, (6)-cn, num edge types: 1
# Building blocks:
#     Node 0, Type 0, BuildingBlock: BETFEN_clean_sbu_0, # of connection points: 6
#     Node 1, Type 0, BuildingBlock: BETFEN_clean_sbu_0, # of connection points: 6
#     Node 2, Type 0, BuildingBlock: BETFEN_clean_sbu_0, # of connection points: 6
#     Node 3, Type 0, BuildingBlock: BETFEN_clean_sbu_0, # of connection points: 6
#     Node 4, Type 0, BuildingBlock: BETFEN_clean_sbu_0, # of connection points: 6
#     Node 5, Type 0, BuildingBlock: BETFEN_clean_sbu_0, # of connection points: 6
#     Node 6, Type 0, BuildingBlock: BETFEN_clean_sbu_0, # of connection points: 6
#     Node 7, Type 0, BuildingBlock: BETFEN_clean_sbu_0, # of connection points: 6
#     Node 8, Type 0, BuildingBlock: BETFEN_clean_sbu_0, # of connection points: 6
#     Node 9, Type 0, BuildingBlock: BETFEN_clean_sbu_0, # of connection points: 6
#     Node 10, Type 0, BuildingBlock: BETFEN_clean_sbu_0, # of connection points: 6
#     Node 11, Type 0, BuildingBlock: BETFEN_clean_sbu_0, # of connection points: 6
#     Node 12, Type 0, BuildingBlock: BETFEN_clean_sbu_0, # of connection points: 6
#     Node 13, Type 0, BuildingBlock: BETFEN_clean_sbu_0, # of connection points: 6
#     Node 14, Type 0, BuildingBlock: BETFEN_clean_sbu_0, # of connection points: 6
#     Node 15, Type 0, BuildingBlock: BETFEN_clean_sbu_0, # of connection points: 6
#     Node 16, Type 0, BuildingBlock: BETFEN_clean_sbu_0, # of connection points: 6
#     Node 17, Type 0, BuildingBlock: BETFEN_clean_sbu_0, # of connection points: 6
#     Node 18, Type 0, BuildingBlock: BETFEN_clean_sbu_0, # of connection points: 6
#     Node 19, Type 0, BuildingBlock: BETFEN_clean_sbu_0, # of connection points: 6
#     Node 20, Type 0, BuildingBlock: BETFEN_clean_sbu_0, # of connection points: 6
#     Node 21, Type 0, BuildingBlock: BETFEN_clean_sbu_0, # of connection points: 6
#     Node 22, Type 0, BuildingBlock: BETFEN_clean_sbu_0, # of connection points: 6
#     Node 23, Type 0, BuildingBlock: BETFEN_clean_sbu_0, # of connection points: 6
#     Node 24, Type 0, BuildingBlock: BETFEN_clean_sbu_0, # of connection points: 6
#     Node 25, Type 0, BuildingBlock: BETFEN_clean_sbu_0, # of connection points: 6
#     Node 26, Type 0, BuildingBlock: BETFEN_clean_sbu_0, # of connection points: 6
#     Node 27, Type 0, BuildingBlock: BETFEN_clean_sbu_0, # of connection points: 6
#     Node 28, Type 0, BuildingBlock: BETFEN_clean_sbu_0, # of connection points: 6
#     Node 29, Type 0, BuildingBlock: BETFEN_clean_sbu_0, # of connection points: 6
#     Node 30, Type 0, BuildingBlock: BETFEN_clean_sbu_0, # of connection points: 6
#     Node 31, Type 0, BuildingBlock: BETFEN_clean_sbu_0, # of connection points: 6
#     Node 32, Type 0, BuildingBlock: BETFEN_clean_sbu_0, # of connection points: 6
#     Node 33, Type 0, BuildingBlock: BETFEN_clean_sbu_0, # of connection points: 6
#     Node 34, Type 0, BuildingBlock: BETFEN_clean_sbu_0, # of connection points: 6
#     Node 35, Type 0, BuildingBlock: BETFEN_clean_sbu_0, # of connection points: 6
#     Edge 36, Type (0, 0), BuildingBlock: UVAHIK_clean_linker_0, # of connection points: 2
#     Edge 37, Type (0, 0), BuildingBlock: UVAHIK_clean_linker_0, # of connection points: 2
#     Edge 38, Type (0, 0), BuildingBlock: UVAHIK_clean_linker_0, # of connection points: 2
#     Edge 39, Type (0, 0), BuildingBlock: UVAHIK_clean_linker_0, # of connection points: 2
#     Edge 40, Type (0, 0), BuildingBlock: UVAHIK_clean_linker_0, # of connection points: 2
#     Edge 41, Type (0, 0), BuildingBlock: UVAHIK_clean_linker_0, # of connection points: 2
#     Edge 42, Type (0, 0), BuildingBlock: UVAHIK_clean_linker_0, # of connection points: 2
#     Edge 43, Type (0, 0), BuildingBlock: UVAHIK_clean_linker_0, # of connection points: 2
#     Edge 44, Type (0, 0), BuildingBlock: UVAHIK_clean_linker_0, # of connection points: 2
#     Edge 45, Type (0, 0), BuildingBlock: UVAHIK_clean_linker_0, # of connection points: 2
#     Edge 46, Type (0, 0), BuildingBlock: UVAHIK_clean_linker_0, # of connection points: 2
#     Edge 47, Type (0, 0), BuildingBlock: UVAHIK_clean_linker_0, # of connection points: 2
#     Edge 48, Type (0, 0), BuildingBlock: UVAHIK_clean_linker_0, # of connection points: 2
#     Edge 49, Type (0, 0), BuildingBlock: UVAHIK_clean_linker_0, # of connection points: 2
#     Edge 50, Type (0, 0), BuildingBlock: UVAHIK_clean_linker_0, # of connection points: 2
#     Edge 51, Type (0, 0), BuildingBlock: UVAHIK_clean_linker_0, # of connection points: 2
#     Edge 52, Type (0, 0), BuildingBlock: UVAHIK_clean_linker_0, # of connection points: 2
#     Edge 53, Type (0, 0), BuildingBlock: UVAHIK_clean_linker_0, # of connection points: 2
#     Edge 54, Type (0, 0), BuildingBlock: UVAHIK_clean_linker_0, # of connection points: 2
#     Edge 55, Type (0, 0), BuildingBlock: UVAHIK_clean_linker_0, # of connection points: 2
#     Edge 56, Type (0, 0), BuildingBlock: UVAHIK_clean_linker_0, # of connection points: 2
#     Edge 57, Type (0, 0), BuildingBlock: UVAHIK_clean_linker_0, # of connection points: 2
#     Edge 58, Type (0, 0), BuildingBlock: UVAHIK_clean_linker_0, # of connection points: 2
#     Edge 59, Type (0, 0), BuildingBlock: UVAHIK_clean_linker_0, # of connection points: 2
#     Edge 60, Type (0, 0), BuildingBlock: UVAHIK_clean_linker_0, # of connection points: 2
#     Edge 61, Type (0, 0), BuildingBlock: UVAHIK_clean_linker_0, # of connection points: 2
#     Edge 62, Type (0, 0), BuildingBlock: UVAHIK_clean_linker_0, # of connection points: 2
#     Edge 63, Type (0, 0), BuildingBlock: UVAHIK_clean_linker_0, # of connection points: 2
#     Edge 64, Type (0, 0), BuildingBlock: UVAHIK_clean_linker_0, # of connection points: 2
#     Edge 65, Type (0, 0), BuildingBlock: UVAHIK_clean_linker_0, # of connection points: 2
#     Edge 66, Type (0, 0), BuildingBlock: UVAHIK_clean_linker_0, # of connection points: 2
#     Edge 67, Type (0, 0), BuildingBlock: UVAHIK_clean_linker_0, # of connection points: 2
#     Edge 68, Type (0, 0), BuildingBlock: UVAHIK_clean_linker_0, # of connection points: 2
#     Edge 69, Type (0, 0), BuildingBlock: UVAHIK_clean_linker_0, # of connection points: 2
#     Edge 70, Type (0, 0), BuildingBlock: UVAHIK_clean_linker_0, # of connection points: 2
#     Edge 71, Type (0, 0), BuildingBlock: UVAHIK_clean_linker_0, # of connection points: 2
#     Edge 72, Type (0, 0), BuildingBlock: UVAHIK_clean_linker_0, # of connection points: 2
#     Edge 73, Type (0, 0), BuildingBlock: UVAHIK_clean_linker_0, # of connection points: 2
#     Edge 74, Type (0, 0), BuildingBlock: UVAHIK_clean_linker_0, # of connection points: 2
#     Edge 75, Type (0, 0), BuildingBlock: UVAHIK_clean_linker_0, # of connection points: 2
#     Edge 76, Type (0, 0), BuildingBlock: UVAHIK_clean_linker_0, # of connection points: 2
#     Edge 77, Type (0, 0), BuildingBlock: UVAHIK_clean_linker_0, # of connection points: 2
#     Edge 78, Type (0, 0), BuildingBlock: UVAHIK_clean_linker_0, # of connection points: 2
#     Edge 79, Type (0, 0), BuildingBlock: UVAHIK_clean_linker_0, # of connection points: 2
#     Edge 80, Type (0, 0), BuildingBlock: UVAHIK_clean_linker_0, # of connection points: 2
#     Edge 81, Type (0, 0), BuildingBlock: UVAHIK_clean_linker_0, # of connection points: 2
#     Edge 82, Type (0, 0), BuildingBlock: UVAHIK_clean_linker_0, # of connection points: 2
#     Edge 83, Type (0, 0), BuildingBlock: UVAHIK_clean_linker_0, # of connection points: 2
#     Edge 84, Type (0, 0), BuildingBlock: UVAHIK_clean_linker_0, # of connection points: 2
#     Edge 85, Type (0, 0), BuildingBlock: UVAHIK_clean_linker_0, # of connection points: 2
#     Edge 86, Type (0, 0), BuildingBlock: UVAHIK_clean_linker_0, # of connection points: 2
#     Edge 87, Type (0, 0), BuildingBlock: UVAHIK_clean_linker_0, # of connection points: 2
#     Edge 88, Type (0, 0), BuildingBlock: UVAHIK_clean_linker_0, # of connection points: 2
#     Edge 89, Type (0, 0), BuildingBlock: UVAHIK_clean_linker_0, # of connection points: 2
#     Edge 90, Type (0, 0), BuildingBlock: UVAHIK_clean_linker_0, # of connection points: 2
#     Edge 91, Type (0, 0), BuildingBlock: UVAHIK_clean_linker_0, # of connection points: 2
#     Edge 92, Type (0, 0), BuildingBlock: UVAHIK_clean_linker_0, # of connection points: 2
#     Edge 93, Type (0, 0), BuildingBlock: UVAHIK_clean_linker_0, # of connection points: 2
#     Edge 94, Type (0, 0), BuildingBlock: UVAHIK_clean_linker_0, # of connection points: 2
#     Edge 95, Type (0, 0), BuildingBlock: UVAHIK_clean_linker_0, # of connection points: 2
#     Edge 96, Type (0, 0), BuildingBlock: UVAHIK_clean_linker_0, # of connection points: 2
#     Edge 97, Type (0, 0), BuildingBlock: UVAHIK_clean_linker_0, # of connection points: 2
#     Edge 98, Type (0, 0), BuildingBlock: UVAHIK_clean_linker_0, # of connection points: 2
#     Edge 99, Type (0, 0), BuildingBlock: UVAHIK_clean_linker_0, # of connection points: 2
#     Edge 100, Type (0, 0), BuildingBlock: UVAHIK_clean_linker_0, # of connection points: 2
#     Edge 101, Type (0, 0), BuildingBlock: UVAHIK_clean_linker_0, # of connection points: 2
#     Edge 102, Type (0, 0), BuildingBlock: UVAHIK_clean_linker_0, # of connection points: 2
#     Edge 103, Type (0, 0), BuildingBlock: UVAHIK_clean_linker_0, # of connection points: 2
#     Edge 104, Type (0, 0), BuildingBlock: UVAHIK_clean_linker_0, # of connection points: 2
#     Edge 105, Type (0, 0), BuildingBlock: UVAHIK_clean_linker_0, # of connection points: 2
#     Edge 106, Type (0, 0), BuildingBlock: UVAHIK_clean_linker_0, # of connection points: 2
#     Edge 107, Type (0, 0), BuildingBlock: UVAHIK_clean_linker_0, # of connection points: 2
#     Edge 108, Type (0, 0), BuildingBlock: UVAHIK_clean_linker_0, # of connection points: 2
#     Edge 109, Type (0, 0), BuildingBlock: UVAHIK_clean_linker_0, # of connection points: 2
#     Edge 110, Type (0, 0), BuildingBlock: UVAHIK_clean_linker_0, # of connection points: 2
#     Edge 111, Type (0, 0), BuildingBlock: UVAHIK_clean_linker_0, # of connection points: 2
#     Edge 112, Type (0, 0), BuildingBlock: UVAHIK_clean_linker_0, # of connection points: 2
#     Edge 113, Type (0, 0), BuildingBlock: UVAHIK_clean_linker_0, # of connection points: 2
#     Edge 114, Type (0, 0), BuildingBlock: UVAHIK_clean_linker_0, # of connection points: 2
#     Edge 115, Type (0, 0), BuildingBlock: UVAHIK_clean_linker_0, # of connection points: 2
#     Edge 116, Type (0, 0), BuildingBlock: UVAHIK_clean_linker_0, # of connection points: 2
#     Edge 117, Type (0, 0), BuildingBlock: UVAHIK_clean_linker_0, # of connection points: 2
#     Edge 118, Type (0, 0), BuildingBlock: UVAHIK_clean_linker_0, # of connection points: 2
#     Edge 119, Type (0, 0), BuildingBlock: UVAHIK_clean_linker_0, # of connection points: 2
#     Edge 120, Type (0, 0), BuildingBlock: UVAHIK_clean_linker_0, # of connection points: 2
#     Edge 121, Type (0, 0), BuildingBlock: UVAHIK_clean_linker_0, # of connection points: 2
#     Edge 122, Type (0, 0), BuildingBlock: UVAHIK_clean_linker_0, # of connection points: 2
#     Edge 123, Type (0, 0), BuildingBlock: UVAHIK_clean_linker_0, # of connection points: 2
#     Edge 124, Type (0, 0), BuildingBlock: UVAHIK_clean_linker_0, # of connection points: 2
#     Edge 125, Type (0, 0), BuildingBlock: UVAHIK_clean_linker_0, # of connection points: 2
#     Edge 126, Type (0, 0), BuildingBlock: UVAHIK_clean_linker_0, # of connection points: 2
#     Edge 127, Type (0, 0), BuildingBlock: UVAHIK_clean_linker_0, # of connection points: 2
#     Edge 128, Type (0, 0), BuildingBlock: UVAHIK_clean_linker_0, # of connection points: 2
#     Edge 129, Type (0, 0), BuildingBlock: UVAHIK_clean_linker_0, # of connection points: 2
#     Edge 130, Type (0, 0), BuildingBlock: UVAHIK_clean_linker_0, # of connection points: 2
#     Edge 131, Type (0, 0), BuildingBlock: UVAHIK_clean_linker_0, # of connection points: 2
#     Edge 132, Type (0, 0), BuildingBlock: UVAHIK_clean_linker_0, # of connection points: 2
#     Edge 133, Type (0, 0), BuildingBlock: UVAHIK_clean_linker_0, # of connection points: 2
#     Edge 134, Type (0, 0), BuildingBlock: UVAHIK_clean_linker_0, # of connection points: 2
#     Edge 135, Type (0, 0), BuildingBlock: UVAHIK_clean_linker_0, # of connection points: 2
#     Edge 136, Type (0, 0), BuildingBlock: UVAHIK_clean_linker_0, # of connection points: 2
#     Edge 137, Type (0, 0), BuildingBlock: UVAHIK_clean_linker_0, # of connection points: 2
#     Edge 138, Type (0, 0), BuildingBlock: UVAHIK_clean_linker_0, # of connection points: 2
#     Edge 139, Type (0, 0), BuildingBlock: UVAHIK_clean_linker_0, # of connection points: 2
#     Edge 140, Type (0, 0), BuildingBlock: UVAHIK_clean_linker_0, # of connection points: 2
#     Edge 141, Type (0, 0), BuildingBlock: UVAHIK_clean_linker_0, # of connection points: 2
#     Edge 142, Type (0, 0), BuildingBlock: UVAHIK_clean_linker_0, # of connection points: 2
#     Edge 143, Type (0, 0), BuildingBlock: UVAHIK_clean_linker_0, # of connection points: 2
# Relax obj value: 0.164
# Max RMSD: 0.222
# Mean RMSD: 0.207
data_MOF--net-wna--node1-BETFEN_clean_sbu_0--edge1-UVAHIK_clean_linker_0
_symmetry_space_group_name_H-M    P1
_symmetry_Int_Tables_number       1
_symmetry_cell_setting            triclinic
loop_
_symmetry_equiv_pos_as_xyz
'x, y, z'
_cell_length_a     53.265444
_cell_length_b     53.283253
_cell_length_c     177.05158
_cell_angle_alpha  89.981224
_cell_angle_beta   90.015621
_cell_angle_gamma 120.02655
loop_
_atom_site_label
_atom_site_type_symbol
_atom_site_fract_x
_atom_site_fract_y
_atom_site_fract_z
_atom_type_partial_charge
Pr0 Pr 0.10349 0.24988 0.16978 0.0
Pr1 Pr 0.10917 0.23856 0.18775 0.0
C2 C 0.10095 0.27227 0.15629 0.0
C3 C 0.11396 0.28267 0.14872 0.0
C4 C 0.11892 0.26505 0.14373 0.0
C5 C 0.12739 0.27378 0.13624 0.0
C6 C 0.13098 0.30027 0.13356 0.0
C7 C 0.12708 0.31831 0.13866 0.0
C8 C 0.11861 0.30957 0.14613 0.0
C9 C 0.1128 0.20386 0.17282 0.0
C10 C 0.16939 0.2832 0.17807 0.0
C11 C 0.11268 0.21821 0.2014 0.0
C12 C 0.09874 0.21317 0.20891 0.0
C13 C 0.0909 0.2326 0.21199 0.0
C14 C 0.07814 0.22767 0.21916 0.0
C15 C 0.07274 0.20308 0.2234 0.0
C16 C 0.08038 0.18354 0.22025 0.0
C17 C 0.09327 0.18858 0.2131 0.0
C18 C 0.08802 0.27741 0.18569 0.0
C19 C 0.04632 0.2002 0.17887 0.0
O20 O 0.11373 0.28848 0.16221 0.0
O21 O 0.08848 0.24444 0.15767 0.0
O22 O 0.1238 0.22726 0.17655 0.0
O23 O 0.09935 0.20536 0.16685 0.0
O24 O 0.15793 0.26853 0.1844 0.0
O25 O 0.15354 0.28085 0.17203 0.0
O26 O 0.09677 0.20124 0.19589 0.0
O27 O 0.12938 0.24527 0.19932 0.0
O28 O 0.0947 0.26484 0.1808 0.0
O29 O 0.09296 0.2703 0.1923 0.0
O30 O 0.05504 0.22022 0.17351 0.0
O31 O 0.06396 0.20036 0.18414 0.0
H32 H 0.1154 0.24411 0.14554 0.0
H33 H 0.12997 0.25921 0.13248 0.0
H34 H 0.13015 0.33908 0.13685 0.0
H35 H 0.11483 0.32351 0.14984 0.0
H36 H 0.09463 0.25162 0.20885 0.0
H37 H 0.0722 0.24295 0.22135 0.0
H38 H 0.07684 0.16456 0.22337 0.0
H39 H 0.09913 0.1733 0.21084 0.0
Pr40 Pr 0.75954 0.85734 0.17006 0.0
Pr41 Pr 0.77029 0.87335 0.18809 0.0
C42 C 0.73773 0.83297 0.15649 0.0
C43 C 0.72772 0.83607 0.14889 0.0
C44 C 0.74719 0.85543 0.1435 0.0
C45 C 0.73826 0.85511 0.13603 0.0
C46 C 0.70967 0.83539 0.13376 0.0
C47 C 0.68998 0.81681 0.13925 0.0
C48 C 0.69893 0.81709 0.1467 0.0
C49 C 0.80425 0.91321 0.17333 0.0
C50 C 0.72482 0.88817 0.17852 0.0
C51 C 0.7904 0.89702 0.20177 0.0
C52 C 0.79619 0.8886 0.20926 0.0
C53 C 0.7776 0.86118 0.21239 0.0
C54 C 0.78323 0.85391 0.21956 0.0
C55 C 0.80766 0.87385 0.22374 0.0
C56 C 0.8264 0.90114 0.22051 0.0
C57 C 0.82068 0.90841 0.21336 0.0
C58 C 0.73242 0.81322 0.18582 0.0
C59 C 0.81023 0.85123 0.17902 0.0
O60 O 0.72129 0.82938 0.16236 0.0
O61 O 0.76551 0.84803 0.15797 0.0
O62 O 0.78082 0.89973 0.177 0.0
O63 O 0.80349 0.89903 0.16726 0.0
O64 O 0.73953 0.89135 0.18484 0.0
O65 O 0.72756 0.87517 0.17243 0.0
O66 O 0.80751 0.8988 0.19621 0.0
O67 O 0.76316 0.8858 0.19975 0.0
O68 O 0.74483 0.83281 0.181 0.0
O69 O 0.73932 0.82492 0.19247 0.0
O70 O 0.78986 0.83925 0.17376 0.0
O71 O 0.80962 0.86848 0.18429 0.0
H72 H 0.76961 0.87021 0.14497 0.0
H73 H 0.75414 0.86954 0.13197 0.0
H74 H 0.66768 0.80167 0.13776 0.0
H75 H 0.68349 0.80179 0.15071 0.0
H76 H 0.7586 0.84542 0.20933 0.0
H77 H 0.76814 0.83282 0.22187 0.0
H78 H 0.8457 0.91689 0.22347 0.0
H79 H 0.83542 0.92961 0.21104 0.0
Pr80 Pr 0.15217 0.90171 0.16985 0.0
Pr81 Pr 0.13495 0.89843 0.18849 0.0
C82 C 0.18124 0.90762 0.1569 0.0
C83 C 0.17852 0.8966 0.14906 0.0
C84 C 0.16217 0.90124 0.14357 0.0
C85 C 0.16231 0.89337 0.13602 0.0
C86 C 0.17882 0.8807 0.13377 0.0
C87 C 0.1945 0.87535 0.13932 0.0
C88 C 0.19442 0.88329 0.14686 0.0
C89 C 0.09325 0.88323 0.17207 0.0
C90 C 0.11974 0.83791 0.17888 0.0
C91 C 0.11073 0.89531 0.20206 0.0
C92 C 0.1192 0.90903 0.20959 0.0
C93 C 0.14749 0.92004 0.21238 0.0
C94 C 0.15499 0.93286 0.21955 0.0
C95 C 0.13439 0.93505 0.22407 0.0
C96 C 0.10617 0.9242 0.22119 0.0
C97 C 0.09869 0.91133 0.21403 0.0
C98 C 0.19436 0.91776 0.18591 0.0
C99 C 0.15615 0.95943 0.17866 0.0
O100 O 0.18047 0.891 0.16248 0.0
O101 O 0.16877 0.92287 0.15851 0.0
O102 O 0.11258 0.88995 0.17702 0.0
O103 O 0.10456 0.88568 0.16539 0.0
O104 O 0.1139 0.84972 0.18474 0.0
O105 O 0.13651 0.8533 0.17315 0.0
O106 O 0.1105 0.9116 0.19653 0.0
O107 O 0.12086 0.87832 0.20006 0.0
O108 O 0.17437 0.91075 0.18122 0.0
O109 O 0.18341 0.91442 0.19264 0.0
O110 O 0.16485 0.94968 0.1729 0.0
O111 O 0.14269 0.94367 0.18469 0.0
H112 H 0.14981 0.91162 0.14504 0.0
H113 H 0.15025 0.89818 0.13191 0.0
H114 H 0.20709 0.86522 0.13784 0.0
H115 H 0.20734 0.87958 0.15095 0.0
H116 H 0.16375 0.91863 0.20902 0.0
H117 H 0.17683 0.94067 0.22159 0.0
H118 H 0.08985 0.92594 0.22442 0.0
H119 H 0.07682 0.90319 0.21196 0.0
Pr120 Pr 0.25132 0.10111 0.35149 0.0
Pr121 Pr 0.23964 0.10683 0.33359 0.0
C122 C 0.27412 0.09866 0.36492 0.0
C123 C 0.28416 0.11202 0.37245 0.0
C124 C 0.26811 0.12108 0.37682 0.0
C125 C 0.27614 0.1302 0.38431 0.0
C126 C 0.3004 0.13048 0.38759 0.0
C127 C 0.31694 0.12234 0.38309 0.0
C128 C 0.30887 0.11319 0.37562 0.0
C129 C 0.20578 0.11123 0.34858 0.0
C130 C 0.28548 0.16685 0.34314 0.0
C131 C 0.2186 0.1103 0.32004 0.0
C132 C 0.21292 0.09596 0.31257 0.0
C133 C 0.23345 0.09066 0.30903 0.0
C134 C 0.22771 0.07729 0.30193 0.0
C135 C 0.20122 0.0687 0.29823 0.0
C136 C 0.18065 0.07385 0.30183 0.0
C137 C 0.18648 0.08738 0.3089 0.0
C138 C 0.27784 0.0849 0.33543 0.0
C139 C 0.20078 0.04423 0.34258 0.0
O140 O 0.29019 0.1118 0.35901 0.0
O141 O 0.24625 0.08573 0.36355 0.0
O142 O 0.22906 0.12193 0.3448 0.0
O143 O 0.20713 0.09761 0.35453 0.0
O144 O 0.2715 0.15545 0.33673 0.0
O145 O 0.28197 0.15114 0.34929 0.0
O146 O 0.20188 0.09476 0.32564 0.0
O147 O 0.24581 0.12691 0.32202 0.0
O148 O 0.26581 0.09182 0.34042 0.0
O149 O 0.27035 0.08981 0.32887 0.0
O150 O 0.22115 0.05275 0.34783 0.0
O151 O 0.20105 0.06194 0.33731 0.0
H152 H 0.24896 0.12045 0.37452 0.0
H153 H 0.26315 0.13674 0.38756 0.0
H154 H 0.33552 0.12192 0.38542 0.0
H155 H 0.32144 0.10607 0.37238 0.0
H156 H 0.25394 0.09678 0.31175 0.0
H157 H 0.24388 0.07333 0.29938 0.0
H158 H 0.16016 0.06781 0.29912 0.0
H159 H 0.17032 0.09124 0.31151 0.0
Pr160 Pr 0.90437 0.14871 0.35099 0.0
Pr161 Pr 0.89973 0.1353 0.33418 0.0
C162 C 0.90598 0.17071 0.36487 0.0
C163 C 0.89199 0.16794 0.3723 0.0
C164 C 0.88346 0.14358 0.37695 0.0
C165 C 0.87435 0.14335 0.38439 0.0
C166 C 0.87356 0.16747 0.38737 0.0
C167 C 0.88106 0.19134 0.38259 0.0
C168 C 0.89022 0.19157 0.37516 0.0
C169 C 0.89208 0.09219 0.34805 0.0
C170 C 0.83914 0.1183 0.34278 0.0
C171 C 0.90122 0.11891 0.3198 0.0
C172 C 0.91798 0.12844 0.31266 0.0
C173 C 0.9259 0.15537 0.30933 0.0
C174 C 0.93972 0.1628 0.30227 0.0
C175 C 0.94596 0.14348 0.29839 0.0
C176 C 0.93865 0.11688 0.30185 0.0
C177 C 0.92479 0.10946 0.30888 0.0
C178 C 0.914 0.19241 0.33759 0.0
C179 C 0.9624 0.1559 0.34283 0.0
O180 O 0.89615 0.17765 0.35891 0.0
O181 O 0.91577 0.15313 0.36336 0.0
O182 O 0.88124 0.10501 0.34446 0.0
O183 O 0.90762 0.10758 0.35371 0.0
O184 O 0.85056 0.11096 0.33719 0.0
O185 O 0.85567 0.13555 0.34826 0.0
O186 O 0.91259 0.11235 0.32547 0.0
O187 O 0.88703 0.13191 0.32187 0.0
O188 O 0.92453 0.17861 0.34076 0.0
O189 O 0.89629 0.17714 0.33225 0.0
O190 O 0.95335 0.16588 0.34838 0.0
O191 O 0.94514 0.14108 0.33719 0.0
H192 H 0.88459 0.125 0.37492 0.0
H193 H 0.86831 0.12441 0.38786 0.0
H194 H 0.88106 0.21043 0.38469 0.0
H195 H 0.89699 0.21076 0.37174 0.0
H196 H 0.92093 0.17048 0.31211 0.0
H197 H 0.94476 0.18334 0.29978 0.0
H198 H 0.94356 0.10167 0.29912 0.0
H199 H 0.91895 0.08859 0.31133 0.0
Pr200 Pr 0.85657 0.75585 0.35148 0.0
Pr201 Pr 0.87358 0.76867 0.33351 0.0
C202 C 0.8315 0.73241 0.36487 0.0
C203 C 0.83468 0.72217 0.37239 0.0
C204 C 0.86048 0.73701 0.37657 0.0
C205 C 0.86165 0.72898 0.38405 0.0
C206 C 0.83704 0.70598 0.38751 0.0
C207 C 0.81159 0.69061 0.38319 0.0
C208 C 0.81046 0.69864 0.37572 0.0
C209 C 0.91207 0.80195 0.34856 0.0
C210 C 0.88889 0.72308 0.34281 0.0
C211 C 0.89777 0.79035 0.31997 0.0
C212 C 0.88925 0.79632 0.31252 0.0
C213 C 0.86227 0.77712 0.30925 0.0
C214 C 0.85493 0.78289 0.3021 0.0
C215 C 0.87433 0.80806 0.29808 0.0
C216 C 0.90115 0.82741 0.30146 0.0
C217 C 0.9085 0.82156 0.30858 0.0
C218 C 0.81365 0.7294 0.3355 0.0
C219 C 0.84866 0.80592 0.34274 0.0
O220 O 0.82882 0.71662 0.35892 0.0
O221 O 0.84632 0.76033 0.36358 0.0
O222 O 0.89943 0.77889 0.3447 0.0
O223 O 0.8973 0.80001 0.3546 0.0
O224 O 0.89216 0.73831 0.33659 0.0
O225 O 0.87546 0.72497 0.34892 0.0
O226 O 0.89882 0.80679 0.32562 0.0
O227 O 0.88715 0.76305 0.32185 0.0
O228 O 0.83289 0.74174 0.34041 0.0
O229 O 0.82567 0.73709 0.3289 0.0
O230 O 0.83756 0.78555 0.34801 0.0
O231 O 0.86616 0.8063 0.3374 0.0
H232 H 0.87951 0.75524 0.37412 0.0
H233 H 0.88175 0.74104 0.38716 0.0
H234 H 0.7921 0.67306 0.38566 0.0
H235 H 0.79026 0.68704 0.37263 0.0
H236 H 0.84693 0.75753 0.31218 0.0
H237 H 0.83424 0.76731 0.29968 0.0
H238 H 0.91645 0.84727 0.29863 0.0
H239 H 0.92934 0.83678 0.31101 0.0
Pr240 Pr 0.89796 0.76657 0.832 0.0
Pr241 Pr 0.90454 0.75767 0.85008 0.0
C242 C 0.89372 0.78571 0.81825 0.0
C243 C 0.90777 0.79077 0.81077 0.0
C244 C 0.91606 0.77157 0.80776 0.0
C245 C 0.92903 0.77659 0.80062 0.0
C246 C 0.93421 0.80102 0.79635 0.0
C247 C 0.92612 0.82032 0.79942 0.0
C248 C 0.91301 0.8152 0.80654 0.0
C249 C 0.9199 0.72859 0.83441 0.0
C250 C 0.96119 0.80657 0.8407 0.0
C251 C 0.9076 0.73675 0.86373 0.0
C252 C 0.89416 0.72553 0.87121 0.0
C253 C 0.88739 0.74198 0.87615 0.0
C254 C 0.87854 0.73264 0.88358 0.0
C255 C 0.87635 0.70671 0.88625 0.0
C256 C 0.88204 0.68979 0.88119 0.0
C257 C 0.89089 0.69913 0.87377 0.0
C258 C 0.89455 0.80286 0.84646 0.0
C259 C 0.83819 0.72293 0.842 0.0
O260 O 0.90933 0.80321 0.82372 0.0
O261 O 0.87764 0.75866 0.82042 0.0
O262 O 0.91319 0.74149 0.8392 0.0
O263 O 0.91459 0.73489 0.82774 0.0
O264 O 0.95277 0.78731 0.84624 0.0
O265 O 0.94335 0.80542 0.83534 0.0
O266 O 0.89654 0.72013 0.85778 0.0
O267 O 0.91809 0.76435 0.86232 0.0
O268 O 0.88358 0.7788 0.84305 0.0
O269 O 0.90862 0.80271 0.85245 0.0
O270 O 0.84933 0.73622 0.8355 0.0
O271 O 0.85436 0.7267 0.84808 0.0
H272 H 0.91253 0.75269 0.81094 0.0
H273 H 0.93533 0.7615 0.79848 0.0
H274 H 0.9295 0.83918 0.79627 0.0
H275 H 0.90681 0.8303 0.80875 0.0
H276 H 0.88981 0.76251 0.87435 0.0
H277 H 0.87455 0.74635 0.88732 0.0
H278 H 0.88009 0.66946 0.88299 0.0
H279 H 0.89607 0.6861 0.8701 0.0
Pr280 Pr 0.24196 0.13237 0.83241 0.0
Pr281 Pr 0.24972 0.14787 0.85051 0.0
C282 C 0.22297 0.1093 0.81863 0.0
C283 C 0.21792 0.11823 0.81112 0.0
C284 C 0.2379 0.14504 0.8079 0.0
C285 C 0.23273 0.15288 0.80075 0.0
C286 C 0.20738 0.1342 0.7967 0.0
C287 C 0.18735 0.1075 0.79999 0.0
C288 C 0.19261 0.09961 0.80711 0.0
C289 C 0.28029 0.19217 0.83496 0.0
C290 C 0.20177 0.15592 0.84086 0.0
C291 C 0.26982 0.17148 0.86424 0.0
C292 C 0.27991 0.16828 0.87182 0.0
C293 C 0.26011 0.1505 0.87738 0.0
C294 C 0.26928 0.15085 0.88482 0.0
C295 C 0.29845 0.16905 0.88689 0.0
C296 C 0.3184 0.186 0.88125 0.0
C297 C 0.30921 0.1857 0.87382 0.0
C298 C 0.20478 0.0926 0.8468 0.0
C299 C 0.28482 0.11613 0.84267 0.0
O300 O 0.20544 0.1074 0.82408 0.0
O301 O 0.25 0.12016 0.82082 0.0
O302 O 0.26639 0.17248 0.83966 0.0
O303 O 0.27507 0.18071 0.82827 0.0
O304 O 0.22125 0.16735 0.84634 0.0
O305 O 0.20286 0.13862 0.83568 0.0
O306 O 0.28685 0.17656 0.8584 0.0
O307 O 0.24222 0.15539 0.86264 0.0
O308 O 0.22903 0.10575 0.84348 0.0
O309 O 0.20454 0.10684 0.85275 0.0
O310 O 0.27164 0.11366 0.83612 0.0
O311 O 0.28096 0.12882 0.84867 0.0
H312 H 0.2575 0.15997 0.8109 0.0
H313 H 0.24843 0.17375 0.79844 0.0
H314 H 0.16778 0.09243 0.79701 0.0
H315 H 0.17691 0.07884 0.80948 0.0
H316 H 0.23729 0.13702 0.87608 0.0
H317 H 0.2532 0.13775 0.88901 0.0
H318 H 0.34111 0.19994 0.8826 0.0
H319 H 0.32496 0.19982 0.86969 0.0
Pr320 Pr 0.87217 0.11056 0.83337 0.0
Pr321 Pr 0.8604 0.10363 0.85025 0.0
C322 C 0.88746 0.11071 0.8188 0.0
C323 C 0.87778 0.09441 0.8116 0.0
C324 C 0.85012 0.08523 0.80857 0.0
C325 C 0.84245 0.07184 0.80146 0.0
C326 C 0.86228 0.06734 0.79723 0.0
C327 C 0.88964 0.07589 0.80041 0.0
C328 C 0.89729 0.0893 0.80749 0.0
C329 C 0.81537 0.09583 0.83735 0.0
C330 C 0.85182 0.04648 0.84131 0.0
C331 C 0.8397 0.10035 0.86438 0.0
C332 C 0.84136 0.11427 0.87175 0.0
C333 C 0.86729 0.12852 0.87591 0.0
C334 C 0.86729 0.13782 0.88332 0.0
C335 C 0.84137 0.13305 0.88674 0.0
C336 C 0.8157 0.11973 0.88244 0.0
C337 C 0.81572 0.11045 0.87504 0.0
C338 C 0.91582 0.11456 0.84655 0.0
C339 C 0.89102 0.17025 0.84273 0.0
O340 O 0.89519 0.09949 0.82427 0.0
O341 O 0.87377 0.12386 0.82117 0.0
O342 O 0.82951 0.08502 0.84018 0.0
O343 O 0.83012 0.11417 0.83207 0.0
O344 O 0.84299 0.055 0.84723 0.0
O345 O 0.86566 0.06428 0.83568 0.0
O346 O 0.82951 0.10731 0.8585 0.0
O347 O 0.86009 0.09442 0.8627 0.0
O348 O 0.90358 0.12715 0.84351 0.0
O349 O 0.9002 0.0973 0.85195 0.0
O350 O 0.89666 0.15946 0.83668 0.0
O351 O 0.87501 0.15315 0.8483 0.0
H352 H 0.83459 0.08887 0.81161 0.0
H353 H 0.82129 0.06577 0.79919 0.0
H354 H 0.90528 0.07232 0.7974 0.0
H355 H 0.91872 0.09613 0.80971 0.0
H356 H 0.88742 0.13178 0.87351 0.0
H357 H 0.88755 0.14839 0.88641 0.0
H358 H 0.79526 0.11533 0.88488 0.0
H359 H 0.79539 0.09925 0.87199 0.0
Pr360 Pr 0.76602 0.89834 0.68598 0.0
Pr361 Pr 0.75782 0.90302 0.66928 0.0
C362 C 0.78276 0.89992 0.70049 0.0
C363 C 0.78872 0.9164 0.70764 0.0
C364 C 0.7682 0.92229 0.71094 0.0
C365 C 0.77361 0.93607 0.71798 0.0
C366 C 0.79968 0.94436 0.72187 0.0
C367 C 0.82036 0.93891 0.71847 0.0
C368 C 0.8149 0.92505 0.71145 0.0
C369 C 0.72324 0.91257 0.68241 0.0
C370 C 0.80801 0.96114 0.67747 0.0
C371 C 0.73779 0.90432 0.65533 0.0
C372 C 0.72732 0.89022 0.64785 0.0
C373 C 0.74703 0.89253 0.64222 0.0
C374 C 0.73762 0.88332 0.63482 0.0
C375 C 0.70827 0.87163 0.63284 0.0
C376 C 0.68841 0.86829 0.63854 0.0
C377 C 0.69784 0.87757 0.64594 0.0
C378 C 0.80277 0.89193 0.67222 0.0
C379 C 0.72367 0.83765 0.67739 0.0
O380 O 0.80115 0.912 0.69493 0.0
O381 O 0.75582 0.88497 0.69822 0.0
O382 O 0.74782 0.92332 0.6794 0.0
O383 O 0.72002 0.89394 0.68757 0.0
O384 O 0.78882 0.95206 0.67195 0.0
O385 O 0.8058 0.94378 0.68305 0.0
O386 O 0.7208 0.89391 0.66123 0.0
O387 O 0.76524 0.91513 0.65695 0.0
O388 O 0.77901 0.88034 0.67579 0.0
O389 O 0.80261 0.90754 0.66662 0.0
O390 O 0.74236 0.84932 0.68298 0.0
O391 O 0.72265 0.85404 0.67191 0.0
H392 H 0.74782 0.91597 0.70813 0.0
H393 H 0.75736 0.94025 0.72038 0.0
H394 H 0.84051 0.94463 0.72133 0.0
H395 H 0.83098 0.92057 0.70906 0.0
H396 H 0.76997 0.90249 0.64344 0.0
H397 H 0.75366 0.88662 0.63059 0.0
H398 H 0.66557 0.85897 0.63727 0.0
H399 H 0.68214 0.87573 0.65012 0.0
Pr400 Pr 0.10825 0.86894 0.68587 0.0
Pr401 Pr 0.10458 0.85528 0.66905 0.0
C402 C 0.10624 0.88588 0.70014 0.0
C403 C 0.08963 0.87632 0.70729 0.0
C404 C 0.08187 0.84942 0.7106 0.0
C405 C 0.06812 0.84195 0.71766 0.0
C406 C 0.06181 0.86119 0.72156 0.0
C407 C 0.06896 0.88776 0.71811 0.0
C408 C 0.08275 0.89523 0.71107 0.0
C409 C 0.09437 0.81182 0.6826 0.0
C410 C 0.04587 0.84743 0.67701 0.0
C411 C 0.10346 0.83279 0.65528 0.0
C412 C 0.11755 0.83533 0.64789 0.0
C413 C 0.12896 0.8608 0.64355 0.0
C414 C 0.13808 0.86117 0.6361 0.0
C415 C 0.13597 0.83608 0.63283 0.0
C416 C 0.12564 0.811 0.63732 0.0
C417 C 0.11651 0.81066 0.64475 0.0
C418 C 0.11551 0.91135 0.67186 0.0
C419 C 0.16948 0.88679 0.67745 0.0
O420 O 0.09426 0.89143 0.69441 0.0
O421 O 0.12119 0.87356 0.69817 0.0
O422 O 0.08417 0.82564 0.67927 0.0
O423 O 0.11146 0.82704 0.68805 0.0
O424 O 0.05539 0.83759 0.67152 0.0
O425 O 0.06279 0.86252 0.68267 0.0
O426 O 0.11332 0.82624 0.6613 0.0
O427 O 0.09356 0.85038 0.65665 0.0
O428 O 0.12671 0.89909 0.67554 0.0
O429 O 0.10057 0.89575 0.66615 0.0
O430 O 0.15749 0.89369 0.68299 0.0
O431 O 0.15348 0.86951 0.67191 0.0
H432 H 0.0869 0.83438 0.70781 0.0
H433 H 0.0632 0.82143 0.72016 0.0
H434 H 0.06398 0.9029 0.72085 0.0
H435 H 0.08847 0.91606 0.70862 0.0
H436 H 0.13003 0.88018 0.64583 0.0
H437 H 0.14636 0.88099 0.63287 0.0
H438 H 0.12336 0.79118 0.63499 0.0
H439 H 0.10752 0.79067 0.64796 0.0
Pr440 Pr 0.13775 0.24043 0.68639 0.0
Pr441 Pr 0.15187 0.24958 0.66959 0.0
C442 C 0.12068 0.2219 0.70069 0.0
C443 C 0.13012 0.2146 0.70782 0.0
C444 C 0.15761 0.23292 0.71097 0.0
C445 C 0.16511 0.22646 0.71801 0.0
C446 C 0.14529 0.20155 0.72205 0.0
C447 C 0.11808 0.18294 0.71876 0.0
C448 C 0.1106 0.18945 0.71175 0.0
C449 C 0.19489 0.28369 0.68314 0.0
C450 C 0.15941 0.19908 0.67779 0.0
C451 C 0.17404 0.27027 0.65574 0.0
C452 C 0.17034 0.28056 0.64823 0.0
C453 C 0.15335 0.26071 0.64258 0.0
C454 C 0.15344 0.27004 0.63519 0.0
C455 C 0.17057 0.29947 0.63322 0.0
C456 C 0.18671 0.31946 0.63894 0.0
C457 C 0.18668 0.31009 0.64635 0.0
C458 C 0.09571 0.20464 0.67238 0.0
C459 C 0.12024 0.28354 0.67766 0.0
O460 O 0.1146 0.20421 0.69498 0.0
O461 O 0.13357 0.24917 0.69868 0.0
O462 O 0.18129 0.25949 0.67989 0.0
O463 O 0.17945 0.28575 0.68849 0.0
O464 O 0.16962 0.21836 0.67229 0.0
O465 O 0.14419 0.20116 0.68338 0.0
O466 O 0.17981 0.28706 0.66166 0.0
O467 O 0.15791 0.24271 0.65731 0.0
O468 O 0.10786 0.22827 0.67599 0.0
O469 O 0.11149 0.205 0.66676 0.0
O470 O 0.11347 0.26537 0.68337 0.0
O471 O 0.13727 0.28407 0.67214 0.0
H472 H 0.17314 0.25248 0.70806 0.0
H473 H 0.18616 0.24142 0.72037 0.0
H474 H 0.10245 0.1633 0.72162 0.0
H475 H 0.0893 0.17496 0.70944 0.0
H476 H 0.14076 0.23772 0.64379 0.0
H477 H 0.14103 0.25391 0.63094 0.0
H478 H 0.19982 0.34234 0.63768 0.0
H479 H 0.20022 0.32591 0.65054 0.0
Pr480 Pr 0.77128 0.58368 0.50353 0.0
Pr481 Pr 0.77624 0.57591 0.52032 0.0
C482 C 0.76926 0.60338 0.48959 0.0
C483 C 0.78315 0.6151 0.48217 0.0
C484 C 0.79035 0.59898 0.47723 0.0
C485 C 0.79915 0.60841 0.4698 0.0
C486 C 0.80083 0.63411 0.46713 0.0
C487 C 0.79478 0.65077 0.47219 0.0
C488 C 0.78598 0.64132 0.47961 0.0
C489 C 0.78335 0.53944 0.50665 0.0
C490 C 0.83677 0.61886 0.51157 0.0
C491 C 0.77517 0.55901 0.53478 0.0
C492 C 0.75886 0.55291 0.54197 0.0
C493 C 0.75251 0.57313 0.54525 0.0
C494 C 0.73889 0.56764 0.55232 0.0
C495 C 0.73119 0.54177 0.55624 0.0
C496 C 0.73708 0.52138 0.55285 0.0
C497 C 0.75081 0.52693 0.54581 0.0
C498 C 0.76148 0.61832 0.51673 0.0
C499 C 0.71351 0.53297 0.5118 0.0
O500 O 0.77822 0.62023 0.49554 0.0
O501 O 0.76055 0.57622 0.49112 0.0
O502 O 0.79447 0.56333 0.51013 0.0
O503 O 0.7676 0.53901 0.501 0.0
O504 O 0.82541 0.6005 0.51725 0.0
O505 O 0.82012 0.61928 0.50608 0.0
O506 O 0.76296 0.54069 0.52922 0.0
O507 O 0.78998 0.58598 0.53254 0.0
O508 O 0.75107 0.59381 0.51366 0.0
O509 O 0.77938 0.6212 0.52206 0.0
O510 O 0.72239 0.55181 0.50619 0.0
O511 O 0.73091 0.53579 0.51743 0.0
H512 H 0.78822 0.57855 0.47901 0.0
H513 H 0.80341 0.5949 0.46606 0.0
H514 H 0.79633 0.67092 0.47039 0.0
H515 H 0.78041 0.65409 0.48327 0.0
H516 H 0.75836 0.59334 0.54241 0.0
H517 H 0.73434 0.58365 0.55471 0.0
H518 H 0.7318 0.5014 0.55574 0.0
H519 H 0.75563 0.5111 0.54342 0.0
Pr520 Pr 0.42484 0.18884 0.50333 0.0
Pr521 Pr 0.43282 0.20153 0.52017 0.0
C522 C 0.40469 0.16698 0.48943 0.0
C523 C 0.3931 0.16956 0.48204 0.0
C524 C 0.40792 0.19453 0.47753 0.0
C525 C 0.39885 0.19479 0.47011 0.0
C526 C 0.37477 0.17011 0.46702 0.0
C527 C 0.35938 0.14557 0.47166 0.0
C528 C 0.36849 0.14532 0.47907 0.0
C529 C 0.46963 0.24488 0.50639 0.0
C530 C 0.39036 0.21972 0.51143 0.0
C531 C 0.44967 0.21723 0.53464 0.0
C532 C 0.45609 0.20728 0.54182 0.0
C533 C 0.43742 0.17956 0.54479 0.0
C534 C 0.44304 0.17155 0.55187 0.0
C535 C 0.46749 0.19103 0.55611 0.0
C536 C 0.48638 0.21854 0.55303 0.0
C537 C 0.4807 0.22655 0.54598 0.0
C538 C 0.3901 0.14458 0.51649 0.0
C539 C 0.47512 0.18102 0.51164 0.0
O540 O 0.38792 0.15943 0.4954 0.0
O541 O 0.43196 0.18513 0.49093 0.0
O542 O 0.44584 0.23245 0.50995 0.0
O543 O 0.46953 0.22942 0.50072 0.0
O544 O 0.40865 0.22643 0.51711 0.0
O545 O 0.38975 0.20271 0.5059 0.0
O546 O 0.46803 0.22372 0.52907 0.0
O547 O 0.42265 0.20456 0.53242 0.0
O548 O 0.41468 0.15863 0.51347 0.0
O549 O 0.38721 0.15954 0.52184 0.0
O550 O 0.45659 0.17163 0.50596 0.0
O551 O 0.47234 0.19541 0.51732 0.0
H552 H 0.427 0.21358 0.47966 0.0
H553 H 0.41096 0.21422 0.46675 0.0
H554 H 0.34097 0.12606 0.46948 0.0
H555 H 0.35688 0.12569 0.48239 0.0
H556 H 0.41831 0.16419 0.54169 0.0
H557 H 0.42823 0.15007 0.55401 0.0
H558 H 0.5052 0.23425 0.55615 0.0
H559 H 0.49532 0.2481 0.54383 0.0
Pr560 Pr 0.81829 0.2375 0.50314 0.0
Pr561 Pr 0.80544 0.23244 0.52004 0.0
C562 C 0.84008 0.2394 0.48922 0.0
C563 C 0.83743 0.22534 0.48181 0.0
C564 C 0.81208 0.21445 0.47742 0.0
C565 C 0.81162 0.20521 0.46998 0.0
C566 C 0.83649 0.20665 0.46675 0.0
C567 C 0.86144 0.21653 0.47127 0.0
C568 C 0.86188 0.2258 0.4787 0.0
C569 C 0.76209 0.2256 0.50632 0.0
C570 C 0.78747 0.17191 0.51121 0.0
C571 C 0.7894 0.23353 0.53448 0.0
C572 C 0.79876 0.25026 0.54162 0.0
C573 C 0.82522 0.25741 0.54513 0.0
C574 C 0.83237 0.27114 0.5522 0.0
C575 C 0.81323 0.27803 0.55593 0.0
C576 C 0.78713 0.27149 0.55229 0.0
C577 C 0.77998 0.25772 0.54525 0.0
C578 C 0.86232 0.24656 0.5164 0.0
C579 C 0.82602 0.29548 0.51152 0.0
O580 O 0.84764 0.23009 0.49516 0.0
O581 O 0.82193 0.24848 0.49075 0.0
O582 O 0.77492 0.21452 0.50979 0.0
O583 O 0.77724 0.24113 0.50062 0.0
O584 O 0.78078 0.18332 0.51693 0.0
O585 O 0.80443 0.18848 0.50568 0.0
O586 O 0.78221 0.24455 0.52884 0.0
O587 O 0.80288 0.21988 0.53233 0.0
O588 O 0.84842 0.25721 0.51334 0.0
O589 O 0.84727 0.22878 0.52175 0.0
O590 O 0.83526 0.28641 0.5058 0.0
O591 O 0.81183 0.27826 0.51723 0.0
H592 H 0.79285 0.21383 0.47966 0.0
H593 H 0.79188 0.1973 0.46672 0.0
H594 H 0.8811 0.2183 0.46897 0.0
H595 H 0.88179 0.23439 0.48192 0.0
H596 H 0.84017 0.25191 0.54248 0.0
H597 H 0.85254 0.27559 0.55483 0.0
H598 H 0.77207 0.27692 0.5549 0.0
H599 H 0.75946 0.25246 0.54268 0.0
Pr600 Pr 0.91862 0.4348 0.68462 0.0
Pr601 Pr 0.9066 0.43987 0.66668 0.0
C602 C 0.94149 0.43305 0.6981 0.0
C603 C 0.95108 0.44624 0.7057 0.0
C604 C 0.93103 0.44433 0.71117 0.0
C605 C 0.93982 0.45314 0.71863 0.0
C606 C 0.96887 0.46403 0.72082 0.0
C607 C 0.98908 0.46696 0.71526 0.0
C608 C 0.98026 0.45808 0.70781 0.0
C609 C 0.87249 0.44407 0.68167 0.0
C610 C 0.95167 0.50038 0.67618 0.0
C611 C 0.88571 0.44307 0.65308 0.0
C612 C 0.88062 0.42913 0.64558 0.0
C613 C 0.89965 0.42062 0.64258 0.0
C614 C 0.89473 0.40792 0.6354 0.0
C615 C 0.87055 0.40327 0.63108 0.0
C616 C 0.85141 0.41157 0.63416 0.0
C617 C 0.85643 0.42439 0.64132 0.0
C618 C 0.94579 0.41911 0.66864 0.0
C619 C 0.86882 0.37727 0.6757 0.0
O620 O 0.95751 0.44663 0.69222 0.0
O621 O 0.91366 0.41907 0.69665 0.0
O622 O 0.89572 0.45486 0.67788 0.0
O623 O 0.87425 0.43094 0.68767 0.0
O624 O 0.93668 0.48873 0.66991 0.0
O625 O 0.94957 0.48472 0.68224 0.0
O626 O 0.86898 0.42707 0.65862 0.0
O627 O 0.91281 0.45995 0.65511 0.0
O628 O 0.93337 0.42579 0.67358 0.0
O629 O 0.93831 0.42381 0.66205 0.0
O630 O 0.88912 0.38625 0.68099 0.0
O631 O 0.86863 0.39468 0.67041 0.0
H632 H 0.9083 0.43511 0.70977 0.0
H633 H 0.92355 0.45024 0.72275 0.0
H634 H 0.01172 0.4757 0.71669 0.0
H635 H 0.99618 0.45966 0.70374 0.0
H636 H 0.91836 0.4238 0.64578 0.0
H637 H 0.9097 0.40146 0.63326 0.0
H638 H 0.83276 0.40862 0.63097 0.0
H639 H 0.84148 0.43078 0.64352 0.0
Pr640 Pr 0.57125 0.48249 0.68457 0.0
Pr641 Pr 0.5661 0.46905 0.6677 0.0
C642 C 0.57343 0.50478 0.69844 0.0
C643 C 0.55929 0.50235 0.70583 0.0
C644 C 0.54898 0.4774 0.71035 0.0
C645 C 0.53959 0.47723 0.71776 0.0
C646 C 0.54031 0.50198 0.72082 0.0
C647 C 0.54964 0.52651 0.71617 0.0
C648 C 0.55906 0.52668 0.70877 0.0
C649 C 0.55869 0.42602 0.68154 0.0
C650 C 0.50581 0.45229 0.67648 0.0
C651 C 0.56676 0.45235 0.65332 0.0
C652 C 0.5829 0.4621 0.64611 0.0
C653 C 0.59181 0.48972 0.6431 0.0
C654 C 0.60508 0.49752 0.63598 0.0
C655 C 0.60974 0.47787 0.63172 0.0
C656 C 0.60145 0.45054 0.63487 0.0
C657 C 0.58815 0.44276 0.64197 0.0
C658 C 0.58101 0.52627 0.67118 0.0
C659 C 0.62879 0.48885 0.67628 0.0
O660 O 0.56422 0.51229 0.69246 0.0
O661 O 0.58236 0.48648 0.69696 0.0
O662 O 0.54788 0.43897 0.67801 0.0
O663 O 0.57421 0.44115 0.68723 0.0
O664 O 0.51705 0.44496 0.67084 0.0
O665 O 0.52249 0.46942 0.68196 0.0
O666 O 0.57904 0.44647 0.65891 0.0
O667 O 0.55221 0.46485 0.65549 0.0
O668 O 0.59129 0.51217 0.67431 0.0
O669 O 0.56334 0.5113 0.6658 0.0
O670 O 0.62005 0.49893 0.68189 0.0
O671 O 0.61137 0.4743 0.67064 0.0
H672 H 0.54889 0.45828 0.70824 0.0
H673 H 0.53213 0.45781 0.72113 0.0
H674 H 0.55084 0.54608 0.71833 0.0
H675 H 0.56721 0.54629 0.70544 0.0
H676 H 0.58806 0.50511 0.64618 0.0
H677 H 0.61092 0.51864 0.63373 0.0
H678 H 0.60516 0.43504 0.63184 0.0
H679 H 0.58153 0.42137 0.64418 0.0
Pr680 Pr 0.52584 0.09105 0.68478 0.0
Pr681 Pr 0.53822 0.0974 0.66788 0.0
C682 C 0.50413 0.07212 0.69876 0.0
C683 C 0.50631 0.06028 0.70614 0.0
C684 C 0.53236 0.07262 0.71026 0.0
C685 C 0.53278 0.06357 0.71767 0.0
C686 C 0.50718 0.04202 0.72113 0.0
C687 C 0.48141 0.02903 0.71687 0.0
C688 C 0.48101 0.03808 0.70947 0.0
C689 C 0.58214 0.13479 0.68143 0.0
C690 C 0.55503 0.05441 0.67695 0.0
C691 C 0.55398 0.11365 0.65338 0.0
C692 C 0.54418 0.12036 0.6462 0.0
C693 C 0.51796 0.10029 0.64272 0.0
C694 C 0.51042 0.10619 0.63562 0.0
C695 C 0.52892 0.1323 0.63183 0.0
C696 C 0.55476 0.15264 0.63544 0.0
C697 C 0.5623 0.14669 0.64252 0.0
C698 C 0.48121 0.05537 0.67165 0.0
C699 C 0.51815 0.14072 0.67616 0.0
O700 O 0.49561 0.05512 0.69283 0.0
O701 O 0.52328 0.09905 0.69719 0.0
O702 O 0.56913 0.11059 0.67808 0.0
O703 O 0.56702 0.13585 0.68704 0.0
O704 O 0.56115 0.07124 0.67097 0.0
O705 O 0.53956 0.05577 0.68261 0.0
O706 O 0.56127 0.13222 0.65893 0.0
O707 O 0.54074 0.08668 0.65565 0.0
O708 O 0.49543 0.08007 0.67461 0.0
O709 O 0.49594 0.05219 0.66629 0.0
O710 O 0.50893 0.12277 0.68195 0.0
O711 O 0.5322 0.13725 0.67049 0.0
H712 H 0.55223 0.08979 0.70782 0.0
H713 H 0.55312 0.07376 0.72073 0.0
H714 H 0.46119 0.01267 0.71935 0.0
H715 H 0.4606 0.02843 0.70644 0.0
H716 H 0.5035 0.07975 0.64541 0.0
H717 H 0.49049 0.08989 0.63301 0.0
H718 H 0.5693 0.17319 0.63277 0.0
H719 H 0.58263 0.16253 0.64507 0.0
Pr720 Pr 0.56434 0.09622 0.16675 0.0
Pr721 Pr 0.56966 0.0902 0.18369 0.0
C722 C 0.56518 0.11209 0.1522 0.0
C723 C 0.58158 0.11811 0.14502 0.0
C724 C 0.58736 0.09758 0.14169 0.0
C725 C 0.60096 0.10297 0.13462 0.0
C726 C 0.60919 0.12904 0.13074 0.0
C727 C 0.60389 0.14976 0.13418 0.0
C728 C 0.59019 0.1443 0.14122 0.0
C729 C 0.57946 0.05442 0.17072 0.0
C730 C 0.62742 0.1399 0.1751 0.0
C731 C 0.57195 0.07159 0.19775 0.0
C732 C 0.55797 0.05968 0.20515 0.0
C733 C 0.55141 0.076 0.21019 0.0
C734 C 0.54253 0.06633 0.2176 0.0
C735 C 0.54013 0.04018 0.22016 0.0
C736 C 0.54556 0.02336 0.215 0.0
C737 C 0.55445 0.03304 0.2076 0.0
C738 C 0.55808 0.13434 0.18012 0.0
C739 C 0.50384 0.05427 0.17573 0.0
O740 O 0.57702 0.13082 0.15769 0.0
O741 O 0.55081 0.08523 0.15454 0.0
O742 O 0.58955 0.07908 0.17369 0.0
O743 O 0.56179 0.05108 0.16528 0.0
O744 O 0.6185 0.12212 0.18094 0.0
O745 O 0.61007 0.13623 0.16938 0.0
O746 O 0.56389 0.05453 0.19183 0.0
O747 O 0.57966 0.09845 0.19613 0.0
O748 O 0.54657 0.11001 0.17681 0.0
O749 O 0.57392 0.13526 0.1858 0.0
O750 O 0.51515 0.07126 0.1698 0.0
O751 O 0.52045 0.05506 0.1814 0.0
H752 H 0.58106 0.07719 0.14448 0.0
H753 H 0.60505 0.08671 0.13219 0.0
H754 H 0.60959 0.16991 0.13133 0.0
H755 H 0.58579 0.16039 0.14365 0.0
H756 H 0.5541 0.09675 0.20851 0.0
H757 H 0.53879 0.08 0.22142 0.0
H758 H 0.54345 1.00288 0.21671 0.0
H759 H 0.55954 0.0201 0.20387 0.0
Pr760 Pr 0.91079 0.46997 0.16639 0.0
Pr761 Pr 0.91646 0.48149 0.18338 0.0
C762 C 0.89516 0.45478 0.15183 0.0
C763 C 0.88859 0.46469 0.14467 0.0
C764 C 0.90714 0.49245 0.1417 0.0
C765 C 0.90141 0.50043 0.13464 0.0
C766 C 0.87695 0.48089 0.13041 0.0
C767 C 0.85818 0.45335 0.13348 0.0
C768 C 0.86398 0.44536 0.14052 0.0
C769 C 0.9525 0.52684 0.17044 0.0
C770 C 0.86721 0.48975 0.17465 0.0
C771 C 0.93493 0.5025 0.19742 0.0
C772 C 0.94637 0.49977 0.20482 0.0
C773 C 0.93115 0.47495 0.20936 0.0
C774 C 0.94018 0.47458 0.21678 0.0
C775 C 0.96462 0.49899 0.21983 0.0
C776 C 0.9804 0.52336 0.21516 0.0
C777 C 0.97132 0.52374 0.20776 0.0
C778 C 0.87242 0.42574 0.17979 0.0
C779 C 0.95251 0.45155 0.17555 0.0
O780 O 0.87635 0.44729 0.15734 0.0
O781 O 0.92206 0.46815 0.15417 0.0
O782 O 0.92771 0.51222 0.17332 0.0
O783 O 0.95609 0.5126 0.16502 0.0
O784 O 0.885 0.49872 0.18048 0.0
O785 O 0.87083 0.4759 0.16895 0.0
O786 O 0.95219 0.51113 0.19154 0.0
O787 O 0.90797 0.48376 0.19576 0.0
O788 O 0.89681 0.43858 0.17651 0.0
O789 O 0.8714 0.44064 0.18546 0.0
O790 O 0.93571 0.44581 0.16957 0.0
O791 O 0.95161 0.46746 0.18117 0.0
H792 H 0.92625 0.50787 0.14479 0.0
H793 H 0.91612 0.52194 0.13249 0.0
H794 H 0.83936 0.4376 0.13036 0.0
H795 H 0.84946 0.42378 0.14266 0.0
H796 H 0.9118 0.45609 0.20726 0.0
H797 H 0.92777 0.45528 0.22016 0.0
H798 H 0.9991 0.54268 0.21733 0.0
H799 H 0.98325 0.54327 0.20442 0.0
Pr800 Pr 0.53781 0.44312 0.16681 0.0
Pr801 Pr 0.52623 0.43768 0.18377 0.0
C802 C 0.55265 0.44212 0.15225 0.0
C803 C 0.54245 0.42511 0.14513 0.0
C804 C 0.52824 0.4324 0.13959 0.0
C805 C 0.52062 0.41805 0.13263 0.0
C806 C 0.52721 0.39615 0.13098 0.0
C807 C 0.5411 0.3886 0.13656 0.0
C808 C 0.54867 0.40292 0.14354 0.0
C809 C 0.481 0.42842 0.17076 0.0
C810 C 0.51815 0.37995 0.17516 0.0
C811 C 0.50513 0.43545 0.19778 0.0
C812 C 0.50788 0.44966 0.20517 0.0
C813 C 0.53321 0.46044 0.20956 0.0
C814 C 0.53374 0.46982 0.21699 0.0
C815 C 0.50896 0.46863 0.22019 0.0
C816 C 0.48405 0.45889 0.21567 0.0
C817 C 0.48352 0.44947 0.20826 0.0
C818 C 0.58201 0.44941 0.18021 0.0
C819 C 0.55656 0.50363 0.17583 0.0
O820 O 0.56062 0.43151 0.15783 0.0
O821 O 0.53932 0.45574 0.15454 0.0
O822 O 0.49531 0.41803 0.17372 0.0
O823 O 0.49559 0.44626 0.16537 0.0
O824 O 0.50933 0.38888 0.181 0.0
O825 O 0.5318 0.39728 0.16943 0.0
O826 O 0.4967 0.44416 0.19188 0.0
O827 O 0.52377 0.42707 0.19616 0.0
O828 O 0.56912 0.46082 0.17692 0.0
O829 O 0.56719 0.43365 0.18592 0.0
O830 O 0.56211 0.49231 0.16987 0.0
O831 O 0.54073 0.48701 0.1815 0.0
H832 H 0.5235 0.44968 0.14058 0.0
H833 H 0.51034 0.42477 0.12844 0.0
H834 H 0.54622 0.37162 0.13553 0.0
H835 H 0.55981 0.39687 0.14763 0.0
H836 H 0.55236 0.46087 0.20734 0.0
H837 H 0.55344 0.47761 0.22025 0.0
H838 H 0.46446 0.45733 0.21796 0.0
H839 H 0.46364 0.44097 0.20503 0.0
Pr840 Pr 0.43512 0.23264 0.02039 0.0
Pr841 Pr 0.42346 0.23824 1.00251 0.0
C842 C 0.4558 0.22937 0.03402 0.0
C843 C 0.46065 0.24306 0.04161 0.0
C844 C 0.43788 0.23369 0.04686 0.0
C845 C 0.44273 0.24628 0.05405 0.0
C846 C 0.47048 0.26854 0.05618 0.0
C847 C 0.49326 0.27788 0.05092 0.0
C848 C 0.48842 0.26524 0.04374 0.0
C849 C 0.39586 0.25338 0.01851 0.0
C850 C 0.47328 0.29544 0.01146 0.0
C851 C 0.40069 0.24016 0.98904 0.0
C852 C 0.39114 0.22683 0.98145 0.0
C853 C 0.41135 0.22964 0.97591 0.0
C854 C 0.40247 0.22058 0.96848 0.0
C855 C 0.37318 0.20855 0.96637 0.0
C856 C 0.35287 0.20477 0.97199 0.0
C857 C 0.36177 0.21391 0.97942 0.0
C858 C 0.46977 0.22927 1.00548 0.0
C859 C 0.3908 0.17222 0.01075 0.0
O860 O 0.47257 0.24541 0.02848 0.0
O861 O 0.42887 0.21205 0.03191 0.0
O862 O 0.40833 0.24688 0.01355 0.0
O863 O 0.40336 0.24856 0.02508 0.0
O864 O 0.45276 0.28666 1.00624 0.0
O865 O 0.47339 0.27782 0.0167 0.0
O866 O 0.38463 0.22662 0.99492 0.0
O867 O 0.42852 0.25411 0.9905 0.0
O868 O 0.44633 0.21811 1.00919 0.0
O869 O 0.46824 0.24283 0.99954 0.0
O870 O 0.40501 0.18375 0.01712 0.0
O871 O 0.39339 0.18806 1.00469 0.0
H872 H 0.41622 0.21656 0.04545 0.0
H873 H 0.4246 0.23873 0.05791 0.0
H874 H 0.515 0.29465 0.0524 0.0
H875 H 0.50653 0.27273 0.03988 0.0
H876 H 0.43421 0.23972 0.97725 0.0
H877 H 0.41881 0.22417 0.96431 0.0
H878 H 0.33008 0.19517 0.97063 0.0
H879 H 0.34572 0.21164 0.98354 0.0
Pr880 Pr 0.7738 0.20142 0.01921 0.0
Pr881 Pr 0.76899 0.18815 1.0024 0.0
C882 C 0.77279 0.21804 0.03358 0.0
C883 C 0.75666 0.20826 0.04079 0.0
C884 C 0.7474 0.18048 0.04374 0.0
C885 C 0.73417 0.17265 0.05086 0.0
C886 C 0.72991 0.19242 0.05518 0.0
C887 C 0.73852 0.21991 0.05209 0.0
C888 C 0.75177 0.22772 0.04499 0.0
C889 C 0.75959 0.14436 0.01581 0.0
C890 C 0.71106 0.18098 0.01062 0.0
C891 C 0.76738 0.16644 0.98848 0.0
C892 C 0.78155 0.16911 0.98107 0.0
C893 C 0.78646 0.19129 0.97594 0.0
C894 C 0.79561 0.19088 0.96854 0.0
C895 C 0.79998 0.16823 0.96607 0.0
C896 C 0.79618 0.14672 0.97132 0.0
C897 C 0.787 0.14712 0.97871 0.0
C898 C 0.78088 0.24447 1.00545 0.0
C899 C 0.83436 0.21887 0.01053 0.0
O900 O 0.76042 0.22372 0.02797 0.0
O901 O 0.78754 0.20571 0.03143 0.0
O902 O 0.74906 0.15812 0.01261 0.0
O903 O 0.77721 0.15962 0.02117 0.0
O904 O 0.72003 0.17107 1.00503 0.0
O905 O 0.72837 0.19567 0.01626 0.0
O906 O 0.77667 0.15897 0.99445 0.0
O907 O 0.75798 0.18433 0.99 0.0
O908 O 0.79205 0.23178 1.00893 0.0
O909 O 0.76523 0.22911 0.9998 0.0
O910 O 0.8229 0.22604 0.01614 0.0
O911 O 0.81785 0.20162 1.00504 0.0
H912 H 0.75087 0.16501 0.04061 0.0
H913 H 0.72806 0.1514 0.05307 0.0
H914 H 0.73512 0.23551 0.05517 0.0
H915 H 0.75866 0.24922 0.04282 0.0
H916 H 0.78226 0.20846 0.97755 0.0
H917 H 0.79804 0.20768 0.96466 0.0
H918 H 0.79982 0.12922 0.96968 0.0
H919 H 0.78321 0.12963 0.98251 0.0
Pr920 Pr 0.80535 0.57479 0.01876 0.0
Pr921 Pr 0.81764 0.58161 1.00187 0.0
C922 C 0.78957 0.55809 0.03324 0.0
C923 C 0.79946 0.55146 0.04041 0.0
C924 C 0.8257 0.57159 0.04387 0.0
C925 C 0.83331 0.56575 0.05097 0.0
C926 C 0.81487 0.53965 0.05477 0.0
C927 C 0.78902 0.51926 0.05118 0.0
C928 C 0.7814 0.52515 0.0441 0.0
C929 C 0.86248 0.61682 0.01505 0.0
C930 C 0.82517 0.53155 0.01035 0.0
C931 C 0.83937 0.60103 0.98793 0.0
C932 C 0.83676 0.61269 0.98056 0.0
C933 C 0.81096 0.59917 0.97633 0.0
C934 C 0.81034 0.6081 0.96892 0.0
C935 C 0.83551 0.63072 0.96556 0.0
C936 C 0.86097 0.64489 0.96993 0.0
C937 C 0.86156 0.63593 0.97733 0.0
C938 C 0.76154 0.53748 1.00515 0.0
C939 C 0.78792 0.61763 1.00982 0.0
O940 O 0.78268 0.53968 0.02766 0.0
O941 O 0.80246 0.58509 0.031 0.0
O942 O 0.84813 0.59232 0.01199 0.0
O943 O 0.84781 0.6198 0.02046 0.0
O944 O 0.8344 0.54963 1.00458 0.0
O945 O 0.8112 0.53495 0.01605 0.0
O946 O 0.84747 0.61796 0.99386 0.0
O947 O 0.82073 0.57393 0.98947 0.0
O948 O 0.77425 0.56157 1.00858 0.0
O949 O 0.7768 0.53689 0.99951 0.0
O950 O 0.78223 0.60088 0.0158 0.0
O951 O 0.80326 0.6164 1.0041 0.0
H952 H 0.8401 0.59212 0.04117 0.0
H953 H 0.85324 0.58208 0.05357 0.0
H954 H 0.77452 0.49872 0.05385 0.0
H955 H 0.76107 0.50927 0.04156 0.0
H956 H 0.79146 0.58117 0.97868 0.0
H957 H 0.79024 0.59699 0.96577 0.0
H958 H 0.88086 0.66213 0.96753 0.0
H959 H 0.88179 0.64651 0.98044 0.0
Pr960 Pr 0.43846 0.91658 0.8367 0.0
Pr961 Pr 0.4437 0.90471 0.85464 0.0
C962 C 0.43603 0.9392 0.82324 0.0
C963 C 0.4492 0.94964 0.81569 0.0
C964 C 0.45385 0.93189 0.81068 0.0
C965 C 0.46257 0.94078 0.80321 0.0
C966 C 0.46677 0.96757 0.80058 0.0
C967 C 0.46316 0.9857 0.80571 0.0
C968 C 0.45443 0.97681 0.81316 0.0
C969 C 0.44864 0.87105 0.83967 0.0
C970 C 0.50401 0.95048 0.84514 0.0
C971 C 0.44719 0.88388 0.86822 0.0
C972 C 0.43307 0.8781 0.87572 0.0
C973 C 0.4249 0.89707 0.87893 0.0
C974 C 0.41205 0.89145 0.88611 0.0
C975 C 0.40694 0.86666 0.89021 0.0
C976 C 0.41484 0.84757 0.8869 0.0
C977 C 0.42778 0.85327 0.87974 0.0
C978 C 0.42175 0.94293 0.85265 0.0
C979 C 0.38129 0.86617 0.8456 0.0
O980 O 0.44885 0.9553 0.82917 0.0
O981 O 0.42338 0.91134 0.8246 0.0
O982 O 0.45908 0.89427 0.84346 0.0
O983 O 0.43537 0.87253 0.83366 0.0
O984 O 0.49252 0.93543 0.85141 0.0
O985 O 0.48825 0.94817 0.83908 0.0
O986 O 0.4316 0.86708 0.86264 0.0
O987 O 0.46355 0.91113 0.86625 0.0
O988 O 0.42894 0.93087 0.84774 0.0
O989 O 0.42653 0.93558 0.85925 0.0
O990 O 0.39001 0.88661 0.84036 0.0
O991 O 0.3989 0.8662 0.85086 0.0
H992 H 0.44989 0.91075 0.81244 0.0
H993 H 0.46491 0.92613 0.79942 0.0
H994 H 0.46669 0.00669 0.80394 0.0
H995 H 0.45091 0.99086 0.8169 0.0
H996 H 0.42861 0.91635 0.87593 0.0
H997 H 0.40659 0.90683 0.88848 0.0
H998 H 0.4108 0.828 0.8898 0.0
H999 H 0.43372 0.83824 0.87735 0.0
Pr1000 Pr 0.09102 0.52358 0.83681 0.0
Pr1001 Pr 0.10167 0.54051 0.85473 0.0
C1002 C 0.06894 0.49887 0.82328 0.0
C1003 C 0.05947 0.5023 0.81564 0.0
C1004 C 0.07971 0.51972 0.81011 0.0
C1005 C 0.07097 0.51953 0.80264 0.0
C1006 C 0.04179 0.50188 0.80049 0.0
C1007 C 0.02143 0.48531 0.8061 0.0
C1008 C 0.03019 0.48544 0.81357 0.0
C1009 C 0.13674 0.57911 0.83985 0.0
C1010 C 0.05732 0.5561 0.84491 0.0
C1011 C 0.12174 0.56451 0.86838 0.0
C1012 C 0.12665 0.55573 0.87592 0.0
C1013 C 0.10719 0.52849 0.87902 0.0
C1014 C 0.11199 0.52084 0.88623 0.0
C1015 C 0.13643 0.54019 0.8905 0.0
C1016 C 0.15604 0.56729 0.88731 0.0
C1017 C 0.15116 0.57496 0.88012 0.0
C1018 C 0.06316 0.48039 0.85272 0.0
C1019 C 0.14076 0.51664 0.84595 0.0
O1020 O 0.0526 0.4961 0.82912 0.0
O1021 O 0.09672 0.51311 0.82481 0.0
O1022 O 0.11326 0.56658 0.84355 0.0
O1023 O 0.1355 0.56416 0.83391 0.0
O1024 O 0.07132 0.5589 0.85133 0.0
O1025 O 0.06033 0.543 0.83888 0.0
O1026 O 0.13882 0.5655 0.86291 0.0
O1027 O 0.09471 0.5541 0.86626 0.0
O1028 O 0.07565 0.49958 0.8478 0.0
O1029 O 0.07018 0.49255 0.85931 0.0
O1030 O 0.12058 0.5049 0.84065 0.0
O1031 O 0.14039 0.53415 0.85118 0.0
H1032 H 0.10251 0.5328 0.81148 0.0
H1033 H 0.08736 0.53234 0.79848 0.0
H1034 H 0.9987 0.47181 0.8047 0.0
H1035 H 0.01412 0.47163 0.81768 0.0
H1036 H 0.08816 0.51317 0.87589 0.0
H1037 H 0.09624 0.49992 0.8885 0.0
H1038 H 0.17537 0.58258 0.89034 0.0
H1039 H 0.16657 0.596 0.87782 0.0
Pr1040 Pr 0.48346 0.56979 0.83641 0.0
Pr1041 Pr 0.46788 0.56309 0.8544 0.0
C1042 C 0.50769 0.57262 0.8228 0.0
C1043 C 0.5046 0.55933 0.81526 0.0
C1044 C 0.47972 0.55049 0.8108 0.0
C1045 C 0.47891 0.54146 0.80332 0.0
C1046 C 0.50295 0.54107 0.80013 0.0
C1047 C 0.52741 0.54901 0.80472 0.0
C1048 C 0.5282 0.55806 0.81218 0.0
C1049 C 0.4284 0.56041 0.83982 0.0
C1050 C 0.4513 0.50337 0.84437 0.0
C1051 C 0.4446 0.55886 0.86818 0.0
C1052 C 0.45363 0.57269 0.8757 0.0
C1053 C 0.48153 0.58192 0.87856 0.0
C1054 C 0.48951 0.59465 0.88574 0.0
C1055 C 0.46985 0.59863 0.89018 0.0
C1056 C 0.44202 0.58956 0.88725 0.0
C1057 C 0.43403 0.57671 0.88009 0.0
C1058 C 0.52789 0.58512 0.85209 0.0
C1059 C 0.49112 0.62632 0.84573 0.0
O1060 O 0.51188 0.56021 0.82869 0.0
O1061 O 0.4919 0.58455 0.82427 0.0
O1062 O 0.4409 0.54901 0.84335 0.0
O1063 O 0.44318 0.57456 0.8339 0.0
O1064 O 0.4503 0.51443 0.851 0.0
O1065 O 0.46264 0.51944 0.83823 0.0
O1066 O 0.44293 0.57467 0.86274 0.0
O1067 O 0.45538 0.54267 0.86598 0.0
O1068 O 0.50838 0.57833 0.84726 0.0
O1069 O 0.51616 0.57994 0.85874 0.0
O1070 O 0.50233 0.61796 0.84028 0.0
O1071 O 0.47421 0.60839 0.85104 0.0
H1072 H 0.46115 0.5512 0.81303 0.0
H1073 H 0.45955 0.53509 0.80001 0.0
H1074 H 0.54646 0.54934 0.80246 0.0
H1075 H 0.54773 0.56502 0.81548 0.0
H1076 H 0.49718 0.5793 0.87526 0.0
H1077 H 0.51123 0.60171 0.88777 0.0
H1078 H 0.42621 0.59197 0.89053 0.0
H1079 H 0.4124 0.56977 0.878 0.0
Pr1080 Pr 0.58275 0.76809 0.01782 0.0
Pr1081 Pr 0.57554 0.77251 1.00108 0.0
C1082 C 0.60183 0.76684 0.03191 0.0
C1083 C 0.61237 0.78084 0.0394 0.0
C1084 C 0.59258 0.77668 0.0452 0.0
C1085 C 0.6022 0.78585 0.05259 0.0
C1086 C 0.63188 0.79933 0.0544 0.0
C1087 C 0.65175 0.80443 0.04854 0.0
C1088 C 0.64211 0.7952 0.04114 0.0
C1089 C 0.53854 0.78011 0.01455 0.0
C1090 C 0.61811 0.83326 1.00963 0.0
C1091 C 0.55925 0.77065 0.98651 0.0
C1092 C 0.55185 0.75348 0.97943 0.0
C1093 C 0.57164 0.74721 0.97585 0.0
C1094 C 0.56503 0.7332 0.96881 0.0
C1095 C 0.5385 0.72516 0.96519 0.0
C1096 C 0.51847 0.73082 0.96891 0.0
C1097 C 0.52511 0.74485 0.97592 0.0
C1098 C 0.61801 0.75817 1.00495 0.0
C1099 C 0.53289 0.70985 1.00962 0.0
O1100 O 0.61909 0.77661 0.02604 0.0
O1101 O 0.57456 0.75678 0.0302 0.0
O1102 O 0.56252 0.79118 0.0111 0.0
O1103 O 0.53791 0.76427 0.02018 0.0
O1104 O 0.59972 0.82169 1.00397 0.0
O1105 O 0.61857 0.8168 0.01517 0.0
O1106 O 0.54075 0.76033 0.9921 0.0
O1107 O 0.58628 0.784 0.98875 0.0
O1108 O 0.59317 0.74736 1.00784 0.0
O1109 O 0.62162 0.77693 0.99979 0.0
O1110 O 0.55169 0.71904 0.01523 0.0
O1111 O 0.53556 0.72708 1.00396 0.0
H1112 H 0.56947 0.7653 0.04411 0.0
H1113 H 0.58617 0.78115 0.05694 0.0
H1114 H 0.6748 0.81511 0.04968 0.0
H1115 H 0.65793 0.79848 0.03684 0.0
H1116 H 0.59249 0.75363 0.97839 0.0
H1117 H 0.58112 0.72948 0.96611 0.0
H1118 H 0.49763 0.72452 0.96638 0.0
H1119 H 0.50948 0.74945 0.97854 0.0
Pr1120 Pr 0.23958 0.81862 0.01785 0.0
Pr1121 Pr 0.23572 0.80186 0.99992 0.0
C1122 C 0.24087 0.84338 0.03127 0.0
C1123 C 0.22786 0.84026 0.03887 0.0
C1124 C 0.2287 0.82146 0.04432 0.0
C1125 C 0.22037 0.82201 0.0518 0.0
C1126 C 0.21105 0.8414 0.05402 0.0
C1127 C 0.20909 0.85931 0.04848 0.0
C1128 C 0.2175 0.85881 0.04101 0.0
C1129 C 0.2305 0.76327 0.01493 0.0
C1130 C 0.17451 0.78602 1.00913 0.0
C1131 C 0.2333 0.77767 0.98639 0.0
C1132 C 0.24786 0.7861 0.97895 0.0
C1133 C 0.25642 0.81336 0.97575 0.0
C1134 C 0.26959 0.82063 0.96862 0.0
C1135 C 0.27462 0.80087 0.96453 0.0
C1136 C 0.26635 0.77375 0.96784 0.0
C1137 C 0.25309 0.76647 0.97495 0.0
C1138 C 0.25658 0.86185 1.00188 0.0
C1139 C 0.29775 0.82667 1.00919 0.0
O1140 O 0.22725 0.84553 0.02535 0.0
O1141 O 0.25489 0.82953 0.0299 0.0
O1142 O 0.22 0.77581 0.01107 0.0
O1143 O 0.24323 0.77804 0.02098 0.0
O1144 O 0.18667 0.78308 1.00291 0.0
O1145 O 0.1897 0.79938 0.01527 0.0
O1146 O 0.24861 0.7766 0.99206 0.0
O1147 O 0.21668 0.7884 0.98823 0.0
O1148 O 0.2494 0.84264 1.00682 0.0
O1149 O 0.25236 0.84977 0.99529 0.0
O1150 O 0.28839 0.83773 0.01444 0.0
O1151 O 0.2807 0.80919 1.00383 0.0
H1152 H 0.23675 0.807 0.04288 0.0
H1153 H 0.22246 0.80808 0.0559 0.0
H1154 H 0.20155 0.87416 0.04993 0.0
H1155 H 0.21677 0.87366 0.03695 0.0
H1156 H 0.25275 0.82898 0.97874 0.0
H1157 H 0.27534 0.84157 0.96625 0.0
H1158 H 0.27031 0.75815 0.96495 0.0
H1159 H 0.24685 0.74541 0.97733 0.0
Pr1160 Pr 0.18869 0.42217 0.01765 0.0
Pr1161 Pr 0.20277 0.43092 1.00086 0.0
C1162 C 0.16564 0.4013 0.03141 0.0
C1163 C 0.16799 0.38968 0.03882 0.0
C1164 C 0.19399 0.40257 0.04296 0.0
C1165 C 0.19451 0.39383 0.05041 0.0
C1166 C 0.16906 0.37205 0.05388 0.0
C1167 C 0.14337 0.35849 0.04958 0.0
C1168 C 0.14287 0.36723 0.04215 0.0
C1169 C 0.24504 0.46676 0.01488 0.0
C1170 C 0.22036 0.38799 1.00967 0.0
C1171 C 0.21935 0.44887 0.9865 0.0
C1172 C 0.20955 0.45608 0.9794 0.0
C1173 C 0.18232 0.43719 0.97619 0.0
C1174 C 0.17442 0.44374 0.96923 0.0
C1175 C 0.1935 0.46937 0.96533 0.0
C1176 C 0.2205 0.48844 0.96864 0.0
C1177 C 0.22842 0.48182 0.97558 0.0
C1178 C 0.14552 0.38812 1.00419 0.0
C1179 C 0.18253 0.47353 1.00942 0.0
O1180 O 0.15885 0.38477 0.02542 0.0
O1181 O 0.18369 0.42867 0.03002 0.0
O1182 O 0.23271 0.44316 0.01125 0.0
O1183 O 0.2293 0.46655 0.0205 0.0
O1184 O 0.22697 0.40593 1.0039 0.0
O1185 O 0.20348 0.38771 0.0152 0.0
O1186 O 0.22593 0.46677 0.99218 0.0
O1187 O 0.20639 0.42168 0.98857 0.0
O1188 O 0.15928 0.41249 1.00734 0.0
O1189 O 0.16092 0.3856 0.9989 0.0
O1190 O 0.17238 0.45465 0.01501 0.0
O1191 O 0.19709 0.47068 1.00378 0.0
H1192 H 0.21372 0.41994 0.04053 0.0
H1193 H 0.21479 0.40446 0.05349 0.0
H1194 H 0.12326 0.34192 0.05206 0.0
H1195 H 0.12251 0.35716 0.03909 0.0
H1196 H 0.16723 0.41722 0.97902 0.0
H1197 H 0.15332 0.42875 0.9669 0.0
H1198 H 0.23589 0.50818 0.96578 0.0
H1199 H 0.24959 0.49664 0.97791 0.0
Pr1200 Pr 0.23369 0.4309 0.50029 0.0
Pr1201 Pr 0.23891 0.42363 0.51719 0.0
C1202 C 0.23457 0.44761 0.48582 0.0
C1203 C 0.25079 0.45356 0.47863 0.0
C1204 C 0.25776 0.4336 0.47547 0.0
C1205 C 0.27129 0.4389 0.4684 0.0
C1206 C 0.27826 0.46431 0.46434 0.0
C1207 C 0.27175 0.48448 0.4676 0.0
C1208 C 0.25813 0.47911 0.47466 0.0
C1209 C 0.24789 0.38825 0.504 0.0
C1210 C 0.29688 0.47321 0.50871 0.0
C1211 C 0.24073 0.40446 0.53122 0.0
C1212 C 0.22666 0.39373 0.53869 0.0
C1213 C 0.22714 0.41302 0.54419 0.0
C1214 C 0.21807 0.40365 0.5516 0.0
C1215 C 0.20835 0.37475 0.55372 0.0
C1216 C 0.20682 0.35522 0.54813 0.0
C1217 C 0.21597 0.36462 0.54072 0.0
C1218 C 0.22758 0.46817 0.51388 0.0
C1219 C 0.1733 0.38867 0.50918 0.0
O1220 O 0.24689 0.46602 0.49136 0.0
O1221 O 0.21978 0.42067 0.48809 0.0
O1222 O 0.2584 0.41278 0.50705 0.0
O1223 O 0.23029 0.38547 0.49859 0.0
O1224 O 0.28786 0.45476 0.5144 0.0
O1225 O 0.2795 0.47043 0.50307 0.0
O1226 O 0.23098 0.38725 0.52534 0.0
O1227 O 0.25057 0.43172 0.52954 0.0
O1228 O 0.21603 0.44406 0.51049 0.0
O1229 O 0.24331 0.46866 0.51954 0.0
O1230 O 0.18468 0.40678 0.50346 0.0
O1231 O 0.18992 0.38829 0.5147 0.0
H1232 H 0.25248 0.41374 0.47842 0.0
H1233 H 0.27633 0.42309 0.4661 0.0
H1234 H 0.27647 0.5041 0.46462 0.0
H1235 H 0.25282 0.49474 0.47695 0.0
H1236 H 0.23557 0.43569 0.54287 0.0
H1237 H 0.21993 0.41944 0.55574 0.0
H1238 H 0.19903 0.3327 0.5495 0.0
H1239 H 0.21558 0.34928 0.53664 0.0
Pr1240 Pr 0.57535 0.80346 0.50016 0.0
Pr1241 Pr 0.58315 0.81666 0.51697 0.0
C1242 C 0.55829 0.78691 0.48575 0.0
C1243 C 0.55205 0.79649 0.47849 0.0
C1244 C 0.57155 0.82344 0.47524 0.0
C1245 C 0.56606 0.83091 0.46808 0.0
C1246 C 0.54099 0.81161 0.46401 0.0
C1247 C 0.52121 0.785 0.46739 0.0
C1248 C 0.52673 0.77754 0.47453 0.0
C1249 C 0.61761 0.86081 0.50364 0.0
C1250 C 0.53234 0.82323 0.50861 0.0
C1251 C 0.60256 0.83821 0.53094 0.0
C1252 C 0.61315 0.83473 0.53842 0.0
C1253 C 0.59362 0.81656 0.54398 0.0
C1254 C 0.60304 0.8167 0.55137 0.0
C1255 C 0.63221 0.83506 0.55342 0.0
C1256 C 0.65192 0.85242 0.54777 0.0
C1257 C 0.64248 0.85233 0.54038 0.0
C1258 C 0.53925 0.7602 0.51387 0.0
C1259 C 0.6186 0.78649 0.50901 0.0
O1260 O 0.54002 0.78114 0.49131 0.0
O1261 O 0.5853 0.79931 0.48797 0.0
O1262 O 0.59322 0.84668 0.50677 0.0
O1263 O 0.62039 0.8458 0.49829 0.0
O1264 O 0.55166 0.83401 0.5141 0.0
O1265 O 0.53487 0.80796 0.50311 0.0
O1266 O 0.61971 0.84521 0.52506 0.0
O1267 O 0.57521 0.82109 0.52929 0.0
O1268 O 0.5632 0.7731 0.51042 0.0
O1269 O 0.53861 0.77542 0.51951 0.0
O1270 O 0.60017 0.77924 0.50334 0.0
O1271 O 0.619 0.80368 0.51446 0.0
H1272 H 0.59128 0.83852 0.47817 0.0
H1273 H 0.58189 0.85148 0.46565 0.0
H1274 H 0.50142 0.76982 0.46451 0.0
H1275 H 0.51136 0.75667 0.47692 0.0
H1276 H 0.57079 0.80296 0.54271 0.0
H1277 H 0.58712 0.8033 0.55556 0.0
H1278 H 0.67463 0.86651 0.54909 0.0
H1279 H 0.65802 0.86678 0.53626 0.0
Pr1280 Pr 0.20369 0.77373 0.49948 0.0
Pr1281 Pr 0.18958 0.77004 0.51732 0.0
C1282 C 0.22146 0.7726 0.48526 0.0
C1283 C 0.2116 0.75709 0.47797 0.0
C1284 C 0.18484 0.75038 0.47474 0.0
C1285 C 0.17698 0.73741 0.46759 0.0
C1286 C 0.19571 0.73086 0.46351 0.0
C1287 C 0.22214 0.73699 0.46687 0.0
C1288 C 0.22999 0.74999 0.474 0.0
C1289 C 0.14747 0.76106 0.50332 0.0
C1290 C 0.18483 0.71203 0.5088 0.0
C1291 C 0.16171 0.76428 0.53047 0.0
C1292 C 0.1646 0.77648 0.53815 0.0
C1293 C 0.18922 0.78432 0.54263 0.0
C1294 C 0.19015 0.79312 0.55014 0.0
C1295 C 0.16654 0.79435 0.55332 0.0
C1296 C 0.1423 0.78723 0.54872 0.0
C1297 C 0.14135 0.77836 0.54123 0.0
C1298 C 0.2491 0.7911 0.5153 0.0
C1299 C 0.22149 0.8338 0.50866 0.0
O1300 O 0.2252 0.75886 0.49088 0.0
O1301 O 0.21067 0.78886 0.48734 0.0
O1302 O 0.16186 0.7514 0.50661 0.0
O1303 O 0.16145 0.77647 0.49748 0.0
O1304 O 0.17988 0.72269 0.51501 0.0
O1305 O 0.19397 0.7269 0.50243 0.0
O1306 O 0.16007 0.779 0.52474 0.0
O1307 O 0.17634 0.75108 0.52899 0.0
O1308 O 0.23018 0.78416 0.51023 0.0
O1309 O 0.23722 0.78765 0.52192 0.0
O1310 O 0.22957 0.82216 0.50326 0.0
O1311 O 0.20209 0.81764 0.51383 0.0
H1312 H 0.17019 0.75558 0.47768 0.0
H1313 H 0.15658 0.73325 0.46517 0.0
H1314 H 0.23688 0.73178 0.46399 0.0
H1315 H 0.25069 0.75487 0.47638 0.0
H1316 H 0.20753 0.78317 0.54039 0.0
H1317 H 0.20933 0.79883 0.55347 0.0
H1318 H 0.12358 0.78758 0.55098 0.0
H1319 H 0.12206 0.77223 0.5379 0.0
Pr1320 Pr 0.09918 0.56448 0.35223 0.0
Pr1321 Pr 0.08999 0.56885 0.33539 0.0
C1322 C 0.11722 0.56591 0.36658 0.0
C1323 C 0.1231 0.58207 0.37377 0.0
C1324 C 0.10367 0.5901 0.37675 0.0
C1325 C 0.10891 0.60372 0.38381 0.0
C1326 C 0.13374 0.60972 0.38802 0.0
C1327 C 0.15337 0.60211 0.38494 0.0
C1328 C 0.14807 0.5884 0.3779 0.0
C1329 C 0.05642 0.57895 0.34885 0.0
C1330 C 0.14094 0.627 0.34351 0.0
C1331 C 0.06916 0.57039 0.32157 0.0
C1332 C 0.05788 0.55616 0.31418 0.0
C1333 C 0.07266 0.54558 0.30983 0.0
C1334 C 0.06397 0.5362 0.30239 0.0
C1335 C 0.04033 0.53718 0.29914 0.0
C1336 C 0.02492 0.54671 0.30364 0.0
C1337 C 0.03365 0.55613 0.31106 0.0
C1338 C 0.1349 0.55769 0.33828 0.0
C1339 C 0.05598 0.50367 0.34362 0.0
O1340 O 0.1351 0.57872 0.36097 0.0
O1341 O 0.09017 0.55041 0.36444 0.0
O1342 O 0.08057 0.58904 0.34561 0.0
O1343 O 0.05414 0.56167 0.35429 0.0
O1344 O 0.12167 0.61787 0.338 0.0
O1345 O 0.13879 0.6098 0.34913 0.0
O1346 O 0.05252 0.56043 0.32755 0.0
O1347 O 0.09661 0.58036 0.32302 0.0
O1348 O 0.11129 0.54638 0.34191 0.0
O1349 O 0.13448 0.57279 0.33258 0.0
O1350 O 0.07471 0.51534 0.3492 0.0
O1351 O 0.05498 0.51999 0.33811 0.0
H1352 H 0.0843 0.5856 0.37366 0.0
H1353 H 0.09354 0.60962 0.38597 0.0
H1354 H 0.17252 0.60607 0.38805 0.0
H1355 H 0.16327 0.58228 0.37574 0.0
H1356 H 0.09143 0.54532 0.31208 0.0
H1357 H 0.07606 0.52857 0.29914 0.0
H1358 H 0.00684 0.5481 0.30132 0.0
H1359 H 0.02208 0.56446 0.31427 0.0
Pr1360 Pr 0.44312 0.53576 0.35265 0.0
Pr1361 Pr 0.43834 0.52401 0.33579 0.0
C1362 C 0.44194 0.55089 0.36718 0.0
C1363 C 0.4254 0.54108 0.37433 0.0
C1364 C 0.41718 0.51383 0.3775 0.0
C1365 C 0.4038 0.50619 0.3846 0.0
C1366 C 0.39834 0.52562 0.3887 0.0
C1367 C 0.40588 0.55253 0.3854 0.0
C1368 C 0.41929 0.56016 0.37831 0.0
C1369 C 0.42825 0.47886 0.34879 0.0
C1370 C 0.38042 0.51631 0.3441 0.0
C1371 C 0.43665 0.503 0.32179 0.0
C1372 C 0.45104 0.5059 0.31442 0.0
C1373 C 0.46051 0.53068 0.30987 0.0
C1374 C 0.47005 0.53115 0.30247 0.0
C1375 C 0.47035 0.50686 0.29944 0.0
C1376 C 0.4619 0.48254 0.30411 0.0
C1377 C 0.45231 0.48207 0.3115 0.0
C1378 C 0.4503 0.58001 0.33917 0.0
C1379 C 0.50382 0.55388 0.34393 0.0
O1380 O 0.43068 0.55817 0.36162 0.0
O1381 O 0.45571 0.53767 0.36492 0.0
O1382 O 0.41788 0.49316 0.34583 0.0
O1383 O 0.44655 0.49363 0.35408 0.0
O1384 O 0.38945 0.50682 0.33842 0.0
O1385 O 0.39767 0.53043 0.3498 0.0
O1386 O 0.44541 0.49476 0.32772 0.0
O1387 O 0.42789 0.52136 0.32338 0.0
O1388 O 0.46151 0.56711 0.34257 0.0
O1389 O 0.43455 0.56501 0.33349 0.0
O1390 O 0.49236 0.56002 0.34974 0.0
O1391 O 0.48738 0.53778 0.33827 0.0
H1392 H 0.42162 0.49864 0.37456 0.0
H1393 H 0.39855 0.4854 0.38698 0.0
H1394 H 0.40156 0.56785 0.38831 0.0
H1395 H 0.4254 0.58128 0.37599 0.0
H1396 H 0.45978 0.54942 0.31196 0.0
H1397 H 0.47681 0.5504 0.29908 0.0
H1398 H 0.46151 0.46332 0.30196 0.0
H1399 H 0.44483 0.46258 0.31485 0.0
Pr1400 Pr 0.47092 0.90758 0.35262 0.0
Pr1401 Pr 0.48485 0.91593 0.3358 0.0
C1402 C 0.45406 0.88994 0.36698 0.0
C1403 C 0.46376 0.88354 0.3742 0.0
C1404 C 0.49071 0.90304 0.37744 0.0
C1405 C 0.49832 0.89744 0.38457 0.0
C1406 C 0.47916 0.87222 0.38861 0.0
C1407 C 0.45255 0.85243 0.38522 0.0
C1408 C 0.44495 0.85807 0.37812 0.0
C1409 C 0.52799 0.95074 0.34926 0.0
C1410 C 0.49281 0.866 0.34425 0.0
C1411 C 0.50745 0.9365 0.32199 0.0
C1412 C 0.50471 0.94799 0.31461 0.0
C1413 C 0.47871 0.9346 0.31047 0.0
C1414 C 0.47789 0.94335 0.30304 0.0
C1415 C 0.50305 0.96566 0.2996 0.0
C1416 C 0.52872 0.97971 0.30389 0.0
C1417 C 0.52951 0.97094 0.3113 0.0
C1418 C 0.42887 0.87081 0.33868 0.0
C1419 C 0.45291 0.94991 0.34371 0.0
O1420 O 0.44833 0.87188 0.36137 0.0
O1421 O 0.46641 0.91702 0.36483 0.0
O1422 O 0.51436 0.92637 0.34611 0.0
O1423 O 0.5126 0.95307 0.35459 0.0
O1424 O 0.50236 0.88455 0.33858 0.0
O1425 O 0.47794 0.86853 0.34986 0.0
O1426 O 0.51442 0.95315 0.32797 0.0
O1427 O 0.48952 0.90914 0.32343 0.0
O1428 O 0.44086 0.89463 0.34223 0.0
O1429 O 0.44477 0.87102 0.33311 0.0
O1430 O 0.44639 0.93206 0.34948 0.0
O1431 O 0.46981 0.95022 0.33818 0.0
H1432 H 0.50569 0.92288 0.37454 0.0
H1433 H 0.51887 0.91329 0.387 0.0
H1434 H 0.43748 0.83252 0.38808 0.0
H1435 H 0.42409 0.84269 0.37573 0.0
H1436 H 0.45921 0.91684 0.31289 0.0
H1437 H 0.45763 0.93234 0.29996 0.0
H1438 H 0.5486 0.99671 0.30142 0.0
H1439 H 0.54987 0.98142 0.31435 0.0
C1440 C 0.13136 0.17696 0.18061 0.0
C1441 C 0.12034 0.18086 0.17378 0.0
C1442 C 0.13772 0.15446 0.18136 0.0
C1443 C 0.12253 0.08523 0.17196 0.0
H1444 H 0.18586 0.09296 0.18443 0.0
C1445 C 0.16012 1.00112 0.17112 0.0
C1446 C 0.15947 0.98871 0.17817 0.0
C1447 C 0.1585 0.02651 0.17067 0.0
C1448 C 0.16813 0.09059 0.18093 0.0
H1449 H 0.1083 0.16504 0.16232 0.0
H1450 H 0.12056 0.12722 0.16347 0.0
H1451 H 0.17626 0.13327 0.18357 0.0
H1452 H 0.15853 0.99423 0.19029 0.0
H1453 H 0.15647 0.03898 0.18948 0.0
H1454 H 0.11493 0.04289 0.16918 0.0
C1455 C 0.12324 0.14041 0.16839 0.0
C1456 C 0.16243 0.11356 0.18047 0.0
C1457 C 0.1164 0.16237 0.1677 0.0
C1458 C 0.15894 0.00319 0.18477 0.0
C1459 C 0.15788 0.02886 0.18432 0.0
C1460 C 0.12858 0.06261 0.1723 0.0
C1461 C 0.13358 0.13575 0.17526 0.0
C1462 C 0.13957 0.11124 0.17596 0.0
C1463 C 0.15679 0.04029 0.17726 0.0
C1464 C 0.15142 0.06503 0.17677 0.0
H1465 H 0.13459 0.19094 0.18539 0.0
H1466 H 0.14536 0.15147 0.18677 0.0
H1467 H 0.10419 0.08208 0.1686 0.0
H1468 H 0.16037 0.99044 0.16594 0.0
H1469 H 0.15787 0.03501 0.16516 0.0
C1470 C 1.00311 0.16089 0.18548 0.0
C1471 C 0.01648 0.17513 0.17872 0.0
C1472 C 0.97684 0.13468 0.18536 0.0
C1473 C 0.91663 0.08337 0.17254 0.0
H1474 H 0.90942 0.02668 0.18742 0.0
C1475 C 0.84522 0.95982 0.16861 0.0
C1476 C 0.82627 0.94399 0.17452 0.0
C1477 C 0.86577 0.98909 0.16953 0.0
C1478 C 0.91096 0.0424 0.18329 0.0
H1479 H 0.01248 0.17357 0.16655 0.0
H1480 H 0.96731 0.12727 0.16626 0.0
H1481 H 0.94998 0.0761 0.18816 0.0
H1482 H 0.81416 0.94621 0.18607 0.0
H1483 H 0.85112 0.99754 0.18779 0.0
H1484 H 0.87838 0.04879 0.16744 0.0
C1485 C 0.97648 0.13662 0.1717 0.0
C1486 C 0.93416 0.07088 0.18372 0.0
C1487 C 1.00249 0.16322 0.17184 0.0
C1488 C 0.82851 0.95795 0.18143 0.0
C1489 C 0.84959 0.98721 0.1824 0.0
C1490 C 0.89376 0.05475 0.17204 0.0
C1491 C 0.96357 0.12161 0.17846 0.0
C1492 C 0.93756 0.09177 0.1783 0.0
C1493 C 0.86824 0.00308 0.17643 0.0
C1494 C 0.89089 0.03394 0.17736 0.0
H1495 H 0.01332 0.16975 0.19087 0.0
H1496 H 0.96729 0.12442 0.19069 0.0
H1497 H 0.91798 0.09881 0.16835 0.0
H1498 H 0.84402 0.94967 0.16322 0.0
H1499 H 0.88009 1.00071 0.16487 0.0
C1500 C 0.05272 0.87819 0.18043 0.0
C1501 C 0.06256 0.87464 0.17338 0.0
C1502 C 0.02399 0.87204 0.18132 0.0
C1503 C 0.96203 0.86462 0.16986 0.0
H1504 H 0.91803 0.83267 0.18826 0.0
C1505 C 0.84273 0.83688 0.17224 0.0
C1506 C 0.8359 0.84724 0.17878 0.0
C1507 C 0.8689 0.83667 0.17176 0.0
C1508 C 0.93009 0.84169 0.18309 0.0
H1509 H 0.04988 0.86064 0.16182 0.0
H1510 H 0.99993 0.84915 0.16339 0.0
H1511 H 0.96678 0.83938 0.18719 0.0
H1512 H 0.85064 0.86411 0.19007 0.0
H1513 H 0.89597 0.86364 0.18922 0.0
H1514 H 0.92549 0.86704 0.16577 0.0
C1515 C 0.01435 0.8575 0.1682 0.0
C1516 C 0.9581 0.84565 0.18248 0.0
C1517 C 0.04299 0.86389 0.16731 0.0
C1518 C 0.85521 0.8561 0.18493 0.0
C1519 C 0.88119 0.85567 0.18447 0.0
C1520 C 0.93404 0.8605 0.17045 0.0
C1521 C 0.00454 0.86203 0.17517 0.0
C1522 C 0.9745 0.85727 0.17586 0.0
C1523 C 0.88868 0.84656 0.17782 0.0
C1524 C 0.91776 0.84913 0.17708 0.0
H1525 H 0.06741 0.8865 0.1852 0.0
H1526 H 0.01732 0.876 0.18675 0.0
H1527 H 0.97414 0.87422 0.16473 0.0
H1528 H 0.82838 0.82991 0.1674 0.0
H1529 H 0.87386 0.82918 0.16659 0.0
C1530 C 0.16525 0.11632 0.35378 0.0
C1531 C 0.18305 0.11915 0.34763 0.0
C1532 C 0.1435 0.12345 0.35308 0.0
C1533 C 0.11593 0.1611 0.34061 0.0
H1534 H 0.04638 0.11619 0.35255 0.0
C1535 C 0.00468 0.15627 0.33653 0.0
C1536 C 0.99165 0.15915 0.34314 0.0
C1537 C 0.03039 0.15525 0.33692 0.0
C1538 C 0.06579 0.12909 0.34924 0.0
H1539 H 0.1922 0.13175 0.33588 0.0
H1540 H 0.15301 0.14286 0.33449 0.0
H1541 H 0.08538 0.10519 0.35322 0.0
H1542 H 0.99589 0.16422 0.3553 0.0
H1543 H 0.04046 0.16168 0.35599 0.0
H1544 H 0.09508 0.18391 0.33637 0.0
C1545 C 0.1564 0.13595 0.33996 0.0
C1546 C 0.08832 0.12293 0.34964 0.0
C1547 C 0.17873 0.12937 0.34072 0.0
C1548 C 0.00547 0.16214 0.35011 0.0
C1549 C 0.03086 0.16052 0.35052 0.0
C1550 C 0.09301 0.16686 0.3401 0.0
C1551 C 0.13833 0.1329 0.34613 0.0
C1552 C 0.11394 0.13905 0.34541 0.0
C1553 C 0.04323 0.15652 0.34394 0.0
C1554 C 0.06789 0.15109 0.34448 0.0
H1555 H 0.16832 0.10888 0.35922 0.0
H1556 H 0.13085 0.12165 0.35804 0.0
H1557 H 0.13533 0.17424 0.33733 0.0
H1558 H 0.99456 0.15398 0.33107 0.0
H1559 H 0.03944 0.15202 0.33178 0.0
C1560 C 0.84231 0.84265 0.35002 0.0
C1561 C 0.84353 0.8307 0.34306 0.0
C1562 C 0.84261 0.86908 0.35028 0.0
C1563 C 0.86357 0.93429 0.33825 0.0
H1564 H 0.83218 0.95662 0.35502 0.0
C1565 C 0.86972 0.0463 0.34044 0.0
C1566 C 0.88265 0.06114 0.34716 0.0
C1567 C 0.86149 0.01699 0.33964 0.0
C1568 C 0.84096 0.95059 0.35029 0.0
H1569 H 0.84388 0.83575 0.33093 0.0
H1570 H 0.84256 0.88072 0.33133 0.0
H1571 H 0.82223 0.90675 0.3541 0.0
H1572 H 0.89663 0.05695 0.35837 0.0
H1573 H 0.88158 0.00572 0.35703 0.0
H1574 H 0.88186 0.9782 0.33442 0.0
C1575 C 0.8428 0.87067 0.33662 0.0
C1576 C 0.83547 0.92205 0.34978 0.0
C1577 C 0.84321 0.84466 0.33637 0.0
C1578 C 0.88674 0.04608 0.35311 0.0
C1579 C 0.87798 0.01673 0.35237 0.0
C1580 C 0.86855 0.96263 0.33869 0.0
C1581 C 0.84353 0.88385 0.34357 0.0
C1582 C 0.84714 0.91357 0.34382 0.0
C1583 C 0.86547 1.00193 0.34562 0.0
C1584 C 0.85773 0.97118 0.34478 0.0
H1585 H 0.84287 0.83248 0.35527 0.0
H1586 H 0.84352 0.87851 0.35576 0.0
H1587 H 0.87355 0.92905 0.33365 0.0
H1588 H 0.86639 0.05745 0.33576 0.0
H1589 H 0.8519 0.00603 0.33437 0.0
C1590 C 0.95786 0.84225 0.3538 0.0
C1591 C 0.94274 0.82473 0.34761 0.0
C1592 C 0.98685 0.86383 0.35312 0.0
C1593 C 0.05199 0.89108 0.3406 0.0
H1594 H 0.07798 0.9602 0.35279 0.0
C1595 C 0.15867 1.00184 0.33641 0.0
C1596 C 0.17508 0.01478 0.34295 0.0
C1597 C 0.13194 0.97615 0.33687 0.0
C1598 C 0.0711 0.94088 0.34941 0.0
H1599 H 0.94606 0.816 0.33583 0.0
H1600 H 0.99653 0.85488 0.33448 0.0
H1601 H 0.02773 0.92168 0.35349 0.0
H1602 H 0.17682 0.01044 0.35508 0.0
H1603 H 0.12963 0.96587 0.35592 0.0
H1604 H 0.09551 0.9116 0.33625 0.0
C1605 C 0.98627 0.85139 0.33996 0.0
C1606 C 0.04225 0.91862 0.34982 0.0
C1607 C 0.95725 0.82924 0.34069 0.0
C1608 C 0.16478 1.00087 0.34994 0.0
C1609 C 0.13773 0.97551 0.35043 0.0
C1610 C 0.08081 0.91373 0.34007 0.0
C1611 C 1.00148 0.86911 0.34617 0.0
C1612 C 0.03225 0.89319 0.34549 0.0
C1613 C 0.12082 0.96325 0.34391 0.0
C1614 C 0.09066 0.93871 0.34454 0.0
H1615 H 0.94739 0.83906 0.35924 0.0
H1616 H 0.99781 0.87621 0.35812 0.0
H1617 H 0.04538 0.8718 0.33723 0.0
H1618 H 0.1661 0.01206 0.33094 0.0
H1619 H 0.11928 0.96722 0.33178 0.0
C1620 C 0.89066 0.84516 0.85085 0.0
C1621 C 0.88641 0.82524 0.8451 0.0
C1622 C 0.88241 0.86599 0.84981 0.0
C1623 C 0.87441 0.91083 0.83607 0.0
H1624 H 0.82449 0.9177 0.85087 0.0
C1625 C 0.84965 0.00452 0.83434 0.0
C1626 C 0.84827 0.01708 0.84119 0.0
C1627 C 0.84966 0.97826 0.83427 0.0
C1628 C 0.83874 0.91641 0.84672 0.0
H1629 H 0.87063 0.81176 0.8337 0.0
H1630 H 0.85716 0.8493 0.83176 0.0
H1631 H 0.83424 0.8777 0.85173 0.0
H1632 H 0.84533 0.01169 0.85334 0.0
H1633 H 0.84655 0.96672 0.85329 0.0
H1634 H 0.8806 0.95038 0.83132 0.0
C1635 C 0.86645 0.84826 0.83711 0.0
C1636 C 0.84407 0.89329 0.84719 0.0
C1637 C 0.87412 0.82686 0.83822 0.0
C1638 C 0.84609 1.00242 0.84796 0.0
C1639 C 0.84667 0.97645 0.84791 0.0
C1640 C 0.86957 0.93432 0.83569 0.0
C1641 C 0.87028 0.8678 0.84294 0.0
C1642 C 0.86225 0.8905 0.84193 0.0
C1643 C 0.8489 0.96416 0.84107 0.0
C1644 C 0.852 0.93773 0.84108 0.0
H1645 H 0.90006 0.84445 0.85622 0.0
H1646 H 0.88587 0.88099 0.85436 0.0
H1647 H 0.88873 0.90928 0.832 0.0
H1648 H 0.85113 0.01522 0.82901 0.0
H1649 H 0.85065 0.96926 0.82887 0.0
C1650 C 0.16269 0.04616 0.85119 0.0
C1651 C 0.1826 0.06198 0.84545 0.0
C1652 C 0.14199 0.01702 0.85014 0.0
C1653 C 0.09752 0.96447 0.83629 0.0
H1654 H 0.08991 0.90714 0.85101 0.0
C1655 C 1.00394 0.84637 0.83401 0.0
C1656 C 0.99091 0.83193 0.84077 0.0
C1657 C 0.03033 0.87251 0.8341 0.0
C1658 C 0.0914 0.92283 0.84688 0.0
H1659 H 0.19627 0.05988 0.83406 0.0
H1660 H 0.15896 0.00879 0.8321 0.0
H1661 H 0.12986 0.95693 0.85204 0.0
H1662 H 0.99558 0.83319 0.85293 0.0
H1663 H 0.04082 0.8793 0.85317 0.0
H1664 H 0.05824 0.9313 0.83138 0.0
C1665 C 0.1599 0.01903 0.83746 0.0
C1666 C 0.11449 0.95131 0.84745 0.0
C1667 C 0.18116 0.04815 0.83858 0.0
C1668 C 0.00527 0.84367 0.84762 0.0
C1669 C 0.03137 0.87017 0.84774 0.0
C1670 C 0.07407 0.93614 0.8358 0.0
C1671 C 0.14032 0.00318 0.84327 0.0
C1672 C 0.11758 0.97245 0.84221 0.0
C1673 C 0.04405 0.8853 0.84098 0.0
C1674 C 0.0704 0.91492 0.84115 0.0
H1675 H 0.16328 0.0562 0.85656 0.0
H1676 H 0.12695 0.00536 0.85468 0.0
H1677 H 0.09927 0.98048 0.83222 0.0
H1678 H 0.99347 0.83768 0.82863 0.0
H1679 H 0.03965 0.88289 0.82876 0.0
C1680 C 0.95778 0.10756 0.84923 0.0
C1681 C 0.94651 0.12283 0.8454 0.0
C1682 C 0.98698 0.11569 0.84853 0.0
C1683 C 0.05165 0.15604 0.83647 0.0
H1684 H 0.091 0.15034 0.85426 0.0
C1685 C 0.17093 0.17402 0.84688 0.0
C1686 C 0.17634 0.16031 0.84082 0.0
C1687 C 0.14502 0.17477 0.84721 0.0
C1688 C 0.0806 0.15255 0.84925 0.0
H1689 H 0.95685 0.15833 0.8377 0.0
H1690 H 0.00825 0.17283 0.83651 0.0
H1691 H 0.04172 0.14147 0.85533 0.0
H1692 H 0.15926 0.13799 0.83017 0.0
H1693 H 0.11429 0.13896 0.83081 0.0
H1694 H 0.09067 0.16722 0.8304 0.0
C1695 C 0.99437 0.1544 0.84003 0.0
C1696 C 0.05211 0.14702 0.84984 0.0
C1697 C 0.96498 0.14617 0.84072 0.0
C1698 C 0.15586 0.14864 0.83495 0.0
C1699 C 0.13004 0.14939 0.83528 0.0
C1700 C 0.08022 0.16162 0.83588 0.0
C1701 C 0.00578 0.13941 0.844 0.0
C1702 C 0.03702 0.14805 0.84343 0.0
C1703 C 0.12395 0.16189 0.84149 0.0
C1704 C 0.09487 0.15938 0.84224 0.0
H1705 H 0.94403 0.08928 0.85281 0.0
H1706 H 0.99477 0.10318 0.85151 0.0
H1707 H 0.0407 0.15698 0.83141 0.0
H1708 H 0.18624 0.18334 0.85149 0.0
H1709 H 0.14125 0.18499 0.85203 0.0
C1710 C 0.82926 0.87214 0.67963 0.0
C1711 C 0.82452 0.88259 0.67282 0.0
C1712 C 0.85116 0.86488 0.68014 0.0
C1713 C 0.91784 0.87694 0.66992 0.0
H1714 H 0.91254 0.81708 0.68339 0.0
C1715 C 1.00261 0.84012 0.66962 0.0
C1716 C 0.01637 0.84351 0.67662 0.0
C1717 C 0.97685 0.84103 0.66915 0.0
C1718 C 0.91419 0.8338 0.67959 0.0
H1719 H 0.83781 0.89232 0.66111 0.0
H1720 H 0.8745 0.87825 0.66185 0.0
H1721 H 0.872 0.82631 0.68254 0.0
H1722 H 0.01303 0.84863 0.68867 0.0
H1723 H 0.9676 0.84942 0.68785 0.0
H1724 H 0.95972 0.88387 0.66686 0.0
C1725 C 0.86256 0.87686 0.66693 0.0
C1726 C 0.8911 0.83931 0.67915 0.0
C1727 C 0.84127 0.88472 0.66648 0.0
C1728 C 1.00297 0.84607 0.68319 0.0
C1729 C 0.97692 0.8464 0.68273 0.0
C1730 C 0.94055 0.87102 0.67026 0.0
C1731 C 0.86832 0.8674 0.6738 0.0
C1732 C 0.89263 0.86104 0.67431 0.0
C1733 C 0.96408 0.84473 0.67569 0.0
C1734 C 0.93902 0.8495 0.67511 0.0
H1735 H 0.81663 0.87039 0.6846 0.0
H1736 H 0.85504 0.858 0.68555 0.0
H1737 H 0.92042 0.89443 0.66629 0.0
H1738 H 0.01248 0.83825 0.66446 0.0
H1739 H 0.96726 0.83958 0.66366 0.0
C1740 C 0.16646 0.16294 0.67043 0.0
C1741 C 0.16278 0.17315 0.67742 0.0
C1742 C 0.16508 0.13606 0.66993 0.0
C1743 C 0.17126 0.0799 0.68021 0.0
H1744 H 0.11112 0.02629 0.66667 0.0
C1745 C 0.13427 0.95694 0.67952 0.0
C1746 C 0.12411 0.94224 0.67264 0.0
C1747 C 0.14102 0.9859 0.68022 0.0
C1748 C 0.12847 0.04098 0.67036 0.0
H1749 H 0.15651 0.16404 0.68943 0.0
H1750 H 0.15499 0.11744 0.68856 0.0
H1751 H 0.12153 0.07608 0.66747 0.0
H1752 H 0.1142 0.94648 0.661 0.0
H1753 H 0.12736 0.99694 0.66205 0.0
H1754 H 0.17886 0.04513 0.68297 0.0
C1755 C 0.15858 0.13011 0.68347 0.0
C1756 C 0.13428 0.06955 0.67084 0.0
C1757 C 0.15936 0.15671 0.68396 0.0
C1758 C 0.12162 0.95715 0.66642 0.0
C1759 C 0.12896 0.98614 0.66705 0.0
C1760 C 0.16587 0.05137 0.67962 0.0
C1761 C 0.16062 0.11918 0.67643 0.0
C1762 C 0.15565 0.08928 0.67578 0.0
C1763 C 0.13825 1.00088 0.67399 0.0
C1764 C 0.14434 0.03144 0.67469 0.0
H1765 H 0.16896 0.175 0.66529 0.0
H1766 H 0.16683 0.12813 0.66443 0.0
H1767 H 0.18787 0.09475 0.68406 0.0
H1768 H 0.13628 0.94585 0.68442 0.0
H1769 H 0.14774 0.99624 0.68568 0.0
C1770 C 0.84421 0.00456 0.6702 0.0
C1771 C 0.83382 0.9905 0.67716 0.0
C1772 C 0.87101 0.03017 0.66977 0.0
C1773 C 0.92664 0.09241 0.68017 0.0
H1774 H 0.98094 0.0859 0.6669 0.0
C1775 C 0.04975 0.17799 0.6799 0.0
C1776 C 0.06474 0.18258 0.67306 0.0
C1777 C 0.0207 0.15589 0.6805 0.0
C1778 C 0.96606 0.08854 0.67052 0.0
H1779 H 0.84243 0.99315 0.6892 0.0
H1780 H 0.88892 0.03842 0.68845 0.0
H1781 H 0.93108 0.04654 0.66755 0.0
H1782 H 0.06095 0.16873 0.66141 0.0
H1783 H 0.01033 0.13163 0.6623 0.0
H1784 H 0.96132 0.13475 0.68301 0.0
C1785 C 0.87646 0.0294 0.68333 0.0
C1786 C 0.93745 0.0658 0.67091 0.0
C1787 C 0.84994 0.00346 0.68375 0.0
C1788 C 0.05003 0.1654 0.66679 0.0
C1789 C 0.02097 0.14388 0.66733 0.0
C1790 C 0.95521 0.11553 0.67967 0.0
C1791 C 0.8876 0.04252 0.67631 0.0
C1792 C 0.91749 0.06746 0.67574 0.0
C1793 C 0.00596 0.13834 0.67423 0.0
C1794 C 0.97537 0.11392 0.67483 0.0
H1795 H 0.83236 0.99503 0.66503 0.0
H1796 H 0.87914 0.03999 0.66429 0.0
H1797 H 0.91159 0.09414 0.68395 0.0
H1798 H 0.0607 0.19095 0.68483 0.0
H1799 H 0.01011 0.15217 0.68594 0.0
C1800 C 0.83121 0.33872 0.50454 0.0
C1801 C 0.8298 0.32496 0.51141 0.0
C1802 C 0.8307 0.36474 0.50442 0.0
C1803 C 0.80952 0.40849 0.51658 0.0
H1804 H 0.84284 0.46343 0.50011 0.0
C1805 C 0.80505 0.51554 0.5144 0.0
C1806 C 0.79248 0.51761 0.50762 0.0
C1807 C 0.81287 0.49417 0.51527 0.0
C1808 C 0.83353 0.44829 0.50476 0.0
H1809 H 0.82856 0.32849 0.52358 0.0
H1810 H 0.82929 0.37452 0.52343 0.0
H1811 H 0.85216 0.42312 0.50096 0.0
H1812 H 0.7787 0.49942 0.49641 0.0
H1813 H 0.79313 0.46283 0.49787 0.0
H1814 H 0.79135 0.43424 0.5204 0.0
C1815 C 0.8295 0.36478 0.51808 0.0
C1816 C 0.83864 0.425 0.50523 0.0
C1817 C 0.82938 0.33847 0.51818 0.0
C1818 C 0.78832 0.49833 0.50171 0.0
C1819 C 0.79672 0.47749 0.50252 0.0
C1820 C 0.80492 0.43211 0.51619 0.0
C1821 C 0.82935 0.37795 0.51119 0.0
C1822 C 0.82621 0.40436 0.51106 0.0
C1823 C 0.80888 0.47506 0.50932 0.0
C1824 C 0.8164 0.4519 0.51019 0.0
H1825 H 0.83124 0.32867 0.49922 0.0
H1826 H 0.83016 0.37377 0.49899 0.0
H1827 H 0.79905 0.39293 0.52109 0.0
H1828 H 0.80838 0.53009 0.51905 0.0
H1829 H 0.8222 0.49268 0.52057 0.0
C1830 C 0.50881 0.29091 0.50094 0.0
C1831 C 0.49165 0.27586 0.50718 0.0
C1832 C 0.53044 0.3199 0.50157 0.0
C1833 C 0.55944 0.38502 0.51417 0.0
H1834 H 0.62801 0.4094 0.50184 0.0
C1835 C 0.67157 0.49068 0.51812 0.0
C1836 C 0.68429 0.50684 0.51153 0.0
C1837 C 0.64574 0.46402 0.51774 0.0
C1838 C 0.60888 0.40297 0.50527 0.0
H1839 H 0.48341 0.27927 0.51899 0.0
H1840 H 0.52237 0.32975 0.52026 0.0
H1841 H 0.5885 0.35965 0.50113 0.0
H1842 H 0.6794 0.50812 0.4994 0.0
H1843 H 0.63464 0.46117 0.49873 0.0
H1844 H 0.58112 0.42848 0.51857 0.0
C1845 C 0.51857 0.31946 0.51478 0.0
C1846 C 0.58604 0.37442 0.50484 0.0
C1847 C 0.49634 0.29048 0.51409 0.0
C1848 C 0.67009 0.49627 0.50458 0.0
C1849 C 0.64458 0.46935 0.50419 0.0
C1850 C 0.58268 0.41354 0.51471 0.0
C1851 C 0.53615 0.33452 0.50853 0.0
C1852 C 0.56077 0.36501 0.50922 0.0
C1853 C 0.63245 0.45276 0.51075 0.0
C1854 C 0.60747 0.42281 0.5102 0.0
H1855 H 0.50541 0.28031 0.49551 0.0
H1856 H 0.54267 0.33078 0.49655 0.0
H1857 H 0.54034 0.37885 0.51758 0.0
H1858 H 0.68197 0.49828 0.52356 0.0
H1859 H 0.63689 0.45158 0.52287 0.0
C1860 C 0.51302 0.17585 0.50459 0.0
C1861 C 0.50076 0.17719 0.51148 0.0
C1862 C 0.53958 0.17644 0.50443 0.0
C1863 C 0.60476 0.19811 0.51651 0.0
H1864 H 0.62648 0.16508 0.49999 0.0
C1865 C 0.71671 0.20371 0.51413 0.0
C1866 C 0.73117 0.21642 0.50734 0.0
C1867 C 0.68747 0.19562 0.51505 0.0
C1868 C 0.62061 0.1743 0.50465 0.0
H1869 H 0.50567 0.17833 0.52364 0.0
H1870 H 0.55106 0.17773 0.52343 0.0
H1871 H 0.57665 0.1552 0.50093 0.0
H1872 H 0.72642 0.23021 0.49617 0.0
H1873 H 0.67529 0.21534 0.4977 0.0
H1874 H 0.64884 0.21675 0.52025 0.0
C1875 C 0.541 0.17752 0.5181 0.0
C1876 C 0.59211 0.16887 0.50517 0.0
C1877 C 0.51478 0.17756 0.51823 0.0
C1878 C 0.71584 0.22049 0.50147 0.0
C1879 C 0.68656 0.21184 0.50232 0.0
C1880 C 0.63309 0.20303 0.51606 0.0
C1881 C 0.55425 0.1778 0.51119 0.0
C1882 C 0.58388 0.1812 0.51102 0.0
C1883 C 0.67213 0.19949 0.50913 0.0
C1884 C 0.64141 0.19166 0.51005 0.0
H1885 H 0.50284 0.17585 0.49929 0.0
H1886 H 0.54911 0.17708 0.49899 0.0
H1887 H 0.59964 0.20851 0.52102 0.0
H1888 H 0.7281 0.20042 0.51875 0.0
H1889 H 0.67678 0.18616 0.52035 0.0
C1890 C 0.84504 0.46179 0.6738 0.0
C1891 C 0.84951 0.45166 0.68071 0.0
C1892 C 0.82257 0.46816 0.67305 0.0
C1893 C 0.75441 0.45485 0.68276 0.0
H1894 H 0.76093 0.5159 0.66956 0.0
C1895 C 0.67177 0.49439 0.68348 0.0
C1896 C 0.6579 0.49169 0.67653 0.0
C1897 C 0.69704 0.49252 0.68382 0.0
C1898 C 0.75892 0.49881 0.67327 0.0
H1899 H 0.8348 0.44129 0.6923 0.0
H1900 H 0.79706 0.45368 0.69114 0.0
H1901 H 0.80122 0.50626 0.67045 0.0
H1902 H 0.66056 0.48671 0.66445 0.0
H1903 H 0.70522 0.48431 0.66505 0.0
H1904 H 0.71249 0.44807 0.68574 0.0
C1905 C 0.80973 0.45558 0.68617 0.0
C1906 C 0.78187 0.49307 0.67374 0.0
C1907 C 0.83165 0.44867 0.68687 0.0
C1908 C 0.67072 0.48878 0.66989 0.0
C1909 C 0.69631 0.48751 0.67022 0.0
C1910 C 0.73185 0.46099 0.68241 0.0
C1911 C 0.80446 0.46498 0.67923 0.0
C1912 C 0.77997 0.47102 0.67852 0.0
C1913 C 0.70924 0.48854 0.67721 0.0
C1914 C 0.73386 0.48302 0.67767 0.0
H1915 H 0.85855 0.46428 0.66897 0.0
H1916 H 0.8191 0.47505 0.66758 0.0
H1917 H 0.75154 0.4371 0.68633 0.0
H1918 H 0.66235 0.49649 0.68869 0.0
H1919 H 0.7067 0.4935 0.68928 0.0
C1920 C 0.51559 0.18065 0.66939 0.0
C1921 C 0.51444 0.16644 0.67618 0.0
C1922 C 0.51517 0.20669 0.66946 0.0
C1923 C 0.50349 0.25639 0.68219 0.0
H1924 H 0.55286 0.31441 0.66755 0.0
C1925 C 0.55338 0.37965 0.68634 0.0
C1926 C 0.5497 0.39518 0.68045 0.0
C1927 C 0.54511 0.3505 0.68541 0.0
C1928 C 0.53871 0.29829 0.67161 0.0
H1929 H 0.51145 0.16808 0.68835 0.0
H1930 H 0.51202 0.21396 0.68853 0.0
H1931 H 0.54557 0.26558 0.66674 0.0
H1932 H 0.53478 0.39264 0.66895 0.0
H1933 H 0.52121 0.34157 0.66721 0.0
H1934 H 0.4983 0.29002 0.6873 0.0
C1935 C 0.51226 0.20472 0.68311 0.0
C1936 C 0.53435 0.27017 0.67114 0.0
C1937 C 0.51208 0.17838 0.68302 0.0
C1938 C 0.53774 0.38107 0.67358 0.0
C1939 C 0.53005 0.35199 0.67258 0.0
C1940 C 0.50836 0.28467 0.68274 0.0
C1941 C 0.51424 0.21953 0.67633 0.0
C1942 C 0.51696 0.24886 0.67648 0.0
C1943 C 0.53357 0.33645 0.67851 0.0
C1944 C 0.52626 0.30593 0.67751 0.0
H1945 H 0.51716 0.17181 0.66402 0.0
H1946 H 0.51595 0.2169 0.66411 0.0
H1947 H 0.4894 0.24056 0.6863 0.0
H1948 H 0.56254 0.38998 0.69171 0.0
H1949 H 0.54831 0.33907 0.69003 0.0
C1950 C 0.83209 0.33387 0.68291 0.0
C1951 C 0.84386 0.34739 0.67597 0.0
C1952 C 0.8056 0.30776 0.68315 0.0
C1953 C 0.7399 0.26389 0.6712 0.0
H1954 H 0.71815 0.20974 0.68787 0.0
C1955 C 0.62775 0.15777 0.67367 0.0
C1956 C 0.61322 0.15623 0.68042 0.0
C1957 C 0.65707 0.17879 0.67276 0.0
C1958 C 0.72403 0.22466 0.68316 0.0
H1959 H 0.83834 0.34333 0.66383 0.0
H1960 H 0.79327 0.29708 0.6642 0.0
H1961 H 0.76802 0.24965 0.68687 0.0
H1962 H 0.61799 0.17498 0.69157 0.0
H1963 H 0.66923 0.21096 0.69006 0.0
H1964 H 0.69582 0.23834 0.66747 0.0
C1965 C 0.80352 0.30708 0.6695 0.0
C1966 C 0.75256 0.24772 0.68261 0.0
C1967 C 0.82959 0.33348 0.66927 0.0
C1968 C 0.62861 0.17567 0.68629 0.0
C1969 C 0.65796 0.19616 0.68545 0.0
C1970 C 0.71156 0.24049 0.67168 0.0
C1971 C 0.79056 0.29426 0.67644 0.0
C1972 C 0.76084 0.26806 0.6767 0.0
C1973 C 0.67245 0.19808 0.67867 0.0
C1974 C 0.70321 0.22098 0.67774 0.0
H1975 H 0.84247 0.3443 0.68817 0.0
H1976 H 0.79636 0.29899 0.68863 0.0
H1977 H 0.74498 0.27925 0.66665 0.0
H1978 H 0.61634 0.14308 0.66905 0.0
H1979 H 0.66779 0.17989 0.66747 0.0
C1980 C 0.53675 0.15822 0.17218 0.0
C1981 C 0.54903 0.15618 0.17902 0.0
C1982 C 0.52914 0.17972 0.17121 0.0
C1983 C 0.50833 0.22587 0.18152 0.0
H1984 H 0.54473 0.28198 0.16543 0.0
C1985 C 0.51247 0.33621 0.182 0.0
C1986 C 0.51445 0.35047 0.17517 0.0
C1987 C 0.51268 0.31003 0.18204 0.0
C1988 C 0.53374 0.26623 0.16986 0.0
H1989 H 0.56246 0.17455 0.19022 0.0
H1990 H 0.54837 0.21129 0.18859 0.0
H1991 H 0.55167 0.24017 0.16611 0.0
H1992 H 0.51656 0.34772 0.163 0.0
H1993 H 0.51538 0.30146 0.16302 0.0
H1994 H 0.48996 0.25134 0.18525 0.0
C1995 C 0.54487 0.19654 0.18398 0.0
C1996 C 0.53789 0.2423 0.17025 0.0
C1997 C 0.55307 0.1756 0.18489 0.0
C1998 C 0.51527 0.33736 0.16836 0.0
C1999 C 0.51488 0.3109 0.16839 0.0
C2000 C 0.50368 0.24945 0.18105 0.0
C2001 C 0.53302 0.19897 0.17712 0.0
C2002 C 0.52574 0.22226 0.17617 0.0
C2003 C 0.5143 0.29715 0.17523 0.0
C2004 C 0.51686 0.2704 0.17532 0.0
H2005 H 0.53352 0.14356 0.16757 0.0
H2006 H 0.52007 0.18122 0.16586 0.0
H2007 H 0.49852 0.21054 0.18611 0.0
H2008 H 0.51212 0.34592 0.18734 0.0
H2009 H 0.5127 0.30057 0.18745 0.0
C2010 C 0.84886 0.3804 0.17191 0.0
C2011 C 0.85069 0.3948 0.17871 0.0
C2012 C 0.8275 0.35121 0.17096 0.0
C2013 C 0.78148 0.28436 0.18133 0.0
H2014 H 0.72542 0.26409 0.16521 0.0
C2015 C 0.67115 0.1781 0.18192 0.0
C2016 C 0.65692 0.16563 0.1751 0.0
C2017 C 0.69735 0.20447 0.18193 0.0
C2018 C 0.74116 0.269 0.16965 0.0
H2019 H 0.83209 0.38994 0.18988 0.0
H2020 H 0.79559 0.339 0.1883 0.0
H2021 H 0.76713 0.31294 0.16583 0.0
H2022 H 0.65979 0.17012 0.16291 0.0
H2023 H 0.70611 0.2152 0.16289 0.0
H2024 H 0.75608 0.24058 0.18514 0.0
C2025 C 0.8104 0.35024 0.18369 0.0
C2026 C 0.76503 0.29713 0.17001 0.0
C2027 C 0.8312 0.37944 0.18457 0.0
C2028 C 0.67012 0.17936 0.16827 0.0
C2029 C 0.6966 0.20541 0.16827 0.0
C2030 C 0.75796 0.25607 0.1809 0.0
C2031 C 0.80819 0.33587 0.17687 0.0
C2032 C 0.78504 0.30523 0.17595 0.0
C2033 C 0.7103 0.21878 0.17511 0.0
C2034 C 0.73702 0.24811 0.17515 0.0
H2035 H 0.86358 0.39181 0.1673 0.0
H2036 H 0.82616 0.34057 0.16564 0.0
H2037 H 0.79679 0.29004 0.18594 0.0
H2038 H 0.66137 0.16818 0.18727 0.0
H2039 H 0.70678 0.21411 0.18733 0.0
C2040 C 0.82737 0.49241 0.16785 0.0
C2041 C 0.84151 0.49353 0.17464 0.0
C2042 C 0.80136 0.49291 0.16789 0.0
C2043 C 0.7517 0.50488 0.18057 0.0
H2044 H 0.69358 0.45555 0.16595 0.0
C2045 C 0.62851 0.45454 0.18485 0.0
C2046 C 0.61283 0.45843 0.17903 0.0
C2047 C 0.65765 0.46288 0.18385 0.0
C2048 C 0.70974 0.4697 0.17 0.0
H2049 H 0.83976 0.49656 0.18681 0.0
H2050 H 0.79395 0.49616 0.18695 0.0
H2051 H 0.74242 0.46275 0.16513 0.0
H2052 H 0.61513 0.47379 0.16759 0.0
H2053 H 0.66622 0.48747 0.16572 0.0
H2054 H 0.71811 0.51012 0.18569 0.0
C2055 C 0.80322 0.49587 0.18153 0.0
C2056 C 0.73786 0.47401 0.16953 0.0
C2057 C 0.82952 0.49595 0.18147 0.0
C2058 C 0.6268 0.47067 0.17216 0.0
C2059 C 0.6559 0.47842 0.17109 0.0
C2060 C 0.72344 0.50007 0.18112 0.0
C2061 C 0.78849 0.49392 0.17475 0.0
C2062 C 0.75919 0.49135 0.17487 0.0
C2063 C 0.67158 0.47471 0.17695 0.0
C2064 C 0.70213 0.48216 0.1759 0.0
H2065 H 0.83623 0.49078 0.16248 0.0
H2066 H 0.7912 0.49213 0.16253 0.0
H2067 H 0.76755 0.51896 0.18468 0.0
H2068 H 0.61832 0.44519 0.19021 0.0
H2069 H 0.66919 0.45954 0.18842 0.0
C2070 C 0.66841 0.17591 1.00336 0.0
C2071 C 0.68191 0.17798 0.01033 0.0
C2072 C 0.64327 0.178 1.003 0.0
C2073 C 0.58111 0.17152 0.01343 0.0
H2074 H 0.59045 0.23528 1.0009 0.0
C2075 C 0.49648 0.2104 0.01322 0.0
C2076 C 0.49261 0.22148 1.0064 0.0
C2077 C 0.51866 0.20359 0.01392 0.0
C2078 C 0.58704 0.21698 1.00432 0.0
H2079 H 0.67867 0.18198 0.02243 0.0
H2080 H 0.6342 0.18471 0.02181 0.0
H2081 H 0.62888 0.2234 1.00141 0.0
H2082 H 0.50815 0.23322 0.9949 0.0
H2083 H 0.54539 0.2201 0.99597 0.0
H2084 H 0.53889 0.16445 0.01618 0.0
C2085 C 0.64331 0.18186 0.01663 0.0
C2086 C 0.60924 0.21031 1.00463 0.0
C2087 C 0.66878 0.18039 0.01697 0.0
C2088 C 0.51083 0.22507 1.00027 0.0
C2089 C 0.53245 0.21774 1.00091 0.0
C2090 C 0.55853 0.1778 0.01301 0.0
C2091 C 0.63082 0.18155 1.00963 0.0
C2092 C 0.60652 0.18754 1.00917 0.0
C2093 C 0.53706 0.20727 1.00777 0.0
C2094 C 0.56114 0.20062 1.00842 0.0
H2095 H 0.6781 0.17424 0.99814 0.0
H2096 H 0.63394 0.1776 0.99754 0.0
H2097 H 0.57856 0.15387 0.017 0.0
H2098 H 0.4827 0.20745 0.01803 0.0
H2099 H 0.52164 0.19591 0.01932 0.0
C2100 C 0.7858 0.29055 1.00053 0.0
C2101 C 0.78995 0.27538 1.00643 0.0
C2102 C 0.79429 0.3198 1.00135 0.0
C2103 C 0.80268 0.37333 0.01502 0.0
H2104 H 0.85075 0.42972 0.99991 0.0
C2105 C 0.82798 0.49167 0.01705 0.0
C2106 C 0.82864 0.50568 0.01027 0.0
C2107 C 0.82791 0.46539 0.01696 0.0
C2108 C 0.837 0.41427 1.00414 0.0
H2109 H 0.80591 0.27868 0.01785 0.0
H2110 H 0.81989 0.32993 0.0194 0.0
H2111 H 0.84102 0.37995 0.99902 0.0
H2112 H 0.8303 0.50347 0.99809 0.0
H2113 H 0.82888 0.45715 0.99787 0.0
H2114 H 0.79697 0.40673 0.01991 0.0
C2115 C 0.8105 0.31915 0.0141 0.0
C2116 C 0.83166 0.38581 1.00365 0.0
C2117 C 0.80257 0.28995 0.01321 0.0
C2118 C 0.83008 0.49332 1.00341 0.0
C2119 C 0.82939 0.46672 1.0033 0.0
C2120 C 0.8075 0.40163 0.01543 0.0
C2121 C 0.80654 0.33434 1.00815 0.0
C2122 C 0.81423 0.36503 1.00904 0.0
C2123 C 0.82782 0.45209 1.01008 0.0
C2124 C 0.82449 0.42249 1.00995 0.0
H2125 H 0.77613 0.27987 0.99524 0.0
H2126 H 0.79074 0.33095 0.99672 0.0
H2127 H 0.7889 0.35759 0.0192 0.0
H2128 H 0.82712 0.50084 0.02244 0.0
H2129 H 0.82751 0.45535 0.02231 0.0
C2130 C 0.51567 0.33804 0.01751 0.0
C2131 C 0.49874 0.32507 0.01104 0.0
C2132 C 0.54213 0.36401 0.01696 0.0
C2133 C 0.60171 0.40048 1.00407 0.0
H2134 H 0.62763 0.46891 0.01653 0.0
C2135 C 0.71502 0.49904 0.9997 0.0
C2136 C 0.73038 0.51596 1.00595 0.0
C2137 C 0.68583 0.47789 1.00033 0.0
C2138 C 0.62097 0.44984 0.01308 0.0
H2139 H 0.49583 0.32966 0.99896 0.0
H2140 H 0.54252 0.3747 0.99797 0.0
H2141 H 0.5778 0.42864 0.01767 0.0
H2142 H 0.7273 0.52426 0.01777 0.0
H2143 H 0.67649 0.4861 0.01905 0.0
H2144 H 0.64477 0.42029 0.99976 0.0
C2145 C 0.53505 0.36487 1.00347 0.0
C2146 C 0.59231 0.4269 0.01369 0.0
C2147 C 0.50827 0.33922 1.00405 0.0
C2148 C 0.71586 0.51151 0.01286 0.0
C2149 C 0.68667 0.48974 0.01356 0.0
C2150 C 0.63041 0.42301 1.00356 0.0
C2151 C 0.55247 0.37719 1.0099 0.0
C2152 C 0.5824 0.40211 1.00915 0.0
C2153 C 0.67128 0.47239 1.0073 0.0
C2154 C 0.64052 0.44822 1.008 0.0
H2155 H 0.50887 0.32765 0.02298 0.0
H2156 H 0.55521 0.37297 0.02199 0.0
H2157 H 0.5948 0.38133 1.00061 0.0
H2158 H 0.72553 0.50226 0.99426 0.0
H2159 H 0.67475 0.46588 0.99531 0.0
C2160 C 0.46596 0.84357 0.84766 0.0
C2161 C 0.45654 0.84831 0.84068 0.0
C2162 C 0.47237 0.82114 0.84849 0.0
C2163 C 0.46041 0.75358 0.83867 0.0
H2164 H 0.51906 0.75889 0.8526 0.0
C2165 C 0.49925 0.67038 0.83859 0.0
C2166 C 0.49488 0.65581 0.8455 0.0
C2167 C 0.49788 0.69591 0.83819 0.0
C2168 C 0.50266 0.75723 0.84868 0.0
H2169 H 0.44762 0.83425 0.82902 0.0
H2170 H 0.46019 0.79667 0.83029 0.0
H2171 H 0.50981 0.79938 0.85154 0.0
H2172 H 0.48751 0.65754 0.85749 0.0
H2173 H 0.48603 0.70267 0.8568 0.0
H2174 H 0.45397 0.71182 0.83568 0.0
C2175 C 0.46141 0.80902 0.83527 0.0
C2176 C 0.49713 0.78029 0.84811 0.0
C2177 C 0.45442 0.83086 0.83451 0.0
C2178 C 0.49089 0.66824 0.85207 0.0
C2179 C 0.49014 0.6941 0.85169 0.0
C2180 C 0.46639 0.73093 0.83913 0.0
C2181 C 0.47 0.80339 0.84229 0.0
C2182 C 0.47593 0.77883 0.84307 0.0
C2183 C 0.49275 0.70769 0.84471 0.0
C2184 C 0.48754 0.73249 0.84413 0.0
H2185 H 0.4678 0.85677 0.85251 0.0
H2186 H 0.47861 0.81742 0.85401 0.0
H2187 H 0.44328 0.751 0.8349 0.0
H2188 H 0.50218 0.66128 0.83342 0.0
H2189 H 0.50008 0.70608 0.83274 0.0
C2190 C 0.16421 0.62434 0.84768 0.0
C2191 C 0.1592 0.60991 0.84073 0.0
C2192 C 0.18642 0.65335 0.84838 0.0
C2193 C 0.25306 0.70905 0.83825 0.0
H2194 H 0.24821 0.76237 0.85225 0.0
C2195 C 0.33729 0.83095 0.8383 0.0
C2196 C 0.35162 0.84079 0.84525 0.0
C2197 C 0.31152 0.80424 0.83782 0.0
C2198 C 0.24973 0.74766 0.84831 0.0
H2199 H 0.17248 0.61473 0.82901 0.0
H2200 H 0.20964 0.66515 0.83007 0.0
H2201 H 0.20777 0.71256 0.85129 0.0
H2202 H 0.34925 0.83136 0.85723 0.0
H2203 H 0.30379 0.78513 0.85642 0.0
H2204 H 0.29467 0.74442 0.83515 0.0
C2205 C 0.1977 0.65413 0.83511 0.0
C2206 C 0.22671 0.71902 0.84779 0.0
C2207 C 0.17612 0.62514 0.83447 0.0
C2208 C 0.33873 0.82428 0.85179 0.0
C2209 C 0.31268 0.79789 0.85134 0.0
C2210 C 0.27568 0.73773 0.83865 0.0
C2211 C 0.20365 0.66862 0.84209 0.0
C2212 C 0.22804 0.69925 0.84275 0.0
C2213 C 0.2993 0.78721 0.84432 0.0
C2214 C 0.27431 0.7573 0.84369 0.0
H2215 H 0.15142 0.61304 0.85259 0.0
H2216 H 0.1904 0.66352 0.85387 0.0
H2217 H 0.25554 0.6945 0.83446 0.0
H2218 H 0.34677 0.84309 0.83316 0.0
H2219 H 0.30152 0.79649 0.83235 0.0
C2220 C 0.38337 0.54231 0.84778 0.0
C2221 C 0.39766 0.55218 0.84083 0.0
C2222 C 0.35442 0.53563 0.84858 0.0
C2223 C 0.29865 0.54751 0.8388 0.0
H2224 H 0.24529 0.48827 0.85259 0.0
C2225 C 0.17644 0.50838 0.83873 0.0
C2226 C 0.16636 0.51269 0.84567 0.0
C2227 C 0.20333 0.50971 0.83829 0.0
C2228 C 0.26003 0.50482 0.84871 0.0
H2229 H 0.39261 0.56155 0.8292 0.0
H2230 H 0.34232 0.54849 0.83043 0.0
H2231 H 0.29517 0.49784 0.85155 0.0
H2232 H 0.1756 0.51987 0.85765 0.0
H2233 H 0.22215 0.52124 0.8569 0.0
H2234 H 0.26321 0.55381 0.83582 0.0
C2235 C 0.35341 0.54715 0.83541 0.0
C2236 C 0.2887 0.51054 0.84815 0.0
C2237 C 0.38233 0.55444 0.83467 0.0
C2238 C 0.18284 0.51653 0.85222 0.0
C2239 C 0.20942 0.51723 0.85181 0.0
C2240 C 0.26995 0.54135 0.83924 0.0
C2241 C 0.33906 0.53815 0.8424 0.0
C2242 C 0.30847 0.53198 0.84317 0.0
C2243 C 0.22031 0.51471 0.8448 0.0
C2244 C 0.25035 0.51998 0.8442 0.0
H2245 H 0.39473 0.54037 0.85262 0.0
H2246 H 0.34436 0.52907 0.85409 0.0
H2247 H 0.3132 0.56482 0.83507 0.0
H2248 H 0.16434 0.50558 0.83358 0.0
H2249 H 0.21125 0.50761 0.83283 0.0
C2250 C 0.51579 0.80336 1.00697 0.0
C2251 C 0.51718 0.78988 0.01365 0.0
C2252 C 0.495 0.81199 1.00617 0.0
C2253 C 0.44931 0.83268 0.01683 0.0
H2254 H 0.39565 0.80155 1.00005 0.0
C2255 C 0.34059 0.83253 0.01651 0.0
C2256 C 0.32766 0.83177 1.00954 0.0
C2257 C 0.36662 0.83202 0.01677 0.0
C2258 C 0.41076 0.81113 1.00468 0.0
H2259 H 0.49836 0.77531 0.02477 0.0
H2260 H 0.46271 0.79105 0.02343 0.0
H2261 H 0.4361 0.79261 1.0008 0.0
H2262 H 0.3327 0.83203 0.99741 0.0
H2263 H 0.37883 0.83301 0.99783 0.0
H2264 H 0.42449 0.85163 0.02069 0.0
C2265 C 0.4775 0.79477 0.01881 0.0
C2266 C 0.4339 0.8058 1.00512 0.0
C2267 C 0.49778 0.78561 0.01954 0.0
C2268 C 0.3421 0.83237 1.00286 0.0
C2269 C 0.36842 0.83256 1.00312 0.0
C2270 C 0.42651 0.83853 0.01632 0.0
C2271 C 0.47575 0.80786 0.0121 0.0
C2272 C 0.45307 0.81606 0.01126 0.0
C2273 C 0.3806 0.83133 1.01007 0.0
C2274 C 0.40653 0.8274 0.01031 0.0
H2275 H 0.53047 0.80684 1.00233 0.0
H2276 H 0.49405 0.82203 1.00093 0.0
H2277 H 0.46398 0.84104 0.0216 0.0
H2278 H 0.32971 0.83174 0.02175 0.0
H2279 H 0.37493 0.83073 0.02225 0.0
C2280 C 0.21258 0.71808 1.00707 0.0
C2281 C 0.22298 0.73272 0.01396 0.0
C2282 C 0.20602 0.68918 1.00631 0.0
C2283 C 0.21886 0.63388 0.01597 0.0
H2284 H 0.15703 0.57973 1.00288 0.0
C2285 C 0.17775 0.51129 0.01667 0.0
C2286 C 0.17996 0.49994 1.0097 0.0
C2287 C 0.18009 0.53863 0.01704 0.0
C2288 C 0.17434 0.59469 1.00656 0.0
H2289 H 0.23378 0.72841 0.02551 0.0
H2290 H 0.2211 0.6782 0.02434 0.0
H2291 H 0.16737 0.62986 1.00377 0.0
H2292 H 0.18458 0.50753 0.99762 0.0
H2293 H 0.18775 0.55492 0.99826 0.0
H2294 H 0.22516 0.59841 0.0189 0.0
C2295 C 0.21908 0.68897 0.01939 0.0
C2296 C 0.18048 0.6235 1.00703 0.0
C2297 C 0.22616 0.71785 0.02009 0.0
C2298 C 0.18285 0.51574 1.00307 0.0
C2299 C 0.18458 0.5428 1.00343 0.0
C2300 C 0.21232 0.60505 0.01561 0.0
C2301 C 0.20928 0.67422 0.01247 0.0
C2302 C 0.20282 0.64354 0.01177 0.0
C2303 C 0.18405 0.55486 0.01044 0.0
C2304 C 0.19001 0.58516 0.01091 0.0
H2305 H 0.20994 0.72909 1.00225 0.0
H2306 H 0.19886 0.6788 1.00086 0.0
H2307 H 0.2368 0.64864 0.0195 0.0
H2308 H 0.17571 0.49975 0.02188 0.0
H2309 H 0.17949 0.54742 0.02251 0.0
C2310 C 0.2909 0.49318 1.00732 0.0
C2311 C 0.27602 0.48871 0.01417 0.0
C2312 C 0.31996 0.51523 1.00668 0.0
C2313 C 0.37473 0.5827 0.01659 0.0
H2314 H 0.42908 0.57687 1.00316 0.0
C2315 C 0.49653 0.66651 0.01689 0.0
C2316 C 0.507 0.68054 1.00992 0.0
C2317 C 0.46971 0.64092 0.01731 0.0
C2318 C 0.41406 0.57867 1.00693 0.0
H2319 H 0.28 0.50268 0.02582 0.0
H2320 H 0.33063 0.5397 0.02487 0.0
H2321 H 0.37933 0.53628 1.00414 0.0
H2322 H 0.49848 0.67782 0.99788 0.0
H2323 H 0.45193 0.6326 0.99862 0.0
H2324 H 0.40974 0.62474 0.01951 0.0
C2325 C 0.3199 0.52739 0.01985 0.0
C2326 C 0.38548 0.55556 1.00746 0.0
C2327 C 0.29084 0.50592 0.02043 0.0
C2328 C 0.49092 0.66755 1.00333 0.0
C2329 C 0.46437 0.64164 1.00375 0.0
C2330 C 0.40333 0.60542 0.01617 0.0
C2331 C 0.33481 0.53285 0.01294 0.0
C2332 C 0.36538 0.55725 0.0123 0.0
C2333 C 0.45316 0.62857 0.01076 0.0
C2334 C 0.42324 0.60367 0.01134 0.0
H2335 H 0.27986 0.48019 1.00241 0.0
H2336 H 0.33048 0.51887 1.00124 0.0
H2337 H 0.35988 0.5854 0.02021 0.0
H2338 H 0.50834 0.67603 0.02206 0.0
H2339 H 0.46154 0.63114 0.02279 0.0
C2340 C 0.22435 0.51049 0.5186 0.0
C2341 C 0.21875 0.49019 0.51286 0.0
C2342 C 0.21603 0.53136 0.51779 0.0
C2343 C 0.20411 0.57419 0.50399 0.0
H2344 H 0.16227 0.58674 0.5201 0.0
C2345 C 0.17898 0.66758 0.50231 0.0
C2346 C 0.1816 0.68275 0.50903 0.0
C2347 C 0.17893 0.64131 0.50246 0.0
C2348 C 0.17425 0.58382 0.51558 0.0
H2349 H 0.20042 0.47597 0.5017 0.0
H2350 H 0.18655 0.51332 0.50015 0.0
H2351 H 0.17149 0.54637 0.5209 0.0
H2352 H 0.18568 0.68194 0.52119 0.0
H2353 H 0.18668 0.63685 0.52146 0.0
H2354 H 0.20842 0.61241 0.49884 0.0
C2355 C 0.19704 0.51266 0.50533 0.0
C2356 C 0.17931 0.56052 0.51603 0.0
C2357 C 0.20488 0.49131 0.50622 0.0
C2358 C 0.18336 0.67067 0.51592 0.0
C2359 C 0.1838 0.64464 0.51606 0.0
C2360 C 0.19949 0.59781 0.5036 0.0
C2361 C 0.20239 0.53275 0.51114 0.0
C2362 C 0.19461 0.55571 0.51029 0.0
C2363 C 0.18201 0.62976 0.50932 0.0
C2364 C 0.18484 0.60322 0.50944 0.0
H2365 H 0.23505 0.51017 0.52379 0.0
H2366 H 0.22072 0.54678 0.52231 0.0
H2367 H 0.21621 0.57111 0.49953 0.0
H2368 H 0.17732 0.67619 0.49691 0.0
H2369 H 0.1768 0.63024 0.49717 0.0
C2370 C 0.49832 0.71383 0.51876 0.0
C2371 C 0.51765 0.72921 0.51287 0.0
C2372 C 0.47775 0.68452 0.51791 0.0
C2373 C 0.43298 0.6311 0.50418 0.0
H2374 H 0.42467 0.5746 0.51925 0.0
C2375 C 0.33986 0.51286 0.50205 0.0
C2376 C 0.3264 0.49881 0.50882 0.0
C2377 C 0.36618 0.53905 0.50216 0.0
C2378 C 0.42637 0.59007 0.51503 0.0
H2379 H 0.53054 0.7262 0.50146 0.0
H2380 H 0.49359 0.67484 0.49986 0.0
H2381 H 0.46464 0.62443 0.52019 0.0
H2382 H 0.33022 0.50081 0.521 0.0
H2383 H 0.37533 0.54701 0.52126 0.0
H2384 H 0.39394 0.59768 0.49925 0.0
C2385 C 0.49483 0.68551 0.50517 0.0
C2386 C 0.44946 0.61857 0.51555 0.0
C2387 C 0.51592 0.71477 0.50608 0.0
C2388 C 0.34024 0.51101 0.51569 0.0
C2389 C 0.36626 0.53754 0.51582 0.0
C2390 C 0.40955 0.60277 0.50374 0.0
C2391 C 0.47567 0.67013 0.5111 0.0
C2392 C 0.45279 0.6394 0.51017 0.0
C2393 C 0.37939 0.55224 0.50905 0.0
C2394 C 0.40567 0.58186 0.50921 0.0
H2395 H 0.49917 0.7244 0.52405 0.0
H2396 H 0.46304 0.67322 0.52253 0.0
H2397 H 0.43492 0.64687 0.50001 0.0
H2398 H 0.3298 0.50381 0.49665 0.0
H2399 H 0.37588 0.54913 0.49682 0.0
C2400 C 0.49922 0.83676 0.51533 0.0
C2401 C 0.50629 0.82656 0.50881 0.0
C2402 C 0.47297 0.83678 0.51579 0.0
C2403 C 0.41216 0.83212 0.50444 0.0
H2404 H 0.36784 0.79944 0.52276 0.0
C2405 C 0.28993 0.79673 0.50702 0.0
C2406 C 0.27988 0.79989 0.51409 0.0
C2407 C 0.31862 0.80279 0.50617 0.0
C2408 C 0.38003 0.80911 0.51765 0.0
H2409 H 0.4918 0.80959 0.49752 0.0
H2410 H 0.44622 0.80975 0.49831 0.0
H2411 H 0.41627 0.80608 0.5217 0.0
H2412 H 0.29215 0.81313 0.5257 0.0
H2413 H 0.34215 0.82454 0.52419 0.0
H2414 H 0.37583 0.83512 0.50038 0.0
C2415 C 0.46094 0.81776 0.50307 0.0
C2416 C 0.40788 0.81288 0.51704 0.0
C2417 C 0.48705 0.81753 0.50264 0.0
C2418 C 0.29923 0.81022 0.5202 0.0
C2419 C 0.32788 0.81654 0.51934 0.0
C2420 C 0.38431 0.82853 0.50506 0.0
C2421 C 0.4533 0.82682 0.50971 0.0
C2422 C 0.42426 0.8243 0.51042 0.0
C2423 C 0.33786 0.81235 0.51236 0.0
C2424 C 0.36782 0.81688 0.51167 0.0
H2425 H 0.51351 0.84389 0.52019 0.0
H2426 H 0.46789 0.84425 0.52094 0.0
H2427 H 0.42432 0.84119 0.49928 0.0
H2428 H 0.27541 0.78873 0.50222 0.0
H2429 H 0.3254 0.79906 0.50072 0.0
C2430 C 0.17487 0.55191 0.33293 0.0
C2431 C 0.15728 0.54926 0.33912 0.0
C2432 C 0.19679 0.545 0.33362 0.0
C2433 C 0.22585 0.50906 0.34626 0.0
H2434 H 0.29495 0.5545 0.33421 0.0
C2435 C 0.33833 0.51641 0.35041 0.0
C2436 C 0.35122 0.51323 0.34382 0.0
C2437 C 0.31245 0.51715 0.35001 0.0
C2438 C 0.27568 0.54147 0.33756 0.0
H2439 H 0.14862 0.53718 0.3509 0.0
H2440 H 0.18804 0.52642 0.35227 0.0
H2441 H 0.25509 0.5642 0.33341 0.0
H2442 H 0.3466 0.50743 0.33167 0.0
H2443 H 0.3018 0.50947 0.33097 0.0
H2444 H 0.24768 0.48744 0.35066 0.0
C2445 C 0.18437 0.53298 0.34679 0.0
C2446 C 0.25265 0.54686 0.33708 0.0
C2447 C 0.16187 0.5393 0.34603 0.0
C2448 C 0.33717 0.50978 0.33685 0.0
C2449 C 0.31163 0.51109 0.33644 0.0
C2450 C 0.24926 0.50408 0.34685 0.0
C2451 C 0.20235 0.536 0.34059 0.0
C2452 C 0.22718 0.53053 0.34135 0.0
C2453 C 0.29931 0.51528 0.343 0.0
C2454 C 0.27425 0.52006 0.34243 0.0
H2455 H 0.17158 0.55918 0.32749 0.0
H2456 H 0.20937 0.54675 0.32864 0.0
H2457 H 0.20659 0.49577 0.34958 0.0
H2458 H 0.34861 0.51906 0.35586 0.0
H2459 H 0.30345 0.52052 0.35514 0.0
C2460 C 0.47222 0.62534 0.34702 0.0
C2461 C 0.45965 0.61097 0.34021 0.0
C2462 C 0.48031 0.65457 0.34795 0.0
C2463 C 0.50176 0.72156 0.3376 0.0
H2464 H 0.46643 0.74197 0.3538 0.0
C2465 C 0.4989 0.82845 0.33731 0.0
C2466 C 0.49701 0.84058 0.34417 0.0
C2467 C 0.49868 0.80207 0.33722 0.0
C2468 C 0.47715 0.73702 0.34934 0.0
H2469 H 0.44615 0.61589 0.32902 0.0
H2470 H 0.46104 0.66697 0.33057 0.0
H2471 H 0.4587 0.69297 0.35308 0.0
H2472 H 0.49527 0.83564 0.35634 0.0
H2473 H 0.49651 0.7906 0.35623 0.0
H2474 H 0.52064 0.76549 0.33388 0.0
C2475 C 0.46442 0.65566 0.3352 0.0
C2476 C 0.47253 0.70879 0.34892 0.0
C2477 C 0.45576 0.62639 0.33433 0.0
C2478 C 0.49646 0.82664 0.35096 0.0
C2479 C 0.49687 0.80061 0.35088 0.0
C2480 C 0.50689 0.74996 0.33809 0.0
C2481 C 0.47658 0.66999 0.34202 0.0
C2482 C 0.48428 0.70066 0.34296 0.0
C2483 C 0.49715 0.78746 0.344 0.0
C2484 C 0.49413 0.75798 0.34388 0.0
H2485 H 0.47536 0.61387 0.35164 0.0
H2486 H 0.48962 0.66518 0.35327 0.0
H2487 H 0.51126 0.71584 0.33298 0.0
H2488 H 0.49905 0.83856 0.33199 0.0
H2489 H 0.49846 0.79262 0.33179 0.0
C2490 C 0.17743 0.67018 0.3362 0.0
C2491 C 0.16679 0.65635 0.34318 0.0
C2492 C 0.20426 0.69579 0.33578 0.0
C2493 C 0.25954 0.75835 0.34621 0.0
H2494 H 0.3143 0.75185 0.33312 0.0
C2495 C 0.38267 0.84419 0.34613 0.0
C2496 C 0.39788 0.8487 0.33933 0.0
C2497 C 0.35361 0.82204 0.3467 0.0
C2498 C 0.29929 0.7545 0.33669 0.0
H2499 H 0.17502 0.6594 0.35524 0.0
H2500 H 0.22152 0.70465 0.3545 0.0
H2501 H 0.26444 0.71245 0.33369 0.0
H2502 H 0.39444 0.83466 0.32771 0.0
H2503 H 0.34384 0.79751 0.32853 0.0
H2504 H 0.2941 0.80073 0.34908 0.0
C2505 C 0.20925 0.69546 0.34936 0.0
C2506 C 0.27068 0.73173 0.33703 0.0
C2507 C 0.18271 0.66953 0.34977 0.0
C2508 C 0.38337 0.8314 0.33306 0.0
C2509 C 0.35431 0.80984 0.33356 0.0
C2510 C 0.28812 0.7815 0.34575 0.0
C2511 C 0.22064 0.70837 0.34234 0.0
C2512 C 0.25054 0.73337 0.3418 0.0
C2513 C 0.33906 0.80436 0.34042 0.0
C2514 C 0.30846 0.7799 0.34098 0.0
H2515 H 0.16575 0.66047 0.33102 0.0
H2516 H 0.21257 0.70544 0.3303 0.0
H2517 H 0.24436 0.76008 0.34994 0.0
H2518 H 0.39345 0.85724 0.35106 0.0
H2519 H 0.34284 0.8184 0.3521 0.0
C2520 C 0.21507 0.31953 0.17137 0.0
C2521 C 0.20153 0.30127 0.1776 0.0
C2522 C 0.24539 0.3354 0.17081 0.0
C2523 C 0.31323 0.3603 0.18212 0.0
H2524 H 0.34828 0.36847 0.16242 0.0
C2525 C 0.43491 0.39688 0.17784 0.0
C2526 C 0.44952 0.41654 0.17195 0.0
C2527 C 0.40488 0.38458 0.17872 0.0
C2528 C 0.33884 0.36665 0.16796 0.0
H2529 H 0.20954 0.2856 0.18813 0.0
H2530 H 0.26198 0.31252 0.18707 0.0
H2531 H 0.29567 0.34392 0.16355 0.0
H2532 H 0.44424 0.43916 0.16246 0.0
H2533 H 0.39183 0.41755 0.16395 0.0
H2534 H 0.35656 0.38242 0.18652 0.0
C2535 C 0.24934 0.31521 0.18268 0.0
C2536 C 0.30861 0.35263 0.16861 0.0
C2537 C 0.2191 0.29956 0.18328 0.0
C2538 C 0.43357 0.42401 0.16704 0.0
C2539 C 0.40353 0.41151 0.16787 0.0
C2540 C 0.34346 0.37407 0.18147 0.0
C2541 C 0.26298 0.33326 0.17643 0.0
C2542 C 0.29532 0.34914 0.1757 0.0
C2543 C 0.38877 0.39148 0.17369 0.0
C2544 C 0.35663 0.37735 0.17438 0.0
H2545 H 0.20227 0.32152 0.16691 0.0
H2546 H 0.25501 0.34942 0.16597 0.0
H2547 H 0.30393 0.35857 0.18766 0.0
H2548 H 0.44665 0.39076 0.18173 0.0
H2549 H 0.39415 0.36909 0.18323 0.0
C2550 C 0.58515 0.0121 0.16702 0.0
C2551 C 0.5916 0.03507 0.172 0.0
C2552 C 0.59798 0.99488 0.16796 0.0
C2553 C 0.66087 0.99528 0.17735 0.0
H2554 H 0.61978 0.91364 0.17214 0.0
C2555 C 0.70766 0.92059 0.18391 0.0
C2556 C 0.70663 0.90213 0.17808 0.0
C2557 C 0.69238 0.93555 0.18332 0.0
C2558 C 0.6316 0.93646 0.17357 0.0
H2559 H 0.61574 0.05742 0.18203 0.0
H2560 H 0.63744 0.02694 0.18383 0.0
H2561 H 0.59523 0.9418 0.17104 0.0
H2562 H 0.68786 0.88441 0.16713 0.0
H2563 H 0.66093 0.91037 0.16614 0.0
H2564 H 0.69708 0.98978 0.17998 0.0
C2565 C 0.62315 0.02262 0.17905 0.0
C2566 C 0.61757 0.95269 0.17292 0.0
C2567 C 0.61054 0.04001 0.17806 0.0
C2568 C 0.68921 0.89843 0.17173 0.0
C2569 C 0.67367 0.91323 0.17117 0.0
C2570 C 0.67476 0.979 0.17807 0.0
C2571 C 0.61737 1.00001 0.17396 0.0
C2572 C 0.63202 0.98239 0.17479 0.0
C2573 C 0.67543 0.9323 0.17692 0.0
C2574 C 0.66035 0.94941 0.17617 0.0
H2575 H 0.57069 0.00782 0.16228 0.0
H2576 H 0.59321 0.97802 0.16386 0.0
H2577 H 0.67303 0.01817 0.17869 0.0
H2578 H 0.72077 0.92404 0.1889 0.0
H2579 H 0.6939 0.94975 0.18789 0.0
C2580 C 0.11115 0.79177 0.1726 0.0
C2581 C 0.10539 0.80571 0.17854 0.0
C2582 C 0.09621 0.76144 0.17208 0.0
C2583 C 0.02781 0.69713 0.17799 0.0
H2584 H 0.06611 0.65437 0.17229 0.0
C2585 C 0.96612 0.57199 0.17781 0.0
C2586 C 0.97197 0.55816 0.17188 0.0
C2587 C 0.98356 0.60189 0.17894 0.0
C2588 C 0.05498 0.66597 0.1738 0.0
H2589 H 0.07965 0.79836 0.18868 0.0
H2590 H 0.0538 0.74574 0.18775 0.0
H2591 H 0.09444 0.70702 0.1736 0.0
H2592 H 1.00097 0.56469 0.16256 0.0
H2593 H 0.03106 0.61693 0.16441 0.0
H2594 H 0.98831 0.65637 0.17807 0.0
C2595 C 0.06968 0.75825 0.18346 0.0
C2596 C 0.07127 0.69618 0.17457 0.0
C2597 C 0.0847 0.7885 0.18401 0.0
C2598 C 0.99596 0.57475 0.16719 0.0
C2599 C 0.01331 0.6047 0.16828 0.0
C2600 C 0.01151 0.667 0.17719 0.0
C2601 C 0.075 0.74432 0.17744 0.0
C2602 C 0.05788 0.71214 0.17668 0.0
C2603 C 0.00719 0.61877 0.17413 0.0
C2604 C 0.02483 0.65093 0.17509 0.0
H2605 H 0.1269 0.80424 0.16828 0.0
H2606 H 0.1007 0.75144 0.16734 0.0
H2607 H 0.01669 0.70877 0.17949 0.0
H2608 H 0.94791 0.55972 0.18155 0.0
H2609 H 0.97847 0.61176 0.18359 0.0
C2610 C 0.31492 0.2155 0.33699 0.0
C2611 C 0.304 0.19885 0.34359 0.0
C2612 C 0.33075 0.24581 0.33734 0.0
C2613 C 0.3683 0.30798 0.35088 0.0
H2614 H 0.35879 0.35064 0.33447 0.0
C2615 C 0.4305 0.43341 0.35061 0.0
C2616 C 0.41632 0.4474 0.34762 0.0
C2617 C 0.41857 0.40343 0.34979 0.0
C2618 C 0.3615 0.33918 0.33916 0.0
H2619 H 0.30131 0.20104 0.35576 0.0
H2620 H 0.32781 0.25371 0.35638 0.0
H2621 H 0.33438 0.29821 0.33391 0.0
H2622 H 0.37863 0.44108 0.34137 0.0
H2623 H 0.35715 0.3888 0.3402 0.0
H2624 H 0.39399 0.34884 0.35634 0.0
C2625 C 0.32503 0.24353 0.35092 0.0
C2626 C 0.34784 0.30892 0.33878 0.0
C2627 C 0.30965 0.2132 0.35057 0.0
C2628 C 0.39013 0.43089 0.34371 0.0
C2629 C 0.37793 0.40085 0.34299 0.0
C2630 C 0.38159 0.33821 0.35132 0.0
C2631 C 0.33564 0.26035 0.3443 0.0
C2632 C 0.35095 0.2928 0.34464 0.0
C2633 C 0.39188 0.38658 0.34605 0.0
C2634 C 0.37834 0.35431 0.34548 0.0
H2635 H 0.31118 0.20511 0.33152 0.0
H2636 H 0.33909 0.25777 0.33213 0.0
H2637 H 0.37171 0.29657 0.35547 0.0
H2638 H 0.45086 0.44566 0.3536 0.0
H2639 H 0.43039 0.39352 0.35208 0.0
C2640 C 0.5745 0.99462 0.35314 0.0
C2641 C 0.5594 0.97102 0.34822 0.0
C2642 C 0.60451 0.01287 0.35242 0.0
C2643 C 0.66555 0.03603 0.33903 0.0
H2644 H 0.7127 0.05637 0.35714 0.0
C2645 C 0.78945 0.08411 0.33778 0.0
C2646 C 0.80708 0.10475 0.3432 0.0
C2647 C 0.75925 0.07001 0.33831 0.0
C2648 C 0.6999 0.05135 0.35203 0.0
H2649 H 0.56367 0.94843 0.33857 0.0
H2650 H 0.61602 0.98033 0.33728 0.0
H2651 H 0.66004 0.02787 0.35815 0.0
H2652 H 0.80653 0.12714 0.35337 0.0
H2653 H 0.7537 0.10289 0.35422 0.0
H2654 H 0.7053 0.05946 0.33289 0.0
C2655 C 0.60472 0.98481 0.34169 0.0
C2656 C 0.66965 0.03492 0.35261 0.0
C2657 C 0.57476 0.96644 0.34245 0.0
C2658 C 0.79365 0.11131 0.3491 0.0
C2659 C 0.76333 0.09724 0.34962 0.0
C2660 C 0.69577 0.05259 0.33844 0.0
C2661 C 0.62002 0.00808 0.34671 0.0
C2662 C 0.65212 0.02678 0.34611 0.0
C2663 C 0.74571 0.07623 0.34426 0.0
C2664 C 0.71341 0.06019 0.34493 0.0
H2665 H 0.56322 0.99874 0.35763 0.0
H2666 H 0.61556 0.03079 0.35632 0.0
H2667 H 0.65267 0.03054 0.33392 0.0
H2668 H 0.79895 0.07835 0.33316 0.0
H2669 H 0.74652 0.05366 0.33414 0.0
C2670 C 0.89956 0.68742 0.34939 0.0
C2671 C 0.90297 0.70501 0.34309 0.0
C2672 C 0.91437 0.67188 0.34979 0.0
C2673 C 0.97974 0.67321 0.34248 0.0
H2674 H 0.94309 0.59362 0.34944 0.0
C2675 C 0.0406 0.60914 0.34168 0.0
C2676 C 0.03662 0.59062 0.34777 0.0
C2677 C 0.02296 0.62152 0.34087 0.0
C2678 C 0.9538 0.61596 0.34757 0.0
H2679 H 0.92432 0.71944 0.33222 0.0
H2680 H 0.95002 0.69251 0.33295 0.0
H2681 H 0.91477 0.61811 0.34862 0.0
H2682 H 0.01072 0.57008 0.35772 0.0
H2683 H 0.98038 0.59219 0.35644 0.0
H2684 H 0.01887 0.67151 0.34158 0.0
C2685 C 0.93607 0.6909 0.33759 0.0
C2686 C 0.9375 0.62996 0.34709 0.0
C2687 C 0.92114 0.70621 0.33716 0.0
C2688 C 0.01426 0.58425 0.35295 0.0
C2689 C 0.99675 0.59682 0.35219 0.0
C2690 C 0.99607 0.65934 0.34302 0.0
C2691 C 0.93313 0.67378 0.34394 0.0
C2692 C 0.95027 0.65873 0.34451 0.0
C2693 C 1.00104 0.61589 0.34618 0.0
C2694 C 0.98335 0.63047 0.34555 0.0
H2695 H 0.88575 0.68593 0.35406 0.0
H2696 H 0.91176 0.65901 0.35477 0.0
H2697 H 0.99038 0.69555 0.3406 0.0
H2698 H 0.05752 0.61424 0.33756 0.0
H2699 H 0.02657 0.63555 0.33608 0.0
C2700 C 0.57805 0.6018 0.85668 0.0
C2701 C 0.55923 0.59727 0.85062 0.0
C2702 C 0.60785 0.61407 0.85549 0.0
C2703 C 0.66339 0.62989 0.8407 0.0
H2704 H 0.71518 0.68429 0.85567 0.0
C2705 C 0.78811 0.70084 0.8364 0.0
C2706 C 0.80605 0.70527 0.84269 0.0
C2707 C 0.75788 0.68632 0.83717 0.0
C2708 C 0.70107 0.66888 0.85148 0.0
H2709 H 0.55679 0.60191 0.83854 0.0
H2710 H 0.6091 0.6238 0.83642 0.0
H2711 H 0.66302 0.66228 0.85727 0.0
H2712 H 0.80592 0.697 0.8547 0.0
H2713 H 0.75332 0.67161 0.85601 0.0
H2714 H 0.70169 0.63687 0.83488 0.0
C2715 C 0.60076 0.61746 0.8421 0.0
C2716 C 0.67107 0.65621 0.85239 0.0
C2717 C 0.5708 0.60503 0.84331 0.0
C2718 C 0.7929 0.69411 0.84973 0.0
C2719 C 0.76268 0.67971 0.85049 0.0
C2720 C 0.69348 0.64268 0.83977 0.0
C2721 C 0.61972 0.62236 0.8482 0.0
C2722 C 0.65176 0.63637 0.84705 0.0
C2723 C 0.74478 0.67597 0.84425 0.0
C2724 C 0.71271 0.66221 0.84518 0.0
H2725 H 0.56974 0.59589 0.86238 0.0
H2726 H 0.62158 0.61692 0.8603 0.0
H2727 H 0.64924 0.61449 0.83651 0.0
H2728 H 0.79739 0.70909 0.83089 0.0
H2729 H 0.74482 0.68403 0.83224 0.0
C2730 C 0.31306 0.09942 0.85056 0.0
C2731 C 0.30249 0.10172 0.84347 0.0
C2732 C 0.32753 0.0837 0.8514 0.0
C2733 C 0.36587 0.05265 0.84081 0.0
H2734 H 0.34484 1.00115 0.85805 0.0
C2735 C 0.40276 0.96712 0.844 0.0
C2736 C 0.40984 0.96239 0.85131 0.0
C2737 C 0.39057 0.98488 0.84289 0.0
C2738 C 0.35132 0.01568 0.85325 0.0
H2739 H 0.29981 0.08991 0.83164 0.0
H2740 H 0.32498 0.06261 0.83311 0.0
H2741 H 0.32296 0.03143 0.85648 0.0
H2742 H 0.41025 0.97287 0.86314 0.0
H2743 H 0.38964 0.00413 0.86121 0.0
H2744 H 0.39431 0.03691 0.83759 0.0
C2745 C 0.32217 0.07304 0.83803 0.0
C2746 C 0.33873 0.03308 0.85236 0.0
C2747 C 0.30758 0.08863 0.8372 0.0
C2748 C 0.40487 0.976 0.85745 0.0
C2749 C 0.39284 0.99378 0.85634 0.0
C2750 C 0.37858 0.0353 0.84172 0.0
C2751 C 0.33196 0.07 0.84516 0.0
C2752 C 0.34585 0.05185 0.84613 0.0
C2753 C 0.38525 0.99829 0.84906 0.0
C2754 C 0.37154 0.01661 0.84797 0.0
H2755 H 0.30963 0.10922 0.85552 0.0
H2756 H 0.33516 0.08218 0.85696 0.0
H2757 H 0.37206 0.06705 0.83599 0.0
H2758 H 0.40623 0.95676 0.83917 0.0
H2759 H 0.38476 0.98758 0.83721 0.0
C2760 C 0.92036 0.22048 0.83741 0.0
C2761 C 0.90527 0.20228 0.84353 0.0
C2762 C 0.93564 0.25065 0.83825 0.0
C2763 C 0.97152 0.30719 0.85274 0.0
H2764 H 0.97129 0.35873 0.8373 0.0
C2765 C 0.02894 0.43067 0.85748 0.0
C2766 C 0.04359 0.44904 0.85138 0.0
C2767 C 0.01108 0.40085 0.85639 0.0
C2768 C 0.97192 0.34469 0.84163 0.0
H2769 H 0.89398 0.20175 0.85532 0.0
H2770 H 0.92069 0.25442 0.85679 0.0
H2771 H 0.94145 0.30632 0.83569 0.0
H2772 H 0.051 0.45068 0.83932 0.0
H2773 H 0.0202 0.39838 0.83739 0.0
H2774 H 1.00232 0.3453 0.85863 0.0
C2775 C 0.92084 0.24527 0.85134 0.0
C2776 C 0.95471 0.3146 0.84071 0.0
C2777 C 0.90535 0.21506 0.85048 0.0
C2778 C 0.03984 0.43702 0.84412 0.0
C2779 C 0.02206 0.40705 0.84303 0.0
C2780 C 0.98885 0.33721 0.85364 0.0
C2781 C 0.93642 0.26343 0.84526 0.0
C2782 C 0.95424 0.29548 0.84627 0.0
C2783 C 0.00758 0.38851 0.84916 0.0
C2784 C 0.98925 0.35643 0.84811 0.0
H2785 H 0.92078 0.21144 0.83196 0.0
H2786 H 0.94758 0.26393 0.83346 0.0
H2787 H 0.97214 0.29311 0.85706 0.0
H2788 H 0.03129 0.43935 0.86313 0.0
H2789 H 0.99989 0.3875 0.86123 0.0
C2790 C 0.585 0.57333 0.66728 0.0
C2791 C 0.59269 0.55773 0.67225 0.0
C2792 C 0.59742 0.60339 0.66801 0.0
C2793 C 0.66159 0.66727 0.67629 0.0
H2794 H 0.61822 0.70636 0.67207 0.0
C2795 C 0.70865 0.78843 0.68259 0.0
C2796 C 0.70573 0.80555 0.67699 0.0
C2797 C 0.69348 0.75824 0.68207 0.0
C2798 C 0.63067 0.69576 0.6732 0.0
H2799 H 0.61854 0.56112 0.68206 0.0
H2800 H 0.63973 0.61344 0.68345 0.0
H2801 H 0.59405 0.65352 0.67129 0.0
H2802 H 0.68376 0.80409 0.66654 0.0
H2803 H 0.65706 0.75108 0.66565 0.0
H2804 H 0.69809 0.70941 0.67827 0.0
C2805 C 0.62469 0.60266 0.67886 0.0
C2806 C 0.61684 0.66546 0.67275 0.0
C2807 C 0.61241 0.57264 0.6781 0.0
C2808 C 0.68655 0.79159 0.67095 0.0
C2809 C 0.67118 0.76123 0.67045 0.0
C2810 C 0.67531 0.69746 0.67679 0.0
C2811 C 0.61769 0.61854 0.67376 0.0
C2812 C 0.63212 0.65079 0.67431 0.0
C2813 C 0.67484 0.74424 0.67595 0.0
C2814 C 0.66003 0.71209 0.67528 0.0
H2815 H 0.56986 0.5624 0.66272 0.0
H2816 H 0.5917 0.61483 0.66393 0.0
H2817 H 0.67429 0.6569 0.67736 0.0
H2818 H 0.72306 0.79832 0.68735 0.0
H2819 H 0.69641 0.74581 0.68647 0.0
C2820 C 0.43484 0.04113 0.67852 0.0
C2821 C 0.44972 0.03576 0.67278 0.0
C2822 C 0.40478 0.02346 0.6793 0.0
C2823 C 0.34193 0.95225 0.67346 0.0
H2824 H 0.29785 0.98982 0.67852 0.0
C2825 C 0.21592 0.89566 0.67126 0.0
C2826 C 0.20163 0.90106 0.67717 0.0
C2827 C 0.24631 0.9107 0.67086 0.0
C2828 C 0.30984 0.97892 0.67717 0.0
H2829 H 0.44496 0.00737 0.66345 0.0
H2830 H 0.39254 0.97697 0.66469 0.0
H2831 H 0.35042 0.01851 0.67768 0.0
H2832 H 0.20832 0.92605 0.68742 0.0
H2833 H 0.26091 0.95203 0.68672 0.0
H2834 H 0.30102 0.91268 0.67283 0.0
C2835 C 0.40399 0.99447 0.66868 0.0
C2836 C 0.34007 0.99538 0.67672 0.0
C2837 C 0.43407 0.01203 0.66794 0.0
C2838 C 0.21846 0.92137 0.68275 0.0
C2839 C 0.2487 0.93645 0.68233 0.0
C2840 C 0.31161 0.93579 0.67387 0.0
C2841 C 0.38886 1.00011 0.67433 0.0
C2842 C 0.35658 0.9823 0.67489 0.0
C2843 C 0.26302 0.9316 0.67634 0.0
C2844 C 0.29522 0.94892 0.67577 0.0
H2845 H 0.4464 0.05914 0.68237 0.0
H2846 H 0.39403 0.02816 0.68381 0.0
H2847 H 0.35388 0.94131 0.67213 0.0
H2848 H 0.20365 0.88017 0.66686 0.0
H2849 H 0.2567 0.90656 0.66615 0.0
C2850 C 0.98098 0.40502 0.66384 0.0
C2851 C 0.96586 0.40794 0.66995 0.0
C2852 C 0.99924 0.39351 0.66488 0.0
C2853 C 0.03814 0.3758 0.67959 0.0
H2854 H 0.03969 0.32619 0.66379 0.0
C2855 C 0.09014 0.30317 0.6832 0.0
C2856 C 0.10603 0.3014 0.67708 0.0
C2857 C 0.07479 0.31805 0.68251 0.0
C2858 C 0.0398 0.34027 0.66822 0.0
H2859 H 0.95809 0.4013 0.68198 0.0
H2860 H 0.9895 0.38046 0.68382 0.0
H2861 H 0.00906 0.34772 0.66236 0.0
H2862 H 0.11873 0.31458 0.66546 0.0
H2863 H 0.09183 0.34042 0.66425 0.0
H2864 H 0.06847 0.3676 0.68551 0.0
C2865 C 0.98773 0.38759 0.67822 0.0
C2866 C 0.02223 0.35271 0.6674 0.0
C2867 C 0.9696 0.39939 0.67717 0.0
C2868 C 0.10674 0.31548 0.6703 0.0
C2869 C 0.09115 0.33013 0.66958 0.0
C2870 C 0.05555 0.36312 0.68044 0.0
C2871 C 1.00263 0.38426 0.67207 0.0
C2872 C 0.02122 0.37078 0.67305 0.0
C2873 C 0.07472 0.33131 0.67565 0.0
C2874 C 0.05667 0.34529 0.67475 0.0
H2875 H 0.97867 0.41161 0.65821 0.0
H2876 H 0.01078 0.39198 0.66004 0.0
H2877 H 0.03828 0.38987 0.68402 0.0
H2878 H 0.08914 0.29265 0.68852 0.0
H2879 H 0.06221 0.31836 0.68728 0.0
C2880 C 0.88214 0.65656 0.50503 0.0
C2881 C 0.86886 0.63719 0.51106 0.0
C2882 C 0.91245 0.67254 0.5044 0.0
C2883 C 0.98063 0.69608 0.51537 0.0
H2884 H 0.01484 0.70486 0.49553 0.0
C2885 C 0.10185 0.73165 0.51079 0.0
C2886 C 0.11632 0.75041 0.50473 0.0
C2887 C 0.07195 0.72005 0.51179 0.0
C2888 C 0.00568 0.70294 0.50111 0.0
H2889 H 0.87724 0.6198 0.52123 0.0
H2890 H 0.92967 0.6471 0.52008 0.0
H2891 H 0.96231 0.68087 0.4968 0.0
H2892 H 0.11101 0.77236 0.49508 0.0
H2893 H 0.05892 0.75221 0.49682 0.0
H2894 H 0.02408 0.71769 0.51967 0.0
C2895 C 0.91684 0.65042 0.51588 0.0
C2896 C 0.97549 0.68921 0.50184 0.0
C2897 C 0.88663 0.63457 0.51652 0.0
C2898 C 0.10044 0.75786 0.49979 0.0
C2899 C 0.07055 0.74616 0.50076 0.0
C2900 C 0.01082 0.7097 0.51464 0.0
C2901 C 0.93022 0.6695 0.50979 0.0
C2902 C 0.9625 0.6854 0.50898 0.0
C2903 C 0.05584 0.72684 0.50672 0.0
C2904 C 0.02374 0.71317 0.5075 0.0
H2905 H 0.86916 0.65922 0.50073 0.0
H2906 H 0.92194 0.68732 0.49969 0.0
H2907 H 0.97151 0.69404 0.52095 0.0
H2908 H 0.11354 0.72554 0.5147 0.0
H2909 H 0.06132 0.70508 0.51641 0.0
C2910 C 0.35341 0.22858 0.50487 0.0
C2911 C 0.37238 0.23384 0.51097 0.0
C2912 C 0.33801 0.2435 0.5043 0.0
C2913 C 0.3417 0.31133 0.5105 0.0
H2914 H 0.26082 0.27387 0.50461 0.0
C2915 C 0.27874 0.37322 0.51116 0.0
C2916 C 0.25937 0.36836 0.50521 0.0
C2917 C 0.29094 0.35546 0.51206 0.0
C2918 C 0.2835 0.28476 0.50618 0.0
H2919 H 0.38931 0.25841 0.52134 0.0
H2920 H 0.36258 0.28418 0.52032 0.0
H2921 H 0.28498 0.24527 0.50565 0.0
H2922 H 0.23705 0.34075 0.49566 0.0
H2923 H 0.25877 0.31011 0.49712 0.0
H2924 H 0.3406 0.35085 0.51091 0.0
C2925 C 0.35984 0.26882 0.51594 0.0
C2926 C 0.29733 0.26833 0.50678 0.0
C2927 C 0.37506 0.25386 0.51654 0.0
C2928 C 0.25192 0.34499 0.50029 0.0
C2929 C 0.26427 0.32733 0.50116 0.0
C2930 C 0.32798 0.32776 0.50985 0.0
C2931 C 0.3414 0.26413 0.50977 0.0
C2932 C 0.32656 0.28141 0.50899 0.0
C2933 C 0.28423 0.33252 0.50701 0.0
C2934 C 0.29865 0.31473 0.50771 0.0
H2935 H 0.35081 0.21331 0.50048 0.0
H2936 H 0.32407 0.2395 0.49945 0.0
H2937 H 0.36439 0.32221 0.51207 0.0
H2938 H 0.28468 0.39093 0.51508 0.0
H2939 H 0.30571 0.35979 0.51673 0.0
C2940 C 0.66125 0.90774 0.49989 0.0
C2941 C 0.63756 0.89226 0.50476 0.0
C2942 C 0.67935 0.93772 0.50071 0.0
C2943 C 0.70217 0.99796 0.51433 0.0
H2944 H 0.72352 0.04614 0.4964 0.0
C2945 C 0.75262 0.12217 0.51608 0.0
C2946 C 0.77336 0.1398 0.51068 0.0
C2947 C 0.73795 0.09197 0.51544 0.0
C2948 C 0.71822 0.03305 0.50146 0.0
H2949 H 0.61459 0.8959 0.51441 0.0
H2950 H 0.64624 0.94824 0.51588 0.0
H2951 H 0.69454 0.99359 0.49519 0.0
H2952 H 0.79532 0.13925 0.50043 0.0
H2953 H 0.77013 0.08645 0.49938 0.0
H2954 H 0.72588 0.0373 0.52062 0.0
C2955 C 0.6509 0.93722 0.51143 0.0
C2956 C 0.7015 1.00286 0.50077 0.0
C2957 C 0.63267 0.90727 0.51057 0.0
C2958 C 0.77943 0.12637 0.50468 0.0
C2959 C 0.7648 0.09606 0.50405 0.0
C2960 C 0.71904 0.02812 0.51503 0.0
C2961 C 0.67432 0.95288 0.50646 0.0
C2962 C 0.69304 0.98495 0.5072 0.0
C2963 C 0.74368 0.07843 0.5094 0.0
C2964 C 0.72707 0.04615 0.50861 0.0
H2965 H 0.66562 0.89675 0.49537 0.0
H2966 H 0.69738 0.94903 0.49685 0.0
H2967 H 0.69643 0.98479 0.51939 0.0
H2968 H 0.7472 0.13166 0.52077 0.0
H2969 H 0.72153 0.07928 0.5196 0.0
C2970 C 0.09026 0.76493 0.68674 0.0
C2971 C 0.0831 0.78038 0.68157 0.0
C2972 C 0.07828 0.73491 0.68603 0.0
C2973 C 0.04291 0.67423 0.67246 0.0
H2974 H 0.01136 0.62693 0.69041 0.0
C2975 C 0.96839 0.54993 0.67082 0.0
C2976 C 0.9698 0.53252 0.67659 0.0
C2977 C 0.98406 0.58018 0.67135 0.0
C2978 C 0.02047 0.63975 0.68535 0.0
H2979 H 0.05842 0.77669 0.67149 0.0
H2980 H 0.03764 0.72428 0.6702 0.0
H2981 H 0.03551 0.67954 0.69142 0.0
H2982 H 0.98955 0.53354 0.68739 0.0
H2983 H 0.01743 0.58629 0.68824 0.0
H2984 H 0.02808 0.63456 0.66639 0.0
C2985 C 0.05251 0.73534 0.67481 0.0
C2986 C 0.03427 0.66998 0.68593 0.0
C2987 C 0.06429 0.76533 0.67557 0.0
C2988 C 0.98779 0.54622 0.68285 0.0
C2989 C 1.00366 0.57653 0.68336 0.0
C2990 C 0.02931 0.644 0.67189 0.0
C2991 C 0.0591 0.7197 0.68008 0.0
C2992 C 0.04545 0.68759 0.67949 0.0
C2993 C 1.00181 0.59396 0.67765 0.0
C2994 C 0.01763 0.62629 0.67831 0.0
H2995 H 0.10477 0.77596 0.69142 0.0
H2996 H 0.08408 0.72358 0.69013 0.0
H2997 H 0.05164 0.68718 0.6674 0.0
H2998 H 0.95466 0.54025 0.66593 0.0
H2999 H 0.98162 0.59271 0.6669 0.0
C3000 C 0.2413 0.32747 0.68711 0.0
C3001 C 0.22627 0.30411 0.68212 0.0
C3002 C 0.27128 0.3459 0.68638 0.0
C3003 C 0.33221 0.37013 0.67292 0.0
H3004 H 0.37961 0.38966 0.69097 0.0
C3005 C 0.45605 0.41843 0.67148 0.0
C3006 C 0.47376 0.43879 0.67695 0.0
C3007 C 0.42586 0.40432 0.67205 0.0
C3008 C 0.36673 0.38487 0.68588 0.0
H3009 H 0.23062 0.28212 0.67234 0.0
H3010 H 0.28293 0.31433 0.67106 0.0
H3011 H 0.32697 0.36089 0.69202 0.0
H3012 H 0.4734 0.46068 0.68723 0.0
H3013 H 0.42057 0.43639 0.68816 0.0
H3014 H 0.37186 0.39406 0.66677 0.0
C3015 C 0.2716 0.31848 0.67552 0.0
C3016 C 0.3365 0.36829 0.68648 0.0
C3017 C 0.24166 0.29993 0.67628 0.0
C3018 C 0.46044 0.44507 0.68293 0.0
C3019 C 0.43013 0.43098 0.68349 0.0
C3020 C 0.36241 0.38686 0.67232 0.0
C3021 C 0.28683 0.34152 0.68061 0.0
C3022 C 0.31889 0.36043 0.68 0.0
C3023 C 0.41242 0.41025 0.67808 0.0
C3024 C 0.38014 0.39415 0.67878 0.0
H3025 H 0.22999 0.33128 0.69164 0.0
H3026 H 0.28228 0.36363 0.69034 0.0
H3027 H 0.31926 0.36487 0.66783 0.0
H3028 H 0.46546 0.41289 0.6668 0.0
H3029 H 0.41307 0.38818 0.66784 0.0
C3030 C 0.71405 0.95199 0.67816 0.0
C3031 C 0.70374 0.92461 0.68148 0.0
C3032 C 0.69628 0.96432 0.67769 0.0
C3033 C 0.62236 0.94903 0.67638 0.0
H3034 H 0.64957 0.02398 0.68584 0.0
C3035 C 0.57588 0.02606 0.67109 0.0
C3036 C 0.5682 0.03574 0.6776 0.0
C3037 C 0.59019 0.01015 0.67167 0.0
C3038 C 0.6417 0.00302 0.6832 0.0
H3039 H 0.66654 0.88822 0.68669 0.0
H3040 H 0.63502 0.90946 0.68562 0.0
H3041 H 0.67945 1.0009 0.68641 0.0
H3042 H 0.56933 0.0362 0.68985 0.0
H3043 H 0.59529 0.00918 0.69085 0.0
H3044 H 0.58504 0.95168 0.67295 0.0
C3045 C 0.65701 0.92146 0.6835 0.0
C3046 C 0.65881 0.98993 0.68349 0.0
C3047 C 0.67503 0.90939 0.68413 0.0
C3048 C 0.5748 0.02887 0.68473 0.0
C3049 C 0.58975 0.01357 0.68531 0.0
C3050 C 0.60554 0.96247 0.67594 0.0
C3051 C 0.66765 0.94921 0.68038 0.0
C3052 C 0.64928 0.96281 0.68009 0.0
C3053 C 0.59771 0.00422 0.67878 0.0
C3054 C 0.61504 0.98953 0.67937 0.0
H3055 H 0.7361 0.96422 0.67608 0.0
H3056 H 0.7049 0.98568 0.67523 0.0
H3057 H 0.61463 0.92816 0.6737 0.0
H3058 H 0.57102 0.03099 0.66552 0.0
H3059 H 0.59624 0.00328 0.66657 0.0
C3060 C 0.23639 0.93597 0.17688 0.0
C3061 C 0.22532 0.92841 0.18425 0.0
C3062 C 0.26608 0.94726 0.1755 0.0
C3063 C 0.33275 0.95268 0.18376 0.0
H3064 H 0.37302 0.02085 0.1711 0.0
C3065 C 0.45822 0.02284 0.18313 0.0
C3066 C 0.47175 0.03615 0.17629 0.0
C3067 C 0.42791 0.00773 0.18375 0.0
C3068 C 0.36213 1.00153 0.17456 0.0
H3069 H 0.23645 0.92639 0.19591 0.0
H3070 H 0.288 0.94588 0.19352 0.0
H3071 H 0.32065 0.99777 0.17264 0.0
H3072 H 0.4638 0.04299 0.16466 0.0
H3073 H 0.41122 0.01621 0.16569 0.0
H3074 H 0.37416 0.95638 0.18569 0.0
C3075 C 0.27389 0.94296 0.18879 0.0
C3076 C 0.33202 0.98831 0.17544 0.0
C3077 C 0.24435 0.93195 0.19017 0.0
C3078 C 0.45419 0.03324 0.17004 0.0
C3079 C 0.42394 0.01801 0.17064 0.0
C3080 C 0.36284 0.96579 0.18284 0.0
C3081 C 0.28521 0.95096 0.18145 0.0
C3082 C 0.31698 0.96389 0.18011 0.0
C3083 C 0.41032 0.00539 0.17753 0.0
C3084 C 0.37803 0.99059 0.17828 0.0
H3085 H 0.22222 0.9336 0.17222 0.0
H3086 H 0.27406 0.95303 0.16977 0.0
H3087 H 0.3218 0.93365 0.18731 0.0
H3088 H 0.47104 0.02474 0.18807 0.0
H3089 H 0.41832 0.99863 0.18918 0.0
C3090 C 0.98335 0.43741 0.1832 0.0
C3091 C 0.97029 0.43729 0.17629 0.0
C3092 C 0.99789 0.42177 0.18405 0.0
C3093 C 0.03223 0.38682 0.17344 0.0
H3094 H 0.0153 0.3398 0.19147 0.0
C3095 C 0.06833 0.3009 0.17704 0.0
C3096 C 0.07662 0.29725 0.18431 0.0
C3097 C 0.05645 0.31891 0.1759 0.0
C3098 C 0.02069 0.3531 0.18644 0.0
H3099 H 0.96323 0.42134 0.16476 0.0
H3100 H 0.98867 0.39426 0.16623 0.0
H3101 H 0.99376 0.37036 0.18985 0.0
H3102 H 0.07963 0.30999 0.19603 0.0
H3103 H 0.05974 0.34184 0.19406 0.0
H3104 H 0.05932 0.36969 0.17005 0.0
C3105 C 0.98769 0.40646 0.171 0.0
C3106 C 0.00826 0.37064 0.18552 0.0
C3107 C 0.97297 0.42191 0.17017 0.0
C3108 C 0.07327 0.31226 0.19037 0.0
C3109 C 0.06163 0.33037 0.18924 0.0
C3110 C 0.04485 0.3694 0.17439 0.0
C3111 C 0.99995 0.40582 0.17798 0.0
C3112 C 0.01385 0.38772 0.179 0.0
C3113 C 0.05273 0.33374 0.18201 0.0
C3114 C 0.03927 0.35229 0.18091 0.0
H3115 H 0.98175 0.44901 0.18803 0.0
H3116 H 0.00741 0.42204 0.18947 0.0
H3117 H 0.03719 0.3999 0.16838 0.0
H3118 H 0.07053 0.28944 0.17227 0.0
H3119 H 0.04958 0.32067 0.17027 0.0
C3120 C 0.57168 0.54919 0.18333 0.0
C3121 C 0.5709 0.53573 0.17644 0.0
C3122 C 0.58738 0.57947 0.18401 0.0
C3123 C 0.64731 0.64493 0.17477 0.0
H3124 H 0.62154 0.68593 0.18784 0.0
C3125 C 0.70847 0.77068 0.17697 0.0
C3126 C 0.71251 0.78204 0.18431 0.0
C3127 C 0.69004 0.74094 0.17569 0.0
C3128 C 0.62913 0.67478 0.1842 0.0
H3129 H 0.58519 0.54377 0.16477 0.0
H3130 H 0.61182 0.59631 0.16589 0.0
H3131 H 0.59111 0.63367 0.1862 0.0
H3132 H 0.70035 0.77134 0.19605 0.0
H3133 H 0.66823 0.71966 0.19383 0.0
H3134 H 0.68532 0.68613 0.17277 0.0
C3135 C 0.60099 0.58356 0.17084 0.0
C3136 C 0.6117 0.64475 0.18327 0.0
C3137 C 0.58548 0.55333 0.17019 0.0
C3138 C 0.69761 0.76321 0.19032 0.0
C3139 C 0.67905 0.7336 0.18904 0.0
C3140 C 0.66465 0.67498 0.17567 0.0
C3141 C 0.60257 0.59709 0.17779 0.0
C3142 C 0.62063 0.62932 0.17859 0.0
C3143 C 0.6751 0.72203 0.18172 0.0
C3144 C 0.65592 0.69026 0.18045 0.0
H3145 H 0.56084 0.53633 0.18828 0.0
H3146 H 0.5883 0.58899 0.18948 0.0
H3147 H 0.65525 0.63385 0.17122 0.0
H3148 H 0.71975 0.78471 0.17223 0.0
H3149 H 0.68733 0.73277 0.16997 0.0
C3150 C 0.2751 0.90514 0.01048 0.0
C3151 C 0.26802 0.89316 1.0032 0.0
C3152 C 0.28705 0.9351 0.01155 0.0
C3153 C 0.32552 0.00488 1.00099 0.0
H3154 H 0.30545 0.03598 0.01827 0.0
C3155 C 0.36203 0.1265 1.00319 0.0
C3156 C 0.37338 0.14005 0.01017 0.0
C3157 C 0.34785 0.09626 1.00252 0.0
C3158 C 0.31144 0.02763 0.01344 0.0
H3159 H 0.26725 0.9029 0.99135 0.0
H3160 H 0.28733 0.95471 0.99319 0.0
H3161 H 0.28351 0.98352 0.01683 0.0
H3162 H 0.37773 0.13208 0.02199 0.0
H3163 H 0.35296 0.07945 0.02082 0.0
H3164 H 0.35329 0.0489 0.99758 0.0
C3165 C 0.2844 0.94134 0.99809 0.0
C3166 C 0.29891 0.99753 0.01262 0.0
C3167 C 0.27265 0.91154 0.99703 0.0
C3168 C 0.36934 0.12248 0.01652 0.0
C3169 C 0.355 0.09223 0.01586 0.0
C3170 C 0.33788 0.03489 1.00179 0.0
C3171 C 0.2921 0.95365 1.00535 0.0
C3172 C 0.3057 0.98572 1.00636 0.0
C3173 C 0.34447 0.07875 1.00883 0.0
C3174 C 0.33096 0.04668 1.008 0.0
H3175 H 0.27186 0.89146 0.01534 0.0
H3176 H 0.29294 0.94377 0.01721 0.0
H3177 H 0.33186 0.99674 0.99619 0.0
H3178 H 0.36464 0.13923 0.99817 0.0
H3179 H 0.33963 0.08658 0.99704 0.0
C3180 C 0.09907 0.34428 1.0003 0.0
C3181 C 0.11409 0.36791 1.00521 0.0
C3182 C 0.06908 0.32599 1.001 0.0
C3183 C 0.00793 0.30255 0.01433 0.0
H3184 H 0.96091 0.28195 0.9962 0.0
C3185 C 0.88393 0.25333 0.01553 0.0
C3186 C 0.86645 0.23268 1.0101 0.0
C3187 C 0.91414 0.26768 0.01501 0.0
C3188 C 0.97368 0.28704 1.00131 0.0
H3189 H 0.10967 0.39056 0.01482 0.0
H3190 H 0.05728 0.35855 0.01608 0.0
H3191 H 0.01356 0.31087 0.99521 0.0
H3192 H 0.86725 0.21055 0.9999 0.0
H3193 H 0.92013 0.23525 0.99906 0.0
H3194 H 0.96818 0.27873 0.02044 0.0
C3195 C 0.06867 0.3541 0.01169 0.0
C3196 C 1.00392 0.30372 1.00075 0.0
C3197 C 0.09864 0.37252 0.01095 0.0
C3198 C 0.88003 0.22638 1.00418 0.0
C3199 C 0.91037 0.2407 1.00367 0.0
C3200 C 0.97773 0.28573 0.0149 0.0
C3201 C 0.05347 0.33077 1.00667 0.0
C3202 C 0.02139 0.31194 1.00726 0.0
C3203 C 0.92784 0.26171 1.00906 0.0
C3204 C 0.96014 0.27802 1.0084 0.0
H3205 H 0.11042 0.34013 0.99583 0.0
H3206 H 0.0581 0.30802 0.99711 0.0
H3207 H 0.02078 0.3081 0.01945 0.0
H3208 H 0.87431 0.2589 0.02016 0.0
H3209 H 0.92673 0.28403 0.01919 0.0
C3210 C 0.76719 0.64263 1.00217 0.0
C3211 C 0.77441 0.63603 1.00925 0.0
C3212 C 0.75186 0.6576 1.00169 0.0
C3213 C 0.73587 0.70826 0.01129 0.0
H3214 H 0.66178 0.66968 1.00091 0.0
C3215 C 0.66631 0.76143 1.00344 0.0
C3216 C 0.6374 0.74601 1.00593 0.0
C3217 C 0.68427 0.7493 1.00405 0.0
C3218 C 0.68244 0.68068 1.00381 0.0
H3219 H 0.77227 0.64092 0.02135 0.0
H3220 H 0.74642 0.66805 0.02047 0.0
H3221 H 0.69197 0.64692 1.00131 0.0
H3222 H 0.60465 0.70595 0.01107 0.0
H3223 H 0.6358 0.68438 0.0119 0.0
H3224 H 0.72653 0.74231 0.01366 0.0
C3225 C 0.75226 0.66123 0.01532 0.0
C3226 C 0.69975 0.66778 1.004 0.0
C3227 C 0.76695 0.64565 0.01581 0.0
C3228 C 0.62685 0.71834 1.00911 0.0
C3229 C 0.6446 0.70596 1.00956 0.0
C3230 C 0.71885 0.72151 0.01094 0.0
C3231 C 0.74412 0.66689 1.00826 0.0
C3232 C 0.72651 0.68133 1.00779 0.0
C3233 C 0.67343 0.72128 1.00701 0.0
C3234 C 0.69186 0.70769 1.00726 0.0
H3235 H 0.77247 0.63534 0.99701 0.0
H3236 H 0.74588 0.6618 0.99618 0.0
H3237 H 0.75643 0.71913 0.01424 0.0
H3238 H 0.67499 0.78281 1.00099 0.0
H3239 H 0.70641 0.7615 1.00204 0.0
C3240 C 0.76802 0.09203 0.83381 0.0
C3241 C 0.78394 0.0841 0.8386 0.0
C3242 C 0.73801 0.07967 0.83471 0.0
C3243 C 0.67819 0.04169 0.84837 0.0
H3244 H 0.62991 0.01262 0.8305 0.0
C3245 C 0.55383 0.96698 0.8503 0.0
C3246 C 0.53613 0.96888 0.84469 0.0
C3247 C 0.58407 0.98279 0.84968 0.0
C3248 C 0.64298 0.02104 0.83555 0.0
H3249 H 0.78106 0.05763 0.84822 0.0
H3250 H 0.72866 0.03625 0.84984 0.0
H3251 H 0.68247 0.03718 0.82926 0.0
H3252 H 0.53663 0.98972 0.83413 0.0
H3253 H 0.58933 0.01789 0.83315 0.0
H3254 H 0.63884 0.02587 0.85466 0.0
C3255 C 0.73937 0.05199 0.84538 0.0
C3256 C 0.67319 0.03506 0.83483 0.0
C3257 C 0.76935 0.06412 0.84443 0.0
C3258 C 0.54953 0.98755 0.83853 0.0
C3259 C 0.57983 0.00359 0.83795 0.0
C3260 C 0.64798 0.02791 0.84908 0.0
C3261 C 0.72327 0.05935 0.84047 0.0
C3262 C 0.69117 0.04536 0.84124 0.0
C3263 C 0.59756 1.0012 0.84348 0.0
C3264 C 0.62988 0.01714 0.84269 0.0
H3265 H 0.77867 0.10743 0.82928 0.0
H3266 H 0.72631 0.08607 0.83089 0.0
H3267 H 0.69143 0.04972 0.8534 0.0
H3268 H 0.54436 0.95269 0.85511 0.0
H3269 H 0.59681 0.97991 0.854 0.0
C3270 C 0.94011 0.70605 0.84325 0.0
C3271 C 0.93183 0.70926 0.83594 0.0
C3272 C 0.95242 0.68846 0.8445 0.0
C3273 C 0.98988 0.65552 0.83424 0.0
H3274 H 0.97223 0.60762 0.85213 0.0
C3275 C 0.02766 0.57169 0.83725 0.0
C3276 C 0.03966 0.57057 0.84423 0.0
C3277 C 0.01322 0.58744 0.83646 0.0
C3278 C 0.97756 0.62105 0.84713 0.0
H3279 H 0.92934 0.6962 0.82425 0.0
H3280 H 0.95012 0.66525 0.82643 0.0
H3281 H 0.94981 0.63758 0.8504 0.0
H3282 H 0.04491 0.58453 0.85593 0.0
H3283 H 0.01975 0.61192 0.85453 0.0
H3284 H 0.0175 0.63899 0.83095 0.0
C3285 C 0.9478 0.67667 0.83119 0.0
C3286 C 0.96475 0.6383 0.84615 0.0
C3287 C 0.93567 0.69428 0.82995 0.0
C3288 C 0.03601 0.58488 0.85046 0.0
C3289 C 0.02144 0.60053 0.84967 0.0
C3290 C 1.00255 0.63823 0.83521 0.0
C3291 C 0.95666 0.67372 0.83847 0.0
C3292 C 0.97063 0.65568 0.83966 0.0
C3293 C 0.01026 0.6024 0.84263 0.0
C3294 C 0.99649 0.62066 0.84164 0.0
H3295 H 0.93755 0.7175 0.84797 0.0
H3296 H 0.95921 0.68696 0.85017 0.0
H3297 H 0.99551 0.66908 0.82926 0.0
H3298 H 0.02991 0.56091 0.83233 0.0
H3299 H 0.00447 0.58802 0.83098 0.0
C3300 C 0.32351 0.23969 0.83174 0.0
C3301 C 0.30042 0.22307 0.83665 0.0
C3302 C 0.34177 0.26936 0.83299 0.0
C3303 C 0.35932 0.32923 0.84709 0.0
H3304 H 0.3948 0.37671 0.82941 0.0
C3305 C 0.43513 0.45381 0.84969 0.0
C3306 C 0.43656 0.47139 0.84361 0.0
C3307 C 0.42014 0.42352 0.84899 0.0
C3308 C 0.38475 0.36407 0.83443 0.0
H3309 H 0.2782 0.2242 0.84675 0.0
H3310 H 0.30859 0.27632 0.84869 0.0
H3311 H 0.36486 0.32511 0.82801 0.0
H3312 H 0.42276 0.47104 0.83209 0.0
H3313 H 0.39528 0.41871 0.83098 0.0
H3314 H 0.37731 0.36862 0.85341 0.0
C3315 C 0.31371 0.26654 0.84402 0.0
C3316 C 0.36793 0.33398 0.83365 0.0
C3317 C 0.29602 0.23658 0.8429 0.0
C3318 C 0.42249 0.45808 0.83684 0.0
C3319 C 0.40682 0.42787 0.8362 0.0
C3320 C 0.37549 0.35948 0.84784 0.0
C3321 C 0.33679 0.28356 0.83904 0.0
C3322 C 0.35498 0.31591 0.83996 0.0
C3323 C 0.40543 0.40996 0.84225 0.0
C3324 C 0.38852 0.37748 0.84152 0.0
H3325 H 0.32756 0.22969 0.82692 0.0
H3326 H 0.35974 0.28104 0.82915 0.0
H3327 H 0.35033 0.3164 0.85215 0.0
H3328 H 0.44586 0.4635 0.85498 0.0
H3329 H 0.42032 0.41087 0.85375 0.0
C3330 C 0.65604 0.879 0.016 0.0
C3331 C 0.63638 0.86534 1.01004 0.0
C3332 C 0.67201 0.90934 0.01649 0.0
C3333 C 0.6946 0.97658 1.00519 0.0
H3334 H 0.70459 0.01249 0.02483 0.0
C3335 C 0.72851 0.09748 1.00902 0.0
C3336 C 0.74839 0.11294 0.0148 0.0
C3337 C 0.71698 0.06751 1.0083 0.0
C3338 C 0.70229 1.00283 0.01931 0.0
H3339 H 0.61836 0.87306 0.99989 0.0
H3340 H 0.64555 0.92547 1.00082 0.0
H3341 H 0.68098 0.95987 0.02388 0.0
H3342 H 0.77224 0.10929 0.02425 0.0
H3343 H 0.75207 0.057 0.023 0.0
H3344 H 0.71535 0.0196 1.00062 0.0
C3345 C 0.64919 0.91294 1.00505 0.0
C3346 C 0.6888 0.9726 0.01876 0.0
C3347 C 0.63338 0.88274 1.00454 0.0
C3348 C 0.75687 0.09793 0.01976 0.0
C3349 C 0.74519 0.06796 0.01907 0.0
C3350 C 0.70791 0.00678 1.00573 0.0
C3351 C 0.66862 0.92673 0.01105 0.0
C3352 C 0.68453 0.95903 0.01169 0.0
C3353 C 0.72496 0.05233 0.01336 0.0
C3354 C 0.71174 0.02027 0.01279 0.0
H3355 H 0.65896 0.86629 0.02032 0.0
H3356 H 0.68705 0.91916 0.02114 0.0
H3357 H 0.69224 0.96701 0.99965 0.0
H3358 H 0.72161 0.10849 1.00511 0.0
H3359 H 0.70128 0.05611 1.00388 0.0
C3360 C 0.91 0.65932 0.01896 0.0
C3361 C 0.894 0.63638 0.01392 0.0
C3362 C 0.94008 0.67681 0.01817 0.0
C3363 C 1.00362 0.67725 1.00925 0.0
H3364 H 0.04301 0.75887 0.01448 0.0
C3365 C 0.12555 0.75302 1.00347 0.0
C3366 C 0.14229 0.77157 1.00938 0.0
C3367 C 0.09527 0.73775 1.00386 0.0
C3368 C 0.03233 0.73606 0.01306 0.0
H3369 H 0.89677 0.61435 1.00395 0.0
H3370 H 0.9491 0.6453 1.00242 0.0
H3371 H 0.9902 0.73024 0.01523 0.0
H3372 H 0.13998 0.78908 0.02025 0.0
H3373 H 0.08698 0.76254 0.02088 0.0
H3374 H 0.04576 0.68323 1.00699 0.0
C3375 C 0.93864 0.64939 1.00712 0.0
C3376 C 1.00202 0.71957 0.0135 0.0
C3377 C 0.90858 0.63174 1.00796 0.0
C3378 C 0.12784 0.775 0.0156 0.0
C3379 C 0.09745 0.75987 0.01595 0.0
C3380 C 0.03385 0.69379 1.00875 0.0
C3381 C 0.95491 0.67197 0.01228 0.0
C3382 C 0.98721 0.68988 0.01163 0.0
C3383 C 0.08083 0.74075 0.01013 0.0
C3384 C 0.0486 0.72337 0.01065 0.0
H3385 H 0.89937 0.66338 0.02362 0.0
H3386 H 0.95175 0.69364 0.02231 0.0
H3387 H 0.9932 0.65438 1.00792 0.0
H3388 H 0.1358 0.74979 0.99858 0.0
H3389 H 0.08313 0.72352 0.99924 0.0
C3390 C 0.25027 0.36815 1.00413 0.0
C3391 C 0.23463 0.37019 0.01027 0.0
C3392 C 0.26572 0.35339 1.00483 0.0
C3393 C 0.30138 0.33181 0.01911 0.0
H3394 H 0.30268 0.28202 1.00333 0.0
C3395 C 0.36078 0.26751 0.02339 0.0
C3396 C 0.37576 0.26457 0.01725 0.0
C3397 C 0.34244 0.27895 0.02239 0.0
C3398 C 0.30289 0.29615 1.00776 0.0
H3399 H 0.22248 0.3576 0.02194 0.0
H3400 H 0.24954 0.33192 0.02317 0.0
H3401 H 0.27224 0.30401 1.00189 0.0
H3402 H 0.38321 0.27111 1.00521 0.0
H3403 H 0.35162 0.29179 1.00344 0.0
H3404 H 0.33241 0.32466 0.02492 0.0
C3405 C 0.24995 0.34193 0.01782 0.0
C3406 C 0.28532 0.30867 1.00694 0.0
C3407 C 0.23427 0.35648 0.01709 0.0
C3408 C 0.37181 0.27304 1.01004 0.0
C3409 C 0.35358 0.28475 1.00903 0.0
C3410 C 0.31908 0.31952 0.01991 0.0
C3411 C 0.26614 0.34048 0.01172 0.0
C3412 C 0.28429 0.32659 0.01262 0.0
C3413 C 0.3388 0.28808 0.01521 0.0
C3414 C 0.32004 0.30139 0.01426 0.0
H3415 H 0.25101 0.37839 0.99878 0.0
H3416 H 0.27811 0.35289 1.00004 0.0
H3417 H 0.30155 0.34596 0.02353 0.0
H3418 H 0.36325 0.26098 0.02901 0.0
H3419 H 0.33101 0.2805 0.02726 0.0
C3420 C 0.12781 0.35083 0.51566 0.0
C3421 C 0.14122 0.37053 0.5097 0.0
C3422 C 0.09749 0.33488 0.51625 0.0
C3423 C 0.02974 0.31239 0.50517 0.0
H3424 H 0.99464 0.30183 0.52495 0.0
C3425 C 0.90885 0.27785 0.50949 0.0
C3426 C 0.8937 0.25781 0.51526 0.0
C3427 C 0.9388 0.2895 0.50865 0.0
C3428 C 1.00408 0.30428 0.51939 0.0
H3429 H 0.13308 0.38869 0.49964 0.0
H3430 H 0.08069 0.36154 0.50073 0.0
H3431 H 0.04725 0.32569 0.52383 0.0
H3432 H 0.8979 0.23383 0.52459 0.0
H3433 H 0.95018 0.25423 0.52315 0.0
H3434 H 0.98651 0.29155 0.50073 0.0
C3435 C 0.09339 0.35785 0.50489 0.0
C3436 C 0.03429 0.31792 0.51875 0.0
C3437 C 0.12359 0.37362 0.50429 0.0
C3438 C 0.90901 0.24931 0.5201 0.0
C3439 C 0.93898 0.26112 0.51931 0.0
C3440 C 0.99955 0.29894 0.50582 0.0
C3441 C 0.07986 0.33834 0.51089 0.0
C3442 C 0.04758 0.32238 0.51162 0.0
C3443 C 0.95429 0.2815 0.5136 0.0
C3444 C 0.98635 0.29489 0.51293 0.0
H3445 H 0.1407 0.34783 0.51991 0.0
H3446 H 0.08787 0.31979 0.52089 0.0
H3447 H 0.03908 0.31489 0.4996 0.0
H3448 H 0.8976 0.28477 0.50566 0.0
H3449 H 0.94996 0.30532 0.50424 0.0
C3450 C 0.63397 0.75198 0.50419 0.0
C3451 C 0.63691 0.77273 0.50956 0.0
C3452 C 0.64975 0.73759 0.50485 0.0
C3453 C 0.68947 0.71858 0.51885 0.0
H3454 H 0.71596 0.69677 0.50094 0.0
C3455 C 0.75818 0.66196 0.52045 0.0
C3456 C 0.74994 0.63822 0.5156 0.0
C3457 C 0.74623 0.67999 0.51962 0.0
C3458 C 0.70853 0.70252 0.506 0.0
H3459 H 0.65939 0.79498 0.51979 0.0
H3460 H 0.68743 0.77025 0.52088 0.0
H3461 H 0.69266 0.72597 0.49969 0.0
H3462 H 0.72322 0.61512 0.50597 0.0
H3463 H 0.70243 0.64667 0.50449 0.0
H3464 H 0.7055 0.69515 0.52514 0.0
C3465 C 0.67245 0.76473 0.51621 0.0
C3466 C 0.6951 0.71925 0.50529 0.0
C3467 C 0.65651 0.77909 0.51556 0.0
C3468 C 0.72996 0.63324 0.5098 0.0
C3469 C 0.71817 0.65141 0.50893 0.0
C3470 C 0.70309 0.702 0.51956 0.0
C3471 C 0.66912 0.7436 0.51089 0.0
C3472 C 0.68506 0.72725 0.5117 0.0
C3473 C 0.72595 0.67486 0.51388 0.0
C3474 C 0.71253 0.69351 0.51314 0.0
H3475 H 0.619 0.74635 0.49951 0.0
H3476 H 0.64615 0.72116 0.50071 0.0
H3477 H 0.68168 0.72388 0.52391 0.0
H3478 H 0.7736 0.66641 0.52495 0.0
H3479 H 0.75297 0.69805 0.52346 0.0
C3480 C 0.22806 0.87946 0.51474 0.0
C3481 C 0.23575 0.86592 0.50911 0.0
C3482 C 0.24256 0.90975 0.51532 0.0
C3483 C 0.29078 0.97748 0.50466 0.0
H3484 H 0.31085 0.01203 0.5246 0.0
C3485 C 0.37569 0.09834 0.50956 0.0
C3486 C 0.37005 0.11326 0.51525 0.0
C3487 C 0.35753 0.06844 0.50862 0.0
C3488 C 0.3051 1.00277 0.51899 0.0
H3489 H 0.26469 0.87384 0.49964 0.0
H3490 H 0.29008 0.92632 0.50073 0.0
H3491 H 0.28234 0.95949 0.52334 0.0
H3492 H 0.34063 0.10872 0.52428 0.0
H3493 H 0.30886 0.05652 0.52262 0.0
H3494 H 0.31401 0.02081 0.50032 0.0
C3495 C 0.27254 0.91365 0.50463 0.0
C3496 C 0.28869 0.97259 0.51826 0.0
C3497 C 0.25803 0.88343 0.50403 0.0
C3498 C 0.34559 0.09778 0.51987 0.0
C3499 C 0.32749 0.06785 0.51895 0.0
C3500 C 0.30728 0.00765 0.50539 0.0
C3501 C 0.26514 0.92726 0.51031 0.0
C3502 C 0.28148 0.9595 0.51109 0.0
C3503 C 0.33336 0.05275 0.51335 0.0
C3504 C 0.31482 0.02069 0.51256 0.0
H3505 H 0.21096 0.8667 0.51873 0.0
H3506 H 0.23598 0.91945 0.5197 0.0
H3507 H 0.28523 0.96825 0.49904 0.0
H3508 H 0.39437 0.10972 0.50591 0.0
H3509 H 0.36287 0.0575 0.50429 0.0
C3510 C 0.0178 0.45781 0.33735 0.0
C3511 C 0.03779 0.47157 0.34324 0.0
C3512 C 1.00184 0.42746 0.33688 0.0
C3513 C 0.97987 0.36036 0.34819 0.0
H3514 H 0.96875 0.32421 0.32854 0.0
C3515 C 0.94537 0.23931 0.34434 0.0
C3516 C 0.92527 0.22384 0.33861 0.0
C3517 C 0.95699 0.26929 0.34507 0.0
C3518 C 0.97136 0.33395 0.33407 0.0
H3519 H 0.05641 0.464 0.35329 0.0
H3520 H 0.02922 0.41157 0.3524 0.0
H3521 H 0.99251 0.37685 0.32946 0.0
H3522 H 0.90112 0.2275 0.32923 0.0
H3523 H 0.92143 0.27981 0.33048 0.0
H3524 H 0.95926 0.3174 0.35279 0.0
C3525 C 0.02533 0.42403 0.34821 0.0
C3526 C 0.98494 0.36418 0.3346 0.0
C3527 C 0.04114 0.45425 0.34869 0.0
C3528 C 0.91666 0.23886 0.33369 0.0
C3529 C 0.92842 0.26885 0.33438 0.0
C3530 C 0.96646 0.33016 0.34766 0.0
C3531 C 0.00556 0.41016 0.34228 0.0
C3532 C 0.98961 0.37784 0.34167 0.0
C3533 C 0.94888 0.28448 0.34004 0.0
C3534 C 0.96222 0.31657 0.3406 0.0
H3535 H 0.0146 0.47044 0.33306 0.0
H3536 H 0.98654 0.41757 0.33229 0.0
H3537 H 0.98255 0.37001 0.35373 0.0
H3538 H 0.95237 0.22829 0.34822 0.0
H3539 H 0.97287 0.28069 0.34945 0.0
C3540 C 0.76414 0.69429 0.33076 0.0
C3541 C 0.78251 0.70899 0.33687 0.0
C3542 C 0.7345 0.67548 0.33191 0.0
C3543 C 0.67506 0.66053 0.34499 0.0
H3544 H 0.63437 0.58742 0.33425 0.0
C3545 C 0.55306 0.58187 0.34983 0.0
C3546 C 0.53589 0.56777 0.34348 0.0
C3547 C 0.58332 0.59707 0.34934 0.0
C3548 C 0.6453 0.60789 0.33724 0.0
H3549 H 0.78438 0.71552 0.34897 0.0
H3550 H 0.73237 0.68264 0.351 0.0
H3551 H 0.68681 0.61777 0.33289 0.0
H3552 H 0.53723 0.55812 0.33164 0.0
H3553 H 0.59003 0.58511 0.33073 0.0
H3554 H 0.63364 0.65115 0.34921 0.0
C3555 C 0.74092 0.68572 0.34531 0.0
C3556 C 0.67541 0.62526 0.33647 0.0
C3557 C 0.7707 0.70441 0.34417 0.0
C3558 C 0.54978 0.56862 0.33666 0.0
C3559 C 0.58012 0.58404 0.33614 0.0
C3560 C 0.64494 0.64327 0.34573 0.0
C3561 C 0.72246 0.67107 0.33919 0.0
C3562 C 0.69064 0.65188 0.3403 0.0
C3563 C 0.59732 0.59883 0.34246 0.0
C3564 C 0.62959 0.61675 0.34183 0.0
H3565 H 0.77265 0.69747 0.32507 0.0
H3566 H 0.72088 0.66487 0.32706 0.0
H3567 H 0.68604 0.6811 0.34794 0.0
H3568 H 0.54313 0.58146 0.3552 0.0
H3569 H 0.59574 0.60757 0.35436 0.0
C3570 C 0.31242 0.07036 0.33045 0.0
C3571 C 0.29776 0.07351 0.33664 0.0
C3572 C 0.33071 0.05887 0.3314 0.0
C3573 C 0.37096 0.0421 0.34587 0.0
H3574 H 0.37111 0.99154 0.33014 0.0
C3575 C 0.4234 0.96999 0.34933 0.0
C3576 C 0.43867 0.96771 0.34313 0.0
C3577 C 0.40801 0.98481 0.34867 0.0
C3578 C 0.37161 0.0059 0.33454 0.0
H3579 H 0.29082 0.06727 0.3487 0.0
H3580 H 0.32236 0.04646 0.35038 0.0
H3581 H 0.34018 0.01281 0.32886 0.0
H3582 H 0.45025 0.97991 0.33141 0.0
H3583 H 0.42325 0.00571 0.33027 0.0
H3584 H 0.40201 0.03448 0.35161 0.0
C3585 C 0.32015 0.05339 0.34479 0.0
C3586 C 0.35387 0.01817 0.33381 0.0
C3587 C 0.30196 0.06517 0.34384 0.0
C3588 C 0.43874 0.98123 0.3363 0.0
C3589 C 0.42311 0.99585 0.33563 0.0
C3590 C 0.38857 0.02962 0.34662 0.0
C3591 C 0.33462 0.04989 0.33857 0.0
C3592 C 0.35336 0.03656 0.33945 0.0
C3593 C 0.40729 0.99753 0.34179 0.0
C3594 C 0.38916 0.01143 0.34095 0.0
H3595 H 0.30975 0.07681 0.32484 0.0
H3596 H 0.34191 0.05717 0.3265 0.0
H3597 H 0.37149 0.05643 0.35028 0.0
H3598 H 0.42292 0.9599 0.35468 0.0
H3599 H 0.3959 0.9855 0.35351 0.0
C3600 C 0.18435 0.3864 0.06742 0.0
C3601 C 0.16879 0.36457 0.06204 0.0
C3602 C 0.18253 0.37977 0.07512 0.0
C3603 C 0.16008 0.3187 0.08872 0.0
H3604 H 0.15428 0.37158 0.10269 0.0
C3605 C 0.15656 0.30271 0.12129 0.0
C3606 C 0.13738 0.30848 0.12541 0.0
C3607 C 0.16191 0.30994 0.11361 0.0
C3608 C 0.1557 0.35645 0.09888 0.0
H3609 H 0.13984 0.31835 0.06062 0.0
H3610 H 0.13622 0.30689 0.07405 0.0
H3611 H 0.1606 0.3829 0.08927 0.0
H3612 H 0.10836 0.32587 0.12453 0.0
H3613 H 0.11767 0.33843 0.11123 0.0
H3614 H 0.15434 0.29186 0.09833 0.0
C3615 C 0.15006 0.32917 0.0723 0.0
C3616 C 0.15972 0.36315 0.09116 0.0
C3617 C 0.15188 0.33581 0.06459 0.0
C3618 C 0.12374 0.32165 0.12162 0.0
C3619 C 0.12908 0.32886 0.11396 0.0
C3620 C 0.15608 0.312 0.09645 0.0
C3621 C 0.16508 0.35111 0.07769 0.0
C3622 C 0.1618 0.34431 0.08596 0.0
C3623 C 0.14823 0.32313 0.10983 0.0
C3624 C 0.15361 0.33069 0.10163 0.0
H3625 H 0.19736 0.40883 0.0657 0.0
H3626 H 0.19473 0.3972 0.07908 0.0
H3627 H 0.16189 0.3038 0.08491 0.0
H3628 H 0.16771 0.29288 0.12403 0.0
H3629 H 0.17708 0.30552 0.11066 0.0
C3630 C 0.62836 0.81652 0.06747 0.0
C3631 C 0.64174 0.80637 0.06243 0.0
C3632 C 0.63636 0.8212 0.07511 0.0
C3633 C 0.67128 0.79948 0.08988 0.0
H3634 H 0.67386 0.86306 0.10116 0.0
C3635 C 0.6827 0.80586 0.12235 0.0
C3636 C 0.70088 0.83313 0.12565 0.0
C3637 C 0.67542 0.80342 0.11469 0.0
C3638 C 0.67347 0.8453 0.09809 0.0
H3639 H 0.67439 0.79351 0.06156 0.0
H3640 H 0.6888 0.8024 0.07477 0.0
H3641 H 0.66266 0.85826 0.08769 0.0
H3642 H 0.7251 0.87933 0.12339 0.0
H3643 H 0.71288 0.87503 0.10999 0.0
H3644 H 0.68264 0.78681 0.10021 0.0
C3645 C 0.67178 0.80634 0.07285 0.0
C3646 C 0.66671 0.84235 0.09037 0.0
C3647 C 0.66378 0.80164 0.06522 0.0
C3648 C 0.71129 0.85794 0.12105 0.0
C3649 C 0.70401 0.85549 0.11337 0.0
C3650 C 0.67803 0.80242 0.09758 0.0
C3651 C 0.65796 0.81585 0.07793 0.0
C3652 C 0.66551 0.81938 0.08615 0.0
C3653 C 0.68616 0.82816 0.11006 0.0
C3654 C 0.67914 0.82531 0.10181 0.0
H3655 H 0.61154 0.82073 0.06552 0.0
H3656 H 0.62505 0.82833 0.07884 0.0
H3657 H 0.67022 0.78128 0.08686 0.0
H3658 H 0.67453 0.7862 0.12566 0.0
H3659 H 0.6613 0.78203 0.11239 0.0
C3660 C 0.1564 0.86382 0.12083 0.0
C3661 C 0.1807 0.87429 0.12562 0.0
C3662 C 0.15863 0.85905 0.11314 0.0
C3663 C 0.21305 0.8806 0.09777 0.0
H3664 H 0.15103 0.81556 0.08711 0.0
C3665 C 0.21399 0.87159 0.0653 0.0
C3666 C 0.20508 0.84415 0.06215 0.0
C3667 C 0.20988 0.87456 0.07299 0.0
C3668 C 0.16866 0.83373 0.09001 0.0
H3669 H 0.22649 0.88785 0.12597 0.0
H3670 H 0.23017 0.87885 0.11267 0.0
H3671 H 0.14642 0.8213 0.10063 0.0
H3672 H 0.18412 0.79819 0.06466 0.0
H3673 H 0.17748 0.80344 0.0781 0.0
H3674 H 0.23558 0.89274 0.08722 0.0
C3675 C 0.20941 0.87467 0.11483 0.0
C3676 C 0.16587 0.83722 0.09776 0.0
C3677 C 0.20719 0.87946 0.12251 0.0
C3678 C 0.19154 0.8197 0.06689 0.0
C3679 C 0.18743 0.82268 0.07459 0.0
C3680 C 0.21583 0.87713 0.09004 0.0
C3681 C 0.18525 0.86465 0.11001 0.0
C3682 C 0.18805 0.86071 0.10175 0.0
C3683 C 0.19682 0.8502 0.07777 0.0
C3684 C 0.19367 0.85369 0.08603 0.0
H3685 H 0.13556 0.85927 0.12303 0.0
H3686 H 0.1396 0.85154 0.10961 0.0
H3687 H 0.23044 0.89917 0.10061 0.0
H3688 H 0.22484 0.891 0.06188 0.0
H3689 H 0.21702 0.89606 0.07518 0.0
C3690 C 0.3373 0.15517 0.45668 0.0
C3691 C 0.36658 0.1693 0.45891 0.0
C3692 C 0.32971 0.15286 0.44903 0.0
C3693 C 0.35879 0.18333 0.42997 0.0
H3694 H 0.29531 0.10998 0.42296 0.0
C3695 C 0.33668 0.15385 0.39817 0.0
C3696 C 0.30766 0.13782 0.39574 0.0
C3697 C 0.34345 0.15921 0.40586 0.0
C3698 C 0.31284 0.13077 0.42482 0.0
H3699 H 0.41082 0.19218 0.45475 0.0
H3700 H 0.39763 0.18819 0.44145 0.0
H3701 H 0.30773 0.11664 0.43632 0.0
H3702 H 0.26301 0.11509 0.3996 0.0
H3703 H 0.27478 0.12489 0.41297 0.0
H3704 H 0.36404 0.19733 0.41844 0.0
C3705 C 0.38047 0.17923 0.44563 0.0
C3706 C 0.31998 0.13461 0.43251 0.0
C3707 C 0.38805 0.18155 0.45328 0.0
C3708 C 0.28559 0.12777 0.40123 0.0
C3709 C 0.29237 0.13307 0.40892 0.0
C3710 C 0.35166 0.17949 0.42228 0.0
C3711 C 0.35118 0.16459 0.44338 0.0
C3712 C 0.34312 0.1609 0.4352 0.0
C3713 C 0.3214 0.14862 0.41136 0.0
C3714 C 0.32863 0.15311 0.41959 0.0
H3715 H 0.32016 0.14586 0.46085 0.0
H3716 H 0.30694 0.1419 0.44754 0.0
H3717 H 0.37647 0.20403 0.43184 0.0
H3718 H 0.35424 0.16221 0.39411 0.0
H3719 H 0.36605 0.17106 0.40751 0.0
C3720 C 0.87705 0.15765 0.40116 0.0
C3721 C 0.8664 0.16842 0.3955 0.0
C3722 C 0.8718 0.16001 0.40881 0.0
C3723 C 0.8525 0.20238 0.42182 0.0
H3724 H 0.83833 0.14142 0.43608 0.0
C3725 C 0.82377 0.20792 0.45308 0.0
C3726 C 0.837 0.19939 0.45861 0.0
C3727 C 0.82571 0.20275 0.4454 0.0
C3728 C 0.84252 0.15879 0.43219 0.0
H3729 H 0.84098 0.1893 0.3935 0.0
H3730 H 0.83173 0.1933 0.40682 0.0
H3731 H 0.84445 0.13485 0.4227 0.0
H3732 H 0.86198 0.17787 0.46033 0.0
H3733 H 0.86572 0.16923 0.44696 0.0
H3734 H 0.85076 0.2264 0.4313 0.0
C3735 C 0.84464 0.18349 0.40535 0.0
C3736 C 0.84605 0.15502 0.4245 0.0
C3737 C 0.84991 0.18116 0.3977 0.0
C3738 C 0.85176 0.18502 0.45624 0.0
C3739 C 0.85364 0.17979 0.44856 0.0
C3740 C 0.84896 0.20614 0.4295 0.0
C3741 C 0.85573 0.17319 0.41103 0.0
C3742 C 0.85119 0.17681 0.41921 0.0
C3743 C 0.8409 0.18884 0.44302 0.0
C3744 C 0.84401 0.18445 0.4348 0.0
H3745 H 0.89023 0.14815 0.3997 0.0
H3746 H 0.88108 0.15221 0.413 0.0
H3747 H 0.85693 0.21987 0.41796 0.0
H3748 H 0.8125 0.21932 0.45466 0.0
H3749 H 0.81529 0.20971 0.44132 0.0
C3750 C 0.85138 0.72116 0.40105 0.0
C3751 C 0.8373 0.69893 0.39568 0.0
C3752 C 0.84992 0.71474 0.40877 0.0
C3753 C 0.83173 0.65469 0.42242 0.0
H3754 H 0.8203 0.70446 0.43625 0.0
C3755 C 0.82805 0.63905 0.45499 0.0
C3756 C 0.8073 0.64273 0.45901 0.0
C3757 C 0.83338 0.6465 0.44733 0.0
C3758 C 0.82332 0.69021 0.43248 0.0
H3759 H 0.81146 0.65231 0.39428 0.0
H3760 H 0.80841 0.64117 0.40772 0.0
H3761 H 0.82635 0.71578 0.42283 0.0
H3762 H 0.77548 0.65661 0.45798 0.0
H3763 H 0.78474 0.66954 0.4447 0.0
H3764 H 0.82782 0.62864 0.43206 0.0
C3765 C 0.82082 0.66362 0.40596 0.0
C3766 C 0.82718 0.69693 0.42477 0.0
C3767 C 0.82229 0.67004 0.39824 0.0
C3768 C 0.79207 0.65405 0.45514 0.0
C3769 C 0.79738 0.66147 0.44749 0.0
C3770 C 0.82788 0.64796 0.43014 0.0
C3771 C 0.83431 0.6859 0.41135 0.0
C3772 C 0.83128 0.67919 0.41961 0.0
C3773 C 0.81809 0.65781 0.44347 0.0
C3774 C 0.82338 0.66551 0.43527 0.0
H3775 H 0.86291 0.74367 0.39932 0.0
H3776 H 0.86094 0.73247 0.41272 0.0
H3777 H 0.83513 0.64067 0.41864 0.0
H3778 H 0.84041 0.63068 0.4578 0.0
H3779 H 0.84975 0.64371 0.44445 0.0
C3780 C 0.84897 0.70197 0.89834 0.0
C3781 C 0.8696 0.69802 0.89435 0.0
C3782 C 0.84325 0.69425 0.90598 0.0
C3783 C 0.85155 0.64913 0.92072 0.0
H3784 H 0.84054 0.69882 0.93469 0.0
C3785 C 0.82136 0.61668 0.95197 0.0
C3786 C 0.8358 0.63845 0.95743 0.0
C3787 C 0.82334 0.62363 0.94428 0.0
C3788 C 0.8437 0.68476 0.93087 0.0
H3789 H 0.90086 0.68342 0.89541 0.0
H3790 H 0.89091 0.67001 0.90866 0.0
H3791 H 0.84865 0.71156 0.92131 0.0
H3792 H 0.86284 0.68485 0.95904 0.0
H3793 H 0.86671 0.69692 0.94564 0.0
H3794 H 0.84743 0.62276 0.93028 0.0
C3795 C 0.87867 0.67851 0.90585 0.0
C3796 C 0.84802 0.69189 0.92318 0.0
C3797 C 0.88437 0.6862 0.89823 0.0
C3798 C 0.85169 0.66746 0.955 0.0
C3799 C 0.85365 0.67442 0.94731 0.0
C3800 C 0.8472 0.64199 0.9284 0.0
C3801 C 0.85803 0.6824 0.90984 0.0
C3802 C 0.85224 0.67429 0.918 0.0
C3803 C 0.83981 0.65256 0.94183 0.0
C3804 C 0.84338 0.65977 0.9336 0.0
H3805 H 0.83697 0.71073 0.89552 0.0
H3806 H 0.82696 0.69724 0.90884 0.0
H3807 H 0.85434 0.63484 0.9169 0.0
H3808 H 0.80917 0.59408 0.9536 0.0
H3809 H 0.81206 0.60624 0.94025 0.0
C3810 C 0.29582 0.14728 0.89977 0.0
C3811 C 0.30762 0.17162 0.89497 0.0
C3812 C 0.30325 0.15017 0.90744 0.0
C3813 C 0.33226 0.20506 0.92275 0.0
H3814 H 0.34239 0.14721 0.93342 0.0
C3815 C 0.34356 0.20774 0.95518 0.0
C3816 C 0.36419 0.20157 0.95829 0.0
C3817 C 0.33623 0.20282 0.94752 0.0
C3818 C 0.33983 0.16368 0.93052 0.0
H3819 H 0.33676 0.21816 0.89457 0.0
H3820 H 0.35022 0.22303 0.90784 0.0
H3821 H 0.33175 0.14156 0.91991 0.0
H3822 H 0.39267 0.18455 0.95573 0.0
H3823 H 0.38034 0.17656 0.94234 0.0
H3824 H 0.34092 0.22753 0.93328 0.0
C3825 C 0.33489 0.20171 0.9057 0.0
C3826 C 0.33341 0.16027 0.92278 0.0
C3827 C 0.32746 0.19883 0.89804 0.0
C3828 C 0.37693 0.18987 0.95353 0.0
C3829 C 0.3696 0.18497 0.94586 0.0
C3830 C 0.33866 0.20846 0.93047 0.0
C3831 C 0.32265 0.17749 0.91053 0.0
C3832 C 0.32957 0.18096 0.91878 0.0
C3833 C 0.34937 0.19168 0.94273 0.0
C3834 C 0.34249 0.18782 0.93448 0.0
H3835 H 0.28072 0.12593 0.8976 0.0
H3836 H 0.29323 0.13105 0.91099 0.0
H3837 H 0.32908 0.22126 0.9199 0.0
H3838 H 0.33352 0.2171 0.95862 0.0
H3839 H 0.32024 0.20786 0.94535 0.0
C3840 C 0.82277 0.15123 0.89731 0.0
C3841 C 0.84066 0.14038 0.89486 0.0
C3842 C 0.8206 0.15615 0.905 0.0
C3843 C 0.83134 0.13364 0.92399 0.0
H3844 H 0.82317 0.19829 0.93084 0.0
C3845 C 0.79408 0.13916 0.9543 0.0
C3846 C 0.80696 0.16618 0.95799 0.0
C3847 C 0.79973 0.13711 0.94668 0.0
C3848 C 0.82569 0.18026 0.92904 0.0
H3849 H 0.87059 0.12659 0.89867 0.0
H3850 H 0.86731 0.13576 0.91201 0.0
H3851 H 0.83111 0.19369 0.91745 0.0
H3852 H 0.83636 0.21226 0.95647 0.0
H3853 H 0.84624 0.20868 0.94316 0.0
H3854 H 0.82626 0.12036 0.93556 0.0
C3855 C 0.85463 0.14012 0.90799 0.0
C3856 C 0.82991 0.17742 0.92134 0.0
C3857 C 0.85682 0.13522 0.90031 0.0
C3858 C 0.82577 0.19112 0.95382 0.0
C3859 C 0.83142 0.18907 0.94617 0.0
C3860 C 0.82708 0.13645 0.93168 0.0
C3861 C 0.83623 0.15033 0.91046 0.0
C3862 C 0.83266 0.15399 0.9187 0.0
C3863 C 0.81843 0.16202 0.94249 0.0
C3864 C 0.82401 0.15968 0.93431 0.0
H3865 H 0.81024 0.15577 0.89329 0.0
H3866 H 0.80603 0.1638 0.90667 0.0
H3867 H 0.83302 0.11513 0.92218 0.0
H3868 H 0.779 0.11953 0.95726 0.0
H3869 H 0.78889 0.11598 0.94402 0.0
C3870 C 0.62994 0.81282 0.5662 0.0
C3871 C 0.64158 0.83736 0.56148 0.0
C3872 C 0.63741 0.81542 0.57387 0.0
C3873 C 0.66647 0.86973 0.58934 0.0
H3874 H 0.67631 0.81121 0.59975 0.0
C3875 C 0.67834 0.87126 0.62176 0.0
C3876 C 0.69885 0.86472 0.62478 0.0
C3877 C 0.67082 0.86662 0.6141 0.0
C3878 C 0.67384 0.82787 0.59693 0.0
H3879 H 0.67052 0.88394 0.5612 0.0
H3880 H 0.6841 0.88832 0.57445 0.0
H3881 H 0.6657 0.80622 0.58625 0.0
H3882 H 0.7268 0.84723 0.62206 0.0
H3883 H 0.71417 0.83975 0.60869 0.0
H3884 H 0.67526 0.89175 0.59994 0.0
C3885 C 0.66882 0.86706 0.57226 0.0
C3886 C 0.66742 0.82484 0.58918 0.0
C3887 C 0.66133 0.86447 0.56461 0.0
C3888 C 0.71118 0.85285 0.61994 0.0
C3889 C 0.70368 0.84824 0.61227 0.0
C3890 C 0.6729 0.87277 0.59706 0.0
C3891 C 0.65672 0.84264 0.57703 0.0
C3892 C 0.66368 0.84576 0.58528 0.0
C3893 C 0.68363 0.85538 0.60922 0.0
C3894 C 0.67664 0.85188 0.60098 0.0
H3895 H 0.61491 0.79153 0.56399 0.0
H3896 H 0.62746 0.79615 0.57736 0.0
H3897 H 0.66337 0.88609 0.58656 0.0
H3898 H 0.6686 0.88075 0.62526 0.0
H3899 H 0.65497 0.87197 0.61201 0.0
C3900 C 0.17747 0.79105 0.56702 0.0
C3901 C 0.16662 0.80193 0.56145 0.0
C3902 C 0.17614 0.79684 0.57469 0.0
C3903 C 0.13636 0.81837 0.58796 0.0
H3904 H 0.19828 0.83179 0.6018 0.0
C3905 C 0.1345 0.84901 0.6192 0.0
C3906 C 0.14285 0.83542 0.62467 0.0
C3907 C 0.13906 0.84674 0.6115 0.0
C3908 C 0.18066 0.82782 0.59803 0.0
H3909 H 0.14675 0.82835 0.5596 0.0
H3910 H 0.14454 0.83857 0.57293 0.0
H3911 H 0.20324 0.82466 0.58839 0.0
H3912 H 0.16348 0.80955 0.62627 0.0
H3913 H 0.17101 0.80522 0.61285 0.0
H3914 H 0.11369 0.82132 0.59759 0.0
C3915 C 0.15359 0.82505 0.57139 0.0
C3916 C 0.18351 0.82372 0.59033 0.0
C3917 C 0.15489 0.81922 0.56374 0.0
C3918 C 0.15648 0.82005 0.62223 0.0
C3919 C 0.16109 0.81782 0.61452 0.0
C3920 C 0.13353 0.82249 0.59566 0.0
C3921 C 0.16394 0.81371 0.57699 0.0
C3922 C 0.16134 0.81884 0.58518 0.0
C3923 C 0.15212 0.83085 0.60904 0.0
C3924 C 0.15559 0.82719 0.60081 0.0
H3925 H 0.18626 0.7773 0.56549 0.0
H3926 H 0.18395 0.78739 0.57882 0.0
H3927 H 0.1186 0.81415 0.58421 0.0
H3928 H 0.12366 0.86076 0.62084 0.0
H3929 H 0.13221 0.85739 0.60746 0.0
C3930 C 0.18793 0.3765 0.56648 0.0
C3931 C 0.20159 0.36555 0.5618 0.0
C3932 C 0.1833 0.36919 0.57416 0.0
C3933 C 0.2102 0.34209 0.58973 0.0
H3934 H 0.14082 0.32985 0.60007 0.0
C3935 C 0.19977 0.32997 0.62216 0.0
C3936 C 0.17292 0.30889 0.62516 0.0
C3937 C 0.20253 0.3375 0.61451 0.0
C3938 C 0.16026 0.333 0.59727 0.0
H3939 H 0.22086 0.33804 0.56161 0.0
H3940 H 0.21206 0.32471 0.57488 0.0
H3941 H 0.14623 0.34031 0.58656 0.0
H3942 H 0.12766 0.27993 0.6224 0.0
H3943 H 0.13262 0.29255 0.60904 0.0
H3944 H 0.22396 0.33409 0.60036 0.0
C3945 C 0.2053 0.33933 0.57266 0.0
C3946 C 0.16351 0.33934 0.58952 0.0
C3947 C 0.20997 0.34666 0.56499 0.0
C3948 C 0.14877 0.29599 0.6203 0.0
C3949 C 0.15155 0.30349 0.61263 0.0
C3950 C 0.20694 0.33573 0.59746 0.0
C3951 C 0.19221 0.35074 0.57738 0.0
C3952 C 0.18853 0.34392 0.58564 0.0
C3953 C 0.17855 0.32412 0.6096 0.0
C3954 C 0.18195 0.33112 0.60135 0.0
H3955 H 0.18089 0.39085 0.56422 0.0
H3956 H 0.17334 0.37859 0.57762 0.0
H3957 H 0.22996 0.34587 0.58698 0.0
H3958 H 0.21896 0.34017 0.62568 0.0
H3959 H 0.22358 0.3538 0.61243 0.0
C3960 C 0.99746 0.46347 0.73211 0.0
C3961 C 0.97768 0.4707 0.72893 0.0
C3962 C 0.00463 0.4682 0.73978 0.0
C3963 C 1.00249 0.50851 0.75671 0.0
H3964 H 0.01044 0.44945 0.76746 0.0
C3965 C 0.04556 0.5238 0.78756 0.0
C3966 C 0.03297 0.4995 0.79237 0.0
C3967 C 0.03836 0.52106 0.77987 0.0
C3968 C 0.00806 0.46608 0.76458 0.0
H3969 H 0.95057 0.48939 0.73139 0.0
H3970 H 0.96263 0.49707 0.74481 0.0
H3971 H 0.99881 0.44339 0.75406 0.0
H3972 H 1.0027 0.4532 0.79277 0.0
H3973 H 0.98964 0.44861 0.77948 0.0
H3974 H 0.01115 0.53087 0.7673 0.0
C3975 C 0.97282 0.48796 0.74133 0.0
C3976 C 1.00177 0.46278 0.75685 0.0
C3977 C 0.96564 0.48325 0.73364 0.0
C3978 C 0.01262 0.4725 0.78929 0.0
C3979 C 0.00542 0.46978 0.78162 0.0
C3980 C 0.0088 0.51181 0.76447 0.0
C3981 C 0.9922 0.48022 0.74453 0.0
C3982 C 0.99894 0.48396 0.75279 0.0
C3983 C 0.0184 0.49394 0.77677 0.0
C3984 C 0.01163 0.4906 0.76851 0.0
H3985 H 0.00694 0.45345 0.72871 0.0
H3986 H 0.01997 0.46235 0.742 0.0
H3987 H 1.00073 0.52539 0.75378 0.0
H3988 H 0.06108 0.545 0.78973 0.0
H3989 H 0.04897 0.54013 0.77632 0.0
C3990 C 0.54178 0.49051 0.73459 0.0
C3991 C 0.53279 0.50285 0.72892 0.0
C3992 C 0.53633 0.49283 0.74222 0.0
C3993 C 0.52032 0.5375 0.75527 0.0
H3994 H 0.50083 0.47456 0.76932 0.0
C3995 C 0.49155 0.54407 0.78645 0.0
C3996 C 0.5032 0.53383 0.79198 0.0
C3997 C 0.49334 0.53886 0.77876 0.0
C3998 C 0.50652 0.49247 0.76549 0.0
H3999 H 0.51006 0.52646 0.7269 0.0
H4000 H 0.50049 0.53042 0.74019 0.0
H4001 H 0.50703 0.46798 0.75595 0.0
H4002 H 0.52513 0.50925 0.79371 0.0
H4003 H 0.52865 0.50058 0.78033 0.0
H4004 H 0.52003 0.56206 0.7648 0.0
C4005 C 0.51225 0.51939 0.73874 0.0
C4006 C 0.51008 0.48869 0.75781 0.0
C4007 C 0.51771 0.51709 0.7311 0.0
C4008 C 0.51618 0.51774 0.78962 0.0
C4009 C 0.51793 0.51249 0.78193 0.0
C4010 C 0.51675 0.54127 0.76294 0.0
C4011 C 0.52174 0.50755 0.74442 0.0
C4012 C 0.51713 0.51119 0.75259 0.0
C4013 C 0.5068 0.52324 0.77639 0.0
C4014 C 0.50989 0.51885 0.76817 0.0
H4015 H 0.55386 0.4798 0.73315 0.0
H4016 H 0.54435 0.48379 0.74642 0.0
H4017 H 0.52625 0.55552 0.75146 0.0
H4018 H 0.48167 0.55679 0.78803 0.0
H4019 H 0.48419 0.54717 0.77468 0.0
C4020 C 0.52275 0.05574 0.73468 0.0
C4021 C 0.50685 0.03419 0.72926 0.0
C4022 C 0.5208 0.04882 0.74237 0.0
C4023 C 0.49708 0.98715 0.75582 0.0
H4024 H 0.49222 0.04024 0.76991 0.0
C4025 C 0.49247 0.96994 0.78835 0.0
C4026 C 0.47348 0.97599 0.79246 0.0
C4027 C 0.49813 0.97741 0.78069 0.0
C4028 C 0.49338 0.02506 0.76606 0.0
H4029 H 0.47721 0.98816 0.72775 0.0
H4030 H 0.47337 0.97622 0.74115 0.0
H4031 H 0.49901 0.05202 0.75652 0.0
H4032 H 0.4451 0.99415 0.79159 0.0
H4033 H 0.45495 0.00712 0.77832 0.0
H4034 H 0.49059 0.9598 0.76537 0.0
C4035 C 0.48756 0.99848 0.73945 0.0
C4036 C 0.49766 0.03202 0.75837 0.0
C4037 C 0.48951 0.0054 0.73175 0.0
C4038 C 0.46033 0.98969 0.78868 0.0
C4039 C 0.46597 0.99713 0.78104 0.0
C4040 C 0.49281 0.9802 0.76353 0.0
C4041 C 0.50288 0.02016 0.74488 0.0
C4042 C 0.4994 0.0131 0.75313 0.0
C4043 C 0.48495 0.99112 0.77693 0.0
C4044 C 0.49066 0.99896 0.76875 0.0
H4045 H 0.5361 0.07819 0.73301 0.0
H4046 H 0.53325 0.06604 0.74636 0.0
H4047 H 0.49861 0.97218 0.75198 0.0
H4048 H 0.50324 0.9597 0.79108 0.0
H4049 H 0.51315 0.97275 0.77774 0.0
C4050 C 0.51337 0.03556 0.23236 0.0
C4051 C 0.53356 0.03126 0.22826 0.0
C4052 C 0.50804 0.02792 0.24001 0.0
C4053 C 0.51659 0.98266 0.25467 0.0
H4054 H 0.50749 0.03334 0.26872 0.0
C4055 C 0.48812 0.95132 0.28605 0.0
C4056 C 0.50307 0.9732 0.29146 0.0
C4057 C 0.48978 0.95807 0.27836 0.0
C4058 C 0.51012 0.01899 0.26488 0.0
H4059 H 0.56435 0.016 0.22912 0.0
H4060 H 0.55503 1.00269 0.24239 0.0
H4061 H 0.5148 0.04566 0.25531 0.0
H4062 H 0.53073 0.01957 0.29296 0.0
H4063 H 0.53405 0.03128 0.27955 0.0
H4064 H 0.51273 0.95641 0.26423 0.0
C4065 C 0.54286 0.01144 0.23966 0.0
C4066 C 0.51398 0.0259 0.25717 0.0
C4067 C 0.54819 0.01907 0.23203 0.0
C4068 C 0.51918 1.00211 0.28896 0.0
C4069 C 0.52083 0.00886 0.28126 0.0
C4070 C 0.5127 0.97575 0.26236 0.0
C4071 C 0.52275 0.01578 0.24377 0.0
C4072 C 0.51749 0.00793 0.25196 0.0
C4073 C 0.50644 0.9869 0.27584 0.0
C4074 C 0.50957 0.99389 0.26759 0.0
H4075 H 0.50146 0.0446 0.22963 0.0
H4076 H 0.49212 0.03124 0.24296 0.0
H4077 H 0.51886 0.9681 0.25083 0.0
H4078 H 0.47574 0.92879 0.28773 0.0
H4079 H 0.47808 0.94061 0.27437 0.0
C4080 C 0.05461 0.53901 0.2855 0.0
C4081 C 0.03272 0.5299 0.291 0.0
C4082 C 0.04762 0.53387 0.27782 0.0
C4083 C 0.98745 0.48915 0.26454 0.0
H4084 H 0.03288 0.55134 0.25045 0.0
C4085 C 0.95136 0.48815 0.23358 0.0
C4086 C 0.9728 0.49971 0.22793 0.0
C4087 C 0.95899 0.49035 0.24122 0.0
C4088 C 0.0202 0.53355 0.25428 0.0
H4089 H 0.98616 0.50739 0.2927 0.0
H4090 H 0.97397 0.49876 0.27931 0.0
H4091 H 0.0455 0.5577 0.26381 0.0
H4092 H 0.01917 0.52183 0.22594 0.0
H4093 H 0.03247 0.52554 0.23924 0.0
H4094 H 0.96204 0.46507 0.255 0.0
C4095 C 0.9966 0.50976 0.28094 0.0
C4096 C 0.02744 0.53721 0.26196 0.0
C4097 C 1.0036 0.51497 0.28862 0.0
C4098 C 1.00208 0.51306 0.23013 0.0
C4099 C 0.00971 0.51523 0.23778 0.0
C4100 C 0.98021 0.48547 0.25685 0.0
C4101 C 0.01852 0.51941 0.27542 0.0
C4102 C 0.01112 0.51511 0.2672 0.0
C4103 C 0.98828 0.50416 0.24344 0.0
C4104 C 0.99642 0.50767 0.25161 0.0
H4105 H 0.07727 0.55084 0.2871 0.0
H4106 H 0.06508 0.5413 0.27374 0.0
H4107 H 0.97463 0.4715 0.26839 0.0
H4108 H 0.92861 0.47815 0.23212 0.0
H4109 H 0.94187 0.48195 0.24541 0.0
C4110 C 0.52133 0.46703 0.23386 0.0
C4111 C 0.50848 0.47594 0.22832 0.0
C4112 C 0.51934 0.47219 0.24154 0.0
C4113 C 0.50332 0.51665 0.25474 0.0
H4114 H 0.48691 0.45472 0.26888 0.0
C4115 C 0.46793 0.51759 0.28567 0.0
C4116 C 0.47792 0.50619 0.29134 0.0
C4117 C 0.47344 0.5154 0.27803 0.0
C4118 C 0.49191 0.47244 0.26504 0.0
H4119 H 0.48415 0.49811 0.22656 0.0
H4120 H 0.48035 0.50676 0.23994 0.0
H4121 H 0.49333 0.44834 0.25554 0.0
H4122 H 0.50245 0.48441 0.29337 0.0
H4123 H 0.51217 0.48072 0.28008 0.0
H4124 H 0.50172 0.54069 0.26425 0.0
C4125 C 0.49215 0.49591 0.23834 0.0
C4126 C 0.49559 0.46876 0.25736 0.0
C4127 C 0.49407 0.49068 0.23067 0.0
C4128 C 0.49404 0.49304 0.28916 0.0
C4129 C 0.49958 0.49088 0.28152 0.0
C4130 C 0.49967 0.52035 0.26242 0.0
C4131 C 0.50449 0.48646 0.24389 0.0
C4132 C 0.50125 0.49077 0.2521 0.0
C4133 C 0.48911 0.50177 0.27584 0.0
C4134 C 0.49382 0.49825 0.26768 0.0
H4135 H 0.53232 0.45534 0.2323 0.0
H4136 H 0.52943 0.46491 0.24563 0.0
H4137 H 0.50806 0.53424 0.25087 0.0
H4138 H 0.45504 0.52743 0.28711 0.0
H4139 H 0.46465 0.52366 0.27383 0.0
C4140 C 0.98086 0.17896 0.28878 0.0
C4141 C 0.95924 0.15059 0.29067 0.0
C4142 C 0.99303 0.18547 0.28152 0.0
C4143 C 0.97939 0.15732 0.26178 0.0
H4144 H 0.06174 0.21038 0.25923 0.0
C4145 C 0.03807 0.1698 0.23332 0.0
C4146 C 0.05932 0.19785 0.23107 0.0
C4147 C 0.0257 0.1648 0.24053 0.0
C4148 C 0.03864 0.19576 0.25983 0.0
H4149 H 0.93326 0.10693 0.28628 0.0
H4150 H 0.95489 0.11805 0.27376 0.0
H4151 H 0.04071 0.20033 0.27187 0.0
H4152 H 0.08427 0.24261 0.23472 0.0
H4153 H 0.06251 0.23393 0.24728 0.0
H4154 H 0.9774 0.15254 0.24975 0.0
C4155 C 0.96228 0.13544 0.27785 0.0
C4156 C 0.02654 0.19001 0.26709 0.0
C4157 C 0.95013 0.12895 0.28509 0.0
C4158 C 0.0678 0.22077 0.23623 0.0
C4159 C 0.05553 0.21574 0.24347 0.0
C4160 C 0.99151 0.163 0.25453 0.0
C4161 C 0.98388 0.16379 0.27594 0.0
C4162 C 0.99675 0.17057 0.26818 0.0
C4163 C 0.03431 0.18768 0.24572 0.0
C4164 C 0.02132 0.18219 0.25345 0.0
H4165 H 0.98864 0.19616 0.29293 0.0
H4166 H 0.00939 0.20761 0.28026 0.0
H4167 H 0.95629 0.14269 0.26236 0.0
H4168 H 0.03079 0.15167 0.22947 0.0
H4169 H 0.00964 0.14286 0.24209 0.0
C4170 C 0.83828 0.80723 0.28863 0.0
C4171 C 0.8668 0.81406 0.2904 0.0
C4172 C 0.83138 0.81304 0.28144 0.0
C4173 C 0.8647 0.859 0.26457 0.0
H4174 H 0.79334 0.80372 0.2546 0.0
C4175 C 0.82494 0.88746 0.23719 0.0
C4176 C 0.81356 0.86638 0.23145 0.0
C4177 C 0.8309 0.88071 0.24437 0.0
C4178 C 0.81344 0.81933 0.25728 0.0
H4179 H 0.9102 0.83179 0.28582 0.0
H4180 H 0.89825 0.84218 0.27336 0.0
H4181 H 0.80491 0.79242 0.26705 0.0
H4182 H 0.79966 0.82149 0.22885 0.0
H4183 H 0.80981 0.80969 0.24139 0.0
H4184 H 0.8734 0.88579 0.25479 0.0
C4185 C 0.88128 0.83267 0.27757 0.0
C4186 C 0.81993 0.81298 0.26446 0.0
C4187 C 0.88815 0.82674 0.28475 0.0
C4188 C 0.80802 0.83822 0.23314 0.0
C4189 C 0.81387 0.83143 0.24034 0.0
C4190 C 0.85813 0.86542 0.25742 0.0
C4191 C 0.85283 0.82597 0.27582 0.0
C4192 C 0.84569 0.83271 0.2682 0.0
C4193 C 0.82555 0.85264 0.24604 0.0
C4194 C 0.83243 0.84568 0.25367 0.0
H4195 H 0.82131 0.79785 0.29285 0.0
H4196 H 0.80933 0.80792 0.28032 0.0
H4197 H 0.88458 0.87484 0.2673 0.0
H4198 H 0.82895 0.90921 0.23618 0.0
H4199 H 0.83941 0.89746 0.24866 0.0
C4200 C 0.21652 0.06466 0.28501 0.0
C4201 C 0.19506 0.05451 0.29065 0.0
C4202 C 0.21052 0.0517 0.27785 0.0
C4203 C 0.14887 0.00472 0.26515 0.0
H4204 H 0.20716 0.99588 0.25428 0.0
C4205 C 0.12208 0.9371 0.23774 0.0
C4206 C 0.14215 0.94848 0.23176 0.0
C4207 C 0.12899 0.94996 0.2449 0.0
C4208 C 0.19072 0.99844 0.25721 0.0
H4209 H 0.15063 0.02213 0.29322 0.0
H4210 H 0.14024 0.99933 0.28081 0.0
H4211 H 0.21827 0.01811 0.26679 0.0
H4212 H 0.18542 0.98254 0.22872 0.0
H4213 H 0.19753 0.00476 0.24123 0.0
H4214 H 0.12127 0.98486 0.2556 0.0
C4215 C 0.16156 0.01778 0.28184 0.0
C4216 C 0.1971 0.01124 0.26439 0.0
C4217 C 0.16753 0.03084 0.28898 0.0
C4218 C 0.16952 0.97289 0.23319 0.0
C4219 C 0.17648 0.98569 0.24037 0.0
C4220 C 0.14247 0.99182 0.25799 0.0
C4221 C 0.1829 0.02812 0.27615 0.0
C4222 C 0.17624 0.01453 0.26847 0.0
C4223 C 0.15623 0.9745 0.24631 0.0
C4224 C 0.16327 0.98845 0.25393 0.0
H4225 H 0.23785 0.08308 0.28607 0.0
H4226 H 0.2274 0.06059 0.27361 0.0
H4227 H 0.13242 0.00738 0.26803 0.0
H4228 H 0.10103 0.918 0.23692 0.0
H4229 H 0.11305 0.94043 0.24937 0.0
C4230 C 0.93959 0.7834 0.78357 0.0
C4231 C 0.94785 0.80632 0.78872 0.0
C4232 C 0.95202 0.7885 0.77635 0.0
C4233 C 0.0161 0.8413 0.76537 0.0
H4234 H 0.96707 0.80428 0.74799 0.0
C4235 C 0.0577 0.87563 0.73486 0.0
C4236 C 0.04858 0.85403 0.72927 0.0
C4237 C 0.04553 0.86909 0.74209 0.0
C4238 C 0.98118 0.81451 0.75278 0.0
H4239 H 0.97613 0.85252 0.79034 0.0
H4240 H 0.99761 0.86144 0.77776 0.0
H4241 H 0.94588 0.79413 0.76061 0.0
H4242 H 0.01921 0.80846 0.72698 0.0
H4243 H 0.99845 0.79691 0.73965 0.0
H4244 H 0.05142 0.86162 0.75757 0.0
C4245 C 0.98159 0.83947 0.7793 0.0
C4246 C 0.969 0.80869 0.76003 0.0
C4247 C 0.96904 0.83441 0.78649 0.0
C4248 C 0.02697 0.82563 0.73114 0.0
C4249 C 0.01481 0.81906 0.7384 0.0
C4250 C 0.02831 0.84703 0.75813 0.0
C4251 C 0.97318 0.81661 0.77412 0.0
C4252 C 0.98627 0.82216 0.76642 0.0
C4253 C 0.02394 0.84071 0.74398 0.0
C4254 C 0.011 0.83388 0.75172 0.0
H4255 H 0.92316 0.76154 0.78506 0.0
H4256 H 0.94521 0.77034 0.77254 0.0
H4257 H 0.03015 0.85168 0.77017 0.0
H4258 H 0.07455 0.89765 0.73368 0.0
H4259 H 0.05289 0.88643 0.74619 0.0
C4260 C 0.13133 0.18388 0.73543 0.0
C4261 C 0.15256 0.19528 0.72973 0.0
C4262 C 0.13788 0.17779 0.74262 0.0
C4263 C 0.19892 0.19498 0.75562 0.0
H4264 H 0.1426 0.1243 0.76566 0.0
C4265 C 0.22423 0.15566 0.78372 0.0
C4266 C 0.20181 0.14239 0.78907 0.0
C4267 C 0.21877 0.16259 0.77649 0.0
C4268 C 0.15845 0.14434 0.76299 0.0
H4269 H 0.19748 0.20912 0.72718 0.0
H4270 H 0.20893 0.19864 0.73974 0.0
H4271 H 0.13222 0.1354 0.7531 0.0
H4272 H 0.15621 0.12688 0.79106 0.0
H4273 H 0.14673 0.13917 0.77853 0.0
H4274 H 0.22509 0.204 0.76555 0.0
C4275 C 0.18722 0.19466 0.73866 0.0
C4276 C 0.1525 0.15069 0.75577 0.0
C4277 C 0.18065 0.20069 0.73145 0.0
C4278 C 0.17388 0.13661 0.78705 0.0
C4279 C 0.16844 0.14363 0.77984 0.0
C4280 C 0.20486 0.18867 0.76287 0.0
C4281 C 0.16587 0.183 0.74433 0.0
C4282 C 0.17259 0.17613 0.75199 0.0
C4283 C 0.19074 0.15653 0.77443 0.0
C4284 C 0.18465 0.16329 0.76667 0.0
H4285 H 0.10964 0.18001 0.73439 0.0
H4286 H 0.12103 0.16935 0.74688 0.0
H4287 H 0.21475 0.21495 0.75293 0.0
H4288 H 0.24593 0.16011 0.78505 0.0
H4289 H 0.23642 0.17214 0.77247 0.0
C4290 C 0.87591 0.06521 0.78372 0.0
C4291 C 0.85488 0.05454 0.78948 0.0
C4292 C 0.86926 0.0533 0.77645 0.0
C4293 C 0.8079 0.00984 0.76347 0.0
H4294 H 0.86489 0.9983 0.75281 0.0
C4295 C 0.7829 0.94773 0.73497 0.0
C4296 C 0.80509 0.95796 0.72952 0.0
C4297 C 0.78836 0.95962 0.74225 0.0
C4298 C 0.84885 1.00171 0.75565 0.0
H4299 H 0.81019 0.02275 0.79203 0.0
H4300 H 0.79856 1.00202 0.77934 0.0
H4301 H 0.87538 0.01841 0.76551 0.0
H4302 H 0.85023 0.98953 0.72742 0.0
H4303 H 0.8597 0.01038 0.74007 0.0
H4304 H 0.7814 0.99319 0.75358 0.0
C4305 C 0.82019 0.01986 0.78045 0.0
C4306 C 0.85486 0.01323 0.76296 0.0
C4307 C 0.82687 0.03176 0.78773 0.0
C4308 C 0.83275 0.98076 0.73151 0.0
C4309 C 0.83819 0.99269 0.73878 0.0
C4310 C 0.80189 0.99835 0.75614 0.0
C4311 C 0.84135 0.03039 0.77472 0.0
C4312 C 0.83454 0.01758 0.76697 0.0
C4313 C 0.81615 0.98212 0.74428 0.0
C4314 C 0.82234 0.99422 0.75211 0.0
H4315 H 0.89752 0.08314 0.78478 0.0
H4316 H 0.88596 0.06237 0.77216 0.0
H4317 H 0.79188 0.01321 0.76634 0.0
H4318 H 0.76144 0.92995 0.73367 0.0
H4319 H 0.77093 0.95065 0.74635 0.0
C4320 C 0.64491 0.51357 0.62222 0.0
C4321 C 0.62238 0.48544 0.62396 0.0
C4322 C 0.65648 0.52055 0.61491 0.0
C4323 C 0.63984 0.49543 0.59496 0.0
H4324 H 0.72267 0.54476 0.5921 0.0
C4325 C 0.6952 0.50859 0.56594 0.0
C4326 C 0.71775 0.53632 0.5639 0.0
C4327 C 0.68325 0.50324 0.57321 0.0
C4328 C 0.69944 0.53124 0.59279 0.0
H4329 H 0.59416 0.44274 0.61925 0.0
H4330 H 0.61473 0.45464 0.60661 0.0
H4331 H 0.70272 0.5339 0.60486 0.0
H4332 H 0.74536 0.58017 0.56798 0.0
H4333 H 0.72427 0.57092 0.58062 0.0
H4334 H 0.63661 0.49256 0.5829 0.0
C4335 C 0.62329 0.47147 0.61087 0.0
C4336 C 0.68797 0.52501 0.60012 0.0
C4337 C 0.61174 0.46452 0.61817 0.0
C4338 C 0.72784 0.55862 0.56932 0.0
C4339 C 0.71597 0.55323 0.5766 0.0
C4340 C 0.65131 0.5016 0.58764 0.0
C4341 C 0.64579 0.49959 0.60912 0.0
C4342 C 0.65801 0.50688 0.60131 0.0
C4343 C 0.69358 0.52544 0.57865 0.0
C4344 C 0.68128 0.51947 0.58646 0.0
H4345 H 0.65385 0.5302 0.62653 0.0
H4346 H 0.67359 0.5425 0.61377 0.0
H4347 H 0.61661 0.48185 0.59564 0.0
H4348 H 0.6867 0.49097 0.5619 0.0
H4349 H 0.66623 0.4815 0.5746 0.0
C4350 C 0.54378 0.15174 0.61861 0.0
C4351 C 0.52181 0.13797 0.62406 0.0
C4352 C 0.53731 0.15695 0.61131 0.0
C4353 C 0.47705 0.13344 0.59758 0.0
H4354 H 0.52943 0.20639 0.58781 0.0
C4355 C 0.45015 0.16802 0.56893 0.0
C4356 C 0.47302 0.18311 0.56378 0.0
C4357 C 0.45556 0.16184 0.57625 0.0
C4358 C 0.51473 0.18573 0.5904 0.0
H4359 H 0.47565 0.11911 0.62605 0.0
H4360 H 0.46436 0.12811 0.61331 0.0
H4361 H 0.53969 0.19719 0.60059 0.0
H4362 H 0.51947 0.20258 0.56227 0.0
H4363 H 0.52888 0.1917 0.57497 0.0
H4364 H 0.45213 0.12197 0.58736 0.0
C4365 C 0.48662 0.1346 0.61467 0.0
C4366 C 0.52062 0.18047 0.59776 0.0
C4367 C 0.49311 0.12943 0.62199 0.0
C4368 C 0.50138 0.19138 0.56611 0.0
C4369 C 0.50678 0.18517 0.57342 0.0
C4370 C 0.47118 0.13869 0.59021 0.0
C4371 C 0.50866 0.14849 0.60924 0.0
C4372 C 0.50194 0.15421 0.60144 0.0
C4373 C 0.484 0.17056 0.57862 0.0
C4374 C 0.49001 0.16488 0.5865 0.0
H4375 H 0.56604 0.15809 0.61992 0.0
H4376 H 0.55478 0.16721 0.60725 0.0
H4377 H 0.46237 0.11283 0.6002 0.0
H4378 H 0.42808 0.16164 0.56737 0.0
H4379 H 0.4375 0.15087 0.58011 0.0
C4380 C 0.88844 0.39797 0.61831 0.0
C4381 C 0.86536 0.38999 0.6234 0.0
C4382 C 0.88342 0.38602 0.61104 0.0
C4383 C 0.82468 0.34818 0.59684 0.0
H4384 H 0.87892 0.32913 0.58754 0.0
C4385 C 0.79789 0.28264 0.56909 0.0
C4386 C 0.81997 0.29123 0.56365 0.0
C4387 C 0.80396 0.2949 0.57632 0.0
C4388 C 0.8637 0.33462 0.59002 0.0
H4389 H 0.81896 0.36244 0.62485 0.0
H4390 H 0.81023 0.34146 0.61223 0.0
H4391 H 0.8884 0.34968 0.60024 0.0
H4392 H 0.86593 0.31972 0.56164 0.0
H4393 H 0.87654 0.34101 0.57427 0.0
H4394 H 0.79991 0.33298 0.58665 0.0
C4395 C 0.83218 0.35747 0.61379 0.0
C4396 C 0.86914 0.34644 0.59731 0.0
C4397 C 0.83719 0.36948 0.62104 0.0
C4398 C 0.84841 0.31229 0.56569 0.0
C4399 C 0.85451 0.32453 0.57294 0.0
C4400 C 0.81921 0.3363 0.58957 0.0
C4401 C 0.85519 0.36569 0.60865 0.0
C4402 C 0.84964 0.3533 0.60084 0.0
C4403 C 0.83233 0.31607 0.57835 0.0
C4404 C 0.83857 0.32924 0.58606 0.0
H4405 H 0.91037 0.41397 0.61989 0.0
H4406 H 0.90165 0.39322 0.60722 0.0
H4407 H 0.80944 0.35371 0.59929 0.0
H4408 H 0.77585 0.26604 0.5678 0.0
H4409 H 0.78642 0.28743 0.58036 0.0
C4410 C 0.72837 0.20561 0.06877 0.0
C4411 C 0.71735 0.18483 0.06296 0.0
C4412 C 0.71689 0.19865 0.07608 0.0
C4413 C 0.6519 0.14572 0.08683 0.0
H4414 H 0.70358 0.17706 0.10403 0.0
C4415 C 0.61198 0.11215 0.11763 0.0
C4416 C 0.62254 0.13438 0.12307 0.0
C4417 C 0.62377 0.11744 0.11034 0.0
C4418 C 0.68879 0.16833 0.09929 0.0
H4419 H 0.68531 0.14031 0.06033 0.0
H4420 H 0.66566 0.128 0.07311 0.0
H4421 H 0.72346 0.18766 0.09128 0.0
H4422 H 0.65434 0.17948 0.12511 0.0
H4423 H 0.67467 0.18878 0.1124 0.0
H4424 H 0.61723 0.1264 0.09486 0.0
C4425 C 0.68302 0.14985 0.07199 0.0
C4426 C 0.7002 0.17444 0.09196 0.0
C4427 C 0.69453 0.15682 0.06467 0.0
C4428 C 0.64547 0.16192 0.12105 0.0
C4429 C 0.65735 0.16718 0.11378 0.0
C4430 C 0.64049 0.13956 0.09416 0.0
C4431 C 0.69408 0.17067 0.0778 0.0
C4432 C 0.68191 0.16339 0.08562 0.0
C4433 C 0.64655 0.14506 0.1083 0.0
C4434 C 0.65877 0.15093 0.10049 0.0
H4435 H 0.74619 0.22729 0.06771 0.0
H4436 H 0.72575 0.21539 0.08036 0.0
H4437 H 0.63708 0.13715 0.0821 0.0
H4438 H 0.59416 0.09075 0.11895 0.0
H4439 H 0.61511 0.09982 0.1063 0.0
C4440 C 0.89414 0.50393 0.11758 0.0
C4441 C 0.87132 0.48879 0.12274 0.0
C4442 C 0.88864 0.51012 0.11027 0.0
C4443 C 0.82935 0.48623 0.09616 0.0
H4444 H 0.88161 0.55919 0.08637 0.0
C4445 C 0.8001 0.52029 0.068 0.0
C4446 C 0.82204 0.53403 0.06253 0.0
C4447 C 0.80663 0.51508 0.07529 0.0
C4448 C 0.86696 0.53856 0.08899 0.0
H4449 H 0.82487 0.46924 0.12429 0.0
H4450 H 0.81532 0.48015 0.1116 0.0
H4451 H 0.89194 0.55002 0.09919 0.0
H4452 H 0.86818 0.55288 0.06052 0.0
H4453 H 0.87956 0.54389 0.07325 0.0
H4454 H 0.80432 0.4748 0.08598 0.0
C4455 C 0.83744 0.48671 0.11314 0.0
C4456 C 0.87288 0.53329 0.09635 0.0
C4457 C 0.84293 0.48048 0.12043 0.0
C4458 C 0.85075 0.54257 0.06459 0.0
C4459 C 0.85729 0.53741 0.0719 0.0
C4460 C 0.82341 0.49152 0.08882 0.0
C4461 C 0.86017 0.50138 0.10793 0.0
C4462 C 0.85409 0.50708 0.10005 0.0
C4463 C 0.83529 0.52353 0.07735 0.0
C4464 C 0.84205 0.51779 0.08513 0.0
H4465 H 0.91622 0.51034 0.11912 0.0
H4466 H 0.90667 0.52112 0.1064 0.0
H4467 H 0.81467 0.46556 0.09875 0.0
H4468 H 0.77784 0.51394 0.0667 0.0
H4469 H 0.78919 0.50483 0.07936 0.0
C4470 C 0.49445 0.37492 0.11965 0.0
C4471 C 0.52048 0.38198 0.12339 0.0
C4472 C 0.48861 0.36247 0.11243 0.0
C4473 C 0.52506 0.35381 0.09559 0.0
H4474 H 0.44753 0.29317 0.09026 0.0
C4475 C 0.49399 0.31172 0.06491 0.0
C4476 C 0.47571 0.28171 0.06388 0.0
C4477 C 0.49905 0.32401 0.07213 0.0
C4478 C 0.46936 0.30995 0.09166 0.0
H4479 H 0.5608 0.38146 0.12241 0.0
H4480 H 0.5504 0.35928 0.10992 0.0
H4481 H 0.45715 0.31372 0.10295 0.0
H4482 H 0.44872 0.24111 0.06972 0.0
H4483 H 0.45757 0.26247 0.0823 0.0
H4484 H 0.53743 0.34965 0.08436 0.0
C4485 C 0.53459 0.36365 0.11253 0.0
C4486 C 0.47481 0.32199 0.09893 0.0
C4487 C 0.5404 0.37604 0.11974 0.0
C4488 C 0.46256 0.26435 0.07027 0.0
C4489 C 0.46764 0.27663 0.0775 0.0
C4490 C 0.51961 0.3418 0.08833 0.0
C4491 C 0.50867 0.3568 0.10875 0.0
C4492 C 0.50276 0.34404 0.101 0.0
C4493 C 0.486 0.30663 0.07854 0.0
C4494 C 0.4917 0.31966 0.08626 0.0
H4495 H 0.47848 0.37893 0.1223 0.0
H4496 H 0.46854 0.35773 0.10968 0.0
H4497 H 0.54677 0.37099 0.09694 0.0
H4498 H 0.50413 0.32583 0.06011 0.0
H4499 H 0.51293 0.34724 0.07269 0.0
C4500 C 0.3715 0.86702 0.89966 0.0
C4501 C 0.3936 0.86078 0.89791 0.0
C4502 C 0.35891 0.86124 0.90686 0.0
C4503 C 0.34749 0.81617 0.92383 0.0
H4504 H 0.3299 0.87061 0.93365 0.0
C4505 C 0.2789 0.78712 0.95115 0.0
C4506 C 0.28818 0.80832 0.95686 0.0
C4507 C 0.29173 0.7939 0.94399 0.0
C4508 C 0.33482 0.85524 0.93101 0.0
H4509 H 0.42018 0.84419 0.90255 0.0
H4510 H 0.39804 0.83386 0.91504 0.0
H4511 H 0.35272 0.88198 0.92119 0.0
H4512 H 0.31857 0.85343 0.95941 0.0
H4513 H 0.34071 0.86528 0.94689 0.0
H4514 H 0.32986 0.78955 0.93366 0.0
C4515 C 0.39016 0.84287 0.91079 0.0
C4516 C 0.34764 0.86163 0.92383 0.0
C4517 C 0.40284 0.84876 0.90361 0.0
C4518 C 0.31052 0.8366 0.95515 0.0
C4519 C 0.32327 0.84342 0.94796 0.0
C4520 C 0.33452 0.80971 0.93098 0.0
C4521 C 0.36798 0.84895 0.91251 0.0
C4522 C 0.3542 0.8422 0.92015 0.0
C4523 C 0.31413 0.82212 0.94229 0.0
C4524 C 0.32801 0.82915 0.93467 0.0
H4525 H 0.36348 0.87587 0.89541 0.0
H4526 H 0.34163 0.86587 0.90796 0.0
H4527 H 0.35196 0.80056 0.92115 0.0
H4528 H 0.26139 0.76526 0.95218 0.0
H4529 H 0.2838 0.77706 0.93973 0.0
C4530 C 0.19267 0.50441 0.95589 0.0
C4531 C 0.18569 0.47598 0.95778 0.0
C4532 C 0.18644 0.51086 0.94871 0.0
C4533 C 0.14203 0.47709 0.93146 0.0
H4534 H 0.19833 0.54942 0.92208 0.0
C4535 C 0.13474 0.50382 0.89997 0.0
C4536 C 0.14139 0.5323 0.89825 0.0
C4537 C 0.13954 0.49658 0.90723 0.0
C4538 C 0.18221 0.52926 0.92464 0.0
H4539 H 0.16657 0.43205 0.95351 0.0
H4540 H 0.15587 0.44331 0.94098 0.0
H4541 H 0.20753 0.5375 0.93468 0.0
H4542 H 0.15773 0.57529 0.90298 0.0
H4543 H 0.16633 0.56274 0.91557 0.0
H4544 H 0.11686 0.46882 0.92135 0.0
C4545 C 0.16576 0.46058 0.9451 0.0
C4546 C 0.18746 0.52242 0.93189 0.0
C4547 C 0.17192 0.45411 0.9523 0.0
C4548 C 0.15287 0.55328 0.90402 0.0
C4549 C 0.15777 0.54607 0.91126 0.0
C4550 C 0.13682 0.4839 0.92418 0.0
C4551 C 0.17313 0.48911 0.94318 0.0
C4552 C 0.16742 0.49628 0.93542 0.0
C4553 C 0.15124 0.51764 0.91297 0.0
C4554 C 0.15681 0.51014 0.92069 0.0
H4555 H 0.20284 0.52171 0.96 0.0
H4556 H 0.1919 0.53296 0.94751 0.0
H4557 H 0.12588 0.45695 0.93401 0.0
H4558 H 0.12628 0.48714 0.89567 0.0
H4559 H 0.1346 0.47456 0.90831 0.0
C4560 C 0.49424 0.60486 0.90283 0.0
C4561 C 0.47822 0.61209 0.89785 0.0
C4562 C 0.50162 0.61712 0.91006 0.0
C4563 C 0.50994 0.67949 0.92139 0.0
H4564 H 0.50303 0.6312 0.93854 0.0
C4565 C 0.51773 0.71959 0.95209 0.0
C4566 C 0.53207 0.71183 0.95749 0.0
C4567 C 0.51192 0.70748 0.94485 0.0
C4568 C 0.50547 0.64513 0.93381 0.0
H4569 H 0.45793 0.63841 0.89658 0.0
H4570 H 0.47052 0.65952 0.90919 0.0
H4571 H 0.49185 0.61027 0.92589 0.0
H4572 H 0.55127 0.68483 0.95941 0.0
H4573 H 0.54167 0.66416 0.94673 0.0
H4574 H 0.52361 0.71435 0.92928 0.0
C4575 C 0.47752 0.64446 0.9075 0.0
C4576 C 0.49903 0.63309 0.92654 0.0
C4577 C 0.47001 0.63209 0.90028 0.0
C4578 C 0.54043 0.69156 0.95541 0.0
C4579 C 0.53461 0.67943 0.94814 0.0
C4580 C 0.51646 0.69154 0.92864 0.0
C4581 C 0.49335 0.63709 0.9125 0.0
C4582 C 0.50099 0.65006 0.92023 0.0
C4583 C 0.52032 0.68727 0.94275 0.0
C4584 C 0.51413 0.6745 0.93498 0.0
H4585 H 0.50072 0.58936 0.90118 0.0
H4586 H 0.51405 0.61113 0.91373 0.0
H4587 H 0.51221 0.69336 0.91665 0.0
H4588 H 0.5113 0.7354 0.95343 0.0
H4589 H 0.50055 0.71381 0.9409 0.0
C4590 C 0.28192 0.44689 0.45137 0.0
C4591 C 0.29159 0.46953 0.45667 0.0
C4592 C 0.29366 0.45204 0.44407 0.0
C4593 C 0.35749 0.50407 0.43283 0.0
H4594 H 0.30598 0.46944 0.41572 0.0
C4595 C 0.39592 0.53968 0.40216 0.0
C4596 C 0.38575 0.51834 0.39648 0.0
C4597 C 0.3845 0.53298 0.40947 0.0
C4598 C 0.32076 0.479 0.42043 0.0
H4599 H 0.32178 0.51526 0.45846 0.0
H4600 H 0.34201 0.52429 0.44574 0.0
H4601 H 0.28631 0.45902 0.42851 0.0
H4602 H 0.35525 0.47312 0.39411 0.0
H4603 H 0.33574 0.4613 0.40691 0.0
H4604 H 0.39194 0.52404 0.42477 0.0
C4605 C 0.32542 0.50248 0.44723 0.0
C4606 C 0.30945 0.47302 0.42778 0.0
C4607 C 0.3136 0.49737 0.45451 0.0
C4608 C 0.36381 0.49007 0.39834 0.0
C4609 C 0.35238 0.48336 0.40567 0.0
C4610 C 0.3688 0.50999 0.42549 0.0
C4611 C 0.3155 0.47993 0.44189 0.0
C4612 C 0.32764 0.48562 0.43407 0.0
C4613 C 0.36262 0.50472 0.41134 0.0
C4614 C 0.35058 0.4977 0.41918 0.0
H4615 H 0.26482 0.42525 0.4528 0.0
H4616 H 0.28569 0.43409 0.44014 0.0
H4617 H 0.37223 0.51376 0.43754 0.0
H4618 H 0.41305 0.56159 0.40099 0.0
H4619 H 0.3927 0.55011 0.41365 0.0
C4620 C 0.46487 0.8548 0.40199 0.0
C4621 C 0.48643 0.86686 0.39638 0.0
C4622 C 0.47142 0.84955 0.40926 0.0
C4623 C 0.53221 0.86986 0.42263 0.0
H4624 H 0.47728 0.79848 0.43265 0.0
C4625 C 0.54239 0.84705 0.45429 0.0
C4626 C 0.53571 0.81874 0.45622 0.0
C4627 C 0.53712 0.85346 0.44697 0.0
C4628 C 0.49298 0.81844 0.42992 0.0
H4629 H 0.53197 0.8828 0.3941 0.0
H4630 H 0.54341 0.87371 0.40681 0.0
H4631 H 0.46705 0.80841 0.41993 0.0
H4632 H 0.51911 0.77524 0.45183 0.0
H4633 H 0.50982 0.78634 0.43916 0.0
H4634 H 0.55833 0.87963 0.4326 0.0
C4635 C 0.52143 0.86859 0.40558 0.0
C4636 C 0.48694 0.8243 0.42265 0.0
C4637 C 0.51486 0.8738 0.39828 0.0
C4638 C 0.52394 0.79713 0.45062 0.0
C4639 C 0.51864 0.80351 0.44333 0.0
C4640 C 0.53821 0.86403 0.42992 0.0
C4641 C 0.49975 0.85625 0.41116 0.0
C4642 C 0.50645 0.85008 0.4189 0.0
C4643 C 0.52501 0.83172 0.44141 0.0
C4644 C 0.51868 0.8382 0.43366 0.0
H4645 H 0.44288 0.84976 0.4008 0.0
H4646 H 0.45428 0.84054 0.41344 0.0
H4647 H 0.54761 0.89004 0.41994 0.0
H4648 H 0.55118 0.86419 0.45846 0.0
H4649 H 0.54199 0.87534 0.44573 0.0
C4650 C 0.20963 0.72769 0.45009 0.0
C4651 C 0.18816 0.71842 0.45573 0.0
C4652 C 0.20274 0.71627 0.44278 0.0
C4653 C 0.14736 0.65351 0.43182 0.0
H4654 H 0.18457 0.70409 0.41469 0.0
C4655 C 0.11602 0.61454 0.40085 0.0
C4656 C 0.13892 0.62327 0.39567 0.0
C4657 C 0.12111 0.62648 0.40813 0.0
C4658 C 0.17417 0.68959 0.41941 0.0
H4659 H 0.14249 0.68955 0.45802 0.0
H4660 H 0.13036 0.67003 0.44522 0.0
H4661 H 0.19493 0.72405 0.42743 0.0
H4662 H 0.18507 0.65198 0.39405 0.0
H4663 H 0.19399 0.67252 0.40673 0.0
H4664 H 0.12664 0.61903 0.42377 0.0
C4665 C 0.15266 0.68596 0.44649 0.0
C4666 C 0.18014 0.70104 0.42673 0.0
C4667 C 0.15955 0.69741 0.45382 0.0
C4668 C 0.16697 0.64453 0.39791 0.0
C4669 C 0.17203 0.65654 0.40517 0.0
C4670 C 0.14135 0.64206 0.42449 0.0
C4671 C 0.17417 0.69527 0.44087 0.0
C4672 C 0.167 0.68314 0.43305 0.0
C4673 C 0.14921 0.64757 0.41039 0.0
C4674 C 0.15484 0.65991 0.41819 0.0
H4675 H 0.23181 0.74411 0.4513 0.0
H4676 H 0.21998 0.72372 0.43865 0.0
H4677 H 0.13712 0.63896 0.43653 0.0
H4678 H 0.0942 0.59803 0.39935 0.0
H4679 H 0.10296 0.61925 0.41197 0.0
loop_
_geom_bond_atom_site_label_1
_geom_bond_atom_site_label_2
_geom_bond_distance
_geom_bond_site_symmetry_2
_ccdc_geom_bond_type
Pr0 C2 2.880 . S
Pr0 O20 2.562 . S
Pr0 O21 2.490 . S
Pr0 O22 2.695 . S
Pr0 O23 2.512 . S
Pr0 O25 2.437 . S
Pr0 O28 2.436 . S
Pr0 O30 2.438 . S
Pr1 C11 2.880 . S
Pr1 O22 2.436 . S
Pr1 O24 2.438 . S
Pr1 O26 2.562 . S
Pr1 O27 2.490 . S
Pr1 O28 2.695 . S
Pr1 O29 2.512 . S
Pr1 O31 2.437 . S
C2 Pr0 2.880 . S
C2 C3 1.491 . S
C2 O20 1.254 . S
C2 O21 1.225 . S
C3 C2 1.491 . S
C3 C4 1.392 . S
C3 C8 1.356 . S
C4 C3 1.392 . S
C4 C5 1.368 . S
C4 H32 0.929 . S
C5 C4 1.368 . S
C5 C6 1.386 . S
C5 H33 0.929 . S
C6 C5 1.386 . S
C6 C7 1.373 . S
C7 C6 1.373 . S
C7 C8 1.409 . S
C7 H34 0.931 . S
C8 C3 1.356 . S
C8 C7 1.409 . S
C8 H35 0.930 . S
C9 O22 1.270 . S
C9 O23 1.248 . S
C10 O24 1.267 . S
C10 O25 1.278 . S
C11 Pr1 2.880 . S
C11 C12 1.491 . S
C11 O26 1.254 . S
C11 O27 1.225 . S
C12 C11 1.491 . S
C12 C13 1.392 . S
C12 C17 1.356 . S
C13 C12 1.392 . S
C13 C14 1.368 . S
C13 H36 0.929 . S
C14 C13 1.368 . S
C14 C15 1.386 . S
C14 H37 0.929 . S
C15 C14 1.386 . S
C15 C16 1.373 . S
C16 C15 1.373 . S
C16 C17 1.409 . S
C16 H38 0.931 . S
C17 C12 1.356 . S
C17 C16 1.409 . S
C17 H39 0.930 . S
C18 O28 1.270 . S
C18 O29 1.248 . S
C19 O30 1.267 . S
C19 O31 1.278 . S
O20 Pr0 2.562 . S
O20 C2 1.254 . S
O21 Pr0 2.490 . S
O21 C2 1.225 . S
O22 Pr0 2.695 . S
O22 Pr1 2.436 . S
O22 C9 1.270 . S
O23 Pr0 2.512 . S
O23 C9 1.248 . S
O24 Pr1 2.438 . S
O24 C10 1.267 . S
O25 Pr0 2.437 . S
O25 C10 1.278 . S
O26 Pr1 2.562 . S
O26 C11 1.254 . S
O27 Pr1 2.490 . S
O27 C11 1.225 . S
O28 Pr0 2.436 . S
O28 Pr1 2.695 . S
O28 C18 1.270 . S
O29 Pr1 2.512 . S
O29 C18 1.248 . S
O30 Pr0 2.438 . S
O30 C19 1.267 . S
O31 Pr1 2.437 . S
O31 C19 1.278 . S
H32 C4 0.929 . S
H33 C5 0.929 . S
H34 C7 0.931 . S
H35 C8 0.930 . S
H36 C13 0.929 . S
H37 C14 0.929 . S
H38 C16 0.931 . S
H39 C17 0.930 . S
Pr40 C42 2.880 . S
Pr40 O60 2.562 . S
Pr40 O61 2.490 . S
Pr40 O62 2.695 . S
Pr40 O63 2.512 . S
Pr40 O65 2.437 . S
Pr40 O68 2.436 . S
Pr40 O70 2.438 . S
Pr41 C51 2.880 . S
Pr41 O62 2.436 . S
Pr41 O64 2.438 . S
Pr41 O66 2.562 . S
Pr41 O67 2.490 . S
Pr41 O68 2.695 . S
Pr41 O69 2.512 . S
Pr41 O71 2.437 . S
C42 Pr40 2.880 . S
C42 C43 1.491 . S
C42 O60 1.254 . S
C42 O61 1.225 . S
C43 C42 1.491 . S
C43 C44 1.392 . S
C43 C48 1.356 . S
C44 C43 1.392 . S
C44 C45 1.368 . S
C44 H72 0.929 . S
C45 C44 1.368 . S
C45 C46 1.386 . S
C45 H73 0.929 . S
C46 C45 1.386 . S
C46 C47 1.373 . S
C47 C46 1.373 . S
C47 C48 1.409 . S
C47 H74 0.931 . S
C48 C43 1.356 . S
C48 C47 1.409 . S
C48 H75 0.930 . S
C49 O62 1.270 . S
C49 O63 1.248 . S
C50 O64 1.267 . S
C50 O65 1.278 . S
C51 Pr41 2.880 . S
C51 C52 1.491 . S
C51 O66 1.254 . S
C51 O67 1.225 . S
C52 C51 1.491 . S
C52 C53 1.392 . S
C52 C57 1.356 . S
C53 C52 1.392 . S
C53 C54 1.368 . S
C53 H76 0.929 . S
C54 C53 1.368 . S
C54 C55 1.386 . S
C54 H77 0.929 . S
C55 C54 1.386 . S
C55 C56 1.373 . S
C56 C55 1.373 . S
C56 C57 1.409 . S
C56 H78 0.931 . S
C57 C52 1.356 . S
C57 C56 1.409 . S
C57 H79 0.930 . S
C58 O68 1.270 . S
C58 O69 1.248 . S
C59 O70 1.267 . S
C59 O71 1.278 . S
O60 Pr40 2.562 . S
O60 C42 1.254 . S
O61 Pr40 2.490 . S
O61 C42 1.225 . S
O62 Pr40 2.695 . S
O62 Pr41 2.436 . S
O62 C49 1.270 . S
O63 Pr40 2.512 . S
O63 C49 1.248 . S
O64 Pr41 2.438 . S
O64 C50 1.267 . S
O65 Pr40 2.437 . S
O65 C50 1.278 . S
O66 Pr41 2.562 . S
O66 C51 1.254 . S
O67 Pr41 2.490 . S
O67 C51 1.225 . S
O68 Pr40 2.436 . S
O68 Pr41 2.695 . S
O68 C58 1.270 . S
O69 Pr41 2.512 . S
O69 C58 1.248 . S
O70 Pr40 2.438 . S
O70 C59 1.267 . S
O71 Pr41 2.437 . S
O71 C59 1.278 . S
H72 C44 0.929 . S
H73 C45 0.929 . S
H74 C47 0.931 . S
H75 C48 0.930 . S
H76 C53 0.929 . S
H77 C54 0.929 . S
H78 C56 0.931 . S
H79 C57 0.930 . S
Pr80 C82 2.880 . S
Pr80 O100 2.562 . S
Pr80 O101 2.490 . S
Pr80 O102 2.695 . S
Pr80 O103 2.512 . S
Pr80 O105 2.437 . S
Pr80 O108 2.436 . S
Pr80 O110 2.438 . S
Pr81 C91 2.880 . S
Pr81 O102 2.436 . S
Pr81 O104 2.438 . S
Pr81 O106 2.562 . S
Pr81 O107 2.490 . S
Pr81 O108 2.695 . S
Pr81 O109 2.512 . S
Pr81 O111 2.437 . S
C82 Pr80 2.880 . S
C82 C83 1.491 . S
C82 O100 1.254 . S
C82 O101 1.225 . S
C83 C82 1.491 . S
C83 C84 1.392 . S
C83 C88 1.356 . S
C84 C83 1.392 . S
C84 C85 1.368 . S
C84 H112 0.929 . S
C85 C84 1.368 . S
C85 C86 1.386 . S
C85 H113 0.929 . S
C86 C85 1.386 . S
C86 C87 1.373 . S
C87 C86 1.373 . S
C87 C88 1.409 . S
C87 H114 0.931 . S
C88 C83 1.356 . S
C88 C87 1.409 . S
C88 H115 0.930 . S
C89 O102 1.270 . S
C89 O103 1.248 . S
C90 O104 1.267 . S
C90 O105 1.278 . S
C91 Pr81 2.880 . S
C91 C92 1.491 . S
C91 O106 1.254 . S
C91 O107 1.225 . S
C92 C91 1.491 . S
C92 C93 1.392 . S
C92 C97 1.356 . S
C93 C92 1.392 . S
C93 C94 1.368 . S
C93 H116 0.929 . S
C94 C93 1.368 . S
C94 C95 1.386 . S
C94 H117 0.929 . S
C95 C94 1.386 . S
C95 C96 1.373 . S
C96 C95 1.373 . S
C96 C97 1.409 . S
C96 H118 0.931 . S
C97 C92 1.356 . S
C97 C96 1.409 . S
C97 H119 0.930 . S
C98 O108 1.270 . S
C98 O109 1.248 . S
C99 O110 1.267 . S
C99 O111 1.278 . S
O100 Pr80 2.562 . S
O100 C82 1.254 . S
O101 Pr80 2.490 . S
O101 C82 1.225 . S
O102 Pr80 2.695 . S
O102 Pr81 2.436 . S
O102 C89 1.270 . S
O103 Pr80 2.512 . S
O103 C89 1.248 . S
O104 Pr81 2.438 . S
O104 C90 1.267 . S
O105 Pr80 2.437 . S
O105 C90 1.278 . S
O106 Pr81 2.562 . S
O106 C91 1.254 . S
O107 Pr81 2.490 . S
O107 C91 1.225 . S
O108 Pr80 2.436 . S
O108 Pr81 2.695 . S
O108 C98 1.270 . S
O109 Pr81 2.512 . S
O109 C98 1.248 . S
O110 Pr80 2.438 . S
O110 C99 1.267 . S
O111 Pr81 2.437 . S
O111 C99 1.278 . S
H112 C84 0.929 . S
H113 C85 0.929 . S
H114 C87 0.931 . S
H115 C88 0.930 . S
H116 C93 0.929 . S
H117 C94 0.929 . S
H118 C96 0.931 . S
H119 C97 0.930 . S
Pr120 C122 2.880 . S
Pr120 O140 2.562 . S
Pr120 O141 2.490 . S
Pr120 O142 2.695 . S
Pr120 O143 2.512 . S
Pr120 O145 2.437 . S
Pr120 O148 2.436 . S
Pr120 O150 2.438 . S
Pr121 C131 2.880 . S
Pr121 O142 2.436 . S
Pr121 O144 2.438 . S
Pr121 O146 2.562 . S
Pr121 O147 2.490 . S
Pr121 O148 2.695 . S
Pr121 O149 2.512 . S
Pr121 O151 2.437 . S
C122 Pr120 2.880 . S
C122 C123 1.491 . S
C122 O140 1.254 . S
C122 O141 1.225 . S
C123 C122 1.491 . S
C123 C124 1.392 . S
C123 C128 1.356 . S
C124 C123 1.392 . S
C124 C125 1.368 . S
C124 H152 0.929 . S
C125 C124 1.368 . S
C125 C126 1.386 . S
C125 H153 0.929 . S
C126 C125 1.386 . S
C126 C127 1.373 . S
C127 C126 1.373 . S
C127 C128 1.409 . S
C127 H154 0.931 . S
C128 C123 1.356 . S
C128 C127 1.409 . S
C128 H155 0.930 . S
C129 O142 1.270 . S
C129 O143 1.248 . S
C130 O144 1.267 . S
C130 O145 1.278 . S
C131 Pr121 2.880 . S
C131 C132 1.491 . S
C131 O146 1.254 . S
C131 O147 1.225 . S
C132 C131 1.491 . S
C132 C133 1.392 . S
C132 C137 1.356 . S
C133 C132 1.392 . S
C133 C134 1.368 . S
C133 H156 0.929 . S
C134 C133 1.368 . S
C134 C135 1.386 . S
C134 H157 0.929 . S
C135 C134 1.386 . S
C135 C136 1.373 . S
C136 C135 1.373 . S
C136 C137 1.409 . S
C136 H158 0.931 . S
C137 C132 1.356 . S
C137 C136 1.409 . S
C137 H159 0.930 . S
C138 O148 1.270 . S
C138 O149 1.248 . S
C139 O150 1.267 . S
C139 O151 1.278 . S
O140 Pr120 2.562 . S
O140 C122 1.254 . S
O141 Pr120 2.490 . S
O141 C122 1.225 . S
O142 Pr120 2.695 . S
O142 Pr121 2.436 . S
O142 C129 1.270 . S
O143 Pr120 2.512 . S
O143 C129 1.248 . S
O144 Pr121 2.438 . S
O144 C130 1.267 . S
O145 Pr120 2.437 . S
O145 C130 1.278 . S
O146 Pr121 2.562 . S
O146 C131 1.254 . S
O147 Pr121 2.490 . S
O147 C131 1.225 . S
O148 Pr120 2.436 . S
O148 Pr121 2.695 . S
O148 C138 1.270 . S
O149 Pr121 2.512 . S
O149 C138 1.248 . S
O150 Pr120 2.438 . S
O150 C139 1.267 . S
O151 Pr121 2.437 . S
O151 C139 1.278 . S
H152 C124 0.929 . S
H153 C125 0.929 . S
H154 C127 0.931 . S
H155 C128 0.930 . S
H156 C133 0.929 . S
H157 C134 0.929 . S
H158 C136 0.931 . S
H159 C137 0.930 . S
Pr160 C162 2.880 . S
Pr160 O180 2.562 . S
Pr160 O181 2.490 . S
Pr160 O182 2.695 . S
Pr160 O183 2.512 . S
Pr160 O185 2.437 . S
Pr160 O188 2.436 . S
Pr160 O190 2.438 . S
Pr161 C171 2.880 . S
Pr161 O182 2.436 . S
Pr161 O184 2.438 . S
Pr161 O186 2.562 . S
Pr161 O187 2.490 . S
Pr161 O188 2.695 . S
Pr161 O189 2.512 . S
Pr161 O191 2.437 . S
C162 Pr160 2.880 . S
C162 C163 1.491 . S
C162 O180 1.254 . S
C162 O181 1.225 . S
C163 C162 1.491 . S
C163 C164 1.392 . S
C163 C168 1.356 . S
C164 C163 1.392 . S
C164 C165 1.368 . S
C164 H192 0.929 . S
C165 C164 1.368 . S
C165 C166 1.386 . S
C165 H193 0.929 . S
C166 C165 1.386 . S
C166 C167 1.373 . S
C167 C166 1.373 . S
C167 C168 1.409 . S
C167 H194 0.931 . S
C168 C163 1.356 . S
C168 C167 1.409 . S
C168 H195 0.930 . S
C169 O182 1.270 . S
C169 O183 1.248 . S
C170 O184 1.267 . S
C170 O185 1.278 . S
C171 Pr161 2.880 . S
C171 C172 1.491 . S
C171 O186 1.254 . S
C171 O187 1.225 . S
C172 C171 1.491 . S
C172 C173 1.392 . S
C172 C177 1.356 . S
C173 C172 1.392 . S
C173 C174 1.368 . S
C173 H196 0.929 . S
C174 C173 1.368 . S
C174 C175 1.386 . S
C174 H197 0.929 . S
C175 C174 1.386 . S
C175 C176 1.373 . S
C176 C175 1.373 . S
C176 C177 1.409 . S
C176 H198 0.931 . S
C177 C172 1.356 . S
C177 C176 1.409 . S
C177 H199 0.930 . S
C178 O188 1.270 . S
C178 O189 1.248 . S
C179 O190 1.267 . S
C179 O191 1.278 . S
O180 Pr160 2.562 . S
O180 C162 1.254 . S
O181 Pr160 2.490 . S
O181 C162 1.225 . S
O182 Pr160 2.695 . S
O182 Pr161 2.436 . S
O182 C169 1.270 . S
O183 Pr160 2.512 . S
O183 C169 1.248 . S
O184 Pr161 2.438 . S
O184 C170 1.267 . S
O185 Pr160 2.437 . S
O185 C170 1.278 . S
O186 Pr161 2.562 . S
O186 C171 1.254 . S
O187 Pr161 2.490 . S
O187 C171 1.225 . S
O188 Pr160 2.436 . S
O188 Pr161 2.695 . S
O188 C178 1.270 . S
O189 Pr161 2.512 . S
O189 C178 1.248 . S
O190 Pr160 2.438 . S
O190 C179 1.267 . S
O191 Pr161 2.437 . S
O191 C179 1.278 . S
H192 C164 0.929 . S
H193 C165 0.929 . S
H194 C167 0.931 . S
H195 C168 0.930 . S
H196 C173 0.929 . S
H197 C174 0.929 . S
H198 C176 0.931 . S
H199 C177 0.930 . S
Pr200 C202 2.880 . S
Pr200 O220 2.562 . S
Pr200 O221 2.490 . S
Pr200 O222 2.695 . S
Pr200 O223 2.512 . S
Pr200 O225 2.437 . S
Pr200 O228 2.436 . S
Pr200 O230 2.438 . S
Pr201 C211 2.880 . S
Pr201 O222 2.436 . S
Pr201 O224 2.438 . S
Pr201 O226 2.562 . S
Pr201 O227 2.490 . S
Pr201 O228 2.695 . S
Pr201 O229 2.512 . S
Pr201 O231 2.437 . S
C202 Pr200 2.880 . S
C202 C203 1.491 . S
C202 O220 1.254 . S
C202 O221 1.225 . S
C203 C202 1.491 . S
C203 C204 1.392 . S
C203 C208 1.356 . S
C204 C203 1.392 . S
C204 C205 1.368 . S
C204 H232 0.929 . S
C205 C204 1.368 . S
C205 C206 1.386 . S
C205 H233 0.929 . S
C206 C205 1.386 . S
C206 C207 1.373 . S
C207 C206 1.373 . S
C207 C208 1.409 . S
C207 H234 0.931 . S
C208 C203 1.356 . S
C208 C207 1.409 . S
C208 H235 0.930 . S
C209 O222 1.270 . S
C209 O223 1.248 . S
C210 O224 1.267 . S
C210 O225 1.278 . S
C211 Pr201 2.880 . S
C211 C212 1.491 . S
C211 O226 1.254 . S
C211 O227 1.225 . S
C212 C211 1.491 . S
C212 C213 1.392 . S
C212 C217 1.356 . S
C213 C212 1.392 . S
C213 C214 1.368 . S
C213 H236 0.929 . S
C214 C213 1.368 . S
C214 C215 1.386 . S
C214 H237 0.929 . S
C215 C214 1.386 . S
C215 C216 1.373 . S
C216 C215 1.373 . S
C216 C217 1.409 . S
C216 H238 0.931 . S
C217 C212 1.356 . S
C217 C216 1.409 . S
C217 H239 0.930 . S
C218 O228 1.270 . S
C218 O229 1.248 . S
C219 O230 1.267 . S
C219 O231 1.278 . S
O220 Pr200 2.562 . S
O220 C202 1.254 . S
O221 Pr200 2.490 . S
O221 C202 1.225 . S
O222 Pr200 2.695 . S
O222 Pr201 2.436 . S
O222 C209 1.270 . S
O223 Pr200 2.512 . S
O223 C209 1.248 . S
O224 Pr201 2.438 . S
O224 C210 1.267 . S
O225 Pr200 2.437 . S
O225 C210 1.278 . S
O226 Pr201 2.562 . S
O226 C211 1.254 . S
O227 Pr201 2.490 . S
O227 C211 1.225 . S
O228 Pr200 2.436 . S
O228 Pr201 2.695 . S
O228 C218 1.270 . S
O229 Pr201 2.512 . S
O229 C218 1.248 . S
O230 Pr200 2.438 . S
O230 C219 1.267 . S
O231 Pr201 2.437 . S
O231 C219 1.278 . S
H232 C204 0.929 . S
H233 C205 0.929 . S
H234 C207 0.931 . S
H235 C208 0.930 . S
H236 C213 0.929 . S
H237 C214 0.929 . S
H238 C216 0.931 . S
H239 C217 0.930 . S
Pr240 C242 2.880 . S
Pr240 O260 2.562 . S
Pr240 O261 2.490 . S
Pr240 O262 2.695 . S
Pr240 O263 2.512 . S
Pr240 O265 2.437 . S
Pr240 O268 2.436 . S
Pr240 O270 2.438 . S
Pr241 C251 2.880 . S
Pr241 O262 2.436 . S
Pr241 O264 2.438 . S
Pr241 O266 2.562 . S
Pr241 O267 2.490 . S
Pr241 O268 2.695 . S
Pr241 O269 2.512 . S
Pr241 O271 2.437 . S
C242 Pr240 2.880 . S
C242 C243 1.491 . S
C242 O260 1.254 . S
C242 O261 1.225 . S
C243 C242 1.491 . S
C243 C244 1.392 . S
C243 C248 1.356 . S
C244 C243 1.392 . S
C244 C245 1.368 . S
C244 H272 0.929 . S
C245 C244 1.368 . S
C245 C246 1.386 . S
C245 H273 0.929 . S
C246 C245 1.386 . S
C246 C247 1.373 . S
C247 C246 1.373 . S
C247 C248 1.409 . S
C247 H274 0.931 . S
C248 C243 1.356 . S
C248 C247 1.409 . S
C248 H275 0.930 . S
C249 O262 1.270 . S
C249 O263 1.248 . S
C250 O264 1.267 . S
C250 O265 1.278 . S
C251 Pr241 2.880 . S
C251 C252 1.491 . S
C251 O266 1.254 . S
C251 O267 1.225 . S
C252 C251 1.491 . S
C252 C253 1.392 . S
C252 C257 1.356 . S
C253 C252 1.392 . S
C253 C254 1.368 . S
C253 H276 0.929 . S
C254 C253 1.368 . S
C254 C255 1.386 . S
C254 H277 0.929 . S
C255 C254 1.386 . S
C255 C256 1.373 . S
C256 C255 1.373 . S
C256 C257 1.409 . S
C256 H278 0.931 . S
C257 C252 1.356 . S
C257 C256 1.409 . S
C257 H279 0.930 . S
C258 O268 1.270 . S
C258 O269 1.248 . S
C259 O270 1.267 . S
C259 O271 1.278 . S
O260 Pr240 2.562 . S
O260 C242 1.254 . S
O261 Pr240 2.490 . S
O261 C242 1.225 . S
O262 Pr240 2.695 . S
O262 Pr241 2.436 . S
O262 C249 1.270 . S
O263 Pr240 2.512 . S
O263 C249 1.248 . S
O264 Pr241 2.438 . S
O264 C250 1.267 . S
O265 Pr240 2.437 . S
O265 C250 1.278 . S
O266 Pr241 2.562 . S
O266 C251 1.254 . S
O267 Pr241 2.490 . S
O267 C251 1.225 . S
O268 Pr240 2.436 . S
O268 Pr241 2.695 . S
O268 C258 1.270 . S
O269 Pr241 2.512 . S
O269 C258 1.248 . S
O270 Pr240 2.438 . S
O270 C259 1.267 . S
O271 Pr241 2.437 . S
O271 C259 1.278 . S
H272 C244 0.929 . S
H273 C245 0.929 . S
H274 C247 0.931 . S
H275 C248 0.930 . S
H276 C253 0.929 . S
H277 C254 0.929 . S
H278 C256 0.931 . S
H279 C257 0.930 . S
Pr280 C282 2.880 . S
Pr280 O300 2.562 . S
Pr280 O301 2.490 . S
Pr280 O302 2.695 . S
Pr280 O303 2.512 . S
Pr280 O305 2.437 . S
Pr280 O308 2.436 . S
Pr280 O310 2.438 . S
Pr281 C291 2.880 . S
Pr281 O302 2.436 . S
Pr281 O304 2.438 . S
Pr281 O306 2.562 . S
Pr281 O307 2.490 . S
Pr281 O308 2.695 . S
Pr281 O309 2.512 . S
Pr281 O311 2.437 . S
C282 Pr280 2.880 . S
C282 C283 1.491 . S
C282 O300 1.254 . S
C282 O301 1.225 . S
C283 C282 1.491 . S
C283 C284 1.392 . S
C283 C288 1.356 . S
C284 C283 1.392 . S
C284 C285 1.368 . S
C284 H312 0.929 . S
C285 C284 1.368 . S
C285 C286 1.386 . S
C285 H313 0.929 . S
C286 C285 1.386 . S
C286 C287 1.373 . S
C287 C286 1.373 . S
C287 C288 1.409 . S
C287 H314 0.931 . S
C288 C283 1.356 . S
C288 C287 1.409 . S
C288 H315 0.930 . S
C289 O302 1.270 . S
C289 O303 1.248 . S
C290 O304 1.267 . S
C290 O305 1.278 . S
C291 Pr281 2.880 . S
C291 C292 1.491 . S
C291 O306 1.254 . S
C291 O307 1.225 . S
C292 C291 1.491 . S
C292 C293 1.392 . S
C292 C297 1.356 . S
C293 C292 1.392 . S
C293 C294 1.368 . S
C293 H316 0.929 . S
C294 C293 1.368 . S
C294 C295 1.386 . S
C294 H317 0.929 . S
C295 C294 1.386 . S
C295 C296 1.373 . S
C296 C295 1.373 . S
C296 C297 1.409 . S
C296 H318 0.931 . S
C297 C292 1.356 . S
C297 C296 1.409 . S
C297 H319 0.930 . S
C298 O308 1.270 . S
C298 O309 1.248 . S
C299 O310 1.267 . S
C299 O311 1.278 . S
O300 Pr280 2.562 . S
O300 C282 1.254 . S
O301 Pr280 2.490 . S
O301 C282 1.225 . S
O302 Pr280 2.695 . S
O302 Pr281 2.436 . S
O302 C289 1.270 . S
O303 Pr280 2.512 . S
O303 C289 1.248 . S
O304 Pr281 2.438 . S
O304 C290 1.267 . S
O305 Pr280 2.437 . S
O305 C290 1.278 . S
O306 Pr281 2.562 . S
O306 C291 1.254 . S
O307 Pr281 2.490 . S
O307 C291 1.225 . S
O308 Pr280 2.436 . S
O308 Pr281 2.695 . S
O308 C298 1.270 . S
O309 Pr281 2.512 . S
O309 C298 1.248 . S
O310 Pr280 2.438 . S
O310 C299 1.267 . S
O311 Pr281 2.437 . S
O311 C299 1.278 . S
H312 C284 0.929 . S
H313 C285 0.929 . S
H314 C287 0.931 . S
H315 C288 0.930 . S
H316 C293 0.929 . S
H317 C294 0.929 . S
H318 C296 0.931 . S
H319 C297 0.930 . S
Pr320 C322 2.880 . S
Pr320 O340 2.562 . S
Pr320 O341 2.490 . S
Pr320 O342 2.695 . S
Pr320 O343 2.512 . S
Pr320 O345 2.437 . S
Pr320 O348 2.436 . S
Pr320 O350 2.438 . S
Pr321 C331 2.880 . S
Pr321 O342 2.436 . S
Pr321 O344 2.438 . S
Pr321 O346 2.562 . S
Pr321 O347 2.490 . S
Pr321 O348 2.695 . S
Pr321 O349 2.512 . S
Pr321 O351 2.437 . S
C322 Pr320 2.880 . S
C322 C323 1.491 . S
C322 O340 1.254 . S
C322 O341 1.225 . S
C323 C322 1.491 . S
C323 C324 1.392 . S
C323 C328 1.356 . S
C324 C323 1.392 . S
C324 C325 1.368 . S
C324 H352 0.929 . S
C325 C324 1.368 . S
C325 C326 1.386 . S
C325 H353 0.929 . S
C326 C325 1.386 . S
C326 C327 1.373 . S
C327 C326 1.373 . S
C327 C328 1.409 . S
C327 H354 0.931 . S
C328 C323 1.356 . S
C328 C327 1.409 . S
C328 H355 0.930 . S
C329 O342 1.270 . S
C329 O343 1.248 . S
C330 O344 1.267 . S
C330 O345 1.278 . S
C331 Pr321 2.880 . S
C331 C332 1.491 . S
C331 O346 1.254 . S
C331 O347 1.225 . S
C332 C331 1.491 . S
C332 C333 1.392 . S
C332 C337 1.356 . S
C333 C332 1.392 . S
C333 C334 1.368 . S
C333 H356 0.929 . S
C334 C333 1.368 . S
C334 C335 1.386 . S
C334 H357 0.929 . S
C335 C334 1.386 . S
C335 C336 1.373 . S
C336 C335 1.373 . S
C336 C337 1.409 . S
C336 H358 0.931 . S
C337 C332 1.356 . S
C337 C336 1.409 . S
C337 H359 0.930 . S
C338 O348 1.270 . S
C338 O349 1.248 . S
C339 O350 1.267 . S
C339 O351 1.278 . S
O340 Pr320 2.562 . S
O340 C322 1.254 . S
O341 Pr320 2.490 . S
O341 C322 1.225 . S
O342 Pr320 2.695 . S
O342 Pr321 2.436 . S
O342 C329 1.270 . S
O343 Pr320 2.512 . S
O343 C329 1.248 . S
O344 Pr321 2.438 . S
O344 C330 1.267 . S
O345 Pr320 2.437 . S
O345 C330 1.278 . S
O346 Pr321 2.562 . S
O346 C331 1.254 . S
O347 Pr321 2.490 . S
O347 C331 1.225 . S
O348 Pr320 2.436 . S
O348 Pr321 2.695 . S
O348 C338 1.270 . S
O349 Pr321 2.512 . S
O349 C338 1.248 . S
O350 Pr320 2.438 . S
O350 C339 1.267 . S
O351 Pr321 2.437 . S
O351 C339 1.278 . S
H352 C324 0.929 . S
H353 C325 0.929 . S
H354 C327 0.931 . S
H355 C328 0.930 . S
H356 C333 0.929 . S
H357 C334 0.929 . S
H358 C336 0.931 . S
H359 C337 0.930 . S
Pr360 C362 2.880 . S
Pr360 O380 2.562 . S
Pr360 O381 2.490 . S
Pr360 O382 2.695 . S
Pr360 O383 2.512 . S
Pr360 O385 2.437 . S
Pr360 O388 2.436 . S
Pr360 O390 2.438 . S
Pr361 C371 2.880 . S
Pr361 O382 2.436 . S
Pr361 O384 2.438 . S
Pr361 O386 2.562 . S
Pr361 O387 2.490 . S
Pr361 O388 2.695 . S
Pr361 O389 2.512 . S
Pr361 O391 2.437 . S
C362 Pr360 2.880 . S
C362 C363 1.491 . S
C362 O380 1.254 . S
C362 O381 1.225 . S
C363 C362 1.491 . S
C363 C364 1.392 . S
C363 C368 1.356 . S
C364 C363 1.392 . S
C364 C365 1.368 . S
C364 H392 0.929 . S
C365 C364 1.368 . S
C365 C366 1.386 . S
C365 H393 0.929 . S
C366 C365 1.386 . S
C366 C367 1.373 . S
C367 C366 1.373 . S
C367 C368 1.409 . S
C367 H394 0.931 . S
C368 C363 1.356 . S
C368 C367 1.409 . S
C368 H395 0.930 . S
C369 O382 1.270 . S
C369 O383 1.248 . S
C370 O384 1.267 . S
C370 O385 1.278 . S
C371 Pr361 2.880 . S
C371 C372 1.491 . S
C371 O386 1.254 . S
C371 O387 1.225 . S
C372 C371 1.491 . S
C372 C373 1.392 . S
C372 C377 1.356 . S
C373 C372 1.392 . S
C373 C374 1.368 . S
C373 H396 0.929 . S
C374 C373 1.368 . S
C374 C375 1.386 . S
C374 H397 0.929 . S
C375 C374 1.386 . S
C375 C376 1.373 . S
C376 C375 1.373 . S
C376 C377 1.409 . S
C376 H398 0.931 . S
C377 C372 1.356 . S
C377 C376 1.409 . S
C377 H399 0.930 . S
C378 O388 1.270 . S
C378 O389 1.248 . S
C379 O390 1.267 . S
C379 O391 1.278 . S
O380 Pr360 2.562 . S
O380 C362 1.254 . S
O381 Pr360 2.490 . S
O381 C362 1.225 . S
O382 Pr360 2.695 . S
O382 Pr361 2.436 . S
O382 C369 1.270 . S
O383 Pr360 2.512 . S
O383 C369 1.248 . S
O384 Pr361 2.438 . S
O384 C370 1.267 . S
O385 Pr360 2.437 . S
O385 C370 1.278 . S
O386 Pr361 2.562 . S
O386 C371 1.254 . S
O387 Pr361 2.490 . S
O387 C371 1.225 . S
O388 Pr360 2.436 . S
O388 Pr361 2.695 . S
O388 C378 1.270 . S
O389 Pr361 2.512 . S
O389 C378 1.248 . S
O390 Pr360 2.438 . S
O390 C379 1.267 . S
O391 Pr361 2.437 . S
O391 C379 1.278 . S
H392 C364 0.929 . S
H393 C365 0.929 . S
H394 C367 0.931 . S
H395 C368 0.930 . S
H396 C373 0.929 . S
H397 C374 0.929 . S
H398 C376 0.931 . S
H399 C377 0.930 . S
Pr400 C402 2.880 . S
Pr400 O420 2.562 . S
Pr400 O421 2.490 . S
Pr400 O422 2.695 . S
Pr400 O423 2.512 . S
Pr400 O425 2.437 . S
Pr400 O428 2.436 . S
Pr400 O430 2.438 . S
Pr401 C411 2.880 . S
Pr401 O422 2.436 . S
Pr401 O424 2.438 . S
Pr401 O426 2.562 . S
Pr401 O427 2.490 . S
Pr401 O428 2.695 . S
Pr401 O429 2.512 . S
Pr401 O431 2.437 . S
C402 Pr400 2.880 . S
C402 C403 1.491 . S
C402 O420 1.254 . S
C402 O421 1.225 . S
C403 C402 1.491 . S
C403 C404 1.392 . S
C403 C408 1.356 . S
C404 C403 1.392 . S
C404 C405 1.368 . S
C404 H432 0.929 . S
C405 C404 1.368 . S
C405 C406 1.386 . S
C405 H433 0.929 . S
C406 C405 1.386 . S
C406 C407 1.373 . S
C407 C406 1.373 . S
C407 C408 1.409 . S
C407 H434 0.931 . S
C408 C403 1.356 . S
C408 C407 1.409 . S
C408 H435 0.930 . S
C409 O422 1.270 . S
C409 O423 1.248 . S
C410 O424 1.267 . S
C410 O425 1.278 . S
C411 Pr401 2.880 . S
C411 C412 1.491 . S
C411 O426 1.254 . S
C411 O427 1.225 . S
C412 C411 1.491 . S
C412 C413 1.392 . S
C412 C417 1.356 . S
C413 C412 1.392 . S
C413 C414 1.368 . S
C413 H436 0.929 . S
C414 C413 1.368 . S
C414 C415 1.386 . S
C414 H437 0.929 . S
C415 C414 1.386 . S
C415 C416 1.373 . S
C416 C415 1.373 . S
C416 C417 1.409 . S
C416 H438 0.931 . S
C417 C412 1.356 . S
C417 C416 1.409 . S
C417 H439 0.930 . S
C418 O428 1.270 . S
C418 O429 1.248 . S
C419 O430 1.267 . S
C419 O431 1.278 . S
O420 Pr400 2.562 . S
O420 C402 1.254 . S
O421 Pr400 2.490 . S
O421 C402 1.225 . S
O422 Pr400 2.695 . S
O422 Pr401 2.436 . S
O422 C409 1.270 . S
O423 Pr400 2.512 . S
O423 C409 1.248 . S
O424 Pr401 2.438 . S
O424 C410 1.267 . S
O425 Pr400 2.437 . S
O425 C410 1.278 . S
O426 Pr401 2.562 . S
O426 C411 1.254 . S
O427 Pr401 2.490 . S
O427 C411 1.225 . S
O428 Pr400 2.436 . S
O428 Pr401 2.695 . S
O428 C418 1.270 . S
O429 Pr401 2.512 . S
O429 C418 1.248 . S
O430 Pr400 2.438 . S
O430 C419 1.267 . S
O431 Pr401 2.437 . S
O431 C419 1.278 . S
H432 C404 0.929 . S
H433 C405 0.929 . S
H434 C407 0.931 . S
H435 C408 0.930 . S
H436 C413 0.929 . S
H437 C414 0.929 . S
H438 C416 0.931 . S
H439 C417 0.930 . S
Pr440 C442 2.880 . S
Pr440 O460 2.562 . S
Pr440 O461 2.490 . S
Pr440 O462 2.695 . S
Pr440 O463 2.512 . S
Pr440 O465 2.437 . S
Pr440 O468 2.436 . S
Pr440 O470 2.438 . S
Pr441 C451 2.880 . S
Pr441 O462 2.436 . S
Pr441 O464 2.438 . S
Pr441 O466 2.562 . S
Pr441 O467 2.490 . S
Pr441 O468 2.695 . S
Pr441 O469 2.512 . S
Pr441 O471 2.437 . S
C442 Pr440 2.880 . S
C442 C443 1.491 . S
C442 O460 1.254 . S
C442 O461 1.225 . S
C443 C442 1.491 . S
C443 C444 1.392 . S
C443 C448 1.356 . S
C444 C443 1.392 . S
C444 C445 1.368 . S
C444 H472 0.929 . S
C445 C444 1.368 . S
C445 C446 1.386 . S
C445 H473 0.929 . S
C446 C445 1.386 . S
C446 C447 1.373 . S
C447 C446 1.373 . S
C447 C448 1.409 . S
C447 H474 0.931 . S
C448 C443 1.356 . S
C448 C447 1.409 . S
C448 H475 0.930 . S
C449 O462 1.270 . S
C449 O463 1.248 . S
C450 O464 1.267 . S
C450 O465 1.278 . S
C451 Pr441 2.880 . S
C451 C452 1.491 . S
C451 O466 1.254 . S
C451 O467 1.225 . S
C452 C451 1.491 . S
C452 C453 1.392 . S
C452 C457 1.356 . S
C453 C452 1.392 . S
C453 C454 1.368 . S
C453 H476 0.929 . S
C454 C453 1.368 . S
C454 C455 1.386 . S
C454 H477 0.929 . S
C455 C454 1.386 . S
C455 C456 1.373 . S
C456 C455 1.373 . S
C456 C457 1.409 . S
C456 H478 0.931 . S
C457 C452 1.356 . S
C457 C456 1.409 . S
C457 H479 0.930 . S
C458 O468 1.270 . S
C458 O469 1.248 . S
C459 O470 1.267 . S
C459 O471 1.278 . S
O460 Pr440 2.562 . S
O460 C442 1.254 . S
O461 Pr440 2.490 . S
O461 C442 1.225 . S
O462 Pr440 2.695 . S
O462 Pr441 2.436 . S
O462 C449 1.270 . S
O463 Pr440 2.512 . S
O463 C449 1.248 . S
O464 Pr441 2.438 . S
O464 C450 1.267 . S
O465 Pr440 2.437 . S
O465 C450 1.278 . S
O466 Pr441 2.562 . S
O466 C451 1.254 . S
O467 Pr441 2.490 . S
O467 C451 1.225 . S
O468 Pr440 2.436 . S
O468 Pr441 2.695 . S
O468 C458 1.270 . S
O469 Pr441 2.512 . S
O469 C458 1.248 . S
O470 Pr440 2.438 . S
O470 C459 1.267 . S
O471 Pr441 2.437 . S
O471 C459 1.278 . S
H472 C444 0.929 . S
H473 C445 0.929 . S
H474 C447 0.931 . S
H475 C448 0.930 . S
H476 C453 0.929 . S
H477 C454 0.929 . S
H478 C456 0.931 . S
H479 C457 0.930 . S
Pr480 C482 2.880 . S
Pr480 O500 2.562 . S
Pr480 O501 2.490 . S
Pr480 O502 2.695 . S
Pr480 O503 2.512 . S
Pr480 O505 2.437 . S
Pr480 O508 2.436 . S
Pr480 O510 2.438 . S
Pr481 C491 2.880 . S
Pr481 O502 2.436 . S
Pr481 O504 2.438 . S
Pr481 O506 2.562 . S
Pr481 O507 2.490 . S
Pr481 O508 2.695 . S
Pr481 O509 2.512 . S
Pr481 O511 2.437 . S
C482 Pr480 2.880 . S
C482 C483 1.491 . S
C482 O500 1.254 . S
C482 O501 1.225 . S
C483 C482 1.491 . S
C483 C484 1.392 . S
C483 C488 1.356 . S
C484 C483 1.392 . S
C484 C485 1.368 . S
C484 H512 0.929 . S
C485 C484 1.368 . S
C485 C486 1.386 . S
C485 H513 0.929 . S
C486 C485 1.386 . S
C486 C487 1.373 . S
C487 C486 1.373 . S
C487 C488 1.409 . S
C487 H514 0.931 . S
C488 C483 1.356 . S
C488 C487 1.409 . S
C488 H515 0.930 . S
C489 O502 1.270 . S
C489 O503 1.248 . S
C490 O504 1.267 . S
C490 O505 1.278 . S
C491 Pr481 2.880 . S
C491 C492 1.491 . S
C491 O506 1.254 . S
C491 O507 1.225 . S
C492 C491 1.491 . S
C492 C493 1.392 . S
C492 C497 1.356 . S
C493 C492 1.392 . S
C493 C494 1.368 . S
C493 H516 0.929 . S
C494 C493 1.368 . S
C494 C495 1.386 . S
C494 H517 0.929 . S
C495 C494 1.386 . S
C495 C496 1.373 . S
C496 C495 1.373 . S
C496 C497 1.409 . S
C496 H518 0.931 . S
C497 C492 1.356 . S
C497 C496 1.409 . S
C497 H519 0.930 . S
C498 O508 1.270 . S
C498 O509 1.248 . S
C499 O510 1.267 . S
C499 O511 1.278 . S
O500 Pr480 2.562 . S
O500 C482 1.254 . S
O501 Pr480 2.490 . S
O501 C482 1.225 . S
O502 Pr480 2.695 . S
O502 Pr481 2.436 . S
O502 C489 1.270 . S
O503 Pr480 2.512 . S
O503 C489 1.248 . S
O504 Pr481 2.438 . S
O504 C490 1.267 . S
O505 Pr480 2.437 . S
O505 C490 1.278 . S
O506 Pr481 2.562 . S
O506 C491 1.254 . S
O507 Pr481 2.490 . S
O507 C491 1.225 . S
O508 Pr480 2.436 . S
O508 Pr481 2.695 . S
O508 C498 1.270 . S
O509 Pr481 2.512 . S
O509 C498 1.248 . S
O510 Pr480 2.438 . S
O510 C499 1.267 . S
O511 Pr481 2.437 . S
O511 C499 1.278 . S
H512 C484 0.929 . S
H513 C485 0.929 . S
H514 C487 0.931 . S
H515 C488 0.930 . S
H516 C493 0.929 . S
H517 C494 0.929 . S
H518 C496 0.931 . S
H519 C497 0.930 . S
Pr520 C522 2.880 . S
Pr520 O540 2.562 . S
Pr520 O541 2.490 . S
Pr520 O542 2.695 . S
Pr520 O543 2.512 . S
Pr520 O545 2.437 . S
Pr520 O548 2.436 . S
Pr520 O550 2.438 . S
Pr521 C531 2.880 . S
Pr521 O542 2.436 . S
Pr521 O544 2.438 . S
Pr521 O546 2.562 . S
Pr521 O547 2.490 . S
Pr521 O548 2.695 . S
Pr521 O549 2.512 . S
Pr521 O551 2.437 . S
C522 Pr520 2.880 . S
C522 C523 1.491 . S
C522 O540 1.254 . S
C522 O541 1.225 . S
C523 C522 1.491 . S
C523 C524 1.392 . S
C523 C528 1.356 . S
C524 C523 1.392 . S
C524 C525 1.368 . S
C524 H552 0.929 . S
C525 C524 1.368 . S
C525 C526 1.386 . S
C525 H553 0.929 . S
C526 C525 1.386 . S
C526 C527 1.373 . S
C527 C526 1.373 . S
C527 C528 1.409 . S
C527 H554 0.931 . S
C528 C523 1.356 . S
C528 C527 1.409 . S
C528 H555 0.930 . S
C529 O542 1.270 . S
C529 O543 1.248 . S
C530 O544 1.267 . S
C530 O545 1.278 . S
C531 Pr521 2.880 . S
C531 C532 1.491 . S
C531 O546 1.254 . S
C531 O547 1.225 . S
C532 C531 1.491 . S
C532 C533 1.392 . S
C532 C537 1.356 . S
C533 C532 1.392 . S
C533 C534 1.368 . S
C533 H556 0.929 . S
C534 C533 1.368 . S
C534 C535 1.386 . S
C534 H557 0.929 . S
C535 C534 1.386 . S
C535 C536 1.373 . S
C536 C535 1.373 . S
C536 C537 1.409 . S
C536 H558 0.931 . S
C537 C532 1.356 . S
C537 C536 1.409 . S
C537 H559 0.930 . S
C538 O548 1.270 . S
C538 O549 1.248 . S
C539 O550 1.267 . S
C539 O551 1.278 . S
O540 Pr520 2.562 . S
O540 C522 1.254 . S
O541 Pr520 2.490 . S
O541 C522 1.225 . S
O542 Pr520 2.695 . S
O542 Pr521 2.436 . S
O542 C529 1.270 . S
O543 Pr520 2.512 . S
O543 C529 1.248 . S
O544 Pr521 2.438 . S
O544 C530 1.267 . S
O545 Pr520 2.437 . S
O545 C530 1.278 . S
O546 Pr521 2.562 . S
O546 C531 1.254 . S
O547 Pr521 2.490 . S
O547 C531 1.225 . S
O548 Pr520 2.436 . S
O548 Pr521 2.695 . S
O548 C538 1.270 . S
O549 Pr521 2.512 . S
O549 C538 1.248 . S
O550 Pr520 2.438 . S
O550 C539 1.267 . S
O551 Pr521 2.437 . S
O551 C539 1.278 . S
H552 C524 0.929 . S
H553 C525 0.929 . S
H554 C527 0.931 . S
H555 C528 0.930 . S
H556 C533 0.929 . S
H557 C534 0.929 . S
H558 C536 0.931 . S
H559 C537 0.930 . S
Pr560 C562 2.880 . S
Pr560 O580 2.562 . S
Pr560 O581 2.490 . S
Pr560 O582 2.695 . S
Pr560 O583 2.512 . S
Pr560 O585 2.437 . S
Pr560 O588 2.436 . S
Pr560 O590 2.438 . S
Pr561 C571 2.880 . S
Pr561 O582 2.436 . S
Pr561 O584 2.438 . S
Pr561 O586 2.562 . S
Pr561 O587 2.490 . S
Pr561 O588 2.695 . S
Pr561 O589 2.512 . S
Pr561 O591 2.437 . S
C562 Pr560 2.880 . S
C562 C563 1.491 . S
C562 O580 1.254 . S
C562 O581 1.225 . S
C563 C562 1.491 . S
C563 C564 1.392 . S
C563 C568 1.356 . S
C564 C563 1.392 . S
C564 C565 1.368 . S
C564 H592 0.929 . S
C565 C564 1.368 . S
C565 C566 1.386 . S
C565 H593 0.929 . S
C566 C565 1.386 . S
C566 C567 1.373 . S
C567 C566 1.373 . S
C567 C568 1.409 . S
C567 H594 0.931 . S
C568 C563 1.356 . S
C568 C567 1.409 . S
C568 H595 0.930 . S
C569 O582 1.270 . S
C569 O583 1.248 . S
C570 O584 1.267 . S
C570 O585 1.278 . S
C571 Pr561 2.880 . S
C571 C572 1.491 . S
C571 O586 1.254 . S
C571 O587 1.225 . S
C572 C571 1.491 . S
C572 C573 1.392 . S
C572 C577 1.356 . S
C573 C572 1.392 . S
C573 C574 1.368 . S
C573 H596 0.929 . S
C574 C573 1.368 . S
C574 C575 1.386 . S
C574 H597 0.929 . S
C575 C574 1.386 . S
C575 C576 1.373 . S
C576 C575 1.373 . S
C576 C577 1.409 . S
C576 H598 0.931 . S
C577 C572 1.356 . S
C577 C576 1.409 . S
C577 H599 0.930 . S
C578 O588 1.270 . S
C578 O589 1.248 . S
C579 O590 1.267 . S
C579 O591 1.278 . S
O580 Pr560 2.562 . S
O580 C562 1.254 . S
O581 Pr560 2.490 . S
O581 C562 1.225 . S
O582 Pr560 2.695 . S
O582 Pr561 2.436 . S
O582 C569 1.270 . S
O583 Pr560 2.512 . S
O583 C569 1.248 . S
O584 Pr561 2.438 . S
O584 C570 1.267 . S
O585 Pr560 2.437 . S
O585 C570 1.278 . S
O586 Pr561 2.562 . S
O586 C571 1.254 . S
O587 Pr561 2.490 . S
O587 C571 1.225 . S
O588 Pr560 2.436 . S
O588 Pr561 2.695 . S
O588 C578 1.270 . S
O589 Pr561 2.512 . S
O589 C578 1.248 . S
O590 Pr560 2.438 . S
O590 C579 1.267 . S
O591 Pr561 2.437 . S
O591 C579 1.278 . S
H592 C564 0.929 . S
H593 C565 0.929 . S
H594 C567 0.931 . S
H595 C568 0.930 . S
H596 C573 0.929 . S
H597 C574 0.929 . S
H598 C576 0.931 . S
H599 C577 0.930 . S
Pr600 C602 2.880 . S
Pr600 O620 2.562 . S
Pr600 O621 2.490 . S
Pr600 O622 2.695 . S
Pr600 O623 2.512 . S
Pr600 O625 2.437 . S
Pr600 O628 2.436 . S
Pr600 O630 2.438 . S
Pr601 C611 2.880 . S
Pr601 O622 2.436 . S
Pr601 O624 2.438 . S
Pr601 O626 2.562 . S
Pr601 O627 2.490 . S
Pr601 O628 2.695 . S
Pr601 O629 2.512 . S
Pr601 O631 2.437 . S
C602 Pr600 2.880 . S
C602 C603 1.491 . S
C602 O620 1.254 . S
C602 O621 1.225 . S
C603 C602 1.491 . S
C603 C604 1.392 . S
C603 C608 1.356 . S
C604 C603 1.392 . S
C604 C605 1.368 . S
C604 H632 0.929 . S
C605 C604 1.368 . S
C605 C606 1.386 . S
C605 H633 0.929 . S
C606 C605 1.386 . S
C606 C607 1.373 . S
C607 C606 1.373 . S
C607 C608 1.409 . S
C607 H634 0.931 1_655 S
C608 C603 1.356 . S
C608 C607 1.409 . S
C608 H635 0.930 . S
C609 O622 1.270 . S
C609 O623 1.248 . S
C610 O624 1.267 . S
C610 O625 1.278 . S
C611 Pr601 2.880 . S
C611 C612 1.491 . S
C611 O626 1.254 . S
C611 O627 1.225 . S
C612 C611 1.491 . S
C612 C613 1.392 . S
C612 C617 1.356 . S
C613 C612 1.392 . S
C613 C614 1.368 . S
C613 H636 0.929 . S
C614 C613 1.368 . S
C614 C615 1.386 . S
C614 H637 0.929 . S
C615 C614 1.386 . S
C615 C616 1.373 . S
C616 C615 1.373 . S
C616 C617 1.409 . S
C616 H638 0.931 . S
C617 C612 1.356 . S
C617 C616 1.409 . S
C617 H639 0.930 . S
C618 O628 1.270 . S
C618 O629 1.248 . S
C619 O630 1.267 . S
C619 O631 1.278 . S
O620 Pr600 2.562 . S
O620 C602 1.254 . S
O621 Pr600 2.490 . S
O621 C602 1.225 . S
O622 Pr600 2.695 . S
O622 Pr601 2.436 . S
O622 C609 1.270 . S
O623 Pr600 2.512 . S
O623 C609 1.248 . S
O624 Pr601 2.438 . S
O624 C610 1.267 . S
O625 Pr600 2.437 . S
O625 C610 1.278 . S
O626 Pr601 2.562 . S
O626 C611 1.254 . S
O627 Pr601 2.490 . S
O627 C611 1.225 . S
O628 Pr600 2.436 . S
O628 Pr601 2.695 . S
O628 C618 1.270 . S
O629 Pr601 2.512 . S
O629 C618 1.248 . S
O630 Pr600 2.438 . S
O630 C619 1.267 . S
O631 Pr601 2.437 . S
O631 C619 1.278 . S
H632 C604 0.929 . S
H633 C605 0.929 . S
H634 C607 0.931 1_455 S
H635 C608 0.930 . S
H636 C613 0.929 . S
H637 C614 0.929 . S
H638 C616 0.931 . S
H639 C617 0.930 . S
Pr640 C642 2.880 . S
Pr640 O660 2.562 . S
Pr640 O661 2.490 . S
Pr640 O662 2.695 . S
Pr640 O663 2.512 . S
Pr640 O665 2.437 . S
Pr640 O668 2.436 . S
Pr640 O670 2.438 . S
Pr641 C651 2.880 . S
Pr641 O662 2.436 . S
Pr641 O664 2.438 . S
Pr641 O666 2.562 . S
Pr641 O667 2.490 . S
Pr641 O668 2.695 . S
Pr641 O669 2.512 . S
Pr641 O671 2.437 . S
C642 Pr640 2.880 . S
C642 C643 1.491 . S
C642 O660 1.254 . S
C642 O661 1.225 . S
C643 C642 1.491 . S
C643 C644 1.392 . S
C643 C648 1.356 . S
C644 C643 1.392 . S
C644 C645 1.368 . S
C644 H672 0.929 . S
C645 C644 1.368 . S
C645 C646 1.386 . S
C645 H673 0.929 . S
C646 C645 1.386 . S
C646 C647 1.373 . S
C647 C646 1.373 . S
C647 C648 1.409 . S
C647 H674 0.931 . S
C648 C643 1.356 . S
C648 C647 1.409 . S
C648 H675 0.930 . S
C649 O662 1.270 . S
C649 O663 1.248 . S
C650 O664 1.267 . S
C650 O665 1.278 . S
C651 Pr641 2.880 . S
C651 C652 1.491 . S
C651 O666 1.254 . S
C651 O667 1.225 . S
C652 C651 1.491 . S
C652 C653 1.392 . S
C652 C657 1.356 . S
C653 C652 1.392 . S
C653 C654 1.368 . S
C653 H676 0.929 . S
C654 C653 1.368 . S
C654 C655 1.386 . S
C654 H677 0.929 . S
C655 C654 1.386 . S
C655 C656 1.373 . S
C656 C655 1.373 . S
C656 C657 1.409 . S
C656 H678 0.931 . S
C657 C652 1.356 . S
C657 C656 1.409 . S
C657 H679 0.930 . S
C658 O668 1.270 . S
C658 O669 1.248 . S
C659 O670 1.267 . S
C659 O671 1.278 . S
O660 Pr640 2.562 . S
O660 C642 1.254 . S
O661 Pr640 2.490 . S
O661 C642 1.225 . S
O662 Pr640 2.695 . S
O662 Pr641 2.436 . S
O662 C649 1.270 . S
O663 Pr640 2.512 . S
O663 C649 1.248 . S
O664 Pr641 2.438 . S
O664 C650 1.267 . S
O665 Pr640 2.437 . S
O665 C650 1.278 . S
O666 Pr641 2.562 . S
O666 C651 1.254 . S
O667 Pr641 2.490 . S
O667 C651 1.225 . S
O668 Pr640 2.436 . S
O668 Pr641 2.695 . S
O668 C658 1.270 . S
O669 Pr641 2.512 . S
O669 C658 1.248 . S
O670 Pr640 2.438 . S
O670 C659 1.267 . S
O671 Pr641 2.437 . S
O671 C659 1.278 . S
H672 C644 0.929 . S
H673 C645 0.929 . S
H674 C647 0.931 . S
H675 C648 0.930 . S
H676 C653 0.929 . S
H677 C654 0.929 . S
H678 C656 0.931 . S
H679 C657 0.930 . S
Pr680 C682 2.880 . S
Pr680 O700 2.562 . S
Pr680 O701 2.490 . S
Pr680 O702 2.695 . S
Pr680 O703 2.512 . S
Pr680 O705 2.437 . S
Pr680 O708 2.436 . S
Pr680 O710 2.438 . S
Pr681 C691 2.880 . S
Pr681 O702 2.436 . S
Pr681 O704 2.438 . S
Pr681 O706 2.562 . S
Pr681 O707 2.490 . S
Pr681 O708 2.695 . S
Pr681 O709 2.512 . S
Pr681 O711 2.437 . S
C682 Pr680 2.880 . S
C682 C683 1.491 . S
C682 O700 1.254 . S
C682 O701 1.225 . S
C683 C682 1.491 . S
C683 C684 1.392 . S
C683 C688 1.356 . S
C684 C683 1.392 . S
C684 C685 1.368 . S
C684 H712 0.929 . S
C685 C684 1.368 . S
C685 C686 1.386 . S
C685 H713 0.929 . S
C686 C685 1.386 . S
C686 C687 1.373 . S
C687 C686 1.373 . S
C687 C688 1.409 . S
C687 H714 0.931 1_545 S
C688 C683 1.356 . S
C688 C687 1.409 . S
C688 H715 0.930 . S
C689 O702 1.270 . S
C689 O703 1.248 . S
C690 O704 1.267 . S
C690 O705 1.278 . S
C691 Pr681 2.880 . S
C691 C692 1.491 . S
C691 O706 1.254 . S
C691 O707 1.225 . S
C692 C691 1.491 . S
C692 C693 1.392 . S
C692 C697 1.356 . S
C693 C692 1.392 . S
C693 C694 1.368 . S
C693 H716 0.929 . S
C694 C693 1.368 . S
C694 C695 1.386 . S
C694 H717 0.929 . S
C695 C694 1.386 . S
C695 C696 1.373 . S
C696 C695 1.373 . S
C696 C697 1.409 . S
C696 H718 0.931 . S
C697 C692 1.356 . S
C697 C696 1.409 . S
C697 H719 0.930 . S
C698 O708 1.270 . S
C698 O709 1.248 . S
C699 O710 1.267 . S
C699 O711 1.278 . S
O700 Pr680 2.562 . S
O700 C682 1.254 . S
O701 Pr680 2.490 . S
O701 C682 1.225 . S
O702 Pr680 2.695 . S
O702 Pr681 2.436 . S
O702 C689 1.270 . S
O703 Pr680 2.512 . S
O703 C689 1.248 . S
O704 Pr681 2.438 . S
O704 C690 1.267 . S
O705 Pr680 2.437 . S
O705 C690 1.278 . S
O706 Pr681 2.562 . S
O706 C691 1.254 . S
O707 Pr681 2.490 . S
O707 C691 1.225 . S
O708 Pr680 2.436 . S
O708 Pr681 2.695 . S
O708 C698 1.270 . S
O709 Pr681 2.512 . S
O709 C698 1.248 . S
O710 Pr680 2.438 . S
O710 C699 1.267 . S
O711 Pr681 2.437 . S
O711 C699 1.278 . S
H712 C684 0.929 . S
H713 C685 0.929 . S
H714 C687 0.931 1_565 S
H715 C688 0.930 . S
H716 C693 0.929 . S
H717 C694 0.929 . S
H718 C696 0.931 . S
H719 C697 0.930 . S
Pr720 C722 2.880 . S
Pr720 O740 2.562 . S
Pr720 O741 2.490 . S
Pr720 O742 2.695 . S
Pr720 O743 2.512 . S
Pr720 O745 2.437 . S
Pr720 O748 2.436 . S
Pr720 O750 2.438 . S
Pr721 C731 2.880 . S
Pr721 O742 2.436 . S
Pr721 O744 2.438 . S
Pr721 O746 2.562 . S
Pr721 O747 2.490 . S
Pr721 O748 2.695 . S
Pr721 O749 2.512 . S
Pr721 O751 2.437 . S
C722 Pr720 2.880 . S
C722 C723 1.491 . S
C722 O740 1.254 . S
C722 O741 1.225 . S
C723 C722 1.491 . S
C723 C724 1.392 . S
C723 C728 1.356 . S
C724 C723 1.392 . S
C724 C725 1.368 . S
C724 H752 0.929 . S
C725 C724 1.368 . S
C725 C726 1.386 . S
C725 H753 0.929 . S
C726 C725 1.386 . S
C726 C727 1.373 . S
C727 C726 1.373 . S
C727 C728 1.409 . S
C727 H754 0.931 . S
C728 C723 1.356 . S
C728 C727 1.409 . S
C728 H755 0.930 . S
C729 O742 1.270 . S
C729 O743 1.248 . S
C730 O744 1.267 . S
C730 O745 1.278 . S
C731 Pr721 2.880 . S
C731 C732 1.491 . S
C731 O746 1.254 . S
C731 O747 1.225 . S
C732 C731 1.491 . S
C732 C733 1.392 . S
C732 C737 1.356 . S
C733 C732 1.392 . S
C733 C734 1.368 . S
C733 H756 0.929 . S
C734 C733 1.368 . S
C734 C735 1.386 . S
C734 H757 0.929 . S
C735 C734 1.386 . S
C735 C736 1.373 . S
C736 C735 1.373 . S
C736 C737 1.409 . S
C736 H758 0.931 1_545 S
C737 C732 1.356 . S
C737 C736 1.409 . S
C737 H759 0.930 . S
C738 O748 1.270 . S
C738 O749 1.248 . S
C739 O750 1.267 . S
C739 O751 1.278 . S
O740 Pr720 2.562 . S
O740 C722 1.254 . S
O741 Pr720 2.490 . S
O741 C722 1.225 . S
O742 Pr720 2.695 . S
O742 Pr721 2.436 . S
O742 C729 1.270 . S
O743 Pr720 2.512 . S
O743 C729 1.248 . S
O744 Pr721 2.438 . S
O744 C730 1.267 . S
O745 Pr720 2.437 . S
O745 C730 1.278 . S
O746 Pr721 2.562 . S
O746 C731 1.254 . S
O747 Pr721 2.490 . S
O747 C731 1.225 . S
O748 Pr720 2.436 . S
O748 Pr721 2.695 . S
O748 C738 1.270 . S
O749 Pr721 2.512 . S
O749 C738 1.248 . S
O750 Pr720 2.438 . S
O750 C739 1.267 . S
O751 Pr721 2.437 . S
O751 C739 1.278 . S
H752 C724 0.929 . S
H753 C725 0.929 . S
H754 C727 0.931 . S
H755 C728 0.930 . S
H756 C733 0.929 . S
H757 C734 0.929 . S
H758 C736 0.931 1_565 S
H759 C737 0.930 . S
Pr760 C762 2.880 . S
Pr760 O780 2.562 . S
Pr760 O781 2.490 . S
Pr760 O782 2.695 . S
Pr760 O783 2.512 . S
Pr760 O785 2.437 . S
Pr760 O788 2.436 . S
Pr760 O790 2.438 . S
Pr761 C771 2.880 . S
Pr761 O782 2.436 . S
Pr761 O784 2.438 . S
Pr761 O786 2.562 . S
Pr761 O787 2.490 . S
Pr761 O788 2.695 . S
Pr761 O789 2.512 . S
Pr761 O791 2.437 . S
C762 Pr760 2.880 . S
C762 C763 1.491 . S
C762 O780 1.254 . S
C762 O781 1.225 . S
C763 C762 1.491 . S
C763 C764 1.392 . S
C763 C768 1.356 . S
C764 C763 1.392 . S
C764 C765 1.368 . S
C764 H792 0.929 . S
C765 C764 1.368 . S
C765 C766 1.386 . S
C765 H793 0.929 . S
C766 C765 1.386 . S
C766 C767 1.373 . S
C767 C766 1.373 . S
C767 C768 1.409 . S
C767 H794 0.931 . S
C768 C763 1.356 . S
C768 C767 1.409 . S
C768 H795 0.930 . S
C769 O782 1.270 . S
C769 O783 1.248 . S
C770 O784 1.267 . S
C770 O785 1.278 . S
C771 Pr761 2.880 . S
C771 C772 1.491 . S
C771 O786 1.254 . S
C771 O787 1.225 . S
C772 C771 1.491 . S
C772 C773 1.392 . S
C772 C777 1.356 . S
C773 C772 1.392 . S
C773 C774 1.368 . S
C773 H796 0.929 . S
C774 C773 1.368 . S
C774 C775 1.386 . S
C774 H797 0.929 . S
C775 C774 1.386 . S
C775 C776 1.373 . S
C776 C775 1.373 . S
C776 C777 1.409 . S
C776 H798 0.931 1_655 S
C777 C772 1.356 . S
C777 C776 1.409 . S
C777 H799 0.930 . S
C778 O788 1.270 . S
C778 O789 1.248 . S
C779 O790 1.267 . S
C779 O791 1.278 . S
O780 Pr760 2.562 . S
O780 C762 1.254 . S
O781 Pr760 2.490 . S
O781 C762 1.225 . S
O782 Pr760 2.695 . S
O782 Pr761 2.436 . S
O782 C769 1.270 . S
O783 Pr760 2.512 . S
O783 C769 1.248 . S
O784 Pr761 2.438 . S
O784 C770 1.267 . S
O785 Pr760 2.437 . S
O785 C770 1.278 . S
O786 Pr761 2.562 . S
O786 C771 1.254 . S
O787 Pr761 2.490 . S
O787 C771 1.225 . S
O788 Pr760 2.436 . S
O788 Pr761 2.695 . S
O788 C778 1.270 . S
O789 Pr761 2.512 . S
O789 C778 1.248 . S
O790 Pr760 2.438 . S
O790 C779 1.267 . S
O791 Pr761 2.437 . S
O791 C779 1.278 . S
H792 C764 0.929 . S
H793 C765 0.929 . S
H794 C767 0.931 . S
H795 C768 0.930 . S
H796 C773 0.929 . S
H797 C774 0.929 . S
H798 C776 0.931 1_455 S
H799 C777 0.930 . S
Pr800 C802 2.880 . S
Pr800 O820 2.562 . S
Pr800 O821 2.490 . S
Pr800 O822 2.695 . S
Pr800 O823 2.512 . S
Pr800 O825 2.437 . S
Pr800 O828 2.436 . S
Pr800 O830 2.438 . S
Pr801 C811 2.880 . S
Pr801 O822 2.436 . S
Pr801 O824 2.438 . S
Pr801 O826 2.562 . S
Pr801 O827 2.490 . S
Pr801 O828 2.695 . S
Pr801 O829 2.512 . S
Pr801 O831 2.437 . S
C802 Pr800 2.880 . S
C802 C803 1.491 . S
C802 O820 1.254 . S
C802 O821 1.225 . S
C803 C802 1.491 . S
C803 C804 1.392 . S
C803 C808 1.356 . S
C804 C803 1.392 . S
C804 C805 1.368 . S
C804 H832 0.929 . S
C805 C804 1.368 . S
C805 C806 1.386 . S
C805 H833 0.929 . S
C806 C805 1.386 . S
C806 C807 1.373 . S
C807 C806 1.373 . S
C807 C808 1.409 . S
C807 H834 0.931 . S
C808 C803 1.356 . S
C808 C807 1.409 . S
C808 H835 0.930 . S
C809 O822 1.270 . S
C809 O823 1.248 . S
C810 O824 1.267 . S
C810 O825 1.278 . S
C811 Pr801 2.880 . S
C811 C812 1.491 . S
C811 O826 1.254 . S
C811 O827 1.225 . S
C812 C811 1.491 . S
C812 C813 1.392 . S
C812 C817 1.356 . S
C813 C812 1.392 . S
C813 C814 1.368 . S
C813 H836 0.929 . S
C814 C813 1.368 . S
C814 C815 1.386 . S
C814 H837 0.929 . S
C815 C814 1.386 . S
C815 C816 1.373 . S
C816 C815 1.373 . S
C816 C817 1.409 . S
C816 H838 0.931 . S
C817 C812 1.356 . S
C817 C816 1.409 . S
C817 H839 0.930 . S
C818 O828 1.270 . S
C818 O829 1.248 . S
C819 O830 1.267 . S
C819 O831 1.278 . S
O820 Pr800 2.562 . S
O820 C802 1.254 . S
O821 Pr800 2.490 . S
O821 C802 1.225 . S
O822 Pr800 2.695 . S
O822 Pr801 2.436 . S
O822 C809 1.270 . S
O823 Pr800 2.512 . S
O823 C809 1.248 . S
O824 Pr801 2.438 . S
O824 C810 1.267 . S
O825 Pr800 2.437 . S
O825 C810 1.278 . S
O826 Pr801 2.562 . S
O826 C811 1.254 . S
O827 Pr801 2.490 . S
O827 C811 1.225 . S
O828 Pr800 2.436 . S
O828 Pr801 2.695 . S
O828 C818 1.270 . S
O829 Pr801 2.512 . S
O829 C818 1.248 . S
O830 Pr800 2.438 . S
O830 C819 1.267 . S
O831 Pr801 2.437 . S
O831 C819 1.278 . S
H832 C804 0.929 . S
H833 C805 0.929 . S
H834 C807 0.931 . S
H835 C808 0.930 . S
H836 C813 0.929 . S
H837 C814 0.929 . S
H838 C816 0.931 . S
H839 C817 0.930 . S
Pr840 C842 2.880 . S
Pr840 O860 2.562 . S
Pr840 O861 2.490 . S
Pr840 O862 2.695 1_554 S
Pr840 O863 2.512 . S
Pr840 O865 2.437 . S
Pr840 O868 2.436 . S
Pr840 O870 2.438 . S
Pr841 C851 2.880 . S
Pr841 O862 2.436 . S
Pr841 O864 2.438 . S
Pr841 O866 2.562 . S
Pr841 O867 2.490 . S
Pr841 O868 2.695 1_556 S
Pr841 O869 2.512 . S
Pr841 O871 2.437 . S
C842 Pr840 2.880 . S
C842 C843 1.491 . S
C842 O860 1.254 . S
C842 O861 1.225 . S
C843 C842 1.491 . S
C843 C844 1.392 . S
C843 C848 1.356 . S
C844 C843 1.392 . S
C844 C845 1.368 . S
C844 H872 0.929 . S
C845 C844 1.368 . S
C845 C846 1.386 . S
C845 H873 0.929 . S
C846 C845 1.386 . S
C846 C847 1.373 . S
C847 C846 1.373 . S
C847 C848 1.409 . S
C847 H874 0.931 . S
C848 C843 1.356 . S
C848 C847 1.409 . S
C848 H875 0.930 . S
C849 O862 1.270 1_554 S
C849 O863 1.248 . S
C850 O864 1.267 1_554 S
C850 O865 1.278 . S
C851 Pr841 2.880 . S
C851 C852 1.491 . S
C851 O866 1.254 . S
C851 O867 1.225 . S
C852 C851 1.491 . S
C852 C853 1.392 . S
C852 C857 1.356 . S
C853 C852 1.392 . S
C853 C854 1.368 . S
C853 H876 0.929 . S
C854 C853 1.368 . S
C854 C855 1.386 . S
C854 H877 0.929 . S
C855 C854 1.386 . S
C855 C856 1.373 . S
C856 C855 1.373 . S
C856 C857 1.409 . S
C856 H878 0.931 . S
C857 C852 1.356 . S
C857 C856 1.409 . S
C857 H879 0.930 . S
C858 O868 1.270 1_556 S
C858 O869 1.248 . S
C859 O870 1.267 1_556 S
C859 O871 1.278 . S
O860 Pr840 2.562 . S
O860 C842 1.254 . S
O861 Pr840 2.490 . S
O861 C842 1.225 . S
O862 Pr840 2.695 1_556 S
O862 Pr841 2.436 . S
O862 C849 1.270 1_556 S
O863 Pr840 2.512 . S
O863 C849 1.248 . S
O864 Pr841 2.438 . S
O864 C850 1.267 1_556 S
O865 Pr840 2.437 . S
O865 C850 1.278 . S
O866 Pr841 2.562 . S
O866 C851 1.254 . S
O867 Pr841 2.490 . S
O867 C851 1.225 . S
O868 Pr840 2.436 . S
O868 Pr841 2.695 1_554 S
O868 C858 1.270 1_554 S
O869 Pr841 2.512 . S
O869 C858 1.248 . S
O870 Pr840 2.438 . S
O870 C859 1.267 1_554 S
O871 Pr841 2.437 . S
O871 C859 1.278 . S
H872 C844 0.929 . S
H873 C845 0.929 . S
H874 C847 0.931 . S
H875 C848 0.930 . S
H876 C853 0.929 . S
H877 C854 0.929 . S
H878 C856 0.931 . S
H879 C857 0.930 . S
Pr880 C882 2.880 . S
Pr880 O900 2.562 . S
Pr880 O901 2.490 . S
Pr880 O902 2.695 1_554 S
Pr880 O903 2.512 . S
Pr880 O905 2.437 . S
Pr880 O908 2.436 . S
Pr880 O910 2.438 . S
Pr881 C891 2.880 . S
Pr881 O902 2.436 . S
Pr881 O904 2.438 . S
Pr881 O906 2.562 . S
Pr881 O907 2.490 . S
Pr881 O908 2.695 1_556 S
Pr881 O909 2.512 . S
Pr881 O911 2.437 . S
C882 Pr880 2.880 . S
C882 C883 1.491 . S
C882 O900 1.254 . S
C882 O901 1.225 . S
C883 C882 1.491 . S
C883 C884 1.392 . S
C883 C888 1.356 . S
C884 C883 1.392 . S
C884 C885 1.368 . S
C884 H912 0.929 . S
C885 C884 1.368 . S
C885 C886 1.386 . S
C885 H913 0.929 . S
C886 C885 1.386 . S
C886 C887 1.373 . S
C887 C886 1.373 . S
C887 C888 1.409 . S
C887 H914 0.931 . S
C888 C883 1.356 . S
C888 C887 1.409 . S
C888 H915 0.930 . S
C889 O902 1.270 1_554 S
C889 O903 1.248 . S
C890 O904 1.267 1_554 S
C890 O905 1.278 . S
C891 Pr881 2.880 . S
C891 C892 1.491 . S
C891 O906 1.254 . S
C891 O907 1.225 . S
C892 C891 1.491 . S
C892 C893 1.392 . S
C892 C897 1.356 . S
C893 C892 1.392 . S
C893 C894 1.368 . S
C893 H916 0.929 . S
C894 C893 1.368 . S
C894 C895 1.386 . S
C894 H917 0.929 . S
C895 C894 1.386 . S
C895 C896 1.373 . S
C896 C895 1.373 . S
C896 C897 1.409 . S
C896 H918 0.931 . S
C897 C892 1.356 . S
C897 C896 1.409 . S
C897 H919 0.930 . S
C898 O908 1.270 1_556 S
C898 O909 1.248 . S
C899 O910 1.267 1_556 S
C899 O911 1.278 . S
O900 Pr880 2.562 . S
O900 C882 1.254 . S
O901 Pr880 2.490 . S
O901 C882 1.225 . S
O902 Pr880 2.695 1_556 S
O902 Pr881 2.436 . S
O902 C889 1.270 1_556 S
O903 Pr880 2.512 . S
O903 C889 1.248 . S
O904 Pr881 2.438 . S
O904 C890 1.267 1_556 S
O905 Pr880 2.437 . S
O905 C890 1.278 . S
O906 Pr881 2.562 . S
O906 C891 1.254 . S
O907 Pr881 2.490 . S
O907 C891 1.225 . S
O908 Pr880 2.436 . S
O908 Pr881 2.695 1_554 S
O908 C898 1.270 1_554 S
O909 Pr881 2.512 . S
O909 C898 1.248 . S
O910 Pr880 2.438 . S
O910 C899 1.267 1_554 S
O911 Pr881 2.437 . S
O911 C899 1.278 . S
H912 C884 0.929 . S
H913 C885 0.929 . S
H914 C887 0.931 . S
H915 C888 0.930 . S
H916 C893 0.929 . S
H917 C894 0.929 . S
H918 C896 0.931 . S
H919 C897 0.930 . S
Pr920 C922 2.880 . S
Pr920 O940 2.562 . S
Pr920 O941 2.490 . S
Pr920 O942 2.695 1_554 S
Pr920 O943 2.512 . S
Pr920 O945 2.437 . S
Pr920 O948 2.436 . S
Pr920 O950 2.438 . S
Pr921 C931 2.880 . S
Pr921 O942 2.436 . S
Pr921 O944 2.438 . S
Pr921 O946 2.562 . S
Pr921 O947 2.490 . S
Pr921 O948 2.695 1_556 S
Pr921 O949 2.512 . S
Pr921 O951 2.437 . S
C922 Pr920 2.880 . S
C922 C923 1.491 . S
C922 O940 1.254 . S
C922 O941 1.225 . S
C923 C922 1.491 . S
C923 C924 1.392 . S
C923 C928 1.356 . S
C924 C923 1.392 . S
C924 C925 1.368 . S
C924 H952 0.929 . S
C925 C924 1.368 . S
C925 C926 1.386 . S
C925 H953 0.929 . S
C926 C925 1.386 . S
C926 C927 1.373 . S
C927 C926 1.373 . S
C927 C928 1.409 . S
C927 H954 0.931 . S
C928 C923 1.356 . S
C928 C927 1.409 . S
C928 H955 0.930 . S
C929 O942 1.270 1_554 S
C929 O943 1.248 . S
C930 O944 1.267 1_554 S
C930 O945 1.278 . S
C931 Pr921 2.880 . S
C931 C932 1.491 . S
C931 O946 1.254 . S
C931 O947 1.225 . S
C932 C931 1.491 . S
C932 C933 1.392 . S
C932 C937 1.356 . S
C933 C932 1.392 . S
C933 C934 1.368 . S
C933 H956 0.929 . S
C934 C933 1.368 . S
C934 C935 1.386 . S
C934 H957 0.929 . S
C935 C934 1.386 . S
C935 C936 1.373 . S
C936 C935 1.373 . S
C936 C937 1.409 . S
C936 H958 0.931 . S
C937 C932 1.356 . S
C937 C936 1.409 . S
C937 H959 0.930 . S
C938 O948 1.270 1_556 S
C938 O949 1.248 . S
C939 O950 1.267 1_556 S
C939 O951 1.278 . S
O940 Pr920 2.562 . S
O940 C922 1.254 . S
O941 Pr920 2.490 . S
O941 C922 1.225 . S
O942 Pr920 2.695 1_556 S
O942 Pr921 2.436 . S
O942 C929 1.270 1_556 S
O943 Pr920 2.512 . S
O943 C929 1.248 . S
O944 Pr921 2.438 . S
O944 C930 1.267 1_556 S
O945 Pr920 2.437 . S
O945 C930 1.278 . S
O946 Pr921 2.562 . S
O946 C931 1.254 . S
O947 Pr921 2.490 . S
O947 C931 1.225 . S
O948 Pr920 2.436 . S
O948 Pr921 2.695 1_554 S
O948 C938 1.270 1_554 S
O949 Pr921 2.512 . S
O949 C938 1.248 . S
O950 Pr920 2.438 . S
O950 C939 1.267 1_554 S
O951 Pr921 2.437 . S
O951 C939 1.278 . S
H952 C924 0.929 . S
H953 C925 0.929 . S
H954 C927 0.931 . S
H955 C928 0.930 . S
H956 C933 0.929 . S
H957 C934 0.929 . S
H958 C936 0.931 . S
H959 C937 0.930 . S
Pr960 C962 2.880 . S
Pr960 O980 2.562 . S
Pr960 O981 2.490 . S
Pr960 O982 2.695 . S
Pr960 O983 2.512 . S
Pr960 O985 2.437 . S
Pr960 O988 2.436 . S
Pr960 O990 2.438 . S
Pr961 C971 2.880 . S
Pr961 O982 2.436 . S
Pr961 O984 2.438 . S
Pr961 O986 2.562 . S
Pr961 O987 2.490 . S
Pr961 O988 2.695 . S
Pr961 O989 2.512 . S
Pr961 O991 2.437 . S
C962 Pr960 2.880 . S
C962 C963 1.491 . S
C962 O980 1.254 . S
C962 O981 1.225 . S
C963 C962 1.491 . S
C963 C964 1.392 . S
C963 C968 1.356 . S
C964 C963 1.392 . S
C964 C965 1.368 . S
C964 H992 0.929 . S
C965 C964 1.368 . S
C965 C966 1.386 . S
C965 H993 0.929 . S
C966 C965 1.386 . S
C966 C967 1.373 . S
C967 C966 1.373 . S
C967 C968 1.409 . S
C967 H994 0.931 1_565 S
C968 C963 1.356 . S
C968 C967 1.409 . S
C968 H995 0.930 . S
C969 O982 1.270 . S
C969 O983 1.248 . S
C970 O984 1.267 . S
C970 O985 1.278 . S
C971 Pr961 2.880 . S
C971 C972 1.491 . S
C971 O986 1.254 . S
C971 O987 1.225 . S
C972 C971 1.491 . S
C972 C973 1.392 . S
C972 C977 1.356 . S
C973 C972 1.392 . S
C973 C974 1.368 . S
C973 H996 0.929 . S
C974 C973 1.368 . S
C974 C975 1.386 . S
C974 H997 0.929 . S
C975 C974 1.386 . S
C975 C976 1.373 . S
C976 C975 1.373 . S
C976 C977 1.409 . S
C976 H998 0.931 . S
C977 C972 1.356 . S
C977 C976 1.409 . S
C977 H999 0.930 . S
C978 O988 1.270 . S
C978 O989 1.248 . S
C979 O990 1.267 . S
C979 O991 1.278 . S
O980 Pr960 2.562 . S
O980 C962 1.254 . S
O981 Pr960 2.490 . S
O981 C962 1.225 . S
O982 Pr960 2.695 . S
O982 Pr961 2.436 . S
O982 C969 1.270 . S
O983 Pr960 2.512 . S
O983 C969 1.248 . S
O984 Pr961 2.438 . S
O984 C970 1.267 . S
O985 Pr960 2.437 . S
O985 C970 1.278 . S
O986 Pr961 2.562 . S
O986 C971 1.254 . S
O987 Pr961 2.490 . S
O987 C971 1.225 . S
O988 Pr960 2.436 . S
O988 Pr961 2.695 . S
O988 C978 1.270 . S
O989 Pr961 2.512 . S
O989 C978 1.248 . S
O990 Pr960 2.438 . S
O990 C979 1.267 . S
O991 Pr961 2.437 . S
O991 C979 1.278 . S
H992 C964 0.929 . S
H993 C965 0.929 . S
H994 C967 0.931 1_545 S
H995 C968 0.930 . S
H996 C973 0.929 . S
H997 C974 0.929 . S
H998 C976 0.931 . S
H999 C977 0.930 . S
Pr1000 C1002 2.880 . S
Pr1000 O1020 2.562 . S
Pr1000 O1021 2.490 . S
Pr1000 O1022 2.695 . S
Pr1000 O1023 2.512 . S
Pr1000 O1025 2.437 . S
Pr1000 O1028 2.436 . S
Pr1000 O1030 2.438 . S
Pr1001 C1011 2.880 . S
Pr1001 O1022 2.436 . S
Pr1001 O1024 2.438 . S
Pr1001 O1026 2.562 . S
Pr1001 O1027 2.490 . S
Pr1001 O1028 2.695 . S
Pr1001 O1029 2.512 . S
Pr1001 O1031 2.437 . S
C1002 Pr1000 2.880 . S
C1002 C1003 1.491 . S
C1002 O1020 1.254 . S
C1002 O1021 1.225 . S
C1003 C1002 1.491 . S
C1003 C1004 1.392 . S
C1003 C1008 1.356 . S
C1004 C1003 1.392 . S
C1004 C1005 1.368 . S
C1004 H1032 0.929 . S
C1005 C1004 1.368 . S
C1005 C1006 1.386 . S
C1005 H1033 0.929 . S
C1006 C1005 1.386 . S
C1006 C1007 1.373 . S
C1007 C1006 1.373 . S
C1007 C1008 1.409 . S
C1007 H1034 0.931 1_455 S
C1008 C1003 1.356 . S
C1008 C1007 1.409 . S
C1008 H1035 0.930 . S
C1009 O1022 1.270 . S
C1009 O1023 1.248 . S
C1010 O1024 1.267 . S
C1010 O1025 1.278 . S
C1011 Pr1001 2.880 . S
C1011 C1012 1.491 . S
C1011 O1026 1.254 . S
C1011 O1027 1.225 . S
C1012 C1011 1.491 . S
C1012 C1013 1.392 . S
C1012 C1017 1.356 . S
C1013 C1012 1.392 . S
C1013 C1014 1.368 . S
C1013 H1036 0.929 . S
C1014 C1013 1.368 . S
C1014 C1015 1.386 . S
C1014 H1037 0.929 . S
C1015 C1014 1.386 . S
C1015 C1016 1.373 . S
C1016 C1015 1.373 . S
C1016 C1017 1.409 . S
C1016 H1038 0.931 . S
C1017 C1012 1.356 . S
C1017 C1016 1.409 . S
C1017 H1039 0.930 . S
C1018 O1028 1.270 . S
C1018 O1029 1.248 . S
C1019 O1030 1.267 . S
C1019 O1031 1.278 . S
O1020 Pr1000 2.562 . S
O1020 C1002 1.254 . S
O1021 Pr1000 2.490 . S
O1021 C1002 1.225 . S
O1022 Pr1000 2.695 . S
O1022 Pr1001 2.436 . S
O1022 C1009 1.270 . S
O1023 Pr1000 2.512 . S
O1023 C1009 1.248 . S
O1024 Pr1001 2.438 . S
O1024 C1010 1.267 . S
O1025 Pr1000 2.437 . S
O1025 C1010 1.278 . S
O1026 Pr1001 2.562 . S
O1026 C1011 1.254 . S
O1027 Pr1001 2.490 . S
O1027 C1011 1.225 . S
O1028 Pr1000 2.436 . S
O1028 Pr1001 2.695 . S
O1028 C1018 1.270 . S
O1029 Pr1001 2.512 . S
O1029 C1018 1.248 . S
O1030 Pr1000 2.438 . S
O1030 C1019 1.267 . S
O1031 Pr1001 2.437 . S
O1031 C1019 1.278 . S
H1032 C1004 0.929 . S
H1033 C1005 0.929 . S
H1034 C1007 0.931 1_655 S
H1035 C1008 0.930 . S
H1036 C1013 0.929 . S
H1037 C1014 0.929 . S
H1038 C1016 0.931 . S
H1039 C1017 0.930 . S
Pr1040 C1042 2.880 . S
Pr1040 O1060 2.562 . S
Pr1040 O1061 2.490 . S
Pr1040 O1062 2.695 . S
Pr1040 O1063 2.512 . S
Pr1040 O1065 2.437 . S
Pr1040 O1068 2.436 . S
Pr1040 O1070 2.438 . S
Pr1041 C1051 2.880 . S
Pr1041 O1062 2.436 . S
Pr1041 O1064 2.438 . S
Pr1041 O1066 2.562 . S
Pr1041 O1067 2.490 . S
Pr1041 O1068 2.695 . S
Pr1041 O1069 2.512 . S
Pr1041 O1071 2.437 . S
C1042 Pr1040 2.880 . S
C1042 C1043 1.491 . S
C1042 O1060 1.254 . S
C1042 O1061 1.225 . S
C1043 C1042 1.491 . S
C1043 C1044 1.392 . S
C1043 C1048 1.356 . S
C1044 C1043 1.392 . S
C1044 C1045 1.368 . S
C1044 H1072 0.929 . S
C1045 C1044 1.368 . S
C1045 C1046 1.386 . S
C1045 H1073 0.929 . S
C1046 C1045 1.386 . S
C1046 C1047 1.373 . S
C1047 C1046 1.373 . S
C1047 C1048 1.409 . S
C1047 H1074 0.931 . S
C1048 C1043 1.356 . S
C1048 C1047 1.409 . S
C1048 H1075 0.930 . S
C1049 O1062 1.270 . S
C1049 O1063 1.248 . S
C1050 O1064 1.267 . S
C1050 O1065 1.278 . S
C1051 Pr1041 2.880 . S
C1051 C1052 1.491 . S
C1051 O1066 1.254 . S
C1051 O1067 1.225 . S
C1052 C1051 1.491 . S
C1052 C1053 1.392 . S
C1052 C1057 1.356 . S
C1053 C1052 1.392 . S
C1053 C1054 1.368 . S
C1053 H1076 0.929 . S
C1054 C1053 1.368 . S
C1054 C1055 1.386 . S
C1054 H1077 0.929 . S
C1055 C1054 1.386 . S
C1055 C1056 1.373 . S
C1056 C1055 1.373 . S
C1056 C1057 1.409 . S
C1056 H1078 0.931 . S
C1057 C1052 1.356 . S
C1057 C1056 1.409 . S
C1057 H1079 0.930 . S
C1058 O1068 1.270 . S
C1058 O1069 1.248 . S
C1059 O1070 1.267 . S
C1059 O1071 1.278 . S
O1060 Pr1040 2.562 . S
O1060 C1042 1.254 . S
O1061 Pr1040 2.490 . S
O1061 C1042 1.225 . S
O1062 Pr1040 2.695 . S
O1062 Pr1041 2.436 . S
O1062 C1049 1.270 . S
O1063 Pr1040 2.512 . S
O1063 C1049 1.248 . S
O1064 Pr1041 2.438 . S
O1064 C1050 1.267 . S
O1065 Pr1040 2.437 . S
O1065 C1050 1.278 . S
O1066 Pr1041 2.562 . S
O1066 C1051 1.254 . S
O1067 Pr1041 2.490 . S
O1067 C1051 1.225 . S
O1068 Pr1040 2.436 . S
O1068 Pr1041 2.695 . S
O1068 C1058 1.270 . S
O1069 Pr1041 2.512 . S
O1069 C1058 1.248 . S
O1070 Pr1040 2.438 . S
O1070 C1059 1.267 . S
O1071 Pr1041 2.437 . S
O1071 C1059 1.278 . S
H1072 C1044 0.929 . S
H1073 C1045 0.929 . S
H1074 C1047 0.931 . S
H1075 C1048 0.930 . S
H1076 C1053 0.929 . S
H1077 C1054 0.929 . S
H1078 C1056 0.931 . S
H1079 C1057 0.930 . S
Pr1080 C1082 2.880 . S
Pr1080 O1100 2.562 . S
Pr1080 O1101 2.490 . S
Pr1080 O1102 2.695 1_554 S
Pr1080 O1103 2.512 . S
Pr1080 O1105 2.437 . S
Pr1080 O1108 2.436 . S
Pr1080 O1110 2.438 . S
Pr1081 C1091 2.880 . S
Pr1081 O1102 2.436 . S
Pr1081 O1104 2.438 . S
Pr1081 O1106 2.562 . S
Pr1081 O1107 2.490 . S
Pr1081 O1108 2.695 1_556 S
Pr1081 O1109 2.512 . S
Pr1081 O1111 2.437 . S
C1082 Pr1080 2.880 . S
C1082 C1083 1.491 . S
C1082 O1100 1.254 . S
C1082 O1101 1.225 . S
C1083 C1082 1.491 . S
C1083 C1084 1.392 . S
C1083 C1088 1.356 . S
C1084 C1083 1.392 . S
C1084 C1085 1.368 . S
C1084 H1112 0.929 . S
C1085 C1084 1.368 . S
C1085 C1086 1.386 . S
C1085 H1113 0.929 . S
C1086 C1085 1.386 . S
C1086 C1087 1.373 . S
C1087 C1086 1.373 . S
C1087 C1088 1.409 . S
C1087 H1114 0.931 . S
C1088 C1083 1.356 . S
C1088 C1087 1.409 . S
C1088 H1115 0.930 . S
C1089 O1102 1.270 1_554 S
C1089 O1103 1.248 . S
C1090 O1104 1.267 1_554 S
C1090 O1105 1.278 . S
C1091 Pr1081 2.880 . S
C1091 C1092 1.491 . S
C1091 O1106 1.254 . S
C1091 O1107 1.225 . S
C1092 C1091 1.491 . S
C1092 C1093 1.392 . S
C1092 C1097 1.356 . S
C1093 C1092 1.392 . S
C1093 C1094 1.368 . S
C1093 H1116 0.929 . S
C1094 C1093 1.368 . S
C1094 C1095 1.386 . S
C1094 H1117 0.929 . S
C1095 C1094 1.386 . S
C1095 C1096 1.373 . S
C1096 C1095 1.373 . S
C1096 C1097 1.409 . S
C1096 H1118 0.931 . S
C1097 C1092 1.356 . S
C1097 C1096 1.409 . S
C1097 H1119 0.930 . S
C1098 O1108 1.270 1_556 S
C1098 O1109 1.248 . S
C1099 O1110 1.267 1_556 S
C1099 O1111 1.278 . S
O1100 Pr1080 2.562 . S
O1100 C1082 1.254 . S
O1101 Pr1080 2.490 . S
O1101 C1082 1.225 . S
O1102 Pr1080 2.695 1_556 S
O1102 Pr1081 2.436 . S
O1102 C1089 1.270 1_556 S
O1103 Pr1080 2.512 . S
O1103 C1089 1.248 . S
O1104 Pr1081 2.438 . S
O1104 C1090 1.267 1_556 S
O1105 Pr1080 2.437 . S
O1105 C1090 1.278 . S
O1106 Pr1081 2.562 . S
O1106 C1091 1.254 . S
O1107 Pr1081 2.490 . S
O1107 C1091 1.225 . S
O1108 Pr1080 2.436 . S
O1108 Pr1081 2.695 1_554 S
O1108 C1098 1.270 1_554 S
O1109 Pr1081 2.512 . S
O1109 C1098 1.248 . S
O1110 Pr1080 2.438 . S
O1110 C1099 1.267 1_554 S
O1111 Pr1081 2.437 . S
O1111 C1099 1.278 . S
H1112 C1084 0.929 . S
H1113 C1085 0.929 . S
H1114 C1087 0.931 . S
H1115 C1088 0.930 . S
H1116 C1093 0.929 . S
H1117 C1094 0.929 . S
H1118 C1096 0.931 . S
H1119 C1097 0.930 . S
Pr1120 C1122 2.880 . S
Pr1120 O1140 2.562 . S
Pr1120 O1141 2.490 . S
Pr1120 O1142 2.695 1_554 S
Pr1120 O1143 2.512 . S
Pr1120 O1145 2.437 . S
Pr1120 O1148 2.436 . S
Pr1120 O1150 2.438 . S
Pr1121 C1131 2.880 . S
Pr1121 O1142 2.436 . S
Pr1121 O1144 2.438 . S
Pr1121 O1146 2.562 . S
Pr1121 O1147 2.490 . S
Pr1121 O1148 2.695 1_556 S
Pr1121 O1149 2.512 . S
Pr1121 O1151 2.437 . S
C1122 Pr1120 2.880 . S
C1122 C1123 1.491 . S
C1122 O1140 1.254 . S
C1122 O1141 1.225 . S
C1123 C1122 1.491 . S
C1123 C1124 1.392 . S
C1123 C1128 1.356 . S
C1124 C1123 1.392 . S
C1124 C1125 1.368 . S
C1124 H1152 0.929 . S
C1125 C1124 1.368 . S
C1125 C1126 1.386 . S
C1125 H1153 0.929 . S
C1126 C1125 1.386 . S
C1126 C1127 1.373 . S
C1127 C1126 1.373 . S
C1127 C1128 1.409 . S
C1127 H1154 0.931 . S
C1128 C1123 1.356 . S
C1128 C1127 1.409 . S
C1128 H1155 0.930 . S
C1129 O1142 1.270 1_554 S
C1129 O1143 1.248 . S
C1130 O1144 1.267 1_554 S
C1130 O1145 1.278 . S
C1131 Pr1121 2.880 . S
C1131 C1132 1.491 . S
C1131 O1146 1.254 . S
C1131 O1147 1.225 . S
C1132 C1131 1.491 . S
C1132 C1133 1.392 . S
C1132 C1137 1.356 . S
C1133 C1132 1.392 . S
C1133 C1134 1.368 . S
C1133 H1156 0.929 . S
C1134 C1133 1.368 . S
C1134 C1135 1.386 . S
C1134 H1157 0.929 . S
C1135 C1134 1.386 . S
C1135 C1136 1.373 . S
C1136 C1135 1.373 . S
C1136 C1137 1.409 . S
C1136 H1158 0.931 . S
C1137 C1132 1.356 . S
C1137 C1136 1.409 . S
C1137 H1159 0.930 . S
C1138 O1148 1.270 1_556 S
C1138 O1149 1.248 . S
C1139 O1150 1.267 1_556 S
C1139 O1151 1.278 . S
O1140 Pr1120 2.562 . S
O1140 C1122 1.254 . S
O1141 Pr1120 2.490 . S
O1141 C1122 1.225 . S
O1142 Pr1120 2.695 1_556 S
O1142 Pr1121 2.436 . S
O1142 C1129 1.270 1_556 S
O1143 Pr1120 2.512 . S
O1143 C1129 1.248 . S
O1144 Pr1121 2.438 . S
O1144 C1130 1.267 1_556 S
O1145 Pr1120 2.437 . S
O1145 C1130 1.278 . S
O1146 Pr1121 2.562 . S
O1146 C1131 1.254 . S
O1147 Pr1121 2.490 . S
O1147 C1131 1.225 . S
O1148 Pr1120 2.436 . S
O1148 Pr1121 2.695 1_554 S
O1148 C1138 1.270 1_554 S
O1149 Pr1121 2.512 . S
O1149 C1138 1.248 . S
O1150 Pr1120 2.438 . S
O1150 C1139 1.267 1_554 S
O1151 Pr1121 2.437 . S
O1151 C1139 1.278 . S
H1152 C1124 0.929 . S
H1153 C1125 0.929 . S
H1154 C1127 0.931 . S
H1155 C1128 0.930 . S
H1156 C1133 0.929 . S
H1157 C1134 0.929 . S
H1158 C1136 0.931 . S
H1159 C1137 0.930 . S
Pr1160 C1162 2.880 . S
Pr1160 O1180 2.562 . S
Pr1160 O1181 2.490 . S
Pr1160 O1182 2.695 1_554 S
Pr1160 O1183 2.512 . S
Pr1160 O1185 2.437 . S
Pr1160 O1188 2.436 . S
Pr1160 O1190 2.438 . S
Pr1161 C1171 2.880 . S
Pr1161 O1182 2.436 . S
Pr1161 O1184 2.438 . S
Pr1161 O1186 2.562 . S
Pr1161 O1187 2.490 . S
Pr1161 O1188 2.695 1_556 S
Pr1161 O1189 2.512 . S
Pr1161 O1191 2.437 . S
C1162 Pr1160 2.880 . S
C1162 C1163 1.491 . S
C1162 O1180 1.254 . S
C1162 O1181 1.225 . S
C1163 C1162 1.491 . S
C1163 C1164 1.392 . S
C1163 C1168 1.356 . S
C1164 C1163 1.392 . S
C1164 C1165 1.368 . S
C1164 H1192 0.929 . S
C1165 C1164 1.368 . S
C1165 C1166 1.386 . S
C1165 H1193 0.929 . S
C1166 C1165 1.386 . S
C1166 C1167 1.373 . S
C1167 C1166 1.373 . S
C1167 C1168 1.409 . S
C1167 H1194 0.931 . S
C1168 C1163 1.356 . S
C1168 C1167 1.409 . S
C1168 H1195 0.930 . S
C1169 O1182 1.270 1_554 S
C1169 O1183 1.248 . S
C1170 O1184 1.267 1_554 S
C1170 O1185 1.278 . S
C1171 Pr1161 2.880 . S
C1171 C1172 1.491 . S
C1171 O1186 1.254 . S
C1171 O1187 1.225 . S
C1172 C1171 1.491 . S
C1172 C1173 1.392 . S
C1172 C1177 1.356 . S
C1173 C1172 1.392 . S
C1173 C1174 1.368 . S
C1173 H1196 0.929 . S
C1174 C1173 1.368 . S
C1174 C1175 1.386 . S
C1174 H1197 0.929 . S
C1175 C1174 1.386 . S
C1175 C1176 1.373 . S
C1176 C1175 1.373 . S
C1176 C1177 1.409 . S
C1176 H1198 0.931 . S
C1177 C1172 1.356 . S
C1177 C1176 1.409 . S
C1177 H1199 0.930 . S
C1178 O1188 1.270 1_556 S
C1178 O1189 1.248 . S
C1179 O1190 1.267 1_556 S
C1179 O1191 1.278 . S
O1180 Pr1160 2.562 . S
O1180 C1162 1.254 . S
O1181 Pr1160 2.490 . S
O1181 C1162 1.225 . S
O1182 Pr1160 2.695 1_556 S
O1182 Pr1161 2.436 . S
O1182 C1169 1.270 1_556 S
O1183 Pr1160 2.512 . S
O1183 C1169 1.248 . S
O1184 Pr1161 2.438 . S
O1184 C1170 1.267 1_556 S
O1185 Pr1160 2.437 . S
O1185 C1170 1.278 . S
O1186 Pr1161 2.562 . S
O1186 C1171 1.254 . S
O1187 Pr1161 2.490 . S
O1187 C1171 1.225 . S
O1188 Pr1160 2.436 . S
O1188 Pr1161 2.695 1_554 S
O1188 C1178 1.270 1_554 S
O1189 Pr1161 2.512 . S
O1189 C1178 1.248 . S
O1190 Pr1160 2.438 . S
O1190 C1179 1.267 1_554 S
O1191 Pr1161 2.437 . S
O1191 C1179 1.278 . S
H1192 C1164 0.929 . S
H1193 C1165 0.929 . S
H1194 C1167 0.931 . S
H1195 C1168 0.930 . S
H1196 C1173 0.929 . S
H1197 C1174 0.929 . S
H1198 C1176 0.931 . S
H1199 C1177 0.930 . S
Pr1200 C1202 2.880 . S
Pr1200 O1220 2.562 . S
Pr1200 O1221 2.490 . S
Pr1200 O1222 2.695 . S
Pr1200 O1223 2.512 . S
Pr1200 O1225 2.437 . S
Pr1200 O1228 2.436 . S
Pr1200 O1230 2.438 . S
Pr1201 C1211 2.880 . S
Pr1201 O1222 2.436 . S
Pr1201 O1224 2.438 . S
Pr1201 O1226 2.562 . S
Pr1201 O1227 2.490 . S
Pr1201 O1228 2.695 . S
Pr1201 O1229 2.512 . S
Pr1201 O1231 2.437 . S
C1202 Pr1200 2.880 . S
C1202 C1203 1.491 . S
C1202 O1220 1.254 . S
C1202 O1221 1.225 . S
C1203 C1202 1.491 . S
C1203 C1204 1.392 . S
C1203 C1208 1.356 . S
C1204 C1203 1.392 . S
C1204 C1205 1.368 . S
C1204 H1232 0.929 . S
C1205 C1204 1.368 . S
C1205 C1206 1.386 . S
C1205 H1233 0.929 . S
C1206 C1205 1.386 . S
C1206 C1207 1.373 . S
C1207 C1206 1.373 . S
C1207 C1208 1.409 . S
C1207 H1234 0.931 . S
C1208 C1203 1.356 . S
C1208 C1207 1.409 . S
C1208 H1235 0.930 . S
C1209 O1222 1.270 . S
C1209 O1223 1.248 . S
C1210 O1224 1.267 . S
C1210 O1225 1.278 . S
C1211 Pr1201 2.880 . S
C1211 C1212 1.491 . S
C1211 O1226 1.254 . S
C1211 O1227 1.225 . S
C1212 C1211 1.491 . S
C1212 C1213 1.392 . S
C1212 C1217 1.356 . S
C1213 C1212 1.392 . S
C1213 C1214 1.368 . S
C1213 H1236 0.929 . S
C1214 C1213 1.368 . S
C1214 C1215 1.386 . S
C1214 H1237 0.929 . S
C1215 C1214 1.386 . S
C1215 C1216 1.373 . S
C1216 C1215 1.373 . S
C1216 C1217 1.409 . S
C1216 H1238 0.931 . S
C1217 C1212 1.356 . S
C1217 C1216 1.409 . S
C1217 H1239 0.930 . S
C1218 O1228 1.270 . S
C1218 O1229 1.248 . S
C1219 O1230 1.267 . S
C1219 O1231 1.278 . S
O1220 Pr1200 2.562 . S
O1220 C1202 1.254 . S
O1221 Pr1200 2.490 . S
O1221 C1202 1.225 . S
O1222 Pr1200 2.695 . S
O1222 Pr1201 2.436 . S
O1222 C1209 1.270 . S
O1223 Pr1200 2.512 . S
O1223 C1209 1.248 . S
O1224 Pr1201 2.438 . S
O1224 C1210 1.267 . S
O1225 Pr1200 2.437 . S
O1225 C1210 1.278 . S
O1226 Pr1201 2.562 . S
O1226 C1211 1.254 . S
O1227 Pr1201 2.490 . S
O1227 C1211 1.225 . S
O1228 Pr1200 2.436 . S
O1228 Pr1201 2.695 . S
O1228 C1218 1.270 . S
O1229 Pr1201 2.512 . S
O1229 C1218 1.248 . S
O1230 Pr1200 2.438 . S
O1230 C1219 1.267 . S
O1231 Pr1201 2.437 . S
O1231 C1219 1.278 . S
H1232 C1204 0.929 . S
H1233 C1205 0.929 . S
H1234 C1207 0.931 . S
H1235 C1208 0.930 . S
H1236 C1213 0.929 . S
H1237 C1214 0.929 . S
H1238 C1216 0.931 . S
H1239 C1217 0.930 . S
Pr1240 C1242 2.880 . S
Pr1240 O1260 2.562 . S
Pr1240 O1261 2.490 . S
Pr1240 O1262 2.695 . S
Pr1240 O1263 2.512 . S
Pr1240 O1265 2.437 . S
Pr1240 O1268 2.436 . S
Pr1240 O1270 2.438 . S
Pr1241 C1251 2.880 . S
Pr1241 O1262 2.436 . S
Pr1241 O1264 2.438 . S
Pr1241 O1266 2.562 . S
Pr1241 O1267 2.490 . S
Pr1241 O1268 2.695 . S
Pr1241 O1269 2.512 . S
Pr1241 O1271 2.437 . S
C1242 Pr1240 2.880 . S
C1242 C1243 1.491 . S
C1242 O1260 1.254 . S
C1242 O1261 1.225 . S
C1243 C1242 1.491 . S
C1243 C1244 1.392 . S
C1243 C1248 1.356 . S
C1244 C1243 1.392 . S
C1244 C1245 1.368 . S
C1244 H1272 0.929 . S
C1245 C1244 1.368 . S
C1245 C1246 1.386 . S
C1245 H1273 0.929 . S
C1246 C1245 1.386 . S
C1246 C1247 1.373 . S
C1247 C1246 1.373 . S
C1247 C1248 1.409 . S
C1247 H1274 0.931 . S
C1248 C1243 1.356 . S
C1248 C1247 1.409 . S
C1248 H1275 0.930 . S
C1249 O1262 1.270 . S
C1249 O1263 1.248 . S
C1250 O1264 1.267 . S
C1250 O1265 1.278 . S
C1251 Pr1241 2.880 . S
C1251 C1252 1.491 . S
C1251 O1266 1.254 . S
C1251 O1267 1.225 . S
C1252 C1251 1.491 . S
C1252 C1253 1.392 . S
C1252 C1257 1.356 . S
C1253 C1252 1.392 . S
C1253 C1254 1.368 . S
C1253 H1276 0.929 . S
C1254 C1253 1.368 . S
C1254 C1255 1.386 . S
C1254 H1277 0.929 . S
C1255 C1254 1.386 . S
C1255 C1256 1.373 . S
C1256 C1255 1.373 . S
C1256 C1257 1.409 . S
C1256 H1278 0.931 . S
C1257 C1252 1.356 . S
C1257 C1256 1.409 . S
C1257 H1279 0.930 . S
C1258 O1268 1.270 . S
C1258 O1269 1.248 . S
C1259 O1270 1.267 . S
C1259 O1271 1.278 . S
O1260 Pr1240 2.562 . S
O1260 C1242 1.254 . S
O1261 Pr1240 2.490 . S
O1261 C1242 1.225 . S
O1262 Pr1240 2.695 . S
O1262 Pr1241 2.436 . S
O1262 C1249 1.270 . S
O1263 Pr1240 2.512 . S
O1263 C1249 1.248 . S
O1264 Pr1241 2.438 . S
O1264 C1250 1.267 . S
O1265 Pr1240 2.437 . S
O1265 C1250 1.278 . S
O1266 Pr1241 2.562 . S
O1266 C1251 1.254 . S
O1267 Pr1241 2.490 . S
O1267 C1251 1.225 . S
O1268 Pr1240 2.436 . S
O1268 Pr1241 2.695 . S
O1268 C1258 1.270 . S
O1269 Pr1241 2.512 . S
O1269 C1258 1.248 . S
O1270 Pr1240 2.438 . S
O1270 C1259 1.267 . S
O1271 Pr1241 2.437 . S
O1271 C1259 1.278 . S
H1272 C1244 0.929 . S
H1273 C1245 0.929 . S
H1274 C1247 0.931 . S
H1275 C1248 0.930 . S
H1276 C1253 0.929 . S
H1277 C1254 0.929 . S
H1278 C1256 0.931 . S
H1279 C1257 0.930 . S
Pr1280 C1282 2.880 . S
Pr1280 O1300 2.562 . S
Pr1280 O1301 2.490 . S
Pr1280 O1302 2.695 . S
Pr1280 O1303 2.512 . S
Pr1280 O1305 2.437 . S
Pr1280 O1308 2.436 . S
Pr1280 O1310 2.438 . S
Pr1281 C1291 2.880 . S
Pr1281 O1302 2.436 . S
Pr1281 O1304 2.438 . S
Pr1281 O1306 2.562 . S
Pr1281 O1307 2.490 . S
Pr1281 O1308 2.695 . S
Pr1281 O1309 2.512 . S
Pr1281 O1311 2.437 . S
C1282 Pr1280 2.880 . S
C1282 C1283 1.491 . S
C1282 O1300 1.254 . S
C1282 O1301 1.225 . S
C1283 C1282 1.491 . S
C1283 C1284 1.392 . S
C1283 C1288 1.356 . S
C1284 C1283 1.392 . S
C1284 C1285 1.368 . S
C1284 H1312 0.929 . S
C1285 C1284 1.368 . S
C1285 C1286 1.386 . S
C1285 H1313 0.929 . S
C1286 C1285 1.386 . S
C1286 C1287 1.373 . S
C1287 C1286 1.373 . S
C1287 C1288 1.409 . S
C1287 H1314 0.931 . S
C1288 C1283 1.356 . S
C1288 C1287 1.409 . S
C1288 H1315 0.930 . S
C1289 O1302 1.270 . S
C1289 O1303 1.248 . S
C1290 O1304 1.267 . S
C1290 O1305 1.278 . S
C1291 Pr1281 2.880 . S
C1291 C1292 1.491 . S
C1291 O1306 1.254 . S
C1291 O1307 1.225 . S
C1292 C1291 1.491 . S
C1292 C1293 1.392 . S
C1292 C1297 1.356 . S
C1293 C1292 1.392 . S
C1293 C1294 1.368 . S
C1293 H1316 0.929 . S
C1294 C1293 1.368 . S
C1294 C1295 1.386 . S
C1294 H1317 0.929 . S
C1295 C1294 1.386 . S
C1295 C1296 1.373 . S
C1296 C1295 1.373 . S
C1296 C1297 1.409 . S
C1296 H1318 0.931 . S
C1297 C1292 1.356 . S
C1297 C1296 1.409 . S
C1297 H1319 0.930 . S
C1298 O1308 1.270 . S
C1298 O1309 1.248 . S
C1299 O1310 1.267 . S
C1299 O1311 1.278 . S
O1300 Pr1280 2.562 . S
O1300 C1282 1.254 . S
O1301 Pr1280 2.490 . S
O1301 C1282 1.225 . S
O1302 Pr1280 2.695 . S
O1302 Pr1281 2.436 . S
O1302 C1289 1.270 . S
O1303 Pr1280 2.512 . S
O1303 C1289 1.248 . S
O1304 Pr1281 2.438 . S
O1304 C1290 1.267 . S
O1305 Pr1280 2.437 . S
O1305 C1290 1.278 . S
O1306 Pr1281 2.562 . S
O1306 C1291 1.254 . S
O1307 Pr1281 2.490 . S
O1307 C1291 1.225 . S
O1308 Pr1280 2.436 . S
O1308 Pr1281 2.695 . S
O1308 C1298 1.270 . S
O1309 Pr1281 2.512 . S
O1309 C1298 1.248 . S
O1310 Pr1280 2.438 . S
O1310 C1299 1.267 . S
O1311 Pr1281 2.437 . S
O1311 C1299 1.278 . S
H1312 C1284 0.929 . S
H1313 C1285 0.929 . S
H1314 C1287 0.931 . S
H1315 C1288 0.930 . S
H1316 C1293 0.929 . S
H1317 C1294 0.929 . S
H1318 C1296 0.931 . S
H1319 C1297 0.930 . S
Pr1320 C1322 2.880 . S
Pr1320 O1340 2.562 . S
Pr1320 O1341 2.490 . S
Pr1320 O1342 2.695 . S
Pr1320 O1343 2.512 . S
Pr1320 O1345 2.437 . S
Pr1320 O1348 2.436 . S
Pr1320 O1350 2.438 . S
Pr1321 C1331 2.880 . S
Pr1321 O1342 2.436 . S
Pr1321 O1344 2.438 . S
Pr1321 O1346 2.562 . S
Pr1321 O1347 2.490 . S
Pr1321 O1348 2.695 . S
Pr1321 O1349 2.512 . S
Pr1321 O1351 2.437 . S
C1322 Pr1320 2.880 . S
C1322 C1323 1.491 . S
C1322 O1340 1.254 . S
C1322 O1341 1.225 . S
C1323 C1322 1.491 . S
C1323 C1324 1.392 . S
C1323 C1328 1.356 . S
C1324 C1323 1.392 . S
C1324 C1325 1.368 . S
C1324 H1352 0.929 . S
C1325 C1324 1.368 . S
C1325 C1326 1.386 . S
C1325 H1353 0.929 . S
C1326 C1325 1.386 . S
C1326 C1327 1.373 . S
C1327 C1326 1.373 . S
C1327 C1328 1.409 . S
C1327 H1354 0.931 . S
C1328 C1323 1.356 . S
C1328 C1327 1.409 . S
C1328 H1355 0.930 . S
C1329 O1342 1.270 . S
C1329 O1343 1.248 . S
C1330 O1344 1.267 . S
C1330 O1345 1.278 . S
C1331 Pr1321 2.880 . S
C1331 C1332 1.491 . S
C1331 O1346 1.254 . S
C1331 O1347 1.225 . S
C1332 C1331 1.491 . S
C1332 C1333 1.392 . S
C1332 C1337 1.356 . S
C1333 C1332 1.392 . S
C1333 C1334 1.368 . S
C1333 H1356 0.929 . S
C1334 C1333 1.368 . S
C1334 C1335 1.386 . S
C1334 H1357 0.929 . S
C1335 C1334 1.386 . S
C1335 C1336 1.373 . S
C1336 C1335 1.373 . S
C1336 C1337 1.409 . S
C1336 H1358 0.931 1_455 S
C1337 C1332 1.356 . S
C1337 C1336 1.409 . S
C1337 H1359 0.930 . S
C1338 O1348 1.270 . S
C1338 O1349 1.248 . S
C1339 O1350 1.267 . S
C1339 O1351 1.278 . S
O1340 Pr1320 2.562 . S
O1340 C1322 1.254 . S
O1341 Pr1320 2.490 . S
O1341 C1322 1.225 . S
O1342 Pr1320 2.695 . S
O1342 Pr1321 2.436 . S
O1342 C1329 1.270 . S
O1343 Pr1320 2.512 . S
O1343 C1329 1.248 . S
O1344 Pr1321 2.438 . S
O1344 C1330 1.267 . S
O1345 Pr1320 2.437 . S
O1345 C1330 1.278 . S
O1346 Pr1321 2.562 . S
O1346 C1331 1.254 . S
O1347 Pr1321 2.490 . S
O1347 C1331 1.225 . S
O1348 Pr1320 2.436 . S
O1348 Pr1321 2.695 . S
O1348 C1338 1.270 . S
O1349 Pr1321 2.512 . S
O1349 C1338 1.248 . S
O1350 Pr1320 2.438 . S
O1350 C1339 1.267 . S
O1351 Pr1321 2.437 . S
O1351 C1339 1.278 . S
H1352 C1324 0.929 . S
H1353 C1325 0.929 . S
H1354 C1327 0.931 . S
H1355 C1328 0.930 . S
H1356 C1333 0.929 . S
H1357 C1334 0.929 . S
H1358 C1336 0.931 1_655 S
H1359 C1337 0.930 . S
Pr1360 C1362 2.880 . S
Pr1360 O1380 2.562 . S
Pr1360 O1381 2.490 . S
Pr1360 O1382 2.695 . S
Pr1360 O1383 2.512 . S
Pr1360 O1385 2.437 . S
Pr1360 O1388 2.436 . S
Pr1360 O1390 2.438 . S
Pr1361 C1371 2.880 . S
Pr1361 O1382 2.436 . S
Pr1361 O1384 2.438 . S
Pr1361 O1386 2.562 . S
Pr1361 O1387 2.490 . S
Pr1361 O1388 2.695 . S
Pr1361 O1389 2.512 . S
Pr1361 O1391 2.437 . S
C1362 Pr1360 2.880 . S
C1362 C1363 1.491 . S
C1362 O1380 1.254 . S
C1362 O1381 1.225 . S
C1363 C1362 1.491 . S
C1363 C1364 1.392 . S
C1363 C1368 1.356 . S
C1364 C1363 1.392 . S
C1364 C1365 1.368 . S
C1364 H1392 0.929 . S
C1365 C1364 1.368 . S
C1365 C1366 1.386 . S
C1365 H1393 0.929 . S
C1366 C1365 1.386 . S
C1366 C1367 1.373 . S
C1367 C1366 1.373 . S
C1367 C1368 1.409 . S
C1367 H1394 0.931 . S
C1368 C1363 1.356 . S
C1368 C1367 1.409 . S
C1368 H1395 0.930 . S
C1369 O1382 1.270 . S
C1369 O1383 1.248 . S
C1370 O1384 1.267 . S
C1370 O1385 1.278 . S
C1371 Pr1361 2.880 . S
C1371 C1372 1.491 . S
C1371 O1386 1.254 . S
C1371 O1387 1.225 . S
C1372 C1371 1.491 . S
C1372 C1373 1.392 . S
C1372 C1377 1.356 . S
C1373 C1372 1.392 . S
C1373 C1374 1.368 . S
C1373 H1396 0.929 . S
C1374 C1373 1.368 . S
C1374 C1375 1.386 . S
C1374 H1397 0.929 . S
C1375 C1374 1.386 . S
C1375 C1376 1.373 . S
C1376 C1375 1.373 . S
C1376 C1377 1.409 . S
C1376 H1398 0.931 . S
C1377 C1372 1.356 . S
C1377 C1376 1.409 . S
C1377 H1399 0.930 . S
C1378 O1388 1.270 . S
C1378 O1389 1.248 . S
C1379 O1390 1.267 . S
C1379 O1391 1.278 . S
O1380 Pr1360 2.562 . S
O1380 C1362 1.254 . S
O1381 Pr1360 2.490 . S
O1381 C1362 1.225 . S
O1382 Pr1360 2.695 . S
O1382 Pr1361 2.436 . S
O1382 C1369 1.270 . S
O1383 Pr1360 2.512 . S
O1383 C1369 1.248 . S
O1384 Pr1361 2.438 . S
O1384 C1370 1.267 . S
O1385 Pr1360 2.437 . S
O1385 C1370 1.278 . S
O1386 Pr1361 2.562 . S
O1386 C1371 1.254 . S
O1387 Pr1361 2.490 . S
O1387 C1371 1.225 . S
O1388 Pr1360 2.436 . S
O1388 Pr1361 2.695 . S
O1388 C1378 1.270 . S
O1389 Pr1361 2.512 . S
O1389 C1378 1.248 . S
O1390 Pr1360 2.438 . S
O1390 C1379 1.267 . S
O1391 Pr1361 2.437 . S
O1391 C1379 1.278 . S
H1392 C1364 0.929 . S
H1393 C1365 0.929 . S
H1394 C1367 0.931 . S
H1395 C1368 0.930 . S
H1396 C1373 0.929 . S
H1397 C1374 0.929 . S
H1398 C1376 0.931 . S
H1399 C1377 0.930 . S
Pr1400 C1402 2.880 . S
Pr1400 O1420 2.562 . S
Pr1400 O1421 2.490 . S
Pr1400 O1422 2.695 . S
Pr1400 O1423 2.512 . S
Pr1400 O1425 2.437 . S
Pr1400 O1428 2.436 . S
Pr1400 O1430 2.438 . S
Pr1401 C1411 2.880 . S
Pr1401 O1422 2.436 . S
Pr1401 O1424 2.438 . S
Pr1401 O1426 2.562 . S
Pr1401 O1427 2.490 . S
Pr1401 O1428 2.695 . S
Pr1401 O1429 2.512 . S
Pr1401 O1431 2.437 . S
C1402 Pr1400 2.880 . S
C1402 C1403 1.491 . S
C1402 O1420 1.254 . S
C1402 O1421 1.225 . S
C1403 C1402 1.491 . S
C1403 C1404 1.392 . S
C1403 C1408 1.356 . S
C1404 C1403 1.392 . S
C1404 C1405 1.368 . S
C1404 H1432 0.929 . S
C1405 C1404 1.368 . S
C1405 C1406 1.386 . S
C1405 H1433 0.929 . S
C1406 C1405 1.386 . S
C1406 C1407 1.373 . S
C1407 C1406 1.373 . S
C1407 C1408 1.409 . S
C1407 H1434 0.931 . S
C1408 C1403 1.356 . S
C1408 C1407 1.409 . S
C1408 H1435 0.930 . S
C1409 O1422 1.270 . S
C1409 O1423 1.248 . S
C1410 O1424 1.267 . S
C1410 O1425 1.278 . S
C1411 Pr1401 2.880 . S
C1411 C1412 1.491 . S
C1411 O1426 1.254 . S
C1411 O1427 1.225 . S
C1412 C1411 1.491 . S
C1412 C1413 1.392 . S
C1412 C1417 1.356 . S
C1413 C1412 1.392 . S
C1413 C1414 1.368 . S
C1413 H1436 0.929 . S
C1414 C1413 1.368 . S
C1414 C1415 1.386 . S
C1414 H1437 0.929 . S
C1415 C1414 1.386 . S
C1415 C1416 1.373 . S
C1416 C1415 1.373 . S
C1416 C1417 1.409 . S
C1416 H1438 0.931 1_565 S
C1417 C1412 1.356 . S
C1417 C1416 1.409 . S
C1417 H1439 0.930 . S
C1418 O1428 1.270 . S
C1418 O1429 1.248 . S
C1419 O1430 1.267 . S
C1419 O1431 1.278 . S
O1420 Pr1400 2.562 . S
O1420 C1402 1.254 . S
O1421 Pr1400 2.490 . S
O1421 C1402 1.225 . S
O1422 Pr1400 2.695 . S
O1422 Pr1401 2.436 . S
O1422 C1409 1.270 . S
O1423 Pr1400 2.512 . S
O1423 C1409 1.248 . S
O1424 Pr1401 2.438 . S
O1424 C1410 1.267 . S
O1425 Pr1400 2.437 . S
O1425 C1410 1.278 . S
O1426 Pr1401 2.562 . S
O1426 C1411 1.254 . S
O1427 Pr1401 2.490 . S
O1427 C1411 1.225 . S
O1428 Pr1400 2.436 . S
O1428 Pr1401 2.695 . S
O1428 C1418 1.270 . S
O1429 Pr1401 2.512 . S
O1429 C1418 1.248 . S
O1430 Pr1400 2.438 . S
O1430 C1419 1.267 . S
O1431 Pr1401 2.437 . S
O1431 C1419 1.278 . S
H1432 C1404 0.929 . S
H1433 C1405 0.929 . S
H1434 C1407 0.931 . S
H1435 C1408 0.930 . S
H1436 C1413 0.929 . S
H1437 C1414 0.929 . S
H1438 C1416 0.931 1_545 S
H1439 C1417 0.930 . S
C1440 C1441 1.349 . S
C1440 C1442 1.327 . S
C1440 H1465 0.950 . S
C1441 C1440 1.349 . S
C1441 C1457 1.349 . S
C1442 C1440 1.327 . S
C1442 C1461 1.429 . S
C1442 H1466 0.950 . S
C1443 C1460 1.574 . S
C1443 C1462 1.368 . S
C1443 H1467 0.949 . S
H1444 C1448 0.949 . S
C1445 C1446 1.349 . S
C1445 C1447 1.327 . S
C1445 H1468 0.950 . S
C1446 C1445 1.349 . S
C1446 C1458 1.349 . S
C1447 C1445 1.327 . S
C1447 C1463 1.429 1_565 S
C1447 H1469 0.950 1_565 S
C1448 H1444 0.949 . S
C1448 C1456 1.574 . S
C1448 C1464 1.368 . S
H1449 C1457 0.950 . S
H1450 C1455 0.950 . S
H1451 C1456 0.949 . S
H1452 C1458 0.950 . S
H1453 C1459 0.950 . S
H1454 C1460 0.949 . S
C1455 H1450 0.950 . S
C1455 C1457 1.327 . S
C1455 C1461 1.429 . S
C1456 C1448 1.574 . S
C1456 H1451 0.949 . S
C1456 C1462 1.368 . S
C1457 C1441 1.349 . S
C1457 H1449 0.950 . S
C1457 C1455 1.327 . S
C1458 C1446 1.349 . S
C1458 H1452 0.950 . S
C1458 C1459 1.327 . S
C1459 H1453 0.950 . S
C1459 C1458 1.327 . S
C1459 C1463 1.429 1_565 S
C1460 C1443 1.574 . S
C1460 H1454 0.949 . S
C1460 C1464 1.368 . S
C1461 C1442 1.429 . S
C1461 C1455 1.429 . S
C1461 C1462 1.523 . S
C1462 C1443 1.368 . S
C1462 C1456 1.368 . S
C1462 C1461 1.523 . S
C1463 C1447 1.429 1_545 S
C1463 C1459 1.429 1_545 S
C1463 C1464 1.523 . S
C1464 C1448 1.368 . S
C1464 C1460 1.368 . S
C1464 C1463 1.523 . S
H1465 C1440 0.950 . S
H1466 C1442 0.950 . S
H1467 C1443 0.949 . S
H1468 C1445 0.950 . S
H1469 C1447 0.950 1_545 S
C1470 C1471 1.349 . S
C1470 C1472 1.349 . S
C1470 H1495 0.950 . S
C1471 C1470 1.349 . S
C1471 C1487 1.349 . S
C1472 C1470 1.349 . S
C1472 C1491 1.431 1_455 S
C1472 H1496 0.925 1_455 S
C1473 C1490 1.574 . S
C1473 C1492 1.368 . S
C1473 H1497 0.949 . S
H1474 C1478 0.949 . S
C1475 C1476 1.349 . S
C1475 C1477 1.327 1_565 S
C1475 H1498 0.950 . S
C1476 C1475 1.349 . S
C1476 C1488 1.349 . S
C1477 C1475 1.327 1_545 S
C1477 C1493 1.429 . S
C1477 H1499 0.950 . S
C1478 H1474 0.949 . S
C1478 C1486 1.574 . S
C1478 C1494 1.368 . S
H1479 C1487 0.950 . S
H1480 C1485 0.950 . S
H1481 C1486 0.949 . S
H1482 C1488 0.950 . S
H1483 C1489 0.950 . S
H1484 C1490 0.949 . S
C1485 H1480 0.950 . S
C1485 C1487 1.327 . S
C1485 C1491 1.429 1_455 S
C1486 C1478 1.574 . S
C1486 H1481 0.949 . S
C1486 C1492 1.368 . S
C1487 C1471 1.349 . S
C1487 H1479 0.950 . S
C1487 C1485 1.327 . S
C1488 C1476 1.349 . S
C1488 H1482 0.950 . S
C1488 C1489 1.327 1_565 S
C1489 H1483 0.950 . S
C1489 C1488 1.327 1_545 S
C1489 C1493 1.429 . S
C1490 C1473 1.574 . S
C1490 H1484 0.949 . S
C1490 C1494 1.368 . S
C1491 C1472 1.431 1_655 S
C1491 C1485 1.429 1_655 S
C1491 C1492 1.523 . S
C1492 C1473 1.368 . S
C1492 C1486 1.368 . S
C1492 C1491 1.523 . S
C1493 C1477 1.429 . S
C1493 C1489 1.429 . S
C1493 C1494 1.523 . S
C1494 C1478 1.368 . S
C1494 C1490 1.368 . S
C1494 C1493 1.523 . S
H1495 C1470 0.950 . S
H1496 C1472 0.925 1_655 S
H1497 C1473 0.949 . S
H1498 C1475 0.950 . S
H1499 C1477 0.950 . S
C1500 C1501 1.349 . S
C1500 C1502 1.327 1_455 S
C1500 H1525 0.950 . S
C1501 C1500 1.349 . S
C1501 C1517 1.349 . S
C1502 C1500 1.327 1_655 S
C1502 C1521 1.429 . S
C1502 H1526 0.950 . S
C1503 C1520 1.574 . S
C1503 C1522 1.368 . S
C1503 H1527 0.949 . S
H1504 C1508 0.949 . S
C1505 C1506 1.349 . S
C1505 C1507 1.327 . S
C1505 H1528 0.950 . S
C1506 C1505 1.349 . S
C1506 C1518 1.349 . S
C1507 C1505 1.327 . S
C1507 C1523 1.429 . S
C1507 H1529 0.950 . S
C1508 H1504 0.949 . S
C1508 C1516 1.574 . S
C1508 C1524 1.368 . S
H1509 C1517 0.950 . S
H1510 C1515 0.950 . S
H1511 C1516 0.949 . S
H1512 C1518 0.950 . S
H1513 C1519 0.950 . S
H1514 C1520 0.949 . S
C1515 H1510 0.950 . S
C1515 C1517 1.327 1_655 S
C1515 C1521 1.429 . S
C1516 C1508 1.574 . S
C1516 H1511 0.949 . S
C1516 C1522 1.368 . S
C1517 C1501 1.349 . S
C1517 H1509 0.950 . S
C1517 C1515 1.327 1_455 S
C1518 C1506 1.349 . S
C1518 H1512 0.950 . S
C1518 C1519 1.327 . S
C1519 H1513 0.950 . S
C1519 C1518 1.327 . S
C1519 C1523 1.429 . S
C1520 C1503 1.574 . S
C1520 H1514 0.949 . S
C1520 C1524 1.368 . S
C1521 C1502 1.429 . S
C1521 C1515 1.429 . S
C1521 C1522 1.523 . S
C1522 C1503 1.368 . S
C1522 C1516 1.368 . S
C1522 C1521 1.523 . S
C1523 C1507 1.429 . S
C1523 C1519 1.429 . S
C1523 C1524 1.523 . S
C1524 C1508 1.368 . S
C1524 C1520 1.368 . S
C1524 C1523 1.523 . S
H1525 C1500 0.950 . S
H1526 C1502 0.950 . S
H1527 C1503 0.949 . S
H1528 C1505 0.950 . S
H1529 C1507 0.950 . S
C1530 C1531 1.349 . S
C1530 C1532 1.327 . S
C1530 H1555 0.950 . S
C1531 C1530 1.349 . S
C1531 C1547 1.349 . S
C1532 C1530 1.327 . S
C1532 C1551 1.429 . S
C1532 H1556 0.950 . S
C1533 C1550 1.574 . S
C1533 C1552 1.368 . S
C1533 H1557 0.949 . S
H1534 C1538 0.949 . S
C1535 C1536 1.349 . S
C1535 C1537 1.327 . S
C1535 H1558 0.950 . S
C1536 C1535 1.349 . S
C1536 C1548 1.349 . S
C1537 C1535 1.327 . S
C1537 C1553 1.429 1_655 S
C1537 H1559 0.950 . S
C1538 H1534 0.949 . S
C1538 C1546 1.574 . S
C1538 C1554 1.368 . S
H1539 C1547 0.950 . S
H1540 C1545 0.950 . S
H1541 C1546 0.949 . S
H1542 C1548 0.950 . S
H1543 C1549 0.950 1_455 S
H1544 C1550 0.949 . S
C1545 H1540 0.950 . S
C1545 C1547 1.327 . S
C1545 C1551 1.429 . S
C1546 C1538 1.574 . S
C1546 H1541 0.949 . S
C1546 C1552 1.368 . S
C1547 C1531 1.349 . S
C1547 H1539 0.950 . S
C1547 C1545 1.327 . S
C1548 C1536 1.349 . S
C1548 H1542 0.950 . S
C1548 C1549 1.327 . S
C1549 H1543 0.950 1_655 S
C1549 C1548 1.327 . S
C1549 C1553 1.429 1_655 S
C1550 C1533 1.574 . S
C1550 H1544 0.949 . S
C1550 C1554 1.368 . S
C1551 C1532 1.429 . S
C1551 C1545 1.429 . S
C1551 C1552 1.523 . S
C1552 C1533 1.368 . S
C1552 C1546 1.368 . S
C1552 C1551 1.523 . S
C1553 C1537 1.429 1_455 S
C1553 C1549 1.429 1_455 S
C1553 C1554 1.523 . S
C1554 C1538 1.368 . S
C1554 C1550 1.368 . S
C1554 C1553 1.523 . S
H1555 C1530 0.950 . S
H1556 C1532 0.950 . S
H1557 C1533 0.949 . S
H1558 C1535 0.950 . S
H1559 C1537 0.950 . S
C1560 C1561 1.349 . S
C1560 C1562 1.327 . S
C1560 H1585 0.950 . S
C1561 C1560 1.349 . S
C1561 C1577 1.349 . S
C1562 C1560 1.327 . S
C1562 C1581 1.429 . S
C1562 H1586 0.950 . S
C1563 C1580 1.574 . S
C1563 C1582 1.368 . S
C1563 H1587 0.949 . S
H1564 C1568 0.949 . S
C1565 C1566 1.349 . S
C1565 C1567 1.327 1_545 S
C1565 H1588 0.950 . S
C1566 C1565 1.349 . S
C1566 C1578 1.349 . S
C1567 C1565 1.327 1_565 S
C1567 C1583 1.429 . S
C1567 H1589 0.950 . S
C1568 H1564 0.949 . S
C1568 C1576 1.574 . S
C1568 C1584 1.368 . S
H1569 C1577 0.950 . S
H1570 C1575 0.950 . S
H1571 C1576 0.949 . S
H1572 C1578 0.950 . S
H1573 C1579 0.950 . S
H1574 C1580 0.949 . S
C1575 H1570 0.950 . S
C1575 C1577 1.327 . S
C1575 C1581 1.429 . S
C1576 C1568 1.574 . S
C1576 H1571 0.949 . S
C1576 C1582 1.368 . S
C1577 C1561 1.349 . S
C1577 H1569 0.950 . S
C1577 C1575 1.327 . S
C1578 C1566 1.349 . S
C1578 H1572 0.950 . S
C1578 C1579 1.327 1_545 S
C1579 H1573 0.950 . S
C1579 C1578 1.327 1_565 S
C1579 C1583 1.429 . S
C1580 C1563 1.574 . S
C1580 H1574 0.949 . S
C1580 C1584 1.368 . S
C1581 C1562 1.429 . S
C1581 C1575 1.429 . S
C1581 C1582 1.523 . S
C1582 C1563 1.368 . S
C1582 C1576 1.368 . S
C1582 C1581 1.523 . S
C1583 C1567 1.429 . S
C1583 C1579 1.429 . S
C1583 C1584 1.523 . S
C1584 C1568 1.368 . S
C1584 C1580 1.368 . S
C1584 C1583 1.523 . S
H1585 C1560 0.950 . S
H1586 C1562 0.950 . S
H1587 C1563 0.949 . S
H1588 C1565 0.950 . S
H1589 C1567 0.950 . S
C1590 C1591 1.349 . S
C1590 C1592 1.327 1_655 S
C1590 H1615 0.950 . S
C1591 C1590 1.349 . S
C1591 C1607 1.349 . S
C1592 C1590 1.327 1_455 S
C1592 C1611 1.429 . S
C1592 H1616 0.950 . S
C1593 C1610 1.574 . S
C1593 C1612 1.368 . S
C1593 H1617 0.949 . S
H1594 C1598 0.949 . S
C1595 C1596 1.349 . S
C1595 C1597 1.327 . S
C1595 H1618 0.950 . S
C1596 C1595 1.349 . S
C1596 C1608 1.349 . S
C1597 C1595 1.327 . S
C1597 C1613 1.429 1_545 S
C1597 H1619 0.950 . S
C1598 H1594 0.949 . S
C1598 C1606 1.574 . S
C1598 C1614 1.368 . S
H1599 C1607 0.950 . S
H1600 C1605 0.950 . S
H1601 C1606 0.949 . S
H1602 C1608 0.950 . S
H1603 C1609 0.950 1_565 S
H1604 C1610 0.949 . S
C1605 H1600 0.950 . S
C1605 C1607 1.327 1_455 S
C1605 C1611 1.429 . S
C1606 C1598 1.574 . S
C1606 H1601 0.949 . S
C1606 C1612 1.368 . S
C1607 C1591 1.349 . S
C1607 H1599 0.950 . S
C1607 C1605 1.327 1_655 S
C1608 C1596 1.349 . S
C1608 H1602 0.950 . S
C1608 C1609 1.327 . S
C1609 H1603 0.950 1_545 S
C1609 C1608 1.327 . S
C1609 C1613 1.429 1_545 S
C1610 C1593 1.574 . S
C1610 H1604 0.949 . S
C1610 C1614 1.368 . S
C1611 C1592 1.429 . S
C1611 C1605 1.429 . S
C1611 C1612 1.523 . S
C1612 C1593 1.368 . S
C1612 C1606 1.368 . S
C1612 C1611 1.523 . S
C1613 C1597 1.429 1_565 S
C1613 C1609 1.429 1_565 S
C1613 C1614 1.523 . S
C1614 C1598 1.368 . S
C1614 C1610 1.368 . S
C1614 C1613 1.523 . S
H1615 C1590 0.950 . S
H1616 C1592 0.950 . S
H1617 C1593 0.949 . S
H1618 C1595 0.950 . S
H1619 C1597 0.950 . S
C1620 C1621 1.349 . S
C1620 C1622 1.327 . S
C1620 H1645 0.950 . S
C1621 C1620 1.349 . S
C1621 C1637 1.349 . S
C1622 C1620 1.327 . S
C1622 C1641 1.429 . S
C1622 H1646 0.950 . S
C1623 C1640 1.574 . S
C1623 C1642 1.368 . S
C1623 H1647 0.949 . S
H1624 C1628 0.949 . S
C1625 C1626 1.349 . S
C1625 C1627 1.299 1_545 S
C1625 H1648 0.950 . S
C1626 C1625 1.349 . S
C1626 C1638 1.349 . S
C1627 C1625 1.299 1_565 S
C1627 C1643 1.445 . S
C1627 H1649 0.962 . S
C1628 H1624 0.949 . S
C1628 C1636 1.574 . S
C1628 C1644 1.368 . S
H1629 C1637 0.950 . S
H1630 C1635 0.950 . S
H1631 C1636 0.949 . S
H1632 C1638 0.950 . S
H1633 C1639 0.950 . S
H1634 C1640 0.949 . S
C1635 H1630 0.950 . S
C1635 C1637 1.327 . S
C1635 C1641 1.429 . S
C1636 C1628 1.574 . S
C1636 H1631 0.949 . S
C1636 C1642 1.368 . S
C1637 C1621 1.349 . S
C1637 H1629 0.950 . S
C1637 C1635 1.327 . S
C1638 C1626 1.349 . S
C1638 H1632 0.950 . S
C1638 C1639 1.327 . S
C1639 H1633 0.950 . S
C1639 C1638 1.327 . S
C1639 C1643 1.429 1_545 S
C1640 C1623 1.574 . S
C1640 H1634 0.949 . S
C1640 C1644 1.368 . S
C1641 C1622 1.429 . S
C1641 C1635 1.429 . S
C1641 C1642 1.523 . S
C1642 C1623 1.368 . S
C1642 C1636 1.368 . S
C1642 C1641 1.523 . S
C1643 C1627 1.445 . S
C1643 C1639 1.429 1_565 S
C1643 C1644 1.523 . S
C1644 C1628 1.368 . S
C1644 C1640 1.368 . S
C1644 C1643 1.523 . S
H1645 C1620 0.950 . S
H1646 C1622 0.950 . S
H1647 C1623 0.949 . S
H1648 C1625 0.950 . S
H1649 C1627 0.962 . S
C1650 C1651 1.349 . S
C1650 C1652 1.327 1_545 S
C1650 H1675 0.950 . S
C1651 C1650 1.349 . S
C1651 C1667 1.349 . S
C1652 C1650 1.327 1_565 S
C1652 C1671 1.429 . S
C1652 H1676 0.950 . S
C1653 C1670 1.574 . S
C1653 C1672 1.368 . S
C1653 H1677 0.949 . S
H1654 C1658 0.949 . S
C1655 C1656 1.349 . S
C1655 C1657 1.335 . S
C1655 H1678 0.950 . S
C1656 C1655 1.349 . S
C1656 C1668 1.349 . S
C1657 C1655 1.335 . S
C1657 C1673 1.430 1_655 S
C1657 H1679 0.940 1_655 S
C1658 H1654 0.949 . S
C1658 C1666 1.574 . S
C1658 C1674 1.368 . S
H1659 C1667 0.950 . S
H1660 C1665 0.950 . S
H1661 C1666 0.949 . S
H1662 C1668 0.950 . S
H1663 C1669 0.950 . S
H1664 C1670 0.949 . S
C1665 H1660 0.950 . S
C1665 C1667 1.327 1_565 S
C1665 C1671 1.429 . S
C1666 C1658 1.574 . S
C1666 H1661 0.949 . S
C1666 C1672 1.368 . S
C1667 C1651 1.349 . S
C1667 H1659 0.950 . S
C1667 C1665 1.327 1_545 S
C1668 C1656 1.349 . S
C1668 H1662 0.950 . S
C1668 C1669 1.327 . S
C1669 H1663 0.950 . S
C1669 C1668 1.327 . S
C1669 C1673 1.429 1_655 S
C1670 C1653 1.574 . S
C1670 H1664 0.949 . S
C1670 C1674 1.368 . S
C1671 C1652 1.429 . S
C1671 C1665 1.429 . S
C1671 C1672 1.523 . S
C1672 C1653 1.368 . S
C1672 C1666 1.368 . S
C1672 C1671 1.523 . S
C1673 C1657 1.430 1_455 S
C1673 C1669 1.429 1_455 S
C1673 C1674 1.523 . S
C1674 C1658 1.368 . S
C1674 C1670 1.368 . S
C1674 C1673 1.523 . S
H1675 C1650 0.950 . S
H1676 C1652 0.950 . S
H1677 C1653 0.949 . S
H1678 C1655 0.950 . S
H1679 C1657 0.940 1_455 S
C1680 C1681 1.349 . S
C1680 C1682 1.327 . S
C1680 H1705 0.950 . S
C1681 C1680 1.349 . S
C1681 C1697 1.349 1_655 S
C1682 C1680 1.327 . S
C1682 C1701 1.429 1_655 S
C1682 H1706 0.950 . S
C1683 C1700 1.574 . S
C1683 C1702 1.368 . S
C1683 H1707 0.949 . S
H1684 C1688 0.949 . S
C1685 C1686 1.349 . S
C1685 C1687 1.327 . S
C1685 H1708 0.950 . S
C1686 C1685 1.349 . S
C1686 C1698 1.349 . S
C1687 C1685 1.327 . S
C1687 C1703 1.429 . S
C1687 H1709 0.950 . S
C1688 H1684 0.949 . S
C1688 C1696 1.574 . S
C1688 C1704 1.368 . S
H1689 C1697 0.950 . S
H1690 C1695 0.950 . S
H1691 C1696 0.949 . S
H1692 C1698 0.950 . S
H1693 C1699 0.950 . S
H1694 C1700 0.949 . S
C1695 H1690 0.950 . S
C1695 C1697 1.327 . S
C1695 C1701 1.429 . S
C1696 C1688 1.574 . S
C1696 H1691 0.949 . S
C1696 C1702 1.368 . S
C1697 C1681 1.349 1_455 S
C1697 H1689 0.950 . S
C1697 C1695 1.327 . S
C1698 C1686 1.349 . S
C1698 H1692 0.950 . S
C1698 C1699 1.327 . S
C1699 H1693 0.950 . S
C1699 C1698 1.327 . S
C1699 C1703 1.429 . S
C1700 C1683 1.574 . S
C1700 H1694 0.949 . S
C1700 C1704 1.368 . S
C1701 C1682 1.429 1_455 S
C1701 C1695 1.429 . S
C1701 C1702 1.523 . S
C1702 C1683 1.368 . S
C1702 C1696 1.368 . S
C1702 C1701 1.523 . S
C1703 C1687 1.429 . S
C1703 C1699 1.429 . S
C1703 C1704 1.523 . S
C1704 C1688 1.368 . S
C1704 C1700 1.368 . S
C1704 C1703 1.523 . S
H1705 C1680 0.950 . S
H1706 C1682 0.950 . S
H1707 C1683 0.949 . S
H1708 C1685 0.950 . S
H1709 C1687 0.950 . S
C1710 C1711 1.349 . S
C1710 C1712 1.327 . S
C1710 H1735 0.950 . S
C1711 C1710 1.349 . S
C1711 C1727 1.349 . S
C1712 C1710 1.327 . S
C1712 C1731 1.429 . S
C1712 H1736 0.950 . S
C1713 C1730 1.574 . S
C1713 C1732 1.368 . S
C1713 H1737 0.949 . S
H1714 C1718 0.949 . S
C1715 C1716 1.349 . S
C1715 C1717 1.358 . S
C1715 H1738 0.950 . S
C1716 C1715 1.349 . S
C1716 C1728 1.349 . S
C1717 C1715 1.358 . S
C1717 C1733 1.410 1_455 S
C1717 H1739 0.938 1_455 S
C1718 H1714 0.949 . S
C1718 C1726 1.574 . S
C1718 C1734 1.368 . S
H1719 C1727 0.950 . S
H1720 C1725 0.950 . S
H1721 C1726 0.949 . S
H1722 C1728 0.950 . S
H1723 C1729 0.950 . S
H1724 C1730 0.949 . S
C1725 H1720 0.950 . S
C1725 C1727 1.327 . S
C1725 C1731 1.429 . S
C1726 C1718 1.574 . S
C1726 H1721 0.949 . S
C1726 C1732 1.368 . S
C1727 C1711 1.349 . S
C1727 H1719 0.950 . S
C1727 C1725 1.327 . S
C1728 C1716 1.349 . S
C1728 H1722 0.950 . S
C1728 C1729 1.327 . S
C1729 H1723 0.950 . S
C1729 C1728 1.327 . S
C1729 C1733 1.429 1_455 S
C1730 C1713 1.574 . S
C1730 H1724 0.949 . S
C1730 C1734 1.368 . S
C1731 C1712 1.429 . S
C1731 C1725 1.429 . S
C1731 C1732 1.523 . S
C1732 C1713 1.368 . S
C1732 C1726 1.368 . S
C1732 C1731 1.523 . S
C1733 C1717 1.410 1_655 S
C1733 C1729 1.429 1_655 S
C1733 C1734 1.523 . S
C1734 C1718 1.368 . S
C1734 C1730 1.368 . S
C1734 C1733 1.523 . S
H1735 C1710 0.950 . S
H1736 C1712 0.950 . S
H1737 C1713 0.949 . S
H1738 C1715 0.950 . S
H1739 C1717 0.938 1_655 S
C1740 C1741 1.349 . S
C1740 C1742 1.327 . S
C1740 H1765 0.950 . S
C1741 C1740 1.349 . S
C1741 C1757 1.349 . S
C1742 C1740 1.327 . S
C1742 C1761 1.429 . S
C1742 H1766 0.950 . S
C1743 C1760 1.574 . S
C1743 C1762 1.368 . S
C1743 H1767 0.949 . S
H1744 C1748 0.949 . S
C1745 C1746 1.349 . S
C1745 C1747 1.327 1_565 S
C1745 H1768 0.950 . S
C1746 C1745 1.349 . S
C1746 C1758 1.347 1_565 S
C1747 C1745 1.327 1_545 S
C1747 C1763 1.429 . S
C1747 H1769 0.950 . S
C1748 H1744 0.949 . S
C1748 C1756 1.574 . S
C1748 C1764 1.368 . S
H1749 C1757 0.950 . S
H1750 C1755 0.950 . S
H1751 C1756 0.949 . S
H1752 C1758 0.949 1_565 S
H1753 C1759 0.950 . S
H1754 C1760 0.949 . S
C1755 H1750 0.950 . S
C1755 C1757 1.327 . S
C1755 C1761 1.429 . S
C1756 C1748 1.574 . S
C1756 H1751 0.949 . S
C1756 C1762 1.368 . S
C1757 C1741 1.349 . S
C1757 H1749 0.950 . S
C1757 C1755 1.327 . S
C1758 C1746 1.347 1_545 S
C1758 H1752 0.949 1_545 S
C1758 C1759 1.330 . S
C1759 H1753 0.950 . S
C1759 C1758 1.330 . S
C1759 C1763 1.429 . S
C1760 C1743 1.574 . S
C1760 H1754 0.949 . S
C1760 C1764 1.368 . S
C1761 C1742 1.429 . S
C1761 C1755 1.429 . S
C1761 C1762 1.523 . S
C1762 C1743 1.368 . S
C1762 C1756 1.368 . S
C1762 C1761 1.523 . S
C1763 C1747 1.429 . S
C1763 C1759 1.429 . S
C1763 C1764 1.523 . S
C1764 C1748 1.368 . S
C1764 C1760 1.368 . S
C1764 C1763 1.523 . S
H1765 C1740 0.950 . S
H1766 C1742 0.950 . S
H1767 C1743 0.949 . S
H1768 C1745 0.950 . S
H1769 C1747 0.950 . S
C1770 C1771 1.349 . S
C1770 C1772 1.327 . S
C1770 H1795 0.950 . S
C1771 C1770 1.349 . S
C1771 C1787 1.349 . S
C1772 C1770 1.327 . S
C1772 C1791 1.429 1_565 S
C1772 H1796 0.950 1_565 S
C1773 C1790 1.574 . S
C1773 C1792 1.368 . S
C1773 H1797 0.949 . S
H1774 C1778 0.949 . S
C1775 C1776 1.349 . S
C1775 C1777 1.327 1_455 S
C1775 H1798 0.950 . S
C1776 C1775 1.349 . S
C1776 C1788 1.366 . S
C1777 C1775 1.327 1_655 S
C1777 C1793 1.429 . S
C1777 H1799 0.950 . S
C1778 H1774 0.949 . S
C1778 C1786 1.574 . S
C1778 C1794 1.368 . S
H1779 C1787 0.950 . S
H1780 C1785 0.950 . S
H1781 C1786 0.949 . S
H1782 C1788 0.944 . S
H1783 C1789 0.950 . S
H1784 C1790 0.949 . S
C1785 H1780 0.950 . S
C1785 C1787 1.327 . S
C1785 C1791 1.429 1_565 S
C1786 C1778 1.574 . S
C1786 H1781 0.949 . S
C1786 C1792 1.368 . S
C1787 C1771 1.349 . S
C1787 H1779 0.950 . S
C1787 C1785 1.327 . S
C1788 C1776 1.366 . S
C1788 H1782 0.944 . S
C1788 C1789 1.317 1_455 S
C1789 H1783 0.950 . S
C1789 C1788 1.317 1_655 S
C1789 C1793 1.429 . S
C1790 C1773 1.574 . S
C1790 H1784 0.949 . S
C1790 C1794 1.368 . S
C1791 C1772 1.429 1_545 S
C1791 C1785 1.429 1_545 S
C1791 C1792 1.523 . S
C1792 C1773 1.368 . S
C1792 C1786 1.368 . S
C1792 C1791 1.523 . S
C1793 C1777 1.429 . S
C1793 C1789 1.429 . S
C1793 C1794 1.523 . S
C1794 C1778 1.368 . S
C1794 C1790 1.368 . S
C1794 C1793 1.523 . S
H1795 C1770 0.950 . S
H1796 C1772 0.950 1_545 S
H1797 C1773 0.949 . S
H1798 C1775 0.950 . S
H1799 C1777 0.950 . S
C1800 C1801 1.349 . S
C1800 C1802 1.327 . S
C1800 H1825 0.950 . S
C1801 C1800 1.349 . S
C1801 C1817 1.349 . S
C1802 C1800 1.327 . S
C1802 C1821 1.429 . S
C1802 H1826 0.950 . S
C1803 C1820 1.574 . S
C1803 C1822 1.368 . S
C1803 H1827 0.949 . S
H1804 C1808 0.949 . S
C1805 C1806 1.349 . S
C1805 C1807 1.327 . S
C1805 H1828 0.950 . S
C1806 C1805 1.349 . S
C1806 C1818 1.349 . S
C1807 C1805 1.327 . S
C1807 C1823 1.429 . S
C1807 H1829 0.950 . S
C1808 H1804 0.949 . S
C1808 C1816 1.574 . S
C1808 C1824 1.368 . S
H1809 C1817 0.950 . S
H1810 C1815 0.950 . S
H1811 C1816 0.949 . S
H1812 C1818 0.950 . S
H1813 C1819 0.950 . S
H1814 C1820 0.949 . S
C1815 H1810 0.950 . S
C1815 C1817 1.327 . S
C1815 C1821 1.429 . S
C1816 C1808 1.574 . S
C1816 H1811 0.949 . S
C1816 C1822 1.368 . S
C1817 C1801 1.349 . S
C1817 H1809 0.950 . S
C1817 C1815 1.327 . S
C1818 C1806 1.349 . S
C1818 H1812 0.950 . S
C1818 C1819 1.327 . S
C1819 H1813 0.950 . S
C1819 C1818 1.327 . S
C1819 C1823 1.429 . S
C1820 C1803 1.574 . S
C1820 H1814 0.949 . S
C1820 C1824 1.368 . S
C1821 C1802 1.429 . S
C1821 C1815 1.429 . S
C1821 C1822 1.523 . S
C1822 C1803 1.368 . S
C1822 C1816 1.368 . S
C1822 C1821 1.523 . S
C1823 C1807 1.429 . S
C1823 C1819 1.429 . S
C1823 C1824 1.523 . S
C1824 C1808 1.368 . S
C1824 C1820 1.368 . S
C1824 C1823 1.523 . S
H1825 C1800 0.950 . S
H1826 C1802 0.950 . S
H1827 C1803 0.949 . S
H1828 C1805 0.950 . S
H1829 C1807 0.950 . S
C1830 C1831 1.349 . S
C1830 C1832 1.327 . S
C1830 H1855 0.950 . S
C1831 C1830 1.349 . S
C1831 C1847 1.349 . S
C1832 C1830 1.327 . S
C1832 C1851 1.429 . S
C1832 H1856 0.950 . S
C1833 C1850 1.574 . S
C1833 C1852 1.368 . S
C1833 H1857 0.949 . S
H1834 C1838 0.949 . S
C1835 C1836 1.349 . S
C1835 C1837 1.327 . S
C1835 H1858 0.950 . S
C1836 C1835 1.349 . S
C1836 C1848 1.349 . S
C1837 C1835 1.327 . S
C1837 C1853 1.429 . S
C1837 H1859 0.950 . S
C1838 H1834 0.949 . S
C1838 C1846 1.574 . S
C1838 C1854 1.368 . S
H1839 C1847 0.950 . S
H1840 C1845 0.950 . S
H1841 C1846 0.949 . S
H1842 C1848 0.950 . S
H1843 C1849 0.950 . S
H1844 C1850 0.949 . S
C1845 H1840 0.950 . S
C1845 C1847 1.327 . S
C1845 C1851 1.429 . S
C1846 C1838 1.574 . S
C1846 H1841 0.949 . S
C1846 C1852 1.368 . S
C1847 C1831 1.349 . S
C1847 H1839 0.950 . S
C1847 C1845 1.327 . S
C1848 C1836 1.349 . S
C1848 H1842 0.950 . S
C1848 C1849 1.327 . S
C1849 H1843 0.950 . S
C1849 C1848 1.327 . S
C1849 C1853 1.429 . S
C1850 C1833 1.574 . S
C1850 H1844 0.949 . S
C1850 C1854 1.368 . S
C1851 C1832 1.429 . S
C1851 C1845 1.429 . S
C1851 C1852 1.523 . S
C1852 C1833 1.368 . S
C1852 C1846 1.368 . S
C1852 C1851 1.523 . S
C1853 C1837 1.429 . S
C1853 C1849 1.429 . S
C1853 C1854 1.523 . S
C1854 C1838 1.368 . S
C1854 C1850 1.368 . S
C1854 C1853 1.523 . S
H1855 C1830 0.950 . S
H1856 C1832 0.950 . S
H1857 C1833 0.949 . S
H1858 C1835 0.950 . S
H1859 C1837 0.950 . S
C1860 C1861 1.349 . S
C1860 C1862 1.327 . S
C1860 H1885 0.950 . S
C1861 C1860 1.349 . S
C1861 C1877 1.349 . S
C1862 C1860 1.327 . S
C1862 C1881 1.429 . S
C1862 H1886 0.950 . S
C1863 C1880 1.574 . S
C1863 C1882 1.368 . S
C1863 H1887 0.949 . S
H1864 C1868 0.949 . S
C1865 C1866 1.349 . S
C1865 C1867 1.327 . S
C1865 H1888 0.950 . S
C1866 C1865 1.349 . S
C1866 C1878 1.349 . S
C1867 C1865 1.327 . S
C1867 C1883 1.429 . S
C1867 H1889 0.950 . S
C1868 H1864 0.949 . S
C1868 C1876 1.574 . S
C1868 C1884 1.368 . S
H1869 C1877 0.950 . S
H1870 C1875 0.950 . S
H1871 C1876 0.949 . S
H1872 C1878 0.950 . S
H1873 C1879 0.950 . S
H1874 C1880 0.949 . S
C1875 H1870 0.950 . S
C1875 C1877 1.327 . S
C1875 C1881 1.429 . S
C1876 C1868 1.574 . S
C1876 H1871 0.949 . S
C1876 C1882 1.368 . S
C1877 C1861 1.349 . S
C1877 H1869 0.950 . S
C1877 C1875 1.327 . S
C1878 C1866 1.349 . S
C1878 H1872 0.950 . S
C1878 C1879 1.327 . S
C1879 H1873 0.950 . S
C1879 C1878 1.327 . S
C1879 C1883 1.429 . S
C1880 C1863 1.574 . S
C1880 H1874 0.949 . S
C1880 C1884 1.368 . S
C1881 C1862 1.429 . S
C1881 C1875 1.429 . S
C1881 C1882 1.523 . S
C1882 C1863 1.368 . S
C1882 C1876 1.368 . S
C1882 C1881 1.523 . S
C1883 C1867 1.429 . S
C1883 C1879 1.429 . S
C1883 C1884 1.523 . S
C1884 C1868 1.368 . S
C1884 C1880 1.368 . S
C1884 C1883 1.523 . S
H1885 C1860 0.950 . S
H1886 C1862 0.950 . S
H1887 C1863 0.949 . S
H1888 C1865 0.950 . S
H1889 C1867 0.950 . S
C1890 C1891 1.349 . S
C1890 C1892 1.327 . S
C1890 H1915 0.950 . S
C1891 C1890 1.349 . S
C1891 C1907 1.349 . S
C1892 C1890 1.327 . S
C1892 C1911 1.429 . S
C1892 H1916 0.950 . S
C1893 C1910 1.574 . S
C1893 C1912 1.368 . S
C1893 H1917 0.949 . S
H1894 C1898 0.949 . S
C1895 C1896 1.349 . S
C1895 C1897 1.327 . S
C1895 H1918 0.950 . S
C1896 C1895 1.349 . S
C1896 C1908 1.349 . S
C1897 C1895 1.327 . S
C1897 C1913 1.429 . S
C1897 H1919 0.950 . S
C1898 H1894 0.949 . S
C1898 C1906 1.574 . S
C1898 C1914 1.368 . S
H1899 C1907 0.950 . S
H1900 C1905 0.950 . S
H1901 C1906 0.949 . S
H1902 C1908 0.950 . S
H1903 C1909 0.950 . S
H1904 C1910 0.949 . S
C1905 H1900 0.950 . S
C1905 C1907 1.327 . S
C1905 C1911 1.429 . S
C1906 C1898 1.574 . S
C1906 H1901 0.949 . S
C1906 C1912 1.368 . S
C1907 C1891 1.349 . S
C1907 H1899 0.950 . S
C1907 C1905 1.327 . S
C1908 C1896 1.349 . S
C1908 H1902 0.950 . S
C1908 C1909 1.327 . S
C1909 H1903 0.950 . S
C1909 C1908 1.327 . S
C1909 C1913 1.429 . S
C1910 C1893 1.574 . S
C1910 H1904 0.949 . S
C1910 C1914 1.368 . S
C1911 C1892 1.429 . S
C1911 C1905 1.429 . S
C1911 C1912 1.523 . S
C1912 C1893 1.368 . S
C1912 C1906 1.368 . S
C1912 C1911 1.523 . S
C1913 C1897 1.429 . S
C1913 C1909 1.429 . S
C1913 C1914 1.523 . S
C1914 C1898 1.368 . S
C1914 C1910 1.368 . S
C1914 C1913 1.523 . S
H1915 C1890 0.950 . S
H1916 C1892 0.950 . S
H1917 C1893 0.949 . S
H1918 C1895 0.950 . S
H1919 C1897 0.950 . S
C1920 C1921 1.349 . S
C1920 C1922 1.327 . S
C1920 H1945 0.950 . S
C1921 C1920 1.349 . S
C1921 C1937 1.349 . S
C1922 C1920 1.327 . S
C1922 C1941 1.429 . S
C1922 H1946 0.950 . S
C1923 C1940 1.574 . S
C1923 C1942 1.368 . S
C1923 H1947 0.949 . S
H1924 C1928 0.949 . S
C1925 C1926 1.349 . S
C1925 C1927 1.327 . S
C1925 H1948 0.950 . S
C1926 C1925 1.349 . S
C1926 C1938 1.349 . S
C1927 C1925 1.327 . S
C1927 C1943 1.429 . S
C1927 H1949 0.950 . S
C1928 H1924 0.949 . S
C1928 C1936 1.574 . S
C1928 C1944 1.368 . S
H1929 C1937 0.950 . S
H1930 C1935 0.950 . S
H1931 C1936 0.949 . S
H1932 C1938 0.950 . S
H1933 C1939 0.950 . S
H1934 C1940 0.949 . S
C1935 H1930 0.950 . S
C1935 C1937 1.327 . S
C1935 C1941 1.429 . S
C1936 C1928 1.574 . S
C1936 H1931 0.949 . S
C1936 C1942 1.368 . S
C1937 C1921 1.349 . S
C1937 H1929 0.950 . S
C1937 C1935 1.327 . S
C1938 C1926 1.349 . S
C1938 H1932 0.950 . S
C1938 C1939 1.327 . S
C1939 H1933 0.950 . S
C1939 C1938 1.327 . S
C1939 C1943 1.429 . S
C1940 C1923 1.574 . S
C1940 H1934 0.949 . S
C1940 C1944 1.368 . S
C1941 C1922 1.429 . S
C1941 C1935 1.429 . S
C1941 C1942 1.523 . S
C1942 C1923 1.368 . S
C1942 C1936 1.368 . S
C1942 C1941 1.523 . S
C1943 C1927 1.429 . S
C1943 C1939 1.429 . S
C1943 C1944 1.523 . S
C1944 C1928 1.368 . S
C1944 C1940 1.368 . S
C1944 C1943 1.523 . S
H1945 C1920 0.950 . S
H1946 C1922 0.950 . S
H1947 C1923 0.949 . S
H1948 C1925 0.950 . S
H1949 C1927 0.950 . S
C1950 C1951 1.349 . S
C1950 C1952 1.327 . S
C1950 H1975 0.950 . S
C1951 C1950 1.349 . S
C1951 C1967 1.349 . S
C1952 C1950 1.327 . S
C1952 C1971 1.429 . S
C1952 H1976 0.950 . S
C1953 C1970 1.574 . S
C1953 C1972 1.368 . S
C1953 H1977 0.949 . S
H1954 C1958 0.949 . S
C1955 C1956 1.349 . S
C1955 C1957 1.327 . S
C1955 H1978 0.950 . S
C1956 C1955 1.349 . S
C1956 C1968 1.349 . S
C1957 C1955 1.327 . S
C1957 C1973 1.429 . S
C1957 H1979 0.950 . S
C1958 H1954 0.949 . S
C1958 C1966 1.574 . S
C1958 C1974 1.368 . S
H1959 C1967 0.950 . S
H1960 C1965 0.950 . S
H1961 C1966 0.949 . S
H1962 C1968 0.950 . S
H1963 C1969 0.950 . S
H1964 C1970 0.949 . S
C1965 H1960 0.950 . S
C1965 C1967 1.327 . S
C1965 C1971 1.429 . S
C1966 C1958 1.574 . S
C1966 H1961 0.949 . S
C1966 C1972 1.368 . S
C1967 C1951 1.349 . S
C1967 H1959 0.950 . S
C1967 C1965 1.327 . S
C1968 C1956 1.349 . S
C1968 H1962 0.950 . S
C1968 C1969 1.327 . S
C1969 H1963 0.950 . S
C1969 C1968 1.327 . S
C1969 C1973 1.429 . S
C1970 C1953 1.574 . S
C1970 H1964 0.949 . S
C1970 C1974 1.368 . S
C1971 C1952 1.429 . S
C1971 C1965 1.429 . S
C1971 C1972 1.523 . S
C1972 C1953 1.368 . S
C1972 C1966 1.368 . S
C1972 C1971 1.523 . S
C1973 C1957 1.429 . S
C1973 C1969 1.429 . S
C1973 C1974 1.523 . S
C1974 C1958 1.368 . S
C1974 C1970 1.368 . S
C1974 C1973 1.523 . S
H1975 C1950 0.950 . S
H1976 C1952 0.950 . S
H1977 C1953 0.949 . S
H1978 C1955 0.950 . S
H1979 C1957 0.950 . S
C1980 C1981 1.349 . S
C1980 C1982 1.327 . S
C1980 H2005 0.950 . S
C1981 C1980 1.349 . S
C1981 C1997 1.349 . S
C1982 C1980 1.327 . S
C1982 C2001 1.429 . S
C1982 H2006 0.950 . S
C1983 C2000 1.574 . S
C1983 C2002 1.368 . S
C1983 H2007 0.949 . S
H1984 C1988 0.949 . S
C1985 C1986 1.349 . S
C1985 C1987 1.327 . S
C1985 H2008 0.950 . S
C1986 C1985 1.349 . S
C1986 C1998 1.349 . S
C1987 C1985 1.327 . S
C1987 C2003 1.429 . S
C1987 H2009 0.950 . S
C1988 H1984 0.949 . S
C1988 C1996 1.574 . S
C1988 C2004 1.368 . S
H1989 C1997 0.950 . S
H1990 C1995 0.950 . S
H1991 C1996 0.949 . S
H1992 C1998 0.950 . S
H1993 C1999 0.950 . S
H1994 C2000 0.949 . S
C1995 H1990 0.950 . S
C1995 C1997 1.327 . S
C1995 C2001 1.429 . S
C1996 C1988 1.574 . S
C1996 H1991 0.949 . S
C1996 C2002 1.368 . S
C1997 C1981 1.349 . S
C1997 H1989 0.950 . S
C1997 C1995 1.327 . S
C1998 C1986 1.349 . S
C1998 H1992 0.950 . S
C1998 C1999 1.327 . S
C1999 H1993 0.950 . S
C1999 C1998 1.327 . S
C1999 C2003 1.429 . S
C2000 C1983 1.574 . S
C2000 H1994 0.949 . S
C2000 C2004 1.368 . S
C2001 C1982 1.429 . S
C2001 C1995 1.429 . S
C2001 C2002 1.523 . S
C2002 C1983 1.368 . S
C2002 C1996 1.368 . S
C2002 C2001 1.523 . S
C2003 C1987 1.429 . S
C2003 C1999 1.429 . S
C2003 C2004 1.523 . S
C2004 C1988 1.368 . S
C2004 C2000 1.368 . S
C2004 C2003 1.523 . S
H2005 C1980 0.950 . S
H2006 C1982 0.950 . S
H2007 C1983 0.949 . S
H2008 C1985 0.950 . S
H2009 C1987 0.950 . S
C2010 C2011 1.349 . S
C2010 C2012 1.327 . S
C2010 H2035 0.950 . S
C2011 C2010 1.349 . S
C2011 C2027 1.349 . S
C2012 C2010 1.327 . S
C2012 C2031 1.429 . S
C2012 H2036 0.950 . S
C2013 C2030 1.574 . S
C2013 C2032 1.368 . S
C2013 H2037 0.949 . S
H2014 C2018 0.949 . S
C2015 C2016 1.349 . S
C2015 C2017 1.327 . S
C2015 H2038 0.950 . S
C2016 C2015 1.349 . S
C2016 C2028 1.349 . S
C2017 C2015 1.327 . S
C2017 C2033 1.429 . S
C2017 H2039 0.950 . S
C2018 H2014 0.949 . S
C2018 C2026 1.574 . S
C2018 C2034 1.368 . S
H2019 C2027 0.950 . S
H2020 C2025 0.950 . S
H2021 C2026 0.949 . S
H2022 C2028 0.950 . S
H2023 C2029 0.950 . S
H2024 C2030 0.949 . S
C2025 H2020 0.950 . S
C2025 C2027 1.327 . S
C2025 C2031 1.429 . S
C2026 C2018 1.574 . S
C2026 H2021 0.949 . S
C2026 C2032 1.368 . S
C2027 C2011 1.349 . S
C2027 H2019 0.950 . S
C2027 C2025 1.327 . S
C2028 C2016 1.349 . S
C2028 H2022 0.950 . S
C2028 C2029 1.327 . S
C2029 H2023 0.950 . S
C2029 C2028 1.327 . S
C2029 C2033 1.429 . S
C2030 C2013 1.574 . S
C2030 H2024 0.949 . S
C2030 C2034 1.368 . S
C2031 C2012 1.429 . S
C2031 C2025 1.429 . S
C2031 C2032 1.523 . S
C2032 C2013 1.368 . S
C2032 C2026 1.368 . S
C2032 C2031 1.523 . S
C2033 C2017 1.429 . S
C2033 C2029 1.429 . S
C2033 C2034 1.523 . S
C2034 C2018 1.368 . S
C2034 C2030 1.368 . S
C2034 C2033 1.523 . S
H2035 C2010 0.950 . S
H2036 C2012 0.950 . S
H2037 C2013 0.949 . S
H2038 C2015 0.950 . S
H2039 C2017 0.950 . S
C2040 C2041 1.349 . S
C2040 C2042 1.327 . S
C2040 H2065 0.950 . S
C2041 C2040 1.349 . S
C2041 C2057 1.349 . S
C2042 C2040 1.327 . S
C2042 C2061 1.429 . S
C2042 H2066 0.950 . S
C2043 C2060 1.574 . S
C2043 C2062 1.368 . S
C2043 H2067 0.949 . S
H2044 C2048 0.949 . S
C2045 C2046 1.349 . S
C2045 C2047 1.327 . S
C2045 H2068 0.950 . S
C2046 C2045 1.349 . S
C2046 C2058 1.349 . S
C2047 C2045 1.327 . S
C2047 C2063 1.429 . S
C2047 H2069 0.950 . S
C2048 H2044 0.949 . S
C2048 C2056 1.574 . S
C2048 C2064 1.368 . S
H2049 C2057 0.950 . S
H2050 C2055 0.950 . S
H2051 C2056 0.949 . S
H2052 C2058 0.950 . S
H2053 C2059 0.950 . S
H2054 C2060 0.949 . S
C2055 H2050 0.950 . S
C2055 C2057 1.327 . S
C2055 C2061 1.429 . S
C2056 C2048 1.574 . S
C2056 H2051 0.949 . S
C2056 C2062 1.368 . S
C2057 C2041 1.349 . S
C2057 H2049 0.950 . S
C2057 C2055 1.327 . S
C2058 C2046 1.349 . S
C2058 H2052 0.950 . S
C2058 C2059 1.327 . S
C2059 H2053 0.950 . S
C2059 C2058 1.327 . S
C2059 C2063 1.429 . S
C2060 C2043 1.574 . S
C2060 H2054 0.949 . S
C2060 C2064 1.368 . S
C2061 C2042 1.429 . S
C2061 C2055 1.429 . S
C2061 C2062 1.523 . S
C2062 C2043 1.368 . S
C2062 C2056 1.368 . S
C2062 C2061 1.523 . S
C2063 C2047 1.429 . S
C2063 C2059 1.429 . S
C2063 C2064 1.523 . S
C2064 C2048 1.368 . S
C2064 C2060 1.368 . S
C2064 C2063 1.523 . S
H2065 C2040 0.950 . S
H2066 C2042 0.950 . S
H2067 C2043 0.949 . S
H2068 C2045 0.950 . S
H2069 C2047 0.950 . S
C2070 C2071 1.349 1_556 S
C2070 C2072 1.327 . S
C2070 H2095 0.950 . S
C2071 C2070 1.349 1_554 S
C2071 C2087 1.349 . S
C2072 C2070 1.327 . S
C2072 C2091 1.429 1_556 S
C2072 H2096 0.950 . S
C2073 C2090 1.574 . S
C2073 C2092 1.368 . S
C2073 H2097 0.949 . S
H2074 C2078 0.949 . S
C2075 C2076 1.415 . S
C2075 C2077 1.327 . S
C2075 H2098 0.950 . S
C2076 C2075 1.415 . S
C2076 C2088 1.287 1_554 S
C2077 C2075 1.327 . S
C2077 C2093 1.429 . S
C2077 H2099 0.950 . S
C2078 H2074 0.949 . S
C2078 C2086 1.574 . S
C2078 C2094 1.368 1_556 S
H2079 C2087 0.950 . S
H2080 C2085 0.950 . S
H2081 C2086 0.949 . S
H2082 C2088 0.950 . S
H2083 C2089 0.950 . S
H2084 C2090 0.949 . S
C2085 H2080 0.950 . S
C2085 C2087 1.327 . S
C2085 C2091 1.429 . S
C2086 C2078 1.574 . S
C2086 H2081 0.949 . S
C2086 C2092 1.368 1_556 S
C2087 C2071 1.349 . S
C2087 H2079 0.950 . S
C2087 C2085 1.327 . S
C2088 C2076 1.287 1_556 S
C2088 H2082 0.950 . S
C2088 C2089 1.327 . S
C2089 H2083 0.950 . S
C2089 C2088 1.327 . S
C2089 C2093 1.429 1_556 S
C2090 C2073 1.574 . S
C2090 H2084 0.949 . S
C2090 C2094 1.368 . S
C2091 C2072 1.429 1_554 S
C2091 C2085 1.429 . S
C2091 C2092 1.523 . S
C2092 C2073 1.368 . S
C2092 C2086 1.368 1_554 S
C2092 C2091 1.523 . S
C2093 C2077 1.429 . S
C2093 C2089 1.429 1_554 S
C2093 C2094 1.523 . S
C2094 C2078 1.368 1_554 S
C2094 C2090 1.368 . S
C2094 C2093 1.523 . S
H2095 C2070 0.950 . S
H2096 C2072 0.950 . S
H2097 C2073 0.949 . S
H2098 C2075 0.950 . S
H2099 C2077 0.950 . S
C2100 C2101 1.296 1_556 S
C2100 C2102 1.327 . S
C2100 H2125 0.950 . S
C2101 C2100 1.296 1_554 S
C2101 C2117 1.407 . S
C2102 C2100 1.327 . S
C2102 C2121 1.429 1_556 S
C2102 H2126 0.950 . S
C2103 C2120 1.574 . S
C2103 C2122 1.368 . S
C2103 H2127 0.949 . S
H2104 C2108 0.949 . S
C2105 C2106 1.349 . S
C2105 C2107 1.327 . S
C2105 H2128 0.950 . S
C2106 C2105 1.349 . S
C2106 C2118 1.349 1_554 S
C2107 C2105 1.327 . S
C2107 C2123 1.429 . S
C2107 H2129 0.950 . S
C2108 H2104 0.949 . S
C2108 C2116 1.574 . S
C2108 C2124 1.368 1_556 S
H2109 C2117 0.950 . S
H2110 C2115 0.950 . S
H2111 C2116 0.949 . S
H2112 C2118 0.950 . S
H2113 C2119 0.950 . S
H2114 C2120 0.949 . S
C2115 H2110 0.950 . S
C2115 C2117 1.327 . S
C2115 C2121 1.429 . S
C2116 C2108 1.574 . S
C2116 H2111 0.949 . S
C2116 C2122 1.368 1_556 S
C2117 C2101 1.407 . S
C2117 H2109 0.950 . S
C2117 C2115 1.327 . S
C2118 C2106 1.349 1_556 S
C2118 H2112 0.950 . S
C2118 C2119 1.327 . S
C2119 H2113 0.950 . S
C2119 C2118 1.327 . S
C2119 C2123 1.429 1_556 S
C2120 C2103 1.574 . S
C2120 H2114 0.949 . S
C2120 C2124 1.368 . S
C2121 C2102 1.429 1_554 S
C2121 C2115 1.429 . S
C2121 C2122 1.523 . S
C2122 C2103 1.368 . S
C2122 C2116 1.368 1_554 S
C2122 C2121 1.523 . S
C2123 C2107 1.429 . S
C2123 C2119 1.429 1_554 S
C2123 C2124 1.523 . S
C2124 C2108 1.368 1_554 S
C2124 C2120 1.368 . S
C2124 C2123 1.523 . S
H2125 C2100 0.950 . S
H2126 C2102 0.950 . S
H2127 C2103 0.949 . S
H2128 C2105 0.950 . S
H2129 C2107 0.950 . S
C2130 C2131 1.349 . S
C2130 C2132 1.327 . S
C2130 H2155 0.950 . S
C2131 C2130 1.349 . S
C2131 C2147 1.349 1_554 S
C2132 C2130 1.327 . S
C2132 C2151 1.429 . S
C2132 H2156 0.950 . S
C2133 C2150 1.574 . S
C2133 C2152 1.368 1_556 S
C2133 H2157 0.949 . S
H2134 C2138 0.949 . S
C2135 C2136 1.297 1_556 S
C2135 C2137 1.327 . S
C2135 H2158 0.950 . S
C2136 C2135 1.297 1_554 S
C2136 C2148 1.406 . S
C2137 C2135 1.327 . S
C2137 C2153 1.429 1_556 S
C2137 H2159 0.950 . S
C2138 H2134 0.949 . S
C2138 C2146 1.574 . S
C2138 C2154 1.368 . S
H2139 C2147 0.950 . S
H2140 C2145 0.950 . S
H2141 C2146 0.949 . S
H2142 C2148 0.950 . S
H2143 C2149 0.950 . S
H2144 C2150 0.949 . S
C2145 H2140 0.950 . S
C2145 C2147 1.327 . S
C2145 C2151 1.429 1_556 S
C2146 C2138 1.574 . S
C2146 H2141 0.949 . S
C2146 C2152 1.368 . S
C2147 C2131 1.349 1_556 S
C2147 H2139 0.950 . S
C2147 C2145 1.327 . S
C2148 C2136 1.406 . S
C2148 H2142 0.950 . S
C2148 C2149 1.327 . S
C2149 H2143 0.950 . S
C2149 C2148 1.327 . S
C2149 C2153 1.429 . S
C2150 C2133 1.574 . S
C2150 H2144 0.949 . S
C2150 C2154 1.368 1_556 S
C2151 C2132 1.429 . S
C2151 C2145 1.429 1_554 S
C2151 C2152 1.523 . S
C2152 C2133 1.368 1_554 S
C2152 C2146 1.368 . S
C2152 C2151 1.523 . S
C2153 C2137 1.429 1_554 S
C2153 C2149 1.429 . S
C2153 C2154 1.523 . S
C2154 C2138 1.368 . S
C2154 C2150 1.368 1_554 S
C2154 C2153 1.523 . S
H2155 C2130 0.950 . S
H2156 C2132 0.950 . S
H2157 C2133 0.949 . S
H2158 C2135 0.950 . S
H2159 C2137 0.950 . S
C2160 C2161 1.349 . S
C2160 C2162 1.327 . S
C2160 H2185 0.950 . S
C2161 C2160 1.349 . S
C2161 C2177 1.349 . S
C2162 C2160 1.327 . S
C2162 C2181 1.429 . S
C2162 H2186 0.950 . S
C2163 C2180 1.574 . S
C2163 C2182 1.368 . S
C2163 H2187 0.949 . S
H2164 C2168 0.949 . S
C2165 C2166 1.349 . S
C2165 C2167 1.327 . S
C2165 H2188 0.950 . S
C2166 C2165 1.349 . S
C2166 C2178 1.349 . S
C2167 C2165 1.327 . S
C2167 C2183 1.429 . S
C2167 H2189 0.950 . S
C2168 H2164 0.949 . S
C2168 C2176 1.574 . S
C2168 C2184 1.368 . S
H2169 C2177 0.950 . S
H2170 C2175 0.950 . S
H2171 C2176 0.949 . S
H2172 C2178 0.950 . S
H2173 C2179 0.950 . S
H2174 C2180 0.949 . S
C2175 H2170 0.950 . S
C2175 C2177 1.327 . S
C2175 C2181 1.429 . S
C2176 C2168 1.574 . S
C2176 H2171 0.949 . S
C2176 C2182 1.368 . S
C2177 C2161 1.349 . S
C2177 H2169 0.950 . S
C2177 C2175 1.327 . S
C2178 C2166 1.349 . S
C2178 H2172 0.950 . S
C2178 C2179 1.327 . S
C2179 H2173 0.950 . S
C2179 C2178 1.327 . S
C2179 C2183 1.429 . S
C2180 C2163 1.574 . S
C2180 H2174 0.949 . S
C2180 C2184 1.368 . S
C2181 C2162 1.429 . S
C2181 C2175 1.429 . S
C2181 C2182 1.523 . S
C2182 C2163 1.368 . S
C2182 C2176 1.368 . S
C2182 C2181 1.523 . S
C2183 C2167 1.429 . S
C2183 C2179 1.429 . S
C2183 C2184 1.523 . S
C2184 C2168 1.368 . S
C2184 C2180 1.368 . S
C2184 C2183 1.523 . S
H2185 C2160 0.950 . S
H2186 C2162 0.950 . S
H2187 C2163 0.949 . S
H2188 C2165 0.950 . S
H2189 C2167 0.950 . S
C2190 C2191 1.349 . S
C2190 C2192 1.327 . S
C2190 H2215 0.950 . S
C2191 C2190 1.349 . S
C2191 C2207 1.349 . S
C2192 C2190 1.327 . S
C2192 C2211 1.429 . S
C2192 H2216 0.950 . S
C2193 C2210 1.574 . S
C2193 C2212 1.368 . S
C2193 H2217 0.949 . S
H2194 C2198 0.949 . S
C2195 C2196 1.349 . S
C2195 C2197 1.327 . S
C2195 H2218 0.950 . S
C2196 C2195 1.349 . S
C2196 C2208 1.349 . S
C2197 C2195 1.327 . S
C2197 C2213 1.429 . S
C2197 H2219 0.950 . S
C2198 H2194 0.949 . S
C2198 C2206 1.574 . S
C2198 C2214 1.368 . S
H2199 C2207 0.950 . S
H2200 C2205 0.950 . S
H2201 C2206 0.949 . S
H2202 C2208 0.950 . S
H2203 C2209 0.950 . S
H2204 C2210 0.949 . S
C2205 H2200 0.950 . S
C2205 C2207 1.327 . S
C2205 C2211 1.429 . S
C2206 C2198 1.574 . S
C2206 H2201 0.949 . S
C2206 C2212 1.368 . S
C2207 C2191 1.349 . S
C2207 H2199 0.950 . S
C2207 C2205 1.327 . S
C2208 C2196 1.349 . S
C2208 H2202 0.950 . S
C2208 C2209 1.327 . S
C2209 H2203 0.950 . S
C2209 C2208 1.327 . S
C2209 C2213 1.429 . S
C2210 C2193 1.574 . S
C2210 H2204 0.949 . S
C2210 C2214 1.368 . S
C2211 C2192 1.429 . S
C2211 C2205 1.429 . S
C2211 C2212 1.523 . S
C2212 C2193 1.368 . S
C2212 C2206 1.368 . S
C2212 C2211 1.523 . S
C2213 C2197 1.429 . S
C2213 C2209 1.429 . S
C2213 C2214 1.523 . S
C2214 C2198 1.368 . S
C2214 C2210 1.368 . S
C2214 C2213 1.523 . S
H2215 C2190 0.950 . S
H2216 C2192 0.950 . S
H2217 C2193 0.949 . S
H2218 C2195 0.950 . S
H2219 C2197 0.950 . S
C2220 C2221 1.349 . S
C2220 C2222 1.327 . S
C2220 H2245 0.950 . S
C2221 C2220 1.349 . S
C2221 C2237 1.349 . S
C2222 C2220 1.327 . S
C2222 C2241 1.429 . S
C2222 H2246 0.950 . S
C2223 C2240 1.574 . S
C2223 C2242 1.368 . S
C2223 H2247 0.949 . S
H2224 C2228 0.949 . S
C2225 C2226 1.349 . S
C2225 C2227 1.327 . S
C2225 H2248 0.950 . S
C2226 C2225 1.349 . S
C2226 C2238 1.349 . S
C2227 C2225 1.327 . S
C2227 C2243 1.429 . S
C2227 H2249 0.950 . S
C2228 H2224 0.949 . S
C2228 C2236 1.574 . S
C2228 C2244 1.368 . S
H2229 C2237 0.950 . S
H2230 C2235 0.950 . S
H2231 C2236 0.949 . S
H2232 C2238 0.950 . S
H2233 C2239 0.950 . S
H2234 C2240 0.949 . S
C2235 H2230 0.950 . S
C2235 C2237 1.327 . S
C2235 C2241 1.429 . S
C2236 C2228 1.574 . S
C2236 H2231 0.949 . S
C2236 C2242 1.368 . S
C2237 C2221 1.349 . S
C2237 H2229 0.950 . S
C2237 C2235 1.327 . S
C2238 C2226 1.349 . S
C2238 H2232 0.950 . S
C2238 C2239 1.327 . S
C2239 H2233 0.950 . S
C2239 C2238 1.327 . S
C2239 C2243 1.429 . S
C2240 C2223 1.574 . S
C2240 H2234 0.949 . S
C2240 C2244 1.368 . S
C2241 C2222 1.429 . S
C2241 C2235 1.429 . S
C2241 C2242 1.523 . S
C2242 C2223 1.368 . S
C2242 C2236 1.368 . S
C2242 C2241 1.523 . S
C2243 C2227 1.429 . S
C2243 C2239 1.429 . S
C2243 C2244 1.523 . S
C2244 C2228 1.368 . S
C2244 C2240 1.368 . S
C2244 C2243 1.523 . S
H2245 C2220 0.950 . S
H2246 C2222 0.950 . S
H2247 C2223 0.949 . S
H2248 C2225 0.950 . S
H2249 C2227 0.950 . S
C2250 C2251 1.414 . S
C2250 C2252 1.327 . S
C2250 H2275 0.950 . S
C2251 C2250 1.414 . S
C2251 C2267 1.288 1_556 S
C2252 C2250 1.327 . S
C2252 C2271 1.429 . S
C2252 H2276 0.950 . S
C2253 C2270 1.574 . S
C2253 C2272 1.368 1_554 S
C2253 H2277 0.949 . S
H2254 C2258 0.949 . S
C2255 C2256 1.349 1_554 S
C2255 C2257 1.327 . S
C2255 H2278 0.950 . S
C2256 C2255 1.349 1_556 S
C2256 C2268 1.349 . S
C2257 C2255 1.327 . S
C2257 C2273 1.429 1_554 S
C2257 H2279 0.950 . S
C2258 H2254 0.949 . S
C2258 C2266 1.574 . S
C2258 C2274 1.368 . S
H2259 C2267 0.950 . S
H2260 C2265 0.950 . S
H2261 C2266 0.949 . S
H2262 C2268 0.950 . S
H2263 C2269 0.950 . S
H2264 C2270 0.949 . S
C2265 H2260 0.950 . S
C2265 C2267 1.327 . S
C2265 C2271 1.429 1_554 S
C2266 C2258 1.574 . S
C2266 H2261 0.949 . S
C2266 C2272 1.368 . S
C2267 C2251 1.288 1_554 S
C2267 H2259 0.950 . S
C2267 C2265 1.327 . S
C2268 C2256 1.349 . S
C2268 H2262 0.950 . S
C2268 C2269 1.327 . S
C2269 H2263 0.950 . S
C2269 C2268 1.327 . S
C2269 C2273 1.429 . S
C2270 C2253 1.574 . S
C2270 H2264 0.949 . S
C2270 C2274 1.368 1_554 S
C2271 C2252 1.429 . S
C2271 C2265 1.429 1_556 S
C2271 C2272 1.523 . S
C2272 C2253 1.368 1_556 S
C2272 C2266 1.368 . S
C2272 C2271 1.523 . S
C2273 C2257 1.429 1_556 S
C2273 C2269 1.429 . S
C2273 C2274 1.523 . S
C2274 C2258 1.368 . S
C2274 C2270 1.368 1_556 S
C2274 C2273 1.523 . S
H2275 C2250 0.950 . S
H2276 C2252 0.950 . S
H2277 C2253 0.949 . S
H2278 C2255 0.950 . S
H2279 C2257 0.950 . S
C2280 C2281 1.407 . S
C2280 C2282 1.327 . S
C2280 H2305 0.950 . S
C2281 C2280 1.407 . S
C2281 C2297 1.295 1_556 S
C2282 C2280 1.327 . S
C2282 C2301 1.429 . S
C2282 H2306 0.950 . S
C2283 C2300 1.574 . S
C2283 C2302 1.368 1_554 S
C2283 H2307 0.949 . S
H2284 C2288 0.949 . S
C2285 C2286 1.349 1_554 S
C2285 C2287 1.327 . S
C2285 H2308 0.950 . S
C2286 C2285 1.349 1_556 S
C2286 C2298 1.349 . S
C2287 C2285 1.327 . S
C2287 C2303 1.429 1_554 S
C2287 H2309 0.950 . S
C2288 H2284 0.949 . S
C2288 C2296 1.574 . S
C2288 C2304 1.368 . S
H2289 C2297 0.950 . S
H2290 C2295 0.950 . S
H2291 C2296 0.949 . S
H2292 C2298 0.950 . S
H2293 C2299 0.950 . S
H2294 C2300 0.949 . S
C2295 H2290 0.950 . S
C2295 C2297 1.327 . S
C2295 C2301 1.429 1_554 S
C2296 C2288 1.574 . S
C2296 H2291 0.949 . S
C2296 C2302 1.368 . S
C2297 C2281 1.295 1_554 S
C2297 H2289 0.950 . S
C2297 C2295 1.327 . S
C2298 C2286 1.349 . S
C2298 H2292 0.950 . S
C2298 C2299 1.327 . S
C2299 H2293 0.950 . S
C2299 C2298 1.327 . S
C2299 C2303 1.429 . S
C2300 C2283 1.574 . S
C2300 H2294 0.949 . S
C2300 C2304 1.368 1_554 S
C2301 C2282 1.429 . S
C2301 C2295 1.429 1_556 S
C2301 C2302 1.523 . S
C2302 C2283 1.368 1_556 S
C2302 C2296 1.368 . S
C2302 C2301 1.523 . S
C2303 C2287 1.429 1_556 S
C2303 C2299 1.429 . S
C2303 C2304 1.523 . S
C2304 C2288 1.368 . S
C2304 C2300 1.368 1_556 S
C2304 C2303 1.523 . S
H2305 C2280 0.950 . S
H2306 C2282 0.950 . S
H2307 C2283 0.949 . S
H2308 C2285 0.950 . S
H2309 C2287 0.950 . S
C2310 C2311 1.405 . S
C2310 C2312 1.327 . S
C2310 H2335 0.950 . S
C2311 C2310 1.405 . S
C2311 C2327 1.298 1_556 S
C2312 C2310 1.327 . S
C2312 C2331 1.429 . S
C2312 H2336 0.950 . S
C2313 C2330 1.574 . S
C2313 C2332 1.368 1_554 S
C2313 H2337 0.949 . S
H2314 C2318 0.949 . S
C2315 C2316 1.349 1_554 S
C2315 C2317 1.327 . S
C2315 H2338 0.950 . S
C2316 C2315 1.349 1_556 S
C2316 C2328 1.349 . S
C2317 C2315 1.327 . S
C2317 C2333 1.429 1_554 S
C2317 H2339 0.950 . S
C2318 H2314 0.949 . S
C2318 C2326 1.574 . S
C2318 C2334 1.368 . S
H2319 C2327 0.950 . S
H2320 C2325 0.950 . S
H2321 C2326 0.949 . S
H2322 C2328 0.950 . S
H2323 C2329 0.950 . S
H2324 C2330 0.949 . S
C2325 H2320 0.950 . S
C2325 C2327 1.327 . S
C2325 C2331 1.429 1_554 S
C2326 C2318 1.574 . S
C2326 H2321 0.949 . S
C2326 C2332 1.368 . S
C2327 C2311 1.298 1_554 S
C2327 H2319 0.950 . S
C2327 C2325 1.327 . S
C2328 C2316 1.349 . S
C2328 H2322 0.950 . S
C2328 C2329 1.327 . S
C2329 H2323 0.950 . S
C2329 C2328 1.327 . S
C2329 C2333 1.429 . S
C2330 C2313 1.574 . S
C2330 H2324 0.949 . S
C2330 C2334 1.368 1_554 S
C2331 C2312 1.429 . S
C2331 C2325 1.429 1_556 S
C2331 C2332 1.523 . S
C2332 C2313 1.368 1_556 S
C2332 C2326 1.368 . S
C2332 C2331 1.523 . S
C2333 C2317 1.429 1_556 S
C2333 C2329 1.429 . S
C2333 C2334 1.523 . S
C2334 C2318 1.368 . S
C2334 C2330 1.368 1_556 S
C2334 C2333 1.523 . S
H2335 C2310 0.950 . S
H2336 C2312 0.950 . S
H2337 C2313 0.949 . S
H2338 C2315 0.950 . S
H2339 C2317 0.950 . S
C2340 C2341 1.349 . S
C2340 C2342 1.327 . S
C2340 H2365 0.950 . S
C2341 C2340 1.349 . S
C2341 C2357 1.349 . S
C2342 C2340 1.327 . S
C2342 C2361 1.429 . S
C2342 H2366 0.950 . S
C2343 C2360 1.574 . S
C2343 C2362 1.368 . S
C2343 H2367 0.949 . S
H2344 C2348 0.949 . S
C2345 C2346 1.349 . S
C2345 C2347 1.327 . S
C2345 H2368 0.950 . S
C2346 C2345 1.349 . S
C2346 C2358 1.349 . S
C2347 C2345 1.327 . S
C2347 C2363 1.429 . S
C2347 H2369 0.950 . S
C2348 H2344 0.949 . S
C2348 C2356 1.574 . S
C2348 C2364 1.368 . S
H2349 C2357 0.950 . S
H2350 C2355 0.950 . S
H2351 C2356 0.949 . S
H2352 C2358 0.950 . S
H2353 C2359 0.950 . S
H2354 C2360 0.949 . S
C2355 H2350 0.950 . S
C2355 C2357 1.327 . S
C2355 C2361 1.429 . S
C2356 C2348 1.574 . S
C2356 H2351 0.949 . S
C2356 C2362 1.368 . S
C2357 C2341 1.349 . S
C2357 H2349 0.950 . S
C2357 C2355 1.327 . S
C2358 C2346 1.349 . S
C2358 H2352 0.950 . S
C2358 C2359 1.327 . S
C2359 H2353 0.950 . S
C2359 C2358 1.327 . S
C2359 C2363 1.429 . S
C2360 C2343 1.574 . S
C2360 H2354 0.949 . S
C2360 C2364 1.368 . S
C2361 C2342 1.429 . S
C2361 C2355 1.429 . S
C2361 C2362 1.523 . S
C2362 C2343 1.368 . S
C2362 C2356 1.368 . S
C2362 C2361 1.523 . S
C2363 C2347 1.429 . S
C2363 C2359 1.429 . S
C2363 C2364 1.523 . S
C2364 C2348 1.368 . S
C2364 C2360 1.368 . S
C2364 C2363 1.523 . S
H2365 C2340 0.950 . S
H2366 C2342 0.950 . S
H2367 C2343 0.949 . S
H2368 C2345 0.950 . S
H2369 C2347 0.950 . S
C2370 C2371 1.349 . S
C2370 C2372 1.327 . S
C2370 H2395 0.950 . S
C2371 C2370 1.349 . S
C2371 C2387 1.349 . S
C2372 C2370 1.327 . S
C2372 C2391 1.429 . S
C2372 H2396 0.950 . S
C2373 C2390 1.574 . S
C2373 C2392 1.368 . S
C2373 H2397 0.949 . S
H2374 C2378 0.949 . S
C2375 C2376 1.349 . S
C2375 C2377 1.327 . S
C2375 H2398 0.950 . S
C2376 C2375 1.349 . S
C2376 C2388 1.349 . S
C2377 C2375 1.327 . S
C2377 C2393 1.429 . S
C2377 H2399 0.950 . S
C2378 H2374 0.949 . S
C2378 C2386 1.574 . S
C2378 C2394 1.368 . S
H2379 C2387 0.950 . S
H2380 C2385 0.950 . S
H2381 C2386 0.949 . S
H2382 C2388 0.950 . S
H2383 C2389 0.950 . S
H2384 C2390 0.949 . S
C2385 H2380 0.950 . S
C2385 C2387 1.327 . S
C2385 C2391 1.429 . S
C2386 C2378 1.574 . S
C2386 H2381 0.949 . S
C2386 C2392 1.368 . S
C2387 C2371 1.349 . S
C2387 H2379 0.950 . S
C2387 C2385 1.327 . S
C2388 C2376 1.349 . S
C2388 H2382 0.950 . S
C2388 C2389 1.327 . S
C2389 H2383 0.950 . S
C2389 C2388 1.327 . S
C2389 C2393 1.429 . S
C2390 C2373 1.574 . S
C2390 H2384 0.949 . S
C2390 C2394 1.368 . S
C2391 C2372 1.429 . S
C2391 C2385 1.429 . S
C2391 C2392 1.523 . S
C2392 C2373 1.368 . S
C2392 C2386 1.368 . S
C2392 C2391 1.523 . S
C2393 C2377 1.429 . S
C2393 C2389 1.429 . S
C2393 C2394 1.523 . S
C2394 C2378 1.368 . S
C2394 C2390 1.368 . S
C2394 C2393 1.523 . S
H2395 C2370 0.950 . S
H2396 C2372 0.950 . S
H2397 C2373 0.949 . S
H2398 C2375 0.950 . S
H2399 C2377 0.950 . S
C2400 C2401 1.349 . S
C2400 C2402 1.327 . S
C2400 H2425 0.950 . S
C2401 C2400 1.349 . S
C2401 C2417 1.349 . S
C2402 C2400 1.327 . S
C2402 C2421 1.429 . S
C2402 H2426 0.950 . S
C2403 C2420 1.574 . S
C2403 C2422 1.368 . S
C2403 H2427 0.949 . S
H2404 C2408 0.949 . S
C2405 C2406 1.349 . S
C2405 C2407 1.327 . S
C2405 H2428 0.950 . S
C2406 C2405 1.349 . S
C2406 C2418 1.349 . S
C2407 C2405 1.327 . S
C2407 C2423 1.429 . S
C2407 H2429 0.950 . S
C2408 H2404 0.949 . S
C2408 C2416 1.574 . S
C2408 C2424 1.368 . S
H2409 C2417 0.950 . S
H2410 C2415 0.950 . S
H2411 C2416 0.949 . S
H2412 C2418 0.950 . S
H2413 C2419 0.950 . S
H2414 C2420 0.949 . S
C2415 H2410 0.950 . S
C2415 C2417 1.327 . S
C2415 C2421 1.429 . S
C2416 C2408 1.574 . S
C2416 H2411 0.949 . S
C2416 C2422 1.368 . S
C2417 C2401 1.349 . S
C2417 H2409 0.950 . S
C2417 C2415 1.327 . S
C2418 C2406 1.349 . S
C2418 H2412 0.950 . S
C2418 C2419 1.327 . S
C2419 H2413 0.950 . S
C2419 C2418 1.327 . S
C2419 C2423 1.429 . S
C2420 C2403 1.574 . S
C2420 H2414 0.949 . S
C2420 C2424 1.368 . S
C2421 C2402 1.429 . S
C2421 C2415 1.429 . S
C2421 C2422 1.523 . S
C2422 C2403 1.368 . S
C2422 C2416 1.368 . S
C2422 C2421 1.523 . S
C2423 C2407 1.429 . S
C2423 C2419 1.429 . S
C2423 C2424 1.523 . S
C2424 C2408 1.368 . S
C2424 C2420 1.368 . S
C2424 C2423 1.523 . S
H2425 C2400 0.950 . S
H2426 C2402 0.950 . S
H2427 C2403 0.949 . S
H2428 C2405 0.950 . S
H2429 C2407 0.950 . S
C2430 C2431 1.349 . S
C2430 C2432 1.327 . S
C2430 H2455 0.950 . S
C2431 C2430 1.349 . S
C2431 C2447 1.349 . S
C2432 C2430 1.327 . S
C2432 C2451 1.429 . S
C2432 H2456 0.950 . S
C2433 C2450 1.574 . S
C2433 C2452 1.368 . S
C2433 H2457 0.949 . S
H2434 C2438 0.949 . S
C2435 C2436 1.349 . S
C2435 C2437 1.327 . S
C2435 H2458 0.950 . S
C2436 C2435 1.349 . S
C2436 C2448 1.349 . S
C2437 C2435 1.327 . S
C2437 C2453 1.429 . S
C2437 H2459 0.950 . S
C2438 H2434 0.949 . S
C2438 C2446 1.574 . S
C2438 C2454 1.368 . S
H2439 C2447 0.950 . S
H2440 C2445 0.950 . S
H2441 C2446 0.949 . S
H2442 C2448 0.950 . S
H2443 C2449 0.950 . S
H2444 C2450 0.949 . S
C2445 H2440 0.950 . S
C2445 C2447 1.327 . S
C2445 C2451 1.429 . S
C2446 C2438 1.574 . S
C2446 H2441 0.949 . S
C2446 C2452 1.368 . S
C2447 C2431 1.349 . S
C2447 H2439 0.950 . S
C2447 C2445 1.327 . S
C2448 C2436 1.349 . S
C2448 H2442 0.950 . S
C2448 C2449 1.327 . S
C2449 H2443 0.950 . S
C2449 C2448 1.327 . S
C2449 C2453 1.429 . S
C2450 C2433 1.574 . S
C2450 H2444 0.949 . S
C2450 C2454 1.368 . S
C2451 C2432 1.429 . S
C2451 C2445 1.429 . S
C2451 C2452 1.523 . S
C2452 C2433 1.368 . S
C2452 C2446 1.368 . S
C2452 C2451 1.523 . S
C2453 C2437 1.429 . S
C2453 C2449 1.429 . S
C2453 C2454 1.523 . S
C2454 C2438 1.368 . S
C2454 C2450 1.368 . S
C2454 C2453 1.523 . S
H2455 C2430 0.950 . S
H2456 C2432 0.950 . S
H2457 C2433 0.949 . S
H2458 C2435 0.950 . S
H2459 C2437 0.950 . S
C2460 C2461 1.349 . S
C2460 C2462 1.327 . S
C2460 H2485 0.950 . S
C2461 C2460 1.349 . S
C2461 C2477 1.349 . S
C2462 C2460 1.327 . S
C2462 C2481 1.429 . S
C2462 H2486 0.950 . S
C2463 C2480 1.574 . S
C2463 C2482 1.368 . S
C2463 H2487 0.949 . S
H2464 C2468 0.949 . S
C2465 C2466 1.349 . S
C2465 C2467 1.327 . S
C2465 H2488 0.950 . S
C2466 C2465 1.349 . S
C2466 C2478 1.349 . S
C2467 C2465 1.327 . S
C2467 C2483 1.429 . S
C2467 H2489 0.950 . S
C2468 H2464 0.949 . S
C2468 C2476 1.574 . S
C2468 C2484 1.368 . S
H2469 C2477 0.950 . S
H2470 C2475 0.950 . S
H2471 C2476 0.949 . S
H2472 C2478 0.950 . S
H2473 C2479 0.950 . S
H2474 C2480 0.949 . S
C2475 H2470 0.950 . S
C2475 C2477 1.327 . S
C2475 C2481 1.429 . S
C2476 C2468 1.574 . S
C2476 H2471 0.949 . S
C2476 C2482 1.368 . S
C2477 C2461 1.349 . S
C2477 H2469 0.950 . S
C2477 C2475 1.327 . S
C2478 C2466 1.349 . S
C2478 H2472 0.950 . S
C2478 C2479 1.327 . S
C2479 H2473 0.950 . S
C2479 C2478 1.327 . S
C2479 C2483 1.429 . S
C2480 C2463 1.574 . S
C2480 H2474 0.949 . S
C2480 C2484 1.368 . S
C2481 C2462 1.429 . S
C2481 C2475 1.429 . S
C2481 C2482 1.523 . S
C2482 C2463 1.368 . S
C2482 C2476 1.368 . S
C2482 C2481 1.523 . S
C2483 C2467 1.429 . S
C2483 C2479 1.429 . S
C2483 C2484 1.523 . S
C2484 C2468 1.368 . S
C2484 C2480 1.368 . S
C2484 C2483 1.523 . S
H2485 C2460 0.950 . S
H2486 C2462 0.950 . S
H2487 C2463 0.949 . S
H2488 C2465 0.950 . S
H2489 C2467 0.950 . S
C2490 C2491 1.349 . S
C2490 C2492 1.327 . S
C2490 H2515 0.950 . S
C2491 C2490 1.349 . S
C2491 C2507 1.349 . S
C2492 C2490 1.327 . S
C2492 C2511 1.429 . S
C2492 H2516 0.950 . S
C2493 C2510 1.574 . S
C2493 C2512 1.368 . S
C2493 H2517 0.949 . S
H2494 C2498 0.949 . S
C2495 C2496 1.349 . S
C2495 C2497 1.327 . S
C2495 H2518 0.950 . S
C2496 C2495 1.349 . S
C2496 C2508 1.349 . S
C2497 C2495 1.327 . S
C2497 C2513 1.429 . S
C2497 H2519 0.950 . S
C2498 H2494 0.949 . S
C2498 C2506 1.574 . S
C2498 C2514 1.368 . S
H2499 C2507 0.950 . S
H2500 C2505 0.950 . S
H2501 C2506 0.949 . S
H2502 C2508 0.950 . S
H2503 C2509 0.950 . S
H2504 C2510 0.949 . S
C2505 H2500 0.950 . S
C2505 C2507 1.327 . S
C2505 C2511 1.429 . S
C2506 C2498 1.574 . S
C2506 H2501 0.949 . S
C2506 C2512 1.368 . S
C2507 C2491 1.349 . S
C2507 H2499 0.950 . S
C2507 C2505 1.327 . S
C2508 C2496 1.349 . S
C2508 H2502 0.950 . S
C2508 C2509 1.327 . S
C2509 H2503 0.950 . S
C2509 C2508 1.327 . S
C2509 C2513 1.429 . S
C2510 C2493 1.574 . S
C2510 H2504 0.949 . S
C2510 C2514 1.368 . S
C2511 C2492 1.429 . S
C2511 C2505 1.429 . S
C2511 C2512 1.523 . S
C2512 C2493 1.368 . S
C2512 C2506 1.368 . S
C2512 C2511 1.523 . S
C2513 C2497 1.429 . S
C2513 C2509 1.429 . S
C2513 C2514 1.523 . S
C2514 C2498 1.368 . S
C2514 C2510 1.368 . S
C2514 C2513 1.523 . S
H2515 C2490 0.950 . S
H2516 C2492 0.950 . S
H2517 C2493 0.949 . S
H2518 C2495 0.950 . S
H2519 C2497 0.950 . S
C2520 C2521 1.349 . S
C2520 C2522 1.327 . S
C2520 H2545 0.950 . S
C2521 C2520 1.349 . S
C2521 C2537 1.349 . S
C2522 C2520 1.327 . S
C2522 C2541 1.429 . S
C2522 H2546 0.950 . S
C2523 C2540 1.574 . S
C2523 C2542 1.368 . S
C2523 H2547 0.949 . S
H2524 C2528 0.949 . S
C2525 C2526 1.349 . S
C2525 C2527 1.327 . S
C2525 H2548 0.950 . S
C2526 C2525 1.349 . S
C2526 C2538 1.349 . S
C2527 C2525 1.327 . S
C2527 C2543 1.429 . S
C2527 H2549 0.950 . S
C2528 H2524 0.949 . S
C2528 C2536 1.574 . S
C2528 C2544 1.368 . S
H2529 C2537 0.950 . S
H2530 C2535 0.950 . S
H2531 C2536 0.949 . S
H2532 C2538 0.950 . S
H2533 C2539 0.950 . S
H2534 C2540 0.949 . S
C2535 H2530 0.950 . S
C2535 C2537 1.327 . S
C2535 C2541 1.429 . S
C2536 C2528 1.574 . S
C2536 H2531 0.949 . S
C2536 C2542 1.368 . S
C2537 C2521 1.349 . S
C2537 H2529 0.950 . S
C2537 C2535 1.327 . S
C2538 C2526 1.349 . S
C2538 H2532 0.950 . S
C2538 C2539 1.327 . S
C2539 H2533 0.950 . S
C2539 C2538 1.327 . S
C2539 C2543 1.429 . S
C2540 C2523 1.574 . S
C2540 H2534 0.949 . S
C2540 C2544 1.368 . S
C2541 C2522 1.429 . S
C2541 C2535 1.429 . S
C2541 C2542 1.523 . S
C2542 C2523 1.368 . S
C2542 C2536 1.368 . S
C2542 C2541 1.523 . S
C2543 C2527 1.429 . S
C2543 C2539 1.429 . S
C2543 C2544 1.523 . S
C2544 C2528 1.368 . S
C2544 C2540 1.368 . S
C2544 C2543 1.523 . S
H2545 C2520 0.950 . S
H2546 C2522 0.950 . S
H2547 C2523 0.949 . S
H2548 C2525 0.950 . S
H2549 C2527 0.950 . S
C2550 C2551 1.349 1_565 S
C2550 C2552 1.327 . S
C2550 H2575 0.950 . S
C2551 C2550 1.349 1_545 S
C2551 C2567 1.349 . S
C2552 C2550 1.327 . S
C2552 C2571 1.428 1_565 S
C2552 H2576 0.950 . S
C2553 C2570 1.574 1_545 S
C2553 C2572 1.368 1_545 S
C2553 H2577 0.949 . S
H2554 C2558 0.949 . S
C2555 C2556 1.349 . S
C2555 C2557 1.327 . S
C2555 H2578 0.950 . S
C2556 C2555 1.349 . S
C2556 C2568 1.349 . S
C2557 C2555 1.327 . S
C2557 C2573 1.429 . S
C2557 H2579 0.950 . S
C2558 H2554 0.949 . S
C2558 C2566 1.574 . S
C2558 C2574 1.368 . S
H2559 C2567 0.950 . S
H2560 C2565 0.950 . S
H2561 C2566 0.949 . S
H2562 C2568 0.950 . S
H2563 C2569 0.950 . S
H2564 C2570 0.949 1_545 S
C2565 H2560 0.950 . S
C2565 C2567 1.327 . S
C2565 C2571 1.449 . S
C2566 C2558 1.574 . S
C2566 H2561 0.949 . S
C2566 C2572 1.368 . S
C2567 C2551 1.349 . S
C2567 H2559 0.950 . S
C2567 C2565 1.327 . S
C2568 C2556 1.349 . S
C2568 H2562 0.950 . S
C2568 C2569 1.327 . S
C2569 H2563 0.950 . S
C2569 C2568 1.327 . S
C2569 C2573 1.429 . S
C2570 C2553 1.574 1_565 S
C2570 H2564 0.949 1_565 S
C2570 C2574 1.368 . S
C2571 C2552 1.428 1_545 S
C2571 C2565 1.449 . S
C2571 C2572 1.505 1_545 S
C2572 C2553 1.368 1_565 S
C2572 C2566 1.368 . S
C2572 C2571 1.505 1_565 S
C2573 C2557 1.429 . S
C2573 C2569 1.429 . S
C2573 C2574 1.523 . S
C2574 C2558 1.368 . S
C2574 C2570 1.368 . S
C2574 C2573 1.523 . S
H2575 C2550 0.950 . S
H2576 C2552 0.950 . S
H2577 C2553 0.949 . S
H2578 C2555 0.950 . S
H2579 C2557 0.950 . S
C2580 C2581 1.349 . S
C2580 C2582 1.327 . S
C2580 H2605 0.950 . S
C2581 C2580 1.349 . S
C2581 C2597 1.349 . S
C2582 C2580 1.327 . S
C2582 C2601 1.429 . S
C2582 H2606 0.950 . S
C2583 C2600 1.574 1_455 S
C2583 C2602 1.368 . S
C2583 H2607 0.949 . S
H2584 C2588 0.949 . S
C2585 C2586 1.349 . S
C2585 C2587 1.327 . S
C2585 H2608 0.950 . S
C2586 C2585 1.349 . S
C2586 C2598 1.349 . S
C2587 C2585 1.327 . S
C2587 C2603 1.442 . S
C2587 H2609 0.950 . S
C2588 H2584 0.949 . S
C2588 C2596 1.574 . S
C2588 C2604 1.368 . S
H2589 C2597 0.950 . S
H2590 C2595 0.950 . S
H2591 C2596 0.949 . S
H2592 C2598 0.950 1_455 S
H2593 C2599 0.950 . S
H2594 C2600 0.952 . S
C2595 H2590 0.950 . S
C2595 C2597 1.327 . S
C2595 C2601 1.429 . S
C2596 C2588 1.574 . S
C2596 H2591 0.949 . S
C2596 C2602 1.368 . S
C2597 C2581 1.349 . S
C2597 H2589 0.950 . S
C2597 C2595 1.327 . S
C2598 C2586 1.349 . S
C2598 H2592 0.950 1_655 S
C2598 C2599 1.327 1_655 S
C2599 H2593 0.950 . S
C2599 C2598 1.327 1_455 S
C2599 C2603 1.414 1_455 S
C2600 C2583 1.574 1_655 S
C2600 H2594 0.952 . S
C2600 C2604 1.364 1_655 S
C2601 C2582 1.429 . S
C2601 C2595 1.429 . S
C2601 C2602 1.523 . S
C2602 C2583 1.368 . S
C2602 C2596 1.368 . S
C2602 C2601 1.523 . S
C2603 C2587 1.442 . S
C2603 C2599 1.414 1_655 S
C2603 C2604 1.524 1_655 S
C2604 C2588 1.368 . S
C2604 C2600 1.364 1_455 S
C2604 C2603 1.524 1_455 S
H2605 C2580 0.950 . S
H2606 C2582 0.950 . S
H2607 C2583 0.949 . S
H2608 C2585 0.950 . S
H2609 C2587 0.950 . S
C2610 C2611 1.349 . S
C2610 C2612 1.327 . S
C2610 H2635 0.950 . S
C2611 C2610 1.349 . S
C2611 C2627 1.349 . S
C2612 C2610 1.327 . S
C2612 C2631 1.429 . S
C2612 H2636 0.950 . S
C2613 C2630 1.574 . S
C2613 C2632 1.368 . S
C2613 H2637 0.949 . S
H2614 C2618 0.949 . S
C2615 C2616 1.349 . S
C2615 C2617 1.327 . S
C2615 H2638 0.950 . S
C2616 C2615 1.349 . S
C2616 C2628 1.349 . S
C2617 C2615 1.327 . S
C2617 C2633 1.429 . S
C2617 H2639 0.950 . S
C2618 H2614 0.949 . S
C2618 C2626 1.574 . S
C2618 C2634 1.368 . S
H2619 C2627 0.950 . S
H2620 C2625 0.950 . S
H2621 C2626 0.949 . S
H2622 C2628 0.950 . S
H2623 C2629 0.950 . S
H2624 C2630 0.949 . S
C2625 H2620 0.950 . S
C2625 C2627 1.327 . S
C2625 C2631 1.429 . S
C2626 C2618 1.574 . S
C2626 H2621 0.949 . S
C2626 C2632 1.368 . S
C2627 C2611 1.349 . S
C2627 H2619 0.950 . S
C2627 C2625 1.327 . S
C2628 C2616 1.349 . S
C2628 H2622 0.950 . S
C2628 C2629 1.327 . S
C2629 H2623 0.950 . S
C2629 C2628 1.327 . S
C2629 C2633 1.429 . S
C2630 C2613 1.574 . S
C2630 H2624 0.949 . S
C2630 C2634 1.368 . S
C2631 C2612 1.429 . S
C2631 C2625 1.429 . S
C2631 C2632 1.523 . S
C2632 C2613 1.368 . S
C2632 C2626 1.368 . S
C2632 C2631 1.523 . S
C2633 C2617 1.429 . S
C2633 C2629 1.429 . S
C2633 C2634 1.523 . S
C2634 C2618 1.368 . S
C2634 C2630 1.368 . S
C2634 C2633 1.523 . S
H2635 C2610 0.950 . S
H2636 C2612 0.950 . S
H2637 C2613 0.949 . S
H2638 C2615 0.950 . S
H2639 C2617 0.950 . S
C2640 C2641 1.349 . S
C2640 C2642 1.327 . S
C2640 H2665 0.950 . S
C2641 C2640 1.349 . S
C2641 C2657 1.349 . S
C2642 C2640 1.327 . S
C2642 C2661 1.424 1_565 S
C2642 H2666 0.950 . S
C2643 C2660 1.574 . S
C2643 C2662 1.368 . S
C2643 H2667 0.949 . S
H2644 C2648 0.949 . S
C2645 C2646 1.349 . S
C2645 C2647 1.327 . S
C2645 H2668 0.950 . S
C2646 C2645 1.349 . S
C2646 C2658 1.349 . S
C2647 C2645 1.327 . S
C2647 C2663 1.429 . S
C2647 H2669 0.950 . S
C2648 H2644 0.949 . S
C2648 C2656 1.574 . S
C2648 C2664 1.368 . S
H2649 C2657 0.950 . S
H2650 C2655 0.950 1_545 S
H2651 C2656 0.949 . S
H2652 C2658 0.950 . S
H2653 C2659 0.950 . S
H2654 C2660 0.949 . S
C2655 H2650 0.950 1_565 S
C2655 C2657 1.327 . S
C2655 C2661 1.436 1_565 S
C2656 C2648 1.574 . S
C2656 H2651 0.949 . S
C2656 C2662 1.368 . S
C2657 C2641 1.349 . S
C2657 H2649 0.950 . S
C2657 C2655 1.327 . S
C2658 C2646 1.349 . S
C2658 H2652 0.950 . S
C2658 C2659 1.327 . S
C2659 H2653 0.950 . S
C2659 C2658 1.327 . S
C2659 C2663 1.429 . S
C2660 C2643 1.574 . S
C2660 H2654 0.949 . S
C2660 C2664 1.368 . S
C2661 C2642 1.424 1_545 S
C2661 C2655 1.436 1_545 S
C2661 C2662 1.521 . S
C2662 C2643 1.368 . S
C2662 C2656 1.368 . S
C2662 C2661 1.521 . S
C2663 C2647 1.429 . S
C2663 C2659 1.429 . S
C2663 C2664 1.523 . S
C2664 C2648 1.368 . S
C2664 C2660 1.368 . S
C2664 C2663 1.523 . S
H2665 C2640 0.950 . S
H2666 C2642 0.950 . S
H2667 C2643 0.949 . S
H2668 C2645 0.950 . S
H2669 C2647 0.950 . S
C2670 C2671 1.349 . S
C2670 C2672 1.327 . S
C2670 H2695 0.950 . S
C2671 C2670 1.349 . S
C2671 C2687 1.349 . S
C2672 C2670 1.327 . S
C2672 C2691 1.429 . S
C2672 H2696 0.950 . S
C2673 C2690 1.574 1_655 S
C2673 C2692 1.368 . S
C2673 H2697 0.949 . S
H2674 C2678 0.949 . S
C2675 C2676 1.349 . S
C2675 C2677 1.327 . S
C2675 H2698 0.950 . S
C2676 C2675 1.349 . S
C2676 C2688 1.349 1_455 S
C2677 C2675 1.327 . S
C2677 C2693 1.402 1_455 S
C2677 H2699 0.950 . S
C2678 H2674 0.949 . S
C2678 C2686 1.574 . S
C2678 C2694 1.368 . S
H2679 C2687 0.950 . S
H2680 C2685 0.950 . S
H2681 C2686 0.949 . S
H2682 C2688 0.950 . S
H2683 C2689 0.950 . S
H2684 C2690 0.949 . S
C2685 H2680 0.950 . S
C2685 C2687 1.327 . S
C2685 C2691 1.429 . S
C2686 C2678 1.574 . S
C2686 H2681 0.949 . S
C2686 C2692 1.368 . S
C2687 C2671 1.349 . S
C2687 H2679 0.950 . S
C2687 C2685 1.327 . S
C2688 C2676 1.349 1_655 S
C2688 H2682 0.950 . S
C2688 C2689 1.327 . S
C2689 H2683 0.950 . S
C2689 C2688 1.327 . S
C2689 C2693 1.428 . S
C2690 C2673 1.574 1_455 S
C2690 H2684 0.949 . S
C2690 C2694 1.368 1_455 S
C2691 C2672 1.429 . S
C2691 C2685 1.429 . S
C2691 C2692 1.523 . S
C2692 C2673 1.368 . S
C2692 C2686 1.368 . S
C2692 C2691 1.523 . S
C2693 C2677 1.402 1_655 S
C2693 C2689 1.428 . S
C2693 C2694 1.548 . S
C2694 C2678 1.368 . S
C2694 C2690 1.368 1_655 S
C2694 C2693 1.548 . S
H2695 C2670 0.950 . S
H2696 C2672 0.950 . S
H2697 C2673 0.949 . S
H2698 C2675 0.950 . S
H2699 C2677 0.950 . S
C2700 C2701 1.349 . S
C2700 C2702 1.327 . S
C2700 H2725 0.950 . S
C2701 C2700 1.349 . S
C2701 C2717 1.349 . S
C2702 C2700 1.327 . S
C2702 C2721 1.429 . S
C2702 H2726 0.950 . S
C2703 C2720 1.574 . S
C2703 C2722 1.368 . S
C2703 H2727 0.949 . S
H2704 C2708 0.949 . S
C2705 C2706 1.349 . S
C2705 C2707 1.327 . S
C2705 H2728 0.950 . S
C2706 C2705 1.349 . S
C2706 C2718 1.349 . S
C2707 C2705 1.327 . S
C2707 C2723 1.429 . S
C2707 H2729 0.950 . S
C2708 H2704 0.949 . S
C2708 C2716 1.574 . S
C2708 C2724 1.368 . S
H2709 C2717 0.950 . S
H2710 C2715 0.950 . S
H2711 C2716 0.949 . S
H2712 C2718 0.950 . S
H2713 C2719 0.950 . S
H2714 C2720 0.949 . S
C2715 H2710 0.950 . S
C2715 C2717 1.327 . S
C2715 C2721 1.429 . S
C2716 C2708 1.574 . S
C2716 H2711 0.949 . S
C2716 C2722 1.368 . S
C2717 C2701 1.349 . S
C2717 H2709 0.950 . S
C2717 C2715 1.327 . S
C2718 C2706 1.349 . S
C2718 H2712 0.950 . S
C2718 C2719 1.327 . S
C2719 H2713 0.950 . S
C2719 C2718 1.327 . S
C2719 C2723 1.429 . S
C2720 C2703 1.574 . S
C2720 H2714 0.949 . S
C2720 C2724 1.368 . S
C2721 C2702 1.429 . S
C2721 C2715 1.429 . S
C2721 C2722 1.523 . S
C2722 C2703 1.368 . S
C2722 C2716 1.368 . S
C2722 C2721 1.523 . S
C2723 C2707 1.429 . S
C2723 C2719 1.429 . S
C2723 C2724 1.523 . S
C2724 C2708 1.368 . S
C2724 C2720 1.368 . S
C2724 C2723 1.523 . S
H2725 C2700 0.950 . S
H2726 C2702 0.950 . S
H2727 C2703 0.949 . S
H2728 C2705 0.950 . S
H2729 C2707 0.950 . S
C2730 C2731 1.349 . S
C2730 C2732 1.327 . S
C2730 H2755 0.950 . S
C2731 C2730 1.349 . S
C2731 C2747 1.349 . S
C2732 C2730 1.327 . S
C2732 C2751 1.429 . S
C2732 H2756 0.950 . S
C2733 C2750 1.574 . S
C2733 C2752 1.368 . S
C2733 H2757 0.949 . S
H2734 C2738 0.949 . S
C2735 C2736 1.349 . S
C2735 C2737 1.327 . S
C2735 H2758 0.950 . S
C2736 C2735 1.349 . S
C2736 C2748 1.349 . S
C2737 C2735 1.327 . S
C2737 C2753 1.437 . S
C2737 H2759 0.950 1_565 S
C2738 H2734 0.949 . S
C2738 C2746 1.574 . S
C2738 C2754 1.368 . S
H2739 C2747 0.950 . S
H2740 C2745 0.950 . S
H2741 C2746 0.949 . S
H2742 C2748 0.950 . S
H2743 C2749 0.950 . S
H2744 C2750 0.949 . S
C2745 H2740 0.950 . S
C2745 C2747 1.327 . S
C2745 C2751 1.429 . S
C2746 C2738 1.574 . S
C2746 H2741 0.949 . S
C2746 C2752 1.368 . S
C2747 C2731 1.349 . S
C2747 H2739 0.950 . S
C2747 C2745 1.327 . S
C2748 C2736 1.349 . S
C2748 H2742 0.950 . S
C2748 C2749 1.327 . S
C2749 H2743 0.950 . S
C2749 C2748 1.327 . S
C2749 C2753 1.440 . S
C2750 C2733 1.574 . S
C2750 H2744 0.949 . S
C2750 C2754 1.368 . S
C2751 C2732 1.429 . S
C2751 C2745 1.429 . S
C2751 C2752 1.523 . S
C2752 C2733 1.368 . S
C2752 C2746 1.368 . S
C2752 C2751 1.523 . S
C2753 C2737 1.437 . S
C2753 C2749 1.440 . S
C2753 C2754 1.505 1_565 S
C2754 C2738 1.368 . S
C2754 C2750 1.368 . S
C2754 C2753 1.505 1_545 S
H2755 C2730 0.950 . S
H2756 C2732 0.950 . S
H2757 C2733 0.949 . S
H2758 C2735 0.950 . S
H2759 C2737 0.950 1_545 S
C2760 C2761 1.349 . S
C2760 C2762 1.327 . S
C2760 H2785 0.950 . S
C2761 C2760 1.349 . S
C2761 C2777 1.349 . S
C2762 C2760 1.327 . S
C2762 C2781 1.429 . S
C2762 H2786 0.950 . S
C2763 C2780 1.574 . S
C2763 C2782 1.368 . S
C2763 H2787 0.949 . S
H2764 C2768 0.949 . S
C2765 C2766 1.349 . S
C2765 C2767 1.327 . S
C2765 H2788 0.950 . S
C2766 C2765 1.349 . S
C2766 C2778 1.349 . S
C2767 C2765 1.327 . S
C2767 C2783 1.434 . S
C2767 H2789 0.950 . S
C2768 H2764 0.949 . S
C2768 C2776 1.574 . S
C2768 C2784 1.368 . S
H2769 C2777 0.950 . S
H2770 C2775 0.950 . S
H2771 C2776 0.949 . S
H2772 C2778 0.950 . S
H2773 C2779 0.950 1_655 S
H2774 C2780 0.949 . S
C2775 H2770 0.950 . S
C2775 C2777 1.327 . S
C2775 C2781 1.429 . S
C2776 C2768 1.574 . S
C2776 H2771 0.949 . S
C2776 C2782 1.368 . S
C2777 C2761 1.349 . S
C2777 H2769 0.950 . S
C2777 C2775 1.327 . S
C2778 C2766 1.349 . S
C2778 H2772 0.950 . S
C2778 C2779 1.327 . S
C2779 H2773 0.950 1_455 S
C2779 C2778 1.327 . S
C2779 C2783 1.422 . S
C2780 C2763 1.574 . S
C2780 H2774 0.949 . S
C2780 C2784 1.368 . S
C2781 C2762 1.429 . S
C2781 C2775 1.429 . S
C2781 C2782 1.523 . S
C2782 C2763 1.368 . S
C2782 C2776 1.368 . S
C2782 C2781 1.523 . S
C2783 C2767 1.434 . S
C2783 C2779 1.422 . S
C2783 C2784 1.524 1_455 S
C2784 C2768 1.368 . S
C2784 C2780 1.368 . S
C2784 C2783 1.524 1_655 S
H2785 C2760 0.950 . S
H2786 C2762 0.950 . S
H2787 C2763 0.949 . S
H2788 C2765 0.950 . S
H2789 C2767 0.950 . S
C2790 C2791 1.349 . S
C2790 C2792 1.327 . S
C2790 H2815 0.950 . S
C2791 C2790 1.349 . S
C2791 C2807 1.349 . S
C2792 C2790 1.327 . S
C2792 C2811 1.429 . S
C2792 H2816 0.950 . S
C2793 C2810 1.574 . S
C2793 C2812 1.368 . S
C2793 H2817 0.949 . S
H2794 C2798 0.949 . S
C2795 C2796 1.349 . S
C2795 C2797 1.327 . S
C2795 H2818 0.950 . S
C2796 C2795 1.349 . S
C2796 C2808 1.349 . S
C2797 C2795 1.327 . S
C2797 C2813 1.429 . S
C2797 H2819 0.950 . S
C2798 H2794 0.949 . S
C2798 C2806 1.574 . S
C2798 C2814 1.368 . S
H2799 C2807 0.950 . S
H2800 C2805 0.950 . S
H2801 C2806 0.949 . S
H2802 C2808 0.950 . S
H2803 C2809 0.950 . S
H2804 C2810 0.949 . S
C2805 H2800 0.950 . S
C2805 C2807 1.327 . S
C2805 C2811 1.429 . S
C2806 C2798 1.574 . S
C2806 H2801 0.949 . S
C2806 C2812 1.368 . S
C2807 C2791 1.349 . S
C2807 H2799 0.950 . S
C2807 C2805 1.327 . S
C2808 C2796 1.349 . S
C2808 H2802 0.950 . S
C2808 C2809 1.327 . S
C2809 H2803 0.950 . S
C2809 C2808 1.327 . S
C2809 C2813 1.429 . S
C2810 C2793 1.574 . S
C2810 H2804 0.949 . S
C2810 C2814 1.368 . S
C2811 C2792 1.429 . S
C2811 C2805 1.429 . S
C2811 C2812 1.523 . S
C2812 C2793 1.368 . S
C2812 C2806 1.368 . S
C2812 C2811 1.523 . S
C2813 C2797 1.429 . S
C2813 C2809 1.429 . S
C2813 C2814 1.523 . S
C2814 C2798 1.368 . S
C2814 C2810 1.368 . S
C2814 C2813 1.523 . S
H2815 C2790 0.950 . S
H2816 C2792 0.950 . S
H2817 C2793 0.949 . S
H2818 C2795 0.950 . S
H2819 C2797 0.950 . S
C2820 C2821 1.349 . S
C2820 C2822 1.327 . S
C2820 H2845 0.950 . S
C2821 C2820 1.349 . S
C2821 C2837 1.351 . S
C2822 C2820 1.327 . S
C2822 C2841 1.409 1_545 S
C2822 H2846 0.950 . S
C2823 C2840 1.574 . S
C2823 C2842 1.368 . S
C2823 H2847 0.949 . S
H2824 C2828 0.949 . S
C2825 C2826 1.349 . S
C2825 C2827 1.327 . S
C2825 H2848 0.950 . S
C2826 C2825 1.349 . S
C2826 C2838 1.349 . S
C2827 C2825 1.327 . S
C2827 C2843 1.429 . S
C2827 H2849 0.950 . S
C2828 H2824 0.949 . S
C2828 C2836 1.575 1_565 S
C2828 C2844 1.368 . S
H2829 C2837 0.947 1_565 S
H2830 C2835 0.950 . S
H2831 C2836 0.965 . S
H2832 C2838 0.950 . S
H2833 C2839 0.950 . S
H2834 C2840 0.949 . S
C2835 H2830 0.950 . S
C2835 C2837 1.327 1_565 S
C2835 C2841 1.451 . S
C2836 C2828 1.575 1_545 S
C2836 H2831 0.965 . S
C2836 C2842 1.349 1_545 S
C2837 C2821 1.351 . S
C2837 H2829 0.947 1_545 S
C2837 C2835 1.327 1_545 S
C2838 C2826 1.349 . S
C2838 H2832 0.950 . S
C2838 C2839 1.327 . S
C2839 H2833 0.950 . S
C2839 C2838 1.327 . S
C2839 C2843 1.429 . S
C2840 C2823 1.574 . S
C2840 H2834 0.949 . S
C2840 C2844 1.368 . S
C2841 C2822 1.409 1_565 S
C2841 C2835 1.451 . S
C2841 C2842 1.521 . S
C2842 C2823 1.368 . S
C2842 C2836 1.349 1_565 S
C2842 C2841 1.521 . S
C2843 C2827 1.429 . S
C2843 C2839 1.429 . S
C2843 C2844 1.523 . S
C2844 C2828 1.368 . S
C2844 C2840 1.368 . S
C2844 C2843 1.523 . S
H2845 C2820 0.950 . S
H2846 C2822 0.950 . S
H2847 C2823 0.949 . S
H2848 C2825 0.950 . S
H2849 C2827 0.950 . S
C2850 C2851 1.349 . S
C2850 C2852 1.331 1_655 S
C2850 H2875 0.950 . S
C2851 C2850 1.349 . S
C2851 C2867 1.349 . S
C2852 C2850 1.331 1_455 S
C2852 C2871 1.419 . S
C2852 H2876 0.947 . S
C2853 C2870 1.574 . S
C2853 C2872 1.368 . S
C2853 H2877 0.949 . S
H2854 C2858 0.949 . S
C2855 C2856 1.349 . S
C2855 C2857 1.327 . S
C2855 H2878 0.950 . S
C2856 C2855 1.349 . S
C2856 C2868 1.349 . S
C2857 C2855 1.327 . S
C2857 C2873 1.429 . S
C2857 H2879 0.950 . S
C2858 H2854 0.949 . S
C2858 C2866 1.574 . S
C2858 C2874 1.368 . S
H2859 C2867 0.950 . S
H2860 C2865 0.950 . S
H2861 C2866 0.949 . S
H2862 C2868 0.950 . S
H2863 C2869 0.950 . S
H2864 C2870 0.949 . S
C2865 H2860 0.950 . S
C2865 C2867 1.327 . S
C2865 C2871 1.410 1_655 S
C2866 C2858 1.574 . S
C2866 H2861 0.949 . S
C2866 C2872 1.368 . S
C2867 C2851 1.349 . S
C2867 H2859 0.950 . S
C2867 C2865 1.327 . S
C2868 C2856 1.349 . S
C2868 H2862 0.950 . S
C2868 C2869 1.327 . S
C2869 H2863 0.950 . S
C2869 C2868 1.327 . S
C2869 C2873 1.429 . S
C2870 C2853 1.574 . S
C2870 H2864 0.949 . S
C2870 C2874 1.368 . S
C2871 C2852 1.419 . S
C2871 C2865 1.410 1_455 S
C2871 C2872 1.548 . S
C2872 C2853 1.368 . S
C2872 C2866 1.368 . S
C2872 C2871 1.548 . S
C2873 C2857 1.429 . S
C2873 C2869 1.429 . S
C2873 C2874 1.523 . S
C2874 C2858 1.368 . S
C2874 C2870 1.368 . S
C2874 C2873 1.523 . S
H2875 C2850 0.950 . S
H2876 C2852 0.947 . S
H2877 C2853 0.949 . S
H2878 C2855 0.950 . S
H2879 C2857 0.950 . S
C2880 C2881 1.349 . S
C2880 C2882 1.327 . S
C2880 H2905 0.950 . S
C2881 C2880 1.349 . S
C2881 C2897 1.349 . S
C2882 C2880 1.327 . S
C2882 C2901 1.429 . S
C2882 H2906 0.950 . S
C2883 C2900 1.574 . S
C2883 C2902 1.368 1_455 S
C2883 H2907 0.949 1_455 S
H2884 C2888 0.949 . S
C2885 C2886 1.349 . S
C2885 C2887 1.327 . S
C2885 H2908 0.950 . S
C2886 C2885 1.349 . S
C2886 C2898 1.349 . S
C2887 C2885 1.327 . S
C2887 C2903 1.429 . S
C2887 H2909 0.950 . S
C2888 H2884 0.949 . S
C2888 C2896 1.574 1_455 S
C2888 C2904 1.368 . S
H2889 C2897 0.950 . S
H2890 C2895 0.950 . S
H2891 C2896 0.949 . S
H2892 C2898 0.950 . S
H2893 C2899 0.950 . S
H2894 C2900 0.949 . S
C2895 H2890 0.950 . S
C2895 C2897 1.327 . S
C2895 C2901 1.429 . S
C2896 C2888 1.574 1_655 S
C2896 H2891 0.949 . S
C2896 C2902 1.368 . S
C2897 C2881 1.349 . S
C2897 H2889 0.950 . S
C2897 C2895 1.327 . S
C2898 C2886 1.349 . S
C2898 H2892 0.950 . S
C2898 C2899 1.327 . S
C2899 H2893 0.950 . S
C2899 C2898 1.327 . S
C2899 C2903 1.429 . S
C2900 C2883 1.574 . S
C2900 H2894 0.949 . S
C2900 C2904 1.368 . S
C2901 C2882 1.429 . S
C2901 C2895 1.429 . S
C2901 C2902 1.523 . S
C2902 C2883 1.368 1_655 S
C2902 C2896 1.368 . S
C2902 C2901 1.523 . S
C2903 C2887 1.429 . S
C2903 C2899 1.429 . S
C2903 C2904 1.523 . S
C2904 C2888 1.368 . S
C2904 C2900 1.368 . S
C2904 C2903 1.523 . S
H2905 C2880 0.950 . S
H2906 C2882 0.950 . S
H2907 C2883 0.949 1_655 S
H2908 C2885 0.950 . S
H2909 C2887 0.950 . S
C2910 C2911 1.349 . S
C2910 C2912 1.327 . S
C2910 H2935 0.950 . S
C2911 C2910 1.349 . S
C2911 C2927 1.349 . S
C2912 C2910 1.327 . S
C2912 C2931 1.429 . S
C2912 H2936 0.950 . S
C2913 C2930 1.574 . S
C2913 C2932 1.368 . S
C2913 H2937 0.949 . S
H2914 C2918 0.949 . S
C2915 C2916 1.349 . S
C2915 C2917 1.327 . S
C2915 H2938 0.950 . S
C2916 C2915 1.349 . S
C2916 C2928 1.349 . S
C2917 C2915 1.327 . S
C2917 C2933 1.429 . S
C2917 H2939 0.950 . S
C2918 H2914 0.949 . S
C2918 C2926 1.574 . S
C2918 C2934 1.368 . S
H2919 C2927 0.950 . S
H2920 C2925 0.950 . S
H2921 C2926 0.949 . S
H2922 C2928 0.950 . S
H2923 C2929 0.950 . S
H2924 C2930 0.949 . S
C2925 H2920 0.950 . S
C2925 C2927 1.327 . S
C2925 C2931 1.429 . S
C2926 C2918 1.574 . S
C2926 H2921 0.949 . S
C2926 C2932 1.368 . S
C2927 C2911 1.349 . S
C2927 H2919 0.950 . S
C2927 C2925 1.327 . S
C2928 C2916 1.349 . S
C2928 H2922 0.950 . S
C2928 C2929 1.327 . S
C2929 H2923 0.950 . S
C2929 C2928 1.327 . S
C2929 C2933 1.429 . S
C2930 C2913 1.574 . S
C2930 H2924 0.949 . S
C2930 C2934 1.368 . S
C2931 C2912 1.429 . S
C2931 C2925 1.429 . S
C2931 C2932 1.523 . S
C2932 C2913 1.368 . S
C2932 C2926 1.368 . S
C2932 C2931 1.523 . S
C2933 C2917 1.429 . S
C2933 C2929 1.429 . S
C2933 C2934 1.523 . S
C2934 C2918 1.368 . S
C2934 C2930 1.368 . S
C2934 C2933 1.523 . S
H2935 C2910 0.950 . S
H2936 C2912 0.950 . S
H2937 C2913 0.949 . S
H2938 C2915 0.950 . S
H2939 C2917 0.950 . S
C2940 C2941 1.349 . S
C2940 C2942 1.327 . S
C2940 H2965 0.950 . S
C2941 C2940 1.349 . S
C2941 C2957 1.349 . S
C2942 C2940 1.327 . S
C2942 C2961 1.429 . S
C2942 H2966 0.950 . S
C2943 C2960 1.574 . S
C2943 C2962 1.368 . S
C2943 H2967 0.949 . S
H2944 C2948 0.985 . S
C2945 C2946 1.349 . S
C2945 C2947 1.327 . S
C2945 H2968 0.950 . S
C2946 C2945 1.349 . S
C2946 C2958 1.349 . S
C2947 C2945 1.327 . S
C2947 C2963 1.429 . S
C2947 H2969 0.950 . S
C2948 H2944 0.985 . S
C2948 C2956 1.533 1_545 S
C2948 C2964 1.371 . S
H2949 C2957 0.950 . S
H2950 C2955 0.950 . S
H2951 C2956 0.949 . S
H2952 C2958 0.950 . S
H2953 C2959 0.950 . S
H2954 C2960 0.949 1_545 S
C2955 H2950 0.950 . S
C2955 C2957 1.327 . S
C2955 C2961 1.429 . S
C2956 C2948 1.533 1_565 S
C2956 H2951 0.949 . S
C2956 C2962 1.368 . S
C2957 C2941 1.349 . S
C2957 H2949 0.950 . S
C2957 C2955 1.327 . S
C2958 C2946 1.349 . S
C2958 H2952 0.950 . S
C2958 C2959 1.327 . S
C2959 H2953 0.950 . S
C2959 C2958 1.327 . S
C2959 C2963 1.429 . S
C2960 C2943 1.574 . S
C2960 H2954 0.949 1_565 S
C2960 C2964 1.368 1_565 S
C2961 C2942 1.429 . S
C2961 C2955 1.429 . S
C2961 C2962 1.523 . S
C2962 C2943 1.368 . S
C2962 C2956 1.368 . S
C2962 C2961 1.523 . S
C2963 C2947 1.429 . S
C2963 C2959 1.429 . S
C2963 C2964 1.523 . S
C2964 C2948 1.371 . S
C2964 C2960 1.368 1_545 S
C2964 C2963 1.523 . S
H2965 C2940 0.950 . S
H2966 C2942 0.950 . S
H2967 C2943 0.949 . S
H2968 C2945 0.950 . S
H2969 C2947 0.950 . S
C2970 C2971 1.349 . S
C2970 C2972 1.327 . S
C2970 H2995 0.950 . S
C2971 C2970 1.349 . S
C2971 C2987 1.349 . S
C2972 C2970 1.327 . S
C2972 C2991 1.429 . S
C2972 H2996 0.950 . S
C2973 C2990 1.574 . S
C2973 C2992 1.368 . S
C2973 H2997 0.949 . S
H2974 C2978 0.949 . S
C2975 C2976 1.332 1_455 S
C2975 C2977 1.330 . S
C2975 H2998 0.965 . S
C2976 C2975 1.332 1_655 S
C2976 C2988 1.349 . S
C2977 C2975 1.330 . S
C2977 C2993 1.429 . S
C2977 H2999 0.950 . S
C2978 H2974 0.949 . S
C2978 C2986 1.574 . S
C2978 C2994 1.368 . S
H2979 C2987 0.950 . S
H2980 C2985 0.950 . S
H2981 C2986 0.949 . S
H2982 C2988 0.950 . S
H2983 C2989 0.950 . S
H2984 C2990 0.949 . S
C2985 H2980 0.950 . S
C2985 C2987 1.327 . S
C2985 C2991 1.429 . S
C2986 C2978 1.574 . S
C2986 H2981 0.949 . S
C2986 C2992 1.368 . S
C2987 C2971 1.349 . S
C2987 H2979 0.950 . S
C2987 C2985 1.327 . S
C2988 C2976 1.349 . S
C2988 H2982 0.950 . S
C2988 C2989 1.327 . S
C2989 H2983 0.950 . S
C2989 C2988 1.327 . S
C2989 C2993 1.429 1_655 S
C2990 C2973 1.574 . S
C2990 H2984 0.949 . S
C2990 C2994 1.368 . S
C2991 C2972 1.429 . S
C2991 C2985 1.429 . S
C2991 C2992 1.523 . S
C2992 C2973 1.368 . S
C2992 C2986 1.368 . S
C2992 C2991 1.523 . S
C2993 C2977 1.429 . S
C2993 C2989 1.429 1_455 S
C2993 C2994 1.523 . S
C2994 C2978 1.368 . S
C2994 C2990 1.368 . S
C2994 C2993 1.523 . S
H2995 C2970 0.950 . S
H2996 C2972 0.950 . S
H2997 C2973 0.949 . S
H2998 C2975 0.965 . S
H2999 C2977 0.950 . S
C3000 C3001 1.349 . S
C3000 C3002 1.327 . S
C3000 H3025 0.950 . S
C3001 C3000 1.349 . S
C3001 C3017 1.349 . S
C3002 C3000 1.327 . S
C3002 C3021 1.429 . S
C3002 H3026 0.950 . S
C3003 C3020 1.574 . S
C3003 C3022 1.368 . S
C3003 H3027 0.949 . S
H3004 C3008 0.949 . S
C3005 C3006 1.349 . S
C3005 C3007 1.327 . S
C3005 H3028 0.950 . S
C3006 C3005 1.349 . S
C3006 C3018 1.349 . S
C3007 C3005 1.327 . S
C3007 C3023 1.429 . S
C3007 H3029 0.950 . S
C3008 H3004 0.949 . S
C3008 C3016 1.574 . S
C3008 C3024 1.368 . S
H3009 C3017 0.950 . S
H3010 C3015 0.950 . S
H3011 C3016 0.949 . S
H3012 C3018 0.950 . S
H3013 C3019 0.950 . S
H3014 C3020 0.949 . S
C3015 H3010 0.950 . S
C3015 C3017 1.327 . S
C3015 C3021 1.429 . S
C3016 C3008 1.574 . S
C3016 H3011 0.949 . S
C3016 C3022 1.368 . S
C3017 C3001 1.349 . S
C3017 H3009 0.950 . S
C3017 C3015 1.327 . S
C3018 C3006 1.349 . S
C3018 H3012 0.950 . S
C3018 C3019 1.327 . S
C3019 H3013 0.950 . S
C3019 C3018 1.327 . S
C3019 C3023 1.429 . S
C3020 C3003 1.574 . S
C3020 H3014 0.949 . S
C3020 C3024 1.368 . S
C3021 C3002 1.429 . S
C3021 C3015 1.429 . S
C3021 C3022 1.523 . S
C3022 C3003 1.368 . S
C3022 C3016 1.368 . S
C3022 C3021 1.523 . S
C3023 C3007 1.429 . S
C3023 C3019 1.429 . S
C3023 C3024 1.523 . S
C3024 C3008 1.368 . S
C3024 C3020 1.368 . S
C3024 C3023 1.523 . S
H3025 C3000 0.950 . S
H3026 C3002 0.950 . S
H3027 C3003 0.949 . S
H3028 C3005 0.950 . S
H3029 C3007 0.950 . S
C3030 C3031 1.349 . S
C3030 C3032 1.327 . S
C3030 H3055 0.950 . S
C3031 C3030 1.349 . S
C3031 C3047 1.349 . S
C3032 C3030 1.327 . S
C3032 C3051 1.429 . S
C3032 H3056 0.950 . S
C3033 C3050 1.574 . S
C3033 C3052 1.368 . S
C3033 H3057 0.949 . S
H3034 C3038 0.949 . S
C3035 C3036 1.349 1_565 S
C3035 C3037 1.327 . S
C3035 H3058 0.950 . S
C3036 C3035 1.349 1_545 S
C3036 C3048 1.349 . S
C3037 C3035 1.327 . S
C3037 C3053 1.429 . S
C3037 H3059 0.950 . S
C3038 H3034 0.949 . S
C3038 C3046 1.574 . S
C3038 C3054 1.368 . S
H3039 C3047 0.950 . S
H3040 C3045 0.950 . S
H3041 C3046 0.949 . S
H3042 C3048 0.950 . S
H3043 C3049 0.950 . S
H3044 C3050 0.949 . S
C3045 H3040 0.950 . S
C3045 C3047 1.327 . S
C3045 C3051 1.429 . S
C3046 C3038 1.574 . S
C3046 H3041 0.949 . S
C3046 C3052 1.368 . S
C3047 C3031 1.349 . S
C3047 H3039 0.950 . S
C3047 C3045 1.327 . S
C3048 C3036 1.349 . S
C3048 H3042 0.950 . S
C3048 C3049 1.327 . S
C3049 H3043 0.950 . S
C3049 C3048 1.327 . S
C3049 C3053 1.429 1_545 S
C3050 C3033 1.574 . S
C3050 H3044 0.949 . S
C3050 C3054 1.368 . S
C3051 C3032 1.429 . S
C3051 C3045 1.429 . S
C3051 C3052 1.523 . S
C3052 C3033 1.368 . S
C3052 C3046 1.368 . S
C3052 C3051 1.523 . S
C3053 C3037 1.429 . S
C3053 C3049 1.429 1_565 S
C3053 C3054 1.523 . S
C3054 C3038 1.368 . S
C3054 C3050 1.368 . S
C3054 C3053 1.523 . S
H3055 C3030 0.950 . S
H3056 C3032 0.950 . S
H3057 C3033 0.949 . S
H3058 C3035 0.950 . S
H3059 C3037 0.950 . S
C3060 C3061 1.349 . S
C3060 C3062 1.327 . S
C3060 H3085 0.950 . S
C3061 C3060 1.349 . S
C3061 C3077 1.349 . S
C3062 C3060 1.327 . S
C3062 C3081 1.429 . S
C3062 H3086 0.950 . S
C3063 C3080 1.574 . S
C3063 C3082 1.368 . S
C3063 H3087 0.949 . S
H3064 C3068 0.949 . S
C3065 C3066 1.348 . S
C3065 C3067 1.327 1_545 S
C3065 H3088 0.951 1_545 S
C3066 C3065 1.348 . S
C3066 C3078 1.349 . S
C3067 C3065 1.327 1_565 S
C3067 C3083 1.429 . S
C3067 H3089 0.950 . S
C3068 H3064 0.949 . S
C3068 C3076 1.574 . S
C3068 C3084 1.368 . S
H3069 C3077 0.950 . S
H3070 C3075 0.950 . S
H3071 C3076 0.949 . S
H3072 C3078 0.950 . S
H3073 C3079 0.950 . S
H3074 C3080 0.949 . S
C3075 H3070 0.950 . S
C3075 C3077 1.327 . S
C3075 C3081 1.429 . S
C3076 C3068 1.574 . S
C3076 H3071 0.949 . S
C3076 C3082 1.368 . S
C3077 C3061 1.349 . S
C3077 H3069 0.950 . S
C3077 C3075 1.327 . S
C3078 C3066 1.349 . S
C3078 H3072 0.950 . S
C3078 C3079 1.327 . S
C3079 H3073 0.950 . S
C3079 C3078 1.327 . S
C3079 C3083 1.429 1_545 S
C3080 C3063 1.574 . S
C3080 H3074 0.949 . S
C3080 C3084 1.368 . S
C3081 C3062 1.429 . S
C3081 C3075 1.429 . S
C3081 C3082 1.523 . S
C3082 C3063 1.368 . S
C3082 C3076 1.368 . S
C3082 C3081 1.523 . S
C3083 C3067 1.429 . S
C3083 C3079 1.429 1_565 S
C3083 C3084 1.523 . S
C3084 C3068 1.368 . S
C3084 C3080 1.368 . S
C3084 C3083 1.523 . S
H3085 C3060 0.950 . S
H3086 C3062 0.950 . S
H3087 C3063 0.949 . S
H3088 C3065 0.951 1_565 S
H3089 C3067 0.950 . S
C3090 C3091 1.349 . S
C3090 C3092 1.324 . S
C3090 H3115 0.950 . S
C3091 C3090 1.349 . S
C3091 C3107 1.349 . S
C3092 C3090 1.324 . S
C3092 C3111 1.431 1_655 S
C3092 H3116 0.951 1_655 S
C3093 C3110 1.574 . S
C3093 C3112 1.368 . S
C3093 H3117 0.949 . S
H3094 C3098 0.949 . S
C3095 C3096 1.349 . S
C3095 C3097 1.327 . S
C3095 H3118 0.950 . S
C3096 C3095 1.349 . S
C3096 C3108 1.349 . S
C3097 C3095 1.327 . S
C3097 C3113 1.429 . S
C3097 H3119 0.950 . S
C3098 H3094 0.949 . S
C3098 C3106 1.574 . S
C3098 C3114 1.368 . S
H3099 C3107 0.950 . S
H3100 C3105 0.950 . S
H3101 C3106 0.949 . S
H3102 C3108 0.950 . S
H3103 C3109 0.950 . S
H3104 C3110 0.949 . S
C3105 H3100 0.950 . S
C3105 C3107 1.327 1_455 S
C3105 C3111 1.429 . S
C3106 C3098 1.574 . S
C3106 H3101 0.949 . S
C3106 C3112 1.368 . S
C3107 C3091 1.349 . S
C3107 H3099 0.950 . S
C3107 C3105 1.327 1_655 S
C3108 C3096 1.349 . S
C3108 H3102 0.950 . S
C3108 C3109 1.327 . S
C3109 H3103 0.950 . S
C3109 C3108 1.327 . S
C3109 C3113 1.429 . S
C3110 C3093 1.574 . S
C3110 H3104 0.949 . S
C3110 C3114 1.368 . S
C3111 C3092 1.431 1_455 S
C3111 C3105 1.429 . S
C3111 C3112 1.523 . S
C3112 C3093 1.368 . S
C3112 C3106 1.368 . S
C3112 C3111 1.523 . S
C3113 C3097 1.429 . S
C3113 C3109 1.429 . S
C3113 C3114 1.523 . S
C3114 C3098 1.368 . S
C3114 C3110 1.368 . S
C3114 C3113 1.523 . S
H3115 C3090 0.950 . S
H3116 C3092 0.951 1_455 S
H3117 C3093 0.949 . S
H3118 C3095 0.950 . S
H3119 C3097 0.950 . S
C3120 C3121 1.349 . S
C3120 C3122 1.327 . S
C3120 H3145 0.950 . S
C3121 C3120 1.349 . S
C3121 C3137 1.349 . S
C3122 C3120 1.327 . S
C3122 C3141 1.429 . S
C3122 H3146 0.950 . S
C3123 C3140 1.574 . S
C3123 C3142 1.368 . S
C3123 H3147 0.949 . S
H3124 C3128 0.949 . S
C3125 C3126 1.349 . S
C3125 C3127 1.327 . S
C3125 H3148 0.950 . S
C3126 C3125 1.349 . S
C3126 C3138 1.349 . S
C3127 C3125 1.327 . S
C3127 C3143 1.429 . S
C3127 H3149 0.950 . S
C3128 H3124 0.949 . S
C3128 C3136 1.574 . S
C3128 C3144 1.368 . S
H3129 C3137 0.950 . S
H3130 C3135 0.950 . S
H3131 C3136 0.949 . S
H3132 C3138 0.950 . S
H3133 C3139 0.950 . S
H3134 C3140 0.949 . S
C3135 H3130 0.950 . S
C3135 C3137 1.327 . S
C3135 C3141 1.429 . S
C3136 C3128 1.574 . S
C3136 H3131 0.949 . S
C3136 C3142 1.368 . S
C3137 C3121 1.349 . S
C3137 H3129 0.950 . S
C3137 C3135 1.327 . S
C3138 C3126 1.349 . S
C3138 H3132 0.950 . S
C3138 C3139 1.327 . S
C3139 H3133 0.950 . S
C3139 C3138 1.327 . S
C3139 C3143 1.429 . S
C3140 C3123 1.574 . S
C3140 H3134 0.949 . S
C3140 C3144 1.368 . S
C3141 C3122 1.429 . S
C3141 C3135 1.429 . S
C3141 C3142 1.523 . S
C3142 C3123 1.368 . S
C3142 C3136 1.368 . S
C3142 C3141 1.523 . S
C3143 C3127 1.429 . S
C3143 C3139 1.429 . S
C3143 C3144 1.523 . S
C3144 C3128 1.368 . S
C3144 C3140 1.368 . S
C3144 C3143 1.523 . S
H3145 C3120 0.950 . S
H3146 C3122 0.950 . S
H3147 C3123 0.949 . S
H3148 C3125 0.950 . S
H3149 C3127 0.950 . S
C3150 C3151 1.366 . S
C3150 C3152 1.327 . S
C3150 H3175 0.950 . S
C3151 C3150 1.366 . S
C3151 C3167 1.331 1_554 S
C3152 C3150 1.327 . S
C3152 C3171 1.374 1_554 S
C3152 H3176 0.950 . S
C3153 C3170 1.574 1_565 S
C3153 C3172 1.491 . S
C3153 H3177 0.949 . S
H3154 C3158 0.949 . S
C3155 C3156 1.349 . S
C3155 C3157 1.327 . S
C3155 H3178 0.950 . S
C3156 C3155 1.349 . S
C3156 C3168 1.349 1_556 S
C3157 C3155 1.327 . S
C3157 C3173 1.429 . S
C3157 H3179 0.950 . S
C3158 H3154 0.949 . S
C3158 C3166 1.574 1_545 S
C3158 C3174 1.368 1_554 S
H3159 C3167 0.950 . S
H3160 C3165 0.950 . S
H3161 C3166 0.949 . S
H3162 C3168 0.950 . S
H3163 C3169 0.950 . S
H3164 C3170 0.949 . S
C3165 H3160 0.950 . S
C3165 C3167 1.327 . S
C3165 C3171 1.481 . S
C3166 C3158 1.574 1_565 S
C3166 H3161 0.949 . S
C3166 C3172 1.260 1_554 S
C3167 C3151 1.331 1_556 S
C3167 H3159 0.950 . S
C3167 C3165 1.327 . S
C3168 C3156 1.349 1_554 S
C3168 H3162 0.950 . S
C3168 C3169 1.327 . S
C3169 H3163 0.950 . S
C3169 C3168 1.327 . S
C3169 C3173 1.429 1_554 S
C3170 C3153 1.574 1_545 S
C3170 H3164 0.949 . S
C3170 C3174 1.368 . S
C3171 C3152 1.374 1_556 S
C3171 C3165 1.481 . S
C3171 C3172 1.521 . S
C3172 C3153 1.491 . S
C3172 C3166 1.260 1_556 S
C3172 C3171 1.521 . S
C3173 C3157 1.429 . S
C3173 C3169 1.429 1_556 S
C3173 C3174 1.523 . S
C3174 C3158 1.368 1_556 S
C3174 C3170 1.368 . S
C3174 C3173 1.523 . S
H3175 C3150 0.950 . S
H3176 C3152 0.950 . S
H3177 C3153 0.949 . S
H3178 C3155 0.950 . S
H3179 C3157 0.950 . S
C3180 C3181 1.331 1_556 S
C3180 C3182 1.327 . S
C3180 H3205 0.950 . S
C3181 C3180 1.331 1_554 S
C3181 C3197 1.366 . S
C3182 C3180 1.327 . S
C3182 C3201 1.481 . S
C3182 H3206 0.950 . S
C3183 C3200 1.574 1_455 S
C3183 C3202 1.260 1_554 S
C3183 H3207 0.949 . S
H3184 C3188 0.949 . S
C3185 C3186 1.349 1_554 S
C3185 C3187 1.327 . S
C3185 H3208 0.950 . S
C3186 C3185 1.349 1_556 S
C3186 C3198 1.349 . S
C3187 C3185 1.327 . S
C3187 C3203 1.429 1_554 S
C3187 H3209 0.950 . S
C3188 H3184 0.949 . S
C3188 C3196 1.574 1_655 S
C3188 C3204 1.368 . S
H3189 C3197 0.950 . S
H3190 C3195 0.950 . S
H3191 C3196 0.949 . S
H3192 C3198 0.950 . S
H3193 C3199 0.950 . S
H3194 C3200 0.949 . S
C3195 H3190 0.950 . S
C3195 C3197 1.327 . S
C3195 C3201 1.374 1_554 S
C3196 C3188 1.574 1_455 S
C3196 H3191 0.949 . S
C3196 C3202 1.490 . S
C3197 C3181 1.366 . S
C3197 H3189 0.950 . S
C3197 C3195 1.327 . S
C3198 C3186 1.349 . S
C3198 H3192 0.950 . S
C3198 C3199 1.327 . S
C3199 H3193 0.950 . S
C3199 C3198 1.327 . S
C3199 C3203 1.429 . S
C3200 C3183 1.574 1_655 S
C3200 H3194 0.949 . S
C3200 C3204 1.368 1_554 S
C3201 C3182 1.481 . S
C3201 C3195 1.374 1_556 S
C3201 C3202 1.521 . S
C3202 C3183 1.260 1_556 S
C3202 C3196 1.490 . S
C3202 C3201 1.521 . S
C3203 C3187 1.429 1_556 S
C3203 C3199 1.429 . S
C3203 C3204 1.523 . S
C3204 C3188 1.368 . S
C3204 C3200 1.368 1_556 S
C3204 C3203 1.523 . S
H3205 C3180 0.950 . S
H3206 C3182 0.950 . S
H3207 C3183 0.949 . S
H3208 C3185 0.950 . S
H3209 C3187 0.950 . S
C3210 C3211 1.349 . S
C3210 C3212 1.327 . S
C3210 H3235 0.950 . S
C3211 C3210 1.349 . S
C3211 C3227 1.349 1_556 S
C3212 C3210 1.327 . S
C3212 C3231 1.429 . S
C3212 H3236 0.950 . S
C3213 C3230 1.574 . S
C3213 C3232 1.368 1_554 S
C3213 H3237 0.949 . S
H3214 C3218 0.949 . S
C3215 C3216 1.342 . S
C3215 C3217 1.327 . S
C3215 H3238 0.950 . S
C3216 C3215 1.342 . S
C3216 C3228 1.356 1_554 S
C3217 C3215 1.327 . S
C3217 C3233 1.359 1_554 S
C3217 H3239 0.950 . S
C3218 H3214 0.949 . S
C3218 C3226 1.574 . S
C3218 C3234 1.368 . S
H3219 C3227 0.950 . S
H3220 C3225 0.950 . S
H3221 C3226 0.949 . S
H3222 C3228 0.950 . S
H3223 C3229 0.950 . S
H3224 C3230 0.949 . S
C3225 H3220 0.950 . S
C3225 C3227 1.327 . S
C3225 C3231 1.429 1_554 S
C3226 C3218 1.574 . S
C3226 H3221 0.949 . S
C3226 C3232 1.368 . S
C3227 C3211 1.349 1_554 S
C3227 H3219 0.950 . S
C3227 C3225 1.327 . S
C3228 C3216 1.356 1_556 S
C3228 H3222 0.950 . S
C3228 C3229 1.327 . S
C3229 H3223 0.950 . S
C3229 C3228 1.327 . S
C3229 C3233 1.497 . S
C3230 C3213 1.574 . S
C3230 H3224 0.949 . S
C3230 C3234 1.368 1_554 S
C3231 C3212 1.429 . S
C3231 C3225 1.429 1_556 S
C3231 C3232 1.523 . S
C3232 C3213 1.368 1_556 S
C3232 C3226 1.368 . S
C3232 C3231 1.523 . S
C3233 C3217 1.359 1_556 S
C3233 C3229 1.497 . S
C3233 C3234 1.533 . S
C3234 C3218 1.368 . S
C3234 C3230 1.368 1_556 S
C3234 C3233 1.533 . S
H3235 C3210 0.950 . S
H3236 C3212 0.950 . S
H3237 C3213 0.949 . S
H3238 C3215 0.950 . S
H3239 C3217 0.950 . S
C3240 C3241 1.349 . S
C3240 C3242 1.327 . S
C3240 H3265 0.950 . S
C3241 C3240 1.349 . S
C3241 C3257 1.349 . S
C3242 C3240 1.327 . S
C3242 C3261 1.429 . S
C3242 H3266 0.950 . S
C3243 C3260 1.574 . S
C3243 C3262 1.368 . S
C3243 H3267 0.949 . S
H3244 C3248 0.949 . S
C3245 C3246 1.332 1_545 S
C3245 C3247 1.330 . S
C3245 H3268 0.966 . S
C3246 C3245 1.332 1_565 S
C3246 C3258 1.349 . S
C3247 C3245 1.330 . S
C3247 C3263 1.429 . S
C3247 H3269 0.950 . S
C3248 H3244 0.949 . S
C3248 C3256 1.574 . S
C3248 C3264 1.368 . S
H3249 C3257 0.950 . S
H3250 C3255 0.950 . S
H3251 C3256 0.949 . S
H3252 C3258 0.950 . S
H3253 C3259 0.950 . S
H3254 C3260 0.949 . S
C3255 H3250 0.950 . S
C3255 C3257 1.327 . S
C3255 C3261 1.429 . S
C3256 C3248 1.574 . S
C3256 H3251 0.949 . S
C3256 C3262 1.368 . S
C3257 C3241 1.349 . S
C3257 H3249 0.950 . S
C3257 C3255 1.327 . S
C3258 C3246 1.349 . S
C3258 H3252 0.950 . S
C3258 C3259 1.327 . S
C3259 H3253 0.950 . S
C3259 C3258 1.327 . S
C3259 C3263 1.429 1_565 S
C3260 C3243 1.574 . S
C3260 H3254 0.949 . S
C3260 C3264 1.368 . S
C3261 C3242 1.429 . S
C3261 C3255 1.429 . S
C3261 C3262 1.523 . S
C3262 C3243 1.368 . S
C3262 C3256 1.368 . S
C3262 C3261 1.523 . S
C3263 C3247 1.429 . S
C3263 C3259 1.429 1_545 S
C3263 C3264 1.523 . S
C3264 C3248 1.368 . S
C3264 C3260 1.368 . S
C3264 C3263 1.523 . S
H3265 C3240 0.950 . S
H3266 C3242 0.950 . S
H3267 C3243 0.949 . S
H3268 C3245 0.966 . S
H3269 C3247 0.950 . S
C3270 C3271 1.349 . S
C3270 C3272 1.327 . S
C3270 H3295 0.950 . S
C3271 C3270 1.349 . S
C3271 C3287 1.349 . S
C3272 C3270 1.327 . S
C3272 C3291 1.429 . S
C3272 H3296 0.950 . S
C3273 C3290 1.574 . S
C3273 C3292 1.368 . S
C3273 H3297 0.949 . S
H3274 C3278 0.949 . S
C3275 C3276 1.349 . S
C3275 C3277 1.327 1_455 S
C3275 H3298 0.950 . S
C3276 C3275 1.349 . S
C3276 C3288 1.349 . S
C3277 C3275 1.327 1_655 S
C3277 C3293 1.429 . S
C3277 H3299 0.950 . S
C3278 H3274 0.949 . S
C3278 C3286 1.574 . S
C3278 C3294 1.368 . S
H3279 C3287 0.950 . S
H3280 C3285 0.950 . S
H3281 C3286 0.949 . S
H3282 C3288 0.950 . S
H3283 C3289 0.950 . S
H3284 C3290 0.949 . S
C3285 H3280 0.950 . S
C3285 C3287 1.327 . S
C3285 C3291 1.429 . S
C3286 C3278 1.574 . S
C3286 H3281 0.949 . S
C3286 C3292 1.368 . S
C3287 C3271 1.349 . S
C3287 H3279 0.950 . S
C3287 C3285 1.327 . S
C3288 C3276 1.349 . S
C3288 H3282 0.950 . S
C3288 C3289 1.327 1_455 S
C3289 H3283 0.950 . S
C3289 C3288 1.327 1_655 S
C3289 C3293 1.429 . S
C3290 C3273 1.574 . S
C3290 H3284 0.949 . S
C3290 C3294 1.368 . S
C3291 C3272 1.429 . S
C3291 C3285 1.429 . S
C3291 C3292 1.523 . S
C3292 C3273 1.368 . S
C3292 C3286 1.368 . S
C3292 C3291 1.523 . S
C3293 C3277 1.429 . S
C3293 C3289 1.429 . S
C3293 C3294 1.523 . S
C3294 C3278 1.368 . S
C3294 C3290 1.368 . S
C3294 C3293 1.523 . S
H3295 C3270 0.950 . S
H3296 C3272 0.950 . S
H3297 C3273 0.949 . S
H3298 C3275 0.950 . S
H3299 C3277 0.950 . S
C3300 C3301 1.349 . S
C3300 C3302 1.327 . S
C3300 H3325 0.950 . S
C3301 C3300 1.349 . S
C3301 C3317 1.349 . S
C3302 C3300 1.327 . S
C3302 C3321 1.429 . S
C3302 H3326 0.950 . S
C3303 C3320 1.574 . S
C3303 C3322 1.368 . S
C3303 H3327 0.949 . S
H3304 C3308 0.949 . S
C3305 C3306 1.349 . S
C3305 C3307 1.327 . S
C3305 H3328 0.950 . S
C3306 C3305 1.349 . S
C3306 C3318 1.349 . S
C3307 C3305 1.327 . S
C3307 C3323 1.429 . S
C3307 H3329 0.950 . S
C3308 H3304 0.949 . S
C3308 C3316 1.574 . S
C3308 C3324 1.368 . S
H3309 C3317 0.950 . S
H3310 C3315 0.950 . S
H3311 C3316 0.949 . S
H3312 C3318 0.950 . S
H3313 C3319 0.950 . S
H3314 C3320 0.949 . S
C3315 H3310 0.950 . S
C3315 C3317 1.327 . S
C3315 C3321 1.429 . S
C3316 C3308 1.574 . S
C3316 H3311 0.949 . S
C3316 C3322 1.368 . S
C3317 C3301 1.349 . S
C3317 H3309 0.950 . S
C3317 C3315 1.327 . S
C3318 C3306 1.349 . S
C3318 H3312 0.950 . S
C3318 C3319 1.327 . S
C3319 H3313 0.950 . S
C3319 C3318 1.327 . S
C3319 C3323 1.429 . S
C3320 C3303 1.574 . S
C3320 H3314 0.949 . S
C3320 C3324 1.368 . S
C3321 C3302 1.429 . S
C3321 C3315 1.429 . S
C3321 C3322 1.523 . S
C3322 C3303 1.368 . S
C3322 C3316 1.368 . S
C3322 C3321 1.523 . S
C3323 C3307 1.429 . S
C3323 C3319 1.429 . S
C3323 C3324 1.523 . S
C3324 C3308 1.368 . S
C3324 C3320 1.368 . S
C3324 C3323 1.523 . S
H3325 C3300 0.950 . S
H3326 C3302 0.950 . S
H3327 C3303 0.949 . S
H3328 C3305 0.950 . S
H3329 C3307 0.950 . S
C3330 C3331 1.349 . S
C3330 C3332 1.327 . S
C3330 H3355 0.950 . S
C3331 C3330 1.349 . S
C3331 C3347 1.349 1_554 S
C3332 C3330 1.327 . S
C3332 C3351 1.429 . S
C3332 H3356 0.950 . S
C3333 C3350 1.574 1_565 S
C3333 C3352 1.368 1_556 S
C3333 H3357 0.949 . S
H3334 C3338 0.949 . S
C3335 C3336 1.341 . S
C3335 C3337 1.327 . S
C3335 H3358 0.950 . S
C3336 C3335 1.341 . S
C3336 C3348 1.357 1_556 S
C3337 C3335 1.327 . S
C3337 C3353 1.347 1_556 S
C3337 H3359 0.950 . S
C3338 H3334 0.949 . S
C3338 C3346 1.574 1_545 S
C3338 C3354 1.368 . S
H3339 C3347 0.950 . S
H3340 C3345 0.950 . S
H3341 C3346 0.949 . S
H3342 C3348 0.950 . S
H3343 C3349 0.950 . S
H3344 C3350 0.949 . S
C3345 H3340 0.950 . S
C3345 C3347 1.327 . S
C3345 C3351 1.429 1_556 S
C3346 C3338 1.574 1_565 S
C3346 H3341 0.949 . S
C3346 C3352 1.368 . S
C3347 C3331 1.349 1_556 S
C3347 H3339 0.950 . S
C3347 C3345 1.327 . S
C3348 C3336 1.357 1_554 S
C3348 H3342 0.950 . S
C3348 C3349 1.327 . S
C3349 H3343 0.950 . S
C3349 C3348 1.327 . S
C3349 C3353 1.509 . S
C3350 C3333 1.574 1_545 S
C3350 H3344 0.949 . S
C3350 C3354 1.368 1_556 S
C3351 C3332 1.429 . S
C3351 C3345 1.429 1_554 S
C3351 C3352 1.523 . S
C3352 C3333 1.368 1_554 S
C3352 C3346 1.368 . S
C3352 C3351 1.523 . S
C3353 C3337 1.347 1_554 S
C3353 C3349 1.509 . S
C3353 C3354 1.533 . S
C3354 C3338 1.368 . S
C3354 C3350 1.368 1_554 S
C3354 C3353 1.533 . S
H3355 C3330 0.950 . S
H3356 C3332 0.950 . S
H3357 C3333 0.949 . S
H3358 C3335 0.950 . S
H3359 C3337 0.950 . S
C3360 C3361 1.331 1_554 S
C3360 C3362 1.327 . S
C3360 H3385 0.950 . S
C3361 C3360 1.331 1_556 S
C3361 C3377 1.366 . S
C3362 C3360 1.327 . S
C3362 C3381 1.481 . S
C3362 H3386 0.950 . S
C3363 C3380 1.574 1_655 S
C3363 C3382 1.259 1_556 S
C3363 H3387 0.949 . S
H3364 C3368 0.949 . S
C3365 C3366 1.349 1_556 S
C3365 C3367 1.327 . S
C3365 H3388 0.950 . S
C3366 C3365 1.349 1_554 S
C3366 C3378 1.349 . S
C3367 C3365 1.327 . S
C3367 C3383 1.429 1_556 S
C3367 H3389 0.950 . S
C3368 H3364 0.949 . S
C3368 C3376 1.574 1_455 S
C3368 C3384 1.368 . S
H3369 C3377 0.950 . S
H3370 C3375 0.950 . S
H3371 C3376 0.949 . S
H3372 C3378 0.950 . S
H3373 C3379 0.950 . S
H3374 C3380 0.949 . S
C3375 H3370 0.950 . S
C3375 C3377 1.327 . S
C3375 C3381 1.374 1_556 S
C3376 C3368 1.574 1_655 S
C3376 H3371 0.949 . S
C3376 C3382 1.491 . S
C3377 C3361 1.366 . S
C3377 H3369 0.950 . S
C3377 C3375 1.327 . S
C3378 C3366 1.349 . S
C3378 H3372 0.950 . S
C3378 C3379 1.327 . S
C3379 H3373 0.950 . S
C3379 C3378 1.327 . S
C3379 C3383 1.429 . S
C3380 C3363 1.574 1_455 S
C3380 H3374 0.949 . S
C3380 C3384 1.368 1_556 S
C3381 C3362 1.481 . S
C3381 C3375 1.374 1_554 S
C3381 C3382 1.521 . S
C3382 C3363 1.259 1_554 S
C3382 C3376 1.491 . S
C3382 C3381 1.521 . S
C3383 C3367 1.429 1_554 S
C3383 C3379 1.429 . S
C3383 C3384 1.523 . S
C3384 C3368 1.368 . S
C3384 C3380 1.368 1_554 S
C3384 C3383 1.523 . S
H3385 C3360 0.950 . S
H3386 C3362 0.950 . S
H3387 C3363 0.949 . S
H3388 C3365 0.950 . S
H3389 C3367 0.950 . S
C3390 C3391 1.349 1_556 S
C3390 C3392 1.327 . S
C3390 H3415 0.950 . S
C3391 C3390 1.349 1_554 S
C3391 C3407 1.349 . S
C3392 C3390 1.327 . S
C3392 C3411 1.429 1_556 S
C3392 H3416 0.950 . S
C3393 C3410 1.574 . S
C3393 C3412 1.368 . S
C3393 H3417 0.949 . S
H3394 C3398 0.949 . S
C3395 C3396 1.358 1_554 S
C3395 C3397 1.327 . S
C3395 H3418 0.950 . S
C3396 C3395 1.358 1_556 S
C3396 C3408 1.341 . S
C3397 C3395 1.327 . S
C3397 C3413 1.514 . S
C3397 H3419 0.950 . S
C3398 H3394 0.949 . S
C3398 C3406 1.574 . S
C3398 C3414 1.368 1_556 S
H3399 C3407 0.950 . S
H3400 C3405 0.950 . S
H3401 C3406 0.949 . S
H3402 C3408 0.950 . S
H3403 C3409 0.950 . S
H3404 C3410 0.949 . S
C3405 H3400 0.950 . S
C3405 C3407 1.327 . S
C3405 C3411 1.429 . S
C3406 C3398 1.574 . S
C3406 H3401 0.949 . S
C3406 C3412 1.368 1_556 S
C3407 C3391 1.349 . S
C3407 H3399 0.950 . S
C3407 C3405 1.327 . S
C3408 C3396 1.341 . S
C3408 H3402 0.950 . S
C3408 C3409 1.327 . S
C3409 H3403 0.950 . S
C3409 C3408 1.327 . S
C3409 C3413 1.341 1_556 S
C3410 C3393 1.574 . S
C3410 H3404 0.949 . S
C3410 C3414 1.368 . S
C3411 C3392 1.429 1_554 S
C3411 C3405 1.429 . S
C3411 C3412 1.523 . S
C3412 C3393 1.368 . S
C3412 C3406 1.368 1_554 S
C3412 C3411 1.523 . S
C3413 C3397 1.514 . S
C3413 C3409 1.341 1_554 S
C3413 C3414 1.533 . S
C3414 C3398 1.368 1_554 S
C3414 C3410 1.368 . S
C3414 C3413 1.533 . S
H3415 C3390 0.950 . S
H3416 C3392 0.950 . S
H3417 C3393 0.949 . S
H3418 C3395 0.950 . S
H3419 C3397 0.950 . S
C3420 C3421 1.349 . S
C3420 C3422 1.327 . S
C3420 H3445 0.950 . S
C3421 C3420 1.349 . S
C3421 C3437 1.349 . S
C3422 C3420 1.327 . S
C3422 C3441 1.429 . S
C3422 H3446 0.950 . S
C3423 C3440 1.574 . S
C3423 C3442 1.368 1_655 S
C3423 H3447 0.949 1_655 S
H3424 C3428 0.949 . S
C3425 C3426 1.349 . S
C3425 C3427 1.327 . S
C3425 H3448 0.950 . S
C3426 C3425 1.349 . S
C3426 C3438 1.349 . S
C3427 C3425 1.327 . S
C3427 C3443 1.429 . S
C3427 H3449 0.950 . S
C3428 H3424 0.949 . S
C3428 C3436 1.574 1_655 S
C3428 C3444 1.368 . S
H3429 C3437 0.950 . S
H3430 C3435 0.950 . S
H3431 C3436 0.949 . S
H3432 C3438 0.950 . S
H3433 C3439 0.950 . S
H3434 C3440 0.949 . S
C3435 H3430 0.950 . S
C3435 C3437 1.327 . S
C3435 C3441 1.429 . S
C3436 C3428 1.574 1_455 S
C3436 H3431 0.949 . S
C3436 C3442 1.368 . S
C3437 C3421 1.349 . S
C3437 H3429 0.950 . S
C3437 C3435 1.327 . S
C3438 C3426 1.349 . S
C3438 H3432 0.950 . S
C3438 C3439 1.327 . S
C3439 H3433 0.950 . S
C3439 C3438 1.327 . S
C3439 C3443 1.429 . S
C3440 C3423 1.574 . S
C3440 H3434 0.949 . S
C3440 C3444 1.368 . S
C3441 C3422 1.429 . S
C3441 C3435 1.429 . S
C3441 C3442 1.523 . S
C3442 C3423 1.368 1_455 S
C3442 C3436 1.368 . S
C3442 C3441 1.523 . S
C3443 C3427 1.429 . S
C3443 C3439 1.429 . S
C3443 C3444 1.523 . S
C3444 C3428 1.368 . S
C3444 C3440 1.368 . S
C3444 C3443 1.523 . S
H3445 C3420 0.950 . S
H3446 C3422 0.950 . S
H3447 C3423 0.949 1_455 S
H3448 C3425 0.950 . S
H3449 C3427 0.950 . S
C3450 C3451 1.349 . S
C3450 C3452 1.327 . S
C3450 H3475 0.950 . S
C3451 C3450 1.349 . S
C3451 C3467 1.349 . S
C3452 C3450 1.327 . S
C3452 C3471 1.429 . S
C3452 H3476 0.950 . S
C3453 C3470 1.574 . S
C3453 C3472 1.368 . S
C3453 H3477 0.949 . S
H3454 C3458 0.949 . S
C3455 C3456 1.349 . S
C3455 C3457 1.327 . S
C3455 H3478 0.950 . S
C3456 C3455 1.349 . S
C3456 C3468 1.349 . S
C3457 C3455 1.327 . S
C3457 C3473 1.429 . S
C3457 H3479 0.950 . S
C3458 H3454 0.949 . S
C3458 C3466 1.574 . S
C3458 C3474 1.368 . S
H3459 C3467 0.950 . S
H3460 C3465 0.950 . S
H3461 C3466 0.949 . S
H3462 C3468 0.950 . S
H3463 C3469 0.950 . S
H3464 C3470 0.949 . S
C3465 H3460 0.950 . S
C3465 C3467 1.327 . S
C3465 C3471 1.429 . S
C3466 C3458 1.574 . S
C3466 H3461 0.949 . S
C3466 C3472 1.368 . S
C3467 C3451 1.349 . S
C3467 H3459 0.950 . S
C3467 C3465 1.327 . S
C3468 C3456 1.349 . S
C3468 H3462 0.950 . S
C3468 C3469 1.327 . S
C3469 H3463 0.950 . S
C3469 C3468 1.327 . S
C3469 C3473 1.429 . S
C3470 C3453 1.574 . S
C3470 H3464 0.949 . S
C3470 C3474 1.368 . S
C3471 C3452 1.429 . S
C3471 C3465 1.429 . S
C3471 C3472 1.523 . S
C3472 C3453 1.368 . S
C3472 C3466 1.368 . S
C3472 C3471 1.523 . S
C3473 C3457 1.429 . S
C3473 C3469 1.429 . S
C3473 C3474 1.523 . S
C3474 C3458 1.368 . S
C3474 C3470 1.368 . S
C3474 C3473 1.523 . S
H3475 C3450 0.950 . S
H3476 C3452 0.950 . S
H3477 C3453 0.949 . S
H3478 C3455 0.950 . S
H3479 C3457 0.950 . S
C3480 C3481 1.349 . S
C3480 C3482 1.327 . S
C3480 H3505 0.950 . S
C3481 C3480 1.349 . S
C3481 C3497 1.349 . S
C3482 C3480 1.327 . S
C3482 C3501 1.429 . S
C3482 H3506 0.950 . S
C3483 C3500 1.574 . S
C3483 C3502 1.368 1_545 S
C3483 H3507 0.949 1_545 S
H3484 C3488 0.949 . S
C3485 C3486 1.349 . S
C3485 C3487 1.327 . S
C3485 H3508 0.950 . S
C3486 C3485 1.349 . S
C3486 C3498 1.349 . S
C3487 C3485 1.327 . S
C3487 C3503 1.429 . S
C3487 H3509 0.950 . S
C3488 H3484 0.949 . S
C3488 C3496 1.574 1_545 S
C3488 C3504 1.368 . S
H3489 C3497 0.950 . S
H3490 C3495 0.950 . S
H3491 C3496 0.949 . S
H3492 C3498 0.950 . S
H3493 C3499 0.950 . S
H3494 C3500 0.949 . S
C3495 H3490 0.950 . S
C3495 C3497 1.327 . S
C3495 C3501 1.429 . S
C3496 C3488 1.574 1_565 S
C3496 H3491 0.949 . S
C3496 C3502 1.368 . S
C3497 C3481 1.349 . S
C3497 H3489 0.950 . S
C3497 C3495 1.327 . S
C3498 C3486 1.349 . S
C3498 H3492 0.950 . S
C3498 C3499 1.327 . S
C3499 H3493 0.950 . S
C3499 C3498 1.327 . S
C3499 C3503 1.429 . S
C3500 C3483 1.574 . S
C3500 H3494 0.949 . S
C3500 C3504 1.368 . S
C3501 C3482 1.429 . S
C3501 C3495 1.429 . S
C3501 C3502 1.523 . S
C3502 C3483 1.368 1_565 S
C3502 C3496 1.368 . S
C3502 C3501 1.523 . S
C3503 C3487 1.429 . S
C3503 C3499 1.429 . S
C3503 C3504 1.523 . S
C3504 C3488 1.368 . S
C3504 C3500 1.368 . S
C3504 C3503 1.523 . S
H3505 C3480 0.950 . S
H3506 C3482 0.950 . S
H3507 C3483 0.949 1_565 S
H3508 C3485 0.950 . S
H3509 C3487 0.950 . S
C3510 C3511 1.349 . S
C3510 C3512 1.327 . S
C3510 H3535 0.950 . S
C3511 C3510 1.349 . S
C3511 C3527 1.349 1_455 S
C3512 C3510 1.327 . S
C3512 C3531 1.429 1_455 S
C3512 H3536 0.950 . S
C3513 C3530 1.574 . S
C3513 C3532 1.368 . S
C3513 H3537 0.949 . S
H3514 C3518 0.949 . S
C3515 C3516 1.349 . S
C3515 C3517 1.327 . S
C3515 H3538 0.950 . S
C3516 C3515 1.349 . S
C3516 C3528 1.349 . S
C3517 C3515 1.327 . S
C3517 C3533 1.429 . S
C3517 H3539 0.950 . S
C3518 H3514 0.949 . S
C3518 C3526 1.574 . S
C3518 C3534 1.368 . S
H3519 C3527 0.950 . S
H3520 C3525 0.950 . S
H3521 C3526 0.949 . S
H3522 C3528 0.950 . S
H3523 C3529 0.950 . S
H3524 C3530 0.949 . S
C3525 H3520 0.950 . S
C3525 C3527 1.327 . S
C3525 C3531 1.429 . S
C3526 C3518 1.574 . S
C3526 H3521 0.949 . S
C3526 C3532 1.368 . S
C3527 C3511 1.349 1_655 S
C3527 H3519 0.950 . S
C3527 C3525 1.327 . S
C3528 C3516 1.349 . S
C3528 H3522 0.950 . S
C3528 C3529 1.327 . S
C3529 H3523 0.950 . S
C3529 C3528 1.327 . S
C3529 C3533 1.429 . S
C3530 C3513 1.574 . S
C3530 H3524 0.949 . S
C3530 C3534 1.368 . S
C3531 C3512 1.429 1_655 S
C3531 C3525 1.429 . S
C3531 C3532 1.523 . S
C3532 C3513 1.368 . S
C3532 C3526 1.368 . S
C3532 C3531 1.523 . S
C3533 C3517 1.429 . S
C3533 C3529 1.429 . S
C3533 C3534 1.523 . S
C3534 C3518 1.368 . S
C3534 C3530 1.368 . S
C3534 C3533 1.523 . S
H3535 C3510 0.950 . S
H3536 C3512 0.950 . S
H3537 C3513 0.949 . S
H3538 C3515 0.950 . S
H3539 C3517 0.950 . S
C3540 C3541 1.349 . S
C3540 C3542 1.327 . S
C3540 H3565 0.950 . S
C3541 C3540 1.349 . S
C3541 C3557 1.349 . S
C3542 C3540 1.327 . S
C3542 C3561 1.429 . S
C3542 H3566 0.950 . S
C3543 C3560 1.574 . S
C3543 C3562 1.368 . S
C3543 H3567 0.949 . S
H3544 C3548 0.949 . S
C3545 C3546 1.349 . S
C3545 C3547 1.327 . S
C3545 H3568 0.950 . S
C3546 C3545 1.349 . S
C3546 C3558 1.349 . S
C3547 C3545 1.327 . S
C3547 C3563 1.429 . S
C3547 H3569 0.950 . S
C3548 H3544 0.949 . S
C3548 C3556 1.574 . S
C3548 C3564 1.368 . S
H3549 C3557 0.950 . S
H3550 C3555 0.950 . S
H3551 C3556 0.949 . S
H3552 C3558 0.950 . S
H3553 C3559 0.950 . S
H3554 C3560 0.949 . S
C3555 H3550 0.950 . S
C3555 C3557 1.327 . S
C3555 C3561 1.429 . S
C3556 C3548 1.574 . S
C3556 H3551 0.949 . S
C3556 C3562 1.368 . S
C3557 C3541 1.349 . S
C3557 H3549 0.950 . S
C3557 C3555 1.327 . S
C3558 C3546 1.349 . S
C3558 H3552 0.950 . S
C3558 C3559 1.327 . S
C3559 H3553 0.950 . S
C3559 C3558 1.327 . S
C3559 C3563 1.429 . S
C3560 C3543 1.574 . S
C3560 H3554 0.949 . S
C3560 C3564 1.368 . S
C3561 C3542 1.429 . S
C3561 C3555 1.429 . S
C3561 C3562 1.523 . S
C3562 C3543 1.368 . S
C3562 C3556 1.368 . S
C3562 C3561 1.523 . S
C3563 C3547 1.429 . S
C3563 C3559 1.429 . S
C3563 C3564 1.523 . S
C3564 C3548 1.368 . S
C3564 C3560 1.368 . S
C3564 C3563 1.523 . S
H3565 C3540 0.950 . S
H3566 C3542 0.950 . S
H3567 C3543 0.949 . S
H3568 C3545 0.950 . S
H3569 C3547 0.950 . S
C3570 C3571 1.349 . S
C3570 C3572 1.327 . S
C3570 H3595 0.950 . S
C3571 C3570 1.349 . S
C3571 C3587 1.349 . S
C3572 C3570 1.327 . S
C3572 C3591 1.429 . S
C3572 H3596 0.950 . S
C3573 C3590 1.574 . S
C3573 C3592 1.368 . S
C3573 H3597 0.949 . S
H3574 C3578 0.949 . S
C3575 C3576 1.349 . S
C3575 C3577 1.327 . S
C3575 H3598 0.950 . S
C3576 C3575 1.349 . S
C3576 C3588 1.349 . S
C3577 C3575 1.327 . S
C3577 C3593 1.429 1_565 S
C3577 H3599 0.950 . S
C3578 H3574 0.949 . S
C3578 C3586 1.574 . S
C3578 C3594 1.368 . S
H3579 C3587 0.950 . S
H3580 C3585 0.950 . S
H3581 C3586 0.949 . S
H3582 C3588 0.950 . S
H3583 C3589 0.950 . S
H3584 C3590 0.949 . S
C3585 H3580 0.950 . S
C3585 C3587 1.327 . S
C3585 C3591 1.429 . S
C3586 C3578 1.574 . S
C3586 H3581 0.949 . S
C3586 C3592 1.368 . S
C3587 C3571 1.349 . S
C3587 H3579 0.950 . S
C3587 C3585 1.327 . S
C3588 C3576 1.349 . S
C3588 H3582 0.950 . S
C3588 C3589 1.327 1_565 S
C3589 H3583 0.950 . S
C3589 C3588 1.327 1_545 S
C3589 C3593 1.429 . S
C3590 C3573 1.574 . S
C3590 H3584 0.949 . S
C3590 C3594 1.368 . S
C3591 C3572 1.429 . S
C3591 C3585 1.429 . S
C3591 C3592 1.523 . S
C3592 C3573 1.368 . S
C3592 C3586 1.368 . S
C3592 C3591 1.523 . S
C3593 C3577 1.429 1_545 S
C3593 C3589 1.429 . S
C3593 C3594 1.523 . S
C3594 C3578 1.368 . S
C3594 C3590 1.368 . S
C3594 C3593 1.523 . S
H3595 C3570 0.950 . S
H3596 C3572 0.950 . S
H3597 C3573 0.949 . S
H3598 C3575 0.950 . S
H3599 C3577 0.950 . S
C3600 C3601 1.349 . S
C3600 C3602 1.327 . S
C3600 H3625 0.950 . S
C3601 C3600 1.349 . S
C3601 C3617 1.349 . S
C3602 C3600 1.327 . S
C3602 C3621 1.429 . S
C3602 H3626 0.950 . S
C3603 C3620 1.574 . S
C3603 C3622 1.368 . S
C3603 H3627 0.949 . S
H3604 C3608 0.949 . S
C3605 C3606 1.349 . S
C3605 C3607 1.327 . S
C3605 H3628 0.950 . S
C3606 C3605 1.349 . S
C3606 C3618 1.349 . S
C3607 C3605 1.327 . S
C3607 C3623 1.429 . S
C3607 H3629 0.950 . S
C3608 H3604 0.949 . S
C3608 C3616 1.574 . S
C3608 C3624 1.368 . S
H3609 C3617 0.950 . S
H3610 C3615 0.950 . S
H3611 C3616 0.949 . S
H3612 C3618 0.950 . S
H3613 C3619 0.950 . S
H3614 C3620 0.949 . S
C3615 H3610 0.950 . S
C3615 C3617 1.327 . S
C3615 C3621 1.429 . S
C3616 C3608 1.574 . S
C3616 H3611 0.949 . S
C3616 C3622 1.368 . S
C3617 C3601 1.349 . S
C3617 H3609 0.950 . S
C3617 C3615 1.327 . S
C3618 C3606 1.349 . S
C3618 H3612 0.950 . S
C3618 C3619 1.327 . S
C3619 H3613 0.950 . S
C3619 C3618 1.327 . S
C3619 C3623 1.429 . S
C3620 C3603 1.574 . S
C3620 H3614 0.949 . S
C3620 C3624 1.368 . S
C3621 C3602 1.429 . S
C3621 C3615 1.429 . S
C3621 C3622 1.523 . S
C3622 C3603 1.368 . S
C3622 C3616 1.368 . S
C3622 C3621 1.523 . S
C3623 C3607 1.429 . S
C3623 C3619 1.429 . S
C3623 C3624 1.523 . S
C3624 C3608 1.368 . S
C3624 C3620 1.368 . S
C3624 C3623 1.523 . S
H3625 C3600 0.950 . S
H3626 C3602 0.950 . S
H3627 C3603 0.949 . S
H3628 C3605 0.950 . S
H3629 C3607 0.950 . S
C3630 C3631 1.349 . S
C3630 C3632 1.327 . S
C3630 H3655 0.950 . S
C3631 C3630 1.349 . S
C3631 C3647 1.349 . S
C3632 C3630 1.327 . S
C3632 C3651 1.429 . S
C3632 H3656 0.950 . S
C3633 C3650 1.574 . S
C3633 C3652 1.368 . S
C3633 H3657 0.949 . S
H3634 C3638 0.949 . S
C3635 C3636 1.349 . S
C3635 C3637 1.327 . S
C3635 H3658 0.950 . S
C3636 C3635 1.349 . S
C3636 C3648 1.349 . S
C3637 C3635 1.327 . S
C3637 C3653 1.429 . S
C3637 H3659 0.950 . S
C3638 H3634 0.949 . S
C3638 C3646 1.574 . S
C3638 C3654 1.368 . S
H3639 C3647 0.950 . S
H3640 C3645 0.950 . S
H3641 C3646 0.949 . S
H3642 C3648 0.950 . S
H3643 C3649 0.950 . S
H3644 C3650 0.949 . S
C3645 H3640 0.950 . S
C3645 C3647 1.327 . S
C3645 C3651 1.429 . S
C3646 C3638 1.574 . S
C3646 H3641 0.949 . S
C3646 C3652 1.368 . S
C3647 C3631 1.349 . S
C3647 H3639 0.950 . S
C3647 C3645 1.327 . S
C3648 C3636 1.349 . S
C3648 H3642 0.950 . S
C3648 C3649 1.327 . S
C3649 H3643 0.950 . S
C3649 C3648 1.327 . S
C3649 C3653 1.429 . S
C3650 C3633 1.574 . S
C3650 H3644 0.949 . S
C3650 C3654 1.368 . S
C3651 C3632 1.429 . S
C3651 C3645 1.429 . S
C3651 C3652 1.523 . S
C3652 C3633 1.368 . S
C3652 C3646 1.368 . S
C3652 C3651 1.523 . S
C3653 C3637 1.429 . S
C3653 C3649 1.429 . S
C3653 C3654 1.523 . S
C3654 C3638 1.368 . S
C3654 C3650 1.368 . S
C3654 C3653 1.523 . S
H3655 C3630 0.950 . S
H3656 C3632 0.950 . S
H3657 C3633 0.949 . S
H3658 C3635 0.950 . S
H3659 C3637 0.950 . S
C3660 C3661 1.349 . S
C3660 C3662 1.327 . S
C3660 H3685 0.950 . S
C3661 C3660 1.349 . S
C3661 C3677 1.349 . S
C3662 C3660 1.327 . S
C3662 C3681 1.429 . S
C3662 H3686 0.950 . S
C3663 C3680 1.574 . S
C3663 C3682 1.368 . S
C3663 H3687 0.949 . S
H3664 C3668 0.949 . S
C3665 C3666 1.349 . S
C3665 C3667 1.327 . S
C3665 H3688 0.950 . S
C3666 C3665 1.349 . S
C3666 C3678 1.349 . S
C3667 C3665 1.327 . S
C3667 C3683 1.429 . S
C3667 H3689 0.950 . S
C3668 H3664 0.949 . S
C3668 C3676 1.574 . S
C3668 C3684 1.368 . S
H3669 C3677 0.950 . S
H3670 C3675 0.950 . S
H3671 C3676 0.949 . S
H3672 C3678 0.950 . S
H3673 C3679 0.950 . S
H3674 C3680 0.949 . S
C3675 H3670 0.950 . S
C3675 C3677 1.327 . S
C3675 C3681 1.429 . S
C3676 C3668 1.574 . S
C3676 H3671 0.949 . S
C3676 C3682 1.368 . S
C3677 C3661 1.349 . S
C3677 H3669 0.950 . S
C3677 C3675 1.327 . S
C3678 C3666 1.349 . S
C3678 H3672 0.950 . S
C3678 C3679 1.327 . S
C3679 H3673 0.950 . S
C3679 C3678 1.327 . S
C3679 C3683 1.429 . S
C3680 C3663 1.574 . S
C3680 H3674 0.949 . S
C3680 C3684 1.368 . S
C3681 C3662 1.429 . S
C3681 C3675 1.429 . S
C3681 C3682 1.523 . S
C3682 C3663 1.368 . S
C3682 C3676 1.368 . S
C3682 C3681 1.523 . S
C3683 C3667 1.429 . S
C3683 C3679 1.429 . S
C3683 C3684 1.523 . S
C3684 C3668 1.368 . S
C3684 C3680 1.368 . S
C3684 C3683 1.523 . S
H3685 C3660 0.950 . S
H3686 C3662 0.950 . S
H3687 C3663 0.949 . S
H3688 C3665 0.950 . S
H3689 C3667 0.950 . S
C3690 C3691 1.349 . S
C3690 C3692 1.327 . S
C3690 H3715 0.950 . S
C3691 C3690 1.349 . S
C3691 C3707 1.349 . S
C3692 C3690 1.327 . S
C3692 C3711 1.429 . S
C3692 H3716 0.950 . S
C3693 C3710 1.574 . S
C3693 C3712 1.368 . S
C3693 H3717 0.949 . S
H3694 C3698 0.949 . S
C3695 C3696 1.349 . S
C3695 C3697 1.327 . S
C3695 H3718 0.950 . S
C3696 C3695 1.349 . S
C3696 C3708 1.349 . S
C3697 C3695 1.327 . S
C3697 C3713 1.429 . S
C3697 H3719 0.950 . S
C3698 H3694 0.949 . S
C3698 C3706 1.574 . S
C3698 C3714 1.368 . S
H3699 C3707 0.950 . S
H3700 C3705 0.950 . S
H3701 C3706 0.949 . S
H3702 C3708 0.950 . S
H3703 C3709 0.950 . S
H3704 C3710 0.949 . S
C3705 H3700 0.950 . S
C3705 C3707 1.327 . S
C3705 C3711 1.429 . S
C3706 C3698 1.574 . S
C3706 H3701 0.949 . S
C3706 C3712 1.368 . S
C3707 C3691 1.349 . S
C3707 H3699 0.950 . S
C3707 C3705 1.327 . S
C3708 C3696 1.349 . S
C3708 H3702 0.950 . S
C3708 C3709 1.327 . S
C3709 H3703 0.950 . S
C3709 C3708 1.327 . S
C3709 C3713 1.429 . S
C3710 C3693 1.574 . S
C3710 H3704 0.949 . S
C3710 C3714 1.368 . S
C3711 C3692 1.429 . S
C3711 C3705 1.429 . S
C3711 C3712 1.523 . S
C3712 C3693 1.368 . S
C3712 C3706 1.368 . S
C3712 C3711 1.523 . S
C3713 C3697 1.429 . S
C3713 C3709 1.429 . S
C3713 C3714 1.523 . S
C3714 C3698 1.368 . S
C3714 C3710 1.368 . S
C3714 C3713 1.523 . S
H3715 C3690 0.950 . S
H3716 C3692 0.950 . S
H3717 C3693 0.949 . S
H3718 C3695 0.950 . S
H3719 C3697 0.950 . S
C3720 C3721 1.349 . S
C3720 C3722 1.327 . S
C3720 H3745 0.950 . S
C3721 C3720 1.349 . S
C3721 C3737 1.349 . S
C3722 C3720 1.327 . S
C3722 C3741 1.429 . S
C3722 H3746 0.950 . S
C3723 C3740 1.574 . S
C3723 C3742 1.368 . S
C3723 H3747 0.949 . S
H3724 C3728 0.949 . S
C3725 C3726 1.349 . S
C3725 C3727 1.327 . S
C3725 H3748 0.950 . S
C3726 C3725 1.349 . S
C3726 C3738 1.349 . S
C3727 C3725 1.327 . S
C3727 C3743 1.429 . S
C3727 H3749 0.950 . S
C3728 H3724 0.949 . S
C3728 C3736 1.574 . S
C3728 C3744 1.368 . S
H3729 C3737 0.950 . S
H3730 C3735 0.950 . S
H3731 C3736 0.949 . S
H3732 C3738 0.950 . S
H3733 C3739 0.950 . S
H3734 C3740 0.949 . S
C3735 H3730 0.950 . S
C3735 C3737 1.327 . S
C3735 C3741 1.429 . S
C3736 C3728 1.574 . S
C3736 H3731 0.949 . S
C3736 C3742 1.368 . S
C3737 C3721 1.349 . S
C3737 H3729 0.950 . S
C3737 C3735 1.327 . S
C3738 C3726 1.349 . S
C3738 H3732 0.950 . S
C3738 C3739 1.327 . S
C3739 H3733 0.950 . S
C3739 C3738 1.327 . S
C3739 C3743 1.429 . S
C3740 C3723 1.574 . S
C3740 H3734 0.949 . S
C3740 C3744 1.368 . S
C3741 C3722 1.429 . S
C3741 C3735 1.429 . S
C3741 C3742 1.523 . S
C3742 C3723 1.368 . S
C3742 C3736 1.368 . S
C3742 C3741 1.523 . S
C3743 C3727 1.429 . S
C3743 C3739 1.429 . S
C3743 C3744 1.523 . S
C3744 C3728 1.368 . S
C3744 C3740 1.368 . S
C3744 C3743 1.523 . S
H3745 C3720 0.950 . S
H3746 C3722 0.950 . S
H3747 C3723 0.949 . S
H3748 C3725 0.950 . S
H3749 C3727 0.950 . S
C3750 C3751 1.349 . S
C3750 C3752 1.327 . S
C3750 H3775 0.950 . S
C3751 C3750 1.349 . S
C3751 C3767 1.349 . S
C3752 C3750 1.327 . S
C3752 C3771 1.429 . S
C3752 H3776 0.950 . S
C3753 C3770 1.574 . S
C3753 C3772 1.368 . S
C3753 H3777 0.949 . S
H3754 C3758 0.949 . S
C3755 C3756 1.349 . S
C3755 C3757 1.327 . S
C3755 H3778 0.950 . S
C3756 C3755 1.349 . S
C3756 C3768 1.349 . S
C3757 C3755 1.327 . S
C3757 C3773 1.429 . S
C3757 H3779 0.950 . S
C3758 H3754 0.949 . S
C3758 C3766 1.574 . S
C3758 C3774 1.368 . S
H3759 C3767 0.950 . S
H3760 C3765 0.950 . S
H3761 C3766 0.949 . S
H3762 C3768 0.950 . S
H3763 C3769 0.950 . S
H3764 C3770 0.949 . S
C3765 H3760 0.950 . S
C3765 C3767 1.327 . S
C3765 C3771 1.429 . S
C3766 C3758 1.574 . S
C3766 H3761 0.949 . S
C3766 C3772 1.368 . S
C3767 C3751 1.349 . S
C3767 H3759 0.950 . S
C3767 C3765 1.327 . S
C3768 C3756 1.349 . S
C3768 H3762 0.950 . S
C3768 C3769 1.327 . S
C3769 H3763 0.950 . S
C3769 C3768 1.327 . S
C3769 C3773 1.429 . S
C3770 C3753 1.574 . S
C3770 H3764 0.949 . S
C3770 C3774 1.368 . S
C3771 C3752 1.429 . S
C3771 C3765 1.429 . S
C3771 C3772 1.523 . S
C3772 C3753 1.368 . S
C3772 C3766 1.368 . S
C3772 C3771 1.523 . S
C3773 C3757 1.429 . S
C3773 C3769 1.429 . S
C3773 C3774 1.523 . S
C3774 C3758 1.368 . S
C3774 C3770 1.368 . S
C3774 C3773 1.523 . S
H3775 C3750 0.950 . S
H3776 C3752 0.950 . S
H3777 C3753 0.949 . S
H3778 C3755 0.950 . S
H3779 C3757 0.950 . S
C3780 C3781 1.349 . S
C3780 C3782 1.327 . S
C3780 H3805 0.950 . S
C3781 C3780 1.349 . S
C3781 C3797 1.349 . S
C3782 C3780 1.327 . S
C3782 C3801 1.429 . S
C3782 H3806 0.950 . S
C3783 C3800 1.574 . S
C3783 C3802 1.368 . S
C3783 H3807 0.949 . S
H3784 C3788 0.949 . S
C3785 C3786 1.349 . S
C3785 C3787 1.327 . S
C3785 H3808 0.950 . S
C3786 C3785 1.349 . S
C3786 C3798 1.349 . S
C3787 C3785 1.327 . S
C3787 C3803 1.429 . S
C3787 H3809 0.950 . S
C3788 H3784 0.949 . S
C3788 C3796 1.574 . S
C3788 C3804 1.368 . S
H3789 C3797 0.950 . S
H3790 C3795 0.950 . S
H3791 C3796 0.949 . S
H3792 C3798 0.950 . S
H3793 C3799 0.950 . S
H3794 C3800 0.949 . S
C3795 H3790 0.950 . S
C3795 C3797 1.327 . S
C3795 C3801 1.429 . S
C3796 C3788 1.574 . S
C3796 H3791 0.949 . S
C3796 C3802 1.368 . S
C3797 C3781 1.349 . S
C3797 H3789 0.950 . S
C3797 C3795 1.327 . S
C3798 C3786 1.349 . S
C3798 H3792 0.950 . S
C3798 C3799 1.327 . S
C3799 H3793 0.950 . S
C3799 C3798 1.327 . S
C3799 C3803 1.429 . S
C3800 C3783 1.574 . S
C3800 H3794 0.949 . S
C3800 C3804 1.368 . S
C3801 C3782 1.429 . S
C3801 C3795 1.429 . S
C3801 C3802 1.523 . S
C3802 C3783 1.368 . S
C3802 C3796 1.368 . S
C3802 C3801 1.523 . S
C3803 C3787 1.429 . S
C3803 C3799 1.429 . S
C3803 C3804 1.523 . S
C3804 C3788 1.368 . S
C3804 C3800 1.368 . S
C3804 C3803 1.523 . S
H3805 C3780 0.950 . S
H3806 C3782 0.950 . S
H3807 C3783 0.949 . S
H3808 C3785 0.950 . S
H3809 C3787 0.950 . S
C3810 C3811 1.349 . S
C3810 C3812 1.327 . S
C3810 H3835 0.950 . S
C3811 C3810 1.349 . S
C3811 C3827 1.349 . S
C3812 C3810 1.327 . S
C3812 C3831 1.429 . S
C3812 H3836 0.950 . S
C3813 C3830 1.574 . S
C3813 C3832 1.368 . S
C3813 H3837 0.949 . S
H3814 C3818 0.949 . S
C3815 C3816 1.349 . S
C3815 C3817 1.327 . S
C3815 H3838 0.950 . S
C3816 C3815 1.349 . S
C3816 C3828 1.349 . S
C3817 C3815 1.327 . S
C3817 C3833 1.429 . S
C3817 H3839 0.950 . S
C3818 H3814 0.949 . S
C3818 C3826 1.574 . S
C3818 C3834 1.368 . S
H3819 C3827 0.950 . S
H3820 C3825 0.950 . S
H3821 C3826 0.949 . S
H3822 C3828 0.950 . S
H3823 C3829 0.950 . S
H3824 C3830 0.949 . S
C3825 H3820 0.950 . S
C3825 C3827 1.327 . S
C3825 C3831 1.429 . S
C3826 C3818 1.574 . S
C3826 H3821 0.949 . S
C3826 C3832 1.368 . S
C3827 C3811 1.349 . S
C3827 H3819 0.950 . S
C3827 C3825 1.327 . S
C3828 C3816 1.349 . S
C3828 H3822 0.950 . S
C3828 C3829 1.327 . S
C3829 H3823 0.950 . S
C3829 C3828 1.327 . S
C3829 C3833 1.429 . S
C3830 C3813 1.574 . S
C3830 H3824 0.949 . S
C3830 C3834 1.368 . S
C3831 C3812 1.429 . S
C3831 C3825 1.429 . S
C3831 C3832 1.523 . S
C3832 C3813 1.368 . S
C3832 C3826 1.368 . S
C3832 C3831 1.523 . S
C3833 C3817 1.429 . S
C3833 C3829 1.429 . S
C3833 C3834 1.523 . S
C3834 C3818 1.368 . S
C3834 C3830 1.368 . S
C3834 C3833 1.523 . S
H3835 C3810 0.950 . S
H3836 C3812 0.950 . S
H3837 C3813 0.949 . S
H3838 C3815 0.950 . S
H3839 C3817 0.950 . S
C3840 C3841 1.349 . S
C3840 C3842 1.327 . S
C3840 H3865 0.950 . S
C3841 C3840 1.349 . S
C3841 C3857 1.349 . S
C3842 C3840 1.327 . S
C3842 C3861 1.429 . S
C3842 H3866 0.950 . S
C3843 C3860 1.574 . S
C3843 C3862 1.368 . S
C3843 H3867 0.949 . S
H3844 C3848 0.949 . S
C3845 C3846 1.349 . S
C3845 C3847 1.327 . S
C3845 H3868 0.950 . S
C3846 C3845 1.349 . S
C3846 C3858 1.349 . S
C3847 C3845 1.327 . S
C3847 C3863 1.429 . S
C3847 H3869 0.950 . S
C3848 H3844 0.949 . S
C3848 C3856 1.574 . S
C3848 C3864 1.368 . S
H3849 C3857 0.950 . S
H3850 C3855 0.950 . S
H3851 C3856 0.949 . S
H3852 C3858 0.950 . S
H3853 C3859 0.950 . S
H3854 C3860 0.949 . S
C3855 H3850 0.950 . S
C3855 C3857 1.327 . S
C3855 C3861 1.429 . S
C3856 C3848 1.574 . S
C3856 H3851 0.949 . S
C3856 C3862 1.368 . S
C3857 C3841 1.349 . S
C3857 H3849 0.950 . S
C3857 C3855 1.327 . S
C3858 C3846 1.349 . S
C3858 H3852 0.950 . S
C3858 C3859 1.327 . S
C3859 H3853 0.950 . S
C3859 C3858 1.327 . S
C3859 C3863 1.429 . S
C3860 C3843 1.574 . S
C3860 H3854 0.949 . S
C3860 C3864 1.368 . S
C3861 C3842 1.429 . S
C3861 C3855 1.429 . S
C3861 C3862 1.523 . S
C3862 C3843 1.368 . S
C3862 C3856 1.368 . S
C3862 C3861 1.523 . S
C3863 C3847 1.429 . S
C3863 C3859 1.429 . S
C3863 C3864 1.523 . S
C3864 C3848 1.368 . S
C3864 C3860 1.368 . S
C3864 C3863 1.523 . S
H3865 C3840 0.950 . S
H3866 C3842 0.950 . S
H3867 C3843 0.949 . S
H3868 C3845 0.950 . S
H3869 C3847 0.950 . S
C3870 C3871 1.349 . S
C3870 C3872 1.327 . S
C3870 H3895 0.950 . S
C3871 C3870 1.349 . S
C3871 C3887 1.349 . S
C3872 C3870 1.327 . S
C3872 C3891 1.429 . S
C3872 H3896 0.950 . S
C3873 C3890 1.574 . S
C3873 C3892 1.368 . S
C3873 H3897 0.949 . S
H3874 C3878 0.949 . S
C3875 C3876 1.349 . S
C3875 C3877 1.327 . S
C3875 H3898 0.950 . S
C3876 C3875 1.349 . S
C3876 C3888 1.349 . S
C3877 C3875 1.327 . S
C3877 C3893 1.429 . S
C3877 H3899 0.950 . S
C3878 H3874 0.949 . S
C3878 C3886 1.574 . S
C3878 C3894 1.368 . S
H3879 C3887 0.950 . S
H3880 C3885 0.950 . S
H3881 C3886 0.949 . S
H3882 C3888 0.950 . S
H3883 C3889 0.950 . S
H3884 C3890 0.949 . S
C3885 H3880 0.950 . S
C3885 C3887 1.327 . S
C3885 C3891 1.429 . S
C3886 C3878 1.574 . S
C3886 H3881 0.949 . S
C3886 C3892 1.368 . S
C3887 C3871 1.349 . S
C3887 H3879 0.950 . S
C3887 C3885 1.327 . S
C3888 C3876 1.349 . S
C3888 H3882 0.950 . S
C3888 C3889 1.327 . S
C3889 H3883 0.950 . S
C3889 C3888 1.327 . S
C3889 C3893 1.429 . S
C3890 C3873 1.574 . S
C3890 H3884 0.949 . S
C3890 C3894 1.368 . S
C3891 C3872 1.429 . S
C3891 C3885 1.429 . S
C3891 C3892 1.523 . S
C3892 C3873 1.368 . S
C3892 C3886 1.368 . S
C3892 C3891 1.523 . S
C3893 C3877 1.429 . S
C3893 C3889 1.429 . S
C3893 C3894 1.523 . S
C3894 C3878 1.368 . S
C3894 C3890 1.368 . S
C3894 C3893 1.523 . S
H3895 C3870 0.950 . S
H3896 C3872 0.950 . S
H3897 C3873 0.949 . S
H3898 C3875 0.950 . S
H3899 C3877 0.950 . S
C3900 C3901 1.349 . S
C3900 C3902 1.327 . S
C3900 H3925 0.950 . S
C3901 C3900 1.349 . S
C3901 C3917 1.349 . S
C3902 C3900 1.327 . S
C3902 C3921 1.429 . S
C3902 H3926 0.950 . S
C3903 C3920 1.574 . S
C3903 C3922 1.368 . S
C3903 H3927 0.949 . S
H3904 C3908 0.949 . S
C3905 C3906 1.349 . S
C3905 C3907 1.327 . S
C3905 H3928 0.950 . S
C3906 C3905 1.349 . S
C3906 C3918 1.349 . S
C3907 C3905 1.327 . S
C3907 C3923 1.429 . S
C3907 H3929 0.950 . S
C3908 H3904 0.949 . S
C3908 C3916 1.574 . S
C3908 C3924 1.368 . S
H3909 C3917 0.950 . S
H3910 C3915 0.950 . S
H3911 C3916 0.949 . S
H3912 C3918 0.950 . S
H3913 C3919 0.950 . S
H3914 C3920 0.949 . S
C3915 H3910 0.950 . S
C3915 C3917 1.327 . S
C3915 C3921 1.429 . S
C3916 C3908 1.574 . S
C3916 H3911 0.949 . S
C3916 C3922 1.368 . S
C3917 C3901 1.349 . S
C3917 H3909 0.950 . S
C3917 C3915 1.327 . S
C3918 C3906 1.349 . S
C3918 H3912 0.950 . S
C3918 C3919 1.327 . S
C3919 H3913 0.950 . S
C3919 C3918 1.327 . S
C3919 C3923 1.429 . S
C3920 C3903 1.574 . S
C3920 H3914 0.949 . S
C3920 C3924 1.368 . S
C3921 C3902 1.429 . S
C3921 C3915 1.429 . S
C3921 C3922 1.523 . S
C3922 C3903 1.368 . S
C3922 C3916 1.368 . S
C3922 C3921 1.523 . S
C3923 C3907 1.429 . S
C3923 C3919 1.429 . S
C3923 C3924 1.523 . S
C3924 C3908 1.368 . S
C3924 C3920 1.368 . S
C3924 C3923 1.523 . S
H3925 C3900 0.950 . S
H3926 C3902 0.950 . S
H3927 C3903 0.949 . S
H3928 C3905 0.950 . S
H3929 C3907 0.950 . S
C3930 C3931 1.349 . S
C3930 C3932 1.327 . S
C3930 H3955 0.950 . S
C3931 C3930 1.349 . S
C3931 C3947 1.349 . S
C3932 C3930 1.327 . S
C3932 C3951 1.429 . S
C3932 H3956 0.950 . S
C3933 C3950 1.574 . S
C3933 C3952 1.368 . S
C3933 H3957 0.949 . S
H3934 C3938 0.949 . S
C3935 C3936 1.349 . S
C3935 C3937 1.327 . S
C3935 H3958 0.950 . S
C3936 C3935 1.349 . S
C3936 C3948 1.349 . S
C3937 C3935 1.327 . S
C3937 C3953 1.429 . S
C3937 H3959 0.950 . S
C3938 H3934 0.949 . S
C3938 C3946 1.574 . S
C3938 C3954 1.368 . S
H3939 C3947 0.950 . S
H3940 C3945 0.950 . S
H3941 C3946 0.949 . S
H3942 C3948 0.950 . S
H3943 C3949 0.950 . S
H3944 C3950 0.949 . S
C3945 H3940 0.950 . S
C3945 C3947 1.327 . S
C3945 C3951 1.429 . S
C3946 C3938 1.574 . S
C3946 H3941 0.949 . S
C3946 C3952 1.368 . S
C3947 C3931 1.349 . S
C3947 H3939 0.950 . S
C3947 C3945 1.327 . S
C3948 C3936 1.349 . S
C3948 H3942 0.950 . S
C3948 C3949 1.327 . S
C3949 H3943 0.950 . S
C3949 C3948 1.327 . S
C3949 C3953 1.429 . S
C3950 C3933 1.574 . S
C3950 H3944 0.949 . S
C3950 C3954 1.368 . S
C3951 C3932 1.429 . S
C3951 C3945 1.429 . S
C3951 C3952 1.523 . S
C3952 C3933 1.368 . S
C3952 C3946 1.368 . S
C3952 C3951 1.523 . S
C3953 C3937 1.429 . S
C3953 C3949 1.429 . S
C3953 C3954 1.523 . S
C3954 C3938 1.368 . S
C3954 C3950 1.368 . S
C3954 C3953 1.523 . S
H3955 C3930 0.950 . S
H3956 C3932 0.950 . S
H3957 C3933 0.949 . S
H3958 C3935 0.950 . S
H3959 C3937 0.950 . S
C3960 C3961 1.349 . S
C3960 C3962 1.327 . S
C3960 H3985 0.950 . S
C3961 C3960 1.349 . S
C3961 C3977 1.349 . S
C3962 C3960 1.327 . S
C3962 C3981 1.429 . S
C3962 H3986 0.950 . S
C3963 C3980 1.574 1_655 S
C3963 C3982 1.368 . S
C3963 H3987 0.949 . S
H3964 C3968 0.949 . S
C3965 C3966 1.349 . S
C3965 C3967 1.327 . S
C3965 H3988 0.950 . S
C3966 C3965 1.349 . S
C3966 C3978 1.349 . S
C3967 C3965 1.327 . S
C3967 C3983 1.429 . S
C3967 H3989 0.950 . S
C3968 H3964 0.949 . S
C3968 C3976 1.574 . S
C3968 C3984 1.368 . S
H3969 C3977 0.950 . S
H3970 C3975 0.950 . S
H3971 C3976 0.949 . S
H3972 C3978 0.950 . S
H3973 C3979 0.950 . S
H3974 C3980 0.949 . S
C3975 H3970 0.950 . S
C3975 C3977 1.327 . S
C3975 C3981 1.429 . S
C3976 C3968 1.574 . S
C3976 H3971 0.949 . S
C3976 C3982 1.368 1_455 S
C3977 C3961 1.349 . S
C3977 H3969 0.950 . S
C3977 C3975 1.327 . S
C3978 C3966 1.349 . S
C3978 H3972 0.950 . S
C3978 C3979 1.327 . S
C3979 H3973 0.950 . S
C3979 C3978 1.327 . S
C3979 C3983 1.429 . S
C3980 C3963 1.574 1_455 S
C3980 H3974 0.949 . S
C3980 C3984 1.368 . S
C3981 C3962 1.429 . S
C3981 C3975 1.429 . S
C3981 C3982 1.523 . S
C3982 C3963 1.368 . S
C3982 C3976 1.368 1_655 S
C3982 C3981 1.523 . S
C3983 C3967 1.429 . S
C3983 C3979 1.429 . S
C3983 C3984 1.523 . S
C3984 C3968 1.368 . S
C3984 C3980 1.368 . S
C3984 C3983 1.523 . S
H3985 C3960 0.950 . S
H3986 C3962 0.950 . S
H3987 C3963 0.949 . S
H3988 C3965 0.950 . S
H3989 C3967 0.950 . S
C3990 C3991 1.349 . S
C3990 C3992 1.327 . S
C3990 H4015 0.950 . S
C3991 C3990 1.349 . S
C3991 C4007 1.349 . S
C3992 C3990 1.327 . S
C3992 C4011 1.429 . S
C3992 H4016 0.950 . S
C3993 C4010 1.574 . S
C3993 C4012 1.368 . S
C3993 H4017 0.949 . S
H3994 C3998 0.949 . S
C3995 C3996 1.349 . S
C3995 C3997 1.327 . S
C3995 H4018 0.950 . S
C3996 C3995 1.349 . S
C3996 C4008 1.349 . S
C3997 C3995 1.327 . S
C3997 C4013 1.429 . S
C3997 H4019 0.950 . S
C3998 H3994 0.949 . S
C3998 C4006 1.574 . S
C3998 C4014 1.368 . S
H3999 C4007 0.950 . S
H4000 C4005 0.950 . S
H4001 C4006 0.949 . S
H4002 C4008 0.950 . S
H4003 C4009 0.950 . S
H4004 C4010 0.949 . S
C4005 H4000 0.950 . S
C4005 C4007 1.327 . S
C4005 C4011 1.429 . S
C4006 C3998 1.574 . S
C4006 H4001 0.949 . S
C4006 C4012 1.368 . S
C4007 C3991 1.349 . S
C4007 H3999 0.950 . S
C4007 C4005 1.327 . S
C4008 C3996 1.349 . S
C4008 H4002 0.950 . S
C4008 C4009 1.327 . S
C4009 H4003 0.950 . S
C4009 C4008 1.327 . S
C4009 C4013 1.429 . S
C4010 C3993 1.574 . S
C4010 H4004 0.949 . S
C4010 C4014 1.368 . S
C4011 C3992 1.429 . S
C4011 C4005 1.429 . S
C4011 C4012 1.523 . S
C4012 C3993 1.368 . S
C4012 C4006 1.368 . S
C4012 C4011 1.523 . S
C4013 C3997 1.429 . S
C4013 C4009 1.429 . S
C4013 C4014 1.523 . S
C4014 C3998 1.368 . S
C4014 C4010 1.368 . S
C4014 C4013 1.523 . S
H4015 C3990 0.950 . S
H4016 C3992 0.950 . S
H4017 C3993 0.949 . S
H4018 C3995 0.950 . S
H4019 C3997 0.950 . S
C4020 C4021 1.349 . S
C4020 C4022 1.327 . S
C4020 H4045 0.950 . S
C4021 C4020 1.349 . S
C4021 C4037 1.349 1_545 S
C4022 C4020 1.327 . S
C4022 C4041 1.429 . S
C4022 H4046 0.950 . S
C4023 C4040 1.574 . S
C4023 C4042 1.368 1_565 S
C4023 H4047 0.949 . S
H4024 C4028 0.949 . S
C4025 C4026 1.349 . S
C4025 C4027 1.327 . S
C4025 H4048 0.950 . S
C4026 C4025 1.349 . S
C4026 C4038 1.349 1_565 S
C4027 C4025 1.327 . S
C4027 C4043 1.429 . S
C4027 H4049 0.950 . S
C4028 H4024 0.949 . S
C4028 C4036 1.574 . S
C4028 C4044 1.368 1_545 S
H4029 C4037 0.950 . S
H4030 C4035 0.950 . S
H4031 C4036 0.949 . S
H4032 C4038 0.950 . S
H4033 C4039 0.950 . S
H4034 C4040 0.949 . S
C4035 H4030 0.950 . S
C4035 C4037 1.327 . S
C4035 C4041 1.429 1_565 S
C4036 C4028 1.574 . S
C4036 H4031 0.949 . S
C4036 C4042 1.368 . S
C4037 C4021 1.349 1_565 S
C4037 H4029 0.950 . S
C4037 C4035 1.327 . S
C4038 C4026 1.349 1_545 S
C4038 H4032 0.950 . S
C4038 C4039 1.327 . S
C4039 H4033 0.950 . S
C4039 C4038 1.327 . S
C4039 C4043 1.429 1_545 S
C4040 C4023 1.574 . S
C4040 H4034 0.949 . S
C4040 C4044 1.368 . S
C4041 C4022 1.429 . S
C4041 C4035 1.429 1_545 S
C4041 C4042 1.523 . S
C4042 C4023 1.368 1_545 S
C4042 C4036 1.368 . S
C4042 C4041 1.523 . S
C4043 C4027 1.429 . S
C4043 C4039 1.429 1_565 S
C4043 C4044 1.523 . S
C4044 C4028 1.368 1_565 S
C4044 C4040 1.368 . S
C4044 C4043 1.523 . S
H4045 C4020 0.950 . S
H4046 C4022 0.950 . S
H4047 C4023 0.949 . S
H4048 C4025 0.950 . S
H4049 C4027 0.950 . S
C4050 C4051 1.349 . S
C4050 C4052 1.327 . S
C4050 H4075 0.950 . S
C4051 C4050 1.349 . S
C4051 C4067 1.349 1_545 S
C4052 C4050 1.327 . S
C4052 C4071 1.429 . S
C4052 H4076 0.950 . S
C4053 C4070 1.574 . S
C4053 C4072 1.368 1_565 S
C4053 H4077 0.949 . S
H4054 C4058 0.949 . S
C4055 C4056 1.349 . S
C4055 C4057 1.327 . S
C4055 H4078 0.950 . S
C4056 C4055 1.349 . S
C4056 C4068 1.349 1_565 S
C4057 C4055 1.327 . S
C4057 C4073 1.429 . S
C4057 H4079 0.950 . S
C4058 H4054 0.949 . S
C4058 C4066 1.574 . S
C4058 C4074 1.368 1_545 S
H4059 C4067 0.950 . S
H4060 C4065 0.950 . S
H4061 C4066 0.949 . S
H4062 C4068 0.950 . S
H4063 C4069 0.950 . S
H4064 C4070 0.949 . S
C4065 H4060 0.950 . S
C4065 C4067 1.327 . S
C4065 C4071 1.429 1_565 S
C4066 C4058 1.574 . S
C4066 H4061 0.949 . S
C4066 C4072 1.368 . S
C4067 C4051 1.349 1_565 S
C4067 H4059 0.950 . S
C4067 C4065 1.327 . S
C4068 C4056 1.349 1_545 S
C4068 H4062 0.950 . S
C4068 C4069 1.327 . S
C4069 H4063 0.950 . S
C4069 C4068 1.327 . S
C4069 C4073 1.429 1_545 S
C4070 C4053 1.574 . S
C4070 H4064 0.949 . S
C4070 C4074 1.368 . S
C4071 C4052 1.429 . S
C4071 C4065 1.429 1_545 S
C4071 C4072 1.523 . S
C4072 C4053 1.368 1_545 S
C4072 C4066 1.368 . S
C4072 C4071 1.523 . S
C4073 C4057 1.429 . S
C4073 C4069 1.429 1_565 S
C4073 C4074 1.523 . S
C4074 C4058 1.368 1_565 S
C4074 C4070 1.368 . S
C4074 C4073 1.523 . S
H4075 C4050 0.950 . S
H4076 C4052 0.950 . S
H4077 C4053 0.949 . S
H4078 C4055 0.950 . S
H4079 C4057 0.950 . S
C4080 C4081 1.349 . S
C4080 C4082 1.327 . S
C4080 H4105 0.950 . S
C4081 C4080 1.349 . S
C4081 C4097 1.349 1_455 S
C4082 C4080 1.327 . S
C4082 C4101 1.429 . S
C4082 H4106 0.950 . S
C4083 C4100 1.574 . S
C4083 C4102 1.368 1_655 S
C4083 H4107 0.949 . S
H4084 C4088 0.949 . S
C4085 C4086 1.349 . S
C4085 C4087 1.327 . S
C4085 H4108 0.950 . S
C4086 C4085 1.349 . S
C4086 C4098 1.349 1_655 S
C4087 C4085 1.327 . S
C4087 C4103 1.429 . S
C4087 H4109 0.950 . S
C4088 H4084 0.949 . S
C4088 C4096 1.574 . S
C4088 C4104 1.368 1_455 S
H4089 C4097 0.950 . S
H4090 C4095 0.950 . S
H4091 C4096 0.949 . S
H4092 C4098 0.950 . S
H4093 C4099 0.950 . S
H4094 C4100 0.949 . S
C4095 H4090 0.950 . S
C4095 C4097 1.327 . S
C4095 C4101 1.429 1_655 S
C4096 C4088 1.574 . S
C4096 H4091 0.949 . S
C4096 C4102 1.368 . S
C4097 C4081 1.349 1_655 S
C4097 H4089 0.950 . S
C4097 C4095 1.327 . S
C4098 C4086 1.349 1_455 S
C4098 H4092 0.950 . S
C4098 C4099 1.327 . S
C4099 H4093 0.950 . S
C4099 C4098 1.327 . S
C4099 C4103 1.429 1_455 S
C4100 C4083 1.574 . S
C4100 H4094 0.949 . S
C4100 C4104 1.368 . S
C4101 C4082 1.429 . S
C4101 C4095 1.429 1_455 S
C4101 C4102 1.523 . S
C4102 C4083 1.368 1_455 S
C4102 C4096 1.368 . S
C4102 C4101 1.523 . S
C4103 C4087 1.429 . S
C4103 C4099 1.429 1_655 S
C4103 C4104 1.523 . S
C4104 C4088 1.368 1_655 S
C4104 C4100 1.368 . S
C4104 C4103 1.523 . S
H4105 C4080 0.950 . S
H4106 C4082 0.950 . S
H4107 C4083 0.949 . S
H4108 C4085 0.950 . S
H4109 C4087 0.950 . S
C4110 C4111 1.349 . S
C4110 C4112 1.327 . S
C4110 H4135 0.950 . S
C4111 C4110 1.349 . S
C4111 C4127 1.349 . S
C4112 C4110 1.327 . S
C4112 C4131 1.429 . S
C4112 H4136 0.950 . S
C4113 C4130 1.574 . S
C4113 C4132 1.368 . S
C4113 H4137 0.949 . S
H4114 C4118 0.949 . S
C4115 C4116 1.349 . S
C4115 C4117 1.327 . S
C4115 H4138 0.950 . S
C4116 C4115 1.349 . S
C4116 C4128 1.349 . S
C4117 C4115 1.327 . S
C4117 C4133 1.429 . S
C4117 H4139 0.950 . S
C4118 H4114 0.949 . S
C4118 C4126 1.574 . S
C4118 C4134 1.368 . S
H4119 C4127 0.950 . S
H4120 C4125 0.950 . S
H4121 C4126 0.949 . S
H4122 C4128 0.950 . S
H4123 C4129 0.950 . S
H4124 C4130 0.949 . S
C4125 H4120 0.950 . S
C4125 C4127 1.327 . S
C4125 C4131 1.429 . S
C4126 C4118 1.574 . S
C4126 H4121 0.949 . S
C4126 C4132 1.368 . S
C4127 C4111 1.349 . S
C4127 H4119 0.950 . S
C4127 C4125 1.327 . S
C4128 C4116 1.349 . S
C4128 H4122 0.950 . S
C4128 C4129 1.327 . S
C4129 H4123 0.950 . S
C4129 C4128 1.327 . S
C4129 C4133 1.429 . S
C4130 C4113 1.574 . S
C4130 H4124 0.949 . S
C4130 C4134 1.368 . S
C4131 C4112 1.429 . S
C4131 C4125 1.429 . S
C4131 C4132 1.523 . S
C4132 C4113 1.368 . S
C4132 C4126 1.368 . S
C4132 C4131 1.523 . S
C4133 C4117 1.429 . S
C4133 C4129 1.429 . S
C4133 C4134 1.523 . S
C4134 C4118 1.368 . S
C4134 C4130 1.368 . S
C4134 C4133 1.523 . S
H4135 C4110 0.950 . S
H4136 C4112 0.950 . S
H4137 C4113 0.949 . S
H4138 C4115 0.950 . S
H4139 C4117 0.950 . S
C4140 C4141 1.349 . S
C4140 C4142 1.327 . S
C4140 H4165 0.950 . S
C4141 C4140 1.349 . S
C4141 C4157 1.349 . S
C4142 C4140 1.327 . S
C4142 C4161 1.429 . S
C4142 H4166 0.950 1_655 S
C4143 C4160 1.574 . S
C4143 C4162 1.368 . S
C4143 H4167 0.949 . S
H4144 C4148 0.949 . S
C4145 C4146 1.349 . S
C4145 C4147 1.327 . S
C4145 H4168 0.950 . S
C4146 C4145 1.349 . S
C4146 C4158 1.349 . S
C4147 C4145 1.327 . S
C4147 C4163 1.429 . S
C4147 H4169 0.950 1_455 S
C4148 H4144 0.949 . S
C4148 C4156 1.574 . S
C4148 C4164 1.368 . S
H4149 C4157 0.950 . S
H4150 C4155 0.950 . S
H4151 C4156 0.949 . S
H4152 C4158 0.950 . S
H4153 C4159 0.950 . S
H4154 C4160 0.949 . S
C4155 H4150 0.950 . S
C4155 C4157 1.327 . S
C4155 C4161 1.429 . S
C4156 C4148 1.574 . S
C4156 H4151 0.949 . S
C4156 C4162 1.368 1_455 S
C4157 C4141 1.349 . S
C4157 H4149 0.950 . S
C4157 C4155 1.327 . S
C4158 C4146 1.349 . S
C4158 H4152 0.950 . S
C4158 C4159 1.327 . S
C4159 H4153 0.950 . S
C4159 C4158 1.327 . S
C4159 C4163 1.429 . S
C4160 C4143 1.574 . S
C4160 H4154 0.949 . S
C4160 C4164 1.368 1_655 S
C4161 C4142 1.429 . S
C4161 C4155 1.429 . S
C4161 C4162 1.523 . S
C4162 C4143 1.368 . S
C4162 C4156 1.368 1_655 S
C4162 C4161 1.523 . S
C4163 C4147 1.429 . S
C4163 C4159 1.429 . S
C4163 C4164 1.523 . S
C4164 C4148 1.368 . S
C4164 C4160 1.368 1_455 S
C4164 C4163 1.523 . S
H4165 C4140 0.950 . S
H4166 C4142 0.950 1_455 S
H4167 C4143 0.949 . S
H4168 C4145 0.950 . S
H4169 C4147 0.950 1_655 S
C4170 C4171 1.349 . S
C4170 C4172 1.327 . S
C4170 H4195 0.950 . S
C4171 C4170 1.349 . S
C4171 C4187 1.349 . S
C4172 C4170 1.327 . S
C4172 C4191 1.429 . S
C4172 H4196 0.950 . S
C4173 C4190 1.574 . S
C4173 C4192 1.368 . S
C4173 H4197 0.949 . S
H4174 C4178 0.949 . S
C4175 C4176 1.349 . S
C4175 C4177 1.327 . S
C4175 H4198 0.950 . S
C4176 C4175 1.349 . S
C4176 C4188 1.349 . S
C4177 C4175 1.327 . S
C4177 C4193 1.429 . S
C4177 H4199 0.950 . S
C4178 H4174 0.949 . S
C4178 C4186 1.574 . S
C4178 C4194 1.368 . S
H4179 C4187 0.950 . S
H4180 C4185 0.950 . S
H4181 C4186 0.949 . S
H4182 C4188 0.950 . S
H4183 C4189 0.950 . S
H4184 C4190 0.949 . S
C4185 H4180 0.950 . S
C4185 C4187 1.327 . S
C4185 C4191 1.429 . S
C4186 C4178 1.574 . S
C4186 H4181 0.949 . S
C4186 C4192 1.368 . S
C4187 C4171 1.349 . S
C4187 H4179 0.950 . S
C4187 C4185 1.327 . S
C4188 C4176 1.349 . S
C4188 H4182 0.950 . S
C4188 C4189 1.327 . S
C4189 H4183 0.950 . S
C4189 C4188 1.327 . S
C4189 C4193 1.429 . S
C4190 C4173 1.574 . S
C4190 H4184 0.949 . S
C4190 C4194 1.368 . S
C4191 C4172 1.429 . S
C4191 C4185 1.429 . S
C4191 C4192 1.523 . S
C4192 C4173 1.368 . S
C4192 C4186 1.368 . S
C4192 C4191 1.523 . S
C4193 C4177 1.429 . S
C4193 C4189 1.429 . S
C4193 C4194 1.523 . S
C4194 C4178 1.368 . S
C4194 C4190 1.368 . S
C4194 C4193 1.523 . S
H4195 C4170 0.950 . S
H4196 C4172 0.950 . S
H4197 C4173 0.949 . S
H4198 C4175 0.950 . S
H4199 C4177 0.950 . S
C4200 C4201 1.349 . S
C4200 C4202 1.327 . S
C4200 H4225 0.950 . S
C4201 C4200 1.349 . S
C4201 C4217 1.349 . S
C4202 C4200 1.327 . S
C4202 C4221 1.429 . S
C4202 H4226 0.950 . S
C4203 C4220 1.574 . S
C4203 C4222 1.368 1_565 S
C4203 H4227 0.949 . S
H4204 C4208 0.949 . S
C4205 C4206 1.349 . S
C4205 C4207 1.327 . S
C4205 H4228 0.950 . S
C4206 C4205 1.349 . S
C4206 C4218 1.349 . S
C4207 C4205 1.327 . S
C4207 C4223 1.429 . S
C4207 H4229 0.950 . S
C4208 H4204 0.949 . S
C4208 C4216 1.574 . S
C4208 C4224 1.368 1_545 S
H4209 C4217 0.950 . S
H4210 C4215 0.955 . S
H4211 C4216 0.949 . S
H4212 C4218 0.950 . S
H4213 C4219 0.950 1_545 S
H4214 C4220 0.949 . S
C4215 H4210 0.955 . S
C4215 C4217 1.327 . S
C4215 C4221 1.429 . S
C4216 C4208 1.574 . S
C4216 H4211 0.949 . S
C4216 C4222 1.368 . S
C4217 C4201 1.349 . S
C4217 H4209 0.950 . S
C4217 C4215 1.327 . S
C4218 C4206 1.349 . S
C4218 H4212 0.950 . S
C4218 C4219 1.327 . S
C4219 H4213 0.950 1_565 S
C4219 C4218 1.327 . S
C4219 C4223 1.429 . S
C4220 C4203 1.574 . S
C4220 H4214 0.949 . S
C4220 C4224 1.368 . S
C4221 C4202 1.429 . S
C4221 C4215 1.429 . S
C4221 C4222 1.523 . S
C4222 C4203 1.368 1_545 S
C4222 C4216 1.368 . S
C4222 C4221 1.523 . S
C4223 C4207 1.429 . S
C4223 C4219 1.429 . S
C4223 C4224 1.523 . S
C4224 C4208 1.368 1_565 S
C4224 C4220 1.368 . S
C4224 C4223 1.523 . S
H4225 C4200 0.950 . S
H4226 C4202 0.950 . S
H4227 C4203 0.949 . S
H4228 C4205 0.950 . S
H4229 C4207 0.950 . S
C4230 C4231 1.349 . S
C4230 C4232 1.327 . S
C4230 H4255 0.950 . S
C4231 C4230 1.349 . S
C4231 C4247 1.349 . S
C4232 C4230 1.327 . S
C4232 C4251 1.429 . S
C4232 H4256 0.950 . S
C4233 C4250 1.574 . S
C4233 C4252 1.368 1_455 S
C4233 H4257 0.949 . S
H4234 C4238 0.949 . S
C4235 C4236 1.349 . S
C4235 C4237 1.327 . S
C4235 H4258 0.950 . S
C4236 C4235 1.349 . S
C4236 C4248 1.349 . S
C4237 C4235 1.327 . S
C4237 C4253 1.429 . S
C4237 H4259 0.950 . S
C4238 H4234 0.949 . S
C4238 C4246 1.574 . S
C4238 C4254 1.368 1_655 S
H4239 C4247 0.950 . S
H4240 C4245 0.950 1_455 S
H4241 C4246 0.949 . S
H4242 C4248 0.950 . S
H4243 C4249 0.950 1_655 S
H4244 C4250 0.949 . S
C4245 H4240 0.950 1_655 S
C4245 C4247 1.327 . S
C4245 C4251 1.429 . S
C4246 C4238 1.574 . S
C4246 H4241 0.949 . S
C4246 C4252 1.368 . S
C4247 C4231 1.349 . S
C4247 H4239 0.950 . S
C4247 C4245 1.327 . S
C4248 C4236 1.349 . S
C4248 H4242 0.950 . S
C4248 C4249 1.327 . S
C4249 H4243 0.950 1_455 S
C4249 C4248 1.327 . S
C4249 C4253 1.429 . S
C4250 C4233 1.574 . S
C4250 H4244 0.949 . S
C4250 C4254 1.368 . S
C4251 C4232 1.429 . S
C4251 C4245 1.429 . S
C4251 C4252 1.523 . S
C4252 C4233 1.368 1_655 S
C4252 C4246 1.368 . S
C4252 C4251 1.523 . S
C4253 C4237 1.429 . S
C4253 C4249 1.429 . S
C4253 C4254 1.523 . S
C4254 C4238 1.368 1_455 S
C4254 C4250 1.368 . S
C4254 C4253 1.523 . S
H4255 C4230 0.950 . S
H4256 C4232 0.950 . S
H4257 C4233 0.949 . S
H4258 C4235 0.950 . S
H4259 C4237 0.950 . S
C4260 C4261 1.349 . S
C4260 C4262 1.327 . S
C4260 H4285 0.950 . S
C4261 C4260 1.349 . S
C4261 C4277 1.349 . S
C4262 C4260 1.327 . S
C4262 C4281 1.429 . S
C4262 H4286 0.950 . S
C4263 C4280 1.574 . S
C4263 C4282 1.368 . S
C4263 H4287 0.949 . S
H4264 C4268 0.949 . S
C4265 C4266 1.349 . S
C4265 C4267 1.327 . S
C4265 H4288 0.950 . S
C4266 C4265 1.349 . S
C4266 C4278 1.349 . S
C4267 C4265 1.327 . S
C4267 C4283 1.429 . S
C4267 H4289 0.950 . S
C4268 H4264 0.949 . S
C4268 C4276 1.574 . S
C4268 C4284 1.368 . S
H4269 C4277 0.950 . S
H4270 C4275 0.950 . S
H4271 C4276 0.949 . S
H4272 C4278 0.950 . S
H4273 C4279 0.950 . S
H4274 C4280 0.949 . S
C4275 H4270 0.950 . S
C4275 C4277 1.327 . S
C4275 C4281 1.429 . S
C4276 C4268 1.574 . S
C4276 H4271 0.949 . S
C4276 C4282 1.368 . S
C4277 C4261 1.349 . S
C4277 H4269 0.950 . S
C4277 C4275 1.327 . S
C4278 C4266 1.349 . S
C4278 H4272 0.950 . S
C4278 C4279 1.327 . S
C4279 H4273 0.950 . S
C4279 C4278 1.327 . S
C4279 C4283 1.429 . S
C4280 C4263 1.574 . S
C4280 H4274 0.949 . S
C4280 C4284 1.368 . S
C4281 C4262 1.429 . S
C4281 C4275 1.429 . S
C4281 C4282 1.523 . S
C4282 C4263 1.368 . S
C4282 C4276 1.368 . S
C4282 C4281 1.523 . S
C4283 C4267 1.429 . S
C4283 C4279 1.429 . S
C4283 C4284 1.523 . S
C4284 C4268 1.368 . S
C4284 C4280 1.368 . S
C4284 C4283 1.523 . S
H4285 C4260 0.950 . S
H4286 C4262 0.950 . S
H4287 C4263 0.949 . S
H4288 C4265 0.950 . S
H4289 C4267 0.950 . S
C4290 C4291 1.349 . S
C4290 C4292 1.327 . S
C4290 H4315 0.950 . S
C4291 C4290 1.349 . S
C4291 C4307 1.349 . S
C4292 C4290 1.327 . S
C4292 C4311 1.429 . S
C4292 H4316 0.950 . S
C4293 C4310 1.574 . S
C4293 C4312 1.368 1_565 S
C4293 H4317 0.949 . S
H4294 C4298 0.949 . S
C4295 C4296 1.349 . S
C4295 C4297 1.327 . S
C4295 H4318 0.950 . S
C4296 C4295 1.349 . S
C4296 C4308 1.349 . S
C4297 C4295 1.327 . S
C4297 C4313 1.429 . S
C4297 H4319 0.950 . S
C4298 H4294 0.949 . S
C4298 C4306 1.574 . S
C4298 C4314 1.368 1_545 S
H4299 C4307 0.950 . S
H4300 C4305 0.950 . S
H4301 C4306 0.949 . S
H4302 C4308 0.950 . S
H4303 C4309 0.950 . S
H4304 C4310 0.949 . S
C4305 H4300 0.950 . S
C4305 C4307 1.327 . S
C4305 C4311 1.429 . S
C4306 C4298 1.574 . S
C4306 H4301 0.949 . S
C4306 C4312 1.368 . S
C4307 C4291 1.349 . S
C4307 H4299 0.950 . S
C4307 C4305 1.327 . S
C4308 C4296 1.349 . S
C4308 H4302 0.950 . S
C4308 C4309 1.327 . S
C4309 H4303 0.950 . S
C4309 C4308 1.327 . S
C4309 C4313 1.429 . S
C4310 C4293 1.574 . S
C4310 H4304 0.949 . S
C4310 C4314 1.368 . S
C4311 C4292 1.429 . S
C4311 C4305 1.429 . S
C4311 C4312 1.523 . S
C4312 C4293 1.368 1_545 S
C4312 C4306 1.368 . S
C4312 C4311 1.523 . S
C4313 C4297 1.429 . S
C4313 C4309 1.429 . S
C4313 C4314 1.523 . S
C4314 C4298 1.368 1_565 S
C4314 C4310 1.368 . S
C4314 C4313 1.523 . S
H4315 C4290 0.950 . S
H4316 C4292 0.950 . S
H4317 C4293 0.949 . S
H4318 C4295 0.950 . S
H4319 C4297 0.950 . S
C4320 C4321 1.349 . S
C4320 C4322 1.327 . S
C4320 H4345 0.950 . S
C4321 C4320 1.349 . S
C4321 C4337 1.349 . S
C4322 C4320 1.327 . S
C4322 C4341 1.429 . S
C4322 H4346 0.950 . S
C4323 C4340 1.574 . S
C4323 C4342 1.368 . S
C4323 H4347 0.949 . S
H4324 C4328 0.949 . S
C4325 C4326 1.349 . S
C4325 C4327 1.327 . S
C4325 H4348 0.950 . S
C4326 C4325 1.349 . S
C4326 C4338 1.349 . S
C4327 C4325 1.327 . S
C4327 C4343 1.429 . S
C4327 H4349 0.950 . S
C4328 H4324 0.949 . S
C4328 C4336 1.574 . S
C4328 C4344 1.368 . S
H4329 C4337 0.950 . S
H4330 C4335 0.950 . S
H4331 C4336 0.949 . S
H4332 C4338 0.950 . S
H4333 C4339 0.950 . S
H4334 C4340 0.949 . S
C4335 H4330 0.950 . S
C4335 C4337 1.327 . S
C4335 C4341 1.429 . S
C4336 C4328 1.574 . S
C4336 H4331 0.949 . S
C4336 C4342 1.368 . S
C4337 C4321 1.349 . S
C4337 H4329 0.950 . S
C4337 C4335 1.327 . S
C4338 C4326 1.349 . S
C4338 H4332 0.950 . S
C4338 C4339 1.327 . S
C4339 H4333 0.950 . S
C4339 C4338 1.327 . S
C4339 C4343 1.429 . S
C4340 C4323 1.574 . S
C4340 H4334 0.949 . S
C4340 C4344 1.368 . S
C4341 C4322 1.429 . S
C4341 C4335 1.429 . S
C4341 C4342 1.523 . S
C4342 C4323 1.368 . S
C4342 C4336 1.368 . S
C4342 C4341 1.523 . S
C4343 C4327 1.429 . S
C4343 C4339 1.429 . S
C4343 C4344 1.523 . S
C4344 C4328 1.368 . S
C4344 C4340 1.368 . S
C4344 C4343 1.523 . S
H4345 C4320 0.950 . S
H4346 C4322 0.950 . S
H4347 C4323 0.949 . S
H4348 C4325 0.950 . S
H4349 C4327 0.950 . S
C4350 C4351 1.349 . S
C4350 C4352 1.327 . S
C4350 H4375 0.950 . S
C4351 C4350 1.349 . S
C4351 C4367 1.349 . S
C4352 C4350 1.327 . S
C4352 C4371 1.429 . S
C4352 H4376 0.950 . S
C4353 C4370 1.574 . S
C4353 C4372 1.368 . S
C4353 H4377 0.949 . S
H4354 C4358 0.949 . S
C4355 C4356 1.349 . S
C4355 C4357 1.327 . S
C4355 H4378 0.950 . S
C4356 C4355 1.349 . S
C4356 C4368 1.349 . S
C4357 C4355 1.327 . S
C4357 C4373 1.429 . S
C4357 H4379 0.950 . S
C4358 H4354 0.949 . S
C4358 C4366 1.574 . S
C4358 C4374 1.368 . S
H4359 C4367 0.950 . S
H4360 C4365 0.950 . S
H4361 C4366 0.949 . S
H4362 C4368 0.950 . S
H4363 C4369 0.950 . S
H4364 C4370 0.949 . S
C4365 H4360 0.950 . S
C4365 C4367 1.327 . S
C4365 C4371 1.429 . S
C4366 C4358 1.574 . S
C4366 H4361 0.949 . S
C4366 C4372 1.368 . S
C4367 C4351 1.349 . S
C4367 H4359 0.950 . S
C4367 C4365 1.327 . S
C4368 C4356 1.349 . S
C4368 H4362 0.950 . S
C4368 C4369 1.327 . S
C4369 H4363 0.950 . S
C4369 C4368 1.327 . S
C4369 C4373 1.429 . S
C4370 C4353 1.574 . S
C4370 H4364 0.949 . S
C4370 C4374 1.368 . S
C4371 C4352 1.429 . S
C4371 C4365 1.429 . S
C4371 C4372 1.523 . S
C4372 C4353 1.368 . S
C4372 C4366 1.368 . S
C4372 C4371 1.523 . S
C4373 C4357 1.429 . S
C4373 C4369 1.429 . S
C4373 C4374 1.523 . S
C4374 C4358 1.368 . S
C4374 C4370 1.368 . S
C4374 C4373 1.523 . S
H4375 C4350 0.950 . S
H4376 C4352 0.950 . S
H4377 C4353 0.949 . S
H4378 C4355 0.950 . S
H4379 C4357 0.950 . S
C4380 C4381 1.349 . S
C4380 C4382 1.327 . S
C4380 H4405 0.950 . S
C4381 C4380 1.349 . S
C4381 C4397 1.349 . S
C4382 C4380 1.327 . S
C4382 C4401 1.429 . S
C4382 H4406 0.950 . S
C4383 C4400 1.574 . S
C4383 C4402 1.368 . S
C4383 H4407 0.949 . S
H4384 C4388 0.949 . S
C4385 C4386 1.349 . S
C4385 C4387 1.327 . S
C4385 H4408 0.950 . S
C4386 C4385 1.349 . S
C4386 C4398 1.349 . S
C4387 C4385 1.327 . S
C4387 C4403 1.429 . S
C4387 H4409 0.950 . S
C4388 H4384 0.949 . S
C4388 C4396 1.574 . S
C4388 C4404 1.368 . S
H4389 C4397 0.950 . S
H4390 C4395 0.950 . S
H4391 C4396 0.949 . S
H4392 C4398 0.950 . S
H4393 C4399 0.950 . S
H4394 C4400 0.949 . S
C4395 H4390 0.950 . S
C4395 C4397 1.327 . S
C4395 C4401 1.429 . S
C4396 C4388 1.574 . S
C4396 H4391 0.949 . S
C4396 C4402 1.368 . S
C4397 C4381 1.349 . S
C4397 H4389 0.950 . S
C4397 C4395 1.327 . S
C4398 C4386 1.349 . S
C4398 H4392 0.950 . S
C4398 C4399 1.327 . S
C4399 H4393 0.950 . S
C4399 C4398 1.327 . S
C4399 C4403 1.429 . S
C4400 C4383 1.574 . S
C4400 H4394 0.949 . S
C4400 C4404 1.368 . S
C4401 C4382 1.429 . S
C4401 C4395 1.429 . S
C4401 C4402 1.523 . S
C4402 C4383 1.368 . S
C4402 C4396 1.368 . S
C4402 C4401 1.523 . S
C4403 C4387 1.429 . S
C4403 C4399 1.429 . S
C4403 C4404 1.523 . S
C4404 C4388 1.368 . S
C4404 C4400 1.368 . S
C4404 C4403 1.523 . S
H4405 C4380 0.950 . S
H4406 C4382 0.950 . S
H4407 C4383 0.949 . S
H4408 C4385 0.950 . S
H4409 C4387 0.950 . S
C4410 C4411 1.349 . S
C4410 C4412 1.327 . S
C4410 H4435 0.950 . S
C4411 C4410 1.349 . S
C4411 C4427 1.349 . S
C4412 C4410 1.327 . S
C4412 C4431 1.429 . S
C4412 H4436 0.950 . S
C4413 C4430 1.574 . S
C4413 C4432 1.368 . S
C4413 H4437 0.949 . S
H4414 C4418 0.949 . S
C4415 C4416 1.349 . S
C4415 C4417 1.327 . S
C4415 H4438 0.950 . S
C4416 C4415 1.349 . S
C4416 C4428 1.349 . S
C4417 C4415 1.327 . S
C4417 C4433 1.429 . S
C4417 H4439 0.950 . S
C4418 H4414 0.949 . S
C4418 C4426 1.574 . S
C4418 C4434 1.368 . S
H4419 C4427 0.950 . S
H4420 C4425 0.950 . S
H4421 C4426 0.949 . S
H4422 C4428 0.950 . S
H4423 C4429 0.950 . S
H4424 C4430 0.949 . S
C4425 H4420 0.950 . S
C4425 C4427 1.327 . S
C4425 C4431 1.429 . S
C4426 C4418 1.574 . S
C4426 H4421 0.949 . S
C4426 C4432 1.368 . S
C4427 C4411 1.349 . S
C4427 H4419 0.950 . S
C4427 C4425 1.327 . S
C4428 C4416 1.349 . S
C4428 H4422 0.950 . S
C4428 C4429 1.327 . S
C4429 H4423 0.950 . S
C4429 C4428 1.327 . S
C4429 C4433 1.429 . S
C4430 C4413 1.574 . S
C4430 H4424 0.949 . S
C4430 C4434 1.368 . S
C4431 C4412 1.429 . S
C4431 C4425 1.429 . S
C4431 C4432 1.523 . S
C4432 C4413 1.368 . S
C4432 C4426 1.368 . S
C4432 C4431 1.523 . S
C4433 C4417 1.429 . S
C4433 C4429 1.429 . S
C4433 C4434 1.523 . S
C4434 C4418 1.368 . S
C4434 C4430 1.368 . S
C4434 C4433 1.523 . S
H4435 C4410 0.950 . S
H4436 C4412 0.950 . S
H4437 C4413 0.949 . S
H4438 C4415 0.950 . S
H4439 C4417 0.950 . S
C4440 C4441 1.349 . S
C4440 C4442 1.327 . S
C4440 H4465 0.950 . S
C4441 C4440 1.349 . S
C4441 C4457 1.349 . S
C4442 C4440 1.327 . S
C4442 C4461 1.429 . S
C4442 H4466 0.950 . S
C4443 C4460 1.574 . S
C4443 C4462 1.368 . S
C4443 H4467 0.949 . S
H4444 C4448 0.949 . S
C4445 C4446 1.349 . S
C4445 C4447 1.327 . S
C4445 H4468 0.950 . S
C4446 C4445 1.349 . S
C4446 C4458 1.349 . S
C4447 C4445 1.327 . S
C4447 C4463 1.429 . S
C4447 H4469 0.950 . S
C4448 H4444 0.949 . S
C4448 C4456 1.574 . S
C4448 C4464 1.368 . S
H4449 C4457 0.950 . S
H4450 C4455 0.950 . S
H4451 C4456 0.949 . S
H4452 C4458 0.950 . S
H4453 C4459 0.950 . S
H4454 C4460 0.949 . S
C4455 H4450 0.950 . S
C4455 C4457 1.327 . S
C4455 C4461 1.429 . S
C4456 C4448 1.574 . S
C4456 H4451 0.949 . S
C4456 C4462 1.368 . S
C4457 C4441 1.349 . S
C4457 H4449 0.950 . S
C4457 C4455 1.327 . S
C4458 C4446 1.349 . S
C4458 H4452 0.950 . S
C4458 C4459 1.327 . S
C4459 H4453 0.950 . S
C4459 C4458 1.327 . S
C4459 C4463 1.429 . S
C4460 C4443 1.574 . S
C4460 H4454 0.949 . S
C4460 C4464 1.368 . S
C4461 C4442 1.429 . S
C4461 C4455 1.429 . S
C4461 C4462 1.523 . S
C4462 C4443 1.368 . S
C4462 C4456 1.368 . S
C4462 C4461 1.523 . S
C4463 C4447 1.429 . S
C4463 C4459 1.429 . S
C4463 C4464 1.523 . S
C4464 C4448 1.368 . S
C4464 C4460 1.368 . S
C4464 C4463 1.523 . S
H4465 C4440 0.950 . S
H4466 C4442 0.950 . S
H4467 C4443 0.949 . S
H4468 C4445 0.950 . S
H4469 C4447 0.950 . S
C4470 C4471 1.349 . S
C4470 C4472 1.327 . S
C4470 H4495 0.950 . S
C4471 C4470 1.349 . S
C4471 C4487 1.349 . S
C4472 C4470 1.327 . S
C4472 C4491 1.429 . S
C4472 H4496 0.950 . S
C4473 C4490 1.574 . S
C4473 C4492 1.368 . S
C4473 H4497 0.949 . S
H4474 C4478 0.949 . S
C4475 C4476 1.349 . S
C4475 C4477 1.327 . S
C4475 H4498 0.950 . S
C4476 C4475 1.349 . S
C4476 C4488 1.349 . S
C4477 C4475 1.327 . S
C4477 C4493 1.429 . S
C4477 H4499 0.950 . S
C4478 H4474 0.949 . S
C4478 C4486 1.574 . S
C4478 C4494 1.368 . S
H4479 C4487 0.950 . S
H4480 C4485 0.950 . S
H4481 C4486 0.949 . S
H4482 C4488 0.950 . S
H4483 C4489 0.950 . S
H4484 C4490 0.949 . S
C4485 H4480 0.950 . S
C4485 C4487 1.327 . S
C4485 C4491 1.429 . S
C4486 C4478 1.574 . S
C4486 H4481 0.949 . S
C4486 C4492 1.368 . S
C4487 C4471 1.349 . S
C4487 H4479 0.950 . S
C4487 C4485 1.327 . S
C4488 C4476 1.349 . S
C4488 H4482 0.950 . S
C4488 C4489 1.327 . S
C4489 H4483 0.950 . S
C4489 C4488 1.327 . S
C4489 C4493 1.429 . S
C4490 C4473 1.574 . S
C4490 H4484 0.949 . S
C4490 C4494 1.368 . S
C4491 C4472 1.429 . S
C4491 C4485 1.429 . S
C4491 C4492 1.523 . S
C4492 C4473 1.368 . S
C4492 C4486 1.368 . S
C4492 C4491 1.523 . S
C4493 C4477 1.429 . S
C4493 C4489 1.429 . S
C4493 C4494 1.523 . S
C4494 C4478 1.368 . S
C4494 C4490 1.368 . S
C4494 C4493 1.523 . S
H4495 C4470 0.950 . S
H4496 C4472 0.950 . S
H4497 C4473 0.949 . S
H4498 C4475 0.950 . S
H4499 C4477 0.950 . S
C4500 C4501 1.349 . S
C4500 C4502 1.327 . S
C4500 H4525 0.950 . S
C4501 C4500 1.349 . S
C4501 C4517 1.349 . S
C4502 C4500 1.327 . S
C4502 C4521 1.429 . S
C4502 H4526 0.950 . S
C4503 C4520 1.574 . S
C4503 C4522 1.368 . S
C4503 H4527 0.949 . S
H4504 C4508 0.949 . S
C4505 C4506 1.349 . S
C4505 C4507 1.327 . S
C4505 H4528 0.950 . S
C4506 C4505 1.349 . S
C4506 C4518 1.349 . S
C4507 C4505 1.327 . S
C4507 C4523 1.429 . S
C4507 H4529 0.950 . S
C4508 H4504 0.949 . S
C4508 C4516 1.574 . S
C4508 C4524 1.368 . S
H4509 C4517 0.950 . S
H4510 C4515 0.950 . S
H4511 C4516 0.949 . S
H4512 C4518 0.950 . S
H4513 C4519 0.950 . S
H4514 C4520 0.949 . S
C4515 H4510 0.950 . S
C4515 C4517 1.327 . S
C4515 C4521 1.429 . S
C4516 C4508 1.574 . S
C4516 H4511 0.949 . S
C4516 C4522 1.368 . S
C4517 C4501 1.349 . S
C4517 H4509 0.950 . S
C4517 C4515 1.327 . S
C4518 C4506 1.349 . S
C4518 H4512 0.950 . S
C4518 C4519 1.327 . S
C4519 H4513 0.950 . S
C4519 C4518 1.327 . S
C4519 C4523 1.429 . S
C4520 C4503 1.574 . S
C4520 H4514 0.949 . S
C4520 C4524 1.368 . S
C4521 C4502 1.429 . S
C4521 C4515 1.429 . S
C4521 C4522 1.523 . S
C4522 C4503 1.368 . S
C4522 C4516 1.368 . S
C4522 C4521 1.523 . S
C4523 C4507 1.429 . S
C4523 C4519 1.429 . S
C4523 C4524 1.523 . S
C4524 C4508 1.368 . S
C4524 C4520 1.368 . S
C4524 C4523 1.523 . S
H4525 C4500 0.950 . S
H4526 C4502 0.950 . S
H4527 C4503 0.949 . S
H4528 C4505 0.950 . S
H4529 C4507 0.950 . S
C4530 C4531 1.349 . S
C4530 C4532 1.327 . S
C4530 H4555 0.950 . S
C4531 C4530 1.349 . S
C4531 C4547 1.349 . S
C4532 C4530 1.327 . S
C4532 C4551 1.429 . S
C4532 H4556 0.950 . S
C4533 C4550 1.574 . S
C4533 C4552 1.368 . S
C4533 H4557 0.949 . S
H4534 C4538 0.949 . S
C4535 C4536 1.349 . S
C4535 C4537 1.327 . S
C4535 H4558 0.950 . S
C4536 C4535 1.349 . S
C4536 C4548 1.349 . S
C4537 C4535 1.327 . S
C4537 C4553 1.429 . S
C4537 H4559 0.950 . S
C4538 H4534 0.949 . S
C4538 C4546 1.574 . S
C4538 C4554 1.368 . S
H4539 C4547 0.950 . S
H4540 C4545 0.950 . S
H4541 C4546 0.949 . S
H4542 C4548 0.950 . S
H4543 C4549 0.950 . S
H4544 C4550 0.949 . S
C4545 H4540 0.950 . S
C4545 C4547 1.327 . S
C4545 C4551 1.429 . S
C4546 C4538 1.574 . S
C4546 H4541 0.949 . S
C4546 C4552 1.368 . S
C4547 C4531 1.349 . S
C4547 H4539 0.950 . S
C4547 C4545 1.327 . S
C4548 C4536 1.349 . S
C4548 H4542 0.950 . S
C4548 C4549 1.327 . S
C4549 H4543 0.950 . S
C4549 C4548 1.327 . S
C4549 C4553 1.429 . S
C4550 C4533 1.574 . S
C4550 H4544 0.949 . S
C4550 C4554 1.368 . S
C4551 C4532 1.429 . S
C4551 C4545 1.429 . S
C4551 C4552 1.523 . S
C4552 C4533 1.368 . S
C4552 C4546 1.368 . S
C4552 C4551 1.523 . S
C4553 C4537 1.429 . S
C4553 C4549 1.429 . S
C4553 C4554 1.523 . S
C4554 C4538 1.368 . S
C4554 C4550 1.368 . S
C4554 C4553 1.523 . S
H4555 C4530 0.950 . S
H4556 C4532 0.950 . S
H4557 C4533 0.949 . S
H4558 C4535 0.950 . S
H4559 C4537 0.950 . S
C4560 C4561 1.349 . S
C4560 C4562 1.327 . S
C4560 H4585 0.950 . S
C4561 C4560 1.349 . S
C4561 C4577 1.349 . S
C4562 C4560 1.327 . S
C4562 C4581 1.429 . S
C4562 H4586 0.950 . S
C4563 C4580 1.574 . S
C4563 C4582 1.368 . S
C4563 H4587 0.949 . S
H4564 C4568 0.949 . S
C4565 C4566 1.349 . S
C4565 C4567 1.327 . S
C4565 H4588 0.950 . S
C4566 C4565 1.349 . S
C4566 C4578 1.349 . S
C4567 C4565 1.327 . S
C4567 C4583 1.429 . S
C4567 H4589 0.950 . S
C4568 H4564 0.949 . S
C4568 C4576 1.574 . S
C4568 C4584 1.368 . S
H4569 C4577 0.950 . S
H4570 C4575 0.950 . S
H4571 C4576 0.949 . S
H4572 C4578 0.950 . S
H4573 C4579 0.950 . S
H4574 C4580 0.949 . S
C4575 H4570 0.950 . S
C4575 C4577 1.327 . S
C4575 C4581 1.429 . S
C4576 C4568 1.574 . S
C4576 H4571 0.949 . S
C4576 C4582 1.368 . S
C4577 C4561 1.349 . S
C4577 H4569 0.950 . S
C4577 C4575 1.327 . S
C4578 C4566 1.349 . S
C4578 H4572 0.950 . S
C4578 C4579 1.327 . S
C4579 H4573 0.950 . S
C4579 C4578 1.327 . S
C4579 C4583 1.429 . S
C4580 C4563 1.574 . S
C4580 H4574 0.949 . S
C4580 C4584 1.368 . S
C4581 C4562 1.429 . S
C4581 C4575 1.429 . S
C4581 C4582 1.523 . S
C4582 C4563 1.368 . S
C4582 C4576 1.368 . S
C4582 C4581 1.523 . S
C4583 C4567 1.429 . S
C4583 C4579 1.429 . S
C4583 C4584 1.523 . S
C4584 C4568 1.368 . S
C4584 C4580 1.368 . S
C4584 C4583 1.523 . S
H4585 C4560 0.950 . S
H4586 C4562 0.950 . S
H4587 C4563 0.949 . S
H4588 C4565 0.950 . S
H4589 C4567 0.950 . S
C4590 C4591 1.349 . S
C4590 C4592 1.327 . S
C4590 H4615 0.950 . S
C4591 C4590 1.349 . S
C4591 C4607 1.349 . S
C4592 C4590 1.327 . S
C4592 C4611 1.429 . S
C4592 H4616 0.950 . S
C4593 C4610 1.574 . S
C4593 C4612 1.368 . S
C4593 H4617 0.949 . S
H4594 C4598 0.949 . S
C4595 C4596 1.349 . S
C4595 C4597 1.327 . S
C4595 H4618 0.950 . S
C4596 C4595 1.349 . S
C4596 C4608 1.349 . S
C4597 C4595 1.327 . S
C4597 C4613 1.429 . S
C4597 H4619 0.950 . S
C4598 H4594 0.949 . S
C4598 C4606 1.574 . S
C4598 C4614 1.368 . S
H4599 C4607 0.950 . S
H4600 C4605 0.950 . S
H4601 C4606 0.949 . S
H4602 C4608 0.950 . S
H4603 C4609 0.950 . S
H4604 C4610 0.949 . S
C4605 H4600 0.950 . S
C4605 C4607 1.327 . S
C4605 C4611 1.429 . S
C4606 C4598 1.574 . S
C4606 H4601 0.949 . S
C4606 C4612 1.368 . S
C4607 C4591 1.349 . S
C4607 H4599 0.950 . S
C4607 C4605 1.327 . S
C4608 C4596 1.349 . S
C4608 H4602 0.950 . S
C4608 C4609 1.327 . S
C4609 H4603 0.950 . S
C4609 C4608 1.327 . S
C4609 C4613 1.429 . S
C4610 C4593 1.574 . S
C4610 H4604 0.949 . S
C4610 C4614 1.368 . S
C4611 C4592 1.429 . S
C4611 C4605 1.429 . S
C4611 C4612 1.523 . S
C4612 C4593 1.368 . S
C4612 C4606 1.368 . S
C4612 C4611 1.523 . S
C4613 C4597 1.429 . S
C4613 C4609 1.429 . S
C4613 C4614 1.523 . S
C4614 C4598 1.368 . S
C4614 C4610 1.368 . S
C4614 C4613 1.523 . S
H4615 C4590 0.950 . S
H4616 C4592 0.950 . S
H4617 C4593 0.949 . S
H4618 C4595 0.950 . S
H4619 C4597 0.950 . S
C4620 C4621 1.349 . S
C4620 C4622 1.327 . S
C4620 H4645 0.950 . S
C4621 C4620 1.349 . S
C4621 C4637 1.349 . S
C4622 C4620 1.327 . S
C4622 C4641 1.429 . S
C4622 H4646 0.950 . S
C4623 C4640 1.574 . S
C4623 C4642 1.368 . S
C4623 H4647 0.949 . S
H4624 C4628 0.949 . S
C4625 C4626 1.349 . S
C4625 C4627 1.327 . S
C4625 H4648 0.950 . S
C4626 C4625 1.349 . S
C4626 C4638 1.349 . S
C4627 C4625 1.327 . S
C4627 C4643 1.429 . S
C4627 H4649 0.950 . S
C4628 H4624 0.949 . S
C4628 C4636 1.574 . S
C4628 C4644 1.368 . S
H4629 C4637 0.950 . S
H4630 C4635 0.950 . S
H4631 C4636 0.949 . S
H4632 C4638 0.950 . S
H4633 C4639 0.950 . S
H4634 C4640 0.949 . S
C4635 H4630 0.950 . S
C4635 C4637 1.327 . S
C4635 C4641 1.429 . S
C4636 C4628 1.574 . S
C4636 H4631 0.949 . S
C4636 C4642 1.368 . S
C4637 C4621 1.349 . S
C4637 H4629 0.950 . S
C4637 C4635 1.327 . S
C4638 C4626 1.349 . S
C4638 H4632 0.950 . S
C4638 C4639 1.327 . S
C4639 H4633 0.950 . S
C4639 C4638 1.327 . S
C4639 C4643 1.429 . S
C4640 C4623 1.574 . S
C4640 H4634 0.949 . S
C4640 C4644 1.368 . S
C4641 C4622 1.429 . S
C4641 C4635 1.429 . S
C4641 C4642 1.523 . S
C4642 C4623 1.368 . S
C4642 C4636 1.368 . S
C4642 C4641 1.523 . S
C4643 C4627 1.429 . S
C4643 C4639 1.429 . S
C4643 C4644 1.523 . S
C4644 C4628 1.368 . S
C4644 C4640 1.368 . S
C4644 C4643 1.523 . S
H4645 C4620 0.950 . S
H4646 C4622 0.950 . S
H4647 C4623 0.949 . S
H4648 C4625 0.950 . S
H4649 C4627 0.950 . S
C4650 C4651 1.349 . S
C4650 C4652 1.327 . S
C4650 H4675 0.950 . S
C4651 C4650 1.349 . S
C4651 C4667 1.349 . S
C4652 C4650 1.327 . S
C4652 C4671 1.429 . S
C4652 H4676 0.950 . S
C4653 C4670 1.574 . S
C4653 C4672 1.368 . S
C4653 H4677 0.949 . S
H4654 C4658 0.949 . S
C4655 C4656 1.349 . S
C4655 C4657 1.327 . S
C4655 H4678 0.950 . S
C4656 C4655 1.349 . S
C4656 C4668 1.349 . S
C4657 C4655 1.327 . S
C4657 C4673 1.429 . S
C4657 H4679 0.950 . S
C4658 H4654 0.949 . S
C4658 C4666 1.574 . S
C4658 C4674 1.368 . S
H4659 C4667 0.950 . S
H4660 C4665 0.950 . S
H4661 C4666 0.949 . S
H4662 C4668 0.950 . S
H4663 C4669 0.950 . S
H4664 C4670 0.949 . S
C4665 H4660 0.950 . S
C4665 C4667 1.327 . S
C4665 C4671 1.429 . S
C4666 C4658 1.574 . S
C4666 H4661 0.949 . S
C4666 C4672 1.368 . S
C4667 C4651 1.349 . S
C4667 H4659 0.950 . S
C4667 C4665 1.327 . S
C4668 C4656 1.349 . S
C4668 H4662 0.950 . S
C4668 C4669 1.327 . S
C4669 H4663 0.950 . S
C4669 C4668 1.327 . S
C4669 C4673 1.429 . S
C4670 C4653 1.574 . S
C4670 H4664 0.949 . S
C4670 C4674 1.368 . S
C4671 C4652 1.429 . S
C4671 C4665 1.429 . S
C4671 C4672 1.523 . S
C4672 C4653 1.368 . S
C4672 C4666 1.368 . S
C4672 C4671 1.523 . S
C4673 C4657 1.429 . S
C4673 C4669 1.429 . S
C4673 C4674 1.523 . S
C4674 C4658 1.368 . S
C4674 C4670 1.368 . S
C4674 C4673 1.523 . S
H4675 C4650 0.950 . S
H4676 C4652 0.950 . S
H4677 C4653 0.949 . S
H4678 C4655 0.950 . S
H4679 C4657 0.950 . S
C1441 C9 1.671 . S
C1446 C99 1.743 . S
C1471 C19 1.743 . S
C1476 C49 1.671 . S
C1501 C89 1.670 . S
C1506 C59 1.743 . S
C1531 C129 1.756 . S
C1536 C179 1.828 . S
C1561 C219 1.829 . S
C1566 C169 1.756 . S
C1591 C209 1.756 . S
C1596 C139 1.829 . S
C1621 C258 1.671 . S
C1626 C330 1.743 . S
C1651 C298 1.671 . S
C1656 C250 1.743 . S
C1681 C338 1.670 . S
C1686 C290 1.743 . S
C1711 C378 1.756 . S
C1716 C410 1.828 . S
C1741 C450 1.829 . S
C1746 C418 1.756 . S
C1771 C370 1.829 . S
C1776 C458 1.757 . S
C1801 C579 1.817 . S
C1806 C489 1.744 . S
C1831 C529 1.744 . S
C1836 C499 1.818 . S
C1861 C539 1.817 . S
C1866 C569 1.744 . S
C1891 C609 1.779 . S
C1896 C659 1.852 . S
C1921 C699 1.852 . S
C1926 C649 1.779 . S
C1951 C619 1.852 . S
C1956 C689 1.779 . S
C1981 C738 1.711 . S
C1986 C810 1.784 . S
C2011 C778 1.711 . S
C2016 C730 1.783 . S
C2041 C770 1.783 . S
C2046 C818 1.711 . S
C2071 C890 1.664 . S
C2076 C858 1.586 1_554 S
C2101 C898 1.585 1_554 S
C2106 C930 1.664 . S
C2131 C850 1.665 . S
C2136 C938 1.586 1_554 S
C2161 C969 1.711 . S
C2166 C1059 1.784 . S
C2191 C1009 1.711 . S
C2196 C979 1.783 . S
C2221 C1049 1.711 . S
C2226 C1019 1.783 . S
C2251 C1089 1.586 1_556 S
C2256 C1139 1.664 . S
C2281 C1129 1.585 1_556 S
C2286 C1179 1.664 . S
C2311 C1169 1.586 1_556 S
C2316 C1099 1.665 . S
C2341 C1218 1.744 . S
C2346 C1290 1.817 . S
C2371 C1258 1.744 . S
C2376 C1210 1.818 . S
C2401 C1250 1.817 . S
C2406 C1298 1.744 . S
C2431 C1338 1.779 . S
C2436 C1370 1.852 . S
C2461 C1378 1.779 . S
C2466 C1410 1.852 . S
C2491 C1330 1.852 . S
C2496 C1418 1.779 . S
C2521 C10 1.719 . S
C2526 C809 1.716 . S
C2551 C729 1.716 . S
C2556 C50 1.719 . S
C2581 C90 1.719 . S
C2586 C769 1.716 . S
C2611 C130 1.599 . S
C2616 C1369 1.590 . S
C2641 C1409 1.591 . S
C2646 C170 1.599 . S
C2671 C210 1.598 . S
C2676 C1329 1.590 . S
C2701 C1058 1.716 . S
C2706 C259 1.719 . S
C2731 C299 1.719 . S
C2736 C978 1.716 . S
C2761 C339 1.719 . S
C2766 C1018 1.716 . S
C2791 C658 1.590 . S
C2796 C379 1.599 . S
C2821 C698 1.591 . S
C2826 C419 1.599 . S
C2851 C618 1.590 . S
C2856 C459 1.598 . S
C2881 C490 1.659 . S
C2886 C1289 1.653 . S
C2911 C530 1.658 . S
C2916 C1209 1.653 . S
C2941 C1249 1.654 . S
C2946 C570 1.659 . S
C2971 C409 1.637 . S
C2976 C610 1.644 . S
C3001 C449 1.637 . S
C3006 C650 1.644 . S
C3031 C369 1.637 . S
C3036 C690 1.644 . S
C3061 C98 1.711 . S
C3066 C739 1.712 . S
C3091 C779 1.712 . S
C3096 C18 1.711 . S
C3121 C819 1.712 . S
C3126 C58 1.711 . S
C3151 C1138 1.651 1_554 S
C3156 C859 1.669 . S
C3181 C1178 1.650 1_554 S
C3186 C899 1.669 . S
C3211 C939 1.672 . S
C3216 C1098 1.651 1_554 S
C3241 C329 1.711 . S
C3246 C970 1.712 . S
C3271 C249 1.711 . S
C3276 C1010 1.712 . S
C3301 C289 1.711 . S
C3306 C1050 1.712 . S
C3331 C1090 1.672 . S
C3336 C889 1.651 1_556 S
C3361 C929 1.650 1_556 S
C3366 C1130 1.669 . S
C3391 C1170 1.672 . S
C3396 C849 1.651 1_556 S
C3421 C1219 1.659 . S
C3426 C578 1.653 . S
C3451 C1259 1.658 . S
C3456 C498 1.653 . S
C3481 C1299 1.659 . S
C3486 C538 1.654 . S
C3511 C1339 1.644 . S
C3516 C178 1.637 . S
C3541 C218 1.637 . S
C3546 C1379 1.644 . S
C3571 C138 1.637 . S
C3576 C1419 1.644 . S
C3601 C1166 2.360 . S
C3606 C6 2.345 . S
C3631 C1086 2.360 . S
C3636 C46 2.344 . S
C3661 C86 2.362 . S
C3666 C1126 2.343 . S
C3691 C526 2.663 . S
C3696 C126 2.662 . S
C3721 C166 2.662 . S
C3726 C566 2.663 . S
C3751 C206 2.662 . S
C3756 C486 2.664 . S
C3781 C255 2.362 . S
C3786 C935 2.343 . S
C3811 C295 2.362 . S
C3816 C855 2.342 . S
C3841 C335 2.362 . S
C3846 C895 2.343 . S
C3871 C1255 2.664 . S
C3876 C375 2.663 . S
C3901 C1295 2.663 . S
C3906 C415 2.662 . S
C3931 C1215 2.663 . S
C3936 C455 2.662 . S
C3961 C606 2.736 . S
C3966 C1006 2.738 . S
C3991 C646 2.736 . S
C3996 C1046 2.739 . S
C4021 C686 2.735 . S
C4026 C966 2.738 . S
C4051 C735 2.738 . S
C4056 C1415 2.735 . S
C4081 C1335 2.736 . S
C4086 C775 2.738 . S
C4111 C815 2.738 . S
C4116 C1375 2.736 . S
C4141 C175 1.080 . S
C4146 C15 1.081 . S
C4171 C215 1.079 . S
C4176 C55 1.080 . S
C4201 C135 1.080 . S
C4206 C95 1.080 . S
C4231 C246 1.081 . S
C4236 C406 1.080 . S
C4261 C446 1.080 . S
C4266 C286 1.080 . S
C4291 C326 1.080 . S
C4296 C366 1.080 . S
C4321 C655 1.186 . S
C4326 C495 1.187 . S
C4351 C695 1.187 . S
C4356 C535 1.187 . S
C4381 C615 1.187 . S
C4386 C575 1.187 . S
C4411 C886 1.497 . S
C4416 C726 1.521 . S
C4441 C766 1.504 . S
C4446 C926 1.512 . S
C4471 C806 1.505 . S
C4476 C846 1.513 . S
C4501 C975 1.505 . S
C4506 C1135 1.513 . S
C4531 C1175 1.496 . S
C4536 C1015 1.520 . S
C4561 C1055 1.505 . S
C4566 C1095 1.513 . S
C4591 C1206 1.187 . S
C4596 C1366 1.187 . S
C4621 C1406 1.186 . S
C4626 C1246 1.187 . S
C4651 C1286 1.187 . S
C4656 C1326 1.186 . S
