# Generated by pormake.
# Topology unr, (4)-cn, num edge types: 1
# Building blocks:
#     Node 0, Type 0, BuildingBlock: GALJAG_clean_sbu_0, # of connection points: 4
#     Node 1, Type 0, BuildingBlock: GALJAG_clean_sbu_0, # of connection points: 4
#     Node 2, Type 0, BuildingBlock: GALJAG_clean_sbu_0, # of connection points: 4
#     Node 3, Type 0, BuildingBlock: GALJAG_clean_sbu_0, # of connection points: 4
#     Node 4, Type 0, BuildingBlock: GALJAG_clean_sbu_0, # of connection points: 4
#     Node 5, Type 0, BuildingBlock: GALJAG_clean_sbu_0, # of connection points: 4
#     Node 6, Type 0, BuildingBlock: GALJAG_clean_sbu_0, # of connection points: 4
#     Node 7, Type 0, BuildingBlock: GALJAG_clean_sbu_0, # of connection points: 4
#     Node 8, Type 0, BuildingBlock: GALJAG_clean_sbu_0, # of connection points: 4
#     Node 9, Type 0, BuildingBlock: GALJAG_clean_sbu_0, # of connection points: 4
#     Node 10, Type 0, BuildingBlock: GALJAG_clean_sbu_0, # of connection points: 4
#     Node 11, Type 0, BuildingBlock: GALJAG_clean_sbu_0, # of connection points: 4
#     Node 12, Type 0, BuildingBlock: GALJAG_clean_sbu_0, # of connection points: 4
#     Node 13, Type 0, BuildingBlock: GALJAG_clean_sbu_0, # of connection points: 4
#     Node 14, Type 0, BuildingBlock: GALJAG_clean_sbu_0, # of connection points: 4
#     Node 15, Type 0, BuildingBlock: GALJAG_clean_sbu_0, # of connection points: 4
#     Node 16, Type 0, BuildingBlock: GALJAG_clean_sbu_0, # of connection points: 4
#     Node 17, Type 0, BuildingBlock: GALJAG_clean_sbu_0, # of connection points: 4
#     Node 18, Type 0, BuildingBlock: GALJAG_clean_sbu_0, # of connection points: 4
#     Node 19, Type 0, BuildingBlock: GALJAG_clean_sbu_0, # of connection points: 4
#     Node 20, Type 0, BuildingBlock: GALJAG_clean_sbu_0, # of connection points: 4
#     Node 21, Type 0, BuildingBlock: GALJAG_clean_sbu_0, # of connection points: 4
#     Node 22, Type 0, BuildingBlock: GALJAG_clean_sbu_0, # of connection points: 4
#     Node 23, Type 0, BuildingBlock: GALJAG_clean_sbu_0, # of connection points: 4
#     Node 24, Type 0, BuildingBlock: GALJAG_clean_sbu_0, # of connection points: 4
#     Node 25, Type 0, BuildingBlock: GALJAG_clean_sbu_0, # of connection points: 4
#     Node 26, Type 0, BuildingBlock: GALJAG_clean_sbu_0, # of connection points: 4
#     Node 27, Type 0, BuildingBlock: GALJAG_clean_sbu_0, # of connection points: 4
#     Node 28, Type 0, BuildingBlock: GALJAG_clean_sbu_0, # of connection points: 4
#     Node 29, Type 0, BuildingBlock: GALJAG_clean_sbu_0, # of connection points: 4
#     Node 30, Type 0, BuildingBlock: GALJAG_clean_sbu_0, # of connection points: 4
#     Node 31, Type 0, BuildingBlock: GALJAG_clean_sbu_0, # of connection points: 4
#     Node 32, Type 0, BuildingBlock: GALJAG_clean_sbu_0, # of connection points: 4
#     Node 33, Type 0, BuildingBlock: GALJAG_clean_sbu_0, # of connection points: 4
#     Node 34, Type 0, BuildingBlock: GALJAG_clean_sbu_0, # of connection points: 4
#     Node 35, Type 0, BuildingBlock: GALJAG_clean_sbu_0, # of connection points: 4
#     Edge 36, Type (0, 0), BuildingBlock: CIFDUS_clean_linker_0, # of connection points: 2
#     Edge 37, Type (0, 0), BuildingBlock: CIFDUS_clean_linker_0, # of connection points: 2
#     Edge 38, Type (0, 0), BuildingBlock: CIFDUS_clean_linker_0, # of connection points: 2
#     Edge 39, Type (0, 0), BuildingBlock: CIFDUS_clean_linker_0, # of connection points: 2
#     Edge 40, Type (0, 0), BuildingBlock: CIFDUS_clean_linker_0, # of connection points: 2
#     Edge 41, Type (0, 0), BuildingBlock: CIFDUS_clean_linker_0, # of connection points: 2
#     Edge 42, Type (0, 0), BuildingBlock: CIFDUS_clean_linker_0, # of connection points: 2
#     Edge 43, Type (0, 0), BuildingBlock: CIFDUS_clean_linker_0, # of connection points: 2
#     Edge 44, Type (0, 0), BuildingBlock: CIFDUS_clean_linker_0, # of connection points: 2
#     Edge 45, Type (0, 0), BuildingBlock: CIFDUS_clean_linker_0, # of connection points: 2
#     Edge 46, Type (0, 0), BuildingBlock: CIFDUS_clean_linker_0, # of connection points: 2
#     Edge 47, Type (0, 0), BuildingBlock: CIFDUS_clean_linker_0, # of connection points: 2
#     Edge 48, Type (0, 0), BuildingBlock: CIFDUS_clean_linker_0, # of connection points: 2
#     Edge 49, Type (0, 0), BuildingBlock: CIFDUS_clean_linker_0, # of connection points: 2
#     Edge 50, Type (0, 0), BuildingBlock: CIFDUS_clean_linker_0, # of connection points: 2
#     Edge 51, Type (0, 0), BuildingBlock: CIFDUS_clean_linker_0, # of connection points: 2
#     Edge 52, Type (0, 0), BuildingBlock: CIFDUS_clean_linker_0, # of connection points: 2
#     Edge 53, Type (0, 0), BuildingBlock: CIFDUS_clean_linker_0, # of connection points: 2
#     Edge 54, Type (0, 0), BuildingBlock: CIFDUS_clean_linker_0, # of connection points: 2
#     Edge 55, Type (0, 0), BuildingBlock: CIFDUS_clean_linker_0, # of connection points: 2
#     Edge 56, Type (0, 0), BuildingBlock: CIFDUS_clean_linker_0, # of connection points: 2
#     Edge 57, Type (0, 0), BuildingBlock: CIFDUS_clean_linker_0, # of connection points: 2
#     Edge 58, Type (0, 0), BuildingBlock: CIFDUS_clean_linker_0, # of connection points: 2
#     Edge 59, Type (0, 0), BuildingBlock: CIFDUS_clean_linker_0, # of connection points: 2
#     Edge 60, Type (0, 0), BuildingBlock: CIFDUS_clean_linker_0, # of connection points: 2
#     Edge 61, Type (0, 0), BuildingBlock: CIFDUS_clean_linker_0, # of connection points: 2
#     Edge 62, Type (0, 0), BuildingBlock: CIFDUS_clean_linker_0, # of connection points: 2
#     Edge 63, Type (0, 0), BuildingBlock: CIFDUS_clean_linker_0, # of connection points: 2
#     Edge 64, Type (0, 0), BuildingBlock: CIFDUS_clean_linker_0, # of connection points: 2
#     Edge 65, Type (0, 0), BuildingBlock: CIFDUS_clean_linker_0, # of connection points: 2
#     Edge 66, Type (0, 0), BuildingBlock: CIFDUS_clean_linker_0, # of connection points: 2
#     Edge 67, Type (0, 0), BuildingBlock: CIFDUS_clean_linker_0, # of connection points: 2
#     Edge 68, Type (0, 0), BuildingBlock: CIFDUS_clean_linker_0, # of connection points: 2
#     Edge 69, Type (0, 0), BuildingBlock: CIFDUS_clean_linker_0, # of connection points: 2
#     Edge 70, Type (0, 0), BuildingBlock: CIFDUS_clean_linker_0, # of connection points: 2
#     Edge 71, Type (0, 0), BuildingBlock: CIFDUS_clean_linker_0, # of connection points: 2
#     Edge 72, Type (0, 0), BuildingBlock: CIFDUS_clean_linker_0, # of connection points: 2
#     Edge 73, Type (0, 0), BuildingBlock: CIFDUS_clean_linker_0, # of connection points: 2
#     Edge 74, Type (0, 0), BuildingBlock: CIFDUS_clean_linker_0, # of connection points: 2
#     Edge 75, Type (0, 0), BuildingBlock: CIFDUS_clean_linker_0, # of connection points: 2
#     Edge 76, Type (0, 0), BuildingBlock: CIFDUS_clean_linker_0, # of connection points: 2
#     Edge 77, Type (0, 0), BuildingBlock: CIFDUS_clean_linker_0, # of connection points: 2
#     Edge 78, Type (0, 0), BuildingBlock: CIFDUS_clean_linker_0, # of connection points: 2
#     Edge 79, Type (0, 0), BuildingBlock: CIFDUS_clean_linker_0, # of connection points: 2
#     Edge 80, Type (0, 0), BuildingBlock: CIFDUS_clean_linker_0, # of connection points: 2
#     Edge 81, Type (0, 0), BuildingBlock: CIFDUS_clean_linker_0, # of connection points: 2
#     Edge 82, Type (0, 0), BuildingBlock: CIFDUS_clean_linker_0, # of connection points: 2
#     Edge 83, Type (0, 0), BuildingBlock: CIFDUS_clean_linker_0, # of connection points: 2
#     Edge 84, Type (0, 0), BuildingBlock: CIFDUS_clean_linker_0, # of connection points: 2
#     Edge 85, Type (0, 0), BuildingBlock: CIFDUS_clean_linker_0, # of connection points: 2
#     Edge 86, Type (0, 0), BuildingBlock: CIFDUS_clean_linker_0, # of connection points: 2
#     Edge 87, Type (0, 0), BuildingBlock: CIFDUS_clean_linker_0, # of connection points: 2
#     Edge 88, Type (0, 0), BuildingBlock: CIFDUS_clean_linker_0, # of connection points: 2
#     Edge 89, Type (0, 0), BuildingBlock: CIFDUS_clean_linker_0, # of connection points: 2
#     Edge 90, Type (0, 0), BuildingBlock: CIFDUS_clean_linker_0, # of connection points: 2
#     Edge 91, Type (0, 0), BuildingBlock: CIFDUS_clean_linker_0, # of connection points: 2
#     Edge 92, Type (0, 0), BuildingBlock: CIFDUS_clean_linker_0, # of connection points: 2
#     Edge 93, Type (0, 0), BuildingBlock: CIFDUS_clean_linker_0, # of connection points: 2
#     Edge 94, Type (0, 0), BuildingBlock: CIFDUS_clean_linker_0, # of connection points: 2
#     Edge 95, Type (0, 0), BuildingBlock: CIFDUS_clean_linker_0, # of connection points: 2
#     Edge 96, Type (0, 0), BuildingBlock: CIFDUS_clean_linker_0, # of connection points: 2
#     Edge 97, Type (0, 0), BuildingBlock: CIFDUS_clean_linker_0, # of connection points: 2
#     Edge 98, Type (0, 0), BuildingBlock: CIFDUS_clean_linker_0, # of connection points: 2
#     Edge 99, Type (0, 0), BuildingBlock: CIFDUS_clean_linker_0, # of connection points: 2
#     Edge 100, Type (0, 0), BuildingBlock: CIFDUS_clean_linker_0, # of connection points: 2
#     Edge 101, Type (0, 0), BuildingBlock: CIFDUS_clean_linker_0, # of connection points: 2
#     Edge 102, Type (0, 0), BuildingBlock: CIFDUS_clean_linker_0, # of connection points: 2
#     Edge 103, Type (0, 0), BuildingBlock: CIFDUS_clean_linker_0, # of connection points: 2
#     Edge 104, Type (0, 0), BuildingBlock: CIFDUS_clean_linker_0, # of connection points: 2
#     Edge 105, Type (0, 0), BuildingBlock: CIFDUS_clean_linker_0, # of connection points: 2
#     Edge 106, Type (0, 0), BuildingBlock: CIFDUS_clean_linker_0, # of connection points: 2
#     Edge 107, Type (0, 0), BuildingBlock: CIFDUS_clean_linker_0, # of connection points: 2
# Relax obj value: 0.387
# Max RMSD: 0.141
# Mean RMSD: 0.140
data_MOF--net-unr--node1-GALJAG_clean_sbu_0--edge1-CIFDUS_clean_linker_0
_symmetry_space_group_name_H-M    P1
_symmetry_Int_Tables_number       1
_symmetry_cell_setting            triclinic
loop_
_symmetry_equiv_pos_as_xyz
'x, y, z'
_cell_length_a     43.82009
_cell_length_b     43.756701
_cell_length_c     68.240228
_cell_angle_alpha  90.022454
_cell_angle_beta   89.973753
_cell_angle_gamma 120.00898
loop_
_atom_site_label
_atom_site_type_symbol
_atom_site_fract_x
_atom_site_fract_y
_atom_site_fract_z
_atom_type_partial_charge
In0 In 0.14778 0.10532 0.17297 0.0
O1 O 0.20024 0.14722 0.15911 0.0
O2 O 0.20113 0.11417 0.18154 0.0
C3 C 0.10506 0.11693 0.14935 0.0
C4 C 0.12982 0.11864 0.20832 0.0
C5 C 0.12643 0.03622 0.1695 0.0
O6 O 0.11508 0.09524 0.14528 0.0
O7 O 0.11913 0.13505 0.16449 0.0
O8 O 0.13035 0.05116 0.18587 0.0
O9 O 0.13395 0.05632 0.15484 0.0
C10 C 0.21858 0.13927 0.16995 0.0
O11 O 0.11149 0.0897 0.19949 0.0
O12 O 0.15699 0.14095 0.19921 0.0
In13 In 0.83929 0.99338 0.15555 0.0
O14 O 0.81627 0.02562 0.14177 0.0
O15 O 0.80564 0.01055 0.17164 0.0
C16 C 0.79807 0.92944 0.13924 0.0
C17 C 0.85826 0.98736 0.19244 0.0
C18 C 0.90375 0.02663 0.13874 0.0
O19 O 0.79277 0.93759 0.15611 0.0
O20 O 0.8219 0.95502 0.12972 0.0
O21 O 0.88848 0.04304 0.14437 0.0
O22 O 0.8863 0.99372 0.14129 0.0
C23 C 0.80251 0.02748 0.15769 0.0
O24 O 0.86691 0.01663 0.18459 0.0
O25 O 0.84145 0.96113 0.18135 0.0
In26 In 0.91254 0.79829 0.16806 0.0
O27 O 0.8886 0.79523 0.19808 0.0
O28 O 0.93287 0.84413 0.18984 0.0
C29 C 0.86277 0.80297 0.14706 0.0
C30 C 0.90002 0.73141 0.17165 0.0
C31 C 0.97872 0.84253 0.15525 0.0
O32 O 0.88895 0.80322 0.1392 0.0
O33 O 0.86107 0.79903 0.16542 0.0
O34 O 0.9517 0.83805 0.14626 0.0
O35 O 0.97233 0.82308 0.17008 0.0
C36 C 0.91095 0.82633 0.20304 0.0
O37 O 0.89323 0.74226 0.15606 0.0
O38 O 0.91438 0.75452 0.18468 0.0
In39 In 0.11974 0.16757 0.35866 0.0
O40 O 0.09642 0.14738 0.32844 0.0
O41 O 0.14878 0.19085 0.33002 0.0
C42 C 0.05358 0.14702 0.37024 0.0
C43 C 0.16135 0.23383 0.37202 0.0
C44 C 0.12886 0.11213 0.36691 0.0
O45 O 0.06546 0.16089 0.35372 0.0
O46 O 0.07529 0.14399 0.38105 0.0
O47 O 0.11665 0.12465 0.37928 0.0
O48 O 0.13944 0.12966 0.3513 0.0
C49 C 0.12372 0.16937 0.31929 0.0
O50 O 0.17169 0.21157 0.37209 0.0
O51 O 0.13022 0.22191 0.36622 0.0
In52 In 0.80021 0.97811 0.34133 0.0
O53 O 0.82085 0.96153 0.31494 0.0
O54 O 0.82798 0.01327 0.31518 0.0
C55 C 0.79784 0.92392 0.36133 0.0
C56 C 0.7325 0.96223 0.33719 0.0
C57 C 0.85154 0.03634 0.3588 0.0
O58 O 0.79811 0.92519 0.34284 0.0
O59 O 0.79729 0.94936 0.36973 0.0
O60 O 0.82841 0.03738 0.34823 0.0
O61 O 0.84761 0.00602 0.36107 0.0
C62 C 0.83252 0.99068 0.30618 0.0
O63 O 0.74953 0.97569 0.35274 0.0
O64 O 0.74978 0.9576 0.32402 0.0
In65 In 0.96394 0.84343 0.35415 0.0
O66 O 0.96391 0.86732 0.32416 0.0
O67 O 0.92634 0.81345 0.32939 0.0
C68 C 0.01655 0.90689 0.36577 0.0
C69 C -0.00694 0.80191 0.35738 0.0
C70 C 0.90452 0.83329 0.37185 0.0
O71 O 0.01063 0.89795 0.34795 0.0
O72 O -0.00381 0.88359 0.37779 0.0
O73 O 0.90652 0.80838 0.36382 0.0
O74 O 0.93296 0.86236 0.372 0.0
C75 C 0.93844 0.83902 0.3176 0.0
O76 O 0.97608 0.80534 0.37134 0.0
O77 O -0.0051 0.81905 0.34223 0.0
In78 In 0.82501 0.94103 0.80773 0.0
O79 O 0.84255 0.9598 0.77591 0.0
O80 O 0.8425 0.91397 0.78656 0.0
C81 C 0.82539 0.99376 0.82816 0.0
C82 C 0.75713 0.89141 0.80356 0.0
C83 C 0.87975 0.94206 0.82589 0.0
O84 O 0.81602 0.96384 0.83548 0.0
O85 O 0.83204 -0.00389 0.80998 0.0
O86 O 0.88177 0.9687 0.81745 0.0
O87 O 0.84939 0.91476 0.82585 0.0
C88 C 0.84866 0.93485 0.77247 0.0
O89 O 0.77618 0.88996 0.81704 0.0
O90 O 0.772 0.91851 0.79286 0.0
In91 In 0.10772 0.92226 0.81912 0.0
O92 O 0.09034 0.91006 0.78739 0.0
O93 O 0.13787 0.95784 0.79317 0.0
C94 C 0.04398 0.9148 0.82628 0.0
C95 C 0.13031 0.87549 0.8217 0.0
C96 C 0.13618 0.96822 0.84879 0.0
O97 O 0.04966 0.88935 0.82856 0.0
O98 O 0.06986 0.94288 0.81997 0.0
O99 O 0.11375 0.93602 0.85143 0.0
O100 O 0.14661 0.97627 0.83127 0.0
C101 C 0.1159 0.9378 0.78054 0.0
O102 O 0.15045 0.90827 0.8237 0.0
O103 O 0.09826 0.86596 0.81905 0.0
In104 In 0.03348 0.11441 0.86009 0.0
O105 O 0.03212 0.0887 0.83017 0.0
O106 O 0.9848 0.0835 0.84133 0.0
C107 C 0.06318 0.08185 0.8794 0.0
C108 C 0.08187 0.18049 0.85003 0.0
C109 C 0.98068 0.11713 0.87884 0.0
O110 O 0.03091 0.06677 0.87517 0.0
O111 O 0.08035 0.1139 0.87459 0.0
O112 O -0.00579 0.09949 0.8853 0.0
O113 O -0.00285 0.13674 0.86452 0.0
C114 C -0.00035 0.07698 0.82755 0.0
O115 O 0.0684 0.17271 0.86698 0.0
O116 O 0.07122 0.15485 0.83831 0.0
In117 In 0.83686 0.83718 0.63109 0.0
O118 O 0.84712 0.84619 0.66392 0.0
O119 O 0.85482 0.8899 0.64683 0.0
C120 C 0.90028 0.84957 0.61813 0.0
C121 C 0.79662 0.76663 0.63292 0.0
C122 C 0.79717 0.86243 0.61614 0.0
O123 O 0.88792 0.83668 0.63469 0.0
O124 O 0.88024 0.85574 0.60764 0.0
O125 O 0.78625 0.83902 0.62931 0.0
O126 O 0.82616 0.86896 0.60855 0.0
C127 C 0.85503 0.87813 0.66361 0.0
O128 O 0.80384 0.78649 0.64762 0.0
O129 O 0.80861 0.78248 0.61682 0.0
In130 In 0.14385 0.03856 0.63607 0.0
O131 O 0.12257 -0.0008 0.6612 0.0
O132 O 0.17145 0.04646 0.66558 0.0
C133 C 0.10938 0.07507 0.64073 0.0
C134 C 0.20959 0.07023 0.62109 0.0
C135 C 0.09747 0.98388 0.61399 0.0
O136 O 0.12144 0.06598 0.65491 0.0
O137 O 0.116 0.06714 0.62415 0.0
O138 O 0.10927 0.01561 0.60903 0.0
O139 O 0.11092 0.97986 0.62943 0.0
C140 C 0.14791 0.01749 0.67263 0.0
O141 O 0.18997 0.03718 0.62127 0.0
O142 O 0.1956 0.08711 0.62783 0.0
In143 In 0.88881 0.07504 0.69449 0.0
O144 O 0.90725 0.04499 0.71427 0.0
O145 O 0.88181 0.07033 0.72746 0.0
C146 C 0.83757 0.02149 0.67348 0.0
C147 C 0.8717 0.12636 0.69646 0.0
C148 C 0.95455 0.09867 0.68081 0.0
O149 O 0.84077 0.01997 0.69173 0.0
O150 O 0.86007 0.05017 0.66579 0.0
O151 O 0.92731 0.07755 0.67133 0.0
O152 O 0.94864 0.10899 0.69692 0.0
C153 C 0.89686 0.05244 0.72985 0.0
O154 O 0.8966 0.12924 0.6859 0.0
O155 O 0.85574 0.0979 0.70586 0.0
In156 In 0.87129 0.45095 0.49658 0.0
O157 O 0.92992 0.48021 0.48811 0.0
O158 O 0.91356 0.44423 0.51179 0.0
C159 C 0.85583 0.48865 0.47132 0.0
C160 C 0.84229 0.45963 0.52947 0.0
C161 C 0.83105 0.38311 0.48521 0.0
O162 O 0.86292 0.46538 0.46571 0.0
O163 O 0.85988 0.49504 0.48947 0.0
O164 O 0.83968 0.40875 0.47379 0.0
O165 O 0.84409 0.39163 0.50215 0.0
C166 C 0.93864 0.46603 0.50138 0.0
O167 O 0.8259 0.43382 0.51802 0.0
O168 O 0.87346 0.4814 0.52428 0.0
In169 In 0.60907 0.42579 0.45637 0.0
O170 O 0.58389 0.4518 0.43838 0.0
O171 O 0.59167 0.46216 0.46899 0.0
C172 C 0.58075 0.36465 0.43649 0.0
C173 C 0.59564 0.3873 0.48948 0.0
C174 C 0.67823 0.47222 0.45254 0.0
O175 O 0.61356 0.38595 0.43687 0.0
O176 O 0.5625 0.37706 0.44342 0.0
O177 O 0.66098 0.46911 0.46795 0.0
O178 O 0.66025 0.45236 0.43854 0.0
C179 C 0.58044 0.46741 0.45309 0.0
O180 O 0.62601 0.40378 0.48205 0.0
O181 O 0.57295 0.39232 0.48107 0.0
In182 In 0.58857 0.18093 0.51734 0.0
O183 O 0.5736 0.12561 0.50736 0.0
O184 O 0.54199 0.1301 0.52939 0.0
C185 C 0.65343 0.21268 0.50154 0.0
C186 C 0.61164 0.20858 0.55345 0.0
C187 C 0.55589 0.20426 0.49325 0.0
O188 O 0.63268 0.22465 0.4998 0.0
O189 O 0.64127 0.18413 0.51098 0.0
O190 O 0.55583 0.20748 0.51166 0.0
O191 O 0.57123 0.18818 0.48717 0.0
C192 C 0.54774 0.10997 0.51877 0.0
O193 O 0.58508 0.208 0.54583 0.0
O194 O 0.62513 0.19452 0.54322 0.0
In195 In 0.7507 0.51217 0.6627 0.0
O196 O 0.75006 0.48518 0.63409 0.0
O197 O 0.79768 0.53146 0.64187 0.0
C198 C 0.68618 0.4541 0.66472 0.0
C199 C 0.74969 0.57326 0.66172 0.0
C200 C 0.78427 0.50233 0.69292 0.0
O201 O 0.71406 0.4545 0.66956 0.0
O202 O 0.69051 0.48333 0.65878 0.0
O203 O 0.75473 0.50054 0.69481 0.0
O204 O 0.79848 0.51331 0.67636 0.0
C205 C 0.78156 0.5069 0.62963 0.0
O206 O 0.75622 0.56201 0.67728 0.0
O207 O 0.74327 0.55352 0.64708 0.0
In208 In 0.48822 0.21907 0.60898 0.0
O209 O 0.53166 0.24864 0.58649 0.0
O210 O 0.47897 0.22043 0.57619 0.0
C211 C 0.51086 0.17773 0.62514 0.0
C212 C 0.41769 0.18722 0.61192 0.0
C213 C 0.51999 0.28101 0.62847 0.0
O214 O 0.51621 0.18683 0.60734 0.0
O215 O 0.49228 0.18766 0.63423 0.0
O216 O 0.52166 0.25437 0.63389 0.0
O217 O 0.50123 0.27614 0.61351 0.0
C218 C 0.51098 0.24107 0.57216 0.0
O219 O 0.4381 0.21766 0.61855 0.0
O220 O 0.43286 0.17233 0.60396 0.0
In221 In 0.72661 0.25713 0.69121 0.0
O222 O 0.69939 0.27237 0.66781 0.0
O223 O 0.74004 0.26262 0.65864 0.0
C224 C 0.75045 0.31924 0.71014 0.0
C225 C 0.76873 0.23175 0.70205 0.0
C226 C 0.6607 0.20177 0.69139 0.0
O227 O 0.76607 0.31533 0.69567 0.0
O228 O 0.72306 0.29144 0.71548 0.0
O229 O 0.68537 0.20236 0.68156 0.0
O230 O 0.67028 0.22769 0.7029 0.0
C231 C 0.71614 0.26919 0.65369 0.0
O232 O 0.74243 0.22668 0.71214 0.0
O233 O 0.77414 0.25035 0.68694 0.0
In234 In 0.49464 0.2516 0.18604 0.0
O235 O 0.51786 0.26401 0.15503 0.0
O236 O 0.48883 0.21033 0.16409 0.0
C237 C 0.51696 0.31582 0.2014 0.0
C238 C 0.42454 0.22275 0.18751 0.0
C239 C 0.54008 0.23774 0.20488 0.0
O240 O 0.5031 0.28795 0.21158 0.0
O241 O 0.51743 0.31096 0.18312 0.0
O242 O 0.54873 0.26657 0.1965 0.0
O243 O 0.50754 0.21514 0.20426 0.0
C244 C 0.5068 0.23197 0.15086 0.0
O245 O 0.44129 0.21501 0.19975 0.0
O246 O 0.44332 0.24551 0.17488 0.0
In247 In 0.78208 0.24739 0.19988 0.0
O248 O 0.78808 0.20123 0.21098 0.0
O249 O 0.76724 0.19791 0.18245 0.0
C250 C 0.82593 0.29396 0.22659 0.0
C251 C 0.80329 0.28013 0.16505 0.0
C252 C 0.72223 0.24685 0.20961 0.0
O253 O 0.79601 0.26848 0.23108 0.0
O254 O 0.83562 0.29193 0.20946 0.0
O255 O 0.75061 0.27438 0.20536 0.0
O256 O 0.72337 0.2186 0.20856 0.0
C257 C 0.77642 0.18362 0.19537 0.0
O258 O 0.77238 0.26827 0.17148 0.0
O259 O 0.82332 0.27471 0.176 0.0
In260 In 0.75014 0.47021 0.21999 0.0
O261 O 0.78639 0.52706 0.23044 0.0
O262 O 0.79027 0.51398 0.20091 0.0
C263 C 0.69124 0.45175 0.24067 0.0
C264 C 0.71108 0.44475 0.18707 0.0
C265 C 0.78496 0.43957 0.23515 0.0
O266 O 0.70454 0.4321 0.23895 0.0
O267 O 0.70964 0.48226 0.23347 0.0
O268 O 0.78406 0.4447 0.217 0.0
O269 O 0.76844 0.4501 0.24577 0.0
C270 C 0.80088 0.53751 0.21389 0.0
O271 O 0.72976 0.4323 0.19339 0.0
O272 O 0.71317 0.46998 0.19694 0.0
In273 In 0.5764 0.17977 0.01196 0.0
O274 O 0.53673 0.12083 0.01275 0.0
O275 O 0.57056 0.14141 0.98799 0.0
C276 C 0.54359 0.21326 0.99775 0.0
C277 C 0.57517 0.19841 0.04941 0.0
C278 C 0.64525 0.20264 0.00734 0.0
O279 O 0.57483 0.22198 0.99328 0.0
O280 O 0.52786 0.18534 0.00769 0.0
O281 O 0.6278 0.18302 0.02152 0.0
O282 O 0.62767 0.20997 0.99552 0.0
C283 C 0.54628 0.11482 0.99646 0.0
O284 O 0.5922 0.22041 0.03612 0.0
O285 O 0.56021 0.16644 0.04409 0.0
In286 In 0.86037 0.4224 0.03126 0.0
O287 O 0.90914 0.44262 0.01215 0.0
O288 O 0.91412 0.46857 0.0392 0.0
C289 C 0.82947 0.3629 0.0097 0.0
C290 C 0.84126 0.39058 0.06638 0.0
C291 C 0.82916 0.46161 0.02654 0.0
O292 O 0.8296 0.39072 0.00471 0.0
O293 O 0.84671 0.36573 0.02505 0.0
O294 O 0.84307 0.46048 0.0425 0.0
O295 O 0.8315 0.44339 0.01295 0.0
C296 C 0.92871 0.46727 0.0236 0.0
O297 O 0.82123 0.3971 0.05612 0.0
O298 O 0.87136 0.40077 0.05907 0.0
In299 In 0.60188 0.44984 0.0535 0.0
O300 O 0.61407 0.41927 0.07627 0.0
O301 O 0.59376 0.45149 0.08643 0.0
C302 C 0.57455 0.39396 0.02907 0.0
C303 C 0.5651 0.48274 0.04611 0.0
C304 C 0.67137 0.48871 0.04575 0.0
O305 O 0.56411 0.39149 0.04658 0.0
O306 O 0.59831 0.42437 0.02409 0.0
O307 O 0.64886 0.46958 0.03315 0.0
O308 O 0.65857 0.4899 0.0621 0.0
C309 C 0.60574 0.43142 0.09079 0.0
O310 O 0.59828 0.49864 0.04589 0.0
O311 O 0.55062 0.45068 0.05085 0.0
In312 In 0.48913 0.72593 0.7739 0.0
O313 O 0.54121 0.75853 0.75714 0.0
O314 O 0.54254 0.74223 0.78633 0.0
C315 C 0.44774 0.74349 0.75327 0.0
C316 C 0.47162 0.74541 0.80771 0.0
C317 C 0.47121 0.65794 0.76946 0.0
O318 O 0.47898 0.76579 0.75792 0.0
O319 O 0.43896 0.71198 0.7572 0.0
O320 O 0.47879 0.67355 0.7858 0.0
O321 O 0.47319 0.67689 0.75495 0.0
C322 C 0.55979 0.75947 0.77158 0.0
O323 O 0.45674 0.71358 0.80231 0.0
O324 O 0.49557 0.76665 0.79644 0.0
In325 In 0.21403 0.68853 0.80422 0.0
O326 O 0.17027 0.69991 0.79506 0.0
O327 O 0.2151 0.73939 0.81037 0.0
C328 C 0.19487 0.62255 0.79385 0.0
C329 C 0.21047 0.67597 0.843 0.0
C330 C 0.26774 0.71913 0.77878 0.0
O331 O 0.17288 0.63333 0.79337 0.0
O332 O 0.22555 0.64478 0.7994 0.0
O333 O 0.27208 0.72379 0.79711 0.0
O334 O 0.23609 0.70041 0.7733 0.0
C335 C 0.18554 0.73028 0.8028 0.0
O336 O 0.23941 0.69688 0.83473 0.0
O337 O 0.18417 0.66208 0.83173 0.0
In338 In 0.26819 0.43539 0.80066 0.0
O339 O 0.24678 0.3764 0.7933 0.0
O340 O 0.21744 0.39064 0.8121 0.0
C341 C 0.32607 0.46517 0.77749 0.0
C342 C 0.29912 0.45707 0.83596 0.0
C343 C 0.23418 0.46951 0.78946 0.0
O344 O 0.29534 0.4528 0.77068 0.0
O345 O 0.32698 0.45919 0.79547 0.0
O346 O 0.23725 0.46335 0.80719 0.0
O347 O 0.24773 0.45798 0.77734 0.0
C348 C 0.22008 0.3662 0.80417 0.0
O349 O 0.28824 0.47419 0.82612 0.0
O350 O 0.29462 0.42911 0.8279 0.0
In351 In 0.45041 0.86276 0.93789 0.0
O352 O 0.5013 0.91193 0.94771 0.0
O353 O 0.4588 0.91787 0.93733 0.0
C354 C 0.46815 0.82141 0.95873 0.0
C355 C 0.4506 0.84267 0.90069 0.0
C356 C 0.38584 0.8484 0.94925 0.0
O357 O 0.44538 0.82897 0.9644 0.0
O358 O 0.48326 0.83604 0.94292 0.0
O359 O 0.39302 0.84635 0.93152 0.0
O360 O 0.41103 0.85714 0.96103 0.0
C361 C 0.48921 0.93228 0.9446 0.0
O362 O 0.42975 0.82199 0.91351 0.0
O363 O 0.47044 0.87398 0.90645 0.0
In364 In 0.19066 0.66362 0.99763 0.0
O365 O 0.14774 0.64482 0.02134 0.0
O366 O 0.13308 0.62871 0.99184 0.0
C367 C 0.2159 0.73324 0.00197 0.0
C368 C 0.20827 0.66712 0.95947 0.0
C369 C 0.22023 0.62742 0.01253 0.0
O370 O 0.19163 0.71459 0.99006 0.0
O371 O 0.22417 0.71577 0.01331 0.0
O372 O 0.19767 0.61569 0.99901 0.0
O373 O 0.22767 0.65746 0.01883 0.0
C374 C 0.12338 0.62656 0.00936 0.0
O375 O 0.17702 0.64982 0.96566 0.0
O376 O 0.23122 0.68233 0.97264 0.0
In377 In 0.3997 0.56269 0.97732 0.0
O378 O 0.40089 0.51797 0.99393 0.0
O379 O 0.44961 0.56371 0.9873 0.0
C380 C 0.34152 0.54946 0.99754 0.0
C381 C 0.37832 0.54342 0.93997 0.0
C382 C 0.44117 0.63328 0.97532 0.0
O383 O 0.34026 0.53301 0.98211 0.0
O384 O 0.37224 0.57124 0.00325 0.0
O385 O 0.44324 0.61285 0.963 0.0
O386 O 0.41903 0.61795 0.98884 0.0
C387 C 0.43396 0.53389 0.99539 0.0
O388 O 0.39019 0.52769 0.95027 0.0
O389 O 0.37768 0.56865 0.94847 0.0
In390 In 0.1963 0.53453 0.54541 0.0
O391 O 0.20208 0.5053 0.51979 0.0
O392 O 0.23906 0.56019 0.52161 0.0
C393 C 0.21132 0.59847 0.55816 0.0
C394 C 0.12692 0.50651 0.53907 0.0
C395 C 0.22872 0.50553 0.56492 0.0
O396 O 0.20632 0.57416 0.57001 0.0
O397 O 0.20912 0.59048 0.54025 0.0
O398 O 0.23821 0.53787 0.56606 0.0
O399 O 0.19918 0.487 0.5567 0.0
C400 C 0.22898 0.53142 0.51266 0.0
O401 O 0.1383 0.50237 0.55533 0.0
O402 O 0.15032 0.52383 0.52653 0.0
In403 In 0.43021 0.59171 0.48004 0.0
O404 O 0.47955 0.58987 0.48851 0.0
O405 O 0.4519 0.56175 0.46308 0.0
C406 C 0.44083 0.64855 0.50072 0.0
C407 C 0.42183 0.61779 0.44592 0.0
C408 C 0.37919 0.5394 0.50152 0.0
O409 O 0.41077 0.62162 0.49854 0.0
O410 O 0.46594 0.64652 0.49293 0.0
O411 O 0.37482 0.54399 0.48365 0.0
O412 O 0.4094 0.56053 0.5082 0.0
C413 C 0.47763 0.57034 0.47442 0.0
O414 O 0.40027 0.58649 0.45115 0.0
O415 O 0.44726 0.63464 0.45744 0.0
In416 In 0.36755 0.83511 0.52301 0.0
O417 O 0.38008 0.88809 0.53702 0.0
O418 O 0.41928 0.8864 0.51979 0.0
C419 C 0.30766 0.79636 0.5434 0.0
C420 C 0.34306 0.82211 0.48583 0.0
C421 C 0.39967 0.79715 0.52985 0.0
O422 O 0.33777 0.80926 0.55119 0.0
O423 O 0.30802 0.80579 0.52589 0.0
O424 O 0.37838 0.79844 0.54177 0.0
O425 O 0.40623 0.81648 0.51493 0.0
C426 C 0.41057 0.90489 0.52981 0.0
O427 O 0.35908 0.80798 0.49353 0.0
O428 O 0.33973 0.84352 0.4968 0.0
In429 In 0.29814 0.51428 0.37216 0.0
O430 O 0.24724 0.46312 0.3672 0.0
O431 O 0.29241 0.45927 0.37414 0.0
C432 C 0.25751 0.54155 0.36077 0.0
C433 C 0.31196 0.53404 0.40999 0.0
C434 C 0.35586 0.54176 0.34901 0.0
O435 O 0.28054 0.54128 0.3498 0.0
O436 O 0.25473 0.52776 0.37735 0.0
O437 O 0.35759 0.54721 0.36725 0.0
O438 O 0.32527 0.52096 0.34275 0.0
C439 C 0.25979 0.4433 0.37055 0.0
O440 O 0.31612 0.55559 0.39654 0.0
O441 O 0.30322 0.50339 0.4041 0.0
In442 In 0.47026 0.77467 0.322 0.0
O443 O 0.43096 0.72937 0.34135 0.0
O444 O 0.4706 0.77541 0.35544 0.0
C445 C 0.42031 0.78709 0.30736 0.0
C446 C 0.53189 0.83472 0.31711 0.0
C447 C 0.48272 0.72211 0.31289 0.0
O448 O 0.43693 0.80089 0.32294 0.0
O449 O 0.42953 0.76752 0.29868 0.0
O450 O 0.46061 0.72716 0.30362 0.0
O451 O 0.50126 0.74623 0.32495 0.0
C452 C 0.44517 0.7443 0.35726 0.0
O453 O 0.5172 0.81299 0.30326 0.0
O454 O 0.51501 0.82634 0.33301 0.0
In455 In 0.19033 0.73365 0.35569 0.0
O456 O 0.1542 0.74487 0.33672 0.0
O457 O 0.13646 0.72475 0.36523 0.0
C458 C 0.24296 0.77165 0.33019 0.0
C459 C 0.22682 0.76398 0.38875 0.0
C460 C 0.17666 0.66622 0.35651 0.0
O461 O 0.22036 0.73964 0.32743 0.0
O462 O 0.23752 0.78514 0.34518 0.0
O463 O 0.17208 0.68094 0.37121 0.0
O464 O 0.18566 0.68467 0.34116 0.0
C465 C 0.13049 0.73582 0.3495 0.0
O466 O 0.22976 0.7408 0.37931 0.0
O467 O 0.20519 0.772 0.38156 0.0
H468 H 0.05924 0.06584 0.12503 0.0
H469 H 0.07695 0.15953 0.15571 0.0
H470 H 0.01503 0.14239 0.15139 0.0
H471 H 0.95422 0.0946 0.14542 0.0
H472 H 0.93645 -0.00197 0.11825 0.0
H473 H -0.00015 0.02245 0.1145 0.0
C474 C 0.04985 0.08314 0.13019 0.0
C475 C 0.07246 0.11359 0.14096 0.0
C476 C 0.0139 0.07209 0.12867 0.0
C477 C 0.05995 0.13578 0.1475 0.0
C478 C 0.02445 0.1258 0.14521 0.0
C479 C 0.96428 0.07936 0.13817 0.0
C480 C 0.94087 0.04444 0.13237 0.0
C481 C 0.00084 0.09302 0.13684 0.0
C482 C 0.95409 0.02485 0.12304 0.0
C483 C 0.99032 0.03877 0.12093 0.0
H484 H 0.82357 0.90606 0.11011 0.0
H485 H 0.75158 0.87 0.15903 0.0
H486 H 0.75979 0.81927 0.16308 0.0
H487 H 0.80115 0.79716 0.15919 0.0
H488 H 0.87573 0.83544 0.1115 0.0
H489 H 0.85253 0.87279 0.10034 0.0
C490 C 0.80839 0.88623 0.12107 0.0
C491 C 0.78825 0.89256 0.13481 0.0
C492 C 0.81467 0.85808 0.12395 0.0
C493 C 0.76801 0.86619 0.14858 0.0
C494 C 0.77307 0.83737 0.15109 0.0
C495 C 0.81142 0.81272 0.14594 0.0
C496 C 0.84083 0.81452 0.13657 0.0
C497 C 0.79858 0.83486 0.13992 0.0
C498 C 0.85344 0.83409 0.11917 0.0
C499 C 0.84032 0.85566 0.11284 0.0
H500 H 0.09451 -0.00339 0.13743 0.0
H501 H 0.11955 0.98935 0.19775 0.0
H502 H 0.08087 0.92537 0.19696 0.0
H503 H 0.03218 0.87394 0.18113 0.0
H504 H 0.00203 0.88255 0.12214 0.0
H505 H 0.05106 0.94323 0.12012 0.0
C506 C 0.09219 0.98087 0.15022 0.0
C507 C 0.10944 -0.00243 0.16769 0.0
C508 C 0.06875 0.94433 0.1499 0.0
C509 C 0.10618 0.97701 0.1842 0.0
C510 C 0.08403 0.94047 0.18376 0.0
C511 C 0.03707 0.88871 0.1676 0.0
C512 C 0.01345 0.87402 0.15186 0.0
C513 C 0.06401 0.92411 0.16698 0.0
C514 C 0.01986 0.89347 0.13447 0.0
C515 C 0.04769 0.92823 0.13338 0.0
H516 H 0.09286 0.0632 0.39518 0.0
H517 H 0.14805 0.07828 0.34046 0.0
H518 H 0.12072 0.01459 0.33635 0.0
H519 H 0.07316 0.95528 0.34528 0.0
H520 H 0.01763 0.93986 0.39984 0.0
H521 H 0.05315 0.00288 0.40709 0.0
C522 C 0.0998 0.05257 0.38269 0.0
C523 C 0.12193 0.07544 0.36797 0.0
C524 C 0.08329 0.01581 0.38016 0.0
C525 C 0.13083 0.06125 0.35192 0.0
C526 C 0.11495 0.02479 0.34945 0.0
C527 C 0.06936 0.96567 0.35893 0.0
C528 C 0.04244 0.9432 0.37183 0.0
C529 C 0.0898 0.0019 0.36297 0.0
C530 C 0.03808 0.95675 0.38962 0.0
C531 C 0.0583 0.9928 0.39374 0.0
H532 H 0.89571 0.04161 0.38773 0.0
H533 H 0.88258 0.10103 0.34142 0.0
H534 H 0.9453 0.14501 0.34298 0.0
H535 H 0.00505 0.15928 0.3529 0.0
H536 H 0.01793 0.09893 0.39884 0.0
H537 H 0.95408 0.0628 0.40223 0.0
C538 C 0.90643 0.06484 0.37845 0.0
C539 C 0.8849 0.06789 0.36427 0.0
C540 C 0.94255 0.0894 0.37909 0.0
C541 C 0.89876 0.09817 0.35244 0.0
C542 C 0.9347 0.12307 0.35316 0.0
C543 C -0.00618 0.13874 0.36395 0.0
C544 C 0.01599 0.13117 0.37529 0.0
C545 C 0.95709 0.11786 0.36569 0.0
C546 C 0.0013 0.10497 0.3898 0.0
C547 C 0.96481 0.08421 0.3917 0.0
H548 H 0.78466 0.85912 0.34981 0.0
H549 H 0.83186 0.93585 0.39613 0.0
H550 H 0.86476 0.90767 0.40719 0.0
H551 H 0.89088 0.87131 0.39801 0.0
H552 H 0.84356 0.79435 0.35185 0.0
H553 H 0.79911 0.81161 0.34682 0.0
C554 C 0.80112 0.86877 0.36278 0.0
C555 C 0.80663 0.89995 0.37184 0.0
C556 C 0.82026 0.85264 0.36893 0.0
C557 C 0.82749 0.91201 0.38881 0.0
C558 C 0.84656 0.89609 0.39505 0.0
C559 C 0.86981 0.85725 0.38749 0.0
C560 C 0.87081 0.83224 0.37503 0.0
C561 C 0.84481 0.86783 0.38442 0.0
C562 C 0.84333 0.81382 0.36157 0.0
C563 C 0.81818 0.82404 0.3585 0.0
H564 H 0.88808 0.88493 0.83046 0.0
H565 H 0.94342 -0.00147 0.83444 0.0
H566 H -0.00041 -0.00026 0.83674 0.0
H567 H 0.03311 0.9691 0.83326 0.0
H568 H 0.97868 0.85564 0.82857 0.0
H569 H 0.92184 0.85358 0.83112 0.0
C570 C 0.91238 0.90982 0.83236 0.0
C571 C 0.9118 0.94166 0.83201 0.0
C572 C 0.94467 0.91031 0.83321 0.0
C573 C 0.94339 0.97377 0.8344 0.0
C574 C 0.97548 0.97446 0.83566 0.0
C575 C 0.00879 0.94388 0.83296 0.0
C576 C 0.00989 0.91259 0.83033 0.0
C577 C 0.97648 0.94301 0.8343 0.0
C578 C 0.97835 0.88006 0.83042 0.0
C579 C 0.94592 0.87891 0.83183 0.0
H580 H 0.13071 0.09926 0.87257 0.0
H581 H 0.0333 0.01806 0.89761 0.0
H582 H 0.05467 0.9762 0.89596 0.0
H583 H 0.09315 0.95942 0.87914 0.0
H584 H 0.18563 0.0384 0.84897 0.0
H585 H 0.17517 0.08463 0.86157 0.0
C586 C 0.11478 0.0728 0.87839 0.0
C587 C 0.08029 0.06144 0.88487 0.0
C588 C 0.12634 0.04832 0.87618 0.0
C589 C 0.05981 0.02716 0.89234 0.0
C590 C 0.07195 0.00318 0.89128 0.0
C591 C 0.11188 0.98689 0.876 0.0
C592 C 0.13962 -0.00451 0.86276 0.0
C593 C 0.10408 0.01287 0.88198 0.0
C594 C 0.16381 0.03116 0.85894 0.0
C595 C 0.15756 0.05754 0.86595 0.0
H596 H 0.83558 -0.00239 0.86742 0.0
H597 H 0.84568 0.06144 0.81704 0.0
H598 H 0.89147 0.1137 0.8337 0.0
H599 H 0.94004 0.13496 0.85718 0.0
H600 H 0.93479 0.06798 0.90492 0.0
H601 H 0.87488 0.02424 0.89553 0.0
C602 C 0.84669 0.02322 0.8604 0.0
C603 C 0.8386 0.02548 0.84068 0.0
C604 C 0.87443 0.05267 0.86964 0.0
C605 C 0.85246 0.0589 0.83197 0.0
C606 C 0.87879 0.08877 0.84148 0.0
C607 C 0.92522 0.11153 0.8661 0.0
C608 C 0.94244 0.10379 0.88107 0.0
C609 C 0.89198 0.08521 0.85956 0.0
C610 C 0.9225 0.07406 0.89294 0.0
C611 C 0.88836 0.04872 0.88735 0.0
H612 H 0.83912 0.0125 0.63425 0.0
H613 H 0.78191 0.96039 0.68677 0.0
H614 H 0.75225 0.9041 0.66947 0.0
H615 H 0.75489 0.86882 0.64268 0.0
H616 H 0.81972 0.92005 0.5922 0.0
H617 H 0.83199 0.97738 0.60469 0.0
C618 C 0.81931 0.989 0.64171 0.0
C619 C 0.81324 0.99032 0.66184 0.0
C620 C 0.80366 0.95643 0.63192 0.0
C621 C 0.7874 0.95983 0.67134 0.0
C622 C 0.77045 0.92763 0.66145 0.0
C623 C 0.7705 0.89236 0.63397 0.0
C624 C 0.78765 0.8904 0.61698 0.0
C625 C 0.78008 0.92534 0.64214 0.0
C626 C 0.80685 0.92095 0.60557 0.0
C627 C 0.81444 0.95385 0.61292 0.0
H628 H 0.06166 0.9159 0.62607 0.0
H629 H 0.05883 0.98743 0.58359 0.0
H630 H -0.0037 0.94658 0.57782 0.0
H631 H 0.94058 0.89787 0.59061 0.0
H632 H 0.94336 0.82943 0.63518 0.0
H633 H 0.00758 0.86125 0.63414 0.0
C634 C 0.04764 0.92203 0.61507 0.0
C635 C 0.06456 0.95497 0.60564 0.0
C636 C 0.01139 0.89919 0.61249 0.0
C637 C 0.04623 0.96239 0.59125 0.0
C638 C 0.01037 0.93917 0.58806 0.0
C639 C 0.95527 0.88926 0.5996 0.0
C640 C 0.93742 0.86191 0.61324 0.0
C641 C -0.00772 0.90857 0.59948 0.0
C642 C 0.95665 0.85083 0.62478 0.0
C643 C -0.00663 0.86908 0.62425 0.0
H644 H 0.97592 0.09172 0.64465 0.0
H645 H 0.0122 0.12098 0.70412 0.0
H646 H 0.06639 0.12055 0.69626 0.0
H647 H 0.09915 0.10347 0.6737 0.0
H648 H 0.06321 0.07504 0.6141 0.0
H649 H 0.01352 0.08411 0.62067 0.0
C650 C -0.00394 0.09873 0.65575 0.0
C651 C 0.98995 0.10588 0.67497 0.0
C652 C 0.02706 0.09828 0.65115 0.0
C653 C 0.01633 0.11532 0.68921 0.0
C654 C 0.04721 0.11485 0.68476 0.0
C655 C 0.08085 0.10003 0.66205 0.0
C656 C 0.08449 0.08813 0.64354 0.0
C657 C 0.05224 0.10512 0.66597 0.0
C658 C 0.06088 0.08411 0.6285 0.0
C659 C 0.03233 0.08906 0.63228 0.0
H660 H 0.72289 0.46429 0.42815 0.0
H661 H 0.7206 0.52457 0.47759 0.0
H662 H 0.78213 0.54388 0.48472 0.0
H663 H 0.83034 0.53129 0.48185 0.0
H664 H 0.83081 0.46667 0.43424 0.0
H665 H 0.77714 0.46257 0.42103 0.0
C666 C 0.73628 0.48267 0.44003 0.0
C667 C 0.71711 0.49234 0.45261 0.0
C668 C 0.77132 0.49252 0.44455 0.0
C669 C 0.73473 0.51629 0.46791 0.0
C670 C 0.76989 0.52724 0.47205 0.0
C671 C 0.81945 0.51742 0.46817 0.0
C672 C 0.83389 0.49845 0.45937 0.0
C673 C 0.78764 0.51368 0.46123 0.0
C674 C 0.81988 0.48109 0.44148 0.0
C675 C 0.78891 0.47839 0.43402 0.0
H676 H 0.52511 0.31611 0.45706 0.0
H677 H 0.60842 0.32805 0.41854 0.0
H678 H 0.60186 0.27241 0.43058 0.0
H679 H 0.58266 0.22928 0.4574 0.0
H680 H 0.50691 0.22424 0.49952 0.0
H681 H 0.49977 0.26784 0.48064 0.0
C682 C 0.54083 0.30583 0.45067 0.0
C683 C 0.56742 0.32628 0.43701 0.0
C684 C 0.5389 0.2755 0.45882 0.0
C685 C 0.58778 0.31274 0.42904 0.0
C686 C 0.58437 0.28121 0.43615 0.0
C687 C 0.56385 0.23703 0.46212 0.0
C688 C 0.54549 0.2239 0.47987 0.0
C689 C 0.56163 0.26368 0.45191 0.0
C690 C 0.52148 0.2343 0.48598 0.0
C691 C 0.51755 0.25929 0.47525 0.0
H692 H 0.68057 0.25801 0.47126 0.0
H693 H 0.70952 0.21586 0.52034 0.0
H694 H 0.77083 0.26317 0.51738 0.0
H695 H 0.81274 0.32252 0.50494 0.0
H696 H 0.78354 0.36412 0.45561 0.0
H697 H 0.72605 0.31057 0.45418 0.0
C698 C 0.70061 0.25866 0.48088 0.0
C699 C 0.69075 0.23409 0.49616 0.0
C700 C 0.73561 0.286 0.47917 0.0
C701 C 0.7167 0.23467 0.50847 0.0
C702 C 0.75165 0.26187 0.50689 0.0
C703 C 0.79416 0.31933 0.49352 0.0
C704 C 0.80193 0.34742 0.48071 0.0
C705 C 0.76097 0.28862 0.49292 0.0
C706 C 0.77798 0.34292 0.46576 0.0
C707 C 0.74498 0.31242 0.46502 0.0
H708 H 0.74503 0.45598 0.72142 0.0
H709 H 0.84426 0.49811 0.69094 0.0
H710 H 0.84611 0.44442 0.69792 0.0
H711 H 0.81131 0.38064 0.70406 0.0
H712 H 0.70994 0.3372 0.73228 0.0
H713 H 0.71723 0.39612 0.73498 0.0
C714 C 0.76784 0.45409 0.71706 0.0
C715 C 0.79384 0.48041 0.70506 0.0
C716 C 0.76772 0.42231 0.72016 0.0
C717 C 0.82354 0.47788 0.69986 0.0
C718 C 0.82437 0.44694 0.70361 0.0
C719 C 0.79134 0.38426 0.71137 0.0
C720 C 0.7597 0.35462 0.71743 0.0
C721 C 0.79527 0.41807 0.71236 0.0
C722 C 0.73432 0.3596 0.72723 0.0
C723 C 0.7384 0.3933 0.72869 0.0
H724 H 0.56557 0.29731 0.65852 0.0
H725 H 0.52539 0.3436 0.61749 0.0
H726 H 0.57109 0.40272 0.62745 0.0
H727 H 0.6275 0.44057 0.64428 0.0
H728 H 0.66924 0.39318 0.68353 0.0
H729 H 0.61771 0.33523 0.67799 0.0
C730 C 0.56636 0.32034 0.65203 0.0
C731 C 0.54251 0.31618 0.63713 0.0
C732 C 0.59325 0.35406 0.65738 0.0
C733 C 0.54368 0.3462 0.62893 0.0
C734 C 0.56989 0.37998 0.63454 0.0
C735 C 0.62484 0.41763 0.65193 0.0
C736 C 0.65218 0.42094 0.66409 0.0
C737 C 0.59561 0.38418 0.64822 0.0
C738 C 0.6486 0.39112 0.67393 0.0
C739 C 0.61921 0.35799 0.67075 0.0
H740 H 0.63806 0.16839 0.65669 0.0
H741 H 0.60111 0.19013 0.71064 0.0
H742 H 0.54523 0.17529 0.69493 0.0
H743 H 0.514 0.17048 0.66433 0.0
H744 H 0.55533 0.15732 0.60955 0.0
H745 H 0.60222 0.15412 0.62707 0.0
C746 C 0.61728 0.16857 0.66525 0.0
C747 C 0.6238 0.18074 0.68475 0.0
C748 C 0.58633 0.16238 0.65576 0.0
C749 C 0.59671 0.18099 0.6956 0.0
C750 C 0.56493 0.17288 0.68654 0.0
C751 C 0.53258 0.16574 0.65627 0.0
C752 C 0.5316 0.16474 0.63565 0.0
C753 C 0.56044 0.16572 0.66636 0.0
C754 C 0.55571 0.15844 0.62541 0.0
C755 C 0.58267 0.15683 0.63543 0.0
H756 H 0.65403 0.19255 0.21056 0.0
H757 H 0.71907 0.30484 0.21975 0.0
H758 H 0.66684 0.3105 0.22291 0.0
H759 H 0.60382 0.28544 0.21806 0.0
H760 H 0.53775 0.17407 0.2072 0.0
H761 H 0.58898 0.16583 0.21031 0.0
C762 C 0.65661 0.21807 0.21361 0.0
C763 C 0.69025 0.24833 0.21449 0.0
C764 C 0.62632 0.22129 0.21508 0.0
C765 C 0.6934 0.28126 0.21861 0.0
C766 C 0.66357 0.28454 0.22048 0.0
C767 C 0.60053 0.25921 0.21685 0.0
C768 C 0.5674 0.23048 0.21216 0.0
C769 C 0.63005 0.25501 0.21798 0.0
C770 C 0.56315 0.19655 0.21085 0.0
C771 C 0.59249 0.19195 0.21239 0.0
H772 H 0.79805 0.31027 0.25781 0.0
H773 H 0.88154 0.3571 0.21502 0.0
H774 H 0.87995 0.41188 0.2164 0.0
H775 H 0.84299 0.43879 0.22239 0.0
H776 H 0.75893 0.39183 0.26474 0.0
H777 H 0.77235 0.34474 0.27085 0.0
C778 C 0.81706 0.33299 0.24948 0.0
C779 C 0.83866 0.32906 0.23562 0.0
C780 C 0.81488 0.36393 0.24968 0.0
C781 C 0.86391 0.35907 0.22542 0.0
C782 C 0.86263 0.39031 0.22594 0.0
C783 C 0.82844 0.41884 0.23341 0.0
C784 C 0.79954 0.41807 0.24277 0.0
C785 C 0.83626 0.39186 0.23679 0.0
C786 C 0.78114 0.39264 0.25727 0.0
C787 C 0.78872 0.36565 0.26069 0.0
H788 H 0.54083 0.32909 0.23861 0.0
H789 H 0.54456 0.38065 0.18407 0.0
H790 H 0.59605 0.43478 0.19558 0.0
H791 H 0.64775 0.46071 0.21701 0.0
H792 H 0.64951 0.40388 0.26811 0.0
H793 H 0.58781 0.35922 0.26267 0.0
C794 C 0.55212 0.35258 0.22953 0.0
C795 C 0.5393 0.35079 0.21041 0.0
C796 C 0.58313 0.38265 0.23568 0.0
C797 C 0.55419 0.38135 0.19878 0.0
C798 C 0.5838 0.41221 0.20531 0.0
C799 C 0.63401 0.43946 0.22748 0.0
C800 C 0.6529 0.43543 0.24295 0.0
C801 C 0.59974 0.41234 0.22318 0.0
C802 C 0.63525 0.4075 0.25621 0.0
C803 C 0.60018 0.38173 0.2529 0.0
H804 H 0.51985 0.3272 0.03437 0.0
H805 H 0.60488 0.39178 0.99481 0.0
H806 H 0.5961 0.33931 0.97748 0.0
H807 H 0.5731 0.27554 0.97837 0.0
H808 H 0.48909 0.21078 0.01839 0.0
H809 H 0.48752 0.26261 0.03008 0.0
C810 C 0.53585 0.32975 0.02167 0.0
C811 C 0.56359 0.36311 0.01622 0.0
C812 C 0.53088 0.29941 0.01184 0.0
C813 C 0.5837 0.36626 0.99949 0.0
C814 C 0.57874 0.33626 0.98957 0.0
C815 C 0.5535 0.2726 0.98908 0.0
C816 C 0.53204 0.23966 0.99792 0.0
C817 C 0.55365 0.30268 0.99626 0.0
C818 C 0.50628 0.236 0.01151 0.0
C819 C 0.50569 0.26573 0.01843 0.0
H820 H 0.80286 0.29936 0.02732 0.0
H821 H 0.79681 0.34963 0.97427 0.0
H822 H 0.74003 0.29799 0.96641 0.0
H823 H 0.68697 0.24635 0.97882 0.0
H824 H 0.69042 0.19949 0.03379 0.0
H825 H 0.75346 0.24154 0.03659 0.0
C826 C 0.78973 0.29842 0.01366 0.0
C827 C 0.8035 0.3284 0.00156 0.0
C828 C 0.75619 0.26957 0.00987 0.0
C829 C 0.78639 0.32692 0.9839 0.0
C830 C 0.7538 0.29755 0.97951 0.0
C831 C 0.70173 0.24474 0.99116 0.0
C832 C 0.68401 0.22059 0.00635 0.0
C833 C 0.73751 0.26987 0.99305 0.0
C834 C 0.70345 0.21828 0.02206 0.0
C835 C 0.73946 0.24242 0.0237 0.0
H836 H 0.81546 0.49686 0.05473 0.0
H837 H 0.79304 0.46301 0.99444 0.0
H838 H 0.74564 0.47689 0.99385 0.0
H839 H 0.70357 0.48673 0.0124 0.0
H840 H 0.72347 0.51675 0.07331 0.0
H841 H 0.77947 0.51746 0.07155 0.0
C842 C 0.80077 0.49338 0.04132 0.0
C843 C 0.80708 0.47813 0.02481 0.0
C844 C 0.77292 0.5005 0.04125 0.0
C845 C 0.78826 0.47421 0.00744 0.0
C846 C 0.76108 0.48205 0.0071 0.0
C847 C 0.72068 0.49449 0.02513 0.0
C848 C 0.7091 0.50084 0.04306 0.0
C849 C 0.75206 0.49343 0.02422 0.0
C850 C 0.73169 0.51139 0.05937 0.0
C851 C 0.76356 0.51145 0.05843 0.0
H852 H 0.33379 0.77589 0.78031 0.0
H853 H 0.26824 0.68007 0.74821 0.0
H854 H 0.3203 0.68317 0.73323 0.0
H855 H 0.38421 0.70586 0.73545 0.0
H856 H 0.4498 0.80287 0.76659 0.0
H857 H 0.39819 0.80735 0.77515 0.0
C858 C 0.33098 0.75646 0.7695 0.0
C859 C 0.2975 0.7275 0.76561 0.0
C860 C 0.36104 0.75847 0.76088 0.0
C861 C 0.29388 0.70259 0.75144 0.0
C862 C 0.32365 0.70418 0.74298 0.0
C863 C 0.38729 0.72877 0.74334 0.0
C864 C 0.42054 0.75356 0.75071 0.0
C865 C 0.3574 0.73096 0.74844 0.0
C866 C 0.42441 0.78334 0.76078 0.0
C867 C 0.39481 0.78569 0.76594 0.0
H868 H 0.22099 0.59962 0.76566 0.0
H869 H 0.15111 0.56534 0.81535 0.0
H870 H 0.15356 0.51066 0.8171 0.0
H871 H 0.18493 0.47891 0.8082 0.0
H872 H 0.25377 0.51284 0.7579 0.0
H873 H 0.24204 0.56117 0.75237 0.0
C874 C 0.20513 0.57936 0.77629 0.0
C875 C 0.18581 0.58602 0.79031 0.0
C876 C 0.20712 0.54842 0.77731 0.0
C877 C 0.16568 0.5602 0.80426 0.0
C878 C 0.16752 0.52926 0.80541 0.0
C879 C 0.19659 0.49641 0.79575 0.0
C880 C 0.22064 0.49291 0.78369 0.0
C881 C 0.18957 0.524 0.79261 0.0
C882 C 0.23528 0.51524 0.76743 0.0
C883 C 0.22873 0.54296 0.76431 0.0
H884 H 0.39293 0.4994 0.79102 0.0
H885 H 0.32917 0.49576 0.74197 0.0
H886 H 0.37426 0.5553 0.73237 0.0
H887 H 0.42441 0.61261 0.74274 0.0
H888 H 0.48392 0.61709 0.79405 0.0
H889 H 0.44834 0.55323 0.79785 0.0
C890 C 0.38941 0.51115 0.77783 0.0
C891 C 0.35743 0.49353 0.7675 0.0
C892 C 0.41448 0.54604 0.77308 0.0
C893 C 0.35345 0.50889 0.7503 0.0
C894 C 0.37906 0.54316 0.74494 0.0
C895 C 0.43026 0.59937 0.75433 0.0
C896 C 0.45632 0.61942 0.76827 0.0
C897 C 0.4086 0.56273 0.75695 0.0
C898 C 0.46365 0.60212 0.7833 0.0
C899 C 0.44326 0.56564 0.78551 0.0
H900 H 0.43621 0.6806 0.9986 0.0
H901 H 0.4855 0.67233 0.94567 0.0
H902 H 0.50436 0.73369 0.9376 0.0
H903 H 0.49797 0.78578 0.94287 0.0
H904 H 0.44458 0.79186 0.99459 0.0
H905 H 0.43679 0.73556 0.00606 0.0
C906 C 0.45174 0.69245 0.98551 0.0
C907 C 0.45899 0.67187 0.97259 0.0
C908 C 0.46149 0.72729 0.98068 0.0
C909 C 0.47935 0.6876 0.95577 0.0
C910 C 0.49 0.72263 0.9511 0.0
C911 C 0.48552 0.77523 0.95691 0.0
C912 C 0.4715 0.79265 0.96778 0.0
C913 C 0.47994 0.74221 0.96304 0.0
C914 C 0.45534 0.77873 0.98591 0.0
C915 C 0.45071 0.74646 0.99243 0.0
H916 H 0.22577 0.76492 0.96689 0.0
H917 H 0.26628 0.78276 0.02591 0.0
H918 H 0.32405 0.82808 0.0141 0.0
H919 H 0.36542 0.8492 0.98654 0.0
H920 H 0.32599 0.82394 0.92733 0.0
H921 H 0.2655 0.79463 0.93956 0.0
C922 C 0.24679 0.77983 0.9773 0.0
C923 C 0.24214 0.77001 0.99718 0.0
C924 C 0.28054 0.80343 0.97019 0.0
C925 C 0.26945 0.7897 0.0105 0.0
C926 C 0.30263 0.81514 0.00369 0.0
C927 C 0.34357 0.838 0.97629 0.0
C928 C 0.35002 0.83784 0.95611 0.0
C929 C 0.30899 0.82008 0.98347 0.0
C930 C 0.32159 0.82381 0.94296 0.0
C931 C 0.28702 0.80708 0.94995 0.0
H932 H 0.20821 0.56341 1.00063 0.0
H933 H 0.27728 0.65242 0.03677 0.0
H934 H 0.31859 0.63045 0.0391 0.0
H935 H 0.34015 0.59317 0.02514 0.0
H936 H 0.27295 0.50695 0.98684 0.0
H937 H 0.22537 0.51993 0.99155 0.0
C938 C 0.23191 0.57754 0.00941 0.0
C939 C 0.2402 0.6099 0.01811 0.0
C940 C 0.25598 0.56537 0.01016 0.0
C941 C 0.27061 0.62766 0.02972 0.0
C942 C 0.2943 0.6152 0.03098 0.0
C943 C 0.31472 0.57653 0.01832 0.0
C944 C 0.31026 0.54969 0.00531 0.0
C945 C 0.28808 0.58512 0.02041 0.0
C946 C 0.27712 0.52808 0.99672 0.0
C947 C 0.25001 0.53566 0.99929 0.0
H948 H 0.23136 0.4605 0.53889 0.0
H949 H 0.28956 0.53155 0.58601 0.0
H950 H 0.34488 0.54216 0.57137 0.0
H951 H 0.37555 0.54515 0.54074 0.0
H952 H 0.31645 0.4818 0.49129 0.0
H953 H 0.26301 0.45335 0.51135 0.0
C954 C 0.25602 0.47687 0.54651 0.0
C955 C 0.25648 0.49593 0.56327 0.0
C956 C 0.28775 0.48528 0.53707 0.0
C957 C 0.2886 0.51686 0.57301 0.0
C958 C 0.32028 0.52348 0.56441 0.0
C959 C 0.35114 0.52445 0.5345 0.0
C960 C 0.34964 0.51607 0.51448 0.0
C961 C 0.32012 0.51015 0.54567 0.0
C962 C 0.318 0.48912 0.50659 0.0
C963 C 0.28744 0.47306 0.51801 0.0
H964 H 0.4013 0.65543 0.52885 0.0
H965 H 0.48888 0.71544 0.48997 0.0
H966 H 0.48683 0.76907 0.49746 0.0
H967 H 0.45416 0.79644 0.51127 0.0
H968 H 0.3679 0.73663 0.55107 0.0
H969 H 0.37578 0.68555 0.54734 0.0
C970 C 0.42046 0.68048 0.52243 0.0
C971 C 0.44492 0.6816 0.50875 0.0
C972 C 0.41915 0.71112 0.52684 0.0
C973 C 0.46987 0.71409 0.5006 0.0
C974 C 0.46851 0.74467 0.50475 0.0
C975 C 0.43772 0.77248 0.51949 0.0
C976 C 0.41021 0.77007 0.53119 0.0
C977 C 0.44241 0.74318 0.51729 0.0
C978 C 0.38925 0.73908 0.54194 0.0
C979 C 0.39355 0.70976 0.53971 0.0
H980 H 0.3055 0.75757 0.57502 0.0
H981 H 0.24101 0.76246 0.52872 0.0
H982 H 0.19993 0.69942 0.53206 0.0
H983 H 0.19166 0.64188 0.54203 0.0
H984 H 0.25679 0.63617 0.58749 0.0
H985 H 0.28827 0.70058 0.59073 0.0
C986 C 0.28168 0.74514 0.56623 0.0
C987 C 0.27684 0.76435 0.55122 0.0
C988 C 0.25889 0.70855 0.56771 0.0
C989 C 0.24564 0.74805 0.54014 0.0
C990 C 0.22232 0.7119 0.54189 0.0
C991 C 0.21201 0.65479 0.55307 0.0
C992 C 0.22257 0.63478 0.56423 0.0
C993 C 0.23012 0.69164 0.55463 0.0
C994 C 0.24848 0.65133 0.57871 0.0
C995 C 0.26659 0.68811 0.58045 0.0
H996 H 0.20216 0.63966 0.32939 0.0
H997 H 0.15873 0.62158 0.38779 0.0
H998 H 0.17658 0.57757 0.39345 0.0
H999 H 0.21191 0.55084 0.38344 0.0
H1000 H 0.25868 0.57217 0.3258 0.0
H1001 H 0.23206 0.60824 0.31817 0.0
C1002 C 0.1958 0.62546 0.34319 0.0
C1003 C 0.17939 0.63403 0.35821 0.0
C1004 C 0.20733 0.60124 0.34658 0.0
C1005 C 0.17142 0.61549 0.37602 0.0
C1006 C 0.18186 0.59053 0.37931 0.0
C1007 C 0.21581 0.56295 0.3691 0.0
C1008 C 0.23756 0.55923 0.35529 0.0
C1009 C 0.20104 0.58424 0.36497 0.0
C1010 C 0.24228 0.57491 0.33674 0.0
C1011 C 0.22709 0.59554 0.33237 0.0
H1012 H 0.4245 0.58594 0.35841 0.0
H1013 H 0.35211 0.54952 0.30968 0.0
H1014 H 0.39265 0.60116 0.29064 0.0
H1015 H 0.43988 0.66318 0.29182 0.0
H1016 H 0.5117 0.69987 0.34081 0.0
H1017 H 0.48106 0.6413 0.35534 0.0
C1018 C 0.41824 0.58865 0.34336 0.0
C1019 C 0.38495 0.56466 0.33569 0.0
C1020 C 0.44141 0.61878 0.33259 0.0
C1021 C 0.37738 0.56801 0.31605 0.0
C1022 C 0.40048 0.5977 0.30516 0.0
C1023 C 0.44984 0.65794 0.3052 0.0
C1024 C 0.47702 0.68611 0.31561 0.0
C1025 C 0.43137 0.62436 0.31382 0.0
C1026 C 0.49026 0.67881 0.33268 0.0
C1027 C 0.47246 0.64533 0.34117 0.0
H1028 H 0.26352 0.74455 0.30058 0.0
H1029 H 0.30004 0.83621 0.33766 0.0
H1030 H 0.361 0.85372 0.33005 0.0
H1031 H 0.40262 0.83493 0.31953 0.0
H1032 H 0.3661 0.74167 0.28388 0.0
H1033 H 0.30658 0.73318 0.28393 0.0
C1034 C 0.2848 0.76901 0.30645 0.0
C1035 C 0.27737 0.78851 0.3201 0.0
C1036 C 0.31982 0.77822 0.30258 0.0
C1037 C 0.30511 0.82044 0.32734 0.0
C1038 C 0.34001 0.83032 0.32314 0.0
C1039 C 0.38182 0.81337 0.31128 0.0
C1040 C 0.38837 0.78844 0.30215 0.0
C1041 C 0.34757 0.80816 0.31182 0.0
C1042 C 0.36153 0.761 0.29119 0.0
C1043 C 0.32743 0.75599 0.29134 0.0
H1044 H 0.07858 0.11843 0.29449 0.0
H1045 H 0.17744 0.21661 0.29625 0.0
H1046 H 0.18677 0.21078 0.26146 0.0
H1047 H 0.16897 0.1756 0.23129 0.0
H1048 H 0.07136 0.07615 0.22992 0.0
H1049 H 0.05929 0.08473 0.26383 0.0
C1050 C 0.10193 0.13876 0.28719 0.0
C1051 C 0.12735 0.16782 0.2979 0.0
C1052 C 0.10746 0.13487 0.26732 0.0
C1053 C 0.15756 0.19392 0.2883 0.0
C1054 C 0.16295 0.19058 0.26844 0.0
C1055 C 0.1449 0.15598 0.23836 0.0
C1056 C 0.12119 0.12521 0.2282 0.0
C1057 C 0.13842 0.16082 0.25792 0.0
C1058 C 0.0901 0.09999 0.23751 0.0
C1059 C 0.08319 0.10486 0.25688 0.0
H1060 H 0.88065 0.03882 0.21979 0.0
H1061 H 0.84181 0.92734 0.21283 0.0
H1062 H 0.83469 0.91918 0.24833 0.0
H1063 H 0.8315 0.94246 0.28066 0.0
H1064 H 0.8666 0.05334 0.28694 0.0
H1065 H 0.8834 0.06307 0.25243 0.0
C1066 C 0.87138 0.01286 0.22607 0.0
C1067 C 0.86143 0.98367 0.21373 0.0
C1068 C 0.86618 0.0082 0.24636 0.0
C1069 C 0.84947 0.9502 0.22205 0.0
C1070 C 0.8452 0.9455 0.24233 0.0
C1071 C 0.84341 0.96883 0.27453 0.0
C1072 C 0.84739 -0.00294 0.28622 0.0
C1073 C 0.85218 0.97408 0.25454 0.0
C1074 C 0.86291 0.03112 0.27815 0.0
C1075 C 0.87251 0.03671 0.25842 0.0
H1076 H 0.96659 0.8856 0.28726 0.0
H1077 H 0.87955 0.78323 0.30269 0.0
H1078 H 0.86015 0.7726 0.26867 0.0
H1079 H 0.87178 0.78924 0.23417 0.0
H1080 H 0.96031 0.89011 0.21808 0.0
H1081 H 0.97476 0.90481 0.25269 0.0
C1082 C 0.9431 0.86121 0.28318 0.0
C1083 C 0.92482 0.83504 0.29741 0.0
C1084 C 0.93239 0.85496 0.26346 0.0
C1085 C 0.89435 0.80362 0.29197 0.0
C1086 C 0.88319 0.79751 0.27251 0.0
C1087 C 0.8938 0.81476 0.23823 0.0
C1088 C 0.91511 0.8384 0.2236 0.0
C1089 C 0.90257 0.82254 0.25807 0.0
C1090 C 0.94353 0.87139 0.22909 0.0
C1091 C 0.95196 0.87971 0.24887 0.0
H1092 H 0.87439 0.86605 0.69882 0.0
H1093 H 0.84767 0.93613 0.66879 0.0
H1094 H 0.84741 0.96368 0.70005 0.0
H1095 H 0.84764 0.96248 0.73646 0.0
H1096 H 0.87446 0.89146 0.7656 0.0
H1097 H 0.88244 0.87027 0.73421 0.0
C1098 C 0.86902 0.88772 0.6991 0.0
C1099 C 0.86058 0.89872 0.68168 0.0
C1100 C 0.86874 0.9032 0.71701 0.0
C1101 C 0.85415 0.92715 0.68212 0.0
C1102 C 0.85383 0.94279 0.69997 0.0
C1103 C 0.85587 0.94288 0.73586 0.0
C1104 C 0.85967 0.928 0.7533 0.0
C1105 C 0.86004 0.93029 0.71761 0.0
C1106 C 0.87069 0.90287 0.75236 0.0
C1107 C 0.87526 0.89065 0.73442 0.0
H1108 H 0.16763 -0.00393 0.76224 0.0
H1109 H 0.07011 0.89922 0.75163 0.0
H1110 H 0.07222 0.91474 0.71715 0.0
H1111 H 0.10032 0.95676 0.69031 0.0
H1112 H 0.19762 0.05391 0.70062 0.0
H1113 H 0.19716 0.03724 0.73488 0.0
C1114 C 0.14699 0.9783 0.75234 0.0
C1115 C 0.1187 0.94663 0.75949 0.0
C1116 C 0.14827 0.98746 0.7325 0.0
C1117 C 0.09215 0.9238 0.7465 0.0
C1118 C 0.09329 0.93266 0.72677 0.0
C1119 C 0.12154 0.97421 0.70002 0.0
C1120 C 0.14886 0.00657 0.69299 0.0
C1121 C 0.12101 0.96456 0.71967 0.0
C1122 C 0.17623 0.02885 0.70572 0.0
C1123 C 0.17596 0.01938 0.72531 0.0
H1124 H 0.95083 0.04166 0.73994 0.0
H1125 H 0.8639 0.04962 0.76385 0.0
H1126 H 0.88638 0.05273 0.79684 0.0
H1127 H 0.93347 0.06038 0.81842 0.0
H1128 H 0.02441 0.05957 0.79484 0.0
H1129 H -0.00328 0.04467 0.76236 0.0
C1130 C 0.93622 0.04285 0.75246 0.0
C1131 C 0.9059 0.04563 0.74953 0.0
C1132 C 0.94983 0.04567 0.77147 0.0
C1133 C 0.88737 0.04758 0.76579 0.0
C1134 C 0.90008 0.04923 0.78467 0.0
C1135 C 0.94709 0.05641 0.80626 0.0
C1136 C 0.98116 0.06162 0.80891 0.0
C1137 C 0.9318 0.04949 0.78762 0.0
C1138 C -0.00173 0.05603 0.79308 0.0
C1139 C 0.98249 0.04763 0.77451 0.0
H1140 H 0.87244 0.512 0.55659 0.0
H1141 H 0.77546 0.41677 0.54253 0.0
H1142 H 0.74814 0.42323 0.57221 0.0
H1143 H 0.75179 0.45559 0.6022 0.0
H1144 H 0.8486 0.55067 0.6166 0.0
H1145 H 0.87601 0.54462 0.58672 0.0
C1146 C 0.84534 0.49271 0.56004 0.0
C1147 C 0.82602 0.46396 0.54741 0.0
C1148 C 0.82977 0.49653 0.57717 0.0
C1149 C 0.79091 0.43914 0.55203 0.0
C1150 C 0.77524 0.44279 0.569 0.0
C1151 C 0.77888 0.47501 0.59879 0.0
C1152 C 0.79815 0.50351 0.61156 0.0
C1153 C 0.79444 0.47134 0.58167 0.0
C1154 C 0.83322 0.52847 0.60698 0.0
C1155 C 0.84891 0.52504 0.58991 0.0
H1156 H 0.53085 0.33361 0.49811 0.0
H1157 H 0.63976 0.38156 0.51562 0.0
H1158 H 0.62366 0.33738 0.54158 0.0
H1159 H 0.57787 0.28747 0.5605 0.0
H1160 H 0.4692 0.2393 0.54223 0.0
H1161 H 0.48606 0.28088 0.51511 0.0
C1162 C 0.55103 0.33451 0.5077 0.0
C1163 C 0.58629 0.3612 0.50532 0.0
C1164 C 0.54167 0.30878 0.52227 0.0
C1165 C 0.61235 0.3615 0.51741 0.0
C1166 C 0.60318 0.33618 0.53216 0.0
C1167 C 0.558 0.28565 0.55033 0.0
C1168 C 0.5223 0.26059 0.55348 0.0
C1169 C 0.56784 0.30992 0.53485 0.0
C1170 C 0.49686 0.25836 0.54014 0.0
C1171 C 0.50643 0.28234 0.52473 0.0
H1172 H 0.67786 0.23127 0.56532 0.0
H1173 H 0.5799 0.22245 0.58426 0.0
H1174 H 0.60515 0.24442 0.61688 0.0
H1175 H 0.65384 0.26121 0.64058 0.0
H1176 H 0.7512 0.26909 0.62092 0.0
H1177 H 0.72762 0.25301 0.58778 0.0
C1178 C 0.66207 0.23436 0.57655 0.0
C1179 C 0.62694 0.2248 0.57257 0.0
C1180 C 0.67677 0.247 0.59505 0.0
C1181 C 0.60697 0.22953 0.58708 0.0
C1182 C 0.62142 0.24204 0.60569 0.0
C1183 C 0.67017 0.26023 0.62892 0.0
C1184 C 0.70427 0.26631 0.63317 0.0
C1185 C 0.65614 0.25025 0.60993 0.0
C1186 C 0.72495 0.26453 0.618 0.0
C1187 C 0.71141 0.25515 0.59909 0.0
H1188 H 0.52959 0.15746 0.07778 0.0
H1189 H 0.6072 0.26518 0.06412 0.0
H1190 H 0.59249 0.28539 0.09414 0.0
H1191 H 0.5559 0.27268 0.12371 0.0
H1192 H 0.47824 0.16489 0.13722 0.0
H1193 H 0.49435 0.14458 0.10776 0.0
C1194 C 0.54362 0.18529 0.08152 0.0
C1195 C 0.56947 0.20975 0.06879 0.0
C1196 C 0.53463 0.1968 0.09864 0.0
C1197 C 0.58723 0.24578 0.07373 0.0
C1198 C 0.5787 0.2574 0.09084 0.0
C1199 C 0.5424 0.24479 0.12012 0.0
C1200 C 0.51575 0.22037 0.13251 0.0
C1201 C 0.55206 0.23321 0.10325 0.0
C1202 C 0.49876 0.18425 0.12784 0.0
C1203 C 0.50803 0.17258 0.11104 0.0
H1204 H 0.87788 0.36993 0.08965 0.0
H1205 H 0.77791 0.3662 0.08446 0.0
H1206 H 0.7571 0.33098 0.11432 0.0
H1207 H 0.76712 0.30099 0.14176 0.0
H1208 H 0.86712 0.30491 0.14724 0.0
H1209 H 0.88804 0.34015 0.11731 0.0
C1210 C 0.85162 0.36154 0.09512 0.0
C1211 C 0.8295 0.37069 0.08491 0.0
C1212 C 0.83975 0.34116 0.11226 0.0
C1213 C 0.79548 0.35954 0.0921 0.0
C1214 C 0.7835 0.33932 0.10914 0.0
C1215 C 0.79343 0.30942 0.13636 0.0
C1216 C 0.8155 0.30028 0.14662 0.0
C1217 C 0.80537 0.32988 0.11928 0.0
C1218 C 0.84961 0.31157 0.13954 0.0
C1219 C 0.86162 0.33177 0.12246 0.0
H1220 H 0.65743 0.45527 0.17778 0.0
H1221 H 0.71519 0.40602 0.15659 0.0
H1222 H 0.68346 0.39289 0.12531 0.0
H1223 H 0.64467 0.40219 0.10285 0.0
H1224 H 0.58855 0.45314 0.12428 0.0
H1225 H 0.61373 0.45815 0.15682 0.0
C1226 C 0.66282 0.44132 0.16638 0.0
C1227 C 0.68903 0.43219 0.16928 0.0
C1228 C 0.64479 0.43422 0.14852 0.0
C1229 C 0.6953 0.41353 0.1546 0.0
C1230 C 0.67724 0.40614 0.13672 0.0
C1231 C 0.63738 0.41371 0.11475 0.0
C1232 C 0.61509 0.42766 0.11111 0.0
C1233 C 0.65268 0.41731 0.13333 0.0
C1234 C 0.60584 0.44245 0.12667 0.0
C1235 C 0.62036 0.44549 0.14526 0.0
H1236 H 0.41906 0.77504 0.88771 0.0
H1237 H 0.49127 0.88243 0.87028 0.0
H1238 H 0.5032 0.86149 0.83964 0.0
H1239 H 0.49588 0.81282 0.81883 0.0
H1240 H 0.42465 0.70522 0.83622 0.0
H1241 H 0.40957 0.72612 0.86599 0.0
C1242 C 0.43705 0.79386 0.87708 0.0
C1243 C 0.45434 0.83022 0.88124 0.0
C1244 C 0.44425 0.7816 0.85966 0.0
C1245 C 0.47768 0.85431 0.8674 0.0
C1246 C 0.48462 0.84236 0.84993 0.0
C1247 C 0.47702 0.7939 0.82913 0.0
C1248 C 0.46166 0.75753 0.82548 0.0
C1249 C 0.46857 0.80608 0.8461 0.0
C1250 C 0.43699 0.73335 0.83881 0.0
C1251 C 0.42834 0.74529 0.85578 0.0
H1252 H 0.16425 0.63001 0.93014 0.0
H1253 H 0.27065 0.71309 0.94147 0.0
H1254 H 0.28177 0.72231 0.90614 0.0
H1255 H 0.25966 0.70865 0.87194 0.0
H1256 H 0.15246 0.62596 0.86163 0.0
H1257 H 0.14334 0.61465 0.89661 0.0
C1258 C 0.18999 0.64997 0.9249 0.0
C1259 C 0.21654 0.67088 0.93834 0.0
C1260 C 0.19599 0.6553 0.90472 0.0
C1261 C 0.24981 0.69654 0.93135 0.0
C1262 C 0.25611 0.70192 0.91117 0.0
C1263 C 0.23445 0.68801 0.8774 0.0
C1264 C 0.20671 0.66838 0.86422 0.0
C1265 C 0.22919 0.68175 0.8977 0.0
C1266 C 0.17418 0.64167 0.87146 0.0
C1267 C 0.16889 0.63512 0.89148 0.0
H1268 H 0.31172 0.51607 0.85554 0.0
H1269 H 0.32432 0.42462 0.85981 0.0
H1270 H 0.35119 0.4438 0.89218 0.0
H1271 H 0.36983 0.48601 0.91965 0.0
H1272 H 0.35628 0.57692 0.91518 0.0
H1273 H 0.33125 0.55858 0.8825 0.0
C1274 C 0.32041 0.50037 0.86354 0.0
C1275 C 0.31596 0.46896 0.85534 0.0
C1276 C 0.3357 0.51147 0.88211 0.0
C1277 C 0.32741 0.44891 0.86584 0.0
C1278 C 0.34278 0.45985 0.88434 0.0
C1279 C 0.36158 0.50186 0.91146 0.0
C1280 C 0.36486 0.53272 0.91983 0.0
C1281 C 0.3469 0.49101 0.89267 0.0
C1282 C 0.35397 0.55299 0.90908 0.0
C1283 C 0.33962 0.54253 0.89039 0.0
H1284 H 0.27896 0.58352 0.48952 0.0
H1285 H 0.21952 0.47052 0.49725 0.0
H1286 H 0.24658 0.4623 0.46814 0.0
H1287 H 0.28142 0.48621 0.43866 0.0
H1288 H 0.33398 0.59817 0.42758 0.0
H1289 H 0.31664 0.60803 0.46005 0.0
C1290 C 0.27226 0.5572 0.48487 0.0
C1291 C 0.24717 0.52767 0.49544 0.0
C1292 C 0.28696 0.55251 0.46757 0.0
C1293 C 0.23853 0.49367 0.48925 0.0
C1294 C 0.25407 0.4889 0.47264 0.0
C1295 C 0.28981 0.51288 0.4435 0.0
C1296 C 0.30905 0.54141 0.43079 0.0
C1297 C 0.27762 0.51803 0.46145 0.0
C1298 C 0.31939 0.57578 0.43719 0.0
C1299 C 0.3091 0.58137 0.45565 0.0
H1300 H 0.40834 0.67321 0.36289 0.0
H1301 H 0.46461 0.77249 0.39365 0.0
H1302 H 0.45993 0.74129 0.42414 0.0
H1303 H 0.44488 0.68664 0.44128 0.0
H1304 H 0.39025 0.58701 0.41098 0.0
H1305 H 0.38901 0.61747 0.38097 0.0
C1306 C 0.41887 0.68794 0.37637 0.0
C1307 C 0.43682 0.72513 0.37606 0.0
C1308 C 0.41677 0.66981 0.39379 0.0
C1309 C 0.45072 0.7439 0.39355 0.0
C1310 C 0.4482 0.72609 0.41095 0.0
C1311 C 0.4325 0.67155 0.42812 0.0
C1312 C 0.41787 0.63475 0.4282 0.0
C1313 C 0.43216 0.6892 0.4111 0.0
C1314 C 0.40155 0.61539 0.41119 0.0
C1315 C 0.40098 0.63281 0.39408 0.0
H1316 H 0.29765 0.83933 0.46851 0.0
H1317 H 0.35205 0.78114 0.45925 0.0
H1318 H 0.32164 0.75903 0.42811 0.0
H1319 H 0.27758 0.75372 0.40436 0.0
H1320 H 0.22213 0.81088 0.41336 0.0
H1321 H 0.25497 0.83594 0.44376 0.0
C1322 C 0.30309 0.82213 0.45955 0.0
C1323 C 0.32696 0.8118 0.46619 0.0
C1324 C 0.28513 0.8091 0.44172 0.0
C1325 C 0.3337 0.78939 0.45449 0.0
C1326 C 0.31627 0.77666 0.43669 0.0
C1327 C 0.27272 0.77174 0.41294 0.0
C1328 C 0.24732 0.78025 0.40672 0.0
C1329 C 0.29157 0.7859 0.43033 0.0
C1330 C 0.2415 0.80383 0.4179 0.0
C1331 C 0.26025 0.81815 0.43527 0.0
H1332 H 0.26008 0.13004 0.19539 0.0
H1333 H 0.26399 0.1919 0.14522 0.0
H1334 H 0.32858 0.22404 0.14657 0.0
H1335 H 0.38361 0.23393 0.16201 0.0
H1336 H 0.37866 0.17195 0.21241 0.0
H1337 H 0.31441 0.14052 0.21107 0.0
C1338 C 0.27501 0.15049 0.18468 0.0
C1339 C 0.2574 0.15851 0.17015 0.0
C1340 C 0.31181 0.16887 0.18568 0.0
C1341 C 0.27706 0.18522 0.15649 0.0
C1342 C 0.3139 0.20359 0.15729 0.0
C1343 C 0.36844 0.21365 0.17275 0.0
C1344 C 0.38579 0.20521 0.18729 0.0
C1345 C 0.33151 0.1956 0.17184 0.0
C1346 C 0.36588 0.17892 0.2011 0.0
C1347 C 0.32918 0.16089 0.20031 0.0
H1348 H 0.79059 0.04796 0.19263 0.0
H1349 H 0.78699 0.06377 0.13045 0.0
H1350 H 0.7748 0.11177 0.13692 0.0
H1351 H 0.77123 0.15269 0.16029 0.0
H1352 H 0.78089 0.14004 0.22229 0.0
H1353 H 0.78473 0.08707 0.21587 0.0
C1354 C 0.78652 0.06145 0.18046 0.0
C1355 C 0.78962 0.05237 0.16107 0.0
C1356 C 0.78109 0.08979 0.1843 0.0
C1357 C 0.78464 0.07031 0.14548 0.0
C1358 C 0.77788 0.09782 0.14919 0.0
C1359 C 0.77373 0.13806 0.1724 0.0
C1360 C 0.77586 0.15017 0.19174 0.0
C1361 C 0.777 0.10835 0.16854 0.0
C1362 C 0.77938 0.13123 0.20729 0.0
C1363 C 0.78154 0.10099 0.20363 0.0
H1364 H 0.89499 0.70211 0.20707 0.0
H1365 H 0.87524 0.67665 0.1456 0.0
H1366 H 0.84597 0.61362 0.15343 0.0
H1367 H 0.82094 0.56634 0.17792 0.0
H1368 H 0.83596 0.59216 0.23951 0.0
H1369 H 0.87245 0.65483 0.23146 0.0
C1370 C 0.88484 0.68279 0.19534 0.0
C1371 C 0.8872 0.69388 0.17577 0.0
C1372 C 0.86693 0.64681 0.20002 0.0
C1373 C 0.87367 0.66863 0.16075 0.0
C1374 C 0.85684 0.63267 0.16524 0.0
C1375 C 0.83261 0.58564 0.18959 0.0
C1376 C 0.82576 0.57479 0.20929 0.0
C1377 C 0.85253 0.62153 0.18485 0.0
C1378 C 0.84079 0.60001 0.22425 0.0
C1379 C 0.86159 0.63576 0.21965 0.0
H1380 H 0.27956 0.39412 0.37763 0.0
H1381 H 0.18922 0.40576 0.36526 0.0
H1382 H 0.15075 0.34215 0.36676 0.0
H1383 H 0.14275 0.28353 0.37023 0.0
H1384 H 0.23207 0.26968 0.38102 0.0
H1385 H 0.27095 0.33399 0.38197 0.0
C1386 C 0.25146 0.38263 0.37525 0.0
C1387 C 0.23729 0.40458 0.3712 0.0
C1388 C 0.22932 0.34578 0.37604 0.0
C1389 C 0.20084 0.38945 0.36826 0.0
C1390 C 0.17875 0.35307 0.36919 0.0
C1391 C 0.17068 0.29447 0.37301 0.0
C1392 C 0.18456 0.27194 0.37553 0.0
C1393 C 0.19273 0.33106 0.37294 0.0
C1394 C 0.22078 0.28655 0.37912 0.0
C1395 C 0.243 0.32327 0.3795 0.0
H1396 H 0.56864 0.88137 0.34584 0.0
H1397 H 0.57642 0.85533 0.28571 0.0
H1398 H 0.63964 0.89763 0.28589 0.0
H1399 H 0.69332 0.93485 0.3046 0.0
H1400 H 0.68613 0.95814 0.36532 0.0
H1401 H 0.62176 0.92443 0.36337 0.0
C1402 C 0.58405 0.88543 0.33265 0.0
C1403 C 0.56808 0.8649 0.31587 0.0
C1404 C 0.62044 0.90901 0.33305 0.0
C1405 C 0.58823 0.87064 0.29884 0.0
C1406 C 0.62436 0.89469 0.29898 0.0
C1407 C 0.67766 0.93308 0.31732 0.0
C1408 C 0.69433 0.94841 0.33517 0.0
C1409 C 0.64089 0.91293 0.31623 0.0
C1410 C 0.67382 0.94633 0.35146 0.0
C1411 C 0.63707 0.92692 0.35038 0.0
H1412 H 0.02565 0.78848 0.328 0.0
H1413 H 0.00268 0.77066 0.38979 0.0
H1414 H 0.04051 0.74438 0.39234 0.0
H1415 H 0.0849 0.73249 0.37754 0.0
H1416 H 0.10934 0.75326 0.316 0.0
H1417 H 0.06572 0.77206 0.31275 0.0
C1418 C 0.02859 0.7785 0.34201 0.0
C1419 C 0.0118 0.78185 0.35875 0.0
C1420 C 0.05074 0.76412 0.34339 0.0
C1421 C 0.01552 0.76849 0.37673 0.0
C1422 C 0.03721 0.75359 0.37819 0.0
C1423 C 0.0802 0.74055 0.36336 0.0
C1424 C 0.10046 0.7418 0.34706 0.0
C1425 C 0.05566 0.75213 0.3617 0.0
C1426 C 0.0942 0.75232 0.32878 0.0
C1427 C 0.06936 0.76315 0.32692 0.0
H1428 H 0.71727 0.88284 0.77146 0.0
H1429 H 0.71587 0.83563 0.82723 0.0
H1430 H 0.65549 0.78841 0.82114 0.0
H1431 H 0.60251 0.76247 0.80081 0.0
H1432 H 0.60319 0.80957 0.74515 0.0
H1433 H 0.66503 0.85463 0.75012 0.0
C1434 C 0.7037 0.86222 0.78229 0.0
C1435 C 0.72075 0.86289 0.79989 0.0
C1436 C 0.66915 0.83507 0.77861 0.0
C1437 C 0.70315 0.83577 0.81365 0.0
C1438 C 0.66871 0.80876 0.81015 0.0
C1439 C 0.6163 0.78231 0.78962 0.0
C1440 C 0.59832 0.78284 0.77267 0.0
C1441 C 0.65141 0.80836 0.79277 0.0
C1442 C 0.61653 0.80858 0.75828 0.0
C1443 C 0.65175 0.83448 0.76121 0.0
H1444 H 0.21499 0.79486 0.81905 0.0
H1445 H 0.1203 0.71638 0.79027 0.0
H1446 H 0.09373 0.75372 0.79464 0.0
H1447 H 0.09801 0.80913 0.80652 0.0
H1448 H 0.19375 0.88737 0.83462 0.0
H1449 H 0.21921 0.84927 0.83091 0.0
C1450 C 0.18856 0.78589 0.81365 0.0
C1451 C 0.16965 0.753 0.80428 0.0
C1452 C 0.17357 0.80729 0.81628 0.0
C1453 C 0.13542 0.74173 0.79743 0.0
C1454 C 0.12021 0.76298 0.80001 0.0
C1455 C 0.12428 0.81758 0.81201 0.0
C1456 C 0.14398 0.85088 0.8209 0.0
C1457 C 0.13904 0.79579 0.80947 0.0
C1458 C 0.17812 0.8618 0.82774 0.0
C1459 C 0.19272 0.84011 0.82557 0.0
H1460 H 0.17735 0.34315 0.83535 0.0
H1461 H 0.20852 0.30622 0.78474 0.0
H1462 H 0.16794 0.24483 0.79449 0.0
H1463 H 0.12372 0.20209 0.81767 0.0
H1464 H 0.0961 0.2406 0.86908 0.0
H1465 H 0.13557 0.30131 0.85877 0.0
C1466 C 0.17514 0.32169 0.82634 0.0
C1467 C 0.19551 0.32905 0.80923 0.0
C1468 C 0.15263 0.28691 0.83227 0.0
C1469 C 0.1929 0.30106 0.79791 0.0
C1470 C 0.16979 0.26608 0.80351 0.0
C1471 C 0.12646 0.22384 0.8266 0.0
C1472 C 0.107 0.21698 0.84408 0.0
C1473 C 0.14957 0.25873 0.8207 0.0
C1474 C 0.1109 0.24526 0.85562 0.0
C1475 C 0.13334 0.27994 0.8497 0.0
H1476 H 0.74667 0.60522 0.62853 0.0
H1477 H 0.75914 0.61947 0.69119 0.0
H1478 H 0.77025 0.67986 0.68777 0.0
H1479 H 0.78227 0.72997 0.66673 0.0
H1480 H 0.77423 0.717 0.6039 0.0
H1481 H 0.75493 0.65429 0.60763 0.0
C1482 C 0.75136 0.62138 0.64147 0.0
C1483 C 0.75236 0.60809 0.66008 0.0
C1484 C 0.75862 0.65622 0.63933 0.0
C1485 C 0.75846 0.62926 0.67671 0.0
C1486 C 0.76484 0.66374 0.67475 0.0
C1487 C 0.77573 0.7133 0.65385 0.0
C1488 C 0.77981 0.72804 0.63505 0.0
C1489 C 0.76584 0.67772 0.65609 0.0
C1490 C 0.77137 0.70621 0.6185 0.0
C1491 C 0.76049 0.67045 0.62064 0.0
H1492 H 0.36834 0.12021 0.60187 0.0
H1493 H 0.38062 0.21752 0.62512 0.0
H1494 H 0.31692 0.19053 0.62836 0.0
H1495 H 0.25815 0.13881 0.62612 0.0
H1496 H 0.24518 0.04045 0.6043 0.0
H1497 H 0.30876 0.06846 0.5987 0.0
C1498 C 0.357 0.13548 0.60756 0.0
C1499 C 0.37909 0.1707 0.61334 0.0
C1500 C 0.32031 0.11969 0.60958 0.0
C1501 C 0.36414 0.19026 0.62068 0.0
C1502 C 0.32773 0.17491 0.62251 0.0
C1503 C 0.26917 0.12359 0.61991 0.0
C1504 C 0.24711 0.08768 0.61562 0.0
C1505 C 0.30563 0.13959 0.61719 0.0
C1506 C 0.26173 0.0682 0.60771 0.0
C1507 C 0.29804 0.08415 0.60458 0.0
H1508 H 0.82599 0.23972 0.68241 0.0
H1509 H 0.75677 0.18354 0.73068 0.0
H1510 H 0.7848 0.1476 0.73416 0.0
H1511 H 0.82483 0.12842 0.72139 0.0
H1512 H 0.89352 0.18395 0.67285 0.0
H1513 H 0.86993 0.22414 0.67163 0.0
C1514 C 0.81737 0.21995 0.69387 0.0
C1515 C 0.78912 0.214 0.70614 0.0
C1516 C 0.83326 0.1991 0.69561 0.0
C1517 C 0.77839 0.1885 0.72101 0.0
C1518 C 0.79429 0.16784 0.72295 0.0
C1519 C 0.83487 0.14953 0.71066 0.0
C1520 C 0.8605 0.15299 0.69706 0.0
C1521 C 0.82106 0.1723 0.70999 0.0
C1522 C 0.87362 0.18068 0.6834 0.0
C1523 C 0.86011 0.20359 0.68267 0.0
H1524 H 0.101 0.52082 0.50686 0.0
H1525 H 0.06909 0.46438 0.56174 0.0
H1526 H 0.0074 0.44566 0.55439 0.0
H1527 H 0.96318 0.44691 0.53269 0.0
H1528 H -0.00382 0.50555 0.4785 0.0
H1529 H 0.05725 0.5219 0.48528 0.0
C1530 C 0.08058 0.50426 0.51721 0.0
C1531 C 0.08949 0.4939 0.53481 0.0
C1532 C 0.04555 0.49414 0.51302 0.0
C1533 C 0.06279 0.47264 0.5481 0.0
C1534 C 0.0276 0.46199 0.5439 0.0
C1535 C 0.98373 0.46311 0.52232 0.0
C1536 C 0.9753 0.47501 0.5051 0.0
C1537 C 0.01877 0.4728 0.52645 0.0
C1538 C 0.00212 0.49615 0.49185 0.0
C1539 C 0.03698 0.50548 0.49572 0.0
H1540 H 0.58269 0.51248 0.48067 0.0
H1541 H 0.53821 0.46923 0.42409 0.0
H1542 H 0.50342 0.49898 0.42522 0.0
H1543 H 0.48264 0.53376 0.44356 0.0
H1544 H 0.52806 0.57705 0.50004 0.0
H1545 H 0.56569 0.55084 0.49766 0.0
C1546 C 0.56561 0.50981 0.4685 0.0
C1547 C 0.56269 0.48847 0.45241 0.0
C1548 C 0.54575 0.52679 0.46931 0.0
C1549 C 0.54082 0.48554 0.43664 0.0
C1550 C 0.52083 0.50238 0.43733 0.0
C1551 C 0.50098 0.53765 0.45526 0.0
C1552 C 0.50235 0.55699 0.47204 0.0
C1553 C 0.52259 0.52251 0.45378 0.0
C1554 C 0.52644 0.56215 0.48701 0.0
C1555 C 0.54791 0.54713 0.48568 0.0
H1556 H 0.48785 0.07034 0.53987 0.0
H1557 H 0.55984 0.06272 0.49963 0.0
H1558 H 0.52467 -0.00147 0.50053 0.0
H1559 H 0.47289 0.94487 0.51184 0.0
H1560 H 0.3992 0.95133 0.55117 0.0
H1561 H 0.43584 0.01581 0.55169 0.0
C1562 C 0.49581 0.05456 0.53135 0.0
C1563 C 0.5263 0.07119 0.51965 0.0
C1564 C 0.47528 0.01758 0.5318 0.0
C1565 C 0.53638 0.05052 0.50868 0.0
C1566 C 0.51634 0.01383 0.50921 0.0
C1567 C 0.46493 0.96033 0.52066 0.0
C1568 C 0.43345 0.94345 0.53146 0.0
C1569 C 0.48568 -0.00286 0.52061 0.0
C1570 C 0.4234 0.96381 0.54275 0.0
C1571 C 0.44426 0.00062 0.543 0.0
H1572 H 0.57928 0.08847 0.97488 0.0
H1573 H 0.47832 0.06244 0.99928 0.0
H1574 H 0.45143 0.00398 0.98408 0.0
H1575 H 0.45688 0.96063 0.96406 0.0
H1576 H 0.55871 0.9833 0.94282 0.0
H1577 H 0.58548 0.04321 0.95654 0.0
C1578 C 0.55139 0.06989 0.97679 0.0
C1579 C 0.53054 0.07947 0.98792 0.0
C1580 C 0.5365 0.0361 0.96857 0.0
C1581 C 0.49466 0.05532 0.99072 0.0
C1582 C 0.47935 0.02209 0.98201 0.0
C1583 C 0.4849 0.9789 0.96232 0.0
C1584 C 0.50591 0.9683 0.95222 0.0
C1585 C 0.50002 0.01231 0.97089 0.0
C1586 C 0.54224 0.99141 0.95045 0.0
C1587 C 0.55741 0.02545 0.95829 0.0
H1588 H 0.9763 0.52026 0.04661 0.0
H1589 H 0.96167 0.47465 0.98884 0.0
H1590 H 0.02004 0.52157 0.97919 0.0
H1591 H 0.0746 0.57504 0.98702 0.0
H1592 H 0.09166 0.62009 0.045 0.0
H1593 H 0.03236 0.57391 0.05474 0.0
C1594 C 0.98604 0.52056 0.03196 0.0
C1595 C 0.96486 0.49414 0.01843 0.0
C1596 C 0.01966 0.54756 0.02653 0.0
C1597 C 0.97763 0.49467 0.99951 0.0
C1598 C 0.01087 0.52154 0.99395 0.0
C1599 C 0.06529 0.57502 0.00176 0.0
C1600 C 0.08718 0.60099 0.01525 0.0
C1601 C 0.03194 0.54813 0.0073 0.0
C1602 C 0.07503 0.60038 0.03436 0.0
C1603 C 0.0413 0.57396 0.03992 0.0
H1604 H 0.50308 0.56789 0.00473 0.0
H1605 H 0.40708 0.46772 0.0106 0.0
H1606 H 0.43895 0.44383 0.0284 0.0
H1607 H 0.49453 0.4508 0.04093 0.0
H1608 H 0.59056 0.55089 0.03471 0.0
H1609 H 0.55801 0.57573 0.01867 0.0
C1610 C 0.48915 0.54082 0.0099 0.0
C1611 C 0.45293 0.51944 0.00622 0.0
C1612 C 0.50754 0.5274 0.02016 0.0
C1613 C 0.43506 0.48458 0.01318 0.0
C1614 C 0.45322 0.47096 0.02338 0.0
C1615 C 0.50824 0.47818 0.0363 0.0
C1616 C 0.54485 0.49899 0.03893 0.0
C1617 C 0.48951 0.49207 0.02681 0.0
C1618 C 0.56234 0.53438 0.03283 0.0
C1619 C 0.54381 0.54853 0.02357 0.0
loop_
_geom_bond_atom_site_label_1
_geom_bond_atom_site_label_2
_geom_bond_distance
_geom_bond_site_symmetry_2
_ccdc_geom_bond_type
In0 O1 2.294 . S
In0 O2 2.326 . S
In0 O6 2.266 . S
In0 O7 2.326 . S
In0 O8 2.266 . S
In0 O9 2.326 . S
In0 O11 2.294 . S
In0 O12 2.326 . S
O1 In0 2.294 . S
O1 C10 1.240 . S
O2 In0 2.326 . S
O2 C10 1.252 . S
C3 O6 1.252 . S
C3 O7 1.260 . S
C4 O11 1.240 . S
C4 O12 1.252 . S
C5 O8 1.252 . S
C5 O9 1.260 . S
O6 In0 2.266 . S
O6 C3 1.252 . S
O7 In0 2.326 . S
O7 C3 1.260 . S
O8 In0 2.266 . S
O8 C5 1.252 . S
O9 In0 2.326 . S
O9 C5 1.260 . S
C10 O1 1.240 . S
C10 O2 1.252 . S
O11 In0 2.294 . S
O11 C4 1.240 . S
O12 In0 2.326 . S
O12 C4 1.252 . S
In13 O14 2.294 . S
In13 O15 2.326 . S
In13 O19 2.266 1_545 S
In13 O20 2.326 1_545 S
In13 O21 2.266 . S
In13 O22 2.326 . S
In13 O24 2.294 . S
In13 O25 2.326 . S
O14 In13 2.294 . S
O14 C23 1.240 . S
O15 In13 2.326 . S
O15 C23 1.252 . S
C16 O19 1.252 . S
C16 O20 1.260 . S
C17 O24 1.240 . S
C17 O25 1.252 . S
C18 O21 1.252 . S
C18 O22 1.260 . S
O19 In13 2.266 1_565 S
O19 C16 1.252 . S
O20 In13 2.326 1_565 S
O20 C16 1.260 . S
O21 In13 2.266 . S
O21 C18 1.252 . S
O22 In13 2.326 . S
O22 C18 1.260 . S
C23 O14 1.240 . S
C23 O15 1.252 . S
O24 In13 2.294 . S
O24 C17 1.240 . S
O25 In13 2.326 . S
O25 C17 1.252 . S
In26 O27 2.294 . S
In26 O28 2.326 . S
In26 O32 2.266 . S
In26 O33 2.326 . S
In26 O34 2.266 1_655 S
In26 O35 2.326 1_655 S
In26 O37 2.294 . S
In26 O38 2.326 . S
O27 In26 2.294 . S
O27 C36 1.240 . S
O28 In26 2.326 . S
O28 C36 1.252 . S
C29 O32 1.252 . S
C29 O33 1.260 . S
C30 O37 1.240 . S
C30 O38 1.252 . S
C31 O34 1.252 . S
C31 O35 1.260 . S
O32 In26 2.266 . S
O32 C29 1.252 . S
O33 In26 2.326 . S
O33 C29 1.260 . S
O34 In26 2.266 1_455 S
O34 C31 1.252 . S
O35 In26 2.326 1_455 S
O35 C31 1.260 . S
C36 O27 1.240 . S
C36 O28 1.252 . S
O37 In26 2.294 . S
O37 C30 1.240 . S
O38 In26 2.326 . S
O38 C30 1.252 . S
In39 O40 2.294 . S
In39 O41 2.326 . S
In39 O45 2.266 . S
In39 O46 2.326 . S
In39 O47 2.266 . S
In39 O48 2.326 . S
In39 O50 2.294 . S
In39 O51 2.326 . S
O40 In39 2.294 . S
O40 C49 1.240 . S
O41 In39 2.326 . S
O41 C49 1.252 . S
C42 O45 1.252 . S
C42 O46 1.260 . S
C43 O50 1.240 . S
C43 O51 1.252 . S
C44 O47 1.252 . S
C44 O48 1.260 . S
O45 In39 2.266 . S
O45 C42 1.252 . S
O46 In39 2.326 . S
O46 C42 1.260 . S
O47 In39 2.266 . S
O47 C44 1.252 . S
O48 In39 2.326 . S
O48 C44 1.260 . S
C49 O40 1.240 . S
C49 O41 1.252 . S
O50 In39 2.294 . S
O50 C43 1.240 . S
O51 In39 2.326 . S
O51 C43 1.252 . S
In52 O53 2.294 . S
In52 O54 2.326 1_565 S
In52 O58 2.266 . S
In52 O59 2.326 . S
In52 O60 2.266 1_565 S
In52 O61 2.326 1_565 S
In52 O63 2.294 . S
In52 O64 2.326 . S
O53 In52 2.294 . S
O53 C62 1.240 . S
O54 In52 2.326 1_545 S
O54 C62 1.252 1_545 S
C55 O58 1.252 . S
C55 O59 1.260 . S
C56 O63 1.240 . S
C56 O64 1.252 . S
C57 O60 1.252 . S
C57 O61 1.260 . S
O58 In52 2.266 . S
O58 C55 1.252 . S
O59 In52 2.326 . S
O59 C55 1.260 . S
O60 In52 2.266 1_545 S
O60 C57 1.252 . S
O61 In52 2.326 1_545 S
O61 C57 1.260 . S
C62 O53 1.240 . S
C62 O54 1.252 1_565 S
O63 In52 2.294 . S
O63 C56 1.240 . S
O64 In52 2.326 . S
O64 C56 1.252 . S
In65 O66 2.294 . S
In65 O67 2.326 1_455 S
In65 O71 2.266 . S
In65 O72 2.326 . S
In65 O73 2.266 1_455 S
In65 O74 2.326 1_455 S
In65 O76 2.294 . S
In65 O77 2.326 . S
O66 In65 2.294 . S
O66 C75 1.240 . S
O67 In65 2.326 1_655 S
O67 C75 1.252 1_655 S
C68 O71 1.252 . S
C68 O72 1.260 . S
C69 O76 1.240 . S
C69 O77 1.252 . S
C70 O73 1.252 . S
C70 O74 1.260 . S
O71 In65 2.266 . S
O71 C68 1.252 . S
O72 In65 2.326 . S
O72 C68 1.260 . S
O73 In65 2.266 1_655 S
O73 C70 1.252 . S
O74 In65 2.326 1_655 S
O74 C70 1.260 . S
C75 O66 1.240 . S
C75 O67 1.252 1_455 S
O76 In65 2.294 . S
O76 C69 1.240 . S
O77 In65 2.326 . S
O77 C69 1.252 . S
In78 O79 2.294 . S
In78 O80 2.326 . S
In78 O84 2.266 . S
In78 O85 2.326 . S
In78 O86 2.266 . S
In78 O87 2.326 . S
In78 O89 2.294 . S
In78 O90 2.326 . S
O79 In78 2.294 . S
O79 C88 1.240 . S
O80 In78 2.326 . S
O80 C88 1.252 . S
C81 O84 1.252 . S
C81 O85 1.260 . S
C82 O89 1.240 . S
C82 O90 1.252 . S
C83 O86 1.252 . S
C83 O87 1.260 . S
O84 In78 2.266 . S
O84 C81 1.252 . S
O85 In78 2.326 . S
O85 C81 1.260 . S
O86 In78 2.266 . S
O86 C83 1.252 . S
O87 In78 2.326 . S
O87 C83 1.260 . S
C88 O79 1.240 . S
C88 O80 1.252 . S
O89 In78 2.294 . S
O89 C82 1.240 . S
O90 In78 2.326 . S
O90 C82 1.252 . S
In91 O92 2.294 . S
In91 O93 2.326 . S
In91 O97 2.266 . S
In91 O98 2.326 . S
In91 O99 2.266 1_565 S
In91 O100 2.326 1_565 S
In91 O102 2.294 . S
In91 O103 2.326 . S
O92 In91 2.294 . S
O92 C101 1.240 . S
O93 In91 2.326 . S
O93 C101 1.252 . S
C94 O97 1.252 . S
C94 O98 1.260 . S
C95 O102 1.240 . S
C95 O103 1.252 . S
C96 O99 1.252 . S
C96 O100 1.260 . S
O97 In91 2.266 . S
O97 C94 1.252 . S
O98 In91 2.326 . S
O98 C94 1.260 . S
O99 In91 2.266 1_545 S
O99 C96 1.252 . S
O100 In91 2.326 1_545 S
O100 C96 1.260 . S
C101 O92 1.240 . S
C101 O93 1.252 . S
O102 In91 2.294 . S
O102 C95 1.240 . S
O103 In91 2.326 . S
O103 C95 1.252 . S
In104 O105 2.294 . S
In104 O106 2.326 . S
In104 O110 2.266 . S
In104 O111 2.326 . S
In104 O112 2.266 1_455 S
In104 O113 2.326 1_455 S
In104 O115 2.294 . S
In104 O116 2.326 . S
O105 In104 2.294 . S
O105 C114 1.240 . S
O106 In104 2.326 . S
O106 C114 1.252 . S
C107 O110 1.252 . S
C107 O111 1.260 . S
C108 O115 1.240 . S
C108 O116 1.252 . S
C109 O112 1.252 . S
C109 O113 1.260 . S
O110 In104 2.266 . S
O110 C107 1.252 . S
O111 In104 2.326 . S
O111 C107 1.260 . S
O112 In104 2.266 1_655 S
O112 C109 1.252 . S
O113 In104 2.326 1_655 S
O113 C109 1.260 . S
C114 O105 1.240 . S
C114 O106 1.252 . S
O115 In104 2.294 . S
O115 C108 1.240 . S
O116 In104 2.326 . S
O116 C108 1.252 . S
In117 O118 2.294 . S
In117 O119 2.326 . S
In117 O123 2.266 . S
In117 O124 2.326 . S
In117 O125 2.266 . S
In117 O126 2.326 . S
In117 O128 2.294 . S
In117 O129 2.326 . S
O118 In117 2.294 . S
O118 C127 1.240 . S
O119 In117 2.326 . S
O119 C127 1.252 . S
C120 O123 1.252 . S
C120 O124 1.260 . S
C121 O128 1.240 . S
C121 O129 1.252 . S
C122 O125 1.252 . S
C122 O126 1.260 . S
O123 In117 2.266 . S
O123 C120 1.252 . S
O124 In117 2.326 . S
O124 C120 1.260 . S
O125 In117 2.266 . S
O125 C122 1.252 . S
O126 In117 2.326 . S
O126 C122 1.260 . S
C127 O118 1.240 . S
C127 O119 1.252 . S
O128 In117 2.294 . S
O128 C121 1.240 . S
O129 In117 2.326 . S
O129 C121 1.252 . S
In130 O131 2.294 . S
In130 O132 2.326 1_545 S
In130 O136 2.266 . S
In130 O137 2.326 . S
In130 O138 2.266 1_545 S
In130 O139 2.326 1_545 S
In130 O141 2.294 . S
In130 O142 2.326 . S
O131 In130 2.294 . S
O131 C140 1.240 . S
O132 In130 2.326 1_565 S
O132 C140 1.252 1_565 S
C133 O136 1.252 . S
C133 O137 1.260 . S
C134 O141 1.240 . S
C134 O142 1.252 . S
C135 O138 1.252 . S
C135 O139 1.260 . S
O136 In130 2.266 . S
O136 C133 1.252 . S
O137 In130 2.326 . S
O137 C133 1.260 . S
O138 In130 2.266 1_565 S
O138 C135 1.252 . S
O139 In130 2.326 1_565 S
O139 C135 1.260 . S
C140 O131 1.240 . S
C140 O132 1.252 1_545 S
O141 In130 2.294 . S
O141 C134 1.240 . S
O142 In130 2.326 . S
O142 C134 1.252 . S
In143 O144 2.294 . S
In143 O145 2.326 1_655 S
In143 O149 2.266 . S
In143 O150 2.326 . S
In143 O151 2.266 1_655 S
In143 O152 2.326 1_655 S
In143 O154 2.294 . S
In143 O155 2.326 . S
O144 In143 2.294 . S
O144 C153 1.240 . S
O145 In143 2.326 1_455 S
O145 C153 1.252 1_455 S
C146 O149 1.252 . S
C146 O150 1.260 . S
C147 O154 1.240 . S
C147 O155 1.252 . S
C148 O151 1.252 . S
C148 O152 1.260 . S
O149 In143 2.266 . S
O149 C146 1.252 . S
O150 In143 2.326 . S
O150 C146 1.260 . S
O151 In143 2.266 1_455 S
O151 C148 1.252 . S
O152 In143 2.326 1_455 S
O152 C148 1.260 . S
C153 O144 1.240 . S
C153 O145 1.252 1_655 S
O154 In143 2.294 . S
O154 C147 1.240 . S
O155 In143 2.326 . S
O155 C147 1.252 . S
In156 O157 2.294 . S
In156 O158 2.326 . S
In156 O162 2.266 . S
In156 O163 2.326 . S
In156 O164 2.266 . S
In156 O165 2.326 . S
In156 O167 2.294 . S
In156 O168 2.326 . S
O157 In156 2.294 . S
O157 C166 1.240 . S
O158 In156 2.326 . S
O158 C166 1.252 . S
C159 O162 1.252 . S
C159 O163 1.260 . S
C160 O167 1.240 . S
C160 O168 1.252 . S
C161 O164 1.252 . S
C161 O165 1.260 . S
O162 In156 2.266 . S
O162 C159 1.252 . S
O163 In156 2.326 . S
O163 C159 1.260 . S
O164 In156 2.266 . S
O164 C161 1.252 . S
O165 In156 2.326 . S
O165 C161 1.260 . S
C166 O157 1.240 . S
C166 O158 1.252 . S
O167 In156 2.294 . S
O167 C160 1.240 . S
O168 In156 2.326 . S
O168 C160 1.252 . S
In169 O170 2.294 . S
In169 O171 2.326 . S
In169 O175 2.266 . S
In169 O176 2.326 . S
In169 O177 2.266 . S
In169 O178 2.326 . S
In169 O180 2.294 . S
In169 O181 2.326 . S
O170 In169 2.294 . S
O170 C179 1.240 . S
O171 In169 2.326 . S
O171 C179 1.252 . S
C172 O175 1.252 . S
C172 O176 1.260 . S
C173 O180 1.240 . S
C173 O181 1.252 . S
C174 O177 1.252 . S
C174 O178 1.260 . S
O175 In169 2.266 . S
O175 C172 1.252 . S
O176 In169 2.326 . S
O176 C172 1.260 . S
O177 In169 2.266 . S
O177 C174 1.252 . S
O178 In169 2.326 . S
O178 C174 1.260 . S
C179 O170 1.240 . S
C179 O171 1.252 . S
O180 In169 2.294 . S
O180 C173 1.240 . S
O181 In169 2.326 . S
O181 C173 1.252 . S
In182 O183 2.294 . S
In182 O184 2.326 . S
In182 O188 2.266 . S
In182 O189 2.326 . S
In182 O190 2.266 . S
In182 O191 2.326 . S
In182 O193 2.294 . S
In182 O194 2.326 . S
O183 In182 2.294 . S
O183 C192 1.240 . S
O184 In182 2.326 . S
O184 C192 1.252 . S
C185 O188 1.252 . S
C185 O189 1.260 . S
C186 O193 1.240 . S
C186 O194 1.252 . S
C187 O190 1.252 . S
C187 O191 1.260 . S
O188 In182 2.266 . S
O188 C185 1.252 . S
O189 In182 2.326 . S
O189 C185 1.260 . S
O190 In182 2.266 . S
O190 C187 1.252 . S
O191 In182 2.326 . S
O191 C187 1.260 . S
C192 O183 1.240 . S
C192 O184 1.252 . S
O193 In182 2.294 . S
O193 C186 1.240 . S
O194 In182 2.326 . S
O194 C186 1.252 . S
In195 O196 2.294 . S
In195 O197 2.326 . S
In195 O201 2.266 . S
In195 O202 2.326 . S
In195 O203 2.266 . S
In195 O204 2.326 . S
In195 O206 2.294 . S
In195 O207 2.326 . S
O196 In195 2.294 . S
O196 C205 1.240 . S
O197 In195 2.326 . S
O197 C205 1.252 . S
C198 O201 1.252 . S
C198 O202 1.260 . S
C199 O206 1.240 . S
C199 O207 1.252 . S
C200 O203 1.252 . S
C200 O204 1.260 . S
O201 In195 2.266 . S
O201 C198 1.252 . S
O202 In195 2.326 . S
O202 C198 1.260 . S
O203 In195 2.266 . S
O203 C200 1.252 . S
O204 In195 2.326 . S
O204 C200 1.260 . S
C205 O196 1.240 . S
C205 O197 1.252 . S
O206 In195 2.294 . S
O206 C199 1.240 . S
O207 In195 2.326 . S
O207 C199 1.252 . S
In208 O209 2.294 . S
In208 O210 2.326 . S
In208 O214 2.266 . S
In208 O215 2.326 . S
In208 O216 2.266 . S
In208 O217 2.326 . S
In208 O219 2.294 . S
In208 O220 2.326 . S
O209 In208 2.294 . S
O209 C218 1.240 . S
O210 In208 2.326 . S
O210 C218 1.252 . S
C211 O214 1.252 . S
C211 O215 1.260 . S
C212 O219 1.240 . S
C212 O220 1.252 . S
C213 O216 1.252 . S
C213 O217 1.260 . S
O214 In208 2.266 . S
O214 C211 1.252 . S
O215 In208 2.326 . S
O215 C211 1.260 . S
O216 In208 2.266 . S
O216 C213 1.252 . S
O217 In208 2.326 . S
O217 C213 1.260 . S
C218 O209 1.240 . S
C218 O210 1.252 . S
O219 In208 2.294 . S
O219 C212 1.240 . S
O220 In208 2.326 . S
O220 C212 1.252 . S
In221 O222 2.294 . S
In221 O223 2.326 . S
In221 O227 2.266 . S
In221 O228 2.326 . S
In221 O229 2.266 . S
In221 O230 2.326 . S
In221 O232 2.294 . S
In221 O233 2.326 . S
O222 In221 2.294 . S
O222 C231 1.240 . S
O223 In221 2.326 . S
O223 C231 1.252 . S
C224 O227 1.252 . S
C224 O228 1.260 . S
C225 O232 1.240 . S
C225 O233 1.252 . S
C226 O229 1.252 . S
C226 O230 1.260 . S
O227 In221 2.266 . S
O227 C224 1.252 . S
O228 In221 2.326 . S
O228 C224 1.260 . S
O229 In221 2.266 . S
O229 C226 1.252 . S
O230 In221 2.326 . S
O230 C226 1.260 . S
C231 O222 1.240 . S
C231 O223 1.252 . S
O232 In221 2.294 . S
O232 C225 1.240 . S
O233 In221 2.326 . S
O233 C225 1.252 . S
In234 O235 2.294 . S
In234 O236 2.326 . S
In234 O240 2.266 . S
In234 O241 2.326 . S
In234 O242 2.266 . S
In234 O243 2.326 . S
In234 O245 2.294 . S
In234 O246 2.326 . S
O235 In234 2.294 . S
O235 C244 1.240 . S
O236 In234 2.326 . S
O236 C244 1.252 . S
C237 O240 1.252 . S
C237 O241 1.260 . S
C238 O245 1.240 . S
C238 O246 1.252 . S
C239 O242 1.252 . S
C239 O243 1.260 . S
O240 In234 2.266 . S
O240 C237 1.252 . S
O241 In234 2.326 . S
O241 C237 1.260 . S
O242 In234 2.266 . S
O242 C239 1.252 . S
O243 In234 2.326 . S
O243 C239 1.260 . S
C244 O235 1.240 . S
C244 O236 1.252 . S
O245 In234 2.294 . S
O245 C238 1.240 . S
O246 In234 2.326 . S
O246 C238 1.252 . S
In247 O248 2.294 . S
In247 O249 2.326 . S
In247 O253 2.266 . S
In247 O254 2.326 . S
In247 O255 2.266 . S
In247 O256 2.326 . S
In247 O258 2.294 . S
In247 O259 2.326 . S
O248 In247 2.294 . S
O248 C257 1.240 . S
O249 In247 2.326 . S
O249 C257 1.252 . S
C250 O253 1.252 . S
C250 O254 1.260 . S
C251 O258 1.240 . S
C251 O259 1.252 . S
C252 O255 1.252 . S
C252 O256 1.260 . S
O253 In247 2.266 . S
O253 C250 1.252 . S
O254 In247 2.326 . S
O254 C250 1.260 . S
O255 In247 2.266 . S
O255 C252 1.252 . S
O256 In247 2.326 . S
O256 C252 1.260 . S
C257 O248 1.240 . S
C257 O249 1.252 . S
O258 In247 2.294 . S
O258 C251 1.240 . S
O259 In247 2.326 . S
O259 C251 1.252 . S
In260 O261 2.294 . S
In260 O262 2.326 . S
In260 O266 2.266 . S
In260 O267 2.326 . S
In260 O268 2.266 . S
In260 O269 2.326 . S
In260 O271 2.294 . S
In260 O272 2.326 . S
O261 In260 2.294 . S
O261 C270 1.240 . S
O262 In260 2.326 . S
O262 C270 1.252 . S
C263 O266 1.252 . S
C263 O267 1.260 . S
C264 O271 1.240 . S
C264 O272 1.252 . S
C265 O268 1.252 . S
C265 O269 1.260 . S
O266 In260 2.266 . S
O266 C263 1.252 . S
O267 In260 2.326 . S
O267 C263 1.260 . S
O268 In260 2.266 . S
O268 C265 1.252 . S
O269 In260 2.326 . S
O269 C265 1.260 . S
C270 O261 1.240 . S
C270 O262 1.252 . S
O271 In260 2.294 . S
O271 C264 1.240 . S
O272 In260 2.326 . S
O272 C264 1.252 . S
In273 O274 2.293 1_554 S
In273 O275 2.327 . S
In273 O279 2.265 1_554 S
In273 O280 2.326 . S
In273 O281 2.267 . S
In273 O282 2.324 1_554 S
In273 O284 2.296 . S
In273 O285 2.328 . S
O274 In273 2.293 1_556 S
O274 C283 1.240 . S
O275 In273 2.327 . S
O275 C283 1.252 1_554 S
C276 O279 1.252 . S
C276 O280 1.260 1_556 S
C277 O284 1.240 . S
C277 O285 1.252 . S
C278 O281 1.252 1_556 S
C278 O282 1.260 . S
O279 In273 2.265 1_556 S
O279 C276 1.252 . S
O280 In273 2.326 . S
O280 C276 1.260 1_554 S
O281 In273 2.267 . S
O281 C278 1.252 1_554 S
O282 In273 2.324 1_556 S
O282 C278 1.260 . S
C283 O274 1.240 . S
C283 O275 1.252 1_556 S
O284 In273 2.296 . S
O284 C277 1.240 . S
O285 In273 2.328 . S
O285 C277 1.252 . S
In286 O287 2.293 1_554 S
In286 O288 2.327 . S
In286 O292 2.265 1_554 S
In286 O293 2.326 . S
In286 O294 2.267 . S
In286 O295 2.324 1_554 S
In286 O297 2.296 . S
In286 O298 2.328 . S
O287 In286 2.293 1_556 S
O287 C296 1.240 . S
O288 In286 2.327 . S
O288 C296 1.252 1_554 S
C289 O292 1.252 . S
C289 O293 1.260 1_556 S
C290 O297 1.240 . S
C290 O298 1.252 . S
C291 O294 1.252 1_556 S
C291 O295 1.260 . S
O292 In286 2.265 1_556 S
O292 C289 1.252 . S
O293 In286 2.326 . S
O293 C289 1.260 1_554 S
O294 In286 2.267 . S
O294 C291 1.252 1_554 S
O295 In286 2.324 1_556 S
O295 C291 1.260 . S
C296 O287 1.240 . S
C296 O288 1.252 1_556 S
O297 In286 2.296 . S
O297 C290 1.240 . S
O298 In286 2.328 . S
O298 C290 1.252 . S
In299 O300 2.296 . S
In299 O301 2.328 . S
In299 O305 2.267 . S
In299 O306 2.324 1_554 S
In299 O307 2.265 1_554 S
In299 O308 2.326 . S
In299 O310 2.293 1_554 S
In299 O311 2.327 . S
O300 In299 2.296 . S
O300 C309 1.240 . S
O301 In299 2.328 . S
O301 C309 1.252 . S
C302 O305 1.252 1_556 S
C302 O306 1.260 . S
C303 O310 1.240 . S
C303 O311 1.252 1_556 S
C304 O307 1.252 . S
C304 O308 1.260 1_556 S
O305 In299 2.267 . S
O305 C302 1.252 1_554 S
O306 In299 2.324 1_556 S
O306 C302 1.260 . S
O307 In299 2.265 1_556 S
O307 C304 1.252 . S
O308 In299 2.326 . S
O308 C304 1.260 1_554 S
C309 O300 1.240 . S
C309 O301 1.252 . S
O310 In299 2.293 1_556 S
O310 C303 1.240 . S
O311 In299 2.327 . S
O311 C303 1.252 1_554 S
In312 O313 2.294 . S
In312 O314 2.326 . S
In312 O318 2.266 . S
In312 O319 2.326 . S
In312 O320 2.266 . S
In312 O321 2.326 . S
In312 O323 2.294 . S
In312 O324 2.326 . S
O313 In312 2.294 . S
O313 C322 1.240 . S
O314 In312 2.326 . S
O314 C322 1.252 . S
C315 O318 1.252 . S
C315 O319 1.260 . S
C316 O323 1.240 . S
C316 O324 1.252 . S
C317 O320 1.252 . S
C317 O321 1.260 . S
O318 In312 2.266 . S
O318 C315 1.252 . S
O319 In312 2.326 . S
O319 C315 1.260 . S
O320 In312 2.266 . S
O320 C317 1.252 . S
O321 In312 2.326 . S
O321 C317 1.260 . S
C322 O313 1.240 . S
C322 O314 1.252 . S
O323 In312 2.294 . S
O323 C316 1.240 . S
O324 In312 2.326 . S
O324 C316 1.252 . S
In325 O326 2.294 . S
In325 O327 2.326 . S
In325 O331 2.266 . S
In325 O332 2.326 . S
In325 O333 2.266 . S
In325 O334 2.326 . S
In325 O336 2.294 . S
In325 O337 2.326 . S
O326 In325 2.294 . S
O326 C335 1.240 . S
O327 In325 2.326 . S
O327 C335 1.252 . S
C328 O331 1.252 . S
C328 O332 1.260 . S
C329 O336 1.240 . S
C329 O337 1.252 . S
C330 O333 1.252 . S
C330 O334 1.260 . S
O331 In325 2.266 . S
O331 C328 1.252 . S
O332 In325 2.326 . S
O332 C328 1.260 . S
O333 In325 2.266 . S
O333 C330 1.252 . S
O334 In325 2.326 . S
O334 C330 1.260 . S
C335 O326 1.240 . S
C335 O327 1.252 . S
O336 In325 2.294 . S
O336 C329 1.240 . S
O337 In325 2.326 . S
O337 C329 1.252 . S
In338 O339 2.294 . S
In338 O340 2.326 . S
In338 O344 2.266 . S
In338 O345 2.326 . S
In338 O346 2.266 . S
In338 O347 2.326 . S
In338 O349 2.294 . S
In338 O350 2.326 . S
O339 In338 2.294 . S
O339 C348 1.240 . S
O340 In338 2.326 . S
O340 C348 1.252 . S
C341 O344 1.252 . S
C341 O345 1.260 . S
C342 O349 1.240 . S
C342 O350 1.252 . S
C343 O346 1.252 . S
C343 O347 1.260 . S
O344 In338 2.266 . S
O344 C341 1.252 . S
O345 In338 2.326 . S
O345 C341 1.260 . S
O346 In338 2.266 . S
O346 C343 1.252 . S
O347 In338 2.326 . S
O347 C343 1.260 . S
C348 O339 1.240 . S
C348 O340 1.252 . S
O349 In338 2.294 . S
O349 C342 1.240 . S
O350 In338 2.326 . S
O350 C342 1.252 . S
In351 O352 2.293 1_556 S
In351 O353 2.327 . S
In351 O357 2.265 1_556 S
In351 O358 2.326 . S
In351 O359 2.267 . S
In351 O360 2.324 1_556 S
In351 O362 2.296 . S
In351 O363 2.328 . S
O352 In351 2.293 1_554 S
O352 C361 1.240 . S
O353 In351 2.327 . S
O353 C361 1.252 1_556 S
C354 O357 1.252 . S
C354 O358 1.260 1_554 S
C355 O362 1.240 . S
C355 O363 1.252 . S
C356 O359 1.252 1_554 S
C356 O360 1.260 . S
O357 In351 2.265 1_554 S
O357 C354 1.252 . S
O358 In351 2.326 . S
O358 C354 1.260 1_556 S
O359 In351 2.267 . S
O359 C356 1.252 1_556 S
O360 In351 2.324 1_554 S
O360 C356 1.260 . S
C361 O352 1.240 . S
C361 O353 1.252 1_554 S
O362 In351 2.296 . S
O362 C355 1.240 . S
O363 In351 2.328 . S
O363 C355 1.252 . S
In364 O365 2.293 1_556 S
In364 O366 2.327 . S
In364 O370 2.265 1_556 S
In364 O371 2.326 . S
In364 O372 2.267 . S
In364 O373 2.324 1_556 S
In364 O375 2.296 . S
In364 O376 2.328 . S
O365 In364 2.293 1_554 S
O365 C374 1.240 . S
O366 In364 2.327 . S
O366 C374 1.252 1_556 S
C367 O370 1.252 . S
C367 O371 1.260 1_554 S
C368 O375 1.240 . S
C368 O376 1.252 . S
C369 O372 1.252 1_554 S
C369 O373 1.260 . S
O370 In364 2.265 1_554 S
O370 C367 1.252 . S
O371 In364 2.326 . S
O371 C367 1.260 1_556 S
O372 In364 2.267 . S
O372 C369 1.252 1_556 S
O373 In364 2.324 1_554 S
O373 C369 1.260 . S
C374 O365 1.240 . S
C374 O366 1.252 1_554 S
O375 In364 2.296 . S
O375 C368 1.240 . S
O376 In364 2.328 . S
O376 C368 1.252 . S
In377 O378 2.293 1_556 S
In377 O379 2.327 . S
In377 O383 2.265 1_556 S
In377 O384 2.326 . S
In377 O385 2.267 . S
In377 O386 2.324 1_556 S
In377 O388 2.296 . S
In377 O389 2.328 . S
O378 In377 2.293 1_554 S
O378 C387 1.240 . S
O379 In377 2.327 . S
O379 C387 1.252 1_556 S
C380 O383 1.252 . S
C380 O384 1.260 1_554 S
C381 O388 1.240 . S
C381 O389 1.252 . S
C382 O385 1.252 1_554 S
C382 O386 1.260 . S
O383 In377 2.265 1_554 S
O383 C380 1.252 . S
O384 In377 2.326 . S
O384 C380 1.260 1_556 S
O385 In377 2.267 . S
O385 C382 1.252 1_556 S
O386 In377 2.324 1_554 S
O386 C382 1.260 . S
C387 O378 1.240 . S
C387 O379 1.252 1_554 S
O388 In377 2.296 . S
O388 C381 1.240 . S
O389 In377 2.328 . S
O389 C381 1.252 . S
In390 O391 2.294 . S
In390 O392 2.326 . S
In390 O396 2.266 . S
In390 O397 2.326 . S
In390 O398 2.266 . S
In390 O399 2.326 . S
In390 O401 2.294 . S
In390 O402 2.326 . S
O391 In390 2.294 . S
O391 C400 1.240 . S
O392 In390 2.326 . S
O392 C400 1.252 . S
C393 O396 1.252 . S
C393 O397 1.260 . S
C394 O401 1.240 . S
C394 O402 1.252 . S
C395 O398 1.252 . S
C395 O399 1.260 . S
O396 In390 2.266 . S
O396 C393 1.252 . S
O397 In390 2.326 . S
O397 C393 1.260 . S
O398 In390 2.266 . S
O398 C395 1.252 . S
O399 In390 2.326 . S
O399 C395 1.260 . S
C400 O391 1.240 . S
C400 O392 1.252 . S
O401 In390 2.294 . S
O401 C394 1.240 . S
O402 In390 2.326 . S
O402 C394 1.252 . S
In403 O404 2.294 . S
In403 O405 2.326 . S
In403 O409 2.266 . S
In403 O410 2.326 . S
In403 O411 2.266 . S
In403 O412 2.326 . S
In403 O414 2.294 . S
In403 O415 2.326 . S
O404 In403 2.294 . S
O404 C413 1.240 . S
O405 In403 2.326 . S
O405 C413 1.252 . S
C406 O409 1.252 . S
C406 O410 1.260 . S
C407 O414 1.240 . S
C407 O415 1.252 . S
C408 O411 1.252 . S
C408 O412 1.260 . S
O409 In403 2.266 . S
O409 C406 1.252 . S
O410 In403 2.326 . S
O410 C406 1.260 . S
O411 In403 2.266 . S
O411 C408 1.252 . S
O412 In403 2.326 . S
O412 C408 1.260 . S
C413 O404 1.240 . S
C413 O405 1.252 . S
O414 In403 2.294 . S
O414 C407 1.240 . S
O415 In403 2.326 . S
O415 C407 1.252 . S
In416 O417 2.294 . S
In416 O418 2.326 . S
In416 O422 2.266 . S
In416 O423 2.326 . S
In416 O424 2.266 . S
In416 O425 2.326 . S
In416 O427 2.294 . S
In416 O428 2.326 . S
O417 In416 2.294 . S
O417 C426 1.240 . S
O418 In416 2.326 . S
O418 C426 1.252 . S
C419 O422 1.252 . S
C419 O423 1.260 . S
C420 O427 1.240 . S
C420 O428 1.252 . S
C421 O424 1.252 . S
C421 O425 1.260 . S
O422 In416 2.266 . S
O422 C419 1.252 . S
O423 In416 2.326 . S
O423 C419 1.260 . S
O424 In416 2.266 . S
O424 C421 1.252 . S
O425 In416 2.326 . S
O425 C421 1.260 . S
C426 O417 1.240 . S
C426 O418 1.252 . S
O427 In416 2.294 . S
O427 C420 1.240 . S
O428 In416 2.326 . S
O428 C420 1.252 . S
In429 O430 2.294 . S
In429 O431 2.326 . S
In429 O435 2.266 . S
In429 O436 2.326 . S
In429 O437 2.266 . S
In429 O438 2.326 . S
In429 O440 2.294 . S
In429 O441 2.326 . S
O430 In429 2.294 . S
O430 C439 1.240 . S
O431 In429 2.326 . S
O431 C439 1.252 . S
C432 O435 1.252 . S
C432 O436 1.260 . S
C433 O440 1.240 . S
C433 O441 1.252 . S
C434 O437 1.252 . S
C434 O438 1.260 . S
O435 In429 2.266 . S
O435 C432 1.252 . S
O436 In429 2.326 . S
O436 C432 1.260 . S
O437 In429 2.266 . S
O437 C434 1.252 . S
O438 In429 2.326 . S
O438 C434 1.260 . S
C439 O430 1.240 . S
C439 O431 1.252 . S
O440 In429 2.294 . S
O440 C433 1.240 . S
O441 In429 2.326 . S
O441 C433 1.252 . S
In442 O443 2.294 . S
In442 O444 2.326 . S
In442 O448 2.266 . S
In442 O449 2.326 . S
In442 O450 2.266 . S
In442 O451 2.326 . S
In442 O453 2.294 . S
In442 O454 2.326 . S
O443 In442 2.294 . S
O443 C452 1.240 . S
O444 In442 2.326 . S
O444 C452 1.252 . S
C445 O448 1.252 . S
C445 O449 1.260 . S
C446 O453 1.240 . S
C446 O454 1.252 . S
C447 O450 1.252 . S
C447 O451 1.260 . S
O448 In442 2.266 . S
O448 C445 1.252 . S
O449 In442 2.326 . S
O449 C445 1.260 . S
O450 In442 2.266 . S
O450 C447 1.252 . S
O451 In442 2.326 . S
O451 C447 1.260 . S
C452 O443 1.240 . S
C452 O444 1.252 . S
O453 In442 2.294 . S
O453 C446 1.240 . S
O454 In442 2.326 . S
O454 C446 1.252 . S
In455 O456 2.294 . S
In455 O457 2.326 . S
In455 O461 2.266 . S
In455 O462 2.326 . S
In455 O463 2.266 . S
In455 O464 2.326 . S
In455 O466 2.294 . S
In455 O467 2.326 . S
O456 In455 2.294 . S
O456 C465 1.240 . S
O457 In455 2.326 . S
O457 C465 1.252 . S
C458 O461 1.252 . S
C458 O462 1.260 . S
C459 O466 1.240 . S
C459 O467 1.252 . S
C460 O463 1.252 . S
C460 O464 1.260 . S
O461 In455 2.266 . S
O461 C458 1.252 . S
O462 In455 2.326 . S
O462 C458 1.260 . S
O463 In455 2.266 . S
O463 C460 1.252 . S
O464 In455 2.326 . S
O464 C460 1.260 . S
C465 O456 1.240 . S
C465 O457 1.252 . S
O466 In455 2.294 . S
O466 C459 1.240 . S
O467 In455 2.326 . S
O467 C459 1.252 . S
H468 C474 0.930 . S
H469 C477 0.930 . S
H470 C478 0.930 . S
H471 C479 0.930 . S
H472 C482 0.930 . S
H473 C483 0.930 . S
C474 H468 0.930 . S
C474 C475 1.355 . S
C474 C476 1.415 . S
C475 C474 1.355 . S
C475 C477 1.419 . S
C476 C474 1.415 . S
C476 C481 1.425 . S
C476 C483 1.409 . S
C477 H469 0.930 . S
C477 C475 1.419 . S
C477 C478 1.362 . S
C478 H470 0.930 . S
C478 C477 1.362 . S
C478 C481 1.409 . S
C479 H471 0.930 . S
C479 C480 1.355 . S
C479 C481 1.415 1_655 S
C480 C479 1.355 . S
C480 C482 1.419 . S
C481 C476 1.425 . S
C481 C478 1.409 . S
C481 C479 1.415 1_455 S
C482 H472 0.930 . S
C482 C480 1.419 . S
C482 C483 1.362 1_655 S
C483 H473 0.930 . S
C483 C476 1.409 . S
C483 C482 1.362 1_455 S
H484 C490 0.930 . S
H485 C493 0.930 . S
H486 C494 0.930 . S
H487 C495 0.930 . S
H488 C498 0.930 . S
H489 C499 0.930 . S
C490 H484 0.930 . S
C490 C491 1.355 . S
C490 C492 1.415 . S
C491 C490 1.355 . S
C491 C493 1.419 . S
C492 C490 1.415 . S
C492 C497 1.425 . S
C492 C499 1.409 . S
C493 H485 0.930 . S
C493 C491 1.419 . S
C493 C494 1.362 . S
C494 H486 0.930 . S
C494 C493 1.362 . S
C494 C497 1.409 . S
C495 H487 0.930 . S
C495 C496 1.355 . S
C495 C497 1.415 . S
C496 C495 1.355 . S
C496 C498 1.419 . S
C497 C492 1.425 . S
C497 C494 1.409 . S
C497 C495 1.415 . S
C498 H488 0.930 . S
C498 C496 1.419 . S
C498 C499 1.362 . S
C499 H489 0.930 . S
C499 C492 1.409 . S
C499 C498 1.362 . S
H500 C506 0.930 . S
H501 C509 0.930 . S
H502 C510 0.930 . S
H503 C511 0.930 . S
H504 C514 0.930 . S
H505 C515 0.930 . S
C506 H500 0.930 . S
C506 C507 1.355 . S
C506 C508 1.415 1_545 S
C507 C506 1.355 . S
C507 C509 1.419 . S
C508 C506 1.415 1_565 S
C508 C513 1.425 . S
C508 C515 1.409 . S
C509 H501 0.930 . S
C509 C507 1.419 . S
C509 C510 1.362 1_545 S
C510 H502 0.930 . S
C510 C509 1.362 1_565 S
C510 C513 1.409 . S
C511 H503 0.930 . S
C511 C512 1.355 . S
C511 C513 1.415 . S
C512 C511 1.355 . S
C512 C514 1.419 . S
C513 C508 1.425 . S
C513 C510 1.409 . S
C513 C511 1.415 . S
C514 H504 0.930 . S
C514 C512 1.419 . S
C514 C515 1.362 . S
C515 H505 0.930 . S
C515 C508 1.409 . S
C515 C514 1.362 . S
H516 C522 0.930 . S
H517 C525 0.930 . S
H518 C526 0.930 . S
H519 C527 0.930 . S
H520 C530 0.930 . S
H521 C531 0.930 . S
C522 H516 0.930 . S
C522 C523 1.355 . S
C522 C524 1.415 . S
C523 C522 1.355 . S
C523 C525 1.419 . S
C524 C522 1.415 . S
C524 C529 1.425 . S
C524 C531 1.409 . S
C525 H517 0.930 . S
C525 C523 1.419 . S
C525 C526 1.362 . S
C526 H518 0.930 . S
C526 C525 1.362 . S
C526 C529 1.409 . S
C527 H519 0.930 . S
C527 C528 1.355 . S
C527 C529 1.415 1_565 S
C528 C527 1.355 . S
C528 C530 1.419 . S
C529 C524 1.425 . S
C529 C526 1.409 . S
C529 C527 1.415 1_545 S
C530 H520 0.930 . S
C530 C528 1.419 . S
C530 C531 1.362 1_565 S
C531 H521 0.930 . S
C531 C524 1.409 . S
C531 C530 1.362 1_545 S
H532 C538 0.930 . S
H533 C541 0.930 . S
H534 C542 0.930 . S
H535 C543 0.930 . S
H536 C546 0.930 . S
H537 C547 0.930 . S
C538 H532 0.930 . S
C538 C539 1.355 . S
C538 C540 1.415 . S
C539 C538 1.355 . S
C539 C541 1.419 . S
C540 C538 1.415 . S
C540 C545 1.425 . S
C540 C547 1.409 . S
C541 H533 0.930 . S
C541 C539 1.419 . S
C541 C542 1.362 . S
C542 H534 0.930 . S
C542 C541 1.362 . S
C542 C545 1.409 . S
C543 H535 0.930 . S
C543 C544 1.355 . S
C543 C545 1.415 1_455 S
C544 C543 1.355 . S
C544 C546 1.419 . S
C545 C540 1.425 . S
C545 C542 1.409 . S
C545 C543 1.415 1_655 S
C546 H536 0.930 . S
C546 C544 1.419 . S
C546 C547 1.362 1_455 S
C547 H537 0.930 . S
C547 C540 1.409 . S
C547 C546 1.362 1_655 S
H548 C554 0.930 . S
H549 C557 0.930 . S
H550 C558 0.930 . S
H551 C559 0.930 . S
H552 C562 0.930 . S
H553 C563 0.930 . S
C554 H548 0.930 . S
C554 C555 1.355 . S
C554 C556 1.415 . S
C555 C554 1.355 . S
C555 C557 1.419 . S
C556 C554 1.415 . S
C556 C561 1.425 . S
C556 C563 1.409 . S
C557 H549 0.930 . S
C557 C555 1.419 . S
C557 C558 1.362 . S
C558 H550 0.930 . S
C558 C557 1.362 . S
C558 C561 1.409 . S
C559 H551 0.930 . S
C559 C560 1.355 . S
C559 C561 1.415 . S
C560 C559 1.355 . S
C560 C562 1.419 . S
C561 C556 1.425 . S
C561 C558 1.409 . S
C561 C559 1.415 . S
C562 H552 0.930 . S
C562 C560 1.419 . S
C562 C563 1.362 . S
C563 H553 0.930 . S
C563 C556 1.409 . S
C563 C562 1.362 . S
H564 C570 0.930 . S
H565 C573 0.930 . S
H566 C574 0.930 . S
H567 C575 0.930 . S
H568 C578 0.930 . S
H569 C579 0.930 . S
C570 H564 0.930 . S
C570 C571 1.355 . S
C570 C572 1.415 . S
C571 C570 1.355 . S
C571 C573 1.419 . S
C572 C570 1.415 . S
C572 C577 1.425 . S
C572 C579 1.409 . S
C573 H565 0.930 . S
C573 C571 1.419 . S
C573 C574 1.362 . S
C574 H566 0.930 . S
C574 C573 1.362 . S
C574 C577 1.409 . S
C575 H567 0.930 . S
C575 C576 1.355 . S
C575 C577 1.415 1_455 S
C576 C575 1.355 . S
C576 C578 1.419 . S
C577 C572 1.425 . S
C577 C574 1.409 . S
C577 C575 1.415 1_655 S
C578 H568 0.930 . S
C578 C576 1.419 . S
C578 C579 1.362 1_455 S
C579 H569 0.930 . S
C579 C572 1.409 . S
C579 C578 1.362 1_655 S
H580 C586 0.930 . S
H581 C589 0.930 . S
H582 C590 0.930 . S
H583 C591 0.930 . S
H584 C594 0.930 . S
H585 C595 0.930 . S
C586 H580 0.930 . S
C586 C587 1.355 . S
C586 C588 1.415 . S
C587 C586 1.355 . S
C587 C589 1.419 . S
C588 C586 1.415 . S
C588 C593 1.425 . S
C588 C595 1.409 . S
C589 H581 0.930 . S
C589 C587 1.419 . S
C589 C590 1.362 . S
C590 H582 0.930 . S
C590 C589 1.362 . S
C590 C593 1.409 . S
C591 H583 0.930 . S
C591 C592 1.355 . S
C591 C593 1.415 . S
C592 C591 1.355 . S
C592 C594 1.419 . S
C593 C588 1.425 . S
C593 C590 1.409 . S
C593 C591 1.415 . S
C594 H584 0.930 . S
C594 C592 1.419 . S
C594 C595 1.362 . S
C595 H585 0.930 . S
C595 C588 1.409 . S
C595 C594 1.362 . S
H596 C602 0.930 . S
H597 C605 0.930 . S
H598 C606 0.930 . S
H599 C607 0.930 . S
H600 C610 0.930 . S
H601 C611 0.930 . S
C602 H596 0.930 . S
C602 C603 1.355 . S
C602 C604 1.415 1_565 S
C603 C602 1.355 . S
C603 C605 1.419 . S
C604 C602 1.415 1_545 S
C604 C609 1.425 . S
C604 C611 1.409 . S
C605 H597 0.930 . S
C605 C603 1.419 . S
C605 C606 1.362 1_565 S
C606 H598 0.930 . S
C606 C605 1.362 1_545 S
C606 C609 1.409 . S
C607 H599 0.930 . S
C607 C608 1.355 . S
C607 C609 1.415 . S
C608 C607 1.355 . S
C608 C610 1.419 . S
C609 C604 1.425 . S
C609 C606 1.409 . S
C609 C607 1.415 . S
C610 H600 0.930 . S
C610 C608 1.419 . S
C610 C611 1.362 . S
C611 H601 0.930 . S
C611 C604 1.409 . S
C611 C610 1.362 . S
H612 C618 0.930 . S
H613 C621 0.930 . S
H614 C622 0.930 . S
H615 C623 0.930 . S
H616 C626 0.930 . S
H617 C627 0.930 . S
C618 H612 0.930 . S
C618 C619 1.355 . S
C618 C620 1.415 1_545 S
C619 C618 1.355 . S
C619 C621 1.419 . S
C620 C618 1.415 1_565 S
C620 C625 1.425 . S
C620 C627 1.409 . S
C621 H613 0.930 . S
C621 C619 1.419 . S
C621 C622 1.362 1_545 S
C622 H614 0.930 . S
C622 C621 1.362 1_565 S
C622 C625 1.409 . S
C623 H615 0.930 . S
C623 C624 1.355 . S
C623 C625 1.415 . S
C624 C623 1.355 . S
C624 C626 1.419 . S
C625 C620 1.425 . S
C625 C622 1.409 . S
C625 C623 1.415 . S
C626 H616 0.930 . S
C626 C624 1.419 . S
C626 C627 1.362 . S
C627 H617 0.930 . S
C627 C620 1.409 . S
C627 C626 1.362 . S
H628 C634 0.930 . S
H629 C637 0.930 . S
H630 C638 0.930 . S
H631 C639 0.930 . S
H632 C642 0.930 . S
H633 C643 0.930 . S
C634 H628 0.930 . S
C634 C635 1.355 . S
C634 C636 1.415 . S
C635 C634 1.355 . S
C635 C637 1.419 . S
C636 C634 1.415 . S
C636 C641 1.425 . S
C636 C643 1.409 . S
C637 H629 0.930 . S
C637 C635 1.419 . S
C637 C638 1.362 . S
C638 H630 0.930 . S
C638 C637 1.362 . S
C638 C641 1.409 . S
C639 H631 0.930 . S
C639 C640 1.355 . S
C639 C641 1.415 1_655 S
C640 C639 1.355 . S
C640 C642 1.419 . S
C641 C636 1.425 . S
C641 C638 1.409 . S
C641 C639 1.415 1_455 S
C642 H632 0.930 . S
C642 C640 1.419 . S
C642 C643 1.362 1_655 S
C643 H633 0.930 . S
C643 C636 1.409 . S
C643 C642 1.362 1_455 S
H644 C650 0.930 . S
H645 C653 0.930 . S
H646 C654 0.930 . S
H647 C655 0.930 . S
H648 C658 0.930 . S
H649 C659 0.930 . S
C650 H644 0.930 . S
C650 C651 1.355 . S
C650 C652 1.415 . S
C651 C650 1.355 . S
C651 C653 1.419 . S
C652 C650 1.415 . S
C652 C657 1.425 . S
C652 C659 1.409 . S
C653 H645 0.930 . S
C653 C651 1.419 . S
C653 C654 1.362 . S
C654 H646 0.930 . S
C654 C653 1.362 . S
C654 C657 1.409 . S
C655 H647 0.930 . S
C655 C656 1.355 . S
C655 C657 1.415 . S
C656 C655 1.355 . S
C656 C658 1.419 . S
C657 C652 1.425 . S
C657 C654 1.409 . S
C657 C655 1.415 . S
C658 H648 0.930 . S
C658 C656 1.419 . S
C658 C659 1.362 . S
C659 H649 0.930 . S
C659 C652 1.409 . S
C659 C658 1.362 . S
H660 C666 0.930 . S
H661 C669 0.930 . S
H662 C670 0.930 . S
H663 C671 0.930 . S
H664 C674 0.930 . S
H665 C675 0.930 . S
C666 H660 0.930 . S
C666 C667 1.355 . S
C666 C668 1.415 . S
C667 C666 1.355 . S
C667 C669 1.419 . S
C668 C666 1.415 . S
C668 C673 1.425 . S
C668 C675 1.409 . S
C669 H661 0.930 . S
C669 C667 1.419 . S
C669 C670 1.362 . S
C670 H662 0.930 . S
C670 C669 1.362 . S
C670 C673 1.409 . S
C671 H663 0.930 . S
C671 C672 1.355 . S
C671 C673 1.415 . S
C672 C671 1.355 . S
C672 C674 1.419 . S
C673 C668 1.425 . S
C673 C670 1.409 . S
C673 C671 1.415 . S
C674 H664 0.930 . S
C674 C672 1.419 . S
C674 C675 1.362 . S
C675 H665 0.930 . S
C675 C668 1.409 . S
C675 C674 1.362 . S
H676 C682 0.930 . S
H677 C685 0.930 . S
H678 C686 0.930 . S
H679 C687 0.930 . S
H680 C690 0.930 . S
H681 C691 0.930 . S
C682 H676 0.930 . S
C682 C683 1.355 . S
C682 C684 1.415 . S
C683 C682 1.355 . S
C683 C685 1.419 . S
C684 C682 1.415 . S
C684 C689 1.425 . S
C684 C691 1.409 . S
C685 H677 0.930 . S
C685 C683 1.419 . S
C685 C686 1.362 . S
C686 H678 0.930 . S
C686 C685 1.362 . S
C686 C689 1.409 . S
C687 H679 0.930 . S
C687 C688 1.355 . S
C687 C689 1.415 . S
C688 C687 1.355 . S
C688 C690 1.419 . S
C689 C684 1.425 . S
C689 C686 1.409 . S
C689 C687 1.415 . S
C690 H680 0.930 . S
C690 C688 1.419 . S
C690 C691 1.362 . S
C691 H681 0.930 . S
C691 C684 1.409 . S
C691 C690 1.362 . S
H692 C698 0.930 . S
H693 C701 0.930 . S
H694 C702 0.930 . S
H695 C703 0.930 . S
H696 C706 0.930 . S
H697 C707 0.930 . S
C698 H692 0.930 . S
C698 C699 1.355 . S
C698 C700 1.415 . S
C699 C698 1.355 . S
C699 C701 1.419 . S
C700 C698 1.415 . S
C700 C705 1.425 . S
C700 C707 1.409 . S
C701 H693 0.930 . S
C701 C699 1.419 . S
C701 C702 1.362 . S
C702 H694 0.930 . S
C702 C701 1.362 . S
C702 C705 1.409 . S
C703 H695 0.930 . S
C703 C704 1.355 . S
C703 C705 1.415 . S
C704 C703 1.355 . S
C704 C706 1.419 . S
C705 C700 1.425 . S
C705 C702 1.409 . S
C705 C703 1.415 . S
C706 H696 0.930 . S
C706 C704 1.419 . S
C706 C707 1.362 . S
C707 H697 0.930 . S
C707 C700 1.409 . S
C707 C706 1.362 . S
H708 C714 0.930 . S
H709 C717 0.930 . S
H710 C718 0.930 . S
H711 C719 0.930 . S
H712 C722 0.930 . S
H713 C723 0.930 . S
C714 H708 0.930 . S
C714 C715 1.355 . S
C714 C716 1.415 . S
C715 C714 1.355 . S
C715 C717 1.419 . S
C716 C714 1.415 . S
C716 C721 1.425 . S
C716 C723 1.409 . S
C717 H709 0.930 . S
C717 C715 1.419 . S
C717 C718 1.362 . S
C718 H710 0.930 . S
C718 C717 1.362 . S
C718 C721 1.409 . S
C719 H711 0.930 . S
C719 C720 1.355 . S
C719 C721 1.415 . S
C720 C719 1.355 . S
C720 C722 1.419 . S
C721 C716 1.425 . S
C721 C718 1.409 . S
C721 C719 1.415 . S
C722 H712 0.930 . S
C722 C720 1.419 . S
C722 C723 1.362 . S
C723 H713 0.930 . S
C723 C716 1.409 . S
C723 C722 1.362 . S
H724 C730 0.930 . S
H725 C733 0.930 . S
H726 C734 0.930 . S
H727 C735 0.930 . S
H728 C738 0.930 . S
H729 C739 0.930 . S
C730 H724 0.930 . S
C730 C731 1.355 . S
C730 C732 1.415 . S
C731 C730 1.355 . S
C731 C733 1.419 . S
C732 C730 1.415 . S
C732 C737 1.425 . S
C732 C739 1.409 . S
C733 H725 0.930 . S
C733 C731 1.419 . S
C733 C734 1.362 . S
C734 H726 0.930 . S
C734 C733 1.362 . S
C734 C737 1.409 . S
C735 H727 0.930 . S
C735 C736 1.355 . S
C735 C737 1.415 . S
C736 C735 1.355 . S
C736 C738 1.419 . S
C737 C732 1.425 . S
C737 C734 1.409 . S
C737 C735 1.415 . S
C738 H728 0.930 . S
C738 C736 1.419 . S
C738 C739 1.362 . S
C739 H729 0.930 . S
C739 C732 1.409 . S
C739 C738 1.362 . S
H740 C746 0.930 . S
H741 C749 0.930 . S
H742 C750 0.930 . S
H743 C751 0.930 . S
H744 C754 0.930 . S
H745 C755 0.930 . S
C746 H740 0.930 . S
C746 C747 1.355 . S
C746 C748 1.415 . S
C747 C746 1.355 . S
C747 C749 1.419 . S
C748 C746 1.415 . S
C748 C753 1.425 . S
C748 C755 1.409 . S
C749 H741 0.930 . S
C749 C747 1.419 . S
C749 C750 1.362 . S
C750 H742 0.930 . S
C750 C749 1.362 . S
C750 C753 1.409 . S
C751 H743 0.930 . S
C751 C752 1.355 . S
C751 C753 1.415 . S
C752 C751 1.355 . S
C752 C754 1.419 . S
C753 C748 1.425 . S
C753 C750 1.409 . S
C753 C751 1.415 . S
C754 H744 0.930 . S
C754 C752 1.419 . S
C754 C755 1.362 . S
C755 H745 0.930 . S
C755 C748 1.409 . S
C755 C754 1.362 . S
H756 C762 0.930 . S
H757 C765 0.930 . S
H758 C766 0.930 . S
H759 C767 0.930 . S
H760 C770 0.930 . S
H761 C771 0.930 . S
C762 H756 0.930 . S
C762 C763 1.355 . S
C762 C764 1.415 . S
C763 C762 1.355 . S
C763 C765 1.419 . S
C764 C762 1.415 . S
C764 C769 1.425 . S
C764 C771 1.409 . S
C765 H757 0.930 . S
C765 C763 1.419 . S
C765 C766 1.362 . S
C766 H758 0.930 . S
C766 C765 1.362 . S
C766 C769 1.409 . S
C767 H759 0.930 . S
C767 C768 1.355 . S
C767 C769 1.415 . S
C768 C767 1.355 . S
C768 C770 1.419 . S
C769 C764 1.425 . S
C769 C766 1.409 . S
C769 C767 1.415 . S
C770 H760 0.930 . S
C770 C768 1.419 . S
C770 C771 1.362 . S
C771 H761 0.930 . S
C771 C764 1.409 . S
C771 C770 1.362 . S
H772 C778 0.930 . S
H773 C781 0.930 . S
H774 C782 0.930 . S
H775 C783 0.930 . S
H776 C786 0.930 . S
H777 C787 0.930 . S
C778 H772 0.930 . S
C778 C779 1.355 . S
C778 C780 1.415 . S
C779 C778 1.355 . S
C779 C781 1.419 . S
C780 C778 1.415 . S
C780 C785 1.425 . S
C780 C787 1.409 . S
C781 H773 0.930 . S
C781 C779 1.419 . S
C781 C782 1.362 . S
C782 H774 0.930 . S
C782 C781 1.362 . S
C782 C785 1.409 . S
C783 H775 0.930 . S
C783 C784 1.355 . S
C783 C785 1.415 . S
C784 C783 1.355 . S
C784 C786 1.419 . S
C785 C780 1.425 . S
C785 C782 1.409 . S
C785 C783 1.415 . S
C786 H776 0.930 . S
C786 C784 1.419 . S
C786 C787 1.362 . S
C787 H777 0.930 . S
C787 C780 1.409 . S
C787 C786 1.362 . S
H788 C794 0.930 . S
H789 C797 0.930 . S
H790 C798 0.930 . S
H791 C799 0.930 . S
H792 C802 0.930 . S
H793 C803 0.930 . S
C794 H788 0.930 . S
C794 C795 1.355 . S
C794 C796 1.415 . S
C795 C794 1.355 . S
C795 C797 1.419 . S
C796 C794 1.415 . S
C796 C801 1.425 . S
C796 C803 1.409 . S
C797 H789 0.930 . S
C797 C795 1.419 . S
C797 C798 1.362 . S
C798 H790 0.930 . S
C798 C797 1.362 . S
C798 C801 1.409 . S
C799 H791 0.930 . S
C799 C800 1.355 . S
C799 C801 1.415 . S
C800 C799 1.355 . S
C800 C802 1.419 . S
C801 C796 1.425 . S
C801 C798 1.409 . S
C801 C799 1.415 . S
C802 H792 0.930 . S
C802 C800 1.419 . S
C802 C803 1.362 . S
C803 H793 0.930 . S
C803 C796 1.409 . S
C803 C802 1.362 . S
H804 C810 0.930 1_554 S
H805 C813 0.930 . S
H806 C814 0.930 . S
H807 C815 0.930 . S
H808 C818 0.929 1_554 S
H809 C819 0.930 . S
C810 H804 0.930 1_556 S
C810 C811 1.355 . S
C810 C812 1.415 . S
C811 C810 1.355 . S
C811 C813 1.419 . S
C812 C810 1.415 . S
C812 C817 1.425 . S
C812 C819 1.409 1_556 S
C813 H805 0.930 . S
C813 C811 1.419 . S
C813 C814 1.362 . S
C814 H806 0.930 . S
C814 C813 1.362 . S
C814 C817 1.409 . S
C815 H807 0.930 . S
C815 C816 1.355 . S
C815 C817 1.415 . S
C816 C815 1.355 . S
C816 C818 1.421 . S
C817 C812 1.425 . S
C817 C814 1.409 . S
C817 C815 1.415 . S
C818 H808 0.929 1_556 S
C818 C816 1.421 . S
C818 C819 1.362 1_556 S
C819 H809 0.930 . S
C819 C812 1.409 1_554 S
C819 C818 1.362 1_554 S
H820 C826 0.930 1_554 S
H821 C829 0.930 . S
H822 C830 0.930 . S
H823 C831 0.930 . S
H824 C834 0.930 . S
H825 C835 0.930 . S
C826 H820 0.930 1_556 S
C826 C827 1.355 . S
C826 C828 1.415 . S
C827 C826 1.355 . S
C827 C829 1.419 . S
C828 C826 1.415 . S
C828 C833 1.425 . S
C828 C835 1.409 1_556 S
C829 H821 0.930 . S
C829 C827 1.419 . S
C829 C830 1.362 . S
C830 H822 0.930 . S
C830 C829 1.362 . S
C830 C833 1.409 . S
C831 H823 0.930 . S
C831 C832 1.355 . S
C831 C833 1.415 . S
C832 C831 1.355 . S
C832 C834 1.419 1_556 S
C833 C828 1.425 . S
C833 C830 1.409 . S
C833 C831 1.415 . S
C834 H824 0.930 . S
C834 C832 1.419 1_554 S
C834 C835 1.362 . S
C835 H825 0.930 . S
C835 C828 1.409 1_554 S
C835 C834 1.362 . S
H836 C842 0.930 . S
H837 C845 0.930 . S
H838 C846 0.930 . S
H839 C847 0.930 . S
H840 C850 0.930 1_554 S
H841 C851 0.930 1_554 S
C842 H836 0.930 . S
C842 C843 1.355 . S
C842 C844 1.415 . S
C843 C842 1.355 . S
C843 C845 1.419 . S
C844 C842 1.415 . S
C844 C849 1.425 . S
C844 C851 1.409 . S
C845 H837 0.930 . S
C845 C843 1.419 . S
C845 C846 1.362 . S
C846 H838 0.930 . S
C846 C845 1.362 . S
C846 C849 1.409 . S
C847 H839 0.930 . S
C847 C848 1.355 . S
C847 C849 1.415 . S
C848 C847 1.355 . S
C848 C850 1.419 . S
C849 C844 1.425 . S
C849 C846 1.409 . S
C849 C847 1.415 . S
C850 H840 0.930 1_556 S
C850 C848 1.419 . S
C850 C851 1.362 . S
C851 H841 0.930 1_556 S
C851 C844 1.409 . S
C851 C850 1.362 . S
H852 C858 0.930 . S
H853 C861 0.930 . S
H854 C862 0.930 . S
H855 C863 0.930 . S
H856 C866 0.930 . S
H857 C867 0.930 . S
C858 H852 0.930 . S
C858 C859 1.355 . S
C858 C860 1.415 . S
C859 C858 1.355 . S
C859 C861 1.419 . S
C860 C858 1.415 . S
C860 C865 1.425 . S
C860 C867 1.409 . S
C861 H853 0.930 . S
C861 C859 1.419 . S
C861 C862 1.362 . S
C862 H854 0.930 . S
C862 C861 1.362 . S
C862 C865 1.409 . S
C863 H855 0.930 . S
C863 C864 1.355 . S
C863 C865 1.415 . S
C864 C863 1.355 . S
C864 C866 1.419 . S
C865 C860 1.425 . S
C865 C862 1.409 . S
C865 C863 1.415 . S
C866 H856 0.930 . S
C866 C864 1.419 . S
C866 C867 1.362 . S
C867 H857 0.930 . S
C867 C860 1.409 . S
C867 C866 1.362 . S
H868 C874 0.930 . S
H869 C877 0.930 . S
H870 C878 0.930 . S
H871 C879 0.930 . S
H872 C882 0.930 . S
H873 C883 0.930 . S
C874 H868 0.930 . S
C874 C875 1.355 . S
C874 C876 1.415 . S
C875 C874 1.355 . S
C875 C877 1.419 . S
C876 C874 1.415 . S
C876 C881 1.425 . S
C876 C883 1.409 . S
C877 H869 0.930 . S
C877 C875 1.419 . S
C877 C878 1.362 . S
C878 H870 0.930 . S
C878 C877 1.362 . S
C878 C881 1.409 . S
C879 H871 0.930 . S
C879 C880 1.355 . S
C879 C881 1.415 . S
C880 C879 1.355 . S
C880 C882 1.419 . S
C881 C876 1.425 . S
C881 C878 1.409 . S
C881 C879 1.415 . S
C882 H872 0.930 . S
C882 C880 1.419 . S
C882 C883 1.362 . S
C883 H873 0.930 . S
C883 C876 1.409 . S
C883 C882 1.362 . S
H884 C890 0.930 . S
H885 C893 0.930 . S
H886 C894 0.930 . S
H887 C895 0.930 . S
H888 C898 0.930 . S
H889 C899 0.930 . S
C890 H884 0.930 . S
C890 C891 1.355 . S
C890 C892 1.415 . S
C891 C890 1.355 . S
C891 C893 1.419 . S
C892 C890 1.415 . S
C892 C897 1.425 . S
C892 C899 1.409 . S
C893 H885 0.930 . S
C893 C891 1.419 . S
C893 C894 1.362 . S
C894 H886 0.930 . S
C894 C893 1.362 . S
C894 C897 1.409 . S
C895 H887 0.930 . S
C895 C896 1.355 . S
C895 C897 1.415 . S
C896 C895 1.355 . S
C896 C898 1.419 . S
C897 C892 1.425 . S
C897 C894 1.409 . S
C897 C895 1.415 . S
C898 H888 0.930 . S
C898 C896 1.419 . S
C898 C899 1.362 . S
C899 H889 0.930 . S
C899 C892 1.409 . S
C899 C898 1.362 . S
H900 C906 0.930 . S
H901 C909 0.930 . S
H902 C910 0.930 . S
H903 C911 0.930 1_556 S
H904 C914 0.930 . S
H905 C915 0.930 . S
C906 H900 0.930 . S
C906 C907 1.355 . S
C906 C908 1.415 . S
C907 C906 1.355 . S
C907 C909 1.419 1_554 S
C908 C906 1.415 . S
C908 C913 1.425 . S
C908 C915 1.409 . S
C909 H901 0.930 . S
C909 C907 1.419 1_556 S
C909 C910 1.362 . S
C910 H902 0.930 . S
C910 C909 1.362 . S
C910 C913 1.409 1_556 S
C911 H903 0.930 1_554 S
C911 C912 1.355 . S
C911 C913 1.415 . S
C912 C911 1.355 . S
C912 C914 1.419 . S
C913 C908 1.425 . S
C913 C910 1.409 1_554 S
C913 C911 1.415 . S
C914 H904 0.930 . S
C914 C912 1.419 . S
C914 C915 1.362 . S
C915 H905 0.930 . S
C915 C908 1.409 . S
C915 C914 1.362 . S
H916 C922 0.930 . S
H917 C925 0.930 . S
H918 C926 0.930 . S
H919 C927 0.930 . S
H920 C930 0.930 . S
H921 C931 0.930 . S
C922 H916 0.930 . S
C922 C923 1.355 . S
C922 C924 1.415 . S
C923 C922 1.355 . S
C923 C925 1.419 . S
C924 C922 1.415 . S
C924 C929 1.425 . S
C924 C931 1.409 . S
C925 H917 0.930 . S
C925 C923 1.419 . S
C925 C926 1.362 . S
C926 H918 0.930 . S
C926 C925 1.362 . S
C926 C929 1.409 . S
C927 H919 0.930 . S
C927 C928 1.355 . S
C927 C929 1.415 . S
C928 C927 1.355 . S
C928 C930 1.419 . S
C929 C924 1.425 . S
C929 C926 1.409 . S
C929 C927 1.415 . S
C930 H920 0.930 . S
C930 C928 1.419 . S
C930 C931 1.362 . S
C931 H921 0.930 . S
C931 C924 1.409 . S
C931 C930 1.362 . S
H932 C938 0.930 . S
H933 C941 0.930 . S
H934 C942 0.930 . S
H935 C943 0.930 . S
H936 C946 0.930 . S
H937 C947 0.950 . S
C938 H932 0.930 . S
C938 C939 1.355 . S
C938 C940 1.415 . S
C939 C938 1.355 . S
C939 C941 1.419 . S
C940 C938 1.415 . S
C940 C945 1.425 . S
C940 C947 1.409 . S
C941 H933 0.930 . S
C941 C939 1.419 . S
C941 C942 1.362 . S
C942 H934 0.930 . S
C942 C941 1.362 . S
C942 C945 1.409 . S
C943 H935 0.930 . S
C943 C944 1.355 . S
C943 C945 1.415 . S
C944 C943 1.355 . S
C944 C946 1.419 . S
C945 C940 1.425 . S
C945 C942 1.409 . S
C945 C943 1.415 . S
C946 H936 0.930 . S
C946 C944 1.419 . S
C946 C947 1.362 . S
C947 H937 0.950 . S
C947 C940 1.409 . S
C947 C946 1.362 . S
H948 C954 0.930 . S
H949 C957 0.930 . S
H950 C958 0.930 . S
H951 C959 0.930 . S
H952 C962 0.930 . S
H953 C963 0.930 . S
C954 H948 0.930 . S
C954 C955 1.355 . S
C954 C956 1.415 . S
C955 C954 1.355 . S
C955 C957 1.419 . S
C956 C954 1.415 . S
C956 C961 1.425 . S
C956 C963 1.409 . S
C957 H949 0.930 . S
C957 C955 1.419 . S
C957 C958 1.362 . S
C958 H950 0.930 . S
C958 C957 1.362 . S
C958 C961 1.409 . S
C959 H951 0.930 . S
C959 C960 1.355 . S
C959 C961 1.415 . S
C960 C959 1.355 . S
C960 C962 1.419 . S
C961 C956 1.425 . S
C961 C958 1.409 . S
C961 C959 1.415 . S
C962 H952 0.930 . S
C962 C960 1.419 . S
C962 C963 1.362 . S
C963 H953 0.930 . S
C963 C956 1.409 . S
C963 C962 1.362 . S
H964 C970 0.930 . S
H965 C973 0.930 . S
H966 C974 0.930 . S
H967 C975 0.930 . S
H968 C978 0.930 . S
H969 C979 0.930 . S
C970 H964 0.930 . S
C970 C971 1.355 . S
C970 C972 1.415 . S
C971 C970 1.355 . S
C971 C973 1.419 . S
C972 C970 1.415 . S
C972 C977 1.425 . S
C972 C979 1.409 . S
C973 H965 0.930 . S
C973 C971 1.419 . S
C973 C974 1.362 . S
C974 H966 0.930 . S
C974 C973 1.362 . S
C974 C977 1.409 . S
C975 H967 0.930 . S
C975 C976 1.355 . S
C975 C977 1.415 . S
C976 C975 1.355 . S
C976 C978 1.419 . S
C977 C972 1.425 . S
C977 C974 1.409 . S
C977 C975 1.415 . S
C978 H968 0.930 . S
C978 C976 1.419 . S
C978 C979 1.362 . S
C979 H969 0.930 . S
C979 C972 1.409 . S
C979 C978 1.362 . S
H980 C986 0.930 . S
H981 C989 0.930 . S
H982 C990 0.930 . S
H983 C991 0.930 . S
H984 C994 0.930 . S
H985 C995 0.930 . S
C986 H980 0.930 . S
C986 C987 1.355 . S
C986 C988 1.415 . S
C987 C986 1.355 . S
C987 C989 1.419 . S
C988 C986 1.415 . S
C988 C993 1.425 . S
C988 C995 1.409 . S
C989 H981 0.930 . S
C989 C987 1.419 . S
C989 C990 1.362 . S
C990 H982 0.930 . S
C990 C989 1.362 . S
C990 C993 1.409 . S
C991 H983 0.930 . S
C991 C992 1.355 . S
C991 C993 1.415 . S
C992 C991 1.355 . S
C992 C994 1.419 . S
C993 C988 1.425 . S
C993 C990 1.409 . S
C993 C991 1.415 . S
C994 H984 0.930 . S
C994 C992 1.419 . S
C994 C995 1.362 . S
C995 H985 0.930 . S
C995 C988 1.409 . S
C995 C994 1.362 . S
H996 C1002 0.930 . S
H997 C1005 0.930 . S
H998 C1006 0.930 . S
H999 C1007 0.930 . S
H1000 C1010 0.930 . S
H1001 C1011 0.930 . S
C1002 H996 0.930 . S
C1002 C1003 1.355 . S
C1002 C1004 1.415 . S
C1003 C1002 1.355 . S
C1003 C1005 1.419 . S
C1004 C1002 1.415 . S
C1004 C1009 1.425 . S
C1004 C1011 1.409 . S
C1005 H997 0.930 . S
C1005 C1003 1.419 . S
C1005 C1006 1.362 . S
C1006 H998 0.930 . S
C1006 C1005 1.362 . S
C1006 C1009 1.409 . S
C1007 H999 0.930 . S
C1007 C1008 1.355 . S
C1007 C1009 1.415 . S
C1008 C1007 1.355 . S
C1008 C1010 1.419 . S
C1009 C1004 1.425 . S
C1009 C1006 1.409 . S
C1009 C1007 1.415 . S
C1010 H1000 0.930 . S
C1010 C1008 1.419 . S
C1010 C1011 1.362 . S
C1011 H1001 0.930 . S
C1011 C1004 1.409 . S
C1011 C1010 1.362 . S
H1012 C1018 0.930 . S
H1013 C1021 0.930 . S
H1014 C1022 0.930 . S
H1015 C1023 0.930 . S
H1016 C1026 0.930 . S
H1017 C1027 0.930 . S
C1018 H1012 0.930 . S
C1018 C1019 1.355 . S
C1018 C1020 1.415 . S
C1019 C1018 1.355 . S
C1019 C1021 1.419 . S
C1020 C1018 1.415 . S
C1020 C1025 1.425 . S
C1020 C1027 1.409 . S
C1021 H1013 0.930 . S
C1021 C1019 1.419 . S
C1021 C1022 1.362 . S
C1022 H1014 0.930 . S
C1022 C1021 1.362 . S
C1022 C1025 1.409 . S
C1023 H1015 0.930 . S
C1023 C1024 1.355 . S
C1023 C1025 1.415 . S
C1024 C1023 1.355 . S
C1024 C1026 1.419 . S
C1025 C1020 1.425 . S
C1025 C1022 1.409 . S
C1025 C1023 1.415 . S
C1026 H1016 0.930 . S
C1026 C1024 1.419 . S
C1026 C1027 1.362 . S
C1027 H1017 0.930 . S
C1027 C1020 1.409 . S
C1027 C1026 1.362 . S
H1028 C1034 0.930 . S
H1029 C1037 0.930 . S
H1030 C1038 0.930 . S
H1031 C1039 0.930 . S
H1032 C1042 0.930 . S
H1033 C1043 0.930 . S
C1034 H1028 0.930 . S
C1034 C1035 1.355 . S
C1034 C1036 1.415 . S
C1035 C1034 1.355 . S
C1035 C1037 1.419 . S
C1036 C1034 1.415 . S
C1036 C1041 1.425 . S
C1036 C1043 1.409 . S
C1037 H1029 0.930 . S
C1037 C1035 1.419 . S
C1037 C1038 1.362 . S
C1038 H1030 0.930 . S
C1038 C1037 1.362 . S
C1038 C1041 1.409 . S
C1039 H1031 0.930 . S
C1039 C1040 1.355 . S
C1039 C1041 1.415 . S
C1040 C1039 1.355 . S
C1040 C1042 1.419 . S
C1041 C1036 1.425 . S
C1041 C1038 1.409 . S
C1041 C1039 1.415 . S
C1042 H1032 0.930 . S
C1042 C1040 1.419 . S
C1042 C1043 1.362 . S
C1043 H1033 0.930 . S
C1043 C1036 1.409 . S
C1043 C1042 1.362 . S
H1044 C1050 0.930 . S
H1045 C1053 0.930 . S
H1046 C1054 0.930 . S
H1047 C1055 0.930 . S
H1048 C1058 0.930 . S
H1049 C1059 0.930 . S
C1050 H1044 0.930 . S
C1050 C1051 1.355 . S
C1050 C1052 1.415 . S
C1051 C1050 1.355 . S
C1051 C1053 1.419 . S
C1052 C1050 1.415 . S
C1052 C1057 1.425 . S
C1052 C1059 1.409 . S
C1053 H1045 0.930 . S
C1053 C1051 1.419 . S
C1053 C1054 1.362 . S
C1054 H1046 0.930 . S
C1054 C1053 1.362 . S
C1054 C1057 1.409 . S
C1055 H1047 0.930 . S
C1055 C1056 1.355 . S
C1055 C1057 1.415 . S
C1056 C1055 1.355 . S
C1056 C1058 1.419 . S
C1057 C1052 1.425 . S
C1057 C1054 1.409 . S
C1057 C1055 1.415 . S
C1058 H1048 0.930 . S
C1058 C1056 1.419 . S
C1058 C1059 1.362 . S
C1059 H1049 0.930 . S
C1059 C1052 1.409 . S
C1059 C1058 1.362 . S
H1060 C1066 0.930 . S
H1061 C1069 0.930 . S
H1062 C1070 0.930 . S
H1063 C1071 0.930 . S
H1064 C1074 0.930 . S
H1065 C1075 0.930 . S
C1066 H1060 0.930 . S
C1066 C1067 1.355 . S
C1066 C1068 1.415 . S
C1067 C1066 1.355 . S
C1067 C1069 1.419 1_545 S
C1068 C1066 1.415 . S
C1068 C1073 1.425 1_545 S
C1068 C1075 1.409 . S
C1069 H1061 0.930 . S
C1069 C1067 1.419 1_565 S
C1069 C1070 1.362 . S
C1070 H1062 0.930 . S
C1070 C1069 1.362 . S
C1070 C1073 1.409 . S
C1071 H1063 0.930 . S
C1071 C1072 1.338 1_565 S
C1071 C1073 1.415 . S
C1072 C1071 1.338 1_545 S
C1072 C1074 1.442 . S
C1073 C1068 1.425 1_565 S
C1073 C1070 1.409 . S
C1073 C1071 1.415 . S
C1074 H1064 0.930 . S
C1074 C1072 1.442 . S
C1074 C1075 1.362 . S
C1075 H1065 0.930 . S
C1075 C1068 1.409 . S
C1075 C1074 1.362 . S
H1076 C1082 0.930 . S
H1077 C1085 0.930 . S
H1078 C1086 0.930 . S
H1079 C1087 0.930 . S
H1080 C1090 0.930 . S
H1081 C1091 0.930 . S
C1082 H1076 0.930 . S
C1082 C1083 1.338 1_455 S
C1082 C1084 1.415 . S
C1083 C1082 1.338 1_655 S
C1083 C1085 1.444 . S
C1084 C1082 1.415 . S
C1084 C1089 1.425 1_455 S
C1084 C1091 1.409 . S
C1085 H1077 0.930 . S
C1085 C1083 1.444 . S
C1085 C1086 1.362 . S
C1086 H1078 0.930 . S
C1086 C1085 1.362 . S
C1086 C1089 1.409 . S
C1087 H1079 0.930 . S
C1087 C1088 1.355 . S
C1087 C1089 1.415 . S
C1088 C1087 1.355 . S
C1088 C1090 1.419 1_655 S
C1089 C1084 1.425 1_655 S
C1089 C1086 1.409 . S
C1089 C1087 1.415 . S
C1090 H1080 0.930 . S
C1090 C1088 1.419 1_455 S
C1090 C1091 1.362 . S
C1091 H1081 0.930 . S
C1091 C1084 1.409 . S
C1091 C1090 1.362 . S
H1092 C1098 0.930 . S
H1093 C1101 0.930 . S
H1094 C1102 0.930 . S
H1095 C1103 0.930 . S
H1096 C1106 0.930 . S
H1097 C1107 0.930 . S
C1098 H1092 0.930 . S
C1098 C1099 1.355 . S
C1098 C1100 1.415 . S
C1099 C1098 1.355 . S
C1099 C1101 1.419 . S
C1100 C1098 1.415 . S
C1100 C1105 1.425 . S
C1100 C1107 1.409 . S
C1101 H1093 0.930 . S
C1101 C1099 1.419 . S
C1101 C1102 1.362 . S
C1102 H1094 0.930 . S
C1102 C1101 1.362 . S
C1102 C1105 1.409 . S
C1103 H1095 0.930 . S
C1103 C1104 1.355 . S
C1103 C1105 1.415 . S
C1104 C1103 1.355 . S
C1104 C1106 1.419 . S
C1105 C1100 1.425 . S
C1105 C1102 1.409 . S
C1105 C1103 1.415 . S
C1106 H1096 0.930 . S
C1106 C1104 1.419 . S
C1106 C1107 1.362 . S
C1107 H1097 0.930 . S
C1107 C1100 1.409 . S
C1107 C1106 1.362 . S
H1108 C1114 0.930 . S
H1109 C1117 0.930 . S
H1110 C1118 0.930 . S
H1111 C1119 0.930 . S
H1112 C1122 0.930 . S
H1113 C1123 0.930 . S
C1114 H1108 0.930 . S
C1114 C1115 1.355 1_545 S
C1114 C1116 1.415 . S
C1115 C1114 1.355 1_565 S
C1115 C1117 1.419 . S
C1116 C1114 1.415 . S
C1116 C1121 1.425 1_545 S
C1116 C1123 1.409 . S
C1117 H1109 0.930 . S
C1117 C1115 1.419 . S
C1117 C1118 1.362 . S
C1118 H1110 0.930 . S
C1118 C1117 1.362 . S
C1118 C1121 1.409 . S
C1119 H1111 0.930 . S
C1119 C1120 1.355 1_565 S
C1119 C1121 1.415 . S
C1120 C1119 1.355 1_545 S
C1120 C1122 1.419 . S
C1121 C1116 1.425 1_565 S
C1121 C1118 1.409 . S
C1121 C1119 1.415 . S
C1122 H1112 0.930 . S
C1122 C1120 1.419 . S
C1122 C1123 1.362 . S
C1123 H1113 0.930 . S
C1123 C1116 1.409 . S
C1123 C1122 1.362 . S
H1124 C1130 0.930 . S
H1125 C1133 0.930 . S
H1126 C1134 0.930 . S
H1127 C1135 0.930 1_655 S
H1128 C1138 0.930 . S
H1129 C1139 0.930 . S
C1130 H1124 0.930 . S
C1130 C1131 1.355 1_455 S
C1130 C1132 1.415 . S
C1131 C1130 1.355 1_655 S
C1131 C1133 1.419 . S
C1132 C1130 1.415 . S
C1132 C1137 1.425 1_455 S
C1132 C1139 1.409 . S
C1133 H1125 0.930 . S
C1133 C1131 1.419 . S
C1133 C1134 1.362 . S
C1134 H1126 0.930 . S
C1134 C1133 1.362 . S
C1134 C1137 1.409 . S
C1135 H1127 0.930 1_455 S
C1135 C1136 1.355 . S
C1135 C1137 1.415 1_455 S
C1136 C1135 1.355 . S
C1136 C1138 1.419 . S
C1137 C1132 1.425 1_655 S
C1137 C1134 1.409 . S
C1137 C1135 1.415 1_655 S
C1138 H1128 0.930 . S
C1138 C1136 1.419 . S
C1138 C1139 1.362 . S
C1139 H1129 0.930 . S
C1139 C1132 1.409 . S
C1139 C1138 1.362 . S
H1140 C1146 0.930 . S
H1141 C1149 0.930 . S
H1142 C1150 0.930 . S
H1143 C1151 0.930 . S
H1144 C1154 0.930 . S
H1145 C1155 0.930 . S
C1146 H1140 0.930 . S
C1146 C1147 1.355 . S
C1146 C1148 1.415 . S
C1147 C1146 1.355 . S
C1147 C1149 1.419 . S
C1148 C1146 1.415 . S
C1148 C1153 1.425 . S
C1148 C1155 1.409 . S
C1149 H1141 0.930 . S
C1149 C1147 1.419 . S
C1149 C1150 1.362 . S
C1150 H1142 0.930 . S
C1150 C1149 1.362 . S
C1150 C1153 1.409 . S
C1151 H1143 0.930 . S
C1151 C1152 1.355 . S
C1151 C1153 1.415 . S
C1152 C1151 1.355 . S
C1152 C1154 1.419 . S
C1153 C1148 1.425 . S
C1153 C1150 1.409 . S
C1153 C1151 1.415 . S
C1154 H1144 0.930 . S
C1154 C1152 1.419 . S
C1154 C1155 1.362 . S
C1155 H1145 0.930 . S
C1155 C1148 1.409 . S
C1155 C1154 1.362 . S
H1156 C1162 0.930 . S
H1157 C1165 0.930 . S
H1158 C1166 0.930 . S
H1159 C1167 0.930 . S
H1160 C1170 0.930 . S
H1161 C1171 0.930 . S
C1162 H1156 0.930 . S
C1162 C1163 1.355 . S
C1162 C1164 1.415 . S
C1163 C1162 1.355 . S
C1163 C1165 1.419 . S
C1164 C1162 1.415 . S
C1164 C1169 1.425 . S
C1164 C1171 1.409 . S
C1165 H1157 0.930 . S
C1165 C1163 1.419 . S
C1165 C1166 1.362 . S
C1166 H1158 0.930 . S
C1166 C1165 1.362 . S
C1166 C1169 1.409 . S
C1167 H1159 0.930 . S
C1167 C1168 1.355 . S
C1167 C1169 1.415 . S
C1168 C1167 1.355 . S
C1168 C1170 1.419 . S
C1169 C1164 1.425 . S
C1169 C1166 1.409 . S
C1169 C1167 1.415 . S
C1170 H1160 0.930 . S
C1170 C1168 1.419 . S
C1170 C1171 1.362 . S
C1171 H1161 0.930 . S
C1171 C1164 1.409 . S
C1171 C1170 1.362 . S
H1172 C1178 0.930 . S
H1173 C1181 0.930 . S
H1174 C1182 0.930 . S
H1175 C1183 0.930 . S
H1176 C1186 0.930 . S
H1177 C1187 0.930 . S
C1178 H1172 0.930 . S
C1178 C1179 1.355 . S
C1178 C1180 1.415 . S
C1179 C1178 1.355 . S
C1179 C1181 1.419 . S
C1180 C1178 1.415 . S
C1180 C1185 1.425 . S
C1180 C1187 1.409 . S
C1181 H1173 0.930 . S
C1181 C1179 1.419 . S
C1181 C1182 1.362 . S
C1182 H1174 0.930 . S
C1182 C1181 1.362 . S
C1182 C1185 1.409 . S
C1183 H1175 0.930 . S
C1183 C1184 1.355 . S
C1183 C1185 1.415 . S
C1184 C1183 1.355 . S
C1184 C1186 1.419 . S
C1185 C1180 1.425 . S
C1185 C1182 1.409 . S
C1185 C1183 1.415 . S
C1186 H1176 0.930 . S
C1186 C1184 1.419 . S
C1186 C1187 1.362 . S
C1187 H1177 0.930 . S
C1187 C1180 1.409 . S
C1187 C1186 1.362 . S
H1188 C1194 0.930 . S
H1189 C1197 0.930 . S
H1190 C1198 0.930 . S
H1191 C1199 0.930 . S
H1192 C1202 0.930 . S
H1193 C1203 0.930 . S
C1194 H1188 0.930 . S
C1194 C1195 1.355 . S
C1194 C1196 1.415 . S
C1195 C1194 1.355 . S
C1195 C1197 1.419 . S
C1196 C1194 1.415 . S
C1196 C1201 1.425 . S
C1196 C1203 1.409 . S
C1197 H1189 0.930 . S
C1197 C1195 1.419 . S
C1197 C1198 1.362 . S
C1198 H1190 0.930 . S
C1198 C1197 1.362 . S
C1198 C1201 1.409 . S
C1199 H1191 0.930 . S
C1199 C1200 1.355 . S
C1199 C1201 1.415 . S
C1200 C1199 1.355 . S
C1200 C1202 1.419 . S
C1201 C1196 1.425 . S
C1201 C1198 1.409 . S
C1201 C1199 1.415 . S
C1202 H1192 0.930 . S
C1202 C1200 1.419 . S
C1202 C1203 1.362 . S
C1203 H1193 0.930 . S
C1203 C1196 1.409 . S
C1203 C1202 1.362 . S
H1204 C1210 0.930 . S
H1205 C1213 0.930 . S
H1206 C1214 0.930 . S
H1207 C1215 0.930 . S
H1208 C1218 0.930 . S
H1209 C1219 0.930 . S
C1210 H1204 0.930 . S
C1210 C1211 1.355 . S
C1210 C1212 1.415 . S
C1211 C1210 1.355 . S
C1211 C1213 1.419 . S
C1212 C1210 1.415 . S
C1212 C1217 1.425 . S
C1212 C1219 1.409 . S
C1213 H1205 0.930 . S
C1213 C1211 1.419 . S
C1213 C1214 1.362 . S
C1214 H1206 0.930 . S
C1214 C1213 1.362 . S
C1214 C1217 1.409 . S
C1215 H1207 0.930 . S
C1215 C1216 1.355 . S
C1215 C1217 1.415 . S
C1216 C1215 1.355 . S
C1216 C1218 1.419 . S
C1217 C1212 1.425 . S
C1217 C1214 1.409 . S
C1217 C1215 1.415 . S
C1218 H1208 0.930 . S
C1218 C1216 1.419 . S
C1218 C1219 1.362 . S
C1219 H1209 0.930 . S
C1219 C1212 1.409 . S
C1219 C1218 1.362 . S
H1220 C1226 0.930 . S
H1221 C1229 0.930 . S
H1222 C1230 0.930 . S
H1223 C1231 0.930 . S
H1224 C1234 0.930 . S
H1225 C1235 0.930 . S
C1226 H1220 0.930 . S
C1226 C1227 1.355 . S
C1226 C1228 1.415 . S
C1227 C1226 1.355 . S
C1227 C1229 1.419 . S
C1228 C1226 1.415 . S
C1228 C1233 1.425 . S
C1228 C1235 1.409 . S
C1229 H1221 0.930 . S
C1229 C1227 1.419 . S
C1229 C1230 1.362 . S
C1230 H1222 0.930 . S
C1230 C1229 1.362 . S
C1230 C1233 1.409 . S
C1231 H1223 0.930 . S
C1231 C1232 1.355 . S
C1231 C1233 1.415 . S
C1232 C1231 1.355 . S
C1232 C1234 1.419 . S
C1233 C1228 1.425 . S
C1233 C1230 1.409 . S
C1233 C1231 1.415 . S
C1234 H1224 0.930 . S
C1234 C1232 1.419 . S
C1234 C1235 1.362 . S
C1235 H1225 0.930 . S
C1235 C1228 1.409 . S
C1235 C1234 1.362 . S
H1236 C1242 0.930 . S
H1237 C1245 0.930 . S
H1238 C1246 0.930 . S
H1239 C1247 0.930 . S
H1240 C1250 0.930 . S
H1241 C1251 0.930 . S
C1242 H1236 0.930 . S
C1242 C1243 1.355 . S
C1242 C1244 1.415 . S
C1243 C1242 1.355 . S
C1243 C1245 1.419 . S
C1244 C1242 1.415 . S
C1244 C1249 1.425 . S
C1244 C1251 1.409 . S
C1245 H1237 0.930 . S
C1245 C1243 1.419 . S
C1245 C1246 1.362 . S
C1246 H1238 0.930 . S
C1246 C1245 1.362 . S
C1246 C1249 1.409 . S
C1247 H1239 0.930 . S
C1247 C1248 1.355 . S
C1247 C1249 1.415 . S
C1248 C1247 1.355 . S
C1248 C1250 1.419 . S
C1249 C1244 1.425 . S
C1249 C1246 1.409 . S
C1249 C1247 1.415 . S
C1250 H1240 0.930 . S
C1250 C1248 1.419 . S
C1250 C1251 1.362 . S
C1251 H1241 0.930 . S
C1251 C1244 1.409 . S
C1251 C1250 1.362 . S
H1252 C1258 0.930 . S
H1253 C1261 0.930 . S
H1254 C1262 0.930 . S
H1255 C1263 0.930 . S
H1256 C1266 0.930 . S
H1257 C1267 0.930 . S
C1258 H1252 0.930 . S
C1258 C1259 1.355 . S
C1258 C1260 1.415 . S
C1259 C1258 1.355 . S
C1259 C1261 1.419 . S
C1260 C1258 1.415 . S
C1260 C1265 1.425 . S
C1260 C1267 1.409 . S
C1261 H1253 0.930 . S
C1261 C1259 1.419 . S
C1261 C1262 1.362 . S
C1262 H1254 0.930 . S
C1262 C1261 1.362 . S
C1262 C1265 1.409 . S
C1263 H1255 0.930 . S
C1263 C1264 1.355 . S
C1263 C1265 1.415 . S
C1264 C1263 1.355 . S
C1264 C1266 1.419 . S
C1265 C1260 1.425 . S
C1265 C1262 1.409 . S
C1265 C1263 1.415 . S
C1266 H1256 0.930 . S
C1266 C1264 1.419 . S
C1266 C1267 1.362 . S
C1267 H1257 0.930 . S
C1267 C1260 1.409 . S
C1267 C1266 1.362 . S
H1268 C1274 0.930 . S
H1269 C1277 0.930 . S
H1270 C1278 0.930 . S
H1271 C1279 0.930 . S
H1272 C1282 0.930 . S
H1273 C1283 0.930 . S
C1274 H1268 0.930 . S
C1274 C1275 1.355 . S
C1274 C1276 1.415 . S
C1275 C1274 1.355 . S
C1275 C1277 1.419 . S
C1276 C1274 1.415 . S
C1276 C1281 1.425 . S
C1276 C1283 1.409 . S
C1277 H1269 0.930 . S
C1277 C1275 1.419 . S
C1277 C1278 1.362 . S
C1278 H1270 0.930 . S
C1278 C1277 1.362 . S
C1278 C1281 1.409 . S
C1279 H1271 0.930 . S
C1279 C1280 1.355 . S
C1279 C1281 1.415 . S
C1280 C1279 1.355 . S
C1280 C1282 1.419 . S
C1281 C1276 1.425 . S
C1281 C1278 1.409 . S
C1281 C1279 1.415 . S
C1282 H1272 0.930 . S
C1282 C1280 1.419 . S
C1282 C1283 1.362 . S
C1283 H1273 0.930 . S
C1283 C1276 1.409 . S
C1283 C1282 1.362 . S
H1284 C1290 0.930 . S
H1285 C1293 0.930 . S
H1286 C1294 0.930 . S
H1287 C1295 0.930 . S
H1288 C1298 0.930 . S
H1289 C1299 0.930 . S
C1290 H1284 0.930 . S
C1290 C1291 1.355 . S
C1290 C1292 1.415 . S
C1291 C1290 1.355 . S
C1291 C1293 1.419 . S
C1292 C1290 1.415 . S
C1292 C1297 1.425 . S
C1292 C1299 1.409 . S
C1293 H1285 0.930 . S
C1293 C1291 1.419 . S
C1293 C1294 1.362 . S
C1294 H1286 0.930 . S
C1294 C1293 1.362 . S
C1294 C1297 1.409 . S
C1295 H1287 0.930 . S
C1295 C1296 1.355 . S
C1295 C1297 1.415 . S
C1296 C1295 1.355 . S
C1296 C1298 1.419 . S
C1297 C1292 1.425 . S
C1297 C1294 1.409 . S
C1297 C1295 1.415 . S
C1298 H1288 0.930 . S
C1298 C1296 1.419 . S
C1298 C1299 1.362 . S
C1299 H1289 0.930 . S
C1299 C1292 1.409 . S
C1299 C1298 1.362 . S
H1300 C1306 0.930 . S
H1301 C1309 0.930 . S
H1302 C1310 0.930 . S
H1303 C1311 0.930 . S
H1304 C1314 0.930 . S
H1305 C1315 0.930 . S
C1306 H1300 0.930 . S
C1306 C1307 1.355 . S
C1306 C1308 1.415 . S
C1307 C1306 1.355 . S
C1307 C1309 1.419 . S
C1308 C1306 1.415 . S
C1308 C1313 1.425 . S
C1308 C1315 1.409 . S
C1309 H1301 0.930 . S
C1309 C1307 1.419 . S
C1309 C1310 1.362 . S
C1310 H1302 0.930 . S
C1310 C1309 1.362 . S
C1310 C1313 1.409 . S
C1311 H1303 0.930 . S
C1311 C1312 1.355 . S
C1311 C1313 1.415 . S
C1312 C1311 1.355 . S
C1312 C1314 1.419 . S
C1313 C1308 1.425 . S
C1313 C1310 1.409 . S
C1313 C1311 1.415 . S
C1314 H1304 0.930 . S
C1314 C1312 1.419 . S
C1314 C1315 1.362 . S
C1315 H1305 0.930 . S
C1315 C1308 1.409 . S
C1315 C1314 1.362 . S
H1316 C1322 0.930 . S
H1317 C1325 0.930 . S
H1318 C1326 0.930 . S
H1319 C1327 0.930 . S
H1320 C1330 0.930 . S
H1321 C1331 0.930 . S
C1322 H1316 0.930 . S
C1322 C1323 1.355 . S
C1322 C1324 1.415 . S
C1323 C1322 1.355 . S
C1323 C1325 1.419 . S
C1324 C1322 1.415 . S
C1324 C1329 1.425 . S
C1324 C1331 1.409 . S
C1325 H1317 0.930 . S
C1325 C1323 1.419 . S
C1325 C1326 1.362 . S
C1326 H1318 0.930 . S
C1326 C1325 1.362 . S
C1326 C1329 1.409 . S
C1327 H1319 0.930 . S
C1327 C1328 1.355 . S
C1327 C1329 1.415 . S
C1328 C1327 1.355 . S
C1328 C1330 1.419 . S
C1329 C1324 1.425 . S
C1329 C1326 1.409 . S
C1329 C1327 1.415 . S
C1330 H1320 0.930 . S
C1330 C1328 1.419 . S
C1330 C1331 1.362 . S
C1331 H1321 0.930 . S
C1331 C1324 1.409 . S
C1331 C1330 1.362 . S
H1332 C1338 0.930 . S
H1333 C1341 0.930 . S
H1334 C1342 0.930 . S
H1335 C1343 0.930 . S
H1336 C1346 0.930 . S
H1337 C1347 0.930 . S
C1338 H1332 0.930 . S
C1338 C1339 1.355 . S
C1338 C1340 1.415 . S
C1339 C1338 1.355 . S
C1339 C1341 1.419 . S
C1340 C1338 1.415 . S
C1340 C1345 1.425 . S
C1340 C1347 1.409 . S
C1341 H1333 0.930 . S
C1341 C1339 1.419 . S
C1341 C1342 1.362 . S
C1342 H1334 0.930 . S
C1342 C1341 1.362 . S
C1342 C1345 1.409 . S
C1343 H1335 0.930 . S
C1343 C1344 1.355 . S
C1343 C1345 1.415 . S
C1344 C1343 1.355 . S
C1344 C1346 1.419 . S
C1345 C1340 1.425 . S
C1345 C1342 1.409 . S
C1345 C1343 1.415 . S
C1346 H1336 0.930 . S
C1346 C1344 1.419 . S
C1346 C1347 1.362 . S
C1347 H1337 0.930 . S
C1347 C1340 1.409 . S
C1347 C1346 1.362 . S
H1348 C1354 0.930 . S
H1349 C1357 0.930 . S
H1350 C1358 0.930 . S
H1351 C1359 0.930 . S
H1352 C1362 0.930 . S
H1353 C1363 0.930 . S
C1354 H1348 0.930 . S
C1354 C1355 1.355 . S
C1354 C1356 1.415 . S
C1355 C1354 1.355 . S
C1355 C1357 1.419 . S
C1356 C1354 1.415 . S
C1356 C1361 1.425 . S
C1356 C1363 1.409 . S
C1357 H1349 0.930 . S
C1357 C1355 1.419 . S
C1357 C1358 1.362 . S
C1358 H1350 0.930 . S
C1358 C1357 1.362 . S
C1358 C1361 1.409 . S
C1359 H1351 0.930 . S
C1359 C1360 1.355 . S
C1359 C1361 1.415 . S
C1360 C1359 1.355 . S
C1360 C1362 1.419 . S
C1361 C1356 1.425 . S
C1361 C1358 1.409 . S
C1361 C1359 1.415 . S
C1362 H1352 0.930 . S
C1362 C1360 1.419 . S
C1362 C1363 1.362 . S
C1363 H1353 0.930 . S
C1363 C1356 1.409 . S
C1363 C1362 1.362 . S
H1364 C1370 0.930 . S
H1365 C1373 0.930 . S
H1366 C1374 0.930 . S
H1367 C1375 0.930 . S
H1368 C1378 0.930 . S
H1369 C1379 0.930 . S
C1370 H1364 0.930 . S
C1370 C1371 1.355 . S
C1370 C1372 1.415 . S
C1371 C1370 1.355 . S
C1371 C1373 1.419 . S
C1372 C1370 1.415 . S
C1372 C1377 1.425 . S
C1372 C1379 1.409 . S
C1373 H1365 0.930 . S
C1373 C1371 1.419 . S
C1373 C1374 1.362 . S
C1374 H1366 0.930 . S
C1374 C1373 1.362 . S
C1374 C1377 1.409 . S
C1375 H1367 0.930 . S
C1375 C1376 1.355 . S
C1375 C1377 1.415 . S
C1376 C1375 1.355 . S
C1376 C1378 1.419 . S
C1377 C1372 1.425 . S
C1377 C1374 1.409 . S
C1377 C1375 1.415 . S
C1378 H1368 0.930 . S
C1378 C1376 1.419 . S
C1378 C1379 1.362 . S
C1379 H1369 0.930 . S
C1379 C1372 1.409 . S
C1379 C1378 1.362 . S
H1380 C1386 0.930 . S
H1381 C1389 0.930 . S
H1382 C1390 0.930 . S
H1383 C1391 0.930 . S
H1384 C1394 0.930 . S
H1385 C1395 0.930 . S
C1386 H1380 0.930 . S
C1386 C1387 1.355 . S
C1386 C1388 1.415 . S
C1387 C1386 1.355 . S
C1387 C1389 1.419 . S
C1388 C1386 1.415 . S
C1388 C1393 1.425 . S
C1388 C1395 1.409 . S
C1389 H1381 0.930 . S
C1389 C1387 1.419 . S
C1389 C1390 1.362 . S
C1390 H1382 0.930 . S
C1390 C1389 1.362 . S
C1390 C1393 1.409 . S
C1391 H1383 0.930 . S
C1391 C1392 1.355 . S
C1391 C1393 1.415 . S
C1392 C1391 1.355 . S
C1392 C1394 1.419 . S
C1393 C1388 1.425 . S
C1393 C1390 1.409 . S
C1393 C1391 1.415 . S
C1394 H1384 0.930 . S
C1394 C1392 1.419 . S
C1394 C1395 1.362 . S
C1395 H1385 0.930 . S
C1395 C1388 1.409 . S
C1395 C1394 1.362 . S
H1396 C1402 0.930 . S
H1397 C1405 0.930 . S
H1398 C1406 0.930 . S
H1399 C1407 0.930 . S
H1400 C1410 0.930 . S
H1401 C1411 0.930 . S
C1402 H1396 0.930 . S
C1402 C1403 1.355 . S
C1402 C1404 1.415 . S
C1403 C1402 1.355 . S
C1403 C1405 1.419 . S
C1404 C1402 1.415 . S
C1404 C1409 1.425 . S
C1404 C1411 1.409 . S
C1405 H1397 0.930 . S
C1405 C1403 1.419 . S
C1405 C1406 1.362 . S
C1406 H1398 0.930 . S
C1406 C1405 1.362 . S
C1406 C1409 1.409 . S
C1407 H1399 0.930 . S
C1407 C1408 1.355 . S
C1407 C1409 1.415 . S
C1408 C1407 1.355 . S
C1408 C1410 1.419 . S
C1409 C1404 1.425 . S
C1409 C1406 1.409 . S
C1409 C1407 1.415 . S
C1410 H1400 0.930 . S
C1410 C1408 1.419 . S
C1410 C1411 1.362 . S
C1411 H1401 0.930 . S
C1411 C1404 1.409 . S
C1411 C1410 1.362 . S
H1412 C1418 0.930 . S
H1413 C1421 0.930 . S
H1414 C1422 0.930 . S
H1415 C1423 0.930 . S
H1416 C1426 0.930 . S
H1417 C1427 0.930 . S
C1418 H1412 0.930 . S
C1418 C1419 1.355 . S
C1418 C1420 1.415 . S
C1419 C1418 1.355 . S
C1419 C1421 1.419 . S
C1420 C1418 1.415 . S
C1420 C1425 1.425 . S
C1420 C1427 1.409 . S
C1421 H1413 0.930 . S
C1421 C1419 1.419 . S
C1421 C1422 1.362 . S
C1422 H1414 0.930 . S
C1422 C1421 1.362 . S
C1422 C1425 1.409 . S
C1423 H1415 0.930 . S
C1423 C1424 1.355 . S
C1423 C1425 1.415 . S
C1424 C1423 1.355 . S
C1424 C1426 1.419 . S
C1425 C1420 1.425 . S
C1425 C1422 1.409 . S
C1425 C1423 1.415 . S
C1426 H1416 0.930 . S
C1426 C1424 1.419 . S
C1426 C1427 1.362 . S
C1427 H1417 0.930 . S
C1427 C1420 1.409 . S
C1427 C1426 1.362 . S
H1428 C1434 0.930 . S
H1429 C1437 0.930 . S
H1430 C1438 0.930 . S
H1431 C1439 0.930 . S
H1432 C1442 0.930 . S
H1433 C1443 0.930 . S
C1434 H1428 0.930 . S
C1434 C1435 1.355 . S
C1434 C1436 1.415 . S
C1435 C1434 1.355 . S
C1435 C1437 1.419 . S
C1436 C1434 1.415 . S
C1436 C1441 1.425 . S
C1436 C1443 1.409 . S
C1437 H1429 0.930 . S
C1437 C1435 1.419 . S
C1437 C1438 1.362 . S
C1438 H1430 0.930 . S
C1438 C1437 1.362 . S
C1438 C1441 1.409 . S
C1439 H1431 0.930 . S
C1439 C1440 1.355 . S
C1439 C1441 1.415 . S
C1440 C1439 1.355 . S
C1440 C1442 1.419 . S
C1441 C1436 1.425 . S
C1441 C1438 1.409 . S
C1441 C1439 1.415 . S
C1442 H1432 0.930 . S
C1442 C1440 1.419 . S
C1442 C1443 1.362 . S
C1443 H1433 0.930 . S
C1443 C1436 1.409 . S
C1443 C1442 1.362 . S
H1444 C1450 0.930 . S
H1445 C1453 0.930 . S
H1446 C1454 0.930 . S
H1447 C1455 0.930 . S
H1448 C1458 0.930 . S
H1449 C1459 0.930 . S
C1450 H1444 0.930 . S
C1450 C1451 1.355 . S
C1450 C1452 1.415 . S
C1451 C1450 1.355 . S
C1451 C1453 1.419 . S
C1452 C1450 1.415 . S
C1452 C1457 1.425 . S
C1452 C1459 1.409 . S
C1453 H1445 0.930 . S
C1453 C1451 1.419 . S
C1453 C1454 1.362 . S
C1454 H1446 0.930 . S
C1454 C1453 1.362 . S
C1454 C1457 1.409 . S
C1455 H1447 0.930 . S
C1455 C1456 1.355 . S
C1455 C1457 1.415 . S
C1456 C1455 1.355 . S
C1456 C1458 1.419 . S
C1457 C1452 1.425 . S
C1457 C1454 1.409 . S
C1457 C1455 1.415 . S
C1458 H1448 0.930 . S
C1458 C1456 1.419 . S
C1458 C1459 1.362 . S
C1459 H1449 0.930 . S
C1459 C1452 1.409 . S
C1459 C1458 1.362 . S
H1460 C1466 0.930 . S
H1461 C1469 0.930 . S
H1462 C1470 0.930 . S
H1463 C1471 0.930 . S
H1464 C1474 0.930 . S
H1465 C1475 0.930 . S
C1466 H1460 0.930 . S
C1466 C1467 1.355 . S
C1466 C1468 1.415 . S
C1467 C1466 1.355 . S
C1467 C1469 1.419 . S
C1468 C1466 1.415 . S
C1468 C1473 1.425 . S
C1468 C1475 1.409 . S
C1469 H1461 0.930 . S
C1469 C1467 1.419 . S
C1469 C1470 1.362 . S
C1470 H1462 0.930 . S
C1470 C1469 1.362 . S
C1470 C1473 1.409 . S
C1471 H1463 0.930 . S
C1471 C1472 1.355 . S
C1471 C1473 1.415 . S
C1472 C1471 1.355 . S
C1472 C1474 1.419 . S
C1473 C1468 1.425 . S
C1473 C1470 1.409 . S
C1473 C1471 1.415 . S
C1474 H1464 0.930 . S
C1474 C1472 1.419 . S
C1474 C1475 1.362 . S
C1475 H1465 0.930 . S
C1475 C1468 1.409 . S
C1475 C1474 1.362 . S
H1476 C1482 0.930 . S
H1477 C1485 0.930 . S
H1478 C1486 0.930 . S
H1479 C1487 0.930 . S
H1480 C1490 0.930 . S
H1481 C1491 0.930 . S
C1482 H1476 0.930 . S
C1482 C1483 1.355 . S
C1482 C1484 1.415 . S
C1483 C1482 1.355 . S
C1483 C1485 1.419 . S
C1484 C1482 1.415 . S
C1484 C1489 1.425 . S
C1484 C1491 1.409 . S
C1485 H1477 0.930 . S
C1485 C1483 1.419 . S
C1485 C1486 1.362 . S
C1486 H1478 0.930 . S
C1486 C1485 1.362 . S
C1486 C1489 1.409 . S
C1487 H1479 0.930 . S
C1487 C1488 1.355 . S
C1487 C1489 1.415 . S
C1488 C1487 1.355 . S
C1488 C1490 1.419 . S
C1489 C1484 1.425 . S
C1489 C1486 1.409 . S
C1489 C1487 1.415 . S
C1490 H1480 0.930 . S
C1490 C1488 1.419 . S
C1490 C1491 1.362 . S
C1491 H1481 0.930 . S
C1491 C1484 1.409 . S
C1491 C1490 1.362 . S
H1492 C1498 0.930 . S
H1493 C1501 0.930 . S
H1494 C1502 0.930 . S
H1495 C1503 0.930 . S
H1496 C1506 0.930 . S
H1497 C1507 0.930 . S
C1498 H1492 0.930 . S
C1498 C1499 1.355 . S
C1498 C1500 1.415 . S
C1499 C1498 1.355 . S
C1499 C1501 1.419 . S
C1500 C1498 1.415 . S
C1500 C1505 1.425 . S
C1500 C1507 1.409 . S
C1501 H1493 0.930 . S
C1501 C1499 1.419 . S
C1501 C1502 1.362 . S
C1502 H1494 0.930 . S
C1502 C1501 1.362 . S
C1502 C1505 1.409 . S
C1503 H1495 0.930 . S
C1503 C1504 1.355 . S
C1503 C1505 1.415 . S
C1504 C1503 1.355 . S
C1504 C1506 1.419 . S
C1505 C1500 1.425 . S
C1505 C1502 1.409 . S
C1505 C1503 1.415 . S
C1506 H1496 0.930 . S
C1506 C1504 1.419 . S
C1506 C1507 1.362 . S
C1507 H1497 0.930 . S
C1507 C1500 1.409 . S
C1507 C1506 1.362 . S
H1508 C1514 0.930 . S
H1509 C1517 0.930 . S
H1510 C1518 0.930 . S
H1511 C1519 0.930 . S
H1512 C1522 0.930 . S
H1513 C1523 0.930 . S
C1514 H1508 0.930 . S
C1514 C1515 1.355 . S
C1514 C1516 1.415 . S
C1515 C1514 1.355 . S
C1515 C1517 1.419 . S
C1516 C1514 1.415 . S
C1516 C1521 1.425 . S
C1516 C1523 1.409 . S
C1517 H1509 0.930 . S
C1517 C1515 1.419 . S
C1517 C1518 1.362 . S
C1518 H1510 0.930 . S
C1518 C1517 1.362 . S
C1518 C1521 1.409 . S
C1519 H1511 0.930 . S
C1519 C1520 1.355 . S
C1519 C1521 1.415 . S
C1520 C1519 1.355 . S
C1520 C1522 1.419 . S
C1521 C1516 1.425 . S
C1521 C1518 1.409 . S
C1521 C1519 1.415 . S
C1522 H1512 0.930 . S
C1522 C1520 1.419 . S
C1522 C1523 1.362 . S
C1523 H1513 0.930 . S
C1523 C1516 1.409 . S
C1523 C1522 1.362 . S
H1524 C1530 0.930 . S
H1525 C1533 0.930 . S
H1526 C1534 0.930 . S
H1527 C1535 0.930 . S
H1528 C1538 0.930 . S
H1529 C1539 0.930 . S
C1530 H1524 0.930 . S
C1530 C1531 1.355 . S
C1530 C1532 1.415 1_455 S
C1531 C1530 1.355 . S
C1531 C1533 1.419 . S
C1532 C1530 1.415 1_655 S
C1532 C1537 1.425 1_655 S
C1532 C1539 1.409 . S
C1533 H1525 0.930 . S
C1533 C1531 1.419 . S
C1533 C1534 1.362 . S
C1534 H1526 0.930 . S
C1534 C1533 1.362 . S
C1534 C1537 1.409 . S
C1535 H1527 0.930 . S
C1535 C1536 1.355 . S
C1535 C1537 1.415 1_655 S
C1536 C1535 1.355 . S
C1536 C1538 1.419 . S
C1537 C1532 1.425 1_455 S
C1537 C1534 1.409 . S
C1537 C1535 1.415 1_455 S
C1538 H1528 0.930 . S
C1538 C1536 1.419 . S
C1538 C1539 1.362 . S
C1539 H1529 0.930 . S
C1539 C1532 1.409 . S
C1539 C1538 1.362 . S
H1540 C1546 0.930 . S
H1541 C1549 0.930 . S
H1542 C1550 0.930 . S
H1543 C1551 0.930 . S
H1544 C1554 0.930 . S
H1545 C1555 0.930 . S
C1546 H1540 0.930 . S
C1546 C1547 1.355 . S
C1546 C1548 1.415 . S
C1547 C1546 1.355 . S
C1547 C1549 1.419 . S
C1548 C1546 1.415 . S
C1548 C1553 1.425 . S
C1548 C1555 1.409 . S
C1549 H1541 0.930 . S
C1549 C1547 1.419 . S
C1549 C1550 1.362 . S
C1550 H1542 0.930 . S
C1550 C1549 1.362 . S
C1550 C1553 1.409 . S
C1551 H1543 0.930 . S
C1551 C1552 1.355 . S
C1551 C1553 1.415 . S
C1552 C1551 1.355 . S
C1552 C1554 1.419 . S
C1553 C1548 1.425 . S
C1553 C1550 1.409 . S
C1553 C1551 1.415 . S
C1554 H1544 0.930 . S
C1554 C1552 1.419 . S
C1554 C1555 1.362 . S
C1555 H1545 0.930 . S
C1555 C1548 1.409 . S
C1555 C1554 1.362 . S
H1556 C1562 0.930 . S
H1557 C1565 0.930 . S
H1558 C1566 0.930 . S
H1559 C1567 0.930 . S
H1560 C1570 0.930 . S
H1561 C1571 0.930 . S
C1562 H1556 0.930 . S
C1562 C1563 1.355 . S
C1562 C1564 1.415 . S
C1563 C1562 1.355 . S
C1563 C1565 1.419 . S
C1564 C1562 1.415 . S
C1564 C1569 1.425 1_545 S
C1564 C1571 1.409 . S
C1565 H1557 0.930 . S
C1565 C1563 1.419 . S
C1565 C1566 1.362 1_545 S
C1566 H1558 0.930 . S
C1566 C1565 1.362 1_565 S
C1566 C1569 1.409 . S
C1567 H1559 0.930 . S
C1567 C1568 1.355 . S
C1567 C1569 1.415 . S
C1568 C1567 1.355 . S
C1568 C1570 1.419 . S
C1569 C1564 1.425 1_565 S
C1569 C1566 1.409 . S
C1569 C1567 1.415 . S
C1570 H1560 0.930 . S
C1570 C1568 1.419 . S
C1570 C1571 1.362 1_565 S
C1571 H1561 0.930 . S
C1571 C1564 1.409 . S
C1571 C1570 1.362 1_545 S
H1572 C1578 0.930 . S
H1573 C1581 0.930 . S
H1574 C1582 0.930 . S
H1575 C1583 0.930 . S
H1576 C1586 0.930 . S
H1577 C1587 0.930 . S
C1578 H1572 0.930 . S
C1578 C1579 1.355 . S
C1578 C1580 1.415 . S
C1579 C1578 1.355 . S
C1579 C1581 1.419 1_556 S
C1580 C1578 1.415 . S
C1580 C1585 1.425 1_546 S
C1580 C1587 1.409 . S
C1581 H1573 0.930 . S
C1581 C1579 1.419 1_554 S
C1581 C1582 1.362 1_545 S
C1582 H1574 0.930 . S
C1582 C1581 1.362 1_565 S
C1582 C1585 1.409 . S
C1583 H1575 0.930 . S
C1583 C1584 1.355 . S
C1583 C1585 1.415 . S
C1584 C1583 1.355 . S
C1584 C1586 1.419 1_554 S
C1585 C1580 1.425 1_564 S
C1585 C1582 1.409 . S
C1585 C1583 1.415 . S
C1586 H1576 0.930 . S
C1586 C1584 1.419 1_556 S
C1586 C1587 1.362 1_565 S
C1587 H1577 0.930 . S
C1587 C1580 1.409 . S
C1587 C1586 1.362 1_545 S
H1588 C1594 0.923 1_554 S
H1589 C1597 0.930 . S
H1590 C1598 0.930 . S
H1591 C1599 0.920 1_556 S
H1592 C1602 0.930 . S
H1593 C1603 0.930 . S
C1594 H1588 0.923 1_556 S
C1594 C1595 1.368 . S
C1594 C1596 1.410 1_556 S
C1595 C1594 1.368 . S
C1595 C1597 1.419 . S
C1596 C1594 1.410 1_554 S
C1596 C1601 1.425 1_654 S
C1596 C1603 1.409 . S
C1597 H1589 0.930 . S
C1597 C1595 1.419 . S
C1597 C1598 1.362 1_655 S
C1598 H1590 0.930 . S
C1598 C1597 1.362 1_455 S
C1598 C1601 1.409 . S
C1599 H1591 0.920 1_554 S
C1599 C1600 1.373 . S
C1599 C1601 1.408 1_554 S
C1600 C1599 1.373 . S
C1600 C1602 1.419 . S
C1601 C1596 1.425 1_456 S
C1601 C1598 1.409 . S
C1601 C1599 1.408 1_556 S
C1602 H1592 0.930 . S
C1602 C1600 1.419 . S
C1602 C1603 1.362 1_455 S
C1603 H1593 0.930 . S
C1603 C1596 1.409 . S
C1603 C1602 1.362 1_655 S
H1604 C1610 0.930 . S
H1605 C1613 0.930 . S
H1606 C1614 0.930 . S
H1607 C1615 0.930 . S
H1608 C1618 0.930 . S
H1609 C1619 0.930 . S
C1610 H1604 0.930 . S
C1610 C1611 1.355 . S
C1610 C1612 1.415 . S
C1611 C1610 1.355 . S
C1611 C1613 1.419 . S
C1612 C1610 1.415 . S
C1612 C1617 1.425 1_554 S
C1612 C1619 1.409 . S
C1613 H1605 0.930 . S
C1613 C1611 1.419 . S
C1613 C1614 1.362 1_554 S
C1614 H1606 0.930 . S
C1614 C1613 1.362 1_556 S
C1614 C1617 1.409 . S
C1615 H1607 0.930 . S
C1615 C1616 1.355 . S
C1615 C1617 1.415 . S
C1616 C1615 1.355 . S
C1616 C1618 1.419 . S
C1617 C1612 1.425 1_556 S
C1617 C1614 1.409 . S
C1617 C1615 1.415 . S
C1618 H1608 0.930 . S
C1618 C1616 1.419 . S
C1618 C1619 1.362 1_556 S
C1619 H1609 0.930 . S
C1619 C1612 1.409 . S
C1619 C1618 1.362 1_554 S
C475 C3 1.436 . S
C480 C18 1.488 . S
C491 C16 1.442 . S
C496 C29 1.481 . S
C507 C5 1.483 . S
C512 C31 1.441 . S
C523 C44 1.441 . S
C528 C68 1.501 . S
C539 C57 1.447 . S
C544 C42 1.497 . S
C555 C55 1.514 . S
C560 C70 1.409 . S
C571 C83 1.366 . S
C576 C94 1.487 . S
C587 C107 1.481 . S
C592 C96 1.442 . S
C603 C81 1.504 . S
C608 C109 1.339 . S
C619 C146 1.503 . S
C624 C122 1.361 . S
C635 C135 1.419 . S
C640 C120 1.487 . S
C651 C148 1.416 . S
C656 C133 1.512 . S
C667 C174 1.505 . S
C672 C159 1.350 . S
C683 C172 1.431 . S
C688 C187 1.482 . S
C699 C185 1.444 . S
C704 C161 1.483 . S
C715 C200 1.396 . S
C720 C224 1.513 . S
C731 C213 1.446 . S
C736 C198 1.484 . S
C747 C226 1.350 . S
C752 C211 1.505 . S
C763 C252 1.518 . S
C768 C239 1.473 . S
C779 C250 1.438 . S
C784 C265 1.545 . S
C795 C237 1.548 . S
C800 C263 1.373 . S
C811 C302 1.426 . S
C816 C276 1.277 . S
C827 C289 1.362 . S
C832 C278 1.389 . S
C843 C291 1.424 . S
C848 C304 1.270 . S
C859 C330 1.533 . S
C864 C315 1.464 . S
C875 C328 1.420 . S
C880 C343 1.549 . S
C891 C341 1.374 . S
C896 C317 1.541 . S
C907 C382 1.393 . S
C912 C354 1.371 . S
C923 C367 1.267 . S
C928 C356 1.419 . S
C939 C369 1.421 . S
C944 C380 1.333 . S
C955 C395 1.390 . S
C960 C408 1.489 . S
C971 C406 1.434 . S
C976 C421 1.500 . S
C987 C419 1.439 . S
C992 C393 1.498 . S
C1003 C460 1.481 . S
C1008 C432 1.432 . S
C1019 C434 1.500 . S
C1024 C447 1.433 . S
C1035 C458 1.344 . S
C1040 C445 1.510 . S
C1051 C49 1.753 . S
C1056 C4 1.734 . S
C1067 C17 1.737 . S
C1072 C62 1.744 1_545 S
C1083 C75 1.741 1_655 S
C1088 C36 1.745 . S
C1099 C127 1.745 . S
C1104 C88 1.745 . S
C1115 C101 1.711 . S
C1120 C140 1.739 . S
C1131 C153 1.742 . S
C1136 C114 1.710 . S
C1147 C160 1.712 . S
C1152 C205 1.751 . S
C1163 C173 1.719 . S
C1168 C218 1.718 . S
C1179 C186 1.711 . S
C1184 C231 1.750 . S
C1195 C277 1.729 . S
C1200 C244 1.763 . S
C1211 C290 1.730 . S
C1216 C251 1.769 . S
C1227 C264 1.744 . S
C1232 C309 1.770 . S
C1243 C355 1.774 . S
C1248 C316 1.754 . S
C1259 C368 1.749 . S
C1264 C329 1.775 . S
C1275 C342 1.765 . S
C1280 C381 1.765 . S
C1291 C400 1.711 . S
C1296 C433 1.728 . S
C1307 C452 1.722 . S
C1312 C407 1.716 . S
C1323 C420 1.708 . S
C1328 C459 1.739 . S
C1339 C10 1.901 . S
C1344 C238 1.895 . S
C1355 C23 1.890 . S
C1360 C257 1.883 . S
C1371 C30 1.830 . S
C1376 C270 1.824 . S
C1387 C439 1.882 . S
C1392 C43 1.881 . S
C1403 C446 1.896 . S
C1408 C56 1.895 . S
C1419 C69 1.893 . S
C1424 C465 1.894 . S
C1435 C82 1.878 . S
C1440 C322 1.871 . S
C1451 C335 1.851 . S
C1456 C95 1.856 . S
C1467 C348 1.888 . S
C1472 C108 1.894 . S
C1483 C199 1.870 . S
C1488 C121 1.869 . S
C1499 C212 1.886 . S
C1504 C134 1.885 . S
C1515 C225 1.891 . S
C1520 C147 1.890 . S
C1531 C394 1.819 . S
C1536 C166 1.819 . S
C1547 C179 1.816 . S
C1552 C413 1.816 . S
C1563 C192 1.890 . S
C1568 C426 1.890 . S
C1579 C283 1.746 . S
C1584 C361 1.746 . S
C1595 C296 1.769 . S
C1600 C374 1.769 . S
C1611 C387 1.696 . S
C1616 C303 1.696 . S
