# Generated by pormake.
# Topology uow, (4)-cn, num edge types: 1
# Building blocks:
#     Node 0, Type 0, BuildingBlock: NAHDIM_clean_sbu_0, # of connection points: 4
#     Node 1, Type 0, BuildingBlock: NAHDIM_clean_sbu_0, # of connection points: 4
#     Node 2, Type 0, BuildingBlock: NAHDIM_clean_sbu_0, # of connection points: 4
#     Node 3, Type 0, BuildingBlock: NAHDIM_clean_sbu_0, # of connection points: 4
#     Node 4, Type 0, BuildingBlock: NAHDIM_clean_sbu_0, # of connection points: 4
#     Node 5, Type 0, BuildingBlock: NAHDIM_clean_sbu_0, # of connection points: 4
#     Node 6, Type 0, BuildingBlock: NAHDIM_clean_sbu_0, # of connection points: 4
#     Node 7, Type 0, BuildingBlock: NAHDIM_clean_sbu_0, # of connection points: 4
#     Node 8, Type 0, BuildingBlock: NAHDIM_clean_sbu_0, # of connection points: 4
#     Node 9, Type 0, BuildingBlock: NAHDIM_clean_sbu_0, # of connection points: 4
#     Node 10, Type 0, BuildingBlock: NAHDIM_clean_sbu_0, # of connection points: 4
#     Node 11, Type 0, BuildingBlock: NAHDIM_clean_sbu_0, # of connection points: 4
#     Node 12, Type 0, BuildingBlock: NAHDIM_clean_sbu_0, # of connection points: 4
#     Node 13, Type 0, BuildingBlock: NAHDIM_clean_sbu_0, # of connection points: 4
#     Node 14, Type 0, BuildingBlock: NAHDIM_clean_sbu_0, # of connection points: 4
#     Node 15, Type 0, BuildingBlock: NAHDIM_clean_sbu_0, # of connection points: 4
#     Node 16, Type 0, BuildingBlock: NAHDIM_clean_sbu_0, # of connection points: 4
#     Node 17, Type 0, BuildingBlock: NAHDIM_clean_sbu_0, # of connection points: 4
#     Node 18, Type 0, BuildingBlock: NAHDIM_clean_sbu_0, # of connection points: 4
#     Node 19, Type 0, BuildingBlock: NAHDIM_clean_sbu_0, # of connection points: 4
#     Node 20, Type 0, BuildingBlock: NAHDIM_clean_sbu_0, # of connection points: 4
#     Node 21, Type 0, BuildingBlock: NAHDIM_clean_sbu_0, # of connection points: 4
#     Node 22, Type 0, BuildingBlock: NAHDIM_clean_sbu_0, # of connection points: 4
#     Node 23, Type 0, BuildingBlock: NAHDIM_clean_sbu_0, # of connection points: 4
#     Node 24, Type 0, BuildingBlock: NAHDIM_clean_sbu_0, # of connection points: 4
#     Node 25, Type 0, BuildingBlock: NAHDIM_clean_sbu_0, # of connection points: 4
#     Node 26, Type 0, BuildingBlock: NAHDIM_clean_sbu_0, # of connection points: 4
#     Node 27, Type 0, BuildingBlock: NAHDIM_clean_sbu_0, # of connection points: 4
#     Node 28, Type 0, BuildingBlock: NAHDIM_clean_sbu_0, # of connection points: 4
#     Node 29, Type 0, BuildingBlock: NAHDIM_clean_sbu_0, # of connection points: 4
#     Node 30, Type 0, BuildingBlock: NAHDIM_clean_sbu_0, # of connection points: 4
#     Node 31, Type 0, BuildingBlock: NAHDIM_clean_sbu_0, # of connection points: 4
#     Edge 32, Type (0, 0), None
#     Edge 33, Type (0, 0), None
#     Edge 34, Type (0, 0), None
#     Edge 35, Type (0, 0), None
#     Edge 36, Type (0, 0), None
#     Edge 37, Type (0, 0), None
#     Edge 38, Type (0, 0), None
#     Edge 39, Type (0, 0), None
#     Edge 40, Type (0, 0), None
#     Edge 41, Type (0, 0), None
#     Edge 42, Type (0, 0), None
#     Edge 43, Type (0, 0), None
#     Edge 44, Type (0, 0), None
#     Edge 45, Type (0, 0), None
#     Edge 46, Type (0, 0), None
#     Edge 47, Type (0, 0), None
#     Edge 48, Type (0, 0), None
#     Edge 49, Type (0, 0), None
#     Edge 50, Type (0, 0), None
#     Edge 51, Type (0, 0), None
#     Edge 52, Type (0, 0), None
#     Edge 53, Type (0, 0), None
#     Edge 54, Type (0, 0), None
#     Edge 55, Type (0, 0), None
#     Edge 56, Type (0, 0), None
#     Edge 57, Type (0, 0), None
#     Edge 58, Type (0, 0), None
#     Edge 59, Type (0, 0), None
#     Edge 60, Type (0, 0), None
#     Edge 61, Type (0, 0), None
#     Edge 62, Type (0, 0), None
#     Edge 63, Type (0, 0), None
#     Edge 64, Type (0, 0), None
#     Edge 65, Type (0, 0), None
#     Edge 66, Type (0, 0), None
#     Edge 67, Type (0, 0), None
#     Edge 68, Type (0, 0), None
#     Edge 69, Type (0, 0), None
#     Edge 70, Type (0, 0), None
#     Edge 71, Type (0, 0), None
#     Edge 72, Type (0, 0), None
#     Edge 73, Type (0, 0), None
#     Edge 74, Type (0, 0), None
#     Edge 75, Type (0, 0), None
#     Edge 76, Type (0, 0), None
#     Edge 77, Type (0, 0), None
#     Edge 78, Type (0, 0), None
#     Edge 79, Type (0, 0), None
#     Edge 80, Type (0, 0), None
#     Edge 81, Type (0, 0), None
#     Edge 82, Type (0, 0), None
#     Edge 83, Type (0, 0), None
#     Edge 84, Type (0, 0), None
#     Edge 85, Type (0, 0), None
#     Edge 86, Type (0, 0), None
#     Edge 87, Type (0, 0), None
#     Edge 88, Type (0, 0), None
#     Edge 89, Type (0, 0), None
#     Edge 90, Type (0, 0), None
#     Edge 91, Type (0, 0), None
#     Edge 92, Type (0, 0), None
#     Edge 93, Type (0, 0), None
#     Edge 94, Type (0, 0), None
#     Edge 95, Type (0, 0), None
# Relax obj value: 0.210
# Max RMSD: 0.241
# Mean RMSD: 0.241
data_MOF--net-uow--node1-NAHDIM_clean_sbu_0--edge1-none
_symmetry_space_group_name_H-M    P1
_symmetry_Int_Tables_number       1
_symmetry_cell_setting            triclinic
loop_
_symmetry_equiv_pos_as_xyz
'x, y, z'
_cell_length_a     29.694934
_cell_length_b     29.730884
_cell_length_c     18.967636
_cell_angle_alpha  89.967195
_cell_angle_beta   90.00502
_cell_angle_gamma 89.942556
loop_
_atom_site_label
_atom_site_type_symbol
_atom_site_fract_x
_atom_site_fract_y
_atom_site_fract_z
_atom_type_partial_charge
C0 C 0.02869 0.46497 0.20708 0.0
O1 O 0.01888 0.44696 0.14579 0.0
O2 O 0.96989 0.3524 0.24084 0.0
Zn3 Zn 0.03447 0.37325 0.23989 0.0
O4 O 0.06225 0.36381 0.14466 0.0
C5 C 0.05354 0.29756 0.32884 0.0
O6 O 0.01439 0.28484 0.30382 0.0
O7 O 0.03688 0.43964 0.25957 0.0
C8 C 0.06056 0.32653 0.11246 0.0
O9 O 0.03978 0.29219 0.14137 0.0
C10 C 0.94514 0.36426 0.29219 0.0
O11 O 0.96032 0.39433 0.33696 0.0
O12 O 0.06973 0.3355 0.31067 0.0
C13 C 0.74235 0.77742 0.45719 0.0
O14 O 0.76044 0.76775 0.39588 0.0
O15 O 0.85535 0.71904 0.49104 0.0
Zn16 Zn 0.83415 0.78348 0.48996 0.0
O17 O 0.84344 0.81117 0.39463 0.0
C18 C 0.90972 0.80274 0.57924 0.0
O19 O 0.92252 0.76347 0.55486 0.0
O20 O 0.76766 0.78566 0.50967 0.0
C21 C 0.88089 0.81002 0.3627 0.0
O22 O 0.91555 0.78986 0.39195 0.0
C23 C 0.84344 0.69426 0.5423 0.0
O24 O 0.81315 0.70932 0.58691 0.0
O25 O 0.8718 0.8189 0.56059 0.0
C26 C 0.42972 0.49217 0.70716 0.0
O27 O 0.43942 0.51027 0.64587 0.0
O28 O 0.48844 0.60475 0.74095 0.0
Zn29 Zn 0.42388 0.58384 0.74009 0.0
O30 O 0.39597 0.59333 0.64494 0.0
C31 C 0.40477 0.65953 0.82879 0.0
O32 O 0.44378 0.67236 0.80335 0.0
O33 O 0.42157 0.51743 0.75971 0.0
C34 C 0.3978 0.63056 0.61253 0.0
O35 O 0.41881 0.66483 0.64117 0.0
C36 C 0.51321 0.59291 0.79232 0.0
O37 O 0.49805 0.56282 0.83713 0.0
O38 O 0.38867 0.62151 0.81097 0.0
C39 C 0.71586 0.1797 -0.04271 0.0
O40 O 0.69778 0.18942 0.89597 0.0
O41 O 0.60289 0.23815 -0.00897 0.0
Zn42 Zn 0.62405 0.1737 -0.01001 0.0
O43 O 0.6148 0.14607 0.89465 0.0
C44 C 0.54849 0.15444 0.07933 0.0
O45 O 0.53575 0.19378 0.0551 0.0
O46 O 0.69053 0.17147 0.00977 0.0
C47 C 0.57734 0.14712 0.86271 0.0
O48 O 0.54262 0.16713 0.89195 0.0
C49 C 0.61482 0.26292 0.04225 0.0
O50 O 0.64512 0.24783 0.08686 0.0
O51 O 0.58637 0.13825 0.06057 0.0
C52 C 0.03062 0.5139 0.21383 0.0
O53 O 0.03446 0.53253 0.27622 0.0
O54 O 0.97298 0.63106 0.12109 0.0
Zn55 Zn 0.03017 0.60597 0.1598 0.0
O56 O 0.03684 0.63024 0.25845 0.0
C57 C 0.09652 0.66775 0.10695 0.0
O58 O 0.08944 0.68658 0.16852 0.0
O59 O 0.02848 0.53828 0.15882 0.0
C60 C 0.07338 0.62684 0.29267 0.0
O61 O 0.1081 0.60646 0.26399 0.0
C62 C 0.93625 0.61179 0.10522 0.0
O63 O 0.93098 0.5685 0.11603 0.0
O64 O 0.07745 0.63059 0.09282 0.0
C65 C 0.69335 0.77922 0.46393 0.0
O66 O 0.67465 0.78269 0.52636 0.0
O67 O 0.57616 0.72179 0.37162 0.0
Zn68 Zn 0.6012 0.77908 0.40964 0.0
O69 O 0.57669 0.78624 0.50809 0.0
C70 C 0.54002 0.8462 0.35615 0.0
O71 O 0.52162 0.84065 0.41844 0.0
O72 O 0.66898 0.77736 0.40888 0.0
C73 C 0.58072 0.82258 0.54249 0.0
O74 O 0.60192 0.85686 0.51411 0.0
C75 C 0.59557 0.68522 0.35528 0.0
O76 O 0.63906 0.68019 0.36506 0.0
O77 O 0.57662 0.82597 0.34191 0.0
C78 C 0.42785 0.44323 0.71384 0.0
O79 O 0.42419 0.42451 0.77622 0.0
O80 O 0.48549 0.32622 0.62112 0.0
Zn81 Zn 0.42825 0.35124 0.65969 0.0
O82 O 0.4215 0.32688 0.75832 0.0
C83 C 0.36189 0.2895 0.60677 0.0
O84 O 0.36884 0.27069 0.66843 0.0
O85 O 0.42987 0.41893 0.65878 0.0
C86 C 0.38497 0.33035 0.79252 0.0
O87 O 0.35031 0.35086 0.76382 0.0
C88 C 0.52218 0.34552 0.60514 0.0
O89 O 0.52739 0.38884 0.61571 0.0
O90 O 0.38103 0.32662 0.59261 0.0
C91 C 0.76486 0.17787 -0.03594 0.0
O92 O 0.78356 0.17438 0.0265 0.0
O93 O 0.88203 0.23525 0.87161 0.0
Zn94 Zn 0.857 0.17797 0.90976 0.0
O95 O 0.88155 0.17085 0.00821 0.0
C96 C 0.91817 0.11084 0.8564 0.0
O97 O 0.93657 0.11638 0.91869 0.0
O98 O 0.78922 0.17971 0.90901 0.0
C99 C 0.87752 0.13453 0.04273 0.0
O100 O 0.85628 0.10024 0.01448 0.0
C101 C 0.86262 0.27183 0.85525 0.0
O102 O 0.81915 0.27688 0.86508 0.0
O103 O 0.88157 0.13107 0.84212 0.0
C104 C 0.9059 0.5207 0.69837 0.0
O105 O 0.87878 0.53763 0.74618 0.0
O106 O 0.97813 0.64505 0.63498 0.0
Zn107 Zn 0.92319 0.61365 0.67338 0.0
O108 O 0.91609 0.62371 0.77777 0.0
C109 C 0.87264 0.65679 0.56324 0.0
O110 O 0.90873 0.6477 0.52584 0.0
O111 O 0.92744 0.54688 0.65753 0.0
C112 C 0.89107 0.65415 0.80395 0.0
O113 O 0.87166 0.68378 0.76253 0.0
C114 C 0.01627 0.62785 0.62072 0.0
O115 O 0.02425 0.58539 0.63512 0.0
O116 O 0.86956 0.64173 0.62572 0.0
C117 C 0.18707 0.15528 0.44891 0.0
O118 O 0.1701 0.1286 0.49725 0.0
O119 O 0.06269 0.22726 0.38434 0.0
Zn120 Zn 0.09399 0.17236 0.42317 0.0
O121 O 0.08368 0.16553 0.52756 0.0
C122 C 0.05082 0.12181 0.31321 0.0
O123 O 0.05995 0.15779 0.27565 0.0
O124 O 0.16088 0.17645 0.40753 0.0
C125 C 0.05332 0.14043 0.5537 0.0
O126 O 0.02396 0.12075 0.51221 0.0
C127 C 0.07991 0.26539 0.37055 0.0
O128 O 0.12228 0.27338 0.38576 0.0
O129 O 0.0659 0.1188 0.37568 0.0
C130 C 0.55243 0.43645 0.19828 0.0
O131 O 0.57953 0.41947 0.24611 0.0
O132 O 0.48018 0.31215 0.13489 0.0
Zn133 Zn 0.53514 0.34352 0.17327 0.0
O134 O 0.54221 0.33341 0.27767 0.0
C135 C 0.58565 0.3004 0.06317 0.0
O136 O 0.54956 0.30952 0.02577 0.0
O137 O 0.5309 0.4103 0.15741 0.0
C138 C 0.56731 0.30304 0.30391 0.0
O139 O 0.58684 0.27349 0.26254 0.0
C140 C 0.44205 0.32937 0.12059 0.0
O141 O 0.43408 0.37183 0.13492 0.0
O142 O 0.58875 0.31543 0.12563 0.0
C143 C 0.2713 0.80188 0.94878 0.0
O144 O 0.28832 0.82855 -0.00294 0.0
O145 O 0.39561 0.72987 0.88405 0.0
Zn146 Zn 0.36436 0.78474 0.92295 0.0
O147 O 0.37473 0.79147 0.02734 0.0
C148 C 0.4075 0.83535 0.81296 0.0
O149 O 0.39835 0.7994 0.77542 0.0
O150 O 0.29745 0.7807 0.90741 0.0
C151 C 0.405 0.81668 0.05345 0.0
O152 O 0.43425 0.83653 0.01192 0.0
C153 C 0.37846 0.69166 0.87058 0.0
O154 O 0.33617 0.68355 0.88623 0.0
O155 O 0.39243 0.83834 0.87544 0.0
C156 C 0.91542 0.47237 0.69802 0.0
O157 O 0.94489 0.45576 0.65345 0.0
O158 O 0.97349 0.3791 0.81526 0.0
Zn159 Zn 0.9188 0.38282 0.75243 0.0
O160 O 0.92955 0.35752 0.6543 0.0
C161 C 0.88951 0.30654 0.82062 0.0
O162 O 0.93142 0.29731 0.80394 0.0
O163 O 0.89865 0.4472 0.74538 0.0
C164 C 0.90238 0.32896 0.62814 0.0
O165 O 0.86802 0.31487 0.66556 0.0
C166 C 0.01266 0.36527 0.79945 0.0
O167 O 0.02286 0.35722 0.73328 0.0
O168 O 0.87284 0.34423 0.80263 0.0
C169 C 0.23545 0.16474 0.44845 0.0
O170 O 0.25211 0.19374 0.40322 0.0
O171 O 0.32915 0.22279 0.56597 0.0
Zn172 Zn 0.32511 0.16829 0.50302 0.0
O173 O 0.35042 0.179 0.40486 0.0
C174 C 0.40164 0.13879 0.57035 0.0
O175 O 0.41095 0.18051 0.55297 0.0
O176 O 0.26061 0.14837 0.49623 0.0
C177 C 0.37851 0.15138 0.37843 0.0
O178 O 0.39195 0.11662 0.41555 0.0
C179 C 0.34231 0.26214 0.55021 0.0
O180 O 0.3494 0.27281 0.48394 0.0
O181 O 0.36375 0.12227 0.55309 0.0
C182 C 0.5429 0.48477 0.19797 0.0
O183 O 0.51344 0.50142 0.15337 0.0
O184 O 0.48472 0.57786 0.31527 0.0
Zn185 Zn 0.53943 0.57425 0.25248 0.0
O186 O 0.52869 0.59964 0.15437 0.0
C187 C 0.56868 0.65051 0.32069 0.0
O188 O 0.52676 0.65973 0.30402 0.0
O189 O 0.55963 0.50989 0.24539 0.0
C190 C 0.55595 0.62812 0.12818 0.0
O191 O 0.59037 0.64206 0.16558 0.0
C192 C 0.44558 0.59176 0.29943 0.0
O193 O 0.43545 0.59998 0.23327 0.0
O194 O 0.58536 0.61283 0.30272 0.0
C195 C 0.22292 0.79245 0.9484 0.0
O196 O 0.20621 0.76345 0.90326 0.0
O197 O 0.12925 0.73447 0.06609 0.0
Zn198 Zn 0.13328 0.78897 0.00303 0.0
O199 O 0.10795 0.77823 0.90489 0.0
C200 C 0.05681 0.81848 0.07052 0.0
O201 O 0.04752 0.77672 0.05343 0.0
O202 O 0.19779 0.80886 -0.00385 0.0
C203 C 0.07968 0.80569 0.87849 0.0
O204 O 0.066 0.84032 0.91563 0.0
C205 C 0.11615 0.69511 0.05038 0.0
O206 O 0.10915 0.68442 -0.01588 0.0
O207 O 0.09466 0.83501 0.05301 0.0
C208 C 0.52869 0.96516 0.70702 0.0
O209 O 0.51895 0.94715 0.64571 0.0
O210 O 0.46981 0.85257 0.74083 0.0
Zn211 Zn 0.53439 0.87343 0.73989 0.0
O212 O 0.56218 0.86396 0.64466 0.0
C213 C 0.55347 0.79774 0.8288 0.0
O214 O 0.51434 0.785 0.80372 0.0
O215 O 0.53681 0.93982 0.75954 0.0
C216 C 0.56041 0.8267 0.61243 0.0
O217 O 0.53953 0.7924 0.6413 0.0
C218 C 0.44504 0.86444 0.79216 0.0
O219 O 0.46019 0.89451 0.83695 0.0
O220 O 0.56965 0.83569 0.81069 0.0
C221 C 0.24256 0.27745 -0.04284 0.0
O222 O 0.26065 0.2677 0.89588 0.0
O223 O 0.35554 0.21916 -0.00904 0.0
Zn224 Zn 0.33436 0.2836 -0.01014 0.0
O225 O 0.34361 0.31127 0.89451 0.0
C226 C 0.40992 0.30285 0.07918 0.0
O227 O 0.42268 0.26354 0.05493 0.0
O228 O 0.26788 0.28578 0.00961 0.0
C229 C 0.38106 0.31016 0.86258 0.0
O230 O 0.41574 0.29006 0.89184 0.0
C231 C 0.3436 0.19437 0.0422 0.0
O232 O 0.31329 0.20944 0.08677 0.0
O233 O 0.37202 0.31903 0.06044 0.0
C234 C 0.92973 -0.00798 0.20729 0.0
O235 O 0.93944 0.0101 0.14599 0.0
O236 O -0.01148 0.10458 0.24107 0.0
Zn237 Zn 0.92395 0.08369 0.24019 0.0
O238 O 0.89608 0.09319 0.14501 0.0
C239 C 0.90486 0.15939 0.32892 0.0
O240 O 0.94391 0.17218 0.30358 0.0
O241 O 0.9216 0.01729 0.25983 0.0
C242 C 0.89787 0.13044 0.11266 0.0
O243 O 0.91881 0.16473 0.14137 0.0
C244 C 0.01329 0.09272 0.29243 0.0
O245 O -0.00186 0.06263 0.33725 0.0
O246 O 0.88873 0.12139 0.31103 0.0
C247 C 0.21576 0.67972 0.45722 0.0
O248 O 0.19767 0.68939 0.39589 0.0
O249 O 0.10276 0.73812 0.49101 0.0
Zn250 Zn 0.12395 0.67368 0.48996 0.0
O251 O 0.1147 0.64603 0.39463 0.0
C252 C 0.04839 0.65439 0.57927 0.0
O253 O 0.03561 0.69369 0.55495 0.0
O254 O 0.19044 0.67149 0.50971 0.0
C255 C 0.07723 0.64702 0.36272 0.0
O256 O 0.04249 0.66699 0.39198 0.0
C257 C 0.11467 0.76287 0.54228 0.0
O258 O 0.14496 0.74777 0.58689 0.0
O259 O 0.0863 0.63823 0.56059 0.0
C260 C 0.53064 0.01408 0.71378 0.0
O261 O 0.53439 0.03272 0.77618 0.0
O262 O 0.47311 0.13124 0.62103 0.0
Zn263 Zn 0.53029 0.10614 0.65975 0.0
O264 O 0.53696 0.13041 0.75841 0.0
C265 C 0.59664 0.16792 0.60694 0.0
O266 O 0.58955 0.18675 0.66851 0.0
O267 O 0.5286 0.03846 0.65876 0.0
C268 C 0.57348 0.12696 0.79264 0.0
O269 O 0.60819 0.10655 0.76397 0.0
C270 C 0.43638 0.11196 0.60519 0.0
O271 O 0.43113 0.06867 0.61604 0.0
O272 O 0.57759 0.13077 0.5928 0.0
C273 C 0.19356 0.27923 -0.03609 0.0
O274 O 0.17487 0.2828 0.02633 0.0
O275 O 0.07638 0.22168 0.8716 0.0
Zn276 Zn 0.1014 0.27896 0.90966 0.0
O277 O 0.0769 0.28608 0.00813 0.0
C278 C 0.04018 0.34605 0.85624 0.0
O279 O 0.02175 0.34044 0.9185 0.0
O280 O 0.16919 0.27726 0.90888 0.0
C281 C 0.08086 0.32244 0.04251 0.0
O282 O 0.10199 0.35676 0.01411 0.0
C283 C 0.09577 0.18508 0.85532 0.0
O284 O 0.13924 0.18001 0.86518 0.0
O285 O 0.07679 0.32587 0.84198 0.0
C286 C 0.92783 0.94308 0.21398 0.0
O287 O 0.92415 0.92437 0.27637 0.0
O288 O -0.0146 0.82603 0.12133 0.0
Zn289 Zn 0.92815 0.85108 0.15985 0.0
O290 O 0.92136 0.82672 0.25846 0.0
C291 C 0.86179 0.78938 0.10685 0.0
O292 O 0.86871 0.77056 0.16851 0.0
O293 O 0.92983 0.91877 0.15893 0.0
C294 C 0.88483 0.83022 0.29265 0.0
O295 O 0.85019 0.85077 0.26395 0.0
C296 C 0.02207 0.84533 0.10526 0.0
O297 O 0.02725 0.88866 0.1157 0.0
O298 O 0.88095 0.82649 0.09271 0.0
C299 C 0.26476 0.67793 0.46397 0.0
O300 O 0.28347 0.67452 0.52641 0.0
O301 O 0.38188 0.73537 0.37151 0.0
Zn302 Zn 0.3569 0.67807 0.40962 0.0
O303 O 0.38149 0.67093 0.50805 0.0
C304 C 0.41802 0.61086 0.35623 0.0
O305 O 0.43635 0.61619 0.41862 0.0
O306 O 0.28912 0.67975 0.40891 0.0
C307 C 0.37741 0.63464 0.54263 0.0
O308 O 0.3561 0.60038 0.51447 0.0
C309 C 0.36246 0.77195 0.35514 0.0
O310 O 0.31898 0.77698 0.36493 0.0
O311 O 0.3815 0.63122 0.34192 0.0
C312 C 0.40587 0.02081 0.19825 0.0
O313 O 0.3787 0.03776 0.24598 0.0
O314 O 0.47822 0.14513 0.13503 0.0
Zn315 Zn 0.42325 0.11374 0.17336 0.0
O316 O 0.41612 0.12378 0.27775 0.0
C317 C 0.37277 0.1569 0.06318 0.0
O318 O 0.40887 0.14779 0.02582 0.0
O319 O 0.42748 0.04698 0.1575 0.0
C320 C 0.39112 0.15423 0.30393 0.0
O321 O 0.37173 0.18389 0.26252 0.0
C322 C 0.51634 0.12791 0.12073 0.0
O323 O 0.52428 0.08542 0.13501 0.0
O324 O 0.36966 0.14185 0.12566 0.0
C325 C 0.68698 0.65535 0.94884 0.0
O326 O 0.66997 0.62863 -0.00289 0.0
O327 O 0.56263 0.72742 0.88425 0.0
Zn328 Zn 0.59391 0.67252 0.92309 0.0
O329 O 0.58357 0.66569 0.02748 0.0
C330 C 0.55075 0.62199 0.81309 0.0
O331 O 0.55987 0.65797 0.77553 0.0
O332 O 0.66081 0.67658 0.9075 0.0
C333 C 0.55322 0.64057 0.05359 0.0
O334 O 0.52387 0.62087 0.01208 0.0
C335 C 0.57983 0.76557 0.87052 0.0
O336 O 0.62219 0.77358 0.8858 0.0
O337 O 0.56582 0.61896 0.87557 0.0
C338 C 0.05231 0.9363 0.69844 0.0
O339 O 0.07943 0.91929 0.74621 0.0
O340 O -0.02 0.81205 0.63491 0.0
Zn341 Zn 0.03495 0.84339 0.67336 0.0
O342 O 0.04201 0.83323 0.77775 0.0
C343 C 0.08548 0.80033 0.56322 0.0
O344 O 0.04939 0.80945 0.52581 0.0
O345 O 0.03073 0.91019 0.65759 0.0
C346 C 0.06713 0.80286 0.80395 0.0
O347 O 0.08671 0.77337 0.76255 0.0
C348 C 0.94184 0.82925 0.6207 0.0
O349 O 0.93383 0.87168 0.63517 0.0
O350 O 0.08856 0.81533 0.6257 0.0
C351 C 0.77144 0.30187 0.44882 0.0
O352 O 0.78848 0.32859 0.49699 0.0
O353 O 0.89572 0.22972 0.38421 0.0
Zn354 Zn 0.86448 0.28461 0.42307 0.0
O355 O 0.87485 0.29137 0.52745 0.0
C356 C 0.90759 0.33519 0.31302 0.0
O357 O 0.89842 0.29924 0.27548 0.0
O358 O 0.79758 0.28059 0.40753 0.0
C359 C 0.90513 0.31657 0.55355 0.0
O360 O 0.93438 0.33641 0.51202 0.0
C361 C 0.87854 0.19153 0.37068 0.0
O362 O 0.83623 0.18346 0.38622 0.0
O363 O 0.89256 0.33818 0.37552 0.0
C364 C 0.41536 0.97248 0.19794 0.0
O365 O 0.44488 0.95585 0.15347 0.0
O366 O 0.47334 0.87923 0.31516 0.0
Zn367 Zn 0.41865 0.88294 0.25232 0.0
O368 O 0.42941 0.85763 0.15421 0.0
C369 C 0.38935 0.80667 0.32053 0.0
O370 O 0.43127 0.79745 0.30388 0.0
O371 O 0.39851 0.94732 0.24524 0.0
C372 C 0.40226 0.82905 0.12805 0.0
O373 O 0.3679 0.81494 0.16547 0.0
C374 C 0.5125 0.86541 0.29935 0.0
O375 O 0.52271 0.85732 0.2332 0.0
O376 O 0.37268 0.84435 0.30252 0.0
C377 C 0.73536 0.66477 0.94844 0.0
O378 O 0.75205 0.69381 0.90331 0.0
O379 O 0.82907 0.72268 0.06599 0.0
Zn380 Zn 0.82502 0.66819 0.00301 0.0
O381 O 0.85036 0.6789 0.90486 0.0
C382 C 0.90152 0.63864 0.07039 0.0
O383 O 0.91084 0.68037 0.05306 0.0
O384 O 0.7605 0.64831 -0.00384 0.0
C385 C 0.87847 0.6513 0.87846 0.0
O386 O 0.89193 0.61656 0.91558 0.0
C387 C 0.84222 0.76203 0.05026 0.0
O388 O 0.84933 0.77271 -0.016 0.0
O389 O 0.86362 0.62214 0.05309 0.0
C390 C 0.04283 -0.01536 0.69816 0.0
O391 O 0.01335 0.00133 0.65364 0.0
O392 O -0.01514 0.07783 0.81546 0.0
Zn393 Zn 0.03954 0.07413 0.75262 0.0
O394 O 0.02879 0.09952 0.65451 0.0
C395 C 0.06887 0.15039 0.82073 0.0
O396 O 0.02697 0.15963 0.80399 0.0
O397 O 0.05965 0.00974 0.74553 0.0
C398 C 0.05608 0.12797 0.62829 0.0
O399 O 0.09053 0.14187 0.66565 0.0
C400 C 0.94569 0.09165 0.79962 0.0
O401 O 0.93547 0.09974 0.73346 0.0
O402 O 0.08552 0.11268 0.80282 0.0
C403 C 0.72305 0.29249 0.44846 0.0
O404 O 0.70632 0.26342 0.40345 0.0
O405 O 0.62936 0.23466 0.5661 0.0
Zn406 Zn 0.63341 0.28914 0.50302 0.0
O407 O 0.60808 0.27839 0.40488 0.0
C408 C 0.55693 0.31868 0.57038 0.0
O409 O 0.54763 0.27693 0.55322 0.0
O410 O 0.69793 0.309 0.49614 0.0
C411 C 0.57987 0.3059 0.37844 0.0
O412 O 0.56626 0.34057 0.41552 0.0
C413 C 0.61629 0.19529 0.55039 0.0
O414 O 0.60933 0.18459 0.48413 0.0
O415 O 0.5948 0.3352 0.55298 0.0
loop_
_geom_bond_atom_site_label_1
_geom_bond_atom_site_label_2
_geom_bond_distance
_geom_bond_site_symmetry_2
_ccdc_geom_bond_type
C0 O1 1.160 . S
C0 O7 1.185 . S
O1 C0 1.160 . S
O2 Zn3 1.899 1_655 S
O2 C10 1.284 . S
Zn3 O2 1.899 1_455 S
Zn3 O4 2.032 . S
Zn3 O7 2.086 . S
Zn3 O12 1.977 . S
O4 Zn3 2.032 . S
O4 C8 1.278 . S
C5 O6 1.203 . S
C5 O12 1.267 . S
O6 C5 1.203 . S
O7 C0 1.185 . S
O7 Zn3 2.086 . S
C8 O4 1.278 . S
C8 O9 1.211 . S
O9 C8 1.211 . S
C10 O2 1.284 . S
C10 O11 1.273 . S
O11 C10 1.273 . S
O12 Zn3 1.977 . S
O12 C5 1.267 . S
C13 O14 1.160 . S
C13 O20 1.185 . S
O14 C13 1.160 . S
O15 Zn16 1.899 . S
O15 C23 1.284 . S
Zn16 O15 1.899 . S
Zn16 O17 2.032 . S
Zn16 O20 2.086 . S
Zn16 O25 1.977 . S
O17 Zn16 2.032 . S
O17 C21 1.278 . S
C18 O19 1.203 . S
C18 O25 1.267 . S
O19 C18 1.203 . S
O20 C13 1.185 . S
O20 Zn16 2.086 . S
C21 O17 1.278 . S
C21 O22 1.211 . S
O22 C21 1.211 . S
C23 O15 1.284 . S
C23 O24 1.273 . S
O24 C23 1.273 . S
O25 Zn16 1.977 . S
O25 C18 1.267 . S
C26 O27 1.160 . S
C26 O33 1.185 . S
O27 C26 1.160 . S
O28 Zn29 1.899 . S
O28 C36 1.284 . S
Zn29 O28 1.899 . S
Zn29 O30 2.032 . S
Zn29 O33 2.086 . S
Zn29 O38 1.977 . S
O30 Zn29 2.032 . S
O30 C34 1.278 . S
C31 O32 1.203 . S
C31 O38 1.267 . S
O32 C31 1.203 . S
O33 C26 1.185 . S
O33 Zn29 2.086 . S
C34 O30 1.278 . S
C34 O35 1.211 . S
O35 C34 1.211 . S
C36 O28 1.284 . S
C36 O37 1.273 . S
O37 C36 1.273 . S
O38 Zn29 1.977 . S
O38 C31 1.267 . S
C39 O40 1.160 . S
C39 O46 1.185 . S
O40 C39 1.160 . S
O41 Zn42 1.899 . S
O41 C49 1.284 . S
Zn42 O41 1.899 . S
Zn42 O43 2.032 1_554 S
Zn42 O46 2.086 . S
Zn42 O51 1.977 . S
O43 Zn42 2.032 1_556 S
O43 C47 1.278 . S
C44 O45 1.203 . S
C44 O51 1.267 . S
O45 C44 1.203 . S
O46 C39 1.185 . S
O46 Zn42 2.086 . S
C47 O43 1.278 . S
C47 O48 1.211 . S
O48 C47 1.211 . S
C49 O41 1.284 . S
C49 O50 1.273 . S
O50 C49 1.273 . S
O51 Zn42 1.977 . S
O51 C44 1.267 . S
C52 O53 1.160 . S
C52 O59 1.185 . S
O53 C52 1.160 . S
O54 Zn55 1.899 1_655 S
O54 C62 1.284 . S
Zn55 O54 1.899 1_455 S
Zn55 O56 2.032 . S
Zn55 O59 2.086 . S
Zn55 O64 1.977 . S
O56 Zn55 2.032 . S
O56 C60 1.278 . S
C57 O58 1.203 . S
C57 O64 1.267 . S
O58 C57 1.203 . S
O59 C52 1.185 . S
O59 Zn55 2.086 . S
C60 O56 1.278 . S
C60 O61 1.211 . S
O61 C60 1.211 . S
C62 O54 1.284 . S
C62 O63 1.273 . S
O63 C62 1.273 . S
O64 Zn55 1.977 . S
O64 C57 1.267 . S
C65 O66 1.160 . S
C65 O72 1.185 . S
O66 C65 1.160 . S
O67 Zn68 1.899 . S
O67 C75 1.284 . S
Zn68 O67 1.899 . S
Zn68 O69 2.032 . S
Zn68 O72 2.086 . S
Zn68 O77 1.977 . S
O69 Zn68 2.032 . S
O69 C73 1.278 . S
C70 O71 1.203 . S
C70 O77 1.267 . S
O71 C70 1.203 . S
O72 C65 1.185 . S
O72 Zn68 2.086 . S
C73 O69 1.278 . S
C73 O74 1.211 . S
O74 C73 1.211 . S
C75 O67 1.284 . S
C75 O76 1.273 . S
O76 C75 1.273 . S
O77 Zn68 1.977 . S
O77 C70 1.267 . S
C78 O79 1.160 . S
C78 O85 1.185 . S
O79 C78 1.160 . S
O80 Zn81 1.899 . S
O80 C88 1.284 . S
Zn81 O80 1.899 . S
Zn81 O82 2.032 . S
Zn81 O85 2.086 . S
Zn81 O90 1.977 . S
O82 Zn81 2.032 . S
O82 C86 1.278 . S
C83 O84 1.203 . S
C83 O90 1.267 . S
O84 C83 1.203 . S
O85 C78 1.185 . S
O85 Zn81 2.086 . S
C86 O82 1.278 . S
C86 O87 1.211 . S
O87 C86 1.211 . S
C88 O80 1.284 . S
C88 O89 1.273 . S
O89 C88 1.273 . S
O90 Zn81 1.977 . S
O90 C83 1.267 . S
C91 O92 1.160 . S
C91 O98 1.185 . S
O92 C91 1.160 . S
O93 Zn94 1.899 . S
O93 C101 1.284 . S
Zn94 O93 1.899 . S
Zn94 O95 2.032 1_556 S
Zn94 O98 2.086 . S
Zn94 O103 1.977 . S
O95 Zn94 2.032 1_554 S
O95 C99 1.278 . S
C96 O97 1.203 . S
C96 O103 1.267 . S
O97 C96 1.203 . S
O98 C91 1.185 . S
O98 Zn94 2.086 . S
C99 O95 1.278 . S
C99 O100 1.211 . S
O100 C99 1.211 . S
C101 O93 1.284 . S
C101 O102 1.273 . S
O102 C101 1.273 . S
O103 Zn94 1.977 . S
O103 C96 1.267 . S
C104 O105 1.160 . S
C104 O111 1.185 . S
O105 C104 1.160 . S
O106 Zn107 1.899 1_455 S
O106 C114 1.284 . S
Zn107 O106 1.899 1_655 S
Zn107 O108 2.032 . S
Zn107 O111 2.086 . S
Zn107 O116 1.977 . S
O108 Zn107 2.032 . S
O108 C112 1.278 . S
C109 O110 1.203 . S
C109 O116 1.267 . S
O110 C109 1.203 . S
O111 C104 1.185 . S
O111 Zn107 2.086 . S
C112 O108 1.278 . S
C112 O113 1.211 . S
O113 C112 1.211 . S
C114 O106 1.284 . S
C114 O115 1.273 . S
O115 C114 1.273 . S
O116 Zn107 1.977 . S
O116 C109 1.267 . S
C117 O118 1.160 . S
C117 O124 1.185 . S
O118 C117 1.160 . S
O119 Zn120 1.899 . S
O119 C127 1.284 . S
Zn120 O119 1.899 . S
Zn120 O121 2.032 . S
Zn120 O124 2.086 . S
Zn120 O129 1.977 . S
O121 Zn120 2.032 . S
O121 C125 1.278 . S
C122 O123 1.203 . S
C122 O129 1.267 . S
O123 C122 1.203 . S
O124 C117 1.185 . S
O124 Zn120 2.086 . S
C125 O121 1.278 . S
C125 O126 1.211 . S
O126 C125 1.211 . S
C127 O119 1.284 . S
C127 O128 1.273 . S
O128 C127 1.273 . S
O129 Zn120 1.977 . S
O129 C122 1.267 . S
C130 O131 1.160 . S
C130 O137 1.185 . S
O131 C130 1.160 . S
O132 Zn133 1.899 . S
O132 C140 1.284 . S
Zn133 O132 1.899 . S
Zn133 O134 2.032 . S
Zn133 O137 2.086 . S
Zn133 O142 1.977 . S
O134 Zn133 2.032 . S
O134 C138 1.278 . S
C135 O136 1.203 . S
C135 O142 1.267 . S
O136 C135 1.203 . S
O137 C130 1.185 . S
O137 Zn133 2.086 . S
C138 O134 1.278 . S
C138 O139 1.211 . S
O139 C138 1.211 . S
C140 O132 1.284 . S
C140 O141 1.273 . S
O141 C140 1.273 . S
O142 Zn133 1.977 . S
O142 C135 1.267 . S
C143 O144 1.160 . S
C143 O150 1.185 . S
O144 C143 1.160 . S
O145 Zn146 1.899 . S
O145 C153 1.284 . S
Zn146 O145 1.899 . S
Zn146 O147 2.032 1_556 S
Zn146 O150 2.086 . S
Zn146 O155 1.977 . S
O147 Zn146 2.032 1_554 S
O147 C151 1.278 . S
C148 O149 1.203 . S
C148 O155 1.267 . S
O149 C148 1.203 . S
O150 C143 1.185 . S
O150 Zn146 2.086 . S
C151 O147 1.278 . S
C151 O152 1.211 . S
O152 C151 1.211 . S
C153 O145 1.284 . S
C153 O154 1.273 . S
O154 C153 1.273 . S
O155 Zn146 1.977 . S
O155 C148 1.267 . S
C156 O157 1.160 . S
C156 O163 1.185 . S
O157 C156 1.160 . S
O158 Zn159 1.899 1_455 S
O158 C166 1.284 . S
Zn159 O158 1.899 1_655 S
Zn159 O160 2.032 . S
Zn159 O163 2.086 . S
Zn159 O168 1.977 . S
O160 Zn159 2.032 . S
O160 C164 1.278 . S
C161 O162 1.203 . S
C161 O168 1.267 . S
O162 C161 1.203 . S
O163 C156 1.185 . S
O163 Zn159 2.086 . S
C164 O160 1.278 . S
C164 O165 1.211 . S
O165 C164 1.211 . S
C166 O158 1.284 . S
C166 O167 1.273 . S
O167 C166 1.273 . S
O168 Zn159 1.977 . S
O168 C161 1.267 . S
C169 O170 1.160 . S
C169 O176 1.185 . S
O170 C169 1.160 . S
O171 Zn172 1.899 . S
O171 C179 1.284 . S
Zn172 O171 1.899 . S
Zn172 O173 2.032 . S
Zn172 O176 2.086 . S
Zn172 O181 1.977 . S
O173 Zn172 2.032 . S
O173 C177 1.278 . S
C174 O175 1.203 . S
C174 O181 1.267 . S
O175 C174 1.203 . S
O176 C169 1.185 . S
O176 Zn172 2.086 . S
C177 O173 1.278 . S
C177 O178 1.211 . S
O178 C177 1.211 . S
C179 O171 1.284 . S
C179 O180 1.273 . S
O180 C179 1.273 . S
O181 Zn172 1.977 . S
O181 C174 1.267 . S
C182 O183 1.160 . S
C182 O189 1.185 . S
O183 C182 1.160 . S
O184 Zn185 1.899 . S
O184 C192 1.284 . S
Zn185 O184 1.899 . S
Zn185 O186 2.032 . S
Zn185 O189 2.086 . S
Zn185 O194 1.977 . S
O186 Zn185 2.032 . S
O186 C190 1.278 . S
C187 O188 1.203 . S
C187 O194 1.267 . S
O188 C187 1.203 . S
O189 C182 1.185 . S
O189 Zn185 2.086 . S
C190 O186 1.278 . S
C190 O191 1.211 . S
O191 C190 1.211 . S
C192 O184 1.284 . S
C192 O193 1.273 . S
O193 C192 1.273 . S
O194 Zn185 1.977 . S
O194 C187 1.267 . S
C195 O196 1.160 . S
C195 O202 1.185 . S
O196 C195 1.160 . S
O197 Zn198 1.899 . S
O197 C205 1.284 . S
Zn198 O197 1.899 . S
Zn198 O199 2.032 1_554 S
Zn198 O202 2.086 . S
Zn198 O207 1.977 . S
O199 Zn198 2.032 1_556 S
O199 C203 1.278 . S
C200 O201 1.203 . S
C200 O207 1.267 . S
O201 C200 1.203 . S
O202 C195 1.185 . S
O202 Zn198 2.086 . S
C203 O199 1.278 . S
C203 O204 1.211 . S
O204 C203 1.211 . S
C205 O197 1.284 . S
C205 O206 1.273 . S
O206 C205 1.273 . S
O207 Zn198 1.977 . S
O207 C200 1.267 . S
C208 O209 1.160 . S
C208 O215 1.185 . S
O209 C208 1.160 . S
O210 Zn211 1.899 . S
O210 C218 1.284 . S
Zn211 O210 1.899 . S
Zn211 O212 2.032 . S
Zn211 O215 2.086 . S
Zn211 O220 1.977 . S
O212 Zn211 2.032 . S
O212 C216 1.278 . S
C213 O214 1.203 . S
C213 O220 1.267 . S
O214 C213 1.203 . S
O215 C208 1.185 . S
O215 Zn211 2.086 . S
C216 O212 1.278 . S
C216 O217 1.211 . S
O217 C216 1.211 . S
C218 O210 1.284 . S
C218 O219 1.273 . S
O219 C218 1.273 . S
O220 Zn211 1.977 . S
O220 C213 1.267 . S
C221 O222 1.160 . S
C221 O228 1.185 . S
O222 C221 1.160 . S
O223 Zn224 1.899 . S
O223 C231 1.284 . S
Zn224 O223 1.899 . S
Zn224 O225 2.032 1_554 S
Zn224 O228 2.086 . S
Zn224 O233 1.977 . S
O225 Zn224 2.032 1_556 S
O225 C229 1.278 . S
C226 O227 1.203 . S
C226 O233 1.267 . S
O227 C226 1.203 . S
O228 C221 1.185 . S
O228 Zn224 2.086 . S
C229 O225 1.278 . S
C229 O230 1.211 . S
O230 C229 1.211 . S
C231 O223 1.284 . S
C231 O232 1.273 . S
O232 C231 1.273 . S
O233 Zn224 1.977 . S
O233 C226 1.267 . S
C234 O235 1.160 . S
C234 O241 1.185 . S
O235 C234 1.160 . S
O236 Zn237 1.899 1_455 S
O236 C244 1.284 . S
Zn237 O236 1.899 1_655 S
Zn237 O238 2.032 . S
Zn237 O241 2.086 . S
Zn237 O246 1.977 . S
O238 Zn237 2.032 . S
O238 C242 1.278 . S
C239 O240 1.203 . S
C239 O246 1.267 . S
O240 C239 1.203 . S
O241 C234 1.185 . S
O241 Zn237 2.086 . S
C242 O238 1.278 . S
C242 O243 1.211 . S
O243 C242 1.211 . S
C244 O236 1.284 . S
C244 O245 1.273 . S
O245 C244 1.273 . S
O246 Zn237 1.977 . S
O246 C239 1.267 . S
C247 O248 1.160 . S
C247 O254 1.185 . S
O248 C247 1.160 . S
O249 Zn250 1.899 . S
O249 C257 1.284 . S
Zn250 O249 1.899 . S
Zn250 O251 2.032 . S
Zn250 O254 2.086 . S
Zn250 O259 1.977 . S
O251 Zn250 2.032 . S
O251 C255 1.278 . S
C252 O253 1.203 . S
C252 O259 1.267 . S
O253 C252 1.203 . S
O254 C247 1.185 . S
O254 Zn250 2.086 . S
C255 O251 1.278 . S
C255 O256 1.211 . S
O256 C255 1.211 . S
C257 O249 1.284 . S
C257 O258 1.273 . S
O258 C257 1.273 . S
O259 Zn250 1.977 . S
O259 C252 1.267 . S
C260 O261 1.160 . S
C260 O267 1.185 . S
O261 C260 1.160 . S
O262 Zn263 1.899 . S
O262 C270 1.284 . S
Zn263 O262 1.899 . S
Zn263 O264 2.032 . S
Zn263 O267 2.086 . S
Zn263 O272 1.977 . S
O264 Zn263 2.032 . S
O264 C268 1.278 . S
C265 O266 1.203 . S
C265 O272 1.267 . S
O266 C265 1.203 . S
O267 C260 1.185 . S
O267 Zn263 2.086 . S
C268 O264 1.278 . S
C268 O269 1.211 . S
O269 C268 1.211 . S
C270 O262 1.284 . S
C270 O271 1.273 . S
O271 C270 1.273 . S
O272 Zn263 1.977 . S
O272 C265 1.267 . S
C273 O274 1.160 . S
C273 O280 1.185 . S
O274 C273 1.160 . S
O275 Zn276 1.899 . S
O275 C283 1.284 . S
Zn276 O275 1.899 . S
Zn276 O277 2.032 1_556 S
Zn276 O280 2.086 . S
Zn276 O285 1.977 . S
O277 Zn276 2.032 1_554 S
O277 C281 1.278 . S
C278 O279 1.203 . S
C278 O285 1.267 . S
O279 C278 1.203 . S
O280 C273 1.185 . S
O280 Zn276 2.086 . S
C281 O277 1.278 . S
C281 O282 1.211 . S
O282 C281 1.211 . S
C283 O275 1.284 . S
C283 O284 1.273 . S
O284 C283 1.273 . S
O285 Zn276 1.977 . S
O285 C278 1.267 . S
C286 O287 1.160 . S
C286 O293 1.185 . S
O287 C286 1.160 . S
O288 Zn289 1.899 1_455 S
O288 C296 1.284 . S
Zn289 O288 1.899 1_655 S
Zn289 O290 2.032 . S
Zn289 O293 2.086 . S
Zn289 O298 1.977 . S
O290 Zn289 2.032 . S
O290 C294 1.278 . S
C291 O292 1.203 . S
C291 O298 1.267 . S
O292 C291 1.203 . S
O293 C286 1.185 . S
O293 Zn289 2.086 . S
C294 O290 1.278 . S
C294 O295 1.211 . S
O295 C294 1.211 . S
C296 O288 1.284 . S
C296 O297 1.273 . S
O297 C296 1.273 . S
O298 Zn289 1.977 . S
O298 C291 1.267 . S
C299 O300 1.160 . S
C299 O306 1.185 . S
O300 C299 1.160 . S
O301 Zn302 1.899 . S
O301 C309 1.284 . S
Zn302 O301 1.899 . S
Zn302 O303 2.032 . S
Zn302 O306 2.086 . S
Zn302 O311 1.977 . S
O303 Zn302 2.032 . S
O303 C307 1.278 . S
C304 O305 1.203 . S
C304 O311 1.267 . S
O305 C304 1.203 . S
O306 C299 1.185 . S
O306 Zn302 2.086 . S
C307 O303 1.278 . S
C307 O308 1.211 . S
O308 C307 1.211 . S
C309 O301 1.284 . S
C309 O310 1.273 . S
O310 C309 1.273 . S
O311 Zn302 1.977 . S
O311 C304 1.267 . S
C312 O313 1.160 . S
C312 O319 1.185 . S
O313 C312 1.160 . S
O314 Zn315 1.899 . S
O314 C322 1.284 . S
Zn315 O314 1.899 . S
Zn315 O316 2.032 . S
Zn315 O319 2.086 . S
Zn315 O324 1.977 . S
O316 Zn315 2.032 . S
O316 C320 1.278 . S
C317 O318 1.203 . S
C317 O324 1.267 . S
O318 C317 1.203 . S
O319 C312 1.185 . S
O319 Zn315 2.086 . S
C320 O316 1.278 . S
C320 O321 1.211 . S
O321 C320 1.211 . S
C322 O314 1.284 . S
C322 O323 1.273 . S
O323 C322 1.273 . S
O324 Zn315 1.977 . S
O324 C317 1.267 . S
C325 O326 1.160 . S
C325 O332 1.185 . S
O326 C325 1.160 . S
O327 Zn328 1.899 . S
O327 C335 1.284 . S
Zn328 O327 1.899 . S
Zn328 O329 2.032 1_556 S
Zn328 O332 2.086 . S
Zn328 O337 1.977 . S
O329 Zn328 2.032 1_554 S
O329 C333 1.278 . S
C330 O331 1.203 . S
C330 O337 1.267 . S
O331 C330 1.203 . S
O332 C325 1.185 . S
O332 Zn328 2.086 . S
C333 O329 1.278 . S
C333 O334 1.211 . S
O334 C333 1.211 . S
C335 O327 1.284 . S
C335 O336 1.273 . S
O336 C335 1.273 . S
O337 Zn328 1.977 . S
O337 C330 1.267 . S
C338 O339 1.160 . S
C338 O345 1.185 . S
O339 C338 1.160 . S
O340 Zn341 1.899 1_655 S
O340 C348 1.284 . S
Zn341 O340 1.899 1_455 S
Zn341 O342 2.032 . S
Zn341 O345 2.086 . S
Zn341 O350 1.977 . S
O342 Zn341 2.032 . S
O342 C346 1.278 . S
C343 O344 1.203 . S
C343 O350 1.267 . S
O344 C343 1.203 . S
O345 C338 1.185 . S
O345 Zn341 2.086 . S
C346 O342 1.278 . S
C346 O347 1.211 . S
O347 C346 1.211 . S
C348 O340 1.284 . S
C348 O349 1.273 . S
O349 C348 1.273 . S
O350 Zn341 1.977 . S
O350 C343 1.267 . S
C351 O352 1.160 . S
C351 O358 1.185 . S
O352 C351 1.160 . S
O353 Zn354 1.899 . S
O353 C361 1.284 . S
Zn354 O353 1.899 . S
Zn354 O355 2.032 . S
Zn354 O358 2.086 . S
Zn354 O363 1.977 . S
O355 Zn354 2.032 . S
O355 C359 1.278 . S
C356 O357 1.203 . S
C356 O363 1.267 . S
O357 C356 1.203 . S
O358 C351 1.185 . S
O358 Zn354 2.086 . S
C359 O355 1.278 . S
C359 O360 1.211 . S
O360 C359 1.211 . S
C361 O353 1.284 . S
C361 O362 1.273 . S
O362 C361 1.273 . S
O363 Zn354 1.977 . S
O363 C356 1.267 . S
C364 O365 1.160 . S
C364 O371 1.185 . S
O365 C364 1.160 . S
O366 Zn367 1.899 . S
O366 C374 1.284 . S
Zn367 O366 1.899 . S
Zn367 O368 2.032 . S
Zn367 O371 2.086 . S
Zn367 O376 1.977 . S
O368 Zn367 2.032 . S
O368 C372 1.278 . S
C369 O370 1.203 . S
C369 O376 1.267 . S
O370 C369 1.203 . S
O371 C364 1.185 . S
O371 Zn367 2.086 . S
C372 O368 1.278 . S
C372 O373 1.211 . S
O373 C372 1.211 . S
C374 O366 1.284 . S
C374 O375 1.273 . S
O375 C374 1.273 . S
O376 Zn367 1.977 . S
O376 C369 1.267 . S
C377 O378 1.160 . S
C377 O384 1.185 . S
O378 C377 1.160 . S
O379 Zn380 1.899 . S
O379 C387 1.284 . S
Zn380 O379 1.899 . S
Zn380 O381 2.032 1_554 S
Zn380 O384 2.086 . S
Zn380 O389 1.977 . S
O381 Zn380 2.032 1_556 S
O381 C385 1.278 . S
C382 O383 1.203 . S
C382 O389 1.267 . S
O383 C382 1.203 . S
O384 C377 1.185 . S
O384 Zn380 2.086 . S
C385 O381 1.278 . S
C385 O386 1.211 . S
O386 C385 1.211 . S
C387 O379 1.284 . S
C387 O388 1.273 . S
O388 C387 1.273 . S
O389 Zn380 1.977 . S
O389 C382 1.267 . S
C390 O391 1.160 . S
C390 O397 1.185 . S
O391 C390 1.160 . S
O392 Zn393 1.899 1_655 S
O392 C400 1.284 . S
Zn393 O392 1.899 1_455 S
Zn393 O394 2.032 . S
Zn393 O397 2.086 . S
Zn393 O402 1.977 . S
O394 Zn393 2.032 . S
O394 C398 1.278 . S
C395 O396 1.203 . S
C395 O402 1.267 . S
O396 C395 1.203 . S
O397 C390 1.185 . S
O397 Zn393 2.086 . S
C398 O394 1.278 . S
C398 O399 1.211 . S
O399 C398 1.211 . S
C400 O392 1.284 . S
C400 O401 1.273 . S
O401 C400 1.273 . S
O402 Zn393 1.977 . S
O402 C395 1.267 . S
C403 O404 1.160 . S
C403 O410 1.185 . S
O404 C403 1.160 . S
O405 Zn406 1.899 . S
O405 C413 1.284 . S
Zn406 O405 1.899 . S
Zn406 O407 2.032 . S
Zn406 O410 2.086 . S
Zn406 O415 1.977 . S
O407 Zn406 2.032 . S
O407 C411 1.278 . S
C408 O409 1.203 . S
C408 O415 1.267 . S
O409 C408 1.203 . S
O410 C403 1.185 . S
O410 Zn406 2.086 . S
C411 O407 1.278 . S
C411 O412 1.211 . S
O412 C411 1.211 . S
C413 O405 1.284 . S
C413 O414 1.273 . S
O414 C413 1.273 . S
O415 Zn406 1.977 . S
O415 C408 1.267 . S
C8 C281 1.233 . S
C294 C21 1.233 . S
C34 C307 1.233 . S
C268 C47 1.233 . S
C60 C255 1.233 . S
C73 C216 1.233 . S
C229 C86 1.233 . S
C99 C242 1.233 . S
C112 C385 1.233 . S
C125 C398 1.233 . S
C411 C138 1.233 . S
C372 C151 1.233 . S
C164 C359 1.233 . S
C320 C177 1.233 . S
C190 C333 1.233 . S
C346 C203 1.233 . S
C5 C127 1.182 . S
C18 C348 1.182 . S
C153 C31 1.182 . S
C44 C322 1.182 . S
C57 C205 1.182 . S
C374 C70 1.182 . S
C179 C83 1.182 . S
C400 C96 1.182 . S
C109 C23 1.182 . S
C244 C122 1.182 . S
C49 C135 1.182 . S
C148 C218 1.182 . S
C101 C161 1.182 . S
C270 C174 1.182 . S
C75 C187 1.182 . S
C200 C296 1.182 . S
C335 C213 1.182 . S
C140 C226 1.182 . S
C361 C239 1.182 . S
C252 C114 1.182 . S
C413 C265 1.182 . S
C166 C278 1.182 . S
C387 C291 1.182 . S
C304 C192 1.182 . S
C317 C231 1.182 . S
C36 C330 1.182 . S
C343 C257 1.182 . S
C356 C10 1.182 . S
C369 C309 1.182 . S
C62 C382 1.182 . S
C283 C395 1.182 . S
C408 C88 1.182 . S
C0 C52 1.666 . S
C13 C65 1.666 . S
C78 C26 1.666 . S
C91 C39 1.666 1_556 S
C156 C104 1.666 . S
C169 C117 1.666 . S
C182 C130 1.666 . S
C195 C143 1.666 1_554 S
C208 C260 1.666 1_565 S
C221 C273 1.666 1_554 S
C234 C286 1.666 1_545 S
C299 C247 1.666 . S
C312 C364 1.666 1_545 S
C377 C325 1.666 1_554 S
C390 C338 1.666 1_545 S
C403 C351 1.666 . S
