# Generated by pormake.
# Topology snk, (6)-cn, num edge types: 1
# Building blocks:
#     Node 0, Type 0, BuildingBlock: CUKXOW_clean_sbu_0, # of connection points: 6
#     Node 1, Type 0, BuildingBlock: CUKXOW_clean_sbu_0, # of connection points: 6
#     Node 2, Type 0, BuildingBlock: CUKXOW_clean_sbu_0, # of connection points: 6
#     Node 3, Type 0, BuildingBlock: CUKXOW_clean_sbu_0, # of connection points: 6
#     Node 4, Type 0, BuildingBlock: CUKXOW_clean_sbu_0, # of connection points: 6
#     Node 5, Type 0, BuildingBlock: CUKXOW_clean_sbu_0, # of connection points: 6
#     Node 6, Type 0, BuildingBlock: CUKXOW_clean_sbu_0, # of connection points: 6
#     Node 7, Type 0, BuildingBlock: CUKXOW_clean_sbu_0, # of connection points: 6
#     Edge 8, Type (0, 0), BuildingBlock: XIVTED_clean_linker_0, # of connection points: 2
#     Edge 9, Type (0, 0), BuildingBlock: XIVTED_clean_linker_0, # of connection points: 2
#     Edge 10, Type (0, 0), BuildingBlock: XIVTED_clean_linker_0, # of connection points: 2
#     Edge 11, Type (0, 0), BuildingBlock: XIVTED_clean_linker_0, # of connection points: 2
#     Edge 12, Type (0, 0), BuildingBlock: XIVTED_clean_linker_0, # of connection points: 2
#     Edge 13, Type (0, 0), BuildingBlock: XIVTED_clean_linker_0, # of connection points: 2
#     Edge 14, Type (0, 0), BuildingBlock: XIVTED_clean_linker_0, # of connection points: 2
#     Edge 15, Type (0, 0), BuildingBlock: XIVTED_clean_linker_0, # of connection points: 2
#     Edge 16, Type (0, 0), BuildingBlock: XIVTED_clean_linker_0, # of connection points: 2
#     Edge 17, Type (0, 0), BuildingBlock: XIVTED_clean_linker_0, # of connection points: 2
#     Edge 18, Type (0, 0), BuildingBlock: XIVTED_clean_linker_0, # of connection points: 2
#     Edge 19, Type (0, 0), BuildingBlock: XIVTED_clean_linker_0, # of connection points: 2
#     Edge 20, Type (0, 0), BuildingBlock: XIVTED_clean_linker_0, # of connection points: 2
#     Edge 21, Type (0, 0), BuildingBlock: XIVTED_clean_linker_0, # of connection points: 2
#     Edge 22, Type (0, 0), BuildingBlock: XIVTED_clean_linker_0, # of connection points: 2
#     Edge 23, Type (0, 0), BuildingBlock: XIVTED_clean_linker_0, # of connection points: 2
#     Edge 24, Type (0, 0), BuildingBlock: XIVTED_clean_linker_0, # of connection points: 2
#     Edge 25, Type (0, 0), BuildingBlock: XIVTED_clean_linker_0, # of connection points: 2
#     Edge 26, Type (0, 0), BuildingBlock: XIVTED_clean_linker_0, # of connection points: 2
#     Edge 27, Type (0, 0), BuildingBlock: XIVTED_clean_linker_0, # of connection points: 2
#     Edge 28, Type (0, 0), BuildingBlock: XIVTED_clean_linker_0, # of connection points: 2
#     Edge 29, Type (0, 0), BuildingBlock: XIVTED_clean_linker_0, # of connection points: 2
#     Edge 30, Type (0, 0), BuildingBlock: XIVTED_clean_linker_0, # of connection points: 2
#     Edge 31, Type (0, 0), BuildingBlock: XIVTED_clean_linker_0, # of connection points: 2
# Relax obj value: 0.075
# Max RMSD: 0.180
# Mean RMSD: 0.129
data_MOF--net-snk--node1-CUKXOW_clean_sbu_0--edge1-XIVTED_clean_linker_0
_symmetry_space_group_name_H-M    P1
_symmetry_Int_Tables_number       1
_symmetry_cell_setting            triclinic
loop_
_symmetry_equiv_pos_as_xyz
'x, y, z'
_cell_length_a     46.136009
_cell_length_b     46.17772
_cell_length_c     14.553179
_cell_angle_alpha  99.714157
_cell_angle_beta   99.540688
_cell_angle_gamma 90.844974
loop_
_atom_site_label
_atom_site_type_symbol
_atom_site_fract_x
_atom_site_fract_y
_atom_site_fract_z
_atom_type_partial_charge
Tb0 Tb 0.04216 0.04311 0.70171 0.0
C1 C 0.05487 0.97585 0.70457 0.0
Tb2 Tb 0.98951 0.99604 0.68536 0.0
O3 O 0.05206 0.05428 0.85795 0.0
O4 O 0.01928 0.02383 0.79028 0.0
O5 O 0.06383 0.0012 0.68415 0.0
C6 C 0.94772 0.95928 0.70456 0.0
O7 O 0.02808 0.97111 0.72298 0.0
C8 C 1.00013 0.00458 0.51678 0.0
C9 C 0.97494 0.06118 0.66668 0.0
O10 O 0.96767 0.95302 0.6522 0.0
O11 O 0.95192 0.98617 0.75035 0.0
O12 O 0.97943 0.98697 0.52832 0.0
O13 O 0.01269 0.01557 0.59861 0.0
O14 O 0.96593 0.03647 0.69071 0.0
O15 O 0.00266 0.06662 0.65691 0.0
C16 C 0.08185 0.07539 0.64819 0.0
O17 O 0.05908 0.08555 0.68276 0.0
O18 O 0.08244 0.0472 0.64537 0.0
C19 C 0.0319 0.03612 0.87111 0.0
Tb20 Tb 0.22976 0.77193 0.795 0.0
C21 C 0.29716 0.7937 0.85683 0.0
Tb22 Tb 0.27919 0.72486 0.83212 0.0
O23 O 0.22224 0.78276 0.94323 0.0
O24 O 0.25257 0.75338 0.90668 0.0
O25 O 0.2704 0.79935 0.81467 0.0
C26 C 0.31953 0.69194 0.91392 0.0
O27 O 0.30376 0.76757 0.88076 0.0
C28 C 0.26781 0.73154 0.65148 0.0
C29 C 0.21206 0.70266 0.76008 0.0
O30 O 0.3246 0.71212 0.86578 0.0
O31 O 0.29149 0.69017 0.91639 0.0
O32 O 0.28656 0.71343 0.68405 0.0
O33 O 0.25673 0.74371 0.7207 0.0
O34 O 0.23864 0.69674 0.80358 0.0
O35 O 0.20546 0.72927 0.73978 0.0
C36 C 0.19075 0.80848 0.72624 0.0
O37 O 0.18459 0.7854 0.76058 0.0
O38 O 0.21898 0.81052 0.72784 0.0
C39 C 0.24135 0.76512 0.97602 0.0
Tb40 Tb 0.47975 0.0236 0.05089 0.0
C41 C 0.45776 0.95634 0.98748 0.0
Tb42 Tb 0.52658 0.97432 1.01076 0.0
O43 O 0.46862 0.03163 0.90346 0.0
O44 O 0.49799 0.0011 0.93747 0.0
O45 O 0.45225 0.98306 1.03043 0.0
C46 C 0.55918 0.93436 0.92516 0.0
O47 O 0.48385 0.94969 0.96295 0.0
C48 C 0.5204 0.98517 0.19226 0.0
C49 C 0.54901 0.04136 0.08437 0.0
O50 O 0.53954 0.92905 0.97512 0.0
O51 O 0.56064 0.96242 0.92331 0.0
O52 O 0.53841 0.96654 0.15808 0.0
O53 O 0.50802 0.99649 0.12394 0.0
O54 O 0.55488 0.01482 1.04021 0.0
O55 O 0.52243 0.04791 0.10543 0.0
C56 C 0.4431 0.06203 0.12281 0.0
O57 O 0.4661 0.06859 0.08844 0.0
O58 O 0.44121 0.03374 0.11939 0.0
C59 C 0.48611 0.01259 0.86902 0.0
Tb60 Tb 0.20885 0.21146 0.1554 0.0
C61 C 0.27521 0.19697 0.14988 0.0
Tb62 Tb 0.2565 0.26283 0.1678 0.0
O63 O 0.19695 0.20126 0.99884 0.0
O64 O 0.22754 0.23393 0.06439 0.0
O65 O 0.25012 0.18883 0.17374 0.0
C66 C 0.29456 0.30034 0.12915 0.0
O67 O 0.27981 0.22325 0.12808 0.0
C68 C 0.24995 0.25272 0.33888 0.0
C69 C 0.19174 0.27866 0.18655 0.0
O70 O 0.30087 0.27539 0.15521 0.0
O71 O 0.26654 0.30423 0.12368 0.0
O72 O 0.26789 0.27284 0.32481 0.0
O73 O 0.2378 0.24027 0.25793 0.0
O74 O 0.21611 0.28664 0.15804 0.0
O75 O 0.18638 0.25149 0.20096 0.0
C76 C 0.17547 0.17323 0.21141 0.0
O77 O 0.16637 0.19716 0.18252 0.0
O78 O 0.20316 0.17062 0.20686 0.0
C79 C 0.21502 0.22123 0.98401 0.0
Tb80 Tb 0.73047 0.27125 0.29312 0.0
C81 C 0.79779 0.29325 0.35527 0.0
Tb82 Tb 0.78001 0.22434 0.33091 0.0
O83 O 0.72281 0.28211 0.44128 0.0
O84 O 0.75336 0.25294 0.4051 0.0
O85 O 0.771 0.29883 0.31324 0.0
C86 C 0.82052 0.19199 0.41461 0.0
O87 O 0.8045 0.26713 0.37904 0.0
C88 C 0.76861 0.23084 0.15005 0.0
C89 C 0.71286 0.20195 0.25935 0.0
O90 O 0.82547 0.21176 0.36483 0.0
O91 O 0.79249 0.19023 0.4173 0.0
O92 O 0.78741 0.2128 0.18281 0.0
O93 O 0.75748 0.243 0.21921 0.0
O94 O 0.7395 0.19608 0.30259 0.0
O95 O 0.7062 0.22853 0.2388 0.0
C96 C 0.69175 0.30766 0.22214 0.0
O97 O 0.6854 0.28485 0.25756 0.0
O98 O 0.72001 0.30954 0.22418 0.0
C99 C 0.74204 0.26459 0.47432 0.0
Tb100 Tb 0.70994 0.71246 0.6451 0.0
C101 C 0.77747 0.70104 0.6423 0.0
Tb102 Tb 0.75579 0.76585 0.65969 0.0
O103 O 0.69877 0.70186 0.48903 0.0
O104 O 0.72862 0.73535 0.55508 0.0
O105 O 0.75231 0.69167 0.66305 0.0
C106 C 0.79174 0.80817 0.63956 0.0
O107 O 0.78167 0.72784 0.62342 0.0
C108 C 0.74774 0.75566 0.82936 0.0
C109 C 0.69034 0.77916 0.67838 0.0
O110 O 0.79809 0.78908 0.69474 0.0
O111 O 0.76523 0.80286 0.59161 0.0
O112 O 0.76483 0.77657 0.81657 0.0
O113 O 0.73683 0.74264 0.74788 0.0
O114 O 0.71487 0.78861 0.65416 0.0
O115 O 0.68552 0.75144 0.6888 0.0
C116 C 0.67841 0.67233 0.69928 0.0
O117 O 0.66779 0.6948 0.66432 0.0
O118 O 0.70666 0.67228 0.70229 0.0
C119 C 0.71644 0.72223 0.47463 0.0
Tb120 Tb 0.54095 0.5403 0.17766 0.0
C121 C 0.55538 0.47407 0.18491 0.0
Tb122 Tb 0.48939 0.49279 0.16521 0.0
O123 O 0.55118 0.5521 0.33422 0.0
O124 O 0.51846 0.52158 0.26856 0.0
O125 O 0.56372 0.49911 0.16137 0.0
C126 C 0.45139 0.45512 0.20308 0.0
O127 O 0.52889 0.46944 0.2055 0.0
C128 C 0.49947 0.49947 0.99418 0.0
C129 C 0.47369 0.55752 0.14567 0.0
O130 O 0.47524 0.44827 0.16995 0.0
O131 O 0.4489 0.48344 0.21614 0.0
O132 O 0.47929 0.48159 1.00819 0.0
O133 O 0.51198 0.51153 0.07518 0.0
O134 O 0.46543 0.53308 0.17299 0.0
O135 O 0.50101 0.5629 0.1323 0.0
C136 C 0.57946 0.57343 0.122 0.0
O137 O 0.55633 0.58298 0.15561 0.0
O138 O 0.5811 0.5454 0.12141 0.0
C139 C 0.53117 0.53406 0.34898 0.0
Tb140 Tb 0.97951 0.52391 0.54723 0.0
C141 C 0.9577 0.45657 0.48515 0.0
Tb142 Tb 0.02663 0.47452 0.50919 0.0
O143 O 0.96859 0.53131 0.39907 0.0
O144 O 0.99803 0.50106 0.43515 0.0
O145 O 0.95203 0.48337 0.52722 0.0
C146 C 0.05934 0.43403 0.42634 0.0
O147 O 0.98387 0.4499 0.46126 0.0
C148 C 0.02003 0.48597 0.69006 0.0
C149 C 0.04878 0.54167 0.58139 0.0
O150 O 0.03926 0.42909 0.47517 0.0
O151 O 0.06116 0.46204 0.42387 0.0
O152 O 0.03816 0.46724 0.65714 0.0
O153 O 0.00782 0.49702 0.62103 0.0
O154 O 0.05477 0.5151 0.53765 0.0
O155 O 0.02216 0.54819 0.60211 0.0
C156 C 0.94304 0.56298 0.61685 0.0
O157 O 0.96571 0.56902 0.58012 0.0
O158 O 0.94137 0.53484 0.61709 0.0
C159 C 0.98625 0.51222 0.36596 0.0
H160 H 0.12891 0.05618 0.56956 0.0
H161 H 0.12254 0.1846 0.26493 0.0
H162 H 0.07325 0.13008 0.60646 0.0
H163 H 0.19306 0.1243 0.28121 0.0
H164 H 0.10092 0.16141 0.37827 0.0
H165 H 0.1514 0.07898 0.45727 0.0
C166 C 0.12187 0.07749 0.5552 0.0
C167 C 0.09928 0.09137 0.59663 0.0
C168 C 0.12103 0.15316 0.35657 0.0
C169 C 0.12415 0.11705 0.46739 0.0
C170 C 0.13313 0.16611 0.29119 0.0
C171 C 0.15953 0.15625 0.26439 0.0
C172 C 0.13548 0.13019 0.39453 0.0
C173 C 0.17262 0.13245 0.30052 0.0
C174 C 0.13452 0.09037 0.49079 0.0
C175 C 0.09071 0.1188 0.57581 0.0
N176 N 0.16049 0.12024 0.36437 0.0
N177 N 0.10299 0.13067 0.51156 0.0
H178 H 0.11204 0.97556 0.67227 0.0
H179 H 0.13196 0.80693 0.72942 0.0
H180 H 0.04439 0.91979 0.73402 0.0
H181 H 0.20201 0.86264 0.68288 0.0
H182 H 0.09862 0.84731 0.71906 0.0
H183 H 0.14461 0.93417 0.66713 0.0
C184 C 0.104 0.95469 0.685 0.0
C185 C 0.07536 0.9513 0.70399 0.0
C186 C 0.12121 0.85073 0.71038 0.0
C187 C 0.11258 0.90369 0.6974 0.0
C188 C 0.14022 0.8276 0.71579 0.0
C189 C 0.16977 0.8315 0.70715 0.0
C190 C 0.13183 0.87807 0.69656 0.0
C191 C 0.17934 0.85875 0.6898 0.0
C192 C 0.12263 0.93103 0.68178 0.0
C193 C 0.06625 0.92361 0.71949 0.0
N194 N 0.16047 0.88109 0.68568 0.0
N195 N 0.08476 0.90097 0.71584 0.0
H196 H 0.3572 0.78895 0.90253 0.0
H197 H 0.3982 0.96216 0.98658 0.0
H198 H 0.29197 0.8534 0.85816 0.0
H199 H 0.46191 0.89614 0.94116 0.0
H200 H 0.35936 0.92313 0.955 0.0
H201 H 0.39585 0.82807 0.93258 0.0
C202 C 0.35088 0.8113 0.89948 0.0
C203 C 0.32102 0.81765 0.87761 0.0
C204 C 0.38183 0.91717 0.95173 0.0
C205 C 0.36562 0.86296 0.91285 0.0
C206 C 0.40413 0.93951 0.97001 0.0
C207 C 0.43362 0.93267 0.96647 0.0
C208 C 0.38887 0.8875 0.93112 0.0
C209 C 0.43962 0.9027 0.94435 0.0
C210 C 0.37308 0.83368 0.9163 0.0
C211 C 0.31454 0.84723 0.87439 0.0
N212 N 0.41761 0.88136 0.92826 0.0
N213 N 0.33651 0.86867 0.89224 0.0
H214 H 0.44439 0.12097 0.12384 0.0
H215 H 0.27575 0.14012 0.18526 0.0
H216 H 0.38898 0.05003 0.16598 0.0
H217 H 0.33091 0.20708 0.11719 0.0
H218 H 0.31733 0.10761 0.18988 0.0
H219 H 0.40383 0.15395 0.1364 0.0
C220 C 0.42374 0.11243 0.13698 0.0
C221 C 0.41998 0.08274 0.14364 0.0
C222 C 0.32026 0.12943 0.17396 0.0
C223 C 0.37317 0.12029 0.15671 0.0
C224 C 0.29651 0.148 0.17104 0.0
C225 C 0.29969 0.17641 0.15032 0.0
C226 C 0.34744 0.13937 0.15647 0.0
C227 C 0.32722 0.18538 0.13299 0.0
C228 C 0.40051 0.13124 0.14363 0.0
C229 C 0.39276 0.07282 0.16052 0.0
N230 N 0.34992 0.16697 0.1365 0.0
N231 N 0.37029 0.09151 0.16585 0.0
H232 H 0.92472 0.9192 0.5528 0.0
H233 H 0.82503 0.83681 0.79831 0.0
H234 H 0.90985 0.95886 0.83058 0.0
H235 H 0.79808 0.84052 0.50232 0.0
H236 H 0.85772 0.88003 0.81452 0.0
H237 H 0.88013 0.88817 0.53274 0.0
C238 C 0.912 0.92126 0.60968 0.0
C239 C 0.921 0.94102 0.69426 0.0
C240 C 0.84429 0.87169 0.74646 0.0
C241 C 0.87033 0.90588 0.67152 0.0
C242 C 0.82601 0.84691 0.73681 0.0
C243 C 0.80952 0.83507 0.6484 0.0
C244 C 0.84669 0.88397 0.66642 0.0
C245 C 0.81088 0.84906 0.5712 0.0
C246 C 0.88642 0.90393 0.59749 0.0
C247 C 0.90361 0.94348 0.765 0.0
N248 N 0.82987 0.87258 0.58139 0.0
N249 N 0.87922 0.92551 0.75291 0.0
H250 H 0.91629 0.05933 0.68077 0.0
H251 H 0.8794 0.19626 0.41593 0.0
H252 H 0.9819 0.1116 0.5942 0.0
H253 H 0.81381 0.14761 0.51454 0.0
H254 H 0.91734 0.16629 0.48557 0.0
H255 H 0.8788 0.09228 0.62637 0.0
C256 C 0.92293 0.07784 0.65103 0.0
C257 C 0.95242 0.08254 0.64184 0.0
C258 C 0.8947 0.16216 0.49243 0.0
C259 C 0.90933 0.12034 0.57865 0.0
C260 C 0.87301 0.17926 0.45255 0.0
C261 C 0.84343 0.1743 0.45923 0.0
C262 C 0.88681 0.13977 0.5392 0.0
C263 C 0.83639 0.15207 0.50766 0.0
C264 C 0.90142 0.09665 0.61983 0.0
C265 C 0.95953 0.107 0.6028 0.0
N266 N 0.85791 0.13552 0.5455 0.0
N267 N 0.93815 0.12482 0.57221 0.0
H268 H 0.71838 0.14187 0.24946 0.0
H269 H 0.54454 0.10117 0.13788 0.0
H270 H 0.65286 0.20623 0.20839 0.0
H271 H 0.6092 0.03613 0.09276 0.0
H272 H 0.58401 0.1396 0.17902 0.0
H273 H 0.6792 0.10294 0.20716 0.0
C274 C 0.69582 0.14793 0.2317 0.0
C275 C 0.68919 0.17766 0.23257 0.0
C276 C 0.58961 0.11693 0.16016 0.0
C277 C 0.64381 0.13277 0.18473 0.0
C278 C 0.56701 0.09483 0.13691 0.0
C279 C 0.57327 0.06507 0.11147 0.0
C280 C 0.61907 0.10951 0.15969 0.0
C281 C 0.60306 0.05862 0.11143 0.0
C282 C 0.6734 0.12558 0.20724 0.0
C283 C 0.65931 0.1838 0.20848 0.0
N284 N 0.62471 0.0805 0.13551 0.0
N285 N 0.63791 0.16173 0.18633 0.0
H286 H 0.63946 0.77097 0.74751 0.0
H287 H 0.60331 0.94202 0.82502 0.0
H288 H 0.69143 0.83792 0.66634 0.0
H289 H 0.55587 0.87539 0.92277 0.0
H290 H 0.6337 0.90387 0.7556 0.0
H291 H 0.60621 0.80848 0.80009 0.0
C292 C 0.64379 0.79348 0.73989 0.0
C293 C 0.66846 0.80121 0.70271 0.0
C294 C 0.61657 0.89759 0.79197 0.0
C295 C 0.63042 0.84447 0.76364 0.0
C296 C 0.59926 0.91935 0.83151 0.0
C297 C 0.57719 0.91181 0.87995 0.0
C298 C 0.61169 0.86811 0.80088 0.0
C299 C 0.57275 0.88214 0.88626 0.0
C300 C 0.62481 0.81496 0.7703 0.0
C301 C 0.67282 0.83085 0.69484 0.0
N302 N 0.58987 0.86141 0.84744 0.0
N303 N 0.6541 0.85137 0.72542 0.0
H304 H 0.56959 0.62776 0.07873 0.0
H305 H 0.69812 0.62498 0.77483 0.0
H306 H 0.62746 0.55552 0.04645 0.0
H307 H 0.62357 0.67992 0.74113 0.0
H308 H 0.67511 0.60104 0.88376 0.0
H309 H 0.5933 0.65082 0.96942 0.0
C310 C 0.58765 0.61706 0.04978 0.0
C311 C 0.59669 0.5898 0.0709 0.0
C312 C 0.66366 0.6181 0.85163 0.0
C313 C 0.62334 0.61554 0.9455 0.0
C314 C 0.67665 0.63159 0.78924 0.0
C315 C 0.6626 0.65435 0.74961 0.0
C316 C 0.63671 0.62784 0.87495 0.0
C317 C 0.63497 0.66234 0.77039 0.0
C318 C 0.60089 0.63 0.98673 0.0
C319 C 0.61996 0.57661 1.03148 0.0
N320 N 0.62299 0.64927 0.83274 0.0
N321 N 0.6325 0.5896 0.97009 0.0
H322 H 0.63285 0.30621 0.22275 0.0
H323 H 0.61249 0.47363 0.15136 0.0
H324 H 0.70328 0.36133 0.17561 0.0
H325 H 0.54538 0.4186 0.21932 0.0
H326 H 0.64534 0.43239 0.14963 0.0
H327 H 0.59949 0.34634 0.20787 0.0
C328 C 0.6412 0.3267 0.20808 0.0
C329 C 0.67085 0.33052 0.20063 0.0
C330 C 0.62341 0.4294 0.16488 0.0
C331 C 0.63287 0.37684 0.18483 0.0
C332 C 0.60464 0.45297 0.16615 0.0
C333 C 0.57609 0.44974 0.186 0.0
C334 C 0.61355 0.40234 0.18324 0.0
C335 C 0.56718 0.42232 0.20413 0.0
C336 C 0.62217 0.34969 0.20008 0.0
C337 C 0.68052 0.35752 0.18175 0.0
N338 N 0.58579 0.39979 0.20229 0.0
N339 N 0.66162 0.37976 0.1751 0.0
H340 H 0.89806 0.46217 0.48365 0.0
H341 H 0.85787 0.28878 0.40138 0.0
H342 H 0.96213 0.3964 0.44003 0.0
H343 H 0.79234 0.35291 0.35637 0.0
H344 H 0.89635 0.32808 0.4314 0.0
H345 H 0.8594 0.42297 0.45244 0.0
C346 C 0.90411 0.43953 0.46755 0.0
C347 C 0.93364 0.43282 0.46439 0.0
C348 C 0.87356 0.33358 0.415 0.0
C349 C 0.8891 0.38745 0.42946 0.0
C350 C 0.85146 0.3111 0.39818 0.0
C351 C 0.82156 0.3173 0.37611 0.0
C352 C 0.86596 0.36282 0.41133 0.0
C353 C 0.81494 0.34685 0.37274 0.0
C354 C 0.88191 0.4171 0.44949 0.0
C355 C 0.9398 0.40286 0.44289 0.0
N356 N 0.83682 0.36838 0.39055 0.0
N357 N 0.91789 0.38144 0.42697 0.0
H358 H 0.83313 0.71217 0.60986 0.0
H359 H 0.88996 0.55194 0.66841 0.0
H360 H 0.77894 0.64418 0.67658 0.0
H361 H 0.94345 0.62135 0.60766 0.0
H362 H 0.84973 0.58585 0.6802 0.0
H363 H 0.87412 0.67947 0.61417 0.0
C364 C 0.82975 0.69034 0.62521 0.0
C365 C 0.80237 0.68097 0.64251 0.0
C366 C 0.87036 0.59373 0.66511 0.0
C367 C 0.84957 0.64326 0.64803 0.0
C368 C 0.89336 0.57443 0.65891 0.0
C369 C 0.92001 0.58388 0.63689 0.0
C370 C 0.87408 0.62263 0.64886 0.0
C371 C 0.92323 0.61317 0.62469 0.0
C372 C 0.85329 0.67167 0.62797 0.0
C373 C 0.79955 0.6524 0.66245 0.0
N374 N 0.90051 0.63142 0.63026 0.0
N375 N 0.82281 0.63457 0.66449 0.0
H376 H 0.35231 0.29263 0.1279 0.0
H377 H 0.39411 0.4647 0.21993 0.0
H378 H 0.28728 0.35885 0.12897 0.0
H379 H 0.4565 0.39653 0.18852 0.0
H380 H 0.35455 0.42673 0.1961 0.0
H381 H 0.39085 0.33099 0.15203 0.0
C382 C 0.3462 0.31533 0.13184 0.0
C383 C 0.3168 0.3228 0.12675 0.0
C384 C 0.37694 0.42015 0.19511 0.0
C385 C 0.3606 0.36678 0.15628 0.0
C386 C 0.39946 0.44174 0.20969 0.0
C387 C 0.42836 0.43349 0.20575 0.0
C388 C 0.38368 0.39039 0.17693 0.0
C389 C 0.43437 0.40364 0.19164 0.0
C390 C 0.36816 0.33723 0.14624 0.0
C391 C 0.30984 0.35238 0.13231 0.0
N392 N 0.41215 0.38311 0.17723 0.0
N393 N 0.33173 0.37348 0.1477 0.0
H394 H 0.41492 0.55485 0.15904 0.0
H395 H 0.37839 0.69621 0.91543 0.0
H396 H 0.48031 0.60874 0.07769 0.0
H397 H 0.31252 0.64594 1.00722 0.0
H398 H 0.41606 0.66495 0.97917 0.0
H399 H 0.37734 0.58847 0.10934 0.0
C400 C 0.42148 0.57382 0.13141 0.0
C401 C 0.45094 0.57883 0.12242 0.0
C402 C 0.39342 0.66074 0.98586 0.0
C403 C 0.40782 0.61739 0.06478 0.0
C404 C 0.37188 0.67859 0.94938 0.0
C405 C 0.3423 0.67357 0.95586 0.0
C406 C 0.38539 0.63751 1.02898 0.0
C407 C 0.33511 0.65049 1.00071 0.0
C408 C 0.39994 0.59301 0.1029 0.0
C409 C 0.45796 0.60386 0.08599 0.0
N410 N 0.3565 0.63321 1.03526 0.0
N411 N 0.43659 0.62205 0.05821 0.0
H412 H 0.21771 0.64262 0.74977 0.0
H413 H 0.04403 0.60143 0.63431 0.0
H414 H 0.15209 0.70685 0.70789 0.0
H415 H 0.10901 0.53663 0.59076 0.0
H416 H 0.08335 0.63999 0.67621 0.0
H417 H 0.17865 0.6036 0.70633 0.0
C418 C 0.19514 0.64863 0.7316 0.0
C419 C 0.18845 0.67835 0.73259 0.0
C420 C 0.08906 0.61735 0.65751 0.0
C421 C 0.14322 0.63335 0.68341 0.0
C422 C 0.06654 0.59517 0.63381 0.0
C423 C 0.07294 0.56544 0.60863 0.0
C424 C 0.11857 0.61002 0.65773 0.0
C425 C 0.10277 0.55909 0.60921 0.0
C426 C 0.1728 0.62622 0.70648 0.0
C427 C 0.15858 0.68443 0.70792 0.0
N428 N 0.12434 0.58104 0.63372 0.0
N429 N 0.13724 0.6623 0.68512 0.0
H430 H 0.19472 0.33735 0.17299 0.0
H431 H 0.05475 0.37524 0.42448 0.0
H432 H 0.14065 0.27252 0.25618 0.0
H433 H 0.10502 0.44065 0.33081 0.0
H434 H 0.08543 0.33729 0.35847 0.0
H435 H 0.16157 0.37525 0.22462 0.0
C436 C 0.17579 0.33098 0.20137 0.0
C437 C 0.17061 0.30158 0.21036 0.0
C438 C 0.08978 0.35989 0.35187 0.0
C439 C 0.13261 0.34508 0.27028 0.0
C440 C 0.07225 0.38159 0.38966 0.0
C441 C 0.07744 0.41112 0.3833 0.0
C442 C 0.11284 0.3677 0.30753 0.0
C443 C 0.10036 0.4181 0.33728 0.0
C444 C 0.15689 0.3527 0.23101 0.0
C445 C 0.14567 0.29481 0.24783 0.0
N446 N 0.11732 0.39655 0.30144 0.0
N447 N 0.12776 0.31636 0.27672 0.0
H448 H 0.99253 0.99672 0.9127 0.0
H449 H 0.04044 0.04391 0.47777 0.0
H450 H 0.05897 0.06443 1.04363 0.0
H451 H 0.97241 0.9781 0.34393 0.0
H452 H 0.04812 0.0518 0.32015 0.0
H453 H 0.98499 0.98948 0.07065 0.0
C454 C 0.0054 0.01013 0.97462 0.0
C455 C 0.02628 0.03126 0.965 0.0
C456 C 0.03152 0.03561 0.32535 0.0
C457 C 0.01805 0.02307 0.14621 0.0
C458 C 0.02722 0.03111 0.41536 0.0
C459 C 0.00585 0.01029 0.42392 0.0
C460 C 0.0143 0.01913 0.24353 0.0
C461 C 0.98916 0.99439 0.34064 0.0
C462 C 1.0012 0.00598 0.06489 0.0
C463 C 0.04258 0.0479 0.0478 0.0
N464 N 0.99373 0.99911 0.25433 0.0
N465 N 0.03816 0.04346 0.13465 0.0
H466 H 0.22984 0.76937 0.56919 0.0
H467 H 0.28089 0.72893 0.0605 0.0
H468 H 0.29444 0.70566 0.50818 0.0
H469 H 0.21323 0.7894 0.11749 0.0
H470 H 0.2869 0.72058 0.22504 0.0
H471 H 0.22375 0.77762 0.40442 0.0
C472 C 0.24267 0.75712 0.52114 0.0
C473 C 0.26266 0.73684 0.55237 0.0
C474 C 0.2707 0.73567 0.20147 0.0
C475 C 0.25598 0.74611 0.36404 0.0
C476 C 0.26728 0.74035 0.10745 0.0
C477 C 0.24643 0.7597 0.07505 0.0
C478 C 0.25318 0.75055 0.26355 0.0
C479 C 0.22955 0.77422 0.13938 0.0
C480 C 0.23924 0.7618 0.42711 0.0
C481 C 0.27875 0.72152 0.48709 0.0
N482 N 0.23326 0.76936 0.23014 0.0
N483 N 0.27511 0.72647 0.39645 0.0
H484 H 0.46124 0.04122 0.73009 0.0
H485 H 0.54704 0.9582 0.33319 0.0
H486 H 0.52215 0.97347 0.77995 0.0
H487 H 0.48269 0.02267 0.27906 0.0
H488 H 0.53897 0.96422 0.49684 0.0
H489 H 0.46926 0.0352 0.56643 0.0
C490 C 0.47638 0.025 0.70659 0.0
C491 C 0.4912 0.00791 0.76932 0.0
C492 C 0.52658 0.97711 0.44955 0.0
C493 C 0.50057 1.00091 0.58062 0.0
C494 C 0.5312 0.97374 0.35586 0.0
C495 C 0.5155 0.98997 0.2921 0.0
C496 C 0.50606 0.99695 0.48068 0.0
C497 C 0.49525 0.00971 0.32568 0.0
C498 C 0.48094 0.02161 0.61284 0.0
C499 C 0.51047 0.98726 0.73452 0.0
N500 N 0.49112 0.01265 0.41761 0.0
N501 N 0.51463 0.98437 0.64263 0.0
H502 H 0.18729 0.1929 0.81205 0.0
H503 H 0.27745 0.28076 0.51102 0.0
H504 H 0.25413 0.26054 0.93938 0.0
H505 H 0.21053 0.21332 0.38258 0.0
H506 H 0.26922 0.27356 0.66739 0.0
H507 H 0.19538 0.19998 0.65523 0.0
C508 C 0.20369 0.20933 0.80702 0.0
C509 C 0.22004 0.22619 0.88922 0.0
C510 C 0.2563 0.26026 0.60532 0.0
C511 C 0.2295 0.23442 0.70873 0.0
C512 C 0.26099 0.26435 0.5157 0.0
C513 C 0.24468 0.24758 0.43328 0.0
C514 C 0.23504 0.23919 0.61345 0.0
C515 C 0.22365 0.22667 0.44402 0.0
C516 C 0.2083 0.21333 0.71718 0.0
C517 C 0.24099 0.2471 0.87809 0.0
N518 N 0.21944 0.22308 0.53233 0.0
N519 N 0.24512 0.2506 0.78967 0.0
H520 H 0.73014 0.26817 0.06717 0.0
H521 H 0.78229 0.22922 0.55977 0.0
H522 H 0.79573 0.2055 1.00713 0.0
H523 H 0.71317 0.28802 0.61506 0.0
H524 H 0.78832 0.2208 0.72422 0.0
H525 H 0.724 0.27645 0.90243 0.0
C526 C 0.74318 0.25616 1.01935 0.0
C527 C 0.76346 0.23616 0.05088 0.0
C528 C 0.77179 0.23552 0.7003 0.0
C529 C 0.75673 0.24547 0.86249 0.0
C530 C 0.76835 0.24023 0.60628 0.0
C531 C 0.74708 0.25913 0.57338 0.0
C532 C 0.75389 0.24994 0.76195 0.0
C533 C 0.72982 0.27319 0.63729 0.0
C534 C 0.73973 0.26086 0.92532 0.0
C535 C 0.77981 0.22113 0.98583 0.0
N536 N 0.73357 0.26832 0.72808 0.0
N537 N 0.77614 0.22611 0.89517 0.0
H538 H 0.68817 0.69394 0.30377 0.0
H539 H 0.7741 0.78465 1.00055 0.0
H540 H 0.75464 0.76217 0.42877 0.0
H541 H 0.70977 0.71464 0.87274 0.0
H542 H 0.76663 0.777 0.15687 0.0
H543 H 0.69513 0.70144 0.14635 0.0
C544 C 0.70423 0.71061 0.2981 0.0
C545 C 0.72079 0.72756 0.37979 0.0
C546 C 0.7541 0.76323 0.09497 0.0
C547 C 0.72893 0.73624 0.19876 0.0
C548 C 0.75834 0.76758 1.00539 0.0
C549 C 0.74257 0.7502 0.92323 0.0
C550 C 0.73383 0.74129 0.10341 0.0
C551 C 0.72246 0.72846 0.93412 0.0
C552 C 0.7082 0.71485 0.20798 0.0
C553 C 0.74129 0.74875 0.36789 0.0
N554 N 0.71865 0.72462 1.02254 0.0
N555 N 0.74478 0.75248 0.27921 0.0
H556 H 0.47153 0.47185 0.82211 0.0
H557 H 0.55937 0.56192 0.52088 0.0
H558 H 0.53879 0.53897 0.95039 0.0
H559 H 0.49188 0.49492 0.39365 0.0
H560 H 0.55223 0.55393 0.67771 0.0
H561 H 0.47877 0.48 0.66571 0.0
C562 C 0.48792 0.48833 0.81739 0.0
C563 C 0.50464 0.50471 0.89978 0.0
C564 C 0.53892 0.54096 0.61578 0.0
C565 C 0.51306 0.51426 0.71956 0.0
C566 C 0.54296 0.54551 0.52593 0.0
C567 C 0.52615 0.52909 0.44376 0.0
C568 C 0.51785 0.51974 0.62427 0.0
C569 C 0.50526 0.50812 0.45491 0.0
C570 C 0.49202 0.49297 0.72775 0.0
C571 C 0.5255 0.52577 0.88898 0.0
N572 N 0.50173 0.50405 0.54335 0.0
N573 N 0.5291 0.52994 0.80065 0.0
H574 H 0.98223 0.52396 0.77321 0.0
H575 H 0.02245 0.47269 0.2807 0.0
H576 H 0.04587 0.45929 0.83278 0.0
H577 H 0.962 0.54037 0.22503 0.0
H578 H 0.03086 0.46675 0.1161 0.0
H579 H 0.97392 0.52998 0.93804 0.0
C580 C 0.99445 0.5111 0.82095 0.0
C581 C 0.01472 0.49111 0.78928 0.0
C582 C 0.01577 0.48293 0.13997 0.0
C583 C 0.00539 0.49771 0.97771 0.0
C584 C 0.01106 0.48632 0.23404 0.0
C585 C 0.99169 0.50716 0.26684 0.0
C586 C 1.00092 0.50047 0.07825 0.0
C587 C 0.97719 0.52405 0.20284 0.0
C588 C 0.98974 0.51449 0.91502 0.0
C589 C 0.03002 0.47498 0.8542 0.0
N590 N 0.98209 0.52037 0.11203 0.0
N591 N 0.02503 0.47858 0.94491 0.0
loop_
_geom_bond_atom_site_label_1
_geom_bond_atom_site_label_2
_geom_bond_distance
_geom_bond_site_symmetry_2
_ccdc_geom_bond_type
Tb0 O3 2.453 . S
Tb0 O4 2.596 1_445 S
Tb0 O5 2.374 1_545 S
Tb0 O13 2.343 . S
Tb0 O15 2.353 1_455 S
Tb0 O17 2.427 . S
Tb0 O18 2.513 . S
C1 O5 1.251 . S
C1 O7 1.263 . S
Tb2 O4 2.343 . S
Tb2 O7 2.353 1_655 S
Tb2 O10 2.427 . S
Tb2 O11 2.513 . S
Tb2 O12 2.453 . S
Tb2 O13 2.596 1_665 S
Tb2 O14 2.374 1_565 S
O3 Tb0 2.453 . S
O3 C19 1.249 . S
O4 Tb0 2.596 1_665 S
O4 Tb2 2.343 . S
O4 C19 1.258 1_665 S
O5 Tb0 2.374 1_565 S
O5 C1 1.251 . S
C6 O10 1.275 . S
C6 O11 1.246 . S
O7 C1 1.263 . S
O7 Tb2 2.353 1_455 S
C8 O12 1.245 . S
C8 O13 1.259 1_665 S
C9 O14 1.250 . S
C9 O15 1.263 . S
O10 Tb2 2.427 . S
O10 C6 1.275 . S
O11 Tb2 2.513 . S
O11 C6 1.246 . S
O12 Tb2 2.453 . S
O12 C8 1.245 . S
O13 Tb0 2.343 . S
O13 Tb2 2.596 1_445 S
O13 C8 1.259 1_445 S
O14 Tb2 2.374 1_545 S
O14 C9 1.250 . S
O15 Tb0 2.353 1_655 S
O15 C9 1.263 . S
C16 O17 1.275 . S
C16 O18 1.246 . S
O17 Tb0 2.427 . S
O17 C16 1.275 . S
O18 Tb0 2.513 . S
O18 C16 1.246 . S
C19 O3 1.249 . S
C19 O4 1.258 1_445 S
Tb20 O23 2.453 . S
Tb20 O24 2.596 . S
Tb20 O25 2.374 . S
Tb20 O33 2.343 . S
Tb20 O35 2.353 . S
Tb20 O37 2.427 . S
Tb20 O38 2.513 . S
C21 O25 1.251 . S
C21 O27 1.263 . S
Tb22 O24 2.343 . S
Tb22 O27 2.353 . S
Tb22 O30 2.427 . S
Tb22 O31 2.513 . S
Tb22 O32 2.453 . S
Tb22 O33 2.596 . S
Tb22 O34 2.374 . S
O23 Tb20 2.453 . S
O23 C39 1.245 . S
O24 Tb20 2.596 . S
O24 Tb22 2.343 . S
O24 C39 1.259 . S
O25 Tb20 2.374 . S
O25 C21 1.251 . S
C26 O30 1.275 . S
C26 O31 1.246 . S
O27 C21 1.263 . S
O27 Tb22 2.353 . S
C28 O32 1.245 . S
C28 O33 1.259 . S
C29 O34 1.250 . S
C29 O35 1.263 . S
O30 Tb22 2.427 . S
O30 C26 1.275 . S
O31 Tb22 2.513 . S
O31 C26 1.246 . S
O32 Tb22 2.453 . S
O32 C28 1.245 . S
O33 Tb20 2.343 . S
O33 Tb22 2.596 . S
O33 C28 1.259 . S
O34 Tb22 2.374 . S
O34 C29 1.250 . S
O35 Tb20 2.353 . S
O35 C29 1.263 . S
C36 O37 1.275 . S
C36 O38 1.246 . S
O37 Tb20 2.427 . S
O37 C36 1.275 . S
O38 Tb20 2.513 . S
O38 C36 1.246 . S
C39 O23 1.245 . S
C39 O24 1.259 . S
Tb40 O43 2.453 . S
Tb40 O44 2.596 1_545 S
Tb40 O45 2.374 1_545 S
Tb40 O53 2.343 1_556 S
Tb40 O55 2.353 1_556 S
Tb40 O57 2.427 1_556 S
Tb40 O58 2.513 1_556 S
C41 O45 1.251 . S
C41 O47 1.263 . S
Tb42 O44 2.343 1_554 S
Tb42 O47 2.353 1_554 S
Tb42 O50 2.427 1_554 S
Tb42 O51 2.513 1_554 S
Tb42 O52 2.453 . S
Tb42 O53 2.596 1_565 S
Tb42 O54 2.374 1_565 S
O43 Tb40 2.453 . S
O43 C59 1.245 1_545 S
O44 Tb40 2.596 1_565 S
O44 Tb42 2.343 1_556 S
O44 C59 1.259 . S
O45 Tb40 2.374 1_565 S
O45 C41 1.251 . S
C46 O50 1.275 . S
C46 O51 1.246 . S
O47 C41 1.263 . S
O47 Tb42 2.353 1_556 S
C48 O52 1.245 1_545 S
C48 O53 1.259 . S
C49 O54 1.250 . S
C49 O55 1.263 . S
O50 Tb42 2.427 1_556 S
O50 C46 1.275 . S
O51 Tb42 2.513 1_556 S
O51 C46 1.246 . S
O52 Tb42 2.453 . S
O52 C48 1.245 1_565 S
O53 Tb40 2.343 1_554 S
O53 Tb42 2.596 1_545 S
O53 C48 1.259 . S
O54 Tb42 2.374 1_545 S
O54 C49 1.250 . S
O55 Tb40 2.353 1_554 S
O55 C49 1.263 . S
C56 O57 1.275 . S
C56 O58 1.246 . S
O57 Tb40 2.427 1_554 S
O57 C56 1.275 . S
O58 Tb40 2.513 1_554 S
O58 C56 1.246 . S
C59 O43 1.245 1_565 S
C59 O44 1.259 . S
Tb60 O63 2.453 . S
Tb60 O64 2.596 . S
Tb60 O65 2.374 . S
Tb60 O73 2.343 . S
Tb60 O75 2.353 . S
Tb60 O77 2.427 . S
Tb60 O78 2.513 . S
C61 O65 1.251 . S
C61 O67 1.263 . S
Tb62 O64 2.343 . S
Tb62 O67 2.353 . S
Tb62 O70 2.427 . S
Tb62 O71 2.513 . S
Tb62 O72 2.453 . S
Tb62 O73 2.596 . S
Tb62 O74 2.374 . S
O63 Tb60 2.453 . S
O63 C79 1.245 . S
O64 Tb60 2.596 . S
O64 Tb62 2.343 . S
O64 C79 1.259 . S
O65 Tb60 2.374 . S
O65 C61 1.251 . S
C66 O70 1.275 . S
C66 O71 1.246 . S
O67 C61 1.263 . S
O67 Tb62 2.353 . S
C68 O72 1.245 . S
C68 O73 1.259 . S
C69 O74 1.250 . S
C69 O75 1.263 . S
O70 Tb62 2.427 . S
O70 C66 1.275 . S
O71 Tb62 2.513 . S
O71 C66 1.246 . S
O72 Tb62 2.453 . S
O72 C68 1.245 . S
O73 Tb60 2.343 . S
O73 Tb62 2.596 . S
O73 C68 1.259 . S
O74 Tb62 2.374 . S
O74 C69 1.250 . S
O75 Tb60 2.353 . S
O75 C69 1.263 . S
C76 O77 1.275 . S
C76 O78 1.246 . S
O77 Tb60 2.427 . S
O77 C76 1.275 . S
O78 Tb60 2.513 . S
O78 C76 1.246 . S
C79 O63 1.245 . S
C79 O64 1.259 . S
Tb80 O83 2.453 . S
Tb80 O84 2.596 . S
Tb80 O85 2.374 . S
Tb80 O93 2.343 . S
Tb80 O95 2.353 . S
Tb80 O97 2.427 . S
Tb80 O98 2.513 . S
C81 O85 1.251 . S
C81 O87 1.263 . S
Tb82 O84 2.343 . S
Tb82 O87 2.353 . S
Tb82 O90 2.427 . S
Tb82 O91 2.513 . S
Tb82 O92 2.453 . S
Tb82 O93 2.596 . S
Tb82 O94 2.374 . S
O83 Tb80 2.453 . S
O83 C99 1.245 . S
O84 Tb80 2.596 . S
O84 Tb82 2.343 . S
O84 C99 1.259 . S
O85 Tb80 2.374 . S
O85 C81 1.251 . S
C86 O90 1.275 . S
C86 O91 1.246 . S
O87 C81 1.263 . S
O87 Tb82 2.353 . S
C88 O92 1.245 . S
C88 O93 1.259 . S
C89 O94 1.250 . S
C89 O95 1.263 . S
O90 Tb82 2.427 . S
O90 C86 1.275 . S
O91 Tb82 2.513 . S
O91 C86 1.246 . S
O92 Tb82 2.453 . S
O92 C88 1.245 . S
O93 Tb80 2.343 . S
O93 Tb82 2.596 . S
O93 C88 1.259 . S
O94 Tb82 2.374 . S
O94 C89 1.250 . S
O95 Tb80 2.353 . S
O95 C89 1.263 . S
C96 O97 1.275 . S
C96 O98 1.246 . S
O97 Tb80 2.427 . S
O97 C96 1.275 . S
O98 Tb80 2.513 . S
O98 C96 1.246 . S
C99 O83 1.245 . S
C99 O84 1.259 . S
Tb100 O103 2.453 . S
Tb100 O104 2.596 . S
Tb100 O105 2.374 . S
Tb100 O113 2.343 . S
Tb100 O115 2.353 . S
Tb100 O117 2.427 . S
Tb100 O118 2.513 . S
C101 O105 1.251 . S
C101 O107 1.263 . S
Tb102 O104 2.343 . S
Tb102 O107 2.353 . S
Tb102 O110 2.427 . S
Tb102 O111 2.513 . S
Tb102 O112 2.453 . S
Tb102 O113 2.596 . S
Tb102 O114 2.374 . S
O103 Tb100 2.453 . S
O103 C119 1.245 . S
O104 Tb100 2.596 . S
O104 Tb102 2.343 . S
O104 C119 1.259 . S
O105 Tb100 2.374 . S
O105 C101 1.251 . S
C106 O110 1.275 . S
C106 O111 1.246 . S
O107 C101 1.263 . S
O107 Tb102 2.353 . S
C108 O112 1.245 . S
C108 O113 1.259 . S
C109 O114 1.250 . S
C109 O115 1.263 . S
O110 Tb102 2.427 . S
O110 C106 1.275 . S
O111 Tb102 2.513 . S
O111 C106 1.246 . S
O112 Tb102 2.453 . S
O112 C108 1.245 . S
O113 Tb100 2.343 . S
O113 Tb102 2.596 . S
O113 C108 1.259 . S
O114 Tb102 2.374 . S
O114 C109 1.250 . S
O115 Tb100 2.353 . S
O115 C109 1.263 . S
C116 O117 1.275 . S
C116 O118 1.246 . S
O117 Tb100 2.427 . S
O117 C116 1.275 . S
O118 Tb100 2.513 . S
O118 C116 1.246 . S
C119 O103 1.245 . S
C119 O104 1.259 . S
Tb120 O123 2.453 . S
Tb120 O124 2.596 . S
Tb120 O125 2.374 . S
Tb120 O133 2.343 1_554 S
Tb120 O135 2.353 . S
Tb120 O137 2.427 1_554 S
Tb120 O138 2.513 1_554 S
C121 O125 1.251 . S
C121 O127 1.263 1_554 S
Tb122 O124 2.343 1_556 S
Tb122 O127 2.353 . S
Tb122 O130 2.427 1_556 S
Tb122 O131 2.513 1_556 S
Tb122 O132 2.453 . S
Tb122 O133 2.596 . S
Tb122 O134 2.374 . S
O123 Tb120 2.453 . S
O123 C139 1.245 . S
O124 Tb120 2.596 . S
O124 Tb122 2.343 1_554 S
O124 C139 1.259 . S
O125 Tb120 2.374 . S
O125 C121 1.251 . S
C126 O130 1.275 . S
C126 O131 1.246 . S
O127 C121 1.263 1_556 S
O127 Tb122 2.353 . S
C128 O132 1.245 . S
C128 O133 1.259 . S
C129 O134 1.250 . S
C129 O135 1.263 1_556 S
O130 Tb122 2.427 1_554 S
O130 C126 1.275 . S
O131 Tb122 2.513 1_554 S
O131 C126 1.246 . S
O132 Tb122 2.453 . S
O132 C128 1.245 . S
O133 Tb120 2.343 1_556 S
O133 Tb122 2.596 . S
O133 C128 1.259 . S
O134 Tb122 2.374 . S
O134 C129 1.250 . S
O135 Tb120 2.353 . S
O135 C129 1.263 1_554 S
C136 O137 1.275 . S
C136 O138 1.246 . S
O137 Tb120 2.427 1_556 S
O137 C136 1.275 . S
O138 Tb120 2.513 1_556 S
O138 C136 1.246 . S
C139 O123 1.245 . S
C139 O124 1.259 . S
Tb140 O143 2.453 . S
Tb140 O144 2.596 1_655 S
Tb140 O145 2.374 . S
Tb140 O153 2.343 . S
Tb140 O155 2.353 1_655 S
Tb140 O157 2.427 . S
Tb140 O158 2.513 . S
C141 O145 1.251 . S
C141 O147 1.263 . S
Tb142 O144 2.343 . S
Tb142 O147 2.353 1_455 S
Tb142 O150 2.427 . S
Tb142 O151 2.513 . S
Tb142 O152 2.453 . S
Tb142 O153 2.596 1_455 S
Tb142 O154 2.374 . S
O143 Tb140 2.453 . S
O143 C159 1.248 . S
O144 Tb140 2.596 1_455 S
O144 Tb142 2.343 . S
O144 C159 1.259 1_455 S
O145 Tb140 2.374 . S
O145 C141 1.251 . S
C146 O150 1.275 . S
C146 O151 1.246 . S
O147 C141 1.263 . S
O147 Tb142 2.353 1_655 S
C148 O152 1.252 . S
C148 O153 1.257 1_455 S
C149 O154 1.250 . S
C149 O155 1.263 . S
O150 Tb142 2.427 . S
O150 C146 1.275 . S
O151 Tb142 2.513 . S
O151 C146 1.246 . S
O152 Tb142 2.453 . S
O152 C148 1.252 . S
O153 Tb140 2.343 . S
O153 Tb142 2.596 1_655 S
O153 C148 1.257 1_655 S
O154 Tb142 2.374 . S
O154 C149 1.250 . S
O155 Tb140 2.353 1_455 S
O155 C149 1.263 . S
C156 O157 1.275 . S
C156 O158 1.246 . S
O157 Tb140 2.427 . S
O157 C156 1.275 . S
O158 Tb140 2.513 . S
O158 C156 1.246 . S
C159 O143 1.248 . S
C159 O144 1.259 1_655 S
H160 C166 0.930 . S
H161 C170 0.930 . S
H162 C175 0.929 . S
H163 C173 0.929 . S
H164 C168 0.929 . S
H165 C174 0.929 . S
C166 H160 0.930 . S
C166 C167 1.367 . S
C166 C174 1.378 . S
C167 C166 1.367 . S
C167 C175 1.433 . S
C168 H164 0.929 . S
C168 C170 1.378 . S
C168 C172 1.350 . S
C169 C172 1.463 . S
C169 C174 1.350 . S
C169 N177 1.427 . S
C170 H161 0.930 . S
C170 C168 1.378 . S
C170 C171 1.367 . S
C171 C170 1.367 . S
C171 C173 1.433 . S
C172 C168 1.350 . S
C172 C169 1.463 . S
C172 N176 1.427 . S
C173 H163 0.929 . S
C173 C171 1.433 . S
C173 N176 1.384 . S
C174 H165 0.929 . S
C174 C166 1.378 . S
C174 C169 1.350 . S
C175 H162 0.929 . S
C175 C167 1.433 . S
C175 N177 1.384 . S
N176 C172 1.427 . S
N176 C173 1.384 . S
N177 C169 1.427 . S
N177 C175 1.384 . S
H178 C184 0.930 . S
H179 C188 0.930 . S
H180 C193 0.929 . S
H181 C191 0.929 . S
H182 C186 0.929 . S
H183 C192 0.929 . S
C184 H178 0.930 . S
C184 C185 1.367 . S
C184 C192 1.378 . S
C185 C184 1.367 . S
C185 C193 1.433 . S
C186 H182 0.929 . S
C186 C188 1.378 . S
C186 C190 1.350 . S
C187 C190 1.463 . S
C187 C192 1.350 . S
C187 N195 1.427 . S
C188 H179 0.930 . S
C188 C186 1.378 . S
C188 C189 1.367 . S
C189 C188 1.367 . S
C189 C191 1.433 . S
C190 C186 1.350 . S
C190 C187 1.463 . S
C190 N194 1.427 . S
C191 H181 0.929 . S
C191 C189 1.433 . S
C191 N194 1.384 . S
C192 H183 0.929 . S
C192 C184 1.378 . S
C192 C187 1.350 . S
C193 H180 0.929 . S
C193 C185 1.433 . S
C193 N195 1.384 . S
N194 C190 1.427 . S
N194 C191 1.384 . S
N195 C187 1.427 . S
N195 C193 1.384 . S
H196 C202 0.930 . S
H197 C206 0.930 . S
H198 C211 0.929 . S
H199 C209 0.929 1_554 S
H200 C204 0.929 . S
H201 C210 0.929 . S
C202 H196 0.930 . S
C202 C203 1.367 . S
C202 C210 1.378 . S
C203 C202 1.367 . S
C203 C211 1.433 . S
C204 H200 0.929 . S
C204 C206 1.378 . S
C204 C208 1.350 . S
C205 C208 1.463 . S
C205 C210 1.350 . S
C205 N213 1.427 . S
C206 H197 0.930 . S
C206 C204 1.378 . S
C206 C207 1.367 . S
C207 C206 1.367 . S
C207 C209 1.433 . S
C208 C204 1.350 . S
C208 C205 1.463 . S
C208 N212 1.427 . S
C209 H199 0.929 1_556 S
C209 C207 1.433 . S
C209 N212 1.384 . S
C210 H201 0.929 . S
C210 C202 1.378 . S
C210 C205 1.350 . S
C211 H198 0.929 . S
C211 C203 1.433 . S
C211 N213 1.384 . S
N212 C208 1.427 . S
N212 C209 1.384 . S
N213 C205 1.427 . S
N213 C211 1.384 . S
H214 C220 0.930 . S
H215 C224 0.930 . S
H216 C229 0.929 . S
H217 C227 0.929 . S
H218 C222 0.929 . S
H219 C228 0.929 . S
C220 H214 0.930 . S
C220 C221 1.367 . S
C220 C228 1.378 . S
C221 C220 1.367 . S
C221 C229 1.433 . S
C222 H218 0.929 . S
C222 C224 1.378 . S
C222 C226 1.350 . S
C223 C226 1.463 . S
C223 C228 1.350 . S
C223 N231 1.427 . S
C224 H215 0.930 . S
C224 C222 1.378 . S
C224 C225 1.367 . S
C225 C224 1.367 . S
C225 C227 1.433 . S
C226 C222 1.350 . S
C226 C223 1.463 . S
C226 N230 1.427 . S
C227 H217 0.929 . S
C227 C225 1.433 . S
C227 N230 1.384 . S
C228 H219 0.929 . S
C228 C220 1.378 . S
C228 C223 1.350 . S
C229 H216 0.929 . S
C229 C221 1.433 . S
C229 N231 1.384 . S
N230 C226 1.427 . S
N230 C227 1.384 . S
N231 C223 1.427 . S
N231 C229 1.384 . S
H232 C238 0.930 . S
H233 C242 0.930 . S
H234 C247 0.929 . S
H235 C245 0.929 . S
H236 C240 0.929 . S
H237 C246 0.929 . S
C238 H232 0.930 . S
C238 C239 1.367 . S
C238 C246 1.378 . S
C239 C238 1.367 . S
C239 C247 1.433 . S
C240 H236 0.929 . S
C240 C242 1.378 . S
C240 C244 1.350 . S
C241 C244 1.463 . S
C241 C246 1.350 . S
C241 N249 1.427 . S
C242 H233 0.930 . S
C242 C240 1.378 . S
C242 C243 1.367 . S
C243 C242 1.367 . S
C243 C245 1.433 . S
C244 C240 1.350 . S
C244 C241 1.463 . S
C244 N248 1.427 . S
C245 H235 0.929 . S
C245 C243 1.433 . S
C245 N248 1.384 . S
C246 H237 0.929 . S
C246 C238 1.378 . S
C246 C241 1.350 . S
C247 H234 0.929 . S
C247 C239 1.433 . S
C247 N249 1.384 . S
N248 C244 1.427 . S
N248 C245 1.384 . S
N249 C241 1.427 . S
N249 C247 1.384 . S
H250 C256 0.930 . S
H251 C260 0.930 . S
H252 C265 0.929 . S
H253 C263 0.929 . S
H254 C258 0.929 . S
H255 C264 0.929 . S
C256 H250 0.930 . S
C256 C257 1.367 . S
C256 C264 1.378 . S
C257 C256 1.367 . S
C257 C265 1.433 . S
C258 H254 0.929 . S
C258 C260 1.378 . S
C258 C262 1.350 . S
C259 C262 1.463 . S
C259 C264 1.350 . S
C259 N267 1.427 . S
C260 H251 0.930 . S
C260 C258 1.378 . S
C260 C261 1.367 . S
C261 C260 1.367 . S
C261 C263 1.433 . S
C262 C258 1.350 . S
C262 C259 1.463 . S
C262 N266 1.427 . S
C263 H253 0.929 . S
C263 C261 1.433 . S
C263 N266 1.384 . S
C264 H255 0.929 . S
C264 C256 1.378 . S
C264 C259 1.350 . S
C265 H252 0.929 . S
C265 C257 1.433 . S
C265 N267 1.384 . S
N266 C262 1.427 . S
N266 C263 1.384 . S
N267 C259 1.427 . S
N267 C265 1.384 . S
H268 C274 0.930 . S
H269 C278 0.930 1_556 S
H270 C283 0.929 . S
H271 C281 0.929 . S
H272 C276 0.929 . S
H273 C282 0.929 . S
C274 H268 0.930 . S
C274 C275 1.367 . S
C274 C282 1.378 . S
C275 C274 1.367 . S
C275 C283 1.433 . S
C276 H272 0.929 . S
C276 C278 1.378 . S
C276 C280 1.350 . S
C277 C280 1.463 . S
C277 C282 1.350 . S
C277 N285 1.427 . S
C278 H269 0.930 1_554 S
C278 C276 1.378 . S
C278 C279 1.367 . S
C279 C278 1.367 . S
C279 C281 1.433 . S
C280 C276 1.350 . S
C280 C277 1.463 . S
C280 N284 1.427 . S
C281 H271 0.929 . S
C281 C279 1.433 . S
C281 N284 1.384 . S
C282 H273 0.929 . S
C282 C274 1.378 . S
C282 C277 1.350 . S
C283 H270 0.929 . S
C283 C275 1.433 . S
C283 N285 1.384 . S
N284 C280 1.427 . S
N284 C281 1.384 . S
N285 C277 1.427 . S
N285 C283 1.384 . S
H286 C292 0.930 . S
H287 C296 0.930 . S
H288 C301 0.929 . S
H289 C299 0.929 . S
H290 C294 0.929 . S
H291 C300 0.929 . S
C292 H286 0.930 . S
C292 C293 1.367 . S
C292 C300 1.378 . S
C293 C292 1.367 . S
C293 C301 1.433 . S
C294 H290 0.929 . S
C294 C296 1.378 . S
C294 C298 1.350 . S
C295 C298 1.463 . S
C295 C300 1.350 . S
C295 N303 1.427 . S
C296 H287 0.930 . S
C296 C294 1.378 . S
C296 C297 1.367 . S
C297 C296 1.367 . S
C297 C299 1.433 . S
C298 C294 1.350 . S
C298 C295 1.463 . S
C298 N302 1.427 . S
C299 H289 0.929 . S
C299 C297 1.433 . S
C299 N302 1.384 . S
C300 H291 0.929 . S
C300 C292 1.378 . S
C300 C295 1.350 . S
C301 H288 0.929 . S
C301 C293 1.433 . S
C301 N303 1.384 . S
N302 C298 1.427 . S
N302 C299 1.384 . S
N303 C295 1.427 . S
N303 C301 1.384 . S
H304 C310 0.930 . S
H305 C314 0.930 . S
H306 C319 0.929 1_554 S
H307 C317 0.929 . S
H308 C312 0.929 . S
H309 C318 0.929 . S
C310 H304 0.930 . S
C310 C311 1.367 . S
C310 C318 1.378 . S
C311 C310 1.367 . S
C311 C319 1.433 . S
C312 H308 0.929 . S
C312 C314 1.378 . S
C312 C316 1.350 . S
C313 C316 1.463 . S
C313 C318 1.350 . S
C313 N321 1.427 . S
C314 H305 0.930 . S
C314 C312 1.378 . S
C314 C315 1.367 . S
C315 C314 1.367 . S
C315 C317 1.433 . S
C316 C312 1.350 . S
C316 C313 1.463 . S
C316 N320 1.427 . S
C317 H307 0.929 . S
C317 C315 1.433 . S
C317 N320 1.384 . S
C318 H309 0.929 . S
C318 C310 1.378 . S
C318 C313 1.350 . S
C319 H306 0.929 1_556 S
C319 C311 1.433 . S
C319 N321 1.384 . S
N320 C316 1.427 . S
N320 C317 1.384 . S
N321 C313 1.427 . S
N321 C319 1.384 . S
H322 C328 0.930 . S
H323 C332 0.930 . S
H324 C337 0.929 1_556 S
H325 C335 0.929 . S
H326 C330 0.935 . S
H327 C336 0.929 . S
C328 H322 0.930 . S
C328 C329 1.367 . S
C328 C336 1.378 . S
C329 C328 1.367 . S
C329 C337 1.433 . S
C330 H326 0.935 . S
C330 C332 1.379 . S
C330 C334 1.342 1_556 S
C331 C334 1.463 . S
C331 C336 1.350 . S
C331 N339 1.427 . S
C332 H323 0.930 . S
C332 C330 1.379 . S
C332 C333 1.367 1_556 S
C333 C332 1.367 1_554 S
C333 C335 1.433 . S
C334 C330 1.342 1_554 S
C334 C331 1.463 . S
C334 N338 1.427 . S
C335 H325 0.929 . S
C335 C333 1.433 . S
C335 N338 1.384 . S
C336 H327 0.929 . S
C336 C328 1.378 . S
C336 C331 1.350 . S
C337 H324 0.929 1_554 S
C337 C329 1.433 . S
C337 N339 1.384 . S
N338 C334 1.427 . S
N338 C335 1.384 . S
N339 C331 1.427 . S
N339 C337 1.384 . S
H340 C346 0.930 . S
H341 C350 0.930 . S
H342 C355 0.929 . S
H343 C353 0.929 . S
H344 C348 0.929 . S
H345 C354 0.929 . S
C346 H340 0.930 . S
C346 C347 1.367 . S
C346 C354 1.378 . S
C347 C346 1.367 . S
C347 C355 1.433 . S
C348 H344 0.929 . S
C348 C350 1.378 . S
C348 C352 1.350 . S
C349 C352 1.463 . S
C349 C354 1.350 . S
C349 N357 1.427 . S
C350 H341 0.930 . S
C350 C348 1.378 . S
C350 C351 1.367 . S
C351 C350 1.367 . S
C351 C353 1.433 . S
C352 C348 1.350 . S
C352 C349 1.463 . S
C352 N356 1.427 . S
C353 H343 0.929 . S
C353 C351 1.433 . S
C353 N356 1.384 . S
C354 H345 0.929 . S
C354 C346 1.378 . S
C354 C349 1.350 . S
C355 H342 0.929 . S
C355 C347 1.433 . S
C355 N357 1.384 . S
N356 C352 1.427 . S
N356 C353 1.384 . S
N357 C349 1.427 . S
N357 C355 1.384 . S
H358 C364 0.930 . S
H359 C368 0.930 . S
H360 C373 0.929 . S
H361 C371 0.929 . S
H362 C366 0.929 . S
H363 C372 0.929 . S
C364 H358 0.930 . S
C364 C365 1.367 . S
C364 C372 1.378 . S
C365 C364 1.367 . S
C365 C373 1.433 . S
C366 H362 0.929 . S
C366 C368 1.378 . S
C366 C370 1.350 . S
C367 C370 1.463 . S
C367 C372 1.350 . S
C367 N375 1.427 . S
C368 H359 0.930 . S
C368 C366 1.378 . S
C368 C369 1.367 . S
C369 C368 1.367 . S
C369 C371 1.433 . S
C370 C366 1.350 . S
C370 C367 1.463 . S
C370 N374 1.427 . S
C371 H361 0.929 . S
C371 C369 1.433 . S
C371 N374 1.384 . S
C372 H363 0.929 . S
C372 C364 1.378 . S
C372 C367 1.350 . S
C373 H360 0.929 . S
C373 C365 1.433 . S
C373 N375 1.384 . S
N374 C370 1.427 . S
N374 C371 1.384 . S
N375 C367 1.427 . S
N375 C373 1.384 . S
H376 C382 0.930 . S
H377 C386 0.930 . S
H378 C391 0.929 . S
H379 C389 0.929 . S
H380 C384 0.929 . S
H381 C390 0.929 . S
C382 H376 0.930 . S
C382 C383 1.367 . S
C382 C390 1.378 . S
C383 C382 1.367 . S
C383 C391 1.433 . S
C384 H380 0.929 . S
C384 C386 1.378 . S
C384 C388 1.350 . S
C385 C388 1.463 . S
C385 C390 1.350 . S
C385 N393 1.427 . S
C386 H377 0.930 . S
C386 C384 1.378 . S
C386 C387 1.367 . S
C387 C386 1.367 . S
C387 C389 1.433 . S
C388 C384 1.350 . S
C388 C385 1.463 . S
C388 N392 1.427 . S
C389 H379 0.929 . S
C389 C387 1.433 . S
C389 N392 1.384 . S
C390 H381 0.929 . S
C390 C382 1.378 . S
C390 C385 1.350 . S
C391 H378 0.929 . S
C391 C383 1.433 . S
C391 N393 1.384 . S
N392 C388 1.427 . S
N392 C389 1.384 . S
N393 C385 1.427 . S
N393 C391 1.384 . S
H394 C400 0.930 . S
H395 C404 0.930 1_554 S
H396 C409 0.929 . S
H397 C407 0.929 . S
H398 C402 0.929 1_554 S
H399 C408 0.929 . S
C400 H394 0.930 . S
C400 C401 1.367 . S
C400 C408 1.378 . S
C401 C400 1.367 . S
C401 C409 1.433 1_556 S
C402 H398 0.929 1_556 S
C402 C404 1.378 . S
C402 C406 1.350 . S
C403 C406 1.463 . S
C403 C408 1.350 . S
C403 N411 1.427 . S
C404 H395 0.930 1_556 S
C404 C402 1.378 . S
C404 C405 1.367 . S
C405 C404 1.367 . S
C405 C407 1.433 . S
C406 C402 1.350 . S
C406 C403 1.463 . S
C406 N410 1.427 . S
C407 H397 0.929 . S
C407 C405 1.433 . S
C407 N410 1.384 . S
C408 H399 0.929 . S
C408 C400 1.378 . S
C408 C403 1.350 . S
C409 H396 0.929 . S
C409 C401 1.433 1_554 S
C409 N411 1.384 1_554 S
N410 C406 1.427 . S
N410 C407 1.384 . S
N411 C403 1.427 . S
N411 C409 1.384 1_556 S
H412 C418 0.930 . S
H413 C422 0.930 . S
H414 C427 0.929 . S
H415 C425 0.929 . S
H416 C420 0.929 . S
H417 C426 0.929 . S
C418 H412 0.930 . S
C418 C419 1.367 . S
C418 C426 1.378 . S
C419 C418 1.367 . S
C419 C427 1.433 . S
C420 H416 0.929 . S
C420 C422 1.378 . S
C420 C424 1.350 . S
C421 C424 1.463 . S
C421 C426 1.350 . S
C421 N429 1.427 . S
C422 H413 0.930 . S
C422 C420 1.378 . S
C422 C423 1.367 . S
C423 C422 1.367 . S
C423 C425 1.433 . S
C424 C420 1.350 . S
C424 C421 1.463 . S
C424 N428 1.427 . S
C425 H415 0.929 . S
C425 C423 1.433 . S
C425 N428 1.384 . S
C426 H417 0.929 . S
C426 C418 1.378 . S
C426 C421 1.350 . S
C427 H414 0.929 . S
C427 C419 1.433 . S
C427 N429 1.384 . S
N428 C424 1.427 . S
N428 C425 1.384 . S
N429 C421 1.427 . S
N429 C427 1.384 . S
H430 C436 0.930 . S
H431 C440 0.930 . S
H432 C445 0.929 . S
H433 C443 0.929 . S
H434 C438 0.929 . S
H435 C444 0.929 . S
C436 H430 0.930 . S
C436 C437 1.367 . S
C436 C444 1.378 . S
C437 C436 1.367 . S
C437 C445 1.433 . S
C438 H434 0.929 . S
C438 C440 1.378 . S
C438 C442 1.350 . S
C439 C442 1.463 . S
C439 C444 1.350 . S
C439 N447 1.427 . S
C440 H431 0.930 . S
C440 C438 1.378 . S
C440 C441 1.367 . S
C441 C440 1.367 . S
C441 C443 1.433 . S
C442 C438 1.350 . S
C442 C439 1.463 . S
C442 N446 1.427 . S
C443 H433 0.929 . S
C443 C441 1.433 . S
C443 N446 1.384 . S
C444 H435 0.929 . S
C444 C436 1.378 . S
C444 C439 1.350 . S
C445 H432 0.929 . S
C445 C437 1.433 . S
C445 N447 1.384 . S
N446 C442 1.427 . S
N446 C443 1.384 . S
N447 C439 1.427 . S
N447 C445 1.384 . S
H448 C454 0.930 . S
H449 C458 0.930 . S
H450 C463 0.929 . S
H451 C461 0.929 . S
H452 C456 0.929 . S
H453 C462 0.929 . S
C454 H448 0.930 . S
C454 C455 1.367 1_455 S
C454 C462 1.378 . S
C455 C454 1.367 1_655 S
C455 C463 1.433 1_565 S
C456 H452 0.929 . S
C456 C458 1.378 . S
C456 C460 1.346 1_655 S
C457 C460 1.464 1_666 S
C457 C462 1.349 1_655 S
C457 N465 1.428 1_565 S
C458 H449 0.930 . S
C458 C456 1.378 . S
C458 C459 1.367 1_655 S
C459 C458 1.367 1_455 S
C459 C461 1.433 1_545 S
C460 C456 1.346 1_455 S
C460 C457 1.464 1_444 S
C460 N464 1.430 1_545 S
C461 H451 0.929 . S
C461 C459 1.433 1_565 S
C461 N464 1.384 . S
C462 H453 0.929 . S
C462 C454 1.378 . S
C462 C457 1.349 1_455 S
C463 H450 0.929 . S
C463 C455 1.433 1_545 S
C463 N465 1.384 . S
N464 C460 1.430 1_565 S
N464 C461 1.384 . S
N465 C457 1.428 1_545 S
N465 C463 1.384 . S
H466 C472 0.930 . S
H467 C476 0.930 . S
H468 C481 0.929 . S
H469 C479 0.929 . S
H470 C474 0.929 . S
H471 C480 0.929 . S
C472 H466 0.930 . S
C472 C473 1.367 . S
C472 C480 1.378 . S
C473 C472 1.367 . S
C473 C481 1.433 . S
C474 H470 0.929 . S
C474 C476 1.378 . S
C474 C478 1.350 . S
C475 C478 1.463 . S
C475 C480 1.350 . S
C475 N483 1.427 . S
C476 H467 0.930 . S
C476 C474 1.378 . S
C476 C477 1.367 . S
C477 C476 1.367 . S
C477 C479 1.433 . S
C478 C474 1.350 . S
C478 C475 1.463 . S
C478 N482 1.427 . S
C479 H469 0.929 . S
C479 C477 1.433 . S
C479 N482 1.384 . S
C480 H471 0.929 . S
C480 C472 1.378 . S
C480 C475 1.350 . S
C481 H468 0.929 . S
C481 C473 1.433 . S
C481 N483 1.384 . S
N482 C478 1.427 . S
N482 C479 1.384 . S
N483 C475 1.427 . S
N483 C481 1.384 . S
H484 C490 0.930 . S
H485 C494 0.930 . S
H486 C499 0.929 1_545 S
H487 C497 0.929 . S
H488 C492 0.929 . S
H489 C498 0.929 . S
C490 H484 0.930 . S
C490 C491 1.367 . S
C490 C498 1.378 . S
C491 C490 1.367 . S
C491 C499 1.433 . S
C492 H488 0.929 . S
C492 C494 1.378 . S
C492 C496 1.350 . S
C493 C496 1.463 1_565 S
C493 C498 1.350 . S
C493 N501 1.427 1_565 S
C494 H485 0.930 . S
C494 C492 1.378 . S
C494 C495 1.367 . S
C495 C494 1.367 . S
C495 C497 1.433 . S
C496 C492 1.350 . S
C496 C493 1.463 1_545 S
C496 N500 1.427 1_545 S
C497 H487 0.929 . S
C497 C495 1.433 . S
C497 N500 1.384 1_545 S
C498 H489 0.929 . S
C498 C490 1.378 . S
C498 C493 1.350 . S
C499 H486 0.929 1_565 S
C499 C491 1.433 . S
C499 N501 1.384 1_565 S
N500 C496 1.427 1_565 S
N500 C497 1.384 1_565 S
N501 C493 1.427 1_545 S
N501 C499 1.384 1_545 S
H502 C508 0.930 . S
H503 C512 0.930 . S
H504 C517 0.929 . S
H505 C515 0.929 . S
H506 C510 0.929 . S
H507 C516 0.929 . S
C508 H502 0.930 . S
C508 C509 1.367 . S
C508 C516 1.378 . S
C509 C508 1.367 . S
C509 C517 1.433 . S
C510 H506 0.929 . S
C510 C512 1.378 . S
C510 C514 1.350 . S
C511 C514 1.463 . S
C511 C516 1.350 . S
C511 N519 1.427 . S
C512 H503 0.930 . S
C512 C510 1.378 . S
C512 C513 1.367 . S
C513 C512 1.367 . S
C513 C515 1.433 . S
C514 C510 1.350 . S
C514 C511 1.463 . S
C514 N518 1.427 . S
C515 H505 0.929 . S
C515 C513 1.433 . S
C515 N518 1.384 . S
C516 H507 0.929 . S
C516 C508 1.378 . S
C516 C511 1.350 . S
C517 H504 0.929 . S
C517 C509 1.433 . S
C517 N519 1.384 . S
N518 C514 1.427 . S
N518 C515 1.384 . S
N519 C511 1.427 . S
N519 C517 1.384 . S
H520 C526 0.930 . S
H521 C530 0.930 . S
H522 C535 0.929 . S
H523 C533 0.929 . S
H524 C528 0.929 . S
H525 C534 0.929 . S
C526 H520 0.930 . S
C526 C527 1.367 . S
C526 C534 1.378 . S
C527 C526 1.367 . S
C527 C535 1.433 . S
C528 H524 0.929 . S
C528 C530 1.378 . S
C528 C532 1.350 . S
C529 C532 1.463 . S
C529 C534 1.350 . S
C529 N537 1.427 . S
C530 H521 0.930 . S
C530 C528 1.378 . S
C530 C531 1.367 . S
C531 C530 1.367 . S
C531 C533 1.433 . S
C532 C528 1.350 . S
C532 C529 1.463 . S
C532 N536 1.427 . S
C533 H523 0.929 . S
C533 C531 1.433 . S
C533 N536 1.384 . S
C534 H525 0.929 . S
C534 C526 1.378 . S
C534 C529 1.350 . S
C535 H522 0.929 . S
C535 C527 1.433 . S
C535 N537 1.384 . S
N536 C532 1.427 . S
N536 C533 1.384 . S
N537 C529 1.427 . S
N537 C535 1.384 . S
H538 C544 0.930 . S
H539 C548 0.930 . S
H540 C553 0.929 . S
H541 C551 0.929 . S
H542 C546 0.929 . S
H543 C552 0.929 . S
C544 H538 0.930 . S
C544 C545 1.367 . S
C544 C552 1.378 . S
C545 C544 1.367 . S
C545 C553 1.433 . S
C546 H542 0.929 . S
C546 C548 1.378 . S
C546 C550 1.350 . S
C547 C550 1.463 . S
C547 C552 1.350 . S
C547 N555 1.427 . S
C548 H539 0.930 . S
C548 C546 1.378 . S
C548 C549 1.367 . S
C549 C548 1.367 . S
C549 C551 1.433 . S
C550 C546 1.350 . S
C550 C547 1.463 . S
C550 N554 1.427 . S
C551 H541 0.929 . S
C551 C549 1.433 . S
C551 N554 1.384 . S
C552 H543 0.929 . S
C552 C544 1.378 . S
C552 C547 1.350 . S
C553 H540 0.929 . S
C553 C545 1.433 . S
C553 N555 1.384 . S
N554 C550 1.427 . S
N554 C551 1.384 . S
N555 C547 1.427 . S
N555 C553 1.384 . S
H556 C562 0.930 . S
H557 C566 0.930 . S
H558 C571 0.929 . S
H559 C569 0.929 . S
H560 C564 0.929 . S
H561 C570 0.929 . S
C562 H556 0.930 . S
C562 C563 1.367 . S
C562 C570 1.378 . S
C563 C562 1.367 . S
C563 C571 1.433 . S
C564 H560 0.929 . S
C564 C566 1.378 . S
C564 C568 1.350 . S
C565 C568 1.463 . S
C565 C570 1.350 . S
C565 N573 1.427 . S
C566 H557 0.930 . S
C566 C564 1.378 . S
C566 C567 1.367 . S
C567 C566 1.367 . S
C567 C569 1.433 . S
C568 C564 1.350 . S
C568 C565 1.463 . S
C568 N572 1.427 . S
C569 H559 0.929 . S
C569 C567 1.433 . S
C569 N572 1.384 . S
C570 H561 0.929 . S
C570 C562 1.378 . S
C570 C565 1.350 . S
C571 H558 0.929 . S
C571 C563 1.433 . S
C571 N573 1.384 . S
N572 C568 1.427 . S
N572 C569 1.384 . S
N573 C565 1.427 . S
N573 C571 1.384 . S
H574 C580 0.930 . S
H575 C584 0.930 . S
H576 C589 0.929 . S
H577 C587 0.929 . S
H578 C582 0.929 . S
H579 C588 0.929 . S
C580 H574 0.930 . S
C580 C581 1.367 . S
C580 C588 1.378 . S
C581 C580 1.367 . S
C581 C589 1.433 1_655 S
C582 H578 0.929 . S
C582 C584 1.378 . S
C582 C586 1.350 . S
C583 C586 1.463 1_656 S
C583 C588 1.350 . S
C583 N591 1.427 1_655 S
C584 H575 0.930 . S
C584 C582 1.378 . S
C584 C585 1.367 . S
C585 C584 1.367 . S
C585 C587 1.433 1_455 S
C586 C582 1.350 . S
C586 C583 1.463 1_454 S
C586 N590 1.427 1_455 S
C587 H577 0.929 . S
C587 C585 1.433 1_655 S
C587 N590 1.384 . S
C588 H579 0.929 . S
C588 C580 1.378 . S
C588 C583 1.350 . S
C589 H576 0.929 . S
C589 C581 1.433 1_455 S
C589 N591 1.384 . S
N590 C586 1.427 1_655 S
N590 C587 1.384 . S
N591 C583 1.427 1_455 S
N591 C589 1.384 . S
C167 C16 1.189 . S
C171 C76 1.187 . S
C185 C1 1.547 . S
C189 C36 1.496 . S
C203 C21 1.846 . S
C207 C41 1.848 . S
C221 C56 1.480 . S
C225 C61 1.536 . S
C239 C6 1.188 . S
C243 C106 1.190 . S
C257 C9 1.541 . S
C261 C86 1.486 . S
C275 C89 1.837 . S
C279 C49 1.837 . S
C293 C109 1.543 . S
C297 C46 1.489 . S
C311 C136 1.204 . S
C315 C116 1.205 . S
C329 C96 1.479 . S
C333 C121 1.538 . S
C347 C141 1.844 . S
C351 C81 1.847 . S
C365 C101 1.544 . S
C369 C156 1.489 . S
C383 C66 1.192 . S
C387 C126 1.191 . S
C401 C129 1.547 . S
C405 C26 1.497 . S
C419 C29 1.843 . S
C423 C149 1.844 . S
C437 C69 1.538 . S
C441 C146 1.479 . S
C455 C19 1.906 1_665 S
C459 C8 1.908 1_445 S
C473 C28 1.934 . S
C477 C39 1.934 1_554 S
C491 C59 1.925 . S
C495 C48 1.925 . S
C509 C79 1.898 1_556 S
C513 C68 1.898 . S
C527 C88 1.926 1_556 S
C531 C99 1.926 . S
C545 C119 1.898 . S
C549 C108 1.898 1_554 S
C563 C128 1.899 . S
C567 C139 1.899 . S
C581 C148 1.930 1_655 S
C585 C159 1.932 1_455 S
