# Generated by pormake.
# Topology wjf, (4)-cn, num edge types: 1
# Building blocks:
#     Node 0, Type 0, BuildingBlock: UXUYUI_clean_sbu_0, # of connection points: 4
#     Node 1, Type 0, BuildingBlock: UXUYUI_clean_sbu_0, # of connection points: 4
#     Node 2, Type 0, BuildingBlock: UXUYUI_clean_sbu_0, # of connection points: 4
#     Node 3, Type 0, BuildingBlock: UXUYUI_clean_sbu_0, # of connection points: 4
#     Node 4, Type 0, BuildingBlock: UXUYUI_clean_sbu_0, # of connection points: 4
#     Node 5, Type 0, BuildingBlock: UXUYUI_clean_sbu_0, # of connection points: 4
#     Node 6, Type 0, BuildingBlock: UXUYUI_clean_sbu_0, # of connection points: 4
#     Node 7, Type 0, BuildingBlock: UXUYUI_clean_sbu_0, # of connection points: 4
#     Node 8, Type 0, BuildingBlock: UXUYUI_clean_sbu_0, # of connection points: 4
#     Node 9, Type 0, BuildingBlock: UXUYUI_clean_sbu_0, # of connection points: 4
#     Node 10, Type 0, BuildingBlock: UXUYUI_clean_sbu_0, # of connection points: 4
#     Node 11, Type 0, BuildingBlock: UXUYUI_clean_sbu_0, # of connection points: 4
#     Edge 12, Type (0, 0), BuildingBlock: OJICUG_clean_linker_0, # of connection points: 2
#     Edge 13, Type (0, 0), BuildingBlock: OJICUG_clean_linker_0, # of connection points: 2
#     Edge 14, Type (0, 0), BuildingBlock: OJICUG_clean_linker_0, # of connection points: 2
#     Edge 15, Type (0, 0), BuildingBlock: OJICUG_clean_linker_0, # of connection points: 2
#     Edge 16, Type (0, 0), BuildingBlock: OJICUG_clean_linker_0, # of connection points: 2
#     Edge 17, Type (0, 0), BuildingBlock: OJICUG_clean_linker_0, # of connection points: 2
#     Edge 18, Type (0, 0), BuildingBlock: OJICUG_clean_linker_0, # of connection points: 2
#     Edge 19, Type (0, 0), BuildingBlock: OJICUG_clean_linker_0, # of connection points: 2
#     Edge 20, Type (0, 0), BuildingBlock: OJICUG_clean_linker_0, # of connection points: 2
#     Edge 21, Type (0, 0), BuildingBlock: OJICUG_clean_linker_0, # of connection points: 2
#     Edge 22, Type (0, 0), BuildingBlock: OJICUG_clean_linker_0, # of connection points: 2
#     Edge 23, Type (0, 0), BuildingBlock: OJICUG_clean_linker_0, # of connection points: 2
#     Edge 24, Type (0, 0), BuildingBlock: OJICUG_clean_linker_0, # of connection points: 2
#     Edge 25, Type (0, 0), BuildingBlock: OJICUG_clean_linker_0, # of connection points: 2
#     Edge 26, Type (0, 0), BuildingBlock: OJICUG_clean_linker_0, # of connection points: 2
#     Edge 27, Type (0, 0), BuildingBlock: OJICUG_clean_linker_0, # of connection points: 2
#     Edge 28, Type (0, 0), BuildingBlock: OJICUG_clean_linker_0, # of connection points: 2
#     Edge 29, Type (0, 0), BuildingBlock: OJICUG_clean_linker_0, # of connection points: 2
#     Edge 30, Type (0, 0), BuildingBlock: OJICUG_clean_linker_0, # of connection points: 2
#     Edge 31, Type (0, 0), BuildingBlock: OJICUG_clean_linker_0, # of connection points: 2
#     Edge 32, Type (0, 0), BuildingBlock: OJICUG_clean_linker_0, # of connection points: 2
#     Edge 33, Type (0, 0), BuildingBlock: OJICUG_clean_linker_0, # of connection points: 2
#     Edge 34, Type (0, 0), BuildingBlock: OJICUG_clean_linker_0, # of connection points: 2
#     Edge 35, Type (0, 0), BuildingBlock: OJICUG_clean_linker_0, # of connection points: 2
# Relax obj value: 0.355
# Max RMSD: 0.304
# Mean RMSD: 0.304
data_MOF--net-wjf--node1-UXUYUI_clean_sbu_0--edge1-OJICUG_clean_linker_0
_symmetry_space_group_name_H-M    P1
_symmetry_Int_Tables_number       1
_symmetry_cell_setting            triclinic
loop_
_symmetry_equiv_pos_as_xyz
'x, y, z'
_cell_length_a     60.054843
_cell_length_b     60.039853
_cell_length_c     32.322358
_cell_angle_alpha  89.949686
_cell_angle_beta   90.058567
_cell_angle_gamma 119.95597
loop_
_atom_site_label
_atom_site_type_symbol
_atom_site_fract_x
_atom_site_fract_y
_atom_site_fract_z
_atom_type_partial_charge
Li0 Li 0.31123 0.3856 0.05837 0.0
Li1 Li 0.32411 0.36344 0.10515 0.0
Li2 Li 0.35577 0.39784 0.05863 0.0
Li3 Li 0.32118 0.35532 0.03095 0.0
C4 C 0.32989 0.41637 0.12591 0.0
N5 N 0.31758 0.44825 0.16954 0.0
C6 C 0.30791 0.40587 0.15069 0.0
C7 C 0.34572 0.44303 0.12346 0.0
C8 C 0.30198 0.42234 0.17244 0.0
C9 C 0.33915 0.45884 0.14575 0.0
C10 C 0.27919 0.32251 0.07825 0.0
C11 C 0.27686 0.28181 0.09107 0.0
N12 N 0.25087 0.27043 0.09453 0.0
C13 C 0.25248 0.31041 0.08189 0.0
C14 C 0.29152 0.30811 0.08281 0.0
C15 C 0.23849 0.28406 0.09015 0.0
C16 C 0.26699 0.37738 0.0249 0.0
N17 N 0.28635 0.39599 0.04754 0.0
C18 C 0.26638 0.42194 0.04441 0.0
C19 C 0.28667 0.41825 0.05707 0.0
C20 C 0.24591 0.40261 0.02151 0.0
C21 C 0.24678 0.38038 0.01114 0.0
H22 H 0.26741 0.36016 0.0171 0.0
H23 H 0.3026 0.43321 0.07402 0.0
C24 C 0.34514 0.35362 0.17319 0.0
N25 N 0.32239 0.3501 0.15866 0.0
C26 C 0.34717 0.34715 0.21381 0.0
C27 C 0.30203 0.33269 0.22355 0.0
C28 C 0.30087 0.33951 0.18251 0.0
C29 C 0.3256 0.3371 0.23985 0.0
H30 H 0.36192 0.36221 0.15347 0.0
H31 H 0.28307 0.33713 0.17012 0.0
C32 C 0.32805 0.40562 0.98509 0.0
N33 N 0.3155 0.43569 0.9366 0.0
C34 C 0.31386 0.39565 0.94876 0.0
C35 C 0.33606 0.43097 -0.00343 0.0
C36 C 0.30766 0.41113 0.92472 0.0
C37 C 0.32948 0.44584 0.97168 0.0
C38 C 0.36862 0.35869 0.04983 0.0
C39 C 0.37982 0.3715 0.01284 0.0
C40 C 0.37644 0.34246 0.0675 0.0
C41 C 0.39867 0.36779 -0.00588 0.0
C42 C 0.39532 0.33923 0.04777 0.0
N43 N 0.40596 0.35186 0.01181 0.0
C44 C 0.40607 0.42186 0.08618 0.0
C45 C 0.40071 0.44271 0.02791 0.0
C46 C 0.43233 0.43955 0.08735 0.0
N47 N 0.39091 0.42373 0.05679 0.0
C48 C 0.42685 0.4611 0.0283 0.0
C49 C 0.44311 0.45968 0.05832 0.0
H50 H 0.39772 0.40638 0.1085 0.0
H51 H 0.38831 0.44357 0.00452 0.0
C52 C 0.28877 0.32605 0.96871 0.0
N53 N 0.31077 0.33047 0.9878 0.0
C54 C 0.28155 0.31314 0.93103 0.0
C55 C 0.31831 0.30701 0.93541 0.0
C56 C 0.32482 0.3201 0.97315 0.0
C57 C 0.29715 0.3046 0.91295 0.0
H58 H 0.27773 0.33411 0.98135 0.0
H59 H 0.34183 0.32314 0.98924 0.0
O60 O 0.3362 0.40064 0.10474 0.0
O61 O 0.29296 0.3483 0.07014 0.0
O62 O 0.33393 0.39062 0.00947 0.0
O63 O 0.35037 0.36222 0.06917 0.0
H64 H 0.2955 0.38526 0.15285 0.0
H65 H 0.36288 0.45138 0.10453 0.0
H66 H 0.28497 0.41453 0.19162 0.0
H67 H 0.35117 0.47952 0.14412 0.0
H68 H 0.28614 0.27044 0.0947 0.0
H69 H 0.24266 0.32129 0.07837 0.0
H70 H 0.31215 0.31704 0.08004 0.0
H71 H 0.2178 0.27446 0.09306 0.0
H72 H 0.26651 0.43943 0.05297 0.0
H73 H 0.23192 0.36529 -0.00751 0.0
H74 H 0.36561 0.35054 0.22504 0.0
H75 H 0.28503 0.32516 0.24277 0.0
H76 H 0.30772 0.37618 0.93917 0.0
H77 H 0.3468 0.43889 0.02485 0.0
H78 H 0.29661 0.40363 0.8966 0.0
H79 H 0.33535 0.4654 0.98039 0.0
H80 H 0.37395 0.38404 -0.00145 0.0
H81 H 0.36797 0.33245 0.09615 0.0
H82 H 0.40748 0.37754 0.96548 0.0
H83 H 0.40154 0.32669 0.06107 0.0
H84 H 0.44405 0.43723 0.11049 0.0
H85 H 0.43413 0.47639 0.00558 0.0
H86 H 0.26489 0.31133 0.91495 0.0
H87 H 0.33087 0.3007 0.92252 0.0
Li88 Li 0.95454 0.32204 0.43476 0.0
Li89 Li 0.91875 0.31243 0.38776 0.0
Li90 Li 0.95982 0.32123 0.36041 0.0
Li91 Li 0.95499 0.35629 0.38985 0.0
C92 C 0.9452 0.27535 0.40265 0.0
N93 N 0.96308 0.24131 0.41306 0.0
C94 C 0.92828 0.2489 0.39977 0.0
C95 C 0.97119 0.28449 0.41077 0.0
C96 C 0.93769 0.23199 0.40516 0.0
C97 C 0.97987 0.26699 0.41595 0.0
C98 C 0.90859 0.33217 0.45297 0.0
C99 C 0.87035 0.3357 0.45106 0.0
N100 N 0.86252 0.32248 0.48731 0.0
C101 C 0.90025 0.31869 0.49024 0.0
C102 C 0.89363 0.34086 0.43325 0.0
C103 C 0.87687 0.31397 0.50711 0.0
C104 C 0.98697 0.34016 0.50079 0.0
N105 N 0.96577 0.31847 0.48763 0.0
C106 C 0.96155 0.29834 0.55325 0.0
C107 C 0.95323 0.29749 0.51246 0.0
C108 C 0.98277 0.32103 0.56815 0.0
C109 C 0.99594 0.3418 0.54095 0.0
H110 H 0.99637 0.35661 0.48045 0.0
H111 H 0.93625 0.28057 0.50116 0.0
C112 C 0.87762 0.28893 0.33426 0.0
N113 N 0.88322 0.2907 0.37529 0.0
C114 C 0.85342 0.27082 0.31981 0.0
C115 C 0.84078 0.25642 0.39015 0.0
C116 C 0.86536 0.27505 0.40336 0.0
C117 C 0.83483 0.25375 0.34767 0.0
H118 H 0.89235 0.30065 0.31228 0.0
H119 H 0.87053 0.27608 0.43561 0.0
C120 C 0.00736 0.3611 0.384 0.0
N121 N 0.05655 0.38731 0.3519 0.0
C122 C 0.01296 0.37795 0.35074 0.0
C123 C 0.02692 0.35791 0.40141 0.0
C124 C 0.0379 0.39093 0.33482 0.0
C125 C 0.05163 0.37125 0.38462 0.0
C126 C 0.93803 0.34931 0.30818 0.0
C127 C 0.95807 0.35865 0.27941 0.0
C128 C 0.91765 0.35397 0.30214 0.0
C129 C 0.95769 0.37299 0.24565 0.0
C130 C 0.91798 0.36842 0.26802 0.0
N131 N 0.93783 0.37757 0.24072 0.0
C132 C 0.95438 0.29956 0.28538 0.0
C133 C 0.99635 0.31394 0.31114 0.0
C134 C 0.96072 0.29328 0.24753 0.0
N135 N 0.97237 0.3106 0.31554 0.0
C136 C 0.00352 0.30767 0.27369 0.0
C137 C 0.98582 0.29801 0.24072 0.0
H138 H 0.93534 0.2968 0.29012 0.0
H139 H 0.0101 0.32208 0.33604 0.0
C140 C 0.98911 0.40802 0.40834 0.0
N141 N 0.96602 0.39214 0.39034 0.0
C142 C 0.99835 0.43441 0.41064 0.0
C143 C 0.95945 0.42764 0.37725 0.0
C144 C 0.95096 0.40135 0.37563 0.0
C145 C 0.98351 0.44457 0.3948 0.0
H146 H 0.00036 0.40018 0.42119 0.0
H147 H 0.93218 0.38834 0.36331 0.0
O148 O 0.93623 0.29209 0.39722 0.0
O149 O 0.93133 0.33687 0.43589 0.0
O150 O 0.98301 0.34814 0.39998 0.0
O151 O 0.93773 0.33475 0.34109 0.0
H152 H 0.90808 0.24153 0.39343 0.0
H153 H 0.98452 0.30485 0.41302 0.0
H154 H 0.92481 0.21146 0.40303 0.0
H155 H -4e-05 0.27382 0.42224 0.0
H156 H 0.85848 0.34218 0.43604 0.0
H157 H 0.91166 0.31189 0.50588 0.0
H158 H 0.89982 0.35124 0.40431 0.0
H159 H 0.87012 0.30351 0.53589 0.0
H160 H 0.95079 0.28198 0.57343 0.0
H161 H 0.01257 0.35951 0.55105 0.0
H162 H 0.84966 0.26955 0.28686 0.0
H163 H 0.82715 0.24334 0.41262 0.0
H164 H 0.99829 0.38124 0.33771 0.0
H165 H 0.02308 0.34523 0.42755 0.0
H166 H 0.04244 0.40398 0.309 0.0
H167 H 0.06691 0.36884 0.39762 0.0
H168 H 0.97369 0.35472 0.2828 0.0
H169 H 0.90182 0.34666 0.32382 0.0
H170 H 0.97313 0.38039 0.22325 0.0
H171 H 0.90242 0.37232 0.2632 0.0
H172 H 0.94645 0.28629 0.22316 0.0
H173 H 0.02293 0.31116 0.27014 0.0
H174 H 0.01703 0.44672 0.42436 0.0
H175 H 0.94708 0.43456 0.36561 0.0
Li176 Li 0.63222 0.95609 0.77286 0.0
Li177 Li 0.60935 0.91942 0.72992 0.0
Li178 Li 0.63964 0.95794 0.69867 0.0
Li179 Li 0.59793 0.9522 0.72471 0.0
C180 C 0.67281 0.95101 0.74863 0.0
N181 N 0.72501 0.97619 0.76459 0.0
C182 C 0.68506 0.937 0.75784 0.0
C183 C 0.68715 0.97787 0.74769 0.0
C184 C 0.71145 0.95007 0.76577 0.0
C185 C 0.71351 0.99023 0.7558 0.0
C186 C 0.57995 0.90985 0.79618 0.0
C187 C 0.53828 0.87622 0.8183 0.0
N188 N 0.54977 0.86566 0.84099 0.0
C189 C 0.59139 0.8988 0.81988 0.0
C190 C 0.55322 0.8986 0.79544 0.0
C191 C 0.57577 0.87639 0.84224 0.0
C192 C 0.64216 0.98879 0.83882 0.0
N193 N 0.64584 0.9694 0.82572 0.0
C194 C 0.66346 0.96788 0.89132 0.0
C195 C 0.65661 0.95908 0.85065 0.0
C196 C 0.65891 0.98724 0.90621 0.0
C197 C 0.64867 0.99812 0.87906 0.0
H198 H 0.63334 0.99641 0.81833 0.0
H199 H 0.65904 0.94345 0.83949 0.0
C200 C 0.61611 0.87815 0.71635 0.0
N201 N 0.597 0.88335 0.72453 0.0
C202 C 0.61044 0.85323 0.70751 0.0
C203 C 0.56524 0.83908 0.7147 0.0
C204 C 0.57186 0.8644 0.72436 0.0
C205 C 0.58477 0.83341 0.70618 0.0
H206 H 0.63582 0.89355 0.71539 0.0
H207 H 0.55691 0.86897 0.73035 0.0
C208 C 0.63674 0.00322 0.71161 0.0
N209 N 0.64268 0.04565 0.66862 0.0
C210 C 0.62634 0.00035 0.67193 0.0
C211 C 0.65015 0.02765 0.7294 0.0
C212 C 0.62954 0.02204 0.65072 0.0
C213 C 0.65297 0.04887 0.70716 0.0
C214 C 0.58582 0.91366 0.65788 0.0
C215 C 0.59289 0.90238 0.62655 0.0
C216 C 0.55986 0.90319 0.66802 0.0
C217 C 0.57388 0.88071 0.60606 0.0
C218 C 0.54141 0.88156 0.6467 0.0
N219 N 0.54875 0.87084 0.61646 0.0
C220 C 0.66471 0.95133 0.63319 0.0
C221 C 0.67653 0.9951 0.64114 0.0
C222 C 0.67668 0.95637 0.59467 0.0
N223 N 0.66364 0.9703 0.65438 0.0
C224 C 0.68875 0.00104 0.60268 0.0
C225 C 0.68777 0.98126 0.57806 0.0
H226 H 0.65495 0.93194 0.64525 0.0
H227 H 0.67619 0.01005 0.65913 0.0
C228 C 0.56619 0.96963 0.75491 0.0
N229 N 0.57238 0.96181 0.71952 0.0
C230 C 0.54829 0.97798 0.75418 0.0
C231 C 0.54348 0.97009 0.68047 0.0
C232 C 0.56155 0.96194 0.68263 0.0
C233 C 0.53663 0.97827 0.71661 0.0
H234 H 0.57541 0.96961 0.78367 0.0
H235 H 0.56703 0.95583 0.65487 0.0
O236 O 0.64691 0.93826 0.74096 0.0
O237 O 0.59487 0.9317 0.774 0.0
O238 O 0.63367 0.98228 0.73327 0.0
O239 O 0.60415 0.93475 0.67868 0.0
H240 H 0.67427 0.91621 0.75901 0.0
H241 H 0.67819 0.98917 0.74078 0.0
H242 H 0.72115 0.93944 0.77291 0.0
H243 H 0.72481 0.01099 0.75512 0.0
H244 H 0.51755 0.86722 0.81795 0.0
H245 H 0.61207 0.9073 0.82063 0.0
H246 H 0.54414 0.90702 0.77726 0.0
H247 H 0.58433 0.86751 0.86055 0.0
H248 H 0.67108 0.95883 0.91138 0.0
H249 H 0.64516 0.01329 0.88913 0.0
H250 H 0.62598 0.84962 0.70029 0.0
H251 H 0.54521 0.8242 0.71363 0.0
H252 H 0.61615 0.98166 0.65746 0.0
H253 H 0.65834 0.03019 0.76007 0.0
H254 H 0.62164 0.02011 0.61998 0.0
H255 H 0.66333 0.0679 0.72054 0.0
H256 H 0.61281 0.91021 0.61808 0.0
H257 H 0.55402 0.91131 0.6927 0.0
H258 H 0.57911 0.87174 0.58186 0.0
H259 H 0.52128 0.87318 0.65443 0.0
H260 H 0.67599 0.94069 0.57708 0.0
H261 H 0.69712 0.02052 0.59112 0.0
H262 H 0.54398 0.98454 0.78265 0.0
H263 H 0.53481 0.96976 0.65092 0.0
Li264 Li 0.67343 0.63467 0.10686 0.0
Li265 Li 0.68437 0.61143 0.05846 0.0
Li266 Li 0.67064 0.64059 0.03347 0.0
Li267 Li 0.639 0.59806 0.06504 0.0
C268 C 0.72187 0.66729 0.08676 0.0
N269 N 0.76335 0.70459 0.13027 0.0
C270 C 0.73983 0.6617 0.10418 0.0
C271 C 0.7251 0.69188 0.09111 0.0
C272 C 0.76065 0.68082 0.12614 0.0
C273 C 0.74616 0.71046 0.11335 0.0
C274 C 0.66444 0.57701 0.12272 0.0
C275 C 0.64954 0.53154 0.12495 0.0
N276 N 0.66833 0.53598 0.15277 0.0
C277 C 0.68353 0.58111 0.15146 0.0
C278 C 0.64722 0.55202 0.10948 0.0
C279 C 0.6852 0.56011 0.16624 0.0
C280 C 0.66419 0.65992 0.17175 0.0
N281 N 0.6797 0.65068 0.1597 0.0
C282 C 0.7004 0.66066 0.22575 0.0
C283 C 0.69779 0.65113 0.18557 0.0
C284 C 0.6841 0.66965 0.23945 0.0
C285 C 0.66613 0.66963 0.21158 0.0
H286 H 0.64962 0.6589 0.15096 0.0
H287 H 0.70976 0.64349 0.17545 0.0
C288 C 0.72599 0.61978 0.0152 0.0
N289 N 0.70947 0.60231 0.04283 0.0
C290 C 0.74632 0.61765 -0.00066 0.0
C291 C 0.73251 0.57935 0.04047 0.0
C292 C 0.71196 0.58196 0.05503 0.0
C293 C 0.75028 0.59764 0.0127 0.0
H294 H 0.72329 0.63549 0.00537 0.0
H295 H 0.69829 0.56785 0.07609 0.0
C296 C 0.63307 0.64731 0.06376 0.0
N297 N 0.61147 0.67606 0.0372 0.0
C298 C 0.60828 0.63513 0.04704 0.0
C299 C 0.6468 0.67409 0.0672 0.0
C300 C 0.59771 0.65002 0.03375 0.0
C301 C 0.63557 0.68829 0.05351 0.0
C302 C 0.66547 0.59368 0.9836 0.0
C303 C 0.67816 0.60734 0.94797 0.0
C304 C 0.6603 0.56842 0.98875 0.0
C305 C 0.68573 0.59555 0.91828 0.0
C306 C 0.66821 0.55733 0.95837 0.0
N307 N 0.68067 0.57102 0.92407 0.0
C308 C 0.7012 0.67871 0.9769 0.0
C309 C 0.6564 0.66022 0.9652 0.0
C310 C 0.70663 0.69065 0.93823 0.0
N311 N 0.67641 0.66331 0.98899 0.0
C312 C 0.66097 0.67231 0.92682 0.0
C313 C 0.68629 0.6869 0.91237 0.0
H314 H 0.7167 0.6801 -0.00416 0.0
H315 H 0.63692 0.64689 0.97449 0.0
C316 C 0.58873 0.5711 0.09543 0.0
N317 N 0.60423 0.57148 0.06457 0.0
C318 C 0.56257 0.55289 0.0952 0.0
C319 C 0.56902 0.53537 0.03198 0.0
C320 C 0.59499 0.55416 0.03315 0.0
C321 C 0.55231 0.53467 0.0631 0.0
H322 H 0.59664 0.58537 0.11973 0.0
H323 H 0.60772 0.55506 0.0088 0.0
O324 O 0.70129 0.64883 0.06532 0.0
O325 O 0.66213 0.59723 0.1086 0.0
O326 O 0.64378 0.63309 0.07687 0.0
O327 O 0.65848 0.60512 0.01351 0.0
H328 H 0.73756 0.64272 0.10119 0.0
H329 H 0.71147 0.69655 0.0775 0.0
H330 H 0.77464 0.67674 0.14 0.0
H331 H 0.74886 0.72956 0.11713 0.0
H332 H 0.63639 0.51212 0.11488 0.0
H333 H 0.697 0.60028 0.16207 0.0
H334 H 0.6322 0.54844 0.08756 0.0
H335 H 0.69993 0.56302 0.18838 0.0
H336 H 0.71462 0.66047 0.24615 0.0
H337 H 0.65281 0.67587 0.22101 0.0
H338 H 0.75892 0.63175 0.97697 0.0
H339 H 0.73476 0.56357 0.05161 0.0
H340 H 0.59741 0.61444 0.04399 0.0
H341 H 0.66597 0.68379 0.08018 0.0
H342 H 0.57859 0.64087 0.02059 0.0
H343 H 0.64602 0.70904 0.05584 0.0
H344 H 0.68229 0.62687 0.94338 0.0
H345 H 0.65065 0.55763 0.01622 0.0
H346 H 0.69567 0.60594 0.89067 0.0
H347 H 0.66453 0.53788 0.96213 0.0
H348 H 0.72636 0.7015 0.92771 0.0
H349 H 0.64481 0.66848 0.90718 0.0
H350 H 0.55048 0.55351 0.11945 0.0
H351 H 0.56218 0.52153 0.00697 0.0
Li352 Li 0.07587 0.68591 0.39419 0.0
Li353 Li 0.04197 0.67462 0.44306 0.0
Li354 Li 0.04462 0.64094 0.40204 0.0
Li355 Li 0.03326 0.67182 0.36962 0.0
C356 C 0.09036 0.67139 0.46645 0.0
N357 N 0.13439 0.68571 0.51202 0.0
C358 C 0.10014 0.6929 0.49226 0.0
C359 C 0.1028 0.65702 0.46402 0.0
C360 C 0.12247 0.69986 0.51502 0.0
C361 C 0.1251 0.66463 0.48723 0.0
C362 C 0.04284 0.71663 0.40781 0.0
C363 C 0.00401 0.71813 0.42029 0.0
N364 N 0.01774 0.74424 0.41838 0.0
C365 C 0.05654 0.74346 0.4059 0.0
C366 C 0.01634 0.70382 0.41499 0.0
C367 C 0.04351 0.75708 0.41135 0.0
C368 C 0.10894 0.72194 0.34224 0.0
N369 N 0.11013 0.7105 0.3777 0.0
C370 C 0.15591 0.7373 0.37929 0.0
C371 C 0.13308 0.71736 0.39606 0.0
C372 C 0.155 0.74981 0.34297 0.0
C373 C 0.13109 0.74112 0.32379 0.0
H374 H 0.09055 0.71608 0.32824 0.0
H375 H 0.13383 0.70793 0.42397 0.0
C376 C 0.01204 0.65986 0.51334 0.0
N377 N 0.03182 0.68067 0.49502 0.0
C378 C 0.00333 0.66209 0.55213 0.0
C379 C 0.03555 0.70725 0.55259 0.0
C380 C 0.04347 0.70419 0.51339 0.0
C381 C 0.0153 0.68595 0.57243 0.0
H382 H 0.00336 0.64139 0.49804 0.0
H383 H 0.0591 0.72043 0.49787 0.0
C384 C 0.07508 0.66157 0.32341 0.0
N385 N 0.11302 0.66601 0.27013 0.0
C386 C 0.07536 0.66898 0.28234 0.0
C387 C 0.09394 0.65618 0.33732 0.0
C388 C 0.09475 0.67118 0.2559 0.0
C389 C 0.11299 0.6586 0.30992 0.0
C390 C 0.99201 0.62447 0.39688 0.0
C391 C 0.99311 0.61293 0.35994 0.0
C392 C 0.96866 0.61468 0.41794 0.0
C393 C 0.97082 0.5917 0.34482 0.0
C394 C 0.94679 0.59345 0.40175 0.0
N395 N 0.94832 0.58248 0.36585 0.0
C396 C 0.02709 0.59217 0.43711 0.0
C397 C 0.04033 0.59568 0.36719 0.0
C398 C 0.01898 0.56594 0.4373 0.0
N399 N 0.03733 0.60634 0.4023 0.0
C400 C 0.03255 0.56958 0.36602 0.0
C401 C 0.02139 0.55425 0.40122 0.0
H402 H 0.02457 0.60115 0.46436 0.0
H403 H 0.04804 0.60723 0.33967 0.0
C404 C 0.03176 0.69734 0.30056 0.0
N405 N 0.01579 0.67768 0.32571 0.0
C406 C 0.02325 0.70057 0.26218 0.0
C407 C 0.98112 0.66491 0.27816 0.0
C408 C 0.99047 0.66247 0.31645 0.0
C409 C 0.998 0.68333 0.24973 0.0
H410 H 0.05159 0.70951 0.3092 0.0
H411 H 0.9778 0.64761 0.33755 0.0
O412 O 0.06829 0.66395 0.44455 0.0
O413 O 0.05548 0.70318 0.40245 0.0
O414 O 0.05672 0.66007 0.3501 0.0
O415 O 0.01363 0.64502 0.41282 0.0
H416 H 0.09073 0.7042 0.49445 0.0
H417 H 0.09525 0.64014 0.44453 0.0
H418 H 0.13035 0.71653 0.535 0.0
H419 H 0.13498 0.65374 0.48561 0.0
H420 H 0.98353 0.70848 0.42591 0.0
H421 H 0.07705 0.75364 0.40027 0.0
H422 H 0.00534 0.68309 0.41649 0.0
H423 H 0.05388 0.77786 0.40998 0.0
H424 H 0.17386 0.74333 0.39536 0.0
H425 H 0.12927 0.74935 0.29505 0.0
H426 H 0.98801 0.64509 0.56674 0.0
H427 H 0.04524 0.72593 0.56735 0.0
H428 H 0.06087 0.67317 0.27108 0.0
H429 H 0.09398 0.65047 0.36905 0.0
H430 H 0.09529 0.67704 0.22408 0.0
H431 H 0.12781 0.65465 0.32032 0.0
H432 H 0.01087 0.6204 0.34285 0.0
H433 H 0.96743 0.62342 0.44648 0.0
H434 H 0.97141 0.58261 0.31628 0.0
H435 H 0.92859 0.58568 0.41773 0.0
H436 H 0.01018 0.5548 0.46496 0.0
H437 H 0.03505 0.56145 0.3377 0.0
H438 H 0.03693 0.715 0.24122 0.0
H439 H 0.96135 0.65155 0.26987 0.0
Li440 Li 0.39678 0.07981 0.71645 0.0
Li441 Li 0.37165 0.04474 0.76527 0.0
Li442 Li 0.40351 0.04309 0.71684 0.0
Li443 Li 0.36302 0.0387 0.69142 0.0
C444 C 0.42729 0.09039 0.78025 0.0
N445 N 0.46239 0.13709 0.81445 0.0
C446 C 0.42193 0.09817 0.81787 0.0
C447 C 0.45053 0.10626 0.76011 0.0
C448 C 0.43993 0.12187 0.83466 0.0
C449 C 0.46801 0.12984 0.77786 0.0
C450 C 0.33419 0.05529 0.73656 0.0
C451 C 0.29096 0.02194 0.75216 0.0
N452 N 0.28316 0.03967 0.75146 0.0
C453 C 0.32578 0.07319 0.73595 0.0
C454 C 0.31667 0.02947 0.74469 0.0
C455 C 0.2999 0.06491 0.74358 0.0
C456 C 0.41551 0.12141 0.6631 0.0
N457 N 0.4107 0.11535 0.70387 0.0
C458 C 0.41757 0.15732 0.71892 0.0
C459 C 0.41182 0.13276 0.7319 0.0
C460 C 0.42171 0.16369 0.67665 0.0
C461 C 0.42133 0.1456 0.64885 0.0
H462 H 0.41339 0.10701 0.64108 0.0
H463 H 0.40692 0.12719 0.76387 0.0
C464 C 0.36107 0.01495 0.83443 0.0
N465 N 0.35844 0.03461 0.81932 0.0
C466 C 0.35453 0.00696 0.87522 0.0
C467 C 0.34196 0.03916 0.88411 0.0
C468 C 0.34876 0.04657 0.84284 0.0
C469 C 0.3454 0.01948 0.90095 0.0
H470 H 0.36893 0.00592 0.81495 0.0
H471 H 0.34712 0.06233 0.83002 0.0
C472 C 0.41095 0.05818 0.63552 0.0
N473 N 0.43698 0.05491 0.56739 0.0
C474 C 0.39861 0.03772 0.60774 0.0
C475 C 0.4364 0.0772 0.62816 0.0
C476 C 0.41213 0.03635 0.57361 0.0
C477 C 0.44928 0.07514 0.59371 0.0
C478 C 0.3537 0.99085 0.7166 0.0
C479 C 0.36138 0.98309 0.68125 0.0
C480 C 0.33191 0.97296 0.73832 0.0
C481 C 0.34684 0.9577 0.66763 0.0
C482 C 0.31787 0.94773 0.72372 0.0
N483 N 0.32553 0.9407 0.68894 0.0
C484 C 0.42041 0.0073 0.72685 0.0
C485 C 0.45259 0.04768 0.70151 0.0
C486 C 0.43755 0.99801 0.72646 0.0
N487 N 0.42799 0.0316 0.71381 0.0
C488 C 0.47043 0.03919 0.70065 0.0
C489 C 0.46298 0.01402 0.71325 0.0
H490 H 0.40112 0.99517 0.73819 0.0
H491 H 0.4586 0.06728 0.69319 0.0
C492 C 0.34462 0.04408 0.61836 0.0
N493 N 0.33837 0.02613 0.64841 0.0
C494 C 0.33131 0.03764 0.58109 0.0
C495 C 0.30358 0.99485 0.60779 0.0
C496 C 0.31767 0.00213 0.64465 0.0
C497 C 0.31101 0.01246 0.57475 0.0
H498 H 0.361 0.06313 0.62256 0.0
H499 H 0.31261 0.98838 0.66945 0.0
O500 O 0.40986 0.06735 0.76322 0.0
O501 O 0.35945 0.06314 0.72901 0.0
O502 O 0.39795 0.06014 0.66888 0.0
O503 O 0.36768 0.01567 0.73038 0.0
H504 H 0.40404 0.08607 0.83387 0.0
H505 H 0.45488 0.10055 0.73086 0.0
H506 H 0.43603 0.12818 0.86372 0.0
H507 H 0.48601 0.1424 0.76251 0.0
H508 H 0.2772 0.00199 0.7585 0.0
H509 H 0.33913 0.09327 0.72963 0.0
H510 H 0.32285 0.01543 0.74519 0.0
H511 H 0.29311 0.07855 0.74322 0.0
H512 H 0.41723 0.17058 0.74127 0.0
H513 H 0.42448 0.14972 0.61606 0.0
H514 H 0.35711 0.99145 0.88678 0.0
H515 H 0.33514 0.0494 0.90305 0.0
H516 H 0.37876 0.02313 0.61217 0.0
H517 H 0.44618 0.09335 0.64903 0.0
H518 H 0.40282 0.02057 0.55197 0.0
H519 H 0.46904 0.08964 0.58787 0.0
H520 H 0.3786 0.99643 0.66485 0.0
H521 H 0.32588 0.97846 0.76616 0.0
H522 H 0.35256 0.95149 0.64024 0.0
H523 H 0.30089 0.93373 0.74009 0.0
H524 H 0.43092 0.97846 0.73642 0.0
H525 H 0.49 0.05243 0.69124 0.0
H526 H 0.33809 0.05186 0.55663 0.0
H527 H 0.28773 0.97537 0.60461 0.0
Li528 Li 0.63762 0.67572 0.61351 0.0
Li529 Li 0.5955 0.64232 0.58231 0.0
Li530 Li 0.63132 0.67699 0.54063 0.0
Li531 Li 0.60763 0.68765 0.58629 0.0
C532 C 0.64452 0.63734 0.5875 0.0
N533 N 0.67155 0.61527 0.62003 0.0
C534 C 0.6315 0.61177 0.60083 0.0
C535 C 0.67131 0.65162 0.59045 0.0
C536 C 0.64551 0.60098 0.61723 0.0
C537 C 0.68461 0.64014 0.60708 0.0
C538 C 0.58888 0.66876 0.66057 0.0
C539 C 0.54907 0.66293 0.68839 0.0
N540 N 0.56255 0.68188 0.7164 0.0
C541 C 0.60234 0.68807 0.68978 0.0
C542 C 0.56203 0.65601 0.65988 0.0
C543 C 0.58867 0.69448 0.71767 0.0
C544 C 0.67456 0.70687 0.67198 0.0
N545 N 0.65931 0.68207 0.65976 0.0
C546 C 0.6669 0.66659 0.72314 0.0
C547 C 0.65546 0.66205 0.68424 0.0
C548 C 0.68156 0.69194 0.73747 0.0
C549 C 0.68583 0.71229 0.71122 0.0
H550 H 0.67646 0.72237 0.6525 0.0
H551 H 0.64222 0.64256 0.67472 0.0
C552 C 0.56242 0.59327 0.54949 0.0
N553 N 0.56966 0.60732 0.5849 0.0
C554 C 0.54433 0.56707 0.55075 0.0
C555 C 0.54154 0.57037 0.62492 0.0
C556 C 0.55975 0.59648 0.62222 0.0
C557 C 0.53367 0.55525 0.58888 0.0
H558 H 0.57097 0.60242 0.52035 0.0
H559 H 0.56621 0.60807 0.64995 0.0
C560 C 0.66398 0.724 0.55569 0.0
N561 N 0.70148 0.75971 0.50412 0.0
C562 C 0.65809 0.73828 0.52818 0.0
C563 C 0.68898 0.72804 0.55731 0.0
C564 C 0.6773 0.75621 0.50227 0.0
C565 C 0.70766 0.74614 0.53089 0.0
C566 C 0.57315 0.66722 0.52646 0.0
C567 C 0.57731 0.68948 0.50591 0.0
C568 C 0.54802 0.64781 0.535 0.0
C569 C 0.55625 0.69198 0.49434 0.0
C570 C 0.52747 0.65103 0.52286 0.0
N571 N 0.53197 0.67286 0.50297 0.0
C572 C 0.66873 0.68066 0.48315 0.0
C573 C 0.63624 0.68766 0.45519 0.0
C574 C 0.67915 0.68245 0.44387 0.0
N575 N 0.64744 0.68289 0.48793 0.0
C576 C 0.64602 0.68963 0.4154 0.0
C577 C 0.66744 0.68648 0.40924 0.0
H578 H 0.67725 0.67685 0.50966 0.0
H579 H 0.6192 0.68907 0.45975 0.0
C580 C 0.61537 0.7339 0.61479 0.0
N581 N 0.59593 0.71116 0.60061 0.0
C582 C 0.61019 0.75176 0.633 0.0
C583 C 0.56492 0.72312 0.62075 0.0
C584 C 0.57099 0.70553 0.60295 0.0
C585 C 0.58471 0.74627 0.63695 0.0
H586 H 0.63495 0.73779 0.61375 0.0
H587 H 0.55571 0.687 0.59295 0.0
O588 O 0.63109 0.64826 0.5715 0.0
O589 O 0.60193 0.66275 0.63223 0.0
O590 O 0.64527 0.70594 0.58057 0.0
O591 O 0.59348 0.66418 0.53742 0.0
H592 H 0.61081 0.60036 0.59861 0.0
H593 H 0.68169 0.6715 0.58078 0.0
H594 H 0.63567 0.58124 0.62777 0.0
H595 H 0.70532 0.65104 0.60986 0.0
H596 H 0.5283 0.65335 0.68805 0.0
H597 H 0.62312 0.69823 0.69056 0.0
H598 H 0.55134 0.64123 0.63714 0.0
H599 H 0.59884 0.70952 0.74024 0.0
H600 H 0.66267 0.65043 0.74307 0.0
H601 H 0.69671 0.73204 0.72169 0.0
H602 H 0.53918 0.55612 0.52228 0.0
H603 H 0.53367 0.56217 0.65489 0.0
H604 H 0.63885 0.73545 0.52673 0.0
H605 H 0.69386 0.71718 0.57853 0.0
H606 H 0.67299 0.76731 0.48067 0.0
H607 H 0.72707 0.74937 0.53161 0.0
H608 H 0.59659 0.70478 0.49928 0.0
H609 H 0.54439 0.63048 0.55092 0.0
H610 H 0.5592 0.70915 0.47857 0.0
H611 H 0.50793 0.63618 0.52932 0.0
H612 H 0.69581 0.68012 0.44053 0.0
H613 H 0.63612 0.69234 0.38956 0.0
H614 H 0.62602 0.76957 0.64468 0.0
H615 H 0.54501 0.71822 0.6235 0.0
Li616 Li 0.95241 0.59524 0.91 0.0
Li617 Li 0.96279 0.63674 0.9459 0.0
Li618 Li 0.92211 0.61002 0.91635 0.0
Li619 Li 0.95756 0.63377 0.87073 0.0
C620 C 0.91862 0.5871 0.98785 0.0
N621 N 0.87739 0.55986 0.04022 0.0
C622 C 0.91781 0.59734 0.02626 0.0
C623 C 0.89861 0.56288 0.97626 0.0
C624 C 0.89677 0.5833 0.05227 0.0
C625 C 0.87789 0.54946 0.00311 0.0
C626 C 0.00695 0.63447 0.91794 0.0
C627 C 0.05329 0.65795 0.91587 0.0
N628 N 0.05384 0.64143 0.94413 0.0
C629 C 0.00799 0.61775 0.94702 0.0
C630 C 0.02979 0.65474 0.90222 0.0
C631 C 0.03187 0.62158 0.95984 0.0
C632 C 0.97615 0.56888 0.87854 0.0
N633 N 0.95936 0.56773 0.90776 0.0
C634 C 0.95704 0.53021 0.93751 0.0
C635 C 0.94961 0.54883 0.93677 0.0
C636 C 0.97496 0.53126 0.90845 0.0
C637 C 0.98432 0.55082 0.87839 0.0
H638 H 0.98388 0.58441 0.85626 0.0
H639 H 0.9366 0.5486 0.96003 0.0
C640 C 0.96391 0.66831 0.00954 0.0
N641 N 0.97748 0.65777 -0.00663 0.0
C642 C 0.96839 0.67757 0.05003 0.0
C643 C 0.00195 0.66663 0.05542 0.0
C644 C 0.99695 0.65775 0.0148 0.0
C645 C 0.98682 0.67563 0.07376 0.0
H646 H 0.94813 0.66757 -0.00765 0.0
H647 H 0.00732 0.64913 0.00187 0.0
C648 C 0.90854 0.58109 0.84546 0.0
N649 N 0.86388 0.54878 0.80324 0.0
C650 C 0.8973 0.59132 0.81946 0.0
C651 C 0.89725 0.55446 0.84978 0.0
C652 C 0.87465 0.57465 0.79845 0.0
C653 C 0.87462 0.53844 0.82821 0.0
C654 C 0.95596 0.67392 0.90648 0.0
C655 C 0.94234 0.68715 0.90463 0.0
C656 C 0.98278 0.68755 0.90396 0.0
C657 C 0.95581 0.71387 0.90024 0.0
C658 C 0.99554 0.71426 0.89955 0.0
N659 N 0.9819 0.72675 0.89779 0.0
C660 C 0.88839 0.61793 0.95858 0.0
C661 C 0.86487 0.58227 0.91429 0.0
C662 C 0.86587 0.61597 0.97376 0.0
N663 N 0.88764 0.60144 0.92919 0.0
C664 C 0.84167 0.57991 0.92811 0.0
C665 C 0.84205 0.5972 0.95787 0.0
H666 H 0.90669 0.63259 0.97056 0.0
H667 H 0.86454 0.56888 0.8918 0.0
C668 C 0.99069 0.65202 0.80373 0.0
N669 N 0.96954 0.65127 0.82017 0.0
C670 C -0.00031 0.66307 0.76505 0.0
C671 C 0.9651 0.67267 0.76113 0.0
C672 C 0.95689 0.6616 0.8002 0.0
C673 C 0.98658 0.67317 0.74293 0.0
H674 H 7e-05 0.64328 0.82015 0.0
H675 H 0.94007 0.66064 0.81416 0.0
O676 O 0.93886 0.60078 0.96168 0.0
O677 O 0.98379 0.63058 0.90377 0.0
O678 O 0.93096 0.59702 0.86557 0.0
O679 O 0.94286 0.64772 0.91054 0.0
H680 H 0.93323 0.61594 0.0359 0.0
H681 H 0.89889 0.55475 0.94653 0.0
H682 H 0.89584 0.59103 0.08201 0.0
H683 H 0.86215 0.5308 -0.00562 0.0
H684 H 0.07111 0.67356 0.90395 0.0
H685 H 0.99059 0.60234 0.96033 0.0
H686 H 0.02937 0.66785 0.87964 0.0
H687 H 0.03293 0.60885 0.98245 0.0
H688 H 0.94899 0.5153 0.96086 0.0
H689 H 0.99847 0.55272 0.8558 0.0
H690 H 0.95617 0.68408 0.06368 0.0
H691 H 0.01622 0.66478 0.07329 0.0
H692 H 0.90591 0.6119 0.81568 0.0
H693 H 0.90591 0.54629 0.86951 0.0
H694 H 0.86565 0.58227 0.77833 0.0
H695 H 0.8656 0.51778 0.83131 0.0
H696 H 0.92157 0.67685 0.90655 0.0
H697 H 0.99367 0.67771 0.90541 0.0
H698 H 0.94551 0.72436 0.89875 0.0
H699 H 0.01628 0.72504 0.89752 0.0
H700 H 0.86722 0.62919 -0.00229 0.0
H701 H 0.82376 0.56511 0.91498 0.0
H702 H 0.01598 0.66257 0.75176 0.0
H703 H 0.9545 0.68025 0.74499 0.0
Li704 Li 0.32122 0.96499 0.28257 0.0
Li705 Li 0.35558 0.95666 0.25656 0.0
Li706 Li 0.32601 0.96178 0.20848 0.0
Li707 Li 0.31088 0.92547 0.25276 0.0
C708 C 0.36999 0.00861 0.26866 0.0
N709 N 0.40726 0.0506 0.31135 0.0
C710 C 0.37802 0.00539 0.30772 0.0
C711 C 0.38089 0.03317 0.25135 0.0
C712 C 0.39691 0.02686 0.32878 0.0
C713 C 0.3997 0.05416 0.27343 0.0
C714 C 0.32742 0.91912 0.32429 0.0
C715 C 0.3337 0.88272 0.33284 0.0
N716 N 0.31701 0.87451 0.3652 0.0
C717 C 0.31046 0.91042 0.3578 0.0
C718 C 0.33923 0.90523 0.31178 0.0
C719 C 0.30539 0.88779 0.37801 0.0
C720 C 0.28925 0.9598 0.34612 0.0
N721 N 0.31035 0.97835 0.32638 0.0
C722 C 0.31674 0.00868 0.37928 0.0
C723 C 0.32332 0.00284 0.34096 0.0
C724 C 0.29661 0.98909 0.40232 0.0
C725 C 0.28198 0.96474 0.38435 0.0
H726 H 0.27905 0.94064 0.33337 0.0
H727 H 0.33964 0.01749 0.32426 0.0
C728 C 0.40471 0.97337 0.22693 0.0
N729 N 0.39014 0.9644 0.26162 0.0
C730 C 0.4307 0.9807 0.22797 0.0
C731 C 0.42619 0.96936 0.30051 0.0
C732 C 0.40024 0.96224 0.29805 0.0
C733 C 0.4418 0.9788 0.26514 0.0
H734 H 0.39613 0.97513 0.19856 0.0
H735 H 0.38821 0.95525 0.32527 0.0
C736 C 0.28118 0.95885 0.23288 0.0
N737 N 0.25499 0.98481 0.21629 0.0
C738 C 0.25465 0.94522 0.22625 0.0
C739 C 0.29441 0.98571 0.23112 0.0
C740 C 0.24174 0.95868 0.21789 0.0
C741 C 0.28081 0.99847 0.22267 0.0
C742 C 0.33025 0.91373 0.18689 0.0
C743 C 0.30811 0.90265 0.16242 0.0
C744 C 0.3456 0.90235 0.18904 0.0
C745 C 0.3015 0.88005 0.14076 0.0
C746 C 0.33836 0.87978 0.16685 0.0
N747 N 0.31663 0.86918 0.14342 0.0
C748 C 0.3487 0.99438 0.14229 0.0
C749 C 0.30474 0.96417 0.13034 0.0
C750 C 0.35145 0.00362 0.102 0.0
N751 N 0.32576 0.97479 0.15536 0.0
C752 C 0.30663 0.97284 0.0896 0.0
C753 C 0.33042 0.99243 0.07474 0.0
H754 H 0.36509 0.00227 0.16287 0.0
H755 H 0.28678 0.94843 0.14156 0.0
C756 C 0.26443 0.88924 0.27956 0.0
N757 N 0.28522 0.89031 0.26111 0.0
C758 C 0.24386 0.86591 0.29196 0.0
C759 C 0.26604 0.84456 0.26586 0.0
C760 C 0.28659 0.86863 0.25443 0.0
C761 C 0.24421 0.84305 0.28472 0.0
H762 H 0.26406 0.90671 0.28557 0.0
H763 H 0.30366 0.86993 0.24105 0.0
O764 O 0.3517 0.98791 0.24714 0.0
O765 O 0.33218 0.94088 0.30336 0.0
O766 O 0.29388 0.94572 0.24108 0.0
O767 O 0.33713 0.93588 0.20814 0.0
H768 H 0.36963 0.9866 0.32187 0.0
H769 H 0.37484 0.03599 0.22118 0.0
H770 H 0.40328 0.02465 0.35904 0.0
H771 H 0.40829 0.07329 0.26041 0.0
H772 H 0.34257 0.87169 0.32331 0.0
H773 H 0.30125 0.92096 0.3681 0.0
H774 H 0.35224 0.91157 0.28569 0.0
H775 H 0.29222 0.88078 0.40387 0.0
H776 H 0.32854 0.02773 0.39208 0.0
H777 H 0.2661 0.94924 0.40085 0.0
H778 H 0.44207 0.98827 0.20014 0.0
H779 H 0.4339 0.96736 0.32969 0.0
H780 H 0.24413 0.92442 0.22751 0.0
H781 H 0.3149 0.99668 0.2362 0.0
H782 H 0.2212 0.94836 0.21268 0.0
H783 H 0.2908 0.01924 0.2212 0.0
H784 H 0.29606 0.91129 0.16049 0.0
H785 H 0.3629 0.91085 0.20768 0.0
H786 H 0.28434 0.87114 0.12187 0.0
H787 H 0.35 0.87068 0.16829 0.0
H788 H 0.37003 0.01898 0.09197 0.0
H789 H 0.29003 0.96356 0.06947 0.0
H790 H 0.22795 0.86592 0.30765 0.0
H791 H 0.26719 0.82743 0.25984 0.0
Li792 Li 0.36118 0.32111 0.62189 0.0
Li793 Li 0.40068 0.35754 0.59505 0.0
Li794 Li 0.36759 0.32434 0.54744 0.0
Li795 Li 0.39439 0.31417 0.59256 0.0
C796 C 0.35071 0.35947 0.60097 0.0
N797 N 0.32299 0.38063 0.63392 0.0
C798 C 0.35941 0.37466 0.63655 0.0
C799 C 0.32813 0.35542 0.58169 0.0
C800 C 0.34507 0.38508 0.65286 0.0
C801 C 0.31433 0.36619 0.59894 0.0
C802 C 0.41129 0.34869 0.67433 0.0
C803 C 0.45104 0.3679 0.71281 0.0
N804 N 0.44059 0.3767 0.74122 0.0
C805 C 0.40085 0.35766 0.70421 0.0
C806 C 0.43648 0.35357 0.67894 0.0
C807 C 0.416 0.37188 0.73768 0.0
C808 C 0.3453 0.29849 0.69685 0.0
N809 N 0.33764 0.30879 0.66645 0.0
C810 C 0.30232 0.30354 0.70752 0.0
C811 C 0.31601 0.31051 0.6703 0.0
C812 C 0.31109 0.29481 0.74081 0.0
C813 C 0.33242 0.29153 0.73449 0.0
H814 H 0.36231 0.29691 0.69254 0.0
H815 H 0.3098 0.31797 0.64518 0.0
C816 C 0.41712 0.41005 0.58568 0.0
N817 N 0.42505 0.39347 0.59801 0.0
C818 C 0.43426 0.43648 0.5851 0.0
C819 C 0.46772 0.42839 0.60887 0.0
C820 C 0.44988 0.40209 0.60907 0.0
C821 C 0.46 0.44599 0.59665 0.0
H822 H 0.39755 0.40277 0.57556 0.0
H823 H 0.45607 0.3886 0.61708 0.0
C824 C 0.33131 0.27577 0.57749 0.0
N825 N 0.27994 0.23971 0.56785 0.0
C826 C 0.3231 0.24958 0.58083 0.0
C827 C 0.31343 0.28362 0.56932 0.0
C828 C 0.29703 0.23164 0.57582 0.0
C829 C 0.28754 0.26511 0.56453 0.0
C830 C 0.42384 0.33655 0.52699 0.0
C831 C 0.41873 0.3253 0.48775 0.0
C832 C 0.44749 0.34413 0.54592 0.0
C833 C 0.43739 0.32165 0.46815 0.0
C834 C 0.46563 0.3401 0.52535 0.0
N835 N 0.46024 0.32904 0.48722 0.0
C836 C 0.35424 0.34339 0.48088 0.0
C837 C 0.34421 0.30028 0.47009 0.0
C838 C 0.34712 0.34503 0.44052 0.0
N839 N 0.35309 0.32146 0.49454 0.0
C840 C 0.33688 0.30109 0.42923 0.0
C841 C 0.33897 0.32396 0.41377 0.0
H842 H 0.36156 0.35995 0.50104 0.0
H843 H 0.34379 0.28319 0.48178 0.0
C844 C 0.4122 0.28864 0.64166 0.0
N845 N 0.40887 0.2927 0.60133 0.0
C846 C 0.41853 0.27003 0.65253 0.0
C847 C 0.41843 0.26029 0.57998 0.0
C848 C 0.41197 0.27909 0.57051 0.0
C849 C 0.42117 0.25512 0.6216 0.0
H850 H 0.40851 0.29884 0.66571 0.0
H851 H 0.40829 0.28196 0.53879 0.0
O852 O 0.36446 0.34901 0.58462 0.0
O853 O 0.39669 0.33444 0.64152 0.0
O854 O 0.35673 0.29353 0.58259 0.0
O855 O 0.40579 0.34017 0.54671 0.0
H856 H 0.37722 0.37864 0.65109 0.0
H857 H 0.3213 0.34408 0.55373 0.0
H858 H 0.35156 0.3968 0.68047 0.0
H859 H 0.29675 0.36308 0.5845 0.0
H860 H 0.47063 0.37199 0.71654 0.0
H861 H 0.38119 0.35349 0.70191 0.0
H862 H 0.44479 0.34653 0.65637 0.0
H863 H 0.40817 0.37899 0.76094 0.0
H864 H 0.28566 0.30588 0.71069 0.0
H865 H 0.34021 0.28522 0.75913 0.0
H866 H 0.42739 0.44929 0.57563 0.0
H867 H 0.4875 0.43479 0.61709 0.0
H868 H 0.33674 0.24322 0.58724 0.0
H869 H 0.31947 0.30377 0.56674 0.0
H870 H 0.29039 0.2113 0.5783 0.0
H871 H 0.27349 0.27094 0.55821 0.0
H872 H 0.40054 0.31941 0.47265 0.0
H873 H 0.45166 0.35272 0.57637 0.0
H874 H 0.43369 0.31292 0.43781 0.0
H875 H 0.48396 0.34572 0.53972 0.0
H876 H 0.34868 0.36289 0.42998 0.0
H877 H 0.33088 0.28451 0.40944 0.0
H878 H 0.41976 0.26635 0.68501 0.0
H879 H 0.42034 0.2493 0.55509 0.0
Li880 Li 0.04074 0.39922 0.9193 0.0
Li881 Li 0.03355 0.35731 0.94889 0.0
Li882 Li 0.07446 0.38843 0.92263 0.0
Li883 Li 0.0397 0.36501 0.8748 0.0
C884 C 0.07289 0.409 -0.00284 0.0
N885 N 0.10979 0.44123 0.05299 0.0
C886 C 0.07293 0.40062 0.0375 0.0
C887 C 0.09149 0.43382 0.98527 0.0
C888 C 0.09178 0.4172 0.06526 0.0
C889 C 0.11002 0.44981 0.01394 0.0
C890 C 0.98918 0.35928 0.92782 0.0
C891 C 0.94293 0.33851 0.92931 0.0
N892 N 0.94434 0.35175 0.96428 0.0
C893 C 0.99019 0.37269 0.9638 0.0
C894 C 0.96539 0.34209 0.91038 0.0
C895 C 0.9673 0.36862 0.98174 0.0
C896 C 0.01434 0.42247 0.88863 0.0
N897 N 0.03074 0.4246 0.91933 0.0
C898 C 0.03016 0.46116 0.94709 0.0
C899 C 0.03871 0.44338 0.94842 0.0
C900 C 0.01303 0.45939 0.91579 0.0
C901 C 0.0051 0.43963 0.88636 0.0
H902 H 0.00818 0.40716 0.86616 0.0
H903 H 0.05155 0.44449 0.97277 0.0
C904 C 0.03733 0.32843 0.01112 0.0
N905 N 0.0196 0.33294 -0.00727 0.0
C906 C 0.03221 0.31603 0.04923 0.0
C907 C 0.98948 0.3104 0.04661 0.0
C908 C 0.99553 0.32314 0.00856 0.0
C909 C 0.00843 0.30791 0.06825 0.0
H910 H 0.05603 0.33577 -0.00272 0.0
H911 H 0.98145 0.3263 -0.00691 0.0
C912 C 0.08573 0.41817 0.85231 0.0
N913 N 0.12845 0.45015 0.80569 0.0
C914 C 0.09545 0.40775 0.82373 0.0
C915 C 0.09759 0.44482 0.85705 0.0
C916 C 0.11711 0.42426 0.80047 0.0
C917 C 0.11923 0.46067 0.83325 0.0
C918 C 0.04504 0.32518 0.90388 0.0
C919 C 0.06044 0.31388 0.90111 0.0
C920 C 0.01843 0.31002 0.89894 0.0
C921 C 0.04896 0.28753 0.8933 0.0
C922 C 0.00768 0.28375 0.89117 0.0
N923 N 0.02304 0.27314 0.88853 0.0
C924 C 0.10945 0.38711 0.97173 0.0
C925 C 0.1319 0.41627 0.91748 0.0
C926 C 0.13218 0.39041 0.98833 0.0
N927 N 0.1095 0.39973 0.93689 0.0
C928 C 0.15533 0.41964 0.93252 0.0
C929 C 0.15551 0.40606 0.96795 0.0
H930 H 0.09151 0.37418 0.98655 0.0
H931 H 0.13171 0.42629 0.88992 0.0
C932 C 0.00909 0.3544 0.80699 0.0
N933 N 0.02832 0.35091 0.8216 0.0
C934 C 4e-05 0.34714 0.76684 0.0
C935 C 0.03021 0.33195 0.75765 0.0
C936 C 0.03871 0.33953 0.79831 0.0
C937 C 0.01104 0.33635 0.74125 0.0
H938 H 0.00126 0.36353 0.8263 0.0
H939 H 0.05406 0.33707 0.8108 0.0
O940 O 0.05503 0.39276 0.96926 0.0
O941 O 0.01128 0.36319 0.90915 0.0
O942 O 0.06431 0.40243 0.87481 0.0
O943 O 0.05618 0.35098 0.91149 0.0
H944 H 0.05866 0.38145 0.04716 0.0
H945 H 0.09179 0.4405 0.95407 0.0
H946 H 0.09213 0.41094 0.09653 0.0
H947 H 0.12463 0.46901 0.0051 0.0
H948 H 0.92437 0.32524 0.91617 0.0
H949 H 0.00839 0.38594 0.97798 0.0
H950 H 0.9643 0.33162 0.88248 0.0
H951 H 0.96779 0.37882 0.0096 0.0
H952 H 0.03706 0.47622 0.97016 0.0
H953 H 0.99156 0.43712 0.86217 0.0
H954 H 0.04717 0.31413 0.06476 0.0
H955 H 0.97089 0.30442 0.06037 0.0
H956 H 0.08646 0.38717 0.81974 0.0
H957 H 0.0901 0.45314 0.87881 0.0
H958 H 0.12492 0.41649 0.77831 0.0
H959 H 0.12865 0.48133 0.83662 0.0
H960 H 0.08107 0.32537 0.90494 0.0
H961 H 0.00614 0.31834 0.90106 0.0
H962 H 0.06066 0.27853 0.89105 0.0
H963 H 0.98713 0.27179 0.88725 0.0
H964 H 0.1313 0.38015 0.01642 0.0
H965 H 0.17287 0.4319 0.91572 0.0
H966 H 0.98498 0.35051 0.75558 0.0
H967 H 0.03926 0.32382 0.73876 0.0
Li968 Li 0.63898 0.04103 0.26426 0.0
Li969 Li 0.67505 0.03655 0.28945 0.0
Li970 Li 0.68268 0.0775 0.26212 0.0
Li971 Li 0.67166 0.04127 0.21514 0.0
C972 C 0.64878 0.05925 0.34457 0.0
N973 N 0.62189 0.06025 0.41324 0.0
C974 C 0.63956 0.03927 0.37348 0.0
C975 C 0.6447 0.07996 0.35102 0.0
C976 C 0.62592 0.04007 0.40788 0.0
C977 C 0.63094 0.08004 0.38578 0.0
C978 C 0.63545 0.98848 0.26641 0.0
C979 C 0.62684 0.94481 0.26111 0.0
N980 N 0.61247 0.93872 0.29618 0.0
C981 C 0.62032 0.9817 0.30207 0.0
C982 C 0.63853 0.96983 0.24545 0.0
C983 C 0.60897 0.95649 0.31676 0.0
C984 C 0.58641 0.00601 0.25377 0.0
N985 N 0.60316 0.0299 0.26828 0.0
C986 C 0.56844 0.03731 0.28375 0.0
C987 C 0.59472 0.04568 0.2826 0.0
C988 C 0.55068 0.01258 0.26942 0.0
C989 C 0.56001 0.99685 0.25436 0.0
H990 H 0.59353 0.99412 0.24111 0.0
H991 H 0.60833 0.06498 0.29224 0.0
C992 C 0.69771 0.04103 0.36422 0.0
N993 N 0.68669 0.02376 0.33305 0.0
C994 C 0.70376 0.03371 0.4015 0.0
C995 C 0.68922 0.99151 0.37268 0.0
C996 C 0.68331 -0.00033 0.33583 0.0
C997 C 0.69869 0.00837 0.40669 0.0
H998 H 0.70049 0.06018 0.36086 0.0
H999 H 0.67522 0.9865 0.31021 0.0
C1000 C 0.65994 0.08617 0.19832 0.0
N1001 N 0.66728 0.13085 0.16145 0.0
C1002 C 0.67106 0.0931 0.15906 0.0
C1003 C 0.65239 0.10183 0.21874 0.0
C1004 C 0.67463 0.11579 0.14095 0.0
C1005 C 0.65634 0.12439 0.19962 0.0
C1006 C 0.71988 0.05171 0.24347 0.0
C1007 C 0.74624 0.06923 0.24461 0.0
C1008 C 0.7112 0.0258 0.23542 0.0
C1009 C 0.76355 0.06048 0.23759 0.0
C1010 C 0.72909 0.0178 0.22857 0.0
N1011 N 0.75468 0.03516 0.22979 0.0
C1012 C 0.70892 0.1204 0.31214 0.0
C1013 C 0.71824 0.13008 0.241 0.0
C1014 C 0.72772 0.14519 0.32319 0.0
N1015 N 0.70462 0.11328 0.27172 0.0
C1016 C 0.73729 0.15518 0.25067 0.0
C1017 C 0.74263 0.16281 0.29234 0.0
H1018 H 0.69873 0.10641 0.33608 0.0
H1019 H 0.71518 0.12373 0.20919 0.0
C1020 C 0.65185 0.01047 0.14679 0.0
N1021 N 0.6741 0.03043 0.16129 0.0
C1022 C 0.65016 0.00226 0.10606 0.0
C1023 C 0.69464 0.03488 0.09603 0.0
C1024 C 0.69547 0.04251 0.13721 0.0
C1025 C 0.67154 0.01487 0.07981 0.0
H1026 H 0.63516 0.00139 0.16666 0.0
H1027 H 0.71284 0.05854 0.14955 0.0
O1028 O 0.6625 0.05904 0.31089 0.0
O1029 O 0.64685 0.01313 0.25163 0.0
O1030 O 0.65641 0.06412 0.2166 0.0
O1031 O 0.70276 0.06003 0.25039 0.0
H1032 H 0.64307 0.02341 0.3697 0.0
H1033 H 0.65187 0.0957 0.32915 0.0
H1034 H 0.61862 0.02469 0.43041 0.0
H1035 H 0.62746 0.09585 0.39093 0.0
H1036 H 0.62919 0.93022 0.24536 0.0
H1037 H 0.61714 0.99568 0.31795 0.0
H1038 H 0.64986 0.97461 0.21744 0.0
H1039 H 0.59728 0.95102 0.34442 0.0
H1040 H 0.56216 0.05033 0.29467 0.0
H1041 H 0.54706 0.97764 0.24309 0.0
H1042 H 0.71072 0.04736 0.42678 0.0
H1043 H 0.68547 0.97194 0.37503 0.0
H1044 H 0.67694 0.08113 0.14283 0.0
H1045 H 0.64386 0.09675 0.2492 0.0
H1046 H 0.68327 0.12146 0.11062 0.0
H1047 H 0.65074 0.13679 0.21515 0.0
H1048 H 0.75325 0.08937 0.25086 0.0
H1049 H 0.6909 0.01204 0.23446 0.0
H1050 H 0.78402 0.07382 0.23837 0.0
H1051 H 0.72262 0.99778 0.2223 0.0
H1052 H 0.73158 0.14994 0.35569 0.0
H1053 H 0.74832 0.16815 0.22587 0.0
H1054 H 0.63211 0.98653 0.09497 0.0
H1055 H 0.71147 0.04521 0.07668 0.0
C1056 C 0.34958 0.3523 0.30636 0.0
C1057 C 0.32845 0.33324 0.28443 0.0
H1058 H 0.36949 0.36411 0.36396 0.0
C1059 C 0.31041 0.31093 0.30541 0.0
H1060 H 0.36362 0.36985 0.29121 0.0
C1061 C 0.31374 0.30767 0.34749 0.0
C1062 C 0.33492 0.32685 0.36928 0.0
H1063 H 0.29398 0.29592 0.28918 0.0
H1064 H 0.29965 0.29033 0.36305 0.0
C1065 C 0.35278 0.34914 0.34819 0.0
C1066 C 0.99186 0.30523 0.63492 0.0
C1067 C 0.98992 0.32428 0.61254 0.0
H1068 H 0.00036 0.29416 0.69352 0.0
C1069 C 0.99487 0.34698 0.63283 0.0
H1070 H 0.9882 0.28758 0.61996 0.0
C1071 C 0.00177 0.35071 0.67439 0.0
C1072 C 0.00384 0.33182 0.69692 0.0
H1073 H 0.99319 0.36187 0.6166 0.0
H1074 H 0.00572 0.36859 0.68885 0.0
C1075 C -0.00102 0.30906 0.67679 0.0
C1076 C 0.68486 0.99873 0.97211 0.0
C1077 C 0.66283 0.99476 0.95051 0.0
H1078 H 0.70505 0.00838 0.03012 0.0
C1079 C 0.64398 0.99759 0.97172 0.0
H1080 H 0.69975 0.99677 0.9565 0.0
C1081 C 0.64701 0.0042 0.01346 0.0
C1082 C 0.66894 0.00813 0.03521 0.0
H1083 H 0.62662 0.99432 0.95616 0.0
H1084 H 0.63215 0.00639 0.02869 0.0
C1085 C 0.68798 0.00554 0.01408 0.0
C1086 C 0.67997 0.69712 0.29405 0.0
C1087 C 0.68397 0.67669 0.28343 0.0
H1088 H 0.67216 0.71665 0.34237 0.0
C1089 C 0.68535 0.66139 0.31514 0.0
H1090 H 0.67926 0.70953 0.27037 0.0
C1091 C 0.68131 0.66547 0.35629 0.0
C1092 C 0.67579 0.68494 0.36665 0.0
H1093 H 0.68808 0.64529 0.30802 0.0
H1094 H 0.68105 0.6524 0.37965 0.0
C1095 C 0.67591 0.7012 0.33524 0.0
C1096 C 0.01981 0.69572 0.68798 0.0
C1097 C 0.99381 0.68142 0.69948 0.0
H1098 H 0.04702 0.70859 0.63835 0.0
C1099 C 0.97486 0.67209 0.66852 0.0
H1100 H 0.03479 0.70338 0.71128 0.0
C1101 C 0.98185 0.67511 0.62686 0.0
C1102 C 0.00789 0.68764 0.61544 0.0
H1103 H 0.95467 0.66092 0.67644 0.0
H1104 H 0.9669 0.66654 0.6036 0.0
C1105 C 0.0268 0.69888 0.64628 0.0
C1106 C 0.35592 0.00308 0.00949 0.0
C1107 C 0.33402 -0.00013 0.03041 0.0
H1108 H 0.37673 0.01205 0.9527 0.0
C1109 C 0.31574 0.00337 0.00849 0.0
H1110 H 0.37018 0.00017 0.02528 0.0
C1111 C 0.31944 0.01006 0.96647 0.0
C1112 C 0.34129 0.01301 0.94562 0.0
H1113 H 0.29873 0.00112 0.02388 0.0
H1114 H 0.30505 0.01251 0.95015 0.0
C1115 C 0.35952 0.00958 0.96771 0.0
C1116 C 0.17712 0.38322 -0.00295 0.0
C1117 C 0.17912 0.40616 0.9822 0.0
H1118 H 0.19607 0.36452 0.02272 0.0
C1119 C 0.2035 0.42849 0.98121 0.0
H1120 H 0.15886 0.36546 -0.0025 0.0
C1121 C 0.22534 0.42773 -0.00528 0.0
C1122 C 0.22311 0.40461 0.00936 0.0
H1123 H 0.20568 0.44651 0.97018 0.0
H1124 H 0.24395 0.44503 -0.00707 0.0
C1125 C 0.19866 0.38256 0.01093 0.0
C1126 C 0.81105 0.21814 0.29686 0.0
C1127 C 0.81054 0.2318 0.33184 0.0
H1128 H 0.79021 0.1858 0.2572 0.0
C1129 C 0.78705 0.22357 0.35221 0.0
H1130 H 0.82891 0.22362 0.28091 0.0
C1131 C 0.76467 0.20179 0.33838 0.0
C1132 C 0.76539 0.18775 0.30405 0.0
H1133 H 0.786 0.23385 0.37897 0.0
H1134 H 0.74688 0.19573 0.35495 0.0
C1135 C 0.78878 0.19643 0.28313 0.0
C1136 C 0.59173 0.79621 0.71406 0.0
C1137 C 0.57913 0.80745 0.6938 0.0
H1138 H 0.60276 0.76746 0.71217 0.0
C1139 C 0.56478 0.79583 0.65789 0.0
H1140 H 0.60274 0.80477 0.74195 0.0
C1141 C 0.56495 0.77452 0.64056 0.0
C1142 C 0.57948 0.76473 0.65904 0.0
H1143 H 0.55507 0.80434 0.64165 0.0
H1144 H 0.55528 0.76689 0.61133 0.0
C1145 C 0.59183 0.775 0.69693 0.0
C1146 C 0.79679 0.62 -0.00652 0.0
C1147 C 0.77349 0.59688 -0.0012 0.0
H1148 H 0.83595 0.63825 0.97491 0.0
C1149 C 0.77279 0.57353 -0.00952 0.0
H1150 H 0.79832 0.63836 0.00035 0.0
C1151 C 0.79492 0.57342 0.97698 0.0
C1152 C 0.81814 0.59668 0.97147 0.0
H1153 H 0.75512 0.55536 -0.00605 0.0
H1154 H 0.79391 0.55516 0.97136 0.0
C1155 C 0.81863 0.61991 0.97954 0.0
C1156 C 0.17558 0.79273 0.30807 0.0
C1157 C 0.17818 0.7729 0.32639 0.0
H1158 H 0.19381 0.82931 0.27874 0.0
C1159 C 0.2029 0.77579 0.32918 0.0
H1160 H 0.1571 0.79171 0.30606 0.0
C1161 C 0.22446 0.79824 0.31471 0.0
C1162 C 0.22164 0.81811 0.29698 0.0
H1163 H 0.20564 0.76082 0.34266 0.0
H1164 H 0.24331 0.8003 0.31843 0.0
C1165 C 0.19685 0.81472 0.293 0.0
C1166 C 0.43842 0.2113 0.68151 0.0
C1167 C 0.42366 0.18782 0.66084 0.0
H1168 H 0.45 0.25128 0.6845 0.0
C1169 C 0.40957 0.18713 0.62562 0.0
H1170 H 0.44966 0.21245 0.70849 0.0
C1171 C 0.40964 0.2092 0.61201 0.0
C1172 C 0.42384 0.23259 0.63321 0.0
H1173 H 0.3976 0.16924 0.60943 0.0
H1174 H 0.39758 0.20759 0.58594 0.0
C1175 C 0.43861 0.23349 0.66773 0.0
C1176 C 0.2949 0.31127 0.79755 0.0
C1177 C 0.30084 0.29273 0.78336 0.0
H1178 H 0.28899 0.32941 0.84974 0.0
C1179 C 0.30094 0.27505 0.81195 0.0
H1180 H 0.29491 0.3254 0.77671 0.0
C1181 C 0.29793 0.27764 0.85423 0.0
C1182 C 0.29427 0.29764 0.86856 0.0
H1183 H 0.30479 0.26009 0.80194 0.0
H1184 H 0.2997 0.26482 0.87586 0.0
C1185 C 0.29156 0.31363 0.83965 0.0
C1186 C 0.01806 0.31543 0.18334 0.0
C1187 C 0.99401 0.29625 0.19803 0.0
H1188 H 0.04142 0.33392 0.13057 0.0
C1189 C 0.9765 0.27802 0.16981 0.0
H1190 H 0.03196 0.32998 0.20388 0.0
C1191 C 0.98178 0.28066 0.12743 0.0
C1192 C 0.00492 0.30117 0.11267 0.0
H1193 H 0.95808 0.26256 0.18017 0.0
H1194 H 0.96732 0.26741 0.10607 0.0
C1195 C 0.02349 0.31778 0.14113 0.0
C1196 C 0.67719 0.96845 0.50407 0.0
C1197 C 0.69437 0.98576 0.53347 0.0
H1198 H 0.66501 0.96205 0.4411 0.0
C1199 C 0.71558 0.00878 0.51969 0.0
H1200 H 0.66046 0.95067 0.51364 0.0
C1201 C 0.71835 0.01525 0.4777 0.0
C1202 C 0.6998 -0.00104 0.44879 0.0
H1203 H 0.72936 0.0223 0.54158 0.0
H1204 H 0.7343 0.03362 0.46821 0.0
C1205 C 0.67984 0.97499 0.46224 0.0
C1206 C 0.70156 0.68502 0.80026 0.0
C1207 C 0.68859 0.69642 0.78164 0.0
H1208 H 0.71155 0.67375 0.85701 0.0
C1209 C 0.67843 0.70835 0.80655 0.0
H1210 H 0.70939 0.6756 0.78155 0.0
C1211 C 0.67927 0.70694 0.84962 0.0
C1212 C 0.69076 0.69405 0.86823 0.0
H1213 H 0.66807 0.71698 0.79279 0.0
H1214 H 0.66973 0.71464 0.86832 0.0
C1215 C 0.70287 0.68408 0.8433 0.0
C1216 C -0.00095 0.70386 0.18133 0.0
C1217 C 0.99113 0.68161 0.20545 0.0
H1218 H 0.00366 0.7194 0.11986 0.0
C1219 C 0.97993 0.65754 0.18587 0.0
H1220 H 0.00774 0.72264 0.19574 0.0
C1221 C 0.97799 0.65583 0.143 0.0
C1222 C 0.98698 0.67808 0.11892 0.0
H1223 H 0.97407 0.64011 0.20345 0.0
H1224 H 0.97015 0.63713 0.12846 0.0
C1225 C 0.99681 0.70208 0.13818 0.0
C1226 C 0.29284 0.97454 0.47545 0.0
C1227 C 0.29397 0.99278 0.44697 0.0
H1228 H 0.29748 0.96648 0.53802 0.0
C1229 C 0.29618 0.01575 0.46183 0.0
H1230 H 0.29142 0.95675 0.46495 0.0
C1231 C 0.29925 0.02122 0.50417 0.0
C1232 C 0.30068 0.00402 0.53229 0.0
H1233 H 0.29672 0.02997 0.44056 0.0
H1234 H 0.30193 0.03954 0.51457 0.0
C1235 C 0.29624 0.98012 0.51759 0.0
C1236 C 0.48424 0.48698 0.0974 0.0
C1237 C 0.47108 0.47896 0.05944 0.0
H1238 H 0.52 0.51004 0.12835 0.0
C1239 C 0.48494 0.48942 0.02267 0.0
H1240 H 0.47422 0.47971 0.12644 0.0
C1241 C 0.51117 0.50749 0.02384 0.0
C1242 C 0.52435 0.51536 0.0618 0.0
H1243 H 0.47562 0.48351 -0.00719 0.0
H1244 H 0.52102 0.51547 -0.0051 0.0
C1245 C 0.51052 0.50477 0.09854 0.0
C1246 C 0.01512 0.51342 0.43357 0.0
C1247 C 0.01165 0.52614 0.39979 0.0
H1248 H 0.00874 0.47771 0.45869 0.0
C1249 C -0.00137 0.51176 0.36458 0.0
H1250 H 0.0252 0.52395 0.46105 0.0
C1251 C 0.98944 0.48534 0.36305 0.0
C1252 C 0.99303 0.47263 0.39671 0.0
H1253 H 0.99529 0.52089 0.33825 0.0
H1254 H 0.9798 0.47491 0.33524 0.0
C1255 C 0.00593 0.48697 0.43203 0.0
C1256 C 0.5174 0.00243 0.68237 0.0
C1257 C 0.51755 0.98717 0.71527 0.0
H1258 H 0.49996 0.02268 0.6557 0.0
C1259 C 0.49951 0.98069 0.74728 0.0
H1260 H 0.53121 0.00801 0.65744 0.0
C1261 C 0.48186 0.98939 0.74656 0.0
C1262 C 0.48173 0.00471 0.71374 0.0
H1263 H 0.49888 0.96873 0.77286 0.0
H1264 H 0.46852 0.98435 0.77208 0.0
C1265 C 0.4997 0.01111 0.68162 0.0
C1266 C 0.51543 0.51219 0.62376 0.0
C1267 C 0.51468 0.52729 0.59107 0.0
H1268 H 0.49866 0.47487 0.65145 0.0
C1269 C 0.49575 0.51543 0.56035 0.0
H1270 H 0.52995 0.52062 0.64768 0.0
C1271 C 0.47806 0.48912 0.5622 0.0
C1272 C 0.47879 0.47402 0.59488 0.0
H1273 H 0.49444 0.5265 0.53497 0.0
H1274 H 0.46398 0.48057 0.53766 0.0
C1275 C 0.49769 0.48588 0.62566 0.0
C1276 C 0.98984 0.50345 0.87381 0.0
C1277 C 0.98444 0.51262 0.91027 0.0
H1278 H 0.0036 0.48012 0.84686 0.0
C1279 C 0.98861 0.50416 0.94859 0.0
H1280 H 0.98663 0.50931 0.84373 0.0
C1281 C 0.99781 0.48692 0.95039 0.0
C1282 C 0.00332 0.47784 0.91392 0.0
H1283 H 0.98508 0.5111 0.97736 0.0
H1284 H 0.00036 0.48052 0.98045 0.0
C1285 C -0.00074 0.48639 0.87561 0.0
C1286 C 0.50749 0.98953 0.23494 0.0
C1287 C 0.52269 0.00353 0.26887 0.0
H1288 H 0.4701 0.97044 0.20744 0.0
C1289 C 0.51099 0.00899 0.30195 0.0
H1290 H 0.51592 0.98525 0.20871 0.0
C1291 C 0.48471 0.00075 0.301 0.0
C1292 C 0.46957 0.98691 0.26689 0.0
H1293 H 0.52211 0.01953 0.32872 0.0
H1294 H 0.47636 0.00561 0.32667 0.0
C1295 C 0.48126 0.9813 0.23398 0.0
loop_
_geom_bond_atom_site_label_1
_geom_bond_atom_site_label_2
_geom_bond_distance
_geom_bond_site_symmetry_2
_ccdc_geom_bond_type
Li0 N17 1.990 . S
Li0 O60 1.956 . S
Li0 O61 1.970 . S
Li0 O62 1.961 . S
Li1 N25 1.990 . S
Li1 O60 1.970 . S
Li1 O61 1.956 . S
Li1 O63 1.961 . S
Li2 N47 1.990 . S
Li2 O60 1.961 . S
Li2 O62 1.956 . S
Li2 O63 1.970 . S
Li3 N53 1.990 1_554 S
Li3 O61 1.961 . S
Li3 O62 1.970 . S
Li3 O63 1.956 . S
C4 C6 1.348 . S
C4 C7 1.356 . S
C4 O60 1.325 . S
N5 C8 1.314 . S
N5 C9 1.279 . S
C6 C4 1.348 . S
C6 C8 1.353 . S
C6 H64 0.929 . S
C7 C4 1.356 . S
C7 C9 1.358 . S
C7 H65 0.930 . S
C8 N5 1.314 . S
C8 C6 1.353 . S
C8 H66 0.930 . S
C9 N5 1.279 . S
C9 C7 1.358 . S
C9 H67 0.930 . S
C10 C13 1.348 . S
C10 C14 1.356 . S
C10 O61 1.325 . S
C11 N12 1.279 . S
C11 C14 1.358 . S
C11 H68 0.930 . S
N12 C11 1.279 . S
N12 C15 1.314 . S
C13 C10 1.348 . S
C13 C15 1.353 . S
C13 H69 0.929 . S
C14 C10 1.356 . S
C14 C11 1.358 . S
C14 H70 0.930 . S
C15 N12 1.314 . S
C15 C13 1.353 . S
C15 H71 0.930 . S
C16 N17 1.314 . S
C16 C21 1.353 . S
C16 H22 0.930 1_554 S
N17 Li0 1.990 . S
N17 C16 1.314 . S
N17 C19 1.279 . S
C18 C19 1.358 . S
C18 C20 1.356 . S
C18 H72 0.930 . S
C19 N17 1.279 . S
C19 C18 1.358 . S
C19 H23 0.930 . S
C20 C18 1.356 . S
C20 C21 1.348 . S
C21 C16 1.353 . S
C21 C20 1.348 . S
C21 H73 0.929 1_554 S
H22 C16 0.930 1_556 S
H23 C19 0.930 . S
C24 N25 1.314 . S
C24 C26 1.353 . S
C24 H30 0.930 . S
N25 Li1 1.990 . S
N25 C24 1.314 . S
N25 C28 1.279 . S
C26 C24 1.353 . S
C26 C29 1.348 . S
C26 H74 0.929 . S
C27 C28 1.358 . S
C27 C29 1.356 . S
C27 H75 0.930 . S
C28 N25 1.279 . S
C28 C27 1.358 . S
C28 H31 0.930 . S
C29 C26 1.348 . S
C29 C27 1.356 . S
H30 C24 0.930 . S
H31 C28 0.930 . S
C32 C34 1.348 . S
C32 C35 1.356 . S
C32 O62 1.325 1_556 S
N33 C36 1.314 . S
N33 C37 1.279 . S
C34 C32 1.348 . S
C34 C36 1.353 . S
C34 H76 0.929 . S
C35 C32 1.356 . S
C35 C37 1.358 . S
C35 H77 0.930 1_556 S
C36 N33 1.314 . S
C36 C34 1.353 . S
C36 H78 0.930 . S
C37 N33 1.279 . S
C37 C35 1.358 . S
C37 H79 0.930 . S
C38 C39 1.348 . S
C38 C40 1.356 . S
C38 O63 1.325 . S
C39 C38 1.348 . S
C39 C41 1.353 . S
C39 H80 0.929 . S
C40 C38 1.356 . S
C40 C42 1.358 . S
C40 H81 0.930 . S
C41 C39 1.353 . S
C41 N43 1.314 . S
C41 H82 0.930 . S
C42 C40 1.358 . S
C42 N43 1.279 . S
C42 H83 0.930 . S
N43 C41 1.314 . S
N43 C42 1.279 . S
C44 C46 1.353 . S
C44 N47 1.314 . S
C44 H50 0.930 . S
C45 N47 1.279 . S
C45 C48 1.358 . S
C45 H51 0.930 . S
C46 C44 1.353 . S
C46 C49 1.348 . S
C46 H84 0.929 . S
N47 Li2 1.990 . S
N47 C44 1.314 . S
N47 C45 1.279 . S
C48 C45 1.358 . S
C48 C49 1.356 . S
C48 H85 0.930 . S
C49 C46 1.348 . S
C49 C48 1.356 . S
H50 C44 0.930 . S
H51 C45 0.930 . S
C52 N53 1.314 . S
C52 C54 1.353 . S
C52 H58 0.930 . S
N53 Li3 1.990 1_556 S
N53 C52 1.314 . S
N53 C56 1.279 . S
C54 C52 1.353 . S
C54 C57 1.348 . S
C54 H86 0.929 . S
C55 C56 1.358 . S
C55 C57 1.356 . S
C55 H87 0.930 . S
C56 N53 1.279 . S
C56 C55 1.358 . S
C56 H59 0.930 . S
C57 C54 1.348 . S
C57 C55 1.356 . S
H58 C52 0.930 . S
H59 C56 0.930 . S
O60 Li0 1.956 . S
O60 Li1 1.970 . S
O60 Li2 1.961 . S
O60 C4 1.325 . S
O61 Li0 1.970 . S
O61 Li1 1.956 . S
O61 Li3 1.961 . S
O61 C10 1.325 . S
O62 Li0 1.961 . S
O62 Li2 1.956 . S
O62 Li3 1.970 . S
O62 C32 1.325 1_554 S
O63 Li1 1.961 . S
O63 Li2 1.970 . S
O63 Li3 1.956 . S
O63 C38 1.325 . S
H64 C6 0.929 . S
H65 C7 0.930 . S
H66 C8 0.930 . S
H67 C9 0.930 . S
H68 C11 0.930 . S
H69 C13 0.929 . S
H70 C14 0.930 . S
H71 C15 0.930 . S
H72 C18 0.930 . S
H73 C21 0.929 1_556 S
H74 C26 0.929 . S
H75 C27 0.930 . S
H76 C34 0.929 . S
H77 C35 0.930 1_554 S
H78 C36 0.930 . S
H79 C37 0.930 . S
H80 C39 0.929 . S
H81 C40 0.930 . S
H82 C41 0.930 . S
H83 C42 0.930 . S
H84 C46 0.929 . S
H85 C48 0.930 . S
H86 C54 0.929 . S
H87 C55 0.930 . S
Li88 N105 1.990 . S
Li88 O148 1.956 . S
Li88 O149 1.970 . S
Li88 O150 1.961 . S
Li89 N113 1.990 . S
Li89 O148 1.970 . S
Li89 O149 1.956 . S
Li89 O151 1.961 . S
Li90 N135 2.024 . S
Li90 O148 1.961 . S
Li90 O150 1.956 . S
Li90 O151 1.970 . S
Li91 N141 1.990 . S
Li91 O149 1.961 . S
Li91 O150 1.970 . S
Li91 O151 1.956 . S
C92 C94 1.348 . S
C92 C95 1.356 . S
C92 O148 1.325 . S
N93 C96 1.314 . S
N93 C97 1.279 . S
C94 C92 1.348 . S
C94 C96 1.353 . S
C94 H152 0.929 . S
C95 C92 1.356 . S
C95 C97 1.358 . S
C95 H153 0.930 . S
C96 N93 1.314 . S
C96 C94 1.353 . S
C96 H154 0.930 . S
C97 N93 1.279 . S
C97 C95 1.358 . S
C97 H155 0.930 . S
C98 C101 1.348 . S
C98 C102 1.356 . S
C98 O149 1.325 . S
C99 N100 1.279 . S
C99 C102 1.358 . S
C99 H156 0.930 . S
N100 C99 1.279 . S
N100 C103 1.314 . S
C101 C98 1.348 . S
C101 C103 1.353 . S
C101 H157 0.929 . S
C102 C98 1.356 . S
C102 C99 1.358 . S
C102 H158 0.930 . S
C103 N100 1.314 . S
C103 C101 1.353 . S
C103 H159 0.930 . S
C104 N105 1.309 1_455 S
C104 C109 1.373 . S
C104 H110 0.915 . S
N105 Li88 1.990 . S
N105 C104 1.309 1_655 S
N105 C107 1.279 . S
C106 C107 1.358 . S
C106 C108 1.356 1_655 S
C106 H160 0.930 . S
C107 N105 1.279 . S
C107 C106 1.358 . S
C107 H111 0.930 . S
C108 C106 1.356 1_455 S
C108 C109 1.348 . S
C109 C104 1.373 . S
C109 C108 1.348 . S
C109 H161 0.929 . S
H110 C104 0.915 . S
H111 C107 0.930 . S
C112 N113 1.314 . S
C112 C114 1.353 . S
C112 H118 0.930 . S
N113 Li89 1.990 . S
N113 C112 1.314 . S
N113 C116 1.279 . S
C114 C112 1.353 . S
C114 C117 1.348 . S
C114 H162 0.929 . S
C115 C116 1.358 . S
C115 C117 1.356 . S
C115 H163 0.930 . S
C116 N113 1.279 . S
C116 C115 1.358 . S
C116 H119 0.930 . S
C117 C114 1.348 . S
C117 C115 1.356 . S
H118 C112 0.930 . S
H119 C116 0.930 . S
C120 C122 1.348 . S
C120 C123 1.356 . S
C120 O150 1.325 1_455 S
N121 C124 1.314 . S
N121 C125 1.279 . S
C122 C120 1.348 . S
C122 C124 1.353 . S
C122 H164 0.929 . S
C123 C120 1.356 . S
C123 C125 1.358 . S
C123 H165 0.930 . S
C124 N121 1.314 . S
C124 C122 1.353 . S
C124 H166 0.930 . S
C125 N121 1.279 . S
C125 C123 1.358 . S
C125 H167 0.930 . S
C126 C127 1.348 . S
C126 C128 1.356 . S
C126 O151 1.325 . S
C127 C126 1.348 . S
C127 C129 1.353 . S
C127 H168 0.929 . S
C128 C126 1.356 . S
C128 C130 1.358 . S
C128 H169 0.930 . S
C129 C127 1.353 . S
C129 N131 1.314 . S
C129 H170 0.930 . S
C130 C128 1.358 . S
C130 N131 1.279 . S
C130 H171 0.930 . S
N131 C129 1.314 . S
N131 C130 1.279 . S
C132 C134 1.353 1_655 S
C132 N135 1.309 . S
C132 H138 0.930 . S
C133 N135 1.252 1_455 S
C133 C136 1.358 . S
C133 H139 0.930 . S
C134 C132 1.353 1_455 S
C134 C137 1.348 . S
C134 H172 0.929 1_455 S
N135 Li90 2.024 . S
N135 C132 1.309 . S
N135 C133 1.252 1_655 S
C136 C133 1.358 . S
C136 C137 1.356 . S
C136 H173 0.930 . S
C137 C134 1.348 . S
C137 C136 1.356 . S
H138 C132 0.930 . S
H139 C133 0.930 . S
C140 N141 1.314 . S
C140 C142 1.353 . S
C140 H146 0.930 . S
N141 Li91 1.990 . S
N141 C140 1.314 . S
N141 C144 1.279 . S
C142 C140 1.353 . S
C142 C145 1.348 . S
C142 H174 0.929 . S
C143 C144 1.358 . S
C143 C145 1.356 . S
C143 H175 0.930 . S
C144 N141 1.279 . S
C144 C143 1.358 . S
C144 H147 0.930 . S
C145 C142 1.348 . S
C145 C143 1.356 . S
H146 C140 0.930 . S
H147 C144 0.930 . S
O148 Li88 1.956 . S
O148 Li89 1.970 . S
O148 Li90 1.961 . S
O148 C92 1.325 . S
O149 Li88 1.970 . S
O149 Li89 1.956 . S
O149 Li91 1.961 . S
O149 C98 1.325 . S
O150 Li88 1.961 . S
O150 Li90 1.956 . S
O150 Li91 1.970 . S
O150 C120 1.325 1_655 S
O151 Li89 1.961 . S
O151 Li90 1.970 . S
O151 Li91 1.956 . S
O151 C126 1.325 . S
H152 C94 0.929 . S
H153 C95 0.930 . S
H154 C96 0.930 . S
H155 C97 0.930 . S
H156 C99 0.930 . S
H157 C101 0.929 . S
H158 C102 0.930 . S
H159 C103 0.930 . S
H160 C106 0.930 . S
H161 C109 0.929 . S
H162 C114 0.929 . S
H163 C115 0.930 . S
H164 C122 0.929 . S
H165 C123 0.930 . S
H166 C124 0.930 . S
H167 C125 0.930 . S
H168 C127 0.929 . S
H169 C128 0.930 . S
H170 C129 0.930 . S
H171 C130 0.930 . S
H172 C134 0.929 1_655 S
H173 C136 0.930 . S
H174 C142 0.929 . S
H175 C143 0.930 . S
Li176 N193 1.990 . S
Li176 O236 1.956 . S
Li176 O237 1.970 . S
Li176 O238 1.961 . S
Li177 N201 1.990 . S
Li177 O236 1.970 . S
Li177 O237 1.956 . S
Li177 O239 1.961 . S
Li178 N223 2.008 . S
Li178 O236 1.961 . S
Li178 O238 1.956 . S
Li178 O239 1.970 . S
Li179 N229 1.990 . S
Li179 O237 1.961 . S
Li179 O238 1.970 . S
Li179 O239 1.956 . S
C180 C182 1.348 . S
C180 C183 1.356 . S
C180 O236 1.325 . S
N181 C184 1.314 . S
N181 C185 1.279 . S
C182 C180 1.348 . S
C182 C184 1.353 . S
C182 H240 0.929 . S
C183 C180 1.356 . S
C183 C185 1.358 . S
C183 H241 0.930 . S
C184 N181 1.314 . S
C184 C182 1.353 . S
C184 H242 0.930 . S
C185 N181 1.279 . S
C185 C183 1.358 . S
C185 H243 0.930 . S
C186 C189 1.348 . S
C186 C190 1.356 . S
C186 O237 1.325 . S
C187 N188 1.279 . S
C187 C190 1.358 . S
C187 H244 0.930 . S
N188 C187 1.279 . S
N188 C191 1.314 . S
C189 C186 1.348 . S
C189 C191 1.353 . S
C189 H245 0.929 . S
C190 C186 1.356 . S
C190 C187 1.358 . S
C190 H246 0.930 . S
C191 N188 1.314 . S
C191 C189 1.353 . S
C191 H247 0.930 . S
C192 N193 1.286 1_545 S
C192 C197 1.363 . S
C192 H198 0.953 . S
N193 Li176 1.990 . S
N193 C192 1.286 1_565 S
N193 C195 1.279 . S
C194 C195 1.358 . S
C194 C196 1.356 1_565 S
C194 H248 0.930 . S
C195 N193 1.279 . S
C195 C194 1.358 . S
C195 H199 0.930 . S
C196 C194 1.356 1_545 S
C196 C197 1.348 . S
C197 C192 1.363 . S
C197 C196 1.348 . S
C197 H249 0.929 . S
H198 C192 0.953 . S
H199 C195 0.930 . S
C200 N201 1.314 . S
C200 C202 1.353 . S
C200 H206 0.930 . S
N201 Li177 1.990 . S
N201 C200 1.314 . S
N201 C204 1.279 . S
C202 C200 1.353 . S
C202 C205 1.348 . S
C202 H250 0.929 . S
C203 C204 1.358 . S
C203 C205 1.356 . S
C203 H251 0.930 . S
C204 N201 1.279 . S
C204 C203 1.358 . S
C204 H207 0.930 . S
C205 C202 1.348 . S
C205 C203 1.356 . S
H206 C200 0.930 . S
H207 C204 0.930 . S
C208 C210 1.348 . S
C208 C211 1.356 . S
C208 O238 1.325 1_545 S
N209 C212 1.314 . S
N209 C213 1.279 . S
C210 C208 1.348 . S
C210 C212 1.353 . S
C210 H252 0.929 . S
C211 C208 1.356 . S
C211 C213 1.358 . S
C211 H253 0.930 . S
C212 N209 1.314 . S
C212 C210 1.353 . S
C212 H254 0.930 . S
C213 N209 1.279 . S
C213 C211 1.358 . S
C213 H255 0.930 . S
C214 C215 1.348 . S
C214 C216 1.356 . S
C214 O239 1.325 . S
C215 C214 1.348 . S
C215 C217 1.353 . S
C215 H256 0.929 . S
C216 C214 1.356 . S
C216 C218 1.358 . S
C216 H257 0.930 . S
C217 C215 1.353 . S
C217 N219 1.314 . S
C217 H258 0.930 . S
C218 C216 1.358 . S
C218 N219 1.279 . S
C218 H259 0.930 . S
N219 C217 1.314 . S
N219 C218 1.279 . S
C220 C222 1.353 1_565 S
C220 N223 1.345 . S
C220 H226 0.930 . S
C221 N223 1.232 1_545 S
C221 C224 1.358 . S
C221 H227 0.930 . S
C222 C220 1.353 1_545 S
C222 C225 1.348 . S
C222 H260 0.929 1_545 S
N223 Li178 2.008 . S
N223 C220 1.345 . S
N223 C221 1.232 1_565 S
C224 C221 1.358 . S
C224 C225 1.356 . S
C224 H261 0.930 . S
C225 C222 1.348 . S
C225 C224 1.356 . S
H226 C220 0.930 . S
H227 C221 0.930 . S
C228 N229 1.314 . S
C228 C230 1.353 . S
C228 H234 0.930 . S
N229 Li179 1.990 . S
N229 C228 1.314 . S
N229 C232 1.279 . S
C230 C228 1.353 . S
C230 C233 1.348 . S
C230 H262 0.929 . S
C231 C232 1.358 . S
C231 C233 1.356 . S
C231 H263 0.930 . S
C232 N229 1.279 . S
C232 C231 1.358 . S
C232 H235 0.930 . S
C233 C230 1.348 . S
C233 C231 1.356 . S
H234 C228 0.930 . S
H235 C232 0.930 . S
O236 Li176 1.956 . S
O236 Li177 1.970 . S
O236 Li178 1.961 . S
O236 C180 1.325 . S
O237 Li176 1.970 . S
O237 Li177 1.956 . S
O237 Li179 1.961 . S
O237 C186 1.325 . S
O238 Li176 1.961 . S
O238 Li178 1.956 . S
O238 Li179 1.970 . S
O238 C208 1.325 1_565 S
O239 Li177 1.961 . S
O239 Li178 1.970 . S
O239 Li179 1.956 . S
O239 C214 1.325 . S
H240 C182 0.929 . S
H241 C183 0.930 . S
H242 C184 0.930 . S
H243 C185 0.930 . S
H244 C187 0.930 . S
H245 C189 0.929 . S
H246 C190 0.930 . S
H247 C191 0.930 . S
H248 C194 0.930 . S
H249 C197 0.929 . S
H250 C202 0.929 . S
H251 C203 0.930 . S
H252 C210 0.929 . S
H253 C211 0.930 . S
H254 C212 0.930 . S
H255 C213 0.930 . S
H256 C215 0.929 . S
H257 C216 0.930 . S
H258 C217 0.930 . S
H259 C218 0.930 . S
H260 C222 0.929 1_565 S
H261 C224 0.930 . S
H262 C230 0.929 . S
H263 C231 0.930 . S
Li264 N281 1.990 . S
Li264 O324 1.956 . S
Li264 O325 1.970 . S
Li264 O326 1.961 . S
Li265 N289 1.990 . S
Li265 O324 1.970 . S
Li265 O325 1.956 . S
Li265 O327 1.961 . S
Li266 N311 1.990 1_554 S
Li266 O324 1.961 . S
Li266 O326 1.956 . S
Li266 O327 1.970 . S
Li267 N317 1.990 . S
Li267 O325 1.961 . S
Li267 O326 1.970 . S
Li267 O327 1.956 . S
C268 C270 1.348 . S
C268 C271 1.356 . S
C268 O324 1.325 . S
N269 C272 1.314 . S
N269 C273 1.279 . S
C270 C268 1.348 . S
C270 C272 1.353 . S
C270 H328 0.929 . S
C271 C268 1.356 . S
C271 C273 1.358 . S
C271 H329 0.930 . S
C272 N269 1.314 . S
C272 C270 1.353 . S
C272 H330 0.930 . S
C273 N269 1.279 . S
C273 C271 1.358 . S
C273 H331 0.930 . S
C274 C277 1.348 . S
C274 C278 1.356 . S
C274 O325 1.325 . S
C275 N276 1.279 . S
C275 C278 1.358 . S
C275 H332 0.930 . S
N276 C275 1.279 . S
N276 C279 1.314 . S
C277 C274 1.348 . S
C277 C279 1.353 . S
C277 H333 0.929 . S
C278 C274 1.356 . S
C278 C275 1.358 . S
C278 H334 0.930 . S
C279 N276 1.314 . S
C279 C277 1.353 . S
C279 H335 0.930 . S
C280 N281 1.314 . S
C280 C285 1.353 . S
C280 H286 0.930 . S
N281 Li264 1.990 . S
N281 C280 1.314 . S
N281 C283 1.279 . S
C282 C283 1.358 . S
C282 C284 1.356 . S
C282 H336 0.930 . S
C283 N281 1.279 . S
C283 C282 1.358 . S
C283 H287 0.930 . S
C284 C282 1.356 . S
C284 C285 1.348 . S
C285 C280 1.353 . S
C285 C284 1.348 . S
C285 H337 0.929 . S
H286 C280 0.930 . S
H287 C283 0.930 . S
C288 N289 1.314 . S
C288 C290 1.353 . S
C288 H294 0.930 1_554 S
N289 Li265 1.990 . S
N289 C288 1.314 . S
N289 C292 1.279 . S
C290 C288 1.353 . S
C290 C293 1.348 . S
C290 H338 0.929 1_554 S
C291 C292 1.358 . S
C291 C293 1.356 . S
C291 H339 0.930 . S
C292 N289 1.279 . S
C292 C291 1.358 . S
C292 H295 0.930 . S
C293 C290 1.348 . S
C293 C291 1.356 . S
H294 C288 0.930 1_556 S
H295 C292 0.930 . S
C296 C298 1.348 . S
C296 C299 1.356 . S
C296 O326 1.325 . S
N297 C300 1.314 . S
N297 C301 1.279 . S
C298 C296 1.348 . S
C298 C300 1.353 . S
C298 H340 0.929 . S
C299 C296 1.356 . S
C299 C301 1.358 . S
C299 H341 0.930 . S
C300 N297 1.314 . S
C300 C298 1.353 . S
C300 H342 0.930 . S
C301 N297 1.279 . S
C301 C299 1.358 . S
C301 H343 0.930 . S
C302 C303 1.348 . S
C302 C304 1.356 . S
C302 O327 1.325 1_556 S
C303 C302 1.348 . S
C303 C305 1.353 . S
C303 H344 0.929 . S
C304 C302 1.356 . S
C304 C306 1.358 . S
C304 H345 0.930 1_556 S
C305 C303 1.353 . S
C305 N307 1.314 . S
C305 H346 0.930 . S
C306 C304 1.358 . S
C306 N307 1.279 . S
C306 H347 0.930 . S
N307 C305 1.314 . S
N307 C306 1.279 . S
C308 C310 1.353 . S
C308 N311 1.314 . S
C308 H314 0.930 . S
C309 N311 1.279 . S
C309 C312 1.358 . S
C309 H315 0.930 . S
C310 C308 1.353 . S
C310 C313 1.348 . S
C310 H348 0.929 . S
N311 Li266 1.990 1_556 S
N311 C308 1.314 . S
N311 C309 1.279 . S
C312 C309 1.358 . S
C312 C313 1.356 . S
C312 H349 0.930 . S
C313 C310 1.348 . S
C313 C312 1.356 . S
H314 C308 0.930 . S
H315 C309 0.930 . S
C316 N317 1.314 . S
C316 C318 1.353 . S
C316 H322 0.930 . S
N317 Li267 1.990 . S
N317 C316 1.314 . S
N317 C320 1.279 . S
C318 C316 1.353 . S
C318 C321 1.348 . S
C318 H350 0.929 . S
C319 C320 1.358 . S
C319 C321 1.356 . S
C319 H351 0.930 . S
C320 N317 1.279 . S
C320 C319 1.358 . S
C320 H323 0.930 . S
C321 C318 1.348 . S
C321 C319 1.356 . S
H322 C316 0.930 . S
H323 C320 0.930 . S
O324 Li264 1.956 . S
O324 Li265 1.970 . S
O324 Li266 1.961 . S
O324 C268 1.325 . S
O325 Li264 1.970 . S
O325 Li265 1.956 . S
O325 Li267 1.961 . S
O325 C274 1.325 . S
O326 Li264 1.961 . S
O326 Li266 1.956 . S
O326 Li267 1.970 . S
O326 C296 1.325 . S
O327 Li265 1.961 . S
O327 Li266 1.970 . S
O327 Li267 1.956 . S
O327 C302 1.325 1_554 S
H328 C270 0.929 . S
H329 C271 0.930 . S
H330 C272 0.930 . S
H331 C273 0.930 . S
H332 C275 0.930 . S
H333 C277 0.929 . S
H334 C278 0.930 . S
H335 C279 0.930 . S
H336 C282 0.930 . S
H337 C285 0.929 . S
H338 C290 0.929 1_556 S
H339 C291 0.930 . S
H340 C298 0.929 . S
H341 C299 0.930 . S
H342 C300 0.930 . S
H343 C301 0.930 . S
H344 C303 0.929 . S
H345 C304 0.930 1_554 S
H346 C305 0.930 . S
H347 C306 0.930 . S
H348 C310 0.929 . S
H349 C312 0.930 . S
H350 C318 0.929 . S
H351 C319 0.930 . S
Li352 N369 1.990 . S
Li352 O412 1.956 . S
Li352 O413 1.970 . S
Li352 O414 1.961 . S
Li353 N377 1.990 . S
Li353 O412 1.970 . S
Li353 O413 1.956 . S
Li353 O415 1.961 . S
Li354 N399 1.990 . S
Li354 O412 1.961 . S
Li354 O414 1.956 . S
Li354 O415 1.970 . S
Li355 N405 2.024 . S
Li355 O413 1.961 . S
Li355 O414 1.970 . S
Li355 O415 1.956 . S
C356 C358 1.348 . S
C356 C359 1.356 . S
C356 O412 1.325 . S
N357 C360 1.314 . S
N357 C361 1.279 . S
C358 C356 1.348 . S
C358 C360 1.353 . S
C358 H416 0.929 . S
C359 C356 1.356 . S
C359 C361 1.358 . S
C359 H417 0.930 . S
C360 N357 1.314 . S
C360 C358 1.353 . S
C360 H418 0.930 . S
C361 N357 1.279 . S
C361 C359 1.358 . S
C361 H419 0.930 . S
C362 C365 1.348 . S
C362 C366 1.356 . S
C362 O413 1.325 . S
C363 N364 1.279 . S
C363 C366 1.358 . S
C363 H420 0.930 . S
N364 C363 1.279 . S
N364 C367 1.314 . S
C365 C362 1.348 . S
C365 C367 1.353 . S
C365 H421 0.929 . S
C366 C362 1.356 . S
C366 C363 1.358 . S
C366 H422 0.930 . S
C367 N364 1.314 . S
C367 C365 1.353 . S
C367 H423 0.930 . S
C368 N369 1.314 . S
C368 C373 1.353 . S
C368 H374 0.930 . S
N369 Li352 1.990 . S
N369 C368 1.314 . S
N369 C371 1.279 . S
C370 C371 1.358 . S
C370 C372 1.356 . S
C370 H424 0.930 . S
C371 N369 1.279 . S
C371 C370 1.358 . S
C371 H375 0.930 . S
C372 C370 1.356 . S
C372 C373 1.348 . S
C373 C368 1.353 . S
C373 C372 1.348 . S
C373 H425 0.929 . S
H374 C368 0.930 . S
H375 C371 0.930 . S
C376 N377 1.309 1_655 S
C376 C378 1.373 . S
C376 H382 0.915 . S
N377 Li353 1.990 . S
N377 C376 1.309 1_455 S
N377 C380 1.279 . S
C378 C376 1.373 . S
C378 C381 1.348 . S
C378 H426 0.929 . S
C379 C380 1.358 . S
C379 C381 1.356 1_455 S
C379 H427 0.930 . S
C380 N377 1.279 . S
C380 C379 1.358 . S
C380 H383 0.930 . S
C381 C378 1.348 . S
C381 C379 1.356 1_655 S
H382 C376 0.915 . S
H383 C380 0.930 . S
C384 C386 1.348 . S
C384 C387 1.356 . S
C384 O414 1.325 . S
N385 C388 1.314 . S
N385 C389 1.279 . S
C386 C384 1.348 . S
C386 C388 1.353 . S
C386 H428 0.929 . S
C387 C384 1.356 . S
C387 C389 1.358 . S
C387 H429 0.930 . S
C388 N385 1.314 . S
C388 C386 1.353 . S
C388 H430 0.930 . S
C389 N385 1.279 . S
C389 C387 1.358 . S
C389 H431 0.930 . S
C390 C391 1.348 . S
C390 C392 1.356 . S
C390 O415 1.325 1_655 S
C391 C390 1.348 . S
C391 C393 1.353 . S
C391 H432 0.929 . S
C392 C390 1.356 . S
C392 C394 1.358 . S
C392 H433 0.930 . S
C393 C391 1.353 . S
C393 N395 1.314 . S
C393 H434 0.930 . S
C394 C392 1.358 . S
C394 N395 1.279 . S
C394 H435 0.930 . S
N395 C393 1.314 . S
N395 C394 1.279 . S
C396 C398 1.353 . S
C396 N399 1.314 . S
C396 H402 0.930 . S
C397 N399 1.279 . S
C397 C400 1.358 . S
C397 H403 0.930 . S
C398 C396 1.353 . S
C398 C401 1.348 . S
C398 H436 0.929 . S
N399 Li354 1.990 . S
N399 C396 1.314 . S
N399 C397 1.279 . S
C400 C397 1.358 . S
C400 C401 1.356 . S
C400 H437 0.930 . S
C401 C398 1.348 . S
C401 C400 1.356 . S
H402 C396 0.930 . S
H403 C397 0.930 . S
C404 N405 1.309 . S
C404 C406 1.353 1_455 S
C404 H410 0.930 . S
N405 Li355 2.024 . S
N405 C404 1.309 . S
N405 C408 1.252 1_455 S
C406 C404 1.353 1_655 S
C406 C409 1.348 . S
C406 H438 0.929 1_655 S
C407 C408 1.358 . S
C407 C409 1.356 . S
C407 H439 0.930 . S
C408 N405 1.252 1_655 S
C408 C407 1.358 . S
C408 H411 0.930 . S
C409 C406 1.348 . S
C409 C407 1.356 . S
H410 C404 0.930 . S
H411 C408 0.930 . S
O412 Li352 1.956 . S
O412 Li353 1.970 . S
O412 Li354 1.961 . S
O412 C356 1.325 . S
O413 Li352 1.970 . S
O413 Li353 1.956 . S
O413 Li355 1.961 . S
O413 C362 1.325 . S
O414 Li352 1.961 . S
O414 Li354 1.956 . S
O414 Li355 1.970 . S
O414 C384 1.325 . S
O415 Li353 1.961 . S
O415 Li354 1.970 . S
O415 Li355 1.956 . S
O415 C390 1.325 1_455 S
H416 C358 0.929 . S
H417 C359 0.930 . S
H418 C360 0.930 . S
H419 C361 0.930 . S
H420 C363 0.930 . S
H421 C365 0.929 . S
H422 C366 0.930 . S
H423 C367 0.930 . S
H424 C370 0.930 . S
H425 C373 0.929 . S
H426 C378 0.929 . S
H427 C379 0.930 . S
H428 C386 0.929 . S
H429 C387 0.930 . S
H430 C388 0.930 . S
H431 C389 0.930 . S
H432 C391 0.929 . S
H433 C392 0.930 . S
H434 C393 0.930 . S
H435 C394 0.930 . S
H436 C398 0.929 . S
H437 C400 0.930 . S
H438 C406 0.929 1_455 S
H439 C407 0.930 . S
Li440 N457 1.990 . S
Li440 O500 1.956 . S
Li440 O501 1.970 . S
Li440 O502 1.961 . S
Li441 N465 1.990 . S
Li441 O500 1.970 . S
Li441 O501 1.956 . S
Li441 O503 1.961 . S
Li442 N487 1.990 . S
Li442 O500 1.961 . S
Li442 O502 1.956 . S
Li442 O503 1.970 . S
Li443 N493 2.008 . S
Li443 O501 1.961 . S
Li443 O502 1.970 . S
Li443 O503 1.956 . S
C444 C446 1.348 . S
C444 C447 1.356 . S
C444 O500 1.325 . S
N445 C448 1.314 . S
N445 C449 1.279 . S
C446 C444 1.348 . S
C446 C448 1.353 . S
C446 H504 0.929 . S
C447 C444 1.356 . S
C447 C449 1.358 . S
C447 H505 0.930 . S
C448 N445 1.314 . S
C448 C446 1.353 . S
C448 H506 0.930 . S
C449 N445 1.279 . S
C449 C447 1.358 . S
C449 H507 0.930 . S
C450 C453 1.348 . S
C450 C454 1.356 . S
C450 O501 1.325 . S
C451 N452 1.279 . S
C451 C454 1.358 . S
C451 H508 0.930 . S
N452 C451 1.279 . S
N452 C455 1.314 . S
C453 C450 1.348 . S
C453 C455 1.353 . S
C453 H509 0.929 . S
C454 C450 1.356 . S
C454 C451 1.358 . S
C454 H510 0.930 . S
C455 N452 1.314 . S
C455 C453 1.353 . S
C455 H511 0.930 . S
C456 N457 1.314 . S
C456 C461 1.353 . S
C456 H462 0.930 . S
N457 Li440 1.990 . S
N457 C456 1.314 . S
N457 C459 1.279 . S
C458 C459 1.358 . S
C458 C460 1.356 . S
C458 H512 0.930 . S
C459 N457 1.279 . S
C459 C458 1.358 . S
C459 H463 0.930 . S
C460 C458 1.356 . S
C460 C461 1.348 . S
C461 C456 1.353 . S
C461 C460 1.348 . S
C461 H513 0.929 . S
H462 C456 0.930 . S
H463 C459 0.930 . S
C464 N465 1.286 1_565 S
C464 C466 1.363 . S
C464 H470 0.953 . S
N465 Li441 1.990 . S
N465 C464 1.286 1_545 S
N465 C468 1.279 . S
C466 C464 1.363 . S
C466 C469 1.348 . S
C466 H514 0.929 . S
C467 C468 1.358 . S
C467 C469 1.356 1_545 S
C467 H515 0.930 . S
C468 N465 1.279 . S
C468 C467 1.358 . S
C468 H471 0.930 . S
C469 C466 1.348 . S
C469 C467 1.356 1_565 S
H470 C464 0.953 . S
H471 C468 0.930 . S
C472 C474 1.348 . S
C472 C475 1.356 . S
C472 O502 1.325 . S
N473 C476 1.314 . S
N473 C477 1.279 . S
C474 C472 1.348 . S
C474 C476 1.353 . S
C474 H516 0.929 . S
C475 C472 1.356 . S
C475 C477 1.358 . S
C475 H517 0.930 . S
C476 N473 1.314 . S
C476 C474 1.353 . S
C476 H518 0.930 . S
C477 N473 1.279 . S
C477 C475 1.358 . S
C477 H519 0.930 . S
C478 C479 1.348 . S
C478 C480 1.356 . S
C478 O503 1.325 1_565 S
C479 C478 1.348 . S
C479 C481 1.353 . S
C479 H520 0.929 . S
C480 C478 1.356 . S
C480 C482 1.358 . S
C480 H521 0.930 . S
C481 C479 1.353 . S
C481 N483 1.314 . S
C481 H522 0.930 . S
C482 C480 1.358 . S
C482 N483 1.279 . S
C482 H523 0.930 . S
N483 C481 1.314 . S
N483 C482 1.279 . S
C484 C486 1.353 . S
C484 N487 1.314 . S
C484 H490 0.930 . S
C485 N487 1.279 . S
C485 C488 1.358 . S
C485 H491 0.930 . S
C486 C484 1.353 . S
C486 C489 1.348 . S
C486 H524 0.929 . S
N487 Li442 1.990 . S
N487 C484 1.314 . S
N487 C485 1.279 . S
C488 C485 1.358 . S
C488 C489 1.356 . S
C488 H525 0.930 . S
C489 C486 1.348 . S
C489 C488 1.356 . S
H490 C484 0.930 . S
H491 C485 0.930 . S
C492 N493 1.345 . S
C492 C494 1.353 1_545 S
C492 H498 0.930 . S
N493 Li443 2.008 . S
N493 C492 1.345 . S
N493 C496 1.232 1_545 S
C494 C492 1.353 1_565 S
C494 C497 1.348 . S
C494 H526 0.929 1_565 S
C495 C496 1.358 . S
C495 C497 1.356 . S
C495 H527 0.930 . S
C496 N493 1.232 1_565 S
C496 C495 1.358 . S
C496 H499 0.930 . S
C497 C494 1.348 . S
C497 C495 1.356 . S
H498 C492 0.930 . S
H499 C496 0.930 . S
O500 Li440 1.956 . S
O500 Li441 1.970 . S
O500 Li442 1.961 . S
O500 C444 1.325 . S
O501 Li440 1.970 . S
O501 Li441 1.956 . S
O501 Li443 1.961 . S
O501 C450 1.325 . S
O502 Li440 1.961 . S
O502 Li442 1.956 . S
O502 Li443 1.970 . S
O502 C472 1.325 . S
O503 Li441 1.961 . S
O503 Li442 1.970 . S
O503 Li443 1.956 . S
O503 C478 1.325 1_545 S
H504 C446 0.929 . S
H505 C447 0.930 . S
H506 C448 0.930 . S
H507 C449 0.930 . S
H508 C451 0.930 . S
H509 C453 0.929 . S
H510 C454 0.930 . S
H511 C455 0.930 . S
H512 C458 0.930 . S
H513 C461 0.929 . S
H514 C466 0.929 . S
H515 C467 0.930 . S
H516 C474 0.929 . S
H517 C475 0.930 . S
H518 C476 0.930 . S
H519 C477 0.930 . S
H520 C479 0.929 . S
H521 C480 0.930 . S
H522 C481 0.930 . S
H523 C482 0.930 . S
H524 C486 0.929 . S
H525 C488 0.930 . S
H526 C494 0.929 1_545 S
H527 C495 0.930 . S
Li528 N545 1.990 . S
Li528 O588 1.956 . S
Li528 O589 1.970 . S
Li528 O590 1.961 . S
Li529 N553 1.990 . S
Li529 O588 1.970 . S
Li529 O589 1.956 . S
Li529 O591 1.961 . S
Li530 N575 1.990 . S
Li530 O588 1.961 . S
Li530 O590 1.956 . S
Li530 O591 1.970 . S
Li531 N581 1.990 . S
Li531 O589 1.961 . S
Li531 O590 1.970 . S
Li531 O591 1.956 . S
C532 C534 1.348 . S
C532 C535 1.356 . S
C532 O588 1.325 . S
N533 C536 1.314 . S
N533 C537 1.279 . S
C534 C532 1.348 . S
C534 C536 1.353 . S
C534 H592 0.929 . S
C535 C532 1.356 . S
C535 C537 1.358 . S
C535 H593 0.930 . S
C536 N533 1.314 . S
C536 C534 1.353 . S
C536 H594 0.930 . S
C537 N533 1.279 . S
C537 C535 1.358 . S
C537 H595 0.930 . S
C538 C541 1.348 . S
C538 C542 1.356 . S
C538 O589 1.325 . S
C539 N540 1.279 . S
C539 C542 1.358 . S
C539 H596 0.930 . S
N540 C539 1.279 . S
N540 C543 1.314 . S
C541 C538 1.348 . S
C541 C543 1.353 . S
C541 H597 0.929 . S
C542 C538 1.356 . S
C542 C539 1.358 . S
C542 H598 0.930 . S
C543 N540 1.314 . S
C543 C541 1.353 . S
C543 H599 0.930 . S
C544 N545 1.314 . S
C544 C549 1.353 . S
C544 H550 0.930 . S
N545 Li528 1.990 . S
N545 C544 1.314 . S
N545 C547 1.279 . S
C546 C547 1.358 . S
C546 C548 1.356 . S
C546 H600 0.930 . S
C547 N545 1.279 . S
C547 C546 1.358 . S
C547 H551 0.930 . S
C548 C546 1.356 . S
C548 C549 1.348 . S
C549 C544 1.353 . S
C549 C548 1.348 . S
C549 H601 0.929 . S
H550 C544 0.930 . S
H551 C547 0.930 . S
C552 N553 1.314 . S
C552 C554 1.353 . S
C552 H558 0.930 . S
N553 Li529 1.990 . S
N553 C552 1.314 . S
N553 C556 1.279 . S
C554 C552 1.353 . S
C554 C557 1.348 . S
C554 H602 0.929 . S
C555 C556 1.358 . S
C555 C557 1.356 . S
C555 H603 0.930 . S
C556 N553 1.279 . S
C556 C555 1.358 . S
C556 H559 0.930 . S
C557 C554 1.348 . S
C557 C555 1.356 . S
H558 C552 0.930 . S
H559 C556 0.930 . S
C560 C562 1.348 . S
C560 C563 1.356 . S
C560 O590 1.325 . S
N561 C564 1.314 . S
N561 C565 1.279 . S
C562 C560 1.348 . S
C562 C564 1.353 . S
C562 H604 0.929 . S
C563 C560 1.356 . S
C563 C565 1.358 . S
C563 H605 0.930 . S
C564 N561 1.314 . S
C564 C562 1.353 . S
C564 H606 0.930 . S
C565 N561 1.279 . S
C565 C563 1.358 . S
C565 H607 0.930 . S
C566 C567 1.348 . S
C566 C568 1.356 . S
C566 O591 1.325 . S
C567 C566 1.348 . S
C567 C569 1.353 . S
C567 H608 0.929 . S
C568 C566 1.356 . S
C568 C570 1.358 . S
C568 H609 0.930 . S
C569 C567 1.353 . S
C569 N571 1.314 . S
C569 H610 0.930 . S
C570 C568 1.358 . S
C570 N571 1.279 . S
C570 H611 0.930 . S
N571 C569 1.314 . S
N571 C570 1.279 . S
C572 C574 1.353 . S
C572 N575 1.314 . S
C572 H578 0.930 . S
C573 N575 1.279 . S
C573 C576 1.358 . S
C573 H579 0.930 . S
C574 C572 1.353 . S
C574 C577 1.348 . S
C574 H612 0.929 . S
N575 Li530 1.990 . S
N575 C572 1.314 . S
N575 C573 1.279 . S
C576 C573 1.358 . S
C576 C577 1.356 . S
C576 H613 0.930 . S
C577 C574 1.348 . S
C577 C576 1.356 . S
H578 C572 0.930 . S
H579 C573 0.930 . S
C580 N581 1.314 . S
C580 C582 1.353 . S
C580 H586 0.930 . S
N581 Li531 1.990 . S
N581 C580 1.314 . S
N581 C584 1.279 . S
C582 C580 1.353 . S
C582 C585 1.348 . S
C582 H614 0.929 . S
C583 C584 1.358 . S
C583 C585 1.356 . S
C583 H615 0.930 . S
C584 N581 1.279 . S
C584 C583 1.358 . S
C584 H587 0.930 . S
C585 C582 1.348 . S
C585 C583 1.356 . S
H586 C580 0.930 . S
H587 C584 0.930 . S
O588 Li528 1.956 . S
O588 Li529 1.970 . S
O588 Li530 1.961 . S
O588 C532 1.325 . S
O589 Li528 1.970 . S
O589 Li529 1.956 . S
O589 Li531 1.961 . S
O589 C538 1.325 . S
O590 Li528 1.961 . S
O590 Li530 1.956 . S
O590 Li531 1.970 . S
O590 C560 1.325 . S
O591 Li529 1.961 . S
O591 Li530 1.970 . S
O591 Li531 1.956 . S
O591 C566 1.325 . S
H592 C534 0.929 . S
H593 C535 0.930 . S
H594 C536 0.930 . S
H595 C537 0.930 . S
H596 C539 0.930 . S
H597 C541 0.929 . S
H598 C542 0.930 . S
H599 C543 0.930 . S
H600 C546 0.930 . S
H601 C549 0.929 . S
H602 C554 0.929 . S
H603 C555 0.930 . S
H604 C562 0.929 . S
H605 C563 0.930 . S
H606 C564 0.930 . S
H607 C565 0.930 . S
H608 C567 0.929 . S
H609 C568 0.930 . S
H610 C569 0.930 . S
H611 C570 0.930 . S
H612 C574 0.929 . S
H613 C576 0.930 . S
H614 C582 0.929 . S
H615 C583 0.930 . S
Li616 N633 1.990 . S
Li616 O676 1.956 . S
Li616 O677 1.970 . S
Li616 O678 1.961 . S
Li617 N641 2.008 1_556 S
Li617 O676 1.970 . S
Li617 O677 1.956 . S
Li617 O679 1.961 . S
Li618 N663 1.990 . S
Li618 O676 1.961 . S
Li618 O678 1.956 . S
Li618 O679 1.970 . S
Li619 N669 1.990 . S
Li619 O677 1.961 . S
Li619 O678 1.970 . S
Li619 O679 1.956 . S
C620 C622 1.348 . S
C620 C623 1.356 . S
C620 O676 1.325 1_554 S
N621 C624 1.314 . S
N621 C625 1.279 . S
C622 C620 1.348 . S
C622 C624 1.353 . S
C622 H680 0.929 . S
C623 C620 1.356 . S
C623 C625 1.358 . S
C623 H681 0.930 1_554 S
C624 N621 1.314 . S
C624 C622 1.353 . S
C624 H682 0.930 . S
C625 N621 1.279 . S
C625 C623 1.358 . S
C625 H683 0.930 . S
C626 C629 1.348 . S
C626 C630 1.356 . S
C626 O677 1.325 1_455 S
C627 N628 1.279 . S
C627 C630 1.358 . S
C627 H684 0.930 . S
N628 C627 1.279 . S
N628 C631 1.314 . S
C629 C626 1.348 . S
C629 C631 1.353 . S
C629 H685 0.929 . S
C630 C626 1.356 . S
C630 C627 1.358 . S
C630 H686 0.930 . S
C631 N628 1.314 . S
C631 C629 1.353 . S
C631 H687 0.930 . S
C632 N633 1.314 . S
C632 C637 1.353 . S
C632 H638 0.930 . S
N633 Li616 1.990 . S
N633 C632 1.314 . S
N633 C635 1.279 . S
C634 C635 1.358 . S
C634 C636 1.356 . S
C634 H688 0.930 . S
C635 N633 1.279 . S
C635 C634 1.358 . S
C635 H639 0.930 . S
C636 C634 1.356 . S
C636 C637 1.348 . S
C637 C632 1.353 . S
C637 C636 1.348 . S
C637 H689 0.929 . S
H638 C632 0.930 . S
H639 C635 0.930 . S
C640 N641 1.345 . S
C640 C642 1.353 1_655 S
C640 H646 0.930 . S
N641 Li617 2.008 1_554 S
N641 C640 1.345 . S
N641 C644 1.232 1_655 S
C642 C640 1.353 1_455 S
C642 C645 1.348 . S
C642 H690 0.929 1_455 S
C643 C644 1.358 . S
C643 C645 1.356 . S
C643 H691 0.930 . S
C644 N641 1.232 1_455 S
C644 C643 1.358 . S
C644 H647 0.930 . S
C645 C642 1.348 . S
C645 C643 1.356 . S
H646 C640 0.930 . S
H647 C644 0.930 . S
C648 C650 1.348 . S
C648 C651 1.356 . S
C648 O678 1.325 . S
N649 C652 1.314 . S
N649 C653 1.279 . S
C650 C648 1.348 . S
C650 C652 1.353 . S
C650 H692 0.929 . S
C651 C648 1.356 . S
C651 C653 1.358 . S
C651 H693 0.930 . S
C652 N649 1.314 . S
C652 C650 1.353 . S
C652 H694 0.930 . S
C653 N649 1.279 . S
C653 C651 1.358 . S
C653 H695 0.930 . S
C654 C655 1.348 . S
C654 C656 1.356 . S
C654 O679 1.325 . S
C655 C654 1.348 . S
C655 C657 1.353 . S
C655 H696 0.929 . S
C656 C654 1.356 . S
C656 C658 1.358 . S
C656 H697 0.930 . S
C657 C655 1.353 . S
C657 N659 1.314 . S
C657 H698 0.930 . S
C658 C656 1.358 . S
C658 N659 1.279 . S
C658 H699 0.930 . S
N659 C657 1.314 . S
N659 C658 1.279 . S
C660 C662 1.353 . S
C660 N663 1.314 . S
C660 H666 0.930 1_556 S
C661 N663 1.279 . S
C661 C664 1.358 . S
C661 H667 0.930 . S
C662 C660 1.353 . S
C662 C665 1.348 . S
C662 H700 0.929 1_556 S
N663 Li618 1.990 . S
N663 C660 1.314 . S
N663 C661 1.279 . S
C664 C661 1.358 . S
C664 C665 1.356 . S
C664 H701 0.930 . S
C665 C662 1.348 . S
C665 C664 1.356 . S
H666 C660 0.930 1_554 S
H667 C661 0.930 . S
C668 N669 1.285 1_455 S
C668 C670 1.363 . S
C668 H674 0.953 . S
N669 Li619 1.990 . S
N669 C668 1.285 1_655 S
N669 C672 1.279 . S
C670 C668 1.363 . S
C670 C673 1.348 . S
C670 H702 0.929 . S
C671 C672 1.358 . S
C671 C673 1.356 1_655 S
C671 H703 0.930 . S
C672 N669 1.279 . S
C672 C671 1.358 . S
C672 H675 0.930 . S
C673 C670 1.348 . S
C673 C671 1.356 1_455 S
H674 C668 0.953 . S
H675 C672 0.930 . S
O676 Li616 1.956 . S
O676 Li617 1.970 . S
O676 Li618 1.961 . S
O676 C620 1.325 1_556 S
O677 Li616 1.970 . S
O677 Li617 1.956 . S
O677 Li619 1.961 . S
O677 C626 1.325 1_655 S
O678 Li616 1.961 . S
O678 Li618 1.956 . S
O678 Li619 1.970 . S
O678 C648 1.325 . S
O679 Li617 1.961 . S
O679 Li618 1.970 . S
O679 Li619 1.956 . S
O679 C654 1.325 . S
H680 C622 0.929 . S
H681 C623 0.930 1_556 S
H682 C624 0.930 . S
H683 C625 0.930 . S
H684 C627 0.930 . S
H685 C629 0.929 . S
H686 C630 0.930 . S
H687 C631 0.930 . S
H688 C634 0.930 . S
H689 C637 0.929 . S
H690 C642 0.929 1_655 S
H691 C643 0.930 . S
H692 C650 0.929 . S
H693 C651 0.930 . S
H694 C652 0.930 . S
H695 C653 0.930 . S
H696 C655 0.929 . S
H697 C656 0.930 . S
H698 C657 0.930 . S
H699 C658 0.930 . S
H700 C662 0.929 1_554 S
H701 C664 0.930 . S
H702 C670 0.929 . S
H703 C671 0.930 . S
Li704 N721 2.024 . S
Li704 O764 1.956 . S
Li704 O765 1.970 . S
Li704 O766 1.961 . S
Li705 N729 1.990 . S
Li705 O764 1.970 . S
Li705 O765 1.956 . S
Li705 O767 1.961 . S
Li706 N751 1.990 . S
Li706 O764 1.961 . S
Li706 O766 1.956 . S
Li706 O767 1.970 . S
Li707 N757 1.990 . S
Li707 O765 1.961 . S
Li707 O766 1.970 . S
Li707 O767 1.956 . S
C708 C710 1.348 . S
C708 C711 1.356 . S
C708 O764 1.325 1_545 S
N709 C712 1.314 . S
N709 C713 1.279 . S
C710 C708 1.348 . S
C710 C712 1.353 . S
C710 H768 0.929 . S
C711 C708 1.356 . S
C711 C713 1.358 . S
C711 H769 0.930 . S
C712 N709 1.314 . S
C712 C710 1.353 . S
C712 H770 0.930 . S
C713 N709 1.279 . S
C713 C711 1.358 . S
C713 H771 0.930 . S
C714 C717 1.348 . S
C714 C718 1.356 . S
C714 O765 1.325 . S
C715 N716 1.279 . S
C715 C718 1.358 . S
C715 H772 0.930 . S
N716 C715 1.279 . S
N716 C719 1.314 . S
C717 C714 1.348 . S
C717 C719 1.353 . S
C717 H773 0.929 . S
C718 C714 1.356 . S
C718 C715 1.358 . S
C718 H774 0.930 . S
C719 N716 1.314 . S
C719 C717 1.353 . S
C719 H775 0.930 . S
C720 N721 1.309 . S
C720 C725 1.353 1_565 S
C720 H726 0.930 . S
N721 Li704 2.024 . S
N721 C720 1.309 . S
N721 C723 1.252 1_565 S
C722 C723 1.358 . S
C722 C724 1.356 . S
C722 H776 0.930 . S
C723 N721 1.252 1_545 S
C723 C722 1.358 . S
C723 H727 0.930 . S
C724 C722 1.356 . S
C724 C725 1.348 . S
C725 C720 1.353 1_545 S
C725 C724 1.348 . S
C725 H777 0.929 1_545 S
H726 C720 0.930 . S
H727 C723 0.930 . S
C728 N729 1.314 . S
C728 C730 1.353 . S
C728 H734 0.930 . S
N729 Li705 1.990 . S
N729 C728 1.314 . S
N729 C732 1.279 . S
C730 C728 1.353 . S
C730 C733 1.348 . S
C730 H778 0.929 . S
C731 C732 1.358 . S
C731 C733 1.356 . S
C731 H779 0.930 . S
C732 N729 1.279 . S
C732 C731 1.358 . S
C732 H735 0.930 . S
C733 C730 1.348 . S
C733 C731 1.356 . S
H734 C728 0.930 . S
H735 C732 0.930 . S
C736 C738 1.348 . S
C736 C739 1.356 . S
C736 O766 1.325 . S
N737 C740 1.314 . S
N737 C741 1.279 . S
C738 C736 1.348 . S
C738 C740 1.353 . S
C738 H780 0.929 . S
C739 C736 1.356 . S
C739 C741 1.358 . S
C739 H781 0.930 . S
C740 N737 1.314 . S
C740 C738 1.353 . S
C740 H782 0.930 . S
C741 N737 1.279 . S
C741 C739 1.358 . S
C741 H783 0.930 . S
C742 C743 1.348 . S
C742 C744 1.356 . S
C742 O767 1.325 . S
C743 C742 1.348 . S
C743 C745 1.353 . S
C743 H784 0.929 . S
C744 C742 1.356 . S
C744 C746 1.358 . S
C744 H785 0.930 . S
C745 C743 1.353 . S
C745 N747 1.314 . S
C745 H786 0.930 . S
C746 C744 1.358 . S
C746 N747 1.279 . S
C746 H787 0.930 . S
N747 C745 1.314 . S
N747 C746 1.279 . S
C748 C750 1.373 . S
C748 N751 1.309 1_545 S
C748 H754 0.915 . S
C749 N751 1.279 . S
C749 C752 1.358 . S
C749 H755 0.930 . S
C750 C748 1.373 . S
C750 C753 1.348 . S
C750 H788 0.929 . S
N751 Li706 1.990 . S
N751 C748 1.309 1_565 S
N751 C749 1.279 . S
C752 C749 1.358 . S
C752 C753 1.356 1_565 S
C752 H789 0.930 . S
C753 C750 1.348 . S
C753 C752 1.356 1_545 S
H754 C748 0.915 . S
H755 C749 0.930 . S
C756 N757 1.314 . S
C756 C758 1.353 . S
C756 H762 0.930 . S
N757 Li707 1.990 . S
N757 C756 1.314 . S
N757 C760 1.279 . S
C758 C756 1.353 . S
C758 C761 1.348 . S
C758 H790 0.929 . S
C759 C760 1.358 . S
C759 C761 1.356 . S
C759 H791 0.930 . S
C760 N757 1.279 . S
C760 C759 1.358 . S
C760 H763 0.930 . S
C761 C758 1.348 . S
C761 C759 1.356 . S
H762 C756 0.930 . S
H763 C760 0.930 . S
O764 Li704 1.956 . S
O764 Li705 1.970 . S
O764 Li706 1.961 . S
O764 C708 1.325 1_565 S
O765 Li704 1.970 . S
O765 Li705 1.956 . S
O765 Li707 1.961 . S
O765 C714 1.325 . S
O766 Li704 1.961 . S
O766 Li706 1.956 . S
O766 Li707 1.970 . S
O766 C736 1.325 . S
O767 Li705 1.961 . S
O767 Li706 1.970 . S
O767 Li707 1.956 . S
O767 C742 1.325 . S
H768 C710 0.929 . S
H769 C711 0.930 . S
H770 C712 0.930 . S
H771 C713 0.930 . S
H772 C715 0.930 . S
H773 C717 0.929 . S
H774 C718 0.930 . S
H775 C719 0.930 . S
H776 C722 0.930 . S
H777 C725 0.929 1_565 S
H778 C730 0.929 . S
H779 C731 0.930 . S
H780 C738 0.929 . S
H781 C739 0.930 . S
H782 C740 0.930 . S
H783 C741 0.930 . S
H784 C743 0.929 . S
H785 C744 0.930 . S
H786 C745 0.930 . S
H787 C746 0.930 . S
H788 C750 0.929 . S
H789 C752 0.930 . S
H790 C758 0.929 . S
H791 C759 0.930 . S
Li792 N809 1.990 . S
Li792 O852 1.956 . S
Li792 O853 1.970 . S
Li792 O854 1.961 . S
Li793 N817 1.990 . S
Li793 O852 1.970 . S
Li793 O853 1.956 . S
Li793 O855 1.961 . S
Li794 N839 1.990 . S
Li794 O852 1.961 . S
Li794 O854 1.956 . S
Li794 O855 1.970 . S
Li795 N845 1.990 . S
Li795 O853 1.961 . S
Li795 O854 1.970 . S
Li795 O855 1.956 . S
C796 C798 1.348 . S
C796 C799 1.356 . S
C796 O852 1.325 . S
N797 C800 1.314 . S
N797 C801 1.279 . S
C798 C796 1.348 . S
C798 C800 1.353 . S
C798 H856 0.929 . S
C799 C796 1.356 . S
C799 C801 1.358 . S
C799 H857 0.930 . S
C800 N797 1.314 . S
C800 C798 1.353 . S
C800 H858 0.930 . S
C801 N797 1.279 . S
C801 C799 1.358 . S
C801 H859 0.930 . S
C802 C805 1.348 . S
C802 C806 1.356 . S
C802 O853 1.325 . S
C803 N804 1.279 . S
C803 C806 1.358 . S
C803 H860 0.930 . S
N804 C803 1.279 . S
N804 C807 1.314 . S
C805 C802 1.348 . S
C805 C807 1.353 . S
C805 H861 0.929 . S
C806 C802 1.356 . S
C806 C803 1.358 . S
C806 H862 0.930 . S
C807 N804 1.314 . S
C807 C805 1.353 . S
C807 H863 0.930 . S
C808 N809 1.314 . S
C808 C813 1.353 . S
C808 H814 0.930 . S
N809 Li792 1.990 . S
N809 C808 1.314 . S
N809 C811 1.279 . S
C810 C811 1.358 . S
C810 C812 1.356 . S
C810 H864 0.930 . S
C811 N809 1.279 . S
C811 C810 1.358 . S
C811 H815 0.930 . S
C812 C810 1.356 . S
C812 C813 1.348 . S
C813 C808 1.353 . S
C813 C812 1.348 . S
C813 H865 0.929 . S
H814 C808 0.930 . S
H815 C811 0.930 . S
C816 N817 1.314 . S
C816 C818 1.353 . S
C816 H822 0.930 . S
N817 Li793 1.990 . S
N817 C816 1.314 . S
N817 C820 1.279 . S
C818 C816 1.353 . S
C818 C821 1.348 . S
C818 H866 0.929 . S
C819 C820 1.358 . S
C819 C821 1.356 . S
C819 H867 0.930 . S
C820 N817 1.279 . S
C820 C819 1.358 . S
C820 H823 0.930 . S
C821 C818 1.348 . S
C821 C819 1.356 . S
H822 C816 0.930 . S
H823 C820 0.930 . S
C824 C826 1.348 . S
C824 C827 1.356 . S
C824 O854 1.325 . S
N825 C828 1.314 . S
N825 C829 1.279 . S
C826 C824 1.348 . S
C826 C828 1.353 . S
C826 H868 0.929 . S
C827 C824 1.356 . S
C827 C829 1.358 . S
C827 H869 0.930 . S
C828 N825 1.314 . S
C828 C826 1.353 . S
C828 H870 0.930 . S
C829 N825 1.279 . S
C829 C827 1.358 . S
C829 H871 0.930 . S
C830 C831 1.348 . S
C830 C832 1.356 . S
C830 O855 1.325 . S
C831 C830 1.348 . S
C831 C833 1.353 . S
C831 H872 0.929 . S
C832 C830 1.356 . S
C832 C834 1.358 . S
C832 H873 0.930 . S
C833 C831 1.353 . S
C833 N835 1.314 . S
C833 H874 0.930 . S
C834 C832 1.358 . S
C834 N835 1.279 . S
C834 H875 0.930 . S
N835 C833 1.314 . S
N835 C834 1.279 . S
C836 C838 1.353 . S
C836 N839 1.314 . S
C836 H842 0.930 . S
C837 N839 1.279 . S
C837 C840 1.358 . S
C837 H843 0.930 . S
C838 C836 1.353 . S
C838 C841 1.348 . S
C838 H876 0.929 . S
N839 Li794 1.990 . S
N839 C836 1.314 . S
N839 C837 1.279 . S
C840 C837 1.358 . S
C840 C841 1.356 . S
C840 H877 0.930 . S
C841 C838 1.348 . S
C841 C840 1.356 . S
H842 C836 0.930 . S
H843 C837 0.930 . S
C844 N845 1.314 . S
C844 C846 1.353 . S
C844 H850 0.930 . S
N845 Li795 1.990 . S
N845 C844 1.314 . S
N845 C848 1.279 . S
C846 C844 1.353 . S
C846 C849 1.348 . S
C846 H878 0.929 . S
C847 C848 1.358 . S
C847 C849 1.356 . S
C847 H879 0.930 . S
C848 N845 1.279 . S
C848 C847 1.358 . S
C848 H851 0.930 . S
C849 C846 1.348 . S
C849 C847 1.356 . S
H850 C844 0.930 . S
H851 C848 0.930 . S
O852 Li792 1.956 . S
O852 Li793 1.970 . S
O852 Li794 1.961 . S
O852 C796 1.325 . S
O853 Li792 1.970 . S
O853 Li793 1.956 . S
O853 Li795 1.961 . S
O853 C802 1.325 . S
O854 Li792 1.961 . S
O854 Li794 1.956 . S
O854 Li795 1.970 . S
O854 C824 1.325 . S
O855 Li793 1.961 . S
O855 Li794 1.970 . S
O855 Li795 1.956 . S
O855 C830 1.325 . S
H856 C798 0.929 . S
H857 C799 0.930 . S
H858 C800 0.930 . S
H859 C801 0.930 . S
H860 C803 0.930 . S
H861 C805 0.929 . S
H862 C806 0.930 . S
H863 C807 0.930 . S
H864 C810 0.930 . S
H865 C813 0.929 . S
H866 C818 0.929 . S
H867 C819 0.930 . S
H868 C826 0.929 . S
H869 C827 0.930 . S
H870 C828 0.930 . S
H871 C829 0.930 . S
H872 C831 0.929 . S
H873 C832 0.930 . S
H874 C833 0.930 . S
H875 C834 0.930 . S
H876 C838 0.929 . S
H877 C840 0.930 . S
H878 C846 0.929 . S
H879 C847 0.930 . S
Li880 N897 1.990 . S
Li880 O940 1.956 . S
Li880 O941 1.970 . S
Li880 O942 1.961 . S
Li881 N905 2.008 1_556 S
Li881 O940 1.970 . S
Li881 O941 1.956 . S
Li881 O943 1.961 . S
Li882 N927 1.990 . S
Li882 O940 1.961 . S
Li882 O942 1.956 . S
Li882 O943 1.970 . S
Li883 N933 1.990 . S
Li883 O941 1.961 . S
Li883 O942 1.970 . S
Li883 O943 1.956 . S
C884 C886 1.348 . S
C884 C887 1.356 . S
C884 O940 1.325 1_554 S
N885 C888 1.314 . S
N885 C889 1.279 . S
C886 C884 1.348 . S
C886 C888 1.353 . S
C886 H944 0.929 . S
C887 C884 1.356 . S
C887 C889 1.358 . S
C887 H945 0.930 1_554 S
C888 N885 1.314 . S
C888 C886 1.353 . S
C888 H946 0.930 . S
C889 N885 1.279 . S
C889 C887 1.358 . S
C889 H947 0.930 . S
C890 C893 1.348 . S
C890 C894 1.356 . S
C890 O941 1.325 1_655 S
C891 N892 1.279 . S
C891 C894 1.358 . S
C891 H948 0.930 . S
N892 C891 1.279 . S
N892 C895 1.314 . S
C893 C890 1.348 . S
C893 C895 1.353 . S
C893 H949 0.929 . S
C894 C890 1.356 . S
C894 C891 1.358 . S
C894 H950 0.930 . S
C895 N892 1.314 . S
C895 C893 1.353 . S
C895 H951 0.930 . S
C896 N897 1.314 . S
C896 C901 1.353 . S
C896 H902 0.930 . S
N897 Li880 1.990 . S
N897 C896 1.314 . S
N897 C899 1.279 . S
C898 C899 1.358 . S
C898 C900 1.356 . S
C898 H952 0.930 . S
C899 N897 1.279 . S
C899 C898 1.358 . S
C899 H903 0.930 . S
C900 C898 1.356 . S
C900 C901 1.348 . S
C901 C896 1.353 . S
C901 C900 1.348 . S
C901 H953 0.929 . S
H902 C896 0.930 . S
H903 C899 0.930 . S
C904 N905 1.345 . S
C904 C906 1.353 1_455 S
C904 H910 0.930 . S
N905 Li881 2.008 1_554 S
N905 C904 1.345 . S
N905 C908 1.232 1_455 S
C906 C904 1.353 1_655 S
C906 C909 1.348 . S
C906 H954 0.929 1_655 S
C907 C908 1.358 . S
C907 C909 1.356 . S
C907 H955 0.930 . S
C908 N905 1.232 1_655 S
C908 C907 1.358 . S
C908 H911 0.930 . S
C909 C906 1.348 . S
C909 C907 1.356 . S
H910 C904 0.930 . S
H911 C908 0.930 . S
C912 C914 1.348 . S
C912 C915 1.356 . S
C912 O942 1.325 . S
N913 C916 1.314 . S
N913 C917 1.279 . S
C914 C912 1.348 . S
C914 C916 1.353 . S
C914 H956 0.929 . S
C915 C912 1.356 . S
C915 C917 1.358 . S
C915 H957 0.930 . S
C916 N913 1.314 . S
C916 C914 1.353 . S
C916 H958 0.930 . S
C917 N913 1.279 . S
C917 C915 1.358 . S
C917 H959 0.930 . S
C918 C919 1.348 . S
C918 C920 1.356 . S
C918 O943 1.325 . S
C919 C918 1.348 . S
C919 C921 1.353 . S
C919 H960 0.929 . S
C920 C918 1.356 . S
C920 C922 1.358 . S
C920 H961 0.930 . S
C921 C919 1.353 . S
C921 N923 1.314 . S
C921 H962 0.930 . S
C922 C920 1.358 . S
C922 N923 1.279 . S
C922 H963 0.930 . S
N923 C921 1.314 . S
N923 C922 1.279 . S
C924 C926 1.353 . S
C924 N927 1.314 . S
C924 H930 0.930 1_556 S
C925 N927 1.279 . S
C925 C928 1.358 . S
C925 H931 0.930 . S
C926 C924 1.353 . S
C926 C929 1.348 . S
C926 H964 0.929 1_556 S
N927 Li882 1.990 . S
N927 C924 1.314 . S
N927 C925 1.279 . S
C928 C925 1.358 . S
C928 C929 1.356 . S
C928 H965 0.930 . S
C929 C926 1.348 . S
C929 C928 1.356 . S
H930 C924 0.930 1_554 S
H931 C925 0.930 . S
C932 N933 1.285 1_655 S
C932 C934 1.363 . S
C932 H938 0.953 . S
N933 Li883 1.990 . S
N933 C932 1.285 1_455 S
N933 C936 1.279 . S
C934 C932 1.363 . S
C934 C937 1.348 . S
C934 H966 0.929 . S
C935 C936 1.358 . S
C935 C937 1.356 1_455 S
C935 H967 0.930 . S
C936 N933 1.279 . S
C936 C935 1.358 . S
C936 H939 0.930 . S
C937 C934 1.348 . S
C937 C935 1.356 1_655 S
H938 C932 0.953 . S
H939 C936 0.930 . S
O940 Li880 1.956 . S
O940 Li881 1.970 . S
O940 Li882 1.961 . S
O940 C884 1.325 1_556 S
O941 Li880 1.970 . S
O941 Li881 1.956 . S
O941 Li883 1.961 . S
O941 C890 1.325 1_455 S
O942 Li880 1.961 . S
O942 Li882 1.956 . S
O942 Li883 1.970 . S
O942 C912 1.325 . S
O943 Li881 1.961 . S
O943 Li882 1.970 . S
O943 Li883 1.956 . S
O943 C918 1.325 . S
H944 C886 0.929 . S
H945 C887 0.930 1_556 S
H946 C888 0.930 . S
H947 C889 0.930 . S
H948 C891 0.930 . S
H949 C893 0.929 . S
H950 C894 0.930 . S
H951 C895 0.930 . S
H952 C898 0.930 . S
H953 C901 0.929 . S
H954 C906 0.929 1_455 S
H955 C907 0.930 . S
H956 C914 0.929 . S
H957 C915 0.930 . S
H958 C916 0.930 . S
H959 C917 0.930 . S
H960 C919 0.929 . S
H961 C920 0.930 . S
H962 C921 0.930 . S
H963 C922 0.930 . S
H964 C926 0.929 1_554 S
H965 C928 0.930 . S
H966 C934 0.929 . S
H967 C935 0.930 . S
Li968 N985 1.990 . S
Li968 O1028 1.956 . S
Li968 O1029 1.970 . S
Li968 O1030 1.961 . S
Li969 N993 2.024 . S
Li969 O1028 1.970 . S
Li969 O1029 1.956 . S
Li969 O1031 1.961 . S
Li970 N1015 1.990 . S
Li970 O1028 1.961 . S
Li970 O1030 1.956 . S
Li970 O1031 1.970 . S
Li971 N1021 1.990 . S
Li971 O1029 1.961 . S
Li971 O1030 1.970 . S
Li971 O1031 1.956 . S
C972 C974 1.348 . S
C972 C975 1.356 . S
C972 O1028 1.325 . S
N973 C976 1.314 . S
N973 C977 1.279 . S
C974 C972 1.348 . S
C974 C976 1.353 . S
C974 H1032 0.929 . S
C975 C972 1.356 . S
C975 C977 1.358 . S
C975 H1033 0.930 . S
C976 N973 1.314 . S
C976 C974 1.353 . S
C976 H1034 0.930 . S
C977 N973 1.279 . S
C977 C975 1.358 . S
C977 H1035 0.930 . S
C978 C981 1.348 . S
C978 C982 1.356 . S
C978 O1029 1.325 1_565 S
C979 N980 1.279 . S
C979 C982 1.358 . S
C979 H1036 0.930 . S
N980 C979 1.279 . S
N980 C983 1.314 . S
C981 C978 1.348 . S
C981 C983 1.353 . S
C981 H1037 0.929 . S
C982 C978 1.356 . S
C982 C979 1.358 . S
C982 H1038 0.930 . S
C983 N980 1.314 . S
C983 C981 1.353 . S
C983 H1039 0.930 . S
C984 N985 1.314 . S
C984 C989 1.353 . S
C984 H990 0.930 . S
N985 Li968 1.990 . S
N985 C984 1.314 . S
N985 C987 1.279 . S
C986 C987 1.358 . S
C986 C988 1.356 . S
C986 H1040 0.930 . S
C987 N985 1.279 . S
C987 C986 1.358 . S
C987 H991 0.930 . S
C988 C986 1.356 . S
C988 C989 1.348 . S
C989 C984 1.353 . S
C989 C988 1.348 . S
C989 H1041 0.929 . S
H990 C984 0.930 . S
H991 C987 0.930 . S
C992 N993 1.309 . S
C992 C994 1.353 1_545 S
C992 H998 0.930 . S
N993 Li969 2.024 . S
N993 C992 1.309 . S
N993 C996 1.252 1_545 S
C994 C992 1.353 1_565 S
C994 C997 1.348 . S
C994 H1042 0.929 1_565 S
C995 C996 1.358 . S
C995 C997 1.356 . S
C995 H1043 0.930 . S
C996 N993 1.252 1_565 S
C996 C995 1.358 . S
C996 H999 0.930 . S
C997 C994 1.348 . S
C997 C995 1.356 . S
H998 C992 0.930 . S
H999 C996 0.930 . S
C1000 C1002 1.348 . S
C1000 C1003 1.356 . S
C1000 O1030 1.325 . S
N1001 C1004 1.314 . S
N1001 C1005 1.279 . S
C1002 C1000 1.348 . S
C1002 C1004 1.353 . S
C1002 H1044 0.929 . S
C1003 C1000 1.356 . S
C1003 C1005 1.358 . S
C1003 H1045 0.930 . S
C1004 N1001 1.314 . S
C1004 C1002 1.353 . S
C1004 H1046 0.930 . S
C1005 N1001 1.279 . S
C1005 C1003 1.358 . S
C1005 H1047 0.930 . S
C1006 C1007 1.348 . S
C1006 C1008 1.356 . S
C1006 O1031 1.325 . S
C1007 C1006 1.348 . S
C1007 C1009 1.353 . S
C1007 H1048 0.929 . S
C1008 C1006 1.356 . S
C1008 C1010 1.358 . S
C1008 H1049 0.930 . S
C1009 C1007 1.353 . S
C1009 N1011 1.314 . S
C1009 H1050 0.930 . S
C1010 C1008 1.358 . S
C1010 N1011 1.279 . S
C1010 H1051 0.930 . S
N1011 C1009 1.314 . S
N1011 C1010 1.279 . S
C1012 C1014 1.353 . S
C1012 N1015 1.314 . S
C1012 H1018 0.930 . S
C1013 N1015 1.279 . S
C1013 C1016 1.358 . S
C1013 H1019 0.930 . S
C1014 C1012 1.353 . S
C1014 C1017 1.348 . S
C1014 H1052 0.929 . S
N1015 Li970 1.990 . S
N1015 C1012 1.314 . S
N1015 C1013 1.279 . S
C1016 C1013 1.358 . S
C1016 C1017 1.356 . S
C1016 H1053 0.930 . S
C1017 C1014 1.348 . S
C1017 C1016 1.356 . S
H1018 C1012 0.930 . S
H1019 C1013 0.930 . S
C1020 N1021 1.309 1_565 S
C1020 C1022 1.373 . S
C1020 H1026 0.915 . S
N1021 Li971 1.990 . S
N1021 C1020 1.309 1_545 S
N1021 C1024 1.279 . S
C1022 C1020 1.373 . S
C1022 C1025 1.348 . S
C1022 H1054 0.929 . S
C1023 C1024 1.358 . S
C1023 C1025 1.356 1_545 S
C1023 H1055 0.930 . S
C1024 N1021 1.279 . S
C1024 C1023 1.358 . S
C1024 H1027 0.930 . S
C1025 C1022 1.348 . S
C1025 C1023 1.356 1_565 S
H1026 C1020 0.915 . S
H1027 C1024 0.930 . S
O1028 Li968 1.956 . S
O1028 Li969 1.970 . S
O1028 Li970 1.961 . S
O1028 C972 1.325 . S
O1029 Li968 1.970 . S
O1029 Li969 1.956 . S
O1029 Li971 1.961 . S
O1029 C978 1.325 1_545 S
O1030 Li968 1.961 . S
O1030 Li970 1.956 . S
O1030 Li971 1.970 . S
O1030 C1000 1.325 . S
O1031 Li969 1.961 . S
O1031 Li970 1.970 . S
O1031 Li971 1.956 . S
O1031 C1006 1.325 . S
H1032 C974 0.929 . S
H1033 C975 0.930 . S
H1034 C976 0.930 . S
H1035 C977 0.930 . S
H1036 C979 0.930 . S
H1037 C981 0.929 . S
H1038 C982 0.930 . S
H1039 C983 0.930 . S
H1040 C986 0.930 . S
H1041 C989 0.929 . S
H1042 C994 0.929 1_545 S
H1043 C995 0.930 . S
H1044 C1002 0.929 . S
H1045 C1003 0.930 . S
H1046 C1004 0.930 . S
H1047 C1005 0.930 . S
H1048 C1007 0.929 . S
H1049 C1008 0.930 . S
H1050 C1009 0.930 . S
H1051 C1010 0.930 . S
H1052 C1014 0.929 . S
H1053 C1016 0.930 . S
H1054 C1022 0.929 . S
H1055 C1023 0.930 . S
C1056 C1057 1.387 . S
C1056 H1060 0.950 . S
C1056 C1065 1.390 . S
C1057 C1056 1.387 . S
C1057 C1059 1.387 . S
H1058 C1065 0.950 . S
C1059 C1057 1.387 . S
C1059 C1061 1.390 . S
C1059 H1063 0.950 . S
H1060 C1056 0.950 . S
C1061 C1059 1.390 . S
C1061 C1062 1.387 . S
C1061 H1064 0.950 . S
C1062 C1061 1.387 . S
C1062 C1065 1.387 . S
H1063 C1059 0.950 . S
H1064 C1061 0.950 . S
C1065 C1056 1.390 . S
C1065 H1058 0.950 . S
C1065 C1062 1.387 . S
C1066 C1067 1.387 1_655 S
C1066 H1070 0.950 . S
C1066 C1075 1.390 . S
C1067 C1066 1.387 1_455 S
C1067 C1069 1.387 . S
H1068 C1075 0.950 . S
C1069 C1067 1.387 . S
C1069 C1071 1.390 . S
C1069 H1073 0.950 . S
H1070 C1066 0.950 . S
C1071 C1069 1.390 . S
C1071 C1072 1.387 1_455 S
C1071 H1074 0.950 . S
C1072 C1071 1.387 1_655 S
C1072 C1075 1.387 . S
H1073 C1069 0.950 . S
H1074 C1071 0.950 . S
C1075 C1066 1.390 . S
C1075 H1068 0.950 . S
C1075 C1072 1.387 . S
C1076 C1077 1.387 . S
C1076 H1080 0.950 . S
C1076 C1085 1.390 1_546 S
C1077 C1076 1.387 . S
C1077 C1079 1.387 . S
H1078 C1085 0.950 . S
C1079 C1077 1.387 . S
C1079 C1081 1.390 1_546 S
C1079 H1083 0.950 . S
H1080 C1076 0.950 . S
C1081 C1079 1.390 1_564 S
C1081 C1082 1.387 . S
C1081 H1084 0.950 . S
C1082 C1081 1.387 . S
C1082 C1085 1.387 . S
H1083 C1079 0.950 . S
H1084 C1081 0.950 . S
C1085 C1076 1.390 1_564 S
C1085 H1078 0.950 . S
C1085 C1082 1.387 . S
C1086 C1087 1.387 . S
C1086 H1090 0.950 . S
C1086 C1095 1.390 . S
C1087 C1086 1.387 . S
C1087 C1089 1.387 . S
H1088 C1095 0.950 . S
C1089 C1087 1.387 . S
C1089 C1091 1.390 . S
C1089 H1093 0.950 . S
H1090 C1086 0.950 . S
C1091 C1089 1.390 . S
C1091 C1092 1.387 . S
C1091 H1094 0.950 . S
C1092 C1091 1.387 . S
C1092 C1095 1.387 . S
H1093 C1089 0.950 . S
H1094 C1091 0.950 . S
C1095 C1086 1.390 . S
C1095 H1088 0.950 . S
C1095 C1092 1.387 . S
C1096 C1097 1.387 . S
C1096 H1100 0.950 . S
C1096 C1105 1.390 . S
C1097 C1096 1.387 . S
C1097 C1099 1.387 1_455 S
H1098 C1105 0.950 . S
C1099 C1097 1.387 1_655 S
C1099 C1101 1.390 . S
C1099 H1103 0.950 . S
H1100 C1096 0.950 . S
C1101 C1099 1.390 . S
C1101 C1102 1.387 . S
C1101 H1104 0.950 . S
C1102 C1101 1.387 . S
C1102 C1105 1.387 1_655 S
H1103 C1099 0.950 . S
H1104 C1101 0.950 . S
C1105 C1096 1.390 . S
C1105 H1098 0.950 . S
C1105 C1102 1.387 1_455 S
C1106 C1107 1.387 . S
C1106 H1110 0.950 . S
C1106 C1115 1.390 1_544 S
C1107 C1106 1.387 . S
C1107 C1109 1.387 . S
H1108 C1115 0.950 . S
C1109 C1107 1.387 . S
C1109 C1111 1.390 1_544 S
C1109 H1113 0.950 . S
H1110 C1106 0.950 . S
C1111 C1109 1.390 1_566 S
C1111 C1112 1.387 . S
C1111 H1114 0.950 . S
C1112 C1111 1.387 . S
C1112 C1115 1.387 . S
H1113 C1109 0.950 . S
H1114 C1111 0.950 . S
C1115 C1106 1.390 1_566 S
C1115 H1108 0.950 . S
C1115 C1112 1.387 . S
C1116 C1117 1.387 . S
C1116 H1120 0.950 . S
C1116 C1125 1.390 1_556 S
C1117 C1116 1.387 . S
C1117 C1119 1.387 . S
H1118 C1125 0.950 . S
C1119 C1117 1.387 . S
C1119 C1121 1.390 1_556 S
C1119 H1123 0.950 . S
H1120 C1116 0.950 . S
C1121 C1119 1.390 1_554 S
C1121 C1122 1.387 . S
C1121 H1124 0.950 . S
C1122 C1121 1.387 . S
C1122 C1125 1.387 . S
H1123 C1119 0.950 . S
H1124 C1121 0.950 . S
C1125 C1116 1.390 1_554 S
C1125 H1118 0.950 . S
C1125 C1122 1.387 . S
C1126 C1127 1.387 . S
C1126 H1130 0.950 . S
C1126 C1135 1.390 . S
C1127 C1126 1.387 . S
C1127 C1129 1.387 . S
H1128 C1135 0.950 . S
C1129 C1127 1.387 . S
C1129 C1131 1.390 . S
C1129 H1133 0.950 . S
H1130 C1126 0.950 . S
C1131 C1129 1.390 . S
C1131 C1132 1.387 . S
C1131 H1134 0.950 . S
C1132 C1131 1.387 . S
C1132 C1135 1.387 . S
H1133 C1129 0.950 . S
H1134 C1131 0.950 . S
C1135 C1126 1.390 . S
C1135 H1128 0.950 . S
C1135 C1132 1.387 . S
C1136 C1137 1.387 . S
C1136 H1140 0.950 . S
C1136 C1145 1.390 . S
C1137 C1136 1.387 . S
C1137 C1139 1.387 . S
H1138 C1145 0.950 . S
C1139 C1137 1.387 . S
C1139 C1141 1.390 . S
C1139 H1143 0.950 . S
H1140 C1136 0.950 . S
C1141 C1139 1.390 . S
C1141 C1142 1.387 . S
C1141 H1144 0.950 . S
C1142 C1141 1.387 . S
C1142 C1145 1.387 . S
H1143 C1139 0.950 . S
H1144 C1141 0.950 . S
C1145 C1136 1.390 . S
C1145 H1138 0.950 . S
C1145 C1142 1.387 . S
C1146 C1147 1.387 . S
C1146 H1150 0.950 . S
C1146 C1155 1.390 1_554 S
C1147 C1146 1.387 . S
C1147 C1149 1.387 . S
H1148 C1155 0.950 . S
C1149 C1147 1.387 . S
C1149 C1151 1.390 1_554 S
C1149 H1153 0.950 . S
H1150 C1146 0.950 . S
C1151 C1149 1.390 1_556 S
C1151 C1152 1.387 . S
C1151 H1154 0.950 . S
C1152 C1151 1.387 . S
C1152 C1155 1.387 . S
H1153 C1149 0.950 . S
H1154 C1151 0.950 . S
C1155 C1146 1.390 1_556 S
C1155 H1148 0.950 . S
C1155 C1152 1.387 . S
C1156 C1157 1.387 . S
C1156 H1160 0.950 . S
C1156 C1165 1.390 . S
C1157 C1156 1.387 . S
C1157 C1159 1.387 . S
H1158 C1165 0.950 . S
C1159 C1157 1.387 . S
C1159 C1161 1.390 . S
C1159 H1163 0.950 . S
H1160 C1156 0.950 . S
C1161 C1159 1.390 . S
C1161 C1162 1.387 . S
C1161 H1164 0.950 . S
C1162 C1161 1.387 . S
C1162 C1165 1.387 . S
H1163 C1159 0.950 . S
H1164 C1161 0.950 . S
C1165 C1156 1.390 . S
C1165 H1158 0.950 . S
C1165 C1162 1.387 . S
C1166 C1167 1.387 . S
C1166 H1170 0.950 . S
C1166 C1175 1.390 . S
C1167 C1166 1.387 . S
C1167 C1169 1.387 . S
H1168 C1175 0.950 . S
C1169 C1167 1.387 . S
C1169 C1171 1.390 . S
C1169 H1173 0.950 . S
H1170 C1166 0.950 . S
C1171 C1169 1.390 . S
C1171 C1172 1.387 . S
C1171 H1174 0.950 . S
C1172 C1171 1.387 . S
C1172 C1175 1.387 . S
H1173 C1169 0.950 . S
H1174 C1171 0.950 . S
C1175 C1166 1.390 . S
C1175 H1168 0.950 . S
C1175 C1172 1.387 . S
C1176 C1177 1.387 . S
C1176 H1180 0.950 . S
C1176 C1185 1.390 . S
C1177 C1176 1.387 . S
C1177 C1179 1.387 . S
H1178 C1185 0.950 . S
C1179 C1177 1.387 . S
C1179 C1181 1.390 . S
C1179 H1183 0.950 . S
H1180 C1176 0.950 . S
C1181 C1179 1.390 . S
C1181 C1182 1.387 . S
C1181 H1184 0.950 . S
C1182 C1181 1.387 . S
C1182 C1185 1.387 . S
H1183 C1179 0.950 . S
H1184 C1181 0.950 . S
C1185 C1176 1.390 . S
C1185 H1178 0.950 . S
C1185 C1182 1.387 . S
C1186 C1187 1.387 . S
C1186 H1190 0.950 . S
C1186 C1195 1.390 . S
C1187 C1186 1.387 . S
C1187 C1189 1.387 1_455 S
H1188 C1195 0.950 . S
C1189 C1187 1.387 1_655 S
C1189 C1191 1.390 . S
C1189 H1193 0.950 . S
H1190 C1186 0.950 . S
C1191 C1189 1.390 . S
C1191 C1192 1.387 . S
C1191 H1194 0.950 . S
C1192 C1191 1.387 . S
C1192 C1195 1.387 1_655 S
H1193 C1189 0.950 . S
H1194 C1191 0.950 . S
C1195 C1186 1.390 . S
C1195 H1188 0.950 . S
C1195 C1192 1.387 1_455 S
C1196 C1197 1.387 . S
C1196 H1200 0.950 . S
C1196 C1205 1.390 1_545 S
C1197 C1196 1.387 . S
C1197 C1199 1.387 . S
H1198 C1205 0.950 . S
C1199 C1197 1.387 . S
C1199 C1201 1.390 1_545 S
C1199 H1203 0.950 . S
H1200 C1196 0.950 . S
C1201 C1199 1.390 1_565 S
C1201 C1202 1.387 . S
C1201 H1204 0.950 . S
C1202 C1201 1.387 . S
C1202 C1205 1.387 . S
H1203 C1199 0.950 . S
H1204 C1201 0.950 . S
C1205 C1196 1.390 1_565 S
C1205 H1198 0.950 . S
C1205 C1202 1.387 . S
C1206 C1207 1.387 . S
C1206 H1210 0.950 . S
C1206 C1215 1.390 . S
C1207 C1206 1.387 . S
C1207 C1209 1.387 . S
H1208 C1215 0.950 . S
C1209 C1207 1.387 . S
C1209 C1211 1.390 . S
C1209 H1213 0.950 . S
H1210 C1206 0.950 . S
C1211 C1209 1.390 . S
C1211 C1212 1.387 . S
C1211 H1214 0.950 . S
C1212 C1211 1.387 . S
C1212 C1215 1.387 . S
H1213 C1209 0.950 . S
H1214 C1211 0.950 . S
C1215 C1206 1.390 . S
C1215 H1208 0.950 . S
C1215 C1212 1.387 . S
C1216 C1217 1.387 . S
C1216 H1220 0.950 . S
C1216 C1225 1.390 1_655 S
C1217 C1216 1.387 . S
C1217 C1219 1.387 . S
H1218 C1225 0.950 . S
C1219 C1217 1.387 . S
C1219 C1221 1.390 1_655 S
C1219 H1223 0.950 . S
H1220 C1216 0.950 . S
C1221 C1219 1.390 1_455 S
C1221 C1222 1.387 . S
C1221 H1224 0.950 . S
C1222 C1221 1.387 . S
C1222 C1225 1.387 . S
H1223 C1219 0.950 . S
H1224 C1221 0.950 . S
C1225 C1216 1.390 1_455 S
C1225 H1218 0.950 . S
C1225 C1222 1.387 . S
C1226 C1227 1.387 . S
C1226 H1230 0.950 . S
C1226 C1235 1.390 1_545 S
C1227 C1226 1.387 . S
C1227 C1229 1.387 . S
H1228 C1235 0.950 . S
C1229 C1227 1.387 . S
C1229 C1231 1.390 1_545 S
C1229 H1233 0.950 . S
H1230 C1226 0.950 . S
C1231 C1229 1.390 1_565 S
C1231 C1232 1.387 . S
C1231 H1234 0.950 . S
C1232 C1231 1.387 . S
C1232 C1235 1.387 . S
H1233 C1229 0.950 . S
H1234 C1231 0.950 . S
C1235 C1226 1.390 1_565 S
C1235 H1228 0.950 . S
C1235 C1232 1.387 . S
C1236 C1237 1.387 . S
C1236 H1240 0.950 . S
C1236 C1245 1.390 . S
C1237 C1236 1.387 . S
C1237 C1239 1.387 . S
H1238 C1245 0.950 . S
C1239 C1237 1.387 . S
C1239 C1241 1.390 . S
C1239 H1243 0.958 . S
H1240 C1236 0.950 . S
C1241 C1239 1.390 . S
C1241 C1242 1.387 . S
C1241 H1244 0.958 . S
C1242 C1241 1.387 . S
C1242 C1245 1.387 . S
H1243 C1239 0.958 . S
H1244 C1241 0.958 . S
C1245 C1236 1.390 . S
C1245 H1238 0.950 . S
C1245 C1242 1.387 . S
C1246 C1247 1.387 . S
C1246 H1250 0.950 . S
C1246 C1255 1.390 1_455 S
C1247 C1246 1.387 . S
C1247 C1249 1.387 . S
H1248 C1255 0.950 . S
C1249 C1247 1.387 . S
C1249 C1251 1.390 1_455 S
C1249 H1253 0.950 . S
H1250 C1246 0.950 . S
C1251 C1249 1.390 1_655 S
C1251 C1252 1.387 . S
C1251 H1254 0.950 . S
C1252 C1251 1.387 . S
C1252 C1255 1.387 . S
H1253 C1249 0.950 . S
H1254 C1251 0.950 . S
C1255 C1246 1.390 1_655 S
C1255 H1248 0.950 . S
C1255 C1252 1.387 . S
C1256 C1257 1.387 . S
C1256 H1260 0.950 . S
C1256 C1265 1.390 1_565 S
C1257 C1256 1.387 . S
C1257 C1259 1.387 . S
H1258 C1265 0.950 . S
C1259 C1257 1.387 . S
C1259 C1261 1.390 1_565 S
C1259 H1263 0.950 . S
H1260 C1256 0.950 . S
C1261 C1259 1.390 1_545 S
C1261 C1262 1.387 . S
C1261 H1264 0.950 . S
C1262 C1261 1.387 . S
C1262 C1265 1.387 . S
H1263 C1259 0.950 . S
H1264 C1261 0.950 . S
C1265 C1256 1.390 1_545 S
C1265 H1258 0.950 . S
C1265 C1262 1.387 . S
C1266 C1267 1.387 . S
C1266 H1270 0.950 . S
C1266 C1275 1.390 . S
C1267 C1266 1.387 . S
C1267 C1269 1.387 . S
H1268 C1275 0.950 . S
C1269 C1267 1.387 . S
C1269 C1271 1.390 . S
C1269 H1273 0.950 . S
H1270 C1266 0.950 . S
C1271 C1269 1.390 . S
C1271 C1272 1.387 . S
C1271 H1274 0.950 . S
C1272 C1271 1.387 . S
C1272 C1275 1.387 . S
H1273 C1269 0.950 . S
H1274 C1271 0.950 . S
C1275 C1266 1.390 . S
C1275 H1268 0.950 . S
C1275 C1272 1.387 . S
C1276 C1277 1.387 . S
C1276 H1280 0.950 . S
C1276 C1285 1.390 1_655 S
C1277 C1276 1.387 . S
C1277 C1279 1.387 . S
H1278 C1285 0.950 . S
C1279 C1277 1.387 . S
C1279 C1281 1.390 1_655 S
C1279 H1283 0.957 . S
H1280 C1276 0.950 . S
C1281 C1279 1.390 1_455 S
C1281 C1282 1.387 . S
C1281 H1284 0.957 . S
C1282 C1281 1.387 . S
C1282 C1285 1.387 . S
H1283 C1279 0.957 . S
H1284 C1281 0.957 . S
C1285 C1276 1.390 1_455 S
C1285 H1278 0.950 . S
C1285 C1282 1.387 . S
C1286 C1287 1.387 . S
C1286 H1290 0.950 . S
C1286 C1295 1.390 1_545 S
C1287 C1286 1.387 . S
C1287 C1289 1.387 . S
H1288 C1295 0.950 . S
C1289 C1287 1.387 . S
C1289 C1291 1.390 1_545 S
C1289 H1293 0.950 . S
H1290 C1286 0.950 . S
C1291 C1289 1.390 1_565 S
C1291 C1292 1.387 . S
C1291 H1294 0.950 . S
C1292 C1291 1.387 . S
C1292 C1295 1.387 . S
H1293 C1289 0.950 . S
H1294 C1291 0.950 . S
C1295 C1286 1.390 1_565 S
C1295 H1288 0.950 . S
C1295 C1292 1.387 . S
C1057 C29 1.784 . S
C1062 C841 1.784 . S
C1067 C108 1.781 . S
C1072 C937 1.781 . S
C1077 C196 1.781 . S
C1082 C1025 1.781 . S
C1087 C284 1.781 . S
C1092 C577 1.781 . S
C1097 C673 1.782 . S
C1102 C381 1.781 . S
C1107 C753 1.784 . S
C1112 C469 1.784 . S
C1117 C929 1.437 . S
C1122 C20 1.437 . S
C1127 C117 1.438 . S
C1132 C1017 1.438 . S
C1137 C205 1.438 . S
C1142 C585 1.439 . S
C1147 C293 1.437 . S
C1152 C665 1.437 . S
C1157 C372 1.438 . S
C1162 C761 1.438 . S
C1167 C460 1.440 . S
C1172 C849 1.441 . S
C1177 C812 1.393 . S
C1182 C57 1.394 . S
C1187 C137 1.393 . S
C1192 C909 1.394 . S
C1197 C225 1.392 . S
C1202 C997 1.392 . S
C1207 C548 1.393 . S
C1212 C313 1.395 . S
C1217 C409 1.398 . S
C1222 C645 1.398 . S
C1227 C724 1.392 . S
C1232 C497 1.392 . S
C1237 C49 1.917 . S
C1242 C321 1.917 . S
C1247 C401 1.917 . S
C1252 C145 1.917 . S
C1257 C233 1.913 . S
C1262 C489 1.913 . S
C1267 C557 1.913 . S
C1272 C821 1.913 . S
C1277 C636 1.917 . S
C1282 C900 1.917 . S
C1287 C988 1.917 . S
C1292 C733 1.917 . S
