# Generated by pormake.
# Topology ulj, (4)-cn, num edge types: 1
# Building blocks:
#     Node 0, Type 0, BuildingBlock: MUDLON_clean_sbu_0, # of connection points: 4
#     Node 1, Type 0, BuildingBlock: MUDLON_clean_sbu_0, # of connection points: 4
#     Node 2, Type 0, BuildingBlock: MUDLON_clean_sbu_0, # of connection points: 4
#     Node 3, Type 0, BuildingBlock: MUDLON_clean_sbu_0, # of connection points: 4
#     Node 4, Type 0, BuildingBlock: MUDLON_clean_sbu_0, # of connection points: 4
#     Node 5, Type 0, BuildingBlock: MUDLON_clean_sbu_0, # of connection points: 4
#     Node 6, Type 0, BuildingBlock: MUDLON_clean_sbu_0, # of connection points: 4
#     Node 7, Type 0, BuildingBlock: MUDLON_clean_sbu_0, # of connection points: 4
#     Node 8, Type 0, BuildingBlock: MUDLON_clean_sbu_0, # of connection points: 4
#     Node 9, Type 0, BuildingBlock: MUDLON_clean_sbu_0, # of connection points: 4
#     Node 10, Type 0, BuildingBlock: MUDLON_clean_sbu_0, # of connection points: 4
#     Node 11, Type 0, BuildingBlock: MUDLON_clean_sbu_0, # of connection points: 4
#     Node 12, Type 0, BuildingBlock: MUDLON_clean_sbu_0, # of connection points: 4
#     Node 13, Type 0, BuildingBlock: MUDLON_clean_sbu_0, # of connection points: 4
#     Node 14, Type 0, BuildingBlock: MUDLON_clean_sbu_0, # of connection points: 4
#     Node 15, Type 0, BuildingBlock: MUDLON_clean_sbu_0, # of connection points: 4
#     Node 16, Type 0, BuildingBlock: MUDLON_clean_sbu_0, # of connection points: 4
#     Node 17, Type 0, BuildingBlock: MUDLON_clean_sbu_0, # of connection points: 4
#     Node 18, Type 0, BuildingBlock: MUDLON_clean_sbu_0, # of connection points: 4
#     Node 19, Type 0, BuildingBlock: MUDLON_clean_sbu_0, # of connection points: 4
#     Node 20, Type 0, BuildingBlock: MUDLON_clean_sbu_0, # of connection points: 4
#     Node 21, Type 0, BuildingBlock: MUDLON_clean_sbu_0, # of connection points: 4
#     Node 22, Type 0, BuildingBlock: MUDLON_clean_sbu_0, # of connection points: 4
#     Node 23, Type 0, BuildingBlock: MUDLON_clean_sbu_0, # of connection points: 4
#     Node 24, Type 0, BuildingBlock: MUDLON_clean_sbu_0, # of connection points: 4
#     Node 25, Type 0, BuildingBlock: MUDLON_clean_sbu_0, # of connection points: 4
#     Node 26, Type 0, BuildingBlock: MUDLON_clean_sbu_0, # of connection points: 4
#     Node 27, Type 0, BuildingBlock: MUDLON_clean_sbu_0, # of connection points: 4
#     Node 28, Type 0, BuildingBlock: MUDLON_clean_sbu_0, # of connection points: 4
#     Node 29, Type 0, BuildingBlock: MUDLON_clean_sbu_0, # of connection points: 4
#     Node 30, Type 0, BuildingBlock: MUDLON_clean_sbu_0, # of connection points: 4
#     Node 31, Type 0, BuildingBlock: MUDLON_clean_sbu_0, # of connection points: 4
#     Node 32, Type 0, BuildingBlock: MUDLON_clean_sbu_0, # of connection points: 4
#     Node 33, Type 0, BuildingBlock: MUDLON_clean_sbu_0, # of connection points: 4
#     Node 34, Type 0, BuildingBlock: MUDLON_clean_sbu_0, # of connection points: 4
#     Node 35, Type 0, BuildingBlock: MUDLON_clean_sbu_0, # of connection points: 4
#     Node 36, Type 0, BuildingBlock: MUDLON_clean_sbu_0, # of connection points: 4
#     Node 37, Type 0, BuildingBlock: MUDLON_clean_sbu_0, # of connection points: 4
#     Node 38, Type 0, BuildingBlock: MUDLON_clean_sbu_0, # of connection points: 4
#     Node 39, Type 0, BuildingBlock: MUDLON_clean_sbu_0, # of connection points: 4
#     Node 40, Type 0, BuildingBlock: MUDLON_clean_sbu_0, # of connection points: 4
#     Node 41, Type 0, BuildingBlock: MUDLON_clean_sbu_0, # of connection points: 4
#     Node 42, Type 0, BuildingBlock: MUDLON_clean_sbu_0, # of connection points: 4
#     Node 43, Type 0, BuildingBlock: MUDLON_clean_sbu_0, # of connection points: 4
#     Node 44, Type 0, BuildingBlock: MUDLON_clean_sbu_0, # of connection points: 4
#     Node 45, Type 0, BuildingBlock: MUDLON_clean_sbu_0, # of connection points: 4
#     Node 46, Type 0, BuildingBlock: MUDLON_clean_sbu_0, # of connection points: 4
#     Node 47, Type 0, BuildingBlock: MUDLON_clean_sbu_0, # of connection points: 4
#     Edge 48, Type (0, 0), BuildingBlock: XIVTED_clean_linker_0, # of connection points: 2
#     Edge 49, Type (0, 0), BuildingBlock: XIVTED_clean_linker_0, # of connection points: 2
#     Edge 50, Type (0, 0), BuildingBlock: XIVTED_clean_linker_0, # of connection points: 2
#     Edge 51, Type (0, 0), BuildingBlock: XIVTED_clean_linker_0, # of connection points: 2
#     Edge 52, Type (0, 0), BuildingBlock: XIVTED_clean_linker_0, # of connection points: 2
#     Edge 53, Type (0, 0), BuildingBlock: XIVTED_clean_linker_0, # of connection points: 2
#     Edge 54, Type (0, 0), BuildingBlock: XIVTED_clean_linker_0, # of connection points: 2
#     Edge 55, Type (0, 0), BuildingBlock: XIVTED_clean_linker_0, # of connection points: 2
#     Edge 56, Type (0, 0), BuildingBlock: XIVTED_clean_linker_0, # of connection points: 2
#     Edge 57, Type (0, 0), BuildingBlock: XIVTED_clean_linker_0, # of connection points: 2
#     Edge 58, Type (0, 0), BuildingBlock: XIVTED_clean_linker_0, # of connection points: 2
#     Edge 59, Type (0, 0), BuildingBlock: XIVTED_clean_linker_0, # of connection points: 2
#     Edge 60, Type (0, 0), BuildingBlock: XIVTED_clean_linker_0, # of connection points: 2
#     Edge 61, Type (0, 0), BuildingBlock: XIVTED_clean_linker_0, # of connection points: 2
#     Edge 62, Type (0, 0), BuildingBlock: XIVTED_clean_linker_0, # of connection points: 2
#     Edge 63, Type (0, 0), BuildingBlock: XIVTED_clean_linker_0, # of connection points: 2
#     Edge 64, Type (0, 0), BuildingBlock: XIVTED_clean_linker_0, # of connection points: 2
#     Edge 65, Type (0, 0), BuildingBlock: XIVTED_clean_linker_0, # of connection points: 2
#     Edge 66, Type (0, 0), BuildingBlock: XIVTED_clean_linker_0, # of connection points: 2
#     Edge 67, Type (0, 0), BuildingBlock: XIVTED_clean_linker_0, # of connection points: 2
#     Edge 68, Type (0, 0), BuildingBlock: XIVTED_clean_linker_0, # of connection points: 2
#     Edge 69, Type (0, 0), BuildingBlock: XIVTED_clean_linker_0, # of connection points: 2
#     Edge 70, Type (0, 0), BuildingBlock: XIVTED_clean_linker_0, # of connection points: 2
#     Edge 71, Type (0, 0), BuildingBlock: XIVTED_clean_linker_0, # of connection points: 2
#     Edge 72, Type (0, 0), BuildingBlock: XIVTED_clean_linker_0, # of connection points: 2
#     Edge 73, Type (0, 0), BuildingBlock: XIVTED_clean_linker_0, # of connection points: 2
#     Edge 74, Type (0, 0), BuildingBlock: XIVTED_clean_linker_0, # of connection points: 2
#     Edge 75, Type (0, 0), BuildingBlock: XIVTED_clean_linker_0, # of connection points: 2
#     Edge 76, Type (0, 0), BuildingBlock: XIVTED_clean_linker_0, # of connection points: 2
#     Edge 77, Type (0, 0), BuildingBlock: XIVTED_clean_linker_0, # of connection points: 2
#     Edge 78, Type (0, 0), BuildingBlock: XIVTED_clean_linker_0, # of connection points: 2
#     Edge 79, Type (0, 0), BuildingBlock: XIVTED_clean_linker_0, # of connection points: 2
#     Edge 80, Type (0, 0), BuildingBlock: XIVTED_clean_linker_0, # of connection points: 2
#     Edge 81, Type (0, 0), BuildingBlock: XIVTED_clean_linker_0, # of connection points: 2
#     Edge 82, Type (0, 0), BuildingBlock: XIVTED_clean_linker_0, # of connection points: 2
#     Edge 83, Type (0, 0), BuildingBlock: XIVTED_clean_linker_0, # of connection points: 2
#     Edge 84, Type (0, 0), BuildingBlock: XIVTED_clean_linker_0, # of connection points: 2
#     Edge 85, Type (0, 0), BuildingBlock: XIVTED_clean_linker_0, # of connection points: 2
#     Edge 86, Type (0, 0), BuildingBlock: XIVTED_clean_linker_0, # of connection points: 2
#     Edge 87, Type (0, 0), BuildingBlock: XIVTED_clean_linker_0, # of connection points: 2
#     Edge 88, Type (0, 0), BuildingBlock: XIVTED_clean_linker_0, # of connection points: 2
#     Edge 89, Type (0, 0), BuildingBlock: XIVTED_clean_linker_0, # of connection points: 2
#     Edge 90, Type (0, 0), BuildingBlock: XIVTED_clean_linker_0, # of connection points: 2
#     Edge 91, Type (0, 0), BuildingBlock: XIVTED_clean_linker_0, # of connection points: 2
#     Edge 92, Type (0, 0), BuildingBlock: XIVTED_clean_linker_0, # of connection points: 2
#     Edge 93, Type (0, 0), BuildingBlock: XIVTED_clean_linker_0, # of connection points: 2
#     Edge 94, Type (0, 0), BuildingBlock: XIVTED_clean_linker_0, # of connection points: 2
#     Edge 95, Type (0, 0), BuildingBlock: XIVTED_clean_linker_0, # of connection points: 2
#     Edge 96, Type (0, 0), BuildingBlock: XIVTED_clean_linker_0, # of connection points: 2
#     Edge 97, Type (0, 0), BuildingBlock: XIVTED_clean_linker_0, # of connection points: 2
#     Edge 98, Type (0, 0), BuildingBlock: XIVTED_clean_linker_0, # of connection points: 2
#     Edge 99, Type (0, 0), BuildingBlock: XIVTED_clean_linker_0, # of connection points: 2
#     Edge 100, Type (0, 0), BuildingBlock: XIVTED_clean_linker_0, # of connection points: 2
#     Edge 101, Type (0, 0), BuildingBlock: XIVTED_clean_linker_0, # of connection points: 2
#     Edge 102, Type (0, 0), BuildingBlock: XIVTED_clean_linker_0, # of connection points: 2
#     Edge 103, Type (0, 0), BuildingBlock: XIVTED_clean_linker_0, # of connection points: 2
#     Edge 104, Type (0, 0), BuildingBlock: XIVTED_clean_linker_0, # of connection points: 2
#     Edge 105, Type (0, 0), BuildingBlock: XIVTED_clean_linker_0, # of connection points: 2
#     Edge 106, Type (0, 0), BuildingBlock: XIVTED_clean_linker_0, # of connection points: 2
#     Edge 107, Type (0, 0), BuildingBlock: XIVTED_clean_linker_0, # of connection points: 2
#     Edge 108, Type (0, 0), BuildingBlock: XIVTED_clean_linker_0, # of connection points: 2
#     Edge 109, Type (0, 0), BuildingBlock: XIVTED_clean_linker_0, # of connection points: 2
#     Edge 110, Type (0, 0), BuildingBlock: XIVTED_clean_linker_0, # of connection points: 2
#     Edge 111, Type (0, 0), BuildingBlock: XIVTED_clean_linker_0, # of connection points: 2
#     Edge 112, Type (0, 0), BuildingBlock: XIVTED_clean_linker_0, # of connection points: 2
#     Edge 113, Type (0, 0), BuildingBlock: XIVTED_clean_linker_0, # of connection points: 2
#     Edge 114, Type (0, 0), BuildingBlock: XIVTED_clean_linker_0, # of connection points: 2
#     Edge 115, Type (0, 0), BuildingBlock: XIVTED_clean_linker_0, # of connection points: 2
#     Edge 116, Type (0, 0), BuildingBlock: XIVTED_clean_linker_0, # of connection points: 2
#     Edge 117, Type (0, 0), BuildingBlock: XIVTED_clean_linker_0, # of connection points: 2
#     Edge 118, Type (0, 0), BuildingBlock: XIVTED_clean_linker_0, # of connection points: 2
#     Edge 119, Type (0, 0), BuildingBlock: XIVTED_clean_linker_0, # of connection points: 2
#     Edge 120, Type (0, 0), BuildingBlock: XIVTED_clean_linker_0, # of connection points: 2
#     Edge 121, Type (0, 0), BuildingBlock: XIVTED_clean_linker_0, # of connection points: 2
#     Edge 122, Type (0, 0), BuildingBlock: XIVTED_clean_linker_0, # of connection points: 2
#     Edge 123, Type (0, 0), BuildingBlock: XIVTED_clean_linker_0, # of connection points: 2
#     Edge 124, Type (0, 0), BuildingBlock: XIVTED_clean_linker_0, # of connection points: 2
#     Edge 125, Type (0, 0), BuildingBlock: XIVTED_clean_linker_0, # of connection points: 2
#     Edge 126, Type (0, 0), BuildingBlock: XIVTED_clean_linker_0, # of connection points: 2
#     Edge 127, Type (0, 0), BuildingBlock: XIVTED_clean_linker_0, # of connection points: 2
#     Edge 128, Type (0, 0), BuildingBlock: XIVTED_clean_linker_0, # of connection points: 2
#     Edge 129, Type (0, 0), BuildingBlock: XIVTED_clean_linker_0, # of connection points: 2
#     Edge 130, Type (0, 0), BuildingBlock: XIVTED_clean_linker_0, # of connection points: 2
#     Edge 131, Type (0, 0), BuildingBlock: XIVTED_clean_linker_0, # of connection points: 2
#     Edge 132, Type (0, 0), BuildingBlock: XIVTED_clean_linker_0, # of connection points: 2
#     Edge 133, Type (0, 0), BuildingBlock: XIVTED_clean_linker_0, # of connection points: 2
#     Edge 134, Type (0, 0), BuildingBlock: XIVTED_clean_linker_0, # of connection points: 2
#     Edge 135, Type (0, 0), BuildingBlock: XIVTED_clean_linker_0, # of connection points: 2
#     Edge 136, Type (0, 0), BuildingBlock: XIVTED_clean_linker_0, # of connection points: 2
#     Edge 137, Type (0, 0), BuildingBlock: XIVTED_clean_linker_0, # of connection points: 2
#     Edge 138, Type (0, 0), BuildingBlock: XIVTED_clean_linker_0, # of connection points: 2
#     Edge 139, Type (0, 0), BuildingBlock: XIVTED_clean_linker_0, # of connection points: 2
#     Edge 140, Type (0, 0), BuildingBlock: XIVTED_clean_linker_0, # of connection points: 2
#     Edge 141, Type (0, 0), BuildingBlock: XIVTED_clean_linker_0, # of connection points: 2
#     Edge 142, Type (0, 0), BuildingBlock: XIVTED_clean_linker_0, # of connection points: 2
#     Edge 143, Type (0, 0), BuildingBlock: XIVTED_clean_linker_0, # of connection points: 2
# Relax obj value: 0.200
# Max RMSD: 0.250
# Mean RMSD: 0.237
data_MOF--net-ulj--node1-MUDLON_clean_sbu_0--edge1-XIVTED_clean_linker_0
_symmetry_space_group_name_H-M    P1
_symmetry_Int_Tables_number       1
_symmetry_cell_setting            triclinic
loop_
_symmetry_equiv_pos_as_xyz
'x, y, z'
_cell_length_a     66.435576
_cell_length_b     66.427601
_cell_length_c     66.43371
_cell_angle_alpha  89.995834
_cell_angle_beta   89.990207
_cell_angle_gamma 90.009661
loop_
_atom_site_label
_atom_site_type_symbol
_atom_site_fract_x
_atom_site_fract_y
_atom_site_fract_z
_atom_type_partial_charge
Mg0 Mg 0.11658 0.2126 0.31751 0.0
C1 C 0.09227 0.17617 0.32803 0.0
O2 O 0.1106 0.16999 0.33214 0.0
C3 C 0.12905 0.24709 0.29281 0.0
O4 O 0.139 0.24948 0.30973 0.0
C5 C 0.10782 0.22723 0.35992 0.0
O6 O 0.09878 0.20967 0.36082 0.0
O7 O 0.11761 0.23183 0.34411 0.0
O8 O 0.08993 0.19361 0.32044 0.0
O9 O 0.14295 0.19378 0.31282 0.0
C10 C 0.14182 0.1826 0.29731 0.0
O11 O 0.12509 0.18274 0.28676 0.0
O12 O 0.11674 0.23247 0.29144 0.0
Mg13 Mg 0.45716 0.6187 0.93743 0.0
C14 C 0.44624 0.66289 0.9382 0.0
O15 O 0.46561 0.66446 0.94188 0.0
C16 C 0.48015 0.59692 0.96808 0.0
O17 O 0.47477 0.58302 0.95508 0.0
C18 C 0.49599 0.61567 0.91321 0.0
O19 O 0.50193 0.60624 0.92951 0.0
O20 O 0.47779 0.62149 0.91195 0.0
O21 O 0.43847 0.64548 0.93677 0.0
O22 O 0.43769 0.5924 0.93698 0.0
C23 C 0.42443 0.59209 0.9508 0.0
O24 O 0.42233 0.6081 0.96223 0.0
O25 O 0.47471 0.61502 0.96492 0.0
Mg26 Mg 0.87021 0.29901 0.31968 0.0
C27 C 0.8914 0.33572 0.33444 0.0
O28 O 0.87327 0.33845 0.34186 0.0
C29 C 0.86499 0.26321 0.29288 0.0
O30 O 0.85596 0.25699 0.30933 0.0
C31 C 0.85831 0.27027 0.35499 0.0
O32 O 0.83977 0.27134 0.34819 0.0
O33 O 0.8722 0.2801 0.34626 0.0
O34 O 0.89457 0.32053 0.32323 0.0
O35 O 0.84178 0.31462 0.31561 0.0
C36 C 0.84208 0.32886 0.30282 0.0
O37 O 0.85935 0.33377 0.29451 0.0
O38 O 0.87348 0.28038 0.29293 0.0
Mg39 Mg 0.54348 0.88642 0.93909 0.0
C40 C 0.57847 0.86273 0.92422 0.0
O41 O 0.58258 0.8808 0.91729 0.0
C42 C 0.52821 0.87927 0.98213 0.0
O43 O 0.54667 0.87284 0.98515 0.0
C44 C 0.5074 0.89489 0.91258 0.0
O45 O 0.50149 0.90449 0.92884 0.0
O46 O 0.52492 0.88723 0.9122 0.0
O47 O 0.56294 0.86039 0.93519 0.0
O48 O 0.56126 0.9134 0.94448 0.0
C49 C 0.57577 0.91178 0.95688 0.0
O50 O 0.58007 0.89392 0.96419 0.0
O51 O 0.52294 0.88455 0.96452 0.0
Mg52 Mg 0.12181 0.78194 0.18539 0.0
C53 C 0.09834 0.81901 0.17435 0.0
O54 O 0.1164 0.82438 0.16833 0.0
C55 C 0.13167 0.74808 0.21294 0.0
O56 O 0.14114 0.7427 0.19644 0.0
C57 C 0.11146 0.76642 0.14386 0.0
O58 O 0.10371 0.78455 0.14248 0.0
O59 O 0.12092 0.76155 0.15978 0.0
O60 O 0.09611 0.80205 0.18296 0.0
O61 O 0.14946 0.79914 0.18768 0.0
C62 C 0.14997 0.81195 0.2019 0.0
O63 O 0.13376 0.81454 0.21293 0.0
O64 O 0.1211 0.76405 0.21271 0.0
Mg65 Mg 0.03941 0.60909 0.06902 0.0
C66 C 0.05221 0.65275 0.06825 0.0
O67 O 0.03321 0.65512 0.0633 0.0
C68 C 0.02235 0.61505 0.02625 0.0
O69 O 0.04017 0.6226 0.0222 0.0
C70 C 0.00351 0.60331 0.09624 0.0
O71 O 0.9972 0.59311 0.08051 0.0
O72 O 0.0213 0.61035 0.09617 0.0
O73 O 0.05909 0.63504 0.07039 0.0
O74 O 0.05721 0.58193 0.06546 0.0
C75 C 0.07109 0.58261 0.05229 0.0
O76 O 0.07452 0.59972 0.04297 0.0
O77 O 0.01838 0.60942 0.04408 0.0
Mg78 Mg 0.87711 0.71497 0.18091 0.0
C79 C 0.89653 0.67548 0.17044 0.0
O80 O 0.87761 0.67115 0.16666 0.0
C81 C 0.87881 0.7248 0.22504 0.0
O82 O 0.87723 0.70511 0.22613 0.0
C83 C 0.88791 0.73128 0.1397 0.0
O84 O 0.89591 0.71327 0.13802 0.0
O85 O 0.87825 0.7357 0.15563 0.0
O86 O 0.90085 0.69276 0.17745 0.0
O87 O 0.84807 0.70055 0.1846 0.0
C88 C 0.83306 0.71198 0.18767 0.0
O89 O 0.83563 0.73156 0.18647 0.0
O90 O 0.88039 0.73303 0.20786 0.0
Mg91 Mg 0.9629 0.88781 0.06356 0.0
C92 C 0.94669 0.84546 0.06363 0.0
O93 O 0.96434 0.84218 0.05533 0.0
C94 C 0.97189 0.88568 0.01919 0.0
O95 O 0.95215 0.88659 0.01842 0.0
C96 C 0.98031 0.87693 0.10418 0.0
O97 O 0.96255 0.86844 0.10607 0.0
O98 O 0.98416 0.88702 0.08837 0.0
O99 O 0.9416 0.86342 0.06777 0.0
O100 O 0.94799 0.91662 0.06013 0.0
C101 C 0.92903 0.91846 0.0583 0.0
O102 O 0.91749 0.90257 0.06063 0.0
O103 O 0.98045 0.88472 0.03625 0.0
Mg104 Mg 0.30723 0.12855 0.21871 0.0
C105 C 0.32186 0.102 0.18506 0.0
O106 O 0.32884 0.11951 0.17906 0.0
C107 C 0.26256 0.1239 0.22996 0.0
O108 O 0.26091 0.1166 0.21166 0.0
C109 C 0.34843 0.12199 0.23773 0.0
O110 O 0.35209 0.11319 0.2204 0.0
O111 O 0.33148 0.13042 0.24051 0.0
O112 O 0.31137 0.10123 0.20107 0.0
O113 O 0.30537 0.15505 0.19969 0.0
C114 C 0.29373 0.15455 0.1845 0.0
O115 O 0.28464 0.13758 0.17999 0.0
O116 O 0.27982 0.12887 0.23653 0.0
Mg117 Mg 0.3738 0.43457 0.04676 0.0
C118 C 0.32976 0.43116 0.05892 0.0
O119 O 0.32717 0.43969 0.04126 0.0
C120 C 0.38151 0.46302 0.01321 0.0
O121 O 0.39145 0.44689 0.00754 0.0
C122 C 0.36682 0.39438 0.02592 0.0
O123 O 0.35481 0.3916 0.04138 0.0
O124 O 0.37724 0.41041 0.02498 0.0
O125 O 0.34756 0.4281 0.06523 0.0
O126 O 0.40009 0.43803 0.06578 0.0
C127 C 0.39949 0.45196 0.0789 0.0
O128 O 0.38289 0.46256 0.08077 0.0
O129 O 0.37154 0.4624 0.02957 0.0
Mg130 Mg 0.67875 0.3647 0.20922 0.0
C131 C 0.66991 0.39455 0.17608 0.0
O132 O 0.66486 0.37786 0.16676 0.0
C133 C 0.71969 0.37357 0.22836 0.0
O134 O 0.72123 0.38634 0.21334 0.0
C135 C 0.63534 0.37088 0.22129 0.0
O136 O 0.63495 0.38009 0.2038 0.0
O137 O 0.65139 0.36203 0.22679 0.0
O138 O 0.6773 0.39344 0.1937 0.0
O139 O 0.68291 0.33973 0.18871 0.0
C140 C 0.69826 0.34011 0.1773 0.0
O141 O 0.70981 0.35617 0.1774 0.0
O142 O 0.70367 0.3633 0.23028 0.0
Mg143 Mg 0.6182 0.0745 0.0486 0.0
C144 C 0.66187 0.07271 0.06169 0.0
O145 O 0.66404 0.06567 0.04334 0.0
C146 C 0.62451 0.03137 0.03352 0.0
O147 O 0.63197 0.02863 0.05163 0.0
C148 C 0.60713 0.10237 0.0144 0.0
O149 O 0.59471 0.08753 0.0103 0.0
O150 O 0.61804 0.10128 0.03007 0.0
O151 O 0.6443 0.07673 0.06808 0.0
O152 O 0.59102 0.0715 0.0663 0.0
C153 C 0.5912 0.05935 0.08107 0.0
O154 O 0.60814 0.05031 0.08581 0.0
O155 O 0.61865 0.04883 0.02838 0.0
Mg156 Mg 0.30937 0.86809 0.29128 0.0
C157 C 0.3227 0.89453 0.32562 0.0
O158 O 0.32911 0.87703 0.33223 0.0
C159 C 0.28112 0.85825 0.25791 0.0
O160 O 0.29773 0.84948 0.25171 0.0
C161 C 0.35016 0.87644 0.27243 0.0
O162 O 0.35295 0.88592 0.28956 0.0
O163 O 0.3338 0.86692 0.26961 0.0
O164 O 0.31304 0.89522 0.30911 0.0
O165 O 0.30784 0.84154 0.31014 0.0
C166 C 0.31359 0.82458 0.30345 0.0
O167 O 0.32209 0.82368 0.28561 0.0
O168 O 0.28147 0.86816 0.27429 0.0
Mg169 Mg 0.12582 0.42907 0.95275 0.0
C170 C 0.16829 0.43133 0.93641 0.0
O171 O 0.17137 0.43998 0.95392 0.0
C172 C 0.12044 0.45605 0.98864 0.0
O173 O 0.11384 0.43893 0.99597 0.0
C174 C 0.11402 0.39454 0.98202 0.0
O175 O 0.09559 0.40154 0.98052 0.0
O176 O 0.12814 0.40287 0.97215 0.0
O177 O 0.1505 0.42623 0.93158 0.0
O178 O 0.09759 0.43117 0.93656 0.0
C179 C 0.09715 0.44361 0.92201 0.0
O180 O 0.11383 0.45299 0.91703 0.0
O181 O 0.1275 0.45638 0.97084 0.0
Mg182 Mg 0.68436 0.64251 0.29045 0.0
C183 C 0.68189 0.59824 0.29938 0.0
O184 O 0.6813 0.59772 0.27962 0.0
C185 C 0.71325 0.66421 0.26502 0.0
O186 O 0.70124 0.67836 0.27186 0.0
C187 C 0.6554 0.6477 0.25502 0.0
O188 O 0.67038 0.6582 0.24753 0.0
O189 O 0.65687 0.64068 0.27276 0.0
O190 O 0.68459 0.61506 0.30809 0.0
O191 O 0.68582 0.66803 0.31079 0.0
C192 C 0.69781 0.66636 0.32561 0.0
O193 O 0.70668 0.64896 0.32873 0.0
O194 O 0.71006 0.6461 0.27039 0.0
Mg195 Mg 0.88346 0.07488 0.956 0.0
C196 C 0.83991 0.07864 0.94362 0.0
O197 O 0.83742 0.07655 0.96313 0.0
C198 C 0.87681 0.04029 0.98652 0.0
O199 O 0.86248 0.05168 0.99399 0.0
C200 C 0.89129 0.09721 0.99492 0.0
O201 O 0.90391 0.08223 0.99762 0.0
O202 O 0.88137 0.09822 0.9786 0.0
O203 O 0.85757 0.07758 0.93636 0.0
O204 O 0.91064 0.07716 0.93826 0.0
C205 C 0.91107 0.06698 0.92207 0.0
O206 O 0.89465 0.05755 0.91635 0.0
O207 O 0.88633 0.04604 0.97095 0.0
Mg208 Mg 0.20008 0.31035 0.12688 0.0
C209 C 0.16423 0.31848 0.09992 0.0
O210 O 0.15561 0.32179 0.1174 0.0
C211 C 0.23487 0.28367 0.1368 0.0
O212 O 0.24061 0.30063 0.1452 0.0
C213 C 0.21653 0.35147 0.11639 0.0
O214 O 0.19904 0.35252 0.10723 0.0
O215 O 0.22052 0.33601 0.12697 0.0
O216 O 0.18241 0.31251 0.09949 0.0
O217 O 0.18061 0.30801 0.15306 0.0
C218 C 0.18713 0.31179 0.17064 0.0
O219 O 0.20545 0.31893 0.17274 0.0
O220 O 0.21833 0.28326 0.12717 0.0
Mg221 Mg 0.21424 0.67509 0.36909 0.0
C222 C 0.17795 0.66849 0.39586 0.0
O223 O 0.1701 0.66272 0.37866 0.0
C224 C 0.2485 0.70027 0.3557 0.0
O225 O 0.2516 0.68342 0.34582 0.0
C226 C 0.2292 0.63424 0.38233 0.0
O227 O 0.21164 0.63431 0.39141 0.0
O228 O 0.23373 0.64884 0.37079 0.0
O229 O 0.19587 0.67523 0.39611 0.0
O230 O 0.19573 0.6768 0.34222 0.0
C231 C 0.18362 0.69161 0.34154 0.0
O232 O 0.18244 0.70362 0.35722 0.0
O233 O 0.23362 0.70131 0.3677 0.0
Mg234 Mg 0.94145 0.54169 0.87026 0.0
C235 C 0.94313 0.55796 0.91295 0.0
O236 O 0.93348 0.54113 0.91681 0.0
C237 C 0.8994 0.52394 0.86634 0.0
O238 O 0.89678 0.53986 0.85492 0.0
C239 C 0.96837 0.50739 0.87994 0.0
O240 O 0.95247 0.50341 0.891 0.0
O241 O 0.96806 0.52279 0.86855 0.0
O242 O 0.94732 0.56234 0.89482 0.0
O243 O 0.93598 0.5583 0.84265 0.0
C244 C 0.9267 0.575 0.84379 0.0
O245 O 0.92186 0.58204 0.86163 0.0
O246 O 0.91608 0.52167 0.87546 0.0
Mg247 Mg 0.79494 0.82416 0.36443 0.0
C248 C 0.82914 0.83262 0.39305 0.0
O249 O 0.83844 0.83574 0.37587 0.0
C250 C 0.77379 0.78451 0.37565 0.0
O251 O 0.78874 0.7825 0.38844 0.0
C252 C 0.78271 0.86763 0.37018 0.0
O253 O 0.79992 0.86804 0.37989 0.0
O254 O 0.77776 0.85172 0.36076 0.0
O255 O 0.81096 0.82663 0.3928 0.0
O256 O 0.81535 0.81691 0.33995 0.0
C257 C 0.82571 0.80101 0.34252 0.0
O258 O 0.82421 0.79141 0.35975 0.0
O259 O 0.77282 0.80019 0.36474 0.0
Mg260 Mg 0.56414 0.46568 0.36127 0.0
C261 C 0.57156 0.44735 0.40357 0.0
O262 O 0.58565 0.46111 0.40535 0.0
C263 C 0.59935 0.49563 0.36793 0.0
O264 O 0.58915 0.50134 0.38386 0.0
C265 C 0.53796 0.49585 0.3812 0.0
O266 O 0.55026 0.49073 0.3958 0.0
O267 O 0.54004 0.48763 0.36404 0.0
O268 O 0.56164 0.44608 0.38729 0.0
O269 O 0.56079 0.44723 0.33456 0.0
C270 C 0.56422 0.42845 0.33586 0.0
O271 O 0.56797 0.42062 0.35362 0.0
O272 O 0.59281 0.48113 0.35728 0.0
Mg273 Mg 0.29617 0.68626 0.63801 0.0
C274 C 0.33218 0.67143 0.61551 0.0
O275 O 0.33718 0.66664 0.63404 0.0
C276 C 0.26156 0.71452 0.6421 0.0
O277 O 0.25432 0.69841 0.651 0.0
C278 C 0.27926 0.64431 0.63163 0.0
O279 O 0.29761 0.64121 0.62498 0.0
O280 O 0.27487 0.66136 0.63915 0.0
O281 O 0.31585 0.68094 0.61254 0.0
O282 O 0.31377 0.69052 0.66519 0.0
C283 C 0.30627 0.68764 0.68255 0.0
O284 O 0.28793 0.68037 0.68401 0.0
O285 O 0.27903 0.71374 0.63432 0.0
Mg286 Mg 0.94051 0.46438 0.6326 0.0
C287 C 0.94034 0.44316 0.59084 0.0
O288 O 0.92662 0.45646 0.58577 0.0
C289 C 0.90803 0.49625 0.62381 0.0
O290 O 0.92236 0.50468 0.61313 0.0
C291 C 0.96889 0.49371 0.61442 0.0
O292 O 0.95877 0.48737 0.59866 0.0
O293 O 0.96446 0.4867 0.63167 0.0
O294 O 0.94725 0.44311 0.60867 0.0
O295 O 0.94032 0.44784 0.66074 0.0
C296 C 0.93388 0.42982 0.66035 0.0
O297 O 0.92927 0.42173 0.6429 0.0
O298 O 0.91123 0.4792 0.63191 0.0
Mg299 Mg 0.06001 0.03742 0.61909 0.0
C300 C 0.04103 0.07053 0.59694 0.0
O301 O 0.03283 0.0715 0.61492 0.0
C302 C 0.10158 0.01924 0.62381 0.0
O303 O 0.10468 0.03645 0.63302 0.0
C304 C 0.03092 0.00425 0.61119 0.0
O305 O 0.04637 0.99856 0.60022 0.0
O306 O 0.03247 0.02011 0.62179 0.0
O307 O 0.05464 0.05743 0.5938 0.0
O308 O 0.06588 0.05478 0.64616 0.0
C309 C 0.07558 0.07123 0.64487 0.0
O310 O 0.08081 0.07788 0.62699 0.0
O311 O 0.08468 0.01615 0.61535 0.0
Mg312 Mg 0.62572 0.71641 0.81553 0.0
C313 C 0.605 0.68256 0.83559 0.0
O314 O 0.62254 0.68306 0.84472 0.0
C315 C 0.61981 0.75273 0.78793 0.0
O316 O 0.61718 0.76209 0.80514 0.0
C317 C 0.63731 0.75072 0.84491 0.0
O318 O 0.6528 0.75334 0.83289 0.0
O319 O 0.62496 0.73656 0.84133 0.0
O320 O 0.60177 0.69483 0.82125 0.0
O321 O 0.65451 0.70124 0.81147 0.0
C322 C 0.65528 0.68321 0.80504 0.0
O323 O 0.63845 0.67314 0.80254 0.0
O324 O 0.62198 0.7337 0.78789 0.0
Mg325 Mg 0.94913 0.12879 0.43984 0.0
C326 C 0.9141 0.15643 0.43286 0.0
O327 O 0.90539 0.13892 0.42994 0.0
C328 C 0.96517 0.13016 0.48234 0.0
O329 O 0.94621 0.13442 0.48603 0.0
C330 C 0.9829 0.11862 0.41093 0.0
O331 O 0.98937 0.10862 0.42673 0.0
O332 O 0.96577 0.1271 0.41174 0.0
O333 O 0.93245 0.15684 0.43833 0.0
O334 O 0.92845 0.10425 0.44601 0.0
C335 C 0.92925 0.08681 0.43822 0.0
O336 O 0.94279 0.08301 0.42432 0.0
O337 O 0.97084 0.12807 0.46421 0.0
Mg338 Mg 0.374 0.7946 0.82607 0.0
C339 C 0.39651 0.8323 0.83583 0.0
O340 O 0.37814 0.83713 0.84134 0.0
C341 C 0.36145 0.76015 0.80184 0.0
O342 O 0.35109 0.75851 0.81862 0.0
C343 C 0.38676 0.77954 0.86726 0.0
O344 O 0.39665 0.79666 0.86704 0.0
O345 O 0.37506 0.7754 0.85267 0.0
O346 O 0.39947 0.81522 0.82767 0.0
O347 O 0.34626 0.81149 0.8223 0.0
C348 C 0.34615 0.82334 0.80725 0.0
O349 O 0.36268 0.82521 0.79654 0.0
O350 O 0.37409 0.77446 0.80028 0.0
Mg351 Mg 0.03939 0.385 0.43909 0.0
C352 C 0.05226 0.34123 0.43833 0.0
O353 O 0.03366 0.33876 0.4446 0.0
C354 C 0.02374 0.38215 0.48251 0.0
O355 O 0.0428 0.37921 0.48685 0.0
C356 C 0.00364 0.39416 0.41274 0.0
O357 O 0.99851 0.40439 0.42887 0.0
O358 O 0.02071 0.38554 0.41229 0.0
O359 O 0.05895 0.359 0.43593 0.0
O360 O 0.05692 0.41229 0.44328 0.0
C361 C 0.07213 0.4118 0.45492 0.0
O362 O 0.07761 0.39448 0.46275 0.0
O363 O 0.01848 0.38373 0.46419 0.0
Mg364 Mg 0.64256 0.27649 0.67777 0.0
C365 C 0.62233 0.31318 0.66182 0.0
O366 O 0.64117 0.31646 0.65676 0.0
C367 C 0.64758 0.24233 0.70582 0.0
O368 O 0.65755 0.23628 0.68985 0.0
C369 C 0.63469 0.2587 0.63633 0.0
O370 O 0.62714 0.27669 0.6332 0.0
O371 O 0.64322 0.25497 0.65306 0.0
O372 O 0.61814 0.29749 0.67196 0.0
O373 O 0.67048 0.29286 0.68234 0.0
C374 C 0.66975 0.30676 0.69549 0.0
O375 O 0.65242 0.31069 0.70419 0.0
O376 O 0.63848 0.25917 0.70516 0.0
Mg377 Mg 0.54998 0.10363 0.5699 0.0
C378 C 0.56995 0.14489 0.56541 0.0
O379 O 0.55433 0.14844 0.55382 0.0
C380 C 0.51964 0.11442 0.53603 0.0
O381 O 0.51362 0.12903 0.5479 0.0
C382 C 0.53007 0.11923 0.60774 0.0
O383 O 0.54721 0.12901 0.60894 0.0
O384 O 0.52742 0.10684 0.59338 0.0
O385 O 0.57208 0.12752 0.57313 0.0
O386 O 0.56465 0.07449 0.5699 0.0
C387 C 0.58335 0.07286 0.56615 0.0
O388 O 0.59441 0.08922 0.56514 0.0
O389 O 0.53433 0.10335 0.54127 0.0
Mg390 Mg 0.38477 0.21467 0.68136 0.0
C391 C 0.40992 0.17772 0.6744 0.0
O392 O 0.39232 0.17125 0.66813 0.0
C393 C 0.37073 0.2494 0.70537 0.0
O394 O 0.361 0.25166 0.68829 0.0
C395 C 0.39646 0.22609 0.63891 0.0
O396 O 0.40313 0.20748 0.63921 0.0
O397 O 0.38706 0.23282 0.65418 0.0
O398 O 0.41116 0.19529 0.68191 0.0
O399 O 0.35745 0.19685 0.68302 0.0
C400 C 0.35612 0.18503 0.69802 0.0
O401 O 0.37147 0.18365 0.71042 0.0
O402 O 0.38311 0.23489 0.70701 0.0
Mg403 Mg 0.47587 0.37402 0.5529 0.0
C404 C 0.46292 0.33013 0.55567 0.0
O405 O 0.48216 0.32697 0.55238 0.0
C406 C 0.50711 0.38975 0.5258 0.0
O407 O 0.50979 0.39988 0.54257 0.0
C408 C 0.51367 0.36404 0.57433 0.0
O409 O 0.51715 0.35721 0.55611 0.0
O410 O 0.49688 0.37244 0.57807 0.0
O411 O 0.45625 0.34806 0.55536 0.0
O412 O 0.4569 0.40056 0.55235 0.0
C413 C 0.46256 0.41777 0.55843 0.0
O414 O 0.48 0.41952 0.56759 0.0
O415 O 0.49336 0.3764 0.52522 0.0
Mg416 Mg 0.81158 0.63559 0.70446 0.0
C417 C 0.81642 0.59199 0.69128 0.0
O418 O 0.81322 0.58876 0.71053 0.0
C419 C 0.77665 0.62827 0.73468 0.0
O420 O 0.78751 0.61321 0.74146 0.0
C421 C 0.85125 0.62512 0.7243 0.0
O422 O 0.85474 0.61744 0.70641 0.0
O423 O 0.83477 0.63432 0.72744 0.0
O424 O 0.81534 0.60987 0.68457 0.0
O425 O 0.81292 0.66288 0.68672 0.0
C426 C 0.81462 0.67972 0.69561 0.0
O427 O 0.81798 0.67993 0.71511 0.0
O428 O 0.78273 0.6383 0.71956 0.0
Mg429 Mg 0.86478 0.9422 0.54304 0.0
C430 C 0.82219 0.94344 0.55925 0.0
O431 O 0.81866 0.95021 0.54101 0.0
C432 C 0.86538 0.96915 0.50614 0.0
O433 O 0.86421 0.95161 0.4971 0.0
C434 C 0.87582 0.90964 0.51205 0.0
O435 O 0.89357 0.91835 0.51237 0.0
O436 O 0.8619 0.91629 0.52336 0.0
O437 O 0.84025 0.93993 0.56449 0.0
O438 O 0.89327 0.94243 0.55891 0.0
C439 C 0.8949 0.95423 0.57388 0.0
O440 O 0.87903 0.96451 0.57969 0.0
O441 O 0.86457 0.96981 0.52527 0.0
Mg442 Mg 0.19007 0.87617 0.70958 0.0
C443 C 0.17617 0.90038 0.67404 0.0
O444 O 0.16942 0.88248 0.66903 0.0
C445 C 0.2174 0.86713 0.74376 0.0
O446 O 0.20071 0.85807 0.74926 0.0
C447 C 0.14908 0.8854 0.72767 0.0
O448 O 0.14699 0.89546 0.71078 0.0
O449 O 0.16509 0.87536 0.73063 0.0
O450 O 0.18633 0.90224 0.69016 0.0
O451 O 0.19212 0.8488 0.69208 0.0
C452 C 0.20567 0.84806 0.67859 0.0
O453 O 0.21658 0.86421 0.67515 0.0
O454 O 0.21753 0.87705 0.72736 0.0
Mg455 Mg 0.12731 0.57047 0.54799 0.0
C456 C 0.16852 0.56822 0.56741 0.0
O457 O 0.17274 0.55899 0.55043 0.0
C458 C 0.11752 0.54156 0.51572 0.0
O459 O 0.10812 0.55802 0.51013 0.0
C460 C 0.11927 0.60419 0.51678 0.0
O461 O 0.10014 0.59997 0.5195 0.0
O462 O 0.13257 0.59466 0.52669 0.0
O463 O 0.15048 0.57362 0.57079 0.0
O464 O 0.09771 0.57138 0.56162 0.0
C465 C 0.09552 0.56397 0.57913 0.0
O466 O 0.11155 0.55793 0.58901 0.0
O467 O 0.12813 0.54203 0.53165 0.0
Mg468 Mg 0.81978 0.37065 0.79576 0.0
C469 C 0.82973 0.39805 0.83054 0.0
O470 O 0.83691 0.38102 0.83758 0.0
C471 C 0.79485 0.35756 0.76119 0.0
O472 O 0.81178 0.34785 0.75806 0.0
C473 C 0.86153 0.38114 0.78036 0.0
O474 O 0.86198 0.39152 0.79718 0.0
O475 O 0.84623 0.3703 0.77651 0.0
O476 O 0.82076 0.39801 0.81363 0.0
O477 O 0.81714 0.34394 0.81426 0.0
C478 C 0.80393 0.34386 0.82811 0.0
O479 O 0.79395 0.36051 0.83188 0.0
O480 O 0.79369 0.36948 0.77614 0.0
Mg481 Mg 0.62532 0.92874 0.44869 0.0
C482 C 0.66774 0.93572 0.43229 0.0
O483 O 0.67063 0.9438 0.4501 0.0
C484 C 0.63312 0.95778 0.48411 0.0
O485 O 0.6475 0.94517 0.48911 0.0
C486 C 0.61773 0.90028 0.48331 0.0
O487 O 0.6032 0.91324 0.48677 0.0
O488 O 0.62877 0.90261 0.46786 0.0
O489 O 0.65035 0.92918 0.42772 0.0
O490 O 0.59729 0.92893 0.43207 0.0
C491 C 0.5959 0.94205 0.41821 0.0
O492 O 0.61179 0.95302 0.41389 0.0
O493 O 0.62307 0.95486 0.46809 0.0
Mg494 Mg 0.19482 0.12657 0.78228 0.0
C495 C 0.18139 0.10246 0.81829 0.0
O496 O 0.17528 0.12043 0.82383 0.0
C497 C 0.22434 0.13598 0.74998 0.0
O498 O 0.20819 0.14537 0.74349 0.0
C499 C 0.15439 0.11714 0.7634 0.0
O500 O 0.15179 0.10801 0.78075 0.0
O501 O 0.17064 0.12676 0.76027 0.0
O502 O 0.19082 0.10058 0.80174 0.0
O503 O 0.19609 0.15414 0.79962 0.0
C504 C 0.20965 0.15507 0.81308 0.0
O505 O 0.22082 0.13909 0.81645 0.0
O506 O 0.22317 0.12569 0.76609 0.0
Mg507 Mg 0.38613 0.56677 0.46291 0.0
C508 C 0.3422 0.56476 0.45002 0.0
O509 O 0.3397 0.55937 0.46889 0.0
C510 C 0.40684 0.53894 0.48953 0.0
O511 O 0.41787 0.55537 0.48948 0.0
C512 C 0.37799 0.58519 0.50296 0.0
O513 O 0.37446 0.56609 0.50662 0.0
O514 O 0.38323 0.5905 0.48534 0.0
O515 O 0.35992 0.56782 0.44349 0.0
O516 O 0.41308 0.56985 0.44485 0.0
C517 C 0.41318 0.56221 0.4273 0.0
O518 O 0.39633 0.55487 0.41999 0.0
O519 O 0.3909 0.5386 0.4789 0.0
Mg520 Mg 0.70422 0.81958 0.62956 0.0
C521 C 0.66967 0.82505 0.60107 0.0
O522 O 0.66039 0.8272 0.6184 0.0
C523 C 0.74051 0.79826 0.64378 0.0
O524 O 0.74034 0.81456 0.65498 0.0
C525 C 0.71458 0.86332 0.62235 0.0
O526 O 0.69738 0.86253 0.61264 0.0
O527 O 0.72028 0.84799 0.63231 0.0
O528 O 0.68828 0.82058 0.60105 0.0
O529 O 0.68324 0.81241 0.65359 0.0
C530 C 0.68121 0.82186 0.67009 0.0
O531 O 0.69191 0.83818 0.67333 0.0
O532 O 0.72686 0.79606 0.63054 0.0
Mg533 Mg 0.70131 0.18934 0.8795 0.0
C534 C 0.66363 0.18041 0.90216 0.0
O535 O 0.65882 0.17389 0.88412 0.0
C536 C 0.7304 0.21915 0.8637 0.0
O537 O 0.72697 0.20773 0.84793 0.0
C538 C 0.73523 0.15797 0.87383 0.0
O539 O 0.74156 0.17017 0.85964 0.0
O540 O 0.71899 0.16199 0.88313 0.0
O541 O 0.68056 0.18899 0.90464 0.0
O542 O 0.68438 0.19151 0.85169 0.0
C543 C 0.68733 0.18082 0.83612 0.0
O544 O 0.70083 0.16638 0.83669 0.0
O545 O 0.72131 0.21525 0.88009 0.0
Mg546 Mg 0.43496 0.03689 0.38219 0.0
C547 C 0.44717 0.06924 0.41218 0.0
O548 O 0.4507 0.07941 0.39559 0.0
C549 C 0.39548 0.01691 0.37058 0.0
O550 O 0.39453 0.03257 0.35856 0.0
C551 C 0.46321 0.00251 0.38632 0.0
O552 O 0.44766 0.99626 0.39683 0.0
O553 O 0.46215 0.01946 0.37747 0.0
O554 O 0.43959 0.05169 0.41097 0.0
O555 O 0.43022 0.05804 0.35771 0.0
C556 C 0.41798 0.07261 0.35971 0.0
O557 O 0.40912 0.07536 0.37718 0.0
O558 O 0.41019 0.01539 0.38273 0.0
Mg559 Mg 0.29913 0.31456 0.86913 0.0
C560 C 0.33249 0.32622 0.89793 0.0
O561 O 0.34048 0.33307 0.88118 0.0
C562 C 0.26559 0.28644 0.85839 0.0
O563 O 0.25967 0.30282 0.84901 0.0
C564 C 0.28224 0.35616 0.87686 0.0
O565 O 0.30014 0.35852 0.88491 0.0
O566 O 0.27812 0.33965 0.86807 0.0
O567 O 0.31572 0.31704 0.89714 0.0
O568 O 0.31905 0.31255 0.84331 0.0
C569 C 0.31276 0.3172 0.82586 0.0
O570 O 0.2947 0.32502 0.82396 0.0
O571 O 0.28166 0.28701 0.86877 0.0
Mg572 Mg 0.06489 0.96821 0.87456 0.0
C573 C 0.04245 0.93814 0.89786 0.0
O574 O 0.03281 0.93886 0.8806 0.0
C575 C 0.10742 0.98352 0.86812 0.0
O576 O 0.10869 0.96677 0.85769 0.0
C577 C 0.03968 0.00457 0.88181 0.0
O578 O 0.05575 0.00891 0.89249 0.0
O579 O 0.03933 0.98824 0.87184 0.0
O580 O 0.05813 0.94892 0.90004 0.0
O581 O 0.06835 0.95044 0.84746 0.0
C582 C 0.07627 0.93305 0.84838 0.0
O583 O 0.0813 0.92573 0.86606 0.0
O584 O 0.09137 0.98718 0.87788 0.0
Mg585 Mg 0.79645 0.18348 0.13379 0.0
C586 C 0.83372 0.1699 0.11177 0.0
O587 O 0.8381 0.16328 0.12988 0.0
C588 C 0.7611 0.21136 0.1358 0.0
O589 O 0.75293 0.19473 0.14274 0.0
C590 C 0.77869 0.14306 0.12225 0.0
O591 O 0.79606 0.14158 0.11294 0.0
O592 O 0.77526 0.15845 0.13313 0.0
O593 O 0.81747 0.17965 0.10914 0.0
O594 O 0.81243 0.18709 0.16205 0.0
C595 C 0.8257 0.2009 0.16233 0.0
O596 O 0.82949 0.21076 0.1456 0.0
O597 O 0.77935 0.21102 0.13007 0.0
Mg598 Mg 0.43441 0.96192 0.12641 0.0
C599 C 0.45386 0.93055 0.10189 0.0
O600 O 0.4625 0.92863 0.11958 0.0
C601 C 0.39385 0.98035 0.1365 0.0
O602 O 0.39305 0.9645 0.14829 0.0
C603 C 0.46098 0.99759 0.12048 0.0
O604 O 0.44451 0.00354 0.11128 0.0
O605 O 0.46108 0.98052 0.12914 0.0
O606 O 0.43987 0.94349 0.0999 0.0
O607 O 0.43078 0.94307 0.15283 0.0
C608 C 0.42125 0.92653 0.15146 0.0
O609 O 0.41471 0.92069 0.13373 0.0
O610 O 0.40877 0.98236 0.12465 0.0
Mg611 Mg 0.55722 0.54085 0.13386 0.0
C612 C 0.55338 0.54659 0.08942 0.0
O613 O 0.55764 0.52729 0.09025 0.0
C614 C 0.59708 0.52077 0.14395 0.0
O615 O 0.59856 0.53636 0.15603 0.0
C616 C 0.52883 0.50605 0.13121 0.0
O617 O 0.5456 0.49775 0.12481 0.0
O618 O 0.52929 0.52416 0.13744 0.0
O619 O 0.55328 0.55671 0.10563 0.0
O620 O 0.56304 0.56205 0.15808 0.0
C621 C 0.57028 0.57922 0.15368 0.0
O622 O 0.5727 0.58397 0.13464 0.0
O623 O 0.58183 0.51929 0.13248 0.0
H624 H 0.15175 0.29042 0.17187 0.0
H625 H 0.15397 0.27971 0.29182 0.0
H626 H 0.1957 0.31894 0.21031 0.0
H627 H 0.11598 0.24341 0.25359 0.0
H628 H 0.16551 0.29818 0.26233 0.0
H629 H 0.13482 0.27711 0.20177 0.0
C630 C 0.15771 0.29411 0.18659 0.0
C631 C 0.17531 0.30568 0.18856 0.0
C632 C 0.15454 0.28628 0.26037 0.0
C633 C 0.15599 0.29043 0.22283 0.0
C634 C 0.14789 0.27572 0.27723 0.0
C635 C 0.13412 0.25981 0.27518 0.0
C636 C 0.14744 0.28094 0.2412 0.0
C637 C 0.12668 0.25549 0.25587 0.0
C638 C 0.14806 0.28643 0.20365 0.0
C639 C 0.18229 0.30997 0.20803 0.0
N640 N 0.13356 0.26589 0.23959 0.0
N641 N 0.17269 0.30225 0.22437 0.0
H642 H 0.5511 0.52887 0.05241 0.0
H643 H 0.49123 0.62004 0.00079 0.0
H644 H 0.53871 0.58478 0.08313 0.0
H645 H 0.49819 0.56084 0.97489 0.0
H646 H 0.51166 0.60921 0.02967 0.0
H647 H 0.53533 0.54238 0.02221 0.0
C648 C 0.54523 0.54408 0.05276 0.0
C649 C 0.54607 0.55563 0.07041 0.0
C650 C 0.50875 0.59867 0.01759 0.0
C651 C 0.52775 0.57119 0.03582 0.0
C652 C 0.4971 0.60483 0.00113 0.0
C653 C 0.49287 0.59128 0.98547 0.0
C654 C 0.51627 0.57889 0.01826 0.0
C655 C 0.5009 0.57178 0.98666 0.0
C656 C 0.53615 0.55178 0.0355 0.0
C657 C 0.5383 0.5753 0.06989 0.0
N658 N 0.51214 0.56619 0.00274 0.0
N659 N 0.5293 0.58242 0.05292 0.0
H660 H 0.84699 0.22653 0.28784 0.0
H661 H 0.8539 0.23038 0.16777 0.0
H662 H 0.87821 0.27309 0.25494 0.0
H663 H 0.81888 0.18649 0.20051 0.0
H664 H 0.8666 0.24351 0.19962 0.0
H665 H 0.84033 0.20911 0.2562 0.0
C666 C 0.85264 0.23301 0.27398 0.0
C667 C 0.86302 0.25143 0.27405 0.0
C668 C 0.85627 0.2309 0.19986 0.0
C669 C 0.85532 0.23154 0.23769 0.0
C670 C 0.84901 0.22336 0.18165 0.0
C671 C 0.83512 0.20742 0.18145 0.0
C672 C 0.84959 0.2225 0.21806 0.0
C673 C 0.82946 0.19887 0.19993 0.0
C674 C 0.84879 0.22304 0.2559 0.0
C675 C 0.87006 0.259 0.25561 0.0
N676 N 0.83659 0.20663 0.21749 0.0
N677 N 0.86593 0.24911 0.23817 0.0
H678 H 0.49072 0.89658 0.98169 0.0
H679 H 0.48341 0.902 0.10176 0.0
H680 H 0.53467 0.87079 0.022 0.0
H681 H 0.44308 0.93384 0.062 0.0
H682 H 0.49938 0.88646 0.07262 0.0
H683 H 0.47031 0.90626 0.01073 0.0
C684 C 0.49599 0.89273 0.99663 0.0
C685 C 0.51457 0.883 0.99939 0.0
C686 C 0.48694 0.89673 0.07023 0.0
C687 C 0.49125 0.89415 0.03274 0.0
C688 C 0.47777 0.9056 0.0869 0.0
C689 C 0.46199 0.91943 0.08434 0.0
C690 C 0.48036 0.90169 0.05078 0.0
C691 C 0.45527 0.92336 0.06469 0.0
C692 C 0.48433 0.89833 0.01321 0.0
C693 C 0.52055 0.87838 0.01912 0.0
N694 N 0.4646 0.91466 0.04865 0.0
N695 N 0.509 0.88412 0.03502 0.0
H696 H 0.18676 0.67389 0.30429 0.0
H697 H 0.11831 0.75752 0.25089 0.0
H698 H 0.15542 0.72104 0.33618 0.0
H699 H 0.15364 0.71368 0.21844 0.0
H700 H 0.12794 0.74129 0.28247 0.0
H701 H 0.17101 0.68522 0.27296 0.0
C702 C 0.1764 0.68647 0.30475 0.0
C703 C 0.17258 0.69666 0.32286 0.0
C704 C 0.13345 0.73511 0.26843 0.0
C705 C 0.15457 0.70976 0.28707 0.0
C706 C 0.1279 0.74435 0.25037 0.0
C707 C 0.13534 0.73709 0.23199 0.0
C708 C 0.14655 0.71849 0.26812 0.0
C709 C 0.14768 0.71992 0.23227 0.0
C710 C 0.16745 0.69297 0.28685 0.0
C711 C 0.15898 0.71284 0.32255 0.0
N712 N 0.15303 0.71131 0.25004 0.0
N713 N 0.1506 0.71897 0.30494 0.0
H714 H 0.98562 0.59665 0.02934 0.0
H715 H 0.96888 0.5901 0.91031 0.0
H716 H 0.02601 0.62319 0.98586 0.0
H717 H 0.93682 0.5536 0.9535 0.0
H718 H 0.98589 0.60729 0.93803 0.0
H719 H 0.96373 0.58586 0.00191 0.0
C720 C 0.98981 0.60041 0.01404 0.0
C721 C 0.00784 0.61065 0.0099 0.0
C722 C 0.975 0.59564 0.94143 0.0
C723 C 0.98277 0.59826 0.97838 0.0
C724 C 0.96521 0.58585 0.92562 0.0
C725 C 0.95154 0.5702 0.92957 0.0
C726 C 0.97103 0.58983 0.96135 0.0
C727 C 0.94737 0.56543 0.94972 0.0
C728 C 0.97729 0.59419 0.99837 0.0
C729 C 0.01236 0.6152 0.98976 0.0
N730 N 0.95717 0.57511 0.96485 0.0
N731 N 0.99998 0.60884 0.97473 0.0
H732 H 0.87788 0.71256 0.26434 0.0
H733 H 0.83114 0.8156 0.30414 0.0
H734 H 0.8721 0.76549 0.2271 0.0
H735 H 0.84695 0.76584 0.34283 0.0
H736 H 0.8477 0.79841 0.27603 0.0
H737 H 0.86833 0.73259 0.29363 0.0
C738 C 0.87483 0.72845 0.26235 0.0
C739 C 0.87565 0.73731 0.24321 0.0
C740 C 0.84772 0.79137 0.29074 0.0
C741 C 0.86444 0.76034 0.27667 0.0
C742 C 0.83827 0.80118 0.30678 0.0
C743 C 0.83748 0.79207 0.32583 0.0
C744 C 0.8563 0.77226 0.29374 0.0
C745 C 0.84704 0.77339 0.32839 0.0
C746 C 0.86936 0.7399 0.27909 0.0
C747 C 0.87161 0.75801 0.24157 0.0
N748 N 0.85585 0.76403 0.3125 0.0
N749 N 0.86594 0.76877 0.25803 0.0
H750 H 0.00791 0.91588 0.89822 0.0
H751 H 0.01252 0.89247 0.01625 0.0
H752 H 0.05731 0.93407 0.93632 0.0
H753 H 0.95884 0.88658 0.98011 0.0
H754 H 0.03131 0.90212 0.98609 0.0
H755 H 0.99209 0.89959 0.92705 0.0
C756 C 0.01555 0.91631 0.91261 0.0
C757 C 0.03389 0.92656 0.91488 0.0
C758 C 0.01546 0.89853 0.98475 0.0
C759 C 0.01576 0.9079 0.94803 0.0
C760 C 0.00473 0.89292 0.00194 0.0
C761 C 0.984 0.88888 0.00075 0.0
C762 C 0.00544 0.89998 0.9662 0.0
C763 C 0.97474 0.88972 0.98178 0.0
C764 C 0.00646 0.90702 0.92909 0.0
C765 C 0.0431 0.92648 0.9339 0.0
N766 N 0.9855 0.89528 0.96529 0.0
N767 N 0.03387 0.9174 0.94979 0.0
H768 H 0.22302 0.11737 0.22004 0.0
H769 H 0.18036 0.18182 0.31252 0.0
H770 H 0.26058 0.1418 0.26711 0.0
H771 H 0.14328 0.15678 0.2654 0.0
H772 H 0.20958 0.16464 0.298 0.0
H773 H 0.1933 0.12893 0.23833 0.0
C774 C 0.22503 0.12498 0.23431 0.0
C775 C 0.24436 0.12876 0.24193 0.0
C776 C 0.19501 0.16278 0.29095 0.0
C777 C 0.21035 0.14222 0.26293 0.0
C778 C 0.17831 0.17257 0.29926 0.0
C779 C 0.15936 0.17089 0.29007 0.0
C780 C 0.19273 0.15127 0.27333 0.0
C781 C 0.15761 0.15866 0.27292 0.0
C782 C 0.20804 0.13162 0.24476 0.0
C783 C 0.246 0.13865 0.26057 0.0
N784 N 0.17408 0.14945 0.26504 0.0
N785 N 0.22924 0.14518 0.27033 0.0
H786 H 0.42955 0.55434 0.93466 0.0
H787 H 0.36694 0.50066 0.0225 0.0
H788 H 0.39588 0.58658 0.97992 0.0
H789 H 0.40128 0.46861 0.9776 0.0
H790 H 0.37397 0.53216 0.00472 0.0
H791 H 0.41582 0.52272 0.9476 0.0
C792 C 0.41905 0.55481 0.94711 0.0
C793 C 0.41403 0.57314 0.95633 0.0
C794 C 0.37981 0.51821 0.99866 0.0
C795 C 0.39841 0.53698 0.97139 0.0
C796 C 0.37577 0.5002 0.0088 0.0
C797 C 0.38371 0.48198 0.00166 0.0
C798 C 0.3919 0.51798 0.98127 0.0
C799 C 0.395 0.48231 0.98378 0.0
C800 C 0.41126 0.53674 0.95456 0.0
C801 C 0.40032 0.57281 0.97244 0.0
N802 N 0.39889 0.50002 0.97432 0.0
N803 N 0.39316 0.55502 0.97957 0.0
H804 H 0.80304 0.31827 0.31166 0.0
H805 H 0.75693 0.39134 0.22759 0.0
H806 H 0.83814 0.36048 0.27686 0.0
H807 H 0.72194 0.34721 0.26004 0.0
H808 H 0.78607 0.38289 0.24834 0.0
H809 H 0.77243 0.33141 0.29588 0.0
C810 C 0.8043 0.33046 0.3009 0.0
C811 C 0.82321 0.33814 0.29543 0.0
C812 C 0.77198 0.37515 0.25102 0.0
C813 C 0.78828 0.35316 0.27723 0.0
C814 C 0.75531 0.37998 0.23917 0.0
C815 C 0.73699 0.36985 0.24193 0.0
C816 C 0.77037 0.36002 0.26573 0.0
C817 C 0.7358 0.35532 0.25727 0.0
C818 C 0.78683 0.33791 0.29184 0.0
C819 C 0.82392 0.35395 0.28141 0.0
N820 N 0.75229 0.35075 0.26848 0.0
N821 N 0.80675 0.36082 0.2727 0.0
H822 H 0.5693 0.95153 0.94725 0.0
H823 H 0.63552 0.99199 0.03913 0.0
H824 H 0.60543 0.91324 0.98534 0.0
H825 H 0.60489 0.03108 0.99722 0.0
H826 H 0.62634 0.96312 0.01827 0.0
H827 H 0.58384 0.98103 0.96387 0.0
C828 C 0.58045 0.94931 0.95894 0.0
C829 C 0.58601 0.92986 0.96501 0.0
C830 C 0.62177 0.97803 0.01353 0.0
C831 C 0.60259 0.96354 0.98423 0.0
C832 C 0.62702 0.99454 0.02545 0.0
C833 C 0.62084 0.01399 0.02003 0.0
C834 C 0.61012 0.98094 0.99611 0.0
C835 C 0.60991 0.01636 0.00207 0.0
C836 C 0.58873 0.96617 0.96845 0.0
C837 C 0.60056 0.92792 0.98023 0.0
N838 N 0.60474 1.00002 0.99087 0.0
N839 N 0.60819 0.94452 0.98942 0.0
H840 H 0.15552 0.84064 0.23083 0.0
H841 H 0.27546 0.83759 0.22275 0.0
H842 H 0.18769 0.80658 0.1858 0.0
H843 H 0.24315 0.87084 0.2683 0.0
H844 H 0.24349 0.82909 0.20678 0.0
H845 H 0.18735 0.85481 0.24239 0.0
C846 C 0.16927 0.83626 0.22324 0.0
C847 C 0.16894 0.82223 0.20744 0.0
C848 C 0.24339 0.83838 0.22017 0.0
C849 C 0.20553 0.83835 0.22072 0.0
C850 C 0.26165 0.84327 0.22931 0.0
C851 C 0.26199 0.8548 0.24702 0.0
C852 C 0.22528 0.845 0.22882 0.0
C853 C 0.24362 0.86181 0.25474 0.0
C854 C 0.18746 0.84437 0.22987 0.0
C855 C 0.18723 0.81726 0.1981 0.0
N856 N 0.22601 0.85666 0.24568 0.0
N857 N 0.2048 0.82517 0.205 0.0
H858 H 0.13021 0.4947 0.97756 0.0
H859 H 0.06704 0.54422 0.06714 0.0
H860 H 0.10301 0.46048 0.02566 0.0
H861 H 0.09905 0.57874 0.02233 0.0
H862 H 0.0821 0.51348 0.05359 0.0
H863 H 0.12108 0.52576 0.9951 0.0
C864 C 0.12252 0.4937 0.9919 0.0
C865 C 0.11721 0.47494 1.00004 0.0
C866 C 0.08598 0.5278 0.04684 0.0
C867 C 0.10655 0.51044 0.02013 0.0
C868 C 0.07738 0.54537 0.05459 0.0
C869 C 0.08164 0.56408 0.04576 0.0
C870 C 0.09883 0.52893 0.03006 0.0
C871 C 0.09522 0.56464 0.02955 0.0
C872 C 0.11728 0.51145 0.00191 0.0
C873 C 0.10729 0.47458 0.01872 0.0
N874 N 0.10317 0.54733 0.02212 0.0
N875 N 0.10212 0.49205 0.02802 0.0
H876 H 0.79796 0.73222 0.19445 0.0
H877 H 0.7438 0.64013 0.25047 0.0
H878 H 0.82443 0.67303 0.19879 0.0
H879 H 0.72074 0.70084 0.24828 0.0
H880 H 0.77192 0.65059 0.22886 0.0
H881 H 0.76782 0.71957 0.21102 0.0
C882 C 0.79737 0.71649 0.19871 0.0
C883 C 0.81384 0.70372 0.19536 0.0
C884 C 0.76062 0.66155 0.23305 0.0
C885 C 0.77932 0.68912 0.21463 0.0
C886 C 0.74458 0.6556 0.24538 0.0
C887 C 0.72997 0.66966 0.25133 0.0
C888 C 0.76196 0.68168 0.22661 0.0
C889 C 0.7317 0.68949 0.24424 0.0
C890 C 0.78013 0.70927 0.20824 0.0
C891 C 0.81211 0.68343 0.20113 0.0
N892 N 0.7474 0.69489 0.23235 0.0
N893 N 0.79523 0.67679 0.21066 0.0
H894 H 0.91227 0.0203 0.98167 0.0
H895 H 0.88929 0.92987 0.05603 0.0
H896 H 0.85723 0.01896 0.01622 0.0
H897 H 0.94942 0.95023 0.0421 0.0
H898 H 0.87576 0.95997 0.0393 0.0
H899 H 0.92454 0.99148 0.00071 0.0
C900 C 0.90267 0.01385 0.99318 0.0
C901 C 0.88366 0.02207 0.99736 0.0
C902 C 0.89191 0.95787 0.04013 0.0
C903 C 0.89772 0.98898 0.01925 0.0
C904 C 0.89964 0.94073 0.04965 0.0
C905 C 0.92052 0.93749 0.05042 0.0
C906 C 0.90516 0.97157 0.03101 0.0
C907 C 0.93323 0.95207 0.0419 0.0
C908 C 0.90977 0.99749 0.00415 0.0
C909 C 0.87198 0.01311 0.01255 0.0
N910 N 0.92535 0.96832 0.03236 0.0
N911 N 0.87916 0.99693 0.02291 0.0
H912 H 0.26984 0.27928 0.15808 0.0
H913 H 0.26739 0.15905 0.15316 0.0
H914 H 0.22627 0.24539 0.12378 0.0
H915 H 0.30751 0.19287 0.1915 0.0
H916 H 0.25541 0.19055 0.13852 0.0
H917 H 0.28688 0.2479 0.16673 0.0
C918 C 0.26394 0.26526 0.15221 0.0
C919 C 0.24645 0.26497 0.14035 0.0
C920 C 0.26697 0.19108 0.15 0.0
C921 C 0.2659 0.22893 0.15029 0.0
C922 C 0.27386 0.17308 0.15835 0.0
C923 C 0.28833 0.17331 0.17376 0.0
C924 C 0.27456 0.20949 0.15711 0.0
C925 C 0.29623 0.19197 0.17977 0.0
C926 C 0.27369 0.24733 0.15718 0.0
C927 C 0.23961 0.24634 0.13308 0.0
N928 N 0.28911 0.20931 0.17156 0.0
N929 N 0.24926 0.22906 0.1383 0.0
H930 H 0.32307 0.78574 0.29337 0.0
H931 H 0.24525 0.73825 0.37174 0.0
H932 H 0.29113 0.82072 0.33787 0.0
H933 H 0.28021 0.70319 0.32964 0.0
H934 H 0.26411 0.76826 0.36174 0.0
H935 H 0.30996 0.75502 0.30869 0.0
C936 C 0.31349 0.78697 0.30651 0.0
C937 C 0.30802 0.80586 0.3142 0.0
C938 C 0.26778 0.75396 0.35482 0.0
C939 C 0.29277 0.7707 0.33172 0.0
C940 C 0.25701 0.73682 0.36053 0.0
C941 C 0.26101 0.7182 0.35137 0.0
C942 C 0.28259 0.75251 0.33977 0.0
C943 C 0.27648 0.71724 0.337 0.0
C944 C 0.30598 0.7694 0.31525 0.0
C945 C 0.29564 0.80649 0.33134 0.0
N946 N 0.28657 0.73416 0.33153 0.0
N947 N 0.28826 0.78918 0.33938 0.0
H948 H 0.00542 0.51341 0.86255 0.0
H949 H 0.05912 0.43019 0.93109 0.0
H950 H 0.97365 0.47389 0.90322 0.0
H951 H 0.09114 0.4706 0.89151 0.0
H952 H 0.02731 0.44321 0.91795 0.0
H953 H 0.03657 0.4952 0.86989 0.0
C954 C 0.00494 0.50078 0.87286 0.0
C955 C 0.98693 0.49531 0.88244 0.0
C956 C 0.0413 0.4491 0.912 0.0
C957 C 0.02254 0.47447 0.891 0.0
C958 C 0.05948 0.44163 0.91947 0.0
C959 C 0.07784 0.44946 0.91256 0.0
C960 C 0.04147 0.46456 0.89755 0.0
C961 C 0.07736 0.46423 0.89743 0.0
C962 C 0.02274 0.49041 0.87707 0.0
C963 C 0.98721 0.47877 0.89561 0.0
N964 N 0.05949 0.47142 0.89057 0.0
N965 N 0.00474 0.46905 0.89962 0.0
H966 H 0.77374 0.74684 0.39266 0.0
H967 H 0.68782 0.70592 0.31897 0.0
H968 H 0.74089 0.78421 0.35086 0.0
H969 H 0.72336 0.66786 0.35784 0.0
H970 H 0.70332 0.73549 0.33445 0.0
H971 H 0.75185 0.71856 0.38392 0.0
C972 C 0.7618 0.74918 0.38182 0.0
C973 C 0.75933 0.76787 0.3723 0.0
C974 C 0.70755 0.72067 0.33976 0.0
C975 C 0.73426 0.73554 0.36216 0.0
C976 C 0.69864 0.70377 0.33097 0.0
C977 C 0.70449 0.68436 0.33693 0.0
C978 C 0.72244 0.71815 0.35458 0.0
C979 C 0.71855 0.68252 0.3526 0.0
C980 C 0.74931 0.73301 0.37681 0.0
C981 C 0.74351 0.77002 0.35843 0.0
N982 N 0.7272 0.69918 0.36073 0.0
N983 N 0.73171 0.75402 0.35365 0.0
H984 H 0.41906 0.54538 0.39012 0.0
H985 H 0.53357 0.52051 0.41366 0.0
H986 H 0.45137 0.569 0.44131 0.0
H987 H 0.5043 0.50325 0.35829 0.0
H988 H 0.50449 0.54111 0.42227 0.0
H989 H 0.4508 0.53297 0.37629 0.0
C990 C 0.43286 0.54825 0.3983 0.0
C991 C 0.4325 0.55799 0.41706 0.0
C992 C 0.50446 0.53301 0.40813 0.0
C993 C 0.46885 0.54361 0.40141 0.0
C994 C 0.52106 0.52117 0.40322 0.0
C995 C 0.52125 0.50993 0.38535 0.0
C996 C 0.48775 0.53345 0.3952 0.0
C997 C 0.50472 0.51157 0.37229 0.0
C998 C 0.45099 0.54113 0.3904 0.0
C999 C 0.45088 0.56141 0.4269 0.0
N1000 N 0.4885 0.5229 0.37761 0.0
N1001 N 0.46825 0.55398 0.4191 0.0
H1002 H 0.22463 0.72152 0.65891 0.0
H1003 H 0.23501 0.84102 0.65057 0.0
H1004 H 0.27336 0.75156 0.62812 0.0
H1005 H 0.18848 0.811 0.6846 0.0
H1006 H 0.24635 0.80841 0.63801 0.0
H1007 H 0.20843 0.75405 0.66424 0.0
C1008 C 0.23184 0.73493 0.65308 0.0
C1009 C 0.25052 0.73382 0.64327 0.0
C1010 C 0.23354 0.80896 0.64807 0.0
C1011 C 0.23206 0.77117 0.64941 0.0
C1012 C 0.22702 0.82759 0.65523 0.0
C1013 C 0.21092 0.82873 0.66887 0.0
C1014 C 0.22393 0.7913 0.65462 0.0
C1015 C 0.20106 0.81083 0.67425 0.0
C1016 C 0.22257 0.75352 0.65615 0.0
C1017 C 0.25905 0.75171 0.63591 0.0
N1018 N 0.20785 0.79284 0.66727 0.0
N1019 N 0.24985 0.76966 0.6393 0.0
H1020 H 0.05929 0.56881 0.56 0.0
H1021 H 0.99845 0.50408 0.64147 0.0
H1022 H 0.08543 0.54726 0.61546 0.0
H1023 H 0.97776 0.5158 0.58101 0.0
H1024 H 0.02793 0.52534 0.63499 0.0
H1025 H 0.02677 0.55532 0.57057 0.0
C1026 C 0.05815 0.56152 0.57454 0.0
C1027 C 0.0752 0.55891 0.58673 0.0
C1028 C 0.01682 0.52339 0.62323 0.0
C1029 C 0.03801 0.54328 0.59884 0.0
C1030 C 0.99999 0.51129 0.62693 0.0
C1031 C 0.98577 0.50796 0.61167 0.0
C1032 C 0.01933 0.5323 0.6042 0.0
C1033 C 0.98847 0.51773 0.59313 0.0
C1034 C 0.03958 0.55373 0.58053 0.0
C1035 C 0.07274 0.54941 0.60547 0.0
N1036 N 0.00497 0.52935 0.58989 0.0
N1037 N 0.05455 0.54175 0.61087 0.0
H1038 H 0.90371 0.97972 0.60502 0.0
H1039 H 0.02259 0.97039 0.58929 0.0
H1040 H 0.93155 0.93829 0.5634 0.0
H1041 H 0.99469 0.01409 0.62846 0.0
H1042 H 0.98963 0.95541 0.58309 0.0
H1043 H 0.93703 0.98934 0.61716 0.0
C1044 C 0.91681 0.97248 0.59857 0.0
C1045 C 0.91482 0.95833 0.58299 0.0
C1046 C 0.99072 0.96817 0.59319 0.0
C1047 C 0.95307 0.96938 0.59679 0.0
C1048 C 0.00957 0.97673 0.59676 0.0
C1049 C 0.0114 0.99368 0.60925 0.0
C1050 C 0.97353 0.97662 0.60211 0.0
C1051 C 0.99398 0.00113 0.61862 0.0
C1052 C 0.93585 0.97801 0.6055 0.0
C1053 C 0.93236 0.94937 0.57532 0.0
N1054 N 0.97576 0.99266 0.61471 0.0
N1055 N 0.95074 0.95518 0.58217 0.0
H1056 H 0.65983 0.78667 0.66916 0.0
H1057 H 0.62496 0.79351 0.78423 0.0
H1058 H 0.67313 0.83733 0.70764 0.0
H1059 H 0.62446 0.73864 0.74941 0.0
H1060 H 0.63673 0.8118 0.75453 0.0
H1061 H 0.64118 0.77108 0.69668 0.0
C1062 C 0.6587 0.79463 0.68334 0.0
C1063 C 0.66828 0.81328 0.68613 0.0
C1064 C 0.63384 0.7958 0.75335 0.0
C1065 C 0.64686 0.79542 0.71777 0.0
C1066 C 0.62701 0.78534 0.77027 0.0
C1067 C 0.62389 0.76444 0.76938 0.0
C1068 C 0.63746 0.78533 0.73536 0.0
C1069 C 0.62681 0.7547 0.75085 0.0
C1070 C 0.64806 0.78567 0.69907 0.0
C1071 C 0.66614 0.82288 0.70484 0.0
N1072 N 0.63355 0.7652 0.73463 0.0
N1073 N 0.65576 0.81379 0.71999 0.0
H1074 H 0.00317 0.11409 0.48009 0.0
H1075 H 0.0119 0.09938 0.59929 0.0
H1076 H 0.95871 0.1347 0.52278 0.0
H1077 H 0.05117 0.06987 0.55675 0.0
H1078 H 0.99563 0.11702 0.57156 0.0
H1079 H 0.02407 0.10243 0.50808 0.0
C1080 C 0.9979 0.11641 0.49535 0.0
C1081 C 0.97905 0.12523 0.49908 0.0
C1082 C 0.0079 0.1068 0.56827 0.0
C1083 C 0.0029 0.11187 0.53116 0.0
C1084 C 0.01725 0.09673 0.58412 0.0
C1085 C 0.0328 0.08293 0.58034 0.0
C1086 C 0.01408 0.10309 0.54842 0.0
C1087 C 0.03915 0.08027 0.56036 0.0
C1088 C 0.00982 0.10967 0.51131 0.0
C1089 C 0.97304 0.12784 0.51917 0.0
N1090 N 0.02966 0.09014 0.54511 0.0
N1091 N 0.98487 0.12108 0.53442 0.0
H1092 H 0.37669 0.76126 0.76327 0.0
H1093 H 0.29557 0.68262 0.72203 0.0
H1094 H 0.3351 0.72868 0.80113 0.0
H1095 H 0.34134 0.7094 0.68446 0.0
H1096 H 0.3114 0.69783 0.75148 0.0
H1097 H 0.36559 0.741 0.73449 0.0
C1098 C 0.3654 0.74972 0.76559 0.0
C1099 C 0.35669 0.74681 0.78462 0.0
C1100 C 0.31811 0.70024 0.73683 0.0
C1101 C 0.34383 0.72369 0.75177 0.0
C1102 C 0.30906 0.69154 0.71998 0.0
C1103 C 0.31702 0.69486 0.70071 0.0
C1104 C 0.33517 0.71254 0.73441 0.0
C1105 C 0.33461 0.7065 0.69902 0.0
C1106 C 0.35905 0.73817 0.74915 0.0
C1107 C 0.34213 0.73161 0.78673 0.0
N1108 N 0.34297 0.71509 0.71562 0.0
N1109 N 0.33606 0.72077 0.7705 0.0
H1110 H 0.98459 0.39456 0.47846 0.0
H1111 H 0.9708 0.41595 0.59614 0.0
H1112 H 0.02938 0.38044 0.52338 0.0
H1113 H 0.93188 0.44075 0.55038 0.0
H1114 H 0.98914 0.39764 0.57015 0.0
H1115 H 0.96207 0.4062 0.50512 0.0
C1116 C 0.98962 0.39365 0.49394 0.0
C1117 C 0.00903 0.38668 0.49866 0.0
C1118 C 0.97649 0.40695 0.5658 0.0
C1119 C 0.98327 0.40007 0.52924 0.0
C1120 C 0.96595 0.4174 0.58064 0.0
C1121 C 0.94988 0.43013 0.57543 0.0
C1122 C 0.97095 0.40915 0.54554 0.0
C1123 C 0.94425 0.43125 0.55509 0.0
C1124 C 0.97675 0.40038 0.50915 0.0
C1125 C 0.01464 0.38582 0.51901 0.0
N1126 N 0.95487 0.42102 0.54087 0.0
N1127 N 0.00188 0.39257 0.53352 0.0
H1128 H 0.63245 0.2522 0.74303 0.0
H1129 H 0.69304 0.16434 0.79866 0.0
H1130 H 0.66631 0.20623 0.71197 0.0
H1131 H 0.65951 0.21052 0.82977 0.0
H1132 H 0.67989 0.17695 0.76669 0.0
H1133 H 0.63869 0.2347 0.77481 0.0
C1134 C 0.641 0.23831 0.74285 0.0
C1135 C 0.64906 0.23081 0.72483 0.0
C1136 C 0.67525 0.1842 0.78053 0.0
C1137 C 0.65639 0.21076 0.76116 0.0
C1138 C 0.68273 0.17697 0.7988 0.0
C1139 C 0.67757 0.18653 0.81692 0.0
C1140 C 0.66258 0.20115 0.78036 0.0
C1141 C 0.66407 0.20279 0.81617 0.0
C1142 C 0.64459 0.22834 0.76101 0.0
C1143 C 0.65996 0.2127 0.72551 0.0
N1144 N 0.65721 0.2097 0.79819 0.0
N1145 N 0.66345 0.20341 0.74338 0.0
H1146 H 0.45427 0.04769 0.44646 0.0
H1147 H 0.4946 0.13849 0.51342 0.0
H1148 H 0.45771 0.1079 0.42224 0.0
H1149 H 0.51794 0.07799 0.51744 0.0
H1150 H 0.47482 0.1283 0.48373 0.0
H1151 H 0.47075 0.05952 0.47714 0.0
C1152 C 0.45821 0.06346 0.4477 0.0
C1153 C 0.45475 0.07681 0.4317 0.0
C1154 C 0.48433 0.11735 0.49119 0.0
C1155 C 0.47355 0.09039 0.46679 0.0
C1156 C 0.49557 0.12312 0.50807 0.0
C1157 C 0.50802 0.10909 0.5178 0.0
C1158 C 0.4852 0.09733 0.48445 0.0
C1159 C 0.5087 0.08935 0.5103 0.0
C1160 C 0.46773 0.07015 0.46515 0.0
C1161 C 0.46025 0.09709 0.43417 0.0
N1162 N 0.49734 0.08403 0.49419 0.0
N1163 N 0.46941 0.1033 0.45141 0.0
H1164 H 0.3853 0.2472 0.74407 0.0
H1165 H 0.30411 0.32522 0.78638 0.0
H1166 H 0.3443 0.28088 0.70656 0.0
H1167 H 0.34754 0.29495 0.82406 0.0
H1168 H 0.32078 0.31137 0.75671 0.0
H1169 H 0.37381 0.26659 0.77325 0.0
C1170 C 0.37404 0.2588 0.74192 0.0
C1171 C 0.36562 0.26227 0.72286 0.0
C1172 C 0.32681 0.3079 0.77145 0.0
C1173 C 0.35232 0.28443 0.75619 0.0
C1174 C 0.31729 0.31584 0.78842 0.0
C1175 C 0.3243 0.3111 0.80777 0.0
C1176 C 0.34338 0.29497 0.7738 0.0
C1177 C 0.34153 0.29894 0.80945 0.0
C1178 C 0.36748 0.26986 0.75859 0.0
C1179 C 0.35112 0.27754 0.72098 0.0
N1180 N 0.35034 0.29112 0.7927 0.0
N1181 N 0.34482 0.28791 0.73744 0.0
H1182 H 0.54409 0.41666 0.40444 0.0
H1183 H 0.54054 0.41344 0.52435 0.0
H1184 H 0.5844 0.45032 0.44272 0.0
H1185 H 0.50168 0.37763 0.48655 0.0
H1186 H 0.5589 0.42444 0.4946 0.0
H1187 H 0.5307 0.3996 0.43409 0.0
C1188 C 0.55028 0.42033 0.41907 0.0
C1189 C 0.56525 0.43514 0.42111 0.0
C1190 C 0.54648 0.41405 0.49277 0.0
C1191 C 0.54984 0.41569 0.45517 0.0
C1192 C 0.53593 0.40776 0.50977 0.0
C1193 C 0.51938 0.39476 0.50791 0.0
C1194 C 0.54037 0.40744 0.47366 0.0
C1195 C 0.51427 0.38775 0.48866 0.0
C1196 C 0.54261 0.41056 0.436 0.0
C1197 C 0.57279 0.43911 0.44043 0.0
N1198 N 0.5246 0.39435 0.47224 0.0
N1199 N 0.56486 0.4296 0.45672 0.0
H1200 H 0.68972 0.7034 0.79497 0.0
H1201 H 0.75305 0.60714 0.76138 0.0
H1202 H 0.6644 0.64362 0.79784 0.0
H1203 H 0.75972 0.66561 0.73383 0.0
H1204 H 0.72407 0.62005 0.78054 0.0
H1205 H 0.71976 0.68945 0.77885 0.0
C1206 C 0.6906 0.6873 0.7925 0.0
C1207 C 0.67448 0.67466 0.79765 0.0
C1208 C 0.73193 0.62997 0.77025 0.0
C1209 C 0.7088 0.65865 0.77924 0.0
C1210 C 0.74841 0.62264 0.75935 0.0
C1211 C 0.75871 0.63528 0.7459 0.0
C1212 C 0.72609 0.65017 0.76802 0.0
C1213 C 0.75212 0.65527 0.74388 0.0
C1214 C 0.70767 0.67939 0.78316 0.0
C1215 C 0.67643 0.65391 0.79398 0.0
N1216 N 0.73635 0.66212 0.75492 0.0
N1217 N 0.6933 0.64653 0.78499 0.0
H1218 H 0.87513 0.97154 0.46618 0.0
H1219 H 0.90405 0.08836 0.47078 0.0
H1220 H 0.86809 0.00823 0.51936 0.0
H1221 H 0.92527 0.04799 0.42448 0.0
H1222 H 0.88541 0.06057 0.48598 0.0
H1223 H 0.88794 0.00089 0.44808 0.0
C1224 C 0.87602 0.98582 0.47401 0.0
C1225 C 0.87067 0.98737 0.49441 0.0
C1226 C 0.89403 0.05783 0.47242 0.0
C1227 C 0.8854 0.02102 0.47371 0.0
C1228 C 0.90465 0.0737 0.46367 0.0
C1229 C 0.91641 0.07048 0.44639 0.0
C1230 C 0.89503 0.03858 0.46379 0.0
C1231 C 0.91653 0.05114 0.43787 0.0
C1232 C 0.88343 0.00254 0.46366 0.0
C1233 C 0.87215 0.00629 0.5037 0.0
N1234 N 0.90608 0.0359 0.4467 0.0
N1235 N 0.87947 0.02235 0.49331 0.0
H1236 H 0.22162 0.84747 0.77966 0.0
H1237 H 0.34179 0.85068 0.77686 0.0
H1238 H 0.2558 0.87955 0.73464 0.0
H1239 H 0.30774 0.8185 0.8219 0.0
H1240 H 0.31047 0.86419 0.76329 0.0
H1241 H 0.25285 0.83955 0.79726 0.0
C1242 C 0.23568 0.85301 0.77354 0.0
C1243 C 0.23608 0.86405 0.75552 0.0
C1244 C 0.30983 0.85431 0.77625 0.0
C1245 C 0.27199 0.85492 0.77562 0.0
C1246 C 0.32773 0.84658 0.78403 0.0
C1247 C 0.32739 0.83327 0.80045 0.0
C1248 C 0.29138 0.84864 0.78485 0.0
C1249 C 0.30872 0.82863 0.80918 0.0
C1250 C 0.25353 0.84846 0.78363 0.0
C1251 C 0.25476 0.87091 0.74842 0.0
N1252 N 0.29144 0.83616 0.80115 0.0
N1253 N 0.27198 0.86609 0.7584 0.0
H1254 H 0.09642 0.53661 0.48086 0.0
H1255 H 0.1024 0.41636 0.48257 0.0
H1256 H 0.13043 0.50325 0.52505 0.0
H1257 H 0.06424 0.45036 0.44245 0.0
H1258 H 0.11608 0.4479 0.49568 0.0
H1259 H 0.08788 0.50515 0.46411 0.0
C1260 C 0.10224 0.52267 0.48699 0.0
C1261 C 0.11403 0.52258 0.50452 0.0
C1262 C 0.10483 0.44845 0.4839 0.0
C1263 C 0.10418 0.48635 0.48535 0.0
C1264 C 0.09703 0.43044 0.47635 0.0
C1265 C 0.08202 0.43069 0.46147 0.0
C1266 C 0.0976 0.46688 0.47651 0.0
C1267 C 0.0757 0.44941 0.45399 0.0
C1268 C 0.09732 0.50467 0.47739 0.0
C1269 C 0.12123 0.50402 0.51163 0.0
N1270 N 0.08343 0.46673 0.46167 0.0
N1271 N 0.11606 0.48663 0.50209 0.0
H1272 H 0.79267 0.33306 0.72819 0.0
H1273 H 0.67264 0.33789 0.7222 0.0
H1274 H 0.75618 0.37145 0.76584 0.0
H1275 H 0.70896 0.29925 0.68465 0.0
H1276 H 0.70326 0.35274 0.73597 0.0
H1277 H 0.76251 0.32298 0.70982 0.0
C1278 C 0.77833 0.33951 0.7325 0.0
C1279 C 0.77694 0.353 0.74872 0.0
C1280 C 0.70456 0.34112 0.72461 0.0
C1281 C 0.74227 0.3414 0.72775 0.0
C1282 C 0.68707 0.33262 0.71672 0.0
C1283 C 0.68822 0.31715 0.70236 0.0
C1284 C 0.72342 0.33407 0.71821 0.0
C1285 C 0.70735 0.31106 0.69575 0.0
C1286 C 0.7611 0.33373 0.72199 0.0
C1287 C 0.75796 0.36094 0.75352 0.0
N1288 N 0.72419 0.31942 0.70385 0.0
N1289 N 0.74136 0.3549 0.74318 0.0
H1290 H 0.6556 0.97656 0.51338 0.0
H1291 H 0.56226 0.03917 0.55549 0.0
H1292 H 0.59634 0.97552 0.48677 0.0
H1293 H 0.62279 0.06259 0.55914 0.0
H1294 H 0.57511 0.00986 0.53743 0.0
H1295 H 0.64415 0.00316 0.53656 0.0
C1296 C 0.64022 0.9819 0.51244 0.0
C1297 C 0.62694 0.97399 0.49803 0.0
C1298 C 0.58559 0.02133 0.54241 0.0
C1299 C 0.61373 0.00377 0.52467 0.0
C1300 C 0.57831 0.038 0.55285 0.0
C1301 C 0.59145 0.0535 0.55863 0.0
C1302 C 0.60618 0.01997 0.53793 0.0
C1303 C 0.61211 0.05108 0.55477 0.0
C1304 C 0.63374 0.99701 0.52563 0.0
C1305 C 0.60716 0.98136 0.49747 0.0
N1306 N 0.61886 0.03466 0.54454 0.0
N1307 N 0.60113 0.99573 0.51067 0.0
H1308 H 0.31967 0.18821 0.67876 0.0
H1309 H 0.26168 0.1228 0.7618 0.0
H1310 H 0.34907 0.15794 0.72817 0.0
H1311 H 0.23175 0.15704 0.71538 0.0
H1312 H 0.29411 0.1318 0.74692 0.0
H1313 H 0.28767 0.17325 0.68922 0.0
C1314 C 0.31945 0.17826 0.69167 0.0
C1315 C 0.33705 0.17449 0.70272 0.0
C1316 C 0.28044 0.13721 0.73989 0.0
C1317 C 0.30048 0.15738 0.71483 0.0
C1318 C 0.2619 0.13203 0.74836 0.0
C1319 C 0.24396 0.13934 0.73995 0.0
C1320 C 0.28106 0.1498 0.7229 0.0
C1321 C 0.2452 0.1512 0.72249 0.0
C1322 C 0.30116 0.16975 0.69767 0.0
C1323 C 0.33586 0.16142 0.7193 0.0
N1324 N 0.26342 0.15618 0.71464 0.0
N1325 N 0.31788 0.15347 0.72492 0.0
H1326 H 0.42699 0.41958 0.53756 0.0
H1327 H 0.43741 0.5375 0.5168 0.0
H1328 H 0.47263 0.45735 0.56431 0.0
H1329 H 0.39037 0.50089 0.49091 0.0
H1330 H 0.44868 0.50868 0.53638 0.0
H1331 H 0.4114 0.44947 0.52287 0.0
C1332 C 0.4336 0.43418 0.54058 0.0
C1333 C 0.4513 0.43592 0.55204 0.0
C1334 C 0.43583 0.50691 0.52651 0.0
C1335 C 0.43358 0.47019 0.53507 0.0
C1336 C 0.42939 0.52338 0.51525 0.0
C1337 C 0.41301 0.52157 0.50203 0.0
C1338 C 0.42593 0.48836 0.52452 0.0
C1339 C 0.40313 0.50293 0.50084 0.0
C1340 C 0.4247 0.45124 0.53212 0.0
C1341 C 0.45909 0.45524 0.55549 0.0
N1342 N 0.40984 0.48699 0.51183 0.0
N1343 N 0.45029 0.47158 0.54688 0.0
H1344 H 0.81746 0.71839 0.70952 0.0
H1345 H 0.74445 0.76164 0.62488 0.0
H1346 H 0.79843 0.68388 0.65786 0.0
H1347 H 0.76985 0.79774 0.67257 0.0
H1348 H 0.76644 0.73382 0.63483 0.0
H1349 H 0.80283 0.74848 0.69434 0.0
C1350 C 0.81046 0.71719 0.69485 0.0
C1351 C 0.80896 0.69853 0.68508 0.0
C1352 C 0.76736 0.74791 0.64297 0.0
C1353 C 0.79188 0.73289 0.6677 0.0
C1354 C 0.75478 0.7638 0.63731 0.0
C1355 C 0.75512 0.78198 0.64806 0.0
C1356 C 0.78025 0.75018 0.6596 0.0
C1357 C 0.76891 0.78395 0.66396 0.0
C1358 C 0.80207 0.73438 0.68618 0.0
C1359 C 0.79983 0.69792 0.66601 0.0
N1360 N 0.78075 0.76819 0.66937 0.0
N1361 N 0.79138 0.71479 0.65808 0.0
H1362 H 0.81545 0.3056 0.81792 0.0
H1363 H 0.73349 0.25223 0.8884 0.0
H1364 H 0.7773 0.33834 0.85911 0.0
H1365 H 0.75874 0.22551 0.83483 0.0
H1366 H 0.75475 0.282 0.88298 0.0
H1367 H 0.80037 0.27416 0.82959 0.0
C1368 C 0.80414 0.30618 0.82965 0.0
C1369 C 0.79742 0.32466 0.83735 0.0
C1370 C 0.75572 0.26951 0.87255 0.0
C1371 C 0.78004 0.28872 0.85068 0.0
C1372 C 0.74365 0.25253 0.87565 0.0
C1373 C 0.7442 0.2365 0.8619 0.0
C1374 C 0.76857 0.27028 0.85576 0.0
C1375 C 0.75765 0.23765 0.84565 0.0
C1376 C 0.79547 0.28822 0.83623 0.0
C1377 C 0.78276 0.32444 0.85259 0.0
N1378 N 0.76924 0.25426 0.843 0.0
N1379 N 0.77442 0.30675 0.85864 0.0
H1380 H 0.55901 0.92538 0.42659 0.0
H1381 H 0.49928 0.01215 0.36859 0.0
H1382 H 0.58765 0.97068 0.38981 0.0
H1383 H 0.47063 0.96665 0.40511 0.0
H1384 H 0.53138 0.99464 0.37272 0.0
H1385 H 0.52619 0.93759 0.41533 0.0
C1386 C 0.55842 0.93771 0.41594 0.0
C1387 C 0.57612 0.94719 0.40935 0.0
C1388 C 0.51803 0.98838 0.37967 0.0
C1389 C 0.53858 0.96137 0.39653 0.0
C1390 C 0.49969 0.99837 0.3773 0.0
C1391 C 0.48227 0.991 0.38672 0.0
C1392 C 0.51899 0.97093 0.39161 0.0
C1393 C 0.48369 0.97301 0.39773 0.0
C1394 C 0.53966 0.94472 0.40955 0.0
C1395 C 0.57441 0.96304 0.39547 0.0
N1396 N 0.50176 0.96371 0.40003 0.0
N1397 N 0.55599 0.96977 0.3897 0.0
H1398 H 0.27484 0.24925 0.87373 0.0
H1399 H 0.1928 0.19223 0.8065 0.0
H1400 H 0.2318 0.27974 0.83577 0.0
H1401 H 0.23782 0.16196 0.84227 0.0
H1402 H 0.20403 0.22443 0.82037 0.0
H1403 H 0.25869 0.21723 0.86564 0.0
C1404 C 0.26188 0.24925 0.86383 0.0
C1405 C 0.2548 0.2672 0.85525 0.0
C1406 C 0.21133 0.21072 0.82532 0.0
C1407 C 0.23628 0.23055 0.84584 0.0
C1408 C 0.20489 0.19232 0.81744 0.0
C1409 C 0.21453 0.17438 0.82306 0.0
C1410 C 0.22754 0.21119 0.8389 0.0
C1411 C 0.23006 0.17542 0.83735 0.0
C1412 C 0.25268 0.23094 0.8592 0.0
C1413 C 0.23788 0.26627 0.84262 0.0
N1414 N 0.23619 0.19351 0.84464 0.0
N1415 N 0.2293 0.24823 0.83817 0.0
H1416 H 0.00328 0.99939 0.86302 0.0
H1417 H 0.94867 0.08098 0.93191 0.0
H1418 H 0.03462 0.03882 0.9041 0.0
H1419 H 0.91764 0.04305 0.88923 0.0
H1420 H 0.98078 0.06917 0.91844 0.0
H1421 H 0.97238 0.01839 0.86902 0.0
C1422 C 0.00373 0.01218 0.87313 0.0
C1423 C 0.02151 0.01734 0.8833 0.0
C1424 C 0.96694 0.06363 0.91184 0.0
C1425 C 0.98615 0.03908 0.89033 0.0
C1426 C 0.94859 0.0704 0.9195 0.0
C1427 C 0.93042 0.06275 0.91191 0.0
C1428 C 0.96713 0.049 0.89655 0.0
C1429 C 0.93126 0.04918 0.89573 0.0
C1430 C 0.98607 0.02303 0.87655 0.0
C1431 C 0.02122 0.03415 0.8961 0.0
N1432 N 0.9493 0.04254 0.88878 0.0
N1433 N 0.00377 0.04427 0.89943 0.0
H1434 H 0.77431 0.24917 0.12569 0.0
H1435 H 0.67951 0.30334 0.17601 0.0
H1436 H 0.72249 0.21745 0.1488 0.0
H1437 H 0.73181 0.33501 0.15396 0.0
H1438 H 0.6929 0.27217 0.16183 0.0
H1439 H 0.75696 0.28104 0.13166 0.0
C1440 C 0.7592 0.24888 0.13181 0.0
C1441 C 0.74995 0.2306 0.13699 0.0
C1442 C 0.70135 0.28598 0.1599 0.0
C1443 C 0.73004 0.26706 0.14398 0.0
C1444 C 0.69369 0.3038 0.16797 0.0
C1445 C 0.70468 0.32178 0.16641 0.0
C1446 C 0.72018 0.2861 0.15027 0.0
C1447 C 0.7229 0.32148 0.1557 0.0
C1448 C 0.7493 0.2671 0.13524 0.0
C1449 C 0.7303 0.23117 0.14476 0.0
N1450 N 0.73018 0.30389 0.14824 0.0
N1451 N 0.72109 0.2491 0.14821 0.0
H1452 H 0.58584 0.03133 0.11082 0.0
H1453 H 0.46592 0.03407 0.10205 0.0
H1454 H 0.55313 0.07355 0.07379 0.0
H1455 H 0.49868 0.98839 0.13466 0.0
H1456 H 0.49748 0.05177 0.09582 0.0
H1457 H 0.55392 0.01863 0.1239 0.0
C1458 C 0.57197 0.03811 0.1056 0.0
C1459 C 0.57217 0.05337 0.09099 0.0
C1460 C 0.49776 0.03797 0.10449 0.0
C1461 C 0.53555 0.03881 0.10585 0.0
C1462 C 0.47972 0.02784 0.10808 0.0
C1463 C 0.47967 0.00957 0.11869 0.0
C1464 C 0.51593 0.02976 0.11151 0.0
C1465 C 0.49802 0.00234 0.12627 0.0
C1466 C 0.55373 0.0308 0.11306 0.0
C1467 C 0.5537 0.06164 0.0849 0.0
N1468 N 0.51544 0.01236 0.12237 0.0
N1469 N 0.53614 0.05413 0.09222 0.0
H1470 H 0.52273 0.46817 0.11629 0.0
H1471 H 0.40368 0.48253 0.10619 0.0
H1472 H 0.49064 0.52005 0.1387 0.0
H1473 H 0.43688 0.43438 0.07786 0.0
H1474 H 0.43461 0.49374 0.12257 0.0
H1475 H 0.49072 0.45291 0.10676 0.0
C1476 C 0.50894 0.47627 0.11944 0.0
C1477 C 0.50941 0.49555 0.12811 0.0
C1478 C 0.4351 0.48062 0.1129 0.0
C1479 C 0.47265 0.47815 0.11707 0.0
C1480 C 0.41743 0.47418 0.10354 0.0
C1481 C 0.41771 0.45759 0.09044 0.0
C1482 C 0.45323 0.47042 0.10915 0.0
C1483 C 0.43597 0.44733 0.08771 0.0
C1484 C 0.49065 0.46755 0.11393 0.0
C1485 C 0.49102 0.50523 0.13193 0.0
N1486 N 0.45302 0.454 0.09686 0.0
N1487 N 0.4734 0.49651 0.12621 0.0
H1488 H 0.08385 0.22379 0.39328 0.0
H1489 H 0.0886 0.34141 0.41869 0.0
H1490 H 0.12222 0.26596 0.36204 0.0
H1491 H 0.04289 0.30116 0.44137 0.0
H1492 H 0.10543 0.31276 0.40288 0.0
H1493 H 0.07329 0.25075 0.41592 0.0
C1494 C 0.09029 0.23865 0.39133 0.0
C1495 C 0.10377 0.24265 0.37554 0.0
C1496 C 0.09184 0.31018 0.4115 0.0
C1497 C 0.09161 0.27365 0.40141 0.0
C1498 C 0.08223 0.32652 0.4206 0.0
C1499 C 0.06413 0.32374 0.43119 0.0
C1500 C 0.08335 0.29087 0.41304 0.0
C1501 C 0.05668 0.30406 0.43319 0.0
C1502 C 0.08418 0.25406 0.40425 0.0
C1503 C 0.11166 0.2622 0.37388 0.0
N1504 N 0.06622 0.28842 0.42407 0.0
N1505 N 0.10532 0.27701 0.38652 0.0
H1506 H 0.6088 0.65144 0.86204 0.0
H1507 H 0.49058 0.6401 0.88017 0.0
H1508 H 0.56446 0.68359 0.82712 0.0
H1509 H 0.53587 0.60582 0.91172 0.0
H1510 H 0.51685 0.65372 0.85817 0.0
H1511 H 0.58192 0.63221 0.87792 0.0
C1512 C 0.59339 0.65434 0.85757 0.0
C1513 C 0.58887 0.6693 0.84337 0.0
C1514 C 0.52098 0.64304 0.86976 0.0
C1515 C 0.55786 0.64739 0.86169 0.0
C1516 C 0.50598 0.63521 0.88231 0.0
C1517 C 0.51104 0.62195 0.89798 0.0
C1518 C 0.54118 0.6376 0.87295 0.0
C1519 C 0.53126 0.61614 0.89999 0.0
C1520 C 0.57801 0.64333 0.86665 0.0
C1521 C 0.56862 0.67225 0.83805 0.0
N1522 N 0.54556 0.62414 0.88778 0.0
N1523 N 0.55383 0.66156 0.8474 0.0
H1524 H 0.83591 0.23898 0.37027 0.0
H1525 H 0.92911 0.19489 0.43255 0.0
H1526 H 0.89338 0.26869 0.3763 0.0
H1527 H 0.87549 0.16075 0.41904 0.0
H1528 H 0.91344 0.22463 0.41768 0.0
H1529 H 0.84749 0.21284 0.39361 0.0
C1530 C 0.85083 0.24018 0.37672 0.0
C1531 C 0.86379 0.25589 0.37111 0.0
C1532 C 0.90501 0.21068 0.41816 0.0
C1533 C 0.87713 0.22608 0.39773 0.0
C1534 C 0.91394 0.1937 0.42672 0.0
C1535 C 0.90372 0.1752 0.42678 0.0
C1536 C 0.88573 0.2092 0.40958 0.0
C1537 C 0.88402 0.17463 0.41911 0.0
C1538 C 0.85746 0.22523 0.38998 0.0
C1539 C 0.88297 0.25671 0.37997 0.0
N1540 N 0.87575 0.19132 0.41063 0.0
N1541 N 0.8891 0.24194 0.3927 0.0
H1542 H 0.51248 0.86968 0.88023 0.0
H1543 H 0.39506 0.8691 0.85415 0.0
H1544 H 0.46858 0.90824 0.90868 0.0
H1545 H 0.43703 0.82462 0.83219 0.0
H1546 H 0.42303 0.88768 0.86898 0.0
H1547 H 0.48632 0.85733 0.85749 0.0
C1548 C 0.49742 0.87581 0.8815 0.0
C1549 C 0.49267 0.88984 0.8966 0.0
C1550 C 0.42617 0.87398 0.86074 0.0
C1551 C 0.46263 0.87564 0.87065 0.0
C1552 C 0.41019 0.86335 0.85221 0.0
C1553 C 0.41365 0.8451 0.84212 0.0
C1554 C 0.44581 0.86632 0.85924 0.0
C1555 C 0.43363 0.83853 0.83996 0.0
C1556 C 0.48247 0.86867 0.86854 0.0
C1557 C 0.47291 0.89727 0.89743 0.0
N1558 N 0.44893 0.84902 0.84865 0.0
N1559 N 0.45859 0.88994 0.88479 0.0
H1560 H 0.08658 0.77018 0.11123 0.0
H1561 H 0.08976 0.65267 0.08535 0.0
H1562 H 0.12501 0.72746 0.14159 0.0
H1563 H 0.04253 0.69279 0.06578 0.0
H1564 H 0.10738 0.68131 0.10025 0.0
H1565 H 0.07502 0.74334 0.08891 0.0
C1566 C 0.09282 0.75522 0.11304 0.0
C1567 C 0.1066 0.75101 0.1285 0.0
C1568 C 0.09327 0.68387 0.0925 0.0
C1569 C 0.09337 0.72022 0.10298 0.0
C1570 C 0.08322 0.66754 0.08391 0.0
C1571 C 0.06447 0.67028 0.07452 0.0
C1572 C 0.08458 0.70311 0.09163 0.0
C1573 C 0.05682 0.68993 0.07305 0.0
C1574 C 0.08615 0.7399 0.10031 0.0
C1575 C 0.11422 0.73135 0.13002 0.0
N1576 N 0.06682 0.70556 0.08168 0.0
N1577 N 0.10737 0.71665 0.11754 0.0
H1578 H 0.89251 0.63863 0.15242 0.0
H1579 H 0.00987 0.62939 0.12764 0.0
H1580 H 0.93742 0.68049 0.17374 0.0
H1581 H 0.96394 0.59241 0.1003 0.0
H1582 H 0.98434 0.6442 0.14957 0.0
H1583 H 0.91922 0.61779 0.1382 0.0
C1584 C 0.908 0.64334 0.15433 0.0
C1585 C 0.91269 0.6615 0.16407 0.0
C1586 C 0.97989 0.63267 0.13894 0.0
C1587 C 0.94339 0.63768 0.14773 0.0
C1588 C 0.99449 0.62413 0.12645 0.0
C1589 C 0.98901 0.60981 0.11189 0.0
C1590 C 0.95967 0.62686 0.13688 0.0
C1591 C 0.96884 0.60355 0.11114 0.0
C1592 C 0.92325 0.63142 0.14616 0.0
C1593 C 0.93307 0.66672 0.16619 0.0
N1594 N 0.95487 0.61226 0.1233 0.0
N1595 N 0.94765 0.65497 0.15791 0.0
H1596 H 0.91159 0.72811 0.10609 0.0
H1597 H 0.91184 0.84677 0.08573 0.0
H1598 H 0.87522 0.77059 0.1392 0.0
H1599 H 0.95341 0.80514 0.05812 0.0
H1600 H 0.89425 0.81838 0.10114 0.0
H1601 H 0.92289 0.75542 0.08422 0.0
C1602 C 0.90577 0.74313 0.10862 0.0
C1603 C 0.89263 0.74709 0.12469 0.0
C1604 C 0.90709 0.81544 0.09154 0.0
C1605 C 0.90561 0.77848 0.09973 0.0
C1606 C 0.91712 0.83165 0.08268 0.0
C1607 C 0.93429 0.82836 0.07079 0.0
C1608 C 0.91425 0.79578 0.0885 0.0
C1609 C 0.94037 0.80842 0.06732 0.0
C1610 C 0.91228 0.75874 0.09614 0.0
C1611 C 0.88551 0.76685 0.12713 0.0
N1612 N 0.93047 0.79291 0.07628 0.0
N1613 N 0.89224 0.78183 0.11491 0.0
H1614 H 0.97869 0.85184 0.13687 0.0
H1615 H 0.09776 0.8547 0.1538 0.0
H1616 H 0.0191 0.89106 0.10441 0.0
H1617 H 0.05841 0.81075 0.18109 0.0
H1618 H 0.06837 0.872 0.14015 0.0
H1619 H 0.00689 0.8406 0.15762 0.0
C1620 C 0.99343 0.85831 0.13427 0.0
C1621 C 0.99657 0.87223 0.11868 0.0
C1622 C 0.06614 0.85869 0.14929 0.0
C1623 C 0.02895 0.85932 0.14234 0.0
C1624 C 0.08293 0.84881 0.15714 0.0
C1625 C 0.08058 0.83108 0.1684 0.0
C1626 C 0.04682 0.8508 0.1527 0.0
C1627 C 0.06096 0.82427 0.17235 0.0
C1628 C 0.00954 0.85183 0.1461 0.0
C1629 C 0.016 0.88015 0.11611 0.0
N1630 N 0.04485 0.83402 0.16433 0.0
N1631 N 0.03147 0.87344 0.12767 0.0
H1632 H 0.38433 0.10164 0.23831 0.0
H1633 H 0.39097 0.10371 0.35825 0.0
H1634 H 0.3444 0.1361 0.27628 0.0
H1635 H 0.43004 0.06806 0.32049 0.0
H1636 H 0.37711 0.11967 0.32819 0.0
H1637 H 0.40454 0.09326 0.26786 0.0
C1638 C 0.37995 0.10769 0.2528 0.0
C1639 C 0.36246 0.11936 0.25484 0.0
C1640 C 0.38887 0.10851 0.32647 0.0
C1641 C 0.38547 0.10968 0.28879 0.0
C1642 C 0.39682 0.0994 0.34366 0.0
C1643 C 0.4115 0.08432 0.34189 0.0
C1644 C 0.39558 0.10245 0.30736 0.0
C1645 C 0.4186 0.07948 0.32257 0.0
C1646 C 0.39149 0.10285 0.2697 0.0
C1647 C 0.35763 0.12687 0.27401 0.0
N1648 N 0.41041 0.08835 0.30606 0.0
N1649 N 0.36893 0.12171 0.29025 0.0
H1650 H 0.38841 0.39651 0.9908 0.0
H1651 H 0.31932 0.31538 0.93549 0.0
H1652 H 0.34308 0.36102 0.02097 0.0
H1653 H 0.36524 0.35017 0.90542 0.0
H1654 H 0.33091 0.32863 0.96773 0.0
H1655 H 0.38329 0.37651 0.9604 0.0
C1656 C 0.37756 0.38435 0.99113 0.0
C1657 C 0.36597 0.38061 0.00842 0.0
C1658 C 0.33861 0.3332 0.95411 0.0
C1659 C 0.35992 0.35774 0.97355 0.0
C1660 C 0.332 0.32562 0.93567 0.0
C1661 C 0.34115 0.33186 0.91767 0.0
C1662 C 0.35441 0.34725 0.95459 0.0
C1663 C 0.35762 0.34506 0.91888 0.0
C1664 C 0.37462 0.37293 0.97374 0.0
C1665 C 0.35223 0.36456 0.00796 0.0
N1666 N 0.36357 0.35249 0.93699 0.0
N1667 N 0.34942 0.35388 0.99075 0.0
H1668 H 0.6299 0.35249 0.25779 0.0
H1669 H 0.55933 0.43995 0.29648 0.0
H1670 H 0.60368 0.3971 0.21849 0.0
H1671 H 0.57736 0.38952 0.33329 0.0
H1672 H 0.57128 0.42198 0.26672 0.0
H1673 H 0.60684 0.36294 0.28441 0.0
C1674 C 0.61906 0.36426 0.25465 0.0
C1675 C 0.61898 0.3742 0.23601 0.0
C1676 C 0.57231 0.41469 0.28126 0.0
C1677 C 0.59272 0.38645 0.26652 0.0
C1678 C 0.56549 0.42496 0.29828 0.0
C1679 C 0.56772 0.4164 0.31746 0.0
C1680 C 0.58165 0.39584 0.28348 0.0
C1681 C 0.57561 0.39684 0.31884 0.0
C1682 C 0.60587 0.37023 0.26986 0.0
C1683 C 0.60444 0.38918 0.23271 0.0
N1684 N 0.58261 0.38737 0.30213 0.0
N1685 N 0.59215 0.39511 0.24794 0.0
H1686 H 0.58914 0.10752 0.97763 0.0
H1687 H 0.67113 0.18762 0.94213 0.0
H1688 H 0.63358 0.13391 0.01702 0.0
H1689 H 0.62804 0.15968 0.90232 0.0
H1690 H 0.65359 0.17281 0.97085 0.0
H1691 H 0.59918 0.13105 0.95121 0.0
C1692 C 0.60081 0.11844 0.98084 0.0
C1693 C 0.61076 0.1185 0.99947 0.0
C1694 C 0.6478 0.17014 0.95585 0.0
C1695 C 0.62244 0.1454 0.96923 0.0
C1696 C 0.6578 0.17864 0.93943 0.0
C1697 C 0.65126 0.1746 0.91975 0.0
C1698 C 0.63121 0.15743 0.95257 0.0
C1699 C 0.63379 0.16298 0.9172 0.0
C1700 C 0.60656 0.13187 0.96572 0.0
C1701 C 0.62566 0.13313 0.0028 0.0
N1702 N 0.62454 0.15458 0.93339 0.0
N1703 N 0.63122 0.14581 0.98775 0.0
H1704 H 0.34868 0.8597 0.23475 0.0
H1705 H 0.4309 0.93519 0.19064 0.0
H1706 H 0.38389 0.90015 0.27146 0.0
H1707 H 0.39734 0.89306 0.15427 0.0
H1708 H 0.41696 0.9196 0.22087 0.0
H1709 H 0.3694 0.86862 0.20574 0.0
C1710 C 0.36093 0.87027 0.23679 0.0
C1711 C 0.36437 0.87939 0.25553 0.0
C1712 C 0.41281 0.91361 0.20629 0.0
C1713 C 0.38805 0.88983 0.22229 0.0
C1714 C 0.42078 0.92251 0.189 0.0
C1715 C 0.41508 0.9156 0.16986 0.0
C1716 C 0.39893 0.89775 0.20444 0.0
C1717 C 0.40203 0.89902 0.16869 0.0
C1718 C 0.37275 0.87538 0.22018 0.0
C1719 C 0.38056 0.89287 0.25727 0.0
N1720 N 0.39422 0.89082 0.18573 0.0
N1721 N 0.39164 0.89786 0.24081 0.0
H1722 H 0.126 0.33337 0.0952 0.0
H1723 H 0.14844 0.37228 0.98426 0.0
H1724 H 0.17953 0.31816 0.06164 0.0
H1725 H 0.09136 0.3812 0.01396 0.0
H1726 H 0.15865 0.34973 0.01132 0.0
H1727 H 0.11158 0.34813 0.06472 0.0
C1728 C 0.13462 0.33288 0.08137 0.0
C1729 C 0.15412 0.32473 0.08106 0.0
C1730 C 0.14379 0.35641 0.01185 0.0
C1731 C 0.13776 0.34176 0.04616 0.0
C1732 C 0.13795 0.36933 0.99639 0.0
C1733 C 0.1191 0.37882 0.99696 0.0
C1734 C 0.1308 0.35312 0.0282 0.0
C1735 C 0.10606 0.37427 0.01296 0.0
C1736 C 0.12637 0.34133 0.06397 0.0
C1737 C 0.16452 0.32442 0.06267 0.0
N1738 N 0.11227 0.36195 0.02811 0.0
N1739 N 0.15632 0.33304 0.04604 0.0
H1740 H 0.62506 0.621 0.26356 0.0
H1741 H 0.58812 0.61606 0.14918 0.0
H1742 H 0.64757 0.65958 0.21633 0.0
H1743 H 0.57117 0.57266 0.19449 0.0
H1744 H 0.60526 0.63578 0.17499 0.0
H1745 H 0.60063 0.60696 0.23992 0.0
C1746 C 0.62469 0.62675 0.24831 0.0
C1747 C 0.63858 0.64132 0.24186 0.0
C1748 C 0.59763 0.62205 0.17933 0.0
C1749 C 0.61071 0.62519 0.21469 0.0
C1750 C 0.5878 0.61077 0.1646 0.0
C1751 C 0.5784 0.59252 0.16962 0.0
C1752 C 0.59813 0.61503 0.19927 0.0
C1753 C 0.57836 0.58654 0.18989 0.0
C1754 C 0.61077 0.61866 0.23479 0.0
C1755 C 0.6373 0.64822 0.22193 0.0
N1756 N 0.58825 0.59766 0.20394 0.0
N1757 N 0.62376 0.63996 0.20901 0.0
H1758 H 0.82784 0.17931 0.07206 0.0
H1759 H 0.90657 0.09714 0.03327 0.0
H1760 H 0.86695 0.14546 0.11141 0.0
H1761 H 0.86554 0.12938 0.99453 0.0
H1762 H 0.89576 0.11813 0.06149 0.0
H1763 H 0.84504 0.16475 0.04306 0.0
C1764 C 0.84021 0.169 0.07462 0.0
C1765 C 0.84578 0.1634 0.09421 0.0
C1766 C 0.88928 0.12074 0.04677 0.0
C1767 C 0.86545 0.14652 0.06102 0.0
C1768 C 0.89547 0.10878 0.03063 0.0
C1769 C 0.88677 0.11133 0.01155 0.0
C1770 C 0.87426 0.13534 0.04381 0.0
C1771 C 0.87252 0.12673 0.00901 0.0
C1772 C 0.85001 0.16065 0.05803 0.0
C1773 C 0.86201 0.15007 0.09658 0.0
N1774 N 0.86658 0.13801 0.02499 0.0
N1775 N 0.87113 0.14192 0.08018 0.0
H1776 H 0.28964 0.43526 0.0502 0.0
H1777 H 0.25527 0.35292 0.13078 0.0
H1778 H 0.33009 0.40815 0.09321 0.0
H1779 H 0.21417 0.38399 0.09118 0.0
H1780 H 0.28237 0.37506 0.11932 0.0
H1781 H 0.2614 0.41868 0.06691 0.0
C1782 C 0.29258 0.42598 0.06327 0.0
C1783 C 0.31232 0.42298 0.07019 0.0
C1784 C 0.26737 0.37718 0.1133 0.0
C1785 C 0.28 0.40377 0.08935 0.0
C1786 C 0.25187 0.36456 0.11987 0.0
C1787 C 0.23243 0.36645 0.1118 0.0
C1788 C 0.26346 0.39173 0.09844 0.0
C1789 C 0.22893 0.38186 0.09774 0.0
C1790 C 0.27643 0.4165 0.07283 0.0
C1791 C 0.31516 0.41084 0.08727 0.0
N1792 N 0.24432 0.39374 0.09137 0.0
N1793 N 0.29922 0.40153 0.09613 0.0
H1794 H 0.26762 0.63022 0.36765 0.0
H1795 H 0.30211 0.56087 0.45911 0.0
H1796 H 0.22638 0.60467 0.41091 0.0
H1797 H 0.34223 0.58085 0.41204 0.0
H1798 H 0.27364 0.57381 0.43976 0.0
H1799 H 0.29449 0.6093 0.38153 0.0
C1800 C 0.26413 0.62 0.37987 0.0
C1801 C 0.24475 0.61941 0.38829 0.0
C1802 C 0.28865 0.57515 0.43354 0.0
C1803 C 0.27553 0.59556 0.40443 0.0
C1804 C 0.30493 0.56776 0.4446 0.0
C1805 C 0.32464 0.57 0.43733 0.0
C1806 C 0.29209 0.58502 0.41514 0.0
C1807 C 0.32733 0.57894 0.41835 0.0
C1808 C 0.2795 0.60806 0.38782 0.0
C1809 C 0.24112 0.60578 0.40404 0.0
N1810 N 0.31128 0.58634 0.40804 0.0
N1811 N 0.25641 0.59461 0.41177 0.0
H1812 H 0.86434 0.5217 0.84475 0.0
H1813 H 0.85209 0.4038 0.86469 0.0
H1814 H 0.90105 0.48785 0.88634 0.0
H1815 H 0.82007 0.43633 0.81843 0.0
H1816 H 0.86536 0.43566 0.87735 0.0
H1817 H 0.84336 0.49194 0.83966 0.0
C1818 C 0.86782 0.50811 0.85306 0.0
C1819 C 0.88469 0.5072 0.86576 0.0
C1820 C 0.85524 0.43585 0.86458 0.0
C1821 C 0.86078 0.47301 0.85988 0.0
C1822 C 0.8476 0.41766 0.85735 0.0
C1823 C 0.83518 0.41735 0.84027 0.0
C1824 C 0.85045 0.45389 0.85464 0.0
C1825 C 0.82977 0.43581 0.83151 0.0
C1826 C 0.85585 0.4911 0.8501 0.0
C1827 C 0.88835 0.4892 0.87623 0.0
N1828 N 0.83763 0.45331 0.83865 0.0
N1829 N 0.87664 0.47276 0.87287 0.0
H1830 H 0.66718 0.91799 0.39506 0.0
H1831 H 0.78591 0.90073 0.39461 0.0
H1832 H 0.70775 0.94346 0.43898 0.0
H1833 H 0.74446 0.87032 0.35485 0.0
H1834 H 0.75844 0.92226 0.40615 0.0
H1835 H 0.6961 0.90627 0.37568 0.0
C1836 C 0.68217 0.92137 0.40051 0.0
C1837 C 0.68503 0.93142 0.41889 0.0
C1838 C 0.75542 0.91108 0.39467 0.0
C1839 C 0.71824 0.91791 0.39677 0.0
C1840 C 0.77113 0.89881 0.388 0.0
C1841 C 0.76742 0.88341 0.37401 0.0
C1842 C 0.73586 0.90792 0.38732 0.0
C1843 C 0.74798 0.88179 0.36587 0.0
C1844 C 0.6987 0.91464 0.38942 0.0
C1845 C 0.70482 0.93555 0.42504 0.0
N1846 N 0.73288 0.89368 0.37286 0.0
N1847 N 0.72067 0.92855 0.41415 0.0
H1848 H 0.61652 0.52871 0.38573 0.0
H1849 H 0.67463 0.56001 0.28578 0.0
H1850 H 0.62116 0.49064 0.33326 0.0
H1851 H 0.67453 0.59589 0.33995 0.0
H1852 H 0.65884 0.53254 0.30441 0.0
H1853 H 0.64129 0.5515 0.37088 0.0
C1854 C 0.62294 0.52498 0.37121 0.0
C1855 C 0.6165 0.50787 0.36061 0.0
C1856 C 0.66252 0.54632 0.31231 0.0
C1857 C 0.64477 0.53402 0.34342 0.0
C1858 C 0.67157 0.56202 0.30167 0.0
C1859 C 0.67565 0.58041 0.31123 0.0
C1860 C 0.65732 0.54906 0.33263 0.0
C1861 C 0.67149 0.58206 0.3319 0.0
C1862 C 0.63709 0.53802 0.36272 0.0
C1863 C 0.62548 0.50376 0.34191 0.0
N1864 N 0.66229 0.56671 0.34183 0.0
N1865 N 0.63894 0.51687 0.33381 0.0
H1866 H 0.20879 0.55965 0.56482 0.0
H1867 H 0.23927 0.64622 0.6419 0.0
H1868 H 0.16571 0.59261 0.6006 0.0
H1869 H 0.28244 0.60883 0.61088 0.0
H1870 H 0.21228 0.62434 0.62984 0.0
H1871 H 0.23601 0.57493 0.58424 0.0
C1872 C 0.20502 0.5699 0.57692 0.0
C1873 C 0.18492 0.57504 0.5809 0.0
C1874 C 0.22768 0.62076 0.62588 0.0
C1875 C 0.21607 0.59278 0.6031 0.0
C1876 C 0.24312 0.63325 0.63279 0.0
C1877 C 0.26315 0.62952 0.62719 0.0
C1878 C 0.23226 0.60451 0.61313 0.0
C1879 C 0.26721 0.61241 0.61545 0.0
C1880 C 0.22059 0.57864 0.58802 0.0
C1881 C 0.18098 0.58832 0.59687 0.0
N1882 N 0.25189 0.60071 0.6086 0.0
N1883 N 0.19641 0.59692 0.6072 0.0
H1884 H 0.82115 0.55204 0.70057 0.0
H1885 H 0.89589 0.53283 0.60911 0.0
H1886 H 0.83108 0.59498 0.6528 0.0
H1887 H 0.87929 0.48688 0.65196 0.0
H1888 H 0.86956 0.55455 0.6228 0.0
H1889 H 0.83959 0.52681 0.68117 0.0
C1890 C 0.82695 0.5561 0.68588 0.0
C1891 C 0.82475 0.57575 0.67843 0.0
C1892 C 0.87148 0.53961 0.62904 0.0
C1893 C 0.84611 0.54696 0.65621 0.0
C1894 C 0.88652 0.52718 0.6212 0.0
C1895 C 0.89001 0.50808 0.62956 0.0
C1896 C 0.85996 0.53301 0.64551 0.0
C1897 C 0.87727 0.50153 0.64513 0.0
C1898 C 0.8375 0.54167 0.6748 0.0
C1899 C 0.83252 0.58008 0.65924 0.0
N1900 N 0.86303 0.51408 0.65279 0.0
N1901 N 0.84308 0.5659 0.64893 0.0
H1902 H 0.18568 0.93997 0.68112 0.0
H1903 H 0.09918 0.98085 0.60868 0.0
H1904 H 0.15088 0.90194 0.64154 0.0
H1905 H 0.1369 0.01931 0.64503 0.0
H1906 H 0.12056 0.95225 0.61749 0.0
H1907 H 0.17067 0.96955 0.66523 0.0
C1908 C 0.17507 0.93783 0.66893 0.0
C1909 C 0.16936 0.91842 0.66283 0.0
C1910 C 0.12432 0.96699 0.62334 0.0
C1911 C 0.15196 0.95226 0.64467 0.0
C1912 C 0.11212 0.98335 0.61828 0.0
C1913 C 0.11609 0.00249 0.62633 0.0
C1914 C 0.14052 0.96973 0.63667 0.0
C1915 C 0.13314 0.00482 0.63861 0.0
C1916 C 0.16649 0.95474 0.65986 0.0
C1917 C 0.15562 0.9166 0.64687 0.0
N1918 N 0.14456 0.9886 0.6436 0.0
N1919 N 0.14723 0.93328 0.63851 0.0
H1920 H 0.65532 0.7873 0.85178 0.0
H1921 H 0.57047 0.82253 0.92984 0.0
H1922 H 0.6077 0.74877 0.8735 0.0
H1923 H 0.61308 0.86289 0.90192 0.0
H1924 H 0.58761 0.7941 0.9139 0.0
H1925 H 0.64371 0.81378 0.87461 0.0
C1926 C 0.64261 0.78429 0.86154 0.0
C1927 C 0.63233 0.76585 0.86053 0.0
C1928 C 0.59333 0.80917 0.91143 0.0
C1929 C 0.61889 0.79614 0.88662 0.0
C1930 C 0.58358 0.82541 0.92059 0.0
C1931 C 0.59019 0.84516 0.91702 0.0
C1932 C 0.60981 0.81269 0.89863 0.0
C1933 C 0.60731 0.84795 0.90493 0.0
C1934 C 0.63593 0.79945 0.87452 0.0
C1935 C 0.61596 0.76282 0.87359 0.0
N1936 N 0.61642 0.83192 0.89604 0.0
N1937 N 0.60966 0.77785 0.88595 0.0
H1938 H 0.97726 0.14482 0.37946 0.0
H1939 H 0.09251 0.13888 0.34539 0.0
H1940 H 0.02054 0.10316 0.40424 0.0
H1941 H 0.05218 0.1866 0.32754 0.0
H1942 H 0.06448 0.12176 0.36178 0.0
H1943 H 0.00261 0.15619 0.35531 0.0
C1944 C 0.99197 0.13781 0.37963 0.0
C1945 C 0.99684 0.12317 0.39411 0.0
C1946 C 0.06169 0.13587 0.3541 0.0
C1947 C 0.02597 0.13625 0.36653 0.0
C1948 C 0.0777 0.14566 0.34468 0.0
C1949 C 0.07477 0.16436 0.33528 0.0
C1950 C 0.04255 0.14481 0.35419 0.0
C1951 C 0.05518 0.17228 0.33473 0.0
C1952 C 0.00647 0.14439 0.36587 0.0
C1953 C 0.01615 0.11462 0.39351 0.0
N1954 N 0.03985 0.16257 0.34426 0.0
N1955 N 0.03005 0.12141 0.38011 0.0
H1956 H 0.40768 0.66447 0.92353 0.0
H1957 H 0.41454 0.78184 0.8976 0.0
H1958 H 0.45777 0.70247 0.93997 0.0
H1959 H 0.37095 0.74152 0.87119 0.0
H1960 H 0.42649 0.75437 0.91888 0.0
H1961 H 0.39026 0.69394 0.91004 0.0
C1962 C 0.41491 0.67905 0.92458 0.0
C1963 C 0.43436 0.68094 0.93268 0.0
C1964 C 0.41416 0.75159 0.90859 0.0
C1965 C 0.41448 0.71474 0.91719 0.0
C1966 C 0.40726 0.7673 0.89646 0.0
C1967 C 0.39188 0.76394 0.88236 0.0
C1968 C 0.40561 0.73236 0.90667 0.0
C1969 C 0.38297 0.74477 0.88169 0.0
C1970 C 0.40497 0.69586 0.9168 0.0
C1971 C 0.44291 0.70024 0.93368 0.0
N1972 N 0.3901 0.72965 0.89352 0.0
N1973 N 0.43299 0.71635 0.92587 0.0
H1974 H 0.00772 0.37022 0.37929 0.0
H1975 H 0.88955 0.36955 0.35781 0.0
H1976 H 0.96489 0.408 0.4103 0.0
H1977 H 0.93185 0.33066 0.32746 0.0
H1978 H 0.91763 0.38737 0.37336 0.0
H1979 H 0.98099 0.35927 0.35652 0.0
C1980 C 0.99277 0.37646 0.38115 0.0
C1981 C 0.9885 0.38986 0.39693 0.0
C1982 C 0.92081 0.37509 0.36313 0.0
C1983 C 0.95777 0.37724 0.37098 0.0
C1984 C 0.90476 0.3649 0.35421 0.0
C1985 C 0.90833 0.34839 0.34151 0.0
C1986 C 0.94062 0.36868 0.35945 0.0
C1987 C 0.92837 0.34319 0.33728 0.0
C1988 C 0.97749 0.37015 0.36815 0.0
C1989 C 0.96886 0.39749 0.3985 0.0
N1990 N 0.94376 0.35314 0.34642 0.0
N1991 N 0.95419 0.3909 0.38585 0.0
H1992 H 0.64578 0.21901 0.63918 0.0
H1993 H 0.56847 0.18454 0.55398 0.0
H1994 H 0.61293 0.26041 0.60135 0.0
H1995 H 0.60196 0.14325 0.59135 0.0
H1996 H 0.58803 0.2124 0.56793 0.0
H1997 H 0.63353 0.19112 0.61861 0.0
C1998 C 0.63623 0.22228 0.62638 0.0
C1999 C 0.63016 0.24208 0.62217 0.0
C2000 C 0.59125 0.19722 0.57292 0.0
C2001 C 0.61589 0.21015 0.59866 0.0
C2002 C 0.58009 0.18129 0.56494 0.0
C2003 C 0.58338 0.16154 0.57168 0.0
C2004 C 0.60576 0.1934 0.58784 0.0
C2005 C 0.59875 0.15824 0.58583 0.0
C2006 C 0.62919 0.20632 0.61465 0.0
C2007 C 0.61786 0.24538 0.6053 0.0
N2008 N 0.6092 0.17402 0.59359 0.0
N2009 N 0.61093 0.22957 0.59432 0.0
H2010 H 0.44925 0.18816 0.68168 0.0
H2011 H 0.49226 0.10265 0.60907 0.0
H2012 H 0.41271 0.14126 0.65544 0.0
H2013 H 0.52937 0.14786 0.63739 0.0
H2014 H 0.46361 0.11427 0.62897 0.0
H2015 H 0.47934 0.17134 0.66883 0.0
C2016 C 0.44755 0.17418 0.67347 0.0
C2017 C 0.42838 0.16625 0.66944 0.0
C2018 C 0.47807 0.12152 0.63099 0.0
C2019 C 0.46278 0.147 0.6545 0.0
C2020 C 0.49446 0.11488 0.61963 0.0
C2021 C 0.51322 0.12443 0.62139 0.0
C2022 C 0.4804 0.13793 0.64414 0.0
C2023 C 0.51517 0.14013 0.63541 0.0
C2024 C 0.46475 0.1646 0.66609 0.0
C2025 C 0.42714 0.14804 0.65877 0.0
N2026 N 0.49892 0.14653 0.64608 0.0
N2027 N 0.44407 0.13917 0.65148 0.0
H2028 H 0.42447 0.33276 0.57037 0.0
H2029 H 0.42235 0.21838 0.6078 0.0
H2030 H 0.47172 0.28986 0.55809 0.0
H2031 H 0.38475 0.26522 0.63263 0.0
H2032 H 0.4359 0.24257 0.58365 0.0
H2033 H 0.40529 0.30625 0.58716 0.0
C2034 C 0.4307 0.3177 0.57092 0.0
C2035 C 0.44989 0.3136 0.56302 0.0
C2036 C 0.42452 0.24749 0.59424 0.0
C2037 C 0.42796 0.28321 0.58229 0.0
C2038 C 0.41671 0.23367 0.60801 0.0
C2039 C 0.40255 0.23984 0.62246 0.0
C2040 C 0.41807 0.2676 0.59482 0.0
C2041 C 0.39578 0.25985 0.62191 0.0
C2042 C 0.41975 0.3026 0.58059 0.0
C2043 C 0.45711 0.29377 0.56413 0.0
N2044 N 0.40371 0.27305 0.60842 0.0
N2045 N 0.44621 0.27935 0.57375 0.0
H2046 H 0.50834 0.35745 0.61481 0.0
H2047 H 0.62625 0.34341 0.63429 0.0
H2048 H 0.55408 0.36413 0.56923 0.0
H2049 H 0.58148 0.31088 0.66841 0.0
H2050 H 0.59939 0.35988 0.61546 0.0
H2051 H 0.53476 0.34868 0.63935 0.0
C2052 C 0.52395 0.35743 0.6101 0.0
C2053 C 0.52911 0.36133 0.59 0.0
C2054 C 0.59546 0.34932 0.62725 0.0
C2055 C 0.55913 0.35166 0.61779 0.0
C2056 C 0.61077 0.33994 0.63807 0.0
C2057 C 0.60612 0.32548 0.65275 0.0
C2058 C 0.57532 0.34438 0.63122 0.0
C2059 C 0.58574 0.32175 0.65705 0.0
C2060 C 0.53894 0.35235 0.62403 0.0
C2061 C 0.54949 0.36101 0.58456 0.0
N2062 N 0.57105 0.33103 0.6462 0.0
N2063 N 0.56375 0.35624 0.59836 0.0
H2064 H 0.93288 0.56415 0.80439 0.0
H2065 H 0.84964 0.64003 0.76272 0.0
H2066 H 0.90292 0.60852 0.84123 0.0
H2067 H 0.88447 0.60068 0.72449 0.0
H2068 H 0.87063 0.63026 0.79126 0.0
H2069 H 0.91704 0.57881 0.77458 0.0
C2070 C 0.92314 0.5771 0.8062 0.0
C2071 C 0.91909 0.585 0.82538 0.0
C2072 C 0.87382 0.6239 0.77659 0.0
C2073 C 0.90077 0.60176 0.79132 0.0
C2074 C 0.86183 0.62948 0.76027 0.0
C2075 C 0.86519 0.62104 0.7412 0.0
C2076 C 0.8892 0.60963 0.77389 0.0
C2077 C 0.88127 0.60751 0.73893 0.0
C2078 C 0.91409 0.58547 0.78916 0.0
C2079 C 0.90639 0.60184 0.82678 0.0
N2080 N 0.89254 0.60207 0.75512 0.0
N2081 N 0.89755 0.60953 0.81002 0.0
H2082 H 0.84195 0.88641 0.50952 0.0
H2083 H 0.86719 0.84744 0.39892 0.0
H2084 H 0.89866 0.89753 0.4798 0.0
H2085 H 0.81235 0.83311 0.43073 0.0
H2086 H 0.88055 0.86266 0.42961 0.0
H2087 H 0.83244 0.86383 0.4822 0.0
C2088 C 0.85251 0.88395 0.49734 0.0
C2089 C 0.87106 0.89407 0.49685 0.0
C2090 C 0.86569 0.85597 0.42995 0.0
C2091 C 0.86016 0.86829 0.46535 0.0
C2092 C 0.85805 0.84725 0.41242 0.0
C2093 C 0.83851 0.83919 0.41217 0.0
C2094 C 0.85368 0.85676 0.44733 0.0
C2095 C 0.82742 0.83927 0.43016 0.0
C2096 C 0.84706 0.87102 0.48172 0.0
C2097 C 0.88417 0.89014 0.48075 0.0
N2098 N 0.83507 0.84814 0.44693 0.0
N2099 N 0.87837 0.87774 0.46552 0.0
H2100 H 0.1489 0.86718 0.76469 0.0
H2101 H 0.0685 0.94401 0.80939 0.0
H2102 H 0.11606 0.91006 0.72854 0.0
H2103 H 0.0983 0.8984 0.84481 0.0
H2104 H 0.08268 0.92909 0.77895 0.0
H2105 H 0.12753 0.87557 0.79338 0.0
C2106 C 0.13703 0.87818 0.7627 0.0
C2107 C 0.13446 0.88814 0.74424 0.0
C2108 C 0.08594 0.92219 0.79335 0.0
C2109 C 0.11003 0.89795 0.77711 0.0
C2110 C 0.07784 0.93071 0.81076 0.0
C2111 C 0.08244 0.9226 0.82972 0.0
C2112 C 0.09887 0.90553 0.79491 0.0
C2113 C 0.09449 0.90526 0.83054 0.0
C2114 C 0.12483 0.88298 0.77911 0.0
C2115 C 0.11872 0.90213 0.74253 0.0
N2116 N 0.10249 0.89746 0.81341 0.0
N2117 N 0.10728 0.90681 0.75882 0.0
H2118 H 0.09721 0.61839 0.48484 0.0
H2119 H 0.19246 0.67216 0.43427 0.0
H2120 H 0.15606 0.62184 0.51215 0.0
H2121 H 0.13935 0.65483 0.40105 0.0
H2122 H 0.17642 0.66051 0.46522 0.0
H2123 H 0.10976 0.63828 0.45638 0.0
C2124 C 0.11267 0.62358 0.485 0.0
C2125 C 0.12568 0.61826 0.50077 0.0
C2126 C 0.1682 0.65945 0.45118 0.0
C2127 C 0.14007 0.64098 0.46836 0.0
C2128 C 0.17731 0.66618 0.4335 0.0
C2129 C 0.16734 0.66423 0.41498 0.0
C2130 C 0.14893 0.65078 0.45038 0.0
C2131 C 0.14769 0.65642 0.41496 0.0
C2132 C 0.11983 0.63485 0.46873 0.0
C2133 C 0.14557 0.62539 0.5002 0.0
N2134 N 0.13918 0.64982 0.43237 0.0
N2135 N 0.15217 0.63627 0.48421 0.0
H2136 H 0.89298 0.40782 0.78115 0.0
H2137 H 0.91764 0.39222 0.66453 0.0
H2138 H 0.86524 0.36248 0.74375 0.0
H2139 H 0.9378 0.44335 0.69922 0.0
H2140 H 0.90415 0.37718 0.6952 0.0
H2141 H 0.91505 0.41687 0.75315 0.0
C2142 C 0.89172 0.39955 0.76716 0.0
C2143 C 0.87701 0.38456 0.76471 0.0
C2144 C 0.91172 0.39158 0.69615 0.0
C2145 C 0.90219 0.39493 0.73257 0.0
C2146 C 0.91948 0.40019 0.67863 0.0
C2147 C 0.92859 0.41925 0.67923 0.0
C2148 C 0.91304 0.40211 0.71442 0.0
C2149 C 0.9307 0.42873 0.698 0.0
C2150 C 0.9043 0.40478 0.75116 0.0
C2151 C 0.87618 0.37429 0.74626 0.0
N2152 N 0.92277 0.42017 0.71482 0.0
N2153 N 0.88845 0.37981 0.73084 0.0
H2154 H 0.64919 0.87359 0.48271 0.0
H2155 H 0.63095 0.83824 0.59626 0.0
H2156 H 0.59825 0.89188 0.51869 0.0
H2157 H 0.68534 0.82602 0.56285 0.0
H2158 H 0.6161 0.85288 0.566 0.0
H2159 H 0.65987 0.85125 0.50988 0.0
C2160 C 0.6401 0.87274 0.49622 0.0
C2161 C 0.62292 0.88483 0.49851 0.0
C2162 C 0.63121 0.8468 0.56523 0.0
C2163 C 0.63514 0.85931 0.52973 0.0
C2164 C 0.63969 0.83838 0.5825 0.0
C2165 C 0.65953 0.83111 0.58218 0.0
C2166 C 0.64263 0.848 0.54748 0.0
C2167 C 0.67006 0.83159 0.56385 0.0
C2168 C 0.64625 0.85999 0.51175 0.0
C2169 C 0.6117 0.88299 0.51632 0.0
N2170 N 0.66155 0.84009 0.5473 0.0
N2171 N 0.61811 0.87062 0.53131 0.0
H2172 H 0.06887 0.06086 0.68427 0.0
H2173 H 0.15504 0.13363 0.72557 0.0
H2174 H 0.10037 0.10406 0.6473 0.0
H2175 H 0.12052 0.09362 0.76343 0.0
H2176 H 0.13297 0.12533 0.69737 0.0
H2177 H 0.08531 0.07493 0.714 0.0
C2178 C 0.07907 0.07345 0.68242 0.0
C2179 C 0.08341 0.08114 0.66322 0.0
C2180 C 0.13009 0.11852 0.71189 0.0
C2181 C 0.10242 0.09722 0.6972 0.0
C2182 C 0.14269 0.12326 0.72802 0.0
C2183 C 0.13977 0.11414 0.74686 0.0
C2184 C 0.11452 0.10445 0.71455 0.0
C2185 C 0.12344 0.10091 0.74915 0.0
C2186 C 0.08847 0.08148 0.69941 0.0
C2187 C 0.09668 0.09754 0.66177 0.0
N2188 N 0.11157 0.0963 0.73314 0.0
N2189 N 0.10587 0.10488 0.6785 0.0
H2190 H 0.38093 0.5786 0.54315 0.0
H2191 H 0.32723 0.67915 0.5752 0.0
H2192 H 0.36878 0.62539 0.49978 0.0
H2193 H 0.36203 0.6432 0.61667 0.0
H2194 H 0.34202 0.66031 0.54715 0.0
H2195 H 0.3736 0.60223 0.57027 0.0
C2196 C 0.37684 0.59393 0.53936 0.0
C2197 C 0.37531 0.60005 0.51923 0.0
C2198 C 0.34664 0.6568 0.56238 0.0
C2199 C 0.36667 0.62712 0.55019 0.0
C2200 C 0.3382 0.66752 0.5784 0.0
C2201 C 0.34323 0.66258 0.59833 0.0
C2202 C 0.35991 0.64086 0.56639 0.0
C2203 C 0.35759 0.64744 0.60158 0.0
C2204 C 0.37276 0.60744 0.55484 0.0
C2205 C 0.37011 0.62011 0.51514 0.0
N2206 N 0.36517 0.63691 0.5858 0.0
N2207 N 0.36564 0.6329 0.53052 0.0
H2208 H 0.78171 0.94777 0.55255 0.0
H2209 H 0.7526 0.86862 0.63766 0.0
H2210 H 0.82415 0.92398 0.59562 0.0
H2211 H 0.70949 0.89559 0.59721 0.0
H2212 H 0.77804 0.89236 0.62572 0.0
H2213 H 0.75431 0.93243 0.57168 0.0
C2214 C 0.78526 0.93956 0.56618 0.0
C2215 C 0.80531 0.93693 0.57231 0.0
C2216 C 0.76294 0.89329 0.61966 0.0
C2217 C 0.77397 0.91913 0.59422 0.0
C2218 C 0.74837 0.87975 0.62652 0.0
C2219 C 0.72894 0.87989 0.61821 0.0
C2220 C 0.7581 0.90697 0.60427 0.0
C2221 C 0.72432 0.89476 0.6039 0.0
C2222 C 0.76959 0.93078 0.57711 0.0
C2223 C 0.80895 0.92625 0.5902 0.0
N2224 N 0.73887 0.90749 0.59718 0.0
N2225 N 0.79348 0.91752 0.60036 0.0
H2226 H 0.84079 0.08915 0.90372 0.0
H2227 H 0.7285 0.13225 0.90539 0.0
H2228 H 0.80032 0.08324 0.95423 0.0
H2229 H 0.77197 0.14622 0.85912 0.0
H2230 H 0.75246 0.10869 0.92025 0.0
H2231 H 0.81362 0.10443 0.88422 0.0
C2232 C 0.82613 0.09081 0.91064 0.0
C2233 C 0.82292 0.08516 0.93076 0.0
C2234 C 0.75667 0.11674 0.90672 0.0
C2235 C 0.79176 0.10273 0.90851 0.0
C2236 C 0.74298 0.13018 0.89818 0.0
C2237 C 0.74834 0.14148 0.88113 0.0
C2238 C 0.77588 0.11456 0.89818 0.0
C2239 C 0.76726 0.13801 0.87239 0.0
C2240 C 0.81063 0.09959 0.8995 0.0
C2241 C 0.80355 0.08757 0.93886 0.0
N2242 N 0.78043 0.12501 0.88113 0.0
N2243 N 0.78877 0.09634 0.92777 0.0
H2244 H 0.31398 0.9334 0.31481 0.0
H2245 H 0.39528 0.98038 0.38994 0.0
H2246 H 0.34658 0.89864 0.359 0.0
H2247 H 0.36326 0.01474 0.34501 0.0
H2248 H 0.3743 0.95121 0.38199 0.0
H2249 H 0.32852 0.96412 0.32881 0.0
C2250 C 0.32401 0.93223 0.32761 0.0
C2251 C 0.32925 0.91337 0.33558 0.0
C2252 C 0.37172 0.9652 0.37402 0.0
C2253 C 0.3461 0.94853 0.3516 0.0
C2254 C 0.38367 0.98189 0.37859 0.0
C2255 C 0.3812 0.99999 0.36795 0.0
C2256 C 0.35722 0.96658 0.35868 0.0
C2257 C 0.36585 0.00105 0.35346 0.0
C2258 C 0.33234 0.94979 0.33559 0.0
C2259 C 0.34224 0.91283 0.35225 0.0
N2260 N 0.3546 0.98453 0.34912 0.0
N2261 N 0.35037 0.93012 0.35957 0.0
H2262 H 0.24316 0.35571 0.86347 0.0
H2263 H 0.20839 0.43904 0.94235 0.0
H2264 H 0.28445 0.39031 0.89983 0.0
H2265 H 0.1676 0.40846 0.90205 0.0
H2266 H 0.23675 0.42413 0.92431 0.0
H2267 H 0.21573 0.37753 0.8746 0.0
C2268 C 0.24652 0.36806 0.87358 0.0
C2269 C 0.26611 0.37101 0.88093 0.0
C2270 C 0.2216 0.42087 0.91925 0.0
C2271 C 0.2347 0.39594 0.8939 0.0
C2272 C 0.20538 0.4294 0.92955 0.0
C2273 C 0.18556 0.4248 0.92389 0.0
C2274 C 0.21799 0.4075 0.90326 0.0
C2275 C 0.18261 0.4123 0.90708 0.0
C2276 C 0.23083 0.38052 0.87995 0.0
C2277 C 0.26957 0.38735 0.8939 0.0
N2278 N 0.19864 0.4039 0.89753 0.0
N2279 N 0.25398 0.39902 0.90017 0.0
H2280 H 0.14164 0.98229 0.84514 0.0
H2281 H 0.15893 0.10101 0.85283 0.0
H2282 H 0.1079 0.02139 0.88459 0.0
H2283 H 0.18873 0.06275 0.80956 0.0
H2284 H 0.14452 0.07117 0.86873 0.0
H2285 H 0.16338 0.01059 0.83631 0.0
C2286 C 0.13898 0.99674 0.8522 0.0
C2287 C 0.12271 0.99952 0.86541 0.0
C2288 C 0.15439 0.06928 0.85589 0.0
C2289 C 0.14748 0.03206 0.85521 0.0
C2290 C 0.16266 0.08633 0.8468 0.0
C2291 C 0.17485 0.08442 0.82965 0.0
C2292 C 0.15829 0.05016 0.84777 0.0
C2293 C 0.17925 0.06497 0.82263 0.0
C2294 C 0.15138 0.01293 0.84709 0.0
C2295 C 0.12012 0.01858 0.87418 0.0
N2296 N 0.17081 0.04862 0.83159 0.0
N2297 N 0.13221 0.03417 0.86874 0.0
H2298 H 0.70166 0.06633 0.05286 0.0
H2299 H 0.74013 0.14251 0.13714 0.0
H2300 H 0.66281 0.09269 0.09779 0.0
H2301 H 0.77966 0.1112 0.09615 0.0
H2302 H 0.71211 0.12184 0.12524 0.0
H2303 H 0.7308 0.07999 0.07063 0.0
C2304 C 0.69925 0.07479 0.06659 0.0
C2305 C 0.67972 0.07856 0.0737 0.0
C2306 C 0.72697 0.11932 0.11903 0.0
C2307 C 0.71306 0.09442 0.09405 0.0
C2308 C 0.74299 0.13111 0.12584 0.0
C2309 C 0.76225 0.12877 0.11747 0.0
C2310 C 0.73017 0.10518 0.10361 0.0
C2311 C 0.76505 0.11367 0.10293 0.0
C2312 C 0.71592 0.0826 0.07674 0.0
C2313 C 0.67756 0.08952 0.09166 0.0
N2314 N 0.74916 0.10264 0.0963 0.0
N2315 N 0.694 0.09727 0.10107 0.0
H2316 H 0.39346 0.01733 0.11799 0.0
H2317 H 0.31323 0.06287 0.19529 0.0
H2318 H 0.36168 0.98186 0.16223 0.0
H2319 H 0.34563 0.09843 0.15159 0.0
H2320 H 0.32753 0.03238 0.18046 0.0
H2321 H 0.37275 0.04637 0.12701 0.0
C2322 C 0.38194 0.01555 0.1294 0.0
C2323 C 0.37948 0.99715 0.13952 0.0
C2324 C 0.33135 0.04684 0.17398 0.0
C2325 C 0.35583 0.03045 0.15008 0.0
C2326 C 0.32316 0.06427 0.18243 0.0
C2327 C 0.3284 0.08328 0.17482 0.0
C2328 C 0.34494 0.0484 0.15783 0.0
C2329 C 0.34129 0.08413 0.15808 0.0
C2330 C 0.37015 0.03217 0.13459 0.0
C2331 C 0.36425 0.99577 0.15413 0.0
N2332 N 0.34925 0.06697 0.15028 0.0
N2333 N 0.35317 0.01223 0.15911 0.0
H2334 H 0.64942 0.40214 0.14111 0.0
H2335 H 0.62943 0.51745 0.1693 0.0
H2336 H 0.67583 0.432 0.19243 0.0
H2337 H 0.59781 0.48562 0.12229 0.0
H2338 H 0.65074 0.48793 0.17441 0.0
H2339 H 0.63483 0.43417 0.13048 0.0
C2340 C 0.6524 0.41548 0.15001 0.0
C2341 C 0.66367 0.41431 0.16785 0.0
C2342 C 0.63927 0.48747 0.16284 0.0
C2343 C 0.64687 0.45104 0.1558 0.0
C2344 C 0.6271 0.50434 0.15988 0.0
C2345 C 0.61163 0.50395 0.1455 0.0
C2346 C 0.63597 0.47003 0.15134 0.0
C2347 C 0.60942 0.48656 0.13367 0.0
C2348 C 0.644 0.43377 0.14395 0.0
C2349 C 0.6671 0.43214 0.17868 0.0
N2350 N 0.62133 0.47025 0.13698 0.0
N2351 N 0.65857 0.44971 0.1726 0.0
loop_
_geom_bond_atom_site_label_1
_geom_bond_atom_site_label_2
_geom_bond_distance
_geom_bond_site_symmetry_2
_ccdc_geom_bond_type
Mg0 O7 2.141 . S
Mg0 O8 2.048 . S
Mg0 O9 2.048 . S
Mg0 O12 2.141 . S
C1 O2 1.313 . S
C1 O8 1.195 . S
O2 C1 1.313 . S
C3 O4 1.245 . S
C3 O12 1.289 . S
O4 C3 1.245 . S
C5 O6 1.245 . S
C5 O7 1.289 . S
O6 C5 1.245 . S
O7 Mg0 2.141 . S
O7 C5 1.289 . S
O8 Mg0 2.048 . S
O8 C1 1.195 . S
O9 Mg0 2.048 . S
O9 C10 1.195 . S
C10 O9 1.195 . S
C10 O11 1.313 . S
O11 C10 1.313 . S
O12 Mg0 2.141 . S
O12 C3 1.289 . S
Mg13 O20 2.141 . S
Mg13 O21 2.048 . S
Mg13 O22 2.048 . S
Mg13 O25 2.141 . S
C14 O15 1.313 . S
C14 O21 1.195 . S
O15 C14 1.313 . S
C16 O17 1.245 . S
C16 O25 1.289 . S
O17 C16 1.245 . S
C18 O19 1.245 . S
C18 O20 1.289 . S
O19 C18 1.245 . S
O20 Mg13 2.141 . S
O20 C18 1.289 . S
O21 Mg13 2.048 . S
O21 C14 1.195 . S
O22 Mg13 2.048 . S
O22 C23 1.195 . S
C23 O22 1.195 . S
C23 O24 1.313 . S
O24 C23 1.313 . S
O25 Mg13 2.141 . S
O25 C16 1.289 . S
Mg26 O33 2.141 . S
Mg26 O34 2.048 . S
Mg26 O35 2.048 . S
Mg26 O38 2.141 . S
C27 O28 1.313 . S
C27 O34 1.195 . S
O28 C27 1.313 . S
C29 O30 1.245 . S
C29 O38 1.289 . S
O30 C29 1.245 . S
C31 O32 1.245 . S
C31 O33 1.289 . S
O32 C31 1.245 . S
O33 Mg26 2.141 . S
O33 C31 1.289 . S
O34 Mg26 2.048 . S
O34 C27 1.195 . S
O35 Mg26 2.048 . S
O35 C36 1.195 . S
C36 O35 1.195 . S
C36 O37 1.313 . S
O37 C36 1.313 . S
O38 Mg26 2.141 . S
O38 C29 1.289 . S
Mg39 O46 2.141 . S
Mg39 O47 2.048 . S
Mg39 O48 2.048 . S
Mg39 O51 2.141 . S
C40 O41 1.313 . S
C40 O47 1.195 . S
O41 C40 1.313 . S
C42 O43 1.245 . S
C42 O51 1.289 . S
O43 C42 1.245 . S
C44 O45 1.245 . S
C44 O46 1.289 . S
O45 C44 1.245 . S
O46 Mg39 2.141 . S
O46 C44 1.289 . S
O47 Mg39 2.048 . S
O47 C40 1.195 . S
O48 Mg39 2.048 . S
O48 C49 1.195 . S
C49 O48 1.195 . S
C49 O50 1.313 . S
O50 C49 1.313 . S
O51 Mg39 2.141 . S
O51 C42 1.289 . S
Mg52 O59 2.141 . S
Mg52 O60 2.048 . S
Mg52 O61 2.048 . S
Mg52 O64 2.141 . S
C53 O54 1.313 . S
C53 O60 1.195 . S
O54 C53 1.313 . S
C55 O56 1.245 . S
C55 O64 1.289 . S
O56 C55 1.245 . S
C57 O58 1.245 . S
C57 O59 1.289 . S
O58 C57 1.245 . S
O59 Mg52 2.141 . S
O59 C57 1.289 . S
O60 Mg52 2.048 . S
O60 C53 1.195 . S
O61 Mg52 2.048 . S
O61 C62 1.195 . S
C62 O61 1.195 . S
C62 O63 1.313 . S
O63 C62 1.313 . S
O64 Mg52 2.141 . S
O64 C55 1.289 . S
Mg65 O72 2.141 . S
Mg65 O73 2.048 1_655 S
Mg65 O74 2.048 1_655 S
Mg65 O77 2.141 . S
C66 O67 1.313 . S
C66 O73 1.195 . S
O67 C66 1.313 . S
C68 O69 1.245 . S
C68 O77 1.289 . S
O69 C68 1.245 . S
C70 O71 1.245 . S
C70 O72 1.289 . S
O71 C70 1.245 . S
O72 Mg65 2.141 . S
O72 C70 1.289 . S
O73 Mg65 2.048 1_455 S
O73 C66 1.195 . S
O74 Mg65 2.048 1_455 S
O74 C75 1.195 . S
C75 O74 1.195 . S
C75 O76 1.313 . S
O76 C75 1.313 . S
O77 Mg65 2.141 . S
O77 C68 1.289 . S
Mg78 O85 2.141 . S
Mg78 O86 2.048 . S
Mg78 O87 2.048 . S
Mg78 O90 2.141 . S
C79 O80 1.313 . S
C79 O86 1.195 . S
O80 C79 1.313 . S
C81 O82 1.245 . S
C81 O90 1.289 . S
O82 C81 1.245 . S
C83 O84 1.245 . S
C83 O85 1.289 . S
O84 C83 1.245 . S
O85 Mg78 2.141 . S
O85 C83 1.289 . S
O86 Mg78 2.048 . S
O86 C79 1.195 . S
O87 Mg78 2.048 . S
O87 C88 1.195 . S
C88 O87 1.195 . S
C88 O89 1.313 . S
O89 C88 1.313 . S
O90 Mg78 2.141 . S
O90 C81 1.289 . S
Mg91 O98 2.141 . S
Mg91 O99 2.048 1_455 S
Mg91 O100 2.048 1_455 S
Mg91 O103 2.141 . S
C92 O93 1.313 . S
C92 O99 1.195 . S
O93 C92 1.313 . S
C94 O95 1.245 . S
C94 O103 1.289 . S
O95 C94 1.245 . S
C96 O97 1.245 . S
C96 O98 1.289 . S
O97 C96 1.245 . S
O98 Mg91 2.141 . S
O98 C96 1.289 . S
O99 Mg91 2.048 1_655 S
O99 C92 1.195 . S
O100 Mg91 2.048 1_655 S
O100 C101 1.195 . S
C101 O100 1.195 . S
C101 O102 1.313 . S
O102 C101 1.313 . S
O103 Mg91 2.141 . S
O103 C94 1.289 . S
Mg104 O111 2.141 . S
Mg104 O112 2.048 . S
Mg104 O113 2.048 . S
Mg104 O116 2.141 . S
C105 O106 1.313 . S
C105 O112 1.195 . S
O106 C105 1.313 . S
C107 O108 1.245 . S
C107 O116 1.289 . S
O108 C107 1.245 . S
C109 O110 1.245 . S
C109 O111 1.289 . S
O110 C109 1.245 . S
O111 Mg104 2.141 . S
O111 C109 1.289 . S
O112 Mg104 2.048 . S
O112 C105 1.195 . S
O113 Mg104 2.048 . S
O113 C114 1.195 . S
C114 O113 1.195 . S
C114 O115 1.313 . S
O115 C114 1.313 . S
O116 Mg104 2.141 . S
O116 C107 1.289 . S
Mg117 O124 2.141 . S
Mg117 O125 2.048 1_556 S
Mg117 O126 2.048 1_556 S
Mg117 O129 2.141 . S
C118 O119 1.313 . S
C118 O125 1.195 . S
O119 C118 1.313 . S
C120 O121 1.245 . S
C120 O129 1.289 . S
O121 C120 1.245 . S
C122 O123 1.245 . S
C122 O124 1.289 . S
O123 C122 1.245 . S
O124 Mg117 2.141 . S
O124 C122 1.289 . S
O125 Mg117 2.048 1_554 S
O125 C118 1.195 . S
O126 Mg117 2.048 1_554 S
O126 C127 1.195 . S
C127 O126 1.195 . S
C127 O128 1.313 . S
O128 C127 1.313 . S
O129 Mg117 2.141 . S
O129 C120 1.289 . S
Mg130 O137 2.141 . S
Mg130 O138 2.048 . S
Mg130 O139 2.048 . S
Mg130 O142 2.141 . S
C131 O132 1.313 . S
C131 O138 1.195 . S
O132 C131 1.313 . S
C133 O134 1.245 . S
C133 O142 1.289 . S
O134 C133 1.245 . S
C135 O136 1.245 . S
C135 O137 1.289 . S
O136 C135 1.245 . S
O137 Mg130 2.141 . S
O137 C135 1.289 . S
O138 Mg130 2.048 . S
O138 C131 1.195 . S
O139 Mg130 2.048 . S
O139 C140 1.195 . S
C140 O139 1.195 . S
C140 O141 1.313 . S
O141 C140 1.313 . S
O142 Mg130 2.141 . S
O142 C133 1.289 . S
Mg143 O150 2.141 . S
Mg143 O151 2.048 1_556 S
Mg143 O152 2.048 1_556 S
Mg143 O155 2.141 . S
C144 O145 1.313 . S
C144 O151 1.195 . S
O145 C144 1.313 . S
C146 O147 1.245 . S
C146 O155 1.289 . S
O147 C146 1.245 . S
C148 O149 1.245 . S
C148 O150 1.289 . S
O149 C148 1.245 . S
O150 Mg143 2.141 . S
O150 C148 1.289 . S
O151 Mg143 2.048 1_554 S
O151 C144 1.195 . S
O152 Mg143 2.048 1_554 S
O152 C153 1.195 . S
C153 O152 1.195 . S
C153 O154 1.313 . S
O154 C153 1.313 . S
O155 Mg143 2.141 . S
O155 C146 1.289 . S
Mg156 O163 2.141 . S
Mg156 O164 2.048 . S
Mg156 O165 2.048 . S
Mg156 O168 2.141 . S
C157 O158 1.313 . S
C157 O164 1.195 . S
O158 C157 1.313 . S
C159 O160 1.245 . S
C159 O168 1.289 . S
O160 C159 1.245 . S
C161 O162 1.245 . S
C161 O163 1.289 . S
O162 C161 1.245 . S
O163 Mg156 2.141 . S
O163 C161 1.289 . S
O164 Mg156 2.048 . S
O164 C157 1.195 . S
O165 Mg156 2.048 . S
O165 C166 1.195 . S
C166 O165 1.195 . S
C166 O167 1.313 . S
O167 C166 1.313 . S
O168 Mg156 2.141 . S
O168 C159 1.289 . S
Mg169 O176 2.141 . S
Mg169 O177 2.048 1_554 S
Mg169 O178 2.048 1_554 S
Mg169 O181 2.141 . S
C170 O171 1.313 . S
C170 O177 1.195 . S
O171 C170 1.313 . S
C172 O173 1.245 . S
C172 O181 1.289 . S
O173 C172 1.245 . S
C174 O175 1.245 . S
C174 O176 1.289 . S
O175 C174 1.245 . S
O176 Mg169 2.141 . S
O176 C174 1.289 . S
O177 Mg169 2.048 1_556 S
O177 C170 1.195 . S
O178 Mg169 2.048 1_556 S
O178 C179 1.195 . S
C179 O178 1.195 . S
C179 O180 1.313 . S
O180 C179 1.313 . S
O181 Mg169 2.141 . S
O181 C172 1.289 . S
Mg182 O189 2.141 . S
Mg182 O190 2.048 . S
Mg182 O191 2.048 . S
Mg182 O194 2.141 . S
C183 O184 1.313 . S
C183 O190 1.195 . S
O184 C183 1.313 . S
C185 O186 1.245 . S
C185 O194 1.289 . S
O186 C185 1.245 . S
C187 O188 1.245 . S
C187 O189 1.289 . S
O188 C187 1.245 . S
O189 Mg182 2.141 . S
O189 C187 1.289 . S
O190 Mg182 2.048 . S
O190 C183 1.195 . S
O191 Mg182 2.048 . S
O191 C192 1.195 . S
C192 O191 1.195 . S
C192 O193 1.313 . S
O193 C192 1.313 . S
O194 Mg182 2.141 . S
O194 C185 1.289 . S
Mg195 O202 2.141 . S
Mg195 O203 2.048 1_554 S
Mg195 O204 2.048 1_554 S
Mg195 O207 2.141 . S
C196 O197 1.313 . S
C196 O203 1.195 . S
O197 C196 1.313 . S
C198 O199 1.245 . S
C198 O207 1.289 . S
O199 C198 1.245 . S
C200 O201 1.245 . S
C200 O202 1.289 . S
O201 C200 1.245 . S
O202 Mg195 2.141 . S
O202 C200 1.289 . S
O203 Mg195 2.048 1_556 S
O203 C196 1.195 . S
O204 Mg195 2.048 1_556 S
O204 C205 1.195 . S
C205 O204 1.195 . S
C205 O206 1.313 . S
O206 C205 1.313 . S
O207 Mg195 2.141 . S
O207 C198 1.289 . S
Mg208 O215 2.141 . S
Mg208 O216 2.048 . S
Mg208 O217 2.048 . S
Mg208 O220 2.141 . S
C209 O210 1.313 . S
C209 O216 1.195 . S
O210 C209 1.313 . S
C211 O212 1.245 . S
C211 O220 1.289 . S
O212 C211 1.245 . S
C213 O214 1.245 . S
C213 O215 1.289 . S
O214 C213 1.245 . S
O215 Mg208 2.141 . S
O215 C213 1.289 . S
O216 Mg208 2.048 . S
O216 C209 1.195 . S
O217 Mg208 2.048 . S
O217 C218 1.195 . S
C218 O217 1.195 . S
C218 O219 1.313 . S
O219 C218 1.313 . S
O220 Mg208 2.141 . S
O220 C211 1.289 . S
Mg221 O228 2.141 . S
Mg221 O229 2.048 . S
Mg221 O230 2.048 . S
Mg221 O233 2.141 . S
C222 O223 1.313 . S
C222 O229 1.195 . S
O223 C222 1.313 . S
C224 O225 1.245 . S
C224 O233 1.289 . S
O225 C224 1.245 . S
C226 O227 1.245 . S
C226 O228 1.289 . S
O227 C226 1.245 . S
O228 Mg221 2.141 . S
O228 C226 1.289 . S
O229 Mg221 2.048 . S
O229 C222 1.195 . S
O230 Mg221 2.048 . S
O230 C231 1.195 . S
C231 O230 1.195 . S
C231 O232 1.313 . S
O232 C231 1.313 . S
O233 Mg221 2.141 . S
O233 C224 1.289 . S
Mg234 O241 2.141 . S
Mg234 O242 2.048 . S
Mg234 O243 2.048 . S
Mg234 O246 2.141 . S
C235 O236 1.313 . S
C235 O242 1.195 . S
O236 C235 1.313 . S
C237 O238 1.245 . S
C237 O246 1.289 . S
O238 C237 1.245 . S
C239 O240 1.245 . S
C239 O241 1.289 . S
O240 C239 1.245 . S
O241 Mg234 2.141 . S
O241 C239 1.289 . S
O242 Mg234 2.048 . S
O242 C235 1.195 . S
O243 Mg234 2.048 . S
O243 C244 1.195 . S
C244 O243 1.195 . S
C244 O245 1.313 . S
O245 C244 1.313 . S
O246 Mg234 2.141 . S
O246 C237 1.289 . S
Mg247 O254 2.141 . S
Mg247 O255 2.048 . S
Mg247 O256 2.048 . S
Mg247 O259 2.141 . S
C248 O249 1.313 . S
C248 O255 1.195 . S
O249 C248 1.313 . S
C250 O251 1.245 . S
C250 O259 1.289 . S
O251 C250 1.245 . S
C252 O253 1.245 . S
C252 O254 1.289 . S
O253 C252 1.245 . S
O254 Mg247 2.141 . S
O254 C252 1.289 . S
O255 Mg247 2.048 . S
O255 C248 1.195 . S
O256 Mg247 2.048 . S
O256 C257 1.195 . S
C257 O256 1.195 . S
C257 O258 1.313 . S
O258 C257 1.313 . S
O259 Mg247 2.141 . S
O259 C250 1.289 . S
Mg260 O267 2.141 . S
Mg260 O268 2.048 . S
Mg260 O269 2.048 . S
Mg260 O272 2.141 . S
C261 O262 1.313 . S
C261 O268 1.195 . S
O262 C261 1.313 . S
C263 O264 1.245 . S
C263 O272 1.289 . S
O264 C263 1.245 . S
C265 O266 1.245 . S
C265 O267 1.289 . S
O266 C265 1.245 . S
O267 Mg260 2.141 . S
O267 C265 1.289 . S
O268 Mg260 2.048 . S
O268 C261 1.195 . S
O269 Mg260 2.048 . S
O269 C270 1.195 . S
C270 O269 1.195 . S
C270 O271 1.313 . S
O271 C270 1.313 . S
O272 Mg260 2.141 . S
O272 C263 1.289 . S
Mg273 O280 2.141 . S
Mg273 O281 2.048 . S
Mg273 O282 2.048 . S
Mg273 O285 2.141 . S
C274 O275 1.313 . S
C274 O281 1.195 . S
O275 C274 1.313 . S
C276 O277 1.245 . S
C276 O285 1.289 . S
O277 C276 1.245 . S
C278 O279 1.245 . S
C278 O280 1.289 . S
O279 C278 1.245 . S
O280 Mg273 2.141 . S
O280 C278 1.289 . S
O281 Mg273 2.048 . S
O281 C274 1.195 . S
O282 Mg273 2.048 . S
O282 C283 1.195 . S
C283 O282 1.195 . S
C283 O284 1.313 . S
O284 C283 1.313 . S
O285 Mg273 2.141 . S
O285 C276 1.289 . S
Mg286 O293 2.141 . S
Mg286 O294 2.048 . S
Mg286 O295 2.048 . S
Mg286 O298 2.141 . S
C287 O288 1.313 . S
C287 O294 1.195 . S
O288 C287 1.313 . S
C289 O290 1.245 . S
C289 O298 1.289 . S
O290 C289 1.245 . S
C291 O292 1.245 . S
C291 O293 1.289 . S
O292 C291 1.245 . S
O293 Mg286 2.141 . S
O293 C291 1.289 . S
O294 Mg286 2.048 . S
O294 C287 1.195 . S
O295 Mg286 2.048 . S
O295 C296 1.195 . S
C296 O295 1.195 . S
C296 O297 1.313 . S
O297 C296 1.313 . S
O298 Mg286 2.141 . S
O298 C289 1.289 . S
Mg299 O306 2.141 1_545 S
Mg299 O307 2.048 . S
Mg299 O308 2.048 . S
Mg299 O311 2.141 1_545 S
C300 O301 1.313 . S
C300 O307 1.195 . S
O301 C300 1.313 . S
C302 O303 1.245 . S
C302 O311 1.289 . S
O303 C302 1.245 . S
C304 O305 1.245 . S
C304 O306 1.289 . S
O305 C304 1.245 . S
O306 Mg299 2.141 1_565 S
O306 C304 1.289 . S
O307 Mg299 2.048 . S
O307 C300 1.195 . S
O308 Mg299 2.048 . S
O308 C309 1.195 . S
C309 O308 1.195 . S
C309 O310 1.313 . S
O310 C309 1.313 . S
O311 Mg299 2.141 1_565 S
O311 C302 1.289 . S
Mg312 O319 2.141 . S
Mg312 O320 2.048 . S
Mg312 O321 2.048 . S
Mg312 O324 2.141 . S
C313 O314 1.313 . S
C313 O320 1.195 . S
O314 C313 1.313 . S
C315 O316 1.245 . S
C315 O324 1.289 . S
O316 C315 1.245 . S
C317 O318 1.245 . S
C317 O319 1.289 . S
O318 C317 1.245 . S
O319 Mg312 2.141 . S
O319 C317 1.289 . S
O320 Mg312 2.048 . S
O320 C313 1.195 . S
O321 Mg312 2.048 . S
O321 C322 1.195 . S
C322 O321 1.195 . S
C322 O323 1.313 . S
O323 C322 1.313 . S
O324 Mg312 2.141 . S
O324 C315 1.289 . S
Mg325 O332 2.141 . S
Mg325 O333 2.048 1_455 S
Mg325 O334 2.048 1_455 S
Mg325 O337 2.141 . S
C326 O327 1.313 . S
C326 O333 1.195 . S
O327 C326 1.313 . S
C328 O329 1.245 . S
C328 O337 1.289 . S
O329 C328 1.245 . S
C330 O331 1.245 . S
C330 O332 1.289 . S
O331 C330 1.245 . S
O332 Mg325 2.141 . S
O332 C330 1.289 . S
O333 Mg325 2.048 1_655 S
O333 C326 1.195 . S
O334 Mg325 2.048 1_655 S
O334 C335 1.195 . S
C335 O334 1.195 . S
C335 O336 1.313 . S
O336 C335 1.313 . S
O337 Mg325 2.141 . S
O337 C328 1.289 . S
Mg338 O345 2.141 . S
Mg338 O346 2.048 . S
Mg338 O347 2.048 . S
Mg338 O350 2.141 . S
C339 O340 1.313 . S
C339 O346 1.195 . S
O340 C339 1.313 . S
C341 O342 1.245 . S
C341 O350 1.289 . S
O342 C341 1.245 . S
C343 O344 1.245 . S
C343 O345 1.289 . S
O344 C343 1.245 . S
O345 Mg338 2.141 . S
O345 C343 1.289 . S
O346 Mg338 2.048 . S
O346 C339 1.195 . S
O347 Mg338 2.048 . S
O347 C348 1.195 . S
C348 O347 1.195 . S
C348 O349 1.313 . S
O349 C348 1.313 . S
O350 Mg338 2.141 . S
O350 C341 1.289 . S
Mg351 O358 2.141 . S
Mg351 O359 2.048 1_655 S
Mg351 O360 2.048 1_655 S
Mg351 O363 2.141 . S
C352 O353 1.313 . S
C352 O359 1.195 . S
O353 C352 1.313 . S
C354 O355 1.245 . S
C354 O363 1.289 . S
O355 C354 1.245 . S
C356 O357 1.245 . S
C356 O358 1.289 . S
O357 C356 1.245 . S
O358 Mg351 2.141 . S
O358 C356 1.289 . S
O359 Mg351 2.048 1_455 S
O359 C352 1.195 . S
O360 Mg351 2.048 1_455 S
O360 C361 1.195 . S
C361 O360 1.195 . S
C361 O362 1.313 . S
O362 C361 1.313 . S
O363 Mg351 2.141 . S
O363 C354 1.289 . S
Mg364 O371 2.141 . S
Mg364 O372 2.048 . S
Mg364 O373 2.048 . S
Mg364 O376 2.141 . S
C365 O366 1.313 . S
C365 O372 1.195 . S
O366 C365 1.313 . S
C367 O368 1.245 . S
C367 O376 1.289 . S
O368 C367 1.245 . S
C369 O370 1.245 . S
C369 O371 1.289 . S
O370 C369 1.245 . S
O371 Mg364 2.141 . S
O371 C369 1.289 . S
O372 Mg364 2.048 . S
O372 C365 1.195 . S
O373 Mg364 2.048 . S
O373 C374 1.195 . S
C374 O373 1.195 . S
C374 O375 1.313 . S
O375 C374 1.313 . S
O376 Mg364 2.141 . S
O376 C367 1.289 . S
Mg377 O384 2.141 . S
Mg377 O385 2.048 . S
Mg377 O386 2.048 . S
Mg377 O389 2.141 . S
C378 O379 1.313 . S
C378 O385 1.195 . S
O379 C378 1.313 . S
C380 O381 1.245 . S
C380 O389 1.289 . S
O381 C380 1.245 . S
C382 O383 1.245 . S
C382 O384 1.289 . S
O383 C382 1.245 . S
O384 Mg377 2.141 . S
O384 C382 1.289 . S
O385 Mg377 2.048 . S
O385 C378 1.195 . S
O386 Mg377 2.048 . S
O386 C387 1.195 . S
C387 O386 1.195 . S
C387 O388 1.313 . S
O388 C387 1.313 . S
O389 Mg377 2.141 . S
O389 C380 1.289 . S
Mg390 O397 2.141 . S
Mg390 O398 2.048 . S
Mg390 O399 2.048 . S
Mg390 O402 2.141 . S
C391 O392 1.313 . S
C391 O398 1.195 . S
O392 C391 1.313 . S
C393 O394 1.245 . S
C393 O402 1.289 . S
O394 C393 1.245 . S
C395 O396 1.245 . S
C395 O397 1.289 . S
O396 C395 1.245 . S
O397 Mg390 2.141 . S
O397 C395 1.289 . S
O398 Mg390 2.048 . S
O398 C391 1.195 . S
O399 Mg390 2.048 . S
O399 C400 1.195 . S
C400 O399 1.195 . S
C400 O401 1.313 . S
O401 C400 1.313 . S
O402 Mg390 2.141 . S
O402 C393 1.289 . S
Mg403 O410 2.141 . S
Mg403 O411 2.048 . S
Mg403 O412 2.048 . S
Mg403 O415 2.141 . S
C404 O405 1.313 . S
C404 O411 1.195 . S
O405 C404 1.313 . S
C406 O407 1.245 . S
C406 O415 1.289 . S
O407 C406 1.245 . S
C408 O409 1.245 . S
C408 O410 1.289 . S
O409 C408 1.245 . S
O410 Mg403 2.141 . S
O410 C408 1.289 . S
O411 Mg403 2.048 . S
O411 C404 1.195 . S
O412 Mg403 2.048 . S
O412 C413 1.195 . S
C413 O412 1.195 . S
C413 O414 1.313 . S
O414 C413 1.313 . S
O415 Mg403 2.141 . S
O415 C406 1.289 . S
Mg416 O423 2.141 . S
Mg416 O424 2.048 . S
Mg416 O425 2.048 . S
Mg416 O428 2.141 . S
C417 O418 1.313 . S
C417 O424 1.195 . S
O418 C417 1.313 . S
C419 O420 1.245 . S
C419 O428 1.289 . S
O420 C419 1.245 . S
C421 O422 1.245 . S
C421 O423 1.289 . S
O422 C421 1.245 . S
O423 Mg416 2.141 . S
O423 C421 1.289 . S
O424 Mg416 2.048 . S
O424 C417 1.195 . S
O425 Mg416 2.048 . S
O425 C426 1.195 . S
C426 O425 1.195 . S
C426 O427 1.313 . S
O427 C426 1.313 . S
O428 Mg416 2.141 . S
O428 C419 1.289 . S
Mg429 O436 2.141 . S
Mg429 O437 2.048 . S
Mg429 O438 2.048 . S
Mg429 O441 2.141 . S
C430 O431 1.313 . S
C430 O437 1.195 . S
O431 C430 1.313 . S
C432 O433 1.245 . S
C432 O441 1.289 . S
O433 C432 1.245 . S
C434 O435 1.245 . S
C434 O436 1.289 . S
O435 C434 1.245 . S
O436 Mg429 2.141 . S
O436 C434 1.289 . S
O437 Mg429 2.048 . S
O437 C430 1.195 . S
O438 Mg429 2.048 . S
O438 C439 1.195 . S
C439 O438 1.195 . S
C439 O440 1.313 . S
O440 C439 1.313 . S
O441 Mg429 2.141 . S
O441 C432 1.289 . S
Mg442 O449 2.141 . S
Mg442 O450 2.048 . S
Mg442 O451 2.048 . S
Mg442 O454 2.141 . S
C443 O444 1.313 . S
C443 O450 1.195 . S
O444 C443 1.313 . S
C445 O446 1.245 . S
C445 O454 1.289 . S
O446 C445 1.245 . S
C447 O448 1.245 . S
C447 O449 1.289 . S
O448 C447 1.245 . S
O449 Mg442 2.141 . S
O449 C447 1.289 . S
O450 Mg442 2.048 . S
O450 C443 1.195 . S
O451 Mg442 2.048 . S
O451 C452 1.195 . S
C452 O451 1.195 . S
C452 O453 1.313 . S
O453 C452 1.313 . S
O454 Mg442 2.141 . S
O454 C445 1.289 . S
Mg455 O462 2.141 . S
Mg455 O463 2.048 . S
Mg455 O464 2.048 . S
Mg455 O467 2.141 . S
C456 O457 1.313 . S
C456 O463 1.195 . S
O457 C456 1.313 . S
C458 O459 1.245 . S
C458 O467 1.289 . S
O459 C458 1.245 . S
C460 O461 1.245 . S
C460 O462 1.289 . S
O461 C460 1.245 . S
O462 Mg455 2.141 . S
O462 C460 1.289 . S
O463 Mg455 2.048 . S
O463 C456 1.195 . S
O464 Mg455 2.048 . S
O464 C465 1.195 . S
C465 O464 1.195 . S
C465 O466 1.313 . S
O466 C465 1.313 . S
O467 Mg455 2.141 . S
O467 C458 1.289 . S
Mg468 O475 2.141 . S
Mg468 O476 2.048 . S
Mg468 O477 2.048 . S
Mg468 O480 2.141 . S
C469 O470 1.313 . S
C469 O476 1.195 . S
O470 C469 1.313 . S
C471 O472 1.245 . S
C471 O480 1.289 . S
O472 C471 1.245 . S
C473 O474 1.245 . S
C473 O475 1.289 . S
O474 C473 1.245 . S
O475 Mg468 2.141 . S
O475 C473 1.289 . S
O476 Mg468 2.048 . S
O476 C469 1.195 . S
O477 Mg468 2.048 . S
O477 C478 1.195 . S
C478 O477 1.195 . S
C478 O479 1.313 . S
O479 C478 1.313 . S
O480 Mg468 2.141 . S
O480 C471 1.289 . S
Mg481 O488 2.141 . S
Mg481 O489 2.048 . S
Mg481 O490 2.048 . S
Mg481 O493 2.141 . S
C482 O483 1.313 . S
C482 O489 1.195 . S
O483 C482 1.313 . S
C484 O485 1.245 . S
C484 O493 1.289 . S
O485 C484 1.245 . S
C486 O487 1.245 . S
C486 O488 1.289 . S
O487 C486 1.245 . S
O488 Mg481 2.141 . S
O488 C486 1.289 . S
O489 Mg481 2.048 . S
O489 C482 1.195 . S
O490 Mg481 2.048 . S
O490 C491 1.195 . S
C491 O490 1.195 . S
C491 O492 1.313 . S
O492 C491 1.313 . S
O493 Mg481 2.141 . S
O493 C484 1.289 . S
Mg494 O501 2.141 . S
Mg494 O502 2.048 . S
Mg494 O503 2.048 . S
Mg494 O506 2.141 . S
C495 O496 1.313 . S
C495 O502 1.195 . S
O496 C495 1.313 . S
C497 O498 1.245 . S
C497 O506 1.289 . S
O498 C497 1.245 . S
C499 O500 1.245 . S
C499 O501 1.289 . S
O500 C499 1.245 . S
O501 Mg494 2.141 . S
O501 C499 1.289 . S
O502 Mg494 2.048 . S
O502 C495 1.195 . S
O503 Mg494 2.048 . S
O503 C504 1.195 . S
C504 O503 1.195 . S
C504 O505 1.313 . S
O505 C504 1.313 . S
O506 Mg494 2.141 . S
O506 C497 1.289 . S
Mg507 O514 2.141 . S
Mg507 O515 2.048 . S
Mg507 O516 2.048 . S
Mg507 O519 2.141 . S
C508 O509 1.313 . S
C508 O515 1.195 . S
O509 C508 1.313 . S
C510 O511 1.245 . S
C510 O519 1.289 . S
O511 C510 1.245 . S
C512 O513 1.245 . S
C512 O514 1.289 . S
O513 C512 1.245 . S
O514 Mg507 2.141 . S
O514 C512 1.289 . S
O515 Mg507 2.048 . S
O515 C508 1.195 . S
O516 Mg507 2.048 . S
O516 C517 1.195 . S
C517 O516 1.195 . S
C517 O518 1.313 . S
O518 C517 1.313 . S
O519 Mg507 2.141 . S
O519 C510 1.289 . S
Mg520 O527 2.141 . S
Mg520 O528 2.048 . S
Mg520 O529 2.048 . S
Mg520 O532 2.141 . S
C521 O522 1.313 . S
C521 O528 1.195 . S
O522 C521 1.313 . S
C523 O524 1.245 . S
C523 O532 1.289 . S
O524 C523 1.245 . S
C525 O526 1.245 . S
C525 O527 1.289 . S
O526 C525 1.245 . S
O527 Mg520 2.141 . S
O527 C525 1.289 . S
O528 Mg520 2.048 . S
O528 C521 1.195 . S
O529 Mg520 2.048 . S
O529 C530 1.195 . S
C530 O529 1.195 . S
C530 O531 1.313 . S
O531 C530 1.313 . S
O532 Mg520 2.141 . S
O532 C523 1.289 . S
Mg533 O540 2.141 . S
Mg533 O541 2.048 . S
Mg533 O542 2.048 . S
Mg533 O545 2.141 . S
C534 O535 1.313 . S
C534 O541 1.195 . S
O535 C534 1.313 . S
C536 O537 1.245 . S
C536 O545 1.289 . S
O537 C536 1.245 . S
C538 O539 1.245 . S
C538 O540 1.289 . S
O539 C538 1.245 . S
O540 Mg533 2.141 . S
O540 C538 1.289 . S
O541 Mg533 2.048 . S
O541 C534 1.195 . S
O542 Mg533 2.048 . S
O542 C543 1.195 . S
C543 O542 1.195 . S
C543 O544 1.313 . S
O544 C543 1.313 . S
O545 Mg533 2.141 . S
O545 C536 1.289 . S
Mg546 O553 2.141 1_545 S
Mg546 O554 2.048 . S
Mg546 O555 2.048 . S
Mg546 O558 2.141 1_545 S
C547 O548 1.313 . S
C547 O554 1.195 . S
O548 C547 1.313 . S
C549 O550 1.245 . S
C549 O558 1.289 . S
O550 C549 1.245 . S
C551 O552 1.245 . S
C551 O553 1.289 . S
O552 C551 1.245 . S
O553 Mg546 2.141 1_565 S
O553 C551 1.289 . S
O554 Mg546 2.048 . S
O554 C547 1.195 . S
O555 Mg546 2.048 . S
O555 C556 1.195 . S
C556 O555 1.195 . S
C556 O557 1.313 . S
O557 C556 1.313 . S
O558 Mg546 2.141 1_565 S
O558 C549 1.289 . S
Mg559 O566 2.141 . S
Mg559 O567 2.048 . S
Mg559 O568 2.048 . S
Mg559 O571 2.141 . S
C560 O561 1.313 . S
C560 O567 1.195 . S
O561 C560 1.313 . S
C562 O563 1.245 . S
C562 O571 1.289 . S
O563 C562 1.245 . S
C564 O565 1.245 . S
C564 O566 1.289 . S
O565 C564 1.245 . S
O566 Mg559 2.141 . S
O566 C564 1.289 . S
O567 Mg559 2.048 . S
O567 C560 1.195 . S
O568 Mg559 2.048 . S
O568 C569 1.195 . S
C569 O568 1.195 . S
C569 O570 1.313 . S
O570 C569 1.313 . S
O571 Mg559 2.141 . S
O571 C562 1.289 . S
Mg572 O579 2.141 1_565 S
Mg572 O580 2.048 . S
Mg572 O581 2.048 . S
Mg572 O584 2.141 1_565 S
C573 O574 1.313 . S
C573 O580 1.195 . S
O574 C573 1.313 . S
C575 O576 1.245 . S
C575 O584 1.289 . S
O576 C575 1.245 . S
C577 O578 1.245 . S
C577 O579 1.289 . S
O578 C577 1.245 . S
O579 Mg572 2.141 1_545 S
O579 C577 1.289 . S
O580 Mg572 2.048 . S
O580 C573 1.195 . S
O581 Mg572 2.048 . S
O581 C582 1.195 . S
C582 O581 1.195 . S
C582 O583 1.313 . S
O583 C582 1.313 . S
O584 Mg572 2.141 1_545 S
O584 C575 1.289 . S
Mg585 O592 2.141 . S
Mg585 O593 2.048 . S
Mg585 O594 2.048 . S
Mg585 O597 2.141 . S
C586 O587 1.313 . S
C586 O593 1.195 . S
O587 C586 1.313 . S
C588 O589 1.245 . S
C588 O597 1.289 . S
O589 C588 1.245 . S
C590 O591 1.245 . S
C590 O592 1.289 . S
O591 C590 1.245 . S
O592 Mg585 2.141 . S
O592 C590 1.289 . S
O593 Mg585 2.048 . S
O593 C586 1.195 . S
O594 Mg585 2.048 . S
O594 C595 1.195 . S
C595 O594 1.195 . S
C595 O596 1.313 . S
O596 C595 1.313 . S
O597 Mg585 2.141 . S
O597 C588 1.289 . S
Mg598 O605 2.141 1_565 S
Mg598 O606 2.048 . S
Mg598 O607 2.048 . S
Mg598 O610 2.141 1_565 S
C599 O600 1.313 . S
C599 O606 1.195 . S
O600 C599 1.313 . S
C601 O602 1.245 . S
C601 O610 1.289 . S
O602 C601 1.245 . S
C603 O604 1.245 . S
C603 O605 1.289 . S
O604 C603 1.245 . S
O605 Mg598 2.141 1_545 S
O605 C603 1.289 . S
O606 Mg598 2.048 . S
O606 C599 1.195 . S
O607 Mg598 2.048 . S
O607 C608 1.195 . S
C608 O607 1.195 . S
C608 O609 1.313 . S
O609 C608 1.313 . S
O610 Mg598 2.141 1_545 S
O610 C601 1.289 . S
Mg611 O618 2.141 . S
Mg611 O619 2.048 . S
Mg611 O620 2.048 . S
Mg611 O623 2.141 . S
C612 O613 1.313 . S
C612 O619 1.195 . S
O613 C612 1.313 . S
C614 O615 1.245 . S
C614 O623 1.289 . S
O615 C614 1.245 . S
C616 O617 1.245 . S
C616 O618 1.289 . S
O617 C616 1.245 . S
O618 Mg611 2.141 . S
O618 C616 1.289 . S
O619 Mg611 2.048 . S
O619 C612 1.195 . S
O620 Mg611 2.048 . S
O620 C621 1.195 . S
C621 O620 1.195 . S
C621 O622 1.313 . S
O622 C621 1.313 . S
O623 Mg611 2.141 . S
O623 C614 1.289 . S
H624 C630 0.930 . S
H625 C634 0.930 . S
H626 C639 0.929 . S
H627 C637 0.929 . S
H628 C632 0.929 . S
H629 C638 0.929 . S
C630 H624 0.930 . S
C630 C631 1.367 . S
C630 C638 1.378 . S
C631 C630 1.367 . S
C631 C639 1.433 . S
C632 H628 0.929 . S
C632 C634 1.378 . S
C632 C636 1.350 . S
C633 C636 1.463 . S
C633 C638 1.350 . S
C633 N641 1.427 . S
C634 H625 0.930 . S
C634 C632 1.378 . S
C634 C635 1.367 . S
C635 C634 1.367 . S
C635 C637 1.433 . S
C636 C632 1.350 . S
C636 C633 1.463 . S
C636 N640 1.427 . S
C637 H627 0.929 . S
C637 C635 1.433 . S
C637 N640 1.384 . S
C638 H629 0.929 . S
C638 C630 1.378 . S
C638 C633 1.350 . S
C639 H626 0.929 . S
C639 C631 1.433 . S
C639 N641 1.384 . S
N640 C636 1.427 . S
N640 C637 1.384 . S
N641 C633 1.427 . S
N641 C639 1.384 . S
H642 C648 0.930 . S
H643 C652 0.930 . S
H644 C657 0.929 . S
H645 C655 0.929 . S
H646 C650 0.929 . S
H647 C656 0.929 1_556 S
C648 H642 0.930 . S
C648 C649 1.367 . S
C648 C656 1.378 . S
C649 C648 1.367 . S
C649 C657 1.433 . S
C650 H646 0.929 . S
C650 C652 1.378 . S
C650 C654 1.350 . S
C651 C654 1.474 . S
C651 C656 1.347 1_556 S
C651 N659 1.419 1_556 S
C652 H643 0.930 . S
C652 C650 1.378 . S
C652 C653 1.367 . S
C653 C652 1.367 . S
C653 C655 1.433 . S
C654 C650 1.350 . S
C654 C651 1.474 . S
C654 N658 1.427 . S
C655 H645 0.929 . S
C655 C653 1.433 . S
C655 N658 1.384 . S
C656 H647 0.929 1_554 S
C656 C648 1.378 . S
C656 C651 1.347 1_554 S
C657 H644 0.929 . S
C657 C649 1.433 . S
C657 N659 1.384 . S
N658 C654 1.427 . S
N658 C655 1.384 . S
N659 C651 1.419 1_554 S
N659 C657 1.384 . S
H660 C666 0.930 . S
H661 C670 0.930 . S
H662 C675 0.929 . S
H663 C673 0.929 . S
H664 C668 0.929 . S
H665 C674 0.929 . S
C666 H660 0.930 . S
C666 C667 1.367 . S
C666 C674 1.378 . S
C667 C666 1.367 . S
C667 C675 1.433 . S
C668 H664 0.929 . S
C668 C670 1.378 . S
C668 C672 1.350 . S
C669 C672 1.463 . S
C669 C674 1.350 . S
C669 N677 1.427 . S
C670 H661 0.930 . S
C670 C668 1.378 . S
C670 C671 1.367 . S
C671 C670 1.367 . S
C671 C673 1.433 . S
C672 C668 1.350 . S
C672 C669 1.463 . S
C672 N676 1.427 . S
C673 H663 0.929 . S
C673 C671 1.433 . S
C673 N676 1.384 . S
C674 H665 0.929 . S
C674 C666 1.378 . S
C674 C669 1.350 . S
C675 H662 0.929 . S
C675 C667 1.433 . S
C675 N677 1.384 . S
N676 C672 1.427 . S
N676 C673 1.384 . S
N677 C669 1.427 . S
N677 C675 1.384 . S
H678 C684 0.930 . S
H679 C688 0.930 . S
H680 C693 0.929 . S
H681 C691 0.929 . S
H682 C686 0.929 . S
H683 C692 0.929 . S
C684 H678 0.930 . S
C684 C685 1.367 . S
C684 C692 1.378 . S
C685 C684 1.367 . S
C685 C693 1.433 . S
C686 H682 0.929 . S
C686 C688 1.378 . S
C686 C690 1.350 . S
C687 C690 1.463 1_556 S
C687 C692 1.350 . S
C687 N695 1.427 . S
C688 H679 0.930 . S
C688 C686 1.378 . S
C688 C689 1.367 . S
C689 C688 1.367 . S
C689 C691 1.433 . S
C690 C686 1.350 . S
C690 C687 1.463 1_554 S
C690 N694 1.427 . S
C691 H681 0.929 . S
C691 C689 1.433 . S
C691 N694 1.384 . S
C692 H683 0.929 . S
C692 C684 1.378 . S
C692 C687 1.350 . S
C693 H680 0.929 . S
C693 C685 1.433 . S
C693 N695 1.384 . S
N694 C690 1.427 . S
N694 C691 1.384 . S
N695 C687 1.427 . S
N695 C693 1.384 . S
H696 C702 0.930 . S
H697 C706 0.930 . S
H698 C711 0.929 . S
H699 C709 0.929 . S
H700 C704 0.929 . S
H701 C710 0.929 . S
C702 H696 0.930 . S
C702 C703 1.367 . S
C702 C710 1.378 . S
C703 C702 1.367 . S
C703 C711 1.433 . S
C704 H700 0.929 . S
C704 C706 1.378 . S
C704 C708 1.350 . S
C705 C708 1.463 . S
C705 C710 1.350 . S
C705 N713 1.427 . S
C706 H697 0.930 . S
C706 C704 1.378 . S
C706 C707 1.367 . S
C707 C706 1.367 . S
C707 C709 1.433 . S
C708 C704 1.350 . S
C708 C705 1.463 . S
C708 N712 1.427 . S
C709 H699 0.929 . S
C709 C707 1.433 . S
C709 N712 1.384 . S
C710 H701 0.929 . S
C710 C702 1.378 . S
C710 C705 1.350 . S
C711 H698 0.929 . S
C711 C703 1.433 . S
C711 N713 1.384 . S
N712 C708 1.427 . S
N712 C709 1.384 . S
N713 C705 1.427 . S
N713 C711 1.384 . S
H714 C720 0.930 . S
H715 C724 0.930 . S
H716 C729 0.929 . S
H717 C727 0.929 . S
H718 C722 0.929 . S
H719 C728 0.929 . S
C720 H714 0.930 . S
C720 C721 1.367 . S
C720 C728 1.378 . S
C721 C720 1.367 . S
C721 C729 1.433 . S
C722 H718 0.929 . S
C722 C724 1.378 . S
C722 C726 1.337 1_556 S
C723 C726 1.477 . S
C723 C728 1.350 . S
C723 N731 1.427 . S
C724 H715 0.930 . S
C724 C722 1.378 . S
C724 C725 1.367 . S
C725 C724 1.367 . S
C725 C727 1.433 . S
C726 C722 1.337 1_554 S
C726 C723 1.477 . S
C726 N730 1.426 1_554 S
C727 H717 0.929 . S
C727 C725 1.433 . S
C727 N730 1.419 . S
C728 H719 0.929 . S
C728 C720 1.378 . S
C728 C723 1.350 . S
C729 H716 0.929 . S
C729 C721 1.433 . S
C729 N731 1.384 . S
N730 C726 1.426 1_556 S
N730 C727 1.419 . S
N731 C723 1.427 . S
N731 C729 1.384 . S
H732 C738 0.930 . S
H733 C742 0.930 . S
H734 C747 0.929 . S
H735 C745 0.929 . S
H736 C740 0.929 . S
H737 C746 0.929 . S
C738 H732 0.930 . S
C738 C739 1.367 . S
C738 C746 1.378 . S
C739 C738 1.367 . S
C739 C747 1.433 . S
C740 H736 0.929 . S
C740 C742 1.378 . S
C740 C744 1.350 . S
C741 C744 1.463 . S
C741 C746 1.350 . S
C741 N749 1.427 . S
C742 H733 0.930 . S
C742 C740 1.378 . S
C742 C743 1.367 . S
C743 C742 1.367 . S
C743 C745 1.433 . S
C744 C740 1.350 . S
C744 C741 1.463 . S
C744 N748 1.427 . S
C745 H735 0.929 . S
C745 C743 1.433 . S
C745 N748 1.384 . S
C746 H737 0.929 . S
C746 C738 1.378 . S
C746 C741 1.350 . S
C747 H734 0.929 . S
C747 C739 1.433 . S
C747 N749 1.384 . S
N748 C744 1.427 . S
N748 C745 1.384 . S
N749 C741 1.427 . S
N749 C747 1.384 . S
H750 C756 0.930 . S
H751 C760 0.930 . S
H752 C765 0.929 . S
H753 C763 0.929 . S
H754 C758 0.929 . S
H755 C764 0.929 . S
C756 H750 0.930 . S
C756 C757 1.367 . S
C756 C764 1.378 . S
C757 C756 1.367 . S
C757 C765 1.433 . S
C758 H754 0.929 . S
C758 C760 1.378 . S
C758 C762 1.350 . S
C759 C762 1.463 1_556 S
C759 C764 1.350 . S
C759 N767 1.427 . S
C760 H751 0.930 . S
C760 C758 1.378 . S
C760 C761 1.367 . S
C761 C760 1.367 . S
C761 C763 1.433 . S
C762 C758 1.350 . S
C762 C759 1.463 1_554 S
C762 N766 1.427 . S
C763 H753 0.929 . S
C763 C761 1.433 . S
C763 N766 1.384 . S
C764 H755 0.929 . S
C764 C756 1.378 . S
C764 C759 1.350 . S
C765 H752 0.929 . S
C765 C757 1.433 . S
C765 N767 1.384 . S
N766 C762 1.427 . S
N766 C763 1.384 . S
N767 C759 1.427 . S
N767 C765 1.384 . S
H768 C774 0.930 . S
H769 C778 0.930 . S
H770 C783 0.929 . S
H771 C781 0.929 . S
H772 C776 0.929 . S
H773 C782 0.929 . S
C774 H768 0.930 . S
C774 C775 1.367 . S
C774 C782 1.378 . S
C775 C774 1.367 . S
C775 C783 1.433 . S
C776 H772 0.929 . S
C776 C778 1.378 . S
C776 C780 1.350 . S
C777 C780 1.463 . S
C777 C782 1.350 . S
C777 N785 1.427 . S
C778 H769 0.930 . S
C778 C776 1.378 . S
C778 C779 1.367 . S
C779 C778 1.367 . S
C779 C781 1.433 . S
C780 C776 1.350 . S
C780 C777 1.463 . S
C780 N784 1.427 . S
C781 H771 0.929 . S
C781 C779 1.433 . S
C781 N784 1.384 . S
C782 H773 0.929 . S
C782 C774 1.378 . S
C782 C777 1.350 . S
C783 H770 0.929 . S
C783 C775 1.433 . S
C783 N785 1.384 . S
N784 C780 1.427 . S
N784 C781 1.384 . S
N785 C777 1.427 . S
N785 C783 1.384 . S
H786 C792 0.930 . S
H787 C796 0.930 . S
H788 C801 0.929 . S
H789 C799 0.929 . S
H790 C794 0.929 . S
H791 C800 0.929 . S
C792 H786 0.930 . S
C792 C793 1.367 . S
C792 C800 1.378 . S
C793 C792 1.367 . S
C793 C801 1.433 . S
C794 H790 0.929 . S
C794 C796 1.378 . S
C794 C798 1.350 . S
C795 C798 1.463 . S
C795 C800 1.350 . S
C795 N803 1.427 . S
C796 H787 0.930 . S
C796 C794 1.378 . S
C796 C797 1.367 . S
C797 C796 1.367 . S
C797 C799 1.433 . S
C798 C794 1.350 . S
C798 C795 1.463 . S
C798 N802 1.427 . S
C799 H789 0.929 . S
C799 C797 1.433 . S
C799 N802 1.384 . S
C800 H791 0.929 . S
C800 C792 1.378 . S
C800 C795 1.350 . S
C801 H788 0.929 . S
C801 C793 1.433 . S
C801 N803 1.384 . S
N802 C798 1.427 . S
N802 C799 1.384 . S
N803 C795 1.427 . S
N803 C801 1.384 . S
H804 C810 0.930 . S
H805 C814 0.930 . S
H806 C819 0.929 . S
H807 C817 0.929 . S
H808 C812 0.929 . S
H809 C818 0.929 . S
C810 H804 0.930 . S
C810 C811 1.367 . S
C810 C818 1.378 . S
C811 C810 1.367 . S
C811 C819 1.433 . S
C812 H808 0.929 . S
C812 C814 1.378 . S
C812 C816 1.350 . S
C813 C816 1.463 . S
C813 C818 1.350 . S
C813 N821 1.427 . S
C814 H805 0.930 . S
C814 C812 1.378 . S
C814 C815 1.367 . S
C815 C814 1.367 . S
C815 C817 1.433 . S
C816 C812 1.350 . S
C816 C813 1.463 . S
C816 N820 1.427 . S
C817 H807 0.929 . S
C817 C815 1.433 . S
C817 N820 1.384 . S
C818 H809 0.929 . S
C818 C810 1.378 . S
C818 C813 1.350 . S
C819 H806 0.929 . S
C819 C811 1.433 . S
C819 N821 1.384 . S
N820 C816 1.427 . S
N820 C817 1.384 . S
N821 C813 1.427 . S
N821 C819 1.384 . S
H822 C828 0.930 . S
H823 C832 0.930 . S
H824 C837 0.929 . S
H825 C835 0.929 . S
H826 C830 0.929 . S
H827 C836 0.930 1_545 S
C828 H822 0.930 . S
C828 C829 1.367 . S
C828 C836 1.376 . S
C829 C828 1.367 . S
C829 C837 1.433 . S
C830 H826 0.929 . S
C830 C832 1.378 . S
C830 C834 1.350 . S
C831 C834 1.507 . S
C831 C836 1.349 1_545 S
C831 N839 1.386 1_545 S
C832 H823 0.930 . S
C832 C830 1.378 . S
C832 C833 1.367 . S
C833 C832 1.367 . S
C833 C835 1.433 . S
C834 C830 1.350 . S
C834 C831 1.507 . S
C834 N838 1.427 . S
C835 H825 0.929 . S
C835 C833 1.433 . S
C835 N838 1.384 . S
C836 H827 0.930 1_565 S
C836 C828 1.376 . S
C836 C831 1.349 1_565 S
C837 H824 0.929 . S
C837 C829 1.433 . S
C837 N839 1.384 . S
N838 C834 1.427 . S
N838 C835 1.384 . S
N839 C831 1.386 1_565 S
N839 C837 1.384 . S
H840 C846 0.930 . S
H841 C850 0.930 . S
H842 C855 0.929 . S
H843 C853 0.929 . S
H844 C848 0.929 . S
H845 C854 0.929 . S
C846 H840 0.930 . S
C846 C847 1.367 . S
C846 C854 1.378 . S
C847 C846 1.367 . S
C847 C855 1.433 . S
C848 H844 0.929 . S
C848 C850 1.378 . S
C848 C852 1.350 . S
C849 C852 1.463 . S
C849 C854 1.350 . S
C849 N857 1.427 . S
C850 H841 0.930 . S
C850 C848 1.378 . S
C850 C851 1.367 . S
C851 C850 1.367 . S
C851 C853 1.433 . S
C852 C848 1.350 . S
C852 C849 1.463 . S
C852 N856 1.427 . S
C853 H843 0.929 . S
C853 C851 1.433 . S
C853 N856 1.384 . S
C854 H845 0.929 . S
C854 C846 1.378 . S
C854 C849 1.350 . S
C855 H842 0.929 . S
C855 C847 1.433 . S
C855 N857 1.384 . S
N856 C852 1.427 . S
N856 C853 1.384 . S
N857 C849 1.427 . S
N857 C855 1.384 . S
H858 C864 0.930 . S
H859 C868 0.930 . S
H860 C873 0.929 . S
H861 C871 0.929 . S
H862 C866 0.929 . S
H863 C872 0.929 . S
C864 H858 0.930 . S
C864 C865 1.367 . S
C864 C872 1.378 . S
C865 C864 1.367 . S
C865 C873 1.433 . S
C866 H862 0.929 . S
C866 C868 1.378 . S
C866 C870 1.350 . S
C867 C870 1.463 . S
C867 C872 1.350 . S
C867 N875 1.427 . S
C868 H859 0.930 . S
C868 C866 1.378 . S
C868 C869 1.367 . S
C869 C868 1.367 . S
C869 C871 1.433 . S
C870 C866 1.350 . S
C870 C867 1.463 . S
C870 N874 1.427 . S
C871 H861 0.929 . S
C871 C869 1.433 . S
C871 N874 1.384 . S
C872 H863 0.929 . S
C872 C864 1.378 . S
C872 C867 1.350 . S
C873 H860 0.929 . S
C873 C865 1.433 . S
C873 N875 1.384 . S
N874 C870 1.427 . S
N874 C871 1.384 . S
N875 C867 1.427 . S
N875 C873 1.384 . S
H876 C882 0.930 . S
H877 C886 0.930 . S
H878 C891 0.929 . S
H879 C889 0.929 . S
H880 C884 0.929 . S
H881 C890 0.929 . S
C882 H876 0.930 . S
C882 C883 1.367 . S
C882 C890 1.378 . S
C883 C882 1.367 . S
C883 C891 1.433 . S
C884 H880 0.929 . S
C884 C886 1.378 . S
C884 C888 1.350 . S
C885 C888 1.463 . S
C885 C890 1.350 . S
C885 N893 1.427 . S
C886 H877 0.930 . S
C886 C884 1.378 . S
C886 C887 1.367 . S
C887 C886 1.367 . S
C887 C889 1.433 . S
C888 C884 1.350 . S
C888 C885 1.463 . S
C888 N892 1.427 . S
C889 H879 0.929 . S
C889 C887 1.433 . S
C889 N892 1.384 . S
C890 H881 0.929 . S
C890 C882 1.378 . S
C890 C885 1.350 . S
C891 H878 0.929 . S
C891 C883 1.433 . S
C891 N893 1.384 . S
N892 C888 1.427 . S
N892 C889 1.384 . S
N893 C885 1.427 . S
N893 C891 1.384 . S
H894 C900 0.930 . S
H895 C904 0.930 . S
H896 C909 0.929 . S
H897 C907 0.929 . S
H898 C902 0.929 . S
H899 C908 0.929 . S
C900 H894 0.930 . S
C900 C901 1.367 . S
C900 C908 1.378 . S
C901 C900 1.367 . S
C901 C909 1.433 . S
C902 H898 0.929 . S
C902 C904 1.378 . S
C902 C906 1.350 . S
C903 C906 1.463 1_545 S
C903 C908 1.350 . S
C903 N911 1.427 . S
C904 H895 0.930 . S
C904 C902 1.378 . S
C904 C905 1.367 . S
C905 C904 1.367 . S
C905 C907 1.433 . S
C906 C902 1.350 . S
C906 C903 1.463 1_565 S
C906 N910 1.427 . S
C907 H897 0.929 . S
C907 C905 1.433 . S
C907 N910 1.384 . S
C908 H899 0.929 . S
C908 C900 1.378 . S
C908 C903 1.350 . S
C909 H896 0.929 . S
C909 C901 1.433 . S
C909 N911 1.384 . S
N910 C906 1.427 . S
N910 C907 1.384 . S
N911 C903 1.427 . S
N911 C909 1.384 . S
H912 C918 0.930 . S
H913 C922 0.930 . S
H914 C927 0.929 . S
H915 C925 0.929 . S
H916 C920 0.929 . S
H917 C926 0.929 . S
C918 H912 0.930 . S
C918 C919 1.367 . S
C918 C926 1.378 . S
C919 C918 1.367 . S
C919 C927 1.433 . S
C920 H916 0.929 . S
C920 C922 1.378 . S
C920 C924 1.350 . S
C921 C924 1.463 . S
C921 C926 1.350 . S
C921 N929 1.427 . S
C922 H913 0.930 . S
C922 C920 1.378 . S
C922 C923 1.367 . S
C923 C922 1.367 . S
C923 C925 1.433 . S
C924 C920 1.350 . S
C924 C921 1.463 . S
C924 N928 1.427 . S
C925 H915 0.929 . S
C925 C923 1.433 . S
C925 N928 1.384 . S
C926 H917 0.929 . S
C926 C918 1.378 . S
C926 C921 1.350 . S
C927 H914 0.929 . S
C927 C919 1.433 . S
C927 N929 1.384 . S
N928 C924 1.427 . S
N928 C925 1.384 . S
N929 C921 1.427 . S
N929 C927 1.384 . S
H930 C936 0.930 . S
H931 C940 0.930 . S
H932 C945 0.929 . S
H933 C943 0.929 . S
H934 C938 0.929 . S
H935 C944 0.929 . S
C936 H930 0.930 . S
C936 C937 1.367 . S
C936 C944 1.378 . S
C937 C936 1.367 . S
C937 C945 1.433 . S
C938 H934 0.929 . S
C938 C940 1.378 . S
C938 C942 1.350 . S
C939 C942 1.463 . S
C939 C944 1.350 . S
C939 N947 1.427 . S
C940 H931 0.930 . S
C940 C938 1.378 . S
C940 C941 1.367 . S
C941 C940 1.367 . S
C941 C943 1.433 . S
C942 C938 1.350 . S
C942 C939 1.463 . S
C942 N946 1.427 . S
C943 H933 0.929 . S
C943 C941 1.433 . S
C943 N946 1.384 . S
C944 H935 0.929 . S
C944 C936 1.378 . S
C944 C939 1.350 . S
C945 H932 0.929 . S
C945 C937 1.433 . S
C945 N947 1.384 . S
N946 C942 1.427 . S
N946 C943 1.384 . S
N947 C939 1.427 . S
N947 C945 1.384 . S
H948 C954 0.930 . S
H949 C958 0.930 . S
H950 C963 0.929 . S
H951 C961 0.929 . S
H952 C956 0.942 . S
H953 C962 0.929 . S
C954 H948 0.930 . S
C954 C955 1.367 . S
C954 C962 1.378 . S
C955 C954 1.367 . S
C955 C963 1.433 . S
C956 H952 0.942 . S
C956 C958 1.378 . S
C956 C960 1.350 . S
C957 C960 1.463 1_655 S
C957 C962 1.350 . S
C957 N965 1.427 . S
C958 H949 0.930 . S
C958 C956 1.378 . S
C958 C959 1.367 . S
C959 C958 1.367 . S
C959 C961 1.433 . S
C960 C956 1.350 . S
C960 C957 1.463 1_455 S
C960 N964 1.427 . S
C961 H951 0.929 . S
C961 C959 1.433 . S
C961 N964 1.384 . S
C962 H953 0.929 . S
C962 C954 1.378 . S
C962 C957 1.350 . S
C963 H950 0.929 . S
C963 C955 1.433 . S
C963 N965 1.384 . S
N964 C960 1.427 . S
N964 C961 1.384 . S
N965 C957 1.427 . S
N965 C963 1.384 . S
H966 C972 0.930 . S
H967 C976 0.930 . S
H968 C981 0.929 . S
H969 C979 0.929 . S
H970 C974 0.929 . S
H971 C980 0.929 . S
C972 H966 0.930 . S
C972 C973 1.367 . S
C972 C980 1.378 . S
C973 C972 1.367 . S
C973 C981 1.433 . S
C974 H970 0.929 . S
C974 C976 1.378 . S
C974 C978 1.350 . S
C975 C978 1.463 . S
C975 C980 1.350 . S
C975 N983 1.427 . S
C976 H967 0.930 . S
C976 C974 1.378 . S
C976 C977 1.367 . S
C977 C976 1.367 . S
C977 C979 1.433 . S
C978 C974 1.350 . S
C978 C975 1.463 . S
C978 N982 1.427 . S
C979 H969 0.929 . S
C979 C977 1.433 . S
C979 N982 1.384 . S
C980 H971 0.929 . S
C980 C972 1.378 . S
C980 C975 1.350 . S
C981 H968 0.929 . S
C981 C973 1.433 . S
C981 N983 1.384 . S
N982 C978 1.427 . S
N982 C979 1.384 . S
N983 C975 1.427 . S
N983 C981 1.384 . S
H984 C990 0.930 . S
H985 C994 0.930 . S
H986 C999 0.929 . S
H987 C997 0.929 . S
H988 C992 0.929 . S
H989 C998 0.929 . S
C990 H984 0.930 . S
C990 C991 1.367 . S
C990 C998 1.378 . S
C991 C990 1.367 . S
C991 C999 1.433 . S
C992 H988 0.929 . S
C992 C994 1.378 . S
C992 C996 1.350 . S
C993 C996 1.463 . S
C993 C998 1.350 . S
C993 N1001 1.427 . S
C994 H985 0.930 . S
C994 C992 1.378 . S
C994 C995 1.367 . S
C995 C994 1.367 . S
C995 C997 1.433 . S
C996 C992 1.350 . S
C996 C993 1.463 . S
C996 N1000 1.427 . S
C997 H987 0.929 . S
C997 C995 1.433 . S
C997 N1000 1.384 . S
C998 H989 0.929 . S
C998 C990 1.378 . S
C998 C993 1.350 . S
C999 H986 0.929 . S
C999 C991 1.433 . S
C999 N1001 1.384 . S
N1000 C996 1.427 . S
N1000 C997 1.384 . S
N1001 C993 1.427 . S
N1001 C999 1.384 . S
H1002 C1008 0.930 . S
H1003 C1012 0.930 . S
H1004 C1017 0.929 . S
H1005 C1015 0.929 . S
H1006 C1010 0.929 . S
H1007 C1016 0.929 . S
C1008 H1002 0.930 . S
C1008 C1009 1.367 . S
C1008 C1016 1.378 . S
C1009 C1008 1.367 . S
C1009 C1017 1.433 . S
C1010 H1006 0.929 . S
C1010 C1012 1.378 . S
C1010 C1014 1.350 . S
C1011 C1014 1.463 . S
C1011 C1016 1.350 . S
C1011 N1019 1.427 . S
C1012 H1003 0.930 . S
C1012 C1010 1.378 . S
C1012 C1013 1.367 . S
C1013 C1012 1.367 . S
C1013 C1015 1.433 . S
C1014 C1010 1.350 . S
C1014 C1011 1.463 . S
C1014 N1018 1.427 . S
C1015 H1005 0.929 . S
C1015 C1013 1.433 . S
C1015 N1018 1.384 . S
C1016 H1007 0.929 . S
C1016 C1008 1.378 . S
C1016 C1011 1.350 . S
C1017 H1004 0.929 . S
C1017 C1009 1.433 . S
C1017 N1019 1.384 . S
N1018 C1014 1.427 . S
N1018 C1015 1.384 . S
N1019 C1011 1.427 . S
N1019 C1017 1.384 . S
H1020 C1026 0.930 . S
H1021 C1030 0.930 . S
H1022 C1035 0.929 . S
H1023 C1033 0.929 . S
H1024 C1028 0.929 . S
H1025 C1034 0.929 1_655 S
C1026 H1020 0.930 . S
C1026 C1027 1.367 . S
C1026 C1034 1.378 . S
C1027 C1026 1.367 . S
C1027 C1035 1.433 . S
C1028 H1024 0.929 . S
C1028 C1030 1.378 . S
C1028 C1032 1.350 . S
C1029 C1032 1.479 . S
C1029 C1034 1.347 1_655 S
C1029 N1037 1.414 1_655 S
C1030 H1021 0.930 . S
C1030 C1028 1.378 . S
C1030 C1031 1.367 . S
C1031 C1030 1.367 . S
C1031 C1033 1.433 . S
C1032 C1028 1.350 . S
C1032 C1029 1.479 . S
C1032 N1036 1.427 . S
C1033 H1023 0.929 . S
C1033 C1031 1.433 . S
C1033 N1036 1.384 . S
C1034 H1025 0.929 1_455 S
C1034 C1026 1.378 . S
C1034 C1029 1.347 1_455 S
C1035 H1022 0.929 . S
C1035 C1027 1.433 . S
C1035 N1037 1.384 . S
N1036 C1032 1.427 . S
N1036 C1033 1.384 . S
N1037 C1029 1.414 1_455 S
N1037 C1035 1.384 . S
H1038 C1044 0.930 . S
H1039 C1048 0.930 . S
H1040 C1053 0.929 . S
H1041 C1051 0.929 . S
H1042 C1046 0.929 . S
H1043 C1052 0.929 . S
C1044 H1038 0.930 . S
C1044 C1045 1.367 . S
C1044 C1052 1.378 . S
C1045 C1044 1.367 . S
C1045 C1053 1.433 . S
C1046 H1042 0.929 . S
C1046 C1048 1.378 . S
C1046 C1050 1.350 . S
C1047 C1050 1.484 . S
C1047 C1052 1.335 1_455 S
C1047 N1055 1.422 1_455 S
C1048 H1039 0.930 . S
C1048 C1046 1.378 . S
C1048 C1049 1.367 . S
C1049 C1048 1.367 . S
C1049 C1051 1.433 . S
C1050 C1046 1.350 . S
C1050 C1047 1.484 . S
C1050 N1054 1.427 . S
C1051 H1041 0.929 . S
C1051 C1049 1.433 . S
C1051 N1054 1.384 . S
C1052 H1043 0.929 . S
C1052 C1044 1.378 . S
C1052 C1047 1.335 1_655 S
C1053 H1040 0.929 . S
C1053 C1045 1.433 . S
C1053 N1055 1.384 . S
N1054 C1050 1.427 . S
N1054 C1051 1.384 . S
N1055 C1047 1.422 1_655 S
N1055 C1053 1.384 . S
H1056 C1062 0.930 . S
H1057 C1066 0.930 . S
H1058 C1071 0.929 . S
H1059 C1069 0.929 . S
H1060 C1064 0.929 . S
H1061 C1070 0.929 . S
C1062 H1056 0.930 . S
C1062 C1063 1.367 . S
C1062 C1070 1.378 . S
C1063 C1062 1.367 . S
C1063 C1071 1.433 . S
C1064 H1060 0.929 . S
C1064 C1066 1.378 . S
C1064 C1068 1.350 . S
C1065 C1068 1.463 . S
C1065 C1070 1.350 . S
C1065 N1073 1.427 . S
C1066 H1057 0.930 . S
C1066 C1064 1.378 . S
C1066 C1067 1.367 . S
C1067 C1066 1.367 . S
C1067 C1069 1.433 . S
C1068 C1064 1.350 . S
C1068 C1065 1.463 . S
C1068 N1072 1.427 . S
C1069 H1059 0.929 . S
C1069 C1067 1.433 . S
C1069 N1072 1.384 . S
C1070 H1061 0.929 . S
C1070 C1062 1.378 . S
C1070 C1065 1.350 . S
C1071 H1058 0.929 . S
C1071 C1063 1.433 . S
C1071 N1073 1.384 . S
N1072 C1068 1.427 . S
N1072 C1069 1.384 . S
N1073 C1065 1.427 . S
N1073 C1071 1.384 . S
H1074 C1080 0.930 . S
H1075 C1084 0.930 . S
H1076 C1089 0.929 . S
H1077 C1087 0.929 . S
H1078 C1082 0.929 . S
H1079 C1088 0.929 . S
C1080 H1074 0.930 . S
C1080 C1081 1.367 . S
C1080 C1088 1.378 . S
C1081 C1080 1.367 . S
C1081 C1089 1.433 . S
C1082 H1078 0.929 . S
C1082 C1084 1.378 . S
C1082 C1086 1.350 . S
C1083 C1086 1.463 . S
C1083 C1088 1.350 . S
C1083 N1091 1.427 . S
C1084 H1075 0.930 . S
C1084 C1082 1.378 . S
C1084 C1085 1.367 . S
C1085 C1084 1.367 . S
C1085 C1087 1.433 . S
C1086 C1082 1.350 . S
C1086 C1083 1.463 . S
C1086 N1090 1.427 . S
C1087 H1077 0.929 . S
C1087 C1085 1.433 . S
C1087 N1090 1.384 . S
C1088 H1079 0.929 . S
C1088 C1080 1.378 . S
C1088 C1083 1.350 . S
C1089 H1076 0.929 . S
C1089 C1081 1.433 . S
C1089 N1091 1.384 . S
N1090 C1086 1.427 . S
N1090 C1087 1.384 . S
N1091 C1083 1.427 . S
N1091 C1089 1.384 . S
H1092 C1098 0.930 . S
H1093 C1102 0.930 . S
H1094 C1107 0.929 . S
H1095 C1105 0.929 . S
H1096 C1100 0.929 . S
H1097 C1106 0.929 . S
C1098 H1092 0.930 . S
C1098 C1099 1.367 . S
C1098 C1106 1.378 . S
C1099 C1098 1.367 . S
C1099 C1107 1.433 . S
C1100 H1096 0.929 . S
C1100 C1102 1.378 . S
C1100 C1104 1.350 . S
C1101 C1104 1.463 . S
C1101 C1106 1.350 . S
C1101 N1109 1.427 . S
C1102 H1093 0.930 . S
C1102 C1100 1.378 . S
C1102 C1103 1.367 . S
C1103 C1102 1.367 . S
C1103 C1105 1.433 . S
C1104 C1100 1.350 . S
C1104 C1101 1.463 . S
C1104 N1108 1.427 . S
C1105 H1095 0.929 . S
C1105 C1103 1.433 . S
C1105 N1108 1.384 . S
C1106 H1097 0.929 . S
C1106 C1098 1.378 . S
C1106 C1101 1.350 . S
C1107 H1094 0.929 . S
C1107 C1099 1.433 . S
C1107 N1109 1.384 . S
N1108 C1104 1.427 . S
N1108 C1105 1.384 . S
N1109 C1101 1.427 . S
N1109 C1107 1.384 . S
H1110 C1116 0.930 . S
H1111 C1120 0.930 . S
H1112 C1125 0.929 . S
H1113 C1123 0.929 . S
H1114 C1118 0.929 . S
H1115 C1124 0.929 . S
C1116 H1110 0.930 . S
C1116 C1117 1.367 . S
C1116 C1124 1.378 . S
C1117 C1116 1.367 . S
C1117 C1125 1.433 . S
C1118 H1114 0.929 . S
C1118 C1120 1.378 . S
C1118 C1122 1.350 . S
C1119 C1122 1.463 . S
C1119 C1124 1.350 . S
C1119 N1127 1.427 . S
C1120 H1111 0.930 . S
C1120 C1118 1.378 . S
C1120 C1121 1.367 . S
C1121 C1120 1.367 . S
C1121 C1123 1.433 . S
C1122 C1118 1.350 . S
C1122 C1119 1.463 . S
C1122 N1126 1.427 . S
C1123 H1113 0.929 . S
C1123 C1121 1.433 . S
C1123 N1126 1.384 . S
C1124 H1115 0.929 . S
C1124 C1116 1.378 . S
C1124 C1119 1.350 . S
C1125 H1112 0.929 . S
C1125 C1117 1.433 . S
C1125 N1127 1.384 . S
N1126 C1122 1.427 . S
N1126 C1123 1.384 . S
N1127 C1119 1.427 . S
N1127 C1125 1.384 . S
H1128 C1134 0.930 . S
H1129 C1138 0.930 . S
H1130 C1143 0.929 . S
H1131 C1141 0.929 . S
H1132 C1136 0.929 . S
H1133 C1142 0.929 . S
C1134 H1128 0.930 . S
C1134 C1135 1.367 . S
C1134 C1142 1.378 . S
C1135 C1134 1.367 . S
C1135 C1143 1.433 . S
C1136 H1132 0.929 . S
C1136 C1138 1.378 . S
C1136 C1140 1.350 . S
C1137 C1140 1.463 . S
C1137 C1142 1.350 . S
C1137 N1145 1.427 . S
C1138 H1129 0.930 . S
C1138 C1136 1.378 . S
C1138 C1139 1.367 . S
C1139 C1138 1.367 . S
C1139 C1141 1.433 . S
C1140 C1136 1.350 . S
C1140 C1137 1.463 . S
C1140 N1144 1.427 . S
C1141 H1131 0.929 . S
C1141 C1139 1.433 . S
C1141 N1144 1.384 . S
C1142 H1133 0.929 . S
C1142 C1134 1.378 . S
C1142 C1137 1.350 . S
C1143 H1130 0.929 . S
C1143 C1135 1.433 . S
C1143 N1145 1.384 . S
N1144 C1140 1.427 . S
N1144 C1141 1.384 . S
N1145 C1137 1.427 . S
N1145 C1143 1.384 . S
H1146 C1152 0.930 . S
H1147 C1156 0.930 . S
H1148 C1161 0.929 . S
H1149 C1159 0.929 . S
H1150 C1154 0.929 . S
H1151 C1160 0.929 . S
C1152 H1146 0.930 . S
C1152 C1153 1.367 . S
C1152 C1160 1.378 . S
C1153 C1152 1.367 . S
C1153 C1161 1.433 . S
C1154 H1150 0.929 . S
C1154 C1156 1.378 . S
C1154 C1158 1.350 . S
C1155 C1158 1.463 . S
C1155 C1160 1.350 . S
C1155 N1163 1.427 . S
C1156 H1147 0.930 . S
C1156 C1154 1.378 . S
C1156 C1157 1.367 . S
C1157 C1156 1.367 . S
C1157 C1159 1.433 . S
C1158 C1154 1.350 . S
C1158 C1155 1.463 . S
C1158 N1162 1.427 . S
C1159 H1149 0.929 . S
C1159 C1157 1.433 . S
C1159 N1162 1.384 . S
C1160 H1151 0.929 . S
C1160 C1152 1.378 . S
C1160 C1155 1.350 . S
C1161 H1148 0.929 . S
C1161 C1153 1.433 . S
C1161 N1163 1.384 . S
N1162 C1158 1.427 . S
N1162 C1159 1.384 . S
N1163 C1155 1.427 . S
N1163 C1161 1.384 . S
H1164 C1170 0.930 . S
H1165 C1174 0.930 . S
H1166 C1179 0.929 . S
H1167 C1177 0.929 . S
H1168 C1172 0.929 . S
H1169 C1178 0.929 . S
C1170 H1164 0.930 . S
C1170 C1171 1.367 . S
C1170 C1178 1.378 . S
C1171 C1170 1.367 . S
C1171 C1179 1.433 . S
C1172 H1168 0.929 . S
C1172 C1174 1.378 . S
C1172 C1176 1.350 . S
C1173 C1176 1.463 . S
C1173 C1178 1.350 . S
C1173 N1181 1.427 . S
C1174 H1165 0.930 . S
C1174 C1172 1.378 . S
C1174 C1175 1.367 . S
C1175 C1174 1.367 . S
C1175 C1177 1.433 . S
C1176 C1172 1.350 . S
C1176 C1173 1.463 . S
C1176 N1180 1.427 . S
C1177 H1167 0.929 . S
C1177 C1175 1.433 . S
C1177 N1180 1.384 . S
C1178 H1169 0.929 . S
C1178 C1170 1.378 . S
C1178 C1173 1.350 . S
C1179 H1166 0.929 . S
C1179 C1171 1.433 . S
C1179 N1181 1.384 . S
N1180 C1176 1.427 . S
N1180 C1177 1.384 . S
N1181 C1173 1.427 . S
N1181 C1179 1.384 . S
H1182 C1188 0.930 . S
H1183 C1192 0.930 . S
H1184 C1197 0.929 . S
H1185 C1195 0.929 . S
H1186 C1190 0.929 . S
H1187 C1196 0.929 . S
C1188 H1182 0.930 . S
C1188 C1189 1.367 . S
C1188 C1196 1.378 . S
C1189 C1188 1.367 . S
C1189 C1197 1.433 . S
C1190 H1186 0.929 . S
C1190 C1192 1.378 . S
C1190 C1194 1.350 . S
C1191 C1194 1.463 . S
C1191 C1196 1.350 . S
C1191 N1199 1.427 . S
C1192 H1183 0.930 . S
C1192 C1190 1.378 . S
C1192 C1193 1.367 . S
C1193 C1192 1.367 . S
C1193 C1195 1.433 . S
C1194 C1190 1.350 . S
C1194 C1191 1.463 . S
C1194 N1198 1.427 . S
C1195 H1185 0.929 . S
C1195 C1193 1.433 . S
C1195 N1198 1.384 . S
C1196 H1187 0.929 . S
C1196 C1188 1.378 . S
C1196 C1191 1.350 . S
C1197 H1184 0.929 . S
C1197 C1189 1.433 . S
C1197 N1199 1.384 . S
N1198 C1194 1.427 . S
N1198 C1195 1.384 . S
N1199 C1191 1.427 . S
N1199 C1197 1.384 . S
H1200 C1206 0.930 . S
H1201 C1210 0.930 . S
H1202 C1215 0.929 . S
H1203 C1213 0.929 . S
H1204 C1208 0.929 . S
H1205 C1214 0.929 . S
C1206 H1200 0.930 . S
C1206 C1207 1.367 . S
C1206 C1214 1.378 . S
C1207 C1206 1.367 . S
C1207 C1215 1.433 . S
C1208 H1204 0.929 . S
C1208 C1210 1.378 . S
C1208 C1212 1.350 . S
C1209 C1212 1.463 . S
C1209 C1214 1.350 . S
C1209 N1217 1.427 . S
C1210 H1201 0.930 . S
C1210 C1208 1.378 . S
C1210 C1211 1.367 . S
C1211 C1210 1.367 . S
C1211 C1213 1.433 . S
C1212 C1208 1.350 . S
C1212 C1209 1.463 . S
C1212 N1216 1.427 . S
C1213 H1203 0.929 . S
C1213 C1211 1.433 . S
C1213 N1216 1.384 . S
C1214 H1205 0.929 . S
C1214 C1206 1.378 . S
C1214 C1209 1.350 . S
C1215 H1202 0.929 . S
C1215 C1207 1.433 . S
C1215 N1217 1.384 . S
N1216 C1212 1.427 . S
N1216 C1213 1.384 . S
N1217 C1209 1.427 . S
N1217 C1215 1.384 . S
H1218 C1224 0.930 . S
H1219 C1228 0.930 . S
H1220 C1233 0.929 . S
H1221 C1231 0.929 . S
H1222 C1226 0.929 1_565 S
H1223 C1232 0.929 . S
C1224 H1218 0.930 . S
C1224 C1225 1.367 . S
C1224 C1232 1.378 . S
C1225 C1224 1.367 . S
C1225 C1233 1.433 . S
C1226 H1222 0.929 1_545 S
C1226 C1228 1.378 . S
C1226 C1230 1.350 . S
C1227 C1230 1.463 1_565 S
C1227 C1232 1.350 . S
C1227 N1235 1.427 . S
C1228 H1219 0.930 . S
C1228 C1226 1.378 . S
C1228 C1229 1.367 . S
C1229 C1228 1.367 . S
C1229 C1231 1.433 . S
C1230 C1226 1.350 . S
C1230 C1227 1.463 1_545 S
C1230 N1234 1.427 . S
C1231 H1221 0.929 . S
C1231 C1229 1.433 . S
C1231 N1234 1.384 . S
C1232 H1223 0.929 . S
C1232 C1224 1.378 . S
C1232 C1227 1.350 . S
C1233 H1220 0.929 . S
C1233 C1225 1.433 . S
C1233 N1235 1.384 . S
N1234 C1230 1.427 . S
N1234 C1231 1.384 . S
N1235 C1227 1.427 . S
N1235 C1233 1.384 . S
H1236 C1242 0.930 . S
H1237 C1246 0.930 . S
H1238 C1251 0.929 . S
H1239 C1249 0.929 . S
H1240 C1244 0.929 . S
H1241 C1250 0.929 . S
C1242 H1236 0.930 . S
C1242 C1243 1.367 . S
C1242 C1250 1.378 . S
C1243 C1242 1.367 . S
C1243 C1251 1.433 . S
C1244 H1240 0.929 . S
C1244 C1246 1.378 . S
C1244 C1248 1.350 . S
C1245 C1248 1.463 . S
C1245 C1250 1.350 . S
C1245 N1253 1.427 . S
C1246 H1237 0.930 . S
C1246 C1244 1.378 . S
C1246 C1247 1.367 . S
C1247 C1246 1.367 . S
C1247 C1249 1.433 . S
C1248 C1244 1.350 . S
C1248 C1245 1.463 . S
C1248 N1252 1.427 . S
C1249 H1239 0.929 . S
C1249 C1247 1.433 . S
C1249 N1252 1.384 . S
C1250 H1241 0.929 . S
C1250 C1242 1.378 . S
C1250 C1245 1.350 . S
C1251 H1238 0.929 . S
C1251 C1243 1.433 . S
C1251 N1253 1.384 . S
N1252 C1248 1.427 . S
N1252 C1249 1.384 . S
N1253 C1245 1.427 . S
N1253 C1251 1.384 . S
H1254 C1260 0.930 . S
H1255 C1264 0.930 . S
H1256 C1269 0.929 . S
H1257 C1267 0.929 . S
H1258 C1262 0.929 . S
H1259 C1268 0.929 . S
C1260 H1254 0.930 . S
C1260 C1261 1.367 . S
C1260 C1268 1.378 . S
C1261 C1260 1.367 . S
C1261 C1269 1.433 . S
C1262 H1258 0.929 . S
C1262 C1264 1.378 . S
C1262 C1266 1.350 . S
C1263 C1266 1.463 . S
C1263 C1268 1.350 . S
C1263 N1271 1.427 . S
C1264 H1255 0.930 . S
C1264 C1262 1.378 . S
C1264 C1265 1.367 . S
C1265 C1264 1.367 . S
C1265 C1267 1.433 . S
C1266 C1262 1.350 . S
C1266 C1263 1.463 . S
C1266 N1270 1.427 . S
C1267 H1257 0.929 . S
C1267 C1265 1.433 . S
C1267 N1270 1.384 . S
C1268 H1259 0.929 . S
C1268 C1260 1.378 . S
C1268 C1263 1.350 . S
C1269 H1256 0.929 . S
C1269 C1261 1.433 . S
C1269 N1271 1.384 . S
N1270 C1266 1.427 . S
N1270 C1267 1.384 . S
N1271 C1263 1.427 . S
N1271 C1269 1.384 . S
H1272 C1278 0.930 . S
H1273 C1282 0.930 . S
H1274 C1287 0.929 . S
H1275 C1285 0.929 . S
H1276 C1280 0.929 . S
H1277 C1286 0.929 . S
C1278 H1272 0.930 . S
C1278 C1279 1.367 . S
C1278 C1286 1.378 . S
C1279 C1278 1.367 . S
C1279 C1287 1.433 . S
C1280 H1276 0.929 . S
C1280 C1282 1.378 . S
C1280 C1284 1.350 . S
C1281 C1284 1.463 . S
C1281 C1286 1.350 . S
C1281 N1289 1.427 . S
C1282 H1273 0.930 . S
C1282 C1280 1.378 . S
C1282 C1283 1.367 . S
C1283 C1282 1.367 . S
C1283 C1285 1.433 . S
C1284 C1280 1.350 . S
C1284 C1281 1.463 . S
C1284 N1288 1.427 . S
C1285 H1275 0.929 . S
C1285 C1283 1.433 . S
C1285 N1288 1.384 . S
C1286 H1277 0.929 . S
C1286 C1278 1.378 . S
C1286 C1281 1.350 . S
C1287 H1274 0.929 . S
C1287 C1279 1.433 . S
C1287 N1289 1.384 . S
N1288 C1284 1.427 . S
N1288 C1285 1.384 . S
N1289 C1281 1.427 . S
N1289 C1287 1.384 . S
H1290 C1296 0.930 . S
H1291 C1300 0.930 . S
H1292 C1305 0.929 . S
H1293 C1303 0.929 . S
H1294 C1298 0.929 . S
H1295 C1304 0.929 . S
C1296 H1290 0.930 . S
C1296 C1297 1.367 . S
C1296 C1304 1.378 . S
C1297 C1296 1.367 . S
C1297 C1305 1.433 . S
C1298 H1294 0.929 . S
C1298 C1300 1.378 . S
C1298 C1302 1.348 1_545 S
C1299 C1302 1.467 . S
C1299 C1304 1.350 . S
C1299 N1307 1.427 . S
C1300 H1291 0.930 . S
C1300 C1298 1.378 . S
C1300 C1301 1.367 . S
C1301 C1300 1.367 . S
C1301 C1303 1.433 . S
C1302 C1298 1.348 1_565 S
C1302 C1299 1.467 . S
C1302 N1306 1.425 1_565 S
C1303 H1293 0.929 . S
C1303 C1301 1.433 . S
C1303 N1306 1.384 . S
C1304 H1295 0.929 . S
C1304 C1296 1.378 . S
C1304 C1299 1.350 . S
C1305 H1292 0.929 . S
C1305 C1297 1.433 . S
C1305 N1307 1.384 . S
N1306 C1302 1.425 1_545 S
N1306 C1303 1.384 . S
N1307 C1299 1.427 . S
N1307 C1305 1.384 . S
H1308 C1314 0.930 . S
H1309 C1318 0.930 . S
H1310 C1323 0.929 . S
H1311 C1321 0.929 . S
H1312 C1316 0.929 . S
H1313 C1322 0.929 . S
C1314 H1308 0.930 . S
C1314 C1315 1.367 . S
C1314 C1322 1.378 . S
C1315 C1314 1.367 . S
C1315 C1323 1.433 . S
C1316 H1312 0.929 . S
C1316 C1318 1.378 . S
C1316 C1320 1.350 . S
C1317 C1320 1.463 . S
C1317 C1322 1.350 . S
C1317 N1325 1.427 . S
C1318 H1309 0.930 . S
C1318 C1316 1.378 . S
C1318 C1319 1.367 . S
C1319 C1318 1.367 . S
C1319 C1321 1.433 . S
C1320 C1316 1.350 . S
C1320 C1317 1.463 . S
C1320 N1324 1.427 . S
C1321 H1311 0.929 . S
C1321 C1319 1.433 . S
C1321 N1324 1.384 . S
C1322 H1313 0.929 . S
C1322 C1314 1.378 . S
C1322 C1317 1.350 . S
C1323 H1310 0.929 . S
C1323 C1315 1.433 . S
C1323 N1325 1.384 . S
N1324 C1320 1.427 . S
N1324 C1321 1.384 . S
N1325 C1317 1.427 . S
N1325 C1323 1.384 . S
H1326 C1332 0.930 . S
H1327 C1336 0.930 . S
H1328 C1341 0.929 . S
H1329 C1339 0.929 . S
H1330 C1334 0.929 . S
H1331 C1340 0.929 . S
C1332 H1326 0.930 . S
C1332 C1333 1.367 . S
C1332 C1340 1.378 . S
C1333 C1332 1.367 . S
C1333 C1341 1.433 . S
C1334 H1330 0.929 . S
C1334 C1336 1.378 . S
C1334 C1338 1.350 . S
C1335 C1338 1.463 . S
C1335 C1340 1.350 . S
C1335 N1343 1.427 . S
C1336 H1327 0.930 . S
C1336 C1334 1.378 . S
C1336 C1337 1.367 . S
C1337 C1336 1.367 . S
C1337 C1339 1.433 . S
C1338 C1334 1.350 . S
C1338 C1335 1.463 . S
C1338 N1342 1.427 . S
C1339 H1329 0.929 . S
C1339 C1337 1.433 . S
C1339 N1342 1.384 . S
C1340 H1331 0.929 . S
C1340 C1332 1.378 . S
C1340 C1335 1.350 . S
C1341 H1328 0.929 . S
C1341 C1333 1.433 . S
C1341 N1343 1.384 . S
N1342 C1338 1.427 . S
N1342 C1339 1.384 . S
N1343 C1335 1.427 . S
N1343 C1341 1.384 . S
H1344 C1350 0.930 . S
H1345 C1354 0.930 . S
H1346 C1359 0.929 . S
H1347 C1357 0.929 . S
H1348 C1352 0.929 . S
H1349 C1358 0.929 . S
C1350 H1344 0.930 . S
C1350 C1351 1.367 . S
C1350 C1358 1.378 . S
C1351 C1350 1.367 . S
C1351 C1359 1.433 . S
C1352 H1348 0.929 . S
C1352 C1354 1.378 . S
C1352 C1356 1.350 . S
C1353 C1356 1.463 . S
C1353 C1358 1.350 . S
C1353 N1361 1.427 . S
C1354 H1345 0.930 . S
C1354 C1352 1.378 . S
C1354 C1355 1.367 . S
C1355 C1354 1.367 . S
C1355 C1357 1.433 . S
C1356 C1352 1.350 . S
C1356 C1353 1.463 . S
C1356 N1360 1.427 . S
C1357 H1347 0.929 . S
C1357 C1355 1.433 . S
C1357 N1360 1.384 . S
C1358 H1349 0.929 . S
C1358 C1350 1.378 . S
C1358 C1353 1.350 . S
C1359 H1346 0.929 . S
C1359 C1351 1.433 . S
C1359 N1361 1.384 . S
N1360 C1356 1.427 . S
N1360 C1357 1.384 . S
N1361 C1353 1.427 . S
N1361 C1359 1.384 . S
H1362 C1368 0.930 . S
H1363 C1372 0.930 . S
H1364 C1377 0.929 . S
H1365 C1375 0.929 . S
H1366 C1370 0.929 . S
H1367 C1376 0.929 . S
C1368 H1362 0.930 . S
C1368 C1369 1.367 . S
C1368 C1376 1.378 . S
C1369 C1368 1.367 . S
C1369 C1377 1.433 . S
C1370 H1366 0.929 . S
C1370 C1372 1.378 . S
C1370 C1374 1.350 . S
C1371 C1374 1.463 . S
C1371 C1376 1.350 . S
C1371 N1379 1.427 . S
C1372 H1363 0.930 . S
C1372 C1370 1.378 . S
C1372 C1373 1.367 . S
C1373 C1372 1.367 . S
C1373 C1375 1.433 . S
C1374 C1370 1.350 . S
C1374 C1371 1.463 . S
C1374 N1378 1.427 . S
C1375 H1365 0.929 . S
C1375 C1373 1.433 . S
C1375 N1378 1.384 . S
C1376 H1367 0.929 . S
C1376 C1368 1.378 . S
C1376 C1371 1.350 . S
C1377 H1364 0.929 . S
C1377 C1369 1.433 . S
C1377 N1379 1.384 . S
N1378 C1374 1.427 . S
N1378 C1375 1.384 . S
N1379 C1371 1.427 . S
N1379 C1377 1.384 . S
H1380 C1386 0.930 . S
H1381 C1390 0.930 . S
H1382 C1395 0.929 . S
H1383 C1393 0.929 . S
H1384 C1388 0.929 . S
H1385 C1394 0.929 . S
C1386 H1380 0.930 . S
C1386 C1387 1.367 . S
C1386 C1394 1.378 . S
C1387 C1386 1.367 . S
C1387 C1395 1.433 . S
C1388 H1384 0.929 . S
C1388 C1390 1.378 . S
C1388 C1392 1.350 . S
C1389 C1392 1.463 . S
C1389 C1394 1.350 . S
C1389 N1397 1.427 . S
C1390 H1381 0.930 . S
C1390 C1388 1.378 . S
C1390 C1391 1.367 . S
C1391 C1390 1.367 . S
C1391 C1393 1.433 . S
C1392 C1388 1.350 . S
C1392 C1389 1.463 . S
C1392 N1396 1.427 . S
C1393 H1383 0.929 . S
C1393 C1391 1.433 . S
C1393 N1396 1.384 . S
C1394 H1385 0.929 . S
C1394 C1386 1.378 . S
C1394 C1389 1.350 . S
C1395 H1382 0.929 . S
C1395 C1387 1.433 . S
C1395 N1397 1.384 . S
N1396 C1392 1.427 . S
N1396 C1393 1.384 . S
N1397 C1389 1.427 . S
N1397 C1395 1.384 . S
H1398 C1404 0.930 . S
H1399 C1408 0.930 . S
H1400 C1413 0.929 . S
H1401 C1411 0.929 . S
H1402 C1406 0.929 . S
H1403 C1412 0.929 . S
C1404 H1398 0.930 . S
C1404 C1405 1.367 . S
C1404 C1412 1.378 . S
C1405 C1404 1.367 . S
C1405 C1413 1.433 . S
C1406 H1402 0.929 . S
C1406 C1408 1.378 . S
C1406 C1410 1.350 . S
C1407 C1410 1.463 . S
C1407 C1412 1.350 . S
C1407 N1415 1.427 . S
C1408 H1399 0.930 . S
C1408 C1406 1.378 . S
C1408 C1409 1.367 . S
C1409 C1408 1.367 . S
C1409 C1411 1.433 . S
C1410 C1406 1.350 . S
C1410 C1407 1.463 . S
C1410 N1414 1.427 . S
C1411 H1401 0.929 . S
C1411 C1409 1.433 . S
C1411 N1414 1.384 . S
C1412 H1403 0.929 . S
C1412 C1404 1.378 . S
C1412 C1407 1.350 . S
C1413 H1400 0.929 . S
C1413 C1405 1.433 . S
C1413 N1415 1.384 . S
N1414 C1410 1.427 . S
N1414 C1411 1.384 . S
N1415 C1407 1.427 . S
N1415 C1413 1.384 . S
H1416 C1422 0.930 . S
H1417 C1426 0.930 . S
H1418 C1431 0.929 . S
H1419 C1429 0.929 . S
H1420 C1424 0.929 . S
H1421 C1430 0.929 . S
C1422 H1416 0.930 . S
C1422 C1423 1.367 . S
C1422 C1430 1.378 . S
C1423 C1422 1.367 . S
C1423 C1431 1.433 . S
C1424 H1420 0.929 . S
C1424 C1426 1.378 . S
C1424 C1428 1.350 . S
C1425 C1428 1.463 1_455 S
C1425 C1430 1.350 . S
C1425 N1433 1.427 . S
C1426 H1417 0.930 . S
C1426 C1424 1.378 . S
C1426 C1427 1.367 . S
C1427 C1426 1.367 . S
C1427 C1429 1.433 . S
C1428 C1424 1.350 . S
C1428 C1425 1.463 1_655 S
C1428 N1432 1.427 . S
C1429 H1419 0.929 . S
C1429 C1427 1.433 . S
C1429 N1432 1.384 . S
C1430 H1421 0.929 . S
C1430 C1422 1.378 . S
C1430 C1425 1.350 . S
C1431 H1418 0.929 . S
C1431 C1423 1.433 . S
C1431 N1433 1.384 . S
N1432 C1428 1.427 . S
N1432 C1429 1.384 . S
N1433 C1425 1.427 . S
N1433 C1431 1.384 . S
H1434 C1440 0.930 . S
H1435 C1444 0.930 . S
H1436 C1449 0.929 . S
H1437 C1447 0.929 . S
H1438 C1442 0.929 . S
H1439 C1448 0.929 . S
C1440 H1434 0.930 . S
C1440 C1441 1.367 . S
C1440 C1448 1.378 . S
C1441 C1440 1.367 . S
C1441 C1449 1.433 . S
C1442 H1438 0.929 . S
C1442 C1444 1.378 . S
C1442 C1446 1.350 . S
C1443 C1446 1.463 . S
C1443 C1448 1.350 . S
C1443 N1451 1.427 . S
C1444 H1435 0.930 . S
C1444 C1442 1.378 . S
C1444 C1445 1.367 . S
C1445 C1444 1.367 . S
C1445 C1447 1.433 . S
C1446 C1442 1.350 . S
C1446 C1443 1.463 . S
C1446 N1450 1.427 . S
C1447 H1437 0.929 . S
C1447 C1445 1.433 . S
C1447 N1450 1.384 . S
C1448 H1439 0.929 . S
C1448 C1440 1.378 . S
C1448 C1443 1.350 . S
C1449 H1436 0.929 . S
C1449 C1441 1.433 . S
C1449 N1451 1.384 . S
N1450 C1446 1.427 . S
N1450 C1447 1.384 . S
N1451 C1443 1.427 . S
N1451 C1449 1.384 . S
H1452 C1458 0.930 . S
H1453 C1462 0.930 . S
H1454 C1467 0.929 . S
H1455 C1465 0.929 . S
H1456 C1460 0.929 . S
H1457 C1466 0.929 . S
C1458 H1452 0.930 . S
C1458 C1459 1.367 . S
C1458 C1466 1.378 . S
C1459 C1458 1.367 . S
C1459 C1467 1.433 . S
C1460 H1456 0.929 . S
C1460 C1462 1.378 . S
C1460 C1464 1.350 . S
C1461 C1464 1.463 . S
C1461 C1466 1.350 . S
C1461 N1469 1.427 . S
C1462 H1453 0.930 . S
C1462 C1460 1.378 . S
C1462 C1463 1.367 . S
C1463 C1462 1.367 . S
C1463 C1465 1.433 . S
C1464 C1460 1.350 . S
C1464 C1461 1.463 . S
C1464 N1468 1.427 . S
C1465 H1455 0.929 . S
C1465 C1463 1.433 . S
C1465 N1468 1.384 . S
C1466 H1457 0.929 . S
C1466 C1458 1.378 . S
C1466 C1461 1.350 . S
C1467 H1454 0.929 . S
C1467 C1459 1.433 . S
C1467 N1469 1.384 . S
N1468 C1464 1.427 . S
N1468 C1465 1.384 . S
N1469 C1461 1.427 . S
N1469 C1467 1.384 . S
H1470 C1476 0.930 . S
H1471 C1480 0.930 . S
H1472 C1485 0.929 . S
H1473 C1483 0.929 . S
H1474 C1478 0.929 . S
H1475 C1484 0.929 . S
C1476 H1470 0.930 . S
C1476 C1477 1.367 . S
C1476 C1484 1.378 . S
C1477 C1476 1.367 . S
C1477 C1485 1.433 . S
C1478 H1474 0.929 . S
C1478 C1480 1.378 . S
C1478 C1482 1.350 . S
C1479 C1482 1.463 . S
C1479 C1484 1.350 . S
C1479 N1487 1.427 . S
C1480 H1471 0.930 . S
C1480 C1478 1.378 . S
C1480 C1481 1.367 . S
C1481 C1480 1.367 . S
C1481 C1483 1.433 . S
C1482 C1478 1.350 . S
C1482 C1479 1.463 . S
C1482 N1486 1.427 . S
C1483 H1473 0.929 . S
C1483 C1481 1.433 . S
C1483 N1486 1.384 . S
C1484 H1475 0.929 . S
C1484 C1476 1.378 . S
C1484 C1479 1.350 . S
C1485 H1472 0.929 . S
C1485 C1477 1.433 . S
C1485 N1487 1.384 . S
N1486 C1482 1.427 . S
N1486 C1483 1.384 . S
N1487 C1479 1.427 . S
N1487 C1485 1.384 . S
H1488 C1494 0.930 . S
H1489 C1498 0.930 . S
H1490 C1503 0.929 . S
H1491 C1501 0.929 . S
H1492 C1496 0.929 . S
H1493 C1502 0.929 . S
C1494 H1488 0.930 . S
C1494 C1495 1.367 . S
C1494 C1502 1.378 . S
C1495 C1494 1.367 . S
C1495 C1503 1.433 . S
C1496 H1492 0.929 . S
C1496 C1498 1.378 . S
C1496 C1500 1.350 . S
C1497 C1500 1.463 . S
C1497 C1502 1.350 . S
C1497 N1505 1.427 . S
C1498 H1489 0.930 . S
C1498 C1496 1.378 . S
C1498 C1499 1.367 . S
C1499 C1498 1.367 . S
C1499 C1501 1.433 . S
C1500 C1496 1.350 . S
C1500 C1497 1.463 . S
C1500 N1504 1.427 . S
C1501 H1491 0.929 . S
C1501 C1499 1.433 . S
C1501 N1504 1.384 . S
C1502 H1493 0.929 . S
C1502 C1494 1.378 . S
C1502 C1497 1.350 . S
C1503 H1490 0.929 . S
C1503 C1495 1.433 . S
C1503 N1505 1.384 . S
N1504 C1500 1.427 . S
N1504 C1501 1.384 . S
N1505 C1497 1.427 . S
N1505 C1503 1.384 . S
H1506 C1512 0.930 . S
H1507 C1516 0.930 . S
H1508 C1521 0.929 . S
H1509 C1519 0.929 . S
H1510 C1514 0.929 . S
H1511 C1520 0.929 . S
C1512 H1506 0.930 . S
C1512 C1513 1.367 . S
C1512 C1520 1.378 . S
C1513 C1512 1.367 . S
C1513 C1521 1.433 . S
C1514 H1510 0.929 . S
C1514 C1516 1.378 . S
C1514 C1518 1.350 . S
C1515 C1518 1.463 . S
C1515 C1520 1.350 . S
C1515 N1523 1.427 . S
C1516 H1507 0.930 . S
C1516 C1514 1.378 . S
C1516 C1517 1.367 . S
C1517 C1516 1.367 . S
C1517 C1519 1.433 . S
C1518 C1514 1.350 . S
C1518 C1515 1.463 . S
C1518 N1522 1.427 . S
C1519 H1509 0.929 . S
C1519 C1517 1.433 . S
C1519 N1522 1.384 . S
C1520 H1511 0.929 . S
C1520 C1512 1.378 . S
C1520 C1515 1.350 . S
C1521 H1508 0.929 . S
C1521 C1513 1.433 . S
C1521 N1523 1.384 . S
N1522 C1518 1.427 . S
N1522 C1519 1.384 . S
N1523 C1515 1.427 . S
N1523 C1521 1.384 . S
H1524 C1530 0.930 . S
H1525 C1534 0.930 . S
H1526 C1539 0.929 . S
H1527 C1537 0.929 . S
H1528 C1532 0.929 . S
H1529 C1538 0.929 . S
C1530 H1524 0.930 . S
C1530 C1531 1.367 . S
C1530 C1538 1.378 . S
C1531 C1530 1.367 . S
C1531 C1539 1.433 . S
C1532 H1528 0.929 . S
C1532 C1534 1.378 . S
C1532 C1536 1.350 . S
C1533 C1536 1.463 . S
C1533 C1538 1.350 . S
C1533 N1541 1.427 . S
C1534 H1525 0.930 . S
C1534 C1532 1.378 . S
C1534 C1535 1.367 . S
C1535 C1534 1.367 . S
C1535 C1537 1.433 . S
C1536 C1532 1.350 . S
C1536 C1533 1.463 . S
C1536 N1540 1.427 . S
C1537 H1527 0.929 . S
C1537 C1535 1.433 . S
C1537 N1540 1.384 . S
C1538 H1529 0.929 . S
C1538 C1530 1.378 . S
C1538 C1533 1.350 . S
C1539 H1526 0.929 . S
C1539 C1531 1.433 . S
C1539 N1541 1.384 . S
N1540 C1536 1.427 . S
N1540 C1537 1.384 . S
N1541 C1533 1.427 . S
N1541 C1539 1.384 . S
H1542 C1548 0.930 . S
H1543 C1552 0.930 . S
H1544 C1557 0.929 . S
H1545 C1555 0.929 . S
H1546 C1550 0.929 . S
H1547 C1556 0.929 . S
C1548 H1542 0.930 . S
C1548 C1549 1.367 . S
C1548 C1556 1.378 . S
C1549 C1548 1.367 . S
C1549 C1557 1.433 . S
C1550 H1546 0.929 . S
C1550 C1552 1.378 . S
C1550 C1554 1.350 . S
C1551 C1554 1.463 . S
C1551 C1556 1.350 . S
C1551 N1559 1.427 . S
C1552 H1543 0.930 . S
C1552 C1550 1.378 . S
C1552 C1553 1.367 . S
C1553 C1552 1.367 . S
C1553 C1555 1.433 . S
C1554 C1550 1.350 . S
C1554 C1551 1.463 . S
C1554 N1558 1.427 . S
C1555 H1545 0.929 . S
C1555 C1553 1.433 . S
C1555 N1558 1.384 . S
C1556 H1547 0.929 . S
C1556 C1548 1.378 . S
C1556 C1551 1.350 . S
C1557 H1544 0.929 . S
C1557 C1549 1.433 . S
C1557 N1559 1.384 . S
N1558 C1554 1.427 . S
N1558 C1555 1.384 . S
N1559 C1551 1.427 . S
N1559 C1557 1.384 . S
H1560 C1566 0.930 . S
H1561 C1570 0.930 . S
H1562 C1575 0.929 . S
H1563 C1573 0.929 . S
H1564 C1568 0.929 . S
H1565 C1574 0.929 . S
C1566 H1560 0.930 . S
C1566 C1567 1.367 . S
C1566 C1574 1.378 . S
C1567 C1566 1.367 . S
C1567 C1575 1.433 . S
C1568 H1564 0.929 . S
C1568 C1570 1.378 . S
C1568 C1572 1.350 . S
C1569 C1572 1.463 . S
C1569 C1574 1.350 . S
C1569 N1577 1.427 . S
C1570 H1561 0.930 . S
C1570 C1568 1.378 . S
C1570 C1571 1.367 . S
C1571 C1570 1.367 . S
C1571 C1573 1.433 . S
C1572 C1568 1.350 . S
C1572 C1569 1.463 . S
C1572 N1576 1.427 . S
C1573 H1563 0.929 . S
C1573 C1571 1.433 . S
C1573 N1576 1.384 . S
C1574 H1565 0.929 . S
C1574 C1566 1.378 . S
C1574 C1569 1.350 . S
C1575 H1562 0.929 . S
C1575 C1567 1.433 . S
C1575 N1577 1.384 . S
N1576 C1572 1.427 . S
N1576 C1573 1.384 . S
N1577 C1569 1.427 . S
N1577 C1575 1.384 . S
H1578 C1584 0.930 . S
H1579 C1588 0.930 . S
H1580 C1593 0.929 . S
H1581 C1591 0.929 . S
H1582 C1586 0.929 . S
H1583 C1592 0.929 . S
C1584 H1578 0.930 . S
C1584 C1585 1.367 . S
C1584 C1592 1.378 . S
C1585 C1584 1.367 . S
C1585 C1593 1.433 . S
C1586 H1582 0.929 . S
C1586 C1588 1.378 . S
C1586 C1590 1.350 . S
C1587 C1590 1.463 . S
C1587 C1592 1.350 . S
C1587 N1595 1.427 . S
C1588 H1579 0.930 . S
C1588 C1586 1.378 . S
C1588 C1589 1.367 . S
C1589 C1588 1.367 . S
C1589 C1591 1.433 . S
C1590 C1586 1.350 . S
C1590 C1587 1.463 . S
C1590 N1594 1.427 . S
C1591 H1581 0.929 . S
C1591 C1589 1.433 . S
C1591 N1594 1.384 . S
C1592 H1583 0.929 . S
C1592 C1584 1.378 . S
C1592 C1587 1.350 . S
C1593 H1580 0.929 . S
C1593 C1585 1.433 . S
C1593 N1595 1.384 . S
N1594 C1590 1.427 . S
N1594 C1591 1.384 . S
N1595 C1587 1.427 . S
N1595 C1593 1.384 . S
H1596 C1602 0.930 . S
H1597 C1606 0.930 . S
H1598 C1611 0.929 . S
H1599 C1609 0.929 . S
H1600 C1604 0.929 . S
H1601 C1610 0.929 . S
C1602 H1596 0.930 . S
C1602 C1603 1.367 . S
C1602 C1610 1.378 . S
C1603 C1602 1.367 . S
C1603 C1611 1.433 . S
C1604 H1600 0.929 . S
C1604 C1606 1.378 . S
C1604 C1608 1.350 . S
C1605 C1608 1.463 . S
C1605 C1610 1.350 . S
C1605 N1613 1.427 . S
C1606 H1597 0.930 . S
C1606 C1604 1.378 . S
C1606 C1607 1.367 . S
C1607 C1606 1.367 . S
C1607 C1609 1.433 . S
C1608 C1604 1.350 . S
C1608 C1605 1.463 . S
C1608 N1612 1.427 . S
C1609 H1599 0.929 . S
C1609 C1607 1.433 . S
C1609 N1612 1.384 . S
C1610 H1601 0.929 . S
C1610 C1602 1.378 . S
C1610 C1605 1.350 . S
C1611 H1598 0.929 . S
C1611 C1603 1.433 . S
C1611 N1613 1.384 . S
N1612 C1608 1.427 . S
N1612 C1609 1.384 . S
N1613 C1605 1.427 . S
N1613 C1611 1.384 . S
H1614 C1620 0.930 . S
H1615 C1624 0.930 . S
H1616 C1629 0.929 . S
H1617 C1627 0.929 . S
H1618 C1622 0.929 . S
H1619 C1628 0.929 . S
C1620 H1614 0.930 . S
C1620 C1621 1.367 . S
C1620 C1628 1.378 . S
C1621 C1620 1.367 . S
C1621 C1629 1.433 . S
C1622 H1618 0.929 . S
C1622 C1624 1.378 . S
C1622 C1626 1.350 . S
C1623 C1626 1.463 . S
C1623 C1628 1.350 . S
C1623 N1631 1.427 . S
C1624 H1615 0.930 . S
C1624 C1622 1.378 . S
C1624 C1625 1.367 . S
C1625 C1624 1.367 . S
C1625 C1627 1.433 . S
C1626 C1622 1.350 . S
C1626 C1623 1.463 . S
C1626 N1630 1.427 . S
C1627 H1617 0.929 . S
C1627 C1625 1.433 . S
C1627 N1630 1.384 . S
C1628 H1619 0.929 . S
C1628 C1620 1.378 . S
C1628 C1623 1.350 . S
C1629 H1616 0.929 . S
C1629 C1621 1.433 . S
C1629 N1631 1.384 . S
N1630 C1626 1.427 . S
N1630 C1627 1.384 . S
N1631 C1623 1.427 . S
N1631 C1629 1.384 . S
H1632 C1638 0.930 . S
H1633 C1642 0.930 . S
H1634 C1647 0.929 . S
H1635 C1645 0.929 . S
H1636 C1640 0.929 . S
H1637 C1646 0.929 . S
C1638 H1632 0.930 . S
C1638 C1639 1.367 . S
C1638 C1646 1.378 . S
C1639 C1638 1.367 . S
C1639 C1647 1.433 . S
C1640 H1636 0.929 . S
C1640 C1642 1.378 . S
C1640 C1644 1.350 . S
C1641 C1644 1.463 . S
C1641 C1646 1.350 . S
C1641 N1649 1.427 . S
C1642 H1633 0.930 . S
C1642 C1640 1.378 . S
C1642 C1643 1.367 . S
C1643 C1642 1.367 . S
C1643 C1645 1.433 . S
C1644 C1640 1.350 . S
C1644 C1641 1.463 . S
C1644 N1648 1.427 . S
C1645 H1635 0.929 . S
C1645 C1643 1.433 . S
C1645 N1648 1.384 . S
C1646 H1637 0.929 . S
C1646 C1638 1.378 . S
C1646 C1641 1.350 . S
C1647 H1634 0.929 . S
C1647 C1639 1.433 . S
C1647 N1649 1.384 . S
N1648 C1644 1.427 . S
N1648 C1645 1.384 . S
N1649 C1641 1.427 . S
N1649 C1647 1.384 . S
H1650 C1656 0.930 . S
H1651 C1660 0.930 . S
H1652 C1665 0.929 . S
H1653 C1663 0.929 . S
H1654 C1658 0.929 . S
H1655 C1664 0.929 . S
C1656 H1650 0.930 . S
C1656 C1657 1.367 . S
C1656 C1664 1.378 . S
C1657 C1656 1.367 . S
C1657 C1665 1.433 . S
C1658 H1654 0.929 . S
C1658 C1660 1.378 . S
C1658 C1662 1.350 . S
C1659 C1662 1.463 . S
C1659 C1664 1.350 . S
C1659 N1667 1.427 . S
C1660 H1651 0.930 . S
C1660 C1658 1.378 . S
C1660 C1661 1.367 . S
C1661 C1660 1.367 . S
C1661 C1663 1.433 . S
C1662 C1658 1.350 . S
C1662 C1659 1.463 . S
C1662 N1666 1.427 . S
C1663 H1653 0.929 . S
C1663 C1661 1.433 . S
C1663 N1666 1.384 . S
C1664 H1655 0.929 . S
C1664 C1656 1.378 . S
C1664 C1659 1.350 . S
C1665 H1652 0.929 . S
C1665 C1657 1.433 . S
C1665 N1667 1.384 . S
N1666 C1662 1.427 . S
N1666 C1663 1.384 . S
N1667 C1659 1.427 . S
N1667 C1665 1.384 . S
H1668 C1674 0.930 . S
H1669 C1678 0.930 . S
H1670 C1683 0.929 . S
H1671 C1681 0.929 . S
H1672 C1676 0.929 . S
H1673 C1682 0.929 . S
C1674 H1668 0.930 . S
C1674 C1675 1.367 . S
C1674 C1682 1.378 . S
C1675 C1674 1.367 . S
C1675 C1683 1.433 . S
C1676 H1672 0.929 . S
C1676 C1678 1.378 . S
C1676 C1680 1.350 . S
C1677 C1680 1.463 . S
C1677 C1682 1.350 . S
C1677 N1685 1.427 . S
C1678 H1669 0.930 . S
C1678 C1676 1.378 . S
C1678 C1679 1.367 . S
C1679 C1678 1.367 . S
C1679 C1681 1.433 . S
C1680 C1676 1.350 . S
C1680 C1677 1.463 . S
C1680 N1684 1.427 . S
C1681 H1671 0.929 . S
C1681 C1679 1.433 . S
C1681 N1684 1.384 . S
C1682 H1673 0.929 . S
C1682 C1674 1.378 . S
C1682 C1677 1.350 . S
C1683 H1670 0.929 . S
C1683 C1675 1.433 . S
C1683 N1685 1.384 . S
N1684 C1680 1.427 . S
N1684 C1681 1.384 . S
N1685 C1677 1.427 . S
N1685 C1683 1.384 . S
H1686 C1692 0.930 . S
H1687 C1696 0.930 . S
H1688 C1701 0.929 . S
H1689 C1699 0.929 . S
H1690 C1694 0.929 . S
H1691 C1700 0.929 . S
C1692 H1686 0.930 . S
C1692 C1693 1.367 . S
C1692 C1700 1.378 . S
C1693 C1692 1.367 . S
C1693 C1701 1.433 . S
C1694 H1690 0.929 . S
C1694 C1696 1.378 . S
C1694 C1698 1.350 . S
C1695 C1698 1.463 . S
C1695 C1700 1.350 . S
C1695 N1703 1.427 . S
C1696 H1687 0.930 . S
C1696 C1694 1.378 . S
C1696 C1697 1.367 . S
C1697 C1696 1.367 . S
C1697 C1699 1.433 . S
C1698 C1694 1.350 . S
C1698 C1695 1.463 . S
C1698 N1702 1.427 . S
C1699 H1689 0.929 . S
C1699 C1697 1.433 . S
C1699 N1702 1.384 . S
C1700 H1691 0.929 . S
C1700 C1692 1.378 . S
C1700 C1695 1.350 . S
C1701 H1688 0.929 . S
C1701 C1693 1.433 . S
C1701 N1703 1.384 . S
N1702 C1698 1.427 . S
N1702 C1699 1.384 . S
N1703 C1695 1.427 . S
N1703 C1701 1.384 . S
H1704 C1710 0.930 . S
H1705 C1714 0.930 . S
H1706 C1719 0.929 . S
H1707 C1717 0.929 . S
H1708 C1712 0.929 . S
H1709 C1718 0.929 . S
C1710 H1704 0.930 . S
C1710 C1711 1.367 . S
C1710 C1718 1.378 . S
C1711 C1710 1.367 . S
C1711 C1719 1.433 . S
C1712 H1708 0.929 . S
C1712 C1714 1.378 . S
C1712 C1716 1.350 . S
C1713 C1716 1.463 . S
C1713 C1718 1.350 . S
C1713 N1721 1.427 . S
C1714 H1705 0.930 . S
C1714 C1712 1.378 . S
C1714 C1715 1.367 . S
C1715 C1714 1.367 . S
C1715 C1717 1.433 . S
C1716 C1712 1.350 . S
C1716 C1713 1.463 . S
C1716 N1720 1.427 . S
C1717 H1707 0.929 . S
C1717 C1715 1.433 . S
C1717 N1720 1.384 . S
C1718 H1709 0.929 . S
C1718 C1710 1.378 . S
C1718 C1713 1.350 . S
C1719 H1706 0.929 . S
C1719 C1711 1.433 . S
C1719 N1721 1.384 . S
N1720 C1716 1.427 . S
N1720 C1717 1.384 . S
N1721 C1713 1.427 . S
N1721 C1719 1.384 . S
H1722 C1728 0.930 . S
H1723 C1732 0.930 . S
H1724 C1737 0.929 . S
H1725 C1735 0.929 . S
H1726 C1730 0.929 . S
H1727 C1736 0.929 . S
C1728 H1722 0.930 . S
C1728 C1729 1.367 . S
C1728 C1736 1.378 . S
C1729 C1728 1.367 . S
C1729 C1737 1.433 . S
C1730 H1726 0.929 . S
C1730 C1732 1.378 . S
C1730 C1734 1.350 . S
C1731 C1734 1.463 . S
C1731 C1736 1.350 . S
C1731 N1739 1.427 . S
C1732 H1723 0.930 . S
C1732 C1730 1.378 . S
C1732 C1733 1.367 . S
C1733 C1732 1.367 . S
C1733 C1735 1.433 . S
C1734 C1730 1.350 . S
C1734 C1731 1.463 . S
C1734 N1738 1.427 . S
C1735 H1725 0.929 . S
C1735 C1733 1.433 . S
C1735 N1738 1.384 . S
C1736 H1727 0.929 . S
C1736 C1728 1.378 . S
C1736 C1731 1.350 . S
C1737 H1724 0.929 . S
C1737 C1729 1.433 . S
C1737 N1739 1.384 . S
N1738 C1734 1.427 . S
N1738 C1735 1.384 . S
N1739 C1731 1.427 . S
N1739 C1737 1.384 . S
H1740 C1746 0.930 . S
H1741 C1750 0.930 . S
H1742 C1755 0.929 . S
H1743 C1753 0.929 . S
H1744 C1748 0.929 . S
H1745 C1754 0.929 . S
C1746 H1740 0.930 . S
C1746 C1747 1.367 . S
C1746 C1754 1.378 . S
C1747 C1746 1.367 . S
C1747 C1755 1.433 . S
C1748 H1744 0.929 . S
C1748 C1750 1.378 . S
C1748 C1752 1.350 . S
C1749 C1752 1.463 . S
C1749 C1754 1.350 . S
C1749 N1757 1.427 . S
C1750 H1741 0.930 . S
C1750 C1748 1.378 . S
C1750 C1751 1.367 . S
C1751 C1750 1.367 . S
C1751 C1753 1.433 . S
C1752 C1748 1.350 . S
C1752 C1749 1.463 . S
C1752 N1756 1.427 . S
C1753 H1743 0.929 . S
C1753 C1751 1.433 . S
C1753 N1756 1.384 . S
C1754 H1745 0.929 . S
C1754 C1746 1.378 . S
C1754 C1749 1.350 . S
C1755 H1742 0.929 . S
C1755 C1747 1.433 . S
C1755 N1757 1.384 . S
N1756 C1752 1.427 . S
N1756 C1753 1.384 . S
N1757 C1749 1.427 . S
N1757 C1755 1.384 . S
H1758 C1764 0.930 . S
H1759 C1768 0.930 . S
H1760 C1773 0.929 . S
H1761 C1771 0.929 . S
H1762 C1766 0.929 . S
H1763 C1772 0.929 . S
C1764 H1758 0.930 . S
C1764 C1765 1.367 . S
C1764 C1772 1.378 . S
C1765 C1764 1.367 . S
C1765 C1773 1.433 . S
C1766 H1762 0.929 . S
C1766 C1768 1.378 . S
C1766 C1770 1.350 . S
C1767 C1770 1.463 . S
C1767 C1772 1.350 . S
C1767 N1775 1.427 . S
C1768 H1759 0.930 . S
C1768 C1766 1.378 . S
C1768 C1769 1.367 . S
C1769 C1768 1.367 . S
C1769 C1771 1.433 . S
C1770 C1766 1.350 . S
C1770 C1767 1.463 . S
C1770 N1774 1.427 . S
C1771 H1761 0.929 . S
C1771 C1769 1.433 . S
C1771 N1774 1.384 . S
C1772 H1763 0.929 . S
C1772 C1764 1.378 . S
C1772 C1767 1.350 . S
C1773 H1760 0.929 . S
C1773 C1765 1.433 . S
C1773 N1775 1.384 . S
N1774 C1770 1.427 . S
N1774 C1771 1.384 . S
N1775 C1767 1.427 . S
N1775 C1773 1.384 . S
H1776 C1782 0.930 . S
H1777 C1786 0.930 . S
H1778 C1791 0.929 . S
H1779 C1789 0.929 . S
H1780 C1784 0.929 . S
H1781 C1790 0.929 . S
C1782 H1776 0.930 . S
C1782 C1783 1.367 . S
C1782 C1790 1.378 . S
C1783 C1782 1.367 . S
C1783 C1791 1.433 . S
C1784 H1780 0.929 . S
C1784 C1786 1.378 . S
C1784 C1788 1.350 . S
C1785 C1788 1.463 . S
C1785 C1790 1.350 . S
C1785 N1793 1.427 . S
C1786 H1777 0.930 . S
C1786 C1784 1.378 . S
C1786 C1787 1.367 . S
C1787 C1786 1.367 . S
C1787 C1789 1.433 . S
C1788 C1784 1.350 . S
C1788 C1785 1.463 . S
C1788 N1792 1.427 . S
C1789 H1779 0.929 . S
C1789 C1787 1.433 . S
C1789 N1792 1.384 . S
C1790 H1781 0.929 . S
C1790 C1782 1.378 . S
C1790 C1785 1.350 . S
C1791 H1778 0.929 . S
C1791 C1783 1.433 . S
C1791 N1793 1.384 . S
N1792 C1788 1.427 . S
N1792 C1789 1.384 . S
N1793 C1785 1.427 . S
N1793 C1791 1.384 . S
H1794 C1800 0.930 . S
H1795 C1804 0.930 . S
H1796 C1809 0.929 . S
H1797 C1807 0.929 . S
H1798 C1802 0.929 . S
H1799 C1808 0.929 . S
C1800 H1794 0.930 . S
C1800 C1801 1.367 . S
C1800 C1808 1.378 . S
C1801 C1800 1.367 . S
C1801 C1809 1.433 . S
C1802 H1798 0.929 . S
C1802 C1804 1.378 . S
C1802 C1806 1.350 . S
C1803 C1806 1.463 . S
C1803 C1808 1.350 . S
C1803 N1811 1.427 . S
C1804 H1795 0.930 . S
C1804 C1802 1.378 . S
C1804 C1805 1.367 . S
C1805 C1804 1.367 . S
C1805 C1807 1.433 . S
C1806 C1802 1.350 . S
C1806 C1803 1.463 . S
C1806 N1810 1.427 . S
C1807 H1797 0.929 . S
C1807 C1805 1.433 . S
C1807 N1810 1.384 . S
C1808 H1799 0.929 . S
C1808 C1800 1.378 . S
C1808 C1803 1.350 . S
C1809 H1796 0.929 . S
C1809 C1801 1.433 . S
C1809 N1811 1.384 . S
N1810 C1806 1.427 . S
N1810 C1807 1.384 . S
N1811 C1803 1.427 . S
N1811 C1809 1.384 . S
H1812 C1818 0.930 . S
H1813 C1822 0.930 . S
H1814 C1827 0.929 . S
H1815 C1825 0.929 . S
H1816 C1820 0.929 . S
H1817 C1826 0.929 . S
C1818 H1812 0.930 . S
C1818 C1819 1.367 . S
C1818 C1826 1.378 . S
C1819 C1818 1.367 . S
C1819 C1827 1.433 . S
C1820 H1816 0.929 . S
C1820 C1822 1.378 . S
C1820 C1824 1.350 . S
C1821 C1824 1.463 . S
C1821 C1826 1.350 . S
C1821 N1829 1.427 . S
C1822 H1813 0.930 . S
C1822 C1820 1.378 . S
C1822 C1823 1.367 . S
C1823 C1822 1.367 . S
C1823 C1825 1.433 . S
C1824 C1820 1.350 . S
C1824 C1821 1.463 . S
C1824 N1828 1.427 . S
C1825 H1815 0.929 . S
C1825 C1823 1.433 . S
C1825 N1828 1.384 . S
C1826 H1817 0.929 . S
C1826 C1818 1.378 . S
C1826 C1821 1.350 . S
C1827 H1814 0.929 . S
C1827 C1819 1.433 . S
C1827 N1829 1.384 . S
N1828 C1824 1.427 . S
N1828 C1825 1.384 . S
N1829 C1821 1.427 . S
N1829 C1827 1.384 . S
H1830 C1836 0.930 . S
H1831 C1840 0.930 . S
H1832 C1845 0.929 . S
H1833 C1843 0.929 . S
H1834 C1838 0.929 . S
H1835 C1844 0.929 . S
C1836 H1830 0.930 . S
C1836 C1837 1.367 . S
C1836 C1844 1.378 . S
C1837 C1836 1.367 . S
C1837 C1845 1.433 . S
C1838 H1834 0.929 . S
C1838 C1840 1.378 . S
C1838 C1842 1.350 . S
C1839 C1842 1.463 . S
C1839 C1844 1.350 . S
C1839 N1847 1.427 . S
C1840 H1831 0.930 . S
C1840 C1838 1.378 . S
C1840 C1841 1.367 . S
C1841 C1840 1.367 . S
C1841 C1843 1.433 . S
C1842 C1838 1.350 . S
C1842 C1839 1.463 . S
C1842 N1846 1.427 . S
C1843 H1833 0.929 . S
C1843 C1841 1.433 . S
C1843 N1846 1.384 . S
C1844 H1835 0.929 . S
C1844 C1836 1.378 . S
C1844 C1839 1.350 . S
C1845 H1832 0.929 . S
C1845 C1837 1.433 . S
C1845 N1847 1.384 . S
N1846 C1842 1.427 . S
N1846 C1843 1.384 . S
N1847 C1839 1.427 . S
N1847 C1845 1.384 . S
H1848 C1854 0.930 . S
H1849 C1858 0.930 . S
H1850 C1863 0.929 . S
H1851 C1861 0.929 . S
H1852 C1856 0.929 . S
H1853 C1862 0.929 . S
C1854 H1848 0.930 . S
C1854 C1855 1.367 . S
C1854 C1862 1.378 . S
C1855 C1854 1.367 . S
C1855 C1863 1.433 . S
C1856 H1852 0.929 . S
C1856 C1858 1.378 . S
C1856 C1860 1.350 . S
C1857 C1860 1.463 . S
C1857 C1862 1.350 . S
C1857 N1865 1.427 . S
C1858 H1849 0.930 . S
C1858 C1856 1.378 . S
C1858 C1859 1.367 . S
C1859 C1858 1.367 . S
C1859 C1861 1.433 . S
C1860 C1856 1.350 . S
C1860 C1857 1.463 . S
C1860 N1864 1.427 . S
C1861 H1851 0.929 . S
C1861 C1859 1.433 . S
C1861 N1864 1.384 . S
C1862 H1853 0.929 . S
C1862 C1854 1.378 . S
C1862 C1857 1.350 . S
C1863 H1850 0.929 . S
C1863 C1855 1.433 . S
C1863 N1865 1.384 . S
N1864 C1860 1.427 . S
N1864 C1861 1.384 . S
N1865 C1857 1.427 . S
N1865 C1863 1.384 . S
H1866 C1872 0.930 . S
H1867 C1876 0.930 . S
H1868 C1881 0.929 . S
H1869 C1879 0.929 . S
H1870 C1874 0.929 . S
H1871 C1880 0.929 . S
C1872 H1866 0.930 . S
C1872 C1873 1.367 . S
C1872 C1880 1.378 . S
C1873 C1872 1.367 . S
C1873 C1881 1.433 . S
C1874 H1870 0.929 . S
C1874 C1876 1.378 . S
C1874 C1878 1.350 . S
C1875 C1878 1.463 . S
C1875 C1880 1.350 . S
C1875 N1883 1.427 . S
C1876 H1867 0.930 . S
C1876 C1874 1.378 . S
C1876 C1877 1.367 . S
C1877 C1876 1.367 . S
C1877 C1879 1.433 . S
C1878 C1874 1.350 . S
C1878 C1875 1.463 . S
C1878 N1882 1.427 . S
C1879 H1869 0.929 . S
C1879 C1877 1.433 . S
C1879 N1882 1.384 . S
C1880 H1871 0.929 . S
C1880 C1872 1.378 . S
C1880 C1875 1.350 . S
C1881 H1868 0.929 . S
C1881 C1873 1.433 . S
C1881 N1883 1.384 . S
N1882 C1878 1.427 . S
N1882 C1879 1.384 . S
N1883 C1875 1.427 . S
N1883 C1881 1.384 . S
H1884 C1890 0.930 . S
H1885 C1894 0.930 . S
H1886 C1899 0.929 . S
H1887 C1897 0.929 . S
H1888 C1892 0.929 . S
H1889 C1898 0.929 . S
C1890 H1884 0.930 . S
C1890 C1891 1.367 . S
C1890 C1898 1.378 . S
C1891 C1890 1.367 . S
C1891 C1899 1.433 . S
C1892 H1888 0.929 . S
C1892 C1894 1.378 . S
C1892 C1896 1.350 . S
C1893 C1896 1.463 . S
C1893 C1898 1.350 . S
C1893 N1901 1.427 . S
C1894 H1885 0.930 . S
C1894 C1892 1.378 . S
C1894 C1895 1.367 . S
C1895 C1894 1.367 . S
C1895 C1897 1.433 . S
C1896 C1892 1.350 . S
C1896 C1893 1.463 . S
C1896 N1900 1.427 . S
C1897 H1887 0.929 . S
C1897 C1895 1.433 . S
C1897 N1900 1.384 . S
C1898 H1889 0.929 . S
C1898 C1890 1.378 . S
C1898 C1893 1.350 . S
C1899 H1886 0.929 . S
C1899 C1891 1.433 . S
C1899 N1901 1.384 . S
N1900 C1896 1.427 . S
N1900 C1897 1.384 . S
N1901 C1893 1.427 . S
N1901 C1899 1.384 . S
H1902 C1908 0.930 . S
H1903 C1912 0.930 . S
H1904 C1917 0.929 . S
H1905 C1915 0.929 . S
H1906 C1910 0.929 . S
H1907 C1916 0.929 . S
C1908 H1902 0.930 . S
C1908 C1909 1.367 . S
C1908 C1916 1.378 . S
C1909 C1908 1.367 . S
C1909 C1917 1.433 . S
C1910 H1906 0.929 . S
C1910 C1912 1.378 . S
C1910 C1914 1.350 . S
C1911 C1914 1.463 . S
C1911 C1916 1.350 . S
C1911 N1919 1.427 . S
C1912 H1903 0.930 . S
C1912 C1910 1.378 . S
C1912 C1913 1.367 . S
C1913 C1912 1.367 . S
C1913 C1915 1.433 . S
C1914 C1910 1.350 . S
C1914 C1911 1.463 . S
C1914 N1918 1.427 . S
C1915 H1905 0.929 . S
C1915 C1913 1.433 . S
C1915 N1918 1.384 . S
C1916 H1907 0.929 . S
C1916 C1908 1.378 . S
C1916 C1911 1.350 . S
C1917 H1904 0.929 . S
C1917 C1909 1.433 . S
C1917 N1919 1.384 . S
N1918 C1914 1.427 . S
N1918 C1915 1.384 . S
N1919 C1911 1.427 . S
N1919 C1917 1.384 . S
H1920 C1926 0.930 . S
H1921 C1930 0.930 . S
H1922 C1935 0.929 . S
H1923 C1933 0.929 . S
H1924 C1928 0.929 . S
H1925 C1934 0.929 . S
C1926 H1920 0.930 . S
C1926 C1927 1.367 . S
C1926 C1934 1.378 . S
C1927 C1926 1.367 . S
C1927 C1935 1.433 . S
C1928 H1924 0.929 . S
C1928 C1930 1.378 . S
C1928 C1932 1.350 . S
C1929 C1932 1.463 . S
C1929 C1934 1.350 . S
C1929 N1937 1.427 . S
C1930 H1921 0.930 . S
C1930 C1928 1.378 . S
C1930 C1931 1.367 . S
C1931 C1930 1.367 . S
C1931 C1933 1.433 . S
C1932 C1928 1.350 . S
C1932 C1929 1.463 . S
C1932 N1936 1.427 . S
C1933 H1923 0.929 . S
C1933 C1931 1.433 . S
C1933 N1936 1.384 . S
C1934 H1925 0.929 . S
C1934 C1926 1.378 . S
C1934 C1929 1.350 . S
C1935 H1922 0.929 . S
C1935 C1927 1.433 . S
C1935 N1937 1.384 . S
N1936 C1932 1.427 . S
N1936 C1933 1.384 . S
N1937 C1929 1.427 . S
N1937 C1935 1.384 . S
H1938 C1944 0.930 . S
H1939 C1948 0.930 . S
H1940 C1953 0.929 . S
H1941 C1951 0.929 . S
H1942 C1946 0.929 . S
H1943 C1952 0.929 . S
C1944 H1938 0.930 . S
C1944 C1945 1.367 . S
C1944 C1952 1.378 . S
C1945 C1944 1.367 . S
C1945 C1953 1.433 . S
C1946 H1942 0.929 . S
C1946 C1948 1.378 . S
C1946 C1950 1.350 . S
C1947 C1950 1.463 . S
C1947 C1952 1.350 . S
C1947 N1955 1.427 . S
C1948 H1939 0.930 . S
C1948 C1946 1.378 . S
C1948 C1949 1.367 . S
C1949 C1948 1.367 . S
C1949 C1951 1.433 . S
C1950 C1946 1.350 . S
C1950 C1947 1.463 . S
C1950 N1954 1.427 . S
C1951 H1941 0.929 . S
C1951 C1949 1.433 . S
C1951 N1954 1.384 . S
C1952 H1943 0.929 . S
C1952 C1944 1.378 . S
C1952 C1947 1.350 . S
C1953 H1940 0.929 . S
C1953 C1945 1.433 . S
C1953 N1955 1.384 . S
N1954 C1950 1.427 . S
N1954 C1951 1.384 . S
N1955 C1947 1.427 . S
N1955 C1953 1.384 . S
H1956 C1962 0.930 . S
H1957 C1966 0.930 . S
H1958 C1971 0.929 . S
H1959 C1969 0.929 . S
H1960 C1964 0.929 . S
H1961 C1970 0.929 . S
C1962 H1956 0.930 . S
C1962 C1963 1.367 . S
C1962 C1970 1.378 . S
C1963 C1962 1.367 . S
C1963 C1971 1.433 . S
C1964 H1960 0.929 . S
C1964 C1966 1.378 . S
C1964 C1968 1.350 . S
C1965 C1968 1.463 . S
C1965 C1970 1.350 . S
C1965 N1973 1.427 . S
C1966 H1957 0.930 . S
C1966 C1964 1.378 . S
C1966 C1967 1.367 . S
C1967 C1966 1.367 . S
C1967 C1969 1.433 . S
C1968 C1964 1.350 . S
C1968 C1965 1.463 . S
C1968 N1972 1.427 . S
C1969 H1959 0.929 . S
C1969 C1967 1.433 . S
C1969 N1972 1.384 . S
C1970 H1961 0.929 . S
C1970 C1962 1.378 . S
C1970 C1965 1.350 . S
C1971 H1958 0.929 . S
C1971 C1963 1.433 . S
C1971 N1973 1.384 . S
N1972 C1968 1.427 . S
N1972 C1969 1.384 . S
N1973 C1965 1.427 . S
N1973 C1971 1.384 . S
H1974 C1980 0.930 . S
H1975 C1984 0.930 . S
H1976 C1989 0.929 . S
H1977 C1987 0.929 . S
H1978 C1982 0.929 . S
H1979 C1988 0.929 . S
C1980 H1974 0.930 . S
C1980 C1981 1.367 . S
C1980 C1988 1.378 . S
C1981 C1980 1.367 . S
C1981 C1989 1.433 . S
C1982 H1978 0.929 . S
C1982 C1984 1.378 . S
C1982 C1986 1.350 . S
C1983 C1986 1.463 . S
C1983 C1988 1.350 . S
C1983 N1991 1.427 . S
C1984 H1975 0.930 . S
C1984 C1982 1.378 . S
C1984 C1985 1.367 . S
C1985 C1984 1.367 . S
C1985 C1987 1.433 . S
C1986 C1982 1.350 . S
C1986 C1983 1.463 . S
C1986 N1990 1.427 . S
C1987 H1977 0.929 . S
C1987 C1985 1.433 . S
C1987 N1990 1.384 . S
C1988 H1979 0.929 . S
C1988 C1980 1.378 . S
C1988 C1983 1.350 . S
C1989 H1976 0.929 . S
C1989 C1981 1.433 . S
C1989 N1991 1.384 . S
N1990 C1986 1.427 . S
N1990 C1987 1.384 . S
N1991 C1983 1.427 . S
N1991 C1989 1.384 . S
H1992 C1998 0.930 . S
H1993 C2002 0.930 . S
H1994 C2007 0.929 . S
H1995 C2005 0.929 . S
H1996 C2000 0.929 . S
H1997 C2006 0.929 . S
C1998 H1992 0.930 . S
C1998 C1999 1.367 . S
C1998 C2006 1.378 . S
C1999 C1998 1.367 . S
C1999 C2007 1.433 . S
C2000 H1996 0.929 . S
C2000 C2002 1.378 . S
C2000 C2004 1.350 . S
C2001 C2004 1.463 . S
C2001 C2006 1.350 . S
C2001 N2009 1.427 . S
C2002 H1993 0.930 . S
C2002 C2000 1.378 . S
C2002 C2003 1.367 . S
C2003 C2002 1.367 . S
C2003 C2005 1.433 . S
C2004 C2000 1.350 . S
C2004 C2001 1.463 . S
C2004 N2008 1.427 . S
C2005 H1995 0.929 . S
C2005 C2003 1.433 . S
C2005 N2008 1.384 . S
C2006 H1997 0.929 . S
C2006 C1998 1.378 . S
C2006 C2001 1.350 . S
C2007 H1994 0.929 . S
C2007 C1999 1.433 . S
C2007 N2009 1.384 . S
N2008 C2004 1.427 . S
N2008 C2005 1.384 . S
N2009 C2001 1.427 . S
N2009 C2007 1.384 . S
H2010 C2016 0.930 . S
H2011 C2020 0.930 . S
H2012 C2025 0.929 . S
H2013 C2023 0.929 . S
H2014 C2018 0.929 . S
H2015 C2024 0.929 . S
C2016 H2010 0.930 . S
C2016 C2017 1.367 . S
C2016 C2024 1.378 . S
C2017 C2016 1.367 . S
C2017 C2025 1.433 . S
C2018 H2014 0.929 . S
C2018 C2020 1.378 . S
C2018 C2022 1.350 . S
C2019 C2022 1.463 . S
C2019 C2024 1.350 . S
C2019 N2027 1.427 . S
C2020 H2011 0.930 . S
C2020 C2018 1.378 . S
C2020 C2021 1.367 . S
C2021 C2020 1.367 . S
C2021 C2023 1.433 . S
C2022 C2018 1.350 . S
C2022 C2019 1.463 . S
C2022 N2026 1.427 . S
C2023 H2013 0.929 . S
C2023 C2021 1.433 . S
C2023 N2026 1.384 . S
C2024 H2015 0.929 . S
C2024 C2016 1.378 . S
C2024 C2019 1.350 . S
C2025 H2012 0.929 . S
C2025 C2017 1.433 . S
C2025 N2027 1.384 . S
N2026 C2022 1.427 . S
N2026 C2023 1.384 . S
N2027 C2019 1.427 . S
N2027 C2025 1.384 . S
H2028 C2034 0.930 . S
H2029 C2038 0.930 . S
H2030 C2043 0.929 . S
H2031 C2041 0.929 . S
H2032 C2036 0.929 . S
H2033 C2042 0.929 . S
C2034 H2028 0.930 . S
C2034 C2035 1.367 . S
C2034 C2042 1.378 . S
C2035 C2034 1.367 . S
C2035 C2043 1.433 . S
C2036 H2032 0.929 . S
C2036 C2038 1.378 . S
C2036 C2040 1.350 . S
C2037 C2040 1.463 . S
C2037 C2042 1.350 . S
C2037 N2045 1.427 . S
C2038 H2029 0.930 . S
C2038 C2036 1.378 . S
C2038 C2039 1.367 . S
C2039 C2038 1.367 . S
C2039 C2041 1.433 . S
C2040 C2036 1.350 . S
C2040 C2037 1.463 . S
C2040 N2044 1.427 . S
C2041 H2031 0.929 . S
C2041 C2039 1.433 . S
C2041 N2044 1.384 . S
C2042 H2033 0.929 . S
C2042 C2034 1.378 . S
C2042 C2037 1.350 . S
C2043 H2030 0.929 . S
C2043 C2035 1.433 . S
C2043 N2045 1.384 . S
N2044 C2040 1.427 . S
N2044 C2041 1.384 . S
N2045 C2037 1.427 . S
N2045 C2043 1.384 . S
H2046 C2052 0.930 . S
H2047 C2056 0.930 . S
H2048 C2061 0.929 . S
H2049 C2059 0.929 . S
H2050 C2054 0.929 . S
H2051 C2060 0.929 . S
C2052 H2046 0.930 . S
C2052 C2053 1.367 . S
C2052 C2060 1.378 . S
C2053 C2052 1.367 . S
C2053 C2061 1.433 . S
C2054 H2050 0.929 . S
C2054 C2056 1.378 . S
C2054 C2058 1.350 . S
C2055 C2058 1.463 . S
C2055 C2060 1.350 . S
C2055 N2063 1.427 . S
C2056 H2047 0.930 . S
C2056 C2054 1.378 . S
C2056 C2057 1.367 . S
C2057 C2056 1.367 . S
C2057 C2059 1.433 . S
C2058 C2054 1.350 . S
C2058 C2055 1.463 . S
C2058 N2062 1.427 . S
C2059 H2049 0.929 . S
C2059 C2057 1.433 . S
C2059 N2062 1.384 . S
C2060 H2051 0.929 . S
C2060 C2052 1.378 . S
C2060 C2055 1.350 . S
C2061 H2048 0.929 . S
C2061 C2053 1.433 . S
C2061 N2063 1.384 . S
N2062 C2058 1.427 . S
N2062 C2059 1.384 . S
N2063 C2055 1.427 . S
N2063 C2061 1.384 . S
H2064 C2070 0.930 . S
H2065 C2074 0.930 . S
H2066 C2079 0.929 . S
H2067 C2077 0.929 . S
H2068 C2072 0.929 . S
H2069 C2078 0.929 . S
C2070 H2064 0.930 . S
C2070 C2071 1.367 . S
C2070 C2078 1.378 . S
C2071 C2070 1.367 . S
C2071 C2079 1.433 . S
C2072 H2068 0.929 . S
C2072 C2074 1.378 . S
C2072 C2076 1.350 . S
C2073 C2076 1.463 . S
C2073 C2078 1.350 . S
C2073 N2081 1.427 . S
C2074 H2065 0.930 . S
C2074 C2072 1.378 . S
C2074 C2075 1.367 . S
C2075 C2074 1.367 . S
C2075 C2077 1.433 . S
C2076 C2072 1.350 . S
C2076 C2073 1.463 . S
C2076 N2080 1.427 . S
C2077 H2067 0.929 . S
C2077 C2075 1.433 . S
C2077 N2080 1.384 . S
C2078 H2069 0.929 . S
C2078 C2070 1.378 . S
C2078 C2073 1.350 . S
C2079 H2066 0.929 . S
C2079 C2071 1.433 . S
C2079 N2081 1.384 . S
N2080 C2076 1.427 . S
N2080 C2077 1.384 . S
N2081 C2073 1.427 . S
N2081 C2079 1.384 . S
H2082 C2088 0.930 . S
H2083 C2092 0.930 . S
H2084 C2097 0.929 . S
H2085 C2095 0.929 . S
H2086 C2090 0.929 . S
H2087 C2096 0.929 . S
C2088 H2082 0.930 . S
C2088 C2089 1.367 . S
C2088 C2096 1.378 . S
C2089 C2088 1.367 . S
C2089 C2097 1.433 . S
C2090 H2086 0.929 . S
C2090 C2092 1.378 . S
C2090 C2094 1.350 . S
C2091 C2094 1.463 . S
C2091 C2096 1.350 . S
C2091 N2099 1.427 . S
C2092 H2083 0.930 . S
C2092 C2090 1.378 . S
C2092 C2093 1.367 . S
C2093 C2092 1.367 . S
C2093 C2095 1.433 . S
C2094 C2090 1.350 . S
C2094 C2091 1.463 . S
C2094 N2098 1.427 . S
C2095 H2085 0.929 . S
C2095 C2093 1.433 . S
C2095 N2098 1.384 . S
C2096 H2087 0.929 . S
C2096 C2088 1.378 . S
C2096 C2091 1.350 . S
C2097 H2084 0.929 . S
C2097 C2089 1.433 . S
C2097 N2099 1.384 . S
N2098 C2094 1.427 . S
N2098 C2095 1.384 . S
N2099 C2091 1.427 . S
N2099 C2097 1.384 . S
H2100 C2106 0.930 . S
H2101 C2110 0.930 . S
H2102 C2115 0.929 . S
H2103 C2113 0.929 . S
H2104 C2108 0.929 . S
H2105 C2114 0.929 . S
C2106 H2100 0.930 . S
C2106 C2107 1.367 . S
C2106 C2114 1.378 . S
C2107 C2106 1.367 . S
C2107 C2115 1.433 . S
C2108 H2104 0.929 . S
C2108 C2110 1.378 . S
C2108 C2112 1.350 . S
C2109 C2112 1.463 . S
C2109 C2114 1.350 . S
C2109 N2117 1.427 . S
C2110 H2101 0.930 . S
C2110 C2108 1.378 . S
C2110 C2111 1.367 . S
C2111 C2110 1.367 . S
C2111 C2113 1.433 . S
C2112 C2108 1.350 . S
C2112 C2109 1.463 . S
C2112 N2116 1.427 . S
C2113 H2103 0.929 . S
C2113 C2111 1.433 . S
C2113 N2116 1.384 . S
C2114 H2105 0.929 . S
C2114 C2106 1.378 . S
C2114 C2109 1.350 . S
C2115 H2102 0.929 . S
C2115 C2107 1.433 . S
C2115 N2117 1.384 . S
N2116 C2112 1.427 . S
N2116 C2113 1.384 . S
N2117 C2109 1.427 . S
N2117 C2115 1.384 . S
H2118 C2124 0.930 . S
H2119 C2128 0.930 . S
H2120 C2133 0.929 . S
H2121 C2131 0.929 . S
H2122 C2126 0.929 . S
H2123 C2132 0.929 . S
C2124 H2118 0.930 . S
C2124 C2125 1.367 . S
C2124 C2132 1.378 . S
C2125 C2124 1.367 . S
C2125 C2133 1.433 . S
C2126 H2122 0.929 . S
C2126 C2128 1.378 . S
C2126 C2130 1.350 . S
C2127 C2130 1.463 . S
C2127 C2132 1.350 . S
C2127 N2135 1.427 . S
C2128 H2119 0.930 . S
C2128 C2126 1.378 . S
C2128 C2129 1.367 . S
C2129 C2128 1.367 . S
C2129 C2131 1.433 . S
C2130 C2126 1.350 . S
C2130 C2127 1.463 . S
C2130 N2134 1.427 . S
C2131 H2121 0.929 . S
C2131 C2129 1.433 . S
C2131 N2134 1.384 . S
C2132 H2123 0.929 . S
C2132 C2124 1.378 . S
C2132 C2127 1.350 . S
C2133 H2120 0.929 . S
C2133 C2125 1.433 . S
C2133 N2135 1.384 . S
N2134 C2130 1.427 . S
N2134 C2131 1.384 . S
N2135 C2127 1.427 . S
N2135 C2133 1.384 . S
H2136 C2142 0.930 . S
H2137 C2146 0.930 . S
H2138 C2151 0.929 . S
H2139 C2149 0.929 . S
H2140 C2144 0.929 . S
H2141 C2150 0.929 . S
C2142 H2136 0.930 . S
C2142 C2143 1.367 . S
C2142 C2150 1.378 . S
C2143 C2142 1.367 . S
C2143 C2151 1.433 . S
C2144 H2140 0.929 . S
C2144 C2146 1.378 . S
C2144 C2148 1.350 . S
C2145 C2148 1.463 . S
C2145 C2150 1.350 . S
C2145 N2153 1.427 . S
C2146 H2137 0.930 . S
C2146 C2144 1.378 . S
C2146 C2147 1.367 . S
C2147 C2146 1.367 . S
C2147 C2149 1.433 . S
C2148 C2144 1.350 . S
C2148 C2145 1.463 . S
C2148 N2152 1.427 . S
C2149 H2139 0.929 . S
C2149 C2147 1.433 . S
C2149 N2152 1.384 . S
C2150 H2141 0.929 . S
C2150 C2142 1.378 . S
C2150 C2145 1.350 . S
C2151 H2138 0.929 . S
C2151 C2143 1.433 . S
C2151 N2153 1.384 . S
N2152 C2148 1.427 . S
N2152 C2149 1.384 . S
N2153 C2145 1.427 . S
N2153 C2151 1.384 . S
H2154 C2160 0.930 . S
H2155 C2164 0.930 . S
H2156 C2169 0.929 . S
H2157 C2167 0.929 . S
H2158 C2162 0.929 . S
H2159 C2168 0.929 . S
C2160 H2154 0.930 . S
C2160 C2161 1.367 . S
C2160 C2168 1.378 . S
C2161 C2160 1.367 . S
C2161 C2169 1.433 . S
C2162 H2158 0.929 . S
C2162 C2164 1.378 . S
C2162 C2166 1.350 . S
C2163 C2166 1.463 . S
C2163 C2168 1.350 . S
C2163 N2171 1.427 . S
C2164 H2155 0.930 . S
C2164 C2162 1.378 . S
C2164 C2165 1.367 . S
C2165 C2164 1.367 . S
C2165 C2167 1.433 . S
C2166 C2162 1.350 . S
C2166 C2163 1.463 . S
C2166 N2170 1.427 . S
C2167 H2157 0.929 . S
C2167 C2165 1.433 . S
C2167 N2170 1.384 . S
C2168 H2159 0.929 . S
C2168 C2160 1.378 . S
C2168 C2163 1.350 . S
C2169 H2156 0.929 . S
C2169 C2161 1.433 . S
C2169 N2171 1.384 . S
N2170 C2166 1.427 . S
N2170 C2167 1.384 . S
N2171 C2163 1.427 . S
N2171 C2169 1.384 . S
H2172 C2178 0.930 . S
H2173 C2182 0.930 . S
H2174 C2187 0.929 . S
H2175 C2185 0.929 . S
H2176 C2180 0.929 . S
H2177 C2186 0.929 . S
C2178 H2172 0.930 . S
C2178 C2179 1.367 . S
C2178 C2186 1.378 . S
C2179 C2178 1.367 . S
C2179 C2187 1.433 . S
C2180 H2176 0.929 . S
C2180 C2182 1.378 . S
C2180 C2184 1.350 . S
C2181 C2184 1.463 . S
C2181 C2186 1.350 . S
C2181 N2189 1.427 . S
C2182 H2173 0.930 . S
C2182 C2180 1.378 . S
C2182 C2183 1.367 . S
C2183 C2182 1.367 . S
C2183 C2185 1.433 . S
C2184 C2180 1.350 . S
C2184 C2181 1.463 . S
C2184 N2188 1.427 . S
C2185 H2175 0.929 . S
C2185 C2183 1.433 . S
C2185 N2188 1.384 . S
C2186 H2177 0.929 . S
C2186 C2178 1.378 . S
C2186 C2181 1.350 . S
C2187 H2174 0.929 . S
C2187 C2179 1.433 . S
C2187 N2189 1.384 . S
N2188 C2184 1.427 . S
N2188 C2185 1.384 . S
N2189 C2181 1.427 . S
N2189 C2187 1.384 . S
H2190 C2196 0.930 . S
H2191 C2200 0.930 . S
H2192 C2205 0.929 . S
H2193 C2203 0.929 . S
H2194 C2198 0.929 . S
H2195 C2204 0.929 . S
C2196 H2190 0.930 . S
C2196 C2197 1.367 . S
C2196 C2204 1.378 . S
C2197 C2196 1.367 . S
C2197 C2205 1.433 . S
C2198 H2194 0.929 . S
C2198 C2200 1.378 . S
C2198 C2202 1.350 . S
C2199 C2202 1.463 . S
C2199 C2204 1.350 . S
C2199 N2207 1.427 . S
C2200 H2191 0.930 . S
C2200 C2198 1.378 . S
C2200 C2201 1.367 . S
C2201 C2200 1.367 . S
C2201 C2203 1.433 . S
C2202 C2198 1.350 . S
C2202 C2199 1.463 . S
C2202 N2206 1.427 . S
C2203 H2193 0.929 . S
C2203 C2201 1.433 . S
C2203 N2206 1.384 . S
C2204 H2195 0.929 . S
C2204 C2196 1.378 . S
C2204 C2199 1.350 . S
C2205 H2192 0.929 . S
C2205 C2197 1.433 . S
C2205 N2207 1.384 . S
N2206 C2202 1.427 . S
N2206 C2203 1.384 . S
N2207 C2199 1.427 . S
N2207 C2205 1.384 . S
H2208 C2214 0.930 . S
H2209 C2218 0.930 . S
H2210 C2223 0.929 . S
H2211 C2221 0.929 . S
H2212 C2216 0.929 . S
H2213 C2222 0.929 . S
C2214 H2208 0.930 . S
C2214 C2215 1.367 . S
C2214 C2222 1.378 . S
C2215 C2214 1.367 . S
C2215 C2223 1.433 . S
C2216 H2212 0.929 . S
C2216 C2218 1.378 . S
C2216 C2220 1.350 . S
C2217 C2220 1.463 . S
C2217 C2222 1.350 . S
C2217 N2225 1.427 . S
C2218 H2209 0.930 . S
C2218 C2216 1.378 . S
C2218 C2219 1.367 . S
C2219 C2218 1.367 . S
C2219 C2221 1.433 . S
C2220 C2216 1.350 . S
C2220 C2217 1.463 . S
C2220 N2224 1.427 . S
C2221 H2211 0.929 . S
C2221 C2219 1.433 . S
C2221 N2224 1.384 . S
C2222 H2213 0.929 . S
C2222 C2214 1.378 . S
C2222 C2217 1.350 . S
C2223 H2210 0.929 . S
C2223 C2215 1.433 . S
C2223 N2225 1.384 . S
N2224 C2220 1.427 . S
N2224 C2221 1.384 . S
N2225 C2217 1.427 . S
N2225 C2223 1.384 . S
H2226 C2232 0.930 . S
H2227 C2236 0.930 . S
H2228 C2241 0.929 . S
H2229 C2239 0.929 . S
H2230 C2234 0.929 . S
H2231 C2240 0.929 . S
C2232 H2226 0.930 . S
C2232 C2233 1.367 . S
C2232 C2240 1.378 . S
C2233 C2232 1.367 . S
C2233 C2241 1.433 . S
C2234 H2230 0.929 . S
C2234 C2236 1.378 . S
C2234 C2238 1.350 . S
C2235 C2238 1.463 . S
C2235 C2240 1.350 . S
C2235 N2243 1.427 . S
C2236 H2227 0.930 . S
C2236 C2234 1.378 . S
C2236 C2237 1.367 . S
C2237 C2236 1.367 . S
C2237 C2239 1.433 . S
C2238 C2234 1.350 . S
C2238 C2235 1.463 . S
C2238 N2242 1.427 . S
C2239 H2229 0.929 . S
C2239 C2237 1.433 . S
C2239 N2242 1.384 . S
C2240 H2231 0.929 . S
C2240 C2232 1.378 . S
C2240 C2235 1.350 . S
C2241 H2228 0.929 . S
C2241 C2233 1.433 . S
C2241 N2243 1.384 . S
N2242 C2238 1.427 . S
N2242 C2239 1.384 . S
N2243 C2235 1.427 . S
N2243 C2241 1.384 . S
H2244 C2250 0.930 . S
H2245 C2254 0.930 . S
H2246 C2259 0.929 . S
H2247 C2257 0.929 . S
H2248 C2252 0.929 . S
H2249 C2258 0.929 . S
C2250 H2244 0.930 . S
C2250 C2251 1.367 . S
C2250 C2258 1.378 . S
C2251 C2250 1.367 . S
C2251 C2259 1.433 . S
C2252 H2248 0.929 . S
C2252 C2254 1.378 . S
C2252 C2256 1.350 . S
C2253 C2256 1.463 . S
C2253 C2258 1.350 . S
C2253 N2261 1.427 . S
C2254 H2245 0.930 . S
C2254 C2252 1.378 . S
C2254 C2255 1.367 . S
C2255 C2254 1.367 . S
C2255 C2257 1.433 . S
C2256 C2252 1.350 . S
C2256 C2253 1.463 . S
C2256 N2260 1.427 . S
C2257 H2247 0.929 . S
C2257 C2255 1.433 . S
C2257 N2260 1.384 . S
C2258 H2249 0.929 . S
C2258 C2250 1.378 . S
C2258 C2253 1.350 . S
C2259 H2246 0.929 . S
C2259 C2251 1.433 . S
C2259 N2261 1.384 . S
N2260 C2256 1.427 . S
N2260 C2257 1.384 . S
N2261 C2253 1.427 . S
N2261 C2259 1.384 . S
H2262 C2268 0.930 . S
H2263 C2272 0.930 . S
H2264 C2277 0.929 . S
H2265 C2275 0.929 . S
H2266 C2270 0.929 . S
H2267 C2276 0.929 . S
C2268 H2262 0.930 . S
C2268 C2269 1.367 . S
C2268 C2276 1.378 . S
C2269 C2268 1.367 . S
C2269 C2277 1.433 . S
C2270 H2266 0.929 . S
C2270 C2272 1.378 . S
C2270 C2274 1.350 . S
C2271 C2274 1.463 . S
C2271 C2276 1.350 . S
C2271 N2279 1.427 . S
C2272 H2263 0.930 . S
C2272 C2270 1.378 . S
C2272 C2273 1.367 . S
C2273 C2272 1.367 . S
C2273 C2275 1.433 . S
C2274 C2270 1.350 . S
C2274 C2271 1.463 . S
C2274 N2278 1.427 . S
C2275 H2265 0.929 . S
C2275 C2273 1.433 . S
C2275 N2278 1.384 . S
C2276 H2267 0.929 . S
C2276 C2268 1.378 . S
C2276 C2271 1.350 . S
C2277 H2264 0.929 . S
C2277 C2269 1.433 . S
C2277 N2279 1.384 . S
N2278 C2274 1.427 . S
N2278 C2275 1.384 . S
N2279 C2271 1.427 . S
N2279 C2277 1.384 . S
H2280 C2286 0.930 . S
H2281 C2290 0.930 . S
H2282 C2295 0.929 . S
H2283 C2293 0.929 . S
H2284 C2288 0.929 . S
H2285 C2294 0.929 . S
C2286 H2280 0.930 . S
C2286 C2287 1.367 . S
C2286 C2294 1.378 . S
C2287 C2286 1.367 . S
C2287 C2295 1.433 . S
C2288 H2284 0.929 . S
C2288 C2290 1.378 . S
C2288 C2292 1.350 . S
C2289 C2292 1.463 . S
C2289 C2294 1.350 . S
C2289 N2297 1.427 . S
C2290 H2281 0.930 . S
C2290 C2288 1.378 . S
C2290 C2291 1.367 . S
C2291 C2290 1.367 . S
C2291 C2293 1.433 . S
C2292 C2288 1.350 . S
C2292 C2289 1.463 . S
C2292 N2296 1.427 . S
C2293 H2283 0.929 . S
C2293 C2291 1.433 . S
C2293 N2296 1.384 . S
C2294 H2285 0.929 . S
C2294 C2286 1.378 . S
C2294 C2289 1.350 . S
C2295 H2282 0.929 . S
C2295 C2287 1.433 . S
C2295 N2297 1.384 . S
N2296 C2292 1.427 . S
N2296 C2293 1.384 . S
N2297 C2289 1.427 . S
N2297 C2295 1.384 . S
H2298 C2304 0.930 . S
H2299 C2308 0.930 . S
H2300 C2313 0.929 . S
H2301 C2311 0.929 . S
H2302 C2306 0.929 . S
H2303 C2312 0.929 . S
C2304 H2298 0.930 . S
C2304 C2305 1.367 . S
C2304 C2312 1.378 . S
C2305 C2304 1.367 . S
C2305 C2313 1.433 . S
C2306 H2302 0.929 . S
C2306 C2308 1.378 . S
C2306 C2310 1.350 . S
C2307 C2310 1.463 . S
C2307 C2312 1.350 . S
C2307 N2315 1.427 . S
C2308 H2299 0.930 . S
C2308 C2306 1.378 . S
C2308 C2309 1.367 . S
C2309 C2308 1.367 . S
C2309 C2311 1.433 . S
C2310 C2306 1.350 . S
C2310 C2307 1.463 . S
C2310 N2314 1.427 . S
C2311 H2301 0.929 . S
C2311 C2309 1.433 . S
C2311 N2314 1.384 . S
C2312 H2303 0.929 . S
C2312 C2304 1.378 . S
C2312 C2307 1.350 . S
C2313 H2300 0.929 . S
C2313 C2305 1.433 . S
C2313 N2315 1.384 . S
N2314 C2310 1.427 . S
N2314 C2311 1.384 . S
N2315 C2307 1.427 . S
N2315 C2313 1.384 . S
H2316 C2322 0.930 . S
H2317 C2326 0.930 . S
H2318 C2331 0.929 . S
H2319 C2329 0.929 . S
H2320 C2324 0.929 . S
H2321 C2330 0.929 . S
C2322 H2316 0.930 . S
C2322 C2323 1.367 . S
C2322 C2330 1.378 . S
C2323 C2322 1.367 . S
C2323 C2331 1.433 . S
C2324 H2320 0.929 . S
C2324 C2326 1.378 . S
C2324 C2328 1.350 . S
C2325 C2328 1.463 . S
C2325 C2330 1.350 . S
C2325 N2333 1.427 . S
C2326 H2317 0.930 . S
C2326 C2324 1.378 . S
C2326 C2327 1.367 . S
C2327 C2326 1.367 . S
C2327 C2329 1.433 . S
C2328 C2324 1.350 . S
C2328 C2325 1.463 . S
C2328 N2332 1.427 . S
C2329 H2319 0.929 . S
C2329 C2327 1.433 . S
C2329 N2332 1.384 . S
C2330 H2321 0.929 . S
C2330 C2322 1.378 . S
C2330 C2325 1.350 . S
C2331 H2318 0.929 . S
C2331 C2323 1.433 . S
C2331 N2333 1.384 . S
N2332 C2328 1.427 . S
N2332 C2329 1.384 . S
N2333 C2325 1.427 . S
N2333 C2331 1.384 . S
H2334 C2340 0.930 . S
H2335 C2344 0.930 . S
H2336 C2349 0.929 . S
H2337 C2347 0.929 . S
H2338 C2342 0.929 . S
H2339 C2348 0.929 . S
C2340 H2334 0.930 . S
C2340 C2341 1.367 . S
C2340 C2348 1.378 . S
C2341 C2340 1.367 . S
C2341 C2349 1.433 . S
C2342 H2338 0.929 . S
C2342 C2344 1.378 . S
C2342 C2346 1.350 . S
C2343 C2346 1.463 . S
C2343 C2348 1.350 . S
C2343 N2351 1.427 . S
C2344 H2335 0.930 . S
C2344 C2342 1.378 . S
C2344 C2345 1.367 . S
C2345 C2344 1.367 . S
C2345 C2347 1.433 . S
C2346 C2342 1.350 . S
C2346 C2343 1.463 . S
C2346 N2350 1.427 . S
C2347 H2337 0.929 . S
C2347 C2345 1.433 . S
C2347 N2350 1.384 . S
C2348 H2339 0.929 . S
C2348 C2340 1.378 . S
C2348 C2343 1.350 . S
C2349 H2336 0.929 . S
C2349 C2341 1.433 . S
C2349 N2351 1.384 . S
N2350 C2346 1.427 . S
N2350 C2347 1.384 . S
N2351 C2343 1.427 . S
N2351 C2349 1.384 . S
C631 C218 1.484 . S
C635 C3 1.502 . S
C649 C612 1.552 . S
C653 C16 1.446 . S
C667 C29 1.546 . S
C671 C595 1.524 . S
C685 C42 1.373 . S
C689 C599 1.454 . S
C703 C231 1.578 . S
C707 C55 1.589 . S
C721 C68 1.523 . S
C725 C235 1.602 . S
C739 C81 1.635 . S
C743 C257 1.622 . S
C757 C573 1.500 . S
C761 C94 1.429 . S
C775 C107 1.502 . S
C779 C10 1.483 . S
C793 C23 1.576 . S
C797 C120 1.504 . S
C811 C36 1.435 . S
C815 C133 1.451 . S
C829 C49 1.607 . S
C833 C146 1.508 . S
C847 C62 1.527 . S
C851 C159 1.542 . S
C865 C172 1.401 . S
C869 C75 1.474 . S
C883 C88 1.475 . S
C887 C185 1.489 . S
C901 C198 1.434 . S
C905 C101 1.511 . S
C919 C211 1.500 . S
C923 C114 1.487 . S
C937 C166 1.426 . S
C941 C224 1.441 . S
C955 C239 1.466 . S
C959 C179 1.476 . S
C973 C250 1.531 . S
C977 C192 1.526 . S
C991 C517 1.546 . S
C995 C265 1.543 . S
C1009 C276 1.496 . S
C1013 C452 1.484 . S
C1027 C465 1.568 . S
C1031 C291 1.556 . S
C1045 C439 1.602 . S
C1049 C304 1.616 . S
C1063 C530 1.565 . S
C1067 C315 1.576 . S
C1081 C328 1.409 . S
C1085 C300 1.473 . S
C1099 C341 1.521 . S
C1103 C283 1.518 . S
C1117 C354 1.502 . S
C1121 C287 1.578 . S
C1135 C367 1.488 . S
C1139 C543 1.472 . S
C1153 C547 1.416 . S
C1157 C380 1.326 . S
C1171 C393 1.440 . S
C1175 C569 1.428 . S
C1189 C261 1.532 . S
C1193 C406 1.436 . S
C1207 C322 1.567 . S
C1211 C419 1.577 . S
C1225 C432 1.350 . S
C1229 C335 1.471 . S
C1243 C445 1.629 . S
C1247 C348 1.623 . S
C1261 C458 1.327 . S
C1265 C361 1.443 . S
C1279 C471 1.526 . S
C1283 C374 1.526 . S
C1297 C484 1.454 . S
C1301 C387 1.567 . S
C1315 C400 1.577 . S
C1319 C497 1.588 . S
C1333 C413 1.543 . S
C1337 C510 1.435 . S
C1351 C426 1.559 . S
C1355 C523 1.569 . S
C1369 C478 1.616 . S
C1373 C536 1.631 . S
C1387 C491 1.576 . S
C1391 C551 1.590 . S
C1405 C562 1.543 . S
C1409 C504 1.520 . S
C1423 C577 1.524 . S
C1427 C205 1.507 . S
C1441 C588 1.586 . S
C1445 C140 1.575 . S
C1459 C153 1.486 . S
C1463 C603 1.497 . S
C1477 C616 1.442 . S
C1481 C127 1.445 . S
C1495 C5 1.445 . S
C1499 C352 1.368 . S
C1513 C313 1.893 . S
C1517 C18 1.879 . S
C1531 C31 1.339 . S
C1535 C326 1.265 . S
C1549 C44 1.844 . S
C1553 C339 1.855 . S
C1567 C57 1.565 . S
C1571 C66 1.483 . S
C1585 C79 2.120 . S
C1589 C70 2.110 . S
C1603 C83 1.465 . S
C1607 C92 1.385 . S
C1621 C96 2.076 . S
C1625 C53 2.093 . S
C1639 C109 1.447 . S
C1643 C556 1.433 . S
C1657 C122 1.987 . S
C1661 C560 2.001 . S
C1675 C135 1.851 . S
C1679 C270 1.825 . S
C1693 C148 2.099 . S
C1697 C534 2.118 . S
C1711 C161 1.343 . S
C1715 C608 1.320 . S
C1729 C209 1.972 . S
C1733 C174 1.969 . S
C1747 C187 1.759 . S
C1751 C621 1.734 . S
C1765 C586 2.082 . S
C1769 C200 2.075 . S
C1783 C118 1.354 . S
C1787 C213 1.440 . S
C1801 C226 1.852 . S
C1805 C508 1.734 . S
C1819 C237 1.871 . S
C1823 C469 1.852 . S
C1837 C482 1.835 . S
C1841 C252 1.943 . S
C1855 C263 1.798 . S
C1859 C183 1.775 . S
C1873 C456 1.637 . S
C1877 C278 1.755 . S
C1891 C417 1.890 . S
C1895 C289 1.911 . S
C1909 C443 2.114 . S
C1913 C302 2.131 . S
C1927 C317 1.852 . S
C1931 C40 1.742 . S
C1945 C330 1.963 . S
C1949 C1 1.974 . S
C1963 C14 1.839 . S
C1967 C343 1.942 . S
C1981 C356 1.992 . S
C1985 C27 2.006 . S
C1999 C369 1.755 . S
C2003 C378 1.637 . S
C2017 C391 1.729 . S
C2021 C382 1.723 . S
C2035 C404 1.750 . S
C2039 C395 1.853 . S
C2053 C408 1.766 . S
C2057 C365 1.776 . S
C2071 C244 1.826 . S
C2075 C421 1.855 . S
C2089 C434 1.843 . S
C2093 C248 1.853 . S
C2107 C447 1.465 . S
C2111 C582 1.442 . S
C2125 C460 1.719 . S
C2129 C222 1.725 . S
C2143 C473 1.943 . S
C2147 C296 1.920 . S
C2161 C486 1.877 . S
C2165 C521 1.892 . S
C2179 C309 1.547 . S
C2183 C499 1.561 . S
C2197 C512 1.758 . S
C2201 C274 1.768 . S
C2215 C430 1.735 . S
C2219 C525 1.852 . S
C2233 C196 1.387 . S
C2237 C538 1.464 . S
C2251 C157 1.996 . S
C2255 C549 2.017 . S
C2269 C564 1.344 . S
C2273 C170 1.252 . S
C2287 C575 2.093 . S
C2291 C495 2.093 . S
C2305 C144 1.471 . S
C2309 C590 1.558 . S
C2323 C601 1.979 . S
C2327 C105 1.969 . S
C2341 C131 1.734 . S
C2345 C614 1.757 . S
