# Generated by pormake.
# Topology whk, (6)-cn, num edge types: 1
# Building blocks:
#     Node 0, Type 0, BuildingBlock: VOLQOD_clean_sbu_1, # of connection points: 6
#     Node 1, Type 0, BuildingBlock: VOLQOD_clean_sbu_1, # of connection points: 6
#     Node 2, Type 0, BuildingBlock: VOLQOD_clean_sbu_1, # of connection points: 6
#     Node 3, Type 0, BuildingBlock: VOLQOD_clean_sbu_1, # of connection points: 6
#     Node 4, Type 0, BuildingBlock: VOLQOD_clean_sbu_1, # of connection points: 6
#     Node 5, Type 0, BuildingBlock: VOLQOD_clean_sbu_1, # of connection points: 6
#     Node 6, Type 0, BuildingBlock: VOLQOD_clean_sbu_1, # of connection points: 6
#     Node 7, Type 0, BuildingBlock: VOLQOD_clean_sbu_1, # of connection points: 6
#     Node 8, Type 0, BuildingBlock: VOLQOD_clean_sbu_1, # of connection points: 6
#     Node 9, Type 0, BuildingBlock: VOLQOD_clean_sbu_1, # of connection points: 6
#     Node 10, Type 0, BuildingBlock: VOLQOD_clean_sbu_1, # of connection points: 6
#     Node 11, Type 0, BuildingBlock: VOLQOD_clean_sbu_1, # of connection points: 6
#     Node 12, Type 0, BuildingBlock: VOLQOD_clean_sbu_1, # of connection points: 6
#     Node 13, Type 0, BuildingBlock: VOLQOD_clean_sbu_1, # of connection points: 6
#     Node 14, Type 0, BuildingBlock: VOLQOD_clean_sbu_1, # of connection points: 6
#     Node 15, Type 0, BuildingBlock: VOLQOD_clean_sbu_1, # of connection points: 6
#     Edge 16, Type (0, 0), BuildingBlock: AJUNOK_clean_linker_0, # of connection points: 2
#     Edge 17, Type (0, 0), BuildingBlock: AJUNOK_clean_linker_0, # of connection points: 2
#     Edge 18, Type (0, 0), BuildingBlock: AJUNOK_clean_linker_0, # of connection points: 2
#     Edge 19, Type (0, 0), BuildingBlock: AJUNOK_clean_linker_0, # of connection points: 2
#     Edge 20, Type (0, 0), BuildingBlock: AJUNOK_clean_linker_0, # of connection points: 2
#     Edge 21, Type (0, 0), BuildingBlock: AJUNOK_clean_linker_0, # of connection points: 2
#     Edge 22, Type (0, 0), BuildingBlock: AJUNOK_clean_linker_0, # of connection points: 2
#     Edge 23, Type (0, 0), BuildingBlock: AJUNOK_clean_linker_0, # of connection points: 2
#     Edge 24, Type (0, 0), BuildingBlock: AJUNOK_clean_linker_0, # of connection points: 2
#     Edge 25, Type (0, 0), BuildingBlock: AJUNOK_clean_linker_0, # of connection points: 2
#     Edge 26, Type (0, 0), BuildingBlock: AJUNOK_clean_linker_0, # of connection points: 2
#     Edge 27, Type (0, 0), BuildingBlock: AJUNOK_clean_linker_0, # of connection points: 2
#     Edge 28, Type (0, 0), BuildingBlock: AJUNOK_clean_linker_0, # of connection points: 2
#     Edge 29, Type (0, 0), BuildingBlock: AJUNOK_clean_linker_0, # of connection points: 2
#     Edge 30, Type (0, 0), BuildingBlock: AJUNOK_clean_linker_0, # of connection points: 2
#     Edge 31, Type (0, 0), BuildingBlock: AJUNOK_clean_linker_0, # of connection points: 2
#     Edge 32, Type (0, 0), BuildingBlock: AJUNOK_clean_linker_0, # of connection points: 2
#     Edge 33, Type (0, 0), BuildingBlock: AJUNOK_clean_linker_0, # of connection points: 2
#     Edge 34, Type (0, 0), BuildingBlock: AJUNOK_clean_linker_0, # of connection points: 2
#     Edge 35, Type (0, 0), BuildingBlock: AJUNOK_clean_linker_0, # of connection points: 2
#     Edge 36, Type (0, 0), BuildingBlock: AJUNOK_clean_linker_0, # of connection points: 2
#     Edge 37, Type (0, 0), BuildingBlock: AJUNOK_clean_linker_0, # of connection points: 2
#     Edge 38, Type (0, 0), BuildingBlock: AJUNOK_clean_linker_0, # of connection points: 2
#     Edge 39, Type (0, 0), BuildingBlock: AJUNOK_clean_linker_0, # of connection points: 2
#     Edge 40, Type (0, 0), BuildingBlock: AJUNOK_clean_linker_0, # of connection points: 2
#     Edge 41, Type (0, 0), BuildingBlock: AJUNOK_clean_linker_0, # of connection points: 2
#     Edge 42, Type (0, 0), BuildingBlock: AJUNOK_clean_linker_0, # of connection points: 2
#     Edge 43, Type (0, 0), BuildingBlock: AJUNOK_clean_linker_0, # of connection points: 2
#     Edge 44, Type (0, 0), BuildingBlock: AJUNOK_clean_linker_0, # of connection points: 2
#     Edge 45, Type (0, 0), BuildingBlock: AJUNOK_clean_linker_0, # of connection points: 2
#     Edge 46, Type (0, 0), BuildingBlock: AJUNOK_clean_linker_0, # of connection points: 2
#     Edge 47, Type (0, 0), BuildingBlock: AJUNOK_clean_linker_0, # of connection points: 2
#     Edge 48, Type (0, 0), BuildingBlock: AJUNOK_clean_linker_0, # of connection points: 2
#     Edge 49, Type (0, 0), BuildingBlock: AJUNOK_clean_linker_0, # of connection points: 2
#     Edge 50, Type (0, 0), BuildingBlock: AJUNOK_clean_linker_0, # of connection points: 2
#     Edge 51, Type (0, 0), BuildingBlock: AJUNOK_clean_linker_0, # of connection points: 2
#     Edge 52, Type (0, 0), BuildingBlock: AJUNOK_clean_linker_0, # of connection points: 2
#     Edge 53, Type (0, 0), BuildingBlock: AJUNOK_clean_linker_0, # of connection points: 2
#     Edge 54, Type (0, 0), BuildingBlock: AJUNOK_clean_linker_0, # of connection points: 2
#     Edge 55, Type (0, 0), BuildingBlock: AJUNOK_clean_linker_0, # of connection points: 2
#     Edge 56, Type (0, 0), BuildingBlock: AJUNOK_clean_linker_0, # of connection points: 2
#     Edge 57, Type (0, 0), BuildingBlock: AJUNOK_clean_linker_0, # of connection points: 2
#     Edge 58, Type (0, 0), BuildingBlock: AJUNOK_clean_linker_0, # of connection points: 2
#     Edge 59, Type (0, 0), BuildingBlock: AJUNOK_clean_linker_0, # of connection points: 2
#     Edge 60, Type (0, 0), BuildingBlock: AJUNOK_clean_linker_0, # of connection points: 2
#     Edge 61, Type (0, 0), BuildingBlock: AJUNOK_clean_linker_0, # of connection points: 2
#     Edge 62, Type (0, 0), BuildingBlock: AJUNOK_clean_linker_0, # of connection points: 2
#     Edge 63, Type (0, 0), BuildingBlock: AJUNOK_clean_linker_0, # of connection points: 2
# Relax obj value: 0.404
# Max RMSD: 0.246
# Mean RMSD: 0.242
data_MOF--net-whk--node1-VOLQOD_clean_sbu_1--edge1-AJUNOK_clean_linker_0
_symmetry_space_group_name_H-M    P1
_symmetry_Int_Tables_number       1
_symmetry_cell_setting            triclinic
loop_
_symmetry_equiv_pos_as_xyz
'x, y, z'
_cell_length_a     28.702526
_cell_length_b     28.640145
_cell_length_c     41.923599
_cell_angle_alpha  90.108613
_cell_angle_beta   90.21826
_cell_angle_gamma 89.826717
loop_
_atom_site_label
_atom_site_type_symbol
_atom_site_fract_x
_atom_site_fract_y
_atom_site_fract_z
_atom_type_partial_charge
O0 O 0.57959 0.24232 0.44875 0.0
Zn1 Zn 0.5692 0.23011 0.40272 0.0
O2 O 0.54543 0.16966 0.39571 0.0
Zn3 Zn 0.59381 0.12948 0.38051 0.0
Zn4 Zn 0.52131 0.14974 0.43593 0.0
Zn5 Zn 0.49987 0.17394 0.36269 0.0
O6 O 0.57288 0.09328 0.3419 0.0
O7 O 0.52711 0.14839 0.32121 0.0
O8 O 0.62536 0.24109 0.37708 0.0
O9 O 0.64465 0.16895 0.3632 0.0
O10 O 0.62173 0.09243 0.41719 0.0
O11 O 0.57097 0.10804 0.45571 0.0
O12 O 0.45933 0.11626 0.42664 0.0
O13 O 0.52199 0.27672 0.3918 0.0
O14 O 0.4493 0.1314 0.37488 0.0
O15 O 0.47061 0.23938 0.36178 0.0
C16 C 0.54739 0.23809 0.46933 0.0
C17 C 0.55226 0.11166 0.31791 0.0
C18 C 0.60898 0.08925 0.44626 0.0
C19 C 0.65202 0.21265 0.36263 0.0
C20 C 0.43631 0.11178 0.40052 0.0
C21 C 0.4841 0.27625 0.37626 0.0
O22 O 0.51597 0.20672 0.46627 0.0
O23 O 0.24103 0.5828 0.44975 0.0
Zn24 Zn 0.25477 0.57833 0.40326 0.0
O25 O 0.31386 0.54939 0.39757 0.0
Zn26 Zn 0.35891 0.59322 0.38301 0.0
Zn27 Zn 0.33436 0.5233 0.43724 0.0
Zn28 Zn 0.30725 0.5046 0.3644 0.0
O29 O 0.39485 0.56764 0.34613 0.0
O30 O 0.33559 0.53008 0.32356 0.0
O31 O 0.25234 0.63965 0.38028 0.0
O32 O 0.32582 0.64769 0.36484 0.0
O33 O 0.39645 0.61956 0.41962 0.0
O34 O 0.37624 0.57149 0.4586 0.0
O35 O 0.36753 0.46095 0.42686 0.0
O36 O 0.2037 0.5364 0.38878 0.0
O37 O 0.34525 0.45046 0.37623 0.0
O38 O 0.24112 0.48024 0.3629 0.0
C39 C 0.24583 0.54966 0.46981 0.0
C40 C 0.37515 0.55043 0.32145 0.0
C41 C 0.39733 0.60809 0.44896 0.0
C42 C 0.28402 0.66212 0.36562 0.0
C43 C 0.36697 0.43698 0.40097 0.0
C44 C 0.20379 0.49718 0.37463 0.0
O45 O 0.27733 0.51825 0.46654 0.0
O46 O 0.90581 0.24851 0.453 0.0
Zn47 Zn 0.91259 0.26014 0.4068 0.0
O48 O 0.93988 0.31882 0.39946 0.0
Zn49 Zn 0.89376 0.36101 0.38313 0.0
Zn50 Zn 0.96341 0.34112 0.43939 0.0
Zn51 Zn 0.9862 0.31101 0.36736 0.0
O52 O 0.91905 0.39675 0.3461 0.0
O53 O 0.96029 0.33792 0.32569 0.0
O54 O 0.85453 0.25307 0.38236 0.0
O55 O 0.8423 0.32438 0.36351 0.0
O56 O 0.86422 0.39832 0.41902 0.0
O57 O 0.91251 0.38162 0.45894 0.0
O58 O 0.02337 0.37787 0.42889 0.0
O59 O 0.95413 0.20954 0.3936 0.0
O60 O 0.03819 0.35227 0.37945 0.0
O61 O 0.01084 0.24335 0.36644 0.0
C62 C 0.93862 0.25322 0.47328 0.0
C63 C 0.93811 0.37655 0.32226 0.0
C64 C 0.87515 0.40077 0.44851 0.0
C65 C 0.83159 0.28148 0.36515 0.0
C66 C 0.04833 0.37725 0.40356 0.0
C67 C -0.00778 0.20706 0.3786 0.0
O68 O 0.97002 0.2846 0.46993 0.0
O69 O 0.14808 0.95516 0.32491 0.0
Zn70 Zn 0.1952 0.94421 0.36048 0.0
O71 O 0.16277 0.93636 0.40086 0.0
Zn72 Zn 0.17457 0.98736 0.42951 0.0
Zn73 Zn 0.09747 0.92979 0.39277 0.0
Zn74 Zn 0.18624 0.88418 0.42248 0.0
O75 O 0.19754 0.96826 0.47407 0.0
O76 O 0.23192 0.90421 0.45559 0.0
O77 O 0.24834 0.99136 0.36598 0.0
O78 O 0.23155 0.01729 0.41449 0.0
O79 O 0.12334 0.03499 0.42453 0.0
O80 O 0.06965 -0.00563 0.39787 0.0
O81 O 0.06915 0.87854 0.42182 0.0
O82 O 0.2244 0.88323 0.34723 0.0
O83 O 0.13476 0.84787 0.44136 0.0
O84 O 0.21637 0.84243 0.39194 0.0
C85 C 0.10988 0.93265 0.32158 0.0
C86 C 0.22926 0.93691 0.47609 0.0
C87 C 0.08446 0.03274 0.40968 0.0
C88 C 0.25824 0.01604 0.39054 0.0
C89 C 0.09059 0.84826 0.43894 0.0
C90 C 0.22914 0.84584 0.36313 0.0
O91 O 0.08937 0.91464 0.34564 0.0
O92 O 0.03151 0.83702 0.19082 0.0
Zn93 Zn 0.04147 0.78919 0.15542 0.0
O94 O 0.0499 0.82155 0.11487 0.0
Zn95 Zn 0.00142 0.80778 0.08481 0.0
Zn96 Zn 0.05362 0.88765 0.12176 0.0
Zn97 Zn 0.10324 0.79901 0.0945 0.0
O98 O 0.02299 0.78466 0.04107 0.0
O99 O 0.08619 0.75164 0.0616 0.0
O100 O -0.00637 0.73641 0.14991 0.0
O101 O 0.97176 0.75059 0.09997 0.0
O102 O 0.95282 0.85792 0.08727 0.0
O103 O 0.98801 0.91321 0.11585 0.0
O104 O 0.10438 0.91677 0.09255 0.0
O105 O 0.10189 0.75884 0.16921 0.0
O106 O 0.13804 0.85115 0.07547 0.0
O107 O 0.14477 0.77081 0.12595 0.0
C108 C 0.05261 0.87625 0.19336 0.0
C109 C 0.0548 0.75336 0.04013 0.0
C110 C 0.95159 0.89664 0.10241 0.0
C111 C 0.9711 0.72515 0.12465 0.0
C112 C 0.13595 0.89545 0.07653 0.0
C113 C 0.14028 0.75641 0.15433 0.0
O114 O 0.06833 0.89719 0.16873 0.0
O115 O 0.65087 0.03078 0.18949 0.0
Zn116 Zn 0.69848 0.04094 0.15446 0.0
O117 O 0.66697 0.04245 0.11352 0.0
Zn118 Zn 0.68168 0.98856 0.08835 0.0
Zn119 Zn 0.60122 0.04914 0.11977 0.0
Zn120 Zn 0.68998 0.09233 0.08969 0.0
O121 O 0.70501 0.00448 0.0433 0.0
O122 O 0.73895 0.06982 0.05997 0.0
O123 O 0.75565 -0.00181 0.15164 0.0
O124 O 0.73956 0.96177 0.10608 0.0
O125 O 0.63041 0.9412 0.09419 0.0
O126 O 0.57395 0.98414 0.11615 0.0
O127 O 0.57305 0.09702 0.08773 0.0
O128 O 0.7225 0.10453 0.16527 0.0
O129 O 0.63877 0.1213 0.06505 0.0
O130 O 0.71447 0.1405 0.1186 0.0
C131 C 0.6118 0.05246 0.19114 0.0
C132 C 0.73645 0.0358 0.0405 0.0
C133 C 0.59018 0.94476 0.10696 0.0
C134 C 0.76649 0.96923 0.12962 0.0
C135 C 0.59462 0.12192 0.06721 0.0
C136 C 0.72555 0.14059 0.14792 0.0
O137 O 0.59147 0.06763 0.16599 0.0
O138 O 0.40011 0.73813 0.06586 0.0
Zn139 Zn 0.40511 0.72535 0.11235 0.0
O140 O 0.43459 0.66663 0.11863 0.0
Zn141 Zn 0.39025 0.62158 0.13303 0.0
Zn142 Zn 0.46136 0.64632 0.07922 0.0
Zn143 Zn 0.47969 0.67468 0.15154 0.0
O144 O 0.41537 0.58695 0.17088 0.0
O145 O 0.45415 0.64663 0.19236 0.0
O146 O 0.3444 0.72835 0.13563 0.0
O147 O 0.33529 0.65471 0.1507 0.0
O148 O 0.36498 0.58316 0.0961 0.0
O149 O 0.4139 0.6038 0.05781 0.0
O150 O 0.52368 0.61298 0.09012 0.0
O151 O 0.44623 0.7772 0.12606 0.0
O152 O 0.53423 0.63646 0.14045 0.0
O153 O 0.50295 0.74184 0.15268 0.0
C154 C 0.43378 0.73456 0.04622 0.0
C155 C 0.43347 0.60726 0.19509 0.0
C156 C 0.37739 0.5822 0.06691 0.0
C157 C 0.32154 0.69684 0.15017 0.0
C158 C 0.5476 0.61389 0.11605 0.0
C159 C 0.48526 0.77855 0.14033 0.0
O160 O 0.46592 0.70381 0.04985 0.0
O161 O 0.74084 0.40592 0.06641 0.0
Zn162 Zn 0.75543 0.41194 0.11261 0.0
O163 O 0.8157 0.43751 0.11866 0.0
Zn164 Zn 0.8582 0.39033 0.1329 0.0
Zn165 Zn 0.83518 0.46312 0.07864 0.0
Zn166 Zn 0.81172 0.4827 0.15203 0.0
O167 O 0.89506 0.41222 0.17075 0.0
O168 O 0.83957 0.45564 0.19297 0.0
O169 O 0.74879 0.35179 0.1358 0.0
O170 O 0.82194 0.3369 0.14978 0.0
O171 O 0.89536 0.36419 0.09601 0.0
O172 O 0.87704 0.41454 0.05775 0.0
O173 O 0.86829 0.52536 0.08824 0.0
O174 O 0.7074 0.45709 0.12625 0.0
O175 O 0.85268 0.5347 0.13987 0.0
O176 O 0.74594 0.51055 0.15381 0.0
C177 C 0.74595 0.43824 0.04589 0.0
C178 C 0.87736 0.43186 0.19524 0.0
C179 C 0.89725 0.37704 0.06693 0.0
C180 C 0.77901 0.32624 0.14967 0.0
C181 C 0.87225 0.54835 0.11441 0.0
C182 C 0.7083 0.49579 0.141 0.0
O183 O 0.77812 0.46885 0.0488 0.0
O184 O 0.39327 0.75386 0.56383 0.0
Zn185 Zn 0.40722 0.76238 0.60972 0.0
O186 O 0.43457 0.82071 0.61731 0.0
Zn187 Zn 0.38911 0.86312 0.63341 0.0
Zn188 Zn 0.4588 0.83969 0.57689 0.0
Zn189 Zn 0.48 0.81237 0.64999 0.0
O190 O 0.4132 0.89725 0.67176 0.0
O191 O 0.45435 0.8385 0.69217 0.0
O192 O 0.35184 0.75385 0.63654 0.0
O193 O 0.33574 0.82688 0.65055 0.0
O194 O 0.36335 0.90277 0.59774 0.0
O195 O 0.41079 0.88441 0.55777 0.0
O196 O 0.52222 0.87052 0.58643 0.0
O197 O 0.45275 0.71288 0.61788 0.0
O198 O 0.53228 0.85272 0.63779 0.0
O199 O 0.50582 0.74528 0.64911 0.0
C200 C 0.42611 0.75391 0.5435 0.0
C201 C 0.43186 0.87696 0.69571 0.0
C202 C 0.37481 0.90573 0.56844 0.0
C203 C 0.32669 0.78349 0.65115 0.0
C204 C 0.54578 0.87294 0.61249 0.0
C205 C 0.49079 0.71032 0.63313 0.0
O206 O 0.46051 0.78203 0.54666 0.0
O207 O 0.72924 0.39625 0.56211 0.0
Zn208 Zn 0.7196 0.40823 0.60818 0.0
O209 O 0.66194 0.43706 0.61582 0.0
Zn210 Zn 0.61901 0.39191 0.63175 0.0
Zn211 Zn 0.64315 0.46208 0.57558 0.0
Zn212 Zn 0.67073 0.48262 0.64839 0.0
O213 O 0.58423 0.41711 0.66949 0.0
O214 O 0.64319 0.45806 0.68978 0.0
O215 O 0.72707 0.35224 0.63477 0.0
O216 O 0.65471 0.33889 0.65054 0.0
O217 O 0.58061 0.3655 0.5954 0.0
O218 O 0.59924 0.41423 0.55623 0.0
O219 O 0.61125 0.52512 0.58535 0.0
O220 O 0.76965 0.45171 0.61827 0.0
O221 O 0.63244 0.53681 0.63608 0.0
O222 O 0.73814 0.5051 0.64968 0.0
C223 C 0.72889 0.42965 0.54209 0.0
C224 C 0.60453 0.43642 0.69324 0.0
C225 C 0.57816 0.37781 0.56619 0.0
C226 C 0.69777 0.32857 0.65055 0.0
C227 C 0.61076 0.54954 0.61106 0.0
C228 C 0.77311 0.4888 0.63451 0.0
O229 O 0.7007 0.46412 0.54551 0.0
O230 O 0.07475 0.72647 0.55361 0.0
Zn231 Zn 0.06698 0.72176 0.60061 0.0
O232 O 0.04307 0.66329 0.6126 0.0
Zn233 Zn 0.09164 0.62548 0.62954 0.0
Zn234 Zn 0.0181 0.63694 0.57446 0.0
Zn235 Zn -0.00051 0.67192 0.64635 0.0
O236 O 0.07 0.58985 0.66757 0.0
O237 O 0.02709 0.64688 0.68839 0.0
O238 O 0.12391 0.73605 0.6254 0.0
O239 O 0.14044 0.6673 0.64697 0.0
O240 O 0.1209 0.58681 0.59474 0.0
O241 O 0.06768 0.59387 0.55646 0.0
O242 O 0.95838 0.60322 0.58696 0.0
O243 O 0.02036 0.76981 0.60956 0.0
O244 O 0.94664 0.63053 0.63628 0.0
O245 O 0.97362 0.73863 0.64558 0.0
C246 C 0.04182 0.71797 0.53403 0.0
C247 C 0.0506 0.60898 0.69161 0.0
C248 C 0.10696 0.57848 0.5664 0.0
C249 C 0.14868 0.71055 0.64363 0.0
C250 C 0.93465 0.60513 0.61276 0.0
C251 C 0.98512 0.77263 0.62755 0.0
O252 O 0.01001 0.68828 0.54047 0.0
O253 O 0.75571 0.0923 0.56023 0.0
Zn254 Zn 0.75973 0.07371 0.60543 0.0
O255 O 0.81862 0.04934 0.61475 0.0
Zn256 Zn 0.85656 0.09708 0.63226 0.0
Zn257 Zn 0.84023 0.02639 0.57445 0.0
Zn258 Zn 0.80987 0.00426 0.64733 0.0
O259 O 0.89244 0.07385 0.67006 0.0
O260 O 0.83646 0.02875 0.68962 0.0
O261 O 0.74458 0.12538 0.63459 0.0
O262 O 0.81518 0.14598 0.65085 0.0
O263 O 0.89491 0.12604 0.59737 0.0
O264 O 0.88503 0.07582 0.55731 0.0
O265 O 0.8709 0.9624 0.58406 0.0
O266 O 0.71341 0.024 0.60941 0.0
O267 O 0.84921 0.95163 0.63467 0.0
O268 O 0.74343 0.97809 0.64675 0.0
C269 C 0.75569 0.05952 0.53974 0.0
C270 C 0.87383 0.05257 0.69348 0.0
C271 C 0.90213 0.11378 0.56853 0.0
C272 C 0.77118 0.15138 0.65109 0.0
C273 C 0.87049 0.93809 0.60979 0.0
C274 C 0.71087 0.9883 0.62707 0.0
O275 O 0.78361 0.02479 0.54296 0.0
O276 O 0.89494 0.2313 0.95251 0.0
Zn277 Zn 0.91099 0.22355 0.90705 0.0
O278 O 0.93616 0.16402 0.89968 0.0
Zn279 Zn 0.88919 0.12375 0.88332 0.0
Zn280 Zn 0.96007 0.14411 0.9403 0.0
Zn281 Zn 0.98088 0.17137 0.86667 0.0
O282 O 0.91206 0.08781 0.8455 0.0
O283 O 0.95552 0.14413 0.8248 0.0
O284 O 0.85725 0.23489 0.87885 0.0
O285 O 0.83766 0.16264 0.86532 0.0
O286 O 0.86322 0.08437 0.91876 0.0
O287 O 0.91264 0.09815 0.95872 0.0
O288 O 0.02414 0.11402 0.93092 0.0
O289 O 0.95875 0.27137 0.90001 0.0
O290 O 0.03397 0.1327 0.87958 0.0
O291 O 0.00698 0.23765 0.86598 0.0
C292 C 0.92753 0.23102 0.97314 0.0
C293 C 0.93193 0.10646 0.82155 0.0
C294 C 0.87591 0.0785 0.94769 0.0
C295 C 0.831 0.20652 0.86401 0.0
C296 C 0.04797 0.11311 0.90505 0.0
C297 C -0.00481 0.27264 0.88308 0.0
O298 O 0.9614 0.20192 0.97073 0.0
O299 O 0.25876 0.90973 0.96266 0.0
Zn300 Zn 0.26377 0.91729 0.91565 0.0
O301 O 0.32242 0.94046 0.90347 0.0
Zn302 Zn 0.35946 0.89122 0.88649 0.0
Zn303 Zn 0.34866 0.96546 0.94175 0.0
Zn304 Zn 0.31408 0.98412 0.86967 0.0
O305 O 0.39443 0.91134 0.84763 0.0
O306 O 0.33815 0.95631 0.82769 0.0
O307 O 0.24859 0.8604 0.89124 0.0
O308 O 0.31686 0.84254 0.86972 0.0
O309 O 0.39794 0.86214 0.9215 0.0
O310 O 0.39144 0.91514 0.96007 0.0
O311 O 0.38165 0.02584 0.92934 0.0
O312 O 0.2163 0.96426 0.9063 0.0
O313 O 0.35614 0.03641 0.87952 0.0
O314 O 0.24775 0.01094 0.87031 0.0
C315 C 0.26711 0.94307 0.98195 0.0
C316 C 0.37515 0.93173 0.82394 0.0
C317 C 0.40634 0.87565 0.94995 0.0
C318 C 0.27353 0.83517 0.87306 0.0
C319 C 0.38065 0.0492 0.90328 0.0
C320 C 0.21367 -0.00048 0.8882 0.0
O321 O 0.29712 0.97452 0.97541 0.0
O322 O 0.58927 0.2639 0.95551 0.0
Zn323 Zn 0.57478 0.26733 0.90945 0.0
O324 O 0.54808 0.3248 0.89924 0.0
Zn325 Zn 0.59498 0.3648 0.88322 0.0
Zn326 Zn 0.52245 0.34549 0.9388 0.0
Zn327 Zn 0.5044 0.31451 0.86581 0.0
O328 O 0.5712 0.4 0.8453 0.0
O329 O 0.52968 0.34197 0.82436 0.0
O330 O 0.62895 0.25452 0.88221 0.0
O331 O 0.64616 0.32564 0.86528 0.0
O332 O 0.62167 0.40328 0.91931 0.0
O333 O 0.57026 0.3898 0.95781 0.0
O334 O 0.45975 0.37659 0.9275 0.0
O335 O 0.52791 0.21898 0.90326 0.0
O336 O 0.44987 0.35238 0.87712 0.0
O337 O 0.48113 0.24711 0.86563 0.0
C338 C 0.55482 0.26233 0.97447 0.0
C339 C 0.55185 0.38051 0.82128 0.0
C340 C 0.60804 0.40849 0.94805 0.0
C341 C 0.65407 0.28196 0.86589 0.0
C342 C 0.43604 0.3748 0.90151 0.0
C343 C 0.49282 0.21488 0.88511 0.0
O344 O 0.51931 0.28872 0.96978 0.0
O345 O 0.23687 0.58355 0.95014 0.0
Zn346 Zn 0.22462 0.57282 0.90411 0.0
O347 O 0.16547 0.54608 0.89728 0.0
Zn348 Zn 0.12273 0.59216 0.88181 0.0
Zn349 Zn 0.14711 0.52119 0.93782 0.0
Zn350 Zn 0.17176 0.50114 0.86407 0.0
O351 O 0.0874 0.57039 0.8432 0.0
O352 O 0.14412 0.52684 0.82261 0.0
O353 O 0.23175 0.63031 0.87905 0.0
O354 O 0.15871 0.64595 0.86531 0.0
O355 O 0.0845 0.61762 0.91798 0.0
O356 O 0.10394 0.56985 0.95766 0.0
O357 O 0.11504 0.45809 0.92821 0.0
O358 O 0.27342 0.5279 0.89277 0.0
O359 O 0.13328 0.44797 0.87684 0.0
O360 O 0.23795 0.47564 0.8624 0.0
C361 C 0.23529 0.55074 0.97054 0.0
C362 C 0.10649 0.55055 0.81927 0.0
C363 C 0.08273 0.60624 0.94733 0.0
C364 C 0.20176 0.65592 0.86511 0.0
C365 C 0.11358 0.43429 0.90223 0.0
C366 C 0.27427 0.49025 0.87689 0.0
O367 O 0.20529 0.51786 0.96778 0.0
C368 C 0.59913 0.06065 0.28132 0.0
C369 C 0.56237 0.09285 0.28547 0.0
C370 C 0.61361 0.04655 0.25088 0.0
C371 C 0.5919 0.06372 0.2231 0.0
H372 H 0.6182 0.04734 0.30171 0.0
H373 H 0.64303 0.02287 0.24922 0.0
S374 S 0.49057 0.14498 0.22076 0.0
N375 N 0.50213 0.13872 0.2591 0.0
N376 N 0.52907 0.11218 0.20194 0.0
C377 C 0.55349 0.09415 0.2269 0.0
C378 C 0.53887 0.1087 0.258 0.0
C379 C 0.3877 0.5559 0.23148 0.0
C380 C 0.42452 0.58768 0.22723 0.0
C381 C 0.37351 0.54221 0.26198 0.0
C382 C 0.39572 0.55944 0.28954 0.0
H383 H 0.36805 0.54308 0.21119 0.0
H384 H 0.3437 0.51929 0.26389 0.0
S385 S 0.49868 0.63808 0.29119 0.0
N386 N 0.48617 0.63209 0.25295 0.0
N387 N 0.45999 0.60622 0.3103 0.0
C388 C 0.43473 0.58876 0.28553 0.0
C389 C 0.44895 0.60295 0.25441 0.0
C390 C 0.89206 0.42778 0.28534 0.0
C391 C 0.92843 0.3952 0.28979 0.0
C392 C 0.87725 0.44103 0.25476 0.0
C393 C 0.8983 0.42256 0.22722 0.0
H394 H 0.87329 0.44178 0.30559 0.0
H395 H 0.8479 0.46474 0.25282 0.0
S396 S -0.00041 0.34115 0.2258 0.0
N397 N 0.98833 0.34845 0.26406 0.0
N398 N 0.96098 0.37348 0.2066 0.0
C399 C 0.93676 0.39222 0.23134 0.0
C400 C 0.95165 0.37851 0.26256 0.0
C401 C 0.06011 0.88593 0.28395 0.0
C402 C 0.09138 0.92311 0.28891 0.0
C403 C 0.04638 0.87229 0.25314 0.0
C404 C 0.06297 0.8954 0.22582 0.0
H405 H 0.0474 0.86585 0.30396 0.0
H406 H 0.02355 0.84242 0.2508 0.0
S407 S 0.14122 -0.00127 0.22588 0.0
N408 N 0.13546 0.9854 0.26393 0.0
N409 N 0.10953 0.96022 0.20616 0.0
C410 C 0.09232 0.93431 0.23053 0.0
C411 C 0.10656 0.94798 0.26196 0.0
C412 C 0.42334 0.88379 0.78621 0.0
C413 C 0.39361 0.92235 0.79137 0.0
C414 C 0.43722 0.87064 0.7554 0.0
C415 C 0.42225 0.8956 0.72834 0.0
H416 H 0.43468 0.86229 0.80601 0.0
H417 H 0.4586 0.83965 0.75282 0.0
S418 S 0.34906 0.00313 0.72917 0.0
N419 N 0.35313 0.98791 0.76703 0.0
N420 N 0.37939 0.96378 0.70923 0.0
C421 C 0.39463 0.93589 0.73333 0.0
C422 C 0.38024 0.94905 0.76475 0.0
C423 C 0.54256 0.37681 0.7618 0.0
C424 C 0.55996 0.40017 0.78889 0.0
C425 C 0.55519 0.39044 0.73093 0.0
C426 C 0.58602 0.42786 0.72577 0.0
H427 H 0.52034 0.34656 0.76437 0.0
H428 H 0.54229 0.36994 0.71106 0.0
S429 S 0.63631 0.50496 0.78816 0.0
N430 N 0.60581 0.46609 0.80817 0.0
N431 N 0.6297 0.49119 0.75018 0.0
C432 C 0.60146 0.45333 0.75247 0.0
C433 C 0.58838 0.43967 0.78396 0.0
C434 C 0.04433 0.61322 0.75134 0.0
C435 C 0.05997 0.5894 0.72399 0.0
C436 C 0.05776 0.59899 0.78205 0.0
C437 C 0.08766 0.56043 0.78682 0.0
H438 H 0.02281 0.64418 0.74908 0.0
H439 H 0.04606 0.61974 0.80212 0.0
S440 S 0.13369 0.48221 0.72363 0.0
N441 N 0.10348 0.52215 0.70409 0.0
N442 N 0.12887 0.49599 0.76171 0.0
C443 C 0.10157 0.53477 0.75986 0.0
C444 C 0.08768 0.54905 0.72854 0.0
C445 C 0.92474 0.09769 0.73116 0.0
C446 C 0.89315 0.06077 0.72603 0.0
C447 C 0.93889 0.1107 0.76196 0.0
C448 C 0.92233 0.08723 0.78908 0.0
H449 H 0.93728 0.11824 0.71132 0.0
H450 H 0.96166 0.14058 0.76448 0.0
S451 S 0.84432 0.98363 0.7885 0.0
N452 N 0.8495 -0.00217 0.75055 0.0
N453 N 0.87626 0.02173 0.80839 0.0
C454 C 0.89306 0.04825 0.78418 0.0
C455 C 0.87842 0.03521 0.75274 0.0
C456 C 0.3736 0.07208 0.36913 0.0
C457 C 0.3923 0.08488 0.39912 0.0
C458 C 0.33038 0.04983 0.36641 0.0
C459 C 0.30379 0.04 0.39353 0.0
H460 H 0.39237 0.07953 0.34736 0.0
H461 H 0.31752 0.04086 0.34286 0.0
S462 S 0.33811 0.06367 0.47787 0.0
N463 N 0.38176 0.08399 0.45656 0.0
N464 N 0.3004 0.04277 0.45176 0.0
C465 C 0.32249 0.05178 0.4238 0.0
C466 C 0.36678 0.07393 0.42653 0.0
C467 C 0.44299 0.39586 0.40294 0.0
C468 C 0.39493 0.39428 0.39742 0.0
C469 C 0.47164 0.35852 0.39397 0.0
C470 C 0.45326 0.31758 0.37996 0.0
H471 H 0.45879 0.42686 0.41308 0.0
H472 H 0.50869 0.3618 0.3982 0.0
S473 S 0.32883 0.29704 0.36038 0.0
N474 N 0.32976 0.34986 0.37626 0.0
N475 N 0.38336 0.27844 0.36083 0.0
C476 C 0.40503 0.31581 0.37421 0.0
C477 C 0.37596 0.35436 0.38276 0.0
C478 C 0.13257 0.39053 0.39496 0.0
C479 C 0.08779 0.40915 0.39956 0.0
C480 C 0.16952 0.4189 0.38511 0.0
C481 C 0.16276 0.4668 0.37906 0.0
H482 H 0.13894 0.35363 0.39871 0.0
H483 H 0.20385 0.40337 0.38303 0.0
S484 S 0.05008 0.53035 0.38245 0.0
N485 N 0.03733 0.47679 0.39405 0.0
N486 N 0.10675 0.53048 0.37562 0.0
C487 C 0.11764 0.4854 0.38254 0.0
C488 C 0.08013 0.45648 0.39273 0.0
C489 C 0.08459 0.1195 0.4017 0.0
C490 C 0.05998 0.07688 0.40127 0.0
C491 C 0.06374 0.16132 0.39149 0.0
C492 C 0.01736 0.16217 0.38077 0.0
H493 H 0.1204 0.1207 0.40989 0.0
H494 H 0.0833 0.19349 0.39353 0.0
S495 S 0.93808 0.06064 0.3735 0.0
N496 N 0.98699 0.03838 0.3878 0.0
N497 N 0.94779 0.11706 0.36922 0.0
C498 C -0.0073 0.11986 0.37949 0.0
C499 C 0.01394 0.07725 0.3896 0.0
C500 C 0.86473 0.89299 0.1003 0.0
C501 C 0.90513 0.91765 0.10924 0.0
C502 C 0.82037 0.9084 0.10909 0.0
C503 C 0.81403 0.94931 0.12717 0.0
H504 H 0.8671 0.86103 0.08655 0.0
H505 H 0.79054 0.88847 0.10096 0.0
S506 S 0.90765 0.02788 0.15616 0.0
N507 N 0.93563 0.98568 0.13728 0.0
N508 N 0.85175 0.01498 0.15331 0.0
C509 C 0.85387 0.97438 0.13656 0.0
C510 C 0.89942 0.95862 0.1276 0.0
C511 C 0.49091 0.86434 0.13032 0.0
C512 C 0.51347 0.82146 0.13632 0.0
C513 C 0.51582 0.90378 0.12045 0.0
C514 C 0.56423 0.90178 0.11549 0.0
H515 H 0.45342 0.86723 0.13263 0.0
H516 H 0.49682 0.93594 0.11623 0.0
S517 S 0.64029 0.7983 0.12886 0.0
N518 N 0.58742 0.77981 0.13749 0.0
N519 N 0.6342 0.85365 0.11867 0.0
C520 C 0.5874 0.85931 0.12189 0.0
C521 C 0.5621 0.81933 0.13248 0.0
C522 C 0.58837 0.5372 0.11473 0.0
C523 C 0.59006 0.58544 0.12005 0.0
C524 C 0.62569 0.50833 0.12369 0.0
C525 C 0.66673 0.52662 0.13756 0.0
H526 H 0.55737 0.52143 0.10462 0.0
H527 H 0.62238 0.47121 0.11943 0.0
S528 S 0.68747 0.65147 0.15682 0.0
N529 N 0.6347 0.65061 0.14101 0.0
N530 N 0.70588 0.59677 0.1565 0.0
C531 C 0.6685 0.57504 0.14322 0.0
C532 C 0.63003 0.60429 0.13465 0.0
C533 C 0.92919 0.65733 0.14885 0.0
C534 C 0.94711 0.67961 0.12187 0.0
C535 C 0.90552 0.61479 0.14605 0.0
C536 C 0.89925 0.5925 0.11618 0.0
H537 H 0.93273 0.6732 0.17221 0.0
H538 H 0.89182 0.59947 0.16766 0.0
S539 S 0.94383 0.6346 0.03847 0.0
N540 N 0.9599 0.67488 0.06442 0.0
N541 N 0.9155 0.59509 0.05935 0.0
C542 C 0.91832 0.61381 0.08912 0.0
C543 C 0.94217 0.65728 0.09192 0.0
C544 C 0.65218 0.93227 0.64835 0.0
C545 C 0.6704 0.95722 0.62261 0.0
C546 C 0.6123 0.90478 0.64455 0.0
C547 C 0.58923 0.90082 0.61476 0.0
H548 H 0.66813 0.93488 0.67175 0.0
H549 H 0.59922 0.887 0.66544 0.0
S550 S 0.6271 0.95492 0.5389 0.0
N551 N 0.66539 0.97303 0.56563 0.0
N552 N 0.59012 0.92181 0.55861 0.0
C553 C 0.60826 0.92435 0.58856 0.0
C554 C 0.64888 0.95239 0.59246 0.0
C555 C 0.5947 0.62766 0.63506 0.0
C556 C 0.58131 0.59169 0.61396 0.0
C557 C 0.56497 0.6653 0.64179 0.0
C558 C 0.52029 0.66813 0.62808 0.0
H559 H 0.62847 0.62655 0.64668 0.0
H560 H 0.57725 0.69239 0.65778 0.0
S561 S 0.46792 0.58116 0.57226 0.0
N562 N 0.52047 0.56049 0.5799 0.0
N563 N 0.46384 0.63024 0.59275 0.0
C564 C 0.50639 0.63188 0.60706 0.0
C565 C 0.5371 0.59404 0.59987 0.0
C566 C 0.85655 0.59102 0.63632 0.0
C567 C 0.8936 0.57525 0.61715 0.0
C568 C 0.81851 0.56226 0.64302 0.0
C569 C 0.81645 0.51637 0.63118 0.0
H570 H 0.85676 0.62613 0.646 0.0
H571 H 0.79018 0.5765 0.65703 0.0
S572 S 0.90756 0.45708 0.58247 0.0
N573 N 0.92756 0.51045 0.58797 0.0
N574 N 0.85704 0.45549 0.60109 0.0
C575 C 0.85435 0.49971 0.61284 0.0
C576 C 0.89257 0.52941 0.60559 0.0
C577 C 0.93904 0.88827 0.5961 0.0
C578 C 0.89705 0.89404 0.61254 0.0
C579 C 0.96759 0.84948 0.60186 0.0
C580 C 0.95513 0.81464 0.62412 0.0
H581 H 0.95066 0.91456 0.57939 0.0
H582 H -0.00022 0.84696 0.58856 0.0
S583 S 0.84648 0.8121 0.67169 0.0
N584 N 0.84285 0.86082 0.65086 0.0
N585 N 0.89654 0.78787 0.66156 0.0
C586 C 0.9126 0.81958 0.6402 0.0
C587 C 0.88356 0.85918 0.63439 0.0
C588 C 0.09603 0.04288 0.9171 0.0
C589 C 0.09203 0.08687 0.9029 0.0
C590 C 0.13487 0.01456 0.91123 0.0
C591 C 0.17158 0.02937 0.89126 0.0
H592 H 0.06828 0.02955 0.93195 0.0
H593 H 0.13593 0.98065 0.9226 0.0
S594 S 0.17846 0.14359 0.84996 0.0
N595 N 0.12816 0.14515 0.86892 0.0
N596 N 0.20166 0.0922 0.8583 0.0
C597 C 0.16822 0.07385 0.87737 0.0
C598 C 0.12842 0.10254 0.88318 0.0
C599 C 0.41534 0.11098 0.86873 0.0
C600 C 0.40885 0.09196 0.8995 0.0
C601 C 0.4418 0.15136 0.86404 0.0
C602 C 0.463 0.17385 0.88992 0.0
H603 H 0.40026 0.09435 0.8479 0.0
H604 H 0.44649 0.16441 0.84003 0.0
S605 S 0.45273 0.14188 0.97548 0.0
N606 N 0.42333 0.10103 0.95634 0.0
N607 N 0.47262 0.17713 0.94761 0.0
C608 C 0.45578 0.15614 0.92086 0.0
C609 C 0.4289 0.11509 0.92564 0.0
C610 C 0.39325 0.44992 0.90495 0.0
C611 C 0.39321 0.4023 0.89745 0.0
C612 C 0.3557 0.47845 0.89626 0.0
C613 C 0.31613 0.46027 0.88047 0.0
H614 H 0.42318 0.46558 0.91657 0.0
H615 H 0.35769 0.51514 0.90222 0.0
S616 S 0.29953 0.33686 0.85586 0.0
N617 N 0.35143 0.33773 0.87299 0.0
N618 N 0.27974 0.39098 0.8578 0.0
C619 C 0.31587 0.41246 0.87282 0.0
C620 C 0.35457 0.38357 0.88119 0.0
C621 C 0.04194 0.38851 0.91357 0.0
C622 C 0.08618 0.391 0.89976 0.0
C623 C 0.01249 0.35078 0.90707 0.0
C624 C 0.02628 0.31368 0.88687 0.0
H625 H 0.02929 0.41668 0.92852 0.0
H626 H 0.97849 0.35093 0.91806 0.0
S627 S 0.14079 0.30265 0.84666 0.0
N628 N 0.14366 0.35281 0.86603 0.0
N629 N 0.08862 0.28138 0.85431 0.0
C630 C 0.07107 0.31541 0.87349 0.0
C631 C 0.10092 0.3541 0.87989 0.0
C632 C 0.70421 0.27879 0.35024 0.0
C633 C 0.69626 0.23032 0.35 0.0
C634 C 0.74945 0.29626 0.35087 0.0
C635 C 0.78762 0.26558 0.35131 0.0
H636 H 0.67566 0.30322 0.3533 0.0
H637 H 0.7542 0.33337 0.35473 0.0
S638 S 0.78529 0.13766 0.33833 0.0
N639 N 0.72996 0.15319 0.34071 0.0
N640 N 0.81535 0.18641 0.3422 0.0
C641 C 0.78018 0.218 0.34525 0.0
C642 C 0.73413 0.20017 0.34442 0.0
C643 C 0.22678 0.72074 0.34636 0.0
C644 C 0.27329 0.70883 0.35303 0.0
C645 C 0.21333 0.76744 0.34389 0.0
C646 C 0.24598 0.80326 0.34826 0.0
H647 H 0.19998 0.69416 0.34582 0.0
H648 H 0.17647 0.77558 0.34244 0.0
S649 S 0.37309 0.79062 0.35948 0.0
N650 N 0.35333 0.73655 0.35818 0.0
N651 N 0.32708 0.82459 0.35437 0.0
C652 C 0.2932 0.79193 0.35072 0.0
C653 C 0.30719 0.74437 0.35293 0.0
C654 C 0.26512 0.75548 0.17037 0.0
C655 C 0.27558 0.70861 0.16344 0.0
C656 C 0.21898 0.77017 0.17348 0.0
C657 C 0.18224 0.73848 0.1695 0.0
H658 H 0.29232 0.78164 0.17057 0.0
H659 H 0.2119 0.80732 0.17497 0.0
S660 S 0.19129 0.61074 0.15871 0.0
N661 N 0.24577 0.62915 0.15905 0.0
N662 N 0.15873 0.65771 0.16412 0.0
C663 C 0.19228 0.69083 0.16713 0.0
C664 C 0.2393 0.67559 0.16422 0.0
C665 C 0.79924 0.244 0.16245 0.0
C666 C 0.76535 0.2797 0.16102 0.0
C667 C 0.78607 0.19709 0.16249 0.0
C668 C 0.7389 0.18504 0.16175 0.0
H669 H 0.83595 0.25195 0.16018 0.0
H670 H 0.81268 0.17044 0.15982 0.0
S671 S 0.63739 0.26449 0.16667 0.0
N672 N 0.68302 0.29947 0.16557 0.0
N673 N 0.6586 0.21084 0.1656 0.0
C674 C 0.70503 0.21997 0.16479 0.0
C675 C 0.71823 0.26766 0.16455 0.0
C676 C 0.19818 0.77901 0.65588 0.0
C677 C 0.19115 0.73051 0.65769 0.0
C678 C 0.2428 0.79762 0.65859 0.0
C679 C 0.28138 0.76805 0.66285 0.0
H680 H 0.16988 0.80229 0.64939 0.0
H681 H 0.24741 0.8344 0.65351 0.0
S682 S 0.27929 0.64151 0.68068 0.0
N683 N 0.22452 0.65527 0.67289 0.0
N684 N 0.30883 0.69064 0.6775 0.0
C685 C 0.27385 0.72094 0.67017 0.0
C686 C 0.22837 0.70194 0.66769 0.0
C687 C 0.78045 0.23274 0.66961 0.0
C688 C 0.7514 0.19384 0.66532 0.0
C689 C 0.76177 0.27765 0.6692 0.0
C690 C 0.71369 0.28457 0.66475 0.0
H691 H 0.81803 0.22909 0.66936 0.0
H692 H 0.78558 0.30695 0.66889 0.0
S693 S 0.62226 0.19343 0.66599 0.0
N694 N 0.67198 0.1643 0.66665 0.0
N695 N 0.6366 0.24921 0.66584 0.0
C696 C 0.68384 0.24595 0.66691 0.0
C697 C 0.70291 0.20015 0.6672 0.0
C698 C 0.74808 0.19532 0.85022 0.0
C699 C 0.7873 0.22447 0.85052 0.0
C700 C 0.70344 0.21451 0.85096 0.0
C701 C 0.69708 0.26321 0.85189 0.0
H702 H 0.75164 0.15791 0.85324 0.0
H703 H 0.67425 0.19111 0.85419 0.0
S704 S 0.78828 0.35289 0.83984 0.0
N705 N 0.81697 0.30294 0.84198 0.0
N706 N 0.73267 0.33933 0.84333 0.0
C707 C 0.73556 0.29211 0.84596 0.0
C708 C 0.78105 0.27252 0.84532 0.0
C709 C 0.28262 0.75485 0.85224 0.0
C710 C 0.25325 0.79278 0.85927 0.0
C711 C 0.26453 0.70995 0.84974 0.0
C712 C 0.2167 0.70199 0.85408 0.0
H713 H 0.32014 0.75888 0.85195 0.0
H714 H 0.2887 0.68096 0.84765 0.0
S715 S 0.12413 0.79205 0.86126 0.0
N716 N 0.17345 0.82155 0.86181 0.0
N717 N 0.13918 0.7367 0.85708 0.0
C718 C 0.18632 0.74051 0.85545 0.0
C719 C 0.20479 0.78626 0.85819 0.0
C720 C 0.68774 0.05572 0.46136 0.0
C721 C 0.64307 0.07173 0.4706 0.0
C722 C 0.72383 0.04902 0.48387 0.0
C723 C 0.71675 0.05902 0.51631 0.0
H724 H 0.69565 0.05039 0.43638 0.0
H725 H 0.75802 0.03858 0.47561 0.0
S726 S 0.60518 0.09461 0.55395 0.0
N727 N 0.59294 0.09113 0.51555 0.0
N728 N 0.66077 0.08067 0.55712 0.0
C729 C 0.67172 0.0722 0.52609 0.0
C730 C 0.63487 0.07786 0.50348 0.0
C731 C 0.40628 0.67275 0.52751 0.0
C732 C 0.42594 0.71601 0.51922 0.0
C733 C 0.40107 0.63678 0.50519 0.0
C734 C 0.41419 0.64262 0.47314 0.0
H735 H 0.39369 0.66681 0.55149 0.0
H736 H 0.38411 0.60506 0.51296 0.0
S737 S 0.47082 0.74827 0.43956 0.0
N738 N 0.46198 0.7617 0.47742 0.0
N739 N 0.45094 0.69461 0.43477 0.0
C740 C 0.43603 0.68507 0.46477 0.0
C741 C 0.44217 0.72159 0.48792 0.0
C742 C 0.84663 0.40717 0.50463 0.0
C743 C 0.83993 0.4177 0.47213 0.0
C744 C 0.81076 0.41267 0.52683 0.0
C745 C 0.76668 0.43003 0.51794 0.0
H746 H 0.87908 0.39199 0.51294 0.0
H747 H 0.81734 0.40192 0.5512 0.0
S748 S 0.73185 0.46824 0.43693 0.0
N749 N 0.78615 0.44995 0.43269 0.0
N750 N 0.71919 0.4615 0.47507 0.0
C751 C 0.76013 0.44388 0.48614 0.0
C752 C 0.79659 0.43744 0.46313 0.0
C753 C 0.02247 0.79104 0.50484 0.0
C754 C 0.04078 0.74534 0.50435 0.0
C755 C 0.03439 0.82369 0.48118 0.0
C756 C 0.06554 0.81161 0.45672 0.0
H757 H 0.00186 0.80266 0.52498 0.0
H758 H 0.02266 0.85949 0.48373 0.0
S759 S 0.11875 0.695 0.44314 0.0
N760 N 0.08777 0.68859 0.47597 0.0
N761 N 0.11058 0.74961 0.4317 0.0
C762 C 0.08104 0.76499 0.45474 0.0
C763 C 0.06864 0.73189 0.47859 0.0
C764 C 0.251 0.91409 0.03622 0.0
C765 C 0.23948 0.94482 0.01144 0.0
C766 C 0.21815 0.90231 0.05945 0.0
C767 C 0.17246 0.92055 0.05861 0.0
H768 H 0.28431 0.89616 0.0362 0.0
H769 H 0.2275 0.8759 0.07684 0.0
S770 S 0.1268 0.00631 1.00033 0.0
N771 N 0.18098 -0.00344 0.98878 0.0
N772 N 0.11898 0.97427 0.03262 0.0
C773 C 0.16179 0.95438 0.03553 0.0
C774 C 0.19538 0.96639 0.01177 0.0
C775 C 0.55078 0.19493 0.05288 0.0
C776 C 0.5699 0.15151 0.04381 0.0
C777 C 0.54246 0.23032 0.03007 0.0
C778 C 0.55413 0.22342 0.99781 0.0
H779 H 0.54559 0.20281 0.0779 0.0
H780 H 0.53016 0.26415 0.03805 0.0
S781 S 0.599 0.11362 0.96178 0.0
N782 N 0.59504 0.102 1.00021 0.0
N783 N 0.58078 0.168 0.95771 0.0
C784 C 0.57021 0.17898 0.98843 0.0
C785 C 0.5777 0.14314 0.01134 0.0
C786 C 0.26364 0.54282 0.0275 0.0
C787 C 0.273 0.54941 0.99495 0.0
C788 C 0.2986 0.55007 0.05077 0.0
C789 C 0.34431 0.56361 0.04227 0.0
H790 H 0.22855 0.53484 0.03516 0.0
H791 H 0.28894 0.54752 0.07565 0.0
S792 S 0.38789 0.57734 0.95945 0.0
N793 N 0.33213 0.5649 0.95513 0.0
N794 N 0.3977 0.577 0.99824 0.0
C795 C 0.35467 0.56627 0.0095 0.0
C796 C 0.31908 0.55966 0.98605 0.0
C797 C 0.9314 0.29862 0.05162 0.0
C798 C 0.91506 0.34335 0.04248 0.0
C799 C 0.93821 0.26266 0.02903 0.0
C800 C 0.92818 0.26996 0.99661 0.0
H801 H 0.93679 0.29049 0.07658 0.0
H802 H 0.94874 0.22836 0.03724 0.0
S803 S 0.89154 0.38181 0.95929 0.0
N804 N 0.89506 0.39379 0.99771 0.0
N805 N 0.90615 0.32628 0.95595 0.0
C806 C 0.9149 0.31515 0.98692 0.0
C807 C 0.90888 0.35182 0.00964 0.0
C808 C 0.29427 0.93525 0.55507 0.0
C809 C 0.34059 0.92602 0.54535 0.0
C810 C 0.25825 0.94234 0.53267 0.0
C811 C 0.26733 0.94016 0.49985 0.0
H812 H 0.28501 0.93392 0.58007 0.0
H813 H 0.2228 0.94631 0.54104 0.0
S814 S 0.38315 0.92726 0.4618 0.0
N815 N 0.39399 0.92316 0.50039 0.0
N816 N 0.32635 0.9352 0.45864 0.0
C817 C 0.31381 0.93517 0.48989 0.0
C818 C 0.35045 0.92858 0.51254 0.0
C819 C 0.55026 0.29745 0.55047 0.0
C820 C 0.55845 0.34461 0.54222 0.0
C821 C 0.54325 0.26294 0.52692 0.0
C822 C 0.54457 0.27445 0.4944 0.0
H823 H 0.55224 0.28646 0.57514 0.0
H824 H 0.53993 0.2268 0.53413 0.0
S825 S 0.55624 0.39317 0.46016 0.0
N826 N 0.56034 0.40125 0.49904 0.0
N827 N 0.54867 0.33651 0.4552 0.0
C828 C 0.54896 0.32171 0.48598 0.0
C829 C 0.55539 0.35677 0.50977 0.0
C830 C 0.22253 0.5475 0.52743 0.0
C831 C 0.21029 0.546 0.49501 0.0
C832 C 0.18825 0.55403 0.55097 0.0
C833 C 0.14063 0.559 0.5428 0.0
H834 H 0.25889 0.54677 0.53445 0.0
H835 H 0.19961 0.55819 0.57547 0.0
S836 S 0.09086 0.54852 0.46127 0.0
N837 N 0.14763 0.54376 0.45608 0.0
N838 N 0.08323 0.55482 0.5 0.0
C839 C 0.12802 0.55305 0.51056 0.0
C840 C 0.16286 0.54702 0.48675 0.0
C841 C 0.92627 0.13642 0.51339 0.0
C842 C 0.9234 0.14795 0.54599 0.0
C843 C 0.93466 0.1706 0.49031 0.0
C844 C 0.94125 0.21768 0.49876 0.0
H845 H 0.91908 0.10124 0.50526 0.0
H846 H 0.93369 0.16043 0.46539 0.0
S847 S 0.9444 0.26585 0.58067 0.0
N848 N 0.9334 0.20974 0.58565 0.0
N849 N 0.9495 0.27362 0.5418 0.0
C850 C 0.94272 0.2293 0.53121 0.0
C851 C 0.93377 0.1945 0.55493 0.0
C852 C 0.79593 0.04863 0.9609 0.0
C853 C 0.84296 0.0553 0.97006 0.0
C854 C 0.76141 0.03778 0.98342 0.0
C855 C 0.77282 0.03296 0.01579 0.0
H856 H 0.78493 0.05508 0.93656 0.0
H857 H 0.7253 0.0367 0.97584 0.0
S858 S 0.8911 0.03707 0.05149 0.0
N859 N 0.89941 0.04886 0.01338 0.0
N860 N 0.83451 0.02882 0.05542 0.0
C861 C 0.81996 0.03514 0.02482 0.0
C862 C 0.85507 0.04611 1.00203 0.0
C863 C 0.42245 0.85198 1.0063 0.0
C864 C 0.42497 0.84126 0.97354 0.0
C865 C 0.42783 0.81734 0.02953 0.0
C866 C 0.43684 0.77064 0.02115 0.0
H867 H 0.41327 0.88682 0.01422 0.0
H868 H 0.4231 0.82694 0.05434 0.0
S869 S 0.45383 0.72467 0.93946 0.0
N870 N 0.44227 0.78071 0.93424 0.0
N871 N 0.45306 0.71595 0.97839 0.0
C872 C 0.44349 0.75984 0.98887 0.0
C873 C 0.43743 0.79508 0.96496 0.0
C874 C 0.72255 0.44161 0.98808 0.0
C875 C 0.71029 0.4417 0.02045 0.0
C876 C 0.68848 0.43487 0.96425 0.0
C877 C 0.64102 0.42833 0.97207 0.0
H878 H 0.75887 0.44352 0.98127 0.0
H879 H 0.69997 0.43172 0.93977 0.0
S880 S 0.59082 0.43507 0.05345 0.0
N881 N 0.64745 0.44104 0.05898 0.0
N882 N 0.58347 0.4298 0.01457 0.0
C883 C 0.62822 0.43298 1.0043 0.0
C884 C 0.66286 0.43916 0.02839 0.0
C885 C 0.06926 0.67049 0.02556 0.0
C886 C 0.05376 0.71512 0.01625 0.0
C887 C 0.07422 0.63417 1.00349 0.0
C888 C 0.06472 0.64098 0.97087 0.0
H889 H 0.07887 0.66377 0.05016 0.0
H890 H 0.08834 0.60132 0.01197 0.0
S891 S 0.01708 0.74989 0.93489 0.0
N892 N 0.02387 0.76292 0.97303 0.0
N893 N 0.03395 0.69498 0.931 0.0
C894 C 0.04591 0.68463 0.96158 0.0
C895 C 0.04029 0.72161 0.98436 0.0
loop_
_geom_bond_atom_site_label_1
_geom_bond_atom_site_label_2
_geom_bond_distance
_geom_bond_site_symmetry_2
_ccdc_geom_bond_type
O0 Zn1 1.953 . S
O0 C16 1.225 . S
Zn1 O0 1.953 . S
Zn1 O2 1.949 . S
Zn1 O8 1.919 . S
Zn1 O13 1.924 . S
O2 Zn1 1.949 . S
O2 Zn3 1.923 . S
O2 Zn4 1.950 . S
O2 Zn5 1.945 . S
Zn3 O2 1.923 . S
Zn3 O6 1.933 . S
Zn3 O9 1.941 . S
Zn3 O10 1.965 . S
Zn4 O2 1.950 . S
Zn4 O11 1.938 . S
Zn4 O12 1.906 . S
Zn4 O22 1.953 . S
Zn5 O2 1.945 . S
Zn5 O7 1.932 . S
Zn5 O14 1.977 . S
Zn5 O15 1.910 . S
O6 Zn3 1.933 . S
O6 C17 1.226 . S
O7 Zn5 1.932 . S
O7 C17 1.307 . S
O8 Zn1 1.919 . S
O8 C19 1.253 . S
O9 Zn3 1.941 . S
O9 C19 1.283 . S
O10 Zn3 1.965 . S
O10 C18 1.303 . S
O11 Zn4 1.938 . S
O11 C18 1.247 . S
O12 Zn4 1.906 . S
O12 C20 1.304 . S
O13 Zn1 1.924 . S
O13 C21 1.311 . S
O14 Zn5 1.977 . S
O14 C20 1.272 . S
O15 Zn5 1.910 . S
O15 C21 1.231 . S
C16 O0 1.225 . S
C16 O22 1.298 . S
C17 O6 1.226 . S
C17 O7 1.307 . S
C18 O10 1.303 . S
C18 O11 1.247 . S
C19 O8 1.253 . S
C19 O9 1.283 . S
C20 O12 1.304 . S
C20 O14 1.272 . S
C21 O13 1.311 . S
C21 O15 1.231 . S
O22 Zn4 1.953 . S
O22 C16 1.298 . S
O23 Zn24 1.953 . S
O23 C39 1.225 . S
Zn24 O23 1.953 . S
Zn24 O25 1.949 . S
Zn24 O31 1.919 . S
Zn24 O36 1.924 . S
O25 Zn24 1.949 . S
O25 Zn26 1.923 . S
O25 Zn27 1.950 . S
O25 Zn28 1.945 . S
Zn26 O25 1.923 . S
Zn26 O29 1.933 . S
Zn26 O32 1.941 . S
Zn26 O33 1.965 . S
Zn27 O25 1.950 . S
Zn27 O34 1.938 . S
Zn27 O35 1.906 . S
Zn27 O45 1.953 . S
Zn28 O25 1.945 . S
Zn28 O30 1.932 . S
Zn28 O37 1.977 . S
Zn28 O38 1.910 . S
O29 Zn26 1.933 . S
O29 C40 1.226 . S
O30 Zn28 1.932 . S
O30 C40 1.307 . S
O31 Zn24 1.919 . S
O31 C42 1.253 . S
O32 Zn26 1.941 . S
O32 C42 1.283 . S
O33 Zn26 1.965 . S
O33 C41 1.303 . S
O34 Zn27 1.938 . S
O34 C41 1.247 . S
O35 Zn27 1.906 . S
O35 C43 1.304 . S
O36 Zn24 1.924 . S
O36 C44 1.311 . S
O37 Zn28 1.977 . S
O37 C43 1.272 . S
O38 Zn28 1.910 . S
O38 C44 1.231 . S
C39 O23 1.225 . S
C39 O45 1.298 . S
C40 O29 1.226 . S
C40 O30 1.307 . S
C41 O33 1.303 . S
C41 O34 1.247 . S
C42 O31 1.253 . S
C42 O32 1.283 . S
C43 O35 1.304 . S
C43 O37 1.272 . S
C44 O36 1.311 . S
C44 O38 1.231 . S
O45 Zn27 1.953 . S
O45 C39 1.298 . S
O46 Zn47 1.953 . S
O46 C62 1.225 . S
Zn47 O46 1.953 . S
Zn47 O48 1.949 . S
Zn47 O54 1.919 . S
Zn47 O59 1.924 . S
O48 Zn47 1.949 . S
O48 Zn49 1.923 . S
O48 Zn50 1.950 . S
O48 Zn51 1.945 . S
Zn49 O48 1.923 . S
Zn49 O52 1.933 . S
Zn49 O55 1.941 . S
Zn49 O56 1.965 . S
Zn50 O48 1.950 . S
Zn50 O57 1.938 . S
Zn50 O58 1.906 1_655 S
Zn50 O68 1.953 . S
Zn51 O48 1.945 . S
Zn51 O53 1.932 . S
Zn51 O60 1.977 1_655 S
Zn51 O61 1.910 1_655 S
O52 Zn49 1.933 . S
O52 C63 1.226 . S
O53 Zn51 1.932 . S
O53 C63 1.307 . S
O54 Zn47 1.919 . S
O54 C65 1.253 . S
O55 Zn49 1.941 . S
O55 C65 1.283 . S
O56 Zn49 1.965 . S
O56 C64 1.303 . S
O57 Zn50 1.938 . S
O57 C64 1.247 . S
O58 Zn50 1.906 1_455 S
O58 C66 1.304 . S
O59 Zn47 1.924 . S
O59 C67 1.311 . S
O60 Zn51 1.977 1_455 S
O60 C66 1.272 . S
O61 Zn51 1.910 1_455 S
O61 C67 1.231 1_455 S
C62 O46 1.225 . S
C62 O68 1.298 . S
C63 O52 1.226 . S
C63 O53 1.307 . S
C64 O56 1.303 . S
C64 O57 1.247 . S
C65 O54 1.253 . S
C65 O55 1.283 . S
C66 O58 1.304 . S
C66 O60 1.272 . S
C67 O59 1.311 . S
C67 O61 1.231 1_655 S
O68 Zn50 1.953 . S
O68 C62 1.298 . S
O69 Zn70 1.953 . S
O69 C85 1.225 . S
Zn70 O69 1.953 . S
Zn70 O71 1.949 . S
Zn70 O77 1.919 . S
Zn70 O82 1.924 . S
O71 Zn70 1.949 . S
O71 Zn72 1.923 . S
O71 Zn73 1.950 . S
O71 Zn74 1.945 . S
Zn72 O71 1.923 . S
Zn72 O75 1.933 . S
Zn72 O78 1.941 1_565 S
Zn72 O79 1.965 1_565 S
Zn73 O71 1.950 . S
Zn73 O80 1.938 . S
Zn73 O81 1.906 . S
Zn73 O91 1.953 . S
Zn74 O71 1.945 . S
Zn74 O76 1.932 . S
Zn74 O83 1.977 . S
Zn74 O84 1.910 . S
O75 Zn72 1.933 . S
O75 C86 1.226 . S
O76 Zn74 1.932 . S
O76 C86 1.307 . S
O77 Zn70 1.919 . S
O77 C88 1.253 1_565 S
O78 Zn72 1.941 1_545 S
O78 C88 1.283 . S
O79 Zn72 1.965 1_545 S
O79 C87 1.303 . S
O80 Zn73 1.938 . S
O80 C87 1.247 1_565 S
O81 Zn73 1.906 . S
O81 C89 1.304 . S
O82 Zn70 1.924 . S
O82 C90 1.311 . S
O83 Zn74 1.977 . S
O83 C89 1.272 . S
O84 Zn74 1.910 . S
O84 C90 1.231 . S
C85 O69 1.225 . S
C85 O91 1.298 . S
C86 O75 1.226 . S
C86 O76 1.307 . S
C87 O79 1.303 . S
C87 O80 1.247 1_545 S
C88 O77 1.253 1_545 S
C88 O78 1.283 . S
C89 O81 1.304 . S
C89 O83 1.272 . S
C90 O82 1.311 . S
C90 O84 1.231 . S
O91 Zn73 1.953 . S
O91 C85 1.298 . S
O92 Zn93 1.953 . S
O92 C108 1.225 . S
Zn93 O92 1.953 . S
Zn93 O94 1.949 . S
Zn93 O100 1.919 . S
Zn93 O105 1.924 . S
O94 Zn93 1.949 . S
O94 Zn95 1.923 . S
O94 Zn96 1.950 . S
O94 Zn97 1.945 . S
Zn95 O94 1.923 . S
Zn95 O98 1.933 . S
Zn95 O101 1.941 1_455 S
Zn95 O102 1.965 1_455 S
Zn96 O94 1.950 . S
Zn96 O103 1.938 . S
Zn96 O104 1.906 . S
Zn96 O114 1.953 . S
Zn97 O94 1.945 . S
Zn97 O99 1.932 . S
Zn97 O106 1.977 . S
Zn97 O107 1.910 . S
O98 Zn95 1.933 . S
O98 C109 1.226 . S
O99 Zn97 1.932 . S
O99 C109 1.307 . S
O100 Zn93 1.919 . S
O100 C111 1.253 1_455 S
O101 Zn95 1.941 1_655 S
O101 C111 1.283 . S
O102 Zn95 1.965 1_655 S
O102 C110 1.303 . S
O103 Zn96 1.938 . S
O103 C110 1.247 1_455 S
O104 Zn96 1.906 . S
O104 C112 1.304 . S
O105 Zn93 1.924 . S
O105 C113 1.311 . S
O106 Zn97 1.977 . S
O106 C112 1.272 . S
O107 Zn97 1.910 . S
O107 C113 1.231 . S
C108 O92 1.225 . S
C108 O114 1.298 . S
C109 O98 1.226 . S
C109 O99 1.307 . S
C110 O102 1.303 . S
C110 O103 1.247 1_655 S
C111 O100 1.253 1_655 S
C111 O101 1.283 . S
C112 O104 1.304 . S
C112 O106 1.272 . S
C113 O105 1.311 . S
C113 O107 1.231 . S
O114 Zn96 1.953 . S
O114 C108 1.298 . S
O115 Zn116 1.953 . S
O115 C131 1.225 . S
Zn116 O115 1.953 . S
Zn116 O117 1.949 . S
Zn116 O123 1.919 . S
Zn116 O128 1.924 . S
O117 Zn116 1.949 . S
O117 Zn118 1.923 . S
O117 Zn119 1.950 . S
O117 Zn120 1.945 . S
Zn118 O117 1.923 . S
Zn118 O121 1.933 . S
Zn118 O124 1.941 1_545 S
Zn118 O125 1.965 1_545 S
Zn119 O117 1.950 . S
Zn119 O126 1.938 . S
Zn119 O127 1.906 . S
Zn119 O137 1.953 . S
Zn120 O117 1.945 . S
Zn120 O122 1.932 . S
Zn120 O129 1.977 . S
Zn120 O130 1.910 . S
O121 Zn118 1.933 . S
O121 C132 1.226 . S
O122 Zn120 1.932 . S
O122 C132 1.307 . S
O123 Zn116 1.919 . S
O123 C134 1.253 1_545 S
O124 Zn118 1.941 1_565 S
O124 C134 1.283 . S
O125 Zn118 1.965 1_565 S
O125 C133 1.303 . S
O126 Zn119 1.938 . S
O126 C133 1.247 1_545 S
O127 Zn119 1.906 . S
O127 C135 1.304 . S
O128 Zn116 1.924 . S
O128 C136 1.311 . S
O129 Zn120 1.977 . S
O129 C135 1.272 . S
O130 Zn120 1.910 . S
O130 C136 1.231 . S
C131 O115 1.225 . S
C131 O137 1.298 . S
C132 O121 1.226 . S
C132 O122 1.307 . S
C133 O125 1.303 . S
C133 O126 1.247 1_565 S
C134 O123 1.253 1_565 S
C134 O124 1.283 . S
C135 O127 1.304 . S
C135 O129 1.272 . S
C136 O128 1.311 . S
C136 O130 1.231 . S
O137 Zn119 1.953 . S
O137 C131 1.298 . S
O138 Zn139 1.953 . S
O138 C154 1.225 . S
Zn139 O138 1.953 . S
Zn139 O140 1.949 . S
Zn139 O146 1.919 . S
Zn139 O151 1.924 . S
O140 Zn139 1.949 . S
O140 Zn141 1.923 . S
O140 Zn142 1.950 . S
O140 Zn143 1.945 . S
Zn141 O140 1.923 . S
Zn141 O144 1.933 . S
Zn141 O147 1.941 . S
Zn141 O148 1.965 . S
Zn142 O140 1.950 . S
Zn142 O149 1.938 . S
Zn142 O150 1.906 . S
Zn142 O160 1.953 . S
Zn143 O140 1.945 . S
Zn143 O145 1.932 . S
Zn143 O152 1.977 . S
Zn143 O153 1.910 . S
O144 Zn141 1.933 . S
O144 C155 1.226 . S
O145 Zn143 1.932 . S
O145 C155 1.307 . S
O146 Zn139 1.919 . S
O146 C157 1.253 . S
O147 Zn141 1.941 . S
O147 C157 1.283 . S
O148 Zn141 1.965 . S
O148 C156 1.303 . S
O149 Zn142 1.938 . S
O149 C156 1.247 . S
O150 Zn142 1.906 . S
O150 C158 1.304 . S
O151 Zn139 1.924 . S
O151 C159 1.311 . S
O152 Zn143 1.977 . S
O152 C158 1.272 . S
O153 Zn143 1.910 . S
O153 C159 1.231 . S
C154 O138 1.225 . S
C154 O160 1.298 . S
C155 O144 1.226 . S
C155 O145 1.307 . S
C156 O148 1.303 . S
C156 O149 1.247 . S
C157 O146 1.253 . S
C157 O147 1.283 . S
C158 O150 1.304 . S
C158 O152 1.272 . S
C159 O151 1.311 . S
C159 O153 1.231 . S
O160 Zn142 1.953 . S
O160 C154 1.298 . S
O161 Zn162 1.953 . S
O161 C177 1.225 . S
Zn162 O161 1.953 . S
Zn162 O163 1.949 . S
Zn162 O169 1.919 . S
Zn162 O174 1.924 . S
O163 Zn162 1.949 . S
O163 Zn164 1.923 . S
O163 Zn165 1.950 . S
O163 Zn166 1.945 . S
Zn164 O163 1.923 . S
Zn164 O167 1.933 . S
Zn164 O170 1.941 . S
Zn164 O171 1.965 . S
Zn165 O163 1.950 . S
Zn165 O172 1.938 . S
Zn165 O173 1.906 . S
Zn165 O183 1.953 . S
Zn166 O163 1.945 . S
Zn166 O168 1.932 . S
Zn166 O175 1.977 . S
Zn166 O176 1.910 . S
O167 Zn164 1.933 . S
O167 C178 1.226 . S
O168 Zn166 1.932 . S
O168 C178 1.307 . S
O169 Zn162 1.919 . S
O169 C180 1.253 . S
O170 Zn164 1.941 . S
O170 C180 1.283 . S
O171 Zn164 1.965 . S
O171 C179 1.303 . S
O172 Zn165 1.938 . S
O172 C179 1.247 . S
O173 Zn165 1.906 . S
O173 C181 1.304 . S
O174 Zn162 1.924 . S
O174 C182 1.311 . S
O175 Zn166 1.977 . S
O175 C181 1.272 . S
O176 Zn166 1.910 . S
O176 C182 1.231 . S
C177 O161 1.225 . S
C177 O183 1.298 . S
C178 O167 1.226 . S
C178 O168 1.307 . S
C179 O171 1.303 . S
C179 O172 1.247 . S
C180 O169 1.253 . S
C180 O170 1.283 . S
C181 O173 1.304 . S
C181 O175 1.272 . S
C182 O174 1.311 . S
C182 O176 1.231 . S
O183 Zn165 1.953 . S
O183 C177 1.298 . S
O184 Zn185 1.953 . S
O184 C200 1.225 . S
Zn185 O184 1.953 . S
Zn185 O186 1.949 . S
Zn185 O192 1.919 . S
Zn185 O197 1.924 . S
O186 Zn185 1.949 . S
O186 Zn187 1.923 . S
O186 Zn188 1.950 . S
O186 Zn189 1.945 . S
Zn187 O186 1.923 . S
Zn187 O190 1.933 . S
Zn187 O193 1.941 . S
Zn187 O194 1.965 . S
Zn188 O186 1.950 . S
Zn188 O195 1.938 . S
Zn188 O196 1.906 . S
Zn188 O206 1.953 . S
Zn189 O186 1.945 . S
Zn189 O191 1.932 . S
Zn189 O198 1.977 . S
Zn189 O199 1.910 . S
O190 Zn187 1.933 . S
O190 C201 1.226 . S
O191 Zn189 1.932 . S
O191 C201 1.307 . S
O192 Zn185 1.919 . S
O192 C203 1.253 . S
O193 Zn187 1.941 . S
O193 C203 1.283 . S
O194 Zn187 1.965 . S
O194 C202 1.303 . S
O195 Zn188 1.938 . S
O195 C202 1.247 . S
O196 Zn188 1.906 . S
O196 C204 1.304 . S
O197 Zn185 1.924 . S
O197 C205 1.311 . S
O198 Zn189 1.977 . S
O198 C204 1.272 . S
O199 Zn189 1.910 . S
O199 C205 1.231 . S
C200 O184 1.225 . S
C200 O206 1.298 . S
C201 O190 1.226 . S
C201 O191 1.307 . S
C202 O194 1.303 . S
C202 O195 1.247 . S
C203 O192 1.253 . S
C203 O193 1.283 . S
C204 O196 1.304 . S
C204 O198 1.272 . S
C205 O197 1.311 . S
C205 O199 1.231 . S
O206 Zn188 1.953 . S
O206 C200 1.298 . S
O207 Zn208 1.953 . S
O207 C223 1.225 . S
Zn208 O207 1.953 . S
Zn208 O209 1.949 . S
Zn208 O215 1.919 . S
Zn208 O220 1.924 . S
O209 Zn208 1.949 . S
O209 Zn210 1.923 . S
O209 Zn211 1.950 . S
O209 Zn212 1.945 . S
Zn210 O209 1.923 . S
Zn210 O213 1.933 . S
Zn210 O216 1.941 . S
Zn210 O217 1.965 . S
Zn211 O209 1.950 . S
Zn211 O218 1.938 . S
Zn211 O219 1.906 . S
Zn211 O229 1.953 . S
Zn212 O209 1.945 . S
Zn212 O214 1.932 . S
Zn212 O221 1.977 . S
Zn212 O222 1.910 . S
O213 Zn210 1.933 . S
O213 C224 1.226 . S
O214 Zn212 1.932 . S
O214 C224 1.307 . S
O215 Zn208 1.919 . S
O215 C226 1.253 . S
O216 Zn210 1.941 . S
O216 C226 1.283 . S
O217 Zn210 1.965 . S
O217 C225 1.303 . S
O218 Zn211 1.938 . S
O218 C225 1.247 . S
O219 Zn211 1.906 . S
O219 C227 1.304 . S
O220 Zn208 1.924 . S
O220 C228 1.311 . S
O221 Zn212 1.977 . S
O221 C227 1.272 . S
O222 Zn212 1.910 . S
O222 C228 1.231 . S
C223 O207 1.225 . S
C223 O229 1.298 . S
C224 O213 1.226 . S
C224 O214 1.307 . S
C225 O217 1.303 . S
C225 O218 1.247 . S
C226 O215 1.253 . S
C226 O216 1.283 . S
C227 O219 1.304 . S
C227 O221 1.272 . S
C228 O220 1.311 . S
C228 O222 1.231 . S
O229 Zn211 1.953 . S
O229 C223 1.298 . S
O230 Zn231 1.953 . S
O230 C246 1.225 . S
Zn231 O230 1.953 . S
Zn231 O232 1.949 . S
Zn231 O238 1.919 . S
Zn231 O243 1.924 . S
O232 Zn231 1.949 . S
O232 Zn233 1.923 . S
O232 Zn234 1.950 . S
O232 Zn235 1.945 . S
Zn233 O232 1.923 . S
Zn233 O236 1.933 . S
Zn233 O239 1.941 . S
Zn233 O240 1.965 . S
Zn234 O232 1.950 . S
Zn234 O241 1.938 . S
Zn234 O242 1.906 1_455 S
Zn234 O252 1.953 . S
Zn235 O232 1.945 . S
Zn235 O237 1.932 . S
Zn235 O244 1.977 1_455 S
Zn235 O245 1.910 1_455 S
O236 Zn233 1.933 . S
O236 C247 1.226 . S
O237 Zn235 1.932 . S
O237 C247 1.307 . S
O238 Zn231 1.919 . S
O238 C249 1.253 . S
O239 Zn233 1.941 . S
O239 C249 1.283 . S
O240 Zn233 1.965 . S
O240 C248 1.303 . S
O241 Zn234 1.938 . S
O241 C248 1.247 . S
O242 Zn234 1.906 1_655 S
O242 C250 1.304 . S
O243 Zn231 1.924 . S
O243 C251 1.311 . S
O244 Zn235 1.977 1_655 S
O244 C250 1.272 . S
O245 Zn235 1.910 1_655 S
O245 C251 1.231 1_655 S
C246 O230 1.225 . S
C246 O252 1.298 . S
C247 O236 1.226 . S
C247 O237 1.307 . S
C248 O240 1.303 . S
C248 O241 1.247 . S
C249 O238 1.253 . S
C249 O239 1.283 . S
C250 O242 1.304 . S
C250 O244 1.272 . S
C251 O243 1.311 . S
C251 O245 1.231 1_455 S
O252 Zn234 1.953 . S
O252 C246 1.298 . S
O253 Zn254 1.953 . S
O253 C269 1.225 . S
Zn254 O253 1.953 . S
Zn254 O255 1.949 . S
Zn254 O261 1.919 . S
Zn254 O266 1.924 . S
O255 Zn254 1.949 . S
O255 Zn256 1.923 . S
O255 Zn257 1.950 . S
O255 Zn258 1.945 . S
Zn256 O255 1.923 . S
Zn256 O259 1.933 . S
Zn256 O262 1.941 . S
Zn256 O263 1.965 . S
Zn257 O255 1.950 . S
Zn257 O264 1.938 . S
Zn257 O265 1.906 1_545 S
Zn257 O275 1.953 . S
Zn258 O255 1.945 . S
Zn258 O260 1.932 . S
Zn258 O267 1.977 1_545 S
Zn258 O268 1.910 1_545 S
O259 Zn256 1.933 . S
O259 C270 1.226 . S
O260 Zn258 1.932 . S
O260 C270 1.307 . S
O261 Zn254 1.919 . S
O261 C272 1.253 . S
O262 Zn256 1.941 . S
O262 C272 1.283 . S
O263 Zn256 1.965 . S
O263 C271 1.303 . S
O264 Zn257 1.938 . S
O264 C271 1.247 . S
O265 Zn257 1.906 1_565 S
O265 C273 1.304 . S
O266 Zn254 1.924 . S
O266 C274 1.311 . S
O267 Zn258 1.977 1_565 S
O267 C273 1.272 . S
O268 Zn258 1.910 1_565 S
O268 C274 1.231 1_565 S
C269 O253 1.225 . S
C269 O275 1.298 . S
C270 O259 1.226 . S
C270 O260 1.307 . S
C271 O263 1.303 . S
C271 O264 1.247 . S
C272 O261 1.253 . S
C272 O262 1.283 . S
C273 O265 1.304 . S
C273 O267 1.272 . S
C274 O266 1.311 . S
C274 O268 1.231 1_545 S
O275 Zn257 1.953 . S
O275 C269 1.298 . S
O276 Zn277 1.953 . S
O276 C292 1.225 . S
Zn277 O276 1.953 . S
Zn277 O278 1.949 . S
Zn277 O284 1.919 . S
Zn277 O289 1.924 . S
O278 Zn277 1.949 . S
O278 Zn279 1.923 . S
O278 Zn280 1.950 . S
O278 Zn281 1.945 . S
Zn279 O278 1.923 . S
Zn279 O282 1.933 . S
Zn279 O285 1.941 . S
Zn279 O286 1.965 . S
Zn280 O278 1.950 . S
Zn280 O287 1.938 . S
Zn280 O288 1.906 1_655 S
Zn280 O298 1.953 . S
Zn281 O278 1.945 . S
Zn281 O283 1.932 . S
Zn281 O290 1.977 1_655 S
Zn281 O291 1.910 1_655 S
O282 Zn279 1.933 . S
O282 C293 1.226 . S
O283 Zn281 1.932 . S
O283 C293 1.307 . S
O284 Zn277 1.919 . S
O284 C295 1.253 . S
O285 Zn279 1.941 . S
O285 C295 1.283 . S
O286 Zn279 1.965 . S
O286 C294 1.303 . S
O287 Zn280 1.938 . S
O287 C294 1.247 . S
O288 Zn280 1.906 1_455 S
O288 C296 1.304 . S
O289 Zn277 1.924 . S
O289 C297 1.311 . S
O290 Zn281 1.977 1_455 S
O290 C296 1.272 . S
O291 Zn281 1.910 1_455 S
O291 C297 1.231 1_455 S
C292 O276 1.225 . S
C292 O298 1.298 . S
C293 O282 1.226 . S
C293 O283 1.307 . S
C294 O286 1.303 . S
C294 O287 1.247 . S
C295 O284 1.253 . S
C295 O285 1.283 . S
C296 O288 1.304 . S
C296 O290 1.272 . S
C297 O289 1.311 . S
C297 O291 1.231 1_655 S
O298 Zn280 1.953 . S
O298 C292 1.298 . S
O299 Zn300 1.953 . S
O299 C315 1.225 . S
Zn300 O299 1.953 . S
Zn300 O301 1.949 . S
Zn300 O307 1.919 . S
Zn300 O312 1.924 . S
O301 Zn300 1.949 . S
O301 Zn302 1.923 . S
O301 Zn303 1.950 . S
O301 Zn304 1.945 . S
Zn302 O301 1.923 . S
Zn302 O305 1.933 . S
Zn302 O308 1.941 . S
Zn302 O309 1.965 . S
Zn303 O301 1.950 . S
Zn303 O310 1.938 . S
Zn303 O311 1.906 1_565 S
Zn303 O321 1.953 . S
Zn304 O301 1.945 . S
Zn304 O306 1.932 . S
Zn304 O313 1.977 1_565 S
Zn304 O314 1.910 1_565 S
O305 Zn302 1.933 . S
O305 C316 1.226 . S
O306 Zn304 1.932 . S
O306 C316 1.307 . S
O307 Zn300 1.919 . S
O307 C318 1.253 . S
O308 Zn302 1.941 . S
O308 C318 1.283 . S
O309 Zn302 1.965 . S
O309 C317 1.303 . S
O310 Zn303 1.938 . S
O310 C317 1.247 . S
O311 Zn303 1.906 1_545 S
O311 C319 1.304 . S
O312 Zn300 1.924 . S
O312 C320 1.311 . S
O313 Zn304 1.977 1_545 S
O313 C319 1.272 . S
O314 Zn304 1.910 1_545 S
O314 C320 1.231 1_545 S
C315 O299 1.225 . S
C315 O321 1.298 . S
C316 O305 1.226 . S
C316 O306 1.307 . S
C317 O309 1.303 . S
C317 O310 1.247 . S
C318 O307 1.253 . S
C318 O308 1.283 . S
C319 O311 1.304 . S
C319 O313 1.272 . S
C320 O312 1.311 . S
C320 O314 1.231 1_565 S
O321 Zn303 1.953 . S
O321 C315 1.298 . S
O322 Zn323 1.953 . S
O322 C338 1.225 . S
Zn323 O322 1.953 . S
Zn323 O324 1.949 . S
Zn323 O330 1.919 . S
Zn323 O335 1.924 . S
O324 Zn323 1.949 . S
O324 Zn325 1.923 . S
O324 Zn326 1.950 . S
O324 Zn327 1.945 . S
Zn325 O324 1.923 . S
Zn325 O328 1.933 . S
Zn325 O331 1.941 . S
Zn325 O332 1.965 . S
Zn326 O324 1.950 . S
Zn326 O333 1.938 . S
Zn326 O334 1.906 . S
Zn326 O344 1.953 . S
Zn327 O324 1.945 . S
Zn327 O329 1.932 . S
Zn327 O336 1.977 . S
Zn327 O337 1.910 . S
O328 Zn325 1.933 . S
O328 C339 1.226 . S
O329 Zn327 1.932 . S
O329 C339 1.307 . S
O330 Zn323 1.919 . S
O330 C341 1.253 . S
O331 Zn325 1.941 . S
O331 C341 1.283 . S
O332 Zn325 1.965 . S
O332 C340 1.303 . S
O333 Zn326 1.938 . S
O333 C340 1.247 . S
O334 Zn326 1.906 . S
O334 C342 1.304 . S
O335 Zn323 1.924 . S
O335 C343 1.311 . S
O336 Zn327 1.977 . S
O336 C342 1.272 . S
O337 Zn327 1.910 . S
O337 C343 1.231 . S
C338 O322 1.225 . S
C338 O344 1.298 . S
C339 O328 1.226 . S
C339 O329 1.307 . S
C340 O332 1.303 . S
C340 O333 1.247 . S
C341 O330 1.253 . S
C341 O331 1.283 . S
C342 O334 1.304 . S
C342 O336 1.272 . S
C343 O335 1.311 . S
C343 O337 1.231 . S
O344 Zn326 1.953 . S
O344 C338 1.298 . S
O345 Zn346 1.953 . S
O345 C361 1.225 . S
Zn346 O345 1.953 . S
Zn346 O347 1.949 . S
Zn346 O353 1.919 . S
Zn346 O358 1.924 . S
O347 Zn346 1.949 . S
O347 Zn348 1.923 . S
O347 Zn349 1.950 . S
O347 Zn350 1.945 . S
Zn348 O347 1.923 . S
Zn348 O351 1.933 . S
Zn348 O354 1.941 . S
Zn348 O355 1.965 . S
Zn349 O347 1.950 . S
Zn349 O356 1.938 . S
Zn349 O357 1.906 . S
Zn349 O367 1.953 . S
Zn350 O347 1.945 . S
Zn350 O352 1.932 . S
Zn350 O359 1.977 . S
Zn350 O360 1.910 . S
O351 Zn348 1.933 . S
O351 C362 1.226 . S
O352 Zn350 1.932 . S
O352 C362 1.307 . S
O353 Zn346 1.919 . S
O353 C364 1.253 . S
O354 Zn348 1.941 . S
O354 C364 1.283 . S
O355 Zn348 1.965 . S
O355 C363 1.303 . S
O356 Zn349 1.938 . S
O356 C363 1.247 . S
O357 Zn349 1.906 . S
O357 C365 1.304 . S
O358 Zn346 1.924 . S
O358 C366 1.311 . S
O359 Zn350 1.977 . S
O359 C365 1.272 . S
O360 Zn350 1.910 . S
O360 C366 1.231 . S
C361 O345 1.225 . S
C361 O367 1.298 . S
C362 O351 1.226 . S
C362 O352 1.307 . S
C363 O355 1.303 . S
C363 O356 1.247 . S
C364 O353 1.253 . S
C364 O354 1.283 . S
C365 O357 1.304 . S
C365 O359 1.272 . S
C366 O358 1.311 . S
C366 O360 1.231 . S
O367 Zn349 1.953 . S
O367 C361 1.298 . S
C368 C369 1.369 . S
C368 C370 1.419 . S
C368 H372 0.930 . S
C369 C368 1.369 . S
C369 C378 1.429 . S
C370 C368 1.419 . S
C370 C371 1.363 . S
C370 H373 0.929 . S
C371 C370 1.363 . S
C371 C377 1.428 . S
H372 C368 0.930 . S
H373 C370 0.929 . S
S374 N375 1.613 . S
S374 N376 1.610 . S
N375 S374 1.613 . S
N375 C378 1.350 . S
N376 S374 1.610 . S
N376 C377 1.351 . S
C377 C371 1.428 . S
C377 N376 1.351 . S
C377 C378 1.434 . S
C378 C369 1.429 . S
C378 N375 1.350 . S
C378 C377 1.434 . S
C379 C380 1.369 . S
C379 C381 1.419 . S
C379 H383 0.930 . S
C380 C379 1.369 . S
C380 C389 1.429 . S
C381 C379 1.419 . S
C381 C382 1.363 . S
C381 H384 0.929 . S
C382 C381 1.363 . S
C382 C388 1.428 . S
H383 C379 0.930 . S
H384 C381 0.929 . S
S385 N386 1.613 . S
S385 N387 1.610 . S
N386 S385 1.613 . S
N386 C389 1.350 . S
N387 S385 1.610 . S
N387 C388 1.351 . S
C388 C382 1.428 . S
C388 N387 1.351 . S
C388 C389 1.434 . S
C389 C380 1.429 . S
C389 N386 1.350 . S
C389 C388 1.434 . S
C390 C391 1.369 . S
C390 C392 1.419 . S
C390 H394 0.930 . S
C391 C390 1.369 . S
C391 C400 1.429 . S
C392 C390 1.419 . S
C392 C393 1.363 . S
C392 H395 0.929 . S
C393 C392 1.363 . S
C393 C399 1.428 . S
H394 C390 0.930 . S
H395 C392 0.929 . S
S396 N397 1.613 . S
S396 N398 1.610 . S
N397 S396 1.613 . S
N397 C400 1.350 . S
N398 S396 1.610 . S
N398 C399 1.351 . S
C399 C393 1.428 . S
C399 N398 1.351 . S
C399 C400 1.434 . S
C400 C391 1.429 . S
C400 N397 1.350 . S
C400 C399 1.434 . S
C401 C402 1.369 . S
C401 C403 1.419 . S
C401 H405 0.930 . S
C402 C401 1.369 . S
C402 C411 1.429 . S
C403 C401 1.419 . S
C403 C404 1.363 . S
C403 H406 0.929 . S
C404 C403 1.363 . S
C404 C410 1.428 . S
H405 C401 0.930 . S
H406 C403 0.929 . S
S407 N408 1.613 . S
S407 N409 1.610 . S
N408 S407 1.613 . S
N408 C411 1.350 . S
N409 S407 1.610 . S
N409 C410 1.351 . S
C410 C404 1.428 . S
C410 N409 1.351 . S
C410 C411 1.434 . S
C411 C402 1.429 . S
C411 N408 1.350 . S
C411 C410 1.434 . S
C412 C413 1.369 . S
C412 C414 1.419 . S
C412 H416 0.930 . S
C413 C412 1.369 . S
C413 C422 1.429 . S
C414 C412 1.419 . S
C414 C415 1.363 . S
C414 H417 0.929 . S
C415 C414 1.363 . S
C415 C421 1.428 . S
H416 C412 0.930 . S
H417 C414 0.929 . S
S418 N419 1.613 . S
S418 N420 1.610 . S
N419 S418 1.613 . S
N419 C422 1.350 . S
N420 S418 1.610 . S
N420 C421 1.351 . S
C421 C415 1.428 . S
C421 N420 1.351 . S
C421 C422 1.434 . S
C422 C413 1.429 . S
C422 N419 1.350 . S
C422 C421 1.434 . S
C423 C424 1.369 . S
C423 C425 1.419 . S
C423 H427 0.930 . S
C424 C423 1.369 . S
C424 C433 1.429 . S
C425 C423 1.419 . S
C425 C426 1.363 . S
C425 H428 0.929 . S
C426 C425 1.363 . S
C426 C432 1.428 . S
H427 C423 0.930 . S
H428 C425 0.929 . S
S429 N430 1.613 . S
S429 N431 1.610 . S
N430 S429 1.613 . S
N430 C433 1.350 . S
N431 S429 1.610 . S
N431 C432 1.351 . S
C432 C426 1.428 . S
C432 N431 1.351 . S
C432 C433 1.434 . S
C433 C424 1.429 . S
C433 N430 1.350 . S
C433 C432 1.434 . S
C434 C435 1.369 . S
C434 C436 1.419 . S
C434 H438 0.930 . S
C435 C434 1.369 . S
C435 C444 1.429 . S
C436 C434 1.419 . S
C436 C437 1.363 . S
C436 H439 0.929 . S
C437 C436 1.363 . S
C437 C443 1.428 . S
H438 C434 0.930 . S
H439 C436 0.929 . S
S440 N441 1.613 . S
S440 N442 1.610 . S
N441 S440 1.613 . S
N441 C444 1.350 . S
N442 S440 1.610 . S
N442 C443 1.351 . S
C443 C437 1.428 . S
C443 N442 1.351 . S
C443 C444 1.434 . S
C444 C435 1.429 . S
C444 N441 1.350 . S
C444 C443 1.434 . S
C445 C446 1.369 . S
C445 C447 1.419 . S
C445 H449 0.930 . S
C446 C445 1.369 . S
C446 C455 1.429 . S
C447 C445 1.419 . S
C447 C448 1.363 . S
C447 H450 0.929 . S
C448 C447 1.363 . S
C448 C454 1.428 . S
H449 C445 0.930 . S
H450 C447 0.929 . S
S451 N452 1.613 1_565 S
S451 N453 1.610 1_565 S
N452 S451 1.613 1_545 S
N452 C455 1.350 . S
N453 S451 1.610 1_545 S
N453 C454 1.351 . S
C454 C448 1.428 . S
C454 N453 1.351 . S
C454 C455 1.434 . S
C455 C446 1.429 . S
C455 N452 1.350 . S
C455 C454 1.434 . S
C456 C457 1.369 . S
C456 C458 1.419 . S
C456 H460 0.930 . S
C457 C456 1.369 . S
C457 C466 1.429 . S
C458 C456 1.419 . S
C458 C459 1.363 . S
C458 H461 0.929 1_545 S
C459 C458 1.363 . S
C459 C465 1.428 . S
H460 C456 0.930 . S
H461 C458 0.929 1_565 S
S462 N463 1.613 . S
S462 N464 1.610 . S
N463 S462 1.613 . S
N463 C466 1.350 . S
N464 S462 1.610 . S
N464 C465 1.351 . S
C465 C459 1.428 . S
C465 N464 1.351 . S
C465 C466 1.434 . S
C466 C457 1.429 . S
C466 N463 1.350 . S
C466 C465 1.434 . S
C467 C468 1.369 . S
C467 C469 1.419 . S
C467 H471 0.930 . S
C468 C467 1.369 . S
C468 C477 1.429 . S
C469 C467 1.419 . S
C469 C470 1.363 . S
C469 H472 0.929 . S
C470 C469 1.363 . S
C470 C476 1.428 . S
H471 C467 0.930 . S
H472 C469 0.929 . S
S473 N474 1.613 . S
S473 N475 1.610 . S
N474 S473 1.613 . S
N474 C477 1.350 . S
N475 S473 1.610 . S
N475 C476 1.351 . S
C476 C470 1.428 . S
C476 N475 1.351 . S
C476 C477 1.434 . S
C477 C468 1.429 . S
C477 N474 1.350 . S
C477 C476 1.434 . S
C478 C479 1.369 . S
C478 C480 1.419 . S
C478 H482 0.930 . S
C479 C478 1.369 . S
C479 C488 1.429 . S
C480 C478 1.419 . S
C480 C481 1.363 . S
C480 H483 0.929 . S
C481 C480 1.363 . S
C481 C487 1.428 . S
H482 C478 0.930 . S
H483 C480 0.929 . S
S484 N485 1.613 . S
S484 N486 1.610 . S
N485 S484 1.613 . S
N485 C488 1.350 . S
N486 S484 1.610 . S
N486 C487 1.351 . S
C487 C481 1.428 . S
C487 N486 1.351 . S
C487 C488 1.434 . S
C488 C479 1.429 . S
C488 N485 1.350 . S
C488 C487 1.434 . S
C489 C490 1.369 . S
C489 C491 1.419 . S
C489 H493 0.930 . S
C490 C489 1.369 . S
C490 C499 1.429 . S
C491 C489 1.419 . S
C491 C492 1.363 . S
C491 H494 0.929 . S
C492 C491 1.363 . S
C492 C498 1.428 . S
H493 C489 0.930 . S
H494 C491 0.929 . S
S495 N496 1.613 . S
S495 N497 1.610 . S
N496 S495 1.613 . S
N496 C499 1.350 . S
N497 S495 1.610 . S
N497 C498 1.351 . S
C498 C492 1.428 . S
C498 N497 1.351 . S
C498 C499 1.434 . S
C499 C490 1.429 . S
C499 N496 1.350 . S
C499 C498 1.434 . S
C500 C501 1.369 . S
C500 C502 1.419 . S
C500 H504 0.930 . S
C501 C500 1.369 . S
C501 C510 1.429 . S
C502 C500 1.419 . S
C502 C503 1.363 . S
C502 H505 0.929 . S
C503 C502 1.363 . S
C503 C509 1.428 . S
H504 C500 0.930 . S
H505 C502 0.929 . S
S506 N507 1.613 1_545 S
S506 N508 1.610 . S
N507 S506 1.613 1_565 S
N507 C510 1.350 . S
N508 S506 1.610 . S
N508 C509 1.351 1_545 S
C509 C503 1.428 . S
C509 N508 1.351 1_565 S
C509 C510 1.434 . S
C510 C501 1.429 . S
C510 N507 1.350 . S
C510 C509 1.434 . S
C511 C512 1.369 . S
C511 C513 1.419 . S
C511 H515 0.930 . S
C512 C511 1.369 . S
C512 C521 1.429 . S
C513 C511 1.419 . S
C513 C514 1.363 . S
C513 H516 0.929 . S
C514 C513 1.363 . S
C514 C520 1.428 . S
H515 C511 0.930 . S
H516 C513 0.929 . S
S517 N518 1.613 . S
S517 N519 1.610 . S
N518 S517 1.613 . S
N518 C521 1.350 . S
N519 S517 1.610 . S
N519 C520 1.351 . S
C520 C514 1.428 . S
C520 N519 1.351 . S
C520 C521 1.434 . S
C521 C512 1.429 . S
C521 N518 1.350 . S
C521 C520 1.434 . S
C522 C523 1.369 . S
C522 C524 1.419 . S
C522 H526 0.930 . S
C523 C522 1.369 . S
C523 C532 1.429 . S
C524 C522 1.419 . S
C524 C525 1.363 . S
C524 H527 0.929 . S
C525 C524 1.363 . S
C525 C531 1.428 . S
H526 C522 0.930 . S
H527 C524 0.929 . S
S528 N529 1.613 . S
S528 N530 1.610 . S
N529 S528 1.613 . S
N529 C532 1.350 . S
N530 S528 1.610 . S
N530 C531 1.351 . S
C531 C525 1.428 . S
C531 N530 1.351 . S
C531 C532 1.434 . S
C532 C523 1.429 . S
C532 N529 1.350 . S
C532 C531 1.434 . S
C533 C534 1.369 . S
C533 C535 1.419 . S
C533 H537 0.930 . S
C534 C533 1.369 . S
C534 C543 1.429 . S
C535 C533 1.419 . S
C535 C536 1.363 . S
C535 H538 0.929 . S
C536 C535 1.363 . S
C536 C542 1.428 . S
H537 C533 0.930 . S
H538 C535 0.929 . S
S539 N540 1.613 . S
S539 N541 1.610 1_455 S
N540 S539 1.613 . S
N540 C543 1.350 1_455 S
N541 S539 1.610 1_655 S
N541 C542 1.351 . S
C542 C536 1.428 . S
C542 N541 1.351 . S
C542 C543 1.434 . S
C543 C534 1.429 . S
C543 N540 1.350 1_655 S
C543 C542 1.434 . S
C544 C545 1.369 . S
C544 C546 1.419 . S
C544 H548 0.930 . S
C545 C544 1.369 . S
C545 C554 1.429 . S
C546 C544 1.419 . S
C546 C547 1.363 . S
C546 H549 0.929 . S
C547 C546 1.363 . S
C547 C553 1.428 . S
H548 C544 0.930 . S
H549 C546 0.929 . S
S550 N551 1.613 . S
S550 N552 1.610 1_545 S
N551 S550 1.613 . S
N551 C554 1.350 1_545 S
N552 S550 1.610 1_565 S
N552 C553 1.351 . S
C553 C547 1.428 . S
C553 N552 1.351 . S
C553 C554 1.434 . S
C554 C545 1.429 . S
C554 N551 1.350 1_565 S
C554 C553 1.434 . S
C555 C556 1.369 . S
C555 C557 1.419 . S
C555 H559 0.930 . S
C556 C555 1.369 . S
C556 C565 1.429 . S
C557 C555 1.419 . S
C557 C558 1.363 . S
C557 H560 0.929 . S
C558 C557 1.363 . S
C558 C564 1.428 . S
H559 C555 0.930 . S
H560 C557 0.929 . S
S561 N562 1.613 . S
S561 N563 1.610 . S
N562 S561 1.613 . S
N562 C565 1.350 . S
N563 S561 1.610 . S
N563 C564 1.351 . S
C564 C558 1.428 . S
C564 N563 1.351 . S
C564 C565 1.434 . S
C565 C556 1.429 . S
C565 N562 1.350 . S
C565 C564 1.434 . S
C566 C567 1.369 . S
C566 C568 1.419 . S
C566 H570 0.930 . S
C567 C566 1.369 . S
C567 C576 1.429 . S
C568 C566 1.419 . S
C568 C569 1.363 . S
C568 H571 0.929 . S
C569 C568 1.363 . S
C569 C575 1.428 . S
H570 C566 0.930 . S
H571 C568 0.929 . S
S572 N573 1.613 . S
S572 N574 1.610 . S
N573 S572 1.613 . S
N573 C576 1.350 . S
N574 S572 1.610 . S
N574 C575 1.351 . S
C575 C569 1.428 . S
C575 N574 1.351 . S
C575 C576 1.434 . S
C576 C567 1.429 . S
C576 N573 1.350 . S
C576 C575 1.434 . S
C577 C578 1.369 . S
C577 C579 1.419 . S
C577 H581 0.930 . S
C578 C577 1.369 . S
C578 C587 1.429 . S
C579 C577 1.419 . S
C579 C580 1.363 . S
C579 H582 0.929 . S
C580 C579 1.363 . S
C580 C586 1.428 . S
H581 C577 0.930 . S
H582 C579 0.929 . S
S583 N584 1.613 . S
S583 N585 1.610 1_655 S
N584 S583 1.613 . S
N584 C587 1.350 . S
N585 S583 1.610 1_455 S
N585 C586 1.351 1_455 S
C586 C580 1.428 . S
C586 N585 1.351 1_655 S
C586 C587 1.434 . S
C587 C578 1.429 . S
C587 N584 1.350 . S
C587 C586 1.434 . S
C588 C589 1.369 . S
C588 C590 1.419 . S
C588 H592 0.930 . S
C589 C588 1.369 . S
C589 C598 1.429 . S
C590 C588 1.419 . S
C590 C591 1.363 . S
C590 H593 0.929 1_545 S
C591 C590 1.363 . S
C591 C597 1.428 . S
H592 C588 0.930 . S
H593 C590 0.929 1_565 S
S594 N595 1.613 . S
S594 N596 1.610 . S
N595 S594 1.613 . S
N595 C598 1.350 . S
N596 S594 1.610 . S
N596 C597 1.351 . S
C597 C591 1.428 . S
C597 N596 1.351 . S
C597 C598 1.434 . S
C598 C589 1.429 . S
C598 N595 1.350 . S
C598 C597 1.434 . S
C599 C600 1.369 . S
C599 C601 1.419 . S
C599 H603 0.930 . S
C600 C599 1.369 . S
C600 C609 1.429 . S
C601 C599 1.419 . S
C601 C602 1.363 . S
C601 H604 0.929 . S
C602 C601 1.363 . S
C602 C608 1.428 . S
H603 C599 0.930 . S
H604 C601 0.929 . S
S605 N606 1.613 . S
S605 N607 1.610 . S
N606 S605 1.613 . S
N606 C609 1.350 . S
N607 S605 1.610 . S
N607 C608 1.351 . S
C608 C602 1.428 . S
C608 N607 1.351 . S
C608 C609 1.434 . S
C609 C600 1.429 . S
C609 N606 1.350 . S
C609 C608 1.434 . S
C610 C611 1.369 . S
C610 C612 1.419 . S
C610 H614 0.930 . S
C611 C610 1.369 . S
C611 C620 1.429 . S
C612 C610 1.419 . S
C612 C613 1.363 . S
C612 H615 0.929 . S
C613 C612 1.363 . S
C613 C619 1.428 . S
H614 C610 0.930 . S
H615 C612 0.929 . S
S616 N617 1.613 . S
S616 N618 1.610 . S
N617 S616 1.613 . S
N617 C620 1.350 . S
N618 S616 1.610 . S
N618 C619 1.351 . S
C619 C613 1.428 . S
C619 N618 1.351 . S
C619 C620 1.434 . S
C620 C611 1.429 . S
C620 N617 1.350 . S
C620 C619 1.434 . S
C621 C622 1.369 . S
C621 C623 1.419 . S
C621 H625 0.930 . S
C622 C621 1.369 . S
C622 C631 1.429 . S
C623 C621 1.419 . S
C623 C624 1.363 . S
C623 H626 0.929 . S
C624 C623 1.363 . S
C624 C630 1.428 . S
H625 C621 0.930 . S
H626 C623 0.929 . S
S627 N628 1.613 . S
S627 N629 1.610 . S
N628 S627 1.613 . S
N628 C631 1.350 . S
N629 S627 1.610 . S
N629 C630 1.351 . S
C630 C624 1.428 . S
C630 N629 1.351 . S
C630 C631 1.434 . S
C631 C622 1.429 . S
C631 N628 1.350 . S
C631 C630 1.434 . S
C632 C633 1.369 . S
C632 C634 1.419 . S
C632 H636 0.930 . S
C633 C632 1.369 . S
C633 C642 1.429 . S
C634 C632 1.419 . S
C634 C635 1.363 . S
C634 H637 0.929 . S
C635 C634 1.363 . S
C635 C641 1.428 . S
H636 C632 0.930 . S
H637 C634 0.929 . S
S638 N639 1.613 . S
S638 N640 1.610 . S
N639 S638 1.613 . S
N639 C642 1.350 . S
N640 S638 1.610 . S
N640 C641 1.351 . S
C641 C635 1.428 . S
C641 N640 1.351 . S
C641 C642 1.434 . S
C642 C633 1.429 . S
C642 N639 1.350 . S
C642 C641 1.434 . S
C643 C644 1.369 . S
C643 C645 1.419 . S
C643 H647 0.930 . S
C644 C643 1.369 . S
C644 C653 1.429 . S
C645 C643 1.419 . S
C645 C646 1.363 . S
C645 H648 0.929 . S
C646 C645 1.363 . S
C646 C652 1.428 . S
H647 C643 0.930 . S
H648 C645 0.929 . S
S649 N650 1.613 . S
S649 N651 1.610 . S
N650 S649 1.613 . S
N650 C653 1.350 . S
N651 S649 1.610 . S
N651 C652 1.351 . S
C652 C646 1.428 . S
C652 N651 1.351 . S
C652 C653 1.434 . S
C653 C644 1.429 . S
C653 N650 1.350 . S
C653 C652 1.434 . S
C654 C655 1.369 . S
C654 C656 1.419 . S
C654 H658 0.930 . S
C655 C654 1.369 . S
C655 C664 1.429 . S
C656 C654 1.419 . S
C656 C657 1.363 . S
C656 H659 0.929 . S
C657 C656 1.363 . S
C657 C663 1.428 . S
H658 C654 0.930 . S
H659 C656 0.929 . S
S660 N661 1.613 . S
S660 N662 1.610 . S
N661 S660 1.613 . S
N661 C664 1.350 . S
N662 S660 1.610 . S
N662 C663 1.351 . S
C663 C657 1.428 . S
C663 N662 1.351 . S
C663 C664 1.434 . S
C664 C655 1.429 . S
C664 N661 1.350 . S
C664 C663 1.434 . S
C665 C666 1.369 . S
C665 C667 1.419 . S
C665 H669 0.930 . S
C666 C665 1.369 . S
C666 C675 1.429 . S
C667 C665 1.419 . S
C667 C668 1.363 . S
C667 H670 0.929 . S
C668 C667 1.363 . S
C668 C674 1.428 . S
H669 C665 0.930 . S
H670 C667 0.929 . S
S671 N672 1.613 . S
S671 N673 1.610 . S
N672 S671 1.613 . S
N672 C675 1.350 . S
N673 S671 1.610 . S
N673 C674 1.351 . S
C674 C668 1.428 . S
C674 N673 1.351 . S
C674 C675 1.434 . S
C675 C666 1.429 . S
C675 N672 1.350 . S
C675 C674 1.434 . S
C676 C677 1.369 . S
C676 C678 1.419 . S
C676 H680 0.930 . S
C677 C676 1.369 . S
C677 C686 1.429 . S
C678 C676 1.419 . S
C678 C679 1.363 . S
C678 H681 0.929 . S
C679 C678 1.363 . S
C679 C685 1.428 . S
H680 C676 0.930 . S
H681 C678 0.929 . S
S682 N683 1.613 . S
S682 N684 1.610 . S
N683 S682 1.613 . S
N683 C686 1.350 . S
N684 S682 1.610 . S
N684 C685 1.351 . S
C685 C679 1.428 . S
C685 N684 1.351 . S
C685 C686 1.434 . S
C686 C677 1.429 . S
C686 N683 1.350 . S
C686 C685 1.434 . S
C687 C688 1.369 . S
C687 C689 1.419 . S
C687 H691 0.930 . S
C688 C687 1.369 . S
C688 C697 1.429 . S
C689 C687 1.419 . S
C689 C690 1.363 . S
C689 H692 0.929 . S
C690 C689 1.363 . S
C690 C696 1.428 . S
H691 C687 0.930 . S
H692 C689 0.929 . S
S693 N694 1.613 . S
S693 N695 1.610 . S
N694 S693 1.613 . S
N694 C697 1.350 . S
N695 S693 1.610 . S
N695 C696 1.351 . S
C696 C690 1.428 . S
C696 N695 1.351 . S
C696 C697 1.434 . S
C697 C688 1.429 . S
C697 N694 1.350 . S
C697 C696 1.434 . S
C698 C699 1.369 . S
C698 C700 1.419 . S
C698 H702 0.930 . S
C699 C698 1.369 . S
C699 C708 1.429 . S
C700 C698 1.419 . S
C700 C701 1.363 . S
C700 H703 0.929 . S
C701 C700 1.363 . S
C701 C707 1.428 . S
H702 C698 0.930 . S
H703 C700 0.929 . S
S704 N705 1.613 . S
S704 N706 1.610 . S
N705 S704 1.613 . S
N705 C708 1.350 . S
N706 S704 1.610 . S
N706 C707 1.351 . S
C707 C701 1.428 . S
C707 N706 1.351 . S
C707 C708 1.434 . S
C708 C699 1.429 . S
C708 N705 1.350 . S
C708 C707 1.434 . S
C709 C710 1.369 . S
C709 C711 1.419 . S
C709 H713 0.930 . S
C710 C709 1.369 . S
C710 C719 1.429 . S
C711 C709 1.419 . S
C711 C712 1.363 . S
C711 H714 0.929 . S
C712 C711 1.363 . S
C712 C718 1.428 . S
H713 C709 0.930 . S
H714 C711 0.929 . S
S715 N716 1.613 . S
S715 N717 1.610 . S
N716 S715 1.613 . S
N716 C719 1.350 . S
N717 S715 1.610 . S
N717 C718 1.351 . S
C718 C712 1.428 . S
C718 N717 1.351 . S
C718 C719 1.434 . S
C719 C710 1.429 . S
C719 N716 1.350 . S
C719 C718 1.434 . S
C720 C721 1.369 . S
C720 C722 1.419 . S
C720 H724 0.930 . S
C721 C720 1.369 . S
C721 C730 1.429 . S
C722 C720 1.419 . S
C722 C723 1.363 . S
C722 H725 0.929 . S
C723 C722 1.363 . S
C723 C729 1.428 . S
H724 C720 0.930 . S
H725 C722 0.929 . S
S726 N727 1.613 . S
S726 N728 1.610 . S
N727 S726 1.613 . S
N727 C730 1.350 . S
N728 S726 1.610 . S
N728 C729 1.351 . S
C729 C723 1.428 . S
C729 N728 1.351 . S
C729 C730 1.434 . S
C730 C721 1.429 . S
C730 N727 1.350 . S
C730 C729 1.434 . S
C731 C732 1.369 . S
C731 C733 1.419 . S
C731 H735 0.930 . S
C732 C731 1.369 . S
C732 C741 1.429 . S
C733 C731 1.419 . S
C733 C734 1.363 . S
C733 H736 0.929 . S
C734 C733 1.363 . S
C734 C740 1.428 . S
H735 C731 0.930 . S
H736 C733 0.929 . S
S737 N738 1.613 . S
S737 N739 1.610 . S
N738 S737 1.613 . S
N738 C741 1.350 . S
N739 S737 1.610 . S
N739 C740 1.351 . S
C740 C734 1.428 . S
C740 N739 1.351 . S
C740 C741 1.434 . S
C741 C732 1.429 . S
C741 N738 1.350 . S
C741 C740 1.434 . S
C742 C743 1.369 . S
C742 C744 1.419 . S
C742 H746 0.930 . S
C743 C742 1.369 . S
C743 C752 1.429 . S
C744 C742 1.419 . S
C744 C745 1.363 . S
C744 H747 0.929 . S
C745 C744 1.363 . S
C745 C751 1.428 . S
H746 C742 0.930 . S
H747 C744 0.929 . S
S748 N749 1.613 . S
S748 N750 1.610 . S
N749 S748 1.613 . S
N749 C752 1.350 . S
N750 S748 1.610 . S
N750 C751 1.351 . S
C751 C745 1.428 . S
C751 N750 1.351 . S
C751 C752 1.434 . S
C752 C743 1.429 . S
C752 N749 1.350 . S
C752 C751 1.434 . S
C753 C754 1.369 . S
C753 C755 1.419 . S
C753 H757 0.930 . S
C754 C753 1.369 . S
C754 C763 1.429 . S
C755 C753 1.419 . S
C755 C756 1.363 . S
C755 H758 0.929 . S
C756 C755 1.363 . S
C756 C762 1.428 . S
H757 C753 0.930 . S
H758 C755 0.929 . S
S759 N760 1.613 . S
S759 N761 1.610 . S
N760 S759 1.613 . S
N760 C763 1.350 . S
N761 S759 1.610 . S
N761 C762 1.351 . S
C762 C756 1.428 . S
C762 N761 1.351 . S
C762 C763 1.434 . S
C763 C754 1.429 . S
C763 N760 1.350 . S
C763 C762 1.434 . S
C764 C765 1.369 1_554 S
C764 C766 1.419 . S
C764 H768 0.930 . S
C765 C764 1.369 1_556 S
C765 C774 1.429 . S
C766 C764 1.419 . S
C766 C767 1.363 . S
C766 H769 0.929 . S
C767 C766 1.363 . S
C767 C773 1.428 . S
H768 C764 0.930 . S
H769 C766 0.929 . S
S770 N771 1.613 . S
S770 N772 1.610 . S
N771 S770 1.613 . S
N771 C774 1.350 . S
N772 S770 1.610 . S
N772 C773 1.351 1_556 S
C773 C767 1.428 . S
C773 N772 1.351 1_554 S
C773 C774 1.434 1_554 S
C774 C765 1.429 . S
C774 N771 1.350 . S
C774 C773 1.434 1_556 S
C775 C776 1.369 . S
C775 C777 1.419 . S
C775 H779 0.930 . S
C776 C775 1.369 . S
C776 C785 1.429 . S
C777 C775 1.419 . S
C777 C778 1.363 1_554 S
C777 H780 0.929 . S
C778 C777 1.363 1_556 S
C778 C784 1.428 . S
H779 C775 0.930 . S
H780 C777 0.929 . S
S781 N782 1.613 . S
S781 N783 1.610 . S
N782 S781 1.613 . S
N782 C785 1.350 1_556 S
N783 S781 1.610 . S
N783 C784 1.351 . S
C784 C778 1.428 . S
C784 N783 1.351 . S
C784 C785 1.434 1_556 S
C785 C776 1.429 . S
C785 N782 1.350 1_554 S
C785 C784 1.434 1_554 S
C786 C787 1.369 1_554 S
C786 C788 1.419 . S
C786 H790 0.930 . S
C787 C786 1.369 1_556 S
C787 C796 1.429 . S
C788 C786 1.419 . S
C788 C789 1.363 . S
C788 H791 0.929 . S
C789 C788 1.363 . S
C789 C795 1.428 . S
H790 C786 0.930 . S
H791 C788 0.929 . S
S792 N793 1.615 . S
S792 N794 1.607 1_556 S
N793 S792 1.615 . S
N793 C796 1.350 . S
N794 S792 1.607 1_554 S
N794 C795 1.351 . S
C795 C789 1.428 . S
C795 N794 1.351 . S
C795 C796 1.434 1_554 S
C796 C787 1.429 . S
C796 N793 1.350 . S
C796 C795 1.434 1_556 S
C797 C798 1.369 . S
C797 C799 1.419 . S
C797 H801 0.930 . S
C798 C797 1.369 . S
C798 C807 1.429 . S
C799 C797 1.419 . S
C799 C800 1.363 1_554 S
C799 H802 0.929 . S
C800 C799 1.363 1_556 S
C800 C806 1.428 . S
H801 C797 0.930 . S
H802 C799 0.929 . S
S803 N804 1.613 1_556 S
S803 N805 1.610 . S
N804 S803 1.613 1_554 S
N804 C807 1.350 . S
N805 S803 1.610 . S
N805 C806 1.351 . S
C806 C800 1.428 . S
C806 N805 1.351 . S
C806 C807 1.434 1_556 S
C807 C798 1.429 . S
C807 N804 1.350 . S
C807 C806 1.434 1_554 S
C808 C809 1.369 . S
C808 C810 1.419 . S
C808 H812 0.930 . S
C809 C808 1.369 . S
C809 C818 1.429 . S
C810 C808 1.419 . S
C810 C811 1.363 . S
C810 H813 0.929 . S
C811 C810 1.363 . S
C811 C817 1.428 . S
H812 C808 0.930 . S
H813 C810 0.929 . S
S814 N815 1.613 1_545 S
S814 N816 1.610 . S
N815 S814 1.613 1_565 S
N815 C818 1.350 . S
N816 S814 1.610 . S
N816 C817 1.351 1_545 S
C817 C811 1.428 . S
C817 N816 1.351 1_565 S
C817 C818 1.434 . S
C818 C809 1.429 . S
C818 N815 1.350 . S
C818 C817 1.434 . S
C819 C820 1.369 . S
C819 C821 1.419 . S
C819 H823 0.930 . S
C820 C819 1.369 . S
C820 C829 1.429 . S
C821 C819 1.419 . S
C821 C822 1.363 . S
C821 H824 0.929 . S
C822 C821 1.363 . S
C822 C828 1.428 . S
H823 C819 0.930 . S
H824 C821 0.929 . S
S825 N826 1.613 . S
S825 N827 1.610 . S
N826 S825 1.613 . S
N826 C829 1.350 . S
N827 S825 1.610 . S
N827 C828 1.351 . S
C828 C822 1.428 . S
C828 N827 1.351 . S
C828 C829 1.434 . S
C829 C820 1.429 . S
C829 N826 1.350 . S
C829 C828 1.434 . S
C830 C831 1.369 . S
C830 C832 1.419 . S
C830 H834 0.930 . S
C831 C830 1.369 . S
C831 C840 1.429 . S
C832 C830 1.419 . S
C832 C833 1.363 . S
C832 H835 0.929 . S
C833 C832 1.363 . S
C833 C839 1.428 . S
H834 C830 0.930 . S
H835 C832 0.929 . S
S836 N837 1.613 . S
S836 N838 1.610 . S
N837 S836 1.613 . S
N837 C840 1.350 . S
N838 S836 1.610 . S
N838 C839 1.351 . S
C839 C833 1.428 . S
C839 N838 1.351 . S
C839 C840 1.434 . S
C840 C831 1.429 . S
C840 N837 1.350 . S
C840 C839 1.434 . S
C841 C842 1.369 . S
C841 C843 1.419 . S
C841 H845 0.930 . S
C842 C841 1.369 . S
C842 C851 1.429 . S
C843 C841 1.419 . S
C843 C844 1.363 . S
C843 H846 0.929 . S
C844 C843 1.363 . S
C844 C850 1.428 . S
H845 C841 0.930 . S
H846 C843 0.929 . S
S847 N848 1.613 . S
S847 N849 1.610 . S
N848 S847 1.613 . S
N848 C851 1.350 . S
N849 S847 1.610 . S
N849 C850 1.351 . S
C850 C844 1.428 . S
C850 N849 1.351 . S
C850 C851 1.434 . S
C851 C842 1.429 . S
C851 N848 1.350 . S
C851 C850 1.434 . S
C852 C853 1.369 . S
C852 C854 1.419 . S
C852 H856 0.930 . S
C853 C852 1.369 . S
C853 C862 1.429 . S
C854 C852 1.419 . S
C854 C855 1.363 1_556 S
C854 H857 0.929 . S
C855 C854 1.363 1_554 S
C855 C861 1.428 . S
H856 C852 0.930 . S
H857 C854 0.929 . S
S858 N859 1.613 . S
S858 N860 1.610 . S
N859 S858 1.613 . S
N859 C862 1.350 1_554 S
N860 S858 1.610 . S
N860 C861 1.351 . S
C861 C855 1.428 . S
C861 N860 1.351 . S
C861 C862 1.434 1_554 S
C862 C853 1.429 . S
C862 N859 1.350 1_556 S
C862 C861 1.434 1_556 S
C863 C864 1.369 . S
C863 C865 1.419 1_556 S
C863 H867 0.930 . S
C864 C863 1.369 . S
C864 C873 1.429 . S
C865 C863 1.419 1_554 S
C865 C866 1.363 . S
C865 H868 0.929 . S
C866 C865 1.363 . S
C866 C872 1.428 1_554 S
H867 C863 0.930 . S
H868 C865 0.929 . S
S869 N870 1.613 . S
S869 N871 1.610 . S
N870 S869 1.613 . S
N870 C873 1.350 . S
N871 S869 1.610 . S
N871 C872 1.351 . S
C872 C866 1.428 1_556 S
C872 N871 1.351 . S
C872 C873 1.434 . S
C873 C864 1.429 . S
C873 N870 1.350 . S
C873 C872 1.434 . S
C874 C875 1.369 1_556 S
C874 C876 1.419 . S
C874 H878 0.930 . S
C875 C874 1.369 1_554 S
C875 C884 1.429 . S
C876 C874 1.419 . S
C876 C877 1.363 . S
C876 H879 0.929 . S
C877 C876 1.363 . S
C877 C883 1.428 . S
H878 C874 0.930 . S
H879 C876 0.929 . S
S880 N881 1.613 . S
S880 N882 1.610 . S
N881 S880 1.613 . S
N881 C884 1.350 . S
N882 S880 1.610 . S
N882 C883 1.351 1_554 S
C883 C877 1.428 . S
C883 N882 1.351 1_556 S
C883 C884 1.434 1_556 S
C884 C875 1.429 . S
C884 N881 1.350 . S
C884 C883 1.434 1_554 S
C885 C886 1.369 . S
C885 C887 1.419 1_554 S
C885 H889 0.930 . S
C886 C885 1.369 . S
C886 C895 1.429 1_554 S
C887 C885 1.419 1_556 S
C887 C888 1.363 . S
C887 H890 0.929 . S
C888 C887 1.363 . S
C888 C894 1.428 . S
H889 C885 0.930 . S
H890 C887 0.929 . S
S891 N892 1.613 . S
S891 N893 1.610 . S
N892 S891 1.613 . S
N892 C895 1.350 . S
N893 S891 1.610 . S
N893 C894 1.351 . S
C894 C888 1.428 . S
C894 N893 1.351 . S
C894 C895 1.434 . S
C895 C886 1.429 1_556 S
C895 N892 1.350 . S
C895 C894 1.434 . S
C369 C17 1.688 . S
C371 C131 1.677 . S
C380 C155 1.653 . S
C382 C40 1.653 . S
C391 C63 1.657 . S
C393 C178 1.656 . S
C402 C85 1.699 . S
C404 C108 1.699 . S
C413 C316 1.677 . S
C415 C201 1.677 . S
C424 C339 1.680 . S
C426 C224 1.680 . S
C435 C247 1.679 . S
C437 C362 1.679 . S
C446 C270 1.675 . S
C448 C293 1.674 . S
C457 C20 1.599 . S
C459 C88 1.591 . S
C468 C43 1.577 . S
C470 C21 1.580 . S
C479 C66 1.587 . S
C481 C44 1.590 . S
C490 C87 1.613 . S
C492 C67 1.610 1_455 S
C501 C110 1.631 . S
C503 C134 1.618 . S
C512 C159 1.619 . S
C514 C133 1.620 . S
C523 C158 1.578 . S
C525 C182 1.578 . S
C534 C111 1.588 . S
C536 C181 1.597 . S
C545 C274 1.580 1_565 S
C547 C204 1.580 . S
C556 C227 1.584 . S
C558 C205 1.582 . S
C567 C250 1.582 . S
C569 C228 1.581 . S
C578 C273 1.581 . S
C580 C251 1.582 1_655 S
C589 C296 1.573 . S
C591 C320 1.578 1_545 S
C600 C319 1.576 . S
C602 C343 1.575 . S
C611 C342 1.573 . S
C613 C366 1.578 . S
C622 C365 1.576 . S
C624 C297 1.581 1_455 S
C633 C19 0.845 . S
C635 C65 0.853 . S
C644 C42 0.829 . S
C646 C90 0.843 . S
C655 C157 0.847 . S
C657 C113 0.867 . S
C666 C180 0.858 . S
C668 C136 0.864 . S
C677 C249 0.837 . S
C679 C203 0.845 . S
C688 C272 0.836 . S
C690 C226 0.828 . S
C699 C295 0.845 . S
C701 C341 0.838 . S
C710 C318 0.852 . S
C712 C364 0.845 . S
C721 C18 1.376 . S
C723 C269 1.325 . S
C732 C200 1.316 . S
C734 C41 1.360 . S
C743 C64 1.373 . S
C745 C223 1.328 . S
C754 C246 1.308 . S
C756 C89 1.301 . S
C765 C315 1.313 . S
C767 C112 1.315 . S
C776 C135 1.310 . S
C778 C338 1.308 . S
C787 C361 1.328 . S
C789 C156 1.372 . S
C798 C179 1.368 . S
C800 C292 1.319 . S
C809 C202 1.346 . S
C811 C86 1.320 . S
C820 C225 1.365 . S
C822 C16 1.315 . S
C831 C39 1.322 . S
C833 C248 1.373 . S
C842 C271 1.367 . S
C844 C62 1.321 . S
C853 C294 1.345 . S
C855 C132 1.314 . S
C864 C317 1.375 . S
C866 C154 1.329 . S
C875 C177 1.319 . S
C877 C340 1.370 . S
C886 C109 1.316 . S
C888 C363 1.341 . S
