# Generated by pormake.
# Topology uki, (4)-cn, num edge types: 1
# Building blocks:
#     Node 0, Type 0, BuildingBlock: CEKHIL_clean_sbu_0, # of connection points: 4
#     Node 1, Type 0, BuildingBlock: CEKHIL_clean_sbu_0, # of connection points: 4
#     Node 2, Type 0, BuildingBlock: CEKHIL_clean_sbu_0, # of connection points: 4
#     Node 3, Type 0, BuildingBlock: CEKHIL_clean_sbu_0, # of connection points: 4
#     Node 4, Type 0, BuildingBlock: CEKHIL_clean_sbu_0, # of connection points: 4
#     Node 5, Type 0, BuildingBlock: CEKHIL_clean_sbu_0, # of connection points: 4
#     Node 6, Type 0, BuildingBlock: CEKHIL_clean_sbu_0, # of connection points: 4
#     Node 7, Type 0, BuildingBlock: CEKHIL_clean_sbu_0, # of connection points: 4
#     Node 8, Type 0, BuildingBlock: CEKHIL_clean_sbu_0, # of connection points: 4
#     Node 9, Type 0, BuildingBlock: CEKHIL_clean_sbu_0, # of connection points: 4
#     Node 10, Type 0, BuildingBlock: CEKHIL_clean_sbu_0, # of connection points: 4
#     Node 11, Type 0, BuildingBlock: CEKHIL_clean_sbu_0, # of connection points: 4
#     Node 12, Type 0, BuildingBlock: CEKHIL_clean_sbu_0, # of connection points: 4
#     Node 13, Type 0, BuildingBlock: CEKHIL_clean_sbu_0, # of connection points: 4
#     Node 14, Type 0, BuildingBlock: CEKHIL_clean_sbu_0, # of connection points: 4
#     Node 15, Type 0, BuildingBlock: CEKHIL_clean_sbu_0, # of connection points: 4
#     Edge 16, Type (0, 0), BuildingBlock: XIVTED_clean_linker_0, # of connection points: 2
#     Edge 17, Type (0, 0), BuildingBlock: XIVTED_clean_linker_0, # of connection points: 2
#     Edge 18, Type (0, 0), BuildingBlock: XIVTED_clean_linker_0, # of connection points: 2
#     Edge 19, Type (0, 0), BuildingBlock: XIVTED_clean_linker_0, # of connection points: 2
#     Edge 20, Type (0, 0), BuildingBlock: XIVTED_clean_linker_0, # of connection points: 2
#     Edge 21, Type (0, 0), BuildingBlock: XIVTED_clean_linker_0, # of connection points: 2
#     Edge 22, Type (0, 0), BuildingBlock: XIVTED_clean_linker_0, # of connection points: 2
#     Edge 23, Type (0, 0), BuildingBlock: XIVTED_clean_linker_0, # of connection points: 2
#     Edge 24, Type (0, 0), BuildingBlock: XIVTED_clean_linker_0, # of connection points: 2
#     Edge 25, Type (0, 0), BuildingBlock: XIVTED_clean_linker_0, # of connection points: 2
#     Edge 26, Type (0, 0), BuildingBlock: XIVTED_clean_linker_0, # of connection points: 2
#     Edge 27, Type (0, 0), BuildingBlock: XIVTED_clean_linker_0, # of connection points: 2
#     Edge 28, Type (0, 0), BuildingBlock: XIVTED_clean_linker_0, # of connection points: 2
#     Edge 29, Type (0, 0), BuildingBlock: XIVTED_clean_linker_0, # of connection points: 2
#     Edge 30, Type (0, 0), BuildingBlock: XIVTED_clean_linker_0, # of connection points: 2
#     Edge 31, Type (0, 0), BuildingBlock: XIVTED_clean_linker_0, # of connection points: 2
#     Edge 32, Type (0, 0), BuildingBlock: XIVTED_clean_linker_0, # of connection points: 2
#     Edge 33, Type (0, 0), BuildingBlock: XIVTED_clean_linker_0, # of connection points: 2
#     Edge 34, Type (0, 0), BuildingBlock: XIVTED_clean_linker_0, # of connection points: 2
#     Edge 35, Type (0, 0), BuildingBlock: XIVTED_clean_linker_0, # of connection points: 2
#     Edge 36, Type (0, 0), BuildingBlock: XIVTED_clean_linker_0, # of connection points: 2
#     Edge 37, Type (0, 0), BuildingBlock: XIVTED_clean_linker_0, # of connection points: 2
#     Edge 38, Type (0, 0), BuildingBlock: XIVTED_clean_linker_0, # of connection points: 2
#     Edge 39, Type (0, 0), BuildingBlock: XIVTED_clean_linker_0, # of connection points: 2
#     Edge 40, Type (0, 0), BuildingBlock: XIVTED_clean_linker_0, # of connection points: 2
#     Edge 41, Type (0, 0), BuildingBlock: XIVTED_clean_linker_0, # of connection points: 2
#     Edge 42, Type (0, 0), BuildingBlock: XIVTED_clean_linker_0, # of connection points: 2
#     Edge 43, Type (0, 0), BuildingBlock: XIVTED_clean_linker_0, # of connection points: 2
#     Edge 44, Type (0, 0), BuildingBlock: XIVTED_clean_linker_0, # of connection points: 2
#     Edge 45, Type (0, 0), BuildingBlock: XIVTED_clean_linker_0, # of connection points: 2
#     Edge 46, Type (0, 0), BuildingBlock: XIVTED_clean_linker_0, # of connection points: 2
#     Edge 47, Type (0, 0), BuildingBlock: XIVTED_clean_linker_0, # of connection points: 2
# Relax obj value: 0.100
# Max RMSD: 0.196
# Mean RMSD: 0.196
data_MOF--net-uki--node1-CEKHIL_clean_sbu_0--edge1-XIVTED_clean_linker_0
_symmetry_space_group_name_H-M    P1
_symmetry_Int_Tables_number       1
_symmetry_cell_setting            triclinic
loop_
_symmetry_equiv_pos_as_xyz
'x, y, z'
_cell_length_a     30.35527
_cell_length_b     30.364601
_cell_length_c     72.536099
_cell_angle_alpha  89.999584
_cell_angle_beta   89.993991
_cell_angle_gamma 89.947849
loop_
_atom_site_label
_atom_site_type_symbol
_atom_site_fract_x
_atom_site_fract_y
_atom_site_fract_z
_atom_type_partial_charge
Co0 Co 0.13219 0.21081 0.29089 0.0
O1 O 0.18377 0.18358 0.30124 0.0
O2 O 0.1218 0.19575 0.31648 0.0
C3 C 0.16632 0.26834 0.27744 0.0
O4 O 0.0732 0.23974 0.28474 0.0
Co5 Co 0.1228 0.2176 0.24832 0.0
O6 O 0.07851 0.26263 0.2553 0.0
C7 C 0.09607 0.13561 0.26718 0.0
C8 C 0.16238 0.18181 0.3167 0.0
C9 C 0.05903 0.26218 0.27087 0.0
O10 O 0.10795 0.15218 0.28273 0.0
O11 O 0.10119 0.15557 0.25177 0.0
O12 O 0.15737 0.26867 0.29492 0.0
O13 O 0.15996 0.23107 0.26918 0.0
Co14 Co 0.20627 0.86675 0.71142 0.0
O15 O 0.18661 0.81189 0.70105 0.0
O16 O 0.19095 0.87459 0.68565 0.0
C17 C 0.26742 0.84057 0.72539 0.0
O18 O 0.2262 0.92908 0.71766 0.0
Co19 Co 0.20966 0.87505 0.75433 0.0
O20 O 0.23822 0.93188 0.74837 0.0
C21 C 0.12678 0.89523 0.73449 0.0
C22 C 0.1825 0.83254 0.68551 0.0
C23 C 0.23865 0.94925 0.73237 0.0
O24 O 0.14459 0.88395 0.71907 0.0
O25 O 0.14641 0.8915 0.75005 0.0
O26 O 0.26739 0.84956 0.70791 0.0
O27 O 0.22924 0.84176 0.73328 0.0
Co28 Co 0.86651 0.79358 0.29106 0.0
O29 O 0.81356 0.81784 0.3015 0.0
O30 O 0.87559 0.80779 0.31691 0.0
C31 C 0.83505 0.73534 0.277 0.0
O32 O 0.92682 0.7676 0.28469 0.0
Co33 Co 0.87572 0.78933 0.24832 0.0
O34 O 0.92258 0.74659 0.25494 0.0
C35 C 0.8971 0.87205 0.26779 0.0
C36 C 0.83436 0.81976 0.31708 0.0
C37 C 0.94193 0.74679 0.27054 0.0
O38 O 0.888 0.85376 0.28335 0.0
O39 O 0.89172 0.85277 0.25224 0.0
O40 O 0.84403 0.73425 0.29447 0.0
O41 O 0.83977 0.77332 0.26918 0.0
Co42 Co 0.79614 0.13687 0.71096 0.0
O43 O 0.8136 0.19158 0.69986 0.0
O44 O 0.80978 0.12818 0.68499 0.0
C45 C 0.73538 0.16235 0.72553 0.0
O46 O 0.77846 0.07443 0.71825 0.0
Co47 Co 0.79713 0.13256 0.75405 0.0
O48 O 0.77233 0.07339 0.74931 0.0
C49 C 0.87848 0.11255 0.73316 0.0
C50 C 0.81738 0.17039 0.68444 0.0
C51 C 0.77001 0.05476 0.73358 0.0
O52 O 0.85886 0.12177 0.71789 0.0
O53 O 0.86038 0.11754 0.74898 0.0
O54 O 0.73422 0.15221 0.70817 0.0
O55 O 0.77423 0.1628 0.7328 0.0
Co56 Co 0.13414 0.29039 0.96066 0.0
O57 O 0.18712 0.31507 0.95049 0.0
O58 O 0.12598 0.30367 0.93465 0.0
C59 C 0.16596 0.23309 0.97524 0.0
O60 O 0.07398 0.26366 0.96683 0.0
Co61 Co 0.12351 0.28755 0.00336 0.0
O62 O 0.07781 0.24372 0.99672 0.0
C63 C 0.10076 0.36899 0.98316 0.0
C64 C 0.16702 0.31621 0.93474 0.0
C65 C 0.05886 0.24307 0.98104 0.0
O66 O 0.11132 0.35047 0.96781 0.0
O67 O 0.10566 0.35031 0.99887 0.0
O68 O 0.1577 0.23135 0.95771 0.0
O69 O 0.1604 0.27124 0.98282 0.0
Co70 Co 0.29055 0.86569 0.04038 0.0
O71 O 0.3156 0.81285 0.0506 0.0
O72 O 0.30457 0.87438 0.06624 0.0
C73 C 0.23266 0.83392 0.02618 0.0
O74 O 0.26354 0.9257 0.0343 0.0
Co75 Co 0.28622 0.87615 0.99772 0.0
O76 O 0.2423 0.92168 0.00458 0.0
C77 C 0.36828 0.89928 0.01738 0.0
C78 C 0.31708 0.83332 0.06627 0.0
C79 C 0.2422 0.94066 0.02026 0.0
O80 O 0.3504 0.88851 0.03284 0.0
O81 O 0.34902 0.89438 0.0018 0.0
O82 O 0.23162 0.84223 0.04371 0.0
O83 O 0.27058 0.83925 0.01835 0.0
Co84 Co 0.86585 0.70883 0.95987 0.0
O85 O 0.81346 0.68254 0.94991 0.0
O86 O 0.87425 0.69487 0.93394 0.0
C87 C 0.83278 0.76605 0.97405 0.0
O88 O 0.92544 0.73697 0.96584 0.0
Co89 Co 0.87629 0.71381 0.00257 0.0
O90 O 0.92137 0.758 0.99559 0.0
C91 C 0.90052 0.63187 0.983 0.0
C92 C 0.83351 0.68139 0.93415 0.0
C93 C 0.94033 0.75827 0.97991 0.0
O94 O 0.88995 0.64955 0.96747 0.0
O95 O 0.895 0.65112 0.99855 0.0
O96 O 0.84099 0.76723 0.95652 0.0
O97 O 0.83918 0.72834 0.98189 0.0
Co98 Co 0.70956 0.13275 0.04128 0.0
O99 O 0.6845 0.18494 0.05203 0.0
O100 O 0.69665 0.12297 0.06721 0.0
C101 C 0.76659 0.1657 0.02692 0.0
O102 O 0.73674 0.0732 0.03453 0.0
Co103 Co 0.71211 0.12433 0.99852 0.0
O104 O 0.75648 0.07868 0.00467 0.0
C105 C 0.63111 0.09955 0.01862 0.0
C106 C 0.68376 0.1639 0.06757 0.0
C107 C 0.75738 0.05895 0.02018 0.0
O108 O 0.64957 0.10978 0.03402 0.0
O109 O 0.64966 0.1053 0.00293 0.0
O110 O 0.76845 0.15656 0.04436 0.0
O111 O 0.7284 0.16033 0.01933 0.0
Co112 Co 0.63398 0.71255 0.7907 0.0
O113 O 0.68364 0.68369 0.80194 0.0
O114 O 0.62219 0.70125 0.81657 0.0
C115 C 0.67334 0.76524 0.77641 0.0
O116 O 0.57675 0.74401 0.78354 0.0
Co117 Co 0.62655 0.71567 0.74786 0.0
O118 O 0.58265 0.76206 0.75352 0.0
C119 C 0.59833 0.63575 0.76797 0.0
C120 C 0.66197 0.68522 0.81732 0.0
C121 C 0.56315 0.76454 0.76905 0.0
O122 O 0.60719 0.65442 0.78346 0.0
O123 O 0.60625 0.65361 0.75231 0.0
O124 O 0.66303 0.76904 0.79369 0.0
O125 O 0.66359 0.72801 0.76882 0.0
Co126 Co 0.70972 0.36882 0.21046 0.0
O127 O 0.68454 0.31648 0.19992 0.0
O128 O 0.69629 0.37826 0.18457 0.0
C129 C 0.76704 0.3363 0.22469 0.0
O130 O 0.73702 0.42846 0.21701 0.0
Co131 Co 0.71308 0.37773 0.25323 0.0
O132 O 0.75728 0.42326 0.24683 0.0
C133 C 0.63183 0.40252 0.23332 0.0
C134 C 0.68353 0.3373 0.18433 0.0
C135 C 0.75797 0.4428 0.23127 0.0
O136 O 0.64991 0.39189 0.21789 0.0
O137 O 0.65066 0.39701 0.24896 0.0
O138 O 0.76851 0.345 0.2072 0.0
O139 O 0.72898 0.34159 0.2324 0.0
Co140 Co 0.36965 0.29056 0.79159 0.0
O141 O 0.31897 0.31931 0.80202 0.0
O142 O 0.37913 0.30229 0.81764 0.0
C143 C 0.33146 0.23752 0.77697 0.0
O144 O 0.42759 0.25926 0.78525 0.0
Co145 Co 0.38006 0.28665 0.74885 0.0
O146 O 0.4237 0.24059 0.75523 0.0
C147 C 0.40642 0.36713 0.76906 0.0
C148 C 0.33916 0.31798 0.81774 0.0
C149 C 0.44219 0.2385 0.77097 0.0
O150 O 0.39665 0.34874 0.78452 0.0
O151 O 0.39965 0.34888 0.75338 0.0
O152 O 0.3406 0.23397 0.79437 0.0
O153 O 0.34171 0.27464 0.7694 0.0
Co154 Co 0.29214 0.63681 0.21121 0.0
O155 O 0.31684 0.68866 0.20011 0.0
O156 O 0.30496 0.62614 0.18532 0.0
C157 C 0.23505 0.66998 0.22542 0.0
O158 O 0.26539 0.57738 0.21845 0.0
Co159 Co 0.29038 0.63044 0.25406 0.0
O160 O 0.24679 0.58376 0.24842 0.0
C161 C 0.3713 0.60566 0.23397 0.0
C162 C 0.31771 0.66709 0.18471 0.0
C163 C 0.2455 0.56343 0.23305 0.0
O164 O 0.35229 0.61452 0.21854 0.0
O165 O 0.35313 0.61233 0.24966 0.0
O166 O 0.23309 0.66018 0.20804 0.0
O167 O 0.27335 0.66518 0.23298 0.0
Co168 Co 0.63232 0.7911 0.46031 0.0
O169 O 0.6849 0.8172 0.45031 0.0
O170 O 0.62376 0.80558 0.43448 0.0
C171 C 0.66476 0.73332 0.47436 0.0
O172 O 0.57265 0.76318 0.4661 0.0
Co173 Co 0.62119 0.78547 0.50293 0.0
O174 O 0.57643 0.74117 0.49573 0.0
C175 C 0.59607 0.86731 0.48349 0.0
C176 C 0.66461 0.81869 0.4346 0.0
C177 C 0.55769 0.74137 0.48 0.0
O178 O 0.60824 0.85032 0.46803 0.0
O179 O 0.60077 0.84768 0.499 0.0
O180 O 0.65687 0.73265 0.45679 0.0
O181 O 0.65868 0.77096 0.48233 0.0
Co182 Co 0.79019 0.36691 0.53948 0.0
O183 O 0.81967 0.31688 0.55016 0.0
O184 O 0.80066 0.3768 0.56555 0.0
C185 C 0.73837 0.32774 0.52443 0.0
O186 O 0.7579 0.4241 0.53304 0.0
Co187 Co 0.7872 0.37753 0.49669 0.0
O188 O 0.74046 0.42061 0.50289 0.0
C189 C 0.86627 0.40627 0.51738 0.0
C190 C 0.81719 0.33721 0.56584 0.0
C191 C 0.7375 0.4387 0.51869 0.0
O192 O 0.84797 0.39553 0.53276 0.0
O193 O 0.84857 0.39909 0.50163 0.0
O194 O 0.73406 0.3365 0.54184 0.0
O195 O 0.77557 0.33886 0.51715 0.0
Co196 Co 0.36643 0.20539 0.45929 0.0
O197 O 0.31166 0.18578 0.44884 0.0
O198 O 0.37496 0.18827 0.43376 0.0
C199 C 0.34038 0.26746 0.47247 0.0
O200 O 0.42894 0.22476 0.46558 0.0
Co201 Co 0.37456 0.21156 0.50207 0.0
O202 O 0.4312 0.24043 0.49598 0.0
C203 C 0.39154 0.12658 0.48338 0.0
C204 C 0.33284 0.18013 0.43351 0.0
C205 C 0.44887 0.23902 0.48005 0.0
O206 O 0.38204 0.14404 0.4677 0.0
O207 O 0.38806 0.14726 0.49871 0.0
O208 O 0.35015 0.26645 0.45506 0.0
O209 O 0.34117 0.22981 0.48078 0.0
Co210 Co 0.21043 0.63356 0.54101 0.0
O211 O 0.1865 0.68505 0.55268 0.0
O212 O 0.1985 0.62172 0.56687 0.0
C213 C 0.2671 0.66673 0.52664 0.0
O214 O 0.23654 0.57429 0.53305 0.0
Co215 Co 0.21008 0.62926 0.4981 0.0
O216 O 0.25369 0.58205 0.50298 0.0
C217 C 0.12978 0.60494 0.51864 0.0
C218 C 0.18587 0.66268 0.56788 0.0
C219 C 0.25572 0.56099 0.51817 0.0
O220 O 0.14981 0.61234 0.53396 0.0
O221 O 0.14723 0.61221 0.50285 0.0
O222 O 0.26975 0.65625 0.54394 0.0
O223 O 0.22842 0.66272 0.51936 0.0
H224 H 0.20065 0.28122 0.24254 0.0
H225 H 0.17089 0.54206 0.25121 0.0
H226 H 0.14854 0.35053 0.28969 0.0
H227 H 0.27097 0.48641 0.21601 0.0
H228 H 0.14563 0.4681 0.25871 0.0
H229 H 0.21301 0.35284 0.22717 0.0
C230 C 0.19174 0.31137 0.24959 0.0
C231 C 0.17412 0.31006 0.26749 0.0
C232 C 0.17268 0.47194 0.24911 0.0
C233 C 0.18683 0.39112 0.24994 0.0
C234 C 0.18689 0.51414 0.24473 0.0
C235 C 0.22341 0.5202 0.23319 0.0
C236 C 0.19538 0.43533 0.24208 0.0
C237 C 0.24271 0.48297 0.225 0.0
C238 C 0.19869 0.35201 0.24084 0.0
C239 C 0.16278 0.34992 0.27601 0.0
N240 N 0.22897 0.44181 0.22988 0.0
N241 N 0.16923 0.38864 0.26716 0.0
H242 H 0.54206 0.839 0.75052 0.0
H243 H 0.28179 0.80327 0.75958 0.0
H244 H 0.48667 0.74138 0.78691 0.0
H245 H 0.34817 0.86769 0.71445 0.0
H246 H 0.35368 0.79315 0.77493 0.0
H247 H 0.46807 0.86517 0.74346 0.0
C248 C 0.51423 0.82377 0.75736 0.0
C249 C 0.52036 0.78768 0.76913 0.0
C250 C 0.35222 0.80982 0.76175 0.0
C251 C 0.43535 0.81655 0.76067 0.0
C252 C 0.31137 0.81554 0.753 0.0
C253 C 0.30922 0.83572 0.73561 0.0
C254 C 0.39073 0.82523 0.75313 0.0
C255 C 0.34834 0.8513 0.7277 0.0
C256 C 0.47196 0.83848 0.75323 0.0
C257 C 0.48323 0.76931 0.77774 0.0
N258 N 0.38733 0.84568 0.73649 0.0
N259 N 0.44205 0.78339 0.77306 0.0
H260 H 0.83548 0.46349 0.24733 0.0
H261 H 0.79596 0.72372 0.24305 0.0
H262 H 0.7301 0.51994 0.21523 0.0
H263 H 0.86131 0.65357 0.28695 0.0
H264 H 0.78499 0.65309 0.22681 0.0
H265 H 0.86135 0.53738 0.25477 0.0
C266 C 0.81848 0.4916 0.24146 0.0
C267 C 0.78034 0.48581 0.23087 0.0
C268 C 0.80199 0.65347 0.23993 0.0
C269 C 0.80893 0.57045 0.23975 0.0
C270 C 0.80815 0.69356 0.24918 0.0
C271 C 0.82883 0.69422 0.26649 0.0
C272 C 0.81767 0.61431 0.24791 0.0
C273 C 0.84443 0.65446 0.27381 0.0
C274 C 0.83302 0.53374 0.24581 0.0
C275 C 0.75966 0.5232 0.22347 0.0
N276 N 0.83854 0.61625 0.2645 0.0
N277 N 0.77371 0.56421 0.22836 0.0
H278 H 0.46298 0.16134 0.75451 0.0
H279 H 0.72295 0.20334 0.75909 0.0
H280 H 0.51903 0.26498 0.78762 0.0
H281 H 0.65455 0.13169 0.71649 0.0
H282 H 0.65215 0.21373 0.77529 0.0
H283 H 0.53694 0.13524 0.74727 0.0
C284 C 0.49099 0.17785 0.76067 0.0
C285 C 0.48502 0.21554 0.77153 0.0
C286 C 0.65294 0.1954 0.76248 0.0
C287 C 0.56993 0.18685 0.76278 0.0
C288 C 0.69317 0.18952 0.75326 0.0
C289 C 0.69438 0.16723 0.73631 0.0
C290 C 0.61412 0.17803 0.75481 0.0
C291 C 0.65504 0.14972 0.72937 0.0
C292 C 0.53323 0.16322 0.7564 0.0
C293 C 0.52236 0.23571 0.77921 0.0
N294 N 0.61667 0.15554 0.73861 0.0
N295 N 0.56347 0.22165 0.77438 0.0
H296 H 0.16352 0.96208 0.0054 0.0
H297 H 0.20677 0.22166 0.00886 0.0
H298 H 0.2718 0.01725 0.0361 0.0
H299 H 0.13684 0.15194 0.96613 0.0
H300 H 0.21748 0.15115 0.02528 0.0
H301 H 0.13746 0.03627 0.99855 0.0
C302 C 0.18113 0.98998 0.0111 0.0
C303 C 0.2201 0.98376 0.0211 0.0
C304 C 0.19949 0.15163 0.01239 0.0
C305 C 0.19135 0.06872 0.01285 0.0
C306 C 0.19348 0.19163 0.00304 0.0
C307 C 0.17169 0.19229 0.98598 0.0
C308 C 0.18251 0.11262 0.00475 0.0
C309 C 0.15467 0.15276 0.97906 0.0
C310 C 0.16648 0.03229 0.00708 0.0
C311 C 0.2416 0.02087 0.0283 0.0
N312 N 0.16046 0.11465 0.98845 0.0
N313 N 0.22745 0.06206 0.0237 0.0
H314 H 0.15288 0.86623 0.03553 0.0
H315 H 0.01639 0.72938 0.96327 0.0
H316 H 0.21862 0.79212 0.99291 0.0
H317 H 0.96296 0.83537 0.9959 0.0
H318 H 0.09115 0.75476 0.97097 0.0
H319 H 0.08356 0.85729 0.01933 0.0
C320 C 0.15262 0.84786 0.02273 0.0
C321 C 0.19131 0.82917 0.0157 0.0
C322 C 0.06302 0.77314 0.976 0.0
C323 C 0.1116 0.81857 0.99695 0.0
C324 C 0.02043 0.75891 0.97148 0.0
C325 C 0.98366 0.78006 0.97919 0.0
C326 C 0.06839 0.80846 0.98834 0.0
C327 C 0.99054 0.81782 0.9899 0.0
C328 C 0.11302 0.8431 0.01335 0.0
C329 C 0.18926 0.80661 0.99883 0.0
N330 N 0.032 0.83035 0.99439 0.0
N331 N 0.14977 0.8012 0.99013 0.0
H332 H 0.79529 0.77753 0.00836 0.0
H333 H 0.83423 0.03768 0.00367 0.0
H334 H 0.85702 0.84799 0.96366 0.0
H335 H 0.72953 0.98197 0.03634 0.0
H336 H 0.85947 0.96362 0.9961 0.0
H337 H 0.78458 0.84822 0.02465 0.0
C338 C 0.80671 0.80777 0.00205 0.0
C339 C 0.82635 0.80717 0.98453 0.0
C340 C 0.83143 0.96747 0.0052 0.0
C341 C 0.81558 0.88709 0.00314 0.0
C342 C 0.81725 0.00969 0.00963 0.0
C343 C 0.77947 0.01575 0.02042 0.0
C344 C 0.80732 0.93093 0.01139 0.0
C345 C 0.75881 0.9785 0.02794 0.0
C346 C 0.80071 0.84787 0.01133 0.0
C347 C 0.84097 0.84702 0.97698 0.0
N348 N 0.77249 0.93739 0.02297 0.0
N349 N 0.83534 0.88522 0.98632 0.0
H350 H 0.77757 0.20678 0.99328 0.0
H351 H 0.03767 0.16474 0.9962 0.0
H352 H 0.84832 0.13802 0.03608 0.0
H353 H 0.9818 0.27266 0.96546 0.0
H354 H 0.96362 0.13903 0.00348 0.0
H355 H 0.84797 0.21825 0.97684 0.0
C356 C 0.80779 0.19394 0.99912 0.0
C357 C 0.8074 0.17216 0.01619 0.0
C358 C 0.9674 0.16789 0.99485 0.0
C359 C 0.887 0.18387 0.99739 0.0
C360 C 0.00964 0.18233 0.99057 0.0
C361 C 0.01566 0.22106 0.9804 0.0
C362 C 0.93081 0.19272 0.98917 0.0
C363 C 0.97835 0.24259 0.97334 0.0
C364 C 0.84774 0.20039 0.98976 0.0
C365 C 0.84723 0.15577 0.02314 0.0
N366 N 0.93725 0.22863 0.97818 0.0
N367 N 0.88526 0.16194 0.01373 0.0
H368 H 0.66392 0.78798 0.7398 0.0
H369 H 0.81934 0.99713 0.75219 0.0
H370 H 0.72798 0.82654 0.79035 0.0
H371 H 0.70625 0.00427 0.71638 0.0
H372 H 0.80176 0.92057 0.75902 0.0
H373 H 0.69286 0.85519 0.7249 0.0
C374 C 0.68452 0.81022 0.74765 0.0
C375 C 0.69338 0.80217 0.76635 0.0
C376 C 0.78113 0.93857 0.74943 0.0
C377 C 0.72706 0.87746 0.74944 0.0
C378 C 0.79119 0.9821 0.74549 0.0
C379 C 0.76376 0.00686 0.73395 0.0
C380 C 0.74308 0.91967 0.74191 0.0
C381 C 0.72797 0.98599 0.72542 0.0
C382 C 0.70079 0.8484 0.73918 0.0
C383 C 0.72011 0.83181 0.77595 0.0
N384 N 0.71807 0.94343 0.72983 0.0
N385 N 0.73609 0.86802 0.76738 0.0
H386 H 0.98331 0.23321 0.2876 0.0
H387 H 0.84579 0.37198 0.21622 0.0
H388 H 0.03613 0.33945 0.25498 0.0
H389 H 0.78136 0.29269 0.2575 0.0
H390 H 0.9149 0.36399 0.23264 0.0
H391 H 0.90846 0.25872 0.2802 0.0
C392 C 0.97912 0.2628 0.27944 0.0
C393 C 0.01571 0.28395 0.27162 0.0
C394 C 0.88579 0.34842 0.23829 0.0
C395 C 0.93087 0.31258 0.26284 0.0
C396 C 0.84633 0.35264 0.22877 0.0
C397 C 0.80813 0.33215 0.23534 0.0
C398 C 0.88757 0.3226 0.25433 0.0
C399 C 0.8104 0.3085 0.25193 0.0
C400 C 0.93647 0.27712 0.2751 0.0
C401 C 0.00866 0.32185 0.26103 0.0
N402 N 0.8498 0.30362 0.26074 0.0
N403 N 0.96712 0.3345 0.25671 0.0
H404 H 0.3092 0.99493 0.71807 0.0
H405 H 0.27357 0.17836 0.7902 0.0
H406 H 0.18573 0.01052 0.74666 0.0
H407 H 0.34513 0.21268 0.74089 0.0
H408 H 0.2452 0.1131 0.77468 0.0
H409 H 0.32726 0.07239 0.72536 0.0
C410 C 0.28541 0.01516 0.72531 0.0
C411 C 0.2461 0.99685 0.73188 0.0
C412 C 0.26671 0.13514 0.76715 0.0
C413 C 0.26666 0.08369 0.74056 0.0
C414 C 0.28305 0.17219 0.77602 0.0
C415 C 0.31175 0.20064 0.7668 0.0
C416 C 0.28018 0.12568 0.74907 0.0
C417 C 0.323 0.19135 0.74842 0.0
C418 C 0.29568 0.05906 0.7295 0.0
C419 C 0.21646 0.02374 0.74146 0.0
N420 N 0.30783 0.15396 0.74019 0.0
N421 N 0.22767 0.0656 0.74581 0.0
H422 H 0.96408 0.66815 0.25588 0.0
H423 H 0.2235 0.71382 0.2584 0.0
H424 H 0.01866 0.77795 0.28579 0.0
H425 H 0.15411 0.63933 0.21695 0.0
H426 H 0.15296 0.72542 0.27474 0.0
H427 H 0.03842 0.64256 0.24899 0.0
C428 C 0.9919 0.68624 0.26138 0.0
C429 C 0.98544 0.72539 0.27121 0.0
C430 C 0.15352 0.70626 0.26215 0.0
C431 C 0.07062 0.69722 0.26288 0.0
C432 C 0.19355 0.69974 0.25285 0.0
C433 C 0.1943 0.67635 0.23616 0.0
C434 C 0.1146 0.68823 0.25484 0.0
C435 C 0.15486 0.65837 0.22957 0.0
C436 C 0.0343 0.67186 0.25734 0.0
C437 C 0.02247 0.74755 0.27815 0.0
N438 N 0.11675 0.66469 0.23891 0.0
N439 N 0.06374 0.73365 0.27352 0.0
H440 H 0.66171 0.46009 0.50124 0.0
H441 H 0.70074 0.71996 0.50887 0.0
H442 H 0.76216 0.5146 0.53648 0.0
H443 H 0.6391 0.6522 0.46343 0.0
H444 H 0.70967 0.64852 0.52476 0.0
H445 H 0.63629 0.53437 0.49418 0.0
C446 C 0.67762 0.4878 0.50789 0.0
C447 C 0.71434 0.48137 0.51927 0.0
C448 C 0.69393 0.64961 0.51137 0.0
C449 C 0.68646 0.56657 0.51077 0.0
C450 C 0.68896 0.69016 0.50232 0.0
C451 C 0.66996 0.69174 0.48469 0.0
C452 C 0.67873 0.61092 0.50284 0.0
C453 C 0.65478 0.65242 0.47683 0.0
C454 C 0.66339 0.5302 0.50373 0.0
C455 C 0.7337 0.51832 0.52762 0.0
N456 N 0.65949 0.61378 0.48595 0.0
N457 N 0.72011 0.55962 0.52289 0.0
H458 H 0.71607 0.34311 0.48817 0.0
H459 H 0.50951 0.18296 0.49267 0.0
H460 H 0.67685 0.27067 0.53662 0.0
H461 H 0.49549 0.31079 0.46755 0.0
H462 H 0.58649 0.19981 0.49971 0.0
H463 H 0.64866 0.31758 0.47244 0.0
C464 C 0.69366 0.3214 0.49538 0.0
C465 C 0.70154 0.30928 0.51377 0.0
C466 C 0.56689 0.22371 0.49223 0.0
C467 C 0.62616 0.27917 0.4958 0.0
C468 C 0.52325 0.21408 0.48814 0.0
C469 C 0.49661 0.24562 0.47956 0.0
C470 C 0.58391 0.2652 0.48773 0.0
C471 C 0.51543 0.28567 0.47409 0.0
C472 C 0.6554 0.30703 0.48643 0.0
C473 C 0.6717 0.28104 0.52249 0.0
N474 N 0.55816 0.29468 0.47848 0.0
N475 N 0.63541 0.26678 0.51341 0.0
H476 H 0.23292 0.48373 0.53566 0.0
H477 H 0.36551 0.34823 0.46076 0.0
H478 H 0.3283 0.54003 0.49846 0.0
H479 H 0.30152 0.28282 0.50624 0.0
H480 H 0.35324 0.41864 0.47575 0.0
H481 H 0.25981 0.40976 0.52738 0.0
C482 C 0.26036 0.48056 0.5262 0.0
C483 C 0.27807 0.51785 0.51751 0.0
C484 C 0.34207 0.38901 0.48262 0.0
C485 C 0.3082 0.43399 0.50777 0.0
C486 C 0.34883 0.34873 0.47396 0.0
C487 C 0.33409 0.30971 0.48219 0.0
C488 C 0.31963 0.39068 0.49954 0.0
C489 C 0.31318 0.3123 0.49943 0.0
C490 C 0.27545 0.43841 0.52138 0.0
C491 C 0.31328 0.51203 0.50525 0.0
N492 N 0.30597 0.35229 0.50746 0.0
N493 N 0.32671 0.47098 0.50057 0.0
H494 H 0.53626 0.66182 0.49397 0.0
H495 H 0.27735 0.71012 0.49352 0.0
H496 H 0.48104 0.77257 0.46483 0.0
H497 H 0.34818 0.63523 0.53446 0.0
H498 H 0.34703 0.72042 0.47645 0.0
H499 H 0.46204 0.63625 0.50106 0.0
C500 C 0.50832 0.68005 0.48863 0.0
C501 C 0.51454 0.71953 0.47901 0.0
C502 C 0.34696 0.70145 0.48909 0.0
C503 C 0.42962 0.69145 0.4876 0.0
C504 C 0.30744 0.6957 0.49882 0.0
C505 C 0.30737 0.6726 0.51557 0.0
C506 C 0.38605 0.68294 0.49604 0.0
C507 C 0.34694 0.6541 0.52181 0.0
C508 C 0.466 0.6657 0.4928 0.0
C509 C 0.47739 0.74192 0.4723 0.0
N510 N 0.38456 0.6597 0.51207 0.0
N511 N 0.43625 0.72808 0.47708 0.0
H512 H 0.36611 0.16936 0.39852 0.0
H513 H 0.12846 0.17758 0.35177 0.0
H514 H 0.24459 0.16633 0.42938 0.0
H515 H 0.2488 0.15908 0.32104 0.0
H516 H 0.16997 0.16794 0.38043 0.0
H517 H 0.32381 0.16023 0.37002 0.0
C518 C 0.33063 0.16621 0.39933 0.0
C519 C 0.30886 0.16901 0.41635 0.0
C520 C 0.18721 0.16543 0.3674 0.0
C521 C 0.26017 0.15905 0.3838 0.0
C522 C 0.16347 0.17086 0.35104 0.0
C523 C 0.18522 0.16953 0.33399 0.0
C524 C 0.23311 0.1591 0.36672 0.0
C525 C 0.23067 0.16065 0.33387 0.0
C526 C 0.30645 0.16104 0.38305 0.0
C527 C 0.26278 0.16466 0.41657 0.0
N528 N 0.25316 0.15633 0.34997 0.0
N529 N 0.23998 0.1604 0.40055 0.0
H530 H 0.18782 0.62829 0.60304 0.0
H531 H 0.17135 0.86515 0.65046 0.0
H532 H 0.16102 0.74806 0.57301 0.0
H533 H 0.17316 0.74367 0.68133 0.0
H534 H 0.16444 0.8225 0.62195 0.0
H535 H 0.17939 0.66918 0.632 0.0
C536 C 0.1796 0.66298 0.60253 0.0
C537 C 0.17543 0.6848 0.58557 0.0
C538 C 0.16588 0.80518 0.63499 0.0
C539 C 0.16629 0.73192 0.6186 0.0
C540 C 0.16978 0.82957 0.65127 0.0
C541 C 0.17308 0.80799 0.6683 0.0
C542 C 0.16576 0.75886 0.63573 0.0
C543 C 0.17087 0.76174 0.66851 0.0
C544 C 0.17486 0.68636 0.61906 0.0
C545 C 0.16481 0.72987 0.58575 0.0
N546 N 0.16783 0.73874 0.65248 0.0
N547 N 0.16107 0.75196 0.60196 0.0
H548 H 0.75192 0.83865 0.4311 0.0
H549 H 0.7472 0.83983 0.32084 0.0
H550 H 0.6332 0.82291 0.39905 0.0
H551 H 0.86617 0.8229 0.35264 0.0
H552 H 0.70544 0.8476 0.3494 0.0
H553 H 0.79396 0.84683 0.4026 0.0
C554 C 0.73452 0.83752 0.41807 0.0
C555 C 0.6889 0.82977 0.41748 0.0
C556 C 0.74073 0.84259 0.35015 0.0
C557 C 0.73712 0.83899 0.38474 0.0
C558 C 0.76472 0.83832 0.33383 0.0
C559 C 0.81032 0.83037 0.33432 0.0
C560 C 0.76239 0.83913 0.36716 0.0
C561 C 0.83109 0.82883 0.3516 0.0
C562 C 0.75867 0.84201 0.4018 0.0
C563 C 0.66828 0.82867 0.40018 0.0
N564 N 0.80692 0.83289 0.36734 0.0
N565 N 0.69258 0.83296 0.38449 0.0
H566 H 0.83036 0.25862 0.68028 0.0
H567 H 0.84142 0.25114 0.57015 0.0
H568 H 0.82419 0.13783 0.64903 0.0
H569 H 0.81497 0.36936 0.60128 0.0
H570 H 0.84814 0.2101 0.59899 0.0
H571 H 0.83756 0.29989 0.65162 0.0
C572 C 0.83095 0.24064 0.66739 0.0
C573 C 0.82636 0.1946 0.66708 0.0
C574 C 0.84128 0.24508 0.59952 0.0
C575 C 0.83455 0.242 0.63409 0.0
C576 C 0.83766 0.26868 0.58305 0.0
C577 C 0.8274 0.31383 0.58327 0.0
C578 C 0.83488 0.26676 0.61639 0.0
C579 C 0.82281 0.33463 0.60044 0.0
C580 C 0.83494 0.26435 0.651 0.0
C581 C 0.8275 0.17326 0.64992 0.0
N582 N 0.82638 0.31089 0.61629 0.0
N583 N 0.83127 0.19717 0.63409 0.0
H584 H 0.25455 0.33493 0.93153 0.0
H585 H 0.25295 0.34195 0.82135 0.0
H586 H 0.1364 0.32046 0.89901 0.0
H587 H 0.36999 0.31685 0.85347 0.0
H588 H 0.2106 0.34893 0.84981 0.0
H589 H 0.29728 0.34302 0.90324 0.0
C590 C 0.23742 0.33402 0.91844 0.0
C591 C 0.19174 0.32671 0.91766 0.0
C592 C 0.24561 0.34232 0.85065 0.0
C593 C 0.24079 0.33593 0.88514 0.0
C594 C 0.26996 0.33854 0.8344 0.0
C595 C 0.31516 0.32851 0.835 0.0
C596 C 0.26654 0.33639 0.8677 0.0
C597 C 0.33525 0.32446 0.85234 0.0
C598 C 0.26198 0.33846 0.90228 0.0
C599 C 0.17151 0.32589 0.90027 0.0
N600 N 0.31076 0.32821 0.868 0.0
N601 N 0.19621 0.33023 0.88469 0.0
H602 H 0.34085 0.75318 0.18026 0.0
H603 H 0.33425 0.74551 0.07009 0.0
H604 H 0.31751 0.6341 0.1493 0.0
H605 H 0.32295 0.86545 0.10166 0.0
H606 H 0.34208 0.70397 0.09873 0.0
H607 H 0.34843 0.79376 0.15141 0.0
C608 C 0.33786 0.73537 0.16738 0.0
C609 C 0.32818 0.69012 0.16722 0.0
C610 C 0.3383 0.73941 0.0994 0.0
C611 C 0.33672 0.73671 0.13405 0.0
C612 C 0.33402 0.76326 0.08304 0.0
C613 C 0.32765 0.80911 0.08346 0.0
C614 C 0.33652 0.76148 0.11636 0.0
C615 C 0.32763 0.83018 0.10067 0.0
C616 C 0.34203 0.75869 0.15091 0.0
C617 C 0.32482 0.66893 0.15009 0.0
N618 N 0.33176 0.80618 0.11644 0.0
N619 N 0.32882 0.69247 0.13418 0.0
H620 H 0.74965 0.64982 0.93159 0.0
H621 H 0.62707 0.68625 0.85228 0.0
H622 H 0.8604 0.68828 0.89797 0.0
H623 H 0.7476 0.6606 0.8226 0.0
H624 H 0.66711 0.67763 0.88126 0.0
H625 H 0.70505 0.64205 0.90387 0.0
C626 C 0.76471 0.65644 0.91834 0.0
C627 C 0.80876 0.67033 0.91715 0.0
C628 C 0.68467 0.67265 0.86845 0.0
C629 C 0.75721 0.66282 0.88525 0.0
C630 C 0.66174 0.67786 0.85186 0.0
C631 C 0.68392 0.67409 0.83498 0.0
C632 C 0.73023 0.66378 0.86816 0.0
C633 C 0.72907 0.66371 0.83529 0.0
C634 C 0.73896 0.6525 0.9025 0.0
C635 C 0.82655 0.67778 0.89956 0.0
N636 N 0.7508 0.6595 0.85158 0.0
N637 N 0.80061 0.67421 0.88431 0.0
H638 H 0.68146 0.13117 0.10297 0.0
H639 H 0.6796 0.36983 0.14894 0.0
H640 H 0.66381 0.25094 0.07179 0.0
H641 H 0.66528 0.24986 0.18027 0.0
H642 H 0.67195 0.32704 0.12046 0.0
H643 H 0.67368 0.17374 0.13152 0.0
C644 C 0.67537 0.16626 0.10212 0.0
C645 C 0.67351 0.18749 0.08496 0.0
C646 C 0.66996 0.31016 0.13359 0.0
C647 C 0.66524 0.23656 0.11754 0.0
C648 C 0.67427 0.33463 0.14985 0.0
C649 C 0.67328 0.31344 0.16702 0.0
C650 C 0.66518 0.26411 0.13451 0.0
C651 C 0.66638 0.26765 0.16734 0.0
C652 C 0.671 0.1906 0.11841 0.0
C653 C 0.66564 0.23313 0.0847 0.0
N654 N 0.6631 0.24451 0.15136 0.0
N655 N 0.6623 0.25615 0.10071 0.0
H656 H 0.91802 0.9244 0.23822 0.0
H657 H 0.07336 0.08457 0.297 0.0
H658 H 0.93115 0.91697 0.29743 0.0
H659 H 0.05829 0.09256 0.23787 0.0
H660 H 0.02196 0.02279 0.29745 0.0
H661 H 0.96743 0.98764 0.23804 0.0
C662 C 0.93077 0.93636 0.25123 0.0
C663 C 0.92047 0.91498 0.26786 0.0
C664 C 0.03008 0.03794 0.28437 0.0
C665 C 0.97792 0.98721 0.26769 0.0
C666 C 0.05976 0.07307 0.28407 0.0
C667 C 0.07031 0.09403 0.26736 0.0
C668 C 0.01067 0.02356 0.26786 0.0
C669 C 0.05133 0.07756 0.25109 0.0
C670 C 0.95928 0.97239 0.25109 0.0
C671 C 0.93806 0.93226 0.28427 0.0
N672 N 0.02234 0.04352 0.25177 0.0
N673 N 0.96619 0.96708 0.28374 0.0
H674 H 0.92126 0.07923 0.70269 0.0
H675 H 0.07804 0.92522 0.76377 0.0
H676 H 0.93025 0.08566 0.76206 0.0
H677 H 0.08172 0.92664 0.70424 0.0
H678 H 0.02038 0.98095 0.76304 0.0
H679 H 0.97958 0.0236 0.70262 0.0
C680 C 0.93604 0.06977 0.71569 0.0
C681 C 0.92043 0.08723 0.73243 0.0
C682 C 0.03353 0.96888 0.75011 0.0
C683 C 0.98655 0.02251 0.73242 0.0
C684 C 0.06625 0.93658 0.7505 0.0
C685 C 0.08516 0.92112 0.73404 0.0
C686 C 0.01934 0.98607 0.73315 0.0
C687 C 0.06825 0.93739 0.7173 0.0
C688 C 0.96906 0.03756 0.71563 0.0
C689 C 0.94086 0.07319 0.7488 0.0
N690 N 0.03658 0.9692 0.71729 0.0
N691 N 0.97244 0.04146 0.74839 0.0
H692 H 0.0729 0.4155 0.95273 0.0
H693 H 0.92709 0.58243 0.01261 0.0
H694 H 0.07124 0.41851 0.01228 0.0
H695 H 0.93253 0.58602 0.95311 0.0
H696 H 0.97799 0.52046 0.01243 0.0
H697 H 0.02224 0.47812 0.95235 0.0
C698 C 0.0625 0.42965 0.96573 0.0
C699 C 0.07636 0.41138 0.98258 0.0
C700 C 0.9679 0.53461 0.9994 0.0
C701 C 0.0176 0.48267 0.98219 0.0
C702 C 0.9385 0.56991 0.99947 0.0
C703 C 0.92547 0.58979 0.98285 0.0
C704 C 0.98464 0.51887 0.98259 0.0
C705 C 0.94152 0.57184 0.96628 0.0
C706 C 0.03324 0.46523 0.96549 0.0
C707 C 0.06147 0.43119 0.99895 0.0
N708 N 0.97046 0.5376 0.96658 0.0
N709 N 0.03274 0.46547 0.99833 0.0
H710 H 0.41771 0.92701 0.98794 0.0
H711 H 0.58525 0.0695 0.04886 0.0
H712 H 0.4147 0.92931 0.04747 0.0
H713 H 0.58158 0.07106 0.98933 0.0
H714 H 0.52292 0.01853 0.04888 0.0
H715 H 0.47992 0.97753 0.98848 0.0
C716 C 0.43042 0.93762 0.00116 0.0
C717 C 0.4106 0.92384 0.01769 0.0
C718 C 0.53561 0.03029 0.03583 0.0
C719 C 0.48181 0.98262 0.01837 0.0
C720 C 0.57102 0.05974 0.0358 0.0
C721 C 0.58899 0.07466 0.01906 0.0
C722 C 0.51803 0.01552 0.01902 0.0
C723 C 0.56912 0.0605 0.00259 0.0
C724 C 0.46586 0.96682 0.00145 0.0
C725 C 0.4288 0.9389 0.03437 0.0
N726 N 0.535 0.0316 0.003 0.0
N727 N 0.46316 0.96768 0.03428 0.0
H728 H 0.43373 0.41483 0.79919 0.0
H729 H 0.57265 0.58546 0.73848 0.0
H730 H 0.43603 0.41538 0.73963 0.0
H731 H 0.56663 0.59037 0.79796 0.0
H732 H 0.52435 0.52152 0.7389 0.0
H733 H 0.48203 0.47916 0.7992 0.0
C734 C 0.44392 0.42868 0.78611 0.0
C735 C 0.43081 0.4094 0.76938 0.0
C736 C 0.53372 0.53645 0.75187 0.0
C737 C 0.48669 0.48273 0.76934 0.0
C738 C 0.56158 0.5729 0.75166 0.0
C739 C 0.57373 0.5936 0.76821 0.0
C740 C 0.51772 0.52041 0.76875 0.0
C741 C 0.55821 0.57561 0.78484 0.0
C742 C 0.47174 0.4653 0.78614 0.0
C743 C 0.44525 0.4289 0.75288 0.0
N744 N 0.53084 0.54019 0.78468 0.0
N745 N 0.47255 0.46426 0.7533 0.0
H746 H 0.58439 0.43009 0.2031 0.0
H747 H 0.4233 0.58178 0.26324 0.0
H748 H 0.58449 0.43444 0.26264 0.0
H749 H 0.41507 0.57176 0.20393 0.0
H750 H 0.48516 0.53066 0.2629 0.0
H751 H 0.52286 0.48207 0.20287 0.0
C752 C 0.57115 0.44137 0.21614 0.0
C753 C 0.58995 0.42781 0.23292 0.0
C754 C 0.47 0.5398 0.24994 0.0
C755 C 0.51995 0.48811 0.2327 0.0
C756 C 0.4348 0.56934 0.2501 0.0
C757 C 0.41358 0.58105 0.2336 0.0
C758 C 0.48427 0.52162 0.23316 0.0
C759 C 0.43025 0.56376 0.21701 0.0
C760 C 0.5362 0.47137 0.21598 0.0
C761 C 0.57133 0.44388 0.24934 0.0
N762 N 0.46438 0.53469 0.21723 0.0
N763 N 0.53765 0.47333 0.2488 0.0
H764 H 0.41745 0.0775 0.51328 0.0
H765 H 0.56781 0.91456 0.45335 0.0
H766 H 0.42044 0.07811 0.45373 0.0
H767 H 0.56277 0.91361 0.51288 0.0
H768 H 0.51463 0.97499 0.45315 0.0
H769 H 0.46857 0.01555 0.51324 0.0
C770 C 0.42818 0.0642 0.50017 0.0
C771 C 0.41461 0.08342 0.48348 0.0
C772 C 0.52537 0.96169 0.46625 0.0
C773 C 0.47416 0.01276 0.48338 0.0
C774 C 0.55612 0.9274 0.4664 0.0
C775 C 0.56989 0.90868 0.48316 0.0
C776 C 0.50816 0.97749 0.48297 0.0
C777 C 0.55321 0.92676 0.49959 0.0
C778 C 0.45775 0.02897 0.50017 0.0
C779 C 0.42986 0.06453 0.46696 0.0
N780 N 0.52312 0.9599 0.49907 0.0
N781 N 0.4591 0.03057 0.46734 0.0
H782 H 0.91516 0.43529 0.48807 0.0
H783 H 0.08438 0.575 0.54898 0.0
H784 H 0.91077 0.4385 0.5476 0.0
H785 H 0.07802 0.57978 0.48951 0.0
H786 H 0.02079 0.52569 0.54907 0.0
H787 H 0.97671 0.48643 0.4887 0.0
C788 C 0.92736 0.44634 0.50132 0.0
C789 C 0.90747 0.4325 0.51782 0.0
C790 C 0.03313 0.53786 0.53603 0.0
C791 C 0.97803 0.49187 0.51858 0.0
C792 C 0.0693 0.5663 0.53595 0.0
C793 C 0.08694 0.58149 0.51919 0.0
C794 C 0.01453 0.52434 0.51924 0.0
C795 C 0.06588 0.56888 0.50277 0.0
C796 C 0.96243 0.47588 0.50164 0.0
C797 C 0.92499 0.44814 0.53452 0.0
N798 N 0.0311 0.54082 0.50322 0.0
N799 N 0.95916 0.47712 0.53447 0.0
loop_
_geom_bond_atom_site_label_1
_geom_bond_atom_site_label_2
_geom_bond_distance
_geom_bond_site_symmetry_2
_ccdc_geom_bond_type
Co0 O1 2.216 . S
Co0 O2 2.091 . S
Co0 O4 2.004 . S
Co0 O10 2.021 . S
Co0 O12 2.137 . S
Co0 O13 2.244 . S
O1 Co0 2.216 . S
O1 C8 1.247 . S
O2 Co0 2.091 . S
O2 C8 1.261 . S
C3 O12 1.247 . S
C3 O13 1.272 . S
O4 Co0 2.004 . S
O4 C9 1.259 . S
Co5 O6 2.061 . S
Co5 O11 2.052 . S
Co5 O13 2.135 . S
O6 Co5 2.061 . S
O6 C9 1.235 . S
C7 O10 1.238 . S
C7 O11 1.241 . S
C8 O1 1.247 . S
C8 O2 1.261 . S
C9 O4 1.259 . S
C9 O6 1.235 . S
O10 Co0 2.021 . S
O10 C7 1.238 . S
O11 Co5 2.052 . S
O11 C7 1.241 . S
O12 Co0 2.137 . S
O12 C3 1.247 . S
O13 Co0 2.244 . S
O13 C3 1.272 . S
O13 Co5 2.135 . S
Co14 O15 2.216 . S
Co14 O16 2.091 . S
Co14 O18 2.004 . S
Co14 O24 2.021 . S
Co14 O26 2.137 . S
Co14 O27 2.244 . S
O15 Co14 2.216 . S
O15 C22 1.247 . S
O16 Co14 2.091 . S
O16 C22 1.261 . S
C17 O26 1.247 . S
C17 O27 1.272 . S
O18 Co14 2.004 . S
O18 C23 1.259 . S
Co19 O20 2.061 . S
Co19 O25 2.052 . S
Co19 O27 2.135 . S
O20 Co19 2.061 . S
O20 C23 1.235 . S
C21 O24 1.238 . S
C21 O25 1.241 . S
C22 O15 1.247 . S
C22 O16 1.261 . S
C23 O18 1.259 . S
C23 O20 1.235 . S
O24 Co14 2.021 . S
O24 C21 1.238 . S
O25 Co19 2.052 . S
O25 C21 1.241 . S
O26 Co14 2.137 . S
O26 C17 1.247 . S
O27 Co14 2.244 . S
O27 C17 1.272 . S
O27 Co19 2.135 . S
Co28 O29 2.216 . S
Co28 O30 2.091 . S
Co28 O32 2.004 . S
Co28 O38 2.021 . S
Co28 O40 2.137 . S
Co28 O41 2.244 . S
O29 Co28 2.216 . S
O29 C36 1.247 . S
O30 Co28 2.091 . S
O30 C36 1.261 . S
C31 O40 1.247 . S
C31 O41 1.272 . S
O32 Co28 2.004 . S
O32 C37 1.259 . S
Co33 O34 2.061 . S
Co33 O39 2.052 . S
Co33 O41 2.135 . S
O34 Co33 2.061 . S
O34 C37 1.235 . S
C35 O38 1.238 . S
C35 O39 1.241 . S
C36 O29 1.247 . S
C36 O30 1.261 . S
C37 O32 1.259 . S
C37 O34 1.235 . S
O38 Co28 2.021 . S
O38 C35 1.238 . S
O39 Co33 2.052 . S
O39 C35 1.241 . S
O40 Co28 2.137 . S
O40 C31 1.247 . S
O41 Co28 2.244 . S
O41 C31 1.272 . S
O41 Co33 2.135 . S
Co42 O43 2.216 . S
Co42 O44 2.091 . S
Co42 O46 2.004 . S
Co42 O52 2.021 . S
Co42 O54 2.137 . S
Co42 O55 2.244 . S
O43 Co42 2.216 . S
O43 C50 1.247 . S
O44 Co42 2.091 . S
O44 C50 1.261 . S
C45 O54 1.247 . S
C45 O55 1.272 . S
O46 Co42 2.004 . S
O46 C51 1.259 . S
Co47 O48 2.061 . S
Co47 O53 2.052 . S
Co47 O55 2.135 . S
O48 Co47 2.061 . S
O48 C51 1.235 . S
C49 O52 1.238 . S
C49 O53 1.241 . S
C50 O43 1.247 . S
C50 O44 1.261 . S
C51 O46 1.259 . S
C51 O48 1.235 . S
O52 Co42 2.021 . S
O52 C49 1.238 . S
O53 Co47 2.052 . S
O53 C49 1.241 . S
O54 Co42 2.137 . S
O54 C45 1.247 . S
O55 Co42 2.244 . S
O55 C45 1.272 . S
O55 Co47 2.135 . S
Co56 O57 2.216 . S
Co56 O58 2.091 . S
Co56 O60 2.004 . S
Co56 O66 2.021 . S
Co56 O68 2.137 . S
Co56 O69 2.244 . S
O57 Co56 2.216 . S
O57 C64 1.247 . S
O58 Co56 2.091 . S
O58 C64 1.261 . S
C59 O68 1.247 . S
C59 O69 1.272 . S
O60 Co56 2.004 . S
O60 C65 1.259 . S
Co61 O62 2.061 1_554 S
Co61 O67 2.052 1_554 S
Co61 O69 2.135 1_554 S
O62 Co61 2.061 1_556 S
O62 C65 1.235 . S
C63 O66 1.238 . S
C63 O67 1.241 . S
C64 O57 1.247 . S
C64 O58 1.261 . S
C65 O60 1.259 . S
C65 O62 1.235 . S
O66 Co56 2.021 . S
O66 C63 1.238 . S
O67 Co61 2.052 1_556 S
O67 C63 1.241 . S
O68 Co56 2.137 . S
O68 C59 1.247 . S
O69 Co56 2.244 . S
O69 C59 1.272 . S
O69 Co61 2.135 1_556 S
Co70 O71 2.216 . S
Co70 O72 2.091 . S
Co70 O74 2.004 . S
Co70 O80 2.021 . S
Co70 O82 2.137 . S
Co70 O83 2.244 . S
O71 Co70 2.216 . S
O71 C78 1.247 . S
O72 Co70 2.091 . S
O72 C78 1.261 . S
C73 O82 1.247 . S
C73 O83 1.272 . S
O74 Co70 2.004 . S
O74 C79 1.259 . S
Co75 O76 2.061 1_556 S
Co75 O81 2.052 1_556 S
Co75 O83 2.135 1_556 S
O76 Co75 2.061 1_554 S
O76 C79 1.235 . S
C77 O80 1.238 . S
C77 O81 1.241 . S
C78 O71 1.247 . S
C78 O72 1.261 . S
C79 O74 1.259 . S
C79 O76 1.235 . S
O80 Co70 2.021 . S
O80 C77 1.238 . S
O81 Co75 2.052 1_554 S
O81 C77 1.241 . S
O82 Co70 2.137 . S
O82 C73 1.247 . S
O83 Co70 2.244 . S
O83 C73 1.272 . S
O83 Co75 2.135 1_554 S
Co84 O85 2.216 . S
Co84 O86 2.091 . S
Co84 O88 2.004 . S
Co84 O94 2.021 . S
Co84 O96 2.137 . S
Co84 O97 2.244 . S
O85 Co84 2.216 . S
O85 C92 1.247 . S
O86 Co84 2.091 . S
O86 C92 1.261 . S
C87 O96 1.247 . S
C87 O97 1.272 . S
O88 Co84 2.004 . S
O88 C93 1.259 . S
Co89 O90 2.061 1_554 S
Co89 O95 2.052 1_554 S
Co89 O97 2.135 1_554 S
O90 Co89 2.061 1_556 S
O90 C93 1.235 . S
C91 O94 1.238 . S
C91 O95 1.241 . S
C92 O85 1.247 . S
C92 O86 1.261 . S
C93 O88 1.259 . S
C93 O90 1.235 . S
O94 Co84 2.021 . S
O94 C91 1.238 . S
O95 Co89 2.052 1_556 S
O95 C91 1.241 . S
O96 Co84 2.137 . S
O96 C87 1.247 . S
O97 Co84 2.244 . S
O97 C87 1.272 . S
O97 Co89 2.135 1_556 S
Co98 O99 2.216 . S
Co98 O100 2.091 . S
Co98 O102 2.004 . S
Co98 O108 2.021 . S
Co98 O110 2.137 . S
Co98 O111 2.244 . S
O99 Co98 2.216 . S
O99 C106 1.247 . S
O100 Co98 2.091 . S
O100 C106 1.261 . S
C101 O110 1.247 . S
C101 O111 1.272 . S
O102 Co98 2.004 . S
O102 C107 1.259 . S
Co103 O104 2.061 1_556 S
Co103 O109 2.052 1_556 S
Co103 O111 2.135 1_556 S
O104 Co103 2.061 1_554 S
O104 C107 1.235 . S
C105 O108 1.238 . S
C105 O109 1.241 . S
C106 O99 1.247 . S
C106 O100 1.261 . S
C107 O102 1.259 . S
C107 O104 1.235 . S
O108 Co98 2.021 . S
O108 C105 1.238 . S
O109 Co103 2.052 1_554 S
O109 C105 1.241 . S
O110 Co98 2.137 . S
O110 C101 1.247 . S
O111 Co98 2.244 . S
O111 C101 1.272 . S
O111 Co103 2.135 1_554 S
Co112 O113 2.216 . S
Co112 O114 2.091 . S
Co112 O116 2.004 . S
Co112 O122 2.021 . S
Co112 O124 2.137 . S
Co112 O125 2.244 . S
O113 Co112 2.216 . S
O113 C120 1.247 . S
O114 Co112 2.091 . S
O114 C120 1.261 . S
C115 O124 1.247 . S
C115 O125 1.272 . S
O116 Co112 2.004 . S
O116 C121 1.259 . S
Co117 O118 2.061 . S
Co117 O123 2.052 . S
Co117 O125 2.135 . S
O118 Co117 2.061 . S
O118 C121 1.235 . S
C119 O122 1.238 . S
C119 O123 1.241 . S
C120 O113 1.247 . S
C120 O114 1.261 . S
C121 O116 1.259 . S
C121 O118 1.235 . S
O122 Co112 2.021 . S
O122 C119 1.238 . S
O123 Co117 2.052 . S
O123 C119 1.241 . S
O124 Co112 2.137 . S
O124 C115 1.247 . S
O125 Co112 2.244 . S
O125 C115 1.272 . S
O125 Co117 2.135 . S
Co126 O127 2.216 . S
Co126 O128 2.091 . S
Co126 O130 2.004 . S
Co126 O136 2.021 . S
Co126 O138 2.137 . S
Co126 O139 2.244 . S
O127 Co126 2.216 . S
O127 C134 1.247 . S
O128 Co126 2.091 . S
O128 C134 1.261 . S
C129 O138 1.247 . S
C129 O139 1.272 . S
O130 Co126 2.004 . S
O130 C135 1.259 . S
Co131 O132 2.061 . S
Co131 O137 2.052 . S
Co131 O139 2.135 . S
O132 Co131 2.061 . S
O132 C135 1.235 . S
C133 O136 1.238 . S
C133 O137 1.241 . S
C134 O127 1.247 . S
C134 O128 1.261 . S
C135 O130 1.259 . S
C135 O132 1.235 . S
O136 Co126 2.021 . S
O136 C133 1.238 . S
O137 Co131 2.052 . S
O137 C133 1.241 . S
O138 Co126 2.137 . S
O138 C129 1.247 . S
O139 Co126 2.244 . S
O139 C129 1.272 . S
O139 Co131 2.135 . S
Co140 O141 2.216 . S
Co140 O142 2.091 . S
Co140 O144 2.004 . S
Co140 O150 2.021 . S
Co140 O152 2.137 . S
Co140 O153 2.244 . S
O141 Co140 2.216 . S
O141 C148 1.247 . S
O142 Co140 2.091 . S
O142 C148 1.261 . S
C143 O152 1.247 . S
C143 O153 1.272 . S
O144 Co140 2.004 . S
O144 C149 1.259 . S
Co145 O146 2.061 . S
Co145 O151 2.052 . S
Co145 O153 2.135 . S
O146 Co145 2.061 . S
O146 C149 1.235 . S
C147 O150 1.238 . S
C147 O151 1.241 . S
C148 O141 1.247 . S
C148 O142 1.261 . S
C149 O144 1.259 . S
C149 O146 1.235 . S
O150 Co140 2.021 . S
O150 C147 1.238 . S
O151 Co145 2.052 . S
O151 C147 1.241 . S
O152 Co140 2.137 . S
O152 C143 1.247 . S
O153 Co140 2.244 . S
O153 C143 1.272 . S
O153 Co145 2.135 . S
Co154 O155 2.216 . S
Co154 O156 2.091 . S
Co154 O158 2.004 . S
Co154 O164 2.021 . S
Co154 O166 2.137 . S
Co154 O167 2.244 . S
O155 Co154 2.216 . S
O155 C162 1.247 . S
O156 Co154 2.091 . S
O156 C162 1.261 . S
C157 O166 1.247 . S
C157 O167 1.272 . S
O158 Co154 2.004 . S
O158 C163 1.259 . S
Co159 O160 2.061 . S
Co159 O165 2.052 . S
Co159 O167 2.135 . S
O160 Co159 2.061 . S
O160 C163 1.235 . S
C161 O164 1.238 . S
C161 O165 1.241 . S
C162 O155 1.247 . S
C162 O156 1.261 . S
C163 O158 1.259 . S
C163 O160 1.235 . S
O164 Co154 2.021 . S
O164 C161 1.238 . S
O165 Co159 2.052 . S
O165 C161 1.241 . S
O166 Co154 2.137 . S
O166 C157 1.247 . S
O167 Co154 2.244 . S
O167 C157 1.272 . S
O167 Co159 2.135 . S
Co168 O169 2.216 . S
Co168 O170 2.091 . S
Co168 O172 2.004 . S
Co168 O178 2.021 . S
Co168 O180 2.137 . S
Co168 O181 2.244 . S
O169 Co168 2.216 . S
O169 C176 1.247 . S
O170 Co168 2.091 . S
O170 C176 1.261 . S
C171 O180 1.247 . S
C171 O181 1.272 . S
O172 Co168 2.004 . S
O172 C177 1.259 . S
Co173 O174 2.061 . S
Co173 O179 2.052 . S
Co173 O181 2.135 . S
O174 Co173 2.061 . S
O174 C177 1.235 . S
C175 O178 1.238 . S
C175 O179 1.241 . S
C176 O169 1.247 . S
C176 O170 1.261 . S
C177 O172 1.259 . S
C177 O174 1.235 . S
O178 Co168 2.021 . S
O178 C175 1.238 . S
O179 Co173 2.052 . S
O179 C175 1.241 . S
O180 Co168 2.137 . S
O180 C171 1.247 . S
O181 Co168 2.244 . S
O181 C171 1.272 . S
O181 Co173 2.135 . S
Co182 O183 2.216 . S
Co182 O184 2.091 . S
Co182 O186 2.004 . S
Co182 O192 2.021 . S
Co182 O194 2.137 . S
Co182 O195 2.244 . S
O183 Co182 2.216 . S
O183 C190 1.247 . S
O184 Co182 2.091 . S
O184 C190 1.261 . S
C185 O194 1.247 . S
C185 O195 1.272 . S
O186 Co182 2.004 . S
O186 C191 1.259 . S
Co187 O188 2.061 . S
Co187 O193 2.052 . S
Co187 O195 2.135 . S
O188 Co187 2.061 . S
O188 C191 1.235 . S
C189 O192 1.238 . S
C189 O193 1.241 . S
C190 O183 1.247 . S
C190 O184 1.261 . S
C191 O186 1.259 . S
C191 O188 1.235 . S
O192 Co182 2.021 . S
O192 C189 1.238 . S
O193 Co187 2.052 . S
O193 C189 1.241 . S
O194 Co182 2.137 . S
O194 C185 1.247 . S
O195 Co182 2.244 . S
O195 C185 1.272 . S
O195 Co187 2.135 . S
Co196 O197 2.216 . S
Co196 O198 2.091 . S
Co196 O200 2.004 . S
Co196 O206 2.021 . S
Co196 O208 2.137 . S
Co196 O209 2.244 . S
O197 Co196 2.216 . S
O197 C204 1.247 . S
O198 Co196 2.091 . S
O198 C204 1.261 . S
C199 O208 1.247 . S
C199 O209 1.272 . S
O200 Co196 2.004 . S
O200 C205 1.259 . S
Co201 O202 2.061 . S
Co201 O207 2.052 . S
Co201 O209 2.135 . S
O202 Co201 2.061 . S
O202 C205 1.235 . S
C203 O206 1.238 . S
C203 O207 1.241 . S
C204 O197 1.247 . S
C204 O198 1.261 . S
C205 O200 1.259 . S
C205 O202 1.235 . S
O206 Co196 2.021 . S
O206 C203 1.238 . S
O207 Co201 2.052 . S
O207 C203 1.241 . S
O208 Co196 2.137 . S
O208 C199 1.247 . S
O209 Co196 2.244 . S
O209 C199 1.272 . S
O209 Co201 2.135 . S
Co210 O211 2.216 . S
Co210 O212 2.091 . S
Co210 O214 2.004 . S
Co210 O220 2.021 . S
Co210 O222 2.137 . S
Co210 O223 2.244 . S
O211 Co210 2.216 . S
O211 C218 1.247 . S
O212 Co210 2.091 . S
O212 C218 1.261 . S
C213 O222 1.247 . S
C213 O223 1.272 . S
O214 Co210 2.004 . S
O214 C219 1.259 . S
Co215 O216 2.061 . S
Co215 O221 2.052 . S
Co215 O223 2.135 . S
O216 Co215 2.061 . S
O216 C219 1.235 . S
C217 O220 1.238 . S
C217 O221 1.241 . S
C218 O211 1.247 . S
C218 O212 1.261 . S
C219 O214 1.259 . S
C219 O216 1.235 . S
O220 Co210 2.021 . S
O220 C217 1.238 . S
O221 Co215 2.052 . S
O221 C217 1.241 . S
O222 Co210 2.137 . S
O222 C213 1.247 . S
O223 Co210 2.244 . S
O223 C213 1.272 . S
O223 Co215 2.135 . S
H224 C230 0.930 . S
H225 C234 0.930 . S
H226 C239 0.929 . S
H227 C237 0.929 . S
H228 C232 0.929 . S
H229 C238 0.929 . S
C230 H224 0.930 . S
C230 C231 1.367 . S
C230 C238 1.378 . S
C231 C230 1.367 . S
C231 C239 1.433 . S
C232 H228 0.929 . S
C232 C234 1.378 . S
C232 C236 1.350 . S
C233 C236 1.463 . S
C233 C238 1.350 . S
C233 N241 1.427 . S
C234 H225 0.930 . S
C234 C232 1.378 . S
C234 C235 1.367 . S
C235 C234 1.367 . S
C235 C237 1.433 . S
C236 C232 1.350 . S
C236 C233 1.463 . S
C236 N240 1.427 . S
C237 H227 0.929 . S
C237 C235 1.433 . S
C237 N240 1.384 . S
C238 H229 0.929 . S
C238 C230 1.378 . S
C238 C233 1.350 . S
C239 H226 0.929 . S
C239 C231 1.433 . S
C239 N241 1.384 . S
N240 C236 1.427 . S
N240 C237 1.384 . S
N241 C233 1.427 . S
N241 C239 1.384 . S
H242 C248 0.930 . S
H243 C252 0.930 . S
H244 C257 0.929 . S
H245 C255 0.929 . S
H246 C250 0.929 . S
H247 C256 0.929 . S
C248 H242 0.930 . S
C248 C249 1.367 . S
C248 C256 1.378 . S
C249 C248 1.367 . S
C249 C257 1.433 . S
C250 H246 0.929 . S
C250 C252 1.378 . S
C250 C254 1.350 . S
C251 C254 1.463 . S
C251 C256 1.350 . S
C251 N259 1.427 . S
C252 H243 0.930 . S
C252 C250 1.378 . S
C252 C253 1.367 . S
C253 C252 1.367 . S
C253 C255 1.433 . S
C254 C250 1.350 . S
C254 C251 1.463 . S
C254 N258 1.427 . S
C255 H245 0.929 . S
C255 C253 1.433 . S
C255 N258 1.384 . S
C256 H247 0.929 . S
C256 C248 1.378 . S
C256 C251 1.350 . S
C257 H244 0.929 . S
C257 C249 1.433 . S
C257 N259 1.384 . S
N258 C254 1.427 . S
N258 C255 1.384 . S
N259 C251 1.427 . S
N259 C257 1.384 . S
H260 C266 0.930 . S
H261 C270 0.930 . S
H262 C275 0.929 . S
H263 C273 0.929 . S
H264 C268 0.929 . S
H265 C274 0.929 . S
C266 H260 0.930 . S
C266 C267 1.367 . S
C266 C274 1.378 . S
C267 C266 1.367 . S
C267 C275 1.433 . S
C268 H264 0.929 . S
C268 C270 1.378 . S
C268 C272 1.350 . S
C269 C272 1.463 . S
C269 C274 1.350 . S
C269 N277 1.427 . S
C270 H261 0.930 . S
C270 C268 1.378 . S
C270 C271 1.367 . S
C271 C270 1.367 . S
C271 C273 1.433 . S
C272 C268 1.350 . S
C272 C269 1.463 . S
C272 N276 1.427 . S
C273 H263 0.929 . S
C273 C271 1.433 . S
C273 N276 1.384 . S
C274 H265 0.929 . S
C274 C266 1.378 . S
C274 C269 1.350 . S
C275 H262 0.929 . S
C275 C267 1.433 . S
C275 N277 1.384 . S
N276 C272 1.427 . S
N276 C273 1.384 . S
N277 C269 1.427 . S
N277 C275 1.384 . S
H278 C284 0.930 . S
H279 C288 0.930 . S
H280 C293 0.929 . S
H281 C291 0.929 . S
H282 C286 0.929 . S
H283 C292 0.929 . S
C284 H278 0.930 . S
C284 C285 1.367 . S
C284 C292 1.378 . S
C285 C284 1.367 . S
C285 C293 1.433 . S
C286 H282 0.929 . S
C286 C288 1.378 . S
C286 C290 1.350 . S
C287 C290 1.463 . S
C287 C292 1.350 . S
C287 N295 1.427 . S
C288 H279 0.930 . S
C288 C286 1.378 . S
C288 C289 1.367 . S
C289 C288 1.367 . S
C289 C291 1.433 . S
C290 C286 1.350 . S
C290 C287 1.463 . S
C290 N294 1.427 . S
C291 H281 0.929 . S
C291 C289 1.433 . S
C291 N294 1.384 . S
C292 H283 0.929 . S
C292 C284 1.378 . S
C292 C287 1.350 . S
C293 H280 0.929 . S
C293 C285 1.433 . S
C293 N295 1.384 . S
N294 C290 1.427 . S
N294 C291 1.384 . S
N295 C287 1.427 . S
N295 C293 1.384 . S
H296 C302 0.930 1_565 S
H297 C306 0.922 1_554 S
H298 C311 0.929 . S
H299 C309 0.929 . S
H300 C304 0.929 . S
H301 C310 0.929 1_556 S
C302 H296 0.930 1_545 S
C302 C303 1.367 . S
C302 C310 1.378 . S
C303 C302 1.367 . S
C303 C311 1.433 . S
C304 H300 0.929 . S
C304 C306 1.361 1_554 S
C304 C308 1.350 . S
C305 C308 1.463 . S
C305 C310 1.350 . S
C305 N313 1.427 . S
C306 H297 0.922 1_556 S
C306 C304 1.361 1_556 S
C306 C307 1.393 . S
C307 C306 1.393 . S
C307 C309 1.433 . S
C308 C304 1.350 . S
C308 C305 1.463 . S
C308 N312 1.427 1_554 S
C309 H299 0.929 . S
C309 C307 1.433 . S
C309 N312 1.384 . S
C310 H301 0.929 1_554 S
C310 C302 1.378 . S
C310 C305 1.350 . S
C311 H298 0.929 . S
C311 C303 1.433 . S
C311 N313 1.384 . S
N312 C308 1.427 1_556 S
N312 C309 1.384 . S
N313 C305 1.427 . S
N313 C311 1.384 . S
H314 C320 0.930 . S
H315 C324 0.930 . S
H316 C329 0.929 . S
H317 C327 0.929 1_655 S
H318 C322 0.929 . S
H319 C328 0.929 . S
C320 H314 0.930 . S
C320 C321 1.367 . S
C320 C328 1.378 . S
C321 C320 1.367 . S
C321 C329 1.433 . S
C322 H318 0.929 . S
C322 C324 1.378 . S
C322 C326 1.350 . S
C323 C326 1.463 . S
C323 C328 1.350 1_556 S
C323 N331 1.427 . S
C324 H315 0.930 . S
C324 C322 1.378 . S
C324 C325 1.367 . S
C325 C324 1.367 . S
C325 C327 1.433 . S
C326 C322 1.350 . S
C326 C323 1.463 . S
C326 N330 1.427 . S
C327 H317 0.929 1_455 S
C327 C325 1.433 . S
C327 N330 1.384 . S
C328 H319 0.929 . S
C328 C320 1.378 . S
C328 C323 1.350 1_554 S
C329 H316 0.929 . S
C329 C321 1.433 . S
C329 N331 1.384 1_554 S
N330 C326 1.427 . S
N330 C327 1.384 . S
N331 C323 1.427 . S
N331 C329 1.384 1_556 S
H332 C338 0.930 . S
H333 C342 0.930 1_545 S
H334 C347 0.929 . S
H335 C345 0.929 . S
H336 C340 0.929 . S
H337 C346 0.929 . S
C338 H332 0.930 . S
C338 C339 1.367 . S
C338 C346 1.378 1_556 S
C339 C338 1.367 . S
C339 C347 1.433 . S
C340 H336 0.929 . S
C340 C342 1.378 . S
C340 C344 1.350 . S
C341 C344 1.463 . S
C341 C346 1.350 . S
C341 N349 1.427 1_554 S
C342 H333 0.930 1_565 S
C342 C340 1.378 . S
C342 C343 1.367 . S
C343 C342 1.367 . S
C343 C345 1.433 . S
C344 C340 1.350 . S
C344 C341 1.463 . S
C344 N348 1.427 . S
C345 H335 0.929 . S
C345 C343 1.433 . S
C345 N348 1.384 . S
C346 H337 0.929 . S
C346 C338 1.378 1_554 S
C346 C341 1.350 . S
C347 H334 0.929 . S
C347 C339 1.433 . S
C347 N349 1.384 . S
N348 C344 1.427 . S
N348 C345 1.384 . S
N349 C341 1.427 1_556 S
N349 C347 1.384 . S
H350 C356 0.930 . S
H351 C360 0.930 1_455 S
H352 C365 0.929 . S
H353 C363 0.929 . S
H354 C358 0.929 . S
H355 C364 0.929 1_556 S
C356 H350 0.930 . S
C356 C357 1.367 . S
C356 C364 1.378 . S
C357 C356 1.367 . S
C357 C365 1.433 . S
C358 H354 0.929 . S
C358 C360 1.378 . S
C358 C362 1.350 . S
C359 C362 1.463 . S
C359 C364 1.350 1_556 S
C359 N367 1.427 1_556 S
C360 H351 0.930 1_655 S
C360 C358 1.378 . S
C360 C361 1.367 . S
C361 C360 1.367 . S
C361 C363 1.433 . S
C362 C358 1.350 . S
C362 C359 1.463 . S
C362 N366 1.427 . S
C363 H353 0.929 . S
C363 C361 1.433 . S
C363 N366 1.384 . S
C364 H355 0.929 1_554 S
C364 C356 1.378 . S
C364 C359 1.350 1_554 S
C365 H352 0.929 . S
C365 C357 1.433 . S
C365 N367 1.384 . S
N366 C362 1.427 . S
N366 C363 1.384 . S
N367 C359 1.427 1_554 S
N367 C365 1.384 . S
H368 C374 0.930 . S
H369 C378 0.930 . S
H370 C383 0.929 . S
H371 C381 0.929 . S
H372 C376 0.929 . S
H373 C382 0.929 . S
C374 H368 0.930 . S
C374 C375 1.367 . S
C374 C382 1.378 . S
C375 C374 1.367 . S
C375 C383 1.433 . S
C376 H372 0.929 . S
C376 C378 1.378 . S
C376 C380 1.350 . S
C377 C380 1.463 . S
C377 C382 1.350 . S
C377 N385 1.427 . S
C378 H369 0.930 . S
C378 C376 1.378 . S
C378 C379 1.367 . S
C379 C378 1.367 . S
C379 C381 1.433 . S
C380 C376 1.350 . S
C380 C377 1.463 . S
C380 N384 1.427 . S
C381 H371 0.929 . S
C381 C379 1.433 . S
C381 N384 1.384 . S
C382 H373 0.929 . S
C382 C374 1.378 . S
C382 C377 1.350 . S
C383 H370 0.929 . S
C383 C375 1.433 . S
C383 N385 1.384 . S
N384 C380 1.427 . S
N384 C381 1.384 . S
N385 C377 1.427 . S
N385 C383 1.384 . S
H386 C392 0.930 . S
H387 C396 0.930 . S
H388 C401 0.929 1_455 S
H389 C399 0.929 . S
H390 C394 0.929 . S
H391 C400 0.929 . S
C392 H386 0.930 . S
C392 C393 1.367 . S
C392 C400 1.378 . S
C393 C392 1.367 . S
C393 C401 1.433 . S
C394 H390 0.929 . S
C394 C396 1.378 . S
C394 C398 1.350 . S
C395 C398 1.463 . S
C395 C400 1.350 . S
C395 N403 1.427 . S
C396 H387 0.930 . S
C396 C394 1.378 . S
C396 C397 1.367 . S
C397 C396 1.367 . S
C397 C399 1.433 . S
C398 C394 1.350 . S
C398 C395 1.463 . S
C398 N402 1.427 . S
C399 H389 0.929 . S
C399 C397 1.433 . S
C399 N402 1.384 . S
C400 H391 0.929 . S
C400 C392 1.378 . S
C400 C395 1.350 . S
C401 H388 0.929 1_655 S
C401 C393 1.433 . S
C401 N403 1.384 . S
N402 C398 1.427 . S
N402 C399 1.384 . S
N403 C395 1.427 . S
N403 C401 1.384 . S
H404 C410 0.930 . S
H405 C414 0.930 . S
H406 C419 0.929 . S
H407 C417 0.929 . S
H408 C412 0.929 . S
H409 C418 0.929 . S
C410 H404 0.930 . S
C410 C411 1.367 . S
C410 C418 1.378 . S
C411 C410 1.367 . S
C411 C419 1.433 . S
C412 H408 0.929 . S
C412 C414 1.378 . S
C412 C416 1.350 . S
C413 C416 1.463 . S
C413 C418 1.350 . S
C413 N421 1.427 . S
C414 H405 0.930 . S
C414 C412 1.378 . S
C414 C415 1.367 . S
C415 C414 1.367 . S
C415 C417 1.433 . S
C416 C412 1.350 . S
C416 C413 1.463 . S
C416 N420 1.427 . S
C417 H407 0.929 . S
C417 C415 1.433 . S
C417 N420 1.384 . S
C418 H409 0.929 . S
C418 C410 1.378 . S
C418 C413 1.350 . S
C419 H406 0.929 . S
C419 C411 1.433 . S
C419 N421 1.384 . S
N420 C416 1.427 . S
N420 C417 1.384 . S
N421 C413 1.427 . S
N421 C419 1.384 . S
H422 C428 0.930 . S
H423 C432 0.930 . S
H424 C437 0.929 . S
H425 C435 0.929 . S
H426 C430 0.929 . S
H427 C436 0.929 . S
C428 H422 0.930 . S
C428 C429 1.367 . S
C428 C436 1.378 . S
C429 C428 1.367 . S
C429 C437 1.433 . S
C430 H426 0.929 . S
C430 C432 1.378 . S
C430 C434 1.350 . S
C431 C434 1.463 . S
C431 C436 1.350 . S
C431 N439 1.427 . S
C432 H423 0.930 . S
C432 C430 1.378 . S
C432 C433 1.367 . S
C433 C432 1.367 . S
C433 C435 1.433 . S
C434 C430 1.350 . S
C434 C431 1.463 . S
C434 N438 1.427 . S
C435 H425 0.929 . S
C435 C433 1.433 . S
C435 N438 1.384 . S
C436 H427 0.929 . S
C436 C428 1.378 . S
C436 C431 1.350 . S
C437 H424 0.929 . S
C437 C429 1.433 . S
C437 N439 1.384 . S
N438 C434 1.427 . S
N438 C435 1.384 . S
N439 C431 1.427 . S
N439 C437 1.384 . S
H440 C446 0.930 . S
H441 C450 0.930 . S
H442 C455 0.929 . S
H443 C453 0.929 . S
H444 C448 0.929 . S
H445 C454 0.929 . S
C446 H440 0.930 . S
C446 C447 1.367 . S
C446 C454 1.378 . S
C447 C446 1.367 . S
C447 C455 1.433 . S
C448 H444 0.929 . S
C448 C450 1.378 . S
C448 C452 1.350 . S
C449 C452 1.463 . S
C449 C454 1.350 . S
C449 N457 1.427 . S
C450 H441 0.930 . S
C450 C448 1.378 . S
C450 C451 1.367 . S
C451 C450 1.367 . S
C451 C453 1.433 . S
C452 C448 1.350 . S
C452 C449 1.463 . S
C452 N456 1.427 . S
C453 H443 0.929 . S
C453 C451 1.433 . S
C453 N456 1.384 . S
C454 H445 0.929 . S
C454 C446 1.378 . S
C454 C449 1.350 . S
C455 H442 0.929 . S
C455 C447 1.433 . S
C455 N457 1.384 . S
N456 C452 1.427 . S
N456 C453 1.384 . S
N457 C449 1.427 . S
N457 C455 1.384 . S
H458 C464 0.930 . S
H459 C468 0.930 . S
H460 C473 0.929 . S
H461 C471 0.929 . S
H462 C466 0.929 . S
H463 C472 0.929 . S
C464 H458 0.930 . S
C464 C465 1.367 . S
C464 C472 1.378 . S
C465 C464 1.367 . S
C465 C473 1.433 . S
C466 H462 0.929 . S
C466 C468 1.378 . S
C466 C470 1.350 . S
C467 C470 1.463 . S
C467 C472 1.350 . S
C467 N475 1.427 . S
C468 H459 0.930 . S
C468 C466 1.378 . S
C468 C469 1.367 . S
C469 C468 1.367 . S
C469 C471 1.433 . S
C470 C466 1.350 . S
C470 C467 1.463 . S
C470 N474 1.427 . S
C471 H461 0.929 . S
C471 C469 1.433 . S
C471 N474 1.384 . S
C472 H463 0.929 . S
C472 C464 1.378 . S
C472 C467 1.350 . S
C473 H460 0.929 . S
C473 C465 1.433 . S
C473 N475 1.384 . S
N474 C470 1.427 . S
N474 C471 1.384 . S
N475 C467 1.427 . S
N475 C473 1.384 . S
H476 C482 0.930 . S
H477 C486 0.930 . S
H478 C491 0.929 . S
H479 C489 0.929 . S
H480 C484 0.929 . S
H481 C490 0.929 . S
C482 H476 0.930 . S
C482 C483 1.367 . S
C482 C490 1.378 . S
C483 C482 1.367 . S
C483 C491 1.433 . S
C484 H480 0.929 . S
C484 C486 1.378 . S
C484 C488 1.350 . S
C485 C488 1.463 . S
C485 C490 1.350 . S
C485 N493 1.427 . S
C486 H477 0.930 . S
C486 C484 1.378 . S
C486 C487 1.367 . S
C487 C486 1.367 . S
C487 C489 1.433 . S
C488 C484 1.350 . S
C488 C485 1.463 . S
C488 N492 1.427 . S
C489 H479 0.929 . S
C489 C487 1.433 . S
C489 N492 1.384 . S
C490 H481 0.929 . S
C490 C482 1.378 . S
C490 C485 1.350 . S
C491 H478 0.929 . S
C491 C483 1.433 . S
C491 N493 1.384 . S
N492 C488 1.427 . S
N492 C489 1.384 . S
N493 C485 1.427 . S
N493 C491 1.384 . S
H494 C500 0.930 . S
H495 C504 0.930 . S
H496 C509 0.929 . S
H497 C507 0.929 . S
H498 C502 0.929 . S
H499 C508 0.929 . S
C500 H494 0.930 . S
C500 C501 1.367 . S
C500 C508 1.378 . S
C501 C500 1.367 . S
C501 C509 1.433 . S
C502 H498 0.929 . S
C502 C504 1.378 . S
C502 C506 1.350 . S
C503 C506 1.463 . S
C503 C508 1.350 . S
C503 N511 1.427 . S
C504 H495 0.930 . S
C504 C502 1.378 . S
C504 C505 1.367 . S
C505 C504 1.367 . S
C505 C507 1.433 . S
C506 C502 1.350 . S
C506 C503 1.463 . S
C506 N510 1.427 . S
C507 H497 0.929 . S
C507 C505 1.433 . S
C507 N510 1.384 . S
C508 H499 0.929 . S
C508 C500 1.378 . S
C508 C503 1.350 . S
C509 H496 0.929 . S
C509 C501 1.433 . S
C509 N511 1.384 . S
N510 C506 1.427 . S
N510 C507 1.384 . S
N511 C503 1.427 . S
N511 C509 1.384 . S
H512 C518 0.930 . S
H513 C522 0.930 . S
H514 C527 0.929 . S
H515 C525 0.929 . S
H516 C520 0.929 . S
H517 C526 0.929 . S
C518 H512 0.930 . S
C518 C519 1.367 . S
C518 C526 1.378 . S
C519 C518 1.367 . S
C519 C527 1.433 . S
C520 H516 0.929 . S
C520 C522 1.378 . S
C520 C524 1.350 . S
C521 C524 1.463 . S
C521 C526 1.350 . S
C521 N529 1.427 . S
C522 H513 0.930 . S
C522 C520 1.378 . S
C522 C523 1.367 . S
C523 C522 1.367 . S
C523 C525 1.433 . S
C524 C520 1.350 . S
C524 C521 1.463 . S
C524 N528 1.427 . S
C525 H515 0.929 . S
C525 C523 1.433 . S
C525 N528 1.384 . S
C526 H517 0.929 . S
C526 C518 1.378 . S
C526 C521 1.350 . S
C527 H514 0.929 . S
C527 C519 1.433 . S
C527 N529 1.384 . S
N528 C524 1.427 . S
N528 C525 1.384 . S
N529 C521 1.427 . S
N529 C527 1.384 . S
H530 C536 0.930 . S
H531 C540 0.930 . S
H532 C545 0.929 . S
H533 C543 0.929 . S
H534 C538 0.929 . S
H535 C544 0.929 . S
C536 H530 0.930 . S
C536 C537 1.367 . S
C536 C544 1.378 . S
C537 C536 1.367 . S
C537 C545 1.433 . S
C538 H534 0.929 . S
C538 C540 1.378 . S
C538 C542 1.350 . S
C539 C542 1.463 . S
C539 C544 1.350 . S
C539 N547 1.427 . S
C540 H531 0.930 . S
C540 C538 1.378 . S
C540 C541 1.367 . S
C541 C540 1.367 . S
C541 C543 1.433 . S
C542 C538 1.350 . S
C542 C539 1.463 . S
C542 N546 1.427 . S
C543 H533 0.929 . S
C543 C541 1.433 . S
C543 N546 1.384 . S
C544 H535 0.929 . S
C544 C536 1.378 . S
C544 C539 1.350 . S
C545 H532 0.929 . S
C545 C537 1.433 . S
C545 N547 1.384 . S
N546 C542 1.427 . S
N546 C543 1.384 . S
N547 C539 1.427 . S
N547 C545 1.384 . S
H548 C554 0.930 . S
H549 C558 0.930 . S
H550 C563 0.929 . S
H551 C561 0.929 . S
H552 C556 0.929 . S
H553 C562 0.929 . S
C554 H548 0.930 . S
C554 C555 1.367 . S
C554 C562 1.378 . S
C555 C554 1.367 . S
C555 C563 1.433 . S
C556 H552 0.929 . S
C556 C558 1.378 . S
C556 C560 1.350 . S
C557 C560 1.463 . S
C557 C562 1.350 . S
C557 N565 1.427 . S
C558 H549 0.930 . S
C558 C556 1.378 . S
C558 C559 1.367 . S
C559 C558 1.367 . S
C559 C561 1.433 . S
C560 C556 1.350 . S
C560 C557 1.463 . S
C560 N564 1.427 . S
C561 H551 0.929 . S
C561 C559 1.433 . S
C561 N564 1.384 . S
C562 H553 0.929 . S
C562 C554 1.378 . S
C562 C557 1.350 . S
C563 H550 0.929 . S
C563 C555 1.433 . S
C563 N565 1.384 . S
N564 C560 1.427 . S
N564 C561 1.384 . S
N565 C557 1.427 . S
N565 C563 1.384 . S
H566 C572 0.930 . S
H567 C576 0.930 . S
H568 C581 0.929 . S
H569 C579 0.929 . S
H570 C574 0.929 . S
H571 C580 0.929 . S
C572 H566 0.930 . S
C572 C573 1.367 . S
C572 C580 1.378 . S
C573 C572 1.367 . S
C573 C581 1.433 . S
C574 H570 0.929 . S
C574 C576 1.378 . S
C574 C578 1.350 . S
C575 C578 1.463 . S
C575 C580 1.350 . S
C575 N583 1.427 . S
C576 H567 0.930 . S
C576 C574 1.378 . S
C576 C577 1.367 . S
C577 C576 1.367 . S
C577 C579 1.433 . S
C578 C574 1.350 . S
C578 C575 1.463 . S
C578 N582 1.427 . S
C579 H569 0.929 . S
C579 C577 1.433 . S
C579 N582 1.384 . S
C580 H571 0.929 . S
C580 C572 1.378 . S
C580 C575 1.350 . S
C581 H568 0.929 . S
C581 C573 1.433 . S
C581 N583 1.384 . S
N582 C578 1.427 . S
N582 C579 1.384 . S
N583 C575 1.427 . S
N583 C581 1.384 . S
H584 C590 0.930 . S
H585 C594 0.930 . S
H586 C599 0.929 . S
H587 C597 0.929 . S
H588 C592 0.929 . S
H589 C598 0.929 . S
C590 H584 0.930 . S
C590 C591 1.367 . S
C590 C598 1.378 . S
C591 C590 1.367 . S
C591 C599 1.433 . S
C592 H588 0.929 . S
C592 C594 1.378 . S
C592 C596 1.350 . S
C593 C596 1.463 . S
C593 C598 1.350 . S
C593 N601 1.427 . S
C594 H585 0.930 . S
C594 C592 1.378 . S
C594 C595 1.367 . S
C595 C594 1.367 . S
C595 C597 1.433 . S
C596 C592 1.350 . S
C596 C593 1.463 . S
C596 N600 1.427 . S
C597 H587 0.929 . S
C597 C595 1.433 . S
C597 N600 1.384 . S
C598 H589 0.929 . S
C598 C590 1.378 . S
C598 C593 1.350 . S
C599 H586 0.929 . S
C599 C591 1.433 . S
C599 N601 1.384 . S
N600 C596 1.427 . S
N600 C597 1.384 . S
N601 C593 1.427 . S
N601 C599 1.384 . S
H602 C608 0.930 . S
H603 C612 0.930 . S
H604 C617 0.929 . S
H605 C615 0.929 . S
H606 C610 0.929 . S
H607 C616 0.929 . S
C608 H602 0.930 . S
C608 C609 1.367 . S
C608 C616 1.378 . S
C609 C608 1.367 . S
C609 C617 1.433 . S
C610 H606 0.929 . S
C610 C612 1.378 . S
C610 C614 1.350 . S
C611 C614 1.463 . S
C611 C616 1.350 . S
C611 N619 1.427 . S
C612 H603 0.930 . S
C612 C610 1.378 . S
C612 C613 1.367 . S
C613 C612 1.367 . S
C613 C615 1.433 . S
C614 C610 1.350 . S
C614 C611 1.463 . S
C614 N618 1.427 . S
C615 H605 0.929 . S
C615 C613 1.433 . S
C615 N618 1.384 . S
C616 H607 0.929 . S
C616 C608 1.378 . S
C616 C611 1.350 . S
C617 H604 0.929 . S
C617 C609 1.433 . S
C617 N619 1.384 . S
N618 C614 1.427 . S
N618 C615 1.384 . S
N619 C611 1.427 . S
N619 C617 1.384 . S
H620 C626 0.930 . S
H621 C630 0.930 . S
H622 C635 0.929 . S
H623 C633 0.929 . S
H624 C628 0.929 . S
H625 C634 0.929 . S
C626 H620 0.930 . S
C626 C627 1.367 . S
C626 C634 1.378 . S
C627 C626 1.367 . S
C627 C635 1.433 . S
C628 H624 0.929 . S
C628 C630 1.378 . S
C628 C632 1.350 . S
C629 C632 1.463 . S
C629 C634 1.350 . S
C629 N637 1.427 . S
C630 H621 0.930 . S
C630 C628 1.378 . S
C630 C631 1.367 . S
C631 C630 1.367 . S
C631 C633 1.433 . S
C632 C628 1.350 . S
C632 C629 1.463 . S
C632 N636 1.427 . S
C633 H623 0.929 . S
C633 C631 1.433 . S
C633 N636 1.384 . S
C634 H625 0.929 . S
C634 C626 1.378 . S
C634 C629 1.350 . S
C635 H622 0.929 . S
C635 C627 1.433 . S
C635 N637 1.384 . S
N636 C632 1.427 . S
N636 C633 1.384 . S
N637 C629 1.427 . S
N637 C635 1.384 . S
H638 C644 0.930 . S
H639 C648 0.930 . S
H640 C653 0.929 . S
H641 C651 0.929 . S
H642 C646 0.929 . S
H643 C652 0.929 . S
C644 H638 0.930 . S
C644 C645 1.367 . S
C644 C652 1.378 . S
C645 C644 1.367 . S
C645 C653 1.433 . S
C646 H642 0.929 . S
C646 C648 1.378 . S
C646 C650 1.350 . S
C647 C650 1.463 . S
C647 C652 1.350 . S
C647 N655 1.427 . S
C648 H639 0.930 . S
C648 C646 1.378 . S
C648 C649 1.367 . S
C649 C648 1.367 . S
C649 C651 1.433 . S
C650 C646 1.350 . S
C650 C647 1.463 . S
C650 N654 1.427 . S
C651 H641 0.929 . S
C651 C649 1.433 . S
C651 N654 1.384 . S
C652 H643 0.929 . S
C652 C644 1.378 . S
C652 C647 1.350 . S
C653 H640 0.929 . S
C653 C645 1.433 . S
C653 N655 1.384 . S
N654 C650 1.427 . S
N654 C651 1.384 . S
N655 C647 1.427 . S
N655 C653 1.384 . S
H656 C662 0.930 . S
H657 C666 0.930 . S
H658 C671 0.929 . S
H659 C669 0.929 . S
H660 C664 0.929 1_565 S
H661 C670 0.929 1_545 S
C662 H656 0.930 . S
C662 C663 1.367 . S
C662 C670 1.378 . S
C663 C662 1.367 . S
C663 C671 1.433 . S
C664 H660 0.929 1_545 S
C664 C666 1.378 . S
C664 C668 1.350 . S
C665 C668 1.463 1_665 S
C665 C670 1.350 . S
C665 N673 1.429 . S
C666 H657 0.930 . S
C666 C664 1.378 . S
C666 C667 1.367 . S
C667 C666 1.367 . S
C667 C669 1.433 . S
C668 C664 1.350 . S
C668 C665 1.463 1_445 S
C668 N672 1.429 . S
C669 H659 0.929 . S
C669 C667 1.433 . S
C669 N672 1.387 . S
C670 H661 0.929 1_565 S
C670 C662 1.378 . S
C670 C665 1.350 . S
C671 H658 0.929 . S
C671 C663 1.433 . S
C671 N673 1.387 . S
N672 C668 1.429 . S
N672 C669 1.387 . S
N673 C665 1.429 . S
N673 C671 1.387 . S
H674 C680 0.930 . S
H675 C684 0.930 . S
H676 C689 0.929 . S
H677 C687 0.929 . S
H678 C682 0.945 . S
H679 C688 0.945 . S
C680 H674 0.930 . S
C680 C681 1.367 . S
C680 C688 1.367 1_545 S
C681 C680 1.367 . S
C681 C689 1.433 . S
C682 H678 0.945 . S
C682 C684 1.367 1_545 S
C682 C686 1.344 1_545 S
C683 C686 1.463 1_645 S
C683 C688 1.344 1_545 S
C683 N691 1.427 . S
C684 H675 0.930 . S
C684 C682 1.367 1_565 S
C684 C685 1.367 . S
C685 C684 1.367 . S
C685 C687 1.433 . S
C686 C682 1.344 1_565 S
C686 C683 1.463 1_465 S
C686 N690 1.427 . S
C687 H677 0.929 . S
C687 C685 1.433 . S
C687 N690 1.384 . S
C688 H679 0.945 . S
C688 C680 1.367 1_565 S
C688 C683 1.344 1_565 S
C689 H676 0.929 . S
C689 C681 1.433 . S
C689 N691 1.384 . S
N690 C686 1.427 . S
N690 C687 1.384 . S
N691 C683 1.427 . S
N691 C689 1.384 . S
H692 C698 0.930 . S
H693 C702 0.930 . S
H694 C707 0.929 . S
H695 C705 0.929 . S
H696 C700 0.929 . S
H697 C706 0.929 . S
C698 H692 0.930 . S
C698 C699 1.367 . S
C698 C706 1.378 . S
C699 C698 1.367 . S
C699 C707 1.433 . S
C700 H696 0.929 . S
C700 C702 1.378 . S
C700 C704 1.350 . S
C701 C704 1.463 1_455 S
C701 C706 1.350 . S
C701 N709 1.427 . S
C702 H693 0.930 . S
C702 C700 1.378 . S
C702 C703 1.367 . S
C703 C702 1.367 . S
C703 C705 1.433 . S
C704 C700 1.350 . S
C704 C701 1.463 1_655 S
C704 N708 1.427 . S
C705 H695 0.929 . S
C705 C703 1.433 . S
C705 N708 1.384 . S
C706 H697 0.929 . S
C706 C698 1.378 . S
C706 C701 1.350 . S
C707 H694 0.929 . S
C707 C699 1.433 . S
C707 N709 1.384 . S
N708 C704 1.427 . S
N708 C705 1.384 . S
N709 C701 1.427 . S
N709 C707 1.384 . S
H710 C716 0.930 . S
H711 C720 0.930 . S
H712 C725 0.929 . S
H713 C723 0.929 . S
H714 C718 0.929 1_565 S
H715 C724 0.929 1_545 S
C716 H710 0.930 . S
C716 C717 1.367 . S
C716 C724 1.378 . S
C717 C716 1.367 . S
C717 C725 1.433 . S
C718 H714 0.929 1_545 S
C718 C720 1.378 . S
C718 C722 1.350 . S
C719 C722 1.463 1_565 S
C719 C724 1.350 . S
C719 N727 1.427 . S
C720 H711 0.930 . S
C720 C718 1.378 . S
C720 C721 1.367 . S
C721 C720 1.367 . S
C721 C723 1.433 . S
C722 C718 1.350 . S
C722 C719 1.463 1_545 S
C722 N726 1.427 . S
C723 H713 0.929 . S
C723 C721 1.433 . S
C723 N726 1.384 . S
C724 H715 0.929 1_565 S
C724 C716 1.378 . S
C724 C719 1.350 . S
C725 H712 0.929 . S
C725 C717 1.433 . S
C725 N727 1.384 . S
N726 C722 1.427 . S
N726 C723 1.384 . S
N727 C719 1.427 . S
N727 C725 1.384 . S
H728 C734 0.930 . S
H729 C738 0.930 . S
H730 C743 0.929 . S
H731 C741 0.929 . S
H732 C736 0.929 . S
H733 C742 0.929 . S
C734 H728 0.930 . S
C734 C735 1.367 . S
C734 C742 1.378 . S
C735 C734 1.367 . S
C735 C743 1.433 . S
C736 H732 0.929 . S
C736 C738 1.378 . S
C736 C740 1.350 . S
C737 C740 1.463 . S
C737 C742 1.350 . S
C737 N745 1.427 . S
C738 H729 0.930 . S
C738 C736 1.378 . S
C738 C739 1.367 . S
C739 C738 1.367 . S
C739 C741 1.433 . S
C740 C736 1.350 . S
C740 C737 1.463 . S
C740 N744 1.427 . S
C741 H731 0.929 . S
C741 C739 1.433 . S
C741 N744 1.384 . S
C742 H733 0.929 . S
C742 C734 1.378 . S
C742 C737 1.350 . S
C743 H730 0.929 . S
C743 C735 1.433 . S
C743 N745 1.384 . S
N744 C740 1.427 . S
N744 C741 1.384 . S
N745 C737 1.427 . S
N745 C743 1.384 . S
H746 C752 0.930 . S
H747 C756 0.930 . S
H748 C761 0.929 . S
H749 C759 0.929 . S
H750 C754 0.929 . S
H751 C760 0.929 . S
C752 H746 0.930 . S
C752 C753 1.367 . S
C752 C760 1.378 . S
C753 C752 1.367 . S
C753 C761 1.433 . S
C754 H750 0.929 . S
C754 C756 1.378 . S
C754 C758 1.350 . S
C755 C758 1.463 . S
C755 C760 1.350 . S
C755 N763 1.427 . S
C756 H747 0.930 . S
C756 C754 1.378 . S
C756 C757 1.367 . S
C757 C756 1.367 . S
C757 C759 1.433 . S
C758 C754 1.350 . S
C758 C755 1.463 . S
C758 N762 1.427 . S
C759 H749 0.929 . S
C759 C757 1.433 . S
C759 N762 1.384 . S
C760 H751 0.929 . S
C760 C752 1.378 . S
C760 C755 1.350 . S
C761 H748 0.929 . S
C761 C753 1.433 . S
C761 N763 1.384 . S
N762 C758 1.427 . S
N762 C759 1.384 . S
N763 C755 1.427 . S
N763 C761 1.384 . S
H764 C770 0.930 . S
H765 C774 0.930 . S
H766 C779 0.929 . S
H767 C777 0.929 . S
H768 C772 0.929 1_545 S
H769 C778 0.929 1_565 S
C770 H764 0.930 . S
C770 C771 1.367 . S
C770 C778 1.378 . S
C771 C770 1.367 . S
C771 C779 1.433 . S
C772 H768 0.929 1_565 S
C772 C774 1.378 . S
C772 C776 1.350 . S
C773 C776 1.463 1_545 S
C773 C778 1.350 . S
C773 N781 1.427 . S
C774 H765 0.930 . S
C774 C772 1.378 . S
C774 C775 1.367 . S
C775 C774 1.367 . S
C775 C777 1.433 . S
C776 C772 1.350 . S
C776 C773 1.463 1_565 S
C776 N780 1.427 . S
C777 H767 0.929 . S
C777 C775 1.433 . S
C777 N780 1.384 . S
C778 H769 0.929 1_545 S
C778 C770 1.378 . S
C778 C773 1.350 . S
C779 H766 0.929 . S
C779 C771 1.433 . S
C779 N781 1.384 . S
N780 C776 1.427 . S
N780 C777 1.384 . S
N781 C773 1.427 . S
N781 C779 1.384 . S
H782 C788 0.930 . S
H783 C792 0.930 . S
H784 C797 0.929 . S
H785 C795 0.929 . S
H786 C790 0.929 . S
H787 C796 0.929 . S
C788 H782 0.930 . S
C788 C789 1.367 . S
C788 C796 1.378 . S
C789 C788 1.367 . S
C789 C797 1.433 . S
C790 H786 0.929 . S
C790 C792 1.378 . S
C790 C794 1.350 . S
C791 C794 1.463 1_655 S
C791 C796 1.350 . S
C791 N799 1.427 . S
C792 H783 0.930 . S
C792 C790 1.378 . S
C792 C793 1.367 . S
C793 C792 1.367 . S
C793 C795 1.433 . S
C794 C790 1.350 . S
C794 C791 1.463 1_455 S
C794 N798 1.427 . S
C795 H785 0.929 . S
C795 C793 1.433 . S
C795 N798 1.384 . S
C796 H787 0.929 . S
C796 C788 1.378 . S
C796 C791 1.350 . S
C797 H784 0.929 . S
C797 C789 1.433 . S
C797 N799 1.384 . S
N798 C794 1.427 . S
N798 C795 1.384 . S
N799 C791 1.427 . S
N799 C797 1.384 . S
C231 C3 1.176 . S
C235 C163 1.169 . S
C249 C121 1.170 . S
C253 C17 1.179 . S
C267 C135 1.175 . S
C271 C31 1.178 . S
C285 C149 1.173 . S
C289 C45 1.179 . S
C303 C79 1.173 1_545 S
C307 C59 1.179 . S
C321 C73 1.164 . S
C325 C93 1.178 1_455 S
C339 C87 1.179 . S
C343 C107 1.175 1_565 S
C357 C101 1.177 . S
C361 C65 1.177 1_655 S
C375 C115 1.174 . S
C379 C51 1.169 1_565 S
C393 C9 1.176 1_655 S
C397 C129 1.164 . S
C411 C23 1.184 1_545 S
C415 C143 1.168 . S
C429 C37 1.178 1_455 S
C433 C157 1.177 . S
C447 C191 1.170 . S
C451 C171 1.179 . S
C465 C185 1.170 . S
C469 C205 1.171 . S
C483 C219 1.183 . S
C487 C199 1.164 . S
C501 C177 1.178 . S
C505 C213 1.176 . S
C519 C204 1.588 . S
C523 C8 1.590 . S
C537 C218 1.588 . S
C541 C22 1.590 . S
C555 C176 1.585 . S
C559 C36 1.585 . S
C573 C50 1.586 . S
C577 C190 1.584 . S
C591 C64 1.587 . S
C595 C148 1.585 . S
C609 C162 1.585 . S
C613 C78 1.585 . S
C627 C92 1.589 . S
C631 C120 1.586 . S
C645 C106 1.588 . S
C649 C134 1.590 . S
C663 C35 1.215 . S
C667 C7 1.220 . S
C681 C49 1.207 . S
C685 C21 1.202 . S
C699 C63 1.213 . S
C703 C91 1.205 . S
C717 C77 1.204 . S
C721 C105 1.212 . S
C735 C147 1.217 . S
C739 C119 1.209 . S
C753 C133 1.217 . S
C757 C161 1.209 . S
C771 C203 1.214 . S
C775 C175 1.220 . S
C789 C189 1.203 . S
C793 C217 1.209 . S
