# Generated by pormake.
# Topology wkc, (5)-cn, num edge types: 1
# Building blocks:
#     Node 0, Type 0, BuildingBlock: BEQFEK_clean_sbu_0, # of connection points: 5
#     Node 1, Type 0, BuildingBlock: BEQFEK_clean_sbu_0, # of connection points: 5
#     Node 2, Type 0, BuildingBlock: BEQFEK_clean_sbu_0, # of connection points: 5
#     Node 3, Type 0, BuildingBlock: BEQFEK_clean_sbu_0, # of connection points: 5
#     Node 4, Type 0, BuildingBlock: BEQFEK_clean_sbu_0, # of connection points: 5
#     Node 5, Type 0, BuildingBlock: BEQFEK_clean_sbu_0, # of connection points: 5
#     Node 6, Type 0, BuildingBlock: BEQFEK_clean_sbu_0, # of connection points: 5
#     Node 7, Type 0, BuildingBlock: BEQFEK_clean_sbu_0, # of connection points: 5
#     Node 8, Type 0, BuildingBlock: BEQFEK_clean_sbu_0, # of connection points: 5
#     Node 9, Type 0, BuildingBlock: BEQFEK_clean_sbu_0, # of connection points: 5
#     Node 10, Type 0, BuildingBlock: BEQFEK_clean_sbu_0, # of connection points: 5
#     Node 11, Type 0, BuildingBlock: BEQFEK_clean_sbu_0, # of connection points: 5
#     Edge 12, Type (0, 0), BuildingBlock: XUDNAN_clean_linker_2, # of connection points: 2
#     Edge 13, Type (0, 0), BuildingBlock: XUDNAN_clean_linker_2, # of connection points: 2
#     Edge 14, Type (0, 0), BuildingBlock: XUDNAN_clean_linker_2, # of connection points: 2
#     Edge 15, Type (0, 0), BuildingBlock: XUDNAN_clean_linker_2, # of connection points: 2
#     Edge 16, Type (0, 0), BuildingBlock: XUDNAN_clean_linker_2, # of connection points: 2
#     Edge 17, Type (0, 0), BuildingBlock: XUDNAN_clean_linker_2, # of connection points: 2
#     Edge 18, Type (0, 0), BuildingBlock: XUDNAN_clean_linker_2, # of connection points: 2
#     Edge 19, Type (0, 0), BuildingBlock: XUDNAN_clean_linker_2, # of connection points: 2
#     Edge 20, Type (0, 0), BuildingBlock: XUDNAN_clean_linker_2, # of connection points: 2
#     Edge 21, Type (0, 0), BuildingBlock: XUDNAN_clean_linker_2, # of connection points: 2
#     Edge 22, Type (0, 0), BuildingBlock: XUDNAN_clean_linker_2, # of connection points: 2
#     Edge 23, Type (0, 0), BuildingBlock: XUDNAN_clean_linker_2, # of connection points: 2
#     Edge 24, Type (0, 0), BuildingBlock: XUDNAN_clean_linker_2, # of connection points: 2
#     Edge 25, Type (0, 0), BuildingBlock: XUDNAN_clean_linker_2, # of connection points: 2
#     Edge 26, Type (0, 0), BuildingBlock: XUDNAN_clean_linker_2, # of connection points: 2
#     Edge 27, Type (0, 0), BuildingBlock: XUDNAN_clean_linker_2, # of connection points: 2
#     Edge 28, Type (0, 0), BuildingBlock: XUDNAN_clean_linker_2, # of connection points: 2
#     Edge 29, Type (0, 0), BuildingBlock: XUDNAN_clean_linker_2, # of connection points: 2
#     Edge 30, Type (0, 0), BuildingBlock: XUDNAN_clean_linker_2, # of connection points: 2
#     Edge 31, Type (0, 0), BuildingBlock: XUDNAN_clean_linker_2, # of connection points: 2
#     Edge 32, Type (0, 0), BuildingBlock: XUDNAN_clean_linker_2, # of connection points: 2
#     Edge 33, Type (0, 0), BuildingBlock: XUDNAN_clean_linker_2, # of connection points: 2
#     Edge 34, Type (0, 0), BuildingBlock: XUDNAN_clean_linker_2, # of connection points: 2
#     Edge 35, Type (0, 0), BuildingBlock: XUDNAN_clean_linker_2, # of connection points: 2
#     Edge 36, Type (0, 0), BuildingBlock: XUDNAN_clean_linker_2, # of connection points: 2
#     Edge 37, Type (0, 0), BuildingBlock: XUDNAN_clean_linker_2, # of connection points: 2
#     Edge 38, Type (0, 0), BuildingBlock: XUDNAN_clean_linker_2, # of connection points: 2
#     Edge 39, Type (0, 0), BuildingBlock: XUDNAN_clean_linker_2, # of connection points: 2
#     Edge 40, Type (0, 0), BuildingBlock: XUDNAN_clean_linker_2, # of connection points: 2
#     Edge 41, Type (0, 0), BuildingBlock: XUDNAN_clean_linker_2, # of connection points: 2
# Relax obj value: 0.260
# Max RMSD: 0.185
# Mean RMSD: 0.185
data_MOF--net-wkc--node1-BEQFEK_clean_sbu_0--edge1-XUDNAN_clean_linker_2
_symmetry_space_group_name_H-M    P1
_symmetry_Int_Tables_number       1
_symmetry_cell_setting            triclinic
loop_
_symmetry_equiv_pos_as_xyz
'x, y, z'
_cell_length_a     40.718373
_cell_length_b     40.675594
_cell_length_c     43.485529
_cell_angle_alpha  90.014105
_cell_angle_beta   90.051441
_cell_angle_gamma 120.00007
loop_
_atom_site_label
_atom_site_type_symbol
_atom_site_fract_x
_atom_site_fract_y
_atom_site_fract_z
_atom_type_partial_charge
Co0 Co 0.25857 0.35514 0.00562 0.0
Co1 Co 0.25064 0.42006 0.03686 0.0
C2 C 0.18331 0.34351 0.02521 0.0
O3 O 0.20195 0.33025 0.01168 0.0
O4 O 0.1995 0.37741 0.03498 0.0
C5 C 0.24875 0.30533 0.95555 0.0
O6 O 0.21918 0.30902 0.94934 0.0
C7 C 0.22607 0.47614 0.04304 0.0
C8 C 0.26382 0.51271 0.08013 0.0
C9 C 0.23546 0.50852 0.0601 0.0
N10 N 0.24844 0.46246 0.0522 0.0
N11 N 0.27058 0.48413 0.07463 0.0
C12 C 0.19606 0.45793 0.01882 0.0
H13 H 0.1845 0.42688 0.01832 0.0
H14 H 0.2087 0.4693 0.99595 0.0
H15 H 0.17262 0.46386 0.02294 0.0
C16 C 0.30989 0.42036 0.96589 0.0
N17 N 0.28162 0.40423 0.98676 0.0
N18 N 0.27685 0.43094 0.99935 0.0
C19 C 0.30134 0.46463 0.98667 0.0
C20 C 0.32345 0.45924 0.96527 0.0
C21 C 0.32818 0.40019 0.9513 0.0
H22 H 0.33481 0.38493 0.96919 0.0
H23 H 0.30803 0.37888 0.93475 0.0
H24 H 0.35455 0.42006 0.93889 0.0
O25 O 0.28203 0.35946 0.04717 0.0
O26 O 0.2768 0.40674 0.06764 0.0
H27 H 0.31812 0.50672 0.02196 0.0
H28 H 0.32786 0.5259 0.98338 0.0
C29 C 0.3074 0.50205 0.99798 0.0
H30 H 0.28011 0.5018 0.99771 0.0
H31 H 0.29072 0.47972 0.08585 0.0
O32 O 0.26883 0.32174 0.97913 0.0
C33 C 0.28695 0.3819 0.06951 0.0
Co34 Co 0.90535 0.25103 0.18204 0.0
Co35 Co 0.83655 0.25402 0.21071 0.0
C36 C 0.82979 0.18025 0.19425 0.0
O37 O 0.86409 0.1966 0.185 0.0
O38 O 0.81508 0.19937 0.20418 0.0
C39 C 0.94027 0.23366 0.13187 0.0
O40 O 0.9052 0.21095 0.12287 0.0
C41 C 0.76092 0.24434 0.22005 0.0
C42 C 0.77424 0.2945 0.2486 0.0
C43 C 0.74467 0.26323 0.23434 0.0
N44 N 0.79839 0.26366 0.22562 0.0
N45 N 0.80612 0.29334 0.24298 0.0
C46 C 0.74214 0.21097 0.19881 0.0
H47 H 0.76276 0.21195 0.18165 0.0
H48 H 0.71785 0.21037 0.1867 0.0
H49 H 0.73148 0.18448 0.2124 0.0
C50 C 0.90318 0.30817 0.14032 0.0
N51 N 0.88878 0.28262 0.16337 0.0
N52 N 0.85868 0.2824 0.17452 0.0
C53 C 0.85219 0.30687 0.15835 0.0
C54 C 0.88043 0.32442 0.13628 0.0
C55 C 0.94002 0.31939 0.12462 0.0
H56 H 0.96047 0.31897 0.14124 0.0
H57 H 0.93508 0.29874 0.10601 0.0
H58 H 0.95254 0.34819 0.11446 0.0
O59 O 0.92517 0.27015 0.22416 0.0
O60 O 0.87461 0.26965 0.2439 0.0
H61 H 0.8234 0.32974 0.18395 0.0
H62 H 0.81365 0.32583 0.14313 0.0
C63 C 0.81867 0.31207 0.16318 0.0
H64 H 0.79295 0.28411 0.16677 0.0
H65 H 0.83333 0.31332 0.25034 0.0
O66 O 0.94635 0.25247 0.15668 0.0
C67 C 0.90813 0.27522 0.24668 0.0
Co68 Co 0.63033 0.89694 0.33734 0.0
Co69 Co 0.57228 0.84199 0.38597 0.0
C70 C 0.6362 0.83174 0.36169 0.0
O71 O 0.64887 0.86021 0.34367 0.0
O72 O 0.60728 0.82254 0.37844 0.0
C73 C 0.68221 0.9308 0.28558 0.0
O74 O 0.68728 0.90139 0.28723 0.0
C75 C 0.5117 0.76751 0.40247 0.0
C76 C 0.4849 0.77847 0.44232 0.0
C77 C 0.48169 0.75002 0.42282 0.0
N78 N 0.53167 0.80453 0.40952 0.0
N79 N 0.516 0.81092 0.43369 0.0
C80 C 0.5189 0.75055 0.37451 0.0
H81 H 0.5363 0.77298 0.35759 0.0
H82 H 0.49176 0.72937 0.36368 0.0
H83 H 0.53462 0.73595 0.38138 0.0
C84 C 0.55856 0.87517 0.30343 0.0
N85 N 0.57776 0.8724 0.32767 0.0
N86 N 0.5534 0.85085 0.34881 0.0
C87 C 0.51797 0.83983 0.33898 0.0
C88 C 0.51992 0.8545 0.30976 0.0
C89 C 0.57706 0.89688 0.27476 0.0
H90 H 0.60008 0.8914 0.2678 0.0
H91 H 0.5564 0.8889 0.25562 0.0
H92 H 0.58993 0.92771 0.27947 0.0
O93 O 0.64019 0.92789 0.37554 0.0
O94 O 0.59905 0.88889 0.4102 0.0
H95 H 0.48977 0.82898 0.38257 0.0
H96 H 0.46 0.82369 0.35019 0.0
C97 C 0.48317 0.81907 0.35845 0.0
H98 H 0.47313 0.78823 0.3577 0.0
H99 H 0.52558 0.83764 0.44345 0.0
O100 O 0.65963 0.93347 0.30423 0.0
C101 C 0.62615 0.9214 0.40257 0.0
Co102 Co 0.73556 0.64079 0.50452 0.0
Co103 Co 0.73319 0.5823 0.55305 0.0
C104 C 0.80675 0.64718 0.52851 0.0
O105 O 0.79111 0.65998 0.51038 0.0
O106 O 0.78699 0.61821 0.54523 0.0
C107 C 0.7494 0.69164 0.45175 0.0
O108 O 0.78389 0.69675 0.45064 0.0
C109 C 0.74636 0.52114 0.57392 0.0
C110 C 0.71253 0.50278 0.61666 0.0
C111 C 0.73566 0.49539 0.59802 0.0
N112 N 0.72985 0.54235 0.57804 0.0
N113 N 0.70982 0.53134 0.60369 0.0
C114 C 0.7733 0.527 0.54829 0.0
H115 H 0.78571 0.55603 0.53876 0.0
H116 H 0.75786 0.5067 0.52944 0.0
H117 H 0.79626 0.52198 0.55645 0.0
C118 C 0.68695 0.56866 0.47053 0.0
N119 N 0.70819 0.58793 0.49505 0.0
N120 N 0.70595 0.56348 0.51595 0.0
C121 C 0.68272 0.52796 0.50567 0.0
C122 C 0.67023 0.53 0.47643 0.0
C123 C 0.68345 0.58712 0.44193 0.0
H124 H 0.66564 0.60009 0.44683 0.0
H125 H 0.7119 0.61015 0.43484 0.0
H126 H 0.67053 0.56644 0.42283 0.0
O127 O 0.71509 0.65067 0.54299 0.0
O128 O 0.71285 0.60881 0.5769 0.0
H129 H 0.66627 0.49866 0.54894 0.0
H130 H 0.64214 0.46937 0.51611 0.0
C131 C 0.66963 0.49284 0.52461 0.0
H132 H 0.69095 0.48355 0.52333 0.0
H133 H 0.69423 0.5433 0.6123 0.0
O134 O 0.72632 0.66961 0.47194 0.0
C135 C 0.7076 0.63613 0.56983 0.0
Co136 Co 0.0933 0.74355 0.67547 0.0
Co137 Co 0.16192 0.75029 0.71281 0.0
C138 C 0.16513 0.81932 0.68879 0.0
O139 O 0.13142 0.8002 0.67805 0.0
O140 O 0.18114 0.80292 0.70158 0.0
C141 C 0.057 0.75599 0.62254 0.0
O142 O 0.08955 0.78728 0.61819 0.0
C143 C 0.23573 0.76236 0.73562 0.0
C144 C 0.21577 0.72079 0.77374 0.0
C145 C 0.24807 0.74783 0.7589 0.0
N146 N 0.19765 0.74435 0.73655 0.0
N147 N 0.186 0.7197 0.75945 0.0
C148 C 0.25972 0.79368 0.71371 0.0
H149 H 0.24471 0.8085 0.7059 0.0
H150 H 0.26594 0.78155 0.69318 0.0
H151 H 0.28704 0.81431 0.72463 0.0
C152 C 0.1045 0.68442 0.64332 0.0
N153 N 0.11553 0.71353 0.66336 0.0
N154 N 0.14537 0.71786 0.67853 0.0
C155 C 0.15484 0.69249 0.66834 0.0
C156 C 0.12901 0.66993 0.64596 0.0
C157 C 0.06872 0.66822 0.62486 0.0
H158 H 0.04514 0.66516 0.63964 0.0
H159 H 0.07244 0.68822 0.60604 0.0
H160 H 0.06117 0.64024 0.61481 0.0
O161 O 0.06854 0.72664 0.71679 0.0
O162 O 0.1202 0.73639 0.7415 0.0
H163 H 0.18066 0.67643 0.70366 0.0
H164 H 0.19473 0.67205 0.6651 0.0
C165 C 0.18764 0.68942 0.68043 0.0
H166 H 0.21282 0.7181 0.68236 0.0
H167 H 0.15759 0.70206 0.76534 0.0
O168 O 0.05316 0.73472 0.64529 0.0
C169 C 0.08553 0.72731 0.74159 0.0
Co170 Co 0.36258 0.10146 0.83451 0.0
Co171 Co 0.42162 0.1554 0.88398 0.0
C172 C 0.36037 0.1688 0.85791 0.0
O173 O 0.3469 0.14049 0.83964 0.0
O174 O 0.38845 0.17641 0.87526 0.0
C175 C 0.30535 0.06497 0.78642 0.0
O176 O 0.29597 0.09074 0.79294 0.0
C177 C 0.48322 0.22963 0.90083 0.0
C178 C 0.50961 0.218 0.94062 0.0
C179 C 0.5132 0.24672 0.92131 0.0
N180 N 0.46284 0.19255 0.90763 0.0
N181 N 0.47833 0.18578 0.93177 0.0
C182 C 0.47632 0.24714 0.87309 0.0
H183 H 0.45978 0.22512 0.85558 0.0
H184 H 0.50355 0.26913 0.86298 0.0
H185 H 0.45981 0.26089 0.88003 0.0
C186 C 0.4347 0.12061 0.80205 0.0
N187 N 0.41536 0.12377 0.826 0.0
N188 N 0.43962 0.14462 0.84751 0.0
C189 C 0.47496 0.15461 0.83836 0.0
C190 C 0.47321 0.14029 0.80908 0.0
C191 C 0.41652 0.09976 0.77296 0.0
H192 H 0.39359 0.10545 0.76609 0.0
H193 H 0.43749 0.10819 0.75405 0.0
H194 H 0.40356 0.0688 0.77708 0.0
O195 O 0.35017 0.07149 0.87362 0.0
O196 O 0.3925 0.10927 0.90831 0.0
H197 H 0.53226 0.16906 0.85052 0.0
H198 H 0.52012 0.20522 0.85822 0.0
C199 C 0.50936 0.17423 0.85848 0.0
H200 H 0.50195 0.16373 0.88238 0.0
H201 H 0.46842 0.15896 0.94141 0.0
O202 O 0.33252 0.06506 0.801 0.0
C203 C 0.36381 0.07769 0.90085 0.0
Co204 Co 0.64501 0.73781 0.82062 0.0
Co205 Co 0.57787 0.73986 0.78728 0.0
C206 C 0.6469 0.81128 0.80618 0.0
O207 O 0.66299 0.79382 0.81722 0.0
O208 O 0.61355 0.79313 0.79529 0.0
C209 C 0.71401 0.7445 0.85092 0.0
O210 O 0.73501 0.76567 0.82807 0.0
C211 C 0.51652 0.75557 0.78005 0.0
C212 C 0.48129 0.71518 0.74374 0.0
C213 C 0.48301 0.74244 0.76384 0.0
N214 N 0.53344 0.73637 0.77048 0.0
N215 N 0.51265 0.71266 0.74845 0.0
C216 C 0.53318 0.78651 0.80371 0.0
H217 H 0.55942 0.81059 0.79428 0.0
H218 H 0.54121 0.77634 0.82451 0.0
H219 H 0.51393 0.79732 0.8099 0.0
C220 C 0.57986 0.68141 0.85853 0.0
N221 N 0.59435 0.70786 0.83612 0.0
N222 N 0.56632 0.70949 0.82258 0.0
C223 C 0.53329 0.68471 0.8362 0.0
C224 C 0.54079 0.66602 0.85945 0.0
C225 C 0.60241 0.66858 0.87695 0.0
H226 H 0.61671 0.68913 0.89589 0.0
H227 H 0.58408 0.64006 0.88704 0.0
H228 H 0.62409 0.66751 0.86228 0.0
O229 O 0.64823 0.71957 0.77842 0.0
O230 O 0.60106 0.72344 0.75596 0.0
H231 H 0.48847 0.66876 0.80353 0.0
H232 H 0.47252 0.65996 0.84305 0.0
C233 C 0.49544 0.67962 0.82743 0.0
H234 H 0.49665 0.70737 0.82847 0.0
H235 H 0.51934 0.69407 0.73727 0.0
O236 O 0.67843 0.73159 0.85055 0.0
C237 C 0.62829 0.71658 0.75472 0.0
Co238 Co 0.90632 0.63559 0.9927 0.0
Co239 Co 0.84912 0.57455 0.94598 0.0
C240 C 0.83895 0.63833 0.96909 0.0
O241 O 0.86831 0.65215 0.9861 0.0
O242 O 0.82876 0.60874 0.95297 0.0
C243 C 0.93895 0.69093 0.04246 0.0
O244 O 0.91024 0.69658 0.03802 0.0
C245 C 0.77445 0.51419 0.92799 0.0
C246 C 0.78689 0.48281 0.89275 0.0
C247 C 0.75754 0.48259 0.90906 0.0
N248 N 0.81204 0.53227 0.92316 0.0
N249 N 0.81931 0.51377 0.90171 0.0
C250 C 0.75606 0.52447 0.95309 0.0
H251 H 0.74645 0.54358 0.9436 0.0
H252 H 0.77664 0.53966 0.97186 0.0
H253 H 0.73106 0.4988 0.9625 0.0
C254 C 0.89424 0.56584 0.02423 0.0
N255 N 0.88465 0.58333 0.00259 0.0
N256 N 0.86056 0.5578 0.98321 0.0
C257 C 0.85362 0.52318 0.99217 0.0
C258 C 0.87504 0.52705 0.01822 0.0
C259 C 0.92546 0.58663 0.04709 0.0
H260 H 0.95187 0.60657 0.03475 0.0
H261 H 0.91793 0.60369 0.06239 0.0
H262 H 0.93079 0.56707 0.0612 0.0
O263 O 0.93552 0.64583 0.95397 0.0
O264 O 0.89549 0.60283 0.92064 0.0
H265 H 0.8411 0.48792 0.95239 0.0
H266 H 0.82429 0.46179 0.98802 0.0
C267 C 0.82848 0.48713 0.97516 0.0
H268 H 0.80034 0.48446 0.97156 0.0
H269 H 0.84651 0.52145 0.89407 0.0
O270 O 0.94211 0.66689 0.02586 0.0
C271 C 0.9279 0.63112 0.92714 0.0
Co272 Co 0.25765 0.90726 0.15156 0.0
Co273 Co 0.25165 0.8404 0.11165 0.0
C274 C 0.18278 0.83705 0.13864 0.0
O275 O 0.20129 0.87008 0.15061 0.0
O276 O 0.19958 0.82274 0.12399 0.0
C277 C 0.2456 0.94637 0.20248 0.0
O278 O 0.21281 0.91503 0.20564 0.0
C279 C 0.23454 0.76384 0.0936 0.0
C280 C 0.26331 0.77572 0.04848 0.0
C281 C 0.24068 0.74663 0.06845 0.0
N282 N 0.25275 0.80147 0.0886 0.0
N283 N 0.26998 0.80837 0.06167 0.0
C284 C 0.20963 0.74476 0.12079 0.0
H285 H 0.18291 0.71937 0.11329 0.0
H286 H 0.20326 0.76448 0.13347 0.0
H287 H 0.22436 0.73528 0.13687 0.0
C288 C 0.31015 0.88896 0.18691 0.0
N289 N 0.28649 0.88346 0.16315 0.0
N290 N 0.28462 0.85624 0.14556 0.0
C291 C 0.30723 0.84397 0.15713 0.0
C292 C 0.32391 0.86389 0.18393 0.0
C293 C 0.31745 0.91609 0.21272 0.0
H294 H 0.29001 0.91043 0.22262 0.0
H295 H 0.335 0.91364 0.2311 0.0
H296 H 0.33202 0.94551 0.20361 0.0
O297 O 0.27302 0.9314 0.10957 0.0
O298 O 0.26548 0.88159 0.08291 0.0
H299 H 0.34041 0.81634 0.15063 0.0
H300 H 0.28979 0.78613 0.14698 0.0
C301 C 0.314 0.81478 0.14205 0.0
H302 H 0.31626 0.81909 0.11682 0.0
H303 H 0.28563 0.83534 0.05198 0.0
O304 O 0.26815 0.94851 0.18131 0.0
C305 C 0.27321 0.91586 0.08413 0.0
Co306 Co 0.36063 0.27121 0.31716 0.0
Co307 Co 0.41977 0.27283 0.27012 0.0
C308 C 0.3533 0.19953 0.29232 0.0
O309 O 0.34032 0.21552 0.30989 0.0
O310 O 0.38321 0.219 0.27658 0.0
C311 C 0.31072 0.25632 0.37035 0.0
O312 O 0.3086 0.22308 0.37222 0.0
C313 C 0.47793 0.25586 0.2509 0.0
C314 C 0.50577 0.29606 0.2126 0.0
C315 C 0.50724 0.26815 0.22983 0.0
N316 N 0.46001 0.27557 0.24633 0.0
N317 N 0.47636 0.29917 0.22312 0.0
C318 C 0.46927 0.22875 0.27699 0.0
H319 H 0.45325 0.23378 0.29525 0.0
H320 H 0.4958 0.23168 0.28676 0.0
H321 H 0.45161 0.19928 0.26838 0.0
C322 C 0.43155 0.31716 0.35331 0.0
N323 N 0.4129 0.29687 0.32823 0.0
N324 N 0.43775 0.29848 0.30806 0.0
C325 C 0.47295 0.32001 0.31954 0.0
C326 C 0.47022 0.33234 0.34866 0.0
C327 C 0.41247 0.32125 0.38125 0.0
H328 H 0.38996 0.29279 0.38887 0.0
H329 H 0.4328 0.33535 0.40038 0.0
H330 H 0.39874 0.33809 0.37528 0.0
O331 O 0.3538 0.29472 0.27922 0.0
O332 O 0.39546 0.29529 0.24595 0.0
H333 H 0.5333 0.35651 0.31226 0.0
H334 H 0.51449 0.30733 0.30224 0.0
C335 C 0.50867 0.33119 0.30202 0.0
H336 H 0.50536 0.33766 0.27786 0.0
H337 H 0.46817 0.31819 0.2151 0.0
O338 O 0.33091 0.27945 0.34944 0.0
C339 C 0.36927 0.30235 0.25274 0.0
Co340 Co 0.09562 0.35721 0.49375 0.0
Co341 Co 0.14932 0.42153 0.44863 0.0
C342 C 0.16407 0.35882 0.46706 0.0
O343 O 0.13527 0.34338 0.4847 0.0
O344 O 0.1723 0.38895 0.45228 0.0
C345 C 0.04407 0.28893 0.52803 0.0
O346 O 0.04341 0.26973 0.50351 0.0
C347 C 0.22169 0.48343 0.42847 0.0
C348 C 0.20565 0.51614 0.39747 0.0
C349 C 0.23656 0.51575 0.41045 0.0
N350 N 0.18376 0.46538 0.42618 0.0
N351 N 0.17426 0.48474 0.40732 0.0
C352 C 0.24265 0.47239 0.45066 0.0
H353 H 0.22402 0.45612 0.47015 0.0
H354 H 0.26824 0.49782 0.4597 0.0
H355 H 0.25175 0.45422 0.43864 0.0
C356 C 0.10863 0.42389 0.53069 0.0
N357 N 0.11595 0.40862 0.50598 0.0
N358 N 0.1393 0.436 0.48759 0.0
C359 C 0.14837 0.46978 0.50045 0.0
C360 C 0.12913 0.46324 0.52826 0.0
C361 C 0.0793 0.40101 0.55436 0.0
H362 H 0.09057 0.38718 0.56972 0.0
H363 H 0.07127 0.41869 0.56833 0.0
H364 H 0.05344 0.37856 0.54289 0.0
O365 O 0.0633 0.34743 0.4568 0.0
O366 O 0.10174 0.39306 0.42454 0.0
H367 H 0.16312 0.51158 0.46529 0.0
H368 H 0.18261 0.53125 0.5027 0.0
C369 C 0.17556 0.50746 0.48663 0.0
H370 H 0.20219 0.50799 0.48054 0.0
H371 H 0.14636 0.47719 0.40198 0.0
O372 O 0.06418 0.32488 0.52797 0.0
C373 C 0.06978 0.36401 0.43078 0.0
Co374 Co 0.73602 0.09109 0.64999 0.0
Co375 Co 0.74596 0.16375 0.61571 0.0
C376 C 0.81254 0.15853 0.63698 0.0
O377 O 0.79214 0.1246 0.64639 0.0
O378 O 0.79813 0.17718 0.62559 0.0
C379 C 0.75109 0.05208 0.69824 0.0
O380 O 0.78391 0.08371 0.69939 0.0
C381 C 0.76353 0.24266 0.61097 0.0
C382 C 0.72901 0.24032 0.57091 0.0
C383 C 0.7521 0.26417 0.59405 0.0
N384 N 0.7469 0.20749 0.59897 0.0
N385 N 0.72695 0.2065 0.57465 0.0
C386 C 0.79028 0.25512 0.63776 0.0
H387 H 0.80843 0.24205 0.63648 0.0
H388 H 0.77393 0.24555 0.65949 0.0
H389 H 0.80875 0.28644 0.63822 0.0
C390 C 0.6882 0.11017 0.69026 0.0
N391 N 0.71157 0.1172 0.66604 0.0
N392 N 0.71433 0.14631 0.65061 0.0
C393 C 0.69209 0.158 0.66392 0.0
C394 C 0.67539 0.13608 0.68978 0.0
C395 C 0.67906 0.07973 0.71355 0.0
H396 H 0.66416 0.05161 0.70207 0.0
H397 H 0.7058 0.08334 0.72341 0.0
H398 H 0.66115 0.08053 0.73241 0.0
O399 O 0.71615 0.07094 0.60763 0.0
O400 O 0.72689 0.12407 0.58418 0.0
H401 H 0.68135 0.18381 0.62504 0.0
H402 H 0.65598 0.18267 0.65913 0.0
C403 C 0.68331 0.18662 0.65038 0.0
H404 H 0.70598 0.2156 0.6566 0.0
H405 H 0.71068 0.18228 0.56136 0.0
O406 O 0.72646 0.04875 0.67849 0.0
C407 C 0.71582 0.08875 0.58351 0.0
H408 H 0.38295 0.23069 0.89468 0.0
H409 H 0.29288 0.15606 0.83236 0.0
H410 H 0.25604 0.18686 0.84745 0.0
H411 H 0.32532 0.2249 0.9541 0.0
H412 H 0.3538 0.27344 0.96664 0.0
H413 H 0.37572 0.2504 0.94714 0.0
H414 H 0.40333 0.30367 0.9061 0.0
H415 H 0.38198 0.32732 0.92574 0.0
H416 H 0.37205 0.31539 0.8856 0.0
H417 H 0.22629 0.22139 0.87406 0.0
H418 H 0.20705 0.25707 0.90871 0.0
H419 H 0.31628 0.30634 0.9545 0.0
C420 C 0.3559 0.22132 0.88352 0.0
C421 C 0.34086 0.19095 0.86225 0.0
C422 C 0.30514 0.17945 0.84853 0.0
C423 C 0.28399 0.19674 0.85701 0.0
C424 C 0.2991 0.22555 0.87907 0.0
C425 C 0.33446 0.23795 0.89187 0.0
C426 C 0.34318 0.26692 0.91696 0.0
C427 C 0.34988 0.25306 0.94803 0.0
C428 C 0.37714 0.30562 0.90806 0.0
C429 C 0.30671 0.26811 0.91705 0.0
C430 C 0.28179 0.24455 0.89477 0.0
C431 C 0.24576 0.24019 0.89135 0.0
C432 C 0.23504 0.26045 0.91119 0.0
C433 C 0.26008 0.2843 0.9344 0.0
C434 C 0.2964 0.28819 0.93711 0.0
H435 H 0.15393 0.34841 0.07891 0.0
H436 H 0.12428 0.28184 0.99509 0.0
H437 H 0.05783 0.24301 0.01405 0.0
H438 H 0.09572 0.27029 0.12988 0.0
H439 H 0.08486 0.2996 0.15405 0.0
H440 H 0.12934 0.32025 0.13377 0.0
H441 H 0.11474 0.36941 0.10864 0.0
H442 H 0.0703 0.34895 0.1288 0.0
H443 H 0.07117 0.35296 0.08749 0.0
H444 H 0.99307 0.21506 0.04226 0.0
H445 H 0.93865 0.1994 0.07666 0.0
H446 H 0.01492 0.28426 0.14174 0.0
C447 C 0.13352 0.32571 0.06437 0.0
C448 C 0.14388 0.31842 0.03531 0.0
C449 C 0.11666 0.2879 0.01737 0.0
C450 C 0.07902 0.26583 0.02799 0.0
C451 C 0.06973 0.27433 0.05678 0.0
C452 C 0.09658 0.30334 0.07475 0.0
C453 C 0.08034 0.30743 0.1047 0.0
C454 C 0.09865 0.29887 0.13222 0.0
C455 C 0.08436 0.34702 0.10755 0.0
C456 C 0.03957 0.27692 0.10064 0.0
C457 C 0.03371 0.25786 0.07303 0.0
C458 C 0.99758 0.22956 0.06406 0.0
C459 C 0.96685 0.22089 0.08374 0.0
C460 C 0.97255 0.24048 0.11199 0.0
C461 C 0.00953 0.26847 0.12049 0.0
H462 H 0.75924 0.13729 0.21911 0.0
H463 H 0.8515 0.12854 0.17758 0.0
H464 H 0.81912 0.06037 0.19091 0.0
H465 H 0.74977 0.08405 0.28231 0.0
H466 H 0.69889 0.06147 0.28515 0.0
H467 H 0.72528 0.10723 0.26725 0.0
H468 H 0.68501 0.08117 0.21769 0.0
H469 H 0.65807 0.03525 0.23556 0.0
H470 H 0.68118 0.03971 0.19921 0.0
H471 H 0.78092 0.99549 0.21521 0.0
H472 H 0.74041 0.94004 0.24792 0.0
H473 H 0.67437 0.99258 0.27407 0.0
C474 C 0.77221 0.12091 0.21192 0.0
C475 C 0.8079 0.13833 0.19716 0.0
C476 C 0.82408 0.11584 0.18873 0.0
C477 C 0.80586 0.07705 0.19618 0.0
C478 C 0.77139 0.06117 0.21185 0.0
C479 C 0.75459 0.0824 0.21934 0.0
C480 C 0.71961 0.05996 0.23891 0.0
C481 C 0.72367 0.07933 0.27025 0.0
C482 C 0.68385 0.05364 0.22181 0.0
C483 C 0.72014 0.02325 0.24234 0.0
C484 C 0.74978 0.02415 0.22616 0.0
C485 C 0.75727 0.99426 0.22756 0.0
C486 C 0.73415 0.96292 0.24626 0.0
C487 C 0.70423 0.96196 0.26358 0.0
C488 C 0.6969 0.99232 0.26104 0.0
H489 H 0.68016 0.68715 0.44889 0.0
H490 H 0.79213 0.74423 0.40756 0.0
H491 H 0.77323 0.78227 0.37546 0.0
H492 H 0.62685 0.6853 0.37984 0.0
H493 H 0.59436 0.69389 0.40182 0.0
H494 H 0.61558 0.66857 0.41891 0.0
H495 H 0.64121 0.71702 0.46382 0.0
H496 H 0.62007 0.74237 0.4469 0.0
H497 H 0.67012 0.76691 0.45538 0.0
H498 H 0.74327 0.81803 0.3511 0.0
H499 H 0.70582 0.84883 0.33799 0.0
H500 H 0.61399 0.76747 0.39558 0.0
C501 C 0.70062 0.70721 0.43277 0.0
C502 C 0.73765 0.71264 0.43074 0.0
C503 C 0.76356 0.73946 0.40948 0.0
C504 C 0.75304 0.76114 0.39109 0.0
C505 C 0.71644 0.75546 0.39406 0.0
C506 C 0.69063 0.72899 0.41433 0.0
C507 C 0.65394 0.72989 0.41481 0.0
C508 C 0.62072 0.69217 0.40314 0.0
C509 C 0.64589 0.73964 0.44714 0.0
C510 C 0.66344 0.76174 0.3923 0.0
C511 C 0.69939 0.77591 0.38022 0.0
C512 C 0.71491 0.80683 0.36015 0.0
C513 C 0.6934 0.82412 0.35279 0.0
C514 C 0.65691 0.81062 0.36569 0.0
C515 C 0.64167 0.77848 0.38514 0.0
H516 H 0.99125 0.68792 0.61943 0.0
H517 H 0.04966 0.79985 0.5779 0.0
H518 H 0.99383 0.78226 0.54467 0.0
H519 H 0.94206 0.6356 0.54958 0.0
H520 H 0.90003 0.6033 0.57065 0.0
H521 H 0.94585 0.6239 0.58893 0.0
H522 H 0.922 0.64983 0.63284 0.0
H523 H 0.87621 0.62923 0.61477 0.0
H524 H 0.9019 0.67927 0.62344 0.0
H525 H 0.92843 0.75358 0.51941 0.0
H526 H 0.86037 0.71693 0.50521 0.0
H527 H 0.84739 0.62396 0.56277 0.0
C528 C 0.99255 0.70869 0.60315 0.0
C529 C 0.02476 0.74531 0.60133 0.0
C530 C 0.02528 0.77157 0.57965 0.0
C531 C 0.99374 0.76181 0.56064 0.0
C532 C 0.96219 0.72553 0.56334 0.0
C533 C 0.96161 0.69935 0.58395 0.0
C534 C 0.92384 0.66294 0.5837 0.0
C535 C 0.92822 0.62946 0.57254 0.0
C536 C 0.90489 0.65488 0.61557 0.0
C537 C 0.90274 0.67304 0.56043 0.0
C538 C 0.92524 0.70905 0.54863 0.0
C539 C 0.91073 0.72513 0.5282 0.0
C540 C 0.87207 0.7041 0.52021 0.0
C541 C 0.84846 0.66754 0.53281 0.0
C542 C 0.86453 0.65172 0.55254 0.0
H543 H 0.23832 0.86713 0.70605 0.0
H544 H 0.13534 0.86631 0.67892 0.0
H545 H 0.16407 0.93351 0.69499 0.0
H546 H 0.25084 0.91376 0.77298 0.0
H547 H 0.30191 0.9409 0.77185 0.0
H548 H 0.27715 0.89627 0.75198 0.0
H549 H 0.30993 0.92876 0.70089 0.0
H550 H 0.3354 0.97361 0.72069 0.0
H551 H 0.30712 0.96917 0.68735 0.0
H552 H 0.20028 0.99725 0.72204 0.0
H553 H 0.24069 0.05153 0.75587 0.0
H554 H 0.3187 0.00882 0.76638 0.0
C555 C 0.22213 0.88131 0.70245 0.0
C556 C 0.18453 0.86135 0.6911 0.0
C557 C 0.16431 0.88103 0.68721 0.0
C558 C 0.18041 0.91921 0.69638 0.0
C559 C 0.21683 0.93734 0.70907 0.0
C560 C 0.2376 0.91907 0.71167 0.0
C561 C 0.27422 0.9429 0.72914 0.0
C562 C 0.2761 0.92222 0.7582 0.0
C563 C 0.30871 0.95429 0.70826 0.0
C564 C 0.2702 0.97686 0.73721 0.0
C565 C 0.23729 0.97355 0.725 0.0
C566 C 0.22641 0.00039 0.73122 0.0
C567 C 0.24952 0.0311 0.75056 0.0
C568 C 0.28293 0.03451 0.76381 0.0
C569 C 0.29352 0.00723 0.75652 0.0
H570 H 0.86045 0.69389 0.92733 0.0
H571 H 0.77358 0.6288 0.99453 0.0
H572 H 0.73574 0.65717 0.97564 0.0
H573 H 0.84783 0.78 0.92525 0.0
H574 H 0.85543 0.78478 0.88428 0.0
H575 H 0.87905 0.76611 0.90751 0.0
H576 H 0.85091 0.70607 0.87314 0.0
H577 H 0.82684 0.72418 0.85009 0.0
H578 H 0.80023 0.67825 0.86802 0.0
H579 H 0.7043 0.68572 0.94522 0.0
H580 H 0.68 0.71031 0.90495 0.0
H581 H 0.78593 0.75415 0.85507 0.0
C582 C 0.83422 0.68709 0.93887 0.0
C583 C 0.82022 0.66038 0.96298 0.0
C584 C 0.78503 0.65022 0.97668 0.0
C585 C 0.76347 0.66613 0.96604 0.0
C586 C 0.77758 0.6918 0.94159 0.0
C587 C 0.81226 0.70233 0.92823 0.0
C588 C 0.8187 0.72632 0.89974 0.0
C589 C 0.85224 0.7667 0.90449 0.0
C590 C 0.82449 0.70756 0.87107 0.0
C591 C 0.78152 0.72624 0.89831 0.0
C592 C 0.75864 0.70693 0.92306 0.0
C593 C 0.72213 0.70119 0.92593 0.0
C594 C 0.70842 0.71499 0.9027 0.0
C595 C 0.7308 0.73378 0.87659 0.0
C596 C 0.76817 0.74012 0.87479 0.0
H597 H 0.13683 0.76322 0.12277 0.0
H598 H 0.13415 0.86456 0.14968 0.0
H599 H 0.06647 0.83347 0.13467 0.0
H600 H 0.08971 0.749 0.05663 0.0
H601 H 0.06385 0.69785 0.0577 0.0
H602 H 0.10831 0.72361 0.07759 0.0
H603 H 0.07646 0.69027 0.12868 0.0
H604 H 0.03178 0.66371 0.10886 0.0
H605 H 0.03531 0.69161 0.14222 0.0
H606 H 0.00283 0.79551 0.10799 0.0
H607 H 0.94948 0.75427 0.07361 0.0
H608 H 0.99601 0.67952 0.06269 0.0
C609 C 0.12175 0.7785 0.1266 0.0
C610 C 0.14079 0.81633 0.13747 0.0
C611 C 0.12006 0.83541 0.14174 0.0
C612 C 0.08162 0.81797 0.13318 0.0
C613 C 0.06436 0.78139 0.12077 0.0
C614 C 0.08375 0.76171 0.11795 0.0
C615 C 0.06087 0.72494 0.10045 0.0
C616 C 0.08194 0.72384 0.07139 0.0
C617 C 0.05048 0.6906 0.12131 0.0
C618 C 0.02627 0.72777 0.09243 0.0
C619 C 0.0283 0.76003 0.10487 0.0
C620 C 0.00067 0.76984 0.09865 0.0
C621 C 0.97053 0.74629 0.079 0.0
C622 C 0.96861 0.7137 0.06543 0.0
C623 C 0.99658 0.70415 0.07276 0.0
H624 H 0.3765 0.1582 0.25893 0.0
H625 H 0.28273 0.14649 0.31453 0.0
H626 H 0.24615 0.07817 0.30098 0.0
H627 H 0.32247 0.10232 0.19842 0.0
H628 H 0.35202 0.08198 0.19042 0.0
H629 H 0.37229 0.1282 0.20779 0.0
H630 H 0.39723 0.10572 0.25331 0.0
H631 H 0.37732 0.0594 0.23596 0.0
H632 H 0.36468 0.06412 0.27476 0.0
H633 H 0.21798 0.01218 0.27699 0.0
H634 H 0.20109 0.95527 0.2454 0.0
H635 H 0.31375 0.01239 0.2053 0.0
C636 C 0.34854 0.1413 0.26884 0.0
C637 C 0.33252 0.15779 0.28787 0.0
C638 C 0.2957 0.13448 0.30006 0.0
C639 C 0.27473 0.09567 0.29246 0.0
C640 C 0.29113 0.08068 0.27286 0.0
C641 C 0.32736 0.10287 0.26144 0.0
C642 C 0.33787 0.08108 0.23917 0.0
C643 C 0.34666 0.09949 0.20706 0.0
C644 C 0.37125 0.07735 0.25156 0.0
C645 C 0.30152 0.04327 0.23912 0.0
C646 C 0.27498 0.0433 0.25892 0.0
C647 C 0.23872 0.01179 0.26168 0.0
C648 C 0.22938 0.97961 0.2436 0.0
C649 C 0.25607 0.97938 0.22283 0.0
C650 C 0.29268 0.01159 0.22094 0.0
H651 H 0.22538 0.38296 0.42903 0.0
H652 H 0.15305 0.29124 0.49085 0.0
H653 H 0.18623 0.25673 0.47584 0.0
H654 H 0.225 0.32641 0.36938 0.0
H655 H 0.27361 0.35734 0.35818 0.0
H656 H 0.24749 0.37673 0.37658 0.0
H657 H 0.29897 0.40683 0.41894 0.0
H658 H 0.32553 0.3878 0.40052 0.0
H659 H 0.31221 0.37729 0.44036 0.0
H660 H 0.2236 0.22965 0.45007 0.0
H661 H 0.26237 0.21312 0.41666 0.0
H662 H 0.30944 0.32294 0.37203 0.0
C663 C 0.21694 0.35601 0.44001 0.0
C664 C 0.18664 0.33994 0.46126 0.0
C665 C 0.1763 0.30429 0.47466 0.0
C666 C 0.19499 0.28445 0.46626 0.0
C667 C 0.22409 0.30076 0.44462 0.0
C668 C 0.23518 0.33591 0.43189 0.0
C669 C 0.26553 0.34631 0.40774 0.0
C670 C 0.25208 0.35201 0.37611 0.0
C671 C 0.30277 0.38165 0.41748 0.0
C672 C 0.26917 0.31109 0.40822 0.0
C673 C 0.24534 0.28524 0.42981 0.0
C674 C 0.24267 0.24989 0.43335 0.0
C675 C 0.26475 0.24072 0.41422 0.0
C676 C 0.289 0.2667 0.39172 0.0
C677 C 0.29136 0.30246 0.38906 0.0
H678 H 0.84975 0.1356 0.59951 0.0
H679 H 0.86638 0.22151 0.66617 0.0
H680 H 0.93412 0.25881 0.65181 0.0
H681 H 0.95037 0.14947 0.60154 0.0
H682 H 0.94953 0.14326 0.56044 0.0
H683 H 0.90636 0.11794 0.58237 0.0
H684 H 0.87471 0.14574 0.5474 0.0
H685 H 0.91769 0.17149 0.52572 0.0
H686 H 0.89653 0.19653 0.5434 0.0
H687 H 0.99482 0.292 0.62385 0.0
H688 H 0.04321 0.32024 0.58339 0.0
H689 H 0.98642 0.21481 0.53182 0.0
C690 C 0.86839 0.1612 0.6122 0.0
C691 C 0.85369 0.17525 0.63469 0.0
C692 C 0.8778 0.20996 0.64961 0.0
C693 C 0.91619 0.23122 0.64157 0.0
C694 C 0.92969 0.21749 0.61827 0.0
C695 C 0.90654 0.18316 0.60381 0.0
C696 C 0.92572 0.17825 0.57572 0.0
C697 C 0.93347 0.14527 0.5803 0.0
C698 C 0.90227 0.17271 0.54635 0.0
C699 C 0.9623 0.21605 0.5756 0.0
C700 C 0.96449 0.23772 0.60086 0.0
C701 C 0.99379 0.27503 0.60431 0.0
C702 C 0.02105 0.29092 0.58104 0.0
C703 C 0.01856 0.26978 0.55436 0.0
C704 C 0.98938 0.23151 0.55212 0.0
H705 H 0.6211 0.85448 0.77919 0.0
H706 H 0.72247 0.86187 0.81874 0.0
H707 H 0.76005 0.92778 0.79934 0.0
H708 H 0.66076 0.89667 0.71152 0.0
H709 H 0.63453 0.92123 0.70676 0.0
H710 H 0.61461 0.87814 0.7288 0.0
H711 H 0.60662 0.91252 0.77589 0.0
H712 H 0.62583 0.95573 0.75383 0.0
H713 H 0.64691 0.95532 0.79018 0.0
H714 H 0.78725 0.9902 0.76982 0.0
H715 H 0.80139 0.04288 0.73401 0.0
H716 H 0.68166 0.99143 0.71235 0.0
C717 C 0.65092 0.87015 0.78489 0.0
C718 C 0.66866 0.85291 0.80085 0.0
C719 C 0.70808 0.87451 0.80692 0.0
C720 C 0.72966 0.91195 0.7959 0.0
C721 C 0.71131 0.9273 0.779 0.0
C722 C 0.67269 0.90705 0.77384 0.0
C723 C 0.65998 0.92788 0.75245 0.0
C724 C 0.6414 0.90459 0.72316 0.0
C725 C 0.63326 0.9385 0.76909 0.0
C726 C 0.69766 0.96264 0.74545 0.0
C727 C 0.72692 0.96224 0.76134 0.0
C728 C 0.76447 0.99092 0.75758 0.0
C729 C 0.77222 0.02066 0.73711 0.0
C730 C 0.74262 0.02115 0.72029 0.0
C731 C 0.70491 0.99179 0.72476 0.0
H732 H 0.23643 0.69393 0.10978 0.0
H733 H 0.21719 0.70904 0.01409 0.0
H734 H 0.20249 0.64353 0.00295 0.0
H735 H 0.28455 0.64846 0.09765 0.0
H736 H 0.26563 0.6157 0.12938 0.0
H737 H 0.26669 0.66031 0.13128 0.0
H738 H 0.19425 0.62544 0.14113 0.0
H739 H 0.19295 0.5805 0.1396 0.0
H740 H 0.16261 0.58914 0.11476 0.0
H741 H 0.20191 0.58253 1.0005 0.0
H742 H 0.21494 0.53022 0.00676 0.0
H743 H 0.23075 0.55247 0.1048 0.0
C744 C 0.22714 0.68285 0.08687 0.0
C745 C 0.22692 0.70609 0.06295 0.0
C746 C 0.21709 0.69137 0.03277 0.0
C747 C 0.20843 0.65418 0.02629 0.0
C748 C 0.20957 0.63213 0.05033 0.0
C749 C 0.21835 0.64579 0.08009 0.0
C750 C 0.22241 0.61828 0.10094 0.0
C751 C 0.26217 0.6368 0.11564 0.0
C752 C 0.19118 0.60239 0.12556 0.0
C753 C 0.2167 0.58805 0.07788 0.0
C754 C 0.20858 0.59618 0.04895 0.0
C755 C 0.20671 0.57493 0.02323 0.0
C756 C 0.21381 0.54487 0.02709 0.0
C757 C 0.22238 0.53621 0.05651 0.0
C758 C 0.22325 0.55782 0.08219 0.0
H759 H 0.72095 0.31432 0.22745 0.0
H760 H 0.67952 0.1939 0.23841 0.0
H761 H 0.61343 0.18122 0.23611 0.0
H762 H 0.65132 0.31842 0.27392 0.0
H763 H 0.64779 0.3526 0.24985 0.0
H764 H 0.69146 0.35161 0.25139 0.0
H765 H 0.68981 0.34377 0.19213 0.0
H766 H 0.64605 0.34464 0.19041 0.0
H767 H 0.64861 0.3052 0.17418 0.0
H768 H 0.55193 0.18248 0.23479 0.0
H769 H 0.50004 0.19752 0.23385 0.0
H770 H 0.58255 0.31698 0.22301 0.0
C771 C 0.69793 0.28527 0.2293 0.0
C772 C 0.70513 0.255 0.23272 0.0
C773 C 0.67445 0.21737 0.2351 0.0
C774 C 0.6369 0.20995 0.23399 0.0
C775 C 0.63076 0.24052 0.23037 0.0
C776 C 0.66046 0.2774 0.22796 0.0
C777 C 0.64644 0.30531 0.22459 0.0
C778 C 0.66006 0.33364 0.25155 0.0
C779 C 0.65844 0.32593 0.19347 0.0
C780 C 0.60415 0.27844 0.22588 0.0
C781 C 0.59559 0.24119 0.22925 0.0
C782 C 0.55831 0.21153 0.23206 0.0
C783 C 0.52909 0.22032 0.2317 0.0
C784 C 0.53749 0.25838 0.22856 0.0
C785 C 0.57541 0.2876 0.22515 0.0
H786 H 0.40687 0.72787 0.42703 0.0
H787 H 0.48401 0.68456 0.4146 0.0
H788 H 0.42936 0.61958 0.40836 0.0
H789 H 0.33538 0.64832 0.46998 0.0
H790 H 0.29652 0.65028 0.45197 0.0
H791 H 0.34181 0.69292 0.45608 0.0
H792 H 0.34337 0.70446 0.39733 0.0
H793 H 0.29826 0.66163 0.39299 0.0
H794 H 0.33859 0.66799 0.3711 0.0
H795 H 0.36626 0.55954 0.40381 0.0
H796 H 0.29904 0.50845 0.40194 0.0
H797 H 0.26351 0.59161 0.4159 0.0
C798 C 0.41216 0.70459 0.42332 0.0
C799 C 0.44944 0.71097 0.42113 0.0
C800 C 0.45551 0.68009 0.41594 0.0
C801 C 0.42472 0.64319 0.41246 0.0
C802 C 0.38821 0.6379 0.41412 0.0
C803 C 0.3818 0.66774 0.41946 0.0
C804 C 0.33987 0.65458 0.4198 0.0
C805 C 0.32769 0.66195 0.45134 0.0
C806 C 0.32942 0.67328 0.39375 0.0
C807 C 0.32364 0.6126 0.41403 0.0
C808 C 0.35196 0.60352 0.41088 0.0
C809 C 0.34384 0.5663 0.40621 0.0
C810 C 0.30571 0.53754 0.40525 0.0
C811 C 0.27641 0.5463 0.40886 0.0
C812 C 0.28551 0.58433 0.41276 0.0
H813 H 0.7432 0.44989 0.55504 0.0
H814 H 0.74623 0.47052 0.65316 0.0
H815 H 0.75639 0.41641 0.66288 0.0
H816 H 0.6927 0.35187 0.55846 0.0
H817 H 0.71783 0.34411 0.5278 0.0
H818 H 0.71464 0.38664 0.52836 0.0
H819 H 0.7879 0.42773 0.52635 0.0
H820 H 0.79137 0.38526 0.52554 0.0
H821 H 0.8161 0.4207 0.55474 0.0
H822 H 0.75937 0.35659 0.66204 0.0
H823 H 0.75608 0.2958 0.65087 0.0
H824 H 0.75537 0.31636 0.55302 0.0
C825 C 0.74754 0.44413 0.57849 0.0
C826 C 0.74497 0.46509 0.60332 0.0
C827 C 0.74851 0.45502 0.6338 0.0
C828 C 0.75444 0.42448 0.63953 0.0
C829 C 0.75681 0.40438 0.61451 0.0
C830 C 0.75366 0.41389 0.58459 0.0
C831 C 0.75469 0.38618 0.5619 0.0
C832 C 0.71777 0.36602 0.54304 0.0
C833 C 0.7896 0.40617 0.54089 0.0
C834 C 0.75803 0.35909 0.5838 0.0
C835 C 0.75943 0.37023 0.61402 0.0
C836 C 0.75956 0.34819 0.63845 0.0
C837 C 0.75821 0.31384 0.63183 0.0
C838 C 0.75728 0.30209 0.601 0.0
C839 C 0.75715 0.32512 0.57678 0.0
H840 H 0.30358 0.75836 0.71817 0.0
H841 H 0.27822 0.75262 0.81549 0.0
H842 H 0.33987 0.7577 0.82765 0.0
H843 H 0.34234 0.70109 0.72016 0.0
H844 H 0.37893 0.72654 0.69203 0.0
H845 H 0.336 0.72884 0.6909 0.0
H846 H 0.37484 0.80227 0.69393 0.0
H847 H 0.4181 0.80029 0.69463 0.0
H848 H 0.40847 0.82477 0.72474 0.0
H849 H 0.39885 0.75425 0.82888 0.0
H850 H 0.45306 0.74453 0.81927 0.0
H851 H 0.44136 0.75455 0.72114 0.0
C852 C 0.31174 0.75995 0.74203 0.0
C853 C 0.28676 0.75614 0.76597 0.0
C854 C 0.29738 0.75602 0.79692 0.0
C855 C 0.3323 0.75904 0.80401 0.0
C856 C 0.35609 0.76214 0.77984 0.0
C857 C 0.34644 0.7629 0.74947 0.0
C858 C 0.37533 0.76265 0.72776 0.0
C859 C 0.35704 0.7277 0.70648 0.0
C860 C 0.39538 0.79971 0.70917 0.0
C861 C 0.40199 0.76025 0.75066 0.0
C862 C 0.39061 0.76046 0.78057 0.0
C863 C 0.40885 0.75536 0.80564 0.0
C864 C 0.43974 0.75014 0.79999 0.0
C865 C 0.45219 0.75048 0.76956 0.0
C866 C 0.43293 0.75532 0.74463 0.0
H867 H 0.73095 0.40661 0.91236 0.0
H868 H 0.69451 0.48994 0.90651 0.0
H869 H 0.62743 0.4385 0.90931 0.0
H870 H 0.65473 0.33279 0.86769 0.0
H871 H 0.65115 0.29499 0.89166 0.0
H872 H 0.69591 0.33831 0.88784 0.0
H873 H 0.69979 0.34646 0.94709 0.0
H874 H 0.65491 0.30332 0.95108 0.0
H875 H 0.66144 0.34694 0.9674 0.0
H876 H 0.56447 0.37771 0.9122 0.0
H877 H 0.51023 0.31213 0.91653 0.0
H878 H 0.58829 0.2692 0.92327 0.0
C879 C 0.70875 0.41387 0.91132 0.0
C880 C 0.71758 0.45201 0.90917 0.0
C881 C 0.68806 0.46075 0.90833 0.0
C882 C 0.65001 0.43179 0.90984 0.0
C883 C 0.64218 0.39439 0.91243 0.0
C884 C 0.67072 0.38539 0.9133 0.0
C885 C 0.65482 0.34313 0.91723 0.0
C886 C 0.66474 0.32632 0.88945 0.0
C887 C 0.66856 0.33447 0.9475 0.0
C888 C 0.61285 0.32971 0.91831 0.0
C889 C 0.60609 0.35965 0.91526 0.0
C890 C 0.56942 0.35407 0.91471 0.0
C891 C 0.53886 0.31684 0.9171 0.0
C892 C 0.54531 0.28592 0.92029 0.0
C893 C 0.58274 0.29253 0.92124 0.0
H894 H 0.37098 0.29517 0.19043 0.0
H895 H 0.33836 0.34763 0.26198 0.0
H896 H 0.31762 0.37688 0.22227 0.0
H897 H 0.40435 0.37132 0.13457 0.0
H898 H 0.38493 0.33967 0.10215 0.0
H899 H 0.39949 0.32479 0.13604 0.0
H900 H 0.3325 0.26548 0.1404 0.0
H901 H 0.31779 0.28008 0.10648 0.0
H902 H 0.29154 0.27147 0.14178 0.0
H903 H 0.30111 0.4005 0.17537 0.0
H904 H 0.28304 0.41202 0.12436 0.0
H905 H 0.32252 0.34082 0.08281 0.0
C906 C 0.35978 0.31311 0.19769 0.0
C907 C 0.35654 0.31953 0.2292 0.0
C908 C 0.34105 0.34246 0.23793 0.0
C909 C 0.32943 0.35931 0.21558 0.0
C910 C 0.33308 0.35247 0.18471 0.0
C911 C 0.34739 0.32954 0.17572 0.0
C912 C 0.34598 0.32483 0.14108 0.0
C913 C 0.38608 0.34113 0.12768 0.0
C914 C 0.32042 0.28298 0.13191 0.0
C915 C 0.32846 0.34862 0.13199 0.0
C916 C 0.32187 0.36475 0.15753 0.0
C917 C 0.30603 0.38799 0.15519 0.0
C918 C 0.29599 0.39442 0.12601 0.0
C919 C 0.30128 0.37724 0.09949 0.0
C920 C 0.31808 0.35429 0.1026 0.0
H921 H 0.07862 0.36895 0.36817 0.0
H922 H 0.99326 0.32391 0.43997 0.0
H923 H 0.94287 0.29748 0.40045 0.0
H924 H 0.02722 0.39356 0.31385 0.0
H925 H 0.04312 0.37874 0.28072 0.0
H926 H 0.07248 0.39562 0.31459 0.0
H927 H 0.07469 0.33311 0.31703 0.0
H928 H 0.0453 0.31601 0.28321 0.0
H929 H 0.03094 0.2883 0.31804 0.0
H930 H 0.90203 0.27743 0.35356 0.0
H931 H 0.8728 0.26051 0.30212 0.0
H932 H 0.98455 0.31451 0.26033 0.0
C933 C 0.04929 0.35381 0.37553 0.0
C934 C 0.03973 0.34874 0.4071 0.0
C935 C 0.00113 0.32813 0.41589 0.0
C936 C 0.97236 0.31313 0.39364 0.0
C937 C 0.98273 0.3185 0.36273 0.0
C938 C 0.02023 0.33798 0.35361 0.0
C939 C 0.02363 0.3382 0.31887 0.0
C940 C 0.04274 0.37895 0.30628 0.0
C941 C 0.04489 0.31767 0.3087 0.0
C942 C 0.98213 0.31595 0.30988 0.0
C943 C 0.95909 0.30528 0.33558 0.0
C944 C 0.91974 0.28542 0.33328 0.0
C945 C 0.90344 0.27606 0.30394 0.0
C946 C 0.92642 0.28607 0.27725 0.0
C947 C 0.96631 0.30619 0.28034 0.0
H948 H 0.62101 0.91437 0.46538 0.0
H949 H 0.66733 0.99778 0.39202 0.0
H950 H 0.694 0.04921 0.43061 0.0
H951 H 0.59643 0.968 0.51718 0.0
H952 H 0.61033 0.95278 0.55126 0.0
H953 H 0.59377 0.92241 0.51793 0.0
H954 H 0.65577 0.91928 0.51736 0.0
H955 H 0.67254 0.94964 0.55067 0.0
H956 H 0.70084 0.96273 0.51619 0.0
H957 H 0.71454 0.09123 0.47647 0.0
H958 H 0.73149 0.12206 0.52713 0.0
H959 H 0.67469 0.01159 0.57152 0.0
C960 C 0.63656 0.94348 0.45744 0.0
C961 C 0.64192 0.95215 0.42569 0.0
C962 C 0.66291 0.99052 0.41621 0.0
C963 C 0.67806 0.0199 0.43794 0.0
C964 C 0.6723 0.01037 0.46901 0.0
C965 C 0.65236 0.97314 0.47882 0.0
C966 C 0.65147 0.97073 0.51366 0.0
C967 C 0.61056 0.9524 0.52571 0.0
C968 C 0.67135 0.94933 0.52514 0.0
C969 C 0.67396 0.0125 0.52188 0.0
C970 C 0.68535 0.03475 0.4957 0.0
C971 C 0.70591 0.07414 0.49714 0.0
C972 C 0.71528 0.09135 0.52611 0.0
C973 C 0.70445 0.06925 0.55338 0.0
C974 C 0.68352 0.02923 0.55114 0.0
H975 H 0.70734 0.62664 0.6322 0.0
H976 H 0.67615 0.68124 0.56128 0.0
H977 H 0.65257 0.70741 0.60124 0.0
H978 H 0.62837 0.60183 0.68256 0.0
H979 H 0.65602 0.61175 0.71725 0.0
H980 H 0.66986 0.5967 0.6831 0.0
H981 H 0.73649 0.65677 0.68575 0.0
H982 H 0.72286 0.67205 0.71989 0.0
H983 H 0.74057 0.70298 0.68695 0.0
H984 H 0.63084 0.72583 0.64813 0.0
H985 H 0.61519 0.73889 0.69962 0.0
H986 H 0.66345 0.67525 0.74088 0.0
C987 C 0.69538 0.64397 0.62504 0.0
C988 C 0.69333 0.65175 0.5936 0.0
C989 C 0.67797 0.67492 0.58521 0.0
C990 C 0.66446 0.68984 0.60771 0.0
C991 C 0.66693 0.68161 0.63845 0.0
C992 C 0.68225 0.65949 0.6472 0.0
C993 C 0.6823 0.6557 0.68189 0.0
C994 C 0.65767 0.61402 0.69177 0.0
C995 C 0.72298 0.67291 0.69434 0.0
C996 C 0.66447 0.67911 0.69129 0.0
C997 C 0.65556 0.69345 0.66578 0.0
C998 C 0.63783 0.71494 0.66829 0.0
C999 C 0.62894 0.72204 0.69766 0.0
C1000 C 0.63814 0.70807 0.72424 0.0
C1001 C 0.65638 0.68651 0.72098 0.0
H1002 H 0.00922 0.68023 0.75492 0.0
H1003 H 0.11893 0.75495 0.79654 0.0
H1004 H 0.09022 0.73852 0.84788 0.0
H1005 H 0.95267 0.69886 0.81062 0.0
H1006 H 0.91441 0.65033 0.811 0.0
H1007 H 0.9429 0.66953 0.77694 0.0
H1008 H 0.95814 0.61486 0.77754 0.0
H1009 H 0.93 0.59571 0.81176 0.0
H1010 H 0.97886 0.60716 0.81149 0.0
H1011 H 0.05143 0.71357 0.8945 0.0
H1012 H 0.00329 0.68147 0.93473 0.0
H1013 H 0.91808 0.62092 0.8644 0.0
C1014 C 0.02694 0.69348 0.77486 0.0
C1015 C 0.06629 0.71887 0.77173 0.0
C1016 C 0.08874 0.73526 0.79837 0.0
C1017 C 0.07274 0.7262 0.82768 0.0
C1018 C 0.03418 0.70053 0.83012 0.0
C1019 C 0.0114 0.68438 0.80459 0.0
C1020 C 0.97094 0.6566 0.81416 0.0
C1021 C 0.94362 0.66962 0.80249 0.0
C1022 C 0.95879 0.61619 0.80307 0.0
C1023 C 0.97486 0.65967 0.84893 0.0
C1024 C 0.0116 0.68536 0.85749 0.0
C1025 C 0.02248 0.6934 0.88817 0.0
C1026 C 0.99491 0.67497 0.91086 0.0
C1027 C 0.95693 0.6486 0.90278 0.0
C1028 C 0.94693 0.6407 0.87133 0.0
H1029 H 0.32094 0.99214 0.07154 0.0
H1030 H 0.24059 0.88436 0.02987 0.0
H1031 H 0.25364 0.91452 0.97898 0.0
H1032 H 0.30145 0.05257 0.02034 0.0
H1033 H 0.35051 0.08939 0.01847 0.0
H1034 H 0.33267 0.0602 0.05234 0.0
H1035 H 0.38489 0.04187 0.0471 0.0
H1036 H 0.40268 0.07074 0.0131 0.0
H1037 H 0.38903 0.02123 0.01165 0.0
H1038 H 0.27657 0.95466 0.93251 0.0
H1039 H 0.30878 0.00349 0.89257 0.0
H1040 H 0.37619 0.08528 0.96323 0.0
C1041 C 0.30571 0.97522 0.05172 0.0
C1042 C 0.27972 0.936 0.0546 0.0
C1043 C 0.26075 0.91446 0.02813 0.0
C1044 C 0.26785 0.93131 0.99911 0.0
C1045 C 0.29418 0.96974 0.99683 0.0
C1046 C 0.31286 0.99156 0.02229 0.0
C1047 C 0.34127 0.03186 0.01289 0.0
C1048 C 0.33084 0.06018 0.02684 0.0
C1049 C 0.38187 0.042 0.02171 0.0
C1050 C 0.33575 0.02895 0.97828 0.0
C1051 C 0.30821 0.99292 0.9696 0.0
C1052 C 0.29815 0.98309 0.93894 0.0
C1053 C 0.31664 0.01099 0.91642 0.0
C1054 C 0.34508 0.04816 0.9247 0.0
C1055 C 0.35472 0.05708 0.9561 0.0
H1056 H 0.34728 0.47934 0.90568 0.0
H1057 H 0.38361 0.5062 1.00056 0.0
H1058 H 0.44467 0.56035 0.98361 0.0
H1059 H 0.4417 0.50547 0.8741 0.0
H1060 H 0.43418 0.52506 0.83939 0.0
H1061 H 0.39445 0.48673 0.8589 0.0
H1062 H 0.36172 0.5273 0.86192 0.0
H1063 H 0.40146 0.56585 0.8427 0.0
H1064 H 0.38639 0.57356 0.87963 0.0
H1065 H 0.49898 0.61436 0.95697 0.0
H1066 H 0.54489 0.66366 0.92176 0.0
H1067 H 0.47527 0.60081 0.84379 0.0
C1068 C 0.36848 0.49636 0.92269 0.0
C1069 C 0.361 0.48902 0.95435 0.0
C1070 C 0.38902 0.51177 0.97619 0.0
C1071 C 0.4237 0.54244 0.96679 0.0
C1072 C 0.43003 0.54966 0.93544 0.0
C1073 C 0.40345 0.52712 0.91365 0.0
C1074 C 0.41706 0.54202 0.88147 0.0
C1075 C 0.42216 0.5131 0.86234 0.0
C1076 C 0.39005 0.55282 0.8655 0.0
C1077 C 0.45493 0.57686 0.8887 0.0
C1078 C 0.46187 0.58064 0.91997 0.0
C1079 C 0.49415 0.61147 0.93239 0.0
C1080 C 0.52005 0.63925 0.91229 0.0
C1081 C 0.51349 0.63595 0.88021 0.0
C1082 C 0.48073 0.60412 0.8683 0.0
H1083 H 0.86915 0.50505 0.07859 0.0
H1084 H 0.89748 0.4834 0.9876 0.0
H1085 H 0.90497 0.43095 0.0083 0.0
H1086 H 0.9359 0.48448 0.12038 0.0
H1087 H 0.90393 0.46275 0.15225 0.0
H1088 H 0.90276 0.49986 0.13049 0.0
H1089 H 0.83107 0.45533 0.12006 0.0
H1090 H 0.83209 0.41803 0.14154 0.0
H1091 H 0.81528 0.40972 0.10239 0.0
H1092 H 0.90388 0.37754 0.03789 0.0
H1093 H 0.89748 0.32874 0.07513 0.0
H1094 H 0.87469 0.38772 0.14772 0.0
C1095 C 0.87749 0.48955 0.06323 0.0
C1096 C 0.88237 0.49782 0.03151 0.0
C1097 C 0.89311 0.477 0.01194 0.0
C1098 C 0.8976 0.44733 0.02349 0.0
C1099 C 0.89181 0.43925 0.05478 0.0
C1100 C 0.88245 0.46 0.07449 0.0
C1101 C 0.87705 0.44485 0.10703 0.0
C1102 C 0.90668 0.47477 0.12882 0.0
C1103 C 0.83646 0.43117 0.11841 0.0
C1104 C 0.88395 0.41187 0.10235 0.0
C1105 C 0.89245 0.40916 0.07205 0.0
C1106 C 0.89788 0.37973 0.06181 0.0
C1107 C 0.89434 0.35224 0.0831 0.0
C1108 C 0.88569 0.35451 0.11426 0.0
C1109 C 0.881 0.38507 0.12397 0.0
H1110 H 0.51046 0.90879 0.27947 0.0
H1111 H 0.45628 0.7878 0.29688 0.0
H1112 H 0.39951 0.77786 0.26846 0.0
H1113 H 0.42748 0.91741 0.28649 0.0
H1114 H 0.43977 0.95105 0.25556 0.0
H1115 H 0.47659 0.94912 0.27712 0.0
H1116 H 0.5042 0.93861 0.22684 0.0
H1117 H 0.4678 0.94105 0.20509 0.0
H1118 H 0.47377 0.90019 0.20152 0.0
H1119 H 0.34835 0.7809 0.23971 0.0
H1120 H 0.30708 0.79603 0.20834 0.0
H1121 H 0.3944 0.91478 0.20731 0.0
C1122 C 0.4868 0.8802 0.27687 0.0
C1123 C 0.48755 0.849 0.29044 0.0
C1124 C 0.456 0.81205 0.2869 0.0
C1125 C 0.4237 0.80615 0.27081 0.0
C1126 C 0.42349 0.8375 0.25818 0.0
C1127 C 0.45429 0.87376 0.26065 0.0
C1128 C 0.44665 0.90234 0.24445 0.0
C1129 C 0.44768 0.93171 0.26728 0.0
C1130 C 0.47477 0.92168 0.2179 0.0
C1131 C 0.40675 0.87643 0.23257 0.0
C1132 C 0.39396 0.83919 0.24098 0.0
C1133 C 0.35808 0.80991 0.23284 0.0
C1134 C 0.33488 0.81875 0.21505 0.0
C1135 C 0.34767 0.85647 0.20543 0.0
C1136 C 0.38388 0.88577 0.21465 0.0
H1137 H 0.48581 0.39979 0.37512 0.0
H1138 H 0.52633 0.31977 0.36794 0.0
H1139 H 0.58242 0.36217 0.39944 0.0
H1140 H 0.57641 0.48384 0.36938 0.0
H1141 H 0.56605 0.51073 0.39673 0.0
H1142 H 0.52827 0.47357 0.37465 0.0
H1143 H 0.49263 0.44078 0.42482 0.0
H1144 H 0.53009 0.47808 0.44705 0.0
H1145 H 0.51663 0.42926 0.45409 0.0
H1146 H 0.63426 0.41336 0.43061 0.0
H1147 H 0.67835 0.46988 0.46094 0.0
H1148 H 0.60468 0.5172 0.44795 0.0
C1149 C 0.50629 0.39109 0.38066 0.0
C1150 C 0.50193 0.35659 0.36941 0.0
C1151 C 0.52941 0.34619 0.37649 0.0
C1152 C 0.56125 0.37004 0.39429 0.0
C1153 C 0.5651 0.40418 0.40473 0.0
C1154 C 0.53836 0.41469 0.39833 0.0
C1155 C 0.54974 0.45324 0.41198 0.0
C1156 C 0.55546 0.48204 0.38667 0.0
C1157 C 0.52054 0.45014 0.43591 0.0
C1158 C 0.58706 0.46274 0.427 0.0
C1159 C 0.59532 0.434 0.42252 0.0
C1160 C 0.6281 0.43603 0.43432 0.0
C1161 C 0.65291 0.46814 0.45146 0.0
C1162 C 0.64483 0.49771 0.45657 0.0
C1163 C 0.61164 0.4951 0.44399 0.0
H1164 H 0.12169 0.52593 0.51627 0.0
H1165 H 0.1375 0.46365 0.59026 0.0
H1166 H 0.1345 0.50725 0.62816 0.0
H1167 H 0.18203 0.61885 0.54997 0.0
H1168 H 0.15337 0.63821 0.53636 0.0
H1169 H 0.15472 0.60088 0.51513 0.0
H1170 H 0.08151 0.56037 0.51842 0.0
H1171 H 0.07998 0.59738 0.54003 0.0
H1172 H 0.0588 0.55003 0.55553 0.0
H1173 H 0.12814 0.55586 0.65798 0.0
H1174 H 0.12707 0.61194 0.67817 0.0
H1175 H 0.1214 0.64731 0.58518 0.0
C1176 C 0.12496 0.5218 0.54043 0.0
C1177 C 0.1295 0.4912 0.55042 0.0
C1178 C 0.13336 0.48652 0.58221 0.0
C1179 C 0.13174 0.51115 0.60388 0.0
C1180 C 0.12681 0.54074 0.59335 0.0
C1181 C 0.12413 0.54666 0.5624 0.0
C1182 C 0.12094 0.58192 0.55735 0.0
C1183 C 0.15478 0.61173 0.5386 0.0
C1184 C 0.08305 0.5718 0.54192 0.0
C1185 C 0.1223 0.59484 0.59031 0.0
C1186 C 0.12511 0.57022 0.61064 0.0
C1187 C 0.1264 0.57559 0.6423 0.0
C1188 C 0.12588 0.60756 0.65354 0.0
C1189 C 0.12483 0.6342 0.63321 0.0
C1190 C 0.12224 0.62735 0.60119 0.0
H1191 H 0.60378 0.08359 0.71006 0.0
H1192 H 0.6919 0.20158 0.71806 0.0
H1193 H 0.64878 0.21525 0.74813 0.0
H1194 H 0.52643 0.09922 0.7013 0.0
H1195 H 0.49352 0.05961 0.72444 0.0
H1196 H 0.53155 0.05784 0.70482 0.0
H1197 H 0.55502 0.0448 0.7563 0.0
H1198 H 0.51657 0.04571 0.77599 0.0
H1199 H 0.56478 0.07658 0.7883 0.0
H1200 H 0.59559 0.21774 0.77286 0.0
H1201 H 0.537 0.20722 0.79822 0.0
H1202 H 0.48325 0.0869 0.77773 0.0
C1203 C 0.61412 0.11199 0.71889 0.0
C1204 C 0.65104 0.14164 0.71185 0.0
C1205 C 0.6636 0.17863 0.72322 0.0
C1206 C 0.63934 0.18667 0.7402 0.0
C1207 C 0.60271 0.15724 0.74591 0.0
C1208 C 0.59024 0.12048 0.73622 0.0
C1209 C 0.5493 0.09433 0.74566 0.0
C1210 C 0.5237 0.07672 0.71736 0.0
C1211 C 0.54625 0.06354 0.76789 0.0
C1212 C 0.54076 0.12232 0.76177 0.0
C1213 C 0.57199 0.15847 0.7613 0.0
C1214 C 0.57111 0.18949 0.77384 0.0
C1215 C 0.53775 0.18325 0.78813 0.0
C1216 C 0.50593 0.14627 0.79019 0.0
C1217 C 0.50719 0.11548 0.77634 0.0
loop_
_geom_bond_atom_site_label_1
_geom_bond_atom_site_label_2
_geom_bond_distance
_geom_bond_site_symmetry_2
_ccdc_geom_bond_type
Co0 O3 1.970 . S
Co0 N17 1.989 1_554 S
Co0 O25 1.967 . S
Co0 O32 1.920 1_554 S
Co1 O4 1.966 . S
Co1 N10 2.022 . S
Co1 N18 1.993 . S
Co1 O26 1.941 . S
C2 O3 1.258 . S
C2 O4 1.263 . S
O3 Co0 1.970 . S
O3 C2 1.258 . S
O4 Co1 1.966 . S
O4 C2 1.263 . S
C5 O6 1.235 . S
C5 O32 1.289 . S
O6 C5 1.235 . S
C7 C9 1.400 . S
C7 N10 1.351 . S
C7 C12 1.501 . S
C8 C9 1.387 . S
C8 N11 1.341 . S
C9 C7 1.400 . S
C9 C8 1.387 . S
N10 Co1 2.022 . S
N10 C7 1.351 . S
N10 N11 1.365 . S
N11 C8 1.341 . S
N11 N10 1.365 . S
N11 H31 0.862 . S
C12 C7 1.501 . S
C12 H13 0.961 . S
C12 H14 0.961 . S
C12 H15 0.960 . S
H13 C12 0.961 . S
H14 C12 0.961 . S
H15 C12 0.960 . S
C16 N17 1.342 . S
C16 C20 1.401 . S
C16 C21 1.499 . S
N17 Co0 1.989 1_556 S
N17 C16 1.342 . S
N17 N18 1.388 1_556 S
N18 Co1 1.993 . S
N18 N17 1.388 1_554 S
N18 C19 1.346 1_554 S
C19 N18 1.346 1_556 S
C19 C20 1.396 . S
C19 C29 1.510 . S
C20 C16 1.401 . S
C20 C19 1.396 . S
C21 C16 1.499 . S
C21 H22 0.959 . S
C21 H23 0.960 . S
C21 H24 0.961 . S
H22 C21 0.959 . S
H23 C21 0.960 . S
H24 C21 0.961 . S
O25 Co0 1.967 . S
O25 C33 1.258 . S
O26 Co1 1.941 . S
O26 C33 1.266 . S
H27 C29 0.962 . S
H28 C29 0.961 . S
C29 C19 1.510 . S
C29 H27 0.962 . S
C29 H28 0.961 . S
C29 H30 0.960 1_556 S
H30 C29 0.960 1_554 S
H31 N11 0.862 . S
O32 Co0 1.920 1_556 S
O32 C5 1.289 . S
C33 O25 1.258 . S
C33 O26 1.266 . S
Co34 O37 1.970 . S
Co34 N51 1.989 . S
Co34 O59 1.967 . S
Co34 O66 1.920 . S
Co35 O38 1.966 . S
Co35 N44 2.022 . S
Co35 N52 1.993 . S
Co35 O60 1.941 . S
C36 O37 1.258 . S
C36 O38 1.263 . S
O37 Co34 1.970 . S
O37 C36 1.258 . S
O38 Co35 1.966 . S
O38 C36 1.263 . S
C39 O40 1.235 . S
C39 O66 1.289 . S
O40 C39 1.235 . S
C41 C43 1.400 . S
C41 N44 1.351 . S
C41 C46 1.501 . S
C42 C43 1.387 . S
C42 N45 1.341 . S
C43 C41 1.400 . S
C43 C42 1.387 . S
N44 Co35 2.022 . S
N44 C41 1.351 . S
N44 N45 1.365 . S
N45 C42 1.341 . S
N45 N44 1.365 . S
N45 H65 0.862 . S
C46 C41 1.501 . S
C46 H47 0.961 . S
C46 H48 0.961 . S
C46 H49 0.960 . S
H47 C46 0.961 . S
H48 C46 0.961 . S
H49 C46 0.960 . S
C50 N51 1.342 . S
C50 C54 1.401 . S
C50 C55 1.499 . S
N51 Co34 1.989 . S
N51 C50 1.342 . S
N51 N52 1.388 . S
N52 Co35 1.993 . S
N52 N51 1.388 . S
N52 C53 1.346 . S
C53 N52 1.346 . S
C53 C54 1.396 . S
C53 C63 1.510 . S
C54 C50 1.401 . S
C54 C53 1.396 . S
C55 C50 1.499 . S
C55 H56 0.959 . S
C55 H57 0.960 . S
C55 H58 0.961 . S
H56 C55 0.959 . S
H57 C55 0.960 . S
H58 C55 0.961 . S
O59 Co34 1.967 . S
O59 C67 1.258 . S
O60 Co35 1.941 . S
O60 C67 1.266 . S
H61 C63 0.959 . S
H62 C63 0.961 . S
C63 C53 1.510 . S
C63 H61 0.959 . S
C63 H62 0.961 . S
C63 H64 0.960 . S
H64 C63 0.960 . S
H65 N45 0.862 . S
O66 Co34 1.920 . S
O66 C39 1.289 . S
C67 O59 1.258 . S
C67 O60 1.266 . S
Co68 O71 1.970 . S
Co68 N85 1.989 . S
Co68 O93 1.967 . S
Co68 O100 1.920 . S
Co69 O72 1.966 . S
Co69 N78 2.022 . S
Co69 N86 1.993 . S
Co69 O94 1.941 . S
C70 O71 1.258 . S
C70 O72 1.263 . S
O71 Co68 1.970 . S
O71 C70 1.258 . S
O72 Co69 1.966 . S
O72 C70 1.263 . S
C73 O74 1.235 . S
C73 O100 1.289 . S
O74 C73 1.235 . S
C75 C77 1.400 . S
C75 N78 1.351 . S
C75 C80 1.501 . S
C76 C77 1.387 . S
C76 N79 1.341 . S
C77 C75 1.400 . S
C77 C76 1.387 . S
N78 Co69 2.022 . S
N78 C75 1.351 . S
N78 N79 1.365 . S
N79 C76 1.341 . S
N79 N78 1.365 . S
N79 H99 0.862 . S
C80 C75 1.501 . S
C80 H81 0.961 . S
C80 H82 0.961 . S
C80 H83 0.960 . S
H81 C80 0.961 . S
H82 C80 0.961 . S
H83 C80 0.960 . S
C84 N85 1.342 . S
C84 C88 1.401 . S
C84 C89 1.499 . S
N85 Co68 1.989 . S
N85 C84 1.342 . S
N85 N86 1.388 . S
N86 Co69 1.993 . S
N86 N85 1.388 . S
N86 C87 1.346 . S
C87 N86 1.346 . S
C87 C88 1.396 . S
C87 C97 1.510 . S
C88 C84 1.401 . S
C88 C87 1.396 . S
C89 C84 1.499 . S
C89 H90 0.959 . S
C89 H91 0.960 . S
C89 H92 0.961 . S
H90 C89 0.959 . S
H91 C89 0.960 . S
H92 C89 0.961 . S
O93 Co68 1.967 . S
O93 C101 1.258 . S
O94 Co69 1.941 . S
O94 C101 1.266 . S
H95 C97 0.959 . S
H96 C97 0.961 . S
C97 C87 1.510 . S
C97 H95 0.959 . S
C97 H96 0.961 . S
C97 H98 0.960 . S
H98 C97 0.960 . S
H99 N79 0.862 . S
O100 Co68 1.920 . S
O100 C73 1.289 . S
C101 O93 1.258 . S
C101 O94 1.266 . S
Co102 O105 1.970 . S
Co102 N119 1.989 . S
Co102 O127 1.967 . S
Co102 O134 1.920 . S
Co103 O106 1.966 . S
Co103 N112 2.022 . S
Co103 N120 1.993 . S
Co103 O128 1.941 . S
C104 O105 1.258 . S
C104 O106 1.263 . S
O105 Co102 1.970 . S
O105 C104 1.258 . S
O106 Co103 1.966 . S
O106 C104 1.263 . S
C107 O108 1.235 . S
C107 O134 1.289 . S
O108 C107 1.235 . S
C109 C111 1.400 . S
C109 N112 1.351 . S
C109 C114 1.501 . S
C110 C111 1.387 . S
C110 N113 1.341 . S
C111 C109 1.400 . S
C111 C110 1.387 . S
N112 Co103 2.022 . S
N112 C109 1.351 . S
N112 N113 1.365 . S
N113 C110 1.341 . S
N113 N112 1.365 . S
N113 H133 0.862 . S
C114 C109 1.501 . S
C114 H115 0.961 . S
C114 H116 0.961 . S
C114 H117 0.960 . S
H115 C114 0.961 . S
H116 C114 0.961 . S
H117 C114 0.960 . S
C118 N119 1.342 . S
C118 C122 1.401 . S
C118 C123 1.499 . S
N119 Co102 1.989 . S
N119 C118 1.342 . S
N119 N120 1.388 . S
N120 Co103 1.993 . S
N120 N119 1.388 . S
N120 C121 1.346 . S
C121 N120 1.346 . S
C121 C122 1.396 . S
C121 C131 1.510 . S
C122 C118 1.401 . S
C122 C121 1.396 . S
C123 C118 1.499 . S
C123 H124 0.959 . S
C123 H125 0.960 . S
C123 H126 0.961 . S
H124 C123 0.959 . S
H125 C123 0.960 . S
H126 C123 0.961 . S
O127 Co102 1.967 . S
O127 C135 1.258 . S
O128 Co103 1.941 . S
O128 C135 1.266 . S
H129 C131 0.959 . S
H130 C131 0.961 . S
C131 C121 1.510 . S
C131 H129 0.959 . S
C131 H130 0.961 . S
C131 H132 0.960 . S
H132 C131 0.960 . S
H133 N113 0.862 . S
O134 Co102 1.920 . S
O134 C107 1.289 . S
C135 O127 1.258 . S
C135 O128 1.266 . S
Co136 O139 1.970 . S
Co136 N153 1.989 . S
Co136 O161 1.967 . S
Co136 O168 1.920 . S
Co137 O140 1.966 . S
Co137 N146 2.022 . S
Co137 N154 1.993 . S
Co137 O162 1.941 . S
C138 O139 1.258 . S
C138 O140 1.263 . S
O139 Co136 1.970 . S
O139 C138 1.258 . S
O140 Co137 1.966 . S
O140 C138 1.263 . S
C141 O142 1.235 . S
C141 O168 1.289 . S
O142 C141 1.235 . S
C143 C145 1.400 . S
C143 N146 1.351 . S
C143 C148 1.501 . S
C144 C145 1.387 . S
C144 N147 1.341 . S
C145 C143 1.400 . S
C145 C144 1.387 . S
N146 Co137 2.022 . S
N146 C143 1.351 . S
N146 N147 1.365 . S
N147 C144 1.341 . S
N147 N146 1.365 . S
N147 H167 0.862 . S
C148 C143 1.501 . S
C148 H149 0.961 . S
C148 H150 0.961 . S
C148 H151 0.960 . S
H149 C148 0.961 . S
H150 C148 0.961 . S
H151 C148 0.960 . S
C152 N153 1.342 . S
C152 C156 1.401 . S
C152 C157 1.499 . S
N153 Co136 1.989 . S
N153 C152 1.342 . S
N153 N154 1.388 . S
N154 Co137 1.993 . S
N154 N153 1.388 . S
N154 C155 1.346 . S
C155 N154 1.346 . S
C155 C156 1.396 . S
C155 C165 1.510 . S
C156 C152 1.401 . S
C156 C155 1.396 . S
C157 C152 1.499 . S
C157 H158 0.959 . S
C157 H159 0.960 . S
C157 H160 0.961 . S
H158 C157 0.959 . S
H159 C157 0.960 . S
H160 C157 0.961 . S
O161 Co136 1.967 . S
O161 C169 1.258 . S
O162 Co137 1.941 . S
O162 C169 1.266 . S
H163 C165 0.959 . S
H164 C165 0.961 . S
C165 C155 1.510 . S
C165 H163 0.959 . S
C165 H164 0.961 . S
C165 H166 0.960 . S
H166 C165 0.960 . S
H167 N147 0.862 . S
O168 Co136 1.920 . S
O168 C141 1.289 . S
C169 O161 1.258 . S
C169 O162 1.266 . S
Co170 O173 1.970 . S
Co170 N187 1.989 . S
Co170 O195 1.967 . S
Co170 O202 1.920 . S
Co171 O174 1.966 . S
Co171 N180 2.022 . S
Co171 N188 1.993 . S
Co171 O196 1.941 . S
C172 O173 1.258 . S
C172 O174 1.263 . S
O173 Co170 1.970 . S
O173 C172 1.258 . S
O174 Co171 1.966 . S
O174 C172 1.263 . S
C175 O176 1.235 . S
C175 O202 1.289 . S
O176 C175 1.235 . S
C177 C179 1.400 . S
C177 N180 1.351 . S
C177 C182 1.501 . S
C178 C179 1.387 . S
C178 N181 1.341 . S
C179 C177 1.400 . S
C179 C178 1.387 . S
N180 Co171 2.022 . S
N180 C177 1.351 . S
N180 N181 1.365 . S
N181 C178 1.341 . S
N181 N180 1.365 . S
N181 H201 0.862 . S
C182 C177 1.501 . S
C182 H183 0.961 . S
C182 H184 0.961 . S
C182 H185 0.960 . S
H183 C182 0.961 . S
H184 C182 0.961 . S
H185 C182 0.960 . S
C186 N187 1.342 . S
C186 C190 1.401 . S
C186 C191 1.499 . S
N187 Co170 1.989 . S
N187 C186 1.342 . S
N187 N188 1.388 . S
N188 Co171 1.993 . S
N188 N187 1.388 . S
N188 C189 1.346 . S
C189 N188 1.346 . S
C189 C190 1.396 . S
C189 C199 1.510 . S
C190 C186 1.401 . S
C190 C189 1.396 . S
C191 C186 1.499 . S
C191 H192 0.959 . S
C191 H193 0.960 . S
C191 H194 0.961 . S
H192 C191 0.959 . S
H193 C191 0.960 . S
H194 C191 0.961 . S
O195 Co170 1.967 . S
O195 C203 1.258 . S
O196 Co171 1.941 . S
O196 C203 1.266 . S
H197 C199 0.959 . S
H198 C199 0.961 . S
C199 C189 1.510 . S
C199 H197 0.959 . S
C199 H198 0.961 . S
C199 H200 0.960 . S
H200 C199 0.960 . S
H201 N181 0.862 . S
O202 Co170 1.920 . S
O202 C175 1.289 . S
C203 O195 1.258 . S
C203 O196 1.266 . S
Co204 O207 1.970 . S
Co204 N221 1.989 . S
Co204 O229 1.967 . S
Co204 O236 1.920 . S
Co205 O208 1.966 . S
Co205 N214 2.022 . S
Co205 N222 1.993 . S
Co205 O230 1.941 . S
C206 O207 1.258 . S
C206 O208 1.263 . S
O207 Co204 1.970 . S
O207 C206 1.258 . S
O208 Co205 1.966 . S
O208 C206 1.263 . S
C209 O210 1.235 . S
C209 O236 1.289 . S
O210 C209 1.235 . S
C211 C213 1.400 . S
C211 N214 1.351 . S
C211 C216 1.501 . S
C212 C213 1.387 . S
C212 N215 1.341 . S
C213 C211 1.400 . S
C213 C212 1.387 . S
N214 Co205 2.022 . S
N214 C211 1.351 . S
N214 N215 1.365 . S
N215 C212 1.341 . S
N215 N214 1.365 . S
N215 H235 0.862 . S
C216 C211 1.501 . S
C216 H217 0.961 . S
C216 H218 0.961 . S
C216 H219 0.960 . S
H217 C216 0.961 . S
H218 C216 0.961 . S
H219 C216 0.960 . S
C220 N221 1.342 . S
C220 C224 1.401 . S
C220 C225 1.499 . S
N221 Co204 1.989 . S
N221 C220 1.342 . S
N221 N222 1.388 . S
N222 Co205 1.993 . S
N222 N221 1.388 . S
N222 C223 1.346 . S
C223 N222 1.346 . S
C223 C224 1.396 . S
C223 C233 1.510 . S
C224 C220 1.401 . S
C224 C223 1.396 . S
C225 C220 1.499 . S
C225 H226 0.959 . S
C225 H227 0.960 . S
C225 H228 0.961 . S
H226 C225 0.959 . S
H227 C225 0.960 . S
H228 C225 0.961 . S
O229 Co204 1.967 . S
O229 C237 1.258 . S
O230 Co205 1.941 . S
O230 C237 1.266 . S
H231 C233 0.959 . S
H232 C233 0.961 . S
C233 C223 1.510 . S
C233 H231 0.959 . S
C233 H232 0.961 . S
C233 H234 0.960 . S
H234 C233 0.960 . S
H235 N215 0.862 . S
O236 Co204 1.920 . S
O236 C209 1.289 . S
C237 O229 1.258 . S
C237 O230 1.266 . S
Co238 O241 1.970 . S
Co238 N255 1.989 1_556 S
Co238 O263 1.967 . S
Co238 O270 1.920 1_556 S
Co239 O242 1.966 . S
Co239 N248 2.022 . S
Co239 N256 1.993 . S
Co239 O264 1.941 . S
C240 O241 1.258 . S
C240 O242 1.263 . S
O241 Co238 1.970 . S
O241 C240 1.258 . S
O242 Co239 1.966 . S
O242 C240 1.263 . S
C243 O244 1.235 . S
C243 O270 1.289 . S
O244 C243 1.235 . S
C245 C247 1.400 . S
C245 N248 1.351 . S
C245 C250 1.501 . S
C246 C247 1.387 . S
C246 N249 1.341 . S
C247 C245 1.400 . S
C247 C246 1.387 . S
N248 Co239 2.022 . S
N248 C245 1.351 . S
N248 N249 1.365 . S
N249 C246 1.341 . S
N249 N248 1.365 . S
N249 H269 0.862 . S
C250 C245 1.501 . S
C250 H251 0.961 . S
C250 H252 0.961 . S
C250 H253 0.960 . S
H251 C250 0.961 . S
H252 C250 0.961 . S
H253 C250 0.960 . S
C254 N255 1.342 . S
C254 C258 1.401 . S
C254 C259 1.499 . S
N255 Co238 1.989 1_554 S
N255 C254 1.342 . S
N255 N256 1.388 1_554 S
N256 Co239 1.993 . S
N256 N255 1.388 1_556 S
N256 C257 1.346 1_556 S
C257 N256 1.346 1_554 S
C257 C258 1.396 . S
C257 C267 1.510 1_554 S
C258 C254 1.401 . S
C258 C257 1.396 . S
C259 C254 1.499 . S
C259 H260 0.959 . S
C259 H261 0.960 . S
C259 H262 0.961 . S
H260 C259 0.959 . S
H261 C259 0.960 . S
H262 C259 0.961 . S
O263 Co238 1.967 . S
O263 C271 1.258 . S
O264 Co239 1.941 . S
O264 C271 1.266 . S
H265 C267 0.959 . S
H266 C267 0.961 1_554 S
C267 C257 1.510 1_556 S
C267 H265 0.959 . S
C267 H266 0.961 1_556 S
C267 H268 0.960 . S
H268 C267 0.960 . S
H269 N249 0.862 . S
O270 Co238 1.920 1_554 S
O270 C243 1.289 . S
C271 O263 1.258 . S
C271 O264 1.266 . S
Co272 O275 1.970 . S
Co272 N289 1.989 . S
Co272 O297 1.967 . S
Co272 O304 1.920 . S
Co273 O276 1.966 . S
Co273 N282 2.022 . S
Co273 N290 1.993 . S
Co273 O298 1.941 . S
C274 O275 1.258 . S
C274 O276 1.263 . S
O275 Co272 1.970 . S
O275 C274 1.258 . S
O276 Co273 1.966 . S
O276 C274 1.263 . S
C277 O278 1.235 . S
C277 O304 1.289 . S
O278 C277 1.235 . S
C279 C281 1.400 . S
C279 N282 1.351 . S
C279 C284 1.501 . S
C280 C281 1.387 . S
C280 N283 1.341 . S
C281 C279 1.400 . S
C281 C280 1.387 . S
N282 Co273 2.022 . S
N282 C279 1.351 . S
N282 N283 1.365 . S
N283 C280 1.341 . S
N283 N282 1.365 . S
N283 H303 0.862 . S
C284 C279 1.501 . S
C284 H285 0.961 . S
C284 H286 0.961 . S
C284 H287 0.960 . S
H285 C284 0.961 . S
H286 C284 0.961 . S
H287 C284 0.960 . S
C288 N289 1.342 . S
C288 C292 1.401 . S
C288 C293 1.499 . S
N289 Co272 1.989 . S
N289 C288 1.342 . S
N289 N290 1.388 . S
N290 Co273 1.993 . S
N290 N289 1.388 . S
N290 C291 1.346 . S
C291 N290 1.346 . S
C291 C292 1.396 . S
C291 C301 1.510 . S
C292 C288 1.401 . S
C292 C291 1.396 . S
C293 C288 1.499 . S
C293 H294 0.959 . S
C293 H295 0.960 . S
C293 H296 0.961 . S
H294 C293 0.959 . S
H295 C293 0.960 . S
H296 C293 0.961 . S
O297 Co272 1.967 . S
O297 C305 1.258 . S
O298 Co273 1.941 . S
O298 C305 1.266 . S
H299 C301 0.959 . S
H300 C301 0.961 . S
C301 C291 1.510 . S
C301 H299 0.959 . S
C301 H300 0.961 . S
C301 H302 0.960 . S
H302 C301 0.960 . S
H303 N283 0.862 . S
O304 Co272 1.920 . S
O304 C277 1.289 . S
C305 O297 1.258 . S
C305 O298 1.266 . S
Co306 O309 1.970 . S
Co306 N323 1.989 . S
Co306 O331 1.967 . S
Co306 O338 1.920 . S
Co307 O310 1.966 . S
Co307 N316 2.022 . S
Co307 N324 1.993 . S
Co307 O332 1.941 . S
C308 O309 1.258 . S
C308 O310 1.263 . S
O309 Co306 1.970 . S
O309 C308 1.258 . S
O310 Co307 1.966 . S
O310 C308 1.263 . S
C311 O312 1.235 . S
C311 O338 1.289 . S
O312 C311 1.235 . S
C313 C315 1.400 . S
C313 N316 1.351 . S
C313 C318 1.501 . S
C314 C315 1.387 . S
C314 N317 1.341 . S
C315 C313 1.400 . S
C315 C314 1.387 . S
N316 Co307 2.022 . S
N316 C313 1.351 . S
N316 N317 1.365 . S
N317 C314 1.341 . S
N317 N316 1.365 . S
N317 H337 0.862 . S
C318 C313 1.501 . S
C318 H319 0.961 . S
C318 H320 0.961 . S
C318 H321 0.960 . S
H319 C318 0.961 . S
H320 C318 0.961 . S
H321 C318 0.960 . S
C322 N323 1.342 . S
C322 C326 1.401 . S
C322 C327 1.499 . S
N323 Co306 1.989 . S
N323 C322 1.342 . S
N323 N324 1.388 . S
N324 Co307 1.993 . S
N324 N323 1.388 . S
N324 C325 1.346 . S
C325 N324 1.346 . S
C325 C326 1.396 . S
C325 C335 1.510 . S
C326 C322 1.401 . S
C326 C325 1.396 . S
C327 C322 1.499 . S
C327 H328 0.959 . S
C327 H329 0.960 . S
C327 H330 0.961 . S
H328 C327 0.959 . S
H329 C327 0.960 . S
H330 C327 0.961 . S
O331 Co306 1.967 . S
O331 C339 1.258 . S
O332 Co307 1.941 . S
O332 C339 1.266 . S
H333 C335 0.959 . S
H334 C335 0.961 . S
C335 C325 1.510 . S
C335 H333 0.959 . S
C335 H334 0.961 . S
C335 H336 0.960 . S
H336 C335 0.960 . S
H337 N317 0.862 . S
O338 Co306 1.920 . S
O338 C311 1.289 . S
C339 O331 1.258 . S
C339 O332 1.266 . S
Co340 O343 1.970 . S
Co340 N357 1.989 . S
Co340 O365 1.967 . S
Co340 O372 1.920 . S
Co341 O344 1.966 . S
Co341 N350 2.022 . S
Co341 N358 1.993 . S
Co341 O366 1.941 . S
C342 O343 1.258 . S
C342 O344 1.263 . S
O343 Co340 1.970 . S
O343 C342 1.258 . S
O344 Co341 1.966 . S
O344 C342 1.263 . S
C345 O346 1.235 . S
C345 O372 1.289 . S
O346 C345 1.235 . S
C347 C349 1.400 . S
C347 N350 1.351 . S
C347 C352 1.501 . S
C348 C349 1.387 . S
C348 N351 1.341 . S
C349 C347 1.400 . S
C349 C348 1.387 . S
N350 Co341 2.022 . S
N350 C347 1.351 . S
N350 N351 1.365 . S
N351 C348 1.341 . S
N351 N350 1.365 . S
N351 H371 0.862 . S
C352 C347 1.501 . S
C352 H353 0.961 . S
C352 H354 0.961 . S
C352 H355 0.960 . S
H353 C352 0.961 . S
H354 C352 0.961 . S
H355 C352 0.960 . S
C356 N357 1.342 . S
C356 C360 1.401 . S
C356 C361 1.499 . S
N357 Co340 1.989 . S
N357 C356 1.342 . S
N357 N358 1.388 . S
N358 Co341 1.993 . S
N358 N357 1.388 . S
N358 C359 1.346 . S
C359 N358 1.346 . S
C359 C360 1.396 . S
C359 C369 1.510 . S
C360 C356 1.401 . S
C360 C359 1.396 . S
C361 C356 1.499 . S
C361 H362 0.959 . S
C361 H363 0.960 . S
C361 H364 0.961 . S
H362 C361 0.959 . S
H363 C361 0.960 . S
H364 C361 0.961 . S
O365 Co340 1.967 . S
O365 C373 1.258 . S
O366 Co341 1.941 . S
O366 C373 1.266 . S
H367 C369 0.959 . S
H368 C369 0.961 . S
C369 C359 1.510 . S
C369 H367 0.959 . S
C369 H368 0.961 . S
C369 H370 0.960 . S
H370 C369 0.960 . S
H371 N351 0.862 . S
O372 Co340 1.920 . S
O372 C345 1.289 . S
C373 O365 1.258 . S
C373 O366 1.266 . S
Co374 O377 1.970 . S
Co374 N391 1.989 . S
Co374 O399 1.967 . S
Co374 O406 1.920 . S
Co375 O378 1.966 . S
Co375 N384 2.022 . S
Co375 N392 1.993 . S
Co375 O400 1.941 . S
C376 O377 1.258 . S
C376 O378 1.263 . S
O377 Co374 1.970 . S
O377 C376 1.258 . S
O378 Co375 1.966 . S
O378 C376 1.263 . S
C379 O380 1.235 . S
C379 O406 1.289 . S
O380 C379 1.235 . S
C381 C383 1.400 . S
C381 N384 1.351 . S
C381 C386 1.501 . S
C382 C383 1.387 . S
C382 N385 1.341 . S
C383 C381 1.400 . S
C383 C382 1.387 . S
N384 Co375 2.022 . S
N384 C381 1.351 . S
N384 N385 1.365 . S
N385 C382 1.341 . S
N385 N384 1.365 . S
N385 H405 0.862 . S
C386 C381 1.501 . S
C386 H387 0.961 . S
C386 H388 0.961 . S
C386 H389 0.960 . S
H387 C386 0.961 . S
H388 C386 0.961 . S
H389 C386 0.960 . S
C390 N391 1.342 . S
C390 C394 1.401 . S
C390 C395 1.499 . S
N391 Co374 1.989 . S
N391 C390 1.342 . S
N391 N392 1.388 . S
N392 Co375 1.993 . S
N392 N391 1.388 . S
N392 C393 1.346 . S
C393 N392 1.346 . S
C393 C394 1.396 . S
C393 C403 1.510 . S
C394 C390 1.401 . S
C394 C393 1.396 . S
C395 C390 1.499 . S
C395 H396 0.959 . S
C395 H397 0.960 . S
C395 H398 0.961 . S
H396 C395 0.959 . S
H397 C395 0.960 . S
H398 C395 0.961 . S
O399 Co374 1.967 . S
O399 C407 1.258 . S
O400 Co375 1.941 . S
O400 C407 1.266 . S
H401 C403 0.959 . S
H402 C403 0.961 . S
C403 C393 1.510 . S
C403 H401 0.959 . S
C403 H402 0.961 . S
C403 H404 0.960 . S
H404 C403 0.960 . S
H405 N385 0.862 . S
O406 Co374 1.920 . S
O406 C379 1.289 . S
C407 O399 1.258 . S
C407 O400 1.266 . S
H408 C420 0.930 . S
H409 C422 0.930 . S
H410 C423 0.930 . S
H411 C427 0.959 . S
H412 C427 0.959 . S
H413 C427 0.961 . S
H414 C428 0.960 . S
H415 C428 0.961 . S
H416 C428 0.959 . S
H417 C431 0.929 . S
H418 C432 0.931 . S
H419 C434 0.930 . S
C420 H408 0.930 . S
C420 C421 1.399 . S
C420 C425 1.399 . S
C421 C420 1.399 . S
C421 C422 1.376 . S
C422 H409 0.930 . S
C422 C421 1.376 . S
C422 C423 1.388 . S
C423 H410 0.930 . S
C423 C422 1.388 . S
C423 C424 1.390 . S
C424 C423 1.390 . S
C424 C425 1.394 . S
C424 C430 1.465 . S
C425 C420 1.399 . S
C425 C424 1.394 . S
C425 C426 1.516 . S
C426 C425 1.516 . S
C426 C427 1.502 . S
C426 C428 1.561 . S
C426 C429 1.526 . S
C427 H411 0.959 . S
C427 H412 0.959 . S
C427 H413 0.961 . S
C427 C426 1.502 . S
C428 H414 0.960 . S
C428 H415 0.961 . S
C428 H416 0.959 . S
C428 C426 1.561 . S
C429 C426 1.526 . S
C429 C430 1.396 . S
C429 C434 1.390 . S
C430 C424 1.465 . S
C430 C429 1.396 . S
C430 C431 1.399 . S
C431 H417 0.929 . S
C431 C430 1.399 . S
C431 C432 1.385 . S
C432 H418 0.931 . S
C432 C431 1.385 . S
C432 C433 1.389 . S
C433 C432 1.389 . S
C433 C434 1.387 . S
C434 H419 0.930 . S
C434 C429 1.390 . S
C434 C433 1.387 . S
H435 C447 0.930 . S
H436 C449 0.930 . S
H437 C450 0.930 . S
H438 C454 0.959 . S
H439 C454 0.959 . S
H440 C454 0.961 . S
H441 C455 0.960 . S
H442 C455 0.961 . S
H443 C455 0.959 . S
H444 C458 0.929 . S
H445 C459 0.931 . S
H446 C461 0.930 . S
C447 H435 0.930 . S
C447 C448 1.399 . S
C447 C452 1.399 . S
C448 C447 1.399 . S
C448 C449 1.376 . S
C449 H436 0.930 . S
C449 C448 1.376 . S
C449 C450 1.388 . S
C450 H437 0.930 . S
C450 C449 1.388 . S
C450 C451 1.390 . S
C451 C450 1.390 . S
C451 C452 1.394 . S
C451 C457 1.465 . S
C452 C447 1.399 . S
C452 C451 1.394 . S
C452 C453 1.516 . S
C453 C452 1.516 . S
C453 C454 1.502 . S
C453 C455 1.561 . S
C453 C456 1.526 . S
C454 H438 0.959 . S
C454 H439 0.959 . S
C454 H440 0.961 . S
C454 C453 1.502 . S
C455 H441 0.960 . S
C455 H442 0.961 . S
C455 H443 0.959 . S
C455 C453 1.561 . S
C456 C453 1.526 . S
C456 C457 1.396 . S
C456 C461 1.390 . S
C457 C451 1.465 . S
C457 C456 1.396 . S
C457 C458 1.399 . S
C458 H444 0.929 . S
C458 C457 1.399 . S
C458 C459 1.385 1_455 S
C459 H445 0.931 . S
C459 C458 1.385 1_655 S
C459 C460 1.389 . S
C460 C459 1.389 . S
C460 C461 1.387 1_655 S
C461 H446 0.930 . S
C461 C456 1.390 . S
C461 C460 1.387 1_455 S
H462 C474 0.930 . S
H463 C476 0.930 . S
H464 C477 0.930 . S
H465 C481 0.959 . S
H466 C481 0.959 . S
H467 C481 0.961 . S
H468 C482 0.960 . S
H469 C482 0.961 . S
H470 C482 0.959 . S
H471 C485 0.929 . S
H472 C486 0.931 . S
H473 C488 0.930 . S
C474 H462 0.930 . S
C474 C475 1.399 . S
C474 C479 1.399 . S
C475 C474 1.399 . S
C475 C476 1.376 . S
C476 H463 0.930 . S
C476 C475 1.376 . S
C476 C477 1.388 . S
C477 H464 0.930 . S
C477 C476 1.388 . S
C477 C478 1.390 . S
C478 C477 1.390 . S
C478 C479 1.394 . S
C478 C484 1.465 . S
C479 C474 1.399 . S
C479 C478 1.394 . S
C479 C480 1.516 . S
C480 C479 1.516 . S
C480 C481 1.502 . S
C480 C482 1.561 . S
C480 C483 1.526 . S
C481 H465 0.959 . S
C481 H466 0.959 . S
C481 H467 0.961 . S
C481 C480 1.502 . S
C482 H468 0.960 . S
C482 H469 0.961 . S
C482 H470 0.959 . S
C482 C480 1.561 . S
C483 C480 1.526 . S
C483 C484 1.396 . S
C483 C488 1.390 . S
C484 C478 1.465 . S
C484 C483 1.396 . S
C484 C485 1.399 . S
C485 H471 0.929 . S
C485 C484 1.399 . S
C485 C486 1.385 1_545 S
C486 H472 0.931 . S
C486 C485 1.385 1_565 S
C486 C487 1.389 . S
C487 C486 1.389 . S
C487 C488 1.387 1_565 S
C488 H473 0.930 . S
C488 C483 1.390 . S
C488 C487 1.387 1_545 S
H489 C501 0.930 . S
H490 C503 0.930 . S
H491 C504 0.930 . S
H492 C508 0.959 . S
H493 C508 0.959 . S
H494 C508 0.961 . S
H495 C509 0.960 . S
H496 C509 0.961 . S
H497 C509 0.959 . S
H498 C512 0.929 . S
H499 C513 0.931 . S
H500 C515 0.930 . S
C501 H489 0.930 . S
C501 C502 1.399 . S
C501 C506 1.399 . S
C502 C501 1.399 . S
C502 C503 1.376 . S
C503 H490 0.930 . S
C503 C502 1.376 . S
C503 C504 1.388 . S
C504 H491 0.930 . S
C504 C503 1.388 . S
C504 C505 1.390 . S
C505 C504 1.390 . S
C505 C506 1.394 . S
C505 C511 1.465 . S
C506 C501 1.399 . S
C506 C505 1.394 . S
C506 C507 1.516 . S
C507 C506 1.516 . S
C507 C508 1.502 . S
C507 C509 1.561 . S
C507 C510 1.526 . S
C508 H492 0.959 . S
C508 H493 0.959 . S
C508 H494 0.961 . S
C508 C507 1.502 . S
C509 H495 0.960 . S
C509 H496 0.961 . S
C509 H497 0.959 . S
C509 C507 1.561 . S
C510 C507 1.526 . S
C510 C511 1.396 . S
C510 C515 1.390 . S
C511 C505 1.465 . S
C511 C510 1.396 . S
C511 C512 1.399 . S
C512 H498 0.929 . S
C512 C511 1.399 . S
C512 C513 1.385 . S
C513 H499 0.931 . S
C513 C512 1.385 . S
C513 C514 1.389 . S
C514 C513 1.389 . S
C514 C515 1.387 . S
C515 H500 0.930 . S
C515 C510 1.390 . S
C515 C514 1.387 . S
H516 C528 0.930 1_455 S
H517 C530 0.930 1_455 S
H518 C531 0.930 . S
H519 C535 0.959 . S
H520 C535 0.959 . S
H521 C535 0.961 . S
H522 C536 0.960 . S
H523 C536 0.961 . S
H524 C536 0.959 . S
H525 C539 0.929 . S
H526 C540 0.931 . S
H527 C542 0.930 . S
C528 H516 0.930 1_655 S
C528 C529 1.399 1_655 S
C528 C533 1.399 . S
C529 C528 1.399 1_455 S
C529 C530 1.376 1_455 S
C530 H517 0.930 1_655 S
C530 C529 1.376 1_655 S
C530 C531 1.388 . S
C531 H518 0.930 . S
C531 C530 1.388 . S
C531 C532 1.390 . S
C532 C531 1.390 . S
C532 C533 1.394 . S
C532 C538 1.465 . S
C533 C528 1.399 . S
C533 C532 1.394 . S
C533 C534 1.516 . S
C534 C533 1.516 . S
C534 C535 1.502 . S
C534 C536 1.561 . S
C534 C537 1.526 . S
C535 H519 0.959 . S
C535 H520 0.959 . S
C535 H521 0.961 . S
C535 C534 1.502 . S
C536 H522 0.960 . S
C536 H523 0.961 . S
C536 H524 0.959 . S
C536 C534 1.561 . S
C537 C534 1.526 . S
C537 C538 1.396 . S
C537 C542 1.390 . S
C538 C532 1.465 . S
C538 C537 1.396 . S
C538 C539 1.399 . S
C539 H525 0.929 . S
C539 C538 1.399 . S
C539 C540 1.385 . S
C540 H526 0.931 . S
C540 C539 1.385 . S
C540 C541 1.389 . S
C541 C540 1.389 . S
C541 C542 1.387 . S
C542 H527 0.930 . S
C542 C537 1.390 . S
C542 C541 1.387 . S
H543 C555 0.930 . S
H544 C557 0.930 . S
H545 C558 0.930 . S
H546 C562 0.959 . S
H547 C562 0.959 . S
H548 C562 0.961 . S
H549 C563 0.960 . S
H550 C563 0.961 . S
H551 C563 0.959 . S
H552 C566 0.929 . S
H553 C567 0.931 . S
H554 C569 0.930 . S
C555 H543 0.930 . S
C555 C556 1.399 . S
C555 C560 1.399 . S
C556 C555 1.399 . S
C556 C557 1.376 . S
C557 H544 0.930 . S
C557 C556 1.376 . S
C557 C558 1.388 . S
C558 H545 0.930 . S
C558 C557 1.388 . S
C558 C559 1.390 . S
C559 C558 1.390 . S
C559 C560 1.394 . S
C559 C565 1.465 . S
C560 C555 1.399 . S
C560 C559 1.394 . S
C560 C561 1.516 . S
C561 C560 1.516 . S
C561 C562 1.502 . S
C561 C563 1.561 . S
C561 C564 1.526 . S
C562 H546 0.959 . S
C562 H547 0.959 . S
C562 H548 0.961 . S
C562 C561 1.502 . S
C563 H549 0.960 . S
C563 H550 0.961 . S
C563 H551 0.959 . S
C563 C561 1.561 . S
C564 C561 1.526 . S
C564 C565 1.396 . S
C564 C569 1.390 1_565 S
C565 C559 1.465 . S
C565 C564 1.396 . S
C565 C566 1.399 . S
C566 H552 0.929 . S
C566 C565 1.399 . S
C566 C567 1.385 . S
C567 H553 0.931 . S
C567 C566 1.385 . S
C567 C568 1.389 1_565 S
C568 C567 1.389 1_545 S
C568 C569 1.387 . S
C569 H554 0.930 . S
C569 C564 1.390 1_545 S
C569 C568 1.387 . S
H570 C582 0.930 . S
H571 C584 0.930 . S
H572 C585 0.930 . S
H573 C589 0.959 . S
H574 C589 0.959 . S
H575 C589 0.961 . S
H576 C590 0.960 . S
H577 C590 0.961 . S
H578 C590 0.959 . S
H579 C593 0.929 . S
H580 C594 0.931 . S
H581 C596 0.930 . S
C582 H570 0.930 . S
C582 C583 1.399 . S
C582 C587 1.399 . S
C583 C582 1.399 . S
C583 C584 1.376 . S
C584 H571 0.930 . S
C584 C583 1.376 . S
C584 C585 1.388 . S
C585 H572 0.930 . S
C585 C584 1.388 . S
C585 C586 1.390 . S
C586 C585 1.390 . S
C586 C587 1.394 . S
C586 C592 1.465 . S
C587 C582 1.399 . S
C587 C586 1.394 . S
C587 C588 1.516 . S
C588 C587 1.516 . S
C588 C589 1.502 . S
C588 C590 1.561 . S
C588 C591 1.526 . S
C589 H573 0.959 . S
C589 H574 0.959 . S
C589 H575 0.961 . S
C589 C588 1.502 . S
C590 H576 0.960 . S
C590 H577 0.961 . S
C590 H578 0.959 . S
C590 C588 1.561 . S
C591 C588 1.526 . S
C591 C592 1.396 . S
C591 C596 1.390 . S
C592 C586 1.465 . S
C592 C591 1.396 . S
C592 C593 1.399 . S
C593 H579 0.929 . S
C593 C592 1.399 . S
C593 C594 1.385 . S
C594 H580 0.931 . S
C594 C593 1.385 . S
C594 C595 1.389 . S
C595 C594 1.389 . S
C595 C596 1.387 . S
C596 H581 0.930 . S
C596 C591 1.390 . S
C596 C595 1.387 . S
H597 C609 0.930 . S
H598 C611 0.930 . S
H599 C612 0.930 . S
H600 C616 0.959 . S
H601 C616 0.959 . S
H602 C616 0.961 . S
H603 C617 0.960 . S
H604 C617 0.961 . S
H605 C617 0.959 . S
H606 C620 0.929 . S
H607 C621 0.931 . S
H608 C623 0.930 . S
C609 H597 0.930 . S
C609 C610 1.399 . S
C609 C614 1.399 . S
C610 C609 1.399 . S
C610 C611 1.376 . S
C611 H598 0.930 . S
C611 C610 1.376 . S
C611 C612 1.388 . S
C612 H599 0.930 . S
C612 C611 1.388 . S
C612 C613 1.390 . S
C613 C612 1.390 . S
C613 C614 1.394 . S
C613 C619 1.465 . S
C614 C609 1.399 . S
C614 C613 1.394 . S
C614 C615 1.516 . S
C615 C614 1.516 . S
C615 C616 1.502 . S
C615 C617 1.561 . S
C615 C618 1.526 . S
C616 H600 0.959 . S
C616 H601 0.959 . S
C616 H602 0.961 . S
C616 C615 1.502 . S
C617 H603 0.960 . S
C617 H604 0.961 . S
C617 H605 0.959 . S
C617 C615 1.561 . S
C618 C615 1.526 . S
C618 C619 1.396 . S
C618 C623 1.390 1_455 S
C619 C613 1.465 . S
C619 C618 1.396 . S
C619 C620 1.399 . S
C620 H606 0.929 . S
C620 C619 1.399 . S
C620 C621 1.385 . S
C621 H607 0.931 . S
C621 C620 1.385 . S
C621 C622 1.389 1_455 S
C622 C621 1.389 1_655 S
C622 C623 1.387 . S
C623 H608 0.930 . S
C623 C618 1.390 1_655 S
C623 C622 1.387 . S
H624 C636 0.930 . S
H625 C638 0.930 . S
H626 C639 0.930 . S
H627 C643 0.959 . S
H628 C643 0.959 . S
H629 C643 0.961 . S
H630 C644 0.960 . S
H631 C644 0.961 . S
H632 C644 0.959 . S
H633 C647 0.928 1_565 S
H634 C648 0.931 . S
H635 C650 0.930 . S
C636 H624 0.930 . S
C636 C637 1.399 . S
C636 C641 1.399 . S
C637 C636 1.399 . S
C637 C638 1.376 . S
C638 H625 0.930 . S
C638 C637 1.376 . S
C638 C639 1.388 . S
C639 H626 0.930 . S
C639 C638 1.388 . S
C639 C640 1.390 . S
C640 C639 1.390 . S
C640 C641 1.394 . S
C640 C646 1.465 . S
C641 C636 1.399 . S
C641 C640 1.394 . S
C641 C642 1.516 . S
C642 C641 1.516 . S
C642 C643 1.502 . S
C642 C644 1.561 . S
C642 C645 1.526 . S
C643 H627 0.959 . S
C643 H628 0.959 . S
C643 H629 0.961 . S
C643 C642 1.502 . S
C644 H630 0.960 . S
C644 H631 0.961 . S
C644 H632 0.959 . S
C644 C642 1.561 . S
C645 C642 1.526 . S
C645 C646 1.396 . S
C645 C650 1.390 . S
C646 C640 1.465 . S
C646 C645 1.396 . S
C646 C647 1.399 . S
C647 H633 0.928 1_545 S
C647 C646 1.399 . S
C647 C648 1.385 1_545 S
C648 H634 0.931 . S
C648 C647 1.385 1_565 S
C648 C649 1.389 . S
C649 C648 1.389 . S
C649 C650 1.387 1_565 S
C650 H635 0.930 . S
C650 C645 1.390 . S
C650 C649 1.387 1_545 S
H651 C663 0.930 . S
H652 C665 0.930 . S
H653 C666 0.930 . S
H654 C670 0.959 . S
H655 C670 0.959 . S
H656 C670 0.961 . S
H657 C671 0.960 . S
H658 C671 0.961 . S
H659 C671 0.959 . S
H660 C674 0.929 . S
H661 C675 0.931 . S
H662 C677 0.930 . S
C663 H651 0.930 . S
C663 C664 1.399 . S
C663 C668 1.399 . S
C664 C663 1.399 . S
C664 C665 1.376 . S
C665 H652 0.930 . S
C665 C664 1.376 . S
C665 C666 1.388 . S
C666 H653 0.930 . S
C666 C665 1.388 . S
C666 C667 1.390 . S
C667 C666 1.390 . S
C667 C668 1.394 . S
C667 C673 1.465 . S
C668 C663 1.399 . S
C668 C667 1.394 . S
C668 C669 1.516 . S
C669 C668 1.516 . S
C669 C670 1.502 . S
C669 C671 1.561 . S
C669 C672 1.526 . S
C670 H654 0.959 . S
C670 H655 0.959 . S
C670 H656 0.961 . S
C670 C669 1.502 . S
C671 H657 0.960 . S
C671 H658 0.961 . S
C671 H659 0.959 . S
C671 C669 1.561 . S
C672 C669 1.526 . S
C672 C673 1.396 . S
C672 C677 1.390 . S
C673 C667 1.465 . S
C673 C672 1.396 . S
C673 C674 1.399 . S
C674 H660 0.929 . S
C674 C673 1.399 . S
C674 C675 1.385 . S
C675 H661 0.931 . S
C675 C674 1.385 . S
C675 C676 1.389 . S
C676 C675 1.389 . S
C676 C677 1.387 . S
C677 H662 0.930 . S
C677 C672 1.390 . S
C677 C676 1.387 . S
H678 C690 0.930 . S
H679 C692 0.930 . S
H680 C693 0.930 . S
H681 C697 0.959 . S
H682 C697 0.959 . S
H683 C697 0.961 . S
H684 C698 0.960 . S
H685 C698 0.961 . S
H686 C698 0.959 . S
H687 C701 0.929 . S
H688 C702 0.931 . S
H689 C704 0.930 1_455 S
C690 H678 0.930 . S
C690 C691 1.399 . S
C690 C695 1.399 . S
C691 C690 1.399 . S
C691 C692 1.376 . S
C692 H679 0.930 . S
C692 C691 1.376 . S
C692 C693 1.388 . S
C693 H680 0.930 . S
C693 C692 1.388 . S
C693 C694 1.390 . S
C694 C693 1.390 . S
C694 C695 1.394 . S
C694 C700 1.465 . S
C695 C690 1.399 . S
C695 C694 1.394 . S
C695 C696 1.516 . S
C696 C695 1.516 . S
C696 C697 1.502 . S
C696 C698 1.561 . S
C696 C699 1.526 . S
C697 H681 0.959 . S
C697 H682 0.959 . S
C697 H683 0.961 . S
C697 C696 1.502 . S
C698 H684 0.960 . S
C698 H685 0.961 . S
C698 H686 0.959 . S
C698 C696 1.561 . S
C699 C696 1.526 . S
C699 C700 1.396 . S
C699 C704 1.390 . S
C700 C694 1.465 . S
C700 C699 1.396 . S
C700 C701 1.399 . S
C701 H687 0.929 . S
C701 C700 1.399 . S
C701 C702 1.385 1_655 S
C702 H688 0.931 . S
C702 C701 1.385 1_455 S
C702 C703 1.389 . S
C703 C702 1.389 . S
C703 C704 1.387 1_455 S
C704 H689 0.930 1_655 S
C704 C699 1.390 . S
C704 C703 1.387 1_655 S
H705 C717 0.930 . S
H706 C719 0.930 . S
H707 C720 0.930 . S
H708 C724 0.959 . S
H709 C724 0.959 . S
H710 C724 0.961 . S
H711 C725 0.960 . S
H712 C725 0.961 . S
H713 C725 0.959 . S
H714 C728 0.929 . S
H715 C729 0.931 . S
H716 C731 0.930 . S
C717 H705 0.930 . S
C717 C718 1.399 . S
C717 C722 1.399 . S
C718 C717 1.399 . S
C718 C719 1.376 . S
C719 H706 0.930 . S
C719 C718 1.376 . S
C719 C720 1.388 . S
C720 H707 0.930 . S
C720 C719 1.388 . S
C720 C721 1.390 . S
C721 C720 1.390 . S
C721 C722 1.394 . S
C721 C727 1.465 . S
C722 C717 1.399 . S
C722 C721 1.394 . S
C722 C723 1.516 . S
C723 C722 1.516 . S
C723 C724 1.502 . S
C723 C725 1.561 . S
C723 C726 1.526 . S
C724 H708 0.959 . S
C724 H709 0.959 . S
C724 H710 0.961 . S
C724 C723 1.502 . S
C725 H711 0.960 . S
C725 H712 0.961 . S
C725 H713 0.959 . S
C725 C723 1.561 . S
C726 C723 1.526 . S
C726 C727 1.396 . S
C726 C731 1.390 1_565 S
C727 C721 1.465 . S
C727 C726 1.396 . S
C727 C728 1.399 . S
C728 H714 0.929 . S
C728 C727 1.399 . S
C728 C729 1.385 . S
C729 H715 0.931 . S
C729 C728 1.385 . S
C729 C730 1.389 1_565 S
C730 C729 1.389 1_545 S
C730 C731 1.387 . S
C731 H716 0.930 . S
C731 C726 1.390 1_545 S
C731 C730 1.387 . S
H732 C744 0.930 . S
H733 C746 0.930 . S
H734 C747 0.930 . S
H735 C751 0.959 . S
H736 C751 0.959 . S
H737 C751 0.961 . S
H738 C752 0.960 . S
H739 C752 0.961 . S
H740 C752 0.959 . S
H741 C755 0.929 . S
H742 C756 0.931 . S
H743 C758 0.930 . S
C744 H732 0.930 . S
C744 C745 1.399 . S
C744 C749 1.399 . S
C745 C744 1.399 . S
C745 C746 1.376 . S
C746 H733 0.930 . S
C746 C745 1.376 . S
C746 C747 1.388 . S
C747 H734 0.930 . S
C747 C746 1.388 . S
C747 C748 1.390 . S
C748 C747 1.390 . S
C748 C749 1.394 . S
C748 C754 1.465 . S
C749 C744 1.399 . S
C749 C748 1.394 . S
C749 C750 1.516 . S
C750 C749 1.516 . S
C750 C751 1.502 . S
C750 C752 1.561 . S
C750 C753 1.526 . S
C751 H735 0.959 . S
C751 H736 0.959 . S
C751 H737 0.961 . S
C751 C750 1.502 . S
C752 H738 0.960 . S
C752 H739 0.961 . S
C752 H740 0.959 . S
C752 C750 1.561 . S
C753 C750 1.526 . S
C753 C754 1.396 . S
C753 C758 1.390 . S
C754 C748 1.465 . S
C754 C753 1.396 . S
C754 C755 1.399 . S
C755 H741 0.929 . S
C755 C754 1.399 . S
C755 C756 1.385 . S
C756 H742 0.931 . S
C756 C755 1.385 . S
C756 C757 1.389 . S
C757 C756 1.389 . S
C757 C758 1.387 . S
C758 H743 0.930 . S
C758 C753 1.390 . S
C758 C757 1.387 . S
H759 C771 0.930 . S
H760 C773 0.930 . S
H761 C774 0.930 . S
H762 C778 0.959 . S
H763 C778 0.959 . S
H764 C778 0.961 . S
H765 C779 0.960 . S
H766 C779 0.961 . S
H767 C779 0.959 . S
H768 C782 0.929 . S
H769 C783 0.931 . S
H770 C785 0.930 . S
C771 H759 0.930 . S
C771 C772 1.399 . S
C771 C776 1.399 . S
C772 C771 1.399 . S
C772 C773 1.376 . S
C773 H760 0.930 . S
C773 C772 1.376 . S
C773 C774 1.388 . S
C774 H761 0.930 . S
C774 C773 1.388 . S
C774 C775 1.390 . S
C775 C774 1.390 . S
C775 C776 1.394 . S
C775 C781 1.465 . S
C776 C771 1.399 . S
C776 C775 1.394 . S
C776 C777 1.516 . S
C777 C776 1.516 . S
C777 C778 1.502 . S
C777 C779 1.561 . S
C777 C780 1.526 . S
C778 H762 0.959 . S
C778 H763 0.959 . S
C778 H764 0.961 . S
C778 C777 1.502 . S
C779 H765 0.960 . S
C779 H766 0.961 . S
C779 H767 0.959 . S
C779 C777 1.561 . S
C780 C777 1.526 . S
C780 C781 1.396 . S
C780 C785 1.390 . S
C781 C775 1.465 . S
C781 C780 1.396 . S
C781 C782 1.399 . S
C782 H768 0.929 . S
C782 C781 1.399 . S
C782 C783 1.385 . S
C783 H769 0.931 . S
C783 C782 1.385 . S
C783 C784 1.389 . S
C784 C783 1.389 . S
C784 C785 1.387 . S
C785 H770 0.930 . S
C785 C780 1.390 . S
C785 C784 1.387 . S
H786 C798 0.930 . S
H787 C800 0.930 . S
H788 C801 0.930 . S
H789 C805 0.959 . S
H790 C805 0.959 . S
H791 C805 0.961 . S
H792 C806 0.960 . S
H793 C806 0.961 . S
H794 C806 0.959 . S
H795 C809 0.929 . S
H796 C810 0.931 . S
H797 C812 0.930 . S
C798 H786 0.930 . S
C798 C799 1.399 . S
C798 C803 1.399 . S
C799 C798 1.399 . S
C799 C800 1.376 . S
C800 H787 0.930 . S
C800 C799 1.376 . S
C800 C801 1.388 . S
C801 H788 0.930 . S
C801 C800 1.388 . S
C801 C802 1.390 . S
C802 C801 1.390 . S
C802 C803 1.394 . S
C802 C808 1.465 . S
C803 C798 1.399 . S
C803 C802 1.394 . S
C803 C804 1.516 . S
C804 C803 1.516 . S
C804 C805 1.502 . S
C804 C806 1.561 . S
C804 C807 1.526 . S
C805 H789 0.959 . S
C805 H790 0.959 . S
C805 H791 0.961 . S
C805 C804 1.502 . S
C806 H792 0.960 . S
C806 H793 0.961 . S
C806 H794 0.959 . S
C806 C804 1.561 . S
C807 C804 1.526 . S
C807 C808 1.396 . S
C807 C812 1.390 . S
C808 C802 1.465 . S
C808 C807 1.396 . S
C808 C809 1.399 . S
C809 H795 0.929 . S
C809 C808 1.399 . S
C809 C810 1.385 . S
C810 H796 0.931 . S
C810 C809 1.385 . S
C810 C811 1.389 . S
C811 C810 1.389 . S
C811 C812 1.387 . S
C812 H797 0.930 . S
C812 C807 1.390 . S
C812 C811 1.387 . S
H813 C825 0.930 . S
H814 C827 0.930 . S
H815 C828 0.930 . S
H816 C832 0.959 . S
H817 C832 0.959 . S
H818 C832 0.961 . S
H819 C833 0.960 . S
H820 C833 0.961 . S
H821 C833 0.959 . S
H822 C836 0.929 . S
H823 C837 0.931 . S
H824 C839 0.930 . S
C825 H813 0.930 . S
C825 C826 1.399 . S
C825 C830 1.399 . S
C826 C825 1.399 . S
C826 C827 1.376 . S
C827 H814 0.930 . S
C827 C826 1.376 . S
C827 C828 1.388 . S
C828 H815 0.930 . S
C828 C827 1.388 . S
C828 C829 1.390 . S
C829 C828 1.390 . S
C829 C830 1.394 . S
C829 C835 1.465 . S
C830 C825 1.399 . S
C830 C829 1.394 . S
C830 C831 1.516 . S
C831 C830 1.516 . S
C831 C832 1.502 . S
C831 C833 1.561 . S
C831 C834 1.526 . S
C832 H816 0.959 . S
C832 H817 0.959 . S
C832 H818 0.961 . S
C832 C831 1.502 . S
C833 H819 0.960 . S
C833 H820 0.961 . S
C833 H821 0.959 . S
C833 C831 1.561 . S
C834 C831 1.526 . S
C834 C835 1.396 . S
C834 C839 1.390 . S
C835 C829 1.465 . S
C835 C834 1.396 . S
C835 C836 1.399 . S
C836 H822 0.929 . S
C836 C835 1.399 . S
C836 C837 1.385 . S
C837 H823 0.931 . S
C837 C836 1.385 . S
C837 C838 1.389 . S
C838 C837 1.389 . S
C838 C839 1.387 . S
C839 H824 0.930 . S
C839 C834 1.390 . S
C839 C838 1.387 . S
H840 C852 0.930 . S
H841 C854 0.930 . S
H842 C855 0.930 . S
H843 C859 0.959 . S
H844 C859 0.959 . S
H845 C859 0.961 . S
H846 C860 0.960 . S
H847 C860 0.961 . S
H848 C860 0.959 . S
H849 C863 0.929 . S
H850 C864 0.931 . S
H851 C866 0.930 . S
C852 H840 0.930 . S
C852 C853 1.399 . S
C852 C857 1.399 . S
C853 C852 1.399 . S
C853 C854 1.376 . S
C854 H841 0.930 . S
C854 C853 1.376 . S
C854 C855 1.388 . S
C855 H842 0.930 . S
C855 C854 1.388 . S
C855 C856 1.390 . S
C856 C855 1.390 . S
C856 C857 1.394 . S
C856 C862 1.465 . S
C857 C852 1.399 . S
C857 C856 1.394 . S
C857 C858 1.516 . S
C858 C857 1.516 . S
C858 C859 1.502 . S
C858 C860 1.561 . S
C858 C861 1.526 . S
C859 H843 0.959 . S
C859 H844 0.959 . S
C859 H845 0.961 . S
C859 C858 1.502 . S
C860 H846 0.960 . S
C860 H847 0.961 . S
C860 H848 0.959 . S
C860 C858 1.561 . S
C861 C858 1.526 . S
C861 C862 1.396 . S
C861 C866 1.390 . S
C862 C856 1.465 . S
C862 C861 1.396 . S
C862 C863 1.399 . S
C863 H849 0.929 . S
C863 C862 1.399 . S
C863 C864 1.385 . S
C864 H850 0.931 . S
C864 C863 1.385 . S
C864 C865 1.389 . S
C865 C864 1.389 . S
C865 C866 1.387 . S
C866 H851 0.930 . S
C866 C861 1.390 . S
C866 C865 1.387 . S
H867 C879 0.930 . S
H868 C881 0.930 . S
H869 C882 0.930 . S
H870 C886 0.959 . S
H871 C886 0.959 . S
H872 C886 0.961 . S
H873 C887 0.960 . S
H874 C887 0.961 . S
H875 C887 0.959 . S
H876 C890 0.929 . S
H877 C891 0.931 . S
H878 C893 0.930 . S
C879 H867 0.930 . S
C879 C880 1.399 . S
C879 C884 1.399 . S
C880 C879 1.399 . S
C880 C881 1.376 . S
C881 H868 0.930 . S
C881 C880 1.376 . S
C881 C882 1.388 . S
C882 H869 0.930 . S
C882 C881 1.388 . S
C882 C883 1.390 . S
C883 C882 1.390 . S
C883 C884 1.394 . S
C883 C889 1.465 . S
C884 C879 1.399 . S
C884 C883 1.394 . S
C884 C885 1.516 . S
C885 C884 1.516 . S
C885 C886 1.502 . S
C885 C887 1.561 . S
C885 C888 1.526 . S
C886 H870 0.959 . S
C886 H871 0.959 . S
C886 H872 0.961 . S
C886 C885 1.502 . S
C887 H873 0.960 . S
C887 H874 0.961 . S
C887 H875 0.959 . S
C887 C885 1.561 . S
C888 C885 1.526 . S
C888 C889 1.396 . S
C888 C893 1.390 . S
C889 C883 1.465 . S
C889 C888 1.396 . S
C889 C890 1.399 . S
C890 H876 0.929 . S
C890 C889 1.399 . S
C890 C891 1.385 . S
C891 H877 0.931 . S
C891 C890 1.385 . S
C891 C892 1.389 . S
C892 C891 1.389 . S
C892 C893 1.387 . S
C893 H878 0.930 . S
C893 C888 1.390 . S
C893 C892 1.387 . S
H894 C906 0.930 . S
H895 C908 0.930 . S
H896 C909 0.930 . S
H897 C913 0.959 . S
H898 C913 0.959 . S
H899 C913 0.961 . S
H900 C914 0.960 . S
H901 C914 0.961 . S
H902 C914 0.959 . S
H903 C917 0.929 . S
H904 C918 0.931 . S
H905 C920 0.930 . S
C906 H894 0.930 . S
C906 C907 1.399 . S
C906 C911 1.399 . S
C907 C906 1.399 . S
C907 C908 1.376 . S
C908 H895 0.930 . S
C908 C907 1.376 . S
C908 C909 1.388 . S
C909 H896 0.930 . S
C909 C908 1.388 . S
C909 C910 1.390 . S
C910 C909 1.390 . S
C910 C911 1.394 . S
C910 C916 1.465 . S
C911 C906 1.399 . S
C911 C910 1.394 . S
C911 C912 1.516 . S
C912 C911 1.516 . S
C912 C913 1.502 . S
C912 C914 1.561 . S
C912 C915 1.526 . S
C913 H897 0.959 . S
C913 H898 0.959 . S
C913 H899 0.961 . S
C913 C912 1.502 . S
C914 H900 0.960 . S
C914 H901 0.961 . S
C914 H902 0.959 . S
C914 C912 1.561 . S
C915 C912 1.526 . S
C915 C916 1.396 . S
C915 C920 1.390 . S
C916 C910 1.465 . S
C916 C915 1.396 . S
C916 C917 1.399 . S
C917 H903 0.929 . S
C917 C916 1.399 . S
C917 C918 1.385 . S
C918 H904 0.931 . S
C918 C917 1.385 . S
C918 C919 1.389 . S
C919 C918 1.389 . S
C919 C920 1.387 . S
C920 H905 0.930 . S
C920 C915 1.390 . S
C920 C919 1.387 . S
H921 C933 0.930 . S
H922 C935 0.930 . S
H923 C936 0.930 . S
H924 C940 0.948 1_655 S
H925 C940 0.951 1_655 S
H926 C940 0.967 . S
H927 C941 0.960 . S
H928 C941 0.961 . S
H929 C941 0.959 . S
H930 C944 0.929 . S
H931 C945 0.931 . S
H932 C947 0.930 . S
C933 H921 0.930 . S
C933 C934 1.399 . S
C933 C938 1.399 . S
C934 C933 1.399 . S
C934 C935 1.376 . S
C935 H922 0.930 . S
C935 C934 1.376 . S
C935 C936 1.388 . S
C936 H923 0.930 . S
C936 C935 1.388 . S
C936 C937 1.390 . S
C937 C936 1.390 . S
C937 C938 1.394 . S
C937 C943 1.465 1_455 S
C938 C933 1.399 . S
C938 C937 1.394 . S
C938 C939 1.516 . S
C939 C938 1.516 . S
C939 C940 1.516 . S
C939 C941 1.561 . S
C939 C942 1.526 1_455 S
C940 H924 0.948 1_455 S
C940 H925 0.951 1_455 S
C940 H926 0.967 . S
C940 C939 1.516 . S
C941 H927 0.960 . S
C941 H928 0.961 . S
C941 H929 0.959 . S
C941 C939 1.561 . S
C942 C939 1.526 1_655 S
C942 C943 1.396 . S
C942 C947 1.390 . S
C943 C937 1.465 1_655 S
C943 C942 1.396 . S
C943 C944 1.399 . S
C944 H930 0.929 . S
C944 C943 1.399 . S
C944 C945 1.385 . S
C945 H931 0.931 . S
C945 C944 1.385 . S
C945 C946 1.389 . S
C946 C945 1.389 . S
C946 C947 1.387 . S
C947 H932 0.930 . S
C947 C942 1.390 . S
C947 C946 1.387 . S
H948 C960 0.930 . S
H949 C962 0.930 . S
H950 C963 0.930 . S
H951 C967 0.959 . S
H952 C967 0.959 . S
H953 C967 0.961 . S
H954 C968 0.960 . S
H955 C968 0.961 . S
H956 C968 0.959 . S
H957 C971 0.929 . S
H958 C972 0.931 . S
H959 C974 0.930 . S
C960 H948 0.930 . S
C960 C961 1.399 . S
C960 C965 1.399 . S
C961 C960 1.399 . S
C961 C962 1.376 . S
C962 H949 0.930 . S
C962 C961 1.376 . S
C962 C963 1.388 1_565 S
C963 H950 0.930 . S
C963 C962 1.388 1_545 S
C963 C964 1.390 . S
C964 C963 1.390 . S
C964 C965 1.394 1_545 S
C964 C970 1.465 . S
C965 C960 1.399 . S
C965 C964 1.394 1_565 S
C965 C966 1.516 . S
C966 C965 1.516 . S
C966 C967 1.502 . S
C966 C968 1.561 . S
C966 C969 1.526 1_565 S
C967 H951 0.959 . S
C967 H952 0.959 . S
C967 H953 0.961 . S
C967 C966 1.502 . S
C968 H954 0.960 . S
C968 H955 0.961 . S
C968 H956 0.959 . S
C968 C966 1.561 . S
C969 C966 1.526 1_545 S
C969 C970 1.396 . S
C969 C974 1.390 . S
C970 C964 1.465 . S
C970 C969 1.396 . S
C970 C971 1.399 . S
C971 H957 0.929 . S
C971 C970 1.399 . S
C971 C972 1.385 . S
C972 H958 0.931 . S
C972 C971 1.385 . S
C972 C973 1.389 . S
C973 C972 1.389 . S
C973 C974 1.387 . S
C974 H959 0.930 . S
C974 C969 1.390 . S
C974 C973 1.387 . S
H975 C987 0.930 . S
H976 C989 0.930 . S
H977 C990 0.930 . S
H978 C994 0.959 . S
H979 C994 0.959 . S
H980 C994 0.961 . S
H981 C995 0.960 . S
H982 C995 0.961 . S
H983 C995 0.959 . S
H984 C998 0.929 . S
H985 C999 0.931 . S
H986 C1001 0.930 . S
C987 H975 0.930 . S
C987 C988 1.399 . S
C987 C992 1.399 . S
C988 C987 1.399 . S
C988 C989 1.376 . S
C989 H976 0.930 . S
C989 C988 1.376 . S
C989 C990 1.388 . S
C990 H977 0.930 . S
C990 C989 1.388 . S
C990 C991 1.390 . S
C991 C990 1.390 . S
C991 C992 1.394 . S
C991 C997 1.465 . S
C992 C987 1.399 . S
C992 C991 1.394 . S
C992 C993 1.516 . S
C993 C992 1.516 . S
C993 C994 1.502 . S
C993 C995 1.561 . S
C993 C996 1.526 . S
C994 H978 0.959 . S
C994 H979 0.959 . S
C994 H980 0.961 . S
C994 C993 1.502 . S
C995 H981 0.960 . S
C995 H982 0.961 . S
C995 H983 0.959 . S
C995 C993 1.561 . S
C996 C993 1.526 . S
C996 C997 1.396 . S
C996 C1001 1.390 . S
C997 C991 1.465 . S
C997 C996 1.396 . S
C997 C998 1.399 . S
C998 H984 0.929 . S
C998 C997 1.399 . S
C998 C999 1.385 . S
C999 H985 0.931 . S
C999 C998 1.385 . S
C999 C1000 1.389 . S
C1000 C999 1.389 . S
C1000 C1001 1.387 . S
C1001 H986 0.930 . S
C1001 C996 1.390 . S
C1001 C1000 1.387 . S
H1002 C1014 0.930 . S
H1003 C1016 0.930 . S
H1004 C1017 0.930 . S
H1005 C1021 0.959 . S
H1006 C1021 0.959 . S
H1007 C1021 0.961 . S
H1008 C1022 0.960 . S
H1009 C1022 0.961 . S
H1010 C1022 0.959 . S
H1011 C1025 0.929 . S
H1012 C1026 0.931 . S
H1013 C1028 0.930 . S
C1014 H1002 0.930 . S
C1014 C1015 1.399 . S
C1014 C1019 1.399 . S
C1015 C1014 1.399 . S
C1015 C1016 1.376 . S
C1016 H1003 0.930 . S
C1016 C1015 1.376 . S
C1016 C1017 1.388 . S
C1017 H1004 0.930 . S
C1017 C1016 1.388 . S
C1017 C1018 1.390 . S
C1018 C1017 1.390 . S
C1018 C1019 1.394 . S
C1018 C1024 1.465 . S
C1019 C1014 1.399 . S
C1019 C1018 1.394 . S
C1019 C1020 1.516 1_455 S
C1020 C1019 1.516 1_655 S
C1020 C1021 1.502 . S
C1020 C1022 1.561 . S
C1020 C1023 1.526 . S
C1021 H1005 0.959 . S
C1021 H1006 0.959 . S
C1021 H1007 0.961 . S
C1021 C1020 1.502 . S
C1022 H1008 0.960 . S
C1022 H1009 0.961 . S
C1022 H1010 0.959 . S
C1022 C1020 1.561 . S
C1023 C1020 1.526 . S
C1023 C1024 1.396 1_655 S
C1023 C1028 1.390 . S
C1024 C1018 1.465 . S
C1024 C1023 1.396 1_455 S
C1024 C1025 1.399 . S
C1025 H1011 0.929 . S
C1025 C1024 1.399 . S
C1025 C1026 1.385 1_455 S
C1026 H1012 0.931 . S
C1026 C1025 1.385 1_655 S
C1026 C1027 1.389 . S
C1027 C1026 1.389 . S
C1027 C1028 1.387 . S
C1028 H1013 0.930 . S
C1028 C1023 1.390 . S
C1028 C1027 1.387 . S
H1029 C1041 0.930 . S
H1030 C1043 0.930 . S
H1031 C1044 0.930 1_556 S
H1032 C1048 0.959 . S
H1033 C1048 0.959 . S
H1034 C1048 0.961 . S
H1035 C1049 0.960 . S
H1036 C1049 0.961 . S
H1037 C1049 0.959 . S
H1038 C1052 0.929 . S
H1039 C1053 0.931 . S
H1040 C1055 0.930 . S
C1041 H1029 0.930 . S
C1041 C1042 1.399 . S
C1041 C1046 1.399 . S
C1042 C1041 1.399 . S
C1042 C1043 1.376 . S
C1043 H1030 0.930 . S
C1043 C1042 1.376 . S
C1043 C1044 1.388 . S
C1044 H1031 0.930 1_554 S
C1044 C1043 1.388 . S
C1044 C1045 1.390 . S
C1045 C1044 1.390 . S
C1045 C1046 1.394 . S
C1045 C1051 1.465 1_554 S
C1046 C1041 1.399 . S
C1046 C1045 1.394 . S
C1046 C1047 1.516 1_565 S
C1047 C1046 1.516 1_545 S
C1047 C1048 1.502 . S
C1047 C1049 1.561 . S
C1047 C1050 1.526 1_554 S
C1048 H1032 0.959 . S
C1048 H1033 0.959 . S
C1048 H1034 0.961 . S
C1048 C1047 1.502 . S
C1049 H1035 0.960 . S
C1049 H1036 0.961 . S
C1049 H1037 0.959 . S
C1049 C1047 1.561 . S
C1050 C1047 1.526 1_556 S
C1050 C1051 1.396 1_545 S
C1050 C1055 1.390 . S
C1051 C1045 1.465 1_556 S
C1051 C1050 1.396 1_565 S
C1051 C1052 1.399 . S
C1052 H1038 0.929 . S
C1052 C1051 1.399 . S
C1052 C1053 1.385 1_565 S
C1053 H1039 0.931 . S
C1053 C1052 1.385 1_545 S
C1053 C1054 1.389 . S
C1054 C1053 1.389 . S
C1054 C1055 1.387 . S
C1055 H1040 0.930 . S
C1055 C1050 1.390 . S
C1055 C1054 1.387 . S
H1056 C1068 0.930 . S
H1057 C1070 0.930 . S
H1058 C1071 0.930 . S
H1059 C1075 0.959 . S
H1060 C1075 0.959 . S
H1061 C1075 0.961 . S
H1062 C1076 0.960 . S
H1063 C1076 0.961 . S
H1064 C1076 0.959 . S
H1065 C1079 0.929 . S
H1066 C1080 0.931 . S
H1067 C1082 0.930 . S
C1068 H1056 0.930 . S
C1068 C1069 1.399 . S
C1068 C1073 1.399 . S
C1069 C1068 1.399 . S
C1069 C1070 1.376 . S
C1070 H1057 0.930 . S
C1070 C1069 1.376 . S
C1070 C1071 1.388 . S
C1071 H1058 0.930 . S
C1071 C1070 1.388 . S
C1071 C1072 1.390 . S
C1072 C1071 1.390 . S
C1072 C1073 1.394 . S
C1072 C1078 1.465 . S
C1073 C1068 1.399 . S
C1073 C1072 1.394 . S
C1073 C1074 1.516 . S
C1074 C1073 1.516 . S
C1074 C1075 1.502 . S
C1074 C1076 1.561 . S
C1074 C1077 1.526 . S
C1075 H1059 0.959 . S
C1075 H1060 0.959 . S
C1075 H1061 0.961 . S
C1075 C1074 1.502 . S
C1076 H1062 0.960 . S
C1076 H1063 0.961 . S
C1076 H1064 0.959 . S
C1076 C1074 1.561 . S
C1077 C1074 1.526 . S
C1077 C1078 1.396 . S
C1077 C1082 1.390 . S
C1078 C1072 1.465 . S
C1078 C1077 1.396 . S
C1078 C1079 1.399 . S
C1079 H1065 0.929 . S
C1079 C1078 1.399 . S
C1079 C1080 1.385 . S
C1080 H1066 0.931 . S
C1080 C1079 1.385 . S
C1080 C1081 1.389 . S
C1081 C1080 1.389 . S
C1081 C1082 1.387 . S
C1082 H1067 0.930 . S
C1082 C1077 1.390 . S
C1082 C1081 1.387 . S
H1083 C1095 0.930 . S
H1084 C1097 0.930 . S
H1085 C1098 0.930 . S
H1086 C1102 0.959 . S
H1087 C1102 0.959 . S
H1088 C1102 0.961 . S
H1089 C1103 0.960 . S
H1090 C1103 0.961 . S
H1091 C1103 0.959 . S
H1092 C1106 0.929 . S
H1093 C1107 0.931 . S
H1094 C1109 0.930 . S
C1095 H1083 0.930 . S
C1095 C1096 1.399 . S
C1095 C1100 1.399 . S
C1096 C1095 1.399 . S
C1096 C1097 1.376 . S
C1097 H1084 0.930 . S
C1097 C1096 1.376 . S
C1097 C1098 1.388 . S
C1098 H1085 0.930 . S
C1098 C1097 1.388 . S
C1098 C1099 1.390 . S
C1099 C1098 1.390 . S
C1099 C1100 1.394 . S
C1099 C1105 1.465 . S
C1100 C1095 1.399 . S
C1100 C1099 1.394 . S
C1100 C1101 1.516 . S
C1101 C1100 1.516 . S
C1101 C1102 1.502 . S
C1101 C1103 1.561 . S
C1101 C1104 1.526 . S
C1102 H1086 0.959 . S
C1102 H1087 0.959 . S
C1102 H1088 0.961 . S
C1102 C1101 1.502 . S
C1103 H1089 0.960 . S
C1103 H1090 0.961 . S
C1103 H1091 0.959 . S
C1103 C1101 1.561 . S
C1104 C1101 1.526 . S
C1104 C1105 1.396 . S
C1104 C1109 1.390 . S
C1105 C1099 1.465 . S
C1105 C1104 1.396 . S
C1105 C1106 1.399 . S
C1106 H1092 0.929 . S
C1106 C1105 1.399 . S
C1106 C1107 1.385 . S
C1107 H1093 0.931 . S
C1107 C1106 1.385 . S
C1107 C1108 1.389 . S
C1108 C1107 1.389 . S
C1108 C1109 1.387 . S
C1109 H1094 0.930 . S
C1109 C1104 1.390 . S
C1109 C1108 1.387 . S
H1110 C1122 0.930 . S
H1111 C1124 0.930 . S
H1112 C1125 0.930 . S
H1113 C1129 0.959 . S
H1114 C1129 0.959 . S
H1115 C1129 0.961 . S
H1116 C1130 0.960 . S
H1117 C1130 0.961 . S
H1118 C1130 0.959 . S
H1119 C1133 0.929 . S
H1120 C1134 0.931 . S
H1121 C1136 0.930 . S
C1122 H1110 0.930 . S
C1122 C1123 1.399 . S
C1122 C1127 1.399 . S
C1123 C1122 1.399 . S
C1123 C1124 1.376 . S
C1124 H1111 0.930 . S
C1124 C1123 1.376 . S
C1124 C1125 1.388 . S
C1125 H1112 0.930 . S
C1125 C1124 1.388 . S
C1125 C1126 1.390 . S
C1126 C1125 1.390 . S
C1126 C1127 1.394 . S
C1126 C1132 1.465 . S
C1127 C1122 1.399 . S
C1127 C1126 1.394 . S
C1127 C1128 1.516 . S
C1128 C1127 1.516 . S
C1128 C1129 1.502 . S
C1128 C1130 1.561 . S
C1128 C1131 1.526 . S
C1129 H1113 0.959 . S
C1129 H1114 0.959 . S
C1129 H1115 0.961 . S
C1129 C1128 1.502 . S
C1130 H1116 0.960 . S
C1130 H1117 0.961 . S
C1130 H1118 0.959 . S
C1130 C1128 1.561 . S
C1131 C1128 1.526 . S
C1131 C1132 1.396 . S
C1131 C1136 1.390 . S
C1132 C1126 1.465 . S
C1132 C1131 1.396 . S
C1132 C1133 1.399 . S
C1133 H1119 0.929 . S
C1133 C1132 1.399 . S
C1133 C1134 1.385 . S
C1134 H1120 0.931 . S
C1134 C1133 1.385 . S
C1134 C1135 1.389 . S
C1135 C1134 1.389 . S
C1135 C1136 1.387 . S
C1136 H1121 0.930 . S
C1136 C1131 1.390 . S
C1136 C1135 1.387 . S
H1137 C1149 0.930 . S
H1138 C1151 0.930 . S
H1139 C1152 0.930 . S
H1140 C1156 0.959 . S
H1141 C1156 0.959 . S
H1142 C1156 0.961 . S
H1143 C1157 0.960 . S
H1144 C1157 0.961 . S
H1145 C1157 0.959 . S
H1146 C1160 0.929 . S
H1147 C1161 0.931 . S
H1148 C1163 0.930 . S
C1149 H1137 0.930 . S
C1149 C1150 1.399 . S
C1149 C1154 1.399 . S
C1150 C1149 1.399 . S
C1150 C1151 1.376 . S
C1151 H1138 0.930 . S
C1151 C1150 1.376 . S
C1151 C1152 1.388 . S
C1152 H1139 0.930 . S
C1152 C1151 1.388 . S
C1152 C1153 1.390 . S
C1153 C1152 1.390 . S
C1153 C1154 1.394 . S
C1153 C1159 1.465 . S
C1154 C1149 1.399 . S
C1154 C1153 1.394 . S
C1154 C1155 1.516 . S
C1155 C1154 1.516 . S
C1155 C1156 1.502 . S
C1155 C1157 1.561 . S
C1155 C1158 1.526 . S
C1156 H1140 0.959 . S
C1156 H1141 0.959 . S
C1156 H1142 0.961 . S
C1156 C1155 1.502 . S
C1157 H1143 0.960 . S
C1157 H1144 0.961 . S
C1157 H1145 0.959 . S
C1157 C1155 1.561 . S
C1158 C1155 1.526 . S
C1158 C1159 1.396 . S
C1158 C1163 1.390 . S
C1159 C1153 1.465 . S
C1159 C1158 1.396 . S
C1159 C1160 1.399 . S
C1160 H1146 0.929 . S
C1160 C1159 1.399 . S
C1160 C1161 1.385 . S
C1161 H1147 0.931 . S
C1161 C1160 1.385 . S
C1161 C1162 1.389 . S
C1162 C1161 1.389 . S
C1162 C1163 1.387 . S
C1163 H1148 0.930 . S
C1163 C1158 1.390 . S
C1163 C1162 1.387 . S
H1164 C1176 0.930 . S
H1165 C1178 0.930 . S
H1166 C1179 0.930 . S
H1167 C1183 0.959 . S
H1168 C1183 0.959 . S
H1169 C1183 0.961 . S
H1170 C1184 0.960 . S
H1171 C1184 0.961 . S
H1172 C1184 0.959 . S
H1173 C1187 0.929 . S
H1174 C1188 0.931 . S
H1175 C1190 0.930 . S
C1176 H1164 0.930 . S
C1176 C1177 1.399 . S
C1176 C1181 1.399 . S
C1177 C1176 1.399 . S
C1177 C1178 1.376 . S
C1178 H1165 0.930 . S
C1178 C1177 1.376 . S
C1178 C1179 1.388 . S
C1179 H1166 0.930 . S
C1179 C1178 1.388 . S
C1179 C1180 1.390 . S
C1180 C1179 1.390 . S
C1180 C1181 1.394 . S
C1180 C1186 1.465 . S
C1181 C1176 1.399 . S
C1181 C1180 1.394 . S
C1181 C1182 1.516 . S
C1182 C1181 1.516 . S
C1182 C1183 1.502 . S
C1182 C1184 1.561 . S
C1182 C1185 1.526 . S
C1183 H1167 0.959 . S
C1183 H1168 0.959 . S
C1183 H1169 0.961 . S
C1183 C1182 1.502 . S
C1184 H1170 0.960 . S
C1184 H1171 0.961 . S
C1184 H1172 0.959 . S
C1184 C1182 1.561 . S
C1185 C1182 1.526 . S
C1185 C1186 1.396 . S
C1185 C1190 1.390 . S
C1186 C1180 1.465 . S
C1186 C1185 1.396 . S
C1186 C1187 1.399 . S
C1187 H1173 0.929 . S
C1187 C1186 1.399 . S
C1187 C1188 1.385 . S
C1188 H1174 0.931 . S
C1188 C1187 1.385 . S
C1188 C1189 1.389 . S
C1189 C1188 1.389 . S
C1189 C1190 1.387 . S
C1190 H1175 0.930 . S
C1190 C1185 1.390 . S
C1190 C1189 1.387 . S
H1191 C1203 0.930 . S
H1192 C1205 0.930 . S
H1193 C1206 0.930 . S
H1194 C1210 0.959 . S
H1195 C1210 0.959 . S
H1196 C1210 0.961 . S
H1197 C1211 0.960 . S
H1198 C1211 0.961 . S
H1199 C1211 0.959 . S
H1200 C1214 0.929 . S
H1201 C1215 0.931 . S
H1202 C1217 0.930 . S
C1203 H1191 0.930 . S
C1203 C1204 1.399 . S
C1203 C1208 1.399 . S
C1204 C1203 1.399 . S
C1204 C1205 1.376 . S
C1205 H1192 0.930 . S
C1205 C1204 1.376 . S
C1205 C1206 1.388 . S
C1206 H1193 0.930 . S
C1206 C1205 1.388 . S
C1206 C1207 1.390 . S
C1207 C1206 1.390 . S
C1207 C1208 1.394 . S
C1207 C1213 1.465 . S
C1208 C1203 1.399 . S
C1208 C1207 1.394 . S
C1208 C1209 1.516 . S
C1209 C1208 1.516 . S
C1209 C1210 1.502 . S
C1209 C1211 1.561 . S
C1209 C1212 1.526 . S
C1210 H1194 0.959 . S
C1210 H1195 0.959 . S
C1210 H1196 0.961 . S
C1210 C1209 1.502 . S
C1211 H1197 0.960 . S
C1211 H1198 0.961 . S
C1211 H1199 0.959 . S
C1211 C1209 1.561 . S
C1212 C1209 1.526 . S
C1212 C1213 1.396 . S
C1212 C1217 1.390 . S
C1213 C1207 1.465 . S
C1213 C1212 1.396 . S
C1213 C1214 1.399 . S
C1214 H1200 0.929 . S
C1214 C1213 1.399 . S
C1214 C1215 1.385 . S
C1215 H1201 0.931 . S
C1215 C1214 1.385 . S
C1215 C1216 1.389 . S
C1216 C1215 1.389 . S
C1216 C1217 1.387 . S
C1217 H1202 0.930 . S
C1217 C1212 1.390 . S
C1217 C1216 1.387 . S
C421 C172 1.281 . S
C433 C5 1.275 . S
C448 C2 1.260 . S
C460 C39 1.227 . S
C475 C36 1.281 . S
C487 C73 1.276 . S
C502 C107 1.256 . S
C514 C70 1.286 . S
C529 C141 1.283 . S
C541 C104 1.250 . S
C556 C138 1.240 . S
C568 C175 1.276 . S
C583 C240 1.243 . S
C595 C209 1.229 . S
C610 C274 1.246 . S
C622 C243 1.281 . S
C637 C308 1.282 . S
C649 C277 1.245 . S
C664 C342 1.281 . S
C676 C311 1.242 . S
C691 C376 1.240 . S
C703 C345 1.230 . S
C718 C206 1.241 . S
C730 C379 1.277 . S
C745 C281 1.277 . S
C757 C9 1.304 . S
C772 C43 1.307 . S
C784 C315 1.285 . S
C799 C77 1.304 . S
C811 C349 1.306 . S
C826 C111 1.291 . S
C838 C383 1.308 . S
C853 C145 1.224 . S
C865 C213 1.250 . S
C880 C247 1.287 . S
C892 C179 1.307 . S
C907 C339 1.523 . S
C919 C33 1.516 . S
C934 C373 1.516 . S
C946 C67 1.515 . S
C961 C101 1.522 . S
C973 C407 1.515 . S
C988 C135 1.515 . S
C1000 C237 1.516 . S
C1015 C169 1.513 . S
C1027 C271 1.522 . S
C1042 C305 1.516 . S
C1054 C203 1.523 . S
C1069 C20 1.548 . S
C1081 C224 1.568 . S
C1096 C258 1.551 . S
C1108 C54 1.564 . S
C1123 C88 1.566 . S
C1135 C292 1.550 . S
C1150 C326 1.557 . S
C1162 C122 1.558 . S
C1177 C360 1.575 . S
C1189 C156 1.546 . S
C1204 C394 1.568 . S
C1216 C190 1.548 . S
