# Generated by pormake.
# Topology afi, (4)-cn, num edge types: 1
# Building blocks:
#     Node 0, Type 0, BuildingBlock: KUFVIS_clean_sbu_0, # of connection points: 4
#     Node 1, Type 0, BuildingBlock: KUFVIS_clean_sbu_0, # of connection points: 4
#     Node 2, Type 0, BuildingBlock: KUFVIS_clean_sbu_0, # of connection points: 4
#     Node 3, Type 0, BuildingBlock: KUFVIS_clean_sbu_0, # of connection points: 4
#     Node 4, Type 0, BuildingBlock: KUFVIS_clean_sbu_0, # of connection points: 4
#     Node 5, Type 0, BuildingBlock: KUFVIS_clean_sbu_0, # of connection points: 4
#     Node 6, Type 0, BuildingBlock: KUFVIS_clean_sbu_0, # of connection points: 4
#     Node 7, Type 0, BuildingBlock: KUFVIS_clean_sbu_0, # of connection points: 4
#     Node 8, Type 0, BuildingBlock: KUFVIS_clean_sbu_0, # of connection points: 4
#     Node 9, Type 0, BuildingBlock: KUFVIS_clean_sbu_0, # of connection points: 4
#     Node 10, Type 0, BuildingBlock: KUFVIS_clean_sbu_0, # of connection points: 4
#     Node 11, Type 0, BuildingBlock: KUFVIS_clean_sbu_0, # of connection points: 4
#     Node 12, Type 0, BuildingBlock: KUFVIS_clean_sbu_0, # of connection points: 4
#     Node 13, Type 0, BuildingBlock: KUFVIS_clean_sbu_0, # of connection points: 4
#     Node 14, Type 0, BuildingBlock: KUFVIS_clean_sbu_0, # of connection points: 4
#     Node 15, Type 0, BuildingBlock: KUFVIS_clean_sbu_0, # of connection points: 4
#     Node 16, Type 0, BuildingBlock: KUFVIS_clean_sbu_0, # of connection points: 4
#     Node 17, Type 0, BuildingBlock: KUFVIS_clean_sbu_0, # of connection points: 4
#     Node 18, Type 0, BuildingBlock: KUFVIS_clean_sbu_0, # of connection points: 4
#     Node 19, Type 0, BuildingBlock: KUFVIS_clean_sbu_0, # of connection points: 4
#     Node 20, Type 0, BuildingBlock: KUFVIS_clean_sbu_0, # of connection points: 4
#     Node 21, Type 0, BuildingBlock: KUFVIS_clean_sbu_0, # of connection points: 4
#     Node 22, Type 0, BuildingBlock: KUFVIS_clean_sbu_0, # of connection points: 4
#     Node 23, Type 0, BuildingBlock: KUFVIS_clean_sbu_0, # of connection points: 4
#     Edge 24, Type (0, 0), BuildingBlock: FUNLAD_clean_linker_0, # of connection points: 2
#     Edge 25, Type (0, 0), BuildingBlock: FUNLAD_clean_linker_0, # of connection points: 2
#     Edge 26, Type (0, 0), BuildingBlock: FUNLAD_clean_linker_0, # of connection points: 2
#     Edge 27, Type (0, 0), BuildingBlock: FUNLAD_clean_linker_0, # of connection points: 2
#     Edge 28, Type (0, 0), BuildingBlock: FUNLAD_clean_linker_0, # of connection points: 2
#     Edge 29, Type (0, 0), BuildingBlock: FUNLAD_clean_linker_0, # of connection points: 2
#     Edge 30, Type (0, 0), BuildingBlock: FUNLAD_clean_linker_0, # of connection points: 2
#     Edge 31, Type (0, 0), BuildingBlock: FUNLAD_clean_linker_0, # of connection points: 2
#     Edge 32, Type (0, 0), BuildingBlock: FUNLAD_clean_linker_0, # of connection points: 2
#     Edge 33, Type (0, 0), BuildingBlock: FUNLAD_clean_linker_0, # of connection points: 2
#     Edge 34, Type (0, 0), BuildingBlock: FUNLAD_clean_linker_0, # of connection points: 2
#     Edge 35, Type (0, 0), BuildingBlock: FUNLAD_clean_linker_0, # of connection points: 2
#     Edge 36, Type (0, 0), BuildingBlock: FUNLAD_clean_linker_0, # of connection points: 2
#     Edge 37, Type (0, 0), BuildingBlock: FUNLAD_clean_linker_0, # of connection points: 2
#     Edge 38, Type (0, 0), BuildingBlock: FUNLAD_clean_linker_0, # of connection points: 2
#     Edge 39, Type (0, 0), BuildingBlock: FUNLAD_clean_linker_0, # of connection points: 2
#     Edge 40, Type (0, 0), BuildingBlock: FUNLAD_clean_linker_0, # of connection points: 2
#     Edge 41, Type (0, 0), BuildingBlock: FUNLAD_clean_linker_0, # of connection points: 2
#     Edge 42, Type (0, 0), BuildingBlock: FUNLAD_clean_linker_0, # of connection points: 2
#     Edge 43, Type (0, 0), BuildingBlock: FUNLAD_clean_linker_0, # of connection points: 2
#     Edge 44, Type (0, 0), BuildingBlock: FUNLAD_clean_linker_0, # of connection points: 2
#     Edge 45, Type (0, 0), BuildingBlock: FUNLAD_clean_linker_0, # of connection points: 2
#     Edge 46, Type (0, 0), BuildingBlock: FUNLAD_clean_linker_0, # of connection points: 2
#     Edge 47, Type (0, 0), BuildingBlock: FUNLAD_clean_linker_0, # of connection points: 2
#     Edge 48, Type (0, 0), BuildingBlock: FUNLAD_clean_linker_0, # of connection points: 2
#     Edge 49, Type (0, 0), BuildingBlock: FUNLAD_clean_linker_0, # of connection points: 2
#     Edge 50, Type (0, 0), BuildingBlock: FUNLAD_clean_linker_0, # of connection points: 2
#     Edge 51, Type (0, 0), BuildingBlock: FUNLAD_clean_linker_0, # of connection points: 2
#     Edge 52, Type (0, 0), BuildingBlock: FUNLAD_clean_linker_0, # of connection points: 2
#     Edge 53, Type (0, 0), BuildingBlock: FUNLAD_clean_linker_0, # of connection points: 2
#     Edge 54, Type (0, 0), BuildingBlock: FUNLAD_clean_linker_0, # of connection points: 2
#     Edge 55, Type (0, 0), BuildingBlock: FUNLAD_clean_linker_0, # of connection points: 2
#     Edge 56, Type (0, 0), BuildingBlock: FUNLAD_clean_linker_0, # of connection points: 2
#     Edge 57, Type (0, 0), BuildingBlock: FUNLAD_clean_linker_0, # of connection points: 2
#     Edge 58, Type (0, 0), BuildingBlock: FUNLAD_clean_linker_0, # of connection points: 2
#     Edge 59, Type (0, 0), BuildingBlock: FUNLAD_clean_linker_0, # of connection points: 2
#     Edge 60, Type (0, 0), BuildingBlock: FUNLAD_clean_linker_0, # of connection points: 2
#     Edge 61, Type (0, 0), BuildingBlock: FUNLAD_clean_linker_0, # of connection points: 2
#     Edge 62, Type (0, 0), BuildingBlock: FUNLAD_clean_linker_0, # of connection points: 2
#     Edge 63, Type (0, 0), BuildingBlock: FUNLAD_clean_linker_0, # of connection points: 2
#     Edge 64, Type (0, 0), BuildingBlock: FUNLAD_clean_linker_0, # of connection points: 2
#     Edge 65, Type (0, 0), BuildingBlock: FUNLAD_clean_linker_0, # of connection points: 2
#     Edge 66, Type (0, 0), BuildingBlock: FUNLAD_clean_linker_0, # of connection points: 2
#     Edge 67, Type (0, 0), BuildingBlock: FUNLAD_clean_linker_0, # of connection points: 2
#     Edge 68, Type (0, 0), BuildingBlock: FUNLAD_clean_linker_0, # of connection points: 2
#     Edge 69, Type (0, 0), BuildingBlock: FUNLAD_clean_linker_0, # of connection points: 2
#     Edge 70, Type (0, 0), BuildingBlock: FUNLAD_clean_linker_0, # of connection points: 2
#     Edge 71, Type (0, 0), BuildingBlock: FUNLAD_clean_linker_0, # of connection points: 2
# Relax obj value: 0.075
# Max RMSD: 0.080
# Mean RMSD: 0.080
data_MOF--net-afi--node1-KUFVIS_clean_sbu_0--edge1-FUNLAD_clean_linker_0
_symmetry_space_group_name_H-M    P1
_symmetry_Int_Tables_number       1
_symmetry_cell_setting            triclinic
loop_
_symmetry_equiv_pos_as_xyz
'x, y, z'
_cell_length_a     77.997273
_cell_length_b     78.058649
_cell_length_c     45.461688
_cell_angle_alpha  90.003991
_cell_angle_beta   90.055374
_cell_angle_gamma 120.05286
loop_
_atom_site_label
_atom_site_type_symbol
_atom_site_fract_x
_atom_site_fract_y
_atom_site_fract_z
_atom_type_partial_charge
Mn0 Mn 0.46553 0.12658 0.20184 0.0
Mn1 Mn 0.50706 0.16322 0.17042 0.0
C2 C 0.49627 0.1364 0.22216 0.0
C3 C 0.44168 0.09343 0.20914 0.0
C4 C 0.47958 0.17092 0.20781 0.0
O5 O 0.45598 0.1278 0.16031 0.0
O6 O 0.48468 0.15254 0.14202 0.0
C7 C 0.51336 0.13897 0.12636 0.0
N8 N 0.52015 0.15181 0.14945 0.0
C9 C 0.55135 0.15251 0.14916 0.0
C10 C 0.54473 0.13939 0.12525 0.0
C11 C 0.52564 0.13257 0.11384 0.0
C12 C 0.53849 0.15846 0.16061 0.0
H13 H 0.49867 0.13362 0.11759 0.0
C14 C 0.46629 0.13952 0.13957 0.0
O15 O 0.43833 0.10764 0.2159 0.0
O16 O 0.45839 0.0984 0.19628 0.0
N17 N 0.52993 0.17477 0.19536 0.0
C18 C 0.53369 0.18661 0.21936 0.0
C19 C 0.55199 0.19429 0.23386 0.0
C20 C 0.56628 0.18985 0.22343 0.0
C21 C 0.56217 0.17786 0.19847 0.0
C22 C 0.54373 0.17075 0.18479 0.0
H23 H 0.52276 0.19004 0.22751 0.0
O24 O 0.48043 0.1277 0.23821 0.0
O25 O 0.49373 0.13922 0.1947 0.0
O26 O 0.46714 0.15279 0.21308 0.0
O27 O 0.495 0.1765 0.192 0.0
C28 C 0.57548 0.17234 0.187 0.0
C29 C 0.57006 0.15964 0.1624 0.0
H30 H 0.55412 0.13433 0.11564 0.0
H31 H 0.5204 0.12236 0.09549 0.0
H32 H 0.55505 0.20353 0.25312 0.0
H33 H 0.58029 0.19563 0.23487 0.0
H34 H 0.58981 0.17753 0.1972 0.0
H35 H 0.58031 0.15528 0.15405 0.0
Mn36 Mn 0.35107 0.4659 0.20086 0.0
Mn37 Mn 0.355 0.50678 0.16893 0.0
C38 C 0.37124 0.49685 0.22118 0.0
C39 C 0.36224 0.44343 0.20772 0.0
C40 C 0.31966 0.47857 0.20571 0.0
O41 O 0.34065 0.45607 0.15939 0.0
O42 O 0.34378 0.48431 0.14065 0.0
C43 C 0.38599 0.51372 0.12533 0.0
N44 N 0.37959 0.52028 0.14824 0.0
C45 C 0.40987 0.55172 0.1484 0.0
C46 C 0.41673 0.54534 0.12467 0.0
C47 C 0.40474 0.52624 0.11312 0.0
C48 C 0.391 0.53863 0.15952 0.0
H49 H 0.37688 0.49901 0.11649 0.0
C50 C 0.33886 0.46603 0.1385 0.0
O51 O 0.34432 0.43891 0.21477 0.0
O52 O 0.37313 0.46044 0.19521 0.0
N53 N 0.36578 0.52965 0.19379 0.0
C54 C 0.3574 0.53315 0.21763 0.0
C55 C 0.36771 0.55142 0.23227 0.0
C56 C 0.38645 0.56591 0.22216 0.0
C57 C 0.39467 0.56205 0.19738 0.0
C58 C 0.38363 0.54364 0.18353 0.0
H59 H 0.34302 0.52204 0.22556 0.0
O60 O 0.3644 0.4811 0.23735 0.0
O61 O 0.3659 0.49404 0.19372 0.0
O62 O 0.3256 0.46634 0.21136 0.0
O63 O 0.32962 0.49416 0.19027 0.0
C64 C 0.41356 0.57557 0.18625 0.0
C65 C 0.42117 0.5704 0.16181 0.0
H66 H 0.43123 0.5549 0.11531 0.0
H67 H 0.40998 0.52117 0.09491 0.0
H68 H 0.36127 0.55428 0.25139 0.0
H69 H 0.39446 0.57989 0.23371 0.0
H70 H 0.42249 0.58988 0.19661 0.0
H71 H 0.43583 0.58082 0.15373 0.0
Mn72 Mn 0.89379 0.34341 0.20575 0.0
Mn73 Mn 0.85879 0.3494 0.17103 0.0
C74 C 0.88312 0.36383 0.22552 0.0
C75 C 0.92667 0.35245 0.21554 0.0
C76 C 0.84932 0.31272 0.20616 0.0
O77 O 0.89454 0.33408 0.16399 0.0
O78 O 0.87109 0.33908 0.14317 0.0
C79 C 0.88488 0.38175 0.13053 0.0
N80 N 0.87094 0.37467 0.15216 0.0
C81 C 0.86963 0.40483 0.15277 0.0
C82 C 0.88389 0.41239 0.13038 0.0
C83 C 0.89157 0.40082 0.11926 0.0
C84 C 0.86346 0.38569 0.16303 0.0
H85 H 0.89087 0.37293 0.12197 0.0
C86 C 0.88416 0.33372 0.14194 0.0
O87 O 0.91218 0.33476 0.22102 0.0
O88 O 0.92216 0.36464 0.20306 0.0
N89 N 0.84587 0.35953 0.19539 0.0
C90 C 0.83308 0.35051 0.21812 0.0
C91 C 0.8245 0.36037 0.2323 0.0
C92 C 0.82905 0.37932 0.22286 0.0
C93 C 0.84209 0.38822 0.19923 0.0
C94 C 0.85009 0.37762 0.18581 0.0
H95 H 0.82955 0.33596 0.22551 0.0
O96 O 0.89098 0.35615 0.24226 0.0
O97 O 0.88152 0.35919 0.19781 0.0
O98 O 0.86712 0.31828 0.21366 0.0
O99 O 0.84465 0.32324 0.19024 0.0
C100 C 0.84779 0.40735 0.18886 0.0
C101 C 0.86158 0.41566 0.16569 0.0
H102 H 0.88917 0.42713 0.12173 0.0
H103 H 0.90264 0.40659 0.10207 0.0
H104 H 0.81447 0.35342 0.25055 0.0
H105 H 0.82256 0.38697 0.23405 0.0
H106 H 0.8419 0.41592 0.19886 0.0
H107 H 0.86609 0.43051 0.15823 0.0
Mn108 Mn 0.55551 0.89178 0.19869 0.0
Mn109 Mn 0.5137 0.85498 0.16802 0.0
C110 C 0.525 0.88154 0.22028 0.0
C111 C 0.57929 0.92517 0.20456 0.0
C112 C 0.54255 0.84769 0.2029 0.0
O113 O 0.56426 0.8907 0.15663 0.0
O114 O 0.5352 0.86661 0.13825 0.0
C115 C 0.50507 0.87893 0.12653 0.0
N116 N 0.49935 0.86587 0.14929 0.0
C117 C 0.46756 0.86384 0.15189 0.0
C118 C 0.47307 0.87718 0.12836 0.0
C119 C 0.49192 0.88478 0.11567 0.0
C120 C 0.48125 0.85848 0.16168 0.0
H121 H 0.51956 0.88486 0.11677 0.0
C122 C 0.55358 0.87964 0.13554 0.0
O123 O 0.58308 0.91122 0.21113 0.0
O124 O 0.562 0.91973 0.19333 0.0
N125 N 0.49168 0.84262 0.19442 0.0
C126 C 0.4891 0.83081 0.21803 0.0
C127 C 0.47123 0.82246 0.23377 0.0
C128 C 0.45616 0.82623 0.22498 0.0
C129 C 0.45907 0.83827 0.20044 0.0
C130 C 0.47714 0.84607 0.18548 0.0
H131 H 0.50064 0.82788 0.22491 0.0
O132 O 0.5411 0.89047 0.23583 0.0
O133 O 0.52722 0.87875 0.19271 0.0
O134 O 0.55457 0.86577 0.20921 0.0
O135 O 0.52705 0.84211 0.18724 0.0
C136 C 0.44492 0.84315 0.1906 0.0
C137 C 0.44917 0.85596 0.16638 0.0
H138 H 0.46301 0.88181 0.12002 0.0
H139 H 0.49631 0.89516 0.09759 0.0
H140 H 0.4691 0.81321 0.25271 0.0
H141 H 0.44247 0.81992 0.23735 0.0
H142 H 0.43084 0.8374 0.2018 0.0
H143 H 0.4383 0.85986 0.15933 0.0
Mn144 Mn 0.67298 0.54712 0.19749 0.0
Mn145 Mn 0.66787 0.50794 0.1585 0.0
C146 C 0.65137 0.51514 0.21312 0.0
C147 C 0.66402 0.57073 0.20916 0.0
C148 C 0.70345 0.53319 0.19714 0.0
O149 O 0.68405 0.55926 0.15712 0.0
O150 O 0.67885 0.53174 0.13295 0.0
C151 C 0.63662 0.50334 0.11686 0.0
N152 N 0.6431 0.49562 0.1381 0.0
C153 C 0.61288 0.4642 0.13566 0.0
C154 C 0.60593 0.47178 0.11364 0.0
C155 C 0.61785 0.49144 0.10424 0.0
C156 C 0.63177 0.4767 0.14727 0.0
H157 H 0.6457 0.51846 0.10964 0.0
C158 C 0.68464 0.55028 0.13391 0.0
O159 O 0.68136 0.57335 0.21573 0.0
O160 O 0.65219 0.55484 0.19454 0.0
N161 N 0.65709 0.48395 0.18077 0.0
C162 C 0.66543 0.47934 0.20353 0.0
C163 C 0.6551 0.46042 0.21623 0.0
C164 C 0.63637 0.44643 0.20532 0.0
C165 C 0.62816 0.45148 0.18174 0.0
C166 C 0.63921 0.47051 0.16983 0.0
H167 H 0.6798 0.49006 0.21206 0.0
O168 O 0.65852 0.5297 0.23174 0.0
O169 O 0.65731 0.51968 0.1861 0.0
O170 O 0.69747 0.5447 0.20648 0.0
O171 O 0.69364 0.51918 0.17892 0.0
C172 C 0.60926 0.43852 0.17002 0.0
C173 C 0.60162 0.44488 0.147 0.0
H174 H 0.5914 0.4627 0.10399 0.0
H175 H 0.61255 0.49743 0.08735 0.0
H176 H 0.66152 0.45666 0.23447 0.0
H177 H 0.62837 0.43193 0.21537 0.0
H178 H 0.60034 0.42374 0.17886 0.0
H179 H 0.58695 0.43488 0.13848 0.0
Mn180 Mn 0.1277 0.66503 0.19759 0.0
Mn181 Mn 0.16547 0.66398 0.16293 0.0
C182 C 0.13921 0.64464 0.21449 0.0
C183 C 0.09387 0.65309 0.20438 0.0
C184 C 0.17132 0.69737 0.20339 0.0
O185 O 0.12812 0.67706 0.15743 0.0
O186 O 0.15291 0.67457 0.13603 0.0
C187 C 0.14254 0.63359 0.11787 0.0
N188 N 0.15554 0.64004 0.1408 0.0
C189 C 0.15899 0.61112 0.1382 0.0
C190 C 0.14573 0.60422 0.11444 0.0
C191 C 0.13745 0.6155 0.10427 0.0
C192 C 0.16362 0.62933 0.15074 0.0
H193 H 0.13608 0.64217 0.11005 0.0
C194 C 0.13926 0.67917 0.13548 0.0
O195 O 0.10708 0.67066 0.21317 0.0
O196 O 0.1003 0.64291 0.19047 0.0
N197 N 0.17864 0.65375 0.18654 0.0
C198 C 0.19017 0.66187 0.21083 0.0
C199 C 0.19903 0.65207 0.22439 0.0
C200 C 0.19603 0.6341 0.21276 0.0
C201 C 0.18424 0.62611 0.18761 0.0
C202 C 0.17591 0.63662 0.17491 0.0
H203 H 0.19247 0.67564 0.21992 0.0
O204 O 0.12981 0.65021 0.23203 0.0
O205 O 0.14176 0.65134 0.18775 0.0
O206 O 0.15314 0.69019 0.21038 0.0
O207 O 0.17735 0.68893 0.1855 0.0
C208 C 0.18007 0.60792 0.17503 0.0
C209 C 0.16745 0.60043 0.15035 0.0
H210 H 0.14166 0.59021 0.10402 0.0
H211 H 0.12714 0.61023 0.08603 0.0
H212 H 0.20808 0.6583 0.24383 0.0
H213 H 0.20273 0.62648 0.22346 0.0
H214 H 0.18624 0.59943 0.18444 0.0
H215 H 0.16412 0.5863 0.14114 0.0
Mn216 Mn 0.89081 0.54638 0.31333 0.0
Mn217 Mn 0.8557 0.50532 0.34761 0.0
C218 C 0.88019 0.5154 0.29323 0.0
C219 C 0.92394 0.57009 0.30486 0.0
C220 C 0.84649 0.53294 0.31298 0.0
O221 O 0.89124 0.55621 0.35517 0.0
O222 O 0.86828 0.52758 0.37613 0.0
C223 C 0.88152 0.4981 0.38735 0.0
N224 N 0.86761 0.4917 0.36565 0.0
C225 C 0.86612 0.46017 0.36339 0.0
C226 C 0.88034 0.46639 0.38584 0.0
C227 C 0.88809 0.48545 0.39783 0.0
C228 C 0.86003 0.47337 0.35398 0.0
H229 H 0.88758 0.51277 0.39653 0.0
C230 C 0.88119 0.54608 0.37734 0.0
O231 O 0.90971 0.57364 0.29898 0.0
O232 O 0.91895 0.55312 0.31676 0.0
N233 N 0.8426 0.48267 0.32244 0.0
C234 C 0.82998 0.47945 0.29964 0.0
C235 C 0.82143 0.46132 0.28454 0.0
C236 C 0.82586 0.44668 0.29312 0.0
C237 C 0.83877 0.45028 0.31679 0.0
C238 C 0.84672 0.46857 0.33117 0.0
H239 H 0.82657 0.49067 0.29289 0.0
O240 O 0.88828 0.53103 0.27668 0.0
O241 O 0.87839 0.51836 0.32089 0.0
O242 O 0.86421 0.54488 0.30478 0.0
O243 O 0.84182 0.51793 0.32932 0.0
C244 C 0.8444 0.43661 0.32628 0.0
C245 C 0.85807 0.44156 0.34954 0.0
H246 H 0.88555 0.45673 0.39385 0.0
H247 H 0.89915 0.49039 0.41506 0.0
H248 H 0.81152 0.45867 0.26625 0.0
H249 H 0.8194 0.4328 0.28122 0.0
H250 H 0.83855 0.42238 0.3155 0.0
H251 H 0.86253 0.43105 0.3563 0.0
Mn252 Mn 0.34961 0.88835 0.30951 0.0
Mn253 Mn 0.35485 0.85236 0.34233 0.0
C254 C 0.37039 0.87822 0.28956 0.0
C255 C 0.35863 0.92129 0.30086 0.0
C256 C 0.31885 0.84401 0.3062 0.0
O257 O 0.33957 0.88801 0.35126 0.0
O258 O 0.34423 0.86402 0.3708 0.0
C259 C 0.38666 0.8772 0.38454 0.0
N260 N 0.37988 0.86393 0.36199 0.0
C261 C 0.41019 0.86287 0.36095 0.0
C262 C 0.41744 0.87644 0.38429 0.0
C263 C 0.40563 0.88365 0.3961 0.0
C264 C 0.39111 0.85687 0.35048 0.0
H265 H 0.37767 0.88285 0.39361 0.0
C266 C 0.33889 0.87708 0.37275 0.0
O267 O 0.34101 0.90685 0.29484 0.0
O268 O 0.3707 0.91672 0.31362 0.0
N269 N 0.36529 0.84011 0.31718 0.0
C270 C 0.35656 0.828 0.29363 0.0
C271 C 0.36669 0.81997 0.27871 0.0
C272 C 0.38561 0.82439 0.28824 0.0
C273 C 0.39421 0.83674 0.31269 0.0
C274 C 0.38334 0.84417 0.32684 0.0
H275 H 0.34205 0.8246 0.28614 0.0
O276 O 0.36299 0.88648 0.2731 0.0
O277 O 0.36522 0.87588 0.31708 0.0
O278 O 0.32478 0.86199 0.29966 0.0
O279 O 0.32883 0.83873 0.32227 0.0
C280 C 0.4133 0.84231 0.32319 0.0
C281 C 0.4213 0.85538 0.34728 0.0
H282 H 0.43212 0.88155 0.39314 0.0
H283 H 0.41117 0.8942 0.41402 0.0
H284 H 0.35997 0.81048 0.25982 0.0
H285 H 0.39346 0.81835 0.27647 0.0
H286 H 0.42209 0.83688 0.31259 0.0
H287 H 0.43611 0.85979 0.35485 0.0
Mn288 Mn 0.46791 0.348 0.32221 0.0
Mn289 Mn 0.5083 0.35136 0.35547 0.0
C290 C 0.49928 0.36887 0.30359 0.0
C291 C 0.44436 0.35776 0.3151 0.0
C292 C 0.48068 0.31677 0.31697 0.0
O293 O 0.45752 0.33683 0.36326 0.0
O294 O 0.48569 0.34054 0.38334 0.0
C295 C 0.51554 0.38231 0.39937 0.0
N296 N 0.52206 0.37579 0.37655 0.0
C297 C 0.55411 0.40531 0.37782 0.0
C298 C 0.54777 0.41229 0.40145 0.0
C299 C 0.52839 0.40075 0.41222 0.0
C300 C 0.54067 0.38678 0.36599 0.0
H301 H 0.50064 0.37351 0.40768 0.0
C302 C 0.46733 0.33547 0.38482 0.0
O303 O 0.4409 0.34027 0.30769 0.0
O304 O 0.4612 0.36933 0.32787 0.0
N305 N 0.53134 0.36188 0.33103 0.0
C306 C 0.53477 0.35352 0.30707 0.0
C307 C 0.55329 0.36347 0.29309 0.0
C308 C 0.56813 0.3818 0.30399 0.0
C309 C 0.56432 0.39001 0.32884 0.0
C310 C 0.54563 0.37936 0.34198 0.0
H311 H 0.52342 0.33944 0.29858 0.0
O312 O 0.48383 0.36234 0.28669 0.0
O313 O 0.49594 0.36284 0.33071 0.0
O314 O 0.46902 0.32322 0.31057 0.0
O315 O 0.49561 0.32594 0.33396 0.0
C316 C 0.57821 0.40853 0.34073 0.0
C317 C 0.57309 0.41618 0.36518 0.0
H318 H 0.5576 0.42655 0.41133 0.0
H319 H 0.52336 0.40608 0.43037 0.0
H320 H 0.5561 0.35705 0.27389 0.0
H321 H 0.58233 0.38952 0.29297 0.0
H322 H 0.59275 0.41714 0.33095 0.0
H323 H 0.58379 0.43057 0.37385 0.0
Mn324 Mn 0.13093 0.46398 0.31891 0.0
Mn325 Mn 0.16364 0.50382 0.35835 0.0
C326 C 0.13972 0.49564 0.30367 0.0
C327 C 0.09872 0.43932 0.30717 0.0
C328 C 0.17608 0.48118 0.31793 0.0
O329 O 0.1307 0.45168 0.3587 0.0
O330 O 0.15297 0.4794 0.38252 0.0
C331 C 0.13544 0.5042 0.40152 0.0
N332 N 0.14954 0.5136 0.38051 0.0
C333 C 0.14789 0.54341 0.38603 0.0
C334 C 0.13344 0.53408 0.40788 0.0
C335 C 0.12716 0.51438 0.4156 0.0
C336 C 0.15565 0.53254 0.37285 0.0
H337 H 0.13053 0.48904 0.40746 0.0
C338 C 0.1409 0.46071 0.38142 0.0
O339 O 0.11395 0.43764 0.30018 0.0
O340 O 0.10214 0.45484 0.32221 0.0
N341 N 0.17514 0.52855 0.33789 0.0
C342 C 0.18854 0.53509 0.3155 0.0
C343 C 0.196 0.55439 0.30469 0.0
C344 C 0.18975 0.56681 0.31717 0.0
C345 C 0.17616 0.55984 0.34046 0.0
C346 C 0.16935 0.54052 0.35046 0.0
H347 H 0.19339 0.52561 0.3058 0.0
O348 O 0.13286 0.48115 0.28497 0.0
O349 O 0.14135 0.49126 0.33073 0.0
O350 O 0.15865 0.46821 0.30978 0.0
O351 O 0.17952 0.49515 0.33584 0.0
C352 C 0.16881 0.57117 0.35376 0.0
C353 C 0.15465 0.56294 0.37649 0.0
H354 H 0.12696 0.54185 0.4187 0.0
H355 H 0.11595 0.50705 0.43233 0.0
H356 H 0.20649 0.55965 0.2867 0.0
H357 H 0.19538 0.58161 0.30856 0.0
H358 H 0.17373 0.58612 0.3464 0.0
H359 H 0.14891 0.57171 0.38628 0.0
Mn360 Mn 0.66923 0.12695 0.31653 0.0
Mn361 Mn 0.66265 0.16188 0.34992 0.0
C362 C 0.64889 0.13731 0.29563 0.0
C363 C 0.65912 0.09359 0.3087 0.0
C364 C 0.69959 0.17142 0.31513 0.0
O365 O 0.67866 0.12685 0.35845 0.0
O366 O 0.6729 0.14993 0.37857 0.0
C367 C 0.63 0.13581 0.39001 0.0
N368 N 0.63718 0.14963 0.36822 0.0
C369 C 0.6067 0.15033 0.36609 0.0
C370 C 0.59903 0.1362 0.38865 0.0
C371 C 0.61073 0.12889 0.40062 0.0
C372 C 0.62605 0.15676 0.35654 0.0
H373 H 0.6389 0.13008 0.39919 0.0
C374 C 0.67863 0.13716 0.38028 0.0
O375 O 0.67703 0.10746 0.30243 0.0
O376 O 0.64762 0.09911 0.32071 0.0
N377 N 0.65256 0.17449 0.32479 0.0
C378 C 0.66175 0.18724 0.30207 0.0
C379 C 0.65182 0.19548 0.28713 0.0
C380 C 0.63264 0.19064 0.29579 0.0
C381 C 0.62357 0.17766 0.31943 0.0
C382 C 0.63425 0.17002 0.33365 0.0
H383 H 0.67647 0.19097 0.29524 0.0
O384 O 0.65654 0.12914 0.27953 0.0
O385 O 0.65342 0.13924 0.32339 0.0
O386 O 0.69442 0.15365 0.30779 0.0
O387 O 0.68886 0.17583 0.33103 0.0
C388 C 0.60421 0.17167 0.32905 0.0
C389 C 0.59576 0.15799 0.35232 0.0
H390 H 0.58413 0.13074 0.39677 0.0
H391 H 0.60488 0.11791 0.41793 0.0
H392 H 0.65891 0.20546 0.26888 0.0
H393 H 0.62494 0.19685 0.28401 0.0
H394 H 0.59556 0.17725 0.31839 0.0
H395 H 0.58075 0.15327 0.3592 0.0
Mn396 Mn 0.55729 0.66991 0.30625 0.0
Mn397 Mn 0.51661 0.66552 0.33991 0.0
C398 C 0.52607 0.64882 0.28752 0.0
C399 C 0.58096 0.66043 0.29825 0.0
C400 C 0.54337 0.70034 0.30131 0.0
O401 O 0.56786 0.68127 0.34716 0.0
O402 O 0.53963 0.67744 0.36714 0.0
C403 C 0.51118 0.63531 0.38404 0.0
N404 N 0.50391 0.64122 0.3614 0.0
C405 C 0.47261 0.61083 0.36324 0.0
C406 C 0.47972 0.60447 0.3867 0.0
C407 C 0.4991 0.61676 0.39711 0.0
C408 C 0.48529 0.62951 0.35119 0.0
H409 H 0.52609 0.64467 0.39203 0.0
C410 C 0.55809 0.68291 0.36848 0.0
O411 O 0.58418 0.67787 0.29098 0.0
O412 O 0.56445 0.64888 0.31173 0.0
N413 N 0.49318 0.65408 0.31617 0.0
C414 C 0.48891 0.66202 0.29252 0.0
C415 C 0.47024 0.65138 0.27902 0.0
C416 C 0.45612 0.63279 0.29011 0.0
C417 C 0.46076 0.62505 0.31472 0.0
C418 C 0.47955 0.63639 0.32739 0.0
H419 H 0.49971 0.6763 0.28388 0.0
O420 O 0.54153 0.65564 0.27069 0.0
O421 O 0.52927 0.65455 0.31483 0.0
O422 O 0.55553 0.69446 0.29505 0.0
O423 O 0.52834 0.69069 0.31793 0.0
C424 C 0.44763 0.60635 0.3268 0.0
C425 C 0.45357 0.59923 0.351 0.0
H426 H 0.47049 0.59013 0.39675 0.0
H427 H 0.50473 0.61191 0.41511 0.0
H428 H 0.46678 0.65746 0.26003 0.0
H429 H 0.44182 0.62453 0.27944 0.0
H430 H 0.43304 0.5972 0.31738 0.0
H431 H 0.44345 0.58471 0.35983 0.0
Mn432 Mn 0.55414 0.88934 0.81151 0.0
Mn433 Mn 0.5117 0.85456 0.84347 0.0
C434 C 0.5237 0.88105 0.79113 0.0
C435 C 0.57908 0.92238 0.8056 0.0
C436 C 0.53767 0.84443 0.80626 0.0
O437 O 0.56342 0.88751 0.8529 0.0
O438 O 0.53409 0.86432 0.87173 0.0
C439 C 0.50739 0.88041 0.8869 0.0
N440 N 0.49985 0.86729 0.86421 0.0
C441 C 0.46939 0.86806 0.86504 0.0
C442 C 0.47677 0.88148 0.88856 0.0
C443 C 0.49587 0.88772 0.89947 0.0
C444 C 0.48153 0.86125 0.85346 0.0
H445 H 0.52207 0.88528 0.89531 0.0
C446 C 0.55276 0.87638 0.87388 0.0
O447 O 0.58177 0.90789 0.79776 0.0
O448 O 0.56231 0.91767 0.81791 0.0
N449 N 0.48869 0.84376 0.81886 0.0
C450 C 0.48412 0.83146 0.79525 0.0
C451 C 0.46569 0.82421 0.7813 0.0
C452 C 0.45208 0.82951 0.79193 0.0
C453 C 0.45699 0.84195 0.81651 0.0
C454 C 0.47553 0.84863 0.82962 0.0
H455 H 0.49452 0.82733 0.78698 0.0
O456 O 0.53958 0.88913 0.77514 0.0
O457 O 0.52603 0.87805 0.81859 0.0
O458 O 0.55103 0.86223 0.80041 0.0
O459 O 0.52253 0.84014 0.8221 0.0
C460 C 0.44437 0.8483 0.82819 0.0
C461 C 0.4506 0.8614 0.85236 0.0
H462 H 0.46797 0.88721 0.89825 0.0
H463 H 0.50171 0.89815 0.91752 0.0
H464 H 0.46201 0.81461 0.76234 0.0
H465 H 0.43795 0.82405 0.78093 0.0
H466 H 0.42997 0.84342 0.81846 0.0
H467 H 0.44088 0.8664 0.86086 0.0
Mn468 Mn 0.67444 0.55351 0.80957 0.0
Mn469 Mn 0.66792 0.51313 0.84651 0.0
C470 C 0.65387 0.52212 0.79063 0.0
C471 C 0.6649 0.57702 0.79988 0.0
C472 C 0.7054 0.54046 0.81238 0.0
O473 O 0.68431 0.56418 0.85102 0.0
O474 O 0.67632 0.53555 0.87448 0.0
C475 C 0.63352 0.50534 0.88349 0.0
N476 N 0.64189 0.49911 0.86294 0.0
C477 C 0.61235 0.46714 0.85994 0.0
C478 C 0.60347 0.47318 0.88122 0.0
C479 C 0.6141 0.49237 0.893 0.0
C480 C 0.63181 0.48066 0.85148 0.0
H481 H 0.6416 0.5201 0.89249 0.0
C482 C 0.68283 0.55423 0.87418 0.0
O483 O 0.68266 0.58052 0.79396 0.0
O484 O 0.65306 0.56028 0.81248 0.0
N485 N 0.65948 0.49041 0.82183 0.0
C486 C 0.66966 0.48738 0.80004 0.0
C487 C 0.66081 0.46916 0.78516 0.0
C488 C 0.64165 0.45423 0.79292 0.0
C489 C 0.63151 0.45764 0.81554 0.0
C490 C 0.64114 0.47603 0.82974 0.0
H491 H 0.68437 0.49882 0.79391 0.0
O492 O 0.66135 0.53745 0.77346 0.0
O493 O 0.65872 0.52567 0.81821 0.0
O494 O 0.69941 0.5517 0.80179 0.0
O495 O 0.69503 0.52618 0.82997 0.0
C496 C 0.61207 0.44366 0.82411 0.0
C497 C 0.6025 0.44841 0.84628 0.0
H498 H 0.58844 0.46328 0.88845 0.0
H499 H 0.60731 0.49718 0.90931 0.0
H500 H 0.66871 0.46666 0.76767 0.0
H501 H 0.63479 0.44027 0.78118 0.0
H502 H 0.60422 0.42935 0.81343 0.0
H503 H 0.58743 0.43767 0.85232 0.0
Mn504 Mn 0.12895 0.66685 0.81627 0.0
Mn505 Mn 0.16314 0.66087 0.8536 0.0
C506 C 0.13783 0.64409 0.80046 0.0
C507 C 0.09603 0.65824 0.80688 0.0
C508 C 0.17397 0.69554 0.81285 0.0
O509 O 0.12951 0.67916 0.85625 0.0
O510 O 0.1527 0.67444 0.87861 0.0
C511 C 0.13649 0.6324 0.89827 0.0
N512 N 0.15004 0.63716 0.87638 0.0
C513 C 0.14935 0.60615 0.88177 0.0
C514 C 0.13548 0.60097 0.9045 0.0
C515 C 0.12899 0.61414 0.91273 0.0
C516 C 0.15635 0.62458 0.86824 0.0
H517 H 0.13143 0.64246 0.90462 0.0
C518 C 0.14036 0.68074 0.87834 0.0
O519 O 0.11072 0.67533 0.79909 0.0
O520 O 0.10046 0.64662 0.82121 0.0
N521 N 0.17445 0.64784 0.83218 0.0
C522 C 0.1871 0.65464 0.80885 0.0
C523 C 0.19459 0.64299 0.79738 0.0
C524 C 0.18914 0.62457 0.81015 0.0
C525 C 0.17629 0.618 0.83436 0.0
C526 C 0.16941 0.63031 0.84497 0.0
H527 H 0.19132 0.66877 0.79892 0.0
O528 O 0.13033 0.65132 0.78214 0.0
O529 O 0.14015 0.65056 0.82732 0.0
O530 O 0.15627 0.69075 0.80562 0.0
O531 O 0.178 0.68527 0.83041 0.0
C532 C 0.16973 0.59953 0.84801 0.0
C533 C 0.15624 0.5936 0.87166 0.0
H534 H 0.12959 0.58686 0.91562 0.0
H535 H 0.11822 0.61021 0.93016 0.0
H536 H 0.20448 0.64816 0.77867 0.0
H537 H 0.19479 0.61554 0.80106 0.0
H538 H 0.17472 0.58966 0.8402 0.0
H539 H 0.15108 0.57925 0.88169 0.0
Mn540 Mn 0.46654 0.1233 0.81417 0.0
Mn541 Mn 0.50827 0.15964 0.84569 0.0
C542 C 0.4972 0.13339 0.79314 0.0
C543 C 0.4426 0.09 0.80739 0.0
C544 C 0.4799 0.16755 0.81063 0.0
O545 O 0.45752 0.12411 0.85621 0.0
O546 O 0.48652 0.14802 0.87509 0.0
C547 C 0.51626 0.13524 0.88722 0.0
N548 N 0.52226 0.1484 0.86457 0.0
C549 C 0.55383 0.14993 0.86226 0.0
C550 C 0.54803 0.13649 0.88569 0.0
C551 C 0.52915 0.12909 0.89819 0.0
C552 C 0.5404 0.15562 0.85239 0.0
H553 H 0.50173 0.12946 0.89682 0.0
C554 C 0.46809 0.13504 0.8775 0.0
O555 O 0.43902 0.10413 0.80109 0.0
O556 O 0.45974 0.09519 0.81897 0.0
N557 N 0.53049 0.17192 0.81964 0.0
C558 C 0.53334 0.18383 0.79606 0.0
C559 C 0.55127 0.19198 0.78048 0.0
C560 C 0.5661 0.18789 0.78938 0.0
C561 C 0.5629 0.17574 0.81387 0.0
C562 C 0.5448 0.16815 0.82868 0.0
H563 H 0.52198 0.18699 0.78907 0.0
O564 O 0.48124 0.12479 0.77725 0.0
O565 O 0.49476 0.13603 0.82069 0.0
O566 O 0.4678 0.14954 0.80404 0.0
O567 O 0.49531 0.17289 0.82641 0.0
C568 C 0.57679 0.17051 0.82378 0.0
C569 C 0.57225 0.15759 0.84793 0.0
H570 H 0.55788 0.13161 0.89409 0.0
H571 H 0.52453 0.11863 0.91618 0.0
H572 H 0.55361 0.20132 0.76157 0.0
H573 H 0.57982 0.19404 0.77711 0.0
H574 H 0.59088 0.17607 0.81268 0.0
H575 H 0.58292 0.15343 0.85505 0.0
Mn576 Mn 0.35165 0.46987 0.81601 0.0
Mn577 Mn 0.35339 0.50857 0.85207 0.0
C578 C 0.37117 0.50188 0.79856 0.0
C579 C 0.36403 0.44849 0.80731 0.0
C580 C 0.3184 0.48007 0.81459 0.0
O581 O 0.34122 0.45839 0.85694 0.0
O582 O 0.34425 0.48569 0.87913 0.0
C583 C 0.38573 0.51709 0.89407 0.0
N584 N 0.37817 0.52319 0.87208 0.0
C585 C 0.40682 0.55586 0.87267 0.0
C586 C 0.41486 0.54997 0.89545 0.0
C587 C 0.40428 0.53049 0.90616 0.0
C588 C 0.3882 0.54191 0.86165 0.0
H589 H 0.37769 0.50211 0.90229 0.0
C590 C 0.33982 0.4675 0.87941 0.0
O591 O 0.34606 0.44366 0.79999 0.0
O592 O 0.37439 0.46527 0.82075 0.0
N593 N 0.36229 0.53168 0.82818 0.0
C594 C 0.35307 0.53459 0.80484 0.0
C595 C 0.36206 0.5531 0.79082 0.0
C596 C 0.38036 0.56844 0.80102 0.0
C597 C 0.38951 0.56513 0.8252 0.0
C598 C 0.37977 0.54642 0.83842 0.0
H599 H 0.33903 0.52282 0.79685 0.0
O600 O 0.36514 0.4869 0.78086 0.0
O601 O 0.36529 0.49765 0.82563 0.0
O602 O 0.32563 0.46942 0.806 0.0
O603 O 0.32751 0.49481 0.83193 0.0
C604 C 0.40809 0.57952 0.83629 0.0
C605 C 0.41674 0.57489 0.86001 0.0
H606 H 0.42923 0.56021 0.90469 0.0
H607 H 0.41044 0.5258 0.92363 0.0
H608 H 0.35494 0.55552 0.77212 0.0
H609 H 0.38735 0.58263 0.78997 0.0
H610 H 0.41601 0.5941 0.82644 0.0
H611 H 0.43117 0.58599 0.86804 0.0
Mn612 Mn 0.89089 0.34559 0.82077 0.0
Mn613 Mn 0.85433 0.34783 0.8573 0.0
C614 C 0.87917 0.36593 0.80415 0.0
C615 C 0.92461 0.35741 0.8121 0.0
C616 C 0.84699 0.31325 0.81839 0.0
O617 O 0.89139 0.33419 0.86115 0.0
O618 O 0.86718 0.33727 0.88356 0.0
C619 C 0.87884 0.37892 0.90058 0.0
N620 N 0.86518 0.3722 0.87851 0.0
C621 C 0.8623 0.40146 0.88092 0.0
C622 C 0.87624 0.40863 0.9038 0.0
C623 C 0.88457 0.39732 0.91363 0.0
C624 C 0.85706 0.38295 0.8689 0.0
H625 H 0.88533 0.3703 0.90811 0.0
C626 C 0.88059 0.33235 0.88344 0.0
O627 O 0.91119 0.33968 0.80423 0.0
O628 O 0.91848 0.36779 0.82613 0.0
N629 N 0.84079 0.35793 0.83429 0.0
C630 C 0.82851 0.34946 0.81082 0.0
C631 C 0.81945 0.3592 0.79767 0.0
C632 C 0.82303 0.37748 0.80888 0.0
C633 C 0.8356 0.38583 0.8332 0.0
C634 C 0.84408 0.37536 0.84553 0.0
H635 H 0.82576 0.33544 0.80208 0.0
O636 O 0.88793 0.35987 0.78619 0.0
O637 O 0.87728 0.35966 0.83106 0.0
O638 O 0.86491 0.3201 0.81005 0.0
O639 O 0.84161 0.32245 0.83592 0.0
C640 C 0.84037 0.40431 0.8453 0.0
C641 C 0.85372 0.41213 0.86913 0.0
H642 H 0.88081 0.42288 0.91379 0.0
H643 H 0.89542 0.40281 0.93117 0.0
H644 H 0.8098 0.35269 0.77887 0.0
H645 H 0.81618 0.38505 0.79849 0.0
H646 H 0.8341 0.41279 0.83616 0.0
H647 H 0.8575 0.42649 0.87796 0.0
Mn648 Mn 0.12787 0.46162 0.70078 0.0
Mn649 Mn 0.1629 0.50135 0.6638 0.0
C650 C 0.13839 0.49342 0.71767 0.0
C651 C 0.09467 0.43824 0.71028 0.0
C652 C 0.17224 0.47503 0.70159 0.0
O653 O 0.12734 0.45018 0.66 0.0
O654 O 0.15033 0.47805 0.63725 0.0
C655 C 0.13714 0.50703 0.62181 0.0
N656 N 0.15101 0.51425 0.64357 0.0
C657 C 0.15276 0.5459 0.64202 0.0
C658 C 0.13857 0.53884 0.61948 0.0
C659 C 0.1307 0.51931 0.60937 0.0
C660 C 0.1587 0.53302 0.65344 0.0
H661 H 0.13101 0.49201 0.61404 0.0
C662 C 0.13745 0.45953 0.63736 0.0
O663 O 0.10891 0.43495 0.71726 0.0
O664 O 0.09967 0.45471 0.69675 0.0
N665 N 0.17599 0.52491 0.68711 0.0
C666 C 0.18854 0.52898 0.71028 0.0
C667 C 0.19717 0.54768 0.7237 0.0
C668 C 0.19288 0.56202 0.71308 0.0
C669 C 0.18002 0.55753 0.68907 0.0
C670 C 0.17197 0.53869 0.67646 0.0
H671 H 0.19185 0.51799 0.71858 0.0
O672 O 0.13049 0.47853 0.73568 0.0
O673 O 0.14022 0.48926 0.69062 0.0
O674 O 0.15456 0.46342 0.71036 0.0
O675 O 0.1768 0.48948 0.6841 0.0
C676 C 0.17454 0.57087 0.67757 0.0
C677 C 0.16092 0.56506 0.65406 0.0
H678 H 0.13347 0.54823 0.60996 0.0
H679 H 0.11967 0.51373 0.59208 0.0
H680 H 0.20705 0.55102 0.74227 0.0
H681 H 0.19942 0.57637 0.72367 0.0
H682 H 0.18046 0.58552 0.68694 0.0
H683 H 0.15659 0.57534 0.64571 0.0
Mn684 Mn 0.67215 0.12491 0.70402 0.0
Mn685 Mn 0.6659 0.16067 0.67254 0.0
C686 C 0.65082 0.13412 0.72474 0.0
C687 C 0.66314 0.09162 0.70974 0.0
C688 C 0.70244 0.16939 0.70776 0.0
O689 O 0.68276 0.12645 0.6623 0.0
O690 O 0.67679 0.14975 0.64334 0.0
C691 C 0.63394 0.13581 0.63059 0.0
N692 N 0.64074 0.14895 0.65331 0.0
C693 C 0.61032 0.14977 0.65501 0.0
C694 C 0.60304 0.13634 0.6315 0.0
C695 C 0.61489 0.1293 0.61929 0.0
C696 C 0.62945 0.15581 0.66524 0.0
H697 H 0.643 0.13032 0.62122 0.0
C698 C 0.683 0.13739 0.64116 0.0
O699 O 0.68058 0.10581 0.71729 0.0
O700 O 0.65126 0.09674 0.69783 0.0
N701 N 0.65536 0.17244 0.69844 0.0
C702 C 0.66414 0.18442 0.72208 0.0
C703 C 0.65399 0.19226 0.73742 0.0
C704 C 0.63501 0.18782 0.72816 0.0
C705 C 0.62637 0.17561 0.70358 0.0
C706 C 0.63725 0.16834 0.68905 0.0
H707 H 0.67872 0.18787 0.7293 0.0
O708 O 0.65826 0.12564 0.74065 0.0
O709 O 0.65619 0.13709 0.69733 0.0
O710 O 0.69685 0.1515 0.71479 0.0
O711 O 0.692 0.17429 0.69204 0.0
C712 C 0.60723 0.17005 0.69329 0.0
C713 C 0.59919 0.1571 0.66906 0.0
H714 H 0.58831 0.13119 0.62283 0.0
H715 H 0.60934 0.11885 0.60124 0.0
H716 H 0.66076 0.20165 0.75639 0.0
H717 H 0.62715 0.19373 0.74022 0.0
H718 H 0.59843 0.17537 0.70416 0.0
H719 H 0.58434 0.15268 0.66166 0.0
Mn720 Mn 0.55356 0.66946 0.69077 0.0
Mn721 Mn 0.51448 0.66757 0.65547 0.0
C722 C 0.52164 0.64978 0.70859 0.0
C723 C 0.57523 0.65737 0.69898 0.0
C724 C 0.54275 0.70227 0.6936 0.0
O725 O 0.56483 0.68003 0.64986 0.0
O726 O 0.53744 0.6773 0.62835 0.0
C727 C 0.50651 0.63584 0.61264 0.0
N728 N 0.50018 0.64302 0.63484 0.0
C729 C 0.46762 0.61419 0.63353 0.0
C730 C 0.47376 0.60654 0.61053 0.0
C731 C 0.4933 0.6174 0.60008 0.0
C732 C 0.4814 0.6327 0.64505 0.0
H733 H 0.52153 0.6441 0.60461 0.0
C734 C 0.55563 0.68167 0.62769 0.0
O735 O 0.57993 0.67526 0.70642 0.0
O736 O 0.55838 0.6469 0.68571 0.0
N737 N 0.49122 0.65813 0.67922 0.0
C738 C 0.48802 0.66703 0.70269 0.0
C739 C 0.46938 0.65776 0.71637 0.0
C740 C 0.45421 0.63953 0.7057 0.0
C741 C 0.45781 0.63074 0.68137 0.0
C742 C 0.47664 0.64074 0.66849 0.0
H743 H 0.49963 0.68102 0.71103 0.0
O744 O 0.53676 0.65585 0.72605 0.0
O745 O 0.52565 0.65565 0.68148 0.0
O746 O 0.55388 0.69534 0.70113 0.0
O747 O 0.52786 0.69309 0.67651 0.0
C748 C 0.44359 0.61226 0.66977 0.0
C749 C 0.4485 0.60398 0.64589 0.0
H750 H 0.46366 0.59227 0.60091 0.0
H751 H 0.49817 0.61155 0.58244 0.0
H752 H 0.46673 0.66462 0.73517 0.0
H753 H 0.43992 0.63233 0.7165 0.0
H754 H 0.42894 0.60414 0.67935 0.0
H755 H 0.43753 0.58963 0.63745 0.0
Mn756 Mn 0.8916 0.54788 0.69914 0.0
Mn757 Mn 0.85436 0.50857 0.66421 0.0
C758 C 0.88002 0.51603 0.71664 0.0
C759 C 0.92548 0.56984 0.7067 0.0
C760 C 0.84779 0.53646 0.70278 0.0
O761 O 0.89153 0.55919 0.65847 0.0
O762 O 0.86688 0.5316 0.63723 0.0
C763 C 0.87809 0.50127 0.62052 0.0
N764 N 0.86478 0.49468 0.643 0.0
C765 C 0.86162 0.46241 0.64115 0.0
C766 C 0.8752 0.46881 0.61784 0.0
C767 C 0.8835 0.48834 0.60753 0.0
C768 C 0.8567 0.47592 0.65309 0.0
H769 H 0.88455 0.51629 0.6126 0.0
C770 C 0.88035 0.5499 0.63662 0.0
O771 O 0.91221 0.57432 0.71472 0.0
O772 O 0.91909 0.55312 0.69314 0.0
N773 N 0.84109 0.48526 0.68793 0.0
C774 C 0.82916 0.48181 0.71169 0.0
C775 C 0.82017 0.46316 0.72529 0.0
C776 C 0.82345 0.44823 0.71423 0.0
C777 C 0.83565 0.45209 0.6896 0.0
C778 C 0.84409 0.47091 0.67682 0.0
H779 H 0.82662 0.49325 0.7203 0.0
O780 O 0.88912 0.53111 0.73412 0.0
O781 O 0.87773 0.52003 0.6897 0.0
O782 O 0.86585 0.54764 0.71043 0.0
O783 O 0.84208 0.52162 0.68564 0.0
C784 C 0.8401 0.43813 0.67758 0.0
C785 C 0.85309 0.44329 0.65339 0.0
H786 H 0.87951 0.45893 0.60789 0.0
H787 H 0.89407 0.49342 0.58966 0.0
H788 H 0.8108 0.46031 0.74432 0.0
H789 H 0.81665 0.43393 0.72496 0.0
H790 H 0.83386 0.42348 0.68707 0.0
H791 H 0.85663 0.43252 0.64463 0.0
Mn792 Mn 0.34881 0.88742 0.69727 0.0
Mn793 Mn 0.35358 0.85041 0.66744 0.0
C794 C 0.3692 0.87735 0.71895 0.0
C795 C 0.35973 0.92117 0.70288 0.0
C796 C 0.31761 0.84325 0.70274 0.0
O797 O 0.33867 0.88611 0.65532 0.0
O798 O 0.34262 0.86117 0.63793 0.0
C799 C 0.38508 0.87409 0.62427 0.0
N800 N 0.37846 0.86143 0.64756 0.0
C801 C 0.40889 0.86063 0.64959 0.0
C802 C 0.41597 0.87356 0.6255 0.0
C803 C 0.40402 0.88033 0.61282 0.0
C804 C 0.38983 0.8548 0.65991 0.0
H805 H 0.37598 0.87943 0.61457 0.0
C806 C 0.33743 0.87428 0.63486 0.0
O807 O 0.34179 0.90776 0.70989 0.0
O808 O 0.37075 0.91497 0.6911 0.0
N809 N 0.36418 0.83883 0.69364 0.0
C810 C 0.35559 0.82731 0.71774 0.0
C811 C 0.36586 0.81977 0.73351 0.0
C812 C 0.38478 0.82407 0.72426 0.0
C813 C 0.39323 0.83579 0.69922 0.0
C814 C 0.38222 0.84274 0.68422 0.0
H815 H 0.34108 0.82402 0.72501 0.0
O816 O 0.36202 0.88626 0.73441 0.0
O817 O 0.36398 0.87434 0.69146 0.0
O818 O 0.32336 0.86144 0.70803 0.0
O819 O 0.32788 0.83768 0.68796 0.0
C820 C 0.41232 0.8412 0.68891 0.0
C821 C 0.42015 0.85363 0.66414 0.0
H822 H 0.43063 0.87852 0.61672 0.0
H823 H 0.40943 0.8904 0.59432 0.0
H824 H 0.35925 0.81075 0.75284 0.0
H825 H 0.39275 0.81842 0.73669 0.0
H826 H 0.42122 0.83614 0.70016 0.0
H827 H 0.43496 0.85793 0.6567 0.0
Mn828 Mn 0.46845 0.34765 0.70729 0.0
Mn829 Mn 0.50953 0.35133 0.67612 0.0
C830 C 0.49943 0.36861 0.72713 0.0
C831 C 0.445 0.3578 0.71262 0.0
C832 C 0.48147 0.31661 0.71402 0.0
O833 O 0.4587 0.33622 0.66613 0.0
O834 O 0.48721 0.33986 0.6476 0.0
C835 C 0.51674 0.38183 0.63149 0.0
N836 N 0.52319 0.37565 0.65483 0.0
C837 C 0.55488 0.40563 0.65427 0.0
C838 C 0.54862 0.41227 0.6301 0.0
C839 C 0.52945 0.40033 0.6187 0.0
C840 C 0.5416 0.38702 0.66598 0.0
H841 H 0.502 0.37273 0.62273 0.0
C842 C 0.46882 0.33455 0.64537 0.0
O843 O 0.44119 0.34026 0.72056 0.0
O844 O 0.46205 0.36905 0.70032 0.0
N845 N 0.53229 0.36233 0.70125 0.0
C846 C 0.53562 0.35425 0.72563 0.0
C847 C 0.55391 0.36461 0.74025 0.0
C848 C 0.56861 0.38306 0.72955 0.0
C849 C 0.56491 0.39097 0.70423 0.0
C850 C 0.54646 0.37991 0.69047 0.0
H851 H 0.52436 0.34009 0.73398 0.0
O852 O 0.48367 0.36204 0.74327 0.0
O853 O 0.49662 0.3626 0.69997 0.0
O854 O 0.46947 0.32281 0.71966 0.0
O855 O 0.49681 0.32607 0.69791 0.0
C856 C 0.57865 0.40957 0.69248 0.0
C857 C 0.57363 0.41692 0.66756 0.0
H858 H 0.55833 0.42657 0.62028 0.0
H859 H 0.52448 0.40539 0.60015 0.0
H860 H 0.55664 0.35841 0.75979 0.0
H861 H 0.58261 0.39109 0.74106 0.0
H862 H 0.59301 0.41849 0.70273 0.0
H863 H 0.5842 0.43137 0.65901 0.0
C864 C 0.42984 0.05704 0.20783 0.0
C865 C 0.42849 0.07297 0.21959 0.0
C866 C 0.4193 0.0382 0.22057 0.0
C867 C 0.40755 0.03509 0.24568 0.0
C868 C 0.40594 0.05092 0.25705 0.0
C869 C 0.41605 0.06959 0.24389 0.0
C870 C 0.39813 0.01594 0.26167 0.0
C871 C 0.38971 0.99838 0.24777 0.0
C872 C 0.38085 0.97925 0.26376 0.0
C873 C 0.36359 0.96298 0.25269 0.0
C874 C 0.35575 0.9444 0.26594 0.0
C875 C 0.3654 0.94156 0.29 0.0
H876 H 0.40365 0.98888 0.29728 0.0
C877 C 0.38256 0.9579 0.30137 0.0
C878 C 0.39011 0.97665 0.28857 0.0
H879 H 0.39037 0.95611 0.31976 0.0
H880 H 0.43943 0.05925 0.18928 0.0
H881 H 0.42109 0.02634 0.2116 0.0
H882 H 0.39706 0.0489 0.27645 0.0
H883 H 0.41488 0.08162 0.25368 0.0
H884 H 0.39748 0.01632 0.28553 0.0
H885 H 0.38856 0.99793 0.22391 0.0
H886 H 0.35626 0.96461 0.23351 0.0
H887 H 0.34263 0.93206 0.25645 0.0
C888 C 0.43664 0.38504 0.30826 0.0
C889 C 0.4306 0.36482 0.30664 0.0
C890 C 0.42466 0.39208 0.29685 0.0
C891 C 0.40633 0.37901 0.28364 0.0
C892 C 0.39983 0.35868 0.28349 0.0
C893 C 0.41191 0.35166 0.2946 0.0
C894 C 0.39383 0.38623 0.26975 0.0
C895 C 0.40178 0.40379 0.25573 0.0
C896 C 0.39018 0.41185 0.24119 0.0
C897 C 0.40002 0.4275 0.22118 0.0
C898 C 0.39053 0.43699 0.20908 0.0
C899 C 0.37092 0.43114 0.2168 0.0
H900 H 0.36217 0.39364 0.26371 0.0
C901 C 0.36071 0.41496 0.23589 0.0
C902 C 0.37024 0.40541 0.24805 0.0
H903 H 0.34563 0.41021 0.24246 0.0
H904 H 0.45091 0.39555 0.31754 0.0
H905 H 0.42985 0.40777 0.29825 0.0
H906 H 0.38566 0.34828 0.27382 0.0
H907 H 0.40678 0.33597 0.29317 0.0
H908 H 0.37792 0.37629 0.26945 0.0
H909 H 0.41781 0.41263 0.254 0.0
H910 H 0.41535 0.43278 0.21542 0.0
H911 H 0.39885 0.4494 0.19445 0.0
C912 C 0.96324 0.37643 0.21486 0.0
C913 C 0.94702 0.35909 0.22601 0.0
C914 C 0.98212 0.38385 0.22718 0.0
C915 C 0.98504 0.37426 0.25125 0.0
C916 C 0.9689 0.35679 0.26205 0.0
C917 C 0.95014 0.34911 0.24929 0.0
C918 C 1.0043 0.38309 0.26702 0.0
C919 C 0.02186 0.39281 0.25315 0.0
C920 C 0.04104 0.40293 0.26917 0.0
C921 C 0.05779 0.40358 0.25665 0.0
C922 C 0.07639 0.41449 0.27001 0.0
C923 C 0.07869 0.42546 0.2957 0.0
H924 H 0.03063 0.41339 0.30544 0.0
C925 C 0.06187 0.42457 0.30852 0.0
C926 C 0.04319 0.41327 0.29554 0.0
H927 H 0.06322 0.43298 0.32821 0.0
H928 H 0.96125 0.38449 0.19705 0.0
H929 H 0.99421 0.39757 0.21871 0.0
H930 H 0.97075 0.34921 0.28069 0.0
H931 H 0.9379 0.33583 0.25856 0.0
H932 H 1.00396 0.38115 0.29073 0.0
H933 H 0.02227 0.39307 0.22925 0.0
H934 H 0.05653 0.39585 0.23625 0.0
H935 H 0.08911 0.41506 0.25944 0.0
C936 C 0.58714 0.96027 0.21021 0.0
C937 C 0.5932 0.94612 0.21234 0.0
C938 C 0.59917 0.97944 0.221 0.0
C939 C 0.61756 0.98493 0.23416 0.0
C940 C 0.62411 0.97115 0.23476 0.0
C941 C 0.61198 0.95186 0.22421 0.0
C942 C 0.62993 1.00481 0.24771 0.0
C943 C 0.62172 0.01413 0.26183 0.0
C944 C 0.63295 0.03394 0.27606 0.0
C945 C 0.62285 0.03935 0.29618 0.0
C946 C 0.63182 0.05841 0.30793 0.0
C947 C 0.65116 0.07269 0.29974 0.0
H948 H 0.66088 0.04452 0.25299 0.0
C949 C 0.66168 0.06715 0.28055 0.0
C950 C 0.65266 0.04796 0.26874 0.0
H951 H 0.67656 0.07787 0.27365 0.0
H952 H 0.57283 0.95638 0.20101 0.0
H953 H 0.59394 0.9899 0.21925 0.0
H954 H 0.63832 0.97507 0.2444 0.0
H955 H 0.61712 0.94133 0.22602 0.0
H956 H 0.64589 0.01113 0.24768 0.0
H957 H 0.60568 1.00655 0.26388 0.0
H958 H 0.60769 0.02891 0.30231 0.0
H959 H 0.62329 0.06214 0.3227 0.0
C960 C 0.59287 0.63595 0.30038 0.0
C961 C 0.59421 0.65313 0.2882 0.0
C962 C 0.60363 0.62771 0.28826 0.0
C963 C 0.61564 0.63631 0.26338 0.0
C964 C 0.61723 0.65365 0.25158 0.0
C965 C 0.60687 0.66214 0.2641 0.0
C966 C 0.62532 0.62662 0.24793 0.0
C967 C 0.63316 0.61705 0.26219 0.0
C968 C 0.64199 0.6066 0.24658 0.0
C969 C 0.65853 0.60662 0.25876 0.0
C970 C 0.66629 0.59576 0.24564 0.0
C971 C 0.65729 0.58415 0.22056 0.0
H972 H 0.62035 0.59492 0.21129 0.0
C973 C 0.64082 0.58424 0.20817 0.0
C974 C 0.63335 0.59552 0.22089 0.0
H975 H 0.63351 0.57534 0.18895 0.0
H976 H 0.58313 0.62861 0.31882 0.0
H977 H 0.60181 0.61412 0.29755 0.0
H978 H 0.6263 0.66048 0.23232 0.0
H979 H 0.60806 0.67527 0.25401 0.0
H980 H 0.62653 0.62794 0.22412 0.0
H981 H 0.63375 0.61741 0.28609 0.0
H982 H 0.66535 0.61493 0.27864 0.0
H983 H 0.67887 0.59582 0.25589 0.0
C984 C 0.06617 0.6541 0.23106 0.0
C985 C 0.07269 0.64411 0.2125 0.0
C986 C 0.04671 0.64449 0.24181 0.0
C987 C 0.03337 0.62467 0.2341 0.0
C988 C 0.03978 0.61501 0.21474 0.0
C989 C 0.05915 0.6246 0.20398 0.0
C990 C 0.01327 0.613 0.2473 0.0
C991 C 1.00321 0.62086 0.26019 0.0
C992 C 0.98328 0.60827 0.27346 0.0
C993 C 0.96924 0.61451 0.27245 0.0
C994 C 0.95006 0.60238 0.28338 0.0
C995 C 0.94468 0.58392 0.29601 0.0
H996 H 0.98875 0.58518 0.28927 0.0
C997 C 0.95904 0.57814 0.29831 0.0
C998 C 0.97811 0.59016 0.28716 0.0
H999 H 0.95544 0.56408 0.3081 0.0
H1000 H 0.07629 0.66911 0.23818 0.0
H1001 H 0.04253 0.65239 0.25708 0.0
H1002 H 0.02989 0.59976 0.20841 0.0
H1003 H 0.06367 0.61645 0.18974 0.0
H1004 H 1.00622 0.59699 0.24563 0.0
H1005 H 1.00908 0.63674 0.25967 0.0
H1006 H 0.97293 0.62853 0.26239 0.0
H1007 H 0.93937 0.60731 0.28141 0.0
C1008 C 0.60632 0.94803 0.77427 0.0
C1009 C 0.59357 0.94327 0.79855 0.0
C1010 C 0.61817 0.96778 0.76539 0.0
C1011 C 0.61777 0.98314 0.78101 0.0
C1012 C 0.60578 0.97841 0.80612 0.0
C1013 C 0.59358 0.95867 0.81455 0.0
C1014 C 0.62945 1.00416 0.77149 0.0
C1015 C 0.63148 0.00961 0.74299 0.0
C1016 C 0.64072 0.03066 0.73366 0.0
C1017 C 0.63258 0.03559 0.70979 0.0
C1018 C 0.64013 0.05537 0.70161 0.0
C1019 C 0.65638 0.07062 0.71659 0.0
H1020 H 0.66415 0.0425 0.76634 0.0
C1021 C 0.66515 0.06564 0.73959 0.0
C1022 C 0.65729 0.04587 0.74824 0.0
H1023 H 0.67767 0.07708 0.75158 0.0
H1024 H 0.60657 0.93646 0.76147 0.0
H1025 H 0.62756 0.971 0.74626 0.0
H1026 H 0.60533 0.98998 0.81867 0.0
H1027 H 0.58394 0.95545 0.83339 0.0
H1028 H 0.63468 0.01548 0.78847 0.0
H1029 H 0.62435 0.9983 0.72616 0.0
H1030 H 0.61992 0.02414 0.69805 0.0
H1031 H 0.6331 0.05874 0.68374 0.0
C1032 C 0.6377 0.58491 0.79393 0.0
C1033 C 0.65777 0.59059 0.79051 0.0
C1034 C 0.63033 0.5966 0.78261 0.0
C1035 C 0.64285 0.61429 0.76755 0.0
C1036 C 0.6631 0.62045 0.76532 0.0
C1037 C 0.67047 0.60864 0.77646 0.0
C1038 C 0.63511 0.62652 0.75417 0.0
C1039 C 0.61669 0.61834 0.74275 0.0
C1040 C 0.60786 0.62964 0.72945 0.0
C1041 C 0.59111 0.61938 0.71139 0.0
C1042 C 0.58109 0.62868 0.70049 0.0
C1043 C 0.58746 0.6485 0.70758 0.0
H1044 H 0.6273 0.65807 0.75007 0.0
C1045 C 0.60457 0.65903 0.72494 0.0
C1046 C 0.61468 0.64971 0.73581 0.0
H1047 H 0.60979 0.67429 0.73095 0.0
H1048 H 0.62753 0.57118 0.80484 0.0
H1049 H 0.61479 0.59172 0.78571 0.0
H1050 H 0.67313 0.63414 0.75419 0.0
H1051 H 0.68602 0.61347 0.77358 0.0
H1052 H 0.64516 0.64235 0.75235 0.0
H1053 H 0.60758 0.60231 0.74234 0.0
H1054 H 0.58547 0.60393 0.70612 0.0
H1055 H 0.56796 0.6201 0.68722 0.0
C1056 C 0.95337 0.59917 0.73256 0.0
C1057 C 0.94665 0.58207 0.71516 0.0
C1058 C 0.97286 0.60918 0.7434 0.0
C1059 C 0.98601 0.60225 0.73703 0.0
C1060 C 0.97939 0.58553 0.71892 0.0
C1061 C 0.96004 0.57564 0.708 0.0
C1062 C 1.00612 0.61088 0.75045 0.0
C1063 C 0.0167 0.62942 0.7613 0.0
C1064 C 0.03669 0.63699 0.77466 0.0
C1065 C 0.05123 0.657 0.77139 0.0
C1066 C 0.07042 0.66413 0.78247 0.0
C1067 C 0.07534 0.65145 0.79756 0.0
H1068 H 0.03045 0.60915 0.79454 0.0
C1069 C 0.06051 0.63166 0.80202 0.0
C1070 C 0.04144 0.6245 0.7907 0.0
H1071 H 0.06373 0.6215 0.8137 0.0
H1072 H 0.94339 0.60444 0.73863 0.0
H1073 H 0.97723 0.62179 0.7577 0.0
H1074 H 0.98913 0.5798 0.71364 0.0
H1075 H 0.95541 0.56252 0.6947 0.0
H1076 H 0.01277 0.60153 0.75055 0.0
H1077 H 0.0112 0.63967 0.75891 0.0
H1078 H 0.0479 0.66701 0.75947 0.0
H1079 H 0.08148 0.67948 0.77875 0.0
C1080 C 0.43461 0.05493 0.80036 0.0
C1081 C 0.42866 0.06918 0.79894 0.0
C1082 C 0.4225 0.03589 0.78909 0.0
C1083 C 0.40409 0.03063 0.77617 0.0
C1084 C 0.39769 0.04454 0.77616 0.0
C1085 C 0.40991 0.06368 0.78717 0.0
C1086 C 0.39142 0.01081 0.76253 0.0
C1087 C 0.39923 1.00107 0.74851 0.0
C1088 C 0.38755 0.98121 0.73446 0.0
C1089 C 0.39732 0.97519 0.71466 0.0
C1090 C 0.38783 0.95603 0.70315 0.0
C1091 C 0.3683 0.94227 0.71126 0.0
H1092 H 0.35965 0.97159 0.75719 0.0
C1093 C 0.35813 0.94844 0.73011 0.0
C1094 C 0.36766 0.96771 0.74168 0.0
H1095 H 0.34312 0.93814 0.73698 0.0
H1096 H 0.44891 0.05863 0.80943 0.0
H1097 H 0.42764 0.02534 0.79041 0.0
H1098 H 0.38347 0.0408 0.76672 0.0
H1099 H 0.40484 0.07429 0.78587 0.0
H1100 H 0.37551 1.00484 0.76256 0.0
H1101 H 0.41524 0.00827 0.74647 0.0
H1102 H 0.4126 0.98521 0.70862 0.0
H1103 H 0.39612 0.9518 0.68869 0.0
C1104 C 0.36268 0.41945 0.78092 0.0
C1105 C 0.37309 0.43648 0.79844 0.0
C1106 C 0.37215 0.4095 0.76999 0.0
C1107 C 0.39225 0.41639 0.77645 0.0
C1108 C 0.4024 0.43311 0.79457 0.0
C1109 C 0.39296 0.44298 0.80552 0.0
C1110 C 0.40362 0.40755 0.76347 0.0
C1111 C 0.39546 0.38908 0.75229 0.0
C1112 C 0.40771 0.38101 0.74003 0.0
C1113 C 0.40113 0.36072 0.74276 0.0
C1114 C 0.41294 0.35299 0.73304 0.0
C1115 C 0.43144 0.36536 0.7199 0.0
H1116 H 0.4311 0.40879 0.72231 0.0
C1117 C 0.43756 0.38547 0.71581 0.0
C1118 C 0.42585 0.39321 0.72576 0.0
H1119 H 0.45166 0.39539 0.7056 0.0
H1120 H 0.3474 0.41415 0.77488 0.0
H1121 H 0.36386 0.39691 0.75567 0.0
H1122 H 0.41787 0.43881 0.79993 0.0
H1123 H 0.40145 0.45606 0.81891 0.0
H1124 H 0.41967 0.41659 0.7642 0.0
H1125 H 0.37959 0.37914 0.75382 0.0
H1126 H 0.38711 0.35093 0.7533 0.0
H1127 H 0.40775 0.33741 0.73641 0.0
C1128 C 0.05955 0.43048 0.71609 0.0
C1129 C 0.07389 0.42474 0.71951 0.0
C1130 C 0.04042 0.41877 0.72727 0.0
C1131 C 0.03513 0.40099 0.74215 0.0
C1132 C 0.04917 0.3948 0.74439 0.0
C1133 C 0.06841 0.40663 0.73343 0.0
C1134 C 0.01508 0.38868 0.75535 0.0
C1135 C 1.00484 0.39678 0.76695 0.0
C1136 C 0.98479 0.38537 0.78048 0.0
C1137 C 0.97849 0.39545 0.79919 0.0
C1138 C 0.95925 0.38605 0.81046 0.0
C1139 C 0.94566 0.3663 0.80309 0.0
H1140 H 0.97552 0.35715 0.75905 0.0
C1141 C 0.95204 0.35594 0.78503 0.0
C1142 C 0.97141 0.36537 0.77381 0.0
H1143 H 0.94189 0.34075 0.77876 0.0
H1144 H 0.06322 0.44427 0.70531 0.0
H1145 H 0.02981 0.42371 0.72422 0.0
H1146 H 0.04542 0.38104 0.75539 0.0
H1147 H 0.07908 0.40173 0.73631 0.0
H1148 H 1.00929 0.37285 0.75706 0.0
H1149 H 0.01178 0.41281 0.7675 0.0
H1150 H 0.9884 0.41085 0.80472 0.0
H1151 H 0.95486 0.39451 0.82426 0.0
C1152 C 0.48616 0.20581 0.21088 0.0
C1153 C 0.47663 0.18637 0.22194 0.0
C1154 C 0.48444 0.2207 0.22533 0.0
C1155 C 0.47334 0.21653 0.25139 0.0
C1156 C 0.46376 0.19712 0.26237 0.0
C1157 C 0.46516 0.18214 0.24763 0.0
C1158 C 0.4727 0.23239 0.26858 0.0
C1159 C 0.47318 0.24823 0.25595 0.0
C1160 C 0.47388 0.26474 0.27317 0.0
C1161 C 0.46524 0.27529 0.26145 0.0
C1162 C 0.46679 0.29173 0.27624 0.0
C1163 C 0.47747 0.29829 0.30274 0.0
H1164 H 0.49141 0.26349 0.30934 0.0
C1165 C 0.48604 0.28766 0.31455 0.0
C1166 C 0.48417 0.271 0.30003 0.0
H1167 H 0.49442 0.29235 0.33486 0.0
H1168 H 0.49515 0.20958 0.1912 0.0
H1169 H 0.49241 0.2356 0.21662 0.0
H1170 H 0.45526 0.19357 0.28254 0.0
H1171 H 0.45779 0.16738 0.25691 0.0
H1172 H 0.47129 0.23067 0.29233 0.0
H1173 H 0.47256 0.24895 0.23212 0.0
H1174 H 0.45738 0.27088 0.24067 0.0
H1175 H 0.46017 0.29968 0.26638 0.0
C1176 C 0.19107 0.46465 0.28808 0.0
C1177 C 0.19342 0.48059 0.30553 0.0
C1178 C 0.2076 0.46471 0.2758 0.0
C1179 C 0.2268 0.48077 0.28067 0.0
C1180 C 0.22908 0.49658 0.29817 0.0
C1181 C 0.21268 0.49646 0.31059 0.0
C1182 C 0.24476 0.48238 0.26657 0.0
C1183 C 0.24644 0.46689 0.25726 0.0
C1184 C 0.2649 0.46963 0.24322 0.0
C1185 C 0.27054 0.45526 0.24693 0.0
C1186 C 0.28823 0.45798 0.23469 0.0
C1187 C 0.30051 0.47503 0.2181 0.0
H1188 H 0.27271 0.49744 0.22168 0.0
C1189 C 0.29445 0.48906 0.21367 0.0
C1190 C 0.2769 0.48638 0.22596 0.0
H1191 H 0.30334 0.50229 0.2008 0.0
H1192 H 0.17646 0.45221 0.28365 0.0
H1193 H 0.2052 0.45245 0.2619 0.0
H1194 H 0.24366 0.5092 0.30215 0.0
H1195 H 0.21516 0.50905 0.32378 0.0
H1196 H 0.25755 0.49718 0.26493 0.0
H1197 H 0.23454 0.45188 0.26133 0.0
H1198 H 0.26144 0.4421 0.25983 0.0
H1199 H 0.29232 0.44679 0.23839 0.0
C1200 C 0.73122 0.18503 0.28543 0.0
C1201 C 0.71839 0.18815 0.30353 0.0
C1202 C 0.74811 0.20115 0.27305 0.0
C1203 C 0.75241 0.22068 0.27851 0.0
C1204 C 0.73977 0.22371 0.29694 0.0
C1205 C 0.72311 0.20775 0.30941 0.0
C1206 C 0.76901 0.23831 0.26414 0.0
C1207 C 0.78569 0.23927 0.25394 0.0
C1208 C 0.80188 0.25767 0.24042 0.0
C1209 C 0.82169 0.26258 0.24422 0.0
C1210 C 0.83715 0.28034 0.23292 0.0
C1211 C 0.83308 0.29343 0.21715 0.0
H1212 H 0.78269 0.26686 0.21964 0.0
C1213 C 0.81318 0.28808 0.21246 0.0
C1214 C 0.79779 0.27045 0.22389 0.0
H1215 H 0.80939 0.29764 0.20022 0.0
H1216 H 0.72803 0.17017 0.28031 0.0
H1217 H 0.75731 0.19821 0.25851 0.0
H1218 H 0.74265 0.23855 0.30149 0.0
H1219 H 0.71368 0.21087 0.32318 0.0
H1220 H 0.76774 0.25154 0.26322 0.0
H1221 H 0.78815 0.22688 0.25722 0.0
H1222 H 0.82524 0.25289 0.25657 0.0
H1223 H 0.85228 0.28386 0.23677 0.0
C1224 C 0.53702 0.81314 0.2031 0.0
C1225 C 0.54608 0.8322 0.21553 0.0
C1226 C 0.53913 0.79808 0.21619 0.0
C1227 C 0.55018 0.8017 0.24223 0.0
C1228 C 0.55934 0.82075 0.25454 0.0
C1229 C 0.55753 0.83592 0.24116 0.0
C1230 C 0.55105 0.78552 0.25815 0.0
C1231 C 0.55068 0.77006 0.24437 0.0
C1232 C 0.54992 0.75311 0.2604 0.0
C1233 C 0.53945 0.74614 0.28697 0.0
C1234 C 0.53758 0.72918 0.30043 0.0
C1235 C 0.54632 0.71893 0.28785 0.0
H1236 H 0.56665 0.74787 0.22725 0.0
C1237 C 0.55712 0.72614 0.2616 0.0
C1238 C 0.55867 0.74291 0.24785 0.0
H1239 H 0.56388 0.7185 0.25119 0.0
H1240 H 0.52805 0.80976 0.18342 0.0
H1241 H 0.53146 0.78345 0.20648 0.0
H1242 H 0.56778 0.82387 0.27474 0.0
H1243 H 0.56456 0.85038 0.25146 0.0
H1244 H 0.5524 0.78661 0.28197 0.0
H1245 H 0.55135 0.76995 0.2205 0.0
H1246 H 0.53211 0.75336 0.29689 0.0
H1247 H 0.52913 0.72399 0.32061 0.0
C1248 C 0.73115 0.54651 0.23427 0.0
C1249 C 0.72257 0.53589 0.20822 0.0
C1250 C 0.74878 0.54831 0.24518 0.0
C1251 C 0.75832 0.53967 0.23009 0.0
C1252 C 0.75007 0.5296 0.20365 0.0
C1253 C 0.73231 0.52753 0.193 0.0
C1254 C 0.77688 0.54093 0.24115 0.0
C1255 C 0.78088 0.54103 0.27001 0.0
C1256 C 0.79828 0.53996 0.28104 0.0
C1257 C 0.79645 0.52973 0.30729 0.0
C1258 C 0.81216 0.52764 0.31774 0.0
C1259 C 0.83028 0.53614 0.30252 0.0
H1260 H 0.81857 0.55723 0.2461 0.0
C1261 C 0.83239 0.54703 0.27679 0.0
C1262 C 0.81651 0.54883 0.26604 0.0
H1263 H 0.84615 0.55379 0.26458 0.0
H1264 H 0.72408 0.55319 0.2465 0.0
H1265 H 0.75499 0.55659 0.26527 0.0
H1266 H 0.75719 0.52294 0.19147 0.0
H1267 H 0.72624 0.5194 0.17274 0.0
H1268 H 0.78662 0.5399 0.22505 0.0
H1269 H 0.77013 0.53999 0.28614 0.0
H1270 H 0.78264 0.52291 0.31941 0.0
H1271 H 0.81007 0.51929 0.33776 0.0
C1272 C 0.20532 0.72722 0.20475 0.0
C1273 C 0.1865 0.71595 0.21762 0.0
C1274 C 0.22027 0.74387 0.21908 0.0
C1275 C 0.21682 0.74957 0.24679 0.0
C1276 C 0.19799 0.73843 0.25957 0.0
C1277 C 0.1829 0.72192 0.245 0.0
C1278 C 0.23301 0.76616 0.26357 0.0
C1279 C 0.24788 0.78219 0.25039 0.0
C1280 C 0.26503 0.79811 0.2666 0.0
C1281 C 0.27469 0.81737 0.25506 0.0
C1282 C 0.29178 0.83239 0.26847 0.0
C1283 C 0.29988 0.82839 0.29341 0.0
H1284 H 0.26605 0.77936 0.30103 0.0
C1285 C 0.29014 0.80911 0.30509 0.0
C1286 C 0.27284 0.79415 0.29194 0.0
H1287 H 0.296 0.8055 0.32422 0.0
H1288 H 0.20862 0.72301 0.18373 0.0
H1289 H 0.23472 0.75179 0.20886 0.0
H1290 H 0.195 0.7424 0.28102 0.0
H1291 H 0.16863 0.71346 0.25565 0.0
H1292 H 0.23244 0.76526 0.28743 0.0
H1293 H 0.24734 0.78398 0.22677 0.0
H1294 H 0.2691 0.82077 0.23541 0.0
H1295 H 0.29895 0.84702 0.25874 0.0
C1296 C 0.53375 0.72879 0.69895 0.0
C1297 C 0.54661 0.7216 0.70583 0.0
C1298 C 0.53649 0.74636 0.7113 0.0
C1299 C 0.55212 0.75726 0.73107 0.0
C1300 C 0.56545 0.75056 0.73717 0.0
C1301 C 0.56267 0.73284 0.72486 0.0
C1302 C 0.55462 0.77554 0.74552 0.0
C1303 C 0.5389 0.77748 0.75273 0.0
C1304 C 0.54001 0.795 0.76761 0.0
C1305 C 0.52329 0.79226 0.78309 0.0
C1306 C 0.52283 0.80823 0.79598 0.0
C1307 C 0.53904 0.82759 0.79343 0.0
H1308 H 0.56947 0.81699 0.75308 0.0
C1309 C 0.55594 0.83042 0.77807 0.0
C1310 C 0.55646 0.81426 0.76534 0.0
H1311 H 0.56867 0.8451 0.77561 0.0
H1312 H 0.52133 0.72075 0.68418 0.0
H1313 H 0.52631 0.75138 0.70521 0.0
H1314 H 0.57777 0.75879 0.75205 0.0
H1315 H 0.57296 0.72787 0.73051 0.0
H1316 H 0.56944 0.78693 0.75185 0.0
H1317 H 0.52412 0.76505 0.74879 0.0
H1318 H 0.51036 0.77764 0.7851 0.0
H1319 H 0.5095 0.80533 0.80752 0.0
C1320 C 0.73485 0.55492 0.77836 0.0
C1321 C 0.72508 0.54357 0.80333 0.0
C1322 C 0.7528 0.55674 0.76895 0.0
C1323 C 0.76145 0.54735 0.78446 0.0
C1324 C 0.75208 0.53668 0.81001 0.0
C1325 C 0.73404 0.53465 0.81919 0.0
C1326 C 0.78001 0.54809 0.77447 0.0
C1327 C 0.78479 0.5488 0.74584 0.0
C1328 C 0.80163 0.54659 0.73528 0.0
C1329 C 0.79977 0.53733 0.70808 0.0
C1330 C 0.81482 0.53421 0.69766 0.0
C1331 C 0.83238 0.54068 0.71385 0.0
H1332 H 0.82142 0.56099 0.77217 0.0
C1333 C 0.83462 0.5506 0.74066 0.0
C1334 C 0.81932 0.5534 0.75141 0.0
H1335 H 0.84799 0.5558 0.75359 0.0
H1336 H 0.72845 0.56209 0.76569 0.0
H1337 H 0.75987 0.56553 0.74959 0.0
H1338 H 0.75848 0.52944 0.82253 0.0
H1339 H 0.72707 0.52595 0.83868 0.0
H1340 H 0.78885 0.54594 0.79095 0.0
H1341 H 0.77482 0.54895 0.72926 0.0
H1342 H 0.78641 0.53208 0.69508 0.0
H1343 H 0.81267 0.52671 0.67677 0.0
C1344 C 0.29202 0.80747 0.70925 0.0
C1345 C 0.29827 0.82752 0.71461 0.0
C1346 C 0.2743 0.79244 0.72096 0.0
C1347 C 0.2623 0.79697 0.73862 0.0
C1348 C 0.26813 0.81696 0.74325 0.0
C1349 C 0.28598 0.8321 0.73153 0.0
C1350 C 0.24373 0.78103 0.75227 0.0
C1351 C 0.24191 0.76362 0.76067 0.0
C1352 C 0.22406 0.74709 0.7748 0.0
C1353 C 0.22657 0.73334 0.79135 0.0
C1354 C 0.21036 0.71693 0.80388 0.0
C1355 C 0.19101 0.71355 0.79992 0.0
H1356 H 0.20222 0.75406 0.75784 0.0
C1357 C 0.1884 0.72733 0.78335 0.0
C1358 C 0.20478 0.74399 0.77097 0.0
H1359 H 0.17372 0.72519 0.7798 0.0
H1360 H 0.30088 0.80326 0.69605 0.0
H1361 H 0.27 0.77726 0.71592 0.0
H1362 H 0.25906 0.82089 0.75648 0.0
H1363 H 0.29021 0.84735 0.73596 0.0
H1364 H 0.23192 0.78416 0.75695 0.0
H1365 H 0.25464 0.76157 0.75839 0.0
H1366 H 0.24119 0.73525 0.79455 0.0
H1367 H 0.21308 0.70671 0.81636 0.0
C1368 C 0.48637 0.28723 0.7148 0.0
C1369 C 0.47796 0.29777 0.72741 0.0
C1370 C 0.48412 0.27007 0.72814 0.0
C1371 C 0.47356 0.26317 0.75465 0.0
C1372 C 0.46509 0.27364 0.76723 0.0
C1373 C 0.46704 0.29062 0.75357 0.0
C1374 C 0.47247 0.246 0.77058 0.0
C1375 C 0.47191 0.23047 0.75666 0.0
C1376 C 0.47261 0.21409 0.77233 0.0
C1377 C 0.46343 0.19514 0.75965 0.0
C1378 C 0.46514 0.17981 0.77267 0.0
C1379 C 0.47653 0.18325 0.7983 0.0
H1380 H 0.49125 0.23196 0.8084 0.0
C1381 C 0.48561 0.20221 0.81112 0.0
C1382 C 0.48358 0.21743 0.7984 0.0
H1383 H 0.49452 0.20538 0.83083 0.0
H1384 H 0.4949 0.29233 0.69468 0.0
H1385 H 0.49125 0.26267 0.71818 0.0
H1386 H 0.45705 0.26875 0.78779 0.0
H1387 H 0.46051 0.29849 0.76399 0.0
H1388 H 0.4718 0.24605 0.79445 0.0
H1389 H 0.47058 0.22949 0.73284 0.0
H1390 H 0.45505 0.19223 0.73943 0.0
H1391 H 0.4581 0.16545 0.76208 0.0
C1392 C 0.18669 0.46123 0.73794 0.0
C1393 C 0.18856 0.47197 0.71212 0.0
C1394 C 0.20266 0.4594 0.74834 0.0
C1395 C 0.22075 0.46812 0.73292 0.0
C1396 C 0.22232 0.47821 0.70664 0.0
C1397 C 0.20654 0.48029 0.69652 0.0
C1398 C 0.23835 0.46719 0.74352 0.0
C1399 C 0.24249 0.46696 0.77226 0.0
C1400 C 0.26156 0.46917 0.78295 0.0
C1401 C 0.26929 0.47892 0.80976 0.0
C1402 C 0.2876 0.48224 0.82 0.0
C1403 C 0.29852 0.47551 0.80399 0.0
H1404 H 0.26648 0.45401 0.7467 0.0
C1405 C 0.29047 0.46506 0.77765 0.0
C1406 C 0.27222 0.46202 0.76712 0.0
H1407 H 0.29846 0.45962 0.76486 0.0
H1408 H 0.17303 0.45455 0.75042 0.0
H1409 H 0.20075 0.4511 0.76832 0.0
H1410 H 0.23599 0.48493 0.69419 0.0
H1411 H 0.20847 0.48849 0.67639 0.0
H1412 H 0.24925 0.46885 0.72719 0.0
H1413 H 0.23254 0.46729 0.78865 0.0
H1414 H 0.26135 0.48444 0.82253 0.0
H1415 H 0.29323 0.49017 0.84053 0.0
C1416 C 0.83318 0.28581 0.78068 0.0
C1417 C 0.83137 0.29359 0.80764 0.0
C1418 C 0.81767 0.26772 0.77021 0.0
C1419 C 0.80018 0.25697 0.78676 0.0
C1420 C 0.79877 0.26442 0.81415 0.0
C1421 C 0.81404 0.28258 0.82432 0.0
C1422 C 0.783 0.23809 0.77621 0.0
C1423 C 0.7778 0.23448 0.74765 0.0
C1424 C 0.75886 0.21716 0.73755 0.0
C1425 C 0.7495 0.21933 0.71264 0.0
C1426 C 0.73126 0.20382 0.7031 0.0
C1427 C 0.72207 0.18552 0.71788 0.0
H1428 H 0.75694 0.19643 0.77105 0.0
C1429 C 0.73173 0.18307 0.74229 0.0
C1430 C 0.7499 0.19877 0.75215 0.0
H1431 H 0.72511 0.16915 0.75407 0.0
H1432 H 0.84638 0.29389 0.76739 0.0
H1433 H 0.81942 0.26218 0.74927 0.0
H1434 H 0.78556 0.25639 0.82746 0.0
H1435 H 0.81223 0.28801 0.84535 0.0
H1436 H 0.77314 0.22788 0.79278 0.0
H1437 H 0.78661 0.24564 0.73137 0.0
H1438 H 0.75611 0.23325 0.70084 0.0
H1439 H 0.72439 0.20618 0.68402 0.0
C1440 C 0.44576 0.1197 0.09638 0.0
C1441 C 0.45725 0.13804 0.11042 0.0
C1442 C 0.44084 0.11891 0.06645 0.0
C1443 C 0.44717 0.13651 0.05033 0.0
C1444 C 0.45734 0.15469 0.0652 0.0
C1445 C 0.46253 0.15547 0.09473 0.0
C1446 C 0.44504 0.1371 0.01781 0.0
C1447 C 0.44331 0.12288 0.99911 0.0
C1448 C 0.44739 0.12659 0.96698 0.0
C1449 C 0.43887 0.11075 0.94692 0.0
C1450 C 0.44459 0.11361 0.91722 0.0
C1451 C 0.45933 0.1323 0.90725 0.0
H1452 H 0.46897 0.15795 0.9713 0.0
C1453 C 0.4674 0.14822 0.92715 0.0
C1454 C 0.46153 0.14544 0.95655 0.0
H1455 H 0.47883 0.1628 0.92019 0.0
H1456 H 0.44158 0.10605 0.10801 0.0
H1457 H 0.43256 0.10459 0.056 0.0
H1458 H 0.46228 0.16849 0.05353 0.0
H1459 H 0.47133 0.1698 0.10507 0.0
H1460 H 0.44735 0.15096 0.00867 0.0
H1461 H 0.44046 0.10868 1.0075 0.0
H1462 H 0.42814 0.09603 0.9544 0.0
H1463 H 0.43826 0.10101 0.90247 0.0
C1464 C 0.32372 0.46277 0.92819 0.0
C1465 C 0.33384 0.45733 0.90816 0.0
C1466 C 0.32116 0.4564 0.95733 0.0
C1467 C 0.32872 0.44441 0.96732 0.0
C1468 C 0.3381 0.43824 0.94694 0.0
C1469 C 0.34045 0.44445 0.91749 0.0
C1470 C 0.32944 0.44069 0.99935 0.0
C1471 C 0.31644 0.44084 0.01875 0.0
C1472 C 0.32037 0.44426 0.05086 0.0
C1473 C 0.3125 0.45457 0.06562 0.0
C1474 C 0.31792 0.46085 0.09456 0.0
C1475 C 0.33093 0.4565 0.10978 0.0
H1476 H 0.33865 0.43069 0.05603 0.0
C1477 C 0.33776 0.44495 0.09591 0.0
C1478 C 0.33266 0.439 0.06652 0.0
H1479 H 0.34785 0.44145 0.10724 0.0
H1480 H 0.31853 0.47275 0.92164 0.0
H1481 H 0.31439 0.46207 0.97228 0.0
H1482 H 0.34428 0.42921 0.95407 0.0
H1483 H 0.34852 0.44023 0.90258 0.0
H1484 H 0.34217 0.43989 1.0072 0.0
H1485 H 0.30358 0.44123 0.01044 0.0
H1486 H 0.30291 0.45872 0.05422 0.0
H1487 H 0.31237 0.46964 0.10483 0.0
C1488 C 0.90185 0.33221 0.92484 0.0
C1489 C 0.88324 0.32417 0.91119 0.0
C1490 C 0.90331 0.32723 0.95407 0.0
C1491 C 0.88615 0.31393 0.9698 0.0
C1492 C 0.86787 0.30479 0.95507 0.0
C1493 C 0.86638 0.31004 0.92628 0.0
C1494 C 0.88596 0.31036 1.00201 0.0
C1495 C 0.89932 0.32344 0.02117 0.0
C1496 C 0.89504 0.32286 0.05321 0.0
C1497 C 0.91068 0.33127 0.07364 0.0
C1498 C 0.90708 0.33355 0.10323 0.0
C1499 C 0.88781 0.32793 0.11265 0.0
H1500 H 0.86324 0.31037 0.04809 0.0
C1501 C 0.87212 0.31891 0.09245 0.0
C1502 C 0.87565 0.31635 0.06317 0.0
H1503 H 0.85713 0.31452 0.09906 0.0
H1504 H 0.91504 0.34321 0.91359 0.0
H1505 H 0.91775 0.33423 0.9644 0.0
H1506 H 0.85442 0.29441 0.96646 0.0
H1507 H 0.85187 0.3036 0.91615 0.0
H1508 H 0.87275 0.29763 0.01071 0.0
H1509 H 0.91291 0.33603 0.01323 0.0
H1510 H 0.92578 0.33665 0.0665 0.0
H1511 H 0.91948 0.34078 0.11826 0.0
C1512 C 0.55388 0.86639 0.08579 0.0
C1513 C 0.56215 0.88231 0.10567 0.0
C1514 C 0.55955 0.86915 0.05631 0.0
C1515 C 0.57369 0.88797 0.04579 0.0
C1516 C 0.58244 0.90381 0.06584 0.0
C1517 C 0.57691 0.90097 0.09561 0.0
C1518 C 0.5775 0.89171 0.01363 0.0
C1519 C 0.57528 0.87744 0.99468 0.0
C1520 C 0.57263 0.87815 0.96235 0.0
C1521 C 0.56126 0.86008 0.94763 0.0
C1522 C 0.5557 0.85964 0.91837 0.0
C1523 C 0.5618 0.87728 0.9028 0.0
H1524 H 0.58886 0.91011 0.95672 0.0
C1525 C 0.57441 0.89543 0.91665 0.0
C1526 C 0.57968 0.8959 0.94633 0.0
H1527 H 0.57925 0.90923 0.90508 0.0
H1528 H 0.54244 0.85184 0.09282 0.0
H1529 H 0.55193 0.85665 0.04159 0.0
H1530 H 0.59317 0.91851 0.0583 0.0
H1531 H 0.5834 0.91357 0.11036 0.0
H1532 H 0.58043 0.90598 1.00541 0.0
H1533 H 0.57283 0.86345 1.00352 0.0
H1534 H 0.55573 0.84618 0.95926 0.0
H1535 H 0.54604 0.84544 0.90815 0.0
C1536 C 0.69947 0.55499 0.08401 0.0
C1537 C 0.69068 0.561 0.10557 0.0
C1538 C 0.70144 0.56176 0.05511 0.0
C1539 C 0.6945 0.57462 0.04697 0.0
C1540 C 0.68667 0.58145 0.06889 0.0
C1541 C 0.68497 0.57488 0.09804 0.0
C1542 C 0.69255 0.57857 0.01543 0.0
C1543 C 0.70394 0.57754 0.99398 0.0
C1544 C 0.69874 0.57551 0.96213 0.0
C1545 C 0.71349 0.5792 0.94123 0.0
C1546 C 0.7085 0.57373 0.91175 0.0
C1547 C 0.68865 0.56438 0.90275 0.0
H1548 H 0.66705 0.56353 0.96792 0.0
C1549 C 0.67399 0.56153 0.92314 0.0
C1550 C 0.67896 0.56712 0.95254 0.0
H1551 H 0.65854 0.554 0.91667 0.0
H1552 H 0.70394 0.54424 0.08917 0.0
H1553 H 0.70712 0.55572 0.0389 0.0
H1554 H 0.68104 0.59121 0.06321 0.0
H1555 H 0.67792 0.57957 0.11413 0.0
H1556 H 0.68052 0.58117 0.00968 0.0
H1557 H 0.71707 0.57687 0.99999 0.0
H1558 H 0.72879 0.58541 0.948 0.0
H1559 H 0.71997 0.5757 0.89642 0.0
C1560 C 0.1203 0.68306 0.91962 0.0
C1561 C 0.1387 0.68978 0.90588 0.0
C1562 C 0.11945 0.68848 0.94881 0.0
C1563 C 0.13702 0.70092 0.96442 0.0
C1564 C 0.1552 0.70884 0.9496 0.0
C1565 C 0.15606 0.70313 0.92084 0.0
C1566 C 0.13758 0.70468 0.99661 0.0
C1567 C 0.12417 0.69176 0.01583 0.0
C1568 C 0.12849 0.69206 0.04785 0.0
C1569 C 0.11279 0.68298 0.06805 0.0
C1570 C 0.11635 0.68009 0.0974 0.0
C1571 C 0.13566 0.68583 0.10684 0.0
H1572 H 0.16041 0.70533 0.04306 0.0
C1573 C 0.15141 0.69568 0.08699 0.0
C1574 C 0.14792 0.69881 0.05793 0.0
H1575 H 0.16645 0.70022 0.0936 0.0
H1576 H 0.10673 0.67267 0.90851 0.0
H1577 H 0.10512 0.68247 0.95926 0.0
H1578 H 0.16896 0.71855 0.96092 0.0
H1579 H 0.17042 0.70852 0.91066 0.0
H1580 H 0.15102 0.71724 1.00512 0.0
H1581 H 0.11045 0.67933 0.00785 0.0
H1582 H 0.09767 0.67743 0.06085 0.0
H1583 H 0.10389 0.67225 0.11214 0.0
C1584 C 0.9011 0.57008 0.59406 0.0
C1585 C 0.88271 0.56018 0.60843 0.0
C1586 C 0.90214 0.57558 0.56439 0.0
C1587 C 0.88477 0.57139 0.5489 0.0
C1588 C 0.86677 0.56303 0.56428 0.0
C1589 C 0.8657 0.55727 0.59355 0.0
C1590 C 0.88401 0.57351 0.51642 0.0
C1591 C 0.89736 0.57373 0.49735 0.0
C1592 C 0.8927 0.56903 0.46557 0.0
C1593 C 0.908 0.5766 0.44462 0.0
C1594 C 0.90413 0.57014 0.41528 0.0
C1595 C 0.88498 0.55557 0.40664 0.0
H1596 H 0.86129 0.54841 0.47201 0.0
C1597 C 0.86962 0.54842 0.42742 0.0
C1598 C 0.87338 0.55509 0.45645 0.0
H1599 H 0.85472 0.53714 0.42144 0.0
H1600 H 0.9144 0.57239 0.60512 0.0
H1601 H 0.91639 0.58246 0.55359 0.0
H1602 H 0.85318 0.55977 0.55312 0.0
H1603 H 0.85136 0.54968 0.60421 0.0
H1604 H 0.87046 0.57224 0.50759 0.0
H1605 H 0.91132 0.57557 0.50522 0.0
H1606 H 0.92304 0.58713 0.45113 0.0
H1607 H 0.9163 0.57574 0.39979 0.0
C1608 C 0.33589 0.8937 0.59169 0.0
C1609 C 0.32983 0.87545 0.60557 0.0
C1610 C 0.33109 0.89429 0.56203 0.0
C1611 C 0.31987 0.8766 0.54606 0.0
C1612 C 0.31279 0.85847 0.56074 0.0
C1613 C 0.3179 0.8579 0.58996 0.0
C1614 C 0.31613 0.87594 0.51383 0.0
C1615 C 0.3283 0.88997 0.49465 0.0
C1616 C 0.32777 0.88613 0.46239 0.0
C1617 C 0.33561 0.90204 0.44243 0.0
C1618 C 0.33794 0.89902 0.41258 0.0
C1619 C 0.33289 0.88007 0.40235 0.0
H1620 H 0.3163 0.85442 0.46619 0.0
C1621 C 0.32436 0.86409 0.42206 0.0
C1622 C 0.32182 0.86704 0.45162 0.0
H1623 H 0.32038 0.84931 0.41487 0.0
H1624 H 0.34513 0.90745 0.60329 0.0
H1625 H 0.33644 0.90855 0.55166 0.0
H1626 H 0.30402 0.84461 0.54914 0.0
H1627 H 0.31291 0.84363 0.60019 0.0
H1628 H 0.30409 0.86214 0.50526 0.0
H1629 H 0.34015 0.90405 0.5027 0.0
H1630 H 0.34054 0.91693 0.45013 0.0
H1631 H 0.34479 0.91166 0.39796 0.0
C1632 C 0.44724 0.3325 0.60277 0.0
C1633 C 0.45941 0.32639 0.61661 0.0
C1634 C 0.44147 0.32737 0.57331 0.0
C1635 C 0.44755 0.31579 0.5575 0.0
C1636 C 0.45849 0.3086 0.57223 0.0
C1637 C 0.46457 0.31404 0.60126 0.0
C1638 C 0.44429 0.3119 0.52533 0.0
C1639 C 0.44275 0.32421 0.50606 0.0
C1640 C 0.44613 0.32366 0.47385 0.0
C1641 C 0.43851 0.33192 0.45386 0.0
C1642 C 0.44415 0.33443 0.42414 0.0
C1643 C 0.45788 0.32912 0.41408 0.0
H1644 H 0.46579 0.3115 0.47783 0.0
C1645 C 0.46482 0.32009 0.43377 0.0
C1646 C 0.45904 0.31737 0.46321 0.0
H1647 H 0.47548 0.31591 0.4267 0.0
H1648 H 0.4431 0.34207 0.61418 0.0
H1649 H 0.43263 0.3328 0.56291 0.0
H1650 H 0.46329 0.29956 0.56076 0.0
H1651 H 0.47384 0.30903 0.61147 0.0
H1652 H 0.44576 0.29968 0.51687 0.0
H1653 H 0.44083 0.33624 0.51404 0.0
H1654 H 0.42873 0.3371 0.46147 0.0
H1655 H 0.43874 0.34165 0.40954 0.0
C1656 C 0.14963 0.45494 0.58921 0.0
C1657 C 0.13381 0.44914 0.60887 0.0
C1658 C 0.14623 0.4483 0.56018 0.0
C1659 C 0.12682 0.43571 0.54993 0.0
C1660 C 0.11103 0.4292 0.56997 0.0
C1661 C 0.11451 0.43566 0.59933 0.0
C1662 C 0.12269 0.4318 0.51786 0.0
C1663 C 0.13616 0.43214 0.49892 0.0
C1664 C 0.13611 0.43583 0.46681 0.0
C1665 C 0.15452 0.44621 0.45262 0.0
C1666 C 0.15586 0.45327 0.42406 0.0
C1667 C 0.13876 0.44959 0.40866 0.0
H1668 H 0.10432 0.42268 0.46072 0.0
C1669 C 0.12015 0.43781 0.42174 0.0
C1670 C 0.1188 0.43106 0.45075 0.0
H1671 H 0.10677 0.43489 0.41027 0.0
H1672 H 0.16466 0.46539 0.59596 0.0
H1673 H 0.15879 0.45421 0.54544 0.0
H1674 H 0.09592 0.41973 0.56261 0.0
H1675 H 0.10202 0.43116 0.61396 0.0
H1676 H 0.10917 0.43084 0.50962 0.0
H1677 H 0.14938 0.43269 0.50771 0.0
H1678 H 0.16808 0.45 0.46432 0.0
H1679 H 0.17038 0.46233 0.41439 0.0
C1680 C 0.69219 0.14934 0.4304 0.0
C1681 C 0.68452 0.13386 0.40977 0.0
C1682 C 0.69523 0.14597 0.45955 0.0
C1683 C 0.69058 0.12695 0.46898 0.0
C1684 C 0.68342 0.11154 0.44819 0.0
C1685 C 0.68065 0.11501 0.41873 0.0
C1686 C 0.6908 0.12259 0.50085 0.0
C1687 C 0.70334 0.13642 0.51998 0.0
C1688 C 0.70026 0.13545 0.5524 0.0
C1689 C 0.70804 0.15344 0.56767 0.0
C1690 C 0.70317 0.15385 0.59705 0.0
C1691 C 0.69081 0.13623 0.61215 0.0
H1692 H 0.68288 0.10345 0.55716 0.0
C1693 C 0.68419 0.11806 0.59777 0.0
C1694 C 0.68876 0.11764 0.56797 0.0
H1695 H 0.67458 0.10427 0.60902 0.0
H1696 H 0.69527 0.16402 0.4242 0.0
H1697 H 0.70016 0.15813 0.47494 0.0
H1698 H 0.67947 0.0967 0.45492 0.0
H1699 H 0.67451 0.10274 0.40338 0.0
H1700 H 0.67923 0.10833 0.50875 0.0
H1701 H 0.71509 0.15035 0.51129 0.0
H1702 H 0.71704 0.16738 0.55641 0.0
H1703 H 0.70853 0.16806 0.60772 0.0
C1704 C 0.57906 0.68401 0.4112 0.0
C1705 C 0.56797 0.69121 0.39685 0.0
C1706 C 0.58477 0.68905 0.4407 0.0
C1707 C 0.57968 0.70158 0.45602 0.0
C1708 C 0.56995 0.70988 0.44072 0.0
C1709 C 0.56393 0.70455 0.41165 0.0
C1710 C 0.58254 0.70526 0.48827 0.0
C1711 C 0.58275 0.69232 0.50774 0.0
C1712 C 0.57873 0.69289 0.53969 0.0
C1713 C 0.58531 0.68399 0.56029 0.0
C1714 C 0.57902 0.68159 0.5897 0.0
C1715 C 0.56565 0.68764 0.59879 0.0
H1716 H 0.56022 0.70624 0.5342 0.0
C1717 C 0.55973 0.69723 0.57848 0.0
C1718 C 0.56618 0.69986 0.54937 0.0
H1719 H 0.54937 0.70199 0.58481 0.0
H1720 H 0.58227 0.67362 0.40022 0.0
H1721 H 0.59267 0.68273 0.45154 0.0
H1722 H 0.56594 0.71967 0.45181 0.0
H1723 H 0.55544 0.71034 0.40102 0.0
H1724 H 0.58179 0.71792 0.49656 0.0
H1725 H 0.58395 0.6798 0.50003 0.0
H1726 H 0.59478 0.67827 0.5534 0.0
H1727 H 0.58364 0.67394 0.60479 0.0
C1728 C 0.52414 0.12985 0.21695 0.0
C1729 C 0.51479 0.13814 0.23313 0.0
C1730 C 0.54141 0.13081 0.2275 0.0
C1731 C 0.54949 0.13988 0.2547 0.0
C1732 C 0.5396 0.1474 0.27144 0.0
C1733 C 0.52232 0.14647 0.26078 0.0
C1734 C 0.56746 0.14057 0.26692 0.0
C1735 C 0.58186 0.14108 0.24993 0.0
C1736 C 0.59912 0.14038 0.26224 0.0
C1737 C 0.61702 0.14904 0.2465 0.0
C1738 C 0.63339 0.14823 0.2574 0.0
C1739 C 0.6321 0.1389 0.28431 0.0
H1740 H 0.58391 0.12272 0.30069 0.0
C1741 C 0.614 0.12949 0.29938 0.0
C1742 C 0.59768 0.1303 0.28859 0.0
H1743 H 0.61246 0.1214 0.31951 0.0
H1744 H 0.518 0.12251 0.19616 0.0
H1745 H 0.54813 0.1241 0.21455 0.0
H1746 H 0.54531 0.1541 0.29272 0.0
H1747 H 0.51496 0.15243 0.27396 0.0
H1748 H 0.56905 0.14116 0.2907 0.0
H1749 H 0.5813 0.14254 0.22624 0.0
H1750 H 0.61837 0.15653 0.22584 0.0
H1751 H 0.6471 0.15508 0.24504 0.0
C1752 C 0.49904 0.63283 0.2503 0.0
C1753 C 0.50718 0.63209 0.27743 0.0
C1754 C 0.48137 0.61656 0.24047 0.0
C1755 C 0.47171 0.59924 0.25749 0.0
C1756 C 0.48041 0.59829 0.28413 0.0
C1757 C 0.49804 0.61455 0.29387 0.0
C1758 C 0.45331 0.58202 0.24608 0.0
C1759 C 0.43936 0.56814 0.26364 0.0
C1760 C 0.42174 0.55015 0.25205 0.0
C1761 C 0.40442 0.5407 0.26913 0.0
C1762 C 0.3878 0.5234 0.25905 0.0
C1763 C 0.38824 0.51543 0.23162 0.0
H1764 H 0.43565 0.54794 0.21189 0.0
C1765 C 0.40575 0.52436 0.2151 0.0
C1766 C 0.42232 0.54161 0.22509 0.0
H1767 H 0.40667 0.51788 0.1945 0.0
H1768 H 0.50621 0.64608 0.23691 0.0
H1769 H 0.4752 0.61752 0.21959 0.0
H1770 H 0.47388 0.58494 0.29725 0.0
H1771 H 0.50462 0.61338 0.31423 0.0
H1772 H 0.45104 0.58106 0.22242 0.0
H1773 H 0.4406 0.57013 0.28735 0.0
H1774 H 0.40374 0.54676 0.29025 0.0
H1775 H 0.37457 0.51637 0.27248 0.0
C1776 C 0.88818 0.48853 0.29857 0.0
C1777 C 0.87879 0.49692 0.28269 0.0
C1778 C 0.88753 0.47131 0.28861 0.0
C1779 C 0.8777 0.4623 0.26224 0.0
C1780 C 0.86905 0.47122 0.24571 0.0
C1781 C 0.86963 0.48845 0.25581 0.0
C1782 C 0.87742 0.44437 0.25069 0.0
C1783 C 0.87763 0.43057 0.26828 0.0
C1784 C 0.8788 0.41339 0.25676 0.0
C1785 C 0.87055 0.39576 0.27312 0.0
C1786 C 0.87182 0.37949 0.26298 0.0
C1787 C 0.88126 0.38061 0.23623 0.0
H1788 H 0.89624 0.42828 0.21803 0.0
C1789 C 0.89031 0.39849 0.22059 0.0
C1790 C 0.88899 0.41469 0.23059 0.0
H1791 H 0.89847 0.39994 0.20059 0.0
H1792 H 0.89614 0.49539 0.31868 0.0
H1793 H 0.89507 0.46534 0.30133 0.0
H1794 H 0.86174 0.46478 0.22502 0.0
H1795 H 0.86278 0.49505 0.24284 0.0
H1796 H 0.87659 0.44233 0.22699 0.0
H1797 H 0.87644 0.43158 0.29195 0.0
H1798 H 0.86299 0.39453 0.29366 0.0
H1799 H 0.86521 0.36597 0.27578 0.0
C1800 C 0.49723 0.88828 0.21562 0.0
C1801 C 0.50655 0.87985 0.23158 0.0
C1802 C 0.47984 0.88707 0.22604 0.0
C1803 C 0.47153 0.87756 0.25288 0.0
C1804 C 0.48143 0.86998 0.26951 0.0
C1805 C 0.49888 0.87118 0.25899 0.0
C1806 C 0.45318 0.87632 0.26467 0.0
C1807 C 0.43894 0.87584 0.24726 0.0
C1808 C 0.42123 0.876 0.25888 0.0
C1809 C 0.42181 0.88533 0.28565 0.0
C1810 C 0.40516 0.88587 0.29554 0.0
C1811 C 0.38755 0.87691 0.27915 0.0
H1812 H 0.40311 0.86083 0.22096 0.0
C1813 C 0.38711 0.86827 0.25193 0.0
C1814 C 0.40381 0.86775 0.24193 0.0
H1815 H 0.3738 0.86175 0.2386 0.0
H1816 H 0.50343 0.89583 0.19502 0.0
H1817 H 0.47314 0.89387 0.21321 0.0
H1818 H 0.47557 0.86295 0.29053 0.0
H1819 H 0.50619 0.86508 0.272 0.0
H1820 H 0.45119 0.87528 0.28838 0.0
H1821 H 0.43998 0.87486 0.22357 0.0
H1822 H 0.43519 0.89257 0.29874 0.0
H1823 H 0.40607 0.89342 0.31598 0.0
C1824 C 0.63295 0.4861 0.24661 0.0
C1825 C 0.63363 0.49628 0.22083 0.0
C1826 C 0.61571 0.46846 0.25397 0.0
C1827 C 0.59879 0.46099 0.23587 0.0
C1828 C 0.5995 0.47144 0.21039 0.0
C1829 C 0.61664 0.48908 0.2032 0.0
C1830 C 0.58018 0.44238 0.24279 0.0
C1831 C 0.574 0.43657 0.27052 0.0
C1832 C 0.55449 0.41909 0.27771 0.0
C1833 C 0.5452 0.41924 0.30403 0.0
C1834 C 0.52712 0.40294 0.3121 0.0
C1835 C 0.51822 0.38595 0.29439 0.0
H1836 H 0.55207 0.40153 0.23914 0.0
C1837 C 0.52706 0.3859 0.26758 0.0
C1838 C 0.54519 0.40228 0.25939 0.0
H1839 H 0.52022 0.37301 0.25341 0.0
H1840 H 0.64584 0.49163 0.26074 0.0
H1841 H 0.61577 0.4606 0.27355 0.0
H1842 H 0.58667 0.46607 0.19616 0.0
H1843 H 0.61662 0.4971 0.18376 0.0
H1844 H 0.57052 0.43426 0.22452 0.0
H1845 H 0.58282 0.44581 0.28874 0.0
H1846 H 0.55195 0.43202 0.31844 0.0
H1847 H 0.52018 0.40352 0.33241 0.0
C1848 C 0.14973 0.62688 0.24938 0.0
C1849 C 0.14137 0.62756 0.2224 0.0
C1850 C 0.15098 0.61016 0.25702 0.0
C1851 C 0.14353 0.59374 0.23793 0.0
C1852 C 0.13492 0.59443 0.21119 0.0
C1853 C 0.13356 0.61105 0.20372 0.0
C1854 C 0.14451 0.5757 0.24506 0.0
C1855 C 0.14315 0.56899 0.27271 0.0
C1856 C 0.14227 0.54999 0.27967 0.0
C1857 C 0.13182 0.53947 0.30474 0.0
C1858 C 0.13092 0.52171 0.31235 0.0
C1859 C 0.14091 0.51442 0.29547 0.0
H1860 H 0.16026 0.55018 0.24302 0.0
C1861 C 0.1509 0.52453 0.26993 0.0
C1862 C 0.15179 0.54232 0.26223 0.0
H1863 H 0.15842 0.51892 0.25636 0.0
H1864 H 0.15553 0.63937 0.26431 0.0
H1865 H 0.15801 0.61024 0.2776 0.0
H1866 H 0.129 0.58198 0.19617 0.0
H1867 H 0.12638 0.61099 0.18328 0.0
H1868 H 0.14464 0.56684 0.22673 0.0
H1869 H 0.14103 0.57687 0.29077 0.0
H1870 H 0.12427 0.54498 0.31845 0.0
H1871 H 0.12253 0.51373 0.33158 0.0
C1872 C 0.49644 0.88865 0.79554 0.0
C1873 C 0.5054 0.87975 0.77988 0.0
C1874 C 0.47918 0.88773 0.78496 0.0
C1875 C 0.47069 0.87803 0.75826 0.0
C1876 C 0.48029 0.87002 0.74191 0.0
C1877 C 0.49758 0.87095 0.75257 0.0
C1878 C 0.4524 0.87686 0.74629 0.0
C1879 C 0.43829 0.87683 0.76344 0.0
C1880 C 0.42047 0.87658 0.75137 0.0
C1881 C 0.4031 0.8686 0.76836 0.0
C1882 C 0.38623 0.86861 0.75779 0.0
C1883 C 0.38647 0.87646 0.72996 0.0
H1884 H 0.43416 0.89216 0.71078 0.0
C1885 C 0.40402 0.88516 0.7135 0.0
C1886 C 0.42083 0.88513 0.72397 0.0
H1887 H 0.40478 0.89212 0.69256 0.0
H1888 H 0.50281 0.89633 0.81603 0.0
H1889 H 0.47271 0.89483 0.79757 0.0
H1890 H 0.47428 0.86283 0.721 0.0
H1891 H 0.50463 0.86449 0.73976 0.0
H1892 H 0.45024 0.87528 0.72263 0.0
H1893 H 0.43947 0.8764 0.7872 0.0
H1894 H 0.40255 0.86227 0.78978 0.0
H1895 H 0.37297 0.86233 0.77117 0.0
C1896 C 0.61893 0.49534 0.79597 0.0
C1897 C 0.63689 0.50335 0.78061 0.0
C1898 C 0.60243 0.47784 0.78646 0.0
C1899 C 0.60351 0.46813 0.76106 0.0
C1900 C 0.62128 0.47665 0.74499 0.0
C1901 C 0.63785 0.49419 0.75464 0.0
C1902 C 0.58598 0.44983 0.74998 0.0
C1903 C 0.57167 0.43658 0.76783 0.0
C1904 C 0.5534 0.41903 0.75672 0.0
C1905 C 0.54358 0.4021 0.77454 0.0
C1906 C 0.52604 0.38555 0.76491 0.0
C1907 C 0.51816 0.38564 0.73723 0.0
H1908 H 0.55165 0.43238 0.7157 0.0
C1909 C 0.52744 0.40283 0.71999 0.0
C1910 C 0.54498 0.41933 0.72949 0.0
H1911 H 0.52108 0.40353 0.69914 0.0
H1912 H 0.61762 0.5027 0.81534 0.0
H1913 H 0.58877 0.47219 0.79874 0.0
H1914 H 0.62238 0.46968 0.72503 0.0
H1915 H 0.65145 0.50047 0.74204 0.0
H1916 H 0.5851 0.44703 0.72646 0.0
H1917 H 0.57354 0.43836 0.79152 0.0
H1918 H 0.54955 0.40165 0.79587 0.0
H1919 H 0.51877 0.3726 0.77889 0.0
C1920 C 0.14773 0.6252 0.76675 0.0
C1921 C 0.13856 0.62616 0.79271 0.0
C1922 C 0.14844 0.60806 0.75992 0.0
C1923 C 0.1396 0.5915 0.77873 0.0
C1924 C 0.12987 0.59236 0.80413 0.0
C1925 C 0.12911 0.60942 0.81084 0.0
C1926 C 0.14058 0.57328 0.77294 0.0
C1927 C 0.1408 0.56676 0.74563 0.0
C1928 C 0.14007 0.5477 0.73974 0.0
C1929 C 0.1304 0.53714 0.71427 0.0
C1930 C 0.12973 0.51938 0.70749 0.0
C1931 C 0.13925 0.51213 0.72556 0.0
H1932 H 0.15686 0.54798 0.77811 0.0
C1933 C 0.14848 0.52228 0.75152 0.0
C1934 C 0.14905 0.54006 0.75848 0.0
H1935 H 0.15562 0.51672 0.76599 0.0
H1936 H 0.15481 0.63788 0.75223 0.0
H1937 H 0.15632 0.60802 0.74035 0.0
H1938 H 0.12283 0.57979 0.81888 0.0
H1939 H 0.12134 0.60962 0.83045 0.0
H1940 H 0.13955 0.56421 0.79174 0.0
H1941 H 0.13985 0.57482 0.7268 0.0
H1942 H 0.12328 0.5426 0.69957 0.0
H1943 H 0.12191 0.51139 0.68788 0.0
C1944 C 0.61593 0.12625 0.71925 0.0
C1945 C 0.63359 0.1352 0.73551 0.0
C1946 C 0.59931 0.12681 0.72928 0.0
C1947 C 0.59998 0.13616 0.75606 0.0
C1948 C 0.61741 0.1443 0.77297 0.0
C1949 C 0.63408 0.14375 0.76284 0.0
C1950 C 0.58241 0.13667 0.76757 0.0
C1951 C 0.56841 0.13658 0.75004 0.0
C1952 C 0.55029 0.13595 0.7616 0.0
C1953 C 0.54169 0.12661 0.78841 0.0
C1954 C 0.52444 0.12589 0.7985 0.0
C1955 C 0.51558 0.13468 0.78227 0.0
H1956 H 0.54696 0.15088 0.72373 0.0
C1957 C 0.52358 0.14325 0.75493 0.0
C1958 C 0.54086 0.14395 0.74473 0.0
H1959 H 0.51663 0.14963 0.74171 0.0
H1960 H 0.61499 0.11877 0.69871 0.0
H1961 H 0.58591 0.11964 0.71621 0.0
H1962 H 0.61819 0.15123 0.79396 0.0
H1963 H 0.64742 0.15025 0.7761 0.0
H1964 H 0.58135 0.13772 0.79126 0.0
H1965 H 0.57046 0.13754 0.72635 0.0
H1966 H 0.54802 0.11955 0.80145 0.0
H1967 H 0.51798 0.1184 0.81905 0.0
C1968 C 0.38855 0.53063 0.76414 0.0
C1969 C 0.3883 0.52111 0.79042 0.0
C1970 C 0.40526 0.54869 0.75655 0.0
C1971 C 0.42208 0.55725 0.77495 0.0
C1972 C 0.4218 0.54745 0.80095 0.0
C1973 C 0.4052 0.52942 0.80837 0.0
C1974 C 0.44021 0.57628 0.76786 0.0
C1975 C 0.4464 0.5821 0.74013 0.0
C1976 C 0.46579 0.59978 0.73301 0.0
C1977 C 0.47541 0.59964 0.70704 0.0
C1978 C 0.49363 0.6159 0.6994 0.0
C1979 C 0.50236 0.63289 0.71714 0.0
H1980 H 0.46769 0.6174 0.77124 0.0
C1981 C 0.4931 0.633 0.74349 0.0
C1982 C 0.47482 0.61665 0.75127 0.0
H1983 H 0.49978 0.64588 0.75769 0.0
H1984 H 0.37574 0.52426 0.74977 0.0
H1985 H 0.40486 0.556 0.73655 0.0
H1986 H 0.43455 0.55363 0.81544 0.0
H1987 H 0.40557 0.52196 0.82826 0.0
H1988 H 0.44969 0.58473 0.78611 0.0
H1989 H 0.43785 0.57262 0.72193 0.0
H1990 H 0.46887 0.58683 0.69268 0.0
H1991 H 0.50088 0.61525 0.67945 0.0
C1992 C 0.86792 0.38358 0.77014 0.0
C1993 C 0.87719 0.38316 0.79635 0.0
C1994 C 0.86662 0.40034 0.76283 0.0
C1995 C 0.87496 0.41705 0.78141 0.0
C1996 C 0.88454 0.41662 0.80729 0.0
C1997 C 0.8859 0.39996 0.81446 0.0
C1998 C 0.87398 0.43517 0.77467 0.0
C1999 C 0.87402 0.44137 0.74704 0.0
C2000 C 0.87537 0.46063 0.74023 0.0
C2001 C 0.88479 0.47036 0.71413 0.0
C2002 C 0.88634 0.48843 0.70674 0.0
C2003 C 0.87801 0.49687 0.72487 0.0
H2004 H 0.85983 0.46215 0.77894 0.0
C2005 C 0.86898 0.4875 0.75134 0.0
C2006 C 0.86747 0.46938 0.75887 0.0
H2007 H 0.86274 0.49398 0.76584 0.0
H2008 H 0.8614 0.37085 0.75565 0.0
H2009 H 0.85885 0.40003 0.74293 0.0
H2010 H 0.89117 0.42929 0.8219 0.0
H2011 H 0.89374 0.40019 0.83427 0.0
H2012 H 0.87509 0.44455 0.79307 0.0
H2013 H 0.87486 0.43293 0.72865 0.0
H2014 H 0.89109 0.46402 0.69947 0.0
H2015 H 0.89399 0.49578 0.68669 0.0
loop_
_geom_bond_atom_site_label_1
_geom_bond_atom_site_label_2
_geom_bond_distance
_geom_bond_site_symmetry_2
_ccdc_geom_bond_type
Mn0 O5 2.095 . S
Mn0 O15 2.162 . S
Mn0 O16 2.297 . S
Mn0 O24 2.385 . S
Mn0 O25 2.209 . S
Mn0 O26 2.094 . S
Mn1 O6 2.121 . S
Mn1 N8 2.257 . S
Mn1 N17 2.282 . S
Mn1 O25 2.215 . S
Mn1 O27 2.117 . S
C2 O24 1.234 . S
C2 O25 1.283 . S
C3 O15 1.281 . S
C3 O16 1.236 . S
C4 O26 1.240 . S
C4 O27 1.264 . S
O5 Mn0 2.095 . S
O5 C14 1.250 . S
O6 Mn1 2.121 . S
O6 C14 1.258 . S
C7 N8 1.326 . S
C7 C11 1.460 . S
C7 H13 0.929 . S
N8 Mn1 2.257 . S
N8 C7 1.326 . S
N8 C12 1.362 . S
C9 C10 1.258 . S
C9 C12 1.431 . S
C9 C29 1.449 . S
C10 C9 1.258 . S
C10 C11 1.477 . S
C10 H30 0.931 . S
C11 C7 1.460 . S
C11 C10 1.477 . S
C11 H31 0.930 . S
C12 N8 1.362 . S
C12 C9 1.431 . S
C12 C22 1.476 . S
H13 C7 0.929 . S
C14 O5 1.250 . S
C14 O6 1.258 . S
O15 Mn0 2.162 . S
O15 C3 1.281 . S
O16 Mn0 2.297 . S
O16 C3 1.236 . S
N17 Mn1 2.282 . S
N17 C18 1.328 . S
N17 C22 1.318 . S
C18 N17 1.328 . S
C18 C19 1.457 . S
C18 H23 0.929 . S
C19 C18 1.457 . S
C19 C20 1.291 . S
C19 H32 0.931 . S
C20 C19 1.291 . S
C20 C21 1.373 . S
C20 H33 0.929 . S
C21 C20 1.373 . S
C21 C22 1.396 . S
C21 C28 1.403 . S
C22 C12 1.476 . S
C22 N17 1.318 . S
C22 C21 1.396 . S
H23 C18 0.929 . S
O24 Mn0 2.385 . S
O24 C2 1.234 . S
O25 Mn0 2.209 . S
O25 Mn1 2.215 . S
O25 C2 1.283 . S
O26 Mn0 2.094 . S
O26 C4 1.240 . S
O27 Mn1 2.117 . S
O27 C4 1.264 . S
C28 C21 1.403 . S
C28 C29 1.399 . S
C28 H34 0.929 . S
C29 C9 1.449 . S
C29 C28 1.399 . S
C29 H35 0.930 . S
H30 C10 0.931 . S
H31 C11 0.930 . S
H32 C19 0.931 . S
H33 C20 0.929 . S
H34 C28 0.929 . S
H35 C29 0.930 . S
Mn36 O41 2.095 . S
Mn36 O51 2.162 . S
Mn36 O52 2.297 . S
Mn36 O60 2.385 . S
Mn36 O61 2.209 . S
Mn36 O62 2.094 . S
Mn37 O42 2.121 . S
Mn37 N44 2.257 . S
Mn37 N53 2.282 . S
Mn37 O61 2.215 . S
Mn37 O63 2.117 . S
C38 O60 1.234 . S
C38 O61 1.283 . S
C39 O51 1.281 . S
C39 O52 1.236 . S
C40 O62 1.240 . S
C40 O63 1.264 . S
O41 Mn36 2.095 . S
O41 C50 1.250 . S
O42 Mn37 2.121 . S
O42 C50 1.258 . S
C43 N44 1.326 . S
C43 C47 1.460 . S
C43 H49 0.929 . S
N44 Mn37 2.257 . S
N44 C43 1.326 . S
N44 C48 1.362 . S
C45 C46 1.258 . S
C45 C48 1.431 . S
C45 C65 1.449 . S
C46 C45 1.258 . S
C46 C47 1.477 . S
C46 H66 0.931 . S
C47 C43 1.460 . S
C47 C46 1.477 . S
C47 H67 0.930 . S
C48 N44 1.362 . S
C48 C45 1.431 . S
C48 C58 1.476 . S
H49 C43 0.929 . S
C50 O41 1.250 . S
C50 O42 1.258 . S
O51 Mn36 2.162 . S
O51 C39 1.281 . S
O52 Mn36 2.297 . S
O52 C39 1.236 . S
N53 Mn37 2.282 . S
N53 C54 1.328 . S
N53 C58 1.318 . S
C54 N53 1.328 . S
C54 C55 1.457 . S
C54 H59 0.929 . S
C55 C54 1.457 . S
C55 C56 1.291 . S
C55 H68 0.931 . S
C56 C55 1.291 . S
C56 C57 1.373 . S
C56 H69 0.929 . S
C57 C56 1.373 . S
C57 C58 1.396 . S
C57 C64 1.403 . S
C58 C48 1.476 . S
C58 N53 1.318 . S
C58 C57 1.396 . S
H59 C54 0.929 . S
O60 Mn36 2.385 . S
O60 C38 1.234 . S
O61 Mn36 2.209 . S
O61 Mn37 2.215 . S
O61 C38 1.283 . S
O62 Mn36 2.094 . S
O62 C40 1.240 . S
O63 Mn37 2.117 . S
O63 C40 1.264 . S
C64 C57 1.403 . S
C64 C65 1.399 . S
C64 H70 0.929 . S
C65 C45 1.449 . S
C65 C64 1.399 . S
C65 H71 0.930 . S
H66 C46 0.931 . S
H67 C47 0.930 . S
H68 C55 0.931 . S
H69 C56 0.929 . S
H70 C64 0.929 . S
H71 C65 0.930 . S
Mn72 O77 2.095 . S
Mn72 O87 2.162 . S
Mn72 O88 2.297 . S
Mn72 O96 2.385 . S
Mn72 O97 2.209 . S
Mn72 O98 2.094 . S
Mn73 O78 2.121 . S
Mn73 N80 2.257 . S
Mn73 N89 2.282 . S
Mn73 O97 2.215 . S
Mn73 O99 2.117 . S
C74 O96 1.234 . S
C74 O97 1.283 . S
C75 O87 1.281 . S
C75 O88 1.236 . S
C76 O98 1.240 . S
C76 O99 1.264 . S
O77 Mn72 2.095 . S
O77 C86 1.250 . S
O78 Mn73 2.121 . S
O78 C86 1.258 . S
C79 N80 1.326 . S
C79 C83 1.460 . S
C79 H85 0.929 . S
N80 Mn73 2.257 . S
N80 C79 1.326 . S
N80 C84 1.362 . S
C81 C82 1.258 . S
C81 C84 1.431 . S
C81 C101 1.449 . S
C82 C81 1.258 . S
C82 C83 1.477 . S
C82 H102 0.931 . S
C83 C79 1.460 . S
C83 C82 1.477 . S
C83 H103 0.930 . S
C84 N80 1.362 . S
C84 C81 1.431 . S
C84 C94 1.476 . S
H85 C79 0.929 . S
C86 O77 1.250 . S
C86 O78 1.258 . S
O87 Mn72 2.162 . S
O87 C75 1.281 . S
O88 Mn72 2.297 . S
O88 C75 1.236 . S
N89 Mn73 2.282 . S
N89 C90 1.328 . S
N89 C94 1.318 . S
C90 N89 1.328 . S
C90 C91 1.457 . S
C90 H95 0.929 . S
C91 C90 1.457 . S
C91 C92 1.291 . S
C91 H104 0.931 . S
C92 C91 1.291 . S
C92 C93 1.373 . S
C92 H105 0.929 . S
C93 C92 1.373 . S
C93 C94 1.396 . S
C93 C100 1.403 . S
C94 C84 1.476 . S
C94 N89 1.318 . S
C94 C93 1.396 . S
H95 C90 0.929 . S
O96 Mn72 2.385 . S
O96 C74 1.234 . S
O97 Mn72 2.209 . S
O97 Mn73 2.215 . S
O97 C74 1.283 . S
O98 Mn72 2.094 . S
O98 C76 1.240 . S
O99 Mn73 2.117 . S
O99 C76 1.264 . S
C100 C93 1.403 . S
C100 C101 1.399 . S
C100 H106 0.929 . S
C101 C81 1.449 . S
C101 C100 1.399 . S
C101 H107 0.930 . S
H102 C82 0.931 . S
H103 C83 0.930 . S
H104 C91 0.931 . S
H105 C92 0.929 . S
H106 C100 0.929 . S
H107 C101 0.930 . S
Mn108 O113 2.095 . S
Mn108 O123 2.162 . S
Mn108 O124 2.297 . S
Mn108 O132 2.385 . S
Mn108 O133 2.209 . S
Mn108 O134 2.094 . S
Mn109 O114 2.121 . S
Mn109 N116 2.257 . S
Mn109 N125 2.282 . S
Mn109 O133 2.215 . S
Mn109 O135 2.117 . S
C110 O132 1.234 . S
C110 O133 1.283 . S
C111 O123 1.281 . S
C111 O124 1.236 . S
C112 O134 1.240 . S
C112 O135 1.264 . S
O113 Mn108 2.095 . S
O113 C122 1.250 . S
O114 Mn109 2.121 . S
O114 C122 1.258 . S
C115 N116 1.326 . S
C115 C119 1.460 . S
C115 H121 0.929 . S
N116 Mn109 2.257 . S
N116 C115 1.326 . S
N116 C120 1.362 . S
C117 C118 1.258 . S
C117 C120 1.431 . S
C117 C137 1.449 . S
C118 C117 1.258 . S
C118 C119 1.477 . S
C118 H138 0.931 . S
C119 C115 1.460 . S
C119 C118 1.477 . S
C119 H139 0.930 . S
C120 N116 1.362 . S
C120 C117 1.431 . S
C120 C130 1.476 . S
H121 C115 0.929 . S
C122 O113 1.250 . S
C122 O114 1.258 . S
O123 Mn108 2.162 . S
O123 C111 1.281 . S
O124 Mn108 2.297 . S
O124 C111 1.236 . S
N125 Mn109 2.282 . S
N125 C126 1.328 . S
N125 C130 1.318 . S
C126 N125 1.328 . S
C126 C127 1.457 . S
C126 H131 0.929 . S
C127 C126 1.457 . S
C127 C128 1.291 . S
C127 H140 0.931 . S
C128 C127 1.291 . S
C128 C129 1.373 . S
C128 H141 0.929 . S
C129 C128 1.373 . S
C129 C130 1.396 . S
C129 C136 1.403 . S
C130 C120 1.476 . S
C130 N125 1.318 . S
C130 C129 1.396 . S
H131 C126 0.929 . S
O132 Mn108 2.385 . S
O132 C110 1.234 . S
O133 Mn108 2.209 . S
O133 Mn109 2.215 . S
O133 C110 1.283 . S
O134 Mn108 2.094 . S
O134 C112 1.240 . S
O135 Mn109 2.117 . S
O135 C112 1.264 . S
C136 C129 1.403 . S
C136 C137 1.399 . S
C136 H142 0.929 . S
C137 C117 1.449 . S
C137 C136 1.399 . S
C137 H143 0.930 . S
H138 C118 0.931 . S
H139 C119 0.930 . S
H140 C127 0.931 . S
H141 C128 0.929 . S
H142 C136 0.929 . S
H143 C137 0.930 . S
Mn144 O149 2.095 . S
Mn144 O159 2.162 . S
Mn144 O160 2.297 . S
Mn144 O168 2.385 . S
Mn144 O169 2.209 . S
Mn144 O170 2.094 . S
Mn145 O150 2.121 . S
Mn145 N152 2.257 . S
Mn145 N161 2.282 . S
Mn145 O169 2.215 . S
Mn145 O171 2.117 . S
C146 O168 1.234 . S
C146 O169 1.283 . S
C147 O159 1.281 . S
C147 O160 1.236 . S
C148 O170 1.240 . S
C148 O171 1.264 . S
O149 Mn144 2.095 . S
O149 C158 1.250 . S
O150 Mn145 2.121 . S
O150 C158 1.258 . S
C151 N152 1.326 . S
C151 C155 1.460 . S
C151 H157 0.929 . S
N152 Mn145 2.257 . S
N152 C151 1.326 . S
N152 C156 1.362 . S
C153 C154 1.258 . S
C153 C156 1.431 . S
C153 C173 1.449 . S
C154 C153 1.258 . S
C154 C155 1.477 . S
C154 H174 0.931 . S
C155 C151 1.460 . S
C155 C154 1.477 . S
C155 H175 0.930 . S
C156 N152 1.362 . S
C156 C153 1.431 . S
C156 C166 1.476 . S
H157 C151 0.929 . S
C158 O149 1.250 . S
C158 O150 1.258 . S
O159 Mn144 2.162 . S
O159 C147 1.281 . S
O160 Mn144 2.297 . S
O160 C147 1.236 . S
N161 Mn145 2.282 . S
N161 C162 1.328 . S
N161 C166 1.318 . S
C162 N161 1.328 . S
C162 C163 1.457 . S
C162 H167 0.929 . S
C163 C162 1.457 . S
C163 C164 1.291 . S
C163 H176 0.931 . S
C164 C163 1.291 . S
C164 C165 1.373 . S
C164 H177 0.929 . S
C165 C164 1.373 . S
C165 C166 1.396 . S
C165 C172 1.403 . S
C166 C156 1.476 . S
C166 N161 1.318 . S
C166 C165 1.396 . S
H167 C162 0.929 . S
O168 Mn144 2.385 . S
O168 C146 1.234 . S
O169 Mn144 2.209 . S
O169 Mn145 2.215 . S
O169 C146 1.283 . S
O170 Mn144 2.094 . S
O170 C148 1.240 . S
O171 Mn145 2.117 . S
O171 C148 1.264 . S
C172 C165 1.403 . S
C172 C173 1.399 . S
C172 H178 0.929 . S
C173 C153 1.449 . S
C173 C172 1.399 . S
C173 H179 0.930 . S
H174 C154 0.931 . S
H175 C155 0.930 . S
H176 C163 0.931 . S
H177 C164 0.929 . S
H178 C172 0.929 . S
H179 C173 0.930 . S
Mn180 O185 2.095 . S
Mn180 O195 2.162 . S
Mn180 O196 2.297 . S
Mn180 O204 2.385 . S
Mn180 O205 2.209 . S
Mn180 O206 2.094 . S
Mn181 O186 2.121 . S
Mn181 N188 2.257 . S
Mn181 N197 2.282 . S
Mn181 O205 2.215 . S
Mn181 O207 2.117 . S
C182 O204 1.234 . S
C182 O205 1.283 . S
C183 O195 1.281 . S
C183 O196 1.236 . S
C184 O206 1.240 . S
C184 O207 1.264 . S
O185 Mn180 2.095 . S
O185 C194 1.250 . S
O186 Mn181 2.121 . S
O186 C194 1.258 . S
C187 N188 1.326 . S
C187 C191 1.460 . S
C187 H193 0.929 . S
N188 Mn181 2.257 . S
N188 C187 1.326 . S
N188 C192 1.362 . S
C189 C190 1.258 . S
C189 C192 1.431 . S
C189 C209 1.449 . S
C190 C189 1.258 . S
C190 C191 1.477 . S
C190 H210 0.931 . S
C191 C187 1.460 . S
C191 C190 1.477 . S
C191 H211 0.930 . S
C192 N188 1.362 . S
C192 C189 1.431 . S
C192 C202 1.476 . S
H193 C187 0.929 . S
C194 O185 1.250 . S
C194 O186 1.258 . S
O195 Mn180 2.162 . S
O195 C183 1.281 . S
O196 Mn180 2.297 . S
O196 C183 1.236 . S
N197 Mn181 2.282 . S
N197 C198 1.328 . S
N197 C202 1.318 . S
C198 N197 1.328 . S
C198 C199 1.457 . S
C198 H203 0.929 . S
C199 C198 1.457 . S
C199 C200 1.291 . S
C199 H212 0.931 . S
C200 C199 1.291 . S
C200 C201 1.373 . S
C200 H213 0.929 . S
C201 C200 1.373 . S
C201 C202 1.396 . S
C201 C208 1.403 . S
C202 C192 1.476 . S
C202 N197 1.318 . S
C202 C201 1.396 . S
H203 C198 0.929 . S
O204 Mn180 2.385 . S
O204 C182 1.234 . S
O205 Mn180 2.209 . S
O205 Mn181 2.215 . S
O205 C182 1.283 . S
O206 Mn180 2.094 . S
O206 C184 1.240 . S
O207 Mn181 2.117 . S
O207 C184 1.264 . S
C208 C201 1.403 . S
C208 C209 1.399 . S
C208 H214 0.929 . S
C209 C189 1.449 . S
C209 C208 1.399 . S
C209 H215 0.930 . S
H210 C190 0.931 . S
H211 C191 0.930 . S
H212 C199 0.931 . S
H213 C200 0.929 . S
H214 C208 0.929 . S
H215 C209 0.930 . S
Mn216 O221 2.095 . S
Mn216 O231 2.162 . S
Mn216 O232 2.297 . S
Mn216 O240 2.385 . S
Mn216 O241 2.209 . S
Mn216 O242 2.094 . S
Mn217 O222 2.121 . S
Mn217 N224 2.257 . S
Mn217 N233 2.282 . S
Mn217 O241 2.215 . S
Mn217 O243 2.117 . S
C218 O240 1.234 . S
C218 O241 1.283 . S
C219 O231 1.281 . S
C219 O232 1.236 . S
C220 O242 1.240 . S
C220 O243 1.264 . S
O221 Mn216 2.095 . S
O221 C230 1.250 . S
O222 Mn217 2.121 . S
O222 C230 1.258 . S
C223 N224 1.326 . S
C223 C227 1.460 . S
C223 H229 0.929 . S
N224 Mn217 2.257 . S
N224 C223 1.326 . S
N224 C228 1.362 . S
C225 C226 1.258 . S
C225 C228 1.431 . S
C225 C245 1.449 . S
C226 C225 1.258 . S
C226 C227 1.477 . S
C226 H246 0.931 . S
C227 C223 1.460 . S
C227 C226 1.477 . S
C227 H247 0.930 . S
C228 N224 1.362 . S
C228 C225 1.431 . S
C228 C238 1.476 . S
H229 C223 0.929 . S
C230 O221 1.250 . S
C230 O222 1.258 . S
O231 Mn216 2.162 . S
O231 C219 1.281 . S
O232 Mn216 2.297 . S
O232 C219 1.236 . S
N233 Mn217 2.282 . S
N233 C234 1.328 . S
N233 C238 1.318 . S
C234 N233 1.328 . S
C234 C235 1.457 . S
C234 H239 0.929 . S
C235 C234 1.457 . S
C235 C236 1.291 . S
C235 H248 0.931 . S
C236 C235 1.291 . S
C236 C237 1.373 . S
C236 H249 0.929 . S
C237 C236 1.373 . S
C237 C238 1.396 . S
C237 C244 1.403 . S
C238 C228 1.476 . S
C238 N233 1.318 . S
C238 C237 1.396 . S
H239 C234 0.929 . S
O240 Mn216 2.385 . S
O240 C218 1.234 . S
O241 Mn216 2.209 . S
O241 Mn217 2.215 . S
O241 C218 1.283 . S
O242 Mn216 2.094 . S
O242 C220 1.240 . S
O243 Mn217 2.117 . S
O243 C220 1.264 . S
C244 C237 1.403 . S
C244 C245 1.399 . S
C244 H250 0.929 . S
C245 C225 1.449 . S
C245 C244 1.399 . S
C245 H251 0.930 . S
H246 C226 0.931 . S
H247 C227 0.930 . S
H248 C235 0.931 . S
H249 C236 0.929 . S
H250 C244 0.929 . S
H251 C245 0.930 . S
Mn252 O257 2.095 . S
Mn252 O267 2.162 . S
Mn252 O268 2.297 . S
Mn252 O276 2.385 . S
Mn252 O277 2.209 . S
Mn252 O278 2.094 . S
Mn253 O258 2.121 . S
Mn253 N260 2.257 . S
Mn253 N269 2.282 . S
Mn253 O277 2.215 . S
Mn253 O279 2.117 . S
C254 O276 1.234 . S
C254 O277 1.283 . S
C255 O267 1.281 . S
C255 O268 1.236 . S
C256 O278 1.240 . S
C256 O279 1.264 . S
O257 Mn252 2.095 . S
O257 C266 1.250 . S
O258 Mn253 2.121 . S
O258 C266 1.258 . S
C259 N260 1.326 . S
C259 C263 1.460 . S
C259 H265 0.929 . S
N260 Mn253 2.257 . S
N260 C259 1.326 . S
N260 C264 1.362 . S
C261 C262 1.258 . S
C261 C264 1.431 . S
C261 C281 1.449 . S
C262 C261 1.258 . S
C262 C263 1.477 . S
C262 H282 0.931 . S
C263 C259 1.460 . S
C263 C262 1.477 . S
C263 H283 0.930 . S
C264 N260 1.362 . S
C264 C261 1.431 . S
C264 C274 1.476 . S
H265 C259 0.929 . S
C266 O257 1.250 . S
C266 O258 1.258 . S
O267 Mn252 2.162 . S
O267 C255 1.281 . S
O268 Mn252 2.297 . S
O268 C255 1.236 . S
N269 Mn253 2.282 . S
N269 C270 1.328 . S
N269 C274 1.318 . S
C270 N269 1.328 . S
C270 C271 1.457 . S
C270 H275 0.929 . S
C271 C270 1.457 . S
C271 C272 1.291 . S
C271 H284 0.931 . S
C272 C271 1.291 . S
C272 C273 1.373 . S
C272 H285 0.929 . S
C273 C272 1.373 . S
C273 C274 1.396 . S
C273 C280 1.403 . S
C274 C264 1.476 . S
C274 N269 1.318 . S
C274 C273 1.396 . S
H275 C270 0.929 . S
O276 Mn252 2.385 . S
O276 C254 1.234 . S
O277 Mn252 2.209 . S
O277 Mn253 2.215 . S
O277 C254 1.283 . S
O278 Mn252 2.094 . S
O278 C256 1.240 . S
O279 Mn253 2.117 . S
O279 C256 1.264 . S
C280 C273 1.403 . S
C280 C281 1.399 . S
C280 H286 0.929 . S
C281 C261 1.449 . S
C281 C280 1.399 . S
C281 H287 0.930 . S
H282 C262 0.931 . S
H283 C263 0.930 . S
H284 C271 0.931 . S
H285 C272 0.929 . S
H286 C280 0.929 . S
H287 C281 0.930 . S
Mn288 O293 2.095 . S
Mn288 O303 2.162 . S
Mn288 O304 2.297 . S
Mn288 O312 2.385 . S
Mn288 O313 2.209 . S
Mn288 O314 2.094 . S
Mn289 O294 2.121 . S
Mn289 N296 2.257 . S
Mn289 N305 2.282 . S
Mn289 O313 2.215 . S
Mn289 O315 2.117 . S
C290 O312 1.234 . S
C290 O313 1.283 . S
C291 O303 1.281 . S
C291 O304 1.236 . S
C292 O314 1.240 . S
C292 O315 1.264 . S
O293 Mn288 2.095 . S
O293 C302 1.250 . S
O294 Mn289 2.121 . S
O294 C302 1.258 . S
C295 N296 1.326 . S
C295 C299 1.460 . S
C295 H301 0.929 . S
N296 Mn289 2.257 . S
N296 C295 1.326 . S
N296 C300 1.362 . S
C297 C298 1.258 . S
C297 C300 1.431 . S
C297 C317 1.449 . S
C298 C297 1.258 . S
C298 C299 1.477 . S
C298 H318 0.931 . S
C299 C295 1.460 . S
C299 C298 1.477 . S
C299 H319 0.930 . S
C300 N296 1.362 . S
C300 C297 1.431 . S
C300 C310 1.476 . S
H301 C295 0.929 . S
C302 O293 1.250 . S
C302 O294 1.258 . S
O303 Mn288 2.162 . S
O303 C291 1.281 . S
O304 Mn288 2.297 . S
O304 C291 1.236 . S
N305 Mn289 2.282 . S
N305 C306 1.328 . S
N305 C310 1.318 . S
C306 N305 1.328 . S
C306 C307 1.457 . S
C306 H311 0.929 . S
C307 C306 1.457 . S
C307 C308 1.291 . S
C307 H320 0.931 . S
C308 C307 1.291 . S
C308 C309 1.373 . S
C308 H321 0.929 . S
C309 C308 1.373 . S
C309 C310 1.396 . S
C309 C316 1.403 . S
C310 C300 1.476 . S
C310 N305 1.318 . S
C310 C309 1.396 . S
H311 C306 0.929 . S
O312 Mn288 2.385 . S
O312 C290 1.234 . S
O313 Mn288 2.209 . S
O313 Mn289 2.215 . S
O313 C290 1.283 . S
O314 Mn288 2.094 . S
O314 C292 1.240 . S
O315 Mn289 2.117 . S
O315 C292 1.264 . S
C316 C309 1.403 . S
C316 C317 1.399 . S
C316 H322 0.929 . S
C317 C297 1.449 . S
C317 C316 1.399 . S
C317 H323 0.930 . S
H318 C298 0.931 . S
H319 C299 0.930 . S
H320 C307 0.931 . S
H321 C308 0.929 . S
H322 C316 0.929 . S
H323 C317 0.930 . S
Mn324 O329 2.095 . S
Mn324 O339 2.162 . S
Mn324 O340 2.297 . S
Mn324 O348 2.385 . S
Mn324 O349 2.209 . S
Mn324 O350 2.094 . S
Mn325 O330 2.121 . S
Mn325 N332 2.257 . S
Mn325 N341 2.282 . S
Mn325 O349 2.215 . S
Mn325 O351 2.117 . S
C326 O348 1.234 . S
C326 O349 1.283 . S
C327 O339 1.281 . S
C327 O340 1.236 . S
C328 O350 1.240 . S
C328 O351 1.264 . S
O329 Mn324 2.095 . S
O329 C338 1.250 . S
O330 Mn325 2.121 . S
O330 C338 1.258 . S
C331 N332 1.326 . S
C331 C335 1.460 . S
C331 H337 0.929 . S
N332 Mn325 2.257 . S
N332 C331 1.326 . S
N332 C336 1.362 . S
C333 C334 1.258 . S
C333 C336 1.431 . S
C333 C353 1.449 . S
C334 C333 1.258 . S
C334 C335 1.477 . S
C334 H354 0.931 . S
C335 C331 1.460 . S
C335 C334 1.477 . S
C335 H355 0.930 . S
C336 N332 1.362 . S
C336 C333 1.431 . S
C336 C346 1.476 . S
H337 C331 0.929 . S
C338 O329 1.250 . S
C338 O330 1.258 . S
O339 Mn324 2.162 . S
O339 C327 1.281 . S
O340 Mn324 2.297 . S
O340 C327 1.236 . S
N341 Mn325 2.282 . S
N341 C342 1.328 . S
N341 C346 1.318 . S
C342 N341 1.328 . S
C342 C343 1.457 . S
C342 H347 0.929 . S
C343 C342 1.457 . S
C343 C344 1.291 . S
C343 H356 0.931 . S
C344 C343 1.291 . S
C344 C345 1.373 . S
C344 H357 0.929 . S
C345 C344 1.373 . S
C345 C346 1.396 . S
C345 C352 1.403 . S
C346 C336 1.476 . S
C346 N341 1.318 . S
C346 C345 1.396 . S
H347 C342 0.929 . S
O348 Mn324 2.385 . S
O348 C326 1.234 . S
O349 Mn324 2.209 . S
O349 Mn325 2.215 . S
O349 C326 1.283 . S
O350 Mn324 2.094 . S
O350 C328 1.240 . S
O351 Mn325 2.117 . S
O351 C328 1.264 . S
C352 C345 1.403 . S
C352 C353 1.399 . S
C352 H358 0.929 . S
C353 C333 1.449 . S
C353 C352 1.399 . S
C353 H359 0.930 . S
H354 C334 0.931 . S
H355 C335 0.930 . S
H356 C343 0.931 . S
H357 C344 0.929 . S
H358 C352 0.929 . S
H359 C353 0.930 . S
Mn360 O365 2.095 . S
Mn360 O375 2.162 . S
Mn360 O376 2.297 . S
Mn360 O384 2.385 . S
Mn360 O385 2.209 . S
Mn360 O386 2.094 . S
Mn361 O366 2.121 . S
Mn361 N368 2.257 . S
Mn361 N377 2.282 . S
Mn361 O385 2.215 . S
Mn361 O387 2.117 . S
C362 O384 1.234 . S
C362 O385 1.283 . S
C363 O375 1.281 . S
C363 O376 1.236 . S
C364 O386 1.240 . S
C364 O387 1.264 . S
O365 Mn360 2.095 . S
O365 C374 1.250 . S
O366 Mn361 2.121 . S
O366 C374 1.258 . S
C367 N368 1.326 . S
C367 C371 1.460 . S
C367 H373 0.929 . S
N368 Mn361 2.257 . S
N368 C367 1.326 . S
N368 C372 1.362 . S
C369 C370 1.258 . S
C369 C372 1.431 . S
C369 C389 1.449 . S
C370 C369 1.258 . S
C370 C371 1.477 . S
C370 H390 0.931 . S
C371 C367 1.460 . S
C371 C370 1.477 . S
C371 H391 0.930 . S
C372 N368 1.362 . S
C372 C369 1.431 . S
C372 C382 1.476 . S
H373 C367 0.929 . S
C374 O365 1.250 . S
C374 O366 1.258 . S
O375 Mn360 2.162 . S
O375 C363 1.281 . S
O376 Mn360 2.297 . S
O376 C363 1.236 . S
N377 Mn361 2.282 . S
N377 C378 1.328 . S
N377 C382 1.318 . S
C378 N377 1.328 . S
C378 C379 1.457 . S
C378 H383 0.929 . S
C379 C378 1.457 . S
C379 C380 1.291 . S
C379 H392 0.931 . S
C380 C379 1.291 . S
C380 C381 1.373 . S
C380 H393 0.929 . S
C381 C380 1.373 . S
C381 C382 1.396 . S
C381 C388 1.403 . S
C382 C372 1.476 . S
C382 N377 1.318 . S
C382 C381 1.396 . S
H383 C378 0.929 . S
O384 Mn360 2.385 . S
O384 C362 1.234 . S
O385 Mn360 2.209 . S
O385 Mn361 2.215 . S
O385 C362 1.283 . S
O386 Mn360 2.094 . S
O386 C364 1.240 . S
O387 Mn361 2.117 . S
O387 C364 1.264 . S
C388 C381 1.403 . S
C388 C389 1.399 . S
C388 H394 0.929 . S
C389 C369 1.449 . S
C389 C388 1.399 . S
C389 H395 0.930 . S
H390 C370 0.931 . S
H391 C371 0.930 . S
H392 C379 0.931 . S
H393 C380 0.929 . S
H394 C388 0.929 . S
H395 C389 0.930 . S
Mn396 O401 2.095 . S
Mn396 O411 2.162 . S
Mn396 O412 2.297 . S
Mn396 O420 2.385 . S
Mn396 O421 2.209 . S
Mn396 O422 2.094 . S
Mn397 O402 2.121 . S
Mn397 N404 2.257 . S
Mn397 N413 2.282 . S
Mn397 O421 2.215 . S
Mn397 O423 2.117 . S
C398 O420 1.234 . S
C398 O421 1.283 . S
C399 O411 1.281 . S
C399 O412 1.236 . S
C400 O422 1.240 . S
C400 O423 1.264 . S
O401 Mn396 2.095 . S
O401 C410 1.250 . S
O402 Mn397 2.121 . S
O402 C410 1.258 . S
C403 N404 1.326 . S
C403 C407 1.460 . S
C403 H409 0.929 . S
N404 Mn397 2.257 . S
N404 C403 1.326 . S
N404 C408 1.362 . S
C405 C406 1.258 . S
C405 C408 1.431 . S
C405 C425 1.449 . S
C406 C405 1.258 . S
C406 C407 1.477 . S
C406 H426 0.931 . S
C407 C403 1.460 . S
C407 C406 1.477 . S
C407 H427 0.930 . S
C408 N404 1.362 . S
C408 C405 1.431 . S
C408 C418 1.476 . S
H409 C403 0.929 . S
C410 O401 1.250 . S
C410 O402 1.258 . S
O411 Mn396 2.162 . S
O411 C399 1.281 . S
O412 Mn396 2.297 . S
O412 C399 1.236 . S
N413 Mn397 2.282 . S
N413 C414 1.328 . S
N413 C418 1.318 . S
C414 N413 1.328 . S
C414 C415 1.457 . S
C414 H419 0.929 . S
C415 C414 1.457 . S
C415 C416 1.291 . S
C415 H428 0.931 . S
C416 C415 1.291 . S
C416 C417 1.373 . S
C416 H429 0.929 . S
C417 C416 1.373 . S
C417 C418 1.396 . S
C417 C424 1.403 . S
C418 C408 1.476 . S
C418 N413 1.318 . S
C418 C417 1.396 . S
H419 C414 0.929 . S
O420 Mn396 2.385 . S
O420 C398 1.234 . S
O421 Mn396 2.209 . S
O421 Mn397 2.215 . S
O421 C398 1.283 . S
O422 Mn396 2.094 . S
O422 C400 1.240 . S
O423 Mn397 2.117 . S
O423 C400 1.264 . S
C424 C417 1.403 . S
C424 C425 1.399 . S
C424 H430 0.929 . S
C425 C405 1.449 . S
C425 C424 1.399 . S
C425 H431 0.930 . S
H426 C406 0.931 . S
H427 C407 0.930 . S
H428 C415 0.931 . S
H429 C416 0.929 . S
H430 C424 0.929 . S
H431 C425 0.930 . S
Mn432 O437 2.095 . S
Mn432 O447 2.162 . S
Mn432 O448 2.297 . S
Mn432 O456 2.385 . S
Mn432 O457 2.209 . S
Mn432 O458 2.094 . S
Mn433 O438 2.121 . S
Mn433 N440 2.257 . S
Mn433 N449 2.282 . S
Mn433 O457 2.215 . S
Mn433 O459 2.117 . S
C434 O456 1.234 . S
C434 O457 1.283 . S
C435 O447 1.281 . S
C435 O448 1.236 . S
C436 O458 1.240 . S
C436 O459 1.264 . S
O437 Mn432 2.095 . S
O437 C446 1.250 . S
O438 Mn433 2.121 . S
O438 C446 1.258 . S
C439 N440 1.326 . S
C439 C443 1.460 . S
C439 H445 0.929 . S
N440 Mn433 2.257 . S
N440 C439 1.326 . S
N440 C444 1.362 . S
C441 C442 1.258 . S
C441 C444 1.431 . S
C441 C461 1.449 . S
C442 C441 1.258 . S
C442 C443 1.477 . S
C442 H462 0.931 . S
C443 C439 1.460 . S
C443 C442 1.477 . S
C443 H463 0.930 . S
C444 N440 1.362 . S
C444 C441 1.431 . S
C444 C454 1.476 . S
H445 C439 0.929 . S
C446 O437 1.250 . S
C446 O438 1.258 . S
O447 Mn432 2.162 . S
O447 C435 1.281 . S
O448 Mn432 2.297 . S
O448 C435 1.236 . S
N449 Mn433 2.282 . S
N449 C450 1.328 . S
N449 C454 1.318 . S
C450 N449 1.328 . S
C450 C451 1.457 . S
C450 H455 0.929 . S
C451 C450 1.457 . S
C451 C452 1.291 . S
C451 H464 0.931 . S
C452 C451 1.291 . S
C452 C453 1.373 . S
C452 H465 0.929 . S
C453 C452 1.373 . S
C453 C454 1.396 . S
C453 C460 1.403 . S
C454 C444 1.476 . S
C454 N449 1.318 . S
C454 C453 1.396 . S
H455 C450 0.929 . S
O456 Mn432 2.385 . S
O456 C434 1.234 . S
O457 Mn432 2.209 . S
O457 Mn433 2.215 . S
O457 C434 1.283 . S
O458 Mn432 2.094 . S
O458 C436 1.240 . S
O459 Mn433 2.117 . S
O459 C436 1.264 . S
C460 C453 1.403 . S
C460 C461 1.399 . S
C460 H466 0.929 . S
C461 C441 1.449 . S
C461 C460 1.399 . S
C461 H467 0.930 . S
H462 C442 0.931 . S
H463 C443 0.930 . S
H464 C451 0.931 . S
H465 C452 0.929 . S
H466 C460 0.929 . S
H467 C461 0.930 . S
Mn468 O473 2.095 . S
Mn468 O483 2.162 . S
Mn468 O484 2.297 . S
Mn468 O492 2.385 . S
Mn468 O493 2.209 . S
Mn468 O494 2.094 . S
Mn469 O474 2.121 . S
Mn469 N476 2.257 . S
Mn469 N485 2.282 . S
Mn469 O493 2.215 . S
Mn469 O495 2.117 . S
C470 O492 1.234 . S
C470 O493 1.283 . S
C471 O483 1.281 . S
C471 O484 1.236 . S
C472 O494 1.240 . S
C472 O495 1.264 . S
O473 Mn468 2.095 . S
O473 C482 1.250 . S
O474 Mn469 2.121 . S
O474 C482 1.258 . S
C475 N476 1.326 . S
C475 C479 1.460 . S
C475 H481 0.929 . S
N476 Mn469 2.257 . S
N476 C475 1.326 . S
N476 C480 1.362 . S
C477 C478 1.258 . S
C477 C480 1.431 . S
C477 C497 1.449 . S
C478 C477 1.258 . S
C478 C479 1.477 . S
C478 H498 0.931 . S
C479 C475 1.460 . S
C479 C478 1.477 . S
C479 H499 0.930 . S
C480 N476 1.362 . S
C480 C477 1.431 . S
C480 C490 1.476 . S
H481 C475 0.929 . S
C482 O473 1.250 . S
C482 O474 1.258 . S
O483 Mn468 2.162 . S
O483 C471 1.281 . S
O484 Mn468 2.297 . S
O484 C471 1.236 . S
N485 Mn469 2.282 . S
N485 C486 1.328 . S
N485 C490 1.318 . S
C486 N485 1.328 . S
C486 C487 1.457 . S
C486 H491 0.929 . S
C487 C486 1.457 . S
C487 C488 1.291 . S
C487 H500 0.931 . S
C488 C487 1.291 . S
C488 C489 1.373 . S
C488 H501 0.929 . S
C489 C488 1.373 . S
C489 C490 1.396 . S
C489 C496 1.403 . S
C490 C480 1.476 . S
C490 N485 1.318 . S
C490 C489 1.396 . S
H491 C486 0.929 . S
O492 Mn468 2.385 . S
O492 C470 1.234 . S
O493 Mn468 2.209 . S
O493 Mn469 2.215 . S
O493 C470 1.283 . S
O494 Mn468 2.094 . S
O494 C472 1.240 . S
O495 Mn469 2.117 . S
O495 C472 1.264 . S
C496 C489 1.403 . S
C496 C497 1.399 . S
C496 H502 0.929 . S
C497 C477 1.449 . S
C497 C496 1.399 . S
C497 H503 0.930 . S
H498 C478 0.931 . S
H499 C479 0.930 . S
H500 C487 0.931 . S
H501 C488 0.929 . S
H502 C496 0.929 . S
H503 C497 0.930 . S
Mn504 O509 2.095 . S
Mn504 O519 2.162 . S
Mn504 O520 2.297 . S
Mn504 O528 2.385 . S
Mn504 O529 2.209 . S
Mn504 O530 2.094 . S
Mn505 O510 2.121 . S
Mn505 N512 2.257 . S
Mn505 N521 2.282 . S
Mn505 O529 2.215 . S
Mn505 O531 2.117 . S
C506 O528 1.234 . S
C506 O529 1.283 . S
C507 O519 1.281 . S
C507 O520 1.236 . S
C508 O530 1.240 . S
C508 O531 1.264 . S
O509 Mn504 2.095 . S
O509 C518 1.250 . S
O510 Mn505 2.121 . S
O510 C518 1.258 . S
C511 N512 1.326 . S
C511 C515 1.460 . S
C511 H517 0.929 . S
N512 Mn505 2.257 . S
N512 C511 1.326 . S
N512 C516 1.362 . S
C513 C514 1.258 . S
C513 C516 1.431 . S
C513 C533 1.449 . S
C514 C513 1.258 . S
C514 C515 1.477 . S
C514 H534 0.931 . S
C515 C511 1.460 . S
C515 C514 1.477 . S
C515 H535 0.930 . S
C516 N512 1.362 . S
C516 C513 1.431 . S
C516 C526 1.476 . S
H517 C511 0.929 . S
C518 O509 1.250 . S
C518 O510 1.258 . S
O519 Mn504 2.162 . S
O519 C507 1.281 . S
O520 Mn504 2.297 . S
O520 C507 1.236 . S
N521 Mn505 2.282 . S
N521 C522 1.328 . S
N521 C526 1.318 . S
C522 N521 1.328 . S
C522 C523 1.457 . S
C522 H527 0.929 . S
C523 C522 1.457 . S
C523 C524 1.291 . S
C523 H536 0.931 . S
C524 C523 1.291 . S
C524 C525 1.373 . S
C524 H537 0.929 . S
C525 C524 1.373 . S
C525 C526 1.396 . S
C525 C532 1.403 . S
C526 C516 1.476 . S
C526 N521 1.318 . S
C526 C525 1.396 . S
H527 C522 0.929 . S
O528 Mn504 2.385 . S
O528 C506 1.234 . S
O529 Mn504 2.209 . S
O529 Mn505 2.215 . S
O529 C506 1.283 . S
O530 Mn504 2.094 . S
O530 C508 1.240 . S
O531 Mn505 2.117 . S
O531 C508 1.264 . S
C532 C525 1.403 . S
C532 C533 1.399 . S
C532 H538 0.929 . S
C533 C513 1.449 . S
C533 C532 1.399 . S
C533 H539 0.930 . S
H534 C514 0.931 . S
H535 C515 0.930 . S
H536 C523 0.931 . S
H537 C524 0.929 . S
H538 C532 0.929 . S
H539 C533 0.930 . S
Mn540 O545 2.095 . S
Mn540 O555 2.162 . S
Mn540 O556 2.297 . S
Mn540 O564 2.385 . S
Mn540 O565 2.209 . S
Mn540 O566 2.094 . S
Mn541 O546 2.121 . S
Mn541 N548 2.257 . S
Mn541 N557 2.282 . S
Mn541 O565 2.215 . S
Mn541 O567 2.117 . S
C542 O564 1.234 . S
C542 O565 1.283 . S
C543 O555 1.281 . S
C543 O556 1.236 . S
C544 O566 1.240 . S
C544 O567 1.264 . S
O545 Mn540 2.095 . S
O545 C554 1.250 . S
O546 Mn541 2.121 . S
O546 C554 1.258 . S
C547 N548 1.326 . S
C547 C551 1.460 . S
C547 H553 0.929 . S
N548 Mn541 2.257 . S
N548 C547 1.326 . S
N548 C552 1.362 . S
C549 C550 1.258 . S
C549 C552 1.431 . S
C549 C569 1.449 . S
C550 C549 1.258 . S
C550 C551 1.477 . S
C550 H570 0.931 . S
C551 C547 1.460 . S
C551 C550 1.477 . S
C551 H571 0.930 . S
C552 N548 1.362 . S
C552 C549 1.431 . S
C552 C562 1.476 . S
H553 C547 0.929 . S
C554 O545 1.250 . S
C554 O546 1.258 . S
O555 Mn540 2.162 . S
O555 C543 1.281 . S
O556 Mn540 2.297 . S
O556 C543 1.236 . S
N557 Mn541 2.282 . S
N557 C558 1.328 . S
N557 C562 1.318 . S
C558 N557 1.328 . S
C558 C559 1.457 . S
C558 H563 0.929 . S
C559 C558 1.457 . S
C559 C560 1.291 . S
C559 H572 0.931 . S
C560 C559 1.291 . S
C560 C561 1.373 . S
C560 H573 0.929 . S
C561 C560 1.373 . S
C561 C562 1.396 . S
C561 C568 1.403 . S
C562 C552 1.476 . S
C562 N557 1.318 . S
C562 C561 1.396 . S
H563 C558 0.929 . S
O564 Mn540 2.385 . S
O564 C542 1.234 . S
O565 Mn540 2.209 . S
O565 Mn541 2.215 . S
O565 C542 1.283 . S
O566 Mn540 2.094 . S
O566 C544 1.240 . S
O567 Mn541 2.117 . S
O567 C544 1.264 . S
C568 C561 1.403 . S
C568 C569 1.399 . S
C568 H574 0.929 . S
C569 C549 1.449 . S
C569 C568 1.399 . S
C569 H575 0.930 . S
H570 C550 0.931 . S
H571 C551 0.930 . S
H572 C559 0.931 . S
H573 C560 0.929 . S
H574 C568 0.929 . S
H575 C569 0.930 . S
Mn576 O581 2.095 . S
Mn576 O591 2.162 . S
Mn576 O592 2.297 . S
Mn576 O600 2.385 . S
Mn576 O601 2.209 . S
Mn576 O602 2.094 . S
Mn577 O582 2.121 . S
Mn577 N584 2.257 . S
Mn577 N593 2.282 . S
Mn577 O601 2.215 . S
Mn577 O603 2.117 . S
C578 O600 1.234 . S
C578 O601 1.283 . S
C579 O591 1.281 . S
C579 O592 1.236 . S
C580 O602 1.240 . S
C580 O603 1.264 . S
O581 Mn576 2.095 . S
O581 C590 1.250 . S
O582 Mn577 2.121 . S
O582 C590 1.258 . S
C583 N584 1.326 . S
C583 C587 1.460 . S
C583 H589 0.929 . S
N584 Mn577 2.257 . S
N584 C583 1.326 . S
N584 C588 1.362 . S
C585 C586 1.258 . S
C585 C588 1.431 . S
C585 C605 1.449 . S
C586 C585 1.258 . S
C586 C587 1.477 . S
C586 H606 0.931 . S
C587 C583 1.460 . S
C587 C586 1.477 . S
C587 H607 0.930 . S
C588 N584 1.362 . S
C588 C585 1.431 . S
C588 C598 1.476 . S
H589 C583 0.929 . S
C590 O581 1.250 . S
C590 O582 1.258 . S
O591 Mn576 2.162 . S
O591 C579 1.281 . S
O592 Mn576 2.297 . S
O592 C579 1.236 . S
N593 Mn577 2.282 . S
N593 C594 1.328 . S
N593 C598 1.318 . S
C594 N593 1.328 . S
C594 C595 1.457 . S
C594 H599 0.929 . S
C595 C594 1.457 . S
C595 C596 1.291 . S
C595 H608 0.931 . S
C596 C595 1.291 . S
C596 C597 1.373 . S
C596 H609 0.929 . S
C597 C596 1.373 . S
C597 C598 1.396 . S
C597 C604 1.403 . S
C598 C588 1.476 . S
C598 N593 1.318 . S
C598 C597 1.396 . S
H599 C594 0.929 . S
O600 Mn576 2.385 . S
O600 C578 1.234 . S
O601 Mn576 2.209 . S
O601 Mn577 2.215 . S
O601 C578 1.283 . S
O602 Mn576 2.094 . S
O602 C580 1.240 . S
O603 Mn577 2.117 . S
O603 C580 1.264 . S
C604 C597 1.403 . S
C604 C605 1.399 . S
C604 H610 0.929 . S
C605 C585 1.449 . S
C605 C604 1.399 . S
C605 H611 0.930 . S
H606 C586 0.931 . S
H607 C587 0.930 . S
H608 C595 0.931 . S
H609 C596 0.929 . S
H610 C604 0.929 . S
H611 C605 0.930 . S
Mn612 O617 2.095 . S
Mn612 O627 2.162 . S
Mn612 O628 2.297 . S
Mn612 O636 2.385 . S
Mn612 O637 2.209 . S
Mn612 O638 2.094 . S
Mn613 O618 2.121 . S
Mn613 N620 2.257 . S
Mn613 N629 2.282 . S
Mn613 O637 2.215 . S
Mn613 O639 2.117 . S
C614 O636 1.234 . S
C614 O637 1.283 . S
C615 O627 1.281 . S
C615 O628 1.236 . S
C616 O638 1.240 . S
C616 O639 1.264 . S
O617 Mn612 2.095 . S
O617 C626 1.250 . S
O618 Mn613 2.121 . S
O618 C626 1.258 . S
C619 N620 1.326 . S
C619 C623 1.460 . S
C619 H625 0.929 . S
N620 Mn613 2.257 . S
N620 C619 1.326 . S
N620 C624 1.362 . S
C621 C622 1.258 . S
C621 C624 1.431 . S
C621 C641 1.449 . S
C622 C621 1.258 . S
C622 C623 1.477 . S
C622 H642 0.931 . S
C623 C619 1.460 . S
C623 C622 1.477 . S
C623 H643 0.930 . S
C624 N620 1.362 . S
C624 C621 1.431 . S
C624 C634 1.476 . S
H625 C619 0.929 . S
C626 O617 1.250 . S
C626 O618 1.258 . S
O627 Mn612 2.162 . S
O627 C615 1.281 . S
O628 Mn612 2.297 . S
O628 C615 1.236 . S
N629 Mn613 2.282 . S
N629 C630 1.328 . S
N629 C634 1.318 . S
C630 N629 1.328 . S
C630 C631 1.457 . S
C630 H635 0.929 . S
C631 C630 1.457 . S
C631 C632 1.291 . S
C631 H644 0.931 . S
C632 C631 1.291 . S
C632 C633 1.373 . S
C632 H645 0.929 . S
C633 C632 1.373 . S
C633 C634 1.396 . S
C633 C640 1.403 . S
C634 C624 1.476 . S
C634 N629 1.318 . S
C634 C633 1.396 . S
H635 C630 0.929 . S
O636 Mn612 2.385 . S
O636 C614 1.234 . S
O637 Mn612 2.209 . S
O637 Mn613 2.215 . S
O637 C614 1.283 . S
O638 Mn612 2.094 . S
O638 C616 1.240 . S
O639 Mn613 2.117 . S
O639 C616 1.264 . S
C640 C633 1.403 . S
C640 C641 1.399 . S
C640 H646 0.929 . S
C641 C621 1.449 . S
C641 C640 1.399 . S
C641 H647 0.930 . S
H642 C622 0.931 . S
H643 C623 0.930 . S
H644 C631 0.931 . S
H645 C632 0.929 . S
H646 C640 0.929 . S
H647 C641 0.930 . S
Mn648 O653 2.095 . S
Mn648 O663 2.162 . S
Mn648 O664 2.297 . S
Mn648 O672 2.385 . S
Mn648 O673 2.209 . S
Mn648 O674 2.094 . S
Mn649 O654 2.121 . S
Mn649 N656 2.257 . S
Mn649 N665 2.282 . S
Mn649 O673 2.215 . S
Mn649 O675 2.117 . S
C650 O672 1.234 . S
C650 O673 1.283 . S
C651 O663 1.281 . S
C651 O664 1.236 . S
C652 O674 1.240 . S
C652 O675 1.264 . S
O653 Mn648 2.095 . S
O653 C662 1.250 . S
O654 Mn649 2.121 . S
O654 C662 1.258 . S
C655 N656 1.326 . S
C655 C659 1.460 . S
C655 H661 0.929 . S
N656 Mn649 2.257 . S
N656 C655 1.326 . S
N656 C660 1.362 . S
C657 C658 1.258 . S
C657 C660 1.431 . S
C657 C677 1.449 . S
C658 C657 1.258 . S
C658 C659 1.477 . S
C658 H678 0.931 . S
C659 C655 1.460 . S
C659 C658 1.477 . S
C659 H679 0.930 . S
C660 N656 1.362 . S
C660 C657 1.431 . S
C660 C670 1.476 . S
H661 C655 0.929 . S
C662 O653 1.250 . S
C662 O654 1.258 . S
O663 Mn648 2.162 . S
O663 C651 1.281 . S
O664 Mn648 2.297 . S
O664 C651 1.236 . S
N665 Mn649 2.282 . S
N665 C666 1.328 . S
N665 C670 1.318 . S
C666 N665 1.328 . S
C666 C667 1.457 . S
C666 H671 0.929 . S
C667 C666 1.457 . S
C667 C668 1.291 . S
C667 H680 0.931 . S
C668 C667 1.291 . S
C668 C669 1.373 . S
C668 H681 0.929 . S
C669 C668 1.373 . S
C669 C670 1.396 . S
C669 C676 1.403 . S
C670 C660 1.476 . S
C670 N665 1.318 . S
C670 C669 1.396 . S
H671 C666 0.929 . S
O672 Mn648 2.385 . S
O672 C650 1.234 . S
O673 Mn648 2.209 . S
O673 Mn649 2.215 . S
O673 C650 1.283 . S
O674 Mn648 2.094 . S
O674 C652 1.240 . S
O675 Mn649 2.117 . S
O675 C652 1.264 . S
C676 C669 1.403 . S
C676 C677 1.399 . S
C676 H682 0.929 . S
C677 C657 1.449 . S
C677 C676 1.399 . S
C677 H683 0.930 . S
H678 C658 0.931 . S
H679 C659 0.930 . S
H680 C667 0.931 . S
H681 C668 0.929 . S
H682 C676 0.929 . S
H683 C677 0.930 . S
Mn684 O689 2.095 . S
Mn684 O699 2.162 . S
Mn684 O700 2.297 . S
Mn684 O708 2.385 . S
Mn684 O709 2.209 . S
Mn684 O710 2.094 . S
Mn685 O690 2.121 . S
Mn685 N692 2.257 . S
Mn685 N701 2.282 . S
Mn685 O709 2.215 . S
Mn685 O711 2.117 . S
C686 O708 1.234 . S
C686 O709 1.283 . S
C687 O699 1.281 . S
C687 O700 1.236 . S
C688 O710 1.240 . S
C688 O711 1.264 . S
O689 Mn684 2.095 . S
O689 C698 1.250 . S
O690 Mn685 2.121 . S
O690 C698 1.258 . S
C691 N692 1.326 . S
C691 C695 1.460 . S
C691 H697 0.929 . S
N692 Mn685 2.257 . S
N692 C691 1.326 . S
N692 C696 1.362 . S
C693 C694 1.258 . S
C693 C696 1.431 . S
C693 C713 1.449 . S
C694 C693 1.258 . S
C694 C695 1.477 . S
C694 H714 0.931 . S
C695 C691 1.460 . S
C695 C694 1.477 . S
C695 H715 0.930 . S
C696 N692 1.362 . S
C696 C693 1.431 . S
C696 C706 1.476 . S
H697 C691 0.929 . S
C698 O689 1.250 . S
C698 O690 1.258 . S
O699 Mn684 2.162 . S
O699 C687 1.281 . S
O700 Mn684 2.297 . S
O700 C687 1.236 . S
N701 Mn685 2.282 . S
N701 C702 1.328 . S
N701 C706 1.318 . S
C702 N701 1.328 . S
C702 C703 1.457 . S
C702 H707 0.929 . S
C703 C702 1.457 . S
C703 C704 1.291 . S
C703 H716 0.931 . S
C704 C703 1.291 . S
C704 C705 1.373 . S
C704 H717 0.929 . S
C705 C704 1.373 . S
C705 C706 1.396 . S
C705 C712 1.403 . S
C706 C696 1.476 . S
C706 N701 1.318 . S
C706 C705 1.396 . S
H707 C702 0.929 . S
O708 Mn684 2.385 . S
O708 C686 1.234 . S
O709 Mn684 2.209 . S
O709 Mn685 2.215 . S
O709 C686 1.283 . S
O710 Mn684 2.094 . S
O710 C688 1.240 . S
O711 Mn685 2.117 . S
O711 C688 1.264 . S
C712 C705 1.403 . S
C712 C713 1.399 . S
C712 H718 0.929 . S
C713 C693 1.449 . S
C713 C712 1.399 . S
C713 H719 0.930 . S
H714 C694 0.931 . S
H715 C695 0.930 . S
H716 C703 0.931 . S
H717 C704 0.929 . S
H718 C712 0.929 . S
H719 C713 0.930 . S
Mn720 O725 2.095 . S
Mn720 O735 2.162 . S
Mn720 O736 2.297 . S
Mn720 O744 2.385 . S
Mn720 O745 2.209 . S
Mn720 O746 2.094 . S
Mn721 O726 2.121 . S
Mn721 N728 2.257 . S
Mn721 N737 2.282 . S
Mn721 O745 2.215 . S
Mn721 O747 2.117 . S
C722 O744 1.234 . S
C722 O745 1.283 . S
C723 O735 1.281 . S
C723 O736 1.236 . S
C724 O746 1.240 . S
C724 O747 1.264 . S
O725 Mn720 2.095 . S
O725 C734 1.250 . S
O726 Mn721 2.121 . S
O726 C734 1.258 . S
C727 N728 1.326 . S
C727 C731 1.460 . S
C727 H733 0.929 . S
N728 Mn721 2.257 . S
N728 C727 1.326 . S
N728 C732 1.362 . S
C729 C730 1.258 . S
C729 C732 1.431 . S
C729 C749 1.449 . S
C730 C729 1.258 . S
C730 C731 1.477 . S
C730 H750 0.931 . S
C731 C727 1.460 . S
C731 C730 1.477 . S
C731 H751 0.930 . S
C732 N728 1.362 . S
C732 C729 1.431 . S
C732 C742 1.476 . S
H733 C727 0.929 . S
C734 O725 1.250 . S
C734 O726 1.258 . S
O735 Mn720 2.162 . S
O735 C723 1.281 . S
O736 Mn720 2.297 . S
O736 C723 1.236 . S
N737 Mn721 2.282 . S
N737 C738 1.328 . S
N737 C742 1.318 . S
C738 N737 1.328 . S
C738 C739 1.457 . S
C738 H743 0.929 . S
C739 C738 1.457 . S
C739 C740 1.291 . S
C739 H752 0.931 . S
C740 C739 1.291 . S
C740 C741 1.373 . S
C740 H753 0.929 . S
C741 C740 1.373 . S
C741 C742 1.396 . S
C741 C748 1.403 . S
C742 C732 1.476 . S
C742 N737 1.318 . S
C742 C741 1.396 . S
H743 C738 0.929 . S
O744 Mn720 2.385 . S
O744 C722 1.234 . S
O745 Mn720 2.209 . S
O745 Mn721 2.215 . S
O745 C722 1.283 . S
O746 Mn720 2.094 . S
O746 C724 1.240 . S
O747 Mn721 2.117 . S
O747 C724 1.264 . S
C748 C741 1.403 . S
C748 C749 1.399 . S
C748 H754 0.929 . S
C749 C729 1.449 . S
C749 C748 1.399 . S
C749 H755 0.930 . S
H750 C730 0.931 . S
H751 C731 0.930 . S
H752 C739 0.931 . S
H753 C740 0.929 . S
H754 C748 0.929 . S
H755 C749 0.930 . S
Mn756 O761 2.095 . S
Mn756 O771 2.162 . S
Mn756 O772 2.297 . S
Mn756 O780 2.385 . S
Mn756 O781 2.209 . S
Mn756 O782 2.094 . S
Mn757 O762 2.121 . S
Mn757 N764 2.257 . S
Mn757 N773 2.282 . S
Mn757 O781 2.215 . S
Mn757 O783 2.117 . S
C758 O780 1.234 . S
C758 O781 1.283 . S
C759 O771 1.281 . S
C759 O772 1.236 . S
C760 O782 1.240 . S
C760 O783 1.264 . S
O761 Mn756 2.095 . S
O761 C770 1.250 . S
O762 Mn757 2.121 . S
O762 C770 1.258 . S
C763 N764 1.326 . S
C763 C767 1.460 . S
C763 H769 0.929 . S
N764 Mn757 2.257 . S
N764 C763 1.326 . S
N764 C768 1.362 . S
C765 C766 1.258 . S
C765 C768 1.431 . S
C765 C785 1.449 . S
C766 C765 1.258 . S
C766 C767 1.477 . S
C766 H786 0.931 . S
C767 C763 1.460 . S
C767 C766 1.477 . S
C767 H787 0.930 . S
C768 N764 1.362 . S
C768 C765 1.431 . S
C768 C778 1.476 . S
H769 C763 0.929 . S
C770 O761 1.250 . S
C770 O762 1.258 . S
O771 Mn756 2.162 . S
O771 C759 1.281 . S
O772 Mn756 2.297 . S
O772 C759 1.236 . S
N773 Mn757 2.282 . S
N773 C774 1.328 . S
N773 C778 1.318 . S
C774 N773 1.328 . S
C774 C775 1.457 . S
C774 H779 0.929 . S
C775 C774 1.457 . S
C775 C776 1.291 . S
C775 H788 0.931 . S
C776 C775 1.291 . S
C776 C777 1.373 . S
C776 H789 0.929 . S
C777 C776 1.373 . S
C777 C778 1.396 . S
C777 C784 1.403 . S
C778 C768 1.476 . S
C778 N773 1.318 . S
C778 C777 1.396 . S
H779 C774 0.929 . S
O780 Mn756 2.385 . S
O780 C758 1.234 . S
O781 Mn756 2.209 . S
O781 Mn757 2.215 . S
O781 C758 1.283 . S
O782 Mn756 2.094 . S
O782 C760 1.240 . S
O783 Mn757 2.117 . S
O783 C760 1.264 . S
C784 C777 1.403 . S
C784 C785 1.399 . S
C784 H790 0.929 . S
C785 C765 1.449 . S
C785 C784 1.399 . S
C785 H791 0.930 . S
H786 C766 0.931 . S
H787 C767 0.930 . S
H788 C775 0.931 . S
H789 C776 0.929 . S
H790 C784 0.929 . S
H791 C785 0.930 . S
Mn792 O797 2.095 . S
Mn792 O807 2.162 . S
Mn792 O808 2.297 . S
Mn792 O816 2.385 . S
Mn792 O817 2.209 . S
Mn792 O818 2.094 . S
Mn793 O798 2.121 . S
Mn793 N800 2.257 . S
Mn793 N809 2.282 . S
Mn793 O817 2.215 . S
Mn793 O819 2.117 . S
C794 O816 1.234 . S
C794 O817 1.283 . S
C795 O807 1.281 . S
C795 O808 1.236 . S
C796 O818 1.240 . S
C796 O819 1.264 . S
O797 Mn792 2.095 . S
O797 C806 1.250 . S
O798 Mn793 2.121 . S
O798 C806 1.258 . S
C799 N800 1.326 . S
C799 C803 1.460 . S
C799 H805 0.929 . S
N800 Mn793 2.257 . S
N800 C799 1.326 . S
N800 C804 1.362 . S
C801 C802 1.258 . S
C801 C804 1.431 . S
C801 C821 1.449 . S
C802 C801 1.258 . S
C802 C803 1.477 . S
C802 H822 0.931 . S
C803 C799 1.460 . S
C803 C802 1.477 . S
C803 H823 0.930 . S
C804 N800 1.362 . S
C804 C801 1.431 . S
C804 C814 1.476 . S
H805 C799 0.929 . S
C806 O797 1.250 . S
C806 O798 1.258 . S
O807 Mn792 2.162 . S
O807 C795 1.281 . S
O808 Mn792 2.297 . S
O808 C795 1.236 . S
N809 Mn793 2.282 . S
N809 C810 1.328 . S
N809 C814 1.318 . S
C810 N809 1.328 . S
C810 C811 1.457 . S
C810 H815 0.929 . S
C811 C810 1.457 . S
C811 C812 1.291 . S
C811 H824 0.931 . S
C812 C811 1.291 . S
C812 C813 1.373 . S
C812 H825 0.929 . S
C813 C812 1.373 . S
C813 C814 1.396 . S
C813 C820 1.403 . S
C814 C804 1.476 . S
C814 N809 1.318 . S
C814 C813 1.396 . S
H815 C810 0.929 . S
O816 Mn792 2.385 . S
O816 C794 1.234 . S
O817 Mn792 2.209 . S
O817 Mn793 2.215 . S
O817 C794 1.283 . S
O818 Mn792 2.094 . S
O818 C796 1.240 . S
O819 Mn793 2.117 . S
O819 C796 1.264 . S
C820 C813 1.403 . S
C820 C821 1.399 . S
C820 H826 0.929 . S
C821 C801 1.449 . S
C821 C820 1.399 . S
C821 H827 0.930 . S
H822 C802 0.931 . S
H823 C803 0.930 . S
H824 C811 0.931 . S
H825 C812 0.929 . S
H826 C820 0.929 . S
H827 C821 0.930 . S
Mn828 O833 2.095 . S
Mn828 O843 2.162 . S
Mn828 O844 2.297 . S
Mn828 O852 2.385 . S
Mn828 O853 2.209 . S
Mn828 O854 2.094 . S
Mn829 O834 2.121 . S
Mn829 N836 2.257 . S
Mn829 N845 2.282 . S
Mn829 O853 2.215 . S
Mn829 O855 2.117 . S
C830 O852 1.234 . S
C830 O853 1.283 . S
C831 O843 1.281 . S
C831 O844 1.236 . S
C832 O854 1.240 . S
C832 O855 1.264 . S
O833 Mn828 2.095 . S
O833 C842 1.250 . S
O834 Mn829 2.121 . S
O834 C842 1.258 . S
C835 N836 1.326 . S
C835 C839 1.460 . S
C835 H841 0.929 . S
N836 Mn829 2.257 . S
N836 C835 1.326 . S
N836 C840 1.362 . S
C837 C838 1.258 . S
C837 C840 1.431 . S
C837 C857 1.449 . S
C838 C837 1.258 . S
C838 C839 1.477 . S
C838 H858 0.931 . S
C839 C835 1.460 . S
C839 C838 1.477 . S
C839 H859 0.930 . S
C840 N836 1.362 . S
C840 C837 1.431 . S
C840 C850 1.476 . S
H841 C835 0.929 . S
C842 O833 1.250 . S
C842 O834 1.258 . S
O843 Mn828 2.162 . S
O843 C831 1.281 . S
O844 Mn828 2.297 . S
O844 C831 1.236 . S
N845 Mn829 2.282 . S
N845 C846 1.328 . S
N845 C850 1.318 . S
C846 N845 1.328 . S
C846 C847 1.457 . S
C846 H851 0.929 . S
C847 C846 1.457 . S
C847 C848 1.291 . S
C847 H860 0.931 . S
C848 C847 1.291 . S
C848 C849 1.373 . S
C848 H861 0.929 . S
C849 C848 1.373 . S
C849 C850 1.396 . S
C849 C856 1.403 . S
C850 C840 1.476 . S
C850 N845 1.318 . S
C850 C849 1.396 . S
H851 C846 0.929 . S
O852 Mn828 2.385 . S
O852 C830 1.234 . S
O853 Mn828 2.209 . S
O853 Mn829 2.215 . S
O853 C830 1.283 . S
O854 Mn828 2.094 . S
O854 C832 1.240 . S
O855 Mn829 2.117 . S
O855 C832 1.264 . S
C856 C849 1.403 . S
C856 C857 1.399 . S
C856 H862 0.929 . S
C857 C837 1.449 . S
C857 C856 1.399 . S
C857 H863 0.930 . S
H858 C838 0.931 . S
H859 C839 0.930 . S
H860 C847 0.931 . S
H861 C848 0.929 . S
H862 C856 0.929 . S
H863 C857 0.930 . S
C864 C865 1.386 . S
C864 C866 1.383 . S
C864 H880 0.951 . S
C865 C864 1.386 . S
C865 C869 1.383 . S
C866 C864 1.383 . S
C866 C867 1.402 . S
C866 H881 0.951 . S
C867 C866 1.402 . S
C867 C868 1.375 . S
C867 C870 1.481 . S
C868 C867 1.375 . S
C868 C869 1.367 . S
C868 H882 0.951 . S
C869 C865 1.383 . S
C869 C868 1.367 . S
C869 H883 0.950 . S
C870 C867 1.481 . S
C870 C871 1.297 1_545 S
C870 H884 0.950 . S
C871 C870 1.297 1_565 S
C871 C872 1.479 . S
C871 H885 0.950 . S
C872 C871 1.479 . S
C872 C873 1.375 . S
C872 C878 1.404 . S
C873 C872 1.375 . S
C873 C874 1.369 . S
C873 H886 0.950 . S
C874 C873 1.369 . S
C874 C875 1.392 . S
C874 H887 0.951 . S
C875 C874 1.392 . S
C875 C877 1.384 . S
H876 C878 0.949 . S
C877 C875 1.384 . S
C877 C878 1.385 . S
C877 H879 0.950 . S
C878 C872 1.404 . S
C878 H876 0.949 . S
C878 C877 1.385 . S
H879 C877 0.950 . S
H880 C864 0.951 . S
H881 C866 0.951 . S
H882 C868 0.951 . S
H883 C869 0.950 . S
H884 C870 0.950 . S
H885 C871 0.950 . S
H886 C873 0.950 . S
H887 C874 0.951 . S
C888 C889 1.386 . S
C888 C890 1.383 . S
C888 H904 0.951 . S
C889 C888 1.386 . S
C889 C893 1.383 . S
C890 C888 1.383 . S
C890 C891 1.402 . S
C890 H905 0.951 . S
C891 C890 1.402 . S
C891 C892 1.375 . S
C891 C894 1.481 . S
C892 C891 1.375 . S
C892 C893 1.367 . S
C892 H906 0.951 . S
C893 C889 1.383 . S
C893 C892 1.367 . S
C893 H907 0.950 . S
C894 C891 1.481 . S
C894 C895 1.297 . S
C894 H908 0.950 . S
C895 C894 1.297 . S
C895 C896 1.479 . S
C895 H909 0.950 . S
C896 C895 1.479 . S
C896 C897 1.375 . S
C896 C902 1.404 . S
C897 C896 1.375 . S
C897 C898 1.369 . S
C897 H910 0.950 . S
C898 C897 1.369 . S
C898 C899 1.392 . S
C898 H911 0.951 . S
C899 C898 1.392 . S
C899 C901 1.384 . S
H900 C902 0.949 . S
C901 C899 1.384 . S
C901 C902 1.385 . S
C901 H903 0.950 . S
C902 C896 1.404 . S
C902 H900 0.949 . S
C902 C901 1.385 . S
H903 C901 0.950 . S
H904 C888 0.951 . S
H905 C890 0.951 . S
H906 C892 0.951 . S
H907 C893 0.950 . S
H908 C894 0.950 . S
H909 C895 0.950 . S
H910 C897 0.950 . S
H911 C898 0.951 . S
C912 C913 1.386 . S
C912 C914 1.383 . S
C912 H928 0.951 . S
C913 C912 1.386 . S
C913 C917 1.383 . S
C914 C912 1.383 . S
C914 C915 1.402 . S
C914 H929 0.951 . S
C915 C914 1.402 . S
C915 C916 1.375 . S
C915 C918 1.481 . S
C916 C915 1.375 . S
C916 C917 1.367 . S
C916 H930 0.951 . S
C917 C913 1.383 . S
C917 C916 1.367 . S
C917 H931 0.950 . S
C918 C915 1.481 . S
C918 C919 1.297 1_655 S
C918 H932 0.950 . S
C919 C918 1.297 1_455 S
C919 C920 1.479 . S
C919 H933 0.950 . S
C920 C919 1.479 . S
C920 C921 1.375 . S
C920 C926 1.404 . S
C921 C920 1.375 . S
C921 C922 1.369 . S
C921 H934 0.950 . S
C922 C921 1.369 . S
C922 C923 1.392 . S
C922 H935 0.951 . S
C923 C922 1.392 . S
C923 C925 1.384 . S
H924 C926 0.949 . S
C925 C923 1.384 . S
C925 C926 1.385 . S
C925 H927 0.950 . S
C926 C920 1.404 . S
C926 H924 0.949 . S
C926 C925 1.385 . S
H927 C925 0.950 . S
H928 C912 0.951 . S
H929 C914 0.951 . S
H930 C916 0.951 . S
H931 C917 0.950 . S
H932 C918 0.950 . S
H933 C919 0.950 . S
H934 C921 0.950 . S
H935 C922 0.951 . S
C936 C937 1.386 . S
C936 C938 1.383 . S
C936 H952 0.951 . S
C937 C936 1.386 . S
C937 C941 1.383 . S
C938 C936 1.383 . S
C938 C939 1.402 . S
C938 H953 0.951 . S
C939 C938 1.402 . S
C939 C940 1.375 . S
C939 C942 1.481 . S
C940 C939 1.375 . S
C940 C941 1.367 . S
C940 H954 0.951 . S
C941 C937 1.383 . S
C941 C940 1.367 . S
C941 H955 0.950 . S
C942 C939 1.481 . S
C942 C943 1.297 1_565 S
C942 H956 0.950 . S
C943 C942 1.297 1_545 S
C943 C944 1.479 . S
C943 H957 0.950 . S
C944 C943 1.479 . S
C944 C945 1.375 . S
C944 C950 1.404 . S
C945 C944 1.375 . S
C945 C946 1.369 . S
C945 H958 0.950 . S
C946 C945 1.369 . S
C946 C947 1.392 . S
C946 H959 0.951 . S
C947 C946 1.392 . S
C947 C949 1.384 . S
H948 C950 0.949 . S
C949 C947 1.384 . S
C949 C950 1.385 . S
C949 H951 0.950 . S
C950 C944 1.404 . S
C950 H948 0.949 . S
C950 C949 1.385 . S
H951 C949 0.950 . S
H952 C936 0.951 . S
H953 C938 0.951 . S
H954 C940 0.951 . S
H955 C941 0.950 . S
H956 C942 0.950 . S
H957 C943 0.950 . S
H958 C945 0.950 . S
H959 C946 0.951 . S
C960 C961 1.386 . S
C960 C962 1.383 . S
C960 H976 0.951 . S
C961 C960 1.386 . S
C961 C965 1.383 . S
C962 C960 1.383 . S
C962 C963 1.402 . S
C962 H977 0.951 . S
C963 C962 1.402 . S
C963 C964 1.375 . S
C963 C966 1.481 . S
C964 C963 1.375 . S
C964 C965 1.367 . S
C964 H978 0.951 . S
C965 C961 1.383 . S
C965 C964 1.367 . S
C965 H979 0.950 . S
C966 C963 1.481 . S
C966 C967 1.297 . S
C966 H980 0.950 . S
C967 C966 1.297 . S
C967 C968 1.479 . S
C967 H981 0.950 . S
C968 C967 1.479 . S
C968 C969 1.375 . S
C968 C974 1.404 . S
C969 C968 1.375 . S
C969 C970 1.369 . S
C969 H982 0.950 . S
C970 C969 1.369 . S
C970 C971 1.392 . S
C970 H983 0.951 . S
C971 C970 1.392 . S
C971 C973 1.384 . S
H972 C974 0.949 . S
C973 C971 1.384 . S
C973 C974 1.385 . S
C973 H975 0.950 . S
C974 C968 1.404 . S
C974 H972 0.949 . S
C974 C973 1.385 . S
H975 C973 0.950 . S
H976 C960 0.951 . S
H977 C962 0.951 . S
H978 C964 0.951 . S
H979 C965 0.950 . S
H980 C966 0.950 . S
H981 C967 0.950 . S
H982 C969 0.950 . S
H983 C970 0.951 . S
C984 C985 1.386 . S
C984 C986 1.383 . S
C984 H1000 0.951 . S
C985 C984 1.386 . S
C985 C989 1.383 . S
C986 C984 1.383 . S
C986 C987 1.402 . S
C986 H1001 0.951 . S
C987 C986 1.402 . S
C987 C988 1.375 . S
C987 C990 1.481 . S
C988 C987 1.375 . S
C988 C989 1.367 . S
C988 H1002 0.951 . S
C989 C985 1.383 . S
C989 C988 1.367 . S
C989 H1003 0.950 . S
C990 C987 1.481 . S
C990 C991 1.297 1_455 S
C990 H1004 0.950 1_455 S
C991 C990 1.297 1_655 S
C991 C992 1.479 . S
C991 H1005 0.950 . S
C992 C991 1.479 . S
C992 C993 1.375 . S
C992 C998 1.404 . S
C993 C992 1.375 . S
C993 C994 1.369 . S
C993 H1006 0.950 . S
C994 C993 1.369 . S
C994 C995 1.392 . S
C994 H1007 0.951 . S
C995 C994 1.392 . S
C995 C997 1.384 . S
H996 C998 0.949 . S
C997 C995 1.384 . S
C997 C998 1.385 . S
C997 H999 0.950 . S
C998 C992 1.404 . S
C998 H996 0.949 . S
C998 C997 1.385 . S
H999 C997 0.950 . S
H1000 C984 0.951 . S
H1001 C986 0.951 . S
H1002 C988 0.951 . S
H1003 C989 0.950 . S
H1004 C990 0.950 1_655 S
H1005 C991 0.950 . S
H1006 C993 0.950 . S
H1007 C994 0.951 . S
C1008 C1009 1.386 . S
C1008 C1010 1.383 . S
C1008 H1024 0.951 . S
C1009 C1008 1.386 . S
C1009 C1013 1.383 . S
C1010 C1008 1.383 . S
C1010 C1011 1.402 . S
C1010 H1025 0.951 . S
C1011 C1010 1.402 . S
C1011 C1012 1.375 . S
C1011 C1014 1.481 . S
C1012 C1011 1.375 . S
C1012 C1013 1.367 . S
C1012 H1026 0.951 . S
C1013 C1009 1.383 . S
C1013 C1012 1.367 . S
C1013 H1027 0.950 . S
C1014 C1011 1.481 . S
C1014 C1015 1.297 1_565 S
C1014 H1028 0.950 1_565 S
C1015 C1014 1.297 1_545 S
C1015 C1016 1.479 . S
C1015 H1029 0.950 1_545 S
C1016 C1015 1.479 . S
C1016 C1017 1.375 . S
C1016 C1022 1.404 . S
C1017 C1016 1.375 . S
C1017 C1018 1.369 . S
C1017 H1030 0.950 . S
C1018 C1017 1.369 . S
C1018 C1019 1.392 . S
C1018 H1031 0.951 . S
C1019 C1018 1.392 . S
C1019 C1021 1.384 . S
H1020 C1022 0.949 . S
C1021 C1019 1.384 . S
C1021 C1022 1.385 . S
C1021 H1023 0.950 . S
C1022 C1016 1.404 . S
C1022 H1020 0.949 . S
C1022 C1021 1.385 . S
H1023 C1021 0.950 . S
H1024 C1008 0.951 . S
H1025 C1010 0.951 . S
H1026 C1012 0.951 . S
H1027 C1013 0.950 . S
H1028 C1014 0.950 1_545 S
H1029 C1015 0.950 1_565 S
H1030 C1017 0.950 . S
H1031 C1018 0.951 . S
C1032 C1033 1.386 . S
C1032 C1034 1.383 . S
C1032 H1048 0.951 . S
C1033 C1032 1.386 . S
C1033 C1037 1.383 . S
C1034 C1032 1.383 . S
C1034 C1035 1.402 . S
C1034 H1049 0.951 . S
C1035 C1034 1.402 . S
C1035 C1036 1.375 . S
C1035 C1038 1.481 . S
C1036 C1035 1.375 . S
C1036 C1037 1.367 . S
C1036 H1050 0.951 . S
C1037 C1033 1.383 . S
C1037 C1036 1.367 . S
C1037 H1051 0.950 . S
C1038 C1035 1.481 . S
C1038 C1039 1.297 . S
C1038 H1052 0.950 . S
C1039 C1038 1.297 . S
C1039 C1040 1.479 . S
C1039 H1053 0.950 . S
C1040 C1039 1.479 . S
C1040 C1041 1.375 . S
C1040 C1046 1.404 . S
C1041 C1040 1.375 . S
C1041 C1042 1.369 . S
C1041 H1054 0.950 . S
C1042 C1041 1.369 . S
C1042 C1043 1.392 . S
C1042 H1055 0.951 . S
C1043 C1042 1.392 . S
C1043 C1045 1.384 . S
H1044 C1046 0.949 . S
C1045 C1043 1.384 . S
C1045 C1046 1.385 . S
C1045 H1047 0.950 . S
C1046 C1040 1.404 . S
C1046 H1044 0.949 . S
C1046 C1045 1.385 . S
H1047 C1045 0.950 . S
H1048 C1032 0.951 . S
H1049 C1034 0.951 . S
H1050 C1036 0.951 . S
H1051 C1037 0.950 . S
H1052 C1038 0.950 . S
H1053 C1039 0.950 . S
H1054 C1041 0.950 . S
H1055 C1042 0.951 . S
C1056 C1057 1.386 . S
C1056 C1058 1.383 . S
C1056 H1072 0.951 . S
C1057 C1056 1.386 . S
C1057 C1061 1.383 . S
C1058 C1056 1.383 . S
C1058 C1059 1.402 . S
C1058 H1073 0.951 . S
C1059 C1058 1.402 . S
C1059 C1060 1.375 . S
C1059 C1062 1.481 . S
C1060 C1059 1.375 . S
C1060 C1061 1.367 . S
C1060 H1074 0.951 . S
C1061 C1057 1.383 . S
C1061 C1060 1.367 . S
C1061 H1075 0.950 . S
C1062 C1059 1.481 . S
C1062 C1063 1.297 1_655 S
C1062 H1076 0.950 . S
C1063 C1062 1.297 1_455 S
C1063 C1064 1.479 . S
C1063 H1077 0.950 1_455 S
C1064 C1063 1.479 . S
C1064 C1065 1.375 . S
C1064 C1070 1.404 . S
C1065 C1064 1.375 . S
C1065 C1066 1.369 . S
C1065 H1078 0.950 . S
C1066 C1065 1.369 . S
C1066 C1067 1.392 . S
C1066 H1079 0.951 . S
C1067 C1066 1.392 . S
C1067 C1069 1.384 . S
H1068 C1070 0.949 . S
C1069 C1067 1.384 . S
C1069 C1070 1.385 . S
C1069 H1071 0.950 . S
C1070 C1064 1.404 . S
C1070 H1068 0.949 . S
C1070 C1069 1.385 . S
H1071 C1069 0.950 . S
H1072 C1056 0.951 . S
H1073 C1058 0.951 . S
H1074 C1060 0.951 . S
H1075 C1061 0.950 . S
H1076 C1062 0.950 . S
H1077 C1063 0.950 1_655 S
H1078 C1065 0.950 . S
H1079 C1066 0.951 . S
C1080 C1081 1.386 . S
C1080 C1082 1.383 . S
C1080 H1096 0.951 . S
C1081 C1080 1.386 . S
C1081 C1085 1.383 . S
C1082 C1080 1.383 . S
C1082 C1083 1.402 . S
C1082 H1097 0.951 . S
C1083 C1082 1.402 . S
C1083 C1084 1.375 . S
C1083 C1086 1.481 . S
C1084 C1083 1.375 . S
C1084 C1085 1.367 . S
C1084 H1098 0.951 . S
C1085 C1081 1.383 . S
C1085 C1084 1.367 . S
C1085 H1099 0.950 . S
C1086 C1083 1.481 . S
C1086 C1087 1.297 1_545 S
C1086 H1100 0.950 . S
C1087 C1086 1.297 1_565 S
C1087 C1088 1.479 . S
C1087 H1101 0.950 . S
C1088 C1087 1.479 . S
C1088 C1089 1.375 . S
C1088 C1094 1.404 . S
C1089 C1088 1.375 . S
C1089 C1090 1.369 . S
C1089 H1102 0.950 . S
C1090 C1089 1.369 . S
C1090 C1091 1.392 . S
C1090 H1103 0.951 . S
C1091 C1090 1.392 . S
C1091 C1093 1.384 . S
H1092 C1094 0.949 . S
C1093 C1091 1.384 . S
C1093 C1094 1.385 . S
C1093 H1095 0.950 . S
C1094 C1088 1.404 . S
C1094 H1092 0.949 . S
C1094 C1093 1.385 . S
H1095 C1093 0.950 . S
H1096 C1080 0.951 . S
H1097 C1082 0.951 . S
H1098 C1084 0.951 . S
H1099 C1085 0.950 . S
H1100 C1086 0.950 . S
H1101 C1087 0.950 . S
H1102 C1089 0.950 . S
H1103 C1090 0.951 . S
C1104 C1105 1.386 . S
C1104 C1106 1.383 . S
C1104 H1120 0.951 . S
C1105 C1104 1.386 . S
C1105 C1109 1.383 . S
C1106 C1104 1.383 . S
C1106 C1107 1.402 . S
C1106 H1121 0.951 . S
C1107 C1106 1.402 . S
C1107 C1108 1.375 . S
C1107 C1110 1.481 . S
C1108 C1107 1.375 . S
C1108 C1109 1.367 . S
C1108 H1122 0.951 . S
C1109 C1105 1.383 . S
C1109 C1108 1.367 . S
C1109 H1123 0.950 . S
C1110 C1107 1.481 . S
C1110 C1111 1.297 . S
C1110 H1124 0.950 . S
C1111 C1110 1.297 . S
C1111 C1112 1.479 . S
C1111 H1125 0.950 . S
C1112 C1111 1.479 . S
C1112 C1113 1.375 . S
C1112 C1118 1.404 . S
C1113 C1112 1.375 . S
C1113 C1114 1.369 . S
C1113 H1126 0.950 . S
C1114 C1113 1.369 . S
C1114 C1115 1.392 . S
C1114 H1127 0.951 . S
C1115 C1114 1.392 . S
C1115 C1117 1.384 . S
H1116 C1118 0.949 . S
C1117 C1115 1.384 . S
C1117 C1118 1.385 . S
C1117 H1119 0.950 . S
C1118 C1112 1.404 . S
C1118 H1116 0.949 . S
C1118 C1117 1.385 . S
H1119 C1117 0.950 . S
H1120 C1104 0.951 . S
H1121 C1106 0.951 . S
H1122 C1108 0.951 . S
H1123 C1109 0.950 . S
H1124 C1110 0.950 . S
H1125 C1111 0.950 . S
H1126 C1113 0.950 . S
H1127 C1114 0.951 . S
C1128 C1129 1.386 . S
C1128 C1130 1.383 . S
C1128 H1144 0.951 . S
C1129 C1128 1.386 . S
C1129 C1133 1.383 . S
C1130 C1128 1.383 . S
C1130 C1131 1.402 . S
C1130 H1145 0.951 . S
C1131 C1130 1.402 . S
C1131 C1132 1.375 . S
C1131 C1134 1.481 . S
C1132 C1131 1.375 . S
C1132 C1133 1.367 . S
C1132 H1146 0.951 . S
C1133 C1129 1.383 . S
C1133 C1132 1.367 . S
C1133 H1147 0.950 . S
C1134 C1131 1.481 . S
C1134 C1135 1.297 1_455 S
C1134 H1148 0.944 . S
C1135 C1134 1.297 1_655 S
C1135 C1136 1.479 . S
C1135 H1149 0.950 . S
C1136 C1135 1.479 . S
C1136 C1137 1.375 . S
C1136 C1142 1.404 . S
C1137 C1136 1.375 . S
C1137 C1138 1.369 . S
C1137 H1150 0.950 . S
C1138 C1137 1.369 . S
C1138 C1139 1.392 . S
C1138 H1151 0.951 . S
C1139 C1138 1.392 . S
C1139 C1141 1.384 . S
H1140 C1142 0.949 . S
C1141 C1139 1.384 . S
C1141 C1142 1.385 . S
C1141 H1143 0.950 . S
C1142 C1136 1.404 . S
C1142 H1140 0.949 . S
C1142 C1141 1.385 . S
H1143 C1141 0.950 . S
H1144 C1128 0.951 . S
H1145 C1130 0.951 . S
H1146 C1132 0.951 . S
H1147 C1133 0.950 . S
H1148 C1134 0.944 . S
H1149 C1135 0.950 . S
H1150 C1137 0.950 . S
H1151 C1138 0.951 . S
C1152 C1153 1.386 . S
C1152 C1154 1.383 . S
C1152 H1168 0.951 . S
C1153 C1152 1.386 . S
C1153 C1157 1.383 . S
C1154 C1152 1.383 . S
C1154 C1155 1.402 . S
C1154 H1169 0.951 . S
C1155 C1154 1.402 . S
C1155 C1156 1.375 . S
C1155 C1158 1.481 . S
C1156 C1155 1.375 . S
C1156 C1157 1.367 . S
C1156 H1170 0.951 . S
C1157 C1153 1.383 . S
C1157 C1156 1.367 . S
C1157 H1171 0.950 . S
C1158 C1155 1.481 . S
C1158 C1159 1.297 . S
C1158 H1172 0.950 . S
C1159 C1158 1.297 . S
C1159 C1160 1.479 . S
C1159 H1173 0.950 . S
C1160 C1159 1.479 . S
C1160 C1161 1.375 . S
C1160 C1166 1.404 . S
C1161 C1160 1.375 . S
C1161 C1162 1.369 . S
C1161 H1174 0.950 . S
C1162 C1161 1.369 . S
C1162 C1163 1.392 . S
C1162 H1175 0.951 . S
C1163 C1162 1.392 . S
C1163 C1165 1.384 . S
H1164 C1166 0.949 . S
C1165 C1163 1.384 . S
C1165 C1166 1.385 . S
C1165 H1167 0.950 . S
C1166 C1160 1.404 . S
C1166 H1164 0.949 . S
C1166 C1165 1.385 . S
H1167 C1165 0.950 . S
H1168 C1152 0.951 . S
H1169 C1154 0.951 . S
H1170 C1156 0.951 . S
H1171 C1157 0.950 . S
H1172 C1158 0.950 . S
H1173 C1159 0.950 . S
H1174 C1161 0.950 . S
H1175 C1162 0.951 . S
C1176 C1177 1.386 . S
C1176 C1178 1.383 . S
C1176 H1192 0.951 . S
C1177 C1176 1.386 . S
C1177 C1181 1.383 . S
C1178 C1176 1.383 . S
C1178 C1179 1.402 . S
C1178 H1193 0.951 . S
C1179 C1178 1.402 . S
C1179 C1180 1.375 . S
C1179 C1182 1.481 . S
C1180 C1179 1.375 . S
C1180 C1181 1.367 . S
C1180 H1194 0.951 . S
C1181 C1177 1.383 . S
C1181 C1180 1.367 . S
C1181 H1195 0.950 . S
C1182 C1179 1.481 . S
C1182 C1183 1.297 . S
C1182 H1196 0.950 . S
C1183 C1182 1.297 . S
C1183 C1184 1.479 . S
C1183 H1197 0.950 . S
C1184 C1183 1.479 . S
C1184 C1185 1.375 . S
C1184 C1190 1.404 . S
C1185 C1184 1.375 . S
C1185 C1186 1.369 . S
C1185 H1198 0.950 . S
C1186 C1185 1.369 . S
C1186 C1187 1.392 . S
C1186 H1199 0.951 . S
C1187 C1186 1.392 . S
C1187 C1189 1.384 . S
H1188 C1190 0.949 . S
C1189 C1187 1.384 . S
C1189 C1190 1.385 . S
C1189 H1191 0.950 . S
C1190 C1184 1.404 . S
C1190 H1188 0.949 . S
C1190 C1189 1.385 . S
H1191 C1189 0.950 . S
H1192 C1176 0.951 . S
H1193 C1178 0.951 . S
H1194 C1180 0.951 . S
H1195 C1181 0.950 . S
H1196 C1182 0.950 . S
H1197 C1183 0.950 . S
H1198 C1185 0.950 . S
H1199 C1186 0.951 . S
C1200 C1201 1.386 . S
C1200 C1202 1.383 . S
C1200 H1216 0.951 . S
C1201 C1200 1.386 . S
C1201 C1205 1.383 . S
C1202 C1200 1.383 . S
C1202 C1203 1.402 . S
C1202 H1217 0.951 . S
C1203 C1202 1.402 . S
C1203 C1204 1.375 . S
C1203 C1206 1.481 . S
C1204 C1203 1.375 . S
C1204 C1205 1.367 . S
C1204 H1218 0.951 . S
C1205 C1201 1.383 . S
C1205 C1204 1.367 . S
C1205 H1219 0.950 . S
C1206 C1203 1.481 . S
C1206 C1207 1.297 . S
C1206 H1220 0.950 . S
C1207 C1206 1.297 . S
C1207 C1208 1.479 . S
C1207 H1221 0.950 . S
C1208 C1207 1.479 . S
C1208 C1209 1.375 . S
C1208 C1214 1.404 . S
C1209 C1208 1.375 . S
C1209 C1210 1.369 . S
C1209 H1222 0.950 . S
C1210 C1209 1.369 . S
C1210 C1211 1.392 . S
C1210 H1223 0.951 . S
C1211 C1210 1.392 . S
C1211 C1213 1.384 . S
H1212 C1214 0.949 . S
C1213 C1211 1.384 . S
C1213 C1214 1.385 . S
C1213 H1215 0.950 . S
C1214 C1208 1.404 . S
C1214 H1212 0.949 . S
C1214 C1213 1.385 . S
H1215 C1213 0.950 . S
H1216 C1200 0.951 . S
H1217 C1202 0.951 . S
H1218 C1204 0.951 . S
H1219 C1205 0.950 . S
H1220 C1206 0.950 . S
H1221 C1207 0.950 . S
H1222 C1209 0.950 . S
H1223 C1210 0.951 . S
C1224 C1225 1.386 . S
C1224 C1226 1.383 . S
C1224 H1240 0.951 . S
C1225 C1224 1.386 . S
C1225 C1229 1.383 . S
C1226 C1224 1.383 . S
C1226 C1227 1.402 . S
C1226 H1241 0.951 . S
C1227 C1226 1.402 . S
C1227 C1228 1.375 . S
C1227 C1230 1.481 . S
C1228 C1227 1.375 . S
C1228 C1229 1.367 . S
C1228 H1242 0.951 . S
C1229 C1225 1.383 . S
C1229 C1228 1.367 . S
C1229 H1243 0.950 . S
C1230 C1227 1.481 . S
C1230 C1231 1.297 . S
C1230 H1244 0.950 . S
C1231 C1230 1.297 . S
C1231 C1232 1.479 . S
C1231 H1245 0.950 . S
C1232 C1231 1.479 . S
C1232 C1233 1.375 . S
C1232 C1238 1.404 . S
C1233 C1232 1.375 . S
C1233 C1234 1.369 . S
C1233 H1246 0.950 . S
C1234 C1233 1.369 . S
C1234 C1235 1.392 . S
C1234 H1247 0.951 . S
C1235 C1234 1.392 . S
C1235 C1237 1.384 . S
H1236 C1238 0.949 . S
C1237 C1235 1.384 . S
C1237 C1238 1.385 . S
C1237 H1239 0.950 . S
C1238 C1232 1.404 . S
C1238 H1236 0.949 . S
C1238 C1237 1.385 . S
H1239 C1237 0.950 . S
H1240 C1224 0.951 . S
H1241 C1226 0.951 . S
H1242 C1228 0.951 . S
H1243 C1229 0.950 . S
H1244 C1230 0.950 . S
H1245 C1231 0.950 . S
H1246 C1233 0.950 . S
H1247 C1234 0.951 . S
C1248 C1249 1.386 . S
C1248 C1250 1.383 . S
C1248 H1264 0.951 . S
C1249 C1248 1.386 . S
C1249 C1253 1.383 . S
C1250 C1248 1.383 . S
C1250 C1251 1.402 . S
C1250 H1265 0.951 . S
C1251 C1250 1.402 . S
C1251 C1252 1.375 . S
C1251 C1254 1.481 . S
C1252 C1251 1.375 . S
C1252 C1253 1.367 . S
C1252 H1266 0.951 . S
C1253 C1249 1.383 . S
C1253 C1252 1.367 . S
C1253 H1267 0.950 . S
C1254 C1251 1.481 . S
C1254 C1255 1.297 . S
C1254 H1268 0.950 . S
C1255 C1254 1.297 . S
C1255 C1256 1.479 . S
C1255 H1269 0.950 . S
C1256 C1255 1.479 . S
C1256 C1257 1.375 . S
C1256 C1262 1.404 . S
C1257 C1256 1.375 . S
C1257 C1258 1.369 . S
C1257 H1270 0.950 . S
C1258 C1257 1.369 . S
C1258 C1259 1.392 . S
C1258 H1271 0.951 . S
C1259 C1258 1.392 . S
C1259 C1261 1.384 . S
H1260 C1262 0.949 . S
C1261 C1259 1.384 . S
C1261 C1262 1.385 . S
C1261 H1263 0.950 . S
C1262 C1256 1.404 . S
C1262 H1260 0.949 . S
C1262 C1261 1.385 . S
H1263 C1261 0.950 . S
H1264 C1248 0.951 . S
H1265 C1250 0.951 . S
H1266 C1252 0.951 . S
H1267 C1253 0.950 . S
H1268 C1254 0.950 . S
H1269 C1255 0.950 . S
H1270 C1257 0.950 . S
H1271 C1258 0.951 . S
C1272 C1273 1.386 . S
C1272 C1274 1.383 . S
C1272 H1288 0.951 . S
C1273 C1272 1.386 . S
C1273 C1277 1.383 . S
C1274 C1272 1.383 . S
C1274 C1275 1.402 . S
C1274 H1289 0.951 . S
C1275 C1274 1.402 . S
C1275 C1276 1.375 . S
C1275 C1278 1.481 . S
C1276 C1275 1.375 . S
C1276 C1277 1.367 . S
C1276 H1290 0.951 . S
C1277 C1273 1.383 . S
C1277 C1276 1.367 . S
C1277 H1291 0.950 . S
C1278 C1275 1.481 . S
C1278 C1279 1.297 . S
C1278 H1292 0.950 . S
C1279 C1278 1.297 . S
C1279 C1280 1.479 . S
C1279 H1293 0.950 . S
C1280 C1279 1.479 . S
C1280 C1281 1.375 . S
C1280 C1286 1.404 . S
C1281 C1280 1.375 . S
C1281 C1282 1.369 . S
C1281 H1294 0.950 . S
C1282 C1281 1.369 . S
C1282 C1283 1.392 . S
C1282 H1295 0.951 . S
C1283 C1282 1.392 . S
C1283 C1285 1.384 . S
H1284 C1286 0.949 . S
C1285 C1283 1.384 . S
C1285 C1286 1.385 . S
C1285 H1287 0.950 . S
C1286 C1280 1.404 . S
C1286 H1284 0.949 . S
C1286 C1285 1.385 . S
H1287 C1285 0.950 . S
H1288 C1272 0.951 . S
H1289 C1274 0.951 . S
H1290 C1276 0.951 . S
H1291 C1277 0.950 . S
H1292 C1278 0.950 . S
H1293 C1279 0.950 . S
H1294 C1281 0.950 . S
H1295 C1282 0.951 . S
C1296 C1297 1.386 . S
C1296 C1298 1.383 . S
C1296 H1312 0.951 . S
C1297 C1296 1.386 . S
C1297 C1301 1.383 . S
C1298 C1296 1.383 . S
C1298 C1299 1.402 . S
C1298 H1313 0.951 . S
C1299 C1298 1.402 . S
C1299 C1300 1.375 . S
C1299 C1302 1.481 . S
C1300 C1299 1.375 . S
C1300 C1301 1.367 . S
C1300 H1314 0.951 . S
C1301 C1297 1.383 . S
C1301 C1300 1.367 . S
C1301 H1315 0.950 . S
C1302 C1299 1.481 . S
C1302 C1303 1.297 . S
C1302 H1316 0.950 . S
C1303 C1302 1.297 . S
C1303 C1304 1.479 . S
C1303 H1317 0.950 . S
C1304 C1303 1.479 . S
C1304 C1305 1.375 . S
C1304 C1310 1.404 . S
C1305 C1304 1.375 . S
C1305 C1306 1.369 . S
C1305 H1318 0.950 . S
C1306 C1305 1.369 . S
C1306 C1307 1.392 . S
C1306 H1319 0.951 . S
C1307 C1306 1.392 . S
C1307 C1309 1.384 . S
H1308 C1310 0.949 . S
C1309 C1307 1.384 . S
C1309 C1310 1.385 . S
C1309 H1311 0.950 . S
C1310 C1304 1.404 . S
C1310 H1308 0.949 . S
C1310 C1309 1.385 . S
H1311 C1309 0.950 . S
H1312 C1296 0.951 . S
H1313 C1298 0.951 . S
H1314 C1300 0.951 . S
H1315 C1301 0.950 . S
H1316 C1302 0.950 . S
H1317 C1303 0.950 . S
H1318 C1305 0.950 . S
H1319 C1306 0.951 . S
C1320 C1321 1.386 . S
C1320 C1322 1.383 . S
C1320 H1336 0.951 . S
C1321 C1320 1.386 . S
C1321 C1325 1.383 . S
C1322 C1320 1.383 . S
C1322 C1323 1.402 . S
C1322 H1337 0.951 . S
C1323 C1322 1.402 . S
C1323 C1324 1.375 . S
C1323 C1326 1.481 . S
C1324 C1323 1.375 . S
C1324 C1325 1.367 . S
C1324 H1338 0.951 . S
C1325 C1321 1.383 . S
C1325 C1324 1.367 . S
C1325 H1339 0.950 . S
C1326 C1323 1.481 . S
C1326 C1327 1.297 . S
C1326 H1340 0.950 . S
C1327 C1326 1.297 . S
C1327 C1328 1.479 . S
C1327 H1341 0.950 . S
C1328 C1327 1.479 . S
C1328 C1329 1.375 . S
C1328 C1334 1.404 . S
C1329 C1328 1.375 . S
C1329 C1330 1.369 . S
C1329 H1342 0.950 . S
C1330 C1329 1.369 . S
C1330 C1331 1.392 . S
C1330 H1343 0.951 . S
C1331 C1330 1.392 . S
C1331 C1333 1.384 . S
H1332 C1334 0.949 . S
C1333 C1331 1.384 . S
C1333 C1334 1.385 . S
C1333 H1335 0.950 . S
C1334 C1328 1.404 . S
C1334 H1332 0.949 . S
C1334 C1333 1.385 . S
H1335 C1333 0.950 . S
H1336 C1320 0.951 . S
H1337 C1322 0.951 . S
H1338 C1324 0.951 . S
H1339 C1325 0.950 . S
H1340 C1326 0.950 . S
H1341 C1327 0.950 . S
H1342 C1329 0.950 . S
H1343 C1330 0.951 . S
C1344 C1345 1.386 . S
C1344 C1346 1.383 . S
C1344 H1360 0.951 . S
C1345 C1344 1.386 . S
C1345 C1349 1.383 . S
C1346 C1344 1.383 . S
C1346 C1347 1.402 . S
C1346 H1361 0.951 . S
C1347 C1346 1.402 . S
C1347 C1348 1.375 . S
C1347 C1350 1.481 . S
C1348 C1347 1.375 . S
C1348 C1349 1.367 . S
C1348 H1362 0.951 . S
C1349 C1345 1.383 . S
C1349 C1348 1.367 . S
C1349 H1363 0.950 . S
C1350 C1347 1.481 . S
C1350 C1351 1.297 . S
C1350 H1364 0.950 . S
C1351 C1350 1.297 . S
C1351 C1352 1.479 . S
C1351 H1365 0.950 . S
C1352 C1351 1.479 . S
C1352 C1353 1.375 . S
C1352 C1358 1.404 . S
C1353 C1352 1.375 . S
C1353 C1354 1.369 . S
C1353 H1366 0.950 . S
C1354 C1353 1.369 . S
C1354 C1355 1.392 . S
C1354 H1367 0.951 . S
C1355 C1354 1.392 . S
C1355 C1357 1.384 . S
H1356 C1358 0.949 . S
C1357 C1355 1.384 . S
C1357 C1358 1.385 . S
C1357 H1359 0.950 . S
C1358 C1352 1.404 . S
C1358 H1356 0.949 . S
C1358 C1357 1.385 . S
H1359 C1357 0.950 . S
H1360 C1344 0.951 . S
H1361 C1346 0.951 . S
H1362 C1348 0.951 . S
H1363 C1349 0.950 . S
H1364 C1350 0.950 . S
H1365 C1351 0.950 . S
H1366 C1353 0.950 . S
H1367 C1354 0.951 . S
C1368 C1369 1.386 . S
C1368 C1370 1.383 . S
C1368 H1384 0.951 . S
C1369 C1368 1.386 . S
C1369 C1373 1.383 . S
C1370 C1368 1.383 . S
C1370 C1371 1.402 . S
C1370 H1385 0.951 . S
C1371 C1370 1.402 . S
C1371 C1372 1.375 . S
C1371 C1374 1.481 . S
C1372 C1371 1.375 . S
C1372 C1373 1.367 . S
C1372 H1386 0.951 . S
C1373 C1369 1.383 . S
C1373 C1372 1.367 . S
C1373 H1387 0.950 . S
C1374 C1371 1.481 . S
C1374 C1375 1.297 . S
C1374 H1388 0.950 . S
C1375 C1374 1.297 . S
C1375 C1376 1.479 . S
C1375 H1389 0.950 . S
C1376 C1375 1.479 . S
C1376 C1377 1.375 . S
C1376 C1382 1.404 . S
C1377 C1376 1.375 . S
C1377 C1378 1.369 . S
C1377 H1390 0.950 . S
C1378 C1377 1.369 . S
C1378 C1379 1.392 . S
C1378 H1391 0.951 . S
C1379 C1378 1.392 . S
C1379 C1381 1.384 . S
H1380 C1382 0.949 . S
C1381 C1379 1.384 . S
C1381 C1382 1.385 . S
C1381 H1383 0.950 . S
C1382 C1376 1.404 . S
C1382 H1380 0.949 . S
C1382 C1381 1.385 . S
H1383 C1381 0.950 . S
H1384 C1368 0.951 . S
H1385 C1370 0.951 . S
H1386 C1372 0.951 . S
H1387 C1373 0.950 . S
H1388 C1374 0.950 . S
H1389 C1375 0.950 . S
H1390 C1377 0.950 . S
H1391 C1378 0.951 . S
C1392 C1393 1.386 . S
C1392 C1394 1.383 . S
C1392 H1408 0.951 . S
C1393 C1392 1.386 . S
C1393 C1397 1.383 . S
C1394 C1392 1.383 . S
C1394 C1395 1.402 . S
C1394 H1409 0.951 . S
C1395 C1394 1.402 . S
C1395 C1396 1.375 . S
C1395 C1398 1.481 . S
C1396 C1395 1.375 . S
C1396 C1397 1.367 . S
C1396 H1410 0.951 . S
C1397 C1393 1.383 . S
C1397 C1396 1.367 . S
C1397 H1411 0.950 . S
C1398 C1395 1.481 . S
C1398 C1399 1.297 . S
C1398 H1412 0.950 . S
C1399 C1398 1.297 . S
C1399 C1400 1.479 . S
C1399 H1413 0.950 . S
C1400 C1399 1.479 . S
C1400 C1401 1.375 . S
C1400 C1406 1.404 . S
C1401 C1400 1.375 . S
C1401 C1402 1.369 . S
C1401 H1414 0.950 . S
C1402 C1401 1.369 . S
C1402 C1403 1.392 . S
C1402 H1415 0.951 . S
C1403 C1402 1.392 . S
C1403 C1405 1.384 . S
H1404 C1406 0.949 . S
C1405 C1403 1.384 . S
C1405 C1406 1.385 . S
C1405 H1407 0.950 . S
C1406 C1400 1.404 . S
C1406 H1404 0.949 . S
C1406 C1405 1.385 . S
H1407 C1405 0.950 . S
H1408 C1392 0.951 . S
H1409 C1394 0.951 . S
H1410 C1396 0.951 . S
H1411 C1397 0.950 . S
H1412 C1398 0.950 . S
H1413 C1399 0.950 . S
H1414 C1401 0.950 . S
H1415 C1402 0.951 . S
C1416 C1417 1.386 . S
C1416 C1418 1.383 . S
C1416 H1432 0.951 . S
C1417 C1416 1.386 . S
C1417 C1421 1.383 . S
C1418 C1416 1.383 . S
C1418 C1419 1.402 . S
C1418 H1433 0.951 . S
C1419 C1418 1.402 . S
C1419 C1420 1.375 . S
C1419 C1422 1.481 . S
C1420 C1419 1.375 . S
C1420 C1421 1.367 . S
C1420 H1434 0.951 . S
C1421 C1417 1.383 . S
C1421 C1420 1.367 . S
C1421 H1435 0.950 . S
C1422 C1419 1.481 . S
C1422 C1423 1.297 . S
C1422 H1436 0.950 . S
C1423 C1422 1.297 . S
C1423 C1424 1.479 . S
C1423 H1437 0.950 . S
C1424 C1423 1.479 . S
C1424 C1425 1.375 . S
C1424 C1430 1.404 . S
C1425 C1424 1.375 . S
C1425 C1426 1.369 . S
C1425 H1438 0.950 . S
C1426 C1425 1.369 . S
C1426 C1427 1.392 . S
C1426 H1439 0.951 . S
C1427 C1426 1.392 . S
C1427 C1429 1.384 . S
H1428 C1430 0.949 . S
C1429 C1427 1.384 . S
C1429 C1430 1.385 . S
C1429 H1431 0.950 . S
C1430 C1424 1.404 . S
C1430 H1428 0.949 . S
C1430 C1429 1.385 . S
H1431 C1429 0.950 . S
H1432 C1416 0.951 . S
H1433 C1418 0.951 . S
H1434 C1420 0.951 . S
H1435 C1421 0.950 . S
H1436 C1422 0.950 . S
H1437 C1423 0.950 . S
H1438 C1425 0.950 . S
H1439 C1426 0.951 . S
C1440 C1441 1.386 . S
C1440 C1442 1.383 . S
C1440 H1456 0.951 . S
C1441 C1440 1.386 . S
C1441 C1445 1.383 . S
C1442 C1440 1.383 . S
C1442 C1443 1.402 . S
C1442 H1457 0.951 . S
C1443 C1442 1.402 . S
C1443 C1444 1.375 . S
C1443 C1446 1.481 . S
C1444 C1443 1.375 . S
C1444 C1445 1.367 . S
C1444 H1458 0.951 . S
C1445 C1441 1.383 . S
C1445 C1444 1.367 . S
C1445 H1459 0.950 . S
C1446 C1443 1.481 . S
C1446 C1447 1.297 1_554 S
C1446 H1460 0.950 . S
C1447 C1446 1.297 1_556 S
C1447 C1448 1.479 . S
C1447 H1461 0.950 . S
C1448 C1447 1.479 . S
C1448 C1449 1.375 . S
C1448 C1454 1.404 . S
C1449 C1448 1.375 . S
C1449 C1450 1.369 . S
C1449 H1462 0.950 . S
C1450 C1449 1.369 . S
C1450 C1451 1.392 . S
C1450 H1463 0.951 . S
C1451 C1450 1.392 . S
C1451 C1453 1.384 . S
H1452 C1454 0.949 . S
C1453 C1451 1.384 . S
C1453 C1454 1.385 . S
C1453 H1455 0.950 . S
C1454 C1448 1.404 . S
C1454 H1452 0.949 . S
C1454 C1453 1.385 . S
H1455 C1453 0.950 . S
H1456 C1440 0.951 . S
H1457 C1442 0.951 . S
H1458 C1444 0.951 . S
H1459 C1445 0.950 . S
H1460 C1446 0.950 . S
H1461 C1447 0.950 . S
H1462 C1449 0.950 . S
H1463 C1450 0.951 . S
C1464 C1465 1.386 . S
C1464 C1466 1.383 . S
C1464 H1480 0.951 . S
C1465 C1464 1.386 . S
C1465 C1469 1.383 . S
C1466 C1464 1.383 . S
C1466 C1467 1.402 . S
C1466 H1481 0.951 . S
C1467 C1466 1.402 . S
C1467 C1468 1.375 . S
C1467 C1470 1.481 . S
C1468 C1467 1.375 . S
C1468 C1469 1.367 . S
C1468 H1482 0.951 . S
C1469 C1465 1.383 . S
C1469 C1468 1.367 . S
C1469 H1483 0.950 . S
C1470 C1467 1.481 . S
C1470 C1471 1.297 1_556 S
C1470 H1484 0.950 . S
C1471 C1470 1.297 1_554 S
C1471 C1472 1.479 . S
C1471 H1485 0.950 . S
C1472 C1471 1.479 . S
C1472 C1473 1.375 . S
C1472 C1478 1.404 . S
C1473 C1472 1.375 . S
C1473 C1474 1.369 . S
C1473 H1486 0.950 . S
C1474 C1473 1.369 . S
C1474 C1475 1.392 . S
C1474 H1487 0.951 . S
C1475 C1474 1.392 . S
C1475 C1477 1.384 . S
H1476 C1478 0.949 . S
C1477 C1475 1.384 . S
C1477 C1478 1.385 . S
C1477 H1479 0.950 . S
C1478 C1472 1.404 . S
C1478 H1476 0.949 . S
C1478 C1477 1.385 . S
H1479 C1477 0.950 . S
H1480 C1464 0.951 . S
H1481 C1466 0.951 . S
H1482 C1468 0.951 . S
H1483 C1469 0.950 . S
H1484 C1470 0.950 . S
H1485 C1471 0.950 . S
H1486 C1473 0.950 . S
H1487 C1474 0.951 . S
C1488 C1489 1.386 . S
C1488 C1490 1.383 . S
C1488 H1504 0.951 . S
C1489 C1488 1.386 . S
C1489 C1493 1.383 . S
C1490 C1488 1.383 . S
C1490 C1491 1.402 . S
C1490 H1505 0.951 . S
C1491 C1490 1.402 . S
C1491 C1492 1.375 . S
C1491 C1494 1.481 . S
C1492 C1491 1.375 . S
C1492 C1493 1.367 . S
C1492 H1506 0.951 . S
C1493 C1489 1.383 . S
C1493 C1492 1.367 . S
C1493 H1507 0.950 . S
C1494 C1491 1.481 . S
C1494 C1495 1.297 1_556 S
C1494 H1508 0.950 . S
C1495 C1494 1.297 1_554 S
C1495 C1496 1.479 . S
C1495 H1509 0.950 . S
C1496 C1495 1.479 . S
C1496 C1497 1.375 . S
C1496 C1502 1.404 . S
C1497 C1496 1.375 . S
C1497 C1498 1.369 . S
C1497 H1510 0.950 . S
C1498 C1497 1.369 . S
C1498 C1499 1.392 . S
C1498 H1511 0.951 . S
C1499 C1498 1.392 . S
C1499 C1501 1.384 . S
H1500 C1502 0.949 . S
C1501 C1499 1.384 . S
C1501 C1502 1.385 . S
C1501 H1503 0.950 . S
C1502 C1496 1.404 . S
C1502 H1500 0.949 . S
C1502 C1501 1.385 . S
H1503 C1501 0.950 . S
H1504 C1488 0.951 . S
H1505 C1490 0.951 . S
H1506 C1492 0.951 . S
H1507 C1493 0.950 . S
H1508 C1494 0.950 . S
H1509 C1495 0.950 . S
H1510 C1497 0.950 . S
H1511 C1498 0.951 . S
C1512 C1513 1.386 . S
C1512 C1514 1.383 . S
C1512 H1528 0.951 . S
C1513 C1512 1.386 . S
C1513 C1517 1.383 . S
C1514 C1512 1.383 . S
C1514 C1515 1.402 . S
C1514 H1529 0.951 . S
C1515 C1514 1.402 . S
C1515 C1516 1.375 . S
C1515 C1518 1.481 . S
C1516 C1515 1.375 . S
C1516 C1517 1.367 . S
C1516 H1530 0.951 . S
C1517 C1513 1.383 . S
C1517 C1516 1.367 . S
C1517 H1531 0.950 . S
C1518 C1515 1.481 . S
C1518 C1519 1.297 1_554 S
C1518 H1532 0.950 . S
C1519 C1518 1.297 1_556 S
C1519 C1520 1.479 . S
C1519 H1533 0.950 . S
C1520 C1519 1.479 . S
C1520 C1521 1.375 . S
C1520 C1526 1.404 . S
C1521 C1520 1.375 . S
C1521 C1522 1.369 . S
C1521 H1534 0.950 . S
C1522 C1521 1.369 . S
C1522 C1523 1.392 . S
C1522 H1535 0.951 . S
C1523 C1522 1.392 . S
C1523 C1525 1.384 . S
H1524 C1526 0.949 . S
C1525 C1523 1.384 . S
C1525 C1526 1.385 . S
C1525 H1527 0.950 . S
C1526 C1520 1.404 . S
C1526 H1524 0.949 . S
C1526 C1525 1.385 . S
H1527 C1525 0.950 . S
H1528 C1512 0.951 . S
H1529 C1514 0.951 . S
H1530 C1516 0.951 . S
H1531 C1517 0.950 . S
H1532 C1518 0.950 . S
H1533 C1519 0.950 . S
H1534 C1521 0.950 . S
H1535 C1522 0.951 . S
C1536 C1537 1.386 . S
C1536 C1538 1.383 . S
C1536 H1552 0.951 . S
C1537 C1536 1.386 . S
C1537 C1541 1.383 . S
C1538 C1536 1.383 . S
C1538 C1539 1.402 . S
C1538 H1553 0.951 . S
C1539 C1538 1.402 . S
C1539 C1540 1.375 . S
C1539 C1542 1.481 . S
C1540 C1539 1.375 . S
C1540 C1541 1.367 . S
C1540 H1554 0.951 . S
C1541 C1537 1.383 . S
C1541 C1540 1.367 . S
C1541 H1555 0.950 . S
C1542 C1539 1.481 . S
C1542 C1543 1.297 1_554 S
C1542 H1556 0.950 . S
C1543 C1542 1.297 1_556 S
C1543 C1544 1.479 . S
C1543 H1557 0.950 . S
C1544 C1543 1.479 . S
C1544 C1545 1.375 . S
C1544 C1550 1.404 . S
C1545 C1544 1.375 . S
C1545 C1546 1.369 . S
C1545 H1558 0.950 . S
C1546 C1545 1.369 . S
C1546 C1547 1.392 . S
C1546 H1559 0.951 . S
C1547 C1546 1.392 . S
C1547 C1549 1.384 . S
H1548 C1550 0.949 . S
C1549 C1547 1.384 . S
C1549 C1550 1.385 . S
C1549 H1551 0.950 . S
C1550 C1544 1.404 . S
C1550 H1548 0.949 . S
C1550 C1549 1.385 . S
H1551 C1549 0.950 . S
H1552 C1536 0.951 . S
H1553 C1538 0.951 . S
H1554 C1540 0.951 . S
H1555 C1541 0.950 . S
H1556 C1542 0.950 . S
H1557 C1543 0.950 . S
H1558 C1545 0.950 . S
H1559 C1546 0.951 . S
C1560 C1561 1.386 . S
C1560 C1562 1.383 . S
C1560 H1576 0.951 . S
C1561 C1560 1.386 . S
C1561 C1565 1.383 . S
C1562 C1560 1.383 . S
C1562 C1563 1.402 . S
C1562 H1577 0.951 . S
C1563 C1562 1.402 . S
C1563 C1564 1.375 . S
C1563 C1566 1.481 . S
C1564 C1563 1.375 . S
C1564 C1565 1.367 . S
C1564 H1578 0.951 . S
C1565 C1561 1.383 . S
C1565 C1564 1.367 . S
C1565 H1579 0.950 . S
C1566 C1563 1.481 . S
C1566 C1567 1.297 1_556 S
C1566 H1580 0.950 . S
C1567 C1566 1.297 1_554 S
C1567 C1568 1.479 . S
C1567 H1581 0.950 . S
C1568 C1567 1.479 . S
C1568 C1569 1.375 . S
C1568 C1574 1.404 . S
C1569 C1568 1.375 . S
C1569 C1570 1.369 . S
C1569 H1582 0.950 . S
C1570 C1569 1.369 . S
C1570 C1571 1.392 . S
C1570 H1583 0.951 . S
C1571 C1570 1.392 . S
C1571 C1573 1.384 . S
H1572 C1574 0.949 . S
C1573 C1571 1.384 . S
C1573 C1574 1.385 . S
C1573 H1575 0.950 . S
C1574 C1568 1.404 . S
C1574 H1572 0.949 . S
C1574 C1573 1.385 . S
H1575 C1573 0.950 . S
H1576 C1560 0.951 . S
H1577 C1562 0.951 . S
H1578 C1564 0.951 . S
H1579 C1565 0.950 . S
H1580 C1566 0.950 . S
H1581 C1567 0.950 . S
H1582 C1569 0.950 . S
H1583 C1570 0.951 . S
C1584 C1585 1.386 . S
C1584 C1586 1.383 . S
C1584 H1600 0.951 . S
C1585 C1584 1.386 . S
C1585 C1589 1.383 . S
C1586 C1584 1.383 . S
C1586 C1587 1.402 . S
C1586 H1601 0.951 . S
C1587 C1586 1.402 . S
C1587 C1588 1.375 . S
C1587 C1590 1.481 . S
C1588 C1587 1.375 . S
C1588 C1589 1.367 . S
C1588 H1602 0.951 . S
C1589 C1585 1.383 . S
C1589 C1588 1.367 . S
C1589 H1603 0.950 . S
C1590 C1587 1.481 . S
C1590 C1591 1.297 . S
C1590 H1604 0.950 . S
C1591 C1590 1.297 . S
C1591 C1592 1.479 . S
C1591 H1605 0.950 . S
C1592 C1591 1.479 . S
C1592 C1593 1.375 . S
C1592 C1598 1.404 . S
C1593 C1592 1.375 . S
C1593 C1594 1.369 . S
C1593 H1606 0.950 . S
C1594 C1593 1.369 . S
C1594 C1595 1.392 . S
C1594 H1607 0.951 . S
C1595 C1594 1.392 . S
C1595 C1597 1.384 . S
H1596 C1598 0.949 . S
C1597 C1595 1.384 . S
C1597 C1598 1.385 . S
C1597 H1599 0.950 . S
C1598 C1592 1.404 . S
C1598 H1596 0.949 . S
C1598 C1597 1.385 . S
H1599 C1597 0.950 . S
H1600 C1584 0.951 . S
H1601 C1586 0.951 . S
H1602 C1588 0.951 . S
H1603 C1589 0.950 . S
H1604 C1590 0.950 . S
H1605 C1591 0.950 . S
H1606 C1593 0.950 . S
H1607 C1594 0.951 . S
C1608 C1609 1.386 . S
C1608 C1610 1.383 . S
C1608 H1624 0.951 . S
C1609 C1608 1.386 . S
C1609 C1613 1.383 . S
C1610 C1608 1.383 . S
C1610 C1611 1.402 . S
C1610 H1625 0.951 . S
C1611 C1610 1.402 . S
C1611 C1612 1.375 . S
C1611 C1614 1.481 . S
C1612 C1611 1.375 . S
C1612 C1613 1.367 . S
C1612 H1626 0.951 . S
C1613 C1609 1.383 . S
C1613 C1612 1.367 . S
C1613 H1627 0.950 . S
C1614 C1611 1.481 . S
C1614 C1615 1.297 . S
C1614 H1628 0.950 . S
C1615 C1614 1.297 . S
C1615 C1616 1.479 . S
C1615 H1629 0.950 . S
C1616 C1615 1.479 . S
C1616 C1617 1.375 . S
C1616 C1622 1.404 . S
C1617 C1616 1.375 . S
C1617 C1618 1.369 . S
C1617 H1630 0.950 . S
C1618 C1617 1.369 . S
C1618 C1619 1.392 . S
C1618 H1631 0.951 . S
C1619 C1618 1.392 . S
C1619 C1621 1.384 . S
H1620 C1622 0.949 . S
C1621 C1619 1.384 . S
C1621 C1622 1.385 . S
C1621 H1623 0.950 . S
C1622 C1616 1.404 . S
C1622 H1620 0.949 . S
C1622 C1621 1.385 . S
H1623 C1621 0.950 . S
H1624 C1608 0.951 . S
H1625 C1610 0.951 . S
H1626 C1612 0.951 . S
H1627 C1613 0.950 . S
H1628 C1614 0.950 . S
H1629 C1615 0.950 . S
H1630 C1617 0.950 . S
H1631 C1618 0.951 . S
C1632 C1633 1.386 . S
C1632 C1634 1.383 . S
C1632 H1648 0.951 . S
C1633 C1632 1.386 . S
C1633 C1637 1.383 . S
C1634 C1632 1.383 . S
C1634 C1635 1.402 . S
C1634 H1649 0.951 . S
C1635 C1634 1.402 . S
C1635 C1636 1.375 . S
C1635 C1638 1.481 . S
C1636 C1635 1.375 . S
C1636 C1637 1.367 . S
C1636 H1650 0.951 . S
C1637 C1633 1.383 . S
C1637 C1636 1.367 . S
C1637 H1651 0.950 . S
C1638 C1635 1.481 . S
C1638 C1639 1.297 . S
C1638 H1652 0.950 . S
C1639 C1638 1.297 . S
C1639 C1640 1.479 . S
C1639 H1653 0.950 . S
C1640 C1639 1.479 . S
C1640 C1641 1.375 . S
C1640 C1646 1.404 . S
C1641 C1640 1.375 . S
C1641 C1642 1.369 . S
C1641 H1654 0.950 . S
C1642 C1641 1.369 . S
C1642 C1643 1.392 . S
C1642 H1655 0.951 . S
C1643 C1642 1.392 . S
C1643 C1645 1.384 . S
H1644 C1646 0.949 . S
C1645 C1643 1.384 . S
C1645 C1646 1.385 . S
C1645 H1647 0.950 . S
C1646 C1640 1.404 . S
C1646 H1644 0.949 . S
C1646 C1645 1.385 . S
H1647 C1645 0.950 . S
H1648 C1632 0.951 . S
H1649 C1634 0.951 . S
H1650 C1636 0.951 . S
H1651 C1637 0.950 . S
H1652 C1638 0.950 . S
H1653 C1639 0.950 . S
H1654 C1641 0.950 . S
H1655 C1642 0.951 . S
C1656 C1657 1.386 . S
C1656 C1658 1.383 . S
C1656 H1672 0.951 . S
C1657 C1656 1.386 . S
C1657 C1661 1.383 . S
C1658 C1656 1.383 . S
C1658 C1659 1.402 . S
C1658 H1673 0.951 . S
C1659 C1658 1.402 . S
C1659 C1660 1.375 . S
C1659 C1662 1.481 . S
C1660 C1659 1.375 . S
C1660 C1661 1.367 . S
C1660 H1674 0.951 . S
C1661 C1657 1.383 . S
C1661 C1660 1.367 . S
C1661 H1675 0.950 . S
C1662 C1659 1.481 . S
C1662 C1663 1.297 . S
C1662 H1676 0.950 . S
C1663 C1662 1.297 . S
C1663 C1664 1.479 . S
C1663 H1677 0.950 . S
C1664 C1663 1.479 . S
C1664 C1665 1.375 . S
C1664 C1670 1.404 . S
C1665 C1664 1.375 . S
C1665 C1666 1.369 . S
C1665 H1678 0.950 . S
C1666 C1665 1.369 . S
C1666 C1667 1.392 . S
C1666 H1679 0.951 . S
C1667 C1666 1.392 . S
C1667 C1669 1.384 . S
H1668 C1670 0.949 . S
C1669 C1667 1.384 . S
C1669 C1670 1.385 . S
C1669 H1671 0.950 . S
C1670 C1664 1.404 . S
C1670 H1668 0.949 . S
C1670 C1669 1.385 . S
H1671 C1669 0.950 . S
H1672 C1656 0.951 . S
H1673 C1658 0.951 . S
H1674 C1660 0.951 . S
H1675 C1661 0.950 . S
H1676 C1662 0.950 . S
H1677 C1663 0.950 . S
H1678 C1665 0.950 . S
H1679 C1666 0.951 . S
C1680 C1681 1.386 . S
C1680 C1682 1.383 . S
C1680 H1696 0.951 . S
C1681 C1680 1.386 . S
C1681 C1685 1.383 . S
C1682 C1680 1.383 . S
C1682 C1683 1.402 . S
C1682 H1697 0.951 . S
C1683 C1682 1.402 . S
C1683 C1684 1.375 . S
C1683 C1686 1.481 . S
C1684 C1683 1.375 . S
C1684 C1685 1.367 . S
C1684 H1698 0.951 . S
C1685 C1681 1.383 . S
C1685 C1684 1.367 . S
C1685 H1699 0.950 . S
C1686 C1683 1.481 . S
C1686 C1687 1.297 . S
C1686 H1700 0.950 . S
C1687 C1686 1.297 . S
C1687 C1688 1.479 . S
C1687 H1701 0.950 . S
C1688 C1687 1.479 . S
C1688 C1689 1.375 . S
C1688 C1694 1.404 . S
C1689 C1688 1.375 . S
C1689 C1690 1.369 . S
C1689 H1702 0.950 . S
C1690 C1689 1.369 . S
C1690 C1691 1.392 . S
C1690 H1703 0.951 . S
C1691 C1690 1.392 . S
C1691 C1693 1.384 . S
H1692 C1694 0.949 . S
C1693 C1691 1.384 . S
C1693 C1694 1.385 . S
C1693 H1695 0.950 . S
C1694 C1688 1.404 . S
C1694 H1692 0.949 . S
C1694 C1693 1.385 . S
H1695 C1693 0.950 . S
H1696 C1680 0.951 . S
H1697 C1682 0.951 . S
H1698 C1684 0.951 . S
H1699 C1685 0.950 . S
H1700 C1686 0.950 . S
H1701 C1687 0.950 . S
H1702 C1689 0.950 . S
H1703 C1690 0.951 . S
C1704 C1705 1.386 . S
C1704 C1706 1.383 . S
C1704 H1720 0.951 . S
C1705 C1704 1.386 . S
C1705 C1709 1.383 . S
C1706 C1704 1.383 . S
C1706 C1707 1.402 . S
C1706 H1721 0.951 . S
C1707 C1706 1.402 . S
C1707 C1708 1.375 . S
C1707 C1710 1.481 . S
C1708 C1707 1.375 . S
C1708 C1709 1.367 . S
C1708 H1722 0.951 . S
C1709 C1705 1.383 . S
C1709 C1708 1.367 . S
C1709 H1723 0.950 . S
C1710 C1707 1.481 . S
C1710 C1711 1.297 . S
C1710 H1724 0.950 . S
C1711 C1710 1.297 . S
C1711 C1712 1.479 . S
C1711 H1725 0.950 . S
C1712 C1711 1.479 . S
C1712 C1713 1.375 . S
C1712 C1718 1.404 . S
C1713 C1712 1.375 . S
C1713 C1714 1.369 . S
C1713 H1726 0.950 . S
C1714 C1713 1.369 . S
C1714 C1715 1.392 . S
C1714 H1727 0.951 . S
C1715 C1714 1.392 . S
C1715 C1717 1.384 . S
H1716 C1718 0.949 . S
C1717 C1715 1.384 . S
C1717 C1718 1.385 . S
C1717 H1719 0.950 . S
C1718 C1712 1.404 . S
C1718 H1716 0.949 . S
C1718 C1717 1.385 . S
H1719 C1717 0.950 . S
H1720 C1704 0.951 . S
H1721 C1706 0.951 . S
H1722 C1708 0.951 . S
H1723 C1709 0.950 . S
H1724 C1710 0.950 . S
H1725 C1711 0.950 . S
H1726 C1713 0.950 . S
H1727 C1714 0.951 . S
C1728 C1729 1.386 . S
C1728 C1730 1.383 . S
C1728 H1744 0.951 . S
C1729 C1728 1.386 . S
C1729 C1733 1.383 . S
C1730 C1728 1.383 . S
C1730 C1731 1.402 . S
C1730 H1745 0.951 . S
C1731 C1730 1.402 . S
C1731 C1732 1.375 . S
C1731 C1734 1.481 . S
C1732 C1731 1.375 . S
C1732 C1733 1.367 . S
C1732 H1746 0.951 . S
C1733 C1729 1.383 . S
C1733 C1732 1.367 . S
C1733 H1747 0.950 . S
C1734 C1731 1.481 . S
C1734 C1735 1.297 . S
C1734 H1748 0.950 . S
C1735 C1734 1.297 . S
C1735 C1736 1.479 . S
C1735 H1749 0.950 . S
C1736 C1735 1.479 . S
C1736 C1737 1.375 . S
C1736 C1742 1.404 . S
C1737 C1736 1.375 . S
C1737 C1738 1.369 . S
C1737 H1750 0.950 . S
C1738 C1737 1.369 . S
C1738 C1739 1.392 . S
C1738 H1751 0.951 . S
C1739 C1738 1.392 . S
C1739 C1741 1.384 . S
H1740 C1742 0.949 . S
C1741 C1739 1.384 . S
C1741 C1742 1.385 . S
C1741 H1743 0.950 . S
C1742 C1736 1.404 . S
C1742 H1740 0.949 . S
C1742 C1741 1.385 . S
H1743 C1741 0.950 . S
H1744 C1728 0.951 . S
H1745 C1730 0.951 . S
H1746 C1732 0.951 . S
H1747 C1733 0.950 . S
H1748 C1734 0.950 . S
H1749 C1735 0.950 . S
H1750 C1737 0.950 . S
H1751 C1738 0.951 . S
C1752 C1753 1.386 . S
C1752 C1754 1.383 . S
C1752 H1768 0.951 . S
C1753 C1752 1.386 . S
C1753 C1757 1.383 . S
C1754 C1752 1.383 . S
C1754 C1755 1.402 . S
C1754 H1769 0.951 . S
C1755 C1754 1.402 . S
C1755 C1756 1.375 . S
C1755 C1758 1.481 . S
C1756 C1755 1.375 . S
C1756 C1757 1.367 . S
C1756 H1770 0.951 . S
C1757 C1753 1.383 . S
C1757 C1756 1.367 . S
C1757 H1771 0.950 . S
C1758 C1755 1.481 . S
C1758 C1759 1.297 . S
C1758 H1772 0.950 . S
C1759 C1758 1.297 . S
C1759 C1760 1.479 . S
C1759 H1773 0.950 . S
C1760 C1759 1.479 . S
C1760 C1761 1.375 . S
C1760 C1766 1.404 . S
C1761 C1760 1.375 . S
C1761 C1762 1.369 . S
C1761 H1774 0.950 . S
C1762 C1761 1.369 . S
C1762 C1763 1.392 . S
C1762 H1775 0.951 . S
C1763 C1762 1.392 . S
C1763 C1765 1.384 . S
H1764 C1766 0.949 . S
C1765 C1763 1.384 . S
C1765 C1766 1.385 . S
C1765 H1767 0.950 . S
C1766 C1760 1.404 . S
C1766 H1764 0.949 . S
C1766 C1765 1.385 . S
H1767 C1765 0.950 . S
H1768 C1752 0.951 . S
H1769 C1754 0.951 . S
H1770 C1756 0.951 . S
H1771 C1757 0.950 . S
H1772 C1758 0.950 . S
H1773 C1759 0.950 . S
H1774 C1761 0.950 . S
H1775 C1762 0.951 . S
C1776 C1777 1.386 . S
C1776 C1778 1.383 . S
C1776 H1792 0.951 . S
C1777 C1776 1.386 . S
C1777 C1781 1.383 . S
C1778 C1776 1.383 . S
C1778 C1779 1.402 . S
C1778 H1793 0.951 . S
C1779 C1778 1.402 . S
C1779 C1780 1.375 . S
C1779 C1782 1.481 . S
C1780 C1779 1.375 . S
C1780 C1781 1.367 . S
C1780 H1794 0.951 . S
C1781 C1777 1.383 . S
C1781 C1780 1.367 . S
C1781 H1795 0.950 . S
C1782 C1779 1.481 . S
C1782 C1783 1.297 . S
C1782 H1796 0.950 . S
C1783 C1782 1.297 . S
C1783 C1784 1.479 . S
C1783 H1797 0.950 . S
C1784 C1783 1.479 . S
C1784 C1785 1.375 . S
C1784 C1790 1.404 . S
C1785 C1784 1.375 . S
C1785 C1786 1.369 . S
C1785 H1798 0.950 . S
C1786 C1785 1.369 . S
C1786 C1787 1.392 . S
C1786 H1799 0.951 . S
C1787 C1786 1.392 . S
C1787 C1789 1.384 . S
H1788 C1790 0.949 . S
C1789 C1787 1.384 . S
C1789 C1790 1.385 . S
C1789 H1791 0.950 . S
C1790 C1784 1.404 . S
C1790 H1788 0.949 . S
C1790 C1789 1.385 . S
H1791 C1789 0.950 . S
H1792 C1776 0.951 . S
H1793 C1778 0.951 . S
H1794 C1780 0.951 . S
H1795 C1781 0.950 . S
H1796 C1782 0.950 . S
H1797 C1783 0.950 . S
H1798 C1785 0.950 . S
H1799 C1786 0.951 . S
C1800 C1801 1.386 . S
C1800 C1802 1.383 . S
C1800 H1816 0.951 . S
C1801 C1800 1.386 . S
C1801 C1805 1.383 . S
C1802 C1800 1.383 . S
C1802 C1803 1.402 . S
C1802 H1817 0.951 . S
C1803 C1802 1.402 . S
C1803 C1804 1.375 . S
C1803 C1806 1.481 . S
C1804 C1803 1.375 . S
C1804 C1805 1.367 . S
C1804 H1818 0.951 . S
C1805 C1801 1.383 . S
C1805 C1804 1.367 . S
C1805 H1819 0.950 . S
C1806 C1803 1.481 . S
C1806 C1807 1.297 . S
C1806 H1820 0.950 . S
C1807 C1806 1.297 . S
C1807 C1808 1.479 . S
C1807 H1821 0.950 . S
C1808 C1807 1.479 . S
C1808 C1809 1.375 . S
C1808 C1814 1.404 . S
C1809 C1808 1.375 . S
C1809 C1810 1.369 . S
C1809 H1822 0.950 . S
C1810 C1809 1.369 . S
C1810 C1811 1.392 . S
C1810 H1823 0.951 . S
C1811 C1810 1.392 . S
C1811 C1813 1.384 . S
H1812 C1814 0.949 . S
C1813 C1811 1.384 . S
C1813 C1814 1.385 . S
C1813 H1815 0.950 . S
C1814 C1808 1.404 . S
C1814 H1812 0.949 . S
C1814 C1813 1.385 . S
H1815 C1813 0.950 . S
H1816 C1800 0.951 . S
H1817 C1802 0.951 . S
H1818 C1804 0.951 . S
H1819 C1805 0.950 . S
H1820 C1806 0.950 . S
H1821 C1807 0.950 . S
H1822 C1809 0.950 . S
H1823 C1810 0.951 . S
C1824 C1825 1.386 . S
C1824 C1826 1.383 . S
C1824 H1840 0.951 . S
C1825 C1824 1.386 . S
C1825 C1829 1.383 . S
C1826 C1824 1.383 . S
C1826 C1827 1.402 . S
C1826 H1841 0.951 . S
C1827 C1826 1.402 . S
C1827 C1828 1.375 . S
C1827 C1830 1.481 . S
C1828 C1827 1.375 . S
C1828 C1829 1.367 . S
C1828 H1842 0.951 . S
C1829 C1825 1.383 . S
C1829 C1828 1.367 . S
C1829 H1843 0.950 . S
C1830 C1827 1.481 . S
C1830 C1831 1.297 . S
C1830 H1844 0.950 . S
C1831 C1830 1.297 . S
C1831 C1832 1.479 . S
C1831 H1845 0.950 . S
C1832 C1831 1.479 . S
C1832 C1833 1.375 . S
C1832 C1838 1.404 . S
C1833 C1832 1.375 . S
C1833 C1834 1.369 . S
C1833 H1846 0.950 . S
C1834 C1833 1.369 . S
C1834 C1835 1.392 . S
C1834 H1847 0.951 . S
C1835 C1834 1.392 . S
C1835 C1837 1.384 . S
H1836 C1838 0.949 . S
C1837 C1835 1.384 . S
C1837 C1838 1.385 . S
C1837 H1839 0.950 . S
C1838 C1832 1.404 . S
C1838 H1836 0.949 . S
C1838 C1837 1.385 . S
H1839 C1837 0.950 . S
H1840 C1824 0.951 . S
H1841 C1826 0.951 . S
H1842 C1828 0.951 . S
H1843 C1829 0.950 . S
H1844 C1830 0.950 . S
H1845 C1831 0.950 . S
H1846 C1833 0.950 . S
H1847 C1834 0.951 . S
C1848 C1849 1.386 . S
C1848 C1850 1.383 . S
C1848 H1864 0.951 . S
C1849 C1848 1.386 . S
C1849 C1853 1.383 . S
C1850 C1848 1.383 . S
C1850 C1851 1.402 . S
C1850 H1865 0.951 . S
C1851 C1850 1.402 . S
C1851 C1852 1.375 . S
C1851 C1854 1.481 . S
C1852 C1851 1.375 . S
C1852 C1853 1.367 . S
C1852 H1866 0.951 . S
C1853 C1849 1.383 . S
C1853 C1852 1.367 . S
C1853 H1867 0.950 . S
C1854 C1851 1.481 . S
C1854 C1855 1.297 . S
C1854 H1868 0.950 . S
C1855 C1854 1.297 . S
C1855 C1856 1.479 . S
C1855 H1869 0.950 . S
C1856 C1855 1.479 . S
C1856 C1857 1.375 . S
C1856 C1862 1.404 . S
C1857 C1856 1.375 . S
C1857 C1858 1.369 . S
C1857 H1870 0.950 . S
C1858 C1857 1.369 . S
C1858 C1859 1.392 . S
C1858 H1871 0.951 . S
C1859 C1858 1.392 . S
C1859 C1861 1.384 . S
H1860 C1862 0.949 . S
C1861 C1859 1.384 . S
C1861 C1862 1.385 . S
C1861 H1863 0.950 . S
C1862 C1856 1.404 . S
C1862 H1860 0.949 . S
C1862 C1861 1.385 . S
H1863 C1861 0.950 . S
H1864 C1848 0.951 . S
H1865 C1850 0.951 . S
H1866 C1852 0.951 . S
H1867 C1853 0.950 . S
H1868 C1854 0.950 . S
H1869 C1855 0.950 . S
H1870 C1857 0.950 . S
H1871 C1858 0.951 . S
C1872 C1873 1.386 . S
C1872 C1874 1.383 . S
C1872 H1888 0.951 . S
C1873 C1872 1.386 . S
C1873 C1877 1.383 . S
C1874 C1872 1.383 . S
C1874 C1875 1.402 . S
C1874 H1889 0.951 . S
C1875 C1874 1.402 . S
C1875 C1876 1.375 . S
C1875 C1878 1.481 . S
C1876 C1875 1.375 . S
C1876 C1877 1.367 . S
C1876 H1890 0.951 . S
C1877 C1873 1.383 . S
C1877 C1876 1.367 . S
C1877 H1891 0.950 . S
C1878 C1875 1.481 . S
C1878 C1879 1.297 . S
C1878 H1892 0.950 . S
C1879 C1878 1.297 . S
C1879 C1880 1.479 . S
C1879 H1893 0.950 . S
C1880 C1879 1.479 . S
C1880 C1881 1.375 . S
C1880 C1886 1.404 . S
C1881 C1880 1.375 . S
C1881 C1882 1.369 . S
C1881 H1894 0.950 . S
C1882 C1881 1.369 . S
C1882 C1883 1.392 . S
C1882 H1895 0.951 . S
C1883 C1882 1.392 . S
C1883 C1885 1.384 . S
H1884 C1886 0.949 . S
C1885 C1883 1.384 . S
C1885 C1886 1.385 . S
C1885 H1887 0.950 . S
C1886 C1880 1.404 . S
C1886 H1884 0.949 . S
C1886 C1885 1.385 . S
H1887 C1885 0.950 . S
H1888 C1872 0.951 . S
H1889 C1874 0.951 . S
H1890 C1876 0.951 . S
H1891 C1877 0.950 . S
H1892 C1878 0.950 . S
H1893 C1879 0.950 . S
H1894 C1881 0.950 . S
H1895 C1882 0.951 . S
C1896 C1897 1.386 . S
C1896 C1898 1.383 . S
C1896 H1912 0.951 . S
C1897 C1896 1.386 . S
C1897 C1901 1.383 . S
C1898 C1896 1.383 . S
C1898 C1899 1.402 . S
C1898 H1913 0.951 . S
C1899 C1898 1.402 . S
C1899 C1900 1.375 . S
C1899 C1902 1.481 . S
C1900 C1899 1.375 . S
C1900 C1901 1.367 . S
C1900 H1914 0.951 . S
C1901 C1897 1.383 . S
C1901 C1900 1.367 . S
C1901 H1915 0.950 . S
C1902 C1899 1.481 . S
C1902 C1903 1.297 . S
C1902 H1916 0.950 . S
C1903 C1902 1.297 . S
C1903 C1904 1.479 . S
C1903 H1917 0.950 . S
C1904 C1903 1.479 . S
C1904 C1905 1.375 . S
C1904 C1910 1.404 . S
C1905 C1904 1.375 . S
C1905 C1906 1.369 . S
C1905 H1918 0.950 . S
C1906 C1905 1.369 . S
C1906 C1907 1.392 . S
C1906 H1919 0.951 . S
C1907 C1906 1.392 . S
C1907 C1909 1.384 . S
H1908 C1910 0.949 . S
C1909 C1907 1.384 . S
C1909 C1910 1.385 . S
C1909 H1911 0.950 . S
C1910 C1904 1.404 . S
C1910 H1908 0.949 . S
C1910 C1909 1.385 . S
H1911 C1909 0.950 . S
H1912 C1896 0.951 . S
H1913 C1898 0.951 . S
H1914 C1900 0.951 . S
H1915 C1901 0.950 . S
H1916 C1902 0.950 . S
H1917 C1903 0.950 . S
H1918 C1905 0.950 . S
H1919 C1906 0.951 . S
C1920 C1921 1.386 . S
C1920 C1922 1.383 . S
C1920 H1936 0.951 . S
C1921 C1920 1.386 . S
C1921 C1925 1.383 . S
C1922 C1920 1.383 . S
C1922 C1923 1.402 . S
C1922 H1937 0.951 . S
C1923 C1922 1.402 . S
C1923 C1924 1.375 . S
C1923 C1926 1.481 . S
C1924 C1923 1.375 . S
C1924 C1925 1.367 . S
C1924 H1938 0.951 . S
C1925 C1921 1.383 . S
C1925 C1924 1.367 . S
C1925 H1939 0.950 . S
C1926 C1923 1.481 . S
C1926 C1927 1.297 . S
C1926 H1940 0.950 . S
C1927 C1926 1.297 . S
C1927 C1928 1.479 . S
C1927 H1941 0.950 . S
C1928 C1927 1.479 . S
C1928 C1929 1.375 . S
C1928 C1934 1.404 . S
C1929 C1928 1.375 . S
C1929 C1930 1.369 . S
C1929 H1942 0.950 . S
C1930 C1929 1.369 . S
C1930 C1931 1.392 . S
C1930 H1943 0.951 . S
C1931 C1930 1.392 . S
C1931 C1933 1.384 . S
H1932 C1934 0.949 . S
C1933 C1931 1.384 . S
C1933 C1934 1.385 . S
C1933 H1935 0.950 . S
C1934 C1928 1.404 . S
C1934 H1932 0.949 . S
C1934 C1933 1.385 . S
H1935 C1933 0.950 . S
H1936 C1920 0.951 . S
H1937 C1922 0.951 . S
H1938 C1924 0.951 . S
H1939 C1925 0.950 . S
H1940 C1926 0.950 . S
H1941 C1927 0.950 . S
H1942 C1929 0.950 . S
H1943 C1930 0.951 . S
C1944 C1945 1.386 . S
C1944 C1946 1.383 . S
C1944 H1960 0.951 . S
C1945 C1944 1.386 . S
C1945 C1949 1.383 . S
C1946 C1944 1.383 . S
C1946 C1947 1.402 . S
C1946 H1961 0.951 . S
C1947 C1946 1.402 . S
C1947 C1948 1.375 . S
C1947 C1950 1.481 . S
C1948 C1947 1.375 . S
C1948 C1949 1.367 . S
C1948 H1962 0.951 . S
C1949 C1945 1.383 . S
C1949 C1948 1.367 . S
C1949 H1963 0.950 . S
C1950 C1947 1.481 . S
C1950 C1951 1.297 . S
C1950 H1964 0.950 . S
C1951 C1950 1.297 . S
C1951 C1952 1.479 . S
C1951 H1965 0.950 . S
C1952 C1951 1.479 . S
C1952 C1953 1.375 . S
C1952 C1958 1.404 . S
C1953 C1952 1.375 . S
C1953 C1954 1.369 . S
C1953 H1966 0.950 . S
C1954 C1953 1.369 . S
C1954 C1955 1.392 . S
C1954 H1967 0.951 . S
C1955 C1954 1.392 . S
C1955 C1957 1.384 . S
H1956 C1958 0.949 . S
C1957 C1955 1.384 . S
C1957 C1958 1.385 . S
C1957 H1959 0.950 . S
C1958 C1952 1.404 . S
C1958 H1956 0.949 . S
C1958 C1957 1.385 . S
H1959 C1957 0.950 . S
H1960 C1944 0.951 . S
H1961 C1946 0.951 . S
H1962 C1948 0.951 . S
H1963 C1949 0.950 . S
H1964 C1950 0.950 . S
H1965 C1951 0.950 . S
H1966 C1953 0.950 . S
H1967 C1954 0.951 . S
C1968 C1969 1.386 . S
C1968 C1970 1.383 . S
C1968 H1984 0.951 . S
C1969 C1968 1.386 . S
C1969 C1973 1.383 . S
C1970 C1968 1.383 . S
C1970 C1971 1.402 . S
C1970 H1985 0.951 . S
C1971 C1970 1.402 . S
C1971 C1972 1.375 . S
C1971 C1974 1.481 . S
C1972 C1971 1.375 . S
C1972 C1973 1.367 . S
C1972 H1986 0.951 . S
C1973 C1969 1.383 . S
C1973 C1972 1.367 . S
C1973 H1987 0.950 . S
C1974 C1971 1.481 . S
C1974 C1975 1.297 . S
C1974 H1988 0.950 . S
C1975 C1974 1.297 . S
C1975 C1976 1.479 . S
C1975 H1989 0.950 . S
C1976 C1975 1.479 . S
C1976 C1977 1.375 . S
C1976 C1982 1.404 . S
C1977 C1976 1.375 . S
C1977 C1978 1.369 . S
C1977 H1990 0.950 . S
C1978 C1977 1.369 . S
C1978 C1979 1.392 . S
C1978 H1991 0.951 . S
C1979 C1978 1.392 . S
C1979 C1981 1.384 . S
H1980 C1982 0.949 . S
C1981 C1979 1.384 . S
C1981 C1982 1.385 . S
C1981 H1983 0.950 . S
C1982 C1976 1.404 . S
C1982 H1980 0.949 . S
C1982 C1981 1.385 . S
H1983 C1981 0.950 . S
H1984 C1968 0.951 . S
H1985 C1970 0.951 . S
H1986 C1972 0.951 . S
H1987 C1973 0.950 . S
H1988 C1974 0.950 . S
H1989 C1975 0.950 . S
H1990 C1977 0.950 . S
H1991 C1978 0.951 . S
C1992 C1993 1.386 . S
C1992 C1994 1.383 . S
C1992 H2008 0.951 . S
C1993 C1992 1.386 . S
C1993 C1997 1.383 . S
C1994 C1992 1.383 . S
C1994 C1995 1.402 . S
C1994 H2009 0.951 . S
C1995 C1994 1.402 . S
C1995 C1996 1.375 . S
C1995 C1998 1.481 . S
C1996 C1995 1.375 . S
C1996 C1997 1.367 . S
C1996 H2010 0.951 . S
C1997 C1993 1.383 . S
C1997 C1996 1.367 . S
C1997 H2011 0.950 . S
C1998 C1995 1.481 . S
C1998 C1999 1.297 . S
C1998 H2012 0.950 . S
C1999 C1998 1.297 . S
C1999 C2000 1.479 . S
C1999 H2013 0.950 . S
C2000 C1999 1.479 . S
C2000 C2001 1.375 . S
C2000 C2006 1.404 . S
C2001 C2000 1.375 . S
C2001 C2002 1.369 . S
C2001 H2014 0.950 . S
C2002 C2001 1.369 . S
C2002 C2003 1.392 . S
C2002 H2015 0.951 . S
C2003 C2002 1.392 . S
C2003 C2005 1.384 . S
H2004 C2006 0.949 . S
C2005 C2003 1.384 . S
C2005 C2006 1.385 . S
C2005 H2007 0.950 . S
C2006 C2000 1.404 . S
C2006 H2004 0.949 . S
C2006 C2005 1.385 . S
H2007 C2005 0.950 . S
H2008 C1992 0.951 . S
H2009 C1994 0.951 . S
H2010 C1996 0.951 . S
H2011 C1997 0.950 . S
H2012 C1998 0.950 . S
H2013 C1999 0.950 . S
H2014 C2001 0.950 . S
H2015 C2002 0.951 . S
C865 C3 1.491 . S
C875 C255 1.479 . S
C889 C291 1.496 . S
C899 C39 1.492 . S
C913 C75 1.491 . S
C923 C327 1.482 . S
C937 C111 1.494 . S
C947 C363 1.491 . S
C961 C399 1.491 . S
C971 C147 1.479 . S
C985 C183 1.500 . S
C995 C219 1.488 . S
C1009 C435 1.500 . S
C1019 C687 1.480 . S
C1033 C471 1.503 . S
C1043 C723 1.479 . S
C1057 C759 1.491 . S
C1067 C507 1.497 . S
C1081 C543 1.503 . S
C1091 C795 1.483 . S
C1105 C579 1.491 . S
C1115 C831 1.499 . S
C1129 C651 1.503 . S
C1139 C615 1.482 . S
C1153 C4 1.330 . S
C1163 C292 1.332 . S
C1177 C328 1.310 . S
C1187 C40 1.314 . S
C1201 C364 1.308 . S
C1211 C76 1.309 . S
C1225 C112 1.326 . S
C1235 C400 1.305 . S
C1249 C148 1.322 . S
C1259 C220 1.298 . S
C1273 C184 1.331 . S
C1283 C256 1.324 . S
C1297 C724 1.331 . S
C1307 C436 1.318 . S
C1321 C472 1.331 . S
C1331 C760 1.329 . S
C1345 C796 1.331 . S
C1355 C508 1.320 . S
C1369 C832 1.316 . S
C1379 C544 1.292 . S
C1393 C652 1.327 . S
C1403 C580 1.334 . S
C1417 C616 1.316 . S
C1427 C688 1.328 . S
C1441 C14 1.468 . S
C1451 C554 1.484 . S
C1465 C590 1.512 . S
C1475 C50 1.472 . S
C1489 C626 1.487 . S
C1499 C86 1.439 . S
C1513 C122 1.468 . S
C1523 C446 1.440 . S
C1537 C158 1.468 . S
C1547 C482 1.441 . S
C1561 C518 1.466 . S
C1571 C194 1.445 . S
C1585 C770 1.464 . S
C1595 C230 1.453 . S
C1609 C806 1.475 . S
C1619 C266 1.435 . S
C1633 C842 1.479 . S
C1643 C302 1.509 . S
C1657 C662 1.515 . S
C1667 C338 1.478 . S
C1681 C374 1.504 . S
C1691 C698 1.456 . S
C1705 C410 1.517 . S
C1715 C734 1.532 . S
C1729 C2 1.403 . S
C1739 C362 1.388 . S
C1753 C398 1.385 . S
C1763 C38 1.400 . S
C1777 C218 1.399 . S
C1787 C74 1.397 . S
C1801 C110 1.405 . S
C1811 C254 1.378 . S
C1825 C146 1.393 . S
C1835 C290 1.374 . S
C1849 C182 1.394 . S
C1859 C326 1.373 . S
C1873 C434 1.385 . S
C1883 C794 1.371 . S
C1897 C470 1.385 . S
C1907 C830 1.371 . S
C1921 C506 1.405 . S
C1931 C650 1.405 . S
C1945 C686 1.397 . S
C1955 C542 1.393 . S
C1969 C578 1.397 . S
C1979 C722 1.390 . S
C1993 C614 1.405 . S
C2003 C758 1.405 . S
