# Generated by pormake.
# Topology upb, (4)-cn, num edge types: 1
# Building blocks:
#     Node 0, Type 0, BuildingBlock: KUFVIS_clean_sbu_0, # of connection points: 4
#     Node 1, Type 0, BuildingBlock: KUFVIS_clean_sbu_0, # of connection points: 4
#     Node 2, Type 0, BuildingBlock: KUFVIS_clean_sbu_0, # of connection points: 4
#     Node 3, Type 0, BuildingBlock: KUFVIS_clean_sbu_0, # of connection points: 4
#     Node 4, Type 0, BuildingBlock: KUFVIS_clean_sbu_0, # of connection points: 4
#     Node 5, Type 0, BuildingBlock: KUFVIS_clean_sbu_0, # of connection points: 4
#     Node 6, Type 0, BuildingBlock: KUFVIS_clean_sbu_0, # of connection points: 4
#     Node 7, Type 0, BuildingBlock: KUFVIS_clean_sbu_0, # of connection points: 4
#     Node 8, Type 0, BuildingBlock: KUFVIS_clean_sbu_0, # of connection points: 4
#     Node 9, Type 0, BuildingBlock: KUFVIS_clean_sbu_0, # of connection points: 4
#     Node 10, Type 0, BuildingBlock: KUFVIS_clean_sbu_0, # of connection points: 4
#     Node 11, Type 0, BuildingBlock: KUFVIS_clean_sbu_0, # of connection points: 4
#     Node 12, Type 0, BuildingBlock: KUFVIS_clean_sbu_0, # of connection points: 4
#     Node 13, Type 0, BuildingBlock: KUFVIS_clean_sbu_0, # of connection points: 4
#     Node 14, Type 0, BuildingBlock: KUFVIS_clean_sbu_0, # of connection points: 4
#     Node 15, Type 0, BuildingBlock: KUFVIS_clean_sbu_0, # of connection points: 4
#     Edge 16, Type (0, 0), None
#     Edge 17, Type (0, 0), None
#     Edge 18, Type (0, 0), None
#     Edge 19, Type (0, 0), None
#     Edge 20, Type (0, 0), None
#     Edge 21, Type (0, 0), None
#     Edge 22, Type (0, 0), None
#     Edge 23, Type (0, 0), None
#     Edge 24, Type (0, 0), None
#     Edge 25, Type (0, 0), None
#     Edge 26, Type (0, 0), None
#     Edge 27, Type (0, 0), None
#     Edge 28, Type (0, 0), None
#     Edge 29, Type (0, 0), None
#     Edge 30, Type (0, 0), None
#     Edge 31, Type (0, 0), None
#     Edge 32, Type (0, 0), None
#     Edge 33, Type (0, 0), None
#     Edge 34, Type (0, 0), None
#     Edge 35, Type (0, 0), None
#     Edge 36, Type (0, 0), None
#     Edge 37, Type (0, 0), None
#     Edge 38, Type (0, 0), None
#     Edge 39, Type (0, 0), None
#     Edge 40, Type (0, 0), None
#     Edge 41, Type (0, 0), None
#     Edge 42, Type (0, 0), None
#     Edge 43, Type (0, 0), None
#     Edge 44, Type (0, 0), None
#     Edge 45, Type (0, 0), None
#     Edge 46, Type (0, 0), None
#     Edge 47, Type (0, 0), None
# Relax obj value: 0.206
# Max RMSD: 0.091
# Mean RMSD: 0.091
data_MOF--net-upb--node1-KUFVIS_clean_sbu_0--edge1-none
_symmetry_space_group_name_H-M    P1
_symmetry_Int_Tables_number       1
_symmetry_cell_setting            triclinic
loop_
_symmetry_equiv_pos_as_xyz
'x, y, z'
_cell_length_a     21.632545
_cell_length_b     21.628199
_cell_length_c     15.664645
_cell_angle_alpha  90.005132
_cell_angle_beta   89.999689
_cell_angle_gamma 90.009333
loop_
_atom_site_label
_atom_site_type_symbol
_atom_site_fract_x
_atom_site_fract_y
_atom_site_fract_z
_atom_type_partial_charge
Mn0 Mn 0.01257 0.16848 0.21841 0.0
Mn1 Mn 0.10479 0.17527 0.3716 0.0
C2 C 0.96536 0.20462 0.40032 0.0
C3 C 0.93971 0.14457 0.12058 0.0
C4 C 0.11709 0.27716 0.22027 0.0
O5 O 0.05854 0.07884 0.14702 0.0
O6 O 0.13183 0.05236 0.2526 0.0
C7 C 0.07482 0.08301 0.52691 0.0
N8 N 0.0869 0.14441 0.49681 0.0
C9 C 0.14683 0.17313 0.62511 0.0
C10 C 0.1502 0.10685 0.64872 0.0
C11 C 0.10978 0.0584 0.59465 0.0
C12 C 0.12036 0.18658 0.54363 0.0
H13 H 0.03233 0.05904 0.51045 0.0
C14 C 0.10516 0.04205 0.1763 0.0
O15 O 0.93928 0.19904 0.1529 0.0
O16 O -0.00446 0.12562 0.10602 0.0
N17 N 0.09758 0.25363 0.43825 0.0
C18 C 0.07091 0.30895 0.41344 0.0
C19 C 0.05385 0.35363 0.47367 0.0
C20 C 0.06141 0.34109 0.56012 0.0
C21 C 0.0897 0.28582 0.58413 0.0
C22 C 0.11025 0.24524 0.52085 0.0
H23 H 0.05632 0.31736 0.34877 0.0
O24 O 0.00903 0.20552 0.34631 0.0
O25 O 0.01149 0.20586 0.34508 0.0
O26 O 0.07003 0.2524 0.17778 0.0
O27 O 0.13573 0.25241 0.29122 0.0
C28 C 0.09289 0.26582 0.6689 0.0
C29 C 0.13244 0.21612 0.68981 0.0
H30 H 0.16103 0.10266 0.71477 0.0
H31 H 0.09364 0.01313 0.61527 0.0
H32 H 0.03124 0.39582 0.45351 0.0
H33 H 0.04439 0.37344 0.60741 0.0
H34 H 0.06933 0.2912 0.71859 0.0
H35 H 0.13959 0.20464 0.75644 0.0
Mn36 Mn 0.77178 0.01263 0.21831 0.0
Mn37 Mn 0.76495 0.10489 0.37142 0.0
C38 C 0.73561 0.96543 0.40018 0.0
C39 C 0.79577 0.93977 0.12048 0.0
C40 C 0.6631 0.1171 0.22009 0.0
O41 O 0.86137 0.05859 0.14687 0.0
O42 O 0.88785 0.13193 0.25246 0.0
C43 C 0.85713 0.07497 0.52679 0.0
N44 N 0.79576 0.08704 0.49665 0.0
C45 C 0.767 0.14699 0.62492 0.0
C46 C 0.83326 0.15039 0.64856 0.0
C47 C 0.88173 0.10996 0.59452 0.0
C48 C 0.75359 0.1205 0.54344 0.0
H49 H 0.8811 0.03248 0.51036 0.0
C50 C 0.89816 0.10523 0.17618 0.0
O51 O 0.7413 0.93931 0.15273 0.0
O52 O 0.81471 -0.00437 0.10597 0.0
N53 N 0.68658 0.09767 0.43803 0.0
C54 C 0.63127 0.07095 0.41319 0.0
C55 C 0.58659 0.05389 0.4734 0.0
C56 C 0.5991 0.06148 0.55985 0.0
C57 C 0.65435 0.08981 0.58388 0.0
C58 C 0.69494 0.11036 0.52062 0.0
H59 H 0.62289 0.05634 0.34853 0.0
O60 O 0.7347 0.00909 0.34616 0.0
O61 O 0.73436 0.01155 0.34493 0.0
O62 O 0.68786 0.07004 0.17761 0.0
O63 O 0.68784 0.13579 0.29102 0.0
C64 C 0.67433 0.09301 0.66866 0.0
C65 C 0.724 0.1326 0.68959 0.0
H66 H 0.83742 0.16122 0.71462 0.0
H67 H 0.92697 0.09384 0.61519 0.0
H68 H 0.54442 0.03125 0.45322 0.0
H69 H 0.56674 0.04445 0.60712 0.0
H70 H 0.64895 0.06943 0.71834 0.0
H71 H 0.73547 0.13976 0.75623 0.0
Mn72 Mn 0.92758 0.77181 0.21829 0.0
Mn73 Mn 0.83531 0.76501 0.37137 0.0
C74 C -0.02527 0.73562 0.40019 0.0
C75 C 0.00046 0.79577 0.12051 0.0
C76 C 0.82304 0.66314 0.22003 0.0
O77 O 0.8817 0.86143 0.14684 0.0
O78 O 0.80836 0.88794 0.25239 0.0
C79 C 0.8652 0.85723 0.52676 0.0
N80 N 0.85314 0.79584 0.49662 0.0
C81 C 0.79316 0.76709 0.62484 0.0
C82 C 0.78975 0.83336 0.64848 0.0
C83 C 0.8302 0.88183 0.59446 0.0
C84 C 0.81967 0.75366 0.54338 0.0
H85 H 0.9077 0.88121 0.51036 0.0
C86 C 0.83508 0.89823 0.17612 0.0
O87 O 0.00089 0.74129 0.15276 0.0
O88 O 0.94462 0.81472 0.10596 0.0
N89 N 0.84248 0.68663 0.43798 0.0
C90 C 0.86916 0.63131 0.41315 0.0
C91 C 0.8862 0.58662 0.47336 0.0
C92 C 0.87861 0.59915 0.55982 0.0
C93 C 0.85031 0.65441 0.58384 0.0
C94 C 0.82979 0.69501 0.52057 0.0
H95 H 0.88377 0.62291 0.34849 0.0
O96 O 0.93108 0.73473 0.34616 0.0
O97 O 0.92862 0.73439 0.34492 0.0
O98 O 0.87012 0.68789 0.17758 0.0
O99 O 0.80438 0.68789 0.29097 0.0
C100 C 0.84711 0.67441 0.66861 0.0
C101 C 0.80754 0.72409 0.68953 0.0
H102 H 0.77891 0.83753 0.71453 0.0
H103 H 0.84632 0.9271 0.61513 0.0
H104 H 0.90881 0.54443 0.4532 0.0
H105 H 0.89562 0.56678 0.6071 0.0
H106 H 0.87068 0.64903 0.7183 0.0
H107 H 0.80037 0.73556 0.75616 0.0
Mn108 Mn 0.16834 0.92768 0.21844 0.0
Mn109 Mn 0.17515 0.83537 0.37148 0.0
C110 C 0.20445 -0.02517 0.40036 0.0
C111 C 0.1445 0.0005 0.1207 0.0
C112 C 0.27702 0.82318 0.22014 0.0
O113 O 0.07878 0.88174 0.14692 0.0
O114 O 0.05227 0.80837 0.25243 0.0
C115 C 0.08291 0.86523 0.52683 0.0
N116 N 0.1443 0.85318 0.49672 0.0
C117 C 0.17302 0.79319 0.62495 0.0
C118 C 0.10676 0.78978 0.64856 0.0
C119 C 0.05831 0.83022 0.59453 0.0
C120 C 0.18646 0.81971 0.5435 0.0
H121 H 0.05895 0.90773 0.51042 0.0
C122 C 0.04199 0.83509 0.17616 0.0
O123 O 0.19896 0.00101 0.15302 0.0
O124 O 0.1254 0.94471 0.10613 0.0
N125 N 0.25349 0.84257 0.43814 0.0
C126 C 0.3088 0.8693 0.41334 0.0
C127 C 0.35346 0.88637 0.47359 0.0
C128 C 0.34091 0.87878 0.56004 0.0
C129 C 0.28567 0.85042 0.58402 0.0
C130 C 0.24511 0.82986 0.52072 0.0
H131 H 0.31721 0.88391 0.34869 0.0
O132 O 0.2054 0.93118 0.34631 0.0
O133 O 0.20574 0.92872 0.34507 0.0
O134 O 0.25226 0.87026 0.17771 0.0
O135 O 0.25228 0.80449 0.29107 0.0
C136 C 0.26566 0.84719 0.66878 0.0
C137 C 0.216 0.80758 0.68966 0.0
H138 H 0.10257 0.77893 0.71461 0.0
H139 H 0.01305 0.84633 0.61518 0.0
H140 H 0.39563 0.90902 0.45345 0.0
H141 H 0.37325 0.89582 0.60734 0.0
H142 H 0.29102 0.87076 0.7185 0.0
H143 H 0.20451 0.80039 0.75629 0.0
Mn144 Mn 0.01249 0.77176 0.68103 0.0
Mn145 Mn 0.10475 0.76493 0.52799 0.0
C146 C 0.96531 0.73527 0.49922 0.0
C147 C 0.93963 0.79581 0.77884 0.0
C148 C 0.11697 0.66308 0.67937 0.0
O149 O 0.05836 0.86136 0.75255 0.0
O150 O 0.1317 0.88786 0.64703 0.0
C151 C 0.07488 0.85719 0.37263 0.0
N152 N 0.08695 0.7958 0.40275 0.0
C153 C 0.14694 0.76708 0.2745 0.0
C154 C 0.15034 0.83336 0.2509 0.0
C155 C 0.10988 0.8818 0.30492 0.0
C156 C 0.12042 0.75363 0.35596 0.0
H157 H 0.03239 0.88115 0.38904 0.0
C158 C 0.10499 0.89816 0.7233 0.0
O159 O 0.93916 0.74132 0.7466 0.0
O160 O -0.00451 0.81475 0.79333 0.0
N161 N 0.09757 0.68658 0.46131 0.0
C162 C 0.0709 0.63124 0.4861 0.0
C163 C 0.05382 0.58658 0.42585 0.0
C164 C 0.06139 0.59914 0.3394 0.0
C165 C 0.08971 0.6544 0.31542 0.0
C166 C 0.11026 0.69498 0.37872 0.0
H167 H 0.05633 0.6228 0.55077 0.0
O168 O 0.009 0.7346 0.55317 0.0
O169 O 0.01142 0.73427 0.5545 0.0
O170 O 0.0699 0.68784 0.72182 0.0
O171 O 0.13564 0.68782 0.60843 0.0
C172 C 0.09296 0.67441 0.23066 0.0
C173 C 0.13256 0.72409 0.20979 0.0
H174 H 0.1612 0.83755 0.18485 0.0
H175 H 0.09376 0.92707 0.28427 0.0
H176 H 0.0312 0.54438 0.44598 0.0
H177 H 0.04436 0.5668 0.2921 0.0
H178 H 0.0694 0.64904 0.18094 0.0
H179 H 0.13975 0.73558 0.14316 0.0
Mn180 Mn 0.16818 0.01255 0.68119 0.0
Mn181 Mn 0.17509 0.10485 0.52816 0.0
C182 C 0.20476 0.96539 0.49939 0.0
C183 C 0.14429 0.93973 0.77894 0.0
C184 C 0.27688 0.11704 0.67957 0.0
O185 O 0.07857 0.05847 0.75261 0.0
O186 O 0.05215 0.13182 0.64707 0.0
C187 C 0.08292 0.075 0.3727 0.0
N188 N 0.14429 0.08705 0.40288 0.0
C189 C 0.1731 0.14706 0.27469 0.0
C190 C 0.10685 0.15045 0.251 0.0
C191 C 0.05837 0.10998 0.30495 0.0
C192 C 0.18649 0.12054 0.35615 0.0
H193 H 0.05893 0.0325 0.38908 0.0
C194 C 0.04181 0.10511 0.72333 0.0
O195 O 0.19877 0.93925 0.74669 0.0
O196 O 0.12517 -0.00448 0.79346 0.0
N197 N 0.25347 0.09767 0.46158 0.0
C198 C 0.30878 0.07098 0.48641 0.0
C199 C 0.35347 0.05395 0.42621 0.0
C200 C 0.34097 0.06156 0.33976 0.0
C201 C 0.28574 0.08987 0.31573 0.0
C202 C 0.24512 0.11039 0.37899 0.0
H203 H 0.31716 0.05637 0.55107 0.0
O204 O 0.20537 0.00909 0.55336 0.0
O205 O 0.20569 0.01151 0.55468 0.0
O206 O 0.25208 0.06998 0.722 0.0
O207 O 0.25217 0.13574 0.60863 0.0
C208 C 0.26578 0.09311 0.23095 0.0
C209 C 0.21612 0.1327 0.21002 0.0
H210 H 0.10269 0.16132 0.18495 0.0
H211 H 0.01312 0.09387 0.28424 0.0
H212 H 0.39565 0.03133 0.44639 0.0
H213 H 0.37334 0.04456 0.29248 0.0
H214 H 0.29115 0.06954 0.18126 0.0
H215 H 0.20466 0.13988 0.14339 0.0
Mn216 Mn 0.92752 0.1684 0.68109 0.0
Mn217 Mn 0.8353 0.17526 0.52801 0.0
C218 C -0.02524 0.20495 0.49935 0.0
C219 C 0.00023 0.14444 0.77892 0.0
C220 C 0.82302 0.27708 0.6794 0.0
O221 O 0.88162 0.07879 0.75254 0.0
O222 O 0.80831 0.05231 0.64695 0.0
C223 C 0.86521 0.08306 0.37259 0.0
N224 N 0.85314 0.14444 0.40276 0.0
C225 C 0.79318 0.1732 0.27451 0.0
C226 C 0.78979 0.10693 0.25085 0.0
C227 C 0.83023 0.05847 0.30484 0.0
C228 C 0.81968 0.18663 0.35599 0.0
H229 H 0.9077 0.05909 0.38901 0.0
C230 C 0.835 0.042 0.72324 0.0
O231 O 0.00079 0.19893 0.7467 0.0
O232 O 0.94443 0.12533 0.79336 0.0
N233 N 0.8425 0.25365 0.4614 0.0
C234 C 0.86917 0.30898 0.48625 0.0
C235 C 0.88623 0.35368 0.42604 0.0
C236 C 0.87867 0.34115 0.33959 0.0
C237 C 0.85037 0.28588 0.31555 0.0
C238 C 0.82983 0.24528 0.37881 0.0
H239 H 0.88374 0.31739 0.55092 0.0
O240 O 0.93104 0.2056 0.55328 0.0
O241 O 0.92862 0.20593 0.5546 0.0
O242 O 0.87007 0.25231 0.72187 0.0
O243 O 0.80437 0.25236 0.60843 0.0
C244 C 0.84715 0.2659 0.23077 0.0
C245 C 0.80757 0.21621 0.20984 0.0
H246 H 0.77893 0.10276 0.1848 0.0
H247 H 0.84636 0.01321 0.28416 0.0
H248 H 0.90884 0.39587 0.44623 0.0
H249 H 0.89568 0.37352 0.29232 0.0
H250 H 0.87072 0.29129 0.18109 0.0
H251 H 0.80041 0.20474 0.1432 0.0
Mn252 Mn 0.77176 0.92765 0.68099 0.0
Mn253 Mn 0.76492 0.83538 0.52791 0.0
C254 C 0.73525 -0.02515 0.49922 0.0
C255 C 0.79567 0.00041 0.77882 0.0
C256 C 0.66308 0.82313 0.67929 0.0
O257 O 0.86131 0.88176 0.75252 0.0
O258 O 0.88782 0.80843 0.64694 0.0
C259 C 0.85718 0.86528 0.37255 0.0
N260 N 0.79579 0.85322 0.40268 0.0
C261 C 0.76704 0.79325 0.27441 0.0
C262 C 0.83331 0.78985 0.25079 0.0
C263 C 0.88177 0.83029 0.30481 0.0
C264 C 0.75361 0.81976 0.35588 0.0
H265 H 0.88116 0.90778 0.38898 0.0
C266 C 0.8981 0.83514 0.72323 0.0
O267 O 0.7412 0.00093 0.74655 0.0
O268 O 0.81478 0.94461 0.79327 0.0
N269 N 0.68657 0.84256 0.46125 0.0
C270 C 0.63125 0.86922 0.48607 0.0
C271 C 0.5866 0.88631 0.42583 0.0
C272 C 0.59916 0.87878 0.33938 0.0
C273 C 0.65441 0.85046 0.31537 0.0
C274 C 0.69497 0.8299 0.37866 0.0
H275 H 0.62281 0.88378 0.55074 0.0
O276 O 0.73459 0.93114 0.55315 0.0
O277 O 0.73427 0.92871 0.55447 0.0
O278 O 0.68785 0.8702 0.72175 0.0
O279 O 0.68781 0.80446 0.60834 0.0
C280 C 0.67441 0.84724 0.23061 0.0
C281 C 0.72406 0.80764 0.20971 0.0
H282 H 0.83749 0.77898 0.18474 0.0
H283 H 0.92703 0.8464 0.28415 0.0
H284 H 0.54441 0.90892 0.44599 0.0
H285 H 0.56682 0.89582 0.29209 0.0
H286 H 0.64905 0.87081 0.18091 0.0
H287 H 0.73555 0.80046 0.14308 0.0
Mn288 Mn 0.5125 0.6684 0.71826 0.0
Mn289 Mn 0.60477 0.67523 0.87139 0.0
C290 C 0.46535 0.7046 0.90018 0.0
C291 C 0.4396 0.64447 0.6205 0.0
C292 C 0.61701 0.77708 0.72002 0.0
O293 O 0.55844 0.57874 0.6469 0.0
O294 O 0.63177 0.55229 0.75245 0.0
C295 C 0.57486 0.58302 0.02677 0.0
N296 N 0.58693 0.64441 -0.00337 0.0
C297 C 0.64691 0.67318 0.12487 0.0
C298 C 0.65029 0.6069 0.14852 0.0
C299 C 0.60984 0.55843 0.0945 0.0
C300 C 0.62041 0.6866 0.0434 0.0
H301 H 0.53236 0.55904 0.01036 0.0
C302 C 0.60508 0.54196 0.67617 0.0
O303 O 0.43919 0.69894 0.65278 0.0
O304 O 0.49542 0.62552 0.60591 0.0
N305 N 0.59758 0.75361 0.93799 0.0
C306 C 0.57089 0.80893 0.91317 0.0
C307 C 0.55386 0.85363 -0.02662 0.0
C308 C 0.56146 0.84111 0.05983 0.0
C309 C 0.58976 0.78586 0.08386 0.0
C310 C 0.61028 0.74525 0.02059 0.0
H311 H 0.55627 0.81731 0.84851 0.0
O312 O 0.509 0.70547 0.84615 0.0
O313 O 0.51146 0.70581 0.84492 0.0
O314 O 0.56995 0.75232 0.67756 0.0
O315 O 0.63568 0.75235 0.79097 0.0
C316 C 0.59297 0.76588 0.16863 0.0
C317 C 0.63254 0.71619 0.18955 0.0
H318 H 0.66113 0.60274 0.21457 0.0
H319 H 0.59371 0.51317 0.11517 0.0
H320 H 0.53124 0.89581 -0.04678 0.0
H321 H 0.54445 0.87348 0.10711 0.0
H322 H 0.56941 0.79126 0.21832 0.0
H323 H 0.6397 0.70472 0.25618 0.0
Mn324 Mn 0.27171 0.51256 0.7184 0.0
Mn325 Mn 0.26491 0.60488 0.87147 0.0
C326 C 0.2356 0.46542 0.90033 0.0
C327 C 0.29567 0.43966 0.62062 0.0
C328 C 0.16303 0.61704 0.72013 0.0
O329 O 0.36128 0.5585 0.64689 0.0
O330 O 0.38779 0.63187 0.75242 0.0
C331 C 0.35715 0.575 0.0268 0.0
N332 N 0.29577 0.58706 -0.00331 0.0
C333 C 0.26705 0.64704 0.12495 0.0
C334 C 0.33332 0.65045 0.14855 0.0
C335 C 0.38177 0.61001 0.0945 0.0
C336 C 0.25361 0.62053 0.04349 0.0
H337 H 0.38111 0.5325 0.01038 0.0
C338 C 0.39807 0.60515 0.67615 0.0
O339 O 0.24121 0.43921 0.6529 0.0
O340 O 0.3146 0.49551 0.60606 0.0
N341 N 0.18657 0.59767 0.93813 0.0
C342 C 0.13126 0.57095 0.91333 0.0
C343 C 0.0866 0.55388 -0.02642 0.0
C344 C 0.09916 0.56146 0.06002 0.0
C345 C 0.1544 0.58982 0.08401 0.0
C346 C 0.19496 0.61038 0.02072 0.0
H347 H 0.12285 0.55634 0.84868 0.0
O348 O 0.23466 0.50906 0.84628 0.0
O349 O 0.23432 0.51152 0.84504 0.0
O350 O 0.18778 0.56996 0.67768 0.0
O351 O 0.18778 0.63575 0.79106 0.0
C352 C 0.17441 0.59305 0.16878 0.0
C353 C 0.22408 0.63266 0.18966 0.0
H354 H 0.3375 0.6613 0.2146 0.0
H355 H 0.42702 0.59389 0.11514 0.0
H356 H 0.04443 0.53123 -0.04656 0.0
H357 H 0.06682 0.54442 0.10732 0.0
H358 H 0.14905 0.56948 0.21849 0.0
H359 H 0.23556 0.63984 0.25628 0.0
Mn360 Mn 0.42751 0.27173 0.71844 0.0
Mn361 Mn 0.33528 0.26497 0.87159 0.0
C362 C 0.47471 0.2356 0.90032 0.0
C363 C 0.50035 0.29566 0.62059 0.0
C364 C 0.32298 0.16307 0.72029 0.0
O365 O 0.3816 0.36132 0.64697 0.0
O366 O 0.3083 0.38786 0.75255 0.0
C367 C 0.36524 0.35725 0.0269 0.0
N368 N 0.35317 0.29585 -0.0032 0.0
C369 C 0.29322 0.26714 0.12508 0.0
C370 C 0.28983 0.33342 0.14868 0.0
C371 C 0.33026 0.38187 0.09461 0.0
C372 C 0.31971 0.25368 0.04362 0.0
H373 H 0.40773 0.38122 0.01046 0.0
C374 C 0.335 0.39813 0.67626 0.0
O375 O 0.5008 0.24119 0.65288 0.0
O376 O 0.44451 0.3146 0.60607 0.0
N377 N 0.34248 0.18662 0.93824 0.0
C378 C 0.36915 0.13128 0.91343 0.0
C379 C 0.38621 0.08661 -0.02634 0.0
C380 C 0.37865 0.09917 0.06011 0.0
C381 C 0.35037 0.15444 0.08412 0.0
C382 C 0.32982 0.19502 0.02084 0.0
H383 H 0.38373 0.12286 0.84876 0.0
O384 O 0.43105 0.23468 0.84632 0.0
O385 O 0.42859 0.23434 0.84508 0.0
O386 O 0.37004 0.1878 0.67779 0.0
O387 O 0.30433 0.18783 0.79123 0.0
C388 C 0.34718 0.17447 0.16889 0.0
C389 C 0.30762 0.22416 0.18979 0.0
H390 H 0.279 0.33761 0.21473 0.0
H391 H 0.34639 0.42714 0.11525 0.0
H392 H 0.40881 0.04442 -0.04649 0.0
H393 H 0.39568 0.06683 0.1074 0.0
H394 H 0.37075 0.1491 0.21858 0.0
H395 H 0.30047 0.23566 0.25642 0.0
Mn396 Mn 0.66827 0.42762 0.71834 0.0
Mn397 Mn 0.67511 0.33535 0.87144 0.0
C398 C 0.70444 0.47482 0.90022 0.0
C399 C 0.64441 0.5004 0.62056 0.0
C400 C 0.77695 0.32313 0.72011 0.0
O401 O 0.57868 0.38165 0.6469 0.0
O402 O 0.55221 0.30831 0.75248 0.0
C403 C 0.58293 0.36525 0.02682 0.0
N404 N 0.6443 0.3532 -0.00332 0.0
C405 C 0.67307 0.29324 0.12492 0.0
C406 C 0.60681 0.28984 0.14857 0.0
C407 C 0.55835 0.33027 0.09456 0.0
C408 C 0.68648 0.31973 0.04345 0.0
H409 H 0.55896 0.40775 0.01041 0.0
C410 C 0.5419 0.33501 0.6762 0.0
O411 O 0.69887 0.50092 0.65285 0.0
O412 O 0.62531 0.4446 0.60603 0.0
N413 N 0.75348 0.34258 0.93804 0.0
C414 C 0.80879 0.3693 0.91321 0.0
C415 C 0.85347 0.38636 -0.02658 0.0
C416 C 0.84096 0.37876 0.05987 0.0
C417 C 0.78572 0.35043 0.0839 0.0
C418 C 0.74512 0.32988 0.02063 0.0
H419 H 0.81717 0.38392 0.84855 0.0
O420 O 0.70536 0.43116 0.84619 0.0
O421 O 0.7057 0.4287 0.84495 0.0
O422 O 0.75219 0.37018 0.67763 0.0
O423 O 0.75222 0.30445 0.79105 0.0
C424 C 0.76574 0.34722 0.16867 0.0
C425 C 0.71607 0.30763 0.1896 0.0
H426 H 0.60265 0.279 0.21463 0.0
H427 H 0.5131 0.34638 0.11523 0.0
H428 H 0.89564 0.409 -0.04675 0.0
H429 H 0.87332 0.39579 0.10715 0.0
H430 H 0.79112 0.3708 0.21836 0.0
H431 H 0.7046 0.30047 0.25623 0.0
Mn432 Mn 0.51256 0.27182 0.18112 0.0
Mn433 Mn 0.60477 0.26497 0.02801 0.0
C434 C 0.46532 0.23528 -0.00064 0.0
C435 C 0.43975 0.2959 0.27898 0.0
C436 C 0.61703 0.16315 0.17938 0.0
O437 O 0.55847 0.36144 0.25256 0.0
O438 O 0.63177 0.38792 0.14697 0.0
C439 C 0.57485 0.35718 0.87262 0.0
N440 N 0.58692 0.29579 0.90277 0.0
C441 C 0.64689 0.26704 0.77451 0.0
C442 C 0.65027 0.33331 0.75086 0.0
C443 C 0.60982 0.38177 0.80488 0.0
C444 C 0.62039 0.25361 0.85598 0.0
H445 H 0.53236 0.38114 0.88905 0.0
C446 C 0.60509 0.39823 0.22326 0.0
O447 O 0.43926 0.2414 0.24676 0.0
O448 O 0.49561 0.31484 0.29342 0.0
N449 N 0.59756 0.18659 -0.03862 0.0
C450 C 0.57089 0.13125 -0.01379 0.0
C451 C 0.55383 0.08656 0.92599 0.0
C452 C 0.5614 0.09909 0.83954 0.0
C453 C 0.5897 0.15436 0.81551 0.0
C454 C 0.61024 0.19496 0.87878 0.0
H455 H 0.55632 0.12284 0.05088 0.0
O456 O 0.50903 0.23464 0.05328 0.0
O457 O 0.51145 0.23431 0.0546 0.0
O458 O 0.56998 0.18791 0.22187 0.0
O459 O 0.63569 0.18787 0.10842 0.0
C460 C 0.59292 0.17434 0.73074 0.0
C461 C 0.6325 0.22403 0.70983 0.0
H462 H 0.66112 0.33748 0.68481 0.0
H463 H 0.5937 0.42702 0.78421 0.0
H464 H 0.53122 0.04437 0.94616 0.0
H465 H 0.54438 0.06672 0.79226 0.0
H466 H 0.56935 0.14895 0.68105 0.0
H467 H 0.63966 0.2355 0.64319 0.0
Mn468 Mn 0.66827 0.51261 0.18104 0.0
Mn469 Mn 0.67513 0.60487 0.02794 0.0
C470 C 0.70478 0.4654 -0.00075 0.0
C471 C 0.64441 0.43982 0.27884 0.0
C472 C 0.77696 0.6171 0.1793 0.0
O473 O 0.57868 0.55855 0.25248 0.0
O474 O 0.55223 0.63188 0.14692 0.0
C475 C 0.5829 0.57496 0.87256 0.0
N476 N 0.64429 0.58703 0.9027 0.0
C477 C 0.67304 0.647 0.77444 0.0
C478 C 0.60678 0.65038 0.7508 0.0
C479 C 0.55833 0.60993 0.8048 0.0
C480 C 0.68647 0.6205 0.85592 0.0
H481 H 0.55892 0.53247 0.88898 0.0
C482 C 0.54191 0.60519 0.2232 0.0
O483 O 0.69887 0.43932 0.24655 0.0
O484 O 0.62529 0.49562 0.29335 0.0
N485 N 0.75349 0.59767 -0.03869 0.0
C486 C 0.8088 0.571 -0.01388 0.0
C487 C 0.85348 0.55394 0.9259 0.0
C488 C 0.84094 0.56151 0.83945 0.0
C489 C 0.78569 0.58982 0.81544 0.0
C490 C 0.74511 0.61036 0.87871 0.0
H491 H 0.81722 0.55641 0.05079 0.0
O492 O 0.70542 0.50912 0.05319 0.0
O493 O 0.70575 0.51154 0.05451 0.0
O494 O 0.75218 0.57005 0.22178 0.0
O495 O 0.75224 0.63578 0.10836 0.0
C496 C 0.76571 0.59304 0.73067 0.0
C497 C 0.71604 0.63262 0.70976 0.0
H498 H 0.6026 0.66123 0.68475 0.0
H499 H 0.51307 0.59381 0.78413 0.0
H500 H 0.89566 0.53133 0.94606 0.0
H501 H 0.87329 0.54449 0.79216 0.0
H502 H 0.79108 0.56947 0.68097 0.0
H503 H 0.70457 0.63979 0.64312 0.0
Mn504 Mn 0.42759 0.66847 0.18101 0.0
Mn505 Mn 0.33532 0.6753 0.02798 0.0
C506 C 0.47477 0.70496 -0.00078 0.0
C507 C 0.50035 0.64453 0.2788 0.0
C508 C 0.32309 0.77714 0.17938 0.0
O509 O 0.38172 0.57888 0.25254 0.0
O510 O 0.30838 0.55237 0.14701 0.0
C511 C 0.36518 0.58305 0.8726 0.0
N512 N 0.35312 0.64444 0.90274 0.0
C513 C 0.29312 0.67316 0.77451 0.0
C514 C 0.28972 0.60688 0.75088 0.0
C515 C 0.33018 0.55843 0.80489 0.0
C516 C 0.31964 0.6866 0.85596 0.0
H517 H 0.40767 0.55908 0.889 0.0
C518 C 0.33509 0.54208 0.22328 0.0
O519 O 0.50089 0.69901 0.24654 0.0
O520 O 0.44456 0.62543 0.29328 0.0
N521 N 0.3425 0.75366 -0.03867 0.0
C522 C 0.36917 0.809 -0.01387 0.0
C523 C 0.38624 0.85366 0.92589 0.0
C524 C 0.37867 0.8411 0.83944 0.0
C525 C 0.35035 0.78584 0.81545 0.0
C526 C 0.32981 0.74526 0.87874 0.0
H527 H 0.38375 0.81743 0.0508 0.0
O528 O 0.43107 0.70564 0.05317 0.0
O529 O 0.42865 0.70597 0.0545 0.0
O530 O 0.37016 0.75238 0.22182 0.0
O531 O 0.30442 0.75241 0.10842 0.0
C532 C 0.34711 0.76583 0.73068 0.0
C533 C 0.3075 0.71615 0.7098 0.0
H534 H 0.27885 0.60269 0.68484 0.0
H535 H 0.3463 0.51317 0.78422 0.0
H536 H 0.40886 0.89586 0.94604 0.0
H537 H 0.3957 0.87345 0.79215 0.0
H538 H 0.37066 0.7912 0.68097 0.0
H539 H 0.30032 0.70466 0.64317 0.0
Mn540 Mn 0.27185 0.42771 0.18115 0.0
Mn541 Mn 0.26496 0.3354 0.02813 0.0
C542 C 0.23528 0.47486 -0.00064 0.0
C543 C 0.29579 0.50051 0.27891 0.0
C544 C 0.16317 0.3232 0.17953 0.0
O545 O 0.36142 0.38184 0.25265 0.0
O546 O 0.38789 0.30848 0.14709 0.0
C547 C 0.35716 0.36524 0.87269 0.0
N548 N 0.29578 0.3532 0.90286 0.0
C549 C 0.26699 0.29318 0.77465 0.0
C550 C 0.33325 0.28977 0.75099 0.0
C551 C 0.38172 0.33023 0.80496 0.0
C552 C 0.25359 0.31972 0.85611 0.0
H553 H 0.38115 0.40775 0.88908 0.0
C554 C 0.3982 0.33521 0.22336 0.0
O555 O 0.24131 0.50102 0.24669 0.0
O556 O 0.3149 0.44471 0.2934 0.0
N557 N 0.18659 0.34257 -0.03848 0.0
C558 C 0.13127 0.36924 -0.01365 0.0
C559 C 0.0866 0.3863 0.92614 0.0
C560 C 0.09913 0.37873 0.83969 0.0
C561 C 0.15436 0.3504 0.81566 0.0
C562 C 0.19496 0.32987 0.87893 0.0
H563 H 0.12287 0.38384 0.05102 0.0
O564 O 0.23465 0.43117 0.05332 0.0
O565 O 0.23432 0.42874 0.05465 0.0
O566 O 0.18795 0.37028 0.22198 0.0
O567 O 0.18788 0.3045 0.10859 0.0
C568 C 0.17434 0.34716 0.73089 0.0
C569 C 0.22399 0.30755 0.70998 0.0
H570 H 0.3374 0.27889 0.68495 0.0
H571 H 0.42698 0.34634 0.78426 0.0
H572 H 0.04442 0.40892 0.94631 0.0
H573 H 0.06677 0.39575 0.79241 0.0
H574 H 0.14897 0.37074 0.6812 0.0
H575 H 0.23545 0.30036 0.64334 0.0
loop_
_geom_bond_atom_site_label_1
_geom_bond_atom_site_label_2
_geom_bond_distance
_geom_bond_site_symmetry_2
_ccdc_geom_bond_type
Mn0 O5 2.095 . S
Mn0 O15 2.162 1_455 S
Mn0 O16 2.297 1_455 S
Mn0 O24 2.385 1_455 S
Mn0 O25 2.209 . S
Mn0 O26 2.094 . S
Mn1 O6 2.121 . S
Mn1 N8 2.257 . S
Mn1 N17 2.282 . S
Mn1 O25 2.215 . S
Mn1 O27 2.117 . S
C2 O24 1.234 . S
C2 O25 1.283 1_655 S
C3 O15 1.281 . S
C3 O16 1.236 . S
C4 O26 1.240 . S
C4 O27 1.264 . S
O5 Mn0 2.095 . S
O5 C14 1.250 . S
O6 Mn1 2.121 . S
O6 C14 1.258 . S
C7 N8 1.326 . S
C7 C11 1.460 . S
C7 H13 0.929 . S
N8 Mn1 2.257 . S
N8 C7 1.326 . S
N8 C12 1.362 . S
C9 C10 1.258 . S
C9 C12 1.431 . S
C9 C29 1.449 . S
C10 C9 1.258 . S
C10 C11 1.477 . S
C10 H30 0.931 . S
C11 C7 1.460 . S
C11 C10 1.477 . S
C11 H31 0.930 . S
C12 N8 1.362 . S
C12 C9 1.431 . S
C12 C22 1.476 . S
H13 C7 0.929 . S
C14 O5 1.250 . S
C14 O6 1.258 . S
O15 Mn0 2.162 1_655 S
O15 C3 1.281 . S
O16 Mn0 2.297 1_655 S
O16 C3 1.236 . S
N17 Mn1 2.282 . S
N17 C18 1.328 . S
N17 C22 1.318 . S
C18 N17 1.328 . S
C18 C19 1.457 . S
C18 H23 0.929 . S
C19 C18 1.457 . S
C19 C20 1.291 . S
C19 H32 0.931 . S
C20 C19 1.291 . S
C20 C21 1.373 . S
C20 H33 0.929 . S
C21 C20 1.373 . S
C21 C22 1.396 . S
C21 C28 1.403 . S
C22 C12 1.476 . S
C22 N17 1.318 . S
C22 C21 1.396 . S
H23 C18 0.929 . S
O24 Mn0 2.385 1_655 S
O24 C2 1.234 . S
O25 Mn0 2.209 . S
O25 Mn1 2.215 . S
O25 C2 1.283 1_455 S
O26 Mn0 2.094 . S
O26 C4 1.240 . S
O27 Mn1 2.117 . S
O27 C4 1.264 . S
C28 C21 1.403 . S
C28 C29 1.399 . S
C28 H34 0.929 . S
C29 C9 1.449 . S
C29 C28 1.399 . S
C29 H35 0.930 . S
H30 C10 0.931 . S
H31 C11 0.930 . S
H32 C19 0.931 . S
H33 C20 0.929 . S
H34 C28 0.929 . S
H35 C29 0.930 . S
Mn36 O41 2.095 . S
Mn36 O51 2.162 1_545 S
Mn36 O52 2.297 1_545 S
Mn36 O60 2.385 1_545 S
Mn36 O61 2.209 . S
Mn36 O62 2.094 . S
Mn37 O42 2.121 . S
Mn37 N44 2.257 . S
Mn37 N53 2.282 . S
Mn37 O61 2.215 . S
Mn37 O63 2.117 . S
C38 O60 1.234 . S
C38 O61 1.283 1_565 S
C39 O51 1.281 . S
C39 O52 1.236 . S
C40 O62 1.240 . S
C40 O63 1.264 . S
O41 Mn36 2.095 . S
O41 C50 1.250 . S
O42 Mn37 2.121 . S
O42 C50 1.258 . S
C43 N44 1.326 . S
C43 C47 1.460 . S
C43 H49 0.929 . S
N44 Mn37 2.257 . S
N44 C43 1.326 . S
N44 C48 1.362 . S
C45 C46 1.258 . S
C45 C48 1.431 . S
C45 C65 1.449 . S
C46 C45 1.258 . S
C46 C47 1.477 . S
C46 H66 0.931 . S
C47 C43 1.460 . S
C47 C46 1.477 . S
C47 H67 0.930 . S
C48 N44 1.362 . S
C48 C45 1.431 . S
C48 C58 1.476 . S
H49 C43 0.929 . S
C50 O41 1.250 . S
C50 O42 1.258 . S
O51 Mn36 2.162 1_565 S
O51 C39 1.281 . S
O52 Mn36 2.297 1_565 S
O52 C39 1.236 . S
N53 Mn37 2.282 . S
N53 C54 1.328 . S
N53 C58 1.318 . S
C54 N53 1.328 . S
C54 C55 1.457 . S
C54 H59 0.929 . S
C55 C54 1.457 . S
C55 C56 1.291 . S
C55 H68 0.931 . S
C56 C55 1.291 . S
C56 C57 1.373 . S
C56 H69 0.929 . S
C57 C56 1.373 . S
C57 C58 1.396 . S
C57 C64 1.403 . S
C58 C48 1.476 . S
C58 N53 1.318 . S
C58 C57 1.396 . S
H59 C54 0.929 . S
O60 Mn36 2.385 1_565 S
O60 C38 1.234 . S
O61 Mn36 2.209 . S
O61 Mn37 2.215 . S
O61 C38 1.283 1_545 S
O62 Mn36 2.094 . S
O62 C40 1.240 . S
O63 Mn37 2.117 . S
O63 C40 1.264 . S
C64 C57 1.403 . S
C64 C65 1.399 . S
C64 H70 0.929 . S
C65 C45 1.449 . S
C65 C64 1.399 . S
C65 H71 0.930 . S
H66 C46 0.931 . S
H67 C47 0.930 . S
H68 C55 0.931 . S
H69 C56 0.929 . S
H70 C64 0.929 . S
H71 C65 0.930 . S
Mn72 O77 2.095 . S
Mn72 O87 2.162 1_655 S
Mn72 O88 2.297 1_655 S
Mn72 O96 2.385 1_655 S
Mn72 O97 2.209 . S
Mn72 O98 2.094 . S
Mn73 O78 2.121 . S
Mn73 N80 2.257 . S
Mn73 N89 2.282 . S
Mn73 O97 2.215 . S
Mn73 O99 2.117 . S
C74 O96 1.234 . S
C74 O97 1.283 1_455 S
C75 O87 1.281 . S
C75 O88 1.236 . S
C76 O98 1.240 . S
C76 O99 1.264 . S
O77 Mn72 2.095 . S
O77 C86 1.250 . S
O78 Mn73 2.121 . S
O78 C86 1.258 . S
C79 N80 1.326 . S
C79 C83 1.460 . S
C79 H85 0.929 . S
N80 Mn73 2.257 . S
N80 C79 1.326 . S
N80 C84 1.362 . S
C81 C82 1.258 . S
C81 C84 1.431 . S
C81 C101 1.449 . S
C82 C81 1.258 . S
C82 C83 1.477 . S
C82 H102 0.931 . S
C83 C79 1.460 . S
C83 C82 1.477 . S
C83 H103 0.930 . S
C84 N80 1.362 . S
C84 C81 1.431 . S
C84 C94 1.476 . S
H85 C79 0.929 . S
C86 O77 1.250 . S
C86 O78 1.258 . S
O87 Mn72 2.162 1_455 S
O87 C75 1.281 . S
O88 Mn72 2.297 1_455 S
O88 C75 1.236 . S
N89 Mn73 2.282 . S
N89 C90 1.328 . S
N89 C94 1.318 . S
C90 N89 1.328 . S
C90 C91 1.457 . S
C90 H95 0.929 . S
C91 C90 1.457 . S
C91 C92 1.291 . S
C91 H104 0.931 . S
C92 C91 1.291 . S
C92 C93 1.373 . S
C92 H105 0.929 . S
C93 C92 1.373 . S
C93 C94 1.396 . S
C93 C100 1.403 . S
C94 C84 1.476 . S
C94 N89 1.318 . S
C94 C93 1.396 . S
H95 C90 0.929 . S
O96 Mn72 2.385 1_455 S
O96 C74 1.234 . S
O97 Mn72 2.209 . S
O97 Mn73 2.215 . S
O97 C74 1.283 1_655 S
O98 Mn72 2.094 . S
O98 C76 1.240 . S
O99 Mn73 2.117 . S
O99 C76 1.264 . S
C100 C93 1.403 . S
C100 C101 1.399 . S
C100 H106 0.929 . S
C101 C81 1.449 . S
C101 C100 1.399 . S
C101 H107 0.930 . S
H102 C82 0.931 . S
H103 C83 0.930 . S
H104 C91 0.931 . S
H105 C92 0.929 . S
H106 C100 0.929 . S
H107 C101 0.930 . S
Mn108 O113 2.095 . S
Mn108 O123 2.162 1_565 S
Mn108 O124 2.297 1_565 S
Mn108 O132 2.385 1_565 S
Mn108 O133 2.209 . S
Mn108 O134 2.094 . S
Mn109 O114 2.121 . S
Mn109 N116 2.257 . S
Mn109 N125 2.282 . S
Mn109 O133 2.215 . S
Mn109 O135 2.117 . S
C110 O132 1.234 . S
C110 O133 1.283 1_545 S
C111 O123 1.281 . S
C111 O124 1.236 . S
C112 O134 1.240 . S
C112 O135 1.264 . S
O113 Mn108 2.095 . S
O113 C122 1.250 . S
O114 Mn109 2.121 . S
O114 C122 1.258 . S
C115 N116 1.326 . S
C115 C119 1.460 . S
C115 H121 0.929 . S
N116 Mn109 2.257 . S
N116 C115 1.326 . S
N116 C120 1.362 . S
C117 C118 1.258 . S
C117 C120 1.431 . S
C117 C137 1.449 . S
C118 C117 1.258 . S
C118 C119 1.477 . S
C118 H138 0.931 . S
C119 C115 1.460 . S
C119 C118 1.477 . S
C119 H139 0.930 . S
C120 N116 1.362 . S
C120 C117 1.431 . S
C120 C130 1.476 . S
H121 C115 0.929 . S
C122 O113 1.250 . S
C122 O114 1.258 . S
O123 Mn108 2.162 1_545 S
O123 C111 1.281 . S
O124 Mn108 2.297 1_545 S
O124 C111 1.236 . S
N125 Mn109 2.282 . S
N125 C126 1.328 . S
N125 C130 1.318 . S
C126 N125 1.328 . S
C126 C127 1.457 . S
C126 H131 0.929 . S
C127 C126 1.457 . S
C127 C128 1.291 . S
C127 H140 0.931 . S
C128 C127 1.291 . S
C128 C129 1.373 . S
C128 H141 0.929 . S
C129 C128 1.373 . S
C129 C130 1.396 . S
C129 C136 1.403 . S
C130 C120 1.476 . S
C130 N125 1.318 . S
C130 C129 1.396 . S
H131 C126 0.929 . S
O132 Mn108 2.385 1_545 S
O132 C110 1.234 . S
O133 Mn108 2.209 . S
O133 Mn109 2.215 . S
O133 C110 1.283 1_565 S
O134 Mn108 2.094 . S
O134 C112 1.240 . S
O135 Mn109 2.117 . S
O135 C112 1.264 . S
C136 C129 1.403 . S
C136 C137 1.399 . S
C136 H142 0.929 . S
C137 C117 1.449 . S
C137 C136 1.399 . S
C137 H143 0.930 . S
H138 C118 0.931 . S
H139 C119 0.930 . S
H140 C127 0.931 . S
H141 C128 0.929 . S
H142 C136 0.929 . S
H143 C137 0.930 . S
Mn144 O149 2.095 . S
Mn144 O159 2.162 1_455 S
Mn144 O160 2.297 1_455 S
Mn144 O168 2.385 1_455 S
Mn144 O169 2.209 . S
Mn144 O170 2.094 . S
Mn145 O150 2.121 . S
Mn145 N152 2.257 . S
Mn145 N161 2.282 . S
Mn145 O169 2.215 . S
Mn145 O171 2.117 . S
C146 O168 1.234 . S
C146 O169 1.283 1_655 S
C147 O159 1.281 . S
C147 O160 1.236 . S
C148 O170 1.240 . S
C148 O171 1.264 . S
O149 Mn144 2.095 . S
O149 C158 1.250 . S
O150 Mn145 2.121 . S
O150 C158 1.258 . S
C151 N152 1.326 . S
C151 C155 1.460 . S
C151 H157 0.929 . S
N152 Mn145 2.257 . S
N152 C151 1.326 . S
N152 C156 1.362 . S
C153 C154 1.258 . S
C153 C156 1.431 . S
C153 C173 1.449 . S
C154 C153 1.258 . S
C154 C155 1.477 . S
C154 H174 0.931 . S
C155 C151 1.460 . S
C155 C154 1.477 . S
C155 H175 0.930 . S
C156 N152 1.362 . S
C156 C153 1.431 . S
C156 C166 1.476 . S
H157 C151 0.929 . S
C158 O149 1.250 . S
C158 O150 1.258 . S
O159 Mn144 2.162 1_655 S
O159 C147 1.281 . S
O160 Mn144 2.297 1_655 S
O160 C147 1.236 . S
N161 Mn145 2.282 . S
N161 C162 1.328 . S
N161 C166 1.318 . S
C162 N161 1.328 . S
C162 C163 1.457 . S
C162 H167 0.929 . S
C163 C162 1.457 . S
C163 C164 1.291 . S
C163 H176 0.931 . S
C164 C163 1.291 . S
C164 C165 1.373 . S
C164 H177 0.929 . S
C165 C164 1.373 . S
C165 C166 1.396 . S
C165 C172 1.403 . S
C166 C156 1.476 . S
C166 N161 1.318 . S
C166 C165 1.396 . S
H167 C162 0.929 . S
O168 Mn144 2.385 1_655 S
O168 C146 1.234 . S
O169 Mn144 2.209 . S
O169 Mn145 2.215 . S
O169 C146 1.283 1_455 S
O170 Mn144 2.094 . S
O170 C148 1.240 . S
O171 Mn145 2.117 . S
O171 C148 1.264 . S
C172 C165 1.403 . S
C172 C173 1.399 . S
C172 H178 0.929 . S
C173 C153 1.449 . S
C173 C172 1.399 . S
C173 H179 0.930 . S
H174 C154 0.931 . S
H175 C155 0.930 . S
H176 C163 0.931 . S
H177 C164 0.929 . S
H178 C172 0.929 . S
H179 C173 0.930 . S
Mn180 O185 2.095 . S
Mn180 O195 2.162 1_545 S
Mn180 O196 2.297 1_545 S
Mn180 O204 2.385 1_545 S
Mn180 O205 2.209 . S
Mn180 O206 2.094 . S
Mn181 O186 2.121 . S
Mn181 N188 2.257 . S
Mn181 N197 2.282 . S
Mn181 O205 2.215 . S
Mn181 O207 2.117 . S
C182 O204 1.234 . S
C182 O205 1.283 1_565 S
C183 O195 1.281 . S
C183 O196 1.236 . S
C184 O206 1.240 . S
C184 O207 1.264 . S
O185 Mn180 2.095 . S
O185 C194 1.250 . S
O186 Mn181 2.121 . S
O186 C194 1.258 . S
C187 N188 1.326 . S
C187 C191 1.460 . S
C187 H193 0.929 . S
N188 Mn181 2.257 . S
N188 C187 1.326 . S
N188 C192 1.362 . S
C189 C190 1.258 . S
C189 C192 1.431 . S
C189 C209 1.449 . S
C190 C189 1.258 . S
C190 C191 1.477 . S
C190 H210 0.931 . S
C191 C187 1.460 . S
C191 C190 1.477 . S
C191 H211 0.930 . S
C192 N188 1.362 . S
C192 C189 1.431 . S
C192 C202 1.476 . S
H193 C187 0.929 . S
C194 O185 1.250 . S
C194 O186 1.258 . S
O195 Mn180 2.162 1_565 S
O195 C183 1.281 . S
O196 Mn180 2.297 1_565 S
O196 C183 1.236 . S
N197 Mn181 2.282 . S
N197 C198 1.328 . S
N197 C202 1.318 . S
C198 N197 1.328 . S
C198 C199 1.457 . S
C198 H203 0.929 . S
C199 C198 1.457 . S
C199 C200 1.291 . S
C199 H212 0.931 . S
C200 C199 1.291 . S
C200 C201 1.373 . S
C200 H213 0.929 . S
C201 C200 1.373 . S
C201 C202 1.396 . S
C201 C208 1.403 . S
C202 C192 1.476 . S
C202 N197 1.318 . S
C202 C201 1.396 . S
H203 C198 0.929 . S
O204 Mn180 2.385 1_565 S
O204 C182 1.234 . S
O205 Mn180 2.209 . S
O205 Mn181 2.215 . S
O205 C182 1.283 1_545 S
O206 Mn180 2.094 . S
O206 C184 1.240 . S
O207 Mn181 2.117 . S
O207 C184 1.264 . S
C208 C201 1.403 . S
C208 C209 1.399 . S
C208 H214 0.929 . S
C209 C189 1.449 . S
C209 C208 1.399 . S
C209 H215 0.930 . S
H210 C190 0.931 . S
H211 C191 0.930 . S
H212 C199 0.931 . S
H213 C200 0.929 . S
H214 C208 0.929 . S
H215 C209 0.930 . S
Mn216 O221 2.095 . S
Mn216 O231 2.162 1_655 S
Mn216 O232 2.297 1_655 S
Mn216 O240 2.385 1_655 S
Mn216 O241 2.209 . S
Mn216 O242 2.094 . S
Mn217 O222 2.121 . S
Mn217 N224 2.257 . S
Mn217 N233 2.282 . S
Mn217 O241 2.215 . S
Mn217 O243 2.117 . S
C218 O240 1.234 . S
C218 O241 1.283 1_455 S
C219 O231 1.281 . S
C219 O232 1.236 . S
C220 O242 1.240 . S
C220 O243 1.264 . S
O221 Mn216 2.095 . S
O221 C230 1.250 . S
O222 Mn217 2.121 . S
O222 C230 1.258 . S
C223 N224 1.326 . S
C223 C227 1.460 . S
C223 H229 0.929 . S
N224 Mn217 2.257 . S
N224 C223 1.326 . S
N224 C228 1.362 . S
C225 C226 1.258 . S
C225 C228 1.431 . S
C225 C245 1.449 . S
C226 C225 1.258 . S
C226 C227 1.477 . S
C226 H246 0.931 . S
C227 C223 1.460 . S
C227 C226 1.477 . S
C227 H247 0.930 . S
C228 N224 1.362 . S
C228 C225 1.431 . S
C228 C238 1.476 . S
H229 C223 0.929 . S
C230 O221 1.250 . S
C230 O222 1.258 . S
O231 Mn216 2.162 1_455 S
O231 C219 1.281 . S
O232 Mn216 2.297 1_455 S
O232 C219 1.236 . S
N233 Mn217 2.282 . S
N233 C234 1.328 . S
N233 C238 1.318 . S
C234 N233 1.328 . S
C234 C235 1.457 . S
C234 H239 0.929 . S
C235 C234 1.457 . S
C235 C236 1.291 . S
C235 H248 0.931 . S
C236 C235 1.291 . S
C236 C237 1.373 . S
C236 H249 0.929 . S
C237 C236 1.373 . S
C237 C238 1.396 . S
C237 C244 1.403 . S
C238 C228 1.476 . S
C238 N233 1.318 . S
C238 C237 1.396 . S
H239 C234 0.929 . S
O240 Mn216 2.385 1_455 S
O240 C218 1.234 . S
O241 Mn216 2.209 . S
O241 Mn217 2.215 . S
O241 C218 1.283 1_655 S
O242 Mn216 2.094 . S
O242 C220 1.240 . S
O243 Mn217 2.117 . S
O243 C220 1.264 . S
C244 C237 1.403 . S
C244 C245 1.399 . S
C244 H250 0.929 . S
C245 C225 1.449 . S
C245 C244 1.399 . S
C245 H251 0.930 . S
H246 C226 0.931 . S
H247 C227 0.930 . S
H248 C235 0.931 . S
H249 C236 0.929 . S
H250 C244 0.929 . S
H251 C245 0.930 . S
Mn252 O257 2.095 . S
Mn252 O267 2.162 1_565 S
Mn252 O268 2.297 1_565 S
Mn252 O276 2.385 1_565 S
Mn252 O277 2.209 . S
Mn252 O278 2.094 . S
Mn253 O258 2.121 . S
Mn253 N260 2.257 . S
Mn253 N269 2.282 . S
Mn253 O277 2.215 . S
Mn253 O279 2.117 . S
C254 O276 1.234 . S
C254 O277 1.283 1_545 S
C255 O267 1.281 . S
C255 O268 1.236 . S
C256 O278 1.240 . S
C256 O279 1.264 . S
O257 Mn252 2.095 . S
O257 C266 1.250 . S
O258 Mn253 2.121 . S
O258 C266 1.258 . S
C259 N260 1.326 . S
C259 C263 1.460 . S
C259 H265 0.929 . S
N260 Mn253 2.257 . S
N260 C259 1.326 . S
N260 C264 1.362 . S
C261 C262 1.258 . S
C261 C264 1.431 . S
C261 C281 1.449 . S
C262 C261 1.258 . S
C262 C263 1.477 . S
C262 H282 0.931 . S
C263 C259 1.460 . S
C263 C262 1.477 . S
C263 H283 0.930 . S
C264 N260 1.362 . S
C264 C261 1.431 . S
C264 C274 1.476 . S
H265 C259 0.929 . S
C266 O257 1.250 . S
C266 O258 1.258 . S
O267 Mn252 2.162 1_545 S
O267 C255 1.281 . S
O268 Mn252 2.297 1_545 S
O268 C255 1.236 . S
N269 Mn253 2.282 . S
N269 C270 1.328 . S
N269 C274 1.318 . S
C270 N269 1.328 . S
C270 C271 1.457 . S
C270 H275 0.929 . S
C271 C270 1.457 . S
C271 C272 1.291 . S
C271 H284 0.931 . S
C272 C271 1.291 . S
C272 C273 1.373 . S
C272 H285 0.929 . S
C273 C272 1.373 . S
C273 C274 1.396 . S
C273 C280 1.403 . S
C274 C264 1.476 . S
C274 N269 1.318 . S
C274 C273 1.396 . S
H275 C270 0.929 . S
O276 Mn252 2.385 1_545 S
O276 C254 1.234 . S
O277 Mn252 2.209 . S
O277 Mn253 2.215 . S
O277 C254 1.283 1_565 S
O278 Mn252 2.094 . S
O278 C256 1.240 . S
O279 Mn253 2.117 . S
O279 C256 1.264 . S
C280 C273 1.403 . S
C280 C281 1.399 . S
C280 H286 0.929 . S
C281 C261 1.449 . S
C281 C280 1.399 . S
C281 H287 0.930 . S
H282 C262 0.931 . S
H283 C263 0.930 . S
H284 C271 0.931 . S
H285 C272 0.929 . S
H286 C280 0.929 . S
H287 C281 0.930 . S
Mn288 O293 2.095 . S
Mn288 O303 2.162 . S
Mn288 O304 2.297 . S
Mn288 O312 2.385 . S
Mn288 O313 2.209 . S
Mn288 O314 2.094 . S
Mn289 O294 2.121 . S
Mn289 N296 2.257 1_556 S
Mn289 N305 2.282 1_556 S
Mn289 O313 2.215 . S
Mn289 O315 2.117 . S
C290 O312 1.234 . S
C290 O313 1.283 . S
C291 O303 1.281 . S
C291 O304 1.236 . S
C292 O314 1.240 . S
C292 O315 1.264 . S
O293 Mn288 2.095 . S
O293 C302 1.250 . S
O294 Mn289 2.121 . S
O294 C302 1.258 . S
C295 N296 1.326 . S
C295 C299 1.460 . S
C295 H301 0.929 . S
N296 Mn289 2.257 1_554 S
N296 C295 1.326 . S
N296 C300 1.362 . S
C297 C298 1.258 . S
C297 C300 1.431 . S
C297 C317 1.449 . S
C298 C297 1.258 . S
C298 C299 1.477 . S
C298 H318 0.931 . S
C299 C295 1.460 . S
C299 C298 1.477 . S
C299 H319 0.930 . S
C300 N296 1.362 . S
C300 C297 1.431 . S
C300 C310 1.476 . S
H301 C295 0.929 . S
C302 O293 1.250 . S
C302 O294 1.258 . S
O303 Mn288 2.162 . S
O303 C291 1.281 . S
O304 Mn288 2.297 . S
O304 C291 1.236 . S
N305 Mn289 2.282 1_554 S
N305 C306 1.328 1_554 S
N305 C310 1.318 . S
C306 N305 1.328 1_556 S
C306 C307 1.457 1_556 S
C306 H311 0.929 . S
C307 C306 1.457 1_554 S
C307 C308 1.291 . S
C307 H320 0.931 . S
C308 C307 1.291 . S
C308 C309 1.373 . S
C308 H321 0.929 . S
C309 C308 1.373 . S
C309 C310 1.396 . S
C309 C316 1.403 . S
C310 C300 1.476 . S
C310 N305 1.318 . S
C310 C309 1.396 . S
H311 C306 0.929 . S
O312 Mn288 2.385 . S
O312 C290 1.234 . S
O313 Mn288 2.209 . S
O313 Mn289 2.215 . S
O313 C290 1.283 . S
O314 Mn288 2.094 . S
O314 C292 1.240 . S
O315 Mn289 2.117 . S
O315 C292 1.264 . S
C316 C309 1.403 . S
C316 C317 1.399 . S
C316 H322 0.929 . S
C317 C297 1.449 . S
C317 C316 1.399 . S
C317 H323 0.930 . S
H318 C298 0.931 . S
H319 C299 0.930 . S
H320 C307 0.931 . S
H321 C308 0.929 . S
H322 C316 0.929 . S
H323 C317 0.930 . S
Mn324 O329 2.095 . S
Mn324 O339 2.162 . S
Mn324 O340 2.297 . S
Mn324 O348 2.385 . S
Mn324 O349 2.209 . S
Mn324 O350 2.094 . S
Mn325 O330 2.121 . S
Mn325 N332 2.257 1_556 S
Mn325 N341 2.282 1_556 S
Mn325 O349 2.215 . S
Mn325 O351 2.117 . S
C326 O348 1.234 . S
C326 O349 1.283 . S
C327 O339 1.281 . S
C327 O340 1.236 . S
C328 O350 1.240 . S
C328 O351 1.264 . S
O329 Mn324 2.095 . S
O329 C338 1.250 . S
O330 Mn325 2.121 . S
O330 C338 1.258 . S
C331 N332 1.326 . S
C331 C335 1.460 . S
C331 H337 0.929 . S
N332 Mn325 2.257 1_554 S
N332 C331 1.326 . S
N332 C336 1.362 . S
C333 C334 1.258 . S
C333 C336 1.431 . S
C333 C353 1.449 . S
C334 C333 1.258 . S
C334 C335 1.477 . S
C334 H354 0.931 . S
C335 C331 1.460 . S
C335 C334 1.477 . S
C335 H355 0.930 . S
C336 N332 1.362 . S
C336 C333 1.431 . S
C336 C346 1.476 . S
H337 C331 0.929 . S
C338 O329 1.250 . S
C338 O330 1.258 . S
O339 Mn324 2.162 . S
O339 C327 1.281 . S
O340 Mn324 2.297 . S
O340 C327 1.236 . S
N341 Mn325 2.282 1_554 S
N341 C342 1.328 1_554 S
N341 C346 1.318 . S
C342 N341 1.328 1_556 S
C342 C343 1.457 1_556 S
C342 H347 0.929 . S
C343 C342 1.457 1_554 S
C343 C344 1.291 . S
C343 H356 0.931 . S
C344 C343 1.291 . S
C344 C345 1.373 . S
C344 H357 0.929 . S
C345 C344 1.373 . S
C345 C346 1.396 . S
C345 C352 1.403 . S
C346 C336 1.476 . S
C346 N341 1.318 . S
C346 C345 1.396 . S
H347 C342 0.929 . S
O348 Mn324 2.385 . S
O348 C326 1.234 . S
O349 Mn324 2.209 . S
O349 Mn325 2.215 . S
O349 C326 1.283 . S
O350 Mn324 2.094 . S
O350 C328 1.240 . S
O351 Mn325 2.117 . S
O351 C328 1.264 . S
C352 C345 1.403 . S
C352 C353 1.399 . S
C352 H358 0.929 . S
C353 C333 1.449 . S
C353 C352 1.399 . S
C353 H359 0.930 . S
H354 C334 0.931 . S
H355 C335 0.930 . S
H356 C343 0.931 . S
H357 C344 0.929 . S
H358 C352 0.929 . S
H359 C353 0.930 . S
Mn360 O365 2.095 . S
Mn360 O375 2.162 . S
Mn360 O376 2.297 . S
Mn360 O384 2.385 . S
Mn360 O385 2.209 . S
Mn360 O386 2.094 . S
Mn361 O366 2.121 . S
Mn361 N368 2.257 1_556 S
Mn361 N377 2.282 1_556 S
Mn361 O385 2.215 . S
Mn361 O387 2.117 . S
C362 O384 1.234 . S
C362 O385 1.283 . S
C363 O375 1.281 . S
C363 O376 1.236 . S
C364 O386 1.240 . S
C364 O387 1.264 . S
O365 Mn360 2.095 . S
O365 C374 1.250 . S
O366 Mn361 2.121 . S
O366 C374 1.258 . S
C367 N368 1.326 . S
C367 C371 1.460 . S
C367 H373 0.929 . S
N368 Mn361 2.257 1_554 S
N368 C367 1.326 . S
N368 C372 1.362 . S
C369 C370 1.258 . S
C369 C372 1.431 . S
C369 C389 1.449 . S
C370 C369 1.258 . S
C370 C371 1.477 . S
C370 H390 0.931 . S
C371 C367 1.460 . S
C371 C370 1.477 . S
C371 H391 0.930 . S
C372 N368 1.362 . S
C372 C369 1.431 . S
C372 C382 1.476 . S
H373 C367 0.929 . S
C374 O365 1.250 . S
C374 O366 1.258 . S
O375 Mn360 2.162 . S
O375 C363 1.281 . S
O376 Mn360 2.297 . S
O376 C363 1.236 . S
N377 Mn361 2.282 1_554 S
N377 C378 1.328 1_554 S
N377 C382 1.318 . S
C378 N377 1.328 1_556 S
C378 C379 1.457 1_556 S
C378 H383 0.929 . S
C379 C378 1.457 1_554 S
C379 C380 1.291 . S
C379 H392 0.931 . S
C380 C379 1.291 . S
C380 C381 1.373 . S
C380 H393 0.929 . S
C381 C380 1.373 . S
C381 C382 1.396 . S
C381 C388 1.403 . S
C382 C372 1.476 . S
C382 N377 1.318 . S
C382 C381 1.396 . S
H383 C378 0.929 . S
O384 Mn360 2.385 . S
O384 C362 1.234 . S
O385 Mn360 2.209 . S
O385 Mn361 2.215 . S
O385 C362 1.283 . S
O386 Mn360 2.094 . S
O386 C364 1.240 . S
O387 Mn361 2.117 . S
O387 C364 1.264 . S
C388 C381 1.403 . S
C388 C389 1.399 . S
C388 H394 0.929 . S
C389 C369 1.449 . S
C389 C388 1.399 . S
C389 H395 0.930 . S
H390 C370 0.931 . S
H391 C371 0.930 . S
H392 C379 0.931 . S
H393 C380 0.929 . S
H394 C388 0.929 . S
H395 C389 0.930 . S
Mn396 O401 2.095 . S
Mn396 O411 2.162 . S
Mn396 O412 2.297 . S
Mn396 O420 2.385 . S
Mn396 O421 2.209 . S
Mn396 O422 2.094 . S
Mn397 O402 2.121 . S
Mn397 N404 2.257 1_556 S
Mn397 N413 2.282 1_556 S
Mn397 O421 2.215 . S
Mn397 O423 2.117 . S
C398 O420 1.234 . S
C398 O421 1.283 . S
C399 O411 1.281 . S
C399 O412 1.236 . S
C400 O422 1.240 . S
C400 O423 1.264 . S
O401 Mn396 2.095 . S
O401 C410 1.250 . S
O402 Mn397 2.121 . S
O402 C410 1.258 . S
C403 N404 1.326 . S
C403 C407 1.460 . S
C403 H409 0.929 . S
N404 Mn397 2.257 1_554 S
N404 C403 1.326 . S
N404 C408 1.362 . S
C405 C406 1.258 . S
C405 C408 1.431 . S
C405 C425 1.449 . S
C406 C405 1.258 . S
C406 C407 1.477 . S
C406 H426 0.931 . S
C407 C403 1.460 . S
C407 C406 1.477 . S
C407 H427 0.930 . S
C408 N404 1.362 . S
C408 C405 1.431 . S
C408 C418 1.476 . S
H409 C403 0.929 . S
C410 O401 1.250 . S
C410 O402 1.258 . S
O411 Mn396 2.162 . S
O411 C399 1.281 . S
O412 Mn396 2.297 . S
O412 C399 1.236 . S
N413 Mn397 2.282 1_554 S
N413 C414 1.328 1_554 S
N413 C418 1.318 . S
C414 N413 1.328 1_556 S
C414 C415 1.457 1_556 S
C414 H419 0.929 . S
C415 C414 1.457 1_554 S
C415 C416 1.291 . S
C415 H428 0.931 . S
C416 C415 1.291 . S
C416 C417 1.373 . S
C416 H429 0.929 . S
C417 C416 1.373 . S
C417 C418 1.396 . S
C417 C424 1.403 . S
C418 C408 1.476 . S
C418 N413 1.318 . S
C418 C417 1.396 . S
H419 C414 0.929 . S
O420 Mn396 2.385 . S
O420 C398 1.234 . S
O421 Mn396 2.209 . S
O421 Mn397 2.215 . S
O421 C398 1.283 . S
O422 Mn396 2.094 . S
O422 C400 1.240 . S
O423 Mn397 2.117 . S
O423 C400 1.264 . S
C424 C417 1.403 . S
C424 C425 1.399 . S
C424 H430 0.929 . S
C425 C405 1.449 . S
C425 C424 1.399 . S
C425 H431 0.930 . S
H426 C406 0.931 . S
H427 C407 0.930 . S
H428 C415 0.931 . S
H429 C416 0.929 . S
H430 C424 0.929 . S
H431 C425 0.930 . S
Mn432 O437 2.095 . S
Mn432 O447 2.162 . S
Mn432 O448 2.297 . S
Mn432 O456 2.385 . S
Mn432 O457 2.209 . S
Mn432 O458 2.094 . S
Mn433 O438 2.121 . S
Mn433 N440 2.257 1_554 S
Mn433 N449 2.282 1_554 S
Mn433 O457 2.215 . S
Mn433 O459 2.117 . S
C434 O456 1.234 . S
C434 O457 1.283 . S
C435 O447 1.281 . S
C435 O448 1.236 . S
C436 O458 1.240 . S
C436 O459 1.264 . S
O437 Mn432 2.095 . S
O437 C446 1.250 . S
O438 Mn433 2.121 . S
O438 C446 1.258 . S
C439 N440 1.326 . S
C439 C443 1.460 . S
C439 H445 0.929 . S
N440 Mn433 2.257 1_556 S
N440 C439 1.326 . S
N440 C444 1.362 . S
C441 C442 1.258 . S
C441 C444 1.431 . S
C441 C461 1.449 . S
C442 C441 1.258 . S
C442 C443 1.477 . S
C442 H462 0.931 . S
C443 C439 1.460 . S
C443 C442 1.477 . S
C443 H463 0.930 . S
C444 N440 1.362 . S
C444 C441 1.431 . S
C444 C454 1.476 . S
H445 C439 0.929 . S
C446 O437 1.250 . S
C446 O438 1.258 . S
O447 Mn432 2.162 . S
O447 C435 1.281 . S
O448 Mn432 2.297 . S
O448 C435 1.236 . S
N449 Mn433 2.282 1_556 S
N449 C450 1.328 1_556 S
N449 C454 1.318 . S
C450 N449 1.328 1_554 S
C450 C451 1.457 1_554 S
C450 H455 0.929 . S
C451 C450 1.457 1_556 S
C451 C452 1.291 . S
C451 H464 0.931 . S
C452 C451 1.291 . S
C452 C453 1.373 . S
C452 H465 0.929 . S
C453 C452 1.373 . S
C453 C454 1.396 . S
C453 C460 1.403 . S
C454 C444 1.476 . S
C454 N449 1.318 . S
C454 C453 1.396 . S
H455 C450 0.929 . S
O456 Mn432 2.385 . S
O456 C434 1.234 . S
O457 Mn432 2.209 . S
O457 Mn433 2.215 . S
O457 C434 1.283 . S
O458 Mn432 2.094 . S
O458 C436 1.240 . S
O459 Mn433 2.117 . S
O459 C436 1.264 . S
C460 C453 1.403 . S
C460 C461 1.399 . S
C460 H466 0.929 . S
C461 C441 1.449 . S
C461 C460 1.399 . S
C461 H467 0.930 . S
H462 C442 0.931 . S
H463 C443 0.930 . S
H464 C451 0.931 . S
H465 C452 0.929 . S
H466 C460 0.929 . S
H467 C461 0.930 . S
Mn468 O473 2.095 . S
Mn468 O483 2.162 . S
Mn468 O484 2.297 . S
Mn468 O492 2.385 . S
Mn468 O493 2.209 . S
Mn468 O494 2.094 . S
Mn469 O474 2.121 . S
Mn469 N476 2.257 1_554 S
Mn469 N485 2.282 1_554 S
Mn469 O493 2.215 . S
Mn469 O495 2.117 . S
C470 O492 1.234 . S
C470 O493 1.283 . S
C471 O483 1.281 . S
C471 O484 1.236 . S
C472 O494 1.240 . S
C472 O495 1.264 . S
O473 Mn468 2.095 . S
O473 C482 1.250 . S
O474 Mn469 2.121 . S
O474 C482 1.258 . S
C475 N476 1.326 . S
C475 C479 1.460 . S
C475 H481 0.929 . S
N476 Mn469 2.257 1_556 S
N476 C475 1.326 . S
N476 C480 1.362 . S
C477 C478 1.258 . S
C477 C480 1.431 . S
C477 C497 1.449 . S
C478 C477 1.258 . S
C478 C479 1.477 . S
C478 H498 0.931 . S
C479 C475 1.460 . S
C479 C478 1.477 . S
C479 H499 0.930 . S
C480 N476 1.362 . S
C480 C477 1.431 . S
C480 C490 1.476 . S
H481 C475 0.929 . S
C482 O473 1.250 . S
C482 O474 1.258 . S
O483 Mn468 2.162 . S
O483 C471 1.281 . S
O484 Mn468 2.297 . S
O484 C471 1.236 . S
N485 Mn469 2.282 1_556 S
N485 C486 1.328 1_556 S
N485 C490 1.318 . S
C486 N485 1.328 1_554 S
C486 C487 1.457 1_554 S
C486 H491 0.929 . S
C487 C486 1.457 1_556 S
C487 C488 1.291 . S
C487 H500 0.931 . S
C488 C487 1.291 . S
C488 C489 1.373 . S
C488 H501 0.929 . S
C489 C488 1.373 . S
C489 C490 1.396 . S
C489 C496 1.403 . S
C490 C480 1.476 . S
C490 N485 1.318 . S
C490 C489 1.396 . S
H491 C486 0.929 . S
O492 Mn468 2.385 . S
O492 C470 1.234 . S
O493 Mn468 2.209 . S
O493 Mn469 2.215 . S
O493 C470 1.283 . S
O494 Mn468 2.094 . S
O494 C472 1.240 . S
O495 Mn469 2.117 . S
O495 C472 1.264 . S
C496 C489 1.403 . S
C496 C497 1.399 . S
C496 H502 0.929 . S
C497 C477 1.449 . S
C497 C496 1.399 . S
C497 H503 0.930 . S
H498 C478 0.931 . S
H499 C479 0.930 . S
H500 C487 0.931 . S
H501 C488 0.929 . S
H502 C496 0.929 . S
H503 C497 0.930 . S
Mn504 O509 2.095 . S
Mn504 O519 2.162 . S
Mn504 O520 2.297 . S
Mn504 O528 2.385 . S
Mn504 O529 2.209 . S
Mn504 O530 2.094 . S
Mn505 O510 2.121 . S
Mn505 N512 2.257 1_554 S
Mn505 N521 2.282 1_554 S
Mn505 O529 2.215 . S
Mn505 O531 2.117 . S
C506 O528 1.234 . S
C506 O529 1.283 . S
C507 O519 1.281 . S
C507 O520 1.236 . S
C508 O530 1.240 . S
C508 O531 1.264 . S
O509 Mn504 2.095 . S
O509 C518 1.250 . S
O510 Mn505 2.121 . S
O510 C518 1.258 . S
C511 N512 1.326 . S
C511 C515 1.460 . S
C511 H517 0.929 . S
N512 Mn505 2.257 1_556 S
N512 C511 1.326 . S
N512 C516 1.362 . S
C513 C514 1.258 . S
C513 C516 1.431 . S
C513 C533 1.449 . S
C514 C513 1.258 . S
C514 C515 1.477 . S
C514 H534 0.931 . S
C515 C511 1.460 . S
C515 C514 1.477 . S
C515 H535 0.930 . S
C516 N512 1.362 . S
C516 C513 1.431 . S
C516 C526 1.476 . S
H517 C511 0.929 . S
C518 O509 1.250 . S
C518 O510 1.258 . S
O519 Mn504 2.162 . S
O519 C507 1.281 . S
O520 Mn504 2.297 . S
O520 C507 1.236 . S
N521 Mn505 2.282 1_556 S
N521 C522 1.328 1_556 S
N521 C526 1.318 . S
C522 N521 1.328 1_554 S
C522 C523 1.457 1_554 S
C522 H527 0.929 . S
C523 C522 1.457 1_556 S
C523 C524 1.291 . S
C523 H536 0.931 . S
C524 C523 1.291 . S
C524 C525 1.373 . S
C524 H537 0.929 . S
C525 C524 1.373 . S
C525 C526 1.396 . S
C525 C532 1.403 . S
C526 C516 1.476 . S
C526 N521 1.318 . S
C526 C525 1.396 . S
H527 C522 0.929 . S
O528 Mn504 2.385 . S
O528 C506 1.234 . S
O529 Mn504 2.209 . S
O529 Mn505 2.215 . S
O529 C506 1.283 . S
O530 Mn504 2.094 . S
O530 C508 1.240 . S
O531 Mn505 2.117 . S
O531 C508 1.264 . S
C532 C525 1.403 . S
C532 C533 1.399 . S
C532 H538 0.929 . S
C533 C513 1.449 . S
C533 C532 1.399 . S
C533 H539 0.930 . S
H534 C514 0.931 . S
H535 C515 0.930 . S
H536 C523 0.931 . S
H537 C524 0.929 . S
H538 C532 0.929 . S
H539 C533 0.930 . S
Mn540 O545 2.095 . S
Mn540 O555 2.162 . S
Mn540 O556 2.297 . S
Mn540 O564 2.385 . S
Mn540 O565 2.209 . S
Mn540 O566 2.094 . S
Mn541 O546 2.121 . S
Mn541 N548 2.257 1_554 S
Mn541 N557 2.282 1_554 S
Mn541 O565 2.215 . S
Mn541 O567 2.117 . S
C542 O564 1.234 . S
C542 O565 1.283 . S
C543 O555 1.281 . S
C543 O556 1.236 . S
C544 O566 1.240 . S
C544 O567 1.264 . S
O545 Mn540 2.095 . S
O545 C554 1.250 . S
O546 Mn541 2.121 . S
O546 C554 1.258 . S
C547 N548 1.326 . S
C547 C551 1.460 . S
C547 H553 0.929 . S
N548 Mn541 2.257 1_556 S
N548 C547 1.326 . S
N548 C552 1.362 . S
C549 C550 1.258 . S
C549 C552 1.431 . S
C549 C569 1.449 . S
C550 C549 1.258 . S
C550 C551 1.477 . S
C550 H570 0.931 . S
C551 C547 1.460 . S
C551 C550 1.477 . S
C551 H571 0.930 . S
C552 N548 1.362 . S
C552 C549 1.431 . S
C552 C562 1.476 . S
H553 C547 0.929 . S
C554 O545 1.250 . S
C554 O546 1.258 . S
O555 Mn540 2.162 . S
O555 C543 1.281 . S
O556 Mn540 2.297 . S
O556 C543 1.236 . S
N557 Mn541 2.282 1_556 S
N557 C558 1.328 1_556 S
N557 C562 1.318 . S
C558 N557 1.328 1_554 S
C558 C559 1.457 1_554 S
C558 H563 0.929 . S
C559 C558 1.457 1_556 S
C559 C560 1.291 . S
C559 H572 0.931 . S
C560 C559 1.291 . S
C560 C561 1.373 . S
C560 H573 0.929 . S
C561 C560 1.373 . S
C561 C562 1.396 . S
C561 C568 1.403 . S
C562 C552 1.476 . S
C562 N557 1.318 . S
C562 C561 1.396 . S
H563 C558 0.929 . S
O564 Mn540 2.385 . S
O564 C542 1.234 . S
O565 Mn540 2.209 . S
O565 Mn541 2.215 . S
O565 C542 1.283 . S
O566 Mn540 2.094 . S
O566 C544 1.240 . S
O567 Mn541 2.117 . S
O567 C544 1.264 . S
C568 C561 1.403 . S
C568 C569 1.399 . S
C568 H574 0.929 . S
C569 C549 1.449 . S
C569 C568 1.399 . S
C569 H575 0.930 . S
H570 C550 0.931 . S
H571 C551 0.930 . S
H572 C559 0.931 . S
H573 C560 0.929 . S
H574 C568 0.929 . S
H575 C569 0.930 . S
C14 C111 1.583 . S
C3 C50 1.583 . S
C39 C86 1.583 . S
C75 C122 1.583 . S
C158 C183 1.583 . S
C194 C219 1.583 . S
C230 C255 1.583 . S
C266 C147 1.583 . S
C302 C399 1.583 . S
C291 C338 1.583 . S
C327 C374 1.583 . S
C410 C363 1.583 . S
C471 C446 1.583 . S
C507 C482 1.583 . S
C518 C543 1.583 . S
C554 C435 1.583 . S
C4 C544 1.493 . S
C40 C436 1.493 . S
C472 C76 1.492 . S
C112 C508 1.492 . S
C328 C148 1.492 . S
C364 C184 1.492 . S
C220 C400 1.493 . S
C256 C292 1.493 . S
C2 C218 1.778 1_655 S
C254 C38 1.778 1_545 S
C146 C74 1.779 1_655 S
C182 C110 1.779 1_565 S
C290 C506 1.779 1_556 S
C326 C542 1.779 1_556 S
C434 C362 1.779 1_554 S
C398 C470 1.779 1_556 S
