# Generated by pormake.
# Topology loh, (5)-cn, num edge types: 1
# Building blocks:
#     Node 0, Type 0, BuildingBlock: XOMCOT_clean_sbu_1, # of connection points: 5
#     Node 1, Type 0, BuildingBlock: XOMCOT_clean_sbu_1, # of connection points: 5
#     Node 2, Type 0, BuildingBlock: XOMCOT_clean_sbu_1, # of connection points: 5
#     Node 3, Type 0, BuildingBlock: XOMCOT_clean_sbu_1, # of connection points: 5
#     Node 4, Type 0, BuildingBlock: XOMCOT_clean_sbu_1, # of connection points: 5
#     Node 5, Type 0, BuildingBlock: XOMCOT_clean_sbu_1, # of connection points: 5
#     Node 6, Type 0, BuildingBlock: XOMCOT_clean_sbu_1, # of connection points: 5
#     Node 7, Type 0, BuildingBlock: XOMCOT_clean_sbu_1, # of connection points: 5
#     Edge 8, Type (0, 0), BuildingBlock: CIFDUS_clean_linker_0, # of connection points: 2
#     Edge 9, Type (0, 0), BuildingBlock: CIFDUS_clean_linker_0, # of connection points: 2
#     Edge 10, Type (0, 0), BuildingBlock: CIFDUS_clean_linker_0, # of connection points: 2
#     Edge 11, Type (0, 0), BuildingBlock: CIFDUS_clean_linker_0, # of connection points: 2
#     Edge 12, Type (0, 0), BuildingBlock: CIFDUS_clean_linker_0, # of connection points: 2
#     Edge 13, Type (0, 0), BuildingBlock: CIFDUS_clean_linker_0, # of connection points: 2
#     Edge 14, Type (0, 0), BuildingBlock: CIFDUS_clean_linker_0, # of connection points: 2
#     Edge 15, Type (0, 0), BuildingBlock: CIFDUS_clean_linker_0, # of connection points: 2
#     Edge 16, Type (0, 0), BuildingBlock: CIFDUS_clean_linker_0, # of connection points: 2
#     Edge 17, Type (0, 0), BuildingBlock: CIFDUS_clean_linker_0, # of connection points: 2
#     Edge 18, Type (0, 0), BuildingBlock: CIFDUS_clean_linker_0, # of connection points: 2
#     Edge 19, Type (0, 0), BuildingBlock: CIFDUS_clean_linker_0, # of connection points: 2
#     Edge 20, Type (0, 0), BuildingBlock: CIFDUS_clean_linker_0, # of connection points: 2
#     Edge 21, Type (0, 0), BuildingBlock: CIFDUS_clean_linker_0, # of connection points: 2
#     Edge 22, Type (0, 0), BuildingBlock: CIFDUS_clean_linker_0, # of connection points: 2
#     Edge 23, Type (0, 0), BuildingBlock: CIFDUS_clean_linker_0, # of connection points: 2
#     Edge 24, Type (0, 0), BuildingBlock: CIFDUS_clean_linker_0, # of connection points: 2
#     Edge 25, Type (0, 0), BuildingBlock: CIFDUS_clean_linker_0, # of connection points: 2
#     Edge 26, Type (0, 0), BuildingBlock: CIFDUS_clean_linker_0, # of connection points: 2
#     Edge 27, Type (0, 0), BuildingBlock: CIFDUS_clean_linker_0, # of connection points: 2
# Relax obj value: 0.213
# Max RMSD: 0.136
# Mean RMSD: 0.136
data_MOF--net-loh--node1-XOMCOT_clean_sbu_1--edge1-CIFDUS_clean_linker_0
_symmetry_space_group_name_H-M    P1
_symmetry_Int_Tables_number       1
_symmetry_cell_setting            triclinic
loop_
_symmetry_equiv_pos_as_xyz
'x, y, z'
_cell_length_a     23.04103
_cell_length_b     21.685088
_cell_length_c     36.963243
_cell_angle_alpha  90.002682
_cell_angle_beta   89.581039
_cell_angle_gamma 90.157671
loop_
_atom_site_label
_atom_site_type_symbol
_atom_site_fract_x
_atom_site_fract_y
_atom_site_fract_z
_atom_type_partial_charge
C0 C 0.98573 0.14113 0.15824 0.0
C1 C 0.99793 0.08467 0.17309 0.0
N2 N 1.04947 0.08833 0.18979 0.0
N3 N 1.02949 0.18104 0.16507 0.0
C4 C 1.06784 0.14717 0.18444 0.0
H5 H 0.94611 0.15218 0.14429 0.0
Co6 Co 1.02866 0.26692 0.15499 0.0
C7 C 1.05609 0.29975 0.22425 0.0
O8 O 1.00043 0.28855 0.22886 0.0
N9 N 1.02616 0.35091 0.14601 0.0
C10 C 0.99881 0.44896 0.14694 0.0
C11 C 0.99994 0.39471 0.16619 0.0
C12 C 1.04057 0.37935 0.11483 0.0
N13 N 1.02385 0.43881 0.11447 0.0
O14 O 0.09685 0.26119 0.12282 0.0
H15 H 0.97911 0.38689 0.19205 0.0
H16 H 1.0598 0.35585 0.09193 0.0
O17 O 0.07992 0.28347 0.19453 0.0
C18 C 0.12593 0.22052 0.10547 0.0
O19 O 0.10906 0.16262 0.10615 0.0
N20 N 0.97451 0.25621 0.11717 0.0
C21 C 0.88522 0.27668 0.06766 0.0
C22 C 0.87579 0.28426 0.10486 0.0
C23 C 0.92079 0.27342 0.12907 0.0
C24 C 0.98412 0.24551 0.08115 0.0
C25 C 0.93958 0.25498 0.0559 0.0
H26 H 0.91397 0.28247 0.15757 0.0
H27 H 1.02657 0.23308 0.07128 0.0
H28 H 0.10749 0.16587 0.19556 0.0
H29 H 0.97048 0.04414 0.17196 0.0
H30 H 0.97717 0.49102 0.15509 0.0
H31 H 0.83441 0.30056 0.11509 0.0
H32 H 0.9486 0.24894 0.02732 0.0
C33 C 0.63451 0.91514 0.6363 0.0
C34 C 0.62589 0.97128 0.65239 0.0
N35 N 0.64687 0.96932 0.68633 0.0
N36 N 0.66043 0.87664 0.65978 0.0
C37 C 0.66758 0.911 0.6901 0.0
H38 H 0.62232 0.90347 0.609 0.0
Co39 Co 0.68146 0.79475 0.64944 0.0
C40 C 0.65707 0.7469 0.71843 0.0
O41 O 0.71141 0.7618 0.72457 0.0
N42 N 0.70338 0.71419 0.63876 0.0
C43 C 0.75378 0.62688 0.63584 0.0
C44 C 0.74181 0.67839 0.65641 0.0
C45 C 0.69318 0.68396 0.60759 0.0
N46 N 0.72268 0.63074 0.60529 0.0
O47 O 0.61438 0.78844 0.61689 0.0
H48 H 0.76288 0.6906 0.68141 0.0
H49 H 0.6683 0.70272 0.58551 0.0
O50 O 0.63384 0.76433 0.68892 0.0
C51 C 0.57077 0.7518 0.61631 0.0
O52 O 0.56697 0.707 0.64015 0.0
N53 N 0.73147 0.82143 0.61181 0.0
C54 C 0.8184 0.8215 0.55871 0.0
C55 C 0.83247 0.81705 0.5954 0.0
C56 C 0.78832 0.81799 0.62157 0.0
C57 C 0.71702 0.82957 0.57629 0.0
C58 C 0.76016 0.83024 0.54927 0.0
H59 H 0.79909 0.81058 0.64967 0.0
H60 H 0.67219 0.83161 0.56817 0.0
H61 H 0.68791 0.89349 0.71428 0.0
H62 H 0.60447 1.01004 0.6399 0.0
H63 H 0.78435 0.5907 0.64217 0.0
H64 H 0.877 0.81023 0.60366 0.0
H65 H 0.74779 0.83361 0.52112 0.0
C66 C 0.94499 0.90032 0.86938 0.0
C67 C 0.95842 0.9563 0.85412 0.0
N68 N 1.01365 0.9545 0.84208 0.0
N69 N 0.99159 0.86279 0.86764 0.0
C70 C 1.03276 0.89712 0.85049 0.0
H71 H 0.90299 0.88773 0.88028 0.0
Co72 Co 0.99086 0.77892 0.88154 0.0
C73 C 1.01904 0.73687 0.81283 0.0
O74 O 0.963 0.74419 0.80812 0.0
N75 N 0.98841 0.69641 0.89428 0.0
C76 C 0.96471 0.59726 0.89685 0.0
C77 C 0.96166 0.6502 0.8765 0.0
C78 C 1.00691 0.67083 0.92531 0.0
N79 N 0.99299 0.61057 0.92766 0.0
O80 O 1.05981 0.78888 0.91219 0.0
H81 H 0.93891 0.65511 0.85123 0.0
H82 H 1.02859 0.69649 0.94635 0.0
O83 O 1.04172 0.75746 0.84183 0.0
C84 C 0.09028 0.83046 0.92764 0.0
O85 O 0.07488 0.88861 0.92541 0.0
N86 N 0.93753 0.79507 0.9199 0.0
C87 C 0.84898 0.79367 0.97253 0.0
C88 C 0.83894 0.77216 0.93735 0.0
C89 C 0.88355 0.77362 0.91154 0.0
C90 C 0.94803 0.81791 0.95371 0.0
C91 C 0.90409 0.81808 0.98033 0.0
H92 H 0.87561 0.75561 0.88472 0.0
H93 H 0.99035 0.83453 0.96095 0.0
H94 H 0.07541 0.8798 0.84353 0.0
H95 H 0.92946 0.99532 0.85205 0.0
H96 H 0.94498 0.55335 0.89029 0.0
H97 H 0.79696 0.75379 0.92984 0.0
H98 H 0.91386 0.83501 1.00718 0.0
C99 C 0.70706 0.15128 0.37439 0.0
C100 C 0.6921 0.09632 0.3586 0.0
N101 N 0.64152 0.10377 0.34129 0.0
N102 N 0.66612 0.19423 0.3675 0.0
C103 C 0.62645 0.16345 0.34722 0.0
H104 H 0.7464 0.15879 0.38939 0.0
Co105 Co 0.67088 0.27948 0.37971 0.0
C106 C 0.64123 0.32369 0.31203 0.0
O107 O 0.69727 0.31738 0.30641 0.0
N108 N 0.67769 0.36236 0.3907 0.0
C109 C 0.72056 0.45368 0.3961 0.0
C110 C 0.71709 0.4009 0.37562 0.0
C111 C 0.6571 0.39285 0.41985 0.0
N112 N 0.68259 0.44826 0.42369 0.0
O113 O 0.60272 0.27347 0.41189 0.0
H114 H 0.74549 0.38906 0.35331 0.0
H115 H 0.62888 0.37258 0.44015 0.0
O116 O 0.61918 0.30135 0.34099 0.0
C117 C 0.57553 0.23171 0.42966 0.0
O118 O 0.59514 0.17489 0.42964 0.0
N119 N 0.72515 0.26401 0.41704 0.0
C120 C 0.81684 0.28043 0.4656 0.0
C121 C 0.82653 0.28212 0.42815 0.0
C122 C 0.78026 0.27359 0.40445 0.0
C123 C 0.715 0.25972 0.45348 0.0
C124 C 0.76061 0.26691 0.47823 0.0
H125 H 0.78761 0.27858 0.37565 0.0
H126 H 0.67159 0.25504 0.46406 0.0
H127 H 0.58811 0.1848 0.33612 0.0
H128 H 0.7168 0.05399 0.35981 0.0
H129 H 0.75141 0.491 0.39261 0.0
H130 H 0.86925 0.29237 0.41726 0.0
H131 H 0.75124 0.26608 0.50699 0.0
C132 C 0.44612 0.65893 0.17157 0.0
C133 C 0.4596 0.60369 0.18756 0.0
N134 N 0.51525 0.6058 0.19832 0.0
N135 N 0.49305 0.6964 0.17166 0.0
C136 C 0.53449 0.66265 0.18847 0.0
H137 H 0.40406 0.67066 0.16099 0.0
Co138 Co 0.49533 0.77942 0.15548 0.0
C139 C 0.52455 0.82311 0.22219 0.0
O140 O 0.46832 0.81571 0.22663 0.0
N141 N 0.49594 0.86084 0.14084 0.0
C142 C 0.47243 0.95963 0.13662 0.0
C143 C 0.46828 0.90758 0.15763 0.0
C144 C 0.51625 0.88521 0.10968 0.0
N145 N 0.50237 0.94529 0.10634 0.0
O146 O 0.56247 0.76287 0.12322 0.0
H147 H 0.44394 0.90344 0.1826 0.0
H148 H 0.53888 0.85884 0.08919 0.0
O149 O 0.54823 0.80142 0.19358 0.0
C150 C 0.58223 0.7153 0.10683 0.0
O151 O 0.55413 0.66267 0.10948 0.0
N152 N 0.43923 0.76393 0.11909 0.0
C153 C 0.34694 0.78062 0.07094 0.0
C154 C 0.33929 0.78954 0.10821 0.0
C155 C 0.38581 0.78092 0.13168 0.0
C156 C 0.44732 0.75317 0.0829 0.0
C157 C 0.4013 0.76027 0.05845 0.0
H158 H 0.38027 0.79146 0.16011 0.0
H159 H 0.48966 0.74334 0.07198 0.0
H160 H 0.57771 0.67988 0.19381 0.0
H161 H 0.43051 0.56478 0.19076 0.0
H162 H 0.45204 1.00352 0.14225 0.0
H163 H 0.29813 0.80542 0.11902 0.0
H164 H 0.40927 0.75403 0.02977 0.0
C165 C 0.2104 0.40284 0.66803 0.0
C166 C 0.19604 0.45887 0.68283 0.0
N167 N 0.14168 0.45527 0.69621 0.0
N168 N 0.16531 0.36327 0.67156 0.0
C169 C 0.12394 0.39682 0.68897 0.0
H170 H 0.25206 0.39192 0.6562 0.0
Co171 Co 0.1663 0.27829 0.6593 0.0
C172 C 0.13525 0.23947 0.72761 0.0
O173 O 0.1911 0.24756 0.73285 0.0
N174 N 0.1686 0.195 0.64815 0.0
C175 C 0.19415 0.09641 0.64703 0.0
C176 C 0.19675 0.1505 0.6664 0.0
C177 C 0.14948 0.1672 0.61788 0.0
N178 N 0.16467 0.10725 0.61635 0.0
O179 O 0.09923 0.28749 0.6273 0.0
H180 H 0.22047 0.15753 0.69117 0.0
H181 H 0.12693 0.19114 0.59657 0.0
O182 O 0.11334 0.25912 0.6982 0.0
C183 C 0.07331 0.32924 0.6092 0.0
O184 O 0.09418 0.38567 0.60854 0.0
N185 N 0.22206 0.29149 0.62201 0.0
C186 C 0.31508 0.27591 0.57346 0.0
C187 C 0.32265 0.26843 0.61079 0.0
C188 C 0.27577 0.27647 0.63445 0.0
C189 C 0.21394 0.30123 0.58582 0.0
C190 C 0.26028 0.29443 0.56111 0.0
H191 H 0.28143 0.26745 0.663 0.0
H192 H 0.17148 0.31067 0.57529 0.0
H193 H 0.08224 0.37817 0.69709 0.0
H194 H 0.2238 0.49917 0.68372 0.0
H195 H 0.2155 0.05365 0.65393 0.0
H196 H 0.36417 0.25436 0.62155 0.0
H197 H 0.25243 0.29989 0.53243 0.0
C198 C 0.48768 0.40683 0.86918 0.0
C199 C 0.49962 0.46325 0.85401 0.0
N200 N 0.55327 0.46159 0.83949 0.0
N201 N 0.53367 0.36894 0.86478 0.0
C202 C 0.57315 0.40396 0.84649 0.0
H203 H 0.44672 0.39418 0.88147 0.0
Co204 Co 0.53345 0.28333 0.87574 0.0
C205 C 0.56661 0.26122 0.80498 0.0
O206 O 0.51404 0.28153 0.79848 0.0
N207 N 0.53171 0.19996 0.8854 0.0
C208 C 0.50808 0.10078 0.88437 0.0
C209 C 0.50923 0.15478 0.86472 0.0
C210 C 0.54424 0.17279 0.91708 0.0
N211 N 0.52961 0.11262 0.91748 0.0
O212 O 0.6 0.29114 0.90811 0.0
H213 H 0.49184 0.16149 0.83792 0.0
H214 H 0.56116 0.19761 0.94008 0.0
O215 O 0.58659 0.26619 0.83686 0.0
C216 C 0.62852 0.33207 0.9254 0.0
O217 O 0.61174 0.38989 0.92459 0.0
N218 N 0.47746 0.29426 0.91318 0.0
C219 C 0.38652 0.27471 0.96275 0.0
C220 C 0.37886 0.26403 0.92571 0.0
C221 C 0.42461 0.27441 0.90148 0.0
C222 C 0.48531 0.30799 0.94894 0.0
C223 C 0.43996 0.299 0.97419 0.0
H224 H 0.41906 0.26309 0.87321 0.0
H225 H 0.52702 0.32272 0.95869 0.0
H226 H 0.61469 0.38674 0.83717 0.0
H227 H 0.4705 0.50232 0.85332 0.0
H228 H 0.48935 0.05742 0.87577 0.0
H229 H 0.33827 0.24573 0.91564 0.0
H230 H 0.44771 0.30754 1.00262 0.0
C231 C 0.2216 0.64549 0.36995 0.0
C232 C 0.21125 0.58984 0.35364 0.0
N233 N 0.15782 0.59103 0.33927 0.0
N234 N 0.17471 0.68231 0.36665 0.0
C235 C 0.13667 0.64784 0.34726 0.0
H236 H 0.2618 0.65809 0.3828 0.0
Co237 Co 0.17215 0.76571 0.38196 0.0
C238 C 0.15125 0.8066 0.31266 0.0
O239 O 0.20749 0.79757 0.30994 0.0
N240 N 0.17193 0.84762 0.39585 0.0
C241 C 0.19206 0.94759 0.39829 0.0
C242 C 0.19681 0.89497 0.37783 0.0
C243 C 0.15292 0.8722 0.42725 0.0
N244 N 0.16466 0.93304 0.42945 0.0
O245 O 0.10063 0.75319 0.41101 0.0
H246 H 0.21946 0.89118 0.35226 0.0
H247 H 0.1326 0.84552 0.4486 0.0
O248 O 0.12498 0.78775 0.34111 0.0
C249 C 1.07103 0.70816 0.42388 0.0
O250 O 0.08909 0.65141 0.41884 0.0
N251 N 0.22194 0.74864 0.42143 0.0
C252 C 0.30731 0.73754 0.47491 0.0
C253 C 0.32071 0.76232 0.44076 0.0
C254 C 0.27741 0.76776 0.41463 0.0
C255 C 0.20777 0.72454 0.4545 0.0
C256 C 0.24978 0.71857 0.4815 0.0
H257 H 0.28812 0.78729 0.38847 0.0
H258 H 0.16418 0.71058 0.46088 0.0
H259 H 0.09464 0.66441 0.3388 0.0
H260 H 0.24093 0.55127 0.35265 0.0
H261 H 0.21035 0.99222 0.39161 0.0
H262 H 0.36443 0.77691 0.43399 0.0
H263 H 0.23681 0.7003 0.5076 0.0
H264 H 0.33405 0.34284 1.01649 0.0
H265 H 0.3353 0.16236 0.96763 0.0
H266 H 0.25672 0.12901 1.00784 0.0
H267 H 0.18541 0.15151 0.05572 0.0
H268 H 0.18038 0.33312 0.10331 0.0
H269 H 0.26197 0.36539 0.06504 0.0
C270 C 0.31727 0.29615 1.01492 0.0
C271 C 0.34041 0.25522 0.98898 0.0
C272 C 0.27102 0.27746 0.03784 0.0
C273 C 0.31793 0.19494 0.98709 0.0
C274 C 0.273 0.17577 1.01014 0.0
C275 C 0.20223 0.1981 0.0579 0.0
C276 C 0.17653 0.23964 0.08254 0.0
C277 C 0.24879 0.21672 0.03541 0.0
C278 C 0.199 0.3 0.08464 0.0
C279 C 0.24584 0.31857 0.06273 0.0
H280 H 0.48079 0.67355 0.60203 0.0
H281 H 0.55929 0.84412 0.56625 0.0
H282 H 0.48506 0.85495 0.51992 0.0
H283 H 0.39705 0.81681 0.48988 0.0
H284 H 0.32077 0.64419 0.52427 0.0
H285 H 0.39423 0.63416 0.57103 0.0
C286 C 0.48174 0.71318 0.58415 0.0
C287 C 0.52572 0.75803 0.58786 0.0
C288 C 0.43898 0.71902 0.55733 0.0
C289 C 0.52617 0.80883 0.56418 0.0
C290 C 0.48359 0.81512 0.53762 0.0
C291 C 0.39673 0.77656 0.50727 0.0
C292 C 0.3529 0.73148 0.50338 0.0
C293 C 0.43975 0.77052 0.53393 0.0
C294 C 0.35305 0.68028 0.52681 0.0
C295 C 0.39543 0.6742 0.55349 0.0
H296 H 0.29748 0.71224 1.01666 0.0
H297 H 0.29153 0.89058 0.06804 0.0
H298 H 0.2137 0.9226 0.02771 0.0
H299 H 0.14564 0.89966 0.97863 0.0
H300 H 0.14702 0.71961 0.92901 0.0
H301 H 0.22769 0.68869 0.9676 0.0
C302 C 0.27917 0.75811 0.01883 0.0
C303 C 0.30017 0.7989 0.0454 0.0
C304 C 0.23336 0.77595 0.99587 0.0
C305 C 0.27578 0.85812 0.04807 0.0
C306 C 0.23134 0.87655 0.02493 0.0
C307 C 0.16372 0.85374 0.97607 0.0
C308 C 0.14024 0.81224 0.95073 0.0
C309 C 0.2095 0.83581 0.99886 0.0
C310 C 0.16405 0.75264 0.94822 0.0
C311 C 0.21032 0.73487 0.97031 0.0
H312 H 0.52392 0.16334 0.48298 0.0
H313 H 0.51241 0.33871 0.42845 0.0
H314 H 0.42967 0.36726 0.46672 0.0
H315 H 0.36095 0.34311 0.51693 0.0
H316 H 0.37655 0.16944 0.57275 0.0
H317 H 0.45665 0.13971 0.53291 0.0
C318 C 0.50322 0.20773 0.47929 0.0
C319 C 0.52449 0.2486 0.45267 0.0
C320 C 0.45615 0.22432 0.50182 0.0
C321 C 0.49719 0.3062 0.44867 0.0
C322 C 0.44971 0.32262 0.47058 0.0
C323 C 0.38179 0.29869 0.52015 0.0
C324 C 0.36285 0.25867 0.5479 0.0
C325 C 0.42884 0.28216 0.49738 0.0
C326 C 0.3906 0.20139 0.55189 0.0
C327 C 0.43637 0.18424 0.52903 0.0
H328 H 0.65466 0.81479 0.0951 0.0
H329 H 0.62341 0.62732 0.06075 0.0
H330 H 0.70245 0.63505 1.01696 0.0
H331 H 0.77971 0.69489 0.98727 0.0
H332 H 0.81401 0.88124 0.02175 0.0
H333 H 0.73532 0.87388 0.06659 0.0
C334 C 0.66525 0.77556 0.07813 0.0
C335 C 0.63258 0.72058 0.08133 0.0
C336 C 0.71149 0.78006 0.05288 0.0
C337 C 0.64741 0.67025 0.05909 0.0
C338 C 0.69273 0.67459 0.03387 0.0
C339 C 0.76983 0.73404 1.00449 0.0
C340 C 0.80249 0.78875 1.00086 0.0
C341 C 0.72483 0.7293 0.03034 0.0
C342 C 0.78977 0.83853 0.02398 0.0
C343 C 0.74457 0.83439 0.04955 0.0
H344 H 1.02496 0.3955 0.55426 0.0
H345 H 1.00729 0.22427 0.61278 0.0
H346 H 0.92519 0.19489 0.57491 0.0
H347 H 0.85899 0.21678 0.52387 0.0
H348 H 0.88055 0.3857 0.46377 0.0
H349 H 0.95982 0.41699 0.50339 0.0
C350 C 1.003 0.35189 0.5589 0.0
C351 C 1.02238 0.31236 0.58652 0.0
C352 C 0.95632 0.3347 0.53655 0.0
C353 C 0.99353 0.25571 0.59177 0.0
C354 C 0.94642 0.23881 0.57009 0.0
C355 C 0.881 0.26048 0.51965 0.0
C356 C 0.86408 0.29873 0.49082 0.0
C357 C 0.92752 0.27776 0.54224 0.0
C358 C 0.89317 0.35515 0.48552 0.0
C359 C 0.93842 0.37316 0.50824 0.0
H360 H 0.83514 0.21009 1.01299 0.0
H361 H 0.83327 0.38844 0.06441 0.0
H362 H 0.75556 0.42226 0.02445 0.0
H363 H 0.68583 0.40046 0.97607 0.0
H364 H 0.68391 0.22054 0.92621 0.0
H365 H 0.76474 0.18823 0.96413 0.0
C366 C 0.81787 0.25642 1.01516 0.0
C367 C 0.83982 0.29665 0.04168 0.0
C368 C 0.77215 0.27527 0.99245 0.0
C369 C 0.81677 0.35647 0.04441 0.0
C370 C 0.77236 0.37587 0.02153 0.0
C371 C 0.7032 0.35426 0.97333 0.0
C372 C 0.67862 0.31318 0.94816 0.0
C373 C 0.74929 0.33555 0.99565 0.0
C374 C 0.7017 0.25328 0.94532 0.0
C375 C 0.7481 0.23468 0.96702 0.0
H376 H 0.87261 0.71443 0.54353 0.0
H377 H 0.86477 0.90475 0.51091 0.0
H378 H 0.94221 0.88709 0.46599 0.0
H379 H 1.01371 0.81716 0.43686 0.0
H380 H 1.01683 0.62538 0.46828 0.0
H381 H 0.93975 0.64375 0.51236 0.0
C382 C 0.88796 0.7519 0.52647 0.0
C383 C 0.86364 0.81089 0.53058 0.0
C384 C 0.93163 0.74105 0.50042 0.0
C385 C 0.88313 0.85904 0.50817 0.0
C386 C 0.92737 0.84889 0.48257 0.0
C387 C 0.99738 0.77935 0.45325 0.0
C388 C 1.02154 0.71995 0.44919 0.0
C389 C 0.95223 0.79006 0.47854 0.0
C390 C 0.99934 0.67153 0.4706 0.0
C391 C 0.95522 0.68198 0.496 0.0
H392 H 1.00434 0.38394 0.26838 0.0
H393 H 0.17233 0.32336 0.23046 0.0
H394 H 0.21855 0.40885 0.26266 0.0
H395 H 0.21076 0.50298 0.29937 0.0
H396 H 1.04266 0.56573 0.33559 0.0
H397 H 0.99668 0.47794 0.3054 0.0
C398 C 1.05119 0.38872 0.26761 0.0
C399 C 0.08493 0.34666 0.24734 0.0
C400 C 0.07725 0.43908 0.28528 0.0
C401 C 0.14543 0.35462 0.24606 0.0
C402 C 0.1718 0.40375 0.26429 0.0
C403 C 0.1641 0.49728 0.30098 0.0
C404 C 0.13026 0.54097 0.31995 0.0
C405 C 0.13808 0.44664 0.28362 0.0
C406 C 1.06969 0.53334 0.32095 0.0
C407 C 1.04346 0.4828 0.30394 0.0
H408 H 0.7081 0.66418 0.76349 0.0
H409 H 0.54093 0.72121 0.72391 0.0
H410 H 0.49413 0.63783 0.75809 0.0
H411 H 0.50102 0.54706 0.79779 0.0
H412 H 0.66836 0.48704 0.83526 0.0
H413 H 0.71501 0.57261 0.80279 0.0
C414 C 0.66131 0.65896 0.7627 0.0
C415 C 0.62797 0.6996 0.74149 0.0
C416 C 0.63489 0.60982 0.78165 0.0
C417 C 0.56756 0.69105 0.74019 0.0
C418 C 0.54083 0.64318 0.75963 0.0
C419 C 0.54767 0.55292 0.79914 0.0
C420 C 0.58112 0.51073 0.81922 0.0
C421 C 0.57409 0.60203 0.78023 0.0
C422 C 0.64166 0.51842 0.81988 0.0
C423 C 0.66826 0.56763 0.8015 0.0
H424 H 0.18816 0.54741 0.73609 0.0
H425 H 1.02523 0.4729 0.69925 0.0
H426 H 0.97316 0.55621 0.7301 0.0
H427 H 0.97388 0.64932 0.76825 0.0
H428 H 0.13673 0.72159 0.80688 0.0
H429 H 0.18902 0.64089 0.77383 0.0
C430 C 0.1413 0.54961 0.73444 0.0
C431 C 0.11074 0.50378 0.71513 0.0
C432 C 0.11169 0.59762 0.75234 0.0
C433 C 1.04986 0.50697 0.7141 0.0
C434 C 1.02011 0.55493 0.73155 0.0
C435 C 1.0209 0.64809 0.76905 0.0
C436 C 1.05136 0.6921 0.78978 0.0
C437 C 1.05056 0.6005 0.75076 0.0
C438 C 0.11221 0.68874 0.791 0.0
C439 C 0.14209 0.64237 0.77223 0.0
H440 H 0.68439 0.40903 0.26484 0.0
H441 H 0.52349 0.34157 0.31062 0.0
H442 H 0.47035 0.42299 0.27926 0.0
H443 H 0.47014 0.51587 0.24101 0.0
H444 H 0.63132 0.58487 0.19655 0.0
H445 H 0.68392 0.50103 0.22589 0.0
C446 C 0.63757 0.41145 0.26761 0.0
C447 C 0.60797 0.36864 0.2899 0.0
C448 C 0.60747 0.45937 0.2502 0.0
C449 C 0.54739 0.37347 0.29353 0.0
C450 C 0.51701 0.42028 0.27573 0.0
C451 C 0.5167 0.51238 0.23737 0.0
C452 C 0.54658 0.55693 0.2164 0.0
C453 C 0.54667 0.4639 0.25432 0.0
C454 C 0.60717 0.55195 0.21276 0.0
C455 C 0.63724 0.50364 0.22934 0.0
H456 H 0.47726 0.91489 0.2627 0.0
H457 H 0.64195 0.83603 0.23166 0.0
H458 H 0.69268 0.91642 0.26584 0.0
H459 H 0.69007 1.0104 0.30336 0.0
H460 H 0.52548 0.09162 0.33209 0.0
H461 H 0.47475 1.00963 0.29932 0.0
C462 C 0.52428 0.9147 0.26376 0.0
C463 C 0.55578 0.86877 0.24502 0.0
C464 C 0.55309 0.96205 0.28261 0.0
C465 C 0.61668 0.87036 0.24603 0.0
C466 C 0.64566 0.91651 0.26546 0.0
C467 C 0.64307 1.00999 0.3027 0.0
C468 C 0.6116 0.05708 0.32045 0.0
C469 C 0.61431 0.96278 0.28367 0.0
C470 C 0.55075 0.0564 0.31852 0.0
C471 C 0.52176 1.00922 0.29999 0.0
H472 H 0.96709 0.04457 0.80087 0.0
H473 H 0.12967 0.97619 0.84154 0.0
H474 H 0.18118 0.06124 0.81176 0.0
H475 H 0.18013 0.15409 0.77349 0.0
H476 H 1.01776 0.22051 0.73127 0.0
H477 H 0.96582 0.13802 0.76322 0.0
C478 C 1.01372 0.04847 0.8036 0.0
C479 C 1.04436 1.00385 0.82365 0.0
C480 C 1.043 0.09755 0.78638 0.0
C481 C 0.10501 1.00926 0.82607 0.0
C482 C 0.13443 0.05823 0.80925 0.0
C483 C 0.13325 0.15123 0.77168 0.0
C484 C 0.10283 0.19405 0.75024 0.0
C485 C 0.10388 0.10264 0.78934 0.0
C486 C 1.04222 0.18861 0.74773 0.0
C487 C 1.01255 0.1412 0.76585 0.0
H488 H 0.62815 0.09089 0.67331 0.0
H489 H 0.66056 0.96145 0.7596 0.0
H490 H 0.64764 0.04381 0.80399 0.0
H491 H 0.6171 0.15039 0.81867 0.0
H492 H 0.57328 0.27473 0.73215 0.0
H493 H 0.60069 0.19658 0.68749 0.0
C494 C 0.63204 0.07994 0.70173 0.0
C495 C 0.64441 1.01898 0.71273 0.0
C496 C 0.62256 0.12705 0.7272 0.0
C497 C 0.6511 1.00739 0.74996 0.0
C498 C 0.64341 0.05461 0.7755 0.0
C499 C 0.61489 0.16075 0.79001 0.0
C500 C 0.59384 0.21855 0.77863 0.0
C501 C 0.62792 0.11435 0.76448 0.0
C502 C 0.58987 0.23086 0.74148 0.0
C503 C 0.60514 0.18601 0.71599 0.0
H504 H 0.99612 0.99725 0.22741 0.0
H505 H 0.16472 0.06969 0.19871 0.0
H506 H 0.21112 0.986 0.2322 0.0
H507 H 0.20368 0.89319 0.2703 0.0
H508 H 1.03496 0.82343 0.3013 0.0
H509 H 0.98861 0.90438 0.26552 0.0
C510 C 1.04303 0.99448 0.22816 0.0
C511 C 0.0769 0.03973 0.21033 0.0
C512 C 1.06932 0.94639 0.24766 0.0
C513 C 0.13765 0.03596 0.21235 0.0
C514 C 0.16415 0.98782 0.23132 0.0
C515 C 0.15673 0.89502 0.26884 0.0
C516 C 0.12282 0.85164 0.28817 0.0
C517 C 0.13043 0.94279 0.24907 0.0
C518 C 1.06207 0.8558 0.28653 0.0
C519 C 1.03557 0.90229 0.26619 0.0
H520 H 1.00481 0.64512 0.99733 0.0
H521 H 0.99939 0.48601 0.92716 0.0
H522 H 1.00958 0.41818 0.97939 0.0
H523 H 1.01703 0.40448 0.04466 0.0
H524 H 1.02622 0.56336 0.11472 0.0
H525 H 1.01795 0.63155 0.06231 0.0
C526 C 1.00697 0.59574 0.99321 0.0
C527 C 1.00139 0.57074 0.95827 0.0
C528 C 1.01336 0.55718 0.02325 0.0
C529 C 1.00284 0.50643 0.95377 0.0
C530 C 1.009 0.46765 0.98358 0.0
C531 C 1.01857 0.45397 0.04852 0.0
C532 C 1.02264 0.4789 0.08354 0.0
C533 C 1.01398 0.49259 0.01841 0.0
C534 C 1.02274 0.54319 0.08803 0.0
C535 C 1.01818 0.58207 0.05812 0.0
H536 H 0.63315 0.60054 0.56371 0.0
H537 H 0.81701 0.57425 0.57695 0.0
H538 H 0.82143 0.51622 0.52004 0.0
H539 H 0.77258 0.47564 0.46572 0.0
H540 H 0.58824 0.49845 0.45407 0.0
H541 H 0.58385 0.55646 0.51108 0.0
C542 C 0.67404 0.58183 0.55405 0.0
C543 C 0.72468 0.59148 0.57414 0.0
C544 C 0.67604 0.54897 0.52154 0.0
C545 C 0.77746 0.56661 0.56193 0.0
C546 C 0.78003 0.53409 0.52933 0.0
C547 C 0.73183 0.49422 0.47567 0.0
C548 C 0.68092 0.48467 0.45584 0.0
C549 C 0.72968 0.52568 0.50874 0.0
C550 C 0.62775 0.50661 0.46905 0.0
C551 C 0.62534 0.53926 0.50152 0.0
H552 H 0.52217 0.14791 0.9872 0.0
H553 H 0.53299 0.98768 0.91819 0.0
H554 H 0.52666 0.92063 0.97132 0.0
H555 H 0.5151 0.90839 0.03694 0.0
H556 H 0.5089 0.06961 0.10543 0.0
H557 H 0.51714 0.13598 0.05242 0.0
C558 C 0.52456 0.09844 0.98358 0.0
C559 C 0.5285 0.07291 0.94867 0.0
C560 C 0.52147 0.06051 1.01408 0.0
C561 C 0.52953 1.00848 0.94473 0.0
C562 C 0.52618 0.9702 0.97508 0.0
C563 C 0.51667 0.95795 0.04043 0.0
C564 C 0.51121 0.98399 0.07518 0.0
C565 C 0.52181 0.99581 1.00986 0.0
C566 C 0.51216 0.04843 0.07899 0.0
C567 C 0.51713 0.08638 0.04872 0.0
H568 H 0.16182 0.89859 0.49953 0.0
H569 H 0.1507 0.05656 0.42894 0.0
H570 H 0.14714 0.12502 0.4813 0.0
H571 H 0.15388 0.13992 0.54638 0.0
H572 H 0.1628 0.98238 0.61749 0.0
H573 H 0.16048 0.91331 0.56527 0.0
C574 C 0.15741 0.94783 0.49555 0.0
C575 C 0.15691 0.9725 0.46035 0.0
C576 C 0.15555 0.98685 0.52574 0.0
C577 C 0.15212 0.03658 0.45574 0.0
C578 C 0.14988 0.07568 0.48564 0.0
C579 C 0.15398 0.09055 0.55071 0.0
C580 C 0.15862 0.06644 0.5859 0.0
C581 C 0.15254 0.05132 0.5207 0.0
C582 C 0.16004 1.00216 0.59068 0.0
C583 C 0.15846 0.96267 0.56087 0.0
loop_
_geom_bond_atom_site_label_1
_geom_bond_atom_site_label_2
_geom_bond_distance
_geom_bond_site_symmetry_2
_ccdc_geom_bond_type
C0 C1 1.351 . S
C0 N3 1.368 . S
C0 H5 0.931 . S
C1 C0 1.351 . S
C1 N2 1.373 . S
C1 H29 0.930 . S
N2 C1 1.373 . S
N2 C4 1.340 . S
N3 C0 1.368 . S
N3 C4 1.321 . S
N3 Co6 2.135 . S
C4 N2 1.340 . S
C4 N3 1.321 . S
C4 H28 0.930 . S
H5 C0 0.931 . S
Co6 N3 2.135 . S
Co6 N9 2.121 . S
Co6 O14 2.055 . S
Co6 O17 2.039 . S
Co6 N20 2.140 1_455 S
C7 O8 1.227 1_455 S
C7 O17 1.265 . S
O8 C7 1.227 1_655 S
N9 Co6 2.121 . S
N9 C11 1.375 . S
N9 C12 1.313 . S
C10 C11 1.338 . S
C10 N13 1.377 . S
C10 H30 0.930 1_455 S
C11 N9 1.375 . S
C11 C10 1.338 . S
C11 H15 0.931 1_455 S
C12 N9 1.313 . S
C12 N13 1.344 . S
C12 H16 0.930 . S
N13 C10 1.377 . S
N13 C12 1.344 . S
O14 Co6 2.055 . S
O14 C18 1.253 . S
H15 C11 0.931 1_655 S
H16 C12 0.930 . S
O17 Co6 2.039 . S
O17 C7 1.265 . S
C18 O14 1.253 . S
C18 O19 1.227 . S
O19 C18 1.227 . S
N20 Co6 2.140 1_655 S
N20 C23 1.346 . S
N20 C24 1.345 . S
C21 C22 1.387 . S
C21 C25 1.391 . S
C22 C21 1.387 . S
C22 C23 1.369 . S
C22 H31 0.929 . S
C23 N20 1.346 . S
C23 C22 1.369 . S
C23 H26 0.928 . S
C24 N20 1.345 . S
C24 C25 1.371 . S
C24 H27 0.931 . S
C25 C21 1.391 . S
C25 C24 1.371 . S
C25 H32 0.930 . S
H26 C23 0.928 . S
H27 C24 0.931 . S
H28 C4 0.930 . S
H29 C1 0.930 . S
H30 C10 0.930 1_655 S
H31 C22 0.929 . S
H32 C25 0.930 . S
C33 C34 1.351 . S
C33 N36 1.368 . S
C33 H38 0.931 . S
C34 C33 1.351 . S
C34 N35 1.373 . S
C34 H62 0.930 . S
N35 C34 1.373 . S
N35 C37 1.340 . S
N36 C33 1.368 . S
N36 C37 1.321 . S
N36 Co39 2.135 . S
C37 N35 1.340 . S
C37 N36 1.321 . S
C37 H61 0.930 . S
H38 C33 0.931 . S
Co39 N36 2.135 . S
Co39 N42 2.121 . S
Co39 O47 2.055 . S
Co39 O50 2.039 . S
Co39 N53 2.140 . S
C40 O41 1.227 . S
C40 O50 1.265 . S
O41 C40 1.227 . S
N42 Co39 2.121 . S
N42 C44 1.375 . S
N42 C45 1.313 . S
C43 C44 1.338 . S
C43 N46 1.377 . S
C43 H63 0.930 . S
C44 N42 1.375 . S
C44 C43 1.338 . S
C44 H48 0.931 . S
C45 N42 1.313 . S
C45 N46 1.344 . S
C45 H49 0.930 . S
N46 C43 1.377 . S
N46 C45 1.344 . S
O47 Co39 2.055 . S
O47 C51 1.253 . S
H48 C44 0.931 . S
H49 C45 0.930 . S
O50 Co39 2.039 . S
O50 C40 1.265 . S
C51 O47 1.253 . S
C51 O52 1.227 . S
O52 C51 1.227 . S
N53 Co39 2.140 . S
N53 C56 1.346 . S
N53 C57 1.345 . S
C54 C55 1.387 . S
C54 C58 1.391 . S
C55 C54 1.387 . S
C55 C56 1.369 . S
C55 H64 0.929 . S
C56 N53 1.346 . S
C56 C55 1.369 . S
C56 H59 0.928 . S
C57 N53 1.345 . S
C57 C58 1.371 . S
C57 H60 0.931 . S
C58 C54 1.391 . S
C58 C57 1.371 . S
C58 H65 0.930 . S
H59 C56 0.928 . S
H60 C57 0.931 . S
H61 C37 0.930 . S
H62 C34 0.930 . S
H63 C43 0.930 . S
H64 C55 0.929 . S
H65 C58 0.930 . S
C66 C67 1.351 . S
C66 N69 1.368 . S
C66 H71 0.931 . S
C67 C66 1.351 . S
C67 N68 1.373 . S
C67 H95 0.930 . S
N68 C67 1.373 . S
N68 C70 1.340 . S
N69 C66 1.368 . S
N69 C70 1.321 . S
N69 Co72 2.135 . S
C70 N68 1.340 . S
C70 N69 1.321 . S
C70 H94 0.930 . S
H71 C66 0.931 . S
Co72 N69 2.135 . S
Co72 N75 2.121 . S
Co72 O80 2.055 . S
Co72 O83 2.039 . S
Co72 N86 2.140 1_455 S
C73 O74 1.227 1_455 S
C73 O83 1.265 . S
O74 C73 1.227 1_655 S
N75 Co72 2.121 . S
N75 C77 1.375 . S
N75 C78 1.313 . S
C76 C77 1.338 . S
C76 N79 1.377 . S
C76 H96 0.930 1_455 S
C77 N75 1.375 . S
C77 C76 1.338 . S
C77 H81 0.931 1_455 S
C78 N75 1.313 . S
C78 N79 1.344 . S
C78 H82 0.930 . S
N79 C76 1.377 . S
N79 C78 1.344 . S
O80 Co72 2.055 . S
O80 C84 1.253 . S
H81 C77 0.931 1_655 S
H82 C78 0.930 . S
O83 Co72 2.039 . S
O83 C73 1.265 . S
C84 O80 1.253 . S
C84 O85 1.227 . S
O85 C84 1.227 . S
N86 Co72 2.140 1_655 S
N86 C89 1.346 . S
N86 C90 1.345 . S
C87 C88 1.387 . S
C87 C91 1.391 . S
C88 C87 1.387 . S
C88 C89 1.369 . S
C88 H97 0.929 . S
C89 N86 1.346 . S
C89 C88 1.369 . S
C89 H92 0.928 . S
C90 N86 1.345 . S
C90 C91 1.371 . S
C90 H93 0.931 . S
C91 C87 1.391 . S
C91 C90 1.371 . S
C91 H98 0.930 . S
H92 C89 0.928 . S
H93 C90 0.931 . S
H94 C70 0.930 . S
H95 C67 0.930 . S
H96 C76 0.930 1_655 S
H97 C88 0.929 . S
H98 C91 0.930 . S
C99 C100 1.351 . S
C99 N102 1.368 . S
C99 H104 0.931 . S
C100 C99 1.351 . S
C100 N101 1.373 . S
C100 H128 0.930 . S
N101 C100 1.373 . S
N101 C103 1.340 . S
N102 C99 1.368 . S
N102 C103 1.321 . S
N102 Co105 2.135 . S
C103 N101 1.340 . S
C103 N102 1.321 . S
C103 H127 0.930 . S
H104 C99 0.931 . S
Co105 N102 2.135 . S
Co105 N108 2.121 . S
Co105 O113 2.055 . S
Co105 O116 2.039 . S
Co105 N119 2.140 . S
C106 O107 1.227 . S
C106 O116 1.265 . S
O107 C106 1.227 . S
N108 Co105 2.121 . S
N108 C110 1.375 . S
N108 C111 1.313 . S
C109 C110 1.338 . S
C109 N112 1.377 . S
C109 H129 0.930 . S
C110 N108 1.375 . S
C110 C109 1.338 . S
C110 H114 0.931 . S
C111 N108 1.313 . S
C111 N112 1.344 . S
C111 H115 0.930 . S
N112 C109 1.377 . S
N112 C111 1.344 . S
O113 Co105 2.055 . S
O113 C117 1.253 . S
H114 C110 0.931 . S
H115 C111 0.930 . S
O116 Co105 2.039 . S
O116 C106 1.265 . S
C117 O113 1.253 . S
C117 O118 1.227 . S
O118 C117 1.227 . S
N119 Co105 2.140 . S
N119 C122 1.346 . S
N119 C123 1.345 . S
C120 C121 1.387 . S
C120 C124 1.391 . S
C121 C120 1.387 . S
C121 C122 1.369 . S
C121 H130 0.929 . S
C122 N119 1.346 . S
C122 C121 1.369 . S
C122 H125 0.928 . S
C123 N119 1.345 . S
C123 C124 1.371 . S
C123 H126 0.931 . S
C124 C120 1.391 . S
C124 C123 1.371 . S
C124 H131 0.930 . S
H125 C122 0.928 . S
H126 C123 0.931 . S
H127 C103 0.930 . S
H128 C100 0.930 . S
H129 C109 0.930 . S
H130 C121 0.929 . S
H131 C124 0.930 . S
C132 C133 1.351 . S
C132 N135 1.368 . S
C132 H137 0.931 . S
C133 C132 1.351 . S
C133 N134 1.373 . S
C133 H161 0.930 . S
N134 C133 1.373 . S
N134 C136 1.340 . S
N135 C132 1.368 . S
N135 C136 1.321 . S
N135 Co138 2.135 . S
C136 N134 1.340 . S
C136 N135 1.321 . S
C136 H160 0.930 . S
H137 C132 0.931 . S
Co138 N135 2.135 . S
Co138 N141 2.121 . S
Co138 O146 2.055 . S
Co138 O149 2.039 . S
Co138 N152 2.140 . S
C139 O140 1.227 . S
C139 O149 1.265 . S
O140 C139 1.227 . S
N141 Co138 2.121 . S
N141 C143 1.375 . S
N141 C144 1.313 . S
C142 C143 1.338 . S
C142 N145 1.377 . S
C142 H162 0.930 . S
C143 N141 1.375 . S
C143 C142 1.338 . S
C143 H147 0.931 . S
C144 N141 1.313 . S
C144 N145 1.344 . S
C144 H148 0.930 . S
N145 C142 1.377 . S
N145 C144 1.344 . S
O146 Co138 2.055 . S
O146 C150 1.253 . S
H147 C143 0.931 . S
H148 C144 0.930 . S
O149 Co138 2.039 . S
O149 C139 1.265 . S
C150 O146 1.253 . S
C150 O151 1.227 . S
O151 C150 1.227 . S
N152 Co138 2.140 . S
N152 C155 1.346 . S
N152 C156 1.345 . S
C153 C154 1.387 . S
C153 C157 1.391 . S
C154 C153 1.387 . S
C154 C155 1.369 . S
C154 H163 0.929 . S
C155 N152 1.346 . S
C155 C154 1.369 . S
C155 H158 0.928 . S
C156 N152 1.345 . S
C156 C157 1.371 . S
C156 H159 0.931 . S
C157 C153 1.391 . S
C157 C156 1.371 . S
C157 H164 0.930 . S
H158 C155 0.928 . S
H159 C156 0.931 . S
H160 C136 0.930 . S
H161 C133 0.930 . S
H162 C142 0.930 . S
H163 C154 0.929 . S
H164 C157 0.930 . S
C165 C166 1.351 . S
C165 N168 1.368 . S
C165 H170 0.931 . S
C166 C165 1.351 . S
C166 N167 1.373 . S
C166 H194 0.930 . S
N167 C166 1.373 . S
N167 C169 1.340 . S
N168 C165 1.368 . S
N168 C169 1.321 . S
N168 Co171 2.135 . S
C169 N167 1.340 . S
C169 N168 1.321 . S
C169 H193 0.930 1_655 S
H170 C165 0.931 . S
Co171 N168 2.135 . S
Co171 N174 2.121 . S
Co171 O179 2.055 . S
Co171 O182 2.039 . S
Co171 N185 2.140 1_655 S
C172 O173 1.227 . S
C172 O182 1.265 1_455 S
O173 C172 1.227 . S
N174 Co171 2.121 . S
N174 C176 1.375 1_655 S
N174 C177 1.313 . S
C175 C176 1.338 . S
C175 N178 1.377 1_455 S
C175 H195 0.930 . S
C176 N174 1.375 1_455 S
C176 C175 1.338 . S
C176 H180 0.931 . S
C177 N174 1.313 . S
C177 N178 1.344 . S
C177 H181 0.930 . S
N178 C175 1.377 1_655 S
N178 C177 1.344 . S
O179 Co171 2.055 . S
O179 C183 1.253 . S
H180 C176 0.931 . S
H181 C177 0.930 . S
O182 Co171 2.039 . S
O182 C172 1.265 1_655 S
C183 O179 1.253 . S
C183 O184 1.227 . S
O184 C183 1.227 . S
N185 Co171 2.140 1_455 S
N185 C188 1.346 . S
N185 C189 1.345 . S
C186 C187 1.387 . S
C186 C190 1.391 . S
C187 C186 1.387 . S
C187 C188 1.369 . S
C187 H196 0.929 . S
C188 N185 1.346 . S
C188 C187 1.369 . S
C188 H191 0.928 . S
C189 N185 1.345 . S
C189 C190 1.371 . S
C189 H192 0.931 . S
C190 C186 1.391 . S
C190 C189 1.371 . S
C190 H197 0.930 . S
H191 C188 0.928 . S
H192 C189 0.931 . S
H193 C169 0.930 1_455 S
H194 C166 0.930 . S
H195 C175 0.930 . S
H196 C187 0.929 . S
H197 C190 0.930 . S
C198 C199 1.351 . S
C198 N201 1.368 . S
C198 H203 0.931 . S
C199 C198 1.351 . S
C199 N200 1.373 . S
C199 H227 0.930 . S
N200 C199 1.373 . S
N200 C202 1.340 . S
N201 C198 1.368 . S
N201 C202 1.321 . S
N201 Co204 2.135 . S
C202 N200 1.340 . S
C202 N201 1.321 . S
C202 H226 0.930 . S
H203 C198 0.931 . S
Co204 N201 2.135 . S
Co204 N207 2.121 . S
Co204 O212 2.055 . S
Co204 O215 2.039 . S
Co204 N218 2.140 . S
C205 O206 1.227 . S
C205 O215 1.265 . S
O206 C205 1.227 . S
N207 Co204 2.121 . S
N207 C209 1.375 . S
N207 C210 1.313 . S
C208 C209 1.338 . S
C208 N211 1.377 . S
C208 H228 0.930 . S
C209 N207 1.375 . S
C209 C208 1.338 . S
C209 H213 0.931 . S
C210 N207 1.313 . S
C210 N211 1.344 . S
C210 H214 0.930 . S
N211 C208 1.377 . S
N211 C210 1.344 . S
O212 Co204 2.055 . S
O212 C216 1.253 . S
H213 C209 0.931 . S
H214 C210 0.930 . S
O215 Co204 2.039 . S
O215 C205 1.265 . S
C216 O212 1.253 . S
C216 O217 1.227 . S
O217 C216 1.227 . S
N218 Co204 2.140 . S
N218 C221 1.346 . S
N218 C222 1.345 . S
C219 C220 1.387 . S
C219 C223 1.391 . S
C220 C219 1.387 . S
C220 C221 1.369 . S
C220 H229 0.929 . S
C221 N218 1.346 . S
C221 C220 1.369 . S
C221 H224 0.928 . S
C222 N218 1.345 . S
C222 C223 1.371 . S
C222 H225 0.931 . S
C223 C219 1.391 . S
C223 C222 1.371 . S
C223 H230 0.930 . S
H224 C221 0.928 . S
H225 C222 0.931 . S
H226 C202 0.930 . S
H227 C199 0.930 . S
H228 C208 0.930 . S
H229 C220 0.929 . S
H230 C223 0.930 . S
C231 C232 1.351 . S
C231 N234 1.368 . S
C231 H236 0.931 . S
C232 C231 1.351 . S
C232 N233 1.373 . S
C232 H260 0.930 . S
N233 C232 1.373 . S
N233 C235 1.340 . S
N234 C231 1.368 . S
N234 C235 1.321 . S
N234 Co237 2.135 . S
C235 N233 1.340 . S
C235 N234 1.321 . S
C235 H259 0.930 1_655 S
H236 C231 0.931 . S
Co237 N234 2.135 . S
Co237 N240 2.121 . S
Co237 O245 2.055 . S
Co237 O248 2.039 . S
Co237 N251 2.140 1_655 S
C238 O239 1.227 . S
C238 O248 1.265 1_455 S
O239 C238 1.227 . S
N240 Co237 2.121 . S
N240 C242 1.375 1_655 S
N240 C243 1.313 . S
C241 C242 1.338 . S
C241 N244 1.377 1_455 S
C241 H261 0.930 . S
C242 N240 1.375 1_455 S
C242 C241 1.338 . S
C242 H246 0.931 . S
C243 N240 1.313 . S
C243 N244 1.344 . S
C243 H247 0.930 . S
N244 C241 1.377 1_655 S
N244 C243 1.344 . S
O245 Co237 2.055 . S
O245 C249 1.253 . S
H246 C242 0.931 . S
H247 C243 0.930 . S
O248 Co237 2.039 . S
O248 C238 1.265 1_655 S
C249 O245 1.253 . S
C249 O250 1.227 . S
O250 C249 1.227 . S
N251 Co237 2.140 1_455 S
N251 C254 1.346 . S
N251 C255 1.345 . S
C252 C253 1.387 . S
C252 C256 1.391 . S
C253 C252 1.387 . S
C253 C254 1.369 . S
C253 H262 0.929 . S
C254 N251 1.346 . S
C254 C253 1.369 . S
C254 H257 0.928 . S
C255 N251 1.345 . S
C255 C256 1.371 . S
C255 H258 0.931 . S
C256 C252 1.391 . S
C256 C255 1.371 . S
C256 H263 0.930 . S
H257 C254 0.928 . S
H258 C255 0.931 . S
H259 C235 0.930 1_455 S
H260 C232 0.930 . S
H261 C241 0.930 . S
H262 C253 0.929 . S
H263 C256 0.930 . S
H264 C270 0.930 . S
H265 C273 0.930 . S
H266 C274 0.930 . S
H267 C275 0.930 . S
H268 C278 0.930 . S
H269 C279 0.930 . S
C270 H264 0.930 . S
C270 C271 1.355 . S
C270 C272 1.415 1_556 S
C271 C270 1.355 . S
C271 C273 1.419 . S
C272 C270 1.415 1_554 S
C272 C277 1.425 1_554 S
C272 C279 1.409 . S
C273 H265 0.930 . S
C273 C271 1.419 . S
C273 C274 1.362 . S
C274 H266 0.930 . S
C274 C273 1.362 . S
C274 C277 1.409 . S
C275 H267 0.930 . S
C275 C276 1.355 . S
C275 C277 1.415 1_554 S
C276 C275 1.355 . S
C276 C278 1.419 . S
C277 C272 1.425 1_556 S
C277 C274 1.409 . S
C277 C275 1.415 1_556 S
C278 H268 0.930 . S
C278 C276 1.419 . S
C278 C279 1.362 . S
C279 H269 0.930 . S
C279 C272 1.409 . S
C279 C278 1.362 . S
H280 C286 0.930 . S
H281 C289 0.930 . S
H282 C290 0.930 . S
H283 C291 0.930 . S
H284 C294 0.930 . S
H285 C295 0.930 . S
C286 H280 0.930 . S
C286 C287 1.355 . S
C286 C288 1.415 . S
C287 C286 1.355 . S
C287 C289 1.419 . S
C288 C286 1.415 . S
C288 C293 1.425 . S
C288 C295 1.409 . S
C289 H281 0.930 . S
C289 C287 1.419 . S
C289 C290 1.362 . S
C290 H282 0.930 . S
C290 C289 1.362 . S
C290 C293 1.409 . S
C291 H283 0.930 . S
C291 C292 1.355 . S
C291 C293 1.415 . S
C292 C291 1.355 . S
C292 C294 1.419 . S
C293 C288 1.425 . S
C293 C290 1.409 . S
C293 C291 1.415 . S
C294 H284 0.930 . S
C294 C292 1.419 . S
C294 C295 1.362 . S
C295 H285 0.930 . S
C295 C288 1.409 . S
C295 C294 1.362 . S
H296 C302 0.930 . S
H297 C305 0.930 . S
H298 C306 0.930 . S
H299 C307 0.930 . S
H300 C310 0.930 . S
H301 C311 0.930 . S
C302 H296 0.930 . S
C302 C303 1.355 . S
C302 C304 1.415 1_554 S
C303 C302 1.355 . S
C303 C305 1.419 . S
C304 C302 1.415 1_556 S
C304 C309 1.425 1_556 S
C304 C311 1.409 . S
C305 H297 0.930 . S
C305 C303 1.419 . S
C305 C306 1.362 . S
C306 H298 0.930 . S
C306 C305 1.362 . S
C306 C309 1.409 . S
C307 H299 0.930 . S
C307 C308 1.355 . S
C307 C309 1.415 1_556 S
C308 C307 1.355 . S
C308 C310 1.419 . S
C309 C304 1.425 1_554 S
C309 C306 1.409 . S
C309 C307 1.415 1_554 S
C310 H300 0.930 . S
C310 C308 1.419 . S
C310 C311 1.362 . S
C311 H301 0.930 . S
C311 C304 1.409 . S
C311 C310 1.362 . S
H312 C318 0.930 . S
H313 C321 0.930 . S
H314 C322 0.930 . S
H315 C323 0.930 . S
H316 C326 0.930 . S
H317 C327 0.930 . S
C318 H312 0.930 . S
C318 C319 1.355 . S
C318 C320 1.415 . S
C319 C318 1.355 . S
C319 C321 1.419 . S
C320 C318 1.415 . S
C320 C325 1.425 . S
C320 C327 1.409 . S
C321 H313 0.930 . S
C321 C319 1.419 . S
C321 C322 1.362 . S
C322 H314 0.930 . S
C322 C321 1.362 . S
C322 C325 1.409 . S
C323 H315 0.930 . S
C323 C324 1.355 . S
C323 C325 1.415 . S
C324 C323 1.355 . S
C324 C326 1.419 . S
C325 C320 1.425 . S
C325 C322 1.409 . S
C325 C323 1.415 . S
C326 H316 0.930 . S
C326 C324 1.419 . S
C326 C327 1.362 . S
C327 H317 0.930 . S
C327 C320 1.409 . S
C327 C326 1.362 . S
H328 C334 0.930 . S
H329 C337 0.930 . S
H330 C338 0.930 . S
H331 C339 0.930 . S
H332 C342 0.930 1_554 S
H333 C343 0.930 . S
C334 H328 0.930 . S
C334 C335 1.355 . S
C334 C336 1.415 . S
C335 C334 1.355 . S
C335 C337 1.419 . S
C336 C334 1.415 . S
C336 C341 1.425 1_554 S
C336 C343 1.409 . S
C337 H329 0.930 . S
C337 C335 1.419 . S
C337 C338 1.362 1_554 S
C338 H330 0.930 . S
C338 C337 1.362 1_556 S
C338 C341 1.409 . S
C339 H331 0.930 . S
C339 C340 1.355 . S
C339 C341 1.415 . S
C340 C339 1.355 . S
C340 C342 1.419 . S
C341 C336 1.425 1_556 S
C341 C338 1.409 . S
C341 C339 1.415 . S
C342 H332 0.930 1_556 S
C342 C340 1.419 . S
C342 C343 1.362 1_556 S
C343 H333 0.930 . S
C343 C336 1.409 . S
C343 C342 1.362 1_554 S
H344 C350 0.930 . S
H345 C353 0.930 . S
H346 C354 0.930 . S
H347 C355 0.930 . S
H348 C358 0.930 . S
H349 C359 0.930 . S
C350 H344 0.930 . S
C350 C351 1.355 . S
C350 C352 1.415 . S
C351 C350 1.355 . S
C351 C353 1.419 . S
C352 C350 1.415 . S
C352 C357 1.425 . S
C352 C359 1.409 . S
C353 H345 0.930 . S
C353 C351 1.419 . S
C353 C354 1.362 . S
C354 H346 0.930 . S
C354 C353 1.362 . S
C354 C357 1.409 . S
C355 H347 0.930 . S
C355 C356 1.355 . S
C355 C357 1.415 . S
C356 C355 1.355 . S
C356 C358 1.419 . S
C357 C352 1.425 . S
C357 C354 1.409 . S
C357 C355 1.415 . S
C358 H348 0.930 . S
C358 C356 1.419 . S
C358 C359 1.362 . S
C359 H349 0.930 . S
C359 C352 1.409 . S
C359 C358 1.362 . S
H360 C366 0.930 1_556 S
H361 C369 0.930 . S
H362 C370 0.930 . S
H363 C371 0.930 . S
H364 C374 0.930 . S
H365 C375 0.930 . S
C366 H360 0.930 1_554 S
C366 C367 1.355 . S
C366 C368 1.415 1_554 S
C367 C366 1.355 . S
C367 C369 1.419 . S
C368 C366 1.415 1_556 S
C368 C373 1.425 1_556 S
C368 C375 1.409 . S
C369 H361 0.930 . S
C369 C367 1.419 . S
C369 C370 1.362 . S
C370 H362 0.930 . S
C370 C369 1.362 . S
C370 C373 1.409 . S
C371 H363 0.930 . S
C371 C372 1.355 . S
C371 C373 1.415 1_556 S
C372 C371 1.355 . S
C372 C374 1.419 . S
C373 C368 1.425 1_554 S
C373 C370 1.409 . S
C373 C371 1.415 1_554 S
C374 H364 0.930 . S
C374 C372 1.419 . S
C374 C375 1.362 . S
C375 H365 0.930 . S
C375 C368 1.409 . S
C375 C374 1.362 . S
H376 C382 0.930 . S
H377 C385 0.930 . S
H378 C386 0.930 . S
H379 C387 0.930 . S
H380 C390 0.930 . S
H381 C391 0.930 . S
C382 H376 0.930 . S
C382 C383 1.355 . S
C382 C384 1.415 . S
C383 C382 1.355 . S
C383 C385 1.419 . S
C384 C382 1.415 . S
C384 C389 1.425 . S
C384 C391 1.409 . S
C385 H377 0.930 . S
C385 C383 1.419 . S
C385 C386 1.362 . S
C386 H378 0.930 . S
C386 C385 1.362 . S
C386 C389 1.409 . S
C387 H379 0.930 . S
C387 C388 1.355 . S
C387 C389 1.415 . S
C388 C387 1.355 . S
C388 C390 1.419 . S
C389 C384 1.425 . S
C389 C386 1.409 . S
C389 C387 1.415 . S
C390 H380 0.930 . S
C390 C388 1.419 . S
C390 C391 1.362 . S
C391 H381 0.930 . S
C391 C384 1.409 . S
C391 C390 1.362 . S
H392 C398 0.930 . S
H393 C401 0.930 . S
H394 C402 0.930 . S
H395 C403 0.930 . S
H396 C406 0.930 . S
H397 C407 0.930 . S
C398 H392 0.930 . S
C398 C399 1.355 1_655 S
C398 C400 1.415 . S
C399 C398 1.355 1_455 S
C399 C401 1.419 . S
C400 C398 1.415 . S
C400 C405 1.425 1_655 S
C400 C407 1.409 . S
C401 H393 0.930 . S
C401 C399 1.419 . S
C401 C402 1.362 . S
C402 H394 0.930 . S
C402 C401 1.362 . S
C402 C405 1.409 . S
C403 H395 0.930 . S
C403 C404 1.355 . S
C403 C405 1.415 . S
C404 C403 1.355 . S
C404 C406 1.419 1_455 S
C405 C400 1.425 1_455 S
C405 C402 1.409 . S
C405 C403 1.415 . S
C406 H396 0.930 . S
C406 C404 1.419 1_655 S
C406 C407 1.362 . S
C407 H397 0.930 . S
C407 C400 1.409 . S
C407 C406 1.362 . S
H408 C414 0.930 . S
H409 C417 0.930 . S
H410 C418 0.930 . S
H411 C419 0.930 . S
H412 C422 0.930 . S
H413 C423 0.930 . S
C414 H408 0.930 . S
C414 C415 1.355 . S
C414 C416 1.415 . S
C415 C414 1.355 . S
C415 C417 1.419 . S
C416 C414 1.415 . S
C416 C421 1.425 . S
C416 C423 1.409 . S
C417 H409 0.930 . S
C417 C415 1.419 . S
C417 C418 1.362 . S
C418 H410 0.930 . S
C418 C417 1.362 . S
C418 C421 1.409 . S
C419 H411 0.930 . S
C419 C420 1.355 . S
C419 C421 1.415 . S
C420 C419 1.355 . S
C420 C422 1.419 . S
C421 C416 1.425 . S
C421 C418 1.409 . S
C421 C419 1.415 . S
C422 H412 0.930 . S
C422 C420 1.419 . S
C422 C423 1.362 . S
C423 H413 0.930 . S
C423 C416 1.409 . S
C423 C422 1.362 . S
H424 C430 0.930 . S
H425 C433 0.930 . S
H426 C434 0.930 . S
H427 C435 0.930 . S
H428 C438 0.930 . S
H429 C439 0.930 . S
C430 H424 0.930 . S
C430 C431 1.355 1_455 S
C430 C432 1.415 . S
C431 C430 1.355 1_655 S
C431 C433 1.419 . S
C432 C430 1.415 . S
C432 C437 1.425 1_455 S
C432 C439 1.409 . S
C433 H425 0.930 . S
C433 C431 1.419 . S
C433 C434 1.362 . S
C434 H426 0.930 . S
C434 C433 1.362 . S
C434 C437 1.409 . S
C435 H427 0.930 . S
C435 C436 1.355 1_655 S
C435 C437 1.415 . S
C436 C435 1.355 1_455 S
C436 C438 1.419 . S
C437 C432 1.425 1_655 S
C437 C434 1.409 . S
C437 C435 1.415 . S
C438 H428 0.930 . S
C438 C436 1.419 . S
C438 C439 1.362 . S
C439 H429 0.930 . S
C439 C432 1.409 . S
C439 C438 1.362 . S
H440 C446 0.930 . S
H441 C449 0.930 . S
H442 C450 0.930 . S
H443 C451 0.930 . S
H444 C454 0.930 . S
H445 C455 0.930 . S
C446 H440 0.930 . S
C446 C447 1.355 . S
C446 C448 1.415 . S
C447 C446 1.355 . S
C447 C449 1.419 . S
C448 C446 1.415 . S
C448 C453 1.425 . S
C448 C455 1.409 . S
C449 H441 0.930 . S
C449 C447 1.419 . S
C449 C450 1.362 . S
C450 H442 0.930 . S
C450 C449 1.362 . S
C450 C453 1.409 . S
C451 H443 0.930 . S
C451 C452 1.355 . S
C451 C453 1.415 . S
C452 C451 1.355 . S
C452 C454 1.419 . S
C453 C448 1.425 . S
C453 C450 1.409 . S
C453 C451 1.415 . S
C454 H444 0.930 . S
C454 C452 1.419 . S
C454 C455 1.362 . S
C455 H445 0.930 . S
C455 C448 1.409 . S
C455 C454 1.362 . S
H456 C462 0.930 . S
H457 C465 0.930 . S
H458 C466 0.930 1_545 S
H459 C467 0.930 . S
H460 C470 0.930 . S
H461 C471 0.930 1_565 S
C462 H456 0.930 . S
C462 C463 1.355 . S
C462 C464 1.415 . S
C463 C462 1.355 . S
C463 C465 1.419 . S
C464 C462 1.415 . S
C464 C469 1.425 1_565 S
C464 C471 1.409 1_565 S
C465 H457 0.930 . S
C465 C463 1.419 . S
C465 C466 1.362 . S
C466 H458 0.930 1_565 S
C466 C465 1.362 . S
C466 C469 1.409 1_565 S
C467 H459 0.930 . S
C467 C468 1.355 . S
C467 C469 1.415 . S
C468 C467 1.355 . S
C468 C470 1.419 . S
C469 C464 1.425 1_545 S
C469 C466 1.409 1_545 S
C469 C467 1.415 . S
C470 H460 0.930 . S
C470 C468 1.419 . S
C470 C471 1.362 . S
C471 H461 0.930 1_545 S
C471 C464 1.409 1_545 S
C471 C470 1.362 . S
H472 C478 0.930 . S
H473 C481 0.930 . S
H474 C482 0.930 1_545 S
H475 C483 0.930 . S
H476 C486 0.930 . S
H477 C487 0.930 . S
C478 H472 0.930 . S
C478 C479 1.355 . S
C478 C480 1.415 . S
C479 C478 1.355 . S
C479 C481 1.419 1_455 S
C480 C478 1.415 . S
C480 C485 1.425 1_565 S
C480 C487 1.409 1_565 S
C481 H473 0.930 . S
C481 C479 1.419 1_655 S
C481 C482 1.362 . S
C482 H474 0.930 1_565 S
C482 C481 1.362 . S
C482 C485 1.409 1_665 S
C483 H475 0.930 . S
C483 C484 1.355 1_655 S
C483 C485 1.415 1_655 S
C484 C483 1.355 1_455 S
C484 C486 1.419 . S
C485 C480 1.425 1_545 S
C485 C482 1.409 1_445 S
C485 C483 1.415 1_455 S
C486 H476 0.930 . S
C486 C484 1.419 . S
C486 C487 1.362 . S
C487 H477 0.930 . S
C487 C480 1.409 1_545 S
C487 C486 1.362 . S
H488 C494 0.930 . S
H489 C497 0.930 . S
H490 C498 0.930 . S
H491 C499 0.930 . S
H492 C502 0.930 . S
H493 C503 0.930 . S
C494 H488 0.930 . S
C494 C495 1.355 . S
C494 C496 1.415 1_565 S
C495 C494 1.355 . S
C495 C497 1.419 . S
C496 C494 1.415 1_545 S
C496 C501 1.425 1_545 S
C496 C503 1.409 . S
C497 H489 0.930 . S
C497 C495 1.419 . S
C497 C498 1.362 . S
C498 H490 0.930 . S
C498 C497 1.362 . S
C498 C501 1.409 . S
C499 H491 0.930 . S
C499 C500 1.355 . S
C499 C501 1.415 1_545 S
C500 C499 1.355 . S
C500 C502 1.419 . S
C501 C496 1.425 1_565 S
C501 C498 1.409 . S
C501 C499 1.415 1_565 S
C502 H492 0.930 . S
C502 C500 1.419 . S
C502 C503 1.362 . S
C503 H493 0.930 . S
C503 C496 1.409 . S
C503 C502 1.362 . S
H504 C510 0.930 . S
H505 C513 0.930 . S
H506 C514 0.930 1_655 S
H507 C515 0.930 . S
H508 C518 0.930 . S
H509 C519 0.930 . S
C510 H504 0.930 . S
C510 C511 1.355 . S
C510 C512 1.415 1_545 S
C511 C510 1.355 . S
C511 C513 1.419 . S
C512 C510 1.415 1_565 S
C512 C517 1.425 1_565 S
C512 C519 1.409 . S
C513 H505 0.930 . S
C513 C511 1.419 . S
C513 C514 1.362 . S
C514 H506 0.930 1_455 S
C514 C513 1.362 . S
C514 C517 1.409 . S
C515 H507 0.930 . S
C515 C516 1.355 . S
C515 C517 1.415 1_565 S
C516 C515 1.355 . S
C516 C518 1.419 . S
C517 C512 1.425 1_545 S
C517 C514 1.409 . S
C517 C515 1.415 1_545 S
C518 H508 0.930 . S
C518 C516 1.419 . S
C518 C519 1.362 . S
C519 H509 0.930 . S
C519 C512 1.409 . S
C519 C518 1.362 . S
H520 C526 0.930 1_554 S
H521 C529 0.930 . S
H522 C530 0.930 . S
H523 C531 0.930 1_556 S
H524 C534 0.930 . S
H525 C535 0.930 . S
C526 H520 0.930 1_556 S
C526 C527 1.355 . S
C526 C528 1.415 1_556 S
C527 C526 1.355 . S
C527 C529 1.419 . S
C528 C526 1.415 1_554 S
C528 C533 1.425 1_554 S
C528 C535 1.409 . S
C529 H521 0.930 . S
C529 C527 1.419 . S
C529 C530 1.362 . S
C530 H522 0.930 . S
C530 C529 1.362 . S
C530 C533 1.409 . S
C531 H523 0.930 1_554 S
C531 C532 1.355 . S
C531 C533 1.415 1_554 S
C532 C531 1.355 . S
C532 C534 1.419 . S
C533 C528 1.425 1_556 S
C533 C530 1.409 . S
C533 C531 1.415 1_556 S
C534 H524 0.930 . S
C534 C532 1.419 . S
C534 C535 1.362 . S
C535 H525 0.930 . S
C535 C528 1.409 . S
C535 C534 1.362 . S
H536 C542 0.930 . S
H537 C545 0.930 . S
H538 C546 0.930 . S
H539 C547 0.930 . S
H540 C550 0.930 . S
H541 C551 0.930 . S
C542 H536 0.930 . S
C542 C543 1.355 . S
C542 C544 1.415 . S
C543 C542 1.355 . S
C543 C545 1.419 . S
C544 C542 1.415 . S
C544 C549 1.425 . S
C544 C551 1.409 . S
C545 H537 0.930 . S
C545 C543 1.419 . S
C545 C546 1.362 . S
C546 H538 0.930 . S
C546 C545 1.362 . S
C546 C549 1.409 . S
C547 H539 0.930 . S
C547 C548 1.355 . S
C547 C549 1.415 . S
C548 C547 1.355 . S
C548 C550 1.419 . S
C549 C544 1.425 . S
C549 C546 1.409 . S
C549 C547 1.415 . S
C550 H540 0.930 . S
C550 C548 1.419 . S
C550 C551 1.362 . S
C551 H541 0.930 . S
C551 C544 1.409 . S
C551 C550 1.362 . S
H552 C558 0.930 1_554 S
H553 C561 0.930 . S
H554 C562 0.930 . S
H555 C563 0.930 1_556 S
H556 C566 0.930 . S
H557 C567 0.930 . S
C558 H552 0.930 1_556 S
C558 C559 1.355 . S
C558 C560 1.415 1_556 S
C559 C558 1.355 . S
C559 C561 1.419 . S
C560 C558 1.415 1_554 S
C560 C565 1.425 1_544 S
C560 C567 1.409 . S
C561 H553 0.930 . S
C561 C559 1.419 . S
C561 C562 1.362 1_545 S
C562 H554 0.930 . S
C562 C561 1.362 1_565 S
C562 C565 1.409 . S
C563 H555 0.930 1_554 S
C563 C564 1.355 . S
C563 C565 1.415 1_554 S
C564 C563 1.355 . S
C564 C566 1.419 . S
C565 C560 1.425 1_566 S
C565 C562 1.409 . S
C565 C563 1.415 1_556 S
C566 H556 0.930 . S
C566 C564 1.419 . S
C566 C567 1.362 1_565 S
C567 H557 0.930 . S
C567 C560 1.409 . S
C567 C566 1.362 1_545 S
H568 C574 0.930 . S
H569 C577 0.930 . S
H570 C578 0.930 . S
H571 C579 0.930 1_455 S
H572 C582 0.930 . S
H573 C583 0.930 . S
C574 H568 0.930 . S
C574 C575 1.355 . S
C574 C576 1.415 . S
C575 C574 1.355 . S
C575 C577 1.419 1_655 S
C576 C574 1.415 . S
C576 C581 1.425 1_565 S
C576 C583 1.409 . S
C577 H569 0.930 . S
C577 C575 1.419 1_455 S
C577 C578 1.362 1_565 S
C578 H570 0.930 . S
C578 C577 1.362 1_545 S
C578 C581 1.409 1_455 S
C579 H571 0.930 1_655 S
C579 C580 1.355 . S
C579 C581 1.415 . S
C580 C579 1.355 . S
C580 C582 1.419 . S
C581 C576 1.425 1_545 S
C581 C578 1.409 1_655 S
C581 C579 1.415 . S
C582 H572 0.930 . S
C582 C580 1.419 . S
C582 C583 1.362 1_545 S
C583 H573 0.930 . S
C583 C576 1.409 . S
C583 C582 1.362 1_565 S
C271 C219 1.761 . S
C276 C18 1.773 . S
C287 C51 1.775 . S
C292 C252 1.763 . S
C303 C153 1.764 . S
C308 C84 1.775 . S
C319 C117 1.820 . S
C324 C186 1.812 . S
C335 C150 1.776 . S
C340 C87 1.763 . S
C351 C183 1.820 . S
C356 C120 1.812 . S
C367 C21 1.771 . S
C372 C216 1.781 . S
C383 C54 1.792 . S
C388 C249 1.802 . S
C399 C7 1.936 . S
C404 N233 1.877 1_455 S
C415 C40 1.952 . S
C420 N200 1.899 . S
C431 N167 1.892 . S
C436 C73 1.950 . S
C447 C106 1.951 . S
C452 N134 1.918 . S
C463 C139 1.943 . S
C468 N101 1.878 . S
C479 N68 1.900 . S
C484 C172 1.933 . S
C495 N35 1.924 . S
C500 C205 1.946 . S
C511 N2 1.924 . S
C516 C238 1.945 . S
C527 N79 0.465 . S
C532 N13 0.430 . S
C543 N46 0.570 . S
C548 N112 0.613 . S
C559 N211 0.436 . S
C564 N145 0.456 . S
C575 N244 0.433 . S
C580 N178 0.461 . S
