# Generated by pormake.
# Topology ume, (4)-cn, num edge types: 1
# Building blocks:
#     Node 0, Type 0, BuildingBlock: QUQFOY_clean_sbu_1, # of connection points: 4
#     Node 1, Type 0, BuildingBlock: QUQFOY_clean_sbu_1, # of connection points: 4
#     Node 2, Type 0, BuildingBlock: QUQFOY_clean_sbu_1, # of connection points: 4
#     Node 3, Type 0, BuildingBlock: QUQFOY_clean_sbu_1, # of connection points: 4
#     Node 4, Type 0, BuildingBlock: QUQFOY_clean_sbu_1, # of connection points: 4
#     Node 5, Type 0, BuildingBlock: QUQFOY_clean_sbu_1, # of connection points: 4
#     Node 6, Type 0, BuildingBlock: QUQFOY_clean_sbu_1, # of connection points: 4
#     Node 7, Type 0, BuildingBlock: QUQFOY_clean_sbu_1, # of connection points: 4
#     Node 8, Type 0, BuildingBlock: QUQFOY_clean_sbu_1, # of connection points: 4
#     Node 9, Type 0, BuildingBlock: QUQFOY_clean_sbu_1, # of connection points: 4
#     Node 10, Type 0, BuildingBlock: QUQFOY_clean_sbu_1, # of connection points: 4
#     Node 11, Type 0, BuildingBlock: QUQFOY_clean_sbu_1, # of connection points: 4
#     Node 12, Type 0, BuildingBlock: QUQFOY_clean_sbu_1, # of connection points: 4
#     Node 13, Type 0, BuildingBlock: QUQFOY_clean_sbu_1, # of connection points: 4
#     Node 14, Type 0, BuildingBlock: QUQFOY_clean_sbu_1, # of connection points: 4
#     Node 15, Type 0, BuildingBlock: QUQFOY_clean_sbu_1, # of connection points: 4
#     Edge 16, Type (0, 0), BuildingBlock: UVAHIK_clean_linker_0, # of connection points: 2
#     Edge 17, Type (0, 0), BuildingBlock: UVAHIK_clean_linker_0, # of connection points: 2
#     Edge 18, Type (0, 0), BuildingBlock: UVAHIK_clean_linker_0, # of connection points: 2
#     Edge 19, Type (0, 0), BuildingBlock: UVAHIK_clean_linker_0, # of connection points: 2
#     Edge 20, Type (0, 0), BuildingBlock: UVAHIK_clean_linker_0, # of connection points: 2
#     Edge 21, Type (0, 0), BuildingBlock: UVAHIK_clean_linker_0, # of connection points: 2
#     Edge 22, Type (0, 0), BuildingBlock: UVAHIK_clean_linker_0, # of connection points: 2
#     Edge 23, Type (0, 0), BuildingBlock: UVAHIK_clean_linker_0, # of connection points: 2
#     Edge 24, Type (0, 0), BuildingBlock: UVAHIK_clean_linker_0, # of connection points: 2
#     Edge 25, Type (0, 0), BuildingBlock: UVAHIK_clean_linker_0, # of connection points: 2
#     Edge 26, Type (0, 0), BuildingBlock: UVAHIK_clean_linker_0, # of connection points: 2
#     Edge 27, Type (0, 0), BuildingBlock: UVAHIK_clean_linker_0, # of connection points: 2
#     Edge 28, Type (0, 0), BuildingBlock: UVAHIK_clean_linker_0, # of connection points: 2
#     Edge 29, Type (0, 0), BuildingBlock: UVAHIK_clean_linker_0, # of connection points: 2
#     Edge 30, Type (0, 0), BuildingBlock: UVAHIK_clean_linker_0, # of connection points: 2
#     Edge 31, Type (0, 0), BuildingBlock: UVAHIK_clean_linker_0, # of connection points: 2
#     Edge 32, Type (0, 0), BuildingBlock: UVAHIK_clean_linker_0, # of connection points: 2
#     Edge 33, Type (0, 0), BuildingBlock: UVAHIK_clean_linker_0, # of connection points: 2
#     Edge 34, Type (0, 0), BuildingBlock: UVAHIK_clean_linker_0, # of connection points: 2
#     Edge 35, Type (0, 0), BuildingBlock: UVAHIK_clean_linker_0, # of connection points: 2
#     Edge 36, Type (0, 0), BuildingBlock: UVAHIK_clean_linker_0, # of connection points: 2
#     Edge 37, Type (0, 0), BuildingBlock: UVAHIK_clean_linker_0, # of connection points: 2
#     Edge 38, Type (0, 0), BuildingBlock: UVAHIK_clean_linker_0, # of connection points: 2
#     Edge 39, Type (0, 0), BuildingBlock: UVAHIK_clean_linker_0, # of connection points: 2
#     Edge 40, Type (0, 0), BuildingBlock: UVAHIK_clean_linker_0, # of connection points: 2
#     Edge 41, Type (0, 0), BuildingBlock: UVAHIK_clean_linker_0, # of connection points: 2
#     Edge 42, Type (0, 0), BuildingBlock: UVAHIK_clean_linker_0, # of connection points: 2
#     Edge 43, Type (0, 0), BuildingBlock: UVAHIK_clean_linker_0, # of connection points: 2
#     Edge 44, Type (0, 0), BuildingBlock: UVAHIK_clean_linker_0, # of connection points: 2
#     Edge 45, Type (0, 0), BuildingBlock: UVAHIK_clean_linker_0, # of connection points: 2
#     Edge 46, Type (0, 0), BuildingBlock: UVAHIK_clean_linker_0, # of connection points: 2
#     Edge 47, Type (0, 0), BuildingBlock: UVAHIK_clean_linker_0, # of connection points: 2
# Relax obj value: 0.049
# Max RMSD: 0.120
# Mean RMSD: 0.120
data_MOF--net-ume--node1-QUQFOY_clean_sbu_1--edge1-UVAHIK_clean_linker_0
_symmetry_space_group_name_H-M    P1
_symmetry_Int_Tables_number       1
_symmetry_cell_setting            triclinic
loop_
_symmetry_equiv_pos_as_xyz
'x, y, z'
_cell_length_a     36.893981
_cell_length_b     36.872337
_cell_length_c     148.20074
_cell_angle_alpha  90.011399
_cell_angle_beta   89.984657
_cell_angle_gamma 89.958152
loop_
_atom_site_label
_atom_site_type_symbol
_atom_site_fract_x
_atom_site_fract_y
_atom_site_fract_z
_atom_type_partial_charge
O0 O 0.24549 0.09911 0.32955 0.0
Cd1 Cd 0.24906 0.07922 0.31656 0.0
Cd2 Cd 0.27588 0.14604 0.31403 0.0
O3 O 0.2571 0.1568 0.32694 0.0
O4 O 0.21527 0.03661 0.31635 0.0
O5 O 0.20605 0.08639 0.30838 0.0
C6 C 0.19474 0.05495 0.31097 0.0
C7 C 0.25891 0.17623 0.30092 0.0
C8 C 0.24812 0.13161 0.33236 0.0
C9 C 0.3277 0.08397 0.31185 0.0
O10 O 0.32396 0.11793 0.31304 0.0
O11 O 0.3002 0.0631 0.3122 0.0
O12 O 0.28042 0.19134 0.30668 0.0
O13 O 0.24525 0.14502 0.30293 0.0
O14 O 0.91273 0.7479 0.57899 0.0
Cd15 Cd 0.93192 0.74717 0.5659 0.0
Cd16 Cd 0.86654 0.776 0.56319 0.0
O17 O 0.85538 0.76114 0.57639 0.0
O18 O 0.97285 0.71146 0.566 0.0
O19 O 0.92256 0.70313 0.55818 0.0
C20 C 0.95365 0.69097 0.56081 0.0
C21 C 0.8327 0.75977 0.55056 0.0
C22 C 0.8806 0.75277 0.58187 0.0
C23 C 0.93113 0.82447 0.56027 0.0
O24 O 0.89709 0.8223 0.56149 0.0
O25 O 0.95085 0.79625 0.56093 0.0
O26 O 0.82115 0.7841 0.55613 0.0
O27 O 0.86237 0.74289 0.55253 0.0
O28 O 0.26701 0.41112 0.82901 0.0
Cd29 Cd 0.26464 0.43148 0.81604 0.0
Cd30 Cd 0.23519 0.36591 0.81342 0.0
O31 O 0.25197 0.35419 0.82644 0.0
O32 O 0.29971 0.47294 0.81604 0.0
O33 O 0.3077 0.42343 0.80789 0.0
C34 C 0.31983 0.45439 0.81062 0.0
C35 C 0.25084 0.33316 0.80056 0.0
C36 C 0.26229 0.37891 0.83185 0.0
C37 C 0.18626 0.43054 0.81111 0.0
O38 O 0.18867 0.3964 0.81215 0.0
O39 O 0.21448 0.45029 0.81166 0.0
O40 O 0.22709 0.32093 0.80619 0.0
O41 O 0.2674 0.36296 0.80258 0.0
O42 O 0.60244 0.76886 0.07912 0.0
Cd43 Cd 0.58101 0.76516 0.06626 0.0
Cd44 Cd 0.64617 0.73501 0.06337 0.0
O45 O 0.65849 0.75112 0.07638 0.0
O46 O 0.53957 0.80024 0.06629 0.0
O47 O 0.58837 0.80755 0.05785 0.0
C48 C 0.55764 0.81993 0.06068 0.0
C49 C 0.68018 0.74921 0.0506 0.0
C50 C 0.63462 0.76294 0.08183 0.0
C51 C 0.58138 0.68628 0.06149 0.0
O52 O 0.61563 0.68866 0.06218 0.0
O53 O 0.56172 0.71454 0.06225 0.0
O54 O 0.69154 0.72574 0.05642 0.0
O55 O 0.65043 0.76635 0.05236 0.0
O56 O 0.24941 0.41288 0.93075 0.0
Cd57 Cd 0.24824 0.43252 0.9438 0.0
Cd58 Cd 0.27649 0.36707 0.94672 0.0
O59 O 0.26168 0.35543 0.93354 0.0
O60 O 0.21265 0.47354 0.94356 0.0
O61 O 0.20391 0.4234 0.95142 0.0
C62 C 0.19193 0.45447 0.94872 0.0
C63 C 0.2601 0.33367 0.95942 0.0
C64 C 0.25389 0.38053 0.92798 0.0
C65 C 0.32528 0.43148 0.94957 0.0
O66 O 0.32294 0.39741 0.94838 0.0
O67 O 0.29719 0.45135 0.94886 0.0
O68 O 0.28438 0.32184 0.95387 0.0
O69 O 0.24335 0.36335 0.95738 0.0
O70 O 0.60242 0.74238 0.18094 0.0
Cd71 Cd 0.58096 0.74562 0.1938 0.0
Cd72 Cd 0.64572 0.77639 0.19674 0.0
O73 O 0.65826 0.76064 0.18371 0.0
O74 O 0.53999 0.71007 0.19375 0.0
O75 O 0.58894 0.70318 0.20217 0.0
C76 C 0.55835 0.6905 0.19934 0.0
C77 C 0.67973 0.76229 0.20951 0.0
C78 C 0.63454 0.74868 0.17824 0.0
C79 C 0.58033 0.82439 0.19867 0.0
O80 O 0.61461 0.82239 0.19798 0.0
O81 O 0.56102 0.79594 0.19787 0.0
O82 O 0.69092 0.78595 0.20372 0.0
O83 O 0.65019 0.7449 0.20771 0.0
O84 O 0.25943 0.09798 0.43127 0.0
Cd85 Cd 0.26022 0.07835 0.44432 0.0
Cd86 Cd 0.23357 0.14451 0.44728 0.0
O87 O 0.24817 0.15565 0.43406 0.0
O88 O 0.29544 0.03698 0.44414 0.0
O89 O 0.30445 0.08718 0.45197 0.0
C90 C 0.31623 0.05598 0.44931 0.0
C91 C 0.25054 0.17815 0.4599 0.0
C92 C 0.25545 0.13038 0.42849 0.0
C93 C 0.18339 0.08103 0.45017 0.0
O94 O 0.18663 0.11506 0.44905 0.0
O95 O 0.2109 0.06042 0.44936 0.0
O96 O 0.22636 0.19009 0.45434 0.0
O97 O 0.2669 0.1482 0.45791 0.0
O98 O 0.91317 0.76434 0.68105 0.0
Cd99 Cd 0.93237 0.76175 0.69412 0.0
Cd100 Cd 0.86602 0.7346 0.69658 0.0
O101 O 0.85561 0.75181 0.68353 0.0
O102 O 0.97424 0.7962 0.69438 0.0
O103 O 0.92404 0.80482 0.70223 0.0
C104 C 0.95542 0.81654 0.6997 0.0
C105 C 0.83161 0.74972 0.70923 0.0
C106 C 0.88091 0.76089 0.67815 0.0
C107 C 0.92898 0.68371 0.69917 0.0
O108 O 0.89502 0.68717 0.69798 0.0
O109 O 0.94962 0.7113 0.69864 0.0
O110 O 0.81981 0.72686 0.70332 0.0
O111 O 0.86201 0.76587 0.70761 0.0
O112 O 0.74562 0.60042 0.82897 0.0
Cd113 Cd 0.74842 0.57992 0.81601 0.0
Cd114 Cd 0.77636 0.64613 0.81332 0.0
O115 O 0.75948 0.65762 0.82634 0.0
O116 O 0.71374 0.53812 0.81598 0.0
O117 O 0.70545 0.58761 0.80783 0.0
C118 C 0.69354 0.55654 0.81054 0.0
C119 C 0.76032 0.67873 0.80046 0.0
C120 C 0.74968 0.63278 0.83177 0.0
C121 C 0.82666 0.58241 0.81105 0.0
O122 O 0.82341 0.61651 0.81202 0.0
O123 O 0.79895 0.56197 0.81167 0.0
O124 O 0.78386 0.69127 0.80611 0.0
O125 O 0.74414 0.64872 0.80247 0.0
O126 O 0.40875 0.24402 0.07926 0.0
Cd127 Cd 0.43026 0.24783 0.06641 0.0
Cd128 Cd 0.36466 0.27687 0.06342 0.0
O129 O 0.35249 0.26092 0.07645 0.0
O130 O 0.47185 0.21292 0.06639 0.0
O131 O 0.42298 0.20549 0.05798 0.0
C132 C 0.45378 0.1932 0.06078 0.0
C133 C 0.33069 0.26231 0.05067 0.0
C134 C 0.37645 0.24957 0.08193 0.0
C135 C 0.42884 0.32655 0.06154 0.0
O136 O 0.39462 0.32356 0.06218 0.0
O137 O 0.44898 0.29867 0.06238 0.0
O138 O 0.31916 0.28569 0.05649 0.0
O139 O 0.36058 0.24542 0.05242 0.0
O140 O 0.76721 0.91143 0.32931 0.0
Cd141 Cd 0.76528 0.93172 0.31633 0.0
Cd142 Cd 0.73502 0.86654 0.31372 0.0
O143 O 0.75143 0.85469 0.32675 0.0
O144 O 0.80085 0.97274 0.31636 0.0
O145 O 0.80837 0.92311 0.30822 0.0
C146 C 0.82082 0.95394 0.31095 0.0
C147 C 0.75052 0.83365 0.30086 0.0
C148 C 0.76201 0.87931 0.33216 0.0
C149 C 0.68699 0.9318 0.31134 0.0
O150 O 0.68895 0.89764 0.31238 0.0
O151 O 0.71545 0.9512 0.31193 0.0
O152 O 0.72652 0.82167 0.30647 0.0
O153 O 0.7674 0.86323 0.30291 0.0
O154 O 0.09699 0.26388 0.57905 0.0
Cd155 Cd 0.0782 0.26172 0.56594 0.0
Cd156 Cd 0.14461 0.23465 0.56356 0.0
O157 O 0.15467 0.25162 0.57665 0.0
O158 O 0.03631 0.29623 0.56568 0.0
O159 O 0.08676 0.30507 0.55795 0.0
C160 C 0.0553 0.31674 0.56045 0.0
C161 C 0.17923 0.24995 0.55097 0.0
C162 C 0.12919 0.26044 0.582 0.0
C163 C 0.0818 0.18381 0.56081 0.0
O164 O 0.11571 0.18723 0.56208 0.0
O165 O 0.06111 0.2114 0.56131 0.0
O166 O 0.19097 0.22702 0.55687 0.0
O167 O 0.14877 0.26606 0.55256 0.0
O168 O 0.74797 0.91377 0.43113 0.0
Cd169 Cd 0.74697 0.93266 0.44425 0.0
Cd170 Cd 0.77474 0.86718 0.44702 0.0
O171 O 0.75931 0.85611 0.43386 0.0
O172 O 0.71141 0.97366 0.44418 0.0
O173 O 0.70275 0.92302 0.45186 0.0
C174 C 0.69074 0.95426 0.44928 0.0
C175 C 0.75969 0.83225 0.45958 0.0
C176 C 0.75191 0.88141 0.42832 0.0
C177 C 0.82402 0.9311 0.44993 0.0
O178 O 0.82151 0.89711 0.44863 0.0
O179 O 0.79598 0.9511 0.44934 0.0
O180 O 0.78321 0.82108 0.45375 0.0
O181 O 0.74286 0.86227 0.45792 0.0
O182 O 0.09651 0.24674 0.68127 0.0
Cd183 Cd 0.07803 0.24645 0.69443 0.0
Cd184 Cd 0.14341 0.27481 0.69695 0.0
O185 O 0.15406 0.25912 0.68379 0.0
O186 O 0.03712 0.21086 0.69452 0.0
O187 O 0.08787 0.20261 0.70217 0.0
C188 C 0.05663 0.19045 0.69966 0.0
C189 C 0.17858 0.26005 0.70949 0.0
C190 C 0.12864 0.25102 0.67835 0.0
C191 C 0.07929 0.3239 0.69987 0.0
O192 O 0.11326 0.32149 0.69855 0.0
O193 O 0.05946 0.29573 0.69936 0.0
O194 O 0.18957 0.28351 0.70363 0.0
O195 O 0.14863 0.2431 0.70787 0.0
O196 O 0.76066 0.59858 0.93065 0.0
Cd197 Cd 0.76139 0.57886 0.94369 0.0
Cd198 Cd 0.7349 0.64505 0.94666 0.0
O199 O 0.74983 0.6563 0.93347 0.0
O200 O 0.79659 0.53748 0.94352 0.0
O201 O 0.80562 0.5877 0.95134 0.0
C202 C 0.81739 0.55649 0.94868 0.0
C203 C 0.75168 0.67843 0.95934 0.0
C204 C 0.75696 0.63104 0.92789 0.0
C205 C 0.68453 0.58171 0.94951 0.0
O206 O 0.68784 0.61572 0.94837 0.0
O207 O 0.71202 0.56105 0.94873 0.0
O208 O 0.72767 0.69055 0.95376 0.0
O209 O 0.768 0.64847 0.95734 0.0
O210 O 0.40875 0.26765 0.18097 0.0
Cd211 Cd 0.43037 0.26306 0.19379 0.0
Cd212 Cd 0.36413 0.23492 0.19674 0.0
O213 O 0.35208 0.25232 0.18382 0.0
O214 O 0.47285 0.29699 0.19379 0.0
O215 O 0.42423 0.30552 0.20222 0.0
C216 C 0.45524 0.31712 0.1994 0.0
C217 C 0.33421 0.252 0.20988 0.0
C218 C 0.37626 0.26319 0.17833 0.0
C219 C 0.427 0.18389 0.19844 0.0
O220 O 0.39284 0.18732 0.1977 0.0
O221 O 0.44753 0.21158 0.19779 0.0
O222 O 0.31931 0.2299 0.20423 0.0
O223 O 0.36508 0.26615 0.20775 0.0
C224 C 0.87242 0.99762 0.31252 0.0
C225 C 0.85792 0.96617 0.30856 0.0
C226 C 0.90861 0.00727 0.31109 0.0
C227 C 0.98245 0.03099 0.30442 0.0
H228 H 0.05333 0.95336 0.30469 0.0
C229 C 0.13581 0.06168 0.30263 0.0
C230 C 0.15808 0.04167 0.3085 0.0
C231 C 0.09979 0.05132 0.30114 0.0
C232 C 0.03395 0.97542 0.30463 0.0
H233 H 0.86982 0.92096 0.29968 0.0
H234 H 0.93282 0.93822 0.29701 0.0
H235 H 0.98902 0.9388 0.30499 0.0
H236 H 0.16022 0.99435 0.31717 0.0
H237 H 0.09752 0.97673 0.31473 0.0
H238 H 0.02732 0.06765 0.30455 0.0
C239 C 0.91639 0.95505 0.30139 0.0
C240 C 0.99694 0.96704 0.30468 0.0
C241 C 0.88016 0.94529 0.30286 0.0
C242 C 0.1439 0.01033 0.31258 0.0
C243 C 0.10786 1.0001 0.31113 0.0
C244 C 0.01944 0.03937 0.30443 0.0
C245 C 0.9313 0.98585 0.30561 0.0
C246 C 0.97065 0.99472 0.30472 0.0
C247 C 0.08507 0.0208 0.30552 0.0
C248 C 0.04574 0.01172 0.30468 0.0
H249 H 0.85615 0.01427 0.31698 0.0
H250 H 0.91911 0.03085 0.31456 0.0
H251 H 0.96307 0.05306 0.3043 0.0
H252 H 0.14593 0.08588 0.29934 0.0
H253 H 0.08333 0.06756 0.29663 0.0
C254 C 0.99725 0.6393 0.5625 0.0
C255 C 0.96594 0.6538 0.55848 0.0
C256 C 0.00715 0.60317 0.56104 0.0
C257 C 0.03168 0.52962 0.55432 0.0
H258 H 0.95449 0.4584 0.55397 0.0
C259 C 0.06317 0.37618 0.55236 0.0
C260 C 0.04252 0.35365 0.55803 0.0
C261 C 0.05295 0.41232 0.5509 0.0
C262 C 0.97644 0.47787 0.5541 0.0
H263 H 0.92122 0.64199 0.54946 0.0
H264 H 0.93896 0.57913 0.54672 0.0
H265 H 0.93955 0.52262 0.55441 0.0
H266 H 0.99432 0.35121 0.56638 0.0
H267 H 0.97698 0.41403 0.56401 0.0
H268 H 0.06855 0.48486 0.55451 0.0
C269 C 0.95547 0.59547 0.55118 0.0
C270 C 0.96785 0.51485 0.55422 0.0
C271 C 0.94542 0.63162 0.5527 0.0
C272 C 0.0108 0.36773 0.56195 0.0
C273 C 1.00072 0.40384 0.56054 0.0
C274 C 0.04027 0.49264 0.55427 0.0
C275 C 0.98616 0.58056 0.55545 0.0
C276 C 0.99535 0.54126 0.55448 0.0
C277 C 0.02194 0.42686 0.55511 0.0
C278 C 0.01277 0.46621 0.55431 0.0
H279 H 0.01361 0.65554 0.56703 0.0
H280 H 0.03062 0.59267 0.56456 0.0
H281 H 0.05364 0.54909 0.55437 0.0
H282 H 0.08769 0.36616 0.5492 0.0
H283 H 0.06963 0.42897 0.54655 0.0
C284 C 0.63435 0.56399 0.80233 0.0
C285 C 0.65668 0.54366 0.80812 0.0
C286 C 0.59826 0.55377 0.80085 0.0
C287 C 0.51784 0.54145 0.80413 0.0
H288 H 0.48788 0.44072 0.80441 0.0
C289 C 0.37108 0.49849 0.8122 0.0
C290 C 0.35677 0.46705 0.8082 0.0
C291 C 0.40717 0.50848 0.81075 0.0
C292 C 0.49566 0.46901 0.80418 0.0
H293 H 0.65881 0.49601 0.81668 0.0
H294 H 0.59606 0.47863 0.81425 0.0
H295 H 0.5521 0.45558 0.80411 0.0
H296 H 0.36887 0.42226 0.79921 0.0
H297 H 0.43166 0.44013 0.7965 0.0
H298 H 0.4614 0.55488 0.80408 0.0
C299 C 0.60638 0.50214 0.81071 0.0
C300 C 0.53262 0.47756 0.80414 0.0
C301 C 0.64245 0.51224 0.81215 0.0
C302 C 0.37907 0.44657 0.80243 0.0
C303 C 0.41519 0.45668 0.80093 0.0
C304 C 0.48088 0.5329 0.80412 0.0
C305 C 0.58357 0.52306 0.80515 0.0
C306 C 0.54426 0.5139 0.80429 0.0
C307 C 0.42994 0.48743 0.80521 0.0
C308 C 0.46924 0.49656 0.80432 0.0
H309 H 0.64449 0.58828 0.79909 0.0
H310 H 0.58175 0.57022 0.7964 0.0
H311 H 0.52561 0.56975 0.80433 0.0
H312 H 0.35476 0.51484 0.81672 0.0
H313 H 0.41755 0.53202 0.81427 0.0
C314 C 0.49823 0.14212 0.06225 0.0
C315 C 0.46676 0.15643 0.05826 0.0
C316 C 0.50847 0.10611 0.06073 0.0
C317 C 0.53332 0.03258 0.05402 0.0
H318 H 0.45637 0.96109 0.05397 0.0
C319 C 0.56501 0.87898 0.05236 0.0
C320 C 0.54473 0.85675 0.05818 0.0
C321 C 0.5547 0.91506 0.05083 0.0
C322 C 0.47825 0.98064 0.054 0.0
H323 H 0.42218 0.14441 0.04922 0.0
H324 H 0.44047 0.08174 0.0464 0.0
H325 H 0.44122 0.02529 0.05425 0.0
H326 H 0.49705 0.85479 0.06674 0.0
H327 H 0.47951 0.91746 0.0642 0.0
H328 H 0.57034 0.98792 0.05425 0.0
C329 C 0.45686 0.09817 0.05087 0.0
C330 C 0.46954 0.0176 0.05403 0.0
C331 C 0.44651 0.13422 0.05243 0.0
C332 C 0.51326 0.87106 0.06218 0.0
C333 C 0.50306 0.90708 0.06068 0.0
C334 C 0.54203 0.99562 0.05403 0.0
C335 C 0.48763 0.08341 0.05514 0.0
C336 C 0.49695 0.04412 0.0542 0.0
C337 C 0.52393 0.92981 0.0551 0.0
C338 C 0.51462 0.9691 0.05418 0.0
H339 H 0.51441 0.15837 0.06682 0.0
H340 H 0.53201 0.09573 0.06425 0.0
H341 H 0.5552 0.05214 0.054 0.0
H342 H 0.58934 0.86879 0.04915 0.0
H343 H 0.57112 0.9315 0.04636 0.0
C344 C 0.14049 0.49826 0.94688 0.0
C345 C 0.15468 0.46685 0.95093 0.0
C346 C 0.10432 0.50823 0.94822 0.0
C347 C 0.0305 0.53285 0.95473 0.0
H348 H 0.95912 0.45577 0.95474 0.0
C349 C 0.87708 0.56435 0.95663 0.0
C350 C 0.85454 0.54391 0.95092 0.0
C351 C 0.91324 0.55415 0.95803 0.0
C352 C 0.97864 0.47769 0.9547 0.0
H353 H 0.14225 0.42203 0.95987 0.0
H354 H 0.07931 0.43988 0.9624 0.0
H355 H 0.0233 0.44068 0.95445 0.0
H356 H 0.85214 0.49617 0.94239 0.0
H357 H 0.91503 0.47886 0.94467 0.0
H358 H 0.98585 0.56985 0.9545 0.0
C359 C 0.09594 0.45641 0.95801 0.0
C360 C 0.01558 0.46901 0.95467 0.0
C361 C 0.13214 0.44631 0.95662 0.0
C362 C 0.86867 0.51247 0.94687 0.0
C363 C 0.90481 0.50241 0.94822 0.0
C364 C 0.99356 0.54152 0.9547 0.0
C365 C 0.08135 0.4872 0.95371 0.0
C366 C 0.04205 0.49647 0.95454 0.0
C367 C 0.92779 0.52336 0.95372 0.0
C368 C 0.96709 0.51407 0.95455 0.0
H369 H 0.15702 0.51464 0.94242 0.0
H370 H 0.09408 0.53178 0.94468 0.0
H371 H 0.05001 0.55476 0.95478 0.0
H372 H 0.86701 0.58864 0.95989 0.0
H373 H 0.92987 0.57062 0.96244 0.0
C374 C 0.44919 0.37592 0.20787 0.0
C375 C 0.46879 0.35369 0.2019 0.0
C376 C 0.45977 0.4119 0.20939 0.0
C377 C 0.47195 0.49234 0.20613 0.0
H378 H 0.5726 0.52226 0.20538 0.0
C379 C 0.51434 0.6391 0.1979 0.0
C380 C 0.54591 0.65351 0.20181 0.0
C381 C 0.50451 0.60298 0.19938 0.0
C382 C 0.54435 0.51447 0.20574 0.0
H383 H 0.51563 0.35157 0.19307 0.0
H384 H 0.53366 0.41417 0.19557 0.0
H385 H 0.55772 0.45797 0.20566 0.0
H386 H 0.59116 0.64152 0.21065 0.0
H387 H 0.5736 0.5786 0.2134 0.0
H388 H 0.45858 0.54882 0.2063 0.0
C389 C 0.51043 0.40383 0.19921 0.0
C390 C 0.53578 0.47749 0.20578 0.0
C391 C 0.49996 0.36786 0.19774 0.0
C392 C 0.56672 0.63126 0.20751 0.0
C393 C 0.55679 0.59507 0.20903 0.0
C394 C 0.48053 0.52931 0.20614 0.0
C395 C 0.49013 0.42659 0.20493 0.0
C396 C 0.49944 0.46588 0.2058 0.0
C397 C 0.52587 0.58025 0.20485 0.0
C398 C 0.51682 0.54092 0.20577 0.0
H399 H 0.42512 0.36582 0.21122 0.0
H400 H 0.44383 0.42834 0.21396 0.0
H401 H 0.44365 0.4846 0.20606 0.0
H402 H 0.49773 0.65539 0.19344 0.0
H403 H 0.48083 0.59254 0.19594 0.0
C404 C 0.36755 0.01206 0.44745 0.0
C405 C 0.35336 0.04337 0.45155 0.0
C406 C 0.40368 1.00197 0.44882 0.0
C407 C 0.47744 0.97708 0.4553 0.0
H408 H 0.54876 0.05418 0.45562 0.0
C409 C 0.63095 0.94565 0.45715 0.0
C410 C 0.65349 0.96651 0.45154 0.0
C411 C 0.59474 0.95567 0.45857 0.0
C412 C 0.52926 0.03225 0.4555 0.0
H413 H 0.36569 0.08786 0.46061 0.0
H414 H 0.42851 0.06978 0.46318 0.0
H415 H 0.48461 0.06925 0.45533 0.0
H416 H 0.65583 0.01475 0.44319 0.0
H417 H 0.59289 0.03174 0.44549 0.0
H418 H 0.52211 0.94011 0.45498 0.0
C419 C 0.41195 0.05343 0.45873 0.0
C420 C 0.49233 0.04092 0.45546 0.0
C421 C 0.37582 0.06367 0.45731 0.0
C422 C 0.6393 0.99813 0.44759 0.0
C423 C 0.60313 0.00801 0.44896 0.0
C424 C 0.51438 0.96842 0.45527 0.0
C425 C 0.42658 0.02277 0.45438 0.0
C426 C 0.46587 0.01346 0.45522 0.0
C427 C 0.58015 0.98668 0.45437 0.0
C428 C 0.54084 0.99589 0.45522 0.0
H429 H 0.35109 0.99587 0.44294 0.0
H430 H 0.41395 0.97852 0.44523 0.0
H431 H 0.45794 0.95515 0.45526 0.0
H432 H 0.64106 0.9212 0.46033 0.0
H433 H 0.57811 0.9389 0.46291 0.0
C434 C 0.0129 0.13887 0.69816 0.0
C435 C 0.04449 0.1533 0.70205 0.0
C436 C 1.00312 0.10273 0.69965 0.0
C437 C 0.97916 0.02908 0.70636 0.0
H438 H 0.05647 0.95786 0.70626 0.0
C439 C 0.94792 0.8756 0.70799 0.0
C440 C 0.9683 0.85332 0.70219 0.0
C441 C 0.9582 0.91165 0.70953 0.0
C442 C 0.03449 0.97734 0.70626 0.0
H443 H 0.08985 0.14137 0.71086 0.0
H444 H 0.07234 0.0785 0.71365 0.0
H445 H 0.07128 0.02209 0.7059 0.0
H446 H 0.0161 0.85123 0.69369 0.0
H447 H 0.03352 0.91391 0.69619 0.0
H448 H 0.94234 0.98434 0.70621 0.0
C449 C 0.0555 0.0949 0.70927 0.0
C450 C 0.04302 0.01432 0.70619 0.0
C451 C 0.06542 0.13106 0.70773 0.0
C452 C 0.99983 0.86755 0.69822 0.0
C453 C 0.00996 0.90358 0.69971 0.0
C454 C 0.97063 0.99211 0.70636 0.0
C455 C 0.02453 0.08005 0.70512 0.0
C456 C 0.01547 0.04073 0.70608 0.0
C457 C 0.98899 0.92636 0.70527 0.0
C458 C 0.99816 0.96568 0.70616 0.0
H459 H 0.99621 0.15515 0.69372 0.0
H460 H 0.97943 0.09229 0.69622 0.0
H461 H 0.95718 0.04855 0.70644 0.0
H462 H 0.92356 0.86544 0.71119 0.0
H463 H 0.94173 0.92811 0.71399 0.0
C464 C 0.6198 0.92702 0.30918 0.0
C465 C 0.65098 0.94881 0.30987 0.0
C466 C 0.58546 0.94268 0.3084 0.0
C467 C 0.53607 0.02716 0.31344 0.0
H468 H 0.46119 0.98385 0.29857 0.0
C469 C 0.39469 0.0922 0.30993 0.0
C470 C 0.36458 0.06888 0.31041 0.0
C471 C 0.42976 0.07828 0.3091 0.0
C472 C 0.48171 0.99609 0.30281 0.0
H473 H 0.6704 1.00431 0.31 0.0
H474 H 0.61035 0.03169 0.30854 0.0
H475 H 0.52247 0.95889 0.2983 0.0
H476 H 0.34785 0.0125 0.31018 0.0
H477 H 0.4092 0.98817 0.30878 0.0
H478 H 0.4953 0.06411 0.31802 0.0
C479 C 0.61254 1.00241 0.30874 0.0
C480 C 0.51687 0.98181 0.30265 0.0
C481 C 0.64699 0.98671 0.30952 0.0
C482 C 0.37039 0.03125 0.30982 0.0
C483 C 0.40556 0.01731 0.30898 0.0
C484 C 0.50096 0.04145 0.31359 0.0
C485 C 0.58131 0.98056 0.30827 0.0
C486 C 0.54443 0.99701 0.30801 0.0
C487 C 0.4357 0.04067 0.30872 0.0
C488 C 0.47328 0.02596 0.30832 0.0
H489 H 0.62176 0.89773 0.30943 0.0
H490 H 0.56204 0.92501 0.30817 0.0
H491 H 0.55641 0.03916 0.31777 0.0
H492 H 0.39129 0.12134 0.3103 0.0
H493 H 0.45227 0.09707 0.30876 0.0
C494 C 0.9855 0.86468 0.55802 0.0
C495 C 0.94769 0.86052 0.55858 0.0
C496 C 1.00089 0.89921 0.55715 0.0
C497 C 0.97936 0.99504 0.55129 0.0
H498 H 0.06258 0.01629 0.56634 0.0
C499 C 0.02899 0.1414 0.55869 0.0
C500 C 0.06662 0.14712 0.55916 0.0
C501 C 0.01502 0.10627 0.55775 0.0
C502 C 0.03966 0.01073 0.562 0.0
H503 H 0.89641 0.88947 0.55837 0.0
H504 H 0.92318 0.94936 0.55695 0.0
H505 H 0.03787 0.95514 0.56609 0.0
H506 H 0.11906 0.12039 0.55869 0.0
H507 H 0.09475 0.05953 0.55697 0.0
H508 H 0.9809 0.05091 0.54732 0.0
C509 C 0.94101 0.92602 0.55709 0.0
C510 C 0.02551 0.97559 0.56184 0.0
C511 C 0.92565 0.89158 0.55797 0.0
C512 C 0.08991 0.11704 0.55843 0.0
C513 C 0.07598 0.08204 0.55749 0.0
C514 C 0.9935 0.03025 0.55146 0.0
C515 C 0.97883 0.93035 0.55679 0.0
C516 C 0.99505 0.96732 0.55653 0.0
C517 C 0.03837 0.07613 0.55727 0.0
C518 C 0.02373 0.03855 0.55685 0.0
H519 H 1.00328 0.84136 0.55844 0.0
H520 H 0.03012 0.90154 0.5568 0.0
H521 H 0.95616 0.98951 0.54703 0.0
H522 H 0.01027 0.16393 0.55925 0.0
H523 H 0.98589 0.10265 0.55767 0.0
C524 C 0.14569 0.4849 0.80906 0.0
C525 C 0.15002 0.44708 0.80965 0.0
C526 C 0.11107 0.50021 0.80825 0.0
C527 C 0.01532 0.4781 0.80252 0.0
H528 H 0.99388 0.56265 0.81713 0.0
C529 C 0.86889 0.52905 0.80939 0.0
C530 C 0.86332 0.56678 0.80959 0.0
C531 C 0.90398 0.51477 0.80863 0.0
C532 C 0.99949 0.53932 0.81291 0.0
H533 H 0.12122 0.39573 0.80963 0.0
H534 H 0.06122 0.42236 0.80834 0.0
H535 H 0.05502 0.53781 0.81704 0.0
H536 H 0.89033 0.61901 0.80885 0.0
H537 H 0.95109 0.59416 0.80745 0.0
H538 H 0.95953 0.4794 0.7985 0.0
C539 C 0.08449 0.44025 0.80839 0.0
C540 C 0.03463 0.5251 0.81285 0.0
C541 C 0.119 0.42497 0.80919 0.0
C542 C 0.89353 0.58981 0.80878 0.0
C543 C 0.92849 0.57558 0.80803 0.0
C544 C 0.98013 0.4923 0.80259 0.0
C545 C 0.08001 0.47806 0.808 0.0
C546 C 0.04298 0.4942 0.80769 0.0
C547 C 0.93424 0.53791 0.80807 0.0
C548 C 0.97176 0.52302 0.80781 0.0
H549 H 0.16896 0.50273 0.80936 0.0
H550 H 0.10865 0.52943 0.80785 0.0
H551 H 0.0209 0.45457 0.79837 0.0
H552 H 0.84626 0.51052 0.81001 0.0
H553 H 0.90748 0.48561 0.80875 0.0
C554 C 0.52691 0.64558 0.05982 0.0
C555 C 0.56473 0.64997 0.06019 0.0
C556 C 0.51164 0.6109 0.05913 0.0
C557 C 0.53383 0.51499 0.05335 0.0
H558 H 0.44969 0.49359 0.06807 0.0
C559 C 0.48255 0.36848 0.06016 0.0
C560 C 0.44481 0.36315 0.06023 0.0
C561 C 0.49704 0.40353 0.0595 0.0
C562 C 0.47294 0.49919 0.06384 0.0
H563 H 0.61611 0.62118 0.05994 0.0
H564 H 0.58959 0.56113 0.05887 0.0
H565 H 0.47447 0.55476 0.06797 0.0
H566 H 0.3928 0.3906 0.05939 0.0
H567 H 0.41801 0.45123 0.05819 0.0
H568 H 0.53253 0.45913 0.04934 0.0
C569 C 0.57164 0.58438 0.05899 0.0
C570 C 0.4871 0.53435 0.06376 0.0
C571 C 0.58686 0.61894 0.05966 0.0
C572 C 0.422 0.39359 0.05942 0.0
C573 C 0.43644 0.42848 0.05878 0.0
C574 C 0.51972 0.47976 0.05346 0.0
C575 C 0.53383 0.57982 0.05879 0.0
C576 C 0.51782 0.54271 0.05854 0.0
C577 C 0.4741 0.43397 0.05892 0.0
C578 C 0.48913 0.47143 0.05872 0.0
H579 H 0.50906 0.66887 0.06018 0.0
H580 H 0.48241 0.60844 0.05887 0.0
H581 H 0.55721 0.52054 0.04916 0.0
H582 H 0.50091 0.34569 0.06079 0.0
H583 H 0.52619 0.40685 0.05969 0.0
C584 C 0.39235 0.42571 0.95183 0.0
C585 C 0.36136 0.44787 0.9513 0.0
C586 C 0.4268 0.44093 0.95277 0.0
C587 C 0.47658 0.5258 0.94845 0.0
H588 H 0.55173 0.47969 0.96272 0.0
C589 C 0.61799 0.58966 0.95222 0.0
C590 C 0.64799 0.56639 0.95125 0.0
C591 C 0.58303 0.57568 0.95314 0.0
C592 C 0.5311 0.49273 0.95866 0.0
H593 H 0.34236 0.50353 0.95164 0.0
H594 H 0.40255 0.53012 0.95341 0.0
H595 H 0.4903 0.45506 0.96287 0.0
H596 H 0.66468 0.51001 0.95077 0.0
H597 H 0.60344 0.48556 0.95233 0.0
H598 H 0.51735 0.56323 0.94417 0.0
C599 C 0.40017 0.50091 0.95294 0.0
C600 C 0.49588 0.47864 0.95874 0.0
C601 C 0.36562 0.48566 0.95199 0.0
C602 C 0.64222 0.52871 0.95151 0.0
C603 C 0.60712 0.51469 0.95243 0.0
C604 C 0.51172 0.53991 0.94838 0.0
C605 C 0.43123 0.47874 0.95323 0.0
C606 C 0.46823 0.49485 0.95358 0.0
C607 C 0.57706 0.53806 0.95312 0.0
C608 C 0.53948 0.52344 0.95344 0.0
H609 H 0.39017 0.39649 0.95132 0.0
H610 H 0.45008 0.42302 0.95285 0.0
H611 H 0.45619 0.53859 0.94427 0.0
H612 H 0.62137 0.61884 0.95213 0.0
H613 H 0.56057 0.59443 0.95382 0.0
C614 C 0.52536 0.86459 0.2002 0.0
C615 C 0.56324 0.86049 0.2 0.0
C616 C 0.50972 0.89912 0.2009 0.0
C617 C 0.53055 0.99491 0.20702 0.0
H618 H 0.44805 0.01657 0.19175 0.0
C619 C 0.48028 0.14153 0.20007 0.0
C620 C 0.44259 0.14708 0.19972 0.0
C621 C 0.49454 0.1064 0.20078 0.0
C622 C 0.47081 0.01088 0.19615 0.0
H623 H 0.61433 0.88965 0.20059 0.0
H624 H 0.58718 0.94944 0.20168 0.0
H625 H 0.47301 0.95541 0.19194 0.0
H626 H 0.39038 0.11991 0.20007 0.0
H627 H 0.4152 0.05907 0.20135 0.0
H628 H 0.5286 0.05064 0.21111 0.0
C629 C 0.56945 0.92607 0.20142 0.0
C630 C 0.48508 0.97574 0.19627 0.0
C631 C 0.58504 0.89166 0.20072 0.0
C632 C 0.41956 0.11675 0.20027 0.0
C633 C 0.43378 0.08175 0.20095 0.0
C634 C 0.51632 0.03011 0.20688 0.0
C635 C 0.5316 0.93034 0.20143 0.0
C636 C 0.51526 0.96733 0.20167 0.0
C637 C 0.47142 0.07606 0.20112 0.0
C638 C 0.48635 0.03855 0.20141 0.0
H639 H 0.50775 0.84118 0.19968 0.0
H640 H 0.48045 0.90137 0.20101 0.0
H641 H 0.55347 0.9893 0.21137 0.0
H642 H 0.4988 0.16424 0.19965 0.0
H643 H 0.52369 0.10294 0.20081 0.0
C644 C 0.89114 0.92504 0.45207 0.0
C645 C 0.86019 0.94729 0.45167 0.0
C646 C 0.92564 0.94013 0.45304 0.0
C647 C 0.9755 0.02519 0.44903 0.0
H648 H 0.05069 0.9782 0.4631 0.0
C649 C 0.1169 0.08883 0.45298 0.0
C650 C 0.14689 0.06563 0.45192 0.0
C651 C 0.08195 0.0748 0.45387 0.0
C652 C 0.03005 0.99148 0.45909 0.0
H653 H 0.8413 1.00296 0.45226 0.0
H654 H 0.90156 0.02932 0.45406 0.0
H655 H 0.98926 0.95355 0.46316 0.0
H656 H 0.1636 0.00928 0.45125 0.0
H657 H 0.10239 0.98473 0.45275 0.0
H658 H 0.01625 0.06289 0.44488 0.0
C659 C 0.89912 1.00014 0.45348 0.0
C660 C 0.99484 0.97739 0.45913 0.0
C661 C 0.86453 0.98502 0.45251 0.0
C662 C 0.14114 0.02793 0.45206 0.0
C663 C 0.10606 0.01386 0.45296 0.0
C664 C 0.01064 0.0393 0.44901 0.0
C665 C 0.93015 0.9779 0.45364 0.0
C666 C 0.96717 0.99393 0.45404 0.0
C667 C 0.07599 0.03717 0.45372 0.0
C668 C 0.03841 0.02253 0.454 0.0
H669 H 0.88889 0.89586 0.45144 0.0
H670 H 0.94889 0.92219 0.45302 0.0
H671 H 0.9551 0.03825 0.4449 0.0
H672 H 0.12027 0.11801 0.45298 0.0
H673 H 0.05949 0.0935 0.45462 0.0
C674 C 0.08507 0.39108 0.70199 0.0
C675 C 0.06292 0.36009 0.70152 0.0
C676 C 0.06984 0.42562 0.70282 0.0
C677 C 0.98526 0.47535 0.6982 0.0
H678 H 0.03051 0.55096 0.71248 0.0
C679 C 0.921 0.61696 0.70159 0.0
C680 C 0.94425 0.64702 0.70078 0.0
C681 C 0.93499 0.58197 0.70251 0.0
C682 C 0.01773 0.53022 0.7084 0.0
H683 H 0.00728 0.34117 0.70186 0.0
H684 H 0.98068 0.40152 0.70342 0.0
H685 H 0.05522 0.48952 0.7128 0.0
H686 H 1.00058 0.66377 0.70055 0.0
H687 H 0.02505 0.60249 0.7021 0.0
H688 H 0.94804 0.516 0.69372 0.0
C689 C 0.00989 0.39906 0.703 0.0
C690 C 0.03186 0.49498 0.70859 0.0
C691 C 0.02514 0.36444 0.70217 0.0
C692 C 0.9819 0.64126 0.70116 0.0
C693 C 0.99592 0.60614 0.70209 0.0
C694 C 0.97114 0.51051 0.69802 0.0
C695 C 0.03204 0.43012 0.70322 0.0
C696 C 0.01592 0.46716 0.70345 0.0
C697 C 0.9726 0.57603 0.70265 0.0
C698 C 0.98729 0.53844 0.70308 0.0
H699 H 0.11428 0.38883 0.70151 0.0
H700 H 0.08772 0.4489 0.70286 0.0
H701 H 0.9727 0.4548 0.69402 0.0
H702 H 0.89184 0.62034 0.70139 0.0
H703 H 0.91625 0.55949 0.70309 0.0
C704 C 0.25005 0.17349 0.34583 0.0
C705 C 0.2429 0.1391 0.34212 0.0
C706 C 0.24803 0.17905 0.35519 0.0
C707 C 0.21298 0.13648 0.37631 0.0
H708 H 0.29096 0.18894 0.38804 0.0
C709 C 0.25533 0.10806 0.41259 0.0
C710 C 0.25601 0.13747 0.41863 0.0
C711 C 0.25208 0.11383 0.40333 0.0
C712 C 0.26877 0.17468 0.38484 0.0
H713 H 0.22715 0.08388 0.34535 0.0
H714 H 0.22424 0.09332 0.36148 0.0
H715 H 0.28648 0.18916 0.37154 0.0
H716 H 0.25532 0.19618 0.4196 0.0
H717 H 0.25061 0.20622 0.40323 0.0
H718 H 0.19649 0.12041 0.38957 0.0
C719 C 0.23082 0.11628 0.35723 0.0
C720 C 0.26607 0.17487 0.37539 0.0
C721 C 0.23277 0.11077 0.34794 0.0
C722 C 0.2548 0.17295 0.41513 0.0
C723 C 0.25213 0.17874 0.40579 0.0
C724 C 0.21596 0.13593 0.38569 0.0
C725 C 0.23871 0.15036 0.36101 0.0
C726 C 0.23872 0.15487 0.37101 0.0
C727 C 0.24995 0.14913 0.39984 0.0
C728 C 0.24438 0.15422 0.39003 0.0
H729 H 0.25794 0.19591 0.34154 0.0
H730 H 0.25397 0.20573 0.35786 0.0
H731 H 0.191 0.12159 0.37319 0.0
H732 H 0.25621 0.08036 0.41501 0.0
H733 H 0.25091 0.09057 0.39887 0.0
C734 C 0.83861 0.75435 0.59534 0.0
C735 C 0.87387 0.75199 0.59174 0.0
C736 C 0.83328 0.75687 0.6047 0.0
C737 C 0.87801 0.79105 0.62473 0.0
H738 H 0.82259 0.72238 0.63893 0.0
C739 C 0.90248 0.77443 0.66252 0.0
C740 C 0.87381 0.76542 0.66835 0.0
C741 C 0.89718 0.77605 0.65322 0.0
C742 C 0.83754 0.74229 0.63506 0.0
H743 H 0.93104 0.74955 0.59523 0.0
H744 H 0.92164 0.75463 0.6114 0.0
H745 H 0.82235 0.71796 0.62243 0.0
H746 H 0.81664 0.75191 0.66892 0.0
H747 H 0.80718 0.75538 0.65258 0.0
H748 H 0.89337 0.81553 0.63721 0.0
C749 C 0.89819 0.75445 0.607 0.0
C750 C 0.83746 0.73962 0.62562 0.0
C751 C 0.90349 0.75134 0.59772 0.0
C752 C 0.83933 0.75892 0.66462 0.0
C753 C 0.83397 0.76066 0.65526 0.0
C754 C 0.87772 0.79404 0.63411 0.0
C755 C 0.86315 0.75777 0.61057 0.0
C756 C 0.85862 0.76332 0.62041 0.0
C757 C 0.86296 0.76899 0.64944 0.0
C758 C 0.85851 0.76896 0.63943 0.0
H759 H 0.81523 0.75486 0.59092 0.0
H760 H 0.80598 0.75933 0.60732 0.0
H761 H 0.89409 0.81001 0.62084 0.0
H762 H 0.92946 0.77947 0.66512 0.0
H763 H 0.92037 0.78182 0.64898 0.0
C764 C 0.27783 0.39927 0.84745 0.0
C765 C 0.26684 0.3713 0.84162 0.0
C766 C 0.27943 0.39372 0.85675 0.0
C767 C 0.24225 0.33619 0.8749 0.0
H768 H 0.31335 0.38857 0.88909 0.0
C769 C 0.25425 0.33778 0.91465 0.0
C770 C 0.2533 0.37332 0.91813 0.0
C771 C 0.25677 0.33186 0.90531 0.0
C772 C 0.29346 0.37362 0.8852 0.0
H773 H 0.24982 0.31505 0.84103 0.0
H774 H 0.25322 0.30512 0.85735 0.0
H775 H 0.31887 0.38724 0.87271 0.0
H776 H 0.25347 0.43038 0.91446 0.0
H777 H 0.2586 0.41992 0.89833 0.0
H778 H 0.21698 0.32278 0.88754 0.0
C779 C 0.26009 0.33158 0.85469 0.0
C780 C 0.29645 0.37301 0.87582 0.0
C781 C 0.25839 0.3372 0.84533 0.0
C782 C 0.25413 0.40264 0.91206 0.0
C783 C 0.25727 0.39673 0.9028 0.0
C784 C 0.23957 0.33641 0.88434 0.0
C785 C 0.27035 0.35993 0.86052 0.0
C786 C 0.27018 0.3554 0.87052 0.0
C787 C 0.25909 0.36138 0.89935 0.0
C788 C 0.26454 0.35612 0.88953 0.0
H789 H 0.28444 0.42594 0.84487 0.0
H790 H 0.28674 0.41645 0.861 0.0
H791 H 0.22143 0.32251 0.87104 0.0
H792 H 0.25361 0.31462 0.91914 0.0
H793 H 0.25807 0.30434 0.90277 0.0
C794 C 0.61979 0.78738 0.09711 0.0
C795 C 0.64288 0.76685 0.09156 0.0
C796 C 0.62392 0.78695 0.10647 0.0
C797 C 0.6845 0.75871 0.12534 0.0
H798 H 0.59309 0.7525 0.13815 0.0
C799 C 0.62001 0.72436 0.16294 0.0
C800 C 0.64287 0.74501 0.1685 0.0
C801 C 0.62415 0.72496 0.15358 0.0
C802 C 0.61894 0.75373 0.1347 0.0
H803 H 0.68963 0.7312 0.09147 0.0
H804 H 0.69635 0.72973 0.10787 0.0
H805 H 0.59309 0.75939 0.12192 0.0
H806 H 0.68924 0.78108 0.16863 0.0
H807 H 0.69599 0.78285 0.15223 0.0
H808 H 0.71022 0.75192 0.13822 0.0
C809 C 0.67533 0.7466 0.10497 0.0
C810 C 0.61894 0.75838 0.12537 0.0
C811 C 0.67145 0.74738 0.09556 0.0
C812 C 0.67124 0.7648 0.16452 0.0
C813 C 0.67514 0.76575 0.15511 0.0
C814 C 0.68451 0.75389 0.13473 0.0
C815 C 0.65091 0.76555 0.11055 0.0
C816 C 0.65165 0.7611 0.12055 0.0
C817 C 0.65093 0.74667 0.14952 0.0
C818 C 0.65166 0.75123 0.13952 0.0
H819 H 0.59782 0.80307 0.09423 0.0
H820 H 0.60527 0.80274 0.11053 0.0
H821 H 0.71021 0.76087 0.12186 0.0
H822 H 0.5982 0.70842 0.1658 0.0
H823 H 0.60568 0.70907 0.14951 0.0
C824 C 0.75327 0.67458 0.84525 0.0
C825 C 0.74496 0.64043 0.84154 0.0
C826 C 0.75146 0.68024 0.8546 0.0
C827 C 0.71487 0.63892 0.87572 0.0
H828 H 0.79439 0.68885 0.88749 0.0
C829 C 0.75647 0.60897 0.91197 0.0
C830 C 0.75768 0.63826 0.91804 0.0
C831 C 0.75343 0.61494 0.90271 0.0
C832 C 0.77178 0.67532 0.88427 0.0
H833 H 0.72746 0.58576 0.84479 0.0
H834 H 0.72492 0.59534 0.86092 0.0
H835 H 0.79008 0.6892 0.87098 0.0
H836 H 0.75816 0.69696 0.91907 0.0
H837 H 0.75384 0.70733 0.9027 0.0
H838 H 0.69778 0.62338 0.88897 0.0
C839 C 0.73224 0.61807 0.85666 0.0
C840 C 0.76918 0.67558 0.87483 0.0
C841 C 0.73398 0.61246 0.84737 0.0
C842 C 0.75721 0.67382 0.91457 0.0
C843 C 0.75477 0.67979 0.90523 0.0
C844 C 0.71776 0.63828 0.8851 0.0
C845 C 0.7412 0.65189 0.86043 0.0
C846 C 0.74124 0.65645 0.87043 0.0
C847 C 0.75206 0.65032 0.89926 0.0
C848 C 0.74671 0.65566 0.88945 0.0
H849 H 0.76184 0.69672 0.84095 0.0
H850 H 0.75825 0.70672 0.85727 0.0
H851 H 0.69245 0.62474 0.87259 0.0
H852 H 0.75676 0.58122 0.91436 0.0
H853 H 0.75181 0.59177 0.89823 0.0
C854 C 0.3391 0.2485 0.1646 0.0
C855 C 0.36791 0.26752 0.16861 0.0
C856 C 0.33524 0.24783 0.15519 0.0
C857 C 0.39195 0.2591 0.13482 0.0
H858 H 0.30072 0.25292 0.12194 0.0
C859 C 0.33963 0.26543 0.09565 0.0
C860 C 0.36814 0.24579 0.09167 0.0
C861 C 0.33573 0.26638 0.10505 0.0
C862 C 0.32642 0.25483 0.12543 0.0
H863 H 0.41341 0.30314 0.16598 0.0
H864 H 0.40595 0.3031 0.14968 0.0
H865 H 0.30067 0.26203 0.13829 0.0
H866 H 0.41306 0.20946 0.09436 0.0
H867 H 0.40554 0.21002 0.11066 0.0
H868 H 0.41786 0.25308 0.12205 0.0
C869 C 0.38711 0.28752 0.15373 0.0
C870 C 0.32639 0.25972 0.13482 0.0
C871 C 0.39124 0.2878 0.16309 0.0
C872 C 0.39114 0.22527 0.09723 0.0
C873 C 0.38697 0.22584 0.10659 0.0
C874 C 0.39198 0.25441 0.12548 0.0
C875 C 0.35991 0.26647 0.14963 0.0
C876 C 0.35922 0.262 0.13962 0.0
C877 C 0.36006 0.24743 0.11065 0.0
C878 C 0.35929 0.25201 0.12065 0.0
H879 H 0.32074 0.23251 0.16869 0.0
H880 H 0.31405 0.23123 0.15228 0.0
H881 H 0.41779 0.26 0.13827 0.0
H882 H 0.32152 0.28161 0.09154 0.0
H883 H 0.31477 0.28339 0.10793 0.0
C884 C 0.77743 0.89969 0.34777 0.0
C885 C 0.76625 0.87177 0.34195 0.0
C886 C 0.77872 0.89425 0.35707 0.0
C887 C 0.74042 0.8374 0.37521 0.0
H888 H 0.81172 0.88918 0.38947 0.0
C889 C 0.75166 0.83884 0.41496 0.0
C890 C 0.75122 0.87435 0.41846 0.0
C891 C 0.75419 0.83298 0.40562 0.0
C892 C 0.79176 0.87441 0.38557 0.0
H893 H 0.74858 0.81572 0.34138 0.0
H894 H 0.75145 0.80599 0.35771 0.0
H895 H 0.81762 0.88763 0.37311 0.0
H896 H 0.75228 0.93144 0.41484 0.0
H897 H 0.75742 0.92107 0.39869 0.0
H898 H 0.71472 0.82436 0.38783 0.0
C899 C 0.7587 0.83232 0.35503 0.0
C900 C 0.79496 0.87367 0.37619 0.0
C901 C 0.75731 0.83782 0.34567 0.0
C902 C 0.75254 0.90373 0.41242 0.0
C903 C 0.75568 0.89786 0.40316 0.0
C904 C 0.73752 0.83774 0.38465 0.0
C905 C 0.76914 0.86063 0.36086 0.0
C906 C 0.76866 0.85626 0.37086 0.0
C907 C 0.75703 0.86251 0.39968 0.0
C908 C 0.76256 0.85724 0.38987 0.0
H909 H 0.78442 0.92624 0.34518 0.0
H910 H 0.78619 0.91696 0.36131 0.0
H911 H 0.71956 0.82388 0.37133 0.0
H912 H 0.75063 0.81565 0.41944 0.0
H913 H 0.75511 0.80546 0.40307 0.0
C914 C 0.17041 0.25222 0.66484 0.0
C915 C 0.13519 0.24997 0.66847 0.0
C916 C 0.1756 0.2547 0.65547 0.0
C917 C 0.13043 0.28888 0.63549 0.0
H918 H 0.18687 0.2211 0.62124 0.0
C919 C 0.10704 0.2732 0.59762 0.0
C920 C 0.13598 0.26466 0.59182 0.0
C921 C 0.11207 0.27452 0.60694 0.0
C922 C 0.17162 0.24075 0.62513 0.0
H923 H 0.07798 0.24755 0.66504 0.0
H924 H 0.08715 0.25251 0.64885 0.0
H925 H 0.1869 0.21631 0.63774 0.0
H926 H 0.19329 0.25165 0.59133 0.0
H927 H 0.20226 0.25461 0.60768 0.0
H928 H 0.11501 0.3135 0.62303 0.0
C929 C 0.11066 0.25233 0.65323 0.0
C930 C 0.17157 0.23787 0.63456 0.0
C931 C 0.10549 0.24928 0.66252 0.0
C932 C 0.17041 0.25832 0.5956 0.0
C933 C 0.17549 0.25976 0.60497 0.0
C934 C 0.13083 0.29208 0.62611 0.0
C935 C 0.14565 0.25562 0.64963 0.0
C936 C 0.15007 0.26126 0.63979 0.0
C937 C 0.14626 0.26762 0.61077 0.0
C938 C 0.15044 0.26733 0.62077 0.0
H939 H 0.19386 0.25276 0.66923 0.0
H940 H 0.20286 0.25713 0.65283 0.0
H941 H 0.1141 0.30763 0.63939 0.0
H942 H 0.08009 0.27811 0.59499 0.0
H943 H 0.08871 0.27993 0.61115 0.0
C944 C 0.24559 0.16947 0.28451 0.0
C945 C 0.25366 0.19211 0.29185 0.0
C946 C 0.24677 0.18282 0.27569 0.0
C947 C 0.28659 0.25949 0.26255 0.0
H948 H 0.23815 0.20963 0.24298 0.0
C949 C 0.34125 0.26553 0.22628 0.0
C950 C 0.3185 0.25743 0.21896 0.0
C951 C 0.32802 0.26441 0.23511 0.0
C952 C 0.25146 0.22463 0.2483 0.0
H953 H 0.26667 0.24712 0.29579 0.0
H954 H 0.26636 0.27118 0.28047 0.0
H955 H 0.22153 0.19611 0.25837 0.0
H956 H 0.26345 0.24451 0.21508 0.0
H957 H 0.23961 0.24497 0.23042 0.0
H958 H 0.3151 0.28944 0.25248 0.0
C959 C 0.26085 0.24261 0.28142 0.0
C960 C 0.24238 0.21621 0.25722 0.0
C961 C 0.26062 0.22897 0.29024 0.0
C962 C 0.28168 0.25056 0.22061 0.0
C963 C 0.26816 0.25041 0.22944 0.0
C964 C 0.29495 0.26864 0.25363 0.0
C965 C 0.25516 0.21948 0.27398 0.0
C966 C 0.26074 0.23251 0.2645 0.0
C967 C 0.2914 0.25606 0.23686 0.0
C968 C 0.2785 0.25042 0.24635 0.0
H969 H 0.24048 0.14082 0.28552 0.0
H970 H 0.24285 0.16373 0.27024 0.0
H971 H 0.30169 0.27269 0.26787 0.0
H972 H 0.36987 0.27057 0.22523 0.0
H973 H 0.34719 0.2683 0.24055 0.0
C974 C 0.77496 0.78139 0.47011 0.0
C975 C 0.75553 0.81342 0.46836 0.0
C976 C 0.77652 0.7671 0.47884 0.0
C977 C 0.7375 0.77361 0.50199 0.0
H978 H 0.8358 0.75071 0.50928 0.0
C979 C 0.7865 0.77762 0.539 0.0
C980 C 0.8149 0.75459 0.54168 0.0
C981 C 0.77402 0.77739 0.53008 0.0
C982 C 0.80801 0.75617 0.50736 0.0
H983 H 0.72052 0.85424 0.47429 0.0
H984 H 0.72352 0.82953 0.48953 0.0
H985 H 0.8229 0.7635 0.49355 0.0
H986 H 0.8506 0.71133 0.53728 0.0
H987 H 0.82832 0.71036 0.52178 0.0
H988 H 0.72292 0.7672 0.5159 0.0
C989 C 0.73737 0.81525 0.48416 0.0
C990 C 0.80059 0.76357 0.49831 0.0
C991 C 0.73574 0.82951 0.47541 0.0
C992 C 0.82887 0.72962 0.53541 0.0
C993 C 0.81628 0.72927 0.52651 0.0
C994 C 0.74492 0.7661 0.51107 0.0
C995 C 0.75877 0.78455 0.48603 0.0
C996 C 0.76538 0.77297 0.49552 0.0
C997 C 0.78955 0.754 0.52365 0.0
C998 C 0.78042 0.75789 0.5139 0.0
H999 H 0.79029 0.76813 0.46482 0.0
H1000 H 0.79264 0.743 0.48001 0.0
H1001 H 0.71 0.78033 0.50006 0.0
H1002 H 0.77511 0.79721 0.54365 0.0
H1003 H 0.75363 0.79701 0.52814 0.0
C1004 C 0.1817 0.23611 0.72531 0.0
C1005 C 0.19749 0.2561 0.71826 0.0
C1006 C 0.19594 0.23792 0.73406 0.0
C1007 C 0.24664 0.30182 0.74821 0.0
H1008 H 0.24428 0.22402 0.76579 0.0
C1009 C 0.28043 0.33031 0.78534 0.0
C1010 C 0.25586 0.31582 0.79162 0.0
C1011 C 0.28078 0.31789 0.77641 0.0
C1012 C 0.24501 0.24606 0.76096 0.0
H1013 H 0.24228 0.29142 0.71471 0.0
H1014 H 0.26738 0.29411 0.7299 0.0
H1015 H 0.23134 0.21095 0.74994 0.0
H1016 H 0.21391 0.2754 0.79359 0.0
H1017 H 0.21409 0.25423 0.77805 0.0
H1018 H 0.25895 0.33721 0.75919 0.0
C1019 C 0.24351 0.27768 0.72873 0.0
C1020 C 0.23762 0.23855 0.75188 0.0
C1021 C 0.22925 0.27593 0.72001 0.0
C1022 C 0.23319 0.28717 0.78892 0.0
C1023 C 0.23342 0.27488 0.77999 0.0
C1024 C 0.25392 0.30933 0.75726 0.0
C1025 C 0.22633 0.25971 0.73593 0.0
C1026 C 0.23782 0.26647 0.74542 0.0
C1027 C 0.25645 0.29084 0.77355 0.0
C1028 C 0.25265 0.2817 0.7638 0.0
H1029 H 0.15719 0.22058 0.7242 0.0
H1030 H 0.18188 0.22388 0.73943 0.0
H1031 H 0.24637 0.32415 0.74346 0.0
H1032 H 0.29844 0.35223 0.78721 0.0
H1033 H 0.29941 0.33028 0.77168 0.0
C1034 C 0.73425 0.72449 0.97099 0.0
C1035 C 0.757 0.69592 0.96825 0.0
C1036 C 0.73446 0.73661 0.97993 0.0
C1037 C 0.75501 0.70144 1.00258 0.0
H1038 H 0.73153 0.79938 0.01014 0.0
C1039 C 0.73042 0.7335 0.03993 0.0
C1040 C 0.69859 0.75315 0.04176 0.0
C1041 C 0.74447 0.73202 0.03118 0.0
C1042 C 0.73805 0.7719 0.00813 0.0
H1043 H 0.7998 0.65959 0.9726 0.0
H1044 H 0.80078 0.68129 0.98814 0.0
H1045 H 0.74472 0.78701 0.99426 0.0
H1046 H 0.65787 0.78854 0.03594 0.0
H1047 H 0.68218 0.78568 0.02065 0.0
H1048 H 0.74748 0.68604 0.01635 0.0
C1049 C 0.78207 0.69371 0.98344 0.0
C1050 C 0.7456 0.76479 0.99903 0.0
C1051 C 0.78172 0.68146 0.9745 0.0
C1052 C 0.68243 0.77314 0.03476 0.0
C1053 C 0.69647 0.7716 0.02599 0.0
C1054 C 0.74759 0.70855 0.01165 0.0
C1055 C 0.75756 0.72058 0.98634 0.0
C1056 C 0.75359 0.72933 0.99612 0.0
C1057 C 0.727 0.75007 0.02404 0.0
C1058 C 0.73845 0.74373 0.01453 0.0
H1059 H 0.71484 0.73625 0.96635 0.0
H1060 H 0.71501 0.75713 0.98191 0.0
H1061 H 0.76029 0.67367 1.00059 0.0
H1062 H 0.74373 0.71802 0.04518 0.0
H1063 H 0.76844 0.71578 0.02995 0.0
C1064 C 0.28039 0.27772 0.03999 0.0
C1065 C 0.31233 0.25826 0.04183 0.0
C1066 C 0.26642 0.27921 0.03124 0.0
C1067 C 0.27344 0.23972 0.00815 0.0
H1068 H 0.25075 0.33793 1.0007 0.0
C1069 C 0.27778 0.28774 0.97107 0.0
C1070 C 0.25484 0.31614 0.96832 0.0
C1071 C 0.27748 0.27551 0.98 0.0
C1072 C 0.25615 0.31016 1.00266 0.0
H1073 H 0.35334 0.2232 0.036 0.0
H1074 H 0.32916 0.22607 0.0207 0.0
H1075 H 0.26331 0.32538 0.01645 0.0
H1076 H 0.21167 0.35209 0.97265 0.0
H1077 H 0.21057 0.33023 0.98818 0.0
H1078 H 0.26716 0.2248 0.99426 0.0
C1079 C 0.31473 0.23999 0.02604 0.0
C1080 C 0.26343 0.30295 0.01173 0.0
C1081 C 0.32868 0.23844 0.03482 0.0
C1082 C 0.22989 0.33036 0.97456 0.0
C1083 C 0.22947 0.31801 0.98349 0.0
C1084 C 0.26604 0.24694 0.99905 0.0
C1085 C 0.28409 0.26136 0.02409 0.0
C1086 C 0.27274 0.26778 0.01458 0.0
C1087 C 0.25411 0.29129 0.9864 0.0
C1088 C 0.2579 0.2824 0.99617 0.0
H1089 H 0.26693 0.29307 0.04525 0.0
H1090 H 0.24236 0.29532 0.03001 0.0
H1091 H 0.2801 0.21225 0.01013 0.0
H1092 H 0.29735 0.27617 0.96644 0.0
H1093 H 0.29703 0.25511 0.98199 0.0
C1094 C 0.73244 0.78804 0.28917 0.0
C1095 C 0.75544 0.81635 0.29192 0.0
C1096 C 0.73258 0.77591 0.28023 0.0
C1097 C 0.75357 0.81063 0.25756 0.0
H1098 H 0.73025 0.71262 0.25007 0.0
C1099 C 0.72974 0.77817 0.22022 0.0
C1100 C 0.69803 0.75842 0.21836 0.0
C1101 C 0.74361 0.77976 0.22899 0.0
C1102 C 0.73672 0.74013 0.25206 0.0
H1103 H 0.79851 0.85231 0.28756 0.0
H1104 H 0.79932 0.83065 0.27202 0.0
H1105 H 0.74305 0.72521 0.26595 0.0
H1106 H 0.65735 0.72296 0.22416 0.0
H1107 H 0.68133 0.72603 0.23947 0.0
H1108 H 0.74636 0.82585 0.24378 0.0
C1109 C 0.7805 0.8184 0.27672 0.0
C1110 C 0.74405 0.74736 0.26116 0.0
C1111 C 0.78024 0.83064 0.28566 0.0
C1112 C 0.68183 0.73843 0.22536 0.0
C1113 C 0.69567 0.74009 0.23414 0.0
C1114 C 0.74636 0.80341 0.24849 0.0
C1115 C 0.75585 0.79171 0.27382 0.0
C1116 C 0.75199 0.78285 0.26405 0.0
C1117 C 0.72607 0.76173 0.23611 0.0
C1118 C 0.73729 0.7682 0.24564 0.0
H1119 H 0.71297 0.77642 0.29382 0.0
H1120 H 0.71302 0.75553 0.27825 0.0
H1121 H 0.75884 0.83842 0.25954 0.0
H1122 H 0.74309 0.79365 0.21497 0.0
H1123 H 0.7675 0.79607 0.23023 0.0
C1124 C 0.28097 0.18159 0.47501 0.0
C1125 C 0.25603 0.19584 0.46878 0.0
C1126 C 0.28154 0.19408 0.48392 0.0
C1127 C 0.24519 0.26544 0.49947 0.0
H1128 H 0.24785 0.18717 0.51691 0.0
C1129 C 0.18175 0.27392 0.53514 0.0
C1130 C 0.19797 0.2542 0.54218 0.0
C1131 C 0.196 0.27243 0.52639 0.0
C1132 C 0.24776 0.20956 0.51218 0.0
H1133 H 0.21371 0.23599 0.46689 0.0
H1134 H 0.21425 0.25726 0.48242 0.0
H1135 H 0.26048 0.17446 0.50117 0.0
H1136 H 0.24346 0.21967 0.54569 0.0
H1137 H 0.26852 0.2175 0.53049 0.0
H1138 H 0.23103 0.30023 0.51053 0.0
C1139 C 0.23371 0.23675 0.48044 0.0
C1140 C 0.25507 0.20225 0.50311 0.0
C1141 C 0.23328 0.2244 0.47151 0.0
C1142 C 0.2301 0.23495 0.54041 0.0
C1143 C 0.24435 0.2335 0.53168 0.0
C1144 C 0.23774 0.27274 0.50856 0.0
C1145 C 0.25705 0.22095 0.48683 0.0
C1146 C 0.25333 0.22995 0.4966 0.0
C1147 C 0.2268 0.25122 0.5245 0.0
C1148 C 0.23839 0.24474 0.515 0.0
H1149 H 0.29906 0.15974 0.47311 0.0
H1150 H 0.30043 0.18183 0.48862 0.0
H1151 H 0.24409 0.28753 0.49466 0.0
H1152 H 0.15696 0.28902 0.53627 0.0
H1153 H 0.18165 0.28625 0.52102 0.0
C1154 C 0.82924 0.77366 0.72507 0.0
C1155 C 0.81301 0.75388 0.71803 0.0
C1156 C 0.81513 0.77211 0.73383 0.0
C1157 C 0.76396 0.70906 0.74808 0.0
H1158 H 0.76708 0.78719 0.76557 0.0
C1159 C 0.73055 0.6814 0.78526 0.0
C1160 C 0.75519 0.69597 0.79152 0.0
C1161 C 0.73013 0.69366 0.77633 0.0
C1162 C 0.76614 0.76505 0.76078 0.0
H1163 H 0.76765 0.71917 0.71456 0.0
H1164 H 0.74285 0.71689 0.72979 0.0
H1165 H 0.78002 0.79984 0.7497 0.0
H1166 H 0.79721 0.73637 0.79342 0.0
H1167 H 0.79695 0.75723 0.77785 0.0
H1168 H 0.75151 0.67398 0.75911 0.0
C1169 C 0.76691 0.73299 0.72858 0.0
C1170 C 0.77353 0.77233 0.75168 0.0
C1171 C 0.78101 0.7345 0.71983 0.0
C1172 C 0.77786 0.72455 0.78878 0.0
C1173 C 0.7776 0.73666 0.77983 0.0
C1174 C 0.75672 0.70178 0.75715 0.0
C1175 C 0.78447 0.75078 0.73574 0.0
C1176 C 0.77304 0.74429 0.74525 0.0
C1177 C 0.7545 0.72061 0.77342 0.0
C1178 C 0.75826 0.72953 0.76365 0.0
H1179 H 0.85392 0.78885 0.72391 0.0
H1180 H 0.82948 0.78599 0.73918 0.0
H1181 H 0.764 0.68665 0.74336 0.0
H1182 H 0.71252 0.65953 0.78717 0.0
H1183 H 0.71143 0.68122 0.77163 0.0
loop_
_geom_bond_atom_site_label_1
_geom_bond_atom_site_label_2
_geom_bond_distance
_geom_bond_site_symmetry_2
_ccdc_geom_bond_type
O0 Cd1 2.223 . S
O0 C8 1.315 . S
Cd1 O0 2.223 . S
Cd1 O4 2.297 . S
Cd1 O5 2.439 . S
Cd1 O11 2.240 . S
Cd2 O3 2.240 . S
Cd2 O10 2.223 . S
Cd2 O12 2.297 . S
Cd2 O13 2.439 . S
O3 Cd2 2.240 . S
O3 C8 1.279 . S
O4 Cd1 2.297 . S
O4 C6 1.247 . S
O5 Cd1 2.439 . S
O5 C6 1.208 . S
C6 O4 1.247 . S
C6 O5 1.208 . S
C7 O12 1.247 . S
C7 O13 1.208 . S
C8 O0 1.315 . S
C8 O3 1.279 . S
C9 O10 1.315 . S
C9 O11 1.279 . S
O10 Cd2 2.223 . S
O10 C9 1.315 . S
O11 Cd1 2.240 . S
O11 C9 1.279 . S
O12 Cd2 2.297 . S
O12 C7 1.247 . S
O13 Cd2 2.439 . S
O13 C7 1.208 . S
O14 Cd15 2.223 . S
O14 C22 1.315 . S
Cd15 O14 2.223 . S
Cd15 O18 2.297 . S
Cd15 O19 2.439 . S
Cd15 O25 2.240 . S
Cd16 O17 2.240 . S
Cd16 O24 2.223 . S
Cd16 O26 2.297 . S
Cd16 O27 2.439 . S
O17 Cd16 2.240 . S
O17 C22 1.279 . S
O18 Cd15 2.297 . S
O18 C20 1.247 . S
O19 Cd15 2.439 . S
O19 C20 1.208 . S
C20 O18 1.247 . S
C20 O19 1.208 . S
C21 O26 1.247 . S
C21 O27 1.208 . S
C22 O14 1.315 . S
C22 O17 1.279 . S
C23 O24 1.315 . S
C23 O25 1.279 . S
O24 Cd16 2.223 . S
O24 C23 1.315 . S
O25 Cd15 2.240 . S
O25 C23 1.279 . S
O26 Cd16 2.297 . S
O26 C21 1.247 . S
O27 Cd16 2.439 . S
O27 C21 1.208 . S
O28 Cd29 2.223 . S
O28 C36 1.315 . S
Cd29 O28 2.223 . S
Cd29 O32 2.297 . S
Cd29 O33 2.439 . S
Cd29 O39 2.240 . S
Cd30 O31 2.240 . S
Cd30 O38 2.223 . S
Cd30 O40 2.297 . S
Cd30 O41 2.439 . S
O31 Cd30 2.240 . S
O31 C36 1.279 . S
O32 Cd29 2.297 . S
O32 C34 1.247 . S
O33 Cd29 2.439 . S
O33 C34 1.208 . S
C34 O32 1.247 . S
C34 O33 1.208 . S
C35 O40 1.247 . S
C35 O41 1.208 . S
C36 O28 1.315 . S
C36 O31 1.279 . S
C37 O38 1.315 . S
C37 O39 1.279 . S
O38 Cd30 2.223 . S
O38 C37 1.315 . S
O39 Cd29 2.240 . S
O39 C37 1.279 . S
O40 Cd30 2.297 . S
O40 C35 1.247 . S
O41 Cd30 2.439 . S
O41 C35 1.208 . S
O42 Cd43 2.223 . S
O42 C50 1.315 . S
Cd43 O42 2.223 . S
Cd43 O46 2.297 . S
Cd43 O47 2.439 . S
Cd43 O53 2.240 . S
Cd44 O45 2.240 . S
Cd44 O52 2.223 . S
Cd44 O54 2.297 . S
Cd44 O55 2.439 . S
O45 Cd44 2.240 . S
O45 C50 1.279 . S
O46 Cd43 2.297 . S
O46 C48 1.247 . S
O47 Cd43 2.439 . S
O47 C48 1.208 . S
C48 O46 1.247 . S
C48 O47 1.208 . S
C49 O54 1.247 . S
C49 O55 1.208 . S
C50 O42 1.315 . S
C50 O45 1.279 . S
C51 O52 1.315 . S
C51 O53 1.279 . S
O52 Cd44 2.223 . S
O52 C51 1.315 . S
O53 Cd43 2.240 . S
O53 C51 1.279 . S
O54 Cd44 2.297 . S
O54 C49 1.247 . S
O55 Cd44 2.439 . S
O55 C49 1.208 . S
O56 Cd57 2.223 . S
O56 C64 1.315 . S
Cd57 O56 2.223 . S
Cd57 O60 2.297 . S
Cd57 O61 2.439 . S
Cd57 O67 2.240 . S
Cd58 O59 2.240 . S
Cd58 O66 2.223 . S
Cd58 O68 2.297 . S
Cd58 O69 2.439 . S
O59 Cd58 2.240 . S
O59 C64 1.279 . S
O60 Cd57 2.297 . S
O60 C62 1.247 . S
O61 Cd57 2.439 . S
O61 C62 1.208 . S
C62 O60 1.247 . S
C62 O61 1.208 . S
C63 O68 1.247 . S
C63 O69 1.208 . S
C64 O56 1.315 . S
C64 O59 1.279 . S
C65 O66 1.315 . S
C65 O67 1.279 . S
O66 Cd58 2.223 . S
O66 C65 1.315 . S
O67 Cd57 2.240 . S
O67 C65 1.279 . S
O68 Cd58 2.297 . S
O68 C63 1.247 . S
O69 Cd58 2.439 . S
O69 C63 1.208 . S
O70 Cd71 2.223 . S
O70 C78 1.315 . S
Cd71 O70 2.223 . S
Cd71 O74 2.297 . S
Cd71 O75 2.439 . S
Cd71 O81 2.240 . S
Cd72 O73 2.240 . S
Cd72 O80 2.223 . S
Cd72 O82 2.297 . S
Cd72 O83 2.439 . S
O73 Cd72 2.240 . S
O73 C78 1.279 . S
O74 Cd71 2.297 . S
O74 C76 1.247 . S
O75 Cd71 2.439 . S
O75 C76 1.208 . S
C76 O74 1.247 . S
C76 O75 1.208 . S
C77 O82 1.247 . S
C77 O83 1.208 . S
C78 O70 1.315 . S
C78 O73 1.279 . S
C79 O80 1.315 . S
C79 O81 1.279 . S
O80 Cd72 2.223 . S
O80 C79 1.315 . S
O81 Cd71 2.240 . S
O81 C79 1.279 . S
O82 Cd72 2.297 . S
O82 C77 1.247 . S
O83 Cd72 2.439 . S
O83 C77 1.208 . S
O84 Cd85 2.223 . S
O84 C92 1.315 . S
Cd85 O84 2.223 . S
Cd85 O88 2.297 . S
Cd85 O89 2.439 . S
Cd85 O95 2.240 . S
Cd86 O87 2.240 . S
Cd86 O94 2.223 . S
Cd86 O96 2.297 . S
Cd86 O97 2.439 . S
O87 Cd86 2.240 . S
O87 C92 1.279 . S
O88 Cd85 2.297 . S
O88 C90 1.247 . S
O89 Cd85 2.439 . S
O89 C90 1.208 . S
C90 O88 1.247 . S
C90 O89 1.208 . S
C91 O96 1.247 . S
C91 O97 1.208 . S
C92 O84 1.315 . S
C92 O87 1.279 . S
C93 O94 1.315 . S
C93 O95 1.279 . S
O94 Cd86 2.223 . S
O94 C93 1.315 . S
O95 Cd85 2.240 . S
O95 C93 1.279 . S
O96 Cd86 2.297 . S
O96 C91 1.247 . S
O97 Cd86 2.439 . S
O97 C91 1.208 . S
O98 Cd99 2.223 . S
O98 C106 1.315 . S
Cd99 O98 2.223 . S
Cd99 O102 2.297 . S
Cd99 O103 2.439 . S
Cd99 O109 2.240 . S
Cd100 O101 2.240 . S
Cd100 O108 2.223 . S
Cd100 O110 2.297 . S
Cd100 O111 2.439 . S
O101 Cd100 2.240 . S
O101 C106 1.279 . S
O102 Cd99 2.297 . S
O102 C104 1.247 . S
O103 Cd99 2.439 . S
O103 C104 1.208 . S
C104 O102 1.247 . S
C104 O103 1.208 . S
C105 O110 1.247 . S
C105 O111 1.208 . S
C106 O98 1.315 . S
C106 O101 1.279 . S
C107 O108 1.315 . S
C107 O109 1.279 . S
O108 Cd100 2.223 . S
O108 C107 1.315 . S
O109 Cd99 2.240 . S
O109 C107 1.279 . S
O110 Cd100 2.297 . S
O110 C105 1.247 . S
O111 Cd100 2.439 . S
O111 C105 1.208 . S
O112 Cd113 2.223 . S
O112 C120 1.315 . S
Cd113 O112 2.223 . S
Cd113 O116 2.297 . S
Cd113 O117 2.439 . S
Cd113 O123 2.240 . S
Cd114 O115 2.240 . S
Cd114 O122 2.223 . S
Cd114 O124 2.297 . S
Cd114 O125 2.439 . S
O115 Cd114 2.240 . S
O115 C120 1.279 . S
O116 Cd113 2.297 . S
O116 C118 1.247 . S
O117 Cd113 2.439 . S
O117 C118 1.208 . S
C118 O116 1.247 . S
C118 O117 1.208 . S
C119 O124 1.247 . S
C119 O125 1.208 . S
C120 O112 1.315 . S
C120 O115 1.279 . S
C121 O122 1.315 . S
C121 O123 1.279 . S
O122 Cd114 2.223 . S
O122 C121 1.315 . S
O123 Cd113 2.240 . S
O123 C121 1.279 . S
O124 Cd114 2.297 . S
O124 C119 1.247 . S
O125 Cd114 2.439 . S
O125 C119 1.208 . S
O126 Cd127 2.223 . S
O126 C134 1.315 . S
Cd127 O126 2.223 . S
Cd127 O130 2.297 . S
Cd127 O131 2.439 . S
Cd127 O137 2.240 . S
Cd128 O129 2.240 . S
Cd128 O136 2.223 . S
Cd128 O138 2.297 . S
Cd128 O139 2.439 . S
O129 Cd128 2.240 . S
O129 C134 1.279 . S
O130 Cd127 2.297 . S
O130 C132 1.247 . S
O131 Cd127 2.439 . S
O131 C132 1.208 . S
C132 O130 1.247 . S
C132 O131 1.208 . S
C133 O138 1.247 . S
C133 O139 1.208 . S
C134 O126 1.315 . S
C134 O129 1.279 . S
C135 O136 1.315 . S
C135 O137 1.279 . S
O136 Cd128 2.223 . S
O136 C135 1.315 . S
O137 Cd127 2.240 . S
O137 C135 1.279 . S
O138 Cd128 2.297 . S
O138 C133 1.247 . S
O139 Cd128 2.439 . S
O139 C133 1.208 . S
O140 Cd141 2.223 . S
O140 C148 1.315 . S
Cd141 O140 2.223 . S
Cd141 O144 2.297 . S
Cd141 O145 2.439 . S
Cd141 O151 2.240 . S
Cd142 O143 2.240 . S
Cd142 O150 2.223 . S
Cd142 O152 2.297 . S
Cd142 O153 2.439 . S
O143 Cd142 2.240 . S
O143 C148 1.279 . S
O144 Cd141 2.297 . S
O144 C146 1.247 . S
O145 Cd141 2.439 . S
O145 C146 1.208 . S
C146 O144 1.247 . S
C146 O145 1.208 . S
C147 O152 1.247 . S
C147 O153 1.208 . S
C148 O140 1.315 . S
C148 O143 1.279 . S
C149 O150 1.315 . S
C149 O151 1.279 . S
O150 Cd142 2.223 . S
O150 C149 1.315 . S
O151 Cd141 2.240 . S
O151 C149 1.279 . S
O152 Cd142 2.297 . S
O152 C147 1.247 . S
O153 Cd142 2.439 . S
O153 C147 1.208 . S
O154 Cd155 2.223 . S
O154 C162 1.315 . S
Cd155 O154 2.223 . S
Cd155 O158 2.297 . S
Cd155 O159 2.439 . S
Cd155 O165 2.240 . S
Cd156 O157 2.240 . S
Cd156 O164 2.223 . S
Cd156 O166 2.297 . S
Cd156 O167 2.439 . S
O157 Cd156 2.240 . S
O157 C162 1.279 . S
O158 Cd155 2.297 . S
O158 C160 1.247 . S
O159 Cd155 2.439 . S
O159 C160 1.208 . S
C160 O158 1.247 . S
C160 O159 1.208 . S
C161 O166 1.247 . S
C161 O167 1.208 . S
C162 O154 1.315 . S
C162 O157 1.279 . S
C163 O164 1.315 . S
C163 O165 1.279 . S
O164 Cd156 2.223 . S
O164 C163 1.315 . S
O165 Cd155 2.240 . S
O165 C163 1.279 . S
O166 Cd156 2.297 . S
O166 C161 1.247 . S
O167 Cd156 2.439 . S
O167 C161 1.208 . S
O168 Cd169 2.223 . S
O168 C176 1.315 . S
Cd169 O168 2.223 . S
Cd169 O172 2.297 . S
Cd169 O173 2.439 . S
Cd169 O179 2.240 . S
Cd170 O171 2.240 . S
Cd170 O178 2.223 . S
Cd170 O180 2.297 . S
Cd170 O181 2.439 . S
O171 Cd170 2.240 . S
O171 C176 1.279 . S
O172 Cd169 2.297 . S
O172 C174 1.247 . S
O173 Cd169 2.439 . S
O173 C174 1.208 . S
C174 O172 1.247 . S
C174 O173 1.208 . S
C175 O180 1.247 . S
C175 O181 1.208 . S
C176 O168 1.315 . S
C176 O171 1.279 . S
C177 O178 1.315 . S
C177 O179 1.279 . S
O178 Cd170 2.223 . S
O178 C177 1.315 . S
O179 Cd169 2.240 . S
O179 C177 1.279 . S
O180 Cd170 2.297 . S
O180 C175 1.247 . S
O181 Cd170 2.439 . S
O181 C175 1.208 . S
O182 Cd183 2.223 . S
O182 C190 1.315 . S
Cd183 O182 2.223 . S
Cd183 O186 2.297 . S
Cd183 O187 2.439 . S
Cd183 O193 2.240 . S
Cd184 O185 2.240 . S
Cd184 O192 2.223 . S
Cd184 O194 2.297 . S
Cd184 O195 2.439 . S
O185 Cd184 2.240 . S
O185 C190 1.279 . S
O186 Cd183 2.297 . S
O186 C188 1.247 . S
O187 Cd183 2.439 . S
O187 C188 1.208 . S
C188 O186 1.247 . S
C188 O187 1.208 . S
C189 O194 1.247 . S
C189 O195 1.208 . S
C190 O182 1.315 . S
C190 O185 1.279 . S
C191 O192 1.315 . S
C191 O193 1.279 . S
O192 Cd184 2.223 . S
O192 C191 1.315 . S
O193 Cd183 2.240 . S
O193 C191 1.279 . S
O194 Cd184 2.297 . S
O194 C189 1.247 . S
O195 Cd184 2.439 . S
O195 C189 1.208 . S
O196 Cd197 2.223 . S
O196 C204 1.315 . S
Cd197 O196 2.223 . S
Cd197 O200 2.297 . S
Cd197 O201 2.439 . S
Cd197 O207 2.240 . S
Cd198 O199 2.240 . S
Cd198 O206 2.223 . S
Cd198 O208 2.297 . S
Cd198 O209 2.439 . S
O199 Cd198 2.240 . S
O199 C204 1.279 . S
O200 Cd197 2.297 . S
O200 C202 1.247 . S
O201 Cd197 2.439 . S
O201 C202 1.208 . S
C202 O200 1.247 . S
C202 O201 1.208 . S
C203 O208 1.247 . S
C203 O209 1.208 . S
C204 O196 1.315 . S
C204 O199 1.279 . S
C205 O206 1.315 . S
C205 O207 1.279 . S
O206 Cd198 2.223 . S
O206 C205 1.315 . S
O207 Cd197 2.240 . S
O207 C205 1.279 . S
O208 Cd198 2.297 . S
O208 C203 1.247 . S
O209 Cd198 2.439 . S
O209 C203 1.208 . S
O210 Cd211 2.223 . S
O210 C218 1.315 . S
Cd211 O210 2.223 . S
Cd211 O214 2.297 . S
Cd211 O215 2.439 . S
Cd211 O221 2.240 . S
Cd212 O213 2.240 . S
Cd212 O220 2.223 . S
Cd212 O222 2.297 . S
Cd212 O223 2.439 . S
O213 Cd212 2.240 . S
O213 C218 1.279 . S
O214 Cd211 2.297 . S
O214 C216 1.247 . S
O215 Cd211 2.439 . S
O215 C216 1.208 . S
C216 O214 1.247 . S
C216 O215 1.208 . S
C217 O222 1.247 . S
C217 O223 1.208 . S
C218 O210 1.315 . S
C218 O213 1.279 . S
C219 O220 1.315 . S
C219 O221 1.279 . S
O220 Cd212 2.223 . S
O220 C219 1.315 . S
O221 Cd211 2.240 . S
O221 C219 1.279 . S
O222 Cd212 2.297 . S
O222 C217 1.247 . S
O223 Cd212 2.439 . S
O223 C217 1.208 . S
C224 C225 1.349 . S
C224 C226 1.327 . S
C224 H249 0.950 . S
C225 C224 1.349 . S
C225 C241 1.349 . S
C226 C224 1.327 . S
C226 C245 1.429 . S
C226 H250 0.950 . S
C227 C244 1.574 1_655 S
C227 C246 1.368 1_545 S
C227 H251 0.949 . S
H228 C232 0.949 . S
C229 C230 1.349 . S
C229 C231 1.327 . S
C229 H252 0.950 . S
C230 C229 1.349 . S
C230 C242 1.349 . S
C231 C229 1.327 . S
C231 C247 1.429 . S
C231 H253 0.950 . S
C232 H228 0.949 . S
C232 C240 1.574 1_455 S
C232 C248 1.368 1_565 S
H233 C241 0.950 . S
H234 C239 0.950 . S
H235 C240 0.949 . S
H236 C242 0.950 . S
H237 C243 0.950 . S
H238 C244 0.949 . S
C239 H234 0.950 . S
C239 C241 1.327 . S
C239 C245 1.429 . S
C240 C232 1.574 1_655 S
C240 H235 0.949 . S
C240 C246 1.368 . S
C241 C225 1.349 . S
C241 H233 0.950 . S
C241 C239 1.327 . S
C242 C230 1.349 . S
C242 H236 0.950 . S
C242 C243 1.327 . S
C243 H237 0.950 . S
C243 C242 1.327 . S
C243 C247 1.429 . S
C244 C227 1.574 1_455 S
C244 H238 0.949 . S
C244 C248 1.368 . S
C245 C226 1.429 . S
C245 C239 1.429 . S
C245 C246 1.523 . S
C246 C227 1.368 1_565 S
C246 C240 1.368 . S
C246 C245 1.523 . S
C247 C231 1.429 . S
C247 C243 1.429 . S
C247 C248 1.523 . S
C248 C232 1.368 1_545 S
C248 C244 1.368 . S
C248 C247 1.523 . S
H249 C224 0.950 . S
H250 C226 0.950 . S
H251 C227 0.949 . S
H252 C229 0.950 . S
H253 C231 0.950 . S
C254 C255 1.349 . S
C254 C256 1.327 . S
C254 H279 0.950 . S
C255 C254 1.349 . S
C255 C271 1.349 . S
C256 C254 1.327 . S
C256 C275 1.429 . S
C256 H280 0.950 . S
C257 C274 1.574 . S
C257 C276 1.368 1_455 S
C257 H281 0.949 . S
H258 C262 0.949 . S
C259 C260 1.349 . S
C259 C261 1.327 . S
C259 H282 0.950 . S
C260 C259 1.349 . S
C260 C272 1.349 . S
C261 C259 1.327 . S
C261 C277 1.429 . S
C261 H283 0.950 . S
C262 H258 0.949 . S
C262 C270 1.574 . S
C262 C278 1.368 1_655 S
H263 C271 0.950 . S
H264 C269 0.950 . S
H265 C270 0.949 . S
H266 C272 0.950 . S
H267 C273 0.950 . S
H268 C274 0.949 . S
C269 H264 0.950 . S
C269 C271 1.327 . S
C269 C275 1.429 . S
C270 C262 1.574 . S
C270 H265 0.949 . S
C270 C276 1.368 . S
C271 C255 1.349 . S
C271 H263 0.950 . S
C271 C269 1.327 . S
C272 C260 1.349 . S
C272 H266 0.950 . S
C272 C273 1.327 . S
C273 H267 0.950 . S
C273 C272 1.327 . S
C273 C277 1.429 . S
C274 C257 1.574 . S
C274 H268 0.949 . S
C274 C278 1.368 . S
C275 C256 1.429 . S
C275 C269 1.429 . S
C275 C276 1.523 . S
C276 C257 1.368 1_655 S
C276 C270 1.368 . S
C276 C275 1.523 . S
C277 C261 1.429 . S
C277 C273 1.429 . S
C277 C278 1.523 . S
C278 C262 1.368 1_455 S
C278 C274 1.368 . S
C278 C277 1.523 . S
H279 C254 0.950 . S
H280 C256 0.950 . S
H281 C257 0.949 . S
H282 C259 0.950 . S
H283 C261 0.950 . S
C284 C285 1.349 . S
C284 C286 1.327 . S
C284 H309 0.950 . S
C285 C284 1.349 . S
C285 C301 1.349 . S
C286 C284 1.327 . S
C286 C305 1.429 . S
C286 H310 0.950 . S
C287 C304 1.574 . S
C287 C306 1.368 . S
C287 H311 0.949 . S
H288 C292 0.949 . S
C289 C290 1.349 . S
C289 C291 1.327 . S
C289 H312 0.950 . S
C290 C289 1.349 . S
C290 C302 1.349 . S
C291 C289 1.327 . S
C291 C307 1.429 . S
C291 H313 0.950 . S
C292 H288 0.949 . S
C292 C300 1.574 . S
C292 C308 1.368 . S
H293 C301 0.950 . S
H294 C299 0.950 . S
H295 C300 0.949 . S
H296 C302 0.950 . S
H297 C303 0.950 . S
H298 C304 0.949 . S
C299 H294 0.950 . S
C299 C301 1.327 . S
C299 C305 1.429 . S
C300 C292 1.574 . S
C300 H295 0.949 . S
C300 C306 1.368 . S
C301 C285 1.349 . S
C301 H293 0.950 . S
C301 C299 1.327 . S
C302 C290 1.349 . S
C302 H296 0.950 . S
C302 C303 1.327 . S
C303 H297 0.950 . S
C303 C302 1.327 . S
C303 C307 1.429 . S
C304 C287 1.574 . S
C304 H298 0.949 . S
C304 C308 1.368 . S
C305 C286 1.429 . S
C305 C299 1.429 . S
C305 C306 1.523 . S
C306 C287 1.368 . S
C306 C300 1.368 . S
C306 C305 1.523 . S
C307 C291 1.429 . S
C307 C303 1.429 . S
C307 C308 1.523 . S
C308 C292 1.368 . S
C308 C304 1.368 . S
C308 C307 1.523 . S
H309 C284 0.950 . S
H310 C286 0.950 . S
H311 C287 0.949 . S
H312 C289 0.950 . S
H313 C291 0.950 . S
C314 C315 1.349 . S
C314 C316 1.327 . S
C314 H339 0.950 . S
C315 C314 1.349 . S
C315 C331 1.349 . S
C316 C314 1.327 . S
C316 C335 1.429 . S
C316 H340 0.950 . S
C317 C334 1.574 1_545 S
C317 C336 1.368 . S
C317 H341 0.949 . S
H318 C322 0.949 . S
C319 C320 1.349 . S
C319 C321 1.327 . S
C319 H342 0.950 . S
C320 C319 1.349 . S
C320 C332 1.349 . S
C321 C319 1.327 . S
C321 C337 1.429 . S
C321 H343 0.950 . S
C322 H318 0.949 . S
C322 C330 1.574 1_565 S
C322 C338 1.368 . S
H323 C331 0.950 . S
H324 C329 0.950 . S
H325 C330 0.949 . S
H326 C332 0.950 . S
H327 C333 0.950 . S
H328 C334 0.949 . S
C329 H324 0.950 . S
C329 C331 1.327 . S
C329 C335 1.429 . S
C330 C322 1.574 1_545 S
C330 H325 0.949 . S
C330 C336 1.368 . S
C331 C315 1.349 . S
C331 H323 0.950 . S
C331 C329 1.327 . S
C332 C320 1.349 . S
C332 H326 0.950 . S
C332 C333 1.327 . S
C333 H327 0.950 . S
C333 C332 1.327 . S
C333 C337 1.429 . S
C334 C317 1.574 1_565 S
C334 H328 0.949 . S
C334 C338 1.368 . S
C335 C316 1.429 . S
C335 C329 1.429 . S
C335 C336 1.523 . S
C336 C317 1.368 . S
C336 C330 1.368 . S
C336 C335 1.523 . S
C337 C321 1.429 . S
C337 C333 1.429 . S
C337 C338 1.523 . S
C338 C322 1.368 . S
C338 C334 1.368 . S
C338 C337 1.523 . S
H339 C314 0.950 . S
H340 C316 0.950 . S
H341 C317 0.949 . S
H342 C319 0.950 . S
H343 C321 0.950 . S
C344 C345 1.349 . S
C344 C346 1.327 . S
C344 H369 0.950 . S
C345 C344 1.349 . S
C345 C361 1.349 . S
C346 C344 1.327 . S
C346 C365 1.429 . S
C346 H370 0.950 . S
C347 C364 1.574 1_455 S
C347 C366 1.368 . S
C347 H371 0.949 . S
H348 C352 0.949 . S
C349 C350 1.349 . S
C349 C351 1.327 . S
C349 H372 0.950 . S
C350 C349 1.349 . S
C350 C362 1.349 . S
C351 C349 1.327 . S
C351 C367 1.429 . S
C351 H373 0.950 . S
C352 H348 0.949 . S
C352 C360 1.574 1_655 S
C352 C368 1.368 . S
H353 C361 0.950 . S
H354 C359 0.950 . S
H355 C360 0.949 . S
H356 C362 0.950 . S
H357 C363 0.950 . S
H358 C364 0.949 . S
C359 H354 0.950 . S
C359 C361 1.327 . S
C359 C365 1.429 . S
C360 C352 1.574 1_455 S
C360 H355 0.949 . S
C360 C366 1.368 . S
C361 C345 1.349 . S
C361 H353 0.950 . S
C361 C359 1.327 . S
C362 C350 1.349 . S
C362 H356 0.950 . S
C362 C363 1.327 . S
C363 H357 0.950 . S
C363 C362 1.327 . S
C363 C367 1.429 . S
C364 C347 1.574 1_655 S
C364 H358 0.949 . S
C364 C368 1.368 . S
C365 C346 1.429 . S
C365 C359 1.429 . S
C365 C366 1.523 . S
C366 C347 1.368 . S
C366 C360 1.368 . S
C366 C365 1.523 . S
C367 C351 1.429 . S
C367 C363 1.429 . S
C367 C368 1.523 . S
C368 C352 1.368 . S
C368 C364 1.368 . S
C368 C367 1.523 . S
H369 C344 0.950 . S
H370 C346 0.950 . S
H371 C347 0.949 . S
H372 C349 0.950 . S
H373 C351 0.950 . S
C374 C375 1.349 . S
C374 C376 1.327 . S
C374 H399 0.950 . S
C375 C374 1.349 . S
C375 C391 1.349 . S
C376 C374 1.327 . S
C376 C395 1.429 . S
C376 H400 0.950 . S
C377 C394 1.574 . S
C377 C396 1.368 . S
C377 H401 0.949 . S
H378 C382 0.949 . S
C379 C380 1.349 . S
C379 C381 1.327 . S
C379 H402 0.950 . S
C380 C379 1.349 . S
C380 C392 1.349 . S
C381 C379 1.327 . S
C381 C397 1.429 . S
C381 H403 0.950 . S
C382 H378 0.949 . S
C382 C390 1.574 . S
C382 C398 1.368 . S
H383 C391 0.950 . S
H384 C389 0.950 . S
H385 C390 0.949 . S
H386 C392 0.950 . S
H387 C393 0.950 . S
H388 C394 0.949 . S
C389 H384 0.950 . S
C389 C391 1.327 . S
C389 C395 1.429 . S
C390 C382 1.574 . S
C390 H385 0.949 . S
C390 C396 1.368 . S
C391 C375 1.349 . S
C391 H383 0.950 . S
C391 C389 1.327 . S
C392 C380 1.349 . S
C392 H386 0.950 . S
C392 C393 1.327 . S
C393 H387 0.950 . S
C393 C392 1.327 . S
C393 C397 1.429 . S
C394 C377 1.574 . S
C394 H388 0.949 . S
C394 C398 1.368 . S
C395 C376 1.429 . S
C395 C389 1.429 . S
C395 C396 1.523 . S
C396 C377 1.368 . S
C396 C390 1.368 . S
C396 C395 1.523 . S
C397 C381 1.429 . S
C397 C393 1.429 . S
C397 C398 1.523 . S
C398 C382 1.368 . S
C398 C394 1.368 . S
C398 C397 1.523 . S
H399 C374 0.950 . S
H400 C376 0.950 . S
H401 C377 0.949 . S
H402 C379 0.950 . S
H403 C381 0.950 . S
C404 C405 1.349 . S
C404 C406 1.327 . S
C404 H429 0.950 . S
C405 C404 1.349 . S
C405 C421 1.349 . S
C406 C404 1.327 . S
C406 C425 1.429 . S
C406 H430 0.950 . S
C407 C424 1.574 . S
C407 C426 1.368 1_565 S
C407 H431 0.949 . S
H408 C412 0.949 . S
C409 C410 1.349 . S
C409 C411 1.327 . S
C409 H432 0.950 . S
C410 C409 1.349 . S
C410 C422 1.349 . S
C411 C409 1.327 . S
C411 C427 1.429 . S
C411 H433 0.950 . S
C412 H408 0.949 . S
C412 C420 1.574 . S
C412 C428 1.368 1_545 S
H413 C421 0.950 . S
H414 C419 0.950 . S
H415 C420 0.949 . S
H416 C422 0.950 . S
H417 C423 0.950 . S
H418 C424 0.949 . S
C419 H414 0.950 . S
C419 C421 1.327 . S
C419 C425 1.429 . S
C420 C412 1.574 . S
C420 H415 0.949 . S
C420 C426 1.368 . S
C421 C405 1.349 . S
C421 H413 0.950 . S
C421 C419 1.327 . S
C422 C410 1.349 . S
C422 H416 0.950 . S
C422 C423 1.327 . S
C423 H417 0.950 . S
C423 C422 1.327 . S
C423 C427 1.429 . S
C424 C407 1.574 . S
C424 H418 0.949 . S
C424 C428 1.368 . S
C425 C406 1.429 . S
C425 C419 1.429 . S
C425 C426 1.523 . S
C426 C407 1.368 1_545 S
C426 C420 1.368 . S
C426 C425 1.523 . S
C427 C411 1.429 . S
C427 C423 1.429 . S
C427 C428 1.523 . S
C428 C412 1.368 1_565 S
C428 C424 1.368 . S
C428 C427 1.523 . S
H429 C404 0.950 . S
H430 C406 0.950 . S
H431 C407 0.949 . S
H432 C409 0.950 . S
H433 C411 0.950 . S
C434 C435 1.349 . S
C434 C436 1.327 . S
C434 H459 0.950 . S
C435 C434 1.349 . S
C435 C451 1.349 . S
C436 C434 1.327 . S
C436 C455 1.429 . S
C436 H460 0.950 . S
C437 C454 1.574 1_545 S
C437 C456 1.368 1_655 S
C437 H461 0.949 . S
H438 C442 0.949 . S
C439 C440 1.349 . S
C439 C441 1.327 . S
C439 H462 0.950 . S
C440 C439 1.349 . S
C440 C452 1.349 . S
C441 C439 1.327 . S
C441 C457 1.429 . S
C441 H463 0.950 . S
C442 H438 0.949 . S
C442 C450 1.574 1_565 S
C442 C458 1.368 1_455 S
H443 C451 0.950 . S
H444 C449 0.950 . S
H445 C450 0.949 . S
H446 C452 0.950 . S
H447 C453 0.950 . S
H448 C454 0.949 . S
C449 H444 0.950 . S
C449 C451 1.327 . S
C449 C455 1.429 . S
C450 C442 1.574 1_545 S
C450 H445 0.949 . S
C450 C456 1.368 . S
C451 C435 1.349 . S
C451 H443 0.950 . S
C451 C449 1.327 . S
C452 C440 1.349 . S
C452 H446 0.950 . S
C452 C453 1.327 . S
C453 H447 0.950 . S
C453 C452 1.327 . S
C453 C457 1.429 . S
C454 C437 1.574 1_565 S
C454 H448 0.949 . S
C454 C458 1.368 . S
C455 C436 1.429 . S
C455 C449 1.429 . S
C455 C456 1.523 . S
C456 C437 1.368 1_455 S
C456 C450 1.368 . S
C456 C455 1.523 . S
C457 C441 1.429 . S
C457 C453 1.429 . S
C457 C458 1.523 . S
C458 C442 1.368 1_655 S
C458 C454 1.368 . S
C458 C457 1.523 . S
H459 C434 0.950 . S
H460 C436 0.950 . S
H461 C437 0.949 . S
H462 C439 0.950 . S
H463 C441 0.950 . S
C464 C465 1.349 . S
C464 C466 1.327 . S
C464 H489 0.950 . S
C465 C464 1.349 . S
C465 C481 1.349 . S
C466 C464 1.327 . S
C466 C485 1.429 . S
C466 H490 0.950 . S
C467 C484 1.574 . S
C467 C486 1.368 1_545 S
C467 H491 0.949 . S
H468 C472 0.949 . S
C469 C470 1.349 . S
C469 C471 1.327 . S
C469 H492 0.950 . S
C470 C469 1.349 . S
C470 C482 1.349 . S
C471 C469 1.327 . S
C471 C487 1.429 . S
C471 H493 0.950 . S
C472 H468 0.949 . S
C472 C480 1.574 . S
C472 C488 1.368 1_565 S
H473 C481 0.950 . S
H474 C479 0.950 . S
H475 C480 0.949 . S
H476 C482 0.950 . S
H477 C483 0.950 . S
H478 C484 0.949 . S
C479 H474 0.950 . S
C479 C481 1.327 . S
C479 C485 1.429 . S
C480 C472 1.574 . S
C480 H475 0.949 . S
C480 C486 1.368 . S
C481 C465 1.349 . S
C481 H473 0.950 . S
C481 C479 1.327 . S
C482 C470 1.349 . S
C482 H476 0.950 . S
C482 C483 1.327 . S
C483 H477 0.950 . S
C483 C482 1.327 . S
C483 C487 1.429 . S
C484 C467 1.574 . S
C484 H478 0.949 . S
C484 C488 1.368 . S
C485 C466 1.429 . S
C485 C479 1.429 . S
C485 C486 1.523 . S
C486 C467 1.368 1_565 S
C486 C480 1.368 . S
C486 C485 1.523 . S
C487 C471 1.429 . S
C487 C483 1.429 . S
C487 C488 1.523 . S
C488 C472 1.368 1_545 S
C488 C484 1.368 . S
C488 C487 1.523 . S
H489 C464 0.950 . S
H490 C466 0.950 . S
H491 C467 0.949 . S
H492 C469 0.950 . S
H493 C471 0.950 . S
C494 C495 1.349 . S
C494 C496 1.327 . S
C494 H519 0.950 . S
C495 C494 1.349 . S
C495 C511 1.349 . S
C496 C494 1.327 . S
C496 C515 1.429 . S
C496 H520 0.950 . S
C497 C514 1.574 1_565 S
C497 C516 1.368 . S
C497 H521 0.949 . S
H498 C502 0.949 . S
C499 C500 1.349 . S
C499 C501 1.327 . S
C499 H522 0.950 . S
C500 C499 1.349 . S
C500 C512 1.349 . S
C501 C499 1.327 . S
C501 C517 1.429 . S
C501 H523 0.950 . S
C502 H498 0.949 . S
C502 C510 1.574 1_545 S
C502 C518 1.368 . S
H503 C511 0.950 . S
H504 C509 0.950 . S
H505 C510 0.949 . S
H506 C512 0.950 . S
H507 C513 0.950 . S
H508 C514 0.949 . S
C509 H504 0.950 . S
C509 C511 1.327 . S
C509 C515 1.429 . S
C510 C502 1.574 1_565 S
C510 H505 0.949 . S
C510 C516 1.368 1_455 S
C511 C495 1.349 . S
C511 H503 0.950 . S
C511 C509 1.327 . S
C512 C500 1.349 . S
C512 H506 0.950 . S
C512 C513 1.327 . S
C513 H507 0.950 . S
C513 C512 1.327 . S
C513 C517 1.429 . S
C514 C497 1.574 1_545 S
C514 H508 0.949 . S
C514 C518 1.368 1_655 S
C515 C496 1.429 . S
C515 C509 1.429 . S
C515 C516 1.523 . S
C516 C497 1.368 . S
C516 C510 1.368 1_655 S
C516 C515 1.523 . S
C517 C501 1.429 . S
C517 C513 1.429 . S
C517 C518 1.523 . S
C518 C502 1.368 . S
C518 C514 1.368 1_455 S
C518 C517 1.523 . S
H519 C494 0.950 . S
H520 C496 0.950 . S
H521 C497 0.949 . S
H522 C499 0.950 . S
H523 C501 0.950 . S
C524 C525 1.349 . S
C524 C526 1.327 . S
C524 H549 0.950 . S
C525 C524 1.349 . S
C525 C541 1.349 . S
C526 C524 1.327 . S
C526 C545 1.429 . S
C526 H550 0.950 . S
C527 C544 1.574 1_455 S
C527 C546 1.368 . S
C527 H551 0.949 . S
H528 C532 0.949 . S
C529 C530 1.349 . S
C529 C531 1.327 . S
C529 H552 0.950 . S
C530 C529 1.349 . S
C530 C542 1.349 . S
C531 C529 1.327 . S
C531 C547 1.429 . S
C531 H553 0.950 . S
C532 H528 0.949 . S
C532 C540 1.574 1_655 S
C532 C548 1.368 . S
H533 C541 0.950 . S
H534 C539 0.950 . S
H535 C540 0.949 . S
H536 C542 0.950 . S
H537 C543 0.950 . S
H538 C544 0.949 . S
C539 H534 0.950 . S
C539 C541 1.327 . S
C539 C545 1.429 . S
C540 C532 1.574 1_455 S
C540 H535 0.949 . S
C540 C546 1.368 . S
C541 C525 1.349 . S
C541 H533 0.950 . S
C541 C539 1.327 . S
C542 C530 1.349 . S
C542 H536 0.950 . S
C542 C543 1.327 . S
C543 H537 0.950 . S
C543 C542 1.327 . S
C543 C547 1.429 . S
C544 C527 1.574 1_655 S
C544 H538 0.949 . S
C544 C548 1.368 . S
C545 C526 1.429 . S
C545 C539 1.429 . S
C545 C546 1.523 . S
C546 C527 1.368 . S
C546 C540 1.368 . S
C546 C545 1.523 . S
C547 C531 1.429 . S
C547 C543 1.429 . S
C547 C548 1.523 . S
C548 C532 1.368 . S
C548 C544 1.368 . S
C548 C547 1.523 . S
H549 C524 0.950 . S
H550 C526 0.950 . S
H551 C527 0.949 . S
H552 C529 0.950 . S
H553 C531 0.950 . S
C554 C555 1.349 . S
C554 C556 1.327 . S
C554 H579 0.950 . S
C555 C554 1.349 . S
C555 C571 1.349 . S
C556 C554 1.327 . S
C556 C575 1.429 . S
C556 H580 0.950 . S
C557 C574 1.574 . S
C557 C576 1.368 . S
C557 H581 0.949 . S
H558 C562 0.949 . S
C559 C560 1.349 . S
C559 C561 1.327 . S
C559 H582 0.950 . S
C560 C559 1.349 . S
C560 C572 1.349 . S
C561 C559 1.327 . S
C561 C577 1.429 . S
C561 H583 0.950 . S
C562 H558 0.949 . S
C562 C570 1.574 . S
C562 C578 1.368 . S
H563 C571 0.950 . S
H564 C569 0.950 . S
H565 C570 0.949 . S
H566 C572 0.950 . S
H567 C573 0.950 . S
H568 C574 0.949 . S
C569 H564 0.950 . S
C569 C571 1.327 . S
C569 C575 1.429 . S
C570 C562 1.574 . S
C570 H565 0.949 . S
C570 C576 1.368 . S
C571 C555 1.349 . S
C571 H563 0.950 . S
C571 C569 1.327 . S
C572 C560 1.349 . S
C572 H566 0.950 . S
C572 C573 1.327 . S
C573 H567 0.950 . S
C573 C572 1.327 . S
C573 C577 1.429 . S
C574 C557 1.574 . S
C574 H568 0.949 . S
C574 C578 1.368 . S
C575 C556 1.429 . S
C575 C569 1.429 . S
C575 C576 1.523 . S
C576 C557 1.368 . S
C576 C570 1.368 . S
C576 C575 1.523 . S
C577 C561 1.429 . S
C577 C573 1.429 . S
C577 C578 1.523 . S
C578 C562 1.368 . S
C578 C574 1.368 . S
C578 C577 1.523 . S
H579 C554 0.950 . S
H580 C556 0.950 . S
H581 C557 0.949 . S
H582 C559 0.950 . S
H583 C561 0.950 . S
C584 C585 1.349 . S
C584 C586 1.327 . S
C584 H609 0.950 . S
C585 C584 1.349 . S
C585 C601 1.349 . S
C586 C584 1.327 . S
C586 C605 1.429 . S
C586 H610 0.950 . S
C587 C604 1.574 . S
C587 C606 1.368 . S
C587 H611 0.949 . S
H588 C592 0.949 . S
C589 C590 1.349 . S
C589 C591 1.327 . S
C589 H612 0.950 . S
C590 C589 1.349 . S
C590 C602 1.349 . S
C591 C589 1.327 . S
C591 C607 1.429 . S
C591 H613 0.950 . S
C592 H588 0.949 . S
C592 C600 1.574 . S
C592 C608 1.368 . S
H593 C601 0.950 . S
H594 C599 0.950 . S
H595 C600 0.949 . S
H596 C602 0.950 . S
H597 C603 0.950 . S
H598 C604 0.949 . S
C599 H594 0.950 . S
C599 C601 1.327 . S
C599 C605 1.429 . S
C600 C592 1.574 . S
C600 H595 0.949 . S
C600 C606 1.368 . S
C601 C585 1.349 . S
C601 H593 0.950 . S
C601 C599 1.327 . S
C602 C590 1.349 . S
C602 H596 0.950 . S
C602 C603 1.327 . S
C603 H597 0.950 . S
C603 C602 1.327 . S
C603 C607 1.429 . S
C604 C587 1.574 . S
C604 H598 0.949 . S
C604 C608 1.368 . S
C605 C586 1.429 . S
C605 C599 1.429 . S
C605 C606 1.523 . S
C606 C587 1.368 . S
C606 C600 1.368 . S
C606 C605 1.523 . S
C607 C591 1.429 . S
C607 C603 1.429 . S
C607 C608 1.523 . S
C608 C592 1.368 . S
C608 C604 1.368 . S
C608 C607 1.523 . S
H609 C584 0.950 . S
H610 C586 0.950 . S
H611 C587 0.949 . S
H612 C589 0.950 . S
H613 C591 0.950 . S
C614 C615 1.349 . S
C614 C616 1.327 . S
C614 H639 0.950 . S
C615 C614 1.349 . S
C615 C631 1.349 . S
C616 C614 1.327 . S
C616 C635 1.429 . S
C616 H640 0.950 . S
C617 C634 1.574 1_565 S
C617 C636 1.368 . S
C617 H641 0.949 . S
H618 C622 0.949 . S
C619 C620 1.349 . S
C619 C621 1.327 . S
C619 H642 0.950 . S
C620 C619 1.349 . S
C620 C632 1.349 . S
C621 C619 1.327 . S
C621 C637 1.429 . S
C621 H643 0.950 . S
C622 H618 0.949 . S
C622 C630 1.574 1_545 S
C622 C638 1.368 . S
H623 C631 0.950 . S
H624 C629 0.950 . S
H625 C630 0.949 . S
H626 C632 0.950 . S
H627 C633 0.950 . S
H628 C634 0.949 . S
C629 H624 0.950 . S
C629 C631 1.327 . S
C629 C635 1.429 . S
C630 C622 1.574 1_565 S
C630 H625 0.949 . S
C630 C636 1.368 . S
C631 C615 1.349 . S
C631 H623 0.950 . S
C631 C629 1.327 . S
C632 C620 1.349 . S
C632 H626 0.950 . S
C632 C633 1.327 . S
C633 H627 0.950 . S
C633 C632 1.327 . S
C633 C637 1.429 . S
C634 C617 1.574 1_545 S
C634 H628 0.949 . S
C634 C638 1.368 . S
C635 C616 1.429 . S
C635 C629 1.429 . S
C635 C636 1.523 . S
C636 C617 1.368 . S
C636 C630 1.368 . S
C636 C635 1.523 . S
C637 C621 1.429 . S
C637 C633 1.429 . S
C637 C638 1.523 . S
C638 C622 1.368 . S
C638 C634 1.368 . S
C638 C637 1.523 . S
H639 C614 0.950 . S
H640 C616 0.950 . S
H641 C617 0.949 . S
H642 C619 0.950 . S
H643 C621 0.950 . S
C644 C645 1.349 . S
C644 C646 1.327 . S
C644 H669 0.950 . S
C645 C644 1.349 . S
C645 C661 1.349 . S
C646 C644 1.327 . S
C646 C665 1.429 . S
C646 H670 0.950 . S
C647 C664 1.574 1_655 S
C647 C666 1.368 1_545 S
C647 H671 0.949 . S
H648 C652 0.949 . S
C649 C650 1.349 . S
C649 C651 1.327 . S
C649 H672 0.950 . S
C650 C649 1.349 . S
C650 C662 1.349 . S
C651 C649 1.327 . S
C651 C667 1.429 . S
C651 H673 0.950 . S
C652 H648 0.949 . S
C652 C660 1.574 1_455 S
C652 C668 1.368 1_565 S
H653 C661 0.950 . S
H654 C659 0.950 . S
H655 C660 0.949 . S
H656 C662 0.950 . S
H657 C663 0.950 . S
H658 C664 0.949 . S
C659 H654 0.950 . S
C659 C661 1.327 . S
C659 C665 1.429 . S
C660 C652 1.574 1_655 S
C660 H655 0.949 . S
C660 C666 1.368 . S
C661 C645 1.349 . S
C661 H653 0.950 . S
C661 C659 1.327 . S
C662 C650 1.349 . S
C662 H656 0.950 . S
C662 C663 1.327 . S
C663 H657 0.950 . S
C663 C662 1.327 . S
C663 C667 1.429 . S
C664 C647 1.574 1_455 S
C664 H658 0.949 . S
C664 C668 1.368 . S
C665 C646 1.429 . S
C665 C659 1.429 . S
C665 C666 1.523 . S
C666 C647 1.368 1_565 S
C666 C660 1.368 . S
C666 C665 1.523 . S
C667 C651 1.429 . S
C667 C663 1.429 . S
C667 C668 1.523 . S
C668 C652 1.368 1_545 S
C668 C664 1.368 . S
C668 C667 1.523 . S
H669 C644 0.950 . S
H670 C646 0.950 . S
H671 C647 0.949 . S
H672 C649 0.950 . S
H673 C651 0.950 . S
C674 C675 1.349 . S
C674 C676 1.327 . S
C674 H699 0.950 . S
C675 C674 1.349 . S
C675 C691 1.349 . S
C676 C674 1.327 . S
C676 C695 1.429 . S
C676 H700 0.950 . S
C677 C694 1.574 . S
C677 C696 1.368 1_655 S
C677 H701 0.949 . S
H678 C682 0.949 . S
C679 C680 1.349 . S
C679 C681 1.327 . S
C679 H702 0.950 . S
C680 C679 1.349 . S
C680 C692 1.349 . S
C681 C679 1.327 . S
C681 C697 1.429 . S
C681 H703 0.950 . S
C682 H678 0.949 . S
C682 C690 1.574 . S
C682 C698 1.368 1_455 S
H683 C691 0.950 . S
H684 C689 0.950 . S
H685 C690 0.949 . S
H686 C692 0.950 . S
H687 C693 0.950 . S
H688 C694 0.949 . S
C689 H684 0.950 . S
C689 C691 1.327 . S
C689 C695 1.429 . S
C690 C682 1.574 . S
C690 H685 0.949 . S
C690 C696 1.368 . S
C691 C675 1.349 . S
C691 H683 0.950 . S
C691 C689 1.327 . S
C692 C680 1.349 . S
C692 H686 0.950 . S
C692 C693 1.327 . S
C693 H687 0.950 . S
C693 C692 1.327 . S
C693 C697 1.429 . S
C694 C677 1.574 . S
C694 H688 0.949 . S
C694 C698 1.368 . S
C695 C676 1.429 . S
C695 C689 1.429 . S
C695 C696 1.523 . S
C696 C677 1.368 1_455 S
C696 C690 1.368 . S
C696 C695 1.523 . S
C697 C681 1.429 . S
C697 C693 1.429 . S
C697 C698 1.523 . S
C698 C682 1.368 1_655 S
C698 C694 1.368 . S
C698 C697 1.523 . S
H699 C674 0.950 . S
H700 C676 0.950 . S
H701 C677 0.949 . S
H702 C679 0.950 . S
H703 C681 0.950 . S
C704 C705 1.349 . S
C704 C706 1.327 . S
C704 H729 0.950 . S
C705 C704 1.349 . S
C705 C721 1.349 . S
C706 C704 1.327 . S
C706 C725 1.429 . S
C706 H730 0.950 . S
C707 C724 1.574 . S
C707 C726 1.368 . S
C707 H731 0.949 . S
H708 C712 0.949 . S
C709 C710 1.349 . S
C709 C711 1.327 . S
C709 H732 0.950 . S
C710 C709 1.349 . S
C710 C722 1.349 . S
C711 C709 1.327 . S
C711 C727 1.429 . S
C711 H733 0.950 . S
C712 H708 0.949 . S
C712 C720 1.574 . S
C712 C728 1.368 . S
H713 C721 0.950 . S
H714 C719 0.950 . S
H715 C720 0.949 . S
H716 C722 0.950 . S
H717 C723 0.950 . S
H718 C724 0.949 . S
C719 H714 0.950 . S
C719 C721 1.327 . S
C719 C725 1.429 . S
C720 C712 1.574 . S
C720 H715 0.949 . S
C720 C726 1.368 . S
C721 C705 1.349 . S
C721 H713 0.950 . S
C721 C719 1.327 . S
C722 C710 1.349 . S
C722 H716 0.950 . S
C722 C723 1.327 . S
C723 H717 0.950 . S
C723 C722 1.327 . S
C723 C727 1.429 . S
C724 C707 1.574 . S
C724 H718 0.949 . S
C724 C728 1.368 . S
C725 C706 1.429 . S
C725 C719 1.429 . S
C725 C726 1.523 . S
C726 C707 1.368 . S
C726 C720 1.368 . S
C726 C725 1.523 . S
C727 C711 1.429 . S
C727 C723 1.429 . S
C727 C728 1.523 . S
C728 C712 1.368 . S
C728 C724 1.368 . S
C728 C727 1.523 . S
H729 C704 0.950 . S
H730 C706 0.950 . S
H731 C707 0.949 . S
H732 C709 0.950 . S
H733 C711 0.950 . S
C734 C735 1.349 . S
C734 C736 1.327 . S
C734 H759 0.950 . S
C735 C734 1.349 . S
C735 C751 1.349 . S
C736 C734 1.327 . S
C736 C755 1.429 . S
C736 H760 0.950 . S
C737 C754 1.574 . S
C737 C756 1.368 . S
C737 H761 0.949 . S
H738 C742 0.949 . S
C739 C740 1.349 . S
C739 C741 1.327 . S
C739 H762 0.950 . S
C740 C739 1.349 . S
C740 C752 1.349 . S
C741 C739 1.327 . S
C741 C757 1.429 . S
C741 H763 0.950 . S
C742 H738 0.949 . S
C742 C750 1.574 . S
C742 C758 1.368 . S
H743 C751 0.950 . S
H744 C749 0.950 . S
H745 C750 0.949 . S
H746 C752 0.950 . S
H747 C753 0.950 . S
H748 C754 0.949 . S
C749 H744 0.950 . S
C749 C751 1.327 . S
C749 C755 1.429 . S
C750 C742 1.574 . S
C750 H745 0.949 . S
C750 C756 1.368 . S
C751 C735 1.349 . S
C751 H743 0.950 . S
C751 C749 1.327 . S
C752 C740 1.349 . S
C752 H746 0.950 . S
C752 C753 1.327 . S
C753 H747 0.950 . S
C753 C752 1.327 . S
C753 C757 1.429 . S
C754 C737 1.574 . S
C754 H748 0.949 . S
C754 C758 1.368 . S
C755 C736 1.429 . S
C755 C749 1.429 . S
C755 C756 1.523 . S
C756 C737 1.368 . S
C756 C750 1.368 . S
C756 C755 1.523 . S
C757 C741 1.429 . S
C757 C753 1.429 . S
C757 C758 1.523 . S
C758 C742 1.368 . S
C758 C754 1.368 . S
C758 C757 1.523 . S
H759 C734 0.950 . S
H760 C736 0.950 . S
H761 C737 0.949 . S
H762 C739 0.950 . S
H763 C741 0.950 . S
C764 C765 1.349 . S
C764 C766 1.327 . S
C764 H789 0.950 . S
C765 C764 1.349 . S
C765 C781 1.349 . S
C766 C764 1.327 . S
C766 C785 1.429 . S
C766 H790 0.950 . S
C767 C784 1.574 . S
C767 C786 1.368 . S
C767 H791 0.949 . S
H768 C772 0.949 . S
C769 C770 1.349 . S
C769 C771 1.327 . S
C769 H792 0.950 . S
C770 C769 1.349 . S
C770 C782 1.349 . S
C771 C769 1.327 . S
C771 C787 1.429 . S
C771 H793 0.950 . S
C772 H768 0.949 . S
C772 C780 1.574 . S
C772 C788 1.368 . S
H773 C781 0.950 . S
H774 C779 0.950 . S
H775 C780 0.949 . S
H776 C782 0.950 . S
H777 C783 0.950 . S
H778 C784 0.949 . S
C779 H774 0.950 . S
C779 C781 1.327 . S
C779 C785 1.429 . S
C780 C772 1.574 . S
C780 H775 0.949 . S
C780 C786 1.368 . S
C781 C765 1.349 . S
C781 H773 0.950 . S
C781 C779 1.327 . S
C782 C770 1.349 . S
C782 H776 0.950 . S
C782 C783 1.327 . S
C783 H777 0.950 . S
C783 C782 1.327 . S
C783 C787 1.429 . S
C784 C767 1.574 . S
C784 H778 0.949 . S
C784 C788 1.368 . S
C785 C766 1.429 . S
C785 C779 1.429 . S
C785 C786 1.523 . S
C786 C767 1.368 . S
C786 C780 1.368 . S
C786 C785 1.523 . S
C787 C771 1.429 . S
C787 C783 1.429 . S
C787 C788 1.523 . S
C788 C772 1.368 . S
C788 C784 1.368 . S
C788 C787 1.523 . S
H789 C764 0.950 . S
H790 C766 0.950 . S
H791 C767 0.949 . S
H792 C769 0.950 . S
H793 C771 0.950 . S
C794 C795 1.349 . S
C794 C796 1.327 . S
C794 H819 0.950 . S
C795 C794 1.349 . S
C795 C811 1.349 . S
C796 C794 1.327 . S
C796 C815 1.429 . S
C796 H820 0.950 . S
C797 C814 1.574 . S
C797 C816 1.368 . S
C797 H821 0.949 . S
H798 C802 0.949 . S
C799 C800 1.349 . S
C799 C801 1.327 . S
C799 H822 0.950 . S
C800 C799 1.349 . S
C800 C812 1.349 . S
C801 C799 1.327 . S
C801 C817 1.429 . S
C801 H823 0.950 . S
C802 H798 0.949 . S
C802 C810 1.574 . S
C802 C818 1.368 . S
H803 C811 0.950 . S
H804 C809 0.950 . S
H805 C810 0.949 . S
H806 C812 0.950 . S
H807 C813 0.950 . S
H808 C814 0.949 . S
C809 H804 0.950 . S
C809 C811 1.327 . S
C809 C815 1.429 . S
C810 C802 1.574 . S
C810 H805 0.949 . S
C810 C816 1.368 . S
C811 C795 1.349 . S
C811 H803 0.950 . S
C811 C809 1.327 . S
C812 C800 1.349 . S
C812 H806 0.950 . S
C812 C813 1.327 . S
C813 H807 0.950 . S
C813 C812 1.327 . S
C813 C817 1.429 . S
C814 C797 1.574 . S
C814 H808 0.949 . S
C814 C818 1.368 . S
C815 C796 1.429 . S
C815 C809 1.429 . S
C815 C816 1.523 . S
C816 C797 1.368 . S
C816 C810 1.368 . S
C816 C815 1.523 . S
C817 C801 1.429 . S
C817 C813 1.429 . S
C817 C818 1.523 . S
C818 C802 1.368 . S
C818 C814 1.368 . S
C818 C817 1.523 . S
H819 C794 0.950 . S
H820 C796 0.950 . S
H821 C797 0.949 . S
H822 C799 0.950 . S
H823 C801 0.950 . S
C824 C825 1.349 . S
C824 C826 1.327 . S
C824 H849 0.950 . S
C825 C824 1.349 . S
C825 C841 1.349 . S
C826 C824 1.327 . S
C826 C845 1.429 . S
C826 H850 0.950 . S
C827 C844 1.574 . S
C827 C846 1.368 . S
C827 H851 0.949 . S
H828 C832 0.949 . S
C829 C830 1.349 . S
C829 C831 1.327 . S
C829 H852 0.950 . S
C830 C829 1.349 . S
C830 C842 1.349 . S
C831 C829 1.327 . S
C831 C847 1.429 . S
C831 H853 0.950 . S
C832 H828 0.949 . S
C832 C840 1.574 . S
C832 C848 1.368 . S
H833 C841 0.950 . S
H834 C839 0.950 . S
H835 C840 0.949 . S
H836 C842 0.950 . S
H837 C843 0.950 . S
H838 C844 0.949 . S
C839 H834 0.950 . S
C839 C841 1.327 . S
C839 C845 1.429 . S
C840 C832 1.574 . S
C840 H835 0.949 . S
C840 C846 1.368 . S
C841 C825 1.349 . S
C841 H833 0.950 . S
C841 C839 1.327 . S
C842 C830 1.349 . S
C842 H836 0.950 . S
C842 C843 1.327 . S
C843 H837 0.950 . S
C843 C842 1.327 . S
C843 C847 1.429 . S
C844 C827 1.574 . S
C844 H838 0.949 . S
C844 C848 1.368 . S
C845 C826 1.429 . S
C845 C839 1.429 . S
C845 C846 1.523 . S
C846 C827 1.368 . S
C846 C840 1.368 . S
C846 C845 1.523 . S
C847 C831 1.429 . S
C847 C843 1.429 . S
C847 C848 1.523 . S
C848 C832 1.368 . S
C848 C844 1.368 . S
C848 C847 1.523 . S
H849 C824 0.950 . S
H850 C826 0.950 . S
H851 C827 0.949 . S
H852 C829 0.950 . S
H853 C831 0.950 . S
C854 C855 1.349 . S
C854 C856 1.327 . S
C854 H879 0.950 . S
C855 C854 1.349 . S
C855 C871 1.349 . S
C856 C854 1.327 . S
C856 C875 1.429 . S
C856 H880 0.950 . S
C857 C874 1.574 . S
C857 C876 1.368 . S
C857 H881 0.949 . S
H858 C862 0.949 . S
C859 C860 1.349 . S
C859 C861 1.327 . S
C859 H882 0.950 . S
C860 C859 1.349 . S
C860 C872 1.349 . S
C861 C859 1.327 . S
C861 C877 1.429 . S
C861 H883 0.950 . S
C862 H858 0.949 . S
C862 C870 1.574 . S
C862 C878 1.368 . S
H863 C871 0.950 . S
H864 C869 0.950 . S
H865 C870 0.949 . S
H866 C872 0.950 . S
H867 C873 0.950 . S
H868 C874 0.949 . S
C869 H864 0.950 . S
C869 C871 1.327 . S
C869 C875 1.429 . S
C870 C862 1.574 . S
C870 H865 0.949 . S
C870 C876 1.368 . S
C871 C855 1.349 . S
C871 H863 0.950 . S
C871 C869 1.327 . S
C872 C860 1.349 . S
C872 H866 0.950 . S
C872 C873 1.327 . S
C873 H867 0.950 . S
C873 C872 1.327 . S
C873 C877 1.429 . S
C874 C857 1.574 . S
C874 H868 0.949 . S
C874 C878 1.368 . S
C875 C856 1.429 . S
C875 C869 1.429 . S
C875 C876 1.523 . S
C876 C857 1.368 . S
C876 C870 1.368 . S
C876 C875 1.523 . S
C877 C861 1.429 . S
C877 C873 1.429 . S
C877 C878 1.523 . S
C878 C862 1.368 . S
C878 C874 1.368 . S
C878 C877 1.523 . S
H879 C854 0.950 . S
H880 C856 0.950 . S
H881 C857 0.949 . S
H882 C859 0.950 . S
H883 C861 0.950 . S
C884 C885 1.349 . S
C884 C886 1.327 . S
C884 H909 0.950 . S
C885 C884 1.349 . S
C885 C901 1.349 . S
C886 C884 1.327 . S
C886 C905 1.429 . S
C886 H910 0.950 . S
C887 C904 1.574 . S
C887 C906 1.368 . S
C887 H911 0.949 . S
H888 C892 0.949 . S
C889 C890 1.349 . S
C889 C891 1.327 . S
C889 H912 0.950 . S
C890 C889 1.349 . S
C890 C902 1.349 . S
C891 C889 1.327 . S
C891 C907 1.429 . S
C891 H913 0.950 . S
C892 H888 0.949 . S
C892 C900 1.574 . S
C892 C908 1.368 . S
H893 C901 0.950 . S
H894 C899 0.950 . S
H895 C900 0.949 . S
H896 C902 0.950 . S
H897 C903 0.950 . S
H898 C904 0.949 . S
C899 H894 0.950 . S
C899 C901 1.327 . S
C899 C905 1.429 . S
C900 C892 1.574 . S
C900 H895 0.949 . S
C900 C906 1.368 . S
C901 C885 1.349 . S
C901 H893 0.950 . S
C901 C899 1.327 . S
C902 C890 1.349 . S
C902 H896 0.950 . S
C902 C903 1.327 . S
C903 H897 0.950 . S
C903 C902 1.327 . S
C903 C907 1.429 . S
C904 C887 1.574 . S
C904 H898 0.949 . S
C904 C908 1.368 . S
C905 C886 1.429 . S
C905 C899 1.429 . S
C905 C906 1.523 . S
C906 C887 1.368 . S
C906 C900 1.368 . S
C906 C905 1.523 . S
C907 C891 1.429 . S
C907 C903 1.429 . S
C907 C908 1.523 . S
C908 C892 1.368 . S
C908 C904 1.368 . S
C908 C907 1.523 . S
H909 C884 0.950 . S
H910 C886 0.950 . S
H911 C887 0.949 . S
H912 C889 0.950 . S
H913 C891 0.950 . S
C914 C915 1.349 . S
C914 C916 1.327 . S
C914 H939 0.950 . S
C915 C914 1.349 . S
C915 C931 1.349 . S
C916 C914 1.327 . S
C916 C935 1.429 . S
C916 H940 0.950 . S
C917 C934 1.574 . S
C917 C936 1.368 . S
C917 H941 0.949 . S
H918 C922 0.949 . S
C919 C920 1.349 . S
C919 C921 1.327 . S
C919 H942 0.950 . S
C920 C919 1.349 . S
C920 C932 1.349 . S
C921 C919 1.327 . S
C921 C937 1.429 . S
C921 H943 0.950 . S
C922 H918 0.949 . S
C922 C930 1.574 . S
C922 C938 1.368 . S
H923 C931 0.950 . S
H924 C929 0.950 . S
H925 C930 0.949 . S
H926 C932 0.950 . S
H927 C933 0.950 . S
H928 C934 0.949 . S
C929 H924 0.950 . S
C929 C931 1.327 . S
C929 C935 1.429 . S
C930 C922 1.574 . S
C930 H925 0.949 . S
C930 C936 1.368 . S
C931 C915 1.349 . S
C931 H923 0.950 . S
C931 C929 1.327 . S
C932 C920 1.349 . S
C932 H926 0.950 . S
C932 C933 1.327 . S
C933 H927 0.950 . S
C933 C932 1.327 . S
C933 C937 1.429 . S
C934 C917 1.574 . S
C934 H928 0.949 . S
C934 C938 1.368 . S
C935 C916 1.429 . S
C935 C929 1.429 . S
C935 C936 1.523 . S
C936 C917 1.368 . S
C936 C930 1.368 . S
C936 C935 1.523 . S
C937 C921 1.429 . S
C937 C933 1.429 . S
C937 C938 1.523 . S
C938 C922 1.368 . S
C938 C934 1.368 . S
C938 C937 1.523 . S
H939 C914 0.950 . S
H940 C916 0.950 . S
H941 C917 0.949 . S
H942 C919 0.950 . S
H943 C921 0.950 . S
C944 C945 1.349 . S
C944 C946 1.327 . S
C944 H969 0.950 . S
C945 C944 1.349 . S
C945 C961 1.349 . S
C946 C944 1.327 . S
C946 C965 1.429 . S
C946 H970 0.950 . S
C947 C964 1.574 . S
C947 C966 1.368 . S
C947 H971 0.949 . S
H948 C952 0.949 . S
C949 C950 1.349 . S
C949 C951 1.327 . S
C949 H972 0.950 . S
C950 C949 1.349 . S
C950 C962 1.349 . S
C951 C949 1.327 . S
C951 C967 1.429 . S
C951 H973 0.950 . S
C952 H948 0.949 . S
C952 C960 1.574 . S
C952 C968 1.368 . S
H953 C961 0.950 . S
H954 C959 0.950 . S
H955 C960 0.949 . S
H956 C962 0.950 . S
H957 C963 0.950 . S
H958 C964 0.949 . S
C959 H954 0.950 . S
C959 C961 1.327 . S
C959 C965 1.429 . S
C960 C952 1.574 . S
C960 H955 0.949 . S
C960 C966 1.368 . S
C961 C945 1.349 . S
C961 H953 0.950 . S
C961 C959 1.327 . S
C962 C950 1.349 . S
C962 H956 0.950 . S
C962 C963 1.327 . S
C963 H957 0.950 . S
C963 C962 1.327 . S
C963 C967 1.429 . S
C964 C947 1.574 . S
C964 H958 0.949 . S
C964 C968 1.368 . S
C965 C946 1.429 . S
C965 C959 1.429 . S
C965 C966 1.523 . S
C966 C947 1.368 . S
C966 C960 1.368 . S
C966 C965 1.523 . S
C967 C951 1.429 . S
C967 C963 1.429 . S
C967 C968 1.523 . S
C968 C952 1.368 . S
C968 C964 1.368 . S
C968 C967 1.523 . S
H969 C944 0.950 . S
H970 C946 0.950 . S
H971 C947 0.949 . S
H972 C949 0.950 . S
H973 C951 0.950 . S
C974 C975 1.349 . S
C974 C976 1.327 . S
C974 H999 0.950 . S
C975 C974 1.349 . S
C975 C991 1.349 . S
C976 C974 1.327 . S
C976 C995 1.429 . S
C976 H1000 0.950 . S
C977 C994 1.574 . S
C977 C996 1.368 . S
C977 H1001 0.949 . S
H978 C982 0.949 . S
C979 C980 1.349 . S
C979 C981 1.327 . S
C979 H1002 0.950 . S
C980 C979 1.349 . S
C980 C992 1.349 . S
C981 C979 1.327 . S
C981 C997 1.429 . S
C981 H1003 0.950 . S
C982 H978 0.949 . S
C982 C990 1.574 . S
C982 C998 1.368 . S
H983 C991 0.950 . S
H984 C989 0.950 . S
H985 C990 0.949 . S
H986 C992 0.950 . S
H987 C993 0.950 . S
H988 C994 0.949 . S
C989 H984 0.950 . S
C989 C991 1.327 . S
C989 C995 1.429 . S
C990 C982 1.574 . S
C990 H985 0.949 . S
C990 C996 1.368 . S
C991 C975 1.349 . S
C991 H983 0.950 . S
C991 C989 1.327 . S
C992 C980 1.349 . S
C992 H986 0.950 . S
C992 C993 1.327 . S
C993 H987 0.950 . S
C993 C992 1.327 . S
C993 C997 1.429 . S
C994 C977 1.574 . S
C994 H988 0.949 . S
C994 C998 1.368 . S
C995 C976 1.429 . S
C995 C989 1.429 . S
C995 C996 1.523 . S
C996 C977 1.368 . S
C996 C990 1.368 . S
C996 C995 1.523 . S
C997 C981 1.429 . S
C997 C993 1.429 . S
C997 C998 1.523 . S
C998 C982 1.368 . S
C998 C994 1.368 . S
C998 C997 1.523 . S
H999 C974 0.950 . S
H1000 C976 0.950 . S
H1001 C977 0.949 . S
H1002 C979 0.950 . S
H1003 C981 0.950 . S
C1004 C1005 1.349 . S
C1004 C1006 1.327 . S
C1004 H1029 0.950 . S
C1005 C1004 1.349 . S
C1005 C1021 1.349 . S
C1006 C1004 1.327 . S
C1006 C1025 1.429 . S
C1006 H1030 0.950 . S
C1007 C1024 1.574 . S
C1007 C1026 1.368 . S
C1007 H1031 0.949 . S
H1008 C1012 0.949 . S
C1009 C1010 1.349 . S
C1009 C1011 1.327 . S
C1009 H1032 0.950 . S
C1010 C1009 1.349 . S
C1010 C1022 1.349 . S
C1011 C1009 1.327 . S
C1011 C1027 1.429 . S
C1011 H1033 0.950 . S
C1012 H1008 0.949 . S
C1012 C1020 1.574 . S
C1012 C1028 1.368 . S
H1013 C1021 0.950 . S
H1014 C1019 0.950 . S
H1015 C1020 0.949 . S
H1016 C1022 0.950 . S
H1017 C1023 0.950 . S
H1018 C1024 0.949 . S
C1019 H1014 0.950 . S
C1019 C1021 1.327 . S
C1019 C1025 1.429 . S
C1020 C1012 1.574 . S
C1020 H1015 0.949 . S
C1020 C1026 1.368 . S
C1021 C1005 1.349 . S
C1021 H1013 0.950 . S
C1021 C1019 1.327 . S
C1022 C1010 1.349 . S
C1022 H1016 0.950 . S
C1022 C1023 1.327 . S
C1023 H1017 0.950 . S
C1023 C1022 1.327 . S
C1023 C1027 1.429 . S
C1024 C1007 1.574 . S
C1024 H1018 0.949 . S
C1024 C1028 1.368 . S
C1025 C1006 1.429 . S
C1025 C1019 1.429 . S
C1025 C1026 1.523 . S
C1026 C1007 1.368 . S
C1026 C1020 1.368 . S
C1026 C1025 1.523 . S
C1027 C1011 1.429 . S
C1027 C1023 1.429 . S
C1027 C1028 1.523 . S
C1028 C1012 1.368 . S
C1028 C1024 1.368 . S
C1028 C1027 1.523 . S
H1029 C1004 0.950 . S
H1030 C1006 0.950 . S
H1031 C1007 0.949 . S
H1032 C1009 0.950 . S
H1033 C1011 0.950 . S
C1034 C1035 1.349 . S
C1034 C1036 1.327 . S
C1034 H1059 0.950 . S
C1035 C1034 1.349 . S
C1035 C1051 1.349 . S
C1036 C1034 1.327 . S
C1036 C1055 1.429 . S
C1036 H1060 0.950 . S
C1037 C1054 1.574 1_556 S
C1037 C1056 1.368 . S
C1037 H1061 0.949 . S
H1038 C1042 0.949 . S
C1039 C1040 1.349 . S
C1039 C1041 1.327 . S
C1039 H1062 0.950 . S
C1040 C1039 1.349 . S
C1040 C1052 1.349 . S
C1041 C1039 1.327 . S
C1041 C1057 1.429 . S
C1041 H1063 0.950 . S
C1042 H1038 0.949 . S
C1042 C1050 1.574 1_554 S
C1042 C1058 1.368 . S
H1043 C1051 0.950 . S
H1044 C1049 0.950 . S
H1045 C1050 0.949 . S
H1046 C1052 0.950 . S
H1047 C1053 0.950 . S
H1048 C1054 0.949 . S
C1049 H1044 0.950 . S
C1049 C1051 1.327 . S
C1049 C1055 1.429 . S
C1050 C1042 1.574 1_556 S
C1050 H1045 0.949 . S
C1050 C1056 1.368 . S
C1051 C1035 1.349 . S
C1051 H1043 0.950 . S
C1051 C1049 1.327 . S
C1052 C1040 1.349 . S
C1052 H1046 0.950 . S
C1052 C1053 1.327 . S
C1053 H1047 0.950 . S
C1053 C1052 1.327 . S
C1053 C1057 1.429 . S
C1054 C1037 1.574 1_554 S
C1054 H1048 0.949 . S
C1054 C1058 1.368 . S
C1055 C1036 1.429 . S
C1055 C1049 1.429 . S
C1055 C1056 1.523 . S
C1056 C1037 1.368 . S
C1056 C1050 1.368 . S
C1056 C1055 1.523 . S
C1057 C1041 1.429 . S
C1057 C1053 1.429 . S
C1057 C1058 1.523 . S
C1058 C1042 1.368 . S
C1058 C1054 1.368 . S
C1058 C1057 1.523 . S
H1059 C1034 0.950 . S
H1060 C1036 0.950 . S
H1061 C1037 0.949 . S
H1062 C1039 0.950 . S
H1063 C1041 0.950 . S
C1064 C1065 1.349 . S
C1064 C1066 1.327 . S
C1064 H1089 0.950 . S
C1065 C1064 1.349 . S
C1065 C1081 1.349 . S
C1066 C1064 1.327 . S
C1066 C1085 1.429 . S
C1066 H1090 0.950 . S
C1067 C1084 1.574 1_554 S
C1067 C1086 1.368 . S
C1067 H1091 0.949 . S
H1068 C1072 0.949 . S
C1069 C1070 1.349 . S
C1069 C1071 1.327 . S
C1069 H1092 0.950 . S
C1070 C1069 1.349 . S
C1070 C1082 1.349 . S
C1071 C1069 1.327 . S
C1071 C1087 1.429 . S
C1071 H1093 0.950 . S
C1072 H1068 0.949 . S
C1072 C1080 1.574 1_556 S
C1072 C1088 1.368 . S
H1073 C1081 0.950 . S
H1074 C1079 0.950 . S
H1075 C1080 0.949 . S
H1076 C1082 0.950 . S
H1077 C1083 0.950 . S
H1078 C1084 0.949 . S
C1079 H1074 0.950 . S
C1079 C1081 1.327 . S
C1079 C1085 1.429 . S
C1080 C1072 1.574 1_554 S
C1080 H1075 0.949 . S
C1080 C1086 1.368 . S
C1081 C1065 1.349 . S
C1081 H1073 0.950 . S
C1081 C1079 1.327 . S
C1082 C1070 1.349 . S
C1082 H1076 0.950 . S
C1082 C1083 1.327 . S
C1083 H1077 0.950 . S
C1083 C1082 1.327 . S
C1083 C1087 1.429 . S
C1084 C1067 1.574 1_556 S
C1084 H1078 0.949 . S
C1084 C1088 1.368 . S
C1085 C1066 1.429 . S
C1085 C1079 1.429 . S
C1085 C1086 1.523 . S
C1086 C1067 1.368 . S
C1086 C1080 1.368 . S
C1086 C1085 1.523 . S
C1087 C1071 1.429 . S
C1087 C1083 1.429 . S
C1087 C1088 1.523 . S
C1088 C1072 1.368 . S
C1088 C1084 1.368 . S
C1088 C1087 1.523 . S
H1089 C1064 0.950 . S
H1090 C1066 0.950 . S
H1091 C1067 0.949 . S
H1092 C1069 0.950 . S
H1093 C1071 0.950 . S
C1094 C1095 1.349 . S
C1094 C1096 1.327 . S
C1094 H1119 0.950 . S
C1095 C1094 1.349 . S
C1095 C1111 1.349 . S
C1096 C1094 1.327 . S
C1096 C1115 1.429 . S
C1096 H1120 0.950 . S
C1097 C1114 1.574 . S
C1097 C1116 1.368 . S
C1097 H1121 0.949 . S
H1098 C1102 0.949 . S
C1099 C1100 1.349 . S
C1099 C1101 1.327 . S
C1099 H1122 0.950 . S
C1100 C1099 1.349 . S
C1100 C1112 1.349 . S
C1101 C1099 1.327 . S
C1101 C1117 1.429 . S
C1101 H1123 0.950 . S
C1102 H1098 0.949 . S
C1102 C1110 1.574 . S
C1102 C1118 1.368 . S
H1103 C1111 0.950 . S
H1104 C1109 0.950 . S
H1105 C1110 0.949 . S
H1106 C1112 0.950 . S
H1107 C1113 0.950 . S
H1108 C1114 0.949 . S
C1109 H1104 0.950 . S
C1109 C1111 1.327 . S
C1109 C1115 1.429 . S
C1110 C1102 1.574 . S
C1110 H1105 0.949 . S
C1110 C1116 1.368 . S
C1111 C1095 1.349 . S
C1111 H1103 0.950 . S
C1111 C1109 1.327 . S
C1112 C1100 1.349 . S
C1112 H1106 0.950 . S
C1112 C1113 1.327 . S
C1113 H1107 0.950 . S
C1113 C1112 1.327 . S
C1113 C1117 1.429 . S
C1114 C1097 1.574 . S
C1114 H1108 0.949 . S
C1114 C1118 1.368 . S
C1115 C1096 1.429 . S
C1115 C1109 1.429 . S
C1115 C1116 1.523 . S
C1116 C1097 1.368 . S
C1116 C1110 1.368 . S
C1116 C1115 1.523 . S
C1117 C1101 1.429 . S
C1117 C1113 1.429 . S
C1117 C1118 1.523 . S
C1118 C1102 1.368 . S
C1118 C1114 1.368 . S
C1118 C1117 1.523 . S
H1119 C1094 0.950 . S
H1120 C1096 0.950 . S
H1121 C1097 0.949 . S
H1122 C1099 0.950 . S
H1123 C1101 0.950 . S
C1124 C1125 1.349 . S
C1124 C1126 1.327 . S
C1124 H1149 0.950 . S
C1125 C1124 1.349 . S
C1125 C1141 1.349 . S
C1126 C1124 1.327 . S
C1126 C1145 1.429 . S
C1126 H1150 0.950 . S
C1127 C1144 1.574 . S
C1127 C1146 1.368 . S
C1127 H1151 0.949 . S
H1128 C1132 0.949 . S
C1129 C1130 1.349 . S
C1129 C1131 1.327 . S
C1129 H1152 0.950 . S
C1130 C1129 1.349 . S
C1130 C1142 1.349 . S
C1131 C1129 1.327 . S
C1131 C1147 1.429 . S
C1131 H1153 0.950 . S
C1132 H1128 0.949 . S
C1132 C1140 1.574 . S
C1132 C1148 1.368 . S
H1133 C1141 0.950 . S
H1134 C1139 0.950 . S
H1135 C1140 0.949 . S
H1136 C1142 0.950 . S
H1137 C1143 0.950 . S
H1138 C1144 0.949 . S
C1139 H1134 0.950 . S
C1139 C1141 1.327 . S
C1139 C1145 1.429 . S
C1140 C1132 1.574 . S
C1140 H1135 0.949 . S
C1140 C1146 1.368 . S
C1141 C1125 1.349 . S
C1141 H1133 0.950 . S
C1141 C1139 1.327 . S
C1142 C1130 1.349 . S
C1142 H1136 0.950 . S
C1142 C1143 1.327 . S
C1143 H1137 0.950 . S
C1143 C1142 1.327 . S
C1143 C1147 1.429 . S
C1144 C1127 1.574 . S
C1144 H1138 0.949 . S
C1144 C1148 1.368 . S
C1145 C1126 1.429 . S
C1145 C1139 1.429 . S
C1145 C1146 1.523 . S
C1146 C1127 1.368 . S
C1146 C1140 1.368 . S
C1146 C1145 1.523 . S
C1147 C1131 1.429 . S
C1147 C1143 1.429 . S
C1147 C1148 1.523 . S
C1148 C1132 1.368 . S
C1148 C1144 1.368 . S
C1148 C1147 1.523 . S
H1149 C1124 0.950 . S
H1150 C1126 0.950 . S
H1151 C1127 0.949 . S
H1152 C1129 0.950 . S
H1153 C1131 0.950 . S
C1154 C1155 1.349 . S
C1154 C1156 1.327 . S
C1154 H1179 0.950 . S
C1155 C1154 1.349 . S
C1155 C1171 1.349 . S
C1156 C1154 1.327 . S
C1156 C1175 1.429 . S
C1156 H1180 0.950 . S
C1157 C1174 1.574 . S
C1157 C1176 1.368 . S
C1157 H1181 0.949 . S
H1158 C1162 0.949 . S
C1159 C1160 1.349 . S
C1159 C1161 1.327 . S
C1159 H1182 0.950 . S
C1160 C1159 1.349 . S
C1160 C1172 1.349 . S
C1161 C1159 1.327 . S
C1161 C1177 1.429 . S
C1161 H1183 0.950 . S
C1162 H1158 0.949 . S
C1162 C1170 1.574 . S
C1162 C1178 1.368 . S
H1163 C1171 0.950 . S
H1164 C1169 0.950 . S
H1165 C1170 0.949 . S
H1166 C1172 0.950 . S
H1167 C1173 0.950 . S
H1168 C1174 0.949 . S
C1169 H1164 0.950 . S
C1169 C1171 1.327 . S
C1169 C1175 1.429 . S
C1170 C1162 1.574 . S
C1170 H1165 0.949 . S
C1170 C1176 1.368 . S
C1171 C1155 1.349 . S
C1171 H1163 0.950 . S
C1171 C1169 1.327 . S
C1172 C1160 1.349 . S
C1172 H1166 0.950 . S
C1172 C1173 1.327 . S
C1173 H1167 0.950 . S
C1173 C1172 1.327 . S
C1173 C1177 1.429 . S
C1174 C1157 1.574 . S
C1174 H1168 0.949 . S
C1174 C1178 1.368 . S
C1175 C1156 1.429 . S
C1175 C1169 1.429 . S
C1175 C1176 1.523 . S
C1176 C1157 1.368 . S
C1176 C1170 1.368 . S
C1176 C1175 1.523 . S
C1177 C1161 1.429 . S
C1177 C1173 1.429 . S
C1177 C1178 1.523 . S
C1178 C1162 1.368 . S
C1178 C1174 1.368 . S
C1178 C1177 1.523 . S
H1179 C1154 0.950 . S
H1180 C1156 0.950 . S
H1181 C1157 0.949 . S
H1182 C1159 0.950 . S
H1183 C1161 0.950 . S
C225 C146 1.315 . S
C230 C6 1.315 . S
C255 C20 1.315 . S
C260 C160 1.315 . S
C285 C118 1.315 . S
C290 C34 1.315 . S
C315 C132 1.315 . S
C320 C48 1.315 . S
C345 C62 1.315 . S
C350 C202 1.315 . S
C375 C216 1.315 . S
C380 C76 1.315 . S
C405 C90 1.315 . S
C410 C174 1.315 . S
C435 C188 1.315 . S
C440 C104 1.315 . S
C465 C149 1.796 . S
C470 C9 1.796 . S
C495 C23 1.796 . S
C500 C163 1.796 . S
C525 C37 1.796 . S
C530 C121 1.796 . S
C555 C51 1.796 . S
C560 C135 1.796 . S
C585 C65 1.796 . S
C590 C205 1.796 . S
C615 C79 1.796 . S
C620 C219 1.796 . S
C645 C177 1.796 . S
C650 C93 1.796 . S
C675 C191 1.796 . S
C680 C107 1.796 . S
C705 C8 1.130 . S
C710 C92 1.130 . S
C735 C22 1.130 . S
C740 C106 1.130 . S
C765 C36 1.130 . S
C770 C64 1.130 . S
C795 C50 1.130 . S
C800 C78 1.130 . S
C825 C120 1.130 . S
C830 C204 1.130 . S
C855 C218 1.130 . S
C860 C134 1.130 . S
C885 C148 1.130 . S
C890 C176 1.130 . S
C915 C190 1.130 . S
C920 C162 1.130 . S
C945 C7 1.306 . S
C950 C217 1.306 . S
C975 C175 1.306 . S
C980 C21 1.306 . S
C1005 C189 1.307 . S
C1010 C35 1.307 . S
C1035 C203 1.306 . S
C1040 C49 1.306 . S
C1065 C133 1.306 . S
C1070 C63 1.306 . S
C1095 C147 1.307 . S
C1100 C77 1.307 . S
C1125 C91 1.307 . S
C1130 C161 1.307 . S
C1155 C105 1.306 . S
C1160 C119 1.306 . S
