# Generated by pormake.
# Topology wgo, (5)-cn, num edge types: 1
# Building blocks:
#     Node 0, Type 0, BuildingBlock: BEQFEK_clean_sbu_0, # of connection points: 5
#     Node 1, Type 0, BuildingBlock: BEQFEK_clean_sbu_0, # of connection points: 5
#     Node 2, Type 0, BuildingBlock: BEQFEK_clean_sbu_0, # of connection points: 5
#     Node 3, Type 0, BuildingBlock: BEQFEK_clean_sbu_0, # of connection points: 5
#     Node 4, Type 0, BuildingBlock: BEQFEK_clean_sbu_0, # of connection points: 5
#     Node 5, Type 0, BuildingBlock: BEQFEK_clean_sbu_0, # of connection points: 5
#     Node 6, Type 0, BuildingBlock: BEQFEK_clean_sbu_0, # of connection points: 5
#     Node 7, Type 0, BuildingBlock: BEQFEK_clean_sbu_0, # of connection points: 5
#     Node 8, Type 0, BuildingBlock: BEQFEK_clean_sbu_0, # of connection points: 5
#     Node 9, Type 0, BuildingBlock: BEQFEK_clean_sbu_0, # of connection points: 5
#     Node 10, Type 0, BuildingBlock: BEQFEK_clean_sbu_0, # of connection points: 5
#     Node 11, Type 0, BuildingBlock: BEQFEK_clean_sbu_0, # of connection points: 5
#     Node 12, Type 0, BuildingBlock: BEQFEK_clean_sbu_0, # of connection points: 5
#     Node 13, Type 0, BuildingBlock: BEQFEK_clean_sbu_0, # of connection points: 5
#     Node 14, Type 0, BuildingBlock: BEQFEK_clean_sbu_0, # of connection points: 5
#     Node 15, Type 0, BuildingBlock: BEQFEK_clean_sbu_0, # of connection points: 5
#     Node 16, Type 0, BuildingBlock: BEQFEK_clean_sbu_0, # of connection points: 5
#     Node 17, Type 0, BuildingBlock: BEQFEK_clean_sbu_0, # of connection points: 5
#     Node 18, Type 0, BuildingBlock: BEQFEK_clean_sbu_0, # of connection points: 5
#     Node 19, Type 0, BuildingBlock: BEQFEK_clean_sbu_0, # of connection points: 5
#     Node 20, Type 0, BuildingBlock: BEQFEK_clean_sbu_0, # of connection points: 5
#     Node 21, Type 0, BuildingBlock: BEQFEK_clean_sbu_0, # of connection points: 5
#     Node 22, Type 0, BuildingBlock: BEQFEK_clean_sbu_0, # of connection points: 5
#     Node 23, Type 0, BuildingBlock: BEQFEK_clean_sbu_0, # of connection points: 5
#     Node 24, Type 0, BuildingBlock: BEQFEK_clean_sbu_0, # of connection points: 5
#     Node 25, Type 0, BuildingBlock: BEQFEK_clean_sbu_0, # of connection points: 5
#     Node 26, Type 0, BuildingBlock: BEQFEK_clean_sbu_0, # of connection points: 5
#     Node 27, Type 0, BuildingBlock: BEQFEK_clean_sbu_0, # of connection points: 5
#     Node 28, Type 0, BuildingBlock: BEQFEK_clean_sbu_0, # of connection points: 5
#     Node 29, Type 0, BuildingBlock: BEQFEK_clean_sbu_0, # of connection points: 5
#     Node 30, Type 0, BuildingBlock: BEQFEK_clean_sbu_0, # of connection points: 5
#     Node 31, Type 0, BuildingBlock: BEQFEK_clean_sbu_0, # of connection points: 5
#     Edge 32, Type (0, 0), BuildingBlock: CIFDUS_clean_linker_0, # of connection points: 2
#     Edge 33, Type (0, 0), BuildingBlock: CIFDUS_clean_linker_0, # of connection points: 2
#     Edge 34, Type (0, 0), BuildingBlock: CIFDUS_clean_linker_0, # of connection points: 2
#     Edge 35, Type (0, 0), BuildingBlock: CIFDUS_clean_linker_0, # of connection points: 2
#     Edge 36, Type (0, 0), BuildingBlock: CIFDUS_clean_linker_0, # of connection points: 2
#     Edge 37, Type (0, 0), BuildingBlock: CIFDUS_clean_linker_0, # of connection points: 2
#     Edge 38, Type (0, 0), BuildingBlock: CIFDUS_clean_linker_0, # of connection points: 2
#     Edge 39, Type (0, 0), BuildingBlock: CIFDUS_clean_linker_0, # of connection points: 2
#     Edge 40, Type (0, 0), BuildingBlock: CIFDUS_clean_linker_0, # of connection points: 2
#     Edge 41, Type (0, 0), BuildingBlock: CIFDUS_clean_linker_0, # of connection points: 2
#     Edge 42, Type (0, 0), BuildingBlock: CIFDUS_clean_linker_0, # of connection points: 2
#     Edge 43, Type (0, 0), BuildingBlock: CIFDUS_clean_linker_0, # of connection points: 2
#     Edge 44, Type (0, 0), BuildingBlock: CIFDUS_clean_linker_0, # of connection points: 2
#     Edge 45, Type (0, 0), BuildingBlock: CIFDUS_clean_linker_0, # of connection points: 2
#     Edge 46, Type (0, 0), BuildingBlock: CIFDUS_clean_linker_0, # of connection points: 2
#     Edge 47, Type (0, 0), BuildingBlock: CIFDUS_clean_linker_0, # of connection points: 2
#     Edge 48, Type (0, 0), BuildingBlock: CIFDUS_clean_linker_0, # of connection points: 2
#     Edge 49, Type (0, 0), BuildingBlock: CIFDUS_clean_linker_0, # of connection points: 2
#     Edge 50, Type (0, 0), BuildingBlock: CIFDUS_clean_linker_0, # of connection points: 2
#     Edge 51, Type (0, 0), BuildingBlock: CIFDUS_clean_linker_0, # of connection points: 2
#     Edge 52, Type (0, 0), BuildingBlock: CIFDUS_clean_linker_0, # of connection points: 2
#     Edge 53, Type (0, 0), BuildingBlock: CIFDUS_clean_linker_0, # of connection points: 2
#     Edge 54, Type (0, 0), BuildingBlock: CIFDUS_clean_linker_0, # of connection points: 2
#     Edge 55, Type (0, 0), BuildingBlock: CIFDUS_clean_linker_0, # of connection points: 2
#     Edge 56, Type (0, 0), BuildingBlock: CIFDUS_clean_linker_0, # of connection points: 2
#     Edge 57, Type (0, 0), BuildingBlock: CIFDUS_clean_linker_0, # of connection points: 2
#     Edge 58, Type (0, 0), BuildingBlock: CIFDUS_clean_linker_0, # of connection points: 2
#     Edge 59, Type (0, 0), BuildingBlock: CIFDUS_clean_linker_0, # of connection points: 2
#     Edge 60, Type (0, 0), BuildingBlock: CIFDUS_clean_linker_0, # of connection points: 2
#     Edge 61, Type (0, 0), BuildingBlock: CIFDUS_clean_linker_0, # of connection points: 2
#     Edge 62, Type (0, 0), BuildingBlock: CIFDUS_clean_linker_0, # of connection points: 2
#     Edge 63, Type (0, 0), BuildingBlock: CIFDUS_clean_linker_0, # of connection points: 2
#     Edge 64, Type (0, 0), BuildingBlock: CIFDUS_clean_linker_0, # of connection points: 2
#     Edge 65, Type (0, 0), BuildingBlock: CIFDUS_clean_linker_0, # of connection points: 2
#     Edge 66, Type (0, 0), BuildingBlock: CIFDUS_clean_linker_0, # of connection points: 2
#     Edge 67, Type (0, 0), BuildingBlock: CIFDUS_clean_linker_0, # of connection points: 2
#     Edge 68, Type (0, 0), BuildingBlock: CIFDUS_clean_linker_0, # of connection points: 2
#     Edge 69, Type (0, 0), BuildingBlock: CIFDUS_clean_linker_0, # of connection points: 2
#     Edge 70, Type (0, 0), BuildingBlock: CIFDUS_clean_linker_0, # of connection points: 2
#     Edge 71, Type (0, 0), BuildingBlock: CIFDUS_clean_linker_0, # of connection points: 2
#     Edge 72, Type (0, 0), BuildingBlock: CIFDUS_clean_linker_0, # of connection points: 2
#     Edge 73, Type (0, 0), BuildingBlock: CIFDUS_clean_linker_0, # of connection points: 2
#     Edge 74, Type (0, 0), BuildingBlock: CIFDUS_clean_linker_0, # of connection points: 2
#     Edge 75, Type (0, 0), BuildingBlock: CIFDUS_clean_linker_0, # of connection points: 2
#     Edge 76, Type (0, 0), BuildingBlock: CIFDUS_clean_linker_0, # of connection points: 2
#     Edge 77, Type (0, 0), BuildingBlock: CIFDUS_clean_linker_0, # of connection points: 2
#     Edge 78, Type (0, 0), BuildingBlock: CIFDUS_clean_linker_0, # of connection points: 2
#     Edge 79, Type (0, 0), BuildingBlock: CIFDUS_clean_linker_0, # of connection points: 2
#     Edge 80, Type (0, 0), BuildingBlock: CIFDUS_clean_linker_0, # of connection points: 2
#     Edge 81, Type (0, 0), BuildingBlock: CIFDUS_clean_linker_0, # of connection points: 2
#     Edge 82, Type (0, 0), BuildingBlock: CIFDUS_clean_linker_0, # of connection points: 2
#     Edge 83, Type (0, 0), BuildingBlock: CIFDUS_clean_linker_0, # of connection points: 2
#     Edge 84, Type (0, 0), BuildingBlock: CIFDUS_clean_linker_0, # of connection points: 2
#     Edge 85, Type (0, 0), BuildingBlock: CIFDUS_clean_linker_0, # of connection points: 2
#     Edge 86, Type (0, 0), BuildingBlock: CIFDUS_clean_linker_0, # of connection points: 2
#     Edge 87, Type (0, 0), BuildingBlock: CIFDUS_clean_linker_0, # of connection points: 2
#     Edge 88, Type (0, 0), BuildingBlock: CIFDUS_clean_linker_0, # of connection points: 2
#     Edge 89, Type (0, 0), BuildingBlock: CIFDUS_clean_linker_0, # of connection points: 2
#     Edge 90, Type (0, 0), BuildingBlock: CIFDUS_clean_linker_0, # of connection points: 2
#     Edge 91, Type (0, 0), BuildingBlock: CIFDUS_clean_linker_0, # of connection points: 2
#     Edge 92, Type (0, 0), BuildingBlock: CIFDUS_clean_linker_0, # of connection points: 2
#     Edge 93, Type (0, 0), BuildingBlock: CIFDUS_clean_linker_0, # of connection points: 2
#     Edge 94, Type (0, 0), BuildingBlock: CIFDUS_clean_linker_0, # of connection points: 2
#     Edge 95, Type (0, 0), BuildingBlock: CIFDUS_clean_linker_0, # of connection points: 2
#     Edge 96, Type (0, 0), BuildingBlock: CIFDUS_clean_linker_0, # of connection points: 2
#     Edge 97, Type (0, 0), BuildingBlock: CIFDUS_clean_linker_0, # of connection points: 2
#     Edge 98, Type (0, 0), BuildingBlock: CIFDUS_clean_linker_0, # of connection points: 2
#     Edge 99, Type (0, 0), BuildingBlock: CIFDUS_clean_linker_0, # of connection points: 2
#     Edge 100, Type (0, 0), BuildingBlock: CIFDUS_clean_linker_0, # of connection points: 2
#     Edge 101, Type (0, 0), BuildingBlock: CIFDUS_clean_linker_0, # of connection points: 2
#     Edge 102, Type (0, 0), BuildingBlock: CIFDUS_clean_linker_0, # of connection points: 2
#     Edge 103, Type (0, 0), BuildingBlock: CIFDUS_clean_linker_0, # of connection points: 2
#     Edge 104, Type (0, 0), BuildingBlock: CIFDUS_clean_linker_0, # of connection points: 2
#     Edge 105, Type (0, 0), BuildingBlock: CIFDUS_clean_linker_0, # of connection points: 2
#     Edge 106, Type (0, 0), BuildingBlock: CIFDUS_clean_linker_0, # of connection points: 2
#     Edge 107, Type (0, 0), BuildingBlock: CIFDUS_clean_linker_0, # of connection points: 2
#     Edge 108, Type (0, 0), BuildingBlock: CIFDUS_clean_linker_0, # of connection points: 2
#     Edge 109, Type (0, 0), BuildingBlock: CIFDUS_clean_linker_0, # of connection points: 2
#     Edge 110, Type (0, 0), BuildingBlock: CIFDUS_clean_linker_0, # of connection points: 2
#     Edge 111, Type (0, 0), BuildingBlock: CIFDUS_clean_linker_0, # of connection points: 2
# Relax obj value: 0.304
# Max RMSD: 0.180
# Mean RMSD: 0.180
data_MOF--net-wgo--node1-BEQFEK_clean_sbu_0--edge1-CIFDUS_clean_linker_0
_symmetry_space_group_name_H-M    P1
_symmetry_Int_Tables_number       1
_symmetry_cell_setting            triclinic
loop_
_symmetry_equiv_pos_as_xyz
'x, y, z'
_cell_length_a     31.94565
_cell_length_b     31.934898
_cell_length_c     91.647415
_cell_angle_alpha  89.991121
_cell_angle_beta   90.038122
_cell_angle_gamma 89.852449
loop_
_atom_site_label
_atom_site_type_symbol
_atom_site_fract_x
_atom_site_fract_y
_atom_site_fract_z
_atom_type_partial_charge
Co0 Co 0.48048 0.04611 0.09991 0.0
Co1 Co 0.39077 0.07207 0.0901 0.0
C2 C 0.44779 0.0382 0.06838 0.0
O3 O 0.47516 0.03631 0.07846 0.0
O4 O 0.41079 0.05089 0.07107 0.0
C5 C 0.54508 0.98625 0.09792 0.0
O6 O 0.51614 0.96654 0.09042 0.0
C7 C 0.30146 0.07446 0.08198 0.0
C8 C 0.2787 0.12087 0.09802 0.0
C9 C 0.26521 0.09224 0.08771 0.0
N10 N 0.33439 0.09043 0.08916 0.0
N11 N 0.32067 0.11924 0.09834 0.0
C12 C 0.3051 0.04303 0.0699 0.0
H13 H 0.32918 0.05365 0.06202 0.0
H14 H 0.31575 0.01245 0.07427 0.0
H15 H 0.27486 0.03904 0.06411 0.0
C16 C 0.43051 0.99863 0.1225 0.0
N17 N 0.43434 0.02221 0.1103 0.0
N18 N 0.39671 0.03128 0.10533 0.0
C19 C 0.36798 0.01264 0.1139 0.0
C20 C 0.38809 0.99209 0.12532 0.0
C21 C 0.46659 0.98557 0.13186 0.0
H22 H 0.49372 0.00658 0.13007 0.0
H23 H 0.47594 0.9532 0.12887 0.0
H24 H 0.45759 0.98577 0.14356 0.0
O25 O 0.48397 0.10753 0.10353 0.0
O26 O 0.42086 0.12387 0.09529 0.0
H27 H 0.30855 0.04376 0.11404 0.0
H28 H 0.30542 0.98792 0.11699 0.0
C29 C 0.32191 0.01298 0.11092 0.0
H30 H 0.31649 0.00766 0.09919 0.0
H31 H 0.33977 0.13572 0.10556 0.0
O32 O 0.53533 0.01994 0.10454 0.0
C33 C 0.45592 0.13472 0.10062 0.0
Co34 Co 0.21321 0.23045 0.34829 0.0
Co35 Co 0.17274 0.1464 0.33911 0.0
C36 C 0.21379 0.20022 0.31698 0.0
O37 O 0.22122 0.22622 0.32711 0.0
O38 O 0.19564 0.16559 0.31975 0.0
C39 C 0.28255 0.28348 0.3477 0.0
O40 O 0.2999 0.25134 0.34109 0.0
C41 C 0.16642 0.05737 0.33155 0.0
C42 C 0.10502 0.04104 0.34095 0.0
C43 C 0.1397 0.02404 0.33411 0.0
N44 N 0.1485 0.09241 0.33673 0.0
N45 N 0.11126 0.0826 0.34198 0.0
C46 C 0.20927 0.05564 0.32499 0.0
H47 H 0.22741 0.08403 0.32792 0.0
H48 H 0.22619 0.027 0.32854 0.0
H49 H 0.2062 0.0543 0.31294 0.0
C50 C 0.26092 0.17493 0.36858 0.0
N51 N 0.23189 0.18152 0.35809 0.0
N52 N 0.21494 0.14552 0.35434 0.0
C53 C 0.2327 0.11498 0.36253 0.0
C54 C 0.26278 0.13241 0.3716 0.0
C55 C 0.28749 0.20851 0.37515 0.0
H56 H 0.2689 0.2376 0.37652 0.0
H57 H 0.31404 0.21517 0.36772 0.0
H58 H 0.30046 0.1987 0.38584 0.0
O59 O 0.1535 0.24321 0.35209 0.0
O60 O 0.12512 0.18364 0.34468 0.0
H61 H 0.22793 0.05491 0.37313 0.0
H62 H 0.2365 0.05329 0.35383 0.0
C63 C 0.2197 0.07012 0.36261 0.0
H64 H 0.1855 0.06764 0.36094 0.0
H65 H 0.09114 0.10386 0.34705 0.0
O66 O 0.24617 0.27988 0.35314 0.0
C67 C 0.12143 0.22071 0.34966 0.0
Co68 Co 0.99527 0.97131 0.60349 0.0
Co69 Co 0.08048 0.93897 0.59228 0.0
C70 C 0.02249 0.9777 0.57148 0.0
O71 O 0.9975 0.98179 0.58218 0.0
O72 O 0.05869 0.96163 0.57333 0.0
C73 C 0.94153 0.03956 0.60441 0.0
O74 O 0.97487 0.0585 0.59928 0.0
C75 C 0.16805 0.93131 0.58256 0.0
C76 C 0.19126 0.8862 0.59897 0.0
C77 C 0.2044 0.91296 0.588 0.0
N78 N 0.13556 0.9175 0.59048 0.0
N79 N 0.14946 0.88941 0.5999 0.0
C80 C 0.16389 0.96134 0.57007 0.0
H81 H 0.1546 0.99274 0.57409 0.0
H82 H 0.19353 0.96369 0.56381 0.0
H83 H 0.1386 0.95049 0.56269 0.0
C84 C 0.04989 0.01832 0.62431 0.0
N85 N 0.0438 0.99196 0.613 0.0
N86 N 0.0802 0.98073 0.60758 0.0
C87 C 0.11073 1.00088 0.615 0.0
C88 C 0.09277 0.02521 0.62603 0.0
C89 C 0.01521 0.03439 0.63375 0.0
H90 H 0.98836 0.01244 0.63354 0.0
H91 H 0.00446 0.06513 0.62951 0.0
H92 H 0.02606 0.03854 0.64517 0.0
O93 O 0.98676 0.91077 0.60692 0.0
O94 O 0.04723 0.88856 0.59798 0.0
H95 H 0.1703 0.97012 0.61469 0.0
H96 H 0.17352 0.02671 0.6152 0.0
C97 C 0.15593 0.9997 0.61076 0.0
H98 H 0.15848 1.00092 0.59878 0.0
H99 H 0.13078 0.8747 0.60768 0.0
O100 O 0.94457 0.002 0.60887 0.0
C101 C 0.01164 0.88106 0.60364 0.0
Co102 Co 0.30344 0.76671 0.8461 0.0
Co103 Co 0.33225 0.85488 0.83559 0.0
C104 C 0.29519 0.79636 0.81448 0.0
O105 O 0.29217 0.76954 0.82469 0.0
O106 O 0.30981 0.83275 0.81696 0.0
C107 C 0.23661 0.71097 0.84753 0.0
O108 O 0.2173 0.74358 0.84191 0.0
C109 C 0.33642 0.94456 0.82693 0.0
C110 C 0.39433 0.96301 0.83833 0.0
C111 C 0.36158 0.97876 0.83013 0.0
N112 N 0.35322 0.91037 0.8332 0.0
N113 N 0.38852 0.92156 0.83962 0.0
C114 C 0.29675 0.94477 0.81823 0.0
H115 H 0.28028 0.91435 0.81923 0.0
H116 H 0.27599 0.97073 0.82179 0.0
H117 H 0.3045 0.95032 0.80659 0.0
C118 C 0.25869 0.81948 0.86837 0.0
N119 N 0.28193 0.81465 0.85615 0.0
N120 N 0.29227 0.85182 0.85113 0.0
C121 C 0.27508 0.88137 0.85976 0.0
C122 C 0.25369 0.86212 0.87116 0.0
C123 C 0.24469 0.78393 0.87778 0.0
H124 H 0.26649 0.75703 0.87668 0.0
H125 H 0.21313 0.77377 0.87419 0.0
H126 H 0.24283 0.79363 0.88939 0.0
O127 O 0.36472 0.7605 0.84959 0.0
O128 O 0.38271 0.82324 0.84143 0.0
H129 H 0.31004 0.93816 0.8585 0.0
H130 H 0.25562 0.94583 0.86349 0.0
C131 C 0.27751 0.92722 0.85671 0.0
H132 H 0.2688 0.93263 0.84523 0.0
H133 H 0.40746 0.90137 0.84565 0.0
O134 O 0.27439 0.7148 0.85169 0.0
C135 C 0.3925 0.78796 0.84687 0.0
Co136 Co 0.49816 0.96614 0.45468 0.0
Co137 Co 0.41436 0.92832 0.46634 0.0
C138 C 0.4727 0.97062 0.48662 0.0
O139 O 0.49734 0.97561 0.47591 0.0
O140 O 0.43704 0.9535 0.48483 0.0
C141 C 0.55674 0.03133 0.455 0.0
O142 O 0.53065 0.04569 0.46488 0.0
C143 C 0.3259 0.92313 0.47521 0.0
C144 C 0.30999 0.859 0.46821 0.0
C145 C 0.29292 0.89517 0.47401 0.0
N146 N 0.36075 0.90451 0.47018 0.0
N147 N 0.3512 0.86576 0.46637 0.0
C148 C 0.32418 0.9672 0.48073 0.0
H149 H 0.35219 0.98495 0.47715 0.0
H150 H 0.29516 0.98315 0.47703 0.0
H151 H 0.32365 0.96655 0.49283 0.0
C152 C 0.43945 0.01243 0.43517 0.0
N153 N 0.44739 0.98449 0.44589 0.0
N154 N 0.41185 0.96823 0.45048 0.0
C155 C 0.38034 0.98493 0.44249 0.0
C156 C 0.39659 0.01389 0.43276 0.0
C157 C 0.47226 0.03824 0.42784 0.0
H158 H 0.4853 0.06082 0.43583 0.0
H159 H 0.45934 0.05576 0.4184 0.0
H160 H 0.49824 0.01765 0.42417 0.0
O161 O 0.50864 0.90543 0.45138 0.0
O162 O 0.44998 0.88 0.46074 0.0
H163 H 0.31961 0.97756 0.43258 0.0
H164 H 0.31928 0.99056 0.45156 0.0
C165 C 0.33558 0.97175 0.44316 0.0
H166 H 0.33331 0.93802 0.44577 0.0
H167 H 0.37234 0.84462 0.46177 0.0
O168 O 0.5474 0.9984 0.44791 0.0
C169 C 0.48569 0.87447 0.4549 0.0
Co170 Co 0.29237 0.23729 0.70781 0.0
Co171 Co 0.31632 0.15202 0.7218 0.0
C172 C 0.27898 0.21734 0.74029 0.0
O173 O 0.2784 0.24073 0.72904 0.0
O174 O 0.29233 0.17972 0.73949 0.0
C175 C 0.23089 0.29813 0.70439 0.0
O176 O 0.21023 0.27055 0.7122 0.0
C177 C 0.31635 0.06504 0.73313 0.0
C178 C 0.36676 0.03877 0.71939 0.0
C179 C 0.33558 0.02756 0.72911 0.0
N180 N 0.33413 0.09625 0.72551 0.0
N181 N 0.36522 0.08047 0.71775 0.0
C182 C 0.28234 0.07148 0.74417 0.0
H183 H 0.25265 0.08031 0.73872 0.0
H184 H 0.27745 0.04287 0.75082 0.0
H185 H 0.29095 0.09788 0.75144 0.0
C186 C 0.2461 0.18093 0.6871 0.0
N187 N 0.26966 0.18803 0.69911 0.0
N188 N 0.27811 0.15209 0.7055 0.0
C189 C 0.25943 0.12107 0.69789 0.0
C190 C 0.23884 0.13802 0.68583 0.0
C191 C 0.23329 0.2144 0.67658 0.0
H192 H 0.25665 0.24003 0.67655 0.0
H193 H 0.2027 0.22757 0.68006 0.0
H194 H 0.2299 0.20157 0.66539 0.0
O195 O 0.35428 0.24006 0.70544 0.0
O196 O 0.36944 0.18013 0.71639 0.0
H197 H 0.29067 0.06215 0.70042 0.0
H198 H 0.23521 0.05762 0.69673 0.0
C199 C 0.25942 0.07611 0.70249 0.0
H200 H 0.25256 0.07426 0.71424 0.0
H201 H 0.38345 0.09775 0.7105 0.0
O202 O 0.26723 0.28872 0.69978 0.0
C203 C 0.38104 0.21343 0.70996 0.0
Co204 Co 0.01235 0.02228 0.95438 0.0
Co205 Co 0.09622 0.0553 0.96675 0.0
C206 C 0.03716 0.01495 0.9866 0.0
O207 O 0.01382 0.01106 0.97548 0.0
O208 O 0.07329 0.03167 0.98551 0.0
C209 C 0.96203 0.95281 0.95314 0.0
O210 O 0.99641 0.93502 0.95802 0.0
C211 C 0.18431 0.06171 0.97653 0.0
C212 C 0.2077 0.10676 0.96019 0.0
C213 C 0.22085 0.07938 0.97099 0.0
N214 N 0.15166 0.07654 0.96882 0.0
N215 N 0.16577 0.10453 0.95943 0.0
C216 C 0.18014 0.03166 0.98902 0.0
H217 H 0.1711 1.00024 0.985 0.0
H218 H 0.20975 0.02929 0.99531 0.0
H219 H 0.1547 0.0425 0.99635 0.0
C220 C 0.06794 0.97812 0.93376 0.0
N221 N 0.06133 0.00364 0.94522 0.0
N222 N 0.09724 0.01406 0.95115 0.0
C223 C 0.12813 0.99375 0.9439 0.0
C224 C 0.11073 0.97044 0.93249 0.0
C225 C 0.03379 0.96388 0.92375 0.0
H226 H 0.00739 0.98651 0.92392 0.0
H227 H 0.02201 0.93304 0.92748 0.0
H228 H 0.04553 0.96062 0.91241 0.0
O229 O 0.0023 0.08209 0.95154 0.0
O230 O 0.06113 0.10585 0.96134 0.0
H231 H 0.18828 0.02287 0.94501 0.0
H232 H 0.1903 0.96623 0.94428 0.0
C233 C 0.17292 0.99356 0.94865 0.0
H234 H 0.17436 0.99177 0.96063 0.0
H235 H 0.1471 0.11977 0.95174 0.0
O236 O 0.96342 0.99031 0.94854 0.0
C237 C 0.0254 0.11239 0.95549 0.0
Co238 Co 0.21305 0.77163 0.21291 0.0
Co239 Co 0.18661 0.86189 0.22154 0.0
C240 C 0.2182 0.80727 0.24429 0.0
O241 O 0.22059 0.77922 0.23442 0.0
O242 O 0.20615 0.84437 0.24121 0.0
C243 C 0.27403 0.70822 0.21547 0.0
O244 O 0.29052 0.73551 0.22451 0.0
C245 C 0.17422 0.95355 0.22705 0.0
C246 C 0.12961 0.96622 0.20909 0.0
C247 C 0.15232 0.98542 0.22003 0.0
N248 N 0.16518 0.91727 0.2203 0.0
N249 N 0.13778 0.9251 0.20984 0.0
C250 C 0.20611 0.95803 0.2389 0.0
H251 H 0.19005 0.96634 0.24924 0.0
H252 H 0.22361 0.92833 0.2405 0.0
H253 H 0.22813 0.98374 0.23622 0.0
C254 C 0.2654 0.81914 0.19137 0.0
N255 N 0.23791 0.81679 0.20253 0.0
N256 N 0.22935 0.85476 0.20716 0.0
C257 C 0.25244 0.88247 0.19955 0.0
C258 C 0.27579 0.86114 0.189 0.0
C259 C 0.27928 0.78188 0.18273 0.0
H260 H 0.25553 0.75667 0.18338 0.0
H261 H 0.30907 0.76979 0.18735 0.0
H262 H 0.28445 0.79042 0.17114 0.0
O263 O 0.15241 0.76624 0.2086 0.0
O264 O 0.13586 0.82941 0.21654 0.0
H265 H 0.22785 0.94479 0.1985 0.0
H266 H 0.28446 0.94222 0.1995 0.0
C267 C 0.25487 0.92795 0.20338 0.0
H268 H 0.25345 0.93154 0.21536 0.0
H269 H 0.12618 0.90253 0.20268 0.0
O270 O 0.2411 0.71803 0.20844 0.0
C271 C 0.12508 0.79412 0.21141 0.0
Co272 Co 0.51886 0.95765 0.96078 0.0
Co273 Co 0.60609 0.9284 0.97149 0.0
C274 C 0.54925 0.96557 0.99256 0.0
O275 O 0.52258 0.96853 0.98227 0.0
O276 O 0.58573 0.951 0.9902 0.0
C277 C 0.46136 0.02426 0.95941 0.0
O278 O 0.49373 0.04531 0.96431 0.0
C279 C 0.69417 0.92014 0.98069 0.0
C280 C 0.71549 0.87368 0.96444 0.0
C281 C 0.72978 0.90049 0.97522 0.0
N282 N 0.66107 0.90698 0.97294 0.0
N283 N 0.67381 0.87807 0.96364 0.0
C284 C 0.69126 0.95055 0.9931 0.0
H285 H 0.68306 0.98216 0.989 0.0
H286 H 0.72109 0.95197 0.9993 0.0
H287 H 0.66573 0.94075 1.00055 0.0
C288 C 0.57278 0.00371 0.93881 0.0
N289 N 0.5668 0.97943 0.95074 0.0
N290 N 0.60351 0.96904 0.95617 0.0
C291 C 0.63382 0.98748 0.94824 0.0
C292 C 0.61573 0.00942 0.9367 0.0
C293 C 0.53813 0.01872 0.92915 0.0
H294 H 0.51023 0.99839 0.93035 0.0
H295 H 0.52939 0.05107 0.93237 0.0
H296 H 0.54835 0.01922 0.91758 0.0
O297 O 0.51228 0.89624 0.95743 0.0
O298 O 0.57417 0.87805 0.96622 0.0
H299 H 0.69309 0.95609 0.94887 0.0
H300 H 0.69687 0.01236 0.94708 0.0
C301 C 0.67924 0.98644 0.95225 0.0
H302 H 0.68245 0.98977 0.96418 0.0
H303 H 0.65444 0.86348 0.95603 0.0
O304 O 0.46619 0.98628 0.95559 0.0
C305 C 0.53911 0.86821 0.9607 0.0
Co306 Co 0.78758 0.77135 0.70577 0.0
Co307 Co 0.82314 0.8546 0.71842 0.0
C308 C 0.78302 0.79561 0.7382 0.0
O309 O 0.77839 0.77281 0.72697 0.0
O310 O 0.79991 0.83167 0.73719 0.0
C311 C 0.71695 0.72089 0.70473 0.0
O312 O 0.69947 0.75506 0.70992 0.0
C313 C 0.83428 0.94326 0.7279 0.0
C314 C 0.88114 0.96271 0.71155 0.0
C315 C 0.85496 0.97799 0.72233 0.0
N316 N 0.84692 0.90923 0.72041 0.0
N317 N 0.87603 0.92101 0.71104 0.0
C318 C 0.7994 0.94342 0.7388 0.0
H319 H 0.78214 0.91334 0.73857 0.0
H320 H 0.77761 0.96984 0.73663 0.0
H321 H 0.81276 0.94806 0.74986 0.0
C322 C 0.74427 0.82995 0.68554 0.0
N323 N 0.7693 0.82154 0.69703 0.0
N324 N 0.78148 0.85679 0.70308 0.0
C325 C 0.76317 0.8889 0.69588 0.0
C326 C 0.73947 0.87317 0.68433 0.0
C327 C 0.72762 0.7971 0.67547 0.0
H328 H 0.74794 0.76889 0.67575 0.0
H329 H 0.69577 0.78801 0.67909 0.0
H330 H 0.72558 0.80917 0.66414 0.0
O331 O 0.84723 0.76071 0.70229 0.0
O332 O 0.87208 0.81859 0.71244 0.0
H333 H 0.79604 0.94689 0.6978 0.0
H334 H 0.74001 0.95287 0.69584 0.0
C335 C 0.7652 0.93353 0.70076 0.0
H336 H 0.76127 0.93477 0.71271 0.0
H337 H 0.89001 0.90102 0.70346 0.0
O338 O 0.75449 0.72232 0.70018 0.0
C339 C 0.87795 0.78334 0.7062 0.0
Co340 Co 0.00223 0.03821 0.45589 0.0
Co341 Co 0.91549 0.07086 0.46634 0.0
C342 C 0.97101 0.03144 0.48767 0.0
O343 O 0.99687 0.02776 0.47718 0.0
O344 O 0.9348 0.04748 0.48558 0.0
C345 C 0.06248 0.97416 0.45663 0.0
O346 O 0.03426 0.95667 0.46507 0.0
C347 C 0.82453 0.08357 0.47316 0.0
C348 C 0.80993 0.12869 0.45557 0.0
C349 C 0.79174 0.1046 0.46636 0.0
N350 N 0.86038 0.09413 0.46638 0.0
N351 N 0.85138 0.1221 0.45621 0.0
C352 C 0.82112 0.0506 0.4847 0.0
H353 H 0.85127 0.03375 0.48608 0.0
H354 H 0.79591 0.02814 0.48187 0.0
H355 H 0.8125 0.06565 0.49519 0.0
C356 C 0.94921 0.99138 0.43464 0.0
N357 N 0.95453 0.01825 0.44585 0.0
N358 N 0.91782 0.02912 0.45108 0.0
C359 C 0.88787 0.00801 0.44373 0.0
C360 C 0.90647 0.98368 0.43281 0.0
C361 C 0.98461 0.97498 0.4256 0.0
H362 H 0.01109 0.99739 0.42572 0.0
H363 H 0.99567 0.94488 0.43029 0.0
H364 H 0.97448 0.96961 0.41417 0.0
O365 O 0.01141 0.0986 0.45294 0.0
O366 O 0.95096 0.12113 0.46174 0.0
H367 H 0.8269 0.03587 0.44422 0.0
H368 H 0.82645 0.97917 0.44417 0.0
C369 C 0.84292 0.0073 0.44829 0.0
H370 H 0.84124 0.00676 0.46031 0.0
H371 H 0.87332 0.13456 0.449 0.0
O372 O 0.05376 0.00846 0.45027 0.0
C373 C 0.98711 0.12848 0.45648 0.0
Co374 Co 0.70974 0.23498 0.2084 0.0
Co375 Co 0.67462 0.149 0.21834 0.0
C376 C 0.71498 0.20478 0.23988 0.0
O377 O 0.72045 0.23117 0.22968 0.0
O378 O 0.69781 0.16948 0.23734 0.0
C379 C 0.77486 0.29247 0.20805 0.0
O380 O 0.79224 0.26359 0.21629 0.0
C381 C 0.66783 0.0597 0.22701 0.0
C382 C 0.61417 0.0403 0.21346 0.0
C383 C 0.64429 0.02519 0.22294 0.0
N384 N 0.65261 0.09364 0.22011 0.0
N385 N 0.61981 0.0819 0.21233 0.0
C386 C 0.70486 0.05994 0.23704 0.0
H387 H 0.72218 0.0899 0.23618 0.0
H388 H 0.72604 0.03327 0.23457 0.0
H389 H 0.69376 0.05601 0.24842 0.0
C390 C 0.75481 0.1821 0.18701 0.0
N391 N 0.72848 0.18704 0.19835 0.0
N392 N 0.71637 0.1502 0.2031 0.0
C393 C 0.73627 0.12035 0.19526 0.0
C394 C 0.76114 0.13944 0.18463 0.0
C395 C 0.77111 0.21784 0.17812 0.0
H396 H 0.74814 0.24393 0.17807 0.0
H397 H 0.80064 0.22934 0.18307 0.0
H398 H 0.77734 0.20806 0.16671 0.0
O399 O 0.6501 0.24494 0.20534 0.0
O400 O 0.62459 0.18448 0.21311 0.0
H401 H 0.7037 0.06198 0.19576 0.0
H402 H 0.75992 0.05656 0.19357 0.0
C403 C 0.73468 0.07477 0.1989 0.0
H404 H 0.73886 0.07102 0.21076 0.0
H405 H 0.60268 0.10192 0.20558 0.0
O406 O 0.73956 0.28524 0.20223 0.0
C407 C 0.61916 0.22137 0.20811 0.0
Co408 Co 0.49513 0.03715 0.60172 0.0
Co409 Co 0.58086 0.06835 0.5905 0.0
C410 C 0.52359 0.02863 0.56993 0.0
O411 O 0.49829 0.02551 0.58056 0.0
O412 O 0.55979 0.04458 0.57172 0.0
C413 C 0.44159 0.96898 0.60308 0.0
O414 O 0.47495 0.94961 0.59808 0.0
C415 C 0.6691 0.07544 0.58133 0.0
C416 C 0.69097 0.12143 0.59762 0.0
C417 C 0.70499 0.09411 0.58695 0.0
N418 N 0.636 0.08965 0.5889 0.0
N419 N 0.64913 0.11824 0.59824 0.0
C420 C 0.66595 0.04493 0.56895 0.0
H421 H 0.65687 0.0136 0.57304 0.0
H422 H 0.69595 0.04258 0.5629 0.0
H423 H 0.64089 0.05531 0.56137 0.0
C424 C 0.54897 0.99179 0.62307 0.0
N425 N 0.54328 0.01716 0.61147 0.0
N426 N 0.57983 0.02766 0.60604 0.0
C427 C 0.6101 0.0079 0.61374 0.0
C428 C 0.59173 0.98477 0.62495 0.0
C429 C 0.51403 0.9769 0.6326 0.0
H430 H 0.48733 0.99914 0.63211 0.0
H431 H 0.50314 0.94595 0.62865 0.0
H432 H 0.52466 0.97356 0.64407 0.0
O433 O 0.48661 0.0976 0.60475 0.0
O434 O 0.54724 0.11892 0.59574 0.0
H435 H 0.66992 0.03786 0.61332 0.0
H436 H 0.67268 0.9813 0.61431 0.0
C437 C 0.65539 0.00822 0.6096 0.0
H438 H 0.65816 0.00613 0.59764 0.0
H439 H 0.62986 0.13334 0.60577 0.0
O440 O 0.4445 0.00686 0.60719 0.0
C441 C 0.51161 0.12691 0.60132 0.0
Co442 Co 0.708 0.77126 0.35015 0.0
Co443 Co 0.67792 0.85794 0.33896 0.0
C444 C 0.71345 0.79842 0.31803 0.0
O445 O 0.71718 0.77223 0.32843 0.0
O446 O 0.69908 0.83501 0.32036 0.0
C447 C 0.7712 0.71064 0.34986 0.0
O448 O 0.78647 0.737 0.34025 0.0
C449 C 0.67285 0.94425 0.32813 0.0
C450 C 0.62762 0.97084 0.34384 0.0
C451 C 0.65511 0.98173 0.33279 0.0
N452 N 0.65801 0.91331 0.33655 0.0
N453 N 0.62983 0.92914 0.34554 0.0
C454 C 0.70363 0.93762 0.31601 0.0
H455 H 0.69201 0.91243 0.30874 0.0
H456 H 0.73409 0.92696 0.32049 0.0
H457 H 0.70804 0.96654 0.30948 0.0
C458 C 0.75558 0.82655 0.37112 0.0
N459 N 0.73044 0.82016 0.35944 0.0
N460 N 0.71963 0.85665 0.35394 0.0
C461 C 0.73858 0.88728 0.36161 0.0
C462 C 0.76146 0.86956 0.373 0.0
C463 C 0.77106 0.79221 0.38083 0.0
H464 H 0.74907 0.76539 0.38061 0.0
H465 H 0.80194 0.78125 0.37679 0.0
H466 H 0.77484 0.80347 0.39221 0.0
O467 O 0.64668 0.76548 0.35412 0.0
O468 O 0.62768 0.82723 0.34529 0.0
H469 H 0.70631 0.94607 0.36091 0.0
H470 H 0.76251 0.95075 0.36268 0.0
C471 C 0.73686 0.93265 0.35754 0.0
H472 H 0.74012 0.93577 0.34561 0.0
H473 H 0.61433 0.91192 0.35354 0.0
O474 O 0.73772 0.72005 0.35663 0.0
C475 C 0.6184 0.7924 0.35114 0.0
Co476 Co 0.97878 0.96199 0.10016 0.0
Co477 Co 0.8961 0.92687 0.08682 0.0
C478 C 0.95586 0.9719 0.068 0.0
O479 O 0.97861 0.97626 0.07926 0.0
O480 O 0.9206 0.95332 0.06879 0.0
C481 C 0.02933 0.03168 0.10359 0.0
O482 O 0.99603 0.05051 0.09827 0.0
C483 C 0.80757 0.92195 0.07673 0.0
C484 C 0.78748 0.86448 0.08805 0.0
C485 C 0.77259 0.89769 0.07984 0.0
N486 N 0.84125 0.90444 0.08316 0.0
N487 N 0.82909 0.86939 0.08953 0.0
C488 C 0.80882 0.9613 0.06785 0.0
H489 H 0.80728 0.95284 0.05612 0.0
H490 H 0.83834 0.97864 0.06984 0.0
H491 H 0.78144 0.98156 0.07024 0.0
C492 C 0.92006 0.99902 0.12164 0.0
N493 N 0.92845 0.97717 0.10939 0.0
N494 N 0.89325 0.9652 0.10325 0.0
C495 C 0.86115 0.98056 0.11123 0.0
C496 C 0.87686 0.00202 0.1233 0.0
C497 C 0.953 0.01392 0.13201 0.0
H498 H 0.98112 0.99357 0.13132 0.0
H499 H 0.96219 0.04628 0.12901 0.0
H500 H 0.94112 0.01407 0.14338 0.0
O501 O 0.99004 0.90191 0.10197 0.0
O502 O 0.93196 0.87683 0.09196 0.0
H503 H 0.80526 0.94547 0.10765 0.0
H504 H 0.79581 0.99931 0.11298 0.0
C505 C 0.81642 0.97819 0.10663 0.0
H506 H 0.81423 0.98828 0.09516 0.0
H507 H 0.84871 0.8502 0.09573 0.0
O508 O 0.02696 0.99341 0.10726 0.0
C509 C 0.96786 0.87115 0.0978 0.0
Co510 Co 0.78611 0.24174 0.85134 0.0
Co511 Co 0.82106 0.1551 0.84294 0.0
C512 C 0.78325 0.20669 0.82019 0.0
O513 O 0.77789 0.23406 0.83008 0.0
O514 O 0.79953 0.17127 0.82324 0.0
C515 C 0.71796 0.29497 0.84931 0.0
O516 O 0.69988 0.26076 0.84449 0.0
C517 C 0.83012 0.06603 0.8356 0.0
C518 C 0.87059 0.04543 0.8538 0.0
C519 C 0.84611 0.03057 0.84245 0.0
N520 N 0.84287 0.09984 0.84306 0.0
N521 N 0.8683 0.08742 0.85358 0.0
C522 C 0.80288 0.0681 0.82229 0.0
H523 H 0.77118 0.07949 0.82521 0.0
H524 H 0.80059 0.03713 0.81686 0.0
H525 H 0.81627 0.09104 0.8145 0.0
C526 C 0.738 0.19144 0.87306 0.0
N527 N 0.76562 0.19548 0.86202 0.0
N528 N 0.77761 0.15823 0.85761 0.0
C529 C 0.75637 0.12907 0.8653 0.0
C530 C 0.73088 0.14891 0.87562 0.0
C531 C 0.72064 0.22789 0.88136 0.0
H532 H 0.74223 0.25497 0.88065 0.0
H533 H 0.69017 0.2372 0.87651 0.0
H534 H 0.71566 0.21956 0.89298 0.0
O535 O 0.84573 0.25276 0.85498 0.0
O536 O 0.87059 0.19122 0.84793 0.0
H537 H 0.78509 0.06855 0.86648 0.0
H538 H 0.72847 0.0672 0.86567 0.0
C539 C 0.75687 0.0834 0.86167 0.0
H540 H 0.7578 0.07957 0.84972 0.0
H541 H 0.88148 0.10742 0.86131 0.0
O542 O 0.75432 0.29273 0.85488 0.0
C543 C 0.87647 0.22841 0.85254 0.0
Co544 Co 0.99219 0.54331 0.60346 0.0
Co545 Co 0.90571 0.57579 0.59392 0.0
C546 C 0.96075 0.53831 0.57196 0.0
O547 O 0.98767 0.53343 0.58205 0.0
O548 O 0.92506 0.55434 0.5747 0.0
C549 C 0.04498 0.47457 0.60375 0.0
O550 O 0.01119 0.45658 0.59853 0.0
C551 C 0.81841 0.58293 0.5845 0.0
C552 C 0.79343 0.62396 0.60185 0.0
C553 C 0.78146 0.59903 0.59021 0.0
N554 N 0.85025 0.59621 0.59283 0.0
N555 N 0.83533 0.62192 0.60285 0.0
C556 C 0.82365 0.55495 0.57149 0.0
H557 H 0.8357 0.5239 0.57494 0.0
H558 H 0.79379 0.55115 0.56545 0.0
H559 H 0.84731 0.56873 0.56407 0.0
C560 C 0.94049 0.49469 0.62473 0.0
N561 N 0.94506 0.5221 0.61363 0.0
N562 N 0.90804 0.53291 0.60867 0.0
C563 C 0.87859 0.51105 0.616 0.0
C564 C 0.89793 0.4863 0.62666 0.0
C565 C 0.97627 0.4791 0.63378 0.0
H566 H 0.00259 0.50167 0.63343 0.0
H567 H 0.98737 0.44873 0.62934 0.0
H568 H 0.96644 0.47441 0.64527 0.0
O569 O 1.00118 0.6038 0.60697 0.0
O570 O 0.93919 0.62616 0.59941 0.0
H571 H 0.81738 0.53842 0.61641 0.0
H572 H 0.81742 0.48175 0.61551 0.0
C573 C 0.83335 0.51059 0.61175 0.0
H574 H 0.83071 0.51176 0.59977 0.0
H575 H 0.85343 0.63565 0.61101 0.0
O576 O 0.04281 0.5121 0.6083 0.0
C577 C 0.97568 0.63357 0.60436 0.0
Co578 Co 0.7177 0.73943 0.85216 0.0
Co579 Co 0.69695 0.65425 0.83794 0.0
C580 C 0.73199 0.71954 0.81966 0.0
O581 O 0.73131 0.74248 0.831 0.0
O582 O 0.72012 0.6815 0.82021 0.0
C583 C 0.78327 0.79397 0.85647 0.0
O584 O 0.80394 0.76118 0.85163 0.0
C585 C 0.69343 0.56737 0.82644 0.0
C586 C 0.64507 0.54245 0.8413 0.0
C587 C 0.67325 0.53067 0.83059 0.0
N588 N 0.67876 0.59874 0.83478 0.0
N589 N 0.649 0.58379 0.84329 0.0
C590 C 0.72504 0.57295 0.81453 0.0
H591 H 0.75689 0.57576 0.8192 0.0
H592 H 0.72442 0.54605 0.80686 0.0
H593 H 0.71836 0.60234 0.80849 0.0
C594 C 0.76449 0.68413 0.87287 0.0
N595 N 0.74104 0.6907 0.86083 0.0
N596 N 0.7353 0.65496 0.85405 0.0
C597 C 0.75632 0.6246 0.86125 0.0
C598 C 0.77537 0.64179 0.87359 0.0
C599 C 0.77329 0.71737 0.88395 0.0
H600 H 0.74904 0.74226 0.88342 0.0
H601 H 0.80414 0.73172 0.8816 0.0
H602 H 0.77414 0.70388 0.89511 0.0
O603 O 0.65614 0.74207 0.85472 0.0
O604 O 0.64386 0.68224 0.84335 0.0
H605 H 0.73212 0.56255 0.85893 0.0
H606 H 0.78867 0.56495 0.86015 0.0
C607 C 0.76031 0.58064 0.85578 0.0
H608 H 0.76261 0.58095 0.84378 0.0
H609 H 0.63308 0.60139 0.85111 0.0
O610 O 0.74448 0.7905 0.85931 0.0
C611 C 0.63069 0.71476 0.84989 0.0
Co612 Co 0.51472 0.46029 0.10264 0.0
Co613 Co 0.6025 0.4311 0.09305 0.0
C614 C 0.54504 0.4675 0.07128 0.0
O615 O 0.51779 0.47076 0.08129 0.0
O616 O 0.58136 0.45325 0.07412 0.0
C617 C 0.46093 0.52793 0.1032 0.0
O618 O 0.49509 0.54628 0.09847 0.0
C619 C 0.68984 0.43331 0.08448 0.0
C620 C 0.71479 0.37783 0.09604 0.0
C621 C 0.72673 0.41267 0.08807 0.0
N622 N 0.65802 0.41256 0.09061 0.0
N623 N 0.67286 0.37868 0.09709 0.0
C624 C 0.68435 0.47207 0.07546 0.0
H625 H 0.67348 0.49825 0.08245 0.0
H626 H 0.71377 0.48086 0.06982 0.0
H627 H 0.65976 0.4666 0.06714 0.0
C628 C 0.56543 0.50786 0.12475 0.0
N629 N 0.56179 0.48282 0.11292 0.0
N630 N 0.59939 0.47119 0.10864 0.0
C631 C 0.62811 0.48869 0.11761 0.0
C632 C 0.60768 0.51294 0.128 0.0
C633 C 0.52907 0.5261 0.13286 0.0
H634 H 0.50245 0.50387 0.13278 0.0
H635 H 0.51899 0.55535 0.12734 0.0
H636 H 0.53752 0.53397 0.14426 0.0
O637 O 0.50862 0.39869 0.10609 0.0
O638 O 0.57181 0.38012 0.09846 0.0
H639 H 0.68998 0.49013 0.12736 0.0
H640 H 0.68831 0.49464 0.10783 0.0
C641 C 0.67395 0.47902 0.11735 0.0
H642 H 0.67881 0.44481 0.11639 0.0
H643 H 0.65471 0.35767 0.10305 0.0
O644 O 0.46274 0.49001 0.10741 0.0
C645 C 0.53608 0.37058 0.10352 0.0
Co646 Co 0.78857 0.26855 0.34732 0.0
Co647 Co 0.8247 0.35524 0.33917 0.0
C648 C 0.78832 0.30373 0.31613 0.0
O649 O 0.78206 0.2767 0.32607 0.0
O650 O 0.80472 0.33909 0.31918 0.0
C651 C 0.71821 0.21749 0.34593 0.0
O652 O 0.70078 0.25202 0.34101 0.0
C653 C 0.83824 0.4461 0.33331 0.0
C654 C 0.87949 0.46047 0.35202 0.0
C655 C 0.85745 0.4788 0.3407 0.0
N656 N 0.84796 0.41011 0.34018 0.0
N657 N 0.87366 0.41894 0.35106 0.0
C658 C 0.80719 0.44978 0.32114 0.0
H659 H 0.79001 0.41999 0.31958 0.0
H660 H 0.78474 0.47558 0.32339 0.0
H661 H 0.82403 0.45761 0.31092 0.0
C662 C 0.7405 0.31892 0.36873 0.0
N663 N 0.76828 0.31493 0.35777 0.0
N664 N 0.78007 0.35212 0.35332 0.0
C665 C 0.75826 0.38129 0.36083 0.0
C666 C 0.73271 0.3614 0.37111 0.0
C667 C 0.72427 0.28249 0.37729 0.0
H668 H 0.74642 0.25575 0.3766 0.0
H669 H 0.69379 0.27249 0.37266 0.0
H670 H 0.71966 0.29114 0.3889 0.0
O671 O 0.84739 0.25679 0.35158 0.0
O672 O 0.87339 0.31778 0.34457 0.0
H673 H 0.78631 0.44198 0.36203 0.0
H674 H 0.72971 0.44296 0.36082 0.0
C675 C 0.75853 0.42687 0.35705 0.0
H676 H 0.76027 0.4304 0.34509 0.0
H677 H 0.88488 0.39681 0.35848 0.0
O678 O 0.75543 0.21849 0.3508 0.0
C679 C 0.87854 0.28059 0.34935 0.0
Co680 Co 0.9802 0.44757 0.95826 0.0
Co681 Co 0.89495 0.41097 0.9686 0.0
C682 C 0.95104 0.45376 0.98973 0.0
O683 O 0.97706 0.4595 0.97945 0.0
O684 O 0.91614 0.43569 0.98732 0.0
C685 C 0.03786 0.51266 0.95763 0.0
O686 O 0.00875 0.53039 0.96567 0.0
C687 C 0.8064 0.4083 0.97772 0.0
C688 C 0.78478 0.35121 0.96646 0.0
C689 C 0.77095 0.38482 0.97469 0.0
N690 N 0.83952 0.38983 0.97133 0.0
N691 N 0.8265 0.35511 0.96494 0.0
C692 C 0.80866 0.44809 0.98633 0.0
H693 H 0.83753 0.46568 0.98361 0.0
H694 H 0.78067 0.46793 0.98439 0.0
H695 H 0.80945 0.44018 0.99812 0.0
C696 C 0.92538 0.48995 0.93642 0.0
N697 N 0.93143 0.46513 0.94817 0.0
N698 N 0.89511 0.45109 0.9528 0.0
C699 C 0.86463 0.46733 0.94424 0.0
C700 C 0.88268 0.49227 0.93347 0.0
C701 C 0.96019 0.50873 0.92771 0.0
H702 H 0.98764 0.48741 0.92767 0.0
H703 H 0.96973 0.5387 0.93284 0.0
H704 H 0.95026 0.51498 0.91631 0.0
O705 O 0.99059 0.38725 0.95576 0.0
O706 O 0.93033 0.36093 0.96349 0.0
H707 H 0.81061 0.42812 0.94604 0.0
H708 H 0.79888 0.48053 0.93969 0.0
C709 C 0.81889 0.46168 0.94705 0.0
H710 H 0.81208 0.47234 0.95824 0.0
H711 H 0.8457 0.3353 0.95884 0.0
O712 O 0.03048 0.47736 0.95181 0.0
C713 C 0.96738 0.35598 0.95858 0.0
Co714 Co 0.80005 0.73318 0.21103 0.0
Co715 Co 0.82916 0.64407 0.22012 0.0
C716 C 0.79163 0.70091 0.24208 0.0
O717 O 0.78917 0.72887 0.23225 0.0
O718 O 0.80574 0.66457 0.23909 0.0
C719 C 0.73938 0.7971 0.2119 0.0
O720 O 0.72046 0.76951 0.22022 0.0
C721 C 0.82831 0.55412 0.22681 0.0
C722 C 0.89368 0.53662 0.22174 0.0
C723 C 0.85566 0.52045 0.22612 0.0
N724 N 0.84916 0.58869 0.22286 0.0
N725 N 0.88846 0.57814 0.22016 0.0
C726 C 0.78329 0.5536 0.2313 0.0
H727 H 0.78158 0.54904 0.24328 0.0
H728 H 0.76778 0.58367 0.22846 0.0
H729 H 0.76658 0.52706 0.22613 0.0
C730 C 0.75045 0.68403 0.18929 0.0
N731 N 0.77709 0.68642 0.2007 0.0
N732 N 0.78959 0.6484 0.20428 0.0
C733 C 0.77169 0.62074 0.195 0.0
C734 C 0.74578 0.64223 0.18534 0.0
C735 C 0.72964 0.72128 0.18251 0.0
H736 H 0.75381 0.74415 0.17909 0.0
H737 H 0.70957 0.73677 0.19078 0.0
H738 H 0.70995 0.71255 0.17303 0.0
O739 O 0.86166 0.7386 0.20771 0.0
O740 O 0.88031 0.67532 0.21513 0.0
H741 H 0.81543 0.56991 0.19741 0.0
H742 H 0.7781 0.56317 0.18286 0.0
C743 C 0.78251 0.5752 0.19411 0.0
H744 H 0.76143 0.55735 0.2014 0.0
H745 H 0.91147 0.59902 0.21672 0.0
O746 O 0.77327 0.78681 0.20555 0.0
C747 C 0.88982 0.71124 0.21023 0.0
Co748 Co 0.52292 0.5391 0.45981 0.0
Co749 Co 0.60964 0.57689 0.46846 0.0
C750 C 0.55836 0.53802 0.49108 0.0
O751 O 0.53133 0.53147 0.48113 0.0
O752 O 0.59333 0.5553 0.48811 0.0
C753 C 0.47028 0.46783 0.45981 0.0
O754 O 0.50446 0.44867 0.46421 0.0
C755 C 0.70111 0.59108 0.47357 0.0
C756 C 0.71191 0.63776 0.45622 0.0
C757 C 0.73247 0.61241 0.46616 0.0
N758 N 0.66388 0.60238 0.46787 0.0
N759 N 0.67066 0.63158 0.45794 0.0
C760 C 0.70701 0.55703 0.48462 0.0
H761 H 0.67739 0.5397 0.4864 0.0
H762 H 0.73213 0.53518 0.48109 0.0
H763 H 0.71714 0.57125 0.49508 0.0
C764 C 0.57586 0.49733 0.43698 0.0
N765 N 0.57042 0.52106 0.44905 0.0
N766 N 0.60711 0.53394 0.45373 0.0
C767 C 0.63712 0.51704 0.44523 0.0
C768 C 0.6186 0.4943 0.43401 0.0
C769 C 0.54062 0.4807 0.42796 0.0
H770 H 0.51179 0.49939 0.42981 0.0
H771 H 0.5344 0.44782 0.4312 0.0
H772 H 0.54887 0.48116 0.41619 0.0
O773 O 0.51068 0.59864 0.45605 0.0
O774 O 0.57167 0.62444 0.46319 0.0
H775 H 0.69489 0.55038 0.44519 0.0
H776 H 0.70087 0.49449 0.4429 0.0
C777 C 0.68284 0.51938 0.44855 0.0
H778 H 0.68749 0.51507 0.46038 0.0
H779 H 0.64731 0.64467 0.4514 0.0
O780 O 0.47219 0.50599 0.45591 0.0
C781 C 0.53463 0.6297 0.45836 0.0
Co782 Co 0.70661 0.2738 0.71174 0.0
Co783 Co 0.67655 0.36232 0.72187 0.0
C784 C 0.71134 0.30484 0.74356 0.0
O785 O 0.71492 0.27795 0.73338 0.0
O786 O 0.69748 0.34151 0.74091 0.0
C787 C 0.76782 0.21029 0.71387 0.0
O788 O 0.78179 0.23558 0.72405 0.0
C789 C 0.67192 0.4515 0.73032 0.0
C790 C 0.6262 0.47382 0.71398 0.0
C791 C 0.65429 0.48769 0.72442 0.0
N792 N 0.65655 0.41835 0.72308 0.0
N793 N 0.62806 0.43183 0.71374 0.0
C794 C 0.70264 0.44811 0.74264 0.0
H795 H 0.73343 0.43719 0.73857 0.0
H796 H 0.70635 0.47851 0.74836 0.0
H797 H 0.69147 0.42425 0.75052 0.0
C798 C 0.75309 0.32685 0.68982 0.0
N799 N 0.72877 0.32169 0.70178 0.0
N800 N 0.71829 0.35876 0.70689 0.0
C801 C 0.73675 0.38849 0.69868 0.0
C802 C 0.75869 0.36962 0.68732 0.0
C803 C 0.76803 0.29157 0.68043 0.0
H804 H 0.74641 0.26455 0.68128 0.0
H805 H 0.79943 0.28146 0.68426 0.0
H806 H 0.77064 0.30161 0.66887 0.0
O807 O 0.64533 0.26771 0.70793 0.0
O808 O 0.62621 0.33034 0.71601 0.0
H809 H 0.7049 0.44754 0.69885 0.0
H810 H 0.76089 0.45165 0.69648 0.0
C811 C 0.7356 0.43428 0.70211 0.0
H812 H 0.7401 0.43868 0.71393 0.0
H813 H 0.6122 0.4126 0.7064 0.0
O814 O 0.73649 0.22136 0.70617 0.0
C815 C 0.617 0.29481 0.71064 0.0
Co816 Co 0.02268 0.46496 0.46381 0.0
Co817 Co 0.10917 0.42661 0.47267 0.0
C818 C 0.05617 0.46414 0.49524 0.0
O819 O 0.02935 0.47078 0.48526 0.0
O820 O 0.0914 0.44748 0.49225 0.0
C821 C 0.96876 0.53304 0.46739 0.0
O822 O 1.00002 0.54497 0.47571 0.0
C823 C 0.19793 0.41888 0.48085 0.0
C824 C 0.22014 0.37506 0.4639 0.0
C825 C 0.23412 0.4021 0.47468 0.0
N826 N 0.16468 0.40427 0.47346 0.0
N827 N 0.17807 0.37681 0.46374 0.0
C828 C 0.19464 0.44889 0.49337 0.0
H829 H 0.18277 0.47961 0.48952 0.0
H830 H 0.22521 0.45298 0.49894 0.0
H831 H 0.17155 0.43676 0.50135 0.0
C832 C 0.07644 0.5093 0.44189 0.0
N833 N 0.07083 0.48402 0.45357 0.0
N834 N 0.10744 0.47022 0.45808 0.0
C835 C 0.13757 0.48771 0.44976 0.0
C836 C 0.11917 0.5123 0.43895 0.0
C837 C 0.04132 0.5276 0.43316 0.0
H838 H 0.01276 0.50819 0.43431 0.0
H839 H 0.03433 0.5595 0.43731 0.0
H840 H 0.05003 0.53004 0.42147 0.0
O841 O 0.0114 0.4051 0.45964 0.0
O842 O 0.07248 0.37855 0.46673 0.0
H843 H 0.19466 0.45258 0.44909 0.0
H844 H 0.20181 0.50844 0.44723 0.0
C845 C 0.18343 0.48369 0.45276 0.0
H846 H 0.18888 0.487 0.46457 0.0
H847 H 0.15876 0.36185 0.4562 0.0
O848 O 0.97259 0.49992 0.45975 0.0
C849 C 0.03544 0.37375 0.46178 0.0
Co850 Co 0.28577 0.27574 0.20919 0.0
Co851 Co 0.32712 0.35827 0.22008 0.0
C852 C 0.28431 0.30351 0.24113 0.0
O853 O 0.27708 0.27846 0.23066 0.0
O854 O 0.30295 0.33816 0.23888 0.0
C855 C 0.21689 0.222 0.20973 0.0
O856 O 0.2047 0.24836 0.21987 0.0
C857 C 0.34074 0.44559 0.22982 0.0
C858 C 0.39493 0.46277 0.21621 0.0
C859 C 0.36623 0.47894 0.22601 0.0
N860 N 0.3536 0.41139 0.22251 0.0
N861 N 0.38688 0.42166 0.21475 0.0
C862 C 0.30254 0.4473 0.23925 0.0
H863 H 0.28275 0.41922 0.23757 0.0
H864 H 0.28416 0.47612 0.23696 0.0
H865 H 0.31242 0.44849 0.25086 0.0
C866 C 0.24802 0.33415 0.18751 0.0
N867 N 0.27112 0.32616 0.19954 0.0
N868 N 0.28606 0.36145 0.20472 0.0
C869 C 0.27147 0.39331 0.19646 0.0
C870 C 0.24732 0.37726 0.18506 0.0
C871 C 0.23037 0.3006 0.17793 0.0
H872 H 0.25001 0.27197 0.17859 0.0
H873 H 0.1984 0.29268 0.18175 0.0
H874 H 0.22862 0.31111 0.16641 0.0
O875 O 0.34485 0.26112 0.20582 0.0
O876 O 0.37352 0.31943 0.21434 0.0
H877 H 0.31129 0.44679 0.19715 0.0
H878 H 0.25656 0.4594 0.19413 0.0
C879 C 0.2786 0.43841 0.19996 0.0
H880 H 0.27367 0.44338 0.21173 0.0
H881 H 0.40237 0.40127 0.20768 0.0
O882 O 0.25043 0.22904 0.20271 0.0
C883 C 0.37698 0.28284 0.2089 0.0
Co884 Co 0.47936 0.54389 0.96315 0.0
Co885 Co 0.3895 0.5721 0.97209 0.0
C886 C 0.44747 0.53673 0.99424 0.0
O887 O 0.47544 0.53413 0.98444 0.0
O888 O 0.41085 0.54993 0.99114 0.0
C889 C 0.54378 0.48366 0.96424 0.0
O890 O 0.51614 0.46483 0.97257 0.0
C891 C 0.29913 0.5686 0.97825 0.0
C892 C 0.28018 0.63363 0.97324 0.0
C893 C 0.26472 0.59499 0.97729 0.0
N894 N 0.3334 0.59057 0.97471 0.0
N895 N 0.32193 0.62965 0.97204 0.0
C896 C 0.29965 0.52352 0.9827 0.0
H897 H 0.33009 0.50875 0.97988 0.0
H898 H 0.27353 0.50618 0.97754 0.0
H899 H 0.2952 0.52162 0.99469 0.0
C900 C 0.43093 0.49378 0.94139 0.0
N901 N 0.43291 0.52 0.95292 0.0
N902 N 0.39476 0.53232 0.95638 0.0
C903 C 0.36746 0.51479 0.9469 0.0
C904 C 0.38928 0.48923 0.93726 0.0
C905 C 0.46844 0.47385 0.9345 0.0
H906 H 0.49086 0.49854 0.93116 0.0
H907 H 0.48434 0.45371 0.94266 0.0
H908 H 0.4599 0.45443 0.92492 0.0
O909 O 0.48326 0.60546 0.95948 0.0
O910 O 0.41972 0.62367 0.96682 0.0
H911 H 0.31079 0.52212 0.93428 0.0
H912 H 0.30354 0.5052 0.95272 0.0
C913 C 0.32213 0.5262 0.94564 0.0
H914 H 0.31702 0.55916 0.94892 0.0
H915 H 0.34237 0.65334 0.96886 0.0
O916 O 0.53347 0.51748 0.95781 0.0
C917 C 0.45549 0.63339 0.96183 0.0
Co918 Co 0.21326 0.73881 0.70776 0.0
Co919 Co 0.17511 0.65205 0.71521 0.0
C920 C 0.21658 0.70183 0.73822 0.0
O921 O 0.22218 0.72979 0.72862 0.0
O922 O 0.19921 0.66723 0.73489 0.0
C923 C 0.28145 0.79232 0.71036 0.0
O924 O 0.29885 0.75822 0.71564 0.0
C925 C 0.17147 0.56151 0.72017 0.0
C926 C 0.10821 0.54625 0.71201 0.0
C927 C 0.14453 0.52845 0.71744 0.0
N928 N 0.15218 0.59721 0.7163 0.0
N929 N 0.11408 0.58796 0.71169 0.0
C930 C 0.21464 0.55955 0.7265 0.0
H931 H 0.21211 0.55617 0.73852 0.0
H932 H 0.23203 0.58878 0.72408 0.0
H933 H 0.23216 0.53204 0.72234 0.0
C934 C 0.25882 0.68893 0.68539 0.0
N935 N 0.23192 0.69229 0.69667 0.0
N936 N 0.21606 0.65522 0.69965 0.0
C937 C 0.23241 0.62712 0.69015 0.0
C938 C 0.26044 0.64737 0.68098 0.0
C939 C 0.28286 0.7249 0.67918 0.0
H940 H 0.26224 0.7528 0.67832 0.0
H941 H 0.30896 0.7327 0.68667 0.0
H942 H 0.29622 0.7173 0.66833 0.0
O943 O 0.15328 0.75097 0.70458 0.0
O944 O 0.12644 0.68957 0.71086 0.0
H945 H 0.18495 0.57964 0.69074 0.0
H946 H 0.22617 0.56986 0.67778 0.0
C947 C 0.21901 0.58245 0.68879 0.0
H948 H 0.23632 0.56336 0.69688 0.0
H949 H 0.09267 0.60996 0.70776 0.0
O950 O 0.24552 0.79008 0.70444 0.0
C951 C 0.1218 0.72739 0.70671 0.0
Co952 Co 0.01844 0.53761 0.09674 0.0
Co953 Co 0.10345 0.57336 0.08727 0.0
C954 C 0.05041 0.53147 0.06546 0.0
O955 O 0.02386 0.52597 0.0756 0.0
O956 O 0.08528 0.54934 0.06808 0.0
C957 C 0.96642 0.46811 0.0979 0.0
O958 O 0.99906 0.44955 0.09202 0.0
C959 C 0.19176 0.57999 0.07897 0.0
C960 C 0.21395 0.62382 0.09589 0.0
C961 C 0.22788 0.59647 0.0852 0.0
N962 N 0.15856 0.59516 0.08624 0.0
N963 N 0.17193 0.62258 0.09595 0.0
C964 C 0.18843 0.54977 0.06651 0.0
H965 H 0.17681 0.5191 0.07043 0.0
H966 H 0.21896 0.54561 0.06092 0.0
H967 H 0.16514 0.56175 0.05854 0.0
C968 C 0.07002 0.4952 0.11915 0.0
N969 N 0.06554 0.52031 0.10744 0.0
N970 N 0.10245 0.53189 0.10269 0.0
C971 C 0.13202 0.51245 0.11085 0.0
C972 C 0.11258 0.48876 0.12175 0.0
C973 C 0.03394 0.48052 0.12821 0.0
H974 H 0.00757 0.50307 0.12743 0.0
H975 H 0.0231 0.44976 0.12407 0.0
H976 H 0.04318 0.47709 0.13982 0.0
O977 O 0.00626 0.59711 0.09938 0.0
O978 O 0.0669 0.62321 0.09202 0.0
H979 H 0.19182 0.54241 0.11145 0.0
H980 H 0.19445 0.48576 0.11198 0.0
C981 C 0.17769 0.51305 0.1073 0.0
H982 H 0.18164 0.51172 0.09537 0.0
H983 H 0.1526 0.63778 0.10344 0.0
O984 O 0.96946 0.50576 0.10219 0.0
C985 C 0.02954 0.62831 0.09664 0.0
Co986 Co 0.21289 0.25921 0.85421 0.0
Co987 Co 0.18197 0.34537 0.84275 0.0
C988 C 0.22278 0.28452 0.82255 0.0
O989 O 0.22569 0.25991 0.83335 0.0
O990 O 0.2068 0.32089 0.82414 0.0
C991 C 0.27567 0.20027 0.85493 0.0
O992 O 0.29491 0.23083 0.84809 0.0
C993 C 0.19212 0.43303 0.83471 0.0
C994 C 0.13442 0.46118 0.84368 0.0
C995 C 0.17311 0.47131 0.8378 0.0
N996 N 0.16671 0.40221 0.83924 0.0
N997 N 0.13171 0.41916 0.84416 0.0
C998 C 0.23375 0.42517 0.82769 0.0
H999 H 0.23138 0.39823 0.82012 0.0
H1000 H 0.2572 0.41681 0.83613 0.0
H1001 H 0.24455 0.45303 0.82153 0.0
C1002 C 0.25814 0.3118 0.87562 0.0
N1003 N 0.2335 0.30713 0.86378 0.0
N1004 N 0.22029 0.34405 0.8593 0.0
C1005 C 0.23592 0.37345 0.86848 0.0
C1006 C 0.26098 0.35409 0.87891 0.0
C1007 C 0.2779 0.27614 0.8837 0.0
H1008 H 0.30252 0.26189 0.87676 0.0
H1009 H 0.29242 0.28646 0.89408 0.0
H1010 H 0.25405 0.25177 0.88592 0.0
O1011 O 0.15179 0.25354 0.85645 0.0
O1012 O 0.12903 0.31424 0.84762 0.0
H1013 H 0.18924 0.42143 0.86626 0.0
H1014 H 0.22904 0.43289 0.87956 0.0
C1015 C 0.22301 0.41851 0.86874 0.0
H1016 H 0.24134 0.43599 0.86054 0.0
H1017 H 0.10727 0.4022 0.84883 0.0
O1018 O 0.24014 0.2074 0.86065 0.0
C1019 C 0.12189 0.27808 0.85301 0.0
Co1020 Co 0.49198 0.46491 0.59941 0.0
Co1021 Co 0.40557 0.43088 0.59016 0.0
C1022 C 0.46152 0.46989 0.56821 0.0
O1023 O 0.48842 0.47532 0.57822 0.0
O1024 O 0.42621 0.45343 0.57109 0.0
C1025 C 0.54477 0.53338 0.60022 0.0
O1026 O 0.51135 0.55167 0.59477 0.0
C1027 C 0.31764 0.43366 0.58229 0.0
C1028 C 0.29333 0.37829 0.59394 0.0
C1029 C 0.28077 0.41394 0.58646 0.0
N1030 N 0.34996 0.41185 0.58775 0.0
N1031 N 0.3354 0.37795 0.59424 0.0
C1032 C 0.32277 0.47273 0.57343 0.0
H1033 H 0.33289 0.49885 0.58057 0.0
H1034 H 0.29334 0.48125 0.5677 0.0
H1035 H 0.34771 0.46786 0.56519 0.0
C1036 C 0.44025 0.51081 0.62137 0.0
N1037 N 0.44451 0.48531 0.6097 0.0
N1038 N 0.40742 0.47145 0.60575 0.0
C1039 C 0.37839 0.48794 0.61486 0.0
C1040 C 0.3981 0.51385 0.62488 0.0
C1041 C 0.47596 0.53117 0.62918 0.0
H1042 H 0.48507 0.55992 0.6232 0.0
H1043 H 0.46723 0.54027 0.64045 0.0
H1044 H 0.50329 0.5097 0.62948 0.0
O1045 O 0.50078 0.40402 0.60271 0.0
O1046 O 0.43873 0.38065 0.59554 0.0
H1047 H 0.31781 0.48595 0.62545 0.0
H1048 H 0.31692 0.49128 0.60598 0.0
C1049 C 0.3332 0.47593 0.61518 0.0
H1050 H 0.33013 0.44157 0.61413 0.0
H1051 H 0.35396 0.35635 0.59983 0.0
O1052 O 0.54257 0.49561 0.60451 0.0
C1053 C 0.47553 0.37394 0.60036 0.0
Co1054 Co 0.29427 0.73842 0.35261 0.0
Co1055 Co 0.31815 0.64879 0.34285 0.0
C1056 C 0.28609 0.70705 0.321 0.0
O1057 O 0.28459 0.73452 0.33106 0.0
O1058 O 0.2979 0.66976 0.32377 0.0
C1059 C 0.2321 0.7989 0.35181 0.0
O1060 O 0.21431 0.76907 0.34415 0.0
C1061 C 0.32066 0.56023 0.33383 0.0
C1062 C 0.36358 0.53514 0.35064 0.0
C1063 C 0.33758 0.52331 0.3393 0.0
N1064 N 0.33497 0.59209 0.34196 0.0
N1065 N 0.36154 0.57702 0.3517 0.0
C1066 C 0.29185 0.56543 0.32104 0.0
H1067 H 0.30421 0.59025 0.31377 0.0
H1068 H 0.2605 0.57578 0.32477 0.0
H1069 H 0.28889 0.53586 0.31477 0.0
C1070 C 0.24275 0.6902 0.37423 0.0
N1071 N 0.26907 0.69284 0.36273 0.0
N1072 N 0.27662 0.65504 0.35774 0.0
C1073 C 0.25393 0.6272 0.36546 0.0
C1074 C 0.23202 0.64823 0.37645 0.0
C1075 C 0.23058 0.72706 0.38337 0.0
H1076 H 0.25484 0.75177 0.38269 0.0
H1077 H 0.20065 0.74017 0.37923 0.0
H1078 H 0.22635 0.71774 0.39494 0.0
O1079 O 0.3555 0.74146 0.35628 0.0
O1080 O 0.37075 0.6779 0.34821 0.0
H1081 H 0.27798 0.56458 0.3659 0.0
H1082 H 0.22133 0.56772 0.36572 0.0
C1083 C 0.25058 0.58186 0.36149 0.0
H1084 H 0.2504 0.57861 0.34952 0.0
H1085 H 0.37648 0.59513 0.3596 0.0
O1086 O 0.26728 0.79181 0.35783 0.0
C1087 C 0.38221 0.71295 0.35342 0.0
H1088 H 0.52372 0.00984 0.05916 0.0
H1089 H 0.39924 0.03886 0.04367 0.0
H1090 H 0.41991 0.01957 1.01889 0.0
H1091 H 0.47322 0.99454 1.00165 0.0
H1092 H 0.59756 0.96535 1.01726 0.0
H1093 H 0.57688 0.98488 0.04198 0.0
C1094 C 0.50098 0.01198 0.0504 0.0
C1095 C 0.45991 0.02587 0.05333 0.0
C1096 C 0.51307 1.00091 0.03618 0.0
C1097 C 0.43102 0.02831 0.04178 0.0
C1098 C 0.44284 0.01732 1.02758 0.0
C1099 C 0.49591 0.99249 1.01043 0.0
C1100 C 0.53696 0.97844 1.00754 0.0
C1101 C 0.48379 0.00363 1.02466 0.0
C1102 C 0.56579 0.97602 1.01912 0.0
C1103 C 0.55398 0.98716 0.03328 0.0
H1104 H 0.24946 0.27302 0.30812 0.0
H1105 H 0.20354 0.15508 0.2916 0.0
H1106 H 0.22048 0.17718 0.26669 0.0
H1107 H 0.24818 0.23006 0.2497 0.0
H1108 H 0.29368 0.3479 0.26651 0.0
H1109 H 0.27659 0.32563 0.29128 0.0
C1110 C 0.24316 0.2519 0.29912 0.0
C1111 C 0.22523 0.21227 0.3018 0.0
C1112 C 0.25271 0.2649 0.28487 0.0
C1113 C 0.21736 0.18564 0.28991 0.0
C1114 C 0.22697 0.19833 0.27565 0.0
C1115 C 0.25427 0.25105 0.25875 0.0
C1116 C 0.27227 0.29075 0.25617 0.0
C1117 C 0.24455 0.23795 0.27301 0.0
C1118 C 0.2799 0.31728 0.26811 0.0
C1119 C 0.2702 0.30452 0.2823 0.0
H1120 H 0.93222 0.04332 0.51415 0.0
H1121 H 0.04207 0.98817 0.49445 0.0
H1122 H 0.06803 0.96758 0.51832 0.0
H1123 H 0.06047 0.96535 0.54499 0.0
H1124 H 0.95083 0.02043 0.56483 0.0
H1125 H 0.92451 0.04081 0.54092 0.0
C1126 C 0.9617 0.02661 0.51507 0.0
C1127 C 0.98494 0.01746 0.50242 0.0
C1128 C 0.9769 0.01491 0.52896 0.0
C1129 C 0.02328 0.99586 0.50392 0.0
C1130 C 0.03837 0.98402 0.51762 0.0
C1131 C 0.03091 0.98195 0.5441 0.0
C1132 C 0.00786 0.99121 0.55677 0.0
C1133 C 0.01561 0.99353 0.53024 0.0
C1134 C 0.96943 0.01267 0.55532 0.0
C1135 C 0.95418 0.02439 0.54161 0.0
H1136 H 0.25119 0.77401 0.74788 0.0
H1137 H 0.21169 0.65213 0.76286 0.0
H1138 H 0.2324 0.67075 0.78782 0.0
H1139 H 0.26131 0.72213 0.80531 0.0
H1140 H 0.29957 0.84394 0.78976 0.0
H1141 H 0.2794 0.82465 0.76502 0.0
C1142 C 0.24705 0.75124 0.75654 0.0
C1143 C 0.22983 0.71157 0.75342 0.0
C1144 C 0.25868 0.76224 0.77078 0.0
C1145 C 0.22484 0.6828 0.7649 0.0
C1146 C 0.23664 0.6935 0.77917 0.0
C1147 C 0.26524 0.74452 0.79653 0.0
C1148 C 0.28206 0.78453 0.79947 0.0
C1149 C 0.2535 0.73322 0.78224 0.0
C1150 C 0.28678 0.81302 0.7879 0.0
C1151 C 0.27528 0.80199 0.77371 0.0
H1152 H 0.56241 0.03841 0.5435 0.0
H1153 H 0.45197 0.98604 0.56353 0.0
H1154 H 0.42605 0.9642 0.53977 0.0
H1155 H 0.43407 0.96012 0.5131 0.0
H1156 H 0.5447 0.01238 0.49314 0.0
H1157 H 0.5706 0.03402 0.51689 0.0
C1158 C 0.53278 0.02207 0.54268 0.0
C1159 C 0.50933 0.01406 0.55534 0.0
C1160 C 0.51772 0.00963 0.5289 0.0
C1161 C 0.47083 0.99288 0.55401 0.0
C1162 C 0.45582 0.98031 0.54038 0.0
C1163 C 0.46375 0.97635 0.51393 0.0
C1164 C 0.48714 0.98456 0.50126 0.0
C1165 C 0.47886 0.98866 0.52773 0.0
C1166 C 0.52574 0.00556 0.50264 0.0
C1167 C 0.54079 0.01797 0.51626 0.0
H1168 H 0.29009 0.18497 0.76761 0.0
H1169 H 0.23657 0.29075 0.74494 0.0
H1170 H 0.21551 0.32187 0.76813 0.0
H1171 H 0.21188 0.31911 0.79515 0.0
H1172 H 0.26687 0.21313 0.81743 0.0
H1173 H 0.28772 0.18278 0.79431 0.0
C1174 C 0.27365 0.21473 0.76772 0.0
C1175 C 0.26492 0.23525 0.75449 0.0
C1176 C 0.26196 0.23281 0.78113 0.0
C1177 C 0.24383 0.27407 0.75492 0.0
C1178 C 0.23175 0.29203 0.76822 0.0
C1179 C 0.22866 0.28956 0.79494 0.0
C1180 C 0.23748 0.26863 0.80812 0.0
C1181 C 0.24072 0.27178 0.78144 0.0
C1182 C 0.25927 0.23016 0.80755 0.0
C1183 C 0.2713 0.21253 0.79427 0.0
H1184 H 0.93265 0.94838 0.04042 0.0
H1185 H 0.01968 0.02696 0.06374 0.0
H1186 H 0.05419 0.04551 0.04095 0.0
H1187 H 0.06052 0.03911 1.0142 0.0
H1188 H 0.97331 0.96041 0.99099 0.0
H1189 H 0.93883 0.9421 1.01376 0.0
C1190 C 0.95881 0.96996 0.04049 0.0
C1191 C 0.9733 0.98625 0.05381 0.0
C1192 C 0.9791 0.98017 1.02731 0.0
C1193 C 0.0077 0.01383 0.05367 0.0
C1194 C 0.02769 0.02441 0.04063 0.0
C1195 C 0.03431 0.0176 1.01416 0.0
C1196 C 0.01976 1.00119 1.00086 0.0
C1197 C 0.01398 0.00747 1.02736 0.0
C1198 C 0.98531 0.97367 1.00103 0.0
C1199 C 0.96534 0.9632 1.01407 0.0
H1200 H 0.25861 0.78335 0.31145 0.0
H1201 H 0.287 0.65823 0.29643 0.0
H1202 H 0.26878 0.67851 0.27154 0.0
H1203 H 0.24517 0.73141 0.25406 0.0
H1204 H 0.21666 0.85668 0.26886 0.0
H1205 H 0.23469 0.83651 0.29385 0.0
C1206 C 0.26083 0.76042 0.30276 0.0
C1207 C 0.27428 0.71924 0.30588 0.0
C1208 C 0.25035 0.77231 0.28842 0.0
C1209 C 0.2768 0.69008 0.29441 0.0
C1210 C 0.26641 0.70167 0.28015 0.0
C1211 C 0.24286 0.75447 0.26271 0.0
C1212 C 0.22951 0.79562 0.25951 0.0
C1213 C 0.25322 0.74267 0.27703 0.0
C1214 C 0.22682 0.82485 0.27095 0.0
C1215 C 0.23712 0.81332 0.28526 0.0
H1216 H 0.79576 0.82679 0.76588 0.0
H1217 H 0.73971 0.72353 0.74256 0.0
H1218 H 0.72068 0.69041 0.76541 0.0
H1219 H 0.71993 0.68968 0.79211 0.0
H1220 H 0.77419 0.79301 0.81577 0.0
H1221 H 0.7939 0.82656 0.79287 0.0
C1222 C 0.77917 0.79722 0.76581 0.0
C1223 C 0.76946 0.77786 0.75244 0.0
C1224 C 0.76811 0.77791 0.77911 0.0
C1225 C 0.74792 0.73935 0.75262 0.0
C1226 C 0.73696 0.72014 0.76572 0.0
C1227 C 0.7363 0.7194 0.79227 0.0
C1228 C 0.74561 0.73859 0.80566 0.0
C1229 C 0.7471 0.73892 0.77904 0.0
C1230 C 0.76652 0.77741 0.80562 0.0
C1231 C 0.7778 0.79675 0.79251 0.0
H1232 H 0.7501 0.27825 0.24888 0.0
H1233 H 0.70838 0.15813 0.26489 0.0
H1234 H 0.72707 0.17869 0.28973 0.0
H1235 H 0.75439 0.23053 0.30683 0.0
H1236 H 0.7963 0.35083 0.29109 0.0
H1237 H 0.77807 0.33029 0.26612 0.0
C1238 C 0.74513 0.25641 0.25777 0.0
C1239 C 0.72773 0.21657 0.25495 0.0
C1240 C 0.7558 0.26852 0.27206 0.0
C1241 C 0.72165 0.18889 0.26668 0.0
C1242 C 0.73228 0.20067 0.2809 0.0
C1243 C 0.75961 0.25248 0.29799 0.0
C1244 C 0.77676 0.29234 0.3009 0.0
C1245 C 0.7492 0.24042 0.28371 0.0
C1246 C 0.78316 0.32007 0.28921 0.0
C1247 C 0.77277 0.30828 0.27493 0.0
H1248 H 0.75866 0.7747 0.25144 0.0
H1249 H 0.79436 0.65179 0.26675 0.0
H1250 H 0.77342 0.67107 0.29155 0.0
H1251 H 0.7454 0.72315 0.30892 0.0
H1252 H 0.71 0.84583 0.29322 0.0
H1253 H 0.73052 0.82611 0.26855 0.0
C1254 C 0.76189 0.75194 0.26016 0.0
C1255 C 0.77819 0.71178 0.25716 0.0
C1256 C 0.74987 0.76323 0.27436 0.0
C1257 C 0.78195 0.68289 0.26868 0.0
C1258 C 0.77 0.69393 0.28289 0.0
C1259 C 0.74212 0.74562 0.30011 0.0
C1260 C 0.72609 0.78602 0.30301 0.0
C1261 C 0.754 0.73407 0.28587 0.0
C1262 C 0.72217 0.81459 0.2914 0.0
C1263 C 0.73391 0.80334 0.27725 0.0
H1264 H 0.75115 0.28057 0.81057 0.0
H1265 H 0.78803 0.15778 0.79549 0.0
H1266 H 0.76919 0.17745 0.77049 0.0
H1267 H 0.74254 0.22969 0.75297 0.0
H1268 H 0.70661 0.35254 0.76833 0.0
H1269 H 0.72498 0.33245 0.79322 0.0
C1270 C 0.75508 0.25789 0.80186 0.0
C1271 C 0.77105 0.21762 0.80497 0.0
C1272 C 0.74443 0.26947 0.78755 0.0
C1273 C 0.77584 0.18892 0.79346 0.0
C1274 C 0.76509 0.20019 0.77915 0.0
C1275 C 0.73874 0.25218 0.76173 0.0
C1276 C 0.72314 0.29269 0.7587 0.0
C1277 C 0.74944 0.24043 0.77607 0.0
C1278 C 0.71851 0.32123 0.77027 0.0
C1279 C 0.72898 0.30975 0.78453 0.0
H1280 H 0.03385 0.5031 0.56254 0.0
H1281 H 0.91312 0.54561 0.54718 0.0
H1282 H 0.93238 0.52677 0.52225 0.0
H1283 H 0.98326 0.49866 0.50484 0.0
H1284 H 0.10407 0.45596 0.52002 0.0
H1285 H 0.08487 0.47465 0.54504 0.0
C1286 C 0.01162 0.50824 0.55377 0.0
C1287 C 0.97199 0.52586 0.55681 0.0
C1288 C 0.02293 0.49738 0.53942 0.0
C1289 C 0.94375 0.53214 0.54523 0.0
C1290 C 0.95478 0.5214 0.53094 0.0
C1291 C 0.00556 0.49338 0.51358 0.0
C1292 C 0.04517 0.47584 0.51048 0.0
C1293 C 0.99428 0.50409 0.52792 0.0
C1294 C 0.07344 0.46936 0.52203 0.0
C1295 C 0.06244 0.48003 0.53636 0.0
H1296 H 0.52273 0.50831 1.00418 0.0
H1297 H 0.39762 0.53858 1.01866 0.0
H1298 H 0.41705 0.52044 0.0437 0.0
H1299 H 0.46951 0.49616 0.06147 0.0
H1300 H 0.5945 0.46585 0.04685 0.0
H1301 H 0.57501 0.48411 1.02187 0.0
C1302 C 0.49955 0.51095 1.01278 0.0
C1303 C 0.45866 0.52487 1.00947 0.0
C1304 C 0.51095 0.50058 1.02715 0.0
C1305 C 0.42925 0.52798 1.02083 0.0
C1306 C 0.44038 0.51765 0.03518 0.0
C1307 C 0.49261 0.49357 0.05284 0.0
C1308 C 0.53352 0.47958 0.05611 0.0
C1309 C 0.48115 0.50398 0.03846 0.0
C1310 C 0.56286 0.47649 0.04472 0.0
C1311 C 0.55171 0.4869 0.03041 0.0
H1312 H 0.97743 0.49573 0.05656 0.0
H1313 H 0.09712 0.53773 0.04035 0.0
H1314 H 0.07644 0.51817 1.01556 0.0
H1315 H 0.02437 0.48948 0.99853 0.0
H1316 H 0.90471 0.44768 1.01485 0.0
H1317 H 0.9255 0.46724 0.03959 0.0
C1318 C 0.99921 0.50057 0.04765 0.0
C1319 C 0.03893 0.51823 0.0504 0.0
C1320 C 0.98703 0.48948 0.03342 0.0
C1321 C 0.06646 0.5242 0.03862 0.0
C1322 C 0.05459 0.51308 1.02442 0.0
C1323 C 0.00267 0.48468 1.00747 0.0
C1324 C 0.96289 0.46704 1.00475 0.0
C1325 C 0.01491 0.49582 1.0217 0.0
C1326 C 0.93542 0.46115 1.01655 0.0
C1327 C 0.94734 0.47227 0.03072 0.0
H1328 H 0.48487 0.50544 0.50084 0.0
H1329 H 0.60672 0.5452 0.51579 0.0
H1330 H 0.58702 0.52832 0.54091 0.0
H1331 H 0.53525 0.50261 0.55856 0.0
H1332 H 0.4134 0.46311 0.54352 0.0
H1333 H 0.43317 0.47998 0.51844 0.0
C1334 C 0.50732 0.51038 0.50955 0.0
C1335 C 0.54737 0.5266 0.50636 0.0
C1336 C 0.4957 0.50087 0.52396 0.0
C1337 C 0.57578 0.53276 0.51787 0.0
C1338 C 0.56448 0.52318 0.53225 0.0
C1339 C 0.51285 0.49774 0.54983 0.0
C1340 C 0.47276 0.48154 0.55299 0.0
C1341 C 0.52449 0.50734 0.53542 0.0
C1342 C 0.44437 0.47551 0.54147 0.0
C1343 C 0.4557 0.48508 0.5271 0.0
H1344 H 0.57671 0.91911 0.08316 0.0
H1345 H 0.61377 0.02625 0.10884 0.0
H1346 H 0.68724 0.01041 0.10412 0.0
H1347 H 0.74076 0.96639 0.09281 0.0
H1348 H 0.70528 0.85672 0.06854 0.0
H1349 H 0.63102 0.87381 0.07227 0.0
C1350 C 0.60083 0.93885 0.08782 0.0
C1351 C 0.58961 0.97385 0.09636 0.0
C1352 C 0.64315 0.92958 0.08506 0.0
C1353 C 0.62138 0.99903 0.10229 0.0
C1354 C 0.66344 0.99019 0.09952 0.0
C1355 C 0.71684 0.9467 0.0881 0.0
C1356 C 0.72833 0.91104 0.08007 0.0
C1357 C 0.67463 0.9558 0.09083 0.0
C1358 C 0.69698 0.8849 0.07446 0.0
C1359 C 0.65466 0.89445 0.07673 0.0
H1360 H 0.38255 0.45166 0.33982 0.0
H1361 H 0.25639 0.49937 0.33648 0.0
H1362 H 0.22865 0.42891 0.33884 0.0
H1363 H 0.23978 0.3548 0.34376 0.0
H1364 H 0.36514 0.30523 0.3468 0.0
H1365 H 0.3939 0.3756 0.34293 0.0
C1366 C 0.34906 0.44631 0.33928 0.0
C1367 C 0.32163 0.48044 0.33763 0.0
C1368 C 0.33324 0.40571 0.341 0.0
C1369 C 0.27825 0.4735 0.33718 0.0
C1370 C 0.2623 0.43328 0.33882 0.0
C1371 C 0.27342 0.35948 0.3437 0.0
C1372 C 0.30046 0.3254 0.34591 0.0
C1373 C 0.28945 0.39941 0.34108 0.0
C1374 C 0.34391 0.3314 0.34533 0.0
C1375 C 0.36025 0.37144 0.34305 0.0
H1376 H 0.77596 0.13905 0.59001 0.0
H1377 H 0.73066 0.01265 0.58487 0.0
H1378 H 0.7999 0.98519 0.59009 0.0
H1379 H 0.87181 0.99642 0.59799 0.0
H1380 H 0.91885 0.12199 0.60318 0.0
H1381 H 0.8501 0.15052 0.59645 0.0
C1382 C 0.78162 0.10555 0.5897 0.0
C1383 C 0.74834 0.0781 0.5867 0.0
C1384 C 0.82142 0.08979 0.59318 0.0
C1385 C 0.75582 0.03471 0.58656 0.0
C1386 C 0.79534 0.01883 0.58987 0.0
C1387 C 0.8669 0.03005 0.59782 0.0
C1388 C 0.89984 0.05717 0.60141 0.0
C1389 C 0.82798 0.04602 0.59356 0.0
C1390 C 0.89356 0.10062 0.60067 0.0
C1391 C 0.85446 0.11686 0.59674 0.0
H1392 H 0.13358 0.54613 0.83558 0.0
H1393 H 0.25519 0.49148 0.84366 0.0
H1394 H 0.28447 0.56021 0.84786 0.0
H1395 H 0.27589 0.63596 0.84982 0.0
H1396 H 0.15473 0.69186 0.84212 0.0
H1397 H 0.12485 0.6226 0.83765 0.0
C1398 C 0.16661 0.54935 0.83809 0.0
C1399 C 0.19222 0.51349 0.8388 0.0
C1400 C 0.18325 0.58923 0.84091 0.0
C1401 C 0.23482 0.51821 0.84234 0.0
C1402 C 0.25161 0.55769 0.84505 0.0
C1403 C 0.24282 0.63303 0.84733 0.0
C1404 C 0.21753 0.66899 0.8464 0.0
C1405 C 0.22609 0.59334 0.84447 0.0
C1406 C 0.17486 0.66462 0.84297 0.0
C1407 C 0.1578 0.62507 0.84032 0.0
H1408 H 0.74379 0.0826 0.44363 0.0
H1409 H 0.74 0.10284 0.4901 0.0
H1410 H 0.66521 0.08518 0.4904 0.0
H1411 H 0.60187 0.06208 0.47741 0.0
H1412 H 0.60779 0.03589 0.43128 0.0
H1413 H 0.68106 0.05839 0.43075 0.0
C1414 C 0.7264 0.08345 0.4538 0.0
C1415 C 0.7469 0.09423 0.46683 0.0
C1416 C 0.68403 0.07239 0.45388 0.0
C1417 C 0.72459 0.09451 0.47999 0.0
C1418 C 0.68197 0.08457 0.48012 0.0
C1419 C 0.6191 0.06193 0.46721 0.0
C1420 C 0.59957 0.04798 0.45434 0.0
C1421 C 0.66145 0.07334 0.46713 0.0
C1422 C 0.62232 0.0468 0.44127 0.0
C1423 C 0.6641 0.05952 0.44099 0.0
H1424 H 0.16479 0.33252 0.7187 0.0
H1425 H 0.26472 0.36246 0.68877 0.0
H1426 H 0.24682 0.43666 0.69038 0.0
H1427 H 0.20488 0.49318 0.70112 0.0
H1428 H 0.10511 0.46397 0.73097 0.0
H1429 H 0.12083 0.38897 0.72862 0.0
C1430 C 0.18232 0.35517 0.71237 0.0
C1431 C 0.21617 0.34197 0.70367 0.0
C1432 C 0.17232 0.39783 0.71353 0.0
C1433 C 0.23859 0.37179 0.69557 0.0
C1434 C 0.22854 0.41424 0.69654 0.0
C1435 C 0.18713 0.47033 0.70728 0.0
C1436 C 0.15488 0.48369 0.71657 0.0
C1437 C 0.19605 0.42762 0.70571 0.0
C1438 C 0.13067 0.45405 0.72401 0.0
C1439 C 0.13953 0.41135 0.7226 0.0
H1440 H 0.79996 0.85455 0.97157 0.0
H1441 H 0.75634 0.98146 0.97769 0.0
H1442 H 0.82485 0.00813 0.97142 0.0
H1443 H 0.89457 0.99628 0.96169 0.0
H1444 H 0.93987 0.87043 0.955 0.0
H1445 H 0.87272 0.84236 0.96357 0.0
C1446 C 0.80591 0.88797 0.9719 0.0
C1447 C 0.77323 0.91579 0.9754 0.0
C1448 C 0.84509 0.90334 0.96764 0.0
C1449 C 0.78106 0.95908 0.97561 0.0
C1450 C 0.82011 0.97454 0.97167 0.0
C1451 C 0.8896 0.96268 0.96194 0.0
C1452 C 0.92137 0.93533 0.95733 0.0
C1453 C 0.85176 0.94704 0.96719 0.0
C1454 C 0.91528 0.89193 0.95823 0.0
C1455 C 0.87716 0.87598 0.96323 0.0
H1456 H 0.32995 0.67155 0.23391 0.0
H1457 H 0.25393 0.64755 0.19583 0.0
H1458 H 0.27615 0.57442 0.19592 0.0
H1459 H 0.31569 0.51718 0.20708 0.0
H1460 H 0.39054 0.5393 0.24534 0.0
H1461 H 0.37035 0.61375 0.24499 0.0
C1462 C 0.31859 0.65043 0.22554 0.0
C1463 C 0.29037 0.66498 0.21486 0.0
C1464 C 0.33101 0.60823 0.22578 0.0
C1465 C 0.27564 0.63713 0.20417 0.0
C1466 C 0.28823 0.59531 0.20423 0.0
C1467 C 0.32728 0.53834 0.21537 0.0
C1468 C 0.35405 0.52326 0.2263 0.0
C1469 C 0.31551 0.58052 0.21505 0.0
C1470 C 0.36958 0.55064 0.23692 0.0
C1471 C 0.35814 0.593 0.23667 0.0
H1472 H 0.39022 0.981 0.96433 0.0
H1473 H 0.43767 0.10644 0.9592 0.0
H1474 H 0.3676 0.13503 0.96374 0.0
H1475 H 0.29243 0.12388 0.96852 0.0
H1476 H 0.24629 0.99791 0.97383 0.0
H1477 H 0.31645 0.97014 0.97036 0.0
C1478 C 0.38514 0.01459 0.96405 0.0
C1479 C 0.4188 0.0416 0.96116 0.0
C1480 C 0.34521 0.03073 0.96706 0.0
C1481 C 0.41205 0.08507 0.96124 0.0
C1482 C 0.37211 0.10139 0.96391 0.0
C1483 C 0.298 0.09041 0.96922 0.0
C1484 C 0.26424 0.0632 0.97181 0.0
C1485 C 0.33845 0.07448 0.96684 0.0
C1486 C 0.27172 0.01983 0.97243 0.0
C1487 C 0.31183 0.00377 0.97015 0.0
H1488 H 0.75771 0.64985 0.7117 0.0
H1489 H 0.63388 0.70132 0.70598 0.0
H1490 H 0.60304 0.6342 0.71326 0.0
H1491 H 0.61192 0.5602 0.72047 0.0
H1492 H 0.73664 0.51045 0.72622 0.0
H1493 H 0.76644 0.57807 0.72028 0.0
C1494 C 0.72395 0.64623 0.71186 0.0
C1495 C 0.69799 0.67997 0.70797 0.0
C1496 C 0.70666 0.60825 0.71646 0.0
C1497 C 0.65436 0.67539 0.70871 0.0
C1498 C 0.63681 0.63721 0.71297 0.0
C1499 C 0.64558 0.56454 0.72074 0.0
C1500 C 0.67184 0.53045 0.72414 0.0
C1501 C 0.66271 0.60341 0.71686 0.0
C1502 C 0.71545 0.53627 0.72423 0.0
C1503 C 0.73267 0.57485 0.72051 0.0
H1504 H 0.09713 0.91768 0.47532 0.0
H1505 H 0.12626 0.99816 0.43884 0.0
H1506 H 0.20042 0.98135 0.44142 0.0
H1507 H 0.25696 0.94604 0.45453 0.0
H1508 H 0.22925 0.86511 0.49078 0.0
H1509 H 0.1541 0.87999 0.48792 0.0
C1510 C 0.11961 0.93106 0.4678 0.0
C1511 C 0.10622 0.95921 0.45692 0.0
C1512 C 0.16231 0.92177 0.46948 0.0
C1513 C 0.13578 0.97648 0.44732 0.0
C1514 C 0.17819 0.96707 0.44882 0.0
C1515 C 0.23445 0.93226 0.46192 0.0
C1516 C 0.24823 0.90564 0.47311 0.0
C1517 C 0.19179 0.94042 0.46002 0.0
C1518 C 0.21899 0.88645 0.4823 0.0
C1519 C 0.17623 0.89475 0.48059 0.0
H1520 H 0.80474 0.48629 0.20639 0.0
H1521 H 0.88503 0.45614 0.24267 0.0
H1522 H 0.86996 0.38129 0.23944 0.0
H1523 H 0.83211 0.32538 0.22662 0.0
H1524 H 0.75226 0.35652 0.19011 0.0
H1525 H 0.76963 0.43042 0.1929 0.0
C1526 C 0.8183 0.46323 0.2137 0.0
C1527 C 0.84475 0.47615 0.22502 0.0
C1528 C 0.81014 0.42073 0.21157 0.0
C1529 C 0.86378 0.44641 0.23411 0.0
C1530 C 0.85541 0.40385 0.23218 0.0
C1531 C 0.81907 0.34824 0.21912 0.0
C1532 C 0.79085 0.33561 0.20821 0.0
C1533 C 0.82855 0.39071 0.22095 0.0
C1534 C 0.77398 0.36557 0.19862 0.0
C1535 C 0.78367 0.4078 0.20026 0.0
H1536 H 0.27592 0.86829 0.59069 0.0
H1537 H 0.22926 0.99435 0.58527 0.0
H1538 H 0.29863 0.0222 0.58965 0.0
H1539 H 0.37113 0.01154 0.59694 0.0
H1540 H 0.41962 0.88638 0.60246 0.0
H1541 H 0.35064 0.85732 0.59651 0.0
C1542 C 0.28129 0.90179 0.59013 0.0
C1543 C 0.24759 0.92902 0.58729 0.0
C1544 C 0.32122 0.91781 0.59315 0.0
C1545 C 0.2547 0.97242 0.58683 0.0
C1546 C 0.29432 0.98854 0.58967 0.0
C1547 C 0.36652 0.97788 0.597 0.0
C1548 C 0.39993 0.95105 0.60046 0.0
C1549 C 0.32745 0.9616 0.5932 0.0
C1550 C 0.39398 0.90754 0.60004 0.0
C1551 C 0.35474 0.891 0.59655 0.0
H1552 H 0.8256 0.5246 0.36254 0.0
H1553 H 0.86301 0.53187 0.31745 0.0
H1554 H 0.84244 0.60602 0.3167 0.0
H1555 H 0.81168 0.66762 0.32877 0.0
H1556 H 0.76872 0.65812 0.37327 0.0
H1557 H 0.79391 0.58571 0.37447 0.0
C1558 C 0.82958 0.54268 0.3526 0.0
C1559 C 0.84609 0.5234 0.34009 0.0
C1560 C 0.81672 0.5846 0.3522 0.0
C1561 C 0.8504 0.54646 0.32718 0.0
C1562 C 0.83872 0.58867 0.32678 0.0
C1563 C 0.80838 0.64984 0.33879 0.0
C1564 C 0.78886 0.66813 0.35099 0.0
C1565 C 0.82165 0.60797 0.33922 0.0
C1566 C 0.78383 0.64459 0.36379 0.0
C1567 C 0.79814 0.60328 0.36446 0.0
H1568 H 0.10129 0.99034 0.0986 0.0
H1569 H 0.04961 0.11473 0.10258 0.0
H1570 H 0.11797 0.1449 0.0965 0.0
H1571 H 0.19275 0.13525 0.09052 0.0
H1572 H 0.24256 0.00997 0.08655 0.0
H1573 H 0.17407 0.98078 0.09159 0.0
C1574 C 0.10505 0.02409 0.09833 0.0
C1575 C 0.07084 0.05038 0.10133 0.0
C1576 C 0.14375 0.04096 0.09441 0.0
C1577 C 0.07582 0.09398 0.10051 0.0
C1578 C 0.11471 0.11115 0.09693 0.0
C1579 C 0.18826 0.10158 0.09046 0.0
C1580 C 0.22248 0.07494 0.08775 0.0
C1581 C 0.14886 0.08487 0.09382 0.0
C1582 C 0.21657 0.03135 0.08796 0.0
C1583 C 0.1775 0.01452 0.09117 0.0
H1584 H 0.62556 0.46126 0.8314 0.0
H1585 H 0.75379 0.50248 0.82789 0.0
H1586 H 0.77837 0.43207 0.83293 0.0
H1587 H 0.76392 0.36147 0.84156 0.0
H1588 H 0.63647 0.31908 0.84588 0.0
H1589 H 0.61093 0.38774 0.83768 0.0
C1590 C 0.65885 0.45445 0.83133 0.0
C1591 C 0.68768 0.48704 0.82908 0.0
C1592 C 0.67289 0.41417 0.83494 0.0
C1593 C 0.73075 0.47801 0.82911 0.0
C1594 C 0.74494 0.4378 0.83234 0.0
C1595 C 0.73052 0.36736 0.84081 0.0
C1596 C 0.70195 0.33601 0.84474 0.0
C1597 C 0.71633 0.40623 0.83586 0.0
C1598 C 0.65886 0.3433 0.84319 0.0
C1599 C 0.64436 0.38231 0.83842 0.0
H1600 H 0.11836 0.51509 0.6018 0.0
H1601 H 0.06361 0.39199 0.59901 0.0
H1602 H 0.1318 0.36248 0.5922 0.0
H1603 H 0.20713 0.3723 0.58718 0.0
H1604 H 0.25945 0.49665 0.5901 0.0
H1605 H 0.19172 0.52509 0.59618 0.0
C1606 C 0.12134 0.48169 0.59988 0.0
C1607 C 0.08627 0.45561 0.6011 0.0
C1608 C 0.15998 0.46533 0.5956 0.0
C1609 C 0.09042 0.41258 0.59826 0.0
C1610 C 0.12925 0.3958 0.59428 0.0
C1611 C 0.20346 0.40571 0.58891 0.0
C1612 C 0.2384 0.43223 0.58776 0.0
C1613 C 0.16421 0.422 0.59283 0.0
C1614 C 0.23329 0.47539 0.59027 0.0
C1615 C 0.19447 0.49179 0.59406 0.0
H1616 H 0.88843 0.95862 0.84748 0.0
H1617 H 0.76483 0.00702 0.83842 0.0
H1618 H 0.73479 0.93838 0.84258 0.0
H1619 H 0.74276 0.8655 0.84997 0.0
H1620 H 0.86564 0.81528 0.85878 0.0
H1621 H 0.8968 0.884 0.85394 0.0
C1622 C 0.85505 0.95379 0.84614 0.0
C1623 C 0.82917 0.98765 0.84223 0.0
C1624 C 0.83771 0.91426 0.84891 0.0
C1625 C 0.78583 0.9813 0.8408 0.0
C1626 C 0.76841 0.94214 0.84348 0.0
C1627 C 0.77631 0.86973 0.85103 0.0
C1628 C 0.80188 0.8358 0.855 0.0
C1629 C 0.79394 0.90866 0.84779 0.0
C1630 C 0.84539 0.84129 0.85592 0.0
C1631 C 0.86317 0.88039 0.85305 0.0
H1632 H 0.3009 0.63708 0.08967 0.0
H1633 H 0.24954 0.51376 0.08271 0.0
H1634 H 0.3168 0.48224 0.0881 0.0
H1635 H 0.38909 0.48888 0.09632 0.0
H1636 H 0.44224 0.61128 0.10315 0.0
H1637 H 0.37519 0.64396 0.09668 0.0
C1638 C 0.30479 0.60337 0.08903 0.0
C1639 C 0.27035 0.57806 0.08542 0.0
C1640 C 0.34354 0.58518 0.09256 0.0
C1641 C 0.27559 0.53434 0.08487 0.0
C1642 C 0.314 0.51608 0.08826 0.0
C1643 C 0.38583 0.5227 0.09656 0.0
C1644 C 0.42006 0.54772 0.10049 0.0
C1645 C 0.34786 0.54111 0.09242 0.0
C1646 C 0.41594 0.59149 0.10034 0.0
C1647 C 0.3778 0.61012 0.09655 0.0
H1648 H 0.75847 0.14562 0.34031 0.0
H1649 H 0.63482 0.19902 0.34402 0.0
H1650 H 0.60375 0.13069 0.33832 0.0
H1651 H 0.61256 0.0549 0.33373 0.0
H1652 H 0.73737 0.00348 0.33047 0.0
H1653 H 0.76718 0.07233 0.33397 0.0
C1654 C 0.72468 0.14227 0.33998 0.0
C1655 C 0.69882 0.17679 0.34292 0.0
C1656 C 0.70735 0.10353 0.33642 0.0
C1657 C 0.65519 0.17249 0.342 0.0
C1658 C 0.63753 0.13361 0.33867 0.0
C1659 C 0.64624 0.05911 0.33343 0.0
C1660 C 0.67255 0.02421 0.33146 0.0
C1661 C 0.66339 0.09882 0.33599 0.0
C1662 C 0.71618 0.0298 0.33134 0.0
C1663 C 0.73341 0.06917 0.33367 0.0
H1664 H 0.2322 0.54164 0.95786 0.0
H1665 H 0.19906 0.62484 0.99299 0.0
H1666 H 0.1246 0.60926 0.9892 0.0
H1667 H 0.06973 0.57077 0.97611 0.0
H1668 H 0.10361 0.48798 0.94075 0.0
H1669 H 0.17734 0.50516 0.94422 0.0
C1670 C 0.2086 0.55563 0.96484 0.0
C1671 C 0.22063 0.58314 0.97598 0.0
C1672 C 0.16625 0.54719 0.96237 0.0
C1673 C 0.1901 0.60277 0.98458 0.0
C1674 C 0.14773 0.59411 0.98233 0.0
C1675 C 0.09315 0.55697 0.96901 0.0
C1676 C 0.08126 0.52809 0.9582 0.0
C1677 C 0.13549 0.56638 0.97124 0.0
C1678 C 0.11201 0.51027 0.94915 0.0
C1679 C 0.15416 0.51985 0.95119 0.0
H1680 H 0.71036 0.99207 0.20922 0.0
H1681 H 0.60603 0.96012 0.2367 0.0
H1682 H 0.62542 0.88567 0.2353 0.0
H1683 H 0.67213 0.83026 0.22604 0.0
H1684 H 0.7748 0.8631 0.19763 0.0
H1685 H 0.75554 0.93686 0.19937 0.0
C1686 C 0.69231 0.96876 0.21504 0.0
C1687 C 0.65755 0.98116 0.22333 0.0
C1688 C 0.70297 0.92636 0.21382 0.0
C1689 C 0.63341 0.95094 0.2305 0.0
C1690 C 0.64434 0.90855 0.22961 0.0
C1691 C 0.69011 0.85348 0.22013 0.0
C1692 C 0.72493 0.84112 0.21174 0.0
C1693 C 0.67897 0.89592 0.22122 0.0
C1694 C 0.74785 0.87168 0.20415 0.0
C1695 C 0.73702 0.91391 0.2052 0.0
H1696 H 0.39785 0.50744 0.46592 0.0
H1697 H 0.45091 0.38442 0.45979 0.0
H1698 H 0.38275 0.35261 0.46509 0.0
H1699 H 0.3074 0.36043 0.47083 0.0
H1700 H 0.25645 0.48441 0.47723 0.0
H1701 H 0.32462 0.51499 0.47291 0.0
C1702 C 0.39444 0.47365 0.4656 0.0
C1703 C 0.42905 0.44828 0.46219 0.0
C1704 C 0.35572 0.45572 0.46904 0.0
C1705 C 0.42448 0.40455 0.46223 0.0
C1706 C 0.38563 0.38641 0.46532 0.0
C1707 C 0.31153 0.39407 0.47156 0.0
C1708 C 0.27691 0.41984 0.47474 0.0
C1709 C 0.35099 0.41174 0.46874 0.0
C1710 C 0.28254 0.46347 0.4754 0.0
C1711 C 0.32153 0.4812 0.47264 0.0
H1712 H 0.80024 0.16383 0.73578 0.0
H1713 H 0.77227 0.1606 0.68973 0.0
H1714 H 0.79862 0.08859 0.68831 0.0
H1715 H 0.82815 0.02639 0.70029 0.0
H1716 H 0.85065 0.02723 0.74665 0.0
H1717 H 0.82768 0.10065 0.74793 0.0
C1718 C 0.80032 0.14744 0.72541 0.0
C1719 C 0.78486 0.16747 0.71282 0.0
C1720 C 0.81428 0.10578 0.72479 0.0
C1721 C 0.78418 0.14573 0.69953 0.0
C1722 C 0.7992 0.10466 0.69872 0.0
C1723 C 0.82829 0.04288 0.71064 0.0
C1724 C 0.84148 0.02202 0.72335 0.0
C1725 C 0.81413 0.08439 0.7113 0.0
C1726 C 0.84075 0.04303 0.73677 0.0
C1727 C 0.82769 0.08485 0.73747 0.0
H1728 H 0.90612 0.53622 0.44746 0.0
H1729 H 0.93904 0.57478 0.49107 0.0
H1730 H 0.86853 0.60256 0.49482 0.0
H1731 H 0.79611 0.61356 0.48592 0.0
H1732 H 0.76544 0.57923 0.44172 0.0
H1733 H 0.83602 0.552 0.43798 0.0
C1734 C 0.89786 0.55102 0.45772 0.0
C1735 C 0.92755 0.55341 0.46895 0.0
C1736 C 0.85749 0.56743 0.45974 0.0
C1737 C 0.91671 0.57291 0.48219 0.0
C1738 C 0.87633 0.58855 0.48439 0.0
C1739 C 0.80521 0.60027 0.4755 0.0
C1740 C 0.77589 0.59804 0.46415 0.0
C1741 C 0.84628 0.58562 0.47329 0.0
C1742 C 0.78771 0.58112 0.45061 0.0
C1743 C 0.828 0.56556 0.44846 0.0
H1744 H 0.18971 0.17564 0.2323 0.0
H1745 H 0.20467 0.17473 0.18553 0.0
H1746 H 0.18265 0.10138 0.18468 0.0
H1747 H 0.16482 0.03675 0.19741 0.0
H1748 H 0.15587 0.03529 0.24435 0.0
H1749 H 0.17042 0.11067 0.24508 0.0
C1750 C 0.18723 0.1595 0.22191 0.0
C1751 C 0.19816 0.18027 0.20895 0.0
C1752 C 0.17645 0.11703 0.22161 0.0
C1753 C 0.19604 0.1591 0.19558 0.0
C1754 C 0.1837 0.11729 0.19512 0.0
C1755 C 0.16559 0.05307 0.2078 0.0
C1756 C 0.1595 0.03081 0.22083 0.0
C1757 C 0.17472 0.09581 0.20809 0.0
C1758 C 0.16107 0.05192 0.23422 0.0
C1759 C 0.16911 0.09492 0.23461 0.0
H1760 H 0.57638 0.4156 0.97812 0.0
H1761 H 0.61019 0.51897 0.95013 0.0
H1762 H 0.68371 0.49857 0.95166 0.0
H1763 H 0.73838 0.45199 0.96113 0.0
H1764 H 0.70533 0.34718 0.98828 0.0
H1765 H 0.63123 0.36773 0.98707 0.0
C1766 C 0.59976 0.43353 0.97226 0.0
C1767 C 0.58772 0.46884 0.96404 0.0
C1768 C 0.64205 0.42172 0.97323 0.0
C1769 C 0.61849 0.49164 0.95652 0.0
C1770 C 0.6606 0.48014 0.95745 0.0
C1771 C 0.71499 0.43414 0.96697 0.0
C1772 C 0.72707 0.39891 0.97513 0.0
C1773 C 0.67272 0.44554 0.96588 0.0
C1774 C 0.69652 0.37495 0.98221 0.0
C1775 C 0.6543 0.38655 0.98143 0.0
H1776 H 0.23776 0.86307 0.71545 0.0
H1777 H 0.36319 0.81284 0.71501 0.0
H1778 H 0.39081 0.88066 0.72296 0.0
H1779 H 0.37914 0.95511 0.72873 0.0
H1780 H 0.25313 0.00427 0.72883 0.0
H1781 H 0.22574 0.93549 0.72298 0.0
C1782 C 0.2712 0.86709 0.71696 0.0
C1783 C 0.29861 0.83349 0.71431 0.0
C1784 C 0.28657 0.90561 0.72186 0.0
C1785 C 0.34167 0.83862 0.71676 0.0
C1786 C 0.35736 0.8772 0.7214 0.0
C1787 C 0.34561 0.95043 0.72783 0.0
C1788 C 0.3183 0.98472 0.7295 0.0
C1789 C 0.33008 0.91097 0.7239 0.0
C1790 C 0.27493 0.97841 0.72813 0.0
C1791 C 0.2592 0.93913 0.72445 0.0
H1792 H 0.79937 0.36966 0.08564 0.0
H1793 H 0.74941 0.49384 0.09263 0.0
H1794 H 0.81902 0.52075 0.09679 0.0
H1795 H 0.89327 0.50919 0.09942 0.0
H1796 H 0.94598 0.38622 0.09246 0.0
H1797 H 0.87579 0.3583 0.08774 0.0
C1798 C 0.804 0.40271 0.08783 0.0
C1799 C 0.76936 0.42987 0.08835 0.0
C1800 C 0.84433 0.41796 0.0906 0.0
C1801 C 0.77546 0.47247 0.0915 0.0
C1802 C 0.81531 0.48785 0.09418 0.0
C1803 C 0.88955 0.47613 0.09702 0.0
C1804 C 0.92458 0.44965 0.09644 0.0
C1805 C 0.84976 0.4608 0.09394 0.0
C1806 C 0.91926 0.40709 0.09307 0.0
C1807 C 0.87928 0.39124 0.09028 0.0
H1808 H 0.3391 0.17277 0.83764 0.0
H1809 H 0.24216 0.12977 0.86686 0.0
H1810 H 0.25774 0.05739 0.86035 0.0
H1811 H 0.29797 0.00676 0.84624 0.0
H1812 H 0.39752 0.04794 0.81812 0.0
H1813 H 0.38107 0.12129 0.82398 0.0
C1814 C 0.32173 0.14757 0.84274 0.0
C1815 C 0.28949 0.15666 0.85273 0.0
C1816 C 0.33057 0.10603 0.83885 0.0
C1817 C 0.26717 0.12363 0.85917 0.0
C1818 C 0.27579 0.08228 0.85537 0.0
C1819 C 0.31542 0.03184 0.84117 0.0
C1820 C 0.34795 0.02244 0.83145 0.0
C1821 C 0.30696 0.07325 0.84509 0.0
C1822 C 0.37158 0.05491 0.82533 0.0
C1823 C 0.3625 0.09659 0.82883 0.0
H1824 H 0.70816 0.64098 0.59224 0.0
H1825 H 0.76023 0.51713 0.58671 0.0
H1826 H 0.69139 0.48641 0.58948 0.0
H1827 H 0.61747 0.49393 0.59521 0.0
H1828 H 0.56338 0.61679 0.6006 0.0
H1829 H 0.63213 0.64882 0.59647 0.0
C1830 C 0.70409 0.60737 0.59131 0.0
C1831 C 0.73906 0.58155 0.58888 0.0
C1832 C 0.66436 0.58969 0.59331 0.0
C1833 C 0.73373 0.53795 0.58797 0.0
C1834 C 0.69441 0.5202 0.58986 0.0
C1835 C 0.6208 0.52772 0.59562 0.0
C1836 C 0.5859 0.55306 0.59851 0.0
C1837 C 0.65979 0.54568 0.59285 0.0
C1838 C 0.59019 0.59678 0.59857 0.0
C1839 C 0.62931 0.61502 0.59614 0.0
H1840 H 0.18978 0.99095 0.35439 0.0
H1841 H 0.11512 0.95879 0.31696 0.0
H1842 H 0.13503 0.88475 0.31978 0.0
H1843 H 0.17553 0.83027 0.3326 0.0
H1844 H 0.25146 0.86394 0.36978 0.0
H1845 H 0.22897 0.9368 0.36746 0.0
C1846 C 0.17834 0.96772 0.34678 0.0
C1847 C 0.1519 0.97989 0.33533 0.0
C1848 C 0.18983 0.92576 0.34853 0.0
C1849 C 0.13603 0.94974 0.32573 0.0
C1850 C 0.14729 0.90762 0.32738 0.0
C1851 C 0.18672 0.85345 0.34031 0.0
C1852 C 0.21507 0.8418 0.35137 0.0
C1853 C 0.17432 0.89536 0.33873 0.0
C1854 C 0.22967 0.87221 0.36118 0.0
C1855 C 0.21694 0.91383 0.35983 0.0
H1856 H 0.26369 0.93413 0.1743 0.0
H1857 H 0.3497 0.83022 0.17737 0.0
H1858 H 0.3925 0.86078 0.15797 0.0
H1859 H 0.40494 0.91779 0.13974 0.0
H1860 H 0.32505 0.02688 0.14088 0.0
H1861 H 0.28183 0.99466 0.15954 0.0
C1862 C 0.29246 0.91857 0.17116 0.0
C1863 C 0.30313 0.87976 0.17742 0.0
C1864 C 0.31834 0.93758 0.16073 0.0
C1865 C 0.33987 0.85961 0.17259 0.0
C1866 C 0.3648 0.87741 0.1616 0.0
C1867 C 0.37851 0.93469 0.14427 0.0
C1868 C 0.36729 0.97406 0.13846 0.0
C1869 C 0.35432 0.91649 0.15554 0.0
C1870 C 0.33338 0.99583 0.14467 0.0
C1871 C 0.30867 0.97752 0.15542 0.0
H1872 H 0.39513 0.01521 0.40307 0.0
H1873 H 0.34245 0.07454 0.44105 0.0
H1874 H 0.29767 0.11835 0.42556 0.0
H1875 H 0.27123 0.13772 0.4011 0.0
H1876 H 0.3205 0.07509 0.36321 0.0
H1877 H 0.36866 0.03465 0.37858 0.0
C1878 C 0.37418 0.03818 0.40787 0.0
C1879 C 0.37231 0.04222 0.42311 0.0
C1880 C 0.34774 0.06244 0.39888 0.0
C1881 C 0.34453 0.07133 0.4293 0.0
C1882 C 0.31888 0.09623 0.42046 0.0
C1883 C 0.29291 0.11553 0.39627 0.0
C1884 C 0.29281 0.1096 0.38108 0.0
C1885 C 0.3199 0.09183 0.40523 0.0
C1886 C 0.32032 0.08021 0.37489 0.0
C1887 C 0.34781 0.05712 0.38368 0.0
H1888 H 0.16584 0.00847 0.64041 0.0
H1889 H 0.06914 0.10235 0.63675 0.0
H1890 H 0.10468 0.14524 0.65503 0.0
H1891 H 0.16402 0.15615 0.6722 0.0
H1892 H 0.26597 0.06734 0.67218 0.0
H1893 H 0.22853 0.02335 0.65486 0.0
C1894 C 0.1529 0.03876 0.64328 0.0
C1895 C 0.11463 0.05186 0.63713 0.0
C1896 C 0.17472 0.0644 0.65317 0.0
C1897 C 0.09796 0.09076 0.64148 0.0
C1898 C 0.11862 0.11566 0.65183 0.0
C1899 C 0.17828 0.1275 0.66824 0.0
C1900 C 0.21727 0.11448 0.6739 0.0
C1901 C 0.15713 0.10286 0.65776 0.0
C1902 C 0.23536 0.0774 0.66848 0.0
C1903 C 0.21406 0.05227 0.65848 0.0
H1904 H 0.17855 0.84421 0.88431 0.0
H1905 H 0.28496 0.92668 0.88712 0.0
H1906 H 0.24906 0.96908 0.90534 0.0
H1907 H 0.18586 0.9853 0.91932 0.0
H1908 H 0.08547 0.89531 0.92071 0.0
H1909 H 0.11985 0.85402 0.90175 0.0
C1910 C 0.19415 0.87099 0.88911 0.0
C1911 C 0.23372 0.88324 0.88389 0.0
C1912 C 0.17401 0.89436 0.90014 0.0
C1913 C 0.25373 0.91765 0.89043 0.0
C1914 C 0.23334 0.94182 0.90094 0.0
C1915 C 0.17191 0.95604 0.91586 0.0
C1916 C 0.13275 0.94392 0.92144 0.0
C1917 C 0.19316 0.93092 0.90568 0.0
C1918 C 0.11489 0.90637 0.91636 0.0
C1919 C 0.13487 0.8823 0.90563 0.0
H1920 H 0.74574 0.07698 0.89078 0.0
H1921 H 0.65376 0.17513 0.88603 0.0
H1922 H 0.61026 0.14201 0.90467 0.0
H1923 H 0.59838 0.08411 0.92251 0.0
H1924 H 0.68395 0.97932 0.92247 0.0
H1925 H 0.72874 0.01499 0.90507 0.0
C1926 C 0.71563 0.09071 0.8934 0.0
C1927 C 0.70344 0.12874 0.88688 0.0
C1928 C 0.68934 0.06997 0.90332 0.0
C1929 C 0.66483 0.14652 0.89103 0.0
C1930 C 0.63949 0.12719 0.90158 0.0
C1931 C 0.62642 0.0688 0.9185 0.0
C1932 C 0.63859 0.02972 0.92434 0.0
C1933 C 0.65138 0.08874 0.90782 0.0
C1934 C 0.67476 0.01021 0.91878 0.0
C1935 C 0.70035 0.03045 0.90871 0.0
H1936 H 0.663 0.8567 0.67186 0.0
H1937 H 0.76562 0.94424 0.67071 0.0
H1938 H 0.72718 0.98831 0.65363 0.0
H1939 H 0.66417 0.00269 0.63929 0.0
H1940 H 0.56772 0.90882 0.63635 0.0
H1941 H 0.60335 0.86701 0.65495 0.0
C1942 C 0.67727 0.88501 0.6677 0.0
C1943 C 0.71675 0.89764 0.67294 0.0
C1944 C 0.65578 0.90936 0.65726 0.0
C1945 C 0.73463 0.93452 0.66736 0.0
C1946 C 0.71282 0.95963 0.65747 0.0
C1947 C 0.65131 0.97263 0.64242 0.0
C1948 C 0.6132 0.9591 0.63635 0.0
C1949 C 0.67329 0.94749 0.65241 0.0
C1950 C 0.59649 0.92063 0.641 0.0
C1951 C 0.61718 0.89636 0.65152 0.0
H1952 H 0.83759 0.85265 0.38614 0.0
H1953 H 0.73261 0.93781 0.3876 0.0
H1954 H 0.76947 0.982 0.40494 0.0
H1955 H 0.83244 0.99842 0.4189 0.0
H1956 H 0.93199 0.9073 0.42167 0.0
H1957 H 0.89716 0.8643 0.40325 0.0
C1958 C 0.82254 0.8805 0.39043 0.0
C1959 C 0.78289 0.89261 0.38509 0.0
C1960 C 0.84333 0.90516 0.40101 0.0
C1961 C 0.76379 0.9286 0.39097 0.0
C1962 C 0.78474 0.95383 0.401 0.0
C1963 C 0.8462 0.96866 0.41584 0.0
C1964 C 0.88509 0.95653 0.42174 0.0
C1965 C 0.82473 0.94276 0.40595 0.0
C1966 C 0.90271 0.9183 0.41712 0.0
C1967 C 0.88246 0.89327 0.40669 0.0
H1968 H 0.89239 0.07608 0.13752 0.0
H1969 H 0.80725 0.97143 0.13678 0.0
H1970 H 0.7619 0.00669 0.15428 0.0
H1971 H 0.74511 0.06832 0.16911 0.0
H1972 H 0.8384 0.16442 0.17473 0.0
H1973 H 0.88141 0.13214 0.15578 0.0
C1974 C 0.86439 0.06056 0.14139 0.0
C1975 C 0.85249 0.0218 0.13536 0.0
C1976 C 0.83959 0.07989 0.15218 0.0
C1977 C 0.81619 0.00216 0.14067 0.0
C1978 C 0.79037 0.02211 0.1508 0.0
C1979 C 0.7754 0.08165 0.16658 0.0
C1980 C 0.78815 0.11901 0.17338 0.0
C1981 C 0.80152 0.0612 0.15651 0.0
C1982 C 0.82701 0.13638 0.16945 0.0
C1983 C 0.852 0.11757 0.15874 0.0
H1984 H 0.82365 0.49856 0.64071 0.0
H1985 H 0.92573 0.41038 0.63761 0.0
H1986 H 0.89278 0.36644 0.65616 0.0
H1987 H 0.83423 0.35344 0.67363 0.0
H1988 H 0.72638 0.43491 0.67209 0.0
H1989 H 0.7612 0.47974 0.65446 0.0
C1990 C 0.83831 0.46913 0.64365 0.0
C1991 C 0.87744 0.45829 0.63768 0.0
C1992 C 0.81781 0.44248 0.65352 0.0
C1993 C 0.89627 0.42052 0.64223 0.0
C1994 C 0.87706 0.39489 0.65272 0.0
C1995 C 0.81812 0.38056 0.66924 0.0
C1996 C 0.77836 0.39171 0.67469 0.0
C1997 C 0.83774 0.40557 0.65849 0.0
C1998 C 0.75771 0.42658 0.66863 0.0
C1999 C 0.77751 0.45221 0.65846 0.0
H2000 H 0.76251 0.56359 0.88476 0.0
H2001 H 0.84487 0.66991 0.88839 0.0
H2002 H 0.8845 0.63415 0.9075 0.0
H2003 H 0.89578 0.57198 0.92329 0.0
H2004 H 0.82165 0.46139 0.91578 0.0
H2005 H 0.77985 0.4988 0.8977 0.0
C2006 C 0.7898 0.57869 0.88937 0.0
C2007 C 0.80035 0.61964 0.88506 0.0
C2008 C 0.8141 0.55694 0.89969 0.0
C2009 C 0.83512 0.63892 0.89167 0.0
C2010 C 0.85825 0.61821 0.9025 0.0
C2011 C 0.87091 0.55592 0.91754 0.0
C2012 C 0.86093 0.51433 0.92128 0.0
C2013 C 0.84805 0.57713 0.90661 0.0
C2014 C 0.8289 0.49388 0.91356 0.0
C2015 C 0.80513 0.51517 0.90313 0.0
H2016 H 0.66268 0.57743 0.12672 0.0
H2017 H 0.59765 0.49776 0.15703 0.0
H2018 H 0.63411 0.53105 0.17751 0.0
H2019 H 0.68652 0.5815 0.18675 0.0
H2020 H 0.75071 0.66197 0.15646 0.0
H2021 H 0.71276 0.63006 0.13605 0.0
C2022 C 0.65626 0.56781 0.13785 0.0
C2023 C 0.62722 0.53558 0.14043 0.0
C2024 C 0.67737 0.58717 0.14955 0.0
C2025 C 0.61935 0.52299 0.15484 0.0
C2026 C 0.64041 0.54183 0.16652 0.0
C2027 C 0.69191 0.59211 0.17567 0.0
C2028 C 0.72112 0.6242 0.17309 0.0
C2029 C 0.66973 0.57374 0.16401 0.0
C2030 C 0.72797 0.6377 0.15871 0.0
C2031 C 0.70642 0.61932 0.14704 0.0
H2032 H 0.60255 0.42008 0.41956 0.0
H2033 H 0.68322 0.52826 0.41887 0.0
H2034 H 0.72736 0.49525 0.40061 0.0
H2035 H 0.74562 0.43419 0.38596 0.0
H2036 H 0.6567 0.33348 0.38169 0.0
H2037 H 0.61398 0.36423 0.40102 0.0
C2038 C 0.62927 0.43676 0.41522 0.0
C2039 C 0.64056 0.47586 0.42114 0.0
C2040 C 0.65354 0.41851 0.40401 0.0
C2041 C 0.67497 0.49721 0.41513 0.0
C2042 C 0.70013 0.47853 0.40456 0.0
C2043 C 0.71624 0.41945 0.3888 0.0
C2044 C 0.70497 0.38117 0.38234 0.0
C2045 C 0.69015 0.43888 0.39911 0.0
C2046 C 0.66726 0.36218 0.38673 0.0
C2047 C 0.64232 0.38013 0.39767 0.0
H2048 H 0.24431 0.57418 0.39056 0.0
H2049 H 0.15979 0.6796 0.38914 0.0
H2050 H 0.11775 0.64816 0.40857 0.0
H2051 H 0.10502 0.58956 0.42608 0.0
H2052 H 0.18185 0.47861 0.42278 0.0
H2053 H 0.22556 0.51241 0.40462 0.0
C2054 C 0.21599 0.58993 0.39406 0.0
C2055 C 0.2055 0.62934 0.38822 0.0
C2056 C 0.19032 0.57037 0.40444 0.0
C2057 C 0.16946 0.6497 0.39356 0.0
C2058 C 0.14496 0.63141 0.40457 0.0
C2059 C 0.13088 0.57257 0.42121 0.0
C2060 C 0.14111 0.53211 0.42631 0.0
C2061 C 0.15502 0.59157 0.4101 0.0
C2062 C 0.17438 0.51045 0.41964 0.0
C2063 C 0.19931 0.52964 0.40913 0.0
H2064 H 0.18519 0.50417 0.1367 0.0
H2065 H 0.08545 0.41384 0.13319 0.0
H2066 H 0.11617 0.37318 0.15302 0.0
H2067 H 0.17182 0.36329 0.1715 0.0
H2068 H 0.28017 0.44361 0.1701 0.0
H2069 H 0.24635 0.48743 0.15181 0.0
C2070 C 0.17063 0.47498 0.13989 0.0
C2071 C 0.13256 0.46269 0.13344 0.0
C2072 C 0.19016 0.44987 0.15052 0.0
C2073 C 0.11388 0.42521 0.1382 0.0
C2074 C 0.13182 0.40144 0.14944 0.0
C2075 C 0.18847 0.38984 0.16702 0.0
C2076 C 0.22793 0.40093 0.17269 0.0
C2077 C 0.17001 0.41348 0.1557 0.0
C2078 C 0.24889 0.43545 0.16658 0.0
C2079 C 0.22978 0.46033 0.15594 0.0
H2080 H 0.32927 0.4295 0.93819 0.0
H2081 H 0.40879 0.49674 0.90841 0.0
H2082 H 0.37622 0.46085 0.88766 0.0
H2083 H 0.32351 0.41134 0.87795 0.0
H2084 H 0.24581 0.34237 0.90781 0.0
H2085 H 0.27896 0.3777 0.92856 0.0
C2086 C 0.33958 0.43595 0.92714 0.0
C2087 C 0.37153 0.46541 0.92479 0.0
C2088 C 0.32089 0.41494 0.9153 0.0
C2089 C 0.38463 0.47373 0.91046 0.0
C2090 C 0.36585 0.4534 0.89861 0.0
C2091 C 0.31417 0.40399 0.88903 0.0
C2092 C 0.28254 0.37422 0.89142 0.0
C2093 C 0.33378 0.42409 0.90089 0.0
C2094 C 0.27043 0.36489 0.90577 0.0
C2095 C 0.28927 0.38518 0.91761 0.0
H2096 H 0.31926 0.58638 0.68296 0.0
H2097 H 0.2555 0.66554 0.65203 0.0
H2098 H 0.29304 0.63171 0.63187 0.0
H2099 H 0.34275 0.57792 0.623 0.0
H2100 H 0.40811 0.50023 0.65398 0.0
H2101 H 0.37158 0.53498 0.67418 0.0
C2102 C 0.31396 0.5963 0.67179 0.0
C2103 C 0.285 0.62849 0.66892 0.0
C2104 C 0.33595 0.57692 0.66031 0.0
C2105 C 0.27809 0.64114 0.65445 0.0
C2106 C 0.29938 0.62168 0.64295 0.0
C2107 C 0.34916 0.56903 0.63421 0.0
C2108 C 0.37821 0.53694 0.63709 0.0
C2109 C 0.32824 0.58939 0.64573 0.0
C2110 C 0.38622 0.52528 0.65158 0.0
C2111 C 0.3652 0.54498 0.6631 0.0
H2112 H 0.53054 0.17349 0.10587 0.0
H2113 H 0.39841 0.19795 0.10064 0.0
H2114 H 0.41081 0.27297 0.10249 0.0
H2115 H 0.45974 0.33228 0.10375 0.0
H2116 H 0.59208 0.30769 0.10792 0.0
H2117 H 0.57895 0.2326 0.10849 0.0
C2118 C 0.50442 0.1952 0.1053 0.0
C2119 C 0.46371 0.17998 0.10301 0.0
C2120 C 0.51177 0.23854 0.10613 0.0
C2121 C 0.43021 0.20869 0.10226 0.0
C2122 C 0.43721 0.25172 0.10333 0.0
C2123 C 0.48558 0.31048 0.10502 0.0
C2124 C 0.52678 0.32561 0.10571 0.0
C2125 C 0.47794 0.26709 0.10501 0.0
C2126 C 0.56002 0.2969 0.10724 0.0
C2127 C 0.55259 0.25387 0.10756 0.0
H2128 H 0.9523 0.32378 0.3508 0.0
H2129 H 0.90138 0.19871 0.3522 0.0
H2130 H 0.97178 0.16938 0.35315 0.0
H2131 H 0.04784 0.17871 0.35208 0.0
H2132 H 0.09944 0.30344 0.35137 0.0
H2133 H 0.02891 0.33326 0.35179 0.0
C2134 C 0.95661 0.29013 0.35142 0.0
C2135 C 0.92148 0.26356 0.3513 0.0
C2136 C 0.99736 0.2733 0.35205 0.0
C2137 C 0.92772 0.22 0.35227 0.0
C2138 C 0.96804 0.2031 0.35276 0.0
C2139 C 0.0437 0.21243 0.35213 0.0
C2140 C 0.07892 0.23874 0.35157 0.0
C2141 C 0.00308 0.22939 0.35243 0.0
C2142 C 0.07293 0.2824 0.35182 0.0
C2143 C 0.03256 0.29951 0.35199 0.0
H2144 H 0.92641 0.703 0.6066 0.0
H2145 H 0.05568 0.66345 0.60589 0.0
H2146 H 0.07826 0.73649 0.60615 0.0
H2147 H 0.06125 0.81166 0.60508 0.0
H2148 H 0.93202 0.85117 0.60661 0.0
H2149 H 0.90957 0.77815 0.60761 0.0
C2150 C 0.95954 0.71034 0.60662 0.0
C2151 C 0.98928 0.67772 0.60611 0.0
C2152 C 0.97234 0.75244 0.60685 0.0
C2153 C 0.03209 0.68785 0.6063 0.0
C2154 C 0.04505 0.72966 0.60638 0.0
C2155 C 0.02817 0.80431 0.60573 0.0
C2156 C 0.99836 0.83691 0.60564 0.0
C2157 C 0.01545 0.76221 0.60642 0.0
C2158 C 0.95566 0.82679 0.60667 0.0
C2159 C 0.94276 0.78499 0.60718 0.0
H2160 H 0.58836 0.78752 0.8549 0.0
H2161 H 0.57 0.65532 0.84765 0.0
H2162 H 0.49434 0.66544 0.84736 0.0
H2163 H 0.43323 0.71269 0.84729 0.0
H2164 H 0.45231 0.84523 0.85328 0.0
H2165 H 0.52731 0.83412 0.85602 0.0
C2166 C 0.56779 0.76087 0.85346 0.0
C2167 C 0.58488 0.72084 0.85124 0.0
C2168 C 0.52422 0.76699 0.85296 0.0
C2169 C 0.55772 0.68662 0.84928 0.0
C2170 C 0.51437 0.69232 0.84911 0.0
C2171 C 0.4538 0.73899 0.84939 0.0
C2172 C 0.43724 0.77973 0.84994 0.0
C2173 C 0.49724 0.73249 0.85065 0.0
C2174 C 0.46431 0.81359 0.85258 0.0
C2175 C 0.50727 0.80728 0.8542 0.0
H2176 H 0.58038 0.70084 0.45488 0.0
H2177 H 0.45326 0.65557 0.45661 0.0
H2178 H 0.42697 0.72725 0.45483 0.0
H2179 H 0.44007 0.80288 0.4543 0.0
H2180 H 0.56696 0.84844 0.45195 0.0
H2181 H 0.59331 0.77647 0.45227 0.0
C2182 C 0.54692 0.70664 0.45478 0.0
C2183 C 0.51885 0.67288 0.45603 0.0
C2184 C 0.53197 0.74796 0.45365 0.0
C2185 C 0.47557 0.68092 0.45568 0.0
C2186 C 0.46049 0.72193 0.4547 0.0
C2187 C 0.4735 0.7971 0.45374 0.0
C2188 C 0.50151 0.83104 0.45324 0.0
C2189 C 0.48841 0.7557 0.4539 0.0
C2190 C 0.54469 0.82293 0.45232 0.0
C2191 C 0.5598 0.78177 0.45258 0.0
H2192 H 0.57891 0.21829 0.71016 0.0
H2193 H 0.55422 0.35053 0.7056 0.0
H2194 H 0.47933 0.33693 0.70377 0.0
H2195 H 0.42018 0.28807 0.70521 0.0
H2196 H 0.44444 0.15622 0.71127 0.0
H2197 H 0.51966 0.16901 0.71069 0.0
C2198 C 0.55715 0.24401 0.70856 0.0
C2199 C 0.57219 0.28533 0.70805 0.0
C2200 C 0.51383 0.23609 0.70789 0.0
C2201 C 0.5435 0.3184 0.70612 0.0
C2202 C 0.5006 0.31069 0.70507 0.0
C2203 C 0.44192 0.26208 0.70622 0.0
C2204 C 0.42658 0.2213 0.70832 0.0
C2205 C 0.48529 0.26975 0.70621 0.0
C2206 C 0.4553 0.18802 0.70973 0.0
C2207 C 0.49841 0.19527 0.70939 0.0
H2208 H 0.06892 0.1859 0.95642 0.0
H2209 H 0.94394 0.1362 0.95228 0.0
H2210 H 0.91496 0.20686 0.95264 0.0
H2211 H 0.9246 0.28287 0.95524 0.0
H2212 H 0.04962 0.33297 0.95823 0.0
H2213 H 0.07889 0.26235 0.95716 0.0
C2214 C 0.03538 0.19057 0.9555 0.0
C2215 C 0.00872 0.1557 0.95441 0.0
C2216 C 0.0188 0.23145 0.95557 0.0
C2217 C 0.96531 0.16238 0.95309 0.0
C2218 C 0.9486 0.20284 0.95336 0.0
C2219 C 0.95825 0.27832 0.95559 0.0
C2220 C 0.9848 0.31316 0.95691 0.0
C2221 C 0.97498 0.2376 0.95477 0.0
C2222 C 0.0284 0.30674 0.95718 0.0
C2223 C 0.04521 0.26632 0.95662 0.0
H2224 H 0.92747 0.78795 0.20964 0.0
H2225 H 0.9533 0.65571 0.20595 0.0
H2226 H 0.02816 0.66961 0.20492 0.0
H2227 H 0.08686 0.71883 0.20683 0.0
H2228 H 0.06124 0.85096 0.21142 0.0
H2229 H 0.98627 0.83761 0.21022 0.0
C2230 C 0.94948 0.76227 0.20841 0.0
C2231 C 0.93474 0.72086 0.20801 0.0
C2232 C 0.99276 0.77041 0.20808 0.0
C2233 C 0.96375 0.68789 0.20648 0.0
C2234 C 0.00666 0.69578 0.20586 0.0
C2235 C 0.0649 0.74474 0.2074 0.0
C2236 C 0.0798 0.78574 0.20931 0.0
C2237 C 0.02161 0.73684 0.20694 0.0
C2238 C 0.05077 0.81896 0.21007 0.0
C2239 C 0.00777 0.81141 0.20938 0.0
H2240 H 0.53182 0.67094 0.95939 0.0
H2241 H 0.39924 0.69705 0.9587 0.0
H2242 H 0.4131 0.77186 0.95704 0.0
H2243 H 0.46284 0.83057 0.95765 0.0
H2244 H 0.59536 0.8043 0.95931 0.0
H2245 H 0.58155 0.7294 0.95858 0.0
C2246 C 0.50599 0.69296 0.95869 0.0
C2247 C 0.4646 0.67832 0.95931 0.0
C2248 C 0.51414 0.73618 0.95798 0.0
C2249 C 0.43147 0.7074 0.95844 0.0
C2250 C 0.43933 0.75029 0.95746 0.0
C2251 C 0.48866 0.80845 0.95764 0.0
C2252 C 0.52999 0.82311 0.95863 0.0
C2253 C 0.48053 0.76515 0.95751 0.0
C2254 C 0.56314 0.79395 0.95869 0.0
C2255 C 0.55533 0.751 0.95827 0.0
H2256 H 0.95095 0.82748 0.70677 0.0
H2257 H 0.90212 0.70239 0.7017 0.0
H2258 H 0.97313 0.67422 0.70092 0.0
H2259 H 0.04907 0.68451 0.70298 0.0
H2260 H 0.09825 0.80968 0.70715 0.0
H2261 H 0.02727 0.8383 0.70688 0.0
C2262 C 0.95586 0.79408 0.7054 0.0
C2263 C 0.92119 0.76711 0.70441 0.0
C2264 C 0.99688 0.77803 0.70484 0.0
C2265 C 0.92816 0.72395 0.70247 0.0
C2266 C 0.9688 0.70773 0.70208 0.0
C2267 C 0.04428 0.71808 0.70374 0.0
C2268 C 0.07895 0.74484 0.7052 0.0
C2269 C 0.00338 0.73439 0.70346 0.0
C2270 C 0.07217 0.78832 0.706 0.0
C2271 C 0.03154 0.80474 0.7059 0.0
H2272 H 0.94073 0.20049 0.45725 0.0
H2273 H 0.06781 0.15531 0.45375 0.0
H2274 H 0.09382 0.22703 0.4546 0.0
H2275 H 0.08093 0.30244 0.4577 0.0
H2276 H 0.95392 0.34812 0.46032 0.0
H2277 H 0.92758 0.27655 0.45837 0.0
C2278 C 0.9741 0.20634 0.45657 0.0
C2279 C 0.00223 0.1724 0.45555 0.0
C2280 C 0.98895 0.24782 0.45696 0.0
C2281 C 0.04536 0.1807 0.45452 0.0
C2282 C 0.06034 0.22177 0.45507 0.0
C2283 C 0.04747 0.29678 0.45776 0.0
C2284 C 0.0195 0.33066 0.45928 0.0
C2285 C 0.03248 0.25554 0.4565 0.0
C2286 C 0.9762 0.32272 0.45915 0.0
C2287 C 0.96109 0.28173 0.45809 0.0
H2288 H 0.54517 0.17856 0.20717 0.0
H2289 H 0.5968 0.30333 0.20558 0.0
H2290 H 0.52663 0.33314 0.20509 0.0
H2291 H 0.45064 0.32431 0.20648 0.0
H2292 H 0.39816 0.19998 0.20721 0.0
H2293 H 0.46847 0.1696 0.20654 0.0
C2294 C 0.54103 0.21224 0.20662 0.0
C2295 C 0.57627 0.23859 0.20653 0.0
C2296 C 0.50041 0.22935 0.20621 0.0
C2297 C 0.57033 0.28221 0.20565 0.0
C2298 C 0.53015 0.29939 0.20542 0.0
C2299 C 0.45457 0.29056 0.20639 0.0
C2300 C 0.41924 0.26448 0.20702 0.0
C2301 C 0.495 0.27332 0.20591 0.0
C2302 C 0.42484 0.22079 0.20671 0.0
C2303 C 0.46506 0.20338 0.2064 0.0
H2304 H 0.56139 0.19591 0.60197 0.0
H2305 H 0.43221 0.15727 0.60462 0.0
H2306 H 0.40988 0.23042 0.60531 0.0
H2307 H 0.42669 0.30516 0.60363 0.0
H2308 H 0.55582 0.34414 0.6016 0.0
H2309 H 0.57851 0.27099 0.60234 0.0
C2310 C 0.52836 0.20349 0.60279 0.0
C2311 C 0.4985 0.17114 0.6031 0.0
C2312 C 0.51572 0.24564 0.60326 0.0
C2313 C 0.45586 0.1815 0.60436 0.0
C2314 C 0.44304 0.22335 0.6047 0.0
C2315 C 0.45983 0.29769 0.60345 0.0
C2316 C 0.4895 0.33007 0.60241 0.0
C2317 C 0.47264 0.25563 0.60393 0.0
C2318 C 0.53233 0.31985 0.6024 0.0
C2319 C 0.54532 0.27801 0.60275 0.0
H2320 H 0.42169 0.78808 0.35632 0.0
H2321 H 0.44509 0.65504 0.3545 0.0
H2322 H 0.52041 0.66744 0.35497 0.0
H2323 H 0.57997 0.71633 0.35395 0.0
H2324 H 0.55591 0.84936 0.35452 0.0
H2325 H 0.48102 0.83667 0.3566 0.0
C2326 C 0.44325 0.76178 0.35624 0.0
C2327 C 0.42767 0.72076 0.35531 0.0
C2328 C 0.48664 0.76912 0.35619 0.0
C2329 C 0.45616 0.68703 0.35511 0.0
C2330 C 0.49932 0.69405 0.35537 0.0
C2331 C 0.55835 0.74247 0.35475 0.0
C2332 C 0.57359 0.78368 0.354 0.0
C2333 C 0.51498 0.735 0.35562 0.0
C2334 C 0.54507 0.81726 0.35494 0.0
C2335 C 0.50214 0.81009 0.35613 0.0
H2336 H 0.9257 0.79698 0.09744 0.0
H2337 H 0.04994 0.84901 0.10057 0.0
H2338 H 0.0801 0.77877 0.10073 0.0
H2339 H 0.07153 0.70234 0.09903 0.0
H2340 H 0.9471 0.6503 0.09704 0.0
H2341 H 0.9169 0.72049 0.09746 0.0
C2342 C 0.95936 0.79292 0.09822 0.0
C2343 C 0.98546 0.82825 0.0989 0.0
C2344 C 0.97658 0.75234 0.09849 0.0
C2345 C 0.02902 0.8224 0.10007 0.0
C2346 C 0.04638 0.7822 0.10011 0.0
C2347 C 0.03782 0.70638 0.09875 0.0
C2348 C 0.01171 0.67107 0.09792 0.0
C2349 C 0.02051 0.74692 0.09917 0.0
C2350 C 0.96802 0.67688 0.09772 0.0
C2351 C 0.95065 0.71706 0.09791 0.0
H2352 H 0.04957 0.32422 0.85323 0.0
H2353 H 0.09586 0.19731 0.85587 0.0
H2354 H 0.02442 0.17086 0.8564 0.0
H2355 H 0.94861 0.18324 0.85501 0.0
H2356 H 0.90183 0.31003 0.85335 0.0
H2357 H 0.97335 0.33684 0.85366 0.0
C2358 C 0.044 0.2908 0.854 0.0
C2359 C 0.07816 0.26287 0.85441 0.0
C2360 C 0.00265 0.27566 0.85446 0.0
C2361 C 0.07029 0.21964 0.85556 0.0
C2362 C 0.02937 0.20438 0.85582 0.0
C2363 C 0.95404 0.21675 0.85481 0.0
C2364 C 0.91983 0.2445 0.85406 0.0
C2365 C 0.99529 0.23204 0.85511 0.0
C2366 C 0.92751 0.28788 0.85396 0.0
C2367 C 0.96846 0.30329 0.85407 0.0
loop_
_geom_bond_atom_site_label_1
_geom_bond_atom_site_label_2
_geom_bond_distance
_geom_bond_site_symmetry_2
_ccdc_geom_bond_type
Co0 O3 1.970 . S
Co0 N17 1.989 1_545 S
Co0 O25 1.967 . S
Co0 O32 1.920 . S
Co1 O4 1.966 . S
Co1 N10 2.022 . S
Co1 N18 1.993 1_545 S
Co1 O26 1.941 . S
C2 O3 1.258 . S
C2 O4 1.263 . S
O3 Co0 1.970 . S
O3 C2 1.258 . S
O4 Co1 1.966 . S
O4 C2 1.263 . S
C5 O6 1.235 . S
C5 O32 1.289 1_565 S
O6 C5 1.235 . S
C7 C9 1.400 . S
C7 N10 1.351 . S
C7 C12 1.501 1_545 S
C8 C9 1.387 . S
C8 N11 1.341 . S
C9 C7 1.400 . S
C9 C8 1.387 . S
N10 Co1 2.022 . S
N10 C7 1.351 . S
N10 N11 1.365 . S
N11 C8 1.341 . S
N11 N10 1.365 . S
N11 H31 0.862 . S
C12 C7 1.501 1_565 S
C12 H13 0.960 1_565 S
C12 H14 0.961 . S
C12 H15 0.960 1_565 S
H13 C12 0.960 1_545 S
H14 C12 0.961 . S
H15 C12 0.960 1_545 S
C16 N17 1.342 . S
C16 C20 1.401 . S
C16 C21 1.499 . S
N17 Co0 1.989 1_565 S
N17 C16 1.342 . S
N17 N18 1.388 . S
N18 Co1 1.993 1_565 S
N18 N17 1.388 . S
N18 C19 1.346 . S
C19 N18 1.346 . S
C19 C20 1.396 . S
C19 C29 1.510 . S
C20 C16 1.401 . S
C20 C19 1.396 . S
C21 C16 1.499 . S
C21 H22 0.959 . S
C21 H23 0.960 . S
C21 H24 0.961 . S
H22 C21 0.959 . S
H23 C21 0.960 . S
H24 C21 0.961 . S
O25 Co0 1.967 . S
O25 C33 1.258 . S
O26 Co1 1.941 . S
O26 C33 1.266 . S
H27 C29 0.959 . S
H28 C29 0.961 . S
C29 C19 1.510 . S
C29 H27 0.959 . S
C29 H28 0.961 . S
C29 H30 0.960 . S
H30 C29 0.960 . S
H31 N11 0.862 . S
O32 Co0 1.920 . S
O32 C5 1.289 1_545 S
C33 O25 1.258 . S
C33 O26 1.266 . S
Co34 O37 1.970 . S
Co34 N51 1.989 . S
Co34 O59 1.967 . S
Co34 O66 1.920 . S
Co35 O38 1.966 . S
Co35 N44 2.022 . S
Co35 N52 1.993 . S
Co35 O60 1.941 . S
C36 O37 1.258 . S
C36 O38 1.263 . S
O37 Co34 1.970 . S
O37 C36 1.258 . S
O38 Co35 1.966 . S
O38 C36 1.263 . S
C39 O40 1.235 . S
C39 O66 1.289 . S
O40 C39 1.235 . S
C41 C43 1.400 . S
C41 N44 1.351 . S
C41 C46 1.501 . S
C42 C43 1.387 . S
C42 N45 1.341 . S
C43 C41 1.400 . S
C43 C42 1.387 . S
N44 Co35 2.022 . S
N44 C41 1.351 . S
N44 N45 1.365 . S
N45 C42 1.341 . S
N45 N44 1.365 . S
N45 H65 0.862 . S
C46 C41 1.501 . S
C46 H47 0.961 . S
C46 H48 0.961 . S
C46 H49 0.960 . S
H47 C46 0.961 . S
H48 C46 0.961 . S
H49 C46 0.960 . S
C50 N51 1.342 . S
C50 C54 1.401 . S
C50 C55 1.499 . S
N51 Co34 1.989 . S
N51 C50 1.342 . S
N51 N52 1.388 . S
N52 Co35 1.993 . S
N52 N51 1.388 . S
N52 C53 1.346 . S
C53 N52 1.346 . S
C53 C54 1.396 . S
C53 C63 1.510 . S
C54 C50 1.401 . S
C54 C53 1.396 . S
C55 C50 1.499 . S
C55 H56 0.959 . S
C55 H57 0.960 . S
C55 H58 0.961 . S
H56 C55 0.959 . S
H57 C55 0.960 . S
H58 C55 0.961 . S
O59 Co34 1.967 . S
O59 C67 1.258 . S
O60 Co35 1.941 . S
O60 C67 1.266 . S
H61 C63 0.959 . S
H62 C63 0.961 . S
C63 C53 1.510 . S
C63 H61 0.959 . S
C63 H62 0.961 . S
C63 H64 0.960 . S
H64 C63 0.960 . S
H65 N45 0.862 . S
O66 Co34 1.920 . S
O66 C39 1.289 . S
C67 O59 1.258 . S
C67 O60 1.266 . S
Co68 O71 1.970 . S
Co68 N85 1.989 1_665 S
Co68 O93 1.968 . S
Co68 O100 1.920 . S
Co69 O72 1.966 . S
Co69 N78 2.022 . S
Co69 N86 1.993 1_565 S
Co69 O94 1.941 . S
C70 O71 1.258 1_455 S
C70 O72 1.263 . S
O71 Co68 1.970 . S
O71 C70 1.258 1_655 S
O72 Co69 1.966 . S
O72 C70 1.263 . S
C73 O74 1.235 . S
C73 O100 1.289 1_545 S
O74 C73 1.235 . S
C75 C77 1.400 . S
C75 N78 1.351 . S
C75 C80 1.501 1_565 S
C76 C77 1.387 . S
C76 N79 1.341 . S
C77 C75 1.400 . S
C77 C76 1.387 . S
N78 Co69 2.022 . S
N78 C75 1.351 . S
N78 N79 1.365 . S
N79 C76 1.341 . S
N79 N78 1.365 . S
N79 H99 0.862 . S
C80 C75 1.501 1_545 S
C80 H81 0.960 1_545 S
C80 H82 0.961 . S
C80 H83 0.960 1_545 S
H81 C80 0.960 1_565 S
H82 C80 0.961 . S
H83 C80 0.960 1_565 S
C84 N85 1.342 . S
C84 C88 1.401 . S
C84 C89 1.499 1_455 S
N85 Co68 1.989 1_445 S
N85 C84 1.342 . S
N85 N86 1.388 . S
N86 Co69 1.993 1_545 S
N86 N85 1.388 . S
N86 C87 1.346 . S
C87 N86 1.346 . S
C87 C88 1.396 . S
C87 C97 1.510 . S
C88 C84 1.401 . S
C88 C87 1.396 . S
C89 C84 1.499 1_655 S
C89 H90 0.959 . S
C89 H91 0.960 . S
C89 H92 0.961 . S
H90 C89 0.959 . S
H91 C89 0.960 . S
H92 C89 0.961 . S
O93 Co68 1.968 . S
O93 C101 1.250 1_655 S
O94 Co69 1.941 . S
O94 C101 1.266 . S
H95 C97 0.959 . S
H96 C97 0.961 . S
C97 C87 1.510 . S
C97 H95 0.959 . S
C97 H96 0.961 . S
C97 H98 0.960 . S
H98 C97 0.960 . S
H99 N79 0.862 . S
O100 Co68 1.920 . S
O100 C73 1.289 1_565 S
C101 O93 1.250 1_455 S
C101 O94 1.266 . S
Co102 O105 1.970 . S
Co102 N119 1.989 . S
Co102 O127 1.967 . S
Co102 O134 1.920 . S
Co103 O106 1.966 . S
Co103 N112 2.022 . S
Co103 N120 1.993 . S
Co103 O128 1.941 . S
C104 O105 1.258 . S
C104 O106 1.263 . S
O105 Co102 1.970 . S
O105 C104 1.258 . S
O106 Co103 1.966 . S
O106 C104 1.263 . S
C107 O108 1.235 . S
C107 O134 1.289 . S
O108 C107 1.235 . S
C109 C111 1.400 . S
C109 N112 1.351 . S
C109 C114 1.501 . S
C110 C111 1.387 . S
C110 N113 1.341 . S
C111 C109 1.400 . S
C111 C110 1.387 . S
N112 Co103 2.022 . S
N112 C109 1.351 . S
N112 N113 1.365 . S
N113 C110 1.341 . S
N113 N112 1.365 . S
N113 H133 0.862 . S
C114 C109 1.501 . S
C114 H115 0.961 . S
C114 H116 0.961 . S
C114 H117 0.960 . S
H115 C114 0.961 . S
H116 C114 0.961 . S
H117 C114 0.960 . S
C118 N119 1.342 . S
C118 C122 1.401 . S
C118 C123 1.499 . S
N119 Co102 1.989 . S
N119 C118 1.342 . S
N119 N120 1.388 . S
N120 Co103 1.993 . S
N120 N119 1.388 . S
N120 C121 1.346 . S
C121 N120 1.346 . S
C121 C122 1.396 . S
C121 C131 1.510 . S
C122 C118 1.401 . S
C122 C121 1.396 . S
C123 C118 1.499 . S
C123 H124 0.959 . S
C123 H125 0.960 . S
C123 H126 0.961 . S
H124 C123 0.959 . S
H125 C123 0.960 . S
H126 C123 0.961 . S
O127 Co102 1.967 . S
O127 C135 1.258 . S
O128 Co103 1.941 . S
O128 C135 1.266 . S
H129 C131 0.959 . S
H130 C131 0.961 . S
C131 C121 1.510 . S
C131 H129 0.959 . S
C131 H130 0.961 . S
C131 H132 0.960 . S
H132 C131 0.960 . S
H133 N113 0.862 . S
O134 Co102 1.920 . S
O134 C107 1.289 . S
C135 O127 1.258 . S
C135 O128 1.266 . S
Co136 O139 1.970 . S
Co136 N153 1.989 1_565 S
Co136 O161 1.967 . S
Co136 O168 1.920 . S
Co137 O140 1.966 . S
Co137 N146 2.022 . S
Co137 N154 1.993 1_565 S
Co137 O162 1.941 . S
C138 O139 1.258 . S
C138 O140 1.263 . S
O139 Co136 1.970 . S
O139 C138 1.258 . S
O140 Co137 1.966 . S
O140 C138 1.263 . S
C141 O142 1.235 . S
C141 O168 1.289 1_545 S
O142 C141 1.235 . S
C143 C145 1.400 . S
C143 N146 1.351 . S
C143 C148 1.501 1_565 S
C144 C145 1.387 . S
C144 N147 1.341 . S
C145 C143 1.400 . S
C145 C144 1.387 . S
N146 Co137 2.022 . S
N146 C143 1.351 . S
N146 N147 1.365 . S
N147 C144 1.341 . S
N147 N146 1.365 . S
N147 H167 0.862 . S
C148 C143 1.501 1_545 S
C148 H149 0.960 1_545 S
C148 H150 0.961 . S
C148 H151 0.960 1_545 S
H149 C148 0.960 1_565 S
H150 C148 0.961 . S
H151 C148 0.960 1_565 S
C152 N153 1.342 . S
C152 C156 1.401 . S
C152 C157 1.499 . S
N153 Co136 1.989 1_545 S
N153 C152 1.342 . S
N153 N154 1.388 . S
N154 Co137 1.993 1_545 S
N154 N153 1.388 . S
N154 C155 1.346 . S
C155 N154 1.346 . S
C155 C156 1.396 . S
C155 C165 1.510 . S
C156 C152 1.401 . S
C156 C155 1.396 . S
C157 C152 1.499 . S
C157 H158 0.959 . S
C157 H159 0.960 . S
C157 H160 0.961 . S
H158 C157 0.959 . S
H159 C157 0.960 . S
H160 C157 0.961 . S
O161 Co136 1.967 . S
O161 C169 1.258 . S
O162 Co137 1.941 . S
O162 C169 1.266 . S
H163 C165 0.959 . S
H164 C165 0.961 . S
C165 C155 1.510 . S
C165 H163 0.959 . S
C165 H164 0.961 . S
C165 H166 0.960 . S
H166 C165 0.960 . S
H167 N147 0.862 . S
O168 Co136 1.920 . S
O168 C141 1.289 1_565 S
C169 O161 1.258 . S
C169 O162 1.266 . S
Co170 O173 1.970 . S
Co170 N187 1.989 . S
Co170 O195 1.967 . S
Co170 O202 1.920 . S
Co171 O174 1.966 . S
Co171 N180 2.022 . S
Co171 N188 1.993 . S
Co171 O196 1.941 . S
C172 O173 1.258 . S
C172 O174 1.263 . S
O173 Co170 1.970 . S
O173 C172 1.258 . S
O174 Co171 1.966 . S
O174 C172 1.263 . S
C175 O176 1.235 . S
C175 O202 1.289 . S
O176 C175 1.235 . S
C177 C179 1.400 . S
C177 N180 1.351 . S
C177 C182 1.501 . S
C178 C179 1.387 . S
C178 N181 1.341 . S
C179 C177 1.400 . S
C179 C178 1.387 . S
N180 Co171 2.022 . S
N180 C177 1.351 . S
N180 N181 1.365 . S
N181 C178 1.341 . S
N181 N180 1.365 . S
N181 H201 0.862 . S
C182 C177 1.501 . S
C182 H183 0.961 . S
C182 H184 0.961 . S
C182 H185 0.960 . S
H183 C182 0.961 . S
H184 C182 0.961 . S
H185 C182 0.960 . S
C186 N187 1.342 . S
C186 C190 1.401 . S
C186 C191 1.499 . S
N187 Co170 1.989 . S
N187 C186 1.342 . S
N187 N188 1.388 . S
N188 Co171 1.993 . S
N188 N187 1.388 . S
N188 C189 1.346 . S
C189 N188 1.346 . S
C189 C190 1.396 . S
C189 C199 1.510 . S
C190 C186 1.401 . S
C190 C189 1.396 . S
C191 C186 1.499 . S
C191 H192 0.959 . S
C191 H193 0.960 . S
C191 H194 0.961 . S
H192 C191 0.959 . S
H193 C191 0.960 . S
H194 C191 0.961 . S
O195 Co170 1.967 . S
O195 C203 1.258 . S
O196 Co171 1.941 . S
O196 C203 1.266 . S
H197 C199 0.959 . S
H198 C199 0.961 . S
C199 C189 1.510 . S
C199 H197 0.959 . S
C199 H198 0.961 . S
C199 H200 0.960 . S
H200 C199 0.960 . S
H201 N181 0.862 . S
O202 Co170 1.920 . S
O202 C175 1.289 . S
C203 O195 1.258 . S
C203 O196 1.266 . S
Co204 O207 1.970 . S
Co204 N221 1.989 1_645 S
Co204 O229 1.968 . S
Co204 O236 1.920 . S
Co205 O208 1.966 . S
Co205 N214 2.022 . S
Co205 N222 1.993 1_545 S
Co205 O230 1.941 . S
C206 O207 1.258 1_455 S
C206 O208 1.263 . S
O207 Co204 1.970 . S
O207 C206 1.258 1_655 S
O208 Co205 1.966 . S
O208 C206 1.263 . S
C209 O210 1.235 . S
C209 O236 1.289 1_565 S
O210 C209 1.235 . S
C211 C213 1.400 . S
C211 N214 1.351 . S
C211 C216 1.501 1_545 S
C212 C213 1.387 . S
C212 N215 1.341 . S
C213 C211 1.400 . S
C213 C212 1.387 . S
N214 Co205 2.022 . S
N214 C211 1.351 . S
N214 N215 1.365 . S
N215 C212 1.341 . S
N215 N214 1.365 . S
N215 H235 0.862 . S
C216 C211 1.501 1_565 S
C216 H217 0.960 1_565 S
C216 H218 0.961 . S
C216 H219 0.960 1_565 S
H217 C216 0.960 1_545 S
H218 C216 0.961 . S
H219 C216 0.960 1_545 S
C220 N221 1.342 . S
C220 C224 1.401 . S
C220 C225 1.499 1_455 S
N221 Co204 1.989 1_465 S
N221 C220 1.342 . S
N221 N222 1.388 . S
N222 Co205 1.993 1_565 S
N222 N221 1.388 . S
N222 C223 1.346 . S
C223 N222 1.346 . S
C223 C224 1.396 . S
C223 C233 1.510 . S
C224 C220 1.401 . S
C224 C223 1.396 . S
C225 C220 1.499 1_655 S
C225 H226 0.959 . S
C225 H227 0.960 . S
C225 H228 0.961 . S
H226 C225 0.959 . S
H227 C225 0.960 . S
H228 C225 0.961 . S
O229 Co204 1.968 . S
O229 C237 1.250 1_655 S
O230 Co205 1.941 . S
O230 C237 1.266 . S
H231 C233 0.959 . S
H232 C233 0.961 . S
C233 C223 1.510 . S
C233 H231 0.959 . S
C233 H232 0.961 . S
C233 H234 0.960 . S
H234 C233 0.960 . S
H235 N215 0.862 . S
O236 Co204 1.920 . S
O236 C209 1.289 1_545 S
C237 O229 1.250 1_455 S
C237 O230 1.266 . S
Co238 O241 1.970 . S
Co238 N255 1.989 . S
Co238 O263 1.967 . S
Co238 O270 1.920 . S
Co239 O242 1.966 . S
Co239 N248 2.022 . S
Co239 N256 1.993 . S
Co239 O264 1.941 . S
C240 O241 1.258 . S
C240 O242 1.263 . S
O241 Co238 1.970 . S
O241 C240 1.258 . S
O242 Co239 1.966 . S
O242 C240 1.263 . S
C243 O244 1.235 . S
C243 O270 1.289 . S
O244 C243 1.235 . S
C245 C247 1.400 . S
C245 N248 1.351 . S
C245 C250 1.501 . S
C246 C247 1.387 . S
C246 N249 1.341 . S
C247 C245 1.400 . S
C247 C246 1.387 . S
N248 Co239 2.022 . S
N248 C245 1.351 . S
N248 N249 1.365 . S
N249 C246 1.341 . S
N249 N248 1.365 . S
N249 H269 0.862 . S
C250 C245 1.501 . S
C250 H251 0.961 . S
C250 H252 0.961 . S
C250 H253 0.960 . S
H251 C250 0.961 . S
H252 C250 0.961 . S
H253 C250 0.960 . S
C254 N255 1.342 . S
C254 C258 1.401 . S
C254 C259 1.499 . S
N255 Co238 1.989 . S
N255 C254 1.342 . S
N255 N256 1.388 . S
N256 Co239 1.993 . S
N256 N255 1.388 . S
N256 C257 1.346 . S
C257 N256 1.346 . S
C257 C258 1.396 . S
C257 C267 1.510 . S
C258 C254 1.401 . S
C258 C257 1.396 . S
C259 C254 1.499 . S
C259 H260 0.959 . S
C259 H261 0.960 . S
C259 H262 0.961 . S
H260 C259 0.959 . S
H261 C259 0.960 . S
H262 C259 0.961 . S
O263 Co238 1.967 . S
O263 C271 1.258 . S
O264 Co239 1.941 . S
O264 C271 1.266 . S
H265 C267 0.959 . S
H266 C267 0.961 . S
C267 C257 1.510 . S
C267 H265 0.959 . S
C267 H266 0.961 . S
C267 H268 0.960 . S
H268 C267 0.960 . S
H269 N249 0.862 . S
O270 Co238 1.920 . S
O270 C243 1.289 . S
C271 O263 1.258 . S
C271 O264 1.266 . S
Co272 O275 1.970 . S
Co272 N289 1.989 1_565 S
Co272 O297 1.967 . S
Co272 O304 1.920 . S
Co273 O276 1.966 . S
Co273 N282 2.022 . S
Co273 N290 1.993 1_565 S
Co273 O298 1.941 . S
C274 O275 1.258 . S
C274 O276 1.263 . S
O275 Co272 1.970 . S
O275 C274 1.258 . S
O276 Co273 1.966 . S
O276 C274 1.263 . S
C277 O278 1.235 . S
C277 O304 1.289 1_545 S
O278 C277 1.235 . S
C279 C281 1.400 . S
C279 N282 1.351 . S
C279 C284 1.501 1_565 S
C280 C281 1.387 . S
C280 N283 1.341 . S
C281 C279 1.400 . S
C281 C280 1.387 . S
N282 Co273 2.022 . S
N282 C279 1.351 . S
N282 N283 1.365 . S
N283 C280 1.341 . S
N283 N282 1.365 . S
N283 H303 0.862 . S
C284 C279 1.501 1_545 S
C284 H285 0.960 1_545 S
C284 H286 0.961 . S
C284 H287 0.960 1_545 S
H285 C284 0.960 1_565 S
H286 C284 0.961 . S
H287 C284 0.960 1_565 S
C288 N289 1.342 . S
C288 C292 1.401 . S
C288 C293 1.499 . S
N289 Co272 1.989 1_545 S
N289 C288 1.342 . S
N289 N290 1.388 . S
N290 Co273 1.993 1_545 S
N290 N289 1.388 . S
N290 C291 1.346 . S
C291 N290 1.346 . S
C291 C292 1.396 . S
C291 C301 1.510 . S
C292 C288 1.401 . S
C292 C291 1.396 . S
C293 C288 1.499 . S
C293 H294 0.959 . S
C293 H295 0.960 . S
C293 H296 0.961 . S
H294 C293 0.959 . S
H295 C293 0.960 . S
H296 C293 0.961 . S
O297 Co272 1.967 . S
O297 C305 1.258 . S
O298 Co273 1.941 . S
O298 C305 1.266 . S
H299 C301 0.959 . S
H300 C301 0.961 . S
C301 C291 1.510 . S
C301 H299 0.959 . S
C301 H300 0.961 . S
C301 H302 0.960 . S
H302 C301 0.960 . S
H303 N283 0.862 . S
O304 Co272 1.920 . S
O304 C277 1.289 1_565 S
C305 O297 1.258 . S
C305 O298 1.266 . S
Co306 O309 1.970 . S
Co306 N323 1.989 . S
Co306 O331 1.967 . S
Co306 O338 1.920 . S
Co307 O310 1.966 . S
Co307 N316 2.022 . S
Co307 N324 1.993 . S
Co307 O332 1.941 . S
C308 O309 1.258 . S
C308 O310 1.263 . S
O309 Co306 1.970 . S
O309 C308 1.258 . S
O310 Co307 1.966 . S
O310 C308 1.263 . S
C311 O312 1.235 . S
C311 O338 1.289 . S
O312 C311 1.235 . S
C313 C315 1.400 . S
C313 N316 1.351 . S
C313 C318 1.501 . S
C314 C315 1.387 . S
C314 N317 1.341 . S
C315 C313 1.400 . S
C315 C314 1.387 . S
N316 Co307 2.022 . S
N316 C313 1.351 . S
N316 N317 1.365 . S
N317 C314 1.341 . S
N317 N316 1.365 . S
N317 H337 0.862 . S
C318 C313 1.501 . S
C318 H319 0.961 . S
C318 H320 0.961 . S
C318 H321 0.960 . S
H319 C318 0.961 . S
H320 C318 0.961 . S
H321 C318 0.960 . S
C322 N323 1.342 . S
C322 C326 1.401 . S
C322 C327 1.499 . S
N323 Co306 1.989 . S
N323 C322 1.342 . S
N323 N324 1.388 . S
N324 Co307 1.993 . S
N324 N323 1.388 . S
N324 C325 1.346 . S
C325 N324 1.346 . S
C325 C326 1.396 . S
C325 C335 1.510 . S
C326 C322 1.401 . S
C326 C325 1.396 . S
C327 C322 1.499 . S
C327 H328 0.959 . S
C327 H329 0.960 . S
C327 H330 0.961 . S
H328 C327 0.959 . S
H329 C327 0.960 . S
H330 C327 0.961 . S
O331 Co306 1.967 . S
O331 C339 1.258 . S
O332 Co307 1.941 . S
O332 C339 1.266 . S
H333 C335 0.959 . S
H334 C335 0.961 . S
C335 C325 1.510 . S
C335 H333 0.959 . S
C335 H334 0.961 . S
C335 H336 0.960 . S
H336 C335 0.960 . S
H337 N317 0.862 . S
O338 Co306 1.920 . S
O338 C311 1.289 . S
C339 O331 1.258 . S
C339 O332 1.266 . S
Co340 O343 1.970 . S
Co340 N357 1.989 1_445 S
Co340 O365 1.968 . S
Co340 O372 1.920 . S
Co341 O344 1.966 . S
Co341 N350 2.022 . S
Co341 N358 1.993 1_545 S
Co341 O366 1.941 . S
C342 O343 1.258 1_655 S
C342 O344 1.263 . S
O343 Co340 1.970 . S
O343 C342 1.258 1_455 S
O344 Co341 1.966 . S
O344 C342 1.263 . S
C345 O346 1.235 . S
C345 O372 1.289 1_565 S
O346 C345 1.235 . S
C347 C349 1.400 . S
C347 N350 1.351 . S
C347 C352 1.501 1_545 S
C348 C349 1.387 . S
C348 N351 1.341 . S
C349 C347 1.400 . S
C349 C348 1.387 . S
N350 Co341 2.022 . S
N350 C347 1.351 . S
N350 N351 1.365 . S
N351 C348 1.341 . S
N351 N350 1.365 . S
N351 H371 0.862 . S
C352 C347 1.501 1_565 S
C352 H353 0.960 1_565 S
C352 H354 0.961 . S
C352 H355 0.960 1_565 S
H353 C352 0.960 1_545 S
H354 C352 0.961 . S
H355 C352 0.960 1_545 S
C356 N357 1.342 . S
C356 C360 1.401 . S
C356 C361 1.499 1_655 S
N357 Co340 1.989 1_665 S
N357 C356 1.342 . S
N357 N358 1.388 . S
N358 Co341 1.993 1_565 S
N358 N357 1.388 . S
N358 C359 1.346 . S
C359 N358 1.346 . S
C359 C360 1.396 . S
C359 C369 1.510 . S
C360 C356 1.401 . S
C360 C359 1.396 . S
C361 C356 1.499 1_455 S
C361 H362 0.959 . S
C361 H363 0.960 . S
C361 H364 0.961 . S
H362 C361 0.959 . S
H363 C361 0.960 . S
H364 C361 0.961 . S
O365 Co340 1.968 . S
O365 C373 1.250 1_455 S
O366 Co341 1.941 . S
O366 C373 1.266 . S
H367 C369 0.959 . S
H368 C369 0.961 . S
C369 C359 1.510 . S
C369 H367 0.959 . S
C369 H368 0.961 . S
C369 H370 0.960 . S
H370 C369 0.960 . S
H371 N351 0.862 . S
O372 Co340 1.920 . S
O372 C345 1.289 1_545 S
C373 O365 1.250 1_655 S
C373 O366 1.266 . S
Co374 O377 1.970 . S
Co374 N391 1.989 . S
Co374 O399 1.967 . S
Co374 O406 1.920 . S
Co375 O378 1.966 . S
Co375 N384 2.022 . S
Co375 N392 1.993 . S
Co375 O400 1.941 . S
C376 O377 1.258 . S
C376 O378 1.263 . S
O377 Co374 1.970 . S
O377 C376 1.258 . S
O378 Co375 1.966 . S
O378 C376 1.263 . S
C379 O380 1.235 . S
C379 O406 1.289 . S
O380 C379 1.235 . S
C381 C383 1.400 . S
C381 N384 1.351 . S
C381 C386 1.501 . S
C382 C383 1.387 . S
C382 N385 1.341 . S
C383 C381 1.400 . S
C383 C382 1.387 . S
N384 Co375 2.022 . S
N384 C381 1.351 . S
N384 N385 1.365 . S
N385 C382 1.341 . S
N385 N384 1.365 . S
N385 H405 0.862 . S
C386 C381 1.501 . S
C386 H387 0.961 . S
C386 H388 0.961 . S
C386 H389 0.960 . S
H387 C386 0.961 . S
H388 C386 0.961 . S
H389 C386 0.960 . S
C390 N391 1.342 . S
C390 C394 1.401 . S
C390 C395 1.499 . S
N391 Co374 1.989 . S
N391 C390 1.342 . S
N391 N392 1.388 . S
N392 Co375 1.993 . S
N392 N391 1.388 . S
N392 C393 1.346 . S
C393 N392 1.346 . S
C393 C394 1.396 . S
C393 C403 1.510 . S
C394 C390 1.401 . S
C394 C393 1.396 . S
C395 C390 1.499 . S
C395 H396 0.959 . S
C395 H397 0.960 . S
C395 H398 0.961 . S
H396 C395 0.959 . S
H397 C395 0.960 . S
H398 C395 0.961 . S
O399 Co374 1.967 . S
O399 C407 1.258 . S
O400 Co375 1.941 . S
O400 C407 1.266 . S
H401 C403 0.959 . S
H402 C403 0.961 . S
C403 C393 1.510 . S
C403 H401 0.959 . S
C403 H402 0.961 . S
C403 H404 0.960 . S
H404 C403 0.960 . S
H405 N385 0.862 . S
O406 Co374 1.920 . S
O406 C379 1.289 . S
C407 O399 1.258 . S
C407 O400 1.266 . S
Co408 O411 1.970 . S
Co408 N425 1.989 1_545 S
Co408 O433 1.967 . S
Co408 O440 1.920 . S
Co409 O412 1.966 . S
Co409 N418 2.022 . S
Co409 N426 1.993 1_545 S
Co409 O434 1.941 . S
C410 O411 1.258 . S
C410 O412 1.263 . S
O411 Co408 1.970 . S
O411 C410 1.258 . S
O412 Co409 1.966 . S
O412 C410 1.263 . S
C413 O414 1.235 . S
C413 O440 1.289 1_565 S
O414 C413 1.235 . S
C415 C417 1.400 . S
C415 N418 1.351 . S
C415 C420 1.501 1_545 S
C416 C417 1.387 . S
C416 N419 1.341 . S
C417 C415 1.400 . S
C417 C416 1.387 . S
N418 Co409 2.022 . S
N418 C415 1.351 . S
N418 N419 1.365 . S
N419 C416 1.341 . S
N419 N418 1.365 . S
N419 H439 0.862 . S
C420 C415 1.501 1_565 S
C420 H421 0.960 1_565 S
C420 H422 0.961 . S
C420 H423 0.960 1_565 S
H421 C420 0.960 1_545 S
H422 C420 0.961 . S
H423 C420 0.960 1_545 S
C424 N425 1.342 . S
C424 C428 1.401 . S
C424 C429 1.499 . S
N425 Co408 1.989 1_565 S
N425 C424 1.342 . S
N425 N426 1.388 . S
N426 Co409 1.993 1_565 S
N426 N425 1.388 . S
N426 C427 1.346 . S
C427 N426 1.346 . S
C427 C428 1.396 . S
C427 C437 1.510 . S
C428 C424 1.401 . S
C428 C427 1.396 . S
C429 C424 1.499 . S
C429 H430 0.959 . S
C429 H431 0.960 . S
C429 H432 0.961 . S
H430 C429 0.959 . S
H431 C429 0.960 . S
H432 C429 0.961 . S
O433 Co408 1.967 . S
O433 C441 1.258 . S
O434 Co409 1.941 . S
O434 C441 1.266 . S
H435 C437 0.959 . S
H436 C437 0.961 . S
C437 C427 1.510 . S
C437 H435 0.959 . S
C437 H436 0.961 . S
C437 H438 0.960 . S
H438 C437 0.960 . S
H439 N419 0.862 . S
O440 Co408 1.920 . S
O440 C413 1.289 1_545 S
C441 O433 1.258 . S
C441 O434 1.266 . S
Co442 O445 1.970 . S
Co442 N459 1.989 . S
Co442 O467 1.967 . S
Co442 O474 1.920 . S
Co443 O446 1.966 . S
Co443 N452 2.022 . S
Co443 N460 1.993 . S
Co443 O468 1.941 . S
C444 O445 1.258 . S
C444 O446 1.263 . S
O445 Co442 1.970 . S
O445 C444 1.258 . S
O446 Co443 1.966 . S
O446 C444 1.263 . S
C447 O448 1.235 . S
C447 O474 1.289 . S
O448 C447 1.235 . S
C449 C451 1.400 . S
C449 N452 1.351 . S
C449 C454 1.501 . S
C450 C451 1.387 . S
C450 N453 1.341 . S
C451 C449 1.400 . S
C451 C450 1.387 . S
N452 Co443 2.022 . S
N452 C449 1.351 . S
N452 N453 1.365 . S
N453 C450 1.341 . S
N453 N452 1.365 . S
N453 H473 0.862 . S
C454 C449 1.501 . S
C454 H455 0.961 . S
C454 H456 0.961 . S
C454 H457 0.960 . S
H455 C454 0.961 . S
H456 C454 0.961 . S
H457 C454 0.960 . S
C458 N459 1.342 . S
C458 C462 1.401 . S
C458 C463 1.499 . S
N459 Co442 1.989 . S
N459 C458 1.342 . S
N459 N460 1.388 . S
N460 Co443 1.993 . S
N460 N459 1.388 . S
N460 C461 1.346 . S
C461 N460 1.346 . S
C461 C462 1.396 . S
C461 C471 1.510 . S
C462 C458 1.401 . S
C462 C461 1.396 . S
C463 C458 1.499 . S
C463 H464 0.959 . S
C463 H465 0.960 . S
C463 H466 0.961 . S
H464 C463 0.959 . S
H465 C463 0.960 . S
H466 C463 0.961 . S
O467 Co442 1.967 . S
O467 C475 1.258 . S
O468 Co443 1.941 . S
O468 C475 1.266 . S
H469 C471 0.959 . S
H470 C471 0.961 . S
C471 C461 1.510 . S
C471 H469 0.959 . S
C471 H470 0.961 . S
C471 H472 0.960 . S
H472 C471 0.960 . S
H473 N453 0.862 . S
O474 Co442 1.920 . S
O474 C447 1.289 . S
C475 O467 1.258 . S
C475 O468 1.266 . S
Co476 O479 1.970 . S
Co476 N493 1.989 1_465 S
Co476 O501 1.968 . S
Co476 O508 1.920 . S
Co477 O480 1.966 . S
Co477 N486 2.022 . S
Co477 N494 1.993 1_565 S
Co477 O502 1.941 . S
C478 O479 1.258 1_655 S
C478 O480 1.263 . S
O479 Co476 1.970 . S
O479 C478 1.258 1_455 S
O480 Co477 1.966 . S
O480 C478 1.263 . S
C481 O482 1.235 . S
C481 O508 1.289 1_545 S
O482 C481 1.235 . S
C483 C485 1.400 . S
C483 N486 1.351 . S
C483 C488 1.501 1_565 S
C484 C485 1.387 . S
C484 N487 1.341 . S
C485 C483 1.400 . S
C485 C484 1.387 . S
N486 Co477 2.022 . S
N486 C483 1.351 . S
N486 N487 1.365 . S
N487 C484 1.341 . S
N487 N486 1.365 . S
N487 H507 0.862 . S
C488 C483 1.501 1_545 S
C488 H489 0.960 1_545 S
C488 H490 0.961 . S
C488 H491 0.960 1_545 S
H489 C488 0.960 1_565 S
H490 C488 0.961 . S
H491 C488 0.960 1_565 S
C492 N493 1.342 . S
C492 C496 1.401 . S
C492 C497 1.499 1_655 S
N493 Co476 1.989 1_645 S
N493 C492 1.342 . S
N493 N494 1.388 . S
N494 Co477 1.993 1_545 S
N494 N493 1.388 . S
N494 C495 1.346 . S
C495 N494 1.346 . S
C495 C496 1.396 . S
C495 C505 1.510 . S
C496 C492 1.401 . S
C496 C495 1.396 . S
C497 C492 1.499 1_455 S
C497 H498 0.959 . S
C497 H499 0.960 . S
C497 H500 0.961 . S
H498 C497 0.959 . S
H499 C497 0.960 . S
H500 C497 0.961 . S
O501 Co476 1.968 . S
O501 C509 1.250 1_455 S
O502 Co477 1.941 . S
O502 C509 1.266 . S
H503 C505 0.959 . S
H504 C505 0.961 . S
C505 C495 1.510 . S
C505 H503 0.959 . S
C505 H504 0.961 . S
C505 H506 0.960 . S
H506 C505 0.960 . S
H507 N487 0.862 . S
O508 Co476 1.920 . S
O508 C481 1.289 1_565 S
C509 O501 1.250 1_655 S
C509 O502 1.266 . S
Co510 O513 1.970 . S
Co510 N527 1.989 . S
Co510 O535 1.967 . S
Co510 O542 1.920 . S
Co511 O514 1.966 . S
Co511 N520 2.022 . S
Co511 N528 1.993 . S
Co511 O536 1.941 . S
C512 O513 1.258 . S
C512 O514 1.263 . S
O513 Co510 1.970 . S
O513 C512 1.258 . S
O514 Co511 1.966 . S
O514 C512 1.263 . S
C515 O516 1.235 . S
C515 O542 1.289 . S
O516 C515 1.235 . S
C517 C519 1.400 . S
C517 N520 1.351 . S
C517 C522 1.501 . S
C518 C519 1.387 . S
C518 N521 1.341 . S
C519 C517 1.400 . S
C519 C518 1.387 . S
N520 Co511 2.022 . S
N520 C517 1.351 . S
N520 N521 1.365 . S
N521 C518 1.341 . S
N521 N520 1.365 . S
N521 H541 0.862 . S
C522 C517 1.501 . S
C522 H523 0.961 . S
C522 H524 0.961 . S
C522 H525 0.960 . S
H523 C522 0.961 . S
H524 C522 0.961 . S
H525 C522 0.960 . S
C526 N527 1.342 . S
C526 C530 1.401 . S
C526 C531 1.499 . S
N527 Co510 1.989 . S
N527 C526 1.342 . S
N527 N528 1.388 . S
N528 Co511 1.993 . S
N528 N527 1.388 . S
N528 C529 1.346 . S
C529 N528 1.346 . S
C529 C530 1.396 . S
C529 C539 1.510 . S
C530 C526 1.401 . S
C530 C529 1.396 . S
C531 C526 1.499 . S
C531 H532 0.959 . S
C531 H533 0.960 . S
C531 H534 0.961 . S
H532 C531 0.959 . S
H533 C531 0.960 . S
H534 C531 0.961 . S
O535 Co510 1.967 . S
O535 C543 1.258 . S
O536 Co511 1.941 . S
O536 C543 1.266 . S
H537 C539 0.959 . S
H538 C539 0.961 . S
C539 C529 1.510 . S
C539 H537 0.959 . S
C539 H538 0.961 . S
C539 H540 0.960 . S
H540 C539 0.960 . S
H541 N521 0.862 . S
O542 Co510 1.920 . S
O542 C515 1.289 . S
C543 O535 1.258 . S
C543 O536 1.266 . S
Co544 O547 1.970 . S
Co544 N561 1.989 1_455 S
Co544 O569 1.969 . S
Co544 O576 1.920 . S
Co545 O548 1.966 . S
Co545 N554 2.022 . S
Co545 N562 1.993 . S
Co545 O570 1.941 . S
C546 O547 1.258 1_655 S
C546 O548 1.263 . S
O547 Co544 1.970 . S
O547 C546 1.258 1_455 S
O548 Co545 1.966 . S
O548 C546 1.263 . S
C549 O550 1.235 . S
C549 O576 1.289 . S
O550 C549 1.235 . S
C551 C553 1.400 . S
C551 N554 1.351 . S
C551 C556 1.501 . S
C552 C553 1.387 . S
C552 N555 1.341 . S
C553 C551 1.400 . S
C553 C552 1.387 . S
N554 Co545 2.022 . S
N554 C551 1.351 . S
N554 N555 1.365 . S
N555 C552 1.341 . S
N555 N554 1.365 . S
N555 H575 0.862 . S
C556 C551 1.501 . S
C556 H557 0.961 . S
C556 H558 0.961 . S
C556 H559 0.960 . S
H557 C556 0.961 . S
H558 C556 0.961 . S
H559 C556 0.960 . S
C560 N561 1.342 . S
C560 C564 1.401 . S
C560 C565 1.499 1_655 S
N561 Co544 1.989 1_655 S
N561 C560 1.342 . S
N561 N562 1.388 . S
N562 Co545 1.993 . S
N562 N561 1.388 . S
N562 C563 1.346 . S
C563 N562 1.346 . S
C563 C564 1.396 . S
C563 C573 1.510 . S
C564 C560 1.401 . S
C564 C563 1.396 . S
C565 C560 1.499 1_455 S
C565 H566 0.959 . S
C565 H567 0.960 . S
C565 H568 0.961 . S
H566 C565 0.959 . S
H567 C565 0.960 . S
H568 C565 0.961 . S
O569 Co544 1.969 . S
O569 C577 1.250 1_455 S
O570 Co545 1.941 . S
O570 C577 1.266 . S
H571 C573 0.959 . S
H572 C573 0.961 . S
C573 C563 1.510 . S
C573 H571 0.959 . S
C573 H572 0.961 . S
C573 H574 0.960 . S
H574 C573 0.960 . S
H575 N555 0.862 . S
O576 Co544 1.920 . S
O576 C549 1.289 . S
C577 O569 1.250 1_655 S
C577 O570 1.266 . S
Co578 O581 1.970 . S
Co578 N595 1.989 . S
Co578 O603 1.967 . S
Co578 O610 1.920 . S
Co579 O582 1.966 . S
Co579 N588 2.022 . S
Co579 N596 1.993 . S
Co579 O604 1.941 . S
C580 O581 1.258 . S
C580 O582 1.263 . S
O581 Co578 1.970 . S
O581 C580 1.258 . S
O582 Co579 1.966 . S
O582 C580 1.263 . S
C583 O584 1.235 . S
C583 O610 1.289 . S
O584 C583 1.235 . S
C585 C587 1.400 . S
C585 N588 1.351 . S
C585 C590 1.501 . S
C586 C587 1.387 . S
C586 N589 1.341 . S
C587 C585 1.400 . S
C587 C586 1.387 . S
N588 Co579 2.022 . S
N588 C585 1.351 . S
N588 N589 1.365 . S
N589 C586 1.341 . S
N589 N588 1.365 . S
N589 H609 0.862 . S
C590 C585 1.501 . S
C590 H591 0.961 . S
C590 H592 0.961 . S
C590 H593 0.960 . S
H591 C590 0.961 . S
H592 C590 0.961 . S
H593 C590 0.960 . S
C594 N595 1.342 . S
C594 C598 1.401 . S
C594 C599 1.499 . S
N595 Co578 1.989 . S
N595 C594 1.342 . S
N595 N596 1.388 . S
N596 Co579 1.993 . S
N596 N595 1.388 . S
N596 C597 1.346 . S
C597 N596 1.346 . S
C597 C598 1.396 . S
C597 C607 1.510 . S
C598 C594 1.401 . S
C598 C597 1.396 . S
C599 C594 1.499 . S
C599 H600 0.959 . S
C599 H601 0.960 . S
C599 H602 0.961 . S
H600 C599 0.959 . S
H601 C599 0.960 . S
H602 C599 0.961 . S
O603 Co578 1.967 . S
O603 C611 1.258 . S
O604 Co579 1.941 . S
O604 C611 1.266 . S
H605 C607 0.959 . S
H606 C607 0.961 . S
C607 C597 1.510 . S
C607 H605 0.959 . S
C607 H606 0.961 . S
C607 H608 0.960 . S
H608 C607 0.960 . S
H609 N589 0.862 . S
O610 Co578 1.920 . S
O610 C583 1.289 . S
C611 O603 1.258 . S
C611 O604 1.266 . S
Co612 O615 1.970 . S
Co612 N629 1.989 . S
Co612 O637 1.967 . S
Co612 O644 1.920 . S
Co613 O616 1.966 . S
Co613 N622 2.022 . S
Co613 N630 1.993 . S
Co613 O638 1.941 . S
C614 O615 1.258 . S
C614 O616 1.263 . S
O615 Co612 1.970 . S
O615 C614 1.258 . S
O616 Co613 1.966 . S
O616 C614 1.263 . S
C617 O618 1.235 . S
C617 O644 1.289 . S
O618 C617 1.235 . S
C619 C621 1.400 . S
C619 N622 1.351 . S
C619 C624 1.501 . S
C620 C621 1.387 . S
C620 N623 1.341 . S
C621 C619 1.400 . S
C621 C620 1.387 . S
N622 Co613 2.022 . S
N622 C619 1.351 . S
N622 N623 1.365 . S
N623 C620 1.341 . S
N623 N622 1.365 . S
N623 H643 0.862 . S
C624 C619 1.501 . S
C624 H625 0.961 . S
C624 H626 0.961 . S
C624 H627 0.960 . S
H625 C624 0.961 . S
H626 C624 0.961 . S
H627 C624 0.960 . S
C628 N629 1.342 . S
C628 C632 1.401 . S
C628 C633 1.499 . S
N629 Co612 1.989 . S
N629 C628 1.342 . S
N629 N630 1.388 . S
N630 Co613 1.993 . S
N630 N629 1.388 . S
N630 C631 1.346 . S
C631 N630 1.346 . S
C631 C632 1.396 . S
C631 C641 1.510 . S
C632 C628 1.401 . S
C632 C631 1.396 . S
C633 C628 1.499 . S
C633 H634 0.959 . S
C633 H635 0.960 . S
C633 H636 0.961 . S
H634 C633 0.959 . S
H635 C633 0.960 . S
H636 C633 0.961 . S
O637 Co612 1.967 . S
O637 C645 1.258 . S
O638 Co613 1.941 . S
O638 C645 1.266 . S
H639 C641 0.959 . S
H640 C641 0.961 . S
C641 C631 1.510 . S
C641 H639 0.959 . S
C641 H640 0.961 . S
C641 H642 0.960 . S
H642 C641 0.960 . S
H643 N623 0.862 . S
O644 Co612 1.920 . S
O644 C617 1.289 . S
C645 O637 1.258 . S
C645 O638 1.266 . S
Co646 O649 1.970 . S
Co646 N663 1.989 . S
Co646 O671 1.967 . S
Co646 O678 1.920 . S
Co647 O650 1.966 . S
Co647 N656 2.022 . S
Co647 N664 1.993 . S
Co647 O672 1.941 . S
C648 O649 1.258 . S
C648 O650 1.263 . S
O649 Co646 1.970 . S
O649 C648 1.258 . S
O650 Co647 1.966 . S
O650 C648 1.263 . S
C651 O652 1.235 . S
C651 O678 1.289 . S
O652 C651 1.235 . S
C653 C655 1.400 . S
C653 N656 1.351 . S
C653 C658 1.501 . S
C654 C655 1.387 . S
C654 N657 1.341 . S
C655 C653 1.400 . S
C655 C654 1.387 . S
N656 Co647 2.022 . S
N656 C653 1.351 . S
N656 N657 1.365 . S
N657 C654 1.341 . S
N657 N656 1.365 . S
N657 H677 0.862 . S
C658 C653 1.501 . S
C658 H659 0.961 . S
C658 H660 0.961 . S
C658 H661 0.960 . S
H659 C658 0.961 . S
H660 C658 0.961 . S
H661 C658 0.960 . S
C662 N663 1.342 . S
C662 C666 1.401 . S
C662 C667 1.499 . S
N663 Co646 1.989 . S
N663 C662 1.342 . S
N663 N664 1.388 . S
N664 Co647 1.993 . S
N664 N663 1.388 . S
N664 C665 1.346 . S
C665 N664 1.346 . S
C665 C666 1.396 . S
C665 C675 1.510 . S
C666 C662 1.401 . S
C666 C665 1.396 . S
C667 C662 1.499 . S
C667 H668 0.959 . S
C667 H669 0.960 . S
C667 H670 0.961 . S
H668 C667 0.959 . S
H669 C667 0.960 . S
H670 C667 0.961 . S
O671 Co646 1.967 . S
O671 C679 1.258 . S
O672 Co647 1.941 . S
O672 C679 1.266 . S
H673 C675 0.959 . S
H674 C675 0.961 . S
C675 C665 1.510 . S
C675 H673 0.959 . S
C675 H674 0.961 . S
C675 H676 0.960 . S
H676 C675 0.960 . S
H677 N657 0.862 . S
O678 Co646 1.920 . S
O678 C651 1.289 . S
C679 O671 1.258 . S
C679 O672 1.266 . S
Co680 O683 1.970 . S
Co680 N697 1.989 1_455 S
Co680 O705 1.969 . S
Co680 O712 1.920 . S
Co681 O684 1.966 . S
Co681 N690 2.022 . S
Co681 N698 1.993 . S
Co681 O706 1.941 . S
C682 O683 1.258 1_655 S
C682 O684 1.263 . S
O683 Co680 1.970 . S
O683 C682 1.258 1_455 S
O684 Co681 1.966 . S
O684 C682 1.263 . S
C685 O686 1.235 . S
C685 O712 1.289 . S
O686 C685 1.235 . S
C687 C689 1.400 . S
C687 N690 1.351 . S
C687 C692 1.501 . S
C688 C689 1.387 . S
C688 N691 1.341 . S
C689 C687 1.400 . S
C689 C688 1.387 . S
N690 Co681 2.022 . S
N690 C687 1.351 . S
N690 N691 1.365 . S
N691 C688 1.341 . S
N691 N690 1.365 . S
N691 H711 0.862 . S
C692 C687 1.501 . S
C692 H693 0.961 . S
C692 H694 0.961 . S
C692 H695 0.960 . S
H693 C692 0.961 . S
H694 C692 0.961 . S
H695 C692 0.960 . S
C696 N697 1.342 . S
C696 C700 1.401 . S
C696 C701 1.499 1_655 S
N697 Co680 1.989 1_655 S
N697 C696 1.342 . S
N697 N698 1.388 . S
N698 Co681 1.993 . S
N698 N697 1.388 . S
N698 C699 1.346 . S
C699 N698 1.346 . S
C699 C700 1.396 . S
C699 C709 1.510 . S
C700 C696 1.401 . S
C700 C699 1.396 . S
C701 C696 1.499 1_455 S
C701 H702 0.959 . S
C701 H703 0.960 . S
C701 H704 0.961 . S
H702 C701 0.959 . S
H703 C701 0.960 . S
H704 C701 0.961 . S
O705 Co680 1.969 . S
O705 C713 1.250 1_455 S
O706 Co681 1.941 . S
O706 C713 1.266 . S
H707 C709 0.959 . S
H708 C709 0.961 . S
C709 C699 1.510 . S
C709 H707 0.959 . S
C709 H708 0.961 . S
C709 H710 0.960 . S
H710 C709 0.960 . S
H711 N691 0.862 . S
O712 Co680 1.920 . S
O712 C685 1.289 . S
C713 O705 1.250 1_655 S
C713 O706 1.266 . S
Co714 O717 1.970 . S
Co714 N731 1.989 . S
Co714 O739 1.967 . S
Co714 O746 1.920 . S
Co715 O718 1.966 . S
Co715 N724 2.022 . S
Co715 N732 1.993 . S
Co715 O740 1.941 . S
C716 O717 1.258 . S
C716 O718 1.263 . S
O717 Co714 1.970 . S
O717 C716 1.258 . S
O718 Co715 1.966 . S
O718 C716 1.263 . S
C719 O720 1.235 . S
C719 O746 1.289 . S
O720 C719 1.235 . S
C721 C723 1.400 . S
C721 N724 1.351 . S
C721 C726 1.501 . S
C722 C723 1.387 . S
C722 N725 1.341 . S
C723 C721 1.400 . S
C723 C722 1.387 . S
N724 Co715 2.022 . S
N724 C721 1.351 . S
N724 N725 1.365 . S
N725 C722 1.341 . S
N725 N724 1.365 . S
N725 H745 0.862 . S
C726 C721 1.501 . S
C726 H727 0.961 . S
C726 H728 0.961 . S
C726 H729 0.960 . S
H727 C726 0.961 . S
H728 C726 0.961 . S
H729 C726 0.960 . S
C730 N731 1.342 . S
C730 C734 1.401 . S
C730 C735 1.499 . S
N731 Co714 1.989 . S
N731 C730 1.342 . S
N731 N732 1.388 . S
N732 Co715 1.993 . S
N732 N731 1.388 . S
N732 C733 1.346 . S
C733 N732 1.346 . S
C733 C734 1.396 . S
C733 C743 1.510 . S
C734 C730 1.401 . S
C734 C733 1.396 . S
C735 C730 1.499 . S
C735 H736 0.959 . S
C735 H737 0.960 . S
C735 H738 0.961 . S
H736 C735 0.959 . S
H737 C735 0.960 . S
H738 C735 0.961 . S
O739 Co714 1.967 . S
O739 C747 1.258 . S
O740 Co715 1.941 . S
O740 C747 1.266 . S
H741 C743 0.959 . S
H742 C743 0.961 . S
C743 C733 1.510 . S
C743 H741 0.959 . S
C743 H742 0.961 . S
C743 H744 0.960 . S
H744 C743 0.960 . S
H745 N725 0.862 . S
O746 Co714 1.920 . S
O746 C719 1.289 . S
C747 O739 1.258 . S
C747 O740 1.266 . S
Co748 O751 1.970 . S
Co748 N765 1.989 . S
Co748 O773 1.967 . S
Co748 O780 1.920 . S
Co749 O752 1.966 . S
Co749 N758 2.022 . S
Co749 N766 1.993 . S
Co749 O774 1.941 . S
C750 O751 1.258 . S
C750 O752 1.263 . S
O751 Co748 1.970 . S
O751 C750 1.258 . S
O752 Co749 1.966 . S
O752 C750 1.263 . S
C753 O754 1.235 . S
C753 O780 1.289 . S
O754 C753 1.235 . S
C755 C757 1.400 . S
C755 N758 1.351 . S
C755 C760 1.501 . S
C756 C757 1.387 . S
C756 N759 1.341 . S
C757 C755 1.400 . S
C757 C756 1.387 . S
N758 Co749 2.022 . S
N758 C755 1.351 . S
N758 N759 1.365 . S
N759 C756 1.341 . S
N759 N758 1.365 . S
N759 H779 0.862 . S
C760 C755 1.501 . S
C760 H761 0.961 . S
C760 H762 0.961 . S
C760 H763 0.960 . S
H761 C760 0.961 . S
H762 C760 0.961 . S
H763 C760 0.960 . S
C764 N765 1.342 . S
C764 C768 1.401 . S
C764 C769 1.499 . S
N765 Co748 1.989 . S
N765 C764 1.342 . S
N765 N766 1.388 . S
N766 Co749 1.993 . S
N766 N765 1.388 . S
N766 C767 1.346 . S
C767 N766 1.346 . S
C767 C768 1.396 . S
C767 C777 1.510 . S
C768 C764 1.401 . S
C768 C767 1.396 . S
C769 C764 1.499 . S
C769 H770 0.959 . S
C769 H771 0.960 . S
C769 H772 0.961 . S
H770 C769 0.959 . S
H771 C769 0.960 . S
H772 C769 0.961 . S
O773 Co748 1.967 . S
O773 C781 1.258 . S
O774 Co749 1.941 . S
O774 C781 1.266 . S
H775 C777 0.959 . S
H776 C777 0.961 . S
C777 C767 1.510 . S
C777 H775 0.959 . S
C777 H776 0.961 . S
C777 H778 0.960 . S
H778 C777 0.960 . S
H779 N759 0.862 . S
O780 Co748 1.920 . S
O780 C753 1.289 . S
C781 O773 1.258 . S
C781 O774 1.266 . S
Co782 O785 1.970 . S
Co782 N799 1.989 . S
Co782 O807 1.967 . S
Co782 O814 1.920 . S
Co783 O786 1.966 . S
Co783 N792 2.022 . S
Co783 N800 1.993 . S
Co783 O808 1.941 . S
C784 O785 1.258 . S
C784 O786 1.263 . S
O785 Co782 1.970 . S
O785 C784 1.258 . S
O786 Co783 1.966 . S
O786 C784 1.263 . S
C787 O788 1.235 . S
C787 O814 1.289 . S
O788 C787 1.235 . S
C789 C791 1.400 . S
C789 N792 1.351 . S
C789 C794 1.501 . S
C790 C791 1.387 . S
C790 N793 1.341 . S
C791 C789 1.400 . S
C791 C790 1.387 . S
N792 Co783 2.022 . S
N792 C789 1.351 . S
N792 N793 1.365 . S
N793 C790 1.341 . S
N793 N792 1.365 . S
N793 H813 0.862 . S
C794 C789 1.501 . S
C794 H795 0.961 . S
C794 H796 0.961 . S
C794 H797 0.960 . S
H795 C794 0.961 . S
H796 C794 0.961 . S
H797 C794 0.960 . S
C798 N799 1.342 . S
C798 C802 1.401 . S
C798 C803 1.499 . S
N799 Co782 1.989 . S
N799 C798 1.342 . S
N799 N800 1.388 . S
N800 Co783 1.993 . S
N800 N799 1.388 . S
N800 C801 1.346 . S
C801 N800 1.346 . S
C801 C802 1.396 . S
C801 C811 1.510 . S
C802 C798 1.401 . S
C802 C801 1.396 . S
C803 C798 1.499 . S
C803 H804 0.959 . S
C803 H805 0.960 . S
C803 H806 0.961 . S
H804 C803 0.959 . S
H805 C803 0.960 . S
H806 C803 0.961 . S
O807 Co782 1.967 . S
O807 C815 1.258 . S
O808 Co783 1.941 . S
O808 C815 1.266 . S
H809 C811 0.959 . S
H810 C811 0.961 . S
C811 C801 1.510 . S
C811 H809 0.959 . S
C811 H810 0.961 . S
C811 H812 0.960 . S
H812 C811 0.960 . S
H813 N793 0.862 . S
O814 Co782 1.920 . S
O814 C787 1.289 . S
C815 O807 1.258 . S
C815 O808 1.266 . S
Co816 O819 1.970 . S
Co816 N833 1.989 1_655 S
Co816 O841 1.969 . S
Co816 O848 1.920 . S
Co817 O820 1.966 . S
Co817 N826 2.022 . S
Co817 N834 1.993 . S
Co817 O842 1.941 . S
C818 O819 1.258 1_455 S
C818 O820 1.263 . S
O819 Co816 1.970 . S
O819 C818 1.258 1_655 S
O820 Co817 1.966 . S
O820 C818 1.263 . S
C821 O822 1.235 . S
C821 O848 1.289 . S
O822 C821 1.235 . S
C823 C825 1.400 . S
C823 N826 1.351 . S
C823 C828 1.501 . S
C824 C825 1.387 . S
C824 N827 1.341 . S
C825 C823 1.400 . S
C825 C824 1.387 . S
N826 Co817 2.022 . S
N826 C823 1.351 . S
N826 N827 1.365 . S
N827 C824 1.341 . S
N827 N826 1.365 . S
N827 H847 0.862 . S
C828 C823 1.501 . S
C828 H829 0.961 . S
C828 H830 0.961 . S
C828 H831 0.960 . S
H829 C828 0.961 . S
H830 C828 0.961 . S
H831 C828 0.960 . S
C832 N833 1.342 . S
C832 C836 1.401 . S
C832 C837 1.499 1_455 S
N833 Co816 1.989 1_455 S
N833 C832 1.342 . S
N833 N834 1.388 . S
N834 Co817 1.993 . S
N834 N833 1.388 . S
N834 C835 1.346 . S
C835 N834 1.346 . S
C835 C836 1.396 . S
C835 C845 1.510 . S
C836 C832 1.401 . S
C836 C835 1.396 . S
C837 C832 1.499 1_655 S
C837 H838 0.959 . S
C837 H839 0.960 . S
C837 H840 0.961 . S
H838 C837 0.959 . S
H839 C837 0.960 . S
H840 C837 0.961 . S
O841 Co816 1.969 . S
O841 C849 1.250 1_655 S
O842 Co817 1.941 . S
O842 C849 1.266 . S
H843 C845 0.959 . S
H844 C845 0.961 . S
C845 C835 1.510 . S
C845 H843 0.959 . S
C845 H844 0.961 . S
C845 H846 0.960 . S
H846 C845 0.960 . S
H847 N827 0.862 . S
O848 Co816 1.920 . S
O848 C821 1.289 . S
C849 O841 1.250 1_455 S
C849 O842 1.266 . S
Co850 O853 1.970 . S
Co850 N867 1.989 . S
Co850 O875 1.967 . S
Co850 O882 1.920 . S
Co851 O854 1.966 . S
Co851 N860 2.022 . S
Co851 N868 1.993 . S
Co851 O876 1.941 . S
C852 O853 1.258 . S
C852 O854 1.263 . S
O853 Co850 1.970 . S
O853 C852 1.258 . S
O854 Co851 1.966 . S
O854 C852 1.263 . S
C855 O856 1.235 . S
C855 O882 1.289 . S
O856 C855 1.235 . S
C857 C859 1.400 . S
C857 N860 1.351 . S
C857 C862 1.501 . S
C858 C859 1.387 . S
C858 N861 1.341 . S
C859 C857 1.400 . S
C859 C858 1.387 . S
N860 Co851 2.022 . S
N860 C857 1.351 . S
N860 N861 1.365 . S
N861 C858 1.341 . S
N861 N860 1.365 . S
N861 H881 0.862 . S
C862 C857 1.501 . S
C862 H863 0.961 . S
C862 H864 0.961 . S
C862 H865 0.960 . S
H863 C862 0.961 . S
H864 C862 0.961 . S
H865 C862 0.960 . S
C866 N867 1.342 . S
C866 C870 1.401 . S
C866 C871 1.499 . S
N867 Co850 1.989 . S
N867 C866 1.342 . S
N867 N868 1.388 . S
N868 Co851 1.993 . S
N868 N867 1.388 . S
N868 C869 1.346 . S
C869 N868 1.346 . S
C869 C870 1.396 . S
C869 C879 1.510 . S
C870 C866 1.401 . S
C870 C869 1.396 . S
C871 C866 1.499 . S
C871 H872 0.959 . S
C871 H873 0.960 . S
C871 H874 0.961 . S
H872 C871 0.959 . S
H873 C871 0.960 . S
H874 C871 0.961 . S
O875 Co850 1.967 . S
O875 C883 1.258 . S
O876 Co851 1.941 . S
O876 C883 1.266 . S
H877 C879 0.959 . S
H878 C879 0.961 . S
C879 C869 1.510 . S
C879 H877 0.959 . S
C879 H878 0.961 . S
C879 H880 0.960 . S
H880 C879 0.960 . S
H881 N861 0.862 . S
O882 Co850 1.920 . S
O882 C855 1.289 . S
C883 O875 1.258 . S
C883 O876 1.266 . S
Co884 O887 1.970 . S
Co884 N901 1.989 . S
Co884 O909 1.967 . S
Co884 O916 1.920 . S
Co885 O888 1.966 . S
Co885 N894 2.022 . S
Co885 N902 1.993 . S
Co885 O910 1.941 . S
C886 O887 1.258 . S
C886 O888 1.263 . S
O887 Co884 1.970 . S
O887 C886 1.258 . S
O888 Co885 1.966 . S
O888 C886 1.263 . S
C889 O890 1.235 . S
C889 O916 1.289 . S
O890 C889 1.235 . S
C891 C893 1.400 . S
C891 N894 1.351 . S
C891 C896 1.501 . S
C892 C893 1.387 . S
C892 N895 1.341 . S
C893 C891 1.400 . S
C893 C892 1.387 . S
N894 Co885 2.022 . S
N894 C891 1.351 . S
N894 N895 1.365 . S
N895 C892 1.341 . S
N895 N894 1.365 . S
N895 H915 0.862 . S
C896 C891 1.501 . S
C896 H897 0.961 . S
C896 H898 0.961 . S
C896 H899 0.960 . S
H897 C896 0.961 . S
H898 C896 0.961 . S
H899 C896 0.960 . S
C900 N901 1.342 . S
C900 C904 1.401 . S
C900 C905 1.499 . S
N901 Co884 1.989 . S
N901 C900 1.342 . S
N901 N902 1.388 . S
N902 Co885 1.993 . S
N902 N901 1.388 . S
N902 C903 1.346 . S
C903 N902 1.346 . S
C903 C904 1.396 . S
C903 C913 1.510 . S
C904 C900 1.401 . S
C904 C903 1.396 . S
C905 C900 1.499 . S
C905 H906 0.959 . S
C905 H907 0.960 . S
C905 H908 0.961 . S
H906 C905 0.959 . S
H907 C905 0.960 . S
H908 C905 0.961 . S
O909 Co884 1.967 . S
O909 C917 1.258 . S
O910 Co885 1.941 . S
O910 C917 1.266 . S
H911 C913 0.959 . S
H912 C913 0.961 . S
C913 C903 1.510 . S
C913 H911 0.959 . S
C913 H912 0.961 . S
C913 H914 0.960 . S
H914 C913 0.960 . S
H915 N895 0.862 . S
O916 Co884 1.920 . S
O916 C889 1.289 . S
C917 O909 1.258 . S
C917 O910 1.266 . S
Co918 O921 1.970 . S
Co918 N935 1.989 . S
Co918 O943 1.967 . S
Co918 O950 1.920 . S
Co919 O922 1.966 . S
Co919 N928 2.022 . S
Co919 N936 1.993 . S
Co919 O944 1.941 . S
C920 O921 1.258 . S
C920 O922 1.263 . S
O921 Co918 1.970 . S
O921 C920 1.258 . S
O922 Co919 1.966 . S
O922 C920 1.263 . S
C923 O924 1.235 . S
C923 O950 1.289 . S
O924 C923 1.235 . S
C925 C927 1.400 . S
C925 N928 1.351 . S
C925 C930 1.501 . S
C926 C927 1.387 . S
C926 N929 1.341 . S
C927 C925 1.400 . S
C927 C926 1.387 . S
N928 Co919 2.022 . S
N928 C925 1.351 . S
N928 N929 1.365 . S
N929 C926 1.341 . S
N929 N928 1.365 . S
N929 H949 0.862 . S
C930 C925 1.501 . S
C930 H931 0.961 . S
C930 H932 0.961 . S
C930 H933 0.960 . S
H931 C930 0.961 . S
H932 C930 0.961 . S
H933 C930 0.960 . S
C934 N935 1.342 . S
C934 C938 1.401 . S
C934 C939 1.499 . S
N935 Co918 1.989 . S
N935 C934 1.342 . S
N935 N936 1.388 . S
N936 Co919 1.993 . S
N936 N935 1.388 . S
N936 C937 1.346 . S
C937 N936 1.346 . S
C937 C938 1.396 . S
C937 C947 1.510 . S
C938 C934 1.401 . S
C938 C937 1.396 . S
C939 C934 1.499 . S
C939 H940 0.959 . S
C939 H941 0.960 . S
C939 H942 0.961 . S
H940 C939 0.959 . S
H941 C939 0.960 . S
H942 C939 0.961 . S
O943 Co918 1.967 . S
O943 C951 1.258 . S
O944 Co919 1.941 . S
O944 C951 1.266 . S
H945 C947 0.959 . S
H946 C947 0.961 . S
C947 C937 1.510 . S
C947 H945 0.959 . S
C947 H946 0.961 . S
C947 H948 0.960 . S
H948 C947 0.960 . S
H949 N929 0.862 . S
O950 Co918 1.920 . S
O950 C923 1.289 . S
C951 O943 1.258 . S
C951 O944 1.266 . S
Co952 O955 1.970 . S
Co952 N969 1.989 1_655 S
Co952 O977 1.969 . S
Co952 O984 1.920 . S
Co953 O956 1.966 . S
Co953 N962 2.022 . S
Co953 N970 1.993 . S
Co953 O978 1.941 . S
C954 O955 1.258 1_455 S
C954 O956 1.263 . S
O955 Co952 1.970 . S
O955 C954 1.258 1_655 S
O956 Co953 1.966 . S
O956 C954 1.263 . S
C957 O958 1.235 . S
C957 O984 1.289 . S
O958 C957 1.235 . S
C959 C961 1.400 . S
C959 N962 1.351 . S
C959 C964 1.501 . S
C960 C961 1.387 . S
C960 N963 1.341 . S
C961 C959 1.400 . S
C961 C960 1.387 . S
N962 Co953 2.022 . S
N962 C959 1.351 . S
N962 N963 1.365 . S
N963 C960 1.341 . S
N963 N962 1.365 . S
N963 H983 0.862 . S
C964 C959 1.501 . S
C964 H965 0.961 . S
C964 H966 0.961 . S
C964 H967 0.960 . S
H965 C964 0.961 . S
H966 C964 0.961 . S
H967 C964 0.960 . S
C968 N969 1.342 . S
C968 C972 1.401 . S
C968 C973 1.499 1_455 S
N969 Co952 1.989 1_455 S
N969 C968 1.342 . S
N969 N970 1.388 . S
N970 Co953 1.993 . S
N970 N969 1.388 . S
N970 C971 1.346 . S
C971 N970 1.346 . S
C971 C972 1.396 . S
C971 C981 1.510 . S
C972 C968 1.401 . S
C972 C971 1.396 . S
C973 C968 1.499 1_655 S
C973 H974 0.959 . S
C973 H975 0.960 . S
C973 H976 0.961 . S
H974 C973 0.959 . S
H975 C973 0.960 . S
H976 C973 0.961 . S
O977 Co952 1.969 . S
O977 C985 1.250 1_655 S
O978 Co953 1.941 . S
O978 C985 1.266 . S
H979 C981 0.959 . S
H980 C981 0.961 . S
C981 C971 1.510 . S
C981 H979 0.959 . S
C981 H980 0.961 . S
C981 H982 0.960 . S
H982 C981 0.960 . S
H983 N963 0.862 . S
O984 Co952 1.920 . S
O984 C957 1.289 . S
C985 O977 1.250 1_455 S
C985 O978 1.266 . S
Co986 O989 1.970 . S
Co986 N1003 1.989 . S
Co986 O1011 1.967 . S
Co986 O1018 1.920 . S
Co987 O990 1.966 . S
Co987 N996 2.022 . S
Co987 N1004 1.993 . S
Co987 O1012 1.941 . S
C988 O989 1.258 . S
C988 O990 1.263 . S
O989 Co986 1.970 . S
O989 C988 1.258 . S
O990 Co987 1.966 . S
O990 C988 1.263 . S
C991 O992 1.235 . S
C991 O1018 1.289 . S
O992 C991 1.235 . S
C993 C995 1.400 . S
C993 N996 1.351 . S
C993 C998 1.501 . S
C994 C995 1.387 . S
C994 N997 1.341 . S
C995 C993 1.400 . S
C995 C994 1.387 . S
N996 Co987 2.022 . S
N996 C993 1.351 . S
N996 N997 1.365 . S
N997 C994 1.341 . S
N997 N996 1.365 . S
N997 H1017 0.862 . S
C998 C993 1.501 . S
C998 H999 0.961 . S
C998 H1000 0.961 . S
C998 H1001 0.960 . S
H999 C998 0.961 . S
H1000 C998 0.961 . S
H1001 C998 0.960 . S
C1002 N1003 1.342 . S
C1002 C1006 1.401 . S
C1002 C1007 1.499 . S
N1003 Co986 1.989 . S
N1003 C1002 1.342 . S
N1003 N1004 1.388 . S
N1004 Co987 1.993 . S
N1004 N1003 1.388 . S
N1004 C1005 1.346 . S
C1005 N1004 1.346 . S
C1005 C1006 1.396 . S
C1005 C1015 1.510 . S
C1006 C1002 1.401 . S
C1006 C1005 1.396 . S
C1007 C1002 1.499 . S
C1007 H1008 0.959 . S
C1007 H1009 0.960 . S
C1007 H1010 0.961 . S
H1008 C1007 0.959 . S
H1009 C1007 0.960 . S
H1010 C1007 0.961 . S
O1011 Co986 1.967 . S
O1011 C1019 1.258 . S
O1012 Co987 1.941 . S
O1012 C1019 1.266 . S
H1013 C1015 0.959 . S
H1014 C1015 0.961 . S
C1015 C1005 1.510 . S
C1015 H1013 0.959 . S
C1015 H1014 0.961 . S
C1015 H1016 0.960 . S
H1016 C1015 0.960 . S
H1017 N997 0.862 . S
O1018 Co986 1.920 . S
O1018 C991 1.289 . S
C1019 O1011 1.258 . S
C1019 O1012 1.266 . S
Co1020 O1023 1.970 . S
Co1020 N1037 1.989 . S
Co1020 O1045 1.967 . S
Co1020 O1052 1.920 . S
Co1021 O1024 1.966 . S
Co1021 N1030 2.022 . S
Co1021 N1038 1.993 . S
Co1021 O1046 1.941 . S
C1022 O1023 1.258 . S
C1022 O1024 1.263 . S
O1023 Co1020 1.970 . S
O1023 C1022 1.258 . S
O1024 Co1021 1.966 . S
O1024 C1022 1.263 . S
C1025 O1026 1.235 . S
C1025 O1052 1.289 . S
O1026 C1025 1.235 . S
C1027 C1029 1.400 . S
C1027 N1030 1.351 . S
C1027 C1032 1.501 . S
C1028 C1029 1.387 . S
C1028 N1031 1.341 . S
C1029 C1027 1.400 . S
C1029 C1028 1.387 . S
N1030 Co1021 2.022 . S
N1030 C1027 1.351 . S
N1030 N1031 1.365 . S
N1031 C1028 1.341 . S
N1031 N1030 1.365 . S
N1031 H1051 0.862 . S
C1032 C1027 1.501 . S
C1032 H1033 0.961 . S
C1032 H1034 0.961 . S
C1032 H1035 0.960 . S
H1033 C1032 0.961 . S
H1034 C1032 0.961 . S
H1035 C1032 0.960 . S
C1036 N1037 1.342 . S
C1036 C1040 1.401 . S
C1036 C1041 1.499 . S
N1037 Co1020 1.989 . S
N1037 C1036 1.342 . S
N1037 N1038 1.388 . S
N1038 Co1021 1.993 . S
N1038 N1037 1.388 . S
N1038 C1039 1.346 . S
C1039 N1038 1.346 . S
C1039 C1040 1.396 . S
C1039 C1049 1.510 . S
C1040 C1036 1.401 . S
C1040 C1039 1.396 . S
C1041 C1036 1.499 . S
C1041 H1042 0.959 . S
C1041 H1043 0.960 . S
C1041 H1044 0.961 . S
H1042 C1041 0.959 . S
H1043 C1041 0.960 . S
H1044 C1041 0.961 . S
O1045 Co1020 1.967 . S
O1045 C1053 1.258 . S
O1046 Co1021 1.941 . S
O1046 C1053 1.266 . S
H1047 C1049 0.959 . S
H1048 C1049 0.961 . S
C1049 C1039 1.510 . S
C1049 H1047 0.959 . S
C1049 H1048 0.961 . S
C1049 H1050 0.960 . S
H1050 C1049 0.960 . S
H1051 N1031 0.862 . S
O1052 Co1020 1.920 . S
O1052 C1025 1.289 . S
C1053 O1045 1.258 . S
C1053 O1046 1.266 . S
Co1054 O1057 1.970 . S
Co1054 N1071 1.989 . S
Co1054 O1079 1.967 . S
Co1054 O1086 1.920 . S
Co1055 O1058 1.966 . S
Co1055 N1064 2.022 . S
Co1055 N1072 1.993 . S
Co1055 O1080 1.941 . S
C1056 O1057 1.258 . S
C1056 O1058 1.263 . S
O1057 Co1054 1.970 . S
O1057 C1056 1.258 . S
O1058 Co1055 1.966 . S
O1058 C1056 1.263 . S
C1059 O1060 1.235 . S
C1059 O1086 1.289 . S
O1060 C1059 1.235 . S
C1061 C1063 1.400 . S
C1061 N1064 1.351 . S
C1061 C1066 1.501 . S
C1062 C1063 1.387 . S
C1062 N1065 1.341 . S
C1063 C1061 1.400 . S
C1063 C1062 1.387 . S
N1064 Co1055 2.022 . S
N1064 C1061 1.351 . S
N1064 N1065 1.365 . S
N1065 C1062 1.341 . S
N1065 N1064 1.365 . S
N1065 H1085 0.862 . S
C1066 C1061 1.501 . S
C1066 H1067 0.961 . S
C1066 H1068 0.961 . S
C1066 H1069 0.960 . S
H1067 C1066 0.961 . S
H1068 C1066 0.961 . S
H1069 C1066 0.960 . S
C1070 N1071 1.342 . S
C1070 C1074 1.401 . S
C1070 C1075 1.499 . S
N1071 Co1054 1.989 . S
N1071 C1070 1.342 . S
N1071 N1072 1.388 . S
N1072 Co1055 1.993 . S
N1072 N1071 1.388 . S
N1072 C1073 1.346 . S
C1073 N1072 1.346 . S
C1073 C1074 1.396 . S
C1073 C1083 1.510 . S
C1074 C1070 1.401 . S
C1074 C1073 1.396 . S
C1075 C1070 1.499 . S
C1075 H1076 0.959 . S
C1075 H1077 0.960 . S
C1075 H1078 0.961 . S
H1076 C1075 0.959 . S
H1077 C1075 0.960 . S
H1078 C1075 0.961 . S
O1079 Co1054 1.967 . S
O1079 C1087 1.258 . S
O1080 Co1055 1.941 . S
O1080 C1087 1.266 . S
H1081 C1083 0.959 . S
H1082 C1083 0.961 . S
C1083 C1073 1.510 . S
C1083 H1081 0.959 . S
C1083 H1082 0.961 . S
C1083 H1084 0.960 . S
H1084 C1083 0.960 . S
H1085 N1065 0.862 . S
O1086 Co1054 1.920 . S
O1086 C1059 1.289 . S
C1087 O1079 1.258 . S
C1087 O1080 1.266 . S
H1088 C1094 0.930 . S
H1089 C1097 0.930 . S
H1090 C1098 0.930 . S
H1091 C1099 0.930 . S
H1092 C1102 0.930 . S
H1093 C1103 0.930 . S
C1094 H1088 0.930 . S
C1094 C1095 1.355 . S
C1094 C1096 1.415 . S
C1095 C1094 1.355 . S
C1095 C1097 1.419 1_545 S
C1096 C1094 1.415 . S
C1096 C1101 1.425 1_544 S
C1096 C1103 1.409 1_554 S
C1097 H1089 0.930 . S
C1097 C1095 1.419 1_565 S
C1097 C1098 1.362 . S
C1098 H1090 0.930 . S
C1098 C1097 1.362 . S
C1098 C1101 1.409 1_554 S
C1099 H1091 0.930 . S
C1099 C1100 1.355 . S
C1099 C1101 1.415 . S
C1100 C1099 1.355 . S
C1100 C1102 1.419 1_565 S
C1101 C1096 1.425 1_566 S
C1101 C1098 1.409 1_556 S
C1101 C1099 1.415 . S
C1102 H1092 0.930 . S
C1102 C1100 1.419 1_545 S
C1102 C1103 1.362 . S
C1103 H1093 0.930 . S
C1103 C1096 1.409 1_556 S
C1103 C1102 1.362 . S
H1104 C1110 0.930 . S
H1105 C1113 0.930 . S
H1106 C1114 0.930 . S
H1107 C1115 0.930 . S
H1108 C1118 0.930 . S
H1109 C1119 0.930 . S
C1110 H1104 0.930 . S
C1110 C1111 1.355 . S
C1110 C1112 1.415 . S
C1111 C1110 1.355 . S
C1111 C1113 1.419 . S
C1112 C1110 1.415 . S
C1112 C1117 1.425 . S
C1112 C1119 1.409 . S
C1113 H1105 0.930 . S
C1113 C1111 1.419 . S
C1113 C1114 1.362 . S
C1114 H1106 0.930 . S
C1114 C1113 1.362 . S
C1114 C1117 1.409 . S
C1115 H1107 0.930 . S
C1115 C1116 1.355 . S
C1115 C1117 1.415 . S
C1116 C1115 1.355 . S
C1116 C1118 1.419 . S
C1117 C1112 1.425 . S
C1117 C1114 1.409 . S
C1117 C1115 1.415 . S
C1118 H1108 0.930 . S
C1118 C1116 1.419 . S
C1118 C1119 1.362 . S
C1119 H1109 0.930 . S
C1119 C1112 1.409 . S
C1119 C1118 1.362 . S
H1120 C1126 0.930 . S
H1121 C1129 0.930 . S
H1122 C1130 0.930 . S
H1123 C1131 0.930 . S
H1124 C1134 0.930 . S
H1125 C1135 0.930 . S
C1126 H1120 0.930 . S
C1126 C1127 1.355 . S
C1126 C1128 1.415 1_655 S
C1127 C1126 1.355 . S
C1127 C1129 1.419 1_545 S
C1128 C1126 1.415 1_455 S
C1128 C1133 1.425 1_445 S
C1128 C1135 1.409 . S
C1129 H1121 0.930 . S
C1129 C1127 1.419 1_565 S
C1129 C1130 1.362 . S
C1130 H1122 0.930 . S
C1130 C1129 1.362 . S
C1130 C1133 1.409 . S
C1131 H1123 0.930 . S
C1131 C1132 1.355 . S
C1131 C1133 1.415 1_455 S
C1132 C1131 1.355 . S
C1132 C1134 1.419 1_565 S
C1133 C1128 1.425 1_665 S
C1133 C1130 1.409 . S
C1133 C1131 1.415 1_655 S
C1134 H1124 0.930 . S
C1134 C1132 1.419 1_545 S
C1134 C1135 1.362 . S
C1135 H1125 0.930 . S
C1135 C1128 1.409 . S
C1135 C1134 1.362 . S
H1136 C1142 0.930 . S
H1137 C1145 0.930 . S
H1138 C1146 0.930 . S
H1139 C1147 0.930 . S
H1140 C1150 0.930 . S
H1141 C1151 0.930 . S
C1142 H1136 0.930 . S
C1142 C1143 1.355 . S
C1142 C1144 1.415 . S
C1143 C1142 1.355 . S
C1143 C1145 1.419 . S
C1144 C1142 1.415 . S
C1144 C1149 1.425 . S
C1144 C1151 1.409 . S
C1145 H1137 0.930 . S
C1145 C1143 1.419 . S
C1145 C1146 1.362 . S
C1146 H1138 0.930 . S
C1146 C1145 1.362 . S
C1146 C1149 1.409 . S
C1147 H1139 0.930 . S
C1147 C1148 1.355 . S
C1147 C1149 1.415 . S
C1148 C1147 1.355 . S
C1148 C1150 1.419 . S
C1149 C1144 1.425 . S
C1149 C1146 1.409 . S
C1149 C1147 1.415 . S
C1150 H1140 0.930 . S
C1150 C1148 1.419 . S
C1150 C1151 1.362 . S
C1151 H1141 0.930 . S
C1151 C1144 1.409 . S
C1151 C1150 1.362 . S
H1152 C1158 0.930 . S
H1153 C1161 0.930 . S
H1154 C1162 0.930 . S
H1155 C1163 0.930 . S
H1156 C1166 0.930 . S
H1157 C1167 0.930 . S
C1158 H1152 0.930 . S
C1158 C1159 1.355 . S
C1158 C1160 1.415 1_545 S
C1159 C1158 1.355 . S
C1159 C1161 1.419 . S
C1160 C1158 1.415 1_565 S
C1160 C1165 1.425 1_565 S
C1160 C1167 1.409 . S
C1161 H1153 0.930 . S
C1161 C1159 1.419 . S
C1161 C1162 1.362 . S
C1162 H1154 0.930 . S
C1162 C1161 1.362 . S
C1162 C1165 1.409 . S
C1163 H1155 0.930 . S
C1163 C1164 1.355 . S
C1163 C1165 1.415 1_565 S
C1164 C1163 1.355 . S
C1164 C1166 1.419 . S
C1165 C1160 1.425 1_545 S
C1165 C1162 1.409 . S
C1165 C1163 1.415 1_545 S
C1166 H1156 0.930 . S
C1166 C1164 1.419 . S
C1166 C1167 1.362 . S
C1167 H1157 0.930 . S
C1167 C1160 1.409 . S
C1167 C1166 1.362 . S
H1168 C1174 0.930 . S
H1169 C1177 0.930 . S
H1170 C1178 0.930 . S
H1171 C1179 0.930 . S
H1172 C1182 0.930 . S
H1173 C1183 0.930 . S
C1174 H1168 0.930 . S
C1174 C1175 1.355 . S
C1174 C1176 1.415 . S
C1175 C1174 1.355 . S
C1175 C1177 1.419 . S
C1176 C1174 1.415 . S
C1176 C1181 1.425 . S
C1176 C1183 1.409 . S
C1177 H1169 0.930 . S
C1177 C1175 1.419 . S
C1177 C1178 1.362 . S
C1178 H1170 0.930 . S
C1178 C1177 1.362 . S
C1178 C1181 1.409 . S
C1179 H1171 0.930 . S
C1179 C1180 1.355 . S
C1179 C1181 1.415 . S
C1180 C1179 1.355 . S
C1180 C1182 1.419 . S
C1181 C1176 1.425 . S
C1181 C1178 1.409 . S
C1181 C1179 1.415 . S
C1182 H1172 0.930 . S
C1182 C1180 1.419 . S
C1182 C1183 1.362 . S
C1183 H1173 0.930 . S
C1183 C1176 1.409 . S
C1183 C1182 1.362 . S
H1184 C1190 0.930 . S
H1185 C1193 0.930 . S
H1186 C1194 0.930 . S
H1187 C1195 0.930 . S
H1188 C1198 0.930 . S
H1189 C1199 0.930 . S
C1190 H1184 0.930 . S
C1190 C1191 1.355 . S
C1190 C1192 1.453 . S
C1191 C1190 1.355 . S
C1191 C1193 1.419 1_665 S
C1192 C1190 1.453 . S
C1192 C1197 1.422 1_664 S
C1192 C1199 1.374 1_554 S
C1193 H1185 0.930 . S
C1193 C1191 1.419 1_445 S
C1193 C1194 1.362 . S
C1194 H1186 0.930 . S
C1194 C1193 1.362 . S
C1194 C1197 1.374 1_554 S
C1195 H1187 0.930 . S
C1195 C1196 1.355 . S
C1195 C1197 1.453 . S
C1196 C1195 1.355 . S
C1196 C1198 1.419 1_445 S
C1197 C1192 1.422 1_446 S
C1197 C1194 1.374 1_556 S
C1197 C1195 1.453 . S
C1198 H1188 0.930 . S
C1198 C1196 1.419 1_665 S
C1198 C1199 1.362 . S
C1199 H1189 0.930 . S
C1199 C1192 1.374 1_556 S
C1199 C1198 1.362 . S
H1200 C1206 0.930 . S
H1201 C1209 0.930 . S
H1202 C1210 0.930 . S
H1203 C1211 0.930 . S
H1204 C1214 0.930 . S
H1205 C1215 0.930 . S
C1206 H1200 0.930 . S
C1206 C1207 1.355 . S
C1206 C1208 1.415 . S
C1207 C1206 1.355 . S
C1207 C1209 1.419 . S
C1208 C1206 1.415 . S
C1208 C1213 1.425 . S
C1208 C1215 1.409 . S
C1209 H1201 0.930 . S
C1209 C1207 1.419 . S
C1209 C1210 1.362 . S
C1210 H1202 0.930 . S
C1210 C1209 1.362 . S
C1210 C1213 1.409 . S
C1211 H1203 0.930 . S
C1211 C1212 1.355 . S
C1211 C1213 1.415 . S
C1212 C1211 1.355 . S
C1212 C1214 1.419 . S
C1213 C1208 1.425 . S
C1213 C1210 1.409 . S
C1213 C1211 1.415 . S
C1214 H1204 0.930 . S
C1214 C1212 1.419 . S
C1214 C1215 1.362 . S
C1215 H1205 0.930 . S
C1215 C1208 1.409 . S
C1215 C1214 1.362 . S
H1216 C1222 0.930 . S
H1217 C1225 0.930 . S
H1218 C1226 0.930 . S
H1219 C1227 0.930 . S
H1220 C1230 0.930 . S
H1221 C1231 0.930 . S
C1222 H1216 0.930 . S
C1222 C1223 1.355 . S
C1222 C1224 1.415 . S
C1223 C1222 1.355 . S
C1223 C1225 1.419 . S
C1224 C1222 1.415 . S
C1224 C1229 1.425 . S
C1224 C1231 1.409 . S
C1225 H1217 0.930 . S
C1225 C1223 1.419 . S
C1225 C1226 1.362 . S
C1226 H1218 0.930 . S
C1226 C1225 1.362 . S
C1226 C1229 1.409 . S
C1227 H1219 0.930 . S
C1227 C1228 1.355 . S
C1227 C1229 1.415 . S
C1228 C1227 1.355 . S
C1228 C1230 1.419 . S
C1229 C1224 1.425 . S
C1229 C1226 1.409 . S
C1229 C1227 1.415 . S
C1230 H1220 0.930 . S
C1230 C1228 1.419 . S
C1230 C1231 1.362 . S
C1231 H1221 0.930 . S
C1231 C1224 1.409 . S
C1231 C1230 1.362 . S
H1232 C1238 0.930 . S
H1233 C1241 0.930 . S
H1234 C1242 0.930 . S
H1235 C1243 0.930 . S
H1236 C1246 0.930 . S
H1237 C1247 0.930 . S
C1238 H1232 0.930 . S
C1238 C1239 1.355 . S
C1238 C1240 1.415 . S
C1239 C1238 1.355 . S
C1239 C1241 1.419 . S
C1240 C1238 1.415 . S
C1240 C1245 1.425 . S
C1240 C1247 1.409 . S
C1241 H1233 0.930 . S
C1241 C1239 1.419 . S
C1241 C1242 1.362 . S
C1242 H1234 0.930 . S
C1242 C1241 1.362 . S
C1242 C1245 1.409 . S
C1243 H1235 0.930 . S
C1243 C1244 1.355 . S
C1243 C1245 1.415 . S
C1244 C1243 1.355 . S
C1244 C1246 1.419 . S
C1245 C1240 1.425 . S
C1245 C1242 1.409 . S
C1245 C1243 1.415 . S
C1246 H1236 0.930 . S
C1246 C1244 1.419 . S
C1246 C1247 1.362 . S
C1247 H1237 0.930 . S
C1247 C1240 1.409 . S
C1247 C1246 1.362 . S
H1248 C1254 0.930 . S
H1249 C1257 0.930 . S
H1250 C1258 0.930 . S
H1251 C1259 0.930 . S
H1252 C1262 0.930 . S
H1253 C1263 0.930 . S
C1254 H1248 0.930 . S
C1254 C1255 1.355 . S
C1254 C1256 1.415 . S
C1255 C1254 1.355 . S
C1255 C1257 1.419 . S
C1256 C1254 1.415 . S
C1256 C1261 1.425 . S
C1256 C1263 1.409 . S
C1257 H1249 0.930 . S
C1257 C1255 1.419 . S
C1257 C1258 1.362 . S
C1258 H1250 0.930 . S
C1258 C1257 1.362 . S
C1258 C1261 1.409 . S
C1259 H1251 0.930 . S
C1259 C1260 1.355 . S
C1259 C1261 1.415 . S
C1260 C1259 1.355 . S
C1260 C1262 1.419 . S
C1261 C1256 1.425 . S
C1261 C1258 1.409 . S
C1261 C1259 1.415 . S
C1262 H1252 0.930 . S
C1262 C1260 1.419 . S
C1262 C1263 1.362 . S
C1263 H1253 0.930 . S
C1263 C1256 1.409 . S
C1263 C1262 1.362 . S
H1264 C1270 0.930 . S
H1265 C1273 0.930 . S
H1266 C1274 0.930 . S
H1267 C1275 0.930 . S
H1268 C1278 0.930 . S
H1269 C1279 0.930 . S
C1270 H1264 0.930 . S
C1270 C1271 1.355 . S
C1270 C1272 1.415 . S
C1271 C1270 1.355 . S
C1271 C1273 1.419 . S
C1272 C1270 1.415 . S
C1272 C1277 1.425 . S
C1272 C1279 1.409 . S
C1273 H1265 0.930 . S
C1273 C1271 1.419 . S
C1273 C1274 1.362 . S
C1274 H1266 0.930 . S
C1274 C1273 1.362 . S
C1274 C1277 1.409 . S
C1275 H1267 0.930 . S
C1275 C1276 1.355 . S
C1275 C1277 1.415 . S
C1276 C1275 1.355 . S
C1276 C1278 1.419 . S
C1277 C1272 1.425 . S
C1277 C1274 1.409 . S
C1277 C1275 1.415 . S
C1278 H1268 0.930 . S
C1278 C1276 1.419 . S
C1278 C1279 1.362 . S
C1279 H1269 0.930 . S
C1279 C1272 1.409 . S
C1279 C1278 1.362 . S
H1280 C1286 0.940 . S
H1281 C1289 0.930 . S
H1282 C1290 0.930 . S
H1283 C1291 0.940 . S
H1284 C1294 0.930 . S
H1285 C1295 0.930 . S
C1286 H1280 0.940 . S
C1286 C1287 1.340 1_455 S
C1286 C1288 1.420 . S
C1287 C1286 1.340 1_655 S
C1287 C1289 1.419 . S
C1288 C1286 1.420 . S
C1288 C1293 1.425 1_455 S
C1288 C1295 1.409 . S
C1289 H1281 0.930 . S
C1289 C1287 1.419 . S
C1289 C1290 1.362 . S
C1290 H1282 0.930 . S
C1290 C1289 1.362 . S
C1290 C1293 1.409 . S
C1291 H1283 0.940 . S
C1291 C1292 1.340 1_655 S
C1291 C1293 1.420 . S
C1292 C1291 1.340 1_455 S
C1292 C1294 1.419 . S
C1293 C1288 1.425 1_655 S
C1293 C1290 1.409 . S
C1293 C1291 1.420 . S
C1294 H1284 0.930 . S
C1294 C1292 1.419 . S
C1294 C1295 1.362 . S
C1295 H1285 0.930 . S
C1295 C1288 1.409 . S
C1295 C1294 1.362 . S
H1296 C1302 0.930 . S
H1297 C1305 0.930 . S
H1298 C1306 0.928 1_554 S
H1299 C1307 0.930 . S
H1300 C1310 0.930 . S
H1301 C1311 0.928 1_556 S
C1302 H1296 0.930 . S
C1302 C1303 1.355 . S
C1302 C1304 1.415 . S
C1303 C1302 1.355 . S
C1303 C1305 1.419 . S
C1304 C1302 1.415 . S
C1304 C1309 1.425 1_556 S
C1304 C1311 1.409 1_556 S
C1305 H1297 0.930 . S
C1305 C1303 1.419 . S
C1305 C1306 1.362 . S
C1306 H1298 0.928 1_556 S
C1306 C1305 1.362 . S
C1306 C1309 1.409 1_556 S
C1307 H1299 0.930 . S
C1307 C1308 1.355 . S
C1307 C1309 1.415 . S
C1308 C1307 1.355 . S
C1308 C1310 1.419 . S
C1309 C1304 1.425 1_554 S
C1309 C1306 1.409 1_554 S
C1309 C1307 1.415 . S
C1310 H1300 0.930 . S
C1310 C1308 1.419 . S
C1310 C1311 1.362 . S
C1311 H1301 0.928 1_554 S
C1311 C1304 1.409 1_554 S
C1311 C1310 1.362 . S
H1312 C1318 0.934 . S
H1313 C1321 0.930 . S
H1314 C1322 0.930 . S
H1315 C1323 0.934 . S
H1316 C1326 0.930 . S
H1317 C1327 0.930 . S
C1318 H1312 0.934 . S
C1318 C1319 1.349 1_655 S
C1318 C1320 1.416 . S
C1319 C1318 1.349 1_455 S
C1319 C1321 1.419 . S
C1320 C1318 1.416 . S
C1320 C1325 1.425 1_654 S
C1320 C1327 1.409 1_554 S
C1321 H1313 0.930 . S
C1321 C1319 1.419 . S
C1321 C1322 1.362 . S
C1322 H1314 0.930 . S
C1322 C1321 1.362 . S
C1322 C1325 1.409 1_554 S
C1323 H1315 0.934 . S
C1323 C1324 1.349 1_455 S
C1323 C1325 1.416 . S
C1324 C1323 1.349 1_655 S
C1324 C1326 1.419 . S
C1325 C1320 1.425 1_456 S
C1325 C1322 1.409 1_556 S
C1325 C1323 1.416 . S
C1326 H1316 0.930 . S
C1326 C1324 1.419 . S
C1326 C1327 1.362 . S
C1327 H1317 0.930 . S
C1327 C1320 1.409 1_556 S
C1327 C1326 1.362 . S
H1328 C1334 0.930 . S
H1329 C1337 0.930 . S
H1330 C1338 0.930 . S
H1331 C1339 0.930 . S
H1332 C1342 0.930 . S
H1333 C1343 0.930 . S
C1334 H1328 0.930 . S
C1334 C1335 1.355 . S
C1334 C1336 1.415 . S
C1335 C1334 1.355 . S
C1335 C1337 1.419 . S
C1336 C1334 1.415 . S
C1336 C1341 1.425 . S
C1336 C1343 1.409 . S
C1337 H1329 0.930 . S
C1337 C1335 1.419 . S
C1337 C1338 1.362 . S
C1338 H1330 0.930 . S
C1338 C1337 1.362 . S
C1338 C1341 1.409 . S
C1339 H1331 0.930 . S
C1339 C1340 1.355 . S
C1339 C1341 1.415 . S
C1340 C1339 1.355 . S
C1340 C1342 1.419 . S
C1341 C1336 1.425 . S
C1341 C1338 1.409 . S
C1341 C1339 1.415 . S
C1342 H1332 0.930 . S
C1342 C1340 1.419 . S
C1342 C1343 1.362 . S
C1343 H1333 0.930 . S
C1343 C1336 1.409 . S
C1343 C1342 1.362 . S
H1344 C1350 0.930 . S
H1345 C1353 0.930 . S
H1346 C1354 0.930 . S
H1347 C1355 0.930 . S
H1348 C1358 0.930 . S
H1349 C1359 0.930 . S
C1350 H1344 0.930 . S
C1350 C1351 1.355 . S
C1350 C1352 1.415 . S
C1351 C1350 1.355 . S
C1351 C1353 1.419 1_565 S
C1352 C1350 1.415 . S
C1352 C1357 1.425 1_565 S
C1352 C1359 1.409 . S
C1353 H1345 0.930 . S
C1353 C1351 1.419 1_545 S
C1353 C1354 1.362 . S
C1354 H1346 0.930 . S
C1354 C1353 1.362 . S
C1354 C1357 1.409 . S
C1355 H1347 0.930 . S
C1355 C1356 1.355 1_545 S
C1355 C1357 1.415 . S
C1356 C1355 1.355 1_565 S
C1356 C1358 1.419 . S
C1357 C1352 1.425 1_545 S
C1357 C1354 1.409 . S
C1357 C1355 1.415 . S
C1358 H1348 0.930 . S
C1358 C1356 1.419 . S
C1358 C1359 1.362 . S
C1359 H1349 0.930 . S
C1359 C1352 1.409 . S
C1359 C1358 1.362 . S
H1360 C1366 0.930 . S
H1361 C1369 0.930 . S
H1362 C1370 0.930 . S
H1363 C1371 0.930 . S
H1364 C1374 0.930 . S
H1365 C1375 0.930 . S
C1366 H1360 0.930 . S
C1366 C1367 1.355 . S
C1366 C1368 1.415 . S
C1367 C1366 1.355 . S
C1367 C1369 1.419 . S
C1368 C1366 1.415 . S
C1368 C1373 1.425 . S
C1368 C1375 1.409 . S
C1369 H1361 0.930 . S
C1369 C1367 1.419 . S
C1369 C1370 1.362 . S
C1370 H1362 0.930 . S
C1370 C1369 1.362 . S
C1370 C1373 1.409 . S
C1371 H1363 0.930 . S
C1371 C1372 1.355 . S
C1371 C1373 1.415 . S
C1372 C1371 1.355 . S
C1372 C1374 1.419 . S
C1373 C1368 1.425 . S
C1373 C1370 1.409 . S
C1373 C1371 1.415 . S
C1374 H1364 0.930 . S
C1374 C1372 1.419 . S
C1374 C1375 1.362 . S
C1375 H1365 0.930 . S
C1375 C1368 1.409 . S
C1375 C1374 1.362 . S
H1376 C1382 0.930 1_565 S
H1377 C1385 0.930 . S
H1378 C1386 0.930 . S
H1379 C1387 0.930 . S
H1380 C1390 0.930 . S
H1381 C1391 0.933 . S
C1382 H1376 0.930 1_545 S
C1382 C1383 1.355 . S
C1382 C1384 1.415 . S
C1383 C1382 1.355 . S
C1383 C1385 1.419 . S
C1384 C1382 1.415 . S
C1384 C1389 1.425 . S
C1384 C1391 1.409 . S
C1385 H1377 0.930 . S
C1385 C1383 1.419 . S
C1385 C1386 1.362 . S
C1386 H1378 0.930 . S
C1386 C1385 1.362 . S
C1386 C1389 1.409 . S
C1387 H1379 0.930 . S
C1387 C1388 1.355 . S
C1387 C1389 1.415 . S
C1388 C1387 1.355 . S
C1388 C1390 1.419 . S
C1389 C1384 1.425 . S
C1389 C1386 1.409 . S
C1389 C1387 1.415 . S
C1390 H1380 0.930 . S
C1390 C1388 1.419 . S
C1390 C1391 1.362 . S
C1391 H1381 0.933 . S
C1391 C1384 1.409 . S
C1391 C1390 1.362 . S
H1392 C1398 0.930 . S
H1393 C1401 0.930 . S
H1394 C1402 0.930 . S
H1395 C1403 0.930 . S
H1396 C1406 0.930 . S
H1397 C1407 0.930 . S
C1398 H1392 0.930 . S
C1398 C1399 1.355 . S
C1398 C1400 1.415 . S
C1399 C1398 1.355 . S
C1399 C1401 1.419 . S
C1400 C1398 1.415 . S
C1400 C1405 1.425 . S
C1400 C1407 1.409 . S
C1401 H1393 0.930 . S
C1401 C1399 1.419 . S
C1401 C1402 1.362 . S
C1402 H1394 0.930 . S
C1402 C1401 1.362 . S
C1402 C1405 1.409 . S
C1403 H1395 0.930 . S
C1403 C1404 1.355 . S
C1403 C1405 1.415 . S
C1404 C1403 1.355 . S
C1404 C1406 1.419 . S
C1405 C1400 1.425 . S
C1405 C1402 1.409 . S
C1405 C1403 1.415 . S
C1406 H1396 0.930 . S
C1406 C1404 1.419 . S
C1406 C1407 1.362 . S
C1407 H1397 0.930 . S
C1407 C1400 1.409 . S
C1407 C1406 1.362 . S
H1408 C1414 0.930 . S
H1409 C1417 0.930 . S
H1410 C1418 0.930 . S
H1411 C1419 0.930 . S
H1412 C1422 0.930 . S
H1413 C1423 0.930 . S
C1414 H1408 0.930 . S
C1414 C1415 1.355 . S
C1414 C1416 1.415 . S
C1415 C1414 1.355 . S
C1415 C1417 1.419 1_545 S
C1416 C1414 1.415 . S
C1416 C1421 1.426 . S
C1416 C1423 1.409 . S
C1417 H1409 0.930 . S
C1417 C1415 1.419 1_565 S
C1417 C1418 1.362 . S
C1418 H1410 0.930 . S
C1418 C1417 1.362 . S
C1418 C1421 1.408 1_565 S
C1419 H1411 0.930 . S
C1419 C1420 1.355 1_565 S
C1419 C1421 1.415 1_565 S
C1420 C1419 1.355 1_545 S
C1420 C1422 1.419 . S
C1421 C1416 1.426 . S
C1421 C1418 1.408 1_545 S
C1421 C1419 1.415 1_545 S
C1422 H1412 0.930 . S
C1422 C1420 1.419 . S
C1422 C1423 1.362 . S
C1423 H1413 0.930 . S
C1423 C1416 1.409 . S
C1423 C1422 1.362 . S
H1424 C1430 0.930 . S
H1425 C1433 0.930 . S
H1426 C1434 0.930 . S
H1427 C1435 0.930 . S
H1428 C1438 0.930 . S
H1429 C1439 0.930 . S
C1430 H1424 0.930 . S
C1430 C1431 1.355 . S
C1430 C1432 1.415 . S
C1431 C1430 1.355 . S
C1431 C1433 1.419 . S
C1432 C1430 1.415 . S
C1432 C1437 1.425 . S
C1432 C1439 1.409 . S
C1433 H1425 0.930 . S
C1433 C1431 1.419 . S
C1433 C1434 1.362 . S
C1434 H1426 0.930 . S
C1434 C1433 1.362 . S
C1434 C1437 1.409 . S
C1435 H1427 0.930 . S
C1435 C1436 1.355 . S
C1435 C1437 1.415 . S
C1436 C1435 1.355 . S
C1436 C1438 1.419 . S
C1437 C1432 1.425 . S
C1437 C1434 1.409 . S
C1437 C1435 1.415 . S
C1438 H1428 0.930 . S
C1438 C1436 1.419 . S
C1438 C1439 1.362 . S
C1439 H1429 0.930 . S
C1439 C1432 1.409 . S
C1439 C1438 1.362 . S
H1440 C1446 0.930 . S
H1441 C1449 0.930 . S
H1442 C1450 0.930 . S
H1443 C1451 0.930 . S
H1444 C1454 0.930 . S
H1445 C1455 0.930 . S
C1446 H1440 0.930 . S
C1446 C1447 1.355 . S
C1446 C1448 1.415 . S
C1447 C1446 1.355 . S
C1447 C1449 1.419 1_565 S
C1448 C1446 1.415 . S
C1448 C1453 1.425 . S
C1448 C1455 1.409 . S
C1449 H1441 0.930 . S
C1449 C1447 1.419 1_545 S
C1449 C1450 1.362 . S
C1450 H1442 0.930 . S
C1450 C1449 1.362 . S
C1450 C1453 1.409 1_545 S
C1451 H1443 0.930 . S
C1451 C1452 1.355 . S
C1451 C1453 1.415 . S
C1452 C1451 1.355 . S
C1452 C1454 1.419 . S
C1453 C1448 1.425 . S
C1453 C1450 1.409 1_565 S
C1453 C1451 1.415 . S
C1454 H1444 0.930 . S
C1454 C1452 1.419 . S
C1454 C1455 1.362 . S
C1455 H1445 0.930 . S
C1455 C1448 1.409 . S
C1455 C1454 1.362 . S
H1456 C1462 0.930 . S
H1457 C1465 0.930 . S
H1458 C1466 0.930 . S
H1459 C1467 0.930 . S
H1460 C1470 0.930 . S
H1461 C1471 0.930 . S
C1462 H1456 0.930 . S
C1462 C1463 1.355 . S
C1462 C1464 1.415 . S
C1463 C1462 1.355 . S
C1463 C1465 1.419 . S
C1464 C1462 1.415 . S
C1464 C1469 1.425 . S
C1464 C1471 1.409 . S
C1465 H1457 0.930 . S
C1465 C1463 1.419 . S
C1465 C1466 1.362 . S
C1466 H1458 0.930 . S
C1466 C1465 1.362 . S
C1466 C1469 1.409 . S
C1467 H1459 0.930 . S
C1467 C1468 1.355 . S
C1467 C1469 1.415 . S
C1468 C1467 1.355 . S
C1468 C1470 1.419 . S
C1469 C1464 1.425 . S
C1469 C1466 1.409 . S
C1469 C1467 1.415 . S
C1470 H1460 0.930 . S
C1470 C1468 1.419 . S
C1470 C1471 1.362 . S
C1471 H1461 0.930 . S
C1471 C1464 1.409 . S
C1471 C1470 1.362 . S
H1472 C1478 0.930 1_565 S
H1473 C1481 0.930 . S
H1474 C1482 0.930 . S
H1475 C1483 0.930 . S
H1476 C1486 0.930 . S
H1477 C1487 0.930 . S
C1478 H1472 0.930 1_545 S
C1478 C1479 1.355 . S
C1478 C1480 1.415 . S
C1479 C1478 1.355 . S
C1479 C1481 1.419 . S
C1480 C1478 1.415 . S
C1480 C1485 1.425 . S
C1480 C1487 1.409 1_545 S
C1481 H1473 0.930 . S
C1481 C1479 1.419 . S
C1481 C1482 1.362 . S
C1482 H1474 0.930 . S
C1482 C1481 1.362 . S
C1482 C1485 1.409 . S
C1483 H1475 0.930 . S
C1483 C1484 1.355 . S
C1483 C1485 1.415 . S
C1484 C1483 1.355 . S
C1484 C1486 1.419 1_545 S
C1485 C1480 1.425 . S
C1485 C1482 1.409 . S
C1485 C1483 1.415 . S
C1486 H1476 0.930 . S
C1486 C1484 1.419 1_565 S
C1486 C1487 1.362 . S
C1487 H1477 0.930 . S
C1487 C1480 1.409 1_565 S
C1487 C1486 1.362 . S
H1488 C1494 0.930 . S
H1489 C1497 0.930 . S
H1490 C1498 0.930 . S
H1491 C1499 0.930 . S
H1492 C1502 0.930 . S
H1493 C1503 0.930 . S
C1494 H1488 0.930 . S
C1494 C1495 1.355 . S
C1494 C1496 1.415 . S
C1495 C1494 1.355 . S
C1495 C1497 1.419 . S
C1496 C1494 1.415 . S
C1496 C1501 1.425 . S
C1496 C1503 1.409 . S
C1497 H1489 0.930 . S
C1497 C1495 1.419 . S
C1497 C1498 1.362 . S
C1498 H1490 0.930 . S
C1498 C1497 1.362 . S
C1498 C1501 1.409 . S
C1499 H1491 0.930 . S
C1499 C1500 1.355 . S
C1499 C1501 1.415 . S
C1500 C1499 1.355 . S
C1500 C1502 1.419 . S
C1501 C1496 1.425 . S
C1501 C1498 1.409 . S
C1501 C1499 1.415 . S
C1502 H1492 0.930 . S
C1502 C1500 1.419 . S
C1502 C1503 1.362 . S
C1503 H1493 0.930 . S
C1503 C1496 1.409 . S
C1503 C1502 1.362 . S
H1504 C1510 0.930 . S
H1505 C1513 0.930 . S
H1506 C1514 0.930 . S
H1507 C1515 0.930 . S
H1508 C1518 0.927 1_545 S
H1509 C1519 0.930 1_545 S
C1510 H1504 0.930 . S
C1510 C1511 1.355 . S
C1510 C1512 1.415 . S
C1511 C1510 1.355 . S
C1511 C1513 1.419 . S
C1512 C1510 1.415 . S
C1512 C1517 1.425 . S
C1512 C1519 1.409 . S
C1513 H1505 0.930 . S
C1513 C1511 1.419 . S
C1513 C1514 1.362 . S
C1514 H1506 0.930 . S
C1514 C1513 1.362 . S
C1514 C1517 1.409 . S
C1515 H1507 0.930 . S
C1515 C1516 1.355 . S
C1515 C1517 1.415 . S
C1516 C1515 1.355 . S
C1516 C1518 1.421 . S
C1517 C1512 1.425 . S
C1517 C1514 1.409 . S
C1517 C1515 1.415 . S
C1518 H1508 0.927 1_565 S
C1518 C1516 1.421 . S
C1518 C1519 1.363 . S
C1519 H1509 0.930 1_565 S
C1519 C1512 1.409 . S
C1519 C1518 1.363 . S
H1520 C1526 0.930 . S
H1521 C1529 0.930 . S
H1522 C1530 0.930 . S
H1523 C1531 0.930 . S
H1524 C1534 0.930 . S
H1525 C1535 0.930 . S
C1526 H1520 0.930 . S
C1526 C1527 1.355 . S
C1526 C1528 1.415 . S
C1527 C1526 1.355 . S
C1527 C1529 1.419 . S
C1528 C1526 1.415 . S
C1528 C1533 1.425 . S
C1528 C1535 1.409 . S
C1529 H1521 0.930 . S
C1529 C1527 1.419 . S
C1529 C1530 1.362 . S
C1530 H1522 0.930 . S
C1530 C1529 1.362 . S
C1530 C1533 1.409 . S
C1531 H1523 0.930 . S
C1531 C1532 1.355 . S
C1531 C1533 1.415 . S
C1532 C1531 1.355 . S
C1532 C1534 1.419 . S
C1533 C1528 1.425 . S
C1533 C1530 1.409 . S
C1533 C1531 1.415 . S
C1534 H1524 0.930 . S
C1534 C1532 1.419 . S
C1534 C1535 1.362 . S
C1535 H1525 0.930 . S
C1535 C1528 1.409 . S
C1535 C1534 1.362 . S
H1536 C1542 0.930 . S
H1537 C1545 0.930 . S
H1538 C1546 0.930 . S
H1539 C1547 0.930 . S
H1540 C1550 0.930 . S
H1541 C1551 0.930 . S
C1542 H1536 0.930 . S
C1542 C1543 1.355 . S
C1542 C1544 1.415 . S
C1543 C1542 1.355 . S
C1543 C1545 1.419 . S
C1544 C1542 1.415 . S
C1544 C1549 1.425 . S
C1544 C1551 1.409 . S
C1545 H1537 0.930 . S
C1545 C1543 1.419 . S
C1545 C1546 1.362 . S
C1546 H1538 0.930 . S
C1546 C1545 1.362 . S
C1546 C1549 1.409 . S
C1547 H1539 0.930 . S
C1547 C1548 1.355 . S
C1547 C1549 1.415 . S
C1548 C1547 1.355 . S
C1548 C1550 1.419 . S
C1549 C1544 1.425 . S
C1549 C1546 1.409 . S
C1549 C1547 1.415 . S
C1550 H1540 0.930 . S
C1550 C1548 1.419 . S
C1550 C1551 1.362 . S
C1551 H1541 0.930 . S
C1551 C1544 1.409 . S
C1551 C1550 1.362 . S
H1552 C1558 0.930 . S
H1553 C1561 0.930 . S
H1554 C1562 0.930 . S
H1555 C1563 0.930 . S
H1556 C1566 0.930 . S
H1557 C1567 0.930 . S
C1558 H1552 0.930 . S
C1558 C1559 1.355 . S
C1558 C1560 1.415 . S
C1559 C1558 1.355 . S
C1559 C1561 1.419 . S
C1560 C1558 1.415 . S
C1560 C1565 1.425 . S
C1560 C1567 1.409 . S
C1561 H1553 0.930 . S
C1561 C1559 1.419 . S
C1561 C1562 1.362 . S
C1562 H1554 0.930 . S
C1562 C1561 1.362 . S
C1562 C1565 1.409 . S
C1563 H1555 0.930 . S
C1563 C1564 1.355 . S
C1563 C1565 1.415 . S
C1564 C1563 1.355 . S
C1564 C1566 1.419 . S
C1565 C1560 1.425 . S
C1565 C1562 1.409 . S
C1565 C1563 1.415 . S
C1566 H1556 0.930 . S
C1566 C1564 1.419 . S
C1566 C1567 1.362 . S
C1567 H1557 0.930 . S
C1567 C1560 1.409 . S
C1567 C1566 1.362 . S
H1568 C1574 0.930 . S
H1569 C1577 0.930 . S
H1570 C1578 0.930 . S
H1571 C1579 0.930 . S
H1572 C1582 0.930 . S
H1573 C1583 0.930 . S
C1574 H1568 0.930 . S
C1574 C1575 1.355 1_565 S
C1574 C1576 1.415 . S
C1575 C1574 1.355 1_545 S
C1575 C1577 1.419 . S
C1576 C1574 1.415 . S
C1576 C1581 1.425 1_565 S
C1576 C1583 1.409 . S
C1577 H1569 0.930 . S
C1577 C1575 1.419 . S
C1577 C1578 1.362 . S
C1578 H1570 0.930 . S
C1578 C1577 1.362 . S
C1578 C1581 1.409 . S
C1579 H1571 0.930 . S
C1579 C1580 1.355 . S
C1579 C1581 1.415 . S
C1580 C1579 1.355 . S
C1580 C1582 1.419 1_545 S
C1581 C1576 1.425 1_545 S
C1581 C1578 1.409 . S
C1581 C1579 1.415 . S
C1582 H1572 0.930 . S
C1582 C1580 1.419 1_565 S
C1582 C1583 1.362 . S
C1583 H1573 0.930 . S
C1583 C1576 1.409 . S
C1583 C1582 1.362 . S
H1584 C1590 0.930 . S
H1585 C1593 0.930 . S
H1586 C1594 0.930 . S
H1587 C1595 0.930 . S
H1588 C1598 0.930 . S
H1589 C1599 0.930 . S
C1590 H1584 0.930 . S
C1590 C1591 1.355 . S
C1590 C1592 1.415 . S
C1591 C1590 1.355 . S
C1591 C1593 1.419 . S
C1592 C1590 1.415 . S
C1592 C1597 1.425 . S
C1592 C1599 1.409 . S
C1593 H1585 0.930 . S
C1593 C1591 1.419 . S
C1593 C1594 1.362 . S
C1594 H1586 0.930 . S
C1594 C1593 1.362 . S
C1594 C1597 1.409 . S
C1595 H1587 0.930 . S
C1595 C1596 1.355 . S
C1595 C1597 1.415 . S
C1596 C1595 1.355 . S
C1596 C1598 1.419 . S
C1597 C1592 1.425 . S
C1597 C1594 1.409 . S
C1597 C1595 1.415 . S
C1598 H1588 0.930 . S
C1598 C1596 1.419 . S
C1598 C1599 1.362 . S
C1599 H1589 0.930 . S
C1599 C1592 1.409 . S
C1599 C1598 1.362 . S
H1600 C1606 0.930 . S
H1601 C1609 0.930 . S
H1602 C1610 0.930 . S
H1603 C1611 0.930 . S
H1604 C1614 0.930 . S
H1605 C1615 0.930 . S
C1606 H1600 0.930 . S
C1606 C1607 1.355 . S
C1606 C1608 1.415 . S
C1607 C1606 1.355 . S
C1607 C1609 1.419 . S
C1608 C1606 1.415 . S
C1608 C1613 1.425 . S
C1608 C1615 1.409 . S
C1609 H1601 0.930 . S
C1609 C1607 1.419 . S
C1609 C1610 1.362 . S
C1610 H1602 0.930 . S
C1610 C1609 1.362 . S
C1610 C1613 1.409 . S
C1611 H1603 0.930 . S
C1611 C1612 1.355 . S
C1611 C1613 1.415 . S
C1612 C1611 1.355 . S
C1612 C1614 1.419 . S
C1613 C1608 1.425 . S
C1613 C1610 1.409 . S
C1613 C1611 1.415 . S
C1614 H1604 0.930 . S
C1614 C1612 1.419 . S
C1614 C1615 1.362 . S
C1615 H1605 0.930 . S
C1615 C1608 1.409 . S
C1615 C1614 1.362 . S
H1616 C1622 0.930 . S
H1617 C1625 0.930 . S
H1618 C1626 0.930 . S
H1619 C1627 0.930 . S
H1620 C1630 0.930 . S
H1621 C1631 0.930 . S
C1622 H1616 0.930 . S
C1622 C1623 1.355 1_565 S
C1622 C1624 1.415 . S
C1623 C1622 1.355 1_545 S
C1623 C1625 1.419 . S
C1624 C1622 1.415 . S
C1624 C1629 1.425 . S
C1624 C1631 1.409 . S
C1625 H1617 0.930 . S
C1625 C1623 1.419 . S
C1625 C1626 1.362 1_545 S
C1626 H1618 0.930 . S
C1626 C1625 1.362 1_565 S
C1626 C1629 1.409 . S
C1627 H1619 0.930 . S
C1627 C1628 1.355 . S
C1627 C1629 1.415 . S
C1628 C1627 1.355 . S
C1628 C1630 1.419 . S
C1629 C1624 1.425 . S
C1629 C1626 1.409 . S
C1629 C1627 1.415 . S
C1630 H1620 0.930 . S
C1630 C1628 1.419 . S
C1630 C1631 1.362 . S
C1631 H1621 0.930 . S
C1631 C1624 1.409 . S
C1631 C1630 1.362 . S
H1632 C1638 0.930 . S
H1633 C1641 0.930 . S
H1634 C1642 0.930 . S
H1635 C1643 0.930 . S
H1636 C1646 0.930 . S
H1637 C1647 0.930 . S
C1638 H1632 0.930 . S
C1638 C1639 1.355 . S
C1638 C1640 1.415 . S
C1639 C1638 1.355 . S
C1639 C1641 1.419 . S
C1640 C1638 1.415 . S
C1640 C1645 1.425 . S
C1640 C1647 1.409 . S
C1641 H1633 0.930 . S
C1641 C1639 1.419 . S
C1641 C1642 1.362 . S
C1642 H1634 0.930 . S
C1642 C1641 1.362 . S
C1642 C1645 1.409 . S
C1643 H1635 0.930 . S
C1643 C1644 1.355 . S
C1643 C1645 1.415 . S
C1644 C1643 1.355 . S
C1644 C1646 1.419 . S
C1645 C1640 1.425 . S
C1645 C1642 1.409 . S
C1645 C1643 1.415 . S
C1646 H1636 0.930 . S
C1646 C1644 1.419 . S
C1646 C1647 1.362 . S
C1647 H1637 0.930 . S
C1647 C1640 1.409 . S
C1647 C1646 1.362 . S
H1648 C1654 0.930 . S
H1649 C1657 0.930 . S
H1650 C1658 0.930 . S
H1651 C1659 0.930 1_565 S
H1652 C1662 0.929 1_565 S
H1653 C1663 0.930 . S
C1654 H1648 0.930 . S
C1654 C1655 1.355 . S
C1654 C1656 1.415 . S
C1655 C1654 1.355 . S
C1655 C1657 1.419 . S
C1656 C1654 1.415 . S
C1656 C1661 1.425 . S
C1656 C1663 1.409 . S
C1657 H1649 0.930 . S
C1657 C1655 1.419 . S
C1657 C1658 1.362 . S
C1658 H1650 0.930 . S
C1658 C1657 1.362 . S
C1658 C1661 1.409 . S
C1659 H1651 0.930 1_545 S
C1659 C1660 1.355 1_545 S
C1659 C1661 1.415 . S
C1660 C1659 1.355 1_565 S
C1660 C1662 1.419 1_565 S
C1661 C1656 1.425 . S
C1661 C1658 1.409 . S
C1661 C1659 1.415 . S
C1662 H1652 0.929 1_545 S
C1662 C1660 1.419 1_545 S
C1662 C1663 1.362 . S
C1663 H1653 0.930 . S
C1663 C1656 1.409 . S
C1663 C1662 1.362 . S
H1664 C1670 0.930 . S
H1665 C1673 0.930 . S
H1666 C1674 0.930 . S
H1667 C1675 0.930 . S
H1668 C1678 0.930 . S
H1669 C1679 0.930 . S
C1670 H1664 0.930 . S
C1670 C1671 1.355 . S
C1670 C1672 1.415 . S
C1671 C1670 1.355 . S
C1671 C1673 1.419 . S
C1672 C1670 1.415 . S
C1672 C1677 1.425 . S
C1672 C1679 1.409 . S
C1673 H1665 0.930 . S
C1673 C1671 1.419 . S
C1673 C1674 1.362 . S
C1674 H1666 0.930 . S
C1674 C1673 1.362 . S
C1674 C1677 1.409 . S
C1675 H1667 0.930 . S
C1675 C1676 1.355 . S
C1675 C1677 1.415 . S
C1676 C1675 1.355 . S
C1676 C1678 1.419 . S
C1677 C1672 1.425 . S
C1677 C1674 1.409 . S
C1677 C1675 1.415 . S
C1678 H1668 0.930 . S
C1678 C1676 1.419 . S
C1678 C1679 1.362 . S
C1679 H1669 0.930 . S
C1679 C1672 1.409 . S
C1679 C1678 1.362 . S
H1680 C1686 0.930 1_545 S
H1681 C1689 0.930 1_545 S
H1682 C1690 0.930 . S
H1683 C1691 0.930 . S
H1684 C1694 0.930 . S
H1685 C1695 0.930 . S
C1686 H1680 0.930 1_565 S
C1686 C1687 1.355 1_565 S
C1686 C1688 1.415 . S
C1687 C1686 1.355 1_545 S
C1687 C1689 1.419 1_545 S
C1688 C1686 1.415 . S
C1688 C1693 1.425 . S
C1688 C1695 1.409 . S
C1689 H1681 0.930 1_565 S
C1689 C1687 1.419 1_565 S
C1689 C1690 1.362 . S
C1690 H1682 0.930 . S
C1690 C1689 1.362 . S
C1690 C1693 1.409 . S
C1691 H1683 0.930 . S
C1691 C1692 1.355 . S
C1691 C1693 1.415 . S
C1692 C1691 1.355 . S
C1692 C1694 1.419 . S
C1693 C1688 1.425 . S
C1693 C1690 1.409 . S
C1693 C1691 1.415 . S
C1694 H1684 0.930 . S
C1694 C1692 1.419 . S
C1694 C1695 1.362 . S
C1695 H1685 0.930 . S
C1695 C1688 1.409 . S
C1695 C1694 1.362 . S
H1696 C1702 0.930 . S
H1697 C1705 0.930 . S
H1698 C1706 0.930 . S
H1699 C1707 0.930 . S
H1700 C1710 0.930 . S
H1701 C1711 0.930 . S
C1702 H1696 0.930 . S
C1702 C1703 1.355 . S
C1702 C1704 1.415 . S
C1703 C1702 1.355 . S
C1703 C1705 1.419 . S
C1704 C1702 1.415 . S
C1704 C1709 1.425 . S
C1704 C1711 1.409 . S
C1705 H1697 0.930 . S
C1705 C1703 1.419 . S
C1705 C1706 1.362 . S
C1706 H1698 0.930 . S
C1706 C1705 1.362 . S
C1706 C1709 1.409 . S
C1707 H1699 0.930 . S
C1707 C1708 1.355 . S
C1707 C1709 1.415 . S
C1708 C1707 1.355 . S
C1708 C1710 1.419 . S
C1709 C1704 1.425 . S
C1709 C1706 1.409 . S
C1709 C1707 1.415 . S
C1710 H1700 0.930 . S
C1710 C1708 1.419 . S
C1710 C1711 1.362 . S
C1711 H1701 0.930 . S
C1711 C1704 1.409 . S
C1711 C1710 1.362 . S
H1712 C1718 0.930 . S
H1713 C1721 0.930 . S
H1714 C1722 0.930 . S
H1715 C1723 0.930 1_565 S
H1716 C1726 0.930 . S
H1717 C1727 0.930 . S
C1718 H1712 0.930 . S
C1718 C1719 1.355 . S
C1718 C1720 1.415 . S
C1719 C1718 1.355 . S
C1719 C1721 1.419 . S
C1720 C1718 1.415 . S
C1720 C1725 1.425 . S
C1720 C1727 1.409 . S
C1721 H1713 0.930 . S
C1721 C1719 1.419 . S
C1721 C1722 1.362 . S
C1722 H1714 0.930 . S
C1722 C1721 1.362 . S
C1722 C1725 1.409 . S
C1723 H1715 0.930 1_545 S
C1723 C1724 1.355 1_545 S
C1723 C1725 1.415 . S
C1724 C1723 1.355 1_565 S
C1724 C1726 1.419 1_565 S
C1725 C1720 1.425 . S
C1725 C1722 1.409 . S
C1725 C1723 1.415 . S
C1726 H1716 0.930 . S
C1726 C1724 1.419 1_545 S
C1726 C1727 1.362 . S
C1727 H1717 0.930 . S
C1727 C1720 1.409 . S
C1727 C1726 1.362 . S
H1728 C1734 0.930 . S
H1729 C1737 0.930 . S
H1730 C1738 0.930 . S
H1731 C1739 0.930 . S
H1732 C1742 0.930 . S
H1733 C1743 0.930 . S
C1734 H1728 0.930 . S
C1734 C1735 1.355 . S
C1734 C1736 1.415 . S
C1735 C1734 1.355 . S
C1735 C1737 1.419 . S
C1736 C1734 1.415 . S
C1736 C1741 1.425 . S
C1736 C1743 1.409 . S
C1737 H1729 0.930 . S
C1737 C1735 1.419 . S
C1737 C1738 1.362 . S
C1738 H1730 0.930 . S
C1738 C1737 1.362 . S
C1738 C1741 1.409 . S
C1739 H1731 0.930 . S
C1739 C1740 1.355 . S
C1739 C1741 1.415 . S
C1740 C1739 1.355 . S
C1740 C1742 1.419 . S
C1741 C1736 1.425 . S
C1741 C1738 1.409 . S
C1741 C1739 1.415 . S
C1742 H1732 0.930 . S
C1742 C1740 1.419 . S
C1742 C1743 1.362 . S
C1743 H1733 0.930 . S
C1743 C1736 1.409 . S
C1743 C1742 1.362 . S
H1744 C1750 0.930 . S
H1745 C1753 0.930 . S
H1746 C1754 0.930 . S
H1747 C1755 0.930 . S
H1748 C1758 0.930 . S
H1749 C1759 0.930 . S
C1750 H1744 0.930 . S
C1750 C1751 1.355 . S
C1750 C1752 1.415 . S
C1751 C1750 1.355 . S
C1751 C1753 1.419 . S
C1752 C1750 1.415 . S
C1752 C1757 1.425 . S
C1752 C1759 1.409 . S
C1753 H1745 0.930 . S
C1753 C1751 1.419 . S
C1753 C1754 1.362 . S
C1754 H1746 0.930 . S
C1754 C1753 1.362 . S
C1754 C1757 1.409 . S
C1755 H1747 0.930 . S
C1755 C1756 1.355 1_545 S
C1755 C1757 1.415 . S
C1756 C1755 1.355 1_565 S
C1756 C1758 1.419 . S
C1757 C1752 1.425 . S
C1757 C1754 1.409 . S
C1757 C1755 1.415 . S
C1758 H1748 0.930 . S
C1758 C1756 1.419 . S
C1758 C1759 1.362 1_565 S
C1759 H1749 0.930 . S
C1759 C1752 1.409 . S
C1759 C1758 1.362 1_545 S
H1760 C1766 0.930 . S
H1761 C1769 0.930 . S
H1762 C1770 0.930 . S
H1763 C1771 0.930 . S
H1764 C1774 0.930 . S
H1765 C1775 0.930 . S
C1766 H1760 0.930 . S
C1766 C1767 1.355 . S
C1766 C1768 1.415 . S
C1767 C1766 1.355 . S
C1767 C1769 1.419 . S
C1768 C1766 1.415 . S
C1768 C1773 1.425 . S
C1768 C1775 1.409 . S
C1769 H1761 0.930 . S
C1769 C1767 1.419 . S
C1769 C1770 1.362 . S
C1770 H1762 0.930 . S
C1770 C1769 1.362 . S
C1770 C1773 1.409 . S
C1771 H1763 0.930 . S
C1771 C1772 1.355 . S
C1771 C1773 1.415 . S
C1772 C1771 1.355 . S
C1772 C1774 1.419 . S
C1773 C1768 1.425 . S
C1773 C1770 1.409 . S
C1773 C1771 1.415 . S
C1774 H1764 0.930 . S
C1774 C1772 1.419 . S
C1774 C1775 1.362 . S
C1775 H1765 0.930 . S
C1775 C1768 1.409 . S
C1775 C1774 1.362 . S
H1776 C1782 0.930 . S
H1777 C1785 0.930 . S
H1778 C1786 0.930 . S
H1779 C1787 0.930 . S
H1780 C1790 0.930 . S
H1781 C1791 0.930 . S
C1782 H1776 0.930 . S
C1782 C1783 1.355 . S
C1782 C1784 1.415 . S
C1783 C1782 1.355 . S
C1783 C1785 1.419 . S
C1784 C1782 1.415 . S
C1784 C1789 1.425 . S
C1784 C1791 1.409 . S
C1785 H1777 0.930 . S
C1785 C1783 1.419 . S
C1785 C1786 1.362 . S
C1786 H1778 0.930 . S
C1786 C1785 1.362 . S
C1786 C1789 1.409 . S
C1787 H1779 0.930 . S
C1787 C1788 1.355 1_565 S
C1787 C1789 1.415 . S
C1788 C1787 1.355 1_545 S
C1788 C1790 1.419 . S
C1789 C1784 1.425 . S
C1789 C1786 1.409 . S
C1789 C1787 1.415 . S
C1790 H1780 0.930 . S
C1790 C1788 1.419 . S
C1790 C1791 1.362 1_545 S
C1791 H1781 0.930 . S
C1791 C1784 1.409 . S
C1791 C1790 1.362 1_565 S
H1792 C1798 0.930 . S
H1793 C1801 0.930 . S
H1794 C1802 0.930 . S
H1795 C1803 0.930 . S
H1796 C1806 0.930 . S
H1797 C1807 0.930 . S
C1798 H1792 0.930 . S
C1798 C1799 1.355 . S
C1798 C1800 1.415 . S
C1799 C1798 1.355 . S
C1799 C1801 1.419 . S
C1800 C1798 1.415 . S
C1800 C1805 1.425 . S
C1800 C1807 1.409 . S
C1801 H1793 0.930 . S
C1801 C1799 1.419 . S
C1801 C1802 1.362 . S
C1802 H1794 0.930 . S
C1802 C1801 1.362 . S
C1802 C1805 1.409 . S
C1803 H1795 0.930 . S
C1803 C1804 1.355 . S
C1803 C1805 1.415 . S
C1804 C1803 1.355 . S
C1804 C1806 1.419 . S
C1805 C1800 1.425 . S
C1805 C1802 1.409 . S
C1805 C1803 1.415 . S
C1806 H1796 0.930 . S
C1806 C1804 1.419 . S
C1806 C1807 1.362 . S
C1807 H1797 0.930 . S
C1807 C1800 1.409 . S
C1807 C1806 1.362 . S
H1808 C1814 0.930 . S
H1809 C1817 0.930 . S
H1810 C1818 0.930 . S
H1811 C1819 0.930 . S
H1812 C1822 0.930 . S
H1813 C1823 0.930 . S
C1814 H1808 0.930 . S
C1814 C1815 1.355 . S
C1814 C1816 1.415 . S
C1815 C1814 1.355 . S
C1815 C1817 1.419 . S
C1816 C1814 1.415 . S
C1816 C1821 1.425 . S
C1816 C1823 1.409 . S
C1817 H1809 0.930 . S
C1817 C1815 1.419 . S
C1817 C1818 1.362 . S
C1818 H1810 0.930 . S
C1818 C1817 1.362 . S
C1818 C1821 1.409 . S
C1819 H1811 0.930 . S
C1819 C1820 1.355 1_545 S
C1819 C1821 1.415 . S
C1820 C1819 1.355 1_565 S
C1820 C1822 1.419 . S
C1821 C1816 1.425 . S
C1821 C1818 1.409 . S
C1821 C1819 1.415 . S
C1822 H1812 0.930 . S
C1822 C1820 1.419 . S
C1822 C1823 1.362 1_565 S
C1823 H1813 0.930 . S
C1823 C1816 1.409 . S
C1823 C1822 1.362 1_545 S
H1824 C1830 0.930 . S
H1825 C1833 0.930 . S
H1826 C1834 0.930 . S
H1827 C1835 0.930 . S
H1828 C1838 0.930 . S
H1829 C1839 0.930 . S
C1830 H1824 0.930 . S
C1830 C1831 1.355 . S
C1830 C1832 1.415 . S
C1831 C1830 1.355 . S
C1831 C1833 1.419 . S
C1832 C1830 1.415 . S
C1832 C1837 1.425 . S
C1832 C1839 1.409 . S
C1833 H1825 0.930 . S
C1833 C1831 1.419 . S
C1833 C1834 1.362 . S
C1834 H1826 0.930 . S
C1834 C1833 1.362 . S
C1834 C1837 1.409 . S
C1835 H1827 0.930 . S
C1835 C1836 1.355 . S
C1835 C1837 1.415 . S
C1836 C1835 1.355 . S
C1836 C1838 1.419 . S
C1837 C1832 1.425 . S
C1837 C1834 1.409 . S
C1837 C1835 1.415 . S
C1838 H1828 0.930 . S
C1838 C1836 1.419 . S
C1838 C1839 1.362 . S
C1839 H1829 0.930 . S
C1839 C1832 1.409 . S
C1839 C1838 1.362 . S
H1840 C1846 0.930 1_545 S
H1841 C1849 0.930 . S
H1842 C1850 0.930 . S
H1843 C1851 0.930 . S
H1844 C1854 0.930 . S
H1845 C1855 0.930 . S
C1846 H1840 0.930 1_565 S
C1846 C1847 1.355 1_565 S
C1846 C1848 1.415 . S
C1847 C1846 1.355 1_545 S
C1847 C1849 1.419 1_545 S
C1848 C1846 1.415 . S
C1848 C1853 1.425 . S
C1848 C1855 1.409 . S
C1849 H1841 0.930 . S
C1849 C1847 1.419 1_565 S
C1849 C1850 1.362 . S
C1850 H1842 0.930 . S
C1850 C1849 1.362 . S
C1850 C1853 1.409 . S
C1851 H1843 0.930 . S
C1851 C1852 1.355 . S
C1851 C1853 1.415 . S
C1852 C1851 1.355 . S
C1852 C1854 1.419 . S
C1853 C1848 1.425 . S
C1853 C1850 1.409 . S
C1853 C1851 1.415 . S
C1854 H1844 0.930 . S
C1854 C1852 1.419 . S
C1854 C1855 1.362 . S
C1855 H1845 0.930 . S
C1855 C1848 1.409 . S
C1855 C1854 1.362 . S
H1856 C1862 0.930 . S
H1857 C1865 0.930 . S
H1858 C1866 0.930 . S
H1859 C1867 0.930 . S
H1860 C1870 0.930 . S
H1861 C1871 0.930 . S
C1862 H1856 0.930 . S
C1862 C1863 1.355 . S
C1862 C1864 1.415 . S
C1863 C1862 1.355 . S
C1863 C1865 1.419 . S
C1864 C1862 1.415 . S
C1864 C1869 1.425 . S
C1864 C1871 1.409 . S
C1865 H1857 0.930 . S
C1865 C1863 1.419 . S
C1865 C1866 1.362 . S
C1866 H1858 0.930 . S
C1866 C1865 1.362 . S
C1866 C1869 1.409 . S
C1867 H1859 0.930 . S
C1867 C1868 1.355 . S
C1867 C1869 1.415 . S
C1868 C1867 1.355 . S
C1868 C1870 1.419 . S
C1869 C1864 1.425 . S
C1869 C1866 1.409 . S
C1869 C1867 1.415 . S
C1870 H1860 0.930 . S
C1870 C1868 1.419 . S
C1870 C1871 1.362 . S
C1871 H1861 0.930 . S
C1871 C1864 1.409 . S
C1871 C1870 1.362 . S
H1872 C1878 0.930 . S
H1873 C1881 0.930 . S
H1874 C1882 0.930 . S
H1875 C1883 0.930 . S
H1876 C1886 0.930 . S
H1877 C1887 0.930 . S
C1878 H1872 0.930 . S
C1878 C1879 1.355 . S
C1878 C1880 1.415 . S
C1879 C1878 1.355 . S
C1879 C1881 1.419 . S
C1880 C1878 1.415 . S
C1880 C1885 1.425 . S
C1880 C1887 1.409 . S
C1881 H1873 0.930 . S
C1881 C1879 1.419 . S
C1881 C1882 1.362 . S
C1882 H1874 0.930 . S
C1882 C1881 1.362 . S
C1882 C1885 1.409 . S
C1883 H1875 0.930 . S
C1883 C1884 1.355 . S
C1883 C1885 1.415 . S
C1884 C1883 1.355 . S
C1884 C1886 1.419 . S
C1885 C1880 1.425 . S
C1885 C1882 1.409 . S
C1885 C1883 1.415 . S
C1886 H1876 0.930 . S
C1886 C1884 1.419 . S
C1886 C1887 1.362 . S
C1887 H1877 0.930 . S
C1887 C1880 1.409 . S
C1887 C1886 1.362 . S
H1888 C1894 0.930 . S
H1889 C1897 0.930 . S
H1890 C1898 0.930 . S
H1891 C1899 0.930 . S
H1892 C1902 0.930 . S
H1893 C1903 0.930 . S
C1894 H1888 0.930 . S
C1894 C1895 1.355 . S
C1894 C1896 1.415 . S
C1895 C1894 1.355 . S
C1895 C1897 1.419 . S
C1896 C1894 1.415 . S
C1896 C1901 1.425 . S
C1896 C1903 1.409 . S
C1897 H1889 0.930 . S
C1897 C1895 1.419 . S
C1897 C1898 1.362 . S
C1898 H1890 0.930 . S
C1898 C1897 1.362 . S
C1898 C1901 1.409 . S
C1899 H1891 0.930 . S
C1899 C1900 1.355 . S
C1899 C1901 1.415 . S
C1900 C1899 1.355 . S
C1900 C1902 1.419 . S
C1901 C1896 1.425 . S
C1901 C1898 1.409 . S
C1901 C1899 1.415 . S
C1902 H1892 0.930 . S
C1902 C1900 1.419 . S
C1902 C1903 1.362 . S
C1903 H1893 0.930 . S
C1903 C1896 1.409 . S
C1903 C1902 1.362 . S
H1904 C1910 0.930 . S
H1905 C1913 0.930 . S
H1906 C1914 0.930 . S
H1907 C1915 0.930 . S
H1908 C1918 0.930 . S
H1909 C1919 0.930 . S
C1910 H1904 0.930 . S
C1910 C1911 1.355 . S
C1910 C1912 1.415 . S
C1911 C1910 1.355 . S
C1911 C1913 1.419 . S
C1912 C1910 1.415 . S
C1912 C1917 1.425 . S
C1912 C1919 1.409 . S
C1913 H1905 0.930 . S
C1913 C1911 1.419 . S
C1913 C1914 1.362 . S
C1914 H1906 0.930 . S
C1914 C1913 1.362 . S
C1914 C1917 1.409 . S
C1915 H1907 0.930 . S
C1915 C1916 1.355 . S
C1915 C1917 1.415 . S
C1916 C1915 1.355 . S
C1916 C1918 1.419 . S
C1917 C1912 1.425 . S
C1917 C1914 1.409 . S
C1917 C1915 1.415 . S
C1918 H1908 0.930 . S
C1918 C1916 1.419 . S
C1918 C1919 1.362 . S
C1919 H1909 0.930 . S
C1919 C1912 1.409 . S
C1919 C1918 1.362 . S
H1920 C1926 0.930 . S
H1921 C1929 0.930 . S
H1922 C1930 0.930 . S
H1923 C1931 0.930 . S
H1924 C1934 0.930 . S
H1925 C1935 0.930 . S
C1926 H1920 0.930 . S
C1926 C1927 1.355 . S
C1926 C1928 1.415 . S
C1927 C1926 1.355 . S
C1927 C1929 1.419 . S
C1928 C1926 1.415 . S
C1928 C1933 1.425 . S
C1928 C1935 1.409 . S
C1929 H1921 0.930 . S
C1929 C1927 1.419 . S
C1929 C1930 1.362 . S
C1930 H1922 0.930 . S
C1930 C1929 1.362 . S
C1930 C1933 1.409 . S
C1931 H1923 0.930 . S
C1931 C1932 1.355 . S
C1931 C1933 1.415 . S
C1932 C1931 1.355 . S
C1932 C1934 1.419 . S
C1933 C1928 1.425 . S
C1933 C1930 1.409 . S
C1933 C1931 1.415 . S
C1934 H1924 0.930 . S
C1934 C1932 1.419 . S
C1934 C1935 1.362 . S
C1935 H1925 0.930 . S
C1935 C1928 1.409 . S
C1935 C1934 1.362 . S
H1936 C1942 0.930 . S
H1937 C1945 0.930 . S
H1938 C1946 0.930 . S
H1939 C1947 0.930 . S
H1940 C1950 0.930 . S
H1941 C1951 0.930 . S
C1942 H1936 0.930 . S
C1942 C1943 1.355 . S
C1942 C1944 1.415 . S
C1943 C1942 1.355 . S
C1943 C1945 1.419 . S
C1944 C1942 1.415 . S
C1944 C1949 1.425 . S
C1944 C1951 1.409 . S
C1945 H1937 0.930 . S
C1945 C1943 1.419 . S
C1945 C1946 1.362 . S
C1946 H1938 0.930 . S
C1946 C1945 1.362 . S
C1946 C1949 1.409 . S
C1947 H1939 0.930 . S
C1947 C1948 1.355 . S
C1947 C1949 1.415 . S
C1948 C1947 1.355 . S
C1948 C1950 1.419 . S
C1949 C1944 1.425 . S
C1949 C1946 1.409 . S
C1949 C1947 1.415 . S
C1950 H1940 0.930 . S
C1950 C1948 1.419 . S
C1950 C1951 1.362 . S
C1951 H1941 0.930 . S
C1951 C1944 1.409 . S
C1951 C1950 1.362 . S
H1952 C1958 0.930 . S
H1953 C1961 0.930 . S
H1954 C1962 0.930 . S
H1955 C1963 0.930 . S
H1956 C1966 0.930 . S
H1957 C1967 0.930 . S
C1958 H1952 0.930 . S
C1958 C1959 1.355 . S
C1958 C1960 1.415 . S
C1959 C1958 1.355 . S
C1959 C1961 1.419 . S
C1960 C1958 1.415 . S
C1960 C1965 1.425 . S
C1960 C1967 1.409 . S
C1961 H1953 0.930 . S
C1961 C1959 1.419 . S
C1961 C1962 1.362 . S
C1962 H1954 0.930 . S
C1962 C1961 1.362 . S
C1962 C1965 1.409 . S
C1963 H1955 0.930 . S
C1963 C1964 1.355 . S
C1963 C1965 1.415 . S
C1964 C1963 1.355 . S
C1964 C1966 1.419 . S
C1965 C1960 1.425 . S
C1965 C1962 1.409 . S
C1965 C1963 1.415 . S
C1966 H1956 0.930 . S
C1966 C1964 1.419 . S
C1966 C1967 1.362 . S
C1967 H1957 0.930 . S
C1967 C1960 1.409 . S
C1967 C1966 1.362 . S
H1968 C1974 0.930 . S
H1969 C1977 0.930 . S
H1970 C1978 0.930 . S
H1971 C1979 0.930 . S
H1972 C1982 0.930 . S
H1973 C1983 0.930 . S
C1974 H1968 0.930 . S
C1974 C1975 1.355 . S
C1974 C1976 1.415 . S
C1975 C1974 1.355 . S
C1975 C1977 1.419 . S
C1976 C1974 1.415 . S
C1976 C1981 1.425 . S
C1976 C1983 1.409 . S
C1977 H1969 0.930 . S
C1977 C1975 1.419 . S
C1977 C1978 1.362 . S
C1978 H1970 0.930 . S
C1978 C1977 1.362 . S
C1978 C1981 1.409 . S
C1979 H1971 0.930 . S
C1979 C1980 1.355 . S
C1979 C1981 1.415 . S
C1980 C1979 1.355 . S
C1980 C1982 1.419 . S
C1981 C1976 1.425 . S
C1981 C1978 1.409 . S
C1981 C1979 1.415 . S
C1982 H1972 0.930 . S
C1982 C1980 1.419 . S
C1982 C1983 1.362 . S
C1983 H1973 0.930 . S
C1983 C1976 1.409 . S
C1983 C1982 1.362 . S
H1984 C1990 0.930 . S
H1985 C1993 0.930 . S
H1986 C1994 0.930 . S
H1987 C1995 0.930 . S
H1988 C1998 0.930 . S
H1989 C1999 0.930 . S
C1990 H1984 0.930 . S
C1990 C1991 1.355 . S
C1990 C1992 1.415 . S
C1991 C1990 1.355 . S
C1991 C1993 1.419 . S
C1992 C1990 1.415 . S
C1992 C1997 1.425 . S
C1992 C1999 1.409 . S
C1993 H1985 0.930 . S
C1993 C1991 1.419 . S
C1993 C1994 1.362 . S
C1994 H1986 0.930 . S
C1994 C1993 1.362 . S
C1994 C1997 1.409 . S
C1995 H1987 0.930 . S
C1995 C1996 1.355 . S
C1995 C1997 1.415 . S
C1996 C1995 1.355 . S
C1996 C1998 1.419 . S
C1997 C1992 1.425 . S
C1997 C1994 1.409 . S
C1997 C1995 1.415 . S
C1998 H1988 0.930 . S
C1998 C1996 1.419 . S
C1998 C1999 1.362 . S
C1999 H1989 0.930 . S
C1999 C1992 1.409 . S
C1999 C1998 1.362 . S
H2000 C2006 0.930 . S
H2001 C2009 0.930 . S
H2002 C2010 0.930 . S
H2003 C2011 0.930 . S
H2004 C2014 0.930 . S
H2005 C2015 0.930 . S
C2006 H2000 0.930 . S
C2006 C2007 1.355 . S
C2006 C2008 1.415 . S
C2007 C2006 1.355 . S
C2007 C2009 1.419 . S
C2008 C2006 1.415 . S
C2008 C2013 1.425 . S
C2008 C2015 1.409 . S
C2009 H2001 0.930 . S
C2009 C2007 1.419 . S
C2009 C2010 1.362 . S
C2010 H2002 0.930 . S
C2010 C2009 1.362 . S
C2010 C2013 1.409 . S
C2011 H2003 0.930 . S
C2011 C2012 1.355 . S
C2011 C2013 1.415 . S
C2012 C2011 1.355 . S
C2012 C2014 1.419 . S
C2013 C2008 1.425 . S
C2013 C2010 1.409 . S
C2013 C2011 1.415 . S
C2014 H2004 0.930 . S
C2014 C2012 1.419 . S
C2014 C2015 1.362 . S
C2015 H2005 0.930 . S
C2015 C2008 1.409 . S
C2015 C2014 1.362 . S
H2016 C2022 0.930 . S
H2017 C2025 0.930 . S
H2018 C2026 0.930 . S
H2019 C2027 0.930 . S
H2020 C2030 0.930 . S
H2021 C2031 0.930 . S
C2022 H2016 0.930 . S
C2022 C2023 1.355 . S
C2022 C2024 1.415 . S
C2023 C2022 1.355 . S
C2023 C2025 1.419 . S
C2024 C2022 1.415 . S
C2024 C2029 1.425 . S
C2024 C2031 1.409 . S
C2025 H2017 0.930 . S
C2025 C2023 1.419 . S
C2025 C2026 1.362 . S
C2026 H2018 0.930 . S
C2026 C2025 1.362 . S
C2026 C2029 1.409 . S
C2027 H2019 0.930 . S
C2027 C2028 1.355 . S
C2027 C2029 1.415 . S
C2028 C2027 1.355 . S
C2028 C2030 1.419 . S
C2029 C2024 1.425 . S
C2029 C2026 1.409 . S
C2029 C2027 1.415 . S
C2030 H2020 0.930 . S
C2030 C2028 1.419 . S
C2030 C2031 1.362 . S
C2031 H2021 0.930 . S
C2031 C2024 1.409 . S
C2031 C2030 1.362 . S
H2032 C2038 0.930 . S
H2033 C2041 0.930 . S
H2034 C2042 0.930 . S
H2035 C2043 0.930 . S
H2036 C2046 0.930 . S
H2037 C2047 0.930 . S
C2038 H2032 0.930 . S
C2038 C2039 1.355 . S
C2038 C2040 1.415 . S
C2039 C2038 1.355 . S
C2039 C2041 1.419 . S
C2040 C2038 1.415 . S
C2040 C2045 1.425 . S
C2040 C2047 1.409 . S
C2041 H2033 0.930 . S
C2041 C2039 1.419 . S
C2041 C2042 1.362 . S
C2042 H2034 0.930 . S
C2042 C2041 1.362 . S
C2042 C2045 1.409 . S
C2043 H2035 0.930 . S
C2043 C2044 1.355 . S
C2043 C2045 1.415 . S
C2044 C2043 1.355 . S
C2044 C2046 1.419 . S
C2045 C2040 1.425 . S
C2045 C2042 1.409 . S
C2045 C2043 1.415 . S
C2046 H2036 0.930 . S
C2046 C2044 1.419 . S
C2046 C2047 1.362 . S
C2047 H2037 0.930 . S
C2047 C2040 1.409 . S
C2047 C2046 1.362 . S
H2048 C2054 0.930 . S
H2049 C2057 0.930 . S
H2050 C2058 0.930 . S
H2051 C2059 0.930 . S
H2052 C2062 0.930 . S
H2053 C2063 0.930 . S
C2054 H2048 0.930 . S
C2054 C2055 1.355 . S
C2054 C2056 1.415 . S
C2055 C2054 1.355 . S
C2055 C2057 1.419 . S
C2056 C2054 1.415 . S
C2056 C2061 1.425 . S
C2056 C2063 1.409 . S
C2057 H2049 0.930 . S
C2057 C2055 1.419 . S
C2057 C2058 1.362 . S
C2058 H2050 0.930 . S
C2058 C2057 1.362 . S
C2058 C2061 1.409 . S
C2059 H2051 0.930 . S
C2059 C2060 1.355 . S
C2059 C2061 1.415 . S
C2060 C2059 1.355 . S
C2060 C2062 1.419 . S
C2061 C2056 1.425 . S
C2061 C2058 1.409 . S
C2061 C2059 1.415 . S
C2062 H2052 0.930 . S
C2062 C2060 1.419 . S
C2062 C2063 1.362 . S
C2063 H2053 0.930 . S
C2063 C2056 1.409 . S
C2063 C2062 1.362 . S
H2064 C2070 0.930 . S
H2065 C2073 0.930 . S
H2066 C2074 0.930 . S
H2067 C2075 0.930 . S
H2068 C2078 0.930 . S
H2069 C2079 0.930 . S
C2070 H2064 0.930 . S
C2070 C2071 1.355 . S
C2070 C2072 1.415 . S
C2071 C2070 1.355 . S
C2071 C2073 1.419 . S
C2072 C2070 1.415 . S
C2072 C2077 1.425 . S
C2072 C2079 1.409 . S
C2073 H2065 0.930 . S
C2073 C2071 1.419 . S
C2073 C2074 1.362 . S
C2074 H2066 0.930 . S
C2074 C2073 1.362 . S
C2074 C2077 1.409 . S
C2075 H2067 0.930 . S
C2075 C2076 1.355 . S
C2075 C2077 1.415 . S
C2076 C2075 1.355 . S
C2076 C2078 1.419 . S
C2077 C2072 1.425 . S
C2077 C2074 1.409 . S
C2077 C2075 1.415 . S
C2078 H2068 0.930 . S
C2078 C2076 1.419 . S
C2078 C2079 1.362 . S
C2079 H2069 0.930 . S
C2079 C2072 1.409 . S
C2079 C2078 1.362 . S
H2080 C2086 0.930 . S
H2081 C2089 0.930 . S
H2082 C2090 0.930 . S
H2083 C2091 0.930 . S
H2084 C2094 0.930 . S
H2085 C2095 0.930 . S
C2086 H2080 0.930 . S
C2086 C2087 1.355 . S
C2086 C2088 1.415 . S
C2087 C2086 1.355 . S
C2087 C2089 1.419 . S
C2088 C2086 1.415 . S
C2088 C2093 1.425 . S
C2088 C2095 1.409 . S
C2089 H2081 0.930 . S
C2089 C2087 1.419 . S
C2089 C2090 1.362 . S
C2090 H2082 0.930 . S
C2090 C2089 1.362 . S
C2090 C2093 1.409 . S
C2091 H2083 0.930 . S
C2091 C2092 1.355 . S
C2091 C2093 1.415 . S
C2092 C2091 1.355 . S
C2092 C2094 1.419 . S
C2093 C2088 1.425 . S
C2093 C2090 1.409 . S
C2093 C2091 1.415 . S
C2094 H2084 0.930 . S
C2094 C2092 1.419 . S
C2094 C2095 1.362 . S
C2095 H2085 0.930 . S
C2095 C2088 1.409 . S
C2095 C2094 1.362 . S
H2096 C2102 0.930 . S
H2097 C2105 0.930 . S
H2098 C2106 0.930 . S
H2099 C2107 0.930 . S
H2100 C2110 0.930 . S
H2101 C2111 0.930 . S
C2102 H2096 0.930 . S
C2102 C2103 1.355 . S
C2102 C2104 1.415 . S
C2103 C2102 1.355 . S
C2103 C2105 1.419 . S
C2104 C2102 1.415 . S
C2104 C2109 1.425 . S
C2104 C2111 1.409 . S
C2105 H2097 0.930 . S
C2105 C2103 1.419 . S
C2105 C2106 1.362 . S
C2106 H2098 0.930 . S
C2106 C2105 1.362 . S
C2106 C2109 1.409 . S
C2107 H2099 0.930 . S
C2107 C2108 1.355 . S
C2107 C2109 1.415 . S
C2108 C2107 1.355 . S
C2108 C2110 1.419 . S
C2109 C2104 1.425 . S
C2109 C2106 1.409 . S
C2109 C2107 1.415 . S
C2110 H2100 0.930 . S
C2110 C2108 1.419 . S
C2110 C2111 1.362 . S
C2111 H2101 0.930 . S
C2111 C2104 1.409 . S
C2111 C2110 1.362 . S
H2112 C2118 0.930 . S
H2113 C2121 0.930 . S
H2114 C2122 0.930 . S
H2115 C2123 0.930 . S
H2116 C2126 0.930 . S
H2117 C2127 0.930 . S
C2118 H2112 0.930 . S
C2118 C2119 1.355 . S
C2118 C2120 1.415 . S
C2119 C2118 1.355 . S
C2119 C2121 1.419 . S
C2120 C2118 1.415 . S
C2120 C2125 1.425 . S
C2120 C2127 1.409 . S
C2121 H2113 0.930 . S
C2121 C2119 1.419 . S
C2121 C2122 1.362 . S
C2122 H2114 0.930 . S
C2122 C2121 1.362 . S
C2122 C2125 1.409 . S
C2123 H2115 0.930 . S
C2123 C2124 1.355 . S
C2123 C2125 1.415 . S
C2124 C2123 1.355 . S
C2124 C2126 1.419 . S
C2125 C2120 1.425 . S
C2125 C2122 1.409 . S
C2125 C2123 1.415 . S
C2126 H2116 0.930 . S
C2126 C2124 1.419 . S
C2126 C2127 1.362 . S
C2127 H2117 0.930 . S
C2127 C2120 1.409 . S
C2127 C2126 1.362 . S
H2128 C2134 0.930 . S
H2129 C2137 0.930 . S
H2130 C2138 0.930 . S
H2131 C2139 0.930 . S
H2132 C2142 0.930 . S
H2133 C2143 0.930 . S
C2134 H2128 0.930 . S
C2134 C2135 1.355 . S
C2134 C2136 1.415 . S
C2135 C2134 1.355 . S
C2135 C2137 1.419 . S
C2136 C2134 1.415 . S
C2136 C2141 1.425 1_655 S
C2136 C2143 1.409 1_655 S
C2137 H2129 0.930 . S
C2137 C2135 1.419 . S
C2137 C2138 1.362 . S
C2138 H2130 0.930 . S
C2138 C2137 1.362 . S
C2138 C2141 1.409 1_655 S
C2139 H2131 0.930 . S
C2139 C2140 1.355 . S
C2139 C2141 1.415 . S
C2140 C2139 1.355 . S
C2140 C2142 1.419 . S
C2141 C2136 1.425 1_455 S
C2141 C2138 1.409 1_455 S
C2141 C2139 1.415 . S
C2142 H2132 0.930 . S
C2142 C2140 1.419 . S
C2142 C2143 1.362 . S
C2143 H2133 0.930 . S
C2143 C2136 1.409 1_455 S
C2143 C2142 1.362 . S
H2144 C2150 0.930 . S
H2145 C2153 0.930 . S
H2146 C2154 0.930 . S
H2147 C2155 0.930 . S
H2148 C2158 0.930 . S
H2149 C2159 0.930 . S
C2150 H2144 0.930 . S
C2150 C2151 1.355 . S
C2150 C2152 1.415 . S
C2151 C2150 1.355 . S
C2151 C2153 1.419 1_655 S
C2152 C2150 1.415 . S
C2152 C2157 1.425 1_655 S
C2152 C2159 1.409 . S
C2153 H2145 0.930 . S
C2153 C2151 1.419 1_455 S
C2153 C2154 1.362 . S
C2154 H2146 0.930 . S
C2154 C2153 1.362 . S
C2154 C2157 1.409 . S
C2155 H2147 0.930 . S
C2155 C2156 1.355 . S
C2155 C2157 1.415 . S
C2156 C2155 1.355 . S
C2156 C2158 1.419 1_455 S
C2157 C2152 1.425 1_455 S
C2157 C2154 1.409 . S
C2157 C2155 1.415 . S
C2158 H2148 0.930 . S
C2158 C2156 1.419 1_655 S
C2158 C2159 1.362 . S
C2159 H2149 0.930 . S
C2159 C2152 1.409 . S
C2159 C2158 1.362 . S
H2160 C2166 0.930 . S
H2161 C2169 0.930 . S
H2162 C2170 0.930 . S
H2163 C2171 0.930 . S
H2164 C2174 0.930 . S
H2165 C2175 0.930 . S
C2166 H2160 0.930 . S
C2166 C2167 1.355 . S
C2166 C2168 1.415 . S
C2167 C2166 1.355 . S
C2167 C2169 1.419 . S
C2168 C2166 1.415 . S
C2168 C2173 1.425 . S
C2168 C2175 1.409 . S
C2169 H2161 0.930 . S
C2169 C2167 1.419 . S
C2169 C2170 1.362 . S
C2170 H2162 0.930 . S
C2170 C2169 1.362 . S
C2170 C2173 1.409 . S
C2171 H2163 0.930 . S
C2171 C2172 1.355 . S
C2171 C2173 1.415 . S
C2172 C2171 1.355 . S
C2172 C2174 1.419 . S
C2173 C2168 1.425 . S
C2173 C2170 1.409 . S
C2173 C2171 1.415 . S
C2174 H2164 0.930 . S
C2174 C2172 1.419 . S
C2174 C2175 1.362 . S
C2175 H2165 0.930 . S
C2175 C2168 1.409 . S
C2175 C2174 1.362 . S
H2176 C2182 0.930 . S
H2177 C2185 0.930 . S
H2178 C2186 0.930 . S
H2179 C2187 0.930 . S
H2180 C2190 0.930 . S
H2181 C2191 0.930 . S
C2182 H2176 0.930 . S
C2182 C2183 1.355 . S
C2182 C2184 1.415 . S
C2183 C2182 1.355 . S
C2183 C2185 1.419 . S
C2184 C2182 1.415 . S
C2184 C2189 1.425 . S
C2184 C2191 1.409 . S
C2185 H2177 0.930 . S
C2185 C2183 1.419 . S
C2185 C2186 1.362 . S
C2186 H2178 0.930 . S
C2186 C2185 1.362 . S
C2186 C2189 1.409 . S
C2187 H2179 0.930 . S
C2187 C2188 1.355 . S
C2187 C2189 1.415 . S
C2188 C2187 1.355 . S
C2188 C2190 1.419 . S
C2189 C2184 1.425 . S
C2189 C2186 1.409 . S
C2189 C2187 1.415 . S
C2190 H2180 0.930 . S
C2190 C2188 1.419 . S
C2190 C2191 1.362 . S
C2191 H2181 0.930 . S
C2191 C2184 1.409 . S
C2191 C2190 1.362 . S
H2192 C2198 0.930 . S
H2193 C2201 0.930 . S
H2194 C2202 0.930 . S
H2195 C2203 0.930 . S
H2196 C2206 0.930 . S
H2197 C2207 0.930 . S
C2198 H2192 0.930 . S
C2198 C2199 1.355 . S
C2198 C2200 1.415 . S
C2199 C2198 1.355 . S
C2199 C2201 1.419 . S
C2200 C2198 1.415 . S
C2200 C2205 1.425 . S
C2200 C2207 1.409 . S
C2201 H2193 0.930 . S
C2201 C2199 1.419 . S
C2201 C2202 1.362 . S
C2202 H2194 0.930 . S
C2202 C2201 1.362 . S
C2202 C2205 1.409 . S
C2203 H2195 0.930 . S
C2203 C2204 1.355 . S
C2203 C2205 1.415 . S
C2204 C2203 1.355 . S
C2204 C2206 1.419 . S
C2205 C2200 1.425 . S
C2205 C2202 1.409 . S
C2205 C2203 1.415 . S
C2206 H2196 0.930 . S
C2206 C2204 1.419 . S
C2206 C2207 1.362 . S
C2207 H2197 0.930 . S
C2207 C2200 1.409 . S
C2207 C2206 1.362 . S
H2208 C2214 0.930 . S
H2209 C2217 0.930 . S
H2210 C2218 0.930 . S
H2211 C2219 0.930 . S
H2212 C2222 0.930 . S
H2213 C2223 0.930 . S
C2214 H2208 0.930 . S
C2214 C2215 1.355 . S
C2214 C2216 1.415 . S
C2215 C2214 1.355 . S
C2215 C2217 1.419 1_455 S
C2216 C2214 1.415 . S
C2216 C2221 1.425 1_455 S
C2216 C2223 1.409 . S
C2217 H2209 0.930 . S
C2217 C2215 1.419 1_655 S
C2217 C2218 1.362 . S
C2218 H2210 0.930 . S
C2218 C2217 1.362 . S
C2218 C2221 1.409 . S
C2219 H2211 0.930 . S
C2219 C2220 1.355 . S
C2219 C2221 1.415 . S
C2220 C2219 1.355 . S
C2220 C2222 1.419 1_655 S
C2221 C2216 1.425 1_655 S
C2221 C2218 1.409 . S
C2221 C2219 1.415 . S
C2222 H2212 0.930 . S
C2222 C2220 1.419 1_455 S
C2222 C2223 1.362 . S
C2223 H2213 0.930 . S
C2223 C2216 1.409 . S
C2223 C2222 1.362 . S
H2224 C2230 0.930 . S
H2225 C2233 0.930 . S
H2226 C2234 0.930 1_455 S
H2227 C2235 0.930 . S
H2228 C2238 0.930 . S
H2229 C2239 0.930 1_655 S
C2230 H2224 0.930 . S
C2230 C2231 1.355 . S
C2230 C2232 1.415 . S
C2231 C2230 1.355 . S
C2231 C2233 1.419 . S
C2232 C2230 1.415 . S
C2232 C2237 1.425 1_655 S
C2232 C2239 1.409 1_655 S
C2233 H2225 0.930 . S
C2233 C2231 1.419 . S
C2233 C2234 1.362 . S
C2234 H2226 0.930 1_655 S
C2234 C2233 1.362 . S
C2234 C2237 1.409 1_655 S
C2235 H2227 0.930 . S
C2235 C2236 1.355 . S
C2235 C2237 1.415 . S
C2236 C2235 1.355 . S
C2236 C2238 1.419 . S
C2237 C2232 1.425 1_455 S
C2237 C2234 1.409 1_455 S
C2237 C2235 1.415 . S
C2238 H2228 0.930 . S
C2238 C2236 1.419 . S
C2238 C2239 1.362 . S
C2239 H2229 0.930 1_455 S
C2239 C2232 1.409 1_455 S
C2239 C2238 1.362 . S
H2240 C2246 0.930 . S
H2241 C2249 0.930 . S
H2242 C2250 0.930 . S
H2243 C2251 0.930 . S
H2244 C2254 0.930 . S
H2245 C2255 0.930 . S
C2246 H2240 0.930 . S
C2246 C2247 1.355 . S
C2246 C2248 1.415 . S
C2247 C2246 1.355 . S
C2247 C2249 1.419 . S
C2248 C2246 1.415 . S
C2248 C2253 1.425 . S
C2248 C2255 1.409 . S
C2249 H2241 0.930 . S
C2249 C2247 1.419 . S
C2249 C2250 1.362 . S
C2250 H2242 0.930 . S
C2250 C2249 1.362 . S
C2250 C2253 1.409 . S
C2251 H2243 0.930 . S
C2251 C2252 1.355 . S
C2251 C2253 1.415 . S
C2252 C2251 1.355 . S
C2252 C2254 1.419 . S
C2253 C2248 1.425 . S
C2253 C2250 1.409 . S
C2253 C2251 1.415 . S
C2254 H2244 0.930 . S
C2254 C2252 1.419 . S
C2254 C2255 1.362 . S
C2255 H2245 0.930 . S
C2255 C2248 1.409 . S
C2255 C2254 1.362 . S
H2256 C2262 0.930 . S
H2257 C2265 0.930 . S
H2258 C2266 0.930 . S
H2259 C2267 0.930 . S
H2260 C2270 0.930 . S
H2261 C2271 0.930 . S
C2262 H2256 0.930 . S
C2262 C2263 1.355 . S
C2262 C2264 1.415 . S
C2263 C2262 1.355 . S
C2263 C2265 1.419 . S
C2264 C2262 1.415 . S
C2264 C2269 1.425 1_655 S
C2264 C2271 1.409 1_655 S
C2265 H2257 0.930 . S
C2265 C2263 1.419 . S
C2265 C2266 1.362 . S
C2266 H2258 0.930 . S
C2266 C2265 1.362 . S
C2266 C2269 1.409 1_655 S
C2267 H2259 0.930 . S
C2267 C2268 1.355 . S
C2267 C2269 1.415 . S
C2268 C2267 1.355 . S
C2268 C2270 1.419 . S
C2269 C2264 1.425 1_455 S
C2269 C2266 1.409 1_455 S
C2269 C2267 1.415 . S
C2270 H2260 0.930 . S
C2270 C2268 1.419 . S
C2270 C2271 1.362 . S
C2271 H2261 0.930 . S
C2271 C2264 1.409 1_455 S
C2271 C2270 1.362 . S
H2272 C2278 0.930 . S
H2273 C2281 0.930 . S
H2274 C2282 0.930 . S
H2275 C2283 0.930 . S
H2276 C2286 0.930 . S
H2277 C2287 0.930 . S
C2278 H2272 0.930 . S
C2278 C2279 1.355 . S
C2278 C2280 1.415 . S
C2279 C2278 1.355 . S
C2279 C2281 1.419 1_655 S
C2280 C2278 1.415 . S
C2280 C2285 1.425 1_655 S
C2280 C2287 1.409 . S
C2281 H2273 0.930 . S
C2281 C2279 1.419 1_455 S
C2281 C2282 1.362 . S
C2282 H2274 0.930 . S
C2282 C2281 1.362 . S
C2282 C2285 1.409 . S
C2283 H2275 0.930 . S
C2283 C2284 1.355 . S
C2283 C2285 1.415 . S
C2284 C2283 1.355 . S
C2284 C2286 1.419 1_455 S
C2285 C2280 1.425 1_455 S
C2285 C2282 1.409 . S
C2285 C2283 1.415 . S
C2286 H2276 0.930 . S
C2286 C2284 1.419 1_655 S
C2286 C2287 1.362 . S
C2287 H2277 0.930 . S
C2287 C2280 1.409 . S
C2287 C2286 1.362 . S
H2288 C2294 0.930 . S
H2289 C2297 0.930 . S
H2290 C2298 0.930 . S
H2291 C2299 0.930 . S
H2292 C2302 0.930 . S
H2293 C2303 0.930 . S
C2294 H2288 0.930 . S
C2294 C2295 1.355 . S
C2294 C2296 1.415 . S
C2295 C2294 1.355 . S
C2295 C2297 1.419 . S
C2296 C2294 1.415 . S
C2296 C2301 1.425 . S
C2296 C2303 1.409 . S
C2297 H2289 0.930 . S
C2297 C2295 1.419 . S
C2297 C2298 1.362 . S
C2298 H2290 0.930 . S
C2298 C2297 1.362 . S
C2298 C2301 1.409 . S
C2299 H2291 0.930 . S
C2299 C2300 1.355 . S
C2299 C2301 1.415 . S
C2300 C2299 1.355 . S
C2300 C2302 1.419 . S
C2301 C2296 1.425 . S
C2301 C2298 1.409 . S
C2301 C2299 1.415 . S
C2302 H2292 0.930 . S
C2302 C2300 1.419 . S
C2302 C2303 1.362 . S
C2303 H2293 0.930 . S
C2303 C2296 1.409 . S
C2303 C2302 1.362 . S
H2304 C2310 0.930 . S
H2305 C2313 0.930 . S
H2306 C2314 0.930 . S
H2307 C2315 0.930 . S
H2308 C2318 0.930 . S
H2309 C2319 0.930 . S
C2310 H2304 0.930 . S
C2310 C2311 1.355 . S
C2310 C2312 1.415 . S
C2311 C2310 1.355 . S
C2311 C2313 1.419 . S
C2312 C2310 1.415 . S
C2312 C2317 1.425 . S
C2312 C2319 1.409 . S
C2313 H2305 0.930 . S
C2313 C2311 1.419 . S
C2313 C2314 1.362 . S
C2314 H2306 0.930 . S
C2314 C2313 1.362 . S
C2314 C2317 1.409 . S
C2315 H2307 0.930 . S
C2315 C2316 1.355 . S
C2315 C2317 1.415 . S
C2316 C2315 1.355 . S
C2316 C2318 1.419 . S
C2317 C2312 1.425 . S
C2317 C2314 1.409 . S
C2317 C2315 1.415 . S
C2318 H2308 0.930 . S
C2318 C2316 1.419 . S
C2318 C2319 1.362 . S
C2319 H2309 0.930 . S
C2319 C2312 1.409 . S
C2319 C2318 1.362 . S
H2320 C2326 0.930 . S
H2321 C2329 0.930 . S
H2322 C2330 0.930 . S
H2323 C2331 0.930 . S
H2324 C2334 0.930 . S
H2325 C2335 0.930 . S
C2326 H2320 0.930 . S
C2326 C2327 1.355 . S
C2326 C2328 1.415 . S
C2327 C2326 1.355 . S
C2327 C2329 1.419 . S
C2328 C2326 1.415 . S
C2328 C2333 1.425 . S
C2328 C2335 1.409 . S
C2329 H2321 0.930 . S
C2329 C2327 1.419 . S
C2329 C2330 1.362 . S
C2330 H2322 0.930 . S
C2330 C2329 1.362 . S
C2330 C2333 1.409 . S
C2331 H2323 0.930 . S
C2331 C2332 1.355 . S
C2331 C2333 1.415 . S
C2332 C2331 1.355 . S
C2332 C2334 1.419 . S
C2333 C2328 1.425 . S
C2333 C2330 1.409 . S
C2333 C2331 1.415 . S
C2334 H2324 0.930 . S
C2334 C2332 1.419 . S
C2334 C2335 1.362 . S
C2335 H2325 0.930 . S
C2335 C2328 1.409 . S
C2335 C2334 1.362 . S
H2336 C2342 0.930 . S
H2337 C2345 0.930 . S
H2338 C2346 0.930 . S
H2339 C2347 0.930 . S
H2340 C2350 0.930 . S
H2341 C2351 0.930 . S
C2342 H2336 0.930 . S
C2342 C2343 1.355 . S
C2342 C2344 1.415 . S
C2343 C2342 1.355 . S
C2343 C2345 1.419 1_655 S
C2344 C2342 1.415 . S
C2344 C2349 1.425 1_655 S
C2344 C2351 1.409 . S
C2345 H2337 0.930 . S
C2345 C2343 1.419 1_455 S
C2345 C2346 1.362 . S
C2346 H2338 0.930 . S
C2346 C2345 1.362 . S
C2346 C2349 1.409 . S
C2347 H2339 0.930 . S
C2347 C2348 1.355 . S
C2347 C2349 1.415 . S
C2348 C2347 1.355 . S
C2348 C2350 1.419 1_455 S
C2349 C2344 1.425 1_455 S
C2349 C2346 1.409 . S
C2349 C2347 1.415 . S
C2350 H2340 0.930 . S
C2350 C2348 1.419 1_655 S
C2350 C2351 1.362 . S
C2351 H2341 0.930 . S
C2351 C2344 1.409 . S
C2351 C2350 1.362 . S
H2352 C2358 0.930 . S
H2353 C2361 0.930 . S
H2354 C2362 0.930 . S
H2355 C2363 0.930 . S
H2356 C2366 0.930 . S
H2357 C2367 0.930 . S
C2358 H2352 0.930 . S
C2358 C2359 1.355 . S
C2358 C2360 1.415 . S
C2359 C2358 1.355 . S
C2359 C2361 1.419 . S
C2360 C2358 1.415 . S
C2360 C2365 1.425 1_455 S
C2360 C2367 1.409 1_455 S
C2361 H2353 0.930 . S
C2361 C2359 1.419 . S
C2361 C2362 1.362 . S
C2362 H2354 0.930 . S
C2362 C2361 1.362 . S
C2362 C2365 1.409 1_455 S
C2363 H2355 0.930 . S
C2363 C2364 1.355 . S
C2363 C2365 1.415 . S
C2364 C2363 1.355 . S
C2364 C2366 1.419 . S
C2365 C2360 1.425 1_655 S
C2365 C2362 1.409 1_655 S
C2365 C2363 1.415 . S
C2366 H2356 0.930 . S
C2366 C2364 1.419 . S
C2366 C2367 1.362 . S
C2367 H2357 0.930 . S
C2367 C2360 1.409 1_655 S
C2367 C2366 1.362 . S
C1095 C2 1.541 . S
C1100 C274 1.541 . S
C1111 C36 1.542 . S
C1116 C852 1.542 . S
C1127 C342 1.531 . S
C1132 C70 1.531 . S
C1143 C920 1.531 . S
C1148 C104 1.531 . S
C1159 C410 1.519 . S
C1164 C138 1.519 . S
C1175 C172 1.518 . S
C1180 C988 1.518 . S
C1191 C478 1.520 . S
C1196 C206 1.520 . S
C1207 C1056 1.535 . S
C1212 C240 1.535 . S
C1223 C308 1.527 . S
C1228 C580 1.527 . S
C1239 C376 1.541 . S
C1244 C648 1.541 . S
C1255 C716 1.543 . S
C1260 C444 1.543 . S
C1271 C512 1.542 . S
C1276 C784 1.542 . S
C1287 C546 1.542 . S
C1292 C818 1.542 . S
C1303 C886 1.535 . S
C1308 C614 1.535 . S
C1319 C954 1.535 . S
C1324 C682 1.535 . S
C1335 C750 1.540 . S
C1340 C1022 1.540 . S
C1351 C5 0.840 . S
C1356 C485 0.740 . S
C1367 C1063 0.929 . S
C1372 C39 0.902 . S
C1383 C417 0.774 . S
C1388 C73 0.808 . S
C1399 C995 0.930 . S
C1404 C107 0.905 . S
C1415 C349 0.926 . S
C1420 C141 0.931 . S
C1431 C175 0.838 . S
C1436 C927 0.738 . S
C1447 C281 0.817 . S
C1452 C209 0.820 . S
C1463 C243 0.873 . S
C1468 C859 0.774 . S
C1479 C277 0.824 . S
C1484 C213 0.826 . S
C1495 C311 0.897 . S
C1500 C791 0.925 . S
C1511 C345 0.932 . S
C1516 C145 0.902 . S
C1527 C723 0.770 . S
C1532 C379 0.870 . S
C1543 C77 0.744 . S
C1548 C413 0.809 . S
C1559 C655 0.811 . S
C1564 C447 0.896 . S
C1575 C481 0.873 . S
C1580 C9 0.903 . S
C1591 C587 0.809 . S
C1596 C515 0.818 . S
C1607 C549 0.813 . S
C1612 C1029 0.737 . S
C1623 C519 0.776 . S
C1628 C583 0.808 . S
C1639 C961 0.793 . S
C1644 C617 0.812 . S
C1655 C651 0.891 . S
C1660 C451 0.921 . S
C1671 C893 0.870 . S
C1676 C685 0.924 . S
C1687 C383 0.808 . S
C1692 C719 0.895 . S
C1703 C753 0.807 . S
C1708 C825 0.769 . S
C1719 C787 0.921 . S
C1724 C315 0.935 . S
C1735 C821 0.809 . S
C1740 C757 0.744 . S
C1751 C855 0.816 . S
C1756 C247 0.735 . S
C1767 C889 0.922 . S
C1772 C689 0.867 . S
C1783 C923 0.809 . S
C1788 C179 0.745 . S
C1799 C621 0.740 . S
C1804 C957 0.811 . S
C1815 C991 0.814 . S
C1820 C111 0.736 . S
C1831 C553 0.840 . S
C1836 C1025 0.831 . S
C1847 C43 0.935 . S
C1852 C1059 0.914 . S
C1863 C258 1.820 . S
C1868 C20 1.807 . S
C1879 C156 1.796 . S
C1884 C54 1.802 . S
C1895 C88 1.844 . S
C1900 C190 1.832 . S
C1911 C122 1.799 . S
C1916 C224 1.808 . S
C1927 C530 1.808 . S
C1932 C292 1.799 . S
C1943 C326 1.829 . S
C1948 C428 1.842 . S
C1959 C462 1.825 . S
C1964 C360 1.839 . S
C1975 C496 1.838 . S
C1980 C394 1.848 . S
C1991 C564 1.821 . S
C1996 C802 1.808 . S
C2007 C598 1.840 . S
C2012 C700 1.827 . S
C2023 C632 1.846 . S
C2028 C734 1.849 . S
C2039 C768 1.802 . S
C2044 C666 1.815 . S
C2055 C1074 1.829 . S
C2060 C836 1.815 . S
C2071 C972 1.829 . S
C2076 C870 1.815 . S
C2087 C904 1.849 . S
C2092 C1006 1.847 . S
C2103 C938 1.846 . S
C2108 C1040 1.850 . S
C2119 C33 2.217 . S
C2124 C645 2.223 . S
C2135 C679 2.218 . S
C2140 C67 2.225 . S
C2151 C577 2.219 . S
C2156 C101 2.226 . S
C2167 C611 2.219 . S
C2172 C135 2.220 . S
C2183 C781 2.220 . S
C2188 C169 2.225 . S
C2199 C815 2.220 . S
C2204 C203 2.218 . S
C2215 C237 2.225 . S
C2220 C713 2.221 . S
C2231 C747 2.219 . S
C2236 C271 2.220 . S
C2247 C917 2.223 . S
C2252 C305 2.217 . S
C2263 C339 2.224 . S
C2268 C951 2.221 . S
C2279 C373 2.226 . S
C2284 C849 2.218 . S
C2295 C407 2.225 . S
C2300 C883 2.220 . S
C2311 C441 2.221 . S
C2316 C1053 2.225 . S
C2327 C1087 2.221 . S
C2332 C475 2.218 . S
C2343 C509 2.225 . S
C2348 C985 2.222 . S
C2359 C1019 2.225 . S
C2364 C543 2.221 . S
