# Generated by pormake.
# Topology vbn, (6)-cn, num edge types: 1
# Building blocks:
#     Node 0, Type 0, BuildingBlock: OJICUG_clean_sbu_0, # of connection points: 6
#     Node 1, Type 0, BuildingBlock: OJICUG_clean_sbu_0, # of connection points: 6
#     Node 2, Type 0, BuildingBlock: OJICUG_clean_sbu_0, # of connection points: 6
#     Node 3, Type 0, BuildingBlock: OJICUG_clean_sbu_0, # of connection points: 6
#     Node 4, Type 0, BuildingBlock: OJICUG_clean_sbu_0, # of connection points: 6
#     Node 5, Type 0, BuildingBlock: OJICUG_clean_sbu_0, # of connection points: 6
#     Node 6, Type 0, BuildingBlock: OJICUG_clean_sbu_0, # of connection points: 6
#     Node 7, Type 0, BuildingBlock: OJICUG_clean_sbu_0, # of connection points: 6
#     Edge 8, Type (0, 0), BuildingBlock: KIFKEQ_clean_linker_1, # of connection points: 2
#     Edge 9, Type (0, 0), BuildingBlock: KIFKEQ_clean_linker_1, # of connection points: 2
#     Edge 10, Type (0, 0), BuildingBlock: KIFKEQ_clean_linker_1, # of connection points: 2
#     Edge 11, Type (0, 0), BuildingBlock: KIFKEQ_clean_linker_1, # of connection points: 2
#     Edge 12, Type (0, 0), BuildingBlock: KIFKEQ_clean_linker_1, # of connection points: 2
#     Edge 13, Type (0, 0), BuildingBlock: KIFKEQ_clean_linker_1, # of connection points: 2
#     Edge 14, Type (0, 0), BuildingBlock: KIFKEQ_clean_linker_1, # of connection points: 2
#     Edge 15, Type (0, 0), BuildingBlock: KIFKEQ_clean_linker_1, # of connection points: 2
#     Edge 16, Type (0, 0), BuildingBlock: KIFKEQ_clean_linker_1, # of connection points: 2
#     Edge 17, Type (0, 0), BuildingBlock: KIFKEQ_clean_linker_1, # of connection points: 2
#     Edge 18, Type (0, 0), BuildingBlock: KIFKEQ_clean_linker_1, # of connection points: 2
#     Edge 19, Type (0, 0), BuildingBlock: KIFKEQ_clean_linker_1, # of connection points: 2
#     Edge 20, Type (0, 0), BuildingBlock: KIFKEQ_clean_linker_1, # of connection points: 2
#     Edge 21, Type (0, 0), BuildingBlock: KIFKEQ_clean_linker_1, # of connection points: 2
#     Edge 22, Type (0, 0), BuildingBlock: KIFKEQ_clean_linker_1, # of connection points: 2
#     Edge 23, Type (0, 0), BuildingBlock: KIFKEQ_clean_linker_1, # of connection points: 2
#     Edge 24, Type (0, 0), BuildingBlock: KIFKEQ_clean_linker_1, # of connection points: 2
#     Edge 25, Type (0, 0), BuildingBlock: KIFKEQ_clean_linker_1, # of connection points: 2
#     Edge 26, Type (0, 0), BuildingBlock: KIFKEQ_clean_linker_1, # of connection points: 2
#     Edge 27, Type (0, 0), BuildingBlock: KIFKEQ_clean_linker_1, # of connection points: 2
#     Edge 28, Type (0, 0), BuildingBlock: KIFKEQ_clean_linker_1, # of connection points: 2
#     Edge 29, Type (0, 0), BuildingBlock: KIFKEQ_clean_linker_1, # of connection points: 2
#     Edge 30, Type (0, 0), BuildingBlock: KIFKEQ_clean_linker_1, # of connection points: 2
#     Edge 31, Type (0, 0), BuildingBlock: KIFKEQ_clean_linker_1, # of connection points: 2
# Relax obj value: 0.292
# Max RMSD: 0.267
# Mean RMSD: 0.267
data_MOF--net-vbn--node1-OJICUG_clean_sbu_0--edge1-KIFKEQ_clean_linker_1
_symmetry_space_group_name_H-M    P1
_symmetry_Int_Tables_number       1
_symmetry_cell_setting            triclinic
loop_
_symmetry_equiv_pos_as_xyz
'x, y, z'
_cell_length_a     26.745896
_cell_length_b     29.823884
_cell_length_c     48.308557
_cell_angle_alpha  90.187571
_cell_angle_beta   90.097722
_cell_angle_gamma 89.433452
loop_
_atom_site_label
_atom_site_type_symbol
_atom_site_fract_x
_atom_site_fract_y
_atom_site_fract_z
_atom_type_partial_charge
Sc0 Sc 0.31031 0.27931 0.37795 0.0
Sc1 Sc 0.37639 0.26337 0.43859 0.0
Sc2 Sc 0.41304 0.34398 0.39324 0.0
O3 O 0.36667 0.29504 0.40285 0.0
C4 C 0.40376 0.29454 0.33715 0.0
C5 C 0.33553 0.18532 0.39883 0.0
C6 C 0.4839 0.26941 0.42218 0.0
C7 C 0.26335 0.27827 0.43928 0.0
C8 C 0.30824 0.38363 0.37409 0.0
C9 C 0.40705 0.36373 0.45388 0.0
O10 O 0.35684 0.28796 0.34065 0.0
O11 O 0.34422 0.20073 0.42306 0.0
O12 O 0.47601 0.30943 0.41355 0.0
O13 O 0.26006 0.26843 0.41346 0.0
O14 O 0.35583 0.38492 0.37311 0.0
O15 O 0.41035 0.32183 0.45901 0.0
O16 O 0.28476 0.34746 0.37798 0.0
O17 O 0.3047 0.28571 0.4513 0.0
O18 O 0.39372 0.37797 0.43039 0.0
O19 O 0.33269 0.21046 0.37777 0.0
O20 O 0.43163 0.31066 0.35591 0.0
O21 O 0.44846 0.24195 0.42546 0.0
Sc22 Sc 0.17647 0.20556 0.87678 0.0
Sc23 Sc 0.11831 0.23406 0.93856 0.0
Sc24 Sc 0.06726 0.15434 0.89646 0.0
O25 O 0.12038 0.19886 0.90345 0.0
C26 C 0.07796 0.19684 0.83872 0.0
C27 C 0.16447 0.30378 0.89482 0.0
C28 C 0.00842 0.23688 0.92578 0.0
C29 C 0.22933 0.20741 0.93647 0.0
C30 C 0.16395 0.1017 0.87652 0.0
C31 C 0.07909 0.13843 0.95758 0.0
O32 O 0.1257 0.19838 0.84109 0.0
O33 O 0.155 0.29206 0.9197 0.0
O34 O 0.01102 0.19626 0.91727 0.0
O35 O 0.2314 0.21426 0.91033 0.0
O36 O 0.11651 0.10588 0.8764 0.0
O37 O 0.08097 0.18064 0.96188 0.0
O38 O 0.1926 0.1352 0.87855 0.0
O39 O 0.18855 0.20615 0.94979 0.0
O40 O 0.08625 0.12166 0.93388 0.0
O41 O 0.1639 0.27622 0.87475 0.0
O42 O 0.04942 0.18624 0.85856 0.0
O43 O 0.04697 0.26117 0.92794 0.0
Sc44 Sc 0.8118 0.20752 0.61286 0.0
Sc45 Sc 0.88931 0.23347 0.55782 0.0
Sc46 Sc 0.91789 0.14466 0.59968 0.0
O47 O 0.87237 0.19564 0.5902 0.0
C48 C 0.90122 0.19001 0.65625 0.0
C49 C 0.84129 0.30559 0.60023 0.0
C50 C -0.00614 0.21778 0.57656 0.0
C51 C 0.77509 0.22239 0.54975 0.0
C52 C 0.81274 0.10376 0.61278 0.0
C53 C 0.91535 0.13257 0.53808 0.0
O54 O 0.85423 0.19507 0.65145 0.0
O55 O 0.85933 0.29519 0.57654 0.0
O56 O 0.98361 0.17706 0.58194 0.0
O57 O 0.76655 0.22194 0.57587 0.0
O58 O 0.85962 0.1031 0.61725 0.0
O59 O 0.92096 0.17497 0.5351 0.0
O60 O 0.78903 0.13981 0.60808 0.0
O61 O 0.81881 0.22093 0.53955 0.0
O62 O 0.90165 0.11557 0.56078 0.0
O63 O 0.82948 0.27632 0.61794 0.0
O64 O 0.93207 0.17552 0.63828 0.0
O65 O 0.95984 0.24752 0.57609 0.0
Sc66 Sc 0.56501 0.35334 0.09536 0.0
Sc67 Sc 0.60248 0.26164 0.05764 0.0
Sc68 Sc 0.67396 0.29702 0.11403 0.0
O69 O 0.61422 0.30344 0.08945 0.0
C70 C 0.66577 0.40209 0.11126 0.0
C71 C 0.56876 0.35708 0.03335 0.0
C72 C 0.71603 0.28361 0.05178 0.0
C73 C 0.49583 0.27232 0.07415 0.0
C74 C 0.57981 0.31559 0.15486 0.0
C75 C 0.65454 0.19574 0.10204 0.0
O76 O 0.61835 0.40155 0.11044 0.0
O77 O 0.56668 0.31431 0.03208 0.0
O78 O 0.72316 0.28655 0.07802 0.0
O79 O 0.50302 0.31387 0.07899 0.0
O80 O 0.62634 0.30638 0.15095 0.0
O81 O 0.63574 0.20353 0.07825 0.0
O82 O 0.55087 0.32995 0.13587 0.0
O83 O 0.53176 0.24435 0.0744 0.0
O84 O 0.66417 0.22675 0.11915 0.0
O85 O 0.58136 0.37721 0.05529 0.0
O86 O 0.69192 0.36651 0.11084 0.0
O87 O 0.67309 0.27839 0.04094 0.0
Sc88 Sc 0.57681 0.64838 0.60241 0.0
Sc89 Sc 0.61962 0.71945 0.55238 0.0
Sc90 Sc 0.68198 0.71104 0.61462 0.0
O91 O 0.62604 0.69321 0.58991 0.0
C92 C 0.58843 0.70392 0.65568 0.0
C93 C 0.50997 0.71816 0.56679 0.0
C94 C 0.65622 0.80224 0.59001 0.0
C95 C 0.58902 0.61665 0.54297 0.0
C96 C 0.68101 0.60858 0.62321 0.0
C97 C 0.73254 0.70702 0.55426 0.0
O98 O 0.55896 0.68928 0.63721 0.0
O99 O 0.54688 0.74322 0.56204 0.0
O100 O 0.65906 0.77894 0.61186 0.0
O101 O 0.59473 0.60713 0.56826 0.0
O102 O 0.7058 0.64314 0.61703 0.0
O103 O 0.69227 0.69592 0.54235 0.0
O104 O 0.6333 0.6094 0.62524 0.0
O105 O 0.58913 0.65718 0.53428 0.0
O106 O 0.73388 0.71972 0.5796 0.0
O107 O 0.51524 0.68028 0.57894 0.0
O108 O 0.63582 0.70568 0.65218 0.0
O109 O 0.6491 0.7846 0.56613 0.0
Sc110 Sc 0.80724 0.79024 0.1137 0.0
Sc111 Sc 0.86033 0.78597 0.04896 0.0
Sc112 Sc 0.91212 0.85202 0.09923 0.0
O113 O 0.8601 0.80904 0.08748 0.0
C114 C 0.81222 0.89218 0.12535 0.0
C115 C 0.74875 0.79965 0.05545 0.0
C116 C 0.89286 0.88821 0.04157 0.0
C117 C 0.82642 0.70094 0.08477 0.0
C118 C 0.90643 0.79369 0.15136 0.0
C119 C 0.97161 0.78242 0.05989 0.0
O120 O 0.78572 0.85845 0.11934 0.0
O121 O 0.78749 0.81224 0.04271 0.0
O122 O 0.89031 0.89595 0.06724 0.0
O123 O 0.82778 0.72186 0.10766 0.0
O124 O 0.93374 0.80888 0.13217 0.0
O125 O 0.93299 0.75936 0.0552 0.0
O126 O 0.8587 0.79202 0.14937 0.0
O127 O 0.82989 0.72092 0.06146 0.0
O128 O 0.96953 0.82015 0.07261 0.0
O129 O 0.7506 0.78544 0.08046 0.0
O130 O 0.86004 0.8904 0.12531 0.0
O131 O 0.8911 0.84839 0.03171 0.0
Sc132 Sc 0.07129 0.84537 0.38584 0.0
Sc133 Sc 0.10814 0.76761 0.43373 0.0
Sc134 Sc 0.17933 0.78412 0.37472 0.0
O135 O 0.1202 0.79879 0.39815 0.0
C136 C 0.0872 0.79236 0.33206 0.0
C137 C 0.00068 0.77583 0.41693 0.0
C138 C 0.1517 0.68875 0.39437 0.0
C139 C 0.08096 0.87142 0.44616 0.0
C140 C 0.17442 0.88703 0.36822 0.0
C141 C 0.22234 0.77837 0.43737 0.0
O142 O 0.05617 0.80641 0.35006 0.0
O143 O 0.03632 0.74811 0.41967 0.0
O144 O 0.16132 0.71492 0.37447 0.0
O145 O 0.08813 0.88309 0.42134 0.0
O146 O 0.20044 0.85291 0.37471 0.0
O147 O 0.17991 0.78469 0.44845 0.0
O148 O 0.12729 0.88498 0.36451 0.0
O149 O 0.07844 0.83006 0.45337 0.0
O150 O 0.22822 0.77413 0.41113 0.0
O151 O 0.00807 0.81518 0.40766 0.0
O152 O 0.13458 0.79089 0.33636 0.0
O153 O 0.13714 0.70308 0.41807 0.0
Sc154 Sc 0.41319 0.65081 0.88828 0.0
Sc155 Sc 0.34314 0.7061 0.93777 0.0
Sc156 Sc 0.30291 0.70418 0.8702 0.0
O157 O 0.35424 0.68794 0.89872 0.0
C158 C 0.40483 0.70692 0.83563 0.0
C159 C 0.45715 0.72001 0.93381 0.0
C160 C 0.31152 0.79261 0.90086 0.0
C161 C 0.3865 0.60629 0.94423 0.0
C162 C 0.32019 0.60297 0.86008 0.0
C163 C 0.23567 0.69122 0.92392 0.0
O164 O 0.43185 0.6968 0.8563 0.0
O165 O 0.41456 0.73595 0.94027 0.0
O166 O 0.31771 0.77297 0.87767 0.0
O167 O 0.39722 0.60264 0.91886 0.0
O168 O 0.28886 0.63456 0.86451 0.0
O169 O 0.27248 0.67463 0.93676 0.0
O170 O 0.36759 0.60884 0.86098 0.0
O171 O 0.37308 0.64344 0.9553 0.0
O172 O 0.24119 0.70922 0.90023 0.0
O173 O 0.46277 0.68745 0.91666 0.0
O174 O 0.35725 0.70368 0.83622 0.0
O175 O 0.31209 0.77149 0.92402 0.0
H176 H 0.27212 0.90523 0.35683 0.0
H177 H 0.13285 0.96799 0.38153 0.0
H178 H 0.31553 0.97616 0.36447 0.0
H179 H 0.17654 0.03848 0.38967 0.0
H180 H 0.28576 0.13284 0.43557 0.0
H181 H 0.24735 0.06012 0.4262 0.0
H182 H 0.3114 0.05923 0.34427 0.0
H183 H 0.34901 0.13233 0.35336 0.0
C184 C 0.2507 0.93434 0.36346 0.0
C185 C 0.19904 0.93119 0.36837 0.0
C186 C 0.27556 0.97477 0.36792 0.0
C187 C 0.24941 0.01245 0.37798 0.0
C188 C 0.19758 0.00968 0.38219 0.0
C189 C 0.17252 0.96955 0.37718 0.0
C190 C 0.29253 0.11666 0.4158 0.0
C191 C 0.32044 0.13814 0.39521 0.0
C192 C 0.2701 0.07539 0.41034 0.0
C193 C 0.27606 0.05449 0.38442 0.0
C194 C 0.30624 0.07474 0.36439 0.0
C195 C 0.32778 0.11643 0.36963 0.0
H196 H 0.21481 0.35999 0.92971 0.0
H197 H 0.15689 0.35006 0.84641 0.0
H198 H 0.25476 0.43091 0.91781 0.0
H199 H 0.19629 0.42113 0.83471 0.0
H200 H 0.22815 0.57694 0.84196 0.0
H201 H 0.18887 0.50437 0.84952 0.0
H202 H 0.32672 0.45302 0.88418 0.0
H203 H 0.36642 0.52533 0.87617 0.0
C204 C 0.20984 0.37334 0.90905 0.0
C205 C 0.18258 0.34955 0.88903 0.0
C206 C 0.23323 0.41357 0.90214 0.0
C207 C 0.22905 0.43115 0.87525 0.0
C208 C 0.20018 0.40828 0.85556 0.0
C209 C 0.17759 0.36769 0.8623 0.0
C210 C 0.25047 0.54979 0.85049 0.0
C211 C 0.30042 0.55686 0.85842 0.0
C212 C 0.22791 0.50835 0.85492 0.0
C213 C 0.25455 0.47339 0.86784 0.0
C214 C 0.30517 0.47967 0.87453 0.0
C215 C 0.32806 0.52086 0.86958 0.0
H216 H 0.64499 0.52535 0.63684 0.0
H217 H 0.78015 0.59374 0.61306 0.0
H218 H 0.68961 0.45352 0.63345 0.0
H219 H 0.82393 0.52219 0.60944 0.0
H220 H 0.85027 0.38034 0.56726 0.0
H221 H 0.81476 0.45501 0.57605 0.0
H222 H 0.76364 0.41171 0.65621 0.0
H223 H 0.7993 0.33774 0.64788 0.0
C224 C 0.68423 0.52522 0.63133 0.0
C225 C 0.70879 0.56541 0.6252 0.0
C226 C 0.70976 0.48412 0.62938 0.0
C227 C 0.76008 0.48242 0.62093 0.0
C228 C 0.78503 0.52256 0.61567 0.0
C229 C 0.75984 0.56356 0.61798 0.0
C230 C 0.83233 0.38697 0.58695 0.0
C231 C 0.82736 0.35278 0.60669 0.0
C232 C 0.81196 0.42967 0.59197 0.0
C233 C 0.78589 0.43879 0.61667 0.0
C234 C 0.78284 0.40532 0.63684 0.0
C235 C 0.80362 0.36298 0.63202 0.0
H236 H 0.7092 0.16971 0.14715 0.0
H237 H 0.63783 0.11716 0.07363 0.0
H238 H 0.74461 0.09601 0.15687 0.0
H239 H 0.67332 0.04308 0.0837 0.0
H240 H 0.71169 0.90884 0.12301 0.0
H241 H 0.66964 0.98132 0.12021 0.0
H242 H 0.81063 0.04773 0.13242 0.0
H243 H 0.85334 0.97502 0.135 0.0
C244 C 0.70042 0.14238 0.13321 0.0
C245 C 0.67073 0.14954 0.10945 0.0
C246 C 0.72106 0.1002 0.13878 0.0
C247 C 0.71199 0.06398 0.12098 0.0
C248 C 0.68068 0.07047 0.09786 0.0
C249 C 0.66046 0.11289 0.09206 0.0
C250 C 0.73387 0.93875 0.12558 0.0
C251 C 0.78615 0.93596 0.12904 0.0
C252 C 0.70964 0.98029 0.12376 0.0
C253 C 0.73692 0.02005 0.12575 0.0
C254 C 0.78866 0.0175 0.13088 0.0
C255 C 0.81311 0.97585 0.13239 0.0
H256 H 0.72538 0.08916 0.58547 0.0
H257 H 0.83858 0.02209 0.63465 0.0
H258 H 0.68217 0.01815 0.57906 0.0
H259 H 0.79448 0.95114 0.62854 0.0
H260 H 0.66859 0.84936 0.63783 0.0
H261 H 0.70383 0.92348 0.64335 0.0
H262 H 0.70766 0.93935 0.55466 0.0
H263 H 0.67314 0.86396 0.54875 0.0
C264 C 0.7407 0.05938 0.59522 0.0
C265 C 0.78524 0.0612 0.61077 0.0
C266 C 0.71615 0.01879 0.59129 0.0
C267 C 0.73512 0.97948 0.60329 0.0
C268 C 0.77912 0.98126 0.61921 0.0
C269 C 0.80429 0.02172 0.62269 0.0
C270 C 0.67637 0.86855 0.61936 0.0
C271 C 0.66868 0.85032 0.59276 0.0
C272 C 0.69675 0.91097 0.62264 0.0
C273 C 0.7091 0.93653 0.59946 0.0
C274 C 0.69848 0.91993 0.57284 0.0
C275 C 0.67863 0.87695 0.56949 0.0
H276 H 0.77344 0.65309 0.04653 0.0
H277 H 0.84673 0.64169 0.12599 0.0
H278 H 0.73676 0.57897 0.05304 0.0
H279 H 0.81025 0.56782 0.13241 0.0
H280 H 0.76449 0.41928 0.12133 0.0
H281 H 0.80896 0.48898 0.11268 0.0
H282 H 0.67066 0.55248 0.08729 0.0
H283 H 0.62601 0.48303 0.09592 0.0
C284 C 0.78273 0.63429 0.06502 0.0
C285 C 0.81274 0.65316 0.0858 0.0
C286 C 0.76131 0.59218 0.06889 0.0
C287 C 0.77019 0.56804 0.0934 0.0
C288 C 0.80281 0.58569 0.11333 0.0
C289 C 0.82362 0.62796 0.10965 0.0
C290 C 0.74345 0.44824 0.1142 0.0
C291 C 0.69164 0.44562 0.10944 0.0
C292 C 0.76897 0.48805 0.10918 0.0
C293 C 0.74333 0.52584 0.09896 0.0
C294 C 0.69146 0.52356 0.09471 0.0
C295 C 0.66581 0.48396 0.10004 0.0
H296 H 0.21352 0.39848 0.39321 0.0
H297 H 0.33804 0.46546 0.35486 0.0
H298 H 0.16919 0.47014 0.39749 0.0
H299 H 0.29316 0.53698 0.35888 0.0
H300 H 0.17847 0.64787 0.34599 0.0
H301 H 0.21179 0.57262 0.33955 0.0
H302 H 0.18599 0.54398 0.4258 0.0
H303 H 0.15298 0.62022 0.43267 0.0
C304 C 0.23111 0.42833 0.38524 0.0
C305 C 0.27932 0.42624 0.37356 0.0
C306 C 0.20583 0.46935 0.38796 0.0
C307 C 0.22781 0.50897 0.37859 0.0
C308 C 0.27526 0.50679 0.36613 0.0
C309 C 0.30095 0.4659 0.36384 0.0
C310 C 0.17926 0.62563 0.36367 0.0
C311 C 0.16359 0.64049 0.39002 0.0
C312 C 0.19857 0.58249 0.35989 0.0
C313 C 0.20211 0.55282 0.38222 0.0
C314 C 0.18364 0.56637 0.40822 0.0
C315 C 0.16471 0.60995 0.41214 0.0
H316 H 0.11759 0.0224 0.8878 0.0
H317 H 0.26207 0.07813 0.86875 0.0
H318 H 0.1569 0.94932 0.89562 0.0
H319 H 0.30117 0.00508 0.8767 0.0
H320 H 0.33718 0.85377 0.862 0.0
H321 H 0.30238 0.92883 0.85561 0.0
H322 H 0.2161 0.9145 0.93049 0.0
H323 H 0.25095 0.83892 0.93688 0.0
C324 C 0.15759 0.01898 0.88487 0.0
C325 C 0.18662 0.05615 0.87749 0.0
C326 C 0.18017 0.97724 0.88975 0.0
C327 C 0.23217 0.97163 0.88709 0.0
C328 C 0.261 0.00838 0.87888 0.0
C329 C 0.23853 0.0502 0.87426 0.0
C330 C 0.31139 0.8669 0.87736 0.0
C331 C 0.29678 0.84049 0.89995 0.0
C332 C 0.29153 0.90992 0.8737 0.0
C333 C 0.25615 0.92736 0.89238 0.0
C334 C 0.24284 0.90163 0.91556 0.0
C335 C 0.26326 0.85866 0.91942 0.0
H336 H 0.374 0.44711 0.46715 0.0
H337 H 0.49811 0.35546 0.47812 0.0
H338 H 0.42367 0.50801 0.48615 0.0
H339 H 0.5492 0.41656 0.49552 0.0
H340 H 0.60923 0.52854 0.55076 0.0
H341 H 0.56492 0.46592 0.53107 0.0
H342 H 0.48923 0.55578 0.47431 0.0
H343 H 0.53169 0.61942 0.49563 0.0
C344 C 0.4117 0.43996 0.47423 0.0
C345 C 0.432 0.39659 0.47175 0.0
C346 C 0.44064 0.475 0.48448 0.0
C347 C 0.49097 0.46765 0.49185 0.0
C348 C 0.51053 0.42363 0.49035 0.0
C349 C 0.48116 0.38838 0.48064 0.0
C350 C 0.58373 0.53496 0.53373 0.0
C351 C 0.57334 0.57907 0.52504 0.0
C352 C 0.55834 0.49882 0.52231 0.0
C353 C 0.52246 0.50564 0.50147 0.0
C354 C 0.5154 0.54939 0.49098 0.0
C355 C 0.54048 0.58586 0.50275 0.0
H356 H 0.95149 0.88764 -0.00496 0.0
H357 H 0.87093 0.97565 0.05081 0.0
H358 H -0.0041 0.95214 0.97649 0.0
H359 H 0.91686 0.03932 0.03362 0.0
H360 H 0.9886 0.15027 0.9815 0.0
H361 H 0.93591 0.09008 -0.00148 0.0
H362 H 0.06143 -0.00217 0.99318 0.0
H363 H 0.11291 0.05775 0.97483 0.0
C364 C 0.94228 0.92085 0.00276 0.0
C365 C 0.90816 0.92659 0.02451 0.0
C366 C 0.96848 0.95773 0.99264 0.0
C367 C 0.96117 0.0008 0.00422 0.0
C368 C 0.92374 0.00683 0.02424 0.0
C369 C 0.89733 0.97021 0.03411 0.0
C370 C 0.00525 0.11752 0.98511 0.0
C371 C 0.05484 0.10858 0.97732 0.0
C372 C 0.97495 0.08279 0.99447 0.0
C373 C -0.00598 0.03871 -0.00349 0.0
C374 C 0.04498 0.03094 0.99093 0.0
C375 C 0.07491 0.06544 0.98116 0.0
H376 H 0.00742 0.13556 0.51486 0.0
H377 H 0.87441 0.0556 0.51942 0.0
H378 H 0.05412 0.07126 0.4972 0.0
H379 H 0.91947 0.99192 0.49956 0.0
H380 H 0.01583 0.87058 0.49026 0.0
H381 H 0.97684 0.93667 0.51158 0.0
H382 H 0.07182 0.02217 0.4626 0.0
H383 H 0.11277 0.9568 0.44343 0.0
C384 C 0.9877 0.10469 0.51082 0.0
C385 C 0.9374 0.1005 0.51832 0.0
C386 C 0.01448 0.0675 0.50086 0.0
C387 C 0.99105 0.02563 0.49748 0.0
C388 C 0.93947 0.02287 0.50284 0.0
C389 C 0.91316 0.0597 0.51349 0.0
C390 C 0.02959 0.90354 0.48506 0.0
C391 C 0.06703 0.9085 0.46506 0.0
C392 C 0.00647 0.94157 0.49669 0.0
C393 C 0.01994 0.98516 0.48824 0.0
C394 C 0.06016 0.98962 0.46984 0.0
C395 C 0.08371 0.95187 0.45871 0.0
H396 H 0.36993 0.51991 0.93009 0.0
H397 H 0.43066 0.60264 -0.00481 0.0
H398 H 0.41312 0.45452 0.94897 0.0
H399 H 0.4731 0.53683 0.01464 0.0
H400 H 0.59948 0.43774 0.01556 0.0
H401 H 0.5462 0.49608 -0.0041 0.0
H402 H 0.42636 0.40091 0.98717 0.0
H403 H 0.48063 0.34202 0.00638 0.0
C404 C 0.39116 0.52369 0.94906 0.0
C405 C 0.39754 0.56634 0.96106 0.0
C406 C 0.41596 0.48624 0.95982 0.0
C407 C 0.44768 0.49083 0.98276 0.0
C408 C 0.44993 0.53263 -0.00358 0.0
C409 C 0.42495 0.57015 0.98566 0.0
C410 C 0.56235 0.42894 0.00849 0.0
C411 C 0.54404 0.38552 0.01253 0.0
C412 C 0.53146 0.46253 -0.00217 0.0
C413 C 0.48148 0.45348 0.99107 0.0
C414 C 0.46454 0.409 0.99259 0.0
C415 C 0.49575 0.37515 0.00321 0.0
H416 H 0.61052 0.2599 0.1972 0.0
H417 H 0.49535 0.35549 0.17426 0.0
H418 H 0.56571 0.24488 0.24039 0.0
H419 H 0.45167 0.34132 0.21708 0.0
H420 H 0.3599 0.28801 0.28562 0.0
H421 H 0.4031 0.28607 0.24097 0.0
H422 H 0.54552 0.28161 0.28332 0.0
H423 H 0.50278 0.28198 0.32743 0.0
C424 C 0.57609 0.27802 0.2015 0.0
C425 C 0.55653 0.30879 0.18229 0.0
C426 C 0.55025 0.26929 0.22612 0.0
C427 C 0.50457 0.29136 0.23198 0.0
C428 C 0.48581 0.32268 0.21292 0.0
C429 C 0.51133 0.3312 0.18845 0.0
C430 C 0.40033 0.2856 0.2853 0.0
C431 C 0.42785 0.28604 0.31004 0.0
C432 C 0.42516 0.28488 0.25978 0.0
C433 C 0.47788 0.28449 0.25859 0.0
C434 C 0.50503 0.28176 0.28337 0.0
C435 C 0.48036 0.28245 0.30874 0.0
H436 H 0.98304 0.22656 0.83005 0.0
H437 H 0.11712 0.18572 0.78667 0.0
H438 H 0.93829 0.23236 0.78637 0.0
H439 H 0.07184 0.19003 0.74282 0.0
H440 H 0.99017 0.2285 0.66598 0.0
H441 H 0.03274 0.23778 0.71004 0.0
H442 H 0.90441 0.18348 0.7522 0.0
H443 H 0.86098 0.1759 0.70777 0.0
C444 C 0.00303 0.21895 0.81109 0.0
C445 C 0.05355 0.20534 0.81176 0.0
C446 C 0.97721 0.222 0.78607 0.0
C447 C 0.00114 0.21116 0.76107 0.0
C448 C 0.05229 0.19914 0.76165 0.0
C449 C 0.07834 0.19656 0.78676 0.0
C450 C 0.9708 0.21913 0.68475 0.0
C451 C 0.92249 0.20108 0.68354 0.0
C452 C -0.00463 0.22412 0.70997 0.0
C453 C 0.97251 0.21061 0.73465 0.0
C454 C 0.92307 0.19452 0.73359 0.0
C455 C 0.8981 0.1901 0.70821 0.0
H456 H 0.36842 0.70014 0.78283 0.0
H457 H 0.50001 0.73736 0.82912 0.0
H458 H 0.41497 0.70703 0.7399 0.0
H459 H 0.5462 0.74614 0.78612 0.0
H460 H 0.62739 0.69219 0.70772 0.0
H461 H 0.58279 0.70051 0.75157 0.0
H462 H 0.45407 0.75334 0.70773 0.0
H463 H 0.49787 0.74284 0.6641 0.0
C464 C 0.40695 0.71089 0.78379 0.0
C465 C 0.43057 0.71781 0.80939 0.0
C466 C 0.43377 0.71504 0.75912 0.0
C467 C 0.4847 0.72686 0.75942 0.0
C468 C 0.50748 0.73601 0.78504 0.0
C469 C 0.48084 0.7313 0.80971 0.0
C470 C 0.58991 0.70629 0.70763 0.0
C471 C 0.56586 0.71634 0.68256 0.0
C472 C 0.56425 0.7112 0.73275 0.0
C473 C 0.51432 0.72696 0.73326 0.0
C474 C 0.4918 0.73987 0.70818 0.0
C475 C 0.51707 0.73422 0.68315 0.0
H476 H 0.86829 0.79551 0.20398 0.0
H477 H 0.00261 0.76514 0.15785 0.0
H478 H 0.91479 0.78727 0.24713 0.0
H479 H 0.04876 0.75509 0.20085 0.0
H480 H 0.1259 0.80807 0.28049 0.0
H481 H 0.08201 0.80051 0.23632 0.0
H482 H 0.95704 0.74035 0.2785 0.0
H483 H 5e-05 0.74994 0.32248 0.0
C484 C 0.90743 0.78592 0.20309 0.0
C485 C 0.93185 0.78144 0.17755 0.0
C486 C 0.93423 0.78105 0.22784 0.0
C487 C 0.98589 0.77093 0.22757 0.0
C488 C 0.00945 0.76395 0.20193 0.0
C489 C 0.98285 0.76939 0.17726 0.0
C490 C 0.08951 0.79245 0.28012 0.0
C491 C 0.06613 0.78005 0.30484 0.0
C492 C 0.06423 0.78801 0.25483 0.0
C493 C 0.01543 0.77044 0.25381 0.0
C494 C -0.00618 0.7552 0.27849 0.0
C495 C 0.01868 0.76031 0.30369 0.0
H496 H 0.51098 0.19066 0.44709 0.0
H497 H 0.56608 0.32291 0.42788 0.0
H498 H 0.58231 0.17796 0.4775 0.0
H499 H 0.6377 0.30962 0.4582 0.0
H500 H 0.78087 0.2496 0.49627 0.0
H501 H 0.71363 0.25794 0.46284 0.0
H502 H 0.60733 0.21465 0.5241 0.0
H503 H 0.67509 0.20616 0.55805 0.0
C504 C 0.53873 0.21672 0.44887 0.0
C505 C 0.53249 0.25805 0.43519 0.0
C506 C 0.57927 0.2095 0.46653 0.0
C507 C 0.61482 0.2431 0.47053 0.0
C508 C 0.61061 0.2832 0.45547 0.0
C509 C 0.56973 0.29069 0.438 0.0
C510 C 0.74324 0.24159 0.50273 0.0
C511 C 0.7333 0.22705 0.52988 0.0
C512 C 0.70478 0.24665 0.48354 0.0
C513 C 0.65551 0.23687 0.4909 0.0
C514 C 0.64528 0.22201 0.51791 0.0
C515 C 0.68386 0.21744 0.53734 0.0
H516 H 0.91635 0.1979 0.92431 0.0
H517 H -0.00403 0.31014 0.95946 0.0
H518 H 0.84546 0.21475 0.95434 0.0
H519 H 0.92496 0.32661 0.98954 0.0
H520 H 0.81691 0.28883 0.06367 0.0
H521 H 0.88629 0.28397 0.03062 0.0
H522 H 0.78096 0.27541 0.96308 0.0
H523 H 0.71222 0.28028 -0.00454 0.0
C524 C 0.91837 0.2267 0.93798 0.0
C525 C 0.96194 0.25251 0.93949 0.0
C526 C 0.87781 0.23629 0.95522 0.0
C527 C 0.88012 0.27166 0.97447 0.0
C528 C 0.9226 0.29879 0.97514 0.0
C529 C 0.96298 0.28956 0.95765 0.0
C530 C 0.80863 0.28636 0.04177 0.0
C531 C 0.75894 0.28439 0.03237 0.0
C532 C 0.84827 0.28378 0.02287 0.0
C533 C 0.83879 0.27894 0.99435 0.0
C534 C 0.78928 0.2785 0.98496 0.0
C535 C 0.74991 0.28137 0.00366 0.0
H536 H 0.06257 0.15892 0.55465 0.0
H537 H 0.03059 0.30045 0.56462 0.0
H538 H 0.12598 0.17636 0.52015 0.0
H539 H 0.09374 0.31765 0.53019 0.0
H540 H 0.24517 0.32817 0.48501 0.0
H541 H 0.18382 0.31382 0.52096 0.0
H542 H 0.12212 0.20674 0.47152 0.0
H543 H 0.18438 0.2209 0.43545 0.0
C544 C 0.0698 0.19376 0.55 0.0
C545 C 0.04098 0.22827 0.56209 0.0
C546 C 0.10558 0.20367 0.52993 0.0
C547 C 0.11382 0.24828 0.522 0.0
C548 C 0.08795 0.28293 0.53575 0.0
C549 C 0.05192 0.27304 0.55558 0.0
C550 C 0.21785 0.30213 0.48158 0.0
C551 C 0.21938 0.27565 0.45747 0.0
C552 C 0.18283 0.29387 0.50219 0.0
C553 C 0.14876 0.25873 0.49922 0.0
C554 C 0.14865 0.23354 0.47452 0.0
C555 C 0.18358 0.2421 0.45369 0.0
H556 H 0.42453 0.32723 0.05135 0.0
H557 H 0.46475 0.18746 0.0618 0.0
H558 H 0.36381 0.30646 0.01608 0.0
H559 H 0.4037 0.16691 0.02652 0.0
H560 H 0.3104 0.26143 0.9314 0.0
H561 H 0.37356 0.27488 0.96724 0.0
H562 H 0.31145 0.16861 0.0166 0.0
H563 H 0.24865 0.15528 0.9809 0.0
C564 C 0.41958 0.29199 0.0467 0.0
C565 C 0.44998 0.25904 0.0592 0.0
C566 C 0.38537 0.28022 0.02615 0.0
C567 C 0.38019 0.23523 0.01807 0.0
C568 C 0.40741 0.20191 0.03216 0.0
C569 C 0.44209 0.2137 0.05249 0.0
C570 C 0.31149 0.24002 0.94947 0.0
C571 C 0.27494 0.2073 0.95346 0.0
C572 C 0.34694 0.24817 0.97015 0.0
C573 C 0.34662 0.22332 0.99488 0.0
C574 C 0.31245 0.18831 -0.00219 0.0
C575 C 0.27673 0.18057 0.97735 0.0
H576 H 0.42618 0.66641 0.55982 0.0
H577 H 0.48731 0.79622 0.54012 0.0
H578 H 0.35643 0.68126 0.52813 0.0
H579 H 0.41856 0.81014 0.50825 0.0
H580 H 0.32377 0.78644 0.4278 0.0
H581 H 0.39172 0.77276 0.46122 0.0
H582 H 0.28342 0.73843 0.52358 0.0
H583 H 0.21624 0.7523 0.4909 0.0
C584 C 0.42434 0.69833 0.54923 0.0
C585 C 0.46258 0.72992 0.55247 0.0
C586 C 0.3847 0.70665 0.53091 0.0
C587 C 0.38294 0.74644 0.51534 0.0
C588 C 0.41974 0.77881 0.51953 0.0
C589 C 0.45881 0.77086 0.53805 0.0
C590 C 0.31465 0.7761 0.44864 0.0
C591 C 0.26465 0.77096 0.4567 0.0
C592 C 0.35335 0.76839 0.46774 0.0
C593 C 0.34256 0.75449 0.49493 0.0
C594 C 0.29274 0.74881 0.50276 0.0
C595 C 0.2543 0.75721 0.48398 0.0
H596 H -0.00112 0.69738 0.04714 0.0
H597 H 0.04472 0.83483 0.03737 0.0
H598 H 0.0585 0.67372 0.01223 0.0
H599 H 0.1066 0.81082 0.00289 0.0
H600 H 0.20248 0.64103 0.96647 0.0
H601 H 0.14337 0.66374 0.00191 0.0
H602 H 0.10734 0.78338 0.95537 0.0
H603 H 0.16871 0.76125 0.9202 0.0
C604 C 0.02295 0.7224 0.03809 0.0
C605 C 0.01716 0.76795 0.04501 0.0
C606 C 0.05716 0.70883 0.01799 0.0
C607 C 0.08692 0.74042 0.0044 0.0
C608 C 0.08341 0.78576 0.01253 0.0
C609 C 0.04882 0.79943 0.03272 0.0
C610 C 0.18114 0.67172 0.96347 0.0
C611 C 0.19015 0.69928 0.94052 0.0
C612 C 0.14726 0.68484 0.98386 0.0
C613 C 0.12103 0.72574 0.98174 0.0
C614 C 0.12778 0.75214 0.95793 0.0
C615 C 0.16204 0.73901 0.93746 0.0
H616 H 0.96297 0.69342 0.42715 0.0
H617 H 0.93572 0.83442 0.44212 0.0
H618 H 0.90085 0.67456 0.46176 0.0
H619 H 0.87234 0.81549 0.47648 0.0
H620 H 0.8103 0.76589 0.55912 0.0
H621 H 0.87247 0.78274 0.52351 0.0
H622 H 0.81317 0.677 0.47205 0.0
H623 H 0.7525 0.6596 0.50763 0.0
C624 C 0.94258 0.7204 0.43728 0.0
C625 C 0.95414 0.76538 0.43186 0.0
C626 C 0.90709 0.70959 0.45722 0.0
C627 C 0.88227 0.74353 0.47222 0.0
C628 C 0.89166 0.7886 0.46566 0.0
C629 C 0.92717 0.79946 0.44557 0.0
C630 C 0.81162 0.74553 0.54052 0.0
C631 C 0.77664 0.71142 0.53617 0.0
C632 C 0.84652 0.75568 0.51992 0.0
C633 C 0.84717 0.73167 0.49476 0.0
C634 C 0.81381 0.69609 0.49116 0.0
C635 C 0.77904 0.68608 0.5116 0.0
H636 H 0.73622 0.82114 0.00105 0.0
H637 H 0.65712 0.76665 0.07122 0.0
H638 H 0.66627 0.80329 0.97111 0.0
H639 H 0.58617 0.74976 0.04082 0.0
H640 H 0.45437 0.77386 0.97944 0.0
H641 H 0.5231 0.7954 0.00932 0.0
H642 H 0.62699 0.72623 0.95551 0.0
H643 H 0.55768 0.70348 0.9254 0.0
C644 C 0.7037 0.80588 0.01027 0.0
C645 C 0.70256 0.79505 0.03867 0.0
C646 C 0.66381 0.7954 0.99294 0.0
C647 C 0.62136 0.77463 0.0036 0.0
C648 C 0.61878 0.76571 0.03215 0.0
C649 C 0.65923 0.77555 0.04954 0.0
C650 C 0.49181 0.7634 0.97364 0.0
C651 C 0.50044 0.73685 0.94985 0.0
C652 C 0.53106 0.77552 0.991 0.0
C653 C 0.58005 0.76216 0.98482 0.0
C654 C 0.58931 0.73692 0.96066 0.0
C655 C 0.54975 0.724 0.94343 0.0
loop_
_geom_bond_atom_site_label_1
_geom_bond_atom_site_label_2
_geom_bond_distance
_geom_bond_site_symmetry_2
_ccdc_geom_bond_type
Sc0 O3 2.025 . S
Sc0 O10 2.105 . S
Sc0 O13 2.105 . S
Sc0 O16 2.105 . S
Sc0 O19 2.105 . S
Sc1 O3 2.025 . S
Sc1 O11 2.105 . S
Sc1 O15 2.105 . S
Sc1 O17 2.105 . S
Sc1 O21 2.105 . S
Sc2 O3 2.025 . S
Sc2 O12 2.105 . S
Sc2 O14 2.105 . S
Sc2 O18 2.105 . S
Sc2 O20 2.105 . S
O3 Sc0 2.025 . S
O3 Sc1 2.025 . S
O3 Sc2 2.025 . S
C4 O10 1.268 . S
C4 O20 1.268 . S
C5 O11 1.268 . S
C5 O19 1.268 . S
C6 O12 1.268 . S
C6 O21 1.268 . S
C7 O13 1.268 . S
C7 O17 1.268 . S
C8 O14 1.268 . S
C8 O16 1.268 . S
C9 O15 1.268 . S
C9 O18 1.268 . S
O10 Sc0 2.105 . S
O10 C4 1.268 . S
O11 Sc1 2.105 . S
O11 C5 1.268 . S
O12 Sc2 2.105 . S
O12 C6 1.268 . S
O13 Sc0 2.105 . S
O13 C7 1.268 . S
O14 Sc2 2.105 . S
O14 C8 1.268 . S
O15 Sc1 2.105 . S
O15 C9 1.268 . S
O16 Sc0 2.105 . S
O16 C8 1.268 . S
O17 Sc1 2.105 . S
O17 C7 1.268 . S
O18 Sc2 2.105 . S
O18 C9 1.268 . S
O19 Sc0 2.105 . S
O19 C5 1.268 . S
O20 Sc2 2.105 . S
O20 C4 1.268 . S
O21 Sc1 2.105 . S
O21 C6 1.268 . S
Sc22 O25 2.025 . S
Sc22 O32 2.105 . S
Sc22 O35 2.105 . S
Sc22 O38 2.105 . S
Sc22 O41 2.105 . S
Sc23 O25 2.025 . S
Sc23 O33 2.105 . S
Sc23 O37 2.105 . S
Sc23 O39 2.105 . S
Sc23 O43 2.105 . S
Sc24 O25 2.025 . S
Sc24 O34 2.105 . S
Sc24 O36 2.105 . S
Sc24 O40 2.105 . S
Sc24 O42 2.105 . S
O25 Sc22 2.025 . S
O25 Sc23 2.025 . S
O25 Sc24 2.025 . S
C26 O32 1.268 . S
C26 O42 1.268 . S
C27 O33 1.268 . S
C27 O41 1.268 . S
C28 O34 1.268 1_655 S
C28 O43 1.268 1_655 S
C29 O35 1.268 . S
C29 O39 1.268 . S
C30 O36 1.268 . S
C30 O38 1.268 . S
C31 O37 1.268 . S
C31 O40 1.268 . S
O32 Sc22 2.105 . S
O32 C26 1.268 . S
O33 Sc23 2.105 . S
O33 C27 1.268 . S
O34 Sc24 2.105 . S
O34 C28 1.268 1_455 S
O35 Sc22 2.105 . S
O35 C29 1.268 . S
O36 Sc24 2.105 . S
O36 C30 1.268 . S
O37 Sc23 2.105 . S
O37 C31 1.268 . S
O38 Sc22 2.105 . S
O38 C30 1.268 . S
O39 Sc23 2.105 . S
O39 C29 1.268 . S
O40 Sc24 2.105 . S
O40 C31 1.268 . S
O41 Sc22 2.105 . S
O41 C27 1.268 . S
O42 Sc24 2.105 . S
O42 C26 1.268 . S
O43 Sc23 2.105 . S
O43 C28 1.268 1_455 S
Sc44 O47 2.025 . S
Sc44 O54 2.105 . S
Sc44 O57 2.105 . S
Sc44 O60 2.105 . S
Sc44 O63 2.105 . S
Sc45 O47 2.025 . S
Sc45 O55 2.105 . S
Sc45 O59 2.105 . S
Sc45 O61 2.105 . S
Sc45 O65 2.105 . S
Sc46 O47 2.025 . S
Sc46 O56 2.105 . S
Sc46 O58 2.105 . S
Sc46 O62 2.105 . S
Sc46 O64 2.105 . S
O47 Sc44 2.025 . S
O47 Sc45 2.025 . S
O47 Sc46 2.025 . S
C48 O54 1.268 . S
C48 O64 1.268 . S
C49 O55 1.268 . S
C49 O63 1.268 . S
C50 O56 1.268 1_455 S
C50 O65 1.268 1_455 S
C51 O57 1.268 . S
C51 O61 1.268 . S
C52 O58 1.268 . S
C52 O60 1.268 . S
C53 O59 1.268 . S
C53 O62 1.268 . S
O54 Sc44 2.105 . S
O54 C48 1.268 . S
O55 Sc45 2.105 . S
O55 C49 1.268 . S
O56 Sc46 2.105 . S
O56 C50 1.268 1_655 S
O57 Sc44 2.105 . S
O57 C51 1.268 . S
O58 Sc46 2.105 . S
O58 C52 1.268 . S
O59 Sc45 2.105 . S
O59 C53 1.268 . S
O60 Sc44 2.105 . S
O60 C52 1.268 . S
O61 Sc45 2.105 . S
O61 C51 1.268 . S
O62 Sc46 2.105 . S
O62 C53 1.268 . S
O63 Sc44 2.105 . S
O63 C49 1.268 . S
O64 Sc46 2.105 . S
O64 C48 1.268 . S
O65 Sc45 2.105 . S
O65 C50 1.268 1_655 S
Sc66 O69 2.025 . S
Sc66 O76 2.105 . S
Sc66 O79 2.105 . S
Sc66 O82 2.105 . S
Sc66 O85 2.105 . S
Sc67 O69 2.025 . S
Sc67 O77 2.105 . S
Sc67 O81 2.105 . S
Sc67 O83 2.105 . S
Sc67 O87 2.105 . S
Sc68 O69 2.025 . S
Sc68 O78 2.105 . S
Sc68 O80 2.105 . S
Sc68 O84 2.105 . S
Sc68 O86 2.105 . S
O69 Sc66 2.025 . S
O69 Sc67 2.025 . S
O69 Sc68 2.025 . S
C70 O76 1.268 . S
C70 O86 1.268 . S
C71 O77 1.268 . S
C71 O85 1.268 . S
C72 O78 1.268 . S
C72 O87 1.268 . S
C73 O79 1.268 . S
C73 O83 1.268 . S
C74 O80 1.268 . S
C74 O82 1.268 . S
C75 O81 1.268 . S
C75 O84 1.268 . S
O76 Sc66 2.105 . S
O76 C70 1.268 . S
O77 Sc67 2.105 . S
O77 C71 1.268 . S
O78 Sc68 2.105 . S
O78 C72 1.268 . S
O79 Sc66 2.105 . S
O79 C73 1.268 . S
O80 Sc68 2.105 . S
O80 C74 1.268 . S
O81 Sc67 2.105 . S
O81 C75 1.268 . S
O82 Sc66 2.105 . S
O82 C74 1.268 . S
O83 Sc67 2.105 . S
O83 C73 1.268 . S
O84 Sc68 2.105 . S
O84 C75 1.268 . S
O85 Sc66 2.105 . S
O85 C71 1.268 . S
O86 Sc68 2.105 . S
O86 C70 1.268 . S
O87 Sc67 2.105 . S
O87 C72 1.268 . S
Sc88 O91 2.025 . S
Sc88 O98 2.105 . S
Sc88 O101 2.105 . S
Sc88 O104 2.105 . S
Sc88 O107 2.105 . S
Sc89 O91 2.025 . S
Sc89 O99 2.105 . S
Sc89 O103 2.105 . S
Sc89 O105 2.105 . S
Sc89 O109 2.105 . S
Sc90 O91 2.025 . S
Sc90 O100 2.105 . S
Sc90 O102 2.105 . S
Sc90 O106 2.105 . S
Sc90 O108 2.105 . S
O91 Sc88 2.025 . S
O91 Sc89 2.025 . S
O91 Sc90 2.025 . S
C92 O98 1.268 . S
C92 O108 1.268 . S
C93 O99 1.268 . S
C93 O107 1.268 . S
C94 O100 1.268 . S
C94 O109 1.268 . S
C95 O101 1.268 . S
C95 O105 1.268 . S
C96 O102 1.268 . S
C96 O104 1.268 . S
C97 O103 1.268 . S
C97 O106 1.268 . S
O98 Sc88 2.105 . S
O98 C92 1.268 . S
O99 Sc89 2.105 . S
O99 C93 1.268 . S
O100 Sc90 2.105 . S
O100 C94 1.268 . S
O101 Sc88 2.105 . S
O101 C95 1.268 . S
O102 Sc90 2.105 . S
O102 C96 1.268 . S
O103 Sc89 2.105 . S
O103 C97 1.268 . S
O104 Sc88 2.105 . S
O104 C96 1.268 . S
O105 Sc89 2.105 . S
O105 C95 1.268 . S
O106 Sc90 2.105 . S
O106 C97 1.268 . S
O107 Sc88 2.105 . S
O107 C93 1.268 . S
O108 Sc90 2.105 . S
O108 C92 1.268 . S
O109 Sc89 2.105 . S
O109 C94 1.268 . S
Sc110 O113 2.025 . S
Sc110 O120 2.105 . S
Sc110 O123 2.105 . S
Sc110 O126 2.105 . S
Sc110 O129 2.105 . S
Sc111 O113 2.025 . S
Sc111 O121 2.105 . S
Sc111 O125 2.105 . S
Sc111 O127 2.105 . S
Sc111 O131 2.105 . S
Sc112 O113 2.025 . S
Sc112 O122 2.105 . S
Sc112 O124 2.105 . S
Sc112 O128 2.105 . S
Sc112 O130 2.105 . S
O113 Sc110 2.025 . S
O113 Sc111 2.025 . S
O113 Sc112 2.025 . S
C114 O120 1.268 . S
C114 O130 1.268 . S
C115 O121 1.268 . S
C115 O129 1.268 . S
C116 O122 1.268 . S
C116 O131 1.268 . S
C117 O123 1.268 . S
C117 O127 1.268 . S
C118 O124 1.268 . S
C118 O126 1.268 . S
C119 O125 1.268 1_455 S
C119 O128 1.268 1_455 S
O120 Sc110 2.105 . S
O120 C114 1.268 . S
O121 Sc111 2.105 . S
O121 C115 1.268 . S
O122 Sc112 2.105 . S
O122 C116 1.268 . S
O123 Sc110 2.105 . S
O123 C117 1.268 . S
O124 Sc112 2.105 . S
O124 C118 1.268 . S
O125 Sc111 2.105 . S
O125 C119 1.268 1_655 S
O126 Sc110 2.105 . S
O126 C118 1.268 . S
O127 Sc111 2.105 . S
O127 C117 1.268 . S
O128 Sc112 2.105 . S
O128 C119 1.268 1_655 S
O129 Sc110 2.105 . S
O129 C115 1.268 . S
O130 Sc112 2.105 . S
O130 C114 1.268 . S
O131 Sc111 2.105 . S
O131 C116 1.268 . S
Sc132 O135 2.025 . S
Sc132 O142 2.105 . S
Sc132 O145 2.105 . S
Sc132 O148 2.105 . S
Sc132 O151 2.105 . S
Sc133 O135 2.025 . S
Sc133 O143 2.105 . S
Sc133 O147 2.105 . S
Sc133 O149 2.105 . S
Sc133 O153 2.105 . S
Sc134 O135 2.025 . S
Sc134 O144 2.105 . S
Sc134 O146 2.105 . S
Sc134 O150 2.105 . S
Sc134 O152 2.105 . S
O135 Sc132 2.025 . S
O135 Sc133 2.025 . S
O135 Sc134 2.025 . S
C136 O142 1.268 . S
C136 O152 1.268 . S
C137 O143 1.268 1_655 S
C137 O151 1.268 1_655 S
C138 O144 1.268 . S
C138 O153 1.268 . S
C139 O145 1.268 . S
C139 O149 1.268 . S
C140 O146 1.268 . S
C140 O148 1.268 . S
C141 O147 1.268 . S
C141 O150 1.268 . S
O142 Sc132 2.105 . S
O142 C136 1.268 . S
O143 Sc133 2.105 . S
O143 C137 1.268 1_455 S
O144 Sc134 2.105 . S
O144 C138 1.268 . S
O145 Sc132 2.105 . S
O145 C139 1.268 . S
O146 Sc134 2.105 . S
O146 C140 1.268 . S
O147 Sc133 2.105 . S
O147 C141 1.268 . S
O148 Sc132 2.105 . S
O148 C140 1.268 . S
O149 Sc133 2.105 . S
O149 C139 1.268 . S
O150 Sc134 2.105 . S
O150 C141 1.268 . S
O151 Sc132 2.105 . S
O151 C137 1.268 1_455 S
O152 Sc134 2.105 . S
O152 C136 1.268 . S
O153 Sc133 2.105 . S
O153 C138 1.268 . S
Sc154 O157 2.025 . S
Sc154 O164 2.105 . S
Sc154 O167 2.105 . S
Sc154 O170 2.105 . S
Sc154 O173 2.105 . S
Sc155 O157 2.025 . S
Sc155 O165 2.105 . S
Sc155 O169 2.105 . S
Sc155 O171 2.105 . S
Sc155 O175 2.105 . S
Sc156 O157 2.025 . S
Sc156 O166 2.105 . S
Sc156 O168 2.105 . S
Sc156 O172 2.105 . S
Sc156 O174 2.105 . S
O157 Sc154 2.025 . S
O157 Sc155 2.025 . S
O157 Sc156 2.025 . S
C158 O164 1.268 . S
C158 O174 1.268 . S
C159 O165 1.268 . S
C159 O173 1.268 . S
C160 O166 1.268 . S
C160 O175 1.268 . S
C161 O167 1.268 . S
C161 O171 1.268 . S
C162 O168 1.268 . S
C162 O170 1.268 . S
C163 O169 1.268 . S
C163 O172 1.268 . S
O164 Sc154 2.105 . S
O164 C158 1.268 . S
O165 Sc155 2.105 . S
O165 C159 1.268 . S
O166 Sc156 2.105 . S
O166 C160 1.268 . S
O167 Sc154 2.105 . S
O167 C161 1.268 . S
O168 Sc156 2.105 . S
O168 C162 1.268 . S
O169 Sc155 2.105 . S
O169 C163 1.268 . S
O170 Sc154 2.105 . S
O170 C162 1.268 . S
O171 Sc155 2.105 . S
O171 C161 1.268 . S
O172 Sc156 2.105 . S
O172 C163 1.268 . S
O173 Sc154 2.105 . S
O173 C159 1.268 . S
O174 Sc156 2.105 . S
O174 C158 1.268 . S
O175 Sc155 2.105 . S
O175 C160 1.268 . S
H176 C184 0.950 . S
H177 C189 0.950 . S
H178 C186 0.950 . S
H179 C188 0.950 . S
H180 C190 0.950 . S
H181 C192 0.950 . S
H182 C194 0.950 . S
H183 C195 0.950 . S
C184 H176 0.950 . S
C184 C185 1.386 . S
C184 C186 1.391 . S
C185 C184 1.386 . S
C185 C189 1.393 . S
C186 H178 0.950 . S
C186 C184 1.391 . S
C186 C187 1.400 1_565 S
C187 C186 1.400 1_545 S
C187 C188 1.398 . S
C187 C193 1.491 . S
C188 H179 0.950 . S
C188 C187 1.398 . S
C188 C189 1.391 1_545 S
C189 H177 0.950 . S
C189 C185 1.393 . S
C189 C188 1.391 1_565 S
C190 H180 0.950 . S
C190 C191 1.386 . S
C190 C192 1.391 . S
C191 C190 1.386 . S
C191 C195 1.393 . S
C192 H181 0.950 . S
C192 C190 1.391 . S
C192 C193 1.400 . S
C193 C187 1.491 . S
C193 C192 1.400 . S
C193 C194 1.398 . S
C194 H182 0.950 . S
C194 C193 1.398 . S
C194 C195 1.391 . S
C195 H183 0.950 . S
C195 C191 1.393 . S
C195 C194 1.391 . S
H196 C204 0.950 . S
H197 C209 0.950 . S
H198 C206 0.950 . S
H199 C208 0.950 . S
H200 C210 0.950 . S
H201 C212 0.950 . S
H202 C214 0.950 . S
H203 C215 0.950 . S
C204 H196 0.950 . S
C204 C205 1.386 . S
C204 C206 1.391 . S
C205 C204 1.386 . S
C205 C209 1.393 . S
C206 H198 0.950 . S
C206 C204 1.391 . S
C206 C207 1.400 . S
C207 C206 1.400 . S
C207 C208 1.398 . S
C207 C213 1.491 . S
C208 H199 0.950 . S
C208 C207 1.398 . S
C208 C209 1.391 . S
C209 H197 0.950 . S
C209 C205 1.393 . S
C209 C208 1.391 . S
C210 H200 0.950 . S
C210 C211 1.386 . S
C210 C212 1.391 . S
C211 C210 1.386 . S
C211 C215 1.393 . S
C212 H201 0.950 . S
C212 C210 1.391 . S
C212 C213 1.400 . S
C213 C207 1.491 . S
C213 C212 1.400 . S
C213 C214 1.398 . S
C214 H202 0.950 . S
C214 C213 1.398 . S
C214 C215 1.391 . S
C215 H203 0.950 . S
C215 C211 1.393 . S
C215 C214 1.391 . S
H216 C224 0.950 . S
H217 C229 0.950 . S
H218 C226 0.950 . S
H219 C228 0.950 . S
H220 C230 0.950 . S
H221 C232 0.950 . S
H222 C234 0.950 . S
H223 C235 0.950 . S
C224 H216 0.950 . S
C224 C225 1.386 . S
C224 C226 1.391 . S
C225 C224 1.386 . S
C225 C229 1.393 . S
C226 H218 0.950 . S
C226 C224 1.391 . S
C226 C227 1.400 . S
C227 C226 1.400 . S
C227 C228 1.398 . S
C227 C233 1.491 . S
C228 H219 0.950 . S
C228 C227 1.398 . S
C228 C229 1.391 . S
C229 H217 0.950 . S
C229 C225 1.393 . S
C229 C228 1.391 . S
C230 H220 0.950 . S
C230 C231 1.386 . S
C230 C232 1.391 . S
C231 C230 1.386 . S
C231 C235 1.393 . S
C232 H221 0.950 . S
C232 C230 1.391 . S
C232 C233 1.400 . S
C233 C227 1.491 . S
C233 C232 1.400 . S
C233 C234 1.398 . S
C234 H222 0.950 . S
C234 C233 1.398 . S
C234 C235 1.391 . S
C235 H223 0.950 . S
C235 C231 1.393 . S
C235 C234 1.391 . S
H236 C244 0.950 . S
H237 C249 0.950 . S
H238 C246 0.950 . S
H239 C248 0.950 . S
H240 C250 0.950 . S
H241 C252 0.950 . S
H242 C254 0.950 . S
H243 C255 0.950 . S
C244 H236 0.950 . S
C244 C245 1.386 . S
C244 C246 1.391 . S
C245 C244 1.386 . S
C245 C249 1.393 . S
C246 H238 0.950 . S
C246 C244 1.391 . S
C246 C247 1.400 . S
C247 C246 1.400 . S
C247 C248 1.398 . S
C247 C253 1.491 . S
C248 H239 0.950 . S
C248 C247 1.398 . S
C248 C249 1.391 . S
C249 H237 0.950 . S
C249 C245 1.393 . S
C249 C248 1.391 . S
C250 H240 0.950 . S
C250 C251 1.386 . S
C250 C252 1.391 . S
C251 C250 1.386 . S
C251 C255 1.393 . S
C252 H241 0.950 . S
C252 C250 1.391 . S
C252 C253 1.400 1_565 S
C253 C247 1.491 . S
C253 C252 1.400 1_545 S
C253 C254 1.398 . S
C254 H242 0.950 . S
C254 C253 1.398 . S
C254 C255 1.391 1_545 S
C255 H243 0.950 . S
C255 C251 1.393 . S
C255 C254 1.391 1_565 S
H256 C264 0.950 . S
H257 C269 0.950 . S
H258 C266 0.950 . S
H259 C268 0.950 . S
H260 C270 0.950 . S
H261 C272 0.950 . S
H262 C274 0.950 . S
H263 C275 0.950 . S
C264 H256 0.950 . S
C264 C265 1.386 . S
C264 C266 1.391 . S
C265 C264 1.386 . S
C265 C269 1.393 . S
C266 H258 0.950 . S
C266 C264 1.391 . S
C266 C267 1.400 1_545 S
C267 C266 1.400 1_565 S
C267 C268 1.398 . S
C267 C273 1.491 . S
C268 H259 0.950 . S
C268 C267 1.398 . S
C268 C269 1.391 1_565 S
C269 H257 0.950 . S
C269 C265 1.393 . S
C269 C268 1.391 1_545 S
C270 H260 0.950 . S
C270 C271 1.386 . S
C270 C272 1.391 . S
C271 C270 1.386 . S
C271 C275 1.393 . S
C272 H261 0.950 . S
C272 C270 1.391 . S
C272 C273 1.400 . S
C273 C267 1.491 . S
C273 C272 1.400 . S
C273 C274 1.398 . S
C274 H262 0.950 . S
C274 C273 1.398 . S
C274 C275 1.391 . S
C275 H263 0.950 . S
C275 C271 1.393 . S
C275 C274 1.391 . S
H276 C284 0.950 . S
H277 C289 0.950 . S
H278 C286 0.950 . S
H279 C288 0.950 . S
H280 C290 0.950 . S
H281 C292 0.950 . S
H282 C294 0.950 . S
H283 C295 0.950 . S
C284 H276 0.950 . S
C284 C285 1.386 . S
C284 C286 1.391 . S
C285 C284 1.386 . S
C285 C289 1.393 . S
C286 H278 0.950 . S
C286 C284 1.391 . S
C286 C287 1.400 . S
C287 C286 1.400 . S
C287 C288 1.398 . S
C287 C293 1.491 . S
C288 H279 0.950 . S
C288 C287 1.398 . S
C288 C289 1.391 . S
C289 H277 0.950 . S
C289 C285 1.393 . S
C289 C288 1.391 . S
C290 H280 0.950 . S
C290 C291 1.386 . S
C290 C292 1.391 . S
C291 C290 1.386 . S
C291 C295 1.393 . S
C292 H281 0.950 . S
C292 C290 1.391 . S
C292 C293 1.400 . S
C293 C287 1.491 . S
C293 C292 1.400 . S
C293 C294 1.398 . S
C294 H282 0.950 . S
C294 C293 1.398 . S
C294 C295 1.391 . S
C295 H283 0.950 . S
C295 C291 1.393 . S
C295 C294 1.391 . S
H296 C304 0.950 . S
H297 C309 0.950 . S
H298 C306 0.950 . S
H299 C308 0.950 . S
H300 C310 0.950 . S
H301 C312 0.950 . S
H302 C314 0.950 . S
H303 C315 0.950 . S
C304 H296 0.950 . S
C304 C305 1.386 . S
C304 C306 1.391 . S
C305 C304 1.386 . S
C305 C309 1.393 . S
C306 H298 0.950 . S
C306 C304 1.391 . S
C306 C307 1.400 . S
C307 C306 1.400 . S
C307 C308 1.398 . S
C307 C313 1.491 . S
C308 H299 0.950 . S
C308 C307 1.398 . S
C308 C309 1.391 . S
C309 H297 0.950 . S
C309 C305 1.393 . S
C309 C308 1.391 . S
C310 H300 0.950 . S
C310 C311 1.386 . S
C310 C312 1.391 . S
C311 C310 1.386 . S
C311 C315 1.393 . S
C312 H301 0.950 . S
C312 C310 1.391 . S
C312 C313 1.400 . S
C313 C307 1.491 . S
C313 C312 1.400 . S
C313 C314 1.398 . S
C314 H302 0.950 . S
C314 C313 1.398 . S
C314 C315 1.391 . S
C315 H303 0.950 . S
C315 C311 1.393 . S
C315 C314 1.391 . S
H316 C324 0.950 . S
H317 C329 0.950 . S
H318 C326 0.950 . S
H319 C328 0.949 1_565 S
H320 C330 0.950 . S
H321 C332 0.950 . S
H322 C334 0.950 . S
H323 C335 0.950 . S
C324 H316 0.950 . S
C324 C325 1.386 . S
C324 C326 1.391 1_545 S
C325 C324 1.386 . S
C325 C329 1.393 . S
C326 H318 0.950 . S
C326 C324 1.391 1_565 S
C326 C327 1.400 . S
C327 C326 1.400 . S
C327 C328 1.398 1_565 S
C327 C333 1.491 . S
C328 H319 0.949 1_545 S
C328 C327 1.398 1_545 S
C328 C329 1.391 . S
C329 H317 0.950 . S
C329 C325 1.393 . S
C329 C328 1.391 . S
C330 H320 0.950 . S
C330 C331 1.386 . S
C330 C332 1.391 . S
C331 C330 1.386 . S
C331 C335 1.393 . S
C332 H321 0.950 . S
C332 C330 1.391 . S
C332 C333 1.400 . S
C333 C327 1.491 . S
C333 C332 1.400 . S
C333 C334 1.398 . S
C334 H322 0.950 . S
C334 C333 1.398 . S
C334 C335 1.391 . S
C335 H323 0.950 . S
C335 C331 1.393 . S
C335 C334 1.391 . S
H336 C344 0.950 . S
H337 C349 0.950 . S
H338 C346 0.950 . S
H339 C348 0.950 . S
H340 C350 0.950 . S
H341 C352 0.950 . S
H342 C354 0.950 . S
H343 C355 0.950 . S
C344 H336 0.950 . S
C344 C345 1.386 . S
C344 C346 1.391 . S
C345 C344 1.386 . S
C345 C349 1.393 . S
C346 H338 0.950 . S
C346 C344 1.391 . S
C346 C347 1.400 . S
C347 C346 1.400 . S
C347 C348 1.398 . S
C347 C353 1.491 . S
C348 H339 0.950 . S
C348 C347 1.398 . S
C348 C349 1.391 . S
C349 H337 0.950 . S
C349 C345 1.393 . S
C349 C348 1.391 . S
C350 H340 0.950 . S
C350 C351 1.386 . S
C350 C352 1.391 . S
C351 C350 1.386 . S
C351 C355 1.393 . S
C352 H341 0.950 . S
C352 C350 1.391 . S
C352 C353 1.400 . S
C353 C347 1.491 . S
C353 C352 1.400 . S
C353 C354 1.398 . S
C354 H342 0.950 . S
C354 C353 1.398 . S
C354 C355 1.391 . S
C355 H343 0.950 . S
C355 C351 1.393 . S
C355 C354 1.391 . S
H356 C364 0.950 . S
H357 C369 0.950 . S
H358 C366 0.950 . S
H359 C368 0.950 . S
H360 C370 0.950 . S
H361 C372 0.950 . S
H362 C374 0.950 . S
H363 C375 0.950 . S
C364 H356 0.950 . S
C364 C365 1.386 . S
C364 C366 1.391 1_655 S
C365 C364 1.386 . S
C365 C369 1.393 . S
C366 H358 0.950 . S
C366 C364 1.391 1_455 S
C366 C367 1.400 1_455 S
C367 C366 1.400 1_655 S
C367 C368 1.398 1_554 S
C367 C373 1.491 1_664 S
C368 H359 0.950 . S
C368 C367 1.398 1_556 S
C368 C369 1.391 1_556 S
C369 H357 0.950 . S
C369 C365 1.393 . S
C369 C368 1.391 1_554 S
C370 H360 0.950 . S
C370 C371 1.386 . S
C370 C372 1.391 1_455 S
C371 C370 1.386 . S
C371 C375 1.393 . S
C372 H361 0.950 . S
C372 C370 1.391 1_655 S
C372 C373 1.400 1_655 S
C373 C367 1.491 1_446 S
C373 C372 1.400 1_455 S
C373 C374 1.398 1_556 S
C374 H362 0.950 . S
C374 C373 1.398 1_554 S
C374 C375 1.391 1_554 S
C375 H363 0.950 . S
C375 C371 1.393 . S
C375 C374 1.391 1_556 S
H376 C384 0.950 . S
H377 C389 0.950 . S
H378 C386 0.950 . S
H379 C388 0.950 1_565 S
H380 C390 0.950 . S
H381 C392 0.950 . S
H382 C394 0.950 1_545 S
H383 C395 0.950 . S
C384 H376 0.950 . S
C384 C385 1.386 . S
C384 C386 1.391 . S
C385 C384 1.386 . S
C385 C389 1.393 . S
C386 H378 0.950 . S
C386 C384 1.391 . S
C386 C387 1.400 . S
C387 C386 1.400 . S
C387 C388 1.398 . S
C387 C393 1.491 1_645 S
C388 H379 0.950 1_545 S
C388 C387 1.398 . S
C388 C389 1.391 . S
C389 H377 0.950 . S
C389 C385 1.393 . S
C389 C388 1.391 . S
C390 H380 0.950 . S
C390 C391 1.386 . S
C390 C392 1.391 . S
C391 C390 1.386 . S
C391 C395 1.393 . S
C392 H381 0.950 . S
C392 C390 1.391 . S
C392 C393 1.400 . S
C393 C387 1.491 1_465 S
C393 C392 1.400 . S
C393 C394 1.398 . S
C394 H382 0.950 1_565 S
C394 C393 1.398 . S
C394 C395 1.391 . S
C395 H383 0.950 . S
C395 C391 1.393 . S
C395 C394 1.391 . S
H396 C404 0.950 . S
H397 C409 0.950 . S
H398 C406 0.950 . S
H399 C408 0.950 . S
H400 C410 0.950 . S
H401 C412 0.950 . S
H402 C414 0.950 . S
H403 C415 0.950 . S
C404 H396 0.950 . S
C404 C405 1.386 . S
C404 C406 1.391 1_556 S
C405 C404 1.386 . S
C405 C409 1.393 . S
C406 H398 0.950 . S
C406 C404 1.391 1_554 S
C406 C407 1.400 1_554 S
C407 C406 1.400 1_556 S
C407 C408 1.398 . S
C407 C413 1.491 1_556 S
C408 H399 0.950 . S
C408 C407 1.398 . S
C408 C409 1.391 . S
C409 H397 0.950 . S
C409 C405 1.393 . S
C409 C408 1.391 . S
C410 H400 0.950 . S
C410 C411 1.386 . S
C410 C412 1.391 1_554 S
C411 C410 1.386 . S
C411 C415 1.393 . S
C412 H401 0.950 . S
C412 C410 1.391 1_556 S
C412 C413 1.400 1_556 S
C413 C407 1.491 1_554 S
C413 C412 1.400 1_554 S
C413 C414 1.398 . S
C414 H402 0.950 . S
C414 C413 1.398 . S
C414 C415 1.391 . S
C415 H403 0.950 . S
C415 C411 1.393 . S
C415 C414 1.391 . S
H416 C424 0.950 . S
H417 C429 0.950 . S
H418 C426 0.950 . S
H419 C428 0.950 . S
H420 C430 0.950 . S
H421 C432 0.950 . S
H422 C434 0.950 . S
H423 C435 0.950 . S
C424 H416 0.950 . S
C424 C425 1.386 . S
C424 C426 1.391 . S
C425 C424 1.386 . S
C425 C429 1.393 . S
C426 H418 0.950 . S
C426 C424 1.391 . S
C426 C427 1.400 . S
C427 C426 1.400 . S
C427 C428 1.398 . S
C427 C433 1.491 . S
C428 H419 0.950 . S
C428 C427 1.398 . S
C428 C429 1.391 . S
C429 H417 0.950 . S
C429 C425 1.393 . S
C429 C428 1.391 . S
C430 H420 0.950 . S
C430 C431 1.386 . S
C430 C432 1.391 . S
C431 C430 1.386 . S
C431 C435 1.393 . S
C432 H421 0.950 . S
C432 C430 1.391 . S
C432 C433 1.400 . S
C433 C427 1.491 . S
C433 C432 1.400 . S
C433 C434 1.398 . S
C434 H422 0.950 . S
C434 C433 1.398 . S
C434 C435 1.391 . S
C435 H423 0.950 . S
C435 C431 1.393 . S
C435 C434 1.391 . S
H436 C444 0.950 1_655 S
H437 C449 0.950 . S
H438 C446 0.950 . S
H439 C448 0.950 . S
H440 C450 0.950 1_455 S
H441 C452 0.950 . S
H442 C454 0.950 . S
H443 C455 0.950 . S
C444 H436 0.950 1_455 S
C444 C445 1.386 . S
C444 C446 1.391 1_455 S
C445 C444 1.386 . S
C445 C449 1.393 . S
C446 H438 0.950 . S
C446 C444 1.391 1_655 S
C446 C447 1.400 1_655 S
C447 C446 1.400 1_455 S
C447 C448 1.398 . S
C447 C453 1.491 1_455 S
C448 H439 0.950 . S
C448 C447 1.398 . S
C448 C449 1.391 . S
C449 H437 0.950 . S
C449 C445 1.393 . S
C449 C448 1.391 . S
C450 H440 0.950 1_655 S
C450 C451 1.386 . S
C450 C452 1.391 1_655 S
C451 C450 1.386 . S
C451 C455 1.393 . S
C452 H441 0.950 . S
C452 C450 1.391 1_455 S
C452 C453 1.400 1_455 S
C453 C447 1.491 1_655 S
C453 C452 1.400 1_655 S
C453 C454 1.398 . S
C454 H442 0.950 . S
C454 C453 1.398 . S
C454 C455 1.391 . S
C455 H443 0.950 . S
C455 C451 1.393 . S
C455 C454 1.391 . S
H456 C464 0.950 . S
H457 C469 0.950 . S
H458 C466 0.950 . S
H459 C468 0.950 . S
H460 C470 0.950 . S
H461 C472 0.950 . S
H462 C474 0.950 . S
H463 C475 0.950 . S
C464 H456 0.950 . S
C464 C465 1.386 . S
C464 C466 1.391 . S
C465 C464 1.386 . S
C465 C469 1.393 . S
C466 H458 0.950 . S
C466 C464 1.391 . S
C466 C467 1.400 . S
C467 C466 1.400 . S
C467 C468 1.398 . S
C467 C473 1.491 . S
C468 H459 0.950 . S
C468 C467 1.398 . S
C468 C469 1.391 . S
C469 H457 0.950 . S
C469 C465 1.393 . S
C469 C468 1.391 . S
C470 H460 0.950 . S
C470 C471 1.386 . S
C470 C472 1.391 . S
C471 C470 1.386 . S
C471 C475 1.393 . S
C472 H461 0.950 . S
C472 C470 1.391 . S
C472 C473 1.400 . S
C473 C467 1.491 . S
C473 C472 1.400 . S
C473 C474 1.398 . S
C474 H462 0.950 . S
C474 C473 1.398 . S
C474 C475 1.391 . S
C475 H463 0.950 . S
C475 C471 1.393 . S
C475 C474 1.391 . S
H476 C484 0.950 . S
H477 C489 0.950 1_455 S
H478 C486 0.950 . S
H479 C488 0.950 . S
H480 C490 0.950 . S
H481 C492 0.950 . S
H482 C494 0.950 . S
H483 C495 0.950 1_655 S
C484 H476 0.950 . S
C484 C485 1.386 . S
C484 C486 1.391 . S
C485 C484 1.386 . S
C485 C489 1.393 . S
C486 H478 0.950 . S
C486 C484 1.391 . S
C486 C487 1.400 . S
C487 C486 1.400 . S
C487 C488 1.398 1_655 S
C487 C493 1.491 1_655 S
C488 H479 0.950 . S
C488 C487 1.398 1_455 S
C488 C489 1.391 1_455 S
C489 H477 0.950 1_655 S
C489 C485 1.393 . S
C489 C488 1.391 1_655 S
C490 H480 0.950 . S
C490 C491 1.386 . S
C490 C492 1.391 . S
C491 C490 1.386 . S
C491 C495 1.393 . S
C492 H481 0.950 . S
C492 C490 1.391 . S
C492 C493 1.400 . S
C493 C487 1.491 1_455 S
C493 C492 1.400 . S
C493 C494 1.398 1_455 S
C494 H482 0.950 . S
C494 C493 1.398 1_655 S
C494 C495 1.391 1_655 S
C495 H483 0.950 1_455 S
C495 C491 1.393 . S
C495 C494 1.391 1_455 S
H496 C504 0.950 . S
H497 C509 0.950 . S
H498 C506 0.950 . S
H499 C508 0.950 . S
H500 C510 0.950 . S
H501 C512 0.950 . S
H502 C514 0.950 . S
H503 C515 0.950 . S
C504 H496 0.950 . S
C504 C505 1.386 . S
C504 C506 1.391 . S
C505 C504 1.386 . S
C505 C509 1.393 . S
C506 H498 0.950 . S
C506 C504 1.391 . S
C506 C507 1.400 . S
C507 C506 1.400 . S
C507 C508 1.398 . S
C507 C513 1.491 . S
C508 H499 0.950 . S
C508 C507 1.398 . S
C508 C509 1.391 . S
C509 H497 0.950 . S
C509 C505 1.393 . S
C509 C508 1.391 . S
C510 H500 0.950 . S
C510 C511 1.386 . S
C510 C512 1.391 . S
C511 C510 1.386 . S
C511 C515 1.393 . S
C512 H501 0.950 . S
C512 C510 1.391 . S
C512 C513 1.400 . S
C513 C507 1.491 . S
C513 C512 1.400 . S
C513 C514 1.398 . S
C514 H502 0.950 . S
C514 C513 1.398 . S
C514 C515 1.391 . S
C515 H503 0.950 . S
C515 C511 1.393 . S
C515 C514 1.391 . S
H516 C524 0.950 . S
H517 C529 0.934 1_455 S
H518 C526 0.950 . S
H519 C528 0.950 . S
H520 C530 0.950 . S
H521 C532 0.950 . S
H522 C534 0.950 . S
H523 C535 0.950 . S
C524 H516 0.950 . S
C524 C525 1.386 . S
C524 C526 1.391 . S
C525 C524 1.386 . S
C525 C529 1.393 . S
C526 H518 0.950 . S
C526 C524 1.391 . S
C526 C527 1.400 . S
C527 C526 1.400 . S
C527 C528 1.398 . S
C527 C533 1.491 . S
C528 H519 0.950 . S
C528 C527 1.398 . S
C528 C529 1.391 . S
C529 H517 0.934 1_655 S
C529 C525 1.393 . S
C529 C528 1.391 . S
C530 H520 0.950 . S
C530 C531 1.386 . S
C530 C532 1.391 . S
C531 C530 1.386 . S
C531 C535 1.393 . S
C532 H521 0.950 . S
C532 C530 1.391 . S
C532 C533 1.400 1_554 S
C533 C527 1.491 . S
C533 C532 1.400 1_556 S
C533 C534 1.398 . S
C534 H522 0.950 . S
C534 C533 1.398 . S
C534 C535 1.391 1_556 S
C535 H523 0.950 . S
C535 C531 1.393 . S
C535 C534 1.391 1_554 S
H536 C544 0.950 . S
H537 C549 0.950 . S
H538 C546 0.950 . S
H539 C548 0.950 . S
H540 C550 0.950 . S
H541 C552 0.950 . S
H542 C554 0.950 . S
H543 C555 0.950 . S
C544 H536 0.950 . S
C544 C545 1.386 . S
C544 C546 1.391 . S
C545 C544 1.386 . S
C545 C549 1.393 . S
C546 H538 0.950 . S
C546 C544 1.391 . S
C546 C547 1.400 . S
C547 C546 1.400 . S
C547 C548 1.398 . S
C547 C553 1.491 . S
C548 H539 0.950 . S
C548 C547 1.398 . S
C548 C549 1.391 . S
C549 H537 0.950 . S
C549 C545 1.393 . S
C549 C548 1.391 . S
C550 H540 0.950 . S
C550 C551 1.386 . S
C550 C552 1.391 . S
C551 C550 1.386 . S
C551 C555 1.393 . S
C552 H541 0.950 . S
C552 C550 1.391 . S
C552 C553 1.400 . S
C553 C547 1.491 . S
C553 C552 1.400 . S
C553 C554 1.398 . S
C554 H542 0.950 . S
C554 C553 1.398 . S
C554 C555 1.391 . S
C555 H543 0.950 . S
C555 C551 1.393 . S
C555 C554 1.391 . S
H556 C564 0.950 . S
H557 C569 0.950 . S
H558 C566 0.950 . S
H559 C568 0.950 . S
H560 C570 0.950 . S
H561 C572 0.950 . S
H562 C574 0.950 . S
H563 C575 0.950 . S
C564 H556 0.950 . S
C564 C565 1.386 . S
C564 C566 1.391 . S
C565 C564 1.386 . S
C565 C569 1.393 . S
C566 H558 0.950 . S
C566 C564 1.391 . S
C566 C567 1.400 . S
C567 C566 1.400 . S
C567 C568 1.398 . S
C567 C573 1.491 . S
C568 H559 0.950 . S
C568 C567 1.398 . S
C568 C569 1.391 . S
C569 H557 0.950 . S
C569 C565 1.393 . S
C569 C568 1.391 . S
C570 H560 0.950 . S
C570 C571 1.386 . S
C570 C572 1.391 . S
C571 C570 1.386 . S
C571 C575 1.393 . S
C572 H561 0.950 . S
C572 C570 1.391 . S
C572 C573 1.400 1_556 S
C573 C567 1.491 . S
C573 C572 1.400 1_554 S
C573 C574 1.398 . S
C574 H562 0.950 . S
C574 C573 1.398 . S
C574 C575 1.391 1_554 S
C575 H563 0.950 . S
C575 C571 1.393 . S
C575 C574 1.391 1_556 S
H576 C584 0.950 . S
H577 C589 0.950 . S
H578 C586 0.950 . S
H579 C588 0.950 . S
H580 C590 0.950 . S
H581 C592 0.950 . S
H582 C594 0.950 . S
H583 C595 0.950 . S
C584 H576 0.950 . S
C584 C585 1.386 . S
C584 C586 1.391 . S
C585 C584 1.386 . S
C585 C589 1.393 . S
C586 H578 0.950 . S
C586 C584 1.391 . S
C586 C587 1.400 . S
C587 C586 1.400 . S
C587 C588 1.398 . S
C587 C593 1.491 . S
C588 H579 0.950 . S
C588 C587 1.398 . S
C588 C589 1.391 . S
C589 H577 0.950 . S
C589 C585 1.393 . S
C589 C588 1.391 . S
C590 H580 0.950 . S
C590 C591 1.386 . S
C590 C592 1.391 . S
C591 C590 1.386 . S
C591 C595 1.393 . S
C592 H581 0.950 . S
C592 C590 1.391 . S
C592 C593 1.400 . S
C593 C587 1.491 . S
C593 C592 1.400 . S
C593 C594 1.398 . S
C594 H582 0.950 . S
C594 C593 1.398 . S
C594 C595 1.391 . S
C595 H583 0.950 . S
C595 C591 1.393 . S
C595 C594 1.391 . S
H596 C604 0.950 1_655 S
H597 C609 0.950 . S
H598 C606 0.974 . S
H599 C608 0.950 . S
H600 C610 0.950 . S
H601 C612 0.950 . S
H602 C614 0.950 . S
H603 C615 0.950 . S
C604 H596 0.950 1_455 S
C604 C605 1.386 . S
C604 C606 1.391 . S
C605 C604 1.386 . S
C605 C609 1.393 . S
C606 H598 0.974 . S
C606 C604 1.391 . S
C606 C607 1.400 . S
C607 C606 1.400 . S
C607 C608 1.398 . S
C607 C613 1.491 . S
C608 H599 0.950 . S
C608 C607 1.398 . S
C608 C609 1.391 . S
C609 H597 0.950 . S
C609 C605 1.393 . S
C609 C608 1.391 . S
C610 H600 0.950 . S
C610 C611 1.386 . S
C610 C612 1.391 1_556 S
C611 C610 1.386 . S
C611 C615 1.393 . S
C612 H601 0.950 . S
C612 C610 1.391 1_554 S
C612 C613 1.400 . S
C613 C607 1.491 . S
C613 C612 1.400 . S
C613 C614 1.398 1_554 S
C614 H602 0.950 . S
C614 C613 1.398 1_556 S
C614 C615 1.391 . S
C615 H603 0.950 . S
C615 C611 1.393 . S
C615 C614 1.391 . S
H616 C624 0.950 . S
H617 C629 0.950 . S
H618 C626 0.950 . S
H619 C628 0.950 . S
H620 C630 0.950 . S
H621 C632 0.950 . S
H622 C634 0.950 . S
H623 C635 0.950 . S
C624 H616 0.950 . S
C624 C625 1.386 . S
C624 C626 1.391 . S
C625 C624 1.386 . S
C625 C629 1.393 . S
C626 H618 0.950 . S
C626 C624 1.391 . S
C626 C627 1.400 . S
C627 C626 1.400 . S
C627 C628 1.398 . S
C627 C633 1.491 . S
C628 H619 0.950 . S
C628 C627 1.398 . S
C628 C629 1.391 . S
C629 H617 0.950 . S
C629 C625 1.393 . S
C629 C628 1.391 . S
C630 H620 0.950 . S
C630 C631 1.386 . S
C630 C632 1.391 . S
C631 C630 1.386 . S
C631 C635 1.393 . S
C632 H621 0.950 . S
C632 C630 1.391 . S
C632 C633 1.400 . S
C633 C627 1.491 . S
C633 C632 1.400 . S
C633 C634 1.398 . S
C634 H622 0.950 . S
C634 C633 1.398 . S
C634 C635 1.391 . S
C635 H623 0.950 . S
C635 C631 1.393 . S
C635 C634 1.391 . S
H636 C644 0.950 . S
H637 C649 0.950 . S
H638 C646 0.950 . S
H639 C648 0.950 . S
H640 C650 0.950 . S
H641 C652 0.950 . S
H642 C654 0.950 . S
H643 C655 0.950 . S
C644 H636 0.950 . S
C644 C645 1.386 . S
C644 C646 1.391 1_554 S
C645 C644 1.386 . S
C645 C649 1.393 . S
C646 H638 0.950 . S
C646 C644 1.391 1_556 S
C646 C647 1.400 . S
C647 C646 1.400 . S
C647 C648 1.398 1_556 S
C647 C653 1.491 . S
C648 H639 0.950 . S
C648 C647 1.398 1_554 S
C648 C649 1.391 . S
C649 H637 0.950 . S
C649 C645 1.393 . S
C649 C648 1.391 . S
C650 H640 0.950 . S
C650 C651 1.386 . S
C650 C652 1.391 . S
C651 C650 1.386 . S
C651 C655 1.393 . S
C652 H641 0.950 . S
C652 C650 1.391 . S
C652 C653 1.400 . S
C653 C647 1.491 . S
C653 C652 1.400 . S
C653 C654 1.398 . S
C654 H642 0.950 . S
C654 C653 1.398 . S
C654 C655 1.391 . S
C655 H643 0.950 . S
C655 C651 1.393 . S
C655 C654 1.391 . S
C185 C140 1.633 . S
C191 C5 1.542 . S
C205 C27 1.533 . S
C211 C162 1.627 . S
C225 C96 1.627 . S
C231 C49 1.549 . S
C245 C75 1.556 . S
C251 C114 1.629 . S
C265 C52 1.627 . S
C271 C94 1.546 . S
C285 C117 1.542 . S
C291 C70 1.633 . S
C305 C8 1.628 . S
C311 C138 1.554 . S
C325 C30 1.633 . S
C331 C160 1.545 . S
C345 C9 1.096 . S
C351 C95 1.096 . S
C365 C116 1.105 . S
C371 C31 1.105 . S
C385 C53 1.070 . S
C391 C139 1.070 . S
C405 C161 1.080 . S
C411 C71 1.080 . S
C425 C74 1.518 . S
C431 C4 1.536 . S
C445 C26 1.536 . S
C451 C48 1.519 . S
C465 C158 1.531 . S
C471 C92 1.524 . S
C485 C118 1.534 . S
C491 C136 1.521 . S
C505 C6 1.344 . S
C511 C51 1.392 . S
C525 C28 1.302 . S
C531 C72 1.404 . S
C545 C50 1.311 . S
C551 C7 1.388 . S
C565 C73 1.302 . S
C571 C29 1.404 . S
C585 C93 1.334 . S
C591 C141 1.384 . S
C605 C119 1.310 . S
C611 C163 1.411 . S
C625 C137 1.312 . S
C631 C97 1.387 . S
C645 C115 1.388 . S
C651 C159 1.341 . S
