# Generated by pormake.
# Topology wgl, (5)-cn, num edge types: 1
# Building blocks:
#     Node 0, Type 0, BuildingBlock: BEQFEK_clean_sbu_0, # of connection points: 5
#     Node 1, Type 0, BuildingBlock: BEQFEK_clean_sbu_0, # of connection points: 5
#     Node 2, Type 0, BuildingBlock: BEQFEK_clean_sbu_0, # of connection points: 5
#     Node 3, Type 0, BuildingBlock: BEQFEK_clean_sbu_0, # of connection points: 5
#     Node 4, Type 0, BuildingBlock: BEQFEK_clean_sbu_0, # of connection points: 5
#     Node 5, Type 0, BuildingBlock: BEQFEK_clean_sbu_0, # of connection points: 5
#     Node 6, Type 0, BuildingBlock: BEQFEK_clean_sbu_0, # of connection points: 5
#     Node 7, Type 0, BuildingBlock: BEQFEK_clean_sbu_0, # of connection points: 5
#     Node 8, Type 0, BuildingBlock: BEQFEK_clean_sbu_0, # of connection points: 5
#     Node 9, Type 0, BuildingBlock: BEQFEK_clean_sbu_0, # of connection points: 5
#     Node 10, Type 0, BuildingBlock: BEQFEK_clean_sbu_0, # of connection points: 5
#     Node 11, Type 0, BuildingBlock: BEQFEK_clean_sbu_0, # of connection points: 5
#     Node 12, Type 0, BuildingBlock: BEQFEK_clean_sbu_0, # of connection points: 5
#     Node 13, Type 0, BuildingBlock: BEQFEK_clean_sbu_0, # of connection points: 5
#     Node 14, Type 0, BuildingBlock: BEQFEK_clean_sbu_0, # of connection points: 5
#     Node 15, Type 0, BuildingBlock: BEQFEK_clean_sbu_0, # of connection points: 5
#     Node 16, Type 0, BuildingBlock: BEQFEK_clean_sbu_0, # of connection points: 5
#     Node 17, Type 0, BuildingBlock: BEQFEK_clean_sbu_0, # of connection points: 5
#     Node 18, Type 0, BuildingBlock: BEQFEK_clean_sbu_0, # of connection points: 5
#     Node 19, Type 0, BuildingBlock: BEQFEK_clean_sbu_0, # of connection points: 5
#     Node 20, Type 0, BuildingBlock: BEQFEK_clean_sbu_0, # of connection points: 5
#     Node 21, Type 0, BuildingBlock: BEQFEK_clean_sbu_0, # of connection points: 5
#     Node 22, Type 0, BuildingBlock: BEQFEK_clean_sbu_0, # of connection points: 5
#     Node 23, Type 0, BuildingBlock: BEQFEK_clean_sbu_0, # of connection points: 5
#     Node 24, Type 0, BuildingBlock: BEQFEK_clean_sbu_0, # of connection points: 5
#     Node 25, Type 0, BuildingBlock: BEQFEK_clean_sbu_0, # of connection points: 5
#     Node 26, Type 0, BuildingBlock: BEQFEK_clean_sbu_0, # of connection points: 5
#     Node 27, Type 0, BuildingBlock: BEQFEK_clean_sbu_0, # of connection points: 5
#     Node 28, Type 0, BuildingBlock: BEQFEK_clean_sbu_0, # of connection points: 5
#     Node 29, Type 0, BuildingBlock: BEQFEK_clean_sbu_0, # of connection points: 5
#     Node 30, Type 0, BuildingBlock: BEQFEK_clean_sbu_0, # of connection points: 5
#     Node 31, Type 0, BuildingBlock: BEQFEK_clean_sbu_0, # of connection points: 5
#     Edge 32, Type (0, 0), BuildingBlock: KIFKEQ_clean_linker_1, # of connection points: 2
#     Edge 33, Type (0, 0), BuildingBlock: KIFKEQ_clean_linker_1, # of connection points: 2
#     Edge 34, Type (0, 0), BuildingBlock: KIFKEQ_clean_linker_1, # of connection points: 2
#     Edge 35, Type (0, 0), BuildingBlock: KIFKEQ_clean_linker_1, # of connection points: 2
#     Edge 36, Type (0, 0), BuildingBlock: KIFKEQ_clean_linker_1, # of connection points: 2
#     Edge 37, Type (0, 0), BuildingBlock: KIFKEQ_clean_linker_1, # of connection points: 2
#     Edge 38, Type (0, 0), BuildingBlock: KIFKEQ_clean_linker_1, # of connection points: 2
#     Edge 39, Type (0, 0), BuildingBlock: KIFKEQ_clean_linker_1, # of connection points: 2
#     Edge 40, Type (0, 0), BuildingBlock: KIFKEQ_clean_linker_1, # of connection points: 2
#     Edge 41, Type (0, 0), BuildingBlock: KIFKEQ_clean_linker_1, # of connection points: 2
#     Edge 42, Type (0, 0), BuildingBlock: KIFKEQ_clean_linker_1, # of connection points: 2
#     Edge 43, Type (0, 0), BuildingBlock: KIFKEQ_clean_linker_1, # of connection points: 2
#     Edge 44, Type (0, 0), BuildingBlock: KIFKEQ_clean_linker_1, # of connection points: 2
#     Edge 45, Type (0, 0), BuildingBlock: KIFKEQ_clean_linker_1, # of connection points: 2
#     Edge 46, Type (0, 0), BuildingBlock: KIFKEQ_clean_linker_1, # of connection points: 2
#     Edge 47, Type (0, 0), BuildingBlock: KIFKEQ_clean_linker_1, # of connection points: 2
#     Edge 48, Type (0, 0), BuildingBlock: KIFKEQ_clean_linker_1, # of connection points: 2
#     Edge 49, Type (0, 0), BuildingBlock: KIFKEQ_clean_linker_1, # of connection points: 2
#     Edge 50, Type (0, 0), BuildingBlock: KIFKEQ_clean_linker_1, # of connection points: 2
#     Edge 51, Type (0, 0), BuildingBlock: KIFKEQ_clean_linker_1, # of connection points: 2
#     Edge 52, Type (0, 0), BuildingBlock: KIFKEQ_clean_linker_1, # of connection points: 2
#     Edge 53, Type (0, 0), BuildingBlock: KIFKEQ_clean_linker_1, # of connection points: 2
#     Edge 54, Type (0, 0), BuildingBlock: KIFKEQ_clean_linker_1, # of connection points: 2
#     Edge 55, Type (0, 0), BuildingBlock: KIFKEQ_clean_linker_1, # of connection points: 2
#     Edge 56, Type (0, 0), BuildingBlock: KIFKEQ_clean_linker_1, # of connection points: 2
#     Edge 57, Type (0, 0), BuildingBlock: KIFKEQ_clean_linker_1, # of connection points: 2
#     Edge 58, Type (0, 0), BuildingBlock: KIFKEQ_clean_linker_1, # of connection points: 2
#     Edge 59, Type (0, 0), BuildingBlock: KIFKEQ_clean_linker_1, # of connection points: 2
#     Edge 60, Type (0, 0), BuildingBlock: KIFKEQ_clean_linker_1, # of connection points: 2
#     Edge 61, Type (0, 0), BuildingBlock: KIFKEQ_clean_linker_1, # of connection points: 2
#     Edge 62, Type (0, 0), BuildingBlock: KIFKEQ_clean_linker_1, # of connection points: 2
#     Edge 63, Type (0, 0), BuildingBlock: KIFKEQ_clean_linker_1, # of connection points: 2
#     Edge 64, Type (0, 0), BuildingBlock: KIFKEQ_clean_linker_1, # of connection points: 2
#     Edge 65, Type (0, 0), BuildingBlock: KIFKEQ_clean_linker_1, # of connection points: 2
#     Edge 66, Type (0, 0), BuildingBlock: KIFKEQ_clean_linker_1, # of connection points: 2
#     Edge 67, Type (0, 0), BuildingBlock: KIFKEQ_clean_linker_1, # of connection points: 2
#     Edge 68, Type (0, 0), BuildingBlock: KIFKEQ_clean_linker_1, # of connection points: 2
#     Edge 69, Type (0, 0), BuildingBlock: KIFKEQ_clean_linker_1, # of connection points: 2
#     Edge 70, Type (0, 0), BuildingBlock: KIFKEQ_clean_linker_1, # of connection points: 2
#     Edge 71, Type (0, 0), BuildingBlock: KIFKEQ_clean_linker_1, # of connection points: 2
#     Edge 72, Type (0, 0), BuildingBlock: KIFKEQ_clean_linker_1, # of connection points: 2
#     Edge 73, Type (0, 0), BuildingBlock: KIFKEQ_clean_linker_1, # of connection points: 2
#     Edge 74, Type (0, 0), BuildingBlock: KIFKEQ_clean_linker_1, # of connection points: 2
#     Edge 75, Type (0, 0), BuildingBlock: KIFKEQ_clean_linker_1, # of connection points: 2
#     Edge 76, Type (0, 0), BuildingBlock: KIFKEQ_clean_linker_1, # of connection points: 2
#     Edge 77, Type (0, 0), BuildingBlock: KIFKEQ_clean_linker_1, # of connection points: 2
#     Edge 78, Type (0, 0), BuildingBlock: KIFKEQ_clean_linker_1, # of connection points: 2
#     Edge 79, Type (0, 0), BuildingBlock: KIFKEQ_clean_linker_1, # of connection points: 2
#     Edge 80, Type (0, 0), BuildingBlock: KIFKEQ_clean_linker_1, # of connection points: 2
#     Edge 81, Type (0, 0), BuildingBlock: KIFKEQ_clean_linker_1, # of connection points: 2
#     Edge 82, Type (0, 0), BuildingBlock: KIFKEQ_clean_linker_1, # of connection points: 2
#     Edge 83, Type (0, 0), BuildingBlock: KIFKEQ_clean_linker_1, # of connection points: 2
#     Edge 84, Type (0, 0), BuildingBlock: KIFKEQ_clean_linker_1, # of connection points: 2
#     Edge 85, Type (0, 0), BuildingBlock: KIFKEQ_clean_linker_1, # of connection points: 2
#     Edge 86, Type (0, 0), BuildingBlock: KIFKEQ_clean_linker_1, # of connection points: 2
#     Edge 87, Type (0, 0), BuildingBlock: KIFKEQ_clean_linker_1, # of connection points: 2
#     Edge 88, Type (0, 0), BuildingBlock: KIFKEQ_clean_linker_1, # of connection points: 2
#     Edge 89, Type (0, 0), BuildingBlock: KIFKEQ_clean_linker_1, # of connection points: 2
#     Edge 90, Type (0, 0), BuildingBlock: KIFKEQ_clean_linker_1, # of connection points: 2
#     Edge 91, Type (0, 0), BuildingBlock: KIFKEQ_clean_linker_1, # of connection points: 2
#     Edge 92, Type (0, 0), BuildingBlock: KIFKEQ_clean_linker_1, # of connection points: 2
#     Edge 93, Type (0, 0), BuildingBlock: KIFKEQ_clean_linker_1, # of connection points: 2
#     Edge 94, Type (0, 0), BuildingBlock: KIFKEQ_clean_linker_1, # of connection points: 2
#     Edge 95, Type (0, 0), BuildingBlock: KIFKEQ_clean_linker_1, # of connection points: 2
#     Edge 96, Type (0, 0), BuildingBlock: KIFKEQ_clean_linker_1, # of connection points: 2
#     Edge 97, Type (0, 0), BuildingBlock: KIFKEQ_clean_linker_1, # of connection points: 2
#     Edge 98, Type (0, 0), BuildingBlock: KIFKEQ_clean_linker_1, # of connection points: 2
#     Edge 99, Type (0, 0), BuildingBlock: KIFKEQ_clean_linker_1, # of connection points: 2
#     Edge 100, Type (0, 0), BuildingBlock: KIFKEQ_clean_linker_1, # of connection points: 2
#     Edge 101, Type (0, 0), BuildingBlock: KIFKEQ_clean_linker_1, # of connection points: 2
#     Edge 102, Type (0, 0), BuildingBlock: KIFKEQ_clean_linker_1, # of connection points: 2
#     Edge 103, Type (0, 0), BuildingBlock: KIFKEQ_clean_linker_1, # of connection points: 2
#     Edge 104, Type (0, 0), BuildingBlock: KIFKEQ_clean_linker_1, # of connection points: 2
#     Edge 105, Type (0, 0), BuildingBlock: KIFKEQ_clean_linker_1, # of connection points: 2
#     Edge 106, Type (0, 0), BuildingBlock: KIFKEQ_clean_linker_1, # of connection points: 2
#     Edge 107, Type (0, 0), BuildingBlock: KIFKEQ_clean_linker_1, # of connection points: 2
#     Edge 108, Type (0, 0), BuildingBlock: KIFKEQ_clean_linker_1, # of connection points: 2
#     Edge 109, Type (0, 0), BuildingBlock: KIFKEQ_clean_linker_1, # of connection points: 2
#     Edge 110, Type (0, 0), BuildingBlock: KIFKEQ_clean_linker_1, # of connection points: 2
#     Edge 111, Type (0, 0), BuildingBlock: KIFKEQ_clean_linker_1, # of connection points: 2
# Relax obj value: 0.069
# Max RMSD: 0.100
# Mean RMSD: 0.100
data_MOF--net-wgl--node1-BEQFEK_clean_sbu_0--edge1-KIFKEQ_clean_linker_1
_symmetry_space_group_name_H-M    P1
_symmetry_Int_Tables_number       1
_symmetry_cell_setting            triclinic
loop_
_symmetry_equiv_pos_as_xyz
'x, y, z'
_cell_length_a     57.644931
_cell_length_b     57.600646
_cell_length_c     60.374622
_cell_angle_alpha  89.99332
_cell_angle_beta   89.990371
_cell_angle_gamma 90.009051
loop_
_atom_site_label
_atom_site_type_symbol
_atom_site_fract_x
_atom_site_fract_y
_atom_site_fract_z
_atom_type_partial_charge
Co0 Co 0.31306 0.26885 0.12504 0.0
Co1 Co 0.28186 0.31294 0.12864 0.0
C2 C 0.28042 0.28295 0.08825 0.0
O3 O 0.29613 0.26952 0.09591 0.0
O4 O 0.27305 0.30027 0.09935 0.0
C5 C 0.32822 0.22134 0.11672 0.0
O6 O 0.31221 0.22083 0.10124 0.0
C7 C 0.24173 0.34476 0.13038 0.0
C8 C 0.258 0.37501 0.14677 0.0
C9 C 0.23755 0.36727 0.13737 0.0
N10 N 0.2638 0.33945 0.13546 0.0
N11 N 0.2733 0.35752 0.14545 0.0
C12 C 0.22586 0.32932 0.1175 0.0
H13 H 0.23112 0.31089 0.11944 0.0
H14 H 0.20764 0.33165 0.12296 0.0
H15 H 0.22694 0.33401 0.0997 0.0
C16 C 0.28862 0.25839 0.16765 0.0
N17 N 0.29206 0.27155 0.14945 0.0
N18 N 0.27899 0.2902 0.15087 0.0
C19 C 0.26692 0.28965 0.16997 0.0
C20 C 0.27255 0.26942 0.18128 0.0
C21 C 0.30067 0.23581 0.17184 0.0
H22 H 0.29886 0.22449 0.15708 0.0
H23 H 0.29341 0.2267 0.18647 0.0
H24 H 0.31944 0.23908 0.17446 0.0
O25 O 0.33672 0.29412 0.1262 0.0
O26 O 0.31381 0.32484 0.12831 0.0
H27 H 0.24626 0.30674 0.19539 0.0
H28 H 0.23728 0.31175 0.16711 0.0
C29 C 0.25243 0.30944 0.17821 0.0
H30 H 0.26282 0.32561 0.17782 0.0
H31 H 0.29045 0.35808 0.15096 0.0
O32 O 0.33092 0.23965 0.12816 0.0
C33 C 0.33396 0.31599 0.12763 0.0
Co34 Co 0.98277 0.06439 0.37451 0.0
Co35 Co 0.94012 0.03125 0.37995 0.0
C36 C 0.96817 0.03054 0.33855 0.0
O37 O 0.98123 0.04682 0.3457 0.0
O38 O 0.95163 0.02252 0.35026 0.0
C39 C 0.03187 0.07534 0.3726 0.0
O40 O 0.03484 0.0529 0.36992 0.0
C41 C 0.90541 0.99298 0.38073 0.0
C42 C 0.88668 0.002 0.41152 0.0
C43 C 0.88762 0.98568 0.39471 0.0
N44 N 0.91485 0.01234 0.38937 0.0
N45 N 0.90333 0.01776 0.40756 0.0
C46 C 0.91198 0.98326 0.3586 0.0
H47 H 0.9166 0.99751 0.34711 0.0
H48 H 0.92732 0.9718 0.36055 0.0
H49 H 0.89752 0.97326 0.35115 0.0
C50 C 0.99526 0.04186 0.41781 0.0
N51 N 0.9819 0.04401 0.39953 0.0
N52 N 0.96455 0.02918 0.40094 0.0
C53 C 0.96693 0.01657 0.41961 0.0
C54 C 0.98624 0.02429 0.43095 0.0
C55 C 0.01496 0.05761 0.42366 0.0
H56 H 0.01135 0.07549 0.41779 0.0
H57 H 0.03097 0.05125 0.41548 0.0
H58 H 0.018 0.05781 0.44181 0.0
O59 O 0.95689 0.08685 0.37656 0.0
O60 O 0.92693 0.06305 0.37975 0.0
H61 H 0.9363 0.00523 0.43632 0.0
H62 H 0.9601 0.9853 0.43812 0.0
C63 C 0.95097 0.99758 0.42695 0.0
H64 H 0.94423 0.98792 0.41245 0.0
H65 H 0.90699 0.0322 0.41739 0.0
O66 O 0.01146 0.08336 0.37476 0.0
C67 C 0.93519 0.08349 0.37865 0.0
Co68 Co 0.18602 0.7327 0.62514 0.0
Co69 Co 0.21972 0.69056 0.62956 0.0
C70 C 0.22028 0.71972 0.58889 0.0
O71 O 0.20399 0.73255 0.59639 0.0
O72 O 0.22821 0.70277 0.60011 0.0
C73 C 0.17483 0.7817 0.62644 0.0
O74 O 0.1974 0.78479 0.62561 0.0
C75 C 0.26019 0.65932 0.6299 0.0
C76 C 0.25016 0.63498 0.65658 0.0
C77 C 0.26761 0.63999 0.6416 0.0
N78 N 0.23929 0.66553 0.63775 0.0
N79 N 0.23334 0.65084 0.65358 0.0
C80 C 0.27318 0.67255 0.61257 0.0
H81 H 0.2703 0.69145 0.61482 0.0
H82 H 0.29204 0.66877 0.61329 0.0
H83 H 0.26649 0.66761 0.596 0.0
C84 C 0.20725 0.74314 0.66981 0.0
N85 N 0.206 0.73113 0.65058 0.0
N86 N 0.22124 0.71412 0.65127 0.0
C87 C 0.23319 0.7153 0.6704 0.0
C88 C 0.22454 0.73344 0.68294 0.0
C89 C 0.19045 0.76157 0.67669 0.0
H90 H 0.17318 0.75828 0.66924 0.0
H91 H 0.19687 0.77868 0.67091 0.0
H92 H 0.18876 0.76226 0.695 0.0
O93 O 0.16391 0.70628 0.62585 0.0
O94 O 0.18828 0.67677 0.62928 0.0
H95 H 0.24537 0.68312 0.68364 0.0
H96 H 0.26392 0.70747 0.68945 0.0
C97 C 0.25262 0.6994 0.67671 0.0
H98 H 0.26329 0.69523 0.66198 0.0
H99 H 0.21784 0.65178 0.66247 0.0
O100 O 0.16671 0.76119 0.62623 0.0
C101 C 0.16772 0.68462 0.62787 0.0
Co102 Co 0.518 0.93689 0.87418 0.0
Co103 Co 0.56208 0.96816 0.87784 0.0
C104 C 0.53181 0.97088 0.83804 0.0
O105 O 0.51862 0.95485 0.84553 0.0
O106 O 0.5492 0.97812 0.84907 0.0
C107 C 0.46842 0.92653 0.87401 0.0
O108 O 0.4653 0.9489 0.871 0.0
C109 C 0.59517 0.00734 0.87924 0.0
C110 C 0.62339 0.99142 0.8989 0.0
C111 C 0.61718 0.01139 0.88765 0.0
N112 N 0.58868 0.98586 0.88535 0.0
N113 N 0.60553 0.97656 0.89724 0.0
C114 C 0.58138 0.0225 0.86405 0.0
H115 H 0.5626 0.02064 0.86772 0.0
H116 H 0.58663 0.04096 0.86549 0.0
H117 H 0.58432 0.01677 0.84673 0.0
C118 C 0.50863 0.95965 0.9182 0.0
N119 N 0.52102 0.95693 0.89937 0.0
N120 N 0.53956 0.97025 0.90046 0.0
C121 C 0.53944 0.98197 0.91976 0.0
C122 C 0.51992 0.97564 0.93162 0.0
C123 C 0.48762 0.94576 0.92418 0.0
H124 H 0.48976 0.92755 0.91859 0.0
H125 H 0.47228 0.95328 0.91574 0.0
H126 H 0.48445 0.94607 0.94231 0.0
O127 O 0.54323 0.91337 0.87472 0.0
O128 O 0.57407 0.93617 0.87607 0.0
H129 H 0.57409 0.9889 0.93042 0.0
H130 H 0.55271 0.0083 0.94204 0.0
C131 C 0.55789 0.99862 0.92693 0.0
H132 H 0.56138 0.01118 0.91343 0.0
H133 H 0.60504 0.9598 0.9038 0.0
O134 O 0.48889 0.91857 0.87572 0.0
C135 C 0.56513 0.91603 0.87538 0.0
Co136 Co 0.31543 0.73114 0.39626 0.0
Co137 Co 0.28158 0.68904 0.39244 0.0
C138 C 0.28157 0.71845 0.43297 0.0
O139 O 0.29791 0.73113 0.42529 0.0
O140 O 0.27338 0.70152 0.42188 0.0
C141 C 0.3294 0.7792 0.40191 0.0
O142 O 0.30997 0.78149 0.41307 0.0
C143 C 0.24097 0.65789 0.39232 0.0
C144 C 0.24967 0.63509 0.36402 0.0
C145 C 0.23281 0.63952 0.37975 0.0
N146 N 0.26172 0.66423 0.38421 0.0
N147 N 0.26692 0.65037 0.36747 0.0
C148 C 0.22873 0.67024 0.41071 0.0
H149 H 0.2304 0.68928 0.40839 0.0
H150 H 0.21011 0.66543 0.41143 0.0
H151 H 0.23712 0.66566 0.42667 0.0
C152 C 0.29374 0.74192 0.35241 0.0
N153 N 0.29514 0.72957 0.37137 0.0
N154 N 0.27986 0.71263 0.37069 0.0
C155 C 0.26758 0.71425 0.35178 0.0
C156 C 0.27625 0.7325 0.33926 0.0
C157 C 0.31051 0.76066 0.34617 0.0
H158 H 0.32828 0.75569 0.35137 0.0
H159 H 0.30575 0.77687 0.355 0.0
H160 H 0.31044 0.764 0.32808 0.0
O161 O 0.33734 0.70475 0.39511 0.0
O162 O 0.31307 0.67506 0.3927 0.0
H163 H 0.25352 0.6829 0.33835 0.0
H164 H 0.23552 0.70805 0.33423 0.0
C165 C 0.24727 0.69918 0.34609 0.0
H166 H 0.23734 0.69488 0.36126 0.0
H167 H 0.2821 0.65168 0.35812 0.0
O168 O 0.33469 0.75952 0.39387 0.0
C169 C 0.33363 0.68304 0.39355 0.0
Co170 Co 0.52075 0.06671 0.64582 0.0
Co171 Co 0.56227 0.03226 0.64219 0.0
C172 C 0.53295 0.03248 0.68249 0.0
O173 O 0.52053 0.04895 0.6747 0.0
O174 O 0.54983 0.02408 0.67152 0.0
C175 C 0.47214 0.07808 0.64379 0.0
O176 O 0.46916 0.05547 0.64415 0.0
C177 C 0.59313 0.99148 0.64227 0.0
C178 C 0.61567 0.9996 0.61363 0.0
C179 C 0.61131 0.98301 0.62965 0.0
N180 N 0.58683 0.01215 0.63391 0.0
N181 N 0.60053 0.017 0.61696 0.0
C182 C 0.5809 0.97959 0.66094 0.0
H183 H 0.56186 0.98099 0.65855 0.0
H184 H 0.58588 0.96103 0.66212 0.0
H185 H 0.58534 0.98847 0.67669 0.0
C186 C 0.51064 0.0456 0.60118 0.0
N187 N 0.52231 0.04668 0.62058 0.0
N188 N 0.53865 0.03076 0.62046 0.0
C189 C 0.53706 0.01819 0.60174 0.0
C190 C 0.51964 0.02745 0.58857 0.0
C191 C 0.49339 0.06337 0.59368 0.0
H192 H 0.49683 0.08028 0.60179 0.0
H193 H 0.47569 0.05748 0.59818 0.0
H194 H 0.4941 0.06564 0.57544 0.0
O195 O 0.54724 0.0883 0.64492 0.0
O196 O 0.57663 0.06366 0.64252 0.0
H197 H 0.56771 0.00198 0.58907 0.0
H198 H 0.54173 0.98508 0.58558 0.0
C199 C 0.55113 0.99691 0.59699 0.0
H200 H 0.55488 0.98748 0.61258 0.0
H201 H 0.59921 0.03204 0.6074 0.0
O202 O 0.49256 0.0863 0.64453 0.0
C203 C 0.56888 0.08433 0.64343 0.0
Co204 Co 0.18575 0.26964 0.89575 0.0
Co205 Co 0.21939 0.31198 0.89173 0.0
C206 C 0.21967 0.28274 0.93227 0.0
O207 O 0.20336 0.26997 0.92468 0.0
O208 O 0.22781 0.29964 0.9211 0.0
C209 C 0.17374 0.22093 0.90004 0.0
O210 O 0.19394 0.21869 0.90989 0.0
C211 C 0.2576 0.34671 0.89144 0.0
C212 C 0.24878 0.36544 0.86059 0.0
C213 C 0.26496 0.36452 0.87752 0.0
N214 N 0.23833 0.33727 0.88267 0.0
N215 N 0.23303 0.34877 0.86444 0.0
C216 C 0.26728 0.33998 0.91353 0.0
H217 H 0.25311 0.33462 0.92481 0.0
H218 H 0.27927 0.32508 0.9114 0.0
H219 H 0.27675 0.35463 0.9213 0.0
C220 C 0.20767 0.25903 0.85186 0.0
N221 N 0.206 0.27144 0.87077 0.0
N222 N 0.22144 0.28822 0.8703 0.0
C223 C 0.23422 0.28634 0.85173 0.0
C224 C 0.22561 0.26818 0.83907 0.0
C225 C 0.19091 0.2404 0.84533 0.0
H226 H 0.17323 0.24491 0.85114 0.0
H227 H 0.19612 0.22386 0.85333 0.0
H228 H 0.19055 0.23788 0.82712 0.0
O229 O 0.16335 0.29568 0.89487 0.0
O230 O 0.18767 0.32529 0.89187 0.0
H231 H 0.25006 0.31651 0.83756 0.0
H232 H 0.26767 0.29084 0.83631 0.0
C233 C 0.25525 0.3007 0.84675 0.0
H234 H 0.26402 0.30587 0.86233 0.0
H235 H 0.21873 0.34503 0.85448 0.0
O236 O 0.16724 0.24083 0.89343 0.0
C237 C 0.16711 0.31735 0.89302 0.0
Co238 Co 0.98122 0.93724 0.14542 0.0
Co239 Co 0.93727 0.96866 0.14187 0.0
C240 C 0.96721 0.96965 0.18237 0.0
O241 O 0.98059 0.95392 0.17469 0.0
O242 O 0.95001 0.97718 0.17122 0.0
C243 C 0.02844 0.92157 0.15367 0.0
O244 O 0.02923 0.93794 0.1688 0.0
C245 C 0.90672 0.00954 0.14095 0.0
C246 C 0.87622 0.99513 0.12348 0.0
C247 C 0.88454 0.0149 0.13377 0.0
N248 N 0.91131 0.98752 0.13507 0.0
N249 N 0.89312 0.97911 0.12445 0.0
C250 C 0.92246 0.02413 0.15487 0.0
H251 H 0.9408 0.01898 0.15217 0.0
H252 H 0.92022 0.04283 0.15112 0.0
H253 H 0.91812 0.02132 0.17258 0.0
C254 C 0.99191 0.96156 0.10292 0.0
N255 N 0.97877 0.95832 0.12116 0.0
N256 N 0.96007 0.97131 0.11961 0.0
C257 C 0.96062 0.98311 0.10036 0.0
C258 C 0.98077 0.97733 0.08914 0.0
C259 C 0.01359 0.94825 0.09801 0.0
H260 H 0.00964 0.9294 0.09801 0.0
H261 H 0.02648 0.95152 0.1113 0.0
H262 H 0.02113 0.95321 0.08178 0.0
O263 O 0.95571 0.91406 0.14387 0.0
O264 O 0.92482 0.93681 0.1423 0.0
H265 H 0.92562 0.98912 0.09018 0.0
H266 H 0.94658 0.00783 0.07681 0.0
C267 C 0.94188 0.99912 0.09257 0.0
H268 H 0.93868 0.01254 0.10536 0.0
H269 H 0.89202 0.96218 0.11836 0.0
O270 O 0.01009 0.91889 0.14232 0.0
C271 C 0.93382 0.91668 0.14274 0.0
Co272 Co 0.68685 0.73165 0.89476 0.0
Co273 Co 0.72019 0.68918 0.89075 0.0
C274 C 0.72009 0.71872 0.93153 0.0
O275 O 0.70402 0.73173 0.92386 0.0
O276 O 0.72806 0.70173 0.92035 0.0
C277 C 0.67219 0.77964 0.90003 0.0
O278 O 0.69136 0.78235 0.91152 0.0
C279 C 0.76074 0.65814 0.89158 0.0
C280 C 0.75234 0.63449 0.86385 0.0
C281 C 0.769 0.63939 0.87963 0.0
N282 N 0.74012 0.66428 0.88305 0.0
N283 N 0.7351 0.64993 0.86665 0.0
C284 C 0.7727 0.67085 0.90991 0.0
H285 H 0.77116 0.68984 0.90717 0.0
H286 H 0.79128 0.66597 0.91103 0.0
H287 H 0.764 0.66664 0.92581 0.0
C288 C 0.70949 0.74299 0.85138 0.0
N289 N 0.7075 0.73014 0.87002 0.0
N290 N 0.72214 0.71265 0.86893 0.0
C291 C 0.73425 0.71412 0.84989 0.0
C292 C 0.72644 0.73312 0.83796 0.0
C293 C 0.69389 0.76286 0.8457 0.0
H294 H 0.67556 0.75775 0.84845 0.0
H295 H 0.6978 0.77765 0.85686 0.0
H296 H 0.69618 0.76851 0.82827 0.0
O297 O 0.66481 0.70518 0.89383 0.0
O298 O 0.6888 0.67533 0.8907 0.0
H299 H 0.7451 0.68191 0.83574 0.0
H300 H 0.7645 0.70569 0.83036 0.0
C301 C 0.75303 0.6977 0.84301 0.0
H302 H 0.76367 0.69274 0.85753 0.0
H303 H 0.72 0.65092 0.85716 0.0
O304 O 0.66741 0.75984 0.89199 0.0
C305 C 0.66834 0.68346 0.89195 0.0
Co306 Co 0.0176 0.93656 0.64636 0.0
Co307 Co 0.06031 0.9695 0.64247 0.0
C308 C 0.03067 0.9714 0.68237 0.0
O309 O 0.01794 0.95504 0.67483 0.0
O310 O 0.04782 0.97919 0.67135 0.0
C311 C 0.96822 0.92698 0.64454 0.0
O312 O 0.96574 0.94965 0.64457 0.0
C313 C 0.09389 0.00828 0.64131 0.0
C314 C 0.1199 0.99363 0.61825 0.0
C315 C 0.11514 0.01268 0.63141 0.0
N316 N 0.08641 0.98748 0.63419 0.0
N317 N 0.10194 0.97894 0.62029 0.0
C318 C 0.08182 0.02237 0.65863 0.0
H319 H 0.06293 0.02284 0.65512 0.0
H320 H 0.0888 0.04029 0.65952 0.0
H321 H 0.08423 0.01387 0.67497 0.0
C322 C 0.00886 0.95719 0.60113 0.0
N323 N 0.02027 0.95602 0.62066 0.0
N324 N 0.03741 0.9711 0.62028 0.0
C325 C 0.03689 0.98299 0.60111 0.0
C326 C 0.01905 0.97435 0.58807 0.0
C327 C 0.99053 0.94036 0.59404 0.0
H328 H 0.99305 0.9234 0.60238 0.0
H329 H 0.97325 0.94733 0.59864 0.0
H330 H 0.99088 0.93777 0.57583 0.0
O331 O 0.04322 0.91357 0.64643 0.0
O332 O 0.07303 0.93763 0.64392 0.0
H333 H 0.06956 0.99564 0.58945 0.0
H334 H 0.04529 0.01417 0.58283 0.0
C335 C 0.05288 0.00267 0.59567 0.0
H336 H 0.05632 0.01309 0.61075 0.0
H337 H 0.10049 0.9628 0.61259 0.0
O338 O 0.98847 0.9183 0.64529 0.0
C339 C 0.06495 0.91714 0.64517 0.0
Co340 Co 0.81365 0.26805 0.3955 0.0
Co341 Co 0.78165 0.31126 0.38893 0.0
C342 C 0.78081 0.28392 0.43128 0.0
O343 O 0.79588 0.26939 0.42428 0.0
O344 O 0.77419 0.30088 0.41927 0.0
C345 C 0.8284 0.22023 0.40344 0.0
O346 O 0.81019 0.21844 0.4164 0.0
C347 C 0.74145 0.34279 0.38802 0.0
C348 C 0.75083 0.36561 0.35994 0.0
C349 C 0.73377 0.3614 0.37553 0.0
N350 N 0.76214 0.3361 0.38006 0.0
N351 N 0.76773 0.34993 0.3634 0.0
C352 C 0.72885 0.33088 0.40644 0.0
H353 H 0.73229 0.31194 0.40594 0.0
H354 H 0.70989 0.33407 0.40538 0.0
H355 H 0.73525 0.33778 0.42246 0.0
C356 C 0.79046 0.25468 0.35303 0.0
N357 N 0.79319 0.26882 0.37067 0.0
N358 N 0.7788 0.28644 0.36873 0.0
C359 C 0.76594 0.28366 0.35028 0.0
C360 C 0.77299 0.26357 0.33967 0.0
C361 C 0.80481 0.23354 0.34874 0.0
H362 H 0.80143 0.22055 0.36192 0.0
H363 H 0.80075 0.2257 0.3324 0.0
H364 H 0.82348 0.23818 0.34943 0.0
O365 O 0.83634 0.29414 0.39381 0.0
O366 O 0.81322 0.32422 0.38798 0.0
H367 H 0.73728 0.29322 0.32889 0.0
H368 H 0.73731 0.30667 0.35585 0.0
C369 C 0.74844 0.30077 0.34199 0.0
H370 H 0.75761 0.31596 0.3349 0.0
H371 H 0.78302 0.34847 0.35423 0.0
O372 O 0.83253 0.23937 0.39375 0.0
C373 C 0.83342 0.31574 0.39033 0.0
Co374 Co 0.48176 0.06481 0.14568 0.0
Co375 Co 0.43926 0.03193 0.14004 0.0
C376 C 0.46647 0.03175 0.18197 0.0
O377 O 0.4807 0.0469 0.17456 0.0
O378 O 0.44952 0.02472 0.17025 0.0
C379 C 0.53074 0.07566 0.14511 0.0
O380 O 0.53368 0.05304 0.14555 0.0
C381 C 0.40745 0.99195 0.1401 0.0
C382 C 0.38503 1.00048 0.11151 0.0
C383 C 0.38874 0.98406 0.12785 0.0
N384 N 0.41458 0.01216 0.13133 0.0
N385 N 0.40105 0.0172 0.11433 0.0
C386 C 0.41911 0.97997 0.15904 0.0
H387 H 0.43813 0.98276 0.15821 0.0
H388 H 0.41535 0.96107 0.15894 0.0
H389 H 0.41261 0.98747 0.17478 0.0
C390 C 0.49308 0.04347 0.10132 0.0
N391 N 0.48074 0.04481 0.12033 0.0
N392 N 0.46394 0.02939 0.11958 0.0
C393 C 0.46582 0.01689 0.10084 0.0
C394 C 0.48399 0.02567 0.0883 0.0
C395 C 0.51102 0.06082 0.09443 0.0
H396 H 0.5077 0.0778 0.10245 0.0
H397 H 0.5284 0.0545 0.0995 0.0
H398 H 0.51105 0.06315 0.07618 0.0
O399 O 0.45568 0.0872 0.14398 0.0
O400 O 0.42586 0.06351 0.13906 0.0
H401 H 0.43482 0.00224 0.08722 0.0
H402 H 0.46017 0.98431 0.08398 0.0
C403 C 0.45099 0.99631 0.09538 0.0
H404 H 0.44644 0.98677 0.11072 0.0
H405 H 0.40284 0.03206 0.10457 0.0
O406 O 0.51031 0.0839 0.14527 0.0
C407 C 0.43408 0.08391 0.1409 0.0
Co408 Co 0.68825 0.26945 0.62512 0.0
Co409 Co 0.71894 0.31397 0.62987 0.0
C410 C 0.72007 0.28554 0.58835 0.0
O411 O 0.70553 0.27082 0.596 0.0
O412 O 0.72653 0.30296 0.59982 0.0
C413 C 0.67647 0.22043 0.61967 0.0
O414 O 0.69568 0.21849 0.60811 0.0
C415 C 0.75704 0.34889 0.63112 0.0
C416 C 0.74567 0.36957 0.66001 0.0
C417 C 0.76329 0.36752 0.64454 0.0
N418 N 0.73696 0.34008 0.63878 0.0
N419 N 0.73019 0.3527 0.65587 0.0
C420 C 0.76895 0.34047 0.61063 0.0
H421 H 0.75607 0.33376 0.59871 0.0
H422 H 0.78098 0.32615 0.61503 0.0
H423 H 0.77882 0.35463 0.6025 0.0
C424 C 0.71141 0.25893 0.66827 0.0
N425 N 0.70877 0.27181 0.64975 0.0
N426 N 0.72271 0.28985 0.65082 0.0
C427 C 0.73532 0.28855 0.66955 0.0
C428 C 0.7283 0.26923 0.68151 0.0
C429 C 0.69624 0.23876 0.67413 0.0
H430 H 0.67793 0.24287 0.67007 0.0
H431 H 0.7015 0.2235 0.66411 0.0
H432 H 0.6975 0.23427 0.69195 0.0
O433 O 0.66451 0.29446 0.62691 0.0
O434 O 0.68676 0.32554 0.63055 0.0
H435 H 0.74652 0.32055 0.68396 0.0
H436 H 0.76665 0.29698 0.68743 0.0
C437 C 0.75421 0.30516 0.67576 0.0
H438 H 0.76375 0.31081 0.66077 0.0
H439 H 0.71508 0.34957 0.6649 0.0
O440 O 0.67074 0.24006 0.62753 0.0
C441 C 0.66679 0.3163 0.62932 0.0
Co442 Co 0.48216 0.93812 0.37477 0.0
Co443 Co 0.43825 0.96933 0.38085 0.0
C444 C 0.46622 0.97126 0.33908 0.0
O445 O 0.48072 0.95623 0.34619 0.0
O446 O 0.44903 0.9776 0.35087 0.0
C447 C 0.53152 0.92751 0.37308 0.0
O448 O 0.53452 0.94994 0.37037 0.0
C449 C 0.40631 0.00923 0.38162 0.0
C450 C 0.38254 0.99903 0.40869 0.0
C451 C 0.38715 0.01648 0.39359 0.0
N452 N 0.41288 0.98839 0.38939 0.0
N453 N 0.39849 0.98232 0.40543 0.0
C454 C 0.41893 0.02241 0.36401 0.0
H455 H 0.43785 0.01916 0.36528 0.0
H456 H 0.41548 0.04132 0.36533 0.0
H457 H 0.41291 0.01631 0.34757 0.0
C458 C 0.49401 0.96067 0.41833 0.0
N459 N 0.48069 0.95817 0.40004 0.0
N460 N 0.46254 0.97194 0.40184 0.0
C461 C 0.46405 0.98395 0.42094 0.0
C462 C 0.48387 0.97713 0.43203 0.0
C463 C 0.51462 0.94595 0.42375 0.0
H464 H 0.51177 0.92792 0.41793 0.0
H465 H 0.53009 0.95312 0.41525 0.0
H466 H 0.51808 0.94584 0.44183 0.0
O467 O 0.45649 0.91496 0.3764 0.0
O468 O 0.42575 0.93754 0.38086 0.0
H469 H 0.43134 0.99215 0.43557 0.0
H470 H 0.454 0.01248 0.44215 0.0
C471 C 0.44668 0.00138 0.42885 0.0
H472 H 0.44115 0.01259 0.41492 0.0
H473 H 0.39974 0.96684 0.41435 0.0
O474 O 0.5111 0.91948 0.37513 0.0
C475 C 0.43471 0.91748 0.37904 0.0
Co476 Co 0.81324 0.73155 0.12472 0.0
Co477 Co 0.77934 0.68967 0.12944 0.0
C478 C 0.77975 0.7184 0.08818 0.0
O479 O 0.79597 0.73131 0.09569 0.0
O480 O 0.77157 0.70166 0.09957 0.0
C481 C 0.82837 0.77907 0.11792 0.0
O482 O 0.80963 0.78124 0.1057 0.0
C483 C 0.73842 0.65915 0.1294 0.0
C484 C 0.74685 0.63573 0.15731 0.0
C485 C 0.73008 0.64062 0.14162 0.0
N486 N 0.75918 0.66517 0.13767 0.0
N487 N 0.76422 0.65097 0.15419 0.0
C488 C 0.72643 0.67176 0.11103 0.0
H489 H 0.72855 0.69076 0.1133 0.0
H490 H 0.7077 0.66736 0.11037 0.0
H491 H 0.73465 0.66692 0.09506 0.0
C492 C 0.79057 0.74419 0.16766 0.0
N493 N 0.79262 0.73074 0.14945 0.0
N494 N 0.77747 0.7137 0.15072 0.0
C495 C 0.76476 0.71626 0.16931 0.0
C496 C 0.77274 0.73551 0.18074 0.0
C497 C 0.80585 0.76449 0.1727 0.0
H498 H 0.8028 0.77826 0.16019 0.0
H499 H 0.80236 0.77164 0.18944 0.0
H500 H 0.8243 0.75915 0.17148 0.0
O501 O 0.83499 0.70495 0.126 0.0
O502 O 0.81064 0.67547 0.12971 0.0
H503 H 0.75478 0.68403 0.18392 0.0
H504 H 0.73525 0.70745 0.18991 0.0
C505 C 0.74639 0.6997 0.1769 0.0
H506 H 0.73536 0.69451 0.16271 0.0
H507 H 0.77943 0.6519 0.16353 0.0
O508 O 0.83279 0.75968 0.12698 0.0
C509 C 0.8312 0.68331 0.12824 0.0
Co510 Co 0.01944 0.0653 0.87519 0.0
Co511 Co 0.06136 0.03139 0.87882 0.0
C512 C 0.03191 0.03144 0.83848 0.0
O513 O 0.01931 0.04772 0.84631 0.0
O514 O 0.04889 0.02321 0.84943 0.0
C515 C 0.97072 0.07642 0.87665 0.0
O516 O 0.96772 0.05382 0.87588 0.0
C517 C 0.09278 0.99106 0.87789 0.0
C518 C 0.11631 0.9996 0.90565 0.0
C519 C 0.11185 0.98306 0.88959 0.0
N520 N 0.08621 0.01143 0.88672 0.0
N521 N 0.10042 0.01648 0.90321 0.0
C522 C 0.08011 0.97904 0.85957 0.0
H523 H 0.06113 0.98087 0.86207 0.0
H524 H 0.08468 0.96034 0.85878 0.0
H525 H 0.08466 0.9874 0.84359 0.0
C526 C 0.00926 0.04395 0.91964 0.0
N527 N 0.02114 0.04522 0.90037 0.0
N528 N 0.03785 0.02968 0.9007 0.0
C529 C 0.03638 0.01722 0.91953 0.0
C530 C 0.01852 0.02609 0.93243 0.0
C531 C 0.99153 0.06136 0.92686 0.0
H532 H 0.99489 0.0784 0.91895 0.0
H533 H 0.97404 0.05522 0.9219 0.0
H534 H 0.99172 0.06353 0.94512 0.0
O535 O 0.04569 0.08716 0.87613 0.0
O536 O 0.07544 0.06296 0.87845 0.0
H537 H 0.06765 0.00246 0.93239 0.0
H538 H 0.0423 0.98469 0.93639 0.0
C539 C 0.05121 0.99658 0.92469 0.0
H540 H 0.05527 0.98694 0.90929 0.0
H541 H 0.09913 0.03143 0.9129 0.0
O542 O 0.99115 0.08464 0.87644 0.0
C543 C 0.06739 0.08351 0.87757 0.0
Co544 Co 0.81452 0.76968 0.62359 0.0
Co545 Co 0.78006 0.81095 0.62951 0.0
C546 C 0.77982 0.78315 0.58794 0.0
O547 O 0.79633 0.77037 0.59506 0.0
O548 O 0.77162 0.79962 0.59965 0.0
C549 C 0.8266 0.72109 0.62229 0.0
O550 O 0.80415 0.71782 0.62017 0.0
C551 C 0.7392 0.84164 0.63085 0.0
C552 C 0.74799 0.8639 0.65951 0.0
C553 C 0.73106 0.85975 0.64377 0.0
N554 N 0.75999 0.83517 0.63876 0.0
N555 N 0.76522 0.84868 0.65574 0.0
C556 C 0.72699 0.82978 0.61215 0.0
H557 H 0.72893 0.8107 0.61382 0.0
H558 H 0.70829 0.83434 0.61174 0.0
H559 H 0.73516 0.83509 0.5963 0.0
C560 C 0.79357 0.75688 0.66769 0.0
N561 N 0.79475 0.76998 0.64913 0.0
N562 N 0.77895 0.78642 0.65039 0.0
C563 C 0.76647 0.78354 0.66908 0.0
C564 C 0.77542 0.76491 0.68072 0.0
C565 C 0.8102 0.7379 0.67348 0.0
H566 H 0.80424 0.72148 0.66576 0.0
H567 H 0.811 0.73519 0.69166 0.0
H568 H 0.82776 0.74207 0.66711 0.0
O569 O 0.83599 0.79641 0.62471 0.0
O570 O 0.81131 0.82547 0.62932 0.0
H571 H 0.75474 0.81483 0.68436 0.0
H572 H 0.73596 0.79046 0.68888 0.0
C573 C 0.74723 0.79915 0.67651 0.0
H574 H 0.7365 0.8044 0.66214 0.0
H575 H 0.78049 0.84729 0.66494 0.0
O576 O 0.83442 0.74164 0.62381 0.0
C577 C 0.83195 0.81795 0.62732 0.0
Co578 Co 0.48201 0.56511 0.87478 0.0
Co579 Co 0.43961 0.53188 0.87957 0.0
C580 C 0.46804 0.53123 0.83849 0.0
O581 O 0.48114 0.54735 0.84591 0.0
O582 O 0.45123 0.52337 0.84992 0.0
C583 C 0.53117 0.57541 0.87511 0.0
O584 O 0.53381 0.55278 0.87411 0.0
C585 C 0.40803 0.4917 0.88025 0.0
C586 C 0.38409 0.50195 0.90716 0.0
C587 C 0.3888 0.48444 0.89215 0.0
N588 N 0.41449 0.51257 0.88801 0.0
N589 N 0.40002 0.51866 0.90397 0.0
C590 C 0.42098 0.47857 0.86282 0.0
H591 H 0.43991 0.48133 0.86487 0.0
H592 H 0.41708 0.45972 0.86363 0.0
H593 H 0.41589 0.48525 0.84628 0.0
C594 C 0.49287 0.54346 0.9192 0.0
N595 N 0.48061 0.54495 0.90013 0.0
N596 N 0.46343 0.52992 0.90098 0.0
C597 C 0.46471 0.51787 0.92005 0.0
C598 C 0.48311 0.52623 0.93241 0.0
C599 C 0.51163 0.55998 0.92588 0.0
H600 H 0.50845 0.57734 0.91857 0.0
H601 H 0.52853 0.55336 0.91975 0.0
H602 H 0.51269 0.56152 0.94417 0.0
O603 O 0.45592 0.58764 0.87602 0.0
O604 O 0.42624 0.56351 0.8796 0.0
H605 H 0.43252 0.50613 0.93359 0.0
H606 H 0.45664 0.48722 0.93919 0.0
C607 C 0.44861 0.49864 0.92652 0.0
H608 H 0.44416 0.48803 0.91183 0.0
H609 H 0.40119 0.53417 0.91284 0.0
O610 O 0.51084 0.58392 0.87544 0.0
C611 C 0.43426 0.58403 0.87826 0.0
Co612 Co 0.68694 0.23221 0.12419 0.0
Co613 Co 0.71882 0.1889 0.13057 0.0
C614 C 0.72094 0.21665 0.08895 0.0
O615 O 0.70554 0.23083 0.09591 0.0
O616 O 0.72761 0.19964 0.10081 0.0
C617 C 0.67644 0.28155 0.12282 0.0
O618 O 0.69897 0.28446 0.12097 0.0
C619 C 0.75968 0.15835 0.13453 0.0
C620 C 0.74599 0.13178 0.15752 0.0
C621 C 0.76568 0.13828 0.14592 0.0
N622 N 0.73751 0.16347 0.13941 0.0
N623 N 0.7294 0.14743 0.153 0.0
C624 C 0.77499 0.17354 0.12074 0.0
H625 H 0.7689 0.19181 0.12145 0.0
H626 H 0.79326 0.17254 0.12649 0.0
H627 H 0.77418 0.16769 0.10325 0.0
C628 C 0.70777 0.24358 0.16868 0.0
N629 N 0.70642 0.23082 0.14992 0.0
N630 N 0.7206 0.21299 0.15172 0.0
C631 C 0.73172 0.21412 0.17129 0.0
C632 C 0.72387 0.23336 0.18275 0.0
C633 C 0.6921 0.26345 0.17419 0.0
H634 H 0.69908 0.2795 0.16654 0.0
H635 H 0.69103 0.26619 0.19236 0.0
H636 H 0.67448 0.26023 0.16748 0.0
O637 O 0.66394 0.20632 0.12513 0.0
O638 O 0.68722 0.1762 0.13013 0.0
H639 H 0.73986 0.18042 0.18389 0.0
H640 H 0.75857 0.20311 0.19408 0.0
C641 C 0.749 0.19668 0.17937 0.0
H642 H 0.76167 0.19288 0.16608 0.0
H643 H 0.71262 0.1474 0.15947 0.0
O644 O 0.66825 0.26112 0.12425 0.0
C645 C 0.66699 0.18463 0.12795 0.0
Co646 Co 0.01946 0.43547 0.37557 0.0
Co647 Co 0.06104 0.46989 0.37966 0.0
C648 C 0.03186 0.47003 0.33923 0.0
O649 O 0.01933 0.45359 0.34693 0.0
O650 O 0.04879 0.47826 0.35025 0.0
C651 C 0.97066 0.42424 0.37695 0.0
O652 O 0.96771 0.44685 0.37668 0.0
C653 C 0.09227 0.51046 0.38005 0.0
C654 C 0.11458 0.50183 0.40872 0.0
C655 C 0.11048 0.51862 0.39283 0.0
N656 N 0.08569 0.48979 0.38822 0.0
N657 N 0.09925 0.48463 0.40517 0.0
C658 C 0.08033 0.52261 0.36137 0.0
H659 H 0.06126 0.52122 0.36349 0.0
H660 H 0.08538 0.54118 0.36048 0.0
H661 H 0.08499 0.51394 0.34557 0.0
C662 C 0.00937 0.45621 0.42046 0.0
N663 N 0.02101 0.4553 0.40103 0.0
N664 N 0.03735 0.47124 0.40126 0.0
C665 C 0.03582 0.48359 0.42012 0.0
C666 C 0.01846 0.47418 0.43324 0.0
C667 C 0.99192 0.43854 0.42773 0.0
H668 H 0.99528 0.42165 0.41951 0.0
H669 H 0.97431 0.4446 0.42311 0.0
H670 H 0.99244 0.43615 0.44596 0.0
O671 O 0.04597 0.41374 0.37604 0.0
O672 O 0.07521 0.43846 0.3794 0.0
H673 H 0.06652 0.49957 0.43299 0.0
H674 H 0.04059 0.51649 0.43662 0.0
C675 C 0.04997 0.50477 0.42509 0.0
H676 H 0.05377 0.51437 0.4096 0.0
H677 H 0.09774 0.46951 0.41459 0.0
O678 O 0.9911 0.41602 0.37654 0.0
C679 C 0.06756 0.41779 0.37797 0.0
Co680 Co 0.8141 0.23249 0.89651 0.0
Co681 Co 0.78241 0.18901 0.88979 0.0
C682 C 0.77999 0.2166 0.93154 0.0
O683 O 0.79538 0.23086 0.92467 0.0
O684 O 0.7734 0.19959 0.91961 0.0
C685 C 0.82481 0.28185 0.89844 0.0
O686 O 0.80237 0.28492 0.90087 0.0
C687 C 0.74304 0.15625 0.88684 0.0
C688 C 0.75835 0.12962 0.86484 0.0
C689 C 0.73874 0.13492 0.87703 0.0
N690 N 0.76432 0.16323 0.88065 0.0
N691 N 0.77324 0.14735 0.86734 0.0
C692 C 0.72836 0.16872 0.90343 0.0
H693 H 0.73096 0.18774 0.90189 0.0
H694 H 0.70975 0.1644 0.90135 0.0
H695 H 0.73379 0.16339 0.92032 0.0
C696 C 0.79278 0.24429 0.85238 0.0
N697 N 0.79463 0.23109 0.8708 0.0
N698 N 0.78051 0.21321 0.86886 0.0
C699 C 0.76892 0.21477 0.84956 0.0
C700 C 0.77629 0.23444 0.83853 0.0
C701 C 0.80778 0.26477 0.8472 0.0
H702 H 0.82568 0.26172 0.85327 0.0
H703 H 0.80067 0.2803 0.85565 0.0
H704 H 0.80818 0.26828 0.82912 0.0
O705 O 0.83723 0.20681 0.89565 0.0
O706 O 0.81411 0.17664 0.89044 0.0
H707 H 0.76173 0.18107 0.83652 0.0
H708 H 0.74259 0.20343 0.82639 0.0
C709 C 0.75214 0.19703 0.84115 0.0
H710 H 0.73953 0.19261 0.85436 0.0
H711 H 0.7898 0.14836 0.86042 0.0
O712 O 0.83279 0.2614 0.89649 0.0
C713 C 0.83428 0.18512 0.89279 0.0
Co714 Co 0.01723 0.56504 0.14692 0.0
Co715 Co 0.06041 0.53269 0.14365 0.0
C716 C 0.03059 0.53075 0.18337 0.0
O717 O 0.01778 0.54697 0.17568 0.0
O718 O 0.04783 0.523 0.17245 0.0
C719 C 0.96772 0.5745 0.14506 0.0
O720 O 0.96516 0.55183 0.14534 0.0
C721 C 0.09417 0.49401 0.14238 0.0
C722 C 0.11992 0.50879 0.11912 0.0
C723 C 0.11524 0.48957 0.13211 0.0
N724 N 0.08673 0.51495 0.13557 0.0
N725 N 0.10215 0.5236 0.12164 0.0
C726 C 0.08212 0.47978 0.15963 0.0
H727 H 0.08243 0.48934 0.17558 0.0
H728 H 0.06366 0.47743 0.1549 0.0
H729 H 0.09049 0.46264 0.162 0.0
C730 C 0.00873 0.54358 0.10203 0.0
N731 N 0.02015 0.54523 0.12154 0.0
N732 N 0.03763 0.53055 0.1213 0.0
C733 C 0.03735 0.51847 0.10224 0.0
C734 C 0.0193 0.52653 0.08915 0.0
C735 C 0.99 0.55988 0.09478 0.0
H736 H 0.99226 0.57706 0.10276 0.0
H737 H 0.97291 0.55265 0.09968 0.0
H738 H 0.99011 0.56207 0.07651 0.0
O739 O 0.04257 0.58831 0.14638 0.0
O740 O 0.0728 0.56471 0.14502 0.0
H741 H 0.07039 0.50654 0.09084 0.0
H742 H 0.04659 0.48754 0.08392 0.0
C743 C 0.05379 0.49914 0.09688 0.0
H744 H 0.05726 0.48873 0.11194 0.0
H745 H 0.10065 0.53981 0.11407 0.0
O746 O 0.98799 0.58313 0.14565 0.0
C747 C 0.06438 0.5851 0.14561 0.0
Co748 Co 0.68549 0.7696 0.39513 0.0
Co749 Co 0.71906 0.81197 0.39025 0.0
C750 C 0.71893 0.78323 0.43157 0.0
O751 O 0.70275 0.77018 0.42417 0.0
O752 O 0.72698 0.79994 0.42006 0.0
C753 C 0.66986 0.7223 0.40315 0.0
O754 O 0.68783 0.72077 0.41645 0.0
C755 C 0.75979 0.84294 0.39015 0.0
C756 C 0.7502 0.86725 0.3633 0.0
C757 C 0.76746 0.8622 0.37848 0.0
N758 N 0.73894 0.83681 0.38211 0.0
N759 N 0.73326 0.85149 0.36619 0.0
C760 C 0.77246 0.82978 0.40774 0.0
H761 H 0.76946 0.81088 0.40562 0.0
H762 H 0.79136 0.83344 0.4072 0.0
H763 H 0.76559 0.83495 0.42418 0.0
C764 C 0.70801 0.75741 0.35196 0.0
N765 N 0.70618 0.77061 0.37038 0.0
N766 N 0.72074 0.78813 0.36882 0.0
C767 C 0.73253 0.78642 0.34962 0.0
C768 C 0.72471 0.76714 0.33816 0.0
C769 C 0.69247 0.73733 0.34682 0.0
H770 H 0.69565 0.72328 0.35901 0.0
H771 H 0.69547 0.73055 0.32986 0.0
H772 H 0.67409 0.7428 0.34852 0.0
O773 O 0.66349 0.79616 0.39369 0.0
O774 O 0.6877 0.82579 0.39006 0.0
H775 H 0.74213 0.8189 0.33521 0.0
H776 H 0.76163 0.79547 0.32876 0.0
C777 C 0.75068 0.80319 0.34196 0.0
H778 H 0.76193 0.80825 0.35603 0.0
H779 H 0.71784 0.85064 0.35717 0.0
O780 O 0.66608 0.74121 0.39294 0.0
C781 C 0.66718 0.81782 0.39142 0.0
Co782 Co 0.4804 0.43523 0.64647 0.0
Co783 Co 0.4389 0.46971 0.64087 0.0
C784 C 0.46706 0.46961 0.68239 0.0
O785 O 0.47973 0.453 0.67526 0.0
O786 O 0.45065 0.47796 0.67068 0.0
C787 C 0.52773 0.41993 0.65427 0.0
O788 O 0.52962 0.43859 0.66665 0.0
C789 C 0.40488 0.50856 0.64005 0.0
C790 C 0.38675 0.50032 0.60874 0.0
C791 C 0.38749 0.51632 0.62583 0.0
N792 N 0.41426 0.48925 0.63129 0.0
N793 N 0.40312 0.4843 0.61277 0.0
C794 C 0.41106 0.51781 0.66246 0.0
H795 H 0.41575 0.50336 0.67369 0.0
H796 H 0.42625 0.52954 0.66093 0.0
H797 H 0.39637 0.52746 0.66994 0.0
C798 C 0.49377 0.45727 0.60347 0.0
N799 N 0.48003 0.45557 0.62151 0.0
N800 N 0.46345 0.47119 0.62006 0.0
C801 C 0.46679 0.48404 0.60165 0.0
C802 C 0.48587 0.47545 0.59038 0.0
C803 C 0.51368 0.44141 0.59865 0.0
H804 H 0.52751 0.44435 0.61111 0.0
H805 H 0.52092 0.44449 0.58187 0.0
H806 H 0.50791 0.4231 0.60013 0.0
O807 O 0.45379 0.41354 0.64502 0.0
O808 O 0.42476 0.43831 0.64082 0.0
H809 H 0.43689 0.49628 0.58434 0.0
H810 H 0.46096 0.5159 0.58358 0.0
C811 C 0.45141 0.50348 0.59423 0.0
H812 H 0.44441 0.51296 0.60873 0.0
H813 H 0.40681 0.46997 0.6028 0.0
O814 O 0.50856 0.41559 0.64477 0.0
C815 C 0.43227 0.41763 0.64248 0.0
Co816 Co 0.18641 0.23254 0.39612 0.0
Co817 Co 0.21979 0.19058 0.38858 0.0
C818 C 0.21975 0.21633 0.43155 0.0
O819 O 0.20447 0.23065 0.42461 0.0
O820 O 0.22694 0.19982 0.41932 0.0
C821 C 0.17579 0.28143 0.39828 0.0
O822 O 0.19837 0.28402 0.39996 0.0
C823 C 0.25998 0.15895 0.38773 0.0
C824 C 0.25213 0.13802 0.35795 0.0
C825 C 0.26824 0.141 0.37468 0.0
N826 N 0.23987 0.16641 0.37901 0.0
N827 N 0.23522 0.15371 0.36132 0.0
C828 C 0.27138 0.16944 0.40758 0.0
H829 H 0.26929 0.18859 0.40728 0.0
H830 H 0.29011 0.16501 0.40822 0.0
H831 H 0.26283 0.1627 0.42273 0.0
C832 C 0.20758 0.2464 0.35256 0.0
N833 N 0.20637 0.23283 0.37078 0.0
N834 N 0.22194 0.2162 0.36901 0.0
C835 C 0.23431 0.21945 0.35032 0.0
C836 C 0.22555 0.23853 0.33924 0.0
C837 C 0.19064 0.26517 0.34691 0.0
H838 H 0.1966 0.28172 0.35437 0.0
H839 H 0.18948 0.26771 0.32873 0.0
H840 H 0.17324 0.26088 0.35359 0.0
O841 O 0.16435 0.20613 0.3939 0.0
O842 O 0.18836 0.17692 0.38716 0.0
H843 H 0.24497 0.18873 0.33337 0.0
H844 H 0.26455 0.21272 0.33022 0.0
C845 C 0.25301 0.20363 0.3421 0.0
H846 H 0.26352 0.19715 0.35616 0.0
H847 H 0.22048 0.15585 0.35147 0.0
O848 O 0.16732 0.26113 0.39673 0.0
C849 C 0.16791 0.18475 0.38977 0.0
Co850 Co 0.51914 0.43598 0.14613 0.0
Co851 Co 0.56096 0.46945 0.13904 0.0
C852 C 0.5346 0.46966 0.18172 0.0
O853 O 0.52043 0.45423 0.17475 0.0
O854 O 0.55123 0.47677 0.16959 0.0
C855 C 0.47048 0.42425 0.14756 0.0
O856 O 0.46735 0.44677 0.14929 0.0
C857 C 0.59131 0.51048 0.13765 0.0
C858 C 0.61354 0.50204 0.10888 0.0
C859 C 0.60931 0.51883 0.12475 0.0
N860 N 0.58499 0.48966 0.12966 0.0
N861 N 0.59846 0.48465 0.11259 0.0
C862 C 0.57948 0.52255 0.15644 0.0
H863 H 0.56056 0.51908 0.1559 0.0
H864 H 0.58259 0.54156 0.15586 0.0
H865 H 0.5864 0.51567 0.17227 0.0
C866 C 0.50552 0.45751 0.1024 0.0
N867 N 0.51901 0.45596 0.12067 0.0
N868 N 0.53567 0.47151 0.11915 0.0
C869 C 0.53258 0.48418 0.10061 0.0
C870 C 0.51354 0.47567 0.08934 0.0
C871 C 0.48648 0.44095 0.09659 0.0
H872 H 0.49047 0.42339 0.10307 0.0
H873 H 0.47004 0.44711 0.1041 0.0
H874 H 0.48395 0.44006 0.07838 0.0
O875 O 0.54573 0.41407 0.14426 0.0
O876 O 0.57491 0.43816 0.1378 0.0
H877 H 0.56385 0.49527 0.0849 0.0
H878 H 0.53972 0.5144 0.08048 0.0
C879 C 0.5484 0.50311 0.09285 0.0
H880 H 0.55398 0.51389 0.10707 0.0
H881 H 0.59716 0.46941 0.1033 0.0
O882 O 0.49097 0.41627 0.1463 0.0
C883 C 0.56713 0.41768 0.14035 0.0
Co884 Co 0.31384 0.76893 0.89689 0.0
Co885 Co 0.28068 0.81131 0.88952 0.0
C886 C 0.27963 0.78477 0.93206 0.0
O887 O 0.2952 0.77066 0.92525 0.0
O888 O 0.27256 0.8014 0.91988 0.0
C889 C 0.32493 0.71982 0.89846 0.0
O890 O 0.3024 0.7168 0.90002 0.0
C891 C 0.24199 0.84544 0.88668 0.0
C892 C 0.25185 0.86362 0.85582 0.0
C893 C 0.23498 0.86284 0.87213 0.0
N894 N 0.26175 0.83608 0.87889 0.0
N895 N 0.26763 0.84722 0.8606 0.0
C896 C 0.2315 0.83916 0.90853 0.0
H897 H 0.24539 0.83508 0.92052 0.0
H898 H 0.22043 0.82354 0.90649 0.0
H899 H 0.22098 0.85359 0.91537 0.0
C900 C 0.29257 0.75564 0.85305 0.0
N901 N 0.29416 0.76919 0.87128 0.0
N902 N 0.27866 0.78591 0.86971 0.0
C903 C 0.26592 0.78269 0.85125 0.0
C904 C 0.27442 0.76362 0.84001 0.0
C905 C 0.30904 0.73649 0.84732 0.0
H906 H 0.32655 0.74032 0.85398 0.0
H907 H 0.30267 0.72005 0.8547 0.0
H908 H 0.31008 0.73404 0.82911 0.0
O909 O 0.33621 0.79518 0.89532 0.0
O910 O 0.3123 0.82453 0.88906 0.0
H911 H 0.25393 0.81274 0.83399 0.0
H912 H 0.2344 0.78857 0.8328 0.0
C913 C 0.24661 0.79814 0.84369 0.0
H914 H 0.23693 0.80502 0.85812 0.0
H915 H 0.28241 0.84349 0.85129 0.0
O916 O 0.33303 0.7403 0.89726 0.0
C917 C 0.33271 0.81665 0.89164 0.0
Co918 Co 0.9828 0.56475 0.64702 0.0
Co919 Co 0.93945 0.53301 0.64056 0.0
C920 C 0.96622 0.53226 0.68302 0.0
O921 O 0.98094 0.54707 0.67587 0.0
O922 O 0.94931 0.52565 0.67101 0.0
C923 C 0.03209 0.57531 0.6485 0.0
O924 O 0.03501 0.55283 0.65091 0.0
C925 C 0.90747 0.49325 0.64013 0.0
C926 C 0.88396 0.50314 0.61276 0.0
C927 C 0.88823 0.48599 0.62827 0.0
N928 N 0.91435 0.5138 0.63192 0.0
N929 N 0.90016 0.51966 0.61565 0.0
C930 C 0.91984 0.48043 0.65813 0.0
H931 H 0.93879 0.48358 0.65697 0.0
H932 H 0.91634 0.46151 0.65714 0.0
H933 H 0.91369 0.48692 0.6744 0.0
C934 C 0.99537 0.54182 0.60366 0.0
N935 N 0.98197 0.54426 0.62192 0.0
N936 N 0.96419 0.52999 0.62026 0.0
C937 C 0.96607 0.51768 0.60139 0.0
C938 C 0.98571 0.52482 0.59022 0.0
C939 C 0.01544 0.55713 0.59789 0.0
H940 H 0.01227 0.57505 0.60387 0.0
H941 H 0.0313 0.55031 0.60597 0.0
H942 H 0.01846 0.55742 0.57973 0.0
O943 O 0.95696 0.58778 0.64488 0.0
O944 O 0.92687 0.56464 0.6392 0.0
H945 H 0.93367 0.50895 0.5864 0.0
H946 H 0.95658 0.48868 0.58055 0.0
C947 C 0.94894 0.49997 0.59354 0.0
H948 H 0.94324 0.48899 0.60759 0.0
H949 H 0.90162 0.53494 0.60646 0.0
O950 O 0.01169 0.58346 0.64679 0.0
C951 C 0.93539 0.58485 0.64125 0.0
Co952 Co 0.18719 0.76866 0.12591 0.0
Co953 Co 0.21809 0.8131 0.13119 0.0
C954 C 0.21891 0.7846 0.08932 0.0
O955 O 0.20429 0.76982 0.09672 0.0
O956 O 0.2253 0.80186 0.10103 0.0
C957 C 0.17258 0.72039 0.11932 0.0
O958 O 0.19053 0.71817 0.10608 0.0
C959 C 0.2578 0.8463 0.13333 0.0
C960 C 0.24402 0.87063 0.15841 0.0
C961 C 0.26319 0.86635 0.1452 0.0
N962 N 0.23658 0.83907 0.13963 0.0
N963 N 0.22848 0.85377 0.15453 0.0
C964 C 0.27197 0.8347 0.11577 0.0
H965 H 0.26102 0.82381 0.10499 0.0
H966 H 0.28506 0.82332 0.12374 0.0
H967 H 0.28105 0.84779 0.10543 0.0
C968 C 0.21131 0.75691 0.16831 0.0
N969 N 0.20811 0.77054 0.15037 0.0
N970 N 0.22128 0.78911 0.1523 0.0
C971 C 0.23333 0.78779 0.17138 0.0
C972 C 0.22736 0.76747 0.18217 0.0
C973 C 0.19782 0.73527 0.17292 0.0
H974 H 0.17899 0.73921 0.17241 0.0
H975 H 0.20151 0.72231 0.15979 0.0
H976 H 0.20233 0.72776 0.1893 0.0
O977 O 0.16383 0.79424 0.12777 0.0
O978 O 0.18628 0.82511 0.13177 0.0
H979 H 0.23963 0.82133 0.1852 0.0
H980 H 0.26016 0.79954 0.19381 0.0
C981 C 0.24969 0.80599 0.17966 0.0
H982 H 0.26156 0.81134 0.16616 0.0
H983 H 0.21231 0.85221 0.16214 0.0
O984 O 0.16872 0.73978 0.12862 0.0
C985 C 0.16627 0.81605 0.13032 0.0
Co986 Co 0.98211 0.43695 0.87514 0.0
Co987 Co 0.93973 0.46971 0.88272 0.0
C988 C 0.96595 0.47061 0.83995 0.0
O989 O 0.98032 0.45529 0.84671 0.0
O990 O 0.94932 0.47744 0.85221 0.0
C991 C 0.03104 0.42605 0.87282 0.0
O992 O 0.03384 0.44859 0.87077 0.0
C993 C 0.90895 0.5104 0.88444 0.0
C994 C 0.88639 0.50124 0.91276 0.0
C995 C 0.89065 0.51832 0.89719 0.0
N996 N 0.9154 0.48954 0.89222 0.0
N997 N 0.90174 0.48409 0.90903 0.0
C998 C 0.9209 0.52289 0.86596 0.0
H999 H 0.93984 0.51952 0.86661 0.0
H1000 H 0.91766 0.54186 0.86683 0.0
H1001 H 0.91418 0.51626 0.84995 0.0
C1002 C 0.99592 0.4586 0.91867 0.0
N1003 N 0.98216 0.45687 0.90059 0.0
N1004 N 0.96497 0.47179 0.90263 0.0
C1005 C 0.96776 0.48398 0.92148 0.0
C1006 C 0.98731 0.476 0.93226 0.0
C1007 C 0.01549 0.4425 0.92402 0.0
H1008 H 0.01171 0.42483 0.91769 0.0
H1009 H 0.03155 0.44899 0.91605 0.0
H1010 H 0.01855 0.44172 0.94216 0.0
O1011 O 0.95576 0.41457 0.87714 0.0
O1012 O 0.92629 0.43828 0.8837 0.0
H1013 H 0.93614 0.49363 0.93742 0.0
H1014 H 0.95983 0.51315 0.94267 0.0
C1015 C 0.95144 0.50217 0.92985 0.0
H1016 H 0.94566 0.51338 0.91601 0.0
H1017 H 0.90306 0.46871 0.9181 0.0
O1018 O 0.01068 0.41781 0.87462 0.0
C1019 C 0.93431 0.41791 0.8811 0.0
Co1020 Co 0.31298 0.23236 0.62414 0.0
Co1021 Co 0.28263 0.18793 0.63045 0.0
C1022 C 0.27935 0.21597 0.58896 0.0
O1023 O 0.29439 0.23056 0.59588 0.0
O1024 O 0.27326 0.19871 0.60081 0.0
C1025 C 0.3226 0.28213 0.62279 0.0
O1026 O 0.3001 0.28491 0.62051 0.0
C1027 C 0.24349 0.15508 0.63349 0.0
C1028 C 0.25962 0.12724 0.6535 0.0
C1029 C 0.2395 0.13331 0.64247 0.0
N1030 N 0.2651 0.16161 0.63906 0.0
N1031 N 0.27453 0.145 0.65118 0.0
C1032 C 0.22803 0.16856 0.61832 0.0
H1033 H 0.2317 0.18741 0.61983 0.0
H1034 H 0.2095 0.16512 0.62197 0.0
H1035 H 0.23154 0.16318 0.601 0.0
C1036 C 0.29109 0.24318 0.66837 0.0
N1037 N 0.29346 0.23018 0.64985 0.0
N1038 N 0.2802 0.21166 0.65178 0.0
C1039 C 0.26886 0.21241 0.67125 0.0
C1040 C 0.27538 0.23232 0.68239 0.0
C1041 C 0.30522 0.26425 0.67361 0.0
H1042 H 0.32321 0.262 0.66747 0.0
H1043 H 0.29742 0.27952 0.66528 0.0
H1044 H 0.30556 0.26766 0.69171 0.0
O1045 O 0.33692 0.20723 0.62488 0.0
O1046 O 0.31457 0.1764 0.62964 0.0
H1047 H 0.26269 0.17805 0.68322 0.0
H1048 H 0.24331 0.19959 0.69458 0.0
C1049 C 0.25267 0.194 0.67943 0.0
H1050 H 0.23981 0.18987 0.66637 0.0
H1051 H 0.29139 0.14556 0.65745 0.0
O1052 O 0.33091 0.26177 0.62443 0.0
C1053 C 0.33453 0.18542 0.62749 0.0
Co1054 Co 0.51816 0.56196 0.3758 0.0
Co1055 Co 0.56251 0.53138 0.38098 0.0
C1056 C 0.53438 0.53023 0.33912 0.0
O1057 O 0.51953 0.54474 0.3466 0.0
O1058 O 0.55167 0.52392 0.3508 0.0
C1059 C 0.46963 0.57528 0.36924 0.0
O1060 O 0.46778 0.55686 0.35653 0.0
C1061 C 0.59455 0.49169 0.3809 0.0
C1062 C 0.6184 0.50148 0.40804 0.0
C1063 C 0.61364 0.48423 0.39278 0.0
N1064 N 0.58809 0.51245 0.3889 0.0
N1065 N 0.60254 0.51831 0.40496 0.0
C1066 C 0.58182 0.47876 0.3632 0.0
H1067 H 0.56289 0.48183 0.36475 0.0
H1068 H 0.58545 0.45985 0.36412 0.0
H1069 H 0.58755 0.48527 0.3468 0.0
C1070 C 0.50698 0.53862 0.41881 0.0
N1071 N 0.52013 0.54127 0.40045 0.0
N1072 N 0.53849 0.52782 0.40207 0.0
C1073 C 0.53738 0.51587 0.42122 0.0
C1074 C 0.51762 0.5225 0.43263 0.0
C1075 C 0.48612 0.55308 0.42397 0.0
H1076 H 0.49049 0.57172 0.42198 0.0
H1077 H 0.47214 0.54889 0.41199 0.0
H1078 H 0.47971 0.54997 0.44104 0.0
O1079 O 0.54354 0.58554 0.37773 0.0
O1080 O 0.57458 0.56331 0.38181 0.0
H1081 H 0.57031 0.50807 0.43565 0.0
H1082 H 0.548 0.48727 0.44208 0.0
C1083 C 0.5551 0.49867 0.42889 0.0
H1084 H 0.56076 0.48769 0.41483 0.0
H1085 H 0.60133 0.53367 0.41407 0.0
O1086 O 0.48899 0.57997 0.37823 0.0
C1087 C 0.56535 0.58328 0.38037 0.0
H1088 H 0.30008 0.25876 0.21651 0.0
H1089 H 0.22849 0.26607 0.19704 0.0
H1090 H 0.28803 0.25133 0.25465 0.0
H1091 H 0.2163 0.25985 0.23532 0.0
H1092 H 0.20191 0.22565 0.30257 0.0
H1093 H 0.21316 0.23176 0.26395 0.0
H1094 H 0.27255 0.27158 0.28574 0.0
H1095 H 0.26151 0.26456 0.32432 0.0
C1096 C 0.28174 0.25857 0.22042 0.0
C1097 C 0.26518 0.26295 0.20393 0.0
C1098 C 0.27482 0.25469 0.24231 0.0
C1099 C 0.25117 0.25526 0.24818 0.0
C1100 C 0.23462 0.25909 0.23144 0.0
C1101 C 0.24157 0.26279 0.20954 0.0
C1102 C 0.21716 0.23597 0.29893 0.0
C1103 C 0.23076 0.24491 0.31616 0.0
C1104 C 0.22363 0.2395 0.27687 0.0
C1105 C 0.24385 0.25209 0.27166 0.0
C1106 C 0.25713 0.26145 0.2891 0.0
C1107 C 0.2507 0.25776 0.31116 0.0
H1108 H 0.05021 0.9797 0.55457 0.0
H1109 H 0.97688 0.98212 0.56863 0.0
H1110 H 0.04297 0.99272 0.51693 0.0
H1111 H 0.96926 0.99356 0.53033 0.0
H1112 H 0.96476 0.03812 0.46842 0.0
H1113 H 0.97269 0.02557 0.50632 0.0
H1114 H 0.0285 0.98214 0.48219 0.0
H1115 H 0.021 0.9958 0.44448 0.0
C1116 C 0.03248 0.98299 0.54954 0.0
C1117 C 0.01414 0.98034 0.56464 0.0
C1118 C 0.02828 0.99011 0.52781 0.0
C1119 C 0.00552 0.99438 0.52048 0.0
C1120 C 0.98707 0.99095 0.53546 0.0
C1121 C 0.99135 0.98408 0.55733 0.0
C1122 C 0.97892 0.02617 0.47145 0.0
C1123 C 0.99251 0.01808 0.45383 0.0
C1124 C 0.9833 0.0187 0.49306 0.0
C1125 C 0.00115 0.00266 0.49743 0.0
C1126 C 0.01484 0.99475 0.4796 0.0
C1127 C 0.0106 0.00248 0.458 0.0
H1128 H 0.29648 0.77566 0.80215 0.0
H1129 H 0.23755 0.73776 0.82705 0.0
H1130 H 0.28335 0.76887 0.76405 0.0
H1131 H 0.2242 0.73091 0.78904 0.0
H1132 H 0.22362 0.703 0.71714 0.0
H1133 H 0.23608 0.70948 0.75528 0.0
H1134 H 0.25026 0.78134 0.73983 0.0
H1135 H 0.23794 0.77461 0.70141 0.0
C1136 C 0.28092 0.76554 0.79933 0.0
C1137 C 0.26816 0.75685 0.81727 0.0
C1138 C 0.27323 0.76191 0.77763 0.0
C1139 C 0.25267 0.74947 0.77355 0.0
C1140 C 0.2402 0.7404 0.79164 0.0
C1141 C 0.24782 0.74419 0.81333 0.0
C1142 C 0.22934 0.72019 0.72196 0.0
C1143 C 0.23005 0.73829 0.70641 0.0
C1144 C 0.23634 0.72393 0.7438 0.0
C1145 C 0.24431 0.74587 0.75053 0.0
C1146 C 0.2445 0.76416 0.73504 0.0
C1147 C 0.23728 0.76042 0.71317 0.0
H1148 H 0.5269 0.01988 0.06951 0.0
H1149 H 0.45378 0.01837 0.05437 0.0
H1150 H 0.53571 0.00892 0.03133 0.0
H1151 H 0.46222 0.0054 0.0171 0.0
H1152 H 0.48352 0.00186 0.94522 0.0
H1153 H 0.4756 0.01582 0.98265 0.0
H1154 H 0.53529 0.97784 1.00676 0.0
H1155 H 0.54375 0.96531 0.96898 0.0
C1156 C 0.51273 0.01709 0.05804 0.0
C1157 C 0.48966 0.01962 0.06503 0.0
C1158 C 0.51771 0.01047 0.03622 0.0
C1159 C 0.4997 0.00598 0.02099 0.0
C1160 C 0.47664 0.0089 0.02808 0.0
C1161 C 0.47174 0.01592 0.04969 0.0
C1162 C 0.49479 0.99654 0.95865 0.0
C1163 C 0.51413 0.98255 0.95446 0.0
C1164 C 0.49027 0.0044 0.98014 0.0
C1165 C 0.50478 0.998 0.99795 0.0
C1166 C 0.52398 0.98359 0.99355 0.0
C1167 C 0.52871 0.97615 0.97199 0.0
H1168 H 0.2135 0.78882 0.21976 0.0
H1169 H 0.25586 0.73266 0.19565 0.0
H1170 H 0.22568 0.78049 0.25767 0.0
H1171 H 0.26924 0.72484 0.23336 0.0
H1172 H 0.27128 0.70206 0.30522 0.0
H1173 H 0.25854 0.70993 0.26766 0.0
H1174 H 0.25693 0.78342 0.28235 0.0
H1175 H 0.26802 0.77511 0.32064 0.0
C1176 C 0.22543 0.77463 0.22274 0.0
C1177 C 0.23363 0.76118 0.20505 0.0
C1178 C 0.23269 0.77002 0.24437 0.0
C1179 C 0.24862 0.75206 0.24872 0.0
C1180 C 0.25669 0.73855 0.23081 0.0
C1181 C 0.24912 0.74299 0.2092 0.0
C1182 C 0.26789 0.71988 0.3005 0.0
C1183 C 0.27028 0.73795 0.31594 0.0
C1184 C 0.26092 0.72446 0.2788 0.0
C1185 C 0.25658 0.74733 0.27181 0.0
C1186 C 0.25965 0.76553 0.28718 0.0
C1187 C 0.26632 0.76086 0.30904 0.0
H1188 H 0.46002 0.96716 0.46939 0.0
H1189 H 0.5215 0.00167 0.4457 0.0
H1190 H 0.46872 0.97952 0.50714 0.0
H1191 H 0.52977 0.01541 0.48319 0.0
H1192 H 0.55037 0.01837 0.55544 0.0
H1193 H 0.54228 0.00502 0.51817 0.0
H1194 H 0.46868 0.01137 0.53087 0.0
H1195 H 0.47702 0.02278 0.569 0.0
C1196 C 0.47543 0.97745 0.47242 0.0
C1197 C 0.49023 0.9834 0.4549 0.0
C1198 C 0.4803 0.98482 0.49396 0.0
C1199 C 0.49987 0.9987 0.49836 0.0
C1200 C 0.51475 0.00446 0.48063 0.0
C1201 C 0.51006 0.9967 0.45913 0.0
C1202 C 0.53245 0.01648 0.55041 0.0
C1203 C 0.51431 0.02114 0.5653 0.0
C1204 C 0.52778 0.00922 0.52882 0.0
C1205 C 0.50479 0.00694 0.52134 0.0
C1206 C 0.48661 0.01238 0.5361 0.0
C1207 C 0.49134 0.01927 0.55788 0.0
H1208 H 0.28755 0.20959 0.71986 0.0
H1209 H 0.24883 0.26846 0.69605 0.0
H1210 H 0.27547 0.21816 0.75776 0.0
H1211 H 0.23541 0.27649 0.73366 0.0
H1212 H 0.23272 0.29852 0.8053 0.0
H1213 H 0.24606 0.29037 0.76806 0.0
H1214 H 0.24421 0.21677 0.78232 0.0
H1215 H 0.23276 0.22533 0.82044 0.0
C1216 C 0.27641 0.2244 0.7229 0.0
C1217 C 0.26919 0.23854 0.70531 0.0
C1218 C 0.26921 0.22917 0.74452 0.0
C1219 C 0.25429 0.24796 0.74893 0.0
C1220 C 0.24721 0.26213 0.7311 0.0
C1221 C 0.25478 0.25756 0.70953 0.0
C1222 C 0.23559 0.28061 0.80061 0.0
C1223 C 0.2321 0.26258 0.8159 0.0
C1224 C 0.24284 0.27587 0.77905 0.0
C1225 C 0.2463 0.25287 0.77199 0.0
C1226 C 0.2422 0.23474 0.7872 0.0
C1227 C 0.2353 0.23956 0.80897 0.0
H1228 H 0.9756 0.02032 0.95104 0.0
H1229 H 0.04867 0.01797 0.96633 0.0
H1230 H 0.96654 0.00944 0.98916 0.0
H1231 H 0.0399 0.00529 1.00373 0.0
H1232 H 0.01725 0.0037 0.07573 0.0
H1233 H 0.02593 0.01683 0.03812 0.0
H1234 H 0.96695 0.978 0.01369 0.0
H1235 H 0.95784 0.9661 0.05152 0.0
C1236 C 0.98971 0.01737 0.96254 0.0
C1237 C 0.01282 0.01973 0.95563 0.0
C1238 C 0.98457 0.01082 0.98433 0.0
C1239 C 0.00247 0.00624 0.99964 0.0
C1240 C 0.0256 0.00888 0.99263 0.0
C1241 C 0.03067 0.01576 0.971 0.0
C1242 C 0.0063 0.99802 0.06219 0.0
C1243 C 0.98696 0.98396 0.0663 0.0
C1244 C 0.01125 0.0054 0.04063 0.0
C1245 C 0.99713 0.99854 0.0227 0.0
C1246 C 0.97795 0.98408 0.02701 0.0
C1247 C 0.97284 0.97702 0.04861 0.0
H1248 H 0.74333 0.77367 0.82077 0.0
H1249 H 0.72258 0.70426 0.80282 0.0
H1250 H 0.75555 0.78086 0.78237 0.0
H1251 H 0.73487 0.71119 0.76468 0.0
H1252 H 0.73674 0.74207 0.69403 0.0
H1253 H 0.72391 0.73497 0.73213 0.0
H1254 H 0.78678 0.76671 0.75666 0.0
H1255 H 0.79942 0.7738 0.71844 0.0
C1256 C 0.74123 0.76008 0.80853 0.0
C1257 C 0.73211 0.73844 0.81462 0.0
C1258 C 0.74839 0.76406 0.78666 0.0
C1259 C 0.74629 0.74652 0.77053 0.0
C1260 C 0.73659 0.72508 0.77665 0.0
C1261 C 0.72966 0.72108 0.79847 0.0
C1262 C 0.74789 0.74713 0.70764 0.0
C1263 C 0.76913 0.75815 0.70351 0.0
C1264 C 0.74058 0.74316 0.7294 0.0
C1265 C 0.75429 0.75038 0.74741 0.0
C1266 C 0.77572 0.76119 0.74315 0.0
C1267 C 0.78309 0.76499 0.72136 0.0
H1268 H 0.73174 0.24545 0.32677 0.0
H1269 H 0.79861 0.26681 0.30219 0.0
H1270 H 0.71844 0.23871 0.28872 0.0
H1271 H 0.78546 0.26017 0.26407 0.0
H1272 H 0.74392 0.27231 0.19974 0.0
H1273 H 0.75599 0.27877 0.2383 0.0
H1274 H 0.72696 0.21233 0.25658 0.0
H1275 H 0.71504 0.20602 0.21817 0.0
C1276 C 0.74366 0.24826 0.31315 0.0
C1277 C 0.76619 0.25636 0.31719 0.0
C1278 C 0.73608 0.24452 0.29145 0.0
C1279 C 0.75086 0.24913 0.27344 0.0
C1280 C 0.77361 0.25679 0.27761 0.0
C1281 C 0.78124 0.26029 0.29934 0.0
C1282 C 0.73992 0.25934 0.21216 0.0
C1283 C 0.72866 0.23871 0.2062 0.0
C1284 C 0.74698 0.26287 0.23409 0.0
C1285 C 0.74258 0.24594 0.25038 0.0
C1286 C 0.73051 0.2257 0.24443 0.0
C1287 C 0.72372 0.22208 0.22251 0.0
H1288 H 0.7291 0.2988 0.71644 0.0
H1289 H 0.74157 0.22732 0.69877 0.0
H1290 H 0.7417 0.29102 0.75414 0.0
H1291 H 0.7531 0.21902 0.73703 0.0
H1292 H 0.79596 0.2183 0.80088 0.0
H1293 H 0.7841 0.22643 0.7627 0.0
H1294 H 0.73014 0.27188 0.78718 0.0
H1295 H 0.7427 0.26414 0.82519 0.0
C1296 C 0.73453 0.28136 0.7207 0.0
C1297 C 0.73464 0.2637 0.70468 0.0
C1298 C 0.74147 0.27682 0.74239 0.0
C1299 C 0.74847 0.2544 0.74868 0.0
C1300 C 0.74816 0.23658 0.73268 0.0
C1301 C 0.74133 0.24121 0.71086 0.0
C1302 C 0.78181 0.23028 0.79789 0.0
C1303 C 0.77038 0.24093 0.81567 0.0
C1304 C 0.7748 0.23472 0.77613 0.0
C1305 C 0.7561 0.24977 0.77182 0.0
C1306 C 0.74482 0.26049 0.78983 0.0
C1307 C 0.75193 0.2561 0.81156 0.0
H1308 H 0.71742 0.79465 0.30257 0.0
H1309 H 0.74405 0.72757 0.32142 0.0
H1310 H 0.72916 0.78772 0.26423 0.0
H1311 H 0.75593 0.72046 0.2829 0.0
H1312 H 0.79827 0.73051 0.21818 0.0
H1313 H 0.78568 0.73743 0.25645 0.0
H1314 H 0.71936 0.76158 0.2324 0.0
H1315 H 0.73209 0.75458 0.19423 0.0
C1316 C 0.72561 0.77831 0.29836 0.0
C1317 C 0.72986 0.7616 0.31478 0.0
C1318 C 0.73228 0.77432 0.27646 0.0
C1319 C 0.74358 0.75361 0.27058 0.0
C1320 C 0.74748 0.73669 0.28701 0.0
C1321 C 0.74054 0.74061 0.30894 0.0
C1322 C 0.78115 0.73761 0.22119 0.0
C1323 C 0.76616 0.74226 0.20346 0.0
C1324 C 0.77384 0.74129 0.24302 0.0
C1325 C 0.75147 0.74989 0.24742 0.0
C1326 C 0.73672 0.75507 0.22953 0.0
C1327 C 0.74397 0.75115 0.20774 0.0
H1328 H 0.52415 0.51195 0.95054 0.0
H1329 H 0.45307 0.52779 0.96688 0.0
H1330 H 0.53094 0.4994 0.98891 0.0
H1331 H 0.4596 0.51511 1.00494 0.0
H1332 H 0.48833 0.51301 0.07648 0.0
H1333 H 0.48148 0.52648 0.03852 0.0
H1334 H 0.51806 0.46657 0.01331 0.0
H1335 H 0.52485 0.4533 0.05137 0.0
C1336 C 0.5101 0.5129 0.96242 0.0
C1337 C 0.48809 0.52062 0.95585 0.0
C1338 C 0.51386 0.50554 0.98426 0.0
C1339 C 0.49573 0.50609 0.9999 0.0
C1340 C 0.47394 0.51456 0.99335 0.0
C1341 C 0.47016 0.52169 0.97156 0.0
C1342 C 0.49445 0.5026 0.06273 0.0
C1343 C 0.50672 0.48201 0.06661 0.0
C1344 C 0.49066 0.51029 0.04106 0.0
C1345 C 0.49934 0.49765 0.02292 0.0
C1346 C 0.5114 0.47683 0.02693 0.0
C1347 C 0.51502 0.46907 0.04861 0.0
H1348 H 0.96229 0.53613 0.55299 0.0
H1349 H 0.02232 0.49893 0.57631 0.0
H1350 H 0.97015 0.52334 0.51518 0.0
H1351 H 0.02975 0.48488 0.53874 0.0
H1352 H 0.04972 0.48179 0.46617 0.0
H1353 H 0.04244 0.49511 0.50361 0.0
H1354 H 0.96856 0.4911 0.49161 0.0
H1355 H 0.97615 0.47953 0.45334 0.0
C1356 C 0.97725 0.52523 0.54986 0.0
C1357 C 0.99189 0.51864 0.56728 0.0
C1358 C 0.9816 0.5176 0.52829 0.0
C1359 C 0.0005 0.50286 0.52378 0.0
C1360 C 0.01525 0.49648 0.54141 0.0
C1361 C 0.01105 0.50445 0.56294 0.0
C1362 C 0.03192 0.48412 0.47142 0.0
C1363 C 0.0135 0.48013 0.45668 0.0
C1364 C 0.0277 0.49139 0.49309 0.0
C1365 C 0.00488 0.49438 0.50078 0.0
C1366 C 0.98639 0.48952 0.4862 0.0
C1367 C 0.99067 0.48255 0.46434 0.0
H1368 H 0.05056 0.52267 0.0556 0.0
H1369 H 0.97751 0.51653 0.06997 0.0
H1370 H 0.04379 0.50929 0.01794 0.0
H1371 H 0.97034 0.50436 0.03175 0.0
H1372 H 0.96844 0.45921 0.96995 0.0
H1373 H 0.97623 0.47182 1.00792 0.0
H1374 H 0.02769 0.52007 0.98334 0.0
H1375 H 0.02025 0.50662 0.94553 0.0
C1376 C 0.033 0.51848 0.05063 0.0
C1377 C 0.01459 0.52024 0.06578 0.0
C1378 C 0.02906 0.5111 0.02894 0.0
C1379 C 0.00653 0.50557 0.02176 0.0
C1380 C 0.98799 0.50802 0.0368 0.0
C1381 C 0.992 0.51527 0.05861 0.0
C1382 C 0.9817 0.47219 0.97289 0.0
C1383 C 0.99406 0.48177 0.95512 0.0
C1384 C 0.98595 0.47968 0.99452 0.0
C1385 C 0.00248 0.49711 0.99875 0.0
C1386 C 0.01506 0.50641 0.98079 0.0
C1387 C 0.01088 0.49876 0.95916 0.0
H1388 H 0.54518 0.52993 0.46817 0.0
H1389 H 0.47838 0.50256 0.44948 0.0
H1390 H 0.53846 0.51817 0.50651 0.0
H1391 H 0.47139 0.49084 0.48806 0.0
H1392 H 0.48053 0.44962 0.55319 0.0
H1393 H 0.48769 0.46169 0.51483 0.0
H1394 H 0.513 0.52788 0.53829 0.0
H1395 H 0.50589 0.5156 0.57656 0.0
C1396 C 0.52896 0.52152 0.4724 0.0
C1397 C 0.51229 0.51705 0.45601 0.0
C1398 C 0.52507 0.51487 0.49433 0.0
C1399 C 0.50445 0.50347 0.50029 0.0
C1400 C 0.48757 0.49934 0.48389 0.0
C1401 C 0.49142 0.50621 0.46192 0.0
C1402 C 0.48795 0.46658 0.55003 0.0
C1403 C 0.49286 0.48168 0.56763 0.0
C1404 C 0.49177 0.47361 0.52815 0.0
C1405 C 0.50074 0.4958 0.52354 0.0
C1406 C 0.50621 0.51063 0.54131 0.0
C1407 C 0.5022 0.50365 0.56316 0.0
H1408 H 0.32858 0.17982 0.0946 0.0
H1409 H 0.36184 0.21667 0.14828 0.0
H1410 H 0.35404 0.14666 0.10104 0.0
H1411 H 0.38696 0.18342 0.15491 0.0
H1412 H 0.44502 0.13019 0.14283 0.0
H1413 H 0.41917 0.16316 0.13723 0.0
H1414 H 0.36144 0.11626 0.12832 0.0
H1415 H 0.38727 0.08328 0.13351 0.0
C1416 C 0.34122 0.18081 0.10784 0.0
C1417 C 0.34322 0.20093 0.12086 0.0
C1418 C 0.35573 0.16176 0.1116 0.0
C1419 C 0.37256 0.16242 0.12847 0.0
C1420 C 0.37442 0.18248 0.14158 0.0
C1421 C 0.35991 0.2015 0.13784 0.0
C1422 C 0.42681 0.12689 0.13976 0.0
C1423 C 0.41827 0.10406 0.13859 0.0
C1424 C 0.41196 0.1458 0.13665 0.0
C1425 C 0.38825 0.14233 0.13226 0.0
C1426 C 0.37967 0.11952 0.13134 0.0
C1427 C 0.39449 0.10061 0.13448 0.0
H1428 H 0.03201 0.12254 0.36922 0.0
H1429 H 0.07714 0.06389 0.38058 0.0
H1430 H 0.06482 0.14877 0.37309 0.0
H1431 H 0.10988 0.09016 0.38546 0.0
H1432 H 0.16787 0.14152 0.37128 0.0
H1433 H 0.13522 0.11528 0.3666 0.0
H1434 H 0.09041 0.16483 0.39924 0.0
H1435 H 0.12296 0.19152 0.40301 0.0
C1436 C 0.04896 0.11526 0.37268 0.0
C1437 C 0.052 0.09113 0.37454 0.0
C1438 C 0.06778 0.13033 0.37509 0.0
C1439 C 0.09008 0.12168 0.37971 0.0
C1440 C 0.09308 0.09749 0.38155 0.0
C1441 C 0.07428 0.08239 0.37885 0.0
C1442 C 0.15104 0.14681 0.37749 0.0
C1443 C 0.14801 0.16864 0.3875 0.0
C1444 C 0.1323 0.13167 0.37492 0.0
C1445 C 0.11009 0.13783 0.38255 0.0
C1446 C 0.10714 0.15961 0.39277 0.0
C1447 C 0.12584 0.1749 0.39508 0.0
H1448 H 0.05661 0.87137 0.65501 0.0
H1449 H 0.11016 0.91798 0.63196 0.0
H1450 H 0.08337 0.83878 0.65148 0.0
H1451 H 0.13647 0.88547 0.62744 0.0
H1452 H 0.18572 0.82569 0.63978 0.0
H1453 H 0.15933 0.85807 0.64592 0.0
H1454 H 0.10173 0.81531 0.62487 0.0
H1455 H 0.12804 0.78271 0.61977 0.0
C1456 C 0.07406 0.87465 0.64913 0.0
C1457 C 0.08124 0.89728 0.64383 0.0
C1458 C 0.08939 0.85594 0.64693 0.0
C1459 C 0.11215 0.85939 0.63908 0.0
C1460 C 0.11928 0.8821 0.63392 0.0
C1461 C 0.10409 0.9008 0.6364 0.0
C1462 C 0.16742 0.82326 0.63642 0.0
C1463 C 0.15897 0.80167 0.62925 0.0
C1464 C 0.15225 0.84186 0.63986 0.0
C1465 C 0.12829 0.83941 0.6359 0.0
C1466 C 0.11994 0.81779 0.62854 0.0
C1467 C 0.13507 0.79912 0.6254 0.0
H1468 H 0.46839 0.8793 0.87102 0.0
H1469 H 0.42326 0.93784 0.88282 0.0
H1470 H 0.43573 0.85297 0.87533 0.0
H1471 H 0.39066 0.91146 0.88818 0.0
H1472 H 0.33269 0.86017 0.87384 0.0
H1473 H 0.36526 0.8865 0.86942 0.0
H1474 H 0.41023 0.83657 0.90132 0.0
H1475 H 0.37771 0.80976 0.90482 0.0
C1476 C 0.45148 0.88654 0.8747 0.0
C1477 C 0.44839 0.91066 0.87649 0.0
C1478 C 0.43275 0.8714 0.87737 0.0
C1479 C 0.41047 0.87998 0.88221 0.0
C1480 C 0.40744 0.90418 0.88409 0.0
C1481 C 0.42615 0.91934 0.88112 0.0
C1482 C 0.34952 0.8548 0.87997 0.0
C1483 C 0.3526 0.83283 0.88967 0.0
C1484 C 0.36823 0.87001 0.87755 0.0
C1485 C 0.39048 0.86378 0.88503 0.0
C1486 C 0.39348 0.84186 0.89498 0.0
C1487 C 0.37479 0.8265 0.89714 0.0
H1488 H 0.38738 0.91664 0.38064 0.0
H1489 H 0.44737 0.87164 0.382 0.0
H1490 H 0.36215 0.88324 0.38557 0.0
H1491 H 0.42205 0.83819 0.38754 0.0
H1492 H 0.36809 0.78121 0.37582 0.0
H1493 H 0.39342 0.81436 0.3694 0.0
H1494 H 0.35152 0.85577 0.41369 0.0
H1495 H 0.32582 0.82276 0.41967 0.0
C1496 C 0.39522 0.89961 0.38201 0.0
C1497 C 0.41944 0.89685 0.38096 0.0
C1498 C 0.38072 0.88045 0.38501 0.0
C1499 C 0.39005 0.85802 0.38714 0.0
C1500 C 0.41426 0.85519 0.38574 0.0
C1501 C 0.42879 0.87438 0.38264 0.0
C1502 C 0.36428 0.79738 0.38422 0.0
C1503 C 0.34491 0.79934 0.39827 0.0
C1504 C 0.3789 0.81637 0.38061 0.0
C1505 C 0.37454 0.83776 0.39101 0.0
C1506 C 0.3552 0.83967 0.40513 0.0
C1507 C 0.34052 0.8207 0.40867 0.0
H1508 H 0.37988 0.19526 0.6168 0.0
H1509 H 0.33562 0.14071 0.64192 0.0
H1510 H 0.41332 0.16934 0.61971 0.0
H1511 H 0.36885 0.11535 0.64568 0.0
H1512 H 0.42817 0.06701 0.63076 0.0
H1513 H 0.39553 0.09319 0.62533 0.0
H1514 H 0.43815 0.1511 0.64586 0.0
H1515 H 0.47104 0.12497 0.65036 0.0
C1516 C 0.37731 0.17781 0.62302 0.0
C1517 C 0.35507 0.17005 0.629 0.0
C1518 C 0.39648 0.16298 0.62482 0.0
C1519 C 0.39383 0.14016 0.63287 0.0
C1520 C 0.37156 0.13257 0.63895 0.0
C1521 C 0.35245 0.14724 0.63692 0.0
C1522 C 0.43054 0.08532 0.63414 0.0
C1523 C 0.45213 0.0939 0.64109 0.0
C1524 C 0.4118 0.10037 0.63111 0.0
C1525 C 0.41411 0.12432 0.63524 0.0
C1526 C 0.43578 0.13286 0.64217 0.0
C1527 C 0.4546 0.11784 0.64494 0.0
H1528 H 0.1787 0.17689 0.91655 0.0
H1529 H 0.13503 0.21868 0.87419 0.0
H1530 H 0.15336 0.14356 0.91033 0.0
H1531 H 0.1102 0.18533 0.86745 0.0
H1532 H 0.05617 0.12945 0.88118 0.0
H1533 H 0.08225 0.16214 0.88633 0.0
H1534 H 0.14114 0.11586 0.88283 0.0
H1535 H 0.11495 0.08294 0.87834 0.0
C1536 C 0.16379 0.17892 0.9058 0.0
C1537 C 0.15878 0.20047 0.89602 0.0
C1538 C 0.14934 0.15978 0.90211 0.0
C1539 C 0.12966 0.16176 0.88844 0.0
C1540 C 0.12493 0.18326 0.8784 0.0
C1541 C 0.13925 0.20239 0.8822 0.0
C1542 C 0.07468 0.12621 0.88138 0.0
C1543 C 0.08344 0.10354 0.87934 0.0
C1544 C 0.08967 0.14501 0.88424 0.0
C1545 C 0.11383 0.14167 0.88499 0.0
C1546 C 0.12262 0.11903 0.88266 0.0
C1547 C 0.1076 0.10017 0.87991 0.0
H1548 H 0.12017 0.80377 0.12994 0.0
H1549 H 0.16578 0.86305 0.13588 0.0
H1550 H 0.0867 0.82916 0.13551 0.0
H1551 H 0.13247 0.88825 0.14106 0.0
H1552 H 0.07021 0.92169 0.17521 0.0
H1553 H 0.10308 0.89581 0.16918 0.0
H1554 H 0.06518 0.8607 0.11734 0.0
H1555 H 0.03218 0.88632 0.12356 0.0
C1556 C 0.12307 0.82218 0.13226 0.0
C1557 C 0.14568 0.83131 0.13253 0.0
C1558 C 0.10389 0.83674 0.13538 0.0
C1559 C 0.10695 0.86071 0.13888 0.0
C1560 C 0.12953 0.86983 0.1388 0.0
C1561 C 0.14864 0.85534 0.13566 0.0
C1562 C 0.06888 0.90847 0.16252 0.0
C1563 C 0.04856 0.90609 0.14989 0.0
C1564 C 0.08776 0.8937 0.15899 0.0
C1565 C 0.08675 0.87621 0.14275 0.0
C1566 C 0.06641 0.87381 0.13015 0.0
C1567 C 0.04755 0.8886 0.13364 0.0
H1568 H 0.63321 0.78032 0.8743 0.0
H1569 H 0.67554 0.82388 0.9163 0.0
H1570 H 0.60746 0.81296 0.86706 0.0
H1571 H 0.64946 0.85642 0.90943 0.0
H1572 H 0.6125 0.91559 0.87485 0.0
H1573 H 0.6382 0.88259 0.88005 0.0
H1574 H 0.57883 0.83712 0.88533 0.0
H1575 H 0.55301 0.87015 0.87962 0.0
C1576 C 0.63696 0.79684 0.8821 0.0
C1577 C 0.65645 0.79949 0.8959 0.0
C1578 C 0.62212 0.81552 0.87802 0.0
C1579 C 0.62638 0.83732 0.88764 0.0
C1580 C 0.64585 0.83995 0.90148 0.0
C1581 C 0.66074 0.82126 0.90554 0.0
C1582 C 0.60487 0.89855 0.87695 0.0
C1583 C 0.58064 0.89556 0.87687 0.0
C1584 C 0.61964 0.87963 0.88011 0.0
C1585 C 0.61059 0.85724 0.88333 0.0
C1586 C 0.58639 0.85412 0.88272 0.0
C1587 C 0.57157 0.87307 0.8795 0.0
H1588 H 0.924 0.93866 0.63233 0.0
H1589 H 0.96647 0.88027 0.65155 0.0
H1590 H 0.89101 0.91271 0.62709 0.0
H1591 H 0.9334 0.85448 0.64719 0.0
H1592 H 0.87737 0.81033 0.61638 0.0
H1593 H 0.90982 0.8371 0.6199 0.0
H1594 H 0.8636 0.88941 0.64616 0.0
H1595 H 0.83102 0.86293 0.64179 0.0
C1596 C 0.92621 0.92032 0.63568 0.0
C1597 C 0.94785 0.91152 0.64231 0.0
C1598 C 0.90728 0.90543 0.63275 0.0
C1599 C 0.9095 0.88142 0.63662 0.0
C1600 C 0.93111 0.87275 0.64358 0.0
C1601 C 0.95007 0.88759 0.64627 0.0
C1602 C 0.87412 0.82759 0.62281 0.0
C1603 C 0.8516 0.83446 0.62882 0.0
C1604 C 0.89277 0.84292 0.62498 0.0
C1605 C 0.88943 0.86543 0.63348 0.0
C1606 C 0.86683 0.87236 0.63927 0.0
C1607 C 0.84813 0.85711 0.63687 0.0
H1608 H 0.88791 0.08288 0.38286 0.0
H1609 H 0.94647 0.12968 0.37995 0.0
H1610 H 0.86198 0.11575 0.38833 0.0
H1611 H 0.92056 0.16248 0.38592 0.0
H1612 H 0.86499 0.21753 0.37484 0.0
H1613 H 0.89029 0.18451 0.36798 0.0
H1614 H 0.85235 0.14432 0.41636 0.0
H1615 H 0.82664 0.17728 0.42291 0.0
C1616 C 0.89528 0.10017 0.38335 0.0
C1617 C 0.91931 0.10361 0.38094 0.0
C1618 C 0.8804 0.11901 0.38667 0.0
C1619 C 0.88918 0.14175 0.38767 0.0
C1620 C 0.91317 0.14522 0.38498 0.0
C1621 C 0.92806 0.12638 0.38163 0.0
C1622 C 0.86203 0.20167 0.38406 0.0
C1623 C 0.84381 0.20007 0.39949 0.0
C1624 C 0.87663 0.18276 0.38018 0.0
C1625 C 0.87341 0.16177 0.39165 0.0
C1626 C 0.85514 0.16014 0.40703 0.0
C1627 C 0.84048 0.17907 0.41089 0.0
H1628 H 0.57504 0.06464 0.13294 0.0
H1629 H 0.53159 0.12252 0.15158 0.0
H1630 H 0.60757 0.09102 0.12751 0.0
H1631 H 0.5643 0.14882 0.14707 0.0
H1632 H 0.62152 0.19323 0.11707 0.0
H1633 H 0.58863 0.16675 0.12046 0.0
H1634 H 0.63415 0.11408 0.14721 0.0
H1635 H 0.66692 0.14005 0.14296 0.0
C1636 C 0.57252 0.08297 0.13614 0.0
C1637 C 0.55078 0.09148 0.14274 0.0
C1638 C 0.59119 0.09813 0.1331 0.0
C1639 C 0.58864 0.12212 0.13686 0.0
C1640 C 0.56686 0.13055 0.14362 0.0
C1641 C 0.54813 0.11543 0.1464 0.0
C1642 C 0.62446 0.17595 0.12356 0.0
C1643 C 0.64685 0.16875 0.12965 0.0
C1644 C 0.6056 0.16079 0.12565 0.0
C1645 C 0.60868 0.1382 0.13411 0.0
C1646 C 0.63111 0.13112 0.14022 0.0
C1647 C 0.64994 0.14613 0.13789 0.0
H1648 H 0.63933 0.21789 0.64749 0.0
H1649 H 0.67996 0.17675 0.6019 0.0
H1650 H 0.61429 0.18478 0.65451 0.0
H1651 H 0.6544 0.14362 0.60852 0.0
H1652 H 0.61636 0.08289 0.6411 0.0
H1653 H 0.643 0.11539 0.63628 0.0
H1654 H 0.58496 0.16285 0.63573 0.0
H1655 H 0.55843 0.13056 0.64113 0.0
C1656 C 0.64286 0.20179 0.63886 0.0
C1657 C 0.66157 0.20001 0.62401 0.0
C1658 C 0.62841 0.18281 0.64283 0.0
C1659 C 0.63221 0.16157 0.63197 0.0
C1660 C 0.65113 0.15966 0.61734 0.0
C1661 C 0.66569 0.17868 0.61343 0.0
C1662 C 0.60929 0.10028 0.64012 0.0
C1663 C 0.58523 0.10409 0.64155 0.0
C1664 C 0.62457 0.11889 0.63718 0.0
C1665 C 0.61613 0.14173 0.63557 0.0
C1666 C 0.5921 0.14553 0.63723 0.0
C1667 C 0.57685 0.12697 0.64023 0.0
H1668 H 0.66776 0.86193 0.37504 0.0
H1669 H 0.62184 0.81048 0.40312 0.0
H1670 H 0.63525 0.88825 0.37019 0.0
H1671 H 0.58936 0.83727 0.3993 0.0
H1672 H 0.53195 0.88042 0.36868 0.0
H1673 H 0.56467 0.85418 0.3731 0.0
H1674 H 0.60902 0.91262 0.38836 0.0
H1675 H 0.57641 0.9389 0.38283 0.0
C1676 C 0.65073 0.85635 0.38047 0.0
C1677 C 0.64738 0.83408 0.38945 0.0
C1678 C 0.63206 0.87154 0.3778 0.0
C1679 C 0.60956 0.865 0.38434 0.0
C1680 C 0.60631 0.8428 0.39365 0.0
C1681 C 0.62496 0.82746 0.39601 0.0
C1682 C 0.54874 0.88765 0.37288 0.0
C1683 C 0.55163 0.91173 0.37533 0.0
C1684 C 0.5675 0.87258 0.37562 0.0
C1685 C 0.58959 0.88116 0.38123 0.0
C1686 C 0.59242 0.90533 0.38369 0.0
C1687 C 0.57369 0.92044 0.3806 0.0
H1688 H 0.88647 0.91605 0.14107 0.0
H1689 H 0.94632 0.87085 0.13945 0.0
H1690 H 0.86116 0.88278 0.13557 0.0
H1691 H 0.92092 0.83756 0.13346 0.0
H1692 H 0.8664 0.78092 0.14484 0.0
H1693 H 0.89174 0.81395 0.15176 0.0
H1694 H 0.85119 0.85552 0.10649 0.0
H1695 H 0.82551 0.82259 0.09989 0.0
C1696 C 0.89426 0.89901 0.13958 0.0
C1697 C 0.91847 0.89615 0.14068 0.0
C1698 C 0.87972 0.87995 0.13624 0.0
C1699 C 0.88901 0.85753 0.1339 0.0
C1700 C 0.91318 0.85458 0.1354 0.0
C1701 C 0.92776 0.87367 0.13877 0.0
C1702 C 0.86289 0.79709 0.13631 0.0
C1703 C 0.84392 0.79912 0.12178 0.0
C1704 C 0.8775 0.816 0.14022 0.0
C1705 C 0.87351 0.83738 0.12969 0.0
C1706 C 0.85457 0.83938 0.11511 0.0
C1707 C 0.83992 0.82047 0.11122 0.0
H1708 H 0.92642 0.06535 0.88878 0.0
H1709 H 0.96995 0.12332 0.8705 0.0
H1710 H 0.89385 0.09169 0.89408 0.0
H1711 H 0.9372 0.14957 0.87487 0.0
H1712 H 0.87957 0.19385 0.9042 0.0
H1713 H 0.91254 0.16743 0.90125 0.0
H1714 H 0.8675 0.11466 0.87397 0.0
H1715 H 0.83463 0.14057 0.87777 0.0
C1716 C 0.92895 0.08369 0.88565 0.0
C1717 C 0.95071 0.09224 0.87916 0.0
C1718 C 0.91026 0.09882 0.88861 0.0
C1719 C 0.91282 0.12282 0.88487 0.0
C1720 C 0.93464 0.1313 0.87829 0.0
C1721 C 0.95339 0.1162 0.8756 0.0
C1722 C 0.87675 0.17657 0.89768 0.0
C1723 C 0.85447 0.16931 0.8913 0.0
C1724 C 0.89566 0.16144 0.89585 0.0
C1725 C 0.89273 0.13884 0.88738 0.0
C1726 C 0.8704 0.13171 0.88098 0.0
C1727 C 0.85152 0.14668 0.88304 0.0
H1728 H 0.89219 0.58529 0.62311 0.0
H1729 H 0.94326 0.63016 0.6533 0.0
H1730 H 0.86641 0.61812 0.61809 0.0
H1731 H 0.91692 0.66307 0.64916 0.0
H1732 H 0.87379 0.72113 0.61847 0.0
H1733 H 0.90021 0.68849 0.62292 0.0
H1734 H 0.84194 0.64362 0.63722 0.0
H1735 H 0.81553 0.67608 0.63177 0.0
C1736 C 0.89783 0.60217 0.62892 0.0
C1737 C 0.91979 0.60509 0.63866 0.0
C1738 C 0.88293 0.62103 0.62616 0.0
C1739 C 0.88943 0.64332 0.63333 0.0
C1740 C 0.91142 0.64625 0.64314 0.0
C1741 C 0.92649 0.62736 0.64565 0.0
C1742 C 0.86664 0.70425 0.62246 0.0
C1743 C 0.84257 0.70114 0.62463 0.0
C1744 C 0.88182 0.68554 0.62521 0.0
C1745 C 0.8733 0.66333 0.63047 0.0
C1746 C 0.84916 0.66033 0.63276 0.0
C1747 C 0.83398 0.67897 0.62972 0.0
H1748 H 0.62295 0.6919 0.90266 0.0
H1749 H 0.66854 0.63859 0.87742 0.0
H1750 H 0.59011 0.66552 0.89926 0.0
H1751 H 0.63567 0.61257 0.87307 0.0
H1752 H 0.57547 0.56368 0.88677 0.0
H1753 H 0.60847 0.58956 0.89196 0.0
H1754 H 0.56586 0.64801 0.87284 0.0
H1755 H 0.53272 0.62224 0.86866 0.0
C1756 C 0.62594 0.67459 0.89628 0.0
C1757 C 0.64837 0.66736 0.89035 0.0
C1758 C 0.60707 0.65947 0.89417 0.0
C1759 C 0.61012 0.63686 0.88578 0.0
C1760 C 0.63263 0.62966 0.87994 0.0
C1761 C 0.65151 0.64466 0.88233 0.0
C1762 C 0.57321 0.58205 0.88363 0.0
C1763 C 0.5515 0.59091 0.87731 0.0
C1764 C 0.59216 0.59692 0.88651 0.0
C1765 C 0.58992 0.62097 0.88287 0.0
C1766 C 0.5682 0.62971 0.87626 0.0
C1767 C 0.5492 0.61489 0.87367 0.0
H1768 H 0.56011 0.37249 0.15286 0.0
H1769 H 0.61073 0.4179 0.1227 0.0
H1770 H 0.58678 0.33994 0.14898 0.0
H1771 H 0.63697 0.38527 0.11793 0.0
H1772 H 0.68789 0.32667 0.13179 0.0
H1773 H 0.66166 0.35943 0.13679 0.0
H1774 H 0.60319 0.31483 0.12251 0.0
H1775 H 0.62936 0.28199 0.11848 0.0
C1776 C 0.57687 0.37549 0.14527 0.0
C1777 C 0.58329 0.3978 0.13814 0.0
C1778 C 0.59214 0.35678 0.1429 0.0
C1779 C 0.61409 0.35987 0.13306 0.0
C1780 C 0.62043 0.38224 0.12593 0.0
C1781 C 0.60529 0.40097 0.12855 0.0
C1782 C 0.66944 0.32391 0.12965 0.0
C1783 C 0.6607 0.30174 0.12476 0.0
C1784 C 0.65436 0.34273 0.13243 0.0
C1785 C 0.63022 0.33986 0.13011 0.0
C1786 C 0.62159 0.31767 0.12489 0.0
C1787 C 0.63663 0.29884 0.12239 0.0
H1788 H 0.96997 0.37733 0.37054 0.0
H1789 H 0.92597 0.43526 0.38781 0.0
H1790 H 0.93701 0.35112 0.37371 0.0
H1791 H 0.89315 0.40896 0.39187 0.0
H1792 H 0.83417 0.3601 0.37456 0.0
H1793 H 0.86723 0.38596 0.37112 0.0
H1794 H 0.91163 0.33325 0.39944 0.0
H1795 H 0.87856 0.30696 0.40207 0.0
C1796 C 0.95326 0.38445 0.37516 0.0
C1797 C 0.95055 0.40839 0.37883 0.0
C1798 C 0.93437 0.36938 0.37715 0.0
C1799 C 0.91235 0.37785 0.38309 0.0
C1800 C 0.90972 0.40183 0.38689 0.0
C1801 C 0.92857 0.41693 0.38466 0.0
C1802 C 0.85098 0.35399 0.38009 0.0
C1803 C 0.85371 0.33144 0.38861 0.0
C1804 C 0.86996 0.36892 0.37824 0.0
C1805 C 0.89216 0.36181 0.38508 0.0
C1806 C 0.89488 0.33924 0.39369 0.0
C1807 C 0.87589 0.32418 0.39533 0.0
H1808 H 0.9414 0.37281 0.86815 0.0
H1809 H 0.89102 0.41776 0.89926 0.0
H1810 H 0.91474 0.34016 0.87189 0.0
H1811 H 0.86486 0.38509 0.90389 0.0
H1812 H 0.81358 0.32712 0.88999 0.0
H1813 H 0.83995 0.35974 0.88493 0.0
H1814 H 0.89832 0.31461 0.89797 0.0
H1815 H 0.87197 0.28189 0.90202 0.0
C1816 C 0.9247 0.37568 0.87592 0.0
C1817 C 0.91832 0.3979 0.88332 0.0
C1818 C 0.90944 0.35693 0.87821 0.0
C1819 C 0.88756 0.3599 0.88822 0.0
C1820 C 0.88131 0.38215 0.8957 0.0
C1821 C 0.89642 0.40092 0.89316 0.0
C1822 C 0.83204 0.32421 0.89184 0.0
C1823 C 0.84068 0.30194 0.89642 0.0
C1824 C 0.84721 0.34295 0.88903 0.0
C1825 C 0.87137 0.3399 0.89102 0.0
C1826 C 0.87991 0.3176 0.89587 0.0
C1827 C 0.86477 0.29884 0.89838 0.0
H1828 H 0.87671 0.69146 0.11787 0.0
H1829 H 0.83051 0.63825 0.14238 0.0
H1830 H 0.9093 0.66482 0.12126 0.0
H1831 H 0.86318 0.61192 0.14666 0.0
H1832 H 0.92353 0.56295 0.13265 0.0
H1833 H 0.89059 0.58897 0.12753 0.0
H1834 H 0.933 0.64702 0.1481 0.0
H1835 H 0.96604 0.62117 0.15229 0.0
C1836 C 0.87353 0.67411 0.12409 0.0
C1837 C 0.851 0.667 0.12985 0.0
C1838 C 0.89225 0.65884 0.12619 0.0
C1839 C 0.88898 0.63618 0.13437 0.0
C1840 C 0.86638 0.62907 0.13999 0.0
C1841 C 0.84762 0.64424 0.13764 0.0
C1842 C 0.92576 0.58127 0.13611 0.0
C1843 C 0.94739 0.59 0.14284 0.0
C1844 C 0.90685 0.5962 0.13327 0.0
C1845 C 0.90907 0.62018 0.13732 0.0
C1846 C 0.9307 0.62878 0.14435 0.0
C1847 C 0.94964 0.61391 0.14693 0.0
H1848 H 0.67156 0.6799 0.42352 0.0
H1849 H 0.63282 0.71912 0.375 0.0
H1850 H 0.64591 0.6468 0.41778 0.0
H1851 H 0.60746 0.68586 0.36895 0.0
H1852 H 0.55242 0.62921 0.38138 0.0
H1853 H 0.57738 0.66297 0.38702 0.0
H1854 H 0.63732 0.61805 0.38979 0.0
H1855 H 0.61249 0.58442 0.38463 0.0
C1856 C 0.65763 0.68144 0.41158 0.0
C1857 C 0.65426 0.70216 0.39974 0.0
C1858 C 0.64299 0.66242 0.4082 0.0
C1859 C 0.62465 0.66364 0.39285 0.0
C1860 C 0.62123 0.68441 0.38109 0.0
C1861 C 0.63586 0.70344 0.38448 0.0
C1862 C 0.57093 0.62656 0.38311 0.0
C1863 C 0.58039 0.60407 0.38262 0.0
C1864 C 0.58526 0.64592 0.38626 0.0
C1865 C 0.60935 0.64321 0.389 0.0
C1866 C 0.61881 0.62075 0.38816 0.0
C1867 C 0.60453 0.60145 0.38503 0.0
H1868 H 0.66549 0.36356 0.63271 0.0
H1869 H 0.62108 0.30308 0.63162 0.0
H1870 H 0.63185 0.38826 0.63842 0.0
H1871 H 0.58738 0.32788 0.63785 0.0
H1872 H 0.53038 0.3823 0.62682 0.0
H1873 H 0.56371 0.35729 0.62011 0.0
H1874 H 0.60392 0.39719 0.667 0.0
H1875 H 0.57072 0.42255 0.67336 0.0
C1876 C 0.64855 0.3555 0.63368 0.0
C1877 C 0.64602 0.33129 0.63172 0.0
C1878 C 0.62925 0.36969 0.63713 0.0
C1879 C 0.60692 0.36006 0.63877 0.0
C1880 C 0.60431 0.33589 0.63647 0.0
C1881 C 0.62365 0.32165 0.63297 0.0
C1882 C 0.54631 0.38572 0.63575 0.0
C1883 C 0.54789 0.40445 0.65064 0.0
C1884 C 0.56539 0.37129 0.63197 0.0
C1885 C 0.5865 0.37522 0.64299 0.0
C1886 C 0.58802 0.39387 0.65798 0.0
C1887 C 0.56894 0.40834 0.66174 0.0
H1888 H 0.11203 0.41876 0.39354 0.0
H1889 H 0.06026 0.37237 0.36674 0.0
H1890 H 0.13822 0.38617 0.39894 0.0
H1891 H 0.08684 0.33986 0.37117 0.0
H1892 H 0.12887 0.28297 0.40363 0.0
H1893 H 0.10322 0.31606 0.39855 0.0
H1894 H 0.16221 0.35884 0.38135 0.0
H1895 H 0.18793 0.32588 0.38747 0.0
C1896 C 0.10637 0.40163 0.38848 0.0
C1897 C 0.08402 0.39815 0.37977 0.0
C1898 C 0.12146 0.38291 0.39149 0.0
C1899 C 0.1147 0.36026 0.3856 0.0
C1900 C 0.09251 0.35692 0.37638 0.0
C1901 C 0.0773 0.37561 0.37365 0.0
C1902 C 0.13636 0.29949 0.39889 0.0
C1903 C 0.16042 0.30184 0.39601 0.0
C1904 C 0.12162 0.31846 0.39577 0.0
C1905 C 0.13054 0.34019 0.38935 0.0
C1906 C 0.15469 0.34252 0.3866 0.0
C1907 C 0.16947 0.3236 0.39003 0.0
H1908 H 0.46963 0.37729 0.1535 0.0
H1909 H 0.42633 0.43537 0.13525 0.0
H1910 H 0.43694 0.35101 0.14844 0.0
H1911 H 0.39393 0.4091 0.12907 0.0
H1912 H 0.3341 0.36059 0.14238 0.0
H1913 H 0.36694 0.38619 0.14753 0.0
H1914 H 0.41274 0.33298 0.1222 0.0
H1915 H 0.37969 0.30679 0.11809 0.0
C1916 C 0.45312 0.38441 0.14829 0.0
C1917 C 0.45048 0.40841 0.14495 0.0
C1918 C 0.43441 0.36932 0.14517 0.0
C1919 C 0.41269 0.37783 0.13831 0.0
C1920 C 0.4102 0.40189 0.1348 0.0
C1921 C 0.42881 0.417 0.13827 0.0
C1922 C 0.35115 0.35431 0.13782 0.0
C1923 C 0.35425 0.33162 0.12977 0.0
C1924 C 0.37005 0.36912 0.14065 0.0
C1925 C 0.3926 0.36182 0.13518 0.0
C1926 C 0.3957 0.33914 0.12692 0.0
C1927 C 0.37675 0.32414 0.1244 0.0
H1928 H 0.31362 0.67523 0.88738 0.0
H1929 H 0.37194 0.71905 0.90374 0.0
H1930 H 0.33985 0.6427 0.88137 0.0
H1931 H 0.39813 0.68633 0.89878 0.0
H1932 H 0.44199 0.6297 0.86769 0.0
H1933 H 0.41536 0.66226 0.87207 0.0
H1934 H 0.36375 0.61583 0.8993 0.0
H1935 H 0.38991 0.5833 0.89395 0.0
C1936 C 0.33203 0.67782 0.89001 0.0
C1937 C 0.3407 0.6997 0.89606 0.0
C1938 C 0.34712 0.65912 0.88664 0.0
C1939 C 0.37122 0.66177 0.88955 0.0
C1940 C 0.37978 0.68366 0.89592 0.0
C1941 C 0.36473 0.70242 0.89897 0.0
C1942 C 0.4249 0.62647 0.87449 0.0
C1943 C 0.41807 0.60389 0.88039 0.0
C1944 C 0.40965 0.64518 0.87718 0.0
C1945 C 0.38732 0.6418 0.88612 0.0
C1946 C 0.38057 0.61914 0.89198 0.0
C1947 C 0.39567 0.60044 0.88902 0.0
H1948 H 0.16859 0.64027 0.64366 0.0
H1949 H 0.12222 0.69197 0.61672 0.0
H1950 H 0.13612 0.61398 0.64898 0.0
H1951 H 0.08977 0.66523 0.62103 0.0
H1952 H 0.03296 0.62238 0.65309 0.0
H1953 H 0.06571 0.64844 0.64787 0.0
H1954 H 0.10926 0.58978 0.63142 0.0
H1955 H 0.07666 0.56368 0.63772 0.0
C1956 C 0.15147 0.6459 0.63855 0.0
C1957 C 0.14799 0.66825 0.62979 0.0
C1958 C 0.13282 0.63074 0.6415 0.0
C1959 C 0.1102 0.63738 0.63548 0.0
C1960 C 0.10682 0.65962 0.6263 0.0
C1961 C 0.12546 0.67493 0.62365 0.0
C1962 C 0.04958 0.61506 0.64847 0.0
C1963 C 0.05226 0.59097 0.64591 0.0
C1964 C 0.06835 0.63003 0.64526 0.0
C1965 C 0.09022 0.62133 0.63907 0.0
C1966 C 0.09284 0.59715 0.63653 0.0
C1967 C 0.07412 0.58215 0.64006 0.0
H1968 H 0.05327 0.63136 0.14322 0.0
H1969 H 0.11176 0.58437 0.14358 0.0
H1970 H 0.07957 0.66393 0.1372 0.0
H1971 H 0.13798 0.61695 0.138 0.0
H1972 H 0.17431 0.67665 0.10149 0.0
H1973 H 0.14819 0.64419 0.10882 0.0
H1974 H 0.10978 0.68655 0.15511 0.0
H1975 H 0.13554 0.71906 0.14751 0.0
C1976 C 0.07173 0.62798 0.14228 0.0
C1977 C 0.08035 0.60521 0.14383 0.0
C1978 C 0.08683 0.64667 0.13889 0.0
C1979 C 0.11088 0.64303 0.13697 0.0
C1980 C 0.11952 0.62032 0.13901 0.0
C1981 C 0.10446 0.60166 0.1424 0.0
C1982 C 0.1603 0.67903 0.11323 0.0
C1983 C 0.15699 0.70048 0.12383 0.0
C1984 C 0.1454 0.66039 0.11754 0.0
C1985 C 0.12688 0.66277 0.13256 0.0
C1986 C 0.12366 0.68421 0.14322 0.0
C1987 C 0.13853 0.70282 0.13892 0.0
H1988 H 0.07555 0.43784 0.88357 0.0
H1989 H 0.03216 0.37905 0.86764 0.0
H1990 H 0.10828 0.41187 0.88964 0.0
H1991 H 0.06506 0.35313 0.87262 0.0
H1992 H 0.12161 0.30973 0.90389 0.0
H1993 H 0.08906 0.33632 0.89951 0.0
H1994 H 0.13533 0.38792 0.87199 0.0
H1995 H 0.1679 0.36177 0.87738 0.0
C1996 C 0.07311 0.41938 0.88104 0.0
C1997 C 0.0513 0.41049 0.87513 0.0
C1998 C 0.09191 0.40445 0.88445 0.0
C1999 C 0.08941 0.38029 0.88169 0.0
C2000 C 0.0676 0.37153 0.87539 0.0
C2001 C 0.04875 0.38642 0.87232 0.0
C2002 C 0.12481 0.32682 0.89703 0.0
C2003 C 0.14734 0.33364 0.89104 0.0
C2004 C 0.10611 0.34203 0.89434 0.0
C2005 C 0.10944 0.36432 0.88526 0.0
C2006 C 0.13206 0.37111 0.87938 0.0
C2007 C 0.15078 0.35603 0.88238 0.0
H2008 H 0.38806 0.41878 0.62627 0.0
H2009 H 0.43907 0.37219 0.65406 0.0
H2010 H 0.36153 0.38641 0.62109 0.0
H2011 H 0.41214 0.33992 0.64985 0.0
H2012 H 0.36958 0.28304 0.61804 0.0
H2013 H 0.39559 0.31586 0.62286 0.0
H2014 H 0.33701 0.35967 0.63885 0.0
H2015 H 0.31091 0.32692 0.63299 0.0
C2016 C 0.3935 0.40165 0.63156 0.0
C2017 C 0.41573 0.39806 0.64052 0.0
C2018 C 0.3782 0.38306 0.62869 0.0
C2019 C 0.38462 0.36043 0.63497 0.0
C2020 C 0.40672 0.35697 0.64436 0.0
C2021 C 0.42214 0.37552 0.64695 0.0
C2022 C 0.36225 0.29971 0.62249 0.0
C2023 C 0.33818 0.3024 0.62509 0.0
C2024 C 0.3772 0.31854 0.62545 0.0
C2025 C 0.36852 0.34048 0.63144 0.0
C2026 C 0.34436 0.34316 0.63394 0.0
C2027 C 0.32936 0.32436 0.63066 0.0
H2028 H 0.33245 0.63562 0.39028 0.0
H2029 H 0.37988 0.69374 0.39194 0.0
H2030 H 0.36502 0.60919 0.38517 0.0
H2031 H 0.41232 0.66736 0.38633 0.0
H2032 H 0.46709 0.61201 0.39768 0.0
H2033 H 0.43414 0.63732 0.40466 0.0
H2034 H 0.39341 0.59868 0.35723 0.0
H2035 H 0.42632 0.57292 0.35058 0.0
C2036 C 0.34981 0.64278 0.3896 0.0
C2037 C 0.35352 0.66684 0.39155 0.0
C2038 C 0.36847 0.62762 0.3865 0.0
C2039 C 0.39129 0.63614 0.38526 0.0
C2040 C 0.39501 0.66016 0.38749 0.0
C2041 C 0.37637 0.67532 0.39062 0.0
C2042 C 0.45111 0.60887 0.38872 0.0
C2043 C 0.44938 0.59048 0.37348 0.0
C2044 C 0.43224 0.62348 0.39267 0.0
C2045 C 0.41115 0.62013 0.38145 0.0
C2046 C 0.40932 0.60159 0.36635 0.0
C2047 C 0.42823 0.58691 0.36243 0.0
H2048 H 0.30102 0.26063 0.05332 0.0
H2049 H 0.23829 0.2965 0.07229 0.0
H2050 H 0.28637 0.25729 0.01531 0.0
H2051 H 0.22354 0.29267 0.03451 0.0
H2052 H 0.19777 0.26251 0.96767 0.0
H2053 H 0.21218 0.2594 1.0058 0.0
H2054 H 0.27706 0.2903 0.98576 0.0
H2055 H 0.26258 0.29393 0.94789 0.0
C2056 C 0.28399 0.26747 0.04947 0.0
C2057 C 0.27087 0.27896 0.06576 0.0
C2058 C 0.27566 0.26562 0.02773 0.0
C2059 C 0.25383 0.2747 0.02202 0.0
C2060 C 0.24034 0.28535 0.03851 0.0
C2061 C 0.24886 0.28767 0.06008 0.0
C2062 C 0.21519 0.26838 0.97137 0.0
C2063 C 0.22899 0.27858 0.95481 0.0
C2064 C 0.22339 0.26667 0.99318 0.0
C2065 C 0.24572 0.2746 0.99868 0.0
C2066 C 0.25984 0.2839 0.98194 0.0
C2067 C 0.25149 0.28609 0.9603 0.0
H2068 H 0.95445 0.01209 0.1982 0.0
H2069 H 0.98847 0.94845 0.21758 0.0
H2070 H 0.95801 0.0267 0.23604 0.0
H2071 H 0.99156 0.96299 0.25567 0.0
H2072 H 0.95562 0.98787 0.32298 0.0
H2073 H 0.95878 0.97321 0.28511 0.0
H2074 H 0.99111 0.03735 0.26485 0.0
H2075 H 0.98842 0.05194 0.30291 0.0
C2076 C 0.9628 0.00127 0.21052 0.0
C2077 C 0.97109 0.97906 0.20493 0.0
C2078 C 0.96496 0.00971 0.23214 0.0
C2079 C 0.97502 0.99595 0.24876 0.0
C2080 C 0.98367 0.9739 0.24315 0.0
C2081 C 0.98198 0.96564 0.22137 0.0
C2082 C 0.96362 0.99878 0.31051 0.0
C2083 C 0.97169 0.02112 0.31593 0.0
C2084 C 0.96555 0.99031 0.28888 0.0
C2085 C 0.97517 0.00416 0.27208 0.0
C2086 C 0.98358 0.02635 0.27751 0.0
C2087 C 0.98211 0.03465 0.29928 0.0
H2088 H 0.26317 0.70802 0.57343 0.0
H2089 H 0.19897 0.74047 0.55341 0.0
H2090 H 0.27793 0.71151 0.53567 0.0
H2091 H 0.2137 0.74356 0.51539 0.0
H2092 H 0.23872 0.70708 0.44874 0.0
H2093 H 0.22408 0.71122 0.48648 0.0
H2094 H 0.28852 0.74325 0.50617 0.0
H2095 H 0.30314 0.73951 0.46816 0.0
C2096 C 0.25227 0.71606 0.561 0.0
C2097 C 0.22984 0.72386 0.5664 0.0
C2098 C 0.2608 0.71819 0.53941 0.0
C2099 C 0.24696 0.72777 0.5226 0.0
C2100 C 0.22471 0.73604 0.52804 0.0
C2101 C 0.21633 0.73436 0.54979 0.0
C2102 C 0.24971 0.71524 0.46104 0.0
C2103 C 0.27216 0.72285 0.45547 0.0
C2104 C 0.24124 0.71774 0.48261 0.0
C2105 C 0.25517 0.72753 0.49925 0.0
C2106 C 0.27745 0.73558 0.49365 0.0
C2107 C 0.28577 0.73352 0.47191 0.0
H2108 H 0.50934 0.9507 0.80298 0.0
H2109 H 0.545 0.01338 0.82257 0.0
H2110 H 0.50605 0.96572 0.76511 0.0
H2111 H 0.5413 0.02846 0.78491 0.0
H2112 H 0.51293 0.05478 0.71778 0.0
H2113 H 0.50915 0.04032 0.75586 0.0
H2114 H 0.5387 0.97476 0.73588 0.0
H2115 H 0.54291 0.98925 0.69809 0.0
C2116 C 0.51612 0.96781 0.79931 0.0
C2117 C 0.52757 0.98078 0.81573 0.0
C2118 C 0.5143 0.97635 0.77764 0.0
C2119 C 0.52343 0.99824 0.77211 0.0
C2120 C 0.53396 0.01161 0.78875 0.0
C2121 C 0.5362 0.0029 0.81026 0.0
C2122 C 0.51834 0.0372 0.72149 0.0
C2123 C 0.52835 0.0232 0.70498 0.0
C2124 C 0.51626 0.02897 0.74326 0.0
C2125 C 0.52363 0.00643 0.74878 0.0
C2126 C 0.53272 0.99214 0.73206 0.0
C2127 C 0.53526 1.0005 0.71046 0.0
H2128 H 0.80147 0.73915 0.05293 0.0
H2129 H 0.73717 0.70632 0.07213 0.0
H2130 H 0.78719 0.74239 0.0148 0.0
H2131 H 0.72285 0.70996 0.03421 0.0
H2132 H 0.69827 0.73921 0.96685 0.0
H2133 H 0.71252 0.74221 1.00504 0.0
H2134 H 0.77708 0.71041 0.98537 0.0
H2135 H 0.7628 0.70702 0.94744 0.0
C2136 C 0.78419 0.73293 0.0491 0.0
C2137 C 0.77052 0.72232 0.06553 0.0
C2138 C 0.77607 0.73472 0.02727 0.0
C2139 C 0.75391 0.72643 0.02156 0.0
C2140 C 0.73992 0.71665 0.03817 0.0
C2141 C 0.7482 0.71443 0.05984 0.0
C2142 C 0.7156 0.73311 0.97065 0.0
C2143 C 0.72934 0.72273 0.95415 0.0
C2144 C 0.7237 0.73474 0.9925 0.0
C2145 C 0.7459 0.72653 0.99815 0.0
C2146 C 0.75997 0.71703 0.98147 0.0
C2147 C 0.75171 0.71495 0.95978 0.0
H2148 H 0.04287 0.98861 0.82237 0.0
H2149 H 0.01105 0.05356 0.80355 0.0
H2150 H 0.0386 0.97439 0.78449 0.0
H2151 H 0.0072 0.03937 0.76541 0.0
H2152 H 0.04277 0.01412 0.69807 0.0
H2153 H 0.03916 0.02868 0.73591 0.0
H2154 H 0.0059 0.96478 0.75551 0.0
H2155 H 0.00908 0.95028 0.71745 0.0
C2156 C 0.03482 0.99979 0.81018 0.0
C2157 C 0.02741 0.02226 0.81593 0.0
C2158 C 0.03224 0.99158 0.78853 0.0
C2159 C 0.02259 0.00579 0.77203 0.0
C2160 C 0.01474 0.02809 0.77782 0.0
C2161 C 0.01687 0.03615 0.79964 0.0
C2162 C 0.0344 0.00328 0.71036 0.0
C2163 C 0.0263 0.98099 0.70478 0.0
C2164 C 0.03222 0.01169 0.73199 0.0
C2165 C 0.0223 0.99784 0.74863 0.0
C2166 C 0.01369 0.97578 0.74299 0.0
C2167 C 0.01542 0.96753 0.72121 0.0
H2168 H 0.71818 0.24759 0.56038 0.0
H2169 H 0.74268 0.3184 0.56421 0.0
H2170 H 0.73273 0.24513 0.52216 0.0
H2171 H 0.75716 0.31579 0.52665 0.0
H2172 H 0.75238 0.31452 0.45237 0.0
H2173 H 0.73746 0.31274 0.48984 0.0
H2174 H 0.77188 0.24705 0.49988 0.0
H2175 H 0.78695 0.24867 0.46182 0.0
C2176 C 0.72672 0.26254 0.55318 0.0
C2177 C 0.72924 0.28319 0.56544 0.0
C2178 C 0.73515 0.26107 0.53137 0.0
C2179 C 0.74594 0.28033 0.52138 0.0
C2180 C 0.7487 0.30075 0.53378 0.0
C2181 C 0.74051 0.30216 0.55546 0.0
C2182 C 0.75673 0.29955 0.46236 0.0
C2183 C 0.77104 0.28181 0.45401 0.0
C2184 C 0.74821 0.2986 0.48395 0.0
C2185 C 0.75367 0.27987 0.49788 0.0
C2186 C 0.76735 0.26168 0.48946 0.0
C2187 C 0.77607 0.26269 0.46774 0.0
H2188 H 0.50276 0.96697 0.30972 0.0
H2189 H 0.43489 0.99797 0.31696 0.0
H2190 H 0.50492 0.98205 0.27169 0.0
H2191 H 0.43717 0.01284 0.27944 0.0
H2192 H 0.43477 0.00622 0.20477 0.0
H2193 H 0.43692 0.99203 0.24248 0.0
H2194 H 0.50512 0.02199 0.24957 0.0
H2195 H 0.50308 0.03642 0.21126 0.0
C2196 C 0.48841 0.97707 0.30332 0.0
C2197 C 0.46859 0.98112 0.31642 0.0
C2198 C 0.48972 0.9858 0.28162 0.0
C2199 C 0.47113 0.99845 0.27257 0.0
C2200 C 0.45166 0.00292 0.28586 0.0
C2201 C 0.45042 0.99444 0.30746 0.0
C2202 C 0.45037 0.00973 0.21415 0.0
C2203 C 0.46873 0.02257 0.20489 0.0
C2204 C 0.45151 0.00167 0.23589 0.0
C2205 C 0.47109 0.00606 0.24904 0.0
C2206 C 0.48983 0.01832 0.23975 0.0
C2207 C 0.48859 0.02667 0.2179 0.0
H2208 H 0.73703 0.7953 0.57237 0.0
H2209 H 0.80124 0.76289 0.55229 0.0
H2210 H 0.72236 0.79201 0.53454 0.0
H2211 H 0.78661 0.76002 0.51426 0.0
H2212 H 0.76154 0.79553 0.44732 0.0
H2213 H 0.77608 0.79223 0.48518 0.0
H2214 H 0.7119 0.7599 0.5052 0.0
H2215 H 0.6974 0.76279 0.4671 0.0
C2216 C 0.74797 0.78735 0.55992 0.0
C2217 C 0.77036 0.77946 0.56533 0.0
C2218 C 0.73948 0.78534 0.53829 0.0
C2219 C 0.75335 0.77579 0.52147 0.0
C2220 C 0.77558 0.76752 0.52691 0.0
C2221 C 0.78391 0.76909 0.54867 0.0
C2222 C 0.75059 0.78752 0.45973 0.0
C2223 C 0.72826 0.77952 0.45421 0.0
C2224 C 0.75899 0.7855 0.48137 0.0
C2225 C 0.74511 0.77584 0.49813 0.0
C2226 C 0.72292 0.76749 0.4926 0.0
C2227 C 0.71468 0.76906 0.4708 0.0
H2228 H 0.48827 0.55263 0.80277 0.0
H2229 H 0.45593 0.48843 0.82305 0.0
H2230 H 0.49092 0.53793 0.7647 0.0
H2231 H 0.45901 0.47368 0.78524 0.0
H2232 H 0.48775 0.44836 0.71792 0.0
H2233 H 0.49099 0.46316 0.75588 0.0
H2234 H 0.45846 0.52722 0.73574 0.0
H2235 H 0.45478 0.51238 0.69799 0.0
C2236 C 0.48206 0.53529 0.79919 0.0
C2237 C 0.47176 0.52175 0.8159 0.0
C2238 C 0.48349 0.52693 0.77741 0.0
C2239 C 0.47517 0.50467 0.77204 0.0
C2240 C 0.46571 0.49083 0.78893 0.0
C2241 C 0.46383 0.49934 0.81055 0.0
C2242 C 0.48149 0.46568 0.72155 0.0
C2243 C 0.47087 0.47913 0.70497 0.0
C2244 C 0.48328 0.4741 0.74328 0.0
C2245 C 0.47498 0.49633 0.74873 0.0
C2246 C 0.46516 0.51009 0.73197 0.0
C2247 C 0.46292 0.50151 0.7104 0.0
H2248 H 0.71546 0.25272 0.05931 0.0
H2249 H 0.74827 0.18568 0.06696 0.0
H2250 H 0.72969 0.25464 0.02101 0.0
H2251 H 0.76207 0.18763 0.02899 0.0
H2252 H 0.75379 0.18498 0.95393 0.0
H2253 H 0.73989 0.18699 0.99188 0.0
H2254 H 0.77 0.25515 0.999 0.0
H2255 H 0.7843 0.25318 0.96073 0.0
C2256 C 0.72576 0.2385 0.05293 0.0
C2257 C 0.73056 0.21898 0.06621 0.0
C2258 C 0.73396 0.23966 0.03105 0.0
C2259 C 0.74677 0.22118 0.02201 0.0
C2260 C 0.75198 0.20199 0.03545 0.0
C2261 C 0.74411 0.20096 0.05727 0.0
C2262 C 0.75739 0.20052 0.96342 0.0
C2263 C 0.77033 0.21887 0.95425 0.0
C2264 C 0.74948 0.20159 0.98523 0.0
C2265 C 0.75403 0.22114 0.99842 0.0
C2266 C 0.76624 0.2399 0.98915 0.0
C2267 C 0.77448 0.23871 0.9673 0.0
H2268 H 0.04306 0.51289 0.32332 0.0
H2269 H 0.01065 0.4483 0.30426 0.0
H2270 H 0.03872 0.52738 0.28553 0.0
H2271 H 0.00672 0.46275 0.26623 0.0
H2272 H 0.04228 0.4879 0.19894 0.0
H2273 H 0.03864 0.47327 0.23675 0.0
H2274 H 0.00611 0.53744 0.2566 0.0
H2275 H 0.00932 0.55203 0.21854 0.0
C2276 C 0.03485 0.50185 0.3111 0.0
C2277 C 0.02731 0.47939 0.31676 0.0
C2278 C 0.03223 0.51022 0.2895 0.0
C2279 C 0.02241 0.49618 0.27297 0.0
C2280 C 0.01441 0.47391 0.27868 0.0
C2281 C 0.01659 0.46568 0.30043 0.0
C2282 C 0.03407 0.4988 0.21129 0.0
C2283 C 0.02619 0.52118 0.20578 0.0
C2284 C 0.03187 0.49035 0.2329 0.0
C2285 C 0.02214 0.50424 0.2496 0.0
C2286 C 0.01374 0.52641 0.24403 0.0
C2287 C 0.0155 0.5347 0.22226 0.0
H2288 H 0.25208 0.18468 0.56728 0.0
H2289 H 0.28407 0.25206 0.55922 0.0
H2290 H 0.23766 0.18651 0.52953 0.0
H2291 H 0.26934 0.25381 0.52111 0.0
H2292 H 0.21572 0.25282 0.46086 0.0
H2293 H 0.22984 0.2545 0.49921 0.0
H2294 H 0.25823 0.18557 0.49233 0.0
H2295 H 0.24436 0.18381 0.45437 0.0
C2296 C 0.25593 0.2 0.55755 0.0
C2297 C 0.26942 0.21817 0.56633 0.0
C2298 C 0.24771 0.20097 0.53583 0.0
C2299 C 0.25254 0.2202 0.52231 0.0
C2300 C 0.26532 0.23879 0.5312 0.0
C2301 C 0.27382 0.23772 0.55297 0.0
C2302 C 0.22505 0.23808 0.46754 0.0
C2303 C 0.22884 0.21815 0.45452 0.0
C2304 C 0.23322 0.23911 0.48942 0.0
C2305 C 0.24498 0.2201 0.49878 0.0
C2306 C 0.249 0.20038 0.48565 0.0
C2307 C 0.24114 0.19946 0.46382 0.0
H2308 H 0.49744 0.53337 0.31002 0.0
H2309 H 0.56692 0.5059 0.31613 0.0
H2310 H 0.49563 0.51871 0.2718 0.0
H2311 H 0.565 0.49146 0.27846 0.0
H2312 H 0.56587 0.49661 0.20371 0.0
H2313 H 0.56383 0.51128 0.24132 0.0
H2314 H 0.49672 0.47928 0.24974 0.0
H2315 H 0.49865 0.4644 0.21163 0.0
C2316 C 0.51225 0.52418 0.30331 0.0
C2317 C 0.53235 0.52091 0.3162 0.0
C2318 C 0.51115 0.51568 0.28149 0.0
C2319 C 0.53025 0.50409 0.27209 0.0
C2320 C 0.55011 0.50056 0.28511 0.0
C2321 C 0.55112 0.50877 0.30683 0.0
C2322 C 0.55054 0.49274 0.21339 0.0
C2323 C 0.53247 0.47919 0.20456 0.0
C2324 C 0.54945 0.5011 0.23506 0.0
C2325 C 0.53021 0.4963 0.24857 0.0
C2326 C 0.51175 0.48331 0.23968 0.0
C2327 C 0.51293 0.47469 0.21792 0.0
H2328 H 0.2539 0.81667 0.95458 0.0
H2329 H 0.28367 0.7482 0.96144 0.0
H2330 H 0.23923 0.81458 0.99214 0.0
H2331 H 0.26884 0.74623 0.99957 0.0
H2332 H 0.21476 0.74805 0.05988 0.0
H2333 H 0.2295 0.74618 0.0217 0.0
H2334 H 0.25907 0.81455 0.02917 0.0
H2335 H 0.24454 0.81656 0.0668 0.0
C2336 C 0.25719 0.80104 0.96399 0.0
C2337 C 0.27005 0.78262 0.95487 0.0
C2338 C 0.24887 0.79993 0.98565 0.0
C2339 C 0.25302 0.78032 0.99888 0.0
C2340 C 0.26532 0.76154 0.98972 0.0
C2341 C 0.2739 0.76274 0.96795 0.0
C2342 C 0.22449 0.76262 0.05336 0.0
C2343 C 0.22834 0.7825 0.06645 0.0
C2344 C 0.23302 0.76148 0.03157 0.0
C2345 C 0.24527 0.7803 0.0224 0.0
C2346 C 0.24944 0.79989 0.03565 0.0
C2347 C 0.24117 0.80096 0.05733 0.0
H2348 H 0.93364 0.50752 0.70559 0.0
H2349 H 0.00277 0.53569 0.71245 0.0
H2350 H 0.93537 0.49286 0.74322 0.0
H2351 H 0.00439 0.52082 0.75057 0.0
H2352 H 0.00198 0.46619 0.8101 0.0
H2353 H 0.00373 0.48137 0.77212 0.0
H2354 H 0.93605 0.51212 0.78058 0.0
H2355 H 0.93419 0.49713 0.81811 0.0
C2356 C 0.9493 0.5105 0.71505 0.0
C2357 C 0.96805 0.52288 0.70591 0.0
C2358 C 0.95021 0.50218 0.73673 0.0
C2359 C 0.96994 0.50583 0.74991 0.0
C2360 C 0.98899 0.5177 0.74074 0.0
C2361 C 0.98799 0.52631 0.71898 0.0
C2362 C 0.98753 0.47627 0.80385 0.0
C2363 C 0.9679 0.48033 0.81719 0.0
C2364 C 0.98861 0.48506 0.78217 0.0
C2365 C 0.96996 0.49779 0.77334 0.0
C2366 C 0.95059 0.50214 0.78681 0.0
C2367 C 0.9496 0.49362 0.80842 0.0
H2368 H 0.23658 0.40749 0.11502 0.0
H2369 H 0.19324 0.36034 0.152 0.0
H2370 H 0.20501 0.4355 0.11343 0.0
H2371 H 0.16151 0.38882 0.15114 0.0
H2372 H 0.10544 0.44323 0.12814 0.0
H2373 H 0.13357 0.41119 0.12798 0.0
H2374 H 0.18864 0.46011 0.14159 0.0
H2375 H 0.16077 0.49177 0.14122 0.0
C2376 C 0.22009 0.4031 0.12257 0.0
C2377 C 0.21716 0.38193 0.1336 0.0
C2378 C 0.2021 0.41915 0.12186 0.0
C2379 C 0.18097 0.41457 0.13262 0.0
C2380 C 0.1776 0.3928 0.14269 0.0
C2381 C 0.19565 0.37652 0.14316 0.0
C2382 C 0.12353 0.44689 0.13151 0.0
C2383 C 0.13107 0.4698 0.13481 0.0
C2384 C 0.13959 0.42865 0.13133 0.0
C2385 C 0.16335 0.43321 0.13438 0.0
C2386 C 0.17056 0.4561 0.13858 0.0
C2387 C 0.15462 0.4742 0.13858 0.0
H2388 H 0.84354 0.98245 0.40992 0.0
H2389 H 0.89673 0.94244 0.37687 0.0
H2390 H 0.81723 0.94944 0.40757 0.0
H2391 H 0.86974 0.90988 0.37341 0.0
H2392 H 0.79651 0.87872 0.34694 0.0
H2393 H 0.82839 0.90637 0.35197 0.0
H2394 H 0.81659 0.9058 0.42257 0.0
H2395 H 0.78493 0.87792 0.41758 0.0
C2396 C 0.84959 0.96669 0.40203 0.0
C2397 C 0.87198 0.96539 0.39289 0.0
C2398 C 0.83455 0.9478 0.40078 0.0
C2399 C 0.84152 0.92728 0.39023 0.0
C2400 C 0.86397 0.9257 0.38139 0.0
C2401 C 0.87924 0.94449 0.38304 0.0
C2402 C 0.80113 0.88416 0.36355 0.0
C2403 C 0.78851 0.87615 0.3819 0.0
C2404 C 0.81935 0.89983 0.36642 0.0
C2405 C 0.82481 0.90811 0.38763 0.0
C2406 C 0.81264 0.89957 0.40607 0.0
C2407 C 0.79471 0.88355 0.40323 0.0
H2408 H 0.29598 0.62299 0.67346 0.0
H2409 H 0.28579 0.62469 0.60264 0.0
H2410 H 0.32787 0.59533 0.66867 0.0
H2411 H 0.3175 0.59687 0.59788 0.0
H2412 H 0.34386 0.52014 0.60966 0.0
H2413 H 0.31771 0.55323 0.61205 0.0
H2414 H 0.36952 0.59172 0.64825 0.0
H2415 H 0.39638 0.55906 0.64482 0.0
C2416 C 0.3009 0.61775 0.65687 0.0
C2417 C 0.28867 0.62601 0.63839 0.0
C2418 C 0.31914 0.60208 0.65415 0.0
C2419 C 0.325 0.59408 0.63293 0.0
C2420 C 0.31323 0.60288 0.61439 0.0
C2421 C 0.29527 0.61887 0.61709 0.0
C2422 C 0.34981 0.53568 0.61802 0.0
C2423 C 0.37195 0.53665 0.62771 0.0
C2424 C 0.33485 0.55462 0.61929 0.0
C2425 C 0.34166 0.57487 0.6304 0.0
C2426 C 0.36387 0.57611 0.63982 0.0
C2427 C 0.37906 0.55727 0.63818 0.0
H2428 H 0.66012 0.0098 0.87046 0.0
H2429 H 0.60937 0.05713 0.8972 0.0
H2430 H 0.6882 0.04122 0.86791 0.0
H2431 H 0.63782 0.0888 0.89541 0.0
H2432 H 0.69257 0.14267 0.86964 0.0
H2433 H 0.6613 0.11376 0.87129 0.0
H2434 H 0.71056 0.06243 0.89411 0.0
H2435 H 0.74153 0.091 0.8917 0.0
C2436 C 0.65501 0.02707 0.87565 0.0
C2437 C 0.63271 0.03121 0.88391 0.0
C2438 C 0.6711 0.04502 0.87441 0.0
C2439 C 0.66539 0.06743 0.88187 0.0
C2440 C 0.64271 0.07176 0.88944 0.0
C2441 C 0.62644 0.05372 0.89043 0.0
C2442 C 0.69644 0.12526 0.87534 0.0
C2443 C 0.71928 0.1189 0.8806 0.0
C2444 C 0.67864 0.10874 0.87625 0.0
C2445 C 0.68353 0.0857 0.88247 0.0
C2446 C 0.7063 0.07983 0.88865 0.0
C2447 C 0.72401 0.09619 0.88748 0.0
H2448 H 0.11945 0.55094 0.42419 0.0
H2449 H 0.13219 0.53384 0.35576 0.0
H2450 H 0.14514 0.58445 0.42111 0.0
H2451 H 0.15916 0.56618 0.35281 0.0
H2452 H 0.20071 0.63059 0.3482 0.0
H2453 H 0.1669 0.60531 0.35124 0.0
H2454 H 0.18433 0.59179 0.41982 0.0
H2455 H 0.21699 0.61839 0.4169 0.0
C2456 C 0.12776 0.55454 0.40846 0.0
C2457 C 0.12393 0.54007 0.39018 0.0
C2458 C 0.14263 0.57356 0.40669 0.0
C2459 C 0.15455 0.57801 0.38678 0.0
C2460 C 0.15006 0.56372 0.36831 0.0
C2461 C 0.13471 0.54507 0.36996 0.0
C2462 C 0.19687 0.62248 0.36398 0.0
C2463 C 0.2112 0.62634 0.38234 0.0
C2464 C 0.17767 0.60784 0.36572 0.0
C2465 C 0.17291 0.59617 0.38571 0.0
C2466 C 0.18705 0.60071 0.40426 0.0
C2467 C 0.20588 0.61584 0.40262 0.0
H2468 H 0.63278 0.96782 0.66683 0.0
H2469 H 0.61961 0.9502 0.5986 0.0
H2470 H 0.65904 0.93493 0.67011 0.0
H2471 H 0.64457 0.91619 0.60202 0.0
H2472 H 0.71573 0.88098 0.60651 0.0
H2473 H 0.68366 0.90819 0.60338 0.0
H2474 H 0.66589 0.8956 0.67204 0.0
H2475 H 0.69914 0.8696 0.67528 0.0
C2476 C 0.63505 0.95638 0.65275 0.0
C2477 C 0.62437 0.96137 0.63248 0.0
C2478 C 0.64998 0.93742 0.65459 0.0
C2479 C 0.65415 0.92283 0.63627 0.0
C2480 C 0.64232 0.9273 0.61632 0.0
C2481 C 0.62787 0.94662 0.61436 0.0
C2482 C 0.70467 0.88384 0.62076 0.0
C2483 C 0.70973 0.87335 0.6411 0.0
C2484 C 0.68616 0.89934 0.619 0.0
C2485 C 0.6721 0.90431 0.63751 0.0
C2486 C 0.67661 0.89271 0.65758 0.0
C2487 C 0.69548 0.87766 0.65944 0.0
H2488 H 0.37217 0.4561 0.92424 0.0
H2489 H 0.37287 0.46635 0.8534 0.0
H2490 H 0.34438 0.42424 0.91981 0.0
H2491 H 0.34489 0.43469 0.84901 0.0
H2492 H 0.2683 0.40848 0.86201 0.0
H2493 H 0.30136 0.43471 0.86415 0.0
H2494 H 0.34062 0.38246 0.89901 0.0
H2495 H 0.308 0.35553 0.89579 0.0
C2496 C 0.36667 0.4512 0.90773 0.0
C2497 C 0.37468 0.46343 0.88914 0.0
C2498 C 0.35093 0.43299 0.9052 0.0
C2499 C 0.34261 0.42716 0.88409 0.0
C2500 C 0.35116 0.43894 0.86544 0.0
C2501 C 0.36722 0.45687 0.86793 0.0
C2502 C 0.284 0.40247 0.87003 0.0
C2503 C 0.28521 0.38016 0.87939 0.0
C2504 C 0.30291 0.41746 0.87116 0.0
C2505 C 0.32337 0.41052 0.8818 0.0
C2506 C 0.32484 0.38819 0.89094 0.0
C2507 C 0.30602 0.37296 0.88943 0.0
H2508 H 0.89446 0.05982 0.12272 0.0
H2509 H 0.8432 0.01641 0.15429 0.0
H2510 H 0.86909 0.09376 0.12772 0.0
H2511 H 0.818 0.04998 0.15933 0.0
H2512 H 0.7843 0.11517 0.18059 0.0
H2513 H 0.81682 0.08813 0.18 0.0
H2514 H 0.82897 0.10428 0.11114 0.0
H2515 H 0.79621 0.13113 0.11159 0.0
C2516 C 0.878 0.05772 0.13114 0.0
C2517 C 0.87073 0.03574 0.13837 0.0
C2518 C 0.86349 0.07699 0.13384 0.0
C2519 C 0.84173 0.07447 0.14407 0.0
C2520 C 0.83485 0.0525 0.15173 0.0
C2521 C 0.84914 0.03329 0.14874 0.0
C2522 C 0.79418 0.11326 0.16543 0.0
C2523 C 0.78774 0.12528 0.14615 0.0
C2524 C 0.81278 0.09784 0.16512 0.0
C2525 C 0.82525 0.09406 0.1455 0.0
C2526 C 0.81977 0.10712 0.12655 0.0
C2527 C 0.80106 0.12256 0.12684 0.0
H2528 H 0.8702 0.53357 0.85955 0.0
H2529 H 0.87986 0.55018 0.92855 0.0
H2530 H 0.84337 0.56584 0.8557 0.0
H2531 H 0.85427 0.58369 0.92462 0.0
H2532 H 0.78298 0.61827 0.91739 0.0
H2533 H 0.81531 0.59148 0.92168 0.0
H2534 H 0.83597 0.60492 0.85389 0.0
H2535 H 0.80243 0.63031 0.84942 0.0
C2536 C 0.86703 0.54467 0.87372 0.0
C2537 C 0.87694 0.53957 0.89431 0.0
C2538 C 0.85176 0.5633 0.87155 0.0
C2539 C 0.84647 0.5775 0.88988 0.0
C2540 C 0.85742 0.57289 0.91026 0.0
C2541 C 0.87223 0.55386 0.91253 0.0
C2542 C 0.79471 0.61562 0.90359 0.0
C2543 C 0.79038 0.62611 0.88309 0.0
C2544 C 0.81336 0.6004 0.90602 0.0
C2545 C 0.82831 0.59578 0.88807 0.0
C2546 C 0.82454 0.60748 0.8679 0.0
C2547 C 0.80551 0.62219 0.86535 0.0
H2548 H 0.15926 0.00897 0.64524 0.0
H2549 H 0.10763 0.05912 0.62571 0.0
H2550 H 0.18812 0.03963 0.6481 0.0
H2551 H 0.13683 0.09009 0.62768 0.0
H2552 H 0.1941 0.14104 0.65314 0.0
H2553 H 0.16232 0.11273 0.65153 0.0
H2554 H 0.20914 0.06256 0.62248 0.0
H2555 H 0.2407 0.09048 0.62495 0.0
C2556 C 0.15415 0.02669 0.64167 0.0
C2557 C 0.13138 0.03185 0.63536 0.0
C2558 C 0.17068 0.04422 0.64308 0.0
C2559 C 0.1649 0.06725 0.63768 0.0
C2560 C 0.1418 0.07254 0.63204 0.0
C2561 C 0.12511 0.05492 0.63093 0.0
C2562 C 0.19731 0.12403 0.64612 0.0
C2563 C 0.21964 0.11777 0.63912 0.0
C2564 C 0.17921 0.10785 0.64522 0.0
C2565 C 0.18329 0.08526 0.63723 0.0
C2566 C 0.20553 0.07956 0.62934 0.0
C2567 C 0.22356 0.09556 0.63052 0.0
H2568 H 0.63412 0.46926 0.35508 0.0
H2569 H 0.62381 0.45191 0.42382 0.0
H2570 H 0.66077 0.43681 0.35107 0.0
H2571 H 0.64901 0.41817 0.41969 0.0
H2572 H 0.71956 0.3826 0.41314 0.0
H2573 H 0.68774 0.40995 0.41716 0.0
H2574 H 0.66822 0.39785 0.34883 0.0
H2575 H 0.70135 0.37186 0.34467 0.0
C2576 C 0.63715 0.45798 0.36915 0.0
C2577 C 0.62718 0.46294 0.38974 0.0
C2578 C 0.65228 0.43923 0.36689 0.0
C2579 C 0.65728 0.42476 0.3851 0.0
C2580 C 0.64615 0.4292 0.40544 0.0
C2581 C 0.63156 0.44836 0.40782 0.0
C2582 C 0.7082 0.38567 0.39914 0.0
C2583 C 0.71274 0.37534 0.37862 0.0
C2584 C 0.68982 0.40122 0.40141 0.0
C2585 C 0.6753 0.40634 0.38328 0.0
C2586 C 0.67931 0.3949 0.36301 0.0
C2587 C 0.69811 0.37985 0.36062 0.0
H2588 H 0.36988 0.97045 0.167 0.0
H2589 H 0.37381 0.95265 0.09764 0.0
H2590 H 0.34134 0.93951 0.17276 0.0
H2591 H 0.34557 0.92137 0.10353 0.0
H2592 H 0.30868 0.85498 0.13447 0.0
H2593 H 0.3414 0.88156 0.13082 0.0
H2594 H 0.2982 0.93827 0.1525 0.0
H2595 H 0.265 0.91226 0.15471 0.0
C2596 C 0.36511 0.95948 0.15317 0.0
C2597 C 0.37404 0.96368 0.13192 0.0
C2598 C 0.34876 0.94195 0.15643 0.0
C2599 C 0.34149 0.92817 0.13857 0.0
C2600 C 0.35119 0.9317 0.11753 0.0
C2601 C 0.36716 0.94956 0.11417 0.0
C2602 C 0.30583 0.87317 0.13776 0.0
C2603 C 0.28386 0.8816 0.144 0.0
C2604 C 0.32473 0.88827 0.13606 0.0
C2605 C 0.32213 0.91181 0.14134 0.0
C2606 C 0.30054 0.92009 0.14846 0.0
C2607 C 0.28158 0.90517 0.14966 0.0
H2608 H 0.76567 0.41252 0.65737 0.0
H2609 H 0.8077 0.35713 0.6304 0.0
H2610 H 0.79883 0.4387 0.65525 0.0
H2611 H 0.84038 0.38392 0.62699 0.0
H2612 H 0.87185 0.45632 0.5972 0.0
H2613 H 0.84371 0.42489 0.60263 0.0
H2614 H 0.84262 0.43918 0.67279 0.0
H2615 H 0.87106 0.4703 0.66745 0.0
C2616 C 0.7819 0.40594 0.65086 0.0
C2617 C 0.78375 0.38295 0.64326 0.0
C2618 C 0.80084 0.42091 0.64973 0.0
C2619 C 0.82193 0.41324 0.64081 0.0
C2620 C 0.82409 0.3902 0.63365 0.0
C2621 C 0.80525 0.37503 0.63523 0.0
C2622 C 0.86591 0.45236 0.61381 0.0
C2623 C 0.87364 0.46546 0.63195 0.0
C2624 C 0.84998 0.43441 0.6169 0.0
C2625 C 0.84118 0.42977 0.6381 0.0
C2626 C 0.84932 0.4425 0.65632 0.0
C2627 C 0.86562 0.46012 0.65329 0.0
H2628 H 0.27974 0.11769 0.41206 0.0
H2629 H 0.30216 0.13099 0.34514 0.0
H2630 H 0.31083 0.08959 0.41667 0.0
H2631 H 0.33449 0.10414 0.35 0.0
H2632 H 0.36811 0.03252 0.35551 0.0
H2633 H 0.34145 0.06494 0.35132 0.0
H2634 H 0.34944 0.0811 0.42097 0.0
H2635 H 0.37477 0.04747 0.42517 0.0
C2636 C 0.29184 0.11501 0.39857 0.0
C2637 C 0.28874 0.12637 0.37829 0.0
C2638 C 0.30979 0.099 0.40119 0.0
C2639 C 0.3253 0.09439 0.38368 0.0
C2640 C 0.32264 0.10672 0.36368 0.0
C2641 C 0.30429 0.12227 0.36091 0.0
C2642 C 0.36428 0.04325 0.36979 0.0
C2643 C 0.37333 0.03766 0.39064 0.0
C2644 C 0.34912 0.06196 0.36743 0.0
C2645 C 0.34309 0.07577 0.38583 0.0
C2646 C 0.35313 0.07061 0.40652 0.0
C2647 C 0.3678 0.0515 0.40895 0.0
H2648 H 0.7154 0.62 0.10386 0.0
H2649 H 0.69725 0.63107 0.1723 0.0
H2650 H 0.6831 0.59315 0.09983 0.0
H2651 H 0.66374 0.60556 0.16814 0.0
H2652 H 0.6303 0.53379 0.16221 0.0
H2653 H 0.65676 0.56638 0.16598 0.0
H2654 H 0.64408 0.58517 0.09757 0.0
H2655 H 0.61887 0.55136 0.09367 0.0
C2656 C 0.70394 0.61715 0.11783 0.0
C2657 C 0.70865 0.62738 0.13837 0.0
C2658 C 0.68531 0.60188 0.11556 0.0
C2659 C 0.67076 0.59694 0.13372 0.0
C2660 C 0.67487 0.60839 0.15395 0.0
C2661 C 0.69388 0.62316 0.15634 0.0
C2662 C 0.633 0.54516 0.14814 0.0
C2663 C 0.62272 0.54024 0.12767 0.0
C2664 C 0.64805 0.56397 0.15027 0.0
C2665 C 0.65274 0.57852 0.13204 0.0
C2666 C 0.64139 0.5741 0.11183 0.0
C2667 C 0.62681 0.55489 0.10958 0.0
H2668 H 0.1288 0.96779 0.85013 0.0
H2669 H 0.12759 0.95242 0.9201 0.0
H2670 H 0.15657 0.93619 0.84426 0.0
H2671 H 0.15514 0.92065 0.9142 0.0
H2672 H 0.1912 0.85349 0.88829 0.0
H2673 H 0.15878 0.88064 0.8916 0.0
H2674 H 0.19953 0.93369 0.85944 0.0
H2675 H 0.23234 0.9071 0.85717 0.0
C2676 C 0.13401 0.95723 0.86411 0.0
C2677 C 0.12603 0.96229 0.88553 0.0
C2678 C 0.14996 0.93933 0.86079 0.0
C2679 C 0.15786 0.92608 0.87879 0.0
C2680 C 0.14909 0.93051 0.90005 0.0
C2681 C 0.13348 0.94869 0.90343 0.0
C2682 C 0.19348 0.8711 0.88246 0.0
C2683 C 0.21467 0.87845 0.8733 0.0
C2684 C 0.1748 0.88647 0.88405 0.0
C2685 C 0.1768 0.90917 0.87583 0.0
C2686 C 0.19757 0.91619 0.86577 0.0
C2687 C 0.21634 0.901 0.86456 0.0
loop_
_geom_bond_atom_site_label_1
_geom_bond_atom_site_label_2
_geom_bond_distance
_geom_bond_site_symmetry_2
_ccdc_geom_bond_type
Co0 O3 1.970 . S
Co0 N17 1.989 . S
Co0 O25 1.967 . S
Co0 O32 1.920 . S
Co1 O4 1.966 . S
Co1 N10 2.022 . S
Co1 N18 1.993 . S
Co1 O26 1.941 . S
C2 O3 1.258 . S
C2 O4 1.263 . S
O3 Co0 1.970 . S
O3 C2 1.258 . S
O4 Co1 1.966 . S
O4 C2 1.263 . S
C5 O6 1.235 . S
C5 O32 1.289 . S
O6 C5 1.235 . S
C7 C9 1.400 . S
C7 N10 1.351 . S
C7 C12 1.501 . S
C8 C9 1.387 . S
C8 N11 1.341 . S
C9 C7 1.400 . S
C9 C8 1.387 . S
N10 Co1 2.022 . S
N10 C7 1.351 . S
N10 N11 1.365 . S
N11 C8 1.341 . S
N11 N10 1.365 . S
N11 H31 0.862 . S
C12 C7 1.501 . S
C12 H13 0.961 . S
C12 H14 0.961 . S
C12 H15 0.960 . S
H13 C12 0.961 . S
H14 C12 0.961 . S
H15 C12 0.960 . S
C16 N17 1.342 . S
C16 C20 1.401 . S
C16 C21 1.499 . S
N17 Co0 1.989 . S
N17 C16 1.342 . S
N17 N18 1.388 . S
N18 Co1 1.993 . S
N18 N17 1.388 . S
N18 C19 1.346 . S
C19 N18 1.346 . S
C19 C20 1.396 . S
C19 C29 1.510 . S
C20 C16 1.401 . S
C20 C19 1.396 . S
C21 C16 1.499 . S
C21 H22 0.959 . S
C21 H23 0.960 . S
C21 H24 0.961 . S
H22 C21 0.959 . S
H23 C21 0.960 . S
H24 C21 0.961 . S
O25 Co0 1.967 . S
O25 C33 1.258 . S
O26 Co1 1.941 . S
O26 C33 1.266 . S
H27 C29 0.959 . S
H28 C29 0.961 . S
C29 C19 1.510 . S
C29 H27 0.959 . S
C29 H28 0.961 . S
C29 H30 0.960 . S
H30 C29 0.960 . S
H31 N11 0.862 . S
O32 Co0 1.920 . S
O32 C5 1.289 . S
C33 O25 1.258 . S
C33 O26 1.266 . S
Co34 O37 1.970 . S
Co34 N51 1.989 . S
Co34 O59 1.967 . S
Co34 O66 1.920 1_655 S
Co35 O38 1.966 . S
Co35 N44 2.022 . S
Co35 N52 1.993 . S
Co35 O60 1.941 . S
C36 O37 1.258 . S
C36 O38 1.263 . S
O37 Co34 1.970 . S
O37 C36 1.258 . S
O38 Co35 1.966 . S
O38 C36 1.263 . S
C39 O40 1.235 . S
C39 O66 1.289 . S
O40 C39 1.235 . S
C41 C43 1.400 . S
C41 N44 1.351 1_565 S
C41 C46 1.501 . S
C42 C43 1.387 . S
C42 N45 1.341 1_565 S
C43 C41 1.400 . S
C43 C42 1.387 . S
N44 Co35 2.022 . S
N44 C41 1.351 1_545 S
N44 N45 1.365 . S
N45 C42 1.341 1_545 S
N45 N44 1.365 . S
N45 H65 0.862 . S
C46 C41 1.501 . S
C46 H47 0.961 . S
C46 H48 0.961 . S
C46 H49 0.960 . S
H47 C46 0.961 . S
H48 C46 0.961 . S
H49 C46 0.960 . S
C50 N51 1.342 . S
C50 C54 1.401 . S
C50 C55 1.499 1_655 S
N51 Co34 1.989 . S
N51 C50 1.342 . S
N51 N52 1.388 . S
N52 Co35 1.993 . S
N52 N51 1.388 . S
N52 C53 1.346 . S
C53 N52 1.346 . S
C53 C54 1.396 . S
C53 C63 1.510 1_545 S
C54 C50 1.401 . S
C54 C53 1.396 . S
C55 C50 1.499 1_455 S
C55 H56 0.959 . S
C55 H57 0.960 . S
C55 H58 0.961 . S
H56 C55 0.959 . S
H57 C55 0.960 . S
H58 C55 0.961 . S
O59 Co34 1.967 . S
O59 C67 1.258 . S
O60 Co35 1.941 . S
O60 C67 1.266 . S
H61 C63 0.959 . S
H62 C63 0.961 . S
C63 C53 1.510 1_565 S
C63 H61 0.959 . S
C63 H62 0.961 . S
C63 H64 0.960 . S
H64 C63 0.960 . S
H65 N45 0.862 . S
O66 Co34 1.920 1_455 S
O66 C39 1.289 . S
C67 O59 1.258 . S
C67 O60 1.266 . S
Co68 O71 1.970 . S
Co68 N85 1.989 . S
Co68 O93 1.967 . S
Co68 O100 1.920 . S
Co69 O72 1.966 . S
Co69 N78 2.022 . S
Co69 N86 1.993 . S
Co69 O94 1.941 . S
C70 O71 1.258 . S
C70 O72 1.263 . S
O71 Co68 1.970 . S
O71 C70 1.258 . S
O72 Co69 1.966 . S
O72 C70 1.263 . S
C73 O74 1.235 . S
C73 O100 1.289 . S
O74 C73 1.235 . S
C75 C77 1.400 . S
C75 N78 1.351 . S
C75 C80 1.501 . S
C76 C77 1.387 . S
C76 N79 1.341 . S
C77 C75 1.400 . S
C77 C76 1.387 . S
N78 Co69 2.022 . S
N78 C75 1.351 . S
N78 N79 1.365 . S
N79 C76 1.341 . S
N79 N78 1.365 . S
N79 H99 0.862 . S
C80 C75 1.501 . S
C80 H81 0.961 . S
C80 H82 0.961 . S
C80 H83 0.960 . S
H81 C80 0.961 . S
H82 C80 0.961 . S
H83 C80 0.960 . S
C84 N85 1.342 . S
C84 C88 1.401 . S
C84 C89 1.499 . S
N85 Co68 1.989 . S
N85 C84 1.342 . S
N85 N86 1.388 . S
N86 Co69 1.993 . S
N86 N85 1.388 . S
N86 C87 1.346 . S
C87 N86 1.346 . S
C87 C88 1.396 . S
C87 C97 1.510 . S
C88 C84 1.401 . S
C88 C87 1.396 . S
C89 C84 1.499 . S
C89 H90 0.959 . S
C89 H91 0.960 . S
C89 H92 0.961 . S
H90 C89 0.959 . S
H91 C89 0.960 . S
H92 C89 0.961 . S
O93 Co68 1.967 . S
O93 C101 1.258 . S
O94 Co69 1.941 . S
O94 C101 1.266 . S
H95 C97 0.959 . S
H96 C97 0.961 . S
C97 C87 1.510 . S
C97 H95 0.959 . S
C97 H96 0.961 . S
C97 H98 0.960 . S
H98 C97 0.960 . S
H99 N79 0.862 . S
O100 Co68 1.920 . S
O100 C73 1.289 . S
C101 O93 1.258 . S
C101 O94 1.266 . S
Co102 O105 1.970 . S
Co102 N119 1.989 . S
Co102 O127 1.967 . S
Co102 O134 1.920 . S
Co103 O106 1.966 . S
Co103 N112 2.022 . S
Co103 N120 1.993 . S
Co103 O128 1.941 . S
C104 O105 1.258 . S
C104 O106 1.263 . S
O105 Co102 1.970 . S
O105 C104 1.258 . S
O106 Co103 1.966 . S
O106 C104 1.263 . S
C107 O108 1.235 . S
C107 O134 1.289 . S
O108 C107 1.235 . S
C109 C111 1.400 . S
C109 N112 1.351 1_545 S
C109 C114 1.501 . S
C110 C111 1.387 . S
C110 N113 1.341 1_545 S
C111 C109 1.400 . S
C111 C110 1.387 . S
N112 Co103 2.022 . S
N112 C109 1.351 1_565 S
N112 N113 1.365 . S
N113 C110 1.341 1_565 S
N113 N112 1.365 . S
N113 H133 0.862 . S
C114 C109 1.501 . S
C114 H115 0.961 . S
C114 H116 0.961 . S
C114 H117 0.960 . S
H115 C114 0.961 . S
H116 C114 0.961 . S
H117 C114 0.960 . S
C118 N119 1.342 . S
C118 C122 1.401 . S
C118 C123 1.499 . S
N119 Co102 1.989 . S
N119 C118 1.342 . S
N119 N120 1.388 . S
N120 Co103 1.993 . S
N120 N119 1.388 . S
N120 C121 1.346 . S
C121 N120 1.346 . S
C121 C122 1.396 . S
C121 C131 1.510 1_565 S
C122 C118 1.401 . S
C122 C121 1.396 . S
C123 C118 1.499 . S
C123 H124 0.959 . S
C123 H125 0.960 . S
C123 H126 0.961 . S
H124 C123 0.959 . S
H125 C123 0.960 . S
H126 C123 0.961 . S
O127 Co102 1.967 . S
O127 C135 1.258 . S
O128 Co103 1.941 . S
O128 C135 1.266 . S
H129 C131 0.959 . S
H130 C131 0.961 . S
C131 C121 1.510 1_545 S
C131 H129 0.959 . S
C131 H130 0.961 . S
C131 H132 0.960 . S
H132 C131 0.960 . S
H133 N113 0.862 . S
O134 Co102 1.920 . S
O134 C107 1.289 . S
C135 O127 1.258 . S
C135 O128 1.266 . S
Co136 O139 1.970 . S
Co136 N153 1.989 . S
Co136 O161 1.967 . S
Co136 O168 1.920 . S
Co137 O140 1.966 . S
Co137 N146 2.022 . S
Co137 N154 1.993 . S
Co137 O162 1.941 . S
C138 O139 1.258 . S
C138 O140 1.263 . S
O139 Co136 1.970 . S
O139 C138 1.258 . S
O140 Co137 1.966 . S
O140 C138 1.263 . S
C141 O142 1.235 . S
C141 O168 1.289 . S
O142 C141 1.235 . S
C143 C145 1.400 . S
C143 N146 1.351 . S
C143 C148 1.501 . S
C144 C145 1.387 . S
C144 N147 1.341 . S
C145 C143 1.400 . S
C145 C144 1.387 . S
N146 Co137 2.022 . S
N146 C143 1.351 . S
N146 N147 1.365 . S
N147 C144 1.341 . S
N147 N146 1.365 . S
N147 H167 0.862 . S
C148 C143 1.501 . S
C148 H149 0.961 . S
C148 H150 0.961 . S
C148 H151 0.960 . S
H149 C148 0.961 . S
H150 C148 0.961 . S
H151 C148 0.960 . S
C152 N153 1.342 . S
C152 C156 1.401 . S
C152 C157 1.499 . S
N153 Co136 1.989 . S
N153 C152 1.342 . S
N153 N154 1.388 . S
N154 Co137 1.993 . S
N154 N153 1.388 . S
N154 C155 1.346 . S
C155 N154 1.346 . S
C155 C156 1.396 . S
C155 C165 1.510 . S
C156 C152 1.401 . S
C156 C155 1.396 . S
C157 C152 1.499 . S
C157 H158 0.959 . S
C157 H159 0.960 . S
C157 H160 0.961 . S
H158 C157 0.959 . S
H159 C157 0.960 . S
H160 C157 0.961 . S
O161 Co136 1.967 . S
O161 C169 1.258 . S
O162 Co137 1.941 . S
O162 C169 1.266 . S
H163 C165 0.959 . S
H164 C165 0.961 . S
C165 C155 1.510 . S
C165 H163 0.959 . S
C165 H164 0.961 . S
C165 H166 0.960 . S
H166 C165 0.960 . S
H167 N147 0.862 . S
O168 Co136 1.920 . S
O168 C141 1.289 . S
C169 O161 1.258 . S
C169 O162 1.266 . S
Co170 O173 1.970 . S
Co170 N187 1.989 . S
Co170 O195 1.967 . S
Co170 O202 1.920 . S
Co171 O174 1.966 . S
Co171 N180 2.022 . S
Co171 N188 1.993 . S
Co171 O196 1.941 . S
C172 O173 1.258 . S
C172 O174 1.263 . S
O173 Co170 1.970 . S
O173 C172 1.258 . S
O174 Co171 1.966 . S
O174 C172 1.263 . S
C175 O176 1.235 . S
C175 O202 1.289 . S
O176 C175 1.235 . S
C177 C179 1.400 . S
C177 N180 1.351 1_565 S
C177 C182 1.501 . S
C178 C179 1.387 . S
C178 N181 1.341 1_565 S
C179 C177 1.400 . S
C179 C178 1.387 . S
N180 Co171 2.022 . S
N180 C177 1.351 1_545 S
N180 N181 1.365 . S
N181 C178 1.341 1_545 S
N181 N180 1.365 . S
N181 H201 0.862 . S
C182 C177 1.501 . S
C182 H183 0.961 . S
C182 H184 0.961 . S
C182 H185 0.960 . S
H183 C182 0.961 . S
H184 C182 0.961 . S
H185 C182 0.960 . S
C186 N187 1.342 . S
C186 C190 1.401 . S
C186 C191 1.499 . S
N187 Co170 1.989 . S
N187 C186 1.342 . S
N187 N188 1.388 . S
N188 Co171 1.993 . S
N188 N187 1.388 . S
N188 C189 1.346 . S
C189 N188 1.346 . S
C189 C190 1.396 . S
C189 C199 1.510 1_545 S
C190 C186 1.401 . S
C190 C189 1.396 . S
C191 C186 1.499 . S
C191 H192 0.959 . S
C191 H193 0.960 . S
C191 H194 0.961 . S
H192 C191 0.959 . S
H193 C191 0.960 . S
H194 C191 0.961 . S
O195 Co170 1.967 . S
O195 C203 1.258 . S
O196 Co171 1.941 . S
O196 C203 1.266 . S
H197 C199 0.959 . S
H198 C199 0.961 . S
C199 C189 1.510 1_565 S
C199 H197 0.959 . S
C199 H198 0.961 . S
C199 H200 0.960 . S
H200 C199 0.960 . S
H201 N181 0.862 . S
O202 Co170 1.920 . S
O202 C175 1.289 . S
C203 O195 1.258 . S
C203 O196 1.266 . S
Co204 O207 1.970 . S
Co204 N221 1.989 . S
Co204 O229 1.967 . S
Co204 O236 1.920 . S
Co205 O208 1.966 . S
Co205 N214 2.022 . S
Co205 N222 1.993 . S
Co205 O230 1.941 . S
C206 O207 1.258 . S
C206 O208 1.263 . S
O207 Co204 1.970 . S
O207 C206 1.258 . S
O208 Co205 1.966 . S
O208 C206 1.263 . S
C209 O210 1.235 . S
C209 O236 1.289 . S
O210 C209 1.235 . S
C211 C213 1.400 . S
C211 N214 1.351 . S
C211 C216 1.501 . S
C212 C213 1.387 . S
C212 N215 1.341 . S
C213 C211 1.400 . S
C213 C212 1.387 . S
N214 Co205 2.022 . S
N214 C211 1.351 . S
N214 N215 1.365 . S
N215 C212 1.341 . S
N215 N214 1.365 . S
N215 H235 0.862 . S
C216 C211 1.501 . S
C216 H217 0.961 . S
C216 H218 0.961 . S
C216 H219 0.960 . S
H217 C216 0.961 . S
H218 C216 0.961 . S
H219 C216 0.960 . S
C220 N221 1.342 . S
C220 C224 1.401 . S
C220 C225 1.499 . S
N221 Co204 1.989 . S
N221 C220 1.342 . S
N221 N222 1.388 . S
N222 Co205 1.993 . S
N222 N221 1.388 . S
N222 C223 1.346 . S
C223 N222 1.346 . S
C223 C224 1.396 . S
C223 C233 1.510 . S
C224 C220 1.401 . S
C224 C223 1.396 . S
C225 C220 1.499 . S
C225 H226 0.959 . S
C225 H227 0.960 . S
C225 H228 0.961 . S
H226 C225 0.959 . S
H227 C225 0.960 . S
H228 C225 0.961 . S
O229 Co204 1.967 . S
O229 C237 1.258 . S
O230 Co205 1.941 . S
O230 C237 1.266 . S
H231 C233 0.959 . S
H232 C233 0.961 . S
C233 C223 1.510 . S
C233 H231 0.959 . S
C233 H232 0.961 . S
C233 H234 0.960 . S
H234 C233 0.960 . S
H235 N215 0.862 . S
O236 Co204 1.920 . S
O236 C209 1.289 . S
C237 O229 1.258 . S
C237 O230 1.266 . S
Co238 O241 1.970 . S
Co238 N255 1.989 . S
Co238 O263 1.967 . S
Co238 O270 1.920 1_655 S
Co239 O242 1.966 . S
Co239 N248 2.022 . S
Co239 N256 1.993 . S
Co239 O264 1.941 . S
C240 O241 1.258 . S
C240 O242 1.263 . S
O241 Co238 1.970 . S
O241 C240 1.258 . S
O242 Co239 1.966 . S
O242 C240 1.263 . S
C243 O244 1.235 . S
C243 O270 1.289 . S
O244 C243 1.235 . S
C245 C247 1.400 . S
C245 N248 1.351 1_545 S
C245 C250 1.501 . S
C246 C247 1.387 . S
C246 N249 1.341 1_545 S
C247 C245 1.400 . S
C247 C246 1.387 . S
N248 Co239 2.022 . S
N248 C245 1.351 1_565 S
N248 N249 1.365 . S
N249 C246 1.341 1_565 S
N249 N248 1.365 . S
N249 H269 0.862 . S
C250 C245 1.501 . S
C250 H251 0.961 . S
C250 H252 0.961 . S
C250 H253 0.960 . S
H251 C250 0.961 . S
H252 C250 0.961 . S
H253 C250 0.960 . S
C254 N255 1.342 . S
C254 C258 1.401 . S
C254 C259 1.499 1_655 S
N255 Co238 1.989 . S
N255 C254 1.342 . S
N255 N256 1.388 . S
N256 Co239 1.993 . S
N256 N255 1.388 . S
N256 C257 1.346 . S
C257 N256 1.346 . S
C257 C258 1.396 . S
C257 C267 1.510 1_565 S
C258 C254 1.401 . S
C258 C257 1.396 . S
C259 C254 1.499 1_455 S
C259 H260 0.959 . S
C259 H261 0.960 . S
C259 H262 0.961 . S
H260 C259 0.959 . S
H261 C259 0.960 . S
H262 C259 0.961 . S
O263 Co238 1.967 . S
O263 C271 1.258 . S
O264 Co239 1.941 . S
O264 C271 1.266 . S
H265 C267 0.959 . S
H266 C267 0.961 . S
C267 C257 1.510 1_545 S
C267 H265 0.959 . S
C267 H266 0.961 . S
C267 H268 0.960 . S
H268 C267 0.960 . S
H269 N249 0.862 . S
O270 Co238 1.920 1_455 S
O270 C243 1.289 . S
C271 O263 1.258 . S
C271 O264 1.266 . S
Co272 O275 1.970 . S
Co272 N289 1.989 . S
Co272 O297 1.967 . S
Co272 O304 1.920 . S
Co273 O276 1.966 . S
Co273 N282 2.022 . S
Co273 N290 1.993 . S
Co273 O298 1.941 . S
C274 O275 1.258 . S
C274 O276 1.263 . S
O275 Co272 1.970 . S
O275 C274 1.258 . S
O276 Co273 1.966 . S
O276 C274 1.263 . S
C277 O278 1.235 . S
C277 O304 1.289 . S
O278 C277 1.235 . S
C279 C281 1.400 . S
C279 N282 1.351 . S
C279 C284 1.501 . S
C280 C281 1.387 . S
C280 N283 1.341 . S
C281 C279 1.400 . S
C281 C280 1.387 . S
N282 Co273 2.022 . S
N282 C279 1.351 . S
N282 N283 1.365 . S
N283 C280 1.341 . S
N283 N282 1.365 . S
N283 H303 0.862 . S
C284 C279 1.501 . S
C284 H285 0.961 . S
C284 H286 0.961 . S
C284 H287 0.960 . S
H285 C284 0.961 . S
H286 C284 0.961 . S
H287 C284 0.960 . S
C288 N289 1.342 . S
C288 C292 1.401 . S
C288 C293 1.499 . S
N289 Co272 1.989 . S
N289 C288 1.342 . S
N289 N290 1.388 . S
N290 Co273 1.993 . S
N290 N289 1.388 . S
N290 C291 1.346 . S
C291 N290 1.346 . S
C291 C292 1.396 . S
C291 C301 1.510 . S
C292 C288 1.401 . S
C292 C291 1.396 . S
C293 C288 1.499 . S
C293 H294 0.959 . S
C293 H295 0.960 . S
C293 H296 0.961 . S
H294 C293 0.959 . S
H295 C293 0.960 . S
H296 C293 0.961 . S
O297 Co272 1.967 . S
O297 C305 1.258 . S
O298 Co273 1.941 . S
O298 C305 1.266 . S
H299 C301 0.959 . S
H300 C301 0.961 . S
C301 C291 1.510 . S
C301 H299 0.959 . S
C301 H300 0.961 . S
C301 H302 0.960 . S
H302 C301 0.960 . S
H303 N283 0.862 . S
O304 Co272 1.920 . S
O304 C277 1.289 . S
C305 O297 1.258 . S
C305 O298 1.266 . S
Co306 O309 1.970 . S
Co306 N323 1.989 . S
Co306 O331 1.967 . S
Co306 O338 1.920 1_455 S
Co307 O310 1.966 . S
Co307 N316 2.022 . S
Co307 N324 1.993 . S
Co307 O332 1.941 . S
C308 O309 1.258 . S
C308 O310 1.263 . S
O309 Co306 1.970 . S
O309 C308 1.258 . S
O310 Co307 1.966 . S
O310 C308 1.263 . S
C311 O312 1.235 . S
C311 O338 1.289 . S
O312 C311 1.235 . S
C313 C315 1.400 . S
C313 N316 1.351 1_545 S
C313 C318 1.501 . S
C314 C315 1.387 . S
C314 N317 1.341 1_545 S
C315 C313 1.400 . S
C315 C314 1.387 . S
N316 Co307 2.022 . S
N316 C313 1.351 1_565 S
N316 N317 1.365 . S
N317 C314 1.341 1_565 S
N317 N316 1.365 . S
N317 H337 0.862 . S
C318 C313 1.501 . S
C318 H319 0.961 . S
C318 H320 0.961 . S
C318 H321 0.960 . S
H319 C318 0.961 . S
H320 C318 0.961 . S
H321 C318 0.960 . S
C322 N323 1.342 . S
C322 C326 1.401 . S
C322 C327 1.499 1_455 S
N323 Co306 1.989 . S
N323 C322 1.342 . S
N323 N324 1.388 . S
N324 Co307 1.993 . S
N324 N323 1.388 . S
N324 C325 1.346 . S
C325 N324 1.346 . S
C325 C326 1.396 . S
C325 C335 1.510 1_565 S
C326 C322 1.401 . S
C326 C325 1.396 . S
C327 C322 1.499 1_655 S
C327 H328 0.959 . S
C327 H329 0.960 . S
C327 H330 0.961 . S
H328 C327 0.959 . S
H329 C327 0.960 . S
H330 C327 0.961 . S
O331 Co306 1.967 . S
O331 C339 1.258 . S
O332 Co307 1.941 . S
O332 C339 1.266 . S
H333 C335 0.959 . S
H334 C335 0.961 . S
C335 C325 1.510 1_545 S
C335 H333 0.959 . S
C335 H334 0.961 . S
C335 H336 0.960 . S
H336 C335 0.960 . S
H337 N317 0.862 . S
O338 Co306 1.920 1_655 S
O338 C311 1.289 . S
C339 O331 1.258 . S
C339 O332 1.266 . S
Co340 O343 1.970 . S
Co340 N357 1.989 . S
Co340 O365 1.967 . S
Co340 O372 1.920 . S
Co341 O344 1.966 . S
Co341 N350 2.022 . S
Co341 N358 1.993 . S
Co341 O366 1.941 . S
C342 O343 1.258 . S
C342 O344 1.263 . S
O343 Co340 1.970 . S
O343 C342 1.258 . S
O344 Co341 1.966 . S
O344 C342 1.263 . S
C345 O346 1.235 . S
C345 O372 1.289 . S
O346 C345 1.235 . S
C347 C349 1.400 . S
C347 N350 1.351 . S
C347 C352 1.501 . S
C348 C349 1.387 . S
C348 N351 1.341 . S
C349 C347 1.400 . S
C349 C348 1.387 . S
N350 Co341 2.022 . S
N350 C347 1.351 . S
N350 N351 1.365 . S
N351 C348 1.341 . S
N351 N350 1.365 . S
N351 H371 0.862 . S
C352 C347 1.501 . S
C352 H353 0.961 . S
C352 H354 0.961 . S
C352 H355 0.960 . S
H353 C352 0.961 . S
H354 C352 0.961 . S
H355 C352 0.960 . S
C356 N357 1.342 . S
C356 C360 1.401 . S
C356 C361 1.499 . S
N357 Co340 1.989 . S
N357 C356 1.342 . S
N357 N358 1.388 . S
N358 Co341 1.993 . S
N358 N357 1.388 . S
N358 C359 1.346 . S
C359 N358 1.346 . S
C359 C360 1.396 . S
C359 C369 1.510 . S
C360 C356 1.401 . S
C360 C359 1.396 . S
C361 C356 1.499 . S
C361 H362 0.959 . S
C361 H363 0.960 . S
C361 H364 0.961 . S
H362 C361 0.959 . S
H363 C361 0.960 . S
H364 C361 0.961 . S
O365 Co340 1.967 . S
O365 C373 1.258 . S
O366 Co341 1.941 . S
O366 C373 1.266 . S
H367 C369 0.959 . S
H368 C369 0.961 . S
C369 C359 1.510 . S
C369 H367 0.959 . S
C369 H368 0.961 . S
C369 H370 0.960 . S
H370 C369 0.960 . S
H371 N351 0.862 . S
O372 Co340 1.920 . S
O372 C345 1.289 . S
C373 O365 1.258 . S
C373 O366 1.266 . S
Co374 O377 1.970 . S
Co374 N391 1.989 . S
Co374 O399 1.967 . S
Co374 O406 1.920 . S
Co375 O378 1.966 . S
Co375 N384 2.022 . S
Co375 N392 1.993 . S
Co375 O400 1.941 . S
C376 O377 1.258 . S
C376 O378 1.263 . S
O377 Co374 1.970 . S
O377 C376 1.258 . S
O378 Co375 1.966 . S
O378 C376 1.263 . S
C379 O380 1.235 . S
C379 O406 1.289 . S
O380 C379 1.235 . S
C381 C383 1.400 . S
C381 N384 1.351 1_565 S
C381 C386 1.501 . S
C382 C383 1.387 . S
C382 N385 1.341 1_565 S
C383 C381 1.400 . S
C383 C382 1.387 . S
N384 Co375 2.022 . S
N384 C381 1.351 1_545 S
N384 N385 1.365 . S
N385 C382 1.341 1_545 S
N385 N384 1.365 . S
N385 H405 0.862 . S
C386 C381 1.501 . S
C386 H387 0.961 . S
C386 H388 0.961 . S
C386 H389 0.960 . S
H387 C386 0.961 . S
H388 C386 0.961 . S
H389 C386 0.960 . S
C390 N391 1.342 . S
C390 C394 1.401 . S
C390 C395 1.499 . S
N391 Co374 1.989 . S
N391 C390 1.342 . S
N391 N392 1.388 . S
N392 Co375 1.993 . S
N392 N391 1.388 . S
N392 C393 1.346 . S
C393 N392 1.346 . S
C393 C394 1.396 . S
C393 C403 1.510 1_545 S
C394 C390 1.401 . S
C394 C393 1.396 . S
C395 C390 1.499 . S
C395 H396 0.959 . S
C395 H397 0.960 . S
C395 H398 0.961 . S
H396 C395 0.959 . S
H397 C395 0.960 . S
H398 C395 0.961 . S
O399 Co374 1.967 . S
O399 C407 1.258 . S
O400 Co375 1.941 . S
O400 C407 1.266 . S
H401 C403 0.959 . S
H402 C403 0.961 . S
C403 C393 1.510 1_565 S
C403 H401 0.959 . S
C403 H402 0.961 . S
C403 H404 0.960 . S
H404 C403 0.960 . S
H405 N385 0.862 . S
O406 Co374 1.920 . S
O406 C379 1.289 . S
C407 O399 1.258 . S
C407 O400 1.266 . S
Co408 O411 1.970 . S
Co408 N425 1.989 . S
Co408 O433 1.967 . S
Co408 O440 1.920 . S
Co409 O412 1.966 . S
Co409 N418 2.022 . S
Co409 N426 1.993 . S
Co409 O434 1.941 . S
C410 O411 1.258 . S
C410 O412 1.263 . S
O411 Co408 1.970 . S
O411 C410 1.258 . S
O412 Co409 1.966 . S
O412 C410 1.263 . S
C413 O414 1.235 . S
C413 O440 1.289 . S
O414 C413 1.235 . S
C415 C417 1.400 . S
C415 N418 1.351 . S
C415 C420 1.501 . S
C416 C417 1.387 . S
C416 N419 1.341 . S
C417 C415 1.400 . S
C417 C416 1.387 . S
N418 Co409 2.022 . S
N418 C415 1.351 . S
N418 N419 1.365 . S
N419 C416 1.341 . S
N419 N418 1.365 . S
N419 H439 0.862 . S
C420 C415 1.501 . S
C420 H421 0.961 . S
C420 H422 0.961 . S
C420 H423 0.960 . S
H421 C420 0.961 . S
H422 C420 0.961 . S
H423 C420 0.960 . S
C424 N425 1.342 . S
C424 C428 1.401 . S
C424 C429 1.499 . S
N425 Co408 1.989 . S
N425 C424 1.342 . S
N425 N426 1.388 . S
N426 Co409 1.993 . S
N426 N425 1.388 . S
N426 C427 1.346 . S
C427 N426 1.346 . S
C427 C428 1.396 . S
C427 C437 1.510 . S
C428 C424 1.401 . S
C428 C427 1.396 . S
C429 C424 1.499 . S
C429 H430 0.959 . S
C429 H431 0.960 . S
C429 H432 0.961 . S
H430 C429 0.959 . S
H431 C429 0.960 . S
H432 C429 0.961 . S
O433 Co408 1.967 . S
O433 C441 1.258 . S
O434 Co409 1.941 . S
O434 C441 1.266 . S
H435 C437 0.959 . S
H436 C437 0.961 . S
C437 C427 1.510 . S
C437 H435 0.959 . S
C437 H436 0.961 . S
C437 H438 0.960 . S
H438 C437 0.960 . S
H439 N419 0.862 . S
O440 Co408 1.920 . S
O440 C413 1.289 . S
C441 O433 1.258 . S
C441 O434 1.266 . S
Co442 O445 1.970 . S
Co442 N459 1.989 . S
Co442 O467 1.967 . S
Co442 O474 1.920 . S
Co443 O446 1.966 . S
Co443 N452 2.022 . S
Co443 N460 1.993 . S
Co443 O468 1.941 . S
C444 O445 1.258 . S
C444 O446 1.263 . S
O445 Co442 1.970 . S
O445 C444 1.258 . S
O446 Co443 1.966 . S
O446 C444 1.263 . S
C447 O448 1.235 . S
C447 O474 1.289 . S
O448 C447 1.235 . S
C449 C451 1.400 . S
C449 N452 1.351 1_545 S
C449 C454 1.501 . S
C450 C451 1.387 . S
C450 N453 1.341 1_545 S
C451 C449 1.400 . S
C451 C450 1.387 . S
N452 Co443 2.022 . S
N452 C449 1.351 1_565 S
N452 N453 1.365 . S
N453 C450 1.341 1_565 S
N453 N452 1.365 . S
N453 H473 0.862 . S
C454 C449 1.501 . S
C454 H455 0.961 . S
C454 H456 0.961 . S
C454 H457 0.960 . S
H455 C454 0.961 . S
H456 C454 0.961 . S
H457 C454 0.960 . S
C458 N459 1.342 . S
C458 C462 1.401 . S
C458 C463 1.499 . S
N459 Co442 1.989 . S
N459 C458 1.342 . S
N459 N460 1.388 . S
N460 Co443 1.993 . S
N460 N459 1.388 . S
N460 C461 1.346 . S
C461 N460 1.346 . S
C461 C462 1.396 . S
C461 C471 1.510 1_565 S
C462 C458 1.401 . S
C462 C461 1.396 . S
C463 C458 1.499 . S
C463 H464 0.959 . S
C463 H465 0.960 . S
C463 H466 0.961 . S
H464 C463 0.959 . S
H465 C463 0.960 . S
H466 C463 0.961 . S
O467 Co442 1.967 . S
O467 C475 1.258 . S
O468 Co443 1.941 . S
O468 C475 1.266 . S
H469 C471 0.959 . S
H470 C471 0.961 . S
C471 C461 1.510 1_545 S
C471 H469 0.959 . S
C471 H470 0.961 . S
C471 H472 0.960 . S
H472 C471 0.960 . S
H473 N453 0.862 . S
O474 Co442 1.920 . S
O474 C447 1.289 . S
C475 O467 1.258 . S
C475 O468 1.266 . S
Co476 O479 1.970 . S
Co476 N493 1.989 . S
Co476 O501 1.967 . S
Co476 O508 1.920 . S
Co477 O480 1.966 . S
Co477 N486 2.022 . S
Co477 N494 1.993 . S
Co477 O502 1.941 . S
C478 O479 1.258 . S
C478 O480 1.263 . S
O479 Co476 1.970 . S
O479 C478 1.258 . S
O480 Co477 1.966 . S
O480 C478 1.263 . S
C481 O482 1.235 . S
C481 O508 1.289 . S
O482 C481 1.235 . S
C483 C485 1.400 . S
C483 N486 1.351 . S
C483 C488 1.501 . S
C484 C485 1.387 . S
C484 N487 1.341 . S
C485 C483 1.400 . S
C485 C484 1.387 . S
N486 Co477 2.022 . S
N486 C483 1.351 . S
N486 N487 1.365 . S
N487 C484 1.341 . S
N487 N486 1.365 . S
N487 H507 0.862 . S
C488 C483 1.501 . S
C488 H489 0.961 . S
C488 H490 0.961 . S
C488 H491 0.960 . S
H489 C488 0.961 . S
H490 C488 0.961 . S
H491 C488 0.960 . S
C492 N493 1.342 . S
C492 C496 1.401 . S
C492 C497 1.499 . S
N493 Co476 1.989 . S
N493 C492 1.342 . S
N493 N494 1.388 . S
N494 Co477 1.993 . S
N494 N493 1.388 . S
N494 C495 1.346 . S
C495 N494 1.346 . S
C495 C496 1.396 . S
C495 C505 1.510 . S
C496 C492 1.401 . S
C496 C495 1.396 . S
C497 C492 1.499 . S
C497 H498 0.959 . S
C497 H499 0.960 . S
C497 H500 0.961 . S
H498 C497 0.959 . S
H499 C497 0.960 . S
H500 C497 0.961 . S
O501 Co476 1.967 . S
O501 C509 1.258 . S
O502 Co477 1.941 . S
O502 C509 1.266 . S
H503 C505 0.959 . S
H504 C505 0.961 . S
C505 C495 1.510 . S
C505 H503 0.959 . S
C505 H504 0.961 . S
C505 H506 0.960 . S
H506 C505 0.960 . S
H507 N487 0.862 . S
O508 Co476 1.920 . S
O508 C481 1.289 . S
C509 O501 1.258 . S
C509 O502 1.266 . S
Co510 O513 1.970 . S
Co510 N527 1.989 . S
Co510 O535 1.967 . S
Co510 O542 1.920 1_455 S
Co511 O514 1.966 . S
Co511 N520 2.022 . S
Co511 N528 1.993 . S
Co511 O536 1.941 . S
C512 O513 1.258 . S
C512 O514 1.263 . S
O513 Co510 1.970 . S
O513 C512 1.258 . S
O514 Co511 1.966 . S
O514 C512 1.263 . S
C515 O516 1.235 . S
C515 O542 1.289 . S
O516 C515 1.235 . S
C517 C519 1.400 . S
C517 N520 1.351 1_565 S
C517 C522 1.501 . S
C518 C519 1.387 . S
C518 N521 1.341 1_565 S
C519 C517 1.400 . S
C519 C518 1.387 . S
N520 Co511 2.022 . S
N520 C517 1.351 1_545 S
N520 N521 1.365 . S
N521 C518 1.341 1_545 S
N521 N520 1.365 . S
N521 H541 0.862 . S
C522 C517 1.501 . S
C522 H523 0.961 . S
C522 H524 0.961 . S
C522 H525 0.960 . S
H523 C522 0.961 . S
H524 C522 0.961 . S
H525 C522 0.960 . S
C526 N527 1.342 . S
C526 C530 1.401 . S
C526 C531 1.499 1_455 S
N527 Co510 1.989 . S
N527 C526 1.342 . S
N527 N528 1.388 . S
N528 Co511 1.993 . S
N528 N527 1.388 . S
N528 C529 1.346 . S
C529 N528 1.346 . S
C529 C530 1.396 . S
C529 C539 1.510 1_545 S
C530 C526 1.401 . S
C530 C529 1.396 . S
C531 C526 1.499 1_655 S
C531 H532 0.959 . S
C531 H533 0.960 . S
C531 H534 0.961 . S
H532 C531 0.959 . S
H533 C531 0.960 . S
H534 C531 0.961 . S
O535 Co510 1.967 . S
O535 C543 1.258 . S
O536 Co511 1.941 . S
O536 C543 1.266 . S
H537 C539 0.959 . S
H538 C539 0.961 . S
C539 C529 1.510 1_565 S
C539 H537 0.959 . S
C539 H538 0.961 . S
C539 H540 0.960 . S
H540 C539 0.960 . S
H541 N521 0.862 . S
O542 Co510 1.920 1_655 S
O542 C515 1.289 . S
C543 O535 1.258 . S
C543 O536 1.266 . S
Co544 O547 1.970 . S
Co544 N561 1.989 . S
Co544 O569 1.967 . S
Co544 O576 1.920 . S
Co545 O548 1.966 . S
Co545 N554 2.022 . S
Co545 N562 1.993 . S
Co545 O570 1.941 . S
C546 O547 1.258 . S
C546 O548 1.263 . S
O547 Co544 1.970 . S
O547 C546 1.258 . S
O548 Co545 1.966 . S
O548 C546 1.263 . S
C549 O550 1.235 . S
C549 O576 1.289 . S
O550 C549 1.235 . S
C551 C553 1.400 . S
C551 N554 1.351 . S
C551 C556 1.501 . S
C552 C553 1.387 . S
C552 N555 1.341 . S
C553 C551 1.400 . S
C553 C552 1.387 . S
N554 Co545 2.022 . S
N554 C551 1.351 . S
N554 N555 1.365 . S
N555 C552 1.341 . S
N555 N554 1.365 . S
N555 H575 0.862 . S
C556 C551 1.501 . S
C556 H557 0.961 . S
C556 H558 0.961 . S
C556 H559 0.960 . S
H557 C556 0.961 . S
H558 C556 0.961 . S
H559 C556 0.960 . S
C560 N561 1.342 . S
C560 C564 1.401 . S
C560 C565 1.499 . S
N561 Co544 1.989 . S
N561 C560 1.342 . S
N561 N562 1.388 . S
N562 Co545 1.993 . S
N562 N561 1.388 . S
N562 C563 1.346 . S
C563 N562 1.346 . S
C563 C564 1.396 . S
C563 C573 1.510 . S
C564 C560 1.401 . S
C564 C563 1.396 . S
C565 C560 1.499 . S
C565 H566 0.959 . S
C565 H567 0.960 . S
C565 H568 0.961 . S
H566 C565 0.959 . S
H567 C565 0.960 . S
H568 C565 0.961 . S
O569 Co544 1.967 . S
O569 C577 1.258 . S
O570 Co545 1.941 . S
O570 C577 1.266 . S
H571 C573 0.959 . S
H572 C573 0.961 . S
C573 C563 1.510 . S
C573 H571 0.959 . S
C573 H572 0.961 . S
C573 H574 0.960 . S
H574 C573 0.960 . S
H575 N555 0.862 . S
O576 Co544 1.920 . S
O576 C549 1.289 . S
C577 O569 1.258 . S
C577 O570 1.266 . S
Co578 O581 1.970 . S
Co578 N595 1.989 . S
Co578 O603 1.967 . S
Co578 O610 1.920 . S
Co579 O582 1.966 . S
Co579 N588 2.022 . S
Co579 N596 1.993 . S
Co579 O604 1.941 . S
C580 O581 1.258 . S
C580 O582 1.263 . S
O581 Co578 1.970 . S
O581 C580 1.258 . S
O582 Co579 1.966 . S
O582 C580 1.263 . S
C583 O584 1.235 . S
C583 O610 1.289 . S
O584 C583 1.235 . S
C585 C587 1.400 . S
C585 N588 1.351 . S
C585 C590 1.501 . S
C586 C587 1.387 . S
C586 N589 1.341 . S
C587 C585 1.400 . S
C587 C586 1.387 . S
N588 Co579 2.022 . S
N588 C585 1.351 . S
N588 N589 1.365 . S
N589 C586 1.341 . S
N589 N588 1.365 . S
N589 H609 0.862 . S
C590 C585 1.501 . S
C590 H591 0.961 . S
C590 H592 0.961 . S
C590 H593 0.960 . S
H591 C590 0.961 . S
H592 C590 0.961 . S
H593 C590 0.960 . S
C594 N595 1.342 . S
C594 C598 1.401 . S
C594 C599 1.499 . S
N595 Co578 1.989 . S
N595 C594 1.342 . S
N595 N596 1.388 . S
N596 Co579 1.993 . S
N596 N595 1.388 . S
N596 C597 1.346 . S
C597 N596 1.346 . S
C597 C598 1.396 . S
C597 C607 1.510 . S
C598 C594 1.401 . S
C598 C597 1.396 . S
C599 C594 1.499 . S
C599 H600 0.959 . S
C599 H601 0.960 . S
C599 H602 0.961 . S
H600 C599 0.959 . S
H601 C599 0.960 . S
H602 C599 0.961 . S
O603 Co578 1.967 . S
O603 C611 1.258 . S
O604 Co579 1.941 . S
O604 C611 1.266 . S
H605 C607 0.959 . S
H606 C607 0.961 . S
C607 C597 1.510 . S
C607 H605 0.959 . S
C607 H606 0.961 . S
C607 H608 0.960 . S
H608 C607 0.960 . S
H609 N589 0.862 . S
O610 Co578 1.920 . S
O610 C583 1.289 . S
C611 O603 1.258 . S
C611 O604 1.266 . S
Co612 O615 1.970 . S
Co612 N629 1.989 . S
Co612 O637 1.967 . S
Co612 O644 1.920 . S
Co613 O616 1.966 . S
Co613 N622 2.022 . S
Co613 N630 1.993 . S
Co613 O638 1.941 . S
C614 O615 1.258 . S
C614 O616 1.263 . S
O615 Co612 1.970 . S
O615 C614 1.258 . S
O616 Co613 1.966 . S
O616 C614 1.263 . S
C617 O618 1.235 . S
C617 O644 1.289 . S
O618 C617 1.235 . S
C619 C621 1.400 . S
C619 N622 1.351 . S
C619 C624 1.501 . S
C620 C621 1.387 . S
C620 N623 1.341 . S
C621 C619 1.400 . S
C621 C620 1.387 . S
N622 Co613 2.022 . S
N622 C619 1.351 . S
N622 N623 1.365 . S
N623 C620 1.341 . S
N623 N622 1.365 . S
N623 H643 0.862 . S
C624 C619 1.501 . S
C624 H625 0.961 . S
C624 H626 0.961 . S
C624 H627 0.960 . S
H625 C624 0.961 . S
H626 C624 0.961 . S
H627 C624 0.960 . S
C628 N629 1.342 . S
C628 C632 1.401 . S
C628 C633 1.499 . S
N629 Co612 1.989 . S
N629 C628 1.342 . S
N629 N630 1.388 . S
N630 Co613 1.993 . S
N630 N629 1.388 . S
N630 C631 1.346 . S
C631 N630 1.346 . S
C631 C632 1.396 . S
C631 C641 1.510 . S
C632 C628 1.401 . S
C632 C631 1.396 . S
C633 C628 1.499 . S
C633 H634 0.959 . S
C633 H635 0.960 . S
C633 H636 0.961 . S
H634 C633 0.959 . S
H635 C633 0.960 . S
H636 C633 0.961 . S
O637 Co612 1.967 . S
O637 C645 1.258 . S
O638 Co613 1.941 . S
O638 C645 1.266 . S
H639 C641 0.959 . S
H640 C641 0.961 . S
C641 C631 1.510 . S
C641 H639 0.959 . S
C641 H640 0.961 . S
C641 H642 0.960 . S
H642 C641 0.960 . S
H643 N623 0.862 . S
O644 Co612 1.920 . S
O644 C617 1.289 . S
C645 O637 1.258 . S
C645 O638 1.266 . S
Co646 O649 1.970 . S
Co646 N663 1.989 . S
Co646 O671 1.967 . S
Co646 O678 1.920 1_455 S
Co647 O650 1.966 . S
Co647 N656 2.022 . S
Co647 N664 1.993 . S
Co647 O672 1.941 . S
C648 O649 1.258 . S
C648 O650 1.263 . S
O649 Co646 1.970 . S
O649 C648 1.258 . S
O650 Co647 1.966 . S
O650 C648 1.263 . S
C651 O652 1.235 . S
C651 O678 1.289 . S
O652 C651 1.235 . S
C653 C655 1.400 . S
C653 N656 1.351 . S
C653 C658 1.501 . S
C654 C655 1.387 . S
C654 N657 1.341 . S
C655 C653 1.400 . S
C655 C654 1.387 . S
N656 Co647 2.022 . S
N656 C653 1.351 . S
N656 N657 1.365 . S
N657 C654 1.341 . S
N657 N656 1.365 . S
N657 H677 0.862 . S
C658 C653 1.501 . S
C658 H659 0.961 . S
C658 H660 0.961 . S
C658 H661 0.960 . S
H659 C658 0.961 . S
H660 C658 0.961 . S
H661 C658 0.960 . S
C662 N663 1.342 . S
C662 C666 1.401 . S
C662 C667 1.499 1_455 S
N663 Co646 1.989 . S
N663 C662 1.342 . S
N663 N664 1.388 . S
N664 Co647 1.993 . S
N664 N663 1.388 . S
N664 C665 1.346 . S
C665 N664 1.346 . S
C665 C666 1.396 . S
C665 C675 1.510 . S
C666 C662 1.401 . S
C666 C665 1.396 . S
C667 C662 1.499 1_655 S
C667 H668 0.959 . S
C667 H669 0.960 . S
C667 H670 0.961 . S
H668 C667 0.959 . S
H669 C667 0.960 . S
H670 C667 0.961 . S
O671 Co646 1.967 . S
O671 C679 1.258 . S
O672 Co647 1.941 . S
O672 C679 1.266 . S
H673 C675 0.959 . S
H674 C675 0.961 . S
C675 C665 1.510 . S
C675 H673 0.959 . S
C675 H674 0.961 . S
C675 H676 0.960 . S
H676 C675 0.960 . S
H677 N657 0.862 . S
O678 Co646 1.920 1_655 S
O678 C651 1.289 . S
C679 O671 1.258 . S
C679 O672 1.266 . S
Co680 O683 1.970 . S
Co680 N697 1.989 . S
Co680 O705 1.967 . S
Co680 O712 1.920 . S
Co681 O684 1.966 . S
Co681 N690 2.022 . S
Co681 N698 1.993 . S
Co681 O706 1.941 . S
C682 O683 1.258 . S
C682 O684 1.263 . S
O683 Co680 1.970 . S
O683 C682 1.258 . S
O684 Co681 1.966 . S
O684 C682 1.263 . S
C685 O686 1.235 . S
C685 O712 1.289 . S
O686 C685 1.235 . S
C687 C689 1.400 . S
C687 N690 1.351 . S
C687 C692 1.501 . S
C688 C689 1.387 . S
C688 N691 1.341 . S
C689 C687 1.400 . S
C689 C688 1.387 . S
N690 Co681 2.022 . S
N690 C687 1.351 . S
N690 N691 1.365 . S
N691 C688 1.341 . S
N691 N690 1.365 . S
N691 H711 0.862 . S
C692 C687 1.501 . S
C692 H693 0.961 . S
C692 H694 0.961 . S
C692 H695 0.960 . S
H693 C692 0.961 . S
H694 C692 0.961 . S
H695 C692 0.960 . S
C696 N697 1.342 . S
C696 C700 1.401 . S
C696 C701 1.499 . S
N697 Co680 1.989 . S
N697 C696 1.342 . S
N697 N698 1.388 . S
N698 Co681 1.993 . S
N698 N697 1.388 . S
N698 C699 1.346 . S
C699 N698 1.346 . S
C699 C700 1.396 . S
C699 C709 1.510 . S
C700 C696 1.401 . S
C700 C699 1.396 . S
C701 C696 1.499 . S
C701 H702 0.959 . S
C701 H703 0.960 . S
C701 H704 0.961 . S
H702 C701 0.959 . S
H703 C701 0.960 . S
H704 C701 0.961 . S
O705 Co680 1.967 . S
O705 C713 1.258 . S
O706 Co681 1.941 . S
O706 C713 1.266 . S
H707 C709 0.959 . S
H708 C709 0.961 . S
C709 C699 1.510 . S
C709 H707 0.959 . S
C709 H708 0.961 . S
C709 H710 0.960 . S
H710 C709 0.960 . S
H711 N691 0.862 . S
O712 Co680 1.920 . S
O712 C685 1.289 . S
C713 O705 1.258 . S
C713 O706 1.266 . S
Co714 O717 1.970 . S
Co714 N731 1.989 . S
Co714 O739 1.967 . S
Co714 O746 1.920 1_455 S
Co715 O718 1.966 . S
Co715 N724 2.022 . S
Co715 N732 1.993 . S
Co715 O740 1.941 . S
C716 O717 1.258 . S
C716 O718 1.263 . S
O717 Co714 1.970 . S
O717 C716 1.258 . S
O718 Co715 1.966 . S
O718 C716 1.263 . S
C719 O720 1.235 . S
C719 O746 1.289 . S
O720 C719 1.235 . S
C721 C723 1.400 . S
C721 N724 1.351 . S
C721 C726 1.501 . S
C722 C723 1.387 . S
C722 N725 1.341 . S
C723 C721 1.400 . S
C723 C722 1.387 . S
N724 Co715 2.022 . S
N724 C721 1.351 . S
N724 N725 1.365 . S
N725 C722 1.341 . S
N725 N724 1.365 . S
N725 H745 0.862 . S
C726 C721 1.501 . S
C726 H727 0.961 . S
C726 H728 0.961 . S
C726 H729 0.960 . S
H727 C726 0.961 . S
H728 C726 0.961 . S
H729 C726 0.960 . S
C730 N731 1.342 . S
C730 C734 1.401 . S
C730 C735 1.499 1_455 S
N731 Co714 1.989 . S
N731 C730 1.342 . S
N731 N732 1.388 . S
N732 Co715 1.993 . S
N732 N731 1.388 . S
N732 C733 1.346 . S
C733 N732 1.346 . S
C733 C734 1.396 . S
C733 C743 1.510 . S
C734 C730 1.401 . S
C734 C733 1.396 . S
C735 C730 1.499 1_655 S
C735 H736 0.959 . S
C735 H737 0.960 . S
C735 H738 0.961 . S
H736 C735 0.959 . S
H737 C735 0.960 . S
H738 C735 0.961 . S
O739 Co714 1.967 . S
O739 C747 1.258 . S
O740 Co715 1.941 . S
O740 C747 1.266 . S
H741 C743 0.959 . S
H742 C743 0.961 . S
C743 C733 1.510 . S
C743 H741 0.959 . S
C743 H742 0.961 . S
C743 H744 0.960 . S
H744 C743 0.960 . S
H745 N725 0.862 . S
O746 Co714 1.920 1_655 S
O746 C719 1.289 . S
C747 O739 1.258 . S
C747 O740 1.266 . S
Co748 O751 1.970 . S
Co748 N765 1.989 . S
Co748 O773 1.967 . S
Co748 O780 1.920 . S
Co749 O752 1.966 . S
Co749 N758 2.022 . S
Co749 N766 1.993 . S
Co749 O774 1.941 . S
C750 O751 1.258 . S
C750 O752 1.263 . S
O751 Co748 1.970 . S
O751 C750 1.258 . S
O752 Co749 1.966 . S
O752 C750 1.263 . S
C753 O754 1.235 . S
C753 O780 1.289 . S
O754 C753 1.235 . S
C755 C757 1.400 . S
C755 N758 1.351 . S
C755 C760 1.501 . S
C756 C757 1.387 . S
C756 N759 1.341 . S
C757 C755 1.400 . S
C757 C756 1.387 . S
N758 Co749 2.022 . S
N758 C755 1.351 . S
N758 N759 1.365 . S
N759 C756 1.341 . S
N759 N758 1.365 . S
N759 H779 0.862 . S
C760 C755 1.501 . S
C760 H761 0.961 . S
C760 H762 0.961 . S
C760 H763 0.960 . S
H761 C760 0.961 . S
H762 C760 0.961 . S
H763 C760 0.960 . S
C764 N765 1.342 . S
C764 C768 1.401 . S
C764 C769 1.499 . S
N765 Co748 1.989 . S
N765 C764 1.342 . S
N765 N766 1.388 . S
N766 Co749 1.993 . S
N766 N765 1.388 . S
N766 C767 1.346 . S
C767 N766 1.346 . S
C767 C768 1.396 . S
C767 C777 1.510 . S
C768 C764 1.401 . S
C768 C767 1.396 . S
C769 C764 1.499 . S
C769 H770 0.959 . S
C769 H771 0.960 . S
C769 H772 0.961 . S
H770 C769 0.959 . S
H771 C769 0.960 . S
H772 C769 0.961 . S
O773 Co748 1.967 . S
O773 C781 1.258 . S
O774 Co749 1.941 . S
O774 C781 1.266 . S
H775 C777 0.959 . S
H776 C777 0.961 . S
C777 C767 1.510 . S
C777 H775 0.959 . S
C777 H776 0.961 . S
C777 H778 0.960 . S
H778 C777 0.960 . S
H779 N759 0.862 . S
O780 Co748 1.920 . S
O780 C753 1.289 . S
C781 O773 1.258 . S
C781 O774 1.266 . S
Co782 O785 1.970 . S
Co782 N799 1.989 . S
Co782 O807 1.967 . S
Co782 O814 1.920 . S
Co783 O786 1.966 . S
Co783 N792 2.022 . S
Co783 N800 1.993 . S
Co783 O808 1.941 . S
C784 O785 1.258 . S
C784 O786 1.263 . S
O785 Co782 1.970 . S
O785 C784 1.258 . S
O786 Co783 1.966 . S
O786 C784 1.263 . S
C787 O788 1.235 . S
C787 O814 1.289 . S
O788 C787 1.235 . S
C789 C791 1.400 . S
C789 N792 1.351 . S
C789 C794 1.501 . S
C790 C791 1.387 . S
C790 N793 1.341 . S
C791 C789 1.400 . S
C791 C790 1.387 . S
N792 Co783 2.022 . S
N792 C789 1.351 . S
N792 N793 1.365 . S
N793 C790 1.341 . S
N793 N792 1.365 . S
N793 H813 0.862 . S
C794 C789 1.501 . S
C794 H795 0.961 . S
C794 H796 0.961 . S
C794 H797 0.960 . S
H795 C794 0.961 . S
H796 C794 0.961 . S
H797 C794 0.960 . S
C798 N799 1.342 . S
C798 C802 1.401 . S
C798 C803 1.499 . S
N799 Co782 1.989 . S
N799 C798 1.342 . S
N799 N800 1.388 . S
N800 Co783 1.993 . S
N800 N799 1.388 . S
N800 C801 1.346 . S
C801 N800 1.346 . S
C801 C802 1.396 . S
C801 C811 1.510 . S
C802 C798 1.401 . S
C802 C801 1.396 . S
C803 C798 1.499 . S
C803 H804 0.959 . S
C803 H805 0.960 . S
C803 H806 0.961 . S
H804 C803 0.959 . S
H805 C803 0.960 . S
H806 C803 0.961 . S
O807 Co782 1.967 . S
O807 C815 1.258 . S
O808 Co783 1.941 . S
O808 C815 1.266 . S
H809 C811 0.959 . S
H810 C811 0.961 . S
C811 C801 1.510 . S
C811 H809 0.959 . S
C811 H810 0.961 . S
C811 H812 0.960 . S
H812 C811 0.960 . S
H813 N793 0.862 . S
O814 Co782 1.920 . S
O814 C787 1.289 . S
C815 O807 1.258 . S
C815 O808 1.266 . S
Co816 O819 1.970 . S
Co816 N833 1.989 . S
Co816 O841 1.967 . S
Co816 O848 1.920 . S
Co817 O820 1.966 . S
Co817 N826 2.022 . S
Co817 N834 1.993 . S
Co817 O842 1.941 . S
C818 O819 1.258 . S
C818 O820 1.263 . S
O819 Co816 1.970 . S
O819 C818 1.258 . S
O820 Co817 1.966 . S
O820 C818 1.263 . S
C821 O822 1.235 . S
C821 O848 1.289 . S
O822 C821 1.235 . S
C823 C825 1.400 . S
C823 N826 1.351 . S
C823 C828 1.501 . S
C824 C825 1.387 . S
C824 N827 1.341 . S
C825 C823 1.400 . S
C825 C824 1.387 . S
N826 Co817 2.022 . S
N826 C823 1.351 . S
N826 N827 1.365 . S
N827 C824 1.341 . S
N827 N826 1.365 . S
N827 H847 0.862 . S
C828 C823 1.501 . S
C828 H829 0.961 . S
C828 H830 0.961 . S
C828 H831 0.960 . S
H829 C828 0.961 . S
H830 C828 0.961 . S
H831 C828 0.960 . S
C832 N833 1.342 . S
C832 C836 1.401 . S
C832 C837 1.499 . S
N833 Co816 1.989 . S
N833 C832 1.342 . S
N833 N834 1.388 . S
N834 Co817 1.993 . S
N834 N833 1.388 . S
N834 C835 1.346 . S
C835 N834 1.346 . S
C835 C836 1.396 . S
C835 C845 1.510 . S
C836 C832 1.401 . S
C836 C835 1.396 . S
C837 C832 1.499 . S
C837 H838 0.959 . S
C837 H839 0.960 . S
C837 H840 0.961 . S
H838 C837 0.959 . S
H839 C837 0.960 . S
H840 C837 0.961 . S
O841 Co816 1.967 . S
O841 C849 1.258 . S
O842 Co817 1.941 . S
O842 C849 1.266 . S
H843 C845 0.959 . S
H844 C845 0.961 . S
C845 C835 1.510 . S
C845 H843 0.959 . S
C845 H844 0.961 . S
C845 H846 0.960 . S
H846 C845 0.960 . S
H847 N827 0.862 . S
O848 Co816 1.920 . S
O848 C821 1.289 . S
C849 O841 1.258 . S
C849 O842 1.266 . S
Co850 O853 1.970 . S
Co850 N867 1.989 . S
Co850 O875 1.967 . S
Co850 O882 1.920 . S
Co851 O854 1.966 . S
Co851 N860 2.022 . S
Co851 N868 1.993 . S
Co851 O876 1.941 . S
C852 O853 1.258 . S
C852 O854 1.263 . S
O853 Co850 1.970 . S
O853 C852 1.258 . S
O854 Co851 1.966 . S
O854 C852 1.263 . S
C855 O856 1.235 . S
C855 O882 1.289 . S
O856 C855 1.235 . S
C857 C859 1.400 . S
C857 N860 1.351 . S
C857 C862 1.501 . S
C858 C859 1.387 . S
C858 N861 1.341 . S
C859 C857 1.400 . S
C859 C858 1.387 . S
N860 Co851 2.022 . S
N860 C857 1.351 . S
N860 N861 1.365 . S
N861 C858 1.341 . S
N861 N860 1.365 . S
N861 H881 0.862 . S
C862 C857 1.501 . S
C862 H863 0.961 . S
C862 H864 0.961 . S
C862 H865 0.960 . S
H863 C862 0.961 . S
H864 C862 0.961 . S
H865 C862 0.960 . S
C866 N867 1.342 . S
C866 C870 1.401 . S
C866 C871 1.499 . S
N867 Co850 1.989 . S
N867 C866 1.342 . S
N867 N868 1.388 . S
N868 Co851 1.993 . S
N868 N867 1.388 . S
N868 C869 1.346 . S
C869 N868 1.346 . S
C869 C870 1.396 . S
C869 C879 1.510 . S
C870 C866 1.401 . S
C870 C869 1.396 . S
C871 C866 1.499 . S
C871 H872 0.959 . S
C871 H873 0.960 . S
C871 H874 0.961 . S
H872 C871 0.959 . S
H873 C871 0.960 . S
H874 C871 0.961 . S
O875 Co850 1.967 . S
O875 C883 1.258 . S
O876 Co851 1.941 . S
O876 C883 1.266 . S
H877 C879 0.959 . S
H878 C879 0.961 . S
C879 C869 1.510 . S
C879 H877 0.959 . S
C879 H878 0.961 . S
C879 H880 0.960 . S
H880 C879 0.960 . S
H881 N861 0.862 . S
O882 Co850 1.920 . S
O882 C855 1.289 . S
C883 O875 1.258 . S
C883 O876 1.266 . S
Co884 O887 1.970 . S
Co884 N901 1.989 . S
Co884 O909 1.967 . S
Co884 O916 1.920 . S
Co885 O888 1.966 . S
Co885 N894 2.022 . S
Co885 N902 1.993 . S
Co885 O910 1.941 . S
C886 O887 1.258 . S
C886 O888 1.263 . S
O887 Co884 1.970 . S
O887 C886 1.258 . S
O888 Co885 1.966 . S
O888 C886 1.263 . S
C889 O890 1.235 . S
C889 O916 1.289 . S
O890 C889 1.235 . S
C891 C893 1.400 . S
C891 N894 1.351 . S
C891 C896 1.501 . S
C892 C893 1.387 . S
C892 N895 1.341 . S
C893 C891 1.400 . S
C893 C892 1.387 . S
N894 Co885 2.022 . S
N894 C891 1.351 . S
N894 N895 1.365 . S
N895 C892 1.341 . S
N895 N894 1.365 . S
N895 H915 0.862 . S
C896 C891 1.501 . S
C896 H897 0.961 . S
C896 H898 0.961 . S
C896 H899 0.960 . S
H897 C896 0.961 . S
H898 C896 0.961 . S
H899 C896 0.960 . S
C900 N901 1.342 . S
C900 C904 1.401 . S
C900 C905 1.499 . S
N901 Co884 1.989 . S
N901 C900 1.342 . S
N901 N902 1.388 . S
N902 Co885 1.993 . S
N902 N901 1.388 . S
N902 C903 1.346 . S
C903 N902 1.346 . S
C903 C904 1.396 . S
C903 C913 1.510 . S
C904 C900 1.401 . S
C904 C903 1.396 . S
C905 C900 1.499 . S
C905 H906 0.959 . S
C905 H907 0.960 . S
C905 H908 0.961 . S
H906 C905 0.959 . S
H907 C905 0.960 . S
H908 C905 0.961 . S
O909 Co884 1.967 . S
O909 C917 1.258 . S
O910 Co885 1.941 . S
O910 C917 1.266 . S
H911 C913 0.959 . S
H912 C913 0.961 . S
C913 C903 1.510 . S
C913 H911 0.959 . S
C913 H912 0.961 . S
C913 H914 0.960 . S
H914 C913 0.960 . S
H915 N895 0.862 . S
O916 Co884 1.920 . S
O916 C889 1.289 . S
C917 O909 1.258 . S
C917 O910 1.266 . S
Co918 O921 1.970 . S
Co918 N935 1.989 . S
Co918 O943 1.967 . S
Co918 O950 1.920 1_655 S
Co919 O922 1.966 . S
Co919 N928 2.022 . S
Co919 N936 1.993 . S
Co919 O944 1.941 . S
C920 O921 1.258 . S
C920 O922 1.263 . S
O921 Co918 1.970 . S
O921 C920 1.258 . S
O922 Co919 1.966 . S
O922 C920 1.263 . S
C923 O924 1.235 . S
C923 O950 1.289 . S
O924 C923 1.235 . S
C925 C927 1.400 . S
C925 N928 1.351 . S
C925 C930 1.501 . S
C926 C927 1.387 . S
C926 N929 1.341 . S
C927 C925 1.400 . S
C927 C926 1.387 . S
N928 Co919 2.022 . S
N928 C925 1.351 . S
N928 N929 1.365 . S
N929 C926 1.341 . S
N929 N928 1.365 . S
N929 H949 0.862 . S
C930 C925 1.501 . S
C930 H931 0.961 . S
C930 H932 0.961 . S
C930 H933 0.960 . S
H931 C930 0.961 . S
H932 C930 0.961 . S
H933 C930 0.960 . S
C934 N935 1.342 . S
C934 C938 1.401 . S
C934 C939 1.499 1_655 S
N935 Co918 1.989 . S
N935 C934 1.342 . S
N935 N936 1.388 . S
N936 Co919 1.993 . S
N936 N935 1.388 . S
N936 C937 1.346 . S
C937 N936 1.346 . S
C937 C938 1.396 . S
C937 C947 1.510 . S
C938 C934 1.401 . S
C938 C937 1.396 . S
C939 C934 1.499 1_455 S
C939 H940 0.959 . S
C939 H941 0.960 . S
C939 H942 0.961 . S
H940 C939 0.959 . S
H941 C939 0.960 . S
H942 C939 0.961 . S
O943 Co918 1.967 . S
O943 C951 1.258 . S
O944 Co919 1.941 . S
O944 C951 1.266 . S
H945 C947 0.959 . S
H946 C947 0.961 . S
C947 C937 1.510 . S
C947 H945 0.959 . S
C947 H946 0.961 . S
C947 H948 0.960 . S
H948 C947 0.960 . S
H949 N929 0.862 . S
O950 Co918 1.920 1_455 S
O950 C923 1.289 . S
C951 O943 1.258 . S
C951 O944 1.266 . S
Co952 O955 1.970 . S
Co952 N969 1.989 . S
Co952 O977 1.967 . S
Co952 O984 1.920 . S
Co953 O956 1.966 . S
Co953 N962 2.022 . S
Co953 N970 1.993 . S
Co953 O978 1.941 . S
C954 O955 1.258 . S
C954 O956 1.263 . S
O955 Co952 1.970 . S
O955 C954 1.258 . S
O956 Co953 1.966 . S
O956 C954 1.263 . S
C957 O958 1.235 . S
C957 O984 1.289 . S
O958 C957 1.235 . S
C959 C961 1.400 . S
C959 N962 1.351 . S
C959 C964 1.501 . S
C960 C961 1.387 . S
C960 N963 1.341 . S
C961 C959 1.400 . S
C961 C960 1.387 . S
N962 Co953 2.022 . S
N962 C959 1.351 . S
N962 N963 1.365 . S
N963 C960 1.341 . S
N963 N962 1.365 . S
N963 H983 0.862 . S
C964 C959 1.501 . S
C964 H965 0.961 . S
C964 H966 0.961 . S
C964 H967 0.960 . S
H965 C964 0.961 . S
H966 C964 0.961 . S
H967 C964 0.960 . S
C968 N969 1.342 . S
C968 C972 1.401 . S
C968 C973 1.499 . S
N969 Co952 1.989 . S
N969 C968 1.342 . S
N969 N970 1.388 . S
N970 Co953 1.993 . S
N970 N969 1.388 . S
N970 C971 1.346 . S
C971 N970 1.346 . S
C971 C972 1.396 . S
C971 C981 1.510 . S
C972 C968 1.401 . S
C972 C971 1.396 . S
C973 C968 1.499 . S
C973 H974 0.959 . S
C973 H975 0.960 . S
C973 H976 0.961 . S
H974 C973 0.959 . S
H975 C973 0.960 . S
H976 C973 0.961 . S
O977 Co952 1.967 . S
O977 C985 1.258 . S
O978 Co953 1.941 . S
O978 C985 1.266 . S
H979 C981 0.959 . S
H980 C981 0.961 . S
C981 C971 1.510 . S
C981 H979 0.959 . S
C981 H980 0.961 . S
C981 H982 0.960 . S
H982 C981 0.960 . S
H983 N963 0.862 . S
O984 Co952 1.920 . S
O984 C957 1.289 . S
C985 O977 1.258 . S
C985 O978 1.266 . S
Co986 O989 1.970 . S
Co986 N1003 1.989 . S
Co986 O1011 1.967 . S
Co986 O1018 1.920 1_655 S
Co987 O990 1.966 . S
Co987 N996 2.022 . S
Co987 N1004 1.993 . S
Co987 O1012 1.941 . S
C988 O989 1.258 . S
C988 O990 1.263 . S
O989 Co986 1.970 . S
O989 C988 1.258 . S
O990 Co987 1.966 . S
O990 C988 1.263 . S
C991 O992 1.235 . S
C991 O1018 1.289 . S
O992 C991 1.235 . S
C993 C995 1.400 . S
C993 N996 1.351 . S
C993 C998 1.501 . S
C994 C995 1.387 . S
C994 N997 1.341 . S
C995 C993 1.400 . S
C995 C994 1.387 . S
N996 Co987 2.022 . S
N996 C993 1.351 . S
N996 N997 1.365 . S
N997 C994 1.341 . S
N997 N996 1.365 . S
N997 H1017 0.862 . S
C998 C993 1.501 . S
C998 H999 0.961 . S
C998 H1000 0.961 . S
C998 H1001 0.960 . S
H999 C998 0.961 . S
H1000 C998 0.961 . S
H1001 C998 0.960 . S
C1002 N1003 1.342 . S
C1002 C1006 1.401 . S
C1002 C1007 1.499 1_655 S
N1003 Co986 1.989 . S
N1003 C1002 1.342 . S
N1003 N1004 1.388 . S
N1004 Co987 1.993 . S
N1004 N1003 1.388 . S
N1004 C1005 1.346 . S
C1005 N1004 1.346 . S
C1005 C1006 1.396 . S
C1005 C1015 1.510 . S
C1006 C1002 1.401 . S
C1006 C1005 1.396 . S
C1007 C1002 1.499 1_455 S
C1007 H1008 0.959 . S
C1007 H1009 0.960 . S
C1007 H1010 0.961 . S
H1008 C1007 0.959 . S
H1009 C1007 0.960 . S
H1010 C1007 0.961 . S
O1011 Co986 1.967 . S
O1011 C1019 1.258 . S
O1012 Co987 1.941 . S
O1012 C1019 1.266 . S
H1013 C1015 0.959 . S
H1014 C1015 0.961 . S
C1015 C1005 1.510 . S
C1015 H1013 0.959 . S
C1015 H1014 0.961 . S
C1015 H1016 0.960 . S
H1016 C1015 0.960 . S
H1017 N997 0.862 . S
O1018 Co986 1.920 1_455 S
O1018 C991 1.289 . S
C1019 O1011 1.258 . S
C1019 O1012 1.266 . S
Co1020 O1023 1.970 . S
Co1020 N1037 1.989 . S
Co1020 O1045 1.967 . S
Co1020 O1052 1.920 . S
Co1021 O1024 1.966 . S
Co1021 N1030 2.022 . S
Co1021 N1038 1.993 . S
Co1021 O1046 1.941 . S
C1022 O1023 1.258 . S
C1022 O1024 1.263 . S
O1023 Co1020 1.970 . S
O1023 C1022 1.258 . S
O1024 Co1021 1.966 . S
O1024 C1022 1.263 . S
C1025 O1026 1.235 . S
C1025 O1052 1.289 . S
O1026 C1025 1.235 . S
C1027 C1029 1.400 . S
C1027 N1030 1.351 . S
C1027 C1032 1.501 . S
C1028 C1029 1.387 . S
C1028 N1031 1.341 . S
C1029 C1027 1.400 . S
C1029 C1028 1.387 . S
N1030 Co1021 2.022 . S
N1030 C1027 1.351 . S
N1030 N1031 1.365 . S
N1031 C1028 1.341 . S
N1031 N1030 1.365 . S
N1031 H1051 0.862 . S
C1032 C1027 1.501 . S
C1032 H1033 0.961 . S
C1032 H1034 0.961 . S
C1032 H1035 0.960 . S
H1033 C1032 0.961 . S
H1034 C1032 0.961 . S
H1035 C1032 0.960 . S
C1036 N1037 1.342 . S
C1036 C1040 1.401 . S
C1036 C1041 1.499 . S
N1037 Co1020 1.989 . S
N1037 C1036 1.342 . S
N1037 N1038 1.388 . S
N1038 Co1021 1.993 . S
N1038 N1037 1.388 . S
N1038 C1039 1.346 . S
C1039 N1038 1.346 . S
C1039 C1040 1.396 . S
C1039 C1049 1.510 . S
C1040 C1036 1.401 . S
C1040 C1039 1.396 . S
C1041 C1036 1.499 . S
C1041 H1042 0.959 . S
C1041 H1043 0.960 . S
C1041 H1044 0.961 . S
H1042 C1041 0.959 . S
H1043 C1041 0.960 . S
H1044 C1041 0.961 . S
O1045 Co1020 1.967 . S
O1045 C1053 1.258 . S
O1046 Co1021 1.941 . S
O1046 C1053 1.266 . S
H1047 C1049 0.959 . S
H1048 C1049 0.961 . S
C1049 C1039 1.510 . S
C1049 H1047 0.959 . S
C1049 H1048 0.961 . S
C1049 H1050 0.960 . S
H1050 C1049 0.960 . S
H1051 N1031 0.862 . S
O1052 Co1020 1.920 . S
O1052 C1025 1.289 . S
C1053 O1045 1.258 . S
C1053 O1046 1.266 . S
Co1054 O1057 1.970 . S
Co1054 N1071 1.989 . S
Co1054 O1079 1.967 . S
Co1054 O1086 1.920 . S
Co1055 O1058 1.966 . S
Co1055 N1064 2.022 . S
Co1055 N1072 1.993 . S
Co1055 O1080 1.941 . S
C1056 O1057 1.258 . S
C1056 O1058 1.263 . S
O1057 Co1054 1.970 . S
O1057 C1056 1.258 . S
O1058 Co1055 1.966 . S
O1058 C1056 1.263 . S
C1059 O1060 1.235 . S
C1059 O1086 1.289 . S
O1060 C1059 1.235 . S
C1061 C1063 1.400 . S
C1061 N1064 1.351 . S
C1061 C1066 1.501 . S
C1062 C1063 1.387 . S
C1062 N1065 1.341 . S
C1063 C1061 1.400 . S
C1063 C1062 1.387 . S
N1064 Co1055 2.022 . S
N1064 C1061 1.351 . S
N1064 N1065 1.365 . S
N1065 C1062 1.341 . S
N1065 N1064 1.365 . S
N1065 H1085 0.862 . S
C1066 C1061 1.501 . S
C1066 H1067 0.961 . S
C1066 H1068 0.961 . S
C1066 H1069 0.960 . S
H1067 C1066 0.961 . S
H1068 C1066 0.961 . S
H1069 C1066 0.960 . S
C1070 N1071 1.342 . S
C1070 C1074 1.401 . S
C1070 C1075 1.499 . S
N1071 Co1054 1.989 . S
N1071 C1070 1.342 . S
N1071 N1072 1.388 . S
N1072 Co1055 1.993 . S
N1072 N1071 1.388 . S
N1072 C1073 1.346 . S
C1073 N1072 1.346 . S
C1073 C1074 1.396 . S
C1073 C1083 1.510 . S
C1074 C1070 1.401 . S
C1074 C1073 1.396 . S
C1075 C1070 1.499 . S
C1075 H1076 0.959 . S
C1075 H1077 0.960 . S
C1075 H1078 0.961 . S
H1076 C1075 0.959 . S
H1077 C1075 0.960 . S
H1078 C1075 0.961 . S
O1079 Co1054 1.967 . S
O1079 C1087 1.258 . S
O1080 Co1055 1.941 . S
O1080 C1087 1.266 . S
H1081 C1083 0.959 . S
H1082 C1083 0.961 . S
C1083 C1073 1.510 . S
C1083 H1081 0.959 . S
C1083 H1082 0.961 . S
C1083 H1084 0.960 . S
H1084 C1083 0.960 . S
H1085 N1065 0.862 . S
O1086 Co1054 1.920 . S
O1086 C1059 1.289 . S
C1087 O1079 1.258 . S
C1087 O1080 1.266 . S
H1088 C1096 0.950 . S
H1089 C1101 0.950 . S
H1090 C1098 0.950 . S
H1091 C1100 0.950 . S
H1092 C1102 0.950 . S
H1093 C1104 0.950 . S
H1094 C1106 0.950 . S
H1095 C1107 0.950 . S
C1096 H1088 0.950 . S
C1096 C1097 1.386 . S
C1096 C1098 1.391 . S
C1097 C1096 1.386 . S
C1097 C1101 1.393 . S
C1098 H1090 0.950 . S
C1098 C1096 1.391 . S
C1098 C1099 1.400 . S
C1099 C1098 1.400 . S
C1099 C1100 1.398 . S
C1099 C1105 1.491 . S
C1100 H1091 0.950 . S
C1100 C1099 1.398 . S
C1100 C1101 1.391 . S
C1101 H1089 0.950 . S
C1101 C1097 1.393 . S
C1101 C1100 1.391 . S
C1102 H1092 0.950 . S
C1102 C1103 1.386 . S
C1102 C1104 1.391 . S
C1103 C1102 1.386 . S
C1103 C1107 1.393 . S
C1104 H1093 0.950 . S
C1104 C1102 1.391 . S
C1104 C1105 1.400 . S
C1105 C1099 1.491 . S
C1105 C1104 1.400 . S
C1105 C1106 1.398 . S
C1106 H1094 0.950 . S
C1106 C1105 1.398 . S
C1106 C1107 1.391 . S
C1107 H1095 0.950 . S
C1107 C1103 1.393 . S
C1107 C1106 1.391 . S
H1108 C1116 0.950 1_545 S
H1109 C1121 0.950 . S
H1110 C1118 0.950 . S
H1111 C1120 0.950 . S
H1112 C1122 0.950 1_565 S
H1113 C1124 0.950 . S
H1114 C1126 0.950 . S
H1115 C1127 0.950 . S
C1116 H1108 0.950 1_565 S
C1116 C1117 1.386 . S
C1116 C1118 1.391 1_565 S
C1117 C1116 1.386 . S
C1117 C1121 1.393 1_455 S
C1118 H1110 0.950 . S
C1118 C1116 1.391 1_545 S
C1118 C1119 1.400 1_545 S
C1119 C1118 1.400 1_565 S
C1119 C1120 1.398 1_455 S
C1119 C1125 1.491 1_465 S
C1120 H1111 0.950 . S
C1120 C1119 1.398 1_655 S
C1120 C1121 1.391 . S
C1121 H1109 0.950 . S
C1121 C1117 1.393 1_655 S
C1121 C1120 1.391 . S
C1122 H1112 0.950 1_545 S
C1122 C1123 1.386 . S
C1122 C1124 1.391 1_545 S
C1123 C1122 1.386 . S
C1123 C1127 1.393 1_655 S
C1124 H1113 0.950 . S
C1124 C1122 1.391 1_565 S
C1124 C1125 1.400 1_565 S
C1125 C1119 1.491 1_645 S
C1125 C1124 1.400 1_545 S
C1125 C1126 1.398 1_655 S
C1126 H1114 0.950 . S
C1126 C1125 1.398 1_455 S
C1126 C1127 1.391 . S
C1127 H1115 0.950 . S
C1127 C1123 1.393 1_455 S
C1127 C1126 1.391 . S
H1128 C1136 0.950 . S
H1129 C1141 0.950 . S
H1130 C1138 0.950 . S
H1131 C1140 0.950 . S
H1132 C1142 0.950 . S
H1133 C1144 0.950 . S
H1134 C1146 0.950 . S
H1135 C1147 0.950 . S
C1136 H1128 0.950 . S
C1136 C1137 1.386 . S
C1136 C1138 1.391 . S
C1137 C1136 1.386 . S
C1137 C1141 1.393 . S
C1138 H1130 0.950 . S
C1138 C1136 1.391 . S
C1138 C1139 1.400 . S
C1139 C1138 1.400 . S
C1139 C1140 1.398 . S
C1139 C1145 1.491 . S
C1140 H1131 0.950 . S
C1140 C1139 1.398 . S
C1140 C1141 1.391 . S
C1141 H1129 0.950 . S
C1141 C1137 1.393 . S
C1141 C1140 1.391 . S
C1142 H1132 0.950 . S
C1142 C1143 1.386 . S
C1142 C1144 1.391 . S
C1143 C1142 1.386 . S
C1143 C1147 1.393 . S
C1144 H1133 0.950 . S
C1144 C1142 1.391 . S
C1144 C1145 1.400 . S
C1145 C1139 1.491 . S
C1145 C1144 1.400 . S
C1145 C1146 1.398 . S
C1146 H1134 0.950 . S
C1146 C1145 1.398 . S
C1146 C1147 1.391 . S
C1147 H1135 0.950 . S
C1147 C1143 1.393 . S
C1147 C1146 1.391 . S
H1148 C1156 0.950 . S
H1149 C1161 0.950 . S
H1150 C1158 0.950 . S
H1151 C1160 0.950 . S
H1152 C1162 0.950 . S
H1153 C1164 0.950 . S
H1154 C1166 0.950 . S
H1155 C1167 0.950 . S
C1156 H1148 0.950 . S
C1156 C1157 1.386 . S
C1156 C1158 1.391 . S
C1157 C1156 1.386 . S
C1157 C1161 1.393 1_545 S
C1158 H1150 0.950 . S
C1158 C1156 1.391 . S
C1158 C1159 1.400 . S
C1159 C1158 1.400 . S
C1159 C1160 1.398 1_545 S
C1159 C1165 1.491 1_544 S
C1160 H1151 0.950 . S
C1160 C1159 1.398 1_565 S
C1160 C1161 1.391 . S
C1161 H1149 0.950 . S
C1161 C1157 1.393 1_565 S
C1161 C1160 1.391 . S
C1162 H1152 0.950 . S
C1162 C1163 1.386 . S
C1162 C1164 1.391 . S
C1163 C1162 1.386 . S
C1163 C1167 1.393 1_565 S
C1164 H1153 0.950 . S
C1164 C1162 1.391 . S
C1164 C1165 1.400 . S
C1165 C1159 1.491 1_566 S
C1165 C1164 1.400 . S
C1165 C1166 1.398 1_565 S
C1166 H1154 0.950 . S
C1166 C1165 1.398 1_545 S
C1166 C1167 1.391 . S
C1167 H1155 0.950 . S
C1167 C1163 1.393 1_545 S
C1167 C1166 1.391 . S
H1168 C1176 0.950 . S
H1169 C1181 0.950 . S
H1170 C1178 0.950 . S
H1171 C1180 0.950 . S
H1172 C1182 0.950 . S
H1173 C1184 0.950 . S
H1174 C1186 0.950 . S
H1175 C1187 0.950 . S
C1176 H1168 0.950 . S
C1176 C1177 1.386 . S
C1176 C1178 1.391 . S
C1177 C1176 1.386 . S
C1177 C1181 1.393 . S
C1178 H1170 0.950 . S
C1178 C1176 1.391 . S
C1178 C1179 1.400 . S
C1179 C1178 1.400 . S
C1179 C1180 1.398 . S
C1179 C1185 1.491 . S
C1180 H1171 0.950 . S
C1180 C1179 1.398 . S
C1180 C1181 1.391 . S
C1181 H1169 0.950 . S
C1181 C1177 1.393 . S
C1181 C1180 1.391 . S
C1182 H1172 0.950 . S
C1182 C1183 1.386 . S
C1182 C1184 1.391 . S
C1183 C1182 1.386 . S
C1183 C1187 1.393 . S
C1184 H1173 0.950 . S
C1184 C1182 1.391 . S
C1184 C1185 1.400 . S
C1185 C1179 1.491 . S
C1185 C1184 1.400 . S
C1185 C1186 1.398 . S
C1186 H1174 0.950 . S
C1186 C1185 1.398 . S
C1186 C1187 1.391 . S
C1187 H1175 0.950 . S
C1187 C1183 1.393 . S
C1187 C1186 1.391 . S
H1188 C1196 0.950 . S
H1189 C1201 0.950 . S
H1190 C1198 0.952 . S
H1191 C1200 0.950 . S
H1192 C1202 0.950 . S
H1193 C1204 0.952 . S
H1194 C1206 0.950 . S
H1195 C1207 0.950 . S
C1196 H1188 0.950 . S
C1196 C1197 1.386 . S
C1196 C1198 1.391 . S
C1197 C1196 1.386 . S
C1197 C1201 1.393 . S
C1198 H1190 0.952 . S
C1198 C1196 1.391 . S
C1198 C1199 1.400 . S
C1199 C1198 1.400 . S
C1199 C1200 1.398 . S
C1199 C1205 1.491 1_565 S
C1200 H1191 0.950 . S
C1200 C1199 1.398 . S
C1200 C1201 1.391 . S
C1201 H1189 0.950 . S
C1201 C1197 1.393 . S
C1201 C1200 1.391 . S
C1202 H1192 0.950 . S
C1202 C1203 1.386 . S
C1202 C1204 1.391 . S
C1203 C1202 1.386 . S
C1203 C1207 1.393 . S
C1204 H1193 0.952 . S
C1204 C1202 1.391 . S
C1204 C1205 1.400 . S
C1205 C1199 1.491 1_545 S
C1205 C1204 1.400 . S
C1205 C1206 1.398 . S
C1206 H1194 0.950 . S
C1206 C1205 1.398 . S
C1206 C1207 1.391 . S
C1207 H1195 0.950 . S
C1207 C1203 1.393 . S
C1207 C1206 1.391 . S
H1208 C1216 0.950 . S
H1209 C1221 0.950 . S
H1210 C1218 0.950 . S
H1211 C1220 0.950 . S
H1212 C1222 0.950 . S
H1213 C1224 0.950 . S
H1214 C1226 0.950 . S
H1215 C1227 0.950 . S
C1216 H1208 0.950 . S
C1216 C1217 1.386 . S
C1216 C1218 1.391 . S
C1217 C1216 1.386 . S
C1217 C1221 1.393 . S
C1218 H1210 0.950 . S
C1218 C1216 1.391 . S
C1218 C1219 1.400 . S
C1219 C1218 1.400 . S
C1219 C1220 1.398 . S
C1219 C1225 1.491 . S
C1220 H1211 0.950 . S
C1220 C1219 1.398 . S
C1220 C1221 1.391 . S
C1221 H1209 0.950 . S
C1221 C1217 1.393 . S
C1221 C1220 1.391 . S
C1222 H1212 0.950 . S
C1222 C1223 1.386 . S
C1222 C1224 1.391 . S
C1223 C1222 1.386 . S
C1223 C1227 1.393 . S
C1224 H1213 0.950 . S
C1224 C1222 1.391 . S
C1224 C1225 1.400 . S
C1225 C1219 1.491 . S
C1225 C1224 1.400 . S
C1225 C1226 1.398 . S
C1226 H1214 0.950 . S
C1226 C1225 1.398 . S
C1226 C1227 1.391 . S
C1227 H1215 0.950 . S
C1227 C1223 1.393 . S
C1227 C1226 1.391 . S
H1228 C1236 0.950 . S
H1229 C1241 0.950 . S
H1230 C1238 0.950 . S
H1231 C1240 0.950 . S
H1232 C1242 0.950 . S
H1233 C1244 0.950 . S
H1234 C1246 0.950 . S
H1235 C1247 0.950 . S
C1236 H1228 0.950 . S
C1236 C1237 1.386 1_655 S
C1236 C1238 1.391 . S
C1237 C1236 1.386 1_455 S
C1237 C1241 1.393 . S
C1238 H1230 0.950 . S
C1238 C1236 1.391 . S
C1238 C1239 1.400 1_655 S
C1239 C1238 1.400 1_455 S
C1239 C1240 1.398 . S
C1239 C1245 1.491 1_446 S
C1240 H1231 0.950 . S
C1240 C1239 1.398 . S
C1240 C1241 1.391 . S
C1241 H1229 0.950 . S
C1241 C1237 1.393 . S
C1241 C1240 1.391 . S
C1242 H1232 0.950 . S
C1242 C1243 1.386 1_455 S
C1242 C1244 1.391 . S
C1243 C1242 1.386 1_655 S
C1243 C1247 1.393 . S
C1244 H1233 0.950 . S
C1244 C1242 1.391 . S
C1244 C1245 1.400 1_455 S
C1245 C1239 1.491 1_664 S
C1245 C1244 1.400 1_655 S
C1245 C1246 1.398 . S
C1246 H1234 0.950 . S
C1246 C1245 1.398 . S
C1246 C1247 1.391 . S
C1247 H1235 0.950 . S
C1247 C1243 1.393 . S
C1247 C1246 1.391 . S
H1248 C1256 0.950 . S
H1249 C1261 0.950 . S
H1250 C1258 0.950 . S
H1251 C1260 0.950 . S
H1252 C1262 0.950 . S
H1253 C1264 0.950 . S
H1254 C1266 0.950 . S
H1255 C1267 0.950 . S
C1256 H1248 0.950 . S
C1256 C1257 1.386 . S
C1256 C1258 1.391 . S
C1257 C1256 1.386 . S
C1257 C1261 1.393 . S
C1258 H1250 0.950 . S
C1258 C1256 1.391 . S
C1258 C1259 1.400 . S
C1259 C1258 1.400 . S
C1259 C1260 1.398 . S
C1259 C1265 1.491 . S
C1260 H1251 0.950 . S
C1260 C1259 1.398 . S
C1260 C1261 1.391 . S
C1261 H1249 0.950 . S
C1261 C1257 1.393 . S
C1261 C1260 1.391 . S
C1262 H1252 0.950 . S
C1262 C1263 1.386 . S
C1262 C1264 1.391 . S
C1263 C1262 1.386 . S
C1263 C1267 1.393 . S
C1264 H1253 0.950 . S
C1264 C1262 1.391 . S
C1264 C1265 1.400 . S
C1265 C1259 1.491 . S
C1265 C1264 1.400 . S
C1265 C1266 1.398 . S
C1266 H1254 0.950 . S
C1266 C1265 1.398 . S
C1266 C1267 1.391 . S
C1267 H1255 0.950 . S
C1267 C1263 1.393 . S
C1267 C1266 1.391 . S
H1268 C1276 0.950 . S
H1269 C1281 0.950 . S
H1270 C1278 0.950 . S
H1271 C1280 0.950 . S
H1272 C1282 0.950 . S
H1273 C1284 0.950 . S
H1274 C1286 0.950 . S
H1275 C1287 0.950 . S
C1276 H1268 0.950 . S
C1276 C1277 1.386 . S
C1276 C1278 1.391 . S
C1277 C1276 1.386 . S
C1277 C1281 1.393 . S
C1278 H1270 0.950 . S
C1278 C1276 1.391 . S
C1278 C1279 1.400 . S
C1279 C1278 1.400 . S
C1279 C1280 1.398 . S
C1279 C1285 1.491 . S
C1280 H1271 0.950 . S
C1280 C1279 1.398 . S
C1280 C1281 1.391 . S
C1281 H1269 0.950 . S
C1281 C1277 1.393 . S
C1281 C1280 1.391 . S
C1282 H1272 0.950 . S
C1282 C1283 1.386 . S
C1282 C1284 1.391 . S
C1283 C1282 1.386 . S
C1283 C1287 1.393 . S
C1284 H1273 0.950 . S
C1284 C1282 1.391 . S
C1284 C1285 1.400 . S
C1285 C1279 1.491 . S
C1285 C1284 1.400 . S
C1285 C1286 1.398 . S
C1286 H1274 0.950 . S
C1286 C1285 1.398 . S
C1286 C1287 1.391 . S
C1287 H1275 0.950 . S
C1287 C1283 1.393 . S
C1287 C1286 1.391 . S
H1288 C1296 0.950 . S
H1289 C1301 0.950 . S
H1290 C1298 0.950 . S
H1291 C1300 0.950 . S
H1292 C1302 0.950 . S
H1293 C1304 0.950 . S
H1294 C1306 0.950 . S
H1295 C1307 0.950 . S
C1296 H1288 0.950 . S
C1296 C1297 1.386 . S
C1296 C1298 1.391 . S
C1297 C1296 1.386 . S
C1297 C1301 1.393 . S
C1298 H1290 0.950 . S
C1298 C1296 1.391 . S
C1298 C1299 1.400 . S
C1299 C1298 1.400 . S
C1299 C1300 1.398 . S
C1299 C1305 1.491 . S
C1300 H1291 0.950 . S
C1300 C1299 1.398 . S
C1300 C1301 1.391 . S
C1301 H1289 0.950 . S
C1301 C1297 1.393 . S
C1301 C1300 1.391 . S
C1302 H1292 0.950 . S
C1302 C1303 1.386 . S
C1302 C1304 1.391 . S
C1303 C1302 1.386 . S
C1303 C1307 1.393 . S
C1304 H1293 0.950 . S
C1304 C1302 1.391 . S
C1304 C1305 1.400 . S
C1305 C1299 1.491 . S
C1305 C1304 1.400 . S
C1305 C1306 1.398 . S
C1306 H1294 0.950 . S
C1306 C1305 1.398 . S
C1306 C1307 1.391 . S
C1307 H1295 0.950 . S
C1307 C1303 1.393 . S
C1307 C1306 1.391 . S
H1308 C1316 0.950 . S
H1309 C1321 0.950 . S
H1310 C1318 0.950 . S
H1311 C1320 0.950 . S
H1312 C1322 0.950 . S
H1313 C1324 0.950 . S
H1314 C1326 0.950 . S
H1315 C1327 0.950 . S
C1316 H1308 0.950 . S
C1316 C1317 1.386 . S
C1316 C1318 1.391 . S
C1317 C1316 1.386 . S
C1317 C1321 1.393 . S
C1318 H1310 0.950 . S
C1318 C1316 1.391 . S
C1318 C1319 1.400 . S
C1319 C1318 1.400 . S
C1319 C1320 1.398 . S
C1319 C1325 1.491 . S
C1320 H1311 0.950 . S
C1320 C1319 1.398 . S
C1320 C1321 1.391 . S
C1321 H1309 0.950 . S
C1321 C1317 1.393 . S
C1321 C1320 1.391 . S
C1322 H1312 0.950 . S
C1322 C1323 1.386 . S
C1322 C1324 1.391 . S
C1323 C1322 1.386 . S
C1323 C1327 1.393 . S
C1324 H1313 0.950 . S
C1324 C1322 1.391 . S
C1324 C1325 1.400 . S
C1325 C1319 1.491 . S
C1325 C1324 1.400 . S
C1325 C1326 1.398 . S
C1326 H1314 0.950 . S
C1326 C1325 1.398 . S
C1326 C1327 1.391 . S
C1327 H1315 0.950 . S
C1327 C1323 1.393 . S
C1327 C1326 1.391 . S
H1328 C1336 0.950 . S
H1329 C1341 0.950 . S
H1330 C1338 0.950 . S
H1331 C1340 0.950 . S
H1332 C1342 0.950 . S
H1333 C1344 0.950 . S
H1334 C1346 0.950 . S
H1335 C1347 0.950 . S
C1336 H1328 0.950 . S
C1336 C1337 1.386 . S
C1336 C1338 1.391 . S
C1337 C1336 1.386 . S
C1337 C1341 1.393 . S
C1338 H1330 0.950 . S
C1338 C1336 1.391 . S
C1338 C1339 1.400 . S
C1339 C1338 1.400 . S
C1339 C1340 1.398 . S
C1339 C1345 1.491 1_556 S
C1340 H1331 0.950 . S
C1340 C1339 1.398 . S
C1340 C1341 1.391 . S
C1341 H1329 0.950 . S
C1341 C1337 1.393 . S
C1341 C1340 1.391 . S
C1342 H1332 0.950 . S
C1342 C1343 1.386 . S
C1342 C1344 1.391 . S
C1343 C1342 1.386 . S
C1343 C1347 1.393 . S
C1344 H1333 0.950 . S
C1344 C1342 1.391 . S
C1344 C1345 1.400 . S
C1345 C1339 1.491 1_554 S
C1345 C1344 1.400 . S
C1345 C1346 1.398 . S
C1346 H1334 0.950 . S
C1346 C1345 1.398 . S
C1346 C1347 1.391 . S
C1347 H1335 0.950 . S
C1347 C1343 1.393 . S
C1347 C1346 1.391 . S
H1348 C1356 0.950 . S
H1349 C1361 0.950 . S
H1350 C1358 0.950 . S
H1351 C1360 0.950 . S
H1352 C1362 0.950 . S
H1353 C1364 0.950 . S
H1354 C1366 0.950 . S
H1355 C1367 0.950 . S
C1356 H1348 0.950 . S
C1356 C1357 1.386 . S
C1356 C1358 1.391 . S
C1357 C1356 1.386 . S
C1357 C1361 1.393 1_655 S
C1358 H1350 0.950 . S
C1358 C1356 1.391 . S
C1358 C1359 1.400 . S
C1359 C1358 1.400 . S
C1359 C1360 1.398 1_655 S
C1359 C1365 1.491 1_655 S
C1360 H1351 0.950 . S
C1360 C1359 1.398 1_455 S
C1360 C1361 1.391 . S
C1361 H1349 0.950 . S
C1361 C1357 1.393 1_455 S
C1361 C1360 1.391 . S
C1362 H1352 0.950 . S
C1362 C1363 1.386 . S
C1362 C1364 1.391 . S
C1363 C1362 1.386 . S
C1363 C1367 1.393 1_455 S
C1364 H1353 0.950 . S
C1364 C1362 1.391 . S
C1364 C1365 1.400 . S
C1365 C1359 1.491 1_455 S
C1365 C1364 1.400 . S
C1365 C1366 1.398 1_455 S
C1366 H1354 0.950 . S
C1366 C1365 1.398 1_655 S
C1366 C1367 1.391 . S
C1367 H1355 0.950 . S
C1367 C1363 1.393 1_655 S
C1367 C1366 1.391 . S
H1368 C1376 0.950 . S
H1369 C1381 0.950 . S
H1370 C1378 0.950 . S
H1371 C1380 0.950 . S
H1372 C1382 0.950 . S
H1373 C1384 0.950 . S
H1374 C1386 0.950 . S
H1375 C1387 0.950 . S
C1376 H1368 0.950 . S
C1376 C1377 1.386 . S
C1376 C1378 1.391 . S
C1377 C1376 1.386 . S
C1377 C1381 1.393 1_455 S
C1378 H1370 0.950 . S
C1378 C1376 1.391 . S
C1378 C1379 1.400 . S
C1379 C1378 1.400 . S
C1379 C1380 1.398 1_455 S
C1379 C1385 1.491 1_454 S
C1380 H1371 0.950 . S
C1380 C1379 1.398 1_655 S
C1380 C1381 1.391 . S
C1381 H1369 0.950 . S
C1381 C1377 1.393 1_655 S
C1381 C1380 1.391 . S
C1382 H1372 0.950 . S
C1382 C1383 1.386 . S
C1382 C1384 1.391 . S
C1383 C1382 1.386 . S
C1383 C1387 1.393 1_655 S
C1384 H1373 0.950 . S
C1384 C1382 1.391 . S
C1384 C1385 1.400 . S
C1385 C1379 1.491 1_656 S
C1385 C1384 1.400 . S
C1385 C1386 1.398 1_655 S
C1386 H1374 0.950 . S
C1386 C1385 1.398 1_455 S
C1386 C1387 1.391 . S
C1387 H1375 0.950 . S
C1387 C1383 1.393 1_455 S
C1387 C1386 1.391 . S
H1388 C1396 0.950 . S
H1389 C1401 0.950 . S
H1390 C1398 0.950 . S
H1391 C1400 0.950 . S
H1392 C1402 0.950 . S
H1393 C1404 0.950 . S
H1394 C1406 0.950 . S
H1395 C1407 0.950 . S
C1396 H1388 0.950 . S
C1396 C1397 1.386 . S
C1396 C1398 1.391 . S
C1397 C1396 1.386 . S
C1397 C1401 1.393 . S
C1398 H1390 0.950 . S
C1398 C1396 1.391 . S
C1398 C1399 1.400 . S
C1399 C1398 1.400 . S
C1399 C1400 1.398 . S
C1399 C1405 1.491 . S
C1400 H1391 0.950 . S
C1400 C1399 1.398 . S
C1400 C1401 1.391 . S
C1401 H1389 0.950 . S
C1401 C1397 1.393 . S
C1401 C1400 1.391 . S
C1402 H1392 0.950 . S
C1402 C1403 1.386 . S
C1402 C1404 1.391 . S
C1403 C1402 1.386 . S
C1403 C1407 1.393 . S
C1404 H1393 0.950 . S
C1404 C1402 1.391 . S
C1404 C1405 1.400 . S
C1405 C1399 1.491 . S
C1405 C1404 1.400 . S
C1405 C1406 1.398 . S
C1406 H1394 0.950 . S
C1406 C1405 1.398 . S
C1406 C1407 1.391 . S
C1407 H1395 0.950 . S
C1407 C1403 1.393 . S
C1407 C1406 1.391 . S
H1408 C1416 0.950 . S
H1409 C1421 0.950 . S
H1410 C1418 0.950 . S
H1411 C1420 0.950 . S
H1412 C1422 0.950 . S
H1413 C1424 0.950 . S
H1414 C1426 0.950 . S
H1415 C1427 0.950 . S
C1416 H1408 0.950 . S
C1416 C1417 1.386 . S
C1416 C1418 1.391 . S
C1417 C1416 1.386 . S
C1417 C1421 1.393 . S
C1418 H1410 0.950 . S
C1418 C1416 1.391 . S
C1418 C1419 1.400 . S
C1419 C1418 1.400 . S
C1419 C1420 1.398 . S
C1419 C1425 1.491 . S
C1420 H1411 0.950 . S
C1420 C1419 1.398 . S
C1420 C1421 1.391 . S
C1421 H1409 0.950 . S
C1421 C1417 1.393 . S
C1421 C1420 1.391 . S
C1422 H1412 0.950 . S
C1422 C1423 1.386 . S
C1422 C1424 1.391 . S
C1423 C1422 1.386 . S
C1423 C1427 1.393 . S
C1424 H1413 0.950 . S
C1424 C1422 1.391 . S
C1424 C1425 1.400 . S
C1425 C1419 1.491 . S
C1425 C1424 1.400 . S
C1425 C1426 1.398 . S
C1426 H1414 0.950 . S
C1426 C1425 1.398 . S
C1426 C1427 1.391 . S
C1427 H1415 0.950 . S
C1427 C1423 1.393 . S
C1427 C1426 1.391 . S
H1428 C1436 0.950 . S
H1429 C1441 0.950 . S
H1430 C1438 0.950 . S
H1431 C1440 0.950 . S
H1432 C1442 0.950 . S
H1433 C1444 0.950 . S
H1434 C1446 0.950 . S
H1435 C1447 0.950 . S
C1436 H1428 0.950 . S
C1436 C1437 1.386 . S
C1436 C1438 1.391 . S
C1437 C1436 1.386 . S
C1437 C1441 1.393 . S
C1438 H1430 0.950 . S
C1438 C1436 1.391 . S
C1438 C1439 1.400 . S
C1439 C1438 1.400 . S
C1439 C1440 1.398 . S
C1439 C1445 1.491 . S
C1440 H1431 0.950 . S
C1440 C1439 1.398 . S
C1440 C1441 1.391 . S
C1441 H1429 0.950 . S
C1441 C1437 1.393 . S
C1441 C1440 1.391 . S
C1442 H1432 0.950 . S
C1442 C1443 1.386 . S
C1442 C1444 1.391 . S
C1443 C1442 1.386 . S
C1443 C1447 1.393 . S
C1444 H1433 0.950 . S
C1444 C1442 1.391 . S
C1444 C1445 1.400 . S
C1445 C1439 1.491 . S
C1445 C1444 1.400 . S
C1445 C1446 1.398 . S
C1446 H1434 0.950 . S
C1446 C1445 1.398 . S
C1446 C1447 1.391 . S
C1447 H1435 0.950 . S
C1447 C1443 1.393 . S
C1447 C1446 1.391 . S
H1448 C1456 0.950 . S
H1449 C1461 0.950 . S
H1450 C1458 0.950 . S
H1451 C1460 0.950 . S
H1452 C1462 0.950 . S
H1453 C1464 0.950 . S
H1454 C1466 0.950 . S
H1455 C1467 0.950 . S
C1456 H1448 0.950 . S
C1456 C1457 1.386 . S
C1456 C1458 1.391 . S
C1457 C1456 1.386 . S
C1457 C1461 1.393 . S
C1458 H1450 0.950 . S
C1458 C1456 1.391 . S
C1458 C1459 1.400 . S
C1459 C1458 1.400 . S
C1459 C1460 1.398 . S
C1459 C1465 1.491 . S
C1460 H1451 0.950 . S
C1460 C1459 1.398 . S
C1460 C1461 1.391 . S
C1461 H1449 0.950 . S
C1461 C1457 1.393 . S
C1461 C1460 1.391 . S
C1462 H1452 0.950 . S
C1462 C1463 1.386 . S
C1462 C1464 1.391 . S
C1463 C1462 1.386 . S
C1463 C1467 1.393 . S
C1464 H1453 0.950 . S
C1464 C1462 1.391 . S
C1464 C1465 1.400 . S
C1465 C1459 1.491 . S
C1465 C1464 1.400 . S
C1465 C1466 1.398 . S
C1466 H1454 0.950 . S
C1466 C1465 1.398 . S
C1466 C1467 1.391 . S
C1467 H1455 0.950 . S
C1467 C1463 1.393 . S
C1467 C1466 1.391 . S
H1468 C1476 0.950 . S
H1469 C1481 0.950 . S
H1470 C1478 0.950 . S
H1471 C1480 0.950 . S
H1472 C1482 0.950 . S
H1473 C1484 0.950 . S
H1474 C1486 0.950 . S
H1475 C1487 0.950 . S
C1476 H1468 0.950 . S
C1476 C1477 1.386 . S
C1476 C1478 1.391 . S
C1477 C1476 1.386 . S
C1477 C1481 1.393 . S
C1478 H1470 0.950 . S
C1478 C1476 1.391 . S
C1478 C1479 1.400 . S
C1479 C1478 1.400 . S
C1479 C1480 1.398 . S
C1479 C1485 1.491 . S
C1480 H1471 0.950 . S
C1480 C1479 1.398 . S
C1480 C1481 1.391 . S
C1481 H1469 0.950 . S
C1481 C1477 1.393 . S
C1481 C1480 1.391 . S
C1482 H1472 0.950 . S
C1482 C1483 1.386 . S
C1482 C1484 1.391 . S
C1483 C1482 1.386 . S
C1483 C1487 1.393 . S
C1484 H1473 0.950 . S
C1484 C1482 1.391 . S
C1484 C1485 1.400 . S
C1485 C1479 1.491 . S
C1485 C1484 1.400 . S
C1485 C1486 1.398 . S
C1486 H1474 0.950 . S
C1486 C1485 1.398 . S
C1486 C1487 1.391 . S
C1487 H1475 0.950 . S
C1487 C1483 1.393 . S
C1487 C1486 1.391 . S
H1488 C1496 0.950 . S
H1489 C1501 0.950 . S
H1490 C1498 0.950 . S
H1491 C1500 0.950 . S
H1492 C1502 0.950 . S
H1493 C1504 0.950 . S
H1494 C1506 0.950 . S
H1495 C1507 0.950 . S
C1496 H1488 0.950 . S
C1496 C1497 1.386 . S
C1496 C1498 1.391 . S
C1497 C1496 1.386 . S
C1497 C1501 1.393 . S
C1498 H1490 0.950 . S
C1498 C1496 1.391 . S
C1498 C1499 1.400 . S
C1499 C1498 1.400 . S
C1499 C1500 1.398 . S
C1499 C1505 1.491 . S
C1500 H1491 0.950 . S
C1500 C1499 1.398 . S
C1500 C1501 1.391 . S
C1501 H1489 0.950 . S
C1501 C1497 1.393 . S
C1501 C1500 1.391 . S
C1502 H1492 0.950 . S
C1502 C1503 1.386 . S
C1502 C1504 1.391 . S
C1503 C1502 1.386 . S
C1503 C1507 1.393 . S
C1504 H1493 0.950 . S
C1504 C1502 1.391 . S
C1504 C1505 1.400 . S
C1505 C1499 1.491 . S
C1505 C1504 1.400 . S
C1505 C1506 1.398 . S
C1506 H1494 0.950 . S
C1506 C1505 1.398 . S
C1506 C1507 1.391 . S
C1507 H1495 0.950 . S
C1507 C1503 1.393 . S
C1507 C1506 1.391 . S
H1508 C1516 0.950 . S
H1509 C1521 0.950 . S
H1510 C1518 0.950 . S
H1511 C1520 0.950 . S
H1512 C1522 0.950 . S
H1513 C1524 0.950 . S
H1514 C1526 0.950 . S
H1515 C1527 0.950 . S
C1516 H1508 0.950 . S
C1516 C1517 1.386 . S
C1516 C1518 1.391 . S
C1517 C1516 1.386 . S
C1517 C1521 1.393 . S
C1518 H1510 0.950 . S
C1518 C1516 1.391 . S
C1518 C1519 1.400 . S
C1519 C1518 1.400 . S
C1519 C1520 1.398 . S
C1519 C1525 1.491 . S
C1520 H1511 0.950 . S
C1520 C1519 1.398 . S
C1520 C1521 1.391 . S
C1521 H1509 0.950 . S
C1521 C1517 1.393 . S
C1521 C1520 1.391 . S
C1522 H1512 0.950 . S
C1522 C1523 1.386 . S
C1522 C1524 1.391 . S
C1523 C1522 1.386 . S
C1523 C1527 1.393 . S
C1524 H1513 0.950 . S
C1524 C1522 1.391 . S
C1524 C1525 1.400 . S
C1525 C1519 1.491 . S
C1525 C1524 1.400 . S
C1525 C1526 1.398 . S
C1526 H1514 0.950 . S
C1526 C1525 1.398 . S
C1526 C1527 1.391 . S
C1527 H1515 0.950 . S
C1527 C1523 1.393 . S
C1527 C1526 1.391 . S
H1528 C1536 0.950 . S
H1529 C1541 0.950 . S
H1530 C1538 0.950 . S
H1531 C1540 0.950 . S
H1532 C1542 0.950 . S
H1533 C1544 0.950 . S
H1534 C1546 0.950 . S
H1535 C1547 0.950 . S
C1536 H1528 0.950 . S
C1536 C1537 1.386 . S
C1536 C1538 1.391 . S
C1537 C1536 1.386 . S
C1537 C1541 1.393 . S
C1538 H1530 0.950 . S
C1538 C1536 1.391 . S
C1538 C1539 1.400 . S
C1539 C1538 1.400 . S
C1539 C1540 1.398 . S
C1539 C1545 1.491 . S
C1540 H1531 0.950 . S
C1540 C1539 1.398 . S
C1540 C1541 1.391 . S
C1541 H1529 0.950 . S
C1541 C1537 1.393 . S
C1541 C1540 1.391 . S
C1542 H1532 0.950 . S
C1542 C1543 1.386 . S
C1542 C1544 1.391 . S
C1543 C1542 1.386 . S
C1543 C1547 1.393 . S
C1544 H1533 0.950 . S
C1544 C1542 1.391 . S
C1544 C1545 1.400 . S
C1545 C1539 1.491 . S
C1545 C1544 1.400 . S
C1545 C1546 1.398 . S
C1546 H1534 0.950 . S
C1546 C1545 1.398 . S
C1546 C1547 1.391 . S
C1547 H1535 0.950 . S
C1547 C1543 1.393 . S
C1547 C1546 1.391 . S
H1548 C1556 0.950 . S
H1549 C1561 0.950 . S
H1550 C1558 0.950 . S
H1551 C1560 0.950 . S
H1552 C1562 0.950 . S
H1553 C1564 0.950 . S
H1554 C1566 0.950 . S
H1555 C1567 0.950 . S
C1556 H1548 0.950 . S
C1556 C1557 1.386 . S
C1556 C1558 1.391 . S
C1557 C1556 1.386 . S
C1557 C1561 1.393 . S
C1558 H1550 0.950 . S
C1558 C1556 1.391 . S
C1558 C1559 1.400 . S
C1559 C1558 1.400 . S
C1559 C1560 1.398 . S
C1559 C1565 1.491 . S
C1560 H1551 0.950 . S
C1560 C1559 1.398 . S
C1560 C1561 1.391 . S
C1561 H1549 0.950 . S
C1561 C1557 1.393 . S
C1561 C1560 1.391 . S
C1562 H1552 0.950 . S
C1562 C1563 1.386 . S
C1562 C1564 1.391 . S
C1563 C1562 1.386 . S
C1563 C1567 1.393 . S
C1564 H1553 0.950 . S
C1564 C1562 1.391 . S
C1564 C1565 1.400 . S
C1565 C1559 1.491 . S
C1565 C1564 1.400 . S
C1565 C1566 1.398 . S
C1566 H1554 0.950 . S
C1566 C1565 1.398 . S
C1566 C1567 1.391 . S
C1567 H1555 0.950 . S
C1567 C1563 1.393 . S
C1567 C1566 1.391 . S
H1568 C1576 0.950 . S
H1569 C1581 0.950 . S
H1570 C1578 0.950 . S
H1571 C1580 0.950 . S
H1572 C1582 0.950 . S
H1573 C1584 0.950 . S
H1574 C1586 0.950 . S
H1575 C1587 0.950 . S
C1576 H1568 0.950 . S
C1576 C1577 1.386 . S
C1576 C1578 1.391 . S
C1577 C1576 1.386 . S
C1577 C1581 1.393 . S
C1578 H1570 0.950 . S
C1578 C1576 1.391 . S
C1578 C1579 1.400 . S
C1579 C1578 1.400 . S
C1579 C1580 1.398 . S
C1579 C1585 1.491 . S
C1580 H1571 0.950 . S
C1580 C1579 1.398 . S
C1580 C1581 1.391 . S
C1581 H1569 0.950 . S
C1581 C1577 1.393 . S
C1581 C1580 1.391 . S
C1582 H1572 0.950 . S
C1582 C1583 1.386 . S
C1582 C1584 1.391 . S
C1583 C1582 1.386 . S
C1583 C1587 1.393 . S
C1584 H1573 0.950 . S
C1584 C1582 1.391 . S
C1584 C1585 1.400 . S
C1585 C1579 1.491 . S
C1585 C1584 1.400 . S
C1585 C1586 1.398 . S
C1586 H1574 0.950 . S
C1586 C1585 1.398 . S
C1586 C1587 1.391 . S
C1587 H1575 0.950 . S
C1587 C1583 1.393 . S
C1587 C1586 1.391 . S
H1588 C1596 0.950 . S
H1589 C1601 0.950 . S
H1590 C1598 0.950 . S
H1591 C1600 0.950 . S
H1592 C1602 0.950 . S
H1593 C1604 0.950 . S
H1594 C1606 0.950 . S
H1595 C1607 0.950 . S
C1596 H1588 0.950 . S
C1596 C1597 1.386 . S
C1596 C1598 1.391 . S
C1597 C1596 1.386 . S
C1597 C1601 1.393 . S
C1598 H1590 0.950 . S
C1598 C1596 1.391 . S
C1598 C1599 1.400 . S
C1599 C1598 1.400 . S
C1599 C1600 1.398 . S
C1599 C1605 1.491 . S
C1600 H1591 0.950 . S
C1600 C1599 1.398 . S
C1600 C1601 1.391 . S
C1601 H1589 0.950 . S
C1601 C1597 1.393 . S
C1601 C1600 1.391 . S
C1602 H1592 0.950 . S
C1602 C1603 1.386 . S
C1602 C1604 1.391 . S
C1603 C1602 1.386 . S
C1603 C1607 1.393 . S
C1604 H1593 0.950 . S
C1604 C1602 1.391 . S
C1604 C1605 1.400 . S
C1605 C1599 1.491 . S
C1605 C1604 1.400 . S
C1605 C1606 1.398 . S
C1606 H1594 0.950 . S
C1606 C1605 1.398 . S
C1606 C1607 1.391 . S
C1607 H1595 0.950 . S
C1607 C1603 1.393 . S
C1607 C1606 1.391 . S
H1608 C1616 0.950 . S
H1609 C1621 0.950 . S
H1610 C1618 0.950 . S
H1611 C1620 0.950 . S
H1612 C1622 0.950 . S
H1613 C1624 0.950 . S
H1614 C1626 0.950 . S
H1615 C1627 0.950 . S
C1616 H1608 0.950 . S
C1616 C1617 1.386 . S
C1616 C1618 1.391 . S
C1617 C1616 1.386 . S
C1617 C1621 1.393 . S
C1618 H1610 0.950 . S
C1618 C1616 1.391 . S
C1618 C1619 1.400 . S
C1619 C1618 1.400 . S
C1619 C1620 1.398 . S
C1619 C1625 1.491 . S
C1620 H1611 0.950 . S
C1620 C1619 1.398 . S
C1620 C1621 1.391 . S
C1621 H1609 0.950 . S
C1621 C1617 1.393 . S
C1621 C1620 1.391 . S
C1622 H1612 0.950 . S
C1622 C1623 1.386 . S
C1622 C1624 1.391 . S
C1623 C1622 1.386 . S
C1623 C1627 1.393 . S
C1624 H1613 0.950 . S
C1624 C1622 1.391 . S
C1624 C1625 1.400 . S
C1625 C1619 1.491 . S
C1625 C1624 1.400 . S
C1625 C1626 1.398 . S
C1626 H1614 0.950 . S
C1626 C1625 1.398 . S
C1626 C1627 1.391 . S
C1627 H1615 0.950 . S
C1627 C1623 1.393 . S
C1627 C1626 1.391 . S
H1628 C1636 0.950 . S
H1629 C1641 0.950 . S
H1630 C1638 0.950 . S
H1631 C1640 0.950 . S
H1632 C1642 0.950 . S
H1633 C1644 0.950 . S
H1634 C1646 0.950 . S
H1635 C1647 0.950 . S
C1636 H1628 0.950 . S
C1636 C1637 1.386 . S
C1636 C1638 1.391 . S
C1637 C1636 1.386 . S
C1637 C1641 1.393 . S
C1638 H1630 0.950 . S
C1638 C1636 1.391 . S
C1638 C1639 1.400 . S
C1639 C1638 1.400 . S
C1639 C1640 1.398 . S
C1639 C1645 1.491 . S
C1640 H1631 0.950 . S
C1640 C1639 1.398 . S
C1640 C1641 1.391 . S
C1641 H1629 0.950 . S
C1641 C1637 1.393 . S
C1641 C1640 1.391 . S
C1642 H1632 0.950 . S
C1642 C1643 1.386 . S
C1642 C1644 1.391 . S
C1643 C1642 1.386 . S
C1643 C1647 1.393 . S
C1644 H1633 0.950 . S
C1644 C1642 1.391 . S
C1644 C1645 1.400 . S
C1645 C1639 1.491 . S
C1645 C1644 1.400 . S
C1645 C1646 1.398 . S
C1646 H1634 0.950 . S
C1646 C1645 1.398 . S
C1646 C1647 1.391 . S
C1647 H1635 0.950 . S
C1647 C1643 1.393 . S
C1647 C1646 1.391 . S
H1648 C1656 0.950 . S
H1649 C1661 0.950 . S
H1650 C1658 0.950 . S
H1651 C1660 0.950 . S
H1652 C1662 0.950 . S
H1653 C1664 0.950 . S
H1654 C1666 0.950 . S
H1655 C1667 0.950 . S
C1656 H1648 0.950 . S
C1656 C1657 1.386 . S
C1656 C1658 1.391 . S
C1657 C1656 1.386 . S
C1657 C1661 1.393 . S
C1658 H1650 0.950 . S
C1658 C1656 1.391 . S
C1658 C1659 1.400 . S
C1659 C1658 1.400 . S
C1659 C1660 1.398 . S
C1659 C1665 1.491 . S
C1660 H1651 0.950 . S
C1660 C1659 1.398 . S
C1660 C1661 1.391 . S
C1661 H1649 0.950 . S
C1661 C1657 1.393 . S
C1661 C1660 1.391 . S
C1662 H1652 0.950 . S
C1662 C1663 1.386 . S
C1662 C1664 1.391 . S
C1663 C1662 1.386 . S
C1663 C1667 1.393 . S
C1664 H1653 0.950 . S
C1664 C1662 1.391 . S
C1664 C1665 1.400 . S
C1665 C1659 1.491 . S
C1665 C1664 1.400 . S
C1665 C1666 1.398 . S
C1666 H1654 0.950 . S
C1666 C1665 1.398 . S
C1666 C1667 1.391 . S
C1667 H1655 0.950 . S
C1667 C1663 1.393 . S
C1667 C1666 1.391 . S
H1668 C1676 0.950 . S
H1669 C1681 0.950 . S
H1670 C1678 0.950 . S
H1671 C1680 0.950 . S
H1672 C1682 0.950 . S
H1673 C1684 0.950 . S
H1674 C1686 0.950 . S
H1675 C1687 0.950 . S
C1676 H1668 0.950 . S
C1676 C1677 1.386 . S
C1676 C1678 1.391 . S
C1677 C1676 1.386 . S
C1677 C1681 1.393 . S
C1678 H1670 0.950 . S
C1678 C1676 1.391 . S
C1678 C1679 1.400 . S
C1679 C1678 1.400 . S
C1679 C1680 1.398 . S
C1679 C1685 1.491 . S
C1680 H1671 0.950 . S
C1680 C1679 1.398 . S
C1680 C1681 1.391 . S
C1681 H1669 0.950 . S
C1681 C1677 1.393 . S
C1681 C1680 1.391 . S
C1682 H1672 0.950 . S
C1682 C1683 1.386 . S
C1682 C1684 1.391 . S
C1683 C1682 1.386 . S
C1683 C1687 1.393 . S
C1684 H1673 0.950 . S
C1684 C1682 1.391 . S
C1684 C1685 1.400 . S
C1685 C1679 1.491 . S
C1685 C1684 1.400 . S
C1685 C1686 1.398 . S
C1686 H1674 0.950 . S
C1686 C1685 1.398 . S
C1686 C1687 1.391 . S
C1687 H1675 0.950 . S
C1687 C1683 1.393 . S
C1687 C1686 1.391 . S
H1688 C1696 0.950 . S
H1689 C1701 0.950 . S
H1690 C1698 0.950 . S
H1691 C1700 0.950 . S
H1692 C1702 0.950 . S
H1693 C1704 0.950 . S
H1694 C1706 0.950 . S
H1695 C1707 0.950 . S
C1696 H1688 0.950 . S
C1696 C1697 1.386 . S
C1696 C1698 1.391 . S
C1697 C1696 1.386 . S
C1697 C1701 1.393 . S
C1698 H1690 0.950 . S
C1698 C1696 1.391 . S
C1698 C1699 1.400 . S
C1699 C1698 1.400 . S
C1699 C1700 1.398 . S
C1699 C1705 1.491 . S
C1700 H1691 0.950 . S
C1700 C1699 1.398 . S
C1700 C1701 1.391 . S
C1701 H1689 0.950 . S
C1701 C1697 1.393 . S
C1701 C1700 1.391 . S
C1702 H1692 0.950 . S
C1702 C1703 1.386 . S
C1702 C1704 1.391 . S
C1703 C1702 1.386 . S
C1703 C1707 1.393 . S
C1704 H1693 0.950 . S
C1704 C1702 1.391 . S
C1704 C1705 1.400 . S
C1705 C1699 1.491 . S
C1705 C1704 1.400 . S
C1705 C1706 1.398 . S
C1706 H1694 0.950 . S
C1706 C1705 1.398 . S
C1706 C1707 1.391 . S
C1707 H1695 0.950 . S
C1707 C1703 1.393 . S
C1707 C1706 1.391 . S
H1708 C1716 0.950 . S
H1709 C1721 0.950 . S
H1710 C1718 0.950 . S
H1711 C1720 0.950 . S
H1712 C1722 0.950 . S
H1713 C1724 0.950 . S
H1714 C1726 0.950 . S
H1715 C1727 0.950 . S
C1716 H1708 0.950 . S
C1716 C1717 1.386 . S
C1716 C1718 1.391 . S
C1717 C1716 1.386 . S
C1717 C1721 1.393 . S
C1718 H1710 0.950 . S
C1718 C1716 1.391 . S
C1718 C1719 1.400 . S
C1719 C1718 1.400 . S
C1719 C1720 1.398 . S
C1719 C1725 1.491 . S
C1720 H1711 0.950 . S
C1720 C1719 1.398 . S
C1720 C1721 1.391 . S
C1721 H1709 0.950 . S
C1721 C1717 1.393 . S
C1721 C1720 1.391 . S
C1722 H1712 0.950 . S
C1722 C1723 1.386 . S
C1722 C1724 1.391 . S
C1723 C1722 1.386 . S
C1723 C1727 1.393 . S
C1724 H1713 0.950 . S
C1724 C1722 1.391 . S
C1724 C1725 1.400 . S
C1725 C1719 1.491 . S
C1725 C1724 1.400 . S
C1725 C1726 1.398 . S
C1726 H1714 0.950 . S
C1726 C1725 1.398 . S
C1726 C1727 1.391 . S
C1727 H1715 0.950 . S
C1727 C1723 1.393 . S
C1727 C1726 1.391 . S
H1728 C1736 0.950 . S
H1729 C1741 0.950 . S
H1730 C1738 0.950 . S
H1731 C1740 0.950 . S
H1732 C1742 0.950 . S
H1733 C1744 0.950 . S
H1734 C1746 0.950 . S
H1735 C1747 0.950 . S
C1736 H1728 0.950 . S
C1736 C1737 1.386 . S
C1736 C1738 1.391 . S
C1737 C1736 1.386 . S
C1737 C1741 1.393 . S
C1738 H1730 0.950 . S
C1738 C1736 1.391 . S
C1738 C1739 1.400 . S
C1739 C1738 1.400 . S
C1739 C1740 1.398 . S
C1739 C1745 1.491 . S
C1740 H1731 0.950 . S
C1740 C1739 1.398 . S
C1740 C1741 1.391 . S
C1741 H1729 0.950 . S
C1741 C1737 1.393 . S
C1741 C1740 1.391 . S
C1742 H1732 0.950 . S
C1742 C1743 1.386 . S
C1742 C1744 1.391 . S
C1743 C1742 1.386 . S
C1743 C1747 1.393 . S
C1744 H1733 0.950 . S
C1744 C1742 1.391 . S
C1744 C1745 1.400 . S
C1745 C1739 1.491 . S
C1745 C1744 1.400 . S
C1745 C1746 1.398 . S
C1746 H1734 0.950 . S
C1746 C1745 1.398 . S
C1746 C1747 1.391 . S
C1747 H1735 0.950 . S
C1747 C1743 1.393 . S
C1747 C1746 1.391 . S
H1748 C1756 0.950 . S
H1749 C1761 0.950 . S
H1750 C1758 0.950 . S
H1751 C1760 0.950 . S
H1752 C1762 0.950 . S
H1753 C1764 0.950 . S
H1754 C1766 0.950 . S
H1755 C1767 0.950 . S
C1756 H1748 0.950 . S
C1756 C1757 1.386 . S
C1756 C1758 1.391 . S
C1757 C1756 1.386 . S
C1757 C1761 1.393 . S
C1758 H1750 0.950 . S
C1758 C1756 1.391 . S
C1758 C1759 1.400 . S
C1759 C1758 1.400 . S
C1759 C1760 1.398 . S
C1759 C1765 1.491 . S
C1760 H1751 0.950 . S
C1760 C1759 1.398 . S
C1760 C1761 1.391 . S
C1761 H1749 0.950 . S
C1761 C1757 1.393 . S
C1761 C1760 1.391 . S
C1762 H1752 0.950 . S
C1762 C1763 1.386 . S
C1762 C1764 1.391 . S
C1763 C1762 1.386 . S
C1763 C1767 1.393 . S
C1764 H1753 0.950 . S
C1764 C1762 1.391 . S
C1764 C1765 1.400 . S
C1765 C1759 1.491 . S
C1765 C1764 1.400 . S
C1765 C1766 1.398 . S
C1766 H1754 0.950 . S
C1766 C1765 1.398 . S
C1766 C1767 1.391 . S
C1767 H1755 0.950 . S
C1767 C1763 1.393 . S
C1767 C1766 1.391 . S
H1768 C1776 0.950 . S
H1769 C1781 0.950 . S
H1770 C1778 0.950 . S
H1771 C1780 0.950 . S
H1772 C1782 0.950 . S
H1773 C1784 0.950 . S
H1774 C1786 0.950 . S
H1775 C1787 0.950 . S
C1776 H1768 0.950 . S
C1776 C1777 1.386 . S
C1776 C1778 1.391 . S
C1777 C1776 1.386 . S
C1777 C1781 1.393 . S
C1778 H1770 0.950 . S
C1778 C1776 1.391 . S
C1778 C1779 1.400 . S
C1779 C1778 1.400 . S
C1779 C1780 1.398 . S
C1779 C1785 1.491 . S
C1780 H1771 0.950 . S
C1780 C1779 1.398 . S
C1780 C1781 1.391 . S
C1781 H1769 0.950 . S
C1781 C1777 1.393 . S
C1781 C1780 1.391 . S
C1782 H1772 0.950 . S
C1782 C1783 1.386 . S
C1782 C1784 1.391 . S
C1783 C1782 1.386 . S
C1783 C1787 1.393 . S
C1784 H1773 0.950 . S
C1784 C1782 1.391 . S
C1784 C1785 1.400 . S
C1785 C1779 1.491 . S
C1785 C1784 1.400 . S
C1785 C1786 1.398 . S
C1786 H1774 0.950 . S
C1786 C1785 1.398 . S
C1786 C1787 1.391 . S
C1787 H1775 0.950 . S
C1787 C1783 1.393 . S
C1787 C1786 1.391 . S
H1788 C1796 0.950 . S
H1789 C1801 0.950 . S
H1790 C1798 0.950 . S
H1791 C1800 0.950 . S
H1792 C1802 0.950 . S
H1793 C1804 0.950 . S
H1794 C1806 0.950 . S
H1795 C1807 0.950 . S
C1796 H1788 0.950 . S
C1796 C1797 1.386 . S
C1796 C1798 1.391 . S
C1797 C1796 1.386 . S
C1797 C1801 1.393 . S
C1798 H1790 0.950 . S
C1798 C1796 1.391 . S
C1798 C1799 1.400 . S
C1799 C1798 1.400 . S
C1799 C1800 1.398 . S
C1799 C1805 1.491 . S
C1800 H1791 0.950 . S
C1800 C1799 1.398 . S
C1800 C1801 1.391 . S
C1801 H1789 0.950 . S
C1801 C1797 1.393 . S
C1801 C1800 1.391 . S
C1802 H1792 0.950 . S
C1802 C1803 1.386 . S
C1802 C1804 1.391 . S
C1803 C1802 1.386 . S
C1803 C1807 1.393 . S
C1804 H1793 0.950 . S
C1804 C1802 1.391 . S
C1804 C1805 1.400 . S
C1805 C1799 1.491 . S
C1805 C1804 1.400 . S
C1805 C1806 1.398 . S
C1806 H1794 0.950 . S
C1806 C1805 1.398 . S
C1806 C1807 1.391 . S
C1807 H1795 0.950 . S
C1807 C1803 1.393 . S
C1807 C1806 1.391 . S
H1808 C1816 0.950 . S
H1809 C1821 0.950 . S
H1810 C1818 0.950 . S
H1811 C1820 0.950 . S
H1812 C1822 0.950 . S
H1813 C1824 0.950 . S
H1814 C1826 0.950 . S
H1815 C1827 0.950 . S
C1816 H1808 0.950 . S
C1816 C1817 1.386 . S
C1816 C1818 1.391 . S
C1817 C1816 1.386 . S
C1817 C1821 1.393 . S
C1818 H1810 0.950 . S
C1818 C1816 1.391 . S
C1818 C1819 1.400 . S
C1819 C1818 1.400 . S
C1819 C1820 1.398 . S
C1819 C1825 1.491 . S
C1820 H1811 0.950 . S
C1820 C1819 1.398 . S
C1820 C1821 1.391 . S
C1821 H1809 0.950 . S
C1821 C1817 1.393 . S
C1821 C1820 1.391 . S
C1822 H1812 0.950 . S
C1822 C1823 1.386 . S
C1822 C1824 1.391 . S
C1823 C1822 1.386 . S
C1823 C1827 1.393 . S
C1824 H1813 0.950 . S
C1824 C1822 1.391 . S
C1824 C1825 1.400 . S
C1825 C1819 1.491 . S
C1825 C1824 1.400 . S
C1825 C1826 1.398 . S
C1826 H1814 0.950 . S
C1826 C1825 1.398 . S
C1826 C1827 1.391 . S
C1827 H1815 0.950 . S
C1827 C1823 1.393 . S
C1827 C1826 1.391 . S
H1828 C1836 0.950 . S
H1829 C1841 0.950 . S
H1830 C1838 0.950 . S
H1831 C1840 0.950 . S
H1832 C1842 0.950 . S
H1833 C1844 0.950 . S
H1834 C1846 0.950 . S
H1835 C1847 0.950 . S
C1836 H1828 0.950 . S
C1836 C1837 1.386 . S
C1836 C1838 1.391 . S
C1837 C1836 1.386 . S
C1837 C1841 1.393 . S
C1838 H1830 0.950 . S
C1838 C1836 1.391 . S
C1838 C1839 1.400 . S
C1839 C1838 1.400 . S
C1839 C1840 1.398 . S
C1839 C1845 1.491 . S
C1840 H1831 0.950 . S
C1840 C1839 1.398 . S
C1840 C1841 1.391 . S
C1841 H1829 0.950 . S
C1841 C1837 1.393 . S
C1841 C1840 1.391 . S
C1842 H1832 0.950 . S
C1842 C1843 1.386 . S
C1842 C1844 1.391 . S
C1843 C1842 1.386 . S
C1843 C1847 1.393 . S
C1844 H1833 0.950 . S
C1844 C1842 1.391 . S
C1844 C1845 1.400 . S
C1845 C1839 1.491 . S
C1845 C1844 1.400 . S
C1845 C1846 1.398 . S
C1846 H1834 0.950 . S
C1846 C1845 1.398 . S
C1846 C1847 1.391 . S
C1847 H1835 0.950 . S
C1847 C1843 1.393 . S
C1847 C1846 1.391 . S
H1848 C1856 0.950 . S
H1849 C1861 0.950 . S
H1850 C1858 0.950 . S
H1851 C1860 0.950 . S
H1852 C1862 0.950 . S
H1853 C1864 0.950 . S
H1854 C1866 0.950 . S
H1855 C1867 0.950 . S
C1856 H1848 0.950 . S
C1856 C1857 1.386 . S
C1856 C1858 1.391 . S
C1857 C1856 1.386 . S
C1857 C1861 1.393 . S
C1858 H1850 0.950 . S
C1858 C1856 1.391 . S
C1858 C1859 1.400 . S
C1859 C1858 1.400 . S
C1859 C1860 1.398 . S
C1859 C1865 1.491 . S
C1860 H1851 0.950 . S
C1860 C1859 1.398 . S
C1860 C1861 1.391 . S
C1861 H1849 0.950 . S
C1861 C1857 1.393 . S
C1861 C1860 1.391 . S
C1862 H1852 0.950 . S
C1862 C1863 1.386 . S
C1862 C1864 1.391 . S
C1863 C1862 1.386 . S
C1863 C1867 1.393 . S
C1864 H1853 0.950 . S
C1864 C1862 1.391 . S
C1864 C1865 1.400 . S
C1865 C1859 1.491 . S
C1865 C1864 1.400 . S
C1865 C1866 1.398 . S
C1866 H1854 0.950 . S
C1866 C1865 1.398 . S
C1866 C1867 1.391 . S
C1867 H1855 0.950 . S
C1867 C1863 1.393 . S
C1867 C1866 1.391 . S
H1868 C1876 0.950 . S
H1869 C1881 0.950 . S
H1870 C1878 0.950 . S
H1871 C1880 0.950 . S
H1872 C1882 0.950 . S
H1873 C1884 0.950 . S
H1874 C1886 0.950 . S
H1875 C1887 0.950 . S
C1876 H1868 0.950 . S
C1876 C1877 1.386 . S
C1876 C1878 1.391 . S
C1877 C1876 1.386 . S
C1877 C1881 1.393 . S
C1878 H1870 0.950 . S
C1878 C1876 1.391 . S
C1878 C1879 1.400 . S
C1879 C1878 1.400 . S
C1879 C1880 1.398 . S
C1879 C1885 1.491 . S
C1880 H1871 0.950 . S
C1880 C1879 1.398 . S
C1880 C1881 1.391 . S
C1881 H1869 0.950 . S
C1881 C1877 1.393 . S
C1881 C1880 1.391 . S
C1882 H1872 0.950 . S
C1882 C1883 1.386 . S
C1882 C1884 1.391 . S
C1883 C1882 1.386 . S
C1883 C1887 1.393 . S
C1884 H1873 0.950 . S
C1884 C1882 1.391 . S
C1884 C1885 1.400 . S
C1885 C1879 1.491 . S
C1885 C1884 1.400 . S
C1885 C1886 1.398 . S
C1886 H1874 0.950 . S
C1886 C1885 1.398 . S
C1886 C1887 1.391 . S
C1887 H1875 0.950 . S
C1887 C1883 1.393 . S
C1887 C1886 1.391 . S
H1888 C1896 0.950 . S
H1889 C1901 0.950 . S
H1890 C1898 0.950 . S
H1891 C1900 0.950 . S
H1892 C1902 0.950 . S
H1893 C1904 0.950 . S
H1894 C1906 0.950 . S
H1895 C1907 0.950 . S
C1896 H1888 0.950 . S
C1896 C1897 1.386 . S
C1896 C1898 1.391 . S
C1897 C1896 1.386 . S
C1897 C1901 1.393 . S
C1898 H1890 0.950 . S
C1898 C1896 1.391 . S
C1898 C1899 1.400 . S
C1899 C1898 1.400 . S
C1899 C1900 1.398 . S
C1899 C1905 1.491 . S
C1900 H1891 0.950 . S
C1900 C1899 1.398 . S
C1900 C1901 1.391 . S
C1901 H1889 0.950 . S
C1901 C1897 1.393 . S
C1901 C1900 1.391 . S
C1902 H1892 0.950 . S
C1902 C1903 1.386 . S
C1902 C1904 1.391 . S
C1903 C1902 1.386 . S
C1903 C1907 1.393 . S
C1904 H1893 0.950 . S
C1904 C1902 1.391 . S
C1904 C1905 1.400 . S
C1905 C1899 1.491 . S
C1905 C1904 1.400 . S
C1905 C1906 1.398 . S
C1906 H1894 0.950 . S
C1906 C1905 1.398 . S
C1906 C1907 1.391 . S
C1907 H1895 0.950 . S
C1907 C1903 1.393 . S
C1907 C1906 1.391 . S
H1908 C1916 0.950 . S
H1909 C1921 0.950 . S
H1910 C1918 0.950 . S
H1911 C1920 0.950 . S
H1912 C1922 0.950 . S
H1913 C1924 0.950 . S
H1914 C1926 0.950 . S
H1915 C1927 0.950 . S
C1916 H1908 0.950 . S
C1916 C1917 1.386 . S
C1916 C1918 1.391 . S
C1917 C1916 1.386 . S
C1917 C1921 1.393 . S
C1918 H1910 0.950 . S
C1918 C1916 1.391 . S
C1918 C1919 1.400 . S
C1919 C1918 1.400 . S
C1919 C1920 1.398 . S
C1919 C1925 1.491 . S
C1920 H1911 0.950 . S
C1920 C1919 1.398 . S
C1920 C1921 1.391 . S
C1921 H1909 0.950 . S
C1921 C1917 1.393 . S
C1921 C1920 1.391 . S
C1922 H1912 0.950 . S
C1922 C1923 1.386 . S
C1922 C1924 1.391 . S
C1923 C1922 1.386 . S
C1923 C1927 1.393 . S
C1924 H1913 0.950 . S
C1924 C1922 1.391 . S
C1924 C1925 1.400 . S
C1925 C1919 1.491 . S
C1925 C1924 1.400 . S
C1925 C1926 1.398 . S
C1926 H1914 0.950 . S
C1926 C1925 1.398 . S
C1926 C1927 1.391 . S
C1927 H1915 0.950 . S
C1927 C1923 1.393 . S
C1927 C1926 1.391 . S
H1928 C1936 0.950 . S
H1929 C1941 0.950 . S
H1930 C1938 0.950 . S
H1931 C1940 0.950 . S
H1932 C1942 0.950 . S
H1933 C1944 0.950 . S
H1934 C1946 0.950 . S
H1935 C1947 0.950 . S
C1936 H1928 0.950 . S
C1936 C1937 1.386 . S
C1936 C1938 1.391 . S
C1937 C1936 1.386 . S
C1937 C1941 1.393 . S
C1938 H1930 0.950 . S
C1938 C1936 1.391 . S
C1938 C1939 1.400 . S
C1939 C1938 1.400 . S
C1939 C1940 1.398 . S
C1939 C1945 1.491 . S
C1940 H1931 0.950 . S
C1940 C1939 1.398 . S
C1940 C1941 1.391 . S
C1941 H1929 0.950 . S
C1941 C1937 1.393 . S
C1941 C1940 1.391 . S
C1942 H1932 0.950 . S
C1942 C1943 1.386 . S
C1942 C1944 1.391 . S
C1943 C1942 1.386 . S
C1943 C1947 1.393 . S
C1944 H1933 0.950 . S
C1944 C1942 1.391 . S
C1944 C1945 1.400 . S
C1945 C1939 1.491 . S
C1945 C1944 1.400 . S
C1945 C1946 1.398 . S
C1946 H1934 0.950 . S
C1946 C1945 1.398 . S
C1946 C1947 1.391 . S
C1947 H1935 0.950 . S
C1947 C1943 1.393 . S
C1947 C1946 1.391 . S
H1948 C1956 0.950 . S
H1949 C1961 0.950 . S
H1950 C1958 0.950 . S
H1951 C1960 0.950 . S
H1952 C1962 0.950 . S
H1953 C1964 0.950 . S
H1954 C1966 0.950 . S
H1955 C1967 0.950 . S
C1956 H1948 0.950 . S
C1956 C1957 1.386 . S
C1956 C1958 1.391 . S
C1957 C1956 1.386 . S
C1957 C1961 1.393 . S
C1958 H1950 0.950 . S
C1958 C1956 1.391 . S
C1958 C1959 1.400 . S
C1959 C1958 1.400 . S
C1959 C1960 1.398 . S
C1959 C1965 1.491 . S
C1960 H1951 0.950 . S
C1960 C1959 1.398 . S
C1960 C1961 1.391 . S
C1961 H1949 0.950 . S
C1961 C1957 1.393 . S
C1961 C1960 1.391 . S
C1962 H1952 0.950 . S
C1962 C1963 1.386 . S
C1962 C1964 1.391 . S
C1963 C1962 1.386 . S
C1963 C1967 1.393 . S
C1964 H1953 0.950 . S
C1964 C1962 1.391 . S
C1964 C1965 1.400 . S
C1965 C1959 1.491 . S
C1965 C1964 1.400 . S
C1965 C1966 1.398 . S
C1966 H1954 0.950 . S
C1966 C1965 1.398 . S
C1966 C1967 1.391 . S
C1967 H1955 0.950 . S
C1967 C1963 1.393 . S
C1967 C1966 1.391 . S
H1968 C1976 0.950 . S
H1969 C1981 0.950 . S
H1970 C1978 0.950 . S
H1971 C1980 0.950 . S
H1972 C1982 0.950 . S
H1973 C1984 0.950 . S
H1974 C1986 0.950 . S
H1975 C1987 0.950 . S
C1976 H1968 0.950 . S
C1976 C1977 1.386 . S
C1976 C1978 1.391 . S
C1977 C1976 1.386 . S
C1977 C1981 1.393 . S
C1978 H1970 0.950 . S
C1978 C1976 1.391 . S
C1978 C1979 1.400 . S
C1979 C1978 1.400 . S
C1979 C1980 1.398 . S
C1979 C1985 1.491 . S
C1980 H1971 0.950 . S
C1980 C1979 1.398 . S
C1980 C1981 1.391 . S
C1981 H1969 0.950 . S
C1981 C1977 1.393 . S
C1981 C1980 1.391 . S
C1982 H1972 0.950 . S
C1982 C1983 1.386 . S
C1982 C1984 1.391 . S
C1983 C1982 1.386 . S
C1983 C1987 1.393 . S
C1984 H1973 0.950 . S
C1984 C1982 1.391 . S
C1984 C1985 1.400 . S
C1985 C1979 1.491 . S
C1985 C1984 1.400 . S
C1985 C1986 1.398 . S
C1986 H1974 0.950 . S
C1986 C1985 1.398 . S
C1986 C1987 1.391 . S
C1987 H1975 0.950 . S
C1987 C1983 1.393 . S
C1987 C1986 1.391 . S
H1988 C1996 0.950 . S
H1989 C2001 0.950 . S
H1990 C1998 0.950 . S
H1991 C2000 0.950 . S
H1992 C2002 0.950 . S
H1993 C2004 0.950 . S
H1994 C2006 0.950 . S
H1995 C2007 0.950 . S
C1996 H1988 0.950 . S
C1996 C1997 1.386 . S
C1996 C1998 1.391 . S
C1997 C1996 1.386 . S
C1997 C2001 1.393 . S
C1998 H1990 0.950 . S
C1998 C1996 1.391 . S
C1998 C1999 1.400 . S
C1999 C1998 1.400 . S
C1999 C2000 1.398 . S
C1999 C2005 1.491 . S
C2000 H1991 0.950 . S
C2000 C1999 1.398 . S
C2000 C2001 1.391 . S
C2001 H1989 0.950 . S
C2001 C1997 1.393 . S
C2001 C2000 1.391 . S
C2002 H1992 0.950 . S
C2002 C2003 1.386 . S
C2002 C2004 1.391 . S
C2003 C2002 1.386 . S
C2003 C2007 1.393 . S
C2004 H1993 0.950 . S
C2004 C2002 1.391 . S
C2004 C2005 1.400 . S
C2005 C1999 1.491 . S
C2005 C2004 1.400 . S
C2005 C2006 1.398 . S
C2006 H1994 0.950 . S
C2006 C2005 1.398 . S
C2006 C2007 1.391 . S
C2007 H1995 0.950 . S
C2007 C2003 1.393 . S
C2007 C2006 1.391 . S
H2008 C2016 0.950 . S
H2009 C2021 0.950 . S
H2010 C2018 0.950 . S
H2011 C2020 0.950 . S
H2012 C2022 0.950 . S
H2013 C2024 0.950 . S
H2014 C2026 0.950 . S
H2015 C2027 0.950 . S
C2016 H2008 0.950 . S
C2016 C2017 1.386 . S
C2016 C2018 1.391 . S
C2017 C2016 1.386 . S
C2017 C2021 1.393 . S
C2018 H2010 0.950 . S
C2018 C2016 1.391 . S
C2018 C2019 1.400 . S
C2019 C2018 1.400 . S
C2019 C2020 1.398 . S
C2019 C2025 1.491 . S
C2020 H2011 0.950 . S
C2020 C2019 1.398 . S
C2020 C2021 1.391 . S
C2021 H2009 0.950 . S
C2021 C2017 1.393 . S
C2021 C2020 1.391 . S
C2022 H2012 0.950 . S
C2022 C2023 1.386 . S
C2022 C2024 1.391 . S
C2023 C2022 1.386 . S
C2023 C2027 1.393 . S
C2024 H2013 0.950 . S
C2024 C2022 1.391 . S
C2024 C2025 1.400 . S
C2025 C2019 1.491 . S
C2025 C2024 1.400 . S
C2025 C2026 1.398 . S
C2026 H2014 0.950 . S
C2026 C2025 1.398 . S
C2026 C2027 1.391 . S
C2027 H2015 0.950 . S
C2027 C2023 1.393 . S
C2027 C2026 1.391 . S
H2028 C2036 0.950 . S
H2029 C2041 0.950 . S
H2030 C2038 0.950 . S
H2031 C2040 0.950 . S
H2032 C2042 0.950 . S
H2033 C2044 0.950 . S
H2034 C2046 0.950 . S
H2035 C2047 0.950 . S
C2036 H2028 0.950 . S
C2036 C2037 1.386 . S
C2036 C2038 1.391 . S
C2037 C2036 1.386 . S
C2037 C2041 1.393 . S
C2038 H2030 0.950 . S
C2038 C2036 1.391 . S
C2038 C2039 1.400 . S
C2039 C2038 1.400 . S
C2039 C2040 1.398 . S
C2039 C2045 1.491 . S
C2040 H2031 0.950 . S
C2040 C2039 1.398 . S
C2040 C2041 1.391 . S
C2041 H2029 0.950 . S
C2041 C2037 1.393 . S
C2041 C2040 1.391 . S
C2042 H2032 0.950 . S
C2042 C2043 1.386 . S
C2042 C2044 1.391 . S
C2043 C2042 1.386 . S
C2043 C2047 1.393 . S
C2044 H2033 0.950 . S
C2044 C2042 1.391 . S
C2044 C2045 1.400 . S
C2045 C2039 1.491 . S
C2045 C2044 1.400 . S
C2045 C2046 1.398 . S
C2046 H2034 0.950 . S
C2046 C2045 1.398 . S
C2046 C2047 1.391 . S
C2047 H2035 0.950 . S
C2047 C2043 1.393 . S
C2047 C2046 1.391 . S
H2048 C2056 0.950 . S
H2049 C2061 0.950 . S
H2050 C2058 0.950 . S
H2051 C2060 0.950 . S
H2052 C2062 0.950 . S
H2053 C2064 0.950 . S
H2054 C2066 0.950 . S
H2055 C2067 0.950 . S
C2056 H2048 0.950 . S
C2056 C2057 1.386 . S
C2056 C2058 1.391 . S
C2057 C2056 1.386 . S
C2057 C2061 1.393 . S
C2058 H2050 0.950 . S
C2058 C2056 1.391 . S
C2058 C2059 1.400 . S
C2059 C2058 1.400 . S
C2059 C2060 1.398 . S
C2059 C2065 1.491 1_554 S
C2060 H2051 0.950 . S
C2060 C2059 1.398 . S
C2060 C2061 1.391 . S
C2061 H2049 0.950 . S
C2061 C2057 1.393 . S
C2061 C2060 1.391 . S
C2062 H2052 0.950 . S
C2062 C2063 1.386 . S
C2062 C2064 1.391 . S
C2063 C2062 1.386 . S
C2063 C2067 1.393 . S
C2064 H2053 0.950 . S
C2064 C2062 1.391 . S
C2064 C2065 1.400 . S
C2065 C2059 1.491 1_556 S
C2065 C2064 1.400 . S
C2065 C2066 1.398 . S
C2066 H2054 0.950 . S
C2066 C2065 1.398 . S
C2066 C2067 1.391 . S
C2067 H2055 0.950 . S
C2067 C2063 1.393 . S
C2067 C2066 1.391 . S
H2068 C2076 0.950 1_545 S
H2069 C2081 0.950 . S
H2070 C2078 0.950 . S
H2071 C2080 0.950 . S
H2072 C2082 0.950 1_565 S
H2073 C2084 0.950 . S
H2074 C2086 0.950 . S
H2075 C2087 0.950 . S
C2076 H2068 0.950 1_565 S
C2076 C2077 1.386 . S
C2076 C2078 1.391 1_565 S
C2077 C2076 1.386 . S
C2077 C2081 1.393 . S
C2078 H2070 0.950 . S
C2078 C2076 1.391 1_545 S
C2078 C2079 1.400 1_545 S
C2079 C2078 1.400 1_565 S
C2079 C2080 1.398 . S
C2079 C2085 1.491 1_565 S
C2080 H2071 0.950 . S
C2080 C2079 1.398 . S
C2080 C2081 1.391 . S
C2081 H2069 0.950 . S
C2081 C2077 1.393 . S
C2081 C2080 1.391 . S
C2082 H2072 0.950 1_545 S
C2082 C2083 1.386 . S
C2082 C2084 1.391 1_545 S
C2083 C2082 1.386 . S
C2083 C2087 1.393 . S
C2084 H2073 0.950 . S
C2084 C2082 1.391 1_565 S
C2084 C2085 1.400 1_565 S
C2085 C2079 1.491 1_545 S
C2085 C2084 1.400 1_545 S
C2085 C2086 1.398 . S
C2086 H2074 0.950 . S
C2086 C2085 1.398 . S
C2086 C2087 1.391 . S
C2087 H2075 0.950 . S
C2087 C2083 1.393 . S
C2087 C2086 1.391 . S
H2088 C2096 0.950 . S
H2089 C2101 0.950 . S
H2090 C2098 0.950 . S
H2091 C2100 0.950 . S
H2092 C2102 0.950 . S
H2093 C2104 0.950 . S
H2094 C2106 0.950 . S
H2095 C2107 0.950 . S
C2096 H2088 0.950 . S
C2096 C2097 1.386 . S
C2096 C2098 1.391 . S
C2097 C2096 1.386 . S
C2097 C2101 1.393 . S
C2098 H2090 0.950 . S
C2098 C2096 1.391 . S
C2098 C2099 1.400 . S
C2099 C2098 1.400 . S
C2099 C2100 1.398 . S
C2099 C2105 1.491 . S
C2100 H2091 0.950 . S
C2100 C2099 1.398 . S
C2100 C2101 1.391 . S
C2101 H2089 0.950 . S
C2101 C2097 1.393 . S
C2101 C2100 1.391 . S
C2102 H2092 0.950 . S
C2102 C2103 1.386 . S
C2102 C2104 1.391 . S
C2103 C2102 1.386 . S
C2103 C2107 1.393 . S
C2104 H2093 0.950 . S
C2104 C2102 1.391 . S
C2104 C2105 1.400 . S
C2105 C2099 1.491 . S
C2105 C2104 1.400 . S
C2105 C2106 1.398 . S
C2106 H2094 0.950 . S
C2106 C2105 1.398 . S
C2106 C2107 1.391 . S
C2107 H2095 0.950 . S
C2107 C2103 1.393 . S
C2107 C2106 1.391 . S
H2108 C2116 0.950 . S
H2109 C2121 0.950 . S
H2110 C2118 0.950 . S
H2111 C2120 0.950 . S
H2112 C2122 0.950 . S
H2113 C2124 0.950 . S
H2114 C2126 0.950 . S
H2115 C2127 0.950 . S
C2116 H2108 0.950 . S
C2116 C2117 1.386 . S
C2116 C2118 1.391 . S
C2117 C2116 1.386 . S
C2117 C2121 1.393 1_565 S
C2118 H2110 0.950 . S
C2118 C2116 1.391 . S
C2118 C2119 1.400 . S
C2119 C2118 1.400 . S
C2119 C2120 1.398 1_565 S
C2119 C2125 1.491 1_565 S
C2120 H2111 0.950 . S
C2120 C2119 1.398 1_545 S
C2120 C2121 1.391 . S
C2121 H2109 0.950 . S
C2121 C2117 1.393 1_545 S
C2121 C2120 1.391 . S
C2122 H2112 0.950 . S
C2122 C2123 1.386 . S
C2122 C2124 1.391 . S
C2123 C2122 1.386 . S
C2123 C2127 1.393 1_545 S
C2124 H2113 0.950 . S
C2124 C2122 1.391 . S
C2124 C2125 1.400 . S
C2125 C2119 1.491 1_545 S
C2125 C2124 1.400 . S
C2125 C2126 1.398 1_545 S
C2126 H2114 0.950 . S
C2126 C2125 1.398 1_565 S
C2126 C2127 1.391 . S
C2127 H2115 0.950 . S
C2127 C2123 1.393 1_565 S
C2127 C2126 1.391 . S
H2128 C2136 0.950 . S
H2129 C2141 0.950 . S
H2130 C2138 0.950 . S
H2131 C2140 0.950 . S
H2132 C2142 0.950 . S
H2133 C2144 0.950 . S
H2134 C2146 0.950 . S
H2135 C2147 0.950 . S
C2136 H2128 0.950 . S
C2136 C2137 1.386 . S
C2136 C2138 1.391 . S
C2137 C2136 1.386 . S
C2137 C2141 1.393 . S
C2138 H2130 0.950 . S
C2138 C2136 1.391 . S
C2138 C2139 1.400 . S
C2139 C2138 1.400 . S
C2139 C2140 1.398 . S
C2139 C2145 1.491 1_554 S
C2140 H2131 0.950 . S
C2140 C2139 1.398 . S
C2140 C2141 1.391 . S
C2141 H2129 0.950 . S
C2141 C2137 1.393 . S
C2141 C2140 1.391 . S
C2142 H2132 0.950 . S
C2142 C2143 1.386 . S
C2142 C2144 1.391 . S
C2143 C2142 1.386 . S
C2143 C2147 1.393 . S
C2144 H2133 0.950 . S
C2144 C2142 1.391 . S
C2144 C2145 1.400 . S
C2145 C2139 1.491 1_556 S
C2145 C2144 1.400 . S
C2145 C2146 1.398 . S
C2146 H2134 0.950 . S
C2146 C2145 1.398 . S
C2146 C2147 1.391 . S
C2147 H2135 0.950 . S
C2147 C2143 1.393 . S
C2147 C2146 1.391 . S
H2148 C2156 0.955 . S
H2149 C2161 0.950 . S
H2150 C2158 0.950 . S
H2151 C2160 0.950 . S
H2152 C2162 0.955 . S
H2153 C2164 0.950 . S
H2154 C2166 0.950 . S
H2155 C2167 0.950 . S
C2156 H2148 0.955 . S
C2156 C2157 1.376 1_565 S
C2156 C2158 1.395 . S
C2157 C2156 1.376 1_545 S
C2157 C2161 1.393 . S
C2158 H2150 0.950 . S
C2158 C2156 1.395 . S
C2158 C2159 1.400 1_565 S
C2159 C2158 1.400 1_545 S
C2159 C2160 1.398 . S
C2159 C2165 1.491 1_545 S
C2160 H2151 0.950 . S
C2160 C2159 1.398 . S
C2160 C2161 1.391 . S
C2161 H2149 0.950 . S
C2161 C2157 1.393 . S
C2161 C2160 1.391 . S
C2162 H2152 0.955 . S
C2162 C2163 1.376 1_545 S
C2162 C2164 1.395 . S
C2163 C2162 1.376 1_565 S
C2163 C2167 1.393 . S
C2164 H2153 0.950 . S
C2164 C2162 1.395 . S
C2164 C2165 1.400 1_545 S
C2165 C2159 1.491 1_565 S
C2165 C2164 1.400 1_565 S
C2165 C2166 1.398 . S
C2166 H2154 0.950 . S
C2166 C2165 1.398 . S
C2166 C2167 1.391 . S
C2167 H2155 0.950 . S
C2167 C2163 1.393 . S
C2167 C2166 1.391 . S
H2168 C2176 0.950 . S
H2169 C2181 0.950 . S
H2170 C2178 0.950 . S
H2171 C2180 0.950 . S
H2172 C2182 0.950 . S
H2173 C2184 0.950 . S
H2174 C2186 0.950 . S
H2175 C2187 0.950 . S
C2176 H2168 0.950 . S
C2176 C2177 1.386 . S
C2176 C2178 1.391 . S
C2177 C2176 1.386 . S
C2177 C2181 1.393 . S
C2178 H2170 0.950 . S
C2178 C2176 1.391 . S
C2178 C2179 1.400 . S
C2179 C2178 1.400 . S
C2179 C2180 1.398 . S
C2179 C2185 1.491 . S
C2180 H2171 0.950 . S
C2180 C2179 1.398 . S
C2180 C2181 1.391 . S
C2181 H2169 0.950 . S
C2181 C2177 1.393 . S
C2181 C2180 1.391 . S
C2182 H2172 0.950 . S
C2182 C2183 1.386 . S
C2182 C2184 1.391 . S
C2183 C2182 1.386 . S
C2183 C2187 1.393 . S
C2184 H2173 0.950 . S
C2184 C2182 1.391 . S
C2184 C2185 1.400 . S
C2185 C2179 1.491 . S
C2185 C2184 1.400 . S
C2185 C2186 1.398 . S
C2186 H2174 0.950 . S
C2186 C2185 1.398 . S
C2186 C2187 1.391 . S
C2187 H2175 0.950 . S
C2187 C2183 1.393 . S
C2187 C2186 1.391 . S
H2188 C2196 0.954 . S
H2189 C2201 0.950 . S
H2190 C2198 0.950 . S
H2191 C2200 0.950 . S
H2192 C2202 0.954 . S
H2193 C2204 0.950 . S
H2194 C2206 0.950 . S
H2195 C2207 0.950 . S
C2196 H2188 0.954 . S
C2196 C2197 1.386 . S
C2196 C2198 1.391 1_565 S
C2197 C2196 1.386 . S
C2197 C2201 1.393 . S
C2198 H2190 0.950 . S
C2198 C2196 1.391 1_545 S
C2198 C2199 1.400 1_545 S
C2199 C2198 1.400 1_565 S
C2199 C2200 1.398 . S
C2199 C2205 1.491 1_565 S
C2200 H2191 0.950 . S
C2200 C2199 1.398 . S
C2200 C2201 1.391 . S
C2201 H2189 0.950 . S
C2201 C2197 1.393 . S
C2201 C2200 1.391 . S
C2202 H2192 0.954 . S
C2202 C2203 1.386 . S
C2202 C2204 1.391 1_545 S
C2203 C2202 1.386 . S
C2203 C2207 1.393 . S
C2204 H2193 0.950 . S
C2204 C2202 1.391 1_565 S
C2204 C2205 1.400 1_565 S
C2205 C2199 1.491 1_545 S
C2205 C2204 1.400 1_545 S
C2205 C2206 1.398 . S
C2206 H2194 0.950 . S
C2206 C2205 1.398 . S
C2206 C2207 1.391 . S
C2207 H2195 0.950 . S
C2207 C2203 1.393 . S
C2207 C2206 1.391 . S
H2208 C2216 0.950 . S
H2209 C2221 0.950 . S
H2210 C2218 0.950 . S
H2211 C2220 0.950 . S
H2212 C2222 0.950 . S
H2213 C2224 0.950 . S
H2214 C2226 0.950 . S
H2215 C2227 0.950 . S
C2216 H2208 0.950 . S
C2216 C2217 1.386 . S
C2216 C2218 1.391 . S
C2217 C2216 1.386 . S
C2217 C2221 1.393 . S
C2218 H2210 0.950 . S
C2218 C2216 1.391 . S
C2218 C2219 1.400 . S
C2219 C2218 1.400 . S
C2219 C2220 1.398 . S
C2219 C2225 1.491 . S
C2220 H2211 0.950 . S
C2220 C2219 1.398 . S
C2220 C2221 1.391 . S
C2221 H2209 0.950 . S
C2221 C2217 1.393 . S
C2221 C2220 1.391 . S
C2222 H2212 0.950 . S
C2222 C2223 1.386 . S
C2222 C2224 1.391 . S
C2223 C2222 1.386 . S
C2223 C2227 1.393 . S
C2224 H2213 0.950 . S
C2224 C2222 1.391 . S
C2224 C2225 1.400 . S
C2225 C2219 1.491 . S
C2225 C2224 1.400 . S
C2225 C2226 1.398 . S
C2226 H2214 0.950 . S
C2226 C2225 1.398 . S
C2226 C2227 1.391 . S
C2227 H2215 0.950 . S
C2227 C2223 1.393 . S
C2227 C2226 1.391 . S
H2228 C2236 0.950 . S
H2229 C2241 0.950 . S
H2230 C2238 0.950 . S
H2231 C2240 0.950 . S
H2232 C2242 0.950 . S
H2233 C2244 0.950 . S
H2234 C2246 0.950 . S
H2235 C2247 0.950 . S
C2236 H2228 0.950 . S
C2236 C2237 1.386 . S
C2236 C2238 1.391 . S
C2237 C2236 1.386 . S
C2237 C2241 1.393 . S
C2238 H2230 0.950 . S
C2238 C2236 1.391 . S
C2238 C2239 1.400 . S
C2239 C2238 1.400 . S
C2239 C2240 1.398 . S
C2239 C2245 1.491 . S
C2240 H2231 0.950 . S
C2240 C2239 1.398 . S
C2240 C2241 1.391 . S
C2241 H2229 0.950 . S
C2241 C2237 1.393 . S
C2241 C2240 1.391 . S
C2242 H2232 0.950 . S
C2242 C2243 1.386 . S
C2242 C2244 1.391 . S
C2243 C2242 1.386 . S
C2243 C2247 1.393 . S
C2244 H2233 0.950 . S
C2244 C2242 1.391 . S
C2244 C2245 1.400 . S
C2245 C2239 1.491 . S
C2245 C2244 1.400 . S
C2245 C2246 1.398 . S
C2246 H2234 0.950 . S
C2246 C2245 1.398 . S
C2246 C2247 1.391 . S
C2247 H2235 0.950 . S
C2247 C2243 1.393 . S
C2247 C2246 1.391 . S
H2248 C2256 0.950 . S
H2249 C2261 0.950 . S
H2250 C2258 0.950 . S
H2251 C2260 0.950 . S
H2252 C2262 0.950 . S
H2253 C2264 0.950 . S
H2254 C2266 0.950 . S
H2255 C2267 0.950 . S
C2256 H2248 0.950 . S
C2256 C2257 1.386 . S
C2256 C2258 1.391 . S
C2257 C2256 1.386 . S
C2257 C2261 1.393 . S
C2258 H2250 0.950 . S
C2258 C2256 1.391 . S
C2258 C2259 1.400 . S
C2259 C2258 1.400 . S
C2259 C2260 1.398 . S
C2259 C2265 1.491 1_554 S
C2260 H2251 0.950 . S
C2260 C2259 1.398 . S
C2260 C2261 1.391 . S
C2261 H2249 0.950 . S
C2261 C2257 1.393 . S
C2261 C2260 1.391 . S
C2262 H2252 0.950 . S
C2262 C2263 1.386 . S
C2262 C2264 1.391 . S
C2263 C2262 1.386 . S
C2263 C2267 1.393 . S
C2264 H2253 0.950 . S
C2264 C2262 1.391 . S
C2264 C2265 1.400 . S
C2265 C2259 1.491 1_556 S
C2265 C2264 1.400 . S
C2265 C2266 1.398 . S
C2266 H2254 0.950 . S
C2266 C2265 1.398 . S
C2266 C2267 1.391 . S
C2267 H2255 0.950 . S
C2267 C2263 1.393 . S
C2267 C2266 1.391 . S
H2268 C2276 0.950 . S
H2269 C2281 0.950 . S
H2270 C2278 0.950 . S
H2271 C2280 0.950 . S
H2272 C2282 0.950 . S
H2273 C2284 0.950 . S
H2274 C2286 0.950 . S
H2275 C2287 0.950 . S
C2276 H2268 0.950 . S
C2276 C2277 1.386 . S
C2276 C2278 1.391 . S
C2277 C2276 1.386 . S
C2277 C2281 1.393 . S
C2278 H2270 0.950 . S
C2278 C2276 1.391 . S
C2278 C2279 1.400 . S
C2279 C2278 1.400 . S
C2279 C2280 1.398 . S
C2279 C2285 1.491 . S
C2280 H2271 0.950 . S
C2280 C2279 1.398 . S
C2280 C2281 1.391 . S
C2281 H2269 0.950 . S
C2281 C2277 1.393 . S
C2281 C2280 1.391 . S
C2282 H2272 0.950 . S
C2282 C2283 1.386 . S
C2282 C2284 1.391 . S
C2283 C2282 1.386 . S
C2283 C2287 1.393 . S
C2284 H2273 0.950 . S
C2284 C2282 1.391 . S
C2284 C2285 1.400 . S
C2285 C2279 1.491 . S
C2285 C2284 1.400 . S
C2285 C2286 1.398 . S
C2286 H2274 0.950 . S
C2286 C2285 1.398 . S
C2286 C2287 1.391 . S
C2287 H2275 0.950 . S
C2287 C2283 1.393 . S
C2287 C2286 1.391 . S
H2288 C2296 0.950 . S
H2289 C2301 0.950 . S
H2290 C2298 0.950 . S
H2291 C2300 0.950 . S
H2292 C2302 0.950 . S
H2293 C2304 0.950 . S
H2294 C2306 0.950 . S
H2295 C2307 0.950 . S
C2296 H2288 0.950 . S
C2296 C2297 1.386 . S
C2296 C2298 1.391 . S
C2297 C2296 1.386 . S
C2297 C2301 1.393 . S
C2298 H2290 0.950 . S
C2298 C2296 1.391 . S
C2298 C2299 1.400 . S
C2299 C2298 1.400 . S
C2299 C2300 1.398 . S
C2299 C2305 1.491 . S
C2300 H2291 0.950 . S
C2300 C2299 1.398 . S
C2300 C2301 1.391 . S
C2301 H2289 0.950 . S
C2301 C2297 1.393 . S
C2301 C2300 1.391 . S
C2302 H2292 0.950 . S
C2302 C2303 1.386 . S
C2302 C2304 1.391 . S
C2303 C2302 1.386 . S
C2303 C2307 1.393 . S
C2304 H2293 0.950 . S
C2304 C2302 1.391 . S
C2304 C2305 1.400 . S
C2305 C2299 1.491 . S
C2305 C2304 1.400 . S
C2305 C2306 1.398 . S
C2306 H2294 0.950 . S
C2306 C2305 1.398 . S
C2306 C2307 1.391 . S
C2307 H2295 0.950 . S
C2307 C2303 1.393 . S
C2307 C2306 1.391 . S
H2308 C2316 0.950 . S
H2309 C2321 0.950 . S
H2310 C2318 0.950 . S
H2311 C2320 0.950 . S
H2312 C2322 0.950 . S
H2313 C2324 0.950 . S
H2314 C2326 0.950 . S
H2315 C2327 0.950 . S
C2316 H2308 0.950 . S
C2316 C2317 1.386 . S
C2316 C2318 1.391 . S
C2317 C2316 1.386 . S
C2317 C2321 1.393 . S
C2318 H2310 0.950 . S
C2318 C2316 1.391 . S
C2318 C2319 1.400 . S
C2319 C2318 1.400 . S
C2319 C2320 1.398 . S
C2319 C2325 1.491 . S
C2320 H2311 0.950 . S
C2320 C2319 1.398 . S
C2320 C2321 1.391 . S
C2321 H2309 0.950 . S
C2321 C2317 1.393 . S
C2321 C2320 1.391 . S
C2322 H2312 0.950 . S
C2322 C2323 1.386 . S
C2322 C2324 1.391 . S
C2323 C2322 1.386 . S
C2323 C2327 1.393 . S
C2324 H2313 0.950 . S
C2324 C2322 1.391 . S
C2324 C2325 1.400 . S
C2325 C2319 1.491 . S
C2325 C2324 1.400 . S
C2325 C2326 1.398 . S
C2326 H2314 0.950 . S
C2326 C2325 1.398 . S
C2326 C2327 1.391 . S
C2327 H2315 0.950 . S
C2327 C2323 1.393 . S
C2327 C2326 1.391 . S
H2328 C2336 0.950 . S
H2329 C2341 0.950 . S
H2330 C2338 0.950 . S
H2331 C2340 0.950 . S
H2332 C2342 0.950 . S
H2333 C2344 0.950 . S
H2334 C2346 0.950 . S
H2335 C2347 0.950 . S
C2336 H2328 0.950 . S
C2336 C2337 1.386 . S
C2336 C2338 1.391 . S
C2337 C2336 1.386 . S
C2337 C2341 1.393 . S
C2338 H2330 0.950 . S
C2338 C2336 1.391 . S
C2338 C2339 1.400 . S
C2339 C2338 1.400 . S
C2339 C2340 1.398 . S
C2339 C2345 1.491 1_556 S
C2340 H2331 0.950 . S
C2340 C2339 1.398 . S
C2340 C2341 1.391 . S
C2341 H2329 0.950 . S
C2341 C2337 1.393 . S
C2341 C2340 1.391 . S
C2342 H2332 0.950 . S
C2342 C2343 1.386 . S
C2342 C2344 1.391 . S
C2343 C2342 1.386 . S
C2343 C2347 1.393 . S
C2344 H2333 0.950 . S
C2344 C2342 1.391 . S
C2344 C2345 1.400 . S
C2345 C2339 1.491 1_554 S
C2345 C2344 1.400 . S
C2345 C2346 1.398 . S
C2346 H2334 0.950 . S
C2346 C2345 1.398 . S
C2346 C2347 1.391 . S
C2347 H2335 0.950 . S
C2347 C2343 1.393 . S
C2347 C2346 1.391 . S
H2348 C2356 0.950 . S
H2349 C2361 0.950 1_455 S
H2350 C2358 0.950 . S
H2351 C2360 0.950 1_455 S
H2352 C2362 0.950 1_455 S
H2353 C2364 0.950 1_455 S
H2354 C2366 0.950 . S
H2355 C2367 0.950 . S
C2356 H2348 0.950 . S
C2356 C2357 1.386 . S
C2356 C2358 1.391 . S
C2357 C2356 1.386 . S
C2357 C2361 1.393 . S
C2358 H2350 0.950 . S
C2358 C2356 1.391 . S
C2358 C2359 1.400 . S
C2359 C2358 1.400 . S
C2359 C2360 1.398 . S
C2359 C2365 1.491 . S
C2360 H2351 0.950 1_655 S
C2360 C2359 1.398 . S
C2360 C2361 1.391 . S
C2361 H2349 0.950 1_655 S
C2361 C2357 1.393 . S
C2361 C2360 1.391 . S
C2362 H2352 0.950 1_655 S
C2362 C2363 1.386 . S
C2362 C2364 1.391 . S
C2363 C2362 1.386 . S
C2363 C2367 1.393 . S
C2364 H2353 0.950 1_655 S
C2364 C2362 1.391 . S
C2364 C2365 1.400 . S
C2365 C2359 1.491 . S
C2365 C2364 1.400 . S
C2365 C2366 1.398 . S
C2366 H2354 0.950 . S
C2366 C2365 1.398 . S
C2366 C2367 1.391 . S
C2367 H2355 0.950 . S
C2367 C2363 1.393 . S
C2367 C2366 1.391 . S
H2368 C2376 0.950 . S
H2369 C2381 0.950 . S
H2370 C2378 0.950 . S
H2371 C2380 0.950 . S
H2372 C2382 0.950 . S
H2373 C2384 0.950 . S
H2374 C2386 0.950 . S
H2375 C2387 0.950 . S
C2376 H2368 0.950 . S
C2376 C2377 1.386 . S
C2376 C2378 1.391 . S
C2377 C2376 1.386 . S
C2377 C2381 1.393 . S
C2378 H2370 0.950 . S
C2378 C2376 1.391 . S
C2378 C2379 1.400 . S
C2379 C2378 1.400 . S
C2379 C2380 1.398 . S
C2379 C2385 1.491 . S
C2380 H2371 0.950 . S
C2380 C2379 1.398 . S
C2380 C2381 1.391 . S
C2381 H2369 0.950 . S
C2381 C2377 1.393 . S
C2381 C2380 1.391 . S
C2382 H2372 0.950 . S
C2382 C2383 1.386 . S
C2382 C2384 1.391 . S
C2383 C2382 1.386 . S
C2383 C2387 1.393 . S
C2384 H2373 0.950 . S
C2384 C2382 1.391 . S
C2384 C2385 1.400 . S
C2385 C2379 1.491 . S
C2385 C2384 1.400 . S
C2385 C2386 1.398 . S
C2386 H2374 0.950 . S
C2386 C2385 1.398 . S
C2386 C2387 1.391 . S
C2387 H2375 0.950 . S
C2387 C2383 1.393 . S
C2387 C2386 1.391 . S
H2388 C2396 0.950 . S
H2389 C2401 0.950 . S
H2390 C2398 0.950 . S
H2391 C2400 0.950 . S
H2392 C2402 0.950 . S
H2393 C2404 0.950 . S
H2394 C2406 0.950 . S
H2395 C2407 0.950 . S
C2396 H2388 0.950 . S
C2396 C2397 1.386 . S
C2396 C2398 1.391 . S
C2397 C2396 1.386 . S
C2397 C2401 1.393 . S
C2398 H2390 0.950 . S
C2398 C2396 1.391 . S
C2398 C2399 1.400 . S
C2399 C2398 1.400 . S
C2399 C2400 1.398 . S
C2399 C2405 1.491 . S
C2400 H2391 0.950 . S
C2400 C2399 1.398 . S
C2400 C2401 1.391 . S
C2401 H2389 0.950 . S
C2401 C2397 1.393 . S
C2401 C2400 1.391 . S
C2402 H2392 0.950 . S
C2402 C2403 1.386 . S
C2402 C2404 1.391 . S
C2403 C2402 1.386 . S
C2403 C2407 1.393 . S
C2404 H2393 0.950 . S
C2404 C2402 1.391 . S
C2404 C2405 1.400 . S
C2405 C2399 1.491 . S
C2405 C2404 1.400 . S
C2405 C2406 1.398 . S
C2406 H2394 0.950 . S
C2406 C2405 1.398 . S
C2406 C2407 1.391 . S
C2407 H2395 0.950 . S
C2407 C2403 1.393 . S
C2407 C2406 1.391 . S
H2408 C2416 0.950 . S
H2409 C2421 0.950 . S
H2410 C2418 0.950 . S
H2411 C2420 0.950 . S
H2412 C2422 0.950 . S
H2413 C2424 0.950 . S
H2414 C2426 0.950 . S
H2415 C2427 0.950 . S
C2416 H2408 0.950 . S
C2416 C2417 1.386 . S
C2416 C2418 1.391 . S
C2417 C2416 1.386 . S
C2417 C2421 1.393 . S
C2418 H2410 0.950 . S
C2418 C2416 1.391 . S
C2418 C2419 1.400 . S
C2419 C2418 1.400 . S
C2419 C2420 1.398 . S
C2419 C2425 1.491 . S
C2420 H2411 0.950 . S
C2420 C2419 1.398 . S
C2420 C2421 1.391 . S
C2421 H2409 0.950 . S
C2421 C2417 1.393 . S
C2421 C2420 1.391 . S
C2422 H2412 0.950 . S
C2422 C2423 1.386 . S
C2422 C2424 1.391 . S
C2423 C2422 1.386 . S
C2423 C2427 1.393 . S
C2424 H2413 0.950 . S
C2424 C2422 1.391 . S
C2424 C2425 1.400 . S
C2425 C2419 1.491 . S
C2425 C2424 1.400 . S
C2425 C2426 1.398 . S
C2426 H2414 0.950 . S
C2426 C2425 1.398 . S
C2426 C2427 1.391 . S
C2427 H2415 0.950 . S
C2427 C2423 1.393 . S
C2427 C2426 1.391 . S
H2428 C2436 0.950 . S
H2429 C2441 0.950 . S
H2430 C2438 0.950 . S
H2431 C2440 0.950 . S
H2432 C2442 0.950 . S
H2433 C2444 0.950 . S
H2434 C2446 0.950 . S
H2435 C2447 0.950 . S
C2436 H2428 0.950 . S
C2436 C2437 1.386 . S
C2436 C2438 1.391 . S
C2437 C2436 1.386 . S
C2437 C2441 1.393 . S
C2438 H2430 0.950 . S
C2438 C2436 1.391 . S
C2438 C2439 1.400 . S
C2439 C2438 1.400 . S
C2439 C2440 1.398 . S
C2439 C2445 1.491 . S
C2440 H2431 0.950 . S
C2440 C2439 1.398 . S
C2440 C2441 1.391 . S
C2441 H2429 0.950 . S
C2441 C2437 1.393 . S
C2441 C2440 1.391 . S
C2442 H2432 0.950 . S
C2442 C2443 1.386 . S
C2442 C2444 1.391 . S
C2443 C2442 1.386 . S
C2443 C2447 1.393 . S
C2444 H2433 0.950 . S
C2444 C2442 1.391 . S
C2444 C2445 1.400 . S
C2445 C2439 1.491 . S
C2445 C2444 1.400 . S
C2445 C2446 1.398 . S
C2446 H2434 0.950 . S
C2446 C2445 1.398 . S
C2446 C2447 1.391 . S
C2447 H2435 0.950 . S
C2447 C2443 1.393 . S
C2447 C2446 1.391 . S
H2448 C2456 0.950 . S
H2449 C2461 0.950 . S
H2450 C2458 0.950 . S
H2451 C2460 0.950 . S
H2452 C2462 0.950 . S
H2453 C2464 0.950 . S
H2454 C2466 0.950 . S
H2455 C2467 0.950 . S
C2456 H2448 0.950 . S
C2456 C2457 1.386 . S
C2456 C2458 1.391 . S
C2457 C2456 1.386 . S
C2457 C2461 1.393 . S
C2458 H2450 0.950 . S
C2458 C2456 1.391 . S
C2458 C2459 1.400 . S
C2459 C2458 1.400 . S
C2459 C2460 1.398 . S
C2459 C2465 1.491 . S
C2460 H2451 0.950 . S
C2460 C2459 1.398 . S
C2460 C2461 1.391 . S
C2461 H2449 0.950 . S
C2461 C2457 1.393 . S
C2461 C2460 1.391 . S
C2462 H2452 0.950 . S
C2462 C2463 1.386 . S
C2462 C2464 1.391 . S
C2463 C2462 1.386 . S
C2463 C2467 1.393 . S
C2464 H2453 0.950 . S
C2464 C2462 1.391 . S
C2464 C2465 1.400 . S
C2465 C2459 1.491 . S
C2465 C2464 1.400 . S
C2465 C2466 1.398 . S
C2466 H2454 0.950 . S
C2466 C2465 1.398 . S
C2466 C2467 1.391 . S
C2467 H2455 0.950 . S
C2467 C2463 1.393 . S
C2467 C2466 1.391 . S
H2468 C2476 0.950 . S
H2469 C2481 0.950 . S
H2470 C2478 0.950 . S
H2471 C2480 0.950 . S
H2472 C2482 0.950 . S
H2473 C2484 0.950 . S
H2474 C2486 0.950 . S
H2475 C2487 0.950 . S
C2476 H2468 0.950 . S
C2476 C2477 1.386 . S
C2476 C2478 1.391 . S
C2477 C2476 1.386 . S
C2477 C2481 1.393 . S
C2478 H2470 0.950 . S
C2478 C2476 1.391 . S
C2478 C2479 1.400 . S
C2479 C2478 1.400 . S
C2479 C2480 1.398 . S
C2479 C2485 1.491 . S
C2480 H2471 0.950 . S
C2480 C2479 1.398 . S
C2480 C2481 1.391 . S
C2481 H2469 0.950 . S
C2481 C2477 1.393 . S
C2481 C2480 1.391 . S
C2482 H2472 0.950 . S
C2482 C2483 1.386 . S
C2482 C2484 1.391 . S
C2483 C2482 1.386 . S
C2483 C2487 1.393 . S
C2484 H2473 0.950 . S
C2484 C2482 1.391 . S
C2484 C2485 1.400 . S
C2485 C2479 1.491 . S
C2485 C2484 1.400 . S
C2485 C2486 1.398 . S
C2486 H2474 0.950 . S
C2486 C2485 1.398 . S
C2486 C2487 1.391 . S
C2487 H2475 0.950 . S
C2487 C2483 1.393 . S
C2487 C2486 1.391 . S
H2488 C2496 0.950 . S
H2489 C2501 0.950 . S
H2490 C2498 0.950 . S
H2491 C2500 0.950 . S
H2492 C2502 0.950 . S
H2493 C2504 0.950 . S
H2494 C2506 0.950 . S
H2495 C2507 0.950 . S
C2496 H2488 0.950 . S
C2496 C2497 1.386 . S
C2496 C2498 1.391 . S
C2497 C2496 1.386 . S
C2497 C2501 1.393 . S
C2498 H2490 0.950 . S
C2498 C2496 1.391 . S
C2498 C2499 1.400 . S
C2499 C2498 1.400 . S
C2499 C2500 1.398 . S
C2499 C2505 1.491 . S
C2500 H2491 0.950 . S
C2500 C2499 1.398 . S
C2500 C2501 1.391 . S
C2501 H2489 0.950 . S
C2501 C2497 1.393 . S
C2501 C2500 1.391 . S
C2502 H2492 0.950 . S
C2502 C2503 1.386 . S
C2502 C2504 1.391 . S
C2503 C2502 1.386 . S
C2503 C2507 1.393 . S
C2504 H2493 0.950 . S
C2504 C2502 1.391 . S
C2504 C2505 1.400 . S
C2505 C2499 1.491 . S
C2505 C2504 1.400 . S
C2505 C2506 1.398 . S
C2506 H2494 0.950 . S
C2506 C2505 1.398 . S
C2506 C2507 1.391 . S
C2507 H2495 0.950 . S
C2507 C2503 1.393 . S
C2507 C2506 1.391 . S
H2508 C2516 0.950 . S
H2509 C2521 0.950 . S
H2510 C2518 0.950 . S
H2511 C2520 0.950 . S
H2512 C2522 0.950 . S
H2513 C2524 0.950 . S
H2514 C2526 0.950 . S
H2515 C2527 0.950 . S
C2516 H2508 0.950 . S
C2516 C2517 1.386 . S
C2516 C2518 1.391 . S
C2517 C2516 1.386 . S
C2517 C2521 1.393 . S
C2518 H2510 0.950 . S
C2518 C2516 1.391 . S
C2518 C2519 1.400 . S
C2519 C2518 1.400 . S
C2519 C2520 1.398 . S
C2519 C2525 1.491 . S
C2520 H2511 0.950 . S
C2520 C2519 1.398 . S
C2520 C2521 1.391 . S
C2521 H2509 0.950 . S
C2521 C2517 1.393 . S
C2521 C2520 1.391 . S
C2522 H2512 0.950 . S
C2522 C2523 1.386 . S
C2522 C2524 1.391 . S
C2523 C2522 1.386 . S
C2523 C2527 1.393 . S
C2524 H2513 0.950 . S
C2524 C2522 1.391 . S
C2524 C2525 1.400 . S
C2525 C2519 1.491 . S
C2525 C2524 1.400 . S
C2525 C2526 1.398 . S
C2526 H2514 0.950 . S
C2526 C2525 1.398 . S
C2526 C2527 1.391 . S
C2527 H2515 0.950 . S
C2527 C2523 1.393 . S
C2527 C2526 1.391 . S
H2528 C2536 0.950 . S
H2529 C2541 0.950 . S
H2530 C2538 0.950 . S
H2531 C2540 0.950 . S
H2532 C2542 0.950 . S
H2533 C2544 0.950 . S
H2534 C2546 0.950 . S
H2535 C2547 0.950 . S
C2536 H2528 0.950 . S
C2536 C2537 1.386 . S
C2536 C2538 1.391 . S
C2537 C2536 1.386 . S
C2537 C2541 1.393 . S
C2538 H2530 0.950 . S
C2538 C2536 1.391 . S
C2538 C2539 1.400 . S
C2539 C2538 1.400 . S
C2539 C2540 1.398 . S
C2539 C2545 1.491 . S
C2540 H2531 0.950 . S
C2540 C2539 1.398 . S
C2540 C2541 1.391 . S
C2541 H2529 0.950 . S
C2541 C2537 1.393 . S
C2541 C2540 1.391 . S
C2542 H2532 0.950 . S
C2542 C2543 1.386 . S
C2542 C2544 1.391 . S
C2543 C2542 1.386 . S
C2543 C2547 1.393 . S
C2544 H2533 0.950 . S
C2544 C2542 1.391 . S
C2544 C2545 1.400 . S
C2545 C2539 1.491 . S
C2545 C2544 1.400 . S
C2545 C2546 1.398 . S
C2546 H2534 0.950 . S
C2546 C2545 1.398 . S
C2546 C2547 1.391 . S
C2547 H2535 0.950 . S
C2547 C2543 1.393 . S
C2547 C2546 1.391 . S
H2548 C2556 0.950 . S
H2549 C2561 0.950 . S
H2550 C2558 0.950 . S
H2551 C2560 0.950 . S
H2552 C2562 0.950 . S
H2553 C2564 0.950 . S
H2554 C2566 0.950 . S
H2555 C2567 0.950 . S
C2556 H2548 0.950 . S
C2556 C2557 1.386 . S
C2556 C2558 1.391 . S
C2557 C2556 1.386 . S
C2557 C2561 1.393 . S
C2558 H2550 0.950 . S
C2558 C2556 1.391 . S
C2558 C2559 1.400 . S
C2559 C2558 1.400 . S
C2559 C2560 1.398 . S
C2559 C2565 1.491 . S
C2560 H2551 0.950 . S
C2560 C2559 1.398 . S
C2560 C2561 1.391 . S
C2561 H2549 0.950 . S
C2561 C2557 1.393 . S
C2561 C2560 1.391 . S
C2562 H2552 0.950 . S
C2562 C2563 1.386 . S
C2562 C2564 1.391 . S
C2563 C2562 1.386 . S
C2563 C2567 1.393 . S
C2564 H2553 0.950 . S
C2564 C2562 1.391 . S
C2564 C2565 1.400 . S
C2565 C2559 1.491 . S
C2565 C2564 1.400 . S
C2565 C2566 1.398 . S
C2566 H2554 0.950 . S
C2566 C2565 1.398 . S
C2566 C2567 1.391 . S
C2567 H2555 0.950 . S
C2567 C2563 1.393 . S
C2567 C2566 1.391 . S
H2568 C2576 0.950 . S
H2569 C2581 0.950 . S
H2570 C2578 0.950 . S
H2571 C2580 0.950 . S
H2572 C2582 0.950 . S
H2573 C2584 0.950 . S
H2574 C2586 0.950 . S
H2575 C2587 0.950 . S
C2576 H2568 0.950 . S
C2576 C2577 1.386 . S
C2576 C2578 1.391 . S
C2577 C2576 1.386 . S
C2577 C2581 1.393 . S
C2578 H2570 0.950 . S
C2578 C2576 1.391 . S
C2578 C2579 1.400 . S
C2579 C2578 1.400 . S
C2579 C2580 1.398 . S
C2579 C2585 1.491 . S
C2580 H2571 0.950 . S
C2580 C2579 1.398 . S
C2580 C2581 1.391 . S
C2581 H2569 0.950 . S
C2581 C2577 1.393 . S
C2581 C2580 1.391 . S
C2582 H2572 0.950 . S
C2582 C2583 1.386 . S
C2582 C2584 1.391 . S
C2583 C2582 1.386 . S
C2583 C2587 1.393 . S
C2584 H2573 0.950 . S
C2584 C2582 1.391 . S
C2584 C2585 1.400 . S
C2585 C2579 1.491 . S
C2585 C2584 1.400 . S
C2585 C2586 1.398 . S
C2586 H2574 0.950 . S
C2586 C2585 1.398 . S
C2586 C2587 1.391 . S
C2587 H2575 0.950 . S
C2587 C2583 1.393 . S
C2587 C2586 1.391 . S
H2588 C2596 0.950 . S
H2589 C2601 0.950 . S
H2590 C2598 0.950 . S
H2591 C2600 0.950 . S
H2592 C2602 0.950 . S
H2593 C2604 0.950 . S
H2594 C2606 0.950 . S
H2595 C2607 0.950 . S
C2596 H2588 0.950 . S
C2596 C2597 1.386 . S
C2596 C2598 1.391 . S
C2597 C2596 1.386 . S
C2597 C2601 1.393 . S
C2598 H2590 0.950 . S
C2598 C2596 1.391 . S
C2598 C2599 1.400 . S
C2599 C2598 1.400 . S
C2599 C2600 1.398 . S
C2599 C2605 1.491 . S
C2600 H2591 0.950 . S
C2600 C2599 1.398 . S
C2600 C2601 1.391 . S
C2601 H2589 0.950 . S
C2601 C2597 1.393 . S
C2601 C2600 1.391 . S
C2602 H2592 0.950 . S
C2602 C2603 1.386 . S
C2602 C2604 1.391 . S
C2603 C2602 1.386 . S
C2603 C2607 1.393 . S
C2604 H2593 0.950 . S
C2604 C2602 1.391 . S
C2604 C2605 1.400 . S
C2605 C2599 1.491 . S
C2605 C2604 1.400 . S
C2605 C2606 1.398 . S
C2606 H2594 0.950 . S
C2606 C2605 1.398 . S
C2606 C2607 1.391 . S
C2607 H2595 0.950 . S
C2607 C2603 1.393 . S
C2607 C2606 1.391 . S
H2608 C2616 0.950 . S
H2609 C2621 0.950 . S
H2610 C2618 0.950 . S
H2611 C2620 0.950 . S
H2612 C2622 0.950 . S
H2613 C2624 0.950 . S
H2614 C2626 0.950 . S
H2615 C2627 0.950 . S
C2616 H2608 0.950 . S
C2616 C2617 1.386 . S
C2616 C2618 1.391 . S
C2617 C2616 1.386 . S
C2617 C2621 1.393 . S
C2618 H2610 0.950 . S
C2618 C2616 1.391 . S
C2618 C2619 1.400 . S
C2619 C2618 1.400 . S
C2619 C2620 1.398 . S
C2619 C2625 1.491 . S
C2620 H2611 0.950 . S
C2620 C2619 1.398 . S
C2620 C2621 1.391 . S
C2621 H2609 0.950 . S
C2621 C2617 1.393 . S
C2621 C2620 1.391 . S
C2622 H2612 0.950 . S
C2622 C2623 1.386 . S
C2622 C2624 1.391 . S
C2623 C2622 1.386 . S
C2623 C2627 1.393 . S
C2624 H2613 0.950 . S
C2624 C2622 1.391 . S
C2624 C2625 1.400 . S
C2625 C2619 1.491 . S
C2625 C2624 1.400 . S
C2625 C2626 1.398 . S
C2626 H2614 0.950 . S
C2626 C2625 1.398 . S
C2626 C2627 1.391 . S
C2627 H2615 0.950 . S
C2627 C2623 1.393 . S
C2627 C2626 1.391 . S
H2628 C2636 0.950 . S
H2629 C2641 0.950 . S
H2630 C2638 0.950 . S
H2631 C2640 0.950 . S
H2632 C2642 0.950 . S
H2633 C2644 0.950 . S
H2634 C2646 0.950 . S
H2635 C2647 0.950 . S
C2636 H2628 0.950 . S
C2636 C2637 1.386 . S
C2636 C2638 1.391 . S
C2637 C2636 1.386 . S
C2637 C2641 1.393 . S
C2638 H2630 0.950 . S
C2638 C2636 1.391 . S
C2638 C2639 1.400 . S
C2639 C2638 1.400 . S
C2639 C2640 1.398 . S
C2639 C2645 1.491 . S
C2640 H2631 0.950 . S
C2640 C2639 1.398 . S
C2640 C2641 1.391 . S
C2641 H2629 0.950 . S
C2641 C2637 1.393 . S
C2641 C2640 1.391 . S
C2642 H2632 0.950 . S
C2642 C2643 1.386 . S
C2642 C2644 1.391 . S
C2643 C2642 1.386 . S
C2643 C2647 1.393 . S
C2644 H2633 0.950 . S
C2644 C2642 1.391 . S
C2644 C2645 1.400 . S
C2645 C2639 1.491 . S
C2645 C2644 1.400 . S
C2645 C2646 1.398 . S
C2646 H2634 0.950 . S
C2646 C2645 1.398 . S
C2646 C2647 1.391 . S
C2647 H2635 0.950 . S
C2647 C2643 1.393 . S
C2647 C2646 1.391 . S
H2648 C2656 0.950 . S
H2649 C2661 0.950 . S
H2650 C2658 0.950 . S
H2651 C2660 0.950 . S
H2652 C2662 0.950 . S
H2653 C2664 0.950 . S
H2654 C2666 0.950 . S
H2655 C2667 0.950 . S
C2656 H2648 0.950 . S
C2656 C2657 1.386 . S
C2656 C2658 1.391 . S
C2657 C2656 1.386 . S
C2657 C2661 1.393 . S
C2658 H2650 0.950 . S
C2658 C2656 1.391 . S
C2658 C2659 1.400 . S
C2659 C2658 1.400 . S
C2659 C2660 1.398 . S
C2659 C2665 1.491 . S
C2660 H2651 0.950 . S
C2660 C2659 1.398 . S
C2660 C2661 1.391 . S
C2661 H2649 0.950 . S
C2661 C2657 1.393 . S
C2661 C2660 1.391 . S
C2662 H2652 0.950 . S
C2662 C2663 1.386 . S
C2662 C2664 1.391 . S
C2663 C2662 1.386 . S
C2663 C2667 1.393 . S
C2664 H2653 0.950 . S
C2664 C2662 1.391 . S
C2664 C2665 1.400 . S
C2665 C2659 1.491 . S
C2665 C2664 1.400 . S
C2665 C2666 1.398 . S
C2666 H2654 0.950 . S
C2666 C2665 1.398 . S
C2666 C2667 1.391 . S
C2667 H2655 0.950 . S
C2667 C2663 1.393 . S
C2667 C2666 1.391 . S
H2668 C2676 0.950 . S
H2669 C2681 0.950 . S
H2670 C2678 0.950 . S
H2671 C2680 0.950 . S
H2672 C2682 0.950 . S
H2673 C2684 0.950 . S
H2674 C2686 0.950 . S
H2675 C2687 0.950 . S
C2676 H2668 0.950 . S
C2676 C2677 1.386 . S
C2676 C2678 1.391 . S
C2677 C2676 1.386 . S
C2677 C2681 1.393 . S
C2678 H2670 0.950 . S
C2678 C2676 1.391 . S
C2678 C2679 1.400 . S
C2679 C2678 1.400 . S
C2679 C2680 1.398 . S
C2679 C2685 1.491 . S
C2680 H2671 0.950 . S
C2680 C2679 1.398 . S
C2680 C2681 1.391 . S
C2681 H2669 0.950 . S
C2681 C2677 1.393 . S
C2681 C2680 1.391 . S
C2682 H2672 0.950 . S
C2682 C2683 1.386 . S
C2682 C2684 1.391 . S
C2683 C2682 1.386 . S
C2683 C2687 1.393 . S
C2684 H2673 0.950 . S
C2684 C2682 1.391 . S
C2684 C2685 1.400 . S
C2685 C2679 1.491 . S
C2685 C2684 1.400 . S
C2685 C2686 1.398 . S
C2686 H2674 0.950 . S
C2686 C2685 1.398 . S
C2686 C2687 1.391 . S
C2687 H2675 0.950 . S
C2687 C2683 1.393 . S
C2687 C2686 1.391 . S
C1097 C20 1.182 . S
C1103 C836 1.182 . S
C1117 C326 1.181 . S
C1123 C54 1.181 . S
C1137 C904 1.183 . S
C1143 C88 1.183 . S
C1157 C394 1.185 . S
C1163 C122 1.185 . S
C1177 C972 1.182 . S
C1183 C156 1.182 . S
C1197 C462 1.181 . S
C1203 C190 1.181 . S
C1217 C1040 1.181 . S
C1223 C224 1.181 . S
C1237 C530 1.185 . S
C1243 C258 1.185 . S
C1257 C292 1.183 . S
C1263 C564 1.183 . S
C1277 C360 1.182 . S
C1283 C632 1.182 . S
C1297 C428 1.181 . S
C1303 C700 1.181 . S
C1317 C768 1.183 . S
C1323 C496 1.183 . S
C1337 C598 1.183 . S
C1343 C870 1.183 . S
C1357 C938 1.182 . S
C1363 C666 1.182 . S
C1377 C734 1.185 . S
C1383 C1006 1.185 . S
C1397 C1074 1.184 . S
C1403 C802 1.184 . S
C1417 C5 1.697 . S
C1423 C407 1.696 . S
C1437 C39 1.691 . S
C1443 C849 1.694 . S
C1457 C339 1.691 . S
C1463 C73 1.696 . S
C1477 C107 1.691 . S
C1483 C917 1.693 . S
C1497 C475 1.698 . S
C1503 C141 1.691 . S
C1517 C1053 1.691 . S
C1523 C175 1.694 . S
C1537 C209 1.698 . S
C1543 C543 1.695 . S
C1557 C985 1.694 . S
C1563 C243 1.690 . S
C1577 C277 1.691 . S
C1583 C135 1.698 . S
C1597 C311 1.695 . S
C1603 C577 1.691 . S
C1617 C67 1.695 . S
C1623 C345 1.690 . S
C1637 C379 1.693 . S
C1643 C645 1.692 . S
C1657 C413 1.694 . S
C1663 C203 1.699 . S
C1677 C781 1.697 . S
C1683 C447 1.690 . S
C1697 C271 1.695 . S
C1703 C481 1.690 . S
C1717 C515 1.695 . S
C1723 C713 1.691 . S
C1737 C951 1.693 . S
C1743 C549 1.698 . S
C1757 C305 1.691 . S
C1763 C583 1.695 . S
C1777 C883 1.697 . S
C1783 C617 1.690 . S
C1797 C651 1.691 . S
C1803 C373 1.693 . S
C1817 C1019 1.694 . S
C1823 C685 1.691 . S
C1837 C509 1.691 . S
C1843 C719 1.696 . S
C1857 C753 1.698 . S
C1863 C1087 1.695 . S
C1877 C441 1.696 . S
C1883 C787 1.697 . S
C1897 C679 1.697 . S
C1903 C821 1.690 . S
C1917 C855 1.691 . S
C1923 C33 1.698 . S
C1937 C889 1.693 . S
C1943 C611 1.691 . S
C1957 C101 1.694 . S
C1963 C923 1.691 . S
C1977 C747 1.697 . S
C1983 C957 1.697 . S
C1997 C991 1.694 . S
C2003 C237 1.691 . S
C2017 C815 1.692 . S
C2023 C1025 1.693 . S
C2037 C169 1.691 . S
C2043 C1059 1.697 . S
C2057 C2 1.888 . S
C2063 C206 1.887 . S
C2077 C240 1.890 . S
C2083 C36 1.891 . S
C2097 C70 1.890 . S
C2103 C138 1.891 . S
C2117 C104 1.888 . S
C2123 C172 1.887 . S
C2137 C478 1.888 . S
C2143 C274 1.889 . S
C2157 C512 1.889 . S
C2163 C308 1.887 . S
C2177 C410 1.891 . S
C2183 C342 1.890 . S
C2197 C444 1.891 . S
C2203 C376 1.890 . S
C2217 C546 1.887 . S
C2223 C750 1.889 . S
C2237 C580 1.890 . S
C2243 C784 1.888 . S
C2257 C614 1.887 . S
C2263 C682 1.887 . S
C2277 C648 1.888 . S
C2283 C716 1.889 . S
C2297 C1022 1.887 . S
C2303 C818 1.887 . S
C2317 C1056 1.891 . S
C2323 C852 1.891 . S
C2337 C886 1.887 . S
C2343 C954 1.887 . S
C2357 C920 1.887 . S
C2363 C988 1.886 . S
C2377 C9 1.176 . S
C2383 C723 1.168 . S
C2397 C43 1.163 . S
C2403 C757 1.180 . S
C2417 C77 1.155 . S
C2423 C791 1.176 . S
C2437 C111 1.176 . S
C2443 C689 1.169 . S
C2457 C655 1.152 . S
C2463 C145 1.184 . S
C2477 C179 1.185 . S
C2483 C553 1.155 . S
C2497 C587 1.158 . S
C2503 C213 1.172 . S
C2517 C247 1.153 . S
C2523 C621 1.178 . S
C2537 C995 1.153 . S
C2543 C281 1.185 . S
C2557 C315 1.167 . S
C2563 C1029 1.163 . S
C2577 C1063 1.153 . S
C2583 C349 1.180 . S
C2597 C383 1.160 . S
C2603 C961 1.170 . S
C2617 C417 1.173 . S
C2623 C927 1.157 . S
C2637 C825 1.153 . S
C2643 C451 1.179 . S
C2657 C485 1.155 . S
C2663 C859 1.185 . S
C2677 C519 1.160 . S
C2683 C893 1.169 . S
