# Generated by pormake.
# Topology hjm, (4)-cn, num edge types: 1
# Building blocks:
#     Node 0, Type 0, BuildingBlock: GALJAG_clean_sbu_0, # of connection points: 4
#     Node 1, Type 0, BuildingBlock: GALJAG_clean_sbu_0, # of connection points: 4
#     Node 2, Type 0, BuildingBlock: GALJAG_clean_sbu_0, # of connection points: 4
#     Node 3, Type 0, BuildingBlock: GALJAG_clean_sbu_0, # of connection points: 4
#     Node 4, Type 0, BuildingBlock: GALJAG_clean_sbu_0, # of connection points: 4
#     Node 5, Type 0, BuildingBlock: GALJAG_clean_sbu_0, # of connection points: 4
#     Node 6, Type 0, BuildingBlock: GALJAG_clean_sbu_0, # of connection points: 4
#     Node 7, Type 0, BuildingBlock: GALJAG_clean_sbu_0, # of connection points: 4
#     Edge 8, Type (0, 0), BuildingBlock: UVAHIK_clean_linker_0, # of connection points: 2
#     Edge 9, Type (0, 0), BuildingBlock: UVAHIK_clean_linker_0, # of connection points: 2
#     Edge 10, Type (0, 0), BuildingBlock: UVAHIK_clean_linker_0, # of connection points: 2
#     Edge 11, Type (0, 0), BuildingBlock: UVAHIK_clean_linker_0, # of connection points: 2
#     Edge 12, Type (0, 0), BuildingBlock: UVAHIK_clean_linker_0, # of connection points: 2
#     Edge 13, Type (0, 0), BuildingBlock: UVAHIK_clean_linker_0, # of connection points: 2
#     Edge 14, Type (0, 0), BuildingBlock: UVAHIK_clean_linker_0, # of connection points: 2
#     Edge 15, Type (0, 0), BuildingBlock: UVAHIK_clean_linker_0, # of connection points: 2
#     Edge 16, Type (0, 0), BuildingBlock: UVAHIK_clean_linker_0, # of connection points: 2
#     Edge 17, Type (0, 0), BuildingBlock: UVAHIK_clean_linker_0, # of connection points: 2
#     Edge 18, Type (0, 0), BuildingBlock: UVAHIK_clean_linker_0, # of connection points: 2
#     Edge 19, Type (0, 0), BuildingBlock: UVAHIK_clean_linker_0, # of connection points: 2
#     Edge 20, Type (0, 0), BuildingBlock: UVAHIK_clean_linker_0, # of connection points: 2
#     Edge 21, Type (0, 0), BuildingBlock: UVAHIK_clean_linker_0, # of connection points: 2
#     Edge 22, Type (0, 0), BuildingBlock: UVAHIK_clean_linker_0, # of connection points: 2
#     Edge 23, Type (0, 0), BuildingBlock: UVAHIK_clean_linker_0, # of connection points: 2
# Relax obj value: 0.069
# Max RMSD: 0.136
# Mean RMSD: 0.136
data_MOF--net-hjm--node1-GALJAG_clean_sbu_0--edge1-UVAHIK_clean_linker_0
_symmetry_space_group_name_H-M    P1
_symmetry_Int_Tables_number       1
_symmetry_cell_setting            triclinic
loop_
_symmetry_equiv_pos_as_xyz
'x, y, z'
_cell_length_a     33.17055
_cell_length_b     27.430015
_cell_length_c     33.193455
_cell_angle_alpha  89.965596
_cell_angle_beta   70.054567
_cell_angle_gamma 89.945887
loop_
_atom_site_label
_atom_site_type_symbol
_atom_site_fract_x
_atom_site_fract_y
_atom_site_fract_z
_atom_type_partial_charge
In0 In 0.18326 0.24609 0.30559 0.0
O1 O 0.12776 0.30017 0.3221 0.0
O2 O 0.16892 0.30255 0.35904 0.0
C3 C 0.19154 0.24755 0.22186 0.0
C4 C 0.13737 0.17242 0.35357 0.0
C5 C 0.26781 0.24543 0.29408 0.0
O6 O 0.18944 0.28589 0.24344 0.0
O7 O 0.18865 0.20847 0.24272 0.0
O8 O 0.24647 0.20687 0.29628 0.0
O9 O 0.24634 0.28426 0.29852 0.0
C10 C 0.13627 0.31962 0.35269 0.0
O11 O 0.16862 0.19188 0.36088 0.0
O12 O 0.12981 0.18947 0.32156 0.0
In13 In 0.80998 0.24678 0.1792 0.0
O14 O 0.86293 0.30386 0.16538 0.0
O15 O 0.82615 0.30134 0.1241 0.0
C16 C 0.7984 0.24573 0.26372 0.0
C17 C 0.85851 0.17385 0.13269 0.0
C18 C 0.72617 0.24638 0.18753 0.0
O19 O 0.80104 0.28469 0.24277 0.0
O20 O 0.80249 0.20728 0.24185 0.0
O21 O 0.74769 0.20777 0.18454 0.0
O22 O 0.74713 0.28521 0.18547 0.0
C23 C 0.85655 0.32102 0.1328 0.0
O24 O 0.82612 0.19047 0.12554 0.0
O25 O 0.86597 0.19339 0.16381 0.0
In26 In 0.81247 0.74626 0.68173 0.0
O27 O 0.86796 0.69216 0.66487 0.0
O28 O 0.8268 0.69024 0.62792 0.0
C29 C 0.80215 0.74576 0.76595 0.0
C30 C 0.85927 0.82042 0.63543 0.0
C31 C 0.72833 0.74556 0.69146 0.0
O32 O 0.80792 0.70733 0.74386 0.0
O33 O 0.80252 0.78452 0.74536 0.0
O34 O 0.74986 0.78437 0.68663 0.0
O35 O 0.74945 0.70705 0.69052 0.0
C36 C 0.85945 0.67301 0.63417 0.0
O37 O 0.82844 0.80132 0.62709 0.0
O38 O 0.86603 0.8027 0.66763 0.0
In39 In 0.18579 0.74666 0.80793 0.0
O40 O 0.1718 0.8035 0.8611 0.0
O41 O 0.13086 0.80147 0.82393 0.0
C42 C 0.26997 0.74687 0.79806 0.0
C43 C 0.13826 0.67348 0.85508 0.0
C44 C 0.19577 0.74562 0.72378 0.0
O45 O 0.24913 0.78545 0.79842 0.0
O46 O 0.24816 0.70823 0.80352 0.0
O47 O 0.19534 0.70724 0.74487 0.0
O48 O 0.19034 0.78446 0.74531 0.0
C49 C 0.1394 0.82093 0.85449 0.0
O50 O 0.13201 0.69054 0.82241 0.0
O51 O 0.16897 0.69273 0.86352 0.0
In52 In 0.68444 0.74643 0.30802 0.0
O53 O 0.63111 0.80317 0.32317 0.0
O54 O 0.66941 0.80109 0.363 0.0
C55 C 0.69368 0.74389 0.22408 0.0
C56 C 0.63692 0.67308 0.35488 0.0
C57 C 0.76882 0.74826 0.29727 0.0
O58 O 0.6882 0.78305 0.24519 0.0
O59 O 0.69369 0.70589 0.24551 0.0
O60 O 0.74739 0.7093 0.30334 0.0
O61 O 0.7475 0.78642 0.2975 0.0
C62 C 0.63839 0.82052 0.35519 0.0
O63 O 0.66899 0.69054 0.36204 0.0
O64 O 0.62927 0.69204 0.3236 0.0
In65 In 0.31123 0.74554 0.18166 0.0
O66 O 0.36367 0.80329 0.16774 0.0
O67 O 0.3285 0.79806 0.12509 0.0
C68 C 0.30128 0.74616 0.26582 0.0
C69 C 0.35812 0.67153 0.13512 0.0
C70 C 0.22714 0.746 0.19113 0.0
O71 O 0.30145 0.78461 0.2449 0.0
O72 O 0.30696 0.70744 0.24411 0.0
O73 O 0.24754 0.70732 0.19171 0.0
O74 O 0.24934 0.78439 0.18502 0.0
C75 C 0.35817 0.81888 0.13423 0.0
O76 O 0.32443 0.68708 0.12992 0.0
O77 O 0.3677 0.69267 0.16436 0.0
In78 In 0.30893 0.24651 0.67952 0.0
O79 O 0.36297 0.19066 0.66538 0.0
O80 O 0.32571 0.19183 0.62452 0.0
C81 C 0.29769 0.24784 0.76395 0.0
C82 C 0.35617 0.32023 0.63305 0.0
C83 C 0.22501 0.24537 0.6883 0.0
O84 O 0.30117 0.20881 0.74294 0.0
O85 O 0.30076 0.28624 0.74218 0.0
O86 O 0.24615 0.28432 0.68463 0.0
O87 O 0.24642 0.20692 0.68666 0.0
C88 C 0.35663 0.17303 0.63297 0.0
O89 O 0.32431 0.30253 0.62564 0.0
O90 O 0.36374 0.30134 0.6644 0.0
In91 In 0.68219 0.24537 0.80568 0.0
O92 O 0.62995 0.18738 0.82087 0.0
O93 O 0.66627 0.19312 0.86243 0.0
C94 C 0.69072 0.24429 0.72187 0.0
C95 C 0.63515 0.31932 0.85217 0.0
C96 C 0.76665 0.24537 0.79467 0.0
O97 O 0.68974 0.20589 0.7431 0.0
O98 O 0.68659 0.28323 0.7431 0.0
O99 O 0.74573 0.28401 0.79553 0.0
O100 O 0.7448 0.20676 0.80015 0.0
C101 C 0.63628 0.17203 0.85405 0.0
O102 O 0.66881 0.3038 0.85745 0.0
O103 O 0.62565 0.29815 0.82288 0.0
C104 C 0.07495 0.11535 0.37289 0.0
C105 C 0.11045 0.13441 0.3815 0.0
C106 C 0.04806 0.08135 0.40059 0.0
C107 C 0.04297 0.99267 0.48597 0.0
H108 H 0.92004 0.00753 0.51476 0.0
C109 C 0.92166 0.87753 0.6179 0.0
C110 C 0.88649 0.85888 0.60843 0.0
C111 C 0.9487 0.91212 0.59106 0.0
C112 C 0.95429 0.0026 0.50673 0.0
H113 H 0.14606 0.13237 0.42544 0.0
H114 H 0.09896 0.07318 0.47397 0.0
H115 H 0.96846 0.06489 0.46545 0.0
H116 H 0.85168 0.86218 0.56382 0.0
H117 H 0.89898 0.92227 0.51682 0.0
H118 H 0.02877 0.9303 0.5272 0.0
C119 C 0.09211 0.08415 0.44562 0.0
C120 C 0.98204 0.03542 0.47843 0.0
C121 C 0.11898 0.11819 0.41793 0.0
C122 C 0.87847 0.87602 0.57201 0.0
C123 C 0.90546 0.91061 0.54519 0.0
C124 C 0.0152 0.95982 0.51427 0.0
C125 C 0.05612 0.06567 0.43747 0.0
C126 C 0.0267 0.03076 0.46763 0.0
C127 C 0.94108 0.92879 0.55423 0.0
C128 C 0.97055 0.96434 0.52489 0.0
H129 H 0.06763 0.12708 0.34499 0.0
H130 H 0.02098 0.06725 0.39305 0.0
H131 H 0.07722 0.98771 0.47788 0.0
H132 H 0.92858 0.86506 0.64582 0.0
H133 H 0.97551 0.9259 0.59922 0.0
C134 C 0.07556 0.87604 0.87411 0.0
C135 C 0.11248 0.85955 0.88158 0.0
C136 C 0.04888 0.91082 0.90101 0.0
C137 C 0.01966 0.96185 0.00995 0.0
H138 H 0.96888 0.06529 0.96342 0.0
C139 C 0.92361 0.12061 0.11336 0.0
C140 C 0.88658 0.13608 0.10553 0.0
C141 C 0.95129 0.08663 0.08636 0.0
C142 C 0.98242 0.03629 0.97695 0.0
H143 H 0.15092 0.86712 0.92254 0.0
H144 H 0.10457 0.92831 0.96928 0.0
H145 H 0.01786 0.0076 0.91501 0.0
H146 H 0.84904 0.12755 0.0638 0.0
H147 H 0.89707 0.06779 0.01696 0.0
H148 H 0.98415 0.9905 0.0719 0.0
C149 C 0.0959 0.91385 0.943 0.0
C150 C 0.01053 0.00327 0.9492 0.0
C151 C 0.12259 0.87906 0.91607 0.0
C152 C 0.87742 0.1164 0.07056 0.0
C153 C 0.90509 0.08244 0.04357 0.0
C154 C 0.99155 0.99488 0.0377 0.0
C155 C 0.05856 0.92986 0.93596 0.0
C156 C 0.02939 0.9656 0.96539 0.0
C157 C 0.94251 0.06744 0.05096 0.0
C158 C 0.97251 0.03239 0.02152 0.0
H159 H 0.06687 0.86153 0.84784 0.0
H160 H 0.02011 0.92196 0.895 0.0
H161 H 0.03314 0.93278 0.02348 0.0
H162 H 0.93157 0.13529 0.14 0.0
H163 H 0.98007 0.07621 0.09268 0.0
C164 C 0.42007 0.37515 0.61414 0.0
C165 C 0.38359 0.35849 0.60596 0.0
C166 C 0.44722 0.40956 0.58722 0.0
C167 C 0.47854 0.45909 0.47752 0.0
H168 H 0.52736 0.56398 0.52425 0.0
C169 C 0.57284 0.61842 0.37402 0.0
C170 C 0.6094 0.63499 0.38211 0.0
C171 C 0.54566 0.58409 0.401 0.0
C172 C 0.51439 0.53455 0.51068 0.0
H173 H 0.34644 0.36535 0.56369 0.0
H174 H 0.39355 0.42588 0.51696 0.0
H175 H 0.47839 0.50627 0.57262 0.0
H176 H 0.64663 0.62807 0.4243 0.0
H177 H 0.59943 0.56768 0.47116 0.0
H178 H 0.51453 0.48738 0.41558 0.0
C179 C 0.40155 0.41183 0.5438 0.0
C180 C 0.4863 0.50152 0.5384 0.0
C181 C 0.37441 0.37743 0.57073 0.0
C182 C 0.61861 0.61606 0.41733 0.0
C183 C 0.59142 0.58173 0.44433 0.0
C184 C 0.50663 0.49212 0.44981 0.0
C185 C 0.43845 0.42802 0.55154 0.0
C186 C 0.46804 0.46342 0.52214 0.0
C187 C 0.55447 0.56562 0.43665 0.0
C188 C 0.52488 0.53023 0.46606 0.0
H189 H 0.42804 0.36106 0.64099 0.0
H190 H 0.47563 0.42087 0.5938 0.0
H191 H 0.46558 0.42965 0.46394 0.0
H192 H 0.56486 0.6325 0.34718 0.0
H193 H 0.51721 0.57283 0.39447 0.0
C194 C 0.37364 0.61157 0.075 0.0
C195 C 0.3853 0.63327 0.10774 0.0
C196 C 0.40048 0.57724 0.04762 0.0
C197 C 0.51326 0.53706 0.00641 0.0
H198 H 0.46635 0.4216 0.97152 0.0
C199 C 0.61952 0.37936 0.91222 0.0
C200 C 0.60792 0.35759 0.87948 0.0
C201 C 0.59267 0.41374 0.93952 0.0
C202 C 0.4799 0.45397 0.98055 0.0
H203 H 0.43376 0.63552 0.13802 0.0
H204 H 0.48046 0.57523 0.09046 0.0
H205 H 0.41837 0.47906 0.02123 0.0
H206 H 0.55954 0.35527 0.8491 0.0
H207 H 0.5128 0.41564 0.89652 0.0
H208 H 0.5748 0.51197 0.96573 0.0
C209 C 0.45085 0.58519 0.08558 0.0
C210 C 0.45241 0.48685 0.00907 0.0
C211 C 0.42398 0.61945 0.11301 0.0
C212 C 0.56928 0.37139 0.87412 0.0
C213 C 0.54238 0.4057 0.90147 0.0
C214 C 0.54075 0.50418 0.97788 0.0
C215 C 0.43957 0.56398 0.05237 0.0
C216 C 0.46878 0.52876 0.02234 0.0
C217 C 0.55361 0.42699 0.93468 0.0
C218 C 0.52439 0.46226 0.96463 0.0
H219 H 0.34406 0.62162 0.0701 0.0
H220 H 0.39106 0.56195 0.02209 0.0
H221 H 0.52681 0.56943 0.01544 0.0
H222 H 0.64908 0.36935 0.91719 0.0
H223 H 0.60205 0.42909 0.96505 0.0
C224 C 0.87673 0.37556 0.0686 0.0
C225 C 0.88382 0.35944 0.1058 0.0
C226 C 0.90393 0.41003 0.04181 0.0
C227 C 0.0131 0.46045 0.01319 0.0
H228 H 0.96774 0.56415 0.96157 0.0
C229 C 0.11765 0.61947 0.91963 0.0
C230 C 0.11063 0.63551 0.88238 0.0
C231 C 0.09027 0.58526 0.94658 0.0
C232 C 0.98095 0.53505 0.97532 0.0
H233 H 0.92438 0.36737 0.14461 0.0
H234 H 0.97161 0.42799 0.09809 0.0
H235 H 0.91869 0.50657 0.01004 0.0
H236 H 0.06995 0.62776 0.84366 0.0
H237 H 0.02241 0.56757 0.89044 0.0
H238 H 0.07535 0.4889 0.97846 0.0
C239 C 0.94541 0.41348 0.08928 0.0
C240 C 0.95284 0.5021 0.00314 0.0
C241 C 0.9182 0.37902 0.11607 0.0
C242 C 0.07608 0.61617 0.87224 0.0
C243 C 0.04869 0.58195 0.89918 0.0
C244 C 0.04121 0.49339 0.98537 0.0
C245 C 0.9388 0.42908 0.05165 0.0
C246 C 0.96859 0.46443 0.0224 0.0
C247 C 0.05529 0.56636 0.93682 0.0
C248 C 0.02546 0.53106 0.96611 0.0
H249 H 0.85055 0.36098 0.05979 0.0
H250 H 0.89822 0.42089 0.01284 0.0
H251 H 0.02632 0.43135 0.02693 0.0
H252 H 0.14394 0.63388 0.92835 0.0
H253 H 0.09596 0.57442 0.97556 0.0
C254 C 0.11912 0.37717 0.41465 0.0
C255 C 0.10909 0.35786 0.38005 0.0
C256 C 0.09229 0.41169 0.44178 0.0
C257 C 0.98095 0.45688 0.47779 0.0
H258 H 0.02851 0.56736 0.51905 0.0
C259 C 0.87655 0.61588 0.5719 0.0
C260 C 0.88663 0.63494 0.60656 0.0
C261 C 0.90338 0.58151 0.54457 0.0
C262 C 0.01475 0.53639 0.5082 0.0
H263 H 0.06357 0.36004 0.34621 0.0
H264 H 0.01693 0.4207 0.39332 0.0
H265 H 0.0765 0.50946 0.46988 0.0
H266 H 0.93226 0.63248 0.64027 0.0
H267 H 0.97888 0.57209 0.59281 0.0
H268 H 0.9192 0.48382 0.51611 0.0
C269 C 0.0452 0.40869 0.39985 0.0
C270 C 0.04224 0.50325 0.48 0.0
C271 C 0.07206 0.37421 0.37271 0.0
C272 C 0.92372 0.6185 0.61374 0.0
C273 C 0.95057 0.58418 0.58639 0.0
C274 C 0.95346 0.49003 0.50598 0.0
C275 C 0.05485 0.42757 0.43487 0.0
C276 C 0.02566 0.46311 0.46448 0.0
C277 C 0.94086 0.56555 0.55132 0.0
C278 C 0.97004 0.53013 0.52154 0.0
H279 H 0.1474 0.36513 0.42117 0.0
H280 H 0.10038 0.42512 0.46874 0.0
H281 H 0.96719 0.4259 0.46696 0.0
H282 H 0.84823 0.62799 0.56551 0.0
H283 H 0.89523 0.56825 0.51759 0.0
C284 C 0.61608 0.12015 0.91992 0.0
C285 C 0.60952 0.13383 0.88184 0.0
C286 C 0.58944 0.08565 0.94724 0.0
C287 C 0.51325 0.9864 0.95044 0.0
H288 H 0.47216 0.01096 0.07285 0.0
C289 C 0.37959 0.87095 0.0685 0.0
C290 C 0.38552 0.85694 0.1068 0.0
C291 C 0.40681 0.90517 0.04142 0.0
C292 C 0.48371 0.00333 0.0388 0.0
H293 H 0.57034 0.12179 0.84218 0.0
H294 H 0.52369 0.06174 0.88993 0.0
H295 H 0.52084 0.06888 0.02437 0.0
H296 H 0.42413 0.86817 0.14714 0.0
H297 H 0.47182 0.92782 0.09975 0.0
H298 H 0.4761 0.9209 0.96484 0.0
C299 C 0.54964 0.0773 0.89853 0.0
C300 C 0.51164 0.03647 0.01103 0.0
C301 C 0.57623 0.11186 0.87127 0.0
C302 C 0.41874 0.87837 0.11785 0.0
C303 C 0.44593 0.91267 0.09081 0.0
C304 C 0.48534 0.95327 0.9782 0.0
C305 C 0.55575 0.06406 0.93697 0.0
C306 C 0.52666 0.02842 0.96653 0.0
C307 C 0.44048 0.92615 0.05211 0.0
C308 C 0.47017 0.96142 0.02268 0.0
H309 H 0.64155 0.13645 0.92887 0.0
H310 H 0.59532 0.07575 0.97634 0.0
H311 H 0.52476 0.97879 0.91638 0.0
H312 H 0.35418 0.8551 0.05918 0.0
H313 H 0.40139 0.91531 0.01214 0.0
C314 C 0.61927 0.87517 0.41929 0.0
C315 C 0.61147 0.85901 0.38248 0.0
C316 C 0.59241 0.90978 0.4463 0.0
C317 C 0.51218 0.00482 0.44998 0.0
H318 H 0.47627 0.98467 0.57286 0.0
C319 C 0.37748 0.11861 0.56872 0.0
C320 C 0.38447 0.13506 0.60585 0.0
C321 C 0.40515 0.08458 0.54183 0.0
C322 C 0.48635 0.99109 0.53864 0.0
H323 H 0.56988 0.86681 0.3447 0.0
H324 H 0.52287 0.92701 0.39192 0.0
H325 H 0.52565 0.92709 0.52463 0.0
H326 H 0.42549 0.12835 0.64433 0.0
H327 H 0.47396 0.06906 0.59726 0.0
H328 H 0.47282 0.06875 0.46398 0.0
C329 C 0.54994 0.91333 0.39975 0.0
C330 C 0.51469 0.95814 0.51101 0.0
C331 C 0.57674 0.87868 0.3728 0.0
C332 C 0.41924 0.11623 0.61596 0.0
C333 C 0.4469 0.08213 0.5891 0.0
C334 C 0.48385 0.03775 0.4776 0.0
C335 C 0.55726 0.929 0.43699 0.0
C336 C 0.52784 0.96458 0.46636 0.0
C337 C 0.44037 0.06623 0.55153 0.0
C338 C 0.47052 0.03119 0.52224 0.0
H339 H 0.64585 0.8607 0.42752 0.0
H340 H 0.59924 0.9216 0.47443 0.0
H341 H 0.5222 0.01121 0.41577 0.0
H342 H 0.35087 0.13241 0.56016 0.0
H343 H 0.39889 0.07251 0.51346 0.0
C344 C 0.29178 0.70239 0.33457 0.0
C345 C 0.29296 0.74632 0.31244 0.0
C346 C 0.28167 0.70233 0.37903 0.0
C347 C 0.22675 0.77584 0.47509 0.0
H348 H 0.28775 0.69219 0.52911 0.0
C349 C 0.2053 0.78915 0.65493 0.0
C350 C 0.20405 0.74528 0.67716 0.0
C351 C 0.21536 0.78907 0.61048 0.0
C352 C 0.27006 0.71533 0.51454 0.0
H353 H 0.28527 0.82472 0.31931 0.0
H354 H 0.26803 0.82469 0.39688 0.0
H355 H 0.30813 0.69281 0.45123 0.0
H356 H 0.21161 0.66685 0.6705 0.0
H357 H 0.22877 0.66664 0.59292 0.0
H358 H 0.18869 0.79837 0.5384 0.0
C359 C 0.27434 0.79022 0.37998 0.0
C360 C 0.28178 0.71572 0.46992 0.0
C361 C 0.28451 0.79027 0.33552 0.0
C362 C 0.21241 0.70125 0.6542 0.0
C363 C 0.22254 0.70117 0.60974 0.0
C364 C 0.21503 0.77545 0.51971 0.0
C365 C 0.27246 0.74621 0.40228 0.0
C366 C 0.26027 0.74601 0.44969 0.0
C367 C 0.22444 0.74511 0.58734 0.0
C368 C 0.23656 0.74519 0.53994 0.0
H369 H 0.29804 0.66793 0.31763 0.0
H370 H 0.28007 0.66777 0.3953 0.0
H371 H 0.20907 0.79898 0.46053 0.0
H372 H 0.19911 0.82367 0.67178 0.0
H373 H 0.21699 0.82358 0.59413 0.0
C374 C 0.78404 0.78877 0.83628 0.0
C375 C 0.7933 0.74522 0.81266 0.0
C376 C 0.77314 0.788 0.88081 0.0
C377 C 0.77994 0.71274 0.97047 0.0
H378 H 0.68531 0.79367 0.03858 0.0
C379 C 0.7104 0.69867 0.15488 0.0
C380 C 0.70161 0.74289 0.17754 0.0
C381 C 0.72034 0.6981 0.11044 0.0
C382 C 0.71205 0.77121 0.02 0.0
H383 H 0.79912 0.66681 0.81694 0.0
H384 H 0.77995 0.66543 0.89476 0.0
H385 H 0.70646 0.79471 0.96066 0.0
H386 H 0.69564 0.82107 0.17168 0.0
H387 H 0.71321 0.82014 0.09411 0.0
H388 H 0.78562 0.68935 0.02982 0.0
C389 C 0.78142 0.70021 0.87885 0.0
C390 C 0.72421 0.77185 0.97536 0.0
C391 C 0.79224 0.70097 0.83432 0.0
C392 C 0.70217 0.78641 0.15506 0.0
C393 C 0.71204 0.78584 0.11066 0.0
C394 C 0.76779 0.71211 0.01512 0.0
C395 C 0.77135 0.74367 0.90263 0.0
C396 C 0.75839 0.74275 0.95008 0.0
C397 C 0.72162 0.74173 0.08779 0.0
C398 C 0.73379 0.74146 0.04039 0.0
H399 H 0.78468 0.82344 0.82044 0.0
H400 H 0.76618 0.82218 0.89815 0.0
H401 H 0.80674 0.69035 0.95187 0.0
H402 H 0.71013 0.66453 0.17139 0.0
H403 H 0.727 0.66346 0.09382 0.0
C404 C 0.7826 0.28901 0.33368 0.0
C405 C 0.78913 0.24516 0.31049 0.0
C406 C 0.7716 0.28846 0.37822 0.0
C407 C 0.77384 0.21122 0.4685 0.0
H408 H 0.68494 0.29925 0.53616 0.0
C409 C 0.7044 0.19945 0.65291 0.0
C410 C 0.69833 0.24377 0.67538 0.0
C411 C 0.71408 0.19906 0.60851 0.0
C412 C 0.7101 0.27478 0.51771 0.0
H413 H 0.78984 0.16638 0.3156 0.0
H414 H 0.77047 0.16539 0.39344 0.0
H415 H 0.70581 0.29987 0.45825 0.0
H416 H 0.69692 0.32239 0.66919 0.0
H417 H 0.71414 0.32176 0.59164 0.0
H418 H 0.77825 0.18625 0.52793 0.0
C419 C 0.7742 0.20021 0.37717 0.0
C420 C 0.72209 0.27516 0.47307 0.0
C421 C 0.78513 0.20077 0.33262 0.0
C422 C 0.70132 0.28765 0.65273 0.0
C423 C 0.71099 0.28727 0.60833 0.0
C424 C 0.76187 0.21086 0.51314 0.0
C425 C 0.76697 0.24405 0.40051 0.0
C426 C 0.75418 0.24347 0.44796 0.0
C427 C 0.71788 0.24299 0.58566 0.0
C428 C 0.72992 0.2427 0.53826 0.0
H429 H 0.78554 0.3238 0.31747 0.0
H430 H 0.76687 0.32286 0.39521 0.0
H431 H 0.79905 0.18681 0.45004 0.0
H432 H 0.70217 0.16503 0.66954 0.0
H433 H 0.71857 0.16431 0.59208 0.0
C434 C 0.20315 0.20453 0.15243 0.0
C435 C 0.19897 0.24831 0.17541 0.0
C436 C 0.21262 0.20519 0.10807 0.0
C437 C 0.26088 0.28317 0.01337 0.0
H438 H 0.2071 0.19191 0.95826 0.0
C439 C 0.28344 0.29286 0.83294 0.0
C440 C 0.28859 0.24845 0.81069 0.0
C441 C 0.27262 0.29337 0.87748 0.0
C442 C 0.22274 0.21727 0.97314 0.0
H443 H 0.2005 0.32714 0.17021 0.0
H444 H 0.21656 0.32834 0.09278 0.0
H445 H 0.18645 0.19216 0.03615 0.0
H446 H 0.28718 0.16978 0.81743 0.0
H447 H 0.26872 0.17065 0.89514 0.0
H448 H 0.29722 0.30822 0.95034 0.0
C449 C 0.21315 0.29348 0.10894 0.0
C450 C 0.21088 0.21744 0.01776 0.0
C451 C 0.20366 0.2928 0.15331 0.0
C452 C 0.28334 0.20457 0.83373 0.0
C453 C 0.27245 0.20508 0.87826 0.0
C454 C 0.27272 0.28302 0.96874 0.0
C455 C 0.21811 0.24967 0.08576 0.0
C456 C 0.22991 0.25029 0.03839 0.0
C457 C 0.26665 0.24947 0.90068 0.0
C458 C 0.25391 0.24994 0.94812 0.0
H459 H 0.19984 0.16967 0.1686 0.0
H460 H 0.2167 0.17081 0.09112 0.0
H461 H 0.27664 0.30842 0.02823 0.0
H462 H 0.28716 0.32726 0.81602 0.0
H463 H 0.26798 0.32817 0.89385 0.0
C464 C 0.3371 0.28928 0.28136 0.0
C465 C 0.31459 0.24522 0.28502 0.0
C466 C 0.38166 0.28922 0.27064 0.0
C467 C 0.47296 0.21088 0.26847 0.0
H468 H 0.53978 0.30543 0.18563 0.0
C469 C 0.65753 0.20182 0.19841 0.0
C470 C 0.67965 0.2461 0.19513 0.0
C471 C 0.6131 0.20147 0.20812 0.0
C472 C 0.52156 0.2791 0.20911 0.0
H473 H 0.32089 0.16654 0.28086 0.0
H474 H 0.39873 0.1664 0.26192 0.0
H475 H 0.46182 0.30545 0.20633 0.0
H476 H 0.6728 0.32475 0.19874 0.0
H477 H 0.5952 0.32416 0.21602 0.0
H478 H 0.53266 0.18461 0.27136 0.0
C479 C 0.38194 0.20099 0.26772 0.0
C480 C 0.47689 0.27915 0.22101 0.0
C481 C 0.33739 0.20107 0.2784 0.0
C482 C 0.65662 0.29006 0.20094 0.0
C483 C 0.61219 0.28971 0.21065 0.0
C484 C 0.51762 0.21085 0.25659 0.0
C485 C 0.40462 0.24509 0.26341 0.0
C486 C 0.45208 0.24508 0.25087 0.0
C487 C 0.58986 0.2454 0.21475 0.0
C488 C 0.54243 0.24499 0.2268 0.0
H489 H 0.32036 0.32389 0.28637 0.0
H490 H 0.39811 0.32376 0.26819 0.0
H491 H 0.45473 0.18459 0.292 0.0
H492 H 0.67447 0.16737 0.19397 0.0
H493 H 0.59694 0.16675 0.2104 0.0
C494 C 0.65945 0.78939 0.70162 0.0
C495 C 0.68169 0.74539 0.69976 0.0
C496 C 0.61495 0.78946 0.71186 0.0
C497 C 0.52329 0.71038 0.71661 0.0
H498 H 0.45686 0.80848 0.79574 0.0
C499 C 0.33867 0.70268 0.78815 0.0
C500 C 0.31662 0.74678 0.78977 0.0
C501 C 0.38316 0.7024 0.77798 0.0
C502 C 0.47498 0.78114 0.77329 0.0
H503 H 0.67498 0.66691 0.70653 0.0
H504 H 0.59725 0.66702 0.72472 0.0
H505 H 0.5348 0.80832 0.77501 0.0
H506 H 0.32367 0.82521 0.78262 0.0
H507 H 0.40138 0.82472 0.7646 0.0
H508 H 0.46344 0.68321 0.7149 0.0
C509 C 0.61419 0.70144 0.71784 0.0
C510 C 0.51964 0.78109 0.76135 0.0
C511 C 0.6587 0.70138 0.70759 0.0
C512 C 0.3398 0.79066 0.78175 0.0
C513 C 0.38428 0.79039 0.7716 0.0
C514 C 0.47862 0.71043 0.72855 0.0
C515 C 0.59177 0.74552 0.72046 0.0
C516 C 0.54431 0.74573 0.73284 0.0
C517 C 0.40652 0.74622 0.76925 0.0
C518 C 0.45396 0.74583 0.75701 0.0
H519 H 0.67635 0.82388 0.69561 0.0
H520 H 0.59871 0.82397 0.71297 0.0
H521 H 0.5414 0.68306 0.69413 0.0
H522 H 0.32162 0.66829 0.79429 0.0
H523 H 0.39927 0.66784 0.77704 0.0
C524 C 0.15692 0.70297 0.20797 0.0
C525 C 0.18057 0.7465 0.19898 0.0
C526 C 0.1125 0.70367 0.2176 0.0
C527 C 0.0189 0.78523 0.25747 0.0
H528 H 0.96236 0.68508 0.21379 0.0
C529 C 0.8385 0.79287 0.27903 0.0
C530 C 0.81557 0.74886 0.2884 0.0
C531 C 0.88307 0.79308 0.26834 0.0
C532 C 0.97762 0.71299 0.22665 0.0
H533 H 0.17652 0.82479 0.19217 0.0
H534 H 0.09898 0.82599 0.20851 0.0
H535 H 0.04028 0.68464 0.19324 0.0
H536 H 0.82108 0.67069 0.29475 0.0
H537 H 0.8988 0.67109 0.27662 0.0
H538 H 0.95622 0.81353 0.29094 0.0
C539 C 0.11465 0.79139 0.20874 0.0
C540 C 0.02227 0.71277 0.21482 0.0
C541 C 0.15908 0.79067 0.19911 0.0
C542 C 0.83793 0.70516 0.28755 0.0
C543 C 0.88247 0.70536 0.27687 0.0
C544 C 0.97423 0.78546 0.26929 0.0
C545 C 0.09082 0.74794 0.21844 0.0
C546 C 0.04342 0.7488 0.2302 0.0
C547 C 0.90559 0.74927 0.26678 0.0
C548 C 0.95308 0.74924 0.25413 0.0
H549 H 0.1726 0.66838 0.20825 0.0
H550 H 0.09504 0.66963 0.2254 0.0
H551 H 0.03416 0.81308 0.2704 0.0
H552 H 0.82212 0.82711 0.27927 0.0
H553 H 0.89997 0.82746 0.26032 0.0
C554 C 0.15595 0.28887 0.69869 0.0
C555 C 0.17843 0.24494 0.69622 0.0
C556 C 0.11148 0.2887 0.70873 0.0
C557 C 0.02022 0.20952 0.71218 0.0
H558 H 0.95337 0.30626 0.7926 0.0
C559 C 0.83551 0.20106 0.78371 0.0
C560 C 0.81337 0.24521 0.78597 0.0
C561 C 0.88003 0.20079 0.77338 0.0
C562 C 0.9716 0.27931 0.76978 0.0
H563 H 0.17219 0.16632 0.70165 0.0
H564 H 0.09448 0.16599 0.71953 0.0
H565 H 0.03128 0.30634 0.77199 0.0
H566 H 0.82029 0.32372 0.77969 0.0
H567 H 0.89801 0.32326 0.76141 0.0
H568 H 0.96048 0.18247 0.71003 0.0
C569 C 0.11123 0.20056 0.71327 0.0
C570 C 0.01625 0.27939 0.75791 0.0
C571 C 0.15572 0.20075 0.7032 0.0
C572 C 0.83648 0.28913 0.77833 0.0
C573 C 0.88098 0.28887 0.76804 0.0
C574 C 0.97555 0.20942 0.72407 0.0
C575 C 0.08855 0.24457 0.71656 0.0
C576 C 0.04109 0.24455 0.72892 0.0
C577 C 0.9033 0.24467 0.76515 0.0
C578 C 0.95074 0.24436 0.75297 0.0
H579 H 0.17263 0.32349 0.69333 0.0
H580 H 0.09505 0.32317 0.71034 0.0
H581 H 0.03845 0.18258 0.68935 0.0
H582 H 0.81851 0.16664 0.78953 0.0
H583 H 0.89621 0.16619 0.772 0.0
loop_
_geom_bond_atom_site_label_1
_geom_bond_atom_site_label_2
_geom_bond_distance
_geom_bond_site_symmetry_2
_ccdc_geom_bond_type
In0 O1 2.294 . S
In0 O2 2.326 . S
In0 O6 2.266 . S
In0 O7 2.326 . S
In0 O8 2.266 . S
In0 O9 2.326 . S
In0 O11 2.294 . S
In0 O12 2.326 . S
O1 In0 2.294 . S
O1 C10 1.240 . S
O2 In0 2.326 . S
O2 C10 1.252 . S
C3 O6 1.252 . S
C3 O7 1.260 . S
C4 O11 1.240 . S
C4 O12 1.252 . S
C5 O8 1.252 . S
C5 O9 1.260 . S
O6 In0 2.266 . S
O6 C3 1.252 . S
O7 In0 2.326 . S
O7 C3 1.260 . S
O8 In0 2.266 . S
O8 C5 1.252 . S
O9 In0 2.326 . S
O9 C5 1.260 . S
C10 O1 1.240 . S
C10 O2 1.252 . S
O11 In0 2.294 . S
O11 C4 1.240 . S
O12 In0 2.326 . S
O12 C4 1.252 . S
In13 O14 2.294 . S
In13 O15 2.326 . S
In13 O19 2.266 . S
In13 O20 2.326 . S
In13 O21 2.266 . S
In13 O22 2.326 . S
In13 O24 2.294 . S
In13 O25 2.326 . S
O14 In13 2.294 . S
O14 C23 1.240 . S
O15 In13 2.326 . S
O15 C23 1.252 . S
C16 O19 1.252 . S
C16 O20 1.260 . S
C17 O24 1.240 . S
C17 O25 1.252 . S
C18 O21 1.252 . S
C18 O22 1.260 . S
O19 In13 2.266 . S
O19 C16 1.252 . S
O20 In13 2.326 . S
O20 C16 1.260 . S
O21 In13 2.266 . S
O21 C18 1.252 . S
O22 In13 2.326 . S
O22 C18 1.260 . S
C23 O14 1.240 . S
C23 O15 1.252 . S
O24 In13 2.294 . S
O24 C17 1.240 . S
O25 In13 2.326 . S
O25 C17 1.252 . S
In26 O27 2.294 . S
In26 O28 2.326 . S
In26 O32 2.266 . S
In26 O33 2.326 . S
In26 O34 2.266 . S
In26 O35 2.326 . S
In26 O37 2.294 . S
In26 O38 2.326 . S
O27 In26 2.294 . S
O27 C36 1.240 . S
O28 In26 2.326 . S
O28 C36 1.252 . S
C29 O32 1.252 . S
C29 O33 1.260 . S
C30 O37 1.240 . S
C30 O38 1.252 . S
C31 O34 1.252 . S
C31 O35 1.260 . S
O32 In26 2.266 . S
O32 C29 1.252 . S
O33 In26 2.326 . S
O33 C29 1.260 . S
O34 In26 2.266 . S
O34 C31 1.252 . S
O35 In26 2.326 . S
O35 C31 1.260 . S
C36 O27 1.240 . S
C36 O28 1.252 . S
O37 In26 2.294 . S
O37 C30 1.240 . S
O38 In26 2.326 . S
O38 C30 1.252 . S
In39 O40 2.294 . S
In39 O41 2.326 . S
In39 O45 2.266 . S
In39 O46 2.326 . S
In39 O47 2.266 . S
In39 O48 2.326 . S
In39 O50 2.294 . S
In39 O51 2.326 . S
O40 In39 2.294 . S
O40 C49 1.240 . S
O41 In39 2.326 . S
O41 C49 1.252 . S
C42 O45 1.252 . S
C42 O46 1.260 . S
C43 O50 1.240 . S
C43 O51 1.252 . S
C44 O47 1.252 . S
C44 O48 1.260 . S
O45 In39 2.266 . S
O45 C42 1.252 . S
O46 In39 2.326 . S
O46 C42 1.260 . S
O47 In39 2.266 . S
O47 C44 1.252 . S
O48 In39 2.326 . S
O48 C44 1.260 . S
C49 O40 1.240 . S
C49 O41 1.252 . S
O50 In39 2.294 . S
O50 C43 1.240 . S
O51 In39 2.326 . S
O51 C43 1.252 . S
In52 O53 2.294 . S
In52 O54 2.326 . S
In52 O58 2.266 . S
In52 O59 2.326 . S
In52 O60 2.266 . S
In52 O61 2.326 . S
In52 O63 2.294 . S
In52 O64 2.326 . S
O53 In52 2.294 . S
O53 C62 1.240 . S
O54 In52 2.326 . S
O54 C62 1.252 . S
C55 O58 1.252 . S
C55 O59 1.260 . S
C56 O63 1.240 . S
C56 O64 1.252 . S
C57 O60 1.252 . S
C57 O61 1.260 . S
O58 In52 2.266 . S
O58 C55 1.252 . S
O59 In52 2.326 . S
O59 C55 1.260 . S
O60 In52 2.266 . S
O60 C57 1.252 . S
O61 In52 2.326 . S
O61 C57 1.260 . S
C62 O53 1.240 . S
C62 O54 1.252 . S
O63 In52 2.294 . S
O63 C56 1.240 . S
O64 In52 2.326 . S
O64 C56 1.252 . S
In65 O66 2.294 . S
In65 O67 2.326 . S
In65 O71 2.266 . S
In65 O72 2.326 . S
In65 O73 2.266 . S
In65 O74 2.326 . S
In65 O76 2.294 . S
In65 O77 2.326 . S
O66 In65 2.294 . S
O66 C75 1.240 . S
O67 In65 2.326 . S
O67 C75 1.252 . S
C68 O71 1.252 . S
C68 O72 1.260 . S
C69 O76 1.240 . S
C69 O77 1.252 . S
C70 O73 1.252 . S
C70 O74 1.260 . S
O71 In65 2.266 . S
O71 C68 1.252 . S
O72 In65 2.326 . S
O72 C68 1.260 . S
O73 In65 2.266 . S
O73 C70 1.252 . S
O74 In65 2.326 . S
O74 C70 1.260 . S
C75 O66 1.240 . S
C75 O67 1.252 . S
O76 In65 2.294 . S
O76 C69 1.240 . S
O77 In65 2.326 . S
O77 C69 1.252 . S
In78 O79 2.294 . S
In78 O80 2.326 . S
In78 O84 2.266 . S
In78 O85 2.326 . S
In78 O86 2.266 . S
In78 O87 2.326 . S
In78 O89 2.294 . S
In78 O90 2.326 . S
O79 In78 2.294 . S
O79 C88 1.240 . S
O80 In78 2.326 . S
O80 C88 1.252 . S
C81 O84 1.252 . S
C81 O85 1.260 . S
C82 O89 1.240 . S
C82 O90 1.252 . S
C83 O86 1.252 . S
C83 O87 1.260 . S
O84 In78 2.266 . S
O84 C81 1.252 . S
O85 In78 2.326 . S
O85 C81 1.260 . S
O86 In78 2.266 . S
O86 C83 1.252 . S
O87 In78 2.326 . S
O87 C83 1.260 . S
C88 O79 1.240 . S
C88 O80 1.252 . S
O89 In78 2.294 . S
O89 C82 1.240 . S
O90 In78 2.326 . S
O90 C82 1.252 . S
In91 O92 2.294 . S
In91 O93 2.326 . S
In91 O97 2.266 . S
In91 O98 2.326 . S
In91 O99 2.266 . S
In91 O100 2.326 . S
In91 O102 2.294 . S
In91 O103 2.326 . S
O92 In91 2.294 . S
O92 C101 1.240 . S
O93 In91 2.326 . S
O93 C101 1.252 . S
C94 O97 1.252 . S
C94 O98 1.260 . S
C95 O102 1.240 . S
C95 O103 1.252 . S
C96 O99 1.252 . S
C96 O100 1.260 . S
O97 In91 2.266 . S
O97 C94 1.252 . S
O98 In91 2.326 . S
O98 C94 1.260 . S
O99 In91 2.266 . S
O99 C96 1.252 . S
O100 In91 2.326 . S
O100 C96 1.260 . S
C101 O92 1.240 . S
C101 O93 1.252 . S
O102 In91 2.294 . S
O102 C95 1.240 . S
O103 In91 2.326 . S
O103 C95 1.252 . S
C104 C105 1.349 . S
C104 C106 1.327 . S
C104 H129 0.950 . S
C105 C104 1.349 . S
C105 C121 1.349 . S
C106 C104 1.327 . S
C106 C125 1.429 . S
C106 H130 0.950 . S
C107 C124 1.574 1_545 S
C107 C126 1.368 . S
C107 H131 0.949 . S
H108 C112 0.949 . S
C109 C110 1.349 . S
C109 C111 1.327 . S
C109 H132 0.950 . S
C110 C109 1.349 . S
C110 C122 1.349 . S
C111 C109 1.327 . S
C111 C127 1.429 . S
C111 H133 0.950 . S
C112 H108 0.949 . S
C112 C120 1.574 1_565 S
C112 C128 1.368 . S
H113 C121 0.950 . S
H114 C119 0.950 . S
H115 C120 0.949 . S
H116 C122 0.950 . S
H117 C123 0.950 . S
H118 C124 0.949 . S
C119 H114 0.950 . S
C119 C121 1.327 . S
C119 C125 1.429 . S
C120 C112 1.574 1_545 S
C120 H115 0.949 . S
C120 C126 1.368 1_655 S
C121 C105 1.349 . S
C121 H113 0.950 . S
C121 C119 1.327 . S
C122 C110 1.349 . S
C122 H116 0.950 . S
C122 C123 1.327 . S
C123 H117 0.950 . S
C123 C122 1.327 . S
C123 C127 1.429 . S
C124 C107 1.574 1_565 S
C124 H118 0.949 . S
C124 C128 1.368 1_455 S
C125 C106 1.429 . S
C125 C119 1.429 . S
C125 C126 1.523 . S
C126 C107 1.368 . S
C126 C120 1.368 1_455 S
C126 C125 1.523 . S
C127 C111 1.429 . S
C127 C123 1.429 . S
C127 C128 1.523 . S
C128 C112 1.368 . S
C128 C124 1.368 1_655 S
C128 C127 1.523 . S
H129 C104 0.950 . S
H130 C106 0.950 . S
H131 C107 0.949 . S
H132 C109 0.950 . S
H133 C111 0.950 . S
C134 C135 1.349 . S
C134 C136 1.327 . S
C134 H159 0.950 . S
C135 C134 1.349 . S
C135 C151 1.349 . S
C136 C134 1.327 . S
C136 C155 1.429 . S
C136 H160 0.950 . S
C137 C154 1.574 1_565 S
C137 C156 1.368 1_554 S
C137 H161 0.949 . S
H138 C142 0.949 . S
C139 C140 1.349 . S
C139 C141 1.327 . S
C139 H162 0.950 . S
C140 C139 1.349 . S
C140 C152 1.349 . S
C141 C139 1.327 . S
C141 C157 1.429 . S
C141 H163 0.950 . S
C142 H138 0.949 . S
C142 C150 1.574 1_545 S
C142 C158 1.368 1_556 S
H143 C151 0.950 . S
H144 C149 0.950 . S
H145 C150 0.949 . S
H146 C152 0.950 . S
H147 C153 0.950 . S
H148 C154 0.949 . S
C149 H144 0.950 . S
C149 C151 1.327 . S
C149 C155 1.429 . S
C150 C142 1.574 1_565 S
C150 H145 0.949 . S
C150 C156 1.368 1_655 S
C151 C135 1.349 . S
C151 H143 0.950 . S
C151 C149 1.327 . S
C152 C140 1.349 . S
C152 H146 0.950 . S
C152 C153 1.327 . S
C153 H147 0.950 . S
C153 C152 1.327 . S
C153 C157 1.429 . S
C154 C137 1.574 1_545 S
C154 H148 0.949 . S
C154 C158 1.368 1_455 S
C155 C136 1.429 . S
C155 C149 1.429 . S
C155 C156 1.523 . S
C156 C137 1.368 1_556 S
C156 C150 1.368 1_455 S
C156 C155 1.523 . S
C157 C141 1.429 . S
C157 C153 1.429 . S
C157 C158 1.523 . S
C158 C142 1.368 1_554 S
C158 C154 1.368 1_655 S
C158 C157 1.523 . S
H159 C134 0.950 . S
H160 C136 0.950 . S
H161 C137 0.949 . S
H162 C139 0.950 . S
H163 C141 0.950 . S
C164 C165 1.349 . S
C164 C166 1.327 . S
C164 H189 0.950 . S
C165 C164 1.349 . S
C165 C181 1.349 . S
C166 C164 1.327 . S
C166 C185 1.429 . S
C166 H190 0.950 . S
C167 C184 1.574 . S
C167 C186 1.368 . S
C167 H191 0.949 . S
H168 C172 0.949 . S
C169 C170 1.349 . S
C169 C171 1.327 . S
C169 H192 0.950 . S
C170 C169 1.349 . S
C170 C182 1.349 . S
C171 C169 1.327 . S
C171 C187 1.429 . S
C171 H193 0.950 . S
C172 H168 0.949 . S
C172 C180 1.574 . S
C172 C188 1.368 . S
H173 C181 0.950 . S
H174 C179 0.950 . S
H175 C180 0.949 . S
H176 C182 0.950 . S
H177 C183 0.950 . S
H178 C184 0.949 . S
C179 H174 0.950 . S
C179 C181 1.327 . S
C179 C185 1.429 . S
C180 C172 1.574 . S
C180 H175 0.949 . S
C180 C186 1.368 . S
C181 C165 1.349 . S
C181 H173 0.950 . S
C181 C179 1.327 . S
C182 C170 1.349 . S
C182 H176 0.950 . S
C182 C183 1.327 . S
C183 H177 0.950 . S
C183 C182 1.327 . S
C183 C187 1.429 . S
C184 C167 1.574 . S
C184 H178 0.949 . S
C184 C188 1.368 . S
C185 C166 1.429 . S
C185 C179 1.429 . S
C185 C186 1.523 . S
C186 C167 1.368 . S
C186 C180 1.368 . S
C186 C185 1.523 . S
C187 C171 1.429 . S
C187 C183 1.429 . S
C187 C188 1.523 . S
C188 C172 1.368 . S
C188 C184 1.368 . S
C188 C187 1.523 . S
H189 C164 0.950 . S
H190 C166 0.950 . S
H191 C167 0.949 . S
H192 C169 0.950 . S
H193 C171 0.950 . S
C194 C195 1.349 . S
C194 C196 1.327 . S
C194 H219 0.950 . S
C195 C194 1.349 . S
C195 C211 1.349 . S
C196 C194 1.327 . S
C196 C215 1.429 . S
C196 H220 0.950 . S
C197 C214 1.574 . S
C197 C216 1.368 1_556 S
C197 H221 0.949 . S
H198 C202 0.949 . S
C199 C200 1.349 . S
C199 C201 1.327 . S
C199 H222 0.950 . S
C200 C199 1.349 . S
C200 C212 1.349 . S
C201 C199 1.327 . S
C201 C217 1.429 . S
C201 H223 0.950 . S
C202 H198 0.949 . S
C202 C210 1.574 . S
C202 C218 1.368 1_554 S
H203 C211 0.950 . S
H204 C209 0.950 . S
H205 C210 0.949 . S
H206 C212 0.950 . S
H207 C213 0.950 . S
H208 C214 0.949 . S
C209 H204 0.950 . S
C209 C211 1.327 . S
C209 C215 1.429 . S
C210 C202 1.574 . S
C210 H205 0.949 . S
C210 C216 1.368 . S
C211 C195 1.349 . S
C211 H203 0.950 . S
C211 C209 1.327 . S
C212 C200 1.349 . S
C212 H206 0.950 . S
C212 C213 1.327 . S
C213 H207 0.950 . S
C213 C212 1.327 . S
C213 C217 1.429 . S
C214 C197 1.574 . S
C214 H208 0.949 . S
C214 C218 1.368 . S
C215 C196 1.429 . S
C215 C209 1.429 . S
C215 C216 1.523 . S
C216 C197 1.368 1_554 S
C216 C210 1.368 . S
C216 C215 1.523 . S
C217 C201 1.429 . S
C217 C213 1.429 . S
C217 C218 1.523 . S
C218 C202 1.368 1_556 S
C218 C214 1.368 . S
C218 C217 1.523 . S
H219 C194 0.950 . S
H220 C196 0.950 . S
H221 C197 0.949 . S
H222 C199 0.950 . S
H223 C201 0.950 . S
C224 C225 1.349 . S
C224 C226 1.327 . S
C224 H249 0.950 . S
C225 C224 1.349 . S
C225 C241 1.349 . S
C226 C224 1.327 . S
C226 C245 1.429 . S
C226 H250 0.950 . S
C227 C244 1.566 1_655 S
C227 C246 1.381 . S
C227 H251 0.945 . S
H228 C232 0.945 . S
C229 C230 1.349 . S
C229 C231 1.327 . S
C229 H252 0.950 . S
C230 C229 1.349 . S
C230 C242 1.349 . S
C231 C229 1.327 . S
C231 C247 1.429 . S
C231 H253 0.950 . S
C232 H228 0.945 . S
C232 C240 1.566 1_455 S
C232 C248 1.381 . S
H233 C241 0.950 . S
H234 C239 0.950 . S
H235 C240 0.949 . S
H236 C242 0.950 . S
H237 C243 0.950 . S
H238 C244 0.949 . S
C239 H234 0.950 . S
C239 C241 1.327 . S
C239 C245 1.429 . S
C240 C232 1.566 1_655 S
C240 H235 0.949 . S
C240 C246 1.368 1_556 S
C241 C225 1.349 . S
C241 H233 0.950 . S
C241 C239 1.327 . S
C242 C230 1.349 . S
C242 H236 0.950 . S
C242 C243 1.327 . S
C243 H237 0.950 . S
C243 C242 1.327 . S
C243 C247 1.429 . S
C244 C227 1.566 1_455 S
C244 H238 0.949 . S
C244 C248 1.368 1_554 S
C245 C226 1.429 . S
C245 C239 1.429 . S
C245 C246 1.523 . S
C246 C227 1.381 . S
C246 C240 1.368 1_554 S
C246 C245 1.523 . S
C247 C231 1.429 . S
C247 C243 1.429 . S
C247 C248 1.523 . S
C248 C232 1.381 . S
C248 C244 1.368 1_556 S
C248 C247 1.523 . S
H249 C224 0.950 . S
H250 C226 0.950 . S
H251 C227 0.945 . S
H252 C229 0.950 . S
H253 C231 0.950 . S
C254 C255 1.349 . S
C254 C256 1.327 . S
C254 H279 0.950 . S
C255 C254 1.349 . S
C255 C271 1.349 . S
C256 C254 1.327 . S
C256 C275 1.429 . S
C256 H280 0.950 . S
C257 C274 1.574 . S
C257 C276 1.368 1_655 S
C257 H281 0.949 . S
H258 C262 0.949 . S
C259 C260 1.349 . S
C259 C261 1.327 . S
C259 H282 0.950 . S
C260 C259 1.349 . S
C260 C272 1.349 . S
C261 C259 1.327 . S
C261 C277 1.429 . S
C261 H283 0.950 . S
C262 H258 0.949 . S
C262 C270 1.574 . S
C262 C278 1.368 1_455 S
H263 C271 0.950 . S
H264 C269 0.950 . S
H265 C270 0.949 . S
H266 C272 0.950 . S
H267 C273 0.950 . S
H268 C274 0.949 . S
C269 H264 0.950 . S
C269 C271 1.327 . S
C269 C275 1.429 . S
C270 C262 1.574 . S
C270 H265 0.949 . S
C270 C276 1.368 . S
C271 C255 1.349 . S
C271 H263 0.950 . S
C271 C269 1.327 . S
C272 C260 1.349 . S
C272 H266 0.950 . S
C272 C273 1.327 . S
C273 H267 0.950 . S
C273 C272 1.327 . S
C273 C277 1.429 . S
C274 C257 1.574 . S
C274 H268 0.949 . S
C274 C278 1.368 . S
C275 C256 1.429 . S
C275 C269 1.429 . S
C275 C276 1.523 . S
C276 C257 1.368 1_455 S
C276 C270 1.368 . S
C276 C275 1.523 . S
C277 C261 1.429 . S
C277 C273 1.429 . S
C277 C278 1.523 . S
C278 C262 1.368 1_655 S
C278 C274 1.368 . S
C278 C277 1.523 . S
H279 C254 0.950 . S
H280 C256 0.950 . S
H281 C257 0.949 . S
H282 C259 0.950 . S
H283 C261 0.950 . S
C284 C285 1.349 . S
C284 C286 1.327 . S
C284 H309 0.950 . S
C285 C284 1.349 . S
C285 C301 1.349 . S
C286 C284 1.327 . S
C286 C305 1.429 . S
C286 H310 0.950 . S
C287 C304 1.574 . S
C287 C306 1.368 1_565 S
C287 H311 0.949 . S
H288 C292 0.949 . S
C289 C290 1.349 . S
C289 C291 1.327 . S
C289 H312 0.950 . S
C290 C289 1.349 . S
C290 C302 1.349 . S
C291 C289 1.327 . S
C291 C307 1.429 . S
C291 H313 0.950 . S
C292 H288 0.949 . S
C292 C300 1.574 . S
C292 C308 1.368 1_545 S
H293 C301 0.950 . S
H294 C299 0.950 . S
H295 C300 0.949 . S
H296 C302 0.950 . S
H297 C303 0.950 . S
H298 C304 0.949 . S
C299 H294 0.950 . S
C299 C301 1.327 . S
C299 C305 1.429 . S
C300 C292 1.574 . S
C300 H295 0.949 . S
C300 C306 1.368 1_554 S
C301 C285 1.349 . S
C301 H293 0.950 . S
C301 C299 1.327 . S
C302 C290 1.349 . S
C302 H296 0.950 . S
C302 C303 1.327 . S
C303 H297 0.950 . S
C303 C302 1.327 . S
C303 C307 1.429 . S
C304 C287 1.574 . S
C304 H298 0.949 . S
C304 C308 1.368 1_556 S
C305 C286 1.429 . S
C305 C299 1.429 . S
C305 C306 1.523 . S
C306 C287 1.368 1_545 S
C306 C300 1.368 1_556 S
C306 C305 1.523 . S
C307 C291 1.429 . S
C307 C303 1.429 . S
C307 C308 1.523 . S
C308 C292 1.368 1_565 S
C308 C304 1.368 1_554 S
C308 C307 1.523 . S
H309 C284 0.950 . S
H310 C286 0.950 . S
H311 C287 0.949 . S
H312 C289 0.950 . S
H313 C291 0.950 . S
C314 C315 1.349 . S
C314 C316 1.327 . S
C314 H339 0.950 . S
C315 C314 1.349 . S
C315 C331 1.349 . S
C316 C314 1.327 . S
C316 C335 1.429 . S
C316 H340 0.950 . S
C317 C334 1.574 . S
C317 C336 1.368 1_545 S
C317 H341 0.949 . S
H318 C322 0.949 . S
C319 C320 1.349 . S
C319 C321 1.327 . S
C319 H342 0.950 . S
C320 C319 1.349 . S
C320 C332 1.349 . S
C321 C319 1.327 . S
C321 C337 1.429 . S
C321 H343 0.950 . S
C322 H318 0.949 . S
C322 C330 1.574 . S
C322 C338 1.368 1_565 S
H323 C331 0.950 . S
H324 C329 0.950 . S
H325 C330 0.949 . S
H326 C332 0.950 . S
H327 C333 0.950 . S
H328 C334 0.949 . S
C329 H324 0.950 . S
C329 C331 1.327 . S
C329 C335 1.429 . S
C330 C322 1.574 . S
C330 H325 0.949 . S
C330 C336 1.368 . S
C331 C315 1.349 . S
C331 H323 0.950 . S
C331 C329 1.327 . S
C332 C320 1.349 . S
C332 H326 0.950 . S
C332 C333 1.327 . S
C333 H327 0.950 . S
C333 C332 1.327 . S
C333 C337 1.429 . S
C334 C317 1.574 . S
C334 H328 0.949 . S
C334 C338 1.368 . S
C335 C316 1.429 . S
C335 C329 1.429 . S
C335 C336 1.523 . S
C336 C317 1.368 1_565 S
C336 C330 1.368 . S
C336 C335 1.523 . S
C337 C321 1.429 . S
C337 C333 1.429 . S
C337 C338 1.523 . S
C338 C322 1.368 1_545 S
C338 C334 1.368 . S
C338 C337 1.523 . S
H339 C314 0.950 . S
H340 C316 0.950 . S
H341 C317 0.949 . S
H342 C319 0.950 . S
H343 C321 0.950 . S
C344 C345 1.349 . S
C344 C346 1.327 . S
C344 H369 0.950 . S
C345 C344 1.349 . S
C345 C361 1.349 . S
C346 C344 1.327 . S
C346 C365 1.429 . S
C346 H370 0.950 . S
C347 C364 1.574 . S
C347 C366 1.368 . S
C347 H371 0.949 . S
H348 C352 0.949 . S
C349 C350 1.349 . S
C349 C351 1.327 . S
C349 H372 0.950 . S
C350 C349 1.349 . S
C350 C362 1.349 . S
C351 C349 1.327 . S
C351 C367 1.429 . S
C351 H373 0.950 . S
C352 H348 0.949 . S
C352 C360 1.574 . S
C352 C368 1.368 . S
H353 C361 0.950 . S
H354 C359 0.950 . S
H355 C360 0.949 . S
H356 C362 0.950 . S
H357 C363 0.950 . S
H358 C364 0.949 . S
C359 H354 0.950 . S
C359 C361 1.327 . S
C359 C365 1.429 . S
C360 C352 1.574 . S
C360 H355 0.949 . S
C360 C366 1.368 . S
C361 C345 1.349 . S
C361 H353 0.950 . S
C361 C359 1.327 . S
C362 C350 1.349 . S
C362 H356 0.950 . S
C362 C363 1.327 . S
C363 H357 0.950 . S
C363 C362 1.327 . S
C363 C367 1.429 . S
C364 C347 1.574 . S
C364 H358 0.949 . S
C364 C368 1.368 . S
C365 C346 1.429 . S
C365 C359 1.429 . S
C365 C366 1.523 . S
C366 C347 1.368 . S
C366 C360 1.368 . S
C366 C365 1.523 . S
C367 C351 1.429 . S
C367 C363 1.429 . S
C367 C368 1.523 . S
C368 C352 1.368 . S
C368 C364 1.368 . S
C368 C367 1.523 . S
H369 C344 0.950 . S
H370 C346 0.950 . S
H371 C347 0.949 . S
H372 C349 0.950 . S
H373 C351 0.950 . S
C374 C375 1.349 . S
C374 C376 1.327 . S
C374 H399 0.950 . S
C375 C374 1.349 . S
C375 C391 1.349 . S
C376 C374 1.327 . S
C376 C395 1.429 . S
C376 H400 0.950 . S
C377 C394 1.574 1_556 S
C377 C396 1.368 . S
C377 H401 0.949 . S
H378 C382 0.949 . S
C379 C380 1.349 . S
C379 C381 1.327 . S
C379 H402 0.950 . S
C380 C379 1.349 . S
C380 C392 1.349 . S
C381 C379 1.327 . S
C381 C397 1.429 . S
C381 H403 0.950 . S
C382 H378 0.949 . S
C382 C390 1.574 1_554 S
C382 C398 1.368 . S
H383 C391 0.950 . S
H384 C389 0.950 . S
H385 C390 0.949 . S
H386 C392 0.950 . S
H387 C393 0.950 . S
H388 C394 0.949 . S
C389 H384 0.950 . S
C389 C391 1.327 . S
C389 C395 1.429 . S
C390 C382 1.574 1_556 S
C390 H385 0.949 . S
C390 C396 1.368 . S
C391 C375 1.349 . S
C391 H383 0.950 . S
C391 C389 1.327 . S
C392 C380 1.349 . S
C392 H386 0.950 . S
C392 C393 1.327 . S
C393 H387 0.950 . S
C393 C392 1.327 . S
C393 C397 1.429 . S
C394 C377 1.574 1_554 S
C394 H388 0.949 . S
C394 C398 1.368 . S
C395 C376 1.429 . S
C395 C389 1.429 . S
C395 C396 1.523 . S
C396 C377 1.368 . S
C396 C390 1.368 . S
C396 C395 1.523 . S
C397 C381 1.429 . S
C397 C393 1.429 . S
C397 C398 1.523 . S
C398 C382 1.368 . S
C398 C394 1.368 . S
C398 C397 1.523 . S
H399 C374 0.950 . S
H400 C376 0.950 . S
H401 C377 0.949 . S
H402 C379 0.950 . S
H403 C381 0.950 . S
C404 C405 1.349 . S
C404 C406 1.327 . S
C404 H429 0.950 . S
C405 C404 1.349 . S
C405 C421 1.349 . S
C406 C404 1.327 . S
C406 C425 1.429 . S
C406 H430 0.950 . S
C407 C424 1.574 . S
C407 C426 1.368 . S
C407 H431 0.949 . S
H408 C412 0.949 . S
C409 C410 1.349 . S
C409 C411 1.327 . S
C409 H432 0.950 . S
C410 C409 1.349 . S
C410 C422 1.349 . S
C411 C409 1.327 . S
C411 C427 1.429 . S
C411 H433 0.950 . S
C412 H408 0.949 . S
C412 C420 1.574 . S
C412 C428 1.368 . S
H413 C421 0.950 . S
H414 C419 0.950 . S
H415 C420 0.949 . S
H416 C422 0.950 . S
H417 C423 0.950 . S
H418 C424 0.949 . S
C419 H414 0.950 . S
C419 C421 1.327 . S
C419 C425 1.429 . S
C420 C412 1.574 . S
C420 H415 0.949 . S
C420 C426 1.368 . S
C421 C405 1.349 . S
C421 H413 0.950 . S
C421 C419 1.327 . S
C422 C410 1.349 . S
C422 H416 0.950 . S
C422 C423 1.327 . S
C423 H417 0.950 . S
C423 C422 1.327 . S
C423 C427 1.429 . S
C424 C407 1.574 . S
C424 H418 0.949 . S
C424 C428 1.368 . S
C425 C406 1.429 . S
C425 C419 1.429 . S
C425 C426 1.523 . S
C426 C407 1.368 . S
C426 C420 1.368 . S
C426 C425 1.523 . S
C427 C411 1.429 . S
C427 C423 1.429 . S
C427 C428 1.523 . S
C428 C412 1.368 . S
C428 C424 1.368 . S
C428 C427 1.523 . S
H429 C404 0.950 . S
H430 C406 0.950 . S
H431 C407 0.949 . S
H432 C409 0.950 . S
H433 C411 0.950 . S
C434 C435 1.349 . S
C434 C436 1.327 . S
C434 H459 0.950 . S
C435 C434 1.349 . S
C435 C451 1.349 . S
C436 C434 1.327 . S
C436 C455 1.429 . S
C436 H460 0.950 . S
C437 C454 1.574 1_554 S
C437 C456 1.368 . S
C437 H461 0.949 . S
H438 C442 0.949 . S
C439 C440 1.349 . S
C439 C441 1.327 . S
C439 H462 0.950 . S
C440 C439 1.349 . S
C440 C452 1.349 . S
C441 C439 1.327 . S
C441 C457 1.429 . S
C441 H463 0.950 . S
C442 H438 0.949 . S
C442 C450 1.574 1_556 S
C442 C458 1.368 . S
H443 C451 0.950 . S
H444 C449 0.950 . S
H445 C450 0.949 . S
H446 C452 0.950 . S
H447 C453 0.950 . S
H448 C454 0.949 . S
C449 H444 0.950 . S
C449 C451 1.327 . S
C449 C455 1.429 . S
C450 C442 1.574 1_554 S
C450 H445 0.949 . S
C450 C456 1.368 . S
C451 C435 1.349 . S
C451 H443 0.950 . S
C451 C449 1.327 . S
C452 C440 1.349 . S
C452 H446 0.950 . S
C452 C453 1.327 . S
C453 H447 0.950 . S
C453 C452 1.327 . S
C453 C457 1.429 . S
C454 C437 1.574 1_556 S
C454 H448 0.949 . S
C454 C458 1.368 . S
C455 C436 1.429 . S
C455 C449 1.429 . S
C455 C456 1.523 . S
C456 C437 1.368 . S
C456 C450 1.368 . S
C456 C455 1.523 . S
C457 C441 1.429 . S
C457 C453 1.429 . S
C457 C458 1.523 . S
C458 C442 1.368 . S
C458 C454 1.368 . S
C458 C457 1.523 . S
H459 C434 0.950 . S
H460 C436 0.950 . S
H461 C437 0.949 . S
H462 C439 0.950 . S
H463 C441 0.950 . S
C464 C465 1.349 . S
C464 C466 1.327 . S
C464 H489 0.950 . S
C465 C464 1.349 . S
C465 C481 1.349 . S
C466 C464 1.327 . S
C466 C485 1.429 . S
C466 H490 0.950 . S
C467 C484 1.574 . S
C467 C486 1.368 . S
C467 H491 0.949 . S
H468 C472 0.949 . S
C469 C470 1.349 . S
C469 C471 1.327 . S
C469 H492 0.950 . S
C470 C469 1.349 . S
C470 C482 1.349 . S
C471 C469 1.327 . S
C471 C487 1.429 . S
C471 H493 0.950 . S
C472 H468 0.949 . S
C472 C480 1.574 . S
C472 C488 1.368 . S
H473 C481 0.950 . S
H474 C479 0.950 . S
H475 C480 0.949 . S
H476 C482 0.950 . S
H477 C483 0.950 . S
H478 C484 0.949 . S
C479 H474 0.950 . S
C479 C481 1.327 . S
C479 C485 1.429 . S
C480 C472 1.574 . S
C480 H475 0.949 . S
C480 C486 1.368 . S
C481 C465 1.349 . S
C481 H473 0.950 . S
C481 C479 1.327 . S
C482 C470 1.349 . S
C482 H476 0.950 . S
C482 C483 1.327 . S
C483 H477 0.950 . S
C483 C482 1.327 . S
C483 C487 1.429 . S
C484 C467 1.574 . S
C484 H478 0.949 . S
C484 C488 1.368 . S
C485 C466 1.429 . S
C485 C479 1.429 . S
C485 C486 1.523 . S
C486 C467 1.368 . S
C486 C480 1.368 . S
C486 C485 1.523 . S
C487 C471 1.429 . S
C487 C483 1.429 . S
C487 C488 1.523 . S
C488 C472 1.368 . S
C488 C484 1.368 . S
C488 C487 1.523 . S
H489 C464 0.950 . S
H490 C466 0.950 . S
H491 C467 0.949 . S
H492 C469 0.950 . S
H493 C471 0.950 . S
C494 C495 1.349 . S
C494 C496 1.327 . S
C494 H519 0.950 . S
C495 C494 1.349 . S
C495 C511 1.349 . S
C496 C494 1.327 . S
C496 C515 1.429 . S
C496 H520 0.950 . S
C497 C514 1.574 . S
C497 C516 1.368 . S
C497 H521 0.949 . S
H498 C502 0.949 . S
C499 C500 1.349 . S
C499 C501 1.327 . S
C499 H522 0.950 . S
C500 C499 1.349 . S
C500 C512 1.349 . S
C501 C499 1.327 . S
C501 C517 1.429 . S
C501 H523 0.950 . S
C502 H498 0.949 . S
C502 C510 1.574 . S
C502 C518 1.368 . S
H503 C511 0.950 . S
H504 C509 0.950 . S
H505 C510 0.949 . S
H506 C512 0.950 . S
H507 C513 0.950 . S
H508 C514 0.949 . S
C509 H504 0.950 . S
C509 C511 1.327 . S
C509 C515 1.429 . S
C510 C502 1.574 . S
C510 H505 0.949 . S
C510 C516 1.368 . S
C511 C495 1.349 . S
C511 H503 0.950 . S
C511 C509 1.327 . S
C512 C500 1.349 . S
C512 H506 0.950 . S
C512 C513 1.327 . S
C513 H507 0.950 . S
C513 C512 1.327 . S
C513 C517 1.429 . S
C514 C497 1.574 . S
C514 H508 0.949 . S
C514 C518 1.368 . S
C515 C496 1.429 . S
C515 C509 1.429 . S
C515 C516 1.523 . S
C516 C497 1.368 . S
C516 C510 1.368 . S
C516 C515 1.523 . S
C517 C501 1.429 . S
C517 C513 1.429 . S
C517 C518 1.523 . S
C518 C502 1.368 . S
C518 C514 1.368 . S
C518 C517 1.523 . S
H519 C494 0.950 . S
H520 C496 0.950 . S
H521 C497 0.949 . S
H522 C499 0.950 . S
H523 C501 0.950 . S
C524 C525 1.349 . S
C524 C526 1.327 . S
C524 H549 0.950 . S
C525 C524 1.349 . S
C525 C541 1.349 . S
C526 C524 1.327 . S
C526 C545 1.429 . S
C526 H550 0.950 . S
C527 C544 1.574 1_455 S
C527 C546 1.368 . S
C527 H551 0.949 . S
H528 C532 0.949 . S
C529 C530 1.349 . S
C529 C531 1.327 . S
C529 H552 0.950 . S
C530 C529 1.349 . S
C530 C542 1.349 . S
C531 C529 1.327 . S
C531 C547 1.429 . S
C531 H553 0.950 . S
C532 H528 0.949 . S
C532 C540 1.574 1_655 S
C532 C548 1.368 . S
H533 C541 0.950 . S
H534 C539 0.950 . S
H535 C540 0.949 . S
H536 C542 0.950 . S
H537 C543 0.950 . S
H538 C544 0.949 . S
C539 H534 0.950 . S
C539 C541 1.327 . S
C539 C545 1.429 . S
C540 C532 1.574 1_455 S
C540 H535 0.949 . S
C540 C546 1.368 . S
C541 C525 1.349 . S
C541 H533 0.950 . S
C541 C539 1.327 . S
C542 C530 1.349 . S
C542 H536 0.950 . S
C542 C543 1.327 . S
C543 H537 0.950 . S
C543 C542 1.327 . S
C543 C547 1.429 . S
C544 C527 1.574 1_655 S
C544 H538 0.949 . S
C544 C548 1.368 . S
C545 C526 1.429 . S
C545 C539 1.429 . S
C545 C546 1.523 . S
C546 C527 1.368 . S
C546 C540 1.368 . S
C546 C545 1.523 . S
C547 C531 1.429 . S
C547 C543 1.429 . S
C547 C548 1.523 . S
C548 C532 1.368 . S
C548 C544 1.368 . S
C548 C547 1.523 . S
H549 C524 0.950 . S
H550 C526 0.950 . S
H551 C527 0.949 . S
H552 C529 0.950 . S
H553 C531 0.950 . S
C554 C555 1.349 . S
C554 C556 1.327 . S
C554 H579 0.950 . S
C555 C554 1.349 . S
C555 C571 1.349 . S
C556 C554 1.327 . S
C556 C575 1.429 . S
C556 H580 0.950 . S
C557 C574 1.574 1_455 S
C557 C576 1.368 . S
C557 H581 0.949 . S
H558 C562 0.949 . S
C559 C560 1.349 . S
C559 C561 1.327 . S
C559 H582 0.950 . S
C560 C559 1.349 . S
C560 C572 1.349 . S
C561 C559 1.327 . S
C561 C577 1.429 . S
C561 H583 0.950 . S
C562 H558 0.949 . S
C562 C570 1.574 1_655 S
C562 C578 1.368 . S
H563 C571 0.950 . S
H564 C569 0.950 . S
H565 C570 0.949 . S
H566 C572 0.950 . S
H567 C573 0.950 . S
H568 C574 0.949 . S
C569 H564 0.950 . S
C569 C571 1.327 . S
C569 C575 1.429 . S
C570 C562 1.574 1_455 S
C570 H565 0.949 . S
C570 C576 1.368 . S
C571 C555 1.349 . S
C571 H563 0.950 . S
C571 C569 1.327 . S
C572 C560 1.349 . S
C572 H566 0.950 . S
C572 C573 1.327 . S
C573 H567 0.950 . S
C573 C572 1.327 . S
C573 C577 1.429 . S
C574 C557 1.574 1_655 S
C574 H568 0.949 . S
C574 C578 1.368 . S
C575 C556 1.429 . S
C575 C569 1.429 . S
C575 C576 1.523 . S
C576 C557 1.368 . S
C576 C570 1.368 . S
C576 C575 1.523 . S
C577 C561 1.429 . S
C577 C573 1.429 . S
C577 C578 1.523 . S
C578 C562 1.368 . S
C578 C574 1.368 . S
C578 C577 1.523 . S
H579 C554 0.950 . S
H580 C556 0.950 . S
H581 C557 0.949 . S
H582 C559 0.950 . S
H583 C561 0.950 . S
C105 C4 1.932 . S
C110 C30 1.932 . S
C135 C49 1.932 . S
C140 C17 1.932 . S
C165 C82 1.932 . S
C170 C56 1.932 . S
C195 C69 1.932 . S
C200 C95 1.932 . S
C225 C23 1.145 . S
C230 C43 1.145 . S
C255 C10 1.145 . S
C260 C36 1.145 . S
C285 C101 1.145 . S
C290 C75 1.145 . S
C315 C62 1.145 . S
C320 C88 1.145 . S
C345 C68 1.527 . S
C350 C44 1.527 . S
C375 C29 1.527 . S
C380 C55 1.527 . S
C405 C16 1.527 . S
C410 C94 1.527 . S
C435 C3 1.527 . S
C440 C81 1.527 . S
C465 C5 1.553 . S
C470 C18 1.553 . S
C495 C31 1.553 . S
C500 C42 1.553 . S
C525 C70 1.553 . S
C530 C57 1.553 . S
C555 C83 1.553 . S
C560 C96 1.553 . S
