# Generated by pormake.
# Topology wji, (4)-cn, num edge types: 1
# Building blocks:
#     Node 0, Type 0, BuildingBlock: QUQFOY_clean_sbu_1, # of connection points: 4
#     Node 1, Type 0, BuildingBlock: QUQFOY_clean_sbu_1, # of connection points: 4
#     Node 2, Type 0, BuildingBlock: QUQFOY_clean_sbu_1, # of connection points: 4
#     Node 3, Type 0, BuildingBlock: QUQFOY_clean_sbu_1, # of connection points: 4
#     Node 4, Type 0, BuildingBlock: QUQFOY_clean_sbu_1, # of connection points: 4
#     Node 5, Type 0, BuildingBlock: QUQFOY_clean_sbu_1, # of connection points: 4
#     Node 6, Type 0, BuildingBlock: QUQFOY_clean_sbu_1, # of connection points: 4
#     Node 7, Type 0, BuildingBlock: QUQFOY_clean_sbu_1, # of connection points: 4
#     Node 8, Type 0, BuildingBlock: QUQFOY_clean_sbu_1, # of connection points: 4
#     Node 9, Type 0, BuildingBlock: QUQFOY_clean_sbu_1, # of connection points: 4
#     Node 10, Type 0, BuildingBlock: QUQFOY_clean_sbu_1, # of connection points: 4
#     Node 11, Type 0, BuildingBlock: QUQFOY_clean_sbu_1, # of connection points: 4
#     Edge 12, Type (0, 0), BuildingBlock: AJUNOK_clean_linker_0, # of connection points: 2
#     Edge 13, Type (0, 0), BuildingBlock: AJUNOK_clean_linker_0, # of connection points: 2
#     Edge 14, Type (0, 0), BuildingBlock: AJUNOK_clean_linker_0, # of connection points: 2
#     Edge 15, Type (0, 0), BuildingBlock: AJUNOK_clean_linker_0, # of connection points: 2
#     Edge 16, Type (0, 0), BuildingBlock: AJUNOK_clean_linker_0, # of connection points: 2
#     Edge 17, Type (0, 0), BuildingBlock: AJUNOK_clean_linker_0, # of connection points: 2
#     Edge 18, Type (0, 0), BuildingBlock: AJUNOK_clean_linker_0, # of connection points: 2
#     Edge 19, Type (0, 0), BuildingBlock: AJUNOK_clean_linker_0, # of connection points: 2
#     Edge 20, Type (0, 0), BuildingBlock: AJUNOK_clean_linker_0, # of connection points: 2
#     Edge 21, Type (0, 0), BuildingBlock: AJUNOK_clean_linker_0, # of connection points: 2
#     Edge 22, Type (0, 0), BuildingBlock: AJUNOK_clean_linker_0, # of connection points: 2
#     Edge 23, Type (0, 0), BuildingBlock: AJUNOK_clean_linker_0, # of connection points: 2
#     Edge 24, Type (0, 0), BuildingBlock: AJUNOK_clean_linker_0, # of connection points: 2
#     Edge 25, Type (0, 0), BuildingBlock: AJUNOK_clean_linker_0, # of connection points: 2
#     Edge 26, Type (0, 0), BuildingBlock: AJUNOK_clean_linker_0, # of connection points: 2
#     Edge 27, Type (0, 0), BuildingBlock: AJUNOK_clean_linker_0, # of connection points: 2
#     Edge 28, Type (0, 0), BuildingBlock: AJUNOK_clean_linker_0, # of connection points: 2
#     Edge 29, Type (0, 0), BuildingBlock: AJUNOK_clean_linker_0, # of connection points: 2
#     Edge 30, Type (0, 0), BuildingBlock: AJUNOK_clean_linker_0, # of connection points: 2
#     Edge 31, Type (0, 0), BuildingBlock: AJUNOK_clean_linker_0, # of connection points: 2
#     Edge 32, Type (0, 0), BuildingBlock: AJUNOK_clean_linker_0, # of connection points: 2
#     Edge 33, Type (0, 0), BuildingBlock: AJUNOK_clean_linker_0, # of connection points: 2
#     Edge 34, Type (0, 0), BuildingBlock: AJUNOK_clean_linker_0, # of connection points: 2
#     Edge 35, Type (0, 0), BuildingBlock: AJUNOK_clean_linker_0, # of connection points: 2
# Relax obj value: 0.270
# Max RMSD: 0.196
# Mean RMSD: 0.196
data_MOF--net-wji--node1-QUQFOY_clean_sbu_1--edge1-AJUNOK_clean_linker_0
_symmetry_space_group_name_H-M    P1
_symmetry_Int_Tables_number       1
_symmetry_cell_setting            triclinic
loop_
_symmetry_equiv_pos_as_xyz
'x, y, z'
_cell_length_a     46.007721
_cell_length_b     46.082236
_cell_length_c     16.934037
_cell_angle_alpha  90.153447
_cell_angle_beta   90.13075
_cell_angle_gamma 120.06287
loop_
_atom_site_label
_atom_site_type_symbol
_atom_site_fract_x
_atom_site_fract_y
_atom_site_fract_z
_atom_type_partial_charge
O0 O 0.37977 0.32077 0.49431 0.0
Cd1 Cd 0.39337 0.30035 0.40604 0.0
Cd2 Cd 0.45078 0.36386 0.41672 0.0
O3 O 0.43184 0.35614 0.52928 0.0
O4 O 0.36772 0.25155 0.42922 0.0
O5 O 0.42299 0.28224 0.44112 0.0
C6 C 0.39558 0.25415 0.45356 0.0
C7 C 0.50594 0.41074 0.41196 0.0
C8 C 0.40061 0.34125 0.54379 0.0
C9 C 0.3962 0.34503 0.28529 0.0
O10 O 0.4206 0.36576 0.32815 0.0
O11 O 0.38339 0.31366 0.29692 0.0
O12 O 0.48007 0.4133 0.42734 0.0
O13 O 0.50097 0.38103 0.3988 0.0
O14 O 0.07824 0.37377 0.63697 0.0
Cd15 Cd 0.11676 0.39089 0.55944 0.0
Cd16 Cd 0.10677 0.44679 0.55558 0.0
O17 O 0.08043 0.4222 0.65469 0.0
O18 O 0.14182 0.368 0.5922 0.0
O19 O 0.16241 0.42268 0.60515 0.0
C20 C 0.16496 0.39649 0.61991 0.0
C21 C 0.11743 0.50268 0.55328 0.0
C22 C 0.06876 0.39166 0.67294 0.0
C23 C 0.08569 0.39697 0.41439 0.0
O24 O 0.08691 0.42176 0.45059 0.0
O25 O 0.09953 0.38143 0.44375 0.0
O26 O 0.08791 0.47714 0.54634 0.0
O27 O 0.14197 0.49695 0.56121 0.0
O28 O 0.72684 0.06776 0.80726 0.0
Cd29 Cd 0.74672 0.10596 0.7289 0.0
Cd30 Cd 0.68227 0.09833 0.73634 0.0
O31 O 0.68518 0.07611 0.83851 0.0
O32 O 0.79543 0.1305 0.75505 0.0
O33 O 0.76219 0.15156 0.77638 0.0
C34 C 0.79109 0.15364 0.78646 0.0
C35 C 0.63641 0.108 0.74403 0.0
C36 C 0.70231 0.06193 0.85107 0.0
C37 C 0.70473 0.07309 0.59141 0.0
O38 O 0.68247 0.07454 0.63286 0.0
O39 O 0.73533 0.08839 0.6138 0.0
O40 O 0.63281 0.0786 0.74186 0.0
O41 O 0.66661 0.13301 0.73991 0.0
O42 O 0.67321 0.71308 -0.03112 0.0
Cd43 Cd 0.65922 0.73808 0.89382 0.0
Cd44 Cd 0.59988 0.6731 0.87874 0.0
O45 O 0.62292 0.66841 -0.02232 0.0
O46 O 0.68535 0.78536 0.93156 0.0
O47 O 0.63005 0.7549 0.94056 0.0
C48 C 0.65762 0.78212 0.95842 0.0
C49 C 0.54425 0.62699 0.87683 0.0
C50 C 0.65334 0.685 -0.00042 0.0
C51 C 0.65209 0.70349 0.74299 0.0
O52 O 0.62569 0.67996 0.77437 0.0
O53 O 0.66897 0.73173 0.77767 0.0
O54 O 0.57012 0.62393 0.86617 0.0
O55 O 0.54933 0.65699 0.88494 0.0
O56 O 0.98022 0.66334 0.15369 0.0
Cd57 Cd 0.94305 0.65063 0.07293 0.0
Cd58 Cd 0.94958 0.59187 0.06506 0.0
O59 O 0.97367 0.61293 0.16941 0.0
O60 O 0.92178 0.67715 0.10652 0.0
O61 O 0.89587 0.62186 0.11364 0.0
C62 C 0.89632 0.64951 0.13039 0.0
C63 C 0.93882 0.53629 0.05007 0.0
C64 C 0.98726 0.64354 0.1895 0.0
C65 C 0.97532 0.64538 0.93045 0.0
O66 O 0.97237 0.61975 0.96578 0.0
O67 O 0.9617 0.66131 0.95878 0.0
O68 O 0.96851 0.56178 0.05057 0.0
O69 O 0.91417 0.54171 0.0596 0.0
O70 O 0.33937 0.96719 0.31149 0.0
Cd71 Cd 0.31274 0.92996 0.23257 0.0
Cd72 Cd 0.37933 0.93899 0.20974 0.0
O73 O 0.3867 0.96611 0.31145 0.0
O74 O 0.26595 0.91128 0.27251 0.0
O75 O 0.29269 0.8827 0.27439 0.0
C76 C 0.26691 0.88507 0.29522 0.0
C77 C 0.42284 0.92645 0.19134 0.0
C78 C 0.36853 0.97725 0.33883 0.0
C79 C 0.34536 0.9616 0.08316 0.0
O80 O 0.36964 0.95888 0.11073 0.0
O81 O 0.31735 0.94862 0.11914 0.0
O82 O 0.42751 0.95618 0.18523 0.0
O83 O 0.39293 0.90279 0.20777 0.0
O84 O 0.72392 0.65865 0.29653 0.0
Cd85 Cd 0.74681 0.64873 0.38629 0.0
Cd86 Cd 0.68208 0.58989 0.38541 0.0
O87 O 0.68821 0.60572 0.27034 0.0
O88 O 0.79525 0.67622 0.35906 0.0
O89 O 0.76749 0.62079 0.3555 0.0
C90 C 0.79445 0.64874 0.33921 0.0
C91 C 0.63393 0.53585 0.39677 0.0
C92 C 0.70236 0.63636 0.25115 0.0
C93 C 0.70361 0.64831 0.50866 0.0
O94 O 0.68233 0.62251 0.47039 0.0
O95 O 0.73484 0.66128 0.49407 0.0
O96 O 0.63228 0.56203 0.37952 0.0
O97 O 0.66341 0.53986 0.40848 0.0
O98 O 0.08467 0.71867 0.48566 0.0
Cd99 Cd 0.12035 0.74303 0.56957 0.0
Cd100 Cd 0.11814 0.68051 0.5643 0.0
O101 O 0.10728 0.68843 0.45148 0.0
O102 O 0.14268 0.79116 0.5397 0.0
O103 O 0.16761 0.76075 0.53157 0.0
C104 C 0.16789 0.7884 0.5159 0.0
C105 C 0.12327 0.63183 0.56382 0.0
C106 C 0.0871 0.69897 0.43752 0.0
C107 C 0.08288 0.69983 0.69641 0.0
O108 O 0.08722 0.67929 0.65479 0.0
O109 O 0.09959 0.73106 0.68121 0.0
O110 O 0.09548 0.63107 0.55079 0.0
O111 O 0.14907 0.66066 0.57942 0.0
O112 O 0.3899 0.07439 0.6339 0.0
Cd113 Cd 0.39778 0.10832 0.71985 0.0
Cd114 Cd 0.4576 0.10408 0.73115 0.0
O115 O 0.44322 0.09096 0.61583 0.0
O116 O 0.36945 0.12727 0.68418 0.0
O117 O 0.42493 0.15668 0.68651 0.0
C118 C 0.39676 0.15431 0.66537 0.0
C119 C 0.51185 0.11122 0.7493 0.0
C120 C 0.4129 0.07422 0.5934 0.0
C121 C 0.39764 0.0687 0.85063 0.0
O122 O 0.42432 0.07334 0.81682 0.0
O123 O 0.38391 0.08553 0.82928 0.0
O124 O 0.48576 0.08265 0.73602 0.0
O125 O 0.50761 0.13676 0.75399 0.0
O126 O 0.32515 0.37289 0.82957 0.0
Cd127 Cd 0.30363 0.39012 0.9066 0.0
Cd128 Cd 0.36956 0.44717 0.91081 0.0
O129 O 0.37011 0.42224 0.8108 0.0
O130 O 0.25564 0.36755 0.87328 0.0
O131 O 0.2904 0.42215 0.86079 0.0
C132 C 0.26142 0.3961 0.8457 0.0
C133 C 0.41707 0.50199 0.90912 0.0
C134 C 0.35209 0.39147 0.79286 0.0
C135 C 0.34127 0.39744 0.05169 0.0
O136 O 0.36466 0.42238 0.01569 0.0
O137 O 0.3118 0.38149 0.0223 0.0
O138 O 0.4192 0.47549 0.91698 0.0
O139 O 0.38731 0.49796 0.90442 0.0
O140 O 0.97225 0.31974 -0.02762 0.0
Cd141 Cd 0.93725 0.29877 0.05813 0.0
Cd142 Cd 0.94264 0.36159 0.04613 0.0
O143 O 0.95161 0.35112 0.93366 0.0
O144 O 0.91459 0.25013 0.03313 0.0
O145 O 0.88979 0.28047 0.0197 0.0
C146 C 0.88955 0.25264 0.00668 0.0
C147 C 0.93588 0.40923 0.04242 0.0
C148 C 0.96995 0.33831 0.92093 0.0
C149 C 0.9785 0.34393 0.17903 0.0
O150 O 0.97523 0.36445 0.13492 0.0
O151 O 0.95955 0.31249 0.16831 0.0
O152 O 0.96383 0.41062 0.02772 0.0
O153 O 0.91103 0.38053 0.06249 0.0
O154 O 0.67582 0.96369 0.14885 0.0
Cd155 Cd 0.6595 0.92753 0.23219 0.0
Cd156 Cd 0.6018 0.93214 0.21453 0.0
O157 O 0.62426 0.94339 0.10543 0.0
O158 O 0.68429 0.90337 0.21055 0.0
O159 O 0.62961 0.88099 0.18978 0.0
C160 C 0.65673 0.87938 0.18079 0.0
C161 C 0.54686 0.92367 0.2019 0.0
C162 C 0.65564 0.96205 0.09591 0.0
C163 C 0.65146 0.9658 0.35522 0.0
O164 O 0.62853 0.96324 0.30858 0.0
O165 O 0.66498 0.94785 0.34384 0.0
O166 O 0.57326 0.95226 0.1916 0.0
O167 O 0.55109 0.89916 0.22283 0.0
C168 C 0.33796 0.34941 0.12935 0.0
C169 C 0.35111 0.38417 0.12029 0.0
C170 C 0.35265 0.33678 0.18217 0.0
C171 C 0.38108 0.35845 0.22791 0.0
H172 H 0.3172 0.33186 0.09261 0.0
H173 H 0.34194 0.30989 0.18621 0.0
S174 S 0.42296 0.45174 0.2308 0.0
N175 N 0.3925 0.43988 0.1652 0.0
N176 N 0.4202 0.41677 0.26357 0.0
C177 C 0.39353 0.39331 0.22124 0.0
C178 C 0.37852 0.40598 0.16789 0.0
C179 C 0.04085 0.34871 0.33634 0.0
C180 C 0.0627 0.38348 0.34532 0.0
C181 C 1.01354 0.33597 0.28309 0.0
C182 C 1.00704 0.35753 0.23682 0.0
H183 H 0.04384 0.33126 0.37349 0.0
H184 H 0.99716 0.30907 0.27914 0.0
S185 S 0.05915 0.45076 0.23365 0.0
N186 N 0.07754 0.43906 0.29989 0.0
N187 N 1.02676 0.41573 0.20063 0.0
C188 C 0.02972 0.39238 0.24341 0.0
C189 C 0.05737 0.40516 0.29723 0.0
C190 C 0.69628 1.00409 0.45225 0.0
C191 C 0.66471 0.99293 0.41637 0.0
C192 C 0.71023 0.03147 0.50516 0.0
C193 C 0.6931 0.0487 0.5246 0.0
H194 H 0.71048 0.99174 0.43912 0.0
H195 H 0.73407 0.03842 0.53306 0.0
S196 S 0.6103 0.03052 0.44518 0.0
N197 N 0.61716 1.00213 0.40343 0.0
N198 N 0.64342 0.05333 0.50152 0.0
C199 C 0.66186 0.03821 0.48801 0.0
C200 C 0.64766 1.01042 0.4345 0.0
C201 C 0.71268 0.691 0.61478 0.0
C202 C 0.69079 0.66448 0.56456 0.0
C203 C 0.70039 0.70577 0.66837 0.0
C204 C 0.66578 0.69463 0.67352 0.0
H205 H 0.73935 0.69982 0.61432 0.0
H206 H 0.7179 0.72471 0.70899 0.0
S207 S 0.59831 0.62944 0.54838 0.0
N208 N 0.63284 0.63028 0.51874 0.0
N209 N 0.61035 0.65794 0.61896 0.0
C210 C 0.64397 0.66957 0.62073 0.0
C211 C 0.65629 0.65452 0.56657 0.0
C212 C 0.04555 0.70678 0.79558 0.0
C213 C 0.05518 0.68595 0.75593 0.0
C214 C 1.01821 0.69344 0.84838 0.0
C215 C 0.99938 0.65874 0.8634 0.0
H216 H 0.0593 0.73361 0.78617 0.0
H217 H 1.01263 0.71057 0.87977 0.0
S218 S 1.01246 0.59287 0.77152 0.0
N219 N 0.04232 0.62832 0.73412 0.0
N220 N 0.99111 0.60369 0.83088 0.0
C221 C 1.00805 0.6376 0.82223 0.0
C222 C 0.03588 0.65106 0.76942 0.0
C223 C 0.39356 1.01787 0.9135 0.0
C224 C 0.38136 0.04045 0.90802 0.0
C225 C 0.37974 0.99089 0.96581 0.0
C226 C 0.35301 0.98497 0.01581 0.0
H227 H 0.41442 0.0211 0.87756 0.0
H228 H 0.39104 0.97519 -0.03091 0.0
S229 S 0.31012 0.03504 0.02252 0.0
N230 N 0.3394 0.05377 0.95457 0.0
N231 N 0.31366 1.00309 0.05445 0.0
C232 C 0.33942 1.00633 0.00907 0.0
C233 C 0.35357 0.03405 0.95509 0.0
C234 C 0.57184 0.50274 0.40714 0.0
C235 C 0.60248 0.50299 0.40288 0.0
C236 C 0.54121 0.47281 0.41022 0.0
C237 C 0.53955 0.44149 0.40868 0.0
H238 H 0.57132 0.52599 0.40817 0.0
H239 H 0.51856 0.47445 0.41319 0.0
S240 S 0.61247 0.42793 0.3984 0.0
N241 N 0.62946 0.46915 0.39799 0.0
N242 N 0.57143 0.41243 0.40326 0.0
C243 C 0.56995 0.44113 0.40471 0.0
C244 C 0.60148 0.47194 0.40214 0.0
C245 C 0.09438 0.5403 0.52849 0.0
C246 C 0.12173 0.53682 0.5527 0.0
C247 C 0.09569 0.57116 0.53164 0.0
C248 C 0.12441 0.60022 0.55924 0.0
H249 H 0.07137 0.51886 0.50736 0.0
H250 H 0.07362 0.57199 0.51257 0.0
S251 S 0.20359 0.60525 0.62702 0.0
N252 N 0.17902 0.56537 0.60316 0.0
N253 N 0.18153 0.62387 0.60909 0.0
C254 C 0.15243 0.59751 0.58194 0.0
C255 C 0.15108 0.56574 0.57862 0.0
C256 C 0.54561 0.08377 0.77187 0.0
C257 C 0.545 0.11341 0.75638 0.0
C258 C 0.57545 0.08292 0.76961 0.0
C259 C 0.60625 0.11166 0.75163 0.0
H260 H 0.52262 0.06061 0.78438 0.0
H261 H 0.57406 0.05912 0.78086 0.0
S262 S 0.61895 0.19637 0.71161 0.0
N263 N 0.57811 0.17287 0.72647 0.0
N264 N 0.63471 0.17131 0.72228 0.0
C265 C 0.60644 0.14196 0.73925 0.0
C266 C 0.57572 0.14284 0.74168 0.0
C267 C 0.50957 0.56553 0.89454 0.0
C268 C 0.51077 0.59639 0.8846 0.0
C269 C 0.47922 0.53573 0.90357 0.0
C270 C 0.44832 0.53506 0.90261 0.0
H271 H 0.53239 0.56415 0.89602 0.0
H272 H 0.48024 0.5129 0.91081 0.0
S273 S 0.4372 0.60897 0.87864 0.0
N274 N 0.4783 0.62473 0.87507 0.0
N275 N 0.42068 0.56815 0.89114 0.0
C276 C 0.44888 0.56571 0.89301 0.0
C277 C 0.48019 0.59646 0.8843 0.0
C278 C 0.90923 0.44373 0.07937 0.0
C279 C 0.93334 0.43999 0.0363 0.0
C280 C 0.90969 0.47456 0.08065 0.0
C281 C 0.9343 0.50244 0.039 0.0
H282 H 0.89086 0.42325 0.11489 0.0
H283 H 0.8918 0.47703 0.11738 0.0
S284 S 0.99901 0.50389 0.90613 0.0
N285 N 0.97956 0.46565 0.94285 0.0
N286 N 0.98046 0.5231 0.94587 0.0
C287 C 0.957 0.49825 -0.00821 0.0
C288 C 0.95651 0.46714 -0.00972 0.0
C289 C 0.45487 0.89765 0.23075 0.0
C290 C 0.45175 0.92097 0.18317 0.0
C291 C 0.48527 0.8972 0.23398 0.0
C292 C 0.51332 0.9201 0.18979 0.0
H293 H 0.43444 0.88101 0.26897 0.0
H294 H 0.48735 0.88011 0.27428 0.0
S295 S 0.51562 0.9815 0.04475 0.0
N296 N 0.47761 0.96412 0.08299 0.0
N297 N 0.5343 0.96327 0.08876 0.0
C298 C 0.50947 0.94166 0.13763 0.0
C299 C 0.47879 0.94209 0.13439 0.0
C300 C 0.39749 0.39516 0.70707 0.0
C301 C 0.36381 0.37709 0.73152 0.0
C302 C 0.40959 0.38249 0.64901 0.0
C303 C 0.3884 0.35144 0.61264 0.0
H304 H 0.41474 0.41941 0.73262 0.0
H305 H 0.43551 0.3978 0.63075 0.0
S306 S 0.29868 0.29323 0.65887 0.0
N307 N 0.30977 0.32576 0.71773 0.0
N308 N 0.33263 0.30193 0.60799 0.0
C309 C 0.35491 0.33257 0.6381 0.0
C310 C 0.34259 0.34542 0.69767 0.0
C311 C 1.00052 0.37949 0.81501 0.0
C312 C 0.99245 0.34919 0.85239 0.0
C313 C 1.02532 0.393 0.7572 0.0
C314 C 0.04272 0.37655 0.73407 0.0
H315 H 0.98847 0.39357 0.83231 0.0
H316 H 0.03094 0.41663 0.73078 0.0
S317 S 0.0292 0.2952 0.81014 0.0
N318 N 1.0024 0.30213 0.85968 0.0
N319 N 0.04912 0.32752 0.75047 0.0
C320 C 0.0341 0.34562 0.76907 0.0
C321 C 1.00892 0.33193 0.82836 0.0
C322 C 0.64605 0.99427 -0.00736 0.0
C323 C 0.66798 0.9855 0.02934 0.0
C324 C 0.65764 0.01938 0.93583 0.0
C325 C 0.69148 0.03632 0.91276 0.0
H326 H 0.61987 0.9824 0.00949 0.0
H327 H 0.63981 0.02539 0.90952 0.0
S328 S 0.7588 0.02168 -0.01184 0.0
N329 N 0.72491 0.99492 0.03721 0.0
N330 N 0.74671 0.04209 0.9289 0.0
C331 C 0.71359 0.02728 0.94735 0.0
C332 C 0.70182 1.00187 0.00607 0.0
C333 C 0.69701 0.69233 0.09702 0.0
C334 C 0.66596 0.67124 0.06032 0.0
C335 C 0.70926 0.68033 0.1563 0.0
C336 C 0.691 0.64674 0.18091 0.0
H337 H 0.71173 0.71856 0.08119 0.0
H338 H 0.7329 0.69781 0.18423 0.0
S339 S 0.6096 0.58044 0.09855 0.0
N340 N 0.61815 0.61455 0.04885 0.0
N341 N 0.64119 0.59195 0.16078 0.0
C342 C 0.66053 0.62496 0.14247 0.0
C343 C 0.64794 0.63725 0.08222 0.0
C344 C 0.04678 0.70201 0.34512 0.0
C345 C 0.06364 0.68535 0.37047 0.0
C346 C 1.02197 0.68813 0.28687 0.0
C347 C 1.01286 0.65691 0.25239 0.0
H348 H 0.05256 0.72586 0.37093 0.0
H349 H 1.00962 0.70189 0.26939 0.0
S350 S 0.04983 0.60329 0.29747 0.0
N351 N 0.0699 0.63613 0.35628 0.0
N352 N 1.02311 0.60995 0.24653 0.0
C353 C 0.02972 0.64004 0.2767 0.0
C354 C 0.05524 0.65435 0.33563 0.0
C355 C 0.35949 1.01222 0.43633 0.0
C356 C 0.38135 1.00282 0.40192 0.0
C357 C 0.37039 0.03623 0.49615 0.0
C358 C 0.40362 0.05188 0.52415 0.0
H359 H 0.33349 1.00073 0.41771 0.0
H360 H 0.35232 0.04211 0.52142 0.0
S361 S 0.47152 0.03754 0.45129 0.0
N362 N 0.4383 1.01201 0.3979 0.0
N363 N 0.45885 0.05724 0.51125 0.0
C364 C 0.42614 0.04344 0.48906 0.0
C365 C 0.41496 0.01881 0.42792 0.0
C366 C 0.42567 0.23192 0.53651 0.0
C367 C 0.39553 0.22736 0.50323 0.0
C368 C 0.42581 0.20872 0.59021 0.0
C369 C 0.39581 0.18002 0.61354 0.0
H370 H 0.44942 0.25383 0.52179 0.0
H371 H 0.44973 0.21333 0.61335 0.0
S372 S 0.30997 0.15597 0.5432 0.0
N373 N 0.33478 0.19142 0.49721 0.0
N374 N 0.33501 0.14828 0.59799 0.0
C375 C 0.36548 0.17511 0.58052 0.0
C376 C 0.36537 0.19857 0.52545 0.0
C377 C 0.20987 0.36771 0.7609 0.0
C378 C 0.23683 0.39773 0.79083 0.0
C379 C 0.18772 0.3678 0.70404 0.0
C380 C 0.19115 0.39792 0.67466 0.0
H381 H 0.20597 0.34367 0.7806 0.0
H382 H 0.16736 0.34383 0.68394 0.0
S383 S 0.25739 0.48369 0.73348 0.0
N384 N 0.2658 0.45867 0.7862 0.0
N385 N 0.22377 0.45884 0.68031 0.0
C386 C 0.21791 0.42824 0.70414 0.0
C387 C 0.24078 0.42815 0.76184 0.0
C388 C 0.83543 0.22791 0.92885 0.0
C389 C 0.86372 0.22614 0.95407 0.0
C390 C 0.81249 0.20495 0.87346 0.0
C391 C 0.81711 0.1795 0.83994 0.0
H392 H 0.83098 0.24731 0.95177 0.0
H393 H 0.79093 0.20716 0.857 0.0
S394 S 0.88746 0.16419 0.88479 0.0
N395 N 0.895 0.19668 0.94044 0.0
N396 N 0.8525 0.15415 0.83637 0.0
C397 C 0.84543 0.17761 0.86434 0.0
C398 C 0.86849 0.20067 0.92136 0.0
C399 C 0.62729 0.82826 0.09308 0.0
C400 C 0.65712 0.85323 0.12909 0.0
C401 C 0.62764 0.8057 0.03732 0.0
C402 C 0.65786 0.80739 0.01431 0.0
H403 H 0.60344 0.82632 0.10721 0.0
H404 H 0.60399 0.7869 0.01176 0.0
S405 S 0.74292 0.86738 0.09249 0.0
N406 N 0.71773 0.8775 0.13882 0.0
N407 N 0.7184 0.83569 0.03409 0.0
C408 C 0.68783 0.83204 0.05041 0.0
C409 C 0.68744 0.85472 0.10774 0.0
C410 C 0.81914 0.61942 0.26204 0.0
C411 C 0.82185 0.64946 0.29047 0.0
C412 C 0.84283 0.6196 0.20924 0.0
C413 C 0.87018 0.64985 0.18202 0.0
H414 H 0.79828 0.59544 0.27983 0.0
H415 H 0.83963 0.59577 0.18974 0.0
S416 S 0.88928 0.73561 0.23931 0.0
N417 N 0.85468 0.71043 0.28798 0.0
N418 N 0.89872 0.71078 0.18891 0.0
C419 C 0.87327 0.68008 0.21032 0.0
C420 C 0.84933 0.67989 0.26447 0.0
C421 C 0.21921 0.80924 0.43009 0.0
C422 C 0.19421 0.81445 0.46396 0.0
C423 C 0.24213 0.83172 0.37459 0.0
C424 C 0.24094 0.8603 0.35 0.0
H425 H 0.2209 0.78735 0.44568 0.0
H426 H 0.26094 0.82658 0.35086 0.0
S427 S 0.18088 0.8861 0.42196 0.0
N428 N 0.17027 0.85102 0.46963 0.0
N429 N 0.21283 0.89282 0.36557 0.0
C430 C 0.21618 0.86592 0.38381 0.0
C431 C 0.19304 0.8432 0.44067 0.0
loop_
_geom_bond_atom_site_label_1
_geom_bond_atom_site_label_2
_geom_bond_distance
_geom_bond_site_symmetry_2
_ccdc_geom_bond_type
O0 Cd1 2.223 . S
O0 C8 1.315 . S
Cd1 O0 2.223 . S
Cd1 O4 2.297 . S
Cd1 O5 2.439 . S
Cd1 O11 2.240 . S
Cd2 O3 2.240 . S
Cd2 O10 2.223 . S
Cd2 O12 2.297 . S
Cd2 O13 2.439 . S
O3 Cd2 2.240 . S
O3 C8 1.279 . S
O4 Cd1 2.297 . S
O4 C6 1.247 . S
O5 Cd1 2.439 . S
O5 C6 1.208 . S
C6 O4 1.247 . S
C6 O5 1.208 . S
C7 O12 1.247 . S
C7 O13 1.208 . S
C8 O0 1.315 . S
C8 O3 1.279 . S
C9 O10 1.315 . S
C9 O11 1.279 . S
O10 Cd2 2.223 . S
O10 C9 1.315 . S
O11 Cd1 2.240 . S
O11 C9 1.279 . S
O12 Cd2 2.297 . S
O12 C7 1.247 . S
O13 Cd2 2.439 . S
O13 C7 1.208 . S
O14 Cd15 2.223 . S
O14 C22 1.315 . S
Cd15 O14 2.223 . S
Cd15 O18 2.297 . S
Cd15 O19 2.439 . S
Cd15 O25 2.240 . S
Cd16 O17 2.240 . S
Cd16 O24 2.223 . S
Cd16 O26 2.297 . S
Cd16 O27 2.439 . S
O17 Cd16 2.240 . S
O17 C22 1.279 . S
O18 Cd15 2.297 . S
O18 C20 1.247 . S
O19 Cd15 2.439 . S
O19 C20 1.208 . S
C20 O18 1.247 . S
C20 O19 1.208 . S
C21 O26 1.247 . S
C21 O27 1.208 . S
C22 O14 1.315 . S
C22 O17 1.279 . S
C23 O24 1.315 . S
C23 O25 1.279 . S
O24 Cd16 2.223 . S
O24 C23 1.315 . S
O25 Cd15 2.240 . S
O25 C23 1.279 . S
O26 Cd16 2.297 . S
O26 C21 1.247 . S
O27 Cd16 2.439 . S
O27 C21 1.208 . S
O28 Cd29 2.223 . S
O28 C36 1.315 . S
Cd29 O28 2.223 . S
Cd29 O32 2.297 . S
Cd29 O33 2.439 . S
Cd29 O39 2.240 . S
Cd30 O31 2.240 . S
Cd30 O38 2.223 . S
Cd30 O40 2.297 . S
Cd30 O41 2.439 . S
O31 Cd30 2.240 . S
O31 C36 1.279 . S
O32 Cd29 2.297 . S
O32 C34 1.247 . S
O33 Cd29 2.439 . S
O33 C34 1.208 . S
C34 O32 1.247 . S
C34 O33 1.208 . S
C35 O40 1.247 . S
C35 O41 1.208 . S
C36 O28 1.315 . S
C36 O31 1.279 . S
C37 O38 1.315 . S
C37 O39 1.279 . S
O38 Cd30 2.223 . S
O38 C37 1.315 . S
O39 Cd29 2.240 . S
O39 C37 1.279 . S
O40 Cd30 2.297 . S
O40 C35 1.247 . S
O41 Cd30 2.439 . S
O41 C35 1.208 . S
O42 Cd43 2.223 . S
O42 C50 1.315 1_556 S
Cd43 O42 2.223 . S
Cd43 O46 2.301 . S
Cd43 O47 2.439 . S
Cd43 O53 2.240 . S
Cd44 O45 2.240 1_556 S
Cd44 O52 2.223 . S
Cd44 O54 2.297 . S
Cd44 O55 2.439 . S
O45 Cd44 2.240 1_554 S
O45 C50 1.279 . S
O46 Cd43 2.301 . S
O46 C48 1.246 1_556 S
O47 Cd43 2.439 . S
O47 C48 1.208 1_556 S
C48 O46 1.246 1_554 S
C48 O47 1.208 1_554 S
C49 O54 1.247 . S
C49 O55 1.208 . S
C50 O42 1.315 1_554 S
C50 O45 1.279 . S
C51 O52 1.315 . S
C51 O53 1.279 . S
O52 Cd44 2.223 . S
O52 C51 1.315 . S
O53 Cd43 2.240 . S
O53 C51 1.279 . S
O54 Cd44 2.297 . S
O54 C49 1.247 . S
O55 Cd44 2.439 . S
O55 C49 1.208 . S
O56 Cd57 2.223 . S
O56 C64 1.315 . S
Cd57 O56 2.223 . S
Cd57 O60 2.297 . S
Cd57 O61 2.439 . S
Cd57 O67 2.240 . S
Cd58 O59 2.240 . S
Cd58 O66 2.223 . S
Cd58 O68 2.297 . S
Cd58 O69 2.439 . S
O59 Cd58 2.240 . S
O59 C64 1.279 . S
O60 Cd57 2.297 . S
O60 C62 1.247 . S
O61 Cd57 2.439 . S
O61 C62 1.208 . S
C62 O60 1.247 . S
C62 O61 1.208 . S
C63 O68 1.247 . S
C63 O69 1.208 . S
C64 O56 1.315 . S
C64 O59 1.279 . S
C65 O66 1.315 1_556 S
C65 O67 1.279 1_556 S
O66 Cd58 2.223 . S
O66 C65 1.315 1_554 S
O67 Cd57 2.240 . S
O67 C65 1.279 1_554 S
O68 Cd58 2.297 . S
O68 C63 1.247 . S
O69 Cd58 2.439 . S
O69 C63 1.208 . S
O70 Cd71 2.223 . S
O70 C78 1.315 . S
Cd71 O70 2.223 . S
Cd71 O74 2.297 . S
Cd71 O75 2.439 . S
Cd71 O81 2.240 . S
Cd72 O73 2.240 . S
Cd72 O80 2.223 . S
Cd72 O82 2.297 . S
Cd72 O83 2.439 . S
O73 Cd72 2.240 . S
O73 C78 1.279 . S
O74 Cd71 2.297 . S
O74 C76 1.247 . S
O75 Cd71 2.439 . S
O75 C76 1.208 . S
C76 O74 1.247 . S
C76 O75 1.208 . S
C77 O82 1.247 . S
C77 O83 1.208 . S
C78 O70 1.315 . S
C78 O73 1.279 . S
C79 O80 1.315 . S
C79 O81 1.279 . S
O80 Cd72 2.223 . S
O80 C79 1.315 . S
O81 Cd71 2.240 . S
O81 C79 1.279 . S
O82 Cd72 2.297 . S
O82 C77 1.247 . S
O83 Cd72 2.439 . S
O83 C77 1.208 . S
O84 Cd85 2.223 . S
O84 C92 1.315 . S
Cd85 O84 2.223 . S
Cd85 O88 2.297 . S
Cd85 O89 2.439 . S
Cd85 O95 2.240 . S
Cd86 O87 2.240 . S
Cd86 O94 2.223 . S
Cd86 O96 2.297 . S
Cd86 O97 2.439 . S
O87 Cd86 2.240 . S
O87 C92 1.279 . S
O88 Cd85 2.297 . S
O88 C90 1.247 . S
O89 Cd85 2.439 . S
O89 C90 1.208 . S
C90 O88 1.247 . S
C90 O89 1.208 . S
C91 O96 1.247 . S
C91 O97 1.208 . S
C92 O84 1.315 . S
C92 O87 1.279 . S
C93 O94 1.315 . S
C93 O95 1.279 . S
O94 Cd86 2.223 . S
O94 C93 1.315 . S
O95 Cd85 2.240 . S
O95 C93 1.279 . S
O96 Cd86 2.297 . S
O96 C91 1.247 . S
O97 Cd86 2.439 . S
O97 C91 1.208 . S
O98 Cd99 2.223 . S
O98 C106 1.315 . S
Cd99 O98 2.223 . S
Cd99 O102 2.297 . S
Cd99 O103 2.439 . S
Cd99 O109 2.240 . S
Cd100 O101 2.240 . S
Cd100 O108 2.223 . S
Cd100 O110 2.297 . S
Cd100 O111 2.439 . S
O101 Cd100 2.240 . S
O101 C106 1.279 . S
O102 Cd99 2.297 . S
O102 C104 1.247 . S
O103 Cd99 2.439 . S
O103 C104 1.208 . S
C104 O102 1.247 . S
C104 O103 1.208 . S
C105 O110 1.247 . S
C105 O111 1.208 . S
C106 O98 1.315 . S
C106 O101 1.279 . S
C107 O108 1.315 . S
C107 O109 1.279 . S
O108 Cd100 2.223 . S
O108 C107 1.315 . S
O109 Cd99 2.240 . S
O109 C107 1.279 . S
O110 Cd100 2.297 . S
O110 C105 1.247 . S
O111 Cd100 2.439 . S
O111 C105 1.208 . S
O112 Cd113 2.223 . S
O112 C120 1.315 . S
Cd113 O112 2.223 . S
Cd113 O116 2.297 . S
Cd113 O117 2.439 . S
Cd113 O123 2.240 . S
Cd114 O115 2.240 . S
Cd114 O122 2.223 . S
Cd114 O124 2.297 . S
Cd114 O125 2.439 . S
O115 Cd114 2.240 . S
O115 C120 1.279 . S
O116 Cd113 2.297 . S
O116 C118 1.247 . S
O117 Cd113 2.439 . S
O117 C118 1.208 . S
C118 O116 1.247 . S
C118 O117 1.208 . S
C119 O124 1.247 . S
C119 O125 1.208 . S
C120 O112 1.315 . S
C120 O115 1.279 . S
C121 O122 1.315 . S
C121 O123 1.279 . S
O122 Cd114 2.223 . S
O122 C121 1.315 . S
O123 Cd113 2.240 . S
O123 C121 1.279 . S
O124 Cd114 2.297 . S
O124 C119 1.247 . S
O125 Cd114 2.439 . S
O125 C119 1.208 . S
O126 Cd127 2.223 . S
O126 C134 1.315 . S
Cd127 O126 2.223 . S
Cd127 O130 2.297 . S
Cd127 O131 2.439 . S
Cd127 O137 2.240 1_556 S
Cd128 O129 2.240 . S
Cd128 O136 2.223 . S
Cd128 O138 2.297 . S
Cd128 O139 2.439 . S
O129 Cd128 2.240 . S
O129 C134 1.279 . S
O130 Cd127 2.297 . S
O130 C132 1.247 . S
O131 Cd127 2.439 . S
O131 C132 1.208 . S
C132 O130 1.247 . S
C132 O131 1.208 . S
C133 O138 1.247 . S
C133 O139 1.208 . S
C134 O126 1.315 . S
C134 O129 1.279 . S
C135 O136 1.315 1_554 S
C135 O137 1.279 . S
O136 Cd128 2.223 . S
O136 C135 1.315 1_556 S
O137 Cd127 2.240 1_554 S
O137 C135 1.279 . S
O138 Cd128 2.297 . S
O138 C133 1.247 . S
O139 Cd128 2.439 . S
O139 C133 1.208 . S
O140 Cd141 2.223 . S
O140 C148 1.315 1_554 S
Cd141 O140 2.223 . S
Cd141 O144 2.297 . S
Cd141 O145 2.439 . S
Cd141 O151 2.240 . S
Cd142 O143 2.240 1_554 S
Cd142 O150 2.223 . S
Cd142 O152 2.297 . S
Cd142 O153 2.439 . S
O143 Cd142 2.240 1_556 S
O143 C148 1.279 . S
O144 Cd141 2.297 . S
O144 C146 1.247 . S
O145 Cd141 2.439 . S
O145 C146 1.208 . S
C146 O144 1.247 . S
C146 O145 1.208 . S
C147 O152 1.247 . S
C147 O153 1.208 . S
C148 O140 1.315 1_556 S
C148 O143 1.279 . S
C149 O150 1.315 . S
C149 O151 1.279 . S
O150 Cd142 2.223 . S
O150 C149 1.315 . S
O151 Cd141 2.240 . S
O151 C149 1.279 . S
O152 Cd142 2.297 . S
O152 C147 1.247 . S
O153 Cd142 2.439 . S
O153 C147 1.208 . S
O154 Cd155 2.223 . S
O154 C162 1.315 . S
Cd155 O154 2.223 . S
Cd155 O158 2.297 . S
Cd155 O159 2.439 . S
Cd155 O165 2.240 . S
Cd156 O157 2.240 . S
Cd156 O164 2.223 . S
Cd156 O166 2.297 . S
Cd156 O167 2.439 . S
O157 Cd156 2.240 . S
O157 C162 1.279 . S
O158 Cd155 2.297 . S
O158 C160 1.247 . S
O159 Cd155 2.439 . S
O159 C160 1.208 . S
C160 O158 1.247 . S
C160 O159 1.208 . S
C161 O166 1.247 . S
C161 O167 1.208 . S
C162 O154 1.315 . S
C162 O157 1.279 . S
C163 O164 1.315 . S
C163 O165 1.279 . S
O164 Cd156 2.223 . S
O164 C163 1.315 . S
O165 Cd155 2.240 . S
O165 C163 1.279 . S
O166 Cd156 2.297 . S
O166 C161 1.247 . S
O167 Cd156 2.439 . S
O167 C161 1.208 . S
C168 C169 1.369 . S
C168 C170 1.419 . S
C168 H172 0.930 . S
C169 C168 1.369 . S
C169 C178 1.429 . S
C170 C168 1.419 . S
C170 C171 1.363 . S
C170 H173 0.929 . S
C171 C170 1.363 . S
C171 C177 1.428 . S
H172 C168 0.930 . S
H173 C170 0.929 . S
S174 N175 1.613 . S
S174 N176 1.610 . S
N175 S174 1.613 . S
N175 C178 1.350 . S
N176 S174 1.610 . S
N176 C177 1.351 . S
C177 C171 1.428 . S
C177 N176 1.351 . S
C177 C178 1.434 . S
C178 C169 1.429 . S
C178 N175 1.350 . S
C178 C177 1.434 . S
C179 C180 1.369 1_655 S
C179 C181 1.419 . S
C179 H183 0.930 . S
C180 C179 1.369 1_455 S
C180 C189 1.429 . S
C181 C179 1.419 . S
C181 C182 1.363 . S
C181 H184 0.929 . S
C182 C181 1.363 . S
C182 C188 1.428 1_655 S
H183 C179 0.930 . S
H184 C181 0.929 . S
S185 N186 1.613 . S
S185 N187 1.610 . S
N186 S185 1.613 . S
N186 C189 1.350 . S
N187 S185 1.610 . S
N187 C188 1.351 . S
C188 C182 1.428 1_455 S
C188 N187 1.351 . S
C188 C189 1.434 . S
C189 C180 1.429 . S
C189 N186 1.350 . S
C189 C188 1.434 . S
C190 C191 1.369 . S
C190 C192 1.419 . S
C190 H194 0.930 . S
C191 C190 1.369 . S
C191 C200 1.429 1_565 S
C192 C190 1.419 . S
C192 C193 1.363 1_565 S
C192 H195 0.929 . S
C193 C192 1.363 1_545 S
C193 C199 1.428 . S
H194 C190 0.930 . S
H195 C192 0.929 . S
S196 N197 1.613 . S
S196 N198 1.610 . S
N197 S196 1.613 . S
N197 C200 1.350 . S
N198 S196 1.610 . S
N198 C199 1.351 . S
C199 C193 1.428 . S
C199 N198 1.351 . S
C199 C200 1.434 . S
C200 C191 1.429 1_545 S
C200 N197 1.350 . S
C200 C199 1.434 . S
C201 C202 1.369 . S
C201 C203 1.419 . S
C201 H205 0.930 . S
C202 C201 1.369 . S
C202 C211 1.429 . S
C203 C201 1.419 . S
C203 C204 1.363 . S
C203 H206 0.929 . S
C204 C203 1.363 . S
C204 C210 1.428 . S
H205 C201 0.930 . S
H206 C203 0.929 . S
S207 N208 1.613 . S
S207 N209 1.610 . S
N208 S207 1.613 . S
N208 C211 1.350 . S
N209 S207 1.610 . S
N209 C210 1.351 . S
C210 C204 1.428 . S
C210 N209 1.351 . S
C210 C211 1.434 . S
C211 C202 1.429 . S
C211 N208 1.350 . S
C211 C210 1.434 . S
C212 C213 1.369 . S
C212 C214 1.419 1_455 S
C212 H216 0.930 . S
C213 C212 1.369 . S
C213 C222 1.429 . S
C214 C212 1.419 1_655 S
C214 C215 1.363 . S
C214 H217 0.929 . S
C215 C214 1.363 . S
C215 C221 1.428 . S
H216 C212 0.930 . S
H217 C214 0.929 . S
S218 N219 1.613 1_655 S
S218 N220 1.610 . S
N219 S218 1.613 1_455 S
N219 C222 1.350 . S
N220 S218 1.610 . S
N220 C221 1.351 . S
C221 C215 1.428 . S
C221 N220 1.351 . S
C221 C222 1.434 1_655 S
C222 C213 1.429 . S
C222 N219 1.350 . S
C222 C221 1.434 1_455 S
C223 C224 1.369 1_565 S
C223 C225 1.419 1_556 S
C223 H227 0.930 . S
C224 C223 1.369 1_545 S
C224 C233 1.429 1_556 S
C225 C223 1.419 1_554 S
C225 C226 1.363 . S
C225 H228 0.929 . S
C226 C225 1.363 . S
C226 C232 1.428 1_565 S
H227 C223 0.930 . S
H228 C225 0.929 . S
S229 N230 1.613 . S
S229 N231 1.610 . S
N230 S229 1.613 . S
N230 C233 1.350 . S
N231 S229 1.610 . S
N231 C232 1.351 . S
C232 C226 1.428 1_545 S
C232 N231 1.351 . S
C232 C233 1.434 . S
C233 C224 1.429 1_554 S
C233 N230 1.350 . S
C233 C232 1.434 . S
C234 C235 1.369 . S
C234 C236 1.419 . S
C234 H238 0.930 . S
C235 C234 1.369 . S
C235 C244 1.429 . S
C236 C234 1.419 . S
C236 C237 1.363 . S
C236 H239 0.929 . S
C237 C236 1.363 . S
C237 C243 1.428 . S
H238 C234 0.930 . S
H239 C236 0.929 . S
S240 N241 1.613 . S
S240 N242 1.610 . S
N241 S240 1.613 . S
N241 C244 1.350 . S
N242 S240 1.610 . S
N242 C243 1.351 . S
C243 C237 1.428 . S
C243 N242 1.351 . S
C243 C244 1.434 . S
C244 C235 1.429 . S
C244 N241 1.350 . S
C244 C243 1.434 . S
C245 C246 1.369 . S
C245 C247 1.419 . S
C245 H249 0.930 . S
C246 C245 1.369 . S
C246 C255 1.429 . S
C247 C245 1.419 . S
C247 C248 1.363 . S
C247 H250 0.929 . S
C248 C247 1.363 . S
C248 C254 1.428 . S
H249 C245 0.930 . S
H250 C247 0.929 . S
S251 N252 1.613 . S
S251 N253 1.610 . S
N252 S251 1.613 . S
N252 C255 1.350 . S
N253 S251 1.610 . S
N253 C254 1.351 . S
C254 C248 1.428 . S
C254 N253 1.351 . S
C254 C255 1.434 . S
C255 C246 1.429 . S
C255 N252 1.350 . S
C255 C254 1.434 . S
C256 C257 1.369 . S
C256 C258 1.419 . S
C256 H260 0.930 . S
C257 C256 1.369 . S
C257 C266 1.429 . S
C258 C256 1.419 . S
C258 C259 1.363 . S
C258 H261 0.929 . S
C259 C258 1.363 . S
C259 C265 1.428 . S
H260 C256 0.930 . S
H261 C258 0.929 . S
S262 N263 1.613 . S
S262 N264 1.610 . S
N263 S262 1.613 . S
N263 C266 1.350 . S
N264 S262 1.610 . S
N264 C265 1.351 . S
C265 C259 1.428 . S
C265 N264 1.351 . S
C265 C266 1.434 . S
C266 C257 1.429 . S
C266 N263 1.350 . S
C266 C265 1.434 . S
C267 C268 1.369 . S
C267 C269 1.419 1_556 S
C267 H271 0.930 1_556 S
C268 C267 1.369 . S
C268 C277 1.429 . S
C269 C267 1.419 1_554 S
C269 C270 1.363 1_554 S
C269 H272 0.929 . S
C270 C269 1.363 1_556 S
C270 C276 1.428 . S
H271 C267 0.930 1_554 S
H272 C269 0.929 . S
S273 N274 1.613 . S
S273 N275 1.610 . S
N274 S273 1.613 . S
N274 C277 1.350 . S
N275 S273 1.610 . S
N275 C276 1.351 . S
C276 C270 1.428 . S
C276 N275 1.351 . S
C276 C277 1.434 . S
C277 C268 1.429 . S
C277 N274 1.350 . S
C277 C276 1.434 . S
C278 C279 1.369 . S
C278 C280 1.419 . S
C278 H282 0.930 . S
C279 C278 1.369 . S
C279 C288 1.429 . S
C280 C278 1.419 . S
C280 C281 1.363 . S
C280 H283 0.929 . S
C281 C280 1.363 . S
C281 C287 1.428 . S
H282 C278 0.930 . S
H283 C280 0.929 . S
S284 N285 1.613 . S
S284 N286 1.610 . S
N285 S284 1.613 . S
N285 C288 1.350 . S
N286 S284 1.610 . S
N286 C287 1.351 . S
C287 C281 1.428 . S
C287 N286 1.351 . S
C287 C288 1.434 . S
C288 C279 1.429 . S
C288 N285 1.350 . S
C288 C287 1.434 . S
C289 C290 1.369 . S
C289 C291 1.419 . S
C289 H293 0.930 . S
C290 C289 1.369 . S
C290 C299 1.429 . S
C291 C289 1.419 . S
C291 C292 1.363 . S
C291 H294 0.929 . S
C292 C291 1.363 . S
C292 C298 1.428 . S
H293 C289 0.930 . S
H294 C291 0.929 . S
S295 N296 1.613 . S
S295 N297 1.610 . S
N296 S295 1.613 . S
N296 C299 1.350 . S
N297 S295 1.610 . S
N297 C298 1.351 . S
C298 C292 1.428 . S
C298 N297 1.351 . S
C298 C299 1.434 . S
C299 C290 1.429 . S
C299 N296 1.350 . S
C299 C298 1.434 . S
C300 C301 1.369 . S
C300 C302 1.419 . S
C300 H304 0.930 . S
C301 C300 1.369 . S
C301 C310 1.429 . S
C302 C300 1.419 . S
C302 C303 1.363 . S
C302 H305 0.929 . S
C303 C302 1.363 . S
C303 C309 1.428 . S
H304 C300 0.930 . S
H305 C302 0.929 . S
S306 N307 1.613 . S
S306 N308 1.610 . S
N307 S306 1.613 . S
N307 C310 1.350 . S
N308 S306 1.610 . S
N308 C309 1.351 . S
C309 C303 1.428 . S
C309 N308 1.351 . S
C309 C310 1.434 . S
C310 C301 1.429 . S
C310 N307 1.350 . S
C310 C309 1.434 . S
C311 C312 1.369 . S
C311 C313 1.419 . S
C311 H315 0.930 . S
C312 C311 1.369 . S
C312 C321 1.429 1_655 S
C313 C311 1.419 . S
C313 C314 1.363 1_655 S
C313 H316 0.929 . S
C314 C313 1.363 1_455 S
C314 C320 1.428 . S
H315 C311 0.930 . S
H316 C313 0.929 . S
S317 N318 1.615 . S
S317 N319 1.610 . S
N318 S317 1.615 . S
N318 C321 1.355 . S
N319 S317 1.610 . S
N319 C320 1.351 . S
C320 C314 1.428 . S
C320 N319 1.351 . S
C320 C321 1.434 . S
C321 C312 1.429 1_455 S
C321 N318 1.355 . S
C321 C320 1.434 . S
C322 C323 1.369 . S
C322 C324 1.419 1_554 S
C322 H326 0.930 1_554 S
C323 C322 1.369 . S
C323 C332 1.429 1_565 S
C324 C322 1.419 1_556 S
C324 C325 1.363 1_565 S
C324 H327 0.929 . S
C325 C324 1.363 1_545 S
C325 C331 1.428 1_556 S
H326 C322 0.930 1_556 S
H327 C324 0.929 . S
S328 N329 1.613 . S
S328 N330 1.610 . S
N329 S328 1.613 . S
N329 C332 1.350 . S
N330 S328 1.610 . S
N330 C331 1.351 . S
C331 C325 1.428 1_554 S
C331 N330 1.351 . S
C331 C332 1.434 . S
C332 C323 1.429 1_545 S
C332 N329 1.350 . S
C332 C331 1.434 . S
C333 C334 1.369 . S
C333 C335 1.419 . S
C333 H337 0.930 . S
C334 C333 1.369 . S
C334 C343 1.429 . S
C335 C333 1.419 . S
C335 C336 1.363 . S
C335 H338 0.929 . S
C336 C335 1.363 . S
C336 C342 1.428 . S
H337 C333 0.930 . S
H338 C335 0.929 . S
S339 N340 1.613 . S
S339 N341 1.610 . S
N340 S339 1.613 . S
N340 C343 1.350 . S
N341 S339 1.610 . S
N341 C342 1.351 . S
C342 C336 1.428 . S
C342 N341 1.351 . S
C342 C343 1.434 . S
C343 C334 1.429 . S
C343 N340 1.350 . S
C343 C342 1.434 . S
C344 C345 1.369 1_655 S
C344 C346 1.419 . S
C344 H348 0.930 . S
C345 C344 1.369 1_455 S
C345 C354 1.429 . S
C346 C344 1.419 . S
C346 C347 1.363 . S
C346 H349 0.929 . S
C347 C346 1.363 . S
C347 C353 1.428 1_655 S
H348 C344 0.930 . S
H349 C346 0.929 . S
S350 N351 1.613 . S
S350 N352 1.610 . S
N351 S350 1.613 . S
N351 C354 1.350 . S
N352 S350 1.610 . S
N352 C353 1.351 . S
C353 C347 1.428 1_455 S
C353 N352 1.351 . S
C353 C354 1.434 . S
C354 C345 1.429 . S
C354 N351 1.350 . S
C354 C353 1.434 . S
C355 C356 1.369 . S
C355 C357 1.419 . S
C355 H359 0.930 . S
C356 C355 1.369 . S
C356 C365 1.429 1_565 S
C357 C355 1.419 . S
C357 C358 1.363 1_565 S
C357 H360 0.929 . S
C358 C357 1.363 1_545 S
C358 C364 1.428 . S
H359 C355 0.930 . S
H360 C357 0.929 . S
S361 N362 1.613 . S
S361 N363 1.610 . S
N362 S361 1.613 . S
N362 C365 1.350 . S
N363 S361 1.610 . S
N363 C364 1.351 . S
C364 C358 1.428 . S
C364 N363 1.351 . S
C364 C365 1.434 . S
C365 C356 1.429 1_545 S
C365 N362 1.350 . S
C365 C364 1.434 . S
C366 C367 1.369 . S
C366 C368 1.419 . S
C366 H370 0.930 . S
C367 C366 1.369 . S
C367 C376 1.429 . S
C368 C366 1.419 . S
C368 C369 1.363 . S
C368 H371 0.929 . S
C369 C368 1.363 . S
C369 C375 1.428 . S
H370 C366 0.930 . S
H371 C368 0.929 . S
S372 N373 1.613 . S
S372 N374 1.610 . S
N373 S372 1.613 . S
N373 C376 1.350 . S
N374 S372 1.610 . S
N374 C375 1.351 . S
C375 C369 1.428 . S
C375 N374 1.351 . S
C375 C376 1.434 . S
C376 C367 1.429 . S
C376 N373 1.350 . S
C376 C375 1.434 . S
C377 C378 1.369 . S
C377 C379 1.419 . S
C377 H381 0.930 . S
C378 C377 1.369 . S
C378 C387 1.429 . S
C379 C377 1.419 . S
C379 C380 1.363 . S
C379 H382 0.929 . S
C380 C379 1.363 . S
C380 C386 1.428 . S
H381 C377 0.930 . S
H382 C379 0.929 . S
S383 N384 1.613 . S
S383 N385 1.610 . S
N384 S383 1.613 . S
N384 C387 1.350 . S
N385 S383 1.610 . S
N385 C386 1.351 . S
C386 C380 1.428 . S
C386 N385 1.351 . S
C386 C387 1.434 . S
C387 C378 1.429 . S
C387 N384 1.350 . S
C387 C386 1.434 . S
C388 C389 1.369 1_554 S
C388 C390 1.419 1_554 S
C388 H392 0.930 . S
C389 C388 1.369 1_556 S
C389 C398 1.429 . S
C390 C388 1.419 1_556 S
C390 C391 1.363 . S
C390 H393 0.929 1_556 S
C391 C390 1.363 . S
C391 C397 1.428 . S
H392 C388 0.930 . S
H393 C390 0.929 1_554 S
S394 N395 1.613 . S
S394 N396 1.610 . S
N395 S394 1.613 . S
N395 C398 1.350 . S
N396 S394 1.610 . S
N396 C397 1.351 . S
C397 C391 1.428 . S
C397 N396 1.351 . S
C397 C398 1.434 . S
C398 C389 1.429 . S
C398 N395 1.350 . S
C398 C397 1.434 . S
C399 C400 1.369 . S
C399 C401 1.419 . S
C399 H403 0.930 . S
C400 C399 1.369 . S
C400 C409 1.429 . S
C401 C399 1.419 . S
C401 C402 1.363 . S
C401 H404 0.929 . S
C402 C401 1.363 . S
C402 C408 1.428 . S
H403 C399 0.930 . S
H404 C401 0.929 . S
S405 N406 1.613 . S
S405 N407 1.610 . S
N406 S405 1.613 . S
N406 C409 1.350 . S
N407 S405 1.610 . S
N407 C408 1.351 . S
C408 C402 1.428 . S
C408 N407 1.351 . S
C408 C409 1.434 . S
C409 C400 1.429 . S
C409 N406 1.350 . S
C409 C408 1.434 . S
C410 C411 1.369 . S
C410 C412 1.419 . S
C410 H414 0.930 . S
C411 C410 1.369 . S
C411 C420 1.429 . S
C412 C410 1.419 . S
C412 C413 1.363 . S
C412 H415 0.929 . S
C413 C412 1.363 . S
C413 C419 1.428 . S
H414 C410 0.930 . S
H415 C412 0.929 . S
S416 N417 1.613 . S
S416 N418 1.610 . S
N417 S416 1.613 . S
N417 C420 1.350 . S
N418 S416 1.610 . S
N418 C419 1.351 . S
C419 C413 1.428 . S
C419 N418 1.351 . S
C419 C420 1.434 . S
C420 C411 1.429 . S
C420 N417 1.350 . S
C420 C419 1.434 . S
C421 C422 1.369 . S
C421 C423 1.419 . S
C421 H425 0.930 . S
C422 C421 1.369 . S
C422 C431 1.429 . S
C423 C421 1.419 . S
C423 C424 1.363 . S
C423 H426 0.929 . S
C424 C423 1.363 . S
C424 C430 1.428 . S
H425 C421 0.930 . S
H426 C423 0.929 . S
S427 N428 1.613 . S
S427 N429 1.610 . S
N428 S427 1.613 . S
N428 C431 1.350 . S
N429 S427 1.610 . S
N429 C430 1.351 . S
C430 C424 1.428 . S
C430 N429 1.351 . S
C430 C431 1.434 . S
C431 C422 1.429 . S
C431 N428 1.350 . S
C431 C430 1.434 . S
C169 C135 1.571 . S
C171 C9 1.570 . S
C180 C23 1.570 . S
C182 C149 1.570 . S
C191 C163 1.570 . S
C193 C37 1.571 . S
C202 C93 1.571 . S
C204 C51 1.572 . S
C213 C107 1.567 . S
C215 C65 1.569 . S
C224 C121 1.573 . S
C226 C79 1.572 . S
C235 C91 1.697 . S
C237 C7 1.704 . S
C246 C21 1.697 . S
C248 C105 1.704 . S
C257 C119 1.695 . S
C259 C35 1.704 . S
C268 C49 1.706 . S
C270 C133 1.698 . S
C279 C147 1.696 . S
C281 C63 1.696 . S
C290 C77 1.703 . S
C292 C161 1.695 . S
C301 C134 1.639 . S
C303 C8 1.640 . S
C312 C148 1.640 . S
C314 C22 1.637 . S
C323 C162 1.640 . S
C325 C36 1.637 . S
C334 C50 1.639 . S
C336 C92 1.637 . S
C345 C106 1.637 . S
C347 C64 1.640 . S
C356 C78 1.638 . S
C358 C120 1.637 . S
C367 C6 1.252 . S
C369 C118 1.253 . S
C378 C132 1.253 . S
C380 C20 1.255 . S
C389 C146 1.257 1_556 S
C391 C34 1.255 . S
C400 C160 1.253 . S
C402 C48 1.252 . S
C411 C90 1.255 . S
C413 C62 1.254 . S
C422 C104 1.253 . S
C424 C76 1.253 . S
