# Generated by pormake.
# Topology mer, (4)-cn, num edge types: 1
# Building blocks:
#     Node 0, Type 0, BuildingBlock: QUQFOY_clean_sbu_1, # of connection points: 4
#     Node 1, Type 0, BuildingBlock: QUQFOY_clean_sbu_1, # of connection points: 4
#     Node 2, Type 0, BuildingBlock: QUQFOY_clean_sbu_1, # of connection points: 4
#     Node 3, Type 0, BuildingBlock: QUQFOY_clean_sbu_1, # of connection points: 4
#     Node 4, Type 0, BuildingBlock: QUQFOY_clean_sbu_1, # of connection points: 4
#     Node 5, Type 0, BuildingBlock: QUQFOY_clean_sbu_1, # of connection points: 4
#     Node 6, Type 0, BuildingBlock: QUQFOY_clean_sbu_1, # of connection points: 4
#     Node 7, Type 0, BuildingBlock: QUQFOY_clean_sbu_1, # of connection points: 4
#     Node 8, Type 0, BuildingBlock: QUQFOY_clean_sbu_1, # of connection points: 4
#     Node 9, Type 0, BuildingBlock: QUQFOY_clean_sbu_1, # of connection points: 4
#     Node 10, Type 0, BuildingBlock: QUQFOY_clean_sbu_1, # of connection points: 4
#     Node 11, Type 0, BuildingBlock: QUQFOY_clean_sbu_1, # of connection points: 4
#     Node 12, Type 0, BuildingBlock: QUQFOY_clean_sbu_1, # of connection points: 4
#     Node 13, Type 0, BuildingBlock: QUQFOY_clean_sbu_1, # of connection points: 4
#     Node 14, Type 0, BuildingBlock: QUQFOY_clean_sbu_1, # of connection points: 4
#     Node 15, Type 0, BuildingBlock: QUQFOY_clean_sbu_1, # of connection points: 4
#     Node 16, Type 0, BuildingBlock: QUQFOY_clean_sbu_1, # of connection points: 4
#     Node 17, Type 0, BuildingBlock: QUQFOY_clean_sbu_1, # of connection points: 4
#     Node 18, Type 0, BuildingBlock: QUQFOY_clean_sbu_1, # of connection points: 4
#     Node 19, Type 0, BuildingBlock: QUQFOY_clean_sbu_1, # of connection points: 4
#     Node 20, Type 0, BuildingBlock: QUQFOY_clean_sbu_1, # of connection points: 4
#     Node 21, Type 0, BuildingBlock: QUQFOY_clean_sbu_1, # of connection points: 4
#     Node 22, Type 0, BuildingBlock: QUQFOY_clean_sbu_1, # of connection points: 4
#     Node 23, Type 0, BuildingBlock: QUQFOY_clean_sbu_1, # of connection points: 4
#     Node 24, Type 0, BuildingBlock: QUQFOY_clean_sbu_1, # of connection points: 4
#     Node 25, Type 0, BuildingBlock: QUQFOY_clean_sbu_1, # of connection points: 4
#     Node 26, Type 0, BuildingBlock: QUQFOY_clean_sbu_1, # of connection points: 4
#     Node 27, Type 0, BuildingBlock: QUQFOY_clean_sbu_1, # of connection points: 4
#     Node 28, Type 0, BuildingBlock: QUQFOY_clean_sbu_1, # of connection points: 4
#     Node 29, Type 0, BuildingBlock: QUQFOY_clean_sbu_1, # of connection points: 4
#     Node 30, Type 0, BuildingBlock: QUQFOY_clean_sbu_1, # of connection points: 4
#     Node 31, Type 0, BuildingBlock: QUQFOY_clean_sbu_1, # of connection points: 4
#     Edge 32, Type (0, 0), BuildingBlock: KIFKEQ_clean_linker_1, # of connection points: 2
#     Edge 33, Type (0, 0), BuildingBlock: KIFKEQ_clean_linker_1, # of connection points: 2
#     Edge 34, Type (0, 0), BuildingBlock: KIFKEQ_clean_linker_1, # of connection points: 2
#     Edge 35, Type (0, 0), BuildingBlock: KIFKEQ_clean_linker_1, # of connection points: 2
#     Edge 36, Type (0, 0), BuildingBlock: KIFKEQ_clean_linker_1, # of connection points: 2
#     Edge 37, Type (0, 0), BuildingBlock: KIFKEQ_clean_linker_1, # of connection points: 2
#     Edge 38, Type (0, 0), BuildingBlock: KIFKEQ_clean_linker_1, # of connection points: 2
#     Edge 39, Type (0, 0), BuildingBlock: KIFKEQ_clean_linker_1, # of connection points: 2
#     Edge 40, Type (0, 0), BuildingBlock: KIFKEQ_clean_linker_1, # of connection points: 2
#     Edge 41, Type (0, 0), BuildingBlock: KIFKEQ_clean_linker_1, # of connection points: 2
#     Edge 42, Type (0, 0), BuildingBlock: KIFKEQ_clean_linker_1, # of connection points: 2
#     Edge 43, Type (0, 0), BuildingBlock: KIFKEQ_clean_linker_1, # of connection points: 2
#     Edge 44, Type (0, 0), BuildingBlock: KIFKEQ_clean_linker_1, # of connection points: 2
#     Edge 45, Type (0, 0), BuildingBlock: KIFKEQ_clean_linker_1, # of connection points: 2
#     Edge 46, Type (0, 0), BuildingBlock: KIFKEQ_clean_linker_1, # of connection points: 2
#     Edge 47, Type (0, 0), BuildingBlock: KIFKEQ_clean_linker_1, # of connection points: 2
#     Edge 48, Type (0, 0), BuildingBlock: KIFKEQ_clean_linker_1, # of connection points: 2
#     Edge 49, Type (0, 0), BuildingBlock: KIFKEQ_clean_linker_1, # of connection points: 2
#     Edge 50, Type (0, 0), BuildingBlock: KIFKEQ_clean_linker_1, # of connection points: 2
#     Edge 51, Type (0, 0), BuildingBlock: KIFKEQ_clean_linker_1, # of connection points: 2
#     Edge 52, Type (0, 0), BuildingBlock: KIFKEQ_clean_linker_1, # of connection points: 2
#     Edge 53, Type (0, 0), BuildingBlock: KIFKEQ_clean_linker_1, # of connection points: 2
#     Edge 54, Type (0, 0), BuildingBlock: KIFKEQ_clean_linker_1, # of connection points: 2
#     Edge 55, Type (0, 0), BuildingBlock: KIFKEQ_clean_linker_1, # of connection points: 2
#     Edge 56, Type (0, 0), BuildingBlock: KIFKEQ_clean_linker_1, # of connection points: 2
#     Edge 57, Type (0, 0), BuildingBlock: KIFKEQ_clean_linker_1, # of connection points: 2
#     Edge 58, Type (0, 0), BuildingBlock: KIFKEQ_clean_linker_1, # of connection points: 2
#     Edge 59, Type (0, 0), BuildingBlock: KIFKEQ_clean_linker_1, # of connection points: 2
#     Edge 60, Type (0, 0), BuildingBlock: KIFKEQ_clean_linker_1, # of connection points: 2
#     Edge 61, Type (0, 0), BuildingBlock: KIFKEQ_clean_linker_1, # of connection points: 2
#     Edge 62, Type (0, 0), BuildingBlock: KIFKEQ_clean_linker_1, # of connection points: 2
#     Edge 63, Type (0, 0), BuildingBlock: KIFKEQ_clean_linker_1, # of connection points: 2
#     Edge 64, Type (0, 0), BuildingBlock: KIFKEQ_clean_linker_1, # of connection points: 2
#     Edge 65, Type (0, 0), BuildingBlock: KIFKEQ_clean_linker_1, # of connection points: 2
#     Edge 66, Type (0, 0), BuildingBlock: KIFKEQ_clean_linker_1, # of connection points: 2
#     Edge 67, Type (0, 0), BuildingBlock: KIFKEQ_clean_linker_1, # of connection points: 2
#     Edge 68, Type (0, 0), BuildingBlock: KIFKEQ_clean_linker_1, # of connection points: 2
#     Edge 69, Type (0, 0), BuildingBlock: KIFKEQ_clean_linker_1, # of connection points: 2
#     Edge 70, Type (0, 0), BuildingBlock: KIFKEQ_clean_linker_1, # of connection points: 2
#     Edge 71, Type (0, 0), BuildingBlock: KIFKEQ_clean_linker_1, # of connection points: 2
#     Edge 72, Type (0, 0), BuildingBlock: KIFKEQ_clean_linker_1, # of connection points: 2
#     Edge 73, Type (0, 0), BuildingBlock: KIFKEQ_clean_linker_1, # of connection points: 2
#     Edge 74, Type (0, 0), BuildingBlock: KIFKEQ_clean_linker_1, # of connection points: 2
#     Edge 75, Type (0, 0), BuildingBlock: KIFKEQ_clean_linker_1, # of connection points: 2
#     Edge 76, Type (0, 0), BuildingBlock: KIFKEQ_clean_linker_1, # of connection points: 2
#     Edge 77, Type (0, 0), BuildingBlock: KIFKEQ_clean_linker_1, # of connection points: 2
#     Edge 78, Type (0, 0), BuildingBlock: KIFKEQ_clean_linker_1, # of connection points: 2
#     Edge 79, Type (0, 0), BuildingBlock: KIFKEQ_clean_linker_1, # of connection points: 2
#     Edge 80, Type (0, 0), BuildingBlock: KIFKEQ_clean_linker_1, # of connection points: 2
#     Edge 81, Type (0, 0), BuildingBlock: KIFKEQ_clean_linker_1, # of connection points: 2
#     Edge 82, Type (0, 0), BuildingBlock: KIFKEQ_clean_linker_1, # of connection points: 2
#     Edge 83, Type (0, 0), BuildingBlock: KIFKEQ_clean_linker_1, # of connection points: 2
#     Edge 84, Type (0, 0), BuildingBlock: KIFKEQ_clean_linker_1, # of connection points: 2
#     Edge 85, Type (0, 0), BuildingBlock: KIFKEQ_clean_linker_1, # of connection points: 2
#     Edge 86, Type (0, 0), BuildingBlock: KIFKEQ_clean_linker_1, # of connection points: 2
#     Edge 87, Type (0, 0), BuildingBlock: KIFKEQ_clean_linker_1, # of connection points: 2
#     Edge 88, Type (0, 0), BuildingBlock: KIFKEQ_clean_linker_1, # of connection points: 2
#     Edge 89, Type (0, 0), BuildingBlock: KIFKEQ_clean_linker_1, # of connection points: 2
#     Edge 90, Type (0, 0), BuildingBlock: KIFKEQ_clean_linker_1, # of connection points: 2
#     Edge 91, Type (0, 0), BuildingBlock: KIFKEQ_clean_linker_1, # of connection points: 2
#     Edge 92, Type (0, 0), BuildingBlock: KIFKEQ_clean_linker_1, # of connection points: 2
#     Edge 93, Type (0, 0), BuildingBlock: KIFKEQ_clean_linker_1, # of connection points: 2
#     Edge 94, Type (0, 0), BuildingBlock: KIFKEQ_clean_linker_1, # of connection points: 2
#     Edge 95, Type (0, 0), BuildingBlock: KIFKEQ_clean_linker_1, # of connection points: 2
# Relax obj value: 0.010
# Max RMSD: 0.057
# Mean RMSD: 0.057
data_MOF--net-mer--node1-QUQFOY_clean_sbu_1--edge1-KIFKEQ_clean_linker_1
_symmetry_space_group_name_H-M    P1
_symmetry_Int_Tables_number       1
_symmetry_cell_setting            triclinic
loop_
_symmetry_equiv_pos_as_xyz
'x, y, z'
_cell_length_a     68.717581
_cell_length_b     68.717014
_cell_length_c     55.185893
_cell_angle_alpha  89.989825
_cell_angle_beta   90.016655
_cell_angle_gamma 89.996342
loop_
_atom_site_label
_atom_site_type_symbol
_atom_site_fract_x
_atom_site_fract_y
_atom_site_fract_z
_atom_type_partial_charge
O0 O 0.15634 0.27364 0.36894 0.0
Cd1 Cd 0.13869 0.2978 0.3722 0.0
Cd2 Cd 0.1112 0.2704 0.37417 0.0
O3 O 0.13312 0.25245 0.36119 0.0
O4 O 0.15389 0.31972 0.35788 0.0
O5 O 0.12676 0.30834 0.34158 0.0
C6 C 0.14153 0.31995 0.34026 0.0
C7 C 0.07939 0.26882 0.35895 0.0
C8 C 0.15111 0.25657 0.36291 0.0
C9 C 0.12009 0.29309 0.41997 0.0
O10 O 0.11268 0.27796 0.4104 0.0
O11 O 0.12991 0.30488 0.40705 0.0
O12 O 0.08676 0.25482 0.37149 0.0
O13 O 0.0904 0.28353 0.35401 0.0
O14 O 0.74382 0.15678 0.36592 0.0
Cd15 Cd 0.71944 0.1396 0.37081 0.0
Cd16 Cd 0.74695 0.11167 0.37526 0.0
O17 O 0.76564 0.13332 0.3635 0.0
O18 O 0.69761 0.15493 0.35643 0.0
O19 O 0.70812 0.12719 0.34088 0.0
C20 C 0.69681 0.14218 0.33929 0.0
C21 C 0.74877 0.07989 0.36011 0.0
C22 C 0.76125 0.15127 0.36236 0.0
C23 C 0.72322 0.12171 0.41975 0.0
O24 O 0.73811 0.11335 0.41088 0.0
O25 O 0.71228 0.13204 0.40626 0.0
O26 O 0.76233 0.08708 0.37352 0.0
O27 O 0.73438 0.09107 0.35431 0.0
O28 O 0.8569 0.74343 0.36618 0.0
Cd29 Cd 0.87245 0.71813 0.37136 0.0
Cd30 Cd 0.90245 0.74427 0.37768 0.0
O31 O 0.88121 0.76437 0.36799 0.0
O32 O 0.85614 0.69734 0.35632 0.0
O33 O 0.88487 0.70602 0.34189 0.0
C34 C 0.86926 0.69565 0.33974 0.0
C35 C 0.93428 0.74689 0.3627 0.0
C36 C 0.86321 0.76079 0.36495 0.0
C37 C 0.89065 0.71908 0.42055 0.0
O38 O 0.90101 0.73288 0.41223 0.0
O39 O 0.87844 0.71037 0.40701 0.0
O40 O 0.92723 0.75944 0.37763 0.0
O41 O 0.92297 0.7331 0.35531 0.0
O42 O 0.26973 0.8576 0.36501 0.0
Cd43 Cd 0.29532 0.87278 0.36984 0.0
Cd44 Cd 0.26901 0.90298 0.37768 0.0
O45 O 0.24869 0.88171 0.3689 0.0
O46 O 0.31568 0.85626 0.35428 0.0
O47 O 0.30736 0.88525 0.34034 0.0
C48 C 0.3175 0.86952 0.33789 0.0
C49 C 0.26484 0.93524 0.36461 0.0
C50 C 0.2523 0.86382 0.36495 0.0
C51 C 0.29576 0.89066 0.41913 0.0
O52 O 0.28196 0.90125 0.41132 0.0
O53 O 0.30387 0.87824 0.40533 0.0
O54 O 0.25369 0.9275 0.3807 0.0
O55 O 0.27795 0.9243 0.35483 0.0
O56 O 0.15639 0.7408 0.65756 0.0
Cd57 Cd 0.14006 0.71582 0.65287 0.0
Cd58 Cd 0.11125 0.7431 0.64645 0.0
O59 O 0.13267 0.76247 0.65718 0.0
O60 O 0.15594 0.69479 0.66807 0.0
O61 O 0.12756 0.70436 0.68269 0.0
C62 C 0.14292 0.69363 0.68484 0.0
C63 C 0.07894 0.74692 0.6595 0.0
C64 C 0.15061 0.75831 0.6596 0.0
C65 C 0.12266 0.71759 0.60354 0.0
O66 O 0.11347 0.73222 0.61177 0.0
O67 O 0.13358 0.70764 0.61746 0.0
O68 O 0.08691 0.75883 0.64445 0.0
O69 O 0.08966 0.73315 0.66821 0.0
O70 O 0.27253 0.15559 0.65832 0.0
Cd71 Cd 0.2983 0.14088 0.65306 0.0
Cd72 Cd 0.27235 0.11011 0.64562 0.0
O73 O 0.25188 0.1311 0.655 0.0
O74 O 0.31852 0.15783 0.66825 0.0
O75 O 0.31085 0.12874 0.68247 0.0
C76 C 0.32068 0.14468 0.68472 0.0
C77 C 0.2684 0.07773 0.65843 0.0
C78 C 0.25523 0.14906 0.65883 0.0
C79 C 0.29839 0.1231 0.60371 0.0
O80 O 0.2849 0.11223 0.61177 0.0
O81 O 0.30649 0.13561 0.6174 0.0
O82 O 0.25712 0.08553 0.64252 0.0
O83 O 0.28157 0.08865 0.66813 0.0
O84 O 0.85734 0.27186 0.6576 0.0
Cd85 Cd 0.87259 0.29735 0.65253 0.0
Cd86 Cd 0.90278 0.27113 0.64488 0.0
O87 O 0.88147 0.25086 0.65373 0.0
O88 O 0.85624 0.31783 0.66806 0.0
O89 O 0.88526 0.30942 0.68186 0.0
C90 C 0.86959 0.31964 0.68434 0.0
C91 C 0.93488 0.26676 0.65845 0.0
C92 C 0.86359 0.25444 0.65775 0.0
C93 C 0.89056 0.29783 0.60332 0.0
O94 O 0.90124 0.28411 0.61119 0.0
O95 O 0.87802 0.30582 0.61705 0.0
O96 O 0.92725 0.25571 0.64219 0.0
O97 O 0.92394 0.27998 0.66803 0.0
O98 O 0.73936 0.85708 0.65557 0.0
Cd99 Cd 0.71456 0.87389 0.65272 0.0
Cd100 Cd 0.74173 0.90245 0.64901 0.0
O101 O 0.76054 0.88081 0.66081 0.0
O102 O 0.69345 0.85795 0.66763 0.0
O103 O 0.70391 0.88563 0.68343 0.0
C104 C 0.69286 0.87044 0.68506 0.0
C105 C 0.74537 0.93473 0.6623 0.0
C106 C 0.75659 0.86273 0.66017 0.0
C107 C 0.71712 0.89239 0.60465 0.0
O108 O 0.73208 0.9006 0.61359 0.0
O109 O 0.70629 0.88188 0.61799 0.0
O110 O 0.75775 0.92664 0.64797 0.0
O111 O 0.73121 0.92413 0.67025 0.0
O112 O 0.85616 0.74314 0.65705 0.0
Cd113 Cd 0.87305 0.71864 0.65158 0.0
Cd114 Cd 0.90133 0.74589 0.64678 0.0
O115 O 0.87987 0.76474 0.65869 0.0
O116 O 0.85784 0.69684 0.66619 0.0
O117 O 0.88593 0.70707 0.68106 0.0
C118 C 0.87091 0.69584 0.68295 0.0
C119 C 0.9332 0.74786 0.66172 0.0
C120 C 0.86189 0.76053 0.66036 0.0
C121 C 0.89057 0.72223 0.60239 0.0
O122 O 0.8994 0.73686 0.61124 0.0
O123 O 0.87999 0.71158 0.61592 0.0
O124 O 0.92593 0.76129 0.64817 0.0
O125 O 0.92209 0.73348 0.66771 0.0
O126 O 0.27321 0.85466 0.65241 0.0
Cd127 Cd 0.2977 0.87182 0.64892 0.0
Cd128 Cd 0.27071 0.90005 0.64552 0.0
O129 O 0.25215 0.87842 0.65796 0.0
O130 O 0.3193 0.85658 0.66389 0.0
O131 O 0.30828 0.88421 0.67924 0.0
C132 C 0.31972 0.86933 0.68106 0.0
C133 C 0.26842 0.93194 0.6604 0.0
C134 C 0.25606 0.86033 0.65736 0.0
C135 C 0.29438 0.89013 0.60066 0.0
O136 O 0.27945 0.89835 0.60969 0.0
O137 O 0.30537 0.87976 0.61398 0.0
O138 O 0.255 0.92446 0.64702 0.0
O139 O 0.28299 0.92103 0.66625 0.0
O140 O 0.1576 0.27033 0.65322 0.0
Cd141 Cd 0.14089 0.29506 0.64994 0.0
Cd142 Cd 0.11178 0.26852 0.64626 0.0
O143 O 0.13358 0.24927 0.65676 0.0
O144 O 0.15637 0.31636 0.66519 0.0
O145 O 0.12852 0.30566 0.68026 0.0
C146 C 0.14354 0.31688 0.68226 0.0
C147 C 0.08027 0.26581 0.66215 0.0
C148 C 0.15171 0.25305 0.65687 0.0
C149 C 0.12141 0.29321 0.60204 0.0
O150 O 0.11231 0.27877 0.61098 0.0
O151 O 0.13316 0.30299 0.61504 0.0
O152 O 0.08736 0.25285 0.64779 0.0
O153 O 0.0914 0.28008 0.66848 0.0
O154 O 0.74148 0.15771 0.65334 0.0
Cd155 Cd 0.71668 0.14117 0.64979 0.0
Cd156 Cd 0.74301 0.11188 0.64609 0.0
O157 O 0.76242 0.13355 0.65665 0.0
O158 O 0.6954 0.1567 0.66505 0.0
O159 O 0.70586 0.12868 0.67993 0.0
C160 C 0.69473 0.14377 0.68201 0.0
C161 C 0.74538 0.08037 0.66214 0.0
C162 C 0.75874 0.15171 0.6569 0.0
C163 C 0.71866 0.12198 0.60171 0.0
O164 O 0.7329 0.11261 0.61075 0.0
O165 O 0.70895 0.1338 0.61469 0.0
O166 O 0.75846 0.08731 0.64783 0.0
O167 O 0.73116 0.09163 0.66827 0.0
O168 O 0.856 0.27509 0.37031 0.0
Cd169 Cd 0.87252 0.30003 0.37361 0.0
Cd170 Cd 0.90147 0.2733 0.37737 0.0
O171 O 0.88007 0.25425 0.36544 0.0
O172 O 0.85668 0.3211 0.35844 0.0
O173 O 0.88463 0.31081 0.34321 0.0
C174 C 0.86942 0.32179 0.34129 0.0
C175 C 0.9337 0.27001 0.36374 0.0
C176 C 0.86193 0.25795 0.36577 0.0
C177 C 0.89086 0.29759 0.42182 0.0
O178 O 0.8995 0.2829 0.41282 0.0
O179 O 0.88008 0.30818 0.40851 0.0
O180 O 0.92586 0.25755 0.37818 0.0
O181 O 0.92292 0.2841 0.35599 0.0
O182 O 0.74041 0.85658 0.37173 0.0
Cd183 Cd 0.71524 0.87262 0.37494 0.0
Cd184 Cd 0.74146 0.90252 0.38023 0.0
O185 O 0.76129 0.88095 0.37059 0.0
O186 O 0.6945 0.85685 0.35902 0.0
O187 O 0.70452 0.88525 0.34483 0.0
C188 C 0.69368 0.86999 0.34234 0.0
C189 C 0.74587 0.93448 0.36613 0.0
C190 C 0.75773 0.86279 0.36936 0.0
C191 C 0.71534 0.89163 0.42308 0.0
O192 O 0.72945 0.90149 0.41464 0.0
O193 O 0.70652 0.87934 0.40981 0.0
O194 O 0.75728 0.9268 0.38197 0.0
O195 O 0.73224 0.92366 0.35727 0.0
O196 O 0.15814 0.73981 0.37059 0.0
Cd197 Cd 0.14287 0.71418 0.37386 0.0
Cd198 Cd 0.11218 0.73997 0.37998 0.0
O199 O 0.13339 0.76029 0.37059 0.0
O200 O 0.15941 0.69397 0.35802 0.0
O201 O 0.13067 0.70288 0.34375 0.0
C202 C 0.14631 0.69259 0.34134 0.0
C203 C 0.07993 0.74449 0.36685 0.0
C204 C 0.15158 0.75706 0.36884 0.0
C205 C 0.12414 0.71351 0.42224 0.0
O206 O 0.11376 0.72735 0.41402 0.0
O207 O 0.13668 0.70521 0.40882 0.0
O208 O 0.0878 0.75556 0.3829 0.0
O209 O 0.09069 0.73116 0.35722 0.0
O210 O 0.27171 0.15803 0.36743 0.0
Cd211 Cd 0.29621 0.14114 0.37285 0.0
Cd212 Cd 0.26891 0.11283 0.37837 0.0
O213 O 0.25006 0.13436 0.36659 0.0
O214 O 0.31791 0.15624 0.35792 0.0
O215 O 0.3076 0.12806 0.34343 0.0
C216 C 0.31883 0.14306 0.34132 0.0
C217 C 0.26619 0.08095 0.36362 0.0
C218 C 0.25428 0.1523 0.3645 0.0
C219 C 0.29325 0.12376 0.42221 0.0
O220 O 0.27856 0.11479 0.4137 0.0
O221 O 0.3036 0.13442 0.40844 0.0
O222 O 0.25316 0.08843 0.37758 0.0
O223 O 0.28063 0.09183 0.3572 0.0
O224 O 0.6576 0.77055 0.87077 0.0
Cd225 Cd 0.64083 0.79537 0.87407 0.0
Cd226 Cd 0.61231 0.76827 0.87832 0.0
O227 O 0.63384 0.74921 0.86692 0.0
O228 O 0.65651 0.81659 0.85895 0.0
O229 O 0.62859 0.8062 0.84375 0.0
C230 C 0.64369 0.81733 0.84188 0.0
C231 C 0.58014 0.76494 0.86456 0.0
C232 C 0.65192 0.75322 0.86686 0.0
C233 C 0.6226 0.79301 0.92241 0.0
O234 O 0.61412 0.77816 0.91362 0.0
O235 O 0.63327 0.8036 0.90896 0.0
O236 O 0.58791 0.75258 0.87919 0.0
O237 O 0.59099 0.77891 0.85663 0.0
O238 O 0.2409 0.65738 0.87028 0.0
Cd239 Cd 0.21609 0.64089 0.87407 0.0
Cd240 Cd 0.24243 0.61151 0.87744 0.0
O241 O 0.26171 0.63316 0.86644 0.0
O242 O 0.19475 0.65649 0.85905 0.0
O243 O 0.20506 0.62847 0.84402 0.0
C244 C 0.19396 0.64359 0.84207 0.0
C245 C 0.24487 0.57987 0.86181 0.0
C246 C 0.25808 0.65132 0.86633 0.0
C247 C 0.21835 0.62165 0.92206 0.0
O248 O 0.23255 0.61232 0.91289 0.0
O249 O 0.20853 0.63347 0.90919 0.0
O250 O 0.25798 0.587 0.87593 0.0
O251 O 0.23058 0.59102 0.85558 0.0
O252 O 0.35817 0.24497 0.86747 0.0
Cd253 Cd 0.37426 0.21984 0.87249 0.0
Cd254 Cd 0.40311 0.24691 0.87915 0.0
O255 O 0.38194 0.26657 0.86846 0.0
O256 O 0.35829 0.19882 0.85735 0.0
O257 O 0.38682 0.2081 0.84287 0.0
C258 C 0.37141 0.19743 0.84073 0.0
C259 C 0.43543 0.24979 0.86582 0.0
C260 C 0.36402 0.26247 0.86571 0.0
C261 C 0.39136 0.22161 0.92203 0.0
O262 O 0.40071 0.23614 0.91385 0.0
O263 O 0.38044 0.21173 0.90802 0.0
O264 O 0.42786 0.262 0.88081 0.0
O265 O 0.42429 0.23627 0.85729 0.0
O266 O 0.77417 0.35556 0.87024 0.0
Cd267 Cd 0.79824 0.37333 0.8735 0.0
Cd268 Cd 0.77082 0.40086 0.87583 0.0
O269 O 0.75287 0.37884 0.86315 0.0
O270 O 0.82024 0.35853 0.8588 0.0
O271 O 0.80843 0.38568 0.84299 0.0
C272 C 0.82025 0.37109 0.8414 0.0
C273 C 0.76859 0.43256 0.86041 0.0
C274 C 0.75704 0.36084 0.86451 0.0
C275 C 0.79408 0.39209 0.92128 0.0
O276 O 0.77893 0.39963 0.91192 0.0
O277 O 0.80558 0.38204 0.90825 0.0
O278 O 0.75492 0.42509 0.87339 0.0
O279 O 0.78337 0.42172 0.85521 0.0
O280 O 0.65677 0.24315 0.15699 0.0
Cd281 Cd 0.64225 0.21724 0.15167 0.0
Cd282 Cd 0.61137 0.24292 0.14379 0.0
O283 O 0.63222 0.26363 0.1528 0.0
O284 O 0.65917 0.19712 0.1671 0.0
O285 O 0.62993 0.20464 0.18092 0.0
C286 C 0.64588 0.19485 0.18335 0.0
C287 C 0.57906 0.24671 0.1569 0.0
C288 C 0.65015 0.26042 0.15704 0.0
C289 C 0.6245 0.2166 0.10224 0.0
O290 O 0.61343 0.23 0.11013 0.0
O291 O 0.63718 0.20886 0.11602 0.0
O292 O 0.58661 0.25786 0.14068 0.0
O293 O 0.59017 0.23375 0.1667 0.0
O294 O 0.77248 0.65902 0.15339 0.0
Cd295 Cd 0.797 0.64183 0.15026 0.0
Cd296 Cd 0.76995 0.61362 0.14652 0.0
O297 O 0.75132 0.6353 0.15864 0.0
O298 O 0.81849 0.65716 0.16536 0.0
O299 O 0.80739 0.62961 0.18081 0.0
C300 C 0.81879 0.64451 0.18264 0.0
C301 C 0.76744 0.5818 0.16158 0.0
C302 C 0.75527 0.65338 0.15809 0.0
C303 C 0.79403 0.62339 0.10196 0.0
O304 O 0.779 0.61522 0.1108 0.0
O305 O 0.80492 0.63377 0.11542 0.0
O306 O 0.75415 0.58926 0.14799 0.0
O307 O 0.78202 0.59268 0.1675 0.0
O308 O 0.35602 0.77325 0.15225 0.0
Cd309 Cd 0.3727 0.79808 0.14875 0.0
Cd310 Cd 0.40143 0.77123 0.14564 0.0
O311 O 0.38 0.75241 0.15792 0.0
O312 O 0.35703 0.81936 0.16373 0.0
O313 O 0.38484 0.80884 0.17913 0.0
C314 C 0.36973 0.81996 0.18095 0.0
C315 C 0.43368 0.76811 0.15926 0.0
C316 C 0.36187 0.75616 0.15727 0.0
C317 C 0.39109 0.795 0.10068 0.0
O318 O 0.3995 0.7803 0.10998 0.0
O319 O 0.38047 0.80592 0.11378 0.0
O320 O 0.4258 0.75547 0.1451 0.0
O321 O 0.4229 0.78227 0.16679 0.0
O322 O 0.24048 0.3554 0.15394 0.0
Cd323 Cd 0.21569 0.37225 0.15085 0.0
Cd324 Cd 0.24285 0.40077 0.14641 0.0
O325 O 0.26185 0.37915 0.15774 0.0
O326 O 0.19452 0.3566 0.16612 0.0
O327 O 0.20506 0.38447 0.18129 0.0
C328 C 0.19391 0.36939 0.18323 0.0
C329 C 0.2466 0.43291 0.16011 0.0
C330 C 0.25783 0.36107 0.15779 0.0
C331 C 0.21782 0.39059 0.10251 0.0
O332 O 0.23274 0.39903 0.11118 0.0
O333 O 0.2073 0.37991 0.11603 0.0
O334 O 0.2588 0.425 0.14539 0.0
O335 O 0.23254 0.42222 0.16812 0.0
O336 O 0.3559 0.24039 0.15796 0.0
Cd337 Cd 0.37174 0.21532 0.15258 0.0
Cd338 Cd 0.40157 0.24171 0.1464 0.0
O339 O 0.38008 0.26147 0.15629 0.0
O340 O 0.35592 0.19425 0.16775 0.0
O341 O 0.38462 0.20343 0.18186 0.0
C342 C 0.36921 0.19279 0.18417 0.0
C343 C 0.43341 0.24515 0.16113 0.0
C344 C 0.3621 0.25777 0.15935 0.0
C345 C 0.38993 0.21641 0.10348 0.0
O346 O 0.40026 0.23021 0.11187 0.0
O347 O 0.37767 0.20769 0.11693 0.0
O348 O 0.42599 0.25745 0.14614 0.0
O349 O 0.42248 0.23111 0.16868 0.0
O350 O 0.77123 0.35834 0.1543 0.0
Cd351 Cd 0.79638 0.37443 0.15125 0.0
Cd352 Cd 0.76988 0.40405 0.14587 0.0
O353 O 0.75008 0.38247 0.15557 0.0
O354 O 0.81707 0.35836 0.16688 0.0
O355 O 0.80728 0.38667 0.18154 0.0
C356 C 0.81801 0.37132 0.18376 0.0
C357 C 0.76599 0.43615 0.15968 0.0
C358 C 0.75383 0.36434 0.15664 0.0
C359 C 0.79592 0.39324 0.10298 0.0
O360 O 0.78161 0.40285 0.11138 0.0
O361 O 0.80506 0.38127 0.11637 0.0
O362 O 0.75427 0.42848 0.14417 0.0
O363 O 0.77953 0.42521 0.16851 0.0
O364 O 0.65665 0.77356 0.1583 0.0
Cd365 Cd 0.64054 0.79846 0.15304 0.0
Cd366 Cd 0.61101 0.77197 0.14738 0.0
O367 O 0.63256 0.75234 0.15752 0.0
O368 O 0.65631 0.81966 0.16802 0.0
O369 O 0.6278 0.81021 0.18246 0.0
C370 C 0.64316 0.82096 0.18462 0.0
C371 C 0.57931 0.76917 0.16266 0.0
C372 C 0.65055 0.75616 0.16016 0.0
C373 C 0.6222 0.79691 0.10406 0.0
O374 O 0.61217 0.78294 0.11258 0.0
O375 O 0.63425 0.80598 0.11745 0.0
O376 O 0.58646 0.75646 0.14801 0.0
O377 O 0.59046 0.78325 0.16959 0.0
O378 O 0.24346 0.65538 0.15787 0.0
Cd379 Cd 0.21907 0.63823 0.15298 0.0
Cd380 Cd 0.2465 0.61026 0.14857 0.0
O381 O 0.26522 0.63187 0.16034 0.0
O382 O 0.19729 0.6536 0.16738 0.0
O383 O 0.20774 0.62581 0.18288 0.0
C384 C 0.19648 0.64083 0.1845 0.0
C385 C 0.24826 0.5785 0.16384 0.0
C386 C 0.26088 0.64984 0.16145 0.0
C387 C 0.22281 0.62038 0.10405 0.0
O388 O 0.23767 0.61196 0.11293 0.0
O389 O 0.2119 0.63073 0.11753 0.0
O390 O 0.26184 0.58564 0.15042 0.0
O391 O 0.23387 0.58969 0.16954 0.0
O392 O 0.35727 0.77088 0.86448 0.0
Cd393 Cd 0.37315 0.79597 0.86963 0.0
Cd394 Cd 0.40283 0.76954 0.87607 0.0
O395 O 0.38137 0.74971 0.86629 0.0
O396 O 0.35709 0.81696 0.85461 0.0
O397 O 0.38571 0.80791 0.84016 0.0
C398 C 0.37023 0.81848 0.83802 0.0
C399 C 0.43456 0.76649 0.86095 0.0
C400 C 0.36341 0.75347 0.86321 0.0
C401 C 0.39139 0.795 0.91881 0.0
O402 O 0.40157 0.78102 0.9106 0.0
O403 O 0.37928 0.80378 0.9052 0.0
O404 O 0.42738 0.75402 0.87591 0.0
O405 O 0.42343 0.78047 0.85366 0.0
O406 O 0.23945 0.35613 0.87002 0.0
Cd407 Cd 0.21395 0.37164 0.8729 0.0
Cd408 Cd 0.23979 0.4021 0.87827 0.0
O409 O 0.25994 0.38083 0.86859 0.0
O410 O 0.19369 0.35513 0.85712 0.0
O411 O 0.20298 0.38364 0.8425 0.0
C412 C 0.1926 0.36804 0.84019 0.0
C413 C 0.24394 0.43429 0.86479 0.0
C414 C 0.25667 0.36261 0.86758 0.0
C415 C 0.21373 0.39064 0.92104 0.0
O416 O 0.22774 0.40067 0.91262 0.0
O417 O 0.20502 0.3783 0.90773 0.0
O418 O 0.25537 0.42653 0.88055 0.0
O419 O 0.23048 0.42344 0.85561 0.0
O420 O 0.65851 0.24034 0.86625 0.0
Cd421 Cd 0.64174 0.21575 0.87138 0.0
Cd422 Cd 0.61321 0.24304 0.87664 0.0
O423 O 0.63474 0.26189 0.86486 0.0
O424 O 0.65716 0.19422 0.85652 0.0
O425 O 0.62902 0.20434 0.84169 0.0
C426 C 0.64416 0.19328 0.83968 0.0
C427 C 0.58119 0.24602 0.86236 0.0
C428 C 0.65272 0.25774 0.86313 0.0
C429 C 0.62426 0.21883 0.92063 0.0
O430 O 0.6153 0.23347 0.91198 0.0
O431 O 0.63491 0.20838 0.90696 0.0
O432 O 0.58893 0.25899 0.87617 0.0
O433 O 0.59189 0.23149 0.85578 0.0
O434 O 0.77299 0.65574 0.86597 0.0
Cd435 Cd 0.79849 0.6405 0.87115 0.0
Cd436 Cd 0.77233 0.6102 0.87787 0.0
O437 O 0.75211 0.63141 0.86853 0.0
O438 O 0.81905 0.65699 0.85594 0.0
O439 O 0.81066 0.6281 0.84171 0.0
C440 C 0.82085 0.64382 0.83944 0.0
C441 C 0.76847 0.57807 0.86417 0.0
C442 C 0.75564 0.64938 0.86511 0.0
C443 C 0.79813 0.62237 0.9203 0.0
O444 O 0.78449 0.61181 0.912 0.0
O445 O 0.80652 0.63482 0.90678 0.0
O446 O 0.757 0.58563 0.88003 0.0
O447 O 0.78181 0.5891 0.85504 0.0
H448 H 0.21497 0.1479 0.37061 0.0
H449 H 0.25845 0.18961 0.34836 0.0
H450 H 0.18995 0.17291 0.36752 0.0
H451 H 0.23339 0.21439 0.3442 0.0
H452 H 0.19001 0.25922 0.37211 0.0
H453 H 0.21432 0.23377 0.36978 0.0
H454 H 0.17087 0.19374 0.34283 0.0
H455 H 0.14622 0.21921 0.34614 0.0
C456 C 0.21913 0.16232 0.3646 0.0
C457 C 0.23874 0.16682 0.35999 0.0
C458 C 0.20474 0.17668 0.3627 0.0
C459 C 0.2096 0.19581 0.35585 0.0
C460 C 0.22912 0.19999 0.35013 0.0
C461 C 0.24351 0.18573 0.35235 0.0
C462 C 0.18561 0.24505 0.3655 0.0
C463 C 0.16611 0.24128 0.35939 0.0
C464 C 0.19964 0.23041 0.36399 0.0
C465 C 0.19466 0.2116 0.35606 0.0
C466 C 0.17522 0.20794 0.34936 0.0
C467 C 0.1611 0.22259 0.35109 0.0
H468 H 0.8005 0.14744 0.36945 0.0
H469 H 0.75671 0.18865 0.34671 0.0
H470 H 0.82508 0.17298 0.36791 0.0
H471 H 0.78134 0.21396 0.34399 0.0
H472 H 0.82285 0.25942 0.37396 0.0
H473 H 0.79928 0.23337 0.37051 0.0
H474 H 0.8444 0.19462 0.34493 0.0
H475 H 0.86828 0.22069 0.34945 0.0
C476 C 0.7962 0.16187 0.36362 0.0
C477 C 0.77662 0.16608 0.35846 0.0
C478 C 0.81033 0.17654 0.36262 0.0
C479 C 0.80524 0.19569 0.35611 0.0
C480 C 0.78578 0.19956 0.34973 0.0
C481 C 0.77163 0.185 0.35111 0.0
C482 C 0.82778 0.2454 0.36744 0.0
C483 C 0.8475 0.24217 0.36203 0.0
C484 C 0.81417 0.23041 0.36528 0.0
C485 C 0.81982 0.21179 0.35731 0.0
C486 C 0.83952 0.20865 0.35144 0.0
C487 C 0.85321 0.22364 0.35388 0.0
H488 H 0.82708 0.75865 0.34485 0.0
H489 H 0.86737 0.79922 0.37728 0.0
H490 H 0.80247 0.78399 0.3428 0.0
H491 H 0.8424 0.82449 0.37631 0.0
H492 H 0.79611 0.86992 0.3581 0.0
H493 H 0.82234 0.84614 0.3537 0.0
H494 H 0.78182 0.79984 0.37007 0.0
H495 H 0.75573 0.82334 0.37346 0.0
C496 C 0.83069 0.77303 0.35152 0.0
C497 C 0.84912 0.77687 0.36142 0.0
C498 C 0.81651 0.78757 0.35052 0.0
C499 C 0.82024 0.80628 0.35982 0.0
C500 C 0.83899 0.81034 0.36882 0.0
C501 C 0.85331 0.79582 0.36947 0.0
C502 C 0.79282 0.85464 0.36056 0.0
C503 C 0.77378 0.84856 0.36605 0.0
C504 C 0.80789 0.84099 0.35818 0.0
C505 C 0.80427 0.82098 0.36139 0.0
C506 C 0.78518 0.81502 0.36686 0.0
C507 C 0.77016 0.82857 0.36901 0.0
H508 H 0.14367 0.79568 0.3597 0.0
H509 H 0.19115 0.7555 0.37119 0.0
H510 H 0.16701 0.82236 0.35561 0.0
H511 H 0.21421 0.78198 0.36807 0.0
H512 H 0.2541 0.8284 0.34301 0.0
H513 H 0.22894 0.80361 0.34095 0.0
H514 H 0.18915 0.84199 0.37833 0.0
H515 H 0.21423 0.86718 0.37937 0.0
C516 C 0.15905 0.79253 0.36136 0.0
C517 C 0.1655 0.77341 0.36568 0.0
C518 C 0.17244 0.80785 0.35916 0.0
C519 C 0.19257 0.80439 0.36136 0.0
C520 C 0.19891 0.78523 0.36567 0.0
C521 C 0.1856 0.76998 0.36765 0.0
C522 C 0.23991 0.83163 0.35055 0.0
C523 C 0.23622 0.84969 0.36155 0.0
C524 C 0.22548 0.81735 0.34954 0.0
C525 C 0.20705 0.82057 0.3599 0.0
C526 C 0.2031 0.83897 0.37002 0.0
C527 C 0.2175 0.85342 0.3707 0.0
H528 H 0.18761 0.75456 0.67685 0.0
H529 H 0.14658 0.79736 0.6509 0.0
H530 H 0.21257 0.77954 0.67982 0.0
H531 H 0.1718 0.82229 0.65281 0.0
H532 H 0.21844 0.86635 0.67257 0.0
H533 H 0.19257 0.84219 0.67663 0.0
H534 H 0.23243 0.79726 0.65331 0.0
H535 H 0.25826 0.82113 0.65024 0.0
C536 C 0.18392 0.76934 0.67179 0.0
C537 C 0.16515 0.77394 0.66346 0.0
C538 C 0.19828 0.78368 0.67333 0.0
C539 C 0.19437 0.80295 0.6662 0.0
C540 C 0.17536 0.80768 0.65868 0.0
C541 C 0.16089 0.79336 0.65747 0.0
C542 C 0.22169 0.85127 0.66856 0.0
C543 C 0.24045 0.8457 0.6611 0.0
C544 C 0.20681 0.83742 0.67072 0.0
C545 C 0.21032 0.8177 0.66531 0.0
C546 C 0.22918 0.81218 0.65813 0.0
C547 C 0.24404 0.82595 0.65619 0.0
H548 H 0.25691 0.18488 0.67979 0.0
H549 H 0.21681 0.14462 0.6464 0.0
H550 H 0.23125 0.20911 0.68254 0.0
H551 H 0.19119 0.16922 0.64818 0.0
H552 H 0.14525 0.21456 0.66818 0.0
H553 H 0.16944 0.18863 0.67194 0.0
H554 H 0.21502 0.2299 0.65546 0.0
H555 H 0.19113 0.25569 0.65261 0.0
C556 C 0.24257 0.18119 0.67305 0.0
C557 C 0.23895 0.16288 0.66266 0.0
C558 C 0.22785 0.19515 0.67447 0.0
C559 C 0.20917 0.19132 0.66518 0.0
C560 C 0.20533 0.17269 0.65568 0.0
C561 C 0.22004 0.15858 0.65456 0.0
C562 C 0.16047 0.21808 0.66559 0.0
C563 C 0.16622 0.23724 0.66016 0.0
C564 C 0.17434 0.20319 0.66759 0.0
C565 C 0.19426 0.20711 0.6641 0.0
C566 C 0.19992 0.22632 0.65882 0.0
C567 C 0.18614 0.24116 0.657 0.0
H568 H 0.75628 0.19115 0.65278 0.0
H569 H 0.79727 0.14502 0.66785 0.0
H570 H 0.78223 0.21488 0.65526 0.0
H571 H 0.82338 0.16905 0.67125 0.0
H572 H 0.86753 0.21601 0.64516 0.0
H573 H 0.84272 0.19061 0.64723 0.0
H574 H 0.80338 0.23106 0.68185 0.0
H575 H 0.82781 0.25651 0.67881 0.0
C576 C 0.77081 0.18606 0.65699 0.0
C577 C 0.77464 0.16612 0.6601 0.0
C578 C 0.78575 0.19976 0.65859 0.0
C579 C 0.80498 0.19398 0.66361 0.0
C580 C 0.80881 0.17404 0.66709 0.0
C581 C 0.79381 0.16026 0.6653 0.0
C582 C 0.85363 0.21938 0.65342 0.0
C583 C 0.84955 0.23833 0.66154 0.0
C584 C 0.83941 0.20479 0.65471 0.0
C585 C 0.82087 0.20879 0.6644 0.0
C586 C 0.81725 0.22753 0.67365 0.0
C587 C 0.83133 0.24213 0.67206 0.0
H588 H 0.8661 0.79977 0.6535 0.0
H589 H 0.82466 0.75637 0.67669 0.0
H590 H 0.84092 0.82468 0.65587 0.0
H591 H 0.79972 0.78133 0.68023 0.0
H592 H 0.75443 0.82372 0.65166 0.0
H593 H 0.78017 0.79975 0.65432 0.0
H594 H 0.81991 0.8441 0.67964 0.0
H595 H 0.79413 0.8684 0.67593 0.0
C596 C 0.85171 0.79562 0.65959 0.0
C597 C 0.84732 0.77606 0.66465 0.0
C598 C 0.83725 0.80994 0.66108 0.0
C599 C 0.81813 0.80506 0.66797 0.0
C600 C 0.81409 0.78561 0.67421 0.0
C601 C 0.82844 0.77128 0.67237 0.0
C602 C 0.76861 0.82839 0.65796 0.0
C603 C 0.77219 0.84803 0.66353 0.0
C604 C 0.78341 0.81456 0.65968 0.0
C605 C 0.80222 0.81987 0.66731 0.0
C606 C 0.80572 0.83947 0.67337 0.0
C607 C 0.7909 0.85341 0.67139 0.0
H608 H 0.69128 0.75607 0.87194 0.0
H609 H 0.64586 0.7149 0.85447 0.0
H610 H 0.71535 0.73042 0.86914 0.0
H611 H 0.67022 0.68916 0.85073 0.0
H612 H 0.71704 0.64489 0.87648 0.0
H613 H 0.6915 0.66955 0.87461 0.0
H614 H 0.73221 0.70995 0.84242 0.0
H615 H 0.75779 0.68563 0.84529 0.0
C616 C 0.68643 0.74157 0.86713 0.0
C617 C 0.66659 0.73759 0.86346 0.0
C618 C 0.70032 0.72682 0.86535 0.0
C619 C 0.69483 0.70764 0.85958 0.0
C620 C 0.67499 0.70369 0.8555 0.0
C621 C 0.66102 0.71848 0.85748 0.0
C622 C 0.72044 0.65898 0.86878 0.0
C623 C 0.7395 0.66338 0.86131 0.0
C624 C 0.70578 0.67313 0.8676 0.0
C625 C 0.7098 0.6919 0.85866 0.0
C626 C 0.72866 0.69587 0.85004 0.0
C627 C 0.74333 0.68186 0.85152 0.0
H628 H 0.29623 0.64458 0.85357 0.0
H629 H 0.25597 0.69072 0.87136 0.0
H630 H 0.32233 0.66852 0.84938 0.0
H631 H 0.28196 0.71435 0.86814 0.0
H632 H 0.32706 0.75613 0.84376 0.0
H633 H 0.3024 0.73086 0.84113 0.0
H634 H 0.34253 0.68958 0.87275 0.0
H635 H 0.36753 0.71479 0.87433 0.0
C636 C 0.29293 0.6598 0.85656 0.0
C637 C 0.27397 0.6657 0.86274 0.0
C638 C 0.30793 0.67353 0.85431 0.0
C639 C 0.30433 0.69345 0.85834 0.0
C640 C 0.28529 0.69925 0.86435 0.0
C641 C 0.27034 0.68561 0.86639 0.0
C642 C 0.3307 0.7416 0.84991 0.0
C643 C 0.3492 0.73751 0.85946 0.0
C644 C 0.31649 0.7271 0.84856 0.0
C645 C 0.32028 0.70818 0.85713 0.0
C646 C 0.33908 0.7039 0.8658 0.0
C647 C 0.35342 0.71838 0.86682 0.0
H648 H 0.32777 0.25913 0.84616 0.0
H649 H 0.36743 0.30121 0.87675 0.0
H650 H 0.30266 0.28396 0.8434 0.0
H651 H 0.34198 0.32596 0.87512 0.0
H652 H 0.29489 0.37016 0.85588 0.0
H653 H 0.32149 0.34673 0.85204 0.0
H654 H 0.28179 0.3001 0.86998 0.0
H655 H 0.25533 0.32322 0.87277 0.0
C656 C 0.33112 0.27373 0.85229 0.0
C657 C 0.34953 0.27816 0.86186 0.0
C658 C 0.31666 0.28797 0.85088 0.0
C659 C 0.32008 0.30697 0.85945 0.0
C660 C 0.33879 0.31158 0.86816 0.0
C661 C 0.35339 0.29736 0.8692 0.0
C662 C 0.29187 0.35487 0.85879 0.0
C663 C 0.27294 0.34859 0.86454 0.0
C664 C 0.30714 0.34143 0.85674 0.0
C665 C 0.30387 0.32142 0.86058 0.0
C666 C 0.28489 0.31526 0.86629 0.0
C667 C 0.26966 0.32861 0.86809 0.0
H668 H 0.6482 0.297 0.86947 0.0
H669 H 0.6902 0.2537 0.84757 0.0
H670 H 0.67324 0.32204 0.86724 0.0
H671 H 0.71503 0.27878 0.84425 0.0
H672 H 0.75953 0.3219 0.87354 0.0
H673 H 0.73407 0.29762 0.87049 0.0
H674 H 0.69439 0.34131 0.8433 0.0
H675 H 0.71984 0.36589 0.84733 0.0
C676 C 0.66269 0.29289 0.8637 0.0
C677 C 0.66725 0.27332 0.85895 0.0
C678 C 0.67707 0.30729 0.8623 0.0
C679 C 0.6963 0.30248 0.85582 0.0
C680 C 0.70055 0.28301 0.84992 0.0
C681 C 0.68626 0.26861 0.85165 0.0
C682 C 0.74543 0.32635 0.86673 0.0
C683 C 0.74174 0.34589 0.86076 0.0
C684 C 0.7308 0.31234 0.86481 0.0
C685 C 0.71208 0.3174 0.85657 0.0
C686 C 0.70851 0.33689 0.85004 0.0
C687 C 0.72315 0.35098 0.85221 0.0
H688 H 0.64583 0.2986 0.14342 0.0
H689 H 0.68549 0.25927 0.17928 0.0
H690 H 0.67025 0.32439 0.14546 0.0
H691 H 0.70949 0.28512 0.18234 0.0
H692 H 0.75665 0.32489 0.15356 0.0
H693 H 0.73088 0.30098 0.15588 0.0
H694 H 0.689 0.3467 0.16914 0.0
H695 H 0.71497 0.37092 0.16587 0.0
C696 C 0.65962 0.29558 0.15217 0.0
C697 C 0.66382 0.27682 0.1609 0.0
C698 C 0.67361 0.3104 0.15345 0.0
C699 C 0.69203 0.30682 0.16374 0.0
C700 C 0.69573 0.28831 0.17364 0.0
C701 C 0.68189 0.27348 0.17205 0.0
C702 C 0.74199 0.32992 0.15713 0.0
C703 C 0.73793 0.34988 0.15954 0.0
C704 C 0.72715 0.31613 0.15864 0.0
C705 C 0.70777 0.3218 0.1629 0.0
C706 C 0.7037 0.34178 0.16561 0.0
C707 C 0.7186 0.35567 0.16388 0.0
H708 H 0.7577 0.69263 0.15149 0.0
H709 H 0.71741 0.64738 0.17243 0.0
H710 H 0.73195 0.71659 0.15448 0.0
H711 H 0.6916 0.67163 0.17636 0.0
H712 H 0.6462 0.71724 0.15065 0.0
H713 H 0.67118 0.69204 0.15252 0.0
H714 H 0.71198 0.73402 0.18122 0.0
H715 H 0.6873 0.75926 0.17832 0.0
C716 C 0.74339 0.68781 0.15711 0.0
C717 C 0.73966 0.66804 0.16168 0.0
C718 C 0.72858 0.70163 0.159 0.0
C719 C 0.70961 0.69614 0.16578 0.0
C720 C 0.70594 0.67638 0.17079 0.0
C721 C 0.72078 0.66249 0.16869 0.0
C722 C 0.66046 0.721 0.15759 0.0
C723 C 0.66483 0.74029 0.16407 0.0
C724 C 0.67479 0.70653 0.15877 0.0
C725 C 0.69375 0.71098 0.16673 0.0
C726 C 0.69774 0.73011 0.17437 0.0
C727 C 0.68353 0.74459 0.17287 0.0
H728 H 0.2564 0.6873 0.17676 0.0
H729 H 0.30014 0.64585 0.15462 0.0
H730 H 0.2811 0.71258 0.17934 0.0
H731 H 0.32478 0.67134 0.15604 0.0
H732 H 0.36804 0.71904 0.17422 0.0
H733 H 0.34407 0.69308 0.17897 0.0
H734 H 0.29915 0.73173 0.15258 0.0
H735 H 0.32281 0.75769 0.14888 0.0
C736 C 0.27133 0.68359 0.17247 0.0
C737 C 0.27628 0.66461 0.16532 0.0
C738 C 0.2855 0.69813 0.17377 0.0
C739 C 0.30497 0.69417 0.16752 0.0
C740 C 0.31003 0.67496 0.16122 0.0
C741 C 0.29587 0.66033 0.16029 0.0
C742 C 0.353 0.722 0.16966 0.0
C743 C 0.34737 0.74047 0.16119 0.0
C744 C 0.33925 0.70708 0.17224 0.0
C745 C 0.31958 0.71022 0.1662 0.0
C746 C 0.31402 0.72878 0.15794 0.0
C747 C 0.32767 0.74371 0.15563 0.0
H748 H 0.25513 0.32176 0.15202 0.0
H749 H 0.296 0.36708 0.17084 0.0
H750 H 0.28082 0.29772 0.1548 0.0
H751 H 0.32176 0.34277 0.17459 0.0
H752 H 0.36651 0.29653 0.14891 0.0
H753 H 0.3417 0.3219 0.15081 0.0
H754 H 0.30112 0.28053 0.18135 0.0
H755 H 0.32562 0.25512 0.1784 0.0
C756 C 0.26956 0.32659 0.15713 0.0
C757 C 0.27346 0.3464 0.16117 0.0
C758 C 0.28434 0.31272 0.1589 0.0
C759 C 0.30345 0.3182 0.16505 0.0
C760 C 0.30731 0.338 0.16952 0.0
C761 C 0.2925 0.35195 0.16752 0.0
C762 C 0.35234 0.29294 0.15625 0.0
C763 C 0.34796 0.27376 0.16324 0.0
C764 C 0.3381 0.30751 0.15745 0.0
C765 C 0.31924 0.30328 0.16594 0.0
C766 C 0.31527 0.28427 0.17408 0.0
C767 C 0.32938 0.26969 0.17256 0.0
H768 H 0.95526 0.29321 0.33313 0.0
H769 H 0.9599 0.24405 0.38155 0.0
H770 H 0.99047 0.29224 0.32655 0.0
H771 H 0.99478 0.24354 0.3759 0.0
H772 H 0.05592 0.23715 0.35429 0.0
H773 H 0.02068 0.23663 0.35016 0.0
H774 H 0.02006 0.2995 0.34685 0.0
H775 H 0.05551 0.29984 0.3497 0.0
C776 C 0.96376 0.28213 0.34223 0.0
C777 C 0.95474 0.26871 0.35785 0.0
C778 C 0.98398 0.28165 0.33862 0.0
C779 C 0.99563 0.2678 0.35065 0.0
C780 C 0.98641 0.25417 0.36584 0.0
C781 C 0.9663 0.25455 0.36927 0.0
C782 C 0.04827 0.25084 0.3522 0.0
C783 C 0.05846 0.26854 0.35253 0.0
C784 C 0.02801 0.25057 0.35005 0.0
C785 C 0.01734 0.26804 0.34873 0.0
C786 C 0.02769 0.28573 0.34768 0.0
C787 C 0.04805 0.28596 0.34939 0.0
H788 H 0.71791 0.05631 0.34907 0.0
H789 H 0.78037 0.05619 0.35711 0.0
H790 H 0.71806 0.02085 0.34629 0.0
H791 H 0.78074 0.02094 0.35309 0.0
H792 H 0.77142 0.96055 0.38504 0.0
H793 H 0.77255 0.99535 0.37887 0.0
H794 H 0.7259 0.99106 0.32655 0.0
H795 H 0.72428 0.95592 0.33359 0.0
C796 C 0.73172 0.04873 0.34953 0.0
C797 C 0.7491 0.05899 0.35364 0.0
C798 C 0.73184 0.02836 0.34786 0.0
C799 C 0.74939 0.01787 0.34994 0.0
C800 C 0.76688 0.02839 0.35217 0.0
C801 C 0.76671 0.04865 0.35427 0.0
C802 C 0.76151 0.96692 0.37199 0.0
C803 C 0.74771 0.9554 0.35987 0.0
C804 C 0.76227 0.98699 0.36827 0.0
C805 C 0.74937 0.99618 0.3521 0.0
C806 C 0.73591 0.98457 0.33936 0.0
C807 C 0.73507 0.96439 0.34324 0.0
H808 H 0.05824 0.72418 0.33328 0.0
H809 H 0.05385 0.76879 0.38813 0.0
H810 H 0.02301 0.72588 0.32693 0.0
H811 H 0.01898 0.76993 0.38265 0.0
H812 H 0.95794 0.77858 0.36229 0.0
H813 H 0.99316 0.77925 0.35806 0.0
H814 H 0.99333 0.71707 0.34605 0.0
H815 H 0.95787 0.71672 0.34899 0.0
C816 C 0.04979 0.73442 0.34385 0.0
C817 C 0.05889 0.74635 0.36119 0.0
C818 C 0.02957 0.73531 0.34035 0.0
C819 C 0.018 0.74807 0.35422 0.0
C820 C 0.02729 0.76022 0.37118 0.0
C821 C 0.0474 0.75946 0.37449 0.0
C822 C 0.96549 0.76513 0.35826 0.0
C823 C 0.95517 0.74758 0.35618 0.0
C824 C 0.98573 0.76545 0.35605 0.0
C825 C 0.99628 0.74814 0.35229 0.0
C826 C 0.9858 0.73072 0.34881 0.0
C827 C 0.96544 0.73048 0.35057 0.0
H828 H 0.28611 0.95689 0.33198 0.0
H829 H 0.24059 0.96153 0.38562 0.0
H830 H 0.28543 0.99224 0.32651 0.0
H831 H 0.24042 0.99651 0.381 0.0
H832 H 0.23389 0.05815 0.3618 0.0
H833 H 0.23234 0.02302 0.35675 0.0
H834 H 0.29475 0.02123 0.34702 0.0
H835 H 0.29604 0.05662 0.35083 0.0
C836 C 0.27586 0.96542 0.34245 0.0
C837 C 0.26341 0.95636 0.35923 0.0
C838 C 0.27557 0.98571 0.33947 0.0
C839 C 0.26287 0.99737 0.35329 0.0
C840 C 0.25013 0.98813 0.3696 0.0
C841 C 0.25033 0.96796 0.37242 0.0
C842 C 0.24723 0.05027 0.35813 0.0
C843 C 0.26511 0.06011 0.35694 0.0
C844 C 0.24639 0.03008 0.35544 0.0
C845 C 0.26347 0.0191 0.35201 0.0
C846 C 0.28126 0.02912 0.34948 0.0
C847 C 0.28204 0.04943 0.35176 0.0
H848 H 0.05291 0.77215 0.63979 0.0
H849 H 0.05709 0.72482 0.69104 0.0
H850 H 0.01797 0.77272 0.64471 0.0
H851 H 0.02179 0.72591 0.69686 0.0
H852 H 0.95705 0.71726 0.67304 0.0
H853 H 0.99247 0.7178 0.67646 0.0
H854 H 0.99175 0.78048 0.66949 0.0
H855 H 0.95656 0.7797 0.66478 0.0
C856 C 0.04639 0.76208 0.65253 0.0
C857 C 0.05785 0.7484 0.66497 0.0
C858 C 0.02624 0.76251 0.65553 0.0
C859 C 0.01688 0.74941 0.6713 0.0
C860 C 0.02841 0.73607 0.68434 0.0
C861 C 0.04867 0.73553 0.68115 0.0
C862 C 0.96449 0.73115 0.67264 0.0
C863 C 0.95408 0.74841 0.66832 0.0
C864 C 0.98483 0.7315 0.67469 0.0
C865 C 0.99514 0.74917 0.67281 0.0
C866 C 0.98445 0.76653 0.67027 0.0
C867 C 0.96422 0.76613 0.66778 0.0
H868 H 0.23639 0.95512 0.66266 0.0
H869 H 0.29869 0.95603 0.67242 0.0
H870 H 0.23529 0.99029 0.66733 0.0
H871 H 0.29783 0.99145 0.6759 0.0
H872 H 0.28989 0.05599 0.69076 0.0
H873 H 0.28898 0.02066 0.69643 0.0
H874 H 0.24345 0.01657 0.64258 0.0
H875 H 0.24387 0.05153 0.63773 0.0
C876 C 0.24986 0.96286 0.66599 0.0
C877 C 0.26764 0.95283 0.66694 0.0
C878 C 0.24927 0.98309 0.66847 0.0
C879 C 0.26652 0.99389 0.67146 0.0
C880 C 0.28422 0.9837 0.67377 0.0
C881 C 0.28475 0.96336 0.67169 0.0
C882 C 0.27949 0.04751 0.68046 0.0
C883 C 0.26695 0.05661 0.66381 0.0
C884 C 0.27907 0.02723 0.68356 0.0
C885 C 0.26613 0.01562 0.66999 0.0
C886 C 0.25334 0.02491 0.65378 0.0
C887 C 0.25368 0.04507 0.65083 0.0
H888 H 0.0571 0.23379 0.66441 0.0
H889 H 0.05642 0.296 0.67499 0.0
H890 H 0.02192 0.23279 0.66904 0.0
H891 H 0.02099 0.29526 0.67838 0.0
H892 H 0.95627 0.28776 0.69164 0.0
H893 H 0.99149 0.28645 0.69818 0.0
H894 H 0.99601 0.24129 0.64393 0.0
H895 H 0.96115 0.24209 0.63822 0.0
C896 C 0.0494 0.24725 0.66796 0.0
C897 C 0.05948 0.26499 0.66911 0.0
C898 C 0.02918 0.24673 0.67041 0.0
C899 C 0.01844 0.264 0.67351 0.0
C900 C 0.02869 0.28163 0.67613 0.0
C901 C 0.04903 0.2821 0.67412 0.0
C902 C 0.96481 0.27735 0.68144 0.0
C903 C 0.95587 0.26504 0.6644 0.0
C904 C 0.98503 0.27669 0.68505 0.0
C905 C 0.99673 0.26376 0.67163 0.0
C906 C 0.98759 0.25117 0.65504 0.0
C907 C 0.96749 0.25173 0.65159 0.0
H908 H 0.77739 0.05735 0.66616 0.0
H909 H 0.71492 0.05651 0.67385 0.0
H910 H 0.77843 0.02225 0.67172 0.0
H911 H 0.7157 0.02114 0.678 0.0
H912 H 0.72271 0.95672 0.69308 0.0
H913 H 0.7236 0.99205 0.69858 0.0
H914 H 0.77128 0.99564 0.64763 0.0
H915 H 0.77091 0.96068 0.64313 0.0
C916 C 0.76387 0.04962 0.66923 0.0
C917 C 0.74607 0.05963 0.66937 0.0
C918 C 0.76441 0.02944 0.67218 0.0
C919 C 0.74711 0.01864 0.67473 0.0
C920 C 0.72936 0.02886 0.67624 0.0
C921 C 0.72887 0.04917 0.67378 0.0
C922 C 0.73357 0.9651 0.68341 0.0
C923 C 0.74674 0.95585 0.66768 0.0
C924 C 0.734 0.98539 0.6864 0.0
C925 C 0.74751 0.99688 0.67358 0.0
C926 C 0.76092 0.98743 0.65829 0.0
C927 C 0.76062 0.96725 0.65553 0.0
H928 H 0.55358 0.74018 0.88399 0.0
H929 H 0.55891 0.78725 0.83256 0.0
H930 H 0.5187 0.74012 0.8786 0.0
H931 H 0.52367 0.78663 0.82616 0.0
H932 H 0.45887 0.79643 0.84868 0.0
H933 H 0.49429 0.79524 0.84552 0.0
H934 H 0.49246 0.73269 0.85409 0.0
H935 H 0.45729 0.73419 0.85868 0.0
C936 C 0.54733 0.75028 0.87108 0.0
C937 C 0.55908 0.76376 0.85876 0.0
C938 C 0.5272 0.75015 0.8678 0.0
C939 C 0.51816 0.76331 0.85182 0.0
C940 C 0.53001 0.77643 0.83886 0.0
C941 C 0.55025 0.77671 0.84238 0.0
C942 C 0.46608 0.78242 0.84946 0.0
C943 C 0.45538 0.76544 0.85424 0.0
C944 C 0.48642 0.78169 0.84758 0.0
C945 C 0.49643 0.7639 0.85003 0.0
C946 C 0.48543 0.74676 0.85291 0.0
C947 C 0.4652 0.74756 0.85531 0.0
H948 H 0.22245 0.4559 0.83231 0.0
H949 H 0.26886 0.46046 0.88478 0.0
H950 H 0.22365 0.49116 0.82608 0.0
H951 H 0.26955 0.49535 0.87943 0.0
H952 H 0.27681 0.55661 0.85924 0.0
H953 H 0.27772 0.52142 0.85454 0.0
H954 H 0.21517 0.5206 0.84608 0.0
H955 H 0.21451 0.55603 0.84951 0.0
C956 C 0.23299 0.46439 0.84236 0.0
C957 C 0.24555 0.45534 0.85903 0.0
C958 C 0.23359 0.48463 0.83894 0.0
C959 C 0.24671 0.49626 0.85221 0.0
C960 C 0.25953 0.48701 0.86843 0.0
C961 C 0.25903 0.46688 0.87168 0.0
C962 C 0.2633 0.54893 0.85588 0.0
C963 C 0.24557 0.55905 0.85496 0.0
C964 C 0.26378 0.5287 0.8534 0.0
C965 C 0.24647 0.51798 0.8505 0.0
C966 C 0.22882 0.52827 0.84816 0.0
C967 C 0.22841 0.54862 0.8502 0.0
H968 H 0.46234 0.27406 0.88554 0.0
H969 H 0.45644 0.22711 0.83404 0.0
H970 H 0.49727 0.27349 0.88044 0.0
H971 H 0.49173 0.22706 0.82801 0.0
H972 H 0.55631 0.21626 0.851 0.0
H973 H 0.52089 0.21794 0.84797 0.0
H974 H 0.52364 0.28051 0.85568 0.0
H975 H 0.5588 0.27857 0.86003 0.0
C976 C 0.46848 0.26384 0.8727 0.0
C977 C 0.45655 0.2506 0.86024 0.0
C978 C 0.48863 0.26361 0.8696 0.0
C979 C 0.49751 0.25028 0.8537 0.0
C980 C 0.4855 0.23737 0.84064 0.0
C981 C 0.46524 0.23749 0.84394 0.0
C982 C 0.54931 0.23037 0.85165 0.0
C983 C 0.56028 0.24725 0.85607 0.0
C984 C 0.52897 0.23138 0.84984 0.0
C985 C 0.51923 0.24935 0.85203 0.0
C986 C 0.53048 0.26634 0.85467 0.0
C987 C 0.5507 0.26528 0.85695 0.0
H988 H 0.79904 0.45673 0.84951 0.0
H989 H 0.73652 0.45558 0.85673 0.0
H990 H 0.79815 0.49215 0.84617 0.0
H991 H 0.73543 0.49077 0.85219 0.0
H992 H 0.74333 0.55169 0.88329 0.0
H993 H 0.74295 0.5168 0.8777 0.0
H994 H 0.78974 0.52151 0.82566 0.0
H995 H 0.79058 0.55675 0.83209 0.0
C996 C 0.78506 0.46401 0.84969 0.0
C997 C 0.76787 0.45342 0.85372 0.0
C998 C 0.78451 0.48435 0.84769 0.0
C999 C 0.76673 0.49447 0.84936 0.0
C1000 C 0.74945 0.48361 0.85156 0.0
C1001 C 0.75004 0.46338 0.85396 0.0
C1002 C 0.75342 0.54539 0.87042 0.0
C1003 C 0.76704 0.55706 0.85821 0.0
C1004 C 0.7531 0.52527 0.86704 0.0
C1005 C 0.76627 0.51618 0.85113 0.0
C1006 C 0.77953 0.52793 0.83827 0.0
C1007 C 0.77993 0.54816 0.84181 0.0
H1008 H 0.45619 0.27748 0.16122 0.0
H1009 H 0.45784 0.2157 0.17502 0.0
H1010 H 0.49138 0.27914 0.16541 0.0
H1011 H 0.49328 0.21704 0.17794 0.0
H1012 H 0.55796 0.22605 0.19069 0.0
H1013 H 0.5227 0.22682 0.19703 0.0
H1014 H 0.51743 0.27038 0.14086 0.0
H1015 H 0.55232 0.27017 0.13538 0.0
C1016 C 0.46411 0.26425 0.16535 0.0
C1017 C 0.45429 0.24643 0.16758 0.0
C1018 C 0.48434 0.26515 0.16754 0.0
C1019 C 0.49536 0.24815 0.17144 0.0
C1020 C 0.48538 0.23047 0.17506 0.0
C1021 C 0.46503 0.22966 0.17332 0.0
C1022 C 0.54923 0.23599 0.18002 0.0
C1023 C 0.55798 0.24806 0.16255 0.0
C1024 C 0.52899 0.23634 0.18351 0.0
C1025 C 0.51707 0.24868 0.16951 0.0
C1026 C 0.52601 0.26098 0.15243 0.0
C1027 C 0.54613 0.26075 0.14912 0.0
H1028 H 0.79759 0.55741 0.17303 0.0
H1029 H 0.73517 0.55906 0.16485 0.0
H1030 H 0.79636 0.52202 0.17674 0.0
H1031 H 0.7337 0.52393 0.16985 0.0
H1032 H 0.74097 0.46253 0.14027 0.0
H1033 H 0.74092 0.49747 0.14523 0.0
H1034 H 0.78773 0.49292 0.1973 0.0
H1035 H 0.78828 0.45761 0.19144 0.0
C1036 C 0.78356 0.55024 0.17272 0.0
C1037 C 0.76651 0.56096 0.16833 0.0
C1038 C 0.78281 0.52992 0.17493 0.0
C1039 C 0.76495 0.51994 0.17315 0.0
C1040 C 0.74779 0.53095 0.17056 0.0
C1041 C 0.74859 0.55116 0.1679 0.0
C1042 C 0.75113 0.46888 0.15302 0.0
C1043 C 0.76467 0.45722 0.16539 0.0
C1044 C 0.75101 0.48904 0.15604 0.0
C1045 C 0.76429 0.49821 0.17176 0.0
C1046 C 0.77745 0.48646 0.18481 0.0
C1047 C 0.77767 0.46619 0.18161 0.0
H1048 H 0.46013 0.74301 0.14027 0.0
H1049 H 0.45505 0.79082 0.19065 0.0
H1050 H 0.49502 0.7429 0.14557 0.0
H1051 H 0.49029 0.79015 0.19699 0.0
H1052 H 0.55511 0.79936 0.1743 0.0
H1053 H 0.51969 0.79836 0.17746 0.0
H1054 H 0.52127 0.73571 0.17017 0.0
H1055 H 0.55644 0.737 0.16556 0.0
C1056 C 0.46644 0.75327 0.15293 0.0
C1057 C 0.45475 0.76696 0.16498 0.0
C1058 C 0.48658 0.75311 0.15616 0.0
C1059 C 0.49569 0.76646 0.17184 0.0
C1060 C 0.4839 0.77981 0.18452 0.0
C1061 C 0.46366 0.78011 0.18105 0.0
C1062 C 0.54785 0.78538 0.17379 0.0
C1063 C 0.55849 0.76829 0.16938 0.0
C1064 C 0.52751 0.78476 0.17568 0.0
C1065 C 0.51742 0.76697 0.17359 0.0
C1066 C 0.52836 0.74976 0.17106 0.0
C1067 C 0.54858 0.75044 0.16866 0.0
H1068 H 0.27243 0.45894 0.14169 0.0
H1069 H 0.224 0.4546 0.19125 0.0
H1070 H 0.27314 0.49382 0.14715 0.0
H1071 H 0.2252 0.48983 0.19766 0.0
H1072 H 0.21737 0.55478 0.17424 0.0
H1073 H 0.21769 0.51935 0.17745 0.0
H1074 H 0.28049 0.51982 0.17242 0.0
H1075 H 0.27995 0.55502 0.16788 0.0
C1076 C 0.26214 0.4654 0.15419 0.0
C1077 C 0.24812 0.45393 0.16597 0.0
C1078 C 0.26264 0.48552 0.15751 0.0
C1079 C 0.24928 0.49483 0.17297 0.0
C1080 C 0.23558 0.48326 0.18539 0.0
C1081 C 0.23497 0.46304 0.18186 0.0
C1082 C 0.23124 0.54729 0.17425 0.0
C1083 C 0.24861 0.55763 0.17049 0.0
C1084 C 0.23146 0.52694 0.17617 0.0
C1085 C 0.24911 0.51655 0.17473 0.0
C1086 C 0.26656 0.52717 0.17283 0.0
C1087 C 0.26629 0.54741 0.17045 0.0
H1088 H 0.10313 0.26871 0.45264 0.0
H1089 H 0.13296 0.32392 0.44764 0.0
H1090 H 0.10223 0.2716 0.49627 0.0
H1091 H 0.13138 0.32723 0.49174 0.0
H1092 H 0.09057 0.28439 0.5731 0.0
H1093 H 0.08827 0.28759 0.52932 0.0
H1094 H 0.14536 0.31401 0.52772 0.0
H1095 H 0.14717 0.31162 0.57182 0.0
C1096 C 0.10923 0.28168 0.46082 0.0
C1097 C 0.11817 0.29606 0.44654 0.0
C1098 C 0.10857 0.28342 0.48599 0.0
C1099 C 0.11664 0.29971 0.49772 0.0
C1100 C 0.12521 0.31437 0.48341 0.0
C1101 C 0.126 0.31254 0.4581 0.0
C1102 C 0.10251 0.29115 0.56343 0.0
C1103 C 0.11913 0.29757 0.57589 0.0
C1104 C 0.10127 0.29287 0.53826 0.0
C1105 C 0.11681 0.30068 0.52478 0.0
C1106 C 0.13305 0.30801 0.53741 0.0
C1107 C 0.13414 0.30658 0.56272 0.0
H1108 H 0.70188 0.1487 0.5713 0.0
H1109 H 0.72657 0.09095 0.57272 0.0
H1110 H 0.70044 0.14739 0.5271 0.0
H1111 H 0.72424 0.08917 0.52881 0.0
H1112 H 0.74591 0.1037 0.45338 0.0
H1113 H 0.74178 0.10271 0.49681 0.0
H1114 H 0.68773 0.13447 0.49019 0.0
H1115 H 0.69234 0.13613 0.44625 0.0
C1116 C 0.70652 0.13553 0.56219 0.0
C1117 C 0.7146 0.12003 0.57545 0.0
C1118 C 0.70564 0.13473 0.53682 0.0
C1119 C 0.71257 0.11831 0.52421 0.0
C1120 C 0.71934 0.10231 0.53775 0.0
C1121 C 0.72054 0.10325 0.56298 0.0
C1122 C 0.73303 0.11038 0.46104 0.0
C1123 C 0.71948 0.12003 0.44621 0.0
C1124 C 0.73055 0.10966 0.4861 0.0
C1125 C 0.71432 0.11838 0.49721 0.0
C1126 C 0.70051 0.12775 0.48235 0.0
C1127 C 0.70308 0.1286 0.45713 0.0
H1128 H 0.92213 0.72363 0.44979 0.0
H1129 H 0.8624 0.70423 0.45043 0.0
H1130 H 0.9235 0.72075 0.49366 0.0
H1131 H 0.86339 0.70221 0.49467 0.0
H1132 H 0.87394 0.69259 0.57567 0.0
H1133 H 0.87528 0.68806 0.53167 0.0
H1134 H 0.91108 0.73954 0.52549 0.0
H1135 H 0.91031 0.74361 0.56894 0.0
C1136 C 0.9093 0.71862 0.45935 0.0
C1137 C 0.8921 0.71437 0.44669 0.0
C1138 C 0.91002 0.7171 0.48457 0.0
C1139 C 0.89341 0.7117 0.49789 0.0
C1140 C 0.8765 0.70635 0.48508 0.0
C1141 C 0.87589 0.70755 0.45971 0.0
C1142 C 0.88228 0.70278 0.56487 0.0
C1143 C 0.89203 0.71845 0.57592 0.0
C1144 C 0.88295 0.70025 0.53962 0.0
C1145 C 0.89337 0.71336 0.5249 0.0
C1146 C 0.90327 0.72885 0.53612 0.0
C1147 C 0.90269 0.73129 0.56119 0.0
H1148 H 0.32385 0.87367 0.57364 0.0
H1149 H 0.27304 0.91041 0.56759 0.0
H1150 H 0.32815 0.87515 0.52964 0.0
H1151 H 0.27693 0.91138 0.52407 0.0
H1152 H 0.2925 0.92233 0.44825 0.0
H1153 H 0.29592 0.9237 0.49207 0.0
H1154 H 0.31325 0.86323 0.49292 0.0
H1155 H 0.31063 0.86219 0.44872 0.0
C1156 C 0.31368 0.88215 0.56299 0.0
C1157 C 0.2981 0.89192 0.57422 0.0
C1158 C 0.31607 0.8829 0.53774 0.0
C1159 C 0.30295 0.89344 0.52319 0.0
C1160 C 0.2876 0.90345 0.53459 0.0
C1161 C 0.28527 0.90276 0.55968 0.0
C1162 C 0.29739 0.90942 0.45775 0.0
C1163 C 0.30108 0.89209 0.44508 0.0
C1164 C 0.29921 0.91015 0.48293 0.0
C1165 C 0.3044 0.89345 0.49619 0.0
C1166 C 0.30928 0.8764 0.48335 0.0
C1167 C 0.30774 0.87577 0.45801 0.0
H1168 H 0.09199 0.7163 0.45066 0.0
H1169 H 0.15249 0.69957 0.45255 0.0
H1170 H 0.09011 0.71309 0.49448 0.0
H1171 H 0.151 0.69733 0.49672 0.0
H1172 H 0.14066 0.68827 0.5776 0.0
H1173 H 0.1396 0.68303 0.5337 0.0
H1174 H 0.10115 0.73247 0.52634 0.0
H1175 H 0.10162 0.73717 0.56964 0.0
C1176 C 0.10487 0.71178 0.46049 0.0
C1177 C 0.12243 0.7084 0.44821 0.0
C1178 C 0.10386 0.71009 0.48567 0.0
C1179 C 0.12053 0.70544 0.49934 0.0
C1180 C 0.13784 0.70087 0.48688 0.0
C1181 C 0.13873 0.70221 0.46154 0.0
C1182 C 0.13178 0.69781 0.56657 0.0
C1183 C 0.12124 0.71314 0.57723 0.0
C1184 C 0.13127 0.6949 0.54137 0.0
C1185 C 0.12022 0.70726 0.52633 0.0
C1186 C 0.10947 0.72233 0.5372 0.0
C1187 C 0.10989 0.72515 0.5622 0.0
H1188 H 0.32263 0.14139 0.44833 0.0
H1189 H 0.27318 0.10304 0.45603 0.0
H1190 H 0.32791 0.14006 0.4922 0.0
H1191 H 0.27801 0.10222 0.49939 0.0
H1192 H 0.29556 0.09144 0.57449 0.0
H1193 H 0.29809 0.09036 0.53057 0.0
H1194 H 0.31355 0.15133 0.52962 0.0
H1195 H 0.31185 0.1521 0.57389 0.0
C1196 C 0.31296 0.13261 0.45931 0.0
C1197 C 0.29749 0.12231 0.44858 0.0
C1198 C 0.31591 0.13195 0.48448 0.0
C1199 C 0.30346 0.12095 0.49944 0.0
C1200 C 0.28819 0.1105 0.48854 0.0
C1201 C 0.28531 0.1111 0.46354 0.0
C1202 C 0.29987 0.10453 0.56493 0.0
C1203 C 0.3033 0.12191 0.57761 0.0
C1204 C 0.30117 0.10397 0.5397 0.0
C1205 C 0.30555 0.12088 0.52639 0.0
C1206 C 0.3102 0.138 0.5392 0.0
C1207 C 0.30919 0.13847 0.5646 0.0
H1208 H 0.87361 0.32655 0.449 0.0
H1209 H 0.9118 0.2768 0.45474 0.0
H1210 H 0.87491 0.33065 0.49305 0.0
H1211 H 0.91254 0.28042 0.49826 0.0
H1212 H 0.92245 0.29521 0.57445 0.0
H1213 H 0.92407 0.29911 0.53071 0.0
H1214 H 0.86331 0.31541 0.52948 0.0
H1215 H 0.86204 0.31238 0.57361 0.0
C1216 C 0.88237 0.31658 0.45959 0.0
C1217 C 0.89258 0.30134 0.44826 0.0
C1218 C 0.88302 0.31885 0.48487 0.0
C1219 C 0.89388 0.30592 0.49934 0.0
C1220 C 0.90435 0.29095 0.48783 0.0
C1221 C 0.90378 0.28876 0.46272 0.0
C1222 C 0.90953 0.29996 0.56488 0.0
C1223 C 0.89206 0.30327 0.57742 0.0
C1224 C 0.91039 0.30207 0.53974 0.0
C1225 C 0.8937 0.30711 0.52637 0.0
C1226 C 0.87649 0.31157 0.53911 0.0
C1227 C 0.87573 0.30979 0.56442 0.0
H1228 H 0.687 0.87689 0.57777 0.0
H1229 H 0.73894 0.91196 0.57151 0.0
H1230 H 0.68268 0.87845 0.53378 0.0
H1231 H 0.73511 0.91289 0.52804 0.0
H1232 H 0.72066 0.92334 0.45178 0.0
H1233 H 0.71726 0.92538 0.49556 0.0
H1234 H 0.6967 0.86593 0.49732 0.0
H1235 H 0.69921 0.86433 0.45321 0.0
C1236 C 0.69742 0.88501 0.56708 0.0
C1237 C 0.71332 0.89428 0.57824 0.0
C1238 C 0.69502 0.8858 0.54183 0.0
C1239 C 0.7085 0.89584 0.52721 0.0
C1240 C 0.72415 0.90538 0.53857 0.0
C1241 C 0.72646 0.9047 0.56365 0.0
C1242 C 0.71509 0.91083 0.46149 0.0
C1243 C 0.71041 0.89361 0.44909 0.0
C1244 C 0.71327 0.91192 0.48665 0.0
C1245 C 0.70714 0.89566 0.50018 0.0
C1246 C 0.70138 0.87878 0.48759 0.0
C1247 C 0.70288 0.87782 0.46228 0.0
H1248 H 0.59074 0.79155 0.07497 0.0
H1249 H 0.65004 0.81223 0.07402 0.0
H1250 H 0.58918 0.79436 0.0311 0.0
H1251 H 0.6489 0.81414 0.02981 0.0
H1252 H 0.63846 0.82314 0.94896 0.0
H1253 H 0.6368 0.8279 0.99288 0.0
H1254 H 0.60177 0.7759 0.99921 0.0
H1255 H 0.6028 0.77164 0.95581 0.0
C1256 C 0.60343 0.79682 0.06534 0.0
C1257 C 0.62058 0.80146 0.07791 0.0
C1258 C 0.60261 0.7983 0.04013 0.0
C1259 C 0.61906 0.80403 0.02673 0.0
C1260 C 0.6359 0.80975 0.03945 0.0
C1261 C 0.6366 0.8086 0.06481 0.0
C1262 C 0.6302 0.81291 0.95976 0.0
C1263 C 0.62077 0.79701 0.94878 0.0
C1264 C 0.62935 0.81555 0.98497 0.0
C1265 C 0.61909 0.80234 0.99973 0.0
C1266 C 0.60945 0.78667 0.98856 0.0
C1267 C 0.61019 0.78411 0.96352 0.0
H1268 H 0.20161 0.6482 0.95271 0.0
H1269 H 0.2264 0.59052 0.95081 0.0
H1270 H 0.20017 0.64664 0.9969 0.0
H1271 H 0.22408 0.58847 0.9947 0.0
H1272 H 0.24556 0.60253 0.07037 0.0
H1273 H 0.24151 0.60179 0.02691 0.0
H1274 H 0.18743 0.63349 0.03361 0.0
H1275 H 0.19196 0.63489 0.07758 0.0
C1276 C 0.20628 0.635 0.96171 0.0
C1277 C 0.21438 0.61959 0.94833 0.0
C1278 C 0.2054 0.63405 0.98707 0.0
C1279 C 0.21235 0.61756 0.99954 0.0
C1280 C 0.21916 0.60166 0.98588 0.0
C1281 C 0.22036 0.60275 0.96065 0.0
C1282 C 0.23268 0.60924 0.06272 0.0
C1283 C 0.21911 0.61881 0.07758 0.0
C1284 C 0.23026 0.60867 0.03764 0.0
C1285 C 0.21405 0.61746 0.02655 0.0
C1286 C 0.2002 0.62673 0.04143 0.0
C1287 C 0.20272 0.62743 0.06667 0.0
H1288 H 0.4219 0.2197 0.07488 0.0
H1289 H 0.36144 0.20278 0.0731 0.0
H1290 H 0.42363 0.21689 0.03102 0.0
H1291 H 0.36279 0.20095 0.02887 0.0
H1292 H 0.37327 0.19223 0.9478 0.0
H1293 H 0.37421 0.18689 0.9917 0.0
H1294 H 0.41245 0.23645 0.99941 0.0
H1295 H 0.41209 0.24125 0.95613 0.0
C1296 C 0.40899 0.21524 0.06506 0.0
C1297 C 0.39149 0.21168 0.07738 0.0
C1298 C 0.40992 0.21378 0.03986 0.0
C1299 C 0.39322 0.20918 0.02621 0.0
C1300 C 0.37597 0.20446 0.03869 0.0
C1301 C 0.37516 0.20557 0.06406 0.0
C1302 C 0.38207 0.20179 0.95892 0.0
C1303 C 0.3926 0.21716 0.94835 0.0
C1304 C 0.38251 0.19881 0.9841 0.0
C1305 C 0.39348 0.21116 0.99924 0.0
C1306 C 0.40419 0.22631 0.98847 0.0
C1307 C 0.40384 0.22919 0.96348 0.0
H1308 H 0.78897 0.42429 0.07368 0.0
H1309 H 0.81319 0.36633 0.07327 0.0
H1310 H 0.79197 0.42586 0.02982 0.0
H1311 H 0.8154 0.36748 0.0291 0.0
H1312 H 0.82483 0.37843 0.94851 0.0
H1313 H 0.82891 0.38052 0.99248 0.0
H1314 H 0.77455 0.4119 0.99766 0.0
H1315 H 0.77087 0.41042 0.95412 0.0
C1316 C 0.79508 0.41191 0.06418 0.0
C1317 C 0.80065 0.39511 0.0769 0.0
C1318 C 0.79667 0.41274 0.03898 0.0
C1319 C 0.80351 0.39663 0.02575 0.0
C1320 C 0.81015 0.38021 0.03862 0.0
C1321 C 0.80884 0.37951 0.06396 0.0
C1322 C 0.81389 0.38598 0.95906 0.0
C1323 C 0.79752 0.39425 0.94772 0.0
C1324 C 0.81617 0.38707 0.9843 0.0
C1325 C 0.8021 0.39643 0.99874 0.0
C1326 C 0.78593 0.40494 0.98723 0.0
C1327 C 0.78373 0.40395 0.96214 0.0
H1328 H 0.59267 0.21854 0.07319 0.0
H1329 H 0.65355 0.20315 0.0725 0.0
H1330 H 0.59136 0.21519 0.02937 0.0
H1331 H 0.65255 0.20064 0.02828 0.0
H1332 H 0.6424 0.19007 0.94733 0.0
H1333 H 0.64134 0.18548 0.99135 0.0
H1334 H 0.60264 0.23481 0.99751 0.0
H1335 H 0.60319 0.23894 0.95405 0.0
C1336 C 0.60576 0.21427 0.06363 0.0
C1337 C 0.62326 0.21133 0.07625 0.0
C1338 C 0.60507 0.21249 0.03845 0.0
C1339 C 0.62196 0.20811 0.02511 0.0
C1340 C 0.63923 0.20397 0.03789 0.0
C1341 C 0.63984 0.20545 0.06325 0.0
C1342 C 0.63348 0.19974 0.95812 0.0
C1343 C 0.62288 0.21487 0.94708 0.0
C1344 C 0.63297 0.19719 0.98338 0.0
C1345 C 0.62184 0.2097 0.9981 0.0
C1346 C 0.61105 0.22458 0.98687 0.0
C1347 C 0.6115 0.22707 0.9618 0.0
H1348 H 0.77274 0.60344 0.06853 0.0
H1349 H 0.82405 0.63938 0.07542 0.0
H1350 H 0.77714 0.60233 0.02508 0.0
H1351 H 0.82887 0.63773 0.03151 0.0
H1352 H 0.81296 0.65066 0.95017 0.0
H1353 H 0.81477 0.64975 0.99442 0.0
H1354 H 0.79625 0.58964 0.99347 0.0
H1355 H 0.79365 0.5909 0.94956 0.0
C1356 C 0.78518 0.61089 0.06082 0.0
C1357 C 0.79801 0.62154 0.07557 0.0
C1358 C 0.78781 0.61012 0.03578 0.0
C1359 C 0.80345 0.61984 0.02463 0.0
C1360 C 0.81656 0.63021 0.03941 0.0
C1361 C 0.81387 0.63105 0.06461 0.0
C1362 C 0.80962 0.63718 0.95946 0.0
C1363 C 0.80289 0.62094 0.94643 0.0
C1364 C 0.8107 0.63662 0.98484 0.0
C1365 C 0.80527 0.61973 0.99765 0.0
C1366 C 0.79996 0.60309 0.98435 0.0
C1367 C 0.79861 0.60375 0.95912 0.0
H1368 H 0.36351 0.81083 0.94841 0.0
H1369 H 0.42279 0.79007 0.94813 0.0
H1370 H 0.36465 0.81362 0.99255 0.0
H1371 H 0.42434 0.79375 0.9919 0.0
H1372 H 0.41085 0.77286 0.06804 0.0
H1373 H 0.41181 0.77608 0.02449 0.0
H1374 H 0.37677 0.8282 0.02896 0.0
H1375 H 0.3752 0.82451 0.07305 0.0
C1376 C 0.37694 0.80735 0.95774 0.0
C1377 C 0.39296 0.79995 0.94486 0.0
C1378 C 0.37764 0.80901 0.98306 0.0
C1379 C 0.39448 0.80355 0.99597 0.0
C1380 C 0.41092 0.79751 0.98275 0.0
C1381 C 0.41009 0.79553 0.95759 0.0
C1382 C 0.40345 0.78515 0.05989 0.0
C1383 C 0.3929 0.7984 0.07417 0.0
C1384 C 0.40414 0.7871 0.03475 0.0
C1385 C 0.39447 0.80249 0.02302 0.0
C1386 C 0.38424 0.81606 0.03731 0.0
C1387 C 0.38344 0.81402 0.06261 0.0
H1388 H 0.19834 0.36292 0.95118 0.0
H1389 H 0.21862 0.42235 0.94985 0.0
H1390 H 0.19635 0.36424 0.99536 0.0
H1391 H 0.21574 0.42408 0.99372 0.0
H1392 H 0.23887 0.41061 0.06899 0.0
H1393 H 0.23437 0.41168 0.02562 0.0
H1394 H 0.18263 0.37631 0.03229 0.0
H1395 H 0.18762 0.37464 0.07617 0.0
C1396 C 0.20184 0.37644 0.9603 0.0
C1397 C 0.20891 0.39244 0.9471 0.0
C1398 C 0.20065 0.37723 0.98565 0.0
C1399 C 0.20627 0.39415 0.99827 0.0
C1400 C 0.21188 0.4106 0.98476 0.0
C1401 C 0.21339 0.40968 0.95956 0.0
C1402 C 0.2264 0.40317 0.06136 0.0
C1403 C 0.21365 0.39248 0.07618 0.0
C1404 C 0.2237 0.40393 0.03634 0.0
C1405 C 0.20804 0.39419 0.02526 0.0
C1406 C 0.19496 0.38384 0.04011 0.0
C1407 C 0.19774 0.38298 0.0653 0.0
H1408 H 0.19174 0.3916 0.22449 0.0
H1409 H 0.16955 0.33885 0.19214 0.0
H1410 H 0.17575 0.38317 0.26263 0.0
H1411 H 0.15405 0.33021 0.2302 0.0
H1412 H 0.12019 0.32149 0.29826 0.0
H1413 H 0.12949 0.33678 0.26003 0.0
H1414 H 0.18148 0.35945 0.29384 0.0
H1415 H 0.17196 0.34464 0.33202 0.0
C1416 C 0.18324 0.37835 0.2254 0.0
C1417 C 0.18206 0.36584 0.2053 0.0
C1418 C 0.17418 0.37344 0.24732 0.0
C1419 C 0.16372 0.35591 0.24964 0.0
C1420 C 0.16176 0.34392 0.22911 0.0
C1421 C 0.1708 0.34883 0.20725 0.0
C1422 C 0.1334 0.33007 0.29765 0.0
C1423 C 0.1454 0.33169 0.31818 0.0
C1424 C 0.13882 0.33873 0.27566 0.0
C1425 C 0.15637 0.34919 0.2737 0.0
C1426 C 0.16778 0.35169 0.29463 0.0
C1427 C 0.16236 0.34307 0.31658 0.0
H1428 H 0.62342 0.19102 0.22422 0.0
H1429 H 0.67729 0.17156 0.19201 0.0
H1430 H 0.63226 0.17481 0.2621 0.0
H1431 H 0.68625 0.15574 0.22979 0.0
H1432 H 0.69555 0.12101 0.29717 0.0
H1433 H 0.67996 0.13023 0.25905 0.0
H1434 H 0.65609 0.18139 0.29347 0.0
H1435 H 0.67131 0.17201 0.33151 0.0
C1436 C 0.63699 0.18304 0.22508 0.0
C1437 C 0.64971 0.18272 0.20512 0.0
C1438 C 0.64213 0.17385 0.24685 0.0
C1439 C 0.66005 0.16407 0.24911 0.0
C1440 C 0.67225 0.16293 0.2287 0.0
C1441 C 0.66715 0.17214 0.20702 0.0
C1442 C 0.68663 0.134 0.29672 0.0
C1443 C 0.68483 0.14585 0.31736 0.0
C1444 C 0.67781 0.13937 0.27482 0.0
C1445 C 0.66692 0.15668 0.27307 0.0
C1446 C 0.6642 0.16789 0.29412 0.0
C1447 C 0.67304 0.16255 0.31597 0.0
H1448 H 0.84405 0.6744 0.19121 0.0
H1449 H 0.81965 0.62305 0.22459 0.0
H1450 H 0.85906 0.6834 0.22949 0.0
H1451 H 0.83508 0.63187 0.26294 0.0
H1452 H 0.83805 0.67213 0.33089 0.0
H1453 H 0.82904 0.65677 0.29284 0.0
H1454 H 0.8828 0.67658 0.26063 0.0
H1455 H 0.89166 0.69238 0.29875 0.0
C1456 C 0.84222 0.66479 0.2066 0.0
C1457 C 0.83047 0.64809 0.20485 0.0
C1458 C 0.85096 0.6699 0.22858 0.0
C1459 C 0.84819 0.65846 0.24944 0.0
C1460 C 0.83728 0.64119 0.24736 0.0
C1461 C 0.82854 0.63605 0.22531 0.0
C1462 C 0.84813 0.67296 0.31584 0.0
C1463 C 0.8655 0.68366 0.31784 0.0
C1464 C 0.84301 0.66402 0.294 0.0
C1465 C 0.85511 0.66553 0.27353 0.0
C1466 C 0.87299 0.67537 0.27591 0.0
C1467 C 0.87814 0.68431 0.29782 0.0
H1468 H 0.33957 0.84495 0.18931 0.0
H1469 H 0.39101 0.821 0.22301 0.0
H1470 H 0.33023 0.85978 0.22757 0.0
H1471 H 0.38183 0.83623 0.26135 0.0
H1472 H 0.32076 0.89211 0.29705 0.0
H1473 H 0.33677 0.88353 0.25896 0.0
H1474 H 0.35666 0.82967 0.29088 0.0
H1475 H 0.34105 0.83838 0.32888 0.0
C1476 C 0.34913 0.84319 0.20477 0.0
C1477 C 0.36595 0.83161 0.20312 0.0
C1478 C 0.34382 0.85182 0.22674 0.0
C1479 C 0.35518 0.84909 0.24767 0.0
C1480 C 0.37258 0.83838 0.24569 0.0
C1481 C 0.37792 0.82976 0.22366 0.0
C1482 C 0.32887 0.87862 0.29606 0.0
C1483 C 0.32948 0.86587 0.31597 0.0
C1484 C 0.33794 0.87363 0.27417 0.0
C1485 C 0.34789 0.85582 0.27173 0.0
C1486 C 0.34933 0.84359 0.29209 0.0
C1487 C 0.34024 0.84854 0.3139 0.0
H1488 H 0.19199 0.62147 0.80074 0.0
H1489 H 0.16932 0.67395 0.83326 0.0
H1490 H 0.17625 0.63004 0.76249 0.0
H1491 H 0.15401 0.6827 0.79507 0.0
H1492 H 0.12087 0.6915 0.72623 0.0
H1493 H 0.12972 0.67601 0.76455 0.0
H1494 H 0.18257 0.65429 0.73188 0.0
H1495 H 0.17354 0.66935 0.69365 0.0
C1496 C 0.18341 0.63468 0.79986 0.0
C1497 C 0.18206 0.6471 0.82003 0.0
C1498 C 0.17449 0.63966 0.77787 0.0
C1499 C 0.16399 0.65717 0.77556 0.0
C1500 C 0.16179 0.66902 0.79616 0.0
C1501 C 0.1707 0.66405 0.81809 0.0
C1502 C 0.13417 0.68308 0.72711 0.0
C1503 C 0.14656 0.68181 0.70691 0.0
C1504 C 0.13932 0.67431 0.74913 0.0
C1505 C 0.15697 0.66404 0.75143 0.0
C1506 C 0.16879 0.66189 0.7308 0.0
C1507 C 0.16366 0.67066 0.70884 0.0
H1508 H 0.34418 0.176 0.69299 0.0
H1509 H 0.32386 0.12282 0.72617 0.0
H1510 H 0.3595 0.18549 0.73091 0.0
H1511 H 0.33954 0.1322 0.76419 0.0
H1512 H 0.39325 0.19544 0.79917 0.0
H1513 H 0.38451 0.17943 0.76113 0.0
H1514 H 0.33238 0.15679 0.79457 0.0
H1515 H 0.34124 0.17245 0.83251 0.0
C1516 C 0.34332 0.16612 0.70825 0.0
C1517 C 0.33263 0.14872 0.70657 0.0
C1518 C 0.35223 0.17152 0.73001 0.0
C1519 C 0.35066 0.15969 0.75072 0.0
C1520 C 0.34081 0.14179 0.74869 0.0
C1521 C 0.33194 0.13635 0.72684 0.0
C1522 C 0.38013 0.18671 0.79852 0.0
C1523 C 0.36787 0.18536 0.81885 0.0
C1524 C 0.37505 0.17764 0.77667 0.0
C1525 C 0.35764 0.16694 0.77468 0.0
C1526 C 0.34598 0.16473 0.79544 0.0
C1527 C 0.35101 0.17384 0.81721 0.0
H1528 H 0.83843 0.34308 0.69358 0.0
H1529 H 0.89252 0.32319 0.72485 0.0
H1530 H 0.82989 0.35867 0.73162 0.0
H1531 H 0.88413 0.33924 0.76298 0.0
H1532 H 0.84591 0.34152 0.83295 0.0
H1533 H 0.8608 0.33253 0.79462 0.0
H1534 H 0.83622 0.38377 0.76109 0.0
H1535 H 0.82089 0.39256 0.79948 0.0
C1536 C 0.84871 0.34237 0.70844 0.0
C1537 C 0.86608 0.3317 0.70622 0.0
C1538 C 0.84386 0.35146 0.73027 0.0
C1539 C 0.85625 0.35013 0.7505 0.0
C1540 C 0.87412 0.34032 0.74788 0.0
C1541 C 0.87899 0.33122 0.72597 0.0
C1542 C 0.84394 0.35108 0.81754 0.0
C1543 C 0.83201 0.36765 0.81925 0.0
C1544 C 0.85261 0.34597 0.79552 0.0
C1545 C 0.84959 0.35731 0.77463 0.0
C1546 C 0.83859 0.37452 0.77671 0.0
C1547 C 0.8299 0.37964 0.79877 0.0
H1548 H 0.69124 0.89168 0.72714 0.0
H1549 H 0.66862 0.83969 0.69335 0.0
H1550 H 0.67605 0.88218 0.76538 0.0
H1551 H 0.65389 0.83 0.73151 0.0
H1552 H 0.62151 0.81961 0.8006 0.0
H1553 H 0.62995 0.83574 0.76256 0.0
H1554 H 0.68279 0.8575 0.79521 0.0
H1555 H 0.67416 0.84183 0.83318 0.0
C1556 C 0.68279 0.87838 0.72775 0.0
C1557 C 0.68129 0.86638 0.70721 0.0
C1558 C 0.67419 0.87286 0.74973 0.0
C1559 C 0.66388 0.85521 0.75166 0.0
C1560 C 0.66152 0.84377 0.73073 0.0
C1561 C 0.67011 0.84929 0.70881 0.0
C1562 C 0.63474 0.82815 0.79977 0.0
C1563 C 0.64723 0.82929 0.8199 0.0
C1564 C 0.63965 0.83729 0.7779 0.0
C1565 C 0.65715 0.8478 0.77568 0.0
C1566 C 0.6691 0.84974 0.79624 0.0
C1567 C 0.6642 0.84061 0.81804 0.0
H1568 H 0.84105 0.6705 0.69131 0.0
H1569 H 0.89299 0.69395 0.72432 0.0
H1570 H 0.83241 0.65492 0.72936 0.0
H1571 H 0.88452 0.67798 0.76244 0.0
H1572 H 0.84458 0.67489 0.83078 0.0
H1573 H 0.85981 0.68406 0.79272 0.0
H1574 H 0.83941 0.6307 0.76004 0.0
H1575 H 0.82378 0.62166 0.7982 0.0
C1576 C 0.85087 0.67199 0.70655 0.0
C1577 C 0.86762 0.68366 0.7048 0.0
C1578 C 0.84596 0.66292 0.7284 0.0
C1579 C 0.85766 0.6653 0.74911 0.0
C1580 C 0.87501 0.67608 0.74697 0.0
C1581 C 0.87995 0.68513 0.72505 0.0
C1582 C 0.8436 0.66492 0.81563 0.0
C1583 C 0.83278 0.64762 0.81751 0.0
C1584 C 0.85247 0.67014 0.79377 0.0
C1585 C 0.85074 0.65821 0.77318 0.0
C1586 C 0.8408 0.64038 0.77543 0.0
C1587 C 0.83194 0.63513 0.79736 0.0
H1588 H 0.39267 0.82151 0.79705 0.0
H1589 H 0.33929 0.84235 0.8292 0.0
H1590 H 0.38393 0.83734 0.7589 0.0
H1591 H 0.3304 0.85773 0.79113 0.0
H1592 H 0.34493 0.83942 0.68966 0.0
H1593 H 0.3601 0.83057 0.7279 0.0
H1594 H 0.33654 0.88243 0.76104 0.0
H1595 H 0.32095 0.89109 0.72273 0.0
C1596 C 0.37923 0.82972 0.79611 0.0
C1597 C 0.36661 0.83052 0.81614 0.0
C1598 C 0.37415 0.83868 0.77419 0.0
C1599 C 0.35636 0.84867 0.7718 0.0
C1600 C 0.34429 0.85036 0.79228 0.0
C1601 C 0.34935 0.8414 0.81415 0.0
C1602 C 0.34324 0.84913 0.70497 0.0
C1603 C 0.33154 0.86587 0.70317 0.0
C1604 C 0.35206 0.84411 0.72693 0.0
C1605 C 0.34944 0.85569 0.74769 0.0
C1606 C 0.33862 0.87301 0.74553 0.0
C1607 C 0.32979 0.87805 0.72351 0.0
H1608 H 0.1215 0.31836 0.72368 0.0
H1609 H 0.17375 0.34166 0.69127 0.0
H1610 H 0.12998 0.33394 0.76205 0.0
H1611 H 0.18241 0.35682 0.72958 0.0
H1612 H 0.19055 0.38999 0.79869 0.0
H1613 H 0.17541 0.38095 0.76023 0.0
H1614 H 0.15435 0.32773 0.79262 0.0
H1615 H 0.16906 0.33692 0.83099 0.0
C1616 C 0.13464 0.32703 0.72462 0.0
C1617 C 0.14702 0.32862 0.70443 0.0
C1618 C 0.13958 0.33586 0.74667 0.0
C1619 C 0.15699 0.3465 0.74904 0.0
C1620 C 0.1688 0.34893 0.72844 0.0
C1621 C 0.16388 0.3401 0.70644 0.0
C1622 C 0.18237 0.37655 0.79771 0.0
C1623 C 0.18116 0.36412 0.81789 0.0
C1624 C 0.1738 0.37129 0.7756 0.0
C1625 C 0.16378 0.35352 0.7732 0.0
C1626 C 0.16174 0.34161 0.79378 0.0
C1627 C 0.17032 0.34684 0.81582 0.0
H1628 H 0.6702 0.17415 0.69117 0.0
H1629 H 0.69289 0.12147 0.72322 0.0
H1630 H 0.655 0.18271 0.72946 0.0
H1631 H 0.67725 0.12986 0.76158 0.0
H1632 H 0.67458 0.16875 0.83079 0.0
H1633 H 0.68352 0.15383 0.79247 0.0
H1634 H 0.63079 0.17597 0.75993 0.0
H1635 H 0.62203 0.19135 0.79833 0.0
C1636 C 0.67161 0.16416 0.70625 0.0
C1637 C 0.68294 0.14721 0.70415 0.0
C1638 C 0.66276 0.16903 0.72825 0.0
C1639 C 0.66499 0.15707 0.74876 0.0
C1640 C 0.67547 0.13957 0.74628 0.0
C1641 C 0.68433 0.13469 0.72423 0.0
C1642 C 0.66469 0.17018 0.81561 0.0
C1643 C 0.64767 0.18143 0.81761 0.0
C1644 C 0.66978 0.16149 0.79359 0.0
C1645 C 0.65798 0.16381 0.77296 0.0
C1646 C 0.64038 0.17415 0.77533 0.0
C1647 C 0.63528 0.18285 0.79741 0.0
H1648 H 0.84211 0.3406 0.19287 0.0
H1649 H 0.82018 0.39355 0.225 0.0
H1650 H 0.85741 0.33189 0.23107 0.0
H1651 H 0.83591 0.385 0.26327 0.0
H1652 H 0.83886 0.34619 0.33257 0.0
H1653 H 0.82962 0.36101 0.29427 0.0
H1654 H 0.88199 0.33861 0.26117 0.0
H1655 H 0.89107 0.32336 0.29955 0.0
C1656 C 0.84088 0.3506 0.20796 0.0
C1657 C 0.82975 0.3677 0.2059 0.0
C1658 C 0.84979 0.34565 0.22989 0.0
C1659 C 0.84781 0.35766 0.25038 0.0
C1660 C 0.83749 0.37527 0.24797 0.0
C1661 C 0.82858 0.38024 0.22598 0.0
C1662 C 0.8486 0.34468 0.31726 0.0
C1663 C 0.86562 0.33341 0.3191 0.0
C1664 C 0.84334 0.35331 0.29526 0.0
C1665 C 0.85496 0.3509 0.2745 0.0
C1666 C 0.87254 0.3405 0.27668 0.0
C1667 C 0.87781 0.33187 0.29874 0.0
H1668 H 0.62081 0.82334 0.22572 0.0
H1669 H 0.67379 0.84519 0.19358 0.0
H1670 H 0.62958 0.83871 0.26412 0.0
H1671 H 0.68272 0.86014 0.23191 0.0
H1672 H 0.69207 0.89245 0.30126 0.0
H1673 H 0.67643 0.8843 0.26279 0.0
H1674 H 0.65383 0.83146 0.29456 0.0
H1675 H 0.66906 0.83978 0.33293 0.0
C1676 C 0.63416 0.83169 0.22671 0.0
C1677 C 0.64668 0.83288 0.20662 0.0
C1678 C 0.63926 0.84039 0.24878 0.0
C1679 C 0.65697 0.85051 0.25124 0.0
C1680 C 0.66889 0.85264 0.2307 0.0
C1681 C 0.66381 0.84394 0.20869 0.0
C1682 C 0.68344 0.87929 0.30014 0.0
C1683 C 0.68196 0.86669 0.32013 0.0
C1684 C 0.67457 0.87455 0.27804 0.0
C1685 C 0.66398 0.85713 0.27546 0.0
C1686 C 0.66167 0.84509 0.29587 0.0
C1687 C 0.67054 0.84981 0.3179 0.0
H1688 H 0.124 0.68997 0.30019 0.0
H1689 H 0.1773 0.66885 0.33229 0.0
H1690 H 0.1326 0.67409 0.26203 0.0
H1691 H 0.18604 0.65338 0.29423 0.0
H1692 H 0.1948 0.61929 0.22632 0.0
H1693 H 0.17936 0.62843 0.26453 0.0
H1694 H 0.15649 0.68037 0.23081 0.0
H1695 H 0.17152 0.67105 0.19266 0.0
C1696 C 0.1374 0.68172 0.29923 0.0
C1697 C 0.15002 0.68082 0.31926 0.0
C1698 C 0.1424 0.67271 0.2773 0.0
C1699 C 0.16009 0.66255 0.27494 0.0
C1700 C 0.1722 0.66086 0.29538 0.0
C1701 C 0.16724 0.66988 0.31723 0.0
C1702 C 0.18613 0.63244 0.22694 0.0
C1703 C 0.18455 0.64451 0.20646 0.0
C1704 C 0.17739 0.63776 0.2489 0.0
C1705 C 0.16685 0.65526 0.25088 0.0
C1706 C 0.16434 0.66672 0.22998 0.0
C1707 C 0.17308 0.66141 0.20807 0.0
H1708 H 0.32064 0.12063 0.30024 0.0
H1709 H 0.34403 0.17292 0.33245 0.0
H1710 H 0.3364 0.12889 0.2619 0.0
H1711 H 0.35936 0.18135 0.2942 0.0
H1712 H 0.39182 0.19014 0.22505 0.0
H1713 H 0.38334 0.17444 0.26336 0.0
H1714 H 0.32997 0.15328 0.23143 0.0
H1715 H 0.33862 0.16854 0.1932 0.0
C1716 C 0.32941 0.1337 0.29928 0.0
C1717 C 0.33092 0.1462 0.31937 0.0
C1718 C 0.33833 0.13852 0.27725 0.0
C1719 C 0.349 0.1559 0.27482 0.0
C1720 C 0.35144 0.16776 0.29537 0.0
C1721 C 0.34252 0.16297 0.31734 0.0
C1722 C 0.37849 0.18178 0.22608 0.0
C1723 C 0.36582 0.18075 0.20611 0.0
C1724 C 0.37355 0.17289 0.2481 0.0
C1725 C 0.35586 0.16273 0.25061 0.0
C1726 C 0.34379 0.16079 0.23017 0.0
C1727 C 0.3487 0.16968 0.20822 0.0
loop_
_geom_bond_atom_site_label_1
_geom_bond_atom_site_label_2
_geom_bond_distance
_geom_bond_site_symmetry_2
_ccdc_geom_bond_type
O0 Cd1 2.223 . S
O0 C8 1.315 . S
Cd1 O0 2.223 . S
Cd1 O4 2.297 . S
Cd1 O5 2.439 . S
Cd1 O11 2.240 . S
Cd2 O3 2.240 . S
Cd2 O10 2.223 . S
Cd2 O12 2.297 . S
Cd2 O13 2.439 . S
O3 Cd2 2.240 . S
O3 C8 1.279 . S
O4 Cd1 2.297 . S
O4 C6 1.247 . S
O5 Cd1 2.439 . S
O5 C6 1.208 . S
C6 O4 1.247 . S
C6 O5 1.208 . S
C7 O12 1.247 . S
C7 O13 1.208 . S
C8 O0 1.315 . S
C8 O3 1.279 . S
C9 O10 1.315 . S
C9 O11 1.279 . S
O10 Cd2 2.223 . S
O10 C9 1.315 . S
O11 Cd1 2.240 . S
O11 C9 1.279 . S
O12 Cd2 2.297 . S
O12 C7 1.247 . S
O13 Cd2 2.439 . S
O13 C7 1.208 . S
O14 Cd15 2.223 . S
O14 C22 1.315 . S
Cd15 O14 2.223 . S
Cd15 O18 2.297 . S
Cd15 O19 2.439 . S
Cd15 O25 2.240 . S
Cd16 O17 2.240 . S
Cd16 O24 2.223 . S
Cd16 O26 2.297 . S
Cd16 O27 2.439 . S
O17 Cd16 2.240 . S
O17 C22 1.279 . S
O18 Cd15 2.297 . S
O18 C20 1.247 . S
O19 Cd15 2.439 . S
O19 C20 1.208 . S
C20 O18 1.247 . S
C20 O19 1.208 . S
C21 O26 1.247 . S
C21 O27 1.208 . S
C22 O14 1.315 . S
C22 O17 1.279 . S
C23 O24 1.315 . S
C23 O25 1.279 . S
O24 Cd16 2.223 . S
O24 C23 1.315 . S
O25 Cd15 2.240 . S
O25 C23 1.279 . S
O26 Cd16 2.297 . S
O26 C21 1.247 . S
O27 Cd16 2.439 . S
O27 C21 1.208 . S
O28 Cd29 2.223 . S
O28 C36 1.315 . S
Cd29 O28 2.223 . S
Cd29 O32 2.297 . S
Cd29 O33 2.439 . S
Cd29 O39 2.240 . S
Cd30 O31 2.240 . S
Cd30 O38 2.223 . S
Cd30 O40 2.297 . S
Cd30 O41 2.439 . S
O31 Cd30 2.240 . S
O31 C36 1.279 . S
O32 Cd29 2.297 . S
O32 C34 1.247 . S
O33 Cd29 2.439 . S
O33 C34 1.208 . S
C34 O32 1.247 . S
C34 O33 1.208 . S
C35 O40 1.247 . S
C35 O41 1.208 . S
C36 O28 1.315 . S
C36 O31 1.279 . S
C37 O38 1.315 . S
C37 O39 1.279 . S
O38 Cd30 2.223 . S
O38 C37 1.315 . S
O39 Cd29 2.240 . S
O39 C37 1.279 . S
O40 Cd30 2.297 . S
O40 C35 1.247 . S
O41 Cd30 2.439 . S
O41 C35 1.208 . S
O42 Cd43 2.223 . S
O42 C50 1.315 . S
Cd43 O42 2.223 . S
Cd43 O46 2.297 . S
Cd43 O47 2.439 . S
Cd43 O53 2.240 . S
Cd44 O45 2.240 . S
Cd44 O52 2.223 . S
Cd44 O54 2.297 . S
Cd44 O55 2.439 . S
O45 Cd44 2.240 . S
O45 C50 1.279 . S
O46 Cd43 2.297 . S
O46 C48 1.247 . S
O47 Cd43 2.439 . S
O47 C48 1.208 . S
C48 O46 1.247 . S
C48 O47 1.208 . S
C49 O54 1.247 . S
C49 O55 1.208 . S
C50 O42 1.315 . S
C50 O45 1.279 . S
C51 O52 1.315 . S
C51 O53 1.279 . S
O52 Cd44 2.223 . S
O52 C51 1.315 . S
O53 Cd43 2.240 . S
O53 C51 1.279 . S
O54 Cd44 2.297 . S
O54 C49 1.247 . S
O55 Cd44 2.439 . S
O55 C49 1.208 . S
O56 Cd57 2.223 . S
O56 C64 1.315 . S
Cd57 O56 2.223 . S
Cd57 O60 2.297 . S
Cd57 O61 2.439 . S
Cd57 O67 2.240 . S
Cd58 O59 2.240 . S
Cd58 O66 2.223 . S
Cd58 O68 2.297 . S
Cd58 O69 2.439 . S
O59 Cd58 2.240 . S
O59 C64 1.279 . S
O60 Cd57 2.297 . S
O60 C62 1.247 . S
O61 Cd57 2.439 . S
O61 C62 1.208 . S
C62 O60 1.247 . S
C62 O61 1.208 . S
C63 O68 1.247 . S
C63 O69 1.208 . S
C64 O56 1.315 . S
C64 O59 1.279 . S
C65 O66 1.315 . S
C65 O67 1.279 . S
O66 Cd58 2.223 . S
O66 C65 1.315 . S
O67 Cd57 2.240 . S
O67 C65 1.279 . S
O68 Cd58 2.297 . S
O68 C63 1.247 . S
O69 Cd58 2.439 . S
O69 C63 1.208 . S
O70 Cd71 2.223 . S
O70 C78 1.315 . S
Cd71 O70 2.223 . S
Cd71 O74 2.297 . S
Cd71 O75 2.439 . S
Cd71 O81 2.240 . S
Cd72 O73 2.240 . S
Cd72 O80 2.223 . S
Cd72 O82 2.297 . S
Cd72 O83 2.439 . S
O73 Cd72 2.240 . S
O73 C78 1.279 . S
O74 Cd71 2.297 . S
O74 C76 1.247 . S
O75 Cd71 2.439 . S
O75 C76 1.208 . S
C76 O74 1.247 . S
C76 O75 1.208 . S
C77 O82 1.247 . S
C77 O83 1.208 . S
C78 O70 1.315 . S
C78 O73 1.279 . S
C79 O80 1.315 . S
C79 O81 1.279 . S
O80 Cd72 2.223 . S
O80 C79 1.315 . S
O81 Cd71 2.240 . S
O81 C79 1.279 . S
O82 Cd72 2.297 . S
O82 C77 1.247 . S
O83 Cd72 2.439 . S
O83 C77 1.208 . S
O84 Cd85 2.223 . S
O84 C92 1.315 . S
Cd85 O84 2.223 . S
Cd85 O88 2.297 . S
Cd85 O89 2.439 . S
Cd85 O95 2.240 . S
Cd86 O87 2.240 . S
Cd86 O94 2.223 . S
Cd86 O96 2.297 . S
Cd86 O97 2.439 . S
O87 Cd86 2.240 . S
O87 C92 1.279 . S
O88 Cd85 2.297 . S
O88 C90 1.247 . S
O89 Cd85 2.439 . S
O89 C90 1.208 . S
C90 O88 1.247 . S
C90 O89 1.208 . S
C91 O96 1.247 . S
C91 O97 1.208 . S
C92 O84 1.315 . S
C92 O87 1.279 . S
C93 O94 1.315 . S
C93 O95 1.279 . S
O94 Cd86 2.223 . S
O94 C93 1.315 . S
O95 Cd85 2.240 . S
O95 C93 1.279 . S
O96 Cd86 2.297 . S
O96 C91 1.247 . S
O97 Cd86 2.439 . S
O97 C91 1.208 . S
O98 Cd99 2.223 . S
O98 C106 1.315 . S
Cd99 O98 2.223 . S
Cd99 O102 2.297 . S
Cd99 O103 2.439 . S
Cd99 O109 2.240 . S
Cd100 O101 2.240 . S
Cd100 O108 2.223 . S
Cd100 O110 2.297 . S
Cd100 O111 2.439 . S
O101 Cd100 2.240 . S
O101 C106 1.279 . S
O102 Cd99 2.297 . S
O102 C104 1.247 . S
O103 Cd99 2.439 . S
O103 C104 1.208 . S
C104 O102 1.247 . S
C104 O103 1.208 . S
C105 O110 1.247 . S
C105 O111 1.208 . S
C106 O98 1.315 . S
C106 O101 1.279 . S
C107 O108 1.315 . S
C107 O109 1.279 . S
O108 Cd100 2.223 . S
O108 C107 1.315 . S
O109 Cd99 2.240 . S
O109 C107 1.279 . S
O110 Cd100 2.297 . S
O110 C105 1.247 . S
O111 Cd100 2.439 . S
O111 C105 1.208 . S
O112 Cd113 2.223 . S
O112 C120 1.315 . S
Cd113 O112 2.223 . S
Cd113 O116 2.297 . S
Cd113 O117 2.439 . S
Cd113 O123 2.240 . S
Cd114 O115 2.240 . S
Cd114 O122 2.223 . S
Cd114 O124 2.297 . S
Cd114 O125 2.439 . S
O115 Cd114 2.240 . S
O115 C120 1.279 . S
O116 Cd113 2.297 . S
O116 C118 1.247 . S
O117 Cd113 2.439 . S
O117 C118 1.208 . S
C118 O116 1.247 . S
C118 O117 1.208 . S
C119 O124 1.247 . S
C119 O125 1.208 . S
C120 O112 1.315 . S
C120 O115 1.279 . S
C121 O122 1.315 . S
C121 O123 1.279 . S
O122 Cd114 2.223 . S
O122 C121 1.315 . S
O123 Cd113 2.240 . S
O123 C121 1.279 . S
O124 Cd114 2.297 . S
O124 C119 1.247 . S
O125 Cd114 2.439 . S
O125 C119 1.208 . S
O126 Cd127 2.223 . S
O126 C134 1.315 . S
Cd127 O126 2.223 . S
Cd127 O130 2.297 . S
Cd127 O131 2.439 . S
Cd127 O137 2.240 . S
Cd128 O129 2.240 . S
Cd128 O136 2.223 . S
Cd128 O138 2.297 . S
Cd128 O139 2.439 . S
O129 Cd128 2.240 . S
O129 C134 1.279 . S
O130 Cd127 2.297 . S
O130 C132 1.247 . S
O131 Cd127 2.439 . S
O131 C132 1.208 . S
C132 O130 1.247 . S
C132 O131 1.208 . S
C133 O138 1.247 . S
C133 O139 1.208 . S
C134 O126 1.315 . S
C134 O129 1.279 . S
C135 O136 1.315 . S
C135 O137 1.279 . S
O136 Cd128 2.223 . S
O136 C135 1.315 . S
O137 Cd127 2.240 . S
O137 C135 1.279 . S
O138 Cd128 2.297 . S
O138 C133 1.247 . S
O139 Cd128 2.439 . S
O139 C133 1.208 . S
O140 Cd141 2.223 . S
O140 C148 1.315 . S
Cd141 O140 2.223 . S
Cd141 O144 2.297 . S
Cd141 O145 2.439 . S
Cd141 O151 2.240 . S
Cd142 O143 2.240 . S
Cd142 O150 2.223 . S
Cd142 O152 2.297 . S
Cd142 O153 2.439 . S
O143 Cd142 2.240 . S
O143 C148 1.279 . S
O144 Cd141 2.297 . S
O144 C146 1.247 . S
O145 Cd141 2.439 . S
O145 C146 1.208 . S
C146 O144 1.247 . S
C146 O145 1.208 . S
C147 O152 1.247 . S
C147 O153 1.208 . S
C148 O140 1.315 . S
C148 O143 1.279 . S
C149 O150 1.315 . S
C149 O151 1.279 . S
O150 Cd142 2.223 . S
O150 C149 1.315 . S
O151 Cd141 2.240 . S
O151 C149 1.279 . S
O152 Cd142 2.297 . S
O152 C147 1.247 . S
O153 Cd142 2.439 . S
O153 C147 1.208 . S
O154 Cd155 2.223 . S
O154 C162 1.315 . S
Cd155 O154 2.223 . S
Cd155 O158 2.297 . S
Cd155 O159 2.439 . S
Cd155 O165 2.240 . S
Cd156 O157 2.240 . S
Cd156 O164 2.223 . S
Cd156 O166 2.297 . S
Cd156 O167 2.439 . S
O157 Cd156 2.240 . S
O157 C162 1.279 . S
O158 Cd155 2.297 . S
O158 C160 1.247 . S
O159 Cd155 2.439 . S
O159 C160 1.208 . S
C160 O158 1.247 . S
C160 O159 1.208 . S
C161 O166 1.247 . S
C161 O167 1.208 . S
C162 O154 1.315 . S
C162 O157 1.279 . S
C163 O164 1.315 . S
C163 O165 1.279 . S
O164 Cd156 2.223 . S
O164 C163 1.315 . S
O165 Cd155 2.240 . S
O165 C163 1.279 . S
O166 Cd156 2.297 . S
O166 C161 1.247 . S
O167 Cd156 2.439 . S
O167 C161 1.208 . S
O168 Cd169 2.223 . S
O168 C176 1.315 . S
Cd169 O168 2.223 . S
Cd169 O172 2.297 . S
Cd169 O173 2.439 . S
Cd169 O179 2.240 . S
Cd170 O171 2.240 . S
Cd170 O178 2.223 . S
Cd170 O180 2.297 . S
Cd170 O181 2.439 . S
O171 Cd170 2.240 . S
O171 C176 1.279 . S
O172 Cd169 2.297 . S
O172 C174 1.247 . S
O173 Cd169 2.439 . S
O173 C174 1.208 . S
C174 O172 1.247 . S
C174 O173 1.208 . S
C175 O180 1.247 . S
C175 O181 1.208 . S
C176 O168 1.315 . S
C176 O171 1.279 . S
C177 O178 1.315 . S
C177 O179 1.279 . S
O178 Cd170 2.223 . S
O178 C177 1.315 . S
O179 Cd169 2.240 . S
O179 C177 1.279 . S
O180 Cd170 2.297 . S
O180 C175 1.247 . S
O181 Cd170 2.439 . S
O181 C175 1.208 . S
O182 Cd183 2.223 . S
O182 C190 1.315 . S
Cd183 O182 2.223 . S
Cd183 O186 2.297 . S
Cd183 O187 2.439 . S
Cd183 O193 2.240 . S
Cd184 O185 2.240 . S
Cd184 O192 2.223 . S
Cd184 O194 2.297 . S
Cd184 O195 2.439 . S
O185 Cd184 2.240 . S
O185 C190 1.279 . S
O186 Cd183 2.297 . S
O186 C188 1.247 . S
O187 Cd183 2.439 . S
O187 C188 1.208 . S
C188 O186 1.247 . S
C188 O187 1.208 . S
C189 O194 1.247 . S
C189 O195 1.208 . S
C190 O182 1.315 . S
C190 O185 1.279 . S
C191 O192 1.315 . S
C191 O193 1.279 . S
O192 Cd184 2.223 . S
O192 C191 1.315 . S
O193 Cd183 2.240 . S
O193 C191 1.279 . S
O194 Cd184 2.297 . S
O194 C189 1.247 . S
O195 Cd184 2.439 . S
O195 C189 1.208 . S
O196 Cd197 2.223 . S
O196 C204 1.315 . S
Cd197 O196 2.223 . S
Cd197 O200 2.297 . S
Cd197 O201 2.439 . S
Cd197 O207 2.240 . S
Cd198 O199 2.240 . S
Cd198 O206 2.223 . S
Cd198 O208 2.297 . S
Cd198 O209 2.439 . S
O199 Cd198 2.240 . S
O199 C204 1.279 . S
O200 Cd197 2.297 . S
O200 C202 1.247 . S
O201 Cd197 2.439 . S
O201 C202 1.208 . S
C202 O200 1.247 . S
C202 O201 1.208 . S
C203 O208 1.247 . S
C203 O209 1.208 . S
C204 O196 1.315 . S
C204 O199 1.279 . S
C205 O206 1.315 . S
C205 O207 1.279 . S
O206 Cd198 2.223 . S
O206 C205 1.315 . S
O207 Cd197 2.240 . S
O207 C205 1.279 . S
O208 Cd198 2.297 . S
O208 C203 1.247 . S
O209 Cd198 2.439 . S
O209 C203 1.208 . S
O210 Cd211 2.223 . S
O210 C218 1.315 . S
Cd211 O210 2.223 . S
Cd211 O214 2.297 . S
Cd211 O215 2.439 . S
Cd211 O221 2.240 . S
Cd212 O213 2.240 . S
Cd212 O220 2.223 . S
Cd212 O222 2.297 . S
Cd212 O223 2.439 . S
O213 Cd212 2.240 . S
O213 C218 1.279 . S
O214 Cd211 2.297 . S
O214 C216 1.247 . S
O215 Cd211 2.439 . S
O215 C216 1.208 . S
C216 O214 1.247 . S
C216 O215 1.208 . S
C217 O222 1.247 . S
C217 O223 1.208 . S
C218 O210 1.315 . S
C218 O213 1.279 . S
C219 O220 1.315 . S
C219 O221 1.279 . S
O220 Cd212 2.223 . S
O220 C219 1.315 . S
O221 Cd211 2.240 . S
O221 C219 1.279 . S
O222 Cd212 2.297 . S
O222 C217 1.247 . S
O223 Cd212 2.439 . S
O223 C217 1.208 . S
O224 Cd225 2.223 . S
O224 C232 1.315 . S
Cd225 O224 2.223 . S
Cd225 O228 2.297 . S
Cd225 O229 2.439 . S
Cd225 O235 2.240 . S
Cd226 O227 2.240 . S
Cd226 O234 2.223 . S
Cd226 O236 2.297 . S
Cd226 O237 2.439 . S
O227 Cd226 2.240 . S
O227 C232 1.279 . S
O228 Cd225 2.297 . S
O228 C230 1.247 . S
O229 Cd225 2.439 . S
O229 C230 1.208 . S
C230 O228 1.247 . S
C230 O229 1.208 . S
C231 O236 1.247 . S
C231 O237 1.208 . S
C232 O224 1.315 . S
C232 O227 1.279 . S
C233 O234 1.315 . S
C233 O235 1.279 . S
O234 Cd226 2.223 . S
O234 C233 1.315 . S
O235 Cd225 2.240 . S
O235 C233 1.279 . S
O236 Cd226 2.297 . S
O236 C231 1.247 . S
O237 Cd226 2.439 . S
O237 C231 1.208 . S
O238 Cd239 2.223 . S
O238 C246 1.315 . S
Cd239 O238 2.223 . S
Cd239 O242 2.297 . S
Cd239 O243 2.439 . S
Cd239 O249 2.240 . S
Cd240 O241 2.240 . S
Cd240 O248 2.223 . S
Cd240 O250 2.297 . S
Cd240 O251 2.439 . S
O241 Cd240 2.240 . S
O241 C246 1.279 . S
O242 Cd239 2.297 . S
O242 C244 1.247 . S
O243 Cd239 2.439 . S
O243 C244 1.208 . S
C244 O242 1.247 . S
C244 O243 1.208 . S
C245 O250 1.247 . S
C245 O251 1.208 . S
C246 O238 1.315 . S
C246 O241 1.279 . S
C247 O248 1.315 . S
C247 O249 1.279 . S
O248 Cd240 2.223 . S
O248 C247 1.315 . S
O249 Cd239 2.240 . S
O249 C247 1.279 . S
O250 Cd240 2.297 . S
O250 C245 1.247 . S
O251 Cd240 2.439 . S
O251 C245 1.208 . S
O252 Cd253 2.223 . S
O252 C260 1.315 . S
Cd253 O252 2.223 . S
Cd253 O256 2.297 . S
Cd253 O257 2.439 . S
Cd253 O263 2.240 . S
Cd254 O255 2.240 . S
Cd254 O262 2.223 . S
Cd254 O264 2.297 . S
Cd254 O265 2.439 . S
O255 Cd254 2.240 . S
O255 C260 1.279 . S
O256 Cd253 2.297 . S
O256 C258 1.247 . S
O257 Cd253 2.439 . S
O257 C258 1.208 . S
C258 O256 1.247 . S
C258 O257 1.208 . S
C259 O264 1.247 . S
C259 O265 1.208 . S
C260 O252 1.315 . S
C260 O255 1.279 . S
C261 O262 1.315 . S
C261 O263 1.279 . S
O262 Cd254 2.223 . S
O262 C261 1.315 . S
O263 Cd253 2.240 . S
O263 C261 1.279 . S
O264 Cd254 2.297 . S
O264 C259 1.247 . S
O265 Cd254 2.439 . S
O265 C259 1.208 . S
O266 Cd267 2.223 . S
O266 C274 1.315 . S
Cd267 O266 2.223 . S
Cd267 O270 2.297 . S
Cd267 O271 2.439 . S
Cd267 O277 2.240 . S
Cd268 O269 2.240 . S
Cd268 O276 2.223 . S
Cd268 O278 2.297 . S
Cd268 O279 2.439 . S
O269 Cd268 2.240 . S
O269 C274 1.279 . S
O270 Cd267 2.297 . S
O270 C272 1.247 . S
O271 Cd267 2.439 . S
O271 C272 1.208 . S
C272 O270 1.247 . S
C272 O271 1.208 . S
C273 O278 1.247 . S
C273 O279 1.208 . S
C274 O266 1.315 . S
C274 O269 1.279 . S
C275 O276 1.315 . S
C275 O277 1.279 . S
O276 Cd268 2.223 . S
O276 C275 1.315 . S
O277 Cd267 2.240 . S
O277 C275 1.279 . S
O278 Cd268 2.297 . S
O278 C273 1.247 . S
O279 Cd268 2.439 . S
O279 C273 1.208 . S
O280 Cd281 2.223 . S
O280 C288 1.315 . S
Cd281 O280 2.223 . S
Cd281 O284 2.297 . S
Cd281 O285 2.439 . S
Cd281 O291 2.240 . S
Cd282 O283 2.240 . S
Cd282 O290 2.223 . S
Cd282 O292 2.297 . S
Cd282 O293 2.439 . S
O283 Cd282 2.240 . S
O283 C288 1.279 . S
O284 Cd281 2.297 . S
O284 C286 1.247 . S
O285 Cd281 2.439 . S
O285 C286 1.208 . S
C286 O284 1.247 . S
C286 O285 1.208 . S
C287 O292 1.247 . S
C287 O293 1.208 . S
C288 O280 1.315 . S
C288 O283 1.279 . S
C289 O290 1.315 . S
C289 O291 1.279 . S
O290 Cd282 2.223 . S
O290 C289 1.315 . S
O291 Cd281 2.240 . S
O291 C289 1.279 . S
O292 Cd282 2.297 . S
O292 C287 1.247 . S
O293 Cd282 2.439 . S
O293 C287 1.208 . S
O294 Cd295 2.223 . S
O294 C302 1.315 . S
Cd295 O294 2.223 . S
Cd295 O298 2.297 . S
Cd295 O299 2.439 . S
Cd295 O305 2.240 . S
Cd296 O297 2.240 . S
Cd296 O304 2.223 . S
Cd296 O306 2.297 . S
Cd296 O307 2.439 . S
O297 Cd296 2.240 . S
O297 C302 1.279 . S
O298 Cd295 2.297 . S
O298 C300 1.247 . S
O299 Cd295 2.439 . S
O299 C300 1.208 . S
C300 O298 1.247 . S
C300 O299 1.208 . S
C301 O306 1.247 . S
C301 O307 1.208 . S
C302 O294 1.315 . S
C302 O297 1.279 . S
C303 O304 1.315 . S
C303 O305 1.279 . S
O304 Cd296 2.223 . S
O304 C303 1.315 . S
O305 Cd295 2.240 . S
O305 C303 1.279 . S
O306 Cd296 2.297 . S
O306 C301 1.247 . S
O307 Cd296 2.439 . S
O307 C301 1.208 . S
O308 Cd309 2.223 . S
O308 C316 1.315 . S
Cd309 O308 2.223 . S
Cd309 O312 2.297 . S
Cd309 O313 2.439 . S
Cd309 O319 2.240 . S
Cd310 O311 2.240 . S
Cd310 O318 2.223 . S
Cd310 O320 2.297 . S
Cd310 O321 2.439 . S
O311 Cd310 2.240 . S
O311 C316 1.279 . S
O312 Cd309 2.297 . S
O312 C314 1.247 . S
O313 Cd309 2.439 . S
O313 C314 1.208 . S
C314 O312 1.247 . S
C314 O313 1.208 . S
C315 O320 1.247 . S
C315 O321 1.208 . S
C316 O308 1.315 . S
C316 O311 1.279 . S
C317 O318 1.315 . S
C317 O319 1.279 . S
O318 Cd310 2.223 . S
O318 C317 1.315 . S
O319 Cd309 2.240 . S
O319 C317 1.279 . S
O320 Cd310 2.297 . S
O320 C315 1.247 . S
O321 Cd310 2.439 . S
O321 C315 1.208 . S
O322 Cd323 2.223 . S
O322 C330 1.315 . S
Cd323 O322 2.223 . S
Cd323 O326 2.297 . S
Cd323 O327 2.439 . S
Cd323 O333 2.240 . S
Cd324 O325 2.240 . S
Cd324 O332 2.223 . S
Cd324 O334 2.297 . S
Cd324 O335 2.439 . S
O325 Cd324 2.240 . S
O325 C330 1.279 . S
O326 Cd323 2.297 . S
O326 C328 1.247 . S
O327 Cd323 2.439 . S
O327 C328 1.208 . S
C328 O326 1.247 . S
C328 O327 1.208 . S
C329 O334 1.247 . S
C329 O335 1.208 . S
C330 O322 1.315 . S
C330 O325 1.279 . S
C331 O332 1.315 . S
C331 O333 1.279 . S
O332 Cd324 2.223 . S
O332 C331 1.315 . S
O333 Cd323 2.240 . S
O333 C331 1.279 . S
O334 Cd324 2.297 . S
O334 C329 1.247 . S
O335 Cd324 2.439 . S
O335 C329 1.208 . S
O336 Cd337 2.223 . S
O336 C344 1.315 . S
Cd337 O336 2.223 . S
Cd337 O340 2.297 . S
Cd337 O341 2.439 . S
Cd337 O347 2.240 . S
Cd338 O339 2.240 . S
Cd338 O346 2.223 . S
Cd338 O348 2.297 . S
Cd338 O349 2.439 . S
O339 Cd338 2.240 . S
O339 C344 1.279 . S
O340 Cd337 2.297 . S
O340 C342 1.247 . S
O341 Cd337 2.439 . S
O341 C342 1.208 . S
C342 O340 1.247 . S
C342 O341 1.208 . S
C343 O348 1.247 . S
C343 O349 1.208 . S
C344 O336 1.315 . S
C344 O339 1.279 . S
C345 O346 1.315 . S
C345 O347 1.279 . S
O346 Cd338 2.223 . S
O346 C345 1.315 . S
O347 Cd337 2.240 . S
O347 C345 1.279 . S
O348 Cd338 2.297 . S
O348 C343 1.247 . S
O349 Cd338 2.439 . S
O349 C343 1.208 . S
O350 Cd351 2.223 . S
O350 C358 1.315 . S
Cd351 O350 2.223 . S
Cd351 O354 2.297 . S
Cd351 O355 2.439 . S
Cd351 O361 2.240 . S
Cd352 O353 2.240 . S
Cd352 O360 2.223 . S
Cd352 O362 2.297 . S
Cd352 O363 2.439 . S
O353 Cd352 2.240 . S
O353 C358 1.279 . S
O354 Cd351 2.297 . S
O354 C356 1.247 . S
O355 Cd351 2.439 . S
O355 C356 1.208 . S
C356 O354 1.247 . S
C356 O355 1.208 . S
C357 O362 1.247 . S
C357 O363 1.208 . S
C358 O350 1.315 . S
C358 O353 1.279 . S
C359 O360 1.315 . S
C359 O361 1.279 . S
O360 Cd352 2.223 . S
O360 C359 1.315 . S
O361 Cd351 2.240 . S
O361 C359 1.279 . S
O362 Cd352 2.297 . S
O362 C357 1.247 . S
O363 Cd352 2.439 . S
O363 C357 1.208 . S
O364 Cd365 2.223 . S
O364 C372 1.315 . S
Cd365 O364 2.223 . S
Cd365 O368 2.297 . S
Cd365 O369 2.439 . S
Cd365 O375 2.240 . S
Cd366 O367 2.240 . S
Cd366 O374 2.223 . S
Cd366 O376 2.297 . S
Cd366 O377 2.439 . S
O367 Cd366 2.240 . S
O367 C372 1.279 . S
O368 Cd365 2.297 . S
O368 C370 1.247 . S
O369 Cd365 2.439 . S
O369 C370 1.208 . S
C370 O368 1.247 . S
C370 O369 1.208 . S
C371 O376 1.247 . S
C371 O377 1.208 . S
C372 O364 1.315 . S
C372 O367 1.279 . S
C373 O374 1.315 . S
C373 O375 1.279 . S
O374 Cd366 2.223 . S
O374 C373 1.315 . S
O375 Cd365 2.240 . S
O375 C373 1.279 . S
O376 Cd366 2.297 . S
O376 C371 1.247 . S
O377 Cd366 2.439 . S
O377 C371 1.208 . S
O378 Cd379 2.223 . S
O378 C386 1.315 . S
Cd379 O378 2.223 . S
Cd379 O382 2.297 . S
Cd379 O383 2.439 . S
Cd379 O389 2.240 . S
Cd380 O381 2.240 . S
Cd380 O388 2.223 . S
Cd380 O390 2.297 . S
Cd380 O391 2.439 . S
O381 Cd380 2.240 . S
O381 C386 1.279 . S
O382 Cd379 2.297 . S
O382 C384 1.247 . S
O383 Cd379 2.439 . S
O383 C384 1.208 . S
C384 O382 1.247 . S
C384 O383 1.208 . S
C385 O390 1.247 . S
C385 O391 1.208 . S
C386 O378 1.315 . S
C386 O381 1.279 . S
C387 O388 1.315 . S
C387 O389 1.279 . S
O388 Cd380 2.223 . S
O388 C387 1.315 . S
O389 Cd379 2.240 . S
O389 C387 1.279 . S
O390 Cd380 2.297 . S
O390 C385 1.247 . S
O391 Cd380 2.439 . S
O391 C385 1.208 . S
O392 Cd393 2.223 . S
O392 C400 1.315 . S
Cd393 O392 2.223 . S
Cd393 O396 2.297 . S
Cd393 O397 2.439 . S
Cd393 O403 2.240 . S
Cd394 O395 2.240 . S
Cd394 O402 2.223 . S
Cd394 O404 2.297 . S
Cd394 O405 2.439 . S
O395 Cd394 2.240 . S
O395 C400 1.279 . S
O396 Cd393 2.297 . S
O396 C398 1.247 . S
O397 Cd393 2.439 . S
O397 C398 1.208 . S
C398 O396 1.247 . S
C398 O397 1.208 . S
C399 O404 1.247 . S
C399 O405 1.208 . S
C400 O392 1.315 . S
C400 O395 1.279 . S
C401 O402 1.315 . S
C401 O403 1.279 . S
O402 Cd394 2.223 . S
O402 C401 1.315 . S
O403 Cd393 2.240 . S
O403 C401 1.279 . S
O404 Cd394 2.297 . S
O404 C399 1.247 . S
O405 Cd394 2.439 . S
O405 C399 1.208 . S
O406 Cd407 2.223 . S
O406 C414 1.315 . S
Cd407 O406 2.223 . S
Cd407 O410 2.297 . S
Cd407 O411 2.439 . S
Cd407 O417 2.240 . S
Cd408 O409 2.240 . S
Cd408 O416 2.223 . S
Cd408 O418 2.297 . S
Cd408 O419 2.439 . S
O409 Cd408 2.240 . S
O409 C414 1.279 . S
O410 Cd407 2.297 . S
O410 C412 1.247 . S
O411 Cd407 2.439 . S
O411 C412 1.208 . S
C412 O410 1.247 . S
C412 O411 1.208 . S
C413 O418 1.247 . S
C413 O419 1.208 . S
C414 O406 1.315 . S
C414 O409 1.279 . S
C415 O416 1.315 . S
C415 O417 1.279 . S
O416 Cd408 2.223 . S
O416 C415 1.315 . S
O417 Cd407 2.240 . S
O417 C415 1.279 . S
O418 Cd408 2.297 . S
O418 C413 1.247 . S
O419 Cd408 2.439 . S
O419 C413 1.208 . S
O420 Cd421 2.223 . S
O420 C428 1.315 . S
Cd421 O420 2.223 . S
Cd421 O424 2.297 . S
Cd421 O425 2.439 . S
Cd421 O431 2.240 . S
Cd422 O423 2.240 . S
Cd422 O430 2.223 . S
Cd422 O432 2.297 . S
Cd422 O433 2.439 . S
O423 Cd422 2.240 . S
O423 C428 1.279 . S
O424 Cd421 2.297 . S
O424 C426 1.247 . S
O425 Cd421 2.439 . S
O425 C426 1.208 . S
C426 O424 1.247 . S
C426 O425 1.208 . S
C427 O432 1.247 . S
C427 O433 1.208 . S
C428 O420 1.315 . S
C428 O423 1.279 . S
C429 O430 1.315 . S
C429 O431 1.279 . S
O430 Cd422 2.223 . S
O430 C429 1.315 . S
O431 Cd421 2.240 . S
O431 C429 1.279 . S
O432 Cd422 2.297 . S
O432 C427 1.247 . S
O433 Cd422 2.439 . S
O433 C427 1.208 . S
O434 Cd435 2.223 . S
O434 C442 1.315 . S
Cd435 O434 2.223 . S
Cd435 O438 2.297 . S
Cd435 O439 2.439 . S
Cd435 O445 2.240 . S
Cd436 O437 2.240 . S
Cd436 O444 2.223 . S
Cd436 O446 2.297 . S
Cd436 O447 2.439 . S
O437 Cd436 2.240 . S
O437 C442 1.279 . S
O438 Cd435 2.297 . S
O438 C440 1.247 . S
O439 Cd435 2.439 . S
O439 C440 1.208 . S
C440 O438 1.247 . S
C440 O439 1.208 . S
C441 O446 1.247 . S
C441 O447 1.208 . S
C442 O434 1.315 . S
C442 O437 1.279 . S
C443 O444 1.315 . S
C443 O445 1.279 . S
O444 Cd436 2.223 . S
O444 C443 1.315 . S
O445 Cd435 2.240 . S
O445 C443 1.279 . S
O446 Cd436 2.297 . S
O446 C441 1.247 . S
O447 Cd436 2.439 . S
O447 C441 1.208 . S
H448 C456 0.950 . S
H449 C461 0.950 . S
H450 C458 0.950 . S
H451 C460 0.950 . S
H452 C462 0.950 . S
H453 C464 0.950 . S
H454 C466 0.950 . S
H455 C467 0.950 . S
C456 H448 0.950 . S
C456 C457 1.386 . S
C456 C458 1.391 . S
C457 C456 1.386 . S
C457 C461 1.393 . S
C458 H450 0.950 . S
C458 C456 1.391 . S
C458 C459 1.400 . S
C459 C458 1.400 . S
C459 C460 1.398 . S
C459 C465 1.491 . S
C460 H451 0.950 . S
C460 C459 1.398 . S
C460 C461 1.391 . S
C461 H449 0.950 . S
C461 C457 1.393 . S
C461 C460 1.391 . S
C462 H452 0.950 . S
C462 C463 1.386 . S
C462 C464 1.391 . S
C463 C462 1.386 . S
C463 C467 1.393 . S
C464 H453 0.950 . S
C464 C462 1.391 . S
C464 C465 1.400 . S
C465 C459 1.491 . S
C465 C464 1.400 . S
C465 C466 1.398 . S
C466 H454 0.950 . S
C466 C465 1.398 . S
C466 C467 1.391 . S
C467 H455 0.950 . S
C467 C463 1.393 . S
C467 C466 1.391 . S
H468 C476 0.950 . S
H469 C481 0.950 . S
H470 C478 0.950 . S
H471 C480 0.950 . S
H472 C482 0.950 . S
H473 C484 0.950 . S
H474 C486 0.950 . S
H475 C487 0.950 . S
C476 H468 0.950 . S
C476 C477 1.386 . S
C476 C478 1.391 . S
C477 C476 1.386 . S
C477 C481 1.393 . S
C478 H470 0.950 . S
C478 C476 1.391 . S
C478 C479 1.400 . S
C479 C478 1.400 . S
C479 C480 1.398 . S
C479 C485 1.491 . S
C480 H471 0.950 . S
C480 C479 1.398 . S
C480 C481 1.391 . S
C481 H469 0.950 . S
C481 C477 1.393 . S
C481 C480 1.391 . S
C482 H472 0.950 . S
C482 C483 1.386 . S
C482 C484 1.391 . S
C483 C482 1.386 . S
C483 C487 1.393 . S
C484 H473 0.950 . S
C484 C482 1.391 . S
C484 C485 1.400 . S
C485 C479 1.491 . S
C485 C484 1.400 . S
C485 C486 1.398 . S
C486 H474 0.950 . S
C486 C485 1.398 . S
C486 C487 1.391 . S
C487 H475 0.950 . S
C487 C483 1.393 . S
C487 C486 1.391 . S
H488 C496 0.950 . S
H489 C501 0.950 . S
H490 C498 0.950 . S
H491 C500 0.950 . S
H492 C502 0.950 . S
H493 C504 0.950 . S
H494 C506 0.950 . S
H495 C507 0.950 . S
C496 H488 0.950 . S
C496 C497 1.386 . S
C496 C498 1.391 . S
C497 C496 1.386 . S
C497 C501 1.393 . S
C498 H490 0.950 . S
C498 C496 1.391 . S
C498 C499 1.400 . S
C499 C498 1.400 . S
C499 C500 1.398 . S
C499 C505 1.491 . S
C500 H491 0.950 . S
C500 C499 1.398 . S
C500 C501 1.391 . S
C501 H489 0.950 . S
C501 C497 1.393 . S
C501 C500 1.391 . S
C502 H492 0.950 . S
C502 C503 1.386 . S
C502 C504 1.391 . S
C503 C502 1.386 . S
C503 C507 1.393 . S
C504 H493 0.950 . S
C504 C502 1.391 . S
C504 C505 1.400 . S
C505 C499 1.491 . S
C505 C504 1.400 . S
C505 C506 1.398 . S
C506 H494 0.950 . S
C506 C505 1.398 . S
C506 C507 1.391 . S
C507 H495 0.950 . S
C507 C503 1.393 . S
C507 C506 1.391 . S
H508 C516 0.950 . S
H509 C521 0.950 . S
H510 C518 0.950 . S
H511 C520 0.950 . S
H512 C522 0.950 . S
H513 C524 0.950 . S
H514 C526 0.950 . S
H515 C527 0.950 . S
C516 H508 0.950 . S
C516 C517 1.386 . S
C516 C518 1.391 . S
C517 C516 1.386 . S
C517 C521 1.393 . S
C518 H510 0.950 . S
C518 C516 1.391 . S
C518 C519 1.400 . S
C519 C518 1.400 . S
C519 C520 1.398 . S
C519 C525 1.491 . S
C520 H511 0.950 . S
C520 C519 1.398 . S
C520 C521 1.391 . S
C521 H509 0.950 . S
C521 C517 1.393 . S
C521 C520 1.391 . S
C522 H512 0.950 . S
C522 C523 1.386 . S
C522 C524 1.391 . S
C523 C522 1.386 . S
C523 C527 1.393 . S
C524 H513 0.950 . S
C524 C522 1.391 . S
C524 C525 1.400 . S
C525 C519 1.491 . S
C525 C524 1.400 . S
C525 C526 1.398 . S
C526 H514 0.950 . S
C526 C525 1.398 . S
C526 C527 1.391 . S
C527 H515 0.950 . S
C527 C523 1.393 . S
C527 C526 1.391 . S
H528 C536 0.950 . S
H529 C541 0.950 . S
H530 C538 0.950 . S
H531 C540 0.950 . S
H532 C542 0.950 . S
H533 C544 0.950 . S
H534 C546 0.950 . S
H535 C547 0.950 . S
C536 H528 0.950 . S
C536 C537 1.386 . S
C536 C538 1.391 . S
C537 C536 1.386 . S
C537 C541 1.393 . S
C538 H530 0.950 . S
C538 C536 1.391 . S
C538 C539 1.400 . S
C539 C538 1.400 . S
C539 C540 1.398 . S
C539 C545 1.491 . S
C540 H531 0.950 . S
C540 C539 1.398 . S
C540 C541 1.391 . S
C541 H529 0.950 . S
C541 C537 1.393 . S
C541 C540 1.391 . S
C542 H532 0.950 . S
C542 C543 1.386 . S
C542 C544 1.391 . S
C543 C542 1.386 . S
C543 C547 1.393 . S
C544 H533 0.950 . S
C544 C542 1.391 . S
C544 C545 1.400 . S
C545 C539 1.491 . S
C545 C544 1.400 . S
C545 C546 1.398 . S
C546 H534 0.950 . S
C546 C545 1.398 . S
C546 C547 1.391 . S
C547 H535 0.950 . S
C547 C543 1.393 . S
C547 C546 1.391 . S
H548 C556 0.950 . S
H549 C561 0.950 . S
H550 C558 0.950 . S
H551 C560 0.950 . S
H552 C562 0.950 . S
H553 C564 0.950 . S
H554 C566 0.950 . S
H555 C567 0.950 . S
C556 H548 0.950 . S
C556 C557 1.386 . S
C556 C558 1.391 . S
C557 C556 1.386 . S
C557 C561 1.393 . S
C558 H550 0.950 . S
C558 C556 1.391 . S
C558 C559 1.400 . S
C559 C558 1.400 . S
C559 C560 1.398 . S
C559 C565 1.491 . S
C560 H551 0.950 . S
C560 C559 1.398 . S
C560 C561 1.391 . S
C561 H549 0.950 . S
C561 C557 1.393 . S
C561 C560 1.391 . S
C562 H552 0.950 . S
C562 C563 1.386 . S
C562 C564 1.391 . S
C563 C562 1.386 . S
C563 C567 1.393 . S
C564 H553 0.950 . S
C564 C562 1.391 . S
C564 C565 1.400 . S
C565 C559 1.491 . S
C565 C564 1.400 . S
C565 C566 1.398 . S
C566 H554 0.950 . S
C566 C565 1.398 . S
C566 C567 1.391 . S
C567 H555 0.950 . S
C567 C563 1.393 . S
C567 C566 1.391 . S
H568 C576 0.950 . S
H569 C581 0.950 . S
H570 C578 0.950 . S
H571 C580 0.950 . S
H572 C582 0.950 . S
H573 C584 0.950 . S
H574 C586 0.950 . S
H575 C587 0.950 . S
C576 H568 0.950 . S
C576 C577 1.386 . S
C576 C578 1.391 . S
C577 C576 1.386 . S
C577 C581 1.393 . S
C578 H570 0.950 . S
C578 C576 1.391 . S
C578 C579 1.400 . S
C579 C578 1.400 . S
C579 C580 1.398 . S
C579 C585 1.491 . S
C580 H571 0.950 . S
C580 C579 1.398 . S
C580 C581 1.391 . S
C581 H569 0.950 . S
C581 C577 1.393 . S
C581 C580 1.391 . S
C582 H572 0.950 . S
C582 C583 1.386 . S
C582 C584 1.391 . S
C583 C582 1.386 . S
C583 C587 1.393 . S
C584 H573 0.950 . S
C584 C582 1.391 . S
C584 C585 1.400 . S
C585 C579 1.491 . S
C585 C584 1.400 . S
C585 C586 1.398 . S
C586 H574 0.950 . S
C586 C585 1.398 . S
C586 C587 1.391 . S
C587 H575 0.950 . S
C587 C583 1.393 . S
C587 C586 1.391 . S
H588 C596 0.950 . S
H589 C601 0.950 . S
H590 C598 0.950 . S
H591 C600 0.950 . S
H592 C602 0.950 . S
H593 C604 0.950 . S
H594 C606 0.950 . S
H595 C607 0.950 . S
C596 H588 0.950 . S
C596 C597 1.386 . S
C596 C598 1.391 . S
C597 C596 1.386 . S
C597 C601 1.393 . S
C598 H590 0.950 . S
C598 C596 1.391 . S
C598 C599 1.400 . S
C599 C598 1.400 . S
C599 C600 1.398 . S
C599 C605 1.491 . S
C600 H591 0.950 . S
C600 C599 1.398 . S
C600 C601 1.391 . S
C601 H589 0.950 . S
C601 C597 1.393 . S
C601 C600 1.391 . S
C602 H592 0.950 . S
C602 C603 1.386 . S
C602 C604 1.391 . S
C603 C602 1.386 . S
C603 C607 1.393 . S
C604 H593 0.950 . S
C604 C602 1.391 . S
C604 C605 1.400 . S
C605 C599 1.491 . S
C605 C604 1.400 . S
C605 C606 1.398 . S
C606 H594 0.950 . S
C606 C605 1.398 . S
C606 C607 1.391 . S
C607 H595 0.950 . S
C607 C603 1.393 . S
C607 C606 1.391 . S
H608 C616 0.950 . S
H609 C621 0.950 . S
H610 C618 0.950 . S
H611 C620 0.950 . S
H612 C622 0.950 . S
H613 C624 0.950 . S
H614 C626 0.950 . S
H615 C627 0.950 . S
C616 H608 0.950 . S
C616 C617 1.386 . S
C616 C618 1.391 . S
C617 C616 1.386 . S
C617 C621 1.393 . S
C618 H610 0.950 . S
C618 C616 1.391 . S
C618 C619 1.400 . S
C619 C618 1.400 . S
C619 C620 1.398 . S
C619 C625 1.491 . S
C620 H611 0.950 . S
C620 C619 1.398 . S
C620 C621 1.391 . S
C621 H609 0.950 . S
C621 C617 1.393 . S
C621 C620 1.391 . S
C622 H612 0.950 . S
C622 C623 1.386 . S
C622 C624 1.391 . S
C623 C622 1.386 . S
C623 C627 1.393 . S
C624 H613 0.950 . S
C624 C622 1.391 . S
C624 C625 1.400 . S
C625 C619 1.491 . S
C625 C624 1.400 . S
C625 C626 1.398 . S
C626 H614 0.950 . S
C626 C625 1.398 . S
C626 C627 1.391 . S
C627 H615 0.950 . S
C627 C623 1.393 . S
C627 C626 1.391 . S
H628 C636 0.950 . S
H629 C641 0.950 . S
H630 C638 0.950 . S
H631 C640 0.950 . S
H632 C642 0.950 . S
H633 C644 0.950 . S
H634 C646 0.950 . S
H635 C647 0.950 . S
C636 H628 0.950 . S
C636 C637 1.386 . S
C636 C638 1.391 . S
C637 C636 1.386 . S
C637 C641 1.393 . S
C638 H630 0.950 . S
C638 C636 1.391 . S
C638 C639 1.400 . S
C639 C638 1.400 . S
C639 C640 1.398 . S
C639 C645 1.491 . S
C640 H631 0.950 . S
C640 C639 1.398 . S
C640 C641 1.391 . S
C641 H629 0.950 . S
C641 C637 1.393 . S
C641 C640 1.391 . S
C642 H632 0.950 . S
C642 C643 1.386 . S
C642 C644 1.391 . S
C643 C642 1.386 . S
C643 C647 1.393 . S
C644 H633 0.950 . S
C644 C642 1.391 . S
C644 C645 1.400 . S
C645 C639 1.491 . S
C645 C644 1.400 . S
C645 C646 1.398 . S
C646 H634 0.950 . S
C646 C645 1.398 . S
C646 C647 1.391 . S
C647 H635 0.950 . S
C647 C643 1.393 . S
C647 C646 1.391 . S
H648 C656 0.950 . S
H649 C661 0.950 . S
H650 C658 0.950 . S
H651 C660 0.950 . S
H652 C662 0.950 . S
H653 C664 0.950 . S
H654 C666 0.950 . S
H655 C667 0.950 . S
C656 H648 0.950 . S
C656 C657 1.386 . S
C656 C658 1.391 . S
C657 C656 1.386 . S
C657 C661 1.393 . S
C658 H650 0.950 . S
C658 C656 1.391 . S
C658 C659 1.400 . S
C659 C658 1.400 . S
C659 C660 1.398 . S
C659 C665 1.491 . S
C660 H651 0.950 . S
C660 C659 1.398 . S
C660 C661 1.391 . S
C661 H649 0.950 . S
C661 C657 1.393 . S
C661 C660 1.391 . S
C662 H652 0.950 . S
C662 C663 1.386 . S
C662 C664 1.391 . S
C663 C662 1.386 . S
C663 C667 1.393 . S
C664 H653 0.950 . S
C664 C662 1.391 . S
C664 C665 1.400 . S
C665 C659 1.491 . S
C665 C664 1.400 . S
C665 C666 1.398 . S
C666 H654 0.950 . S
C666 C665 1.398 . S
C666 C667 1.391 . S
C667 H655 0.950 . S
C667 C663 1.393 . S
C667 C666 1.391 . S
H668 C676 0.950 . S
H669 C681 0.950 . S
H670 C678 0.950 . S
H671 C680 0.950 . S
H672 C682 0.950 . S
H673 C684 0.950 . S
H674 C686 0.950 . S
H675 C687 0.950 . S
C676 H668 0.950 . S
C676 C677 1.386 . S
C676 C678 1.391 . S
C677 C676 1.386 . S
C677 C681 1.393 . S
C678 H670 0.950 . S
C678 C676 1.391 . S
C678 C679 1.400 . S
C679 C678 1.400 . S
C679 C680 1.398 . S
C679 C685 1.491 . S
C680 H671 0.950 . S
C680 C679 1.398 . S
C680 C681 1.391 . S
C681 H669 0.950 . S
C681 C677 1.393 . S
C681 C680 1.391 . S
C682 H672 0.950 . S
C682 C683 1.386 . S
C682 C684 1.391 . S
C683 C682 1.386 . S
C683 C687 1.393 . S
C684 H673 0.950 . S
C684 C682 1.391 . S
C684 C685 1.400 . S
C685 C679 1.491 . S
C685 C684 1.400 . S
C685 C686 1.398 . S
C686 H674 0.950 . S
C686 C685 1.398 . S
C686 C687 1.391 . S
C687 H675 0.950 . S
C687 C683 1.393 . S
C687 C686 1.391 . S
H688 C696 0.950 . S
H689 C701 0.950 . S
H690 C698 0.950 . S
H691 C700 0.950 . S
H692 C702 0.950 . S
H693 C704 0.950 . S
H694 C706 0.950 . S
H695 C707 0.950 . S
C696 H688 0.950 . S
C696 C697 1.386 . S
C696 C698 1.391 . S
C697 C696 1.386 . S
C697 C701 1.393 . S
C698 H690 0.950 . S
C698 C696 1.391 . S
C698 C699 1.400 . S
C699 C698 1.400 . S
C699 C700 1.398 . S
C699 C705 1.491 . S
C700 H691 0.950 . S
C700 C699 1.398 . S
C700 C701 1.391 . S
C701 H689 0.950 . S
C701 C697 1.393 . S
C701 C700 1.391 . S
C702 H692 0.950 . S
C702 C703 1.386 . S
C702 C704 1.391 . S
C703 C702 1.386 . S
C703 C707 1.393 . S
C704 H693 0.950 . S
C704 C702 1.391 . S
C704 C705 1.400 . S
C705 C699 1.491 . S
C705 C704 1.400 . S
C705 C706 1.398 . S
C706 H694 0.950 . S
C706 C705 1.398 . S
C706 C707 1.391 . S
C707 H695 0.950 . S
C707 C703 1.393 . S
C707 C706 1.391 . S
H708 C716 0.950 . S
H709 C721 0.950 . S
H710 C718 0.950 . S
H711 C720 0.950 . S
H712 C722 0.950 . S
H713 C724 0.950 . S
H714 C726 0.950 . S
H715 C727 0.950 . S
C716 H708 0.950 . S
C716 C717 1.386 . S
C716 C718 1.391 . S
C717 C716 1.386 . S
C717 C721 1.393 . S
C718 H710 0.950 . S
C718 C716 1.391 . S
C718 C719 1.400 . S
C719 C718 1.400 . S
C719 C720 1.398 . S
C719 C725 1.491 . S
C720 H711 0.950 . S
C720 C719 1.398 . S
C720 C721 1.391 . S
C721 H709 0.950 . S
C721 C717 1.393 . S
C721 C720 1.391 . S
C722 H712 0.950 . S
C722 C723 1.386 . S
C722 C724 1.391 . S
C723 C722 1.386 . S
C723 C727 1.393 . S
C724 H713 0.950 . S
C724 C722 1.391 . S
C724 C725 1.400 . S
C725 C719 1.491 . S
C725 C724 1.400 . S
C725 C726 1.398 . S
C726 H714 0.950 . S
C726 C725 1.398 . S
C726 C727 1.391 . S
C727 H715 0.950 . S
C727 C723 1.393 . S
C727 C726 1.391 . S
H728 C736 0.950 . S
H729 C741 0.950 . S
H730 C738 0.950 . S
H731 C740 0.950 . S
H732 C742 0.950 . S
H733 C744 0.950 . S
H734 C746 0.950 . S
H735 C747 0.950 . S
C736 H728 0.950 . S
C736 C737 1.386 . S
C736 C738 1.391 . S
C737 C736 1.386 . S
C737 C741 1.393 . S
C738 H730 0.950 . S
C738 C736 1.391 . S
C738 C739 1.400 . S
C739 C738 1.400 . S
C739 C740 1.398 . S
C739 C745 1.491 . S
C740 H731 0.950 . S
C740 C739 1.398 . S
C740 C741 1.391 . S
C741 H729 0.950 . S
C741 C737 1.393 . S
C741 C740 1.391 . S
C742 H732 0.950 . S
C742 C743 1.386 . S
C742 C744 1.391 . S
C743 C742 1.386 . S
C743 C747 1.393 . S
C744 H733 0.950 . S
C744 C742 1.391 . S
C744 C745 1.400 . S
C745 C739 1.491 . S
C745 C744 1.400 . S
C745 C746 1.398 . S
C746 H734 0.950 . S
C746 C745 1.398 . S
C746 C747 1.391 . S
C747 H735 0.950 . S
C747 C743 1.393 . S
C747 C746 1.391 . S
H748 C756 0.950 . S
H749 C761 0.950 . S
H750 C758 0.950 . S
H751 C760 0.950 . S
H752 C762 0.950 . S
H753 C764 0.950 . S
H754 C766 0.950 . S
H755 C767 0.950 . S
C756 H748 0.950 . S
C756 C757 1.386 . S
C756 C758 1.391 . S
C757 C756 1.386 . S
C757 C761 1.393 . S
C758 H750 0.950 . S
C758 C756 1.391 . S
C758 C759 1.400 . S
C759 C758 1.400 . S
C759 C760 1.398 . S
C759 C765 1.491 . S
C760 H751 0.950 . S
C760 C759 1.398 . S
C760 C761 1.391 . S
C761 H749 0.950 . S
C761 C757 1.393 . S
C761 C760 1.391 . S
C762 H752 0.950 . S
C762 C763 1.386 . S
C762 C764 1.391 . S
C763 C762 1.386 . S
C763 C767 1.393 . S
C764 H753 0.950 . S
C764 C762 1.391 . S
C764 C765 1.400 . S
C765 C759 1.491 . S
C765 C764 1.400 . S
C765 C766 1.398 . S
C766 H754 0.950 . S
C766 C765 1.398 . S
C766 C767 1.391 . S
C767 H755 0.950 . S
C767 C763 1.393 . S
C767 C766 1.391 . S
H768 C776 0.950 . S
H769 C781 0.950 . S
H770 C778 0.950 . S
H771 C780 0.950 . S
H772 C782 0.950 . S
H773 C784 0.950 . S
H774 C786 0.950 . S
H775 C787 0.950 . S
C776 H768 0.950 . S
C776 C777 1.386 . S
C776 C778 1.391 . S
C777 C776 1.386 . S
C777 C781 1.393 . S
C778 H770 0.950 . S
C778 C776 1.391 . S
C778 C779 1.400 . S
C779 C778 1.400 . S
C779 C780 1.398 . S
C779 C785 1.491 1_655 S
C780 H771 0.950 . S
C780 C779 1.398 . S
C780 C781 1.391 . S
C781 H769 0.950 . S
C781 C777 1.393 . S
C781 C780 1.391 . S
C782 H772 0.950 . S
C782 C783 1.386 . S
C782 C784 1.391 . S
C783 C782 1.386 . S
C783 C787 1.393 . S
C784 H773 0.950 . S
C784 C782 1.391 . S
C784 C785 1.400 . S
C785 C779 1.491 1_455 S
C785 C784 1.400 . S
C785 C786 1.398 . S
C786 H774 0.950 . S
C786 C785 1.398 . S
C786 C787 1.391 . S
C787 H775 0.950 . S
C787 C783 1.393 . S
C787 C786 1.391 . S
H788 C796 0.950 . S
H789 C801 0.950 . S
H790 C798 0.950 . S
H791 C800 0.950 . S
H792 C802 0.950 . S
H793 C804 0.950 . S
H794 C806 0.950 . S
H795 C807 0.950 . S
C796 H788 0.950 . S
C796 C797 1.386 . S
C796 C798 1.391 . S
C797 C796 1.386 . S
C797 C801 1.393 . S
C798 H790 0.950 . S
C798 C796 1.391 . S
C798 C799 1.400 . S
C799 C798 1.400 . S
C799 C800 1.398 . S
C799 C805 1.491 1_545 S
C800 H791 0.950 . S
C800 C799 1.398 . S
C800 C801 1.391 . S
C801 H789 0.950 . S
C801 C797 1.393 . S
C801 C800 1.391 . S
C802 H792 0.950 . S
C802 C803 1.386 . S
C802 C804 1.391 . S
C803 C802 1.386 . S
C803 C807 1.393 . S
C804 H793 0.950 . S
C804 C802 1.391 . S
C804 C805 1.400 . S
C805 C799 1.491 1_565 S
C805 C804 1.400 . S
C805 C806 1.398 . S
C806 H794 0.950 . S
C806 C805 1.398 . S
C806 C807 1.391 . S
C807 H795 0.950 . S
C807 C803 1.393 . S
C807 C806 1.391 . S
H808 C816 0.950 . S
H809 C821 0.950 . S
H810 C818 0.950 . S
H811 C820 0.950 . S
H812 C822 0.950 . S
H813 C824 0.950 . S
H814 C826 0.950 . S
H815 C827 0.950 . S
C816 H808 0.950 . S
C816 C817 1.386 . S
C816 C818 1.391 . S
C817 C816 1.386 . S
C817 C821 1.393 . S
C818 H810 0.950 . S
C818 C816 1.391 . S
C818 C819 1.400 . S
C819 C818 1.400 . S
C819 C820 1.398 . S
C819 C825 1.491 1_455 S
C820 H811 0.950 . S
C820 C819 1.398 . S
C820 C821 1.391 . S
C821 H809 0.950 . S
C821 C817 1.393 . S
C821 C820 1.391 . S
C822 H812 0.950 . S
C822 C823 1.386 . S
C822 C824 1.391 . S
C823 C822 1.386 . S
C823 C827 1.393 . S
C824 H813 0.950 . S
C824 C822 1.391 . S
C824 C825 1.400 . S
C825 C819 1.491 1_655 S
C825 C824 1.400 . S
C825 C826 1.398 . S
C826 H814 0.950 . S
C826 C825 1.398 . S
C826 C827 1.391 . S
C827 H815 0.950 . S
C827 C823 1.393 . S
C827 C826 1.391 . S
H828 C836 0.950 . S
H829 C841 0.950 . S
H830 C838 0.950 . S
H831 C840 0.950 . S
H832 C842 0.950 . S
H833 C844 0.950 . S
H834 C846 0.950 . S
H835 C847 0.950 . S
C836 H828 0.950 . S
C836 C837 1.386 . S
C836 C838 1.391 . S
C837 C836 1.386 . S
C837 C841 1.393 . S
C838 H830 0.950 . S
C838 C836 1.391 . S
C838 C839 1.400 . S
C839 C838 1.400 . S
C839 C840 1.398 . S
C839 C845 1.491 1_565 S
C840 H831 0.950 . S
C840 C839 1.398 . S
C840 C841 1.391 . S
C841 H829 0.950 . S
C841 C837 1.393 . S
C841 C840 1.391 . S
C842 H832 0.950 . S
C842 C843 1.386 . S
C842 C844 1.391 . S
C843 C842 1.386 . S
C843 C847 1.393 . S
C844 H833 0.950 . S
C844 C842 1.391 . S
C844 C845 1.400 . S
C845 C839 1.491 1_545 S
C845 C844 1.400 . S
C845 C846 1.398 . S
C846 H834 0.950 . S
C846 C845 1.398 . S
C846 C847 1.391 . S
C847 H835 0.950 . S
C847 C843 1.393 . S
C847 C846 1.391 . S
H848 C856 0.950 . S
H849 C861 0.950 . S
H850 C858 0.950 . S
H851 C860 0.950 . S
H852 C862 0.950 . S
H853 C864 0.950 . S
H854 C866 0.950 . S
H855 C867 0.950 . S
C856 H848 0.950 . S
C856 C857 1.386 . S
C856 C858 1.391 . S
C857 C856 1.386 . S
C857 C861 1.393 . S
C858 H850 0.950 . S
C858 C856 1.391 . S
C858 C859 1.400 . S
C859 C858 1.400 . S
C859 C860 1.398 . S
C859 C865 1.491 1_455 S
C860 H851 0.950 . S
C860 C859 1.398 . S
C860 C861 1.391 . S
C861 H849 0.950 . S
C861 C857 1.393 . S
C861 C860 1.391 . S
C862 H852 0.950 . S
C862 C863 1.386 . S
C862 C864 1.391 . S
C863 C862 1.386 . S
C863 C867 1.393 . S
C864 H853 0.950 . S
C864 C862 1.391 . S
C864 C865 1.400 . S
C865 C859 1.491 1_655 S
C865 C864 1.400 . S
C865 C866 1.398 . S
C866 H854 0.950 . S
C866 C865 1.398 . S
C866 C867 1.391 . S
C867 H855 0.950 . S
C867 C863 1.393 . S
C867 C866 1.391 . S
H868 C876 0.950 . S
H869 C881 0.950 . S
H870 C878 0.950 . S
H871 C880 0.950 . S
H872 C882 0.950 . S
H873 C884 0.950 . S
H874 C886 0.950 . S
H875 C887 0.950 . S
C876 H868 0.950 . S
C876 C877 1.386 . S
C876 C878 1.391 . S
C877 C876 1.386 . S
C877 C881 1.393 . S
C878 H870 0.950 . S
C878 C876 1.391 . S
C878 C879 1.400 . S
C879 C878 1.400 . S
C879 C880 1.398 . S
C879 C885 1.491 1_565 S
C880 H871 0.950 . S
C880 C879 1.398 . S
C880 C881 1.391 . S
C881 H869 0.950 . S
C881 C877 1.393 . S
C881 C880 1.391 . S
C882 H872 0.950 . S
C882 C883 1.386 . S
C882 C884 1.391 . S
C883 C882 1.386 . S
C883 C887 1.393 . S
C884 H873 0.950 . S
C884 C882 1.391 . S
C884 C885 1.400 . S
C885 C879 1.491 1_545 S
C885 C884 1.400 . S
C885 C886 1.398 . S
C886 H874 0.950 . S
C886 C885 1.398 . S
C886 C887 1.391 . S
C887 H875 0.950 . S
C887 C883 1.393 . S
C887 C886 1.391 . S
H888 C896 0.950 . S
H889 C901 0.950 . S
H890 C898 0.950 . S
H891 C900 0.950 . S
H892 C902 0.950 . S
H893 C904 0.950 . S
H894 C906 0.950 . S
H895 C907 0.950 . S
C896 H888 0.950 . S
C896 C897 1.386 . S
C896 C898 1.391 . S
C897 C896 1.386 . S
C897 C901 1.393 . S
C898 H890 0.950 . S
C898 C896 1.391 . S
C898 C899 1.400 . S
C899 C898 1.400 . S
C899 C900 1.398 . S
C899 C905 1.491 1_455 S
C900 H891 0.950 . S
C900 C899 1.398 . S
C900 C901 1.391 . S
C901 H889 0.950 . S
C901 C897 1.393 . S
C901 C900 1.391 . S
C902 H892 0.950 . S
C902 C903 1.386 . S
C902 C904 1.391 . S
C903 C902 1.386 . S
C903 C907 1.393 . S
C904 H893 0.950 . S
C904 C902 1.391 . S
C904 C905 1.400 . S
C905 C899 1.491 1_655 S
C905 C904 1.400 . S
C905 C906 1.398 . S
C906 H894 0.950 . S
C906 C905 1.398 . S
C906 C907 1.391 . S
C907 H895 0.950 . S
C907 C903 1.393 . S
C907 C906 1.391 . S
H908 C916 0.950 . S
H909 C921 0.950 . S
H910 C918 0.950 . S
H911 C920 0.950 . S
H912 C922 0.950 . S
H913 C924 0.950 . S
H914 C926 0.950 . S
H915 C927 0.950 . S
C916 H908 0.950 . S
C916 C917 1.386 . S
C916 C918 1.391 . S
C917 C916 1.386 . S
C917 C921 1.393 . S
C918 H910 0.950 . S
C918 C916 1.391 . S
C918 C919 1.400 . S
C919 C918 1.400 . S
C919 C920 1.398 . S
C919 C925 1.491 1_545 S
C920 H911 0.950 . S
C920 C919 1.398 . S
C920 C921 1.391 . S
C921 H909 0.950 . S
C921 C917 1.393 . S
C921 C920 1.391 . S
C922 H912 0.950 . S
C922 C923 1.386 . S
C922 C924 1.391 . S
C923 C922 1.386 . S
C923 C927 1.393 . S
C924 H913 0.950 . S
C924 C922 1.391 . S
C924 C925 1.400 . S
C925 C919 1.491 1_565 S
C925 C924 1.400 . S
C925 C926 1.398 . S
C926 H914 0.950 . S
C926 C925 1.398 . S
C926 C927 1.391 . S
C927 H915 0.950 . S
C927 C923 1.393 . S
C927 C926 1.391 . S
H928 C936 0.950 . S
H929 C941 0.950 . S
H930 C938 0.950 . S
H931 C940 0.950 . S
H932 C942 0.950 . S
H933 C944 0.950 . S
H934 C946 0.950 . S
H935 C947 0.950 . S
C936 H928 0.950 . S
C936 C937 1.386 . S
C936 C938 1.391 . S
C937 C936 1.386 . S
C937 C941 1.393 . S
C938 H930 0.950 . S
C938 C936 1.391 . S
C938 C939 1.400 . S
C939 C938 1.400 . S
C939 C940 1.398 . S
C939 C945 1.491 . S
C940 H931 0.950 . S
C940 C939 1.398 . S
C940 C941 1.391 . S
C941 H929 0.950 . S
C941 C937 1.393 . S
C941 C940 1.391 . S
C942 H932 0.950 . S
C942 C943 1.386 . S
C942 C944 1.391 . S
C943 C942 1.386 . S
C943 C947 1.393 . S
C944 H933 0.950 . S
C944 C942 1.391 . S
C944 C945 1.400 . S
C945 C939 1.491 . S
C945 C944 1.400 . S
C945 C946 1.398 . S
C946 H934 0.950 . S
C946 C945 1.398 . S
C946 C947 1.391 . S
C947 H935 0.950 . S
C947 C943 1.393 . S
C947 C946 1.391 . S
H948 C956 0.950 . S
H949 C961 0.950 . S
H950 C958 0.950 . S
H951 C960 0.950 . S
H952 C962 0.950 . S
H953 C964 0.950 . S
H954 C966 0.950 . S
H955 C967 0.950 . S
C956 H948 0.950 . S
C956 C957 1.386 . S
C956 C958 1.391 . S
C957 C956 1.386 . S
C957 C961 1.393 . S
C958 H950 0.950 . S
C958 C956 1.391 . S
C958 C959 1.400 . S
C959 C958 1.400 . S
C959 C960 1.398 . S
C959 C965 1.491 . S
C960 H951 0.950 . S
C960 C959 1.398 . S
C960 C961 1.391 . S
C961 H949 0.950 . S
C961 C957 1.393 . S
C961 C960 1.391 . S
C962 H952 0.950 . S
C962 C963 1.386 . S
C962 C964 1.391 . S
C963 C962 1.386 . S
C963 C967 1.393 . S
C964 H953 0.950 . S
C964 C962 1.391 . S
C964 C965 1.400 . S
C965 C959 1.491 . S
C965 C964 1.400 . S
C965 C966 1.398 . S
C966 H954 0.950 . S
C966 C965 1.398 . S
C966 C967 1.391 . S
C967 H955 0.950 . S
C967 C963 1.393 . S
C967 C966 1.391 . S
H968 C976 0.950 . S
H969 C981 0.950 . S
H970 C978 0.950 . S
H971 C980 0.950 . S
H972 C982 0.950 . S
H973 C984 0.950 . S
H974 C986 0.950 . S
H975 C987 0.950 . S
C976 H968 0.950 . S
C976 C977 1.386 . S
C976 C978 1.391 . S
C977 C976 1.386 . S
C977 C981 1.393 . S
C978 H970 0.950 . S
C978 C976 1.391 . S
C978 C979 1.400 . S
C979 C978 1.400 . S
C979 C980 1.398 . S
C979 C985 1.491 . S
C980 H971 0.950 . S
C980 C979 1.398 . S
C980 C981 1.391 . S
C981 H969 0.950 . S
C981 C977 1.393 . S
C981 C980 1.391 . S
C982 H972 0.950 . S
C982 C983 1.386 . S
C982 C984 1.391 . S
C983 C982 1.386 . S
C983 C987 1.393 . S
C984 H973 0.950 . S
C984 C982 1.391 . S
C984 C985 1.400 . S
C985 C979 1.491 . S
C985 C984 1.400 . S
C985 C986 1.398 . S
C986 H974 0.950 . S
C986 C985 1.398 . S
C986 C987 1.391 . S
C987 H975 0.950 . S
C987 C983 1.393 . S
C987 C986 1.391 . S
H988 C996 0.950 . S
H989 C1001 0.950 . S
H990 C998 0.950 . S
H991 C1000 0.950 . S
H992 C1002 0.950 . S
H993 C1004 0.950 . S
H994 C1006 0.950 . S
H995 C1007 0.950 . S
C996 H988 0.950 . S
C996 C997 1.386 . S
C996 C998 1.391 . S
C997 C996 1.386 . S
C997 C1001 1.393 . S
C998 H990 0.950 . S
C998 C996 1.391 . S
C998 C999 1.400 . S
C999 C998 1.400 . S
C999 C1000 1.398 . S
C999 C1005 1.491 . S
C1000 H991 0.950 . S
C1000 C999 1.398 . S
C1000 C1001 1.391 . S
C1001 H989 0.950 . S
C1001 C997 1.393 . S
C1001 C1000 1.391 . S
C1002 H992 0.950 . S
C1002 C1003 1.386 . S
C1002 C1004 1.391 . S
C1003 C1002 1.386 . S
C1003 C1007 1.393 . S
C1004 H993 0.950 . S
C1004 C1002 1.391 . S
C1004 C1005 1.400 . S
C1005 C999 1.491 . S
C1005 C1004 1.400 . S
C1005 C1006 1.398 . S
C1006 H994 0.950 . S
C1006 C1005 1.398 . S
C1006 C1007 1.391 . S
C1007 H995 0.950 . S
C1007 C1003 1.393 . S
C1007 C1006 1.391 . S
H1008 C1016 0.950 . S
H1009 C1021 0.950 . S
H1010 C1018 0.950 . S
H1011 C1020 0.950 . S
H1012 C1022 0.950 . S
H1013 C1024 0.950 . S
H1014 C1026 0.950 . S
H1015 C1027 0.950 . S
C1016 H1008 0.950 . S
C1016 C1017 1.386 . S
C1016 C1018 1.391 . S
C1017 C1016 1.386 . S
C1017 C1021 1.393 . S
C1018 H1010 0.950 . S
C1018 C1016 1.391 . S
C1018 C1019 1.400 . S
C1019 C1018 1.400 . S
C1019 C1020 1.398 . S
C1019 C1025 1.491 . S
C1020 H1011 0.950 . S
C1020 C1019 1.398 . S
C1020 C1021 1.391 . S
C1021 H1009 0.950 . S
C1021 C1017 1.393 . S
C1021 C1020 1.391 . S
C1022 H1012 0.950 . S
C1022 C1023 1.386 . S
C1022 C1024 1.391 . S
C1023 C1022 1.386 . S
C1023 C1027 1.393 . S
C1024 H1013 0.950 . S
C1024 C1022 1.391 . S
C1024 C1025 1.400 . S
C1025 C1019 1.491 . S
C1025 C1024 1.400 . S
C1025 C1026 1.398 . S
C1026 H1014 0.950 . S
C1026 C1025 1.398 . S
C1026 C1027 1.391 . S
C1027 H1015 0.950 . S
C1027 C1023 1.393 . S
C1027 C1026 1.391 . S
H1028 C1036 0.950 . S
H1029 C1041 0.950 . S
H1030 C1038 0.950 . S
H1031 C1040 0.950 . S
H1032 C1042 0.950 . S
H1033 C1044 0.950 . S
H1034 C1046 0.950 . S
H1035 C1047 0.950 . S
C1036 H1028 0.950 . S
C1036 C1037 1.386 . S
C1036 C1038 1.391 . S
C1037 C1036 1.386 . S
C1037 C1041 1.393 . S
C1038 H1030 0.950 . S
C1038 C1036 1.391 . S
C1038 C1039 1.400 . S
C1039 C1038 1.400 . S
C1039 C1040 1.398 . S
C1039 C1045 1.491 . S
C1040 H1031 0.950 . S
C1040 C1039 1.398 . S
C1040 C1041 1.391 . S
C1041 H1029 0.950 . S
C1041 C1037 1.393 . S
C1041 C1040 1.391 . S
C1042 H1032 0.950 . S
C1042 C1043 1.386 . S
C1042 C1044 1.391 . S
C1043 C1042 1.386 . S
C1043 C1047 1.393 . S
C1044 H1033 0.950 . S
C1044 C1042 1.391 . S
C1044 C1045 1.400 . S
C1045 C1039 1.491 . S
C1045 C1044 1.400 . S
C1045 C1046 1.398 . S
C1046 H1034 0.950 . S
C1046 C1045 1.398 . S
C1046 C1047 1.391 . S
C1047 H1035 0.950 . S
C1047 C1043 1.393 . S
C1047 C1046 1.391 . S
H1048 C1056 0.950 . S
H1049 C1061 0.950 . S
H1050 C1058 0.950 . S
H1051 C1060 0.950 . S
H1052 C1062 0.950 . S
H1053 C1064 0.950 . S
H1054 C1066 0.950 . S
H1055 C1067 0.950 . S
C1056 H1048 0.950 . S
C1056 C1057 1.386 . S
C1056 C1058 1.391 . S
C1057 C1056 1.386 . S
C1057 C1061 1.393 . S
C1058 H1050 0.950 . S
C1058 C1056 1.391 . S
C1058 C1059 1.400 . S
C1059 C1058 1.400 . S
C1059 C1060 1.398 . S
C1059 C1065 1.491 . S
C1060 H1051 0.950 . S
C1060 C1059 1.398 . S
C1060 C1061 1.391 . S
C1061 H1049 0.950 . S
C1061 C1057 1.393 . S
C1061 C1060 1.391 . S
C1062 H1052 0.950 . S
C1062 C1063 1.386 . S
C1062 C1064 1.391 . S
C1063 C1062 1.386 . S
C1063 C1067 1.393 . S
C1064 H1053 0.950 . S
C1064 C1062 1.391 . S
C1064 C1065 1.400 . S
C1065 C1059 1.491 . S
C1065 C1064 1.400 . S
C1065 C1066 1.398 . S
C1066 H1054 0.950 . S
C1066 C1065 1.398 . S
C1066 C1067 1.391 . S
C1067 H1055 0.950 . S
C1067 C1063 1.393 . S
C1067 C1066 1.391 . S
H1068 C1076 0.950 . S
H1069 C1081 0.950 . S
H1070 C1078 0.950 . S
H1071 C1080 0.950 . S
H1072 C1082 0.950 . S
H1073 C1084 0.950 . S
H1074 C1086 0.950 . S
H1075 C1087 0.950 . S
C1076 H1068 0.950 . S
C1076 C1077 1.386 . S
C1076 C1078 1.391 . S
C1077 C1076 1.386 . S
C1077 C1081 1.393 . S
C1078 H1070 0.950 . S
C1078 C1076 1.391 . S
C1078 C1079 1.400 . S
C1079 C1078 1.400 . S
C1079 C1080 1.398 . S
C1079 C1085 1.491 . S
C1080 H1071 0.950 . S
C1080 C1079 1.398 . S
C1080 C1081 1.391 . S
C1081 H1069 0.950 . S
C1081 C1077 1.393 . S
C1081 C1080 1.391 . S
C1082 H1072 0.950 . S
C1082 C1083 1.386 . S
C1082 C1084 1.391 . S
C1083 C1082 1.386 . S
C1083 C1087 1.393 . S
C1084 H1073 0.950 . S
C1084 C1082 1.391 . S
C1084 C1085 1.400 . S
C1085 C1079 1.491 . S
C1085 C1084 1.400 . S
C1085 C1086 1.398 . S
C1086 H1074 0.950 . S
C1086 C1085 1.398 . S
C1086 C1087 1.391 . S
C1087 H1075 0.950 . S
C1087 C1083 1.393 . S
C1087 C1086 1.391 . S
H1088 C1096 0.950 . S
H1089 C1101 0.950 . S
H1090 C1098 0.950 . S
H1091 C1100 0.950 . S
H1092 C1102 0.950 . S
H1093 C1104 0.950 . S
H1094 C1106 0.950 . S
H1095 C1107 0.950 . S
C1096 H1088 0.950 . S
C1096 C1097 1.386 . S
C1096 C1098 1.391 . S
C1097 C1096 1.386 . S
C1097 C1101 1.393 . S
C1098 H1090 0.950 . S
C1098 C1096 1.391 . S
C1098 C1099 1.400 . S
C1099 C1098 1.400 . S
C1099 C1100 1.398 . S
C1099 C1105 1.491 . S
C1100 H1091 0.950 . S
C1100 C1099 1.398 . S
C1100 C1101 1.391 . S
C1101 H1089 0.950 . S
C1101 C1097 1.393 . S
C1101 C1100 1.391 . S
C1102 H1092 0.950 . S
C1102 C1103 1.386 . S
C1102 C1104 1.391 . S
C1103 C1102 1.386 . S
C1103 C1107 1.393 . S
C1104 H1093 0.950 . S
C1104 C1102 1.391 . S
C1104 C1105 1.400 . S
C1105 C1099 1.491 . S
C1105 C1104 1.400 . S
C1105 C1106 1.398 . S
C1106 H1094 0.950 . S
C1106 C1105 1.398 . S
C1106 C1107 1.391 . S
C1107 H1095 0.950 . S
C1107 C1103 1.393 . S
C1107 C1106 1.391 . S
H1108 C1116 0.950 . S
H1109 C1121 0.950 . S
H1110 C1118 0.950 . S
H1111 C1120 0.950 . S
H1112 C1122 0.950 . S
H1113 C1124 0.950 . S
H1114 C1126 0.950 . S
H1115 C1127 0.950 . S
C1116 H1108 0.950 . S
C1116 C1117 1.386 . S
C1116 C1118 1.391 . S
C1117 C1116 1.386 . S
C1117 C1121 1.393 . S
C1118 H1110 0.950 . S
C1118 C1116 1.391 . S
C1118 C1119 1.400 . S
C1119 C1118 1.400 . S
C1119 C1120 1.398 . S
C1119 C1125 1.491 . S
C1120 H1111 0.950 . S
C1120 C1119 1.398 . S
C1120 C1121 1.391 . S
C1121 H1109 0.950 . S
C1121 C1117 1.393 . S
C1121 C1120 1.391 . S
C1122 H1112 0.950 . S
C1122 C1123 1.386 . S
C1122 C1124 1.391 . S
C1123 C1122 1.386 . S
C1123 C1127 1.393 . S
C1124 H1113 0.950 . S
C1124 C1122 1.391 . S
C1124 C1125 1.400 . S
C1125 C1119 1.491 . S
C1125 C1124 1.400 . S
C1125 C1126 1.398 . S
C1126 H1114 0.950 . S
C1126 C1125 1.398 . S
C1126 C1127 1.391 . S
C1127 H1115 0.950 . S
C1127 C1123 1.393 . S
C1127 C1126 1.391 . S
H1128 C1136 0.950 . S
H1129 C1141 0.950 . S
H1130 C1138 0.950 . S
H1131 C1140 0.950 . S
H1132 C1142 0.950 . S
H1133 C1144 0.950 . S
H1134 C1146 0.950 . S
H1135 C1147 0.950 . S
C1136 H1128 0.950 . S
C1136 C1137 1.386 . S
C1136 C1138 1.391 . S
C1137 C1136 1.386 . S
C1137 C1141 1.393 . S
C1138 H1130 0.950 . S
C1138 C1136 1.391 . S
C1138 C1139 1.400 . S
C1139 C1138 1.400 . S
C1139 C1140 1.398 . S
C1139 C1145 1.491 . S
C1140 H1131 0.950 . S
C1140 C1139 1.398 . S
C1140 C1141 1.391 . S
C1141 H1129 0.950 . S
C1141 C1137 1.393 . S
C1141 C1140 1.391 . S
C1142 H1132 0.950 . S
C1142 C1143 1.386 . S
C1142 C1144 1.391 . S
C1143 C1142 1.386 . S
C1143 C1147 1.393 . S
C1144 H1133 0.950 . S
C1144 C1142 1.391 . S
C1144 C1145 1.400 . S
C1145 C1139 1.491 . S
C1145 C1144 1.400 . S
C1145 C1146 1.398 . S
C1146 H1134 0.950 . S
C1146 C1145 1.398 . S
C1146 C1147 1.391 . S
C1147 H1135 0.950 . S
C1147 C1143 1.393 . S
C1147 C1146 1.391 . S
H1148 C1156 0.950 . S
H1149 C1161 0.950 . S
H1150 C1158 0.950 . S
H1151 C1160 0.950 . S
H1152 C1162 0.950 . S
H1153 C1164 0.950 . S
H1154 C1166 0.950 . S
H1155 C1167 0.950 . S
C1156 H1148 0.950 . S
C1156 C1157 1.386 . S
C1156 C1158 1.391 . S
C1157 C1156 1.386 . S
C1157 C1161 1.393 . S
C1158 H1150 0.950 . S
C1158 C1156 1.391 . S
C1158 C1159 1.400 . S
C1159 C1158 1.400 . S
C1159 C1160 1.398 . S
C1159 C1165 1.491 . S
C1160 H1151 0.950 . S
C1160 C1159 1.398 . S
C1160 C1161 1.391 . S
C1161 H1149 0.950 . S
C1161 C1157 1.393 . S
C1161 C1160 1.391 . S
C1162 H1152 0.950 . S
C1162 C1163 1.386 . S
C1162 C1164 1.391 . S
C1163 C1162 1.386 . S
C1163 C1167 1.393 . S
C1164 H1153 0.950 . S
C1164 C1162 1.391 . S
C1164 C1165 1.400 . S
C1165 C1159 1.491 . S
C1165 C1164 1.400 . S
C1165 C1166 1.398 . S
C1166 H1154 0.950 . S
C1166 C1165 1.398 . S
C1166 C1167 1.391 . S
C1167 H1155 0.950 . S
C1167 C1163 1.393 . S
C1167 C1166 1.391 . S
H1168 C1176 0.950 . S
H1169 C1181 0.950 . S
H1170 C1178 0.950 . S
H1171 C1180 0.950 . S
H1172 C1182 0.950 . S
H1173 C1184 0.950 . S
H1174 C1186 0.950 . S
H1175 C1187 0.950 . S
C1176 H1168 0.950 . S
C1176 C1177 1.386 . S
C1176 C1178 1.391 . S
C1177 C1176 1.386 . S
C1177 C1181 1.393 . S
C1178 H1170 0.950 . S
C1178 C1176 1.391 . S
C1178 C1179 1.400 . S
C1179 C1178 1.400 . S
C1179 C1180 1.398 . S
C1179 C1185 1.491 . S
C1180 H1171 0.950 . S
C1180 C1179 1.398 . S
C1180 C1181 1.391 . S
C1181 H1169 0.950 . S
C1181 C1177 1.393 . S
C1181 C1180 1.391 . S
C1182 H1172 0.950 . S
C1182 C1183 1.386 . S
C1182 C1184 1.391 . S
C1183 C1182 1.386 . S
C1183 C1187 1.393 . S
C1184 H1173 0.950 . S
C1184 C1182 1.391 . S
C1184 C1185 1.400 . S
C1185 C1179 1.491 . S
C1185 C1184 1.400 . S
C1185 C1186 1.398 . S
C1186 H1174 0.950 . S
C1186 C1185 1.398 . S
C1186 C1187 1.391 . S
C1187 H1175 0.950 . S
C1187 C1183 1.393 . S
C1187 C1186 1.391 . S
H1188 C1196 0.950 . S
H1189 C1201 0.950 . S
H1190 C1198 0.950 . S
H1191 C1200 0.950 . S
H1192 C1202 0.950 . S
H1193 C1204 0.950 . S
H1194 C1206 0.950 . S
H1195 C1207 0.950 . S
C1196 H1188 0.950 . S
C1196 C1197 1.386 . S
C1196 C1198 1.391 . S
C1197 C1196 1.386 . S
C1197 C1201 1.393 . S
C1198 H1190 0.950 . S
C1198 C1196 1.391 . S
C1198 C1199 1.400 . S
C1199 C1198 1.400 . S
C1199 C1200 1.398 . S
C1199 C1205 1.491 . S
C1200 H1191 0.950 . S
C1200 C1199 1.398 . S
C1200 C1201 1.391 . S
C1201 H1189 0.950 . S
C1201 C1197 1.393 . S
C1201 C1200 1.391 . S
C1202 H1192 0.950 . S
C1202 C1203 1.386 . S
C1202 C1204 1.391 . S
C1203 C1202 1.386 . S
C1203 C1207 1.393 . S
C1204 H1193 0.950 . S
C1204 C1202 1.391 . S
C1204 C1205 1.400 . S
C1205 C1199 1.491 . S
C1205 C1204 1.400 . S
C1205 C1206 1.398 . S
C1206 H1194 0.950 . S
C1206 C1205 1.398 . S
C1206 C1207 1.391 . S
C1207 H1195 0.950 . S
C1207 C1203 1.393 . S
C1207 C1206 1.391 . S
H1208 C1216 0.950 . S
H1209 C1221 0.950 . S
H1210 C1218 0.950 . S
H1211 C1220 0.950 . S
H1212 C1222 0.950 . S
H1213 C1224 0.950 . S
H1214 C1226 0.950 . S
H1215 C1227 0.950 . S
C1216 H1208 0.950 . S
C1216 C1217 1.386 . S
C1216 C1218 1.391 . S
C1217 C1216 1.386 . S
C1217 C1221 1.393 . S
C1218 H1210 0.950 . S
C1218 C1216 1.391 . S
C1218 C1219 1.400 . S
C1219 C1218 1.400 . S
C1219 C1220 1.398 . S
C1219 C1225 1.491 . S
C1220 H1211 0.950 . S
C1220 C1219 1.398 . S
C1220 C1221 1.391 . S
C1221 H1209 0.950 . S
C1221 C1217 1.393 . S
C1221 C1220 1.391 . S
C1222 H1212 0.950 . S
C1222 C1223 1.386 . S
C1222 C1224 1.391 . S
C1223 C1222 1.386 . S
C1223 C1227 1.393 . S
C1224 H1213 0.950 . S
C1224 C1222 1.391 . S
C1224 C1225 1.400 . S
C1225 C1219 1.491 . S
C1225 C1224 1.400 . S
C1225 C1226 1.398 . S
C1226 H1214 0.950 . S
C1226 C1225 1.398 . S
C1226 C1227 1.391 . S
C1227 H1215 0.950 . S
C1227 C1223 1.393 . S
C1227 C1226 1.391 . S
H1228 C1236 0.950 . S
H1229 C1241 0.950 . S
H1230 C1238 0.950 . S
H1231 C1240 0.950 . S
H1232 C1242 0.950 . S
H1233 C1244 0.950 . S
H1234 C1246 0.950 . S
H1235 C1247 0.950 . S
C1236 H1228 0.950 . S
C1236 C1237 1.386 . S
C1236 C1238 1.391 . S
C1237 C1236 1.386 . S
C1237 C1241 1.393 . S
C1238 H1230 0.950 . S
C1238 C1236 1.391 . S
C1238 C1239 1.400 . S
C1239 C1238 1.400 . S
C1239 C1240 1.398 . S
C1239 C1245 1.491 . S
C1240 H1231 0.950 . S
C1240 C1239 1.398 . S
C1240 C1241 1.391 . S
C1241 H1229 0.950 . S
C1241 C1237 1.393 . S
C1241 C1240 1.391 . S
C1242 H1232 0.950 . S
C1242 C1243 1.386 . S
C1242 C1244 1.391 . S
C1243 C1242 1.386 . S
C1243 C1247 1.393 . S
C1244 H1233 0.950 . S
C1244 C1242 1.391 . S
C1244 C1245 1.400 . S
C1245 C1239 1.491 . S
C1245 C1244 1.400 . S
C1245 C1246 1.398 . S
C1246 H1234 0.950 . S
C1246 C1245 1.398 . S
C1246 C1247 1.391 . S
C1247 H1235 0.950 . S
C1247 C1243 1.393 . S
C1247 C1246 1.391 . S
H1248 C1256 0.950 . S
H1249 C1261 0.950 . S
H1250 C1258 0.950 . S
H1251 C1260 0.950 . S
H1252 C1262 0.950 . S
H1253 C1264 0.950 . S
H1254 C1266 0.950 . S
H1255 C1267 0.950 . S
C1256 H1248 0.950 . S
C1256 C1257 1.386 . S
C1256 C1258 1.391 . S
C1257 C1256 1.386 . S
C1257 C1261 1.393 . S
C1258 H1250 0.950 . S
C1258 C1256 1.391 . S
C1258 C1259 1.400 . S
C1259 C1258 1.400 . S
C1259 C1260 1.398 . S
C1259 C1265 1.491 1_554 S
C1260 H1251 0.950 . S
C1260 C1259 1.398 . S
C1260 C1261 1.391 . S
C1261 H1249 0.950 . S
C1261 C1257 1.393 . S
C1261 C1260 1.391 . S
C1262 H1252 0.950 . S
C1262 C1263 1.386 . S
C1262 C1264 1.391 . S
C1263 C1262 1.386 . S
C1263 C1267 1.393 . S
C1264 H1253 0.950 . S
C1264 C1262 1.391 . S
C1264 C1265 1.400 . S
C1265 C1259 1.491 1_556 S
C1265 C1264 1.400 . S
C1265 C1266 1.398 . S
C1266 H1254 0.950 . S
C1266 C1265 1.398 . S
C1266 C1267 1.391 . S
C1267 H1255 0.950 . S
C1267 C1263 1.393 . S
C1267 C1266 1.391 . S
H1268 C1276 0.950 . S
H1269 C1281 0.950 . S
H1270 C1278 0.950 . S
H1271 C1280 0.950 . S
H1272 C1282 0.950 . S
H1273 C1284 0.950 . S
H1274 C1286 0.950 . S
H1275 C1287 0.950 . S
C1276 H1268 0.950 . S
C1276 C1277 1.386 . S
C1276 C1278 1.391 . S
C1277 C1276 1.386 . S
C1277 C1281 1.393 . S
C1278 H1270 0.950 . S
C1278 C1276 1.391 . S
C1278 C1279 1.400 . S
C1279 C1278 1.400 . S
C1279 C1280 1.398 . S
C1279 C1285 1.491 1_556 S
C1280 H1271 0.950 . S
C1280 C1279 1.398 . S
C1280 C1281 1.391 . S
C1281 H1269 0.950 . S
C1281 C1277 1.393 . S
C1281 C1280 1.391 . S
C1282 H1272 0.950 . S
C1282 C1283 1.386 . S
C1282 C1284 1.391 . S
C1283 C1282 1.386 . S
C1283 C1287 1.393 . S
C1284 H1273 0.950 . S
C1284 C1282 1.391 . S
C1284 C1285 1.400 . S
C1285 C1279 1.491 1_554 S
C1285 C1284 1.400 . S
C1285 C1286 1.398 . S
C1286 H1274 0.950 . S
C1286 C1285 1.398 . S
C1286 C1287 1.391 . S
C1287 H1275 0.950 . S
C1287 C1283 1.393 . S
C1287 C1286 1.391 . S
H1288 C1296 0.950 . S
H1289 C1301 0.950 . S
H1290 C1298 0.950 . S
H1291 C1300 0.950 . S
H1292 C1302 0.950 . S
H1293 C1304 0.950 . S
H1294 C1306 0.950 . S
H1295 C1307 0.950 . S
C1296 H1288 0.950 . S
C1296 C1297 1.386 . S
C1296 C1298 1.391 . S
C1297 C1296 1.386 . S
C1297 C1301 1.393 . S
C1298 H1290 0.950 . S
C1298 C1296 1.391 . S
C1298 C1299 1.400 . S
C1299 C1298 1.400 . S
C1299 C1300 1.398 . S
C1299 C1305 1.491 1_554 S
C1300 H1291 0.950 . S
C1300 C1299 1.398 . S
C1300 C1301 1.391 . S
C1301 H1289 0.950 . S
C1301 C1297 1.393 . S
C1301 C1300 1.391 . S
C1302 H1292 0.950 . S
C1302 C1303 1.386 . S
C1302 C1304 1.391 . S
C1303 C1302 1.386 . S
C1303 C1307 1.393 . S
C1304 H1293 0.950 . S
C1304 C1302 1.391 . S
C1304 C1305 1.400 . S
C1305 C1299 1.491 1_556 S
C1305 C1304 1.400 . S
C1305 C1306 1.398 . S
C1306 H1294 0.950 . S
C1306 C1305 1.398 . S
C1306 C1307 1.391 . S
C1307 H1295 0.950 . S
C1307 C1303 1.393 . S
C1307 C1306 1.391 . S
H1308 C1316 0.950 . S
H1309 C1321 0.950 . S
H1310 C1318 0.950 . S
H1311 C1320 0.950 . S
H1312 C1322 0.950 . S
H1313 C1324 0.950 . S
H1314 C1326 0.950 . S
H1315 C1327 0.950 . S
C1316 H1308 0.950 . S
C1316 C1317 1.386 . S
C1316 C1318 1.391 . S
C1317 C1316 1.386 . S
C1317 C1321 1.393 . S
C1318 H1310 0.950 . S
C1318 C1316 1.391 . S
C1318 C1319 1.400 . S
C1319 C1318 1.400 . S
C1319 C1320 1.398 . S
C1319 C1325 1.491 1_554 S
C1320 H1311 0.950 . S
C1320 C1319 1.398 . S
C1320 C1321 1.391 . S
C1321 H1309 0.950 . S
C1321 C1317 1.393 . S
C1321 C1320 1.391 . S
C1322 H1312 0.950 . S
C1322 C1323 1.386 . S
C1322 C1324 1.391 . S
C1323 C1322 1.386 . S
C1323 C1327 1.393 . S
C1324 H1313 0.950 . S
C1324 C1322 1.391 . S
C1324 C1325 1.400 . S
C1325 C1319 1.491 1_556 S
C1325 C1324 1.400 . S
C1325 C1326 1.398 . S
C1326 H1314 0.950 . S
C1326 C1325 1.398 . S
C1326 C1327 1.391 . S
C1327 H1315 0.950 . S
C1327 C1323 1.393 . S
C1327 C1326 1.391 . S
H1328 C1336 0.950 . S
H1329 C1341 0.950 . S
H1330 C1338 0.950 . S
H1331 C1340 0.950 . S
H1332 C1342 0.950 . S
H1333 C1344 0.950 . S
H1334 C1346 0.950 . S
H1335 C1347 0.950 . S
C1336 H1328 0.950 . S
C1336 C1337 1.386 . S
C1336 C1338 1.391 . S
C1337 C1336 1.386 . S
C1337 C1341 1.393 . S
C1338 H1330 0.950 . S
C1338 C1336 1.391 . S
C1338 C1339 1.400 . S
C1339 C1338 1.400 . S
C1339 C1340 1.398 . S
C1339 C1345 1.491 1_554 S
C1340 H1331 0.950 . S
C1340 C1339 1.398 . S
C1340 C1341 1.391 . S
C1341 H1329 0.950 . S
C1341 C1337 1.393 . S
C1341 C1340 1.391 . S
C1342 H1332 0.950 . S
C1342 C1343 1.386 . S
C1342 C1344 1.391 . S
C1343 C1342 1.386 . S
C1343 C1347 1.393 . S
C1344 H1333 0.950 . S
C1344 C1342 1.391 . S
C1344 C1345 1.400 . S
C1345 C1339 1.491 1_556 S
C1345 C1344 1.400 . S
C1345 C1346 1.398 . S
C1346 H1334 0.950 . S
C1346 C1345 1.398 . S
C1346 C1347 1.391 . S
C1347 H1335 0.950 . S
C1347 C1343 1.393 . S
C1347 C1346 1.391 . S
H1348 C1356 0.950 . S
H1349 C1361 0.950 . S
H1350 C1358 0.950 . S
H1351 C1360 0.950 . S
H1352 C1362 0.950 . S
H1353 C1364 0.950 . S
H1354 C1366 0.950 . S
H1355 C1367 0.950 . S
C1356 H1348 0.950 . S
C1356 C1357 1.386 . S
C1356 C1358 1.391 . S
C1357 C1356 1.386 . S
C1357 C1361 1.393 . S
C1358 H1350 0.950 . S
C1358 C1356 1.391 . S
C1358 C1359 1.400 . S
C1359 C1358 1.400 . S
C1359 C1360 1.398 . S
C1359 C1365 1.491 1_554 S
C1360 H1351 0.950 . S
C1360 C1359 1.398 . S
C1360 C1361 1.391 . S
C1361 H1349 0.950 . S
C1361 C1357 1.393 . S
C1361 C1360 1.391 . S
C1362 H1352 0.950 . S
C1362 C1363 1.386 . S
C1362 C1364 1.391 . S
C1363 C1362 1.386 . S
C1363 C1367 1.393 . S
C1364 H1353 0.950 . S
C1364 C1362 1.391 . S
C1364 C1365 1.400 . S
C1365 C1359 1.491 1_556 S
C1365 C1364 1.400 . S
C1365 C1366 1.398 . S
C1366 H1354 0.950 . S
C1366 C1365 1.398 . S
C1366 C1367 1.391 . S
C1367 H1355 0.950 . S
C1367 C1363 1.393 . S
C1367 C1366 1.391 . S
H1368 C1376 0.950 . S
H1369 C1381 0.950 . S
H1370 C1378 0.950 . S
H1371 C1380 0.950 . S
H1372 C1382 0.950 . S
H1373 C1384 0.950 . S
H1374 C1386 0.950 . S
H1375 C1387 0.950 . S
C1376 H1368 0.950 . S
C1376 C1377 1.386 . S
C1376 C1378 1.391 . S
C1377 C1376 1.386 . S
C1377 C1381 1.393 . S
C1378 H1370 0.950 . S
C1378 C1376 1.391 . S
C1378 C1379 1.400 . S
C1379 C1378 1.400 . S
C1379 C1380 1.398 . S
C1379 C1385 1.491 1_556 S
C1380 H1371 0.950 . S
C1380 C1379 1.398 . S
C1380 C1381 1.391 . S
C1381 H1369 0.950 . S
C1381 C1377 1.393 . S
C1381 C1380 1.391 . S
C1382 H1372 0.950 . S
C1382 C1383 1.386 . S
C1382 C1384 1.391 . S
C1383 C1382 1.386 . S
C1383 C1387 1.393 . S
C1384 H1373 0.950 . S
C1384 C1382 1.391 . S
C1384 C1385 1.400 . S
C1385 C1379 1.491 1_554 S
C1385 C1384 1.400 . S
C1385 C1386 1.398 . S
C1386 H1374 0.950 . S
C1386 C1385 1.398 . S
C1386 C1387 1.391 . S
C1387 H1375 0.950 . S
C1387 C1383 1.393 . S
C1387 C1386 1.391 . S
H1388 C1396 0.950 . S
H1389 C1401 0.950 . S
H1390 C1398 0.950 . S
H1391 C1400 0.950 . S
H1392 C1402 0.950 . S
H1393 C1404 0.950 . S
H1394 C1406 0.950 . S
H1395 C1407 0.950 . S
C1396 H1388 0.950 . S
C1396 C1397 1.386 . S
C1396 C1398 1.391 . S
C1397 C1396 1.386 . S
C1397 C1401 1.393 . S
C1398 H1390 0.950 . S
C1398 C1396 1.391 . S
C1398 C1399 1.400 . S
C1399 C1398 1.400 . S
C1399 C1400 1.398 . S
C1399 C1405 1.491 1_556 S
C1400 H1391 0.950 . S
C1400 C1399 1.398 . S
C1400 C1401 1.391 . S
C1401 H1389 0.950 . S
C1401 C1397 1.393 . S
C1401 C1400 1.391 . S
C1402 H1392 0.950 . S
C1402 C1403 1.386 . S
C1402 C1404 1.391 . S
C1403 C1402 1.386 . S
C1403 C1407 1.393 . S
C1404 H1393 0.950 . S
C1404 C1402 1.391 . S
C1404 C1405 1.400 . S
C1405 C1399 1.491 1_554 S
C1405 C1404 1.400 . S
C1405 C1406 1.398 . S
C1406 H1394 0.950 . S
C1406 C1405 1.398 . S
C1406 C1407 1.391 . S
C1407 H1395 0.950 . S
C1407 C1403 1.393 . S
C1407 C1406 1.391 . S
H1408 C1416 0.950 . S
H1409 C1421 0.950 . S
H1410 C1418 0.950 . S
H1411 C1420 0.950 . S
H1412 C1422 0.950 . S
H1413 C1424 0.950 . S
H1414 C1426 0.950 . S
H1415 C1427 0.950 . S
C1416 H1408 0.950 . S
C1416 C1417 1.386 . S
C1416 C1418 1.391 . S
C1417 C1416 1.386 . S
C1417 C1421 1.393 . S
C1418 H1410 0.950 . S
C1418 C1416 1.391 . S
C1418 C1419 1.400 . S
C1419 C1418 1.400 . S
C1419 C1420 1.398 . S
C1419 C1425 1.491 . S
C1420 H1411 0.950 . S
C1420 C1419 1.398 . S
C1420 C1421 1.391 . S
C1421 H1409 0.950 . S
C1421 C1417 1.393 . S
C1421 C1420 1.391 . S
C1422 H1412 0.950 . S
C1422 C1423 1.386 . S
C1422 C1424 1.391 . S
C1423 C1422 1.386 . S
C1423 C1427 1.393 . S
C1424 H1413 0.950 . S
C1424 C1422 1.391 . S
C1424 C1425 1.400 . S
C1425 C1419 1.491 . S
C1425 C1424 1.400 . S
C1425 C1426 1.398 . S
C1426 H1414 0.950 . S
C1426 C1425 1.398 . S
C1426 C1427 1.391 . S
C1427 H1415 0.950 . S
C1427 C1423 1.393 . S
C1427 C1426 1.391 . S
H1428 C1436 0.950 . S
H1429 C1441 0.950 . S
H1430 C1438 0.950 . S
H1431 C1440 0.950 . S
H1432 C1442 0.950 . S
H1433 C1444 0.950 . S
H1434 C1446 0.950 . S
H1435 C1447 0.950 . S
C1436 H1428 0.950 . S
C1436 C1437 1.386 . S
C1436 C1438 1.391 . S
C1437 C1436 1.386 . S
C1437 C1441 1.393 . S
C1438 H1430 0.950 . S
C1438 C1436 1.391 . S
C1438 C1439 1.400 . S
C1439 C1438 1.400 . S
C1439 C1440 1.398 . S
C1439 C1445 1.491 . S
C1440 H1431 0.950 . S
C1440 C1439 1.398 . S
C1440 C1441 1.391 . S
C1441 H1429 0.950 . S
C1441 C1437 1.393 . S
C1441 C1440 1.391 . S
C1442 H1432 0.950 . S
C1442 C1443 1.386 . S
C1442 C1444 1.391 . S
C1443 C1442 1.386 . S
C1443 C1447 1.393 . S
C1444 H1433 0.950 . S
C1444 C1442 1.391 . S
C1444 C1445 1.400 . S
C1445 C1439 1.491 . S
C1445 C1444 1.400 . S
C1445 C1446 1.398 . S
C1446 H1434 0.950 . S
C1446 C1445 1.398 . S
C1446 C1447 1.391 . S
C1447 H1435 0.950 . S
C1447 C1443 1.393 . S
C1447 C1446 1.391 . S
H1448 C1456 0.950 . S
H1449 C1461 0.950 . S
H1450 C1458 0.950 . S
H1451 C1460 0.950 . S
H1452 C1462 0.950 . S
H1453 C1464 0.950 . S
H1454 C1466 0.950 . S
H1455 C1467 0.950 . S
C1456 H1448 0.950 . S
C1456 C1457 1.386 . S
C1456 C1458 1.391 . S
C1457 C1456 1.386 . S
C1457 C1461 1.393 . S
C1458 H1450 0.950 . S
C1458 C1456 1.391 . S
C1458 C1459 1.400 . S
C1459 C1458 1.400 . S
C1459 C1460 1.398 . S
C1459 C1465 1.491 . S
C1460 H1451 0.950 . S
C1460 C1459 1.398 . S
C1460 C1461 1.391 . S
C1461 H1449 0.950 . S
C1461 C1457 1.393 . S
C1461 C1460 1.391 . S
C1462 H1452 0.950 . S
C1462 C1463 1.386 . S
C1462 C1464 1.391 . S
C1463 C1462 1.386 . S
C1463 C1467 1.393 . S
C1464 H1453 0.950 . S
C1464 C1462 1.391 . S
C1464 C1465 1.400 . S
C1465 C1459 1.491 . S
C1465 C1464 1.400 . S
C1465 C1466 1.398 . S
C1466 H1454 0.950 . S
C1466 C1465 1.398 . S
C1466 C1467 1.391 . S
C1467 H1455 0.950 . S
C1467 C1463 1.393 . S
C1467 C1466 1.391 . S
H1468 C1476 0.950 . S
H1469 C1481 0.950 . S
H1470 C1478 0.950 . S
H1471 C1480 0.950 . S
H1472 C1482 0.950 . S
H1473 C1484 0.950 . S
H1474 C1486 0.950 . S
H1475 C1487 0.950 . S
C1476 H1468 0.950 . S
C1476 C1477 1.386 . S
C1476 C1478 1.391 . S
C1477 C1476 1.386 . S
C1477 C1481 1.393 . S
C1478 H1470 0.950 . S
C1478 C1476 1.391 . S
C1478 C1479 1.400 . S
C1479 C1478 1.400 . S
C1479 C1480 1.398 . S
C1479 C1485 1.491 . S
C1480 H1471 0.950 . S
C1480 C1479 1.398 . S
C1480 C1481 1.391 . S
C1481 H1469 0.950 . S
C1481 C1477 1.393 . S
C1481 C1480 1.391 . S
C1482 H1472 0.950 . S
C1482 C1483 1.386 . S
C1482 C1484 1.391 . S
C1483 C1482 1.386 . S
C1483 C1487 1.393 . S
C1484 H1473 0.950 . S
C1484 C1482 1.391 . S
C1484 C1485 1.400 . S
C1485 C1479 1.491 . S
C1485 C1484 1.400 . S
C1485 C1486 1.398 . S
C1486 H1474 0.950 . S
C1486 C1485 1.398 . S
C1486 C1487 1.391 . S
C1487 H1475 0.950 . S
C1487 C1483 1.393 . S
C1487 C1486 1.391 . S
H1488 C1496 0.950 . S
H1489 C1501 0.950 . S
H1490 C1498 0.950 . S
H1491 C1500 0.950 . S
H1492 C1502 0.950 . S
H1493 C1504 0.950 . S
H1494 C1506 0.950 . S
H1495 C1507 0.950 . S
C1496 H1488 0.950 . S
C1496 C1497 1.386 . S
C1496 C1498 1.391 . S
C1497 C1496 1.386 . S
C1497 C1501 1.393 . S
C1498 H1490 0.950 . S
C1498 C1496 1.391 . S
C1498 C1499 1.400 . S
C1499 C1498 1.400 . S
C1499 C1500 1.398 . S
C1499 C1505 1.491 . S
C1500 H1491 0.950 . S
C1500 C1499 1.398 . S
C1500 C1501 1.391 . S
C1501 H1489 0.950 . S
C1501 C1497 1.393 . S
C1501 C1500 1.391 . S
C1502 H1492 0.950 . S
C1502 C1503 1.386 . S
C1502 C1504 1.391 . S
C1503 C1502 1.386 . S
C1503 C1507 1.393 . S
C1504 H1493 0.950 . S
C1504 C1502 1.391 . S
C1504 C1505 1.400 . S
C1505 C1499 1.491 . S
C1505 C1504 1.400 . S
C1505 C1506 1.398 . S
C1506 H1494 0.950 . S
C1506 C1505 1.398 . S
C1506 C1507 1.391 . S
C1507 H1495 0.950 . S
C1507 C1503 1.393 . S
C1507 C1506 1.391 . S
H1508 C1516 0.950 . S
H1509 C1521 0.950 . S
H1510 C1518 0.950 . S
H1511 C1520 0.950 . S
H1512 C1522 0.950 . S
H1513 C1524 0.950 . S
H1514 C1526 0.950 . S
H1515 C1527 0.950 . S
C1516 H1508 0.950 . S
C1516 C1517 1.386 . S
C1516 C1518 1.391 . S
C1517 C1516 1.386 . S
C1517 C1521 1.393 . S
C1518 H1510 0.950 . S
C1518 C1516 1.391 . S
C1518 C1519 1.400 . S
C1519 C1518 1.400 . S
C1519 C1520 1.398 . S
C1519 C1525 1.491 . S
C1520 H1511 0.950 . S
C1520 C1519 1.398 . S
C1520 C1521 1.391 . S
C1521 H1509 0.950 . S
C1521 C1517 1.393 . S
C1521 C1520 1.391 . S
C1522 H1512 0.950 . S
C1522 C1523 1.386 . S
C1522 C1524 1.391 . S
C1523 C1522 1.386 . S
C1523 C1527 1.393 . S
C1524 H1513 0.950 . S
C1524 C1522 1.391 . S
C1524 C1525 1.400 . S
C1525 C1519 1.491 . S
C1525 C1524 1.400 . S
C1525 C1526 1.398 . S
C1526 H1514 0.950 . S
C1526 C1525 1.398 . S
C1526 C1527 1.391 . S
C1527 H1515 0.950 . S
C1527 C1523 1.393 . S
C1527 C1526 1.391 . S
H1528 C1536 0.950 . S
H1529 C1541 0.950 . S
H1530 C1538 0.950 . S
H1531 C1540 0.950 . S
H1532 C1542 0.950 . S
H1533 C1544 0.950 . S
H1534 C1546 0.950 . S
H1535 C1547 0.950 . S
C1536 H1528 0.950 . S
C1536 C1537 1.386 . S
C1536 C1538 1.391 . S
C1537 C1536 1.386 . S
C1537 C1541 1.393 . S
C1538 H1530 0.950 . S
C1538 C1536 1.391 . S
C1538 C1539 1.400 . S
C1539 C1538 1.400 . S
C1539 C1540 1.398 . S
C1539 C1545 1.491 . S
C1540 H1531 0.950 . S
C1540 C1539 1.398 . S
C1540 C1541 1.391 . S
C1541 H1529 0.950 . S
C1541 C1537 1.393 . S
C1541 C1540 1.391 . S
C1542 H1532 0.950 . S
C1542 C1543 1.386 . S
C1542 C1544 1.391 . S
C1543 C1542 1.386 . S
C1543 C1547 1.393 . S
C1544 H1533 0.950 . S
C1544 C1542 1.391 . S
C1544 C1545 1.400 . S
C1545 C1539 1.491 . S
C1545 C1544 1.400 . S
C1545 C1546 1.398 . S
C1546 H1534 0.950 . S
C1546 C1545 1.398 . S
C1546 C1547 1.391 . S
C1547 H1535 0.950 . S
C1547 C1543 1.393 . S
C1547 C1546 1.391 . S
H1548 C1556 0.950 . S
H1549 C1561 0.950 . S
H1550 C1558 0.950 . S
H1551 C1560 0.950 . S
H1552 C1562 0.950 . S
H1553 C1564 0.950 . S
H1554 C1566 0.950 . S
H1555 C1567 0.950 . S
C1556 H1548 0.950 . S
C1556 C1557 1.386 . S
C1556 C1558 1.391 . S
C1557 C1556 1.386 . S
C1557 C1561 1.393 . S
C1558 H1550 0.950 . S
C1558 C1556 1.391 . S
C1558 C1559 1.400 . S
C1559 C1558 1.400 . S
C1559 C1560 1.398 . S
C1559 C1565 1.491 . S
C1560 H1551 0.950 . S
C1560 C1559 1.398 . S
C1560 C1561 1.391 . S
C1561 H1549 0.950 . S
C1561 C1557 1.393 . S
C1561 C1560 1.391 . S
C1562 H1552 0.950 . S
C1562 C1563 1.386 . S
C1562 C1564 1.391 . S
C1563 C1562 1.386 . S
C1563 C1567 1.393 . S
C1564 H1553 0.950 . S
C1564 C1562 1.391 . S
C1564 C1565 1.400 . S
C1565 C1559 1.491 . S
C1565 C1564 1.400 . S
C1565 C1566 1.398 . S
C1566 H1554 0.950 . S
C1566 C1565 1.398 . S
C1566 C1567 1.391 . S
C1567 H1555 0.950 . S
C1567 C1563 1.393 . S
C1567 C1566 1.391 . S
H1568 C1576 0.950 . S
H1569 C1581 0.950 . S
H1570 C1578 0.950 . S
H1571 C1580 0.950 . S
H1572 C1582 0.950 . S
H1573 C1584 0.950 . S
H1574 C1586 0.950 . S
H1575 C1587 0.950 . S
C1576 H1568 0.950 . S
C1576 C1577 1.386 . S
C1576 C1578 1.391 . S
C1577 C1576 1.386 . S
C1577 C1581 1.393 . S
C1578 H1570 0.950 . S
C1578 C1576 1.391 . S
C1578 C1579 1.400 . S
C1579 C1578 1.400 . S
C1579 C1580 1.398 . S
C1579 C1585 1.491 . S
C1580 H1571 0.950 . S
C1580 C1579 1.398 . S
C1580 C1581 1.391 . S
C1581 H1569 0.950 . S
C1581 C1577 1.393 . S
C1581 C1580 1.391 . S
C1582 H1572 0.950 . S
C1582 C1583 1.386 . S
C1582 C1584 1.391 . S
C1583 C1582 1.386 . S
C1583 C1587 1.393 . S
C1584 H1573 0.950 . S
C1584 C1582 1.391 . S
C1584 C1585 1.400 . S
C1585 C1579 1.491 . S
C1585 C1584 1.400 . S
C1585 C1586 1.398 . S
C1586 H1574 0.950 . S
C1586 C1585 1.398 . S
C1586 C1587 1.391 . S
C1587 H1575 0.950 . S
C1587 C1583 1.393 . S
C1587 C1586 1.391 . S
H1588 C1596 0.950 . S
H1589 C1601 0.950 . S
H1590 C1598 0.950 . S
H1591 C1600 0.950 . S
H1592 C1602 0.950 . S
H1593 C1604 0.950 . S
H1594 C1606 0.950 . S
H1595 C1607 0.950 . S
C1596 H1588 0.950 . S
C1596 C1597 1.386 . S
C1596 C1598 1.391 . S
C1597 C1596 1.386 . S
C1597 C1601 1.393 . S
C1598 H1590 0.950 . S
C1598 C1596 1.391 . S
C1598 C1599 1.400 . S
C1599 C1598 1.400 . S
C1599 C1600 1.398 . S
C1599 C1605 1.491 . S
C1600 H1591 0.950 . S
C1600 C1599 1.398 . S
C1600 C1601 1.391 . S
C1601 H1589 0.950 . S
C1601 C1597 1.393 . S
C1601 C1600 1.391 . S
C1602 H1592 0.950 . S
C1602 C1603 1.386 . S
C1602 C1604 1.391 . S
C1603 C1602 1.386 . S
C1603 C1607 1.393 . S
C1604 H1593 0.950 . S
C1604 C1602 1.391 . S
C1604 C1605 1.400 . S
C1605 C1599 1.491 . S
C1605 C1604 1.400 . S
C1605 C1606 1.398 . S
C1606 H1594 0.950 . S
C1606 C1605 1.398 . S
C1606 C1607 1.391 . S
C1607 H1595 0.950 . S
C1607 C1603 1.393 . S
C1607 C1606 1.391 . S
H1608 C1616 0.950 . S
H1609 C1621 0.950 . S
H1610 C1618 0.950 . S
H1611 C1620 0.950 . S
H1612 C1622 0.950 . S
H1613 C1624 0.950 . S
H1614 C1626 0.950 . S
H1615 C1627 0.950 . S
C1616 H1608 0.950 . S
C1616 C1617 1.386 . S
C1616 C1618 1.391 . S
C1617 C1616 1.386 . S
C1617 C1621 1.393 . S
C1618 H1610 0.950 . S
C1618 C1616 1.391 . S
C1618 C1619 1.400 . S
C1619 C1618 1.400 . S
C1619 C1620 1.398 . S
C1619 C1625 1.491 . S
C1620 H1611 0.950 . S
C1620 C1619 1.398 . S
C1620 C1621 1.391 . S
C1621 H1609 0.950 . S
C1621 C1617 1.393 . S
C1621 C1620 1.391 . S
C1622 H1612 0.950 . S
C1622 C1623 1.386 . S
C1622 C1624 1.391 . S
C1623 C1622 1.386 . S
C1623 C1627 1.393 . S
C1624 H1613 0.950 . S
C1624 C1622 1.391 . S
C1624 C1625 1.400 . S
C1625 C1619 1.491 . S
C1625 C1624 1.400 . S
C1625 C1626 1.398 . S
C1626 H1614 0.950 . S
C1626 C1625 1.398 . S
C1626 C1627 1.391 . S
C1627 H1615 0.950 . S
C1627 C1623 1.393 . S
C1627 C1626 1.391 . S
H1628 C1636 0.950 . S
H1629 C1641 0.950 . S
H1630 C1638 0.950 . S
H1631 C1640 0.950 . S
H1632 C1642 0.950 . S
H1633 C1644 0.950 . S
H1634 C1646 0.950 . S
H1635 C1647 0.950 . S
C1636 H1628 0.950 . S
C1636 C1637 1.386 . S
C1636 C1638 1.391 . S
C1637 C1636 1.386 . S
C1637 C1641 1.393 . S
C1638 H1630 0.950 . S
C1638 C1636 1.391 . S
C1638 C1639 1.400 . S
C1639 C1638 1.400 . S
C1639 C1640 1.398 . S
C1639 C1645 1.491 . S
C1640 H1631 0.950 . S
C1640 C1639 1.398 . S
C1640 C1641 1.391 . S
C1641 H1629 0.950 . S
C1641 C1637 1.393 . S
C1641 C1640 1.391 . S
C1642 H1632 0.950 . S
C1642 C1643 1.386 . S
C1642 C1644 1.391 . S
C1643 C1642 1.386 . S
C1643 C1647 1.393 . S
C1644 H1633 0.950 . S
C1644 C1642 1.391 . S
C1644 C1645 1.400 . S
C1645 C1639 1.491 . S
C1645 C1644 1.400 . S
C1645 C1646 1.398 . S
C1646 H1634 0.950 . S
C1646 C1645 1.398 . S
C1646 C1647 1.391 . S
C1647 H1635 0.950 . S
C1647 C1643 1.393 . S
C1647 C1646 1.391 . S
H1648 C1656 0.950 . S
H1649 C1661 0.950 . S
H1650 C1658 0.950 . S
H1651 C1660 0.950 . S
H1652 C1662 0.950 . S
H1653 C1664 0.950 . S
H1654 C1666 0.950 . S
H1655 C1667 0.950 . S
C1656 H1648 0.950 . S
C1656 C1657 1.386 . S
C1656 C1658 1.391 . S
C1657 C1656 1.386 . S
C1657 C1661 1.393 . S
C1658 H1650 0.950 . S
C1658 C1656 1.391 . S
C1658 C1659 1.400 . S
C1659 C1658 1.400 . S
C1659 C1660 1.398 . S
C1659 C1665 1.491 . S
C1660 H1651 0.950 . S
C1660 C1659 1.398 . S
C1660 C1661 1.391 . S
C1661 H1649 0.950 . S
C1661 C1657 1.393 . S
C1661 C1660 1.391 . S
C1662 H1652 0.950 . S
C1662 C1663 1.386 . S
C1662 C1664 1.391 . S
C1663 C1662 1.386 . S
C1663 C1667 1.393 . S
C1664 H1653 0.950 . S
C1664 C1662 1.391 . S
C1664 C1665 1.400 . S
C1665 C1659 1.491 . S
C1665 C1664 1.400 . S
C1665 C1666 1.398 . S
C1666 H1654 0.950 . S
C1666 C1665 1.398 . S
C1666 C1667 1.391 . S
C1667 H1655 0.950 . S
C1667 C1663 1.393 . S
C1667 C1666 1.391 . S
H1668 C1676 0.950 . S
H1669 C1681 0.950 . S
H1670 C1678 0.950 . S
H1671 C1680 0.950 . S
H1672 C1682 0.950 . S
H1673 C1684 0.950 . S
H1674 C1686 0.950 . S
H1675 C1687 0.950 . S
C1676 H1668 0.950 . S
C1676 C1677 1.386 . S
C1676 C1678 1.391 . S
C1677 C1676 1.386 . S
C1677 C1681 1.393 . S
C1678 H1670 0.950 . S
C1678 C1676 1.391 . S
C1678 C1679 1.400 . S
C1679 C1678 1.400 . S
C1679 C1680 1.398 . S
C1679 C1685 1.491 . S
C1680 H1671 0.950 . S
C1680 C1679 1.398 . S
C1680 C1681 1.391 . S
C1681 H1669 0.950 . S
C1681 C1677 1.393 . S
C1681 C1680 1.391 . S
C1682 H1672 0.950 . S
C1682 C1683 1.386 . S
C1682 C1684 1.391 . S
C1683 C1682 1.386 . S
C1683 C1687 1.393 . S
C1684 H1673 0.950 . S
C1684 C1682 1.391 . S
C1684 C1685 1.400 . S
C1685 C1679 1.491 . S
C1685 C1684 1.400 . S
C1685 C1686 1.398 . S
C1686 H1674 0.950 . S
C1686 C1685 1.398 . S
C1686 C1687 1.391 . S
C1687 H1675 0.950 . S
C1687 C1683 1.393 . S
C1687 C1686 1.391 . S
H1688 C1696 0.950 . S
H1689 C1701 0.950 . S
H1690 C1698 0.950 . S
H1691 C1700 0.950 . S
H1692 C1702 0.950 . S
H1693 C1704 0.950 . S
H1694 C1706 0.950 . S
H1695 C1707 0.950 . S
C1696 H1688 0.950 . S
C1696 C1697 1.386 . S
C1696 C1698 1.391 . S
C1697 C1696 1.386 . S
C1697 C1701 1.393 . S
C1698 H1690 0.950 . S
C1698 C1696 1.391 . S
C1698 C1699 1.400 . S
C1699 C1698 1.400 . S
C1699 C1700 1.398 . S
C1699 C1705 1.491 . S
C1700 H1691 0.950 . S
C1700 C1699 1.398 . S
C1700 C1701 1.391 . S
C1701 H1689 0.950 . S
C1701 C1697 1.393 . S
C1701 C1700 1.391 . S
C1702 H1692 0.950 . S
C1702 C1703 1.386 . S
C1702 C1704 1.391 . S
C1703 C1702 1.386 . S
C1703 C1707 1.393 . S
C1704 H1693 0.950 . S
C1704 C1702 1.391 . S
C1704 C1705 1.400 . S
C1705 C1699 1.491 . S
C1705 C1704 1.400 . S
C1705 C1706 1.398 . S
C1706 H1694 0.950 . S
C1706 C1705 1.398 . S
C1706 C1707 1.391 . S
C1707 H1695 0.950 . S
C1707 C1703 1.393 . S
C1707 C1706 1.391 . S
H1708 C1716 0.950 . S
H1709 C1721 0.950 . S
H1710 C1718 0.950 . S
H1711 C1720 0.950 . S
H1712 C1722 0.950 . S
H1713 C1724 0.950 . S
H1714 C1726 0.950 . S
H1715 C1727 0.950 . S
C1716 H1708 0.950 . S
C1716 C1717 1.386 . S
C1716 C1718 1.391 . S
C1717 C1716 1.386 . S
C1717 C1721 1.393 . S
C1718 H1710 0.950 . S
C1718 C1716 1.391 . S
C1718 C1719 1.400 . S
C1719 C1718 1.400 . S
C1719 C1720 1.398 . S
C1719 C1725 1.491 . S
C1720 H1711 0.950 . S
C1720 C1719 1.398 . S
C1720 C1721 1.391 . S
C1721 H1709 0.950 . S
C1721 C1717 1.393 . S
C1721 C1720 1.391 . S
C1722 H1712 0.950 . S
C1722 C1723 1.386 . S
C1722 C1724 1.391 . S
C1723 C1722 1.386 . S
C1723 C1727 1.393 . S
C1724 H1713 0.950 . S
C1724 C1722 1.391 . S
C1724 C1725 1.400 . S
C1725 C1719 1.491 . S
C1725 C1724 1.400 . S
C1725 C1726 1.398 . S
C1726 H1714 0.950 . S
C1726 C1725 1.398 . S
C1726 C1727 1.391 . S
C1727 H1715 0.950 . S
C1727 C1723 1.393 . S
C1727 C1726 1.391 . S
C457 C218 1.518 . S
C463 C8 1.508 . S
C477 C22 1.509 . S
C483 C176 1.518 . S
C497 C36 1.522 . S
C503 C190 1.504 . S
C517 C204 1.510 . S
C523 C50 1.517 . S
C537 C64 1.522 . S
C543 C134 1.504 . S
C557 C78 1.521 . S
C563 C148 1.505 . S
C577 C162 1.505 . S
C583 C92 1.521 . S
C597 C120 1.522 . S
C603 C106 1.504 . S
C617 C232 1.508 . S
C623 C442 1.518 . S
C637 C246 1.506 . S
C643 C400 1.520 . S
C657 C260 1.522 . S
C663 C414 1.504 . S
C677 C428 1.519 . S
C683 C274 1.507 . S
C697 C288 1.518 . S
C703 C358 1.509 . S
C717 C302 1.519 . S
C723 C372 1.507 . S
C737 C386 1.520 . S
C743 C316 1.506 . S
C757 C330 1.509 . S
C763 C344 1.517 . S
C777 C175 1.456 . S
C783 C7 1.463 . S
C797 C21 1.455 . S
C803 C189 1.465 . S
C817 C203 1.464 . S
C823 C35 1.455 . S
C837 C49 1.450 . S
C843 C217 1.469 . S
C857 C63 1.466 . S
C863 C119 1.453 . S
C877 C133 1.457 . S
C883 C77 1.462 . S
C897 C147 1.453 . S
C903 C91 1.467 . S
C917 C161 1.458 . S
C923 C105 1.462 . S
C937 C231 1.460 . S
C943 C399 1.460 . S
C957 C413 1.455 . S
C963 C245 1.464 . S
C977 C259 1.451 . S
C983 C427 1.468 . S
C997 C273 1.467 . S
C1003 C441 1.452 . S
C1017 C343 1.463 . S
C1023 C287 1.456 . S
C1037 C301 1.465 . S
C1043 C357 1.455 . S
C1057 C315 1.468 . S
C1063 C371 1.451 . S
C1077 C329 1.456 . S
C1083 C385 1.463 . S
C1097 C9 1.392 . S
C1103 C149 1.371 . S
C1117 C163 1.391 . S
C1123 C23 1.372 . S
C1137 C37 1.392 . S
C1143 C121 1.370 . S
C1157 C135 1.370 . S
C1163 C51 1.392 . S
C1177 C205 1.382 . S
C1183 C65 1.381 . S
C1197 C219 1.381 . S
C1203 C79 1.382 . S
C1217 C177 1.381 . S
C1223 C93 1.382 . S
C1237 C107 1.372 . S
C1243 C191 1.391 . S
C1257 C373 1.389 . S
C1263 C233 1.374 . S
C1277 C247 1.384 . S
C1283 C387 1.378 . S
C1297 C345 1.379 . S
C1303 C261 1.384 . S
C1317 C359 1.375 . S
C1323 C275 1.387 . S
C1337 C289 1.392 . S
C1343 C429 1.370 . S
C1357 C303 1.382 . S
C1363 C443 1.381 . S
C1377 C401 1.387 . S
C1383 C317 1.376 . S
C1397 C415 1.391 . S
C1403 C331 1.372 . S
C1417 C328 1.395 . S
C1423 C6 1.387 . S
C1437 C286 1.393 . S
C1443 C20 1.385 . S
C1457 C300 1.384 . S
C1463 C34 1.390 . S
C1477 C314 1.400 . S
C1483 C48 1.398 . S
C1497 C244 1.394 . S
C1503 C62 1.386 . S
C1517 C76 1.400 . S
C1523 C258 1.397 . S
C1537 C90 1.385 . S
C1543 C272 1.393 . S
C1557 C104 1.387 . S
C1563 C230 1.383 . S
C1577 C118 1.396 . S
C1583 C440 1.388 . S
C1597 C398 1.397 . S
C1603 C132 1.400 . S
C1617 C146 1.386 . S
C1623 C412 1.394 . S
C1637 C160 1.395 . S
C1643 C426 1.387 . S
C1657 C356 1.400 . S
C1663 C174 1.396 . S
C1677 C370 1.388 . S
C1683 C188 1.396 . S
C1697 C202 1.389 . S
C1703 C384 1.397 . S
C1717 C216 1.388 . S
C1723 C342 1.396 . S
