# Generated by pormake.
# Topology unp, (4)-cn, num edge types: 1
# Building blocks:
#     Node 0, Type 0, BuildingBlock: UXUYUI_clean_sbu_0, # of connection points: 4
#     Node 1, Type 0, BuildingBlock: UXUYUI_clean_sbu_0, # of connection points: 4
#     Node 2, Type 0, BuildingBlock: UXUYUI_clean_sbu_0, # of connection points: 4
#     Node 3, Type 0, BuildingBlock: UXUYUI_clean_sbu_0, # of connection points: 4
#     Node 4, Type 0, BuildingBlock: UXUYUI_clean_sbu_0, # of connection points: 4
#     Node 5, Type 0, BuildingBlock: UXUYUI_clean_sbu_0, # of connection points: 4
#     Node 6, Type 0, BuildingBlock: UXUYUI_clean_sbu_0, # of connection points: 4
#     Node 7, Type 0, BuildingBlock: UXUYUI_clean_sbu_0, # of connection points: 4
#     Node 8, Type 0, BuildingBlock: UXUYUI_clean_sbu_0, # of connection points: 4
#     Node 9, Type 0, BuildingBlock: UXUYUI_clean_sbu_0, # of connection points: 4
#     Node 10, Type 0, BuildingBlock: UXUYUI_clean_sbu_0, # of connection points: 4
#     Node 11, Type 0, BuildingBlock: UXUYUI_clean_sbu_0, # of connection points: 4
#     Node 12, Type 0, BuildingBlock: UXUYUI_clean_sbu_0, # of connection points: 4
#     Node 13, Type 0, BuildingBlock: UXUYUI_clean_sbu_0, # of connection points: 4
#     Node 14, Type 0, BuildingBlock: UXUYUI_clean_sbu_0, # of connection points: 4
#     Node 15, Type 0, BuildingBlock: UXUYUI_clean_sbu_0, # of connection points: 4
#     Node 16, Type 0, BuildingBlock: UXUYUI_clean_sbu_0, # of connection points: 4
#     Node 17, Type 0, BuildingBlock: UXUYUI_clean_sbu_0, # of connection points: 4
#     Edge 18, Type (0, 0), None
#     Edge 19, Type (0, 0), None
#     Edge 20, Type (0, 0), None
#     Edge 21, Type (0, 0), None
#     Edge 22, Type (0, 0), None
#     Edge 23, Type (0, 0), None
#     Edge 24, Type (0, 0), None
#     Edge 25, Type (0, 0), None
#     Edge 26, Type (0, 0), None
#     Edge 27, Type (0, 0), None
#     Edge 28, Type (0, 0), None
#     Edge 29, Type (0, 0), None
#     Edge 30, Type (0, 0), None
#     Edge 31, Type (0, 0), None
#     Edge 32, Type (0, 0), None
#     Edge 33, Type (0, 0), None
#     Edge 34, Type (0, 0), None
#     Edge 35, Type (0, 0), None
#     Edge 36, Type (0, 0), None
#     Edge 37, Type (0, 0), None
#     Edge 38, Type (0, 0), None
#     Edge 39, Type (0, 0), None
#     Edge 40, Type (0, 0), None
#     Edge 41, Type (0, 0), None
#     Edge 42, Type (0, 0), None
#     Edge 43, Type (0, 0), None
#     Edge 44, Type (0, 0), None
#     Edge 45, Type (0, 0), None
#     Edge 46, Type (0, 0), None
#     Edge 47, Type (0, 0), None
#     Edge 48, Type (0, 0), None
#     Edge 49, Type (0, 0), None
#     Edge 50, Type (0, 0), None
#     Edge 51, Type (0, 0), None
#     Edge 52, Type (0, 0), None
#     Edge 53, Type (0, 0), None
# Relax obj value: 0.501
# Max RMSD: 0.229
# Mean RMSD: 0.224
data_MOF--net-unp--node1-UXUYUI_clean_sbu_0--edge1-none
_symmetry_space_group_name_H-M    P1
_symmetry_Int_Tables_number       1
_symmetry_cell_setting            triclinic
loop_
_symmetry_equiv_pos_as_xyz
'x, y, z'
_cell_length_a     39.693778
_cell_length_b     39.693315
_cell_length_c     65.689584
_cell_angle_alpha  90.260812
_cell_angle_beta   89.739073
_cell_angle_gamma 120.48191
loop_
_atom_site_label
_atom_site_type_symbol
_atom_site_fract_x
_atom_site_fract_y
_atom_site_fract_z
_atom_type_partial_charge
Li0 Li 0.19286 0.21899 0.07887 0.0
Li1 Li 0.21031 0.23822 0.11342 0.0
Li2 Li 0.17546 0.1697 0.10512 0.0
Li3 Li 0.14133 0.20831 0.10548 0.0
C4 C 0.26025 0.2188 0.08488 0.0
N5 N 0.32623 0.23835 0.06197 0.0
C6 C 0.2949 0.25416 0.08836 0.0
C7 C 0.25918 0.1934 0.06974 0.0
C8 C 0.32795 0.26348 0.07663 0.0
C9 C 0.29283 0.20383 0.05831 0.0
C10 C 0.20557 0.29806 0.0962 0.0
C11 C 0.21138 0.35754 0.10942 0.0
N12 N 0.24599 0.37858 0.0994 0.0
C13 C 0.2411 0.32023 0.08597 0.0
C14 C 0.19042 0.31678 0.10795 0.0
C15 C 0.26112 0.36093 0.0878 0.0
C16 C 0.17295 0.20488 0.03832 0.0
N17 N 0.20409 0.22717 0.05049 0.0
C18 C 0.24727 0.24801 0.0218 0.0
C19 C 0.24056 0.24994 0.04257 0.0
C20 C 0.21598 0.22277 0.00919 0.0
C21 C 0.17822 0.20222 0.01757 0.0
H22 H 0.14407 0.18791 0.04486 0.0
H23 H 0.26483 0.26813 0.05242 0.0
C24 C 0.25994 0.24576 0.14167 0.0
N25 N 0.25095 0.27007 0.13179 0.0
C26 C 0.28994 0.26023 0.15573 0.0
C27 C 0.30282 0.32545 0.14874 0.0
C28 C 0.27112 0.30931 0.13525 0.0
C29 C 0.31298 0.30072 0.15895 0.0
H30 H 0.24369 0.21476 0.13844 0.0
H31 H 0.26352 0.32821 0.12731 0.0
C32 C 0.1184 0.1332 0.07949 0.0
N33 N 0.07487 0.05372 0.07209 0.0
C34 C 0.08224 0.11041 0.08908 0.0
C35 C 0.13224 0.11561 0.06599 0.0
C36 C 0.06079 0.07026 0.08521 0.0
C37 C 0.10978 0.07539 0.06244 0.0
C38 C 0.16785 0.20532 0.14797 0.0
C39 C 0.17332 0.18316 0.16264 0.0
C40 C 0.16706 0.2388 0.15383 0.0
C41 C 0.17825 0.19512 0.18298 0.0
C42 C 0.1721 0.24978 0.17432 0.0
N43 N 0.17757 0.22791 0.18835 0.0
C44 C 0.18849 0.105 0.1033 0.0
C45 C 0.13472 0.0971 0.12294 0.0
C46 C 0.17713 0.06578 0.10619 0.0
N47 N 0.16666 0.11941 0.11126 0.0
C48 C 0.12215 0.05786 0.12608 0.0
C49 C 0.14307 0.04146 0.11739 0.0
H50 H 0.21403 0.12355 0.09426 0.0
H51 H 0.11793 0.10946 0.129 0.0
C52 C 0.06999 0.19722 0.09231 0.0
N53 N 0.09041 0.19967 0.10934 0.0
C54 C 0.0292 0.17737 0.09286 0.0
C55 C 0.03161 0.16587 0.1288 0.0
C56 C 0.07231 0.18575 0.12754 0.0
C57 C 0.00951 0.15978 0.11108 0.0
H58 H 0.08517 0.20733 0.07792 0.0
H59 H 0.08909 0.18691 0.14069 0.0
O60 O 0.22766 0.20899 0.09631 0.0
O61 O 0.18502 0.25832 0.09416 0.0
O62 O 0.14091 0.17218 0.08396 0.0
O63 O 0.16395 0.19462 0.12791 0.0
H64 H 0.29631 0.27434 0.09989 0.0
H65 H 0.23246 0.16628 0.06655 0.0
H66 H 0.35494 0.29075 0.07915 0.0
H67 H 0.29232 0.18458 0.04645 0.0
H68 H 0.20007 0.37245 0.11849 0.0
H69 H 0.25315 0.30615 0.07683 0.0
H70 H 0.16267 0.30002 0.11572 0.0
H71 H 0.28873 0.37847 0.08002 0.0
H72 H 0.2768 0.26463 0.01591 0.0
H73 H 0.15306 0.18348 0.00825 0.0
H74 H 0.29517 0.23956 0.16374 0.0
H75 H 0.31969 0.35686 0.15066 0.0
H76 H 0.07127 0.12333 0.09979 0.0
H77 H 0.16032 0.13273 0.05858 0.0
H78 H 0.03319 0.0522 0.09285 0.0
H79 H 0.12027 0.06136 0.05214 0.0
H80 H 0.17413 0.15723 0.15831 0.0
H81 H 0.16289 0.25623 0.14262 0.0
H82 H 0.18272 0.17838 0.1945 0.0
H83 H 0.17175 0.27573 0.17906 0.0
H84 H 0.19436 0.05449 0.09942 0.0
H85 H 0.09524 0.04025 0.13444 0.0
H86 H 0.01338 0.17287 0.07877 0.0
H87 H 0.01757 0.15305 0.14317 0.0
Li88 Li 0.84215 0.02534 0.09817 0.0
Li89 Li 0.80561 0.95166 0.09922 0.0
Li90 Li 0.79663 0.99 0.07075 0.0
Li91 Li 0.7731 0.98895 0.10442 0.0
C92 C 0.88352 0.00578 0.0758 0.0
N93 N 0.96394 0.04403 0.07205 0.0
C94 C 0.90491 0.99248 0.08645 0.0
C95 C 0.90305 0.03851 0.06319 0.0
C96 C 0.94552 0.01221 0.08434 0.0
C97 C 0.94372 0.05746 0.06152 0.0
C98 C 0.80391 0.98742 0.14071 0.0
C99 C 0.75844 0.95273 0.1679 0.0
N100 N 0.7783 0.98449 0.18019 0.0
C101 C 0.824 0.01964 0.15363 0.0
C102 C 0.77099 0.9536 0.14791 0.0
C103 C 0.81055 0.0176 0.17353 0.0
C104 C 0.90279 0.10519 0.09614 0.0
N105 N 0.89086 0.07001 0.10501 0.0
C106 C 0.95306 0.09441 0.12072 0.0
C107 C 0.91462 0.06449 0.11762 0.0
C108 C 0.96708 0.13044 0.11079 0.0
C109 C 0.9411 0.136 0.09879 0.0
H110 H 0.88313 0.10887 0.08637 0.0
H111 H 0.90426 0.03612 0.12443 0.0
C112 C 0.82141 0.89264 0.08915 0.0
N113 N 0.81363 0.90954 0.1051 0.0
C114 C 0.8382 0.86959 0.09248 0.0
C115 C 0.83567 0.87928 0.12869 0.0
C116 C 0.81935 0.9025 0.12464 0.0
C117 C 0.84692 0.86386 0.11246 0.0
H118 H 0.81753 0.89966 0.07376 0.0
H119 H 0.81377 0.91698 0.13703 0.0
C120 C 0.79048 0.05321 0.07347 0.0
N121 N 0.76626 0.0897 0.04639 0.0
C122 C 0.75276 0.04748 0.07488 0.0
C123 C 0.81585 0.07747 0.05827 0.0
C124 C 0.7411 0.06624 0.06107 0.0
C125 C 0.80305 0.09562 0.04471 0.0
C126 C 0.71724 0.91923 0.08895 0.0
C127 C 0.69093 0.92684 0.07882 0.0
C128 C 0.70318 0.8867 0.10168 0.0
C129 C 0.65082 0.90184 0.08173 0.0
C130 C 0.66285 0.86244 0.10423 0.0
N131 N 0.63773 0.87045 0.09428 0.0
C132 C 0.81862 0.98956 0.03051 0.0
C133 C 0.76133 0.99382 0.0329 0.0
C134 C 0.8197 0.99419 0.00948 0.0
N135 N 0.79043 0.99056 0.04185 0.0
C136 C 0.76107 0.99821 0.01178 0.0
C137 C 0.79111 -0.00069 -0.0001 0.0
H138 H 0.84071 0.98569 0.0378 0.0
H139 H 0.73894 0.99414 0.04214 0.0
C140 C 0.75902 0.03276 0.12922 0.0
N141 N 0.73798 0.99629 0.12125 0.0
C142 C 0.74218 0.04658 0.14288 0.0
C143 C 0.68098 0.98575 0.13939 0.0
C144 C 0.69967 0.97239 0.12621 0.0
C145 C 0.70233 0.02357 0.14784 0.0
H146 H 0.78954 0.05095 0.12522 0.0
H147 H 0.68354 0.94316 0.12011 0.0
O148 O 0.84384 0.98777 0.07827 0.0
O149 O 0.81605 0.98925 0.12101 0.0
O150 O 0.80256 0.03522 0.08689 0.0
O151 O 0.75652 0.94263 0.08584 0.0
H152 H 0.89047 0.96764 0.09654 0.0
H153 H 0.88704 0.0496 0.05509 0.0
H154 H 0.96239 0.00243 0.09265 0.0
H155 H 0.95924 0.08301 0.05196 0.0
H156 H 0.73284 0.92685 0.17363 0.0
H157 H 0.84945 0.04609 0.14825 0.0
H158 H 0.75502 0.9285 0.13807 0.0
H159 H 0.82566 0.04239 0.18367 0.0
H160 H 0.97217 0.0885 0.12981 0.0
H161 H 0.95064 0.16341 0.09102 0.0
H162 H 0.84695 0.85898 0.07946 0.0
H163 H 0.84141 0.87528 0.14433 0.0
H164 H 0.73253 0.02855 0.08639 0.0
H165 H 0.8449 0.08173 0.05671 0.0
H166 H 0.71199 0.06203 0.06196 0.0
H167 H 0.8223 0.11428 0.0328 0.0
H168 H 0.70136 0.95188 0.06893 0.0
H169 H 0.72321 0.88016 0.10941 0.0
H170 H 0.6301 0.90744 0.07406 0.0
H171 H 0.65152 0.83719 0.11407 0.0
H172 H 0.84276 0.99381 0.00079 0.0
H173 H 0.73839 0.00186 0.0049 0.0
H174 H 0.76072 0.07512 0.14956 0.0
H175 H 0.65023 0.9668 0.14271 0.0
Li176 Li 0.97457 0.82199 0.11505 0.0
Li177 Li 0.04539 0.86392 0.11617 0.0
Li178 Li 0.01149 0.81056 0.08925 0.0
Li179 Li 0.01311 0.79478 0.12463 0.0
C180 C 0.99273 0.87878 0.08769 0.0
N181 N 0.95659 0.91913 0.07537 0.0
C182 C -0.00024 0.91256 0.09805 0.0
C183 C 0.96752 0.86562 0.07098 0.0
C184 C 0.98121 0.93254 0.09159 0.0
C185 C 0.94944 0.88639 0.06503 0.0
C186 C 0.02933 0.84811 0.15703 0.0
C187 C 0.08899 0.86905 0.1757 0.0
N188 N 0.07124 0.87168 0.19291 0.0
C189 C 0.01175 0.85116 0.17487 0.0
C190 C 0.06834 0.85728 0.1574 0.0
C191 C 0.03342 0.86307 0.19287 0.0
C192 C 0.89871 0.80666 0.10475 0.0
N193 N 0.92893 0.82566 0.11797 0.0
C194 C 0.90271 0.86419 0.13041 0.0
C195 C 0.93081 0.85303 0.13112 0.0
C196 C 0.87234 0.84693 0.11604 0.0
C197 C 0.86981 0.81681 0.10358 0.0
H198 H 0.89844 0.78548 0.09423 0.0
H199 H 0.95573 0.86824 0.14111 0.0
C200 C 0.10626 0.93628 0.10253 0.0
N201 N 0.08457 0.91759 0.11924 0.0
C202 C 0.12795 0.97713 0.10198 0.0
C203 C 0.107 0.97842 0.13642 0.0
C204 C 0.08498 0.93783 0.13609 0.0
C205 C 0.12733 -0.00129 0.11888 0.0
H206 H 0.10437 0.91955 0.08909 0.0
H207 H 0.06612 0.92307 0.14883 0.0
C208 C 0.93578 0.74141 0.11543 0.0
N209 N 0.87431 0.67987 0.13567 0.0
C210 C 0.9264 0.74636 0.13535 0.0
C211 C 0.91379 0.70517 0.10581 0.0
C212 C 0.89524 0.7149 0.14532 0.0
C213 C 0.88285 0.67442 0.1163 0.0
C214 C 0.07807 0.80382 0.10496 0.0
C215 C 0.06255 0.76963 0.09332 0.0
C216 C 0.11314 0.81683 0.11543 0.0
C217 C 0.08214 0.74871 0.09254 0.0
C218 C 0.13188 0.7951 0.11426 0.0
N219 N 0.11611 0.76176 0.10295 0.0
C220 C 0.03449 0.83254 0.04943 0.0
C221 C 0.98716 0.7652 0.05276 0.0
C222 C 0.03171 0.8297 0.02829 0.0
N223 N 0.01184 0.80075 0.06113 0.0
C224 C 0.9837 0.76093 0.03159 0.0
C225 C 0.00538 0.79377 0.01915 0.0
H226 H 0.05347 0.86049 0.0566 0.0
H227 H 0.96909 0.7406 0.06251 0.0
C228 C 0.01665 0.75805 0.16188 0.0
N229 N 0.01205 0.75414 0.14132 0.0
C230 C 0.00594 0.72565 0.17408 0.0
C231 C 0.98814 0.6854 0.1439 0.0
C232 C -0.00048 0.71885 0.13218 0.0
C233 C 0.98975 0.6886 0.16517 0.0
H234 H 0.02577 0.78536 0.16929 0.0
H235 H 0.99527 0.71602 0.11589 0.0
O236 O 0.01004 0.8584 0.09406 0.0
O237 O 0.00872 0.83747 0.13923 0.0
O238 O 0.96725 0.77119 0.10559 0.0
O239 O 0.05926 0.82466 0.10588 0.0
H240 H 0.01888 0.92298 0.11111 0.0
H241 H 0.96167 0.83941 0.06285 0.0
H242 H 0.98629 0.95858 0.09957 0.0
H243 H 0.92965 0.87642 0.05221 0.0
H244 H 0.11913 0.87616 0.17622 0.0
H245 H 0.98171 0.8445 0.17478 0.0
H246 H 0.08245 0.85542 0.14372 0.0
H247 H 0.02019 0.86556 0.20679 0.0
H248 H 0.90646 0.88805 0.14004 0.0
H249 H 0.8468 0.80251 0.0924 0.0
H250 H 0.14268 0.99148 0.088 0.0
H251 H 0.10608 0.99375 0.14989 0.0
H252 H 0.94313 0.77399 0.14316 0.0
H253 H 0.92085 0.70072 0.09047 0.0
H254 H 0.88779 0.71829 0.16075 0.0
H255 H 0.86572 0.64616 0.10907 0.0
H256 H 0.03541 0.75907 0.08516 0.0
H257 H 0.12593 0.84353 0.12428 0.0
H258 H 0.0703 0.72206 0.08369 0.0
H259 H 0.15901 0.8048 0.1223 0.0
H260 H 0.04921 0.85558 0.01919 0.0
H261 H 0.96292 0.73283 0.02508 0.0
H262 H 0.00753 0.72913 0.19049 0.0
H263 H 0.97523 0.65708 0.13653 0.0
Li264 Li 0.2377 0.21081 0.88337 0.0
Li265 Li 0.21847 0.19336 0.91792 0.0
Li266 Li 0.20778 0.14184 0.89131 0.0
Li267 Li 0.16919 0.17598 0.89167 0.0
C268 C 0.29754 0.20606 0.90057 0.0
N269 N 0.37805 0.24646 0.89737 0.0
C270 C 0.31971 0.24158 0.9108 0.0
C271 C 0.31625 0.1909 0.88883 0.0
C272 C 0.36041 0.2616 0.90898 0.0
C273 C 0.357 0.21185 0.88735 0.0
C274 C 0.21831 0.26076 0.91192 0.0
C275 C 0.20337 0.29334 0.93851 0.0
N276 N 0.23788 0.32674 0.93484 0.0
C277 C 0.25366 0.29542 0.90843 0.0
C278 C 0.19292 0.25969 0.92707 0.0
C279 C 0.26299 0.32847 0.92016 0.0
C280 C 0.24525 0.26046 0.85512 0.0
N281 N 0.26955 0.25146 0.865 0.0
C282 C 0.32493 0.30332 0.84804 0.0
C283 C 0.30879 0.27162 0.86153 0.0
C284 C 0.3002 0.31349 0.83784 0.0
C285 C 0.25971 0.29046 0.84107 0.0
H286 H 0.21425 0.24422 0.85836 0.0
H287 H 0.32769 0.264 0.86947 0.0
C288 C 0.20435 0.17344 0.95846 0.0
N289 N 0.22666 0.20458 0.9463 0.0
C290 C 0.20169 0.17872 0.97922 0.0
C291 C 0.24752 0.24776 0.97498 0.0
C292 C 0.24945 0.24105 0.95422 0.0
C293 C 0.22227 0.21648 0.98759 0.0
H294 H 0.18737 0.14457 0.95192 0.0
H295 H 0.26765 0.26532 0.94437 0.0
C296 C 0.20479 0.16837 0.84882 0.0
N297 N 0.22739 0.1781 0.80844 0.0
C298 C 0.18265 0.17386 0.83415 0.0
C299 C 0.23826 0.16757 0.84296 0.0
C300 C 0.19461 0.17879 0.8138 0.0
C301 C 0.24925 0.17261 0.82247 0.0
C302 C 0.13267 0.1189 0.91728 0.0
C303 C 0.10989 0.08275 0.90768 0.0
C304 C 0.11507 0.13271 0.9308 0.0
C305 C 0.06973 0.0613 0.91154 0.0
C306 C 0.07485 0.11025 0.93434 0.0
N307 N 0.05318 0.07536 0.92467 0.0
C308 C 0.19669 0.0705 0.90446 0.0
C309 C 0.18522 0.07282 0.86924 0.0
C310 C 0.17686 0.02971 0.90392 0.0
N311 N 0.19914 0.09092 0.88744 0.0
C312 C 0.16534 0.03212 0.86798 0.0
C313 C 0.15927 0.01002 0.88569 0.0
H314 H 0.2068 0.08568 0.91885 0.0
H315 H 0.18637 0.08959 0.85609 0.0
C316 C 0.1045 0.18902 0.89353 0.0
N317 N 0.1189 0.16721 0.88554 0.0
C318 C 0.06527 0.17767 0.89065 0.0
C319 C 0.05735 0.12275 0.8707 0.0
C320 C 0.09659 0.1353 0.87384 0.0
C321 C 0.04096 0.14365 0.87942 0.0
H322 H 0.12305 0.21453 0.90259 0.0
H323 H 0.10894 0.11852 0.86776 0.0
O324 O 0.2578 0.18552 0.90262 0.0
O325 O 0.20849 0.22817 0.90048 0.0
O326 O 0.19409 0.16446 0.86888 0.0
O327 O 0.17165 0.14142 0.91283 0.0
H328 H 0.30564 0.25365 0.91995 0.0
H329 H 0.29948 0.16315 0.88106 0.0
H330 H 0.37796 0.28921 0.91674 0.0
H331 H 0.37191 0.20053 0.87829 0.0
H332 H 0.18413 0.29283 0.95037 0.0
H333 H 0.27383 0.29683 0.89689 0.0
H334 H 0.16582 0.23297 0.93027 0.0
H335 H 0.29026 0.35545 0.91764 0.0
H336 H 0.35634 0.32018 0.84611 0.0
H337 H 0.23905 0.2957 0.83306 0.0
H338 H 0.18295 0.15356 0.98853 0.0
H339 H 0.26416 0.27729 0.98088 0.0
H340 H 0.15673 0.17468 0.83847 0.0
H341 H 0.25569 0.16339 0.85416 0.0
H342 H 0.17788 0.18327 0.80229 0.0
H343 H 0.27519 0.17225 0.81772 0.0
H344 H 0.12282 0.0718 0.89696 0.0
H345 H 0.13219 0.16079 0.93821 0.0
H346 H 0.05168 0.03371 0.90389 0.0
H347 H 0.06081 0.12072 0.94464 0.0
H348 H 0.17237 0.01389 0.91801 0.0
H349 H 0.15252 0.01808 0.8536 0.0
H350 H 0.05399 0.19488 0.89744 0.0
H351 H 0.03974 0.09587 0.86232 0.0
Li352 Li 0.7943 0.0136 0.87215 0.0
Li353 Li 0.81007 0.01201 0.90754 0.0
Li354 Li 0.86344 0.04592 0.88063 0.0
Li355 Li 0.82153 0.97509 0.88175 0.0
C356 C 0.80331 0.07858 0.89184 0.0
N357 N 0.76129 0.11665 0.8939 0.0
C358 C 0.76913 0.06306 0.90349 0.0
C359 C 0.81633 0.11367 0.88138 0.0
C360 C 0.74823 0.08266 0.90429 0.0
C361 C 0.79462 0.13242 0.88258 0.0
C362 C 0.74094 0.93629 0.88137 0.0
C363 C 0.67391 0.88342 0.88048 0.0
N364 N 0.67939 0.87483 0.86112 0.0
C365 C 0.74591 0.92686 0.86146 0.0
C366 C 0.70467 0.91436 0.89097 0.0
C367 C 0.71444 0.8957 0.85149 0.0
C368 C 0.75753 0.01687 0.83486 0.0
N369 N 0.75365 0.01248 0.85543 0.0
C370 C 0.68494 0.98871 0.85285 0.0
C371 C 0.7184 0.0001 0.86458 0.0
C372 C 0.68811 0.99013 0.83158 0.0
C373 C 0.72513 0.00614 0.82266 0.0
H374 H 0.7848 0.02582 0.82745 0.0
H375 H 0.71558 0.99598 0.88088 0.0
C376 C 0.83203 0.03501 0.94736 0.0
N377 N 0.80025 0.01236 0.93566 0.0
C378 C 0.82919 0.03221 0.9685 0.0
C379 C 0.76042 0.9842 0.9652 0.0
C380 C 0.76469 0.98767 0.94403 0.0
C381 C 0.79326 0.00588 0.97764 0.0
H382 H 0.85999 0.05398 0.9402 0.0
H383 H 0.74009 0.96961 0.93427 0.0
C384 C 0.84768 0.02985 0.83977 0.0
N385 N 0.87126 0.07177 0.8039 0.0
C386 C 0.85092 0.01233 0.82195 0.0
C387 C 0.85667 0.0688 0.83938 0.0
C388 C 0.86283 0.034 0.80396 0.0
C389 C 0.86845 0.08945 0.82108 0.0
C390 C 0.87833 0.9933 0.9091 0.0
C391 C 0.91213 0.00038 0.89875 0.0
C392 C 0.8652 0.96809 0.92581 0.0
C393 C 0.93214 0.98186 0.9052 0.0
C394 C 0.88601 0.95005 0.93176 0.0
N395 N 0.91876 0.95724 0.92141 0.0
C396 C 0.93578 0.10675 0.8943 0.0
C397 C 0.93735 0.08566 0.86069 0.0
C398 C 0.97662 0.12845 0.89485 0.0
N399 N 0.91709 0.08514 0.87756 0.0
C400 C 0.97793 0.10769 0.86038 0.0
C401 C -0.00179 0.12792 0.87793 0.0
H402 H 0.91904 0.10478 0.90775 0.0
H403 H 0.92261 0.06687 0.84793 0.0
C404 C 0.80621 0.89924 0.89206 0.0
N405 N 0.82521 0.92947 0.87884 0.0
C406 C 0.81635 0.87033 0.89323 0.0
C407 C 0.86374 0.90324 0.86641 0.0
C408 C 0.8526 0.93135 0.8657 0.0
C409 C 0.84646 0.87286 0.88077 0.0
H410 H 0.78502 0.89897 0.90257 0.0
H411 H 0.86781 0.95627 0.85571 0.0
O412 O 0.82415 0.05977 0.8909 0.0
O413 O 0.77072 0.96776 0.8912 0.0
O414 O 0.83702 0.00923 0.85757 0.0
O415 O 0.85792 0.01058 0.90275 0.0
H416 H 0.75857 0.0359 0.91164 0.0
H417 H 0.84302 0.12647 0.87253 0.0
H418 H 0.72159 0.07083 0.91315 0.0
H419 H 0.80432 0.15957 0.87455 0.0
H420 H 0.64564 0.86634 0.88769 0.0
H421 H 0.77356 0.94355 0.85366 0.0
H422 H 0.7002 0.92146 0.90629 0.0
H423 H 0.71785 0.88822 0.83606 0.0
H424 H 0.65664 0.97593 0.86023 0.0
H425 H 0.72858 0.00758 0.80625 0.0
H426 H 0.85507 0.04971 0.97761 0.0
H427 H 0.73232 0.96342 0.97171 0.0
H428 H 0.84438 0.98233 0.82206 0.0
H429 H 0.85468 0.08286 0.85305 0.0
H430 H 0.86546 0.02081 0.79004 0.0
H431 H 0.87543 0.11955 0.82055 0.0
H432 H 0.92253 0.0195 0.88569 0.0
H433 H 0.83899 0.96221 0.93394 0.0
H434 H 0.9582 0.98698 0.89722 0.0
H435 H 0.87606 0.93025 0.94457 0.0
H436 H 0.99097 0.1431 0.90885 0.0
H437 H 0.99328 0.10684 0.84689 0.0
H438 H 0.80204 0.84731 0.90441 0.0
H439 H 0.8876 0.90699 0.85678 0.0
Li440 Li 0.02484 0.84265 0.89862 0.0
Li441 Li 0.95117 0.8061 0.89757 0.0
Li442 Li 0.98952 0.79714 0.92604 0.0
Li443 Li 0.98846 0.7736 0.89237 0.0
C444 C 0.00529 0.88403 0.92098 0.0
N445 N 0.04352 0.96445 0.92473 0.0
C446 C 0.99197 0.9054 0.91033 0.0
C447 C 0.03802 0.90358 0.93359 0.0
C448 C 0.01169 0.94601 0.91243 0.0
C449 C 0.05696 0.94425 0.93526 0.0
C450 C 0.98692 0.8044 0.85608 0.0
C451 C 0.95224 0.75893 0.82889 0.0
N452 N 0.98399 0.77879 0.81661 0.0
C453 C 0.01915 0.82449 0.84317 0.0
C454 C 0.9531 0.77148 0.84888 0.0
C455 C 0.01711 0.81103 0.82326 0.0
C456 C 0.1047 0.9033 0.90064 0.0
N457 N 0.06951 0.89136 0.89177 0.0
C458 C 0.09389 0.95356 0.87606 0.0
C459 C 0.06398 0.91512 0.87916 0.0
C460 C 0.12993 0.96759 0.88599 0.0
C461 C 0.1355 0.94161 0.89798 0.0
H462 H 0.10838 0.88364 0.91042 0.0
H463 H 0.03561 0.90476 0.87235 0.0
C464 C 0.89214 0.82189 0.90765 0.0
N465 N 0.90904 0.81411 0.89169 0.0
C466 C 0.8691 0.83869 0.90432 0.0
C467 C 0.8788 0.83618 0.86811 0.0
C468 C 0.90201 0.81984 0.87216 0.0
C469 C 0.86338 0.84743 0.88434 0.0
H470 H 0.89916 0.818 0.92304 0.0
H471 H 0.91649 0.81427 0.85977 0.0
C472 C 0.05272 0.791 0.92332 0.0
N473 N 0.08922 0.76679 0.95041 0.0
C474 C 0.04699 0.75327 0.92191 0.0
C475 C 0.07699 0.81638 0.93852 0.0
C476 C 0.06576 0.74162 0.93573 0.0
C477 C 0.09514 0.80357 0.95208 0.0
C478 C 0.91874 0.71774 0.90785 0.0
C479 C 0.92635 0.69143 0.91798 0.0
C480 C 0.88621 0.70368 0.89512 0.0
C481 C 0.90134 0.65132 0.91506 0.0
C482 C 0.86195 0.66336 0.89257 0.0
N483 N 0.86995 0.63824 0.90251 0.0
C484 C 0.98909 0.81914 0.96628 0.0
C485 C 0.99333 0.76184 0.96389 0.0
C486 C 0.99372 0.82022 0.98731 0.0
N487 N 0.99009 0.79095 0.95494 0.0
C488 C 0.99772 0.76159 0.98501 0.0
C489 C -0.00118 0.79163 0.99689 0.0
H490 H 0.98522 0.84123 0.95899 0.0
H491 H 0.99365 0.73945 0.95465 0.0
C492 C 0.03226 0.75951 0.86758 0.0
N493 N 0.9958 0.73848 0.87555 0.0
C494 C 0.04609 0.74267 0.85392 0.0
C495 C 0.98524 0.68148 0.85741 0.0
C496 C 0.97189 0.70017 0.87058 0.0
C497 C 0.02306 0.70282 0.84895 0.0
H498 H 0.05046 0.79004 0.87158 0.0
H499 H 0.94266 0.68404 0.87668 0.0
O500 O 0.98729 0.84435 0.91852 0.0
O501 O 0.98875 0.81655 0.87578 0.0
O502 O 0.03474 0.80307 0.9099 0.0
O503 O 0.94214 0.75703 0.91095 0.0
H504 H 0.96713 0.89096 0.90025 0.0
H505 H 0.04912 0.88757 0.94169 0.0
H506 H 0.0019 0.96288 0.90413 0.0
H507 H 0.08251 0.95978 0.94481 0.0
H508 H 0.92636 0.73333 0.82316 0.0
H509 H 0.0456 0.84994 0.84854 0.0
H510 H 0.928 0.75552 0.85872 0.0
H511 H 0.0419 0.82615 0.81313 0.0
H512 H 0.08798 0.97266 0.86697 0.0
H513 H 0.16291 0.95115 0.90575 0.0
H514 H 0.85849 0.84743 0.91735 0.0
H515 H 0.8748 0.84193 0.85248 0.0
H516 H 0.02807 0.73304 0.91041 0.0
H517 H 0.08125 0.84542 0.94008 0.0
H518 H 0.06154 0.71251 0.93484 0.0
H519 H 0.1138 0.82283 0.96399 0.0
H520 H 0.95139 0.70185 0.92787 0.0
H521 H 0.87967 0.72372 0.88739 0.0
H522 H 0.90694 0.6306 0.92274 0.0
H523 H 0.8367 0.65204 0.88273 0.0
H524 H 0.99333 0.84329 0.996 0.0
H525 H 0.00136 0.7389 0.99189 0.0
H526 H 0.07462 0.76121 0.84723 0.0
H527 H 0.96629 0.65073 0.85408 0.0
Li528 Li 0.87362 0.55093 0.4495 0.0
Li529 Li 0.85468 0.53035 0.41506 0.0
Li530 Li 0.80419 0.51973 0.44235 0.0
Li531 Li 0.83942 0.48201 0.44154 0.0
C532 C 0.86499 0.60922 0.43273 0.0
N533 N 0.90046 0.68945 0.43639 0.0
C534 C 0.89967 0.63352 0.42222 0.0
C535 C 0.84812 0.62566 0.44495 0.0
C536 C 0.9172 0.67403 0.42429 0.0
C537 C 0.8666 0.66631 0.44667 0.0
C538 C 0.92347 0.53415 0.42003 0.0
C539 C 0.95661 0.52262 0.39237 0.0
N540 N 0.98879 0.55828 0.39575 0.0
C541 C 0.95688 0.57071 0.42321 0.0
C542 C 0.92331 0.50988 0.40448 0.0
C543 C 0.98961 0.58235 0.41079 0.0
C544 C 0.9235 0.56076 0.47834 0.0
N545 N 0.91405 0.58404 0.46778 0.0
C546 C 0.96358 0.64055 0.48516 0.0
C547 C 0.93295 0.62332 0.47104 0.0
C548 C 0.97384 0.61686 0.49635 0.0
C549 C 0.95215 0.57624 0.49315 0.0
H550 H 0.90829 0.52969 0.47526 0.0
H551 H 0.92502 0.64144 0.46257 0.0
C552 C 0.83399 0.51325 0.37452 0.0
N553 N 0.86455 0.53809 0.38643 0.0
C554 C 0.83878 0.51213 0.35358 0.0
C555 C 0.90593 0.56409 0.35716 0.0
C556 C 0.8998 0.56416 0.37815 0.0
C557 C 0.87536 0.53708 0.3447 0.0
H558 H 0.80592 0.49363 0.3813 0.0
H559 H 0.92362 0.58407 0.38781 0.0
C560 C 0.832 0.51691 0.48461 0.0
N561 N 0.84145 0.53811 0.5252 0.0
C562 C 0.83725 0.49418 0.49902 0.0
C563 C 0.83132 0.55027 0.49084 0.0
C564 C 0.84203 0.50543 0.51947 0.0
C565 C 0.83622 0.56054 0.51143 0.0
C566 C 0.78014 0.44413 0.41691 0.0
C567 C 0.74349 0.42259 0.42619 0.0
C568 C 0.7935 0.42527 0.40398 0.0
C569 C 0.72088 0.38248 0.42246 0.0
C570 C 0.77004 0.38506 0.40068 0.0
N571 N 0.73452 0.36467 0.40992 0.0
C572 C 0.73253 0.51021 0.43055 0.0
C573 C 0.73652 0.49788 0.46549 0.0
C574 C 0.69187 0.49189 0.43187 0.0
N575 N 0.75365 0.51154 0.44706 0.0
C576 C 0.69603 0.47956 0.46752 0.0
C577 C 0.67306 0.47472 0.45034 0.0
H578 H 0.7469 0.52021 0.41596 0.0
H579 H 0.75377 0.4982 0.47822 0.0
C580 C 0.85576 0.42029 0.43849 0.0
N581 N 0.83235 0.43209 0.44722 0.0
C582 C 0.84572 0.38115 0.43954 0.0
C583 C 0.78933 0.36795 0.45983 0.0
C584 C 0.80043 0.40725 0.45835 0.0
C585 C 0.81144 0.35422 0.44981 0.0
H586 H 0.8812 0.44079 0.42992 0.0
H587 H 0.78232 0.41754 0.46504 0.0
O588 O 0.8468 0.56957 0.43044 0.0
O589 O 0.89123 0.52206 0.43214 0.0
O590 O 0.82827 0.50689 0.46444 0.0
O591 O 0.80331 0.48325 0.42089 0.0
H592 H 0.91303 0.62124 0.41269 0.0
H593 H 0.8209 0.60722 0.4529 0.0
H594 H 0.94414 0.69321 0.41632 0.0
H595 H 0.85394 0.67946 0.45612 0.0
H596 H 0.95678 0.50425 0.3802 0.0
H597 H 0.95756 0.59003 0.43506 0.0
H598 H 0.8975 0.48183 0.40152 0.0
H599 H 0.01563 0.61057 0.41308 0.0
H600 H 0.97939 0.67201 0.48689 0.0
H601 H 0.95718 0.55612 0.50183 0.0
H602 H 0.81405 0.49175 0.34444 0.0
H603 H 0.93452 0.58403 0.35087 0.0
H604 H 0.83797 0.46834 0.4944 0.0
H605 H 0.82736 0.56816 0.47986 0.0
H606 H 0.8463 0.48824 0.53079 0.0
H607 H 0.83595 0.58639 0.51647 0.0
H608 H 0.73278 0.43648 0.43641 0.0
H609 H 0.82197 0.44143 0.39683 0.0
H610 H 0.69262 0.36549 0.42967 0.0
H611 H 0.78015 0.37003 0.39087 0.0
H612 H 0.6753 0.48832 0.41817 0.0
H613 H 0.68269 0.46703 0.48207 0.0
H614 H 0.86373 0.3718 0.43178 0.0
H615 H 0.76233 0.34815 0.46762 0.0
Li616 Li 0.50218 0.34667 0.44051 0.0
Li617 Li 0.46388 0.27333 0.44122 0.0
Li618 Li 0.45409 0.31266 0.41374 0.0
Li619 Li 0.43307 0.31157 0.44798 0.0
C620 C 0.53976 0.32517 0.41571 0.0
N621 N 0.61906 0.35995 0.4083 0.0
C622 C 0.5617 0.31139 0.4254 0.0
C623 C 0.55809 0.35646 0.40214 0.0
C624 C 0.60175 0.32939 0.42146 0.0
C625 C 0.59824 0.37371 0.39863 0.0
C626 C 0.46444 0.30303 0.48326 0.0
C627 C 0.4187 0.26106 0.50878 0.0
N628 N 0.43931 0.28852 0.52322 0.0
C629 C 0.48528 0.33078 0.49834 0.0
C630 C 0.43098 0.26782 0.48848 0.0
C631 C 0.47206 0.32291 0.51847 0.0
C632 C 0.56539 0.42533 0.43784 0.0
N633 N 0.55232 0.38978 0.44652 0.0
C634 C 0.61522 0.41079 0.46059 0.0
C635 C 0.57594 0.38245 0.45826 0.0
C636 C 0.63024 0.44709 0.45081 0.0
C637 C 0.60456 0.45459 0.43975 0.0
H638 H 0.54585 0.4305 0.4288 0.0
H639 H 0.56467 0.3538 0.4649 0.0
C640 C 0.47236 0.21125 0.42886 0.0
N641 N 0.47163 0.23094 0.44566 0.0
C642 C 0.49043 0.18894 0.42962 0.0
C643 C 0.50375 0.2052 0.46533 0.0
C644 C 0.48566 0.2274 0.46385 0.0
C645 C 0.50798 0.18719 0.44782 0.0
H646 H 0.46211 0.21576 0.41447 0.0
H647 H 0.48582 0.24435 0.4768 0.0
C648 C 0.45227 0.37937 0.41861 0.0
N649 N 0.43157 0.42288 0.39452 0.0
C650 C 0.4164 0.37737 0.4216 0.0
C651 C 0.47758 0.40348 0.40334 0.0
C652 C 0.4065 0.39964 0.40928 0.0
C653 C 0.46657 0.42522 0.39131 0.0
C654 C 0.37459 0.24492 0.42988 0.0
C655 C 0.35295 0.25738 0.41881 0.0
C656 C 0.35527 0.21054 0.44127 0.0
C657 C 0.31215 0.23531 0.41945 0.0
C658 C 0.31443 0.18932 0.44155 0.0
N659 N 0.2939 0.20205 0.43073 0.0
C660 C 0.46839 0.30269 0.37368 0.0
C661 C 0.4239 0.32568 0.37627 0.0
C662 C 0.46982 0.30667 0.35261 0.0
N663 N 0.44669 0.31334 0.38511 0.0
C664 C 0.42471 0.33047 0.35517 0.0
C665 C 0.44875 0.32188 0.34313 0.0
H666 H 0.48541 0.29192 0.38098 0.0
H667 H 0.40617 0.33319 0.38554 0.0
C668 C 0.42195 0.35239 0.47613 0.0
N669 N 0.39936 0.31894 0.46558 0.0
C670 C 0.40532 0.36644 0.48978 0.0
C671 C 0.34159 0.31222 0.48102 0.0
C672 C 0.35984 0.29824 0.46798 0.0
C673 C 0.36448 0.34723 0.4919 0.0
H674 H 0.45324 0.36841 0.47376 0.0
H675 H 0.34231 0.2716 0.45956 0.0
O676 O 0.50078 0.3089 0.41994 0.0
O677 O 0.4764 0.31062 0.4634 0.0
O678 O 0.46272 0.35816 0.43068 0.0
O679 O 0.41449 0.26554 0.42905 0.0
H680 H 0.54815 0.28748 0.43609 0.0
H681 H 0.54157 0.36764 0.39462 0.0
H682 H 0.61908 0.31923 0.42901 0.0
H683 H 0.61288 0.39816 0.3883 0.0
H684 H 0.39275 0.23401 0.51304 0.0
H685 H 0.5112 0.35823 0.49449 0.0
H686 H 0.41455 0.24613 0.47695 0.0
H687 H 0.48778 0.34418 0.5303 0.0
H688 H 0.63403 0.40342 0.46896 0.0
H689 H 0.61489 0.48229 0.43214 0.0
H690 H 0.49355 0.17611 0.41567 0.0
H691 H 0.51659 0.20431 0.47968 0.0
H692 H 0.3963 0.35877 0.43324 0.0
H693 H 0.50509 0.40481 0.40051 0.0
H694 H 0.37884 0.39835 0.41143 0.0
H695 H 0.48576 0.44379 0.37936 0.0
H696 H 0.36748 0.28392 0.40995 0.0
H697 H 0.37166 0.20026 0.44972 0.0
H698 H 0.295 0.24468 0.41102 0.0
H699 H 0.29906 0.16269 0.45033 0.0
H700 H 0.48773 0.29841 0.34388 0.0
H701 H 0.40786 0.34213 0.3485 0.0
H702 H 0.42459 0.39255 0.49835 0.0
H703 H 0.31002 0.29636 0.48208 0.0
Li704 Li 0.63553 0.14629 0.43503 0.0
Li705 Li 0.70884 0.18152 0.43622 0.0
Li706 Li 0.66945 0.13391 0.40767 0.0
Li707 Li 0.66952 0.11149 0.44137 0.0
C708 C 0.65807 0.2076 0.41209 0.0
N709 N 0.62368 0.25257 0.40717 0.0
C710 C 0.6725 0.24293 0.42263 0.0
C711 C 0.62633 0.19527 0.39893 0.0
C712 C 0.65467 0.2652 0.41996 0.0
C713 C 0.6093 0.2184 0.39668 0.0
C714 C 0.67561 0.14824 0.47772 0.0
C715 C 0.7135 0.14089 0.50405 0.0
N716 N 0.68434 0.13254 0.51764 0.0
C717 C 0.64609 0.13978 0.49194 0.0
C718 C 0.70968 0.14899 0.4838 0.0
C719 C 0.65104 0.13186 0.51206 0.0
C720 C 0.55701 0.13006 0.43317 0.0
N721 N 0.59268 0.15267 0.44182 0.0
C722 C 0.57189 0.19352 0.45733 0.0
C723 C 0.60017 0.1831 0.45425 0.0
C724 C 0.53544 0.17219 0.44762 0.0
C725 C 0.52776 0.13939 0.43586 0.0
H726 H 0.55175 0.10576 0.42356 0.0
H727 H 0.62889 0.20054 0.46089 0.0
C728 C 0.77254 0.25447 0.42646 0.0
N729 N 0.75146 0.2315 0.44232 0.0
C730 C 0.79527 0.29491 0.42902 0.0
C731 C 0.77637 0.28671 0.46452 0.0
C732 C 0.75389 0.2465 0.46126 0.0
C733 C 0.79592 0.31158 0.44806 0.0
H734 H 0.76894 0.24177 0.41145 0.0
H735 H 0.7359 0.2278 0.47345 0.0
C736 C 0.60297 0.06466 0.4111 0.0
N737 N 0.56108 0.00188 0.38527 0.0
C738 C 0.60536 0.03087 0.41307 0.0
C739 C 0.57925 0.0665 0.39599 0.0
C740 C 0.58392 -0.00056 0.39988 0.0
C741 C 0.55835 0.03447 0.38307 0.0
C742 C 0.73717 0.12196 0.42452 0.0
C743 C 0.72634 0.08785 0.41342 0.0
C744 C 0.7705 0.13804 0.43676 0.0
C745 C 0.74895 0.07012 0.41491 0.0
C746 C 0.79228 0.11938 0.43788 0.0
N747 N 0.78115 0.0861 0.42702 0.0
C748 C 0.6764 0.15871 0.36759 0.0
C749 C 0.65921 0.09232 0.36966 0.0
C750 C 0.67256 0.15605 0.34649 0.0
N751 N 0.66872 0.12689 0.37878 0.0
C752 C 0.65476 0.08824 0.34852 0.0
C753 C 0.66068 0.12022 0.33669 0.0
H754 H 0.68494 0.18617 0.37507 0.0
H755 H 0.65384 0.06751 0.37876 0.0
C756 C 0.62674 0.05757 0.46815 0.0
N757 N 0.66106 0.06932 0.45838 0.0
C758 C 0.61289 0.02802 0.48246 0.0
C759 C 0.66854 0.02048 0.47554 0.0
C760 C 0.6824 0.05183 0.46188 0.0
C761 C 0.63309 0.00802 0.48603 0.0
H762 H 0.61039 0.07199 0.46503 0.0
H763 H 0.70983 0.06176 0.45415 0.0
O764 O 0.67409 0.18457 0.41513 0.0
O765 O 0.67086 0.15511 0.45784 0.0
O766 O 0.62344 0.09563 0.42399 0.0
O767 O 0.71612 0.14036 0.42282 0.0
H768 H 0.69674 0.25279 0.43304 0.0
H769 H 0.61459 0.16783 0.3908 0.0
H770 H 0.66529 0.29235 0.4282 0.0
H771 H 0.58451 0.20906 0.38669 0.0
H772 H 0.73962 0.14116 0.50895 0.0
H773 H 0.61949 0.13898 0.48744 0.0
H774 H 0.73273 0.15544 0.47295 0.0
H775 H 0.62837 0.12507 0.52322 0.0
H776 H 0.57943 0.21942 0.46623 0.0
H777 H 0.49994 0.12196 0.42828 0.0
H778 H 0.80935 0.31303 0.41584 0.0
H779 H 0.77632 0.29839 0.47945 0.0
H780 H 0.62369 0.02893 0.42457 0.0
H781 H 0.57753 0.09262 0.39402 0.0
H782 H 0.58553 0.97314 0.40122 0.0
H783 H 0.54009 0.03559 0.37123 0.0
H784 H 0.70067 0.07512 0.40387 0.0
H785 H 0.77956 0.16477 0.4452 0.0
H786 H 0.74085 0.04362 0.40647 0.0
H787 H 0.81811 0.13142 0.44732 0.0
H788 H 0.67867 0.18184 0.33796 0.0
H789 H 0.64566 0.06008 0.34163 0.0
H790 H 0.58652 0.02132 0.49065 0.0
H791 H 0.68523 0.00607 0.4776 0.0
Li792 Li 0.88731 0.54558 0.2184 0.0
Li793 Li 0.87062 0.52324 0.25227 0.0
Li794 Li 0.85601 0.47704 0.22219 0.0
Li795 Li 0.82118 0.51527 0.22674 0.0
C796 C 0.9462 0.53763 0.23145 0.0
N797 N 0.02605 0.5819 0.22569 0.0
C798 C 0.96753 0.57468 0.2403 0.0
C799 C 0.96543 0.52285 0.21985 0.0
C800 C 0.00788 0.5967 0.23713 0.0
C801 C 0.00585 0.54574 0.21708 0.0
C802 C 0.84861 0.57831 0.25347 0.0
C803 C 0.80722 0.56788 0.28266 0.0
N804 N 0.82004 0.60679 0.28329 0.0
C805 C 0.86154 0.61826 0.25453 0.0
C806 C 0.82132 0.55298 0.26773 0.0
C807 C 0.84665 0.63205 0.26965 0.0
C808 C 0.91755 0.61897 0.20308 0.0
N809 N 0.92408 0.58859 0.20215 0.0
C810 C 0.97409 0.6219 0.17705 0.0
C811 C 0.95164 0.58929 0.18942 0.0
C812 C 0.96808 0.65377 0.17812 0.0
C813 C 0.9394 0.652 0.1913 0.0
H814 H 0.89434 0.61703 0.21249 0.0
H815 H 0.95536 0.56422 0.18836 0.0
C816 C 0.86488 0.49584 0.29175 0.0
N817 N 0.88162 0.52907 0.28052 0.0
C818 C 0.86419 0.49792 0.3129 0.0
C819 C 0.90055 0.56849 0.31059 0.0
C820 C 0.90054 0.56501 0.28941 0.0
C821 C 0.88094 0.5346 0.32253 0.0
H822 H 0.85031 0.4677 0.2842 0.0
H823 H 0.9135 0.59097 0.28005 0.0
C824 C 0.85266 0.52112 0.18319 0.0
N825 N 0.87414 0.55568 0.14529 0.0
C826 C 0.84017 0.54652 0.17676 0.0
C827 C 0.87579 0.51302 0.1703 0.0
C828 C 0.85145 0.56381 0.15756 0.0
C829 C 0.88637 0.53082 0.15119 0.0
C830 C 0.78427 0.44376 0.24851 0.0
C831 C 0.76395 0.4169 0.23297 0.0
C832 C 0.76696 0.43811 0.26775 0.0
C833 C 0.72664 0.38518 0.23682 0.0
C834 C 0.72958 0.406 0.27101 0.0
N835 N 0.71035 0.38043 0.25561 0.0
C836 C 0.84544 0.40423 0.2313 0.0
C837 C 0.83267 0.41117 0.1968 0.0
C838 C 0.82731 0.36378 0.22901 0.0
N839 N 0.8465 0.42669 0.2155 0.0
C840 C 0.81438 0.37084 0.19381 0.0
C841 C 0.81002 0.34648 0.2103 0.0
H842 H 0.85572 0.41739 0.24613 0.0
H843 H 0.83279 0.42958 0.1847 0.0
C844 C 0.75792 0.5326 0.23026 0.0
N845 N 0.77118 0.51008 0.2218 0.0
C846 C 0.71894 0.52248 0.22784 0.0
C847 C 0.70911 0.46873 0.20635 0.0
C848 C 0.74814 0.47989 0.20919 0.0
C849 C 0.69368 0.48937 0.21628 0.0
H850 H 0.77696 0.55793 0.23924 0.0
H851 H 0.75978 0.46352 0.20187 0.0
O852 O 0.90676 0.51558 0.23444 0.0
O853 O 0.86426 0.56477 0.23922 0.0
O854 O 0.84269 0.50469 0.20212 0.0
O855 O 0.82109 0.47495 0.24504 0.0
H856 H 0.95297 0.58642 0.24936 0.0
H857 H 0.94925 0.49409 0.21299 0.0
H858 H 0.02477 0.62555 0.24377 0.0
H859 H 0.02116 0.53479 0.20808 0.0
H860 H 0.78609 0.5485 0.29374 0.0
H861 H 0.88316 0.63858 0.24393 0.0
H862 H 0.81104 0.52217 0.26729 0.0
H863 H 0.85643 0.66289 0.2706 0.0
H864 H 0.99564 0.6222 0.16677 0.0
H865 H 0.93312 0.67555 0.19205 0.0
H866 H 0.84954 0.47109 0.3216 0.0
H867 H 0.91375 0.59728 0.31743 0.0
H868 H 0.82236 0.55318 0.18661 0.0
H869 H 0.88615 0.49385 0.17515 0.0
H870 H 0.84228 0.58377 0.15244 0.0
H871 H 0.90455 0.52511 0.14113 0.0
H872 H 0.77658 0.42068 0.21797 0.0
H873 H 0.78216 0.45817 0.28012 0.0
H874 H 0.71063 0.36437 0.22485 0.0
H875 H 0.71588 0.40138 0.28581 0.0
H876 H 0.82408 0.34613 0.24222 0.0
H877 H 0.80166 0.35867 0.17911 0.0
H878 H 0.70842 0.53974 0.23537 0.0
H879 H 0.69079 0.4429 0.19733 0.0
Li880 Li 0.45065 0.34601 0.21646 0.0
Li881 Li 0.47016 0.34257 0.25038 0.0
Li882 Li 0.5201 0.38426 0.22331 0.0
Li883 Li 0.48467 0.31085 0.2227 0.0
C884 C 0.46021 0.41214 0.23597 0.0
N885 N 0.42509 0.45696 0.23631 0.0
C886 C 0.4259 0.4 0.24712 0.0
C887 C 0.47687 0.44719 0.22512 0.0
C888 C 0.40854 0.42305 0.24708 0.0
C889 C 0.45859 0.46939 0.22543 0.0
C890 C 0.40105 0.27618 0.24472 0.0
C891 C 0.36874 0.22875 0.2714 0.0
N892 N 0.33606 0.23114 0.26868 0.0
C893 C 0.36715 0.2782 0.24221 0.0
C894 C 0.40188 0.25125 0.25942 0.0
C895 C 0.3346 0.25516 0.25446 0.0
C896 C 0.3981 0.30761 0.18785 0.0
N897 N 0.4099 0.34033 0.19917 0.0
C898 C 0.36088 0.35029 0.18412 0.0
C899 C 0.39252 0.3622 0.19738 0.0
C900 C 0.34786 0.31616 0.17237 0.0
C901 C 0.36799 0.29563 0.17396 0.0
H902 H 0.41232 0.2907 0.18969 0.0
H903 H 0.40243 0.3883 0.20636 0.0
C904 C 0.49308 0.34903 0.29053 0.0
N905 N 0.46118 0.33981 0.27903 0.0
C906 C 0.48969 0.3442 0.31154 0.0
C907 C 0.42088 0.3222 0.3088 0.0
C908 C 0.42571 0.32779 0.28776 0.0
C909 C 0.45303 0.32963 0.32091 0.0
H910 H 0.52119 0.35957 0.28333 0.0
H911 H 0.40085 0.32137 0.27843 0.0
C912 C 0.49083 0.35635 0.18088 0.0
N913 N 0.47991 0.37177 0.14127 0.0
C914 C 0.48358 0.32905 0.16551 0.0
C915 C 0.49279 0.39158 0.17612 0.0
C916 C 0.47808 0.33738 0.14557 0.0
C917 C 0.48711 0.3988 0.156 0.0
C918 C 0.54423 0.33174 0.24729 0.0
C919 C 0.58086 0.34745 0.23794 0.0
C920 C 0.53086 0.29919 0.25997 0.0
C921 C 0.60342 0.33013 0.24134 0.0
C922 C 0.55426 0.28264 0.26292 0.0
N923 N 0.58974 0.29832 0.25363 0.0
C924 C 0.59083 0.44755 0.23574 0.0
C925 C 0.588 0.43192 0.20066 0.0
C926 C 0.63144 0.47101 0.23474 0.0
N927 N 0.57036 0.42758 0.21901 0.0
C928 C 0.62849 0.45522 0.19894 0.0
C929 C 0.65087 0.47351 0.21636 0.0
H930 H 0.576 0.4425 0.25024 0.0
H931 H 0.57117 0.41481 0.18775 0.0
C932 C 0.4685 0.23215 0.2235 0.0
N933 N 0.4918 0.26848 0.21568 0.0
C934 C 0.47829 0.20321 0.22083 0.0
C935 C 0.53451 0.2491 0.2011 0.0
C936 C 0.52363 0.27705 0.20416 0.0
C937 C 0.51224 0.21185 0.2099 0.0
H938 H 0.44314 0.22603 0.23243 0.0
H939 H 0.54168 0.30629 0.19822 0.0
O940 O 0.47818 0.39053 0.23622 0.0
O941 O 0.43309 0.29816 0.23272 0.0
O942 O 0.4954 0.34833 0.20056 0.0
O943 O 0.52118 0.34755 0.2437 0.0
H944 H 0.41267 0.37295 0.25557 0.0
H945 H 0.50373 0.45721 0.21664 0.0
H946 H 0.38187 0.41395 0.25556 0.0
H947 H 0.47108 0.49655 0.21707 0.0
H948 H 0.36906 0.20953 0.28292 0.0
H949 H 0.36595 0.29741 0.23101 0.0
H950 H 0.42805 0.24981 0.26184 0.0
H951 H 0.3082 0.25646 0.25269 0.0
H952 H 0.34634 0.3671 0.1835 0.0
H953 H 0.36051 0.27015 0.16473 0.0
H954 H 0.51556 0.35157 0.32034 0.0
H955 H 0.39209 0.31105 0.31538 0.0
H956 H 0.4819 0.30161 0.169 0.0
H957 H 0.49832 0.41293 0.18788 0.0
H958 H 0.47226 0.31647 0.13352 0.0
H959 H 0.48835 0.42586 0.1521 0.0
H960 H 0.5916 0.37242 0.22797 0.0
H961 H 0.50249 0.28654 0.26722 0.0
H962 H 0.6317 0.34186 0.23411 0.0
H963 H 0.54415 0.25726 0.27256 0.0
H964 H 0.64754 0.48413 0.24861 0.0
H965 H 0.64232 0.45671 0.18445 0.0
H966 H 0.46014 0.17479 0.2277 0.0
H967 H 0.56132 0.25738 0.19289 0.0
Li968 Li 0.61109 0.13691 0.21577 0.0
Li969 Li 0.68352 0.17458 0.21754 0.0
Li970 Li 0.64924 0.10524 0.20862 0.0
Li971 Li 0.64853 0.12468 0.24341 0.0
C972 C 0.63652 0.13924 0.17434 0.0
N973 N 0.61161 0.11738 0.13476 0.0
C974 C 0.65876 0.16297 0.15817 0.0
C975 C 0.60166 0.1044 0.17042 0.0
C976 C 0.64565 0.1514 0.13825 0.0
C977 C 0.58954 0.09387 0.15029 0.0
C978 C 0.66154 0.21012 0.24357 0.0
C979 C 0.70949 0.26577 0.26273 0.0
N980 N 0.69638 0.28814 0.2542 0.0
C981 C 0.64843 0.23363 0.23505 0.0
C982 C 0.69218 0.22622 0.2576 0.0
C983 C 0.66644 0.27301 0.24061 0.0
C984 C 0.54854 0.14562 0.22766 0.0
N985 N 0.56941 0.14624 0.21107 0.0
C986 C 0.54614 0.18136 0.192 0.0
C987 C 0.56769 0.16257 0.19325 0.0
C988 C 0.52693 0.18411 0.20937 0.0
C989 C 0.52685 0.16443 0.22714 0.0
H990 H 0.55156 0.1336 0.24182 0.0
H991 H 0.58549 0.16404 0.18047 0.0
C992 C 0.76209 0.23809 0.22062 0.0
N993 N 0.72634 0.22522 0.21224 0.0
C994 C 0.79101 0.27749 0.2192 0.0
C995 C 0.7464 0.28885 0.19949 0.0
C996 C 0.71846 0.24931 0.20128 0.0
C997 C 0.7829 0.30362 0.20901 0.0
H998 H 0.7677 0.21819 0.22904 0.0
H999 H 0.68965 0.23816 0.19486 0.0
C1000 C 0.58263 0.04615 0.22706 0.0
N1001 N 0.54242 0.96542 0.22789 0.0
C1002 C 0.59678 0.02643 0.23853 0.0
C1003 C 0.5479 0.02486 0.21612 0.0
C1004 C 0.57604 0.98558 0.23876 0.0
C1005 C 0.52807 0.98404 0.21668 0.0
C1006 C 0.7161 0.12351 0.23849 0.0
C1007 C 0.71395 0.08768 0.23503 0.0
C1008 C 0.7404 0.14829 0.25387 0.0
C1009 C 0.73615 0.07723 0.24704 0.0
C1010 C 0.76209 0.13675 0.26557 0.0
N1011 N 0.75955 0.10177 0.26194 0.0
C1012 C 0.68616 0.09613 0.17714 0.0
C1013 C 0.63985 0.0331 0.18918 0.0
C1014 C 0.69927 0.08031 0.16245 0.0
N1015 N 0.65693 0.07271 0.19008 0.0
C1016 C 0.65342 0.01588 0.17516 0.0
C1017 C 0.68414 0.03973 0.16174 0.0
H1018 H 0.69983 0.12753 0.17844 0.0
H1019 H 0.61678 0.01487 0.19964 0.0
C1020 C 0.63465 0.13537 0.28356 0.0
N1021 N 0.64798 0.11589 0.27214 0.0
C1022 C 0.6375 0.13613 0.3047 0.0
C1023 C 0.66573 0.09481 0.30225 0.0
C1024 C 0.66211 0.09468 0.28108 0.0
C1025 C 0.65427 0.11662 0.31432 0.0
H1026 H 0.62267 0.15127 0.27619 0.0
H1027 H 0.67186 0.07869 0.27187 0.0
O1028 O 0.64951 0.14958 0.1939 0.0
O1029 O 0.6451 0.17177 0.23786 0.0
O1030 O 0.60209 0.08609 0.22696 0.0
O1031 O 0.69492 0.13444 0.22673 0.0
H1032 H 0.68597 0.18989 0.16099 0.0
H1033 H 0.5843 0.08568 0.18278 0.0
H1034 H 0.66258 0.16942 0.12557 0.0
H1035 H 0.56264 0.06695 0.14702 0.0
H1036 H 0.73342 0.2787 0.27345 0.0
H1037 H 0.62497 0.2218 0.22405 0.0
H1038 H 0.70276 0.20846 0.26427 0.0
H1039 H 0.65676 0.29157 0.23403 0.0
H1040 H 0.54665 0.1958 0.17795 0.0
H1041 H 0.51298 0.1663 0.24099 0.0
H1042 H 0.81889 0.28763 0.22657 0.0
H1043 H 0.73857 0.30796 0.19179 0.0
H1044 H 0.62368 0.04245 0.24697 0.0
H1045 H 0.53627 0.03971 0.20737 0.0
H1046 H 0.58675 0.96993 0.2475 0.0
H1047 H 0.50119 0.96717 0.20825 0.0
H1048 H 0.69527 0.06807 0.22326 0.0
H1049 H 0.74196 0.17582 0.257 0.0
H1050 H 0.73472 0.04958 0.24455 0.0
H1051 H 0.78081 0.15552 0.2776 0.0
H1052 H 0.72178 0.10013 0.15205 0.0
H1053 H 0.64085 0.98449 0.17535 0.0
H1054 H 0.62713 0.15233 0.3134 0.0
H1055 H 0.67871 0.07923 0.30899 0.0
Li1056 Li 0.52269 0.87113 0.7445 0.0
Li1057 Li 0.54502 0.8878 0.77837 0.0
Li1058 Li 0.5147 0.82168 0.77002 0.0
Li1059 Li 0.47648 0.85652 0.77457 0.0
C1060 C 0.57777 0.84913 0.7433 0.0
N1061 N 0.60631 0.8206 0.7135 0.0
C1062 C 0.61773 0.86207 0.74226 0.0
C1063 C 0.55246 0.82185 0.72903 0.0
C1064 C 0.63155 0.84721 0.72715 0.0
C1065 C 0.5674 0.80777 0.71411 0.0
C1066 C 0.53709 0.94672 0.76532 0.0
C1067 C 0.5452 0.00638 0.77966 0.0
N1068 N 0.58136 0.02657 0.77106 0.0
C1069 C 0.57415 0.96803 0.75647 0.0
C1070 C 0.52231 0.96596 0.77691 0.0
C1071 C 0.59616 0.0084 0.75963 0.0
C1072 C 0.49531 0.8654 0.70502 0.0
N1073 N 0.52854 0.88214 0.71625 0.0
C1074 C 0.56796 0.90107 0.68618 0.0
C1075 C 0.56448 0.90107 0.70736 0.0
C1076 C 0.53407 0.88145 0.67424 0.0
C1077 C 0.49739 0.86471 0.68387 0.0
H1078 H 0.46717 0.85083 0.71256 0.0
H1079 H 0.59044 0.91402 0.71672 0.0
C1080 C 0.61832 0.91786 0.79375 0.0
N1081 N 0.58804 0.92453 0.79463 0.0
C1082 C 0.65136 0.93967 0.80553 0.0
C1083 C 0.62146 0.97461 0.81969 0.0
C1084 C 0.58883 0.95219 0.80732 0.0
C1085 C 0.65325 0.96846 0.81866 0.0
H1086 H 0.6163 0.89457 0.78438 0.0
H1087 H 0.56382 0.95602 0.80836 0.0
C1088 C 0.44321 0.78478 0.74825 0.0
N1089 N 0.3799 0.71085 0.74116 0.0
C1090 C 0.41635 0.76446 0.76379 0.0
C1091 C 0.43758 0.76747 0.72901 0.0
C1092 C 0.38463 0.72715 0.75994 0.0
C1093 C 0.40548 0.73008 0.72575 0.0
C1094 C 0.52052 0.85317 0.81358 0.0
C1095 C 0.54585 0.84061 0.82005 0.0
C1096 C 0.51247 0.87638 0.82644 0.0
C1097 C 0.56311 0.85192 0.83925 0.0
C1098 C 0.53025 0.88698 0.84555 0.0
N1099 N 0.55503 0.87468 0.85149 0.0
C1100 C 0.53204 0.75842 0.76651 0.0
C1101 C 0.47932 0.74864 0.78757 0.0
C1102 C 0.52193 0.71945 0.76893 0.0
N1103 N 0.50952 0.77168 0.77496 0.0
C1104 C 0.46817 0.7096 0.79042 0.0
C1105 C 0.48882 0.69419 0.78049 0.0
H1106 H 0.55738 0.77747 0.75753 0.0
H1107 H 0.46295 0.76027 0.79489 0.0
C1108 C 0.40368 0.84596 0.76546 0.0
N1109 N 0.42614 0.84702 0.78126 0.0
C1110 C 0.36323 0.82783 0.76776 0.0
C1111 C 0.3703 0.81491 0.80296 0.0
C1112 C 0.41063 0.8332 0.79997 0.0
C1113 C 0.34594 0.81055 0.78647 0.0
H1114 H 0.41684 0.85622 0.75064 0.0
H1115 H 0.42904 0.83333 0.81206 0.0
O1116 O 0.56421 0.86476 0.75756 0.0
O1117 O 0.51504 0.90727 0.76234 0.0
O1118 O 0.4744 0.8216 0.75172 0.0
O1119 O 0.50412 0.84318 0.79465 0.0
H1120 H 0.63803 0.88369 0.75287 0.0
H1121 H 0.52165 0.81156 0.72947 0.0
H1122 H 0.66238 0.85699 0.72621 0.0
H1123 H 0.54804 0.78664 0.70302 0.0
H1124 H 0.53424 0.0217 0.78865 0.0
H1125 H 0.58588 0.95347 0.74742 0.0
H1126 H 0.49354 0.94978 0.78376 0.0
H1127 H 0.62502 0.02527 0.75299 0.0
H1128 H 0.59676 0.91427 0.67935 0.0
H1129 H 0.47056 0.85006 0.67517 0.0
H1130 H 0.67484 0.93328 0.80481 0.0
H1131 H 0.62184 0.99626 0.82993 0.0
H1132 H 0.42011 0.77709 0.77878 0.0
H1133 H 0.45764 0.78266 0.71665 0.0
H1134 H 0.36382 0.71114 0.77191 0.0
H1135 H 0.40087 0.71637 0.71095 0.0
H1136 H 0.55246 0.82273 0.81023 0.0
H1137 H 0.49335 0.88679 0.82155 0.0
H1138 H 0.58302 0.84269 0.84441 0.0
H1139 H 0.52457 0.90522 0.85559 0.0
H1140 H 0.5392 0.70894 0.76141 0.0
H1141 H 0.44234 0.69129 0.79943 0.0
H1142 H 0.34558 0.82458 0.75455 0.0
H1143 H 0.35814 0.8022 0.81766 0.0
Li1144 Li 0.17405 0.68402 0.77924 0.0
Li1145 Li 0.13639 0.61159 0.78101 0.0
Li1146 Li 0.12415 0.64902 0.75337 0.0
Li1147 Li 0.10472 0.64974 0.78816 0.0
C1148 C 0.2096 0.66204 0.75321 0.0
N1149 N 0.28761 0.69688 0.74258 0.0
C1150 C 0.2331 0.64893 0.76173 0.0
C1151 C 0.22569 0.69268 0.73917 0.0
C1152 C 0.27248 0.66694 0.75616 0.0
C1153 C 0.26524 0.70999 0.73404 0.0
C1154 C 0.13873 0.63701 0.82243 0.0
C1155 C 0.09335 0.59002 0.84648 0.0
N1156 N 0.11687 0.61207 0.86202 0.0
C1157 C 0.16246 0.65923 0.83861 0.0
C1158 C 0.10388 0.60215 0.82636 0.0
C1159 C 0.1509 0.64611 0.85852 0.0
C1160 C 0.23755 0.7626 0.77616 0.0
N1161 N 0.22469 0.72685 0.78453 0.0
C1162 C 0.28832 0.74692 0.79728 0.0
C1163 C 0.24879 0.71897 0.79549 0.0
C1164 C 0.30308 0.78342 0.78777 0.0
C1165 C 0.27694 0.79152 0.77757 0.0
H1166 H 0.21764 0.7682 0.76774 0.0
H1167 H 0.23764 0.69016 0.80191 0.0
C1168 C 0.14511 0.54904 0.76912 0.0
N1169 N 0.14572 0.56992 0.78571 0.0
C1170 C 0.16392 0.52735 0.76965 0.0
C1171 C 0.18085 0.54664 0.80478 0.0
C1172 C 0.16206 0.56819 0.80353 0.0
C1173 C 0.1836 0.52744 0.78741 0.0
H1174 H 0.13309 0.55206 0.75496 0.0
H1175 H 0.16353 0.586 0.81631 0.0
C1176 C 0.12297 0.71659 0.75829 0.0
N1177 N 0.10123 0.76004 0.73484 0.0
C1178 C 0.08715 0.71444 0.76175 0.0
C1179 C 0.14776 0.74089 0.74291 0.0
C1180 C 0.0767 0.73665 0.74974 0.0
C1181 C 0.13621 0.76259 0.73121 0.0
C1182 C 0.04563 0.58312 0.76972 0.0
C1183 C 0.02591 0.59728 0.75825 0.0
C1184 C 0.02433 0.5484 0.78066 0.0
C1185 C 0.98507 0.57655 0.75802 0.0
C1186 C 0.98351 0.52857 0.7801 0.0
N1187 N 0.96489 0.54293 0.76888 0.0
C1188 C 0.13484 0.63514 0.71322 0.0
C1189 C 0.09415 0.6626 0.7157 0.0
C1190 C 0.1356 0.63799 0.69208 0.0
N1191 N 0.11536 0.64847 0.72463 0.0
C1192 C 0.09429 0.66622 0.69453 0.0
C1193 C 0.11609 0.65476 0.68246 0.0
H1194 H 0.15074 0.62315 0.72059 0.0
H1195 H 0.07816 0.67235 0.72491 0.0
C1196 C 0.09562 0.68665 0.81964 0.0
N1197 N 0.07219 0.65742 0.8067 0.0
C1198 C 0.07979 0.69975 0.83434 0.0
C1199 C 0.01536 0.65391 0.82163 0.0
C1200 C 0.03258 0.64035 0.8076 0.0
C1201 C 0.03922 0.68463 0.83505 0.0
H1202 H 0.12701 0.70032 0.81834 0.0
H1203 H 0.01435 0.61728 0.79714 0.0
O1204 O 0.17125 0.6456 0.75891 0.0
O1205 O 0.14906 0.65001 0.80288 0.0
O1206 O 0.13391 0.69541 0.77004 0.0
O1207 O 0.08557 0.60258 0.76982 0.0
H1208 H 0.22128 0.62548 0.77273 0.0
H1209 H 0.20793 0.70326 0.7325 0.0
H1210 H 0.29104 0.65726 0.76274 0.0
H1211 H 0.27816 0.73392 0.72332 0.0
H1212 H 0.06644 0.56312 0.84976 0.0
H1213 H 0.18939 0.68644 0.83579 0.0
H1214 H 0.08515 0.58481 0.81399 0.0
H1215 H 0.16892 0.66303 0.87121 0.0
H1216 H 0.30744 0.73909 0.80498 0.0
H1217 H 0.28707 0.8194 0.7702 0.0
H1218 H 0.16579 0.51349 0.7558 0.0
H1219 H 0.19529 0.54716 0.81883 0.0
H1220 H 0.06754 0.69577 0.77352 0.0
H1221 H 0.17528 0.74245 0.73978 0.0
H1222 H 0.04905 0.73522 0.75223 0.0
H1223 H 0.15499 0.7813 0.71918 0.0
H1224 H 0.04194 0.62418 0.74981 0.0
H1225 H 0.03917 0.53676 0.78941 0.0
H1226 H 0.96942 0.58727 0.74928 0.0
H1227 H 0.96664 0.50169 0.78853 0.0
H1228 H 0.1518 0.62761 0.68338 0.0
H1229 H 0.0787 0.6792 0.68778 0.0
H1230 H 0.09962 0.72226 0.84474 0.0
H1231 H 0.98398 0.64136 0.82144 0.0
Li1232 Li 0.31034 0.48517 0.77408 0.0
Li1233 Li 0.38375 0.52061 0.77348 0.0
Li1234 Li 0.34206 0.47066 0.7464 0.0
Li1235 Li 0.3455 0.45116 0.78032 0.0
C1236 C 0.33123 0.54474 0.74949 0.0
N1237 N 0.29781 0.59024 0.74315 0.0
C1238 C 0.34694 0.58136 0.75883 0.0
C1239 C 0.29868 0.53136 0.73681 0.0
C1240 C 0.32962 0.60392 0.75543 0.0
C1241 C 0.28213 0.55475 0.73385 0.0
C1242 C 0.35585 0.49136 0.8159 0.0
C1243 C 0.39832 0.48765 0.84078 0.0
N1244 N 0.37131 0.48047 0.85551 0.0
C1245 C 0.32857 0.48412 0.83128 0.0
C1246 C 0.39108 0.49332 0.82066 0.0
C1247 C 0.33692 0.47864 0.85122 0.0
C1248 C 0.23164 0.469 0.77328 0.0
N1249 N 0.26797 0.49231 0.7811 0.0
C1250 C 0.24859 0.53502 0.79568 0.0
C1251 C 0.27654 0.52414 0.79262 0.0
C1252 C 0.21134 0.51275 0.78688 0.0
C1253 C 0.2027 0.47879 0.77595 0.0
H1254 H 0.22552 0.44365 0.76435 0.0
H1255 H 0.30578 0.54219 0.79856 0.0
C1256 C 0.44704 0.59133 0.76104 0.0
N1257 N 0.42706 0.57086 0.77777 0.0
C1258 C 0.47049 0.63195 0.76204 0.0
C1259 C 0.4547 0.62901 0.79784 0.0
C1260 C 0.4314 0.58851 0.79612 0.0
C1261 C 0.47298 0.65138 0.78041 0.0
H1262 H 0.44199 0.5765 0.74654 0.0
H1263 H 0.41429 0.57169 0.80903 0.0
C1264 C 0.27567 0.40155 0.75207 0.0
N1265 N 0.23063 0.33656 0.72811 0.0
C1266 C 0.27769 0.36766 0.75458 0.0
C1267 C 0.25074 0.40238 0.73736 0.0
C1268 C 0.25465 0.3351 0.74233 0.0
C1269 C 0.22824 0.36924 0.72539 0.0
C1270 C 0.41162 0.46071 0.76081 0.0
C1271 C 0.39948 0.4264 0.74966 0.0
C1272 C 0.44668 0.47737 0.77166 0.0
C1273 C 0.42253 0.40903 0.7497 0.0
C1274 C 0.46887 0.45908 0.77134 0.0
N1275 N 0.45644 0.42558 0.76046 0.0
C1276 C 0.34854 0.49359 0.70626 0.0
C1277 C 0.32728 0.42622 0.70903 0.0
C1278 C 0.34371 0.4902 0.68524 0.0
N1279 N 0.33931 0.46169 0.71776 0.0
C1280 C 0.32169 0.42138 0.68798 0.0
C1281 C 0.32913 0.45354 0.67587 0.0
H1282 H 0.35909 0.5217 0.71345 0.0
H1283 H 0.32084 0.40135 0.71836 0.0
C1284 C 0.30711 0.39862 0.80894 0.0
N1285 N 0.33982 0.41041 0.79762 0.0
C1286 C 0.29514 0.36852 0.82283 0.0
C1287 C 0.34977 0.36138 0.81266 0.0
C1288 C 0.36168 0.39302 0.7994 0.0
C1289 C 0.31565 0.34837 0.82442 0.0
H1290 H 0.29021 0.41285 0.80711 0.0
H1291 H 0.38778 0.40292 0.79042 0.0
O1292 O 0.34704 0.52168 0.75308 0.0
O1293 O 0.34781 0.49591 0.79622 0.0
O1294 O 0.29766 0.43359 0.76407 0.0
O1295 O 0.39002 0.47868 0.76057 0.0
H1296 H 0.37191 0.5921 0.76881 0.0
H1297 H 0.28604 0.50299 0.72955 0.0
H1298 H 0.34135 0.63221 0.76266 0.0
H1299 H 0.25675 0.54464 0.72422 0.0
H1300 H 0.42538 0.48889 0.84467 0.0
H1301 H 0.30113 0.48244 0.8278 0.0
H1302 H 0.41242 0.49883 0.8089 0.0
H1303 H 0.31602 0.47284 0.86327 0.0
H1304 H 0.25687 0.56182 0.80389 0.0
H1305 H 0.17428 0.46064 0.76908 0.0
H1306 H 0.4836 0.64804 0.74817 0.0
H1307 H 0.45618 0.64283 0.81232 0.0
H1308 H 0.2969 0.36646 0.76578 0.0
H1309 H 0.2493 0.42855 0.73494 0.0
H1310 H 0.25594 0.3087 0.7441 0.0
H1311 H 0.20902 0.36956 0.71387 0.0
H1312 H 0.37243 0.41318 0.74121 0.0
H1313 H 0.4567 0.50423 0.78015 0.0
H1314 H 0.41342 0.38237 0.74121 0.0
H1315 H 0.49603 0.47156 0.7797 0.0
H1316 H 0.3511 0.51608 0.67645 0.0
H1317 H 0.31053 0.3926 0.6814 0.0
H1318 H 0.26966 0.36104 0.83207 0.0
H1319 H 0.36657 0.34683 0.81328 0.0
Li1320 Li 0.55042 0.87412 0.54728 0.0
Li1321 Li 0.52984 0.85518 0.58171 0.0
Li1322 Li 0.51922 0.8047 0.55443 0.0
Li1323 Li 0.4815 0.83993 0.55523 0.0
C1324 C 0.6087 0.86549 0.56405 0.0
N1325 N 0.68893 0.90096 0.56038 0.0
C1326 C 0.63301 0.90018 0.57455 0.0
C1327 C 0.62514 0.84862 0.55182 0.0
C1328 C 0.67352 0.9177 0.57248 0.0
C1329 C 0.66579 0.8671 0.5501 0.0
C1330 C 0.53364 0.92398 0.57675 0.0
C1331 C 0.52211 0.95712 0.6044 0.0
N1332 N 0.55776 0.9893 0.60102 0.0
C1333 C 0.5702 0.95739 0.57356 0.0
C1334 C 0.50936 0.92382 0.59229 0.0
C1335 C 0.58183 0.99012 0.58598 0.0
C1336 C 0.56025 0.92401 0.51844 0.0
N1337 N 0.58353 0.91455 0.52899 0.0
C1338 C 0.64004 0.96408 0.51162 0.0
C1339 C 0.62281 0.93345 0.52574 0.0
C1340 C 0.61636 0.97435 0.50043 0.0
C1341 C 0.57573 0.95267 0.50363 0.0
H1342 H 0.52918 0.9088 0.52151 0.0
H1343 H 0.64093 0.92552 0.5342 0.0
C1344 C 0.51274 0.8345 0.62226 0.0
N1345 N 0.53758 0.86506 0.61034 0.0
C1346 C 0.51162 0.83929 0.64319 0.0
C1347 C 0.56357 0.90644 0.63961 0.0
C1348 C 0.56364 0.90031 0.61863 0.0
C1349 C 0.53657 0.87588 0.65207 0.0
H1350 H 0.49312 0.80643 0.61547 0.0
H1351 H 0.58356 0.92413 0.60896 0.0
C1352 C 0.5164 0.83251 0.51217 0.0
N1353 N 0.5376 0.84197 0.47157 0.0
C1354 C 0.49367 0.83776 0.49776 0.0
C1355 C 0.54975 0.83183 0.50593 0.0
C1356 C 0.50492 0.84254 0.4773 0.0
C1357 C 0.56003 0.83673 0.48534 0.0
C1358 C 0.44362 0.78065 0.57987 0.0
C1359 C 0.42208 0.744 0.57058 0.0
C1360 C 0.42476 0.79401 0.59279 0.0
C1361 C 0.38196 0.72138 0.57432 0.0
C1362 C 0.38455 0.77054 0.59609 0.0
N1363 N 0.36416 0.73502 0.58686 0.0
C1364 C 0.5097 0.73303 0.56623 0.0
C1365 C 0.49737 0.73703 0.53128 0.0
C1366 C 0.49138 0.69238 0.56491 0.0
N1367 N 0.51103 0.75416 0.54972 0.0
C1368 C 0.47904 0.69653 0.52925 0.0
C1369 C 0.4742 0.67356 0.54644 0.0
H1370 H 0.5197 0.7474 0.58082 0.0
H1371 H 0.49769 0.75428 0.51856 0.0
C1372 C 0.41977 0.85627 0.55829 0.0
N1373 N 0.43158 0.83286 0.54955 0.0
C1374 C 0.38064 0.84622 0.55724 0.0
C1375 C 0.36743 0.78983 0.53695 0.0
C1376 C 0.40674 0.80094 0.53843 0.0
C1377 C 0.3537 0.81195 0.54697 0.0
H1378 H 0.44028 0.8817 0.56685 0.0
H1379 H 0.41703 0.78283 0.53173 0.0
O1380 O 0.56906 0.84731 0.56633 0.0
O1381 O 0.52155 0.89174 0.56464 0.0
O1382 O 0.50638 0.82877 0.53233 0.0
O1383 O 0.48274 0.80382 0.57589 0.0
H1384 H 0.62073 0.91353 0.58409 0.0
H1385 H 0.6067 0.8214 0.54387 0.0
H1386 H 0.6927 0.94464 0.58046 0.0
H1387 H 0.67894 0.85444 0.54065 0.0
H1388 H 0.50374 0.95729 0.61657 0.0
H1389 H 0.58951 0.95807 0.56172 0.0
H1390 H 0.48132 0.89801 0.59525 0.0
H1391 H 0.61005 0.01614 0.5837 0.0
H1392 H 0.6715 0.9799 0.50989 0.0
H1393 H 0.55562 0.95769 0.49495 0.0
H1394 H 0.49123 0.81456 0.65233 0.0
H1395 H 0.58351 0.93503 0.6459 0.0
H1396 H 0.46783 0.83849 0.50238 0.0
H1397 H 0.56764 0.82786 0.51692 0.0
H1398 H 0.48773 0.84682 0.46599 0.0
H1399 H 0.58588 0.83646 0.48031 0.0
H1400 H 0.43597 0.73329 0.56036 0.0
H1401 H 0.44092 0.82247 0.59994 0.0
H1402 H 0.36497 0.69313 0.5671 0.0
H1403 H 0.36952 0.78066 0.60591 0.0
H1404 H 0.48781 0.6758 0.57861 0.0
H1405 H 0.46652 0.68319 0.51471 0.0
H1406 H 0.37129 0.86423 0.565 0.0
H1407 H 0.34763 0.76283 0.52915 0.0
Li1408 Li 0.14578 0.63603 0.56175 0.0
Li1409 Li 0.18101 0.70934 0.56056 0.0
Li1410 Li 0.1334 0.66995 0.58911 0.0
Li1411 Li 0.11098 0.67002 0.55541 0.0
C1412 C 0.20708 0.65857 0.58468 0.0
N1413 N 0.25206 0.62418 0.58961 0.0
C1414 C 0.24242 0.673 0.57415 0.0
C1415 C 0.19476 0.62683 0.59784 0.0
C1416 C 0.26469 0.65517 0.57682 0.0
C1417 C 0.21788 0.6098 0.60009 0.0
C1418 C 0.14772 0.67611 0.51906 0.0
C1419 C 0.14037 0.714 0.49273 0.0
N1420 N 0.13201 0.68483 0.47914 0.0
C1421 C 0.13926 0.64658 0.50484 0.0
C1422 C 0.14848 0.71017 0.51298 0.0
C1423 C 0.13134 0.65153 0.48472 0.0
C1424 C 0.12955 0.55751 0.56361 0.0
N1425 N 0.15216 0.59318 0.55495 0.0
C1426 C 0.193 0.57239 0.53945 0.0
C1427 C 0.18258 0.60067 0.54253 0.0
C1428 C 0.17167 0.53594 0.54916 0.0
C1429 C 0.13888 0.52826 0.56092 0.0
H1430 H 0.10525 0.55225 0.57322 0.0
H1431 H 0.20002 0.62939 0.53589 0.0
C1432 C 0.25396 0.77305 0.57032 0.0
N1433 N 0.23099 0.75196 0.55446 0.0
C1434 C 0.2944 0.79578 0.56776 0.0
C1435 C 0.28619 0.77687 0.53226 0.0
C1436 C 0.24598 0.75439 0.53552 0.0
C1437 C 0.31106 0.79642 0.54872 0.0
H1438 H 0.24126 0.76944 0.58533 0.0
H1439 H 0.22729 0.73641 0.52333 0.0
C1440 C 0.06415 0.60347 0.58568 0.0
N1441 N 0.00137 0.56158 0.61151 0.0
C1442 C 0.03036 0.60586 0.58371 0.0
C1443 C 0.06598 0.57975 0.60079 0.0
C1444 C -0.00107 0.58442 0.5969 0.0
C1445 C 0.03396 0.55885 0.61371 0.0
C1446 C 0.12145 0.73768 0.57226 0.0
C1447 C 0.08734 0.72685 0.58336 0.0
C1448 C 0.13753 0.771 0.56002 0.0
C1449 C 0.06961 0.74946 0.58187 0.0
C1450 C 0.11887 0.79279 0.5589 0.0
N1451 N 0.08559 0.78166 0.56975 0.0
C1452 C 0.15819 0.67689 0.62919 0.0
C1453 C 0.0918 0.65971 0.62712 0.0
C1454 C 0.15553 0.67304 0.65029 0.0
N1455 N 0.12637 0.66922 0.618 0.0
C1456 C 0.08772 0.65526 0.64826 0.0
C1457 C 0.1197 0.66117 0.66009 0.0
H1458 H 0.18565 0.68543 0.62171 0.0
H1459 H 0.06699 0.65435 0.61802 0.0
C1460 C 0.05705 0.62724 0.52863 0.0
N1461 N 0.0688 0.66156 0.5384 0.0
C1462 C 0.0275 0.61339 0.51432 0.0
C1463 C 0.01998 0.66905 0.52124 0.0
C1464 C 0.05132 0.68291 0.53489 0.0
C1465 C 0.00751 0.63359 0.51075 0.0
H1466 H 0.07147 0.61089 0.53175 0.0
H1467 H 0.06126 0.71034 0.54263 0.0
O1468 O 0.18405 0.6746 0.58165 0.0
O1469 O 0.1546 0.67136 0.53894 0.0
O1470 O 0.09511 0.62394 0.57279 0.0
O1471 O 0.13985 0.71662 0.57396 0.0
H1472 H 0.25227 0.69725 0.56374 0.0
H1473 H 0.16732 0.61509 0.60598 0.0
H1474 H 0.29183 0.66579 0.56858 0.0
H1475 H 0.20855 0.58501 0.61009 0.0
H1476 H 0.14064 0.74011 0.48782 0.0
H1477 H 0.13846 0.61999 0.50935 0.0
H1478 H 0.15492 0.73323 0.52383 0.0
H1479 H 0.12454 0.62885 0.47356 0.0
H1480 H 0.21891 0.57993 0.53055 0.0
H1481 H 0.12145 0.50045 0.5685 0.0
H1482 H 0.31252 0.80985 0.58094 0.0
H1483 H 0.29787 0.77683 0.51733 0.0
H1484 H 0.02842 0.62419 0.57221 0.0
H1485 H 0.09211 0.57803 0.60276 0.0
H1486 H 0.97263 0.58603 0.59556 0.0
H1487 H 0.03508 0.54059 0.62555 0.0
H1488 H 0.07461 0.70118 0.59291 0.0
H1489 H 0.16426 0.78006 0.55158 0.0
H1490 H 0.04311 0.74136 0.5903 0.0
H1491 H 0.13092 0.81862 0.54946 0.0
H1492 H 0.18132 0.67915 0.65882 0.0
H1493 H 0.05956 0.64616 0.65515 0.0
H1494 H 0.02081 0.58702 0.50614 0.0
H1495 H 0.00556 0.68574 0.51918 0.0
Li1496 Li 0.27282 0.46439 0.55556 0.0
Li1497 Li 0.34615 0.50268 0.55628 0.0
Li1498 Li 0.31106 0.43357 0.54881 0.0
Li1499 Li 0.31215 0.4546 0.58305 0.0
C1500 C 0.30253 0.46495 0.51353 0.0
N1501 N 0.28805 0.4398 0.47357 0.0
C1502 C 0.3303 0.48578 0.49845 0.0
C1503 C 0.26732 0.43148 0.5083 0.0
C1504 C 0.32244 0.47255 0.47832 0.0
C1505 C 0.26057 0.4192 0.488 0.0
C1506 C 0.32466 0.54028 0.58107 0.0
C1507 C 0.37321 0.59876 0.59814 0.0
N1508 N 0.35945 0.61958 0.58847 0.0
C1509 C 0.31088 0.56221 0.57138 0.0
C1510 C 0.35595 0.55861 0.59464 0.0
C1511 C 0.32888 0.60226 0.57531 0.0
C1512 C 0.21074 0.47287 0.56792 0.0
N1513 N 0.23043 0.47213 0.55113 0.0
C1514 C 0.20469 0.50425 0.53145 0.0
C1515 C 0.22689 0.48616 0.53293 0.0
C1516 C 0.18668 0.50848 0.54897 0.0
C1517 C 0.18842 0.49093 0.56717 0.0
H1518 H 0.21525 0.46262 0.58231 0.0
H1519 H 0.24383 0.48632 0.51998 0.0
C1520 C 0.42481 0.56589 0.55894 0.0
N1521 N 0.38927 0.55283 0.55026 0.0
C1522 C 0.45408 0.60506 0.55703 0.0
C1523 C 0.41028 0.61572 0.53619 0.0
C1524 C 0.38194 0.57644 0.53852 0.0
C1525 C 0.44658 0.63075 0.54597 0.0
H1526 H 0.42999 0.54636 0.56798 0.0
H1527 H 0.35329 0.56518 0.53187 0.0
C1528 C 0.2444 0.3751 0.5669 0.0
N1529 N 0.20153 0.29441 0.56605 0.0
C1530 C 0.25686 0.35345 0.57797 0.0
C1531 C 0.21003 0.35579 0.55551 0.0
C1532 C 0.23479 0.31265 0.57733 0.0
C1533 C 0.18881 0.31495 0.55522 0.0
C1534 C 0.37886 0.45279 0.57818 0.0
C1535 C 0.37686 0.41691 0.57519 0.0
C1536 C 0.40297 0.4781 0.59345 0.0
C1537 C 0.39912 0.40701 0.58751 0.0
C1538 C 0.42471 0.46709 0.60547 0.0
N1539 N 0.42237 0.43208 0.60227 0.0
C1540 C 0.35189 0.42245 0.52067 0.0
C1541 C 0.29772 0.36035 0.5288 0.0
C1542 C 0.36594 0.40582 0.50702 0.0
N1543 N 0.31843 0.39987 0.5312 0.0
C1544 C 0.3117 0.3421 0.51576 0.0
C1545 C 0.34673 0.36498 0.50489 0.0
H1546 H 0.36791 0.45375 0.52304 0.0
H1547 H 0.27108 0.34282 0.53722 0.0
C1548 C 0.3022 0.46891 0.62311 0.0
N1549 N 0.31283 0.44721 0.61168 0.0
C1550 C 0.30618 0.47034 0.64417 0.0
C1551 C 0.32996 0.42522 0.64161 0.0
C1552 C 0.32516 0.42441 0.62052 0.0
C1553 C 0.32138 0.44927 0.65366 0.0
H1554 H 0.29143 0.48594 0.61581 0.0
H1555 H 0.33267 0.40667 0.61124 0.0
O1556 O 0.31011 0.47691 0.53338 0.0
O1557 O 0.30839 0.50129 0.57684 0.0
O1558 O 0.26503 0.415 0.56773 0.0
O1559 O 0.35765 0.46323 0.56611 0.0
H1560 H 0.35774 0.5117 0.5023 0.0
H1561 H 0.24562 0.41506 0.51983 0.0
H1562 H 0.34371 0.48826 0.46649 0.0
H1563 H 0.23353 0.39325 0.48374 0.0
H1564 H 0.39765 0.6134 0.60847 0.0
H1565 H 0.28697 0.54865 0.56068 0.0
H1566 H 0.36713 0.54209 0.60216 0.0
H1567 H 0.31871 0.61959 0.56776 0.0
H1568 H 0.2038 0.51708 0.5171 0.0
H1569 H 0.1756 0.49405 0.58111 0.0
H1570 H 0.48178 0.6154 0.56463 0.0
H1571 H 0.40291 0.63453 0.52781 0.0
H1572 H 0.2834 0.36798 0.58683 0.0
H1573 H 0.19976 0.37219 0.54706 0.0
H1574 H 0.24415 0.2955 0.58575 0.0
H1575 H 0.16218 0.29958 0.54644 0.0
H1576 H 0.35826 0.39681 0.56355 0.0
H1577 H 0.4043 0.50561 0.59628 0.0
H1578 H 0.39784 0.37935 0.58537 0.0
H1579 H 0.44328 0.48628 0.61742 0.0
H1580 H 0.39206 0.42509 0.49845 0.0
H1581 H 0.29584 0.31053 0.51469 0.0
H1582 H 0.29793 0.48826 0.6529 0.0
H1583 H 0.34161 0.40835 0.64828 0.0
loop_
_geom_bond_atom_site_label_1
_geom_bond_atom_site_label_2
_geom_bond_distance
_geom_bond_site_symmetry_2
_ccdc_geom_bond_type
Li0 N17 1.990 . S
Li0 O60 1.956 . S
Li0 O61 1.970 . S
Li0 O62 1.961 . S
Li1 N25 1.990 . S
Li1 O60 1.970 . S
Li1 O61 1.956 . S
Li1 O63 1.961 . S
Li2 N47 1.990 . S
Li2 O60 1.961 . S
Li2 O62 1.956 . S
Li2 O63 1.970 . S
Li3 N53 1.990 . S
Li3 O61 1.961 . S
Li3 O62 1.970 . S
Li3 O63 1.956 . S
C4 C6 1.348 . S
C4 C7 1.356 . S
C4 O60 1.325 . S
N5 C8 1.314 . S
N5 C9 1.279 . S
C6 C4 1.348 . S
C6 C8 1.353 . S
C6 H64 0.929 . S
C7 C4 1.356 . S
C7 C9 1.358 . S
C7 H65 0.930 . S
C8 N5 1.314 . S
C8 C6 1.353 . S
C8 H66 0.930 . S
C9 N5 1.279 . S
C9 C7 1.358 . S
C9 H67 0.930 . S
C10 C13 1.348 . S
C10 C14 1.356 . S
C10 O61 1.325 . S
C11 N12 1.279 . S
C11 C14 1.358 . S
C11 H68 0.930 . S
N12 C11 1.279 . S
N12 C15 1.314 . S
C13 C10 1.348 . S
C13 C15 1.353 . S
C13 H69 0.929 . S
C14 C10 1.356 . S
C14 C11 1.358 . S
C14 H70 0.930 . S
C15 N12 1.314 . S
C15 C13 1.353 . S
C15 H71 0.930 . S
C16 N17 1.314 . S
C16 C21 1.353 . S
C16 H22 0.930 . S
N17 Li0 1.990 . S
N17 C16 1.314 . S
N17 C19 1.279 . S
C18 C19 1.358 . S
C18 C20 1.356 . S
C18 H72 0.930 . S
C19 N17 1.279 . S
C19 C18 1.358 . S
C19 H23 0.930 . S
C20 C18 1.356 . S
C20 C21 1.348 . S
C21 C16 1.353 . S
C21 C20 1.348 . S
C21 H73 0.929 . S
H22 C16 0.930 . S
H23 C19 0.930 . S
C24 N25 1.314 . S
C24 C26 1.353 . S
C24 H30 0.930 . S
N25 Li1 1.990 . S
N25 C24 1.314 . S
N25 C28 1.279 . S
C26 C24 1.353 . S
C26 C29 1.348 . S
C26 H74 0.929 . S
C27 C28 1.358 . S
C27 C29 1.356 . S
C27 H75 0.930 . S
C28 N25 1.279 . S
C28 C27 1.358 . S
C28 H31 0.930 . S
C29 C26 1.348 . S
C29 C27 1.356 . S
H30 C24 0.930 . S
H31 C28 0.930 . S
C32 C34 1.348 . S
C32 C35 1.356 . S
C32 O62 1.325 . S
N33 C36 1.314 . S
N33 C37 1.279 . S
C34 C32 1.348 . S
C34 C36 1.353 . S
C34 H76 0.929 . S
C35 C32 1.356 . S
C35 C37 1.358 . S
C35 H77 0.930 . S
C36 N33 1.314 . S
C36 C34 1.353 . S
C36 H78 0.930 . S
C37 N33 1.279 . S
C37 C35 1.358 . S
C37 H79 0.930 . S
C38 C39 1.348 . S
C38 C40 1.356 . S
C38 O63 1.325 . S
C39 C38 1.348 . S
C39 C41 1.353 . S
C39 H80 0.929 . S
C40 C38 1.356 . S
C40 C42 1.358 . S
C40 H81 0.930 . S
C41 C39 1.353 . S
C41 N43 1.314 . S
C41 H82 0.930 . S
C42 C40 1.358 . S
C42 N43 1.279 . S
C42 H83 0.930 . S
N43 C41 1.314 . S
N43 C42 1.279 . S
C44 C46 1.353 . S
C44 N47 1.314 . S
C44 H50 0.930 . S
C45 N47 1.279 . S
C45 C48 1.358 . S
C45 H51 0.930 . S
C46 C44 1.353 . S
C46 C49 1.348 . S
C46 H84 0.929 . S
N47 Li2 1.990 . S
N47 C44 1.314 . S
N47 C45 1.279 . S
C48 C45 1.358 . S
C48 C49 1.356 . S
C48 H85 0.930 . S
C49 C46 1.348 . S
C49 C48 1.356 . S
H50 C44 0.930 . S
H51 C45 0.930 . S
C52 N53 1.314 . S
C52 C54 1.353 . S
C52 H58 0.930 . S
N53 Li3 1.990 . S
N53 C52 1.314 . S
N53 C56 1.279 . S
C54 C52 1.353 . S
C54 C57 1.348 . S
C54 H86 0.929 . S
C55 C56 1.358 . S
C55 C57 1.356 . S
C55 H87 0.930 . S
C56 N53 1.279 . S
C56 C55 1.358 . S
C56 H59 0.930 . S
C57 C54 1.348 . S
C57 C55 1.356 . S
H58 C52 0.930 . S
H59 C56 0.930 . S
O60 Li0 1.956 . S
O60 Li1 1.970 . S
O60 Li2 1.961 . S
O60 C4 1.325 . S
O61 Li0 1.970 . S
O61 Li1 1.956 . S
O61 Li3 1.961 . S
O61 C10 1.325 . S
O62 Li0 1.961 . S
O62 Li2 1.956 . S
O62 Li3 1.970 . S
O62 C32 1.325 . S
O63 Li1 1.961 . S
O63 Li2 1.970 . S
O63 Li3 1.956 . S
O63 C38 1.325 . S
H64 C6 0.929 . S
H65 C7 0.930 . S
H66 C8 0.930 . S
H67 C9 0.930 . S
H68 C11 0.930 . S
H69 C13 0.929 . S
H70 C14 0.930 . S
H71 C15 0.930 . S
H72 C18 0.930 . S
H73 C21 0.929 . S
H74 C26 0.929 . S
H75 C27 0.930 . S
H76 C34 0.929 . S
H77 C35 0.930 . S
H78 C36 0.930 . S
H79 C37 0.930 . S
H80 C39 0.929 . S
H81 C40 0.930 . S
H82 C41 0.930 . S
H83 C42 0.930 . S
H84 C46 0.929 . S
H85 C48 0.930 . S
H86 C54 0.929 . S
H87 C55 0.930 . S
Li88 N105 1.990 . S
Li88 O148 1.956 1_545 S
Li88 O149 1.970 . S
Li88 O150 1.961 . S
Li89 N113 1.990 . S
Li89 O148 1.970 . S
Li89 O149 1.956 1_565 S
Li89 O151 1.961 . S
Li90 N135 1.991 . S
Li90 O148 1.971 . S
Li90 O150 1.944 1_565 S
Li90 O151 1.977 . S
Li91 N141 1.990 . S
Li91 O149 1.961 . S
Li91 O150 1.970 . S
Li91 O151 1.956 1_545 S
C92 C94 1.348 . S
C92 C95 1.356 1_565 S
C92 O148 1.325 . S
N93 C96 1.314 . S
N93 C97 1.279 1_565 S
C94 C92 1.348 . S
C94 C96 1.353 . S
C94 H152 0.929 . S
C95 C92 1.356 1_545 S
C95 C97 1.358 . S
C95 H153 0.930 . S
C96 N93 1.314 . S
C96 C94 1.353 . S
C96 H154 0.930 . S
C97 N93 1.279 1_545 S
C97 C95 1.358 . S
C97 H155 0.930 . S
C98 C101 1.348 . S
C98 C102 1.356 1_545 S
C98 O149 1.325 . S
C99 N100 1.279 1_565 S
C99 C102 1.358 . S
C99 H156 0.930 . S
N100 C99 1.279 1_545 S
N100 C103 1.314 . S
C101 C98 1.348 . S
C101 C103 1.353 . S
C101 H157 0.929 . S
C102 C98 1.356 1_565 S
C102 C99 1.358 . S
C102 H158 0.930 . S
C103 N100 1.314 . S
C103 C101 1.353 . S
C103 H159 0.930 . S
C104 N105 1.314 . S
C104 C109 1.353 . S
C104 H110 0.930 . S
N105 Li88 1.990 . S
N105 C104 1.314 . S
N105 C107 1.279 . S
C106 C107 1.358 . S
C106 C108 1.356 . S
C106 H160 0.930 1_655 S
C107 N105 1.279 . S
C107 C106 1.358 . S
C107 H111 0.930 . S
C108 C106 1.356 . S
C108 C109 1.348 . S
C109 C104 1.353 . S
C109 C108 1.348 . S
C109 H161 0.929 . S
H110 C104 0.930 . S
H111 C107 0.930 . S
C112 N113 1.314 . S
C112 C114 1.353 . S
C112 H118 0.930 . S
N113 Li89 1.990 . S
N113 C112 1.314 . S
N113 C116 1.279 . S
C114 C112 1.353 . S
C114 C117 1.348 . S
C114 H162 0.929 . S
C115 C116 1.358 . S
C115 C117 1.356 . S
C115 H163 0.930 . S
C116 N113 1.279 . S
C116 C115 1.358 . S
C116 H119 0.930 . S
C117 C114 1.348 . S
C117 C115 1.356 . S
H118 C112 0.930 . S
H119 C116 0.930 . S
C120 C122 1.348 . S
C120 C123 1.356 . S
C120 O150 1.325 . S
N121 C124 1.314 . S
N121 C125 1.279 . S
C122 C120 1.348 . S
C122 C124 1.353 . S
C122 H164 0.929 . S
C123 C120 1.356 . S
C123 C125 1.358 . S
C123 H165 0.930 . S
C124 N121 1.314 . S
C124 C122 1.353 . S
C124 H166 0.930 . S
C125 N121 1.279 . S
C125 C123 1.358 . S
C125 H167 0.930 . S
C126 C127 1.348 . S
C126 C128 1.356 . S
C126 O151 1.325 . S
C127 C126 1.348 . S
C127 C129 1.353 . S
C127 H168 0.929 . S
C128 C126 1.356 . S
C128 C130 1.358 . S
C128 H169 0.930 . S
C129 C127 1.353 . S
C129 N131 1.314 . S
C129 H170 0.930 . S
C130 C128 1.358 . S
C130 N131 1.279 . S
C130 H171 0.930 . S
N131 C129 1.314 . S
N131 C130 1.279 . S
C132 C134 1.353 . S
C132 N135 1.330 . S
C132 H138 0.930 . S
C133 N135 1.262 1_545 S
C133 C136 1.358 . S
C133 H139 0.930 . S
C134 C132 1.353 . S
C134 C137 1.348 . S
C134 H172 0.929 . S
N135 Li90 1.991 . S
N135 C132 1.330 . S
N135 C133 1.262 1_565 S
C136 C133 1.358 . S
C136 C137 1.356 1_545 S
C136 H173 0.930 . S
C137 C134 1.348 . S
C137 C136 1.356 1_565 S
H138 C132 0.930 . S
H139 C133 0.930 . S
C140 N141 1.314 . S
C140 C142 1.353 . S
C140 H146 0.930 . S
N141 Li91 1.990 . S
N141 C140 1.314 . S
N141 C144 1.279 1_545 S
C142 C140 1.353 . S
C142 C145 1.348 . S
C142 H174 0.929 . S
C143 C144 1.374 . S
C143 C145 1.339 1_565 S
C143 H175 0.932 . S
C144 N141 1.279 1_565 S
C144 C143 1.374 . S
C144 H147 0.930 . S
C145 C142 1.348 . S
C145 C143 1.339 1_545 S
H146 C140 0.930 . S
H147 C144 0.930 . S
O148 Li88 1.956 1_565 S
O148 Li89 1.970 . S
O148 Li90 1.971 . S
O148 C92 1.325 . S
O149 Li88 1.970 . S
O149 Li89 1.956 1_545 S
O149 Li91 1.961 . S
O149 C98 1.325 . S
O150 Li88 1.961 . S
O150 Li90 1.944 1_545 S
O150 Li91 1.970 . S
O150 C120 1.325 . S
O151 Li89 1.961 . S
O151 Li90 1.977 . S
O151 Li91 1.956 1_565 S
O151 C126 1.325 . S
H152 C94 0.929 . S
H153 C95 0.930 . S
H154 C96 0.930 . S
H155 C97 0.930 . S
H156 C99 0.930 . S
H157 C101 0.929 . S
H158 C102 0.930 . S
H159 C103 0.930 . S
H160 C106 0.930 1_455 S
H161 C109 0.929 . S
H162 C114 0.929 . S
H163 C115 0.930 . S
H164 C122 0.929 . S
H165 C123 0.930 . S
H166 C124 0.930 . S
H167 C125 0.930 . S
H168 C127 0.929 . S
H169 C128 0.930 . S
H170 C129 0.930 . S
H171 C130 0.930 . S
H172 C134 0.929 . S
H173 C136 0.930 . S
H174 C142 0.929 . S
H175 C143 0.932 . S
Li176 N193 1.990 . S
Li176 O236 1.956 1_655 S
Li176 O237 1.970 . S
Li176 O238 1.961 . S
Li177 N201 1.990 . S
Li177 O236 1.970 . S
Li177 O237 1.956 1_455 S
Li177 O239 1.961 . S
Li178 N223 1.990 . S
Li178 O236 1.956 . S
Li178 O238 1.948 1_455 S
Li178 O239 1.980 . S
Li179 N229 1.990 . S
Li179 O237 1.961 . S
Li179 O238 1.970 . S
Li179 O239 1.956 1_655 S
C180 C182 1.348 . S
C180 C183 1.356 1_455 S
C180 O236 1.325 . S
N181 C184 1.314 . S
N181 C185 1.279 1_455 S
C182 C180 1.348 . S
C182 C184 1.353 . S
C182 H240 0.929 . S
C183 C180 1.356 1_655 S
C183 C185 1.358 . S
C183 H241 0.930 . S
C184 N181 1.314 . S
C184 C182 1.353 . S
C184 H242 0.930 . S
C185 N181 1.279 1_655 S
C185 C183 1.358 . S
C185 H243 0.930 . S
C186 C189 1.348 . S
C186 C190 1.356 1_655 S
C186 O237 1.325 . S
C187 N188 1.279 1_455 S
C187 C190 1.358 . S
C187 H244 0.930 . S
N188 C187 1.279 1_655 S
N188 C191 1.314 . S
C189 C186 1.348 . S
C189 C191 1.353 . S
C189 H245 0.929 . S
C190 C186 1.356 1_455 S
C190 C187 1.358 . S
C190 H246 0.930 . S
C191 N188 1.314 . S
C191 C189 1.353 . S
C191 H247 0.930 . S
C192 N193 1.314 . S
C192 C197 1.353 . S
C192 H198 0.930 . S
N193 Li176 1.990 . S
N193 C192 1.314 . S
N193 C195 1.279 . S
C194 C195 1.358 . S
C194 C196 1.356 . S
C194 H248 0.930 . S
C195 N193 1.279 . S
C195 C194 1.358 . S
C195 H199 0.930 . S
C196 C194 1.356 . S
C196 C197 1.348 . S
C197 C192 1.353 . S
C197 C196 1.348 . S
C197 H249 0.929 . S
H198 C192 0.930 . S
H199 C195 0.930 . S
C200 N201 1.314 . S
C200 C202 1.353 . S
C200 H206 0.930 . S
N201 Li177 1.990 . S
N201 C200 1.314 . S
N201 C204 1.279 . S
C202 C200 1.353 . S
C202 C205 1.348 . S
C202 H250 0.929 . S
C203 C204 1.358 . S
C203 C205 1.356 . S
C203 H251 0.930 . S
C204 N201 1.279 . S
C204 C203 1.358 . S
C204 H207 0.930 . S
C205 C202 1.348 . S
C205 C203 1.356 . S
H206 C200 0.930 . S
H207 C204 0.930 . S
C208 C210 1.348 . S
C208 C211 1.356 . S
C208 O238 1.325 . S
N209 C212 1.314 . S
N209 C213 1.279 . S
C210 C208 1.348 . S
C210 C212 1.353 . S
C210 H252 0.929 . S
C211 C208 1.356 . S
C211 C213 1.358 . S
C211 H253 0.930 . S
C212 N209 1.314 . S
C212 C210 1.353 . S
C212 H254 0.930 . S
C213 N209 1.279 . S
C213 C211 1.358 . S
C213 H255 0.930 . S
C214 C215 1.348 . S
C214 C216 1.356 . S
C214 O239 1.325 . S
C215 C214 1.348 . S
C215 C217 1.353 . S
C215 H256 0.929 . S
C216 C214 1.356 . S
C216 C218 1.358 . S
C216 H257 0.930 . S
C217 C215 1.353 . S
C217 N219 1.314 . S
C217 H258 0.930 . S
C218 C216 1.358 . S
C218 N219 1.279 . S
C218 H259 0.930 . S
N219 C217 1.314 . S
N219 C218 1.279 . S
C220 C222 1.353 . S
C220 N223 1.321 . S
C220 H226 0.930 . S
C221 N223 1.277 1_655 S
C221 C224 1.358 . S
C221 H227 0.930 . S
C222 C220 1.353 . S
C222 C225 1.348 . S
C222 H260 0.929 . S
N223 Li178 1.990 . S
N223 C220 1.321 . S
N223 C221 1.277 1_455 S
C224 C221 1.358 . S
C224 C225 1.356 1_655 S
C224 H261 0.930 . S
C225 C222 1.348 . S
C225 C224 1.356 1_455 S
H226 C220 0.930 . S
H227 C221 0.930 . S
C228 N229 1.314 . S
C228 C230 1.353 . S
C228 H234 0.930 . S
N229 Li179 1.990 . S
N229 C228 1.314 . S
N229 C232 1.279 1_655 S
C230 C228 1.353 . S
C230 C233 1.348 . S
C230 H262 0.929 . S
C231 C232 1.363 1_655 S
C231 C233 1.367 . S
C231 H263 0.914 1_655 S
C232 N229 1.279 1_455 S
C232 C231 1.363 1_455 S
C232 H235 0.930 . S
C233 C230 1.348 . S
C233 C231 1.367 . S
H234 C228 0.930 . S
H235 C232 0.930 . S
O236 Li176 1.956 1_455 S
O236 Li177 1.970 . S
O236 Li178 1.956 . S
O236 C180 1.325 . S
O237 Li176 1.970 . S
O237 Li177 1.956 1_655 S
O237 Li179 1.961 . S
O237 C186 1.325 . S
O238 Li176 1.961 . S
O238 Li178 1.948 1_655 S
O238 Li179 1.970 . S
O238 C208 1.325 . S
O239 Li177 1.961 . S
O239 Li178 1.980 . S
O239 Li179 1.956 1_455 S
O239 C214 1.325 . S
H240 C182 0.929 . S
H241 C183 0.930 . S
H242 C184 0.930 . S
H243 C185 0.930 . S
H244 C187 0.930 . S
H245 C189 0.929 . S
H246 C190 0.930 . S
H247 C191 0.930 . S
H248 C194 0.930 . S
H249 C197 0.929 . S
H250 C202 0.929 . S
H251 C203 0.930 . S
H252 C210 0.929 . S
H253 C211 0.930 . S
H254 C212 0.930 . S
H255 C213 0.930 . S
H256 C215 0.929 . S
H257 C216 0.930 . S
H258 C217 0.930 . S
H259 C218 0.930 . S
H260 C222 0.929 . S
H261 C224 0.930 . S
H262 C230 0.929 . S
H263 C231 0.914 1_455 S
Li264 N281 1.990 . S
Li264 O324 1.956 . S
Li264 O325 1.970 . S
Li264 O326 1.961 . S
Li265 N289 1.990 . S
Li265 O324 1.970 . S
Li265 O325 1.956 . S
Li265 O327 1.961 . S
Li266 N311 1.990 . S
Li266 O324 1.961 . S
Li266 O326 1.956 . S
Li266 O327 1.970 . S
Li267 N317 1.990 . S
Li267 O325 1.961 . S
Li267 O326 1.970 . S
Li267 O327 1.956 . S
C268 C270 1.348 . S
C268 C271 1.356 . S
C268 O324 1.325 . S
N269 C272 1.314 . S
N269 C273 1.279 . S
C270 C268 1.348 . S
C270 C272 1.353 . S
C270 H328 0.929 . S
C271 C268 1.356 . S
C271 C273 1.358 . S
C271 H329 0.930 . S
C272 N269 1.314 . S
C272 C270 1.353 . S
C272 H330 0.930 . S
C273 N269 1.279 . S
C273 C271 1.358 . S
C273 H331 0.930 . S
C274 C277 1.348 . S
C274 C278 1.356 . S
C274 O325 1.325 . S
C275 N276 1.279 . S
C275 C278 1.358 . S
C275 H332 0.930 . S
N276 C275 1.279 . S
N276 C279 1.314 . S
C277 C274 1.348 . S
C277 C279 1.353 . S
C277 H333 0.929 . S
C278 C274 1.356 . S
C278 C275 1.358 . S
C278 H334 0.930 . S
C279 N276 1.314 . S
C279 C277 1.353 . S
C279 H335 0.930 . S
C280 N281 1.314 . S
C280 C285 1.353 . S
C280 H286 0.930 . S
N281 Li264 1.990 . S
N281 C280 1.314 . S
N281 C283 1.279 . S
C282 C283 1.358 . S
C282 C284 1.356 . S
C282 H336 0.930 . S
C283 N281 1.279 . S
C283 C282 1.358 . S
C283 H287 0.930 . S
C284 C282 1.356 . S
C284 C285 1.348 . S
C285 C280 1.353 . S
C285 C284 1.348 . S
C285 H337 0.929 . S
H286 C280 0.930 . S
H287 C283 0.930 . S
C288 N289 1.314 . S
C288 C290 1.353 . S
C288 H294 0.930 . S
N289 Li265 1.990 . S
N289 C288 1.314 . S
N289 C292 1.279 . S
C290 C288 1.353 . S
C290 C293 1.348 . S
C290 H338 0.929 . S
C291 C292 1.358 . S
C291 C293 1.356 . S
C291 H339 0.930 . S
C292 N289 1.279 . S
C292 C291 1.358 . S
C292 H295 0.930 . S
C293 C290 1.348 . S
C293 C291 1.356 . S
H294 C288 0.930 . S
H295 C292 0.930 . S
C296 C298 1.348 . S
C296 C299 1.356 . S
C296 O326 1.325 . S
N297 C300 1.314 . S
N297 C301 1.279 . S
C298 C296 1.348 . S
C298 C300 1.353 . S
C298 H340 0.929 . S
C299 C296 1.356 . S
C299 C301 1.358 . S
C299 H341 0.930 . S
C300 N297 1.314 . S
C300 C298 1.353 . S
C300 H342 0.930 . S
C301 N297 1.279 . S
C301 C299 1.358 . S
C301 H343 0.930 . S
C302 C303 1.348 . S
C302 C304 1.356 . S
C302 O327 1.325 . S
C303 C302 1.348 . S
C303 C305 1.353 . S
C303 H344 0.929 . S
C304 C302 1.356 . S
C304 C306 1.358 . S
C304 H345 0.930 . S
C305 C303 1.353 . S
C305 N307 1.314 . S
C305 H346 0.930 . S
C306 C304 1.358 . S
C306 N307 1.279 . S
C306 H347 0.930 . S
N307 C305 1.314 . S
N307 C306 1.279 . S
C308 C310 1.353 . S
C308 N311 1.314 . S
C308 H314 0.930 . S
C309 N311 1.279 . S
C309 C312 1.358 . S
C309 H315 0.930 . S
C310 C308 1.353 . S
C310 C313 1.348 . S
C310 H348 0.929 . S
N311 Li266 1.990 . S
N311 C308 1.314 . S
N311 C309 1.279 . S
C312 C309 1.358 . S
C312 C313 1.356 . S
C312 H349 0.930 . S
C313 C310 1.348 . S
C313 C312 1.356 . S
H314 C308 0.930 . S
H315 C309 0.930 . S
C316 N317 1.314 . S
C316 C318 1.353 . S
C316 H322 0.930 . S
N317 Li267 1.990 . S
N317 C316 1.314 . S
N317 C320 1.279 . S
C318 C316 1.353 . S
C318 C321 1.348 . S
C318 H350 0.929 . S
C319 C320 1.358 . S
C319 C321 1.356 . S
C319 H351 0.930 . S
C320 N317 1.279 . S
C320 C319 1.358 . S
C320 H323 0.930 . S
C321 C318 1.348 . S
C321 C319 1.356 . S
H322 C316 0.930 . S
H323 C320 0.930 . S
O324 Li264 1.956 . S
O324 Li265 1.970 . S
O324 Li266 1.961 . S
O324 C268 1.325 . S
O325 Li264 1.970 . S
O325 Li265 1.956 . S
O325 Li267 1.961 . S
O325 C274 1.325 . S
O326 Li264 1.961 . S
O326 Li266 1.956 . S
O326 Li267 1.970 . S
O326 C296 1.325 . S
O327 Li265 1.961 . S
O327 Li266 1.970 . S
O327 Li267 1.956 . S
O327 C302 1.325 . S
H328 C270 0.929 . S
H329 C271 0.930 . S
H330 C272 0.930 . S
H331 C273 0.930 . S
H332 C275 0.930 . S
H333 C277 0.929 . S
H334 C278 0.930 . S
H335 C279 0.930 . S
H336 C282 0.930 . S
H337 C285 0.929 . S
H338 C290 0.929 . S
H339 C291 0.930 . S
H340 C298 0.929 . S
H341 C299 0.930 . S
H342 C300 0.930 . S
H343 C301 0.930 . S
H344 C303 0.929 . S
H345 C304 0.930 . S
H346 C305 0.930 . S
H347 C306 0.930 . S
H348 C310 0.929 . S
H349 C312 0.930 . S
H350 C318 0.929 . S
H351 C319 0.930 . S
Li352 N369 1.990 . S
Li352 O412 1.956 1_565 S
Li352 O413 1.970 . S
Li352 O414 1.961 . S
Li353 N377 1.990 . S
Li353 O412 1.980 . S
Li353 O413 1.948 1_545 S
Li353 O415 1.956 . S
Li354 N399 1.990 . S
Li354 O412 1.961 . S
Li354 O414 1.956 1_545 S
Li354 O415 1.970 . S
Li355 N405 1.990 . S
Li355 O413 1.961 . S
Li355 O414 1.970 . S
Li355 O415 1.956 1_565 S
C356 C358 1.348 . S
C356 C359 1.356 . S
C356 O412 1.325 . S
N357 C360 1.314 . S
N357 C361 1.279 . S
C358 C356 1.348 . S
C358 C360 1.353 . S
C358 H416 0.929 . S
C359 C356 1.356 . S
C359 C361 1.358 . S
C359 H417 0.930 . S
C360 N357 1.314 . S
C360 C358 1.353 . S
C360 H418 0.930 . S
C361 N357 1.279 . S
C361 C359 1.358 . S
C361 H419 0.930 . S
C362 C365 1.348 . S
C362 C366 1.356 . S
C362 O413 1.325 . S
C363 N364 1.279 . S
C363 C366 1.358 . S
C363 H420 0.930 . S
N364 C363 1.279 . S
N364 C367 1.314 . S
C365 C362 1.348 . S
C365 C367 1.353 . S
C365 H421 0.929 . S
C366 C362 1.356 . S
C366 C363 1.358 . S
C366 H422 0.930 . S
C367 N364 1.314 . S
C367 C365 1.353 . S
C367 H423 0.930 . S
C368 N369 1.314 . S
C368 C373 1.353 . S
C368 H374 0.930 . S
N369 Li352 1.990 . S
N369 C368 1.314 . S
N369 C371 1.279 1_565 S
C370 C371 1.363 1_565 S
C370 C372 1.367 . S
C370 H424 0.914 1_565 S
C371 N369 1.279 1_545 S
C371 C370 1.363 1_545 S
C371 H375 0.930 . S
C372 C370 1.367 . S
C372 C373 1.348 . S
C373 C368 1.353 . S
C373 C372 1.348 . S
C373 H425 0.929 . S
H374 C368 0.930 . S
H375 C371 0.930 . S
C376 N377 1.321 . S
C376 C378 1.353 . S
C376 H382 0.930 . S
N377 Li353 1.990 . S
N377 C376 1.321 . S
N377 C380 1.277 1_545 S
C378 C376 1.353 . S
C378 C381 1.348 . S
C378 H426 0.929 . S
C379 C380 1.358 . S
C379 C381 1.356 1_565 S
C379 H427 0.930 . S
C380 N377 1.277 1_565 S
C380 C379 1.358 . S
C380 H383 0.930 . S
C381 C378 1.348 . S
C381 C379 1.356 1_545 S
H382 C376 0.930 . S
H383 C380 0.930 . S
C384 C386 1.348 . S
C384 C387 1.356 1_565 S
C384 O414 1.325 . S
N385 C388 1.314 . S
N385 C389 1.279 1_565 S
C386 C384 1.348 . S
C386 C388 1.353 . S
C386 H428 0.929 . S
C387 C384 1.356 1_545 S
C387 C389 1.358 . S
C387 H429 0.930 . S
C388 N385 1.314 . S
C388 C386 1.353 . S
C388 H430 0.930 . S
C389 N385 1.279 1_545 S
C389 C387 1.358 . S
C389 H431 0.930 . S
C390 C391 1.348 . S
C390 C392 1.356 1_545 S
C390 O415 1.325 . S
C391 C390 1.348 . S
C391 C393 1.353 . S
C391 H432 0.929 . S
C392 C390 1.356 1_565 S
C392 C394 1.358 . S
C392 H433 0.930 . S
C393 C391 1.353 . S
C393 N395 1.314 . S
C393 H434 0.930 . S
C394 C392 1.358 . S
C394 N395 1.279 1_565 S
C394 H435 0.930 . S
N395 C393 1.314 . S
N395 C394 1.279 1_545 S
C396 C398 1.353 . S
C396 N399 1.314 . S
C396 H402 0.930 . S
C397 N399 1.279 . S
C397 C400 1.358 . S
C397 H403 0.930 . S
C398 C396 1.353 . S
C398 C401 1.348 . S
C398 H436 0.929 . S
N399 Li354 1.990 . S
N399 C396 1.314 . S
N399 C397 1.279 . S
C400 C397 1.358 . S
C400 C401 1.356 . S
C400 H437 0.930 . S
C401 C398 1.348 . S
C401 C400 1.356 . S
H402 C396 0.930 . S
H403 C397 0.930 . S
C404 N405 1.314 . S
C404 C406 1.353 . S
C404 H410 0.930 . S
N405 Li355 1.990 . S
N405 C404 1.314 . S
N405 C408 1.279 . S
C406 C404 1.353 . S
C406 C409 1.348 . S
C406 H438 0.929 . S
C407 C408 1.358 . S
C407 C409 1.356 . S
C407 H439 0.930 . S
C408 N405 1.279 . S
C408 C407 1.358 . S
C408 H411 0.930 . S
C409 C406 1.348 . S
C409 C407 1.356 . S
H410 C404 0.930 . S
H411 C408 0.930 . S
O412 Li352 1.956 1_545 S
O412 Li353 1.980 . S
O412 Li354 1.961 . S
O412 C356 1.325 . S
O413 Li352 1.970 . S
O413 Li353 1.948 1_565 S
O413 Li355 1.961 . S
O413 C362 1.325 . S
O414 Li352 1.961 . S
O414 Li354 1.956 1_565 S
O414 Li355 1.970 . S
O414 C384 1.325 . S
O415 Li353 1.956 . S
O415 Li354 1.970 . S
O415 Li355 1.956 1_545 S
O415 C390 1.325 . S
H416 C358 0.929 . S
H417 C359 0.930 . S
H418 C360 0.930 . S
H419 C361 0.930 . S
H420 C363 0.930 . S
H421 C365 0.929 . S
H422 C366 0.930 . S
H423 C367 0.930 . S
H424 C370 0.914 1_545 S
H425 C373 0.929 . S
H426 C378 0.929 . S
H427 C379 0.930 . S
H428 C386 0.929 . S
H429 C387 0.930 . S
H430 C388 0.930 . S
H431 C389 0.930 . S
H432 C391 0.929 . S
H433 C392 0.930 . S
H434 C393 0.930 . S
H435 C394 0.930 . S
H436 C398 0.929 . S
H437 C400 0.930 . S
H438 C406 0.929 . S
H439 C407 0.930 . S
Li440 N457 1.990 . S
Li440 O500 1.956 1_455 S
Li440 O501 1.970 . S
Li440 O502 1.961 . S
Li441 N465 1.990 . S
Li441 O500 1.970 . S
Li441 O501 1.956 1_655 S
Li441 O503 1.961 . S
Li442 N487 1.991 . S
Li442 O500 1.971 . S
Li442 O502 1.944 1_655 S
Li442 O503 1.977 . S
Li443 N493 1.990 . S
Li443 O501 1.961 . S
Li443 O502 1.970 . S
Li443 O503 1.956 1_455 S
C444 C446 1.348 . S
C444 C447 1.356 1_655 S
C444 O500 1.325 . S
N445 C448 1.314 . S
N445 C449 1.279 1_655 S
C446 C444 1.348 . S
C446 C448 1.353 . S
C446 H504 0.929 . S
C447 C444 1.356 1_455 S
C447 C449 1.358 . S
C447 H505 0.930 . S
C448 N445 1.314 . S
C448 C446 1.353 . S
C448 H506 0.930 . S
C449 N445 1.279 1_455 S
C449 C447 1.358 . S
C449 H507 0.930 . S
C450 C453 1.348 . S
C450 C454 1.356 1_455 S
C450 O501 1.325 . S
C451 N452 1.279 1_655 S
C451 C454 1.358 . S
C451 H508 0.930 . S
N452 C451 1.279 1_455 S
N452 C455 1.314 . S
C453 C450 1.348 . S
C453 C455 1.353 . S
C453 H509 0.929 . S
C454 C450 1.356 1_655 S
C454 C451 1.358 . S
C454 H510 0.930 . S
C455 N452 1.314 . S
C455 C453 1.353 . S
C455 H511 0.930 . S
C456 N457 1.314 . S
C456 C461 1.353 . S
C456 H462 0.930 . S
N457 Li440 1.990 . S
N457 C456 1.314 . S
N457 C459 1.279 . S
C458 C459 1.358 . S
C458 C460 1.356 . S
C458 H512 0.930 1_565 S
C459 N457 1.279 . S
C459 C458 1.358 . S
C459 H463 0.930 . S
C460 C458 1.356 . S
C460 C461 1.348 . S
C461 C456 1.353 . S
C461 C460 1.348 . S
C461 H513 0.929 . S
H462 C456 0.930 . S
H463 C459 0.930 . S
C464 N465 1.314 . S
C464 C466 1.353 . S
C464 H470 0.930 . S
N465 Li441 1.990 . S
N465 C464 1.314 . S
N465 C468 1.279 . S
C466 C464 1.353 . S
C466 C469 1.348 . S
C466 H514 0.929 . S
C467 C468 1.358 . S
C467 C469 1.356 . S
C467 H515 0.930 . S
C468 N465 1.279 . S
C468 C467 1.358 . S
C468 H471 0.930 . S
C469 C466 1.348 . S
C469 C467 1.356 . S
H470 C464 0.930 . S
H471 C468 0.930 . S
C472 C474 1.348 . S
C472 C475 1.356 . S
C472 O502 1.325 . S
N473 C476 1.314 . S
N473 C477 1.279 . S
C474 C472 1.348 . S
C474 C476 1.353 . S
C474 H516 0.929 . S
C475 C472 1.356 . S
C475 C477 1.358 . S
C475 H517 0.930 . S
C476 N473 1.314 . S
C476 C474 1.353 . S
C476 H518 0.930 . S
C477 N473 1.279 . S
C477 C475 1.358 . S
C477 H519 0.930 . S
C478 C479 1.348 . S
C478 C480 1.356 . S
C478 O503 1.325 . S
C479 C478 1.348 . S
C479 C481 1.353 . S
C479 H520 0.929 . S
C480 C478 1.356 . S
C480 C482 1.358 . S
C480 H521 0.930 . S
C481 C479 1.353 . S
C481 N483 1.314 . S
C481 H522 0.930 . S
C482 C480 1.358 . S
C482 N483 1.279 . S
C482 H523 0.930 . S
N483 C481 1.314 . S
N483 C482 1.279 . S
C484 C486 1.353 . S
C484 N487 1.330 . S
C484 H490 0.930 . S
C485 N487 1.262 1_455 S
C485 C488 1.358 . S
C485 H491 0.930 . S
C486 C484 1.353 . S
C486 C489 1.348 . S
C486 H524 0.929 . S
N487 Li442 1.991 . S
N487 C484 1.330 . S
N487 C485 1.262 1_655 S
C488 C485 1.358 . S
C488 C489 1.356 1_455 S
C488 H525 0.930 . S
C489 C486 1.348 . S
C489 C488 1.356 1_655 S
H490 C484 0.930 . S
H491 C485 0.930 . S
C492 N493 1.314 . S
C492 C494 1.353 . S
C492 H498 0.930 . S
N493 Li443 1.990 . S
N493 C492 1.314 . S
N493 C496 1.279 1_455 S
C494 C492 1.353 . S
C494 C497 1.348 . S
C494 H526 0.929 . S
C495 C496 1.374 . S
C495 C497 1.339 1_655 S
C495 H527 0.932 . S
C496 N493 1.279 1_655 S
C496 C495 1.374 . S
C496 H499 0.930 . S
C497 C494 1.348 . S
C497 C495 1.339 1_455 S
H498 C492 0.930 . S
H499 C496 0.930 . S
O500 Li440 1.956 1_655 S
O500 Li441 1.970 . S
O500 Li442 1.971 . S
O500 C444 1.325 . S
O501 Li440 1.970 . S
O501 Li441 1.956 1_455 S
O501 Li443 1.961 . S
O501 C450 1.325 . S
O502 Li440 1.961 . S
O502 Li442 1.944 1_455 S
O502 Li443 1.970 . S
O502 C472 1.325 . S
O503 Li441 1.961 . S
O503 Li442 1.977 . S
O503 Li443 1.956 1_655 S
O503 C478 1.325 . S
H504 C446 0.929 . S
H505 C447 0.930 . S
H506 C448 0.930 . S
H507 C449 0.930 . S
H508 C451 0.930 . S
H509 C453 0.929 . S
H510 C454 0.930 . S
H511 C455 0.930 . S
H512 C458 0.930 1_545 S
H513 C461 0.929 . S
H514 C466 0.929 . S
H515 C467 0.930 . S
H516 C474 0.929 . S
H517 C475 0.930 . S
H518 C476 0.930 . S
H519 C477 0.930 . S
H520 C479 0.929 . S
H521 C480 0.930 . S
H522 C481 0.930 . S
H523 C482 0.930 . S
H524 C486 0.929 . S
H525 C488 0.930 . S
H526 C494 0.929 . S
H527 C495 0.932 . S
Li528 N545 1.990 . S
Li528 O588 1.956 . S
Li528 O589 1.970 . S
Li528 O590 1.961 . S
Li529 N553 1.990 . S
Li529 O588 1.970 . S
Li529 O589 1.956 . S
Li529 O591 1.961 . S
Li530 N575 1.990 . S
Li530 O588 1.961 . S
Li530 O590 1.956 . S
Li530 O591 1.970 . S
Li531 N581 1.990 . S
Li531 O589 1.961 . S
Li531 O590 1.970 . S
Li531 O591 1.956 . S
C532 C534 1.348 . S
C532 C535 1.356 . S
C532 O588 1.325 . S
N533 C536 1.314 . S
N533 C537 1.279 . S
C534 C532 1.348 . S
C534 C536 1.353 . S
C534 H592 0.929 . S
C535 C532 1.356 . S
C535 C537 1.358 . S
C535 H593 0.930 . S
C536 N533 1.314 . S
C536 C534 1.353 . S
C536 H594 0.930 . S
C537 N533 1.279 . S
C537 C535 1.358 . S
C537 H595 0.930 . S
C538 C541 1.348 . S
C538 C542 1.356 . S
C538 O589 1.325 . S
C539 N540 1.279 . S
C539 C542 1.358 . S
C539 H596 0.930 . S
N540 C539 1.279 . S
N540 C543 1.314 . S
C541 C538 1.348 . S
C541 C543 1.353 . S
C541 H597 0.929 . S
C542 C538 1.356 . S
C542 C539 1.358 . S
C542 H598 0.930 . S
C543 N540 1.314 . S
C543 C541 1.353 . S
C543 H599 0.930 1_655 S
C544 N545 1.314 . S
C544 C549 1.353 . S
C544 H550 0.930 . S
N545 Li528 1.990 . S
N545 C544 1.314 . S
N545 C547 1.279 . S
C546 C547 1.358 . S
C546 C548 1.356 . S
C546 H600 0.930 . S
C547 N545 1.279 . S
C547 C546 1.358 . S
C547 H551 0.930 . S
C548 C546 1.356 . S
C548 C549 1.348 . S
C549 C544 1.353 . S
C549 C548 1.348 . S
C549 H601 0.929 . S
H550 C544 0.930 . S
H551 C547 0.930 . S
C552 N553 1.314 . S
C552 C554 1.353 . S
C552 H558 0.930 . S
N553 Li529 1.990 . S
N553 C552 1.314 . S
N553 C556 1.279 . S
C554 C552 1.353 . S
C554 C557 1.348 . S
C554 H602 0.929 . S
C555 C556 1.358 . S
C555 C557 1.356 . S
C555 H603 0.930 . S
C556 N553 1.279 . S
C556 C555 1.358 . S
C556 H559 0.930 . S
C557 C554 1.348 . S
C557 C555 1.356 . S
H558 C552 0.930 . S
H559 C556 0.930 . S
C560 C562 1.348 . S
C560 C563 1.356 . S
C560 O590 1.325 . S
N561 C564 1.314 . S
N561 C565 1.279 . S
C562 C560 1.348 . S
C562 C564 1.353 . S
C562 H604 0.929 . S
C563 C560 1.356 . S
C563 C565 1.358 . S
C563 H605 0.930 . S
C564 N561 1.314 . S
C564 C562 1.353 . S
C564 H606 0.930 . S
C565 N561 1.279 . S
C565 C563 1.358 . S
C565 H607 0.930 . S
C566 C567 1.348 . S
C566 C568 1.356 . S
C566 O591 1.325 . S
C567 C566 1.348 . S
C567 C569 1.353 . S
C567 H608 0.929 . S
C568 C566 1.356 . S
C568 C570 1.358 . S
C568 H609 0.930 . S
C569 C567 1.353 . S
C569 N571 1.314 . S
C569 H610 0.930 . S
C570 C568 1.358 . S
C570 N571 1.279 . S
C570 H611 0.930 . S
N571 C569 1.314 . S
N571 C570 1.279 . S
C572 C574 1.353 . S
C572 N575 1.314 . S
C572 H578 0.930 . S
C573 N575 1.279 . S
C573 C576 1.358 . S
C573 H579 0.930 . S
C574 C572 1.353 . S
C574 C577 1.348 . S
C574 H612 0.929 . S
N575 Li530 1.990 . S
N575 C572 1.314 . S
N575 C573 1.279 . S
C576 C573 1.358 . S
C576 C577 1.356 . S
C576 H613 0.930 . S
C577 C574 1.348 . S
C577 C576 1.356 . S
H578 C572 0.930 . S
H579 C573 0.930 . S
C580 N581 1.314 . S
C580 C582 1.353 . S
C580 H586 0.930 . S
N581 Li531 1.990 . S
N581 C580 1.314 . S
N581 C584 1.279 . S
C582 C580 1.353 . S
C582 C585 1.348 . S
C582 H614 0.929 . S
C583 C584 1.358 . S
C583 C585 1.356 . S
C583 H615 0.930 . S
C584 N581 1.279 . S
C584 C583 1.358 . S
C584 H587 0.930 . S
C585 C582 1.348 . S
C585 C583 1.356 . S
H586 C580 0.930 . S
H587 C584 0.930 . S
O588 Li528 1.956 . S
O588 Li529 1.970 . S
O588 Li530 1.961 . S
O588 C532 1.325 . S
O589 Li528 1.970 . S
O589 Li529 1.956 . S
O589 Li531 1.961 . S
O589 C538 1.325 . S
O590 Li528 1.961 . S
O590 Li530 1.956 . S
O590 Li531 1.970 . S
O590 C560 1.325 . S
O591 Li529 1.961 . S
O591 Li530 1.970 . S
O591 Li531 1.956 . S
O591 C566 1.325 . S
H592 C534 0.929 . S
H593 C535 0.930 . S
H594 C536 0.930 . S
H595 C537 0.930 . S
H596 C539 0.930 . S
H597 C541 0.929 . S
H598 C542 0.930 . S
H599 C543 0.930 1_455 S
H600 C546 0.930 . S
H601 C549 0.929 . S
H602 C554 0.929 . S
H603 C555 0.930 . S
H604 C562 0.929 . S
H605 C563 0.930 . S
H606 C564 0.930 . S
H607 C565 0.930 . S
H608 C567 0.929 . S
H609 C568 0.930 . S
H610 C569 0.930 . S
H611 C570 0.930 . S
H612 C574 0.929 . S
H613 C576 0.930 . S
H614 C582 0.929 . S
H615 C583 0.930 . S
Li616 N633 1.990 . S
Li616 O676 1.956 . S
Li616 O677 1.970 . S
Li616 O678 1.961 . S
Li617 N641 1.990 . S
Li617 O676 1.970 . S
Li617 O677 1.956 . S
Li617 O679 1.961 . S
Li618 N663 1.990 . S
Li618 O676 1.961 . S
Li618 O678 1.956 . S
Li618 O679 1.970 . S
Li619 N669 1.990 . S
Li619 O677 1.961 . S
Li619 O678 1.970 . S
Li619 O679 1.956 . S
C620 C622 1.348 . S
C620 C623 1.356 . S
C620 O676 1.325 . S
N621 C624 1.314 . S
N621 C625 1.279 . S
C622 C620 1.348 . S
C622 C624 1.353 . S
C622 H680 0.929 . S
C623 C620 1.356 . S
C623 C625 1.358 . S
C623 H681 0.930 . S
C624 N621 1.314 . S
C624 C622 1.353 . S
C624 H682 0.930 . S
C625 N621 1.279 . S
C625 C623 1.358 . S
C625 H683 0.930 . S
C626 C629 1.348 . S
C626 C630 1.356 . S
C626 O677 1.325 . S
C627 N628 1.279 . S
C627 C630 1.358 . S
C627 H684 0.930 . S
N628 C627 1.279 . S
N628 C631 1.314 . S
C629 C626 1.348 . S
C629 C631 1.353 . S
C629 H685 0.929 . S
C630 C626 1.356 . S
C630 C627 1.358 . S
C630 H686 0.930 . S
C631 N628 1.314 . S
C631 C629 1.353 . S
C631 H687 0.930 . S
C632 N633 1.314 . S
C632 C637 1.353 . S
C632 H638 0.930 . S
N633 Li616 1.990 . S
N633 C632 1.314 . S
N633 C635 1.279 . S
C634 C635 1.358 . S
C634 C636 1.356 . S
C634 H688 0.930 . S
C635 N633 1.279 . S
C635 C634 1.358 . S
C635 H639 0.930 . S
C636 C634 1.356 . S
C636 C637 1.348 . S
C637 C632 1.353 . S
C637 C636 1.348 . S
C637 H689 0.929 . S
H638 C632 0.930 . S
H639 C635 0.930 . S
C640 N641 1.314 . S
C640 C642 1.353 . S
C640 H646 0.930 . S
N641 Li617 1.990 . S
N641 C640 1.314 . S
N641 C644 1.279 . S
C642 C640 1.353 . S
C642 C645 1.348 . S
C642 H690 0.929 . S
C643 C644 1.358 . S
C643 C645 1.356 . S
C643 H691 0.930 . S
C644 N641 1.279 . S
C644 C643 1.358 . S
C644 H647 0.930 . S
C645 C642 1.348 . S
C645 C643 1.356 . S
H646 C640 0.930 . S
H647 C644 0.930 . S
C648 C650 1.348 . S
C648 C651 1.356 . S
C648 O678 1.325 . S
N649 C652 1.314 . S
N649 C653 1.279 . S
C650 C648 1.348 . S
C650 C652 1.353 . S
C650 H692 0.929 . S
C651 C648 1.356 . S
C651 C653 1.358 . S
C651 H693 0.930 . S
C652 N649 1.314 . S
C652 C650 1.353 . S
C652 H694 0.930 . S
C653 N649 1.279 . S
C653 C651 1.358 . S
C653 H695 0.930 . S
C654 C655 1.348 . S
C654 C656 1.356 . S
C654 O679 1.325 . S
C655 C654 1.348 . S
C655 C657 1.353 . S
C655 H696 0.929 . S
C656 C654 1.356 . S
C656 C658 1.358 . S
C656 H697 0.930 . S
C657 C655 1.353 . S
C657 N659 1.314 . S
C657 H698 0.930 . S
C658 C656 1.358 . S
C658 N659 1.279 . S
C658 H699 0.930 . S
N659 C657 1.314 . S
N659 C658 1.279 . S
C660 C662 1.353 . S
C660 N663 1.314 . S
C660 H666 0.930 . S
C661 N663 1.279 . S
C661 C664 1.358 . S
C661 H667 0.930 . S
C662 C660 1.353 . S
C662 C665 1.348 . S
C662 H700 0.929 . S
N663 Li618 1.990 . S
N663 C660 1.314 . S
N663 C661 1.279 . S
C664 C661 1.358 . S
C664 C665 1.356 . S
C664 H701 0.930 . S
C665 C662 1.348 . S
C665 C664 1.356 . S
H666 C660 0.930 . S
H667 C661 0.930 . S
C668 N669 1.314 . S
C668 C670 1.353 . S
C668 H674 0.930 . S
N669 Li619 1.990 . S
N669 C668 1.314 . S
N669 C672 1.279 . S
C670 C668 1.353 . S
C670 C673 1.348 . S
C670 H702 0.929 . S
C671 C672 1.358 . S
C671 C673 1.356 . S
C671 H703 0.930 . S
C672 N669 1.279 . S
C672 C671 1.358 . S
C672 H675 0.930 . S
C673 C670 1.348 . S
C673 C671 1.356 . S
H674 C668 0.930 . S
H675 C672 0.930 . S
O676 Li616 1.956 . S
O676 Li617 1.970 . S
O676 Li618 1.961 . S
O676 C620 1.325 . S
O677 Li616 1.970 . S
O677 Li617 1.956 . S
O677 Li619 1.961 . S
O677 C626 1.325 . S
O678 Li616 1.961 . S
O678 Li618 1.956 . S
O678 Li619 1.970 . S
O678 C648 1.325 . S
O679 Li617 1.961 . S
O679 Li618 1.970 . S
O679 Li619 1.956 . S
O679 C654 1.325 . S
H680 C622 0.929 . S
H681 C623 0.930 . S
H682 C624 0.930 . S
H683 C625 0.930 . S
H684 C627 0.930 . S
H685 C629 0.929 . S
H686 C630 0.930 . S
H687 C631 0.930 . S
H688 C634 0.930 . S
H689 C637 0.929 . S
H690 C642 0.929 . S
H691 C643 0.930 . S
H692 C650 0.929 . S
H693 C651 0.930 . S
H694 C652 0.930 . S
H695 C653 0.930 . S
H696 C655 0.929 . S
H697 C656 0.930 . S
H698 C657 0.930 . S
H699 C658 0.930 . S
H700 C662 0.929 . S
H701 C664 0.930 . S
H702 C670 0.929 . S
H703 C671 0.930 . S
Li704 N721 1.990 . S
Li704 O764 1.956 . S
Li704 O765 1.970 . S
Li704 O766 1.961 . S
Li705 N729 1.990 . S
Li705 O764 1.970 . S
Li705 O765 1.956 . S
Li705 O767 1.961 . S
Li706 N751 1.990 . S
Li706 O764 1.961 . S
Li706 O766 1.956 . S
Li706 O767 1.970 . S
Li707 N757 1.990 . S
Li707 O765 1.961 . S
Li707 O766 1.970 . S
Li707 O767 1.956 . S
C708 C710 1.348 . S
C708 C711 1.356 . S
C708 O764 1.325 . S
N709 C712 1.314 . S
N709 C713 1.279 . S
C710 C708 1.348 . S
C710 C712 1.353 . S
C710 H768 0.929 . S
C711 C708 1.356 . S
C711 C713 1.358 . S
C711 H769 0.930 . S
C712 N709 1.314 . S
C712 C710 1.353 . S
C712 H770 0.930 . S
C713 N709 1.279 . S
C713 C711 1.358 . S
C713 H771 0.930 . S
C714 C717 1.348 . S
C714 C718 1.356 . S
C714 O765 1.325 . S
C715 N716 1.279 . S
C715 C718 1.358 . S
C715 H772 0.930 . S
N716 C715 1.279 . S
N716 C719 1.314 . S
C717 C714 1.348 . S
C717 C719 1.353 . S
C717 H773 0.929 . S
C718 C714 1.356 . S
C718 C715 1.358 . S
C718 H774 0.930 . S
C719 N716 1.314 . S
C719 C717 1.353 . S
C719 H775 0.930 . S
C720 N721 1.314 . S
C720 C725 1.353 . S
C720 H726 0.930 . S
N721 Li704 1.990 . S
N721 C720 1.314 . S
N721 C723 1.279 . S
C722 C723 1.358 . S
C722 C724 1.356 . S
C722 H776 0.930 . S
C723 N721 1.279 . S
C723 C722 1.358 . S
C723 H727 0.930 . S
C724 C722 1.356 . S
C724 C725 1.348 . S
C725 C720 1.353 . S
C725 C724 1.348 . S
C725 H777 0.929 . S
H726 C720 0.930 . S
H727 C723 0.930 . S
C728 N729 1.314 . S
C728 C730 1.353 . S
C728 H734 0.930 . S
N729 Li705 1.990 . S
N729 C728 1.314 . S
N729 C732 1.279 . S
C730 C728 1.353 . S
C730 C733 1.348 . S
C730 H778 0.929 . S
C731 C732 1.358 . S
C731 C733 1.356 . S
C731 H779 0.930 . S
C732 N729 1.279 . S
C732 C731 1.358 . S
C732 H735 0.930 . S
C733 C730 1.348 . S
C733 C731 1.356 . S
H734 C728 0.930 . S
H735 C732 0.930 . S
C736 C738 1.348 . S
C736 C739 1.356 . S
C736 O766 1.325 . S
N737 C740 1.314 . S
N737 C741 1.279 . S
C738 C736 1.348 . S
C738 C740 1.353 . S
C738 H780 0.929 . S
C739 C736 1.356 . S
C739 C741 1.358 . S
C739 H781 0.930 . S
C740 N737 1.314 . S
C740 C738 1.353 . S
C740 H782 0.930 1_545 S
C741 N737 1.279 . S
C741 C739 1.358 . S
C741 H783 0.930 . S
C742 C743 1.348 . S
C742 C744 1.356 . S
C742 O767 1.325 . S
C743 C742 1.348 . S
C743 C745 1.353 . S
C743 H784 0.929 . S
C744 C742 1.356 . S
C744 C746 1.358 . S
C744 H785 0.930 . S
C745 C743 1.353 . S
C745 N747 1.314 . S
C745 H786 0.930 . S
C746 C744 1.358 . S
C746 N747 1.279 . S
C746 H787 0.930 . S
N747 C745 1.314 . S
N747 C746 1.279 . S
C748 C750 1.353 . S
C748 N751 1.314 . S
C748 H754 0.930 . S
C749 N751 1.279 . S
C749 C752 1.358 . S
C749 H755 0.930 . S
C750 C748 1.353 . S
C750 C753 1.348 . S
C750 H788 0.929 . S
N751 Li706 1.990 . S
N751 C748 1.314 . S
N751 C749 1.279 . S
C752 C749 1.358 . S
C752 C753 1.356 . S
C752 H789 0.930 . S
C753 C750 1.348 . S
C753 C752 1.356 . S
H754 C748 0.930 . S
H755 C749 0.930 . S
C756 N757 1.314 . S
C756 C758 1.353 . S
C756 H762 0.930 . S
N757 Li707 1.990 . S
N757 C756 1.314 . S
N757 C760 1.279 . S
C758 C756 1.353 . S
C758 C761 1.348 . S
C758 H790 0.929 . S
C759 C760 1.358 . S
C759 C761 1.356 . S
C759 H791 0.930 . S
C760 N757 1.279 . S
C760 C759 1.358 . S
C760 H763 0.930 . S
C761 C758 1.348 . S
C761 C759 1.356 . S
H762 C756 0.930 . S
H763 C760 0.930 . S
O764 Li704 1.956 . S
O764 Li705 1.970 . S
O764 Li706 1.961 . S
O764 C708 1.325 . S
O765 Li704 1.970 . S
O765 Li705 1.956 . S
O765 Li707 1.961 . S
O765 C714 1.325 . S
O766 Li704 1.961 . S
O766 Li706 1.956 . S
O766 Li707 1.970 . S
O766 C736 1.325 . S
O767 Li705 1.961 . S
O767 Li706 1.970 . S
O767 Li707 1.956 . S
O767 C742 1.325 . S
H768 C710 0.929 . S
H769 C711 0.930 . S
H770 C712 0.930 . S
H771 C713 0.930 . S
H772 C715 0.930 . S
H773 C717 0.929 . S
H774 C718 0.930 . S
H775 C719 0.930 . S
H776 C722 0.930 . S
H777 C725 0.929 . S
H778 C730 0.929 . S
H779 C731 0.930 . S
H780 C738 0.929 . S
H781 C739 0.930 . S
H782 C740 0.930 1_565 S
H783 C741 0.930 . S
H784 C743 0.929 . S
H785 C744 0.930 . S
H786 C745 0.930 . S
H787 C746 0.930 . S
H788 C750 0.929 . S
H789 C752 0.930 . S
H790 C758 0.929 . S
H791 C759 0.930 . S
Li792 N809 1.990 . S
Li792 O852 1.956 . S
Li792 O853 1.970 . S
Li792 O854 1.961 . S
Li793 N817 1.990 . S
Li793 O852 1.970 . S
Li793 O853 1.956 . S
Li793 O855 1.961 . S
Li794 N839 1.990 . S
Li794 O852 1.961 . S
Li794 O854 1.956 . S
Li794 O855 1.970 . S
Li795 N845 1.990 . S
Li795 O853 1.961 . S
Li795 O854 1.970 . S
Li795 O855 1.956 . S
C796 C798 1.348 . S
C796 C799 1.356 . S
C796 O852 1.325 . S
N797 C800 1.314 1_455 S
N797 C801 1.279 1_455 S
C798 C796 1.348 . S
C798 C800 1.353 . S
C798 H856 0.929 . S
C799 C796 1.356 . S
C799 C801 1.358 . S
C799 H857 0.930 . S
C800 N797 1.314 1_655 S
C800 C798 1.353 . S
C800 H858 0.930 1_655 S
C801 N797 1.279 1_655 S
C801 C799 1.358 . S
C801 H859 0.930 1_655 S
C802 C805 1.348 . S
C802 C806 1.356 . S
C802 O853 1.325 . S
C803 N804 1.279 . S
C803 C806 1.358 . S
C803 H860 0.930 . S
N804 C803 1.279 . S
N804 C807 1.314 . S
C805 C802 1.348 . S
C805 C807 1.353 . S
C805 H861 0.929 . S
C806 C802 1.356 . S
C806 C803 1.358 . S
C806 H862 0.930 . S
C807 N804 1.314 . S
C807 C805 1.353 . S
C807 H863 0.930 . S
C808 N809 1.314 . S
C808 C813 1.353 . S
C808 H814 0.930 . S
N809 Li792 1.990 . S
N809 C808 1.314 . S
N809 C811 1.279 . S
C810 C811 1.358 . S
C810 C812 1.356 . S
C810 H864 0.930 1_655 S
C811 N809 1.279 . S
C811 C810 1.358 . S
C811 H815 0.930 . S
C812 C810 1.356 . S
C812 C813 1.348 . S
C813 C808 1.353 . S
C813 C812 1.348 . S
C813 H865 0.929 . S
H814 C808 0.930 . S
H815 C811 0.930 . S
C816 N817 1.314 . S
C816 C818 1.353 . S
C816 H822 0.930 . S
N817 Li793 1.990 . S
N817 C816 1.314 . S
N817 C820 1.279 . S
C818 C816 1.353 . S
C818 C821 1.348 . S
C818 H866 0.929 . S
C819 C820 1.358 . S
C819 C821 1.356 . S
C819 H867 0.930 . S
C820 N817 1.279 . S
C820 C819 1.358 . S
C820 H823 0.930 . S
C821 C818 1.348 . S
C821 C819 1.356 . S
H822 C816 0.930 . S
H823 C820 0.930 . S
C824 C826 1.348 . S
C824 C827 1.356 . S
C824 O854 1.325 . S
N825 C828 1.314 . S
N825 C829 1.279 . S
C826 C824 1.348 . S
C826 C828 1.353 . S
C826 H868 0.929 . S
C827 C824 1.356 . S
C827 C829 1.358 . S
C827 H869 0.930 . S
C828 N825 1.314 . S
C828 C826 1.353 . S
C828 H870 0.930 . S
C829 N825 1.279 . S
C829 C827 1.358 . S
C829 H871 0.930 . S
C830 C831 1.348 . S
C830 C832 1.356 . S
C830 O855 1.325 . S
C831 C830 1.348 . S
C831 C833 1.353 . S
C831 H872 0.929 . S
C832 C830 1.356 . S
C832 C834 1.358 . S
C832 H873 0.930 . S
C833 C831 1.353 . S
C833 N835 1.314 . S
C833 H874 0.930 . S
C834 C832 1.358 . S
C834 N835 1.279 . S
C834 H875 0.930 . S
N835 C833 1.314 . S
N835 C834 1.279 . S
C836 C838 1.353 . S
C836 N839 1.314 . S
C836 H842 0.930 . S
C837 N839 1.279 . S
C837 C840 1.358 . S
C837 H843 0.930 . S
C838 C836 1.353 . S
C838 C841 1.348 . S
C838 H876 0.929 . S
N839 Li794 1.990 . S
N839 C836 1.314 . S
N839 C837 1.279 . S
C840 C837 1.358 . S
C840 C841 1.356 . S
C840 H877 0.930 . S
C841 C838 1.348 . S
C841 C840 1.356 . S
H842 C836 0.930 . S
H843 C837 0.930 . S
C844 N845 1.314 . S
C844 C846 1.353 . S
C844 H850 0.930 . S
N845 Li795 1.990 . S
N845 C844 1.314 . S
N845 C848 1.279 . S
C846 C844 1.353 . S
C846 C849 1.348 . S
C846 H878 0.929 . S
C847 C848 1.358 . S
C847 C849 1.356 . S
C847 H879 0.930 . S
C848 N845 1.279 . S
C848 C847 1.358 . S
C848 H851 0.930 . S
C849 C846 1.348 . S
C849 C847 1.356 . S
H850 C844 0.930 . S
H851 C848 0.930 . S
O852 Li792 1.956 . S
O852 Li793 1.970 . S
O852 Li794 1.961 . S
O852 C796 1.325 . S
O853 Li792 1.970 . S
O853 Li793 1.956 . S
O853 Li795 1.961 . S
O853 C802 1.325 . S
O854 Li792 1.961 . S
O854 Li794 1.956 . S
O854 Li795 1.970 . S
O854 C824 1.325 . S
O855 Li793 1.961 . S
O855 Li794 1.970 . S
O855 Li795 1.956 . S
O855 C830 1.325 . S
H856 C798 0.929 . S
H857 C799 0.930 . S
H858 C800 0.930 1_455 S
H859 C801 0.930 1_455 S
H860 C803 0.930 . S
H861 C805 0.929 . S
H862 C806 0.930 . S
H863 C807 0.930 . S
H864 C810 0.930 1_455 S
H865 C813 0.929 . S
H866 C818 0.929 . S
H867 C819 0.930 . S
H868 C826 0.929 . S
H869 C827 0.930 . S
H870 C828 0.930 . S
H871 C829 0.930 . S
H872 C831 0.929 . S
H873 C832 0.930 . S
H874 C833 0.930 . S
H875 C834 0.930 . S
H876 C838 0.929 . S
H877 C840 0.930 . S
H878 C846 0.929 . S
H879 C847 0.930 . S
Li880 N897 1.990 . S
Li880 O940 1.956 . S
Li880 O941 1.970 . S
Li880 O942 1.961 . S
Li881 N905 1.990 . S
Li881 O940 1.970 . S
Li881 O941 1.956 . S
Li881 O943 1.961 . S
Li882 N927 1.990 . S
Li882 O940 1.961 . S
Li882 O942 1.956 . S
Li882 O943 1.970 . S
Li883 N933 1.990 . S
Li883 O941 1.961 . S
Li883 O942 1.970 . S
Li883 O943 1.956 . S
C884 C886 1.348 . S
C884 C887 1.356 . S
C884 O940 1.325 . S
N885 C888 1.314 . S
N885 C889 1.279 . S
C886 C884 1.348 . S
C886 C888 1.353 . S
C886 H944 0.929 . S
C887 C884 1.356 . S
C887 C889 1.358 . S
C887 H945 0.930 . S
C888 N885 1.314 . S
C888 C886 1.353 . S
C888 H946 0.930 . S
C889 N885 1.279 . S
C889 C887 1.358 . S
C889 H947 0.930 . S
C890 C893 1.348 . S
C890 C894 1.356 . S
C890 O941 1.325 . S
C891 N892 1.279 . S
C891 C894 1.358 . S
C891 H948 0.930 . S
N892 C891 1.279 . S
N892 C895 1.314 . S
C893 C890 1.348 . S
C893 C895 1.353 . S
C893 H949 0.929 . S
C894 C890 1.356 . S
C894 C891 1.358 . S
C894 H950 0.930 . S
C895 N892 1.314 . S
C895 C893 1.353 . S
C895 H951 0.930 . S
C896 N897 1.314 . S
C896 C901 1.353 . S
C896 H902 0.930 . S
N897 Li880 1.990 . S
N897 C896 1.314 . S
N897 C899 1.279 . S
C898 C899 1.358 . S
C898 C900 1.356 . S
C898 H952 0.930 . S
C899 N897 1.279 . S
C899 C898 1.358 . S
C899 H903 0.930 . S
C900 C898 1.356 . S
C900 C901 1.348 . S
C901 C896 1.353 . S
C901 C900 1.348 . S
C901 H953 0.929 . S
H902 C896 0.930 . S
H903 C899 0.930 . S
C904 N905 1.314 . S
C904 C906 1.353 . S
C904 H910 0.930 . S
N905 Li881 1.990 . S
N905 C904 1.314 . S
N905 C908 1.279 . S
C906 C904 1.353 . S
C906 C909 1.348 . S
C906 H954 0.929 . S
C907 C908 1.358 . S
C907 C909 1.356 . S
C907 H955 0.930 . S
C908 N905 1.279 . S
C908 C907 1.358 . S
C908 H911 0.930 . S
C909 C906 1.348 . S
C909 C907 1.356 . S
H910 C904 0.930 . S
H911 C908 0.930 . S
C912 C914 1.348 . S
C912 C915 1.356 . S
C912 O942 1.325 . S
N913 C916 1.314 . S
N913 C917 1.279 . S
C914 C912 1.348 . S
C914 C916 1.353 . S
C914 H956 0.929 . S
C915 C912 1.356 . S
C915 C917 1.358 . S
C915 H957 0.930 . S
C916 N913 1.314 . S
C916 C914 1.353 . S
C916 H958 0.930 . S
C917 N913 1.279 . S
C917 C915 1.358 . S
C917 H959 0.930 . S
C918 C919 1.348 . S
C918 C920 1.356 . S
C918 O943 1.325 . S
C919 C918 1.348 . S
C919 C921 1.353 . S
C919 H960 0.929 . S
C920 C918 1.356 . S
C920 C922 1.358 . S
C920 H961 0.930 . S
C921 C919 1.353 . S
C921 N923 1.314 . S
C921 H962 0.930 . S
C922 C920 1.358 . S
C922 N923 1.279 . S
C922 H963 0.930 . S
N923 C921 1.314 . S
N923 C922 1.279 . S
C924 C926 1.353 . S
C924 N927 1.314 . S
C924 H930 0.930 . S
C925 N927 1.279 . S
C925 C928 1.358 . S
C925 H931 0.930 . S
C926 C924 1.353 . S
C926 C929 1.348 . S
C926 H964 0.929 . S
N927 Li882 1.990 . S
N927 C924 1.314 . S
N927 C925 1.279 . S
C928 C925 1.358 . S
C928 C929 1.356 . S
C928 H965 0.930 . S
C929 C926 1.348 . S
C929 C928 1.356 . S
H930 C924 0.930 . S
H931 C925 0.930 . S
C932 N933 1.314 . S
C932 C934 1.353 . S
C932 H938 0.930 . S
N933 Li883 1.990 . S
N933 C932 1.314 . S
N933 C936 1.279 . S
C934 C932 1.353 . S
C934 C937 1.348 . S
C934 H966 0.929 . S
C935 C936 1.358 . S
C935 C937 1.356 . S
C935 H967 0.930 . S
C936 N933 1.279 . S
C936 C935 1.358 . S
C936 H939 0.930 . S
C937 C934 1.348 . S
C937 C935 1.356 . S
H938 C932 0.930 . S
H939 C936 0.930 . S
O940 Li880 1.956 . S
O940 Li881 1.970 . S
O940 Li882 1.961 . S
O940 C884 1.325 . S
O941 Li880 1.970 . S
O941 Li881 1.956 . S
O941 Li883 1.961 . S
O941 C890 1.325 . S
O942 Li880 1.961 . S
O942 Li882 1.956 . S
O942 Li883 1.970 . S
O942 C912 1.325 . S
O943 Li881 1.961 . S
O943 Li882 1.970 . S
O943 Li883 1.956 . S
O943 C918 1.325 . S
H944 C886 0.929 . S
H945 C887 0.930 . S
H946 C888 0.930 . S
H947 C889 0.930 . S
H948 C891 0.930 . S
H949 C893 0.929 . S
H950 C894 0.930 . S
H951 C895 0.930 . S
H952 C898 0.930 . S
H953 C901 0.929 . S
H954 C906 0.929 . S
H955 C907 0.930 . S
H956 C914 0.929 . S
H957 C915 0.930 . S
H958 C916 0.930 . S
H959 C917 0.930 . S
H960 C919 0.929 . S
H961 C920 0.930 . S
H962 C921 0.930 . S
H963 C922 0.930 . S
H964 C926 0.929 . S
H965 C928 0.930 . S
H966 C934 0.929 . S
H967 C935 0.930 . S
Li968 N985 1.990 . S
Li968 O1028 1.956 . S
Li968 O1029 1.970 . S
Li968 O1030 1.961 . S
Li969 N993 1.990 . S
Li969 O1028 1.970 . S
Li969 O1029 1.956 . S
Li969 O1031 1.961 . S
Li970 N1015 1.990 . S
Li970 O1028 1.961 . S
Li970 O1030 1.956 . S
Li970 O1031 1.970 . S
Li971 N1021 1.990 . S
Li971 O1029 1.961 . S
Li971 O1030 1.970 . S
Li971 O1031 1.956 . S
C972 C974 1.348 . S
C972 C975 1.356 . S
C972 O1028 1.325 . S
N973 C976 1.314 . S
N973 C977 1.279 . S
C974 C972 1.348 . S
C974 C976 1.353 . S
C974 H1032 0.929 . S
C975 C972 1.356 . S
C975 C977 1.358 . S
C975 H1033 0.930 . S
C976 N973 1.314 . S
C976 C974 1.353 . S
C976 H1034 0.930 . S
C977 N973 1.279 . S
C977 C975 1.358 . S
C977 H1035 0.930 . S
C978 C981 1.348 . S
C978 C982 1.356 . S
C978 O1029 1.325 . S
C979 N980 1.279 . S
C979 C982 1.358 . S
C979 H1036 0.930 . S
N980 C979 1.279 . S
N980 C983 1.314 . S
C981 C978 1.348 . S
C981 C983 1.353 . S
C981 H1037 0.929 . S
C982 C978 1.356 . S
C982 C979 1.358 . S
C982 H1038 0.930 . S
C983 N980 1.314 . S
C983 C981 1.353 . S
C983 H1039 0.930 . S
C984 N985 1.314 . S
C984 C989 1.353 . S
C984 H990 0.930 . S
N985 Li968 1.990 . S
N985 C984 1.314 . S
N985 C987 1.279 . S
C986 C987 1.358 . S
C986 C988 1.356 . S
C986 H1040 0.930 . S
C987 N985 1.279 . S
C987 C986 1.358 . S
C987 H991 0.930 . S
C988 C986 1.356 . S
C988 C989 1.348 . S
C989 C984 1.353 . S
C989 C988 1.348 . S
C989 H1041 0.929 . S
H990 C984 0.930 . S
H991 C987 0.930 . S
C992 N993 1.314 . S
C992 C994 1.353 . S
C992 H998 0.930 . S
N993 Li969 1.990 . S
N993 C992 1.314 . S
N993 C996 1.279 . S
C994 C992 1.353 . S
C994 C997 1.348 . S
C994 H1042 0.929 . S
C995 C996 1.358 . S
C995 C997 1.356 . S
C995 H1043 0.930 . S
C996 N993 1.279 . S
C996 C995 1.358 . S
C996 H999 0.930 . S
C997 C994 1.348 . S
C997 C995 1.356 . S
H998 C992 0.930 . S
H999 C996 0.930 . S
C1000 C1002 1.348 . S
C1000 C1003 1.356 . S
C1000 O1030 1.325 . S
N1001 C1004 1.313 1_565 S
N1001 C1005 1.279 1_565 S
C1002 C1000 1.348 . S
C1002 C1004 1.364 . S
C1002 H1044 0.929 . S
C1003 C1000 1.356 . S
C1003 C1005 1.358 . S
C1003 H1045 0.930 . S
C1004 N1001 1.313 1_545 S
C1004 C1002 1.364 . S
C1004 H1046 0.919 1_545 S
C1005 N1001 1.279 1_545 S
C1005 C1003 1.358 . S
C1005 H1047 0.930 1_545 S
C1006 C1007 1.348 . S
C1006 C1008 1.356 . S
C1006 O1031 1.325 . S
C1007 C1006 1.348 . S
C1007 C1009 1.353 . S
C1007 H1048 0.929 . S
C1008 C1006 1.356 . S
C1008 C1010 1.358 . S
C1008 H1049 0.930 . S
C1009 C1007 1.353 . S
C1009 N1011 1.314 . S
C1009 H1050 0.930 . S
C1010 C1008 1.358 . S
C1010 N1011 1.279 . S
C1010 H1051 0.930 . S
N1011 C1009 1.314 . S
N1011 C1010 1.279 . S
C1012 C1014 1.353 . S
C1012 N1015 1.314 . S
C1012 H1018 0.930 . S
C1013 N1015 1.279 . S
C1013 C1016 1.358 . S
C1013 H1019 0.930 . S
C1014 C1012 1.353 . S
C1014 C1017 1.348 . S
C1014 H1052 0.929 . S
N1015 Li970 1.990 . S
N1015 C1012 1.314 . S
N1015 C1013 1.279 . S
C1016 C1013 1.358 . S
C1016 C1017 1.356 . S
C1016 H1053 0.930 1_545 S
C1017 C1014 1.348 . S
C1017 C1016 1.356 . S
H1018 C1012 0.930 . S
H1019 C1013 0.930 . S
C1020 N1021 1.314 . S
C1020 C1022 1.353 . S
C1020 H1026 0.930 . S
N1021 Li971 1.990 . S
N1021 C1020 1.314 . S
N1021 C1024 1.279 . S
C1022 C1020 1.353 . S
C1022 C1025 1.348 . S
C1022 H1054 0.929 . S
C1023 C1024 1.358 . S
C1023 C1025 1.356 . S
C1023 H1055 0.930 . S
C1024 N1021 1.279 . S
C1024 C1023 1.358 . S
C1024 H1027 0.930 . S
C1025 C1022 1.348 . S
C1025 C1023 1.356 . S
H1026 C1020 0.930 . S
H1027 C1024 0.930 . S
O1028 Li968 1.956 . S
O1028 Li969 1.970 . S
O1028 Li970 1.961 . S
O1028 C972 1.325 . S
O1029 Li968 1.970 . S
O1029 Li969 1.956 . S
O1029 Li971 1.961 . S
O1029 C978 1.325 . S
O1030 Li968 1.961 . S
O1030 Li970 1.956 . S
O1030 Li971 1.970 . S
O1030 C1000 1.325 . S
O1031 Li969 1.961 . S
O1031 Li970 1.970 . S
O1031 Li971 1.956 . S
O1031 C1006 1.325 . S
H1032 C974 0.929 . S
H1033 C975 0.930 . S
H1034 C976 0.930 . S
H1035 C977 0.930 . S
H1036 C979 0.930 . S
H1037 C981 0.929 . S
H1038 C982 0.930 . S
H1039 C983 0.930 . S
H1040 C986 0.930 . S
H1041 C989 0.929 . S
H1042 C994 0.929 . S
H1043 C995 0.930 . S
H1044 C1002 0.929 . S
H1045 C1003 0.930 . S
H1046 C1004 0.919 1_565 S
H1047 C1005 0.930 1_565 S
H1048 C1007 0.929 . S
H1049 C1008 0.930 . S
H1050 C1009 0.930 . S
H1051 C1010 0.930 . S
H1052 C1014 0.929 . S
H1053 C1016 0.930 1_565 S
H1054 C1022 0.929 . S
H1055 C1023 0.930 . S
Li1056 N1073 1.990 . S
Li1056 O1116 1.956 . S
Li1056 O1117 1.970 . S
Li1056 O1118 1.961 . S
Li1057 N1081 1.990 . S
Li1057 O1116 1.970 . S
Li1057 O1117 1.956 . S
Li1057 O1119 1.961 . S
Li1058 N1103 1.990 . S
Li1058 O1116 1.961 . S
Li1058 O1118 1.956 . S
Li1058 O1119 1.970 . S
Li1059 N1109 1.990 . S
Li1059 O1117 1.961 . S
Li1059 O1118 1.970 . S
Li1059 O1119 1.956 . S
C1060 C1062 1.348 . S
C1060 C1063 1.356 . S
C1060 O1116 1.325 . S
N1061 C1064 1.314 . S
N1061 C1065 1.279 . S
C1062 C1060 1.348 . S
C1062 C1064 1.353 . S
C1062 H1120 0.929 . S
C1063 C1060 1.356 . S
C1063 C1065 1.358 . S
C1063 H1121 0.930 . S
C1064 N1061 1.314 . S
C1064 C1062 1.353 . S
C1064 H1122 0.930 . S
C1065 N1061 1.279 . S
C1065 C1063 1.358 . S
C1065 H1123 0.930 . S
C1066 C1069 1.348 . S
C1066 C1070 1.356 . S
C1066 O1117 1.325 . S
C1067 N1068 1.279 1_565 S
C1067 C1070 1.358 . S
C1067 H1124 0.930 1_565 S
N1068 C1067 1.279 1_545 S
N1068 C1071 1.314 1_545 S
C1069 C1066 1.348 . S
C1069 C1071 1.353 . S
C1069 H1125 0.929 . S
C1070 C1066 1.356 . S
C1070 C1067 1.358 . S
C1070 H1126 0.930 . S
C1071 N1068 1.314 1_565 S
C1071 C1069 1.353 . S
C1071 H1127 0.930 1_565 S
C1072 N1073 1.314 . S
C1072 C1077 1.353 . S
C1072 H1078 0.930 . S
N1073 Li1056 1.990 . S
N1073 C1072 1.314 . S
N1073 C1075 1.279 . S
C1074 C1075 1.358 . S
C1074 C1076 1.356 . S
C1074 H1128 0.930 . S
C1075 N1073 1.279 . S
C1075 C1074 1.358 . S
C1075 H1079 0.930 . S
C1076 C1074 1.356 . S
C1076 C1077 1.348 . S
C1077 C1072 1.353 . S
C1077 C1076 1.348 . S
C1077 H1129 0.929 . S
H1078 C1072 0.930 . S
H1079 C1075 0.930 . S
C1080 N1081 1.314 . S
C1080 C1082 1.353 . S
C1080 H1086 0.930 . S
N1081 Li1057 1.990 . S
N1081 C1080 1.314 . S
N1081 C1084 1.279 . S
C1082 C1080 1.353 . S
C1082 C1085 1.348 . S
C1082 H1130 0.929 . S
C1083 C1084 1.358 . S
C1083 C1085 1.356 . S
C1083 H1131 0.930 1_565 S
C1084 N1081 1.279 . S
C1084 C1083 1.358 . S
C1084 H1087 0.930 . S
C1085 C1082 1.348 . S
C1085 C1083 1.356 . S
H1086 C1080 0.930 . S
H1087 C1084 0.930 . S
C1088 C1090 1.348 . S
C1088 C1091 1.356 . S
C1088 O1118 1.325 . S
N1089 C1092 1.314 . S
N1089 C1093 1.279 . S
C1090 C1088 1.348 . S
C1090 C1092 1.353 . S
C1090 H1132 0.929 . S
C1091 C1088 1.356 . S
C1091 C1093 1.358 . S
C1091 H1133 0.930 . S
C1092 N1089 1.314 . S
C1092 C1090 1.353 . S
C1092 H1134 0.930 . S
C1093 N1089 1.279 . S
C1093 C1091 1.358 . S
C1093 H1135 0.930 . S
C1094 C1095 1.348 . S
C1094 C1096 1.356 . S
C1094 O1119 1.325 . S
C1095 C1094 1.348 . S
C1095 C1097 1.353 . S
C1095 H1136 0.929 . S
C1096 C1094 1.356 . S
C1096 C1098 1.358 . S
C1096 H1137 0.930 . S
C1097 C1095 1.353 . S
C1097 N1099 1.314 . S
C1097 H1138 0.930 . S
C1098 C1096 1.358 . S
C1098 N1099 1.279 . S
C1098 H1139 0.930 . S
N1099 C1097 1.314 . S
N1099 C1098 1.279 . S
C1100 C1102 1.353 . S
C1100 N1103 1.314 . S
C1100 H1106 0.930 . S
C1101 N1103 1.279 . S
C1101 C1104 1.358 . S
C1101 H1107 0.930 . S
C1102 C1100 1.353 . S
C1102 C1105 1.348 . S
C1102 H1140 0.929 . S
N1103 Li1058 1.990 . S
N1103 C1100 1.314 . S
N1103 C1101 1.279 . S
C1104 C1101 1.358 . S
C1104 C1105 1.356 . S
C1104 H1141 0.930 . S
C1105 C1102 1.348 . S
C1105 C1104 1.356 . S
H1106 C1100 0.930 . S
H1107 C1101 0.930 . S
C1108 N1109 1.314 . S
C1108 C1110 1.353 . S
C1108 H1114 0.930 . S
N1109 Li1059 1.990 . S
N1109 C1108 1.314 . S
N1109 C1112 1.279 . S
C1110 C1108 1.353 . S
C1110 C1113 1.348 . S
C1110 H1142 0.929 . S
C1111 C1112 1.358 . S
C1111 C1113 1.356 . S
C1111 H1143 0.930 . S
C1112 N1109 1.279 . S
C1112 C1111 1.358 . S
C1112 H1115 0.930 . S
C1113 C1110 1.348 . S
C1113 C1111 1.356 . S
H1114 C1108 0.930 . S
H1115 C1112 0.930 . S
O1116 Li1056 1.956 . S
O1116 Li1057 1.970 . S
O1116 Li1058 1.961 . S
O1116 C1060 1.325 . S
O1117 Li1056 1.970 . S
O1117 Li1057 1.956 . S
O1117 Li1059 1.961 . S
O1117 C1066 1.325 . S
O1118 Li1056 1.961 . S
O1118 Li1058 1.956 . S
O1118 Li1059 1.970 . S
O1118 C1088 1.325 . S
O1119 Li1057 1.961 . S
O1119 Li1058 1.970 . S
O1119 Li1059 1.956 . S
O1119 C1094 1.325 . S
H1120 C1062 0.929 . S
H1121 C1063 0.930 . S
H1122 C1064 0.930 . S
H1123 C1065 0.930 . S
H1124 C1067 0.930 1_545 S
H1125 C1069 0.929 . S
H1126 C1070 0.930 . S
H1127 C1071 0.930 1_545 S
H1128 C1074 0.930 . S
H1129 C1077 0.929 . S
H1130 C1082 0.929 . S
H1131 C1083 0.930 1_545 S
H1132 C1090 0.929 . S
H1133 C1091 0.930 . S
H1134 C1092 0.930 . S
H1135 C1093 0.930 . S
H1136 C1095 0.929 . S
H1137 C1096 0.930 . S
H1138 C1097 0.930 . S
H1139 C1098 0.930 . S
H1140 C1102 0.929 . S
H1141 C1104 0.930 . S
H1142 C1110 0.929 . S
H1143 C1111 0.930 . S
Li1144 N1161 1.990 . S
Li1144 O1204 1.956 . S
Li1144 O1205 1.970 . S
Li1144 O1206 1.961 . S
Li1145 N1169 1.990 . S
Li1145 O1204 1.970 . S
Li1145 O1205 1.956 . S
Li1145 O1207 1.961 . S
Li1146 N1191 1.990 . S
Li1146 O1204 1.961 . S
Li1146 O1206 1.956 . S
Li1146 O1207 1.970 . S
Li1147 N1197 1.990 . S
Li1147 O1205 1.961 . S
Li1147 O1206 1.970 . S
Li1147 O1207 1.956 . S
C1148 C1150 1.348 . S
C1148 C1151 1.356 . S
C1148 O1204 1.325 . S
N1149 C1152 1.314 . S
N1149 C1153 1.279 . S
C1150 C1148 1.348 . S
C1150 C1152 1.353 . S
C1150 H1208 0.929 . S
C1151 C1148 1.356 . S
C1151 C1153 1.358 . S
C1151 H1209 0.930 . S
C1152 N1149 1.314 . S
C1152 C1150 1.353 . S
C1152 H1210 0.930 . S
C1153 N1149 1.279 . S
C1153 C1151 1.358 . S
C1153 H1211 0.930 . S
C1154 C1157 1.348 . S
C1154 C1158 1.356 . S
C1154 O1205 1.325 . S
C1155 N1156 1.279 . S
C1155 C1158 1.358 . S
C1155 H1212 0.930 . S
N1156 C1155 1.279 . S
N1156 C1159 1.314 . S
C1157 C1154 1.348 . S
C1157 C1159 1.353 . S
C1157 H1213 0.929 . S
C1158 C1154 1.356 . S
C1158 C1155 1.358 . S
C1158 H1214 0.930 . S
C1159 N1156 1.314 . S
C1159 C1157 1.353 . S
C1159 H1215 0.930 . S
C1160 N1161 1.314 . S
C1160 C1165 1.353 . S
C1160 H1166 0.930 . S
N1161 Li1144 1.990 . S
N1161 C1160 1.314 . S
N1161 C1163 1.279 . S
C1162 C1163 1.358 . S
C1162 C1164 1.356 . S
C1162 H1216 0.930 . S
C1163 N1161 1.279 . S
C1163 C1162 1.358 . S
C1163 H1167 0.930 . S
C1164 C1162 1.356 . S
C1164 C1165 1.348 . S
C1165 C1160 1.353 . S
C1165 C1164 1.348 . S
C1165 H1217 0.929 . S
H1166 C1160 0.930 . S
H1167 C1163 0.930 . S
C1168 N1169 1.314 . S
C1168 C1170 1.353 . S
C1168 H1174 0.930 . S
N1169 Li1145 1.990 . S
N1169 C1168 1.314 . S
N1169 C1172 1.279 . S
C1170 C1168 1.353 . S
C1170 C1173 1.348 . S
C1170 H1218 0.929 . S
C1171 C1172 1.358 . S
C1171 C1173 1.356 . S
C1171 H1219 0.930 . S
C1172 N1169 1.279 . S
C1172 C1171 1.358 . S
C1172 H1175 0.930 . S
C1173 C1170 1.348 . S
C1173 C1171 1.356 . S
H1174 C1168 0.930 . S
H1175 C1172 0.930 . S
C1176 C1178 1.348 . S
C1176 C1179 1.356 . S
C1176 O1206 1.325 . S
N1177 C1180 1.314 . S
N1177 C1181 1.279 . S
C1178 C1176 1.348 . S
C1178 C1180 1.353 . S
C1178 H1220 0.929 . S
C1179 C1176 1.356 . S
C1179 C1181 1.358 . S
C1179 H1221 0.930 . S
C1180 N1177 1.314 . S
C1180 C1178 1.353 . S
C1180 H1222 0.930 . S
C1181 N1177 1.279 . S
C1181 C1179 1.358 . S
C1181 H1223 0.930 . S
C1182 C1183 1.348 . S
C1182 C1184 1.356 . S
C1182 O1207 1.325 . S
C1183 C1182 1.348 . S
C1183 C1185 1.364 . S
C1183 H1224 0.929 . S
C1184 C1182 1.356 . S
C1184 C1186 1.358 . S
C1184 H1225 0.930 . S
C1185 C1183 1.364 . S
C1185 N1187 1.313 1_455 S
C1185 H1226 0.919 1_455 S
C1186 C1184 1.358 . S
C1186 N1187 1.279 1_455 S
C1186 H1227 0.930 1_455 S
N1187 C1185 1.313 1_655 S
N1187 C1186 1.279 1_655 S
C1188 C1190 1.353 . S
C1188 N1191 1.314 . S
C1188 H1194 0.930 . S
C1189 N1191 1.279 . S
C1189 C1192 1.358 . S
C1189 H1195 0.930 . S
C1190 C1188 1.353 . S
C1190 C1193 1.348 . S
C1190 H1228 0.929 . S
N1191 Li1146 1.990 . S
N1191 C1188 1.314 . S
N1191 C1189 1.279 . S
C1192 C1189 1.358 . S
C1192 C1193 1.356 . S
C1192 H1229 0.930 . S
C1193 C1190 1.348 . S
C1193 C1192 1.356 . S
H1194 C1188 0.930 . S
H1195 C1189 0.930 . S
C1196 N1197 1.314 . S
C1196 C1198 1.353 . S
C1196 H1202 0.930 . S
N1197 Li1147 1.990 . S
N1197 C1196 1.314 . S
N1197 C1200 1.279 . S
C1198 C1196 1.353 . S
C1198 C1201 1.348 . S
C1198 H1230 0.929 . S
C1199 C1200 1.358 . S
C1199 C1201 1.356 . S
C1199 H1231 0.930 1_455 S
C1200 N1197 1.279 . S
C1200 C1199 1.358 . S
C1200 H1203 0.930 . S
C1201 C1198 1.348 . S
C1201 C1199 1.356 . S
H1202 C1196 0.930 . S
H1203 C1200 0.930 . S
O1204 Li1144 1.956 . S
O1204 Li1145 1.970 . S
O1204 Li1146 1.961 . S
O1204 C1148 1.325 . S
O1205 Li1144 1.970 . S
O1205 Li1145 1.956 . S
O1205 Li1147 1.961 . S
O1205 C1154 1.325 . S
O1206 Li1144 1.961 . S
O1206 Li1146 1.956 . S
O1206 Li1147 1.970 . S
O1206 C1176 1.325 . S
O1207 Li1145 1.961 . S
O1207 Li1146 1.970 . S
O1207 Li1147 1.956 . S
O1207 C1182 1.325 . S
H1208 C1150 0.929 . S
H1209 C1151 0.930 . S
H1210 C1152 0.930 . S
H1211 C1153 0.930 . S
H1212 C1155 0.930 . S
H1213 C1157 0.929 . S
H1214 C1158 0.930 . S
H1215 C1159 0.930 . S
H1216 C1162 0.930 . S
H1217 C1165 0.929 . S
H1218 C1170 0.929 . S
H1219 C1171 0.930 . S
H1220 C1178 0.929 . S
H1221 C1179 0.930 . S
H1222 C1180 0.930 . S
H1223 C1181 0.930 . S
H1224 C1183 0.929 . S
H1225 C1184 0.930 . S
H1226 C1185 0.919 1_655 S
H1227 C1186 0.930 1_655 S
H1228 C1190 0.929 . S
H1229 C1192 0.930 . S
H1230 C1198 0.929 . S
H1231 C1199 0.930 1_655 S
Li1232 N1249 1.990 . S
Li1232 O1292 1.956 . S
Li1232 O1293 1.970 . S
Li1232 O1294 1.961 . S
Li1233 N1257 1.990 . S
Li1233 O1292 1.970 . S
Li1233 O1293 1.956 . S
Li1233 O1295 1.961 . S
Li1234 N1279 1.990 . S
Li1234 O1292 1.961 . S
Li1234 O1294 1.956 . S
Li1234 O1295 1.970 . S
Li1235 N1285 1.990 . S
Li1235 O1293 1.961 . S
Li1235 O1294 1.970 . S
Li1235 O1295 1.956 . S
C1236 C1238 1.348 . S
C1236 C1239 1.356 . S
C1236 O1292 1.325 . S
N1237 C1240 1.314 . S
N1237 C1241 1.279 . S
C1238 C1236 1.348 . S
C1238 C1240 1.353 . S
C1238 H1296 0.929 . S
C1239 C1236 1.356 . S
C1239 C1241 1.358 . S
C1239 H1297 0.930 . S
C1240 N1237 1.314 . S
C1240 C1238 1.353 . S
C1240 H1298 0.930 . S
C1241 N1237 1.279 . S
C1241 C1239 1.358 . S
C1241 H1299 0.930 . S
C1242 C1245 1.348 . S
C1242 C1246 1.356 . S
C1242 O1293 1.325 . S
C1243 N1244 1.279 . S
C1243 C1246 1.358 . S
C1243 H1300 0.930 . S
N1244 C1243 1.279 . S
N1244 C1247 1.314 . S
C1245 C1242 1.348 . S
C1245 C1247 1.353 . S
C1245 H1301 0.929 . S
C1246 C1242 1.356 . S
C1246 C1243 1.358 . S
C1246 H1302 0.930 . S
C1247 N1244 1.314 . S
C1247 C1245 1.353 . S
C1247 H1303 0.930 . S
C1248 N1249 1.314 . S
C1248 C1253 1.353 . S
C1248 H1254 0.930 . S
N1249 Li1232 1.990 . S
N1249 C1248 1.314 . S
N1249 C1251 1.279 . S
C1250 C1251 1.358 . S
C1250 C1252 1.356 . S
C1250 H1304 0.930 . S
C1251 N1249 1.279 . S
C1251 C1250 1.358 . S
C1251 H1255 0.930 . S
C1252 C1250 1.356 . S
C1252 C1253 1.348 . S
C1253 C1248 1.353 . S
C1253 C1252 1.348 . S
C1253 H1305 0.929 . S
H1254 C1248 0.930 . S
H1255 C1251 0.930 . S
C1256 N1257 1.314 . S
C1256 C1258 1.353 . S
C1256 H1262 0.930 . S
N1257 Li1233 1.990 . S
N1257 C1256 1.314 . S
N1257 C1260 1.279 . S
C1258 C1256 1.353 . S
C1258 C1261 1.348 . S
C1258 H1306 0.929 . S
C1259 C1260 1.358 . S
C1259 C1261 1.356 . S
C1259 H1307 0.930 . S
C1260 N1257 1.279 . S
C1260 C1259 1.358 . S
C1260 H1263 0.930 . S
C1261 C1258 1.348 . S
C1261 C1259 1.356 . S
H1262 C1256 0.930 . S
H1263 C1260 0.930 . S
C1264 C1266 1.348 . S
C1264 C1267 1.356 . S
C1264 O1294 1.325 . S
N1265 C1268 1.314 . S
N1265 C1269 1.279 . S
C1266 C1264 1.348 . S
C1266 C1268 1.353 . S
C1266 H1308 0.929 . S
C1267 C1264 1.356 . S
C1267 C1269 1.358 . S
C1267 H1309 0.930 . S
C1268 N1265 1.314 . S
C1268 C1266 1.353 . S
C1268 H1310 0.930 . S
C1269 N1265 1.279 . S
C1269 C1267 1.358 . S
C1269 H1311 0.930 . S
C1270 C1271 1.348 . S
C1270 C1272 1.356 . S
C1270 O1295 1.325 . S
C1271 C1270 1.348 . S
C1271 C1273 1.353 . S
C1271 H1312 0.929 . S
C1272 C1270 1.356 . S
C1272 C1274 1.358 . S
C1272 H1313 0.930 . S
C1273 C1271 1.353 . S
C1273 N1275 1.314 . S
C1273 H1314 0.930 . S
C1274 C1272 1.358 . S
C1274 N1275 1.279 . S
C1274 H1315 0.930 . S
N1275 C1273 1.314 . S
N1275 C1274 1.279 . S
C1276 C1278 1.353 . S
C1276 N1279 1.314 . S
C1276 H1282 0.930 . S
C1277 N1279 1.279 . S
C1277 C1280 1.358 . S
C1277 H1283 0.930 . S
C1278 C1276 1.353 . S
C1278 C1281 1.348 . S
C1278 H1316 0.929 . S
N1279 Li1234 1.990 . S
N1279 C1276 1.314 . S
N1279 C1277 1.279 . S
C1280 C1277 1.358 . S
C1280 C1281 1.356 . S
C1280 H1317 0.930 . S
C1281 C1278 1.348 . S
C1281 C1280 1.356 . S
H1282 C1276 0.930 . S
H1283 C1277 0.930 . S
C1284 N1285 1.314 . S
C1284 C1286 1.353 . S
C1284 H1290 0.930 . S
N1285 Li1235 1.990 . S
N1285 C1284 1.314 . S
N1285 C1288 1.279 . S
C1286 C1284 1.353 . S
C1286 C1289 1.348 . S
C1286 H1318 0.929 . S
C1287 C1288 1.358 . S
C1287 C1289 1.356 . S
C1287 H1319 0.930 . S
C1288 N1285 1.279 . S
C1288 C1287 1.358 . S
C1288 H1291 0.930 . S
C1289 C1286 1.348 . S
C1289 C1287 1.356 . S
H1290 C1284 0.930 . S
H1291 C1288 0.930 . S
O1292 Li1232 1.956 . S
O1292 Li1233 1.970 . S
O1292 Li1234 1.961 . S
O1292 C1236 1.325 . S
O1293 Li1232 1.970 . S
O1293 Li1233 1.956 . S
O1293 Li1235 1.961 . S
O1293 C1242 1.325 . S
O1294 Li1232 1.961 . S
O1294 Li1234 1.956 . S
O1294 Li1235 1.970 . S
O1294 C1264 1.325 . S
O1295 Li1233 1.961 . S
O1295 Li1234 1.970 . S
O1295 Li1235 1.956 . S
O1295 C1270 1.325 . S
H1296 C1238 0.929 . S
H1297 C1239 0.930 . S
H1298 C1240 0.930 . S
H1299 C1241 0.930 . S
H1300 C1243 0.930 . S
H1301 C1245 0.929 . S
H1302 C1246 0.930 . S
H1303 C1247 0.930 . S
H1304 C1250 0.930 . S
H1305 C1253 0.929 . S
H1306 C1258 0.929 . S
H1307 C1259 0.930 . S
H1308 C1266 0.929 . S
H1309 C1267 0.930 . S
H1310 C1268 0.930 . S
H1311 C1269 0.930 . S
H1312 C1271 0.929 . S
H1313 C1272 0.930 . S
H1314 C1273 0.930 . S
H1315 C1274 0.930 . S
H1316 C1278 0.929 . S
H1317 C1280 0.930 . S
H1318 C1286 0.929 . S
H1319 C1287 0.930 . S
Li1320 N1337 1.990 . S
Li1320 O1380 1.956 . S
Li1320 O1381 1.970 . S
Li1320 O1382 1.961 . S
Li1321 N1345 1.990 . S
Li1321 O1380 1.970 . S
Li1321 O1381 1.956 . S
Li1321 O1383 1.961 . S
Li1322 N1367 1.990 . S
Li1322 O1380 1.961 . S
Li1322 O1382 1.956 . S
Li1322 O1383 1.970 . S
Li1323 N1373 1.990 . S
Li1323 O1381 1.961 . S
Li1323 O1382 1.970 . S
Li1323 O1383 1.956 . S
C1324 C1326 1.348 . S
C1324 C1327 1.356 . S
C1324 O1380 1.325 . S
N1325 C1328 1.314 . S
N1325 C1329 1.279 . S
C1326 C1324 1.348 . S
C1326 C1328 1.353 . S
C1326 H1384 0.929 . S
C1327 C1324 1.356 . S
C1327 C1329 1.358 . S
C1327 H1385 0.930 . S
C1328 N1325 1.314 . S
C1328 C1326 1.353 . S
C1328 H1386 0.930 . S
C1329 N1325 1.279 . S
C1329 C1327 1.358 . S
C1329 H1387 0.930 . S
C1330 C1333 1.348 . S
C1330 C1334 1.356 . S
C1330 O1381 1.325 . S
C1331 N1332 1.279 . S
C1331 C1334 1.358 . S
C1331 H1388 0.930 . S
N1332 C1331 1.279 . S
N1332 C1335 1.314 . S
C1333 C1330 1.348 . S
C1333 C1335 1.353 . S
C1333 H1389 0.929 . S
C1334 C1330 1.356 . S
C1334 C1331 1.358 . S
C1334 H1390 0.930 . S
C1335 N1332 1.314 . S
C1335 C1333 1.353 . S
C1335 H1391 0.930 1_565 S
C1336 N1337 1.314 . S
C1336 C1341 1.353 . S
C1336 H1342 0.930 . S
N1337 Li1320 1.990 . S
N1337 C1336 1.314 . S
N1337 C1339 1.279 . S
C1338 C1339 1.358 . S
C1338 C1340 1.356 . S
C1338 H1392 0.930 . S
C1339 N1337 1.279 . S
C1339 C1338 1.358 . S
C1339 H1343 0.930 . S
C1340 C1338 1.356 . S
C1340 C1341 1.348 . S
C1341 C1336 1.353 . S
C1341 C1340 1.348 . S
C1341 H1393 0.929 . S
H1342 C1336 0.930 . S
H1343 C1339 0.930 . S
C1344 N1345 1.314 . S
C1344 C1346 1.353 . S
C1344 H1350 0.930 . S
N1345 Li1321 1.990 . S
N1345 C1344 1.314 . S
N1345 C1348 1.279 . S
C1346 C1344 1.353 . S
C1346 C1349 1.348 . S
C1346 H1394 0.929 . S
C1347 C1348 1.358 . S
C1347 C1349 1.356 . S
C1347 H1395 0.930 . S
C1348 N1345 1.279 . S
C1348 C1347 1.358 . S
C1348 H1351 0.930 . S
C1349 C1346 1.348 . S
C1349 C1347 1.356 . S
H1350 C1344 0.930 . S
H1351 C1348 0.930 . S
C1352 C1354 1.348 . S
C1352 C1355 1.356 . S
C1352 O1382 1.325 . S
N1353 C1356 1.314 . S
N1353 C1357 1.279 . S
C1354 C1352 1.348 . S
C1354 C1356 1.353 . S
C1354 H1396 0.929 . S
C1355 C1352 1.356 . S
C1355 C1357 1.358 . S
C1355 H1397 0.930 . S
C1356 N1353 1.314 . S
C1356 C1354 1.353 . S
C1356 H1398 0.930 . S
C1357 N1353 1.279 . S
C1357 C1355 1.358 . S
C1357 H1399 0.930 . S
C1358 C1359 1.348 . S
C1358 C1360 1.356 . S
C1358 O1383 1.325 . S
C1359 C1358 1.348 . S
C1359 C1361 1.353 . S
C1359 H1400 0.929 . S
C1360 C1358 1.356 . S
C1360 C1362 1.358 . S
C1360 H1401 0.930 . S
C1361 C1359 1.353 . S
C1361 N1363 1.314 . S
C1361 H1402 0.930 . S
C1362 C1360 1.358 . S
C1362 N1363 1.279 . S
C1362 H1403 0.930 . S
N1363 C1361 1.314 . S
N1363 C1362 1.279 . S
C1364 C1366 1.353 . S
C1364 N1367 1.314 . S
C1364 H1370 0.930 . S
C1365 N1367 1.279 . S
C1365 C1368 1.358 . S
C1365 H1371 0.930 . S
C1366 C1364 1.353 . S
C1366 C1369 1.348 . S
C1366 H1404 0.929 . S
N1367 Li1322 1.990 . S
N1367 C1364 1.314 . S
N1367 C1365 1.279 . S
C1368 C1365 1.358 . S
C1368 C1369 1.356 . S
C1368 H1405 0.930 . S
C1369 C1366 1.348 . S
C1369 C1368 1.356 . S
H1370 C1364 0.930 . S
H1371 C1365 0.930 . S
C1372 N1373 1.314 . S
C1372 C1374 1.353 . S
C1372 H1378 0.930 . S
N1373 Li1323 1.990 . S
N1373 C1372 1.314 . S
N1373 C1376 1.279 . S
C1374 C1372 1.353 . S
C1374 C1377 1.348 . S
C1374 H1406 0.929 . S
C1375 C1376 1.358 . S
C1375 C1377 1.356 . S
C1375 H1407 0.930 . S
C1376 N1373 1.279 . S
C1376 C1375 1.358 . S
C1376 H1379 0.930 . S
C1377 C1374 1.348 . S
C1377 C1375 1.356 . S
H1378 C1372 0.930 . S
H1379 C1376 0.930 . S
O1380 Li1320 1.956 . S
O1380 Li1321 1.970 . S
O1380 Li1322 1.961 . S
O1380 C1324 1.325 . S
O1381 Li1320 1.970 . S
O1381 Li1321 1.956 . S
O1381 Li1323 1.961 . S
O1381 C1330 1.325 . S
O1382 Li1320 1.961 . S
O1382 Li1322 1.956 . S
O1382 Li1323 1.970 . S
O1382 C1352 1.325 . S
O1383 Li1321 1.961 . S
O1383 Li1322 1.970 . S
O1383 Li1323 1.956 . S
O1383 C1358 1.325 . S
H1384 C1326 0.929 . S
H1385 C1327 0.930 . S
H1386 C1328 0.930 . S
H1387 C1329 0.930 . S
H1388 C1331 0.930 . S
H1389 C1333 0.929 . S
H1390 C1334 0.930 . S
H1391 C1335 0.930 1_545 S
H1392 C1338 0.930 . S
H1393 C1341 0.929 . S
H1394 C1346 0.929 . S
H1395 C1347 0.930 . S
H1396 C1354 0.929 . S
H1397 C1355 0.930 . S
H1398 C1356 0.930 . S
H1399 C1357 0.930 . S
H1400 C1359 0.929 . S
H1401 C1360 0.930 . S
H1402 C1361 0.930 . S
H1403 C1362 0.930 . S
H1404 C1366 0.929 . S
H1405 C1368 0.930 . S
H1406 C1374 0.929 . S
H1407 C1375 0.930 . S
Li1408 N1425 1.990 . S
Li1408 O1468 1.956 . S
Li1408 O1469 1.970 . S
Li1408 O1470 1.961 . S
Li1409 N1433 1.990 . S
Li1409 O1468 1.970 . S
Li1409 O1469 1.956 . S
Li1409 O1471 1.961 . S
Li1410 N1455 1.990 . S
Li1410 O1468 1.961 . S
Li1410 O1470 1.956 . S
Li1410 O1471 1.970 . S
Li1411 N1461 1.990 . S
Li1411 O1469 1.961 . S
Li1411 O1470 1.970 . S
Li1411 O1471 1.956 . S
C1412 C1414 1.348 . S
C1412 C1415 1.356 . S
C1412 O1468 1.325 . S
N1413 C1416 1.314 . S
N1413 C1417 1.279 . S
C1414 C1412 1.348 . S
C1414 C1416 1.353 . S
C1414 H1472 0.929 . S
C1415 C1412 1.356 . S
C1415 C1417 1.358 . S
C1415 H1473 0.930 . S
C1416 N1413 1.314 . S
C1416 C1414 1.353 . S
C1416 H1474 0.930 . S
C1417 N1413 1.279 . S
C1417 C1415 1.358 . S
C1417 H1475 0.930 . S
C1418 C1421 1.348 . S
C1418 C1422 1.356 . S
C1418 O1469 1.325 . S
C1419 N1420 1.279 . S
C1419 C1422 1.358 . S
C1419 H1476 0.930 . S
N1420 C1419 1.279 . S
N1420 C1423 1.314 . S
C1421 C1418 1.348 . S
C1421 C1423 1.353 . S
C1421 H1477 0.929 . S
C1422 C1418 1.356 . S
C1422 C1419 1.358 . S
C1422 H1478 0.930 . S
C1423 N1420 1.314 . S
C1423 C1421 1.353 . S
C1423 H1479 0.930 . S
C1424 N1425 1.314 . S
C1424 C1429 1.353 . S
C1424 H1430 0.930 . S
N1425 Li1408 1.990 . S
N1425 C1424 1.314 . S
N1425 C1427 1.279 . S
C1426 C1427 1.358 . S
C1426 C1428 1.356 . S
C1426 H1480 0.930 . S
C1427 N1425 1.279 . S
C1427 C1426 1.358 . S
C1427 H1431 0.930 . S
C1428 C1426 1.356 . S
C1428 C1429 1.348 . S
C1429 C1424 1.353 . S
C1429 C1428 1.348 . S
C1429 H1481 0.929 . S
H1430 C1424 0.930 . S
H1431 C1427 0.930 . S
C1432 N1433 1.314 . S
C1432 C1434 1.353 . S
C1432 H1438 0.930 . S
N1433 Li1409 1.990 . S
N1433 C1432 1.314 . S
N1433 C1436 1.279 . S
C1434 C1432 1.353 . S
C1434 C1437 1.348 . S
C1434 H1482 0.929 . S
C1435 C1436 1.358 . S
C1435 C1437 1.356 . S
C1435 H1483 0.930 . S
C1436 N1433 1.279 . S
C1436 C1435 1.358 . S
C1436 H1439 0.930 . S
C1437 C1434 1.348 . S
C1437 C1435 1.356 . S
H1438 C1432 0.930 . S
H1439 C1436 0.930 . S
C1440 C1442 1.348 . S
C1440 C1443 1.356 . S
C1440 O1470 1.325 . S
N1441 C1444 1.314 . S
N1441 C1445 1.279 . S
C1442 C1440 1.348 . S
C1442 C1444 1.353 . S
C1442 H1484 0.929 . S
C1443 C1440 1.356 . S
C1443 C1445 1.358 . S
C1443 H1485 0.930 . S
C1444 N1441 1.314 . S
C1444 C1442 1.353 . S
C1444 H1486 0.930 1_455 S
C1445 N1441 1.279 . S
C1445 C1443 1.358 . S
C1445 H1487 0.930 . S
C1446 C1447 1.348 . S
C1446 C1448 1.356 . S
C1446 O1471 1.325 . S
C1447 C1446 1.348 . S
C1447 C1449 1.353 . S
C1447 H1488 0.929 . S
C1448 C1446 1.356 . S
C1448 C1450 1.358 . S
C1448 H1489 0.930 . S
C1449 C1447 1.353 . S
C1449 N1451 1.314 . S
C1449 H1490 0.930 . S
C1450 C1448 1.358 . S
C1450 N1451 1.279 . S
C1450 H1491 0.930 . S
N1451 C1449 1.314 . S
N1451 C1450 1.279 . S
C1452 C1454 1.353 . S
C1452 N1455 1.314 . S
C1452 H1458 0.930 . S
C1453 N1455 1.279 . S
C1453 C1456 1.358 . S
C1453 H1459 0.930 . S
C1454 C1452 1.353 . S
C1454 C1457 1.348 . S
C1454 H1492 0.929 . S
N1455 Li1410 1.990 . S
N1455 C1452 1.314 . S
N1455 C1453 1.279 . S
C1456 C1453 1.358 . S
C1456 C1457 1.356 . S
C1456 H1493 0.930 . S
C1457 C1454 1.348 . S
C1457 C1456 1.356 . S
H1458 C1452 0.930 . S
H1459 C1453 0.930 . S
C1460 N1461 1.314 . S
C1460 C1462 1.353 . S
C1460 H1466 0.930 . S
N1461 Li1411 1.990 . S
N1461 C1460 1.314 . S
N1461 C1464 1.279 . S
C1462 C1460 1.353 . S
C1462 C1465 1.348 . S
C1462 H1494 0.929 . S
C1463 C1464 1.358 . S
C1463 C1465 1.356 . S
C1463 H1495 0.930 . S
C1464 N1461 1.279 . S
C1464 C1463 1.358 . S
C1464 H1467 0.930 . S
C1465 C1462 1.348 . S
C1465 C1463 1.356 . S
H1466 C1460 0.930 . S
H1467 C1464 0.930 . S
O1468 Li1408 1.956 . S
O1468 Li1409 1.970 . S
O1468 Li1410 1.961 . S
O1468 C1412 1.325 . S
O1469 Li1408 1.970 . S
O1469 Li1409 1.956 . S
O1469 Li1411 1.961 . S
O1469 C1418 1.325 . S
O1470 Li1408 1.961 . S
O1470 Li1410 1.956 . S
O1470 Li1411 1.970 . S
O1470 C1440 1.325 . S
O1471 Li1409 1.961 . S
O1471 Li1410 1.970 . S
O1471 Li1411 1.956 . S
O1471 C1446 1.325 . S
H1472 C1414 0.929 . S
H1473 C1415 0.930 . S
H1474 C1416 0.930 . S
H1475 C1417 0.930 . S
H1476 C1419 0.930 . S
H1477 C1421 0.929 . S
H1478 C1422 0.930 . S
H1479 C1423 0.930 . S
H1480 C1426 0.930 . S
H1481 C1429 0.929 . S
H1482 C1434 0.929 . S
H1483 C1435 0.930 . S
H1484 C1442 0.929 . S
H1485 C1443 0.930 . S
H1486 C1444 0.930 1_655 S
H1487 C1445 0.930 . S
H1488 C1447 0.929 . S
H1489 C1448 0.930 . S
H1490 C1449 0.930 . S
H1491 C1450 0.930 . S
H1492 C1454 0.929 . S
H1493 C1456 0.930 . S
H1494 C1462 0.929 . S
H1495 C1463 0.930 . S
Li1496 N1513 1.990 . S
Li1496 O1556 1.956 . S
Li1496 O1557 1.970 . S
Li1496 O1558 1.961 . S
Li1497 N1521 1.990 . S
Li1497 O1556 1.970 . S
Li1497 O1557 1.956 . S
Li1497 O1559 1.961 . S
Li1498 N1543 1.990 . S
Li1498 O1556 1.961 . S
Li1498 O1558 1.956 . S
Li1498 O1559 1.970 . S
Li1499 N1549 1.990 . S
Li1499 O1557 1.961 . S
Li1499 O1558 1.970 . S
Li1499 O1559 1.956 . S
C1500 C1502 1.348 . S
C1500 C1503 1.356 . S
C1500 O1556 1.325 . S
N1501 C1504 1.314 . S
N1501 C1505 1.279 . S
C1502 C1500 1.348 . S
C1502 C1504 1.353 . S
C1502 H1560 0.929 . S
C1503 C1500 1.356 . S
C1503 C1505 1.358 . S
C1503 H1561 0.930 . S
C1504 N1501 1.314 . S
C1504 C1502 1.353 . S
C1504 H1562 0.930 . S
C1505 N1501 1.279 . S
C1505 C1503 1.358 . S
C1505 H1563 0.930 . S
C1506 C1509 1.348 . S
C1506 C1510 1.356 . S
C1506 O1557 1.325 . S
C1507 N1508 1.279 . S
C1507 C1510 1.358 . S
C1507 H1564 0.930 . S
N1508 C1507 1.279 . S
N1508 C1511 1.314 . S
C1509 C1506 1.348 . S
C1509 C1511 1.353 . S
C1509 H1565 0.929 . S
C1510 C1506 1.356 . S
C1510 C1507 1.358 . S
C1510 H1566 0.930 . S
C1511 N1508 1.314 . S
C1511 C1509 1.353 . S
C1511 H1567 0.930 . S
C1512 N1513 1.314 . S
C1512 C1517 1.353 . S
C1512 H1518 0.930 . S
N1513 Li1496 1.990 . S
N1513 C1512 1.314 . S
N1513 C1515 1.279 . S
C1514 C1515 1.358 . S
C1514 C1516 1.356 . S
C1514 H1568 0.930 . S
C1515 N1513 1.279 . S
C1515 C1514 1.358 . S
C1515 H1519 0.930 . S
C1516 C1514 1.356 . S
C1516 C1517 1.348 . S
C1517 C1512 1.353 . S
C1517 C1516 1.348 . S
C1517 H1569 0.929 . S
H1518 C1512 0.930 . S
H1519 C1515 0.930 . S
C1520 N1521 1.314 . S
C1520 C1522 1.353 . S
C1520 H1526 0.930 . S
N1521 Li1497 1.990 . S
N1521 C1520 1.314 . S
N1521 C1524 1.279 . S
C1522 C1520 1.353 . S
C1522 C1525 1.348 . S
C1522 H1570 0.929 . S
C1523 C1524 1.358 . S
C1523 C1525 1.356 . S
C1523 H1571 0.930 . S
C1524 N1521 1.279 . S
C1524 C1523 1.358 . S
C1524 H1527 0.930 . S
C1525 C1522 1.348 . S
C1525 C1523 1.356 . S
H1526 C1520 0.930 . S
H1527 C1524 0.930 . S
C1528 C1530 1.348 . S
C1528 C1531 1.356 . S
C1528 O1558 1.325 . S
N1529 C1532 1.314 . S
N1529 C1533 1.279 . S
C1530 C1528 1.348 . S
C1530 C1532 1.353 . S
C1530 H1572 0.929 . S
C1531 C1528 1.356 . S
C1531 C1533 1.358 . S
C1531 H1573 0.930 . S
C1532 N1529 1.314 . S
C1532 C1530 1.353 . S
C1532 H1574 0.930 . S
C1533 N1529 1.279 . S
C1533 C1531 1.358 . S
C1533 H1575 0.930 . S
C1534 C1535 1.348 . S
C1534 C1536 1.356 . S
C1534 O1559 1.325 . S
C1535 C1534 1.348 . S
C1535 C1537 1.353 . S
C1535 H1576 0.929 . S
C1536 C1534 1.356 . S
C1536 C1538 1.358 . S
C1536 H1577 0.930 . S
C1537 C1535 1.353 . S
C1537 N1539 1.314 . S
C1537 H1578 0.930 . S
C1538 C1536 1.358 . S
C1538 N1539 1.279 . S
C1538 H1579 0.930 . S
N1539 C1537 1.314 . S
N1539 C1538 1.279 . S
C1540 C1542 1.353 . S
C1540 N1543 1.314 . S
C1540 H1546 0.930 . S
C1541 N1543 1.279 . S
C1541 C1544 1.358 . S
C1541 H1547 0.930 . S
C1542 C1540 1.353 . S
C1542 C1545 1.348 . S
C1542 H1580 0.929 . S
N1543 Li1498 1.990 . S
N1543 C1540 1.314 . S
N1543 C1541 1.279 . S
C1544 C1541 1.358 . S
C1544 C1545 1.356 . S
C1544 H1581 0.930 . S
C1545 C1542 1.348 . S
C1545 C1544 1.356 . S
H1546 C1540 0.930 . S
H1547 C1541 0.930 . S
C1548 N1549 1.314 . S
C1548 C1550 1.353 . S
C1548 H1554 0.930 . S
N1549 Li1499 1.990 . S
N1549 C1548 1.314 . S
N1549 C1552 1.279 . S
C1550 C1548 1.353 . S
C1550 C1553 1.348 . S
C1550 H1582 0.929 . S
C1551 C1552 1.358 . S
C1551 C1553 1.356 . S
C1551 H1583 0.930 . S
C1552 N1549 1.279 . S
C1552 C1551 1.358 . S
C1552 H1555 0.930 . S
C1553 C1550 1.348 . S
C1553 C1551 1.356 . S
H1554 C1548 0.930 . S
H1555 C1552 0.930 . S
O1556 Li1496 1.956 . S
O1556 Li1497 1.970 . S
O1556 Li1498 1.961 . S
O1556 C1500 1.325 . S
O1557 Li1496 1.970 . S
O1557 Li1497 1.956 . S
O1557 Li1499 1.961 . S
O1557 C1506 1.325 . S
O1558 Li1496 1.961 . S
O1558 Li1498 1.956 . S
O1558 Li1499 1.970 . S
O1558 C1528 1.325 . S
O1559 Li1497 1.961 . S
O1559 Li1498 1.970 . S
O1559 Li1499 1.956 . S
O1559 C1534 1.325 . S
H1560 C1502 0.929 . S
H1561 C1503 0.930 . S
H1562 C1504 0.930 . S
H1563 C1505 0.930 . S
H1564 C1507 0.930 . S
H1565 C1509 0.929 . S
H1566 C1510 0.930 . S
H1567 C1511 0.930 . S
H1568 C1514 0.930 . S
H1569 C1517 0.929 . S
H1570 C1522 0.929 . S
H1571 C1523 0.930 . S
H1572 C1530 0.929 . S
H1573 C1531 0.930 . S
H1574 C1532 0.930 . S
H1575 C1533 0.930 . S
H1576 C1535 0.929 . S
H1577 C1536 0.930 . S
H1578 C1537 0.930 . S
H1579 C1538 0.930 . S
H1580 C1542 0.929 . S
H1581 C1544 0.930 . S
H1582 C1550 0.929 . S
H1583 C1551 0.930 . S
C900 C29 0.881 . S
C145 C1017 0.832 . S
C812 C233 0.923 . S
C1289 C284 0.881 . S
C372 C1085 0.923 . S
C1201 C497 0.832 . S
C548 C1465 0.935 1_655 S
C1545 C673 0.989 . S
C761 C1340 0.935 1_545 S
C57 C108 2.201 1_455 S
C117 C196 1.990 . S
C49 C205 2.176 1_545 S
C460 C313 2.201 1_565 S
C321 C401 2.176 1_455 S
C469 C409 1.990 . S
C577 C636 2.296 . S
C645 C724 2.231 . S
C585 C733 2.191 . S
C997 C841 2.283 . S
C849 C929 2.196 . S
C937 C988 2.248 . S
C1164 C1113 2.283 . S
C1252 C1173 2.248 . S
C1105 C1261 2.196 . S
C1369 C1525 2.296 . S
C1437 C1377 2.191 . S
C1516 C1428 2.231 . S
C20 C293 2.038 1_554 S
C381 C137 1.886 1_546 S
C489 C225 1.886 1_656 S
C821 C557 2.061 . S
C909 C665 2.020 . S
C753 C1025 2.055 . S
C1349 C1076 2.061 . S
C1457 C1193 2.055 . S
C1553 C1281 2.020 . S
