# Generated by pormake.
# Topology umb, (4)-cn, num edge types: 1
# Building blocks:
#     Node 0, Type 0, BuildingBlock: MUDLON_clean_sbu_0, # of connection points: 4
#     Node 1, Type 0, BuildingBlock: MUDLON_clean_sbu_0, # of connection points: 4
#     Node 2, Type 0, BuildingBlock: MUDLON_clean_sbu_0, # of connection points: 4
#     Node 3, Type 0, BuildingBlock: MUDLON_clean_sbu_0, # of connection points: 4
#     Node 4, Type 0, BuildingBlock: MUDLON_clean_sbu_0, # of connection points: 4
#     Node 5, Type 0, BuildingBlock: MUDLON_clean_sbu_0, # of connection points: 4
#     Node 6, Type 0, BuildingBlock: MUDLON_clean_sbu_0, # of connection points: 4
#     Node 7, Type 0, BuildingBlock: MUDLON_clean_sbu_0, # of connection points: 4
#     Node 8, Type 0, BuildingBlock: MUDLON_clean_sbu_0, # of connection points: 4
#     Node 9, Type 0, BuildingBlock: MUDLON_clean_sbu_0, # of connection points: 4
#     Node 10, Type 0, BuildingBlock: MUDLON_clean_sbu_0, # of connection points: 4
#     Node 11, Type 0, BuildingBlock: MUDLON_clean_sbu_0, # of connection points: 4
#     Edge 12, Type (0, 0), BuildingBlock: AJUNOK_clean_linker_0, # of connection points: 2
#     Edge 13, Type (0, 0), BuildingBlock: AJUNOK_clean_linker_0, # of connection points: 2
#     Edge 14, Type (0, 0), BuildingBlock: AJUNOK_clean_linker_0, # of connection points: 2
#     Edge 15, Type (0, 0), BuildingBlock: AJUNOK_clean_linker_0, # of connection points: 2
#     Edge 16, Type (0, 0), BuildingBlock: AJUNOK_clean_linker_0, # of connection points: 2
#     Edge 17, Type (0, 0), BuildingBlock: AJUNOK_clean_linker_0, # of connection points: 2
#     Edge 18, Type (0, 0), BuildingBlock: AJUNOK_clean_linker_0, # of connection points: 2
#     Edge 19, Type (0, 0), BuildingBlock: AJUNOK_clean_linker_0, # of connection points: 2
#     Edge 20, Type (0, 0), BuildingBlock: AJUNOK_clean_linker_0, # of connection points: 2
#     Edge 21, Type (0, 0), BuildingBlock: AJUNOK_clean_linker_0, # of connection points: 2
#     Edge 22, Type (0, 0), BuildingBlock: AJUNOK_clean_linker_0, # of connection points: 2
#     Edge 23, Type (0, 0), BuildingBlock: AJUNOK_clean_linker_0, # of connection points: 2
#     Edge 24, Type (0, 0), BuildingBlock: AJUNOK_clean_linker_0, # of connection points: 2
#     Edge 25, Type (0, 0), BuildingBlock: AJUNOK_clean_linker_0, # of connection points: 2
#     Edge 26, Type (0, 0), BuildingBlock: AJUNOK_clean_linker_0, # of connection points: 2
#     Edge 27, Type (0, 0), BuildingBlock: AJUNOK_clean_linker_0, # of connection points: 2
#     Edge 28, Type (0, 0), BuildingBlock: AJUNOK_clean_linker_0, # of connection points: 2
#     Edge 29, Type (0, 0), BuildingBlock: AJUNOK_clean_linker_0, # of connection points: 2
#     Edge 30, Type (0, 0), BuildingBlock: AJUNOK_clean_linker_0, # of connection points: 2
#     Edge 31, Type (0, 0), BuildingBlock: AJUNOK_clean_linker_0, # of connection points: 2
#     Edge 32, Type (0, 0), BuildingBlock: AJUNOK_clean_linker_0, # of connection points: 2
#     Edge 33, Type (0, 0), BuildingBlock: AJUNOK_clean_linker_0, # of connection points: 2
#     Edge 34, Type (0, 0), BuildingBlock: AJUNOK_clean_linker_0, # of connection points: 2
#     Edge 35, Type (0, 0), BuildingBlock: AJUNOK_clean_linker_0, # of connection points: 2
# Relax obj value: 0.247
# Max RMSD: 0.215
# Mean RMSD: 0.215
data_MOF--net-umb--node1-MUDLON_clean_sbu_0--edge1-AJUNOK_clean_linker_0
_symmetry_space_group_name_H-M    P1
_symmetry_Int_Tables_number       1
_symmetry_cell_setting            triclinic
loop_
_symmetry_equiv_pos_as_xyz
'x, y, z'
_cell_length_a     36.592145
_cell_length_b     36.827348
_cell_length_c     29.01438
_cell_angle_alpha  91.767985
_cell_angle_beta   89.030104
_cell_angle_gamma 120.28308
loop_
_atom_site_label
_atom_site_type_symbol
_atom_site_fract_x
_atom_site_fract_y
_atom_site_fract_z
_atom_type_partial_charge
Mg0 Mg 0.52343 0.1536 0.36459 0.0
C1 C 0.59436 0.23611 0.36705 0.0
O2 O 0.5607 0.23915 0.37629 0.0
C3 C 0.52764 0.07337 0.35316 0.0
O4 O 0.55806 0.0925 0.38371 0.0
C5 C 0.50473 0.17854 0.2768 0.0
O6 O 0.52517 0.15891 0.26471 0.0
O7 O 0.4951 0.17882 0.31917 0.0
O8 O 0.58948 0.19996 0.35812 0.0
O9 O 0.51098 0.15346 0.43902 0.0
C10 C 0.54307 0.16486 0.4648 0.0
O11 O 0.57924 0.17361 0.44558 0.0
O12 O 0.50884 0.09201 0.33914 0.0
Mg13 Mg 0.35642 0.51392 0.70788 0.0
C14 C 0.35682 0.52725 0.80842 0.0
O15 O 0.38376 0.56473 0.79317 0.0
C16 C 0.3155 0.49467 0.61674 0.0
O17 O 0.35518 0.52218 0.60745 0.0
C18 C 0.41498 0.48464 0.66845 0.0
O19 O 0.37937 0.45396 0.65128 0.0
O20 O 0.41431 0.51393 0.692 0.0
O21 O 0.33922 0.4965 0.77957 0.0
O22 O 0.36681 0.57676 0.70542 0.0
C23 C 0.333 0.57761 0.71318 0.0
O24 O 0.29788 0.54192 0.72034 0.0
O25 O 0.30624 0.48075 0.65741 0.0
Mg26 Mg 0.82431 0.42247 1.01307 0.0
C27 C 0.80082 0.49179 1.00593 0.0
O28 O 0.80643 0.52785 0.99197 0.0
C29 C 0.91102 0.45994 0.97213 0.0
O30 O 0.89417 0.47547 0.94504 0.0
C31 C 0.77183 0.36214 0.93376 0.0
O32 O 0.79491 0.39586 0.90951 0.0
O33 O 0.77841 0.36397 0.97695 0.0
O34 O 0.82439 0.47829 0.98959 0.0
O35 O 0.81382 0.41987 0.08748 0.0
C36 C 0.83199 0.45356 0.11219 0.0
O37 O 0.85656 0.48934 0.09192 0.0
O38 O 0.88796 0.4343 1.00272 0.0
Mg39 Mg 0.38565 0.80833 0.34466 0.0
C40 C 0.295 0.78725 0.32869 0.0
O41 O 0.26459 0.79401 0.3165 0.0
C42 C 0.44248 0.89485 0.30979 0.0
O43 O 0.41303 0.8799 0.27786 0.0
C44 C 0.39579 0.75415 0.26822 0.0
O45 O 0.39437 0.78138 0.24117 0.0
O46 O 0.39394 0.75889 0.31163 0.0
O47 O 0.33307 0.81336 0.31811 0.0
O48 O 0.37496 0.79713 0.41793 0.0
C49 C 0.35952 0.8157 0.44197 0.0
O50 O 0.34901 0.84037 0.42136 0.0
O51 O 0.44095 0.87024 0.34042 0.0
Mg52 Mg 0.61188 0.42319 0.69061 0.0
C53 C 0.64 0.42917 0.79188 0.0
O54 O 0.67251 0.42835 0.77323 0.0
C55 C 0.67253 0.47213 0.6142 0.0
O56 O 0.63999 0.47624 0.60392 0.0
C57 C 0.56558 0.47041 0.67997 0.0
O58 O 0.59601 0.49665 0.7079 0.0
O59 O 0.56549 0.43753 0.66537 0.0
O60 O 0.61382 0.43169 0.76578 0.0
O61 O 0.58337 0.3559 0.68499 0.0
C62 C 0.60485 0.34018 0.69919 0.0
O63 O 0.64548 0.365 0.70679 0.0
O64 O 0.67077 0.453 0.65074 0.0
Mg65 Mg 0.17624 0.60931 1.02885 0.0
C66 C 0.24311 0.59199 1.04355 0.0
O67 O 0.25741 0.63032 0.06039 0.0
C68 C 0.0915 0.53462 0.99784 0.0
O69 O 0.10872 0.51256 1.0101 0.0
C70 C 0.19759 0.67393 0.95686 0.0
O71 O 0.16084 0.64348 0.94186 0.0
O72 O 0.21174 0.66928 0.99468 0.0
O73 O 0.20958 0.57529 1.01948 0.0
O74 O 0.17335 0.61145 0.10426 0.0
C75 C 0.16438 0.57676 0.12238 0.0
O76 O 0.15448 0.54405 0.09504 0.0
O77 O 0.11259 0.57447 1.00182 0.0
Mg78 Mg 0.83784 0.45784 0.41195 0.0
C79 C 0.83455 0.44833 0.31203 0.0
O80 O 0.83386 0.41489 0.32757 0.0
C81 C 0.79201 0.49739 0.46629 0.0
O82 O 0.78296 0.50481 0.42527 0.0
C83 C 0.90598 0.43433 0.4202 0.0
O84 O 0.87507 0.39752 0.40585 0.0
O85 O 0.89866 0.46435 0.42689 0.0
O86 O 0.83873 0.47705 0.34086 0.0
O87 O 0.78748 0.39296 0.40854 0.0
C88 C 0.75453 0.3906 0.39164 0.0
O89 O 0.75592 0.4256 0.38061 0.0
O90 O 0.81678 0.48277 0.46931 0.0
Mg91 Mg 0.35981 0.82264 0.74293 0.0
C92 C 0.33692 0.73692 0.73289 0.0
O93 O 0.30364 0.7397 0.72239 0.0
C94 C 0.44737 0.90139 0.74701 0.0
O95 O 0.45353 0.88404 0.70973 0.0
C96 C 0.31586 0.79958 0.83158 0.0
O97 O 0.35597 0.81558 0.84217 0.0
O98 O 0.30661 0.80172 0.79004 0.0
O99 O 0.37062 0.77038 0.74489 0.0
O100 O 0.34679 0.82532 0.67027 0.0
C101 C 0.36745 0.81503 0.6423 0.0
O102 O 0.39457 0.80555 0.65925 0.0
O103 O 0.41208 0.88194 0.76789 0.0
Mg104 Mg 0.55992 0.37098 0.08044 0.0
C105 C 0.64573 0.39031 0.10348 0.0
O106 O 0.62588 0.3492 0.09759 0.0
C107 C 0.53955 0.44019 0.09475 0.0
O108 O 0.57702 0.46196 0.07557 0.0
C109 C 0.52055 0.30788 0.1546 0.0
O110 O 0.522 0.3413 0.17399 0.0
O111 O 0.53286 0.30999 0.11293 0.0
O112 O 0.6238 0.40818 0.10571 0.0
O113 O 0.56719 0.37183 1.00457 0.0
C114 C 0.60201 0.40088 0.98812 0.0
O115 O 0.63065 0.42876 1.01645 0.0
O116 O 0.52456 0.4012 0.101 0.0
Mg117 Mg 0.17547 0.54082 0.41651 0.0
C118 C 0.16701 0.56148 0.32175 0.0
O119 O 0.15692 0.58498 0.34775 0.0
C120 C 0.19549 0.49852 0.49172 0.0
O121 O 0.15982 0.49437 0.5077 0.0
C122 C 0.08269 0.47903 0.41958 0.0
O123 O 0.09571 0.45863 0.39239 0.0
O124 O 0.11003 0.51436 0.43706 0.0
O125 O 0.17616 0.53657 0.34138 0.0
O126 O 0.20875 0.60805 0.42797 0.0
C127 C 0.24433 0.62671 0.40763 0.0
O128 O 0.25953 0.6038 0.38972 0.0
O129 O 0.20879 0.51517 0.45267 0.0
Mg130 Mg 0.57299 0.16575 0.76145 0.0
C131 C 0.50366 0.18375 0.7914 0.0
O132 O 0.46791 0.1767 0.81032 0.0
C133 C 0.54668 0.07916 0.79233 0.0
O134 O 0.53457 0.09326 0.82811 0.0
C135 C 0.63284 0.21482 0.84082 0.0
O136 O 0.60229 0.18404 0.86385 0.0
O137 O 0.62944 0.21474 0.79721 0.0
O138 O 0.51543 0.15691 0.79466 0.0
O139 O 0.57233 0.18019 0.68929 0.0
C140 C 0.53961 0.15713 0.66488 0.0
O141 O 0.50645 0.12603 0.6846 0.0
O142 O 0.56739 0.10442 0.76047 0.0
Mg143 Mg 0.37268 0.54059 0.10626 0.0
C144 C 0.28178 0.47552 0.12811 0.0
O145 O 0.25019 0.44022 0.14326 0.0
C146 C 0.42735 0.50597 0.13423 0.0
O147 O 0.39471 0.4849 0.1615 0.0
C148 C 0.39001 0.60488 0.18433 0.0
O149 O 0.39199 0.57634 0.20851 0.0
O150 O 0.38283 0.59814 0.14128 0.0
O151 O 0.31958 0.48402 0.13403 0.0
O152 O 0.36113 0.54312 1.03378 0.0
C153 C 0.34983 0.51111 1.00723 0.0
O154 O 0.34414 0.47616 1.02479 0.0
O155 O 0.42785 0.53365 0.10877 0.0
C156 C 0.50395 0.13776 0.53931 0.0
C157 C 0.54051 0.16684 0.51578 0.0
C158 C 0.50356 0.13574 0.58765 0.0
C159 C 0.53956 0.16302 0.6143 0.0
H160 H 0.4761 0.11519 0.52021 0.0
H161 H 0.47509 0.11176 0.60405 0.0
S162 S 0.64119 0.24906 0.56905 0.0
N163 N 0.61218 0.22626 0.52265 0.0
N164 N 0.61134 0.22299 0.61317 0.0
C165 C 0.57545 0.19393 0.59112 0.0
C166 C 0.57594 0.19567 0.54198 0.0
C167 C 0.34138 0.48391 0.87876 0.0
C168 C 0.34955 0.52151 0.85866 0.0
C169 C 0.34011 0.48033 0.92689 0.0
C170 C 0.34659 0.51409 0.95663 0.0
H171 H 0.3378 0.45773 0.85727 0.0
H172 H 0.3353 0.45126 0.94076 0.0
S173 S 0.36231 0.61694 0.92054 0.0
N174 N 0.35962 0.5915 0.87172 0.0
N175 N 0.35666 0.5847 0.96188 0.0
C176 C 0.35212 0.55092 0.9367 0.0
C177 C 0.35378 0.55464 0.88781 0.0
C178 C 0.85313 0.48862 0.23878 0.0
C179 C 0.82937 0.45071 0.26192 0.0
C180 C 0.85275 0.48946 0.19036 0.0
C181 C 0.8283 0.45247 0.1634 0.0
H182 H 0.8736 0.51742 0.25801 0.0
H183 H 0.87281 0.51918 0.17399 0.0
S184 S 0.75504 0.34643 0.20861 0.0
N185 N 0.77712 0.37625 0.25504 0.0
N186 N 0.77588 0.37779 0.16448 0.0
C187 C 0.80231 0.4149 0.18659 0.0
C188 C 0.80302 0.41404 0.23571 0.0
C189 C 0.38002 0.7967 0.51511 0.0
C190 C 0.35766 0.81295 0.49298 0.0
C191 C 0.38227 0.79709 0.56321 0.0
C192 C 0.36201 0.81345 0.59149 0.0
H193 H 0.39699 0.78452 0.49519 0.0
H194 H 0.40062 0.7848 0.57821 0.0
S195 S 0.29587 0.85616 0.55085 0.0
N196 N 0.31236 0.84339 0.50305 0.0
N197 N 0.31647 0.84391 0.59369 0.0
C198 C 0.3381 0.82832 0.56994 0.0
C199 C 0.33598 0.82814 0.5207 0.0
C200 C 0.5799 0.39984 0.90631 0.0
C201 C 0.6109 0.4049 0.9379 0.0
C202 C 0.58978 0.40852 0.85936 0.0
C203 C 0.63085 0.42187 0.8421 0.0
H204 H 0.54817 0.39037 0.91815 0.0
H205 H 0.56488 0.40445 0.8364 0.0
S206 S 0.72232 0.43646 0.91061 0.0
N207 N 0.68366 0.4222 0.94858 0.0
N208 N 0.70201 0.43747 0.86063 0.0
C209 C 0.66169 0.42572 0.87334 0.0
C210 C 0.65178 0.41753 0.92111 0.0
C211 C 0.16556 0.59855 0.25148 0.0
C212 C 0.1679 0.56508 0.27079 0.0
C213 C 0.16509 0.60255 0.20359 0.0
C214 C 0.16639 0.57294 0.17298 0.0
H215 H 0.16402 0.62203 0.27351 0.0
H216 H 0.16298 0.62868 0.19054 0.0
S217 S 0.17531 0.48079 0.20549 0.0
N218 N 0.17362 0.5029 0.25523 0.0
N219 N 0.17215 0.50991 0.1654 0.0
C220 C 0.16948 0.53966 0.19175 0.0
C221 C 0.17046 0.5359 0.24055 0.0
C222 C 0.67799 0.35067 0.37343 0.0
C223 C 0.71503 0.35011 0.3841 0.0
C224 C 0.63955 0.3135 0.36684 0.0
C225 C 0.63652 0.27414 0.37026 0.0
H226 H 0.6783 0.38011 0.3708 0.0
H227 H 0.61186 0.31576 0.35937 0.0
S228 S 0.72435 0.25502 0.39559 0.0
N229 N 0.74667 0.30678 0.39644 0.0
N230 N 0.67388 0.23642 0.3838 0.0
C231 C 0.67339 0.27283 0.37976 0.0
C232 C 0.71276 0.31094 0.38688 0.0
C233 C 0.37278 0.6943 0.72894 0.0
C234 C 0.33526 0.69602 0.7284 0.0
C235 C 0.37189 0.65593 0.72324 0.0
C236 C 0.33341 0.61789 0.71721 0.0
H237 H 0.40315 0.72279 0.7334 0.0
H238 H 0.40156 0.65611 0.72413 0.0
S239 S 0.22619 0.60521 0.71316 0.0
N240 N 0.25844 0.65618 0.72139 0.0
N241 N 0.25686 0.58433 0.71056 0.0
C242 C 0.29566 0.61916 0.71661 0.0
C243 C 0.29656 0.65816 0.72224 0.0
C244 C 0.70599 0.39742 0.05632 0.0
C245 C 0.69024 0.4155 0.08845 0.0
C246 C 0.74257 0.42248 1.03097 0.0
C247 C 0.76574 0.46623 1.03769 0.0
H248 H 0.68812 0.36412 1.04755 0.0
H249 H 0.75081 0.40782 1.00336 0.0
S250 S 0.74158 0.52849 0.12262 0.0
N251 N 0.70269 0.47957 0.12886 0.0
N252 N 0.77282 0.52647 0.0821 0.0
C253 C 0.75213 0.48452 0.072 0.0
C254 C 0.71427 0.45912 0.09741 0.0
C255 C 0.29719 0.72146 0.3322 0.0
C256 C 0.28483 0.74863 0.35236 0.0
C257 C 0.28625 0.68324 0.35217 0.0
C258 C 0.26161 0.67039 0.39264 0.0
H259 H 0.31372 0.72894 0.29953 0.0
H260 H 0.29534 0.66274 0.33426 0.0
S261 S 0.22376 0.73221 0.46038 0.0
N262 N 0.24883 0.76183 0.41595 0.0
N263 N 0.22734 0.68938 0.45367 0.0
C264 C 0.24995 0.69798 0.41384 0.0
C265 C 0.2615 0.73715 0.39349 0.0
C266 C 0.54713 0.26512 0.69893 0.0
C267 C 0.58212 0.29905 0.72101 0.0
C268 C 0.5217 0.22751 0.72194 0.0
C269 C 0.53053 0.22302 0.76762 0.0
H270 H 0.53907 0.26794 0.66397 0.0
H271 H 0.49488 0.20193 0.70409 0.0
S272 S 0.61454 0.3043 0.84264 0.0
N273 N 0.62214 0.32674 0.79226 0.0
N274 N 0.57384 0.25616 0.83543 0.0
C275 C 0.56478 0.2568 0.79033 0.0
C276 C 0.59087 0.29485 0.76693 0.0
C277 C 0.25254 0.52931 1.03917 0.0
C278 C 0.25695 0.56472 0.06399 0.0
C279 C 0.26078 0.50034 0.0601 0.0
C280 C 0.27356 0.50601 0.10636 0.0
H281 H 0.24215 0.5237 1.00359 0.0
H282 H 0.25699 0.47332 1.04012 0.0
S283 S 0.28514 0.59039 0.18788 0.0
N284 N 0.27244 0.60208 0.1384 0.0
N285 N 0.28746 0.54728 0.17731 0.0
C286 C 0.27764 0.54077 0.13169 0.0
C287 C 0.26957 0.57037 0.11053 0.0
C288 C 0.48316 0.01139 0.30149 0.0
C289 C 0.51201 0.02903 0.33831 0.0
C290 C 0.46305 0.96833 0.2905 0.0
C291 C 0.47065 0.94098 0.3161 0.0
H292 H 0.47482 0.03071 0.28186 0.0
H293 H 0.43976 0.95624 0.26313 0.0
S294 S 0.54789 0.97216 0.41171 0.0
N295 N 0.55065 0.01648 0.39722 0.0
N296 N 0.51267 0.93543 0.37669 0.0
C297 C 0.50162 0.95861 0.35096 0.0
C298 C 0.52234 0.00264 0.36203 0.0
C299 C 0.49058 0.51298 0.69032 0.0
C300 C 0.45467 0.48296 0.66553 0.0
C301 C 0.52692 0.50964 0.69301 0.0
C302 C 0.529 0.47617 0.671 0.0
H303 H 0.49029 0.53865 0.70923 0.0
H304 H 0.553 0.53283 0.7139 0.0
S305 S 0.44576 0.39218 0.59661 0.0
N306 N 0.42503 0.4208 0.61483 0.0
N307 N 0.49338 0.41453 0.61977 0.0
C308 C 0.49428 0.44723 0.64385 0.0
C309 C 0.45714 0.45062 0.64116 0.0
C310 C 0.97402 0.45584 0.99655 0.0
C311 C 0.9573 0.47661 0.97208 0.0
C312 C 0.01775 0.47379 1.00259 0.0
C313 C 0.04632 0.51346 0.98501 0.0
H314 H 0.95314 0.42603 1.01238 0.0
H315 H 0.02902 0.45735 1.02311 0.0
S316 S 0.01946 0.57885 0.91407 0.0
N317 N 0.97331 0.53745 0.9266 0.0
N318 N 0.05536 0.57131 0.93866 0.0
C319 C 0.03028 0.5336 0.9585 0.0
C320 C -0.0142 0.51511 0.95179 0.0
C321 C 0.024 0.49161 0.44385 0.0
C322 C 0.03687 0.46432 0.42446 0.0
C323 C -0.01853 0.48093 0.44369 0.0
C324 C 0.94987 0.44239 0.42443 0.0
H325 H 0.04709 0.52222 0.45787 0.0
H326 H 0.97354 0.50367 0.45784 0.0
S327 S 0.96618 0.35778 0.37363 0.0
N328 N 0.01404 0.39556 0.38866 0.0
N329 N 0.93406 0.37541 0.38852 0.0
C330 C 0.96193 0.41382 0.40707 0.0
C331 C 0.0054 0.42482 0.40702 0.0
C332 C 0.49612 0.00513 0.8141 0.0
C333 C 0.52808 0.03314 0.78437 0.0
C334 C 0.47174 0.96219 0.80282 0.0
C335 C 0.47842 0.94534 0.76147 0.0
H336 H 0.4882 0.01662 0.84529 0.0
H337 H 0.44628 0.9424 0.82596 0.0
S338 S 0.5629 0.00405 0.6754 0.0
N339 N 0.56863 0.04008 0.71448 0.0
N340 N 0.52288 0.9593 0.69334 0.0
C341 C 0.51253 0.97236 0.73321 0.0
C342 C 0.53733 0.01625 0.74464 0.0
C343 C 0.45144 0.45445 0.14583 0.0
C344 C 0.45936 0.49283 0.1279 0.0
C345 C 0.47809 0.43828 0.13569 0.0
C346 C 0.51406 0.45998 0.10757 0.0
H347 H 0.42358 0.43583 0.16663 0.0
H348 H 0.46992 0.40809 0.14948 0.0
S349 S 0.55123 0.56375 1.05539 0.0
N350 N 0.50742 0.55359 0.08306 0.0
N351 N 0.55774 0.5233 0.06426 0.0
C352 C 0.52353 0.49936 0.09111 0.0
C353 C 0.49614 0.51574 0.10119 0.0
C354 C 0.4957 0.23996 0.25979 0.0
C355 C 0.50127 0.20667 0.24357 0.0
C356 C 0.50005 0.27138 0.23023 0.0
C357 C 0.51005 0.27085 0.18314 0.0
H358 H 0.49002 0.24304 0.29608 0.0
H359 H 0.49712 0.29716 0.24502 0.0
S360 S 0.52168 0.18714 0.12202 0.0
N361 N 0.51272 0.17257 0.17621 0.0
N362 N 0.52093 0.23154 0.12082 0.0
C363 C 0.51291 0.23623 0.16585 0.0
C364 C 0.50853 0.20423 0.196 0.0
C365 C 0.26478 0.50297 0.50773 0.0
C366 C 0.22303 0.49016 0.52159 0.0
C367 C 0.29364 0.50176 0.5379 0.0
C368 C 0.28203 0.48748 0.5832 0.0
H369 H 0.276 0.5159 0.47396 0.0
H370 H 0.32588 0.5138 0.52609 0.0
S371 S 0.17498 0.44504 0.63469 0.0
N372 N 0.17031 0.45859 0.58236 0.0
N373 N 0.22457 0.45634 0.63895 0.0
C374 C 0.23959 0.47178 0.5965 0.0
C375 C 0.21015 0.47316 0.56578 0.0
C376 C 0.73407 0.31979 0.86275 0.0
C377 C 0.73715 0.32329 0.91119 0.0
C378 C 0.70092 0.28434 0.84042 0.0
C379 C 0.6691 0.25083 0.8655 0.0
H380 H 0.75735 0.34479 0.84168 0.0
H381 H 0.69994 0.28361 0.8031 0.0
S382 S 0.66208 0.24453 0.99329 0.0
N383 N 0.70523 0.28999 0.98364 0.0
N384 N 0.64302 0.22364 0.94192 0.0
C385 C 0.67195 0.25377 0.91404 0.0
C386 C 0.70585 0.28985 0.93678 0.0
C387 C 0.39701 0.67606 0.1799 0.0
C388 C 0.39359 0.6434 0.207 0.0
C389 C 0.39839 0.71187 0.20002 0.0
C390 C 0.39629 0.71664 0.24817 0.0
H391 H 0.39829 0.6739 0.14265 0.0
H392 H 0.40071 0.73581 0.17742 0.0
S393 S 0.38645 0.63991 0.33483 0.0
N394 N 0.38788 0.61812 0.28478 0.0
N395 N 0.39039 0.6852 0.32254 0.0
C396 C 0.39313 0.68432 0.27578 0.0
C397 C 0.39184 0.64785 0.25525 0.0
C398 C 0.70568 0.50086 0.53762 0.0
C399 C 0.70762 0.48445 0.58017 0.0
C400 C 0.73462 0.50727 0.50206 0.0
C401 C 0.76695 0.49763 0.50734 0.0
H402 H 0.68055 0.50736 0.53084 0.0
H403 H 0.73039 0.51825 0.46947 0.0
S404 S 0.78969 0.45943 0.61425 0.0
N405 N 0.74736 0.46276 0.62717 0.0
N406 N 0.80183 0.47491 0.56056 0.0
C407 C 0.77104 0.48384 0.55081 0.0
C408 C 0.74141 0.47722 0.58708 0.0
C409 C 0.26653 0.73914 0.94042 0.0
C410 C 0.22473 0.71009 0.92702 0.0
C411 C 0.29492 0.76966 0.9102 0.0
C412 C 0.28281 0.77253 0.86522 0.0
H413 H 0.27812 0.7373 0.97387 0.0
H414 H 0.32719 0.79003 0.92171 0.0
S415 S 0.17529 0.70776 0.81524 0.0
N416 N 0.17131 0.68911 0.86724 0.0
N417 N 0.22476 0.74632 0.81047 0.0
C418 C 0.24031 0.7456 0.85244 0.0
C419 C 0.2113 0.71443 0.88328 0.0
loop_
_geom_bond_atom_site_label_1
_geom_bond_atom_site_label_2
_geom_bond_distance
_geom_bond_site_symmetry_2
_ccdc_geom_bond_type
Mg0 O7 2.141 . S
Mg0 O8 2.048 . S
Mg0 O9 2.048 . S
Mg0 O12 2.141 . S
C1 O2 1.313 . S
C1 O8 1.195 . S
O2 C1 1.313 . S
C3 O4 1.245 . S
C3 O12 1.289 . S
O4 C3 1.245 . S
C5 O6 1.245 . S
C5 O7 1.289 . S
O6 C5 1.245 . S
O7 Mg0 2.141 . S
O7 C5 1.289 . S
O8 Mg0 2.048 . S
O8 C1 1.195 . S
O9 Mg0 2.048 . S
O9 C10 1.195 . S
C10 O9 1.195 . S
C10 O11 1.313 . S
O11 C10 1.313 . S
O12 Mg0 2.141 . S
O12 C3 1.289 . S
Mg13 O20 2.141 . S
Mg13 O21 2.048 . S
Mg13 O22 2.048 . S
Mg13 O25 2.141 . S
C14 O15 1.313 . S
C14 O21 1.195 . S
O15 C14 1.313 . S
C16 O17 1.245 . S
C16 O25 1.289 . S
O17 C16 1.245 . S
C18 O19 1.245 . S
C18 O20 1.289 . S
O19 C18 1.245 . S
O20 Mg13 2.141 . S
O20 C18 1.289 . S
O21 Mg13 2.048 . S
O21 C14 1.195 . S
O22 Mg13 2.048 . S
O22 C23 1.195 . S
C23 O22 1.195 . S
C23 O24 1.313 . S
O24 C23 1.313 . S
O25 Mg13 2.141 . S
O25 C16 1.289 . S
Mg26 O33 2.141 1_554 S
Mg26 O34 2.048 . S
Mg26 O35 2.048 . S
Mg26 O38 2.140 1_554 S
C27 O28 1.313 . S
C27 O34 1.195 . S
O28 C27 1.313 . S
C29 O30 1.245 . S
C29 O38 1.294 . S
O30 C29 1.245 . S
C31 O32 1.245 . S
C31 O33 1.289 . S
O32 C31 1.245 . S
O33 Mg26 2.141 1_556 S
O33 C31 1.289 . S
O34 Mg26 2.048 . S
O34 C27 1.195 . S
O35 Mg26 2.048 . S
O35 C36 1.195 . S
C36 O35 1.195 . S
C36 O37 1.313 . S
O37 C36 1.313 . S
O38 Mg26 2.140 1_556 S
O38 C29 1.294 . S
Mg39 O46 2.141 . S
Mg39 O47 2.048 . S
Mg39 O48 2.048 . S
Mg39 O51 2.141 . S
C40 O41 1.313 . S
C40 O47 1.195 . S
O41 C40 1.313 . S
C42 O43 1.245 . S
C42 O51 1.289 . S
O43 C42 1.245 . S
C44 O45 1.245 . S
C44 O46 1.289 . S
O45 C44 1.245 . S
O46 Mg39 2.141 . S
O46 C44 1.289 . S
O47 Mg39 2.048 . S
O47 C40 1.195 . S
O48 Mg39 2.048 . S
O48 C49 1.195 . S
C49 O48 1.195 . S
C49 O50 1.313 . S
O50 C49 1.313 . S
O51 Mg39 2.141 . S
O51 C42 1.289 . S
Mg52 O59 2.141 . S
Mg52 O60 2.048 . S
Mg52 O61 2.048 . S
Mg52 O64 2.141 . S
C53 O54 1.313 . S
C53 O60 1.195 . S
O54 C53 1.313 . S
C55 O56 1.245 . S
C55 O64 1.289 . S
O56 C55 1.245 . S
C57 O58 1.245 . S
C57 O59 1.289 . S
O58 C57 1.245 . S
O59 Mg52 2.141 . S
O59 C57 1.289 . S
O60 Mg52 2.048 . S
O60 C53 1.195 . S
O61 Mg52 2.048 . S
O61 C62 1.195 . S
C62 O61 1.195 . S
C62 O63 1.313 . S
O63 C62 1.313 . S
O64 Mg52 2.141 . S
O64 C55 1.289 . S
Mg65 O72 2.141 1_554 S
Mg65 O73 2.048 . S
Mg65 O74 2.048 . S
Mg65 O77 2.140 1_554 S
C66 O67 1.313 . S
C66 O73 1.195 . S
O67 C66 1.313 . S
C68 O69 1.245 . S
C68 O77 1.294 . S
O69 C68 1.245 . S
C70 O71 1.245 . S
C70 O72 1.289 . S
O71 C70 1.245 . S
O72 Mg65 2.141 1_556 S
O72 C70 1.289 . S
O73 Mg65 2.048 . S
O73 C66 1.195 . S
O74 Mg65 2.048 . S
O74 C75 1.195 . S
C75 O74 1.195 . S
C75 O76 1.313 . S
O76 C75 1.313 . S
O77 Mg65 2.140 1_556 S
O77 C68 1.294 . S
Mg78 O85 2.141 . S
Mg78 O86 2.048 . S
Mg78 O87 2.048 . S
Mg78 O90 2.141 . S
C79 O80 1.313 . S
C79 O86 1.195 . S
O80 C79 1.313 . S
C81 O82 1.245 . S
C81 O90 1.289 . S
O82 C81 1.245 . S
C83 O84 1.245 . S
C83 O85 1.289 . S
O84 C83 1.245 . S
O85 Mg78 2.141 . S
O85 C83 1.289 . S
O86 Mg78 2.048 . S
O86 C79 1.195 . S
O87 Mg78 2.048 . S
O87 C88 1.195 . S
C88 O87 1.195 . S
C88 O89 1.313 . S
O89 C88 1.313 . S
O90 Mg78 2.141 . S
O90 C81 1.289 . S
Mg91 O98 2.141 . S
Mg91 O99 2.048 . S
Mg91 O100 2.048 . S
Mg91 O103 2.141 . S
C92 O93 1.313 . S
C92 O99 1.195 . S
O93 C92 1.313 . S
C94 O95 1.245 . S
C94 O103 1.289 . S
O95 C94 1.245 . S
C96 O97 1.245 . S
C96 O98 1.289 . S
O97 C96 1.245 . S
O98 Mg91 2.141 . S
O98 C96 1.289 . S
O99 Mg91 2.048 . S
O99 C92 1.195 . S
O100 Mg91 2.048 . S
O100 C101 1.195 . S
C101 O100 1.195 . S
C101 O102 1.313 . S
O102 C101 1.313 . S
O103 Mg91 2.141 . S
O103 C94 1.289 . S
Mg104 O111 2.141 1_556 S
Mg104 O112 2.048 . S
Mg104 O113 2.048 . S
Mg104 O116 2.141 1_556 S
C105 O106 1.313 . S
C105 O112 1.195 . S
O106 C105 1.313 . S
C107 O108 1.245 . S
C107 O116 1.289 . S
O108 C107 1.245 . S
C109 O110 1.245 . S
C109 O111 1.289 . S
O110 C109 1.245 . S
O111 Mg104 2.141 1_554 S
O111 C109 1.289 . S
O112 Mg104 2.048 . S
O112 C105 1.195 . S
O113 Mg104 2.048 . S
O113 C114 1.195 . S
C114 O113 1.195 . S
C114 O115 1.313 . S
O115 C114 1.313 . S
O116 Mg104 2.141 1_554 S
O116 C107 1.289 . S
Mg117 O124 2.141 . S
Mg117 O125 2.048 . S
Mg117 O126 2.048 . S
Mg117 O129 2.141 . S
C118 O119 1.313 . S
C118 O125 1.195 . S
O119 C118 1.313 . S
C120 O121 1.245 . S
C120 O129 1.289 . S
O121 C120 1.245 . S
C122 O123 1.245 . S
C122 O124 1.289 . S
O123 C122 1.245 . S
O124 Mg117 2.141 . S
O124 C122 1.289 . S
O125 Mg117 2.048 . S
O125 C118 1.195 . S
O126 Mg117 2.048 . S
O126 C127 1.195 . S
C127 O126 1.195 . S
C127 O128 1.313 . S
O128 C127 1.313 . S
O129 Mg117 2.141 . S
O129 C120 1.289 . S
Mg130 O137 2.141 . S
Mg130 O138 2.048 . S
Mg130 O139 2.048 . S
Mg130 O142 2.141 . S
C131 O132 1.313 . S
C131 O138 1.195 . S
O132 C131 1.313 . S
C133 O134 1.245 . S
C133 O142 1.289 . S
O134 C133 1.245 . S
C135 O136 1.245 . S
C135 O137 1.289 . S
O136 C135 1.245 . S
O137 Mg130 2.141 . S
O137 C135 1.289 . S
O138 Mg130 2.048 . S
O138 C131 1.195 . S
O139 Mg130 2.048 . S
O139 C140 1.195 . S
C140 O139 1.195 . S
C140 O141 1.313 . S
O141 C140 1.313 . S
O142 Mg130 2.141 . S
O142 C133 1.289 . S
Mg143 O150 2.141 1_556 S
Mg143 O151 2.048 . S
Mg143 O152 2.048 . S
Mg143 O155 2.141 1_556 S
C144 O145 1.313 . S
C144 O151 1.195 . S
O145 C144 1.313 . S
C146 O147 1.245 . S
C146 O155 1.289 . S
O147 C146 1.245 . S
C148 O149 1.245 . S
C148 O150 1.289 . S
O149 C148 1.245 . S
O150 Mg143 2.141 1_554 S
O150 C148 1.289 . S
O151 Mg143 2.048 . S
O151 C144 1.195 . S
O152 Mg143 2.048 . S
O152 C153 1.195 . S
C153 O152 1.195 . S
C153 O154 1.313 . S
O154 C153 1.313 . S
O155 Mg143 2.141 1_554 S
O155 C146 1.289 . S
C156 C157 1.369 . S
C156 C158 1.419 . S
C156 H160 0.930 . S
C157 C156 1.369 . S
C157 C166 1.429 . S
C158 C156 1.419 . S
C158 C159 1.363 . S
C158 H161 0.929 . S
C159 C158 1.363 . S
C159 C165 1.428 . S
H160 C156 0.930 . S
H161 C158 0.929 . S
S162 N163 1.613 . S
S162 N164 1.610 . S
N163 S162 1.613 . S
N163 C166 1.350 . S
N164 S162 1.610 . S
N164 C165 1.351 . S
C165 C159 1.428 . S
C165 N164 1.351 . S
C165 C166 1.434 . S
C166 C157 1.429 . S
C166 N163 1.350 . S
C166 C165 1.434 . S
C167 C168 1.369 . S
C167 C169 1.419 . S
C167 H171 0.930 . S
C168 C167 1.369 . S
C168 C177 1.429 . S
C169 C167 1.419 . S
C169 C170 1.363 . S
C169 H172 0.929 . S
C170 C169 1.363 . S
C170 C176 1.428 . S
H171 C167 0.930 . S
H172 C169 0.929 . S
S173 N174 1.613 . S
S173 N175 1.610 . S
N174 S173 1.613 . S
N174 C177 1.350 . S
N175 S173 1.610 . S
N175 C176 1.351 . S
C176 C170 1.428 . S
C176 N175 1.351 . S
C176 C177 1.434 . S
C177 C168 1.429 . S
C177 N174 1.350 . S
C177 C176 1.434 . S
C178 C179 1.369 . S
C178 C180 1.419 . S
C178 H182 0.930 . S
C179 C178 1.369 . S
C179 C188 1.429 . S
C180 C178 1.419 . S
C180 C181 1.363 . S
C180 H183 0.929 . S
C181 C180 1.363 . S
C181 C187 1.428 . S
H182 C178 0.930 . S
H183 C180 0.929 . S
S184 N185 1.613 . S
S184 N186 1.610 . S
N185 S184 1.613 . S
N185 C188 1.350 . S
N186 S184 1.610 . S
N186 C187 1.351 . S
C187 C181 1.428 . S
C187 N186 1.351 . S
C187 C188 1.434 . S
C188 C179 1.429 . S
C188 N185 1.350 . S
C188 C187 1.434 . S
C189 C190 1.369 . S
C189 C191 1.419 . S
C189 H193 0.930 . S
C190 C189 1.369 . S
C190 C199 1.429 . S
C191 C189 1.419 . S
C191 C192 1.363 . S
C191 H194 0.929 . S
C192 C191 1.363 . S
C192 C198 1.428 . S
H193 C189 0.930 . S
H194 C191 0.929 . S
S195 N196 1.613 . S
S195 N197 1.610 . S
N196 S195 1.613 . S
N196 C199 1.350 . S
N197 S195 1.610 . S
N197 C198 1.351 . S
C198 C192 1.428 . S
C198 N197 1.351 . S
C198 C199 1.434 . S
C199 C190 1.429 . S
C199 N196 1.350 . S
C199 C198 1.434 . S
C200 C201 1.369 . S
C200 C202 1.419 . S
C200 H204 0.930 . S
C201 C200 1.369 . S
C201 C210 1.429 . S
C202 C200 1.419 . S
C202 C203 1.363 . S
C202 H205 0.929 . S
C203 C202 1.363 . S
C203 C209 1.428 . S
H204 C200 0.930 . S
H205 C202 0.929 . S
S206 N207 1.613 . S
S206 N208 1.610 . S
N207 S206 1.613 . S
N207 C210 1.350 . S
N208 S206 1.610 . S
N208 C209 1.351 . S
C209 C203 1.428 . S
C209 N208 1.351 . S
C209 C210 1.434 . S
C210 C201 1.429 . S
C210 N207 1.350 . S
C210 C209 1.434 . S
C211 C212 1.369 . S
C211 C213 1.419 . S
C211 H215 0.930 . S
C212 C211 1.369 . S
C212 C221 1.429 . S
C213 C211 1.419 . S
C213 C214 1.363 . S
C213 H216 0.929 . S
C214 C213 1.363 . S
C214 C220 1.428 . S
H215 C211 0.930 . S
H216 C213 0.929 . S
S217 N218 1.613 . S
S217 N219 1.610 . S
N218 S217 1.613 . S
N218 C221 1.350 . S
N219 S217 1.610 . S
N219 C220 1.351 . S
C220 C214 1.428 . S
C220 N219 1.351 . S
C220 C221 1.434 . S
C221 C212 1.429 . S
C221 N218 1.350 . S
C221 C220 1.434 . S
C222 C223 1.369 . S
C222 C224 1.419 . S
C222 H226 0.930 . S
C223 C222 1.369 . S
C223 C232 1.429 . S
C224 C222 1.419 . S
C224 C225 1.363 . S
C224 H227 0.929 . S
C225 C224 1.363 . S
C225 C231 1.428 . S
H226 C222 0.930 . S
H227 C224 0.929 . S
S228 N229 1.613 . S
S228 N230 1.610 . S
N229 S228 1.613 . S
N229 C232 1.350 . S
N230 S228 1.610 . S
N230 C231 1.351 . S
C231 C225 1.428 . S
C231 N230 1.351 . S
C231 C232 1.434 . S
C232 C223 1.429 . S
C232 N229 1.350 . S
C232 C231 1.434 . S
C233 C234 1.369 . S
C233 C235 1.419 . S
C233 H237 0.930 . S
C234 C233 1.369 . S
C234 C243 1.429 . S
C235 C233 1.419 . S
C235 C236 1.363 . S
C235 H238 0.929 . S
C236 C235 1.363 . S
C236 C242 1.428 . S
H237 C233 0.930 . S
H238 C235 0.929 . S
S239 N240 1.613 . S
S239 N241 1.610 . S
N240 S239 1.613 . S
N240 C243 1.350 . S
N241 S239 1.610 . S
N241 C242 1.351 . S
C242 C236 1.428 . S
C242 N241 1.351 . S
C242 C243 1.434 . S
C243 C234 1.429 . S
C243 N240 1.350 . S
C243 C242 1.434 . S
C244 C245 1.369 . S
C244 C246 1.419 . S
C244 H248 0.930 . S
C245 C244 1.369 . S
C245 C254 1.429 1_556 S
C246 C244 1.419 . S
C246 C247 1.363 1_556 S
C246 H249 0.929 . S
C247 C246 1.363 1_554 S
C247 C253 1.428 . S
H248 C244 0.930 . S
H249 C246 0.929 . S
S250 N251 1.613 . S
S250 N252 1.610 . S
N251 S250 1.613 . S
N251 C254 1.350 . S
N252 S250 1.610 . S
N252 C253 1.351 . S
C253 C247 1.428 . S
C253 N252 1.351 . S
C253 C254 1.434 . S
C254 C245 1.429 1_554 S
C254 N251 1.350 . S
C254 C253 1.434 . S
C255 C256 1.369 . S
C255 C257 1.419 . S
C255 H259 0.930 . S
C256 C255 1.369 . S
C256 C265 1.429 . S
C257 C255 1.419 . S
C257 C258 1.363 . S
C257 H260 0.929 . S
C258 C257 1.363 . S
C258 C264 1.428 . S
H259 C255 0.930 . S
H260 C257 0.929 . S
S261 N262 1.613 . S
S261 N263 1.610 . S
N262 S261 1.613 . S
N262 C265 1.350 . S
N263 S261 1.610 . S
N263 C264 1.351 . S
C264 C258 1.428 . S
C264 N263 1.351 . S
C264 C265 1.434 . S
C265 C256 1.429 . S
C265 N262 1.350 . S
C265 C264 1.434 . S
C266 C267 1.369 . S
C266 C268 1.419 . S
C266 H270 0.930 . S
C267 C266 1.369 . S
C267 C276 1.429 . S
C268 C266 1.419 . S
C268 C269 1.363 . S
C268 H271 0.929 . S
C269 C268 1.363 . S
C269 C275 1.428 . S
H270 C266 0.930 . S
H271 C268 0.929 . S
S272 N273 1.613 . S
S272 N274 1.610 . S
N273 S272 1.613 . S
N273 C276 1.350 . S
N274 S272 1.610 . S
N274 C275 1.351 . S
C275 C269 1.428 . S
C275 N274 1.351 . S
C275 C276 1.434 . S
C276 C267 1.429 . S
C276 N273 1.350 . S
C276 C275 1.434 . S
C277 C278 1.369 1_556 S
C277 C279 1.419 . S
C277 H281 0.930 . S
C278 C277 1.369 1_554 S
C278 C287 1.429 . S
C279 C277 1.419 . S
C279 C280 1.363 . S
C279 H282 0.929 . S
C280 C279 1.363 . S
C280 C286 1.428 1_556 S
H281 C277 0.930 . S
H282 C279 0.929 . S
S283 N284 1.613 . S
S283 N285 1.610 . S
N284 S283 1.613 . S
N284 C287 1.350 . S
N285 S283 1.610 . S
N285 C286 1.351 . S
C286 C280 1.428 1_554 S
C286 N285 1.351 . S
C286 C287 1.434 . S
C287 C278 1.429 . S
C287 N284 1.350 . S
C287 C286 1.434 . S
C288 C289 1.369 1_565 S
C288 C290 1.419 . S
C288 H292 0.930 . S
C289 C288 1.369 1_545 S
C289 C298 1.429 . S
C290 C288 1.419 . S
C290 C291 1.363 . S
C290 H293 0.929 . S
C291 C290 1.363 . S
C291 C297 1.428 1_565 S
H292 C288 0.930 . S
H293 C290 0.929 . S
S294 N295 1.613 . S
S294 N296 1.610 . S
N295 S294 1.613 . S
N295 C298 1.350 . S
N296 S294 1.610 . S
N296 C297 1.351 . S
C297 C291 1.428 1_545 S
C297 N296 1.351 . S
C297 C298 1.434 . S
C298 C289 1.429 . S
C298 N295 1.350 . S
C298 C297 1.434 . S
C299 C300 1.369 . S
C299 C301 1.419 . S
C299 H303 0.930 . S
C300 C299 1.369 . S
C300 C309 1.429 . S
C301 C299 1.419 . S
C301 C302 1.363 . S
C301 H304 0.929 . S
C302 C301 1.363 . S
C302 C308 1.428 . S
H303 C299 0.930 . S
H304 C301 0.929 . S
S305 N306 1.613 . S
S305 N307 1.610 . S
N306 S305 1.613 . S
N306 C309 1.350 . S
N307 S305 1.610 . S
N307 C308 1.351 . S
C308 C302 1.428 . S
C308 N307 1.351 . S
C308 C309 1.434 . S
C309 C300 1.429 . S
C309 N306 1.350 . S
C309 C308 1.434 . S
C310 C311 1.369 1_455 S
C310 C312 1.419 . S
C310 H314 0.930 . S
C311 C310 1.369 1_655 S
C311 C320 1.429 1_556 S
C312 C310 1.419 . S
C312 C313 1.363 . S
C312 H315 0.929 . S
C313 C312 1.363 . S
C313 C319 1.428 1_456 S
H314 C310 0.930 . S
H315 C312 0.929 . S
S316 N317 1.613 . S
S316 N318 1.610 . S
N317 S316 1.613 . S
N317 C320 1.350 . S
N318 S316 1.610 . S
N318 C319 1.351 . S
C319 C313 1.428 1_654 S
C319 N318 1.351 . S
C319 C320 1.434 . S
C320 C311 1.429 1_554 S
C320 N317 1.350 . S
C320 C319 1.434 . S
C321 C322 1.369 . S
C321 C323 1.419 1_455 S
C321 H325 0.930 . S
C322 C321 1.369 . S
C322 C331 1.429 . S
C323 C321 1.419 1_655 S
C323 C324 1.363 . S
C323 H326 0.929 . S
C324 C323 1.363 . S
C324 C330 1.428 . S
H325 C321 0.930 . S
H326 C323 0.929 . S
S327 N328 1.613 1_655 S
S327 N329 1.610 . S
N328 S327 1.613 1_455 S
N328 C331 1.350 . S
N329 S327 1.610 . S
N329 C330 1.351 . S
C330 C324 1.428 . S
C330 N329 1.351 . S
C330 C331 1.434 1_655 S
C331 C322 1.429 . S
C331 N328 1.350 . S
C331 C330 1.434 1_455 S
C332 C333 1.369 . S
C332 C334 1.419 . S
C332 H336 0.930 . S
C333 C332 1.369 . S
C333 C342 1.429 1_545 S
C334 C332 1.419 . S
C334 C335 1.363 1_545 S
C334 H337 0.929 . S
C335 C334 1.363 1_565 S
C335 C341 1.428 . S
H336 C332 0.930 . S
H337 C334 0.929 . S
S338 N339 1.613 . S
S338 N340 1.610 . S
N339 S338 1.613 . S
N339 C342 1.350 . S
N340 S338 1.610 . S
N340 C341 1.351 . S
C341 C335 1.428 . S
C341 N340 1.351 . S
C341 C342 1.434 . S
C342 C333 1.429 1_565 S
C342 N339 1.350 . S
C342 C341 1.434 . S
C343 C344 1.369 . S
C343 C345 1.419 . S
C343 H347 0.930 . S
C344 C343 1.369 . S
C344 C353 1.429 1_554 S
C345 C343 1.419 . S
C345 C346 1.363 . S
C345 H348 0.929 . S
C346 C345 1.363 . S
C346 C352 1.428 1_554 S
H347 C343 0.930 . S
H348 C345 0.929 . S
S349 N350 1.613 . S
S349 N351 1.610 . S
N350 S349 1.613 . S
N350 C353 1.350 . S
N351 S349 1.610 . S
N351 C352 1.351 . S
C352 C346 1.428 1_556 S
C352 N351 1.351 . S
C352 C353 1.434 . S
C353 C344 1.429 1_556 S
C353 N350 1.350 . S
C353 C352 1.434 . S
C354 C355 1.369 . S
C354 C356 1.419 . S
C354 H358 0.930 . S
C355 C354 1.369 . S
C355 C364 1.429 . S
C356 C354 1.419 . S
C356 C357 1.363 . S
C356 H359 0.929 . S
C357 C356 1.363 . S
C357 C363 1.428 . S
H358 C354 0.930 . S
H359 C356 0.929 . S
S360 N361 1.613 . S
S360 N362 1.610 . S
N361 S360 1.613 . S
N361 C364 1.350 . S
N362 S360 1.610 . S
N362 C363 1.351 . S
C363 C357 1.428 . S
C363 N362 1.351 . S
C363 C364 1.434 . S
C364 C355 1.429 . S
C364 N361 1.350 . S
C364 C363 1.434 . S
C365 C366 1.369 . S
C365 C367 1.419 . S
C365 H369 0.930 . S
C366 C365 1.369 . S
C366 C375 1.429 . S
C367 C365 1.419 . S
C367 C368 1.363 . S
C367 H370 0.929 . S
C368 C367 1.363 . S
C368 C374 1.428 . S
H369 C365 0.930 . S
H370 C367 0.929 . S
S371 N372 1.613 . S
S371 N373 1.610 . S
N372 S371 1.613 . S
N372 C375 1.350 . S
N373 S371 1.610 . S
N373 C374 1.351 . S
C374 C368 1.428 . S
C374 N373 1.351 . S
C374 C375 1.434 . S
C375 C366 1.429 . S
C375 N372 1.350 . S
C375 C374 1.434 . S
C376 C377 1.369 . S
C376 C378 1.419 . S
C376 H380 0.930 . S
C377 C376 1.369 . S
C377 C386 1.429 . S
C378 C376 1.419 . S
C378 C379 1.363 . S
C378 H381 0.929 . S
C379 C378 1.363 . S
C379 C385 1.428 . S
H380 C376 0.930 . S
H381 C378 0.929 . S
S382 N383 1.613 . S
S382 N384 1.610 . S
N383 S382 1.613 . S
N383 C386 1.350 . S
N384 S382 1.610 . S
N384 C385 1.351 . S
C385 C379 1.428 . S
C385 N384 1.351 . S
C385 C386 1.434 . S
C386 C377 1.429 . S
C386 N383 1.350 . S
C386 C385 1.434 . S
C387 C388 1.369 . S
C387 C389 1.419 . S
C387 H391 0.930 . S
C388 C387 1.369 . S
C388 C397 1.429 . S
C389 C387 1.419 . S
C389 C390 1.363 . S
C389 H392 0.929 . S
C390 C389 1.363 . S
C390 C396 1.428 . S
H391 C387 0.930 . S
H392 C389 0.929 . S
S393 N394 1.613 . S
S393 N395 1.610 . S
N394 S393 1.613 . S
N394 C397 1.350 . S
N395 S393 1.610 . S
N395 C396 1.351 . S
C396 C390 1.428 . S
C396 N395 1.351 . S
C396 C397 1.434 . S
C397 C388 1.429 . S
C397 N394 1.350 . S
C397 C396 1.434 . S
C398 C399 1.369 . S
C398 C400 1.419 . S
C398 H402 0.930 . S
C399 C398 1.369 . S
C399 C408 1.429 . S
C400 C398 1.419 . S
C400 C401 1.363 . S
C400 H403 0.929 . S
C401 C400 1.363 . S
C401 C407 1.428 . S
H402 C398 0.930 . S
H403 C400 0.929 . S
S404 N405 1.613 . S
S404 N406 1.610 . S
N405 S404 1.613 . S
N405 C408 1.350 . S
N406 S404 1.610 . S
N406 C407 1.351 . S
C407 C401 1.428 . S
C407 N406 1.351 . S
C407 C408 1.434 . S
C408 C399 1.429 . S
C408 N405 1.350 . S
C408 C407 1.434 . S
C409 C410 1.369 . S
C409 C411 1.419 . S
C409 H413 0.930 . S
C410 C409 1.369 . S
C410 C419 1.429 . S
C411 C409 1.419 . S
C411 C412 1.363 . S
C411 H414 0.929 . S
C412 C411 1.363 . S
C412 C418 1.428 . S
H413 C409 0.930 . S
H414 C411 0.929 . S
S415 N416 1.613 . S
S415 N417 1.610 . S
N416 S415 1.613 . S
N416 C419 1.350 . S
N417 S415 1.610 . S
N417 C418 1.351 . S
C418 C412 1.428 . S
C418 N417 1.351 . S
C418 C419 1.434 . S
C419 C410 1.429 . S
C419 N416 1.350 . S
C419 C418 1.434 . S
C157 C10 1.613 . S
C159 C140 1.617 . S
C168 C14 1.643 . S
C170 C153 1.617 . S
C179 C79 1.642 . S
C181 C36 1.617 . S
C190 C49 1.612 . S
C192 C101 1.617 . S
C201 C114 1.612 . S
C203 C53 1.642 . S
C212 C118 1.644 . S
C214 C75 1.616 . S
C223 C88 1.223 . S
C225 C1 1.168 . S
C234 C92 1.179 . S
C236 C23 1.225 . S
C245 C105 1.166 . S
C247 C27 1.170 . S
C256 C40 1.177 . S
C258 C127 1.223 . S
C267 C62 1.227 . S
C269 C131 1.174 . S
C278 C66 1.179 . S
C280 C144 1.176 . S
C289 C3 2.206 . S
C291 C42 2.208 . S
C300 C18 2.428 . S
C302 C57 2.423 . S
C311 C29 2.202 . S
C313 C68 2.211 . S
C322 C122 2.424 . S
C324 C83 2.425 . S
C333 C133 2.212 . S
C335 C94 2.203 . S
C344 C146 2.207 . S
C346 C107 2.207 . S
C355 C5 1.791 . S
C357 C109 1.789 . S
C366 C120 1.766 . S
C368 C16 1.765 . S
C377 C31 1.790 . S
C379 C135 1.793 . S
C388 C148 1.790 . S
C390 C44 1.789 . S
C399 C55 1.762 . S
C401 C81 1.767 . S
C410 C70 1.795 . S
C412 C96 1.793 . S
