# Generated by pormake.
# Topology pbg, (3)-cn, num edge types: 1
# Building blocks:
#     Node 0, Type 0, BuildingBlock: WUSLED_clean_sbu_0, # of connection points: 3
#     Node 1, Type 0, BuildingBlock: WUSLED_clean_sbu_0, # of connection points: 3
#     Node 2, Type 0, BuildingBlock: WUSLED_clean_sbu_0, # of connection points: 3
#     Node 3, Type 0, BuildingBlock: WUSLED_clean_sbu_0, # of connection points: 3
#     Node 4, Type 0, BuildingBlock: WUSLED_clean_sbu_0, # of connection points: 3
#     Node 5, Type 0, BuildingBlock: WUSLED_clean_sbu_0, # of connection points: 3
#     Node 6, Type 0, BuildingBlock: WUSLED_clean_sbu_0, # of connection points: 3
#     Node 7, Type 0, BuildingBlock: WUSLED_clean_sbu_0, # of connection points: 3
#     Node 8, Type 0, BuildingBlock: WUSLED_clean_sbu_0, # of connection points: 3
#     Node 9, Type 0, BuildingBlock: WUSLED_clean_sbu_0, # of connection points: 3
#     Node 10, Type 0, BuildingBlock: WUSLED_clean_sbu_0, # of connection points: 3
#     Node 11, Type 0, BuildingBlock: WUSLED_clean_sbu_0, # of connection points: 3
#     Node 12, Type 0, BuildingBlock: WUSLED_clean_sbu_0, # of connection points: 3
#     Node 13, Type 0, BuildingBlock: WUSLED_clean_sbu_0, # of connection points: 3
#     Node 14, Type 0, BuildingBlock: WUSLED_clean_sbu_0, # of connection points: 3
#     Node 15, Type 0, BuildingBlock: WUSLED_clean_sbu_0, # of connection points: 3
#     Node 16, Type 0, BuildingBlock: WUSLED_clean_sbu_0, # of connection points: 3
#     Node 17, Type 0, BuildingBlock: WUSLED_clean_sbu_0, # of connection points: 3
#     Node 18, Type 0, BuildingBlock: WUSLED_clean_sbu_0, # of connection points: 3
#     Node 19, Type 0, BuildingBlock: WUSLED_clean_sbu_0, # of connection points: 3
#     Node 20, Type 0, BuildingBlock: WUSLED_clean_sbu_0, # of connection points: 3
#     Node 21, Type 0, BuildingBlock: WUSLED_clean_sbu_0, # of connection points: 3
#     Node 22, Type 0, BuildingBlock: WUSLED_clean_sbu_0, # of connection points: 3
#     Node 23, Type 0, BuildingBlock: WUSLED_clean_sbu_0, # of connection points: 3
#     Node 24, Type 0, BuildingBlock: WUSLED_clean_sbu_0, # of connection points: 3
#     Node 25, Type 0, BuildingBlock: WUSLED_clean_sbu_0, # of connection points: 3
#     Node 26, Type 0, BuildingBlock: WUSLED_clean_sbu_0, # of connection points: 3
#     Node 27, Type 0, BuildingBlock: WUSLED_clean_sbu_0, # of connection points: 3
#     Node 28, Type 0, BuildingBlock: WUSLED_clean_sbu_0, # of connection points: 3
#     Node 29, Type 0, BuildingBlock: WUSLED_clean_sbu_0, # of connection points: 3
#     Node 30, Type 0, BuildingBlock: WUSLED_clean_sbu_0, # of connection points: 3
#     Node 31, Type 0, BuildingBlock: WUSLED_clean_sbu_0, # of connection points: 3
#     Node 32, Type 0, BuildingBlock: WUSLED_clean_sbu_0, # of connection points: 3
#     Node 33, Type 0, BuildingBlock: WUSLED_clean_sbu_0, # of connection points: 3
#     Node 34, Type 0, BuildingBlock: WUSLED_clean_sbu_0, # of connection points: 3
#     Node 35, Type 0, BuildingBlock: WUSLED_clean_sbu_0, # of connection points: 3
#     Node 36, Type 0, BuildingBlock: WUSLED_clean_sbu_0, # of connection points: 3
#     Node 37, Type 0, BuildingBlock: WUSLED_clean_sbu_0, # of connection points: 3
#     Node 38, Type 0, BuildingBlock: WUSLED_clean_sbu_0, # of connection points: 3
#     Node 39, Type 0, BuildingBlock: WUSLED_clean_sbu_0, # of connection points: 3
#     Node 40, Type 0, BuildingBlock: WUSLED_clean_sbu_0, # of connection points: 3
#     Node 41, Type 0, BuildingBlock: WUSLED_clean_sbu_0, # of connection points: 3
#     Node 42, Type 0, BuildingBlock: WUSLED_clean_sbu_0, # of connection points: 3
#     Node 43, Type 0, BuildingBlock: WUSLED_clean_sbu_0, # of connection points: 3
#     Node 44, Type 0, BuildingBlock: WUSLED_clean_sbu_0, # of connection points: 3
#     Node 45, Type 0, BuildingBlock: WUSLED_clean_sbu_0, # of connection points: 3
#     Node 46, Type 0, BuildingBlock: WUSLED_clean_sbu_0, # of connection points: 3
#     Node 47, Type 0, BuildingBlock: WUSLED_clean_sbu_0, # of connection points: 3
#     Node 48, Type 0, BuildingBlock: WUSLED_clean_sbu_0, # of connection points: 3
#     Node 49, Type 0, BuildingBlock: WUSLED_clean_sbu_0, # of connection points: 3
#     Node 50, Type 0, BuildingBlock: WUSLED_clean_sbu_0, # of connection points: 3
#     Node 51, Type 0, BuildingBlock: WUSLED_clean_sbu_0, # of connection points: 3
#     Node 52, Type 0, BuildingBlock: WUSLED_clean_sbu_0, # of connection points: 3
#     Node 53, Type 0, BuildingBlock: WUSLED_clean_sbu_0, # of connection points: 3
#     Node 54, Type 0, BuildingBlock: WUSLED_clean_sbu_0, # of connection points: 3
#     Node 55, Type 0, BuildingBlock: WUSLED_clean_sbu_0, # of connection points: 3
#     Node 56, Type 0, BuildingBlock: WUSLED_clean_sbu_0, # of connection points: 3
#     Node 57, Type 0, BuildingBlock: WUSLED_clean_sbu_0, # of connection points: 3
#     Node 58, Type 0, BuildingBlock: WUSLED_clean_sbu_0, # of connection points: 3
#     Node 59, Type 0, BuildingBlock: WUSLED_clean_sbu_0, # of connection points: 3
#     Node 60, Type 0, BuildingBlock: WUSLED_clean_sbu_0, # of connection points: 3
#     Node 61, Type 0, BuildingBlock: WUSLED_clean_sbu_0, # of connection points: 3
#     Node 62, Type 0, BuildingBlock: WUSLED_clean_sbu_0, # of connection points: 3
#     Node 63, Type 0, BuildingBlock: WUSLED_clean_sbu_0, # of connection points: 3
#     Node 64, Type 0, BuildingBlock: WUSLED_clean_sbu_0, # of connection points: 3
#     Node 65, Type 0, BuildingBlock: WUSLED_clean_sbu_0, # of connection points: 3
#     Node 66, Type 0, BuildingBlock: WUSLED_clean_sbu_0, # of connection points: 3
#     Node 67, Type 0, BuildingBlock: WUSLED_clean_sbu_0, # of connection points: 3
#     Node 68, Type 0, BuildingBlock: WUSLED_clean_sbu_0, # of connection points: 3
#     Node 69, Type 0, BuildingBlock: WUSLED_clean_sbu_0, # of connection points: 3
#     Node 70, Type 0, BuildingBlock: WUSLED_clean_sbu_0, # of connection points: 3
#     Node 71, Type 0, BuildingBlock: WUSLED_clean_sbu_0, # of connection points: 3
#     Node 72, Type 0, BuildingBlock: WUSLED_clean_sbu_0, # of connection points: 3
#     Node 73, Type 0, BuildingBlock: WUSLED_clean_sbu_0, # of connection points: 3
#     Node 74, Type 0, BuildingBlock: WUSLED_clean_sbu_0, # of connection points: 3
#     Node 75, Type 0, BuildingBlock: WUSLED_clean_sbu_0, # of connection points: 3
#     Node 76, Type 0, BuildingBlock: WUSLED_clean_sbu_0, # of connection points: 3
#     Node 77, Type 0, BuildingBlock: WUSLED_clean_sbu_0, # of connection points: 3
#     Node 78, Type 0, BuildingBlock: WUSLED_clean_sbu_0, # of connection points: 3
#     Node 79, Type 0, BuildingBlock: WUSLED_clean_sbu_0, # of connection points: 3
#     Node 80, Type 0, BuildingBlock: WUSLED_clean_sbu_0, # of connection points: 3
#     Node 81, Type 0, BuildingBlock: WUSLED_clean_sbu_0, # of connection points: 3
#     Node 82, Type 0, BuildingBlock: WUSLED_clean_sbu_0, # of connection points: 3
#     Node 83, Type 0, BuildingBlock: WUSLED_clean_sbu_0, # of connection points: 3
#     Node 84, Type 0, BuildingBlock: WUSLED_clean_sbu_0, # of connection points: 3
#     Node 85, Type 0, BuildingBlock: WUSLED_clean_sbu_0, # of connection points: 3
#     Node 86, Type 0, BuildingBlock: WUSLED_clean_sbu_0, # of connection points: 3
#     Node 87, Type 0, BuildingBlock: WUSLED_clean_sbu_0, # of connection points: 3
#     Node 88, Type 0, BuildingBlock: WUSLED_clean_sbu_0, # of connection points: 3
#     Node 89, Type 0, BuildingBlock: WUSLED_clean_sbu_0, # of connection points: 3
#     Node 90, Type 0, BuildingBlock: WUSLED_clean_sbu_0, # of connection points: 3
#     Node 91, Type 0, BuildingBlock: WUSLED_clean_sbu_0, # of connection points: 3
#     Node 92, Type 0, BuildingBlock: WUSLED_clean_sbu_0, # of connection points: 3
#     Node 93, Type 0, BuildingBlock: WUSLED_clean_sbu_0, # of connection points: 3
#     Node 94, Type 0, BuildingBlock: WUSLED_clean_sbu_0, # of connection points: 3
#     Node 95, Type 0, BuildingBlock: WUSLED_clean_sbu_0, # of connection points: 3
#     Edge 96, Type (0, 0), BuildingBlock: TEMPAE_clean_linker_10, # of connection points: 2
#     Edge 97, Type (0, 0), BuildingBlock: TEMPAE_clean_linker_10, # of connection points: 2
#     Edge 98, Type (0, 0), BuildingBlock: TEMPAE_clean_linker_10, # of connection points: 2
#     Edge 99, Type (0, 0), BuildingBlock: TEMPAE_clean_linker_10, # of connection points: 2
#     Edge 100, Type (0, 0), BuildingBlock: TEMPAE_clean_linker_10, # of connection points: 2
#     Edge 101, Type (0, 0), BuildingBlock: TEMPAE_clean_linker_10, # of connection points: 2
#     Edge 102, Type (0, 0), BuildingBlock: TEMPAE_clean_linker_10, # of connection points: 2
#     Edge 103, Type (0, 0), BuildingBlock: TEMPAE_clean_linker_10, # of connection points: 2
#     Edge 104, Type (0, 0), BuildingBlock: TEMPAE_clean_linker_10, # of connection points: 2
#     Edge 105, Type (0, 0), BuildingBlock: TEMPAE_clean_linker_10, # of connection points: 2
#     Edge 106, Type (0, 0), BuildingBlock: TEMPAE_clean_linker_10, # of connection points: 2
#     Edge 107, Type (0, 0), BuildingBlock: TEMPAE_clean_linker_10, # of connection points: 2
#     Edge 108, Type (0, 0), BuildingBlock: TEMPAE_clean_linker_10, # of connection points: 2
#     Edge 109, Type (0, 0), BuildingBlock: TEMPAE_clean_linker_10, # of connection points: 2
#     Edge 110, Type (0, 0), BuildingBlock: TEMPAE_clean_linker_10, # of connection points: 2
#     Edge 111, Type (0, 0), BuildingBlock: TEMPAE_clean_linker_10, # of connection points: 2
#     Edge 112, Type (0, 0), BuildingBlock: TEMPAE_clean_linker_10, # of connection points: 2
#     Edge 113, Type (0, 0), BuildingBlock: TEMPAE_clean_linker_10, # of connection points: 2
#     Edge 114, Type (0, 0), BuildingBlock: TEMPAE_clean_linker_10, # of connection points: 2
#     Edge 115, Type (0, 0), BuildingBlock: TEMPAE_clean_linker_10, # of connection points: 2
#     Edge 116, Type (0, 0), BuildingBlock: TEMPAE_clean_linker_10, # of connection points: 2
#     Edge 117, Type (0, 0), BuildingBlock: TEMPAE_clean_linker_10, # of connection points: 2
#     Edge 118, Type (0, 0), BuildingBlock: TEMPAE_clean_linker_10, # of connection points: 2
#     Edge 119, Type (0, 0), BuildingBlock: TEMPAE_clean_linker_10, # of connection points: 2
#     Edge 120, Type (0, 0), BuildingBlock: TEMPAE_clean_linker_10, # of connection points: 2
#     Edge 121, Type (0, 0), BuildingBlock: TEMPAE_clean_linker_10, # of connection points: 2
#     Edge 122, Type (0, 0), BuildingBlock: TEMPAE_clean_linker_10, # of connection points: 2
#     Edge 123, Type (0, 0), BuildingBlock: TEMPAE_clean_linker_10, # of connection points: 2
#     Edge 124, Type (0, 0), BuildingBlock: TEMPAE_clean_linker_10, # of connection points: 2
#     Edge 125, Type (0, 0), BuildingBlock: TEMPAE_clean_linker_10, # of connection points: 2
#     Edge 126, Type (0, 0), BuildingBlock: TEMPAE_clean_linker_10, # of connection points: 2
#     Edge 127, Type (0, 0), BuildingBlock: TEMPAE_clean_linker_10, # of connection points: 2
#     Edge 128, Type (0, 0), BuildingBlock: TEMPAE_clean_linker_10, # of connection points: 2
#     Edge 129, Type (0, 0), BuildingBlock: TEMPAE_clean_linker_10, # of connection points: 2
#     Edge 130, Type (0, 0), BuildingBlock: TEMPAE_clean_linker_10, # of connection points: 2
#     Edge 131, Type (0, 0), BuildingBlock: TEMPAE_clean_linker_10, # of connection points: 2
#     Edge 132, Type (0, 0), BuildingBlock: TEMPAE_clean_linker_10, # of connection points: 2
#     Edge 133, Type (0, 0), BuildingBlock: TEMPAE_clean_linker_10, # of connection points: 2
#     Edge 134, Type (0, 0), BuildingBlock: TEMPAE_clean_linker_10, # of connection points: 2
#     Edge 135, Type (0, 0), BuildingBlock: TEMPAE_clean_linker_10, # of connection points: 2
#     Edge 136, Type (0, 0), BuildingBlock: TEMPAE_clean_linker_10, # of connection points: 2
#     Edge 137, Type (0, 0), BuildingBlock: TEMPAE_clean_linker_10, # of connection points: 2
#     Edge 138, Type (0, 0), BuildingBlock: TEMPAE_clean_linker_10, # of connection points: 2
#     Edge 139, Type (0, 0), BuildingBlock: TEMPAE_clean_linker_10, # of connection points: 2
#     Edge 140, Type (0, 0), BuildingBlock: TEMPAE_clean_linker_10, # of connection points: 2
#     Edge 141, Type (0, 0), BuildingBlock: TEMPAE_clean_linker_10, # of connection points: 2
#     Edge 142, Type (0, 0), BuildingBlock: TEMPAE_clean_linker_10, # of connection points: 2
#     Edge 143, Type (0, 0), BuildingBlock: TEMPAE_clean_linker_10, # of connection points: 2
#     Edge 144, Type (0, 0), BuildingBlock: TEMPAE_clean_linker_10, # of connection points: 2
#     Edge 145, Type (0, 0), BuildingBlock: TEMPAE_clean_linker_10, # of connection points: 2
#     Edge 146, Type (0, 0), BuildingBlock: TEMPAE_clean_linker_10, # of connection points: 2
#     Edge 147, Type (0, 0), BuildingBlock: TEMPAE_clean_linker_10, # of connection points: 2
#     Edge 148, Type (0, 0), BuildingBlock: TEMPAE_clean_linker_10, # of connection points: 2
#     Edge 149, Type (0, 0), BuildingBlock: TEMPAE_clean_linker_10, # of connection points: 2
#     Edge 150, Type (0, 0), BuildingBlock: TEMPAE_clean_linker_10, # of connection points: 2
#     Edge 151, Type (0, 0), BuildingBlock: TEMPAE_clean_linker_10, # of connection points: 2
#     Edge 152, Type (0, 0), BuildingBlock: TEMPAE_clean_linker_10, # of connection points: 2
#     Edge 153, Type (0, 0), BuildingBlock: TEMPAE_clean_linker_10, # of connection points: 2
#     Edge 154, Type (0, 0), BuildingBlock: TEMPAE_clean_linker_10, # of connection points: 2
#     Edge 155, Type (0, 0), BuildingBlock: TEMPAE_clean_linker_10, # of connection points: 2
#     Edge 156, Type (0, 0), BuildingBlock: TEMPAE_clean_linker_10, # of connection points: 2
#     Edge 157, Type (0, 0), BuildingBlock: TEMPAE_clean_linker_10, # of connection points: 2
#     Edge 158, Type (0, 0), BuildingBlock: TEMPAE_clean_linker_10, # of connection points: 2
#     Edge 159, Type (0, 0), BuildingBlock: TEMPAE_clean_linker_10, # of connection points: 2
#     Edge 160, Type (0, 0), BuildingBlock: TEMPAE_clean_linker_10, # of connection points: 2
#     Edge 161, Type (0, 0), BuildingBlock: TEMPAE_clean_linker_10, # of connection points: 2
#     Edge 162, Type (0, 0), BuildingBlock: TEMPAE_clean_linker_10, # of connection points: 2
#     Edge 163, Type (0, 0), BuildingBlock: TEMPAE_clean_linker_10, # of connection points: 2
#     Edge 164, Type (0, 0), BuildingBlock: TEMPAE_clean_linker_10, # of connection points: 2
#     Edge 165, Type (0, 0), BuildingBlock: TEMPAE_clean_linker_10, # of connection points: 2
#     Edge 166, Type (0, 0), BuildingBlock: TEMPAE_clean_linker_10, # of connection points: 2
#     Edge 167, Type (0, 0), BuildingBlock: TEMPAE_clean_linker_10, # of connection points: 2
#     Edge 168, Type (0, 0), BuildingBlock: TEMPAE_clean_linker_10, # of connection points: 2
#     Edge 169, Type (0, 0), BuildingBlock: TEMPAE_clean_linker_10, # of connection points: 2
#     Edge 170, Type (0, 0), BuildingBlock: TEMPAE_clean_linker_10, # of connection points: 2
#     Edge 171, Type (0, 0), BuildingBlock: TEMPAE_clean_linker_10, # of connection points: 2
#     Edge 172, Type (0, 0), BuildingBlock: TEMPAE_clean_linker_10, # of connection points: 2
#     Edge 173, Type (0, 0), BuildingBlock: TEMPAE_clean_linker_10, # of connection points: 2
#     Edge 174, Type (0, 0), BuildingBlock: TEMPAE_clean_linker_10, # of connection points: 2
#     Edge 175, Type (0, 0), BuildingBlock: TEMPAE_clean_linker_10, # of connection points: 2
#     Edge 176, Type (0, 0), BuildingBlock: TEMPAE_clean_linker_10, # of connection points: 2
#     Edge 177, Type (0, 0), BuildingBlock: TEMPAE_clean_linker_10, # of connection points: 2
#     Edge 178, Type (0, 0), BuildingBlock: TEMPAE_clean_linker_10, # of connection points: 2
#     Edge 179, Type (0, 0), BuildingBlock: TEMPAE_clean_linker_10, # of connection points: 2
#     Edge 180, Type (0, 0), BuildingBlock: TEMPAE_clean_linker_10, # of connection points: 2
#     Edge 181, Type (0, 0), BuildingBlock: TEMPAE_clean_linker_10, # of connection points: 2
#     Edge 182, Type (0, 0), BuildingBlock: TEMPAE_clean_linker_10, # of connection points: 2
#     Edge 183, Type (0, 0), BuildingBlock: TEMPAE_clean_linker_10, # of connection points: 2
#     Edge 184, Type (0, 0), BuildingBlock: TEMPAE_clean_linker_10, # of connection points: 2
#     Edge 185, Type (0, 0), BuildingBlock: TEMPAE_clean_linker_10, # of connection points: 2
#     Edge 186, Type (0, 0), BuildingBlock: TEMPAE_clean_linker_10, # of connection points: 2
#     Edge 187, Type (0, 0), BuildingBlock: TEMPAE_clean_linker_10, # of connection points: 2
#     Edge 188, Type (0, 0), BuildingBlock: TEMPAE_clean_linker_10, # of connection points: 2
#     Edge 189, Type (0, 0), BuildingBlock: TEMPAE_clean_linker_10, # of connection points: 2
#     Edge 190, Type (0, 0), BuildingBlock: TEMPAE_clean_linker_10, # of connection points: 2
#     Edge 191, Type (0, 0), BuildingBlock: TEMPAE_clean_linker_10, # of connection points: 2
#     Edge 192, Type (0, 0), BuildingBlock: TEMPAE_clean_linker_10, # of connection points: 2
#     Edge 193, Type (0, 0), BuildingBlock: TEMPAE_clean_linker_10, # of connection points: 2
#     Edge 194, Type (0, 0), BuildingBlock: TEMPAE_clean_linker_10, # of connection points: 2
#     Edge 195, Type (0, 0), BuildingBlock: TEMPAE_clean_linker_10, # of connection points: 2
#     Edge 196, Type (0, 0), BuildingBlock: TEMPAE_clean_linker_10, # of connection points: 2
#     Edge 197, Type (0, 0), BuildingBlock: TEMPAE_clean_linker_10, # of connection points: 2
#     Edge 198, Type (0, 0), BuildingBlock: TEMPAE_clean_linker_10, # of connection points: 2
#     Edge 199, Type (0, 0), BuildingBlock: TEMPAE_clean_linker_10, # of connection points: 2
#     Edge 200, Type (0, 0), BuildingBlock: TEMPAE_clean_linker_10, # of connection points: 2
#     Edge 201, Type (0, 0), BuildingBlock: TEMPAE_clean_linker_10, # of connection points: 2
#     Edge 202, Type (0, 0), BuildingBlock: TEMPAE_clean_linker_10, # of connection points: 2
#     Edge 203, Type (0, 0), BuildingBlock: TEMPAE_clean_linker_10, # of connection points: 2
#     Edge 204, Type (0, 0), BuildingBlock: TEMPAE_clean_linker_10, # of connection points: 2
#     Edge 205, Type (0, 0), BuildingBlock: TEMPAE_clean_linker_10, # of connection points: 2
#     Edge 206, Type (0, 0), BuildingBlock: TEMPAE_clean_linker_10, # of connection points: 2
#     Edge 207, Type (0, 0), BuildingBlock: TEMPAE_clean_linker_10, # of connection points: 2
#     Edge 208, Type (0, 0), BuildingBlock: TEMPAE_clean_linker_10, # of connection points: 2
#     Edge 209, Type (0, 0), BuildingBlock: TEMPAE_clean_linker_10, # of connection points: 2
#     Edge 210, Type (0, 0), BuildingBlock: TEMPAE_clean_linker_10, # of connection points: 2
#     Edge 211, Type (0, 0), BuildingBlock: TEMPAE_clean_linker_10, # of connection points: 2
#     Edge 212, Type (0, 0), BuildingBlock: TEMPAE_clean_linker_10, # of connection points: 2
#     Edge 213, Type (0, 0), BuildingBlock: TEMPAE_clean_linker_10, # of connection points: 2
#     Edge 214, Type (0, 0), BuildingBlock: TEMPAE_clean_linker_10, # of connection points: 2
#     Edge 215, Type (0, 0), BuildingBlock: TEMPAE_clean_linker_10, # of connection points: 2
#     Edge 216, Type (0, 0), BuildingBlock: TEMPAE_clean_linker_10, # of connection points: 2
#     Edge 217, Type (0, 0), BuildingBlock: TEMPAE_clean_linker_10, # of connection points: 2
#     Edge 218, Type (0, 0), BuildingBlock: TEMPAE_clean_linker_10, # of connection points: 2
#     Edge 219, Type (0, 0), BuildingBlock: TEMPAE_clean_linker_10, # of connection points: 2
#     Edge 220, Type (0, 0), BuildingBlock: TEMPAE_clean_linker_10, # of connection points: 2
#     Edge 221, Type (0, 0), BuildingBlock: TEMPAE_clean_linker_10, # of connection points: 2
#     Edge 222, Type (0, 0), BuildingBlock: TEMPAE_clean_linker_10, # of connection points: 2
#     Edge 223, Type (0, 0), BuildingBlock: TEMPAE_clean_linker_10, # of connection points: 2
#     Edge 224, Type (0, 0), BuildingBlock: TEMPAE_clean_linker_10, # of connection points: 2
#     Edge 225, Type (0, 0), BuildingBlock: TEMPAE_clean_linker_10, # of connection points: 2
#     Edge 226, Type (0, 0), BuildingBlock: TEMPAE_clean_linker_10, # of connection points: 2
#     Edge 227, Type (0, 0), BuildingBlock: TEMPAE_clean_linker_10, # of connection points: 2
#     Edge 228, Type (0, 0), BuildingBlock: TEMPAE_clean_linker_10, # of connection points: 2
#     Edge 229, Type (0, 0), BuildingBlock: TEMPAE_clean_linker_10, # of connection points: 2
#     Edge 230, Type (0, 0), BuildingBlock: TEMPAE_clean_linker_10, # of connection points: 2
#     Edge 231, Type (0, 0), BuildingBlock: TEMPAE_clean_linker_10, # of connection points: 2
#     Edge 232, Type (0, 0), BuildingBlock: TEMPAE_clean_linker_10, # of connection points: 2
#     Edge 233, Type (0, 0), BuildingBlock: TEMPAE_clean_linker_10, # of connection points: 2
#     Edge 234, Type (0, 0), BuildingBlock: TEMPAE_clean_linker_10, # of connection points: 2
#     Edge 235, Type (0, 0), BuildingBlock: TEMPAE_clean_linker_10, # of connection points: 2
#     Edge 236, Type (0, 0), BuildingBlock: TEMPAE_clean_linker_10, # of connection points: 2
#     Edge 237, Type (0, 0), BuildingBlock: TEMPAE_clean_linker_10, # of connection points: 2
#     Edge 238, Type (0, 0), BuildingBlock: TEMPAE_clean_linker_10, # of connection points: 2
#     Edge 239, Type (0, 0), BuildingBlock: TEMPAE_clean_linker_10, # of connection points: 2
# Relax obj value: 0.000
# Max RMSD: 0.005
# Mean RMSD: 0.005
data_MOF--net-pbg--node1-WUSLED_clean_sbu_0--edge1-TEMPAE_clean_linker_10
_symmetry_space_group_name_H-M    P1
_symmetry_Int_Tables_number       1
_symmetry_cell_setting            triclinic
loop_
_symmetry_equiv_pos_as_xyz
'x, y, z'
_cell_length_a     154.81408
_cell_length_b     154.82669
_cell_length_c     154.90118
_cell_angle_alpha  89.917739
_cell_angle_beta   90.013933
_cell_angle_gamma 89.96781
loop_
_atom_site_label
_atom_site_type_symbol
_atom_site_fract_x
_atom_site_fract_y
_atom_site_fract_z
_atom_type_partial_charge
C0 C 0.18145 0.23529 0.37717 0.0
C1 C 0.18881 0.24018 0.37511 0.0
C2 C 0.17971 0.25181 0.36947 0.0
C3 C 0.18795 0.24837 0.3713 0.0
C4 C 0.17239 0.2468 0.37147 0.0
C5 C 0.17326 0.23865 0.37528 0.0
U6 U 0.19352 0.21427 0.38311 0.0
O7 O 0.19337 0.20694 0.39528 0.0
O8 O 0.18858 0.20091 0.38339 0.0
C9 C 0.18947 0.20024 0.3918 0.0
C10 C 0.18209 0.22673 0.38133 0.0
C11 C 0.18202 0.19659 0.39657 0.0
C12 C 0.17054 0.19765 0.4073 0.0
C13 C 0.17726 0.20147 0.40256 0.0
C14 C 0.17312 0.18408 0.4 0.0
C15 C 0.16841 0.18889 0.4061 0.0
C16 C 0.17985 0.18789 0.39532 0.0
C17 C 0.21704 0.21083 0.37529 0.0
C18 C 0.22488 0.19745 0.37263 0.0
C19 C 0.23274 0.21084 0.37445 0.0
C20 C 0.22494 0.21525 0.37563 0.0
C21 C 0.23282 0.20189 0.37287 0.0
C22 C 0.21707 0.20187 0.37386 0.0
C23 C 0.20892 0.21581 0.37609 0.0
O24 O 0.18257 0.22008 0.3761 0.0
O25 O 0.18738 0.22614 0.38795 0.0
O26 O 0.20704 0.21873 0.38383 0.0
O27 O 0.20216 0.21279 0.37193 0.0
H28 H 0.1952 0.23769 0.3765 0.0
H29 H 0.19373 0.25205 0.36992 0.0
H30 H 0.16596 0.24914 0.37001 0.0
H31 H 0.1675 0.23496 0.37678 0.0
H32 H 0.16698 0.20157 0.41187 0.0
H33 H 0.17876 0.20822 0.40364 0.0
H34 H 0.17174 0.1773 0.39898 0.0
H35 H 0.18346 0.18398 0.39077 0.0
H36 H 0.22472 0.19054 0.37153 0.0
H37 H 0.23871 0.21448 0.37457 0.0
H38 H 0.22507 0.22216 0.37668 0.0
H39 H 0.21106 0.1983 0.37361 0.0
C40 C 0.05609 0.93109 0.62717 0.0
C41 C 0.05197 0.93828 0.62348 0.0
C42 C 0.03966 0.92931 0.61936 0.0
C43 C 0.04382 0.9374 0.61961 0.0
C44 C 0.04389 0.92213 0.62302 0.0
C45 C 0.05201 0.92303 0.62689 0.0
U46 U 0.07708 0.94329 0.63262 0.0
O47 O 0.08418 0.94387 0.64496 0.0
O48 O 0.09039 0.93839 0.63348 0.0
C49 C 0.09094 0.93981 0.64183 0.0
C50 C 0.06459 0.93183 0.63141 0.0
C51 C 0.09439 0.93265 0.64712 0.0
C52 C 0.09569 0.91734 0.65052 0.0
C53 C 0.09198 0.92403 0.64565 0.0
C54 C 0.1041 0.92781 0.6585 0.0
C55 C 0.10184 0.91914 0.65697 0.0
C56 C 0.10042 0.93448 0.65361 0.0
C57 C 0.08061 0.96622 0.6233 0.0
C58 C 0.09136 0.97671 0.62796 0.0
C59 C 0.08309 0.9793 0.61494 0.0
C60 C 0.07875 0.97147 0.61616 0.0
C61 C 0.0894 0.98208 0.62086 0.0
C62 C 0.08701 0.96885 0.62917 0.0
C63 C 0.07564 0.95818 0.62454 0.0
O64 O 0.07133 0.93194 0.62625 0.0
O65 O 0.06513 0.93751 0.63769 0.0
O66 O 0.07262 0.95678 0.63235 0.0
O67 O 0.07884 0.95121 0.62091 0.0
H68 H 0.05503 0.94457 0.62364 0.0
H69 H 0.04074 0.94308 0.61693 0.0
H70 H 0.04097 0.91578 0.62282 0.0
H71 H 0.0551 0.91739 0.62967 0.0
H72 H 0.09373 0.91075 0.64924 0.0
H73 H 0.0873 0.92247 0.64069 0.0
H74 H 0.10888 0.92945 0.66333 0.0
H75 H 0.10238 0.94108 0.65484 0.0
H76 H 0.09612 0.97867 0.63268 0.0
H77 H 0.08151 0.98316 0.60932 0.0
H78 H 0.07387 0.96953 0.61153 0.0
H79 H 0.08855 0.96489 0.63472 0.0
C80 C 0.35991 0.80606 0.87738 0.0
C81 C 0.3526 0.80159 0.87443 0.0
C82 C 0.36168 0.78962 0.86959 0.0
C83 C 0.35347 0.79344 0.87058 0.0
C84 C 0.36897 0.7942 0.87251 0.0
C85 C 0.36809 0.80232 0.87636 0.0
U86 U 0.3476 0.82691 0.88318 0.0
O87 O 0.3476 0.83426 0.89533 0.0
O88 O 0.35232 0.84034 0.88343 0.0
C89 C 0.35137 0.84102 0.89183 0.0
C90 C 0.35921 0.81461 0.88152 0.0
C91 C 0.35874 0.84477 0.89661 0.0
C92 C 0.37117 0.84347 0.90618 0.0
C93 C 0.36444 0.83964 0.90148 0.0
C94 C 0.36669 0.85757 0.90108 0.0
C95 C 0.37237 0.85249 0.90604 0.0
C96 C 0.35995 0.85374 0.89643 0.0
C97 C 0.32409 0.82989 0.87515 0.0
C98 C 0.31596 0.84331 0.87392 0.0
C99 C 0.30859 0.82959 0.87257 0.0
C100 C 0.31642 0.82526 0.87387 0.0
C101 C 0.30826 0.83868 0.87248 0.0
C102 C 0.32381 0.83895 0.87524 0.0
C103 C 0.33228 0.82507 0.87606 0.0
O104 O 0.35867 0.82125 0.87627 0.0
O105 O 0.35389 0.81514 0.88811 0.0
O106 O 0.33415 0.82224 0.88384 0.0
O107 O 0.339 0.82824 0.87195 0.0
H108 H 0.34622 0.80439 0.87515 0.0
H109 H 0.34771 0.79008 0.86848 0.0
H110 H 0.3754 0.79156 0.87172 0.0
H111 H 0.37381 0.80569 0.87855 0.0
H112 H 0.37548 0.83937 0.90986 0.0
H113 H 0.36366 0.83269 0.90169 0.0
H114 H 0.36734 0.86453 0.9009 0.0
H115 H 0.35562 0.85783 0.89274 0.0
H116 H 0.31597 0.8503 0.87383 0.0
H117 H 0.30279 0.8258 0.87166 0.0
H118 H 0.31649 0.81826 0.87381 0.0
H119 H 0.32966 0.84266 0.87623 0.0
C120 C 0.48504 0.10977 0.12646 0.0
C121 C 0.49028 0.1025 0.12504 0.0
C122 C 0.50134 0.11157 0.11837 0.0
C123 C 0.49837 0.1034 0.12106 0.0
C124 C 0.49601 0.1188 0.11975 0.0
C125 C 0.48796 0.11791 0.12377 0.0
U126 U 0.46425 0.09755 0.13266 0.0
O127 O 0.45722 0.09737 0.14501 0.0
O128 O 0.45086 0.10232 0.13336 0.0
C129 C 0.45033 0.1011 0.14174 0.0
C130 C 0.47658 0.10909 0.13083 0.0
C131 C 0.44661 0.10827 0.14679 0.0
C132 C 0.44764 0.12238 0.15365 0.0
C133 C 0.45137 0.11573 0.14874 0.0
C134 C 0.43436 0.11417 0.15464 0.0
C135 C 0.43908 0.12167 0.15669 0.0
C136 C 0.43809 0.10756 0.14975 0.0
C137 C 0.46085 0.07417 0.12454 0.0
C138 C 0.44743 0.0663 0.1222 0.0
C139 C 0.46092 0.05849 0.12345 0.0
C140 C 0.46533 0.0663 0.1246 0.0
C141 C 0.45192 0.05839 0.12217 0.0
C142 C 0.45184 0.07412 0.1234 0.0
C143 C 0.4658 0.08231 0.12533 0.0
O144 O 0.46979 0.1087 0.12575 0.0
O145 O 0.47614 0.10372 0.1374 0.0
O146 O 0.4689 0.08408 0.13303 0.0
O147 O 0.46261 0.08912 0.12137 0.0
H148 H 0.48813 0.09614 0.12702 0.0
H149 H 0.50226 0.09768 0.12001 0.0
H150 H 0.49813 0.1252 0.11786 0.0
H151 H 0.48403 0.1236 0.12482 0.0
H152 H 0.45148 0.12802 0.15516 0.0
H153 H 0.45797 0.1164 0.14651 0.0
H154 H 0.42772 0.11345 0.15671 0.0
H155 H 0.4343 0.10187 0.14828 0.0
H156 H 0.44049 0.06645 0.12133 0.0
H157 H 0.4646 0.05254 0.12336 0.0
H158 H 0.47228 0.06618 0.12543 0.0
H159 H 0.44823 0.08011 0.12337 0.0
C160 C 0.1815 0.80606 0.1632 0.0
C161 C 0.18882 0.8012 0.16548 0.0
C162 C 0.17962 0.78953 0.17084 0.0
C163 C 0.18789 0.79301 0.16926 0.0
C164 C 0.17234 0.7945 0.1686 0.0
C165 C 0.17327 0.80266 0.16482 0.0
U166 U 0.19377 0.82703 0.15768 0.0
O167 O 0.19394 0.83448 0.14557 0.0
O168 O 0.18893 0.84043 0.15741 0.0
C169 C 0.19001 0.84117 0.14902 0.0
C170 C 0.18224 0.81463 0.15908 0.0
C171 C 0.18266 0.84487 0.14414 0.0
C172 C 0.17097 0.84372 0.13365 0.0
C173 C 0.17766 0.83989 0.13843 0.0
C174 C 0.17406 0.85749 0.14035 0.0
C175 C 0.16909 0.85258 0.13454 0.0
C176 C 0.18076 0.85368 0.14507 0.0
C177 C 0.21705 0.83009 0.16629 0.0
C178 C 0.22667 0.842 0.16271 0.0
C179 C 0.23104 0.83136 0.17332 0.0
C180 C 0.2232 0.82702 0.17218 0.0
C181 C 0.23292 0.83888 0.16857 0.0
C182 C 0.21881 0.83764 0.16158 0.0
C183 C 0.20893 0.82524 0.16518 0.0
O184 O 0.1826 0.82126 0.16436 0.0
O185 O 0.18769 0.81525 0.1526 0.0
O186 O 0.20724 0.82249 0.15733 0.0
O187 O 0.20212 0.8284 0.16913 0.0
H188 H 0.19524 0.80372 0.1643 0.0
H189 H 0.19365 0.78936 0.17082 0.0
H190 H 0.16588 0.79213 0.16986 0.0
H191 H 0.16755 0.80632 0.16315 0.0
H192 H 0.16721 0.83973 0.12931 0.0
H193 H 0.17895 0.83307 0.13761 0.0
H194 H 0.17288 0.86434 0.14112 0.0
H195 H 0.18455 0.85766 0.1494 0.0
H196 H 0.22792 0.84773 0.15889 0.0
H197 H 0.2356 0.82885 0.17799 0.0
H198 H 0.22194 0.82123 0.17591 0.0
H199 H 0.21413 0.84011 0.15699 0.0
C200 C 0.4854 0.93125 0.41248 0.0
C201 C 0.48969 0.9385 0.41581 0.0
C202 C 0.50186 0.92944 0.42025 0.0
C203 C 0.49785 0.9376 0.41966 0.0
C204 C 0.49746 0.92221 0.41694 0.0
C205 C 0.48933 0.92312 0.41309 0.0
U206 U 0.46435 0.94347 0.40731 0.0
O207 O 0.457 0.94407 0.39515 0.0
O208 O 0.45101 0.93858 0.40674 0.0
C209 C 0.45025 0.9401 0.39843 0.0
C210 C 0.47685 0.93199 0.40833 0.0
C211 C 0.44657 0.93303 0.39322 0.0
C212 C 0.44757 0.91892 0.38635 0.0
C213 C 0.4513 0.92554 0.3913 0.0
C214 C 0.43437 0.92724 0.38522 0.0
C215 C 0.43904 0.9197 0.38324 0.0
C216 C 0.4381 0.93382 0.39015 0.0
C217 C 0.46092 0.96634 0.41666 0.0
C218 C 0.44933 0.97623 0.41271 0.0
C219 C 0.4588 0.97968 0.42467 0.0
C220 C 0.46333 0.97197 0.42331 0.0
C221 C 0.45175 0.98193 0.41938 0.0
C222 C 0.45386 0.96849 0.41138 0.0
C223 C 0.46594 0.95835 0.41534 0.0
O224 O 0.47018 0.93209 0.41358 0.0
O225 O 0.47621 0.93767 0.40205 0.0
O226 O 0.4688 0.95697 0.40747 0.0
O227 O 0.46285 0.95136 0.41904 0.0
H228 H 0.48676 0.94484 0.41541 0.0
H229 H 0.50107 0.94332 0.42206 0.0
H230 H 0.50024 0.91581 0.41741 0.0
H231 H 0.48609 0.91744 0.4106 0.0
H232 H 0.45139 0.91325 0.3849 0.0
H233 H 0.45787 0.92481 0.39362 0.0
H234 H 0.42775 0.92802 0.38308 0.0
H235 H 0.43433 0.93954 0.39159 0.0
H236 H 0.44389 0.97772 0.40858 0.0
H237 H 0.46093 0.98394 0.42977 0.0
H238 H 0.46877 0.97044 0.42744 0.0
H239 H 0.45188 0.96421 0.40622 0.0
C240 C 0.36006 0.23502 0.66304 0.0
C241 C 0.35308 0.23863 0.66756 0.0
C242 C 0.36175 0.25134 0.67109 0.0
C243 C 0.35392 0.24672 0.67154 0.0
C244 C 0.36869 0.24766 0.6665 0.0
C245 C 0.36784 0.2396 0.66253 0.0
U246 U 0.34778 0.21418 0.65733 0.0
O247 O 0.34759 0.2069 0.64514 0.0
O248 O 0.35251 0.20075 0.65693 0.0
C249 C 0.35133 0.20008 0.64855 0.0
C250 C 0.35939 0.2265 0.65886 0.0
C251 C 0.35852 0.19626 0.64359 0.0
C252 C 0.37188 0.19747 0.63537 0.0
C253 C 0.36528 0.20131 0.64025 0.0
C254 C 0.36508 0.18351 0.6372 0.0
C255 C 0.37183 0.18851 0.63373 0.0
C256 C 0.35851 0.18734 0.64206 0.0
C257 C 0.32439 0.21106 0.66552 0.0
C258 C 0.31644 0.19764 0.66758 0.0
C259 C 0.30874 0.21124 0.667 0.0
C260 C 0.31656 0.21561 0.66581 0.0
C261 C 0.30857 0.2022 0.66796 0.0
C262 C 0.32427 0.20202 0.66634 0.0
C263 C 0.33254 0.21595 0.66463 0.0
O264 O 0.35894 0.21982 0.66409 0.0
O265 O 0.35398 0.22598 0.65234 0.0
O266 O 0.33433 0.21888 0.65686 0.0
O267 O 0.33933 0.2128 0.66865 0.0
H268 H 0.34702 0.23518 0.66805 0.0
H269 H 0.34847 0.24931 0.67509 0.0
H270 H 0.37477 0.25107 0.6659 0.0
H271 H 0.37329 0.23693 0.65905 0.0
H272 H 0.37693 0.20153 0.63275 0.0
H273 H 0.36541 0.20822 0.64137 0.0
H274 H 0.3649 0.17658 0.63624 0.0
H275 H 0.35338 0.18333 0.64462 0.0
H276 H 0.31654 0.19067 0.66819 0.0
H277 H 0.30283 0.21497 0.66736 0.0
H278 H 0.3165 0.22259 0.66523 0.0
H279 H 0.33023 0.19836 0.66609 0.0
C280 C 0.05602 0.11007 0.91374 0.0
C281 C 0.05108 0.10271 0.9157 0.0
C282 C 0.03971 0.11178 0.92183 0.0
C283 C 0.04298 0.10357 0.91968 0.0
C284 C 0.04473 0.11911 0.91988 0.0
C285 C 0.05278 0.11825 0.91587 0.0
U286 U 0.07683 0.09786 0.90757 0.0
O287 O 0.08399 0.09788 0.8953 0.0
O288 O 0.09024 0.10262 0.9071 0.0
C289 C 0.09083 0.1016 0.89869 0.0
C290 C 0.0645 0.10941 0.90943 0.0
C291 C 0.09461 0.10888 0.8938 0.0
C292 C 0.09331 0.12162 0.88463 0.0
C293 C 0.08946 0.11501 0.88951 0.0
C294 C 0.10746 0.11612 0.8884 0.0
C295 C 0.10237 0.12221 0.88395 0.0
C296 C 0.10362 0.10954 0.89325 0.0
C297 C 0.08016 0.07437 0.91546 0.0
C298 C 0.09359 0.06647 0.91773 0.0
C299 C 0.08009 0.05869 0.91654 0.0
C300 C 0.07569 0.0665 0.91542 0.0
C301 C 0.0891 0.05856 0.91778 0.0
C302 C 0.08918 0.0743 0.91655 0.0
C303 C 0.07521 0.08252 0.9147 0.0
O304 O 0.07124 0.10892 0.91457 0.0
O305 O 0.06497 0.10411 0.90282 0.0
O306 O 0.07221 0.08439 0.90699 0.0
O307 O 0.07835 0.08927 0.91878 0.0
H308 H 0.05347 0.09633 0.91415 0.0
H309 H 0.03933 0.09779 0.92118 0.0
H310 H 0.04238 0.12553 0.92133 0.0
H311 H 0.05648 0.124 0.91439 0.0
H312 H 0.08918 0.12615 0.88125 0.0
H313 H 0.08248 0.11464 0.88986 0.0
H314 H 0.11444 0.11646 0.88818 0.0
H315 H 0.10771 0.1049 0.89653 0.0
H316 H 0.10054 0.06661 0.91856 0.0
H317 H 0.07641 0.05274 0.91664 0.0
H318 H 0.06873 0.0664 0.91462 0.0
H319 H 0.09279 0.08029 0.91657 0.0
C320 C 0.37748 0.18104 0.23468 0.0
C321 C 0.3763 0.18825 0.24005 0.0
C322 C 0.3695 0.17917 0.25102 0.0
C323 C 0.37238 0.18732 0.24816 0.0
C324 C 0.37065 0.172 0.24557 0.0
C325 C 0.37461 0.17293 0.2375 0.0
U326 U 0.3832 0.19331 0.21378 0.0
O327 O 0.39537 0.19354 0.20644 0.0
O328 O 0.38357 0.18856 0.20038 0.0
C329 C 0.39194 0.18973 0.19967 0.0
C330 C 0.38173 0.18176 0.22616 0.0
C331 C 0.39688 0.1825 0.19588 0.0
C332 C 0.40583 0.16962 0.19718 0.0
C333 C 0.40106 0.17629 0.20102 0.0
C334 C 0.40223 0.17523 0.18303 0.0
C335 C 0.40647 0.169 0.18812 0.0
C336 C 0.3975 0.1819 0.18687 0.0
C337 C 0.37446 0.2165 0.21059 0.0
C338 C 0.37738 0.22566 0.19814 0.0
C339 C 0.36766 0.2306 0.20934 0.0
C340 C 0.36897 0.22289 0.21387 0.0
C341 C 0.37183 0.23209 0.2014 0.0
C342 C 0.37867 0.21791 0.20269 0.0
C343 C 0.3756 0.20842 0.21552 0.0
O344 O 0.37653 0.18208 0.21946 0.0
O345 O 0.38823 0.1872 0.2256 0.0
O346 O 0.38346 0.20679 0.21831 0.0
O347 O 0.37171 0.20158 0.21237 0.0
H348 H 0.37842 0.19459 0.23798 0.0
H349 H 0.37151 0.19299 0.25215 0.0
H350 H 0.3686 0.16562 0.2476 0.0
H351 H 0.37546 0.16728 0.23347 0.0
H352 H 0.40894 0.16488 0.20128 0.0
H353 H 0.40064 0.17661 0.208 0.0
H354 H 0.40267 0.17504 0.17606 0.0
H355 H 0.39435 0.18664 0.18279 0.0
H356 H 0.38063 0.22655 0.19201 0.0
H357 H 0.36346 0.23545 0.21213 0.0
H358 H 0.36569 0.22193 0.21998 0.0
H359 H 0.38292 0.21303 0.20003 0.0
C360 C 0.10974 0.12821 0.48553 0.0
C361 C 0.10469 0.12103 0.48778 0.0
C362 C 0.1118 0.12019 0.50184 0.0
C363 C 0.10571 0.11705 0.49585 0.0
C364 C 0.11674 0.12748 0.49957 0.0
C365 C 0.11573 0.13143 0.4915 0.0
U366 U 0.09751 0.13347 0.46452 0.0
O367 O 0.0969 0.1457 0.45725 0.0
O368 O 0.10233 0.13412 0.45117 0.0
C369 C 0.10086 0.14246 0.45048 0.0
C370 C 0.10901 0.13237 0.47697 0.0
C371 C 0.10796 0.14768 0.44686 0.0
C372 C 0.12291 0.15256 0.44679 0.0
C373 C 0.11624 0.14769 0.45055 0.0
C374 C 0.11305 0.15751 0.43571 0.0
C375 C 0.1214 0.15752 0.4393 0.0
C376 C 0.10641 0.15265 0.43945 0.0
C377 C 0.07449 0.12434 0.46132 0.0
C378 C 0.06554 0.12667 0.4486 0.0
C379 C 0.05998 0.11838 0.46064 0.0
C380 C 0.06777 0.11958 0.46506 0.0
C381 C 0.05874 0.12193 0.45236 0.0
C382 C 0.07335 0.12788 0.45305 0.0
C383 C 0.08257 0.12554 0.46621 0.0
O384 O 0.10887 0.12716 0.47028 0.0
O385 O 0.10337 0.13869 0.47638 0.0
O386 O 0.08404 0.13338 0.46909 0.0
O387 O 0.08949 0.12182 0.463 0.0
H388 H 0.10001 0.11845 0.48326 0.0
H389 H 0.10185 0.11141 0.49733 0.0
H390 H 0.12138 0.13018 0.50405 0.0
H391 H 0.11966 0.13699 0.48991 0.0
H392 H 0.12923 0.15248 0.44979 0.0
H393 H 0.11756 0.14391 0.45629 0.0
H394 H 0.11166 0.16113 0.42988 0.0
H395 H 0.10007 0.1527 0.43649 0.0
H396 H 0.06479 0.12957 0.44227 0.0
H397 H 0.05496 0.11458 0.46368 0.0
H398 H 0.06854 0.11677 0.47142 0.0
H399 H 0.07847 0.1316 0.45006 0.0
C400 C 0.16365 0.85982 0.73497 0.0
C401 C 0.16949 0.85357 0.73797 0.0
C402 C 0.17172 0.86177 0.75125 0.0
C403 C 0.1735 0.85453 0.74604 0.0
C404 C 0.16579 0.86797 0.74821 0.0
C405 C 0.16181 0.867 0.74016 0.0
U406 U 0.15819 0.84759 0.71401 0.0
O407 O 0.14584 0.84709 0.70692 0.0
O408 O 0.15738 0.85247 0.7007 0.0
C409 C 0.149 0.85114 0.70016 0.0
C410 C 0.15942 0.85906 0.72647 0.0
C411 C 0.14376 0.85836 0.69672 0.0
C412 C 0.14102 0.87372 0.69468 0.0
C413 C 0.14584 0.86702 0.69843 0.0
C414 C 0.13184 0.8632 0.68768 0.0
C415 C 0.13398 0.87189 0.68921 0.0
C416 C 0.13669 0.85652 0.69138 0.0
C417 C 0.16731 0.82459 0.71058 0.0
C418 C 0.16383 0.81514 0.69851 0.0
C419 C 0.17431 0.81059 0.7092 0.0
C420 C 0.17314 0.81837 0.71363 0.0
C421 C 0.16963 0.80884 0.70161 0.0
C422 C 0.16267 0.82295 0.70296 0.0
C423 C 0.16614 0.83263 0.71552 0.0
O424 O 0.1646 0.8589 0.71975 0.0
O425 O 0.15313 0.8534 0.72596 0.0
O426 O 0.15833 0.8341 0.7185 0.0
O427 O 0.16982 0.83957 0.7123 0.0
H428 H 0.17099 0.84797 0.73404 0.0
H429 H 0.17808 0.84967 0.74812 0.0
H430 H 0.16416 0.87355 0.75209 0.0
H431 H 0.15728 0.87188 0.73798 0.0
H432 H 0.14278 0.88034 0.69609 0.0
H433 H 0.15125 0.86861 0.70257 0.0
H434 H 0.12653 0.86154 0.68343 0.0
H435 H 0.13498 0.84988 0.68997 0.0
H436 H 0.16007 0.81399 0.69273 0.0
H437 H 0.17893 0.80597 0.7117 0.0
H438 H 0.17681 0.81953 0.71947 0.0
H439 H 0.15813 0.82768 0.7005 0.0
C440 C 0.43114 0.91376 0.98444 0.0
C441 C 0.43837 0.91547 0.98965 0.0
C442 C 0.42907 0.9216 1.00083 0.0
C443 C 0.43734 0.91934 0.99777 0.0
C444 C 0.42188 0.91996 0.9955 0.0
C445 C 0.42291 0.91607 0.98742 0.0
U446 U 0.44358 0.90809 0.96365 0.0
O447 O 0.44417 0.89578 0.95656 0.0
O448 O 0.43886 0.90732 0.95027 0.0
C449 C 0.4403 0.89897 0.94971 0.0
C450 C 0.43197 0.90947 0.97597 0.0
C451 C 0.43321 0.89375 0.94608 0.0
C452 C 0.41873 0.88766 0.94681 0.0
C453 C 0.42538 0.89259 0.9505 0.0
C454 C 0.42769 0.88502 0.93427 0.0
C455 C 0.4198 0.88381 0.93863 0.0
C456 C 0.43431 0.88993 0.93797 0.0
C457 C 0.46663 0.91717 0.96044 0.0
C458 C 0.47657 0.91313 0.94895 0.0
C459 C 0.4803 0.92472 0.95875 0.0
C460 C 0.47246 0.92356 0.96309 0.0
C461 C 0.4825 0.91949 0.95166 0.0
C462 C 0.4687 0.91198 0.95331 0.0
C463 C 0.45853 0.91602 0.96532 0.0
O464 O 0.4322 0.9146 0.96921 0.0
O465 O 0.43756 0.90309 0.9755 0.0
O466 O 0.45702 0.90821 0.9683 0.0
O467 O 0.45163 0.91972 0.96202 0.0
H468 H 0.44479 0.91376 0.98747 0.0
H469 H 0.44302 0.92042 1.0017 0.0
H470 H 0.41544 0.92175 0.99755 0.0
H471 H 0.41726 0.91485 0.98348 0.0
H472 H 0.41278 0.88681 0.95038 0.0
H473 H 0.42442 0.89549 0.95679 0.0
H474 H 0.42871 0.88229 0.92792 0.0
H475 H 0.44029 0.89078 0.93444 0.0
H476 H 0.47807 0.90894 0.94357 0.0
H477 H 0.48461 0.92977 0.96092 0.0
H478 H 0.47096 0.92766 0.96855 0.0
H479 H 0.46428 0.90701 0.95117 0.0
C480 C 0.37744 0.85977 0.3056 0.0
C481 C 0.37625 0.85252 0.30029 0.0
C482 C 0.36945 0.86152 0.28924 0.0
C483 C 0.37233 0.8534 0.29217 0.0
C484 C 0.37061 0.86874 0.29463 0.0
C485 C 0.37457 0.86786 0.30271 0.0
U486 U 0.3831 0.8477 0.32665 0.0
O487 O 0.39526 0.84752 0.33402 0.0
O488 O 0.38346 0.85261 0.33999 0.0
C489 C 0.39184 0.85141 0.34074 0.0
C490 C 0.38168 0.85912 0.31413 0.0
C491 C 0.39678 0.85867 0.34445 0.0
C492 C 0.40575 0.87153 0.34303 0.0
C493 C 0.40098 0.86482 0.33925 0.0
C494 C 0.40211 0.86607 0.35723 0.0
C495 C 0.40637 0.87224 0.35208 0.0
C496 C 0.39739 0.85937 0.35345 0.0
C497 C 0.37423 0.8246 0.33013 0.0
C498 C 0.37837 0.81468 0.34162 0.0
C499 C 0.36624 0.81127 0.33237 0.0
C500 C 0.36752 0.81897 0.32783 0.0
C501 C 0.37164 0.809 0.33932 0.0
C502 C 0.37963 0.82243 0.33708 0.0
C503 C 0.37543 0.83262 0.32511 0.0
O504 O 0.37648 0.85891 0.32083 0.0
O505 O 0.38815 0.85364 0.31476 0.0
O506 O 0.38328 0.83418 0.32229 0.0
O507 O 0.37155 0.83952 0.32815 0.0
H508 H 0.37836 0.84619 0.30241 0.0
H509 H 0.37145 0.84769 0.28822 0.0
H510 H 0.36857 0.8751 0.29255 0.0
H511 H 0.37543 0.87354 0.3067 0.0
H512 H 0.40887 0.87621 0.33888 0.0
H513 H 0.40057 0.86442 0.33228 0.0
H514 H 0.40253 0.86634 0.3642 0.0
H515 H 0.39423 0.85469 0.35758 0.0
H516 H 0.38259 0.81319 0.34699 0.0
H517 H 0.36108 0.807 0.33033 0.0
H518 H 0.3633 0.82052 0.32247 0.0
H519 H 0.38483 0.82672 0.33898 0.0
C520 C 0.43153 0.12806 0.55527 0.0
C521 C 0.43729 0.12153 0.55273 0.0
C522 C 0.42992 0.12025 0.53884 0.0
C523 C 0.43648 0.11765 0.54459 0.0
C524 C 0.42423 0.12685 0.54142 0.0
C525 C 0.42502 0.1307 0.54955 0.0
U526 U 0.44361 0.13324 0.57632 0.0
O527 O 0.44391 0.14529 0.58383 0.0
O528 O 0.43882 0.13345 0.58971 0.0
C529 C 0.44009 0.1418 0.59056 0.0
C530 C 0.4321 0.13211 0.56387 0.0
C531 C 0.4329 0.14675 0.59438 0.0
C532 C 0.41915 0.15432 0.59329 0.0
C533 C 0.42586 0.1496 0.58943 0.0
C534 C 0.42646 0.15335 0.60708 0.0
C535 C 0.41935 0.15623 0.60218 0.0
C536 C 0.43314 0.14867 0.60322 0.0
C537 C 0.46681 0.12449 0.57932 0.0
C538 C 0.47584 0.12697 0.59193 0.0
C539 C 0.48126 0.11838 0.58005 0.0
C540 C 0.47347 0.11958 0.57565 0.0
C541 C 0.48258 0.12208 0.58824 0.0
C542 C 0.46802 0.12817 0.5875 0.0
C543 C 0.45871 0.12565 0.57444 0.0
O544 O 0.43238 0.12678 0.57048 0.0
O545 O 0.43758 0.13855 0.56456 0.0
O546 O 0.45707 0.13354 0.57174 0.0
O547 O 0.45187 0.12172 0.57758 0.0
H548 H 0.44239 0.11943 0.55704 0.0
H549 H 0.44104 0.11266 0.54278 0.0
H550 H 0.41904 0.12894 0.53721 0.0
H551 H 0.4205 0.13571 0.5514 0.0
H552 H 0.41374 0.15637 0.58934 0.0
H553 H 0.42554 0.14815 0.58259 0.0
H554 H 0.4269 0.1548 0.6139 0.0
H555 H 0.43854 0.14655 0.60715 0.0
H556 H 0.47666 0.12998 0.59819 0.0
H557 H 0.48623 0.11447 0.57707 0.0
H558 H 0.47263 0.11666 0.56935 0.0
H559 H 0.46295 0.13199 0.59043 0.0
C560 C 0.16291 0.18127 0.80533 0.0
C561 C 0.16772 0.18808 0.80177 0.0
C562 C 0.17094 0.17936 0.78903 0.0
C563 C 0.17169 0.18714 0.79369 0.0
C564 C 0.16606 0.17259 0.79265 0.0
C565 C 0.16209 0.17354 0.80071 0.0
U566 U 0.15763 0.19368 0.82617 0.0
O567 O 0.14548 0.1942 0.83355 0.0
O568 O 0.15719 0.189 0.83959 0.0
C569 C 0.14885 0.19039 0.84035 0.0
C570 C 0.15875 0.18204 0.81386 0.0
C571 C 0.14377 0.1833 0.84417 0.0
C572 C 0.13715 0.16905 0.84346 0.0
C573 C 0.1419 0.17572 0.83956 0.0
C574 C 0.1361 0.17748 0.85658 0.0
C575 C 0.13424 0.16983 0.85205 0.0
C576 C 0.14081 0.18413 0.85268 0.0
C577 C 0.1667 0.2167 0.82925 0.0
C578 C 0.16365 0.22596 0.84156 0.0
C579 C 0.1737 0.23069 0.83056 0.0
C580 C 0.17237 0.22298 0.82605 0.0
C581 C 0.16937 0.23229 0.83838 0.0
C582 C 0.16234 0.21822 0.83704 0.0
C583 C 0.16547 0.20865 0.82432 0.0
O584 O 0.16401 0.18231 0.82052 0.0
O585 O 0.1524 0.18766 0.8144 0.0
O586 O 0.1576 0.20713 0.82153 0.0
O587 O 0.16927 0.20174 0.82749 0.0
H588 H 0.16843 0.1941 0.80526 0.0
H589 H 0.17546 0.19246 0.79115 0.0
H590 H 0.16523 0.16656 0.78921 0.0
H591 H 0.15839 0.16822 0.80334 0.0
H592 H 0.1359 0.16322 0.83981 0.0
H593 H 0.14416 0.17496 0.83299 0.0
H594 H 0.13385 0.17837 0.86314 0.0
H595 H 0.14216 0.18994 0.85633 0.0
H596 H 0.16027 0.22694 0.8476 0.0
H597 H 0.17804 0.23545 0.82784 0.0
H598 H 0.17578 0.22193 0.82003 0.0
H599 H 0.15794 0.21342 0.83963 0.0
C600 C 0.10991 0.91295 0.05515 0.0
C601 C 0.10357 0.91874 0.05221 0.0
C602 C 0.11152 0.92085 0.03874 0.0
C603 C 0.10438 0.92267 0.04408 0.0
C604 C 0.11781 0.915 0.04173 0.0
C605 C 0.11701 0.9111 0.04985 0.0
U606 U 0.0978 0.90769 0.07618 0.0
O607 O 0.09728 0.89549 0.08351 0.0
O608 O 0.10268 0.90711 0.08952 0.0
C609 C 0.10124 0.89877 0.09025 0.0
C610 C 0.10927 0.90879 0.0637 0.0
C611 C 0.10836 0.89358 0.09389 0.0
C612 C 0.12323 0.88845 0.09373 0.0
C613 C 0.11654 0.8933 0.08999 0.0
C614 C 0.1136 0.88407 0.10524 0.0
C615 C 0.12184 0.88377 0.10143 0.0
C616 C 0.10694 0.88891 0.10151 0.0
C617 C 0.07477 0.9168 0.07942 0.0
C618 C 0.06589 0.91454 0.09219 0.0
C619 C 0.06037 0.92302 0.08025 0.0
C620 C 0.06809 0.92168 0.07576 0.0
C621 C 0.05916 0.91949 0.08854 0.0
C622 C 0.07363 0.91321 0.08767 0.0
C623 C 0.08283 0.91557 0.07449 0.0
O624 O 0.1091 0.91404 0.07036 0.0
O625 O 0.10366 0.90246 0.06433 0.0
O626 O 0.08431 0.90771 0.07167 0.0
O627 O 0.08975 0.91932 0.07766 0.0
H628 H 0.09802 0.92022 0.0562 0.0
H629 H 0.09937 0.92706 0.04195 0.0
H630 H 0.12344 0.91353 0.03786 0.0
H631 H 0.12197 0.90666 0.05202 0.0
H632 H 0.12947 0.8883 0.09057 0.0
H633 H 0.11775 0.89685 0.08408 0.0
H634 H 0.11231 0.88068 0.11123 0.0
H635 H 0.10068 0.88908 0.10463 0.0
H636 H 0.06521 0.91179 0.09859 0.0
H637 H 0.0553 0.92673 0.07717 0.0
H638 H 0.06884 0.92447 0.06938 0.0
H639 H 0.07874 0.90943 0.09062 0.0
C640 C 0.2353 0.37786 0.18083 0.0
C641 C 0.23882 0.37303 0.18765 0.0
C642 C 0.25159 0.36978 0.17896 0.0
C643 C 0.24691 0.36903 0.18673 0.0
C644 C 0.24801 0.37468 0.17218 0.0
C645 C 0.23996 0.37867 0.17312 0.0
U646 U 0.21433 0.38321 0.19308 0.0
O647 O 0.20701 0.3954 0.19353 0.0
O648 O 0.20096 0.38374 0.18822 0.0
C649 C 0.20024 0.39208 0.18961 0.0
C650 C 0.22678 0.38205 0.18157 0.0
C651 C 0.19649 0.39722 0.1825 0.0
C652 C 0.19781 0.40584 0.1694 0.0
C653 C 0.20161 0.40087 0.17597 0.0
C654 C 0.18373 0.40346 0.17578 0.0
C655 C 0.1888 0.40723 0.16925 0.0
C656 C 0.18753 0.39853 0.18233 0.0
C657 C 0.21079 0.37412 0.21606 0.0
C658 C 0.20121 0.3795 0.22731 0.0
C659 C 0.2069 0.36496 0.22824 0.0
C660 C 0.21134 0.36622 0.22046 0.0
C661 C 0.20183 0.3716 0.2318 0.0
C662 C 0.20563 0.38074 0.2195 0.0
C663 C 0.21585 0.37532 0.20805 0.0
O664 O 0.22009 0.37682 0.18177 0.0
O665 O 0.22621 0.38837 0.1872 0.0
O666 O 0.21883 0.38314 0.20655 0.0
O667 O 0.21279 0.37154 0.2011 0.0
H668 H 0.2353 0.37232 0.19365 0.0
H669 H 0.24942 0.36524 0.19205 0.0
H670 H 0.25148 0.3755 0.16617 0.0
H671 H 0.23735 0.38239 0.16779 0.0
H672 H 0.20192 0.40869 0.16452 0.0
H673 H 0.20855 0.39993 0.17599 0.0
H674 H 0.17678 0.40423 0.17579 0.0
H675 H 0.18346 0.39572 0.18728 0.0
H676 H 0.19728 0.38471 0.22982 0.0
H677 H 0.2076 0.35884 0.23155 0.0
H678 H 0.2153 0.36103 0.21794 0.0
H679 H 0.20505 0.38688 0.2162 0.0
C680 C 0.73562 0.16265 0.85936 0.0
C681 C 0.73753 0.17023 0.85475 0.0
C682 C 0.75206 0.17051 0.86091 0.0
C683 C 0.74566 0.17414 0.85554 0.0
C684 C 0.75013 0.16285 0.86541 0.0
C685 C 0.74199 0.15898 0.86465 0.0
U686 U 0.71444 0.15717 0.84756 0.0
O687 O 0.70701 0.14506 0.84748 0.0
O688 O 0.70108 0.15691 0.85248 0.0
C689 C 0.70027 0.14854 0.85129 0.0
C690 C 0.72701 0.15855 0.8589 0.0
C691 C 0.69646 0.14361 0.8585 0.0
C692 C 0.69765 0.13551 0.87195 0.0
C693 C 0.7015 0.14038 0.86533 0.0
C694 C 0.68372 0.13714 0.86503 0.0
C695 C 0.68871 0.13378 0.87185 0.0
C696 C 0.68756 0.14198 0.85844 0.0
C697 C 0.71119 0.16541 0.82419 0.0
C698 C 0.69766 0.16665 0.81624 0.0
C699 C 0.71129 0.16769 0.80864 0.0
C700 C 0.71572 0.16651 0.81643 0.0
C701 C 0.7022 0.16781 0.80844 0.0
C702 C 0.70212 0.16544 0.82404 0.0
C703 C 0.71612 0.16446 0.8323 0.0
O704 O 0.72034 0.16382 0.85862 0.0
O705 O 0.72629 0.15201 0.85356 0.0
O706 O 0.71895 0.15665 0.83407 0.0
O707 O 0.71305 0.16851 0.8391 0.0
H708 H 0.73274 0.17315 0.85057 0.0
H709 H 0.74697 0.17997 0.8519 0.0
H710 H 0.75485 0.15993 0.86967 0.0
H711 H 0.74065 0.15314 0.86827 0.0
H712 H 0.70171 0.13298 0.87706 0.0
H713 H 0.70839 0.14156 0.8655 0.0
H714 H 0.67681 0.1361 0.86481 0.0
H715 H 0.68356 0.14445 0.85325 0.0
H716 H 0.69067 0.16661 0.81631 0.0
H717 H 0.715 0.16867 0.8028 0.0
H718 H 0.72272 0.16655 0.8164 0.0
H719 H 0.69848 0.16455 0.82995 0.0
C720 C 0.12734 0.48487 0.10958 0.0
C721 C 0.12486 0.48962 0.10226 0.0
C722 C 0.11927 0.50117 0.11142 0.0
C723 C 0.12088 0.49771 0.10317 0.0
C724 C 0.12175 0.49635 0.11872 0.0
C725 C 0.12575 0.48829 0.1178 0.0
U726 U 0.13328 0.46416 0.09718 0.0
O727 O 0.14554 0.45695 0.09698 0.0
O728 O 0.13378 0.4507 0.1018 0.0
C729 C 0.14217 0.45009 0.10067 0.0
C730 C 0.13162 0.47638 0.10884 0.0
C731 C 0.14711 0.4463 0.10789 0.0
C732 C 0.1543 0.4474 0.12183 0.0
C733 C 0.14958 0.45122 0.11509 0.0
C734 C 0.15409 0.43374 0.11425 0.0
C735 C 0.15659 0.43859 0.1215 0.0
C736 C 0.1494 0.43756 0.10753 0.0
C737 C 0.12497 0.46117 0.07382 0.0
C738 C 0.12405 0.44772 0.06573 0.0
C739 C 0.12204 0.46139 0.05839 0.0
C740 C 0.12335 0.46576 0.06618 0.0
C741 C 0.12228 0.4523 0.05806 0.0
C742 C 0.12538 0.45211 0.07354 0.0
C743 C 0.12591 0.466 0.08198 0.0
O744 O 0.12646 0.46967 0.10838 0.0
O745 O 0.13816 0.47594 0.10344 0.0
O746 O 0.13368 0.46891 0.08375 0.0
O747 O 0.12194 0.46276 0.08875 0.0
H748 H 0.12599 0.48707 0.09585 0.0
H749 H 0.11897 0.50121 0.09742 0.0
H750 H 0.12072 0.49885 0.12516 0.0
H751 H 0.12763 0.48474 0.12353 0.0
H752 H 0.15605 0.45131 0.12735 0.0
H753 H 0.14784 0.45799 0.1155 0.0
H754 H 0.15584 0.42699 0.11371 0.0
H755 H 0.14758 0.43366 0.10201 0.0
H756 H 0.12422 0.44073 0.06575 0.0
H757 H 0.12087 0.46515 0.05261 0.0
H758 H 0.12304 0.47275 0.06625 0.0
H759 H 0.12663 0.44844 0.07937 0.0
C760 C 0.80573 0.87842 0.35924 0.0
C761 C 0.80318 0.8719 0.35349 0.0
C762 C 0.78929 0.87059 0.36086 0.0
C763 C 0.79505 0.868 0.35431 0.0
C764 C 0.79188 0.87718 0.36655 0.0
C765 C 0.80001 0.88104 0.36574 0.0
U766 U 0.82677 0.88363 0.34714 0.0
O767 O 0.83416 0.89577 0.34665 0.0
O768 O 0.84015 0.88407 0.35196 0.0
C769 C 0.84092 0.89241 0.35054 0.0
C770 C 0.81431 0.88252 0.35863 0.0
C771 C 0.84466 0.89752 0.35765 0.0
C772 C 0.84384 0.90404 0.37192 0.0
C773 C 0.84006 0.89915 0.36529 0.0
C774 C 0.8568 0.90568 0.36334 0.0
C775 C 0.85226 0.90738 0.37102 0.0
C776 C 0.85303 0.90082 0.35673 0.0
C777 C 0.82981 0.87473 0.32403 0.0
C778 C 0.84267 0.87667 0.31519 0.0
C779 C 0.83027 0.86913 0.30938 0.0
C780 C 0.82588 0.87034 0.31717 0.0
C781 C 0.83872 0.87229 0.30826 0.0
C782 C 0.83824 0.87789 0.32301 0.0
C783 C 0.82495 0.8759 0.33213 0.0
O784 O 0.82095 0.87724 0.35842 0.0
O785 O 0.81496 0.88892 0.35309 0.0
O786 O 0.82216 0.88376 0.33369 0.0
O787 O 0.82815 0.87207 0.339 0.0
H788 H 0.80749 0.86981 0.3484 0.0
H789 H 0.79323 0.86301 0.34976 0.0
H790 H 0.78767 0.87926 0.37173 0.0
H791 H 0.80186 0.88606 0.37025 0.0
H792 H 0.84012 0.90527 0.37772 0.0
H793 H 0.83358 0.89666 0.36611 0.0
H794 H 0.86334 0.90801 0.36246 0.0
H795 H 0.85669 0.89959 0.3509 0.0
H796 H 0.84913 0.87926 0.31454 0.0
H797 H 0.82707 0.86561 0.30426 0.0
H798 H 0.81938 0.86782 0.31785 0.0
H799 H 0.84138 0.88132 0.32823 0.0
C800 C 0.91356 0.05567 0.10942 0.0
C801 C 0.91406 0.04998 0.10237 0.0
C802 C 0.9216 0.03933 0.11125 0.0
C803 C 0.91801 0.04188 0.10329 0.0
C804 C 0.92116 0.0451 0.11825 0.0
C805 C 0.91717 0.05316 0.11734 0.0
U806 U 0.9077 0.07675 0.09748 0.0
O807 O 0.89528 0.08375 0.097 0.0
O808 O 0.90676 0.09001 0.10247 0.0
C809 C 0.89839 0.09051 0.10107 0.0
C810 C 0.90915 0.06413 0.10877 0.0
C811 C 0.89309 0.09397 0.10821 0.0
C812 C 0.8902 0.09609 0.12352 0.0
C813 C 0.89503 0.09224 0.1169 0.0
C814 C 0.88129 0.10326 0.11285 0.0
C815 C 0.88332 0.10175 0.12158 0.0
C816 C 0.88612 0.09943 0.10626 0.0
C817 C 0.91698 0.08062 0.0746 0.0
C818 C 0.91251 0.09178 0.06443 0.0
C819 C 0.92529 0.08325 0.06153 0.0
C820 C 0.92401 0.0787 0.06924 0.0
C821 C 0.91955 0.08983 0.05901 0.0
C822 C 0.91124 0.08723 0.07218 0.0
C823 C 0.91575 0.07554 0.08257 0.0
O824 O 0.91419 0.07096 0.10876 0.0
O825 O 0.90278 0.0647 0.10319 0.0
O826 O 0.90796 0.07247 0.08394 0.0
O827 O 0.91937 0.07867 0.08957 0.0
H828 H 0.91137 0.05178 0.09616 0.0
H829 H 0.91833 0.03764 0.09774 0.0
H830 H 0.92377 0.04332 0.12449 0.0
H831 H 0.91683 0.05743 0.12287 0.0
H832 H 0.892 0.09483 0.13016 0.0
H833 H 0.90037 0.08803 0.11858 0.0
H834 H 0.87595 0.10744 0.1111 0.0
H835 H 0.88449 0.10083 0.0996 0.0
H836 H 0.90801 0.09687 0.06273 0.0
H837 H 0.93071 0.08149 0.05747 0.0
H838 H 0.92849 0.07361 0.07098 0.0
H839 H 0.90579 0.08884 0.07625 0.0
C840 C 0.30548 0.66321 0.68091 0.0
C841 C 0.30333 0.67044 0.68594 0.0
C842 C 0.2891 0.67116 0.67917 0.0
C843 C 0.29523 0.67439 0.68505 0.0
C844 C 0.29127 0.66385 0.67423 0.0
C845 C 0.29937 0.65993 0.67509 0.0
U846 U 0.32651 0.6578 0.69301 0.0
O847 O 0.33383 0.6456 0.69345 0.0
O848 O 0.33989 0.65728 0.6882 0.0
C849 C 0.34061 0.64894 0.68959 0.0
C850 C 0.31405 0.65905 0.68153 0.0
C851 C 0.34434 0.64382 0.68248 0.0
C852 C 0.34362 0.6375 0.66811 0.0
C853 C 0.33984 0.64239 0.67475 0.0
C854 C 0.35639 0.63544 0.6769 0.0
C855 C 0.35195 0.63395 0.66911 0.0
C856 C 0.35262 0.64031 0.6835 0.0
C857 C 0.32964 0.66655 0.71617 0.0
C858 C 0.34276 0.66515 0.72472 0.0
C859 C 0.32993 0.67144 0.73107 0.0
C860 C 0.3255 0.67028 0.72329 0.0
C861 C 0.33861 0.66889 0.73191 0.0
C862 C 0.3383 0.66398 0.71692 0.0
C863 C 0.32476 0.66547 0.70806 0.0
O864 O 0.32074 0.66427 0.68175 0.0
O865 O 0.31466 0.65262 0.68704 0.0
O866 O 0.3219 0.65764 0.70646 0.0
O867 O 0.32797 0.66931 0.70121 0.0
H868 H 0.30793 0.67304 0.69052 0.0
H869 H 0.29374 0.67994 0.68903 0.0
H870 H 0.28675 0.66124 0.66957 0.0
H871 H 0.30091 0.65437 0.67114 0.0
H872 H 0.33998 0.63643 0.66224 0.0
H873 H 0.33343 0.64504 0.67385 0.0
H874 H 0.36286 0.63295 0.67786 0.0
H875 H 0.35621 0.64137 0.68941 0.0
H876 H 0.34941 0.66303 0.72516 0.0
H877 H 0.32656 0.67445 0.73641 0.0
H878 H 0.31882 0.67233 0.72282 0.0
H879 H 0.3416 0.66106 0.71149 0.0
C880 C 0.1282 0.55544 0.43127 0.0
C881 C 0.12281 0.55223 0.43781 0.0
C882 C 0.12018 0.53913 0.42942 0.0
C883 C 0.11883 0.54414 0.4369 0.0
C884 C 0.12565 0.54239 0.42294 0.0
C885 C 0.12961 0.55046 0.42386 0.0
U886 U 0.13336 0.57648 0.44344 0.0
O887 O 0.14557 0.58376 0.44407 0.0
O888 O 0.13401 0.5898 0.43852 0.0
C889 C 0.14233 0.59051 0.44005 0.0
C890 C 0.13237 0.56397 0.432 0.0
C891 C 0.14759 0.59411 0.43297 0.0
C892 C 0.15284 0.59391 0.41815 0.0
C893 C 0.14795 0.59018 0.42482 0.0
C894 C 0.1571 0.60547 0.42776 0.0
C895 C 0.15747 0.60163 0.41954 0.0
C896 C 0.15222 0.60175 0.43439 0.0
C897 C 0.12398 0.58 0.46627 0.0
C898 C 0.12813 0.59144 0.47621 0.0
C899 C 0.11593 0.58225 0.47956 0.0
C900 C 0.11723 0.57773 0.47186 0.0
C901 C 0.12137 0.58916 0.48186 0.0
C902 C 0.12941 0.58692 0.46847 0.0
C903 C 0.12526 0.57495 0.4583 0.0
O904 O 0.12714 0.57065 0.43207 0.0
O905 O 0.13862 0.56457 0.43772 0.0
O906 O 0.13312 0.57203 0.45694 0.0
O907 O 0.1216 0.57806 0.4513 0.0
H908 H 0.12164 0.55599 0.44358 0.0
H909 H 0.1146 0.54187 0.44198 0.0
H910 H 0.12695 0.53867 0.41717 0.0
H911 H 0.13378 0.55282 0.41876 0.0
H912 H 0.15304 0.59072 0.41194 0.0
H913 H 0.14443 0.58426 0.4236 0.0
H914 H 0.16045 0.61147 0.42904 0.0
H915 H 0.152 0.6049 0.44063 0.0
H916 H 0.13238 0.59678 0.47773 0.0
H917 H 0.11074 0.58023 0.4838 0.0
H918 H 0.11298 0.5724 0.47029 0.0
H919 H 0.13464 0.58879 0.46422 0.0
C920 C 0.41334 0.48521 0.93069 0.0
C921 C 0.4152 0.49029 0.93797 0.0
C922 C 0.42145 0.50149 0.92877 0.0
C923 C 0.41918 0.49837 0.93701 0.0
C924 C 0.41961 0.49634 0.92152 0.0
C925 C 0.41559 0.4883 0.92248 0.0
U926 U 0.40769 0.46434 0.943 0.0
O927 O 0.39541 0.45719 0.94357 0.0
O928 O 0.40695 0.45097 0.93822 0.0
C929 C 0.39861 0.45036 0.93969 0.0
C930 C 0.40901 0.47674 0.93146 0.0
C931 C 0.39338 0.4467 0.93263 0.0
C932 C 0.38712 0.44742 0.91822 0.0
C933 C 0.39205 0.45116 0.92484 0.0
C934 C 0.38481 0.43476 0.92712 0.0
C935 C 0.38343 0.43916 0.91928 0.0
C936 C 0.38972 0.4385 0.93371 0.0
C937 C 0.41693 0.46091 0.96594 0.0
C938 C 0.41296 0.44929 0.97577 0.0
C939 C 0.42478 0.45886 0.97938 0.0
C940 C 0.42348 0.46338 0.97166 0.0
C941 C 0.41954 0.45176 0.98156 0.0
C942 C 0.41168 0.45381 0.96802 0.0
C943 C 0.4157 0.46589 0.9579 0.0
O944 O 0.41413 0.46997 0.93161 0.0
O945 O 0.40266 0.47624 0.93707 0.0
O946 O 0.40788 0.46886 0.95646 0.0
O947 O 0.41938 0.4627 0.95096 0.0
H948 H 0.41356 0.48802 0.94438 0.0
H949 H 0.42059 0.50213 0.94273 0.0
H950 H 0.42117 0.49857 0.91508 0.0
H951 H 0.4142 0.48449 0.91678 0.0
H952 H 0.38614 0.45103 0.91231 0.0
H953 H 0.39483 0.45751 0.92389 0.0
H954 H 0.38222 0.42834 0.92812 0.0
H955 H 0.39071 0.43493 0.93965 0.0
H956 H 0.40886 0.4438 0.9772 0.0
H957 H 0.42982 0.46103 0.98372 0.0
H958 H 0.42759 0.46885 0.97018 0.0
H959 H 0.4066 0.45178 0.96365 0.0
C960 C 0.86041 0.80628 0.66435 0.0
C961 C 0.85525 0.8039 0.67142 0.0
C962 C 0.86269 0.78999 0.67238 0.0
C963 C 0.85639 0.79583 0.6754 0.0
C964 C 0.86773 0.7924 0.66521 0.0
C965 C 0.8666 0.80046 0.66126 0.0
U966 U 0.84798 0.82722 0.65905 0.0
O967 O 0.85271 0.84058 0.65824 0.0
O968 O 0.84728 0.83436 0.64673 0.0
C969 C 0.85127 0.84115 0.64989 0.0
C970 C 0.85954 0.81481 0.66017 0.0
C971 C 0.85833 0.84478 0.64457 0.0
C972 C 0.87358 0.84755 0.64184 0.0
C973 C 0.86707 0.84355 0.64671 0.0
C974 C 0.86273 0.85386 0.63251 0.0
C975 C 0.87149 0.85285 0.63473 0.0
C976 C 0.85624 0.84988 0.63738 0.0
C977 C 0.82503 0.83054 0.66825 0.0
C978 C 0.81573 0.84281 0.66501 0.0
C979 C 0.81089 0.83175 0.67496 0.0
C980 C 0.81867 0.82731 0.67382 0.0
C981 C 0.80928 0.83954 0.67054 0.0
C982 C 0.82354 0.83834 0.66386 0.0
C983 C 0.83309 0.82559 0.66708 0.0
O984 O 0.85385 0.81532 0.6539 0.0
O985 O 0.85939 0.82153 0.66534 0.0
O986 O 0.84003 0.82883 0.67073 0.0
O987 O 0.83453 0.82262 0.65927 0.0
H988 H 0.85041 0.8083 0.6739 0.0
H989 H 0.85244 0.79424 0.68095 0.0
H990 H 0.87253 0.78804 0.6626 0.0
H991 H 0.87061 0.80216 0.65578 0.0
H992 H 0.88024 0.84668 0.6438 0.0
H993 H 0.86886 0.83962 0.65222 0.0
H994 H 0.86087 0.85774 0.627 0.0
H995 H 0.84955 0.85089 0.6356 0.0
H996 H 0.81469 0.84874 0.66144 0.0
H997 H 0.80615 0.82911 0.67938 0.0
H998 H 0.81972 0.82132 0.67729 0.0
H999 H 0.82838 0.84093 0.65952 0.0
C1000 C 0.98496 0.11006 0.41422 0.0
C1001 C 0.98704 0.10548 0.42177 0.0
C1002 C 1.00131 0.11224 0.42215 0.0
C1003 C 0.99513 0.10657 0.4257 0.0
C1004 C 0.99921 0.11668 0.41449 0.0
C1005 C 0.99112 0.11561 0.41059 0.0
U1006 U 0.96365 0.09813 0.40918 0.0
O1007 O 0.95042 0.10324 0.40844 0.0
O1008 O 0.95641 0.09758 0.39692 0.0
C1009 C 0.94977 0.1018 0.40009 0.0
C1010 C 0.97638 0.10935 0.41011 0.0
C1011 C 0.94634 0.10896 0.39476 0.0
C1012 C 0.94362 0.12426 0.39222 0.0
C1013 C 0.94744 0.11766 0.39712 0.0
C1014 C 0.93777 0.11361 0.38241 0.0
C1015 C 0.93867 0.12231 0.38484 0.0
C1016 C 0.94154 0.10702 0.38733 0.0
C1017 C 0.9597 0.07537 0.41865 0.0
C1018 C 0.94805 0.06565 0.41456 0.0
C1019 C 0.95731 0.06206 0.42665 0.0
C1020 C 0.96194 0.0697 0.42535 0.0
C1021 C 0.95031 0.0599 0.42126 0.0
C1022 C 0.95269 0.07333 0.41328 0.0
C1023 C 0.96489 0.08326 0.41735 0.0
O1024 O 0.9757 0.10361 0.4039 0.0
O1025 O 0.96968 0.10942 0.41532 0.0
O1026 O 0.96189 0.09033 0.42097 0.0
O1027 O 0.96785 0.08455 0.4095 0.0
H1028 H 0.98238 0.10115 0.42468 0.0
H1029 H 0.99648 0.1031 0.43163 0.0
H1030 H 1.00383 0.12098 0.41147 0.0
H1031 H 0.98966 0.11917 0.40474 0.0
H1032 H 0.94454 0.1309 0.39421 0.0
H1033 H 0.95115 0.11935 0.4028 0.0
H1034 H 0.93393 0.11186 0.37683 0.0
H1035 H 0.94058 0.10036 0.38541 0.0
H1036 H 0.94264 0.06425 0.41035 0.0
H1037 H 0.95931 0.05774 0.43178 0.0
H1038 H 0.96735 0.07115 0.42954 0.0
H1039 H 0.95084 0.07765 0.40809 0.0
C1040 C 0.68101 0.23472 0.1648 0.0
C1041 C 0.6846 0.23628 0.17298 0.0
C1042 C 0.67917 0.25109 0.17272 0.0
C1043 C 0.68366 0.24438 0.17692 0.0
C1044 C 0.6757 0.24952 0.16447 0.0
C1045 C 0.6766 0.24142 0.16057 0.0
U1046 U 0.69267 0.21333 0.15953 0.0
O1047 O 0.68749 0.20014 0.15872 0.0
O1048 O 0.69316 0.20619 0.14722 0.0
C1049 C 0.68892 0.19954 0.15037 0.0
C1050 C 0.68157 0.22616 0.16062 0.0
C1051 C 0.68174 0.19617 0.14503 0.0
C1052 C 0.66646 0.1933 0.14259 0.0
C1053 C 0.67306 0.1971 0.1475 0.0
C1054 C 0.6771 0.18781 0.13256 0.0
C1055 C 0.66841 0.18854 0.1351 0.0
C1056 C 0.68368 0.19156 0.13749 0.0
C1057 C 0.7155 0.20932 0.16891 0.0
C1058 C 0.72577 0.19833 0.16431 0.0
C1059 C 0.72862 0.20675 0.17717 0.0
C1060 C 0.72084 0.2112 0.17597 0.0
C1061 C 0.73124 0.20031 0.17131 0.0
C1062 C 0.71797 0.2028 0.16312 0.0
C1063 C 0.70756 0.21446 0.16764 0.0
O1064 O 0.68723 0.22545 0.15434 0.0
O1065 O 0.68142 0.21939 0.16576 0.0
O1066 O 0.70051 0.21143 0.17127 0.0
O1067 O 0.70625 0.21749 0.15982 0.0
H1068 H 0.68808 0.23123 0.17636 0.0
H1069 H 0.6865 0.2454 0.18322 0.0
H1070 H 0.67213 0.25451 0.16109 0.0
H1071 H 0.67377 0.24036 0.15427 0.0
H1072 H 0.65983 0.19409 0.14467 0.0
H1073 H 0.67137 0.20067 0.15327 0.0
H1074 H 0.67885 0.18412 0.12689 0.0
H1075 H 0.69034 0.19072 0.13547 0.0
H1076 H 0.72761 0.19347 0.15964 0.0
H1077 H 0.73257 0.20834 0.18271 0.0
H1078 H 0.71904 0.21618 0.18053 0.0
H1079 H 0.71393 0.20125 0.15763 0.0
C1080 C 0.5568 0.93027 0.9142 0.0
C1081 C 0.55388 0.93627 0.92033 0.0
C1082 C 0.54044 0.92816 0.92209 0.0
C1083 C 0.54577 0.93523 0.92424 0.0
C1084 C 0.5434 0.92224 0.91587 0.0
C1085 C 0.55149 0.92329 0.91198 0.0
U1086 U 0.5778 0.94264 0.90924 0.0
O1087 O 0.59117 0.93782 0.90864 0.0
O1088 O 0.58516 0.94341 0.89709 0.0
C1089 C 0.59193 0.93944 0.90034 0.0
C1090 C 0.56536 0.9311 0.9101 0.0
C1091 C 0.59566 0.93245 0.89506 0.0
C1092 C 0.59486 0.91832 0.88823 0.0
C1093 C 0.59107 0.92485 0.89324 0.0
C1094 C 0.60783 0.92694 0.88682 0.0
C1095 C 0.6033 0.91929 0.88494 0.0
C1096 C 0.60405 0.93344 0.89181 0.0
C1097 C 0.58115 0.96548 0.91865 0.0
C1098 C 0.59233 0.97565 0.91431 0.0
C1099 C 0.58338 0.97874 0.92675 0.0
C1100 C 0.57897 0.97095 0.92551 0.0
C1101 C 0.59007 0.98124 0.92113 0.0
C1102 C 0.58791 0.96784 0.91309 0.0
C1103 C 0.57615 0.95747 0.91736 0.0
O1104 O 0.56596 0.93685 0.90388 0.0
O1105 O 0.57201 0.9312 0.91538 0.0
O1106 O 0.57929 0.95048 0.92103 0.0
O1107 O 0.57325 0.9561 0.90951 0.0
H1108 H 0.55789 0.94171 0.92213 0.0
H1109 H 0.54375 0.93986 0.92906 0.0
H1110 H 0.53944 0.91682 0.91395 0.0
H1111 H 0.55362 0.91862 0.90723 0.0
H1112 H 0.59116 0.91255 0.88686 0.0
H1113 H 0.58458 0.92398 0.8957 0.0
H1114 H 0.61438 0.92787 0.88455 0.0
H1115 H 0.60771 0.93924 0.89318 0.0
H1116 H 0.5974 0.97739 0.90982 0.0
H1117 H 0.58156 0.98279 0.93215 0.0
H1118 H 0.5738 0.96923 0.9299 0.0
H1119 H 0.58971 0.96369 0.90776 0.0
C1120 C 0.86033 0.23456 0.87597 0.0
C1121 C 0.85571 0.2367 0.86847 0.0
C1122 C 0.86265 0.25087 0.86801 0.0
C1123 C 0.85686 0.24478 0.86452 0.0
C1124 C 0.86714 0.24871 0.87562 0.0
C1125 C 0.866 0.24065 0.87954 0.0
U1126 U 0.84818 0.2134 0.88112 0.0
O1127 O 0.85316 0.20011 0.88189 0.0
O1128 O 0.84758 0.20619 0.8934 0.0
C1129 C 0.85171 0.19949 0.89024 0.0
C1130 C 0.85954 0.22599 0.88011 0.0
C1131 C 0.85885 0.19601 0.89556 0.0
C1132 C 0.87417 0.19369 0.89835 0.0
C1133 C 0.86756 0.19751 0.89346 0.0
C1134 C 0.86348 0.18704 0.90762 0.0
C1135 C 0.87221 0.18836 0.90546 0.0
C1136 C 0.85689 0.19081 0.90271 0.0
C1137 C 0.82535 0.20968 0.87179 0.0
C1138 C 0.81602 0.19754 0.87539 0.0
C1139 C 0.81159 0.20784 0.86446 0.0
C1140 C 0.81925 0.21245 0.86571 0.0
C1141 C 0.80985 0.20032 0.86929 0.0
C1142 C 0.82372 0.20217 0.87661 0.0
C1143 C 0.8333 0.21479 0.87302 0.0
O1144 O 0.85381 0.22538 0.88634 0.0
O1145 O 0.85952 0.21929 0.87491 0.0
O1146 O 0.84032 0.2117 0.86938 0.0
O1147 O 0.83465 0.21775 0.88085 0.0
H1148 H 0.85128 0.2321 0.86561 0.0
H1149 H 0.85335 0.24617 0.85863 0.0
H1150 H 0.87152 0.25328 0.87859 0.0
H1151 H 0.86959 0.23914 0.88535 0.0
H1152 H 0.88082 0.19493 0.89657 0.0
H1153 H 0.86925 0.20154 0.888 0.0
H1154 H 0.86172 0.1829 0.91298 0.0
H1155 H 0.85022 0.18955 0.90442 0.0
H1156 H 0.81494 0.19175 0.87915 0.0
H1157 H 0.80695 0.21025 0.85981 0.0
H1158 H 0.82039 0.21824 0.86194 0.0
H1159 H 0.82837 0.19992 0.88133 0.0
C1160 C 0.55634 0.11019 0.62647 0.0
C1161 C 0.55421 0.10547 0.61904 0.0
C1162 C 0.54003 0.1124 0.61848 0.0
C1163 C 0.54613 0.10657 0.61507 0.0
C1164 C 0.54217 0.11699 0.62603 0.0
C1165 C 0.55024 0.1159 0.62996 0.0
U1166 U 0.57756 0.09815 0.63166 0.0
O1167 O 0.59081 0.10319 0.63247 0.0
O1168 O 0.58473 0.09757 0.64397 0.0
C1169 C 0.59141 0.10175 0.64082 0.0
C1170 C 0.56489 0.10944 0.63062 0.0
C1171 C 0.59482 0.10892 0.64614 0.0
C1172 C 0.59729 0.12423 0.64875 0.0
C1173 C 0.59351 0.11761 0.64387 0.0
C1174 C 0.60353 0.11358 0.65835 0.0
C1175 C 0.60241 0.12229 0.65602 0.0
C1176 C 0.59979 0.10697 0.65345 0.0
C1177 C 0.58142 0.07532 0.62228 0.0
C1178 C 0.59192 0.06467 0.62718 0.0
C1179 C 0.58438 0.06254 0.61366 0.0
C1180 C 0.57997 0.07033 0.61489 0.0
C1181 C 0.59036 0.05954 0.61983 0.0
C1182 C 0.5875 0.07249 0.6284 0.0
C1183 C 0.57632 0.08328 0.62355 0.0
O1184 O 0.56552 0.1037 0.63686 0.0
O1185 O 0.57162 0.10947 0.62544 0.0
O1186 O 0.57937 0.09032 0.61991 0.0
O1187 O 0.57328 0.08461 0.63136 0.0
H1188 H 0.55882 0.10101 0.61624 0.0
H1189 H 0.54475 0.10299 0.60924 0.0
H1190 H 0.5376 0.12141 0.62893 0.0
H1191 H 0.55174 0.11957 0.63572 0.0
H1192 H 0.59621 0.13087 0.64683 0.0
H1193 H 0.58965 0.11929 0.63828 0.0
H1194 H 0.60751 0.11183 0.66385 0.0
H1195 H 0.60091 0.10031 0.65531 0.0
H1196 H 0.59642 0.06254 0.6321 0.0
H1197 H 0.58312 0.05887 0.60785 0.0
H1198 H 0.57533 0.07242 0.61007 0.0
H1199 H 0.58874 0.07625 0.63416 0.0
C1200 C 0.68124 0.80647 0.37605 0.0
C1201 C 0.68449 0.80496 0.36771 0.0
C1202 C 0.67917 0.79011 0.36815 0.0
C1203 C 0.68344 0.79687 0.36379 0.0
C1204 C 0.67606 0.79163 0.37655 0.0
C1205 C 0.67707 0.79972 0.38043 0.0
U1206 U 0.6931 0.82777 0.38113 0.0
O1207 O 0.68801 0.84101 0.3819 0.0
O1208 O 0.6938 0.835 0.39336 0.0
C1209 C 0.68968 0.84173 0.39019 0.0
C1210 C 0.68189 0.81504 0.38022 0.0
C1211 C 0.68271 0.84533 0.39558 0.0
C1212 C 0.66789 0.84538 0.40087 0.0
C1213 C 0.67445 0.84159 0.39588 0.0
C1214 C 0.67781 0.8566 0.40535 0.0
C1215 C 0.66949 0.85295 0.40565 0.0
C1216 C 0.68433 0.85282 0.40037 0.0
C1217 C 0.7158 0.83174 0.37163 0.0
C1218 C 0.72596 0.84279 0.3763 0.0
C1219 C 0.72875 0.83468 0.36324 0.0
C1220 C 0.72108 0.83007 0.36447 0.0
C1221 C 0.73133 0.84107 0.36916 0.0
C1222 C 0.71825 0.83818 0.37751 0.0
C1223 C 0.70791 0.82654 0.3729 0.0
O1224 O 0.68762 0.81572 0.38644 0.0
O1225 O 0.68173 0.8218 0.37506 0.0
O1226 O 0.70083 0.82955 0.3693 0.0
O1227 O 0.70664 0.8235 0.38072 0.0
H1228 H 0.68779 0.81004 0.36421 0.0
H1229 H 0.686 0.79589 0.35737 0.0
H1230 H 0.67267 0.78661 0.38005 0.0
H1231 H 0.6745 0.80075 0.38686 0.0
H1232 H 0.66159 0.84235 0.40101 0.0
H1233 H 0.67307 0.83579 0.39223 0.0
H1234 H 0.67926 0.86249 0.40881 0.0
H1235 H 0.69065 0.85582 0.40019 0.0
H1236 H 0.7277 0.84773 0.38093 0.0
H1237 H 0.73276 0.83311 0.35773 0.0
H1238 H 0.71931 0.82511 0.35987 0.0
H1239 H 0.71425 0.8396 0.38307 0.0
C1240 C 0.98503 0.93085 0.12604 0.0
C1241 C 0.9865 0.93408 0.11769 0.0
C1242 C 1.00141 0.92894 0.11813 0.0
C1243 C 0.9946 0.93311 0.11376 0.0
C1244 C 0.99993 0.92584 0.12654 0.0
C1245 C 0.99183 0.92677 0.13044 0.0
U1246 U 0.96379 0.94271 0.13144 0.0
O1247 O 0.95052 0.93771 0.1322 0.0
O1248 O 0.95663 0.94319 0.14374 0.0
C1249 C 0.9499 0.93913 0.14054 0.0
C1250 C 0.97646 0.93144 0.13024 0.0
C1251 C 0.94638 0.932 0.14582 0.0
C1252 C 0.94486 0.91671 0.14921 0.0
C1253 C 0.94866 0.92335 0.14434 0.0
C1254 C 0.93663 0.9273 0.15722 0.0
C1255 C 0.93876 0.9186 0.15569 0.0
C1256 C 0.94039 0.93392 0.15233 0.0
C1257 C 0.96021 0.96573 0.12239 0.0
C1258 C 0.94682 0.97396 0.12314 0.0
C1259 C 0.95985 0.98074 0.11775 0.0
C1260 C 0.96439 0.97304 0.11906 0.0
C1261 C 0.95099 0.98131 0.11973 0.0
C1262 C 0.9514 0.96623 0.12446 0.0
C1263 C 0.96521 0.9577 0.12355 0.0
O1264 O 0.9758 0.93702 0.1366 0.0
O1265 O 0.96969 0.93145 0.1251 0.0
O1266 O 0.96207 0.95075 0.11984 0.0
O1267 O 0.96818 0.95624 0.13136 0.0
H1268 H 0.98138 0.93731 0.11417 0.0
H1269 H 0.99554 0.93566 0.10732 0.0
H1270 H 1.005 0.92253 0.13006 0.0
H1271 H 0.99084 0.92422 0.13688 0.0
H1272 H 0.94673 0.91009 0.14792 0.0
H1273 H 0.9533 0.92172 0.13937 0.0
H1274 H 0.93188 0.92901 0.16206 0.0
H1275 H 0.93852 0.94055 0.15357 0.0
H1276 H 0.94 0.97413 0.12467 0.0
H1277 H 0.96331 0.98628 0.11528 0.0
H1278 H 0.9712 0.97279 0.11747 0.0
H1279 H 0.94806 0.96065 0.12704 0.0
C1280 C 0.66424 0.86012 0.80595 0.0
C1281 C 0.67156 0.85526 0.80368 0.0
C1282 C 0.67197 0.86221 0.78951 0.0
C1283 C 0.67539 0.8563 0.79554 0.0
C1284 C 0.66454 0.86693 0.79179 0.0
C1285 C 0.66074 0.8659 0.79992 0.0
U1286 U 0.65944 0.84818 0.82729 0.0
O1287 O 0.65933 0.85323 0.84059 0.0
O1288 O 0.64748 0.8479 0.83495 0.0
C1289 C 0.651 0.8519 0.84155 0.0
C1290 C 0.6603 0.85948 0.81461 0.0
C1291 C 0.64603 0.8591 0.84535 0.0
C1292 C 0.63677 0.87177 0.84409 0.0
C1293 C 0.64158 0.86513 0.84022 0.0
C1294 C 0.64089 0.86647 0.85822 0.0
C1295 C 0.63637 0.87253 0.85315 0.0
C1296 C 0.64565 0.85984 0.85436 0.0
C1297 C 0.6685 0.82522 0.83094 0.0
C1298 C 0.66389 0.81499 0.84197 0.0
C1299 C 0.67699 0.81231 0.83385 0.0
C1300 C 0.6757 0.81999 0.82926 0.0
C1301 C 0.67108 0.80968 0.84024 0.0
C1302 C 0.66263 0.8227 0.83738 0.0
C1303 C 0.66722 0.83314 0.82578 0.0
O1304 O 0.65396 0.85389 0.81543 0.0
O1305 O 0.66568 0.85939 0.82118 0.0
O1306 O 0.67112 0.84012 0.82862 0.0
O1307 O 0.65931 0.83463 0.82304 0.0
H1308 H 0.67436 0.85074 0.80824 0.0
H1309 H 0.68115 0.85261 0.79405 0.0
H1310 H 0.66163 0.87142 0.78728 0.0
H1311 H 0.65507 0.86968 0.80153 0.0
H1312 H 0.63344 0.87637 0.84 0.0
H1313 H 0.64181 0.8647 0.83325 0.0
H1314 H 0.64065 0.86677 0.8652 0.0
H1315 H 0.64901 0.85524 0.85843 0.0
H1316 H 0.65927 0.81321 0.84691 0.0
H1317 H 0.68253 0.80834 0.83227 0.0
H1318 H 0.6803 0.8218 0.82431 0.0
H1319 H 0.65705 0.82667 0.83882 0.0
C1320 C 0.93014 0.91542 0.55703 0.0
C1321 C 0.93739 0.91798 0.55222 0.0
C1322 C 0.92805 0.92345 0.54073 0.0
C1323 C 0.93635 0.92193 0.54413 0.0
C1324 C 0.92082 0.9209 0.54562 0.0
C1325 C 0.92186 0.91692 0.55367 0.0
U1326 U 0.94271 0.90943 0.57768 0.0
O1327 O 0.93812 0.90871 0.59111 0.0
O1328 O 0.94307 0.89707 0.58474 0.0
C1329 C 0.93939 0.90033 0.59166 0.0
C1330 C 0.93099 0.9111 0.56549 0.0
C1331 C 0.93228 0.89524 0.59544 0.0
C1332 C 0.91732 0.89042 0.59573 0.0
C1333 C 0.92398 0.89517 0.59181 0.0
C1334 C 0.92724 0.88572 0.60687 0.0
C1335 C 0.91885 0.88568 0.60336 0.0
C1336 C 0.93387 0.89045 0.60296 0.0
C1337 C 0.96604 0.91768 0.58094 0.0
C1338 C 0.97392 0.92025 0.59432 0.0
C1339 C 0.98174 0.91842 0.58092 0.0
C1340 C 0.97393 0.91731 0.57651 0.0
C1341 C 0.98184 0.91996 0.58987 0.0
C1342 C 0.96609 0.91909 0.58991 0.0
C1343 C 0.95789 0.91687 0.576 0.0
O1344 O 0.93647 0.90462 0.56587 0.0
O1345 O 0.93144 0.91622 0.57223 0.0
O1346 O 0.95108 0.92081 0.57919 0.0
O1347 O 0.95614 0.90916 0.57291 0.0
H1348 H 0.94384 0.91691 0.55472 0.0
H1349 H 0.94205 0.9239 0.54059 0.0
H1350 H 0.91434 0.92186 0.54316 0.0
H1351 H 0.91618 0.91498 0.55727 0.0
H1352 H 0.91093 0.8906 0.59288 0.0
H1353 H 0.92263 0.89884 0.586 0.0
H1354 H 0.92871 0.88204 0.61264 0.0
H1355 H 0.94025 0.89039 0.60584 0.0
H1356 H 0.97377 0.92133 0.60122 0.0
H1357 H 0.98771 0.91825 0.57727 0.0
H1358 H 0.97405 0.91627 0.5696 0.0
H1359 H 0.96009 0.91936 0.5935 0.0
C1360 C 0.87661 0.181 0.30596 0.0
C1361 C 0.86872 0.18507 0.30408 0.0
C1362 C 0.86871 0.17878 0.28961 0.0
C1363 C 0.86481 0.18397 0.29599 0.0
C1364 C 0.8767 0.17487 0.29151 0.0
C1365 C 0.88059 0.17596 0.29959 0.0
U1366 U 0.8816 0.19292 0.32726 0.0
O1367 O 0.88236 0.18779 0.34049 0.0
O1368 O 0.89384 0.19356 0.33452 0.0
C1369 C 0.89067 0.18937 0.34119 0.0
C1370 C 0.88073 0.18171 0.31454 0.0
C1371 C 0.89604 0.1823 0.34468 0.0
C1372 C 0.89999 0.1671 0.34565 0.0
C1373 C 0.89506 0.17372 0.3419 0.0
C1374 C 0.90705 0.17757 0.35485 0.0
C1375 C 0.90602 0.16893 0.35221 0.0
C1376 C 0.90211 0.18416 0.35112 0.0
C1377 C 0.8721 0.21563 0.33123 0.0
C1378 C 0.87681 0.22584 0.34221 0.0
C1379 C 0.86363 0.22852 0.33422 0.0
C1380 C 0.86488 0.22085 0.32962 0.0
C1381 C 0.8696 0.23115 0.34054 0.0
C1382 C 0.87804 0.21814 0.33762 0.0
C1383 C 0.87338 0.20775 0.32603 0.0
O1384 O 0.88692 0.18746 0.31524 0.0
O1385 O 0.87552 0.18158 0.32125 0.0
O1386 O 0.86977 0.20067 0.32902 0.0
O1387 O 0.88122 0.20647 0.32302 0.0
H1388 H 0.86554 0.18902 0.30889 0.0
H1389 H 0.85862 0.18702 0.2948 0.0
H1390 H 0.87999 0.17097 0.28673 0.0
H1391 H 0.8867 0.17279 0.30089 0.0
H1392 H 0.89909 0.16054 0.3434 0.0
H1393 H 0.89043 0.17214 0.3369 0.0
H1394 H 0.91154 0.17922 0.35995 0.0
H1395 H 0.90295 0.19073 0.35338 0.0
H1396 H 0.88147 0.22762 0.3471 0.0
H1397 H 0.85807 0.23249 0.33268 0.0
H1398 H 0.86024 0.21904 0.3247 0.0
H1399 H 0.88364 0.21417 0.339 0.0
C1400 C 0.61063 0.12649 0.05612 0.0
C1401 C 0.60535 0.11953 0.0537 0.0
C1402 C 0.61282 0.11847 0.03984 0.0
C1403 C 0.60644 0.11555 0.04564 0.0
C1404 C 0.61799 0.12554 0.04228 0.0
C1405 C 0.61691 0.12948 0.05033 0.0
U1406 U 0.59822 0.13183 0.07701 0.0
O1407 O 0.60295 0.13252 0.09038 0.0
O1408 O 0.59761 0.1441 0.08419 0.0
C1409 C 0.60151 0.14087 0.091 0.0
C1410 C 0.60982 0.13065 0.06465 0.0
C1411 C 0.60859 0.14611 0.09465 0.0
C1412 C 0.62377 0.15011 0.09564 0.0
C1413 C 0.61716 0.14523 0.09181 0.0
C1414 C 0.61329 0.15687 0.10506 0.0
C1415 C 0.62192 0.15598 0.10234 0.0
C1416 C 0.60671 0.15199 0.10126 0.0
C1417 C 0.57511 0.12292 0.08015 0.0
C1418 C 0.56696 0.1226 0.09359 0.0
C1419 C 0.55982 0.11933 0.08008 0.0
C1420 C 0.56759 0.12065 0.07567 0.0
C1421 C 0.55939 0.12022 0.08912 0.0
C1422 C 0.57474 0.12394 0.08915 0.0
C1423 C 0.58323 0.12402 0.07528 0.0
O1424 O 0.6042 0.13699 0.06516 0.0
O1425 O 0.60958 0.12544 0.07135 0.0
O1426 O 0.59012 0.12025 0.07852 0.0
O1427 O 0.58477 0.13183 0.07232 0.0
H1428 H 0.60044 0.11713 0.05807 0.0
H1429 H 0.60239 0.11009 0.04403 0.0
H1430 H 0.62286 0.12807 0.03794 0.0
H1431 H 0.62102 0.13488 0.05205 0.0
H1432 H 0.63032 0.14932 0.09332 0.0
H1433 H 0.61874 0.14075 0.08669 0.0
H1434 H 0.61163 0.16123 0.11027 0.0
H1435 H 0.60015 0.15275 0.10356 0.0
H1436 H 0.5669 0.12329 0.10055 0.0
H1437 H 0.55411 0.11767 0.07639 0.0
H1438 H 0.56772 0.11986 0.06872 0.0
H1439 H 0.58048 0.12571 0.09274 0.0
C1440 C 0.66525 0.18008 0.73417 0.0
C1441 C 0.66765 0.18732 0.73907 0.0
C1442 C 0.67294 0.17792 0.75063 0.0
C1443 C 0.67146 0.18625 0.74723 0.0
C1444 C 0.67061 0.17072 0.7456 0.0
C1445 C 0.6668 0.1718 0.73748 0.0
U1446 U 0.65977 0.19254 0.71329 0.0
O1447 O 0.65883 0.18776 0.69996 0.0
O1448 O 0.6474 0.19328 0.70625 0.0
C1449 C 0.65049 0.18928 0.69944 0.0
C1450 C 0.66098 0.18098 0.72569 0.0
C1451 C 0.64513 0.18221 0.69594 0.0
C1452 C 0.64132 0.16699 0.69484 0.0
C1453 C 0.64626 0.1736 0.69858 0.0
C1454 C 0.63396 0.17755 0.68593 0.0
C1455 C 0.63513 0.16888 0.68843 0.0
C1456 C 0.63892 0.18412 0.68964 0.0
C1457 C 0.66912 0.21541 0.70977 0.0
C1458 C 0.66475 0.2255 0.69851 0.0
C1459 C 0.67707 0.22878 0.70756 0.0
C1460 C 0.67588 0.22099 0.71199 0.0
C1461 C 0.67148 0.23118 0.7008 0.0
C1462 C 0.66358 0.21768 0.70295 0.0
C1463 C 0.66792 0.20738 0.71476 0.0
O1464 O 0.65471 0.18669 0.7252 0.0
O1465 O 0.66612 0.1811 0.71893 0.0
O1466 O 0.67151 0.20041 0.71152 0.0
O1467 O 0.66012 0.206 0.71783 0.0
H1468 H 0.66652 0.19378 0.73663 0.0
H1469 H 0.67309 0.19194 0.75093 0.0
H1470 H 0.67179 0.16422 0.74791 0.0
H1471 H 0.66503 0.16613 0.73378 0.0
H1472 H 0.64231 0.16041 0.69699 0.0
H1473 H 0.65099 0.17198 0.70347 0.0
H1474 H 0.62936 0.17924 0.68094 0.0
H1475 H 0.63797 0.19072 0.68749 0.0
H1476 H 0.66028 0.22716 0.69339 0.0
H1477 H 0.6824 0.2329 0.70942 0.0
H1478 H 0.68025 0.21933 0.71721 0.0
H1479 H 0.65832 0.21345 0.70113 0.0
C1480 C 0.6103 0.91519 0.48441 0.0
C1481 C 0.60596 0.9229 0.48643 0.0
C1482 C 0.61243 0.92297 0.50083 0.0
C1483 C 0.60703 0.92676 0.49455 0.0
C1484 C 0.6166 0.91515 0.49881 0.0
C1485 C 0.61556 0.91132 0.4907 0.0
U1486 U 0.59845 0.90982 0.46313 0.0
O1487 O 0.60353 0.9097 0.44982 0.0
O1488 O 0.59854 0.89777 0.45563 0.0
C1489 C 0.60251 0.90131 0.44901 0.0
C1490 C 0.60972 0.91121 0.47577 0.0
C1491 C 0.60989 0.89649 0.4453 0.0
C1492 C 0.62141 0.8858 0.44633 0.0
C1493 C 0.61478 0.89061 0.45021 0.0
C1494 C 0.61847 0.8928 0.43266 0.0
C1495 C 0.62331 0.8868 0.43749 0.0
C1496 C 0.61183 0.89756 0.43652 0.0
C1497 C 0.57505 0.9178 0.45953 0.0
C1498 C 0.56739 0.92 0.44595 0.0
C1499 C 0.55937 0.9189 0.45932 0.0
C1500 C 0.5671 0.9178 0.46387 0.0
C1501 C 0.5594 0.92006 0.45031 0.0
C1502 C 0.57514 0.91884 0.45051 0.0
C1503 C 0.58309 0.91693 0.46461 0.0
O1504 O 0.60439 0.90465 0.47501 0.0
O1505 O 0.60941 0.91654 0.46916 0.0
O1506 O 0.58991 0.92109 0.4617 0.0
O1507 O 0.5849 0.90914 0.46746 0.0
H1508 H 0.60186 0.92601 0.48169 0.0
H1509 H 0.60377 0.93281 0.49583 0.0
H1510 H 0.62068 0.91195 0.50352 0.0
H1511 H 0.61893 0.90536 0.48929 0.0
H1512 H 0.62508 0.88131 0.45026 0.0
H1513 H 0.61345 0.88968 0.45701 0.0
H1514 H 0.61967 0.89367 0.42583 0.0
H1515 H 0.60812 0.90202 0.4326 0.0
H1516 H 0.56765 0.92077 0.43901 0.0
H1517 H 0.55336 0.91902 0.4629 0.0
H1518 H 0.56688 0.91703 0.47082 0.0
H1519 H 0.58119 0.91882 0.447 0.0
C1520 C 0.87667 0.85997 0.2345 0.0
C1521 C 0.8689 0.85572 0.23648 0.0
C1522 C 0.86878 0.86223 0.25085 0.0
C1523 C 0.86499 0.85685 0.24457 0.0
C1524 C 0.87665 0.86633 0.24886 0.0
C1525 C 0.88053 0.86522 0.24078 0.0
U1526 U 0.88167 0.84798 0.21323 0.0
O1527 O 0.88241 0.85307 0.19999 0.0
O1528 O 0.89392 0.84735 0.20599 0.0
C1529 C 0.89075 0.85156 0.19933 0.0
C1530 C 0.88077 0.85923 0.22592 0.0
C1531 C 0.8961 0.85868 0.19587 0.0
C1532 C 0.89904 0.87398 0.19369 0.0
C1533 C 0.89413 0.86739 0.19749 0.0
C1534 C 0.90808 0.86327 0.18678 0.0
C1535 C 0.90605 0.872 0.18823 0.0
C1536 C 0.90315 0.85669 0.19055 0.0
C1537 C 0.87216 0.82524 0.2094 0.0
C1538 C 0.87597 0.8157 0.19752 0.0
C1539 C 0.86443 0.81174 0.2073 0.0
C1540 C 0.86573 0.81939 0.21191 0.0
C1541 C 0.86953 0.80977 0.20005 0.0
C1542 C 0.87726 0.82338 0.20214 0.0
C1543 C 0.87348 0.83315 0.21454 0.0
O1544 O 0.88698 0.85347 0.22525 0.0
O1545 O 0.87555 0.85932 0.21922 0.0
O1546 O 0.86987 0.84022 0.21151 0.0
O1547 O 0.88133 0.83442 0.21749 0.0
H1548 H 0.86581 0.85162 0.23174 0.0
H1549 H 0.8589 0.85365 0.24583 0.0
H1550 H 0.87985 0.87039 0.25356 0.0
H1551 H 0.88655 0.86852 0.2394 0.0
H1552 H 0.89736 0.88064 0.19503 0.0
H1553 H 0.88875 0.86909 0.20162 0.0
H1554 H 0.91335 0.8615 0.18255 0.0
H1555 H 0.90477 0.85002 0.18919 0.0
H1556 H 0.87996 0.81443 0.19192 0.0
H1557 H 0.85951 0.80729 0.20952 0.0
H1558 H 0.86175 0.8207 0.21751 0.0
H1559 H 0.88224 0.82784 0.20008 0.0
C1560 C 0.93064 0.12668 0.98449 0.0
C1561 C 0.93612 0.11991 0.98703 0.0
C1562 C 0.92875 0.11894 1.00095 0.0
C1563 C 0.93517 0.11605 0.99518 0.0
C1564 C 0.92334 0.12578 0.99837 0.0
C1565 C 0.92428 0.12959 0.99022 0.0
U1566 U 0.94288 0.13189 0.96346 0.0
O1567 O 0.93806 0.1325 0.95011 0.0
O1568 O 0.9434 0.14412 0.95617 0.0
C1569 C 0.93944 0.14085 0.94943 0.0
C1570 C 0.93137 0.13076 0.97591 0.0
C1571 C 0.93231 0.14606 0.9458 0.0
C1572 C 0.91703 0.14954 0.9444 0.0
C1573 C 0.92367 0.14469 0.94823 0.0
C1574 C 0.92759 0.15725 0.93583 0.0
C1575 C 0.9189 0.15586 0.93812 0.0
C1576 C 0.9342 0.1524 0.93962 0.0
C1577 C 0.96604 0.12307 0.96025 0.0
C1578 C 0.97403 0.12212 0.94674 0.0
C1579 C 0.98146 0.12008 0.96035 0.0
C1580 C 0.9737 0.12141 0.96477 0.0
C1581 C 0.98174 0.12035 0.95127 0.0
C1582 C 0.96625 0.12348 0.9512 0.0
C1583 C 0.95793 0.12416 0.96516 0.0
O1584 O 0.93695 0.13712 0.97528 0.0
O1585 O 0.9316 0.12548 0.96927 0.0
O1586 O 0.95104 0.12034 0.962 0.0
O1587 O 0.95636 0.13198 0.96807 0.0
H1588 H 0.94111 0.11759 0.98271 0.0
H1589 H 0.93951 0.11087 0.99699 0.0
H1590 H 0.91826 0.12809 1.00258 0.0
H1591 H 0.91998 0.1348 0.98838 0.0
H1592 H 0.91043 0.14836 0.94639 0.0
H1593 H 0.92207 0.13986 0.95302 0.0
H1594 H 0.92927 0.16198 0.93095 0.0
H1595 H 0.94082 0.15353 0.93765 0.0
H1596 H 0.97397 0.12232 0.93976 0.0
H1597 H 0.98727 0.1189 0.96406 0.0
H1598 H 0.97368 0.12111 0.97176 0.0
H1599 H 0.96041 0.12477 0.94757 0.0
C1600 C 0.80626 0.66436 0.86004 0.0
C1601 C 0.80357 0.67078 0.85422 0.0
C1602 C 0.78973 0.67201 0.86171 0.0
C1603 C 0.79539 0.67459 0.85506 0.0
C1604 C 0.79246 0.66551 0.86746 0.0
C1605 C 0.80063 0.66174 0.86663 0.0
U1606 U 0.82748 0.65914 0.84812 0.0
O1607 O 0.84083 0.65908 0.8531 0.0
O1608 O 0.83508 0.64713 0.84811 0.0
C1609 C 0.84171 0.6507 0.85205 0.0
C1610 C 0.81492 0.66041 0.85949 0.0
C1611 C 0.84548 0.64588 0.8594 0.0
C1612 C 0.84447 0.63536 0.87108 0.0
C1613 C 0.84056 0.64016 0.86446 0.0
C1614 C 0.85822 0.64203 0.86778 0.0
C1615 C 0.85337 0.63621 0.8728 0.0
C1616 C 0.85432 0.64679 0.86115 0.0
C1617 C 0.83076 0.6673 0.82472 0.0
C1618 C 0.84425 0.66948 0.81692 0.0
C1619 C 0.83073 0.66893 0.8091 0.0
C1620 C 0.82629 0.66763 0.81686 0.0
C1621 C 0.83976 0.66996 0.80902 0.0
C1622 C 0.8398 0.66815 0.8247 0.0
C1623 C 0.82579 0.66632 0.83281 0.0
O1624 O 0.81569 0.65388 0.85413 0.0
O1625 O 0.82146 0.6658 0.85912 0.0
O1626 O 0.82874 0.67045 0.83961 0.0
O1627 O 0.82304 0.65849 0.8346 0.0
H1628 H 0.80781 0.67287 0.84907 0.0
H1629 H 0.79347 0.67951 0.85046 0.0
H1630 H 0.78833 0.66344 0.87272 0.0
H1631 H 0.80259 0.65681 0.8712 0.0
H1632 H 0.84053 0.63101 0.87489 0.0
H1633 H 0.83371 0.63936 0.86326 0.0
H1634 H 0.86509 0.64278 0.86885 0.0
H1635 H 0.85825 0.65112 0.85731 0.0
H1636 H 0.85119 0.67031 0.81713 0.0
H1637 H 0.82706 0.66908 0.80315 0.0
H1638 H 0.81933 0.66695 0.81672 0.0
H1639 H 0.8434 0.6679 0.83069 0.0
C1640 C 0.30711 0.87638 0.17993 0.0
C1641 C 0.3044 0.86977 0.18552 0.0
C1642 C 0.29074 0.86853 0.17771 0.0
C1643 C 0.2963 0.86588 0.18442 0.0
C1644 C 0.29347 0.87525 0.17221 0.0
C1645 C 0.30157 0.87911 0.17331 0.0
U1646 U 0.32802 0.8815 0.19241 0.0
O1647 O 0.34146 0.88184 0.18775 0.0
O1648 O 0.33546 0.89361 0.19287 0.0
C1649 C 0.34226 0.89018 0.1891 0.0
C1650 C 0.3157 0.88042 0.18075 0.0
C1651 C 0.34611 0.89522 0.182 0.0
C1652 C 0.3455 0.90168 0.16767 0.0
C1653 C 0.34159 0.89693 0.17433 0.0
C1654 C 0.35847 0.90307 0.17631 0.0
C1655 C 0.35402 0.90477 0.16856 0.0
C1656 C 0.35455 0.89835 0.18294 0.0
C1657 C 0.33101 0.87273 0.21557 0.0
C1658 C 0.34447 0.87267 0.22371 0.0
C1659 C 0.33106 0.86888 0.2308 0.0
C1660 C 0.3266 0.8702 0.22305 0.0
C1661 C 0.34007 0.87003 0.23123 0.0
C1662 C 0.33998 0.87401 0.21595 0.0
C1663 C 0.32611 0.87385 0.20747 0.0
O1664 O 0.31629 0.8868 0.18631 0.0
O1665 O 0.32231 0.87509 0.1811 0.0
O1666 O 0.32926 0.86996 0.20062 0.0
O1667 O 0.32332 0.88171 0.20584 0.0
H1668 H 0.30859 0.86756 0.19068 0.0
H1669 H 0.29445 0.86068 0.18872 0.0
H1670 H 0.28933 0.87757 0.16708 0.0
H1671 H 0.30352 0.88423 0.16895 0.0
H1672 H 0.34192 0.90281 0.16177 0.0
H1673 H 0.33506 0.89455 0.17348 0.0
H1674 H 0.36497 0.90545 0.17728 0.0
H1675 H 0.35813 0.89713 0.18882 0.0
H1676 H 0.35141 0.87355 0.22378 0.0
H1677 H 0.32742 0.86702 0.23647 0.0
H1678 H 0.31967 0.86922 0.2229 0.0
H1679 H 0.34352 0.87597 0.21024 0.0
C1680 C 0.91467 0.55606 0.9306 0.0
C1681 C 0.92206 0.55388 0.9354 0.0
C1682 C 0.92251 0.53965 0.9286 0.0
C1683 C 0.92596 0.54576 0.93439 0.0
C1684 C 0.91505 0.54186 0.9239 0.0
C1685 C 0.91119 0.54998 0.92488 0.0
U1686 U 0.90932 0.57703 0.94287 0.0
O1687 O 0.90871 0.59042 0.93809 0.0
O1688 O 0.89709 0.58429 0.94338 0.0
C1689 C 0.90037 0.5911 0.93952 0.0
C1690 C 0.91055 0.56464 0.93134 0.0
C1691 C 0.89518 0.59485 0.93247 0.0
C1692 C 0.88982 0.59482 0.91769 0.0
C1693 C 0.89473 0.59099 0.92429 0.0
C1694 C 0.88573 0.60635 0.92742 0.0
C1695 C 0.88525 0.60256 0.91918 0.0
C1696 C 0.89064 0.60253 0.93397 0.0
C1697 C 0.91794 0.58024 0.96603 0.0
C1698 C 0.91818 0.59377 0.97404 0.0
C1699 C 0.92097 0.58027 0.98144 0.0
C1700 C 0.91989 0.5758 0.97368 0.0
C1701 C 0.92015 0.58932 0.98173 0.0
C1702 C 0.91705 0.58927 0.96626 0.0
C1703 C 0.91697 0.57531 0.95794 0.0
O1704 O 0.90414 0.56521 0.93687 0.0
O1705 O 0.91579 0.57131 0.93159 0.0
O1706 O 0.92083 0.5785 0.95108 0.0
O1707 O 0.90919 0.57235 0.95631 0.0
H1708 H 0.92483 0.55846 0.9399 0.0
H1709 H 0.93163 0.54424 0.93818 0.0
H1710 H 0.91227 0.53737 0.91932 0.0
H1711 H 0.9055 0.55153 0.92111 0.0
H1712 H 0.88953 0.59168 0.91145 0.0
H1713 H 0.89818 0.58504 0.92301 0.0
H1714 H 0.88244 0.61237 0.92877 0.0
H1715 H 0.89093 0.60563 0.94024 0.0
H1716 H 0.91741 0.60072 0.97405 0.0
H1717 H 0.9226 0.57664 0.9872 0.0
H1718 H 0.92062 0.56884 0.97364 0.0
H1719 H 0.91551 0.59283 0.96043 0.0
C1720 C 0.23425 0.16534 0.68013 0.0
C1721 C 0.23878 0.16845 0.68734 0.0
C1722 C 0.25069 0.17309 0.67808 0.0
C1723 C 0.24692 0.17228 0.68633 0.0
C1724 C 0.24605 0.17005 0.67089 0.0
C1725 C 0.23793 0.16621 0.67191 0.0
U1726 U 0.21331 0.15977 0.69244 0.0
O1727 O 0.20001 0.15877 0.68755 0.0
O1728 O 0.20635 0.14735 0.69307 0.0
C1729 C 0.19956 0.15041 0.68899 0.0
C1730 C 0.22578 0.16106 0.68098 0.0
C1731 C 0.19616 0.14506 0.68185 0.0
C1732 C 0.1942 0.14209 0.66654 0.0
C1733 C 0.19792 0.147 0.67316 0.0
C1734 C 0.1871 0.1331 0.67719 0.0
C1735 C 0.18869 0.13511 0.66847 0.0
C1736 C 0.19079 0.13804 0.68379 0.0
C1737 C 0.20953 0.16906 0.71529 0.0
C1738 C 0.19908 0.16406 0.72594 0.0
C1739 C 0.20651 0.17764 0.72809 0.0
C1740 C 0.21093 0.17646 0.7203 0.0
C1741 C 0.20058 0.17142 0.73107 0.0
C1742 C 0.20351 0.16289 0.71812 0.0
C1743 C 0.21459 0.16788 0.7073 0.0
O1744 O 0.22531 0.1548 0.6867 0.0
O1745 O 0.219 0.16617 0.68107 0.0
O1746 O 0.2114 0.17148 0.7003 0.0
O1747 O 0.21774 0.16012 0.70593 0.0
H1748 H 0.23604 0.16784 0.69375 0.0
H1749 H 0.25033 0.17448 0.69202 0.0
H1750 H 0.24865 0.1707 0.66443 0.0
H1751 H 0.23452 0.1639 0.66626 0.0
H1752 H 0.19564 0.14375 0.6599 0.0
H1753 H 0.20209 0.15237 0.6715 0.0
H1754 H 0.18282 0.12785 0.67892 0.0
H1755 H 0.18933 0.13644 0.69045 0.0
H1756 H 0.19463 0.1591 0.72805 0.0
H1757 H 0.20772 0.18346 0.73176 0.0
H1758 H 0.21552 0.18132 0.71822 0.0
H1759 H 0.20231 0.15713 0.71434 0.0
C1760 C 0.12602 0.9842 0.92984 0.0
C1761 C 0.12264 0.98858 0.93702 0.0
C1762 C 0.11833 1.00069 0.92782 0.0
C1763 C 0.11884 0.99675 0.93602 0.0
C1764 C 0.12167 0.9962 0.92066 0.0
C1765 C 0.12547 0.98806 0.92167 0.0
U1766 U 0.13129 0.96324 0.94224 0.0
O1767 O 0.1319 0.94987 0.93742 0.0
O1768 O 0.14349 0.95595 0.94283 0.0
C1769 C 0.14022 0.94916 0.93893 0.0
C1770 C 0.13017 0.97566 0.93068 0.0
C1771 C 0.14544 0.9454 0.93191 0.0
C1772 C 0.1532 0.94651 0.91827 0.0
C1773 C 0.14818 0.95032 0.9248 0.0
C1774 C 0.15272 0.93286 0.9259 0.0
C1775 C 0.15556 0.93772 0.91876 0.0
C1776 C 0.14774 0.93666 0.93239 0.0
C1777 C 0.12217 0.95962 0.96514 0.0
C1778 C 0.1274 0.9494 0.97591 0.0
C1779 C 0.11334 0.95603 0.97764 0.0
C1780 C 0.11454 0.96058 0.96992 0.0
C1781 C 0.11977 0.95042 0.98077 0.0
C1782 C 0.12857 0.95393 0.96815 0.0
C1783 C 0.12332 0.96473 0.95716 0.0
O1784 O 0.13647 0.9751 0.93635 0.0
O1785 O 0.12493 0.96899 0.93087 0.0
O1786 O 0.11958 0.96166 0.9502 0.0
O1787 O 0.13113 0.96775 0.9557 0.0
H1788 H 0.123 0.9857 0.94339 0.0
H1789 H 0.11642 1.00004 0.94169 0.0
H1790 H 0.12126 0.99893 0.91424 0.0
H1791 H 0.128 0.98476 0.91604 0.0
H1792 H 0.15532 0.95047 0.91291 0.0
H1793 H 0.14647 0.95709 0.92431 0.0
H1794 H 0.15426 0.92605 0.92643 0.0
H1795 H 0.14565 0.93274 0.9378 0.0
H1796 H 0.13244 0.94505 0.97808 0.0
H1797 H 0.10744 0.95705 0.98125 0.0
H1798 H 0.10952 0.96495 0.96772 0.0
H1799 H 0.1345 0.95303 0.96454 0.0
C1800 C 0.73472 0.37659 0.36012 0.0
C1801 C 0.73724 0.36974 0.35476 0.0
C1802 C 0.75116 0.36882 0.36217 0.0
C1803 C 0.74538 0.36588 0.35578 0.0
C1804 C 0.74861 0.3758 0.36741 0.0
C1805 C 0.74048 0.37962 0.3664 0.0
U1806 U 0.71339 0.3814 0.34817 0.0
O1807 O 0.70009 0.38154 0.35326 0.0
O1808 O 0.70572 0.39337 0.34785 0.0
C1809 C 0.69915 0.38988 0.35194 0.0
C1810 C 0.72606 0.38054 0.35946 0.0
C1811 C 0.69541 0.39487 0.35917 0.0
C1812 C 0.6966 0.40517 0.37099 0.0
C1813 C 0.70045 0.4003 0.36439 0.0
C1814 C 0.68266 0.39912 0.36731 0.0
C1815 C 0.68764 0.40464 0.37252 0.0
C1816 C 0.6865 0.3943 0.36071 0.0
C1817 C 0.70972 0.37235 0.32526 0.0
C1818 C 0.6983 0.3767 0.31535 0.0
C1819 C 0.70708 0.36417 0.31212 0.0
C1820 C 0.71172 0.36544 0.31977 0.0
C1821 C 0.70033 0.3698 0.30978 0.0
C1822 C 0.70293 0.37795 0.32303 0.0
C1823 C 0.71489 0.37361 0.33316 0.0
O1824 O 0.72525 0.38687 0.35385 0.0
O1825 O 0.7195 0.37516 0.35937 0.0
O1826 O 0.71203 0.36973 0.34015 0.0
O1827 O 0.71763 0.38152 0.33462 0.0
H1828 H 0.73288 0.3673 0.34986 0.0
H1829 H 0.74708 0.36048 0.35168 0.0
H1830 H 0.75292 0.37834 0.3723 0.0
H1831 H 0.73867 0.38493 0.37057 0.0
H1832 H 0.70063 0.40929 0.37494 0.0
H1833 H 0.70735 0.40082 0.36335 0.0
H1834 H 0.67574 0.39863 0.36823 0.0
H1835 H 0.68248 0.39018 0.35674 0.0
H1836 H 0.69308 0.3811 0.31379 0.0
H1837 H 0.70891 0.35886 0.30795 0.0
H1838 H 0.71694 0.36106 0.32136 0.0
H1839 H 0.70125 0.3833 0.32721 0.0
C1840 C 0.91565 0.48411 0.61033 0.0
C1841 C 0.9187 0.48866 0.60311 0.0
C1842 C 0.92375 0.50036 0.6124 0.0
C1843 C 0.92269 0.49673 0.60413 0.0
C1844 C 0.92071 0.49572 0.6196 0.0
C1845 C 0.91671 0.48769 0.61857 0.0
U1846 U 0.90949 0.46345 0.59786 0.0
O1847 O 0.90847 0.45007 0.60256 0.0
O1848 O 0.89698 0.45664 0.59747 0.0
C1849 C 0.90007 0.44974 0.60134 0.0
C1850 C 0.91125 0.4757 0.60948 0.0
C1851 C 0.89484 0.44623 0.60852 0.0
C1852 C 0.89238 0.44352 0.62383 0.0
C1853 C 0.89723 0.44737 0.6172 0.0
C1854 C 0.8826 0.43754 0.61321 0.0
C1855 C 0.88504 0.43851 0.62191 0.0
C1856 C 0.88746 0.44135 0.6066 0.0
C1857 C 0.9179 0.45996 0.57463 0.0
C1858 C 0.91906 0.44639 0.56677 0.0
C1859 C 0.92 0.45998 0.55907 0.0
C1860 C 0.91891 0.46445 0.56683 0.0
C1861 C 0.92013 0.45089 0.55893 0.0
C1862 C 0.91793 0.45088 0.57455 0.0
C1863 C 0.91709 0.46491 0.58274 0.0
O1864 O 0.90482 0.4754 0.60395 0.0
O1865 O 0.91629 0.46888 0.60912 0.0
O1866 O 0.92089 0.46162 0.58959 0.0
O1867 O 0.90942 0.46813 0.58441 0.0
H1868 H 0.91797 0.48599 0.59669 0.0
H1869 H 0.92504 0.50008 0.59845 0.0
H1870 H 0.92131 0.49836 0.62605 0.0
H1871 H 0.91437 0.48429 0.62423 0.0
H1872 H 0.89438 0.44448 0.63046 0.0
H1873 H 0.90287 0.45115 0.61886 0.0
H1874 H 0.87705 0.43366 0.61148 0.0
H1875 H 0.88552 0.44036 0.59996 0.0
H1876 H 0.91903 0.4394 0.56688 0.0
H1877 H 0.9209 0.46365 0.55318 0.0
H1878 H 0.91894 0.47145 0.56676 0.0
H1879 H 0.91712 0.44727 0.58049 0.0
C1880 C 0.62564 0.5568 0.11029 0.0
C1881 C 0.62213 0.55248 0.10314 0.0
C1882 C 0.61789 0.54036 0.11234 0.0
C1883 C 0.61829 0.54433 0.10415 0.0
C1884 C 0.62136 0.5448 0.11947 0.0
C1885 C 0.62519 0.55291 0.11845 0.0
U1886 U 0.63134 0.57759 0.09778 0.0
O1887 O 0.63224 0.59096 0.10247 0.0
O1888 O 0.64375 0.58457 0.09724 0.0
C1889 C 0.64062 0.5914 0.10118 0.0
C1890 C 0.6299 0.56528 0.10941 0.0
C1891 C 0.64587 0.5949 0.10834 0.0
C1892 C 0.64846 0.59739 0.12365 0.0
C1893 C 0.6436 0.59359 0.11703 0.0
C1894 C 0.65804 0.60368 0.11301 0.0
C1895 C 0.65572 0.60254 0.12172 0.0
C1896 C 0.65316 0.59992 0.10641 0.0
C1897 C 0.62249 0.58094 0.07469 0.0
C1898 C 0.62475 0.59383 0.06596 0.0
C1899 C 0.61692 0.58167 0.06004 0.0
C1900 C 0.61802 0.57717 0.0678 0.0
C1901 C 0.62028 0.59005 0.05899 0.0
C1902 C 0.62586 0.5893 0.07374 0.0
C1903 C 0.62351 0.57601 0.08278 0.0
O1904 O 0.63626 0.56569 0.10381 0.0
O1905 O 0.62476 0.57203 0.10911 0.0
O1906 O 0.6198 0.57932 0.08965 0.0
O1907 O 0.63127 0.57295 0.08434 0.0
H1908 H 0.62242 0.55538 0.09677 0.0
H1909 H 0.61577 0.54109 0.0985 0.0
H1910 H 0.62103 0.54203 0.12589 0.0
H1911 H 0.62782 0.55616 0.12405 0.0
H1912 H 0.64655 0.59629 0.13029 0.0
H1913 H 0.63803 0.5897 0.11869 0.0
H1914 H 0.66352 0.60767 0.11128 0.0
H1915 H 0.65502 0.60103 0.09975 0.0
H1916 H 0.6275 0.60023 0.06536 0.0
H1917 H 0.61333 0.5786 0.05488 0.0
H1918 H 0.61534 0.57074 0.06842 0.0
H1919 H 0.62935 0.59231 0.079 0.0
C1920 C 0.6814 0.73539 0.87785 0.0
C1921 C 0.68716 0.73791 0.87131 0.0
C1922 C 0.67977 0.75181 0.86994 0.0
C1923 C 0.68634 0.74604 0.86738 0.0
C1924 C 0.67408 0.74923 0.87654 0.0
C1925 C 0.67489 0.74111 0.88044 0.0
U1926 U 0.69324 0.7141 0.88293 0.0
O1927 O 0.69382 0.70681 0.89517 0.0
O1928 O 0.68814 0.70087 0.88364 0.0
C1929 C 0.68967 0.70014 0.89196 0.0
C1930 C 0.682 0.72683 0.88199 0.0
C1931 C 0.68256 0.69662 0.89726 0.0
C1932 C 0.66733 0.69559 0.90106 0.0
C1933 C 0.67399 0.69941 0.89624 0.0
C1934 C 0.67777 0.6863 0.9081 0.0
C1935 C 0.66912 0.68891 0.90699 0.0
C1936 C 0.6844 0.69011 0.90328 0.0
C1937 C 0.71602 0.71024 0.87345 0.0
C1938 C 0.72643 0.69938 0.87808 0.0
C1939 C 0.72882 0.70732 0.86482 0.0
C1940 C 0.72112 0.71186 0.86615 0.0
C1941 C 0.73161 0.70105 0.87079 0.0
C1942 C 0.71869 0.70392 0.87939 0.0
C1943 C 0.7081 0.71538 0.87479 0.0
O1944 O 0.68194 0.72014 0.87677 0.0
O1945 O 0.68772 0.72611 0.88822 0.0
O1946 O 0.7068 0.71833 0.88263 0.0
O1947 O 0.70104 0.71239 0.87115 0.0
H1948 H 0.69226 0.7336 0.86924 0.0
H1949 H 0.69089 0.74784 0.86238 0.0
H1950 H 0.66888 0.75344 0.8786 0.0
H1951 H 0.67037 0.73928 0.88546 0.0
H1952 H 0.66075 0.69772 0.89998 0.0
H1953 H 0.67243 0.70444 0.89163 0.0
H1954 H 0.67943 0.6813 0.9127 0.0
H1955 H 0.69097 0.68789 0.90419 0.0
H1956 H 0.72834 0.69453 0.88276 0.0
H1957 H 0.73268 0.70886 0.85919 0.0
H1958 H 0.71918 0.71673 0.8615 0.0
H1959 H 0.71483 0.70253 0.88506 0.0
C1960 C 0.55591 0.43089 0.12713 0.0
C1961 C 0.55162 0.43816 0.1238 0.0
C1962 C 0.53946 0.42914 0.11933 0.0
C1963 C 0.54347 0.43729 0.11993 0.0
C1964 C 0.54385 0.42189 0.12265 0.0
C1965 C 0.55197 0.42277 0.12651 0.0
U1966 U 0.57678 0.44316 0.13292 0.0
O1967 O 0.5841 0.44321 0.14509 0.0
O1968 O 0.59021 0.43838 0.13326 0.0
C1969 C 0.59088 0.43943 0.14165 0.0
C1970 C 0.56445 0.43158 0.13129 0.0
C1971 C 0.59469 0.43215 0.14654 0.0
C1972 C 0.59353 0.41989 0.15635 0.0
C1973 C 0.58962 0.42645 0.15146 0.0
C1974 C 0.60758 0.42453 0.15133 0.0
C1975 C 0.60258 0.41888 0.15641 0.0
C1976 C 0.60368 0.43108 0.14647 0.0
C1977 C 0.57998 0.46663 0.12491 0.0
C1978 C 0.59335 0.47454 0.12241 0.0
C1979 C 0.57987 0.48232 0.12392 0.0
C1980 C 0.5755 0.4745 0.12509 0.0
C1981 C 0.58884 0.48245 0.1225 0.0
C1982 C 0.58897 0.46671 0.12363 0.0
C1983 C 0.57506 0.45848 0.12575 0.0
O1984 O 0.5711 0.43208 0.12604 0.0
O1985 O 0.56499 0.43694 0.13785 0.0
O1986 O 0.57214 0.45663 0.1335 0.0
O1987 O 0.57816 0.45172 0.12166 0.0
H1988 H 0.55457 0.44449 0.12421 0.0
H1989 H 0.54026 0.44303 0.11752 0.0
H1990 H 0.54106 0.4155 0.12217 0.0
H1991 H 0.5552 0.41708 0.12901 0.0
H1992 H 0.58947 0.41571 0.16022 0.0
H1993 H 0.58266 0.42714 0.1516 0.0
H1994 H 0.61454 0.42386 0.15106 0.0
H1995 H 0.60772 0.43538 0.1427 0.0
H1996 H 0.60028 0.47442 0.12143 0.0
H1997 H 0.57618 0.48826 0.12394 0.0
H1998 H 0.56856 0.47459 0.12603 0.0
H1999 H 0.59259 0.46072 0.1235 0.0
C2000 C 0.85967 0.30555 0.37779 0.0
C2001 C 0.85386 0.303 0.37132 0.0
C2002 C 0.86126 0.28912 0.36996 0.0
C2003 C 0.85466 0.29486 0.36742 0.0
C2004 C 0.86701 0.29172 0.3765 0.0
C2005 C 0.86622 0.29986 0.38036 0.0
U2006 U 0.84765 0.32668 0.3829 0.0
O2007 O 0.84707 0.334 0.39508 0.0
O2008 O 0.85257 0.33999 0.38348 0.0
C2009 C 0.85108 0.34073 0.39181 0.0
C2010 C 0.85906 0.31412 0.3819 0.0
C2011 C 0.85819 0.34433 0.39703 0.0
C2012 C 0.87315 0.34436 0.4019 0.0
C2013 C 0.86647 0.34062 0.39704 0.0
C2014 C 0.8633 0.35545 0.40685 0.0
C2015 C 0.87165 0.35184 0.40686 0.0
C2016 C 0.85666 0.35173 0.40199 0.0
C2017 C 0.82465 0.32998 0.37371 0.0
C2018 C 0.81525 0.34217 0.3769 0.0
C2019 C 0.81058 0.33116 0.36684 0.0
C2020 C 0.81838 0.32676 0.36805 0.0
C2021 C 0.80887 0.3389 0.37128 0.0
C2022 C 0.82307 0.33774 0.37811 0.0
C2023 C 0.83271 0.32505 0.37495 0.0
O2024 O 0.85896 0.32079 0.37663 0.0
O2025 O 0.85343 0.31479 0.38821 0.0
O2026 O 0.83416 0.32219 0.38282 0.0
O2027 O 0.83965 0.32821 0.37123 0.0
H2028 H 0.84872 0.30729 0.36927 0.0
H2029 H 0.85006 0.29303 0.36249 0.0
H2030 H 0.87223 0.28753 0.37854 0.0
H2031 H 0.87078 0.30172 0.38533 0.0
H2032 H 0.87946 0.34135 0.40182 0.0
H2033 H 0.86778 0.33488 0.39326 0.0
H2034 H 0.86192 0.36127 0.41046 0.0
H2035 H 0.85032 0.3547 0.40204 0.0
H2036 H 0.81413 0.34807 0.38048 0.0
H2037 H 0.8059 0.32852 0.36236 0.0
H2038 H 0.8195 0.32079 0.36457 0.0
H2039 H 0.82785 0.34033 0.38251 0.0
C2040 C 0.98512 0.61012 0.62662 0.0
C2041 C 0.98992 0.60276 0.62438 0.0
C2042 C 1.00142 0.61185 0.61852 0.0
C2043 C 0.99801 0.60361 0.62039 0.0
C2044 C 0.99654 0.61918 0.62076 0.0
C2045 C 0.98849 0.61832 0.62476 0.0
U2046 U 0.9643 0.59792 0.63278 0.0
O2047 O 0.9571 0.59797 0.64502 0.0
O2048 O 0.95089 0.60273 0.6332 0.0
C2049 C 0.95033 0.60181 0.64162 0.0
C2050 C 0.97663 0.60946 0.6309 0.0
C2051 C 0.94667 0.60922 0.64643 0.0
C2052 C 0.94786 0.6209 0.6569 0.0
C2053 C 0.95166 0.6142 0.65214 0.0
C2054 C 0.93407 0.61785 0.6502 0.0
C2055 C 0.939 0.6228 0.656 0.0
C2056 C 0.93786 0.61114 0.64549 0.0
C2057 C 0.96116 0.57439 0.62482 0.0
C2058 C 0.94784 0.56631 0.62262 0.0
C2059 C 0.96153 0.55877 0.62318 0.0
C2060 C 0.96579 0.56662 0.62449 0.0
C2061 C 0.9525 0.5585 0.62212 0.0
C2062 C 0.95212 0.57418 0.62396 0.0
C2063 C 0.96598 0.58259 0.62566 0.0
O2064 O 0.96991 0.60897 0.62575 0.0
O2065 O 0.97616 0.60415 0.63752 0.0
O2066 O 0.96892 0.58445 0.6334 0.0
O2067 O 0.96279 0.58933 0.62158 0.0
H2068 H 0.98741 0.59636 0.62571 0.0
H2069 H 1.00155 0.59783 0.61867 0.0
H2070 H 0.999 0.62561 0.61952 0.0
H2071 H 0.98489 0.62408 0.62646 0.0
H2072 H 0.95187 0.62464 0.66124 0.0
H2073 H 0.95849 0.61288 0.65297 0.0
H2074 H 0.92722 0.61905 0.64942 0.0
H2075 H 0.93387 0.60736 0.64116 0.0
H2076 H 0.94089 0.56637 0.62178 0.0
H2077 H 0.96532 0.55289 0.623 0.0
H2078 H 0.97276 0.56663 0.62516 0.0
H2079 H 0.94839 0.5801 0.6242 0.0
C2080 C 0.68136 0.30535 0.6628 0.0
C2081 C 0.68772 0.3023 0.6685 0.0
C2082 C 0.67955 0.28898 0.67075 0.0
C2083 C 0.68682 0.29418 0.67244 0.0
C2084 C 0.67327 0.29207 0.66493 0.0
C2085 C 0.67417 0.30017 0.66101 0.0
U2086 U 0.69336 0.32656 0.65775 0.0
O2087 O 0.6936 0.33418 0.64574 0.0
O2088 O 0.68832 0.33989 0.65758 0.0
C2089 C 0.68953 0.34076 0.64922 0.0
C2090 C 0.68199 0.31397 0.65876 0.0
C2091 C 0.68221 0.34445 0.64429 0.0
C2092 C 0.6707 0.34333 0.6336 0.0
C2093 C 0.67737 0.33951 0.6384 0.0
C2094 C 0.6735 0.35702 0.64058 0.0
C2095 C 0.66869 0.35215 0.63462 0.0
C2096 C 0.68018 0.35322 0.64534 0.0
C2097 C 0.71642 0.32993 0.66676 0.0
C2098 C 0.72607 0.34179 0.66311 0.0
C2099 C 0.73001 0.33171 0.67442 0.0
C2100 C 0.7223 0.32721 0.67308 0.0
C2101 C 0.73202 0.33906 0.66945 0.0
C2102 C 0.71832 0.33728 0.6618 0.0
C2103 C 0.70842 0.32492 0.66546 0.0
O2104 O 0.68217 0.32054 0.66411 0.0
O2105 O 0.68757 0.31471 0.65241 0.0
O2106 O 0.70691 0.32224 0.65756 0.0
O2107 O 0.70148 0.32789 0.66935 0.0
H2108 H 0.69332 0.30623 0.66997 0.0
H2109 H 0.69174 0.29206 0.67694 0.0
H2110 H 0.66766 0.2882 0.66336 0.0
H2111 H 0.66921 0.3024 0.6566 0.0
H2112 H 0.66706 0.33937 0.62913 0.0
H2113 H 0.67877 0.33272 0.63749 0.0
H2114 H 0.67221 0.36384 0.64146 0.0
H2115 H 0.68384 0.35717 0.6498 0.0
H2116 H 0.72736 0.34747 0.65923 0.0
H2117 H 0.73448 0.32934 0.67925 0.0
H2118 H 0.72096 0.32154 0.67696 0.0
H2119 H 0.71384 0.3395 0.6569 0.0
C2120 C 0.98518 0.43082 0.91338 0.0
C2121 C 0.9909 0.43785 0.91388 0.0
C2122 C 1.0015 0.4289 0.92142 0.0
C2123 C 0.999 0.43689 0.91784 0.0
C2124 C 0.99571 0.42192 0.92096 0.0
C2125 C 0.98765 0.42287 0.91697 0.0
U2126 U 0.96427 0.44305 0.90761 0.0
O2127 O 0.95704 0.44348 0.89537 0.0
O2128 O 0.95088 0.43825 0.90701 0.0
C2129 C 0.95023 0.43962 0.89866 0.0
C2130 C 0.97668 0.43154 0.90905 0.0
C2131 C 0.94651 0.4325 0.89354 0.0
C2132 C 0.94774 0.41884 0.88586 0.0
C2133 C 0.9515 0.42545 0.8908 0.0
C2134 C 0.93399 0.42627 0.88642 0.0
C2135 C 0.93893 0.41919 0.88357 0.0
C2136 C 0.93774 0.43284 0.89133 0.0
C2137 C 0.96095 0.4661 0.91661 0.0
C2138 C 0.94921 0.47586 0.91277 0.0
C2139 C 0.95909 0.47967 0.92428 0.0
C2140 C 0.96358 0.47194 0.92299 0.0
C2141 C 0.95185 0.48175 0.91919 0.0
C2142 C 0.95371 0.46809 0.91151 0.0
C2143 C 0.96589 0.45805 0.91542 0.0
O2144 O 0.96992 0.43174 0.91418 0.0
O2145 O 0.97614 0.43705 0.9026 0.0
O2146 O 0.96879 0.45653 0.90759 0.0
O2147 O 0.96271 0.45114 0.91919 0.0
H2148 H 0.98913 0.44407 0.91122 0.0
H2149 H 1.00327 0.44242 0.91817 0.0
H2150 H 0.99745 0.41566 0.92357 0.0
H2151 H 0.98335 0.41736 0.91663 0.0
H2152 H 0.95176 0.41353 0.88373 0.0
H2153 H 0.95829 0.42507 0.89245 0.0
H2154 H 0.92716 0.42669 0.88494 0.0
H2155 H 0.93377 0.43821 0.89342 0.0
H2156 H 0.94362 0.47722 0.9088 0.0
H2157 H 0.96138 0.48409 0.92918 0.0
H2158 H 0.96916 0.47053 0.92698 0.0
H2159 H 0.95156 0.46365 0.90656 0.0
C2160 C 0.85918 0.73549 0.16267 0.0
C2161 C 0.85426 0.73759 0.17 0.0
C2162 C 0.86076 0.75196 0.17044 0.0
C2163 C 0.85507 0.74574 0.17386 0.0
C2164 C 0.86556 0.74985 0.16302 0.0
C2165 C 0.86478 0.7417 0.1592 0.0
U2166 U 0.84741 0.71426 0.1573 0.0
O2167 O 0.84746 0.7067 0.14528 0.0
O2168 O 0.85238 0.70091 0.15725 0.0
C2169 C 0.85135 0.70005 0.14887 0.0
C2170 C 0.85872 0.72685 0.15866 0.0
C2171 C 0.8587 0.69629 0.14409 0.0
C2172 C 0.87124 0.69757 0.13466 0.0
C2173 C 0.86452 0.70142 0.13938 0.0
C2174 C 0.86648 0.68346 0.13941 0.0
C2175 C 0.8723 0.68853 0.13461 0.0
C2176 C 0.85977 0.68729 0.14408 0.0
C2177 C 0.82395 0.71111 0.16549 0.0
C2178 C 0.81596 0.69768 0.16732 0.0
C2179 C 0.8084 0.71137 0.16773 0.0
C2180 C 0.8162 0.71571 0.16634 0.0
C2181 C 0.80817 0.7023 0.16833 0.0
C2182 C 0.82378 0.70205 0.16591 0.0
C2183 C 0.83209 0.71598 0.16446 0.0
O2184 O 0.85841 0.72025 0.16399 0.0
O2185 O 0.85341 0.72609 0.15209 0.0
O2186 O 0.83388 0.7187 0.15662 0.0
O2187 O 0.83888 0.71297 0.16859 0.0
H2188 H 0.84985 0.73292 0.17276 0.0
H2189 H 0.8512 0.74719 0.1795 0.0
H2190 H 0.87007 0.75444 0.16027 0.0
H2191 H 0.86864 0.74021 0.15356 0.0
H2192 H 0.87566 0.70168 0.13112 0.0
H2193 H 0.86386 0.70838 0.13932 0.0
H2194 H 0.86702 0.67648 0.13944 0.0
H2195 H 0.85533 0.68321 0.14764 0.0
H2196 H 0.81604 0.6907 0.1678 0.0
H2197 H 0.80254 0.71514 0.1683 0.0
H2198 H 0.81618 0.7227 0.16601 0.0
H2199 H 0.82969 0.69836 0.16525 0.0
C2200 C 0.55537 0.60962 0.41213 0.0
C2201 C 0.55315 0.60444 0.41925 0.0
C2202 C 0.53911 0.61161 0.42027 0.0
C2203 C 0.5451 0.60544 0.42328 0.0
C2204 C 0.54136 0.61667 0.41305 0.0
C2205 C 0.5494 0.61568 0.40904 0.0
U2206 U 0.57634 0.59743 0.40649 0.0
O2207 O 0.58344 0.59708 0.39415 0.0
O2208 O 0.58968 0.60224 0.40577 0.0
C2209 C 0.59024 0.60098 0.39739 0.0
C2210 C 0.56389 0.60892 0.40791 0.0
C2211 C 0.59384 0.60817 0.39224 0.0
C2212 C 0.59557 0.62351 0.38919 0.0
C2213 C 0.59168 0.61682 0.39391 0.0
C2214 C 0.60364 0.61297 0.38094 0.0
C2215 C 0.60168 0.62167 0.38269 0.0
C2216 C 0.59977 0.60631 0.38567 0.0
C2217 C 0.57967 0.57419 0.41508 0.0
C2218 C 0.59319 0.56616 0.41586 0.0
C2219 C 0.57959 0.55872 0.41788 0.0
C2220 C 0.57516 0.56651 0.41669 0.0
C2221 C 0.58867 0.55844 0.41752 0.0
C2222 C 0.58873 0.57396 0.41463 0.0
C2223 C 0.57476 0.58231 0.4141 0.0
O2224 O 0.57063 0.60865 0.41307 0.0
O2225 O 0.56441 0.60341 0.40149 0.0
O2226 O 0.57175 0.58395 0.40634 0.0
O2227 O 0.57797 0.58916 0.41794 0.0
H2228 H 0.55766 0.5997 0.42173 0.0
H2229 H 0.54364 0.60149 0.42887 0.0
H2230 H 0.53688 0.62137 0.41044 0.0
H2231 H 0.55097 0.6197 0.40353 0.0
H2232 H 0.59395 0.63012 0.39077 0.0
H2233 H 0.5871 0.61841 0.39895 0.0
H2234 H 0.60818 0.61129 0.37589 0.0
H2235 H 0.60149 0.59968 0.38424 0.0
H2236 H 0.60018 0.56616 0.41545 0.0
H2237 H 0.5759 0.55294 0.41926 0.0
H2238 H 0.56817 0.56654 0.41709 0.0
H2239 H 0.59236 0.57981 0.41335 0.0
C2240 C 0.87779 0.68096 0.73511 0.0
C2241 C 0.87462 0.68821 0.73953 0.0
C2242 C 0.86962 0.67899 0.75134 0.0
C2243 C 0.87059 0.68723 0.74759 0.0
C2244 C 0.87279 0.67177 0.74683 0.0
C2245 C 0.87684 0.67275 0.73881 0.0
U2246 U 0.88352 0.6935 0.71442 0.0
O2247 O 0.89587 0.69412 0.70737 0.0
O2248 O 0.88435 0.68889 0.70102 0.0
C2249 C 0.8927 0.69031 0.70049 0.0
C2250 C 0.88212 0.68179 0.72666 0.0
C2251 C 0.89793 0.68323 0.69684 0.0
C2252 C 0.90312 0.66838 0.69695 0.0
C2253 C 0.89824 0.67503 0.70071 0.0
C2254 C 0.90748 0.67809 0.68549 0.0
C2255 C 0.90779 0.66982 0.68927 0.0
C2256 C 0.90261 0.68471 0.68924 0.0
C2257 C 0.87449 0.71658 0.71135 0.0
C2258 C 0.87755 0.72592 0.69907 0.0
C2259 C 0.86793 0.73082 0.71038 0.0
C2260 C 0.8691 0.72299 0.71475 0.0
C2261 C 0.87217 0.73242 0.70249 0.0
C2262 C 0.87871 0.71807 0.70346 0.0
C2263 C 0.87561 0.70844 0.71618 0.0
O2264 O 0.87701 0.68208 0.7199 0.0
O2265 O 0.88849 0.68739 0.72626 0.0
O2266 O 0.88341 0.7069 0.71917 0.0
O2267 O 0.87192 0.70158 0.71282 0.0
H2268 H 0.87525 0.6946 0.73676 0.0
H2269 H 0.86814 0.69292 0.75083 0.0
H2270 H 0.87226 0.66534 0.74956 0.0
H2271 H 0.87926 0.66708 0.7355 0.0
H2272 H 0.90327 0.66213 0.70009 0.0
H2273 H 0.89468 0.67377 0.7066 0.0
H2274 H 0.91086 0.67942 0.67952 0.0
H2275 H 0.90242 0.69098 0.68614 0.0
H2276 H 0.88097 0.72695 0.69306 0.0
H2277 H 0.86364 0.73559 0.71315 0.0
H2278 H 0.86576 0.72194 0.72081 0.0
H2279 H 0.88291 0.71318 0.70074 0.0
C2280 C 0.60889 0.62877 0.98541 0.0
C2281 C 0.60443 0.62113 0.98739 0.0
C2282 C 0.61097 0.62081 1.00176 0.0
C2283 C 0.60548 0.61718 0.99548 0.0
C2284 C 0.61529 0.62856 0.99976 0.0
C2285 C 0.61427 0.63248 0.99167 0.0
U2286 U 0.5968 0.634 0.96428 0.0
O2287 O 0.59628 0.64625 0.95699 0.0
O2288 O 0.6017 0.63463 0.95097 0.0
C2289 C 0.60029 0.64297 0.95027 0.0
C2290 C 0.6082 0.63292 0.97683 0.0
C2291 C 0.60742 0.64818 0.94665 0.0
C2292 C 0.62271 0.65162 0.94524 0.0
C2293 C 0.61604 0.64687 0.94915 0.0
C2294 C 0.61219 0.65914 0.93644 0.0
C2295 C 0.62087 0.65775 0.93876 0.0
C2296 C 0.60555 0.6544 0.94034 0.0
C2297 C 0.5738 0.62486 0.96095 0.0
C2298 C 0.56473 0.62752 0.94837 0.0
C2299 C 0.55946 0.61852 0.96004 0.0
C2300 C 0.56723 0.61974 0.96448 0.0
C2301 C 0.55808 0.62242 0.95194 0.0
C2302 C 0.57252 0.62874 0.95285 0.0
C2303 C 0.58185 0.62608 0.96589 0.0
O2304 O 0.60812 0.6277 0.97014 0.0
O2305 O 0.60258 0.63924 0.97619 0.0
O2306 O 0.5833 0.63394 0.96874 0.0
O2307 O 0.58879 0.62236 0.96273 0.0
H2308 H 0.60023 0.61816 0.98266 0.0
H2309 H 0.60211 0.61118 0.99674 0.0
H2310 H 0.61945 0.63164 1.00446 0.0
H2311 H 0.61773 0.6384 0.99029 0.0
H2312 H 0.62931 0.65032 0.94715 0.0
H2313 H 0.61763 0.64211 0.95403 0.0
H2314 H 0.6105 0.66391 0.9316 0.0
H2315 H 0.59894 0.65553 0.93834 0.0
H2316 H 0.56387 0.63067 0.94219 0.0
H2317 H 0.55456 0.61445 0.96293 0.0
H2318 H 0.56811 0.61667 0.97071 0.0
H2319 H 0.57753 0.63273 0.95002 0.0
C2320 C 0.66266 0.35943 0.23564 0.0
C2321 C 0.6695 0.35397 0.23804 0.0
C2322 C 0.67052 0.36112 0.25206 0.0
C2323 C 0.67342 0.35483 0.24616 0.0
C2324 C 0.66359 0.36649 0.24963 0.0
C2325 C 0.65971 0.36565 0.24151 0.0
U2326 U 0.65762 0.34736 0.21456 0.0
O2327 O 0.64553 0.34687 0.20707 0.0
O2328 O 0.65727 0.3522 0.2012 0.0
C2329 C 0.64895 0.35077 0.20034 0.0
C2330 C 0.65857 0.35882 0.22705 0.0
C2331 C 0.64386 0.35787 0.19653 0.0
C2332 C 0.6379 0.37242 0.19692 0.0
C2333 C 0.64263 0.36574 0.20084 0.0
C2334 C 0.63556 0.36339 0.18439 0.0
C2335 C 0.63436 0.37135 0.18861 0.0
C2336 C 0.64025 0.35674 0.18831 0.0
C2337 C 0.66679 0.32437 0.21142 0.0
C2338 C 0.66427 0.31534 0.19882 0.0
C2339 C 0.67343 0.31017 0.21041 0.0
C2340 C 0.67205 0.31787 0.21491 0.0
C2341 C 0.66957 0.30879 0.20229 0.0
C2342 C 0.6629 0.32307 0.20334 0.0
C2343 C 0.66549 0.3324 0.21636 0.0
O2344 O 0.66387 0.35868 0.22043 0.0
O2345 O 0.65223 0.35322 0.22636 0.0
O2346 O 0.65758 0.33387 0.21908 0.0
O2347 O 0.66929 0.33933 0.21327 0.0
H2348 H 0.67184 0.34909 0.23362 0.0
H2349 H 0.67866 0.35052 0.24785 0.0
H2350 H 0.66126 0.37147 0.25395 0.0
H2351 H 0.65445 0.36993 0.23978 0.0
H2352 H 0.63717 0.37848 0.20033 0.0
H2353 H 0.64538 0.36673 0.2072 0.0
H2354 H 0.63281 0.36228 0.17805 0.0
H2355 H 0.6411 0.3507 0.18489 0.0
H2356 H 0.66127 0.31453 0.19256 0.0
H2357 H 0.67743 0.30524 0.21335 0.0
H2358 H 0.67508 0.31874 0.22115 0.0
H2359 H 0.65883 0.32803 0.20053 0.0
C2360 C 0.93122 0.41339 0.48485 0.0
C2361 C 0.93856 0.4158 0.48959 0.0
C2362 C 0.92942 0.42105 0.50134 0.0
C2363 C 0.93767 0.41959 0.49777 0.0
C2364 C 0.92211 0.41867 0.49648 0.0
C2365 C 0.92301 0.41488 0.48834 0.0
U2366 U 0.9434 0.40795 0.46382 0.0
O2367 O 0.94355 0.39588 0.45635 0.0
O2368 O 0.9385 0.40776 0.45046 0.0
C2369 C 0.93958 0.39937 0.44969 0.0
C2370 C 0.93192 0.40929 0.47627 0.0
C2371 C 0.93222 0.39451 0.44599 0.0
C2372 C 0.92079 0.38373 0.44701 0.0
C2373 C 0.92747 0.38849 0.45086 0.0
C2374 C 0.92341 0.39104 0.43344 0.0
C2375 C 0.91869 0.38493 0.43824 0.0
C2376 C 0.9301 0.39575 0.43727 0.0
C2377 C 0.96662 0.41661 0.46062 0.0
C2378 C 0.97577 0.41376 0.44816 0.0
C2379 C 0.98078 0.42331 0.45947 0.0
C2380 C 0.97306 0.42201 0.46397 0.0
C2381 C 0.98224 0.41922 0.45149 0.0
C2382 C 0.96801 0.41248 0.45268 0.0
C2383 C 0.95856 0.41545 0.46555 0.0
O2384 O 0.93225 0.4146 0.46965 0.0
O2385 O 0.93738 0.40282 0.47563 0.0
O2386 O 0.95691 0.40758 0.46827 0.0
O2387 O 0.95171 0.41941 0.46246 0.0
H2388 H 0.94497 0.41472 0.48699 0.0
H2389 H 0.94344 0.42126 0.50134 0.0
H2390 H 0.91566 0.41984 0.49893 0.0
H2391 H 0.91727 0.41311 0.48476 0.0
H2392 H 0.91723 0.37915 0.45092 0.0
H2393 H 0.92894 0.38742 0.45761 0.0
H2394 H 0.92204 0.39206 0.42666 0.0
H2395 H 0.93369 0.40032 0.43337 0.0
H2396 H 0.97664 0.41057 0.442 0.0
H2397 H 0.98566 0.42743 0.4623 0.0
H2398 H 0.97212 0.42523 0.47011 0.0
H2399 H 0.9631 0.4083 0.44998 0.0
C2400 C 0.87818 0.35981 0.80539 0.0
C2401 C 0.87378 0.3528 0.8017 0.0
C2402 C 0.87019 0.36153 0.78904 0.0
C2403 C 0.86983 0.35365 0.79359 0.0
C2404 C 0.87465 0.36851 0.79279 0.0
C2405 C 0.8786 0.36764 0.80087 0.0
U2406 U 0.88365 0.34745 0.82623 0.0
O2407 O 0.89577 0.34714 0.83366 0.0
O2408 O 0.88393 0.35209 0.83967 0.0
C2409 C 0.8923 0.35089 0.84044 0.0
C2410 C 0.88232 0.35912 0.81394 0.0
C2411 C 0.89722 0.3581 0.84427 0.0
C2412 C 0.90533 0.37153 0.84308 0.0
C2413 C 0.90061 0.36483 0.83921 0.0
C2414 C 0.90325 0.36487 0.85708 0.0
C2415 C 0.90669 0.37164 0.85208 0.0
C2416 C 0.89858 0.35819 0.85322 0.0
C2417 C 0.87503 0.32418 0.82907 0.0
C2418 C 0.87744 0.31511 0.84169 0.0
C2419 C 0.86905 0.30968 0.82967 0.0
C2420 C 0.87024 0.3175 0.82531 0.0
C2421 C 0.87265 0.30836 0.83792 0.0
C2422 C 0.87863 0.32296 0.8373 0.0
C2423 C 0.87613 0.33234 0.82426 0.0
O2424 O 0.87704 0.35871 0.82057 0.0
O2425 O 0.88879 0.35365 0.81451 0.0
O2426 O 0.88399 0.33403 0.82153 0.0
O2427 O 0.87219 0.33912 0.82748 0.0
H2428 H 0.87336 0.3467 0.80511 0.0
H2429 H 0.86638 0.34818 0.79095 0.0
H2430 H 0.87518 0.37462 0.78943 0.0
H2431 H 0.88199 0.37312 0.80361 0.0
H2432 H 0.90782 0.37667 0.83905 0.0
H2433 H 0.89961 0.3649 0.83229 0.0
H2434 H 0.90427 0.36468 0.864 0.0
H2435 H 0.89604 0.35305 0.85723 0.0
H2436 H 0.88037 0.3143 0.84799 0.0
H2437 H 0.86521 0.3047 0.82662 0.0
H2438 H 0.86738 0.31834 0.81898 0.0
H2439 H 0.88236 0.32806 0.8403 0.0
C2440 C 0.93103 0.62718 0.0557 0.0
C2441 C 0.9383 0.6255 0.05054 0.0
C2442 C 0.9291 0.6193 0.03931 0.0
C2443 C 0.93734 0.62161 0.04242 0.0
C2444 C 0.92188 0.62091 0.04459 0.0
C2445 C 0.92284 0.62481 0.05268 0.0
U2446 U 0.94348 0.63324 0.07637 0.0
O2447 O 0.94374 0.64557 0.08344 0.0
O2448 O 0.93886 0.63389 0.08981 0.0
C2449 C 0.94007 0.64228 0.09035 0.0
C2450 C 0.93179 0.63148 0.06418 0.0
C2451 C 0.93292 0.64732 0.09412 0.0
C2452 C 0.91851 0.65359 0.09344 0.0
C2453 C 0.92516 0.64873 0.08965 0.0
C2454 C 0.92733 0.65566 0.10618 0.0
C2455 C 0.91952 0.65714 0.10176 0.0
C2456 C 0.93394 0.65081 0.10239 0.0
C2457 C 0.96689 0.62507 0.07941 0.0
C2458 C 0.97503 0.62426 0.09285 0.0
C2459 C 0.98241 0.6226 0.07917 0.0
C2460 C 0.97457 0.62371 0.07482 0.0
C2461 C 0.98275 0.62282 0.08825 0.0
C2462 C 0.96717 0.6254 0.08847 0.0
C2463 C 0.9587 0.62589 0.07459 0.0
O2464 O 0.93227 0.62635 0.07092 0.0
O2465 O 0.93715 0.63805 0.06459 0.0
O2466 O 0.95688 0.63362 0.07156 0.0
O2467 O 0.95195 0.62194 0.0779 0.0
H2468 H 0.9447 0.62726 0.05276 0.0
H2469 H 0.94305 0.62055 0.03852 0.0
H2470 H 0.91545 0.61908 0.04252 0.0
H2471 H 0.91715 0.626 0.05658 0.0
H2472 H 0.91262 0.65466 0.08981 0.0
H2473 H 0.92426 0.64609 0.08323 0.0
H2474 H 0.9283 0.65814 0.11264 0.0
H2475 H 0.93988 0.64977 0.10596 0.0
H2476 H 0.97507 0.62456 0.09983 0.0
H2477 H 0.98819 0.6214 0.07542 0.0
H2478 H 0.97449 0.6234 0.06783 0.0
H2479 H 0.96133 0.62649 0.09215 0.0
C2480 C 0.663 0.68147 0.30547 0.0
C2481 C 0.66622 0.68872 0.30106 0.0
C2482 C 0.67116 0.67953 0.28923 0.0
C2483 C 0.67024 0.68776 0.293 0.0
C2484 C 0.66793 0.67231 0.29372 0.0
C2485 C 0.66389 0.67328 0.30174 0.0
U2486 U 0.65732 0.69391 0.32621 0.0
O2487 O 0.64498 0.69448 0.3333 0.0
O2488 O 0.65654 0.68922 0.3396 0.0
C2489 C 0.64818 0.69061 0.34015 0.0
C2490 C 0.65868 0.68228 0.31392 0.0
C2491 C 0.64298 0.6835 0.34379 0.0
C2492 C 0.63891 0.66832 0.34456 0.0
C2493 C 0.64367 0.675 0.3407 0.0
C2494 C 0.63261 0.67859 0.35452 0.0
C2495 C 0.63337 0.67002 0.35159 0.0
C2496 C 0.63737 0.68524 0.35067 0.0
C2497 C 0.66643 0.71693 0.32939 0.0
C2498 C 0.66414 0.72585 0.34212 0.0
C2499 C 0.67272 0.73129 0.33023 0.0
C2500 C 0.67137 0.72357 0.32574 0.0
C2501 C 0.66916 0.73253 0.3385 0.0
C2502 C 0.6628 0.7181 0.33761 0.0
C2503 C 0.66525 0.70885 0.32451 0.0
O2504 O 0.6638 0.68252 0.32068 0.0
O2505 O 0.65233 0.6879 0.31435 0.0
O2506 O 0.65743 0.70736 0.32156 0.0
O2507 O 0.66894 0.70194 0.3278 0.0
H2508 H 0.66563 0.69511 0.30385 0.0
H2509 H 0.67273 0.69345 0.28977 0.0
H2510 H 0.66842 0.6659 0.29097 0.0
H2511 H 0.66144 0.66761 0.30503 0.0
H2512 H 0.63971 0.6618 0.34218 0.0
H2513 H 0.64797 0.67353 0.33538 0.0
H2514 H 0.62831 0.68018 0.3598 0.0
H2515 H 0.63671 0.69176 0.35313 0.0
H2516 H 0.66137 0.72655 0.3485 0.0
H2517 H 0.67649 0.73632 0.32717 0.0
H2518 H 0.67419 0.7228 0.31939 0.0
H2519 H 0.65898 0.71303 0.34055 0.0
C2520 C 0.60969 0.41328 0.55559 0.0
C2521 C 0.60251 0.41704 0.55151 0.0
C2522 C 0.61146 0.42116 0.53917 0.0
C2523 C 0.60339 0.42094 0.54338 0.0
C2524 C 0.61863 0.41741 0.54335 0.0
C2525 C 0.61774 0.41352 0.55146 0.0
U2526 U 0.59756 0.40789 0.57663 0.0
O2527 O 0.59697 0.39558 0.58378 0.0
O2528 O 0.60254 0.40705 0.58991 0.0
C2529 C 0.60102 0.39873 0.59053 0.0
C2530 C 0.60897 0.40904 0.56409 0.0
C2531 C 0.60811 0.39341 0.59405 0.0
C2532 C 0.62301 0.38836 0.59391 0.0
C2533 C 0.61633 0.39328 0.59023 0.0
C2534 C 0.61328 0.3836 0.60519 0.0
C2535 C 0.62157 0.38347 0.60146 0.0
C2536 C 0.60664 0.38851 0.60152 0.0
C2537 C 0.57471 0.41724 0.58042 0.0
C2538 C 0.56366 0.41201 0.59032 0.0
C2539 C 0.56238 0.42629 0.58406 0.0
C2540 C 0.57014 0.42502 0.5796 0.0
C2541 C 0.559 0.41979 0.58944 0.0
C2542 C 0.57145 0.41076 0.58588 0.0
C2543 C 0.58268 0.416 0.57532 0.0
O2544 O 0.60891 0.41421 0.57081 0.0
O2545 O 0.60326 0.40278 0.56466 0.0
O2546 O 0.58405 0.40821 0.57224 0.0
O2547 O 0.5897 0.41964 0.5784 0.0
H2548 H 0.59624 0.41693 0.5546 0.0
H2549 H 0.59772 0.42368 0.54033 0.0
H2550 H 0.62497 0.41758 0.54041 0.0
H2551 H 0.62337 0.41069 0.55452 0.0
H2552 H 0.62928 0.38835 0.59082 0.0
H2553 H 0.61759 0.39701 0.58444 0.0
H2554 H 0.61195 0.38005 0.61107 0.0
H2555 H 0.60034 0.38856 0.60458 0.0
H2556 H 0.56129 0.40691 0.59448 0.0
H2557 H 0.55894 0.43231 0.58314 0.0
H2558 H 0.57252 0.4301 0.57541 0.0
H2559 H 0.57489 0.40471 0.58665 0.0
C2560 C 0.73528 0.87772 0.68099 0.0
C2561 C 0.73773 0.87084 0.68638 0.0
C2562 C 0.75169 0.86985 0.67907 0.0
C2563 C 0.74585 0.86694 0.68543 0.0
C2564 C 0.74922 0.87684 0.67379 0.0
C2565 C 0.7411 0.88071 0.67474 0.0
U2566 U 0.71415 0.88283 0.69306 0.0
O2567 O 0.70658 0.89486 0.69335 0.0
O2568 O 0.70077 0.88303 0.68818 0.0
C2569 C 0.6999 0.89138 0.68944 0.0
C2570 C 0.72666 0.88175 0.68162 0.0
C2571 C 0.69608 0.89636 0.68224 0.0
C2572 C 0.6973 0.90578 0.66969 0.0
C2573 C 0.70119 0.90088 0.67626 0.0
C2574 C 0.68318 0.90158 0.67493 0.0
C2575 C 0.68823 0.90625 0.66898 0.0
C2576 C 0.68707 0.89671 0.68148 0.0
C2577 C 0.71105 0.87404 0.71623 0.0
C2578 C 0.69845 0.87665 0.72527 0.0
C2579 C 0.71022 0.86784 0.73064 0.0
C2580 C 0.71464 0.86902 0.72286 0.0
C2581 C 0.70208 0.87166 0.73198 0.0
C2582 C 0.70291 0.87784 0.71747 0.0
C2583 C 0.71596 0.87521 0.70816 0.0
O2584 O 0.72006 0.87641 0.68187 0.0
O2585 O 0.72594 0.88816 0.68712 0.0
O2586 O 0.71865 0.8831 0.70654 0.0
O2587 O 0.71287 0.87129 0.70131 0.0
H2588 H 0.73333 0.86844 0.69126 0.0
H2589 H 0.74748 0.86153 0.68956 0.0
H2590 H 0.75358 0.87936 0.66894 0.0
H2591 H 0.73935 0.88604 0.67054 0.0
H2592 H 0.7014 0.90933 0.66527 0.0
H2593 H 0.70817 0.90068 0.67671 0.0
H2594 H 0.6762 0.90163 0.6745 0.0
H2595 H 0.68301 0.89324 0.686 0.0
H2596 H 0.69224 0.87975 0.72611 0.0
H2597 H 0.71315 0.86385 0.73558 0.0
H2598 H 0.72091 0.86601 0.72201 0.0
H2599 H 0.70003 0.88174 0.71242 0.0
C2600 C 0.23541 0.66315 0.35978 0.0
C2601 C 0.23865 0.66845 0.35317 0.0
C2602 C 0.25174 0.67117 0.36156 0.0
C2603 C 0.24674 0.67242 0.35405 0.0
C2604 C 0.24846 0.66578 0.36811 0.0
C2605 C 0.24038 0.66182 0.36722 0.0
U2606 U 0.21447 0.65754 0.34757 0.0
O2607 O 0.20704 0.64543 0.34754 0.0
O2608 O 0.20105 0.65733 0.35237 0.0
C2609 C 0.20033 0.64893 0.3514 0.0
C2610 C 0.22684 0.65904 0.35913 0.0
C2611 C 0.1966 0.64413 0.35878 0.0
C2612 C 0.1977 0.63373 0.37057 0.0
C2613 C 0.20156 0.63846 0.36386 0.0
C2614 C 0.18393 0.64039 0.36731 0.0
C2615 C 0.18883 0.63463 0.37236 0.0
C2616 C 0.18777 0.64507 0.3606 0.0
C2617 C 0.21146 0.66568 0.32414 0.0
C2618 C 0.19816 0.66499 0.31578 0.0
C2619 C 0.21141 0.66974 0.30897 0.0
C2620 C 0.21582 0.66861 0.31677 0.0
C2621 C 0.20251 0.66796 0.30836 0.0
C2622 C 0.2026 0.66384 0.3236 0.0
C2623 C 0.21631 0.66475 0.33229 0.0
O2624 O 0.22022 0.66434 0.35864 0.0
O2625 O 0.22625 0.65249 0.35377 0.0
O2626 O 0.21908 0.65693 0.33413 0.0
O2627 O 0.21314 0.66882 0.33902 0.0
H2628 H 0.23489 0.66956 0.34737 0.0
H2629 H 0.24902 0.67659 0.34891 0.0
H2630 H 0.25216 0.66455 0.37391 0.0
H2631 H 0.238 0.65773 0.37238 0.0
H2632 H 0.20168 0.62943 0.37439 0.0
H2633 H 0.2084 0.63764 0.36263 0.0
H2634 H 0.17707 0.64117 0.36844 0.0
H2635 H 0.1838 0.64937 0.35675 0.0
H2636 H 0.19133 0.66347 0.31553 0.0
H2637 H 0.21495 0.67216 0.30344 0.0
H2638 H 0.22265 0.6701 0.31706 0.0
H2639 H 0.19912 0.66155 0.32923 0.0
C2640 C 0.62774 0.98506 0.60998 0.0
C2641 C 0.62291 0.98862 0.60318 0.0
C2642 C 0.61975 1.0014 0.61188 0.0
C2643 C 0.61896 0.99673 0.60412 0.0
C2644 C 0.62465 0.99778 0.61864 0.0
C2645 C 0.62859 0.98971 0.61769 0.0
U2646 U 0.63324 0.96435 0.59745 0.0
O2647 O 0.64542 0.95699 0.59705 0.0
O2648 O 0.63364 0.95087 0.60199 0.0
C2649 C 0.642 0.95014 0.60073 0.0
C2650 C 0.6319 0.97653 0.6092 0.0
C2651 C 0.64699 0.94626 0.60786 0.0
C2652 C 0.6533 0.94681 0.62225 0.0
C2653 C 0.64862 0.95076 0.61556 0.0
C2654 C 0.65477 0.93388 0.61361 0.0
C2655 C 0.6564 0.93829 0.62138 0.0
C2656 C 0.65012 0.93782 0.60694 0.0
C2657 C 0.62463 0.96165 0.57419 0.0
C2658 C 0.62667 0.94886 0.56529 0.0
C2659 C 0.6191 0.96128 0.5595 0.0
C2660 C 0.62026 0.96562 0.56733 0.0
C2661 C 0.6223 0.95285 0.55836 0.0
C2662 C 0.62783 0.95323 0.57314 0.0
C2663 C 0.62568 0.96641 0.58236 0.0
O2664 O 0.62664 0.96988 0.60875 0.0
O2665 O 0.63835 0.97604 0.60371 0.0
O2666 O 0.63352 0.96919 0.58407 0.0
O2667 O 0.62177 0.96311 0.58913 0.0
H2668 H 0.62217 0.98512 0.59718 0.0
H2669 H 0.61517 0.99926 0.59881 0.0
H2670 H 0.62552 1.00124 0.62465 0.0
H2671 H 0.63232 0.98708 0.623 0.0
H2672 H 0.65437 0.95038 0.62817 0.0
H2673 H 0.64623 0.95728 0.61639 0.0
H2674 H 0.65716 0.92737 0.61265 0.0
H2675 H 0.64895 0.93425 0.60104 0.0
H2676 H 0.62929 0.94241 0.56461 0.0
H2677 H 0.61559 0.96451 0.55438 0.0
H2678 H 0.61771 0.9721 0.56804 0.0
H2679 H 0.63124 0.95006 0.57837 0.0
C2680 C 0.30546 0.37814 0.85965 0.0
C2681 C 0.30252 0.37222 0.85344 0.0
C2682 C 0.28909 0.37019 0.86149 0.0
C2683 C 0.29441 0.36829 0.85435 0.0
C2684 C 0.29206 0.37621 0.86761 0.0
C2685 C 0.30015 0.38013 0.8667 0.0
U2686 U 0.32656 0.38324 0.84754 0.0
O2687 O 0.33415 0.39526 0.84726 0.0
O2688 O 0.33994 0.38339 0.85243 0.0
C2689 C 0.3408 0.39175 0.85122 0.0
C2690 C 0.31406 0.38218 0.859 0.0
C2691 C 0.34454 0.39666 0.85848 0.0
C2692 C 0.3432 0.40619 0.87092 0.0
C2693 C 0.33938 0.40142 0.86424 0.0
C2694 C 0.35734 0.40142 0.86626 0.0
C2695 C 0.35224 0.40625 0.87202 0.0
C2696 C 0.35353 0.39669 0.85958 0.0
C2697 C 0.32969 0.37434 0.82443 0.0
C2698 C 0.34232 0.37678 0.8154 0.0
C2699 C 0.33063 0.36779 0.8102 0.0
C2700 C 0.32614 0.36917 0.81791 0.0
C2701 C 0.33879 0.37156 0.80883 0.0
C2702 C 0.33781 0.37815 0.82314 0.0
C2703 C 0.32476 0.3756 0.83248 0.0
O2704 O 0.32065 0.37683 0.85876 0.0
O2705 O 0.31476 0.38857 0.85346 0.0
O2706 O 0.32211 0.38351 0.83404 0.0
O2707 O 0.32782 0.37168 0.83936 0.0
H2708 H 0.30654 0.37059 0.84795 0.0
H2709 H 0.29239 0.36363 0.84956 0.0
H2710 H 0.2881 0.37795 0.8731 0.0
H2711 H 0.30229 0.3847 0.87153 0.0
H2712 H 0.33907 0.40976 0.87529 0.0
H2713 H 0.33242 0.40146 0.86355 0.0
H2714 H 0.36431 0.40139 0.86684 0.0
H2715 H 0.35764 0.3931 0.8552 0.0
H2716 H 0.34862 0.37972 0.8146 0.0
H2717 H 0.32765 0.36386 0.80526 0.0
H2718 H 0.31986 0.3662 0.81878 0.0
H2719 H 0.34066 0.38214 0.82812 0.0
C2720 C 0.4137 0.55603 0.60954 0.0
C2721 C 0.41581 0.55116 0.60219 0.0
C2722 C 0.42168 0.53966 0.61128 0.0
C2723 C 0.41974 0.54304 0.60305 0.0
C2724 C 0.41957 0.54461 0.6186 0.0
C2725 C 0.41562 0.55269 0.61773 0.0
U2726 U 0.40774 0.57687 0.59727 0.0
O2727 O 0.39556 0.5842 0.59727 0.0
O2728 O 0.40745 0.59031 0.60198 0.0
C2729 C 0.39904 0.59098 0.601 0.0
C2730 C 0.40947 0.56456 0.60886 0.0
C2731 C 0.39425 0.59477 0.60834 0.0
C2732 C 0.38485 0.5935 0.6209 0.0
C2733 C 0.38958 0.58964 0.6142 0.0
C2734 C 0.38952 0.60762 0.61604 0.0
C2735 C 0.38476 0.60255 0.6219 0.0
C2736 C 0.39419 0.60376 0.60934 0.0
C2737 C 0.4158 0.57988 0.57379 0.0
C2738 C 0.417 0.59331 0.56566 0.0
C2739 C 0.41845 0.5796 0.55831 0.0
C2740 C 0.41713 0.57526 0.56613 0.0
C2741 C 0.41849 0.58868 0.55797 0.0
C2742 C 0.41566 0.58895 0.5735 0.0
C2743 C 0.4149 0.57506 0.58197 0.0
O2744 O 0.41469 0.57123 0.60835 0.0
O2745 O 0.40286 0.56509 0.60356 0.0
O2746 O 0.40711 0.57222 0.58383 0.0
O2747 O 0.41898 0.57823 0.5887 0.0
H2748 H 0.41442 0.55365 0.59579 0.0
H2749 H 0.42136 0.53945 0.59728 0.0
H2750 H 0.42087 0.54217 0.62503 0.0
H2751 H 0.41403 0.55633 0.62348 0.0
H2752 H 0.38134 0.5894 0.62535 0.0
H2753 H 0.38955 0.58268 0.61358 0.0
H2754 H 0.38952 0.61459 0.61654 0.0
H2755 H 0.39772 0.60784 0.60488 0.0
H2756 H 0.41705 0.6003 0.56567 0.0
H2757 H 0.4194 0.57581 0.55252 0.0
H2758 H 0.41723 0.56826 0.5662 0.0
H2759 H 0.41464 0.59265 0.57934 0.0
C2760 C 0.80562 0.16267 0.18107 0.0
C2761 C 0.80238 0.16804 0.18761 0.0
C2762 C 0.78928 0.17066 0.17918 0.0
C2763 C 0.79427 0.172 0.18667 0.0
C2764 C 0.79257 0.16521 0.1727 0.0
C2765 C 0.80066 0.16127 0.17364 0.0
U2766 U 0.82648 0.15731 0.19348 0.0
O2767 O 0.83375 0.14507 0.19404 0.0
O2768 O 0.83989 0.15672 0.18881 0.0
C2769 C 0.84056 0.14837 0.1902 0.0
C2770 C 0.81416 0.1585 0.18184 0.0
C2771 C 0.84428 0.14323 0.18309 0.0
C2772 C 0.84475 0.13879 0.16803 0.0
C2773 C 0.84086 0.14352 0.1747 0.0
C2774 C 0.85541 0.13334 0.1781 0.0
C2775 C 0.85213 0.13369 0.16963 0.0
C2776 C 0.85153 0.13806 0.18474 0.0
C2777 C 0.82949 0.16622 0.21657 0.0
C2778 C 0.84246 0.16449 0.22529 0.0
C2779 C 0.82989 0.1716 0.2313 0.0
C2780 C 0.82548 0.17039 0.22352 0.0
C2781 C 0.83844 0.16866 0.23231 0.0
C2782 C 0.83801 0.16327 0.21749 0.0
C2783 C 0.82463 0.16509 0.20846 0.0
O2784 O 0.82083 0.16374 0.18212 0.0
O2785 O 0.81469 0.15214 0.18743 0.0
O2786 O 0.82177 0.15726 0.2069 0.0
O2787 O 0.8279 0.16888 0.20159 0.0
H2788 H 0.80613 0.16921 0.19339 0.0
H2789 H 0.79199 0.17621 0.19176 0.0
H2790 H 0.78887 0.16392 0.16691 0.0
H2791 H 0.80304 0.15712 0.16854 0.0
H2792 H 0.84209 0.13927 0.16158 0.0
H2793 H 0.83526 0.14748 0.1733 0.0
H2794 H 0.86098 0.12938 0.17962 0.0
H2795 H 0.85424 0.13772 0.19118 0.0
H2796 H 0.849 0.16207 0.22586 0.0
H2797 H 0.82664 0.17495 0.2365 0.0
H2798 H 0.81891 0.17274 0.22292 0.0
H2799 H 0.84121 0.16002 0.21219 0.0
C2800 C 0.62786 0.05546 0.93113 0.0
C2801 C 0.62227 0.05233 0.93755 0.0
C2802 C 0.61988 0.03912 0.92925 0.0
C2803 C 0.61832 0.04423 0.93662 0.0
C2804 C 0.62556 0.0423 0.9229 0.0
C2805 C 0.62949 0.05038 0.92384 0.0
U2806 U 0.63314 0.07637 0.94345 0.0
O2807 O 0.64525 0.08382 0.94382 0.0
O2808 O 0.63345 0.0898 0.93873 0.0
C2809 C 0.64181 0.09059 0.94002 0.0
C2810 C 0.63196 0.06403 0.93185 0.0
C2811 C 0.64678 0.09443 0.93285 0.0
C2812 C 0.65452 0.09333 0.9192 0.0
C2813 C 0.64976 0.08946 0.92588 0.0
C2814 C 0.65331 0.10717 0.92637 0.0
C2815 C 0.65632 0.10226 0.91935 0.0
C2816 C 0.6486 0.10329 0.93303 0.0
C2817 C 0.62436 0.07935 0.9666 0.0
C2818 C 0.62749 0.09161 0.97592 0.0
C2819 C 0.61769 0.08043 0.98077 0.0
C2820 C 0.61886 0.07603 0.97297 0.0
C2821 C 0.62202 0.08826 0.98238 0.0
C2822 C 0.62866 0.08719 0.96809 0.0
C2823 C 0.6255 0.07448 0.95851 0.0
O2824 O 0.62666 0.07066 0.93218 0.0
O2825 O 0.63837 0.06462 0.93738 0.0
O2826 O 0.63337 0.07172 0.95689 0.0
O2827 O 0.62161 0.07766 0.95167 0.0
H2828 H 0.62092 0.05617 0.94323 0.0
H2829 H 0.61393 0.04204 0.94159 0.0
H2830 H 0.62703 0.03851 0.91721 0.0
H2831 H 0.63382 0.05268 0.91883 0.0
H2832 H 0.65666 0.08937 0.91386 0.0
H2833 H 0.6484 0.0826 0.92561 0.0
H2834 H 0.65467 0.11402 0.92677 0.0
H2835 H 0.64638 0.10724 0.93837 0.0
H2836 H 0.63099 0.09757 0.97696 0.0
H2837 H 0.61332 0.07772 0.98551 0.0
H2838 H 0.61545 0.07001 0.97192 0.0
H2839 H 0.63294 0.08985 0.96324 0.0
C2840 C 0.91281 0.98563 0.43159 0.0
C2841 C 0.91989 0.98786 0.4368 0.0
C2842 C 0.9206 1.0021 0.43001 0.0
C2843 C 0.92377 0.99601 0.436 0.0
C2844 C 0.91342 0.99985 0.42491 0.0
C2845 C 0.90959 0.9917 0.42569 0.0
U2846 U 0.90741 0.96441 0.44341 0.0
O2847 O 0.89539 0.95683 0.44332 0.0
O2848 O 0.90738 0.95105 0.43847 0.0
C2849 C 0.899 0.95018 0.43947 0.0
C2850 C 0.9088 0.97699 0.43206 0.0
C2851 C 0.89425 0.94642 0.4321 0.0
C2852 C 0.8851 0.94774 0.41936 0.0
C2853 C 0.88978 0.95158 0.42611 0.0
C2854 C 0.88941 0.93359 0.42444 0.0
C2855 C 0.88486 0.93869 0.41845 0.0
C2856 C 0.89404 0.93742 0.43119 0.0
C2857 C 0.91552 0.96128 0.46689 0.0
C2858 C 0.91726 0.94784 0.47491 0.0
C2859 C 0.91783 0.96153 0.48242 0.0
C2860 C 0.91645 0.96588 0.47462 0.0
C2861 C 0.91834 0.95246 0.48268 0.0
C2862 C 0.91586 0.95221 0.46709 0.0
C2863 C 0.91452 0.96615 0.45874 0.0
O2864 O 0.91414 0.97039 0.43243 0.0
O2865 O 0.90221 0.97622 0.43735 0.0
O2866 O 0.90668 0.96885 0.45691 0.0
O2867 O 0.91867 0.96314 0.45198 0.0
H2868 H 0.92246 0.98329 0.44144 0.0
H2869 H 0.92921 0.99757 0.44011 0.0
H2870 H 0.91087 1.00433 0.42017 0.0
H2871 H 0.90414 0.9901 0.4216 0.0
H2872 H 0.88175 0.95187 0.41481 0.0
H2873 H 0.88987 0.95855 0.42667 0.0
H2874 H 0.88928 0.92661 0.42402 0.0
H2875 H 0.89741 0.93332 0.43576 0.0
H2876 H 0.91767 0.94086 0.47484 0.0
H2877 H 0.91846 0.9653 0.48827 0.0
H2878 H 0.91618 0.97287 0.47461 0.0
H2879 H 0.91515 0.94853 0.46119 0.0
C2880 C 0.36016 0.30629 0.16401 0.0
C2881 C 0.35626 0.30449 0.172 0.0
C2882 C 0.36215 0.28985 0.17181 0.0
C2883 C 0.35727 0.29636 0.17588 0.0
C2884 C 0.36591 0.29165 0.16373 0.0
C2885 C 0.36493 0.29979 0.1599 0.0
U2886 U 0.34821 0.32756 0.15904 0.0
O2887 O 0.35318 0.34088 0.15866 0.0
O2888 O 0.34773 0.33507 0.14696 0.0
C2889 C 0.35169 0.34176 0.15035 0.0
C2890 C 0.35952 0.31491 0.15994 0.0
C2891 C 0.35876 0.34557 0.14523 0.0
C2892 C 0.37244 0.34452 0.13754 0.0
C2893 C 0.36582 0.34064 0.14237 0.0
C2894 C 0.36501 0.35826 0.1384 0.0
C2895 C 0.37213 0.3534 0.13553 0.0
C2896 C 0.35841 0.35438 0.14319 0.0
C2897 C 0.32532 0.33114 0.16832 0.0
C2898 C 0.31466 0.34167 0.16349 0.0
C2899 C 0.31259 0.33411 0.17702 0.0
C2900 C 0.32036 0.32968 0.17574 0.0
C2901 C 0.30958 0.34011 0.17087 0.0
C2902 C 0.32247 0.33724 0.16223 0.0
C2903 C 0.33328 0.32605 0.16701 0.0
O2904 O 0.35389 0.31567 0.15363 0.0
O2905 O 0.35953 0.32157 0.1652 0.0
O2906 O 0.34028 0.32901 0.17078 0.0
O2907 O 0.33469 0.32321 0.15914 0.0
H2908 H 0.35248 0.30938 0.17528 0.0
H2909 H 0.35419 0.29515 0.18204 0.0
H2910 H 0.36977 0.28683 0.16046 0.0
H2911 H 0.36801 0.30104 0.15374 0.0
H2912 H 0.37787 0.34061 0.1355 0.0
H2913 H 0.36622 0.33383 0.14391 0.0
H2914 H 0.36448 0.36507 0.13686 0.0
H2915 H 0.353 0.35829 0.14531 0.0
H2916 H 0.31253 0.34618 0.15858 0.0
H2917 H 0.30895 0.33285 0.18286 0.0
H2918 H 0.32247 0.32504 0.18054 0.0
H2919 H 0.32621 0.33848 0.15645 0.0
C2920 C 0.48433 0.61046 0.91375 0.0
C2921 C 0.48662 0.60556 0.92103 0.0
C2922 C 0.5007 0.6127 0.92162 0.0
C2923 C 0.49472 0.60668 0.92494 0.0
C2924 C 0.49839 0.61747 0.91422 0.0
C2925 C 0.4903 0.61636 0.91035 0.0
U2926 U 0.46332 0.59815 0.90858 0.0
O2927 O 0.4499 0.60291 0.90826 0.0
O2928 O 0.45586 0.59776 0.89649 0.0
C2929 C 0.4491 0.60158 0.89992 0.0
C2930 C 0.47572 0.60971 0.9097 0.0
C2931 C 0.44522 0.60868 0.89487 0.0
C2932 C 0.44632 0.62185 0.88632 0.0
C2933 C 0.45023 0.61534 0.89129 0.0
C2934 C 0.43237 0.61516 0.88856 0.0
C2935 C 0.43733 0.62182 0.88485 0.0
C2936 C 0.43627 0.60868 0.8935 0.0
C2937 C 0.46023 0.57495 0.91725 0.0
C2938 C 0.44669 0.56698 0.91796 0.0
C2939 C 0.46024 0.55957 0.92045 0.0
C2940 C 0.46471 0.56731 0.91913 0.0
C2941 C 0.45116 0.55929 0.91995 0.0
C2942 C 0.45118 0.57473 0.91661 0.0
C2943 C 0.46516 0.58304 0.91616 0.0
O2944 O 0.4751 0.60419 0.90329 0.0
O2945 O 0.4691 0.60941 0.915 0.0
O2946 O 0.46206 0.5899 0.92008 0.0
O2947 O 0.46795 0.58468 0.90832 0.0
H2948 H 0.48212 0.60095 0.92375 0.0
H2949 H 0.49623 0.60295 0.93066 0.0
H2950 H 0.50286 0.62204 0.91139 0.0
H2951 H 0.48867 0.62018 0.9047 0.0
H2952 H 0.45035 0.62684 0.88353 0.0
H2953 H 0.45716 0.61547 0.89228 0.0
H2954 H 0.42542 0.615 0.88772 0.0
H2955 H 0.43228 0.60362 0.89623 0.0
H2956 H 0.43971 0.56703 0.91758 0.0
H2957 H 0.46393 0.55377 0.9218 0.0
H2958 H 0.47169 0.56733 0.91961 0.0
H2959 H 0.44759 0.58056 0.91515 0.0
C2960 C 0.18067 0.73489 0.66362 0.0
C2961 C 0.18622 0.73749 0.6703 0.0
C2962 C 0.17858 0.75127 0.67147 0.0
C2963 C 0.18518 0.7456 0.67419 0.0
C2964 C 0.17314 0.74864 0.66468 0.0
C2965 C 0.17417 0.74054 0.66082 0.0
U2966 U 0.19288 0.71376 0.65875 0.0
O2967 O 0.188 0.70039 0.65848 0.0
O2968 O 0.19339 0.70621 0.64673 0.0
C2969 C 0.18946 0.6995 0.65017 0.0
C2970 C 0.1814 0.72627 0.65961 0.0
C2971 C 0.18242 0.69561 0.64507 0.0
C2972 C 0.16947 0.69668 0.6362 0.0
C2973 C 0.17593 0.70063 0.64118 0.0
C2974 C 0.17585 0.68269 0.63905 0.0
C2975 C 0.16937 0.68765 0.63503 0.0
C2976 C 0.18229 0.68663 0.644 0.0
C2977 C 0.21581 0.71036 0.66788 0.0
C2978 C 0.22549 0.69862 0.66392 0.0
C2979 C 0.22928 0.70819 0.67567 0.0
C2980 C 0.2216 0.71278 0.67439 0.0
C2981 C 0.23135 0.70106 0.67043 0.0
C2982 C 0.21778 0.70321 0.66267 0.0
C2983 C 0.20784 0.71544 0.66662 0.0
O2984 O 0.18705 0.72557 0.65331 0.0
O2985 O 0.18155 0.71967 0.66495 0.0
O2986 O 0.20088 0.71244 0.67044 0.0
O2987 O 0.20637 0.71821 0.65873 0.0
H2988 H 0.19128 0.73322 0.67256 0.0
H2989 H 0.18944 0.74736 0.67945 0.0
H2990 H 0.16809 0.75286 0.66231 0.0
H2991 H 0.16985 0.73866 0.65564 0.0
H2992 H 0.16462 0.70072 0.63315 0.0
H2993 H 0.17591 0.70758 0.64193 0.0
H2994 H 0.1759 0.67572 0.63845 0.0
H2995 H 0.18721 0.68263 0.64698 0.0
H2996 H 0.22683 0.69311 0.65983 0.0
H2997 H 0.23368 0.71033 0.68066 0.0
H2998 H 0.22021 0.71829 0.67847 0.0
H2999 H 0.21336 0.70121 0.65762 0.0
C3000 C 0.05654 0.43075 0.41436 0.0
C3001 C 0.05478 0.43453 0.42241 0.0
C3002 C 0.0401 0.42873 0.42214 0.0
C3003 C 0.04665 0.4335 0.42628 0.0
C3004 C 0.04188 0.42508 0.41402 0.0
C3005 C 0.05001 0.42607 0.41019 0.0
U3006 U 0.07778 0.44274 0.40944 0.0
O3007 O 0.09108 0.43777 0.4088 0.0
O3008 O 0.08514 0.44346 0.39727 0.0
C3009 C 0.09185 0.4394 0.40051 0.0
C3010 C 0.06514 0.43143 0.41026 0.0
C3011 C 0.09555 0.43242 0.3952 0.0
C3012 C 0.096 0.41747 0.39036 0.0
C3013 C 0.09207 0.42404 0.39521 0.0
C3014 C 0.1068 0.42761 0.38536 0.0
C3015 C 0.10347 0.41915 0.38544 0.0
C3016 C 0.10288 0.43415 0.39019 0.0
C3017 C 0.0814 0.46551 0.41894 0.0
C3018 C 0.09243 0.47578 0.41445 0.0
C3019 C 0.0839 0.47859 0.42724 0.0
C3020 C 0.07946 0.47083 0.42599 0.0
C3021 C 0.0904 0.48123 0.42145 0.0
C3022 C 0.08798 0.46799 0.41321 0.0
C3023 C 0.07632 0.45755 0.41762 0.0
O3024 O 0.06584 0.43716 0.40403 0.0
O3025 O 0.07183 0.43134 0.41549 0.0
O3026 O 0.07937 0.45051 0.42125 0.0
O3027 O 0.0734 0.45625 0.40976 0.0
H3028 H 0.05969 0.43823 0.42574 0.0
H3029 H 0.04547 0.43649 0.43248 0.0
H3030 H 0.03703 0.42129 0.41069 0.0
H3031 H 0.05123 0.42309 0.40398 0.0
H3032 H 0.09329 0.41102 0.39063 0.0
H3033 H 0.08641 0.42257 0.39905 0.0
H3034 H 0.11244 0.42919 0.38154 0.0
H3035 H 0.10564 0.44059 0.39007 0.0
H3036 H 0.09734 0.47763 0.40982 0.0
H3037 H 0.08226 0.48252 0.43278 0.0
H3038 H 0.07443 0.46901 0.43051 0.0
H3039 H 0.08959 0.46396 0.40773 0.0
C3040 C 0.36042 0.73451 0.37624 0.0
C3041 C 0.35528 0.73689 0.36916 0.0
C3042 C 0.3623 0.75101 0.36855 0.0
C3043 C 0.35623 0.74505 0.36533 0.0
C3044 C 0.36735 0.7486 0.37572 0.0
C3045 C 0.36642 0.74044 0.37951 0.0
U3046 U 0.3484 0.71328 0.38108 0.0
O3047 O 0.35337 0.69993 0.38134 0.0
O3048 O 0.34793 0.70568 0.39309 0.0
C3049 C 0.35193 0.69902 0.38965 0.0
C3050 C 0.35977 0.72587 0.38023 0.0
C3051 C 0.35903 0.69519 0.39475 0.0
C3052 C 0.37154 0.69637 0.40423 0.0
C3053 C 0.36505 0.70028 0.39923 0.0
C3054 C 0.36612 0.68227 0.40023 0.0
C3055 C 0.37212 0.6873 0.40484 0.0
C3056 C 0.35966 0.68617 0.39526 0.0
C3057 C 0.32544 0.70987 0.37192 0.0
C3058 C 0.31511 0.69892 0.37648 0.0
C3059 C 0.31234 0.70738 0.36362 0.0
C3060 C 0.32012 0.7118 0.36485 0.0
C3061 C 0.30967 0.70093 0.36945 0.0
C3062 C 0.32292 0.70334 0.3777 0.0
C3063 C 0.33342 0.71492 0.3732 0.0
O3064 O 0.35415 0.72509 0.38654 0.0
O3065 O 0.35968 0.71929 0.37488 0.0
O3066 O 0.34039 0.71194 0.36938 0.0
O3067 O 0.33489 0.71768 0.38109 0.0
H3068 H 0.35057 0.73242 0.36656 0.0
H3069 H 0.35216 0.74672 0.35989 0.0
H3070 H 0.37216 0.75297 0.37831 0.0
H3071 H 0.37046 0.73873 0.38496 0.0
H3072 H 0.376 0.70045 0.40773 0.0
H3073 H 0.3647 0.70726 0.39892 0.0
H3074 H 0.36645 0.67528 0.40039 0.0
H3075 H 0.3551 0.68212 0.39183 0.0
H3076 H 0.31324 0.69405 0.38114 0.0
H3077 H 0.30842 0.709 0.35805 0.0
H3078 H 0.32196 0.71678 0.36029 0.0
H3079 H 0.32694 0.70174 0.3832 0.0
C3080 C 0.05709 0.61079 0.12523 0.0
C3081 C 0.05205 0.60356 0.12311 0.0
C3082 C 0.04069 0.61295 0.11742 0.0
C3083 C 0.04392 0.60463 0.11924 0.0
C3084 C 0.04586 0.62015 0.11946 0.0
C3085 C 0.05395 0.61907 0.12333 0.0
U3086 U 0.07778 0.59825 0.13127 0.0
O3087 O 0.09117 0.6029 0.13224 0.0
O3088 O 0.08467 0.59777 0.14373 0.0
C3089 C 0.09157 0.60161 0.14062 0.0
C3090 C 0.06554 0.60992 0.12958 0.0
C3091 C 0.09512 0.60875 0.14585 0.0
C3092 C 0.09683 0.62406 0.14902 0.0
C3093 C 0.09305 0.61742 0.14416 0.0
C3094 C 0.10465 0.61343 0.15743 0.0
C3095 C 0.10272 0.62214 0.1557 0.0
C3096 C 0.1009 0.60682 0.15255 0.0
C3097 C 0.08105 0.57499 0.12276 0.0
C3098 C 0.09451 0.56695 0.12136 0.0
C3099 C 0.08083 0.55945 0.12048 0.0
C3100 C 0.07646 0.56726 0.12173 0.0
C3101 C 0.08991 0.55918 0.12019 0.0
C3102 C 0.09013 0.57478 0.12264 0.0
C3103 C 0.07619 0.58316 0.12365 0.0
O3104 O 0.0659 0.6044 0.13603 0.0
O3105 O 0.07234 0.60955 0.12451 0.0
O3106 O 0.07951 0.58999 0.11986 0.0
O3107 O 0.07304 0.58481 0.13135 0.0
H3108 H 0.05436 0.59711 0.12451 0.0
H3109 H 0.04011 0.59895 0.11783 0.0
H3110 H 0.04367 0.62664 0.11801 0.0
H3111 H 0.05776 0.62473 0.12488 0.0
H3112 H 0.09512 0.63069 0.14758 0.0
H3113 H 0.08856 0.61907 0.13904 0.0
H3114 H 0.10923 0.61171 0.16243 0.0
H3115 H 0.10261 0.60017 0.15394 0.0
H3116 H 0.1015 0.56702 0.12111 0.0
H3117 H 0.07706 0.5536 0.11977 0.0
H3118 H 0.06946 0.56727 0.12183 0.0
H3119 H 0.09382 0.58067 0.12344 0.0
C3120 C 0.18082 0.30623 0.87611 0.0
C3121 C 0.18489 0.30448 0.86819 0.0
C3122 C 0.17887 0.2899 0.86815 0.0
C3123 C 0.1839 0.2964 0.86424 0.0
C3124 C 0.17492 0.29167 0.87613 0.0
C3125 C 0.17588 0.29975 0.88005 0.0
U3126 U 0.19283 0.32739 0.88129 0.0
O3127 O 0.18789 0.34068 0.88206 0.0
O3128 O 0.19352 0.33458 0.89355 0.0
C3129 C 0.18947 0.34134 0.89038 0.0
C3130 C 0.1815 0.31478 0.8803 0.0
C3131 C 0.18245 0.34496 0.89571 0.0
C3132 C 0.16735 0.34579 0.90001 0.0
C3133 C 0.17393 0.3419 0.89515 0.0
C3134 C 0.17776 0.35569 0.90616 0.0
C3135 C 0.16916 0.3528 0.90552 0.0
C3136 C 0.18431 0.35181 0.90131 0.0
C3137 C 0.21566 0.33102 0.8719 0.0
C3138 C 0.22554 0.34251 0.87606 0.0
C3139 C 0.22914 0.33309 0.86412 0.0
C3140 C 0.22138 0.32863 0.86531 0.0
C3141 C 0.23138 0.34005 0.86952 0.0
C3142 C 0.21775 0.33803 0.87724 0.0
C3143 C 0.20768 0.32596 0.87315 0.0
O3144 O 0.1872 0.3154 0.88655 0.0
O3145 O 0.18145 0.32153 0.87514 0.0
O3146 O 0.20066 0.32909 0.86953 0.0
O3147 O 0.20634 0.32297 0.88098 0.0
H3148 H 0.18879 0.30936 0.86505 0.0
H3149 H 0.18711 0.29522 0.85814 0.0
H3150 H 0.17094 0.28685 0.87928 0.0
H3151 H 0.17268 0.30097 0.88615 0.0
H3152 H 0.1608 0.34343 0.8993 0.0
H3153 H 0.17236 0.3366 0.89087 0.0
H3154 H 0.17944 0.36096 0.91044 0.0
H3155 H 0.19085 0.35424 0.90186 0.0
H3156 H 0.22707 0.34778 0.88038 0.0
H3157 H 0.23339 0.3311 0.85893 0.0
H3158 H 0.21986 0.32326 0.86109 0.0
H3159 H 0.21341 0.33997 0.88236 0.0
C3160 C 0.48423 0.43039 0.62587 0.0
C3161 C 0.48734 0.43679 0.62025 0.0
C3162 C 0.50068 0.42862 0.61811 0.0
C3163 C 0.49549 0.4359 0.61639 0.0
C3164 C 0.49749 0.42224 0.62375 0.0
C3165 C 0.48936 0.42313 0.62758 0.0
U3166 U 0.46327 0.44266 0.63137 0.0
O3167 O 0.44992 0.43784 0.63214 0.0
O3168 O 0.45618 0.44311 0.64371 0.0
C3169 C 0.4494 0.43913 0.64052 0.0
C3170 C 0.4757 0.43113 0.63004 0.0
C3171 C 0.44587 0.43195 0.64576 0.0
C3172 C 0.44318 0.41664 0.64827 0.0
C3173 C 0.44701 0.42326 0.6434 0.0
C3174 C 0.4372 0.42729 0.65802 0.0
C3175 C 0.43818 0.41858 0.65562 0.0
C3176 C 0.44099 0.43388 0.65314 0.0
C3177 C 0.45994 0.46586 0.62265 0.0
C3178 C 0.44643 0.47386 0.62149 0.0
C3179 C 0.46007 0.48133 0.61989 0.0
C3180 C 0.46448 0.47355 0.62121 0.0
C3181 C 0.45098 0.48159 0.61993 0.0
C3182 C 0.45087 0.46606 0.62285 0.0
C3183 C 0.46484 0.45773 0.62368 0.0
O3184 O 0.47517 0.43669 0.63641 0.0
O3185 O 0.469 0.43141 0.62482 0.0
O3186 O 0.46163 0.45086 0.61988 0.0
O3187 O 0.46787 0.45614 0.63145 0.0
H3188 H 0.48348 0.44247 0.61888 0.0
H3189 H 0.49778 0.44098 0.61215 0.0
H3190 H 0.50123 0.41649 0.62513 0.0
H3191 H 0.48705 0.4181 0.63188 0.0
H3192 H 0.44415 0.41001 0.64629 0.0
H3193 H 0.45079 0.42159 0.63776 0.0
H3194 H 0.43332 0.42903 0.66357 0.0
H3195 H 0.44 0.44054 0.65506 0.0
H3196 H 0.43944 0.47379 0.62151 0.0
H3197 H 0.4638 0.48716 0.61888 0.0
H3198 H 0.47148 0.47355 0.62107 0.0
H3199 H 0.44722 0.4602 0.62396 0.0
C3200 C 0.16516 0.36085 0.30642 0.0
C3201 C 0.1705 0.35429 0.30315 0.0
C3202 C 0.17303 0.36272 0.29003 0.0
C3203 C 0.17441 0.35523 0.29503 0.0
C3204 C 0.16767 0.36925 0.29339 0.0
C3205 C 0.16379 0.36831 0.30149 0.0
U3206 U 0.15953 0.34839 0.32722 0.0
O3207 O 0.15866 0.35307 0.3406 0.0
O3208 O 0.14714 0.34782 0.33423 0.0
C3209 C 0.15029 0.35171 0.34108 0.0
C3210 C 0.16093 0.36004 0.31491 0.0
C3211 C 0.145 0.35877 0.34472 0.0
C3212 C 0.14216 0.37403 0.34733 0.0
C3213 C 0.14703 0.36751 0.34335 0.0
C3214 C 0.13304 0.36317 0.35393 0.0
C3215 C 0.13516 0.37193 0.35276 0.0
C3216 C 0.13792 0.35668 0.34996 0.0
C3217 C 0.16822 0.32523 0.33056 0.0
C3218 C 0.16909 0.31728 0.34411 0.0
C3219 C 0.17077 0.30973 0.33053 0.0
C3220 C 0.16963 0.31751 0.32607 0.0
C3221 C 0.17055 0.30951 0.33961 0.0
C3222 C 0.16791 0.32507 0.33962 0.0
C3223 C 0.16727 0.33335 0.32562 0.0
O3224 O 0.15455 0.35445 0.31535 0.0
O3225 O 0.16609 0.35971 0.32164 0.0
O3226 O 0.17105 0.34022 0.32887 0.0
O3227 O 0.15953 0.33496 0.32252 0.0
H3228 H 0.17162 0.34846 0.30686 0.0
H3229 H 0.17843 0.35004 0.29261 0.0
H3230 H 0.16655 0.37515 0.2898 0.0
H3231 H 0.1597 0.37345 0.30392 0.0
H3232 H 0.14403 0.38069 0.34634 0.0
H3233 H 0.15246 0.36929 0.33931 0.0
H3234 H 0.12761 0.3613 0.35792 0.0
H3235 H 0.13621 0.34998 0.35108 0.0
H3236 H 0.16879 0.31732 0.35109 0.0
H3237 H 0.17198 0.3039 0.32686 0.0
H3238 H 0.16992 0.3175 0.31908 0.0
H3239 H 0.16678 0.33095 0.34322 0.0
C3240 C 0.43081 0.41444 0.05583 0.0
C3241 C 0.4358 0.42167 0.05359 0.0
C3242 C 0.42891 0.42227 0.03941 0.0
C3243 C 0.43484 0.42557 0.04547 0.0
C3244 C 0.42402 0.41495 0.04167 0.0
C3245 C 0.42496 0.41109 0.04979 0.0
U3246 U 0.44291 0.40907 0.07692 0.0
O3247 O 0.43806 0.40874 0.09029 0.0
O3248 O 0.44315 0.39694 0.08434 0.0
C3249 C 0.43933 0.40039 0.09109 0.0
C3250 C 0.43145 0.41037 0.06444 0.0
C3251 C 0.4322 0.39538 0.09494 0.0
C3252 C 0.41896 0.38696 0.09381 0.0
C3253 C 0.42548 0.39192 0.08993 0.0
C3254 C 0.42575 0.38896 0.10775 0.0
C3255 C 0.41905 0.38537 0.10278 0.0
C3256 C 0.43224 0.39389 0.10387 0.0
C3257 C 0.46621 0.41736 0.08026 0.0
C3258 C 0.47395 0.41964 0.09376 0.0
C3259 C 0.48189 0.41853 0.08034 0.0
C3260 C 0.47413 0.41738 0.07586 0.0
C3261 C 0.48191 0.41972 0.08935 0.0
C3262 C 0.46618 0.41844 0.08927 0.0
C3263 C 0.45813 0.41643 0.07525 0.0
O3264 O 0.43689 0.40388 0.06511 0.0
O3265 O 0.43176 0.41566 0.07107 0.0
O3266 O 0.45129 0.42046 0.07825 0.0
O3267 O 0.45641 0.40864 0.07237 0.0
H3268 H 0.4404 0.42434 0.05814 0.0
H3269 H 0.43878 0.43113 0.0439 0.0
H3270 H 0.41933 0.41229 0.03722 0.0
H3271 H 0.42103 0.40552 0.0514 0.0
H3272 H 0.41393 0.38425 0.08977 0.0
H3273 H 0.42533 0.393 0.08302 0.0
H3274 H 0.42595 0.38803 0.11467 0.0
H3275 H 0.43735 0.39654 0.10786 0.0
H3276 H 0.47374 0.42044 0.1007 0.0
H3277 H 0.48787 0.41865 0.07673 0.0
H3278 H 0.47431 0.41658 0.06891 0.0
H3279 H 0.46016 0.4184 0.09282 0.0
C3280 C 0.37643 0.68123 0.80575 0.0
C3281 C 0.36836 0.68498 0.80392 0.0
C3282 C 0.36869 0.67903 0.78931 0.0
C3283 C 0.36453 0.68387 0.7958 0.0
C3284 C 0.37685 0.67545 0.79115 0.0
C3285 C 0.38066 0.67653 0.79928 0.0
U3286 U 0.38173 0.69326 0.82691 0.0
O3287 O 0.38193 0.68839 0.84028 0.0
O3288 O 0.39381 0.69338 0.8344 0.0
C3289 C 0.39029 0.68959 0.84113 0.0
C3290 C 0.38045 0.68187 0.8144 0.0
C3291 C 0.39519 0.68238 0.84499 0.0
C3292 C 0.40263 0.66855 0.84401 0.0
C3293 C 0.39791 0.67525 0.8401 0.0
C3294 C 0.40193 0.67605 0.8577 0.0
C3295 C 0.40468 0.66886 0.85287 0.0
C3296 C 0.39724 0.68272 0.8538 0.0
C3297 C 0.37348 0.71657 0.83025 0.0
C3298 C 0.37163 0.72427 0.84384 0.0
C3299 C 0.37186 0.73221 0.83036 0.0
C3300 C 0.37301 0.72448 0.82584 0.0
C3301 C 0.37111 0.73221 0.83941 0.0
C3302 C 0.37283 0.71653 0.8393 0.0
C3303 C 0.37442 0.70852 0.82523 0.0
O3304 O 0.38696 0.68727 0.8151 0.0
O3305 O 0.37515 0.68215 0.82103 0.0
O3306 O 0.37035 0.70168 0.8282 0.0
O3307 O 0.38223 0.70678 0.82241 0.0
H3308 H 0.36497 0.68866 0.80881 0.0
H3309 H 0.35821 0.68665 0.79466 0.0
H3310 H 0.38033 0.67183 0.7863 0.0
H3311 H 0.3869 0.67362 0.80053 0.0
H3312 H 0.40457 0.66308 0.84012 0.0
H3313 H 0.39637 0.67486 0.83329 0.0
H3314 H 0.40349 0.67658 0.86449 0.0
H3315 H 0.39524 0.68819 0.85767 0.0
H3316 H 0.37117 0.72405 0.85081 0.0
H3317 H 0.37138 0.73818 0.82674 0.0
H3318 H 0.37347 0.72466 0.81886 0.0
H3319 H 0.37322 0.71051 0.84286 0.0
C3320 C 0.11061 0.62632 0.55617 0.0
C3321 C 0.10537 0.61929 0.55386 0.0
C3322 C 0.11239 0.61852 0.53975 0.0
C3323 C 0.10627 0.61541 0.54573 0.0
C3324 C 0.11753 0.62563 0.54209 0.0
C3325 C 0.11666 0.62948 0.55022 0.0
U3326 U 0.09845 0.63164 0.57717 0.0
O3327 O 0.10319 0.63191 0.59058 0.0
O3328 O 0.09817 0.64374 0.58462 0.0
C3329 C 0.10193 0.64026 0.59139 0.0
C3330 C 0.10998 0.63039 0.56477 0.0
C3331 C 0.10908 0.64522 0.59526 0.0
C3332 C 0.12303 0.65243 0.59436 0.0
C3333 C 0.11637 0.64767 0.59046 0.0
C3334 C 0.11517 0.6523 0.60787 0.0
C3335 C 0.12252 0.65478 0.60314 0.0
C3336 C 0.10854 0.64757 0.60397 0.0
C3337 C 0.07514 0.62319 0.5802 0.0
C3338 C 0.06714 0.62192 0.59368 0.0
C3339 C 0.05965 0.62059 0.58003 0.0
C3340 C 0.06743 0.6219 0.57564 0.0
C3341 C 0.0594 0.6205 0.58912 0.0
C3342 C 0.07494 0.62327 0.58927 0.0
C3343 C 0.08327 0.62423 0.57532 0.0
O3344 O 0.10454 0.63688 0.56542 0.0
O3345 O 0.10965 0.62508 0.5714 0.0
O3346 O 0.09009 0.62023 0.57843 0.0
O3347 O 0.08498 0.63206 0.57253 0.0
H3348 H 0.10062 0.61679 0.55834 0.0
H3349 H 0.10213 0.61002 0.5441 0.0
H3350 H 0.12237 0.62813 0.5377 0.0
H3351 H 0.12077 0.63489 0.55189 0.0
H3352 H 0.12863 0.65416 0.59054 0.0
H3353 H 0.11692 0.64589 0.58372 0.0
H3354 H 0.11448 0.6541 0.61459 0.0
H3355 H 0.10294 0.64578 0.60777 0.0
H3356 H 0.06722 0.62184 0.60067 0.0
H3357 H 0.05381 0.61969 0.57629 0.0
H3358 H 0.06743 0.62186 0.56864 0.0
H3359 H 0.08082 0.62427 0.59292 0.0
C3360 C 0.16467 0.68099 0.23459 0.0
C3361 C 0.17309 0.68399 0.23612 0.0
C3362 C 0.17253 0.67863 0.25097 0.0
C3363 C 0.17698 0.68281 0.24422 0.0
C3364 C 0.16403 0.6758 0.24943 0.0
C3365 C 0.16016 0.67694 0.24133 0.0
U3366 U 0.15917 0.69304 0.21342 0.0
O3367 O 0.15842 0.6881 0.20013 0.0
O3368 O 0.14683 0.69343 0.2063 0.0
C3369 C 0.15005 0.68942 0.19955 0.0
C3370 C 0.16052 0.6817 0.22601 0.0
C3371 C 0.14482 0.68226 0.19603 0.0
C3372 C 0.1419 0.66693 0.19406 0.0
C3373 C 0.14673 0.67357 0.19787 0.0
C3374 C 0.13309 0.67756 0.18669 0.0
C3375 C 0.13504 0.66884 0.18837 0.0
C3376 C 0.13794 0.68418 0.19047 0.0
C3377 C 0.16778 0.71621 0.20982 0.0
C3378 C 0.16889 0.72405 0.19622 0.0
C3379 C 0.17013 0.73175 0.20976 0.0
C3380 C 0.16898 0.724 0.21427 0.0
C3381 C 0.17013 0.73189 0.20068 0.0
C3382 C 0.1677 0.71629 0.20075 0.0
C3383 C 0.16682 0.70814 0.21483 0.0
O3384 O 0.1541 0.68722 0.2254 0.0
O3385 O 0.16567 0.68183 0.21926 0.0
O3386 O 0.17065 0.70124 0.2117 0.0
O3387 O 0.15906 0.70656 0.21788 0.0
H3388 H 0.17671 0.68715 0.23104 0.0
H3389 H 0.18356 0.68501 0.24512 0.0
H3390 H 0.16032 0.6727 0.25449 0.0
H3391 H 0.15365 0.6746 0.24032 0.0
H3392 H 0.14351 0.66029 0.19558 0.0
H3393 H 0.15199 0.67193 0.20218 0.0
H3394 H 0.12795 0.67928 0.18227 0.0
H3395 H 0.13638 0.69083 0.18894 0.0
H3396 H 0.16877 0.72394 0.18923 0.0
H3397 H 0.17117 0.73762 0.2134 0.0
H3398 H 0.16909 0.72408 0.22126 0.0
H3399 H 0.16674 0.71036 0.19718 0.0
C3400 C 0.11068 0.41481 0.98402 0.0
C3401 C 0.10344 0.41686 0.98908 0.0
C3402 C 0.11277 0.42297 1.00023 0.0
C3403 C 0.10448 0.42088 0.99713 0.0
C3404 C 0.11998 0.42096 0.99508 0.0
C3405 C 0.11894 0.41691 0.98708 0.0
U3406 U 0.09815 0.40876 0.9634 0.0
O3407 O 0.10274 0.40776 0.95001 0.0
O3408 O 0.09756 0.3963 0.95655 0.0
C3409 C 0.10138 0.39939 0.94962 0.0
C3410 C 0.10983 0.41038 0.97562 0.0
C3411 C 0.10844 0.3941 0.94598 0.0
C3412 C 0.1237 0.39087 0.94396 0.0
C3413 C 0.11715 0.39571 0.94793 0.0
C3414 C 0.11291 0.38264 0.93622 0.0
C3415 C 0.12167 0.38433 0.93797 0.0
C3416 C 0.10638 0.38748 0.94017 0.0
C3417 C 0.07504 0.41762 0.96011 0.0
C3418 C 0.06673 0.4168 0.94679 0.0
C3419 C 0.06001 0.42216 0.95983 0.0
C3420 C 0.06774 0.4209 0.96433 0.0
C3421 C 0.0594 0.42019 0.95099 0.0
C3422 C 0.07449 0.41553 0.95131 0.0
C3423 C 0.08316 0.41662 0.96501 0.0
O3424 O 0.10426 0.40398 0.9753 0.0
O3425 O 0.10953 0.4154 0.96879 0.0
O3426 O 0.09003 0.4203 0.96164 0.0
O3427 O 0.08472 0.40888 0.96813 0.0
H3428 H 0.097 0.41533 0.98683 0.0
H3429 H 0.09879 0.42242 1.00088 0.0
H3430 H 0.12646 0.42238 0.9973 0.0
H3431 H 0.12461 0.41537 0.98328 0.0
H3432 H 0.13037 0.3924 0.94542 0.0
H3433 H 0.11888 0.40078 0.95242 0.0
H3434 H 0.11108 0.37757 0.93177 0.0
H3435 H 0.0997 0.38611 0.9386 0.0
H3436 H 0.06653 0.41527 0.93997 0.0
H3437 H 0.05447 0.42462 0.96333 0.0
H3438 H 0.06803 0.42252 0.97113 0.0
H3439 H 0.08006 0.41298 0.94793 0.0
C3440 C 0.37607 0.35978 0.73469 0.0
C3441 C 0.36783 0.35631 0.73629 0.0
C3442 C 0.36821 0.36174 0.75109 0.0
C3443 C 0.36393 0.35731 0.7444 0.0
C3444 C 0.37651 0.36508 0.74948 0.0
C3445 C 0.38037 0.36412 0.74136 0.0
U3446 U 0.38117 0.34803 0.71334 0.0
O3447 O 0.38197 0.3532 0.70013 0.0
O3448 O 0.39345 0.34742 0.70612 0.0
C3449 C 0.39029 0.35162 0.69945 0.0
C3450 C 0.38021 0.35917 0.72611 0.0
C3451 C 0.39567 0.35868 0.69596 0.0
C3452 C 0.39953 0.37389 0.69486 0.0
C3453 C 0.3946 0.36728 0.69864 0.0
C3454 C 0.40674 0.36336 0.68585 0.0
C3455 C 0.40563 0.37202 0.68838 0.0
C3456 C 0.40181 0.35678 0.6896 0.0
C3457 C 0.37171 0.32527 0.70935 0.0
C3458 C 0.37677 0.31449 0.69908 0.0
C3459 C 0.36292 0.31266 0.70612 0.0
C3460 C 0.36416 0.32043 0.71055 0.0
C3461 C 0.36925 0.30952 0.7004 0.0
C3462 C 0.37798 0.32229 0.70351 0.0
C3463 C 0.37299 0.33319 0.71451 0.0
O3464 O 0.38646 0.35346 0.7254 0.0
O3465 O 0.37505 0.35933 0.71937 0.0
O3466 O 0.36938 0.34026 0.7115 0.0
O3467 O 0.38081 0.33447 0.71756 0.0
H3468 H 0.36439 0.35287 0.73127 0.0
H3469 H 0.35759 0.35456 0.74545 0.0
H3470 H 0.37995 0.36861 0.75443 0.0
H3471 H 0.38672 0.36687 0.74027 0.0
H3472 H 0.39857 0.38047 0.69704 0.0
H3473 H 0.38991 0.36889 0.70357 0.0
H3474 H 0.41129 0.36168 0.68081 0.0
H3475 H 0.40271 0.35019 0.68742 0.0
H3476 H 0.38181 0.31225 0.69479 0.0
H3477 H 0.35699 0.30911 0.70718 0.0
H3478 H 0.35922 0.32263 0.715 0.0
H3479 H 0.38387 0.32593 0.70248 0.0
C3480 C 0.43022 0.62562 0.48357 0.0
C3481 C 0.43746 0.6234 0.48857 0.0
C3482 C 0.42809 0.61765 0.4999 0.0
C3483 C 0.43641 0.61948 0.49668 0.0
C3484 C 0.42088 0.61985 0.49481 0.0
C3485 C 0.42194 0.6238 0.48675 0.0
U3486 U 0.44289 0.63132 0.46293 0.0
O3487 O 0.43837 0.63192 0.44946 0.0
O3488 O 0.44339 0.64358 0.45573 0.0
C3489 C 0.43971 0.64028 0.44883 0.0
C3490 C 0.4311 0.62988 0.47509 0.0
C3491 C 0.43263 0.64536 0.44497 0.0
C3492 C 0.41835 0.65193 0.44558 0.0
C3493 C 0.42499 0.64715 0.44951 0.0
C3494 C 0.42695 0.65318 0.43258 0.0
C3495 C 0.41923 0.65496 0.43704 0.0
C3496 C 0.43356 0.64844 0.43651 0.0
C3497 C 0.46603 0.62257 0.45998 0.0
C3498 C 0.47518 0.62561 0.44756 0.0
C3499 C 0.48036 0.61621 0.45895 0.0
C3500 C 0.47257 0.61731 0.46339 0.0
C3501 C 0.4818 0.62036 0.45099 0.0
C3502 C 0.46737 0.62671 0.45202 0.0
C3503 C 0.45792 0.6236 0.46485 0.0
O3504 O 0.43663 0.63632 0.47466 0.0
O3505 O 0.4315 0.62472 0.46838 0.0
O3506 O 0.4511 0.61979 0.46154 0.0
O3507 O 0.45627 0.6314 0.46775 0.0
H3508 H 0.44392 0.62471 0.48622 0.0
H3509 H 0.4421 0.61779 0.50038 0.0
H3510 H 0.41439 0.61864 0.49713 0.0
H3511 H 0.41627 0.62547 0.483 0.0
H3512 H 0.41246 0.65312 0.44917 0.0
H3513 H 0.42414 0.64481 0.45605 0.0
H3514 H 0.42792 0.65552 0.42606 0.0
H3515 H 0.43943 0.64715 0.43292 0.0
H3516 H 0.47608 0.62897 0.44149 0.0
H3517 H 0.48523 0.61202 0.46173 0.0
H3518 H 0.47164 0.61403 0.4695 0.0
H3519 H 0.46238 0.6308 0.44929 0.0
C3520 C 0.30715 0.1651 0.36047 0.0
C3521 C 0.30286 0.16868 0.35332 0.0
C3522 C 0.29064 0.17271 0.36248 0.0
C3523 C 0.29468 0.17246 0.35432 0.0
C3524 C 0.29504 0.16914 0.3696 0.0
C3525 C 0.30319 0.16537 0.36859 0.0
U3526 U 0.32804 0.15964 0.34801 0.0
O3527 O 0.34147 0.15935 0.35277 0.0
O3528 O 0.33546 0.14752 0.34782 0.0
C3529 C 0.34218 0.15096 0.35169 0.0
C3530 C 0.31573 0.16103 0.35965 0.0
C3531 C 0.34593 0.14606 0.35901 0.0
C3532 C 0.34485 0.13553 0.37067 0.0
C3533 C 0.34097 0.14036 0.36404 0.0
C3534 C 0.35863 0.14216 0.36743 0.0
C3535 C 0.35373 0.13636 0.37243 0.0
C3536 C 0.35477 0.14693 0.36079 0.0
C3537 C 0.33108 0.168 0.32469 0.0
C3538 C 0.34452 0.16796 0.31653 0.0
C3539 C 0.3311 0.17174 0.30944 0.0
C3540 C 0.32665 0.17048 0.31719 0.0
C3541 C 0.34011 0.17056 0.309 0.0
C3542 C 0.34004 0.16669 0.32431 0.0
C3543 C 0.32619 0.16701 0.33281 0.0
O3544 O 0.31629 0.15455 0.3542 0.0
O3545 O 0.32233 0.16634 0.35917 0.0
O3546 O 0.32935 0.17101 0.33959 0.0
O3547 O 0.32339 0.15919 0.33457 0.0
H3548 H 0.30583 0.16853 0.34699 0.0
H3549 H 0.29147 0.17507 0.34868 0.0
H3550 H 0.29222 0.16934 0.37599 0.0
H3551 H 0.30642 0.16268 0.37419 0.0
H3552 H 0.34087 0.1312 0.37446 0.0
H3553 H 0.33413 0.13959 0.36283 0.0
H3554 H 0.3655 0.14288 0.36853 0.0
H3555 H 0.35873 0.15126 0.35697 0.0
H3556 H 0.35146 0.16705 0.31646 0.0
H3557 H 0.32746 0.17358 0.30375 0.0
H3558 H 0.31973 0.17149 0.31734 0.0
H3559 H 0.34358 0.16476 0.33003 0.0
C3560 C 0.80643 0.37607 0.68057 0.0
C3561 C 0.80437 0.36858 0.68526 0.0
C3562 C 0.78999 0.36826 0.67874 0.0
C3563 C 0.79623 0.3647 0.68433 0.0
C3564 C 0.79209 0.37582 0.67414 0.0
C3565 C 0.80022 0.37967 0.67504 0.0
U3566 U 0.82777 0.38106 0.69239 0.0
O3567 O 0.84098 0.38187 0.68724 0.0
O3568 O 0.835 0.39332 0.69304 0.0
C3569 C 0.84167 0.39018 0.68884 0.0
C3570 C 0.81501 0.38018 0.68121 0.0
C3571 C 0.84512 0.39558 0.68178 0.0
C3572 C 0.84614 0.39951 0.66658 0.0
C3573 C 0.84242 0.39454 0.67319 0.0
C3574 C 0.85518 0.40671 0.6771 0.0
C3575 C 0.85261 0.40563 0.66845 0.0
C3576 C 0.85148 0.40173 0.68367 0.0
C3577 C 0.83178 0.37156 0.71513 0.0
C3578 C 0.842 0.37665 0.72595 0.0
C3579 C 0.83517 0.36269 0.72766 0.0
C3580 C 0.83071 0.36393 0.7199 0.0
C3581 C 0.84081 0.36906 0.73085 0.0
C3582 C 0.83754 0.37788 0.71816 0.0
C3583 C 0.8266 0.37285 0.70722 0.0
O3584 O 0.81573 0.38639 0.68694 0.0
O3585 O 0.82171 0.37496 0.68109 0.0
O3586 O 0.8296 0.36924 0.70015 0.0
O3587 O 0.82354 0.38067 0.70594 0.0
H3588 H 0.80905 0.36572 0.68961 0.0
H3589 H 0.79481 0.35894 0.68805 0.0
H3590 H 0.7875 0.37869 0.6697 0.0
H3591 H 0.80168 0.38544 0.67135 0.0
H3592 H 0.84394 0.39857 0.66001 0.0
H3593 H 0.83748 0.38985 0.67158 0.0
H3594 H 0.86022 0.41126 0.67877 0.0
H3595 H 0.85368 0.40261 0.69025 0.0
H3596 H 0.84622 0.38173 0.72823 0.0
H3597 H 0.83421 0.3567 0.73116 0.0
H3598 H 0.82633 0.35896 0.71766 0.0
H3599 H 0.83848 0.38382 0.71458 0.0
C3600 C 0.41456 0.05622 0.4308 0.0
C3601 C 0.42176 0.05395 0.43583 0.0
C3602 C 0.42238 0.0398 0.4289 0.0
C3603 C 0.42565 0.04583 0.43487 0.0
C3604 C 0.4151 0.0421 0.42395 0.0
C3605 C 0.41125 0.05022 0.42489 0.0
U3606 U 0.40962 0.07746 0.44277 0.0
O3607 O 0.40895 0.09073 0.43771 0.0
O3608 O 0.39743 0.0848 0.44343 0.0
C3609 C 0.40065 0.0915 0.43933 0.0
C3610 C 0.41046 0.06481 0.43148 0.0
C3611 C 0.39531 0.09512 0.43232 0.0
C3612 C 0.38995 0.09501 0.41754 0.0
C3613 C 0.3949 0.09124 0.42414 0.0
C3614 C 0.38572 0.10649 0.42726 0.0
C3615 C 0.38531 0.10271 0.41901 0.0
C3616 C 0.39067 0.10273 0.43383 0.0
C3617 C 0.41904 0.0813 0.46549 0.0
C3618 C 0.41438 0.09237 0.47563 0.0
C3619 C 0.42745 0.08423 0.47843 0.0
C3620 C 0.4262 0.07961 0.47078 0.0
C3621 C 0.42153 0.09064 0.481 0.0
C3622 C 0.41316 0.08776 0.46794 0.0
C3623 C 0.41778 0.07611 0.45761 0.0
O3624 O 0.40425 0.06551 0.43721 0.0
O3625 O 0.41572 0.07148 0.43143 0.0
O3626 O 0.42143 0.07911 0.45055 0.0
O3627 O 0.40994 0.07314 0.45629 0.0
H3628 H 0.42439 0.05848 0.44047 0.0
H3629 H 0.43118 0.04424 0.43886 0.0
H3630 H 0.41248 0.03767 0.41922 0.0
H3631 H 0.40571 0.05185 0.42094 0.0
H3632 H 0.38971 0.09188 0.4113 0.0
H3633 H 0.39844 0.08534 0.42285 0.0
H3634 H 0.38237 0.11248 0.42861 0.0
H3635 H 0.39093 0.10584 0.44008 0.0
H3636 H 0.40976 0.09733 0.47736 0.0
H3637 H 0.43296 0.08264 0.48245 0.0
H3638 H 0.4308 0.07464 0.46902 0.0
H3639 H 0.40761 0.0892 0.46393 0.0
C3640 C 0.7338 0.66533 0.17999 0.0
C3641 C 0.73855 0.66796 0.18726 0.0
C3642 C 0.75009 0.67338 0.17795 0.0
C3643 C 0.74664 0.67192 0.18624 0.0
C3644 C 0.74525 0.67078 0.17072 0.0
C3645 C 0.73721 0.66679 0.17174 0.0
U3646 U 0.71308 0.65932 0.19245 0.0
O3647 O 0.69971 0.65838 0.18774 0.0
O3648 O 0.70617 0.64687 0.1929 0.0
C3649 C 0.69928 0.65 0.18905 0.0
C3650 C 0.72537 0.66097 0.18083 0.0
C3651 C 0.69573 0.64478 0.18191 0.0
C3652 C 0.69459 0.64117 0.16666 0.0
C3653 C 0.69834 0.64602 0.17332 0.0
C3654 C 0.6857 0.63369 0.17713 0.0
C3655 C 0.68819 0.63495 0.16848 0.0
C3656 C 0.68943 0.63855 0.18376 0.0
C3657 C 0.70968 0.66785 0.21567 0.0
C3658 C 0.69625 0.67006 0.22358 0.0
C3659 C 0.70983 0.6694 0.23131 0.0
C3660 C 0.7142 0.66812 0.22351 0.0
C3661 C 0.7008 0.67047 0.23146 0.0
C3662 C 0.70065 0.66875 0.21577 0.0
C3663 C 0.7146 0.66695 0.20753 0.0
O3664 O 0.725 0.65454 0.18637 0.0
O3665 O 0.71857 0.66605 0.18116 0.0
O3666 O 0.71134 0.67076 0.20067 0.0
O3667 O 0.71776 0.65925 0.2059 0.0
H3668 H 0.73602 0.66692 0.19369 0.0
H3669 H 0.75014 0.67393 0.19195 0.0
H3670 H 0.74775 0.67169 0.16425 0.0
H3671 H 0.73365 0.66479 0.16605 0.0
H3672 H 0.69673 0.64225 0.16009 0.0
H3673 H 0.70323 0.65078 0.17176 0.0
H3674 H 0.68072 0.62906 0.17877 0.0
H3675 H 0.68731 0.63751 0.19035 0.0
H3676 H 0.68931 0.67093 0.22342 0.0
H3677 H 0.71354 0.6695 0.23723 0.0
H3678 H 0.72117 0.66742 0.22359 0.0
H3679 H 0.69699 0.66855 0.20981 0.0
C3680 C 0.62585 0.48426 0.43003 0.0
C3681 C 0.62388 0.4894 0.43723 0.0
C3682 C 0.61812 0.5007 0.4278 0.0
C3683 C 0.62005 0.49755 0.43613 0.0
C3684 C 0.62002 0.49544 0.42064 0.0
C3685 C 0.62385 0.48733 0.42175 0.0
U3686 U 0.63167 0.46351 0.4426 0.0
O3687 O 0.63244 0.4501 0.43792 0.0
O3688 O 0.64401 0.45644 0.44305 0.0
C3689 C 0.6408 0.44955 0.4393 0.0
C3690 C 0.63012 0.47577 0.43093 0.0
C3691 C 0.64599 0.44583 0.43224 0.0
C3692 C 0.65165 0.44611 0.41758 0.0
C3693 C 0.64671 0.4499 0.42417 0.0
C3694 C 0.65519 0.4342 0.42709 0.0
C3695 C 0.65596 0.4382 0.41896 0.0
C3696 C 0.65027 0.43798 0.43364 0.0
C3697 C 0.62323 0.46008 0.46582 0.0
C3698 C 0.62056 0.44665 0.4736 0.0
C3699 C 0.62249 0.45998 0.48152 0.0
C3700 C 0.62363 0.46445 0.47374 0.0
C3701 C 0.62089 0.45104 0.48156 0.0
C3702 C 0.62175 0.45112 0.46581 0.0
C3703 C 0.62409 0.46508 0.45771 0.0
O3704 O 0.63656 0.47535 0.43645 0.0
O3705 O 0.62497 0.46904 0.4313 0.0
O3706 O 0.62021 0.46193 0.45085 0.0
O3707 O 0.63181 0.4682 0.45604 0.0
H3708 H 0.62535 0.48715 0.44369 0.0
H3709 H 0.61875 0.50144 0.44179 0.0
H3710 H 0.61847 0.49756 0.41416 0.0
H3711 H 0.62528 0.48345 0.41612 0.0
H3712 H 0.65215 0.44941 0.41143 0.0
H3713 H 0.64346 0.45598 0.42297 0.0
H3714 H 0.65828 0.42805 0.42836 0.0
H3715 H 0.64976 0.43472 0.43982 0.0
H3716 H 0.61943 0.43975 0.47341 0.0
H3717 H 0.6227 0.46358 0.48751 0.0
H3718 H 0.62473 0.47136 0.4739 0.0
H3719 H 0.62146 0.44758 0.45979 0.0
C3720 C 0.23383 0.87562 0.86078 0.0
C3721 C 0.23881 0.87337 0.85354 0.0
C3722 C 0.25017 0.86766 0.86291 0.0
C3723 C 0.24692 0.86946 0.8546 0.0
C3724 C 0.24511 0.8699 0.87012 0.0
C3725 C 0.23704 0.87384 0.86905 0.0
U3726 U 0.21312 0.88121 0.84815 0.0
O3727 O 0.19965 0.88173 0.85272 0.0
O3728 O 0.20584 0.89342 0.84765 0.0
C3729 C 0.19899 0.89009 0.8514 0.0
C3730 C 0.22533 0.87986 0.8599 0.0
C3731 C 0.19515 0.89513 0.85851 0.0
C3732 C 0.19631 0.90349 0.87177 0.0
C3733 C 0.2002 0.89866 0.86517 0.0
C3734 C 0.18231 0.90127 0.86517 0.0
C3735 C 0.18731 0.90484 0.87186 0.0
C3736 C 0.1862 0.89648 0.85858 0.0
C3737 C 0.21014 0.87231 0.82505 0.0
C3738 C 0.1989 0.87661 0.81493 0.0
C3739 C 0.20824 0.86453 0.81157 0.0
C3740 C 0.21256 0.86568 0.81941 0.0
C3741 C 0.20138 0.87001 0.80918 0.0
C3742 C 0.20324 0.87775 0.8228 0.0
C3743 C 0.215 0.87345 0.83317 0.0
O3744 O 0.22487 0.88627 0.85434 0.0
O3745 O 0.21863 0.87466 0.85954 0.0
O3746 O 0.21174 0.86963 0.84002 0.0
O3747 O 0.21787 0.88127 0.83476 0.0
H3748 H 0.23643 0.87464 0.84708 0.0
H3749 H 0.2506 0.86773 0.84891 0.0
H3750 H 0.24745 0.86872 0.8766 0.0
H3751 H 0.23331 0.87554 0.87472 0.0
H3752 H 0.20034 0.90608 0.87687 0.0
H3753 H 0.20713 0.89766 0.86526 0.0
H3754 H 0.17539 0.90227 0.86495 0.0
H3755 H 0.18219 0.89384 0.85349 0.0
H3756 H 0.1937 0.881 0.81328 0.0
H3757 H 0.21023 0.85928 0.8074 0.0
H3758 H 0.21785 0.86138 0.82105 0.0
H3759 H 0.20126 0.88291 0.82709 0.0
C3760 C 0.41502 0.9841 0.11009 0.0
C3761 C 0.41838 0.98849 0.1029 0.0
C3762 C 0.42266 1.0006 0.11208 0.0
C3763 C 0.42217 0.99666 0.10388 0.0
C3764 C 0.41932 0.9961 0.11924 0.0
C3765 C 0.41554 0.98796 0.11825 0.0
U3766 U 0.40944 0.96334 0.09755 0.0
O3767 O 0.40915 0.94986 0.10217 0.0
O3768 O 0.3973 0.95596 0.09733 0.0
C3769 C 0.40077 0.94915 0.10104 0.0
C3770 C 0.41092 0.97554 0.10927 0.0
C3771 C 0.39586 0.94523 0.10823 0.0
C3772 C 0.38644 0.94628 0.12079 0.0
C3773 C 0.39133 0.95026 0.11427 0.0
C3774 C 0.39069 0.93224 0.1154 0.0
C3775 C 0.386 0.93721 0.1214 0.0
C3776 C 0.39554 0.93621 0.1089 0.0
C3777 C 0.41756 0.96041 0.07419 0.0
C3778 C 0.41779 0.94691 0.06613 0.0
C3779 C 0.42051 0.96045 0.05876 0.0
C3780 C 0.41945 0.96489 0.06655 0.0
C3781 C 0.41973 0.95139 0.05844 0.0
C3782 C 0.41669 0.95138 0.07393 0.0
C3783 C 0.4167 0.96529 0.08232 0.0
O3784 O 0.4044 0.97503 0.10387 0.0
O3785 O 0.41622 0.96893 0.10873 0.0
O3786 O 0.42076 0.96209 0.08906 0.0
O3787 O 0.40892 0.96814 0.08415 0.0
H3788 H 0.41804 0.98561 0.09654 0.0
H3789 H 0.4246 0.99995 0.09821 0.0
H3790 H 0.41971 0.99883 0.12566 0.0
H3791 H 0.41302 0.98465 0.12388 0.0
H3792 H 0.38288 0.95032 0.12525 0.0
H3793 H 0.3915 0.95725 0.11389 0.0
H3794 H 0.39066 0.92525 0.11575 0.0
H3795 H 0.39902 0.93221 0.10433 0.0
H3796 H 0.41705 0.93996 0.0661 0.0
H3797 H 0.4221 0.9641 0.05301 0.0
H3798 H 0.42017 0.97185 0.06662 0.0
H3799 H 0.4152 0.94779 0.07975 0.0
C3800 C 0.12663 0.05654 0.61048 0.0
C3801 C 0.12136 0.0532 0.60391 0.0
C3802 C 0.1186 0.04024 0.61251 0.0
C3803 C 0.11739 0.04512 0.60491 0.0
C3804 C 0.12394 0.04364 0.61904 0.0
C3805 C 0.1279 0.0517 0.61802 0.0
U3806 U 0.13208 0.07736 0.598 0.0
O3807 O 0.13291 0.09074 0.60268 0.0
O3808 O 0.14442 0.08445 0.59734 0.0
C3809 C 0.14127 0.09127 0.60128 0.0
C3810 C 0.13086 0.06503 0.60964 0.0
C3811 C 0.14654 0.09482 0.60839 0.0
C3812 C 0.14989 0.09637 0.62367 0.0
C3813 C 0.14503 0.09257 0.61704 0.0
C3814 C 0.15795 0.10455 0.61306 0.0
C3815 C 0.15639 0.10245 0.62176 0.0
C3816 C 0.15307 0.10079 0.60646 0.0
C3817 C 0.123 0.08062 0.575 0.0
C3818 C 0.1259 0.09311 0.56589 0.0
C3819 C 0.11667 0.08163 0.56067 0.0
C3820 C 0.11781 0.07718 0.56845 0.0
C3821 C 0.12073 0.08964 0.55925 0.0
C3822 C 0.12704 0.08864 0.57369 0.0
C3823 C 0.12412 0.0757 0.58308 0.0
O3824 O 0.13716 0.06549 0.60397 0.0
O3825 O 0.12568 0.07175 0.60939 0.0
O3826 O 0.12045 0.079 0.58998 0.0
O3827 O 0.13192 0.07271 0.58457 0.0
H3828 H 0.1203 0.05686 0.59803 0.0
H3829 H 0.11326 0.04275 0.59979 0.0
H3830 H 0.12514 0.04003 0.62491 0.0
H3831 H 0.13197 0.05415 0.62315 0.0
H3832 H 0.14858 0.09452 0.63029 0.0
H3833 H 0.14004 0.08794 0.61868 0.0
H3834 H 0.16282 0.10928 0.61135 0.0
H3835 H 0.15433 0.10263 0.59982 0.0
H3836 H 0.12919 0.09922 0.56499 0.0
H3837 H 0.11253 0.07882 0.55578 0.0
H3838 H 0.11461 0.07102 0.56936 0.0
H3839 H 0.13109 0.09139 0.57868 0.0
C3840 C 0.17204 0.2661 0.36814 0.0
C3841 C 0.1787 0.26054 0.36546 0.0
C3842 C 0.17077 0.27419 0.36421 0.0
C3843 C 0.17632 0.27687 0.35745 0.0
C3844 C 0.18316 0.27138 0.35483 0.0
C3845 C 0.18426 0.2633 0.35885 0.0
C3846 C 0.16341 0.27983 0.36722 0.0
C3847 C 0.18924 0.27399 0.34766 0.0
C3848 C 0.16799 0.29356 0.34138 0.0
C3849 C 0.1719 0.30119 0.34432 0.0
C3850 C 0.16935 0.28564 0.3456 0.0
C3851 C 0.17479 0.28528 0.35295 0.0
C3852 C 0.17872 0.29296 0.35599 0.0
C3853 C 0.17721 0.30082 0.35166 0.0
C3854 C 0.16497 0.27763 0.34218 0.0
C3855 C 0.1846 0.29286 0.36377 0.0
H3856 H 0.1678 0.26412 0.37334 0.0
H3857 H 0.18937 0.25905 0.35666 0.0
H3858 H 0.1659 0.28622 0.36929 0.0
H3859 H 0.15885 0.28099 0.3618 0.0
H3860 H 0.15978 0.2769 0.37267 0.0
H3861 H 0.19446 0.26918 0.34663 0.0
H3862 H 0.18558 0.27476 0.34155 0.0
H3863 H 0.19222 0.28033 0.34915 0.0
H3864 H 0.16378 0.29381 0.33579 0.0
H3865 H 0.18034 0.30665 0.35392 0.0
H3866 H 0.16082 0.27476 0.34727 0.0
H3867 H 0.16988 0.27272 0.34043 0.0
H3868 H 0.16092 0.27899 0.33642 0.0
H3869 H 0.18108 0.29029 0.36946 0.0
H3870 H 0.1871 0.29939 0.36536 0.0
H3871 H 0.19016 0.2885 0.36257 0.0
C3872 C 0.02893 0.93258 0.60755 0.0
C3873 C 0.03096 0.9283 0.61528 0.0
C3874 C 0.02086 0.93144 0.60352 0.0
C3875 C 1.01465 0.92587 0.60729 0.0
C3876 C 1.01661 0.92162 0.61515 0.0
C3877 C 0.02471 0.9229 0.61905 0.0
C3878 C 1.01903 0.9361 0.59515 0.0
C3879 C 1.01018 0.91565 0.6194 0.0
C3880 C 0.99103 0.92802 0.60058 0.0
C3881 C 0.99019 0.92137 0.59448 0.0
C3882 C 0.99894 0.92957 0.60478 0.0
C3883 C 1.00619 0.92431 0.6029 0.0
C3884 C 1.00536 0.91754 0.59681 0.0
C3885 C 0.99739 0.91617 0.59267 0.0
C3886 C 0.99955 0.93689 0.61118 0.0
C3887 C 1.01289 0.91173 0.59467 0.0
H3888 H 0.03372 0.93668 0.60452 0.0
H3889 H 0.02614 0.91968 0.6251 0.0
H3890 H 1.01796 0.93133 0.58991 0.0
H3891 H 1.01303 0.93998 0.59574 0.0
H3892 H 0.0244 0.94045 0.59322 0.0
H3893 H 1.01264 0.91295 0.62558 0.0
H3894 H 1.00407 0.91916 0.6207 0.0
H3895 H 1.00862 0.91023 0.615 0.0
H3896 H 0.98554 0.93214 0.60194 0.0
H3897 H 0.99678 0.91095 0.58806 0.0
H3898 H 1.00451 0.94159 0.60903 0.0
H3899 H 1.00164 0.93438 0.61757 0.0
H3900 H 0.99331 0.94034 0.61199 0.0
H3901 H 1.01833 0.91563 0.59211 0.0
H3902 H 1.01119 0.90673 0.58983 0.0
H3903 H 1.01523 0.90846 0.60061 0.0
C3904 C 0.37433 0.74794 0.84188 0.0
C3905 C 0.36971 0.74048 0.84417 0.0
C3906 C 0.37293 0.75583 0.84614 0.0
C3907 C 0.36673 0.75632 0.85284 0.0
C3908 C 0.36207 0.74881 0.85522 0.0
C3909 C 0.36363 0.74099 0.85088 0.0
C3910 C 0.3781 0.76365 0.84345 0.0
C3911 C 0.35538 0.74907 0.8623 0.0
C3912 C 0.36873 0.77498 0.86875 0.0
C3913 C 0.3627 0.78094 0.86549 0.0
C3914 C 0.37003 0.76692 0.86477 0.0
C3915 C 0.36515 0.76471 0.85736 0.0
C3916 C 0.35894 0.77061 0.85413 0.0
C3917 C 0.3578 0.77864 0.85822 0.0
C3918 C 0.3767 0.76082 0.86844 0.0
C3919 C 0.3536 0.76851 0.84626 0.0
H3920 H 0.37912 0.74758 0.83679 0.0
H3921 H 0.35995 0.73529 0.85262 0.0
H3922 H 0.37369 0.76887 0.84127 0.0
H3923 H 0.38179 0.76618 0.84904 0.0
H3924 H 0.38271 0.76219 0.83815 0.0
H3925 H 0.35237 0.74266 0.86344 0.0
H3926 H 0.35836 0.75131 0.86841 0.0
H3927 H 0.35022 0.75376 0.8606 0.0
H3928 H 0.37244 0.7766 0.87445 0.0
H3929 H 0.35319 0.78322 0.85558 0.0
H3930 H 0.38177 0.75954 0.86354 0.0
H3931 H 0.37366 0.75454 0.87005 0.0
H3932 H 0.37984 0.76343 0.87433 0.0
H3933 H 0.35788 0.76767 0.84058 0.0
H3934 H 0.34879 0.77363 0.84476 0.0
H3935 H 0.35013 0.76231 0.84723 0.0
C3936 C 0.54851 0.12403 0.10062 0.0
C3937 C 0.55108 0.11866 0.09379 0.0
C3938 C 0.54056 0.12278 0.10485 0.0
C3939 C 0.53501 0.11601 0.10219 0.0
C3940 C 0.53762 0.1105 0.09539 0.0
C3941 C 0.54561 0.11187 0.0913 0.0
C3942 C 0.53804 0.12879 0.11209 0.0
C3943 C 0.53192 0.1032 0.09235 0.0
C3944 C 0.51724 0.10824 0.1174 0.0
C3945 C 0.50996 0.11259 0.11417 0.0
C3946 C 0.52543 0.10932 0.1136 0.0
C3947 C 0.52638 0.11483 0.10636 0.0
C3948 C 0.51905 0.11919 0.10303 0.0
C3949 C 0.51095 0.11803 0.10698 0.0
C3950 C 0.53309 0.10459 0.11738 0.0
C3951 C 0.51974 0.12506 0.09527 0.0
H3952 H 0.55263 0.12935 0.10255 0.0
H3953 H 0.54759 0.10758 0.08614 0.0
H3954 H 0.53211 0.1324 0.11029 0.0
H3955 H 0.53653 0.12503 0.118 0.0
H3956 H 0.54322 0.13352 0.11363 0.0
H3957 H 0.53495 0.09939 0.08708 0.0
H3958 H 0.53046 0.09878 0.09781 0.0
H3959 H 0.52568 0.10581 0.09 0.0
H3960 H 0.51657 0.10411 0.12301 0.0
H3961 H 0.50535 0.12132 0.10436 0.0
H3962 H 0.53807 0.1093 0.11945 0.0
H3963 H 0.53608 0.1004 0.11241 0.0
H3964 H 0.53128 0.10053 0.12302 0.0
H3965 H 0.52441 0.13033 0.0966 0.0
H3966 H 0.51344 0.12799 0.09348 0.0
H3967 H 0.52224 0.12139 0.08966 0.0
C3968 C 0.18394 0.77809 0.18161 0.0
C3969 C 0.17855 0.7808 0.17483 0.0
C3970 C 0.18278 0.77 0.18561 0.0
C3971 C 0.17604 0.76448 0.18281 0.0
C3972 C 0.17067 0.76712 0.17589 0.0
C3973 C 0.172 0.77521 0.17199 0.0
C3974 C 0.18866 0.76744 0.19296 0.0
C3975 C 0.16343 0.76143 0.17269 0.0
C3976 C 0.17698 0.74056 0.18873 0.0
C3977 C 0.17148 0.74018 0.19593 0.0
C3978 C 0.17852 0.7484 0.18439 0.0
C3979 C 0.17445 0.75607 0.18729 0.0
C3980 C 0.16882 0.7557 0.19449 0.0
C3981 C 0.16742 0.74778 0.19872 0.0
C3982 C 0.1846 0.74851 0.17677 0.0
C3983 C 0.16428 0.76369 0.19775 0.0
H3984 H 0.18895 0.78237 0.18394 0.0
H3985 H 0.16789 0.77715 0.16666 0.0
H3986 H 0.18484 0.76667 0.19897 0.0
H3987 H 0.19173 0.76111 0.19157 0.0
H3988 H 0.19382 0.77228 0.19412 0.0
H3989 H 0.15994 0.76433 0.16713 0.0
H3990 H 0.16601 0.75505 0.17071 0.0
H3991 H 0.15873 0.76026 0.17797 0.0
H3992 H 0.18023 0.73474 0.18658 0.0
H3993 H 0.16307 0.74754 0.20419 0.0
H3994 H 0.1901 0.75289 0.17811 0.0
H3995 H 0.18122 0.75106 0.17098 0.0
H3996 H 0.18717 0.74199 0.17525 0.0
H3997 H 0.1691 0.76864 0.19964 0.0
H3998 H 0.16007 0.76232 0.20339 0.0
H3999 H 0.16026 0.76653 0.19253 0.0
C4000 C 0.51666 0.9227 0.42083 0.0
C4001 C 0.51055 0.92841 0.42434 0.0
C4002 C 0.52474 0.9214 0.42478 0.0
C4003 C 0.52683 0.92595 0.43242 0.0
C4004 C 0.52076 0.93185 0.43592 0.0
C4005 C 0.51271 0.933 0.43186 0.0
C4006 C 0.53101 0.91507 0.42082 0.0
C4007 C 0.52273 0.93685 0.44405 0.0
C4008 C 0.5438 0.91649 0.44755 0.0
C4009 C 0.55113 0.92143 0.44554 0.0
C4010 C 0.53589 0.91787 0.44331 0.0
C4011 C 0.53524 0.92437 0.43689 0.0
C4012 C 0.54263 0.92934 0.43478 0.0
C4013 C 0.55048 0.9278 0.43911 0.0
C4014 C 0.5282 0.91236 0.44571 0.0
C4015 C 0.54222 0.93635 0.42802 0.0
H4016 H 0.51514 0.91923 0.41495 0.0
H4017 H 0.50803 0.93735 0.43469 0.0
H4018 H 0.53722 0.91834 0.41938 0.0
H4019 H 0.53242 0.9098 0.42548 0.0
H4020 H 0.52849 0.91216 0.41478 0.0
H4021 H 0.51748 0.94144 0.44575 0.0
H4022 H 0.52367 0.9323 0.44952 0.0
H4023 H 0.52883 0.94052 0.44326 0.0
H4024 H 0.54426 0.91148 0.45243 0.0
H4025 H 0.55608 0.93171 0.43758 0.0
H4026 H 0.52578 0.9089 0.43993 0.0
H4027 H 0.52287 0.91652 0.44808 0.0
H4028 H 0.52978 0.90754 0.45078 0.0
H4029 H 0.54005 0.93362 0.42177 0.0
H4030 H 0.54856 0.93957 0.42704 0.0
H4031 H 0.53741 0.94131 0.42994 0.0
C4032 C 0.37051 0.2999 0.68732 0.0
C4033 C 0.36806 0.30102 0.69598 0.0
C4034 C 0.36943 0.29191 0.68314 0.0
C4035 C 0.36581 0.28484 0.68769 0.0
C4036 C 0.36331 0.28593 0.69642 0.0
C4037 C 0.36448 0.29398 0.70045 0.0
C4038 C 0.37218 0.29102 0.67383 0.0
C4039 C 0.35946 0.27857 0.70153 0.0
C4040 C 0.35609 0.26607 0.67506 0.0
C4041 C 0.36274 0.25992 0.67539 0.0
C4042 C 0.357 0.27421 0.67899 0.0
C4043 C 0.36476 0.27626 0.68339 0.0
C4044 C 0.37149 0.27007 0.68377 0.0
C4045 C 0.3704 0.26199 0.67978 0.0
C4046 C 0.34968 0.28062 0.67843 0.0
C4047 C 0.37985 0.27197 0.68843 0.0
H4048 H 0.37318 0.30531 0.68377 0.0
H4049 H 0.3627 0.29471 0.70717 0.0
H4050 H 0.37717 0.28591 0.67324 0.0
H4051 H 0.36659 0.28902 0.66982 0.0
H4052 H 0.37484 0.29714 0.67117 0.0
H4053 H 0.35771 0.2805 0.70821 0.0
H4054 H 0.35358 0.27612 0.69824 0.0
H4055 H 0.36412 0.27314 0.70188 0.0
H4056 H 0.35019 0.26459 0.67159 0.0
H4057 H 0.37553 0.25725 0.68019 0.0
H4058 H 0.35193 0.28663 0.67524 0.0
H4059 H 0.34749 0.2824 0.68501 0.0
H4060 H 0.34407 0.27805 0.67477 0.0
H4061 H 0.38294 0.27779 0.68562 0.0
H4062 H 0.38448 0.2665 0.68806 0.0
H4063 H 0.37852 0.27338 0.69532 0.0
C4064 C 0.99231 0.1237 0.93933 0.0
C4065 C 0.99004 0.11876 0.94659 0.0
C4066 C 1.00024 0.12243 0.93507 0.0
C4067 C 1.00608 0.11608 0.93815 0.0
C4068 C 1.00379 0.111 0.94539 0.0
C4069 C 0.99581 0.11237 0.9495 0.0
C4070 C 1.00242 0.12798 0.92736 0.0
C4071 C 1.00981 0.10415 0.94888 0.0
C4072 C 0.02397 0.10792 0.92329 0.0
C4073 C 0.0311 0.11276 0.92608 0.0
C4074 C 1.01579 0.10895 0.92712 0.0
C4075 C 1.01471 0.11493 0.93395 0.0
C4076 C 0.0219 0.1198 0.93683 0.0
C4077 C 0.02998 0.11866 0.93286 0.0
C4078 C 1.00829 0.10367 0.92383 0.0
C4079 C 0.02106 0.12619 0.94414 0.0
H4080 H 0.98796 0.1287 0.93707 0.0
H4081 H 0.99407 0.1084 0.955 0.0
H4082 H 1.00822 0.13194 0.92878 0.0
H4083 H 1.00401 0.12385 0.92173 0.0
H4084 H 0.99704 0.13238 0.92554 0.0
H4085 H 1.007 0.10063 0.95447 0.0
H4086 H 1.01138 0.09942 0.94375 0.0
H4087 H 1.01598 0.10717 0.95094 0.0
H4088 H 0.02474 0.10342 0.91799 0.0
H4089 H 0.03548 0.12235 0.93514 0.0
H4090 H 1.00309 0.10802 0.92148 0.0
H4091 H 1.00553 0.09974 0.92915 0.0
H4092 H 1.01019 0.09927 0.91849 0.0
H4093 H 1.01616 0.13116 0.94248 0.0
H4094 H 0.02726 0.12948 0.94561 0.0
H4095 H 1.01878 0.12284 0.95005 0.0
C4096 C 0.35796 0.1729 0.26058 0.0
C4097 C 0.36532 0.17812 0.25965 0.0
C4098 C 0.35401 0.17174 0.26867 0.0
C4099 C 0.3575 0.17585 0.27605 0.0
C4100 C 0.36492 0.18113 0.27516 0.0
C4101 C 0.36872 0.18222 0.26698 0.0
C4102 C 0.34606 0.16612 0.26931 0.0
C4103 C 0.36887 0.18559 0.28286 0.0
C4104 C 0.34255 0.17904 0.29533 0.0
C4105 C 0.34483 0.17208 0.30071 0.0
C4106 C 0.34668 0.18039 0.28736 0.0
C4107 C 0.3533 0.17469 0.28467 0.0
C4108 C 0.35575 0.16775 0.29013 0.0
C4109 C 0.35148 0.16652 0.29806 0.0
C4110 C 0.34389 0.18789 0.28177 0.0
C4111 C 0.36278 0.16152 0.28751 0.0
H4112 H 0.35522 0.1698 0.25495 0.0
H4113 H 0.37445 0.18618 0.26634 0.0
H4114 H 0.34723 0.16074 0.27391 0.0
H4115 H 0.34057 0.16995 0.27185 0.0
H4116 H 0.34417 0.16335 0.26297 0.0
H4117 H 0.37465 0.18947 0.2811 0.0
H4118 H 0.36405 0.18992 0.28592 0.0
H4119 H 0.37078 0.18073 0.28778 0.0
H4120 H 0.33754 0.18347 0.29737 0.0
H4121 H 0.35324 0.16108 0.3021 0.0
H4122 H 0.34143 0.18546 0.2755 0.0
H4123 H 0.34949 0.19213 0.28036 0.0
H4124 H 0.33875 0.19183 0.28485 0.0
H4125 H 0.36086 0.15807 0.28154 0.0
H4126 H 0.36417 0.15666 0.29262 0.0
H4127 H 0.36882 0.1651 0.28605 0.0
C4128 C 0.10602 0.11269 0.51511 0.0
C4129 C 0.11309 0.11584 0.51038 0.0
C4130 C 0.10719 0.10855 0.52312 0.0
C4131 C 0.11562 0.10754 0.52653 0.0
C4132 C 0.12278 0.11074 0.52182 0.0
C4133 C 0.12143 0.11482 0.51381 0.0
C4134 C 0.09938 0.10524 0.52793 0.0
C4135 C 0.13188 0.10979 0.5252 0.0
C4136 C 0.1183 0.10327 0.55065 0.0
C4137 C 0.11956 0.09429 0.55087 0.0
C4138 C 0.11701 0.10767 0.5428 0.0
C4139 C 0.11698 0.10299 0.53494 0.0
C4140 C 0.11829 0.09394 0.53511 0.0
C4141 C 0.11957 0.08971 0.54305 0.0
C4142 C 0.11564 0.11732 0.5429 0.0
C4143 C 0.11835 0.0887 0.52689 0.0
H4144 H 0.09955 0.11354 0.51259 0.0
H4145 H 0.12696 0.1171 0.51017 0.0
H4146 H 0.09995 0.09816 0.52891 0.0
H4147 H 0.09904 0.10826 0.53442 0.0
H4148 H 0.09325 0.10659 0.52445 0.0
H4149 H 0.13673 0.1128 0.52086 0.0
H4150 H 0.13241 0.11281 0.53167 0.0
H4151 H 0.13348 0.10284 0.52596 0.0
H4152 H 0.11818 0.10686 0.55666 0.0
H4153 H 0.12067 0.0828 0.54312 0.0
H4154 H 0.10926 0.11891 0.54003 0.0
H4155 H 0.12063 0.12055 0.5389 0.0
H4156 H 0.1159 0.12003 0.54954 0.0
H4157 H 0.11211 0.08949 0.52345 0.0
H4158 H 0.11942 0.08171 0.52812 0.0
H4159 H 0.1235 0.09107 0.52252 0.0
C4160 C 0.17727 0.85589 0.7654 0.0
C4161 C 0.17606 0.86293 0.7598 0.0
C4162 C 0.18127 0.85694 0.77349 0.0
C4163 C 0.18416 0.86523 0.77607 0.0
C4164 C 0.18296 0.87236 0.77045 0.0
C4165 C 0.17895 0.87112 0.7624 0.0
C4166 C 0.18242 0.84918 0.77928 0.0
C4167 C 0.18597 0.8813 0.77292 0.0
C4168 C 0.18792 0.86968 0.8 0.0
C4169 C 0.19693 0.86885 0.80069 0.0
C4170 C 0.18368 0.86851 0.79205 0.0
C4171 C 0.18855 0.86644 0.78458 0.0
C4172 C 0.19763 0.86561 0.78523 0.0
C4173 C 0.2017 0.86684 0.79325 0.0
C4174 C 0.17398 0.86945 0.79164 0.0
C4175 C 0.20307 0.86345 0.77744 0.0
H4176 H 0.17497 0.84956 0.76351 0.0
H4177 H 0.17818 0.87658 0.75808 0.0
H4178 H 0.18937 0.84818 0.78069 0.0
H4179 H 0.17912 0.85029 0.78554 0.0
H4180 H 0.1798 0.84318 0.77635 0.0
H4181 H 0.18445 0.88618 0.76789 0.0
H4182 H 0.18287 0.8833 0.77906 0.0
H4183 H 0.19305 0.88127 0.77402 0.0
H4184 H 0.18415 0.87113 0.80571 0.0
H4185 H 0.20867 0.86632 0.79366 0.0
H4186 H 0.17104 0.86335 0.78932 0.0
H4187 H 0.17222 0.87458 0.78695 0.0
H4188 H 0.17113 0.87109 0.79801 0.0
H4189 H 0.20092 0.85724 0.77461 0.0
H4190 H 0.21005 0.86294 0.77903 0.0
H4191 H 0.20223 0.86849 0.7724 0.0
C4192 C 0.43373 0.93189 1.01255 0.0
C4193 C 0.4279 0.92565 1.00951 0.0
C4194 C 0.43255 0.93589 0.02062 0.0
C4195 C 0.42535 0.93364 0.02579 0.0
C4196 C 0.4195 0.92728 0.02283 0.0
C4197 C 0.42085 0.92335 1.01476 0.0
C4198 C 0.43896 0.94263 0.02354 0.0
C4199 C 0.41175 0.92468 0.02814 0.0
C4200 C 0.42583 0.93902 0.04983 0.0
C4201 C 0.421 0.9467 0.05013 0.0
C4202 C 0.42729 0.9347 0.04197 0.0
C4203 C 0.42382 0.9381 0.03421 0.0
C4204 C 0.41887 0.94579 0.03449 0.0
C4205 C 0.41753 0.94999 0.04242 0.0
C4206 C 0.43264 0.92655 0.04196 0.0
C4207 C 0.41498 0.9496 0.02639 0.0
H4208 H 0.43913 0.9338 1.00853 0.0
H4209 H 0.41639 0.91842 1.01257 0.0
H4210 H 0.43566 0.94895 0.02428 0.0
H4211 H 0.44163 0.94086 0.02995 0.0
H4212 H 0.44439 0.94342 1.01893 0.0
H4213 H 0.40787 0.91954 0.02498 0.0
H4214 H 0.41386 0.92232 0.03457 0.0
H4215 H 0.40753 0.93037 0.02923 0.0
H4216 H 0.42862 0.93648 0.05572 0.0
H4217 H 0.41369 0.95584 0.04259 0.0
H4218 H 0.43842 0.92744 0.03783 0.0
H4219 H 0.42885 0.92114 0.03918 0.0
H4220 H 0.43479 0.92468 0.04855 0.0
H4221 H 0.42016 0.95112 0.02168 0.0
H4222 H 0.41125 0.95559 0.0277 0.0
H4223 H 0.41062 0.94483 0.0233 0.0
C4224 C 0.3425 0.86154 0.2449 0.0
C4225 C 0.34479 0.86849 0.23952 0.0
C4226 C 0.34663 0.86018 0.25287 0.0
C4227 C 0.35327 0.86586 0.25556 0.0
C4228 C 0.35574 0.87279 0.25009 0.0
C4229 C 0.35147 0.87402 0.24216 0.0
C4230 C 0.34381 0.85271 0.25847 0.0
C4231 C 0.36279 0.87899 0.2527 0.0
C4232 C 0.35791 0.86775 0.27964 0.0
C4233 C 0.36526 0.86252 0.28061 0.0
C4234 C 0.35396 0.86888 0.27155 0.0
C4235 C 0.35744 0.86471 0.26419 0.0
C4236 C 0.36485 0.85941 0.26512 0.0
C4237 C 0.36865 0.85836 0.27331 0.0
C4238 C 0.34602 0.87451 0.27087 0.0
C4239 C 0.36881 0.8549 0.25744 0.0
H4240 H 0.33747 0.85713 0.24286 0.0
H4241 H 0.35324 0.87946 0.23812 0.0
H4242 H 0.3494 0.84846 0.25991 0.0
H4243 H 0.34135 0.85516 0.26473 0.0
H4244 H 0.33867 0.84877 0.25539 0.0
H4245 H 0.36421 0.88382 0.24758 0.0
H4246 H 0.36087 0.88247 0.25865 0.0
H4247 H 0.36881 0.87539 0.2542 0.0
H4248 H 0.35517 0.87089 0.28526 0.0
H4249 H 0.37439 0.85439 0.27397 0.0
H4250 H 0.34053 0.87069 0.26832 0.0
H4251 H 0.34721 0.87987 0.26627 0.0
H4252 H 0.34412 0.87731 0.27719 0.0
H4253 H 0.36397 0.85059 0.25439 0.0
H4254 H 0.37456 0.851 0.25923 0.0
H4255 H 0.37075 0.85973 0.25251 0.0
C4256 C 0.4297 0.10705 0.52936 0.0
C4257 C 0.42893 0.11604 0.53022 0.0
C4258 C 0.42854 0.10298 0.52133 0.0
C4259 C 0.4266 0.10802 0.51393 0.0
C4260 C 0.4259 0.11711 0.51473 0.0
C4261 C 0.42706 0.121 0.52285 0.0
C4262 C 0.42932 0.09328 0.52077 0.0
C4263 C 0.4239 0.12272 0.50701 0.0
C4264 C 0.43103 0.09815 0.49183 0.0
C4265 C 0.42278 0.09536 0.48931 0.0
C4266 C 0.43235 0.10234 0.49978 0.0
C4267 C 0.42526 0.10377 0.50537 0.0
C4268 C 0.4169 0.10105 0.50283 0.0
C4269 C 0.41576 0.0969 0.49483 0.0
C4270 C 0.44136 0.10519 0.5022 0.0
C4271 C 0.40917 0.10242 0.50861 0.0
H4272 H 0.43104 0.10315 0.53503 0.0
H4273 H 0.42656 0.12796 0.52342 0.0
H4274 H 0.42315 0.09048 0.51844 0.0
H4275 H 0.43439 0.0915 0.51604 0.0
H4276 H 0.43094 0.09029 0.5271 0.0
H4277 H 0.42365 0.12969 0.50869 0.0
H4278 H 0.42887 0.12177 0.50195 0.0
H4279 H 0.41759 0.12083 0.50418 0.0
H4280 H 0.43647 0.0971 0.48756 0.0
H4281 H 0.40938 0.09468 0.493 0.0
H4282 H 0.4434 0.10192 0.50824 0.0
H4283 H 0.44143 0.11224 0.50347 0.0
H4284 H 0.44616 0.10373 0.49708 0.0
H4285 H 0.41016 0.09899 0.51483 0.0
H4286 H 0.40309 0.10006 0.50564 0.0
H4287 H 0.40844 0.10939 0.51011 0.0
C4288 C 0.18737 0.17043 0.74054 0.0
C4289 C 0.19612 0.17259 0.73954 0.0
C4290 C 0.18312 0.17154 0.7485 0.0
C4291 C 0.18771 0.17491 0.75566 0.0
C4292 C 0.19654 0.1771 0.7547 0.0
C4293 C 0.20063 0.1759 0.74668 0.0
C4294 C 0.1737 0.16912 0.74924 0.0
C4295 C 0.20169 0.18068 0.76216 0.0
C4296 C 0.17523 0.18496 0.77435 0.0
C4297 C 0.17525 0.17826 0.78047 0.0
C4298 C 0.17921 0.18395 0.76625 0.0
C4299 C 0.18333 0.17604 0.76418 0.0
C4300 C 0.18338 0.16926 0.77032 0.0
C4301 C 0.17935 0.17044 0.77837 0.0
C4302 C 0.17899 0.19134 0.75989 0.0
C4303 C 0.18774 0.16074 0.76841 0.0
H4304 H 0.18379 0.16796 0.73506 0.0
H4305 H 0.20742 0.17746 0.74604 0.0
H4306 H 0.17286 0.16413 0.75432 0.0
H4307 H 0.16986 0.17484 0.75122 0.0
H4308 H 0.17104 0.1666 0.74308 0.0
H4309 H 0.20847 0.18218 0.76033 0.0
H4310 H 0.19861 0.18666 0.7646 0.0
H4311 H 0.20177 0.17596 0.76755 0.0
H4312 H 0.17198 0.19098 0.77586 0.0
H4313 H 0.17953 0.16527 0.78308 0.0
H4314 H 0.17581 0.18925 0.75382 0.0
H4315 H 0.18568 0.19331 0.75822 0.0
H4316 H 0.17549 0.19705 0.76246 0.0
H4317 H 0.18489 0.15782 0.76252 0.0
H4318 H 0.18711 0.15607 0.77382 0.0
H4319 H 0.1947 0.16181 0.76711 0.0
C4320 C 0.12532 0.94524 0.99515 0.0
C4321 C 0.11855 0.94577 0.98914 0.0
C4322 C 0.12418 0.94113 1.00317 0.0
C4323 C 0.11607 0.93742 1.00525 0.0
C4324 C 0.10924 0.93785 0.99918 0.0
C4325 C 0.11056 0.94203 0.99122 0.0
C4326 C 0.13162 0.94085 1.00947 0.0
C4327 C 0.10053 0.93392 1.0011 0.0
C4328 C 0.11539 0.9203 0.02296 0.0
C4329 C 0.11246 0.92506 0.0301 0.0
C4330 C 0.11654 0.92422 1.01484 0.0
C4331 C 0.11473 0.93313 1.0138 0.0
C4332 C 0.11171 0.93795 0.02096 0.0
C4333 C 0.1106 0.93387 0.029 0.0
C4334 C 0.11972 0.91882 1.00738 0.0
C4335 C 0.10973 0.94747 1.02014 0.0
H4336 H 0.13149 0.9482 0.99365 0.0
H4337 H 0.10533 0.94231 0.98658 0.0
H4338 H 0.12978 0.94418 1.01554 0.0
H4339 H 0.13315 0.93405 1.01116 0.0
H4340 H 0.13753 0.94396 1.00685 0.0
H4341 H 0.09592 0.93471 0.99566 0.0
H4342 H 0.10126 0.92693 1.0025 0.0
H4343 H 0.09771 0.93697 1.00694 0.0
H4344 H 0.11673 0.91347 0.0237 0.0
H4345 H 0.10844 0.93762 0.03449 0.0
H4346 H 0.1259 0.92147 1.00491 0.0
H4347 H 0.115 0.91908 1.00199 0.0
H4348 H 0.12074 0.91196 1.00922 0.0
H4349 H 0.11563 0.95102 1.01815 0.0
H4350 H 0.10732 0.95028 0.02628 0.0
H4351 H 0.1048 0.94853 1.01505 0.0
C4352 C 0.30009 0.35334 0.17 0.0
C4353 C 0.3011 0.34458 0.17212 0.0
C4354 C 0.29213 0.35758 0.17115 0.0
C4355 C 0.28498 0.35297 0.17453 0.0
C4356 C 0.28596 0.34414 0.1767 0.0
C4357 C 0.29398 0.34005 0.17546 0.0
C4358 C 0.29137 0.367 0.16875 0.0
C4359 C 0.27851 0.33897 0.18029 0.0
C4360 C 0.26626 0.36544 0.18458 0.0
C4361 C 0.26015 0.36544 0.17787 0.0
C4362 C 0.27436 0.36145 0.18357 0.0
C4363 C 0.27644 0.35733 0.17567 0.0
C4364 C 0.27031 0.3573 0.16889 0.0
C4365 C 0.26226 0.36133 0.17007 0.0
C4366 C 0.28072 0.36165 0.19096 0.0
C4367 C 0.27223 0.35296 0.16038 0.0
H4368 H 0.30557 0.35693 0.16752 0.0
H4369 H 0.29462 0.33325 0.177 0.0
H4370 H 0.2863 0.36785 0.16376 0.0
H4371 H 0.28937 0.37082 0.17447 0.0
H4372 H 0.29753 0.36968 0.16624 0.0
H4373 H 0.28036 0.3322 0.1818 0.0
H4374 H 0.27605 0.34205 0.18627 0.0
H4375 H 0.27311 0.33888 0.17558 0.0
H4376 H 0.26475 0.36867 0.19059 0.0
H4377 H 0.25755 0.36118 0.16489 0.0
H4378 H 0.28679 0.36484 0.18888 0.0
H4379 H 0.28241 0.35496 0.19292 0.0
H4380 H 0.27814 0.36512 0.19668 0.0
H4381 H 0.27811 0.35581 0.15745 0.0
H4382 H 0.26681 0.35358 0.15572 0.0
H4383 H 0.27356 0.34599 0.16145 0.0
C4384 C 0.79822 0.19429 0.85967 0.0
C4385 C 0.80158 0.19552 0.868 0.0
C4386 C 0.79028 0.19009 0.85836 0.0
C4387 C 0.78554 0.18702 0.86556 0.0
C4388 C 0.78894 0.18812 0.87398 0.0
C4389 C 0.79691 0.19234 0.8751 0.0
C4390 C 0.78693 0.189 0.84928 0.0
C4391 C 0.7841 0.18497 0.88183 0.0
C4392 C 0.76127 0.18374 0.86297 0.0
C4393 C 0.76066 0.17475 0.86194 0.0
C4394 C 0.7693 0.1878 0.86416 0.0
C4395 C 0.77696 0.18278 0.86428 0.0
C4396 C 0.7764 0.17371 0.86318 0.0
C4397 C 0.76827 0.16982 0.86204 0.0
C4398 C 0.7696 0.19747 0.86536 0.0
C4399 C 0.78439 0.16812 0.86319 0.0
H4400 H 0.80183 0.1966 0.85413 0.0
H4401 H 0.79939 0.19334 0.88156 0.0
H4402 H 0.78578 0.18206 0.84792 0.0
H4403 H 0.78064 0.19237 0.84858 0.0
H4404 H 0.79147 0.19159 0.84436 0.0
H4405 H 0.7877 0.18614 0.88791 0.0
H4406 H 0.77775 0.18827 0.88224 0.0
H4407 H 0.7828 0.17794 0.88126 0.0
H4408 H 0.75542 0.1876 0.86302 0.0
H4409 H 0.76788 0.16289 0.86114 0.0
H4410 H 0.77369 0.20045 0.86029 0.0
H4411 H 0.77258 0.19904 0.87168 0.0
H4412 H 0.76308 0.20046 0.86508 0.0
H4413 H 0.78886 0.17026 0.85801 0.0
H4414 H 0.78287 0.16118 0.8622 0.0
H4415 H 0.78787 0.16884 0.86941 0.0
C4416 C 0.10211 0.54876 0.12311 0.0
C4417 C 0.09451 0.55083 0.1186 0.0
C4418 C 0.10635 0.54083 0.12181 0.0
C4419 C 0.10292 0.53477 0.11589 0.0
C4420 C 0.09532 0.53686 0.11124 0.0
C4421 C 0.09124 0.54485 0.11263 0.0
C4422 C 0.11445 0.53887 0.12689 0.0
C4423 C 0.09144 0.5306 0.10485 0.0
C4424 C 0.11739 0.5168 0.10724 0.0
C4425 C 0.11502 0.50977 0.11246 0.0
C4426 C 0.11355 0.52497 0.10829 0.0
C4427 C 0.10713 0.52616 0.11471 0.0
C4428 C 0.10467 0.51908 0.11996 0.0
C4429 C 0.10864 0.511 0.11879 0.0
C4430 C 0.11639 0.53235 0.10258 0.0
C4431 C 0.0978 0.52004 0.12682 0.0
H4432 H 0.10466 0.55328 0.1278 0.0
H4433 H 0.08547 0.54643 0.10899 0.0
H4434 H 0.11336 0.53316 0.13109 0.0
H4435 H 0.11981 0.53723 0.12243 0.0
H4436 H 0.11649 0.54438 0.13099 0.0
H4437 H 0.08557 0.53325 0.10166 0.0
H4438 H 0.09625 0.52896 0.09981 0.0
H4439 H 0.08968 0.52451 0.10818 0.0
H4440 H 0.12238 0.51595 0.10241 0.0
H4441 H 0.10667 0.50559 0.12278 0.0
H4442 H 0.11896 0.53768 0.1066 0.0
H4443 H 0.11078 0.53494 0.09895 0.0
H4444 H 0.12144 0.53037 0.09789 0.0
H4445 H 0.09973 0.52509 0.13151 0.0
H4446 H 0.09664 0.51392 0.13039 0.0
H4447 H 0.09164 0.52215 0.12383 0.0
C4448 C 0.77978 0.8574 0.36108 0.0
C4449 C 0.78066 0.86639 0.36184 0.0
C4450 C 0.77173 0.85334 0.36222 0.0
C4451 C 0.76434 0.85839 0.36415 0.0
C4452 C 0.76516 0.86747 0.36485 0.0
C4453 C 0.77329 0.87135 0.3637 0.0
C4454 C 0.77115 0.84364 0.36144 0.0
C4455 C 0.75744 0.87309 0.36683 0.0
C4456 C 0.7422 0.84858 0.35968 0.0
C4457 C 0.73965 0.84578 0.36793 0.0
C4458 C 0.75017 0.85275 0.35837 0.0
C4459 C 0.75576 0.85415 0.36547 0.0
C4460 C 0.7532 0.85142 0.37382 0.0
C4461 C 0.74518 0.84729 0.37495 0.0
C4462 C 0.75261 0.85561 0.34938 0.0
C4463 C 0.75898 0.85276 0.38156 0.0
H4464 H 0.78544 0.8535 0.35975 0.0
H4465 H 0.77387 0.87831 0.36419 0.0
H4466 H 0.7688 0.84084 0.36761 0.0
H4467 H 0.76642 0.84188 0.35637 0.0
H4468 H 0.77747 0.84065 0.35984 0.0
H4469 H 0.75914 0.88006 0.36709 0.0
H4470 H 0.75238 0.87216 0.36185 0.0
H4471 H 0.7546 0.87119 0.37313 0.0
H4472 H 0.73793 0.84755 0.35424 0.0
H4473 H 0.74333 0.84506 0.38132 0.0
H4474 H 0.75865 0.85233 0.34735 0.0
H4475 H 0.7539 0.86266 0.34931 0.0
H4476 H 0.74749 0.85417 0.34457 0.0
H4477 H 0.76519 0.84932 0.38058 0.0
H4478 H 0.75599 0.8504 0.38763 0.0
H4479 H 0.76049 0.85972 0.3823 0.0
C4480 C 0.94013 0.99257 0.12428 0.0
C4481 C 0.94619 0.98956 0.11824 0.0
C4482 C 0.93586 1.00051 0.12309 0.0
C4483 C 0.93768 1.0056 0.11571 0.0
C4484 C 0.94368 1.00254 0.10952 0.0
C4485 C 0.94783 0.99457 0.11085 0.0
C4486 C 0.9295 1.00353 0.12983 0.0
C4487 C 0.9458 1.00774 0.10154 0.0
C4488 C 0.92186 0.02325 0.10888 0.0
C4489 C 0.92575 0.03069 0.1123 0.0
C4490 C 0.92563 1.01504 0.10998 0.0
C4491 C 0.93352 1.01425 0.11456 0.0
C4492 C 0.9375 0.02174 0.11798 0.0
C4493 C 0.93356 0.02984 0.11683 0.0
C4494 C 0.92115 1.00722 0.10628 0.0
C4495 C 0.94594 0.0212 0.12282 0.0
H4496 H 0.93887 0.98881 0.13005 0.0
H4497 H 0.95237 0.99224 0.10606 0.0
H4498 H 0.93184 1.0096 0.13282 0.0
H4499 H 0.92317 1.00496 0.12679 0.0
H4500 H 0.92851 0.99866 0.13502 0.0
H4501 H 0.95047 1.00438 0.09727 0.0
H4502 H 0.93982 1.00907 0.09782 0.0
H4503 H 0.94858 1.01406 0.10343 0.0
H4504 H 0.91578 0.02382 0.10546 0.0
H4505 H 0.93666 0.03556 0.11939 0.0
H4506 H 0.91966 1.00256 0.11152 0.0
H4507 H 0.92548 1.00389 0.10165 0.0
H4508 H 0.91505 1.00892 0.10291 0.0
H4509 H 0.94524 1.01686 0.12849 0.0
H4510 H 0.94819 0.02761 0.1251 0.0
H4511 H 0.951 1.01837 0.11861 0.0
C4512 C 0.27986 0.68447 0.6777 0.0
C4513 C 0.28051 0.67543 0.67808 0.0
C4514 C 0.27184 0.68857 0.67647 0.0
C4515 C 0.26425 0.68353 0.67563 0.0
C4516 C 0.26485 0.67441 0.67607 0.0
C4517 C 0.27296 0.67048 0.67727 0.0
C4518 C 0.2715 0.6983 0.67599 0.0
C4519 C 0.25692 0.66879 0.67527 0.0
C4520 C 0.24266 0.69448 0.68011 0.0
C4521 C 0.23965 0.69629 0.67174 0.0
C4522 C 0.25059 0.69027 0.68146 0.0
C4523 C 0.25569 0.6878 0.67428 0.0
C4524 C 0.25265 0.68953 0.66582 0.0
C4525 C 0.24468 0.69373 0.66465 0.0
C4526 C 0.25355 0.6885 0.69058 0.0
C4527 C 0.25789 0.68704 0.65799 0.0
H4528 H 0.28566 0.68835 0.67821 0.0
H4529 H 0.27337 0.6635 0.67766 0.0
H4530 H 0.26881 0.70035 0.66968 0.0
H4531 H 0.26715 0.70084 0.68108 0.0
H4532 H 0.27797 0.70129 0.6768 0.0
H4533 H 0.25846 0.6618 0.67581 0.0
H4534 H 0.2522 0.67049 0.68038 0.0
H4535 H 0.25373 0.66997 0.66897 0.0
H4536 H 0.23877 0.69632 0.68562 0.0
H4537 H 0.24247 0.69519 0.65817 0.0
H4538 H 0.25977 0.69184 0.69181 0.0
H4539 H 0.2547 0.68148 0.69148 0.0
H4540 H 0.24877 0.69068 0.69546 0.0
H4541 H 0.26422 0.69039 0.65813 0.0
H4542 H 0.25457 0.68869 0.65185 0.0
H4543 H 0.25922 0.68 0.65807 0.0
C4544 C 0.09023 0.49702 0.42526 0.0
C4545 C 0.09489 0.48968 0.42266 0.0
C4546 C 0.09434 0.50503 0.42646 0.0
C4547 C 0.10334 0.50577 0.42502 0.0
C4548 C 0.10809 0.4984 0.42238 0.0
C4549 C 0.10382 0.49046 0.42124 0.0
C4550 C 0.08902 0.51272 0.42925 0.0
C4551 C 0.11769 0.49891 0.42077 0.0
C4552 C 0.11241 0.52816 0.42029 0.0
C4553 C 0.11586 0.53057 0.42833 0.0
C4554 C 0.10838 0.52011 0.41912 0.0
C4555 C 0.10774 0.51428 0.42615 0.0
C4556 C 0.1112 0.51666 0.43428 0.0
C4557 C 0.1152 0.52476 0.43527 0.0
C4558 C 0.10476 0.51786 0.41036 0.0
C4559 C 0.11067 0.51064 0.44194 0.0
H4560 H 0.08332 0.49655 0.42624 0.0
H4561 H 0.1075 0.48482 0.41934 0.0
H4562 H 0.09162 0.51539 0.43536 0.0
H4563 H 0.08944 0.51789 0.42431 0.0
H4564 H 0.08211 0.51105 0.43023 0.0
H4565 H 0.12046 0.4926 0.41878 0.0
H4566 H 0.11905 0.50373 0.41565 0.0
H4567 H 0.12105 0.50111 0.42671 0.0
H4568 H 0.11276 0.53263 0.41492 0.0
H4569 H 0.11793 0.5265 0.44147 0.0
H4570 H 0.09771 0.5167 0.41086 0.0
H4571 H 0.10774 0.5118 0.40797 0.0
H4572 H 0.10589 0.52304 0.40552 0.0
H4573 H 0.10381 0.50915 0.44339 0.0
H4574 H 0.1137 0.51342 0.44781 0.0
H4575 H 0.11391 0.50444 0.44041 0.0
C4576 C 0.43262 0.51109 0.92191 0.0
C4577 C 0.4257 0.51008 0.92769 0.0
C4578 C 0.43662 0.51915 0.92073 0.0
C4579 C 0.43364 0.52643 0.92539 0.0
C4580 C 0.42667 0.52546 0.93124 0.0
C4581 C 0.4228 0.5173 0.93233 0.0
C4582 C 0.44409 0.51988 0.91449 0.0
C4583 C 0.42325 0.53305 0.9363 0.0
C4584 C 0.44917 0.54533 0.92806 0.0
C4585 C 0.44644 0.55101 0.92153 0.0
C4586 C 0.44502 0.53737 0.92944 0.0
C4587 C 0.4379 0.53502 0.92421 0.0
C4588 C 0.435 0.54078 0.91771 0.0
C4589 C 0.43931 0.54869 0.91644 0.0
C4590 C 0.44831 0.53144 0.93645 0.0
C4591 C 0.42742 0.53854 0.912 0.0
H4592 H 0.43498 0.50553 0.91838 0.0
H4593 H 0.4174 0.51661 0.93673 0.0
H4594 H 0.44258 0.5247 0.90941 0.0
H4595 H 0.44993 0.52218 0.91794 0.0
H4596 H 0.44562 0.51362 0.91134 0.0
H4597 H 0.41778 0.53124 0.94058 0.0
H4598 H 0.42848 0.53585 0.94032 0.0
H4599 H 0.42105 0.53819 0.93181 0.0
H4600 H 0.45457 0.54711 0.93214 0.0
H4601 H 0.43719 0.55297 0.91132 0.0
H4602 H 0.45042 0.52522 0.93359 0.0
H4603 H 0.44305 0.52997 0.94109 0.0
H4604 H 0.45383 0.53427 0.94006 0.0
H4605 H 0.42894 0.53267 0.90818 0.0
H4606 H 0.42575 0.54385 0.90747 0.0
H4607 H 0.42168 0.53704 0.91601 0.0
C4608 C 0.87068 0.7486 0.7026 0.0
C4609 C 0.87095 0.74084 0.69793 0.0
C4610 C 0.86933 0.75657 0.69846 0.0
C4611 C 0.86824 0.75684 0.68938 0.0
C4612 C 0.86857 0.74905 0.6846 0.0
C4613 C 0.86992 0.74116 0.68892 0.0
C4614 C 0.86906 0.76472 0.7038 0.0
C4615 C 0.86744 0.74904 0.67492 0.0
C4616 C 0.85705 0.77654 0.67965 0.0
C4617 C 0.86408 0.78147 0.67671 0.0
C4618 C 0.8583 0.76851 0.68373 0.0
C4619 C 0.86679 0.76528 0.68491 0.0
C4620 C 0.87391 0.7702 0.68195 0.0
C4621 C 0.87247 0.77822 0.67791 0.0
C4622 C 0.85053 0.76347 0.68679 0.0
C4623 C 0.88306 0.76702 0.68309 0.0
H4624 H 0.8716 0.74846 0.70954 0.0
H4625 H 0.87002 0.7352 0.68526 0.0
H4626 H 0.87416 0.76925 0.70161 0.0
H4627 H 0.86276 0.76803 0.7029 0.0
H4628 H 0.86999 0.76342 0.7108 0.0
H4629 H 0.86795 0.74246 0.67213 0.0
H4630 H 0.86104 0.75178 0.67321 0.0
H4631 H 0.87241 0.75321 0.67188 0.0
H4632 H 0.85054 0.77892 0.67866 0.0
H4633 H 0.87796 0.78201 0.6758 0.0
H4634 H 0.85096 0.7624 0.69386 0.0
H4635 H 0.85042 0.75702 0.68368 0.0
H4636 H 0.84436 0.76684 0.68535 0.0
H4637 H 0.8845 0.76619 0.69006 0.0
H4638 H 0.88788 0.77153 0.68027 0.0
H4639 H 0.88384 0.76061 0.67999 0.0
C4640 C 0.0425 0.12123 0.45224 0.0
C4641 C 0.05036 0.12068 0.44774 0.0
C4642 C 0.03456 0.11985 0.44806 0.0
C4643 C 0.03442 0.11789 0.43913 0.0
C4644 C 0.04232 0.11739 0.43452 0.0
C4645 C 0.05018 0.11879 0.43887 0.0
C4646 C 0.02631 0.12049 0.45321 0.0
C4647 C 0.04246 0.11531 0.42501 0.0
C4648 C 1.01439 0.10672 0.43015 0.0
C4649 C 1.00984 0.11364 0.42644 0.0
C4650 C 0.02241 0.10799 0.43424 0.0
C4651 C 0.02601 0.11639 0.43463 0.0
C4652 C 0.02148 0.1234 0.43087 0.0
C4653 C 1.01347 0.12195 0.42685 0.0
C4654 C 0.02702 0.10034 0.43817 0.0
C4655 C 0.02507 0.13246 0.43115 0.0
H4656 H 0.04255 0.12281 0.45905 0.0
H4657 H 0.0562 0.11825 0.43535 0.0
H4658 H 0.02207 0.12556 0.45041 0.0
H4659 H 0.02273 0.1143 0.45287 0.0
H4660 H 0.02751 0.12206 0.4601 0.0
H4661 H 0.04912 0.11523 0.42234 0.0
H4662 H 0.03946 0.1089 0.42388 0.0
H4663 H 0.03859 0.12014 0.42139 0.0
H4664 H 1.01172 0.10026 0.42978 0.0
H4665 H 1.00998 0.12738 0.42413 0.0
H4666 H 0.02796 0.1014 0.44519 0.0
H4667 H 0.03352 0.09963 0.43524 0.0
H4668 H 0.0234 0.09421 0.43725 0.0
H4669 H 0.02583 0.13456 0.43796 0.0
H4670 H 0.02086 0.13718 0.42775 0.0
H4671 H 0.03158 0.13262 0.42815 0.0
C4672 C 0.67568 0.26018 0.18572 0.0
C4673 C 0.67796 0.25967 0.17696 0.0
C4674 C 0.6743 0.2682 0.18974 0.0
C4675 C 0.67527 0.27593 0.18493 0.0
C4676 C 0.67763 0.27546 0.1761 0.0
C4677 C 0.67892 0.26735 0.17223 0.0
C4678 C 0.67175 0.26841 0.19915 0.0
C4679 C 0.6788 0.28353 0.17075 0.0
C4680 C 0.66425 0.2963 0.19333 0.0
C4681 C 0.67107 0.30052 0.19755 0.0
C4682 C 0.66554 0.28834 0.18914 0.0
C4683 C 0.67385 0.2845 0.18914 0.0
C4684 C 0.68078 0.28879 0.19328 0.0
C4685 C 0.67932 0.29673 0.19742 0.0
C4686 C 0.65797 0.28398 0.18482 0.0
C4687 C 0.68975 0.28495 0.19338 0.0
H4688 H 0.6748 0.25429 0.1894 0.0
H4689 H 0.68078 0.26702 0.16549 0.0
H4690 H 0.67656 0.27217 0.2029 0.0
H4691 H 0.66543 0.2717 0.19988 0.0
H4692 H 0.67126 0.26183 0.20199 0.0
H4693 H 0.68067 0.28207 0.16399 0.0
H4694 H 0.67272 0.28732 0.17068 0.0
H4695 H 0.68386 0.28768 0.17368 0.0
H4696 H 0.65785 0.29912 0.19348 0.0
H4697 H 0.68466 0.29999 0.20054 0.0
H4698 H 0.65677 0.27762 0.18789 0.0
H4699 H 0.65945 0.28278 0.17792 0.0
H4700 H 0.65196 0.2879 0.18523 0.0
H4701 H 0.68964 0.27858 0.19666 0.0
H4702 H 0.69448 0.28917 0.19674 0.0
H4703 H 0.69203 0.28386 0.18668 0.0
C4704 C 0.52639 0.93396 0.92795 0.0
C4705 C 0.53187 0.92691 0.92636 0.0
C4706 C 0.51829 0.93283 0.93193 0.0
C4707 C 0.51558 0.92444 0.9344 0.0
C4708 C 0.52107 0.9173 0.9328 0.0
C4709 C 0.52913 0.91861 0.92882 0.0
C4710 C 0.51264 0.94061 0.9335 0.0
C4711 C 0.51846 0.90825 0.93536 0.0
C4712 C 0.49851 0.92226 0.95199 0.0
C4713 C 0.49098 0.92065 0.94719 0.0
C4714 C 0.50653 0.92352 0.94791 0.0
C4715 C 0.50708 0.92314 0.9388 0.0
C4716 C 0.49952 0.92147 0.93391 0.0
C4717 C 0.49158 0.92025 0.93816 0.0
C4718 C 0.51442 0.92525 0.95338 0.0
C4719 C 0.49983 0.92102 0.92418 0.0
H4720 H 0.52838 0.94037 0.92597 0.0
H4721 H 0.53335 0.91313 0.92776 0.0
H4722 H 0.50633 0.93977 0.93022 0.0
H4723 H 0.51132 0.94128 0.94051 0.0
H4724 H 0.51565 0.94669 0.93115 0.0
H4725 H 0.52338 0.90337 0.93353 0.0
H4726 H 0.51743 0.90791 0.94244 0.0
H4727 H 0.51225 0.90653 0.93223 0.0
H4728 H 0.49817 0.92244 0.95897 0.0
H4729 H 0.4858 0.91911 0.93438 0.0
H4730 H 0.51734 0.93152 0.95153 0.0
H4731 H 0.51935 0.92018 0.95222 0.0
H4732 H 0.5129 0.9254 0.96039 0.0
H4733 H 0.50222 0.92723 0.92152 0.0
H4734 H 0.4934 0.91963 0.92131 0.0
H4735 H 0.50442 0.91592 0.92212 0.0
C4736 C 0.87245 0.26293 0.8632 0.0
C4737 C 0.86411 0.2594 0.8637 0.0
C4738 C 0.87396 0.27094 0.85919 0.0
C4739 C 0.86696 0.27556 0.85551 0.0
C4740 C 0.85852 0.27205 0.85598 0.0
C4741 C 0.8572 0.26403 0.86007 0.0
C4742 C 0.88306 0.27443 0.85881 0.0
C4743 C 0.85089 0.27676 0.85215 0.0
C4744 C 0.86956 0.29973 0.85139 0.0
C4745 C 0.87137 0.29995 0.84251 0.0
C4746 C 0.86812 0.29185 0.8557 0.0
C4747 C 0.8685 0.28399 0.85105 0.0
C4748 C 0.87039 0.28417 0.8421 0.0
C4749 C 0.87181 0.29212 0.83796 0.0
C4750 C 0.86613 0.29195 0.86524 0.0
C4751 C 0.8709 0.27594 0.8369 0.0
H4752 H 0.87787 0.25936 0.86585 0.0
H4753 H 0.85071 0.26144 0.86051 0.0
H4754 H 0.88509 0.27521 0.85199 0.0
H4755 H 0.88332 0.28091 0.86185 0.0
H4756 H 0.88776 0.27014 0.86213 0.0
H4757 H 0.84473 0.2732 0.85311 0.0
H4758 H 0.85027 0.28324 0.85513 0.0
H4759 H 0.8519 0.27774 0.84513 0.0
H4760 H 0.8691 0.30573 0.85494 0.0
H4761 H 0.87334 0.2922 0.83113 0.0
H4762 H 0.87095 0.288 0.86879 0.0
H4763 H 0.85971 0.28901 0.86642 0.0
H4764 H 0.86616 0.29859 0.86795 0.0
H4765 H 0.87594 0.27163 0.83961 0.0
H4766 H 0.87242 0.27718 0.82999 0.0
H4767 H 0.86467 0.27243 0.83728 0.0
C4768 C 0.49881 0.12118 0.5883 0.0
C4769 C 0.49097 0.12083 0.59285 0.0
C4770 C 0.50676 0.1198 0.59248 0.0
C4771 C 0.50692 0.11804 0.60145 0.0
C4772 C 0.49905 0.11774 0.60611 0.0
C4773 C 0.49118 0.11914 0.60176 0.0
C4774 C 0.51499 0.12022 0.58727 0.0
C4775 C 0.49893 0.11589 0.61567 0.0
C4776 C 0.52687 0.10685 0.61065 0.0
C4777 C 0.5315 0.11381 0.61416 0.0
C4778 C 0.51885 0.10812 0.60655 0.0
C4779 C 0.51534 0.11655 0.60595 0.0
C4780 C 0.51995 0.1236 0.6095 0.0
C4781 C 0.52796 0.12214 0.61354 0.0
C4782 C 0.51415 0.10044 0.60284 0.0
C4783 C 0.51646 0.13269 0.60899 0.0
H4784 H 0.49875 0.12261 0.58145 0.0
H4785 H 0.48517 0.11875 0.60532 0.0
H4786 H 0.5193 0.1253 0.58991 0.0
H4787 H 0.51851 0.11399 0.58775 0.0
H4788 H 0.51377 0.12164 0.58034 0.0
H4789 H 0.49229 0.11595 0.61838 0.0
H4790 H 0.50187 0.10948 0.61696 0.0
H4791 H 0.50287 0.12076 0.61915 0.0
H4792 H 0.52947 0.10037 0.61118 0.0
H4793 H 0.53153 0.12759 0.6161 0.0
H4794 H 0.51318 0.10135 0.5958 0.0
H4795 H 0.50766 0.09987 0.60582 0.0
H4796 H 0.51771 0.09429 0.6039 0.0
H4797 H 0.51569 0.13463 0.60213 0.0
H4798 H 0.52074 0.13744 0.61224 0.0
H4799 H 0.50998 0.133 0.61202 0.0
C4800 C 0.67888 0.74471 0.3431 0.0
C4801 C 0.6707 0.74078 0.34325 0.0
C4802 C 0.68037 0.75263 0.34727 0.0
C4803 C 0.67354 0.75676 0.35173 0.0
C4804 C 0.66531 0.75278 0.35202 0.0
C4805 C 0.66399 0.74484 0.34779 0.0
C4806 C 0.68927 0.75661 0.34684 0.0
C4807 C 0.65785 0.75697 0.35668 0.0
C4808 C 0.67909 0.77385 0.36855 0.0
C4809 C 0.67784 0.78155 0.36392 0.0
C4810 C 0.67772 0.76575 0.36468 0.0
C4811 C 0.67499 0.76531 0.35596 0.0
C4812 C 0.67371 0.77306 0.35125 0.0
C4813 C 0.67517 0.78107 0.35527 0.0
C4814 C 0.67923 0.75765 0.36991 0.0
C4815 C 0.67076 0.7729 0.34196 0.0
H4816 H 0.68414 0.74156 0.33973 0.0
H4817 H 0.65763 0.74191 0.34788 0.0
H4818 H 0.68891 0.76301 0.34363 0.0
H4819 H 0.69179 0.75768 0.35345 0.0
H4820 H 0.69393 0.7525 0.34325 0.0
H4821 H 0.6519 0.75295 0.35649 0.0
H4822 H 0.65959 0.75814 0.36353 0.0
H4823 H 0.65641 0.76334 0.35373 0.0
H4824 H 0.68124 0.77415 0.3752 0.0
H4825 H 0.67408 0.78698 0.35167 0.0
H4826 H 0.68424 0.75361 0.36676 0.0
H4827 H 0.67322 0.75376 0.37018 0.0
H4828 H 0.68134 0.75909 0.37661 0.0
H4829 H 0.67547 0.76926 0.33797 0.0
H4830 H 0.67003 0.77948 0.3392 0.0
H4831 H 0.66448 0.76949 0.34146 0.0
C4832 C 1.01051 0.925 0.10526 0.0
C4833 C 1.00999 0.9277 0.1139 0.0
C4834 C 1.01854 0.92363 0.10125 0.0
C4835 C 0.02627 0.92503 0.10594 0.0
C4836 C 0.02579 0.9278 0.11464 0.0
C4837 C 1.01767 0.92908 0.11851 0.0
C4838 C 1.01876 0.92064 0.09198 0.0
C4839 C 0.03386 0.92945 0.11986 0.0
C4840 C 0.0469 0.91423 0.09787 0.0
C4841 C 0.05089 0.92096 0.09328 0.0
C4842 C 0.03894 0.91548 0.10208 0.0
C4843 C 0.03485 0.92366 0.10172 0.0
C4844 C 0.0389 0.93052 0.09721 0.0
C4845 C 0.04685 0.92909 0.09306 0.0
C4846 C 0.03483 0.908 0.1068 0.0
C4847 C 0.0348 0.93936 0.09671 0.0
H4848 H 1.00462 0.92381 0.10168 0.0
H4849 H 1.01733 0.93126 0.12515 0.0
H4850 H 0.02234 0.92537 0.08796 0.0
H4851 H 0.02224 0.91439 0.09152 0.0
H4852 H 1.01218 0.91981 0.08923 0.0
H4853 H 0.03239 0.93158 0.12654 0.0
H4854 H 0.03783 0.92349 0.12018 0.0
H4855 H 0.03784 0.93448 0.11667 0.0
H4856 H 0.0499 0.90791 0.09801 0.0
H4857 H 0.04993 0.93437 0.08966 0.0
H4858 H 0.02848 0.90647 0.10386 0.0
H4859 H 0.03363 0.90976 0.11363 0.0
H4860 H 0.03892 0.9021 0.10664 0.0
H4861 H 0.02841 0.93891 0.0935 0.0
H4862 H 0.03885 0.94404 0.09309 0.0
H4863 H 0.03369 0.94191 0.10331 0.0
C4864 C 0.68853 0.86891 0.74059 0.0
C4865 C 0.69746 0.87044 0.74037 0.0
C4866 C 0.68417 0.86755 0.74845 0.0
C4867 C 0.68885 0.86773 0.75631 0.0
C4868 C 0.69786 0.86933 0.75614 0.0
C4869 C 0.70204 0.87068 0.7482 0.0
C4870 C 0.67457 0.86586 0.74834 0.0
C4871 C 0.70309 0.86962 0.76437 0.0
C4872 C 0.67692 0.87192 0.77742 0.0
C4873 C 0.67621 0.86358 0.78093 0.0
C4874 C 0.68092 0.87335 0.76939 0.0
C4875 C 0.68435 0.86627 0.76473 0.0
C4876 C 0.68364 0.85783 0.76821 0.0
C4877 C 0.67958 0.85659 0.77625 0.0
C4878 C 0.68155 0.88245 0.76594 0.0
C4879 C 0.68721 0.85011 0.76346 0.0
H4880 H 0.68494 0.86862 0.73458 0.0
H4881 H 0.70891 0.87199 0.74813 0.0
H4882 H 0.6732 0.85945 0.75125 0.0
H4883 H 0.67118 0.87076 0.75231 0.0
H4884 H 0.67185 0.86601 0.74171 0.0
H4885 H 0.71004 0.87093 0.76314 0.0
H4886 H 0.70053 0.87472 0.7687 0.0
H4887 H 0.70252 0.86339 0.76785 0.0
H4888 H 0.67446 0.8774 0.78102 0.0
H4889 H 0.67897 0.85011 0.77883 0.0
H4890 H 0.67852 0.88284 0.75946 0.0
H4891 H 0.68843 0.88429 0.76518 0.0
H4892 H 0.67836 0.88722 0.77023 0.0
H4893 H 0.68421 0.84964 0.75697 0.0
H4894 H 0.68606 0.84396 0.76698 0.0
H4895 H 0.69427 0.85089 0.76249 0.0
C4896 C 0.92603 0.95129 0.49696 0.0
C4897 C 0.92007 0.94789 0.49101 0.0
C4898 C 0.92754 0.94726 0.50495 0.0
C4899 C 0.92304 0.93959 0.50709 0.0
C4900 C 0.91714 0.93603 0.50108 0.0
C4901 C 0.91572 0.94022 0.49313 0.0
C4902 C 0.93391 0.95126 0.51115 0.0
C4903 C 0.91221 0.92787 0.5031 0.0
C4904 C 0.93208 0.92533 0.52507 0.0
C4905 C 0.92687 0.92766 0.53212 0.0
C4906 C 0.93089 0.92912 0.51689 0.0
C4907 C 0.92436 0.93543 0.51571 0.0
C4908 C 0.91912 0.93784 0.52281 0.0
C4909 C 0.92043 0.93393 0.5309 0.0
C4910 C 0.93659 0.92634 0.5095 0.0
C4911 C 0.91213 0.94458 0.52186 0.0
H4912 H 0.92955 0.95712 0.49534 0.0
H4913 H 0.91105 0.93758 0.48864 0.0
H4914 H 0.93059 0.953 0.51725 0.0
H4915 H 0.93905 0.94654 0.5128 0.0
H4916 H 0.93699 0.95716 0.50846 0.0
H4917 H 0.90809 0.92575 0.49762 0.0
H4918 H 0.91677 0.92258 0.50473 0.0
H4919 H 0.90803 0.92891 0.50882 0.0
H4920 H 0.937 0.92042 0.52592 0.0
H4921 H 0.91645 0.93586 0.53632 0.0
H4922 H 0.94011 0.932 0.50686 0.0
H4923 H 0.93258 0.92368 0.5042 0.0
H4924 H 0.94139 0.92137 0.51147 0.0
H4925 H 0.915 0.95079 0.5197 0.0
H4926 H 0.90858 0.94571 0.52799 0.0
H4927 H 0.90744 0.94256 0.51684 0.0
C4928 C 0.85179 0.17257 0.24078 0.0
C4929 C 0.84309 0.16998 0.24066 0.0
C4930 C 0.85614 0.17405 0.24862 0.0
C4931 C 0.85172 0.17291 0.25655 0.0
C4932 C 0.84297 0.17024 0.25647 0.0
C4933 C 0.83878 0.1688 0.24855 0.0
C4934 C 0.86547 0.17689 0.24841 0.0
C4935 C 0.83803 0.1689 0.26477 0.0
C4936 C 0.86463 0.16915 0.27717 0.0
C4937 C 0.86444 0.17733 0.28107 0.0
C4938 C 0.86061 0.16765 0.26917 0.0
C4939 C 0.85623 0.17448 0.26494 0.0
C4940 C 0.85602 0.18276 0.26882 0.0
C4941 C 0.86012 0.18409 0.27681 0.0
C4942 C 0.86099 0.15872 0.26529 0.0
C4943 C 0.85142 0.19022 0.26452 0.0
H4944 H 0.85515 0.17359 0.23473 0.0
H4945 H 0.83211 0.16668 0.24854 0.0
H4946 H 0.86613 0.18326 0.2516 0.0
H4947 H 0.86952 0.17224 0.25207 0.0
H4948 H 0.86801 0.1774 0.24173 0.0
H4949 H 0.83126 0.16682 0.26361 0.0
H4950 H 0.84129 0.16394 0.26879 0.0
H4951 H 0.83793 0.17498 0.26855 0.0
H4952 H 0.86781 0.16384 0.28045 0.0
H4953 H 0.86002 0.19046 0.27969 0.0
H4954 H 0.86387 0.15902 0.25874 0.0
H4955 H 0.85436 0.1561 0.26457 0.0
H4956 H 0.86483 0.15415 0.26928 0.0
H4957 H 0.85418 0.19138 0.25801 0.0
H4958 H 0.85191 0.19628 0.26832 0.0
H4959 H 0.84449 0.18863 0.26365 0.0
C4960 C 0.6071 0.11135 0.02636 0.0
C4961 C 0.61416 0.11414 0.03132 0.0
C4962 C 0.60831 0.10725 1.01835 0.0
C4963 C 0.61678 0.10592 1.01517 0.0
C4964 C 0.62394 0.10874 1.02011 0.0
C4965 C 0.62254 0.11279 0.02811 0.0
C4966 C 0.6005 0.10434 1.01328 0.0
C4967 C 0.63308 0.10743 1.01698 0.0
C4968 C 0.62042 0.08816 0.99855 0.0
C4969 C 0.62082 0.09284 0.99078 0.0
C4970 C 0.61911 0.09232 1.0065 0.0
C4971 C 0.61818 0.10142 1.00674 0.0
C4972 C 0.61864 0.1062 0.99895 0.0
C4973 C 0.61995 0.10186 0.99107 0.0
C4974 C 0.6187 0.08698 1.01465 0.0
C4975 C 0.61769 0.11591 0.99892 0.0
H4976 H 0.6006 0.11245 0.02871 0.0
H4977 H 0.62806 0.11479 0.03193 0.0
H4978 H 0.60048 0.10746 1.00683 0.0
H4979 H 0.6008 0.09726 1.01223 0.0
H4980 H 0.59434 0.10591 1.01661 0.0
H4981 H 0.63793 0.11015 0.0215 0.0
H4982 H 0.63439 0.10043 1.01617 0.0
H4983 H 0.63394 0.11051 1.01057 0.0
H4984 H 0.62123 0.0812 0.99843 0.0
H4985 H 0.62014 0.10553 0.98512 0.0
H4986 H 0.61241 0.088 1.01792 0.0
H4987 H 0.62383 0.08906 1.01919 0.0
H4988 H 0.6195 0.07996 1.01337 0.0
H4989 H 0.61131 0.11774 1.00162 0.0
H4990 H 0.61826 0.11869 0.99233 0.0
H4991 H 0.6227 0.11886 1.00309 0.0
C4992 C 0.6904 0.1748 0.79967 0.0
C4993 C 0.69754 0.16922 0.80012 0.0
C4994 C 0.68616 0.17641 0.79179 0.0
C4995 C 0.68909 0.17232 0.78416 0.0
C4996 C 0.69623 0.1666 0.78458 0.0
C4997 C 0.70036 0.16514 0.79254 0.0
C4998 C 0.6786 0.18257 0.79161 0.0
C4999 C 0.69952 0.16204 0.77663 0.0
C5000 C 0.67393 0.17015 0.76489 0.0
C5001 C 0.6769 0.17671 0.75935 0.0
C5002 C 0.67776 0.16872 0.773 0.0
C5003 C 0.68472 0.174 0.77571 0.0
C5004 C 0.68766 0.18072 0.77023 0.0
C5005 C 0.68373 0.18199 0.76213 0.0
C5006 C 0.67442 0.16149 0.77863 0.0
C5007 C 0.69505 0.1865 0.77287 0.0
H5008 H 0.68823 0.17807 0.80546 0.0
H5009 H 0.70579 0.16072 0.79283 0.0
H5010 H 0.68005 0.18808 0.78726 0.0
H5011 H 0.6728 0.17928 0.789 0.0
H5012 H 0.67703 0.18514 0.79812 0.0
H5013 H 0.7051 0.15776 0.77805 0.0
H5014 H 0.69429 0.1581 0.77373 0.0
H5015 H 0.70152 0.16686 0.77171 0.0
H5016 H 0.66856 0.16613 0.7629 0.0
H5017 H 0.68614 0.18701 0.75789 0.0
H5018 H 0.67238 0.16408 0.78499 0.0
H5019 H 0.67965 0.15674 0.77985 0.0
H5020 H 0.66886 0.15807 0.77567 0.0
H5021 H 0.69362 0.18958 0.77918 0.0
H5022 H 0.69634 0.19165 0.76804 0.0
H5023 H 0.701 0.1826 0.77371 0.0
C5024 C 0.6221 0.92727 0.51318 0.0
C5025 C 0.61385 0.92721 0.50939 0.0
C5026 C 0.62357 0.93125 0.5212 0.0
C5027 C 0.61665 0.93534 0.52556 0.0
C5028 C 0.60831 0.9353 0.52179 0.0
C5029 C 0.60701 0.93124 0.51377 0.0
C5030 C 0.63257 0.93115 0.52497 0.0
C5031 C 0.60076 0.93958 0.52622 0.0
C5032 C 0.61874 0.9395 0.54975 0.0
C5033 C 0.62103 0.94828 0.54996 0.0
C5034 C 0.61731 0.93521 0.54187 0.0
C5035 C 0.61818 0.93978 0.53399 0.0
C5036 C 0.62055 0.94861 0.53415 0.0
C5037 C 0.62195 0.95274 0.54211 0.0
C5038 C 0.6148 0.92579 0.54199 0.0
C5039 C 0.6216 0.95372 0.52591 0.0
H5040 H 0.62747 0.92431 0.5098 0.0
H5041 H 0.6006 0.93114 0.51098 0.0
H5042 H 0.63495 0.93786 0.52574 0.0
H5043 H 0.63247 0.92816 0.53148 0.0
H5044 H 0.63721 0.92753 0.52087 0.0
H5045 H 0.59467 0.93894 0.52248 0.0
H5046 H 0.59978 0.9367 0.53271 0.0
H5047 H 0.60213 0.94655 0.52717 0.0
H5048 H 0.61791 0.93602 0.55577 0.0
H5049 H 0.62384 0.95948 0.54218 0.0
H5050 H 0.61953 0.92195 0.53823 0.0
H5051 H 0.60841 0.92494 0.53887 0.0
H5052 H 0.61447 0.92313 0.54865 0.0
H5053 H 0.62661 0.9507 0.52179 0.0
H5054 H 0.62345 0.96054 0.52713 0.0
H5055 H 0.61547 0.95366 0.5222 0.0
C5056 C 0.83891 0.87195 0.29202 0.0
C5057 C 0.84333 0.871 0.29989 0.0
C5058 C 0.84307 0.87053 0.28408 0.0
C5059 C 0.85189 0.86811 0.28396 0.0
C5060 C 0.85642 0.86721 0.29186 0.0
C5061 C 0.8521 0.86867 0.29972 0.0
C5062 C 0.838 0.87161 0.27582 0.0
C5063 C 0.86583 0.86464 0.29201 0.0
C5064 C 0.86043 0.85688 0.26378 0.0
C5065 C 0.86452 0.86369 0.25939 0.0
C5066 C 0.85636 0.85821 0.27179 0.0
C5067 C 0.85636 0.86655 0.27554 0.0
C5068 C 0.8605 0.87344 0.27118 0.0
C5069 C 0.8645 0.87194 0.26317 0.0
C5070 C 0.85202 0.85068 0.27623 0.0
C5071 C 0.86064 0.88243 0.27493 0.0
H5072 H 0.83218 0.87388 0.29207 0.0
H5073 H 0.85555 0.86782 0.30575 0.0
H5074 H 0.84108 0.8766 0.27169 0.0
H5075 H 0.83805 0.86547 0.27213 0.0
H5076 H 0.83119 0.87351 0.27701 0.0
H5077 H 0.86846 0.8643 0.29868 0.0
H5078 H 0.86666 0.85824 0.28891 0.0
H5079 H 0.86971 0.86935 0.28825 0.0
H5080 H 0.8605 0.85046 0.26099 0.0
H5081 H 0.8675 0.87728 0.25979 0.0
H5082 H 0.84506 0.85209 0.27715 0.0
H5083 H 0.85488 0.8497 0.28273 0.0
H5084 H 0.85266 0.84459 0.27251 0.0
H5085 H 0.85394 0.88486 0.27568 0.0
H5086 H 0.86431 0.88705 0.27083 0.0
H5087 H 0.86361 0.88231 0.28145 0.0
C5088 C 0.91389 0.09632 0.0452 0.0
C5089 C 0.92089 0.09453 0.05068 0.0
C5090 C 0.91512 0.10041 0.03717 0.0
C5091 C 0.92356 0.10279 0.03454 0.0
C5092 C 0.93063 0.10111 0.0401 0.0
C5093 C 0.92922 0.097 0.04807 0.0
C5094 C 0.9074 0.10206 0.03144 0.0
C5095 C 0.93972 0.10359 0.03758 0.0
C5096 C 0.92799 0.10579 1.01051 0.0
C5097 C 0.92761 0.1148 1.0096 0.0
C5098 C 0.9267 0.1018 1.01857 0.0
C5099 C 0.925 0.10694 0.02594 0.0
C5100 C 0.92468 0.11605 0.02509 0.0
C5101 C 0.92598 0.11986 1.01694 0.0
C5102 C 0.92707 0.09208 1.01919 0.0
C5103 C 0.92296 0.12177 0.03278 0.0
H5104 H 0.90744 0.09435 0.0471 0.0
H5105 H 0.93465 0.09576 0.05231 0.0
H5106 H 0.90694 0.10905 0.02989 0.0
H5107 H 0.90819 0.09856 0.02525 0.0
H5108 H 0.90125 0.09998 0.03449 0.0
H5109 H 0.94451 0.10197 0.04268 0.0
H5110 H 0.94159 0.10021 0.03155 0.0
H5111 H 0.94006 0.11062 0.03626 0.0
H5112 H 0.92914 0.10182 1.00486 0.0
H5113 H 0.92579 0.12683 1.01633 0.0
H5114 H 0.92081 0.08955 0.02159 0.0
H5115 H 0.9321 0.09011 0.02389 0.0
H5116 H 0.92851 0.089 1.01287 0.0
H5117 H 0.91661 0.12013 0.03567 0.0
H5118 H 0.92296 0.12874 0.03105 0.0
H5119 H 0.92793 0.12065 0.03782 0.0
C5120 C 0.74568 0.69505 0.87635 0.0
C5121 C 0.73997 0.69641 0.86944 0.0
C5122 C 0.75371 0.69099 0.8751 0.0
C5123 C 0.75612 0.68819 0.86673 0.0
C5124 C 0.75034 0.68945 0.85975 0.0
C5125 C 0.74236 0.69354 0.86118 0.0
C5126 C 0.75969 0.68981 0.88272 0.0
C5127 C 0.75262 0.68651 0.85074 0.0
C5128 C 0.78008 0.68511 0.86187 0.0
C5129 C 0.78107 0.67614 0.86275 0.0
C5130 C 0.77201 0.6891 0.86311 0.0
C5131 C 0.76471 0.68402 0.86527 0.0
C5132 C 0.76564 0.67495 0.86609 0.0
C5133 C 0.77379 0.67113 0.86483 0.0
C5134 C 0.77131 0.69879 0.8622 0.0
C5135 C 0.75803 0.66928 0.86833 0.0
H5136 H 0.74394 0.69734 0.88273 0.0
H5137 H 0.73795 0.69445 0.85582 0.0
H5138 H 0.7613 0.68287 0.88353 0.0
H5139 H 0.76584 0.6933 0.88154 0.0
H5140 H 0.75681 0.69222 0.88883 0.0
H5141 H 0.74737 0.68784 0.84603 0.0
H5142 H 0.75858 0.68982 0.84853 0.0
H5143 H 0.75398 0.67947 0.85074 0.0
H5144 H 0.78567 0.68905 0.86037 0.0
H5145 H 0.77445 0.66419 0.86541 0.0
H5146 H 0.76908 0.70165 0.86838 0.0
H5147 H 0.76643 0.70045 0.85722 0.0
H5148 H 0.77755 0.70182 0.86039 0.0
H5149 H 0.75532 0.67123 0.87466 0.0
H5150 H 0.7598 0.66234 0.86864 0.0
H5151 H 0.75285 0.67012 0.86345 0.0
C5152 C 0.24904 0.83859 0.17065 0.0
C5153 C 0.24138 0.84338 0.16973 0.0
C5154 C 0.25704 0.84268 0.17196 0.0
C5155 C 0.25745 0.85181 0.17232 0.0
C5156 C 0.24976 0.8567 0.17133 0.0
C5157 C 0.24184 0.85243 0.17004 0.0
C5158 C 0.26506 0.83722 0.17295 0.0
C5159 C 0.24991 0.86644 0.17168 0.0
C5160 C 0.27694 0.86201 0.18341 0.0
C5161 C 0.28217 0.86428 0.17636 0.0
C5162 C 0.26887 0.858 0.18219 0.0
C5163 C 0.26592 0.85622 0.17372 0.0
C5164 C 0.27115 0.85852 0.16658 0.0
C5165 C 0.27919 0.8625 0.16798 0.0
C5166 C 0.26351 0.85566 0.18999 0.0
C5167 C 0.26827 0.85672 0.15744 0.0
H5168 H 0.2488 0.8316 0.17028 0.0
H5169 H 0.23597 0.85619 0.16944 0.0
H5170 H 0.26981 0.83891 0.16785 0.0
H5171 H 0.26816 0.83855 0.17926 0.0
H5172 H 0.26365 0.83019 0.17253 0.0
H5173 H 0.2434 0.8693 0.17071 0.0
H5174 H 0.25246 0.8686 0.17801 0.0
H5175 H 0.25431 0.869 0.16663 0.0
H5176 H 0.27911 0.86345 0.1899 0.0
H5177 H 0.28322 0.86409 0.16248 0.0
H5178 H 0.26231 0.84859 0.19009 0.0
H5179 H 0.25712 0.85889 0.18961 0.0
H5180 H 0.26668 0.85753 0.19614 0.0
H5181 H 0.26735 0.84967 0.15653 0.0
H5182 H 0.273 0.85906 0.15258 0.0
H5183 H 0.26196 0.85987 0.15618 0.0
C5184 C 0.94558 0.49311 0.92896 0.0
C5185 C 0.94715 0.49007 0.92057 0.0
C5186 C 0.94146 0.50108 0.93039 0.0
C5187 C 0.93883 0.50617 0.92325 0.0
C5188 C 0.94029 0.5031 0.91476 0.0
C5189 C 0.94442 0.49509 0.91353 0.0
C5190 C 0.93998 0.50408 0.93954 0.0
C5191 C 0.93761 0.50833 0.90698 0.0
C5192 C 0.92169 0.52352 0.92672 0.0
C5193 C 0.9267 0.53105 0.92738 0.0
C5194 C 0.92554 0.5154 0.92539 0.0
C5195 C 0.93464 0.51476 0.92468 0.0
C5196 C 0.93974 0.52232 0.92537 0.0
C5197 C 0.93572 0.53036 0.92673 0.0
C5198 C 0.91986 0.5075 0.92477 0.0
C5199 C 0.94945 0.52193 0.92461 0.0
H5200 H 0.94755 0.48923 0.93445 0.0
H5201 H 0.94568 0.49285 0.90702 0.0
H5202 H 0.94338 0.51028 0.94065 0.0
H5203 H 0.93299 0.50526 0.94063 0.0
H5204 H 0.94228 0.4993 0.94438 0.0
H5205 H 0.93905 0.50497 0.90081 0.0
H5206 H 0.93058 0.5097 0.90725 0.0
H5207 H 0.94101 0.51464 0.907 0.0
H5208 H 0.91473 0.52397 0.92732 0.0
H5209 H 0.93964 0.53614 0.92712 0.0
H5210 H 0.92167 0.50278 0.92985 0.0
H5211 H 0.92085 0.50429 0.91845 0.0
H5212 H 0.9129 0.50908 0.92547 0.0
H5213 H 0.95213 0.51758 0.92964 0.0
H5214 H 0.9525 0.52839 0.92529 0.0
H5215 H 0.95129 0.51921 0.91825 0.0
C5216 C 0.29959 0.19104 0.67567 0.0
C5217 C 0.30022 0.19761 0.66944 0.0
C5218 C 0.29169 0.18687 0.67731 0.0
C5219 C 0.28422 0.18928 0.67259 0.0
C5220 C 0.28484 0.19584 0.66625 0.0
C5221 C 0.29281 0.19993 0.66476 0.0
C5222 C 0.2913 0.17993 0.68416 0.0
C5223 C 0.27706 0.19856 0.66101 0.0
C5224 C 0.26531 0.17362 0.67096 0.0
C5225 C 0.25941 0.17708 0.67693 0.0
C5226 C 0.27341 0.17746 0.66956 0.0
C5227 C 0.27575 0.18494 0.67426 0.0
C5228 C 0.26991 0.18838 0.6804 0.0
C5229 C 0.26182 0.18443 0.68165 0.0
C5230 C 0.27945 0.17355 0.66297 0.0
C5231 C 0.27215 0.19634 0.68556 0.0
H5232 H 0.30525 0.18928 0.67939 0.0
H5233 H 0.29325 0.20492 0.65986 0.0
H5234 H 0.28665 0.18182 0.68927 0.0
H5235 H 0.28895 0.1738 0.68132 0.0
H5236 H 0.29769 0.17875 0.68721 0.0
H5237 H 0.27862 0.20375 0.6563 0.0
H5238 H 0.27444 0.19293 0.65745 0.0
H5239 H 0.27189 0.20091 0.66537 0.0
H5240 H 0.26359 0.16786 0.66739 0.0
H5241 H 0.25731 0.18722 0.68621 0.0
H5242 H 0.2857 0.17189 0.66605 0.0
H5243 H 0.28082 0.17833 0.65781 0.0
H5244 H 0.27673 0.16764 0.65996 0.0
H5245 H 0.27832 0.19533 0.68907 0.0
H5246 H 0.26705 0.19802 0.69031 0.0
H5247 H 0.2731 0.20191 0.68115 0.0
C5248 C 0.10007 0.0495 0.92567 0.0
C5249 C 0.09372 0.05022 0.91924 0.0
C5250 C 0.10426 0.04159 0.9273 0.0
C5251 C 0.10208 0.03421 0.92236 0.0
C5252 C 0.09574 0.03492 0.9158 0.0
C5253 C 0.09163 0.04289 0.91434 0.0
C5254 C 0.11094 0.04111 0.93438 0.0
C5255 C 0.09328 0.02724 0.91032 0.0
C5256 C 0.11795 1.01544 0.92095 0.0
C5257 C 0.11433 1.00941 0.92668 0.0
C5258 C 0.1141 0.02354 0.91955 0.0
C5259 C 0.10643 0.02574 0.92402 0.0
C5260 C 0.10281 1.01976 0.92993 0.0
C5261 C 0.10678 1.01167 0.93118 0.0
C5262 C 0.11819 0.02973 0.91322 0.0
C5263 C 0.09465 0.02184 0.93484 0.0
H5264 H 0.10165 0.05509 0.92957 0.0
H5265 H 0.08682 0.04341 0.90928 0.0
H5266 H 0.10891 0.03634 0.93933 0.0
H5267 H 0.1172 0.03885 0.93171 0.0
H5268 H 0.11197 0.04744 0.93758 0.0
H5269 H 0.08826 0.02887 0.90545 0.0
H5270 H 0.09906 0.02473 0.90692 0.0
H5271 H 0.09081 0.02196 0.91449 0.0
H5272 H 0.12386 1.01383 0.91755 0.0
H5273 H 0.10386 1.00705 0.93555 0.0
H5274 H 0.1197 0.03593 0.91646 0.0
H5275 H 0.11359 0.03118 0.90791 0.0
H5276 H 0.12423 0.02711 0.91036 0.0
H5277 H 0.09547 0.02794 0.93849 0.0
H5278 H 0.09282 1.01664 0.93943 0.0
H5279 H 0.08924 0.02284 0.93024 0.0
C5280 C 0.79271 0.33874 0.36954 0.0
C5281 C 0.80044 0.34345 0.37007 0.0
C5282 C 0.78474 0.34288 0.36823 0.0
C5283 C 0.78443 0.35198 0.36744 0.0
C5284 C 0.79219 0.3568 0.36802 0.0
C5285 C 0.80009 0.35249 0.36933 0.0
C5286 C 0.77662 0.33749 0.3677 0.0
C5287 C 0.79215 0.36652 0.36721 0.0
C5288 C 0.76475 0.36192 0.35641 0.0
C5289 C 0.75973 0.36457 0.36349 0.0
C5290 C 0.77281 0.35789 0.3576 0.0
C5291 C 0.77597 0.35645 0.36607 0.0
C5292 C 0.77097 0.35913 0.37323 0.0
C5293 C 0.76293 0.36313 0.37186 0.0
C5294 C 0.77794 0.35514 0.34978 0.0
C5295 C 0.77407 0.3577 0.38236 0.0
H5296 H 0.79288 0.33177 0.37025 0.0
H5297 H 0.80602 0.35619 0.36963 0.0
H5298 H 0.77204 0.33947 0.37284 0.0
H5299 H 0.77337 0.33859 0.36141 0.0
H5300 H 0.77796 0.33047 0.36841 0.0
H5301 H 0.79872 0.36933 0.36785 0.0
H5302 H 0.78945 0.36843 0.36085 0.0
H5303 H 0.78793 0.36937 0.37224 0.0
H5304 H 0.76241 0.3631 0.34992 0.0
H5305 H 0.75907 0.36502 0.37738 0.0
H5306 H 0.77904 0.34806 0.34997 0.0
H5307 H 0.78437 0.35829 0.34984 0.0
H5308 H 0.77463 0.35679 0.34363 0.0
H5309 H 0.77493 0.35069 0.38358 0.0
H5310 H 0.76951 0.36033 0.38723 0.0
H5311 H 0.78046 0.36081 0.38329 0.0
C5312 C 0.94008 0.54817 0.6243 0.0
C5313 C 0.94804 0.55011 0.6204 0.0
C5314 C 0.93595 0.54021 0.62286 0.0
C5315 C 0.93985 0.534 0.61739 0.0
C5316 C 0.94782 0.53595 0.61336 0.0
C5317 C 0.95179 0.54397 0.61489 0.0
C5318 C 0.92745 0.53839 0.62728 0.0
C5319 C 0.9522 0.52953 0.60747 0.0
C5320 C 0.93383 0.51032 0.62035 0.0
C5321 C 0.92797 0.50896 0.61356 0.0
C5322 C 0.93772 0.51841 0.62167 0.0
C5323 C 0.93572 0.52537 0.61607 0.0
C5324 C 0.92985 0.52405 0.60917 0.0
C5325 C 0.92606 0.51587 0.608 0.0
C5326 C 0.94399 0.51951 0.62905 0.0
C5327 C 0.92752 0.5313 0.60307 0.0
H5328 H 0.93716 0.55282 0.62863 0.0
H5329 H 0.95785 0.54544 0.6117 0.0
H5330 H 0.92247 0.53668 0.62243 0.0
H5331 H 0.92816 0.53277 0.63168 0.0
H5332 H 0.92511 0.544 0.63109 0.0
H5333 H 0.95832 0.53208 0.60473 0.0
H5334 H 0.95365 0.52351 0.61108 0.0
H5335 H 0.94783 0.52778 0.60208 0.0
H5336 H 0.93544 0.505 0.62461 0.0
H5337 H 0.92148 0.51493 0.6028 0.0
H5338 H 0.94169 0.52468 0.63345 0.0
H5339 H 0.95038 0.52154 0.62654 0.0
H5340 H 0.94483 0.51347 0.63285 0.0
H5341 H 0.92463 0.53673 0.60674 0.0
H5342 H 0.92288 0.52922 0.59801 0.0
H5343 H 0.93343 0.5338 0.59988 0.0
C5344 C 0.60626 0.52943 0.10912 0.0
C5345 C 0.61389 0.53165 0.11349 0.0
C5346 C 0.6023 0.52135 0.11038 0.0
C5347 C 0.60603 0.51531 0.11617 0.0
C5348 C 0.61379 0.51745 0.12051 0.0
C5349 C 0.61762 0.52557 0.11911 0.0
C5350 C 0.59404 0.51932 0.10562 0.0
C5351 C 0.618 0.51121 0.12671 0.0
C5352 C 0.59144 0.4981 0.12601 0.0
C5353 C 0.59342 0.49081 0.12101 0.0
C5354 C 0.59551 0.50608 0.12452 0.0
C5355 C 0.60172 0.50683 0.11785 0.0
C5356 C 0.60379 0.49949 0.1128 0.0
C5357 C 0.59964 0.49157 0.11445 0.0
C5358 C 0.59316 0.51371 0.13011 0.0
C5359 C 0.61033 0.50002 0.10559 0.0
H5360 H 0.60327 0.5341 0.10484 0.0
H5361 H 0.62359 0.52714 0.12241 0.0
H5362 H 0.59479 0.51325 0.10189 0.0
H5363 H 0.58873 0.51828 0.11031 0.0
H5364 H 0.59213 0.52457 0.10111 0.0
H5365 H 0.6241 0.51379 0.12947 0.0
H5366 H 0.61351 0.50972 0.13209 0.0
H5367 H 0.61944 0.50503 0.12339 0.0
H5368 H 0.58673 0.49754 0.13116 0.0
H5369 H 0.60114 0.48601 0.11048 0.0
H5370 H 0.59061 0.51903 0.12604 0.0
H5371 H 0.59901 0.51618 0.13343 0.0
H5372 H 0.58824 0.51205 0.13506 0.0
H5373 H 0.6082 0.50484 0.10073 0.0
H5374 H 0.61129 0.49372 0.10232 0.0
H5375 H 0.61664 0.50225 0.10816 0.0
C5376 C 0.66541 0.79576 0.84647 0.0
C5377 C 0.67238 0.80135 0.84496 0.0
C5378 C 0.66661 0.78776 0.85061 0.0
C5379 C 0.67498 0.78527 0.85336 0.0
C5380 C 0.68203 0.79093 0.85195 0.0
C5381 C 0.68065 0.79888 0.84777 0.0
C5382 C 0.65892 0.78191 0.85196 0.0
C5383 C 0.69104 0.78856 0.85483 0.0
C5384 C 0.67685 0.76779 0.87063 0.0
C5385 C 0.67877 0.76043 0.8657 0.0
C5386 C 0.67565 0.77591 0.86671 0.0
C5387 C 0.67637 0.77671 0.85763 0.0
C5388 C 0.67838 0.76932 0.85263 0.0
C5389 C 0.67957 0.76129 0.85672 0.0
C5390 C 0.67358 0.78362 0.8723 0.0
C5391 C 0.67919 0.76989 0.84293 0.0
H5392 H 0.65902 0.79756 0.84423 0.0
H5393 H 0.68606 0.8032 0.84674 0.0
H5394 H 0.65998 0.77569 0.84855 0.0
H5395 H 0.65817 0.7804 0.85892 0.0
H5396 H 0.65282 0.78483 0.84956 0.0
H5397 H 0.69581 0.79373 0.85337 0.0
H5398 H 0.69111 0.7873 0.86188 0.0
H5399 H 0.69314 0.78253 0.85159 0.0
H5400 H 0.67634 0.76722 0.87758 0.0
H5401 H 0.68095 0.75563 0.85284 0.0
H5402 H 0.66726 0.7864 0.87038 0.0
H5403 H 0.67851 0.78872 0.87134 0.0
H5404 H 0.67333 0.78194 0.87927 0.0
H5405 H 0.67301 0.77217 0.8401 0.0
H5406 H 0.68088 0.76358 0.83997 0.0
H5407 H 0.68422 0.77467 0.84116 0.0
C5408 C 0.52864 0.43271 0.10768 0.0
C5409 C 0.53078 0.42813 0.11523 0.0
C5410 C 0.5206 0.43156 0.1036 0.0
C5411 C 0.51452 0.42569 0.10711 0.0
C5412 C 0.51658 0.42115 0.11479 0.0
C5413 C 0.52465 0.42244 0.11875 0.0
C5414 C 0.51866 0.43654 0.09544 0.0
C5415 C 0.5103 0.41484 0.11876 0.0
C5416 C 0.49086 0.42754 0.10044 0.0
C5417 C 0.4902 0.42114 0.09406 0.0
C5418 C 0.49872 0.4291 0.10473 0.0
C5419 C 0.50611 0.42411 0.10264 0.0
C5420 C 0.50546 0.41759 0.09627 0.0
C5421 C 0.49754 0.4162 0.09205 0.0
C5422 C 0.49914 0.43614 0.11145 0.0
C5423 C 0.51314 0.41207 0.0939 0.0
H5424 H 0.53334 0.43705 0.10485 0.0
H5425 H 0.52616 0.41898 0.12465 0.0
H5426 H 0.51772 0.43199 0.09 0.0
H5427 H 0.51256 0.44023 0.09619 0.0
H5428 H 0.52392 0.44111 0.09372 0.0
H5429 H 0.51281 0.41194 0.12483 0.0
H5430 H 0.50409 0.41813 0.12019 0.0
H5431 H 0.50889 0.40957 0.11413 0.0
H5432 H 0.48527 0.43145 0.10196 0.0
H5433 H 0.49707 0.41117 0.08722 0.0
H5434 H 0.50398 0.44106 0.10951 0.0
H5435 H 0.50129 0.43341 0.11772 0.0
H5436 H 0.49281 0.43939 0.11239 0.0
H5437 H 0.51848 0.41621 0.09152 0.0
H5438 H 0.51157 0.40724 0.08884 0.0
H5439 H 0.51555 0.4086 0.09969 0.0
C5440 C 0.87535 0.24506 0.34666 0.0
C5441 C 0.86835 0.23948 0.34523 0.0
C5442 C 0.87421 0.25308 0.35078 0.0
C5443 C 0.86586 0.25559 0.35357 0.0
C5444 C 0.85879 0.24995 0.35225 0.0
C5445 C 0.86012 0.24198 0.3481 0.0
C5446 C 0.88192 0.25891 0.35203 0.0
C5447 C 0.8498 0.25234 0.35518 0.0
C5448 C 0.86418 0.27314 0.37074 0.0
C5449 C 0.86223 0.28049 0.36578 0.0
C5450 C 0.86532 0.265 0.36687 0.0
C5451 C 0.86452 0.26417 0.3578 0.0
C5452 C 0.86249 0.27154 0.35276 0.0
C5453 C 0.86136 0.27959 0.3568 0.0
C5454 C 0.86742 0.25731 0.37249 0.0
C5455 C 0.86161 0.27094 0.34307 0.0
H5456 H 0.88172 0.24325 0.34438 0.0
H5457 H 0.85469 0.23767 0.34713 0.0
H5458 H 0.88085 0.26511 0.34859 0.0
H5459 H 0.88273 0.26044 0.35898 0.0
H5460 H 0.888 0.25596 0.34961 0.0
H5461 H 0.84502 0.24718 0.3538 0.0
H5462 H 0.8498 0.25363 0.36223 0.0
H5463 H 0.84769 0.25836 0.35191 0.0
H5464 H 0.86474 0.27373 0.37769 0.0
H5465 H 0.85996 0.28524 0.3529 0.0
H5466 H 0.87372 0.2545 0.37054 0.0
H5467 H 0.86246 0.25221 0.3716 0.0
H5468 H 0.86773 0.25901 0.37945 0.0
H5469 H 0.86776 0.26863 0.34021 0.0
H5470 H 0.85991 0.27724 0.34008 0.0
H5471 H 0.85655 0.26617 0.34137 0.0
C5472 C 0.04893 0.62358 0.60121 0.0
C5473 C 0.05107 0.6189 0.59375 0.0
C5474 C 0.04099 0.62229 0.60545 0.0
C5475 C 0.03502 0.61618 0.60217 0.0
C5476 C 0.0372 0.61136 0.59472 0.0
C5477 C 0.04518 0.61275 0.59063 0.0
C5478 C 0.03894 0.62756 0.61338 0.0
C5479 C 0.03104 0.60477 0.59101 0.0
C5480 C 1.01708 0.60775 0.61681 0.0
C5481 C 1.01002 0.61283 0.61425 0.0
C5482 C 0.02525 0.60878 0.61297 0.0
C5483 C 0.0264 0.61502 0.60637 0.0
C5484 C 1.01928 0.62012 0.60371 0.0
C5485 C 1.0112 0.61898 0.60769 0.0
C5486 C 0.03268 0.60323 0.61602 0.0
C5487 C 1.0202 0.62679 0.59665 0.0
H5488 H 0.05337 0.62841 0.60363 0.0
H5489 H 0.04682 0.60897 0.58498 0.0
H5490 H 0.03319 0.63167 0.61214 0.0
H5491 H 0.03732 0.62323 0.61886 0.0
H5492 H 0.0444 0.63179 0.61533 0.0
H5493 H 0.03375 0.60144 0.58527 0.0
H5494 H 0.02942 0.59985 0.59596 0.0
H5495 H 0.02491 0.60798 0.58911 0.0
H5496 H 1.01626 0.60305 0.62195 0.0
H5497 H 1.00576 0.62285 0.60558 0.0
H5498 H 0.03796 0.60738 0.6185 0.0
H5499 H 0.03535 0.59948 0.61053 0.0
H5500 H 0.03073 0.59865 0.62119 0.0
H5501 H 0.02518 0.6316 0.59846 0.0
H5502 H 1.01404 0.63025 0.59534 0.0
H5503 H 0.02238 0.62365 0.5906 0.0
C5504 C 0.68545 0.27479 0.67617 0.0
C5505 C 0.67842 0.28043 0.67508 0.0
C5506 C 0.68444 0.26671 0.68022 0.0
C5507 C 0.67619 0.26418 0.68327 0.0
C5508 C 0.66907 0.26982 0.68219 0.0
C5509 C 0.67027 0.27786 0.67813 0.0
C5510 C 0.69219 0.26089 0.68123 0.0
C5511 C 0.66018 0.2674 0.68538 0.0
C5512 C 0.67165 0.24028 0.68728 0.0
C5513 C 0.67265 0.23963 0.69627 0.0
C5514 C 0.67281 0.2482 0.68296 0.0
C5515 C 0.67503 0.25568 0.68773 0.0
C5516 C 0.67603 0.25508 0.6968 0.0
C5517 C 0.67482 0.24709 0.70095 0.0
C5518 C 0.67168 0.24856 0.67329 0.0
C5519 C 0.67835 0.26289 0.70214 0.0
H5520 H 0.69175 0.27666 0.67375 0.0
H5521 H 0.66482 0.2822 0.67745 0.0
H5522 H 0.69333 0.25951 0.68817 0.0
H5523 H 0.69097 0.25461 0.678 0.0
H5524 H 0.69815 0.26377 0.67846 0.0
H5525 H 0.65529 0.27244 0.68393 0.0
H5526 H 0.65809 0.26125 0.68237 0.0
H5527 H 0.66034 0.26634 0.69247 0.0
H5528 H 0.67008 0.23455 0.68358 0.0
H5529 H 0.67547 0.24671 0.7079 0.0
H5530 H 0.67773 0.25085 0.67021 0.0
H5531 H 0.66653 0.25326 0.6716 0.0
H5532 H 0.66997 0.24218 0.67051 0.0
H5533 H 0.68454 0.26568 0.69984 0.0
H5534 H 0.679 0.26133 0.70911 0.0
H5535 H 0.67332 0.26795 0.70138 0.0
C5536 C 0.04811 0.41567 0.94015 0.0
C5537 C 0.05113 0.42168 0.94622 0.0
C5538 C 0.04019 0.41688 0.93586 0.0
C5539 C 0.03512 0.42429 0.93768 0.0
C5540 C 0.03819 0.43045 0.94369 0.0
C5541 C 0.04615 0.42909 0.94785 0.0
C5542 C 0.03716 0.41016 0.92949 0.0
C5543 C 0.03302 0.43845 0.9458 0.0
C5544 C 1.0176 0.43122 0.92178 0.0
C5545 C 1.01012 0.42782 0.92562 0.0
C5546 C 0.02578 0.43008 0.92559 0.0
C5547 C 0.02651 0.42549 0.93348 0.0
C5548 C 1.01898 0.42209 0.93741 0.0
C5549 C 1.0109 0.42327 0.93343 0.0
C5550 C 0.03364 0.43376 0.92116 0.0
C5551 C 1.01944 0.41722 0.94585 0.0
H5552 H 0.05185 0.40988 0.9389 0.0
H5553 H 0.04848 0.43386 0.9524 0.0
H5554 H 0.03105 0.40721 0.9318 0.0
H5555 H 0.03579 0.41323 0.92316 0.0
H5556 H 0.042 0.40495 0.92853 0.0
H5557 H 0.03638 0.44269 0.9505 0.0
H5558 H 0.03174 0.4422 0.93983 0.0
H5559 H 0.02667 0.43658 0.94853 0.0
H5560 H 1.01708 0.43465 0.91569 0.0
H5561 H 1.00515 0.42072 0.9365 0.0
H5562 H 0.03828 0.42851 0.91968 0.0
H5563 H 0.03697 0.43837 0.92551 0.0
H5564 H 0.03199 0.43716 0.91505 0.0
H5565 H 0.02375 0.41153 0.94517 0.0
H5566 H 1.013 0.41497 0.94806 0.0
H5567 H 0.02226 0.42142 0.95092 0.0
C5568 C 0.85982 0.79841 0.19367 0.0
C5569 C 0.8682 0.8015 0.19527 0.0
C5570 C 0.85845 0.79047 0.18949 0.0
C5571 C 0.86562 0.78545 0.18683 0.0
C5572 C 0.8741 0.78858 0.18832 0.0
C5573 C 0.87528 0.79656 0.1925 0.0
C5574 C 0.84931 0.78741 0.18798 0.0
C5575 C 0.88192 0.78343 0.18561 0.0
C5576 C 0.86243 0.76124 0.18366 0.0
C5577 C 0.86182 0.76057 0.17465 0.0
C5578 C 0.86366 0.76928 0.1877 0.0
C5579 C 0.86427 0.77687 0.18262 0.0
C5580 C 0.86358 0.77626 0.17352 0.0
C5581 C 0.86238 0.76813 0.16965 0.0
C5582 C 0.86439 0.76964 0.19741 0.0
C5583 C 0.86412 0.78419 0.16787 0.0
H5584 H 0.8543 0.80223 0.19566 0.0
H5585 H 0.88177 0.79883 0.19379 0.0
H5586 H 0.84825 0.78624 0.181 0.0
H5587 H 0.84824 0.78119 0.19138 0.0
H5588 H 0.84444 0.79214 0.19028 0.0
H5589 H 0.88807 0.78684 0.18706 0.0
H5590 H 0.88196 0.77711 0.18899 0.0
H5591 H 0.88165 0.78209 0.17858 0.0
H5592 H 0.86211 0.75544 0.18757 0.0
H5593 H 0.86181 0.7677 0.16269 0.0
H5594 H 0.85933 0.77394 0.20009 0.0
H5595 H 0.87074 0.77241 0.19927 0.0
H5596 H 0.86374 0.76317 0.20045 0.0
H5597 H 0.859 0.78885 0.1697 0.0
H5598 H 0.86341 0.78263 0.1609 0.0
H5599 H 0.87042 0.78746 0.16885 0.0
C5600 C 0.52722 0.62121 0.42584 0.0
C5601 C 0.53061 0.61287 0.42467 0.0
C5602 C 0.51923 0.62253 0.42995 0.0
C5603 C 0.51449 0.61534 0.43304 0.0
C5604 C 0.51785 0.60691 0.43189 0.0
C5605 C 0.52585 0.60577 0.42772 0.0
C5606 C 0.5159 0.63162 0.43105 0.0
C5607 C 0.51301 0.59907 0.43509 0.0
C5608 C 0.498 0.61909 0.45091 0.0
C5609 C 0.49017 0.6192 0.44633 0.0
C5610 C 0.50593 0.61783 0.44668 0.0
C5611 C 0.50609 0.61667 0.43761 0.0
C5612 C 0.49822 0.61683 0.43293 0.0
C5613 C 0.49037 0.61809 0.43734 0.0
C5614 C 0.51416 0.61774 0.45192 0.0
C5615 C 0.49809 0.61561 0.42327 0.0
H5616 H 0.53088 0.62675 0.42364 0.0
H5617 H 0.52833 0.5993 0.42676 0.0
H5618 H 0.50943 0.63226 0.42804 0.0
H5619 H 0.51515 0.6331 0.43802 0.0
H5620 H 0.52027 0.63651 0.42813 0.0
H5621 H 0.51646 0.59295 0.43365 0.0
H5622 H 0.51203 0.59952 0.44217 0.0
H5623 H 0.50652 0.59881 0.43206 0.0
H5624 H 0.49795 0.62008 0.45784 0.0
H5625 H 0.48436 0.61806 0.43375 0.0
H5626 H 0.51856 0.62292 0.44963 0.0
H5627 H 0.51757 0.6115 0.45102 0.0
H5628 H 0.51294 0.61869 0.45892 0.0
H5629 H 0.50212 0.62064 0.42011 0.0
H5630 H 0.49146 0.61596 0.42056 0.0
H5631 H 0.50093 0.60925 0.42158 0.0
C5632 C 0.85946 0.67108 0.76125 0.0
C5633 C 0.8653 0.67788 0.75989 0.0
C5634 C 0.85543 0.66986 0.76929 0.0
C5635 C 0.85727 0.67557 0.77619 0.0
C5636 C 0.86315 0.68246 0.77486 0.0
C5637 C 0.86707 0.68355 0.76674 0.0
C5638 C 0.84916 0.66248 0.77039 0.0
C5639 C 0.86532 0.68867 0.78205 0.0
C5640 C 0.8408 0.67703 0.7944 0.0
C5641 C 0.84442 0.67159 0.80072 0.0
C5642 C 0.84495 0.67844 0.78645 0.0
C5643 C 0.85296 0.67437 0.78474 0.0
C5644 C 0.85673 0.669 0.79113 0.0
C5645 C 0.85242 0.66766 0.79901 0.0
C5646 C 0.8407 0.68423 0.77984 0.0
C5647 C 0.86527 0.66455 0.78957 0.0
H5648 H 0.85796 0.66674 0.75597 0.0
H5649 H 0.87165 0.68876 0.76579 0.0
H5650 H 0.85134 0.65817 0.77569 0.0
H5651 H 0.84271 0.66501 0.77223 0.0
H5652 H 0.84846 0.65858 0.76442 0.0
H5653 H 0.87002 0.69369 0.77999 0.0
H5654 H 0.85937 0.69192 0.78435 0.0
H5655 H 0.86808 0.68508 0.78761 0.0
H5656 H 0.83472 0.68024 0.79569 0.0
H5657 H 0.85524 0.66338 0.80379 0.0
H5658 H 0.83939 0.68053 0.77386 0.0
H5659 H 0.84511 0.6896 0.77809 0.0
H5660 H 0.83453 0.68701 0.78221 0.0
H5661 H 0.86468 0.66005 0.78403 0.0
H5662 H 0.8675 0.66084 0.7953 0.0
H5663 H 0.87028 0.66938 0.78786 0.0
C5664 C 0.62056 0.61624 1.01409 0.0
C5665 C 0.61232 0.61649 1.0103 0.0
C5666 C 0.62196 0.61217 0.02209 0.0
C5667 C 0.61496 0.60817 0.02642 0.0
C5668 C 0.60662 0.60841 0.02266 0.0
C5669 C 0.6054 0.61256 1.01466 0.0
C5670 C 0.63095 0.61206 0.02586 0.0
C5671 C 0.59899 0.60423 0.02706 0.0
C5672 C 0.61993 0.59042 0.04276 0.0
C5673 C 0.61909 0.59478 0.05066 0.0
C5674 C 0.61861 0.59469 0.03485 0.0
C5675 C 0.61641 0.60357 0.0348 0.0
C5676 C 0.61563 0.60804 0.04274 0.0
C5677 C 0.61698 0.6036 0.05056 0.0
C5678 C 0.61956 0.58969 0.02654 0.0
C5679 C 0.61329 0.61751 0.04297 0.0
H5680 H 0.62598 0.61912 1.01074 0.0
H5681 H 0.59899 0.61281 1.01187 0.0
H5682 H 0.63089 0.61495 0.03241 0.0
H5683 H 0.63323 0.6053 0.02655 0.0
H5684 H 0.63565 0.61566 0.02181 0.0
H5685 H 0.59291 0.60506 0.02334 0.0
H5686 H 0.60021 0.59722 0.02792 0.0
H5687 H 0.59809 0.60704 0.03358 0.0
H5688 H 0.6217 0.58365 0.04274 0.0
H5689 H 0.61622 0.60701 0.05662 0.0
H5690 H 0.62463 0.59268 0.02245 0.0
H5691 H 0.61343 0.58993 0.02284 0.0
H5692 H 0.62129 0.58282 0.02768 0.0
H5693 H 0.61809 0.62131 0.03925 0.0
H5694 H 0.61302 0.62007 0.04966 0.0
H5695 H 0.60691 0.61853 0.03987 0.0
C5696 C 0.66979 0.36361 0.2681 0.0
C5697 C 0.67476 0.36218 0.26066 0.0
C5698 C 0.6737 0.36481 0.27621 0.0
C5699 C 0.68282 0.36461 0.27692 0.0
C5700 C 0.68787 0.36312 0.26944 0.0
C5701 C 0.68379 0.36191 0.26142 0.0
C5702 C 0.66807 0.36631 0.28402 0.0
C5703 C 0.69761 0.36289 0.2699 0.0
C5704 C 0.69356 0.37557 0.29616 0.0
C5705 C 0.69556 0.36851 0.3015 0.0
C5706 C 0.68937 0.3744 0.28819 0.0
C5707 C 0.68708 0.36597 0.28547 0.0
C5708 C 0.68897 0.35884 0.29088 0.0
C5709 C 0.69319 0.36019 0.29881 0.0
C5710 C 0.6875 0.38219 0.28261 0.0
C5711 C 0.6866 0.34975 0.28827 0.0
H5712 H 0.6628 0.36372 0.2676 0.0
H5713 H 0.68769 0.36092 0.2557 0.0
H5714 H 0.66935 0.36128 0.28896 0.0
H5715 H 0.66964 0.37264 0.28698 0.0
H5716 H 0.66107 0.36622 0.28241 0.0
H5717 H 0.70061 0.36161 0.26351 0.0
H5718 H 0.70008 0.36915 0.27236 0.0
H5719 H 0.69973 0.35781 0.27449 0.0
H5720 H 0.69545 0.38201 0.29813 0.0
H5721 H 0.69459 0.3547 0.30293 0.0
H5722 H 0.68049 0.38257 0.28119 0.0
H5723 H 0.69091 0.38156 0.27634 0.0
H5724 H 0.68954 0.38832 0.28571 0.0
H5725 H 0.67955 0.34932 0.28706 0.0
H5726 H 0.68837 0.34491 0.29327 0.0
H5727 H 0.68991 0.34804 0.28216 0.0
C5728 C 0.91728 0.4489 0.54307 0.0
C5729 C 0.92148 0.44618 0.55063 0.0
C5730 C 0.91865 0.44469 0.53515 0.0
C5731 C 0.92439 0.43757 0.53474 0.0
C5732 C 0.92861 0.43475 0.54236 0.0
C5733 C 0.92709 0.43907 0.5502 0.0
C5734 C 0.91395 0.44786 0.52721 0.0
C5735 C 0.93481 0.42722 0.5422 0.0
C5736 C 0.92195 0.42215 0.51574 0.0
C5737 C 0.92839 0.42508 0.51005 0.0
C5738 C 0.92065 0.42608 0.52382 0.0
C5739 C 0.92594 0.4331 0.52633 0.0
C5740 C 0.93256 0.43598 0.52071 0.0
C5741 C 0.93369 0.43196 0.51265 0.0
C5742 C 0.91354 0.42278 0.52962 0.0
C5743 C 0.93835 0.44343 0.52314 0.0
H5744 H 0.91284 0.45431 0.54335 0.0
H5745 H 0.93045 0.43698 0.55598 0.0
H5746 H 0.91868 0.44981 0.5222 0.0
H5747 H 0.90998 0.44258 0.52446 0.0
H5748 H 0.90967 0.45345 0.52862 0.0
H5749 H 0.93752 0.42577 0.54868 0.0
H5750 H 0.9315 0.42137 0.53974 0.0
H5751 H 0.94023 0.42864 0.53772 0.0
H5752 H 0.91792 0.41674 0.51389 0.0
H5753 H 0.93861 0.43434 0.50828 0.0
H5754 H 0.90878 0.428 0.53083 0.0
H5755 H 0.91624 0.42085 0.53597 0.0
H5756 H 0.91009 0.41716 0.52679 0.0
H5757 H 0.93444 0.44938 0.52394 0.0
H5758 H 0.94342 0.44467 0.51822 0.0
H5759 H 0.94153 0.44211 0.52943 0.0
C5760 C 0.84085 0.36413 0.74635 0.0
C5761 C 0.84526 0.36785 0.73934 0.0
C5762 C 0.84491 0.36296 0.75439 0.0
C5763 C 0.85359 0.3656 0.75551 0.0
C5764 C 0.85808 0.36936 0.74848 0.0
C5765 C 0.85387 0.37044 0.74049 0.0
C5766 C 0.83986 0.35894 0.76171 0.0
C5767 C 0.86734 0.37227 0.7494 0.0
C5768 C 0.86139 0.37013 0.7784 0.0
C5769 C 0.86591 0.36253 0.78044 0.0
C5770 C 0.8574 0.37122 0.77032 0.0
C5771 C 0.8579 0.36456 0.76409 0.0
C5772 C 0.86244 0.35686 0.7661 0.0
C5773 C 0.86638 0.35594 0.77424 0.0
C5774 C 0.85259 0.37951 0.76846 0.0
C5775 C 0.86315 0.3496 0.75964 0.0
H5776 H 0.83416 0.36224 0.74559 0.0
H5777 H 0.85738 0.37322 0.73511 0.0
H5778 H 0.84326 0.35311 0.76412 0.0
H5779 H 0.83942 0.36355 0.76717 0.0
H5780 H 0.83322 0.35708 0.75975 0.0
H5781 H 0.86996 0.37502 0.74331 0.0
H5782 H 0.86784 0.37722 0.75454 0.0
H5783 H 0.87146 0.36674 0.75138 0.0
H5784 H 0.86087 0.37521 0.78318 0.0
H5785 H 0.86994 0.35009 0.77571 0.0
H5786 H 0.84572 0.37808 0.76703 0.0
H5787 H 0.85535 0.3827 0.76267 0.0
H5788 H 0.85287 0.38411 0.77395 0.0
H5789 H 0.85661 0.3473 0.75784 0.0
H5790 H 0.86692 0.34405 0.76219 0.0
H5791 H 0.8663 0.35197 0.75366 0.0
C5792 C 0.93389 0.60901 0.02764 0.0
C5793 C 0.92801 0.61523 0.03063 0.0
C5794 C 0.93278 0.60498 1.01958 0.0
C5795 C 0.92559 0.60719 1.01435 0.0
C5796 C 0.91969 0.61354 1.01727 0.0
C5797 C 0.92098 0.61749 0.02534 0.0
C5798 C 0.93923 0.59826 1.0167 0.0
C5799 C 0.91196 0.6161 1.01191 0.0
C5800 C 0.92618 0.60173 0.99034 0.0
C5801 C 0.92139 0.59404 0.99004 0.0
C5802 C 0.9276 0.60608 0.99818 0.0
C5803 C 0.92412 0.60269 1.00594 0.0
C5804 C 0.9192 0.59499 1.00567 0.0
C5805 C 0.91791 0.59076 0.99775 0.0
C5806 C 0.93291 0.61426 0.99819 0.0
C5807 C 0.9153 0.59119 1.01376 0.0
H5808 H 0.93928 0.60713 0.0317 0.0
H5809 H 0.91648 0.6224 0.02748 0.0
H5810 H 0.93597 0.59193 1.01597 0.0
H5811 H 0.94193 0.60003 1.0103 0.0
H5812 H 0.94465 0.59751 0.02135 0.0
H5813 H 0.90804 0.62123 1.01503 0.0
H5814 H 0.91409 0.61843 1.00548 0.0
H5815 H 0.90777 0.61039 1.01081 0.0
H5816 H 0.92898 0.60427 0.98444 0.0
H5817 H 0.9141 0.58489 0.99757 0.0
H5818 H 0.93868 0.6134 1.00235 0.0
H5819 H 0.92909 0.61966 1.00093 0.0
H5820 H 0.93509 0.6161 0.99161 0.0
H5821 H 0.92047 0.58971 1.0185 0.0
H5822 H 0.91161 0.58518 1.01246 0.0
H5823 H 0.91091 0.59595 1.01682 0.0
C5824 C 0.68126 0.67159 0.2793 0.0
C5825 C 0.67547 0.67844 0.28068 0.0
C5826 C 0.68527 0.67037 0.27126 0.0
C5827 C 0.68347 0.67612 0.26437 0.0
C5828 C 0.67766 0.68307 0.26571 0.0
C5829 C 0.67375 0.68415 0.27384 0.0
C5830 C 0.69148 0.66293 0.27014 0.0
C5831 C 0.67552 0.68932 0.25854 0.0
C5832 C 0.69989 0.67747 0.2461 0.0
C5833 C 0.6962 0.6721 0.23979 0.0
C5834 C 0.69579 0.6789 0.25406 0.0
C5835 C 0.68775 0.67491 0.2558 0.0
C5836 C 0.68391 0.66959 0.24943 0.0
C5837 C 0.68818 0.66823 0.24152 0.0
C5838 C 0.70011 0.68462 0.26066 0.0
C5839 C 0.67534 0.66522 0.25101 0.0
H5840 H 0.68273 0.66721 0.28457 0.0
H5841 H 0.66921 0.6894 0.2748 0.0
H5842 H 0.68924 0.65866 0.26485 0.0
H5843 H 0.69794 0.66541 0.26828 0.0
H5844 H 0.69217 0.65901 0.27611 0.0
H5845 H 0.67088 0.69438 0.26061 0.0
H5846 H 0.6815 0.69251 0.25621 0.0
H5847 H 0.67271 0.68579 0.25298 0.0
H5848 H 0.706 0.68063 0.24478 0.0
H5849 H 0.6853 0.664 0.23676 0.0
H5850 H 0.7014 0.68089 0.26664 0.0
H5851 H 0.69576 0.69004 0.26242 0.0
H5852 H 0.70631 0.68734 0.25828 0.0
H5853 H 0.6759 0.66071 0.25655 0.0
H5854 H 0.67305 0.66155 0.24529 0.0
H5855 H 0.67037 0.6701 0.25273 0.0
C5856 C 0.62469 0.44808 0.49707 0.0
C5857 C 0.61946 0.44636 0.48987 0.0
C5858 C 0.62331 0.44388 0.505 0.0
C5859 C 0.61649 0.43783 0.50581 0.0
C5860 C 0.6112 0.43604 0.49856 0.0
C5861 C 0.61277 0.4403 0.49068 0.0
C5862 C 0.62915 0.44592 0.51253 0.0
C5863 C 0.60384 0.42968 0.49915 0.0
C5864 C 0.61782 0.42152 0.52421 0.0
C5865 C 0.61247 0.42528 0.5305 0.0
C5866 C 0.61911 0.42547 0.51613 0.0
C5867 C 0.61492 0.43338 0.51424 0.0
C5868 C 0.60939 0.43715 0.52048 0.0
C5869 C 0.60825 0.43307 0.52852 0.0
C5870 C 0.62503 0.42122 0.50966 0.0
C5871 C 0.6048 0.44557 0.51872 0.0
H5872 H 0.62995 0.45266 0.49647 0.0
H5873 H 0.60862 0.43901 0.48519 0.0
H5874 H 0.62529 0.44846 0.51799 0.0
H5875 H 0.63238 0.43993 0.51482 0.0
H5876 H 0.63419 0.45074 0.51084 0.0
H5877 H 0.60037 0.42895 0.49291 0.0
H5878 H 0.6063 0.42326 0.50118 0.0
H5879 H 0.59916 0.43183 0.50413 0.0
H5880 H 0.621 0.41543 0.52559 0.0
H5881 H 0.60418 0.43609 0.53335 0.0
H5882 H 0.63049 0.4256 0.50812 0.0
H5883 H 0.6215 0.42 0.50355 0.0
H5884 H 0.62769 0.415 0.51207 0.0
H5885 H 0.6096 0.45078 0.51767 0.0
H5886 H 0.60047 0.44749 0.52411 0.0
H5887 H 0.6009 0.44504 0.51273 0.0
C5888 C 0.76517 0.86284 0.68498 0.0
C5889 C 0.76026 0.86555 0.67785 0.0
C5890 C 0.77322 0.85875 0.68388 0.0
C5891 C 0.77646 0.85733 0.67545 0.0
C5892 C 0.77156 0.86008 0.66823 0.0
C5893 C 0.76353 0.86413 0.66951 0.0
C5894 C 0.77824 0.85593 0.69175 0.0
C5895 C 0.77476 0.85867 0.65913 0.0
C5896 C 0.80058 0.85318 0.67245 0.0
C5897 C 0.80087 0.84415 0.67169 0.0
C5898 C 0.79271 0.85756 0.67369 0.0
C5899 C 0.7849 0.8528 0.67416 0.0
C5900 C 0.78514 0.84369 0.67335 0.0
C5901 C 0.7931 0.83949 0.67212 0.0
C5902 C 0.79273 0.86727 0.67452 0.0
C5903 C 0.77698 0.83837 0.67378 0.0
H5904 H 0.76278 0.86401 0.69144 0.0
H5905 H 0.75975 0.86606 0.66395 0.0
H5906 H 0.77929 0.84884 0.69157 0.0
H5907 H 0.7847 0.85902 0.69177 0.0
H5908 H 0.77487 0.85758 0.69786 0.0
H5909 H 0.77028 0.86136 0.65421 0.0
H5910 H 0.78119 0.86173 0.65829 0.0
H5911 H 0.77557 0.85166 0.6579 0.0
H5912 H 0.80655 0.85684 0.67223 0.0
H5913 H 0.79322 0.83253 0.6714 0.0
H5914 H 0.78997 0.86917 0.68085 0.0
H5915 H 0.7886 0.87018 0.66944 0.0
H5916 H 0.79933 0.87003 0.67397 0.0
H5917 H 0.77367 0.83947 0.68003 0.0
H5918 H 0.77827 0.83134 0.67309 0.0
H5919 H 0.77247 0.8404 0.66859 0.0
C5920 C 0.26268 0.67904 0.37064 0.0
C5921 C 0.26029 0.67551 0.36263 0.0
C5922 C 0.27073 0.68308 0.3718 0.0
C5923 C 0.27657 0.68364 0.36479 0.0
C5924 C 0.27421 0.68011 0.35669 0.0
C5925 C 0.26612 0.67609 0.35571 0.0
C5926 C 0.27295 0.68679 0.38053 0.0
C5927 C 0.28026 0.68056 0.34905 0.0
C5928 C 0.29388 0.70111 0.36558 0.0
C5929 C 0.3012 0.69645 0.36826 0.0
C5930 C 0.28587 0.69702 0.36438 0.0
C5931 C 0.2851 0.68803 0.36591 0.0
C5932 C 0.29244 0.68329 0.36863 0.0
C5933 C 0.30039 0.68754 0.36977 0.0
C5934 C 0.2782 0.70233 0.3615 0.0
C5935 C 0.2919 0.6737 0.37034 0.0
H5936 H 0.25819 0.67875 0.37599 0.0
H5937 H 0.2644 0.6733 0.34953 0.0
H5938 H 0.279 0.68381 0.38299 0.0
H5939 H 0.27413 0.69383 0.37995 0.0
H5940 H 0.26775 0.68572 0.38535 0.0
H5941 H 0.27748 0.67749 0.3432 0.0
H5942 H 0.28177 0.6874 0.34754 0.0
H5943 H 0.28644 0.67731 0.35064 0.0
H5944 H 0.29438 0.70801 0.36453 0.0
H5945 H 0.30602 0.68386 0.37173 0.0
H5946 H 0.27301 0.70197 0.36642 0.0
H5947 H 0.27554 0.69968 0.35541 0.0
H5948 H 0.2799 0.70922 0.36045 0.0
H5949 H 0.28706 0.6724 0.37546 0.0
H5950 H 0.2982 0.67093 0.3724 0.0
H5951 H 0.28972 0.67029 0.36444 0.0
C5952 C 0.60356 0.05002 0.62074 0.0
C5953 C 0.59479 0.05105 0.61864 0.0
C5954 C 0.60777 0.04203 0.61961 0.0
C5955 C 0.60312 0.03488 0.6163 0.0
C5956 C 0.59428 0.03588 0.61417 0.0
C5957 C 0.59023 0.04392 0.61537 0.0
C5958 C 0.6172 0.04125 0.62197 0.0
C5959 C 0.58908 0.02843 0.61065 0.0
C5960 C 0.61547 1.01608 0.60625 0.0
C5961 C 0.61547 1.00999 0.61298 0.0
C5962 C 0.61152 0.02421 0.60725 0.0
C5963 C 0.60746 0.02633 0.61517 0.0
C5964 C 0.60744 1.02021 0.62198 0.0
C5965 C 0.61143 1.01214 0.6208 0.0
C5966 C 0.61171 0.03054 0.59984 0.0
C5967 C 0.60315 0.02218 0.63051 0.0
H5968 H 0.60717 0.05549 0.62316 0.0
H5969 H 0.58343 0.04458 0.61386 0.0
H5970 H 0.61806 0.0362 0.62698 0.0
H5971 H 0.62099 0.03923 0.61624 0.0
H5972 H 0.61991 0.04742 0.62444 0.0
H5973 H 0.5823 0.03028 0.60918 0.0
H5974 H 0.59211 0.02594 0.60466 0.0
H5975 H 0.58901 0.02305 0.61539 0.0
H5976 H 0.61867 1.01454 0.60022 0.0
H5977 H 0.61127 1.00744 0.626 0.0
H5978 H 0.61493 0.03661 0.60188 0.0
H5979 H 0.60501 0.03224 0.59791 0.0
H5980 H 0.61515 0.02794 0.59412 0.0
H5981 H 0.60603 0.02806 0.63339 0.0
H5982 H 0.60379 1.01678 0.6352 0.0
H5983 H 0.59618 0.02351 0.62949 0.0
C5984 C 0.24036 0.35363 0.86907 0.0
C5985 C 0.23981 0.3446 0.86838 0.0
C5986 C 0.24827 0.35796 0.86792 0.0
C5987 C 0.25584 0.35317 0.86603 0.0
C5988 C 0.25533 0.34407 0.86534 0.0
C5989 C 0.24735 0.33991 0.86653 0.0
C5990 C 0.24852 0.36768 0.86871 0.0
C5991 C 0.26324 0.33871 0.86337 0.0
C5992 C 0.27504 0.36451 0.85554 0.0
C5993 C 0.28054 0.36587 0.86262 0.0
C5994 C 0.26697 0.36044 0.85656 0.0
C5995 C 0.26431 0.35766 0.86486 0.0
C5996 C 0.26981 0.35902 0.87203 0.0
C5997 C 0.27784 0.36309 0.87083 0.0
C5998 C 0.2613 0.35912 0.84875 0.0
C5999 C 0.26725 0.35612 0.88098 0.0
H6000 H 0.23457 0.35733 0.8704 0.0
H6001 H 0.24704 0.33293 0.86611 0.0
H6002 H 0.2531 0.36957 0.87388 0.0
H6003 H 0.2509 0.37057 0.8626 0.0
H6004 H 0.24208 0.37046 0.87021 0.0
H6005 H 0.26175 0.3317 0.86295 0.0
H6006 H 0.26613 0.34081 0.85716 0.0
H6007 H 0.26819 0.33969 0.86845 0.0
H6008 H 0.277 0.36672 0.8492 0.0
H6009 H 0.28208 0.36397 0.87633 0.0
H6010 H 0.25497 0.36234 0.84974 0.0
H6011 H 0.26001 0.35214 0.84783 0.0
H6012 H 0.26427 0.36172 0.84275 0.0
H6013 H 0.26103 0.35915 0.88285 0.0
H6014 H 0.27219 0.3578 0.88591 0.0
H6015 H 0.26626 0.34903 0.88107 0.0
C6016 C 0.44937 0.49575 0.61207 0.0
C6017 C 0.44632 0.48991 0.61832 0.0
C6018 C 0.44527 0.50374 0.61068 0.0
C6019 C 0.4379 0.50597 0.6156 0.0
C6020 C 0.43468 0.50004 0.6218 0.0
C6021 C 0.43893 0.49211 0.62309 0.0
C6022 C 0.44891 0.50985 0.604 0.0
C6023 C 0.42683 0.50216 0.62718 0.0
C6024 C 0.43254 0.52984 0.61833 0.0
C6025 C 0.4259 0.53104 0.61227 0.0
C6026 C 0.43649 0.52173 0.61947 0.0
C6027 C 0.43372 0.51461 0.61445 0.0
C6028 C 0.42704 0.51577 0.60831 0.0
C6029 C 0.42322 0.52397 0.60728 0.0
C6030 C 0.44364 0.52081 0.62603 0.0
C6031 C 0.42387 0.50834 0.60287 0.0
H6032 H 0.45496 0.49407 0.60823 0.0
H6033 H 0.43657 0.4877 0.62799 0.0
H6034 H 0.44388 0.51147 0.59916 0.0
H6035 H 0.4509 0.51597 0.60713 0.0
H6036 H 0.45458 0.50708 0.60058 0.0
H6037 H 0.42492 0.49672 0.63146 0.0
H6038 H 0.42816 0.5079 0.63123 0.0
H6039 H 0.4213 0.5038 0.62292 0.0
H6040 H 0.43474 0.53528 0.62213 0.0
H6041 H 0.41803 0.5248 0.60266 0.0
H6042 H 0.44964 0.51858 0.62281 0.0
H6043 H 0.44188 0.51585 0.63089 0.0
H6044 H 0.44503 0.52696 0.62943 0.0
H6045 H 0.42928 0.50563 0.59904 0.0
H6046 H 0.41863 0.5103 0.59837 0.0
H6047 H 0.42142 0.50309 0.60709 0.0
C6048 C 0.74706 0.20049 0.17505 0.0
C6049 C 0.73972 0.19583 0.17246 0.0
C6050 C 0.75508 0.1964 0.17623 0.0
C6051 C 0.75584 0.1874 0.17476 0.0
C6052 C 0.74848 0.18265 0.17213 0.0
C6053 C 0.74052 0.18691 0.17101 0.0
C6054 C 0.76277 0.20172 0.179 0.0
C6055 C 0.749 0.17305 0.17051 0.0
C6056 C 0.77826 0.17839 0.17004 0.0
C6057 C 0.78069 0.17495 0.17808 0.0
C6058 C 0.77019 0.18239 0.16887 0.0
C6059 C 0.76437 0.18301 0.17589 0.0
C6060 C 0.76677 0.17955 0.18402 0.0
C6061 C 0.77489 0.17557 0.18502 0.0
C6062 C 0.76791 0.18602 0.1601 0.0
C6063 C 0.76076 0.18006 0.19168 0.0
H6064 H 0.74657 0.2074 0.17605 0.0
H6065 H 0.73488 0.18323 0.16911 0.0
H6066 H 0.76546 0.19913 0.18511 0.0
H6067 H 0.76794 0.2013 0.17406 0.0
H6068 H 0.76109 0.20863 0.17997 0.0
H6069 H 0.7427 0.17028 0.16851 0.0
H6070 H 0.75383 0.17171 0.16539 0.0
H6071 H 0.75121 0.16969 0.17644 0.0
H6072 H 0.78273 0.17806 0.16467 0.0
H6073 H 0.77664 0.17284 0.19122 0.0
H6074 H 0.76674 0.19307 0.1606 0.0
H6075 H 0.76186 0.18303 0.15772 0.0
H6076 H 0.77309 0.1849 0.15526 0.0
H6077 H 0.75926 0.18691 0.19314 0.0
H6078 H 0.76356 0.17702 0.19755 0.0
H6079 H 0.75456 0.17681 0.19014 0.0
C6080 C 0.58986 0.99711 0.92464 0.0
C6081 C 0.59457 0.9897 0.92233 0.0
C6082 C 0.59397 1.00511 0.92587 0.0
C6083 C 0.60302 1.00579 0.92472 0.0
C6084 C 0.60781 0.99835 0.92237 0.0
C6085 C 0.60354 0.99042 0.92121 0.0
C6086 C 0.5886 1.01287 0.92834 0.0
C6087 C 0.61747 0.99878 0.92109 0.0
C6088 C 0.61239 0.02806 0.92001 0.0
C6089 C 0.61557 0.03056 0.92812 0.0
C6090 C 0.60836 1.02001 0.91881 0.0
C6091 C 0.60744 1.01429 0.92589 0.0
C6092 C 0.61062 1.01677 0.9341 0.0
C6093 C 0.61464 0.02486 0.93512 0.0
C6094 C 0.60503 1.01766 0.90995 0.0
C6095 C 0.60978 1.01086 0.94182 0.0
H6096 H 0.58292 0.99669 0.92539 0.0
H6097 H 0.60726 0.98473 0.91953 0.0
H6098 H 0.59099 1.01562 0.9345 0.0
H6099 H 0.58923 1.01798 0.92334 0.0
H6100 H 0.58165 1.01126 0.92909 0.0
H6101 H 0.62027 0.99243 0.91928 0.0
H6102 H 0.61904 1.00353 0.91596 0.0
H6103 H 0.62063 1.00104 0.92711 0.0
H6104 H 0.61295 0.03245 0.91459 0.0
H6105 H 0.61716 0.02667 0.94138 0.0
H6106 H 0.59795 1.01655 0.91022 0.0
H6107 H 0.60805 1.01154 0.90776 0.0
H6108 H 0.60636 0.02276 0.90508 0.0
H6109 H 0.60286 1.00943 0.94305 0.0
H6110 H 0.61262 1.01371 0.94775 0.0
H6111 H 0.61304 1.00462 0.94049 0.0
C6112 C 0.91982 1.01822 0.42797 0.0
C6113 C 0.92482 1.01072 0.42898 0.0
C6114 C 0.9237 0.02635 0.42677 0.0
C6115 C 0.93283 0.02701 0.42654 0.0
C6116 C 0.93791 1.01947 0.42759 0.0
C6117 C 0.93385 1.01143 0.42881 0.0
C6118 C 0.91804 0.03423 0.42575 0.0
C6119 C 0.94765 1.01988 0.42734 0.0
C6120 C 0.94314 0.04649 0.41551 0.0
C6121 C 0.94552 0.05163 0.42258 0.0
C6122 C 0.93895 0.03851 0.4167 0.0
C6123 C 0.93706 0.03558 0.42516 0.0
C6124 C 0.93933 0.0408 0.43232 0.0
C6125 C 0.94353 0.04873 0.43094 0.0
C6126 C 0.93666 0.03315 0.40889 0.0
C6127 C 0.93739 0.03795 0.44144 0.0
H6128 H 0.91283 1.01776 0.4282 0.0
H6129 H 0.93777 1.00567 0.42947 0.0
H6130 H 0.9196 0.03903 0.43082 0.0
H6131 H 0.91931 0.03734 0.41942 0.0
H6132 H 0.91106 0.03264 0.42616 0.0
H6133 H 0.95068 1.01345 0.42833 0.0
H6134 H 0.94982 0.02249 0.42103 0.0
H6135 H 0.95004 0.02433 0.43242 0.0
H6136 H 0.94473 0.04861 0.40903 0.0
H6137 H 0.94522 0.05271 0.43644 0.0
H6138 H 0.92963 0.03176 0.40884 0.0
H6139 H 0.94007 0.02685 0.4092 0.0
H6140 H 0.9384 0.03641 0.40274 0.0
H6141 H 0.93036 0.03676 0.44219 0.0
H6142 H 0.93942 0.04282 0.4463 0.0
H6143 H 0.94076 0.03178 0.44284 0.0
C6144 C 0.37727 0.24475 0.19273 0.0
C6145 C 0.37036 0.24035 0.19662 0.0
C6146 C 0.376 0.25271 0.18851 0.0
C6147 C 0.36762 0.25638 0.18815 0.0
C6148 C 0.3606 0.2519 0.19194 0.0
C6149 C 0.36205 0.24397 0.19612 0.0
C6150 C 0.38366 0.25728 0.18457 0.0
C6151 C 0.35155 0.25554 0.19165 0.0
C6152 C 0.36535 0.28068 0.18485 0.0
C6153 C 0.36343 0.28125 0.17601 0.0
C6154 C 0.36676 0.27265 0.18886 0.0
C6155 C 0.3662 0.26496 0.18394 0.0
C6156 C 0.36423 0.26549 0.17502 0.0
C6157 C 0.36289 0.27361 0.17117 0.0
C6158 C 0.3689 0.27239 0.19837 0.0
C6159 C 0.36349 0.25745 0.16955 0.0
H6160 H 0.38372 0.24207 0.19315 0.0
H6161 H 0.35665 0.24056 0.19898 0.0
H6162 H 0.38247 0.25853 0.17762 0.0
H6163 H 0.38459 0.26363 0.18774 0.0
H6164 H 0.38972 0.25348 0.18522 0.0
H6165 H 0.34676 0.25118 0.19474 0.0
H6166 H 0.35136 0.26187 0.19498 0.0
H6167 H 0.34957 0.25666 0.18485 0.0
H6168 H 0.3659 0.28655 0.18862 0.0
H6169 H 0.36132 0.27398 0.16436 0.0
H6170 H 0.37525 0.26922 0.19936 0.0
H6171 H 0.364 0.2685 0.20187 0.0
H6172 H 0.36912 0.27894 0.20128 0.0
H6173 H 0.36966 0.2538 0.16974 0.0
H6174 H 0.36192 0.25895 0.16272 0.0
H6175 H 0.3584 0.25316 0.17219 0.0
C6176 C 0.54187 0.62128 0.95186 0.0
C6177 C 0.54971 0.62116 0.9473 0.0
C6178 C 0.53394 0.6199 0.94767 0.0
C6179 C 0.53379 0.61838 0.93865 0.0
C6180 C 0.54166 0.61832 0.93399 0.0
C6181 C 0.54951 0.61971 0.93836 0.0
C6182 C 0.5257 0.62007 0.95289 0.0
C6183 C 0.5418 0.61672 0.92438 0.0
C6184 C 0.51399 0.60714 0.92924 0.0
C6185 C 0.50924 0.61411 0.92591 0.0
C6186 C 0.52201 0.60842 0.93334 0.0
C6187 C 0.52539 0.61688 0.93413 0.0
C6188 C 0.52065 0.62395 0.93074 0.0
C6189 C 0.51265 0.62248 0.92671 0.0
C6190 C 0.52684 0.60071 0.93686 0.0
C6191 C 0.524 0.63308 0.93146 0.0
H6192 H 0.54191 0.62253 0.95875 0.0
H6193 H 0.55553 0.61951 0.93478 0.0
H6194 H 0.52131 0.62515 0.95037 0.0
H6195 H 0.52228 0.6138 0.95226 0.0
H6196 H 0.52691 0.62132 0.95984 0.0
H6197 H 0.54844 0.61695 0.92167 0.0
H6198 H 0.53896 0.6103 0.92295 0.0
H6199 H 0.53778 0.62161 0.92102 0.0
H6200 H 0.51149 0.60064 0.92857 0.0
H6201 H 0.50899 0.62794 0.92429 0.0
H6202 H 0.5278 0.60145 0.94392 0.0
H6203 H 0.53334 0.60032 0.93386 0.0
H6204 H 0.52339 0.59454 0.93566 0.0
H6205 H 0.52474 0.63485 0.93836 0.0
H6206 H 0.51965 0.63784 0.92832 0.0
H6207 H 0.53048 0.63356 0.92844 0.0
C6208 C 0.18436 0.76494 0.67815 0.0
C6209 C 0.17728 0.75982 0.67575 0.0
C6210 C 0.18319 0.77299 0.68221 0.0
C6211 C 0.17473 0.77602 0.68392 0.0
C6212 C 0.16755 0.77091 0.68149 0.0
C6213 C 0.16891 0.76289 0.67746 0.0
C6214 C 0.19102 0.77823 0.6847 0.0
C6215 C 0.15842 0.77388 0.68321 0.0
C6216 C 0.17161 0.7927 0.70172 0.0
C6217 C 0.17081 0.80043 0.69702 0.0
C6218 C 0.17289 0.78475 0.69755 0.0
C6219 C 0.17338 0.78446 0.68843 0.0
C6220 C 0.17252 0.79221 0.68363 0.0
C6221 C 0.17124 0.80009 0.68797 0.0
C6222 C 0.17373 0.77664 0.70292 0.0
C6223 C 0.17299 0.79219 0.67389 0.0
H6224 H 0.19085 0.7627 0.67677 0.0
H6225 H 0.16338 0.75895 0.67576 0.0
H6226 H 0.19076 0.78467 0.68155 0.0
H6227 H 0.19107 0.77933 0.69178 0.0
H6228 H 0.19717 0.77502 0.68285 0.0
H6229 H 0.15353 0.76924 0.68075 0.0
H6230 H 0.15743 0.77471 0.69025 0.0
H6231 H 0.15729 0.78025 0.68013 0.0
H6232 H 0.17114 0.79285 0.7087 0.0
H6233 H 0.17073 0.80602 0.68428 0.0
H6234 H 0.18003 0.77348 0.70162 0.0
H6235 H 0.1686 0.77198 0.70112 0.0
H6236 H 0.17325 0.77796 0.70995 0.0
H6237 H 0.17933 0.78959 0.67178 0.0
H6238 H 0.17215 0.79875 0.6711 0.0
H6239 H 0.16793 0.78789 0.67121 0.0
C6240 C 0.02386 0.42812 0.42146 0.0
C6241 C 0.0315 0.42745 0.42631 0.0
C6242 C 1.01573 0.42681 0.42529 0.0
C6243 C 1.01519 0.42472 0.43418 0.0
C6244 C 0.02287 0.42403 0.43911 0.0
C6245 C 0.03092 0.42542 0.43513 0.0
C6246 C 1.0077 0.42768 0.41982 0.0
C6247 C 0.02259 0.42177 0.44859 0.0
C6248 C 0.99422 0.42893 0.44635 0.0
C6249 C 0.99052 0.42065 0.44675 0.0
C6250 C 1.00217 0.43035 0.44221 0.0
C6251 C 1.00659 0.42334 0.43836 0.0
C6252 C 1.00285 0.41499 0.43862 0.0
C6253 C 0.99487 0.41375 0.44279 0.0
C6254 C 1.00589 0.43937 0.44203 0.0
C6255 C 1.00734 0.40733 0.43461 0.0
H6256 H 0.02424 0.42979 0.41468 0.0
H6257 H 0.03678 0.42477 0.4389 0.0
H6258 H 1.00399 0.42156 0.41993 0.0
H6259 H 1.00345 0.43279 0.4225 0.0
H6260 H 1.00922 0.42932 0.413 0.0
H6261 H 0.02914 0.42144 0.45151 0.0
H6262 H 1.01874 0.42665 0.45214 0.0
H6263 H 1.01936 0.41544 0.4495 0.0
H6264 H 0.99085 0.43433 0.44926 0.0
H6265 H 0.99212 0.40732 0.44314 0.0
H6266 H 1.00704 0.44142 0.43527 0.0
H6267 H 1.01222 0.43945 0.44538 0.0
H6268 H 1.00157 0.44416 0.44518 0.0
H6269 H 1.00861 0.40859 0.42767 0.0
H6270 H 1.0035 0.4013 0.43518 0.0
H6271 H 1.01369 0.4063 0.43777 0.0
C6272 C 0.37732 0.79545 0.34634 0.0
C6273 C 0.37028 0.80069 0.34404 0.0
C6274 C 0.37608 0.78744 0.35046 0.0
C6275 C 0.36759 0.78458 0.35236 0.0
C6276 C 0.36047 0.7899 0.35018 0.0
C6277 C 0.36189 0.79786 0.34605 0.0
C6278 C 0.38385 0.78196 0.35267 0.0
C6279 C 0.35132 0.78714 0.35214 0.0
C6280 C 0.36365 0.76045 0.35538 0.0
C6281 C 0.36348 0.75964 0.3644 0.0
C6282 C 0.36498 0.76851 0.35139 0.0
C6283 C 0.36615 0.77598 0.35653 0.0
C6284 C 0.36592 0.77522 0.36564 0.0
C6285 C 0.36461 0.76708 0.36946 0.0
C6286 C 0.36521 0.76901 0.34165 0.0
C6287 C 0.36707 0.78303 0.37136 0.0
H6288 H 0.38381 0.79752 0.34474 0.0
H6289 H 0.35642 0.80191 0.34442 0.0
H6290 H 0.38392 0.7805 0.35968 0.0
H6291 H 0.38347 0.77571 0.3492 0.0
H6292 H 0.39002 0.78518 0.35093 0.0
H6293 H 0.3465 0.79208 0.35017 0.0
H6294 H 0.34984 0.78102 0.34872 0.0
H6295 H 0.35059 0.78588 0.35915 0.0
H6296 H 0.3629 0.75473 0.35141 0.0
H6297 H 0.36438 0.76655 0.37643 0.0
H6298 H 0.37154 0.77158 0.33949 0.0
H6299 H 0.36016 0.77354 0.33931 0.0
H6300 H 0.36415 0.76262 0.33857 0.0
H6301 H 0.37342 0.78608 0.37007 0.0
H6302 H 0.36669 0.78137 0.37833 0.0
H6303 H 0.36203 0.78791 0.36988 0.0
C6304 C 0.02656 0.62093 0.11614 0.0
C6305 C 0.03197 0.61417 0.11343 0.0
C6306 C 1.01845 0.62234 0.1123 0.0
C6307 C 1.01562 0.61684 0.10558 0.0
C6308 C 0.02097 0.60992 0.10289 0.0
C6309 C 0.02907 0.60868 0.10683 0.0
C6310 C 1.01295 0.62979 0.11537 0.0
C6311 C 1.01819 0.60389 0.09576 0.0
C6312 C 0.99157 0.61614 0.10019 0.0
C6313 C 0.99112 0.62145 0.09285 0.0
C6314 C 0.99948 0.61458 0.1044 0.0
C6315 C 1.00714 0.61845 0.10122 0.0
C6316 C 1.00672 0.62388 0.09387 0.0
C6317 C 0.99873 0.6253 0.08978 0.0
C6318 C 0.99965 0.60872 0.11219 0.0
C6319 C 1.01471 0.62819 0.09031 0.0
H6320 H 0.02865 0.62513 0.12134 0.0
H6321 H 0.03321 0.6035 0.10461 0.0
H6322 H 1.01174 0.63433 0.10996 0.0
H6323 H 1.00658 0.62737 0.11759 0.0
H6324 H 1.01603 0.6334 0.12074 0.0
H6325 H 0.02295 0.59864 0.09463 0.0
H6326 H 1.01186 0.60094 0.09737 0.0
H6327 H 1.01734 0.60757 0.08967 0.0
H6328 H 0.98575 0.61305 0.10255 0.0
H6329 H 0.99844 0.62951 0.08418 0.0
H6330 H 1.00236 0.61221 0.11783 0.0
H6331 H 1.00393 0.60311 0.11093 0.0
H6332 H 0.99312 0.60629 0.11392 0.0
H6333 H 1.0177 0.63231 0.09534 0.0
H6334 H 1.01329 0.63226 0.08457 0.0
H6335 H 1.01954 0.62324 0.08847 0.0
C6336 C 0.17915 0.24408 0.8438 0.0
C6337 C 0.17081 0.24056 0.84313 0.0
C6338 C 0.18059 0.252 0.84798 0.0
C6339 C 0.17353 0.25657 0.85159 0.0
C6340 C 0.16512 0.25301 0.85103 0.0
C6341 C 0.16386 0.24506 0.84682 0.0
C6342 C 0.18967 0.25552 0.84848 0.0
C6343 C 0.15742 0.25768 0.85477 0.0
C6344 C 0.178 0.27367 0.86871 0.0
C6345 C 0.17764 0.28134 0.86388 0.0
C6346 C 0.1767 0.26557 0.86481 0.0
C6347 C 0.17495 0.26511 0.85584 0.0
C6348 C 0.17459 0.27283 0.85092 0.0
C6349 C 0.17596 0.28083 0.85499 0.0
C6350 C 0.17721 0.25751 0.87027 0.0
C6351 C 0.1727 0.27264 0.84136 0.0
H6352 H 0.18458 0.24059 0.84109 0.0
H6353 H 0.15739 0.24246 0.84625 0.0
H6354 H 0.19001 0.26187 0.84517 0.0
H6355 H 0.19151 0.25659 0.85532 0.0
H6356 H 0.19448 0.25111 0.84549 0.0
H6357 H 0.15132 0.25398 0.85395 0.0
H6358 H 0.15844 0.25888 0.86175 0.0
H6359 H 0.15666 0.26406 0.85159 0.0
H6360 H 0.1794 0.27398 0.87556 0.0
H6361 H 0.17556 0.28673 0.85123 0.0
H6362 H 0.18231 0.25316 0.86774 0.0
H6363 H 0.17101 0.25393 0.86993 0.0
H6364 H 0.17864 0.25896 0.87715 0.0
H6365 H 0.17763 0.26869 0.83799 0.0
H6366 H 0.17264 0.2792 0.83845 0.0
H6367 H 0.16634 0.26957 0.8402 0.0
C6368 C 0.5444 0.41445 0.5942 0.0
C6369 C 0.55058 0.42108 0.59395 0.0
C6370 C 0.53632 0.41569 0.59816 0.0
C6371 C 0.53435 0.42374 0.60202 0.0
C6372 C 0.54058 0.43043 0.60187 0.0
C6373 C 0.5486 0.42903 0.59784 0.0
C6374 C 0.52985 0.4084 0.59814 0.0
C6375 C 0.53878 0.43909 0.60597 0.0
C6376 C 0.51065 0.42966 0.60529 0.0
C6377 C 0.50937 0.4276 0.61402 0.0
C6378 C 0.51874 0.42848 0.60132 0.0
C6379 C 0.52575 0.42518 0.60619 0.0
C6380 C 0.52453 0.42317 0.61503 0.0
C6381 C 0.51638 0.42441 0.61883 0.0
C6382 C 0.51975 0.43067 0.59187 0.0
C6383 C 0.53184 0.4197 0.62047 0.0
H6384 H 0.54582 0.40833 0.59112 0.0
H6385 H 0.55336 0.43416 0.59778 0.0
H6386 H 0.52801 0.40673 0.60486 0.0
H6387 H 0.52388 0.41046 0.59475 0.0
H6388 H 0.5324 0.4025 0.59494 0.0
H6389 H 0.54434 0.4436 0.60538 0.0
H6390 H 0.53306 0.44211 0.60288 0.0
H6391 H 0.53725 0.43824 0.61291 0.0
H6392 H 0.50526 0.43203 0.60149 0.0
H6393 H 0.5155 0.42292 0.62561 0.0
H6394 H 0.52167 0.42482 0.58822 0.0
H6395 H 0.52497 0.43551 0.59102 0.0
H6396 H 0.51371 0.43329 0.58901 0.0
H6397 H 0.53422 0.41353 0.61772 0.0
H6398 H 0.52987 0.41855 0.62728 0.0
H6399 H 0.53733 0.4243 0.62042 0.0
C6400 C 0.17247 0.36735 0.27446 0.0
C6401 C 0.17714 0.36377 0.28137 0.0
C6402 C 0.1763 0.3686 0.26632 0.0
C6403 C 0.18504 0.36622 0.26502 0.0
C6404 C 0.18978 0.36253 0.27194 0.0
C6405 C 0.18577 0.36134 0.28001 0.0
C6406 C 0.17101 0.3725 0.25912 0.0
C6407 C 0.19911 0.35992 0.27084 0.0
C6408 C 0.1931 0.3625 0.24206 0.0
C6409 C 0.19733 0.37031 0.24023 0.0
C6410 C 0.18904 0.3611 0.25007 0.0
C6411 C 0.18924 0.36764 0.25645 0.0
C6412 C 0.19347 0.37556 0.25463 0.0
C6413 C 0.19744 0.3768 0.24655 0.0
C6414 C 0.18455 0.3526 0.25171 0.0
C6415 C 0.19387 0.38269 0.26125 0.0
H6416 H 0.16576 0.36913 0.27539 0.0
H6417 H 0.18947 0.35867 0.28532 0.0
H6418 H 0.17405 0.37858 0.25686 0.0
H6419 H 0.17082 0.36803 0.25353 0.0
H6420 H 0.16427 0.37392 0.26114 0.0
H6421 H 0.20186 0.35704 0.27681 0.0
H6422 H 0.19971 0.35517 0.26552 0.0
H6423 H 0.20303 0.36564 0.26903 0.0
H6424 H 0.19289 0.35749 0.23719 0.0
H6425 H 0.20079 0.38281 0.24524 0.0
H6426 H 0.17766 0.35374 0.25328 0.0
H6427 H 0.18751 0.34932 0.25736 0.0
H6428 H 0.18491 0.3482 0.24606 0.0
H6429 H 0.18724 0.38464 0.26315 0.0
H6430 H 0.19735 0.38848 0.25882 0.0
H6431 H 0.19717 0.38033 0.26716 0.0
C6432 C 0.42684 0.42148 0.0233 0.0
C6433 C 0.42773 0.42648 0.0308 0.0
C6434 C 0.42553 0.42535 1.01519 0.0
C6435 C 0.42506 0.43447 1.01453 0.0
C6436 C 0.42598 0.43956 0.02206 0.0
C6437 C 0.42732 0.43551 0.03009 0.0
C6438 C 0.42464 0.41968 1.00731 0.0
C6439 C 0.42548 0.44929 0.02166 0.0
C6440 C 0.42932 0.44526 0.99281 0.0
C6441 C 0.42092 0.44705 0.98987 0.0
C6442 C 0.43075 0.44111 1.00076 0.0
C6443 C 0.42362 0.43868 1.00595 0.0
C6444 C 0.41512 0.44037 1.00298 0.0
C6445 C 0.41388 0.44452 0.99499 0.0
C6446 C 0.43991 0.43938 1.00364 0.0
C6447 C 0.40734 0.43792 1.00832 0.0
H6448 H 0.42726 0.4145 0.02376 0.0
H6449 H 0.42788 0.43943 0.03586 0.0
H6450 H 0.4183 0.42083 1.00418 0.0
H6451 H 0.42971 0.42135 1.00253 0.0
H6452 H 0.42519 0.41271 1.0089 0.0
H6453 H 0.42636 0.45233 0.02809 0.0
H6454 H 0.43052 0.45182 1.01723 0.0
H6455 H 0.41913 0.4513 1.01901 0.0
H6456 H 0.4348 0.44707 0.98885 0.0
H6457 H 0.40737 0.44595 0.99283 0.0
H6458 H 0.44082 0.43237 1.00484 0.0
H6459 H 0.4412 0.44276 1.00982 0.0
H6460 H 0.44474 0.44154 0.9988 0.0
H6461 H 0.40744 0.43088 1.00971 0.0
H6462 H 0.40117 0.43953 1.00504 0.0
H6463 H 0.40755 0.44132 1.01461 0.0
C6464 C 0.35183 0.67319 0.74039 0.0
C6465 C 0.34328 0.67016 0.74026 0.0
C6466 C 0.35617 0.67466 0.74824 0.0
C6467 C 0.35189 0.67307 0.75617 0.0
C6468 C 0.34329 0.66994 0.75607 0.0
C6469 C 0.33911 0.66852 0.74815 0.0
C6470 C 0.36533 0.67799 0.74805 0.0
C6471 C 0.33849 0.66811 0.76436 0.0
C6472 C 0.36511 0.6695 0.77663 0.0
C6473 C 0.36449 0.67757 0.78074 0.0
C6474 C 0.36114 0.66799 0.76861 0.0
C6475 C 0.35637 0.67467 0.76457 0.0
C6476 C 0.35573 0.68283 0.76865 0.0
C6477 C 0.3598 0.68419 0.77665 0.0
C6478 C 0.36198 0.65919 0.7645 0.0
C6479 C 0.35071 0.69014 0.76456 0.0
H6480 H 0.35508 0.67457 0.73435 0.0
H6481 H 0.33256 0.66606 0.74812 0.0
H6482 H 0.36568 0.68432 0.75138 0.0
H6483 H 0.36966 0.67349 0.75157 0.0
H6484 H 0.36781 0.67879 0.74136 0.0
H6485 H 0.33185 0.66568 0.76319 0.0
H6486 H 0.34206 0.66325 0.76824 0.0
H6487 H 0.33808 0.67408 0.7683 0.0
H6488 H 0.36858 0.66429 0.77977 0.0
H6489 H 0.35938 0.69048 0.77969 0.0
H6490 H 0.36478 0.65981 0.75793 0.0
H6491 H 0.3555 0.65622 0.76377 0.0
H6492 H 0.36611 0.65475 0.76835 0.0
H6493 H 0.35335 0.69159 0.75807 0.0
H6494 H 0.3509 0.69612 0.76851 0.0
H6495 H 0.34386 0.68819 0.76369 0.0
C6496 C 0.11166 0.5959 0.49302 0.0
C6497 C 0.12003 0.59384 0.49018 0.0
C6498 C 0.11027 0.60003 0.50098 0.0
C6499 C 0.11741 0.60216 0.50628 0.0
C6500 C 0.12588 0.60018 0.50343 0.0
C6501 C 0.12709 0.59607 0.49542 0.0
C6502 C 0.10114 0.60207 0.50374 0.0
C6503 C 0.13367 0.60231 0.50889 0.0
C6504 C 0.11464 0.61935 0.52367 0.0
C6505 C 0.11349 0.61432 0.53114 0.0
C6506 C 0.11588 0.61548 0.51555 0.0
C6507 C 0.11601 0.60636 0.51485 0.0
C6508 C 0.11481 0.60125 0.52236 0.0
C6509 C 0.11355 0.60529 0.53039 0.0
C6510 C 0.11707 0.62117 0.50771 0.0
C6511 C 0.11494 0.59151 0.52191 0.0
H6512 H 0.10618 0.59432 0.48897 0.0
H6513 H 0.13357 0.59441 0.49335 0.0
H6514 H 0.09965 0.59869 0.50988 0.0
H6515 H 0.10046 0.60909 0.50495 0.0
H6516 H 0.0963 0.60011 0.49882 0.0
H6517 H 0.13983 0.60049 0.50569 0.0
H6518 H 0.13381 0.60933 0.5103 0.0
H6519 H 0.13325 0.59888 0.51516 0.0
H6520 H 0.11449 0.62633 0.52416 0.0
H6521 H 0.11278 0.60135 0.53613 0.0
H6522 H 0.11201 0.61971 0.50285 0.0
H6523 H 0.12341 0.61982 0.50466 0.0
H6524 H 0.11674 0.62815 0.50933 0.0
H6525 H 0.10988 0.58921 0.5174 0.0
H6526 H 0.11386 0.58847 0.52832 0.0
H6527 H 0.12125 0.58928 0.51935 0.0
C6528 C 0.20171 0.66693 0.29216 0.0
C6529 C 0.19784 0.66929 0.30001 0.0
C6530 C 0.19756 0.66841 0.28423 0.0
C6531 C 0.18929 0.67234 0.28409 0.0
C6532 C 0.1853 0.67466 0.29199 0.0
C6533 C 0.18961 0.6731 0.29984 0.0
C6534 C 0.20203 0.66579 0.27597 0.0
C6535 C 0.1765 0.67886 0.29214 0.0
C6536 C 0.18212 0.68337 0.26325 0.0
C6537 C 0.17675 0.67709 0.25952 0.0
C6538 C 0.18619 0.68193 0.27125 0.0
C6539 C 0.18486 0.67403 0.27568 0.0
C6540 C 0.17941 0.66769 0.27199 0.0
C6541 C 0.17545 0.66928 0.26397 0.0
C6542 C 0.19196 0.68887 0.27494 0.0
C6543 C 0.17781 0.65918 0.27649 0.0
H6544 H 0.20801 0.66386 0.29222 0.0
H6545 H 0.1866 0.67505 0.30585 0.0
H6546 H 0.19796 0.66115 0.27235 0.0
H6547 H 0.20296 0.67153 0.27178 0.0
H6548 H 0.20843 0.66277 0.27718 0.0
H6549 H 0.17421 0.68014 0.29881 0.0
H6550 H 0.1767 0.68506 0.28854 0.0
H6551 H 0.17172 0.67466 0.28885 0.0
H6552 H 0.18308 0.68947 0.25995 0.0
H6553 H 0.17144 0.66431 0.26111 0.0
H6554 H 0.19859 0.6863 0.27583 0.0
H6555 H 0.18957 0.69084 0.2814 0.0
H6556 H 0.19228 0.69468 0.27074 0.0
H6557 H 0.184 0.65564 0.27727 0.0
H6558 H 0.17323 0.65501 0.27288 0.0
H6559 H 0.17518 0.66032 0.28305 0.0
C6560 C 0.12552 0.44042 0.04742 0.0
C6561 C 0.12063 0.44769 0.04975 0.0
C6562 C 0.12415 0.43618 0.0395 0.0
C6563 C 0.11775 0.43929 0.03373 0.0
C6564 C 0.11272 0.44655 0.03609 0.0
C6565 C 0.1142 0.45064 0.04406 0.0
C6566 C 0.12965 0.42845 0.03724 0.0
C6567 C 0.10582 0.45007 0.03016 0.0
C6568 C 0.11991 0.43397 1.00982 0.0
C6569 C 0.11394 0.42721 1.00881 0.0
C6570 C 0.1212 0.43793 1.01787 0.0
C6571 C 0.11645 0.43508 0.02515 0.0
C6572 C 0.1104 0.42828 0.02418 0.0
C6573 C 0.10921 0.42445 1.01603 0.0
C6574 C 0.12765 0.44521 1.01859 0.0
C6575 C 0.10523 0.42501 0.03177 0.0
H6576 H 0.13056 0.43813 0.05171 0.0
H6577 H 0.11027 0.45614 0.04585 0.0
H6578 H 0.12547 0.42282 0.03575 0.0
H6579 H 0.1335 0.42985 0.03137 0.0
H6580 H 0.13413 0.42664 0.04254 0.0
H6581 H 0.10238 0.45569 0.03299 0.0
H6582 H 0.10875 0.45209 0.02394 0.0
H6583 H 0.10102 0.44496 0.02869 0.0
H6584 H 0.12351 0.43623 1.00426 0.0
H6585 H 0.10467 0.41917 1.01535 0.0
H6586 H 0.13269 0.44355 0.02341 0.0
H6587 H 0.12437 0.45115 0.02089 0.0
H6588 H 0.13086 0.44665 1.01234 0.0
H6589 H 0.10965 0.42266 0.0369 0.0
H6590 H 0.10079 0.41968 0.02996 0.0
H6591 H 0.10137 0.43035 0.03458 0.0
C6592 C 0.35528 0.36542 0.76021 0.0
C6593 C 0.364 0.36302 0.75967 0.0
C6594 C 0.35128 0.36684 0.76824 0.0
C6595 C 0.3561 0.36579 0.77595 0.0
C6596 C 0.3649 0.36332 0.77545 0.0
C6597 C 0.36874 0.36198 0.76733 0.0
C6598 C 0.3419 0.36951 0.76847 0.0
C6599 C 0.37025 0.36206 0.78351 0.0
C6600 C 0.34782 0.37682 0.79635 0.0
C6601 C 0.34353 0.37004 0.80057 0.0
C6602 C 0.352 0.37552 0.78839 0.0
C6603 C 0.35191 0.36723 0.78453 0.0
C6604 C 0.3477 0.36033 0.78881 0.0
C6605 C 0.34357 0.36181 0.79675 0.0
C6606 C 0.3564 0.38306 0.78404 0.0
C6607 C 0.34749 0.35137 0.78496 0.0
H6608 H 0.35159 0.36634 0.75433 0.0
H6609 H 0.37546 0.36003 0.76699 0.0
H6610 H 0.3381 0.36473 0.77223 0.0
H6611 H 0.34125 0.37582 0.77178 0.0
H6612 H 0.33906 0.37006 0.76191 0.0
H6613 H 0.377 0.36013 0.78203 0.0
H6614 H 0.37039 0.36813 0.7873 0.0
H6615 H 0.36729 0.35702 0.78765 0.0
H6616 H 0.34775 0.38322 0.79919 0.0
H6617 H 0.34039 0.35649 0.80001 0.0
H6618 H 0.35334 0.38432 0.77769 0.0
H6619 H 0.36329 0.3815 0.78282 0.0
H6620 H 0.35607 0.38905 0.78797 0.0
H6621 H 0.3442 0.35155 0.7786 0.0
H6622 H 0.34409 0.34667 0.78917 0.0
H6623 H 0.35417 0.34903 0.78384 0.0
C6624 C 0.41548 0.60068 0.54734 0.0
C6625 C 0.42017 0.59326 0.54963 0.0
C6626 C 0.41686 0.60487 0.53939 0.0
C6627 C 0.42308 0.60157 0.53355 0.0
C6628 C 0.42792 0.59416 0.53586 0.0
C6629 C 0.42643 0.59011 0.54386 0.0
C6630 C 0.41157 0.61277 0.53719 0.0
C6631 C 0.43463 0.59043 0.52985 0.0
C6632 C 0.42075 0.60692 0.50964 0.0
C6633 C 0.4269 0.61348 0.50852 0.0
C6634 C 0.41944 0.60301 0.51773 0.0
C6635 C 0.42439 0.60573 0.52493 0.0
C6636 C 0.43062 0.61234 0.52385 0.0
C6637 C 0.43182 0.61612 0.51566 0.0
C6638 C 0.41279 0.59593 0.51857 0.0
C6639 C 0.436 0.61546 0.53135 0.0
H6640 H 0.41057 0.60312 0.5517 0.0
H6641 H 0.43021 0.58449 0.54561 0.0
H6642 H 0.41589 0.61826 0.53562 0.0
H6643 H 0.40759 0.61148 0.53138 0.0
H6644 H 0.40722 0.61471 0.54255 0.0
H6645 H 0.43794 0.58471 0.53266 0.0
H6646 H 0.43155 0.58849 0.52368 0.0
H6647 H 0.43956 0.59539 0.52829 0.0
H6648 H 0.417 0.60475 0.50414 0.0
H6649 H 0.43651 0.62125 0.51489 0.0
H6650 H 0.40788 0.59776 0.52346 0.0
H6651 H 0.41592 0.5899 0.52085 0.0
H6652 H 0.40944 0.59459 0.51237 0.0
H6653 H 0.43172 0.61795 0.53653 0.0
H6654 H 0.44057 0.62066 0.52945 0.0
H6655 H 0.43974 0.61001 0.53412 0.0
C6656 C 0.24191 0.19118 0.36467 0.0
C6657 C 0.24116 0.19728 0.37133 0.0
C6658 C 0.24981 0.18701 0.36298 0.0
C6659 C 0.25715 0.18894 0.36808 0.0
C6660 C 0.25641 0.19503 0.37487 0.0
C6661 C 0.24845 0.19912 0.37639 0.0
C6662 C 0.25032 0.1806 0.35566 0.0
C6663 C 0.26405 0.19723 0.38052 0.0
C6664 C 0.27581 0.17291 0.36915 0.0
C6665 C 0.28192 0.17671 0.36362 0.0
C6666 C 0.26771 0.17676 0.37058 0.0
C6667 C 0.26561 0.18461 0.36636 0.0
C6668 C 0.27168 0.18841 0.36066 0.0
C6669 C 0.27975 0.18443 0.35937 0.0
C6670 C 0.26143 0.17247 0.37669 0.0
C6671 C 0.2697 0.19676 0.35603 0.0
H6672 H 0.23635 0.18979 0.36066 0.0
H6673 H 0.24791 0.20374 0.38162 0.0
H6674 H 0.25515 0.18279 0.35085 0.0
H6675 H 0.25251 0.17423 0.35813 0.0
H6676 H 0.24401 0.17974 0.35235 0.0
H6677 H 0.26241 0.20207 0.38554 0.0
H6678 H 0.26649 0.19131 0.38374 0.0
H6679 H 0.26939 0.19982 0.3765 0.0
H6680 H 0.27735 0.16688 0.37236 0.0
H6681 H 0.28444 0.18748 0.35516 0.0
H6682 H 0.25525 0.17114 0.37332 0.0
H6683 H 0.25996 0.17688 0.38214 0.0
H6684 H 0.26398 0.16631 0.37934 0.0
H6685 H 0.26362 0.19612 0.35228 0.0
H6686 H 0.27496 0.19872 0.35156 0.0
H6687 H 0.26869 0.202 0.3608 0.0
C6688 C 0.78068 0.35508 0.67678 0.0
C6689 C 0.78137 0.36408 0.67759 0.0
C6690 C 0.77263 0.35109 0.67547 0.0
C6691 C 0.76505 0.3562 0.67497 0.0
C6692 C 0.76569 0.36528 0.67586 0.0
C6693 C 0.77383 0.36911 0.67714 0.0
C6694 C 0.77225 0.34139 0.67453 0.0
C6695 C 0.75777 0.37096 0.67544 0.0
C6696 C 0.74527 0.34664 0.66382 0.0
C6697 C 0.74034 0.34375 0.67085 0.0
C6698 C 0.75329 0.35075 0.66506 0.0
C6699 C 0.75645 0.35203 0.67355 0.0
C6700 C 0.75145 0.34924 0.68068 0.0
C6701 C 0.74347 0.34515 0.67924 0.0
C6702 C 0.75842 0.35361 0.65728 0.0
C6703 C 0.75454 0.35053 0.68983 0.0
H6704 H 0.78648 0.35115 0.67701 0.0
H6705 H 0.77428 0.37605 0.67787 0.0
H6706 H 0.76795 0.33861 0.67954 0.0
H6707 H 0.76946 0.33968 0.66815 0.0
H6708 H 0.77871 0.33833 0.6751 0.0
H6709 H 0.75935 0.37791 0.67628 0.0
H6710 H 0.75449 0.37012 0.66913 0.0
H6711 H 0.75312 0.36903 0.68053 0.0
H6712 H 0.74297 0.34551 0.65731 0.0
H6713 H 0.73965 0.34306 0.68473 0.0
H6714 H 0.76474 0.35021 0.65717 0.0
H6715 H 0.75979 0.36063 0.65768 0.0
H6716 H 0.75499 0.35229 0.65112 0.0
H6717 H 0.76076 0.34711 0.69081 0.0
H6718 H 0.74983 0.34813 0.69467 0.0
H6719 H 0.75573 0.35749 0.69104 0.0
C6720 C 0.4452 0.99309 0.4292 0.0
C6721 C 0.44706 0.99024 0.4208 0.0
C6722 C 0.44107 1.00105 0.43067 0.0
C6723 C 0.43873 1.00632 0.42357 0.0
C6724 C 0.44049 1.00345 0.41507 0.0
C6725 C 0.44461 0.99545 0.41379 0.0
C6726 C 0.43926 1.00383 0.43983 0.0
C6727 C 0.43812 1.00888 0.40732 0.0
C6728 C 0.42156 0.0237 0.42674 0.0
C6729 C 0.42658 0.03119 0.42772 0.0
C6730 C 0.42541 1.01558 0.42542 0.0
C6731 C 0.43453 1.0149 0.42504 0.0
C6732 C 0.43964 0.02242 0.42607 0.0
C6733 C 0.43561 0.03045 0.42742 0.0
C6734 C 0.41972 1.00773 0.42441 0.0
C6735 C 0.44937 0.02199 0.42569 0.0
H6736 H 0.44694 0.98906 0.43466 0.0
H6737 H 0.4461 0.99336 0.40728 0.0
H6738 H 0.44265 1.00998 0.44121 0.0
H6739 H 0.43225 1.00503 0.44068 0.0
H6740 H 0.44136 0.99893 0.44464 0.0
H6741 H 0.43978 1.00566 0.40113 0.0
H6742 H 0.43109 1.01029 0.40735 0.0
H6743 H 0.44155 1.01517 0.40762 0.0
H6744 H 0.41458 0.02418 0.42708 0.0
H6745 H 0.43955 0.0362 0.42806 0.0
H6746 H 0.42133 1.00288 0.42944 0.0
H6747 H 0.42092 1.00466 0.41805 0.0
H6748 H 0.41275 1.00933 0.42491 0.0
H6749 H 0.45183 1.01749 0.4307 0.0
H6750 H 0.45243 0.0284 0.42666 0.0
H6751 H 0.45145 1.01941 0.41933 0.0
C6752 C 0.79776 0.69003 0.16578 0.0
C6753 C 0.79983 0.69774 0.17007 0.0
C6754 C 0.78981 0.68585 0.1672 0.0
C6755 C 0.78375 0.68946 0.17304 0.0
C6756 C 0.78586 0.69717 0.17747 0.0
C6757 C 0.79386 0.70119 0.17596 0.0
C6758 C 0.78782 0.67765 0.16234 0.0
C6759 C 0.77962 0.70122 0.18377 0.0
C6760 C 0.75996 0.6838 0.17032 0.0
C6761 C 0.7587 0.67758 0.1768 0.0
C6762 C 0.76805 0.68769 0.16903 0.0
C6763 C 0.77512 0.68532 0.17433 0.0
C6764 C 0.77391 0.67906 0.18091 0.0
C6765 C 0.76572 0.67529 0.18207 0.0
C6766 C 0.76904 0.69438 0.16199 0.0
C6767 C 0.78128 0.67632 0.18668 0.0
H6768 H 0.80227 0.68735 0.16116 0.0
H6769 H 0.79545 0.70704 0.17944 0.0
H6770 H 0.78617 0.6724 0.16693 0.0
H6771 H 0.78212 0.67866 0.15811 0.0
H6772 H 0.79333 0.67549 0.15828 0.0
H6773 H 0.78228 0.70714 0.18682 0.0
H6774 H 0.77353 0.70294 0.1804 0.0
H6775 H 0.77794 0.69654 0.18893 0.0
H6776 H 0.75455 0.6857 0.16629 0.0
H6777 H 0.76485 0.67042 0.18703 0.0
H6778 H 0.77409 0.69232 0.15735 0.0
H6779 H 0.77117 0.7006 0.16482 0.0
H6780 H 0.76293 0.69548 0.15839 0.0
H6781 H 0.7866 0.67362 0.18272 0.0
H6782 H 0.77928 0.6714 0.1915 0.0
H6783 H 0.7839 0.68201 0.19016 0.0
C6784 C 0.59025 0.54243 0.41528 0.0
C6785 C 0.59334 0.55012 0.41895 0.0
C6786 C 0.5944 0.53449 0.41677 0.0
C6787 C 0.60184 0.53418 0.42208 0.0
C6788 C 0.60505 0.54192 0.42575 0.0
C6789 C 0.60078 0.54979 0.42413 0.0
C6790 C 0.5908 0.52641 0.41267 0.0
C6791 C 0.61294 0.54188 0.43147 0.0
C6792 C 0.60764 0.51242 0.43211 0.0
C6793 C 0.61414 0.50942 0.42654 0.0
C6794 C 0.60368 0.5205 0.43082 0.0
C6795 C 0.60626 0.52575 0.42377 0.0
C6796 C 0.61289 0.52283 0.4182 0.0
C6797 C 0.61675 0.51474 0.41966 0.0
C6798 C 0.59665 0.52338 0.43692 0.0
C6799 C 0.61584 0.52821 0.41062 0.0
H6800 H 0.58458 0.54263 0.41117 0.0
H6801 H 0.60316 0.55567 0.42707 0.0
H6802 H 0.59579 0.52336 0.40852 0.0
H6803 H 0.58906 0.52166 0.41774 0.0
H6804 H 0.58499 0.52774 0.40867 0.0
H6805 H 0.61469 0.54845 0.43375 0.0
H6806 H 0.61179 0.5377 0.43719 0.0
H6807 H 0.61853 0.53912 0.42794 0.0
H6808 H 0.60549 0.50835 0.43739 0.0
H6809 H 0.62188 0.51258 0.41541 0.0
H6810 H 0.59049 0.52414 0.43334 0.0
H6811 H 0.59828 0.52977 0.43971 0.0
H6812 H 0.59562 0.51872 0.44228 0.0
H6813 H 0.61036 0.52933 0.40614 0.0
H6814 H 0.62118 0.5251 0.40698 0.0
H6815 H 0.61806 0.53463 0.41288 0.0
C6816 C 0.2941 0.84008 0.8646 0.0
C6817 C 0.29991 0.84324 0.87081 0.0
C6818 C 0.2861 0.84412 0.86312 0.0
C6819 C 0.28382 0.85156 0.86792 0.0
C6820 C 0.28969 0.85487 0.8741 0.0
C6821 C 0.29765 0.85068 0.87547 0.0
C6822 C 0.28005 0.84038 0.85645 0.0
C6823 C 0.28752 0.86279 0.87935 0.0
C6824 C 0.26593 0.86609 0.85915 0.0
C6825 C 0.25879 0.86349 0.8641 0.0
C6826 C 0.27411 0.86231 0.86035 0.0
C6827 C 0.2752 0.85572 0.86661 0.0
C6828 C 0.26801 0.85303 0.87159 0.0
C6829 C 0.25992 0.85695 0.87029 0.0
C6830 C 0.28161 0.8654 0.85494 0.0
C6831 C 0.26886 0.84598 0.87829 0.0
H6832 H 0.29583 0.83444 0.86084 0.0
H6833 H 0.30203 0.85314 0.88035 0.0
H6834 H 0.27389 0.83846 0.85957 0.0
H6835 H 0.27849 0.84532 0.8515 0.0
H6836 H 0.28283 0.83464 0.85317 0.0
H6837 H 0.2929 0.86474 0.88367 0.0
H6838 H 0.28595 0.86827 0.875 0.0
H6839 H 0.28172 0.86152 0.88335 0.0
H6840 H 0.26515 0.87121 0.85443 0.0
H6841 H 0.25442 0.8548 0.87406 0.0
H6842 H 0.28435 0.85993 0.85122 0.0
H6843 H 0.28681 0.86789 0.85918 0.0
H6844 H 0.27971 0.87058 0.85034 0.0
H6845 H 0.27111 0.83993 0.87519 0.0
H6846 H 0.26266 0.84466 0.88166 0.0
H6847 H 0.27377 0.84782 0.88316 0.0
C6848 C 0.43423 1.01156 0.10873 0.0
C6849 C 0.42667 1.00931 0.1132 0.0
C6850 C 0.43821 1.01963 0.10998 0.0
C6851 C 0.43458 0.02562 0.11587 0.0
C6852 C 0.42689 0.02344 0.12031 0.0
C6853 C 0.42303 1.01534 0.11891 0.0
C6854 C 0.4464 0.0217 0.10511 0.0
C6855 C 0.42278 0.02963 0.12662 0.0
C6856 C 0.44936 0.04271 0.1256 0.0
C6857 C 0.44731 0.05005 0.12068 0.0
C6858 C 0.44525 0.03475 0.12413 0.0
C6859 C 0.43893 0.03407 0.11754 0.0
C6860 C 0.43679 0.04147 0.11258 0.0
C6861 C 0.44098 0.04936 0.11422 0.0
C6862 C 0.44767 0.02706 0.12962 0.0
C6863 C 0.43014 0.04102 0.10547 0.0
H6864 H 0.43716 1.00693 0.10438 0.0
H6865 H 0.41711 1.01374 0.12229 0.0
H6866 H 0.4456 0.02781 0.10144 0.0
H6867 H 0.45179 0.02268 0.10972 0.0
H6868 H 0.44823 1.0165 0.10053 0.0
H6869 H 0.41672 0.02702 0.12944 0.0
H6870 H 0.42736 0.03106 0.13194 0.0
H6871 H 0.4213 0.03584 0.12336 0.0
H6872 H 0.45415 0.04321 0.13068 0.0
H6873 H 0.43943 0.05497 0.11031 0.0
H6874 H 0.45015 0.02178 0.12547 0.0
H6875 H 0.44187 0.02456 0.13301 0.0
H6876 H 0.45267 0.02866 0.13451 0.0
H6877 H 0.43218 0.03625 0.10053 0.0
H6878 H 0.42914 0.04736 0.10225 0.0
H6879 H 0.42387 0.03878 0.10811 0.0
C6880 C 0.11386 0.02574 0.60683 0.0
C6881 C 0.11433 0.03166 0.61368 0.0
C6882 C 0.10993 1.01762 0.6079 0.0
C6883 C 0.10636 1.01533 0.61601 0.0
C6884 C 0.1068 0.02127 0.62294 0.0
C6885 C 0.11076 0.02935 0.62169 0.0
C6886 C 0.1096 1.01147 0.60035 0.0
C6887 C 0.10305 1.01911 0.63168 0.0
C6888 C 0.08907 0.99784 0.61687 0.0
C6889 C 0.09378 0.9906 0.61966 0.0
C6890 C 0.09309 1.00589 0.61562 0.0
C6891 C 0.10205 1.00677 0.61722 0.0
C6892 C 0.10685 0.99951 0.62007 0.0
C6893 C 0.10267 0.99152 0.62125 0.0
C6894 C 0.08772 1.01346 0.61261 0.0
C6895 C 0.11641 1.00017 0.62185 0.0
H6896 H 0.11669 0.02741 0.60065 0.0
H6897 H 0.11096 0.03391 0.62698 0.0
H6898 H 0.11291 1.00534 0.60205 0.0
H6899 H 0.10279 1.00986 0.59881 0.0
H6900 H 0.1127 1.01421 0.59448 0.0
H6901 H 0.10401 0.02439 0.63643 0.0
H6902 H 0.09602 1.01785 0.63106 0.0
H6903 H 0.10607 1.01314 0.63424 0.0
H6904 H 0.08219 0.99725 0.61575 0.0
H6905 H 0.10639 0.98596 0.62331 0.0
H6906 H 0.09037 1.01607 0.60649 0.0
H6907 H 0.08799 1.01872 0.61746 0.0
H6908 H 0.08084 1.01169 0.61155 0.0
H6909 H 0.11985 1.00231 0.61594 0.0
H6910 H 0.11922 0.99394 0.62402 0.0
H6911 H 0.11761 1.00511 0.6269 0.0
C6912 C 0.12689 0.1708 0.43166 0.0
C6913 C 0.12849 0.16255 0.4351 0.0
C6914 C 0.13335 0.1754 0.42723 0.0
C6915 C 0.14166 0.1717 0.42621 0.0
C6916 C 0.14339 0.16347 0.42985 0.0
C6917 C 0.1368 0.159 0.43424 0.0
C6918 C 0.13124 0.18417 0.4235 0.0
C6919 C 0.15215 0.15929 0.42893 0.0
C6920 C 0.15557 0.17901 0.40727 0.0
C6921 C 0.16139 0.18471 0.41123 0.0
C6922 C 0.1491 0.1748 0.41206 0.0
C6923 C 0.14843 0.17627 0.42106 0.0
C6924 C 0.15424 0.18207 0.42509 0.0
C6925 C 0.16063 0.18623 0.42014 0.0
C6926 C 0.143 0.16873 0.40747 0.0
C6927 C 0.15377 0.1838 0.43467 0.0
H6928 H 0.12055 0.17367 0.43241 0.0
H6929 H 0.13809 0.15261 0.43679 0.0
H6930 H 0.13586 0.18906 0.42595 0.0
H6931 H 0.13191 0.184 0.41638 0.0
H6932 H 0.12458 0.18628 0.42512 0.0
H6933 H 0.1526 0.15307 0.43249 0.0
H6934 H 0.15352 0.15806 0.42201 0.0
H6935 H 0.15725 0.16369 0.43135 0.0
H6936 H 0.15603 0.17789 0.40038 0.0
H6937 H 0.16516 0.19054 0.42328 0.0
H6938 H 0.13623 0.1709 0.40841 0.0
H6939 H 0.14354 0.16216 0.41028 0.0
H6940 H 0.14432 0.16834 0.40044 0.0
H6941 H 0.14725 0.18622 0.43641 0.0
H6942 H 0.15865 0.1886 0.43681 0.0
H6943 H 0.15481 0.1777 0.4383 0.0
C6944 C 0.11998 0.87859 0.6843 0.0
C6945 C 0.12903 0.87898 0.68492 0.0
C6946 C 0.11527 0.88506 0.67998 0.0
C6947 C 0.11969 0.8921 0.67616 0.0
C6948 C 0.1288 0.89259 0.67684 0.0
C6949 C 0.13335 0.88605 0.68123 0.0
C6950 C 0.10556 0.88433 0.67947 0.0
C6951 C 0.13377 0.89996 0.67283 0.0
C6952 C 0.1089 0.90451 0.65779 0.0
C6953 C 0.10607 0.91204 0.66197 0.0
C6954 C 0.11325 0.89795 0.66234 0.0
C6955 C 0.11481 0.8989 0.67131 0.0
C6956 C 0.11184 0.90641 0.67559 0.0
C6957 C 0.10753 0.91288 0.67088 0.0
C6958 C 0.11633 0.89007 0.65751 0.0
C6959 C 0.11328 0.90765 0.68515 0.0
H6960 H 0.11657 0.87322 0.68722 0.0
H6961 H 0.14033 0.88636 0.68158 0.0
H6962 H 0.10251 0.89019 0.68225 0.0
H6963 H 0.10351 0.88393 0.67262 0.0
H6964 H 0.10307 0.87857 0.68295 0.0
H6965 H 0.14082 0.89948 0.67407 0.0
H6966 H 0.13269 0.90004 0.66575 0.0
H6967 H 0.13141 0.90621 0.6754 0.0
H6968 H 0.10791 0.90384 0.6509 0.0
H6969 H 0.10526 0.91862 0.67419 0.0
H6970 H 0.11364 0.88414 0.66051 0.0
H6971 H 0.12347 0.8896 0.65793 0.0
H6972 H 0.11445 0.89021 0.6506 0.0
H6973 H 0.11047 0.90216 0.6888 0.0
H6974 H 0.11038 0.91375 0.68757 0.0
H6975 H 0.12031 0.90775 0.68655 0.0
C6976 C 0.41461 0.87112 0.9299 0.0
C6977 C 0.41272 0.87867 0.93454 0.0
C6978 C 0.40811 0.8665 0.92555 0.0
C6979 C 0.39946 0.86948 0.92586 0.0
C6980 C 0.39746 0.87696 0.93072 0.0
C6981 C 0.4041 0.88146 0.93499 0.0
C6982 C 0.41053 0.85854 0.92048 0.0
C6983 C 0.38833 0.88034 0.93123 0.0
C6984 C 0.38433 0.86339 0.90744 0.0
C6985 C 0.37947 0.85665 0.91108 0.0
C6986 C 0.39086 0.86757 0.91216 0.0
C6987 C 0.39259 0.86499 0.92077 0.0
C6988 C 0.38776 0.85815 0.92447 0.0
C6989 C 0.38128 0.85406 0.91958 0.0
C6990 C 0.3959 0.87477 0.90793 0.0
C6991 C 0.38937 0.85522 0.93363 0.0
H6992 H 0.42121 0.8688 0.92963 0.0
H6993 H 0.40256 0.88733 0.93847 0.0
H6994 H 0.40662 0.85295 0.92265 0.0
H6995 H 0.40911 0.85958 0.91354 0.0
H6996 H 0.41748 0.85687 0.92117 0.0
H6997 H 0.38775 0.88594 0.93567 0.0
H6998 H 0.38613 0.88236 0.92472 0.0
H6999 H 0.3839 0.87517 0.93347 0.0
H7000 H 0.38308 0.86536 0.90084 0.0
H7001 H 0.3775 0.84893 0.92248 0.0
H7002 H 0.40289 0.87317 0.90791 0.0
H7003 H 0.39511 0.88082 0.91167 0.0
H7004 H 0.39381 0.87597 0.90117 0.0
H7005 H 0.39621 0.85323 0.93441 0.0
H7006 H 0.38515 0.84973 0.93552 0.0
H7007 H 0.38821 0.86066 0.93814 0.0
C7008 C 0.40826 0.15771 0.1766 0.0
C7009 C 0.41151 0.16192 0.18394 0.0
C7010 C 0.413 0.15121 0.17242 0.0
C7011 C 0.42124 0.14881 0.17561 0.0
C7012 C 0.42455 0.15298 0.18305 0.0
C7013 C 0.41964 0.15946 0.18713 0.0
C7014 C 0.40918 0.14689 0.16456 0.0
C7015 C 0.43331 0.15065 0.18665 0.0
C7016 C 0.42958 0.12666 0.1689 0.0
C7017 C 0.43499 0.12869 0.1619 0.0
C7018 C 0.42524 0.13315 0.17354 0.0
C7019 C 0.42632 0.14191 0.17116 0.0
C7020 C 0.43196 0.14404 0.16427 0.0
C7021 C 0.43621 0.13741 0.15972 0.0
C7022 C 0.41933 0.13059 0.18086 0.0
C7023 C 0.43332 0.1533 0.16154 0.0
H7024 H 0.40193 0.15946 0.17416 0.0
H7025 H 0.42226 0.16273 0.19273 0.0
H7026 H 0.41352 0.14779 0.15893 0.0
H7027 H 0.40861 0.13983 0.1657 0.0
H7028 H 0.4027 0.14948 0.16289 0.0
H7029 H 0.43493 0.15442 0.19252 0.0
H7030 H 0.43352 0.14368 0.18827 0.0
H7031 H 0.43836 0.15183 0.18171 0.0
H7032 H 0.42871 0.11997 0.17075 0.0
H7033 H 0.4403 0.13906 0.15429 0.0
H7034 H 0.4126 0.13251 0.17932 0.0
H7035 H 0.4212 0.13404 0.18685 0.0
H7036 H 0.41947 0.12353 0.18214 0.0
H7037 H 0.42716 0.15603 0.15909 0.0
H7038 H 0.43829 0.15392 0.1564 0.0
H7039 H 0.43531 0.15726 0.16716 0.0
C7040 C 0.1273 0.87066 0.10938 0.0
C7041 C 0.12896 0.87874 0.1056 0.0
C7042 C 0.1338 0.86608 0.1138 0.0
C7043 C 0.1422 0.86963 0.11445 0.0
C7044 C 0.14398 0.87768 0.11047 0.0
C7045 C 0.13736 0.88214 0.1061 0.0
C7046 C 0.13162 0.8575 0.1179 0.0
C7047 C 0.15285 0.88171 0.111 0.0
C7048 C 0.15646 0.86272 0.1333 0.0
C7049 C 0.16205 0.85674 0.12942 0.0
C7050 C 0.14996 0.86691 0.12852 0.0
C7051 C 0.14902 0.86511 0.11961 0.0
C7052 C 0.15459 0.85903 0.11565 0.0
C7053 C 0.16102 0.85491 0.1206 0.0
C7054 C 0.14411 0.87328 0.13302 0.0
C7055 C 0.15384 0.85696 0.10616 0.0
H7056 H 0.12089 0.8679 0.10891 0.0
H7057 H 0.1387 0.88841 0.1033 0.0
H7058 H 0.13608 0.85242 0.11553 0.0
H7059 H 0.13248 0.85792 0.125 0.0
H7060 H 0.12488 0.85547 0.11654 0.0
H7061 H 0.15332 0.88777 0.10719 0.0
H7062 H 0.15443 0.88317 0.11783 0.0
H7063 H 0.1578 0.8771 0.10862 0.0
H7064 H 0.15712 0.86409 0.14013 0.0
H7065 H 0.16537 0.85038 0.11751 0.0
H7066 H 0.13727 0.87122 0.13235 0.0
H7067 H 0.1447 0.87973 0.12995 0.0
H7068 H 0.14563 0.87391 0.14 0.0
H7069 H 0.14723 0.85461 0.10468 0.0
H7070 H 0.15857 0.85198 0.10408 0.0
H7071 H 0.1549 0.86289 0.10228 0.0
C7072 C 0.40814 0.88365 0.36349 0.0
C7073 C 0.4114 0.87936 0.3562 0.0
C7074 C 0.41288 0.89018 0.36762 0.0
C7075 C 0.42113 0.89252 0.36443 0.0
C7076 C 0.42445 0.88828 0.35704 0.0
C7077 C 0.41955 0.88177 0.35301 0.0
C7078 C 0.40905 0.89459 0.37543 0.0
C7079 C 0.43322 0.89055 0.35345 0.0
C7080 C 0.42955 0.91468 0.37102 0.0
C7081 C 0.43493 0.91267 0.37806 0.0
C7082 C 0.42519 0.90819 0.36642 0.0
C7083 C 0.42623 0.89943 0.36885 0.0
C7084 C 0.43184 0.89732 0.37578 0.0
C7085 C 0.4361 0.90395 0.3803 0.0
C7086 C 0.41932 0.91073 0.35906 0.0
C7087 C 0.43314 0.88807 0.37858 0.0
H7088 H 0.4018 0.88194 0.36593 0.0
H7089 H 0.42217 0.87844 0.34745 0.0
H7090 H 0.41336 0.8937 0.38109 0.0
H7091 H 0.40851 0.90163 0.37424 0.0
H7092 H 0.40255 0.89204 0.37709 0.0
H7093 H 0.43484 0.88673 0.3476 0.0
H7094 H 0.43346 0.89751 0.35179 0.0
H7095 H 0.43826 0.88937 0.35841 0.0
H7096 H 0.42872 0.92137 0.36912 0.0
H7097 H 0.44016 0.90231 0.38576 0.0
H7098 H 0.41257 0.90885 0.36059 0.0
H7099 H 0.42119 0.90723 0.3531 0.0
H7100 H 0.41948 0.91778 0.35773 0.0
H7101 H 0.42696 0.88539 0.38103 0.0
H7102 H 0.4381 0.88745 0.38373 0.0
H7103 H 0.43514 0.88406 0.373 0.0
C7104 C 0.37674 0.17773 0.6226 0.0
C7105 C 0.37877 0.18433 0.62848 0.0
C7106 C 0.38321 0.17339 0.61795 0.0
C7107 C 0.39198 0.17569 0.61915 0.0
C7108 C 0.39408 0.1825 0.6249 0.0
C7109 C 0.38746 0.18672 0.62949 0.0
C7110 C 0.38067 0.1662 0.61188 0.0
C7111 C 0.40334 0.18517 0.62636 0.0
C7112 C 0.40914 0.15866 0.61456 0.0
C7113 C 0.41221 0.16116 0.60641 0.0
C7114 C 0.40258 0.16333 0.61876 0.0
C7115 C 0.39897 0.17071 0.61472 0.0
C7116 C 0.40199 0.17325 0.60646 0.0
C7117 C 0.40856 0.16844 0.6024 0.0
C7118 C 0.39951 0.16034 0.62752 0.0
C7119 C 0.39834 0.18109 0.60195 0.0
H7120 H 0.37004 0.17594 0.62163 0.0
H7121 H 0.38913 0.19175 0.63405 0.0
H7122 H 0.38328 0.16748 0.60533 0.0
H7123 H 0.38351 0.16002 0.61413 0.0
H7124 H 0.37356 0.16542 0.61141 0.0
H7125 H 0.40387 0.1909 0.63064 0.0
H7126 H 0.40698 0.17976 0.62932 0.0
H7127 H 0.40649 0.18669 0.6201 0.0
H7128 H 0.41181 0.15297 0.61766 0.0
H7129 H 0.41095 0.17048 0.59615 0.0
H7130 H 0.3925 0.15888 0.62728 0.0
H7131 H 0.40043 0.16556 0.63233 0.0
H7132 H 0.40299 0.15449 0.62979 0.0
H7133 H 0.39126 0.18035 0.60109 0.0
H7134 H 0.40133 0.18217 0.59552 0.0
H7135 H 0.39938 0.18692 0.60597 0.0
C7136 C 0.13117 0.16046 0.86496 0.0
C7137 C 0.12936 0.16269 0.85635 0.0
C7138 C 0.12657 0.15389 0.8692 0.0
C7139 C 0.11997 0.14938 0.86475 0.0
C7140 C 0.11812 0.15157 0.85606 0.0
C7141 C 0.12285 0.15817 0.85196 0.0
C7142 C 0.1288 0.15173 0.87845 0.0
C7143 C 0.11112 0.14695 0.85109 0.0
C7144 C 0.11391 0.12725 0.87365 0.0
C7145 C 0.10657 0.12912 0.87865 0.0
C7146 C 0.11821 0.13373 0.86897 0.0
C7147 C 0.1151 0.14233 0.86922 0.0
C7148 C 0.10756 0.14423 0.87405 0.0
C7149 C 0.1034 0.13762 0.87871 0.0
C7150 C 0.1262 0.1314 0.86388 0.0
C7151 C 0.10401 0.1533 0.87447 0.0
H7152 H 0.13627 0.16381 0.86838 0.0
H7153 H 0.12134 0.1599 0.84535 0.0
H7154 H 0.12302 0.15253 0.8826 0.0
H7155 H 0.13084 0.14488 0.87894 0.0
H7156 H 0.13406 0.15587 0.88102 0.0
H7157 H 0.11049 0.14939 0.84437 0.0
H7158 H 0.11252 0.13992 0.85087 0.0
H7159 H 0.10483 0.14776 0.85442 0.0
H7160 H 0.11632 0.12068 0.87341 0.0
H7161 H 0.09779 0.13917 0.88259 0.0
H7162 H 0.13185 0.13493 0.8665 0.0
H7163 H 0.12543 0.1334 0.85704 0.0
H7164 H 0.12761 0.12437 0.86409 0.0
H7165 H 0.10877 0.1576 0.87766 0.0
H7166 H 0.09783 0.15364 0.8781 0.0
H7167 H 0.10294 0.15586 0.86786 0.0
C7168 C 0.17779 0.41813 0.16426 0.0
C7169 C 0.18464 0.41252 0.1623 0.0
C7170 C 0.17345 0.42276 0.15776 0.0
C7171 C 0.17603 0.42182 0.14905 0.0
C7172 C 0.1831 0.41636 0.14703 0.0
C7173 C 0.18731 0.41178 0.15367 0.0
C7174 C 0.16597 0.42852 0.16021 0.0
C7175 C 0.18608 0.41519 0.13783 0.0
C7176 C 0.15927 0.4261 0.13154 0.0
C7177 C 0.16151 0.43441 0.12868 0.0
C7178 C 0.16394 0.42196 0.13814 0.0
C7179 C 0.17105 0.4262 0.14201 0.0
C7180 C 0.17333 0.43461 0.1392 0.0
C7181 C 0.16853 0.43862 0.13259 0.0
C7182 C 0.16123 0.41302 0.14098 0.0
C7183 C 0.18089 0.43934 0.14313 0.0
H7184 H 0.17578 0.41889 0.17092 0.0
H7185 H 0.19254 0.40741 0.15205 0.0
H7186 H 0.16706 0.43516 0.15775 0.0
H7187 H 0.15995 0.42609 0.15718 0.0
H7188 H 0.16498 0.42882 0.16731 0.0
H7189 H 0.192 0.41115 0.13738 0.0
H7190 H 0.18089 0.41209 0.13399 0.0
H7191 H 0.18742 0.42156 0.13483 0.0
H7192 H 0.15378 0.42285 0.12867 0.0
H7193 H 0.17038 0.44499 0.13036 0.0
H7194 H 0.15958 0.41307 0.14795 0.0
H7195 H 0.16666 0.40843 0.14011 0.0
H7196 H 0.15557 0.4106 0.13731 0.0
H7197 H 0.17994 0.44004 0.15019 0.0
H7198 H 0.1818 0.44586 0.14027 0.0
H7199 H 0.1869 0.43556 0.14217 0.0
C7200 C 0.65872 0.11459 0.90905 0.0
C7201 C 0.66128 0.10649 0.91223 0.0
C7202 C 0.66341 0.11879 0.90251 0.0
C7203 C 0.67087 0.11482 0.89902 0.0
C7204 C 0.67348 0.10662 0.90216 0.0
C7205 C 0.66865 0.10255 0.90871 0.0
C7206 C 0.66035 0.12749 0.89931 0.0
C7207 C 0.68141 0.10217 0.89864 0.0
C7208 C 0.67801 0.12257 0.87678 0.0
C7209 C 0.68453 0.12855 0.87881 0.0
C7210 C 0.67366 0.11793 0.88327 0.0
C7211 C 0.67587 0.11925 0.89204 0.0
C7212 C 0.68259 0.1251 0.89413 0.0
C7213 C 0.68683 0.12967 0.88751 0.0
C7214 C 0.66657 0.11174 0.88073 0.0
C7215 C 0.68516 0.12669 0.9034 0.0
H7216 H 0.65297 0.11764 0.91163 0.0
H7217 H 0.67074 0.09634 0.91118 0.0
H7218 H 0.6655 0.13238 0.90023 0.0
H7219 H 0.65895 0.12717 0.89229 0.0
H7220 H 0.65444 0.12973 0.90271 0.0
H7221 H 0.68255 0.09579 0.90172 0.0
H7222 H 0.68074 0.10123 0.89157 0.0
H7223 H 0.68718 0.10629 0.89969 0.0
H7224 H 0.67629 0.12151 0.87008 0.0
H7225 H 0.69179 0.13432 0.88917 0.0
H7226 H 0.66033 0.11395 0.88348 0.0
H7227 H 0.6679 0.10523 0.88342 0.0
H7228 H 0.66585 0.11119 0.87362 0.0
H7229 H 0.67967 0.12962 0.90695 0.0
H7230 H 0.69083 0.13105 0.90393 0.0
H7231 H 0.68672 0.12048 0.90663 0.0
C7232 C 0.86151 0.91976 0.37609 0.0
C7233 C 0.8564 0.91252 0.37807 0.0
C7234 C 0.86588 0.92436 0.38258 0.0
C7235 C 0.86512 0.92172 0.3913 0.0
C7236 C 0.85979 0.91457 0.39338 0.0
C7237 C 0.85551 0.91006 0.38675 0.0
C7238 C 0.87145 0.93197 0.38007 0.0
C7239 C 0.85879 0.91154 0.40259 0.0
C7240 C 0.88331 0.92745 0.40684 0.0
C7241 C 0.87986 0.93452 0.41133 0.0
C7242 C 0.8786 0.92326 0.40032 0.0
C7243 C 0.87019 0.92619 0.39819 0.0
C7244 C 0.86668 0.93338 0.40264 0.0
C7245 C 0.87156 0.93746 0.40913 0.0
C7246 C 0.88263 0.91568 0.3957 0.0
C7247 C 0.85774 0.93669 0.40059 0.0
H7248 H 0.86213 0.92182 0.36943 0.0
H7249 H 0.85166 0.90445 0.38836 0.0
H7250 H 0.86943 0.9378 0.3837 0.0
H7251 H 0.87828 0.93063 0.3818 0.0
H7252 H 0.8711 0.93341 0.37305 0.0
H7253 H 0.85405 0.90619 0.4032 0.0
H7254 H 0.86512 0.90928 0.4051 0.0
H7255 H 0.85666 0.91697 0.40675 0.0
H7256 H 0.88976 0.9252 0.4084 0.0
H7257 H 0.86879 0.94286 0.41262 0.0
H7258 H 0.88298 0.91702 0.38867 0.0
H7259 H 0.87854 0.90985 0.39655 0.0
H7260 H 0.88923 0.91421 0.39809 0.0
H7261 H 0.8573 0.93847 0.39367 0.0
H7262 H 0.85599 0.94241 0.40454 0.0
H7263 H 0.85291 0.93153 0.40177 0.0
C7264 C 0.86556 0.12857 0.16205 0.0
C7265 C 0.85651 0.12886 0.16251 0.0
C7266 C 0.86982 0.12403 0.15545 0.0
C7267 C 0.86492 0.11965 0.14909 0.0
C7268 C 0.85578 0.11991 0.1495 0.0
C7269 C 0.85169 0.1245 0.15619 0.0
C7270 C 0.87957 0.12397 0.15525 0.0
C7271 C 0.85032 0.11532 0.14286 0.0
C7272 C 0.87603 0.11495 0.12765 0.0
C7273 C 0.87843 0.10624 0.12859 0.0
C7274 C 0.87153 0.11933 0.1342 0.0
C7275 C 0.8694 0.11495 0.14194 0.0
C7276 C 0.87175 0.10616 0.14293 0.0
C7277 C 0.87623 0.10192 0.13626 0.0
C7278 C 0.86917 0.12871 0.13288 0.0
C7279 C 0.86959 0.10124 0.15107 0.0
H7280 H 0.86936 0.13202 0.1668 0.0
H7281 H 0.84469 0.12459 0.15653 0.0
H7282 H 0.88198 0.11722 0.15544 0.0
H7283 H 0.8819 0.12689 0.14913 0.0
H7284 H 0.88244 0.12757 0.16074 0.0
H7285 H 0.84329 0.11609 0.1441 0.0
H7286 H 0.85177 0.11788 0.13632 0.0
H7287 H 0.85189 0.10833 0.14282 0.0
H7288 H 0.8778 0.11841 0.12183 0.0
H7289 H 0.87795 0.09517 0.13702 0.0
H7290 H 0.8724 0.13274 0.13784 0.0
H7291 H 0.86211 0.1296 0.13368 0.0
H7292 H 0.87106 0.13112 0.12639 0.0
H7293 H 0.87273 0.10436 0.1567 0.0
H7294 H 0.87172 0.09439 0.15078 0.0
H7295 H 0.86252 0.1014 0.15222 0.0
C7296 C 0.38322 0.61368 0.63361 0.0
C7297 C 0.37971 0.60674 0.62896 0.0
C7298 C 0.37848 0.61789 0.6401 0.0
C7299 C 0.36997 0.61512 0.64202 0.0
C7300 C 0.3664 0.60807 0.63741 0.0
C7301 C 0.37131 0.60396 0.63096 0.0
C7302 C 0.38257 0.62532 0.6449 0.0
C7303 C 0.35735 0.60493 0.63923 0.0
C7304 C 0.36102 0.62143 0.66404 0.0
C7305 C 0.3561 0.62881 0.66207 0.0
C7306 C 0.3654 0.61682 0.65757 0.0
C7307 C 0.36486 0.6196 0.64888 0.0
C7308 C 0.35973 0.6269 0.6468 0.0
C7309 C 0.35542 0.63141 0.65341 0.0
C7310 C 0.37076 0.60906 0.66008 0.0
C7311 C 0.35896 0.63008 0.63762 0.0
H7312 H 0.38975 0.6158 0.63221 0.0
H7313 H 0.3685 0.59867 0.62735 0.0
H7314 H 0.37863 0.63124 0.64405 0.0
H7315 H 0.38276 0.62387 0.65191 0.0
H7316 H 0.38925 0.62667 0.64266 0.0
H7317 H 0.35555 0.59931 0.63517 0.0
H7318 H 0.35674 0.60306 0.64612 0.0
H7319 H 0.35266 0.61022 0.63804 0.0
H7320 H 0.36146 0.61926 0.67068 0.0
H7321 H 0.35172 0.63714 0.65181 0.0
H7322 H 0.37765 0.61026 0.6585 0.0
H7323 H 0.36869 0.60332 0.65632 0.0
H7324 H 0.37025 0.60752 0.66707 0.0
H7325 H 0.36538 0.63223 0.63526 0.0
H7326 H 0.35435 0.63555 0.637 0.0
H7327 H 0.3568 0.62476 0.63334 0.0
C7328 C 0.15917 0.60626 0.40402 0.0
C7329 C 0.16252 0.6058 0.41244 0.0
C7330 C 0.16364 0.61061 0.39741 0.0
C7331 C 0.17166 0.61463 0.39923 0.0
C7332 C 0.17516 0.61403 0.40765 0.0
C7333 C 0.17057 0.60962 0.41413 0.0
C7334 C 0.15967 0.61109 0.38852 0.0
C7335 C 0.1837 0.61818 0.40987 0.0
C7336 C 0.18649 0.62072 0.3805 0.0
C7337 C 0.18463 0.62953 0.3794 0.0
C7338 C 0.18234 0.61579 0.38692 0.0
C7339 C 0.1762 0.61976 0.39242 0.0
C7340 C 0.17438 0.62867 0.3914 0.0
C7341 C 0.17859 0.63343 0.38491 0.0
C7342 C 0.18445 0.6063 0.38775 0.0
C7343 C 0.16794 0.63319 0.39717 0.0
H7344 H 0.15293 0.60342 0.40265 0.0
H7345 H 0.17329 0.60918 0.42057 0.0
H7346 H 0.15819 0.61791 0.38689 0.0
H7347 H 0.16432 0.6087 0.38362 0.0
H7348 H 0.15363 0.60726 0.38803 0.0
H7349 H 0.1857 0.61686 0.41664 0.0
H7350 H 0.18883 0.61579 0.40547 0.0
H7351 H 0.18325 0.62527 0.40895 0.0
H7352 H 0.19107 0.61762 0.37621 0.0
H7353 H 0.17719 0.64025 0.3842 0.0
H7354 H 0.17854 0.6024 0.38668 0.0
H7355 H 0.18676 0.60487 0.39438 0.0
H7356 H 0.18947 0.60421 0.38307 0.0
H7357 H 0.16151 0.6301 0.39655 0.0
H7358 H 0.16729 0.64016 0.39559 0.0
H7359 H 0.16995 0.63256 0.40402 0.0
C7360 C 0.35363 0.41976 0.88098 0.0
C7361 C 0.35638 0.41133 0.87909 0.0
C7362 C 0.3577 0.42469 0.88743 0.0
C7363 C 0.36467 0.4211 0.89217 0.0
C7364 C 0.3674 0.41256 0.89036 0.0
C7365 C 0.36324 0.4078 0.88386 0.0
C7366 C 0.3546 0.43378 0.88913 0.0
C7367 C 0.37475 0.40845 0.89529 0.0
C7368 C 0.38098 0.4356 0.90358 0.0
C7369 C 0.3783 0.43502 0.91222 0.0
C7370 C 0.37649 0.43128 0.89697 0.0
C7371 C 0.36913 0.42624 0.89902 0.0
C7372 C 0.36626 0.4258 0.90769 0.0
C7373 C 0.37086 0.4302 0.91417 0.0
C7374 C 0.37976 0.43194 0.88781 0.0
C7375 C 0.35843 0.42054 0.91016 0.0
H7376 H 0.3484 0.42258 0.87727 0.0
H7377 H 0.36534 0.40125 0.88254 0.0
H7378 H 0.35267 0.43446 0.89599 0.0
H7379 H 0.35993 0.43842 0.88795 0.0
H7380 H 0.34903 0.43559 0.88498 0.0
H7381 H 0.37607 0.40173 0.89314 0.0
H7382 H 0.38071 0.41233 0.89447 0.0
H7383 H 0.37323 0.40834 0.90229 0.0
H7384 H 0.38676 0.43922 0.90201 0.0
H7385 H 0.36862 0.42983 0.92079 0.0
H7386 H 0.37449 0.43409 0.88346 0.0
H7387 H 0.38189 0.42548 0.88555 0.0
H7388 H 0.38525 0.4365 0.8872 0.0
H7389 H 0.35275 0.42262 0.90632 0.0
H7390 H 0.35683 0.42114 0.91713 0.0
H7391 H 0.3596 0.41363 0.90868 0.0
C7392 C 0.87706 0.86604 0.627 0.0
C7393 C 0.87837 0.85749 0.62979 0.0
C7394 C 0.88349 0.87057 0.62246 0.0
C7395 C 0.89149 0.8665 0.62067 0.0
C7396 C 0.89285 0.85787 0.62341 0.0
C7397 C 0.88629 0.85347 0.62792 0.0
C7398 C 0.88177 0.87976 0.61969 0.0
C7399 C 0.90127 0.85329 0.62163 0.0
C7400 C 0.90576 0.876 0.60295 0.0
C7401 C 0.91177 0.88081 0.60774 0.0
C7402 C 0.89915 0.87129 0.60706 0.0
C7403 C 0.89851 0.87138 0.61618 0.0
C7404 C 0.90453 0.87624 0.62105 0.0
C7405 C 0.91106 0.88089 0.61678 0.0
C7406 C 0.89287 0.86619 0.60163 0.0
C7407 C 0.90407 0.87656 0.63078 0.0
H7408 H 0.87104 0.86927 0.62852 0.0
H7409 H 0.88734 0.84685 0.62993 0.0
H7410 H 0.88643 0.88417 0.62287 0.0
H7411 H 0.88271 0.88042 0.61262 0.0
H7412 H 0.87511 0.8819 0.62132 0.0
H7413 H 0.90126 0.84652 0.62402 0.0
H7414 H 0.90259 0.85324 0.61459 0.0
H7415 H 0.90667 0.85681 0.62477 0.0
H7416 H 0.9063 0.87581 0.59598 0.0
H7417 H 0.91557 0.88469 0.62054 0.0
H7418 H 0.88618 0.86845 0.60286 0.0
H7419 H 0.89314 0.85926 0.60346 0.0
H7420 H 0.89423 0.86677 0.59462 0.0
H7421 H 0.89775 0.87925 0.63283 0.0
H7422 H 0.90929 0.88057 0.63363 0.0
H7423 H 0.90455 0.86994 0.63348 0.0
C7424 C 0.9342 0.12912 0.37075 0.0
C7425 C 0.93427 0.12928 0.37982 0.0
C7426 C 0.92982 0.13549 0.36596 0.0
C7427 C 0.92535 0.14218 0.37032 0.0
C7428 C 0.92545 0.14241 0.37946 0.0
C7429 C 0.92992 0.13599 0.38409 0.0
C7430 C 0.92993 0.13504 0.35622 0.0
C7431 C 0.92074 0.1494 0.38437 0.0
C7432 C 0.91985 0.16309 0.35849 0.0
C7433 C 0.91109 0.1619 0.35647 0.0
C7434 C 0.92459 0.15669 0.36288 0.0
C7435 C 0.92049 0.14889 0.36533 0.0
C7436 C 0.91169 0.14758 0.36319 0.0
C7437 C 0.90711 0.15408 0.35878 0.0
C7438 C 0.93398 0.15832 0.36497 0.0
C7439 C 0.90706 0.13937 0.3657 0.0
H7440 H 0.93762 0.12403 0.36739 0.0
H7441 H 0.92983 0.13611 0.39108 0.0
H7442 H 0.92325 0.13439 0.35374 0.0
H7443 H 0.93263 0.1411 0.35352 0.0
H7444 H 0.93383 0.12952 0.35381 0.0
H7445 H 0.92153 0.14874 0.39146 0.0
H7446 H 0.92315 0.15584 0.38237 0.0
H7447 H 0.91375 0.14917 0.38281 0.0
H7448 H 0.92302 0.16904 0.35663 0.0
H7449 H 0.90032 0.15313 0.35735 0.0
H7450 H 0.93805 0.1531 0.36225 0.0
H7451 H 0.93493 0.15827 0.37207 0.0
H7452 H 0.93628 0.16461 0.3624 0.0
H7453 H 0.91052 0.13369 0.36305 0.0
H7454 H 0.90028 0.13924 0.36335 0.0
H7455 H 0.90702 0.1387 0.37283 0.0
C7456 C 0.62765 0.16974 0.10883 0.0
C7457 C 0.62893 0.16103 0.10663 0.0
C7458 C 0.63402 0.17446 0.11323 0.0
C7459 C 0.6419 0.17041 0.11553 0.0
C7460 C 0.6433 0.16167 0.11321 0.0
C7461 C 0.63681 0.15709 0.10879 0.0
C7462 C 0.63229 0.18378 0.11552 0.0
C7463 C 0.65159 0.15709 0.11555 0.0
C7464 C 0.66153 0.18426 0.121 0.0
C7465 C 0.66145 0.18415 0.13007 0.0
C7466 C 0.65518 0.17989 0.11619 0.0
C7467 C 0.6486 0.17524 0.12053 0.0
C7468 C 0.64844 0.17517 0.12968 0.0
C7469 C 0.65485 0.17962 0.13433 0.0
C7470 C 0.65554 0.1802 0.10646 0.0
C7471 C 0.64157 0.17027 0.13457 0.0
H7472 H 0.62164 0.17288 0.10708 0.0
H7473 H 0.63784 0.15035 0.10722 0.0
H7474 H 0.63241 0.18459 0.12263 0.0
H7475 H 0.63744 0.18797 0.11281 0.0
H7476 H 0.62594 0.18606 0.11306 0.0
H7477 H 0.65178 0.15036 0.11308 0.0
H7478 H 0.6572 0.16067 0.11291 0.0
H7479 H 0.65234 0.15691 0.12268 0.0
H7480 H 0.66654 0.18781 0.11765 0.0
H7481 H 0.65479 0.1794 0.14132 0.0
H7482 H 0.64942 0.18287 0.10386 0.0
H7483 H 0.65625 0.17357 0.10384 0.0
H7484 H 0.66099 0.1842 0.10406 0.0
H7485 H 0.63507 0.17264 0.13269 0.0
H7486 H 0.64229 0.17093 0.14168 0.0
H7487 H 0.64187 0.16332 0.13289 0.0
C7488 C 0.62301 0.88176 0.85436 0.0
C7489 C 0.63128 0.87955 0.85736 0.0
C7490 C 0.61806 0.88817 0.8585 0.0
C7491 C 0.62146 0.89251 0.86579 0.0
C7492 C 0.62984 0.89038 0.86879 0.0
C7493 C 0.63463 0.88394 0.86455 0.0
C7494 C 0.60914 0.89023 0.85512 0.0
C7495 C 0.63375 0.89489 0.87649 0.0
C7496 C 0.61264 0.91447 0.87253 0.0
C7497 C 0.60748 0.91235 0.87969 0.0
C7498 C 0.61706 0.90808 0.86785 0.0
C7499 C 0.6163 0.8993 0.87032 0.0
C7500 C 0.61091 0.89708 0.87738 0.0
C7501 C 0.60658 0.90362 0.88198 0.0
C7502 C 0.62269 0.91074 0.86035 0.0
C7503 C 0.60991 0.88781 0.88023 0.0
H7504 H 0.62033 0.87835 0.84888 0.0
H7505 H 0.64106 0.88238 0.86684 0.0
H7506 H 0.60426 0.88894 0.8602 0.0
H7507 H 0.60869 0.89719 0.85346 0.0
H7508 H 0.60748 0.88637 0.84931 0.0
H7509 H 0.64035 0.89251 0.87799 0.0
H7510 H 0.63408 0.90194 0.87527 0.0
H7511 H 0.62961 0.89391 0.88225 0.0
H7512 H 0.61325 0.92117 0.8706 0.0
H7513 H 0.60269 0.9019 0.88753 0.0
H7514 H 0.62076 0.90719 0.85444 0.0
H7515 H 0.62951 0.90903 0.86172 0.0
H7516 H 0.62232 0.91778 0.85901 0.0
H7517 H 0.60788 0.88374 0.87471 0.0
H7518 H 0.60511 0.88708 0.88551 0.0
H7519 H 0.61622 0.88529 0.88253 0.0
C7520 C 0.91283 0.16975 0.9322 0.0
C7521 C 0.91186 0.16087 0.93382 0.0
C7522 C 0.90643 0.17447 0.92781 0.0
C7523 C 0.89885 0.17024 0.92493 0.0
C7524 C 0.89777 0.16131 0.92665 0.0
C7525 C 0.90427 0.15675 0.93108 0.0
C7526 C 0.90781 0.18399 0.92617 0.0
C7527 C 0.88981 0.15654 0.92367 0.0
C7528 C 0.87878 0.1835 0.91953 0.0
C7529 C 0.8792 0.18399 0.91048 0.0
C7530 C 0.88516 0.17913 0.92431 0.0
C7531 C 0.89213 0.1751 0.91996 0.0
C7532 C 0.89263 0.17564 0.91084 0.0
C7533 C 0.88618 0.18008 0.90623 0.0
C7534 C 0.88442 0.17879 0.93403 0.0
C7535 C 0.89992 0.1714 0.90594 0.0
H7536 H 0.91861 0.17302 0.93439 0.0
H7537 H 0.9035 0.14988 0.9322 0.0
H7538 H 0.90792 0.18526 0.91912 0.0
H7539 H 0.90237 0.18777 0.92892 0.0
H7540 H 0.91394 0.18638 0.92903 0.0
H7541 H 0.88984 0.14966 0.9257 0.0
H7542 H 0.88393 0.15968 0.92631 0.0
H7543 H 0.88934 0.15683 0.91653 0.0
H7544 H 0.87348 0.18659 0.92289 0.0
H7545 H 0.8865 0.18032 0.89924 0.0
H7546 H 0.89031 0.18154 0.93703 0.0
H7547 H 0.88393 0.17197 0.9362 0.0
H7548 H 0.87871 0.18239 0.93645 0.0
H7549 H 0.90621 0.17393 0.90824 0.0
H7550 H 0.89945 0.17251 0.89887 0.0
H7551 H 0.89989 0.16434 0.90717 0.0
C7552 C 0.63406 0.15413 0.6817 0.0
C7553 C 0.63005 0.16187 0.68419 0.0
C7554 C 0.62945 0.14765 0.67732 0.0
C7555 C 0.62059 0.14889 0.6754 0.0
C7556 C 0.61646 0.15661 0.67803 0.0
C7557 C 0.62123 0.163 0.68238 0.0
C7558 C 0.63411 0.13953 0.6746 0.0
C7559 C 0.60701 0.15818 0.67618 0.0
C7560 C 0.61093 0.13611 0.65672 0.0
C7561 C 0.60678 0.12928 0.66102 0.0
C7562 C 0.61538 0.14255 0.66132 0.0
C7563 C 0.61569 0.1422 0.67045 0.0
C7564 C 0.61142 0.13539 0.67484 0.0
C7565 C 0.60705 0.12902 0.67007 0.0
C7566 C 0.61988 0.14966 0.65638 0.0
C7567 C 0.61152 0.13481 0.68457 0.0
H7568 H 0.64089 0.15323 0.68297 0.0
H7569 H 0.61804 0.16889 0.68439 0.0
H7570 H 0.63078 0.13377 0.67727 0.0
H7571 H 0.63398 0.13894 0.66747 0.0
H7572 H 0.64095 0.13944 0.67678 0.0
H7573 H 0.60469 0.16441 0.67888 0.0
H7574 H 0.60589 0.15821 0.66911 0.0
H7575 H 0.60306 0.15287 0.67894 0.0
H7576 H 0.61086 0.13632 0.64973 0.0
H7577 H 0.60378 0.12383 0.67346 0.0
H7578 H 0.62691 0.1495 0.65776 0.0
H7579 H 0.61743 0.15605 0.65851 0.0
H7580 H 0.61891 0.1491 0.6493 0.0
H7581 H 0.61827 0.1342 0.6869 0.0
H7582 H 0.60774 0.12923 0.68701 0.0
H7583 H 0.60883 0.14082 0.6874 0.0
C7584 C 0.66432 0.86083 0.4189 0.0
C7585 C 0.66251 0.85721 0.41079 0.0
C7586 C 0.65798 0.86535 0.42356 0.0
C7587 C 0.64958 0.86627 0.42007 0.0
C7588 C 0.64763 0.86245 0.412 0.0
C7589 C 0.65411 0.85797 0.40746 0.0
C7590 C 0.66033 0.86928 0.43216 0.0
C7591 C 0.63875 0.86327 0.40804 0.0
C7592 C 0.63103 0.8727 0.43498 0.0
C7593 C 0.63021 0.88157 0.43325 0.0
C7594 C 0.6373 0.86764 0.43077 0.0
C7595 C 0.64293 0.87154 0.4247 0.0
C7596 C 0.64221 0.88051 0.42301 0.0
C7597 C 0.63587 0.8854 0.42729 0.0
C7598 C 0.63783 0.8581 0.43273 0.0
C7599 C 0.64812 0.88495 0.41665 0.0
H7600 H 0.67074 0.86015 0.42161 0.0
H7601 H 0.65265 0.85529 0.40116 0.0
H7602 H 0.65965 0.87641 0.43182 0.0
H7603 H 0.65585 0.86696 0.43724 0.0
H7604 H 0.66705 0.86771 0.43414 0.0
H7605 H 0.63813 0.85954 0.40195 0.0
H7606 H 0.63377 0.86096 0.41266 0.0
H7607 H 0.63735 0.87016 0.40666 0.0
H7608 H 0.62663 0.86966 0.4395 0.0
H7609 H 0.63537 0.89226 0.426 0.0
H7610 H 0.64441 0.85642 0.435 0.0
H7611 H 0.63661 0.85433 0.42676 0.0
H7612 H 0.63309 0.85608 0.43772 0.0
H7613 H 0.65495 0.88406 0.41864 0.0
H7614 H 0.64678 0.89197 0.41611 0.0
H7615 H 0.6474 0.88198 0.41017 0.0
C7616 C 0.92012 0.87845 0.18322 0.0
C7617 C 0.91109 0.87898 0.18387 0.0
C7618 C 0.92491 0.88481 0.17884 0.0
C7619 C 0.92058 0.89189 0.17497 0.0
C7620 C 0.91148 0.89251 0.17567 0.0
C7621 C 0.90685 0.88608 0.18012 0.0
C7622 C 0.93461 0.88393 0.17832 0.0
C7623 C 0.9066 0.89993 0.17161 0.0
C7624 C 0.93302 0.91246 0.16962 0.0
C7625 C 0.93446 0.91157 0.16071 0.0
C7626 C 0.92863 0.90607 0.17435 0.0
C7627 C 0.92555 0.89859 0.17009 0.0
C7628 C 0.92708 0.89759 0.16113 0.0
C7629 C 0.93151 0.90407 0.15656 0.0
C7630 C 0.9272 0.90737 0.1839 0.0
C7631 C 0.92388 0.88973 0.15633 0.0
H7632 H 0.92346 0.87306 0.18619 0.0
H7633 H 0.89987 0.8865 0.18048 0.0
H7634 H 0.93664 0.88348 0.17146 0.0
H7635 H 0.93775 0.88975 0.18107 0.0
H7636 H 0.93702 0.87814 0.18181 0.0
H7637 H 0.89954 0.89955 0.17285 0.0
H7638 H 0.90904 0.90616 0.17416 0.0
H7639 H 0.90767 0.89996 0.16453 0.0
H7640 H 0.93537 0.91817 0.17291 0.0
H7641 H 0.93249 0.90336 0.14967 0.0
H7642 H 0.92994 0.90185 0.18757 0.0
H7643 H 0.92018 0.90757 0.18531 0.0
H7644 H 0.93019 0.91343 0.1863 0.0
H7645 H 0.92649 0.88378 0.15935 0.0
H7646 H 0.92578 0.88982 0.14941 0.0
H7647 H 0.91674 0.88938 0.15675 0.0
C7648 C 0.88335 0.60733 0.90372 0.0
C7649 C 0.88012 0.6068 0.91218 0.0
C7650 C 0.87881 0.61177 0.89721 0.0
C7651 C 0.87083 0.6158 0.89918 0.0
C7652 C 0.86743 0.61512 0.90764 0.0
C7653 C 0.8721 0.61063 0.91401 0.0
C7654 C 0.88266 0.61233 0.88828 0.0
C7655 C 0.85893 0.61927 0.91001 0.0
C7656 C 0.86376 0.63481 0.88521 0.0
C7657 C 0.85763 0.63101 0.87972 0.0
C7658 C 0.86805 0.62995 0.89157 0.0
C7659 C 0.86621 0.62103 0.89249 0.0
C7660 C 0.85999 0.61716 0.88702 0.0
C7661 C 0.85577 0.62219 0.88072 0.0
C7662 C 0.87458 0.63437 0.89731 0.0
C7663 C 0.85786 0.60767 0.88776 0.0
H7664 H 0.88957 0.60448 0.90224 0.0
H7665 H 0.86946 0.61014 0.92048 0.0
H7666 H 0.87794 0.61002 0.88341 0.0
H7667 H 0.88416 0.61916 0.88671 0.0
H7668 H 0.88868 0.60847 0.88767 0.0
H7669 H 0.85701 0.61788 0.91678 0.0
H7670 H 0.85939 0.62638 0.90917 0.0
H7671 H 0.85375 0.61697 0.90564 0.0
H7672 H 0.86517 0.64164 0.88457 0.0
H7673 H 0.85112 0.61917 0.87645 0.0
H7674 H 0.88099 0.63125 0.89656 0.0
H7675 H 0.87267 0.63366 0.90417 0.0
H7676 H 0.87525 0.64135 0.89581 0.0
H7677 H 0.86374 0.60376 0.88656 0.0
H7678 H 0.85277 0.60566 0.88312 0.0
H7679 H 0.85563 0.60616 0.8944 0.0
C7680 C 0.36703 0.90806 0.15941 0.0
C7681 C 0.35834 0.90968 0.16146 0.0
C7682 C 0.37128 0.91272 0.15289 0.0
C7683 C 0.36676 0.91919 0.14825 0.0
C7684 C 0.35798 0.92084 0.15023 0.0
C7685 C 0.35387 0.91606 0.1568 0.0
C7686 C 0.38062 0.9107 0.15094 0.0
C7687 C 0.35293 0.92769 0.14546 0.0
C7688 C 0.38052 0.93607 0.1367 0.0
C7689 C 0.3807 0.93288 0.12821 0.0
C7690 C 0.37585 0.9318 0.14323 0.0
C7691 C 0.37125 0.92414 0.14127 0.0
C7692 C 0.37125 0.921 0.13269 0.0
C7693 C 0.37594 0.9254 0.12628 0.0
C7694 C 0.376 0.93539 0.15229 0.0
C7695 C 0.36641 0.91288 0.13029 0.0
H7696 H 0.3705 0.90306 0.16287 0.0
H7697 H 0.34719 0.91743 0.15838 0.0
H7698 H 0.3813 0.90865 0.14412 0.0
H7699 H 0.38463 0.91658 0.1518 0.0
H7700 H 0.38324 0.90551 0.15516 0.0
H7701 H 0.34615 0.92816 0.14774 0.0
H7702 H 0.35609 0.93407 0.14631 0.0
H7703 H 0.3529 0.92627 0.13844 0.0
H7704 H 0.38422 0.94178 0.13829 0.0
H7705 H 0.37588 0.92297 0.11972 0.0
H7706 H 0.37922 0.93071 0.15668 0.0
H7707 H 0.36932 0.93631 0.15469 0.0
H7708 H 0.37948 0.94165 0.15267 0.0
H7709 H 0.3691 0.9073 0.13392 0.0
H7710 H 0.3668 0.91144 0.12328 0.0
H7711 H 0.35951 0.91348 0.13213 0.0
C7712 C 0.18076 0.13431 0.6543 0.0
C7713 C 0.1844 0.13007 0.66145 0.0
C7714 C 0.17637 0.12969 0.64784 0.0
C7715 C 0.17562 0.12059 0.64849 0.0
C7716 C 0.17939 0.11626 0.65561 0.0
C7717 C 0.18372 0.12104 0.662 0.0
C7718 C 0.17241 0.13457 0.64037 0.0
C7719 C 0.17881 0.10657 0.65652 0.0
C7720 C 0.15721 0.10975 0.63625 0.0
C7721 C 0.16139 0.10676 0.62879 0.0
C7722 C 0.16177 0.11418 0.64273 0.0
C7723 C 0.17075 0.11564 0.64178 0.0
C7724 C 0.17504 0.11251 0.63433 0.0
C7725 C 0.17032 0.10813 0.62794 0.0
C7726 C 0.15694 0.11742 0.65055 0.0
C7727 C 0.18462 0.11386 0.63309 0.0
H7728 H 0.18116 0.14128 0.65387 0.0
H7729 H 0.1866 0.1177 0.66744 0.0
H7730 H 0.17499 0.13208 0.63418 0.0
H7731 H 0.16532 0.13355 0.6403 0.0
H7732 H 0.17371 0.14162 0.64072 0.0
H7733 H 0.18226 0.10415 0.66233 0.0
H7734 H 0.17194 0.10458 0.65694 0.0
H7735 H 0.18158 0.1034 0.65073 0.0
H7736 H 0.1503 0.10882 0.63692 0.0
H7737 H 0.17363 0.10574 0.62226 0.0
H7738 H 0.1574 0.12457 0.65088 0.0
H7739 H 0.15989 0.1148 0.65652 0.0
H7740 H 0.15 0.11559 0.65042 0.0
H7741 H 0.18607 0.12088 0.63286 0.0
H7742 H 0.18704 0.11084 0.62705 0.0
H7743 H 0.18823 0.11111 0.63863 0.0
C7744 C 0.18672 0.91764 0.8819 0.0
C7745 C 0.18307 0.90991 0.87889 0.0
C7746 C 0.18263 0.92257 0.88834 0.0
C7747 C 0.17471 0.91969 0.89191 0.0
C7748 C 0.17104 0.91185 0.88896 0.0
C7749 C 0.17525 0.90708 0.8825 0.0
C7750 C 0.18674 0.9309 0.89129 0.0
C7751 C 0.16265 0.9085 0.89263 0.0
C7752 C 0.16731 0.92753 0.91401 0.0
C7753 C 0.16087 0.93356 0.91186 0.0
C7754 C 0.17199 0.92313 0.9076 0.0
C7755 C 0.17024 0.9248 0.89878 0.0
C7756 C 0.16394 0.93106 0.89655 0.0
C7757 C 0.15933 0.93535 0.9031 0.0
C7758 C 0.17867 0.91654 0.91028 0.0
C7759 C 0.16189 0.93305 0.88723 0.0
H7760 H 0.19271 0.91993 0.87909 0.0
H7761 H 0.17245 0.90105 0.88032 0.0
H7762 H 0.18227 0.93638 0.89008 0.0
H7763 H 0.18796 0.93066 0.89834 0.0
H7764 H 0.19294 0.93221 0.88793 0.0
H7765 H 0.16064 0.9023 0.88964 0.0
H7766 H 0.1633 0.90751 0.89969 0.0
H7767 H 0.15744 0.91332 0.89162 0.0
H7768 H 0.16868 0.92621 0.92075 0.0
H7769 H 0.15432 0.93992 0.90135 0.0
H7770 H 0.18499 0.91808 0.90727 0.0
H7771 H 0.17674 0.91005 0.90795 0.0
H7772 H 0.17952 0.91625 0.91739 0.0
H7773 H 0.16788 0.93476 0.88369 0.0
H7774 H 0.15721 0.93845 0.88656 0.0
H7775 H 0.15914 0.92724 0.88408 0.0
C7776 C 0.67708 0.40614 0.38476 0.0
C7777 C 0.68344 0.40984 0.37946 0.0
C7778 C 0.67284 0.41101 0.39113 0.0
C7779 C 0.67498 0.41983 0.39227 0.0
C7780 C 0.68145 0.4236 0.38701 0.0
C7781 C 0.68562 0.41856 0.38069 0.0
C7782 C 0.66604 0.4067 0.39665 0.0
C7783 C 0.68391 0.43298 0.38798 0.0
C7784 C 0.65807 0.43381 0.40344 0.0
C7785 C 0.66112 0.43401 0.41197 0.0
C7786 C 0.66261 0.42941 0.39692 0.0
C7787 C 0.67042 0.42507 0.39897 0.0
C7788 C 0.67365 0.42543 0.40751 0.0
C7789 C 0.66898 0.42989 0.41389 0.0
C7790 C 0.65894 0.42921 0.3879 0.0
C7791 C 0.68195 0.42093 0.40997 0.0
H7792 H 0.67544 0.39938 0.38395 0.0
H7793 H 0.69045 0.42151 0.37657 0.0
H7794 H 0.66785 0.40718 0.40356 0.0
H7795 H 0.65977 0.41006 0.39584 0.0
H7796 H 0.66517 0.39978 0.395 0.0
H7797 H 0.68916 0.43491 0.3835 0.0
H7798 H 0.6782 0.43713 0.38674 0.0
H7799 H 0.68604 0.43426 0.3947 0.0
H7800 H 0.65197 0.43689 0.40189 0.0
H7801 H 0.67149 0.43012 0.42042 0.0
H7802 H 0.65723 0.42247 0.38615 0.0
H7803 H 0.66385 0.43145 0.38318 0.0
H7804 H 0.65309 0.4333 0.38724 0.0
H7805 H 0.68126 0.41387 0.409 0.0
H7806 H 0.68378 0.42212 0.4168 0.0
H7807 H 0.6873 0.42315 0.40574 0.0
C7808 C 0.87098 0.43393 0.6287 0.0
C7809 C 0.88005 0.4341 0.62889 0.0
C7810 C 0.86622 0.42952 0.63506 0.0
C7811 C 0.87061 0.42513 0.64178 0.0
C7812 C 0.87976 0.42535 0.64207 0.0
C7813 C 0.88436 0.42984 0.63564 0.0
C7814 C 0.85648 0.42952 0.63455 0.0
C7815 C 0.8847 0.42073 0.6491 0.0
C7816 C 0.85875 0.41952 0.66262 0.0
C7817 C 0.85685 0.41073 0.66144 0.0
C7818 C 0.86311 0.42431 0.65624 0.0
C7819 C 0.86566 0.42022 0.64848 0.0
C7820 C 0.86365 0.41139 0.64718 0.0
C7821 C 0.85926 0.40677 0.65366 0.0
C7822 C 0.86506 0.43372 0.65786 0.0
C7823 C 0.86627 0.40678 0.63901 0.0
H7824 H 0.86759 0.4373 0.62358 0.0
H7825 H 0.89136 0.42983 0.63579 0.0
H7826 H 0.85408 0.4228 0.63391 0.0
H7827 H 0.85371 0.43218 0.6406 0.0
H7828 H 0.85403 0.43337 0.62902 0.0
H7829 H 0.8918 0.42163 0.64849 0.0
H7830 H 0.88264 0.42312 0.65552 0.0
H7831 H 0.88326 0.41371 0.64888 0.0
H7832 H 0.8568 0.42268 0.66855 0.0
H7833 H 0.85792 0.39996 0.65272 0.0
H7834 H 0.8623 0.43775 0.65261 0.0
H7835 H 0.87215 0.43476 0.65784 0.0
H7836 H 0.86243 0.436 0.66413 0.0
H7837 H 0.86359 0.41019 0.6333 0.0
H7838 H 0.86402 0.39997 0.63888 0.0
H7839 H 0.87341 0.40684 0.63837 0.0
C7840 C 0.68216 0.6211 0.16248 0.0
C7841 C 0.68395 0.62993 0.16142 0.0
C7842 C 0.6778 0.61638 0.15607 0.0
C7843 C 0.67514 0.62058 0.14838 0.0
C7844 C 0.67705 0.62945 0.14721 0.0
C7845 C 0.68144 0.63401 0.15372 0.0
C7846 C 0.67596 0.60692 0.15756 0.0
C7847 C 0.67432 0.63418 0.13912 0.0
C7848 C 0.66979 0.60717 0.12845 0.0
C7849 C 0.66072 0.60689 0.12872 0.0
C7850 C 0.67456 0.61152 0.13483 0.0
C7851 C 0.67018 0.61574 0.14166 0.0
C7852 C 0.66104 0.61542 0.14201 0.0
C7853 C 0.65643 0.611 0.13556 0.0
C7854 C 0.68429 0.61163 0.13425 0.0
C7855 C 0.65611 0.61986 0.14915 0.0
H7856 H 0.68418 0.61786 0.16835 0.0
H7857 H 0.6827 0.64084 0.15287 0.0
H7858 H 0.66888 0.60581 0.15758 0.0
H7859 H 0.67871 0.60302 0.15223 0.0
H7860 H 0.67867 0.60455 0.16377 0.0
H7861 H 0.6765 0.64101 0.13908 0.0
H7862 H 0.67698 0.6309 0.13334 0.0
H7863 H 0.66718 0.63406 0.13854 0.0
H7864 H 0.67316 0.60393 0.12325 0.0
H7865 H 0.64944 0.61092 0.13577 0.0
H7866 H 0.68714 0.60888 0.14023 0.0
H7867 H 0.68662 0.61838 0.13369 0.0
H7868 H 0.68673 0.6079 0.12863 0.0
H7869 H 0.65825 0.61737 0.15552 0.0
H7870 H 0.64902 0.61891 0.14858 0.0
H7871 H 0.65749 0.6269 0.14904 0.0
C7872 C 0.62757 0.664 0.92533 0.0
C7873 C 0.62796 0.66255 0.93428 0.0
C7874 C 0.63418 0.66846 0.92098 0.0
C7875 C 0.6414 0.67155 0.92565 0.0
C7876 C 0.64184 0.67014 0.93468 0.0
C7877 C 0.63513 0.66567 0.93888 0.0
C7878 C 0.63346 0.66978 0.91134 0.0
C7879 C 0.64942 0.67333 0.93991 0.0
C7880 C 0.66219 0.67552 0.91308 0.0
C7881 C 0.66204 0.68452 0.91187 0.0
C7882 C 0.65558 0.67125 0.91762 0.0
C7883 C 0.64859 0.67606 0.92103 0.0
C7884 C 0.64839 0.68514 0.91986 0.0
C7885 C 0.6551 0.68925 0.9153 0.0
C7886 C 0.65604 0.66157 0.91868 0.0
C7887 C 0.64107 0.69051 0.9234 0.0
H7888 H 0.62215 0.66151 0.92167 0.0
H7889 H 0.63545 0.66469 0.9458 0.0
H7890 H 0.63383 0.67677 0.90978 0.0
H7891 H 0.63895 0.66658 0.90804 0.0
H7892 H 0.62733 0.66717 0.90868 0.0
H7893 H 0.64874 0.67183 0.94689 0.0
H7894 H 0.65547 0.67034 0.93751 0.0
H7895 H 0.6501 0.68042 0.93914 0.0
H7896 H 0.66742 0.67177 0.91035 0.0
H7897 H 0.65496 0.69621 0.9145 0.0
H7898 H 0.65036 0.65851 0.91557 0.0
H7899 H 0.65584 0.65984 0.92563 0.0
H7900 H 0.662 0.65879 0.91581 0.0
H7901 H 0.63486 0.68837 0.92054 0.0
H7902 H 0.64191 0.69751 0.92204 0.0
H7903 H 0.64057 0.68959 0.93049 0.0
C7904 C 0.61461 0.41376 0.16609 0.0
C7905 C 0.60684 0.41203 0.16173 0.0
C7906 C 0.61893 0.40731 0.17081 0.0
C7907 C 0.6154 0.39889 0.17125 0.0
C7908 C 0.60745 0.39714 0.16706 0.0
C7909 C 0.60328 0.40371 0.16235 0.0
C7910 C 0.62737 0.40948 0.17519 0.0
C7911 C 0.60345 0.38825 0.16739 0.0
C7912 C 0.63083 0.38017 0.17543 0.0
C7913 C 0.62954 0.37849 0.18424 0.0
C7914 C 0.62627 0.38675 0.17114 0.0
C7915 C 0.62023 0.39183 0.17576 0.0
C7916 C 0.6189 0.39021 0.18467 0.0
C7917 C 0.62358 0.38358 0.18881 0.0
C7918 C 0.62794 0.38829 0.16166 0.0
C7919 C 0.61251 0.39545 0.18983 0.0
H7920 H 0.61734 0.4202 0.16581 0.0
H7921 H 0.59733 0.40226 0.15896 0.0
H7922 H 0.62699 0.4079 0.18217 0.0
H7923 H 0.63264 0.4055 0.17241 0.0
H7924 H 0.62911 0.4164 0.17448 0.0
H7925 H 0.59702 0.38805 0.1642 0.0
H7926 H 0.60776 0.38354 0.16414 0.0
H7927 H 0.60272 0.38611 0.17418 0.0
H7928 H 0.63552 0.37638 0.17187 0.0
H7929 H 0.62246 0.38229 0.19559 0.0
H7930 H 0.63027 0.39499 0.16064 0.0
H7931 H 0.62184 0.38758 0.15796 0.0
H7932 H 0.63279 0.38374 0.15898 0.0
H7933 H 0.61425 0.40239 0.18956 0.0
H7934 H 0.61223 0.39341 0.1967 0.0
H7935 H 0.60596 0.39481 0.18698 0.0
C7936 C 0.88705 0.35688 0.40835 0.0
C7937 C 0.87875 0.35602 0.41189 0.0
C7938 C 0.89365 0.36125 0.41281 0.0
C7939 C 0.89193 0.36487 0.42103 0.0
C7940 C 0.88363 0.36385 0.42473 0.0
C7941 C 0.87716 0.35944 0.42013 0.0
C7942 C 0.90241 0.36217 0.40864 0.0
C7943 C 0.88152 0.36756 0.43349 0.0
C7944 C 0.91091 0.37089 0.43557 0.0
C7945 C 0.91168 0.3798 0.43405 0.0
C7946 C 0.90451 0.36595 0.43141 0.0
C7947 C 0.89871 0.37001 0.42561 0.0
C7948 C 0.89939 0.37902 0.42413 0.0
C7949 C 0.90585 0.38379 0.42835 0.0
C7950 C 0.90404 0.35637 0.43314 0.0
C7951 C 0.89329 0.38362 0.41806 0.0
H7952 H 0.88834 0.35435 0.40196 0.0
H7953 H 0.87082 0.35869 0.423 0.0
H7954 H 0.90378 0.3691 0.40741 0.0
H7955 H 0.90752 0.35973 0.41304 0.0
H7956 H 0.90285 0.35862 0.40242 0.0
H7957 H 0.87486 0.36595 0.43561 0.0
H7958 H 0.88614 0.3651 0.43838 0.0
H7959 H 0.8822 0.3747 0.43332 0.0
H7960 H 0.91543 0.36774 0.43989 0.0
H7961 H 0.90632 0.39068 0.42722 0.0
H7962 H 0.90507 0.35275 0.42705 0.0
H7963 H 0.89752 0.35463 0.43556 0.0
H7964 H 0.90892 0.35421 0.43794 0.0
H7965 H 0.89382 0.38083 0.41149 0.0
H7966 H 0.89462 0.39066 0.41767 0.0
H7967 H 0.88652 0.38269 0.42023 0.0
C7968 C 0.92092 0.66444 0.68131 0.0
C7969 C 0.91284 0.66274 0.68508 0.0
C7970 C 0.9255 0.65798 0.67687 0.0
C7971 C 0.92197 0.64958 0.67618 0.0
C7972 C 0.91393 0.64775 0.68015 0.0
C7973 C 0.90947 0.65434 0.68454 0.0
C7974 C 0.93407 0.6602 0.67277 0.0
C7975 C 0.90993 0.63888 0.67959 0.0
C7976 C 0.92887 0.63543 0.65728 0.0
C7977 C 0.93486 0.62982 0.66115 0.0
C7978 C 0.92469 0.6419 0.66208 0.0
C7979 C 0.9265 0.6428 0.671 0.0
C7980 C 0.93259 0.63721 0.67494 0.0
C7981 C 0.93671 0.63081 0.66997 0.0
C7982 C 0.9183 0.64777 0.6576 0.0
C7983 C 0.93469 0.63792 0.68443 0.0
H7984 H 0.92366 0.67086 0.6818 0.0
H7985 H 0.9032 0.65296 0.68734 0.0
H7986 H 0.93916 0.65574 0.67513 0.0
H7987 H 0.93364 0.65938 0.66567 0.0
H7988 H 0.93609 0.66694 0.67417 0.0
H7989 H 0.90387 0.63837 0.6834 0.0
H7990 H 0.90846 0.63733 0.67275 0.0
H7991 H 0.91455 0.63393 0.68195 0.0
H7992 H 0.92748 0.6348 0.65045 0.0
H7993 H 0.94125 0.62645 0.67304 0.0
H7994 H 0.92034 0.6546 0.65831 0.0
H7995 H 0.91186 0.64714 0.66067 0.0
H7996 H 0.91767 0.64628 0.65062 0.0
H7997 H 0.93701 0.64453 0.68593 0.0
H7998 H 0.93968 0.6332 0.68649 0.0
H7999 H 0.92876 0.63682 0.68831 0.0
C8000 C 0.62706 0.37023 0.60918 0.0
C8001 C 0.62869 0.37841 0.60561 0.0
C8002 C 0.63354 0.36562 0.61359 0.0
C8003 C 0.64189 0.36926 0.61445 0.0
C8004 C 0.64365 0.37741 0.61066 0.0
C8005 C 0.63704 0.38188 0.6063 0.0
C8006 C 0.6314 0.35694 0.61748 0.0
C8007 C 0.65246 0.38151 0.61141 0.0
C8008 C 0.65593 0.36214 0.63338 0.0
C8009 C 0.66167 0.35631 0.62947 0.0
C8010 C 0.64946 0.36634 0.62858 0.0
C8011 C 0.64868 0.3647 0.61962 0.0
C8012 C 0.65439 0.35877 0.61563 0.0
C8013 C 0.66079 0.35463 0.6206 0.0
C8014 C 0.64346 0.37255 0.63311 0.0
C8015 C 0.65381 0.35687 0.60609 0.0
H8016 H 0.62068 0.36742 0.60856 0.0
H8017 H 0.63836 0.38823 0.60365 0.0
H8018 H 0.63596 0.35197 0.61508 0.0
H8019 H 0.63213 0.35723 0.6246 0.0
H8020 H 0.6247 0.35486 0.61596 0.0
H8021 H 0.65293 0.38765 0.60772 0.0
H8022 H 0.65391 0.38286 0.61829 0.0
H8023 H 0.6575 0.377 0.60903 0.0
H8024 H 0.65647 0.36339 0.64024 0.0
H8025 H 0.66525 0.35022 0.6175 0.0
H8026 H 0.63666 0.37043 0.63228 0.0
H8027 H 0.64403 0.37906 0.63018 0.0
H8028 H 0.64486 0.37305 0.64013 0.0
H8029 H 0.64725 0.35449 0.60446 0.0
H8030 H 0.65862 0.35199 0.604 0.0
H8031 H 0.65486 0.36289 0.60235 0.0
C8032 C 0.90879 0.38231 0.86412 0.0
C8033 C 0.91165 0.37877 0.85629 0.0
C8034 C 0.91346 0.38886 0.86831 0.0
C8035 C 0.92122 0.39198 0.86461 0.0
C8036 C 0.92414 0.38847 0.85668 0.0
C8037 C 0.91931 0.38193 0.85261 0.0
C8038 C 0.91007 0.39246 0.87671 0.0
C8039 C 0.93239 0.39159 0.85253 0.0
C8040 C 0.92871 0.41424 0.87194 0.0
C8041 C 0.93482 0.4122 0.87833 0.0
C8042 C 0.92439 0.40774 0.8673 0.0
C8043 C 0.92622 0.39895 0.86904 0.0
C8044 C 0.93256 0.39684 0.87531 0.0
C8045 C 0.93677 0.40347 0.87988 0.0
C8046 C 0.91771 0.4103 0.86066 0.0
C8047 C 0.93473 0.38755 0.87735 0.0
H8048 H 0.90281 0.38001 0.86696 0.0
H8049 H 0.92163 0.37917 0.84662 0.0
H8050 H 0.91493 0.39154 0.8819 0.0
H8051 H 0.90894 0.39951 0.87606 0.0
H8052 H 0.90394 0.38934 0.87875 0.0
H8053 H 0.93374 0.38826 0.84633 0.0
H8054 H 0.93201 0.39864 0.85131 0.0
H8055 H 0.93791 0.39049 0.85697 0.0
H8056 H 0.92727 0.42095 0.87056 0.0
H8057 H 0.94141 0.4018 0.88484 0.0
H8058 H 0.91128 0.40783 0.86263 0.0
H8059 H 0.91928 0.40734 0.85433 0.0
H8060 H 0.91727 0.41741 0.85982 0.0
H8061 H 0.92899 0.38428 0.88012 0.0
H8062 H 0.94016 0.38698 0.88201 0.0
H8063 H 0.93649 0.38405 0.87136 0.0
C8064 C 0.88405 0.67742 0.13307 0.0
C8065 C 0.87937 0.68435 0.12956 0.0
C8066 C 0.89054 0.67322 0.12832 0.0
C8067 C 0.89243 0.67598 0.1198 0.0
C8068 C 0.88778 0.68302 0.11623 0.0
C8069 C 0.88133 0.68712 0.12114 0.0
C8070 C 0.89538 0.6658 0.13241 0.0
C8071 C 0.88957 0.68615 0.10717 0.0
C8072 C 0.91445 0.66966 0.1108 0.0
C8073 C 0.91248 0.66228 0.10591 0.0
C8074 C 0.90798 0.67428 0.11519 0.0
C8075 C 0.89928 0.67149 0.11468 0.0
C8076 C 0.89721 0.66419 0.10958 0.0
C8077 C 0.90382 0.65968 0.10527 0.0
C8078 C 0.91048 0.68205 0.12051 0.0
C8079 C 0.88802 0.66101 0.10885 0.0
H8080 H 0.88268 0.6753 0.1396 0.0
H8081 H 0.87769 0.69241 0.11833 0.0
H8082 H 0.89453 0.65987 0.12849 0.0
H8083 H 0.9024 0.66725 0.13258 0.0
H8084 H 0.89316 0.66445 0.1391 0.0
H8085 H 0.88548 0.69177 0.10537 0.0
H8086 H 0.89645 0.68802 0.10653 0.0
H8087 H 0.88837 0.68086 0.1025 0.0
H8088 H 0.92109 0.67184 0.11122 0.0
H8089 H 0.90222 0.65395 0.10159 0.0
H8090 H 0.90894 0.68085 0.12741 0.0
H8091 H 0.9067 0.68778 0.11845 0.0
H8092 H 0.91747 0.68359 0.11997 0.0
H8093 H 0.88569 0.65886 0.11528 0.0
H8094 H 0.8874 0.65554 0.10426 0.0
H8095 H 0.88372 0.66632 0.1067 0.0
C8096 C 0.615 0.62814 0.37598 0.0
C8097 C 0.60615 0.62877 0.37789 0.0
C8098 C 0.61935 0.63475 0.37152 0.0
C8099 C 0.61477 0.64223 0.36891 0.0
C8100 C 0.60583 0.64291 0.37077 0.0
C8101 C 0.60164 0.63618 0.37524 0.0
C8102 C 0.62888 0.63377 0.3697 0.0
C8103 C 0.60071 0.65076 0.36809 0.0
C8104 C 0.62779 0.66275 0.36502 0.0
C8105 C 0.62854 0.6629 0.35598 0.0
C8106 C 0.62328 0.65612 0.36928 0.0
C8107 C 0.6194 0.64943 0.36441 0.0
C8108 C 0.6201 0.64953 0.35529 0.0
C8109 C 0.62466 0.65625 0.35119 0.0
C8110 C 0.62272 0.65625 0.37901 0.0
C8111 C 0.61606 0.64253 0.34986 0.0
H8112 H 0.6186 0.62252 0.37812 0.0
H8113 H 0.59479 0.6367 0.37657 0.0
H8114 H 0.6301 0.63435 0.36266 0.0
H8115 H 0.63253 0.63902 0.37292 0.0
H8116 H 0.63146 0.62747 0.37196 0.0
H8117 H 0.59378 0.65025 0.36991 0.0
H8118 H 0.60345 0.65662 0.37116 0.0
H8119 H 0.60115 0.65168 0.361 0.0
H8120 H 0.63087 0.66776 0.3688 0.0
H8121 H 0.6251 0.65635 0.34421 0.0
H8122 H 0.62578 0.65036 0.38171 0.0
H8123 H 0.61585 0.65622 0.38107 0.0
H8124 H 0.62593 0.662 0.38184 0.0
H8125 H 0.61881 0.63616 0.35167 0.0
H8126 H 0.61711 0.64358 0.34284 0.0
H8127 H 0.60901 0.64223 0.35111 0.0
C8128 C 0.68729 0.91171 0.65364 0.0
C8129 C 0.68399 0.91155 0.66209 0.0
C8130 C 0.68311 0.91638 0.64704 0.0
C8131 C 0.67542 0.92099 0.6489 0.0
C8132 C 0.67216 0.921 0.65744 0.0
C8133 C 0.67649 0.91631 0.66391 0.0
C8134 C 0.68682 0.91621 0.63803 0.0
C8135 C 0.66401 0.92584 0.65971 0.0
C8136 C 0.66756 0.93839 0.63326 0.0
C8137 C 0.66123 0.93395 0.62852 0.0
C8138 C 0.67225 0.93427 0.63987 0.0
C8139 C 0.67058 0.92549 0.64184 0.0
C8140 C 0.66417 0.92099 0.63713 0.0
C8141 C 0.65959 0.92526 0.63055 0.0
C8142 C 0.67905 0.93929 0.64472 0.0
C8143 C 0.66211 0.91164 0.63905 0.0
H8144 H 0.69303 0.908 0.65213 0.0
H8145 H 0.67397 0.91639 0.67044 0.0
H8146 H 0.68221 0.913 0.63359 0.0
H8147 H 0.68779 0.92289 0.63563 0.0
H8148 H 0.69309 0.91272 0.63774 0.0
H8149 H 0.66247 0.92545 0.66671 0.0
H8150 H 0.66465 0.93274 0.65789 0.0
H8151 H 0.65849 0.92317 0.65601 0.0
H8152 H 0.66895 0.94507 0.63169 0.0
H8153 H 0.65463 0.9218 0.62703 0.0
H8154 H 0.68543 0.93612 0.64397 0.0
H8155 H 0.67753 0.93933 0.65172 0.0
H8156 H 0.67957 0.94608 0.64244 0.0
H8157 H 0.668 0.90763 0.63828 0.0
H8158 H 0.65698 0.90904 0.63476 0.0
H8159 H 0.65996 0.91097 0.64585 0.0
C8160 C 0.40349 0.38091 0.10465 0.0
C8161 C 0.4122 0.38002 0.107 0.0
C8162 C 0.39696 0.37625 0.10893 0.0
C8163 C 0.39917 0.37055 0.11575 0.0
C8164 C 0.40797 0.36946 0.11801 0.0
C8165 C 0.41436 0.37418 0.11361 0.0
C8166 C 0.38766 0.37759 0.1063 0.0
C8167 C 0.41063 0.36344 0.12521 0.0
C8168 C 0.38221 0.36586 0.13293 0.0
C8169 C 0.3792 0.35766 0.13052 0.0
C8170 C 0.38868 0.3701 0.12819 0.0
C8171 C 0.39228 0.36607 0.12082 0.0
C8172 C 0.38932 0.35776 0.11836 0.0
C8173 C 0.38284 0.35365 0.12325 0.0
C8174 C 0.39169 0.37891 0.13108 0.0
C8175 C 0.39296 0.35325 0.11054 0.0
H8176 H 0.40173 0.38545 0.09961 0.0
H8177 H 0.42108 0.37331 0.11538 0.0
H8178 H 0.38457 0.37129 0.10486 0.0
H8179 H 0.38403 0.38055 0.11172 0.0
H8180 H 0.38704 0.38184 0.10055 0.0
H8181 H 0.41776 0.36303 0.12594 0.0
H8182 H 0.40783 0.36569 0.13141 0.0
H8183 H 0.40808 0.35685 0.124 0.0
H8184 H 0.37955 0.36896 0.13861 0.0
H8185 H 0.38049 0.34736 0.12127 0.0
H8186 H 0.39067 0.38369 0.12584 0.0
H8187 H 0.39871 0.37875 0.13249 0.0
H8188 H 0.38823 0.38118 0.13694 0.0
H8189 H 0.39182 0.35723 0.10469 0.0
H8190 H 0.39003 0.34677 0.10953 0.0
H8191 H 0.40005 0.35247 0.11123 0.0
C8192 C 0.43552 0.63736 0.8803 0.0
C8193 C 0.43308 0.62866 0.87952 0.0
C8194 C 0.43123 0.6439 0.87563 0.0
C8195 C 0.42431 0.6417 0.87005 0.0
C8196 C 0.42196 0.63292 0.86908 0.0
C8197 C 0.42637 0.62653 0.87379 0.0
C8198 C 0.43395 0.65317 0.87685 0.0
C8199 C 0.41466 0.63029 0.86318 0.0
C8200 C 0.40726 0.65883 0.86539 0.0
C8201 C 0.40963 0.66175 0.85714 0.0
C8202 C 0.41197 0.65233 0.86963 0.0
C8203 C 0.41927 0.64862 0.86556 0.0
C8204 C 0.42167 0.65148 0.8572 0.0
C8205 C 0.41682 0.65799 0.85309 0.0
C8206 C 0.40913 0.64943 0.87851 0.0
C8207 C 0.42941 0.64771 0.85263 0.0
H8208 H 0.44063 0.63911 0.88474 0.0
H8209 H 0.42454 0.61982 0.873 0.0
H8210 H 0.43537 0.65619 0.87051 0.0
H8211 H 0.4286 0.65689 0.87982 0.0
H8212 H 0.43976 0.65377 0.88103 0.0
H8213 H 0.41384 0.62317 0.86287 0.0
H8214 H 0.40852 0.63319 0.86547 0.0
H8215 H 0.41582 0.63276 0.85656 0.0
H8216 H 0.40164 0.66158 0.86852 0.0
H8217 H 0.41877 0.66027 0.84676 0.0
H8218 H 0.41444 0.65044 0.88321 0.0
H8219 H 0.40766 0.64242 0.87844 0.0
H8220 H 0.40333 0.65297 0.8808 0.0
H8221 H 0.43532 0.64883 0.85653 0.0
H8222 H 0.43038 0.65056 0.84612 0.0
H8223 H 0.42864 0.64062 0.85195 0.0
C8224 C 0.13226 0.65763 0.6158 0.0
C8225 C 0.12959 0.65977 0.6074 0.0
C8226 C 0.13873 0.66237 0.62004 0.0
C8227 C 0.14268 0.66946 0.61579 0.0
C8228 C 0.14007 0.67162 0.60729 0.0
C8229 C 0.13357 0.66675 0.6032 0.0
C8230 C 0.14136 0.65979 0.62907 0.0
C8231 C 0.14409 0.67913 0.60254 0.0
C8232 C 0.1539 0.68598 0.63019 0.0
C8233 C 0.16257 0.68335 0.62969 0.0
C8234 C 0.14739 0.68166 0.62554 0.0
C8235 C 0.14958 0.67452 0.62027 0.0
C8236 C 0.15833 0.67196 0.61957 0.0
C8237 C 0.1647 0.67641 0.62427 0.0
C8238 C 0.13814 0.68461 0.62645 0.0
C8239 C 0.16096 0.66441 0.614 0.0
H8240 H 0.12933 0.65217 0.61907 0.0
H8241 H 0.13149 0.66851 0.59675 0.0
H8242 H 0.14834 0.65817 0.62922 0.0
H8243 H 0.14035 0.66528 0.63356 0.0
H8244 H 0.13765 0.65415 0.63149 0.0
H8245 H 0.1414 0.67994 0.59594 0.0
H8246 H 0.143 0.68519 0.6062 0.0
H8247 H 0.15117 0.6782 0.60204 0.0
H8248 H 0.15215 0.69128 0.63441 0.0
H8249 H 0.17139 0.67442 0.62369 0.0
H8250 H 0.13425 0.67943 0.62953 0.0
H8251 H 0.13529 0.68586 0.62 0.0
H8252 H 0.13756 0.69056 0.6304 0.0
H8253 H 0.15789 0.65841 0.61645 0.0
H8254 H 0.16807 0.66344 0.61389 0.0
H8255 H 0.15867 0.66539 0.60729 0.0
C8256 C 0.12812 0.38664 0.35325 0.0
C8257 C 0.1302 0.37882 0.35737 0.0
C8258 C 0.12356 0.39319 0.3576 0.0
C8259 C 0.121 0.39192 0.3663 0.0
C8260 C 0.12301 0.38402 0.37047 0.0
C8261 C 0.12759 0.3776 0.36598 0.0
C8262 C 0.12154 0.4015 0.35291 0.0
C8263 C 0.12043 0.3824 0.37973 0.0
C8264 C 0.11697 0.41162 0.38044 0.0
C8265 C 0.10791 0.41213 0.38052 0.0
C8266 C 0.12128 0.40512 0.37581 0.0
C8267 C 0.11646 0.39893 0.37113 0.0
C8268 C 0.10731 0.39939 0.37118 0.0
C8269 C 0.10315 0.40597 0.37588 0.0
C8270 C 0.13104 0.40485 0.37597 0.0
C8271 C 0.10192 0.39293 0.36627 0.0
H8272 H 0.13 0.38761 0.34658 0.0
H8273 H 0.12927 0.37166 0.36928 0.0
H8274 H 0.11447 0.40269 0.35295 0.0
H8275 H 0.12464 0.40701 0.35629 0.0
H8276 H 0.12382 0.40142 0.34611 0.0
H8277 H 0.12224 0.37582 0.38196 0.0
H8278 H 0.12359 0.3872 0.384 0.0
H8279 H 0.11335 0.38322 0.38048 0.0
H8280 H 0.12071 0.41625 0.38412 0.0
H8281 H 0.09616 0.40636 0.37582 0.0
H8282 H 0.1336 0.40526 0.3693 0.0
H8283 H 0.13326 0.39862 0.37873 0.0
H8284 H 0.13385 0.4102 0.37983 0.0
H8285 H 0.10364 0.39311 0.35932 0.0
H8286 H 0.09489 0.39419 0.36693 0.0
H8287 H 0.1033 0.38631 0.36863 0.0
C8288 C 0.41004 0.65821 0.42405 0.0
C8289 C 0.41215 0.65989 0.4327 0.0
C8290 C 0.40353 0.66287 0.41978 0.0
C8291 C 0.39896 0.66941 0.42424 0.0
C8292 C 0.40101 0.67113 0.43299 0.0
C8293 C 0.40756 0.66634 0.43712 0.0
C8294 C 0.40151 0.66078 0.41047 0.0
C8295 C 0.39631 0.67806 0.43798 0.0
C8296 C 0.38743 0.68619 0.41033 0.0
C8297 C 0.37892 0.68304 0.41022 0.0
C8298 C 0.39396 0.68196 0.41504 0.0
C8299 C 0.39197 0.67436 0.41975 0.0
C8300 C 0.38337 0.67126 0.41983 0.0
C8301 C 0.37697 0.67563 0.4151 0.0
C8302 C 0.40304 0.68549 0.41479 0.0
C8303 C 0.38096 0.6632 0.42477 0.0
H8304 H 0.41345 0.65315 0.42061 0.0
H8305 H 0.40919 0.66775 0.44377 0.0
H8306 H 0.39466 0.65876 0.40986 0.0
H8307 H 0.40238 0.66661 0.4064 0.0
H8308 H 0.40569 0.65554 0.4079 0.0
H8309 H 0.39864 0.67858 0.44474 0.0
H8310 H 0.39718 0.6844 0.43475 0.0
H8311 H 0.38928 0.67668 0.43808 0.0
H8312 H 0.38904 0.69185 0.40654 0.0
H8313 H 0.3704 0.67323 0.41521 0.0
H8314 H 0.40739 0.68078 0.4116 0.0
H8315 H 0.40549 0.68646 0.42145 0.0
H8316 H 0.40344 0.69173 0.41126 0.0
H8317 H 0.38452 0.65758 0.42213 0.0
H8318 H 0.37392 0.66181 0.42445 0.0
H8319 H 0.38285 0.66387 0.43165 0.0
C8320 C 0.12106 0.66242 0.1831 0.0
C8321 C 0.13007 0.66182 0.18403 0.0
C8322 C 0.11634 0.65603 0.17871 0.0
C8323 C 0.12071 0.64885 0.17511 0.0
C8324 C 0.12978 0.64814 0.17611 0.0
C8325 C 0.13434 0.65461 0.18056 0.0
C8326 C 0.10667 0.65701 0.17785 0.0
C8327 C 0.13469 0.64061 0.17236 0.0
C8328 C 0.10815 0.62838 0.1697 0.0
C8329 C 0.107 0.62917 0.16073 0.0
C8330 C 0.1125 0.63476 0.17446 0.0
C8331 C 0.11582 0.64214 0.17018 0.0
C8332 C 0.11459 0.64303 0.16116 0.0
C8333 C 0.11019 0.63656 0.15656 0.0
C8334 C 0.1136 0.63358 0.18408 0.0
C8335 C 0.11804 0.65078 0.15634 0.0
H8336 H 0.11768 0.6679 0.18586 0.0
H8337 H 0.1413 0.65413 0.18114 0.0
H8338 H 0.10486 0.65739 0.17093 0.0
H8339 H 0.10338 0.65127 0.1806 0.0
H8340 H 0.10421 0.66287 0.18117 0.0
H8341 H 0.14171 0.64091 0.17384 0.0
H8342 H 0.13208 0.63445 0.17492 0.0
H8343 H 0.13386 0.64048 0.16524 0.0
H8344 H 0.10561 0.62275 0.17301 0.0
H8345 H 0.10943 0.63719 0.14963 0.0
H8346 H 0.1108 0.63918 0.18756 0.0
H8347 H 0.12057 0.63332 0.18571 0.0
H8348 H 0.11047 0.62758 0.18647 0.0
H8349 H 0.1154 0.65681 0.15916 0.0
H8350 H 0.11639 0.65061 0.14936 0.0
H8351 H 0.12517 0.65106 0.157 0.0
C8352 C 0.13609 0.37673 0.93776 0.0
C8353 C 0.12861 0.37943 0.93339 0.0
C8354 C 0.14269 0.37219 0.93345 0.0
C8355 C 0.14181 0.3703 0.92455 0.0
C8356 C 0.13427 0.37296 0.92011 0.0
C8357 C 0.12779 0.37749 0.92457 0.0
C8358 C 0.15062 0.36946 0.93843 0.0
C8359 C 0.13307 0.37111 0.91062 0.0
C8360 C 0.16206 0.36627 0.91116 0.0
C8361 C 0.16214 0.35723 0.91045 0.0
C8362 C 0.15554 0.37058 0.91578 0.0
C8363 C 0.14889 0.36575 0.91979 0.0
C8364 C 0.14892 0.35663 0.91911 0.0
C8365 C 0.15553 0.35248 0.91445 0.0
C8366 C 0.15574 0.38032 0.9163 0.0
C8367 C 0.14196 0.35124 0.9233 0.0
H8368 H 0.13676 0.3781 0.94459 0.0
H8369 H 0.12212 0.37966 0.92108 0.0
H8370 H 0.15149 0.36237 0.93797 0.0
H8371 H 0.15645 0.3725 0.93557 0.0
H8372 H 0.15026 0.37128 0.94535 0.0
H8373 H 0.12673 0.3734 0.90816 0.0
H8374 H 0.13827 0.3743 0.90685 0.0
H8375 H 0.13359 0.36406 0.90942 0.0
H8376 H 0.16704 0.37003 0.90798 0.0
H8377 H 0.15559 0.34549 0.91403 0.0
H8378 H 0.15586 0.38239 0.92315 0.0
H8379 H 0.14979 0.38304 0.91336 0.0
H8380 H 0.16143 0.38312 0.91295 0.0
H8381 H 0.14181 0.35249 0.93035 0.0
H8382 H 0.14294 0.34421 0.92225 0.0
H8383 H 0.13555 0.35308 0.92069 0.0
C8384 C 0.41947 0.37787 0.68214 0.0
C8385 C 0.41069 0.37904 0.68409 0.0
C8386 C 0.42421 0.38425 0.67773 0.0
C8387 C 0.42008 0.392 0.67517 0.0
C8388 C 0.41125 0.39329 0.67723 0.0
C8389 C 0.40668 0.38681 0.68167 0.0
C8390 C 0.43361 0.38264 0.67572 0.0
C8391 C 0.40659 0.40145 0.6746 0.0
C8392 C 0.43368 0.41181 0.66971 0.0
C8393 C 0.43381 0.4116 0.66065 0.0
C8394 C 0.42932 0.40544 0.67451 0.0
C8395 C 0.42493 0.3987 0.67017 0.0
C8396 C 0.4251 0.3984 0.66103 0.0
C8397 C 0.42955 0.40483 0.65639 0.0
C8398 C 0.42936 0.40597 0.68425 0.0
C8399 C 0.42049 0.39135 0.65614 0.0
H8400 H 0.42267 0.37195 0.68409 0.0
H8401 H 0.39987 0.38774 0.68304 0.0
H8402 H 0.43462 0.38265 0.66863 0.0
H8403 H 0.43764 0.3879 0.67844 0.0
H8404 H 0.43594 0.37638 0.67836 0.0
H8405 H 0.39979 0.40156 0.67689 0.0
H8406 H 0.40999 0.40717 0.67724 0.0
H8407 H 0.40661 0.40207 0.66747 0.0
H8408 H 0.43705 0.41694 0.67306 0.0
H8409 H 0.42951 0.40467 0.64939 0.0
H8410 H 0.43207 0.39993 0.68702 0.0
H8411 H 0.42265 0.4066 0.68668 0.0
H8412 H 0.43321 0.41152 0.68665 0.0
H8413 H 0.42292 0.38494 0.65821 0.0
H8414 H 0.42134 0.39196 0.64904 0.0
H8415 H 0.41348 0.39156 0.65762 0.0
C8416 C 0.36403 0.13495 0.38492 0.0
C8417 C 0.35795 0.13115 0.37938 0.0
C8418 C 0.36826 0.13009 0.39132 0.0
C8419 C 0.36641 0.12117 0.39222 0.0
C8420 C 0.36024 0.1173 0.38669 0.0
C8421 C 0.35607 0.12233 0.38036 0.0
C8422 C 0.37473 0.1345 0.39712 0.0
C8423 C 0.35811 0.10781 0.38741 0.0
C8424 C 0.38349 0.10748 0.40356 0.0
C8425 C 0.3802 0.10694 0.41199 0.0
C8426 C 0.37899 0.11192 0.39702 0.0
C8427 C 0.37098 0.11593 0.39893 0.0
C8428 C 0.36752 0.11523 0.40737 0.0
C8429 C 0.37215 0.11074 0.41377 0.0
C8430 C 0.3829 0.1125 0.38811 0.0
C8431 C 0.359 0.11937 0.40968 0.0
H8432 H 0.36544 0.14178 0.38429 0.0
H8433 H 0.35146 0.11931 0.37605 0.0
H8434 H 0.37276 0.13378 0.40397 0.0
H8435 H 0.38116 0.1314 0.39642 0.0
H8436 H 0.37539 0.14149 0.39564 0.0
H8437 H 0.35306 0.1058 0.38273 0.0
H8438 H 0.364 0.1039 0.38625 0.0
H8439 H 0.35583 0.10629 0.39403 0.0
H8440 H 0.38973 0.10466 0.40212 0.0
H8441 H 0.36947 0.11023 0.42021 0.0
H8442 H 0.3844 0.11934 0.38657 0.0
H8443 H 0.37822 0.1102 0.38321 0.0
H8444 H 0.38893 0.10864 0.38754 0.0
H8445 H 0.35946 0.12647 0.40887 0.0
H8446 H 0.35704 0.11795 0.41643 0.0
H8447 H 0.35385 0.11706 0.40527 0.0
loop_
_geom_bond_atom_site_label_1
_geom_bond_atom_site_label_2
_geom_bond_distance
_geom_bond_site_symmetry_2
_ccdc_geom_bond_type
C0 C1 1.264 . S
C0 C5 1.479 . S
C0 C10 1.465 . S
C1 C0 1.264 . S
C1 C3 1.339 . S
C1 H28 0.931 . S
C2 C3 1.395 . S
C2 C4 1.320 . S
C3 C1 1.339 . S
C3 C2 1.395 . S
C3 H29 0.929 . S
C4 C2 1.320 . S
C4 C5 1.405 . S
C4 H30 0.930 . S
C5 C0 1.479 . S
C5 C4 1.405 . S
C5 H31 0.931 . S
U6 O7 2.454 . S
U6 O8 2.458 . S
U6 C9 2.984 . S
U6 C10 2.847 . S
U6 C23 2.882 . S
U6 O24 2.441 . S
U6 O25 2.420 . S
U6 O26 2.455 . S
U6 O27 2.449 . S
O7 U6 2.454 . S
O7 C9 1.353 . S
O8 U6 2.458 . S
O8 C9 1.286 . S
C9 U6 2.984 . S
C9 O7 1.353 . S
C9 O8 1.286 . S
C9 C11 1.363 . S
C10 C0 1.465 . S
C10 U6 2.847 . S
C10 O24 1.249 . S
C10 O25 1.202 . S
C11 C9 1.363 . S
C11 C13 1.408 . S
C11 C16 1.342 . S
C12 C13 1.310 . S
C12 C15 1.461 . S
C12 H32 0.932 . S
C13 C11 1.408 . S
C13 C12 1.310 . S
C13 H33 0.930 . S
C14 C15 1.474 . S
C14 C16 1.285 . S
C14 H34 0.929 . S
C15 C12 1.461 . S
C15 C14 1.474 . S
C16 C11 1.342 . S
C16 C14 1.285 . S
C16 H35 0.930 . S
C17 C20 1.424 . S
C17 C22 1.245 . S
C17 C23 1.428 . S
C18 C21 1.260 . S
C18 C22 1.477 . S
C18 H36 0.932 . S
C19 C20 1.384 . S
C19 C21 1.479 . S
C19 H37 0.929 . S
C20 C17 1.424 . S
C20 C19 1.384 . S
C20 H38 0.928 . S
C21 C18 1.260 . S
C21 C19 1.479 . S
C22 C17 1.245 . S
C22 C18 1.477 . S
C22 H39 0.932 . S
C23 U6 2.882 . S
C23 C17 1.428 . S
C23 O26 1.301 . S
C23 O27 1.282 . S
O24 U6 2.441 . S
O24 C10 1.249 . S
O25 U6 2.420 . S
O25 C10 1.202 . S
O26 U6 2.455 . S
O26 C23 1.301 . S
O27 U6 2.449 . S
O27 C23 1.282 . S
H28 C1 0.931 . S
H29 C3 0.929 . S
H30 C4 0.930 . S
H31 C5 0.931 . S
H32 C12 0.932 . S
H33 C13 0.930 . S
H34 C14 0.929 . S
H35 C16 0.930 . S
H36 C18 0.932 . S
H37 C19 0.929 . S
H38 C20 0.928 . S
H39 C22 0.932 . S
C40 C41 1.264 . S
C40 C45 1.479 . S
C40 C50 1.465 . S
C41 C40 1.264 . S
C41 C43 1.339 . S
C41 H68 0.931 . S
C42 C43 1.395 . S
C42 C44 1.320 . S
C43 C41 1.339 . S
C43 C42 1.395 . S
C43 H69 0.929 . S
C44 C42 1.320 . S
C44 C45 1.405 . S
C44 H70 0.930 . S
C45 C40 1.479 . S
C45 C44 1.405 . S
C45 H71 0.931 . S
U46 O47 2.454 . S
U46 O48 2.458 . S
U46 C49 2.984 . S
U46 C50 2.847 . S
U46 C63 2.882 . S
U46 O64 2.441 . S
U46 O65 2.420 . S
U46 O66 2.455 . S
U46 O67 2.449 . S
O47 U46 2.454 . S
O47 C49 1.353 . S
O48 U46 2.458 . S
O48 C49 1.286 . S
C49 U46 2.984 . S
C49 O47 1.353 . S
C49 O48 1.286 . S
C49 C51 1.363 . S
C50 C40 1.465 . S
C50 U46 2.847 . S
C50 O64 1.249 . S
C50 O65 1.202 . S
C51 C49 1.363 . S
C51 C53 1.408 . S
C51 C56 1.342 . S
C52 C53 1.310 . S
C52 C55 1.461 . S
C52 H72 0.932 . S
C53 C51 1.408 . S
C53 C52 1.310 . S
C53 H73 0.930 . S
C54 C55 1.474 . S
C54 C56 1.285 . S
C54 H74 0.929 . S
C55 C52 1.461 . S
C55 C54 1.474 . S
C56 C51 1.342 . S
C56 C54 1.285 . S
C56 H75 0.930 . S
C57 C60 1.424 . S
C57 C62 1.245 . S
C57 C63 1.428 . S
C58 C61 1.260 . S
C58 C62 1.477 . S
C58 H76 0.932 . S
C59 C60 1.384 . S
C59 C61 1.479 . S
C59 H77 0.929 . S
C60 C57 1.424 . S
C60 C59 1.384 . S
C60 H78 0.928 . S
C61 C58 1.260 . S
C61 C59 1.479 . S
C62 C57 1.245 . S
C62 C58 1.477 . S
C62 H79 0.932 . S
C63 U46 2.882 . S
C63 C57 1.428 . S
C63 O66 1.301 . S
C63 O67 1.282 . S
O64 U46 2.441 . S
O64 C50 1.249 . S
O65 U46 2.420 . S
O65 C50 1.202 . S
O66 U46 2.455 . S
O66 C63 1.301 . S
O67 U46 2.449 . S
O67 C63 1.282 . S
H68 C41 0.931 . S
H69 C43 0.929 . S
H70 C44 0.930 . S
H71 C45 0.931 . S
H72 C52 0.932 . S
H73 C53 0.930 . S
H74 C54 0.929 . S
H75 C56 0.930 . S
H76 C58 0.932 . S
H77 C59 0.929 . S
H78 C60 0.928 . S
H79 C62 0.932 . S
C80 C81 1.264 . S
C80 C85 1.479 . S
C80 C90 1.465 . S
C81 C80 1.264 . S
C81 C83 1.339 . S
C81 H108 0.931 . S
C82 C83 1.395 . S
C82 C84 1.320 . S
C83 C81 1.339 . S
C83 C82 1.395 . S
C83 H109 0.929 . S
C84 C82 1.320 . S
C84 C85 1.405 . S
C84 H110 0.930 . S
C85 C80 1.479 . S
C85 C84 1.405 . S
C85 H111 0.931 . S
U86 O87 2.454 . S
U86 O88 2.458 . S
U86 C89 2.984 . S
U86 C90 2.847 . S
U86 C103 2.882 . S
U86 O104 2.441 . S
U86 O105 2.420 . S
U86 O106 2.455 . S
U86 O107 2.449 . S
O87 U86 2.454 . S
O87 C89 1.353 . S
O88 U86 2.458 . S
O88 C89 1.286 . S
C89 U86 2.984 . S
C89 O87 1.353 . S
C89 O88 1.286 . S
C89 C91 1.363 . S
C90 C80 1.465 . S
C90 U86 2.847 . S
C90 O104 1.249 . S
C90 O105 1.202 . S
C91 C89 1.363 . S
C91 C93 1.408 . S
C91 C96 1.342 . S
C92 C93 1.310 . S
C92 C95 1.461 . S
C92 H112 0.932 . S
C93 C91 1.408 . S
C93 C92 1.310 . S
C93 H113 0.930 . S
C94 C95 1.474 . S
C94 C96 1.285 . S
C94 H114 0.929 . S
C95 C92 1.461 . S
C95 C94 1.474 . S
C96 C91 1.342 . S
C96 C94 1.285 . S
C96 H115 0.930 . S
C97 C100 1.424 . S
C97 C102 1.245 . S
C97 C103 1.428 . S
C98 C101 1.260 . S
C98 C102 1.477 . S
C98 H116 0.932 . S
C99 C100 1.384 . S
C99 C101 1.479 . S
C99 H117 0.929 . S
C100 C97 1.424 . S
C100 C99 1.384 . S
C100 H118 0.928 . S
C101 C98 1.260 . S
C101 C99 1.479 . S
C102 C97 1.245 . S
C102 C98 1.477 . S
C102 H119 0.932 . S
C103 U86 2.882 . S
C103 C97 1.428 . S
C103 O106 1.301 . S
C103 O107 1.282 . S
O104 U86 2.441 . S
O104 C90 1.249 . S
O105 U86 2.420 . S
O105 C90 1.202 . S
O106 U86 2.455 . S
O106 C103 1.301 . S
O107 U86 2.449 . S
O107 C103 1.282 . S
H108 C81 0.931 . S
H109 C83 0.929 . S
H110 C84 0.930 . S
H111 C85 0.931 . S
H112 C92 0.932 . S
H113 C93 0.930 . S
H114 C94 0.929 . S
H115 C96 0.930 . S
H116 C98 0.932 . S
H117 C99 0.929 . S
H118 C100 0.928 . S
H119 C102 0.932 . S
C120 C121 1.264 . S
C120 C125 1.479 . S
C120 C130 1.465 . S
C121 C120 1.264 . S
C121 C123 1.339 . S
C121 H148 0.931 . S
C122 C123 1.395 . S
C122 C124 1.320 . S
C123 C121 1.339 . S
C123 C122 1.395 . S
C123 H149 0.929 . S
C124 C122 1.320 . S
C124 C125 1.405 . S
C124 H150 0.930 . S
C125 C120 1.479 . S
C125 C124 1.405 . S
C125 H151 0.931 . S
U126 O127 2.454 . S
U126 O128 2.458 . S
U126 C129 2.984 . S
U126 C130 2.847 . S
U126 C143 2.882 . S
U126 O144 2.441 . S
U126 O145 2.420 . S
U126 O146 2.455 . S
U126 O147 2.449 . S
O127 U126 2.454 . S
O127 C129 1.353 . S
O128 U126 2.458 . S
O128 C129 1.286 . S
C129 U126 2.984 . S
C129 O127 1.353 . S
C129 O128 1.286 . S
C129 C131 1.363 . S
C130 C120 1.465 . S
C130 U126 2.847 . S
C130 O144 1.249 . S
C130 O145 1.202 . S
C131 C129 1.363 . S
C131 C133 1.408 . S
C131 C136 1.342 . S
C132 C133 1.310 . S
C132 C135 1.461 . S
C132 H152 0.932 . S
C133 C131 1.408 . S
C133 C132 1.310 . S
C133 H153 0.930 . S
C134 C135 1.474 . S
C134 C136 1.285 . S
C134 H154 0.929 . S
C135 C132 1.461 . S
C135 C134 1.474 . S
C136 C131 1.342 . S
C136 C134 1.285 . S
C136 H155 0.930 . S
C137 C140 1.424 . S
C137 C142 1.245 . S
C137 C143 1.428 . S
C138 C141 1.260 . S
C138 C142 1.477 . S
C138 H156 0.932 . S
C139 C140 1.384 . S
C139 C141 1.479 . S
C139 H157 0.929 . S
C140 C137 1.424 . S
C140 C139 1.384 . S
C140 H158 0.928 . S
C141 C138 1.260 . S
C141 C139 1.479 . S
C142 C137 1.245 . S
C142 C138 1.477 . S
C142 H159 0.932 . S
C143 U126 2.882 . S
C143 C137 1.428 . S
C143 O146 1.301 . S
C143 O147 1.282 . S
O144 U126 2.441 . S
O144 C130 1.249 . S
O145 U126 2.420 . S
O145 C130 1.202 . S
O146 U126 2.455 . S
O146 C143 1.301 . S
O147 U126 2.449 . S
O147 C143 1.282 . S
H148 C121 0.931 . S
H149 C123 0.929 . S
H150 C124 0.930 . S
H151 C125 0.931 . S
H152 C132 0.932 . S
H153 C133 0.930 . S
H154 C134 0.929 . S
H155 C136 0.930 . S
H156 C138 0.932 . S
H157 C139 0.929 . S
H158 C140 0.928 . S
H159 C142 0.932 . S
C160 C161 1.264 . S
C160 C165 1.479 . S
C160 C170 1.465 . S
C161 C160 1.264 . S
C161 C163 1.339 . S
C161 H188 0.931 . S
C162 C163 1.395 . S
C162 C164 1.320 . S
C163 C161 1.339 . S
C163 C162 1.395 . S
C163 H189 0.929 . S
C164 C162 1.320 . S
C164 C165 1.405 . S
C164 H190 0.930 . S
C165 C160 1.479 . S
C165 C164 1.405 . S
C165 H191 0.931 . S
U166 O167 2.454 . S
U166 O168 2.458 . S
U166 C169 2.984 . S
U166 C170 2.847 . S
U166 C183 2.882 . S
U166 O184 2.441 . S
U166 O185 2.420 . S
U166 O186 2.455 . S
U166 O187 2.449 . S
O167 U166 2.454 . S
O167 C169 1.353 . S
O168 U166 2.458 . S
O168 C169 1.286 . S
C169 U166 2.984 . S
C169 O167 1.353 . S
C169 O168 1.286 . S
C169 C171 1.363 . S
C170 C160 1.465 . S
C170 U166 2.847 . S
C170 O184 1.249 . S
C170 O185 1.202 . S
C171 C169 1.363 . S
C171 C173 1.408 . S
C171 C176 1.342 . S
C172 C173 1.310 . S
C172 C175 1.461 . S
C172 H192 0.932 . S
C173 C171 1.408 . S
C173 C172 1.310 . S
C173 H193 0.930 . S
C174 C175 1.474 . S
C174 C176 1.285 . S
C174 H194 0.929 . S
C175 C172 1.461 . S
C175 C174 1.474 . S
C176 C171 1.342 . S
C176 C174 1.285 . S
C176 H195 0.930 . S
C177 C180 1.424 . S
C177 C182 1.245 . S
C177 C183 1.428 . S
C178 C181 1.260 . S
C178 C182 1.477 . S
C178 H196 0.932 . S
C179 C180 1.384 . S
C179 C181 1.479 . S
C179 H197 0.929 . S
C180 C177 1.424 . S
C180 C179 1.384 . S
C180 H198 0.928 . S
C181 C178 1.260 . S
C181 C179 1.479 . S
C182 C177 1.245 . S
C182 C178 1.477 . S
C182 H199 0.932 . S
C183 U166 2.882 . S
C183 C177 1.428 . S
C183 O186 1.301 . S
C183 O187 1.282 . S
O184 U166 2.441 . S
O184 C170 1.249 . S
O185 U166 2.420 . S
O185 C170 1.202 . S
O186 U166 2.455 . S
O186 C183 1.301 . S
O187 U166 2.449 . S
O187 C183 1.282 . S
H188 C161 0.931 . S
H189 C163 0.929 . S
H190 C164 0.930 . S
H191 C165 0.931 . S
H192 C172 0.932 . S
H193 C173 0.930 . S
H194 C174 0.929 . S
H195 C176 0.930 . S
H196 C178 0.932 . S
H197 C179 0.929 . S
H198 C180 0.928 . S
H199 C182 0.932 . S
C200 C201 1.264 . S
C200 C205 1.479 . S
C200 C210 1.465 . S
C201 C200 1.264 . S
C201 C203 1.339 . S
C201 H228 0.931 . S
C202 C203 1.395 . S
C202 C204 1.320 . S
C203 C201 1.339 . S
C203 C202 1.395 . S
C203 H229 0.929 . S
C204 C202 1.320 . S
C204 C205 1.405 . S
C204 H230 0.930 . S
C205 C200 1.479 . S
C205 C204 1.405 . S
C205 H231 0.931 . S
U206 O207 2.454 . S
U206 O208 2.458 . S
U206 C209 2.984 . S
U206 C210 2.847 . S
U206 C223 2.882 . S
U206 O224 2.441 . S
U206 O225 2.420 . S
U206 O226 2.455 . S
U206 O227 2.449 . S
O207 U206 2.454 . S
O207 C209 1.353 . S
O208 U206 2.458 . S
O208 C209 1.286 . S
C209 U206 2.984 . S
C209 O207 1.353 . S
C209 O208 1.286 . S
C209 C211 1.363 . S
C210 C200 1.465 . S
C210 U206 2.847 . S
C210 O224 1.249 . S
C210 O225 1.202 . S
C211 C209 1.363 . S
C211 C213 1.408 . S
C211 C216 1.342 . S
C212 C213 1.310 . S
C212 C215 1.461 . S
C212 H232 0.932 . S
C213 C211 1.408 . S
C213 C212 1.310 . S
C213 H233 0.930 . S
C214 C215 1.474 . S
C214 C216 1.285 . S
C214 H234 0.929 . S
C215 C212 1.461 . S
C215 C214 1.474 . S
C216 C211 1.342 . S
C216 C214 1.285 . S
C216 H235 0.930 . S
C217 C220 1.424 . S
C217 C222 1.245 . S
C217 C223 1.428 . S
C218 C221 1.260 . S
C218 C222 1.477 . S
C218 H236 0.932 . S
C219 C220 1.384 . S
C219 C221 1.479 . S
C219 H237 0.929 . S
C220 C217 1.424 . S
C220 C219 1.384 . S
C220 H238 0.928 . S
C221 C218 1.260 . S
C221 C219 1.479 . S
C222 C217 1.245 . S
C222 C218 1.477 . S
C222 H239 0.932 . S
C223 U206 2.882 . S
C223 C217 1.428 . S
C223 O226 1.301 . S
C223 O227 1.282 . S
O224 U206 2.441 . S
O224 C210 1.249 . S
O225 U206 2.420 . S
O225 C210 1.202 . S
O226 U206 2.455 . S
O226 C223 1.301 . S
O227 U206 2.449 . S
O227 C223 1.282 . S
H228 C201 0.931 . S
H229 C203 0.929 . S
H230 C204 0.930 . S
H231 C205 0.931 . S
H232 C212 0.932 . S
H233 C213 0.930 . S
H234 C214 0.929 . S
H235 C216 0.930 . S
H236 C218 0.932 . S
H237 C219 0.929 . S
H238 C220 0.928 . S
H239 C222 0.932 . S
C240 C241 1.264 . S
C240 C245 1.479 . S
C240 C250 1.465 . S
C241 C240 1.264 . S
C241 C243 1.339 . S
C241 H268 0.931 . S
C242 C243 1.395 . S
C242 C244 1.320 . S
C243 C241 1.339 . S
C243 C242 1.395 . S
C243 H269 0.929 . S
C244 C242 1.320 . S
C244 C245 1.405 . S
C244 H270 0.930 . S
C245 C240 1.479 . S
C245 C244 1.405 . S
C245 H271 0.931 . S
U246 O247 2.454 . S
U246 O248 2.458 . S
U246 C249 2.984 . S
U246 C250 2.847 . S
U246 C263 2.882 . S
U246 O264 2.441 . S
U246 O265 2.420 . S
U246 O266 2.455 . S
U246 O267 2.449 . S
O247 U246 2.454 . S
O247 C249 1.353 . S
O248 U246 2.458 . S
O248 C249 1.286 . S
C249 U246 2.984 . S
C249 O247 1.353 . S
C249 O248 1.286 . S
C249 C251 1.363 . S
C250 C240 1.465 . S
C250 U246 2.847 . S
C250 O264 1.249 . S
C250 O265 1.202 . S
C251 C249 1.363 . S
C251 C253 1.408 . S
C251 C256 1.342 . S
C252 C253 1.310 . S
C252 C255 1.461 . S
C252 H272 0.932 . S
C253 C251 1.408 . S
C253 C252 1.310 . S
C253 H273 0.930 . S
C254 C255 1.474 . S
C254 C256 1.285 . S
C254 H274 0.929 . S
C255 C252 1.461 . S
C255 C254 1.474 . S
C256 C251 1.342 . S
C256 C254 1.285 . S
C256 H275 0.930 . S
C257 C260 1.424 . S
C257 C262 1.245 . S
C257 C263 1.428 . S
C258 C261 1.260 . S
C258 C262 1.477 . S
C258 H276 0.932 . S
C259 C260 1.384 . S
C259 C261 1.479 . S
C259 H277 0.929 . S
C260 C257 1.424 . S
C260 C259 1.384 . S
C260 H278 0.928 . S
C261 C258 1.260 . S
C261 C259 1.479 . S
C262 C257 1.245 . S
C262 C258 1.477 . S
C262 H279 0.932 . S
C263 U246 2.882 . S
C263 C257 1.428 . S
C263 O266 1.301 . S
C263 O267 1.282 . S
O264 U246 2.441 . S
O264 C250 1.249 . S
O265 U246 2.420 . S
O265 C250 1.202 . S
O266 U246 2.455 . S
O266 C263 1.301 . S
O267 U246 2.449 . S
O267 C263 1.282 . S
H268 C241 0.931 . S
H269 C243 0.929 . S
H270 C244 0.930 . S
H271 C245 0.931 . S
H272 C252 0.932 . S
H273 C253 0.930 . S
H274 C254 0.929 . S
H275 C256 0.930 . S
H276 C258 0.932 . S
H277 C259 0.929 . S
H278 C260 0.928 . S
H279 C262 0.932 . S
C280 C281 1.264 . S
C280 C285 1.479 . S
C280 C290 1.465 . S
C281 C280 1.264 . S
C281 C283 1.339 . S
C281 H308 0.931 . S
C282 C283 1.395 . S
C282 C284 1.320 . S
C283 C281 1.339 . S
C283 C282 1.395 . S
C283 H309 0.929 . S
C284 C282 1.320 . S
C284 C285 1.405 . S
C284 H310 0.930 . S
C285 C280 1.479 . S
C285 C284 1.405 . S
C285 H311 0.931 . S
U286 O287 2.454 . S
U286 O288 2.458 . S
U286 C289 2.984 . S
U286 C290 2.847 . S
U286 C303 2.882 . S
U286 O304 2.441 . S
U286 O305 2.420 . S
U286 O306 2.455 . S
U286 O307 2.449 . S
O287 U286 2.454 . S
O287 C289 1.353 . S
O288 U286 2.458 . S
O288 C289 1.286 . S
C289 U286 2.984 . S
C289 O287 1.353 . S
C289 O288 1.286 . S
C289 C291 1.363 . S
C290 C280 1.465 . S
C290 U286 2.847 . S
C290 O304 1.249 . S
C290 O305 1.202 . S
C291 C289 1.363 . S
C291 C293 1.408 . S
C291 C296 1.342 . S
C292 C293 1.310 . S
C292 C295 1.461 . S
C292 H312 0.932 . S
C293 C291 1.408 . S
C293 C292 1.310 . S
C293 H313 0.930 . S
C294 C295 1.474 . S
C294 C296 1.285 . S
C294 H314 0.929 . S
C295 C292 1.461 . S
C295 C294 1.474 . S
C296 C291 1.342 . S
C296 C294 1.285 . S
C296 H315 0.930 . S
C297 C300 1.424 . S
C297 C302 1.245 . S
C297 C303 1.428 . S
C298 C301 1.260 . S
C298 C302 1.477 . S
C298 H316 0.932 . S
C299 C300 1.384 . S
C299 C301 1.479 . S
C299 H317 0.929 . S
C300 C297 1.424 . S
C300 C299 1.384 . S
C300 H318 0.928 . S
C301 C298 1.260 . S
C301 C299 1.479 . S
C302 C297 1.245 . S
C302 C298 1.477 . S
C302 H319 0.932 . S
C303 U286 2.882 . S
C303 C297 1.428 . S
C303 O306 1.301 . S
C303 O307 1.282 . S
O304 U286 2.441 . S
O304 C290 1.249 . S
O305 U286 2.420 . S
O305 C290 1.202 . S
O306 U286 2.455 . S
O306 C303 1.301 . S
O307 U286 2.449 . S
O307 C303 1.282 . S
H308 C281 0.931 . S
H309 C283 0.929 . S
H310 C284 0.930 . S
H311 C285 0.931 . S
H312 C292 0.932 . S
H313 C293 0.930 . S
H314 C294 0.929 . S
H315 C296 0.930 . S
H316 C298 0.932 . S
H317 C299 0.929 . S
H318 C300 0.928 . S
H319 C302 0.932 . S
C320 C321 1.264 . S
C320 C325 1.479 . S
C320 C330 1.465 . S
C321 C320 1.264 . S
C321 C323 1.339 . S
C321 H348 0.931 . S
C322 C323 1.395 . S
C322 C324 1.320 . S
C323 C321 1.339 . S
C323 C322 1.395 . S
C323 H349 0.929 . S
C324 C322 1.320 . S
C324 C325 1.405 . S
C324 H350 0.930 . S
C325 C320 1.479 . S
C325 C324 1.405 . S
C325 H351 0.931 . S
U326 O327 2.454 . S
U326 O328 2.458 . S
U326 C329 2.984 . S
U326 C330 2.847 . S
U326 C343 2.882 . S
U326 O344 2.441 . S
U326 O345 2.420 . S
U326 O346 2.455 . S
U326 O347 2.449 . S
O327 U326 2.454 . S
O327 C329 1.353 . S
O328 U326 2.458 . S
O328 C329 1.286 . S
C329 U326 2.984 . S
C329 O327 1.353 . S
C329 O328 1.286 . S
C329 C331 1.363 . S
C330 C320 1.465 . S
C330 U326 2.847 . S
C330 O344 1.249 . S
C330 O345 1.202 . S
C331 C329 1.363 . S
C331 C333 1.408 . S
C331 C336 1.342 . S
C332 C333 1.310 . S
C332 C335 1.461 . S
C332 H352 0.932 . S
C333 C331 1.408 . S
C333 C332 1.310 . S
C333 H353 0.930 . S
C334 C335 1.474 . S
C334 C336 1.285 . S
C334 H354 0.929 . S
C335 C332 1.461 . S
C335 C334 1.474 . S
C336 C331 1.342 . S
C336 C334 1.285 . S
C336 H355 0.930 . S
C337 C340 1.424 . S
C337 C342 1.245 . S
C337 C343 1.428 . S
C338 C341 1.260 . S
C338 C342 1.477 . S
C338 H356 0.932 . S
C339 C340 1.384 . S
C339 C341 1.479 . S
C339 H357 0.929 . S
C340 C337 1.424 . S
C340 C339 1.384 . S
C340 H358 0.928 . S
C341 C338 1.260 . S
C341 C339 1.479 . S
C342 C337 1.245 . S
C342 C338 1.477 . S
C342 H359 0.932 . S
C343 U326 2.882 . S
C343 C337 1.428 . S
C343 O346 1.301 . S
C343 O347 1.282 . S
O344 U326 2.441 . S
O344 C330 1.249 . S
O345 U326 2.420 . S
O345 C330 1.202 . S
O346 U326 2.455 . S
O346 C343 1.301 . S
O347 U326 2.449 . S
O347 C343 1.282 . S
H348 C321 0.931 . S
H349 C323 0.929 . S
H350 C324 0.930 . S
H351 C325 0.931 . S
H352 C332 0.932 . S
H353 C333 0.930 . S
H354 C334 0.929 . S
H355 C336 0.930 . S
H356 C338 0.932 . S
H357 C339 0.929 . S
H358 C340 0.928 . S
H359 C342 0.932 . S
C360 C361 1.264 . S
C360 C365 1.479 . S
C360 C370 1.465 . S
C361 C360 1.264 . S
C361 C363 1.339 . S
C361 H388 0.931 . S
C362 C363 1.395 . S
C362 C364 1.320 . S
C363 C361 1.339 . S
C363 C362 1.395 . S
C363 H389 0.929 . S
C364 C362 1.320 . S
C364 C365 1.405 . S
C364 H390 0.930 . S
C365 C360 1.479 . S
C365 C364 1.405 . S
C365 H391 0.931 . S
U366 O367 2.454 . S
U366 O368 2.458 . S
U366 C369 2.984 . S
U366 C370 2.847 . S
U366 C383 2.882 . S
U366 O384 2.441 . S
U366 O385 2.420 . S
U366 O386 2.455 . S
U366 O387 2.449 . S
O367 U366 2.454 . S
O367 C369 1.353 . S
O368 U366 2.458 . S
O368 C369 1.286 . S
C369 U366 2.984 . S
C369 O367 1.353 . S
C369 O368 1.286 . S
C369 C371 1.363 . S
C370 C360 1.465 . S
C370 U366 2.847 . S
C370 O384 1.249 . S
C370 O385 1.202 . S
C371 C369 1.363 . S
C371 C373 1.408 . S
C371 C376 1.342 . S
C372 C373 1.310 . S
C372 C375 1.461 . S
C372 H392 0.932 . S
C373 C371 1.408 . S
C373 C372 1.310 . S
C373 H393 0.930 . S
C374 C375 1.474 . S
C374 C376 1.285 . S
C374 H394 0.929 . S
C375 C372 1.461 . S
C375 C374 1.474 . S
C376 C371 1.342 . S
C376 C374 1.285 . S
C376 H395 0.930 . S
C377 C380 1.424 . S
C377 C382 1.245 . S
C377 C383 1.428 . S
C378 C381 1.260 . S
C378 C382 1.477 . S
C378 H396 0.932 . S
C379 C380 1.384 . S
C379 C381 1.479 . S
C379 H397 0.929 . S
C380 C377 1.424 . S
C380 C379 1.384 . S
C380 H398 0.928 . S
C381 C378 1.260 . S
C381 C379 1.479 . S
C382 C377 1.245 . S
C382 C378 1.477 . S
C382 H399 0.932 . S
C383 U366 2.882 . S
C383 C377 1.428 . S
C383 O386 1.301 . S
C383 O387 1.282 . S
O384 U366 2.441 . S
O384 C370 1.249 . S
O385 U366 2.420 . S
O385 C370 1.202 . S
O386 U366 2.455 . S
O386 C383 1.301 . S
O387 U366 2.449 . S
O387 C383 1.282 . S
H388 C361 0.931 . S
H389 C363 0.929 . S
H390 C364 0.930 . S
H391 C365 0.931 . S
H392 C372 0.932 . S
H393 C373 0.930 . S
H394 C374 0.929 . S
H395 C376 0.930 . S
H396 C378 0.932 . S
H397 C379 0.929 . S
H398 C380 0.928 . S
H399 C382 0.932 . S
C400 C401 1.264 . S
C400 C405 1.479 . S
C400 C410 1.465 . S
C401 C400 1.264 . S
C401 C403 1.339 . S
C401 H428 0.931 . S
C402 C403 1.395 . S
C402 C404 1.320 . S
C403 C401 1.339 . S
C403 C402 1.395 . S
C403 H429 0.929 . S
C404 C402 1.320 . S
C404 C405 1.405 . S
C404 H430 0.930 . S
C405 C400 1.479 . S
C405 C404 1.405 . S
C405 H431 0.931 . S
U406 O407 2.454 . S
U406 O408 2.458 . S
U406 C409 2.984 . S
U406 C410 2.847 . S
U406 C423 2.882 . S
U406 O424 2.441 . S
U406 O425 2.420 . S
U406 O426 2.455 . S
U406 O427 2.449 . S
O407 U406 2.454 . S
O407 C409 1.353 . S
O408 U406 2.458 . S
O408 C409 1.286 . S
C409 U406 2.984 . S
C409 O407 1.353 . S
C409 O408 1.286 . S
C409 C411 1.363 . S
C410 C400 1.465 . S
C410 U406 2.847 . S
C410 O424 1.249 . S
C410 O425 1.202 . S
C411 C409 1.363 . S
C411 C413 1.408 . S
C411 C416 1.342 . S
C412 C413 1.310 . S
C412 C415 1.461 . S
C412 H432 0.932 . S
C413 C411 1.408 . S
C413 C412 1.310 . S
C413 H433 0.930 . S
C414 C415 1.474 . S
C414 C416 1.285 . S
C414 H434 0.929 . S
C415 C412 1.461 . S
C415 C414 1.474 . S
C416 C411 1.342 . S
C416 C414 1.285 . S
C416 H435 0.930 . S
C417 C420 1.424 . S
C417 C422 1.245 . S
C417 C423 1.428 . S
C418 C421 1.260 . S
C418 C422 1.477 . S
C418 H436 0.932 . S
C419 C420 1.384 . S
C419 C421 1.479 . S
C419 H437 0.929 . S
C420 C417 1.424 . S
C420 C419 1.384 . S
C420 H438 0.928 . S
C421 C418 1.260 . S
C421 C419 1.479 . S
C422 C417 1.245 . S
C422 C418 1.477 . S
C422 H439 0.932 . S
C423 U406 2.882 . S
C423 C417 1.428 . S
C423 O426 1.301 . S
C423 O427 1.282 . S
O424 U406 2.441 . S
O424 C410 1.249 . S
O425 U406 2.420 . S
O425 C410 1.202 . S
O426 U406 2.455 . S
O426 C423 1.301 . S
O427 U406 2.449 . S
O427 C423 1.282 . S
H428 C401 0.931 . S
H429 C403 0.929 . S
H430 C404 0.930 . S
H431 C405 0.931 . S
H432 C412 0.932 . S
H433 C413 0.930 . S
H434 C414 0.929 . S
H435 C416 0.930 . S
H436 C418 0.932 . S
H437 C419 0.929 . S
H438 C420 0.928 . S
H439 C422 0.932 . S
C440 C441 1.264 . S
C440 C445 1.479 . S
C440 C450 1.465 . S
C441 C440 1.264 . S
C441 C443 1.339 . S
C441 H468 0.931 . S
C442 C443 1.395 . S
C442 C444 1.320 . S
C443 C441 1.339 . S
C443 C442 1.395 . S
C443 H469 0.929 . S
C444 C442 1.320 . S
C444 C445 1.405 . S
C444 H470 0.930 . S
C445 C440 1.479 . S
C445 C444 1.405 . S
C445 H471 0.931 . S
U446 O447 2.454 . S
U446 O448 2.458 . S
U446 C449 2.984 . S
U446 C450 2.847 . S
U446 C463 2.882 . S
U446 O464 2.441 . S
U446 O465 2.420 . S
U446 O466 2.455 . S
U446 O467 2.449 . S
O447 U446 2.454 . S
O447 C449 1.353 . S
O448 U446 2.458 . S
O448 C449 1.286 . S
C449 U446 2.984 . S
C449 O447 1.353 . S
C449 O448 1.286 . S
C449 C451 1.363 . S
C450 C440 1.465 . S
C450 U446 2.847 . S
C450 O464 1.249 . S
C450 O465 1.202 . S
C451 C449 1.363 . S
C451 C453 1.408 . S
C451 C456 1.342 . S
C452 C453 1.310 . S
C452 C455 1.461 . S
C452 H472 0.932 . S
C453 C451 1.408 . S
C453 C452 1.310 . S
C453 H473 0.930 . S
C454 C455 1.474 . S
C454 C456 1.285 . S
C454 H474 0.929 . S
C455 C452 1.461 . S
C455 C454 1.474 . S
C456 C451 1.342 . S
C456 C454 1.285 . S
C456 H475 0.930 . S
C457 C460 1.424 . S
C457 C462 1.245 . S
C457 C463 1.428 . S
C458 C461 1.260 . S
C458 C462 1.477 . S
C458 H476 0.932 . S
C459 C460 1.384 . S
C459 C461 1.479 . S
C459 H477 0.929 . S
C460 C457 1.424 . S
C460 C459 1.384 . S
C460 H478 0.928 . S
C461 C458 1.260 . S
C461 C459 1.479 . S
C462 C457 1.245 . S
C462 C458 1.477 . S
C462 H479 0.932 . S
C463 U446 2.882 . S
C463 C457 1.428 . S
C463 O466 1.301 . S
C463 O467 1.282 . S
O464 U446 2.441 . S
O464 C450 1.249 . S
O465 U446 2.420 . S
O465 C450 1.202 . S
O466 U446 2.455 . S
O466 C463 1.301 . S
O467 U446 2.449 . S
O467 C463 1.282 . S
H468 C441 0.931 . S
H469 C443 0.929 . S
H470 C444 0.930 . S
H471 C445 0.931 . S
H472 C452 0.932 . S
H473 C453 0.930 . S
H474 C454 0.929 . S
H475 C456 0.930 . S
H476 C458 0.932 . S
H477 C459 0.929 . S
H478 C460 0.928 . S
H479 C462 0.932 . S
C480 C481 1.264 . S
C480 C485 1.479 . S
C480 C490 1.465 . S
C481 C480 1.264 . S
C481 C483 1.339 . S
C481 H508 0.931 . S
C482 C483 1.395 . S
C482 C484 1.320 . S
C483 C481 1.339 . S
C483 C482 1.395 . S
C483 H509 0.929 . S
C484 C482 1.320 . S
C484 C485 1.405 . S
C484 H510 0.930 . S
C485 C480 1.479 . S
C485 C484 1.405 . S
C485 H511 0.931 . S
U486 O487 2.454 . S
U486 O488 2.458 . S
U486 C489 2.984 . S
U486 C490 2.847 . S
U486 C503 2.882 . S
U486 O504 2.441 . S
U486 O505 2.420 . S
U486 O506 2.455 . S
U486 O507 2.449 . S
O487 U486 2.454 . S
O487 C489 1.353 . S
O488 U486 2.458 . S
O488 C489 1.286 . S
C489 U486 2.984 . S
C489 O487 1.353 . S
C489 O488 1.286 . S
C489 C491 1.363 . S
C490 C480 1.465 . S
C490 U486 2.847 . S
C490 O504 1.249 . S
C490 O505 1.202 . S
C491 C489 1.363 . S
C491 C493 1.408 . S
C491 C496 1.342 . S
C492 C493 1.310 . S
C492 C495 1.461 . S
C492 H512 0.932 . S
C493 C491 1.408 . S
C493 C492 1.310 . S
C493 H513 0.930 . S
C494 C495 1.474 . S
C494 C496 1.285 . S
C494 H514 0.929 . S
C495 C492 1.461 . S
C495 C494 1.474 . S
C496 C491 1.342 . S
C496 C494 1.285 . S
C496 H515 0.930 . S
C497 C500 1.424 . S
C497 C502 1.245 . S
C497 C503 1.428 . S
C498 C501 1.260 . S
C498 C502 1.477 . S
C498 H516 0.932 . S
C499 C500 1.384 . S
C499 C501 1.479 . S
C499 H517 0.929 . S
C500 C497 1.424 . S
C500 C499 1.384 . S
C500 H518 0.928 . S
C501 C498 1.260 . S
C501 C499 1.479 . S
C502 C497 1.245 . S
C502 C498 1.477 . S
C502 H519 0.932 . S
C503 U486 2.882 . S
C503 C497 1.428 . S
C503 O506 1.301 . S
C503 O507 1.282 . S
O504 U486 2.441 . S
O504 C490 1.249 . S
O505 U486 2.420 . S
O505 C490 1.202 . S
O506 U486 2.455 . S
O506 C503 1.301 . S
O507 U486 2.449 . S
O507 C503 1.282 . S
H508 C481 0.931 . S
H509 C483 0.929 . S
H510 C484 0.930 . S
H511 C485 0.931 . S
H512 C492 0.932 . S
H513 C493 0.930 . S
H514 C494 0.929 . S
H515 C496 0.930 . S
H516 C498 0.932 . S
H517 C499 0.929 . S
H518 C500 0.928 . S
H519 C502 0.932 . S
C520 C521 1.264 . S
C520 C525 1.479 . S
C520 C530 1.465 . S
C521 C520 1.264 . S
C521 C523 1.339 . S
C521 H548 0.931 . S
C522 C523 1.395 . S
C522 C524 1.320 . S
C523 C521 1.339 . S
C523 C522 1.395 . S
C523 H549 0.929 . S
C524 C522 1.320 . S
C524 C525 1.405 . S
C524 H550 0.930 . S
C525 C520 1.479 . S
C525 C524 1.405 . S
C525 H551 0.931 . S
U526 O527 2.454 . S
U526 O528 2.458 . S
U526 C529 2.984 . S
U526 C530 2.847 . S
U526 C543 2.882 . S
U526 O544 2.441 . S
U526 O545 2.420 . S
U526 O546 2.455 . S
U526 O547 2.449 . S
O527 U526 2.454 . S
O527 C529 1.353 . S
O528 U526 2.458 . S
O528 C529 1.286 . S
C529 U526 2.984 . S
C529 O527 1.353 . S
C529 O528 1.286 . S
C529 C531 1.363 . S
C530 C520 1.465 . S
C530 U526 2.847 . S
C530 O544 1.249 . S
C530 O545 1.202 . S
C531 C529 1.363 . S
C531 C533 1.408 . S
C531 C536 1.342 . S
C532 C533 1.310 . S
C532 C535 1.461 . S
C532 H552 0.932 . S
C533 C531 1.408 . S
C533 C532 1.310 . S
C533 H553 0.930 . S
C534 C535 1.474 . S
C534 C536 1.285 . S
C534 H554 0.929 . S
C535 C532 1.461 . S
C535 C534 1.474 . S
C536 C531 1.342 . S
C536 C534 1.285 . S
C536 H555 0.930 . S
C537 C540 1.424 . S
C537 C542 1.245 . S
C537 C543 1.428 . S
C538 C541 1.260 . S
C538 C542 1.477 . S
C538 H556 0.932 . S
C539 C540 1.384 . S
C539 C541 1.479 . S
C539 H557 0.929 . S
C540 C537 1.424 . S
C540 C539 1.384 . S
C540 H558 0.928 . S
C541 C538 1.260 . S
C541 C539 1.479 . S
C542 C537 1.245 . S
C542 C538 1.477 . S
C542 H559 0.932 . S
C543 U526 2.882 . S
C543 C537 1.428 . S
C543 O546 1.301 . S
C543 O547 1.282 . S
O544 U526 2.441 . S
O544 C530 1.249 . S
O545 U526 2.420 . S
O545 C530 1.202 . S
O546 U526 2.455 . S
O546 C543 1.301 . S
O547 U526 2.449 . S
O547 C543 1.282 . S
H548 C521 0.931 . S
H549 C523 0.929 . S
H550 C524 0.930 . S
H551 C525 0.931 . S
H552 C532 0.932 . S
H553 C533 0.930 . S
H554 C534 0.929 . S
H555 C536 0.930 . S
H556 C538 0.932 . S
H557 C539 0.929 . S
H558 C540 0.928 . S
H559 C542 0.932 . S
C560 C561 1.264 . S
C560 C565 1.479 . S
C560 C570 1.465 . S
C561 C560 1.264 . S
C561 C563 1.339 . S
C561 H588 0.931 . S
C562 C563 1.395 . S
C562 C564 1.320 . S
C563 C561 1.339 . S
C563 C562 1.395 . S
C563 H589 0.929 . S
C564 C562 1.320 . S
C564 C565 1.405 . S
C564 H590 0.930 . S
C565 C560 1.479 . S
C565 C564 1.405 . S
C565 H591 0.931 . S
U566 O567 2.454 . S
U566 O568 2.458 . S
U566 C569 2.984 . S
U566 C570 2.847 . S
U566 C583 2.882 . S
U566 O584 2.441 . S
U566 O585 2.420 . S
U566 O586 2.455 . S
U566 O587 2.449 . S
O567 U566 2.454 . S
O567 C569 1.353 . S
O568 U566 2.458 . S
O568 C569 1.286 . S
C569 U566 2.984 . S
C569 O567 1.353 . S
C569 O568 1.286 . S
C569 C571 1.363 . S
C570 C560 1.465 . S
C570 U566 2.847 . S
C570 O584 1.249 . S
C570 O585 1.202 . S
C571 C569 1.363 . S
C571 C573 1.408 . S
C571 C576 1.342 . S
C572 C573 1.310 . S
C572 C575 1.461 . S
C572 H592 0.932 . S
C573 C571 1.408 . S
C573 C572 1.310 . S
C573 H593 0.930 . S
C574 C575 1.474 . S
C574 C576 1.285 . S
C574 H594 0.929 . S
C575 C572 1.461 . S
C575 C574 1.474 . S
C576 C571 1.342 . S
C576 C574 1.285 . S
C576 H595 0.930 . S
C577 C580 1.424 . S
C577 C582 1.245 . S
C577 C583 1.428 . S
C578 C581 1.260 . S
C578 C582 1.477 . S
C578 H596 0.932 . S
C579 C580 1.384 . S
C579 C581 1.479 . S
C579 H597 0.929 . S
C580 C577 1.424 . S
C580 C579 1.384 . S
C580 H598 0.928 . S
C581 C578 1.260 . S
C581 C579 1.479 . S
C582 C577 1.245 . S
C582 C578 1.477 . S
C582 H599 0.932 . S
C583 U566 2.882 . S
C583 C577 1.428 . S
C583 O586 1.301 . S
C583 O587 1.282 . S
O584 U566 2.441 . S
O584 C570 1.249 . S
O585 U566 2.420 . S
O585 C570 1.202 . S
O586 U566 2.455 . S
O586 C583 1.301 . S
O587 U566 2.449 . S
O587 C583 1.282 . S
H588 C561 0.931 . S
H589 C563 0.929 . S
H590 C564 0.930 . S
H591 C565 0.931 . S
H592 C572 0.932 . S
H593 C573 0.930 . S
H594 C574 0.929 . S
H595 C576 0.930 . S
H596 C578 0.932 . S
H597 C579 0.929 . S
H598 C580 0.928 . S
H599 C582 0.932 . S
C600 C601 1.264 . S
C600 C605 1.479 . S
C600 C610 1.465 . S
C601 C600 1.264 . S
C601 C603 1.339 . S
C601 H628 0.931 . S
C602 C603 1.395 . S
C602 C604 1.320 . S
C603 C601 1.339 . S
C603 C602 1.395 . S
C603 H629 0.929 . S
C604 C602 1.320 . S
C604 C605 1.405 . S
C604 H630 0.930 . S
C605 C600 1.479 . S
C605 C604 1.405 . S
C605 H631 0.931 . S
U606 O607 2.454 . S
U606 O608 2.458 . S
U606 C609 2.984 . S
U606 C610 2.847 . S
U606 C623 2.882 . S
U606 O624 2.441 . S
U606 O625 2.420 . S
U606 O626 2.455 . S
U606 O627 2.449 . S
O607 U606 2.454 . S
O607 C609 1.353 . S
O608 U606 2.458 . S
O608 C609 1.286 . S
C609 U606 2.984 . S
C609 O607 1.353 . S
C609 O608 1.286 . S
C609 C611 1.363 . S
C610 C600 1.465 . S
C610 U606 2.847 . S
C610 O624 1.249 . S
C610 O625 1.202 . S
C611 C609 1.363 . S
C611 C613 1.408 . S
C611 C616 1.342 . S
C612 C613 1.310 . S
C612 C615 1.461 . S
C612 H632 0.932 . S
C613 C611 1.408 . S
C613 C612 1.310 . S
C613 H633 0.930 . S
C614 C615 1.474 . S
C614 C616 1.285 . S
C614 H634 0.929 . S
C615 C612 1.461 . S
C615 C614 1.474 . S
C616 C611 1.342 . S
C616 C614 1.285 . S
C616 H635 0.930 . S
C617 C620 1.424 . S
C617 C622 1.245 . S
C617 C623 1.428 . S
C618 C621 1.260 . S
C618 C622 1.477 . S
C618 H636 0.932 . S
C619 C620 1.384 . S
C619 C621 1.479 . S
C619 H637 0.929 . S
C620 C617 1.424 . S
C620 C619 1.384 . S
C620 H638 0.928 . S
C621 C618 1.260 . S
C621 C619 1.479 . S
C622 C617 1.245 . S
C622 C618 1.477 . S
C622 H639 0.932 . S
C623 U606 2.882 . S
C623 C617 1.428 . S
C623 O626 1.301 . S
C623 O627 1.282 . S
O624 U606 2.441 . S
O624 C610 1.249 . S
O625 U606 2.420 . S
O625 C610 1.202 . S
O626 U606 2.455 . S
O626 C623 1.301 . S
O627 U606 2.449 . S
O627 C623 1.282 . S
H628 C601 0.931 . S
H629 C603 0.929 . S
H630 C604 0.930 . S
H631 C605 0.931 . S
H632 C612 0.932 . S
H633 C613 0.930 . S
H634 C614 0.929 . S
H635 C616 0.930 . S
H636 C618 0.932 . S
H637 C619 0.929 . S
H638 C620 0.928 . S
H639 C622 0.932 . S
C640 C641 1.264 . S
C640 C645 1.479 . S
C640 C650 1.465 . S
C641 C640 1.264 . S
C641 C643 1.339 . S
C641 H668 0.931 . S
C642 C643 1.395 . S
C642 C644 1.320 . S
C643 C641 1.339 . S
C643 C642 1.395 . S
C643 H669 0.929 . S
C644 C642 1.320 . S
C644 C645 1.405 . S
C644 H670 0.930 . S
C645 C640 1.479 . S
C645 C644 1.405 . S
C645 H671 0.931 . S
U646 O647 2.454 . S
U646 O648 2.458 . S
U646 C649 2.984 . S
U646 C650 2.847 . S
U646 C663 2.882 . S
U646 O664 2.441 . S
U646 O665 2.420 . S
U646 O666 2.455 . S
U646 O667 2.449 . S
O647 U646 2.454 . S
O647 C649 1.353 . S
O648 U646 2.458 . S
O648 C649 1.286 . S
C649 U646 2.984 . S
C649 O647 1.353 . S
C649 O648 1.286 . S
C649 C651 1.363 . S
C650 C640 1.465 . S
C650 U646 2.847 . S
C650 O664 1.249 . S
C650 O665 1.202 . S
C651 C649 1.363 . S
C651 C653 1.408 . S
C651 C656 1.342 . S
C652 C653 1.310 . S
C652 C655 1.461 . S
C652 H672 0.932 . S
C653 C651 1.408 . S
C653 C652 1.310 . S
C653 H673 0.930 . S
C654 C655 1.474 . S
C654 C656 1.285 . S
C654 H674 0.929 . S
C655 C652 1.461 . S
C655 C654 1.474 . S
C656 C651 1.342 . S
C656 C654 1.285 . S
C656 H675 0.930 . S
C657 C660 1.424 . S
C657 C662 1.245 . S
C657 C663 1.428 . S
C658 C661 1.260 . S
C658 C662 1.477 . S
C658 H676 0.932 . S
C659 C660 1.384 . S
C659 C661 1.479 . S
C659 H677 0.929 . S
C660 C657 1.424 . S
C660 C659 1.384 . S
C660 H678 0.928 . S
C661 C658 1.260 . S
C661 C659 1.479 . S
C662 C657 1.245 . S
C662 C658 1.477 . S
C662 H679 0.932 . S
C663 U646 2.882 . S
C663 C657 1.428 . S
C663 O666 1.301 . S
C663 O667 1.282 . S
O664 U646 2.441 . S
O664 C650 1.249 . S
O665 U646 2.420 . S
O665 C650 1.202 . S
O666 U646 2.455 . S
O666 C663 1.301 . S
O667 U646 2.449 . S
O667 C663 1.282 . S
H668 C641 0.931 . S
H669 C643 0.929 . S
H670 C644 0.930 . S
H671 C645 0.931 . S
H672 C652 0.932 . S
H673 C653 0.930 . S
H674 C654 0.929 . S
H675 C656 0.930 . S
H676 C658 0.932 . S
H677 C659 0.929 . S
H678 C660 0.928 . S
H679 C662 0.932 . S
C680 C681 1.264 . S
C680 C685 1.479 . S
C680 C690 1.465 . S
C681 C680 1.264 . S
C681 C683 1.339 . S
C681 H708 0.931 . S
C682 C683 1.395 . S
C682 C684 1.320 . S
C683 C681 1.339 . S
C683 C682 1.395 . S
C683 H709 0.929 . S
C684 C682 1.320 . S
C684 C685 1.405 . S
C684 H710 0.930 . S
C685 C680 1.479 . S
C685 C684 1.405 . S
C685 H711 0.931 . S
U686 O687 2.454 . S
U686 O688 2.458 . S
U686 C689 2.984 . S
U686 C690 2.847 . S
U686 C703 2.882 . S
U686 O704 2.441 . S
U686 O705 2.420 . S
U686 O706 2.455 . S
U686 O707 2.449 . S
O687 U686 2.454 . S
O687 C689 1.353 . S
O688 U686 2.458 . S
O688 C689 1.286 . S
C689 U686 2.984 . S
C689 O687 1.353 . S
C689 O688 1.286 . S
C689 C691 1.363 . S
C690 C680 1.465 . S
C690 U686 2.847 . S
C690 O704 1.249 . S
C690 O705 1.202 . S
C691 C689 1.363 . S
C691 C693 1.408 . S
C691 C696 1.342 . S
C692 C693 1.310 . S
C692 C695 1.461 . S
C692 H712 0.932 . S
C693 C691 1.408 . S
C693 C692 1.310 . S
C693 H713 0.930 . S
C694 C695 1.474 . S
C694 C696 1.285 . S
C694 H714 0.929 . S
C695 C692 1.461 . S
C695 C694 1.474 . S
C696 C691 1.342 . S
C696 C694 1.285 . S
C696 H715 0.930 . S
C697 C700 1.424 . S
C697 C702 1.245 . S
C697 C703 1.428 . S
C698 C701 1.260 . S
C698 C702 1.477 . S
C698 H716 0.932 . S
C699 C700 1.384 . S
C699 C701 1.479 . S
C699 H717 0.929 . S
C700 C697 1.424 . S
C700 C699 1.384 . S
C700 H718 0.928 . S
C701 C698 1.260 . S
C701 C699 1.479 . S
C702 C697 1.245 . S
C702 C698 1.477 . S
C702 H719 0.932 . S
C703 U686 2.882 . S
C703 C697 1.428 . S
C703 O706 1.301 . S
C703 O707 1.282 . S
O704 U686 2.441 . S
O704 C690 1.249 . S
O705 U686 2.420 . S
O705 C690 1.202 . S
O706 U686 2.455 . S
O706 C703 1.301 . S
O707 U686 2.449 . S
O707 C703 1.282 . S
H708 C681 0.931 . S
H709 C683 0.929 . S
H710 C684 0.930 . S
H711 C685 0.931 . S
H712 C692 0.932 . S
H713 C693 0.930 . S
H714 C694 0.929 . S
H715 C696 0.930 . S
H716 C698 0.932 . S
H717 C699 0.929 . S
H718 C700 0.928 . S
H719 C702 0.932 . S
C720 C721 1.264 . S
C720 C725 1.479 . S
C720 C730 1.465 . S
C721 C720 1.264 . S
C721 C723 1.339 . S
C721 H748 0.931 . S
C722 C723 1.395 . S
C722 C724 1.320 . S
C723 C721 1.339 . S
C723 C722 1.395 . S
C723 H749 0.929 . S
C724 C722 1.320 . S
C724 C725 1.405 . S
C724 H750 0.930 . S
C725 C720 1.479 . S
C725 C724 1.405 . S
C725 H751 0.931 . S
U726 O727 2.454 . S
U726 O728 2.458 . S
U726 C729 2.984 . S
U726 C730 2.847 . S
U726 C743 2.882 . S
U726 O744 2.441 . S
U726 O745 2.420 . S
U726 O746 2.455 . S
U726 O747 2.449 . S
O727 U726 2.454 . S
O727 C729 1.353 . S
O728 U726 2.458 . S
O728 C729 1.286 . S
C729 U726 2.984 . S
C729 O727 1.353 . S
C729 O728 1.286 . S
C729 C731 1.363 . S
C730 C720 1.465 . S
C730 U726 2.847 . S
C730 O744 1.249 . S
C730 O745 1.202 . S
C731 C729 1.363 . S
C731 C733 1.408 . S
C731 C736 1.342 . S
C732 C733 1.310 . S
C732 C735 1.461 . S
C732 H752 0.932 . S
C733 C731 1.408 . S
C733 C732 1.310 . S
C733 H753 0.930 . S
C734 C735 1.474 . S
C734 C736 1.285 . S
C734 H754 0.929 . S
C735 C732 1.461 . S
C735 C734 1.474 . S
C736 C731 1.342 . S
C736 C734 1.285 . S
C736 H755 0.930 . S
C737 C740 1.424 . S
C737 C742 1.245 . S
C737 C743 1.428 . S
C738 C741 1.260 . S
C738 C742 1.477 . S
C738 H756 0.932 . S
C739 C740 1.384 . S
C739 C741 1.479 . S
C739 H757 0.929 . S
C740 C737 1.424 . S
C740 C739 1.384 . S
C740 H758 0.928 . S
C741 C738 1.260 . S
C741 C739 1.479 . S
C742 C737 1.245 . S
C742 C738 1.477 . S
C742 H759 0.932 . S
C743 U726 2.882 . S
C743 C737 1.428 . S
C743 O746 1.301 . S
C743 O747 1.282 . S
O744 U726 2.441 . S
O744 C730 1.249 . S
O745 U726 2.420 . S
O745 C730 1.202 . S
O746 U726 2.455 . S
O746 C743 1.301 . S
O747 U726 2.449 . S
O747 C743 1.282 . S
H748 C721 0.931 . S
H749 C723 0.929 . S
H750 C724 0.930 . S
H751 C725 0.931 . S
H752 C732 0.932 . S
H753 C733 0.930 . S
H754 C734 0.929 . S
H755 C736 0.930 . S
H756 C738 0.932 . S
H757 C739 0.929 . S
H758 C740 0.928 . S
H759 C742 0.932 . S
C760 C761 1.264 . S
C760 C765 1.479 . S
C760 C770 1.465 . S
C761 C760 1.264 . S
C761 C763 1.339 . S
C761 H788 0.931 . S
C762 C763 1.395 . S
C762 C764 1.320 . S
C763 C761 1.339 . S
C763 C762 1.395 . S
C763 H789 0.929 . S
C764 C762 1.320 . S
C764 C765 1.405 . S
C764 H790 0.930 . S
C765 C760 1.479 . S
C765 C764 1.405 . S
C765 H791 0.931 . S
U766 O767 2.454 . S
U766 O768 2.458 . S
U766 C769 2.984 . S
U766 C770 2.847 . S
U766 C783 2.882 . S
U766 O784 2.441 . S
U766 O785 2.420 . S
U766 O786 2.455 . S
U766 O787 2.449 . S
O767 U766 2.454 . S
O767 C769 1.353 . S
O768 U766 2.458 . S
O768 C769 1.286 . S
C769 U766 2.984 . S
C769 O767 1.353 . S
C769 O768 1.286 . S
C769 C771 1.363 . S
C770 C760 1.465 . S
C770 U766 2.847 . S
C770 O784 1.249 . S
C770 O785 1.202 . S
C771 C769 1.363 . S
C771 C773 1.408 . S
C771 C776 1.342 . S
C772 C773 1.310 . S
C772 C775 1.461 . S
C772 H792 0.932 . S
C773 C771 1.408 . S
C773 C772 1.310 . S
C773 H793 0.930 . S
C774 C775 1.474 . S
C774 C776 1.285 . S
C774 H794 0.929 . S
C775 C772 1.461 . S
C775 C774 1.474 . S
C776 C771 1.342 . S
C776 C774 1.285 . S
C776 H795 0.930 . S
C777 C780 1.424 . S
C777 C782 1.245 . S
C777 C783 1.428 . S
C778 C781 1.260 . S
C778 C782 1.477 . S
C778 H796 0.932 . S
C779 C780 1.384 . S
C779 C781 1.479 . S
C779 H797 0.929 . S
C780 C777 1.424 . S
C780 C779 1.384 . S
C780 H798 0.928 . S
C781 C778 1.260 . S
C781 C779 1.479 . S
C782 C777 1.245 . S
C782 C778 1.477 . S
C782 H799 0.932 . S
C783 U766 2.882 . S
C783 C777 1.428 . S
C783 O786 1.301 . S
C783 O787 1.282 . S
O784 U766 2.441 . S
O784 C770 1.249 . S
O785 U766 2.420 . S
O785 C770 1.202 . S
O786 U766 2.455 . S
O786 C783 1.301 . S
O787 U766 2.449 . S
O787 C783 1.282 . S
H788 C761 0.931 . S
H789 C763 0.929 . S
H790 C764 0.930 . S
H791 C765 0.931 . S
H792 C772 0.932 . S
H793 C773 0.930 . S
H794 C774 0.929 . S
H795 C776 0.930 . S
H796 C778 0.932 . S
H797 C779 0.929 . S
H798 C780 0.928 . S
H799 C782 0.932 . S
C800 C801 1.264 . S
C800 C805 1.479 . S
C800 C810 1.465 . S
C801 C800 1.264 . S
C801 C803 1.339 . S
C801 H828 0.931 . S
C802 C803 1.395 . S
C802 C804 1.320 . S
C803 C801 1.339 . S
C803 C802 1.395 . S
C803 H829 0.929 . S
C804 C802 1.320 . S
C804 C805 1.405 . S
C804 H830 0.930 . S
C805 C800 1.479 . S
C805 C804 1.405 . S
C805 H831 0.931 . S
U806 O807 2.454 . S
U806 O808 2.458 . S
U806 C809 2.984 . S
U806 C810 2.847 . S
U806 C823 2.882 . S
U806 O824 2.441 . S
U806 O825 2.420 . S
U806 O826 2.455 . S
U806 O827 2.449 . S
O807 U806 2.454 . S
O807 C809 1.353 . S
O808 U806 2.458 . S
O808 C809 1.286 . S
C809 U806 2.984 . S
C809 O807 1.353 . S
C809 O808 1.286 . S
C809 C811 1.363 . S
C810 C800 1.465 . S
C810 U806 2.847 . S
C810 O824 1.249 . S
C810 O825 1.202 . S
C811 C809 1.363 . S
C811 C813 1.408 . S
C811 C816 1.342 . S
C812 C813 1.310 . S
C812 C815 1.461 . S
C812 H832 0.932 . S
C813 C811 1.408 . S
C813 C812 1.310 . S
C813 H833 0.930 . S
C814 C815 1.474 . S
C814 C816 1.285 . S
C814 H834 0.929 . S
C815 C812 1.461 . S
C815 C814 1.474 . S
C816 C811 1.342 . S
C816 C814 1.285 . S
C816 H835 0.930 . S
C817 C820 1.424 . S
C817 C822 1.245 . S
C817 C823 1.428 . S
C818 C821 1.260 . S
C818 C822 1.477 . S
C818 H836 0.932 . S
C819 C820 1.384 . S
C819 C821 1.479 . S
C819 H837 0.929 . S
C820 C817 1.424 . S
C820 C819 1.384 . S
C820 H838 0.928 . S
C821 C818 1.260 . S
C821 C819 1.479 . S
C822 C817 1.245 . S
C822 C818 1.477 . S
C822 H839 0.932 . S
C823 U806 2.882 . S
C823 C817 1.428 . S
C823 O826 1.301 . S
C823 O827 1.282 . S
O824 U806 2.441 . S
O824 C810 1.249 . S
O825 U806 2.420 . S
O825 C810 1.202 . S
O826 U806 2.455 . S
O826 C823 1.301 . S
O827 U806 2.449 . S
O827 C823 1.282 . S
H828 C801 0.931 . S
H829 C803 0.929 . S
H830 C804 0.930 . S
H831 C805 0.931 . S
H832 C812 0.932 . S
H833 C813 0.930 . S
H834 C814 0.929 . S
H835 C816 0.930 . S
H836 C818 0.932 . S
H837 C819 0.929 . S
H838 C820 0.928 . S
H839 C822 0.932 . S
C840 C841 1.264 . S
C840 C845 1.479 . S
C840 C850 1.465 . S
C841 C840 1.264 . S
C841 C843 1.339 . S
C841 H868 0.931 . S
C842 C843 1.395 . S
C842 C844 1.320 . S
C843 C841 1.339 . S
C843 C842 1.395 . S
C843 H869 0.929 . S
C844 C842 1.320 . S
C844 C845 1.405 . S
C844 H870 0.930 . S
C845 C840 1.479 . S
C845 C844 1.405 . S
C845 H871 0.931 . S
U846 O847 2.454 . S
U846 O848 2.458 . S
U846 C849 2.984 . S
U846 C850 2.847 . S
U846 C863 2.882 . S
U846 O864 2.441 . S
U846 O865 2.420 . S
U846 O866 2.455 . S
U846 O867 2.449 . S
O847 U846 2.454 . S
O847 C849 1.353 . S
O848 U846 2.458 . S
O848 C849 1.286 . S
C849 U846 2.984 . S
C849 O847 1.353 . S
C849 O848 1.286 . S
C849 C851 1.363 . S
C850 C840 1.465 . S
C850 U846 2.847 . S
C850 O864 1.249 . S
C850 O865 1.202 . S
C851 C849 1.363 . S
C851 C853 1.408 . S
C851 C856 1.342 . S
C852 C853 1.310 . S
C852 C855 1.461 . S
C852 H872 0.932 . S
C853 C851 1.408 . S
C853 C852 1.310 . S
C853 H873 0.930 . S
C854 C855 1.474 . S
C854 C856 1.285 . S
C854 H874 0.929 . S
C855 C852 1.461 . S
C855 C854 1.474 . S
C856 C851 1.342 . S
C856 C854 1.285 . S
C856 H875 0.930 . S
C857 C860 1.424 . S
C857 C862 1.245 . S
C857 C863 1.428 . S
C858 C861 1.260 . S
C858 C862 1.477 . S
C858 H876 0.932 . S
C859 C860 1.384 . S
C859 C861 1.479 . S
C859 H877 0.929 . S
C860 C857 1.424 . S
C860 C859 1.384 . S
C860 H878 0.928 . S
C861 C858 1.260 . S
C861 C859 1.479 . S
C862 C857 1.245 . S
C862 C858 1.477 . S
C862 H879 0.932 . S
C863 U846 2.882 . S
C863 C857 1.428 . S
C863 O866 1.301 . S
C863 O867 1.282 . S
O864 U846 2.441 . S
O864 C850 1.249 . S
O865 U846 2.420 . S
O865 C850 1.202 . S
O866 U846 2.455 . S
O866 C863 1.301 . S
O867 U846 2.449 . S
O867 C863 1.282 . S
H868 C841 0.931 . S
H869 C843 0.929 . S
H870 C844 0.930 . S
H871 C845 0.931 . S
H872 C852 0.932 . S
H873 C853 0.930 . S
H874 C854 0.929 . S
H875 C856 0.930 . S
H876 C858 0.932 . S
H877 C859 0.929 . S
H878 C860 0.928 . S
H879 C862 0.932 . S
C880 C881 1.264 . S
C880 C885 1.479 . S
C880 C890 1.465 . S
C881 C880 1.264 . S
C881 C883 1.339 . S
C881 H908 0.931 . S
C882 C883 1.395 . S
C882 C884 1.320 . S
C883 C881 1.339 . S
C883 C882 1.395 . S
C883 H909 0.929 . S
C884 C882 1.320 . S
C884 C885 1.405 . S
C884 H910 0.930 . S
C885 C880 1.479 . S
C885 C884 1.405 . S
C885 H911 0.931 . S
U886 O887 2.454 . S
U886 O888 2.458 . S
U886 C889 2.984 . S
U886 C890 2.847 . S
U886 C903 2.882 . S
U886 O904 2.441 . S
U886 O905 2.420 . S
U886 O906 2.455 . S
U886 O907 2.449 . S
O887 U886 2.454 . S
O887 C889 1.353 . S
O888 U886 2.458 . S
O888 C889 1.286 . S
C889 U886 2.984 . S
C889 O887 1.353 . S
C889 O888 1.286 . S
C889 C891 1.363 . S
C890 C880 1.465 . S
C890 U886 2.847 . S
C890 O904 1.249 . S
C890 O905 1.202 . S
C891 C889 1.363 . S
C891 C893 1.408 . S
C891 C896 1.342 . S
C892 C893 1.310 . S
C892 C895 1.461 . S
C892 H912 0.932 . S
C893 C891 1.408 . S
C893 C892 1.310 . S
C893 H913 0.930 . S
C894 C895 1.474 . S
C894 C896 1.285 . S
C894 H914 0.929 . S
C895 C892 1.461 . S
C895 C894 1.474 . S
C896 C891 1.342 . S
C896 C894 1.285 . S
C896 H915 0.930 . S
C897 C900 1.424 . S
C897 C902 1.245 . S
C897 C903 1.428 . S
C898 C901 1.260 . S
C898 C902 1.477 . S
C898 H916 0.932 . S
C899 C900 1.384 . S
C899 C901 1.479 . S
C899 H917 0.929 . S
C900 C897 1.424 . S
C900 C899 1.384 . S
C900 H918 0.928 . S
C901 C898 1.260 . S
C901 C899 1.479 . S
C902 C897 1.245 . S
C902 C898 1.477 . S
C902 H919 0.932 . S
C903 U886 2.882 . S
C903 C897 1.428 . S
C903 O906 1.301 . S
C903 O907 1.282 . S
O904 U886 2.441 . S
O904 C890 1.249 . S
O905 U886 2.420 . S
O905 C890 1.202 . S
O906 U886 2.455 . S
O906 C903 1.301 . S
O907 U886 2.449 . S
O907 C903 1.282 . S
H908 C881 0.931 . S
H909 C883 0.929 . S
H910 C884 0.930 . S
H911 C885 0.931 . S
H912 C892 0.932 . S
H913 C893 0.930 . S
H914 C894 0.929 . S
H915 C896 0.930 . S
H916 C898 0.932 . S
H917 C899 0.929 . S
H918 C900 0.928 . S
H919 C902 0.932 . S
C920 C921 1.264 . S
C920 C925 1.479 . S
C920 C930 1.465 . S
C921 C920 1.264 . S
C921 C923 1.339 . S
C921 H948 0.931 . S
C922 C923 1.395 . S
C922 C924 1.320 . S
C923 C921 1.339 . S
C923 C922 1.395 . S
C923 H949 0.929 . S
C924 C922 1.320 . S
C924 C925 1.405 . S
C924 H950 0.930 . S
C925 C920 1.479 . S
C925 C924 1.405 . S
C925 H951 0.931 . S
U926 O927 2.454 . S
U926 O928 2.458 . S
U926 C929 2.984 . S
U926 C930 2.847 . S
U926 C943 2.882 . S
U926 O944 2.441 . S
U926 O945 2.420 . S
U926 O946 2.455 . S
U926 O947 2.449 . S
O927 U926 2.454 . S
O927 C929 1.353 . S
O928 U926 2.458 . S
O928 C929 1.286 . S
C929 U926 2.984 . S
C929 O927 1.353 . S
C929 O928 1.286 . S
C929 C931 1.363 . S
C930 C920 1.465 . S
C930 U926 2.847 . S
C930 O944 1.249 . S
C930 O945 1.202 . S
C931 C929 1.363 . S
C931 C933 1.408 . S
C931 C936 1.342 . S
C932 C933 1.310 . S
C932 C935 1.461 . S
C932 H952 0.932 . S
C933 C931 1.408 . S
C933 C932 1.310 . S
C933 H953 0.930 . S
C934 C935 1.474 . S
C934 C936 1.285 . S
C934 H954 0.929 . S
C935 C932 1.461 . S
C935 C934 1.474 . S
C936 C931 1.342 . S
C936 C934 1.285 . S
C936 H955 0.930 . S
C937 C940 1.424 . S
C937 C942 1.245 . S
C937 C943 1.428 . S
C938 C941 1.260 . S
C938 C942 1.477 . S
C938 H956 0.932 . S
C939 C940 1.384 . S
C939 C941 1.479 . S
C939 H957 0.929 . S
C940 C937 1.424 . S
C940 C939 1.384 . S
C940 H958 0.928 . S
C941 C938 1.260 . S
C941 C939 1.479 . S
C942 C937 1.245 . S
C942 C938 1.477 . S
C942 H959 0.932 . S
C943 U926 2.882 . S
C943 C937 1.428 . S
C943 O946 1.301 . S
C943 O947 1.282 . S
O944 U926 2.441 . S
O944 C930 1.249 . S
O945 U926 2.420 . S
O945 C930 1.202 . S
O946 U926 2.455 . S
O946 C943 1.301 . S
O947 U926 2.449 . S
O947 C943 1.282 . S
H948 C921 0.931 . S
H949 C923 0.929 . S
H950 C924 0.930 . S
H951 C925 0.931 . S
H952 C932 0.932 . S
H953 C933 0.930 . S
H954 C934 0.929 . S
H955 C936 0.930 . S
H956 C938 0.932 . S
H957 C939 0.929 . S
H958 C940 0.928 . S
H959 C942 0.932 . S
C960 C961 1.264 . S
C960 C965 1.479 . S
C960 C970 1.465 . S
C961 C960 1.264 . S
C961 C963 1.339 . S
C961 H988 0.931 . S
C962 C963 1.395 . S
C962 C964 1.320 . S
C963 C961 1.339 . S
C963 C962 1.395 . S
C963 H989 0.929 . S
C964 C962 1.320 . S
C964 C965 1.405 . S
C964 H990 0.930 . S
C965 C960 1.479 . S
C965 C964 1.405 . S
C965 H991 0.931 . S
U966 O967 2.454 . S
U966 O968 2.458 . S
U966 C969 2.984 . S
U966 C970 2.847 . S
U966 C983 2.882 . S
U966 O984 2.441 . S
U966 O985 2.420 . S
U966 O986 2.455 . S
U966 O987 2.449 . S
O967 U966 2.454 . S
O967 C969 1.353 . S
O968 U966 2.458 . S
O968 C969 1.286 . S
C969 U966 2.984 . S
C969 O967 1.353 . S
C969 O968 1.286 . S
C969 C971 1.363 . S
C970 C960 1.465 . S
C970 U966 2.847 . S
C970 O984 1.249 . S
C970 O985 1.202 . S
C971 C969 1.363 . S
C971 C973 1.408 . S
C971 C976 1.342 . S
C972 C973 1.310 . S
C972 C975 1.461 . S
C972 H992 0.932 . S
C973 C971 1.408 . S
C973 C972 1.310 . S
C973 H993 0.930 . S
C974 C975 1.474 . S
C974 C976 1.285 . S
C974 H994 0.929 . S
C975 C972 1.461 . S
C975 C974 1.474 . S
C976 C971 1.342 . S
C976 C974 1.285 . S
C976 H995 0.930 . S
C977 C980 1.424 . S
C977 C982 1.245 . S
C977 C983 1.428 . S
C978 C981 1.260 . S
C978 C982 1.477 . S
C978 H996 0.932 . S
C979 C980 1.384 . S
C979 C981 1.479 . S
C979 H997 0.929 . S
C980 C977 1.424 . S
C980 C979 1.384 . S
C980 H998 0.928 . S
C981 C978 1.260 . S
C981 C979 1.479 . S
C982 C977 1.245 . S
C982 C978 1.477 . S
C982 H999 0.932 . S
C983 U966 2.882 . S
C983 C977 1.428 . S
C983 O986 1.301 . S
C983 O987 1.282 . S
O984 U966 2.441 . S
O984 C970 1.249 . S
O985 U966 2.420 . S
O985 C970 1.202 . S
O986 U966 2.455 . S
O986 C983 1.301 . S
O987 U966 2.449 . S
O987 C983 1.282 . S
H988 C961 0.931 . S
H989 C963 0.929 . S
H990 C964 0.930 . S
H991 C965 0.931 . S
H992 C972 0.932 . S
H993 C973 0.930 . S
H994 C974 0.929 . S
H995 C976 0.930 . S
H996 C978 0.932 . S
H997 C979 0.929 . S
H998 C980 0.928 . S
H999 C982 0.932 . S
C1000 C1001 1.264 . S
C1000 C1005 1.479 . S
C1000 C1010 1.465 . S
C1001 C1000 1.264 . S
C1001 C1003 1.339 . S
C1001 H1028 0.931 . S
C1002 C1003 1.395 . S
C1002 C1004 1.320 . S
C1003 C1001 1.339 . S
C1003 C1002 1.395 . S
C1003 H1029 0.929 . S
C1004 C1002 1.320 . S
C1004 C1005 1.405 . S
C1004 H1030 0.930 . S
C1005 C1000 1.479 . S
C1005 C1004 1.405 . S
C1005 H1031 0.931 . S
U1006 O1007 2.454 . S
U1006 O1008 2.458 . S
U1006 C1009 2.984 . S
U1006 C1010 2.847 . S
U1006 C1023 2.882 . S
U1006 O1024 2.441 . S
U1006 O1025 2.420 . S
U1006 O1026 2.455 . S
U1006 O1027 2.449 . S
O1007 U1006 2.454 . S
O1007 C1009 1.353 . S
O1008 U1006 2.458 . S
O1008 C1009 1.286 . S
C1009 U1006 2.984 . S
C1009 O1007 1.353 . S
C1009 O1008 1.286 . S
C1009 C1011 1.363 . S
C1010 C1000 1.465 . S
C1010 U1006 2.847 . S
C1010 O1024 1.249 . S
C1010 O1025 1.202 . S
C1011 C1009 1.363 . S
C1011 C1013 1.408 . S
C1011 C1016 1.342 . S
C1012 C1013 1.310 . S
C1012 C1015 1.461 . S
C1012 H1032 0.932 . S
C1013 C1011 1.408 . S
C1013 C1012 1.310 . S
C1013 H1033 0.930 . S
C1014 C1015 1.474 . S
C1014 C1016 1.285 . S
C1014 H1034 0.929 . S
C1015 C1012 1.461 . S
C1015 C1014 1.474 . S
C1016 C1011 1.342 . S
C1016 C1014 1.285 . S
C1016 H1035 0.930 . S
C1017 C1020 1.424 . S
C1017 C1022 1.245 . S
C1017 C1023 1.428 . S
C1018 C1021 1.260 . S
C1018 C1022 1.477 . S
C1018 H1036 0.932 . S
C1019 C1020 1.384 . S
C1019 C1021 1.479 . S
C1019 H1037 0.929 . S
C1020 C1017 1.424 . S
C1020 C1019 1.384 . S
C1020 H1038 0.928 . S
C1021 C1018 1.260 . S
C1021 C1019 1.479 . S
C1022 C1017 1.245 . S
C1022 C1018 1.477 . S
C1022 H1039 0.932 . S
C1023 U1006 2.882 . S
C1023 C1017 1.428 . S
C1023 O1026 1.301 . S
C1023 O1027 1.282 . S
O1024 U1006 2.441 . S
O1024 C1010 1.249 . S
O1025 U1006 2.420 . S
O1025 C1010 1.202 . S
O1026 U1006 2.455 . S
O1026 C1023 1.301 . S
O1027 U1006 2.449 . S
O1027 C1023 1.282 . S
H1028 C1001 0.931 . S
H1029 C1003 0.929 . S
H1030 C1004 0.930 . S
H1031 C1005 0.931 . S
H1032 C1012 0.932 . S
H1033 C1013 0.930 . S
H1034 C1014 0.929 . S
H1035 C1016 0.930 . S
H1036 C1018 0.932 . S
H1037 C1019 0.929 . S
H1038 C1020 0.928 . S
H1039 C1022 0.932 . S
C1040 C1041 1.264 . S
C1040 C1045 1.479 . S
C1040 C1050 1.465 . S
C1041 C1040 1.264 . S
C1041 C1043 1.339 . S
C1041 H1068 0.931 . S
C1042 C1043 1.395 . S
C1042 C1044 1.320 . S
C1043 C1041 1.339 . S
C1043 C1042 1.395 . S
C1043 H1069 0.929 . S
C1044 C1042 1.320 . S
C1044 C1045 1.405 . S
C1044 H1070 0.930 . S
C1045 C1040 1.479 . S
C1045 C1044 1.405 . S
C1045 H1071 0.931 . S
U1046 O1047 2.454 . S
U1046 O1048 2.458 . S
U1046 C1049 2.984 . S
U1046 C1050 2.847 . S
U1046 C1063 2.882 . S
U1046 O1064 2.441 . S
U1046 O1065 2.420 . S
U1046 O1066 2.455 . S
U1046 O1067 2.449 . S
O1047 U1046 2.454 . S
O1047 C1049 1.353 . S
O1048 U1046 2.458 . S
O1048 C1049 1.286 . S
C1049 U1046 2.984 . S
C1049 O1047 1.353 . S
C1049 O1048 1.286 . S
C1049 C1051 1.363 . S
C1050 C1040 1.465 . S
C1050 U1046 2.847 . S
C1050 O1064 1.249 . S
C1050 O1065 1.202 . S
C1051 C1049 1.363 . S
C1051 C1053 1.408 . S
C1051 C1056 1.342 . S
C1052 C1053 1.310 . S
C1052 C1055 1.461 . S
C1052 H1072 0.932 . S
C1053 C1051 1.408 . S
C1053 C1052 1.310 . S
C1053 H1073 0.930 . S
C1054 C1055 1.474 . S
C1054 C1056 1.285 . S
C1054 H1074 0.929 . S
C1055 C1052 1.461 . S
C1055 C1054 1.474 . S
C1056 C1051 1.342 . S
C1056 C1054 1.285 . S
C1056 H1075 0.930 . S
C1057 C1060 1.424 . S
C1057 C1062 1.245 . S
C1057 C1063 1.428 . S
C1058 C1061 1.260 . S
C1058 C1062 1.477 . S
C1058 H1076 0.932 . S
C1059 C1060 1.384 . S
C1059 C1061 1.479 . S
C1059 H1077 0.929 . S
C1060 C1057 1.424 . S
C1060 C1059 1.384 . S
C1060 H1078 0.928 . S
C1061 C1058 1.260 . S
C1061 C1059 1.479 . S
C1062 C1057 1.245 . S
C1062 C1058 1.477 . S
C1062 H1079 0.932 . S
C1063 U1046 2.882 . S
C1063 C1057 1.428 . S
C1063 O1066 1.301 . S
C1063 O1067 1.282 . S
O1064 U1046 2.441 . S
O1064 C1050 1.249 . S
O1065 U1046 2.420 . S
O1065 C1050 1.202 . S
O1066 U1046 2.455 . S
O1066 C1063 1.301 . S
O1067 U1046 2.449 . S
O1067 C1063 1.282 . S
H1068 C1041 0.931 . S
H1069 C1043 0.929 . S
H1070 C1044 0.930 . S
H1071 C1045 0.931 . S
H1072 C1052 0.932 . S
H1073 C1053 0.930 . S
H1074 C1054 0.929 . S
H1075 C1056 0.930 . S
H1076 C1058 0.932 . S
H1077 C1059 0.929 . S
H1078 C1060 0.928 . S
H1079 C1062 0.932 . S
C1080 C1081 1.264 . S
C1080 C1085 1.479 . S
C1080 C1090 1.465 . S
C1081 C1080 1.264 . S
C1081 C1083 1.339 . S
C1081 H1108 0.931 . S
C1082 C1083 1.395 . S
C1082 C1084 1.320 . S
C1083 C1081 1.339 . S
C1083 C1082 1.395 . S
C1083 H1109 0.929 . S
C1084 C1082 1.320 . S
C1084 C1085 1.405 . S
C1084 H1110 0.930 . S
C1085 C1080 1.479 . S
C1085 C1084 1.405 . S
C1085 H1111 0.931 . S
U1086 O1087 2.454 . S
U1086 O1088 2.458 . S
U1086 C1089 2.984 . S
U1086 C1090 2.847 . S
U1086 C1103 2.882 . S
U1086 O1104 2.441 . S
U1086 O1105 2.420 . S
U1086 O1106 2.455 . S
U1086 O1107 2.449 . S
O1087 U1086 2.454 . S
O1087 C1089 1.353 . S
O1088 U1086 2.458 . S
O1088 C1089 1.286 . S
C1089 U1086 2.984 . S
C1089 O1087 1.353 . S
C1089 O1088 1.286 . S
C1089 C1091 1.363 . S
C1090 C1080 1.465 . S
C1090 U1086 2.847 . S
C1090 O1104 1.249 . S
C1090 O1105 1.202 . S
C1091 C1089 1.363 . S
C1091 C1093 1.408 . S
C1091 C1096 1.342 . S
C1092 C1093 1.310 . S
C1092 C1095 1.461 . S
C1092 H1112 0.932 . S
C1093 C1091 1.408 . S
C1093 C1092 1.310 . S
C1093 H1113 0.930 . S
C1094 C1095 1.474 . S
C1094 C1096 1.285 . S
C1094 H1114 0.929 . S
C1095 C1092 1.461 . S
C1095 C1094 1.474 . S
C1096 C1091 1.342 . S
C1096 C1094 1.285 . S
C1096 H1115 0.930 . S
C1097 C1100 1.424 . S
C1097 C1102 1.245 . S
C1097 C1103 1.428 . S
C1098 C1101 1.260 . S
C1098 C1102 1.477 . S
C1098 H1116 0.932 . S
C1099 C1100 1.384 . S
C1099 C1101 1.479 . S
C1099 H1117 0.929 . S
C1100 C1097 1.424 . S
C1100 C1099 1.384 . S
C1100 H1118 0.928 . S
C1101 C1098 1.260 . S
C1101 C1099 1.479 . S
C1102 C1097 1.245 . S
C1102 C1098 1.477 . S
C1102 H1119 0.932 . S
C1103 U1086 2.882 . S
C1103 C1097 1.428 . S
C1103 O1106 1.301 . S
C1103 O1107 1.282 . S
O1104 U1086 2.441 . S
O1104 C1090 1.249 . S
O1105 U1086 2.420 . S
O1105 C1090 1.202 . S
O1106 U1086 2.455 . S
O1106 C1103 1.301 . S
O1107 U1086 2.449 . S
O1107 C1103 1.282 . S
H1108 C1081 0.931 . S
H1109 C1083 0.929 . S
H1110 C1084 0.930 . S
H1111 C1085 0.931 . S
H1112 C1092 0.932 . S
H1113 C1093 0.930 . S
H1114 C1094 0.929 . S
H1115 C1096 0.930 . S
H1116 C1098 0.932 . S
H1117 C1099 0.929 . S
H1118 C1100 0.928 . S
H1119 C1102 0.932 . S
C1120 C1121 1.264 . S
C1120 C1125 1.479 . S
C1120 C1130 1.465 . S
C1121 C1120 1.264 . S
C1121 C1123 1.339 . S
C1121 H1148 0.931 . S
C1122 C1123 1.395 . S
C1122 C1124 1.320 . S
C1123 C1121 1.339 . S
C1123 C1122 1.395 . S
C1123 H1149 0.929 . S
C1124 C1122 1.320 . S
C1124 C1125 1.405 . S
C1124 H1150 0.930 . S
C1125 C1120 1.479 . S
C1125 C1124 1.405 . S
C1125 H1151 0.931 . S
U1126 O1127 2.454 . S
U1126 O1128 2.458 . S
U1126 C1129 2.984 . S
U1126 C1130 2.847 . S
U1126 C1143 2.882 . S
U1126 O1144 2.441 . S
U1126 O1145 2.420 . S
U1126 O1146 2.455 . S
U1126 O1147 2.449 . S
O1127 U1126 2.454 . S
O1127 C1129 1.353 . S
O1128 U1126 2.458 . S
O1128 C1129 1.286 . S
C1129 U1126 2.984 . S
C1129 O1127 1.353 . S
C1129 O1128 1.286 . S
C1129 C1131 1.363 . S
C1130 C1120 1.465 . S
C1130 U1126 2.847 . S
C1130 O1144 1.249 . S
C1130 O1145 1.202 . S
C1131 C1129 1.363 . S
C1131 C1133 1.408 . S
C1131 C1136 1.342 . S
C1132 C1133 1.310 . S
C1132 C1135 1.461 . S
C1132 H1152 0.932 . S
C1133 C1131 1.408 . S
C1133 C1132 1.310 . S
C1133 H1153 0.930 . S
C1134 C1135 1.474 . S
C1134 C1136 1.285 . S
C1134 H1154 0.929 . S
C1135 C1132 1.461 . S
C1135 C1134 1.474 . S
C1136 C1131 1.342 . S
C1136 C1134 1.285 . S
C1136 H1155 0.930 . S
C1137 C1140 1.424 . S
C1137 C1142 1.245 . S
C1137 C1143 1.428 . S
C1138 C1141 1.260 . S
C1138 C1142 1.477 . S
C1138 H1156 0.932 . S
C1139 C1140 1.384 . S
C1139 C1141 1.479 . S
C1139 H1157 0.929 . S
C1140 C1137 1.424 . S
C1140 C1139 1.384 . S
C1140 H1158 0.928 . S
C1141 C1138 1.260 . S
C1141 C1139 1.479 . S
C1142 C1137 1.245 . S
C1142 C1138 1.477 . S
C1142 H1159 0.932 . S
C1143 U1126 2.882 . S
C1143 C1137 1.428 . S
C1143 O1146 1.301 . S
C1143 O1147 1.282 . S
O1144 U1126 2.441 . S
O1144 C1130 1.249 . S
O1145 U1126 2.420 . S
O1145 C1130 1.202 . S
O1146 U1126 2.455 . S
O1146 C1143 1.301 . S
O1147 U1126 2.449 . S
O1147 C1143 1.282 . S
H1148 C1121 0.931 . S
H1149 C1123 0.929 . S
H1150 C1124 0.930 . S
H1151 C1125 0.931 . S
H1152 C1132 0.932 . S
H1153 C1133 0.930 . S
H1154 C1134 0.929 . S
H1155 C1136 0.930 . S
H1156 C1138 0.932 . S
H1157 C1139 0.929 . S
H1158 C1140 0.928 . S
H1159 C1142 0.932 . S
C1160 C1161 1.264 . S
C1160 C1165 1.479 . S
C1160 C1170 1.465 . S
C1161 C1160 1.264 . S
C1161 C1163 1.339 . S
C1161 H1188 0.931 . S
C1162 C1163 1.395 . S
C1162 C1164 1.320 . S
C1163 C1161 1.339 . S
C1163 C1162 1.395 . S
C1163 H1189 0.929 . S
C1164 C1162 1.320 . S
C1164 C1165 1.405 . S
C1164 H1190 0.930 . S
C1165 C1160 1.479 . S
C1165 C1164 1.405 . S
C1165 H1191 0.931 . S
U1166 O1167 2.454 . S
U1166 O1168 2.458 . S
U1166 C1169 2.984 . S
U1166 C1170 2.847 . S
U1166 C1183 2.882 . S
U1166 O1184 2.441 . S
U1166 O1185 2.420 . S
U1166 O1186 2.455 . S
U1166 O1187 2.449 . S
O1167 U1166 2.454 . S
O1167 C1169 1.353 . S
O1168 U1166 2.458 . S
O1168 C1169 1.286 . S
C1169 U1166 2.984 . S
C1169 O1167 1.353 . S
C1169 O1168 1.286 . S
C1169 C1171 1.363 . S
C1170 C1160 1.465 . S
C1170 U1166 2.847 . S
C1170 O1184 1.249 . S
C1170 O1185 1.202 . S
C1171 C1169 1.363 . S
C1171 C1173 1.408 . S
C1171 C1176 1.342 . S
C1172 C1173 1.310 . S
C1172 C1175 1.461 . S
C1172 H1192 0.932 . S
C1173 C1171 1.408 . S
C1173 C1172 1.310 . S
C1173 H1193 0.930 . S
C1174 C1175 1.474 . S
C1174 C1176 1.285 . S
C1174 H1194 0.929 . S
C1175 C1172 1.461 . S
C1175 C1174 1.474 . S
C1176 C1171 1.342 . S
C1176 C1174 1.285 . S
C1176 H1195 0.930 . S
C1177 C1180 1.424 . S
C1177 C1182 1.245 . S
C1177 C1183 1.428 . S
C1178 C1181 1.260 . S
C1178 C1182 1.477 . S
C1178 H1196 0.932 . S
C1179 C1180 1.384 . S
C1179 C1181 1.479 . S
C1179 H1197 0.929 . S
C1180 C1177 1.424 . S
C1180 C1179 1.384 . S
C1180 H1198 0.928 . S
C1181 C1178 1.260 . S
C1181 C1179 1.479 . S
C1182 C1177 1.245 . S
C1182 C1178 1.477 . S
C1182 H1199 0.932 . S
C1183 U1166 2.882 . S
C1183 C1177 1.428 . S
C1183 O1186 1.301 . S
C1183 O1187 1.282 . S
O1184 U1166 2.441 . S
O1184 C1170 1.249 . S
O1185 U1166 2.420 . S
O1185 C1170 1.202 . S
O1186 U1166 2.455 . S
O1186 C1183 1.301 . S
O1187 U1166 2.449 . S
O1187 C1183 1.282 . S
H1188 C1161 0.931 . S
H1189 C1163 0.929 . S
H1190 C1164 0.930 . S
H1191 C1165 0.931 . S
H1192 C1172 0.932 . S
H1193 C1173 0.930 . S
H1194 C1174 0.929 . S
H1195 C1176 0.930 . S
H1196 C1178 0.932 . S
H1197 C1179 0.929 . S
H1198 C1180 0.928 . S
H1199 C1182 0.932 . S
C1200 C1201 1.264 . S
C1200 C1205 1.479 . S
C1200 C1210 1.465 . S
C1201 C1200 1.264 . S
C1201 C1203 1.339 . S
C1201 H1228 0.931 . S
C1202 C1203 1.395 . S
C1202 C1204 1.320 . S
C1203 C1201 1.339 . S
C1203 C1202 1.395 . S
C1203 H1229 0.929 . S
C1204 C1202 1.320 . S
C1204 C1205 1.405 . S
C1204 H1230 0.930 . S
C1205 C1200 1.479 . S
C1205 C1204 1.405 . S
C1205 H1231 0.931 . S
U1206 O1207 2.454 . S
U1206 O1208 2.458 . S
U1206 C1209 2.984 . S
U1206 C1210 2.847 . S
U1206 C1223 2.882 . S
U1206 O1224 2.441 . S
U1206 O1225 2.420 . S
U1206 O1226 2.455 . S
U1206 O1227 2.449 . S
O1207 U1206 2.454 . S
O1207 C1209 1.353 . S
O1208 U1206 2.458 . S
O1208 C1209 1.286 . S
C1209 U1206 2.984 . S
C1209 O1207 1.353 . S
C1209 O1208 1.286 . S
C1209 C1211 1.363 . S
C1210 C1200 1.465 . S
C1210 U1206 2.847 . S
C1210 O1224 1.249 . S
C1210 O1225 1.202 . S
C1211 C1209 1.363 . S
C1211 C1213 1.408 . S
C1211 C1216 1.342 . S
C1212 C1213 1.310 . S
C1212 C1215 1.461 . S
C1212 H1232 0.932 . S
C1213 C1211 1.408 . S
C1213 C1212 1.310 . S
C1213 H1233 0.930 . S
C1214 C1215 1.474 . S
C1214 C1216 1.285 . S
C1214 H1234 0.929 . S
C1215 C1212 1.461 . S
C1215 C1214 1.474 . S
C1216 C1211 1.342 . S
C1216 C1214 1.285 . S
C1216 H1235 0.930 . S
C1217 C1220 1.424 . S
C1217 C1222 1.245 . S
C1217 C1223 1.428 . S
C1218 C1221 1.260 . S
C1218 C1222 1.477 . S
C1218 H1236 0.932 . S
C1219 C1220 1.384 . S
C1219 C1221 1.479 . S
C1219 H1237 0.929 . S
C1220 C1217 1.424 . S
C1220 C1219 1.384 . S
C1220 H1238 0.928 . S
C1221 C1218 1.260 . S
C1221 C1219 1.479 . S
C1222 C1217 1.245 . S
C1222 C1218 1.477 . S
C1222 H1239 0.932 . S
C1223 U1206 2.882 . S
C1223 C1217 1.428 . S
C1223 O1226 1.301 . S
C1223 O1227 1.282 . S
O1224 U1206 2.441 . S
O1224 C1210 1.249 . S
O1225 U1206 2.420 . S
O1225 C1210 1.202 . S
O1226 U1206 2.455 . S
O1226 C1223 1.301 . S
O1227 U1206 2.449 . S
O1227 C1223 1.282 . S
H1228 C1201 0.931 . S
H1229 C1203 0.929 . S
H1230 C1204 0.930 . S
H1231 C1205 0.931 . S
H1232 C1212 0.932 . S
H1233 C1213 0.930 . S
H1234 C1214 0.929 . S
H1235 C1216 0.930 . S
H1236 C1218 0.932 . S
H1237 C1219 0.929 . S
H1238 C1220 0.928 . S
H1239 C1222 0.932 . S
C1240 C1241 1.264 . S
C1240 C1245 1.479 . S
C1240 C1250 1.465 . S
C1241 C1240 1.264 . S
C1241 C1243 1.339 . S
C1241 H1268 0.931 . S
C1242 C1243 1.395 . S
C1242 C1244 1.320 . S
C1243 C1241 1.339 . S
C1243 C1242 1.395 . S
C1243 H1269 0.929 . S
C1244 C1242 1.320 . S
C1244 C1245 1.405 . S
C1244 H1270 0.930 . S
C1245 C1240 1.479 . S
C1245 C1244 1.405 . S
C1245 H1271 0.931 . S
U1246 O1247 2.454 . S
U1246 O1248 2.458 . S
U1246 C1249 2.984 . S
U1246 C1250 2.847 . S
U1246 C1263 2.882 . S
U1246 O1264 2.441 . S
U1246 O1265 2.420 . S
U1246 O1266 2.455 . S
U1246 O1267 2.449 . S
O1247 U1246 2.454 . S
O1247 C1249 1.353 . S
O1248 U1246 2.458 . S
O1248 C1249 1.286 . S
C1249 U1246 2.984 . S
C1249 O1247 1.353 . S
C1249 O1248 1.286 . S
C1249 C1251 1.363 . S
C1250 C1240 1.465 . S
C1250 U1246 2.847 . S
C1250 O1264 1.249 . S
C1250 O1265 1.202 . S
C1251 C1249 1.363 . S
C1251 C1253 1.408 . S
C1251 C1256 1.342 . S
C1252 C1253 1.310 . S
C1252 C1255 1.461 . S
C1252 H1272 0.932 . S
C1253 C1251 1.408 . S
C1253 C1252 1.310 . S
C1253 H1273 0.930 . S
C1254 C1255 1.474 . S
C1254 C1256 1.285 . S
C1254 H1274 0.929 . S
C1255 C1252 1.461 . S
C1255 C1254 1.474 . S
C1256 C1251 1.342 . S
C1256 C1254 1.285 . S
C1256 H1275 0.930 . S
C1257 C1260 1.424 . S
C1257 C1262 1.245 . S
C1257 C1263 1.428 . S
C1258 C1261 1.260 . S
C1258 C1262 1.477 . S
C1258 H1276 0.932 . S
C1259 C1260 1.384 . S
C1259 C1261 1.479 . S
C1259 H1277 0.929 . S
C1260 C1257 1.424 . S
C1260 C1259 1.384 . S
C1260 H1278 0.928 . S
C1261 C1258 1.260 . S
C1261 C1259 1.479 . S
C1262 C1257 1.245 . S
C1262 C1258 1.477 . S
C1262 H1279 0.932 . S
C1263 U1246 2.882 . S
C1263 C1257 1.428 . S
C1263 O1266 1.301 . S
C1263 O1267 1.282 . S
O1264 U1246 2.441 . S
O1264 C1250 1.249 . S
O1265 U1246 2.420 . S
O1265 C1250 1.202 . S
O1266 U1246 2.455 . S
O1266 C1263 1.301 . S
O1267 U1246 2.449 . S
O1267 C1263 1.282 . S
H1268 C1241 0.931 . S
H1269 C1243 0.929 . S
H1270 C1244 0.930 . S
H1271 C1245 0.931 . S
H1272 C1252 0.932 . S
H1273 C1253 0.930 . S
H1274 C1254 0.929 . S
H1275 C1256 0.930 . S
H1276 C1258 0.932 . S
H1277 C1259 0.929 . S
H1278 C1260 0.928 . S
H1279 C1262 0.932 . S
C1280 C1281 1.264 . S
C1280 C1285 1.479 . S
C1280 C1290 1.465 . S
C1281 C1280 1.264 . S
C1281 C1283 1.339 . S
C1281 H1308 0.931 . S
C1282 C1283 1.395 . S
C1282 C1284 1.320 . S
C1283 C1281 1.339 . S
C1283 C1282 1.395 . S
C1283 H1309 0.929 . S
C1284 C1282 1.320 . S
C1284 C1285 1.405 . S
C1284 H1310 0.930 . S
C1285 C1280 1.479 . S
C1285 C1284 1.405 . S
C1285 H1311 0.931 . S
U1286 O1287 2.454 . S
U1286 O1288 2.458 . S
U1286 C1289 2.984 . S
U1286 C1290 2.847 . S
U1286 C1303 2.882 . S
U1286 O1304 2.441 . S
U1286 O1305 2.420 . S
U1286 O1306 2.455 . S
U1286 O1307 2.449 . S
O1287 U1286 2.454 . S
O1287 C1289 1.353 . S
O1288 U1286 2.458 . S
O1288 C1289 1.286 . S
C1289 U1286 2.984 . S
C1289 O1287 1.353 . S
C1289 O1288 1.286 . S
C1289 C1291 1.363 . S
C1290 C1280 1.465 . S
C1290 U1286 2.847 . S
C1290 O1304 1.249 . S
C1290 O1305 1.202 . S
C1291 C1289 1.363 . S
C1291 C1293 1.408 . S
C1291 C1296 1.342 . S
C1292 C1293 1.310 . S
C1292 C1295 1.461 . S
C1292 H1312 0.932 . S
C1293 C1291 1.408 . S
C1293 C1292 1.310 . S
C1293 H1313 0.930 . S
C1294 C1295 1.474 . S
C1294 C1296 1.285 . S
C1294 H1314 0.929 . S
C1295 C1292 1.461 . S
C1295 C1294 1.474 . S
C1296 C1291 1.342 . S
C1296 C1294 1.285 . S
C1296 H1315 0.930 . S
C1297 C1300 1.424 . S
C1297 C1302 1.245 . S
C1297 C1303 1.428 . S
C1298 C1301 1.260 . S
C1298 C1302 1.477 . S
C1298 H1316 0.932 . S
C1299 C1300 1.384 . S
C1299 C1301 1.479 . S
C1299 H1317 0.929 . S
C1300 C1297 1.424 . S
C1300 C1299 1.384 . S
C1300 H1318 0.928 . S
C1301 C1298 1.260 . S
C1301 C1299 1.479 . S
C1302 C1297 1.245 . S
C1302 C1298 1.477 . S
C1302 H1319 0.932 . S
C1303 U1286 2.882 . S
C1303 C1297 1.428 . S
C1303 O1306 1.301 . S
C1303 O1307 1.282 . S
O1304 U1286 2.441 . S
O1304 C1290 1.249 . S
O1305 U1286 2.420 . S
O1305 C1290 1.202 . S
O1306 U1286 2.455 . S
O1306 C1303 1.301 . S
O1307 U1286 2.449 . S
O1307 C1303 1.282 . S
H1308 C1281 0.931 . S
H1309 C1283 0.929 . S
H1310 C1284 0.930 . S
H1311 C1285 0.931 . S
H1312 C1292 0.932 . S
H1313 C1293 0.930 . S
H1314 C1294 0.929 . S
H1315 C1296 0.930 . S
H1316 C1298 0.932 . S
H1317 C1299 0.929 . S
H1318 C1300 0.928 . S
H1319 C1302 0.932 . S
C1320 C1321 1.264 . S
C1320 C1325 1.479 . S
C1320 C1330 1.465 . S
C1321 C1320 1.264 . S
C1321 C1323 1.339 . S
C1321 H1348 0.931 . S
C1322 C1323 1.395 . S
C1322 C1324 1.320 . S
C1323 C1321 1.339 . S
C1323 C1322 1.395 . S
C1323 H1349 0.929 . S
C1324 C1322 1.320 . S
C1324 C1325 1.405 . S
C1324 H1350 0.930 . S
C1325 C1320 1.479 . S
C1325 C1324 1.405 . S
C1325 H1351 0.931 . S
U1326 O1327 2.454 . S
U1326 O1328 2.458 . S
U1326 C1329 2.984 . S
U1326 C1330 2.847 . S
U1326 C1343 2.882 . S
U1326 O1344 2.441 . S
U1326 O1345 2.420 . S
U1326 O1346 2.455 . S
U1326 O1347 2.449 . S
O1327 U1326 2.454 . S
O1327 C1329 1.353 . S
O1328 U1326 2.458 . S
O1328 C1329 1.286 . S
C1329 U1326 2.984 . S
C1329 O1327 1.353 . S
C1329 O1328 1.286 . S
C1329 C1331 1.363 . S
C1330 C1320 1.465 . S
C1330 U1326 2.847 . S
C1330 O1344 1.249 . S
C1330 O1345 1.202 . S
C1331 C1329 1.363 . S
C1331 C1333 1.408 . S
C1331 C1336 1.342 . S
C1332 C1333 1.310 . S
C1332 C1335 1.461 . S
C1332 H1352 0.932 . S
C1333 C1331 1.408 . S
C1333 C1332 1.310 . S
C1333 H1353 0.930 . S
C1334 C1335 1.474 . S
C1334 C1336 1.285 . S
C1334 H1354 0.929 . S
C1335 C1332 1.461 . S
C1335 C1334 1.474 . S
C1336 C1331 1.342 . S
C1336 C1334 1.285 . S
C1336 H1355 0.930 . S
C1337 C1340 1.424 . S
C1337 C1342 1.245 . S
C1337 C1343 1.428 . S
C1338 C1341 1.260 . S
C1338 C1342 1.477 . S
C1338 H1356 0.932 . S
C1339 C1340 1.384 . S
C1339 C1341 1.479 . S
C1339 H1357 0.929 . S
C1340 C1337 1.424 . S
C1340 C1339 1.384 . S
C1340 H1358 0.928 . S
C1341 C1338 1.260 . S
C1341 C1339 1.479 . S
C1342 C1337 1.245 . S
C1342 C1338 1.477 . S
C1342 H1359 0.932 . S
C1343 U1326 2.882 . S
C1343 C1337 1.428 . S
C1343 O1346 1.301 . S
C1343 O1347 1.282 . S
O1344 U1326 2.441 . S
O1344 C1330 1.249 . S
O1345 U1326 2.420 . S
O1345 C1330 1.202 . S
O1346 U1326 2.455 . S
O1346 C1343 1.301 . S
O1347 U1326 2.449 . S
O1347 C1343 1.282 . S
H1348 C1321 0.931 . S
H1349 C1323 0.929 . S
H1350 C1324 0.930 . S
H1351 C1325 0.931 . S
H1352 C1332 0.932 . S
H1353 C1333 0.930 . S
H1354 C1334 0.929 . S
H1355 C1336 0.930 . S
H1356 C1338 0.932 . S
H1357 C1339 0.929 . S
H1358 C1340 0.928 . S
H1359 C1342 0.932 . S
C1360 C1361 1.264 . S
C1360 C1365 1.479 . S
C1360 C1370 1.465 . S
C1361 C1360 1.264 . S
C1361 C1363 1.339 . S
C1361 H1388 0.931 . S
C1362 C1363 1.395 . S
C1362 C1364 1.320 . S
C1363 C1361 1.339 . S
C1363 C1362 1.395 . S
C1363 H1389 0.929 . S
C1364 C1362 1.320 . S
C1364 C1365 1.405 . S
C1364 H1390 0.930 . S
C1365 C1360 1.479 . S
C1365 C1364 1.405 . S
C1365 H1391 0.931 . S
U1366 O1367 2.454 . S
U1366 O1368 2.458 . S
U1366 C1369 2.984 . S
U1366 C1370 2.847 . S
U1366 C1383 2.882 . S
U1366 O1384 2.441 . S
U1366 O1385 2.420 . S
U1366 O1386 2.455 . S
U1366 O1387 2.449 . S
O1367 U1366 2.454 . S
O1367 C1369 1.353 . S
O1368 U1366 2.458 . S
O1368 C1369 1.286 . S
C1369 U1366 2.984 . S
C1369 O1367 1.353 . S
C1369 O1368 1.286 . S
C1369 C1371 1.363 . S
C1370 C1360 1.465 . S
C1370 U1366 2.847 . S
C1370 O1384 1.249 . S
C1370 O1385 1.202 . S
C1371 C1369 1.363 . S
C1371 C1373 1.408 . S
C1371 C1376 1.342 . S
C1372 C1373 1.310 . S
C1372 C1375 1.461 . S
C1372 H1392 0.932 . S
C1373 C1371 1.408 . S
C1373 C1372 1.310 . S
C1373 H1393 0.930 . S
C1374 C1375 1.474 . S
C1374 C1376 1.285 . S
C1374 H1394 0.929 . S
C1375 C1372 1.461 . S
C1375 C1374 1.474 . S
C1376 C1371 1.342 . S
C1376 C1374 1.285 . S
C1376 H1395 0.930 . S
C1377 C1380 1.424 . S
C1377 C1382 1.245 . S
C1377 C1383 1.428 . S
C1378 C1381 1.260 . S
C1378 C1382 1.477 . S
C1378 H1396 0.932 . S
C1379 C1380 1.384 . S
C1379 C1381 1.479 . S
C1379 H1397 0.929 . S
C1380 C1377 1.424 . S
C1380 C1379 1.384 . S
C1380 H1398 0.928 . S
C1381 C1378 1.260 . S
C1381 C1379 1.479 . S
C1382 C1377 1.245 . S
C1382 C1378 1.477 . S
C1382 H1399 0.932 . S
C1383 U1366 2.882 . S
C1383 C1377 1.428 . S
C1383 O1386 1.301 . S
C1383 O1387 1.282 . S
O1384 U1366 2.441 . S
O1384 C1370 1.249 . S
O1385 U1366 2.420 . S
O1385 C1370 1.202 . S
O1386 U1366 2.455 . S
O1386 C1383 1.301 . S
O1387 U1366 2.449 . S
O1387 C1383 1.282 . S
H1388 C1361 0.931 . S
H1389 C1363 0.929 . S
H1390 C1364 0.930 . S
H1391 C1365 0.931 . S
H1392 C1372 0.932 . S
H1393 C1373 0.930 . S
H1394 C1374 0.929 . S
H1395 C1376 0.930 . S
H1396 C1378 0.932 . S
H1397 C1379 0.929 . S
H1398 C1380 0.928 . S
H1399 C1382 0.932 . S
C1400 C1401 1.264 . S
C1400 C1405 1.479 . S
C1400 C1410 1.465 . S
C1401 C1400 1.264 . S
C1401 C1403 1.339 . S
C1401 H1428 0.931 . S
C1402 C1403 1.395 . S
C1402 C1404 1.320 . S
C1403 C1401 1.339 . S
C1403 C1402 1.395 . S
C1403 H1429 0.929 . S
C1404 C1402 1.320 . S
C1404 C1405 1.405 . S
C1404 H1430 0.930 . S
C1405 C1400 1.479 . S
C1405 C1404 1.405 . S
C1405 H1431 0.931 . S
U1406 O1407 2.454 . S
U1406 O1408 2.458 . S
U1406 C1409 2.984 . S
U1406 C1410 2.847 . S
U1406 C1423 2.882 . S
U1406 O1424 2.441 . S
U1406 O1425 2.420 . S
U1406 O1426 2.455 . S
U1406 O1427 2.449 . S
O1407 U1406 2.454 . S
O1407 C1409 1.353 . S
O1408 U1406 2.458 . S
O1408 C1409 1.286 . S
C1409 U1406 2.984 . S
C1409 O1407 1.353 . S
C1409 O1408 1.286 . S
C1409 C1411 1.363 . S
C1410 C1400 1.465 . S
C1410 U1406 2.847 . S
C1410 O1424 1.249 . S
C1410 O1425 1.202 . S
C1411 C1409 1.363 . S
C1411 C1413 1.408 . S
C1411 C1416 1.342 . S
C1412 C1413 1.310 . S
C1412 C1415 1.461 . S
C1412 H1432 0.932 . S
C1413 C1411 1.408 . S
C1413 C1412 1.310 . S
C1413 H1433 0.930 . S
C1414 C1415 1.474 . S
C1414 C1416 1.285 . S
C1414 H1434 0.929 . S
C1415 C1412 1.461 . S
C1415 C1414 1.474 . S
C1416 C1411 1.342 . S
C1416 C1414 1.285 . S
C1416 H1435 0.930 . S
C1417 C1420 1.424 . S
C1417 C1422 1.245 . S
C1417 C1423 1.428 . S
C1418 C1421 1.260 . S
C1418 C1422 1.477 . S
C1418 H1436 0.932 . S
C1419 C1420 1.384 . S
C1419 C1421 1.479 . S
C1419 H1437 0.929 . S
C1420 C1417 1.424 . S
C1420 C1419 1.384 . S
C1420 H1438 0.928 . S
C1421 C1418 1.260 . S
C1421 C1419 1.479 . S
C1422 C1417 1.245 . S
C1422 C1418 1.477 . S
C1422 H1439 0.932 . S
C1423 U1406 2.882 . S
C1423 C1417 1.428 . S
C1423 O1426 1.301 . S
C1423 O1427 1.282 . S
O1424 U1406 2.441 . S
O1424 C1410 1.249 . S
O1425 U1406 2.420 . S
O1425 C1410 1.202 . S
O1426 U1406 2.455 . S
O1426 C1423 1.301 . S
O1427 U1406 2.449 . S
O1427 C1423 1.282 . S
H1428 C1401 0.931 . S
H1429 C1403 0.929 . S
H1430 C1404 0.930 . S
H1431 C1405 0.931 . S
H1432 C1412 0.932 . S
H1433 C1413 0.930 . S
H1434 C1414 0.929 . S
H1435 C1416 0.930 . S
H1436 C1418 0.932 . S
H1437 C1419 0.929 . S
H1438 C1420 0.928 . S
H1439 C1422 0.932 . S
C1440 C1441 1.264 . S
C1440 C1445 1.479 . S
C1440 C1450 1.465 . S
C1441 C1440 1.264 . S
C1441 C1443 1.339 . S
C1441 H1468 0.931 . S
C1442 C1443 1.395 . S
C1442 C1444 1.320 . S
C1443 C1441 1.339 . S
C1443 C1442 1.395 . S
C1443 H1469 0.929 . S
C1444 C1442 1.320 . S
C1444 C1445 1.405 . S
C1444 H1470 0.930 . S
C1445 C1440 1.479 . S
C1445 C1444 1.405 . S
C1445 H1471 0.931 . S
U1446 O1447 2.454 . S
U1446 O1448 2.458 . S
U1446 C1449 2.984 . S
U1446 C1450 2.847 . S
U1446 C1463 2.882 . S
U1446 O1464 2.441 . S
U1446 O1465 2.420 . S
U1446 O1466 2.455 . S
U1446 O1467 2.449 . S
O1447 U1446 2.454 . S
O1447 C1449 1.353 . S
O1448 U1446 2.458 . S
O1448 C1449 1.286 . S
C1449 U1446 2.984 . S
C1449 O1447 1.353 . S
C1449 O1448 1.286 . S
C1449 C1451 1.363 . S
C1450 C1440 1.465 . S
C1450 U1446 2.847 . S
C1450 O1464 1.249 . S
C1450 O1465 1.202 . S
C1451 C1449 1.363 . S
C1451 C1453 1.408 . S
C1451 C1456 1.342 . S
C1452 C1453 1.310 . S
C1452 C1455 1.461 . S
C1452 H1472 0.932 . S
C1453 C1451 1.408 . S
C1453 C1452 1.310 . S
C1453 H1473 0.930 . S
C1454 C1455 1.474 . S
C1454 C1456 1.285 . S
C1454 H1474 0.929 . S
C1455 C1452 1.461 . S
C1455 C1454 1.474 . S
C1456 C1451 1.342 . S
C1456 C1454 1.285 . S
C1456 H1475 0.930 . S
C1457 C1460 1.424 . S
C1457 C1462 1.245 . S
C1457 C1463 1.428 . S
C1458 C1461 1.260 . S
C1458 C1462 1.477 . S
C1458 H1476 0.932 . S
C1459 C1460 1.384 . S
C1459 C1461 1.479 . S
C1459 H1477 0.929 . S
C1460 C1457 1.424 . S
C1460 C1459 1.384 . S
C1460 H1478 0.928 . S
C1461 C1458 1.260 . S
C1461 C1459 1.479 . S
C1462 C1457 1.245 . S
C1462 C1458 1.477 . S
C1462 H1479 0.932 . S
C1463 U1446 2.882 . S
C1463 C1457 1.428 . S
C1463 O1466 1.301 . S
C1463 O1467 1.282 . S
O1464 U1446 2.441 . S
O1464 C1450 1.249 . S
O1465 U1446 2.420 . S
O1465 C1450 1.202 . S
O1466 U1446 2.455 . S
O1466 C1463 1.301 . S
O1467 U1446 2.449 . S
O1467 C1463 1.282 . S
H1468 C1441 0.931 . S
H1469 C1443 0.929 . S
H1470 C1444 0.930 . S
H1471 C1445 0.931 . S
H1472 C1452 0.932 . S
H1473 C1453 0.930 . S
H1474 C1454 0.929 . S
H1475 C1456 0.930 . S
H1476 C1458 0.932 . S
H1477 C1459 0.929 . S
H1478 C1460 0.928 . S
H1479 C1462 0.932 . S
C1480 C1481 1.264 . S
C1480 C1485 1.479 . S
C1480 C1490 1.465 . S
C1481 C1480 1.264 . S
C1481 C1483 1.339 . S
C1481 H1508 0.931 . S
C1482 C1483 1.395 . S
C1482 C1484 1.320 . S
C1483 C1481 1.339 . S
C1483 C1482 1.395 . S
C1483 H1509 0.929 . S
C1484 C1482 1.320 . S
C1484 C1485 1.405 . S
C1484 H1510 0.930 . S
C1485 C1480 1.479 . S
C1485 C1484 1.405 . S
C1485 H1511 0.931 . S
U1486 O1487 2.454 . S
U1486 O1488 2.458 . S
U1486 C1489 2.984 . S
U1486 C1490 2.847 . S
U1486 C1503 2.882 . S
U1486 O1504 2.441 . S
U1486 O1505 2.420 . S
U1486 O1506 2.455 . S
U1486 O1507 2.449 . S
O1487 U1486 2.454 . S
O1487 C1489 1.353 . S
O1488 U1486 2.458 . S
O1488 C1489 1.286 . S
C1489 U1486 2.984 . S
C1489 O1487 1.353 . S
C1489 O1488 1.286 . S
C1489 C1491 1.363 . S
C1490 C1480 1.465 . S
C1490 U1486 2.847 . S
C1490 O1504 1.249 . S
C1490 O1505 1.202 . S
C1491 C1489 1.363 . S
C1491 C1493 1.408 . S
C1491 C1496 1.342 . S
C1492 C1493 1.310 . S
C1492 C1495 1.461 . S
C1492 H1512 0.932 . S
C1493 C1491 1.408 . S
C1493 C1492 1.310 . S
C1493 H1513 0.930 . S
C1494 C1495 1.474 . S
C1494 C1496 1.285 . S
C1494 H1514 0.929 . S
C1495 C1492 1.461 . S
C1495 C1494 1.474 . S
C1496 C1491 1.342 . S
C1496 C1494 1.285 . S
C1496 H1515 0.930 . S
C1497 C1500 1.424 . S
C1497 C1502 1.245 . S
C1497 C1503 1.428 . S
C1498 C1501 1.260 . S
C1498 C1502 1.477 . S
C1498 H1516 0.932 . S
C1499 C1500 1.384 . S
C1499 C1501 1.479 . S
C1499 H1517 0.929 . S
C1500 C1497 1.424 . S
C1500 C1499 1.384 . S
C1500 H1518 0.928 . S
C1501 C1498 1.260 . S
C1501 C1499 1.479 . S
C1502 C1497 1.245 . S
C1502 C1498 1.477 . S
C1502 H1519 0.932 . S
C1503 U1486 2.882 . S
C1503 C1497 1.428 . S
C1503 O1506 1.301 . S
C1503 O1507 1.282 . S
O1504 U1486 2.441 . S
O1504 C1490 1.249 . S
O1505 U1486 2.420 . S
O1505 C1490 1.202 . S
O1506 U1486 2.455 . S
O1506 C1503 1.301 . S
O1507 U1486 2.449 . S
O1507 C1503 1.282 . S
H1508 C1481 0.931 . S
H1509 C1483 0.929 . S
H1510 C1484 0.930 . S
H1511 C1485 0.931 . S
H1512 C1492 0.932 . S
H1513 C1493 0.930 . S
H1514 C1494 0.929 . S
H1515 C1496 0.930 . S
H1516 C1498 0.932 . S
H1517 C1499 0.929 . S
H1518 C1500 0.928 . S
H1519 C1502 0.932 . S
C1520 C1521 1.264 . S
C1520 C1525 1.479 . S
C1520 C1530 1.465 . S
C1521 C1520 1.264 . S
C1521 C1523 1.339 . S
C1521 H1548 0.931 . S
C1522 C1523 1.395 . S
C1522 C1524 1.320 . S
C1523 C1521 1.339 . S
C1523 C1522 1.395 . S
C1523 H1549 0.929 . S
C1524 C1522 1.320 . S
C1524 C1525 1.405 . S
C1524 H1550 0.930 . S
C1525 C1520 1.479 . S
C1525 C1524 1.405 . S
C1525 H1551 0.931 . S
U1526 O1527 2.454 . S
U1526 O1528 2.458 . S
U1526 C1529 2.984 . S
U1526 C1530 2.847 . S
U1526 C1543 2.882 . S
U1526 O1544 2.441 . S
U1526 O1545 2.420 . S
U1526 O1546 2.455 . S
U1526 O1547 2.449 . S
O1527 U1526 2.454 . S
O1527 C1529 1.353 . S
O1528 U1526 2.458 . S
O1528 C1529 1.286 . S
C1529 U1526 2.984 . S
C1529 O1527 1.353 . S
C1529 O1528 1.286 . S
C1529 C1531 1.363 . S
C1530 C1520 1.465 . S
C1530 U1526 2.847 . S
C1530 O1544 1.249 . S
C1530 O1545 1.202 . S
C1531 C1529 1.363 . S
C1531 C1533 1.408 . S
C1531 C1536 1.342 . S
C1532 C1533 1.310 . S
C1532 C1535 1.461 . S
C1532 H1552 0.932 . S
C1533 C1531 1.408 . S
C1533 C1532 1.310 . S
C1533 H1553 0.930 . S
C1534 C1535 1.474 . S
C1534 C1536 1.285 . S
C1534 H1554 0.929 . S
C1535 C1532 1.461 . S
C1535 C1534 1.474 . S
C1536 C1531 1.342 . S
C1536 C1534 1.285 . S
C1536 H1555 0.930 . S
C1537 C1540 1.424 . S
C1537 C1542 1.245 . S
C1537 C1543 1.428 . S
C1538 C1541 1.260 . S
C1538 C1542 1.477 . S
C1538 H1556 0.932 . S
C1539 C1540 1.384 . S
C1539 C1541 1.479 . S
C1539 H1557 0.929 . S
C1540 C1537 1.424 . S
C1540 C1539 1.384 . S
C1540 H1558 0.928 . S
C1541 C1538 1.260 . S
C1541 C1539 1.479 . S
C1542 C1537 1.245 . S
C1542 C1538 1.477 . S
C1542 H1559 0.932 . S
C1543 U1526 2.882 . S
C1543 C1537 1.428 . S
C1543 O1546 1.301 . S
C1543 O1547 1.282 . S
O1544 U1526 2.441 . S
O1544 C1530 1.249 . S
O1545 U1526 2.420 . S
O1545 C1530 1.202 . S
O1546 U1526 2.455 . S
O1546 C1543 1.301 . S
O1547 U1526 2.449 . S
O1547 C1543 1.282 . S
H1548 C1521 0.931 . S
H1549 C1523 0.929 . S
H1550 C1524 0.930 . S
H1551 C1525 0.931 . S
H1552 C1532 0.932 . S
H1553 C1533 0.930 . S
H1554 C1534 0.929 . S
H1555 C1536 0.930 . S
H1556 C1538 0.932 . S
H1557 C1539 0.929 . S
H1558 C1540 0.928 . S
H1559 C1542 0.932 . S
C1560 C1561 1.264 . S
C1560 C1565 1.479 . S
C1560 C1570 1.465 . S
C1561 C1560 1.264 . S
C1561 C1563 1.339 . S
C1561 H1588 0.931 . S
C1562 C1563 1.395 . S
C1562 C1564 1.320 . S
C1563 C1561 1.339 . S
C1563 C1562 1.395 . S
C1563 H1589 0.929 . S
C1564 C1562 1.320 . S
C1564 C1565 1.405 . S
C1564 H1590 0.930 . S
C1565 C1560 1.479 . S
C1565 C1564 1.405 . S
C1565 H1591 0.931 . S
U1566 O1567 2.454 . S
U1566 O1568 2.458 . S
U1566 C1569 2.984 . S
U1566 C1570 2.847 . S
U1566 C1583 2.882 . S
U1566 O1584 2.441 . S
U1566 O1585 2.420 . S
U1566 O1586 2.455 . S
U1566 O1587 2.449 . S
O1567 U1566 2.454 . S
O1567 C1569 1.353 . S
O1568 U1566 2.458 . S
O1568 C1569 1.286 . S
C1569 U1566 2.984 . S
C1569 O1567 1.353 . S
C1569 O1568 1.286 . S
C1569 C1571 1.363 . S
C1570 C1560 1.465 . S
C1570 U1566 2.847 . S
C1570 O1584 1.249 . S
C1570 O1585 1.202 . S
C1571 C1569 1.363 . S
C1571 C1573 1.408 . S
C1571 C1576 1.342 . S
C1572 C1573 1.310 . S
C1572 C1575 1.461 . S
C1572 H1592 0.932 . S
C1573 C1571 1.408 . S
C1573 C1572 1.310 . S
C1573 H1593 0.930 . S
C1574 C1575 1.474 . S
C1574 C1576 1.285 . S
C1574 H1594 0.929 . S
C1575 C1572 1.461 . S
C1575 C1574 1.474 . S
C1576 C1571 1.342 . S
C1576 C1574 1.285 . S
C1576 H1595 0.930 . S
C1577 C1580 1.424 . S
C1577 C1582 1.245 . S
C1577 C1583 1.428 . S
C1578 C1581 1.260 . S
C1578 C1582 1.477 . S
C1578 H1596 0.932 . S
C1579 C1580 1.384 . S
C1579 C1581 1.479 . S
C1579 H1597 0.929 . S
C1580 C1577 1.424 . S
C1580 C1579 1.384 . S
C1580 H1598 0.928 . S
C1581 C1578 1.260 . S
C1581 C1579 1.479 . S
C1582 C1577 1.245 . S
C1582 C1578 1.477 . S
C1582 H1599 0.932 . S
C1583 U1566 2.882 . S
C1583 C1577 1.428 . S
C1583 O1586 1.301 . S
C1583 O1587 1.282 . S
O1584 U1566 2.441 . S
O1584 C1570 1.249 . S
O1585 U1566 2.420 . S
O1585 C1570 1.202 . S
O1586 U1566 2.455 . S
O1586 C1583 1.301 . S
O1587 U1566 2.449 . S
O1587 C1583 1.282 . S
H1588 C1561 0.931 . S
H1589 C1563 0.929 . S
H1590 C1564 0.930 . S
H1591 C1565 0.931 . S
H1592 C1572 0.932 . S
H1593 C1573 0.930 . S
H1594 C1574 0.929 . S
H1595 C1576 0.930 . S
H1596 C1578 0.932 . S
H1597 C1579 0.929 . S
H1598 C1580 0.928 . S
H1599 C1582 0.932 . S
C1600 C1601 1.264 . S
C1600 C1605 1.479 . S
C1600 C1610 1.465 . S
C1601 C1600 1.264 . S
C1601 C1603 1.339 . S
C1601 H1628 0.931 . S
C1602 C1603 1.395 . S
C1602 C1604 1.320 . S
C1603 C1601 1.339 . S
C1603 C1602 1.395 . S
C1603 H1629 0.929 . S
C1604 C1602 1.320 . S
C1604 C1605 1.405 . S
C1604 H1630 0.930 . S
C1605 C1600 1.479 . S
C1605 C1604 1.405 . S
C1605 H1631 0.931 . S
U1606 O1607 2.454 . S
U1606 O1608 2.458 . S
U1606 C1609 2.984 . S
U1606 C1610 2.847 . S
U1606 C1623 2.882 . S
U1606 O1624 2.441 . S
U1606 O1625 2.420 . S
U1606 O1626 2.455 . S
U1606 O1627 2.449 . S
O1607 U1606 2.454 . S
O1607 C1609 1.353 . S
O1608 U1606 2.458 . S
O1608 C1609 1.286 . S
C1609 U1606 2.984 . S
C1609 O1607 1.353 . S
C1609 O1608 1.286 . S
C1609 C1611 1.363 . S
C1610 C1600 1.465 . S
C1610 U1606 2.847 . S
C1610 O1624 1.249 . S
C1610 O1625 1.202 . S
C1611 C1609 1.363 . S
C1611 C1613 1.408 . S
C1611 C1616 1.342 . S
C1612 C1613 1.310 . S
C1612 C1615 1.461 . S
C1612 H1632 0.932 . S
C1613 C1611 1.408 . S
C1613 C1612 1.310 . S
C1613 H1633 0.930 . S
C1614 C1615 1.474 . S
C1614 C1616 1.285 . S
C1614 H1634 0.929 . S
C1615 C1612 1.461 . S
C1615 C1614 1.474 . S
C1616 C1611 1.342 . S
C1616 C1614 1.285 . S
C1616 H1635 0.930 . S
C1617 C1620 1.424 . S
C1617 C1622 1.245 . S
C1617 C1623 1.428 . S
C1618 C1621 1.260 . S
C1618 C1622 1.477 . S
C1618 H1636 0.932 . S
C1619 C1620 1.384 . S
C1619 C1621 1.479 . S
C1619 H1637 0.929 . S
C1620 C1617 1.424 . S
C1620 C1619 1.384 . S
C1620 H1638 0.928 . S
C1621 C1618 1.260 . S
C1621 C1619 1.479 . S
C1622 C1617 1.245 . S
C1622 C1618 1.477 . S
C1622 H1639 0.932 . S
C1623 U1606 2.882 . S
C1623 C1617 1.428 . S
C1623 O1626 1.301 . S
C1623 O1627 1.282 . S
O1624 U1606 2.441 . S
O1624 C1610 1.249 . S
O1625 U1606 2.420 . S
O1625 C1610 1.202 . S
O1626 U1606 2.455 . S
O1626 C1623 1.301 . S
O1627 U1606 2.449 . S
O1627 C1623 1.282 . S
H1628 C1601 0.931 . S
H1629 C1603 0.929 . S
H1630 C1604 0.930 . S
H1631 C1605 0.931 . S
H1632 C1612 0.932 . S
H1633 C1613 0.930 . S
H1634 C1614 0.929 . S
H1635 C1616 0.930 . S
H1636 C1618 0.932 . S
H1637 C1619 0.929 . S
H1638 C1620 0.928 . S
H1639 C1622 0.932 . S
C1640 C1641 1.264 . S
C1640 C1645 1.479 . S
C1640 C1650 1.465 . S
C1641 C1640 1.264 . S
C1641 C1643 1.339 . S
C1641 H1668 0.931 . S
C1642 C1643 1.395 . S
C1642 C1644 1.320 . S
C1643 C1641 1.339 . S
C1643 C1642 1.395 . S
C1643 H1669 0.929 . S
C1644 C1642 1.320 . S
C1644 C1645 1.405 . S
C1644 H1670 0.930 . S
C1645 C1640 1.479 . S
C1645 C1644 1.405 . S
C1645 H1671 0.931 . S
U1646 O1647 2.454 . S
U1646 O1648 2.458 . S
U1646 C1649 2.984 . S
U1646 C1650 2.847 . S
U1646 C1663 2.882 . S
U1646 O1664 2.441 . S
U1646 O1665 2.420 . S
U1646 O1666 2.455 . S
U1646 O1667 2.449 . S
O1647 U1646 2.454 . S
O1647 C1649 1.353 . S
O1648 U1646 2.458 . S
O1648 C1649 1.286 . S
C1649 U1646 2.984 . S
C1649 O1647 1.353 . S
C1649 O1648 1.286 . S
C1649 C1651 1.363 . S
C1650 C1640 1.465 . S
C1650 U1646 2.847 . S
C1650 O1664 1.249 . S
C1650 O1665 1.202 . S
C1651 C1649 1.363 . S
C1651 C1653 1.408 . S
C1651 C1656 1.342 . S
C1652 C1653 1.310 . S
C1652 C1655 1.461 . S
C1652 H1672 0.932 . S
C1653 C1651 1.408 . S
C1653 C1652 1.310 . S
C1653 H1673 0.930 . S
C1654 C1655 1.474 . S
C1654 C1656 1.285 . S
C1654 H1674 0.929 . S
C1655 C1652 1.461 . S
C1655 C1654 1.474 . S
C1656 C1651 1.342 . S
C1656 C1654 1.285 . S
C1656 H1675 0.930 . S
C1657 C1660 1.424 . S
C1657 C1662 1.245 . S
C1657 C1663 1.428 . S
C1658 C1661 1.260 . S
C1658 C1662 1.477 . S
C1658 H1676 0.932 . S
C1659 C1660 1.384 . S
C1659 C1661 1.479 . S
C1659 H1677 0.929 . S
C1660 C1657 1.424 . S
C1660 C1659 1.384 . S
C1660 H1678 0.928 . S
C1661 C1658 1.260 . S
C1661 C1659 1.479 . S
C1662 C1657 1.245 . S
C1662 C1658 1.477 . S
C1662 H1679 0.932 . S
C1663 U1646 2.882 . S
C1663 C1657 1.428 . S
C1663 O1666 1.301 . S
C1663 O1667 1.282 . S
O1664 U1646 2.441 . S
O1664 C1650 1.249 . S
O1665 U1646 2.420 . S
O1665 C1650 1.202 . S
O1666 U1646 2.455 . S
O1666 C1663 1.301 . S
O1667 U1646 2.449 . S
O1667 C1663 1.282 . S
H1668 C1641 0.931 . S
H1669 C1643 0.929 . S
H1670 C1644 0.930 . S
H1671 C1645 0.931 . S
H1672 C1652 0.932 . S
H1673 C1653 0.930 . S
H1674 C1654 0.929 . S
H1675 C1656 0.930 . S
H1676 C1658 0.932 . S
H1677 C1659 0.929 . S
H1678 C1660 0.928 . S
H1679 C1662 0.932 . S
C1680 C1681 1.264 . S
C1680 C1685 1.479 . S
C1680 C1690 1.465 . S
C1681 C1680 1.264 . S
C1681 C1683 1.339 . S
C1681 H1708 0.931 . S
C1682 C1683 1.395 . S
C1682 C1684 1.320 . S
C1683 C1681 1.339 . S
C1683 C1682 1.395 . S
C1683 H1709 0.929 . S
C1684 C1682 1.320 . S
C1684 C1685 1.405 . S
C1684 H1710 0.930 . S
C1685 C1680 1.479 . S
C1685 C1684 1.405 . S
C1685 H1711 0.931 . S
U1686 O1687 2.454 . S
U1686 O1688 2.458 . S
U1686 C1689 2.984 . S
U1686 C1690 2.847 . S
U1686 C1703 2.882 . S
U1686 O1704 2.441 . S
U1686 O1705 2.420 . S
U1686 O1706 2.455 . S
U1686 O1707 2.449 . S
O1687 U1686 2.454 . S
O1687 C1689 1.353 . S
O1688 U1686 2.458 . S
O1688 C1689 1.286 . S
C1689 U1686 2.984 . S
C1689 O1687 1.353 . S
C1689 O1688 1.286 . S
C1689 C1691 1.363 . S
C1690 C1680 1.465 . S
C1690 U1686 2.847 . S
C1690 O1704 1.249 . S
C1690 O1705 1.202 . S
C1691 C1689 1.363 . S
C1691 C1693 1.408 . S
C1691 C1696 1.342 . S
C1692 C1693 1.310 . S
C1692 C1695 1.461 . S
C1692 H1712 0.932 . S
C1693 C1691 1.408 . S
C1693 C1692 1.310 . S
C1693 H1713 0.930 . S
C1694 C1695 1.474 . S
C1694 C1696 1.285 . S
C1694 H1714 0.929 . S
C1695 C1692 1.461 . S
C1695 C1694 1.474 . S
C1696 C1691 1.342 . S
C1696 C1694 1.285 . S
C1696 H1715 0.930 . S
C1697 C1700 1.424 . S
C1697 C1702 1.245 . S
C1697 C1703 1.428 . S
C1698 C1701 1.260 . S
C1698 C1702 1.477 . S
C1698 H1716 0.932 . S
C1699 C1700 1.384 . S
C1699 C1701 1.479 . S
C1699 H1717 0.929 . S
C1700 C1697 1.424 . S
C1700 C1699 1.384 . S
C1700 H1718 0.928 . S
C1701 C1698 1.260 . S
C1701 C1699 1.479 . S
C1702 C1697 1.245 . S
C1702 C1698 1.477 . S
C1702 H1719 0.932 . S
C1703 U1686 2.882 . S
C1703 C1697 1.428 . S
C1703 O1706 1.301 . S
C1703 O1707 1.282 . S
O1704 U1686 2.441 . S
O1704 C1690 1.249 . S
O1705 U1686 2.420 . S
O1705 C1690 1.202 . S
O1706 U1686 2.455 . S
O1706 C1703 1.301 . S
O1707 U1686 2.449 . S
O1707 C1703 1.282 . S
H1708 C1681 0.931 . S
H1709 C1683 0.929 . S
H1710 C1684 0.930 . S
H1711 C1685 0.931 . S
H1712 C1692 0.932 . S
H1713 C1693 0.930 . S
H1714 C1694 0.929 . S
H1715 C1696 0.930 . S
H1716 C1698 0.932 . S
H1717 C1699 0.929 . S
H1718 C1700 0.928 . S
H1719 C1702 0.932 . S
C1720 C1721 1.264 . S
C1720 C1725 1.479 . S
C1720 C1730 1.465 . S
C1721 C1720 1.264 . S
C1721 C1723 1.339 . S
C1721 H1748 0.931 . S
C1722 C1723 1.395 . S
C1722 C1724 1.320 . S
C1723 C1721 1.339 . S
C1723 C1722 1.395 . S
C1723 H1749 0.929 . S
C1724 C1722 1.320 . S
C1724 C1725 1.405 . S
C1724 H1750 0.930 . S
C1725 C1720 1.479 . S
C1725 C1724 1.405 . S
C1725 H1751 0.931 . S
U1726 O1727 2.454 . S
U1726 O1728 2.458 . S
U1726 C1729 2.984 . S
U1726 C1730 2.847 . S
U1726 C1743 2.882 . S
U1726 O1744 2.441 . S
U1726 O1745 2.420 . S
U1726 O1746 2.455 . S
U1726 O1747 2.449 . S
O1727 U1726 2.454 . S
O1727 C1729 1.353 . S
O1728 U1726 2.458 . S
O1728 C1729 1.286 . S
C1729 U1726 2.984 . S
C1729 O1727 1.353 . S
C1729 O1728 1.286 . S
C1729 C1731 1.363 . S
C1730 C1720 1.465 . S
C1730 U1726 2.847 . S
C1730 O1744 1.249 . S
C1730 O1745 1.202 . S
C1731 C1729 1.363 . S
C1731 C1733 1.408 . S
C1731 C1736 1.342 . S
C1732 C1733 1.310 . S
C1732 C1735 1.461 . S
C1732 H1752 0.932 . S
C1733 C1731 1.408 . S
C1733 C1732 1.310 . S
C1733 H1753 0.930 . S
C1734 C1735 1.474 . S
C1734 C1736 1.285 . S
C1734 H1754 0.929 . S
C1735 C1732 1.461 . S
C1735 C1734 1.474 . S
C1736 C1731 1.342 . S
C1736 C1734 1.285 . S
C1736 H1755 0.930 . S
C1737 C1740 1.424 . S
C1737 C1742 1.245 . S
C1737 C1743 1.428 . S
C1738 C1741 1.260 . S
C1738 C1742 1.477 . S
C1738 H1756 0.932 . S
C1739 C1740 1.384 . S
C1739 C1741 1.479 . S
C1739 H1757 0.929 . S
C1740 C1737 1.424 . S
C1740 C1739 1.384 . S
C1740 H1758 0.928 . S
C1741 C1738 1.260 . S
C1741 C1739 1.479 . S
C1742 C1737 1.245 . S
C1742 C1738 1.477 . S
C1742 H1759 0.932 . S
C1743 U1726 2.882 . S
C1743 C1737 1.428 . S
C1743 O1746 1.301 . S
C1743 O1747 1.282 . S
O1744 U1726 2.441 . S
O1744 C1730 1.249 . S
O1745 U1726 2.420 . S
O1745 C1730 1.202 . S
O1746 U1726 2.455 . S
O1746 C1743 1.301 . S
O1747 U1726 2.449 . S
O1747 C1743 1.282 . S
H1748 C1721 0.931 . S
H1749 C1723 0.929 . S
H1750 C1724 0.930 . S
H1751 C1725 0.931 . S
H1752 C1732 0.932 . S
H1753 C1733 0.930 . S
H1754 C1734 0.929 . S
H1755 C1736 0.930 . S
H1756 C1738 0.932 . S
H1757 C1739 0.929 . S
H1758 C1740 0.928 . S
H1759 C1742 0.932 . S
C1760 C1761 1.264 . S
C1760 C1765 1.479 . S
C1760 C1770 1.465 . S
C1761 C1760 1.264 . S
C1761 C1763 1.339 . S
C1761 H1788 0.931 . S
C1762 C1763 1.395 . S
C1762 C1764 1.320 . S
C1763 C1761 1.339 . S
C1763 C1762 1.395 . S
C1763 H1789 0.929 . S
C1764 C1762 1.320 . S
C1764 C1765 1.405 . S
C1764 H1790 0.930 . S
C1765 C1760 1.479 . S
C1765 C1764 1.405 . S
C1765 H1791 0.931 . S
U1766 O1767 2.454 . S
U1766 O1768 2.458 . S
U1766 C1769 2.984 . S
U1766 C1770 2.847 . S
U1766 C1783 2.882 . S
U1766 O1784 2.441 . S
U1766 O1785 2.420 . S
U1766 O1786 2.455 . S
U1766 O1787 2.449 . S
O1767 U1766 2.454 . S
O1767 C1769 1.353 . S
O1768 U1766 2.458 . S
O1768 C1769 1.286 . S
C1769 U1766 2.984 . S
C1769 O1767 1.353 . S
C1769 O1768 1.286 . S
C1769 C1771 1.363 . S
C1770 C1760 1.465 . S
C1770 U1766 2.847 . S
C1770 O1784 1.249 . S
C1770 O1785 1.202 . S
C1771 C1769 1.363 . S
C1771 C1773 1.408 . S
C1771 C1776 1.342 . S
C1772 C1773 1.310 . S
C1772 C1775 1.461 . S
C1772 H1792 0.932 . S
C1773 C1771 1.408 . S
C1773 C1772 1.310 . S
C1773 H1793 0.930 . S
C1774 C1775 1.474 . S
C1774 C1776 1.285 . S
C1774 H1794 0.929 . S
C1775 C1772 1.461 . S
C1775 C1774 1.474 . S
C1776 C1771 1.342 . S
C1776 C1774 1.285 . S
C1776 H1795 0.930 . S
C1777 C1780 1.424 . S
C1777 C1782 1.245 . S
C1777 C1783 1.428 . S
C1778 C1781 1.260 . S
C1778 C1782 1.477 . S
C1778 H1796 0.932 . S
C1779 C1780 1.384 . S
C1779 C1781 1.479 . S
C1779 H1797 0.929 . S
C1780 C1777 1.424 . S
C1780 C1779 1.384 . S
C1780 H1798 0.928 . S
C1781 C1778 1.260 . S
C1781 C1779 1.479 . S
C1782 C1777 1.245 . S
C1782 C1778 1.477 . S
C1782 H1799 0.932 . S
C1783 U1766 2.882 . S
C1783 C1777 1.428 . S
C1783 O1786 1.301 . S
C1783 O1787 1.282 . S
O1784 U1766 2.441 . S
O1784 C1770 1.249 . S
O1785 U1766 2.420 . S
O1785 C1770 1.202 . S
O1786 U1766 2.455 . S
O1786 C1783 1.301 . S
O1787 U1766 2.449 . S
O1787 C1783 1.282 . S
H1788 C1761 0.931 . S
H1789 C1763 0.929 . S
H1790 C1764 0.930 . S
H1791 C1765 0.931 . S
H1792 C1772 0.932 . S
H1793 C1773 0.930 . S
H1794 C1774 0.929 . S
H1795 C1776 0.930 . S
H1796 C1778 0.932 . S
H1797 C1779 0.929 . S
H1798 C1780 0.928 . S
H1799 C1782 0.932 . S
C1800 C1801 1.264 . S
C1800 C1805 1.479 . S
C1800 C1810 1.465 . S
C1801 C1800 1.264 . S
C1801 C1803 1.339 . S
C1801 H1828 0.931 . S
C1802 C1803 1.395 . S
C1802 C1804 1.320 . S
C1803 C1801 1.339 . S
C1803 C1802 1.395 . S
C1803 H1829 0.929 . S
C1804 C1802 1.320 . S
C1804 C1805 1.405 . S
C1804 H1830 0.930 . S
C1805 C1800 1.479 . S
C1805 C1804 1.405 . S
C1805 H1831 0.931 . S
U1806 O1807 2.454 . S
U1806 O1808 2.458 . S
U1806 C1809 2.984 . S
U1806 C1810 2.847 . S
U1806 C1823 2.882 . S
U1806 O1824 2.441 . S
U1806 O1825 2.420 . S
U1806 O1826 2.455 . S
U1806 O1827 2.449 . S
O1807 U1806 2.454 . S
O1807 C1809 1.353 . S
O1808 U1806 2.458 . S
O1808 C1809 1.286 . S
C1809 U1806 2.984 . S
C1809 O1807 1.353 . S
C1809 O1808 1.286 . S
C1809 C1811 1.363 . S
C1810 C1800 1.465 . S
C1810 U1806 2.847 . S
C1810 O1824 1.249 . S
C1810 O1825 1.202 . S
C1811 C1809 1.363 . S
C1811 C1813 1.408 . S
C1811 C1816 1.342 . S
C1812 C1813 1.310 . S
C1812 C1815 1.461 . S
C1812 H1832 0.932 . S
C1813 C1811 1.408 . S
C1813 C1812 1.310 . S
C1813 H1833 0.930 . S
C1814 C1815 1.474 . S
C1814 C1816 1.285 . S
C1814 H1834 0.929 . S
C1815 C1812 1.461 . S
C1815 C1814 1.474 . S
C1816 C1811 1.342 . S
C1816 C1814 1.285 . S
C1816 H1835 0.930 . S
C1817 C1820 1.424 . S
C1817 C1822 1.245 . S
C1817 C1823 1.428 . S
C1818 C1821 1.260 . S
C1818 C1822 1.477 . S
C1818 H1836 0.932 . S
C1819 C1820 1.384 . S
C1819 C1821 1.479 . S
C1819 H1837 0.929 . S
C1820 C1817 1.424 . S
C1820 C1819 1.384 . S
C1820 H1838 0.928 . S
C1821 C1818 1.260 . S
C1821 C1819 1.479 . S
C1822 C1817 1.245 . S
C1822 C1818 1.477 . S
C1822 H1839 0.932 . S
C1823 U1806 2.882 . S
C1823 C1817 1.428 . S
C1823 O1826 1.301 . S
C1823 O1827 1.282 . S
O1824 U1806 2.441 . S
O1824 C1810 1.249 . S
O1825 U1806 2.420 . S
O1825 C1810 1.202 . S
O1826 U1806 2.455 . S
O1826 C1823 1.301 . S
O1827 U1806 2.449 . S
O1827 C1823 1.282 . S
H1828 C1801 0.931 . S
H1829 C1803 0.929 . S
H1830 C1804 0.930 . S
H1831 C1805 0.931 . S
H1832 C1812 0.932 . S
H1833 C1813 0.930 . S
H1834 C1814 0.929 . S
H1835 C1816 0.930 . S
H1836 C1818 0.932 . S
H1837 C1819 0.929 . S
H1838 C1820 0.928 . S
H1839 C1822 0.932 . S
C1840 C1841 1.264 . S
C1840 C1845 1.479 . S
C1840 C1850 1.465 . S
C1841 C1840 1.264 . S
C1841 C1843 1.339 . S
C1841 H1868 0.931 . S
C1842 C1843 1.395 . S
C1842 C1844 1.320 . S
C1843 C1841 1.339 . S
C1843 C1842 1.395 . S
C1843 H1869 0.929 . S
C1844 C1842 1.320 . S
C1844 C1845 1.405 . S
C1844 H1870 0.930 . S
C1845 C1840 1.479 . S
C1845 C1844 1.405 . S
C1845 H1871 0.931 . S
U1846 O1847 2.454 . S
U1846 O1848 2.458 . S
U1846 C1849 2.984 . S
U1846 C1850 2.847 . S
U1846 C1863 2.882 . S
U1846 O1864 2.441 . S
U1846 O1865 2.420 . S
U1846 O1866 2.455 . S
U1846 O1867 2.449 . S
O1847 U1846 2.454 . S
O1847 C1849 1.353 . S
O1848 U1846 2.458 . S
O1848 C1849 1.286 . S
C1849 U1846 2.984 . S
C1849 O1847 1.353 . S
C1849 O1848 1.286 . S
C1849 C1851 1.363 . S
C1850 C1840 1.465 . S
C1850 U1846 2.847 . S
C1850 O1864 1.249 . S
C1850 O1865 1.202 . S
C1851 C1849 1.363 . S
C1851 C1853 1.408 . S
C1851 C1856 1.342 . S
C1852 C1853 1.310 . S
C1852 C1855 1.461 . S
C1852 H1872 0.932 . S
C1853 C1851 1.408 . S
C1853 C1852 1.310 . S
C1853 H1873 0.930 . S
C1854 C1855 1.474 . S
C1854 C1856 1.285 . S
C1854 H1874 0.929 . S
C1855 C1852 1.461 . S
C1855 C1854 1.474 . S
C1856 C1851 1.342 . S
C1856 C1854 1.285 . S
C1856 H1875 0.930 . S
C1857 C1860 1.424 . S
C1857 C1862 1.245 . S
C1857 C1863 1.428 . S
C1858 C1861 1.260 . S
C1858 C1862 1.477 . S
C1858 H1876 0.932 . S
C1859 C1860 1.384 . S
C1859 C1861 1.479 . S
C1859 H1877 0.929 . S
C1860 C1857 1.424 . S
C1860 C1859 1.384 . S
C1860 H1878 0.928 . S
C1861 C1858 1.260 . S
C1861 C1859 1.479 . S
C1862 C1857 1.245 . S
C1862 C1858 1.477 . S
C1862 H1879 0.932 . S
C1863 U1846 2.882 . S
C1863 C1857 1.428 . S
C1863 O1866 1.301 . S
C1863 O1867 1.282 . S
O1864 U1846 2.441 . S
O1864 C1850 1.249 . S
O1865 U1846 2.420 . S
O1865 C1850 1.202 . S
O1866 U1846 2.455 . S
O1866 C1863 1.301 . S
O1867 U1846 2.449 . S
O1867 C1863 1.282 . S
H1868 C1841 0.931 . S
H1869 C1843 0.929 . S
H1870 C1844 0.930 . S
H1871 C1845 0.931 . S
H1872 C1852 0.932 . S
H1873 C1853 0.930 . S
H1874 C1854 0.929 . S
H1875 C1856 0.930 . S
H1876 C1858 0.932 . S
H1877 C1859 0.929 . S
H1878 C1860 0.928 . S
H1879 C1862 0.932 . S
C1880 C1881 1.264 . S
C1880 C1885 1.479 . S
C1880 C1890 1.465 . S
C1881 C1880 1.264 . S
C1881 C1883 1.339 . S
C1881 H1908 0.931 . S
C1882 C1883 1.395 . S
C1882 C1884 1.320 . S
C1883 C1881 1.339 . S
C1883 C1882 1.395 . S
C1883 H1909 0.929 . S
C1884 C1882 1.320 . S
C1884 C1885 1.405 . S
C1884 H1910 0.930 . S
C1885 C1880 1.479 . S
C1885 C1884 1.405 . S
C1885 H1911 0.931 . S
U1886 O1887 2.454 . S
U1886 O1888 2.458 . S
U1886 C1889 2.984 . S
U1886 C1890 2.847 . S
U1886 C1903 2.882 . S
U1886 O1904 2.441 . S
U1886 O1905 2.420 . S
U1886 O1906 2.455 . S
U1886 O1907 2.449 . S
O1887 U1886 2.454 . S
O1887 C1889 1.353 . S
O1888 U1886 2.458 . S
O1888 C1889 1.286 . S
C1889 U1886 2.984 . S
C1889 O1887 1.353 . S
C1889 O1888 1.286 . S
C1889 C1891 1.363 . S
C1890 C1880 1.465 . S
C1890 U1886 2.847 . S
C1890 O1904 1.249 . S
C1890 O1905 1.202 . S
C1891 C1889 1.363 . S
C1891 C1893 1.408 . S
C1891 C1896 1.342 . S
C1892 C1893 1.310 . S
C1892 C1895 1.461 . S
C1892 H1912 0.932 . S
C1893 C1891 1.408 . S
C1893 C1892 1.310 . S
C1893 H1913 0.930 . S
C1894 C1895 1.474 . S
C1894 C1896 1.285 . S
C1894 H1914 0.929 . S
C1895 C1892 1.461 . S
C1895 C1894 1.474 . S
C1896 C1891 1.342 . S
C1896 C1894 1.285 . S
C1896 H1915 0.930 . S
C1897 C1900 1.424 . S
C1897 C1902 1.245 . S
C1897 C1903 1.428 . S
C1898 C1901 1.260 . S
C1898 C1902 1.477 . S
C1898 H1916 0.932 . S
C1899 C1900 1.384 . S
C1899 C1901 1.479 . S
C1899 H1917 0.929 . S
C1900 C1897 1.424 . S
C1900 C1899 1.384 . S
C1900 H1918 0.928 . S
C1901 C1898 1.260 . S
C1901 C1899 1.479 . S
C1902 C1897 1.245 . S
C1902 C1898 1.477 . S
C1902 H1919 0.932 . S
C1903 U1886 2.882 . S
C1903 C1897 1.428 . S
C1903 O1906 1.301 . S
C1903 O1907 1.282 . S
O1904 U1886 2.441 . S
O1904 C1890 1.249 . S
O1905 U1886 2.420 . S
O1905 C1890 1.202 . S
O1906 U1886 2.455 . S
O1906 C1903 1.301 . S
O1907 U1886 2.449 . S
O1907 C1903 1.282 . S
H1908 C1881 0.931 . S
H1909 C1883 0.929 . S
H1910 C1884 0.930 . S
H1911 C1885 0.931 . S
H1912 C1892 0.932 . S
H1913 C1893 0.930 . S
H1914 C1894 0.929 . S
H1915 C1896 0.930 . S
H1916 C1898 0.932 . S
H1917 C1899 0.929 . S
H1918 C1900 0.928 . S
H1919 C1902 0.932 . S
C1920 C1921 1.264 . S
C1920 C1925 1.479 . S
C1920 C1930 1.465 . S
C1921 C1920 1.264 . S
C1921 C1923 1.339 . S
C1921 H1948 0.931 . S
C1922 C1923 1.395 . S
C1922 C1924 1.320 . S
C1923 C1921 1.339 . S
C1923 C1922 1.395 . S
C1923 H1949 0.929 . S
C1924 C1922 1.320 . S
C1924 C1925 1.405 . S
C1924 H1950 0.930 . S
C1925 C1920 1.479 . S
C1925 C1924 1.405 . S
C1925 H1951 0.931 . S
U1926 O1927 2.454 . S
U1926 O1928 2.458 . S
U1926 C1929 2.984 . S
U1926 C1930 2.847 . S
U1926 C1943 2.882 . S
U1926 O1944 2.441 . S
U1926 O1945 2.420 . S
U1926 O1946 2.455 . S
U1926 O1947 2.449 . S
O1927 U1926 2.454 . S
O1927 C1929 1.353 . S
O1928 U1926 2.458 . S
O1928 C1929 1.286 . S
C1929 U1926 2.984 . S
C1929 O1927 1.353 . S
C1929 O1928 1.286 . S
C1929 C1931 1.363 . S
C1930 C1920 1.465 . S
C1930 U1926 2.847 . S
C1930 O1944 1.249 . S
C1930 O1945 1.202 . S
C1931 C1929 1.363 . S
C1931 C1933 1.408 . S
C1931 C1936 1.342 . S
C1932 C1933 1.310 . S
C1932 C1935 1.461 . S
C1932 H1952 0.932 . S
C1933 C1931 1.408 . S
C1933 C1932 1.310 . S
C1933 H1953 0.930 . S
C1934 C1935 1.474 . S
C1934 C1936 1.285 . S
C1934 H1954 0.929 . S
C1935 C1932 1.461 . S
C1935 C1934 1.474 . S
C1936 C1931 1.342 . S
C1936 C1934 1.285 . S
C1936 H1955 0.930 . S
C1937 C1940 1.424 . S
C1937 C1942 1.245 . S
C1937 C1943 1.428 . S
C1938 C1941 1.260 . S
C1938 C1942 1.477 . S
C1938 H1956 0.932 . S
C1939 C1940 1.384 . S
C1939 C1941 1.479 . S
C1939 H1957 0.929 . S
C1940 C1937 1.424 . S
C1940 C1939 1.384 . S
C1940 H1958 0.928 . S
C1941 C1938 1.260 . S
C1941 C1939 1.479 . S
C1942 C1937 1.245 . S
C1942 C1938 1.477 . S
C1942 H1959 0.932 . S
C1943 U1926 2.882 . S
C1943 C1937 1.428 . S
C1943 O1946 1.301 . S
C1943 O1947 1.282 . S
O1944 U1926 2.441 . S
O1944 C1930 1.249 . S
O1945 U1926 2.420 . S
O1945 C1930 1.202 . S
O1946 U1926 2.455 . S
O1946 C1943 1.301 . S
O1947 U1926 2.449 . S
O1947 C1943 1.282 . S
H1948 C1921 0.931 . S
H1949 C1923 0.929 . S
H1950 C1924 0.930 . S
H1951 C1925 0.931 . S
H1952 C1932 0.932 . S
H1953 C1933 0.930 . S
H1954 C1934 0.929 . S
H1955 C1936 0.930 . S
H1956 C1938 0.932 . S
H1957 C1939 0.929 . S
H1958 C1940 0.928 . S
H1959 C1942 0.932 . S
C1960 C1961 1.264 . S
C1960 C1965 1.479 . S
C1960 C1970 1.465 . S
C1961 C1960 1.264 . S
C1961 C1963 1.339 . S
C1961 H1988 0.931 . S
C1962 C1963 1.395 . S
C1962 C1964 1.320 . S
C1963 C1961 1.339 . S
C1963 C1962 1.395 . S
C1963 H1989 0.929 . S
C1964 C1962 1.320 . S
C1964 C1965 1.405 . S
C1964 H1990 0.930 . S
C1965 C1960 1.479 . S
C1965 C1964 1.405 . S
C1965 H1991 0.931 . S
U1966 O1967 2.454 . S
U1966 O1968 2.458 . S
U1966 C1969 2.984 . S
U1966 C1970 2.847 . S
U1966 C1983 2.882 . S
U1966 O1984 2.441 . S
U1966 O1985 2.420 . S
U1966 O1986 2.455 . S
U1966 O1987 2.449 . S
O1967 U1966 2.454 . S
O1967 C1969 1.353 . S
O1968 U1966 2.458 . S
O1968 C1969 1.286 . S
C1969 U1966 2.984 . S
C1969 O1967 1.353 . S
C1969 O1968 1.286 . S
C1969 C1971 1.363 . S
C1970 C1960 1.465 . S
C1970 U1966 2.847 . S
C1970 O1984 1.249 . S
C1970 O1985 1.202 . S
C1971 C1969 1.363 . S
C1971 C1973 1.408 . S
C1971 C1976 1.342 . S
C1972 C1973 1.310 . S
C1972 C1975 1.461 . S
C1972 H1992 0.932 . S
C1973 C1971 1.408 . S
C1973 C1972 1.310 . S
C1973 H1993 0.930 . S
C1974 C1975 1.474 . S
C1974 C1976 1.285 . S
C1974 H1994 0.929 . S
C1975 C1972 1.461 . S
C1975 C1974 1.474 . S
C1976 C1971 1.342 . S
C1976 C1974 1.285 . S
C1976 H1995 0.930 . S
C1977 C1980 1.424 . S
C1977 C1982 1.245 . S
C1977 C1983 1.428 . S
C1978 C1981 1.260 . S
C1978 C1982 1.477 . S
C1978 H1996 0.932 . S
C1979 C1980 1.384 . S
C1979 C1981 1.479 . S
C1979 H1997 0.929 . S
C1980 C1977 1.424 . S
C1980 C1979 1.384 . S
C1980 H1998 0.928 . S
C1981 C1978 1.260 . S
C1981 C1979 1.479 . S
C1982 C1977 1.245 . S
C1982 C1978 1.477 . S
C1982 H1999 0.932 . S
C1983 U1966 2.882 . S
C1983 C1977 1.428 . S
C1983 O1986 1.301 . S
C1983 O1987 1.282 . S
O1984 U1966 2.441 . S
O1984 C1970 1.249 . S
O1985 U1966 2.420 . S
O1985 C1970 1.202 . S
O1986 U1966 2.455 . S
O1986 C1983 1.301 . S
O1987 U1966 2.449 . S
O1987 C1983 1.282 . S
H1988 C1961 0.931 . S
H1989 C1963 0.929 . S
H1990 C1964 0.930 . S
H1991 C1965 0.931 . S
H1992 C1972 0.932 . S
H1993 C1973 0.930 . S
H1994 C1974 0.929 . S
H1995 C1976 0.930 . S
H1996 C1978 0.932 . S
H1997 C1979 0.929 . S
H1998 C1980 0.928 . S
H1999 C1982 0.932 . S
C2000 C2001 1.264 . S
C2000 C2005 1.479 . S
C2000 C2010 1.465 . S
C2001 C2000 1.264 . S
C2001 C2003 1.339 . S
C2001 H2028 0.931 . S
C2002 C2003 1.395 . S
C2002 C2004 1.320 . S
C2003 C2001 1.339 . S
C2003 C2002 1.395 . S
C2003 H2029 0.929 . S
C2004 C2002 1.320 . S
C2004 C2005 1.405 . S
C2004 H2030 0.930 . S
C2005 C2000 1.479 . S
C2005 C2004 1.405 . S
C2005 H2031 0.931 . S
U2006 O2007 2.454 . S
U2006 O2008 2.458 . S
U2006 C2009 2.984 . S
U2006 C2010 2.847 . S
U2006 C2023 2.882 . S
U2006 O2024 2.441 . S
U2006 O2025 2.420 . S
U2006 O2026 2.455 . S
U2006 O2027 2.449 . S
O2007 U2006 2.454 . S
O2007 C2009 1.353 . S
O2008 U2006 2.458 . S
O2008 C2009 1.286 . S
C2009 U2006 2.984 . S
C2009 O2007 1.353 . S
C2009 O2008 1.286 . S
C2009 C2011 1.363 . S
C2010 C2000 1.465 . S
C2010 U2006 2.847 . S
C2010 O2024 1.249 . S
C2010 O2025 1.202 . S
C2011 C2009 1.363 . S
C2011 C2013 1.408 . S
C2011 C2016 1.342 . S
C2012 C2013 1.310 . S
C2012 C2015 1.461 . S
C2012 H2032 0.932 . S
C2013 C2011 1.408 . S
C2013 C2012 1.310 . S
C2013 H2033 0.930 . S
C2014 C2015 1.474 . S
C2014 C2016 1.285 . S
C2014 H2034 0.929 . S
C2015 C2012 1.461 . S
C2015 C2014 1.474 . S
C2016 C2011 1.342 . S
C2016 C2014 1.285 . S
C2016 H2035 0.930 . S
C2017 C2020 1.424 . S
C2017 C2022 1.245 . S
C2017 C2023 1.428 . S
C2018 C2021 1.260 . S
C2018 C2022 1.477 . S
C2018 H2036 0.932 . S
C2019 C2020 1.384 . S
C2019 C2021 1.479 . S
C2019 H2037 0.929 . S
C2020 C2017 1.424 . S
C2020 C2019 1.384 . S
C2020 H2038 0.928 . S
C2021 C2018 1.260 . S
C2021 C2019 1.479 . S
C2022 C2017 1.245 . S
C2022 C2018 1.477 . S
C2022 H2039 0.932 . S
C2023 U2006 2.882 . S
C2023 C2017 1.428 . S
C2023 O2026 1.301 . S
C2023 O2027 1.282 . S
O2024 U2006 2.441 . S
O2024 C2010 1.249 . S
O2025 U2006 2.420 . S
O2025 C2010 1.202 . S
O2026 U2006 2.455 . S
O2026 C2023 1.301 . S
O2027 U2006 2.449 . S
O2027 C2023 1.282 . S
H2028 C2001 0.931 . S
H2029 C2003 0.929 . S
H2030 C2004 0.930 . S
H2031 C2005 0.931 . S
H2032 C2012 0.932 . S
H2033 C2013 0.930 . S
H2034 C2014 0.929 . S
H2035 C2016 0.930 . S
H2036 C2018 0.932 . S
H2037 C2019 0.929 . S
H2038 C2020 0.928 . S
H2039 C2022 0.932 . S
C2040 C2041 1.264 . S
C2040 C2045 1.479 . S
C2040 C2050 1.465 . S
C2041 C2040 1.264 . S
C2041 C2043 1.339 . S
C2041 H2068 0.931 . S
C2042 C2043 1.395 . S
C2042 C2044 1.320 . S
C2043 C2041 1.339 . S
C2043 C2042 1.395 . S
C2043 H2069 0.929 . S
C2044 C2042 1.320 . S
C2044 C2045 1.405 . S
C2044 H2070 0.930 . S
C2045 C2040 1.479 . S
C2045 C2044 1.405 . S
C2045 H2071 0.931 . S
U2046 O2047 2.454 . S
U2046 O2048 2.458 . S
U2046 C2049 2.984 . S
U2046 C2050 2.847 . S
U2046 C2063 2.882 . S
U2046 O2064 2.441 . S
U2046 O2065 2.420 . S
U2046 O2066 2.455 . S
U2046 O2067 2.449 . S
O2047 U2046 2.454 . S
O2047 C2049 1.353 . S
O2048 U2046 2.458 . S
O2048 C2049 1.286 . S
C2049 U2046 2.984 . S
C2049 O2047 1.353 . S
C2049 O2048 1.286 . S
C2049 C2051 1.363 . S
C2050 C2040 1.465 . S
C2050 U2046 2.847 . S
C2050 O2064 1.249 . S
C2050 O2065 1.202 . S
C2051 C2049 1.363 . S
C2051 C2053 1.408 . S
C2051 C2056 1.342 . S
C2052 C2053 1.310 . S
C2052 C2055 1.461 . S
C2052 H2072 0.932 . S
C2053 C2051 1.408 . S
C2053 C2052 1.310 . S
C2053 H2073 0.930 . S
C2054 C2055 1.474 . S
C2054 C2056 1.285 . S
C2054 H2074 0.929 . S
C2055 C2052 1.461 . S
C2055 C2054 1.474 . S
C2056 C2051 1.342 . S
C2056 C2054 1.285 . S
C2056 H2075 0.930 . S
C2057 C2060 1.424 . S
C2057 C2062 1.245 . S
C2057 C2063 1.428 . S
C2058 C2061 1.260 . S
C2058 C2062 1.477 . S
C2058 H2076 0.932 . S
C2059 C2060 1.384 . S
C2059 C2061 1.479 . S
C2059 H2077 0.929 . S
C2060 C2057 1.424 . S
C2060 C2059 1.384 . S
C2060 H2078 0.928 . S
C2061 C2058 1.260 . S
C2061 C2059 1.479 . S
C2062 C2057 1.245 . S
C2062 C2058 1.477 . S
C2062 H2079 0.932 . S
C2063 U2046 2.882 . S
C2063 C2057 1.428 . S
C2063 O2066 1.301 . S
C2063 O2067 1.282 . S
O2064 U2046 2.441 . S
O2064 C2050 1.249 . S
O2065 U2046 2.420 . S
O2065 C2050 1.202 . S
O2066 U2046 2.455 . S
O2066 C2063 1.301 . S
O2067 U2046 2.449 . S
O2067 C2063 1.282 . S
H2068 C2041 0.931 . S
H2069 C2043 0.929 . S
H2070 C2044 0.930 . S
H2071 C2045 0.931 . S
H2072 C2052 0.932 . S
H2073 C2053 0.930 . S
H2074 C2054 0.929 . S
H2075 C2056 0.930 . S
H2076 C2058 0.932 . S
H2077 C2059 0.929 . S
H2078 C2060 0.928 . S
H2079 C2062 0.932 . S
C2080 C2081 1.264 . S
C2080 C2085 1.479 . S
C2080 C2090 1.465 . S
C2081 C2080 1.264 . S
C2081 C2083 1.339 . S
C2081 H2108 0.931 . S
C2082 C2083 1.395 . S
C2082 C2084 1.320 . S
C2083 C2081 1.339 . S
C2083 C2082 1.395 . S
C2083 H2109 0.929 . S
C2084 C2082 1.320 . S
C2084 C2085 1.405 . S
C2084 H2110 0.930 . S
C2085 C2080 1.479 . S
C2085 C2084 1.405 . S
C2085 H2111 0.931 . S
U2086 O2087 2.454 . S
U2086 O2088 2.458 . S
U2086 C2089 2.984 . S
U2086 C2090 2.847 . S
U2086 C2103 2.882 . S
U2086 O2104 2.441 . S
U2086 O2105 2.420 . S
U2086 O2106 2.455 . S
U2086 O2107 2.449 . S
O2087 U2086 2.454 . S
O2087 C2089 1.353 . S
O2088 U2086 2.458 . S
O2088 C2089 1.286 . S
C2089 U2086 2.984 . S
C2089 O2087 1.353 . S
C2089 O2088 1.286 . S
C2089 C2091 1.363 . S
C2090 C2080 1.465 . S
C2090 U2086 2.847 . S
C2090 O2104 1.249 . S
C2090 O2105 1.202 . S
C2091 C2089 1.363 . S
C2091 C2093 1.408 . S
C2091 C2096 1.342 . S
C2092 C2093 1.310 . S
C2092 C2095 1.461 . S
C2092 H2112 0.932 . S
C2093 C2091 1.408 . S
C2093 C2092 1.310 . S
C2093 H2113 0.930 . S
C2094 C2095 1.474 . S
C2094 C2096 1.285 . S
C2094 H2114 0.929 . S
C2095 C2092 1.461 . S
C2095 C2094 1.474 . S
C2096 C2091 1.342 . S
C2096 C2094 1.285 . S
C2096 H2115 0.930 . S
C2097 C2100 1.424 . S
C2097 C2102 1.245 . S
C2097 C2103 1.428 . S
C2098 C2101 1.260 . S
C2098 C2102 1.477 . S
C2098 H2116 0.932 . S
C2099 C2100 1.384 . S
C2099 C2101 1.479 . S
C2099 H2117 0.929 . S
C2100 C2097 1.424 . S
C2100 C2099 1.384 . S
C2100 H2118 0.928 . S
C2101 C2098 1.260 . S
C2101 C2099 1.479 . S
C2102 C2097 1.245 . S
C2102 C2098 1.477 . S
C2102 H2119 0.932 . S
C2103 U2086 2.882 . S
C2103 C2097 1.428 . S
C2103 O2106 1.301 . S
C2103 O2107 1.282 . S
O2104 U2086 2.441 . S
O2104 C2090 1.249 . S
O2105 U2086 2.420 . S
O2105 C2090 1.202 . S
O2106 U2086 2.455 . S
O2106 C2103 1.301 . S
O2107 U2086 2.449 . S
O2107 C2103 1.282 . S
H2108 C2081 0.931 . S
H2109 C2083 0.929 . S
H2110 C2084 0.930 . S
H2111 C2085 0.931 . S
H2112 C2092 0.932 . S
H2113 C2093 0.930 . S
H2114 C2094 0.929 . S
H2115 C2096 0.930 . S
H2116 C2098 0.932 . S
H2117 C2099 0.929 . S
H2118 C2100 0.928 . S
H2119 C2102 0.932 . S
C2120 C2121 1.264 . S
C2120 C2125 1.479 . S
C2120 C2130 1.465 . S
C2121 C2120 1.264 . S
C2121 C2123 1.339 . S
C2121 H2148 0.931 . S
C2122 C2123 1.395 . S
C2122 C2124 1.320 . S
C2123 C2121 1.339 . S
C2123 C2122 1.395 . S
C2123 H2149 0.929 . S
C2124 C2122 1.320 . S
C2124 C2125 1.405 . S
C2124 H2150 0.930 . S
C2125 C2120 1.479 . S
C2125 C2124 1.405 . S
C2125 H2151 0.931 . S
U2126 O2127 2.454 . S
U2126 O2128 2.458 . S
U2126 C2129 2.984 . S
U2126 C2130 2.847 . S
U2126 C2143 2.882 . S
U2126 O2144 2.441 . S
U2126 O2145 2.420 . S
U2126 O2146 2.455 . S
U2126 O2147 2.449 . S
O2127 U2126 2.454 . S
O2127 C2129 1.353 . S
O2128 U2126 2.458 . S
O2128 C2129 1.286 . S
C2129 U2126 2.984 . S
C2129 O2127 1.353 . S
C2129 O2128 1.286 . S
C2129 C2131 1.363 . S
C2130 C2120 1.465 . S
C2130 U2126 2.847 . S
C2130 O2144 1.249 . S
C2130 O2145 1.202 . S
C2131 C2129 1.363 . S
C2131 C2133 1.408 . S
C2131 C2136 1.342 . S
C2132 C2133 1.310 . S
C2132 C2135 1.461 . S
C2132 H2152 0.932 . S
C2133 C2131 1.408 . S
C2133 C2132 1.310 . S
C2133 H2153 0.930 . S
C2134 C2135 1.474 . S
C2134 C2136 1.285 . S
C2134 H2154 0.929 . S
C2135 C2132 1.461 . S
C2135 C2134 1.474 . S
C2136 C2131 1.342 . S
C2136 C2134 1.285 . S
C2136 H2155 0.930 . S
C2137 C2140 1.424 . S
C2137 C2142 1.245 . S
C2137 C2143 1.428 . S
C2138 C2141 1.260 . S
C2138 C2142 1.477 . S
C2138 H2156 0.932 . S
C2139 C2140 1.384 . S
C2139 C2141 1.479 . S
C2139 H2157 0.929 . S
C2140 C2137 1.424 . S
C2140 C2139 1.384 . S
C2140 H2158 0.928 . S
C2141 C2138 1.260 . S
C2141 C2139 1.479 . S
C2142 C2137 1.245 . S
C2142 C2138 1.477 . S
C2142 H2159 0.932 . S
C2143 U2126 2.882 . S
C2143 C2137 1.428 . S
C2143 O2146 1.301 . S
C2143 O2147 1.282 . S
O2144 U2126 2.441 . S
O2144 C2130 1.249 . S
O2145 U2126 2.420 . S
O2145 C2130 1.202 . S
O2146 U2126 2.455 . S
O2146 C2143 1.301 . S
O2147 U2126 2.449 . S
O2147 C2143 1.282 . S
H2148 C2121 0.931 . S
H2149 C2123 0.929 . S
H2150 C2124 0.930 . S
H2151 C2125 0.931 . S
H2152 C2132 0.932 . S
H2153 C2133 0.930 . S
H2154 C2134 0.929 . S
H2155 C2136 0.930 . S
H2156 C2138 0.932 . S
H2157 C2139 0.929 . S
H2158 C2140 0.928 . S
H2159 C2142 0.932 . S
C2160 C2161 1.264 . S
C2160 C2165 1.479 . S
C2160 C2170 1.465 . S
C2161 C2160 1.264 . S
C2161 C2163 1.339 . S
C2161 H2188 0.931 . S
C2162 C2163 1.395 . S
C2162 C2164 1.320 . S
C2163 C2161 1.339 . S
C2163 C2162 1.395 . S
C2163 H2189 0.929 . S
C2164 C2162 1.320 . S
C2164 C2165 1.405 . S
C2164 H2190 0.930 . S
C2165 C2160 1.479 . S
C2165 C2164 1.405 . S
C2165 H2191 0.931 . S
U2166 O2167 2.454 . S
U2166 O2168 2.458 . S
U2166 C2169 2.984 . S
U2166 C2170 2.847 . S
U2166 C2183 2.882 . S
U2166 O2184 2.441 . S
U2166 O2185 2.420 . S
U2166 O2186 2.455 . S
U2166 O2187 2.449 . S
O2167 U2166 2.454 . S
O2167 C2169 1.353 . S
O2168 U2166 2.458 . S
O2168 C2169 1.286 . S
C2169 U2166 2.984 . S
C2169 O2167 1.353 . S
C2169 O2168 1.286 . S
C2169 C2171 1.363 . S
C2170 C2160 1.465 . S
C2170 U2166 2.847 . S
C2170 O2184 1.249 . S
C2170 O2185 1.202 . S
C2171 C2169 1.363 . S
C2171 C2173 1.408 . S
C2171 C2176 1.342 . S
C2172 C2173 1.310 . S
C2172 C2175 1.461 . S
C2172 H2192 0.932 . S
C2173 C2171 1.408 . S
C2173 C2172 1.310 . S
C2173 H2193 0.930 . S
C2174 C2175 1.474 . S
C2174 C2176 1.285 . S
C2174 H2194 0.929 . S
C2175 C2172 1.461 . S
C2175 C2174 1.474 . S
C2176 C2171 1.342 . S
C2176 C2174 1.285 . S
C2176 H2195 0.930 . S
C2177 C2180 1.424 . S
C2177 C2182 1.245 . S
C2177 C2183 1.428 . S
C2178 C2181 1.260 . S
C2178 C2182 1.477 . S
C2178 H2196 0.932 . S
C2179 C2180 1.384 . S
C2179 C2181 1.479 . S
C2179 H2197 0.929 . S
C2180 C2177 1.424 . S
C2180 C2179 1.384 . S
C2180 H2198 0.928 . S
C2181 C2178 1.260 . S
C2181 C2179 1.479 . S
C2182 C2177 1.245 . S
C2182 C2178 1.477 . S
C2182 H2199 0.932 . S
C2183 U2166 2.882 . S
C2183 C2177 1.428 . S
C2183 O2186 1.301 . S
C2183 O2187 1.282 . S
O2184 U2166 2.441 . S
O2184 C2170 1.249 . S
O2185 U2166 2.420 . S
O2185 C2170 1.202 . S
O2186 U2166 2.455 . S
O2186 C2183 1.301 . S
O2187 U2166 2.449 . S
O2187 C2183 1.282 . S
H2188 C2161 0.931 . S
H2189 C2163 0.929 . S
H2190 C2164 0.930 . S
H2191 C2165 0.931 . S
H2192 C2172 0.932 . S
H2193 C2173 0.930 . S
H2194 C2174 0.929 . S
H2195 C2176 0.930 . S
H2196 C2178 0.932 . S
H2197 C2179 0.929 . S
H2198 C2180 0.928 . S
H2199 C2182 0.932 . S
C2200 C2201 1.264 . S
C2200 C2205 1.479 . S
C2200 C2210 1.465 . S
C2201 C2200 1.264 . S
C2201 C2203 1.339 . S
C2201 H2228 0.931 . S
C2202 C2203 1.395 . S
C2202 C2204 1.320 . S
C2203 C2201 1.339 . S
C2203 C2202 1.395 . S
C2203 H2229 0.929 . S
C2204 C2202 1.320 . S
C2204 C2205 1.405 . S
C2204 H2230 0.930 . S
C2205 C2200 1.479 . S
C2205 C2204 1.405 . S
C2205 H2231 0.931 . S
U2206 O2207 2.454 . S
U2206 O2208 2.458 . S
U2206 C2209 2.984 . S
U2206 C2210 2.847 . S
U2206 C2223 2.882 . S
U2206 O2224 2.441 . S
U2206 O2225 2.420 . S
U2206 O2226 2.455 . S
U2206 O2227 2.449 . S
O2207 U2206 2.454 . S
O2207 C2209 1.353 . S
O2208 U2206 2.458 . S
O2208 C2209 1.286 . S
C2209 U2206 2.984 . S
C2209 O2207 1.353 . S
C2209 O2208 1.286 . S
C2209 C2211 1.363 . S
C2210 C2200 1.465 . S
C2210 U2206 2.847 . S
C2210 O2224 1.249 . S
C2210 O2225 1.202 . S
C2211 C2209 1.363 . S
C2211 C2213 1.408 . S
C2211 C2216 1.342 . S
C2212 C2213 1.310 . S
C2212 C2215 1.461 . S
C2212 H2232 0.932 . S
C2213 C2211 1.408 . S
C2213 C2212 1.310 . S
C2213 H2233 0.930 . S
C2214 C2215 1.474 . S
C2214 C2216 1.285 . S
C2214 H2234 0.929 . S
C2215 C2212 1.461 . S
C2215 C2214 1.474 . S
C2216 C2211 1.342 . S
C2216 C2214 1.285 . S
C2216 H2235 0.930 . S
C2217 C2220 1.424 . S
C2217 C2222 1.245 . S
C2217 C2223 1.428 . S
C2218 C2221 1.260 . S
C2218 C2222 1.477 . S
C2218 H2236 0.932 . S
C2219 C2220 1.384 . S
C2219 C2221 1.479 . S
C2219 H2237 0.929 . S
C2220 C2217 1.424 . S
C2220 C2219 1.384 . S
C2220 H2238 0.928 . S
C2221 C2218 1.260 . S
C2221 C2219 1.479 . S
C2222 C2217 1.245 . S
C2222 C2218 1.477 . S
C2222 H2239 0.932 . S
C2223 U2206 2.882 . S
C2223 C2217 1.428 . S
C2223 O2226 1.301 . S
C2223 O2227 1.282 . S
O2224 U2206 2.441 . S
O2224 C2210 1.249 . S
O2225 U2206 2.420 . S
O2225 C2210 1.202 . S
O2226 U2206 2.455 . S
O2226 C2223 1.301 . S
O2227 U2206 2.449 . S
O2227 C2223 1.282 . S
H2228 C2201 0.931 . S
H2229 C2203 0.929 . S
H2230 C2204 0.930 . S
H2231 C2205 0.931 . S
H2232 C2212 0.932 . S
H2233 C2213 0.930 . S
H2234 C2214 0.929 . S
H2235 C2216 0.930 . S
H2236 C2218 0.932 . S
H2237 C2219 0.929 . S
H2238 C2220 0.928 . S
H2239 C2222 0.932 . S
C2240 C2241 1.264 . S
C2240 C2245 1.479 . S
C2240 C2250 1.465 . S
C2241 C2240 1.264 . S
C2241 C2243 1.339 . S
C2241 H2268 0.931 . S
C2242 C2243 1.395 . S
C2242 C2244 1.320 . S
C2243 C2241 1.339 . S
C2243 C2242 1.395 . S
C2243 H2269 0.929 . S
C2244 C2242 1.320 . S
C2244 C2245 1.405 . S
C2244 H2270 0.930 . S
C2245 C2240 1.479 . S
C2245 C2244 1.405 . S
C2245 H2271 0.931 . S
U2246 O2247 2.454 . S
U2246 O2248 2.458 . S
U2246 C2249 2.984 . S
U2246 C2250 2.847 . S
U2246 C2263 2.882 . S
U2246 O2264 2.441 . S
U2246 O2265 2.420 . S
U2246 O2266 2.455 . S
U2246 O2267 2.449 . S
O2247 U2246 2.454 . S
O2247 C2249 1.353 . S
O2248 U2246 2.458 . S
O2248 C2249 1.286 . S
C2249 U2246 2.984 . S
C2249 O2247 1.353 . S
C2249 O2248 1.286 . S
C2249 C2251 1.363 . S
C2250 C2240 1.465 . S
C2250 U2246 2.847 . S
C2250 O2264 1.249 . S
C2250 O2265 1.202 . S
C2251 C2249 1.363 . S
C2251 C2253 1.408 . S
C2251 C2256 1.342 . S
C2252 C2253 1.310 . S
C2252 C2255 1.461 . S
C2252 H2272 0.932 . S
C2253 C2251 1.408 . S
C2253 C2252 1.310 . S
C2253 H2273 0.930 . S
C2254 C2255 1.474 . S
C2254 C2256 1.285 . S
C2254 H2274 0.929 . S
C2255 C2252 1.461 . S
C2255 C2254 1.474 . S
C2256 C2251 1.342 . S
C2256 C2254 1.285 . S
C2256 H2275 0.930 . S
C2257 C2260 1.424 . S
C2257 C2262 1.245 . S
C2257 C2263 1.428 . S
C2258 C2261 1.260 . S
C2258 C2262 1.477 . S
C2258 H2276 0.932 . S
C2259 C2260 1.384 . S
C2259 C2261 1.479 . S
C2259 H2277 0.929 . S
C2260 C2257 1.424 . S
C2260 C2259 1.384 . S
C2260 H2278 0.928 . S
C2261 C2258 1.260 . S
C2261 C2259 1.479 . S
C2262 C2257 1.245 . S
C2262 C2258 1.477 . S
C2262 H2279 0.932 . S
C2263 U2246 2.882 . S
C2263 C2257 1.428 . S
C2263 O2266 1.301 . S
C2263 O2267 1.282 . S
O2264 U2246 2.441 . S
O2264 C2250 1.249 . S
O2265 U2246 2.420 . S
O2265 C2250 1.202 . S
O2266 U2246 2.455 . S
O2266 C2263 1.301 . S
O2267 U2246 2.449 . S
O2267 C2263 1.282 . S
H2268 C2241 0.931 . S
H2269 C2243 0.929 . S
H2270 C2244 0.930 . S
H2271 C2245 0.931 . S
H2272 C2252 0.932 . S
H2273 C2253 0.930 . S
H2274 C2254 0.929 . S
H2275 C2256 0.930 . S
H2276 C2258 0.932 . S
H2277 C2259 0.929 . S
H2278 C2260 0.928 . S
H2279 C2262 0.932 . S
C2280 C2281 1.264 . S
C2280 C2285 1.479 . S
C2280 C2290 1.465 . S
C2281 C2280 1.264 . S
C2281 C2283 1.339 . S
C2281 H2308 0.931 . S
C2282 C2283 1.395 . S
C2282 C2284 1.320 . S
C2283 C2281 1.339 . S
C2283 C2282 1.395 . S
C2283 H2309 0.929 . S
C2284 C2282 1.320 . S
C2284 C2285 1.405 . S
C2284 H2310 0.930 . S
C2285 C2280 1.479 . S
C2285 C2284 1.405 . S
C2285 H2311 0.931 . S
U2286 O2287 2.454 . S
U2286 O2288 2.458 . S
U2286 C2289 2.984 . S
U2286 C2290 2.847 . S
U2286 C2303 2.882 . S
U2286 O2304 2.441 . S
U2286 O2305 2.420 . S
U2286 O2306 2.455 . S
U2286 O2307 2.449 . S
O2287 U2286 2.454 . S
O2287 C2289 1.353 . S
O2288 U2286 2.458 . S
O2288 C2289 1.286 . S
C2289 U2286 2.984 . S
C2289 O2287 1.353 . S
C2289 O2288 1.286 . S
C2289 C2291 1.363 . S
C2290 C2280 1.465 . S
C2290 U2286 2.847 . S
C2290 O2304 1.249 . S
C2290 O2305 1.202 . S
C2291 C2289 1.363 . S
C2291 C2293 1.408 . S
C2291 C2296 1.342 . S
C2292 C2293 1.310 . S
C2292 C2295 1.461 . S
C2292 H2312 0.932 . S
C2293 C2291 1.408 . S
C2293 C2292 1.310 . S
C2293 H2313 0.930 . S
C2294 C2295 1.474 . S
C2294 C2296 1.285 . S
C2294 H2314 0.929 . S
C2295 C2292 1.461 . S
C2295 C2294 1.474 . S
C2296 C2291 1.342 . S
C2296 C2294 1.285 . S
C2296 H2315 0.930 . S
C2297 C2300 1.424 . S
C2297 C2302 1.245 . S
C2297 C2303 1.428 . S
C2298 C2301 1.260 . S
C2298 C2302 1.477 . S
C2298 H2316 0.932 . S
C2299 C2300 1.384 . S
C2299 C2301 1.479 . S
C2299 H2317 0.929 . S
C2300 C2297 1.424 . S
C2300 C2299 1.384 . S
C2300 H2318 0.928 . S
C2301 C2298 1.260 . S
C2301 C2299 1.479 . S
C2302 C2297 1.245 . S
C2302 C2298 1.477 . S
C2302 H2319 0.932 . S
C2303 U2286 2.882 . S
C2303 C2297 1.428 . S
C2303 O2306 1.301 . S
C2303 O2307 1.282 . S
O2304 U2286 2.441 . S
O2304 C2290 1.249 . S
O2305 U2286 2.420 . S
O2305 C2290 1.202 . S
O2306 U2286 2.455 . S
O2306 C2303 1.301 . S
O2307 U2286 2.449 . S
O2307 C2303 1.282 . S
H2308 C2281 0.931 . S
H2309 C2283 0.929 . S
H2310 C2284 0.930 . S
H2311 C2285 0.931 . S
H2312 C2292 0.932 . S
H2313 C2293 0.930 . S
H2314 C2294 0.929 . S
H2315 C2296 0.930 . S
H2316 C2298 0.932 . S
H2317 C2299 0.929 . S
H2318 C2300 0.928 . S
H2319 C2302 0.932 . S
C2320 C2321 1.264 . S
C2320 C2325 1.479 . S
C2320 C2330 1.465 . S
C2321 C2320 1.264 . S
C2321 C2323 1.339 . S
C2321 H2348 0.931 . S
C2322 C2323 1.395 . S
C2322 C2324 1.320 . S
C2323 C2321 1.339 . S
C2323 C2322 1.395 . S
C2323 H2349 0.929 . S
C2324 C2322 1.320 . S
C2324 C2325 1.405 . S
C2324 H2350 0.930 . S
C2325 C2320 1.479 . S
C2325 C2324 1.405 . S
C2325 H2351 0.931 . S
U2326 O2327 2.454 . S
U2326 O2328 2.458 . S
U2326 C2329 2.984 . S
U2326 C2330 2.847 . S
U2326 C2343 2.882 . S
U2326 O2344 2.441 . S
U2326 O2345 2.420 . S
U2326 O2346 2.455 . S
U2326 O2347 2.449 . S
O2327 U2326 2.454 . S
O2327 C2329 1.353 . S
O2328 U2326 2.458 . S
O2328 C2329 1.286 . S
C2329 U2326 2.984 . S
C2329 O2327 1.353 . S
C2329 O2328 1.286 . S
C2329 C2331 1.363 . S
C2330 C2320 1.465 . S
C2330 U2326 2.847 . S
C2330 O2344 1.249 . S
C2330 O2345 1.202 . S
C2331 C2329 1.363 . S
C2331 C2333 1.408 . S
C2331 C2336 1.342 . S
C2332 C2333 1.310 . S
C2332 C2335 1.461 . S
C2332 H2352 0.932 . S
C2333 C2331 1.408 . S
C2333 C2332 1.310 . S
C2333 H2353 0.930 . S
C2334 C2335 1.474 . S
C2334 C2336 1.285 . S
C2334 H2354 0.929 . S
C2335 C2332 1.461 . S
C2335 C2334 1.474 . S
C2336 C2331 1.342 . S
C2336 C2334 1.285 . S
C2336 H2355 0.930 . S
C2337 C2340 1.424 . S
C2337 C2342 1.245 . S
C2337 C2343 1.428 . S
C2338 C2341 1.260 . S
C2338 C2342 1.477 . S
C2338 H2356 0.932 . S
C2339 C2340 1.384 . S
C2339 C2341 1.479 . S
C2339 H2357 0.929 . S
C2340 C2337 1.424 . S
C2340 C2339 1.384 . S
C2340 H2358 0.928 . S
C2341 C2338 1.260 . S
C2341 C2339 1.479 . S
C2342 C2337 1.245 . S
C2342 C2338 1.477 . S
C2342 H2359 0.932 . S
C2343 U2326 2.882 . S
C2343 C2337 1.428 . S
C2343 O2346 1.301 . S
C2343 O2347 1.282 . S
O2344 U2326 2.441 . S
O2344 C2330 1.249 . S
O2345 U2326 2.420 . S
O2345 C2330 1.202 . S
O2346 U2326 2.455 . S
O2346 C2343 1.301 . S
O2347 U2326 2.449 . S
O2347 C2343 1.282 . S
H2348 C2321 0.931 . S
H2349 C2323 0.929 . S
H2350 C2324 0.930 . S
H2351 C2325 0.931 . S
H2352 C2332 0.932 . S
H2353 C2333 0.930 . S
H2354 C2334 0.929 . S
H2355 C2336 0.930 . S
H2356 C2338 0.932 . S
H2357 C2339 0.929 . S
H2358 C2340 0.928 . S
H2359 C2342 0.932 . S
C2360 C2361 1.264 . S
C2360 C2365 1.479 . S
C2360 C2370 1.465 . S
C2361 C2360 1.264 . S
C2361 C2363 1.339 . S
C2361 H2388 0.931 . S
C2362 C2363 1.395 . S
C2362 C2364 1.320 . S
C2363 C2361 1.339 . S
C2363 C2362 1.395 . S
C2363 H2389 0.929 . S
C2364 C2362 1.320 . S
C2364 C2365 1.405 . S
C2364 H2390 0.930 . S
C2365 C2360 1.479 . S
C2365 C2364 1.405 . S
C2365 H2391 0.931 . S
U2366 O2367 2.454 . S
U2366 O2368 2.458 . S
U2366 C2369 2.984 . S
U2366 C2370 2.847 . S
U2366 C2383 2.882 . S
U2366 O2384 2.441 . S
U2366 O2385 2.420 . S
U2366 O2386 2.455 . S
U2366 O2387 2.449 . S
O2367 U2366 2.454 . S
O2367 C2369 1.353 . S
O2368 U2366 2.458 . S
O2368 C2369 1.286 . S
C2369 U2366 2.984 . S
C2369 O2367 1.353 . S
C2369 O2368 1.286 . S
C2369 C2371 1.363 . S
C2370 C2360 1.465 . S
C2370 U2366 2.847 . S
C2370 O2384 1.249 . S
C2370 O2385 1.202 . S
C2371 C2369 1.363 . S
C2371 C2373 1.408 . S
C2371 C2376 1.342 . S
C2372 C2373 1.310 . S
C2372 C2375 1.461 . S
C2372 H2392 0.932 . S
C2373 C2371 1.408 . S
C2373 C2372 1.310 . S
C2373 H2393 0.930 . S
C2374 C2375 1.474 . S
C2374 C2376 1.285 . S
C2374 H2394 0.929 . S
C2375 C2372 1.461 . S
C2375 C2374 1.474 . S
C2376 C2371 1.342 . S
C2376 C2374 1.285 . S
C2376 H2395 0.930 . S
C2377 C2380 1.424 . S
C2377 C2382 1.245 . S
C2377 C2383 1.428 . S
C2378 C2381 1.260 . S
C2378 C2382 1.477 . S
C2378 H2396 0.932 . S
C2379 C2380 1.384 . S
C2379 C2381 1.479 . S
C2379 H2397 0.929 . S
C2380 C2377 1.424 . S
C2380 C2379 1.384 . S
C2380 H2398 0.928 . S
C2381 C2378 1.260 . S
C2381 C2379 1.479 . S
C2382 C2377 1.245 . S
C2382 C2378 1.477 . S
C2382 H2399 0.932 . S
C2383 U2366 2.882 . S
C2383 C2377 1.428 . S
C2383 O2386 1.301 . S
C2383 O2387 1.282 . S
O2384 U2366 2.441 . S
O2384 C2370 1.249 . S
O2385 U2366 2.420 . S
O2385 C2370 1.202 . S
O2386 U2366 2.455 . S
O2386 C2383 1.301 . S
O2387 U2366 2.449 . S
O2387 C2383 1.282 . S
H2388 C2361 0.931 . S
H2389 C2363 0.929 . S
H2390 C2364 0.930 . S
H2391 C2365 0.931 . S
H2392 C2372 0.932 . S
H2393 C2373 0.930 . S
H2394 C2374 0.929 . S
H2395 C2376 0.930 . S
H2396 C2378 0.932 . S
H2397 C2379 0.929 . S
H2398 C2380 0.928 . S
H2399 C2382 0.932 . S
C2400 C2401 1.264 . S
C2400 C2405 1.479 . S
C2400 C2410 1.465 . S
C2401 C2400 1.264 . S
C2401 C2403 1.339 . S
C2401 H2428 0.931 . S
C2402 C2403 1.395 . S
C2402 C2404 1.320 . S
C2403 C2401 1.339 . S
C2403 C2402 1.395 . S
C2403 H2429 0.929 . S
C2404 C2402 1.320 . S
C2404 C2405 1.405 . S
C2404 H2430 0.930 . S
C2405 C2400 1.479 . S
C2405 C2404 1.405 . S
C2405 H2431 0.931 . S
U2406 O2407 2.454 . S
U2406 O2408 2.458 . S
U2406 C2409 2.984 . S
U2406 C2410 2.847 . S
U2406 C2423 2.882 . S
U2406 O2424 2.441 . S
U2406 O2425 2.420 . S
U2406 O2426 2.455 . S
U2406 O2427 2.449 . S
O2407 U2406 2.454 . S
O2407 C2409 1.353 . S
O2408 U2406 2.458 . S
O2408 C2409 1.286 . S
C2409 U2406 2.984 . S
C2409 O2407 1.353 . S
C2409 O2408 1.286 . S
C2409 C2411 1.363 . S
C2410 C2400 1.465 . S
C2410 U2406 2.847 . S
C2410 O2424 1.249 . S
C2410 O2425 1.202 . S
C2411 C2409 1.363 . S
C2411 C2413 1.408 . S
C2411 C2416 1.342 . S
C2412 C2413 1.310 . S
C2412 C2415 1.461 . S
C2412 H2432 0.932 . S
C2413 C2411 1.408 . S
C2413 C2412 1.310 . S
C2413 H2433 0.930 . S
C2414 C2415 1.474 . S
C2414 C2416 1.285 . S
C2414 H2434 0.929 . S
C2415 C2412 1.461 . S
C2415 C2414 1.474 . S
C2416 C2411 1.342 . S
C2416 C2414 1.285 . S
C2416 H2435 0.930 . S
C2417 C2420 1.424 . S
C2417 C2422 1.245 . S
C2417 C2423 1.428 . S
C2418 C2421 1.260 . S
C2418 C2422 1.477 . S
C2418 H2436 0.932 . S
C2419 C2420 1.384 . S
C2419 C2421 1.479 . S
C2419 H2437 0.929 . S
C2420 C2417 1.424 . S
C2420 C2419 1.384 . S
C2420 H2438 0.928 . S
C2421 C2418 1.260 . S
C2421 C2419 1.479 . S
C2422 C2417 1.245 . S
C2422 C2418 1.477 . S
C2422 H2439 0.932 . S
C2423 U2406 2.882 . S
C2423 C2417 1.428 . S
C2423 O2426 1.301 . S
C2423 O2427 1.282 . S
O2424 U2406 2.441 . S
O2424 C2410 1.249 . S
O2425 U2406 2.420 . S
O2425 C2410 1.202 . S
O2426 U2406 2.455 . S
O2426 C2423 1.301 . S
O2427 U2406 2.449 . S
O2427 C2423 1.282 . S
H2428 C2401 0.931 . S
H2429 C2403 0.929 . S
H2430 C2404 0.930 . S
H2431 C2405 0.931 . S
H2432 C2412 0.932 . S
H2433 C2413 0.930 . S
H2434 C2414 0.929 . S
H2435 C2416 0.930 . S
H2436 C2418 0.932 . S
H2437 C2419 0.929 . S
H2438 C2420 0.928 . S
H2439 C2422 0.932 . S
C2440 C2441 1.264 . S
C2440 C2445 1.479 . S
C2440 C2450 1.465 . S
C2441 C2440 1.264 . S
C2441 C2443 1.339 . S
C2441 H2468 0.931 . S
C2442 C2443 1.395 . S
C2442 C2444 1.320 . S
C2443 C2441 1.339 . S
C2443 C2442 1.395 . S
C2443 H2469 0.929 . S
C2444 C2442 1.320 . S
C2444 C2445 1.405 . S
C2444 H2470 0.930 . S
C2445 C2440 1.479 . S
C2445 C2444 1.405 . S
C2445 H2471 0.931 . S
U2446 O2447 2.454 . S
U2446 O2448 2.458 . S
U2446 C2449 2.984 . S
U2446 C2450 2.847 . S
U2446 C2463 2.882 . S
U2446 O2464 2.441 . S
U2446 O2465 2.420 . S
U2446 O2466 2.455 . S
U2446 O2467 2.449 . S
O2447 U2446 2.454 . S
O2447 C2449 1.353 . S
O2448 U2446 2.458 . S
O2448 C2449 1.286 . S
C2449 U2446 2.984 . S
C2449 O2447 1.353 . S
C2449 O2448 1.286 . S
C2449 C2451 1.363 . S
C2450 C2440 1.465 . S
C2450 U2446 2.847 . S
C2450 O2464 1.249 . S
C2450 O2465 1.202 . S
C2451 C2449 1.363 . S
C2451 C2453 1.408 . S
C2451 C2456 1.342 . S
C2452 C2453 1.310 . S
C2452 C2455 1.461 . S
C2452 H2472 0.932 . S
C2453 C2451 1.408 . S
C2453 C2452 1.310 . S
C2453 H2473 0.930 . S
C2454 C2455 1.474 . S
C2454 C2456 1.285 . S
C2454 H2474 0.929 . S
C2455 C2452 1.461 . S
C2455 C2454 1.474 . S
C2456 C2451 1.342 . S
C2456 C2454 1.285 . S
C2456 H2475 0.930 . S
C2457 C2460 1.424 . S
C2457 C2462 1.245 . S
C2457 C2463 1.428 . S
C2458 C2461 1.260 . S
C2458 C2462 1.477 . S
C2458 H2476 0.932 . S
C2459 C2460 1.384 . S
C2459 C2461 1.479 . S
C2459 H2477 0.929 . S
C2460 C2457 1.424 . S
C2460 C2459 1.384 . S
C2460 H2478 0.928 . S
C2461 C2458 1.260 . S
C2461 C2459 1.479 . S
C2462 C2457 1.245 . S
C2462 C2458 1.477 . S
C2462 H2479 0.932 . S
C2463 U2446 2.882 . S
C2463 C2457 1.428 . S
C2463 O2466 1.301 . S
C2463 O2467 1.282 . S
O2464 U2446 2.441 . S
O2464 C2450 1.249 . S
O2465 U2446 2.420 . S
O2465 C2450 1.202 . S
O2466 U2446 2.455 . S
O2466 C2463 1.301 . S
O2467 U2446 2.449 . S
O2467 C2463 1.282 . S
H2468 C2441 0.931 . S
H2469 C2443 0.929 . S
H2470 C2444 0.930 . S
H2471 C2445 0.931 . S
H2472 C2452 0.932 . S
H2473 C2453 0.930 . S
H2474 C2454 0.929 . S
H2475 C2456 0.930 . S
H2476 C2458 0.932 . S
H2477 C2459 0.929 . S
H2478 C2460 0.928 . S
H2479 C2462 0.932 . S
C2480 C2481 1.264 . S
C2480 C2485 1.479 . S
C2480 C2490 1.465 . S
C2481 C2480 1.264 . S
C2481 C2483 1.339 . S
C2481 H2508 0.931 . S
C2482 C2483 1.395 . S
C2482 C2484 1.320 . S
C2483 C2481 1.339 . S
C2483 C2482 1.395 . S
C2483 H2509 0.929 . S
C2484 C2482 1.320 . S
C2484 C2485 1.405 . S
C2484 H2510 0.930 . S
C2485 C2480 1.479 . S
C2485 C2484 1.405 . S
C2485 H2511 0.931 . S
U2486 O2487 2.454 . S
U2486 O2488 2.458 . S
U2486 C2489 2.984 . S
U2486 C2490 2.847 . S
U2486 C2503 2.882 . S
U2486 O2504 2.441 . S
U2486 O2505 2.420 . S
U2486 O2506 2.455 . S
U2486 O2507 2.449 . S
O2487 U2486 2.454 . S
O2487 C2489 1.353 . S
O2488 U2486 2.458 . S
O2488 C2489 1.286 . S
C2489 U2486 2.984 . S
C2489 O2487 1.353 . S
C2489 O2488 1.286 . S
C2489 C2491 1.363 . S
C2490 C2480 1.465 . S
C2490 U2486 2.847 . S
C2490 O2504 1.249 . S
C2490 O2505 1.202 . S
C2491 C2489 1.363 . S
C2491 C2493 1.408 . S
C2491 C2496 1.342 . S
C2492 C2493 1.310 . S
C2492 C2495 1.461 . S
C2492 H2512 0.932 . S
C2493 C2491 1.408 . S
C2493 C2492 1.310 . S
C2493 H2513 0.930 . S
C2494 C2495 1.474 . S
C2494 C2496 1.285 . S
C2494 H2514 0.929 . S
C2495 C2492 1.461 . S
C2495 C2494 1.474 . S
C2496 C2491 1.342 . S
C2496 C2494 1.285 . S
C2496 H2515 0.930 . S
C2497 C2500 1.424 . S
C2497 C2502 1.245 . S
C2497 C2503 1.428 . S
C2498 C2501 1.260 . S
C2498 C2502 1.477 . S
C2498 H2516 0.932 . S
C2499 C2500 1.384 . S
C2499 C2501 1.479 . S
C2499 H2517 0.929 . S
C2500 C2497 1.424 . S
C2500 C2499 1.384 . S
C2500 H2518 0.928 . S
C2501 C2498 1.260 . S
C2501 C2499 1.479 . S
C2502 C2497 1.245 . S
C2502 C2498 1.477 . S
C2502 H2519 0.932 . S
C2503 U2486 2.882 . S
C2503 C2497 1.428 . S
C2503 O2506 1.301 . S
C2503 O2507 1.282 . S
O2504 U2486 2.441 . S
O2504 C2490 1.249 . S
O2505 U2486 2.420 . S
O2505 C2490 1.202 . S
O2506 U2486 2.455 . S
O2506 C2503 1.301 . S
O2507 U2486 2.449 . S
O2507 C2503 1.282 . S
H2508 C2481 0.931 . S
H2509 C2483 0.929 . S
H2510 C2484 0.930 . S
H2511 C2485 0.931 . S
H2512 C2492 0.932 . S
H2513 C2493 0.930 . S
H2514 C2494 0.929 . S
H2515 C2496 0.930 . S
H2516 C2498 0.932 . S
H2517 C2499 0.929 . S
H2518 C2500 0.928 . S
H2519 C2502 0.932 . S
C2520 C2521 1.264 . S
C2520 C2525 1.479 . S
C2520 C2530 1.465 . S
C2521 C2520 1.264 . S
C2521 C2523 1.339 . S
C2521 H2548 0.931 . S
C2522 C2523 1.395 . S
C2522 C2524 1.320 . S
C2523 C2521 1.339 . S
C2523 C2522 1.395 . S
C2523 H2549 0.929 . S
C2524 C2522 1.320 . S
C2524 C2525 1.405 . S
C2524 H2550 0.930 . S
C2525 C2520 1.479 . S
C2525 C2524 1.405 . S
C2525 H2551 0.931 . S
U2526 O2527 2.454 . S
U2526 O2528 2.458 . S
U2526 C2529 2.984 . S
U2526 C2530 2.847 . S
U2526 C2543 2.882 . S
U2526 O2544 2.441 . S
U2526 O2545 2.420 . S
U2526 O2546 2.455 . S
U2526 O2547 2.449 . S
O2527 U2526 2.454 . S
O2527 C2529 1.353 . S
O2528 U2526 2.458 . S
O2528 C2529 1.286 . S
C2529 U2526 2.984 . S
C2529 O2527 1.353 . S
C2529 O2528 1.286 . S
C2529 C2531 1.363 . S
C2530 C2520 1.465 . S
C2530 U2526 2.847 . S
C2530 O2544 1.249 . S
C2530 O2545 1.202 . S
C2531 C2529 1.363 . S
C2531 C2533 1.408 . S
C2531 C2536 1.342 . S
C2532 C2533 1.310 . S
C2532 C2535 1.461 . S
C2532 H2552 0.932 . S
C2533 C2531 1.408 . S
C2533 C2532 1.310 . S
C2533 H2553 0.930 . S
C2534 C2535 1.474 . S
C2534 C2536 1.285 . S
C2534 H2554 0.929 . S
C2535 C2532 1.461 . S
C2535 C2534 1.474 . S
C2536 C2531 1.342 . S
C2536 C2534 1.285 . S
C2536 H2555 0.930 . S
C2537 C2540 1.424 . S
C2537 C2542 1.245 . S
C2537 C2543 1.428 . S
C2538 C2541 1.260 . S
C2538 C2542 1.477 . S
C2538 H2556 0.932 . S
C2539 C2540 1.384 . S
C2539 C2541 1.479 . S
C2539 H2557 0.929 . S
C2540 C2537 1.424 . S
C2540 C2539 1.384 . S
C2540 H2558 0.928 . S
C2541 C2538 1.260 . S
C2541 C2539 1.479 . S
C2542 C2537 1.245 . S
C2542 C2538 1.477 . S
C2542 H2559 0.932 . S
C2543 U2526 2.882 . S
C2543 C2537 1.428 . S
C2543 O2546 1.301 . S
C2543 O2547 1.282 . S
O2544 U2526 2.441 . S
O2544 C2530 1.249 . S
O2545 U2526 2.420 . S
O2545 C2530 1.202 . S
O2546 U2526 2.455 . S
O2546 C2543 1.301 . S
O2547 U2526 2.449 . S
O2547 C2543 1.282 . S
H2548 C2521 0.931 . S
H2549 C2523 0.929 . S
H2550 C2524 0.930 . S
H2551 C2525 0.931 . S
H2552 C2532 0.932 . S
H2553 C2533 0.930 . S
H2554 C2534 0.929 . S
H2555 C2536 0.930 . S
H2556 C2538 0.932 . S
H2557 C2539 0.929 . S
H2558 C2540 0.928 . S
H2559 C2542 0.932 . S
C2560 C2561 1.264 . S
C2560 C2565 1.479 . S
C2560 C2570 1.465 . S
C2561 C2560 1.264 . S
C2561 C2563 1.339 . S
C2561 H2588 0.931 . S
C2562 C2563 1.395 . S
C2562 C2564 1.320 . S
C2563 C2561 1.339 . S
C2563 C2562 1.395 . S
C2563 H2589 0.929 . S
C2564 C2562 1.320 . S
C2564 C2565 1.405 . S
C2564 H2590 0.930 . S
C2565 C2560 1.479 . S
C2565 C2564 1.405 . S
C2565 H2591 0.931 . S
U2566 O2567 2.454 . S
U2566 O2568 2.458 . S
U2566 C2569 2.984 . S
U2566 C2570 2.847 . S
U2566 C2583 2.882 . S
U2566 O2584 2.441 . S
U2566 O2585 2.420 . S
U2566 O2586 2.455 . S
U2566 O2587 2.449 . S
O2567 U2566 2.454 . S
O2567 C2569 1.353 . S
O2568 U2566 2.458 . S
O2568 C2569 1.286 . S
C2569 U2566 2.984 . S
C2569 O2567 1.353 . S
C2569 O2568 1.286 . S
C2569 C2571 1.363 . S
C2570 C2560 1.465 . S
C2570 U2566 2.847 . S
C2570 O2584 1.249 . S
C2570 O2585 1.202 . S
C2571 C2569 1.363 . S
C2571 C2573 1.408 . S
C2571 C2576 1.342 . S
C2572 C2573 1.310 . S
C2572 C2575 1.461 . S
C2572 H2592 0.932 . S
C2573 C2571 1.408 . S
C2573 C2572 1.310 . S
C2573 H2593 0.930 . S
C2574 C2575 1.474 . S
C2574 C2576 1.285 . S
C2574 H2594 0.929 . S
C2575 C2572 1.461 . S
C2575 C2574 1.474 . S
C2576 C2571 1.342 . S
C2576 C2574 1.285 . S
C2576 H2595 0.930 . S
C2577 C2580 1.424 . S
C2577 C2582 1.245 . S
C2577 C2583 1.428 . S
C2578 C2581 1.260 . S
C2578 C2582 1.477 . S
C2578 H2596 0.932 . S
C2579 C2580 1.384 . S
C2579 C2581 1.479 . S
C2579 H2597 0.929 . S
C2580 C2577 1.424 . S
C2580 C2579 1.384 . S
C2580 H2598 0.928 . S
C2581 C2578 1.260 . S
C2581 C2579 1.479 . S
C2582 C2577 1.245 . S
C2582 C2578 1.477 . S
C2582 H2599 0.932 . S
C2583 U2566 2.882 . S
C2583 C2577 1.428 . S
C2583 O2586 1.301 . S
C2583 O2587 1.282 . S
O2584 U2566 2.441 . S
O2584 C2570 1.249 . S
O2585 U2566 2.420 . S
O2585 C2570 1.202 . S
O2586 U2566 2.455 . S
O2586 C2583 1.301 . S
O2587 U2566 2.449 . S
O2587 C2583 1.282 . S
H2588 C2561 0.931 . S
H2589 C2563 0.929 . S
H2590 C2564 0.930 . S
H2591 C2565 0.931 . S
H2592 C2572 0.932 . S
H2593 C2573 0.930 . S
H2594 C2574 0.929 . S
H2595 C2576 0.930 . S
H2596 C2578 0.932 . S
H2597 C2579 0.929 . S
H2598 C2580 0.928 . S
H2599 C2582 0.932 . S
C2600 C2601 1.264 . S
C2600 C2605 1.479 . S
C2600 C2610 1.465 . S
C2601 C2600 1.264 . S
C2601 C2603 1.339 . S
C2601 H2628 0.931 . S
C2602 C2603 1.395 . S
C2602 C2604 1.320 . S
C2603 C2601 1.339 . S
C2603 C2602 1.395 . S
C2603 H2629 0.929 . S
C2604 C2602 1.320 . S
C2604 C2605 1.405 . S
C2604 H2630 0.930 . S
C2605 C2600 1.479 . S
C2605 C2604 1.405 . S
C2605 H2631 0.931 . S
U2606 O2607 2.454 . S
U2606 O2608 2.458 . S
U2606 C2609 2.984 . S
U2606 C2610 2.847 . S
U2606 C2623 2.882 . S
U2606 O2624 2.441 . S
U2606 O2625 2.420 . S
U2606 O2626 2.455 . S
U2606 O2627 2.449 . S
O2607 U2606 2.454 . S
O2607 C2609 1.353 . S
O2608 U2606 2.458 . S
O2608 C2609 1.286 . S
C2609 U2606 2.984 . S
C2609 O2607 1.353 . S
C2609 O2608 1.286 . S
C2609 C2611 1.363 . S
C2610 C2600 1.465 . S
C2610 U2606 2.847 . S
C2610 O2624 1.249 . S
C2610 O2625 1.202 . S
C2611 C2609 1.363 . S
C2611 C2613 1.408 . S
C2611 C2616 1.342 . S
C2612 C2613 1.310 . S
C2612 C2615 1.461 . S
C2612 H2632 0.932 . S
C2613 C2611 1.408 . S
C2613 C2612 1.310 . S
C2613 H2633 0.930 . S
C2614 C2615 1.474 . S
C2614 C2616 1.285 . S
C2614 H2634 0.929 . S
C2615 C2612 1.461 . S
C2615 C2614 1.474 . S
C2616 C2611 1.342 . S
C2616 C2614 1.285 . S
C2616 H2635 0.930 . S
C2617 C2620 1.424 . S
C2617 C2622 1.245 . S
C2617 C2623 1.428 . S
C2618 C2621 1.260 . S
C2618 C2622 1.477 . S
C2618 H2636 0.932 . S
C2619 C2620 1.384 . S
C2619 C2621 1.479 . S
C2619 H2637 0.929 . S
C2620 C2617 1.424 . S
C2620 C2619 1.384 . S
C2620 H2638 0.928 . S
C2621 C2618 1.260 . S
C2621 C2619 1.479 . S
C2622 C2617 1.245 . S
C2622 C2618 1.477 . S
C2622 H2639 0.932 . S
C2623 U2606 2.882 . S
C2623 C2617 1.428 . S
C2623 O2626 1.301 . S
C2623 O2627 1.282 . S
O2624 U2606 2.441 . S
O2624 C2610 1.249 . S
O2625 U2606 2.420 . S
O2625 C2610 1.202 . S
O2626 U2606 2.455 . S
O2626 C2623 1.301 . S
O2627 U2606 2.449 . S
O2627 C2623 1.282 . S
H2628 C2601 0.931 . S
H2629 C2603 0.929 . S
H2630 C2604 0.930 . S
H2631 C2605 0.931 . S
H2632 C2612 0.932 . S
H2633 C2613 0.930 . S
H2634 C2614 0.929 . S
H2635 C2616 0.930 . S
H2636 C2618 0.932 . S
H2637 C2619 0.929 . S
H2638 C2620 0.928 . S
H2639 C2622 0.932 . S
C2640 C2641 1.264 . S
C2640 C2645 1.479 . S
C2640 C2650 1.465 . S
C2641 C2640 1.264 . S
C2641 C2643 1.339 . S
C2641 H2668 0.931 . S
C2642 C2643 1.395 . S
C2642 C2644 1.320 . S
C2643 C2641 1.339 . S
C2643 C2642 1.395 . S
C2643 H2669 0.929 . S
C2644 C2642 1.320 . S
C2644 C2645 1.405 . S
C2644 H2670 0.930 . S
C2645 C2640 1.479 . S
C2645 C2644 1.405 . S
C2645 H2671 0.931 . S
U2646 O2647 2.454 . S
U2646 O2648 2.458 . S
U2646 C2649 2.984 . S
U2646 C2650 2.847 . S
U2646 C2663 2.882 . S
U2646 O2664 2.441 . S
U2646 O2665 2.420 . S
U2646 O2666 2.455 . S
U2646 O2667 2.449 . S
O2647 U2646 2.454 . S
O2647 C2649 1.353 . S
O2648 U2646 2.458 . S
O2648 C2649 1.286 . S
C2649 U2646 2.984 . S
C2649 O2647 1.353 . S
C2649 O2648 1.286 . S
C2649 C2651 1.363 . S
C2650 C2640 1.465 . S
C2650 U2646 2.847 . S
C2650 O2664 1.249 . S
C2650 O2665 1.202 . S
C2651 C2649 1.363 . S
C2651 C2653 1.408 . S
C2651 C2656 1.342 . S
C2652 C2653 1.310 . S
C2652 C2655 1.461 . S
C2652 H2672 0.932 . S
C2653 C2651 1.408 . S
C2653 C2652 1.310 . S
C2653 H2673 0.930 . S
C2654 C2655 1.474 . S
C2654 C2656 1.285 . S
C2654 H2674 0.929 . S
C2655 C2652 1.461 . S
C2655 C2654 1.474 . S
C2656 C2651 1.342 . S
C2656 C2654 1.285 . S
C2656 H2675 0.930 . S
C2657 C2660 1.424 . S
C2657 C2662 1.245 . S
C2657 C2663 1.428 . S
C2658 C2661 1.260 . S
C2658 C2662 1.477 . S
C2658 H2676 0.932 . S
C2659 C2660 1.384 . S
C2659 C2661 1.479 . S
C2659 H2677 0.929 . S
C2660 C2657 1.424 . S
C2660 C2659 1.384 . S
C2660 H2678 0.928 . S
C2661 C2658 1.260 . S
C2661 C2659 1.479 . S
C2662 C2657 1.245 . S
C2662 C2658 1.477 . S
C2662 H2679 0.932 . S
C2663 U2646 2.882 . S
C2663 C2657 1.428 . S
C2663 O2666 1.301 . S
C2663 O2667 1.282 . S
O2664 U2646 2.441 . S
O2664 C2650 1.249 . S
O2665 U2646 2.420 . S
O2665 C2650 1.202 . S
O2666 U2646 2.455 . S
O2666 C2663 1.301 . S
O2667 U2646 2.449 . S
O2667 C2663 1.282 . S
H2668 C2641 0.931 . S
H2669 C2643 0.929 . S
H2670 C2644 0.930 . S
H2671 C2645 0.931 . S
H2672 C2652 0.932 . S
H2673 C2653 0.930 . S
H2674 C2654 0.929 . S
H2675 C2656 0.930 . S
H2676 C2658 0.932 . S
H2677 C2659 0.929 . S
H2678 C2660 0.928 . S
H2679 C2662 0.932 . S
C2680 C2681 1.264 . S
C2680 C2685 1.479 . S
C2680 C2690 1.465 . S
C2681 C2680 1.264 . S
C2681 C2683 1.339 . S
C2681 H2708 0.931 . S
C2682 C2683 1.395 . S
C2682 C2684 1.320 . S
C2683 C2681 1.339 . S
C2683 C2682 1.395 . S
C2683 H2709 0.929 . S
C2684 C2682 1.320 . S
C2684 C2685 1.405 . S
C2684 H2710 0.930 . S
C2685 C2680 1.479 . S
C2685 C2684 1.405 . S
C2685 H2711 0.931 . S
U2686 O2687 2.454 . S
U2686 O2688 2.458 . S
U2686 C2689 2.984 . S
U2686 C2690 2.847 . S
U2686 C2703 2.882 . S
U2686 O2704 2.441 . S
U2686 O2705 2.420 . S
U2686 O2706 2.455 . S
U2686 O2707 2.449 . S
O2687 U2686 2.454 . S
O2687 C2689 1.353 . S
O2688 U2686 2.458 . S
O2688 C2689 1.286 . S
C2689 U2686 2.984 . S
C2689 O2687 1.353 . S
C2689 O2688 1.286 . S
C2689 C2691 1.363 . S
C2690 C2680 1.465 . S
C2690 U2686 2.847 . S
C2690 O2704 1.249 . S
C2690 O2705 1.202 . S
C2691 C2689 1.363 . S
C2691 C2693 1.408 . S
C2691 C2696 1.342 . S
C2692 C2693 1.310 . S
C2692 C2695 1.461 . S
C2692 H2712 0.932 . S
C2693 C2691 1.408 . S
C2693 C2692 1.310 . S
C2693 H2713 0.930 . S
C2694 C2695 1.474 . S
C2694 C2696 1.285 . S
C2694 H2714 0.929 . S
C2695 C2692 1.461 . S
C2695 C2694 1.474 . S
C2696 C2691 1.342 . S
C2696 C2694 1.285 . S
C2696 H2715 0.930 . S
C2697 C2700 1.424 . S
C2697 C2702 1.245 . S
C2697 C2703 1.428 . S
C2698 C2701 1.260 . S
C2698 C2702 1.477 . S
C2698 H2716 0.932 . S
C2699 C2700 1.384 . S
C2699 C2701 1.479 . S
C2699 H2717 0.929 . S
C2700 C2697 1.424 . S
C2700 C2699 1.384 . S
C2700 H2718 0.928 . S
C2701 C2698 1.260 . S
C2701 C2699 1.479 . S
C2702 C2697 1.245 . S
C2702 C2698 1.477 . S
C2702 H2719 0.932 . S
C2703 U2686 2.882 . S
C2703 C2697 1.428 . S
C2703 O2706 1.301 . S
C2703 O2707 1.282 . S
O2704 U2686 2.441 . S
O2704 C2690 1.249 . S
O2705 U2686 2.420 . S
O2705 C2690 1.202 . S
O2706 U2686 2.455 . S
O2706 C2703 1.301 . S
O2707 U2686 2.449 . S
O2707 C2703 1.282 . S
H2708 C2681 0.931 . S
H2709 C2683 0.929 . S
H2710 C2684 0.930 . S
H2711 C2685 0.931 . S
H2712 C2692 0.932 . S
H2713 C2693 0.930 . S
H2714 C2694 0.929 . S
H2715 C2696 0.930 . S
H2716 C2698 0.932 . S
H2717 C2699 0.929 . S
H2718 C2700 0.928 . S
H2719 C2702 0.932 . S
C2720 C2721 1.264 . S
C2720 C2725 1.479 . S
C2720 C2730 1.465 . S
C2721 C2720 1.264 . S
C2721 C2723 1.339 . S
C2721 H2748 0.931 . S
C2722 C2723 1.395 . S
C2722 C2724 1.320 . S
C2723 C2721 1.339 . S
C2723 C2722 1.395 . S
C2723 H2749 0.929 . S
C2724 C2722 1.320 . S
C2724 C2725 1.405 . S
C2724 H2750 0.930 . S
C2725 C2720 1.479 . S
C2725 C2724 1.405 . S
C2725 H2751 0.931 . S
U2726 O2727 2.454 . S
U2726 O2728 2.458 . S
U2726 C2729 2.984 . S
U2726 C2730 2.847 . S
U2726 C2743 2.882 . S
U2726 O2744 2.441 . S
U2726 O2745 2.420 . S
U2726 O2746 2.455 . S
U2726 O2747 2.449 . S
O2727 U2726 2.454 . S
O2727 C2729 1.353 . S
O2728 U2726 2.458 . S
O2728 C2729 1.286 . S
C2729 U2726 2.984 . S
C2729 O2727 1.353 . S
C2729 O2728 1.286 . S
C2729 C2731 1.363 . S
C2730 C2720 1.465 . S
C2730 U2726 2.847 . S
C2730 O2744 1.249 . S
C2730 O2745 1.202 . S
C2731 C2729 1.363 . S
C2731 C2733 1.408 . S
C2731 C2736 1.342 . S
C2732 C2733 1.310 . S
C2732 C2735 1.461 . S
C2732 H2752 0.932 . S
C2733 C2731 1.408 . S
C2733 C2732 1.310 . S
C2733 H2753 0.930 . S
C2734 C2735 1.474 . S
C2734 C2736 1.285 . S
C2734 H2754 0.929 . S
C2735 C2732 1.461 . S
C2735 C2734 1.474 . S
C2736 C2731 1.342 . S
C2736 C2734 1.285 . S
C2736 H2755 0.930 . S
C2737 C2740 1.424 . S
C2737 C2742 1.245 . S
C2737 C2743 1.428 . S
C2738 C2741 1.260 . S
C2738 C2742 1.477 . S
C2738 H2756 0.932 . S
C2739 C2740 1.384 . S
C2739 C2741 1.479 . S
C2739 H2757 0.929 . S
C2740 C2737 1.424 . S
C2740 C2739 1.384 . S
C2740 H2758 0.928 . S
C2741 C2738 1.260 . S
C2741 C2739 1.479 . S
C2742 C2737 1.245 . S
C2742 C2738 1.477 . S
C2742 H2759 0.932 . S
C2743 U2726 2.882 . S
C2743 C2737 1.428 . S
C2743 O2746 1.301 . S
C2743 O2747 1.282 . S
O2744 U2726 2.441 . S
O2744 C2730 1.249 . S
O2745 U2726 2.420 . S
O2745 C2730 1.202 . S
O2746 U2726 2.455 . S
O2746 C2743 1.301 . S
O2747 U2726 2.449 . S
O2747 C2743 1.282 . S
H2748 C2721 0.931 . S
H2749 C2723 0.929 . S
H2750 C2724 0.930 . S
H2751 C2725 0.931 . S
H2752 C2732 0.932 . S
H2753 C2733 0.930 . S
H2754 C2734 0.929 . S
H2755 C2736 0.930 . S
H2756 C2738 0.932 . S
H2757 C2739 0.929 . S
H2758 C2740 0.928 . S
H2759 C2742 0.932 . S
C2760 C2761 1.264 . S
C2760 C2765 1.479 . S
C2760 C2770 1.465 . S
C2761 C2760 1.264 . S
C2761 C2763 1.339 . S
C2761 H2788 0.931 . S
C2762 C2763 1.395 . S
C2762 C2764 1.320 . S
C2763 C2761 1.339 . S
C2763 C2762 1.395 . S
C2763 H2789 0.929 . S
C2764 C2762 1.320 . S
C2764 C2765 1.405 . S
C2764 H2790 0.930 . S
C2765 C2760 1.479 . S
C2765 C2764 1.405 . S
C2765 H2791 0.931 . S
U2766 O2767 2.454 . S
U2766 O2768 2.458 . S
U2766 C2769 2.984 . S
U2766 C2770 2.847 . S
U2766 C2783 2.882 . S
U2766 O2784 2.441 . S
U2766 O2785 2.420 . S
U2766 O2786 2.455 . S
U2766 O2787 2.449 . S
O2767 U2766 2.454 . S
O2767 C2769 1.353 . S
O2768 U2766 2.458 . S
O2768 C2769 1.286 . S
C2769 U2766 2.984 . S
C2769 O2767 1.353 . S
C2769 O2768 1.286 . S
C2769 C2771 1.363 . S
C2770 C2760 1.465 . S
C2770 U2766 2.847 . S
C2770 O2784 1.249 . S
C2770 O2785 1.202 . S
C2771 C2769 1.363 . S
C2771 C2773 1.408 . S
C2771 C2776 1.342 . S
C2772 C2773 1.310 . S
C2772 C2775 1.461 . S
C2772 H2792 0.932 . S
C2773 C2771 1.408 . S
C2773 C2772 1.310 . S
C2773 H2793 0.930 . S
C2774 C2775 1.474 . S
C2774 C2776 1.285 . S
C2774 H2794 0.929 . S
C2775 C2772 1.461 . S
C2775 C2774 1.474 . S
C2776 C2771 1.342 . S
C2776 C2774 1.285 . S
C2776 H2795 0.930 . S
C2777 C2780 1.424 . S
C2777 C2782 1.245 . S
C2777 C2783 1.428 . S
C2778 C2781 1.260 . S
C2778 C2782 1.477 . S
C2778 H2796 0.932 . S
C2779 C2780 1.384 . S
C2779 C2781 1.479 . S
C2779 H2797 0.929 . S
C2780 C2777 1.424 . S
C2780 C2779 1.384 . S
C2780 H2798 0.928 . S
C2781 C2778 1.260 . S
C2781 C2779 1.479 . S
C2782 C2777 1.245 . S
C2782 C2778 1.477 . S
C2782 H2799 0.932 . S
C2783 U2766 2.882 . S
C2783 C2777 1.428 . S
C2783 O2786 1.301 . S
C2783 O2787 1.282 . S
O2784 U2766 2.441 . S
O2784 C2770 1.249 . S
O2785 U2766 2.420 . S
O2785 C2770 1.202 . S
O2786 U2766 2.455 . S
O2786 C2783 1.301 . S
O2787 U2766 2.449 . S
O2787 C2783 1.282 . S
H2788 C2761 0.931 . S
H2789 C2763 0.929 . S
H2790 C2764 0.930 . S
H2791 C2765 0.931 . S
H2792 C2772 0.932 . S
H2793 C2773 0.930 . S
H2794 C2774 0.929 . S
H2795 C2776 0.930 . S
H2796 C2778 0.932 . S
H2797 C2779 0.929 . S
H2798 C2780 0.928 . S
H2799 C2782 0.932 . S
C2800 C2801 1.264 . S
C2800 C2805 1.479 . S
C2800 C2810 1.465 . S
C2801 C2800 1.264 . S
C2801 C2803 1.339 . S
C2801 H2828 0.931 . S
C2802 C2803 1.395 . S
C2802 C2804 1.320 . S
C2803 C2801 1.339 . S
C2803 C2802 1.395 . S
C2803 H2829 0.929 . S
C2804 C2802 1.320 . S
C2804 C2805 1.405 . S
C2804 H2830 0.930 . S
C2805 C2800 1.479 . S
C2805 C2804 1.405 . S
C2805 H2831 0.931 . S
U2806 O2807 2.454 . S
U2806 O2808 2.458 . S
U2806 C2809 2.984 . S
U2806 C2810 2.847 . S
U2806 C2823 2.882 . S
U2806 O2824 2.441 . S
U2806 O2825 2.420 . S
U2806 O2826 2.455 . S
U2806 O2827 2.449 . S
O2807 U2806 2.454 . S
O2807 C2809 1.353 . S
O2808 U2806 2.458 . S
O2808 C2809 1.286 . S
C2809 U2806 2.984 . S
C2809 O2807 1.353 . S
C2809 O2808 1.286 . S
C2809 C2811 1.363 . S
C2810 C2800 1.465 . S
C2810 U2806 2.847 . S
C2810 O2824 1.249 . S
C2810 O2825 1.202 . S
C2811 C2809 1.363 . S
C2811 C2813 1.408 . S
C2811 C2816 1.342 . S
C2812 C2813 1.310 . S
C2812 C2815 1.461 . S
C2812 H2832 0.932 . S
C2813 C2811 1.408 . S
C2813 C2812 1.310 . S
C2813 H2833 0.930 . S
C2814 C2815 1.474 . S
C2814 C2816 1.285 . S
C2814 H2834 0.929 . S
C2815 C2812 1.461 . S
C2815 C2814 1.474 . S
C2816 C2811 1.342 . S
C2816 C2814 1.285 . S
C2816 H2835 0.930 . S
C2817 C2820 1.424 . S
C2817 C2822 1.245 . S
C2817 C2823 1.428 . S
C2818 C2821 1.260 . S
C2818 C2822 1.477 . S
C2818 H2836 0.932 . S
C2819 C2820 1.384 . S
C2819 C2821 1.479 . S
C2819 H2837 0.929 . S
C2820 C2817 1.424 . S
C2820 C2819 1.384 . S
C2820 H2838 0.928 . S
C2821 C2818 1.260 . S
C2821 C2819 1.479 . S
C2822 C2817 1.245 . S
C2822 C2818 1.477 . S
C2822 H2839 0.932 . S
C2823 U2806 2.882 . S
C2823 C2817 1.428 . S
C2823 O2826 1.301 . S
C2823 O2827 1.282 . S
O2824 U2806 2.441 . S
O2824 C2810 1.249 . S
O2825 U2806 2.420 . S
O2825 C2810 1.202 . S
O2826 U2806 2.455 . S
O2826 C2823 1.301 . S
O2827 U2806 2.449 . S
O2827 C2823 1.282 . S
H2828 C2801 0.931 . S
H2829 C2803 0.929 . S
H2830 C2804 0.930 . S
H2831 C2805 0.931 . S
H2832 C2812 0.932 . S
H2833 C2813 0.930 . S
H2834 C2814 0.929 . S
H2835 C2816 0.930 . S
H2836 C2818 0.932 . S
H2837 C2819 0.929 . S
H2838 C2820 0.928 . S
H2839 C2822 0.932 . S
C2840 C2841 1.264 . S
C2840 C2845 1.479 . S
C2840 C2850 1.465 . S
C2841 C2840 1.264 . S
C2841 C2843 1.339 . S
C2841 H2868 0.931 . S
C2842 C2843 1.395 . S
C2842 C2844 1.320 . S
C2843 C2841 1.339 . S
C2843 C2842 1.395 . S
C2843 H2869 0.929 . S
C2844 C2842 1.320 . S
C2844 C2845 1.405 . S
C2844 H2870 0.930 . S
C2845 C2840 1.479 . S
C2845 C2844 1.405 . S
C2845 H2871 0.931 . S
U2846 O2847 2.454 . S
U2846 O2848 2.458 . S
U2846 C2849 2.984 . S
U2846 C2850 2.847 . S
U2846 C2863 2.882 . S
U2846 O2864 2.441 . S
U2846 O2865 2.420 . S
U2846 O2866 2.455 . S
U2846 O2867 2.449 . S
O2847 U2846 2.454 . S
O2847 C2849 1.353 . S
O2848 U2846 2.458 . S
O2848 C2849 1.286 . S
C2849 U2846 2.984 . S
C2849 O2847 1.353 . S
C2849 O2848 1.286 . S
C2849 C2851 1.363 . S
C2850 C2840 1.465 . S
C2850 U2846 2.847 . S
C2850 O2864 1.249 . S
C2850 O2865 1.202 . S
C2851 C2849 1.363 . S
C2851 C2853 1.408 . S
C2851 C2856 1.342 . S
C2852 C2853 1.310 . S
C2852 C2855 1.461 . S
C2852 H2872 0.932 . S
C2853 C2851 1.408 . S
C2853 C2852 1.310 . S
C2853 H2873 0.930 . S
C2854 C2855 1.474 . S
C2854 C2856 1.285 . S
C2854 H2874 0.929 . S
C2855 C2852 1.461 . S
C2855 C2854 1.474 . S
C2856 C2851 1.342 . S
C2856 C2854 1.285 . S
C2856 H2875 0.930 . S
C2857 C2860 1.424 . S
C2857 C2862 1.245 . S
C2857 C2863 1.428 . S
C2858 C2861 1.260 . S
C2858 C2862 1.477 . S
C2858 H2876 0.932 . S
C2859 C2860 1.384 . S
C2859 C2861 1.479 . S
C2859 H2877 0.929 . S
C2860 C2857 1.424 . S
C2860 C2859 1.384 . S
C2860 H2878 0.928 . S
C2861 C2858 1.260 . S
C2861 C2859 1.479 . S
C2862 C2857 1.245 . S
C2862 C2858 1.477 . S
C2862 H2879 0.932 . S
C2863 U2846 2.882 . S
C2863 C2857 1.428 . S
C2863 O2866 1.301 . S
C2863 O2867 1.282 . S
O2864 U2846 2.441 . S
O2864 C2850 1.249 . S
O2865 U2846 2.420 . S
O2865 C2850 1.202 . S
O2866 U2846 2.455 . S
O2866 C2863 1.301 . S
O2867 U2846 2.449 . S
O2867 C2863 1.282 . S
H2868 C2841 0.931 . S
H2869 C2843 0.929 . S
H2870 C2844 0.930 . S
H2871 C2845 0.931 . S
H2872 C2852 0.932 . S
H2873 C2853 0.930 . S
H2874 C2854 0.929 . S
H2875 C2856 0.930 . S
H2876 C2858 0.932 . S
H2877 C2859 0.929 . S
H2878 C2860 0.928 . S
H2879 C2862 0.932 . S
C2880 C2881 1.264 . S
C2880 C2885 1.479 . S
C2880 C2890 1.465 . S
C2881 C2880 1.264 . S
C2881 C2883 1.339 . S
C2881 H2908 0.931 . S
C2882 C2883 1.395 . S
C2882 C2884 1.320 . S
C2883 C2881 1.339 . S
C2883 C2882 1.395 . S
C2883 H2909 0.929 . S
C2884 C2882 1.320 . S
C2884 C2885 1.405 . S
C2884 H2910 0.930 . S
C2885 C2880 1.479 . S
C2885 C2884 1.405 . S
C2885 H2911 0.931 . S
U2886 O2887 2.454 . S
U2886 O2888 2.458 . S
U2886 C2889 2.984 . S
U2886 C2890 2.847 . S
U2886 C2903 2.882 . S
U2886 O2904 2.441 . S
U2886 O2905 2.420 . S
U2886 O2906 2.455 . S
U2886 O2907 2.449 . S
O2887 U2886 2.454 . S
O2887 C2889 1.353 . S
O2888 U2886 2.458 . S
O2888 C2889 1.286 . S
C2889 U2886 2.984 . S
C2889 O2887 1.353 . S
C2889 O2888 1.286 . S
C2889 C2891 1.363 . S
C2890 C2880 1.465 . S
C2890 U2886 2.847 . S
C2890 O2904 1.249 . S
C2890 O2905 1.202 . S
C2891 C2889 1.363 . S
C2891 C2893 1.408 . S
C2891 C2896 1.342 . S
C2892 C2893 1.310 . S
C2892 C2895 1.461 . S
C2892 H2912 0.932 . S
C2893 C2891 1.408 . S
C2893 C2892 1.310 . S
C2893 H2913 0.930 . S
C2894 C2895 1.474 . S
C2894 C2896 1.285 . S
C2894 H2914 0.929 . S
C2895 C2892 1.461 . S
C2895 C2894 1.474 . S
C2896 C2891 1.342 . S
C2896 C2894 1.285 . S
C2896 H2915 0.930 . S
C2897 C2900 1.424 . S
C2897 C2902 1.245 . S
C2897 C2903 1.428 . S
C2898 C2901 1.260 . S
C2898 C2902 1.477 . S
C2898 H2916 0.932 . S
C2899 C2900 1.384 . S
C2899 C2901 1.479 . S
C2899 H2917 0.929 . S
C2900 C2897 1.424 . S
C2900 C2899 1.384 . S
C2900 H2918 0.928 . S
C2901 C2898 1.260 . S
C2901 C2899 1.479 . S
C2902 C2897 1.245 . S
C2902 C2898 1.477 . S
C2902 H2919 0.932 . S
C2903 U2886 2.882 . S
C2903 C2897 1.428 . S
C2903 O2906 1.301 . S
C2903 O2907 1.282 . S
O2904 U2886 2.441 . S
O2904 C2890 1.249 . S
O2905 U2886 2.420 . S
O2905 C2890 1.202 . S
O2906 U2886 2.455 . S
O2906 C2903 1.301 . S
O2907 U2886 2.449 . S
O2907 C2903 1.282 . S
H2908 C2881 0.931 . S
H2909 C2883 0.929 . S
H2910 C2884 0.930 . S
H2911 C2885 0.931 . S
H2912 C2892 0.932 . S
H2913 C2893 0.930 . S
H2914 C2894 0.929 . S
H2915 C2896 0.930 . S
H2916 C2898 0.932 . S
H2917 C2899 0.929 . S
H2918 C2900 0.928 . S
H2919 C2902 0.932 . S
C2920 C2921 1.264 . S
C2920 C2925 1.479 . S
C2920 C2930 1.465 . S
C2921 C2920 1.264 . S
C2921 C2923 1.339 . S
C2921 H2948 0.931 . S
C2922 C2923 1.395 . S
C2922 C2924 1.320 . S
C2923 C2921 1.339 . S
C2923 C2922 1.395 . S
C2923 H2949 0.929 . S
C2924 C2922 1.320 . S
C2924 C2925 1.405 . S
C2924 H2950 0.930 . S
C2925 C2920 1.479 . S
C2925 C2924 1.405 . S
C2925 H2951 0.931 . S
U2926 O2927 2.454 . S
U2926 O2928 2.458 . S
U2926 C2929 2.984 . S
U2926 C2930 2.847 . S
U2926 C2943 2.882 . S
U2926 O2944 2.441 . S
U2926 O2945 2.420 . S
U2926 O2946 2.455 . S
U2926 O2947 2.449 . S
O2927 U2926 2.454 . S
O2927 C2929 1.353 . S
O2928 U2926 2.458 . S
O2928 C2929 1.286 . S
C2929 U2926 2.984 . S
C2929 O2927 1.353 . S
C2929 O2928 1.286 . S
C2929 C2931 1.363 . S
C2930 C2920 1.465 . S
C2930 U2926 2.847 . S
C2930 O2944 1.249 . S
C2930 O2945 1.202 . S
C2931 C2929 1.363 . S
C2931 C2933 1.408 . S
C2931 C2936 1.342 . S
C2932 C2933 1.310 . S
C2932 C2935 1.461 . S
C2932 H2952 0.932 . S
C2933 C2931 1.408 . S
C2933 C2932 1.310 . S
C2933 H2953 0.930 . S
C2934 C2935 1.474 . S
C2934 C2936 1.285 . S
C2934 H2954 0.929 . S
C2935 C2932 1.461 . S
C2935 C2934 1.474 . S
C2936 C2931 1.342 . S
C2936 C2934 1.285 . S
C2936 H2955 0.930 . S
C2937 C2940 1.424 . S
C2937 C2942 1.245 . S
C2937 C2943 1.428 . S
C2938 C2941 1.260 . S
C2938 C2942 1.477 . S
C2938 H2956 0.932 . S
C2939 C2940 1.384 . S
C2939 C2941 1.479 . S
C2939 H2957 0.929 . S
C2940 C2937 1.424 . S
C2940 C2939 1.384 . S
C2940 H2958 0.928 . S
C2941 C2938 1.260 . S
C2941 C2939 1.479 . S
C2942 C2937 1.245 . S
C2942 C2938 1.477 . S
C2942 H2959 0.932 . S
C2943 U2926 2.882 . S
C2943 C2937 1.428 . S
C2943 O2946 1.301 . S
C2943 O2947 1.282 . S
O2944 U2926 2.441 . S
O2944 C2930 1.249 . S
O2945 U2926 2.420 . S
O2945 C2930 1.202 . S
O2946 U2926 2.455 . S
O2946 C2943 1.301 . S
O2947 U2926 2.449 . S
O2947 C2943 1.282 . S
H2948 C2921 0.931 . S
H2949 C2923 0.929 . S
H2950 C2924 0.930 . S
H2951 C2925 0.931 . S
H2952 C2932 0.932 . S
H2953 C2933 0.930 . S
H2954 C2934 0.929 . S
H2955 C2936 0.930 . S
H2956 C2938 0.932 . S
H2957 C2939 0.929 . S
H2958 C2940 0.928 . S
H2959 C2942 0.932 . S
C2960 C2961 1.264 . S
C2960 C2965 1.479 . S
C2960 C2970 1.465 . S
C2961 C2960 1.264 . S
C2961 C2963 1.339 . S
C2961 H2988 0.931 . S
C2962 C2963 1.395 . S
C2962 C2964 1.320 . S
C2963 C2961 1.339 . S
C2963 C2962 1.395 . S
C2963 H2989 0.929 . S
C2964 C2962 1.320 . S
C2964 C2965 1.405 . S
C2964 H2990 0.930 . S
C2965 C2960 1.479 . S
C2965 C2964 1.405 . S
C2965 H2991 0.931 . S
U2966 O2967 2.454 . S
U2966 O2968 2.458 . S
U2966 C2969 2.984 . S
U2966 C2970 2.847 . S
U2966 C2983 2.882 . S
U2966 O2984 2.441 . S
U2966 O2985 2.420 . S
U2966 O2986 2.455 . S
U2966 O2987 2.449 . S
O2967 U2966 2.454 . S
O2967 C2969 1.353 . S
O2968 U2966 2.458 . S
O2968 C2969 1.286 . S
C2969 U2966 2.984 . S
C2969 O2967 1.353 . S
C2969 O2968 1.286 . S
C2969 C2971 1.363 . S
C2970 C2960 1.465 . S
C2970 U2966 2.847 . S
C2970 O2984 1.249 . S
C2970 O2985 1.202 . S
C2971 C2969 1.363 . S
C2971 C2973 1.408 . S
C2971 C2976 1.342 . S
C2972 C2973 1.310 . S
C2972 C2975 1.461 . S
C2972 H2992 0.932 . S
C2973 C2971 1.408 . S
C2973 C2972 1.310 . S
C2973 H2993 0.930 . S
C2974 C2975 1.474 . S
C2974 C2976 1.285 . S
C2974 H2994 0.929 . S
C2975 C2972 1.461 . S
C2975 C2974 1.474 . S
C2976 C2971 1.342 . S
C2976 C2974 1.285 . S
C2976 H2995 0.930 . S
C2977 C2980 1.424 . S
C2977 C2982 1.245 . S
C2977 C2983 1.428 . S
C2978 C2981 1.260 . S
C2978 C2982 1.477 . S
C2978 H2996 0.932 . S
C2979 C2980 1.384 . S
C2979 C2981 1.479 . S
C2979 H2997 0.929 . S
C2980 C2977 1.424 . S
C2980 C2979 1.384 . S
C2980 H2998 0.928 . S
C2981 C2978 1.260 . S
C2981 C2979 1.479 . S
C2982 C2977 1.245 . S
C2982 C2978 1.477 . S
C2982 H2999 0.932 . S
C2983 U2966 2.882 . S
C2983 C2977 1.428 . S
C2983 O2986 1.301 . S
C2983 O2987 1.282 . S
O2984 U2966 2.441 . S
O2984 C2970 1.249 . S
O2985 U2966 2.420 . S
O2985 C2970 1.202 . S
O2986 U2966 2.455 . S
O2986 C2983 1.301 . S
O2987 U2966 2.449 . S
O2987 C2983 1.282 . S
H2988 C2961 0.931 . S
H2989 C2963 0.929 . S
H2990 C2964 0.930 . S
H2991 C2965 0.931 . S
H2992 C2972 0.932 . S
H2993 C2973 0.930 . S
H2994 C2974 0.929 . S
H2995 C2976 0.930 . S
H2996 C2978 0.932 . S
H2997 C2979 0.929 . S
H2998 C2980 0.928 . S
H2999 C2982 0.932 . S
C3000 C3001 1.264 . S
C3000 C3005 1.479 . S
C3000 C3010 1.465 . S
C3001 C3000 1.264 . S
C3001 C3003 1.339 . S
C3001 H3028 0.931 . S
C3002 C3003 1.395 . S
C3002 C3004 1.320 . S
C3003 C3001 1.339 . S
C3003 C3002 1.395 . S
C3003 H3029 0.929 . S
C3004 C3002 1.320 . S
C3004 C3005 1.405 . S
C3004 H3030 0.930 . S
C3005 C3000 1.479 . S
C3005 C3004 1.405 . S
C3005 H3031 0.931 . S
U3006 O3007 2.454 . S
U3006 O3008 2.458 . S
U3006 C3009 2.984 . S
U3006 C3010 2.847 . S
U3006 C3023 2.882 . S
U3006 O3024 2.441 . S
U3006 O3025 2.420 . S
U3006 O3026 2.455 . S
U3006 O3027 2.449 . S
O3007 U3006 2.454 . S
O3007 C3009 1.353 . S
O3008 U3006 2.458 . S
O3008 C3009 1.286 . S
C3009 U3006 2.984 . S
C3009 O3007 1.353 . S
C3009 O3008 1.286 . S
C3009 C3011 1.363 . S
C3010 C3000 1.465 . S
C3010 U3006 2.847 . S
C3010 O3024 1.249 . S
C3010 O3025 1.202 . S
C3011 C3009 1.363 . S
C3011 C3013 1.408 . S
C3011 C3016 1.342 . S
C3012 C3013 1.310 . S
C3012 C3015 1.461 . S
C3012 H3032 0.932 . S
C3013 C3011 1.408 . S
C3013 C3012 1.310 . S
C3013 H3033 0.930 . S
C3014 C3015 1.474 . S
C3014 C3016 1.285 . S
C3014 H3034 0.929 . S
C3015 C3012 1.461 . S
C3015 C3014 1.474 . S
C3016 C3011 1.342 . S
C3016 C3014 1.285 . S
C3016 H3035 0.930 . S
C3017 C3020 1.424 . S
C3017 C3022 1.245 . S
C3017 C3023 1.428 . S
C3018 C3021 1.260 . S
C3018 C3022 1.477 . S
C3018 H3036 0.932 . S
C3019 C3020 1.384 . S
C3019 C3021 1.479 . S
C3019 H3037 0.929 . S
C3020 C3017 1.424 . S
C3020 C3019 1.384 . S
C3020 H3038 0.928 . S
C3021 C3018 1.260 . S
C3021 C3019 1.479 . S
C3022 C3017 1.245 . S
C3022 C3018 1.477 . S
C3022 H3039 0.932 . S
C3023 U3006 2.882 . S
C3023 C3017 1.428 . S
C3023 O3026 1.301 . S
C3023 O3027 1.282 . S
O3024 U3006 2.441 . S
O3024 C3010 1.249 . S
O3025 U3006 2.420 . S
O3025 C3010 1.202 . S
O3026 U3006 2.455 . S
O3026 C3023 1.301 . S
O3027 U3006 2.449 . S
O3027 C3023 1.282 . S
H3028 C3001 0.931 . S
H3029 C3003 0.929 . S
H3030 C3004 0.930 . S
H3031 C3005 0.931 . S
H3032 C3012 0.932 . S
H3033 C3013 0.930 . S
H3034 C3014 0.929 . S
H3035 C3016 0.930 . S
H3036 C3018 0.932 . S
H3037 C3019 0.929 . S
H3038 C3020 0.928 . S
H3039 C3022 0.932 . S
C3040 C3041 1.264 . S
C3040 C3045 1.479 . S
C3040 C3050 1.465 . S
C3041 C3040 1.264 . S
C3041 C3043 1.339 . S
C3041 H3068 0.931 . S
C3042 C3043 1.395 . S
C3042 C3044 1.320 . S
C3043 C3041 1.339 . S
C3043 C3042 1.395 . S
C3043 H3069 0.929 . S
C3044 C3042 1.320 . S
C3044 C3045 1.405 . S
C3044 H3070 0.930 . S
C3045 C3040 1.479 . S
C3045 C3044 1.405 . S
C3045 H3071 0.931 . S
U3046 O3047 2.454 . S
U3046 O3048 2.458 . S
U3046 C3049 2.984 . S
U3046 C3050 2.847 . S
U3046 C3063 2.882 . S
U3046 O3064 2.441 . S
U3046 O3065 2.420 . S
U3046 O3066 2.455 . S
U3046 O3067 2.449 . S
O3047 U3046 2.454 . S
O3047 C3049 1.353 . S
O3048 U3046 2.458 . S
O3048 C3049 1.286 . S
C3049 U3046 2.984 . S
C3049 O3047 1.353 . S
C3049 O3048 1.286 . S
C3049 C3051 1.363 . S
C3050 C3040 1.465 . S
C3050 U3046 2.847 . S
C3050 O3064 1.249 . S
C3050 O3065 1.202 . S
C3051 C3049 1.363 . S
C3051 C3053 1.408 . S
C3051 C3056 1.342 . S
C3052 C3053 1.310 . S
C3052 C3055 1.461 . S
C3052 H3072 0.932 . S
C3053 C3051 1.408 . S
C3053 C3052 1.310 . S
C3053 H3073 0.930 . S
C3054 C3055 1.474 . S
C3054 C3056 1.285 . S
C3054 H3074 0.929 . S
C3055 C3052 1.461 . S
C3055 C3054 1.474 . S
C3056 C3051 1.342 . S
C3056 C3054 1.285 . S
C3056 H3075 0.930 . S
C3057 C3060 1.424 . S
C3057 C3062 1.245 . S
C3057 C3063 1.428 . S
C3058 C3061 1.260 . S
C3058 C3062 1.477 . S
C3058 H3076 0.932 . S
C3059 C3060 1.384 . S
C3059 C3061 1.479 . S
C3059 H3077 0.929 . S
C3060 C3057 1.424 . S
C3060 C3059 1.384 . S
C3060 H3078 0.928 . S
C3061 C3058 1.260 . S
C3061 C3059 1.479 . S
C3062 C3057 1.245 . S
C3062 C3058 1.477 . S
C3062 H3079 0.932 . S
C3063 U3046 2.882 . S
C3063 C3057 1.428 . S
C3063 O3066 1.301 . S
C3063 O3067 1.282 . S
O3064 U3046 2.441 . S
O3064 C3050 1.249 . S
O3065 U3046 2.420 . S
O3065 C3050 1.202 . S
O3066 U3046 2.455 . S
O3066 C3063 1.301 . S
O3067 U3046 2.449 . S
O3067 C3063 1.282 . S
H3068 C3041 0.931 . S
H3069 C3043 0.929 . S
H3070 C3044 0.930 . S
H3071 C3045 0.931 . S
H3072 C3052 0.932 . S
H3073 C3053 0.930 . S
H3074 C3054 0.929 . S
H3075 C3056 0.930 . S
H3076 C3058 0.932 . S
H3077 C3059 0.929 . S
H3078 C3060 0.928 . S
H3079 C3062 0.932 . S
C3080 C3081 1.264 . S
C3080 C3085 1.479 . S
C3080 C3090 1.465 . S
C3081 C3080 1.264 . S
C3081 C3083 1.339 . S
C3081 H3108 0.931 . S
C3082 C3083 1.395 . S
C3082 C3084 1.320 . S
C3083 C3081 1.339 . S
C3083 C3082 1.395 . S
C3083 H3109 0.929 . S
C3084 C3082 1.320 . S
C3084 C3085 1.405 . S
C3084 H3110 0.930 . S
C3085 C3080 1.479 . S
C3085 C3084 1.405 . S
C3085 H3111 0.931 . S
U3086 O3087 2.454 . S
U3086 O3088 2.458 . S
U3086 C3089 2.984 . S
U3086 C3090 2.847 . S
U3086 C3103 2.882 . S
U3086 O3104 2.441 . S
U3086 O3105 2.420 . S
U3086 O3106 2.455 . S
U3086 O3107 2.449 . S
O3087 U3086 2.454 . S
O3087 C3089 1.353 . S
O3088 U3086 2.458 . S
O3088 C3089 1.286 . S
C3089 U3086 2.984 . S
C3089 O3087 1.353 . S
C3089 O3088 1.286 . S
C3089 C3091 1.363 . S
C3090 C3080 1.465 . S
C3090 U3086 2.847 . S
C3090 O3104 1.249 . S
C3090 O3105 1.202 . S
C3091 C3089 1.363 . S
C3091 C3093 1.408 . S
C3091 C3096 1.342 . S
C3092 C3093 1.310 . S
C3092 C3095 1.461 . S
C3092 H3112 0.932 . S
C3093 C3091 1.408 . S
C3093 C3092 1.310 . S
C3093 H3113 0.930 . S
C3094 C3095 1.474 . S
C3094 C3096 1.285 . S
C3094 H3114 0.929 . S
C3095 C3092 1.461 . S
C3095 C3094 1.474 . S
C3096 C3091 1.342 . S
C3096 C3094 1.285 . S
C3096 H3115 0.930 . S
C3097 C3100 1.424 . S
C3097 C3102 1.245 . S
C3097 C3103 1.428 . S
C3098 C3101 1.260 . S
C3098 C3102 1.477 . S
C3098 H3116 0.932 . S
C3099 C3100 1.384 . S
C3099 C3101 1.479 . S
C3099 H3117 0.929 . S
C3100 C3097 1.424 . S
C3100 C3099 1.384 . S
C3100 H3118 0.928 . S
C3101 C3098 1.260 . S
C3101 C3099 1.479 . S
C3102 C3097 1.245 . S
C3102 C3098 1.477 . S
C3102 H3119 0.932 . S
C3103 U3086 2.882 . S
C3103 C3097 1.428 . S
C3103 O3106 1.301 . S
C3103 O3107 1.282 . S
O3104 U3086 2.441 . S
O3104 C3090 1.249 . S
O3105 U3086 2.420 . S
O3105 C3090 1.202 . S
O3106 U3086 2.455 . S
O3106 C3103 1.301 . S
O3107 U3086 2.449 . S
O3107 C3103 1.282 . S
H3108 C3081 0.931 . S
H3109 C3083 0.929 . S
H3110 C3084 0.930 . S
H3111 C3085 0.931 . S
H3112 C3092 0.932 . S
H3113 C3093 0.930 . S
H3114 C3094 0.929 . S
H3115 C3096 0.930 . S
H3116 C3098 0.932 . S
H3117 C3099 0.929 . S
H3118 C3100 0.928 . S
H3119 C3102 0.932 . S
C3120 C3121 1.264 . S
C3120 C3125 1.479 . S
C3120 C3130 1.465 . S
C3121 C3120 1.264 . S
C3121 C3123 1.339 . S
C3121 H3148 0.931 . S
C3122 C3123 1.395 . S
C3122 C3124 1.320 . S
C3123 C3121 1.339 . S
C3123 C3122 1.395 . S
C3123 H3149 0.929 . S
C3124 C3122 1.320 . S
C3124 C3125 1.405 . S
C3124 H3150 0.930 . S
C3125 C3120 1.479 . S
C3125 C3124 1.405 . S
C3125 H3151 0.931 . S
U3126 O3127 2.454 . S
U3126 O3128 2.458 . S
U3126 C3129 2.984 . S
U3126 C3130 2.847 . S
U3126 C3143 2.882 . S
U3126 O3144 2.441 . S
U3126 O3145 2.420 . S
U3126 O3146 2.455 . S
U3126 O3147 2.449 . S
O3127 U3126 2.454 . S
O3127 C3129 1.353 . S
O3128 U3126 2.458 . S
O3128 C3129 1.286 . S
C3129 U3126 2.984 . S
C3129 O3127 1.353 . S
C3129 O3128 1.286 . S
C3129 C3131 1.363 . S
C3130 C3120 1.465 . S
C3130 U3126 2.847 . S
C3130 O3144 1.249 . S
C3130 O3145 1.202 . S
C3131 C3129 1.363 . S
C3131 C3133 1.408 . S
C3131 C3136 1.342 . S
C3132 C3133 1.310 . S
C3132 C3135 1.461 . S
C3132 H3152 0.932 . S
C3133 C3131 1.408 . S
C3133 C3132 1.310 . S
C3133 H3153 0.930 . S
C3134 C3135 1.474 . S
C3134 C3136 1.285 . S
C3134 H3154 0.929 . S
C3135 C3132 1.461 . S
C3135 C3134 1.474 . S
C3136 C3131 1.342 . S
C3136 C3134 1.285 . S
C3136 H3155 0.930 . S
C3137 C3140 1.424 . S
C3137 C3142 1.245 . S
C3137 C3143 1.428 . S
C3138 C3141 1.260 . S
C3138 C3142 1.477 . S
C3138 H3156 0.932 . S
C3139 C3140 1.384 . S
C3139 C3141 1.479 . S
C3139 H3157 0.929 . S
C3140 C3137 1.424 . S
C3140 C3139 1.384 . S
C3140 H3158 0.928 . S
C3141 C3138 1.260 . S
C3141 C3139 1.479 . S
C3142 C3137 1.245 . S
C3142 C3138 1.477 . S
C3142 H3159 0.932 . S
C3143 U3126 2.882 . S
C3143 C3137 1.428 . S
C3143 O3146 1.301 . S
C3143 O3147 1.282 . S
O3144 U3126 2.441 . S
O3144 C3130 1.249 . S
O3145 U3126 2.420 . S
O3145 C3130 1.202 . S
O3146 U3126 2.455 . S
O3146 C3143 1.301 . S
O3147 U3126 2.449 . S
O3147 C3143 1.282 . S
H3148 C3121 0.931 . S
H3149 C3123 0.929 . S
H3150 C3124 0.930 . S
H3151 C3125 0.931 . S
H3152 C3132 0.932 . S
H3153 C3133 0.930 . S
H3154 C3134 0.929 . S
H3155 C3136 0.930 . S
H3156 C3138 0.932 . S
H3157 C3139 0.929 . S
H3158 C3140 0.928 . S
H3159 C3142 0.932 . S
C3160 C3161 1.264 . S
C3160 C3165 1.479 . S
C3160 C3170 1.465 . S
C3161 C3160 1.264 . S
C3161 C3163 1.339 . S
C3161 H3188 0.931 . S
C3162 C3163 1.395 . S
C3162 C3164 1.320 . S
C3163 C3161 1.339 . S
C3163 C3162 1.395 . S
C3163 H3189 0.929 . S
C3164 C3162 1.320 . S
C3164 C3165 1.405 . S
C3164 H3190 0.930 . S
C3165 C3160 1.479 . S
C3165 C3164 1.405 . S
C3165 H3191 0.931 . S
U3166 O3167 2.454 . S
U3166 O3168 2.458 . S
U3166 C3169 2.984 . S
U3166 C3170 2.847 . S
U3166 C3183 2.882 . S
U3166 O3184 2.441 . S
U3166 O3185 2.420 . S
U3166 O3186 2.455 . S
U3166 O3187 2.449 . S
O3167 U3166 2.454 . S
O3167 C3169 1.353 . S
O3168 U3166 2.458 . S
O3168 C3169 1.286 . S
C3169 U3166 2.984 . S
C3169 O3167 1.353 . S
C3169 O3168 1.286 . S
C3169 C3171 1.363 . S
C3170 C3160 1.465 . S
C3170 U3166 2.847 . S
C3170 O3184 1.249 . S
C3170 O3185 1.202 . S
C3171 C3169 1.363 . S
C3171 C3173 1.408 . S
C3171 C3176 1.342 . S
C3172 C3173 1.310 . S
C3172 C3175 1.461 . S
C3172 H3192 0.932 . S
C3173 C3171 1.408 . S
C3173 C3172 1.310 . S
C3173 H3193 0.930 . S
C3174 C3175 1.474 . S
C3174 C3176 1.285 . S
C3174 H3194 0.929 . S
C3175 C3172 1.461 . S
C3175 C3174 1.474 . S
C3176 C3171 1.342 . S
C3176 C3174 1.285 . S
C3176 H3195 0.930 . S
C3177 C3180 1.424 . S
C3177 C3182 1.245 . S
C3177 C3183 1.428 . S
C3178 C3181 1.260 . S
C3178 C3182 1.477 . S
C3178 H3196 0.932 . S
C3179 C3180 1.384 . S
C3179 C3181 1.479 . S
C3179 H3197 0.929 . S
C3180 C3177 1.424 . S
C3180 C3179 1.384 . S
C3180 H3198 0.928 . S
C3181 C3178 1.260 . S
C3181 C3179 1.479 . S
C3182 C3177 1.245 . S
C3182 C3178 1.477 . S
C3182 H3199 0.932 . S
C3183 U3166 2.882 . S
C3183 C3177 1.428 . S
C3183 O3186 1.301 . S
C3183 O3187 1.282 . S
O3184 U3166 2.441 . S
O3184 C3170 1.249 . S
O3185 U3166 2.420 . S
O3185 C3170 1.202 . S
O3186 U3166 2.455 . S
O3186 C3183 1.301 . S
O3187 U3166 2.449 . S
O3187 C3183 1.282 . S
H3188 C3161 0.931 . S
H3189 C3163 0.929 . S
H3190 C3164 0.930 . S
H3191 C3165 0.931 . S
H3192 C3172 0.932 . S
H3193 C3173 0.930 . S
H3194 C3174 0.929 . S
H3195 C3176 0.930 . S
H3196 C3178 0.932 . S
H3197 C3179 0.929 . S
H3198 C3180 0.928 . S
H3199 C3182 0.932 . S
C3200 C3201 1.264 . S
C3200 C3205 1.479 . S
C3200 C3210 1.465 . S
C3201 C3200 1.264 . S
C3201 C3203 1.339 . S
C3201 H3228 0.931 . S
C3202 C3203 1.395 . S
C3202 C3204 1.320 . S
C3203 C3201 1.339 . S
C3203 C3202 1.395 . S
C3203 H3229 0.929 . S
C3204 C3202 1.320 . S
C3204 C3205 1.405 . S
C3204 H3230 0.930 . S
C3205 C3200 1.479 . S
C3205 C3204 1.405 . S
C3205 H3231 0.931 . S
U3206 O3207 2.454 . S
U3206 O3208 2.458 . S
U3206 C3209 2.984 . S
U3206 C3210 2.847 . S
U3206 C3223 2.882 . S
U3206 O3224 2.441 . S
U3206 O3225 2.420 . S
U3206 O3226 2.455 . S
U3206 O3227 2.449 . S
O3207 U3206 2.454 . S
O3207 C3209 1.353 . S
O3208 U3206 2.458 . S
O3208 C3209 1.286 . S
C3209 U3206 2.984 . S
C3209 O3207 1.353 . S
C3209 O3208 1.286 . S
C3209 C3211 1.363 . S
C3210 C3200 1.465 . S
C3210 U3206 2.847 . S
C3210 O3224 1.249 . S
C3210 O3225 1.202 . S
C3211 C3209 1.363 . S
C3211 C3213 1.408 . S
C3211 C3216 1.342 . S
C3212 C3213 1.310 . S
C3212 C3215 1.461 . S
C3212 H3232 0.932 . S
C3213 C3211 1.408 . S
C3213 C3212 1.310 . S
C3213 H3233 0.930 . S
C3214 C3215 1.474 . S
C3214 C3216 1.285 . S
C3214 H3234 0.929 . S
C3215 C3212 1.461 . S
C3215 C3214 1.474 . S
C3216 C3211 1.342 . S
C3216 C3214 1.285 . S
C3216 H3235 0.930 . S
C3217 C3220 1.424 . S
C3217 C3222 1.245 . S
C3217 C3223 1.428 . S
C3218 C3221 1.260 . S
C3218 C3222 1.477 . S
C3218 H3236 0.932 . S
C3219 C3220 1.384 . S
C3219 C3221 1.479 . S
C3219 H3237 0.929 . S
C3220 C3217 1.424 . S
C3220 C3219 1.384 . S
C3220 H3238 0.928 . S
C3221 C3218 1.260 . S
C3221 C3219 1.479 . S
C3222 C3217 1.245 . S
C3222 C3218 1.477 . S
C3222 H3239 0.932 . S
C3223 U3206 2.882 . S
C3223 C3217 1.428 . S
C3223 O3226 1.301 . S
C3223 O3227 1.282 . S
O3224 U3206 2.441 . S
O3224 C3210 1.249 . S
O3225 U3206 2.420 . S
O3225 C3210 1.202 . S
O3226 U3206 2.455 . S
O3226 C3223 1.301 . S
O3227 U3206 2.449 . S
O3227 C3223 1.282 . S
H3228 C3201 0.931 . S
H3229 C3203 0.929 . S
H3230 C3204 0.930 . S
H3231 C3205 0.931 . S
H3232 C3212 0.932 . S
H3233 C3213 0.930 . S
H3234 C3214 0.929 . S
H3235 C3216 0.930 . S
H3236 C3218 0.932 . S
H3237 C3219 0.929 . S
H3238 C3220 0.928 . S
H3239 C3222 0.932 . S
C3240 C3241 1.264 . S
C3240 C3245 1.479 . S
C3240 C3250 1.465 . S
C3241 C3240 1.264 . S
C3241 C3243 1.339 . S
C3241 H3268 0.931 . S
C3242 C3243 1.395 . S
C3242 C3244 1.320 . S
C3243 C3241 1.339 . S
C3243 C3242 1.395 . S
C3243 H3269 0.929 . S
C3244 C3242 1.320 . S
C3244 C3245 1.405 . S
C3244 H3270 0.930 . S
C3245 C3240 1.479 . S
C3245 C3244 1.405 . S
C3245 H3271 0.931 . S
U3246 O3247 2.454 . S
U3246 O3248 2.458 . S
U3246 C3249 2.984 . S
U3246 C3250 2.847 . S
U3246 C3263 2.882 . S
U3246 O3264 2.441 . S
U3246 O3265 2.420 . S
U3246 O3266 2.455 . S
U3246 O3267 2.449 . S
O3247 U3246 2.454 . S
O3247 C3249 1.353 . S
O3248 U3246 2.458 . S
O3248 C3249 1.286 . S
C3249 U3246 2.984 . S
C3249 O3247 1.353 . S
C3249 O3248 1.286 . S
C3249 C3251 1.363 . S
C3250 C3240 1.465 . S
C3250 U3246 2.847 . S
C3250 O3264 1.249 . S
C3250 O3265 1.202 . S
C3251 C3249 1.363 . S
C3251 C3253 1.408 . S
C3251 C3256 1.342 . S
C3252 C3253 1.310 . S
C3252 C3255 1.461 . S
C3252 H3272 0.932 . S
C3253 C3251 1.408 . S
C3253 C3252 1.310 . S
C3253 H3273 0.930 . S
C3254 C3255 1.474 . S
C3254 C3256 1.285 . S
C3254 H3274 0.929 . S
C3255 C3252 1.461 . S
C3255 C3254 1.474 . S
C3256 C3251 1.342 . S
C3256 C3254 1.285 . S
C3256 H3275 0.930 . S
C3257 C3260 1.424 . S
C3257 C3262 1.245 . S
C3257 C3263 1.428 . S
C3258 C3261 1.260 . S
C3258 C3262 1.477 . S
C3258 H3276 0.932 . S
C3259 C3260 1.384 . S
C3259 C3261 1.479 . S
C3259 H3277 0.929 . S
C3260 C3257 1.424 . S
C3260 C3259 1.384 . S
C3260 H3278 0.928 . S
C3261 C3258 1.260 . S
C3261 C3259 1.479 . S
C3262 C3257 1.245 . S
C3262 C3258 1.477 . S
C3262 H3279 0.932 . S
C3263 U3246 2.882 . S
C3263 C3257 1.428 . S
C3263 O3266 1.301 . S
C3263 O3267 1.282 . S
O3264 U3246 2.441 . S
O3264 C3250 1.249 . S
O3265 U3246 2.420 . S
O3265 C3250 1.202 . S
O3266 U3246 2.455 . S
O3266 C3263 1.301 . S
O3267 U3246 2.449 . S
O3267 C3263 1.282 . S
H3268 C3241 0.931 . S
H3269 C3243 0.929 . S
H3270 C3244 0.930 . S
H3271 C3245 0.931 . S
H3272 C3252 0.932 . S
H3273 C3253 0.930 . S
H3274 C3254 0.929 . S
H3275 C3256 0.930 . S
H3276 C3258 0.932 . S
H3277 C3259 0.929 . S
H3278 C3260 0.928 . S
H3279 C3262 0.932 . S
C3280 C3281 1.264 . S
C3280 C3285 1.479 . S
C3280 C3290 1.465 . S
C3281 C3280 1.264 . S
C3281 C3283 1.339 . S
C3281 H3308 0.931 . S
C3282 C3283 1.395 . S
C3282 C3284 1.320 . S
C3283 C3281 1.339 . S
C3283 C3282 1.395 . S
C3283 H3309 0.929 . S
C3284 C3282 1.320 . S
C3284 C3285 1.405 . S
C3284 H3310 0.930 . S
C3285 C3280 1.479 . S
C3285 C3284 1.405 . S
C3285 H3311 0.931 . S
U3286 O3287 2.454 . S
U3286 O3288 2.458 . S
U3286 C3289 2.984 . S
U3286 C3290 2.847 . S
U3286 C3303 2.882 . S
U3286 O3304 2.441 . S
U3286 O3305 2.420 . S
U3286 O3306 2.455 . S
U3286 O3307 2.449 . S
O3287 U3286 2.454 . S
O3287 C3289 1.353 . S
O3288 U3286 2.458 . S
O3288 C3289 1.286 . S
C3289 U3286 2.984 . S
C3289 O3287 1.353 . S
C3289 O3288 1.286 . S
C3289 C3291 1.363 . S
C3290 C3280 1.465 . S
C3290 U3286 2.847 . S
C3290 O3304 1.249 . S
C3290 O3305 1.202 . S
C3291 C3289 1.363 . S
C3291 C3293 1.408 . S
C3291 C3296 1.342 . S
C3292 C3293 1.310 . S
C3292 C3295 1.461 . S
C3292 H3312 0.932 . S
C3293 C3291 1.408 . S
C3293 C3292 1.310 . S
C3293 H3313 0.930 . S
C3294 C3295 1.474 . S
C3294 C3296 1.285 . S
C3294 H3314 0.929 . S
C3295 C3292 1.461 . S
C3295 C3294 1.474 . S
C3296 C3291 1.342 . S
C3296 C3294 1.285 . S
C3296 H3315 0.930 . S
C3297 C3300 1.424 . S
C3297 C3302 1.245 . S
C3297 C3303 1.428 . S
C3298 C3301 1.260 . S
C3298 C3302 1.477 . S
C3298 H3316 0.932 . S
C3299 C3300 1.384 . S
C3299 C3301 1.479 . S
C3299 H3317 0.929 . S
C3300 C3297 1.424 . S
C3300 C3299 1.384 . S
C3300 H3318 0.928 . S
C3301 C3298 1.260 . S
C3301 C3299 1.479 . S
C3302 C3297 1.245 . S
C3302 C3298 1.477 . S
C3302 H3319 0.932 . S
C3303 U3286 2.882 . S
C3303 C3297 1.428 . S
C3303 O3306 1.301 . S
C3303 O3307 1.282 . S
O3304 U3286 2.441 . S
O3304 C3290 1.249 . S
O3305 U3286 2.420 . S
O3305 C3290 1.202 . S
O3306 U3286 2.455 . S
O3306 C3303 1.301 . S
O3307 U3286 2.449 . S
O3307 C3303 1.282 . S
H3308 C3281 0.931 . S
H3309 C3283 0.929 . S
H3310 C3284 0.930 . S
H3311 C3285 0.931 . S
H3312 C3292 0.932 . S
H3313 C3293 0.930 . S
H3314 C3294 0.929 . S
H3315 C3296 0.930 . S
H3316 C3298 0.932 . S
H3317 C3299 0.929 . S
H3318 C3300 0.928 . S
H3319 C3302 0.932 . S
C3320 C3321 1.264 . S
C3320 C3325 1.479 . S
C3320 C3330 1.465 . S
C3321 C3320 1.264 . S
C3321 C3323 1.339 . S
C3321 H3348 0.931 . S
C3322 C3323 1.395 . S
C3322 C3324 1.320 . S
C3323 C3321 1.339 . S
C3323 C3322 1.395 . S
C3323 H3349 0.929 . S
C3324 C3322 1.320 . S
C3324 C3325 1.405 . S
C3324 H3350 0.930 . S
C3325 C3320 1.479 . S
C3325 C3324 1.405 . S
C3325 H3351 0.931 . S
U3326 O3327 2.454 . S
U3326 O3328 2.458 . S
U3326 C3329 2.984 . S
U3326 C3330 2.847 . S
U3326 C3343 2.882 . S
U3326 O3344 2.441 . S
U3326 O3345 2.420 . S
U3326 O3346 2.455 . S
U3326 O3347 2.449 . S
O3327 U3326 2.454 . S
O3327 C3329 1.353 . S
O3328 U3326 2.458 . S
O3328 C3329 1.286 . S
C3329 U3326 2.984 . S
C3329 O3327 1.353 . S
C3329 O3328 1.286 . S
C3329 C3331 1.363 . S
C3330 C3320 1.465 . S
C3330 U3326 2.847 . S
C3330 O3344 1.249 . S
C3330 O3345 1.202 . S
C3331 C3329 1.363 . S
C3331 C3333 1.408 . S
C3331 C3336 1.342 . S
C3332 C3333 1.310 . S
C3332 C3335 1.461 . S
C3332 H3352 0.932 . S
C3333 C3331 1.408 . S
C3333 C3332 1.310 . S
C3333 H3353 0.930 . S
C3334 C3335 1.474 . S
C3334 C3336 1.285 . S
C3334 H3354 0.929 . S
C3335 C3332 1.461 . S
C3335 C3334 1.474 . S
C3336 C3331 1.342 . S
C3336 C3334 1.285 . S
C3336 H3355 0.930 . S
C3337 C3340 1.424 . S
C3337 C3342 1.245 . S
C3337 C3343 1.428 . S
C3338 C3341 1.260 . S
C3338 C3342 1.477 . S
C3338 H3356 0.932 . S
C3339 C3340 1.384 . S
C3339 C3341 1.479 . S
C3339 H3357 0.929 . S
C3340 C3337 1.424 . S
C3340 C3339 1.384 . S
C3340 H3358 0.928 . S
C3341 C3338 1.260 . S
C3341 C3339 1.479 . S
C3342 C3337 1.245 . S
C3342 C3338 1.477 . S
C3342 H3359 0.932 . S
C3343 U3326 2.882 . S
C3343 C3337 1.428 . S
C3343 O3346 1.301 . S
C3343 O3347 1.282 . S
O3344 U3326 2.441 . S
O3344 C3330 1.249 . S
O3345 U3326 2.420 . S
O3345 C3330 1.202 . S
O3346 U3326 2.455 . S
O3346 C3343 1.301 . S
O3347 U3326 2.449 . S
O3347 C3343 1.282 . S
H3348 C3321 0.931 . S
H3349 C3323 0.929 . S
H3350 C3324 0.930 . S
H3351 C3325 0.931 . S
H3352 C3332 0.932 . S
H3353 C3333 0.930 . S
H3354 C3334 0.929 . S
H3355 C3336 0.930 . S
H3356 C3338 0.932 . S
H3357 C3339 0.929 . S
H3358 C3340 0.928 . S
H3359 C3342 0.932 . S
C3360 C3361 1.264 . S
C3360 C3365 1.479 . S
C3360 C3370 1.465 . S
C3361 C3360 1.264 . S
C3361 C3363 1.339 . S
C3361 H3388 0.931 . S
C3362 C3363 1.395 . S
C3362 C3364 1.320 . S
C3363 C3361 1.339 . S
C3363 C3362 1.395 . S
C3363 H3389 0.929 . S
C3364 C3362 1.320 . S
C3364 C3365 1.405 . S
C3364 H3390 0.930 . S
C3365 C3360 1.479 . S
C3365 C3364 1.405 . S
C3365 H3391 0.931 . S
U3366 O3367 2.454 . S
U3366 O3368 2.458 . S
U3366 C3369 2.984 . S
U3366 C3370 2.847 . S
U3366 C3383 2.882 . S
U3366 O3384 2.441 . S
U3366 O3385 2.420 . S
U3366 O3386 2.455 . S
U3366 O3387 2.449 . S
O3367 U3366 2.454 . S
O3367 C3369 1.353 . S
O3368 U3366 2.458 . S
O3368 C3369 1.286 . S
C3369 U3366 2.984 . S
C3369 O3367 1.353 . S
C3369 O3368 1.286 . S
C3369 C3371 1.363 . S
C3370 C3360 1.465 . S
C3370 U3366 2.847 . S
C3370 O3384 1.249 . S
C3370 O3385 1.202 . S
C3371 C3369 1.363 . S
C3371 C3373 1.408 . S
C3371 C3376 1.342 . S
C3372 C3373 1.310 . S
C3372 C3375 1.461 . S
C3372 H3392 0.932 . S
C3373 C3371 1.408 . S
C3373 C3372 1.310 . S
C3373 H3393 0.930 . S
C3374 C3375 1.474 . S
C3374 C3376 1.285 . S
C3374 H3394 0.929 . S
C3375 C3372 1.461 . S
C3375 C3374 1.474 . S
C3376 C3371 1.342 . S
C3376 C3374 1.285 . S
C3376 H3395 0.930 . S
C3377 C3380 1.424 . S
C3377 C3382 1.245 . S
C3377 C3383 1.428 . S
C3378 C3381 1.260 . S
C3378 C3382 1.477 . S
C3378 H3396 0.932 . S
C3379 C3380 1.384 . S
C3379 C3381 1.479 . S
C3379 H3397 0.929 . S
C3380 C3377 1.424 . S
C3380 C3379 1.384 . S
C3380 H3398 0.928 . S
C3381 C3378 1.260 . S
C3381 C3379 1.479 . S
C3382 C3377 1.245 . S
C3382 C3378 1.477 . S
C3382 H3399 0.932 . S
C3383 U3366 2.882 . S
C3383 C3377 1.428 . S
C3383 O3386 1.301 . S
C3383 O3387 1.282 . S
O3384 U3366 2.441 . S
O3384 C3370 1.249 . S
O3385 U3366 2.420 . S
O3385 C3370 1.202 . S
O3386 U3366 2.455 . S
O3386 C3383 1.301 . S
O3387 U3366 2.449 . S
O3387 C3383 1.282 . S
H3388 C3361 0.931 . S
H3389 C3363 0.929 . S
H3390 C3364 0.930 . S
H3391 C3365 0.931 . S
H3392 C3372 0.932 . S
H3393 C3373 0.930 . S
H3394 C3374 0.929 . S
H3395 C3376 0.930 . S
H3396 C3378 0.932 . S
H3397 C3379 0.929 . S
H3398 C3380 0.928 . S
H3399 C3382 0.932 . S
C3400 C3401 1.264 . S
C3400 C3405 1.479 . S
C3400 C3410 1.465 . S
C3401 C3400 1.264 . S
C3401 C3403 1.339 . S
C3401 H3428 0.931 . S
C3402 C3403 1.395 . S
C3402 C3404 1.320 . S
C3403 C3401 1.339 . S
C3403 C3402 1.395 . S
C3403 H3429 0.929 . S
C3404 C3402 1.320 . S
C3404 C3405 1.405 . S
C3404 H3430 0.930 . S
C3405 C3400 1.479 . S
C3405 C3404 1.405 . S
C3405 H3431 0.931 . S
U3406 O3407 2.454 . S
U3406 O3408 2.458 . S
U3406 C3409 2.984 . S
U3406 C3410 2.847 . S
U3406 C3423 2.882 . S
U3406 O3424 2.441 . S
U3406 O3425 2.420 . S
U3406 O3426 2.455 . S
U3406 O3427 2.449 . S
O3407 U3406 2.454 . S
O3407 C3409 1.353 . S
O3408 U3406 2.458 . S
O3408 C3409 1.286 . S
C3409 U3406 2.984 . S
C3409 O3407 1.353 . S
C3409 O3408 1.286 . S
C3409 C3411 1.363 . S
C3410 C3400 1.465 . S
C3410 U3406 2.847 . S
C3410 O3424 1.249 . S
C3410 O3425 1.202 . S
C3411 C3409 1.363 . S
C3411 C3413 1.408 . S
C3411 C3416 1.342 . S
C3412 C3413 1.310 . S
C3412 C3415 1.461 . S
C3412 H3432 0.932 . S
C3413 C3411 1.408 . S
C3413 C3412 1.310 . S
C3413 H3433 0.930 . S
C3414 C3415 1.474 . S
C3414 C3416 1.285 . S
C3414 H3434 0.929 . S
C3415 C3412 1.461 . S
C3415 C3414 1.474 . S
C3416 C3411 1.342 . S
C3416 C3414 1.285 . S
C3416 H3435 0.930 . S
C3417 C3420 1.424 . S
C3417 C3422 1.245 . S
C3417 C3423 1.428 . S
C3418 C3421 1.260 . S
C3418 C3422 1.477 . S
C3418 H3436 0.932 . S
C3419 C3420 1.384 . S
C3419 C3421 1.479 . S
C3419 H3437 0.929 . S
C3420 C3417 1.424 . S
C3420 C3419 1.384 . S
C3420 H3438 0.928 . S
C3421 C3418 1.260 . S
C3421 C3419 1.479 . S
C3422 C3417 1.245 . S
C3422 C3418 1.477 . S
C3422 H3439 0.932 . S
C3423 U3406 2.882 . S
C3423 C3417 1.428 . S
C3423 O3426 1.301 . S
C3423 O3427 1.282 . S
O3424 U3406 2.441 . S
O3424 C3410 1.249 . S
O3425 U3406 2.420 . S
O3425 C3410 1.202 . S
O3426 U3406 2.455 . S
O3426 C3423 1.301 . S
O3427 U3406 2.449 . S
O3427 C3423 1.282 . S
H3428 C3401 0.931 . S
H3429 C3403 0.929 . S
H3430 C3404 0.930 . S
H3431 C3405 0.931 . S
H3432 C3412 0.932 . S
H3433 C3413 0.930 . S
H3434 C3414 0.929 . S
H3435 C3416 0.930 . S
H3436 C3418 0.932 . S
H3437 C3419 0.929 . S
H3438 C3420 0.928 . S
H3439 C3422 0.932 . S
C3440 C3441 1.264 . S
C3440 C3445 1.479 . S
C3440 C3450 1.465 . S
C3441 C3440 1.264 . S
C3441 C3443 1.339 . S
C3441 H3468 0.931 . S
C3442 C3443 1.395 . S
C3442 C3444 1.320 . S
C3443 C3441 1.339 . S
C3443 C3442 1.395 . S
C3443 H3469 0.929 . S
C3444 C3442 1.320 . S
C3444 C3445 1.405 . S
C3444 H3470 0.930 . S
C3445 C3440 1.479 . S
C3445 C3444 1.405 . S
C3445 H3471 0.931 . S
U3446 O3447 2.454 . S
U3446 O3448 2.458 . S
U3446 C3449 2.984 . S
U3446 C3450 2.847 . S
U3446 C3463 2.882 . S
U3446 O3464 2.441 . S
U3446 O3465 2.420 . S
U3446 O3466 2.455 . S
U3446 O3467 2.449 . S
O3447 U3446 2.454 . S
O3447 C3449 1.353 . S
O3448 U3446 2.458 . S
O3448 C3449 1.286 . S
C3449 U3446 2.984 . S
C3449 O3447 1.353 . S
C3449 O3448 1.286 . S
C3449 C3451 1.363 . S
C3450 C3440 1.465 . S
C3450 U3446 2.847 . S
C3450 O3464 1.249 . S
C3450 O3465 1.202 . S
C3451 C3449 1.363 . S
C3451 C3453 1.408 . S
C3451 C3456 1.342 . S
C3452 C3453 1.310 . S
C3452 C3455 1.461 . S
C3452 H3472 0.932 . S
C3453 C3451 1.408 . S
C3453 C3452 1.310 . S
C3453 H3473 0.930 . S
C3454 C3455 1.474 . S
C3454 C3456 1.285 . S
C3454 H3474 0.929 . S
C3455 C3452 1.461 . S
C3455 C3454 1.474 . S
C3456 C3451 1.342 . S
C3456 C3454 1.285 . S
C3456 H3475 0.930 . S
C3457 C3460 1.424 . S
C3457 C3462 1.245 . S
C3457 C3463 1.428 . S
C3458 C3461 1.260 . S
C3458 C3462 1.477 . S
C3458 H3476 0.932 . S
C3459 C3460 1.384 . S
C3459 C3461 1.479 . S
C3459 H3477 0.929 . S
C3460 C3457 1.424 . S
C3460 C3459 1.384 . S
C3460 H3478 0.928 . S
C3461 C3458 1.260 . S
C3461 C3459 1.479 . S
C3462 C3457 1.245 . S
C3462 C3458 1.477 . S
C3462 H3479 0.932 . S
C3463 U3446 2.882 . S
C3463 C3457 1.428 . S
C3463 O3466 1.301 . S
C3463 O3467 1.282 . S
O3464 U3446 2.441 . S
O3464 C3450 1.249 . S
O3465 U3446 2.420 . S
O3465 C3450 1.202 . S
O3466 U3446 2.455 . S
O3466 C3463 1.301 . S
O3467 U3446 2.449 . S
O3467 C3463 1.282 . S
H3468 C3441 0.931 . S
H3469 C3443 0.929 . S
H3470 C3444 0.930 . S
H3471 C3445 0.931 . S
H3472 C3452 0.932 . S
H3473 C3453 0.930 . S
H3474 C3454 0.929 . S
H3475 C3456 0.930 . S
H3476 C3458 0.932 . S
H3477 C3459 0.929 . S
H3478 C3460 0.928 . S
H3479 C3462 0.932 . S
C3480 C3481 1.264 . S
C3480 C3485 1.479 . S
C3480 C3490 1.465 . S
C3481 C3480 1.264 . S
C3481 C3483 1.339 . S
C3481 H3508 0.931 . S
C3482 C3483 1.395 . S
C3482 C3484 1.320 . S
C3483 C3481 1.339 . S
C3483 C3482 1.395 . S
C3483 H3509 0.929 . S
C3484 C3482 1.320 . S
C3484 C3485 1.405 . S
C3484 H3510 0.930 . S
C3485 C3480 1.479 . S
C3485 C3484 1.405 . S
C3485 H3511 0.931 . S
U3486 O3487 2.454 . S
U3486 O3488 2.458 . S
U3486 C3489 2.984 . S
U3486 C3490 2.847 . S
U3486 C3503 2.882 . S
U3486 O3504 2.441 . S
U3486 O3505 2.420 . S
U3486 O3506 2.455 . S
U3486 O3507 2.449 . S
O3487 U3486 2.454 . S
O3487 C3489 1.353 . S
O3488 U3486 2.458 . S
O3488 C3489 1.286 . S
C3489 U3486 2.984 . S
C3489 O3487 1.353 . S
C3489 O3488 1.286 . S
C3489 C3491 1.363 . S
C3490 C3480 1.465 . S
C3490 U3486 2.847 . S
C3490 O3504 1.249 . S
C3490 O3505 1.202 . S
C3491 C3489 1.363 . S
C3491 C3493 1.408 . S
C3491 C3496 1.342 . S
C3492 C3493 1.310 . S
C3492 C3495 1.461 . S
C3492 H3512 0.932 . S
C3493 C3491 1.408 . S
C3493 C3492 1.310 . S
C3493 H3513 0.930 . S
C3494 C3495 1.474 . S
C3494 C3496 1.285 . S
C3494 H3514 0.929 . S
C3495 C3492 1.461 . S
C3495 C3494 1.474 . S
C3496 C3491 1.342 . S
C3496 C3494 1.285 . S
C3496 H3515 0.930 . S
C3497 C3500 1.424 . S
C3497 C3502 1.245 . S
C3497 C3503 1.428 . S
C3498 C3501 1.260 . S
C3498 C3502 1.477 . S
C3498 H3516 0.932 . S
C3499 C3500 1.384 . S
C3499 C3501 1.479 . S
C3499 H3517 0.929 . S
C3500 C3497 1.424 . S
C3500 C3499 1.384 . S
C3500 H3518 0.928 . S
C3501 C3498 1.260 . S
C3501 C3499 1.479 . S
C3502 C3497 1.245 . S
C3502 C3498 1.477 . S
C3502 H3519 0.932 . S
C3503 U3486 2.882 . S
C3503 C3497 1.428 . S
C3503 O3506 1.301 . S
C3503 O3507 1.282 . S
O3504 U3486 2.441 . S
O3504 C3490 1.249 . S
O3505 U3486 2.420 . S
O3505 C3490 1.202 . S
O3506 U3486 2.455 . S
O3506 C3503 1.301 . S
O3507 U3486 2.449 . S
O3507 C3503 1.282 . S
H3508 C3481 0.931 . S
H3509 C3483 0.929 . S
H3510 C3484 0.930 . S
H3511 C3485 0.931 . S
H3512 C3492 0.932 . S
H3513 C3493 0.930 . S
H3514 C3494 0.929 . S
H3515 C3496 0.930 . S
H3516 C3498 0.932 . S
H3517 C3499 0.929 . S
H3518 C3500 0.928 . S
H3519 C3502 0.932 . S
C3520 C3521 1.264 . S
C3520 C3525 1.479 . S
C3520 C3530 1.465 . S
C3521 C3520 1.264 . S
C3521 C3523 1.339 . S
C3521 H3548 0.931 . S
C3522 C3523 1.395 . S
C3522 C3524 1.320 . S
C3523 C3521 1.339 . S
C3523 C3522 1.395 . S
C3523 H3549 0.929 . S
C3524 C3522 1.320 . S
C3524 C3525 1.405 . S
C3524 H3550 0.930 . S
C3525 C3520 1.479 . S
C3525 C3524 1.405 . S
C3525 H3551 0.931 . S
U3526 O3527 2.454 . S
U3526 O3528 2.458 . S
U3526 C3529 2.984 . S
U3526 C3530 2.847 . S
U3526 C3543 2.882 . S
U3526 O3544 2.441 . S
U3526 O3545 2.420 . S
U3526 O3546 2.455 . S
U3526 O3547 2.449 . S
O3527 U3526 2.454 . S
O3527 C3529 1.353 . S
O3528 U3526 2.458 . S
O3528 C3529 1.286 . S
C3529 U3526 2.984 . S
C3529 O3527 1.353 . S
C3529 O3528 1.286 . S
C3529 C3531 1.363 . S
C3530 C3520 1.465 . S
C3530 U3526 2.847 . S
C3530 O3544 1.249 . S
C3530 O3545 1.202 . S
C3531 C3529 1.363 . S
C3531 C3533 1.408 . S
C3531 C3536 1.342 . S
C3532 C3533 1.310 . S
C3532 C3535 1.461 . S
C3532 H3552 0.932 . S
C3533 C3531 1.408 . S
C3533 C3532 1.310 . S
C3533 H3553 0.930 . S
C3534 C3535 1.474 . S
C3534 C3536 1.285 . S
C3534 H3554 0.929 . S
C3535 C3532 1.461 . S
C3535 C3534 1.474 . S
C3536 C3531 1.342 . S
C3536 C3534 1.285 . S
C3536 H3555 0.930 . S
C3537 C3540 1.424 . S
C3537 C3542 1.245 . S
C3537 C3543 1.428 . S
C3538 C3541 1.260 . S
C3538 C3542 1.477 . S
C3538 H3556 0.932 . S
C3539 C3540 1.384 . S
C3539 C3541 1.479 . S
C3539 H3557 0.929 . S
C3540 C3537 1.424 . S
C3540 C3539 1.384 . S
C3540 H3558 0.928 . S
C3541 C3538 1.260 . S
C3541 C3539 1.479 . S
C3542 C3537 1.245 . S
C3542 C3538 1.477 . S
C3542 H3559 0.932 . S
C3543 U3526 2.882 . S
C3543 C3537 1.428 . S
C3543 O3546 1.301 . S
C3543 O3547 1.282 . S
O3544 U3526 2.441 . S
O3544 C3530 1.249 . S
O3545 U3526 2.420 . S
O3545 C3530 1.202 . S
O3546 U3526 2.455 . S
O3546 C3543 1.301 . S
O3547 U3526 2.449 . S
O3547 C3543 1.282 . S
H3548 C3521 0.931 . S
H3549 C3523 0.929 . S
H3550 C3524 0.930 . S
H3551 C3525 0.931 . S
H3552 C3532 0.932 . S
H3553 C3533 0.930 . S
H3554 C3534 0.929 . S
H3555 C3536 0.930 . S
H3556 C3538 0.932 . S
H3557 C3539 0.929 . S
H3558 C3540 0.928 . S
H3559 C3542 0.932 . S
C3560 C3561 1.264 . S
C3560 C3565 1.479 . S
C3560 C3570 1.465 . S
C3561 C3560 1.264 . S
C3561 C3563 1.339 . S
C3561 H3588 0.931 . S
C3562 C3563 1.395 . S
C3562 C3564 1.320 . S
C3563 C3561 1.339 . S
C3563 C3562 1.395 . S
C3563 H3589 0.929 . S
C3564 C3562 1.320 . S
C3564 C3565 1.405 . S
C3564 H3590 0.930 . S
C3565 C3560 1.479 . S
C3565 C3564 1.405 . S
C3565 H3591 0.931 . S
U3566 O3567 2.454 . S
U3566 O3568 2.458 . S
U3566 C3569 2.984 . S
U3566 C3570 2.847 . S
U3566 C3583 2.882 . S
U3566 O3584 2.441 . S
U3566 O3585 2.420 . S
U3566 O3586 2.455 . S
U3566 O3587 2.449 . S
O3567 U3566 2.454 . S
O3567 C3569 1.353 . S
O3568 U3566 2.458 . S
O3568 C3569 1.286 . S
C3569 U3566 2.984 . S
C3569 O3567 1.353 . S
C3569 O3568 1.286 . S
C3569 C3571 1.363 . S
C3570 C3560 1.465 . S
C3570 U3566 2.847 . S
C3570 O3584 1.249 . S
C3570 O3585 1.202 . S
C3571 C3569 1.363 . S
C3571 C3573 1.408 . S
C3571 C3576 1.342 . S
C3572 C3573 1.310 . S
C3572 C3575 1.461 . S
C3572 H3592 0.932 . S
C3573 C3571 1.408 . S
C3573 C3572 1.310 . S
C3573 H3593 0.930 . S
C3574 C3575 1.474 . S
C3574 C3576 1.285 . S
C3574 H3594 0.929 . S
C3575 C3572 1.461 . S
C3575 C3574 1.474 . S
C3576 C3571 1.342 . S
C3576 C3574 1.285 . S
C3576 H3595 0.930 . S
C3577 C3580 1.424 . S
C3577 C3582 1.245 . S
C3577 C3583 1.428 . S
C3578 C3581 1.260 . S
C3578 C3582 1.477 . S
C3578 H3596 0.932 . S
C3579 C3580 1.384 . S
C3579 C3581 1.479 . S
C3579 H3597 0.929 . S
C3580 C3577 1.424 . S
C3580 C3579 1.384 . S
C3580 H3598 0.928 . S
C3581 C3578 1.260 . S
C3581 C3579 1.479 . S
C3582 C3577 1.245 . S
C3582 C3578 1.477 . S
C3582 H3599 0.932 . S
C3583 U3566 2.882 . S
C3583 C3577 1.428 . S
C3583 O3586 1.301 . S
C3583 O3587 1.282 . S
O3584 U3566 2.441 . S
O3584 C3570 1.249 . S
O3585 U3566 2.420 . S
O3585 C3570 1.202 . S
O3586 U3566 2.455 . S
O3586 C3583 1.301 . S
O3587 U3566 2.449 . S
O3587 C3583 1.282 . S
H3588 C3561 0.931 . S
H3589 C3563 0.929 . S
H3590 C3564 0.930 . S
H3591 C3565 0.931 . S
H3592 C3572 0.932 . S
H3593 C3573 0.930 . S
H3594 C3574 0.929 . S
H3595 C3576 0.930 . S
H3596 C3578 0.932 . S
H3597 C3579 0.929 . S
H3598 C3580 0.928 . S
H3599 C3582 0.932 . S
C3600 C3601 1.264 . S
C3600 C3605 1.479 . S
C3600 C3610 1.465 . S
C3601 C3600 1.264 . S
C3601 C3603 1.339 . S
C3601 H3628 0.931 . S
C3602 C3603 1.395 . S
C3602 C3604 1.320 . S
C3603 C3601 1.339 . S
C3603 C3602 1.395 . S
C3603 H3629 0.929 . S
C3604 C3602 1.320 . S
C3604 C3605 1.405 . S
C3604 H3630 0.930 . S
C3605 C3600 1.479 . S
C3605 C3604 1.405 . S
C3605 H3631 0.931 . S
U3606 O3607 2.454 . S
U3606 O3608 2.458 . S
U3606 C3609 2.984 . S
U3606 C3610 2.847 . S
U3606 C3623 2.882 . S
U3606 O3624 2.441 . S
U3606 O3625 2.420 . S
U3606 O3626 2.455 . S
U3606 O3627 2.449 . S
O3607 U3606 2.454 . S
O3607 C3609 1.353 . S
O3608 U3606 2.458 . S
O3608 C3609 1.286 . S
C3609 U3606 2.984 . S
C3609 O3607 1.353 . S
C3609 O3608 1.286 . S
C3609 C3611 1.363 . S
C3610 C3600 1.465 . S
C3610 U3606 2.847 . S
C3610 O3624 1.249 . S
C3610 O3625 1.202 . S
C3611 C3609 1.363 . S
C3611 C3613 1.408 . S
C3611 C3616 1.342 . S
C3612 C3613 1.310 . S
C3612 C3615 1.461 . S
C3612 H3632 0.932 . S
C3613 C3611 1.408 . S
C3613 C3612 1.310 . S
C3613 H3633 0.930 . S
C3614 C3615 1.474 . S
C3614 C3616 1.285 . S
C3614 H3634 0.929 . S
C3615 C3612 1.461 . S
C3615 C3614 1.474 . S
C3616 C3611 1.342 . S
C3616 C3614 1.285 . S
C3616 H3635 0.930 . S
C3617 C3620 1.424 . S
C3617 C3622 1.245 . S
C3617 C3623 1.428 . S
C3618 C3621 1.260 . S
C3618 C3622 1.477 . S
C3618 H3636 0.932 . S
C3619 C3620 1.384 . S
C3619 C3621 1.479 . S
C3619 H3637 0.929 . S
C3620 C3617 1.424 . S
C3620 C3619 1.384 . S
C3620 H3638 0.928 . S
C3621 C3618 1.260 . S
C3621 C3619 1.479 . S
C3622 C3617 1.245 . S
C3622 C3618 1.477 . S
C3622 H3639 0.932 . S
C3623 U3606 2.882 . S
C3623 C3617 1.428 . S
C3623 O3626 1.301 . S
C3623 O3627 1.282 . S
O3624 U3606 2.441 . S
O3624 C3610 1.249 . S
O3625 U3606 2.420 . S
O3625 C3610 1.202 . S
O3626 U3606 2.455 . S
O3626 C3623 1.301 . S
O3627 U3606 2.449 . S
O3627 C3623 1.282 . S
H3628 C3601 0.931 . S
H3629 C3603 0.929 . S
H3630 C3604 0.930 . S
H3631 C3605 0.931 . S
H3632 C3612 0.932 . S
H3633 C3613 0.930 . S
H3634 C3614 0.929 . S
H3635 C3616 0.930 . S
H3636 C3618 0.932 . S
H3637 C3619 0.929 . S
H3638 C3620 0.928 . S
H3639 C3622 0.932 . S
C3640 C3641 1.264 . S
C3640 C3645 1.479 . S
C3640 C3650 1.465 . S
C3641 C3640 1.264 . S
C3641 C3643 1.339 . S
C3641 H3668 0.931 . S
C3642 C3643 1.395 . S
C3642 C3644 1.320 . S
C3643 C3641 1.339 . S
C3643 C3642 1.395 . S
C3643 H3669 0.929 . S
C3644 C3642 1.320 . S
C3644 C3645 1.405 . S
C3644 H3670 0.930 . S
C3645 C3640 1.479 . S
C3645 C3644 1.405 . S
C3645 H3671 0.931 . S
U3646 O3647 2.454 . S
U3646 O3648 2.458 . S
U3646 C3649 2.984 . S
U3646 C3650 2.847 . S
U3646 C3663 2.882 . S
U3646 O3664 2.441 . S
U3646 O3665 2.420 . S
U3646 O3666 2.455 . S
U3646 O3667 2.449 . S
O3647 U3646 2.454 . S
O3647 C3649 1.353 . S
O3648 U3646 2.458 . S
O3648 C3649 1.286 . S
C3649 U3646 2.984 . S
C3649 O3647 1.353 . S
C3649 O3648 1.286 . S
C3649 C3651 1.363 . S
C3650 C3640 1.465 . S
C3650 U3646 2.847 . S
C3650 O3664 1.249 . S
C3650 O3665 1.202 . S
C3651 C3649 1.363 . S
C3651 C3653 1.408 . S
C3651 C3656 1.342 . S
C3652 C3653 1.310 . S
C3652 C3655 1.461 . S
C3652 H3672 0.932 . S
C3653 C3651 1.408 . S
C3653 C3652 1.310 . S
C3653 H3673 0.930 . S
C3654 C3655 1.474 . S
C3654 C3656 1.285 . S
C3654 H3674 0.929 . S
C3655 C3652 1.461 . S
C3655 C3654 1.474 . S
C3656 C3651 1.342 . S
C3656 C3654 1.285 . S
C3656 H3675 0.930 . S
C3657 C3660 1.424 . S
C3657 C3662 1.245 . S
C3657 C3663 1.428 . S
C3658 C3661 1.260 . S
C3658 C3662 1.477 . S
C3658 H3676 0.932 . S
C3659 C3660 1.384 . S
C3659 C3661 1.479 . S
C3659 H3677 0.929 . S
C3660 C3657 1.424 . S
C3660 C3659 1.384 . S
C3660 H3678 0.928 . S
C3661 C3658 1.260 . S
C3661 C3659 1.479 . S
C3662 C3657 1.245 . S
C3662 C3658 1.477 . S
C3662 H3679 0.932 . S
C3663 U3646 2.882 . S
C3663 C3657 1.428 . S
C3663 O3666 1.301 . S
C3663 O3667 1.282 . S
O3664 U3646 2.441 . S
O3664 C3650 1.249 . S
O3665 U3646 2.420 . S
O3665 C3650 1.202 . S
O3666 U3646 2.455 . S
O3666 C3663 1.301 . S
O3667 U3646 2.449 . S
O3667 C3663 1.282 . S
H3668 C3641 0.931 . S
H3669 C3643 0.929 . S
H3670 C3644 0.930 . S
H3671 C3645 0.931 . S
H3672 C3652 0.932 . S
H3673 C3653 0.930 . S
H3674 C3654 0.929 . S
H3675 C3656 0.930 . S
H3676 C3658 0.932 . S
H3677 C3659 0.929 . S
H3678 C3660 0.928 . S
H3679 C3662 0.932 . S
C3680 C3681 1.264 . S
C3680 C3685 1.479 . S
C3680 C3690 1.465 . S
C3681 C3680 1.264 . S
C3681 C3683 1.339 . S
C3681 H3708 0.931 . S
C3682 C3683 1.395 . S
C3682 C3684 1.320 . S
C3683 C3681 1.339 . S
C3683 C3682 1.395 . S
C3683 H3709 0.929 . S
C3684 C3682 1.320 . S
C3684 C3685 1.405 . S
C3684 H3710 0.930 . S
C3685 C3680 1.479 . S
C3685 C3684 1.405 . S
C3685 H3711 0.931 . S
U3686 O3687 2.454 . S
U3686 O3688 2.458 . S
U3686 C3689 2.984 . S
U3686 C3690 2.847 . S
U3686 C3703 2.882 . S
U3686 O3704 2.441 . S
U3686 O3705 2.420 . S
U3686 O3706 2.455 . S
U3686 O3707 2.449 . S
O3687 U3686 2.454 . S
O3687 C3689 1.353 . S
O3688 U3686 2.458 . S
O3688 C3689 1.286 . S
C3689 U3686 2.984 . S
C3689 O3687 1.353 . S
C3689 O3688 1.286 . S
C3689 C3691 1.363 . S
C3690 C3680 1.465 . S
C3690 U3686 2.847 . S
C3690 O3704 1.249 . S
C3690 O3705 1.202 . S
C3691 C3689 1.363 . S
C3691 C3693 1.408 . S
C3691 C3696 1.342 . S
C3692 C3693 1.310 . S
C3692 C3695 1.461 . S
C3692 H3712 0.932 . S
C3693 C3691 1.408 . S
C3693 C3692 1.310 . S
C3693 H3713 0.930 . S
C3694 C3695 1.474 . S
C3694 C3696 1.285 . S
C3694 H3714 0.929 . S
C3695 C3692 1.461 . S
C3695 C3694 1.474 . S
C3696 C3691 1.342 . S
C3696 C3694 1.285 . S
C3696 H3715 0.930 . S
C3697 C3700 1.424 . S
C3697 C3702 1.245 . S
C3697 C3703 1.428 . S
C3698 C3701 1.260 . S
C3698 C3702 1.477 . S
C3698 H3716 0.932 . S
C3699 C3700 1.384 . S
C3699 C3701 1.479 . S
C3699 H3717 0.929 . S
C3700 C3697 1.424 . S
C3700 C3699 1.384 . S
C3700 H3718 0.928 . S
C3701 C3698 1.260 . S
C3701 C3699 1.479 . S
C3702 C3697 1.245 . S
C3702 C3698 1.477 . S
C3702 H3719 0.932 . S
C3703 U3686 2.882 . S
C3703 C3697 1.428 . S
C3703 O3706 1.301 . S
C3703 O3707 1.282 . S
O3704 U3686 2.441 . S
O3704 C3690 1.249 . S
O3705 U3686 2.420 . S
O3705 C3690 1.202 . S
O3706 U3686 2.455 . S
O3706 C3703 1.301 . S
O3707 U3686 2.449 . S
O3707 C3703 1.282 . S
H3708 C3681 0.931 . S
H3709 C3683 0.929 . S
H3710 C3684 0.930 . S
H3711 C3685 0.931 . S
H3712 C3692 0.932 . S
H3713 C3693 0.930 . S
H3714 C3694 0.929 . S
H3715 C3696 0.930 . S
H3716 C3698 0.932 . S
H3717 C3699 0.929 . S
H3718 C3700 0.928 . S
H3719 C3702 0.932 . S
C3720 C3721 1.264 . S
C3720 C3725 1.479 . S
C3720 C3730 1.465 . S
C3721 C3720 1.264 . S
C3721 C3723 1.339 . S
C3721 H3748 0.931 . S
C3722 C3723 1.395 . S
C3722 C3724 1.320 . S
C3723 C3721 1.339 . S
C3723 C3722 1.395 . S
C3723 H3749 0.929 . S
C3724 C3722 1.320 . S
C3724 C3725 1.405 . S
C3724 H3750 0.930 . S
C3725 C3720 1.479 . S
C3725 C3724 1.405 . S
C3725 H3751 0.931 . S
U3726 O3727 2.454 . S
U3726 O3728 2.458 . S
U3726 C3729 2.984 . S
U3726 C3730 2.847 . S
U3726 C3743 2.882 . S
U3726 O3744 2.441 . S
U3726 O3745 2.420 . S
U3726 O3746 2.455 . S
U3726 O3747 2.449 . S
O3727 U3726 2.454 . S
O3727 C3729 1.353 . S
O3728 U3726 2.458 . S
O3728 C3729 1.286 . S
C3729 U3726 2.984 . S
C3729 O3727 1.353 . S
C3729 O3728 1.286 . S
C3729 C3731 1.363 . S
C3730 C3720 1.465 . S
C3730 U3726 2.847 . S
C3730 O3744 1.249 . S
C3730 O3745 1.202 . S
C3731 C3729 1.363 . S
C3731 C3733 1.408 . S
C3731 C3736 1.342 . S
C3732 C3733 1.310 . S
C3732 C3735 1.461 . S
C3732 H3752 0.932 . S
C3733 C3731 1.408 . S
C3733 C3732 1.310 . S
C3733 H3753 0.930 . S
C3734 C3735 1.474 . S
C3734 C3736 1.285 . S
C3734 H3754 0.929 . S
C3735 C3732 1.461 . S
C3735 C3734 1.474 . S
C3736 C3731 1.342 . S
C3736 C3734 1.285 . S
C3736 H3755 0.930 . S
C3737 C3740 1.424 . S
C3737 C3742 1.245 . S
C3737 C3743 1.428 . S
C3738 C3741 1.260 . S
C3738 C3742 1.477 . S
C3738 H3756 0.932 . S
C3739 C3740 1.384 . S
C3739 C3741 1.479 . S
C3739 H3757 0.929 . S
C3740 C3737 1.424 . S
C3740 C3739 1.384 . S
C3740 H3758 0.928 . S
C3741 C3738 1.260 . S
C3741 C3739 1.479 . S
C3742 C3737 1.245 . S
C3742 C3738 1.477 . S
C3742 H3759 0.932 . S
C3743 U3726 2.882 . S
C3743 C3737 1.428 . S
C3743 O3746 1.301 . S
C3743 O3747 1.282 . S
O3744 U3726 2.441 . S
O3744 C3730 1.249 . S
O3745 U3726 2.420 . S
O3745 C3730 1.202 . S
O3746 U3726 2.455 . S
O3746 C3743 1.301 . S
O3747 U3726 2.449 . S
O3747 C3743 1.282 . S
H3748 C3721 0.931 . S
H3749 C3723 0.929 . S
H3750 C3724 0.930 . S
H3751 C3725 0.931 . S
H3752 C3732 0.932 . S
H3753 C3733 0.930 . S
H3754 C3734 0.929 . S
H3755 C3736 0.930 . S
H3756 C3738 0.932 . S
H3757 C3739 0.929 . S
H3758 C3740 0.928 . S
H3759 C3742 0.932 . S
C3760 C3761 1.264 . S
C3760 C3765 1.479 . S
C3760 C3770 1.465 . S
C3761 C3760 1.264 . S
C3761 C3763 1.339 . S
C3761 H3788 0.931 . S
C3762 C3763 1.395 . S
C3762 C3764 1.320 . S
C3763 C3761 1.339 . S
C3763 C3762 1.395 . S
C3763 H3789 0.929 . S
C3764 C3762 1.320 . S
C3764 C3765 1.405 . S
C3764 H3790 0.930 . S
C3765 C3760 1.479 . S
C3765 C3764 1.405 . S
C3765 H3791 0.931 . S
U3766 O3767 2.454 . S
U3766 O3768 2.458 . S
U3766 C3769 2.984 . S
U3766 C3770 2.847 . S
U3766 C3783 2.882 . S
U3766 O3784 2.441 . S
U3766 O3785 2.420 . S
U3766 O3786 2.455 . S
U3766 O3787 2.449 . S
O3767 U3766 2.454 . S
O3767 C3769 1.353 . S
O3768 U3766 2.458 . S
O3768 C3769 1.286 . S
C3769 U3766 2.984 . S
C3769 O3767 1.353 . S
C3769 O3768 1.286 . S
C3769 C3771 1.363 . S
C3770 C3760 1.465 . S
C3770 U3766 2.847 . S
C3770 O3784 1.249 . S
C3770 O3785 1.202 . S
C3771 C3769 1.363 . S
C3771 C3773 1.408 . S
C3771 C3776 1.342 . S
C3772 C3773 1.310 . S
C3772 C3775 1.461 . S
C3772 H3792 0.932 . S
C3773 C3771 1.408 . S
C3773 C3772 1.310 . S
C3773 H3793 0.930 . S
C3774 C3775 1.474 . S
C3774 C3776 1.285 . S
C3774 H3794 0.929 . S
C3775 C3772 1.461 . S
C3775 C3774 1.474 . S
C3776 C3771 1.342 . S
C3776 C3774 1.285 . S
C3776 H3795 0.930 . S
C3777 C3780 1.424 . S
C3777 C3782 1.245 . S
C3777 C3783 1.428 . S
C3778 C3781 1.260 . S
C3778 C3782 1.477 . S
C3778 H3796 0.932 . S
C3779 C3780 1.384 . S
C3779 C3781 1.479 . S
C3779 H3797 0.929 . S
C3780 C3777 1.424 . S
C3780 C3779 1.384 . S
C3780 H3798 0.928 . S
C3781 C3778 1.260 . S
C3781 C3779 1.479 . S
C3782 C3777 1.245 . S
C3782 C3778 1.477 . S
C3782 H3799 0.932 . S
C3783 U3766 2.882 . S
C3783 C3777 1.428 . S
C3783 O3786 1.301 . S
C3783 O3787 1.282 . S
O3784 U3766 2.441 . S
O3784 C3770 1.249 . S
O3785 U3766 2.420 . S
O3785 C3770 1.202 . S
O3786 U3766 2.455 . S
O3786 C3783 1.301 . S
O3787 U3766 2.449 . S
O3787 C3783 1.282 . S
H3788 C3761 0.931 . S
H3789 C3763 0.929 . S
H3790 C3764 0.930 . S
H3791 C3765 0.931 . S
H3792 C3772 0.932 . S
H3793 C3773 0.930 . S
H3794 C3774 0.929 . S
H3795 C3776 0.930 . S
H3796 C3778 0.932 . S
H3797 C3779 0.929 . S
H3798 C3780 0.928 . S
H3799 C3782 0.932 . S
C3800 C3801 1.264 . S
C3800 C3805 1.479 . S
C3800 C3810 1.465 . S
C3801 C3800 1.264 . S
C3801 C3803 1.339 . S
C3801 H3828 0.931 . S
C3802 C3803 1.395 . S
C3802 C3804 1.320 . S
C3803 C3801 1.339 . S
C3803 C3802 1.395 . S
C3803 H3829 0.929 . S
C3804 C3802 1.320 . S
C3804 C3805 1.405 . S
C3804 H3830 0.930 . S
C3805 C3800 1.479 . S
C3805 C3804 1.405 . S
C3805 H3831 0.931 . S
U3806 O3807 2.454 . S
U3806 O3808 2.458 . S
U3806 C3809 2.984 . S
U3806 C3810 2.847 . S
U3806 C3823 2.882 . S
U3806 O3824 2.441 . S
U3806 O3825 2.420 . S
U3806 O3826 2.455 . S
U3806 O3827 2.449 . S
O3807 U3806 2.454 . S
O3807 C3809 1.353 . S
O3808 U3806 2.458 . S
O3808 C3809 1.286 . S
C3809 U3806 2.984 . S
C3809 O3807 1.353 . S
C3809 O3808 1.286 . S
C3809 C3811 1.363 . S
C3810 C3800 1.465 . S
C3810 U3806 2.847 . S
C3810 O3824 1.249 . S
C3810 O3825 1.202 . S
C3811 C3809 1.363 . S
C3811 C3813 1.408 . S
C3811 C3816 1.342 . S
C3812 C3813 1.310 . S
C3812 C3815 1.461 . S
C3812 H3832 0.932 . S
C3813 C3811 1.408 . S
C3813 C3812 1.310 . S
C3813 H3833 0.930 . S
C3814 C3815 1.474 . S
C3814 C3816 1.285 . S
C3814 H3834 0.929 . S
C3815 C3812 1.461 . S
C3815 C3814 1.474 . S
C3816 C3811 1.342 . S
C3816 C3814 1.285 . S
C3816 H3835 0.930 . S
C3817 C3820 1.424 . S
C3817 C3822 1.245 . S
C3817 C3823 1.428 . S
C3818 C3821 1.260 . S
C3818 C3822 1.477 . S
C3818 H3836 0.932 . S
C3819 C3820 1.384 . S
C3819 C3821 1.479 . S
C3819 H3837 0.929 . S
C3820 C3817 1.424 . S
C3820 C3819 1.384 . S
C3820 H3838 0.928 . S
C3821 C3818 1.260 . S
C3821 C3819 1.479 . S
C3822 C3817 1.245 . S
C3822 C3818 1.477 . S
C3822 H3839 0.932 . S
C3823 U3806 2.882 . S
C3823 C3817 1.428 . S
C3823 O3826 1.301 . S
C3823 O3827 1.282 . S
O3824 U3806 2.441 . S
O3824 C3810 1.249 . S
O3825 U3806 2.420 . S
O3825 C3810 1.202 . S
O3826 U3806 2.455 . S
O3826 C3823 1.301 . S
O3827 U3806 2.449 . S
O3827 C3823 1.282 . S
H3828 C3801 0.931 . S
H3829 C3803 0.929 . S
H3830 C3804 0.930 . S
H3831 C3805 0.931 . S
H3832 C3812 0.932 . S
H3833 C3813 0.930 . S
H3834 C3814 0.929 . S
H3835 C3816 0.930 . S
H3836 C3818 0.932 . S
H3837 C3819 0.929 . S
H3838 C3820 0.928 . S
H3839 C3822 0.932 . S
C3840 C3841 1.391 . S
C3840 C3842 1.394 . S
C3840 H3856 0.931 . S
C3841 C3840 1.391 . S
C3841 C3845 1.376 . S
C3842 C3840 1.394 . S
C3842 C3843 1.369 . S
C3842 C3846 1.531 . S
C3843 C3842 1.369 . S
C3843 C3844 1.410 . S
C3843 C3851 1.503 . S
C3844 C3843 1.410 . S
C3844 C3845 1.392 . S
C3844 C3847 1.511 . S
C3845 C3841 1.376 . S
C3845 C3844 1.392 . S
C3845 H3857 0.929 . S
C3846 C3842 1.531 . S
C3846 H3858 0.960 . S
C3846 H3859 0.962 . S
C3846 H3860 0.960 . S
C3847 C3844 1.511 . S
C3847 H3861 0.961 . S
C3847 H3862 0.961 . S
C3847 H3863 0.961 . S
C3848 C3849 1.370 . S
C3848 C3850 1.363 . S
C3848 H3864 0.931 . S
C3849 C3848 1.370 . S
C3849 C3853 1.408 . S
C3850 C3848 1.363 . S
C3850 C3851 1.370 . S
C3850 C3854 1.524 . S
C3851 C3843 1.503 . S
C3851 C3850 1.370 . S
C3851 C3852 1.403 . S
C3852 C3851 1.403 . S
C3852 C3853 1.404 . S
C3852 C3855 1.539 . S
C3853 C3849 1.408 . S
C3853 C3852 1.404 . S
C3853 H3865 0.930 . S
C3854 C3850 1.524 . S
C3854 H3866 0.956 . S
C3854 H3867 0.961 . S
C3854 H3868 0.961 . S
C3855 C3852 1.539 . S
C3855 H3869 0.958 . S
C3855 H3870 0.961 . S
C3855 H3871 0.960 . S
H3856 C3840 0.931 . S
H3857 C3845 0.929 . S
H3858 C3846 0.960 . S
H3859 C3846 0.962 . S
H3860 C3846 0.960 . S
H3861 C3847 0.961 . S
H3862 C3847 0.961 . S
H3863 C3847 0.961 . S
H3864 C3848 0.931 . S
H3865 C3853 0.930 . S
H3866 C3854 0.956 . S
H3867 C3854 0.961 . S
H3868 C3854 0.961 . S
H3869 C3855 0.958 . S
H3870 C3855 0.961 . S
H3871 C3855 0.960 . S
C3872 C3873 1.391 . S
C3872 C3874 1.306 1_455 S
C3872 H3888 0.931 . S
C3873 C3872 1.391 . S
C3873 C3877 1.376 . S
C3874 C3872 1.306 1_655 S
C3874 C3875 1.438 . S
C3874 C3878 1.556 . S
C3875 C3874 1.438 . S
C3875 C3876 1.410 . S
C3875 C3883 1.503 . S
C3876 C3875 1.410 . S
C3876 C3877 1.392 1_655 S
C3876 C3879 1.511 . S
C3877 C3873 1.376 . S
C3877 C3876 1.392 1_455 S
C3877 H3889 0.929 . S
C3878 C3874 1.556 . S
C3878 H3890 0.960 . S
C3878 H3891 0.962 . S
C3878 H3892 0.960 1_655 S
C3879 C3876 1.511 . S
C3879 H3893 0.961 . S
C3879 H3894 0.961 . S
C3879 H3895 0.961 . S
C3880 C3881 1.370 . S
C3880 C3882 1.363 . S
C3880 H3896 0.931 . S
C3881 C3880 1.370 . S
C3881 C3885 1.408 . S
C3882 C3880 1.363 . S
C3882 C3883 1.370 . S
C3882 C3886 1.524 . S
C3883 C3875 1.503 . S
C3883 C3882 1.370 . S
C3883 C3884 1.403 . S
C3884 C3883 1.403 . S
C3884 C3885 1.404 . S
C3884 C3887 1.539 . S
C3885 C3881 1.408 . S
C3885 C3884 1.404 . S
C3885 H3897 0.930 . S
C3886 C3882 1.524 . S
C3886 H3898 0.956 . S
C3886 H3899 0.961 . S
C3886 H3900 0.961 . S
C3887 C3884 1.539 . S
C3887 H3901 0.958 . S
C3887 H3902 0.961 . S
C3887 H3903 0.960 . S
H3888 C3872 0.931 . S
H3889 C3877 0.929 . S
H3890 C3878 0.960 . S
H3891 C3878 0.962 . S
H3892 C3878 0.960 1_455 S
H3893 C3879 0.961 . S
H3894 C3879 0.961 . S
H3895 C3879 0.961 . S
H3896 C3880 0.931 . S
H3897 C3885 0.930 . S
H3898 C3886 0.956 . S
H3899 C3886 0.961 . S
H3900 C3886 0.961 . S
H3901 C3887 0.958 . S
H3902 C3887 0.961 . S
H3903 C3887 0.960 . S
C3904 C3905 1.391 . S
C3904 C3906 1.394 . S
C3904 H3920 0.931 . S
C3905 C3904 1.391 . S
C3905 C3909 1.376 . S
C3906 C3904 1.394 . S
C3906 C3907 1.369 . S
C3906 C3910 1.531 . S
C3907 C3906 1.369 . S
C3907 C3908 1.410 . S
C3907 C3915 1.503 . S
C3908 C3907 1.410 . S
C3908 C3909 1.392 . S
C3908 C3911 1.511 . S
C3909 C3905 1.376 . S
C3909 C3908 1.392 . S
C3909 H3921 0.929 . S
C3910 C3906 1.531 . S
C3910 H3922 0.960 . S
C3910 H3923 0.962 . S
C3910 H3924 0.960 . S
C3911 C3908 1.511 . S
C3911 H3925 0.961 . S
C3911 H3926 0.961 . S
C3911 H3927 0.961 . S
C3912 C3913 1.370 . S
C3912 C3914 1.363 . S
C3912 H3928 0.931 . S
C3913 C3912 1.370 . S
C3913 C3917 1.408 . S
C3914 C3912 1.363 . S
C3914 C3915 1.370 . S
C3914 C3918 1.524 . S
C3915 C3907 1.503 . S
C3915 C3914 1.370 . S
C3915 C3916 1.403 . S
C3916 C3915 1.403 . S
C3916 C3917 1.404 . S
C3916 C3919 1.539 . S
C3917 C3913 1.408 . S
C3917 C3916 1.404 . S
C3917 H3929 0.930 . S
C3918 C3914 1.524 . S
C3918 H3930 0.956 . S
C3918 H3931 0.961 . S
C3918 H3932 0.961 . S
C3919 C3916 1.539 . S
C3919 H3933 0.958 . S
C3919 H3934 0.961 . S
C3919 H3935 0.960 . S
H3920 C3904 0.931 . S
H3921 C3909 0.929 . S
H3922 C3910 0.960 . S
H3923 C3910 0.962 . S
H3924 C3910 0.960 . S
H3925 C3911 0.961 . S
H3926 C3911 0.961 . S
H3927 C3911 0.961 . S
H3928 C3912 0.931 . S
H3929 C3917 0.930 . S
H3930 C3918 0.956 . S
H3931 C3918 0.961 . S
H3932 C3918 0.961 . S
H3933 C3919 0.958 . S
H3934 C3919 0.961 . S
H3935 C3919 0.960 . S
C3936 C3937 1.391 . S
C3936 C3938 1.394 . S
C3936 H3952 0.931 . S
C3937 C3936 1.391 . S
C3937 C3941 1.376 . S
C3938 C3936 1.394 . S
C3938 C3939 1.369 . S
C3938 C3942 1.531 . S
C3939 C3938 1.369 . S
C3939 C3940 1.410 . S
C3939 C3947 1.503 . S
C3940 C3939 1.410 . S
C3940 C3941 1.392 . S
C3940 C3943 1.511 . S
C3941 C3937 1.376 . S
C3941 C3940 1.392 . S
C3941 H3953 0.929 . S
C3942 C3938 1.531 . S
C3942 H3954 0.960 . S
C3942 H3955 0.962 . S
C3942 H3956 0.960 . S
C3943 C3940 1.511 . S
C3943 H3957 0.961 . S
C3943 H3958 0.961 . S
C3943 H3959 0.961 . S
C3944 C3945 1.370 . S
C3944 C3946 1.363 . S
C3944 H3960 0.931 . S
C3945 C3944 1.370 . S
C3945 C3949 1.408 . S
C3946 C3944 1.363 . S
C3946 C3947 1.370 . S
C3946 C3950 1.524 . S
C3947 C3939 1.503 . S
C3947 C3946 1.370 . S
C3947 C3948 1.403 . S
C3948 C3947 1.403 . S
C3948 C3949 1.404 . S
C3948 C3951 1.539 . S
C3949 C3945 1.408 . S
C3949 C3948 1.404 . S
C3949 H3961 0.930 . S
C3950 C3946 1.524 . S
C3950 H3962 0.956 . S
C3950 H3963 0.961 . S
C3950 H3964 0.961 . S
C3951 C3948 1.539 . S
C3951 H3965 0.958 . S
C3951 H3966 0.961 . S
C3951 H3967 0.960 . S
H3952 C3936 0.931 . S
H3953 C3941 0.929 . S
H3954 C3942 0.960 . S
H3955 C3942 0.962 . S
H3956 C3942 0.960 . S
H3957 C3943 0.961 . S
H3958 C3943 0.961 . S
H3959 C3943 0.961 . S
H3960 C3944 0.931 . S
H3961 C3949 0.930 . S
H3962 C3950 0.956 . S
H3963 C3950 0.961 . S
H3964 C3950 0.961 . S
H3965 C3951 0.958 . S
H3966 C3951 0.961 . S
H3967 C3951 0.960 . S
C3968 C3969 1.391 . S
C3968 C3970 1.394 . S
C3968 H3984 0.931 . S
C3969 C3968 1.391 . S
C3969 C3973 1.376 . S
C3970 C3968 1.394 . S
C3970 C3971 1.369 . S
C3970 C3974 1.531 . S
C3971 C3970 1.369 . S
C3971 C3972 1.410 . S
C3971 C3979 1.503 . S
C3972 C3971 1.410 . S
C3972 C3973 1.392 . S
C3972 C3975 1.511 . S
C3973 C3969 1.376 . S
C3973 C3972 1.392 . S
C3973 H3985 0.929 . S
C3974 C3970 1.531 . S
C3974 H3986 0.960 . S
C3974 H3987 0.962 . S
C3974 H3988 0.960 . S
C3975 C3972 1.511 . S
C3975 H3989 0.961 . S
C3975 H3990 0.961 . S
C3975 H3991 0.961 . S
C3976 C3977 1.370 . S
C3976 C3978 1.363 . S
C3976 H3992 0.931 . S
C3977 C3976 1.370 . S
C3977 C3981 1.408 . S
C3978 C3976 1.363 . S
C3978 C3979 1.370 . S
C3978 C3982 1.524 . S
C3979 C3971 1.503 . S
C3979 C3978 1.370 . S
C3979 C3980 1.403 . S
C3980 C3979 1.403 . S
C3980 C3981 1.404 . S
C3980 C3983 1.539 . S
C3981 C3977 1.408 . S
C3981 C3980 1.404 . S
C3981 H3993 0.930 . S
C3982 C3978 1.524 . S
C3982 H3994 0.956 . S
C3982 H3995 0.961 . S
C3982 H3996 0.961 . S
C3983 C3980 1.539 . S
C3983 H3997 0.958 . S
C3983 H3998 0.961 . S
C3983 H3999 0.960 . S
H3984 C3968 0.931 . S
H3985 C3973 0.929 . S
H3986 C3974 0.960 . S
H3987 C3974 0.962 . S
H3988 C3974 0.960 . S
H3989 C3975 0.961 . S
H3990 C3975 0.961 . S
H3991 C3975 0.961 . S
H3992 C3976 0.931 . S
H3993 C3981 0.930 . S
H3994 C3982 0.956 . S
H3995 C3982 0.961 . S
H3996 C3982 0.961 . S
H3997 C3983 0.958 . S
H3998 C3983 0.961 . S
H3999 C3983 0.960 . S
C4000 C4001 1.391 . S
C4000 C4002 1.394 . S
C4000 H4016 0.931 . S
C4001 C4000 1.391 . S
C4001 C4005 1.376 . S
C4002 C4000 1.394 . S
C4002 C4003 1.369 . S
C4002 C4006 1.531 . S
C4003 C4002 1.369 . S
C4003 C4004 1.410 . S
C4003 C4011 1.503 . S
C4004 C4003 1.410 . S
C4004 C4005 1.392 . S
C4004 C4007 1.511 . S
C4005 C4001 1.376 . S
C4005 C4004 1.392 . S
C4005 H4017 0.929 . S
C4006 C4002 1.531 . S
C4006 H4018 0.960 . S
C4006 H4019 0.962 . S
C4006 H4020 0.960 . S
C4007 C4004 1.511 . S
C4007 H4021 0.961 . S
C4007 H4022 0.961 . S
C4007 H4023 0.961 . S
C4008 C4009 1.370 . S
C4008 C4010 1.363 . S
C4008 H4024 0.931 . S
C4009 C4008 1.370 . S
C4009 C4013 1.408 . S
C4010 C4008 1.363 . S
C4010 C4011 1.370 . S
C4010 C4014 1.524 . S
C4011 C4003 1.503 . S
C4011 C4010 1.370 . S
C4011 C4012 1.403 . S
C4012 C4011 1.403 . S
C4012 C4013 1.404 . S
C4012 C4015 1.539 . S
C4013 C4009 1.408 . S
C4013 C4012 1.404 . S
C4013 H4025 0.930 . S
C4014 C4010 1.524 . S
C4014 H4026 0.956 . S
C4014 H4027 0.961 . S
C4014 H4028 0.961 . S
C4015 C4012 1.539 . S
C4015 H4029 0.958 . S
C4015 H4030 0.961 . S
C4015 H4031 0.960 . S
H4016 C4000 0.931 . S
H4017 C4005 0.929 . S
H4018 C4006 0.960 . S
H4019 C4006 0.962 . S
H4020 C4006 0.960 . S
H4021 C4007 0.961 . S
H4022 C4007 0.961 . S
H4023 C4007 0.961 . S
H4024 C4008 0.931 . S
H4025 C4013 0.930 . S
H4026 C4014 0.956 . S
H4027 C4014 0.961 . S
H4028 C4014 0.961 . S
H4029 C4015 0.958 . S
H4030 C4015 0.961 . S
H4031 C4015 0.960 . S
C4032 C4033 1.391 . S
C4032 C4034 1.394 . S
C4032 H4048 0.931 . S
C4033 C4032 1.391 . S
C4033 C4037 1.376 . S
C4034 C4032 1.394 . S
C4034 C4035 1.369 . S
C4034 C4038 1.531 . S
C4035 C4034 1.369 . S
C4035 C4036 1.410 . S
C4035 C4043 1.503 . S
C4036 C4035 1.410 . S
C4036 C4037 1.392 . S
C4036 C4039 1.511 . S
C4037 C4033 1.376 . S
C4037 C4036 1.392 . S
C4037 H4049 0.929 . S
C4038 C4034 1.531 . S
C4038 H4050 0.960 . S
C4038 H4051 0.962 . S
C4038 H4052 0.960 . S
C4039 C4036 1.511 . S
C4039 H4053 0.961 . S
C4039 H4054 0.961 . S
C4039 H4055 0.961 . S
C4040 C4041 1.370 . S
C4040 C4042 1.363 . S
C4040 H4056 0.931 . S
C4041 C4040 1.370 . S
C4041 C4045 1.408 . S
C4042 C4040 1.363 . S
C4042 C4043 1.370 . S
C4042 C4046 1.524 . S
C4043 C4035 1.503 . S
C4043 C4042 1.370 . S
C4043 C4044 1.403 . S
C4044 C4043 1.403 . S
C4044 C4045 1.404 . S
C4044 C4047 1.539 . S
C4045 C4041 1.408 . S
C4045 C4044 1.404 . S
C4045 H4057 0.930 . S
C4046 C4042 1.524 . S
C4046 H4058 0.956 . S
C4046 H4059 0.961 . S
C4046 H4060 0.961 . S
C4047 C4044 1.539 . S
C4047 H4061 0.958 . S
C4047 H4062 0.961 . S
C4047 H4063 0.960 . S
H4048 C4032 0.931 . S
H4049 C4037 0.929 . S
H4050 C4038 0.960 . S
H4051 C4038 0.962 . S
H4052 C4038 0.960 . S
H4053 C4039 0.961 . S
H4054 C4039 0.961 . S
H4055 C4039 0.961 . S
H4056 C4040 0.931 . S
H4057 C4045 0.930 . S
H4058 C4046 0.956 . S
H4059 C4046 0.961 . S
H4060 C4046 0.961 . S
H4061 C4047 0.958 . S
H4062 C4047 0.961 . S
H4063 C4047 0.960 . S
C4064 C4065 1.391 . S
C4064 C4066 1.394 . S
C4064 H4080 0.931 . S
C4065 C4064 1.391 . S
C4065 C4069 1.376 . S
C4066 C4064 1.394 . S
C4066 C4067 1.369 . S
C4066 C4070 1.531 . S
C4067 C4066 1.369 . S
C4067 C4068 1.410 . S
C4067 C4075 1.503 . S
C4068 C4067 1.410 . S
C4068 C4069 1.392 . S
C4068 C4071 1.511 . S
C4069 C4065 1.376 . S
C4069 C4068 1.392 . S
C4069 H4081 0.929 . S
C4070 C4066 1.531 . S
C4070 H4082 0.960 . S
C4070 H4083 0.962 . S
C4070 H4084 0.960 . S
C4071 C4068 1.511 . S
C4071 H4085 0.961 . S
C4071 H4086 0.961 . S
C4071 H4087 0.961 . S
C4072 C4073 1.377 . S
C4072 C4074 1.357 1_455 S
C4072 H4088 0.929 1_455 S
C4073 C4072 1.377 . S
C4073 C4077 1.408 . S
C4074 C4072 1.357 1_655 S
C4074 C4075 1.370 . S
C4074 C4078 1.524 . S
C4075 C4067 1.503 . S
C4075 C4074 1.370 . S
C4075 C4076 1.403 1_655 S
C4076 C4075 1.403 1_455 S
C4076 C4077 1.404 . S
C4076 C4079 1.539 . S
C4077 C4073 1.408 . S
C4077 C4076 1.404 . S
C4077 H4089 0.930 . S
C4078 C4074 1.524 . S
C4078 H4090 0.956 . S
C4078 H4091 0.961 . S
C4078 H4092 0.961 . S
C4079 C4076 1.539 . S
C4079 H4093 0.958 . S
C4079 H4094 0.961 . S
C4079 H4095 0.960 1_455 S
H4080 C4064 0.931 . S
H4081 C4069 0.929 . S
H4082 C4070 0.960 . S
H4083 C4070 0.962 . S
H4084 C4070 0.960 . S
H4085 C4071 0.961 . S
H4086 C4071 0.961 . S
H4087 C4071 0.961 . S
H4088 C4072 0.929 1_655 S
H4089 C4077 0.930 . S
H4090 C4078 0.956 . S
H4091 C4078 0.961 . S
H4092 C4078 0.961 . S
H4093 C4079 0.958 . S
H4094 C4079 0.961 . S
H4095 C4079 0.960 1_655 S
C4096 C4097 1.391 . S
C4096 C4098 1.394 . S
C4096 H4112 0.931 . S
C4097 C4096 1.391 . S
C4097 C4101 1.376 . S
C4098 C4096 1.394 . S
C4098 C4099 1.369 . S
C4098 C4102 1.531 . S
C4099 C4098 1.369 . S
C4099 C4100 1.410 . S
C4099 C4107 1.503 . S
C4100 C4099 1.410 . S
C4100 C4101 1.392 . S
C4100 C4103 1.511 . S
C4101 C4097 1.376 . S
C4101 C4100 1.392 . S
C4101 H4113 0.929 . S
C4102 C4098 1.531 . S
C4102 H4114 0.960 . S
C4102 H4115 0.962 . S
C4102 H4116 0.960 . S
C4103 C4100 1.511 . S
C4103 H4117 0.961 . S
C4103 H4118 0.961 . S
C4103 H4119 0.961 . S
C4104 C4105 1.370 . S
C4104 C4106 1.363 . S
C4104 H4120 0.931 . S
C4105 C4104 1.370 . S
C4105 C4109 1.408 . S
C4106 C4104 1.363 . S
C4106 C4107 1.370 . S
C4106 C4110 1.524 . S
C4107 C4099 1.503 . S
C4107 C4106 1.370 . S
C4107 C4108 1.403 . S
C4108 C4107 1.403 . S
C4108 C4109 1.404 . S
C4108 C4111 1.539 . S
C4109 C4105 1.408 . S
C4109 C4108 1.404 . S
C4109 H4121 0.930 . S
C4110 C4106 1.524 . S
C4110 H4122 0.956 . S
C4110 H4123 0.961 . S
C4110 H4124 0.961 . S
C4111 C4108 1.539 . S
C4111 H4125 0.958 . S
C4111 H4126 0.961 . S
C4111 H4127 0.960 . S
H4112 C4096 0.931 . S
H4113 C4101 0.929 . S
H4114 C4102 0.960 . S
H4115 C4102 0.962 . S
H4116 C4102 0.960 . S
H4117 C4103 0.961 . S
H4118 C4103 0.961 . S
H4119 C4103 0.961 . S
H4120 C4104 0.931 . S
H4121 C4109 0.930 . S
H4122 C4110 0.956 . S
H4123 C4110 0.961 . S
H4124 C4110 0.961 . S
H4125 C4111 0.958 . S
H4126 C4111 0.961 . S
H4127 C4111 0.960 . S
C4128 C4129 1.391 . S
C4128 C4130 1.394 . S
C4128 H4144 0.931 . S
C4129 C4128 1.391 . S
C4129 C4133 1.376 . S
C4130 C4128 1.394 . S
C4130 C4131 1.369 . S
C4130 C4134 1.531 . S
C4131 C4130 1.369 . S
C4131 C4132 1.410 . S
C4131 C4139 1.503 . S
C4132 C4131 1.410 . S
C4132 C4133 1.392 . S
C4132 C4135 1.511 . S
C4133 C4129 1.376 . S
C4133 C4132 1.392 . S
C4133 H4145 0.929 . S
C4134 C4130 1.531 . S
C4134 H4146 0.960 . S
C4134 H4147 0.962 . S
C4134 H4148 0.960 . S
C4135 C4132 1.511 . S
C4135 H4149 0.961 . S
C4135 H4150 0.961 . S
C4135 H4151 0.961 . S
C4136 C4137 1.370 . S
C4136 C4138 1.363 . S
C4136 H4152 0.931 . S
C4137 C4136 1.370 . S
C4137 C4141 1.408 . S
C4138 C4136 1.363 . S
C4138 C4139 1.370 . S
C4138 C4142 1.524 . S
C4139 C4131 1.503 . S
C4139 C4138 1.370 . S
C4139 C4140 1.403 . S
C4140 C4139 1.403 . S
C4140 C4141 1.404 . S
C4140 C4143 1.539 . S
C4141 C4137 1.408 . S
C4141 C4140 1.404 . S
C4141 H4153 0.930 . S
C4142 C4138 1.524 . S
C4142 H4154 0.956 . S
C4142 H4155 0.961 . S
C4142 H4156 0.961 . S
C4143 C4140 1.539 . S
C4143 H4157 0.958 . S
C4143 H4158 0.961 . S
C4143 H4159 0.960 . S
H4144 C4128 0.931 . S
H4145 C4133 0.929 . S
H4146 C4134 0.960 . S
H4147 C4134 0.962 . S
H4148 C4134 0.960 . S
H4149 C4135 0.961 . S
H4150 C4135 0.961 . S
H4151 C4135 0.961 . S
H4152 C4136 0.931 . S
H4153 C4141 0.930 . S
H4154 C4142 0.956 . S
H4155 C4142 0.961 . S
H4156 C4142 0.961 . S
H4157 C4143 0.958 . S
H4158 C4143 0.961 . S
H4159 C4143 0.960 . S
C4160 C4161 1.391 . S
C4160 C4162 1.394 . S
C4160 H4176 0.931 . S
C4161 C4160 1.391 . S
C4161 C4165 1.376 . S
C4162 C4160 1.394 . S
C4162 C4163 1.369 . S
C4162 C4166 1.531 . S
C4163 C4162 1.369 . S
C4163 C4164 1.410 . S
C4163 C4171 1.503 . S
C4164 C4163 1.410 . S
C4164 C4165 1.392 . S
C4164 C4167 1.511 . S
C4165 C4161 1.376 . S
C4165 C4164 1.392 . S
C4165 H4177 0.929 . S
C4166 C4162 1.531 . S
C4166 H4178 0.960 . S
C4166 H4179 0.962 . S
C4166 H4180 0.960 . S
C4167 C4164 1.511 . S
C4167 H4181 0.961 . S
C4167 H4182 0.961 . S
C4167 H4183 0.961 . S
C4168 C4169 1.370 . S
C4168 C4170 1.363 . S
C4168 H4184 0.931 . S
C4169 C4168 1.370 . S
C4169 C4173 1.408 . S
C4170 C4168 1.363 . S
C4170 C4171 1.370 . S
C4170 C4174 1.524 . S
C4171 C4163 1.503 . S
C4171 C4170 1.370 . S
C4171 C4172 1.403 . S
C4172 C4171 1.403 . S
C4172 C4173 1.404 . S
C4172 C4175 1.539 . S
C4173 C4169 1.408 . S
C4173 C4172 1.404 . S
C4173 H4185 0.930 . S
C4174 C4170 1.524 . S
C4174 H4186 0.956 . S
C4174 H4187 0.961 . S
C4174 H4188 0.961 . S
C4175 C4172 1.539 . S
C4175 H4189 0.958 . S
C4175 H4190 0.961 . S
C4175 H4191 0.960 . S
H4176 C4160 0.931 . S
H4177 C4165 0.929 . S
H4178 C4166 0.960 . S
H4179 C4166 0.962 . S
H4180 C4166 0.960 . S
H4181 C4167 0.961 . S
H4182 C4167 0.961 . S
H4183 C4167 0.961 . S
H4184 C4168 0.931 . S
H4185 C4173 0.930 . S
H4186 C4174 0.956 . S
H4187 C4174 0.961 . S
H4188 C4174 0.961 . S
H4189 C4175 0.958 . S
H4190 C4175 0.961 . S
H4191 C4175 0.960 . S
C4192 C4193 1.391 . S
C4192 C4194 1.394 1_556 S
C4192 H4208 0.931 . S
C4193 C4192 1.391 . S
C4193 C4197 1.376 . S
C4194 C4192 1.394 1_554 S
C4194 C4195 1.369 . S
C4194 C4198 1.531 . S
C4195 C4194 1.369 . S
C4195 C4196 1.410 . S
C4195 C4203 1.503 . S
C4196 C4195 1.410 . S
C4196 C4197 1.392 1_554 S
C4196 C4199 1.511 . S
C4197 C4193 1.376 . S
C4197 C4196 1.392 1_556 S
C4197 H4209 0.929 . S
C4198 C4194 1.531 . S
C4198 H4210 0.960 . S
C4198 H4211 0.962 . S
C4198 H4212 0.960 . S
C4199 C4196 1.511 . S
C4199 H4213 0.961 . S
C4199 H4214 0.961 . S
C4199 H4215 0.961 . S
C4200 C4201 1.370 . S
C4200 C4202 1.363 . S
C4200 H4216 0.931 . S
C4201 C4200 1.370 . S
C4201 C4205 1.408 . S
C4202 C4200 1.363 . S
C4202 C4203 1.370 . S
C4202 C4206 1.524 . S
C4203 C4195 1.503 . S
C4203 C4202 1.370 . S
C4203 C4204 1.403 . S
C4204 C4203 1.403 . S
C4204 C4205 1.404 . S
C4204 C4207 1.539 . S
C4205 C4201 1.408 . S
C4205 C4204 1.404 . S
C4205 H4217 0.930 . S
C4206 C4202 1.524 . S
C4206 H4218 0.956 . S
C4206 H4219 0.961 . S
C4206 H4220 0.961 . S
C4207 C4204 1.539 . S
C4207 H4221 0.958 . S
C4207 H4222 0.961 . S
C4207 H4223 0.960 . S
H4208 C4192 0.931 . S
H4209 C4197 0.929 . S
H4210 C4198 0.960 . S
H4211 C4198 0.962 . S
H4212 C4198 0.960 . S
H4213 C4199 0.961 . S
H4214 C4199 0.961 . S
H4215 C4199 0.961 . S
H4216 C4200 0.931 . S
H4217 C4205 0.930 . S
H4218 C4206 0.956 . S
H4219 C4206 0.961 . S
H4220 C4206 0.961 . S
H4221 C4207 0.958 . S
H4222 C4207 0.961 . S
H4223 C4207 0.960 . S
C4224 C4225 1.391 . S
C4224 C4226 1.394 . S
C4224 H4240 0.931 . S
C4225 C4224 1.391 . S
C4225 C4229 1.376 . S
C4226 C4224 1.394 . S
C4226 C4227 1.369 . S
C4226 C4230 1.531 . S
C4227 C4226 1.369 . S
C4227 C4228 1.410 . S
C4227 C4235 1.503 . S
C4228 C4227 1.410 . S
C4228 C4229 1.392 . S
C4228 C4231 1.511 . S
C4229 C4225 1.376 . S
C4229 C4228 1.392 . S
C4229 H4241 0.929 . S
C4230 C4226 1.531 . S
C4230 H4242 0.960 . S
C4230 H4243 0.962 . S
C4230 H4244 0.960 . S
C4231 C4228 1.511 . S
C4231 H4245 0.961 . S
C4231 H4246 0.961 . S
C4231 H4247 0.961 . S
C4232 C4233 1.370 . S
C4232 C4234 1.363 . S
C4232 H4248 0.931 . S
C4233 C4232 1.370 . S
C4233 C4237 1.408 . S
C4234 C4232 1.363 . S
C4234 C4235 1.370 . S
C4234 C4238 1.524 . S
C4235 C4227 1.503 . S
C4235 C4234 1.370 . S
C4235 C4236 1.403 . S
C4236 C4235 1.403 . S
C4236 C4237 1.404 . S
C4236 C4239 1.539 . S
C4237 C4233 1.408 . S
C4237 C4236 1.404 . S
C4237 H4249 0.930 . S
C4238 C4234 1.524 . S
C4238 H4250 0.956 . S
C4238 H4251 0.961 . S
C4238 H4252 0.961 . S
C4239 C4236 1.539 . S
C4239 H4253 0.958 . S
C4239 H4254 0.961 . S
C4239 H4255 0.960 . S
H4240 C4224 0.931 . S
H4241 C4229 0.929 . S
H4242 C4230 0.960 . S
H4243 C4230 0.962 . S
H4244 C4230 0.960 . S
H4245 C4231 0.961 . S
H4246 C4231 0.961 . S
H4247 C4231 0.961 . S
H4248 C4232 0.931 . S
H4249 C4237 0.930 . S
H4250 C4238 0.956 . S
H4251 C4238 0.961 . S
H4252 C4238 0.961 . S
H4253 C4239 0.958 . S
H4254 C4239 0.961 . S
H4255 C4239 0.960 . S
C4256 C4257 1.391 . S
C4256 C4258 1.394 . S
C4256 H4272 0.931 . S
C4257 C4256 1.391 . S
C4257 C4261 1.376 . S
C4258 C4256 1.394 . S
C4258 C4259 1.369 . S
C4258 C4262 1.531 . S
C4259 C4258 1.369 . S
C4259 C4260 1.410 . S
C4259 C4267 1.503 . S
C4260 C4259 1.410 . S
C4260 C4261 1.392 . S
C4260 C4263 1.511 . S
C4261 C4257 1.376 . S
C4261 C4260 1.392 . S
C4261 H4273 0.929 . S
C4262 C4258 1.531 . S
C4262 H4274 0.960 . S
C4262 H4275 0.962 . S
C4262 H4276 0.960 . S
C4263 C4260 1.511 . S
C4263 H4277 0.961 . S
C4263 H4278 0.961 . S
C4263 H4279 0.961 . S
C4264 C4265 1.370 . S
C4264 C4266 1.363 . S
C4264 H4280 0.931 . S
C4265 C4264 1.370 . S
C4265 C4269 1.408 . S
C4266 C4264 1.363 . S
C4266 C4267 1.370 . S
C4266 C4270 1.524 . S
C4267 C4259 1.503 . S
C4267 C4266 1.370 . S
C4267 C4268 1.403 . S
C4268 C4267 1.403 . S
C4268 C4269 1.404 . S
C4268 C4271 1.539 . S
C4269 C4265 1.408 . S
C4269 C4268 1.404 . S
C4269 H4281 0.930 . S
C4270 C4266 1.524 . S
C4270 H4282 0.956 . S
C4270 H4283 0.961 . S
C4270 H4284 0.961 . S
C4271 C4268 1.539 . S
C4271 H4285 0.958 . S
C4271 H4286 0.961 . S
C4271 H4287 0.960 . S
H4272 C4256 0.931 . S
H4273 C4261 0.929 . S
H4274 C4262 0.960 . S
H4275 C4262 0.962 . S
H4276 C4262 0.960 . S
H4277 C4263 0.961 . S
H4278 C4263 0.961 . S
H4279 C4263 0.961 . S
H4280 C4264 0.931 . S
H4281 C4269 0.930 . S
H4282 C4270 0.956 . S
H4283 C4270 0.961 . S
H4284 C4270 0.961 . S
H4285 C4271 0.958 . S
H4286 C4271 0.961 . S
H4287 C4271 0.960 . S
C4288 C4289 1.391 . S
C4288 C4290 1.394 . S
C4288 H4304 0.931 . S
C4289 C4288 1.391 . S
C4289 C4293 1.376 . S
C4290 C4288 1.394 . S
C4290 C4291 1.369 . S
C4290 C4294 1.531 . S
C4291 C4290 1.369 . S
C4291 C4292 1.410 . S
C4291 C4299 1.503 . S
C4292 C4291 1.410 . S
C4292 C4293 1.392 . S
C4292 C4295 1.511 . S
C4293 C4289 1.376 . S
C4293 C4292 1.392 . S
C4293 H4305 0.929 . S
C4294 C4290 1.531 . S
C4294 H4306 0.960 . S
C4294 H4307 0.962 . S
C4294 H4308 0.960 . S
C4295 C4292 1.511 . S
C4295 H4309 0.961 . S
C4295 H4310 0.961 . S
C4295 H4311 0.961 . S
C4296 C4297 1.370 . S
C4296 C4298 1.363 . S
C4296 H4312 0.931 . S
C4297 C4296 1.370 . S
C4297 C4301 1.408 . S
C4298 C4296 1.363 . S
C4298 C4299 1.370 . S
C4298 C4302 1.524 . S
C4299 C4291 1.503 . S
C4299 C4298 1.370 . S
C4299 C4300 1.403 . S
C4300 C4299 1.403 . S
C4300 C4301 1.404 . S
C4300 C4303 1.539 . S
C4301 C4297 1.408 . S
C4301 C4300 1.404 . S
C4301 H4313 0.930 . S
C4302 C4298 1.524 . S
C4302 H4314 0.956 . S
C4302 H4315 0.961 . S
C4302 H4316 0.961 . S
C4303 C4300 1.539 . S
C4303 H4317 0.958 . S
C4303 H4318 0.961 . S
C4303 H4319 0.960 . S
H4304 C4288 0.931 . S
H4305 C4293 0.929 . S
H4306 C4294 0.960 . S
H4307 C4294 0.962 . S
H4308 C4294 0.960 . S
H4309 C4295 0.961 . S
H4310 C4295 0.961 . S
H4311 C4295 0.961 . S
H4312 C4296 0.931 . S
H4313 C4301 0.930 . S
H4314 C4302 0.956 . S
H4315 C4302 0.961 . S
H4316 C4302 0.961 . S
H4317 C4303 0.958 . S
H4318 C4303 0.961 . S
H4319 C4303 0.960 . S
C4320 C4321 1.391 . S
C4320 C4322 1.394 . S
C4320 H4336 0.931 . S
C4321 C4320 1.391 . S
C4321 C4325 1.376 . S
C4322 C4320 1.394 . S
C4322 C4323 1.369 . S
C4322 C4326 1.531 . S
C4323 C4322 1.369 . S
C4323 C4324 1.410 . S
C4323 C4331 1.503 . S
C4324 C4323 1.410 . S
C4324 C4325 1.392 . S
C4324 C4327 1.511 . S
C4325 C4321 1.376 . S
C4325 C4324 1.392 . S
C4325 H4337 0.929 . S
C4326 C4322 1.531 . S
C4326 H4338 0.960 . S
C4326 H4339 0.962 . S
C4326 H4340 0.960 . S
C4327 C4324 1.511 . S
C4327 H4341 0.961 . S
C4327 H4342 0.961 . S
C4327 H4343 0.961 . S
C4328 C4329 1.370 . S
C4328 C4330 1.363 1_554 S
C4328 H4344 0.931 . S
C4329 C4328 1.370 . S
C4329 C4333 1.408 . S
C4330 C4328 1.363 1_556 S
C4330 C4331 1.370 . S
C4330 C4334 1.524 . S
C4331 C4323 1.503 . S
C4331 C4330 1.370 . S
C4331 C4332 1.425 . S
C4332 C4331 1.425 . S
C4332 C4333 1.378 1_556 S
C4332 C4335 1.543 . S
C4333 C4329 1.408 . S
C4333 C4332 1.378 1_554 S
C4333 H4345 0.930 . S
C4334 C4330 1.524 . S
C4334 H4346 0.956 . S
C4334 H4347 0.961 . S
C4334 H4348 0.961 . S
C4335 C4332 1.543 . S
C4335 H4349 0.914 1_556 S
C4335 H4350 0.961 1_556 S
C4335 H4351 0.960 . S
H4336 C4320 0.931 . S
H4337 C4325 0.929 . S
H4338 C4326 0.960 . S
H4339 C4326 0.962 . S
H4340 C4326 0.960 . S
H4341 C4327 0.961 . S
H4342 C4327 0.961 . S
H4343 C4327 0.961 . S
H4344 C4328 0.931 . S
H4345 C4333 0.930 . S
H4346 C4334 0.956 . S
H4347 C4334 0.961 . S
H4348 C4334 0.961 . S
H4349 C4335 0.914 1_554 S
H4350 C4335 0.961 1_554 S
H4351 C4335 0.960 . S
C4352 C4353 1.391 . S
C4352 C4354 1.394 . S
C4352 H4368 0.931 . S
C4353 C4352 1.391 . S
C4353 C4357 1.376 . S
C4354 C4352 1.394 . S
C4354 C4355 1.369 . S
C4354 C4358 1.531 . S
C4355 C4354 1.369 . S
C4355 C4356 1.410 . S
C4355 C4363 1.503 . S
C4356 C4355 1.410 . S
C4356 C4357 1.392 . S
C4356 C4359 1.511 . S
C4357 C4353 1.376 . S
C4357 C4356 1.392 . S
C4357 H4369 0.929 . S
C4358 C4354 1.531 . S
C4358 H4370 0.960 . S
C4358 H4371 0.962 . S
C4358 H4372 0.960 . S
C4359 C4356 1.511 . S
C4359 H4373 0.961 . S
C4359 H4374 0.961 . S
C4359 H4375 0.961 . S
C4360 C4361 1.370 . S
C4360 C4362 1.363 . S
C4360 H4376 0.931 . S
C4361 C4360 1.370 . S
C4361 C4365 1.408 . S
C4362 C4360 1.363 . S
C4362 C4363 1.370 . S
C4362 C4366 1.524 . S
C4363 C4355 1.503 . S
C4363 C4362 1.370 . S
C4363 C4364 1.403 . S
C4364 C4363 1.403 . S
C4364 C4365 1.404 . S
C4364 C4367 1.539 . S
C4365 C4361 1.408 . S
C4365 C4364 1.404 . S
C4365 H4377 0.930 . S
C4366 C4362 1.524 . S
C4366 H4378 0.956 . S
C4366 H4379 0.961 . S
C4366 H4380 0.961 . S
C4367 C4364 1.539 . S
C4367 H4381 0.958 . S
C4367 H4382 0.961 . S
C4367 H4383 0.960 . S
H4368 C4352 0.931 . S
H4369 C4357 0.929 . S
H4370 C4358 0.960 . S
H4371 C4358 0.962 . S
H4372 C4358 0.960 . S
H4373 C4359 0.961 . S
H4374 C4359 0.961 . S
H4375 C4359 0.961 . S
H4376 C4360 0.931 . S
H4377 C4365 0.930 . S
H4378 C4366 0.956 . S
H4379 C4366 0.961 . S
H4380 C4366 0.961 . S
H4381 C4367 0.958 . S
H4382 C4367 0.961 . S
H4383 C4367 0.960 . S
C4384 C4385 1.391 . S
C4384 C4386 1.394 . S
C4384 H4400 0.931 . S
C4385 C4384 1.391 . S
C4385 C4389 1.376 . S
C4386 C4384 1.394 . S
C4386 C4387 1.369 . S
C4386 C4390 1.531 . S
C4387 C4386 1.369 . S
C4387 C4388 1.410 . S
C4387 C4395 1.503 . S
C4388 C4387 1.410 . S
C4388 C4389 1.392 . S
C4388 C4391 1.511 . S
C4389 C4385 1.376 . S
C4389 C4388 1.392 . S
C4389 H4401 0.929 . S
C4390 C4386 1.531 . S
C4390 H4402 0.960 . S
C4390 H4403 0.962 . S
C4390 H4404 0.960 . S
C4391 C4388 1.511 . S
C4391 H4405 0.961 . S
C4391 H4406 0.961 . S
C4391 H4407 0.961 . S
C4392 C4393 1.370 . S
C4392 C4394 1.363 . S
C4392 H4408 0.931 . S
C4393 C4392 1.370 . S
C4393 C4397 1.408 . S
C4394 C4392 1.363 . S
C4394 C4395 1.370 . S
C4394 C4398 1.524 . S
C4395 C4387 1.503 . S
C4395 C4394 1.370 . S
C4395 C4396 1.403 . S
C4396 C4395 1.403 . S
C4396 C4397 1.404 . S
C4396 C4399 1.539 . S
C4397 C4393 1.408 . S
C4397 C4396 1.404 . S
C4397 H4409 0.930 . S
C4398 C4394 1.524 . S
C4398 H4410 0.956 . S
C4398 H4411 0.961 . S
C4398 H4412 0.961 . S
C4399 C4396 1.539 . S
C4399 H4413 0.958 . S
C4399 H4414 0.961 . S
C4399 H4415 0.960 . S
H4400 C4384 0.931 . S
H4401 C4389 0.929 . S
H4402 C4390 0.960 . S
H4403 C4390 0.962 . S
H4404 C4390 0.960 . S
H4405 C4391 0.961 . S
H4406 C4391 0.961 . S
H4407 C4391 0.961 . S
H4408 C4392 0.931 . S
H4409 C4397 0.930 . S
H4410 C4398 0.956 . S
H4411 C4398 0.961 . S
H4412 C4398 0.961 . S
H4413 C4399 0.958 . S
H4414 C4399 0.961 . S
H4415 C4399 0.960 . S
C4416 C4417 1.391 . S
C4416 C4418 1.394 . S
C4416 H4432 0.931 . S
C4417 C4416 1.391 . S
C4417 C4421 1.376 . S
C4418 C4416 1.394 . S
C4418 C4419 1.369 . S
C4418 C4422 1.531 . S
C4419 C4418 1.369 . S
C4419 C4420 1.410 . S
C4419 C4427 1.503 . S
C4420 C4419 1.410 . S
C4420 C4421 1.392 . S
C4420 C4423 1.511 . S
C4421 C4417 1.376 . S
C4421 C4420 1.392 . S
C4421 H4433 0.929 . S
C4422 C4418 1.531 . S
C4422 H4434 0.960 . S
C4422 H4435 0.962 . S
C4422 H4436 0.960 . S
C4423 C4420 1.511 . S
C4423 H4437 0.961 . S
C4423 H4438 0.961 . S
C4423 H4439 0.961 . S
C4424 C4425 1.370 . S
C4424 C4426 1.363 . S
C4424 H4440 0.931 . S
C4425 C4424 1.370 . S
C4425 C4429 1.408 . S
C4426 C4424 1.363 . S
C4426 C4427 1.370 . S
C4426 C4430 1.524 . S
C4427 C4419 1.503 . S
C4427 C4426 1.370 . S
C4427 C4428 1.403 . S
C4428 C4427 1.403 . S
C4428 C4429 1.404 . S
C4428 C4431 1.539 . S
C4429 C4425 1.408 . S
C4429 C4428 1.404 . S
C4429 H4441 0.930 . S
C4430 C4426 1.524 . S
C4430 H4442 0.956 . S
C4430 H4443 0.961 . S
C4430 H4444 0.961 . S
C4431 C4428 1.539 . S
C4431 H4445 0.958 . S
C4431 H4446 0.961 . S
C4431 H4447 0.960 . S
H4432 C4416 0.931 . S
H4433 C4421 0.929 . S
H4434 C4422 0.960 . S
H4435 C4422 0.962 . S
H4436 C4422 0.960 . S
H4437 C4423 0.961 . S
H4438 C4423 0.961 . S
H4439 C4423 0.961 . S
H4440 C4424 0.931 . S
H4441 C4429 0.930 . S
H4442 C4430 0.956 . S
H4443 C4430 0.961 . S
H4444 C4430 0.961 . S
H4445 C4431 0.958 . S
H4446 C4431 0.961 . S
H4447 C4431 0.960 . S
C4448 C4449 1.391 . S
C4448 C4450 1.394 . S
C4448 H4464 0.931 . S
C4449 C4448 1.391 . S
C4449 C4453 1.376 . S
C4450 C4448 1.394 . S
C4450 C4451 1.369 . S
C4450 C4454 1.531 . S
C4451 C4450 1.369 . S
C4451 C4452 1.410 . S
C4451 C4459 1.503 . S
C4452 C4451 1.410 . S
C4452 C4453 1.392 . S
C4452 C4455 1.511 . S
C4453 C4449 1.376 . S
C4453 C4452 1.392 . S
C4453 H4465 0.929 . S
C4454 C4450 1.531 . S
C4454 H4466 0.960 . S
C4454 H4467 0.962 . S
C4454 H4468 0.960 . S
C4455 C4452 1.511 . S
C4455 H4469 0.961 . S
C4455 H4470 0.961 . S
C4455 H4471 0.961 . S
C4456 C4457 1.370 . S
C4456 C4458 1.363 . S
C4456 H4472 0.931 . S
C4457 C4456 1.370 . S
C4457 C4461 1.408 . S
C4458 C4456 1.363 . S
C4458 C4459 1.370 . S
C4458 C4462 1.524 . S
C4459 C4451 1.503 . S
C4459 C4458 1.370 . S
C4459 C4460 1.403 . S
C4460 C4459 1.403 . S
C4460 C4461 1.404 . S
C4460 C4463 1.539 . S
C4461 C4457 1.408 . S
C4461 C4460 1.404 . S
C4461 H4473 0.930 . S
C4462 C4458 1.524 . S
C4462 H4474 0.956 . S
C4462 H4475 0.961 . S
C4462 H4476 0.961 . S
C4463 C4460 1.539 . S
C4463 H4477 0.958 . S
C4463 H4478 0.961 . S
C4463 H4479 0.960 . S
H4464 C4448 0.931 . S
H4465 C4453 0.929 . S
H4466 C4454 0.960 . S
H4467 C4454 0.962 . S
H4468 C4454 0.960 . S
H4469 C4455 0.961 . S
H4470 C4455 0.961 . S
H4471 C4455 0.961 . S
H4472 C4456 0.931 . S
H4473 C4461 0.930 . S
H4474 C4462 0.956 . S
H4475 C4462 0.961 . S
H4476 C4462 0.961 . S
H4477 C4463 0.958 . S
H4478 C4463 0.961 . S
H4479 C4463 0.960 . S
C4480 C4481 1.391 . S
C4480 C4482 1.394 . S
C4480 H4496 0.931 . S
C4481 C4480 1.391 . S
C4481 C4485 1.376 . S
C4482 C4480 1.394 . S
C4482 C4483 1.369 . S
C4482 C4486 1.531 . S
C4483 C4482 1.369 . S
C4483 C4484 1.410 . S
C4483 C4491 1.503 . S
C4484 C4483 1.410 . S
C4484 C4485 1.392 . S
C4484 C4487 1.511 . S
C4485 C4481 1.376 . S
C4485 C4484 1.392 . S
C4485 H4497 0.929 . S
C4486 C4482 1.531 . S
C4486 H4498 0.960 . S
C4486 H4499 0.962 . S
C4486 H4500 0.960 . S
C4487 C4484 1.511 . S
C4487 H4501 0.961 . S
C4487 H4502 0.961 . S
C4487 H4503 0.961 . S
C4488 C4489 1.371 . S
C4488 C4490 1.363 1_545 S
C4488 H4504 0.928 1_545 S
C4489 C4488 1.371 . S
C4489 C4493 1.408 . S
C4490 C4488 1.363 1_565 S
C4490 C4491 1.370 . S
C4490 C4494 1.524 . S
C4491 C4483 1.503 . S
C4491 C4490 1.370 . S
C4491 C4492 1.403 1_565 S
C4492 C4491 1.403 1_545 S
C4492 C4493 1.404 . S
C4492 C4495 1.539 . S
C4493 C4489 1.408 . S
C4493 C4492 1.404 . S
C4493 H4505 0.930 . S
C4494 C4490 1.524 . S
C4494 H4506 0.956 . S
C4494 H4507 0.961 . S
C4494 H4508 0.961 . S
C4495 C4492 1.539 . S
C4495 H4509 0.958 . S
C4495 H4510 0.961 . S
C4495 H4511 0.960 1_545 S
H4496 C4480 0.931 . S
H4497 C4485 0.929 . S
H4498 C4486 0.960 . S
H4499 C4486 0.962 . S
H4500 C4486 0.960 . S
H4501 C4487 0.961 . S
H4502 C4487 0.961 . S
H4503 C4487 0.961 . S
H4504 C4488 0.928 1_565 S
H4505 C4493 0.930 . S
H4506 C4494 0.956 . S
H4507 C4494 0.961 . S
H4508 C4494 0.961 . S
H4509 C4495 0.958 . S
H4510 C4495 0.961 . S
H4511 C4495 0.960 1_565 S
C4512 C4513 1.391 . S
C4512 C4514 1.394 . S
C4512 H4528 0.931 . S
C4513 C4512 1.391 . S
C4513 C4517 1.376 . S
C4514 C4512 1.394 . S
C4514 C4515 1.369 . S
C4514 C4518 1.531 . S
C4515 C4514 1.369 . S
C4515 C4516 1.410 . S
C4515 C4523 1.503 . S
C4516 C4515 1.410 . S
C4516 C4517 1.392 . S
C4516 C4519 1.511 . S
C4517 C4513 1.376 . S
C4517 C4516 1.392 . S
C4517 H4529 0.929 . S
C4518 C4514 1.531 . S
C4518 H4530 0.960 . S
C4518 H4531 0.962 . S
C4518 H4532 0.960 . S
C4519 C4516 1.511 . S
C4519 H4533 0.961 . S
C4519 H4534 0.961 . S
C4519 H4535 0.961 . S
C4520 C4521 1.370 . S
C4520 C4522 1.363 . S
C4520 H4536 0.931 . S
C4521 C4520 1.370 . S
C4521 C4525 1.408 . S
C4522 C4520 1.363 . S
C4522 C4523 1.370 . S
C4522 C4526 1.524 . S
C4523 C4515 1.503 . S
C4523 C4522 1.370 . S
C4523 C4524 1.403 . S
C4524 C4523 1.403 . S
C4524 C4525 1.404 . S
C4524 C4527 1.539 . S
C4525 C4521 1.408 . S
C4525 C4524 1.404 . S
C4525 H4537 0.930 . S
C4526 C4522 1.524 . S
C4526 H4538 0.956 . S
C4526 H4539 0.961 . S
C4526 H4540 0.961 . S
C4527 C4524 1.539 . S
C4527 H4541 0.958 . S
C4527 H4542 0.961 . S
C4527 H4543 0.960 . S
H4528 C4512 0.931 . S
H4529 C4517 0.929 . S
H4530 C4518 0.960 . S
H4531 C4518 0.962 . S
H4532 C4518 0.960 . S
H4533 C4519 0.961 . S
H4534 C4519 0.961 . S
H4535 C4519 0.961 . S
H4536 C4520 0.931 . S
H4537 C4525 0.930 . S
H4538 C4526 0.956 . S
H4539 C4526 0.961 . S
H4540 C4526 0.961 . S
H4541 C4527 0.958 . S
H4542 C4527 0.961 . S
H4543 C4527 0.960 . S
C4544 C4545 1.391 . S
C4544 C4546 1.394 . S
C4544 H4560 0.931 . S
C4545 C4544 1.391 . S
C4545 C4549 1.376 . S
C4546 C4544 1.394 . S
C4546 C4547 1.369 . S
C4546 C4550 1.531 . S
C4547 C4546 1.369 . S
C4547 C4548 1.410 . S
C4547 C4555 1.503 . S
C4548 C4547 1.410 . S
C4548 C4549 1.392 . S
C4548 C4551 1.511 . S
C4549 C4545 1.376 . S
C4549 C4548 1.392 . S
C4549 H4561 0.929 . S
C4550 C4546 1.531 . S
C4550 H4562 0.960 . S
C4550 H4563 0.962 . S
C4550 H4564 0.960 . S
C4551 C4548 1.511 . S
C4551 H4565 0.961 . S
C4551 H4566 0.961 . S
C4551 H4567 0.961 . S
C4552 C4553 1.370 . S
C4552 C4554 1.363 . S
C4552 H4568 0.931 . S
C4553 C4552 1.370 . S
C4553 C4557 1.408 . S
C4554 C4552 1.363 . S
C4554 C4555 1.370 . S
C4554 C4558 1.524 . S
C4555 C4547 1.503 . S
C4555 C4554 1.370 . S
C4555 C4556 1.403 . S
C4556 C4555 1.403 . S
C4556 C4557 1.404 . S
C4556 C4559 1.539 . S
C4557 C4553 1.408 . S
C4557 C4556 1.404 . S
C4557 H4569 0.930 . S
C4558 C4554 1.524 . S
C4558 H4570 0.956 . S
C4558 H4571 0.961 . S
C4558 H4572 0.961 . S
C4559 C4556 1.539 . S
C4559 H4573 0.958 . S
C4559 H4574 0.961 . S
C4559 H4575 0.960 . S
H4560 C4544 0.931 . S
H4561 C4549 0.929 . S
H4562 C4550 0.960 . S
H4563 C4550 0.962 . S
H4564 C4550 0.960 . S
H4565 C4551 0.961 . S
H4566 C4551 0.961 . S
H4567 C4551 0.961 . S
H4568 C4552 0.931 . S
H4569 C4557 0.930 . S
H4570 C4558 0.956 . S
H4571 C4558 0.961 . S
H4572 C4558 0.961 . S
H4573 C4559 0.958 . S
H4574 C4559 0.961 . S
H4575 C4559 0.960 . S
C4576 C4577 1.391 . S
C4576 C4578 1.394 . S
C4576 H4592 0.931 . S
C4577 C4576 1.391 . S
C4577 C4581 1.376 . S
C4578 C4576 1.394 . S
C4578 C4579 1.369 . S
C4578 C4582 1.531 . S
C4579 C4578 1.369 . S
C4579 C4580 1.410 . S
C4579 C4587 1.503 . S
C4580 C4579 1.410 . S
C4580 C4581 1.392 . S
C4580 C4583 1.511 . S
C4581 C4577 1.376 . S
C4581 C4580 1.392 . S
C4581 H4593 0.929 . S
C4582 C4578 1.531 . S
C4582 H4594 0.960 . S
C4582 H4595 0.962 . S
C4582 H4596 0.960 . S
C4583 C4580 1.511 . S
C4583 H4597 0.961 . S
C4583 H4598 0.961 . S
C4583 H4599 0.961 . S
C4584 C4585 1.370 . S
C4584 C4586 1.363 . S
C4584 H4600 0.931 . S
C4585 C4584 1.370 . S
C4585 C4589 1.408 . S
C4586 C4584 1.363 . S
C4586 C4587 1.370 . S
C4586 C4590 1.524 . S
C4587 C4579 1.503 . S
C4587 C4586 1.370 . S
C4587 C4588 1.403 . S
C4588 C4587 1.403 . S
C4588 C4589 1.404 . S
C4588 C4591 1.539 . S
C4589 C4585 1.408 . S
C4589 C4588 1.404 . S
C4589 H4601 0.930 . S
C4590 C4586 1.524 . S
C4590 H4602 0.956 . S
C4590 H4603 0.961 . S
C4590 H4604 0.961 . S
C4591 C4588 1.539 . S
C4591 H4605 0.958 . S
C4591 H4606 0.961 . S
C4591 H4607 0.960 . S
H4592 C4576 0.931 . S
H4593 C4581 0.929 . S
H4594 C4582 0.960 . S
H4595 C4582 0.962 . S
H4596 C4582 0.960 . S
H4597 C4583 0.961 . S
H4598 C4583 0.961 . S
H4599 C4583 0.961 . S
H4600 C4584 0.931 . S
H4601 C4589 0.930 . S
H4602 C4590 0.956 . S
H4603 C4590 0.961 . S
H4604 C4590 0.961 . S
H4605 C4591 0.958 . S
H4606 C4591 0.961 . S
H4607 C4591 0.960 . S
C4608 C4609 1.391 . S
C4608 C4610 1.394 . S
C4608 H4624 0.931 . S
C4609 C4608 1.391 . S
C4609 C4613 1.376 . S
C4610 C4608 1.394 . S
C4610 C4611 1.369 . S
C4610 C4614 1.531 . S
C4611 C4610 1.369 . S
C4611 C4612 1.410 . S
C4611 C4619 1.503 . S
C4612 C4611 1.410 . S
C4612 C4613 1.392 . S
C4612 C4615 1.511 . S
C4613 C4609 1.376 . S
C4613 C4612 1.392 . S
C4613 H4625 0.929 . S
C4614 C4610 1.531 . S
C4614 H4626 0.960 . S
C4614 H4627 0.962 . S
C4614 H4628 0.960 . S
C4615 C4612 1.511 . S
C4615 H4629 0.961 . S
C4615 H4630 0.961 . S
C4615 H4631 0.961 . S
C4616 C4617 1.370 . S
C4616 C4618 1.363 . S
C4616 H4632 0.931 . S
C4617 C4616 1.370 . S
C4617 C4621 1.408 . S
C4618 C4616 1.363 . S
C4618 C4619 1.370 . S
C4618 C4622 1.524 . S
C4619 C4611 1.503 . S
C4619 C4618 1.370 . S
C4619 C4620 1.403 . S
C4620 C4619 1.403 . S
C4620 C4621 1.404 . S
C4620 C4623 1.539 . S
C4621 C4617 1.408 . S
C4621 C4620 1.404 . S
C4621 H4633 0.930 . S
C4622 C4618 1.524 . S
C4622 H4634 0.956 . S
C4622 H4635 0.961 . S
C4622 H4636 0.961 . S
C4623 C4620 1.539 . S
C4623 H4637 0.958 . S
C4623 H4638 0.961 . S
C4623 H4639 0.960 . S
H4624 C4608 0.931 . S
H4625 C4613 0.929 . S
H4626 C4614 0.960 . S
H4627 C4614 0.962 . S
H4628 C4614 0.960 . S
H4629 C4615 0.961 . S
H4630 C4615 0.961 . S
H4631 C4615 0.961 . S
H4632 C4616 0.931 . S
H4633 C4621 0.930 . S
H4634 C4622 0.956 . S
H4635 C4622 0.961 . S
H4636 C4622 0.961 . S
H4637 C4623 0.958 . S
H4638 C4623 0.961 . S
H4639 C4623 0.960 . S
C4640 C4641 1.391 . S
C4640 C4642 1.394 . S
C4640 H4656 0.931 . S
C4641 C4640 1.391 . S
C4641 C4645 1.376 . S
C4642 C4640 1.394 . S
C4642 C4643 1.369 . S
C4642 C4646 1.531 . S
C4643 C4642 1.369 . S
C4643 C4644 1.410 . S
C4643 C4651 1.503 . S
C4644 C4643 1.410 . S
C4644 C4645 1.392 . S
C4644 C4647 1.511 . S
C4645 C4641 1.376 . S
C4645 C4644 1.392 . S
C4645 H4657 0.929 . S
C4646 C4642 1.531 . S
C4646 H4658 0.960 . S
C4646 H4659 0.962 . S
C4646 H4660 0.960 . S
C4647 C4644 1.511 . S
C4647 H4661 0.961 . S
C4647 H4662 0.961 . S
C4647 H4663 0.961 . S
C4648 C4649 1.370 . S
C4648 C4650 1.363 1_655 S
C4648 H4664 0.931 . S
C4649 C4648 1.370 . S
C4649 C4653 1.408 . S
C4650 C4648 1.363 1_455 S
C4650 C4651 1.370 . S
C4650 C4654 1.524 . S
C4651 C4643 1.503 . S
C4651 C4650 1.370 . S
C4651 C4652 1.403 . S
C4652 C4651 1.403 . S
C4652 C4653 1.404 1_455 S
C4652 C4655 1.539 . S
C4653 C4649 1.408 . S
C4653 C4652 1.404 1_655 S
C4653 H4665 0.930 . S
C4654 C4650 1.524 . S
C4654 H4666 0.956 . S
C4654 H4667 0.961 . S
C4654 H4668 0.961 . S
C4655 C4652 1.539 . S
C4655 H4669 1.010 . S
C4655 H4670 1.022 . S
C4655 H4671 0.960 . S
H4656 C4640 0.931 . S
H4657 C4645 0.929 . S
H4658 C4646 0.960 . S
H4659 C4646 0.962 . S
H4660 C4646 0.960 . S
H4661 C4647 0.961 . S
H4662 C4647 0.961 . S
H4663 C4647 0.961 . S
H4664 C4648 0.931 . S
H4665 C4653 0.930 . S
H4666 C4654 0.956 . S
H4667 C4654 0.961 . S
H4668 C4654 0.961 . S
H4669 C4655 1.010 . S
H4670 C4655 1.022 . S
H4671 C4655 0.960 . S
C4672 C4673 1.391 . S
C4672 C4674 1.394 . S
C4672 H4688 0.931 . S
C4673 C4672 1.391 . S
C4673 C4677 1.376 . S
C4674 C4672 1.394 . S
C4674 C4675 1.369 . S
C4674 C4678 1.531 . S
C4675 C4674 1.369 . S
C4675 C4676 1.410 . S
C4675 C4683 1.503 . S
C4676 C4675 1.410 . S
C4676 C4677 1.392 . S
C4676 C4679 1.511 . S
C4677 C4673 1.376 . S
C4677 C4676 1.392 . S
C4677 H4689 0.929 . S
C4678 C4674 1.531 . S
C4678 H4690 0.960 . S
C4678 H4691 0.962 . S
C4678 H4692 0.960 . S
C4679 C4676 1.511 . S
C4679 H4693 0.961 . S
C4679 H4694 0.961 . S
C4679 H4695 0.961 . S
C4680 C4681 1.370 . S
C4680 C4682 1.363 . S
C4680 H4696 0.931 . S
C4681 C4680 1.370 . S
C4681 C4685 1.408 . S
C4682 C4680 1.363 . S
C4682 C4683 1.370 . S
C4682 C4686 1.524 . S
C4683 C4675 1.503 . S
C4683 C4682 1.370 . S
C4683 C4684 1.403 . S
C4684 C4683 1.403 . S
C4684 C4685 1.404 . S
C4684 C4687 1.539 . S
C4685 C4681 1.408 . S
C4685 C4684 1.404 . S
C4685 H4697 0.930 . S
C4686 C4682 1.524 . S
C4686 H4698 0.956 . S
C4686 H4699 0.961 . S
C4686 H4700 0.961 . S
C4687 C4684 1.539 . S
C4687 H4701 0.958 . S
C4687 H4702 0.961 . S
C4687 H4703 0.960 . S
H4688 C4672 0.931 . S
H4689 C4677 0.929 . S
H4690 C4678 0.960 . S
H4691 C4678 0.962 . S
H4692 C4678 0.960 . S
H4693 C4679 0.961 . S
H4694 C4679 0.961 . S
H4695 C4679 0.961 . S
H4696 C4680 0.931 . S
H4697 C4685 0.930 . S
H4698 C4686 0.956 . S
H4699 C4686 0.961 . S
H4700 C4686 0.961 . S
H4701 C4687 0.958 . S
H4702 C4687 0.961 . S
H4703 C4687 0.960 . S
C4704 C4705 1.391 . S
C4704 C4706 1.394 . S
C4704 H4720 0.931 . S
C4705 C4704 1.391 . S
C4705 C4709 1.376 . S
C4706 C4704 1.394 . S
C4706 C4707 1.369 . S
C4706 C4710 1.531 . S
C4707 C4706 1.369 . S
C4707 C4708 1.410 . S
C4707 C4715 1.503 . S
C4708 C4707 1.410 . S
C4708 C4709 1.392 . S
C4708 C4711 1.511 . S
C4709 C4705 1.376 . S
C4709 C4708 1.392 . S
C4709 H4721 0.929 . S
C4710 C4706 1.531 . S
C4710 H4722 0.960 . S
C4710 H4723 0.962 . S
C4710 H4724 0.960 . S
C4711 C4708 1.511 . S
C4711 H4725 0.961 . S
C4711 H4726 0.961 . S
C4711 H4727 0.961 . S
C4712 C4713 1.370 . S
C4712 C4714 1.363 . S
C4712 H4728 0.931 . S
C4713 C4712 1.370 . S
C4713 C4717 1.408 . S
C4714 C4712 1.363 . S
C4714 C4715 1.370 . S
C4714 C4718 1.524 . S
C4715 C4707 1.503 . S
C4715 C4714 1.370 . S
C4715 C4716 1.403 . S
C4716 C4715 1.403 . S
C4716 C4717 1.404 . S
C4716 C4719 1.539 . S
C4717 C4713 1.408 . S
C4717 C4716 1.404 . S
C4717 H4729 0.930 . S
C4718 C4714 1.524 . S
C4718 H4730 0.956 . S
C4718 H4731 0.961 . S
C4718 H4732 0.961 . S
C4719 C4716 1.539 . S
C4719 H4733 0.958 . S
C4719 H4734 0.961 . S
C4719 H4735 0.960 . S
H4720 C4704 0.931 . S
H4721 C4709 0.929 . S
H4722 C4710 0.960 . S
H4723 C4710 0.962 . S
H4724 C4710 0.960 . S
H4725 C4711 0.961 . S
H4726 C4711 0.961 . S
H4727 C4711 0.961 . S
H4728 C4712 0.931 . S
H4729 C4717 0.930 . S
H4730 C4718 0.956 . S
H4731 C4718 0.961 . S
H4732 C4718 0.961 . S
H4733 C4719 0.958 . S
H4734 C4719 0.961 . S
H4735 C4719 0.960 . S
C4736 C4737 1.391 . S
C4736 C4738 1.394 . S
C4736 H4752 0.931 . S
C4737 C4736 1.391 . S
C4737 C4741 1.376 . S
C4738 C4736 1.394 . S
C4738 C4739 1.369 . S
C4738 C4742 1.531 . S
C4739 C4738 1.369 . S
C4739 C4740 1.410 . S
C4739 C4747 1.503 . S
C4740 C4739 1.410 . S
C4740 C4741 1.392 . S
C4740 C4743 1.511 . S
C4741 C4737 1.376 . S
C4741 C4740 1.392 . S
C4741 H4753 0.929 . S
C4742 C4738 1.531 . S
C4742 H4754 0.960 . S
C4742 H4755 0.962 . S
C4742 H4756 0.960 . S
C4743 C4740 1.511 . S
C4743 H4757 0.961 . S
C4743 H4758 0.961 . S
C4743 H4759 0.961 . S
C4744 C4745 1.370 . S
C4744 C4746 1.363 . S
C4744 H4760 0.931 . S
C4745 C4744 1.370 . S
C4745 C4749 1.408 . S
C4746 C4744 1.363 . S
C4746 C4747 1.370 . S
C4746 C4750 1.524 . S
C4747 C4739 1.503 . S
C4747 C4746 1.370 . S
C4747 C4748 1.403 . S
C4748 C4747 1.403 . S
C4748 C4749 1.404 . S
C4748 C4751 1.539 . S
C4749 C4745 1.408 . S
C4749 C4748 1.404 . S
C4749 H4761 0.930 . S
C4750 C4746 1.524 . S
C4750 H4762 0.956 . S
C4750 H4763 0.961 . S
C4750 H4764 0.961 . S
C4751 C4748 1.539 . S
C4751 H4765 0.958 . S
C4751 H4766 0.961 . S
C4751 H4767 0.960 . S
H4752 C4736 0.931 . S
H4753 C4741 0.929 . S
H4754 C4742 0.960 . S
H4755 C4742 0.962 . S
H4756 C4742 0.960 . S
H4757 C4743 0.961 . S
H4758 C4743 0.961 . S
H4759 C4743 0.961 . S
H4760 C4744 0.931 . S
H4761 C4749 0.930 . S
H4762 C4750 0.956 . S
H4763 C4750 0.961 . S
H4764 C4750 0.961 . S
H4765 C4751 0.958 . S
H4766 C4751 0.961 . S
H4767 C4751 0.960 . S
C4768 C4769 1.391 . S
C4768 C4770 1.394 . S
C4768 H4784 0.931 . S
C4769 C4768 1.391 . S
C4769 C4773 1.376 . S
C4770 C4768 1.394 . S
C4770 C4771 1.369 . S
C4770 C4774 1.531 . S
C4771 C4770 1.369 . S
C4771 C4772 1.410 . S
C4771 C4779 1.503 . S
C4772 C4771 1.410 . S
C4772 C4773 1.392 . S
C4772 C4775 1.511 . S
C4773 C4769 1.376 . S
C4773 C4772 1.392 . S
C4773 H4785 0.929 . S
C4774 C4770 1.531 . S
C4774 H4786 0.960 . S
C4774 H4787 0.962 . S
C4774 H4788 0.960 . S
C4775 C4772 1.511 . S
C4775 H4789 0.961 . S
C4775 H4790 0.961 . S
C4775 H4791 0.961 . S
C4776 C4777 1.370 . S
C4776 C4778 1.363 . S
C4776 H4792 0.931 . S
C4777 C4776 1.370 . S
C4777 C4781 1.408 . S
C4778 C4776 1.363 . S
C4778 C4779 1.370 . S
C4778 C4782 1.524 . S
C4779 C4771 1.503 . S
C4779 C4778 1.370 . S
C4779 C4780 1.403 . S
C4780 C4779 1.403 . S
C4780 C4781 1.404 . S
C4780 C4783 1.539 . S
C4781 C4777 1.408 . S
C4781 C4780 1.404 . S
C4781 H4793 0.930 . S
C4782 C4778 1.524 . S
C4782 H4794 0.956 . S
C4782 H4795 0.961 . S
C4782 H4796 0.961 . S
C4783 C4780 1.539 . S
C4783 H4797 0.958 . S
C4783 H4798 0.961 . S
C4783 H4799 0.960 . S
H4784 C4768 0.931 . S
H4785 C4773 0.929 . S
H4786 C4774 0.960 . S
H4787 C4774 0.962 . S
H4788 C4774 0.960 . S
H4789 C4775 0.961 . S
H4790 C4775 0.961 . S
H4791 C4775 0.961 . S
H4792 C4776 0.931 . S
H4793 C4781 0.930 . S
H4794 C4782 0.956 . S
H4795 C4782 0.961 . S
H4796 C4782 0.961 . S
H4797 C4783 0.958 . S
H4798 C4783 0.961 . S
H4799 C4783 0.960 . S
C4800 C4801 1.391 . S
C4800 C4802 1.394 . S
C4800 H4816 0.931 . S
C4801 C4800 1.391 . S
C4801 C4805 1.376 . S
C4802 C4800 1.394 . S
C4802 C4803 1.369 . S
C4802 C4806 1.531 . S
C4803 C4802 1.369 . S
C4803 C4804 1.410 . S
C4803 C4811 1.503 . S
C4804 C4803 1.410 . S
C4804 C4805 1.392 . S
C4804 C4807 1.511 . S
C4805 C4801 1.376 . S
C4805 C4804 1.392 . S
C4805 H4817 0.929 . S
C4806 C4802 1.531 . S
C4806 H4818 0.960 . S
C4806 H4819 0.962 . S
C4806 H4820 0.960 . S
C4807 C4804 1.511 . S
C4807 H4821 0.961 . S
C4807 H4822 0.961 . S
C4807 H4823 0.961 . S
C4808 C4809 1.370 . S
C4808 C4810 1.363 . S
C4808 H4824 0.931 . S
C4809 C4808 1.370 . S
C4809 C4813 1.408 . S
C4810 C4808 1.363 . S
C4810 C4811 1.370 . S
C4810 C4814 1.524 . S
C4811 C4803 1.503 . S
C4811 C4810 1.370 . S
C4811 C4812 1.403 . S
C4812 C4811 1.403 . S
C4812 C4813 1.404 . S
C4812 C4815 1.539 . S
C4813 C4809 1.408 . S
C4813 C4812 1.404 . S
C4813 H4825 0.930 . S
C4814 C4810 1.524 . S
C4814 H4826 0.956 . S
C4814 H4827 0.961 . S
C4814 H4828 0.961 . S
C4815 C4812 1.539 . S
C4815 H4829 0.958 . S
C4815 H4830 0.961 . S
C4815 H4831 0.960 . S
H4816 C4800 0.931 . S
H4817 C4805 0.929 . S
H4818 C4806 0.960 . S
H4819 C4806 0.962 . S
H4820 C4806 0.960 . S
H4821 C4807 0.961 . S
H4822 C4807 0.961 . S
H4823 C4807 0.961 . S
H4824 C4808 0.931 . S
H4825 C4813 0.930 . S
H4826 C4814 0.956 . S
H4827 C4814 0.961 . S
H4828 C4814 0.961 . S
H4829 C4815 0.958 . S
H4830 C4815 0.961 . S
H4831 C4815 0.960 . S
C4832 C4833 1.391 . S
C4832 C4834 1.452 . S
C4832 H4848 0.931 . S
C4833 C4832 1.391 . S
C4833 C4837 1.394 . S
C4834 C4832 1.452 . S
C4834 C4835 1.310 1_655 S
C4834 C4838 1.530 . S
C4835 C4834 1.310 1_455 S
C4835 C4836 1.410 . S
C4835 C4843 1.503 . S
C4836 C4835 1.410 . S
C4836 C4837 1.375 1_455 S
C4836 C4839 1.511 . S
C4837 C4833 1.394 . S
C4837 C4836 1.375 1_655 S
C4837 H4849 0.929 . S
C4838 C4834 1.530 . S
C4838 H4850 0.878 1_655 S
C4838 H4851 0.961 . S
C4838 H4852 1.053 . S
C4839 C4836 1.511 . S
C4839 H4853 0.961 . S
C4839 H4854 0.961 . S
C4839 H4855 0.961 . S
C4840 C4841 1.370 . S
C4840 C4842 1.363 . S
C4840 H4856 0.931 . S
C4841 C4840 1.370 . S
C4841 C4845 1.408 . S
C4842 C4840 1.363 . S
C4842 C4843 1.370 . S
C4842 C4846 1.524 . S
C4843 C4835 1.503 . S
C4843 C4842 1.370 . S
C4843 C4844 1.403 . S
C4844 C4843 1.403 . S
C4844 C4845 1.404 . S
C4844 C4847 1.539 . S
C4845 C4841 1.408 . S
C4845 C4844 1.404 . S
C4845 H4857 0.930 . S
C4846 C4842 1.524 . S
C4846 H4858 0.956 . S
C4846 H4859 0.961 . S
C4846 H4860 0.961 . S
C4847 C4844 1.539 . S
C4847 H4861 0.958 . S
C4847 H4862 0.961 . S
C4847 H4863 0.960 . S
H4848 C4832 0.931 . S
H4849 C4837 0.929 . S
H4850 C4838 0.878 1_455 S
H4851 C4838 0.961 . S
H4852 C4838 1.053 . S
H4853 C4839 0.961 . S
H4854 C4839 0.961 . S
H4855 C4839 0.961 . S
H4856 C4840 0.931 . S
H4857 C4845 0.930 . S
H4858 C4846 0.956 . S
H4859 C4846 0.961 . S
H4860 C4846 0.961 . S
H4861 C4847 0.958 . S
H4862 C4847 0.961 . S
H4863 C4847 0.960 . S
C4864 C4865 1.391 . S
C4864 C4866 1.394 . S
C4864 H4880 0.931 . S
C4865 C4864 1.391 . S
C4865 C4869 1.376 . S
C4866 C4864 1.394 . S
C4866 C4867 1.369 . S
C4866 C4870 1.531 . S
C4867 C4866 1.369 . S
C4867 C4868 1.410 . S
C4867 C4875 1.503 . S
C4868 C4867 1.410 . S
C4868 C4869 1.392 . S
C4868 C4871 1.511 . S
C4869 C4865 1.376 . S
C4869 C4868 1.392 . S
C4869 H4881 0.929 . S
C4870 C4866 1.531 . S
C4870 H4882 0.960 . S
C4870 H4883 0.962 . S
C4870 H4884 0.960 . S
C4871 C4868 1.511 . S
C4871 H4885 0.961 . S
C4871 H4886 0.961 . S
C4871 H4887 0.961 . S
C4872 C4873 1.370 . S
C4872 C4874 1.363 . S
C4872 H4888 0.931 . S
C4873 C4872 1.370 . S
C4873 C4877 1.408 . S
C4874 C4872 1.363 . S
C4874 C4875 1.370 . S
C4874 C4878 1.524 . S
C4875 C4867 1.503 . S
C4875 C4874 1.370 . S
C4875 C4876 1.403 . S
C4876 C4875 1.403 . S
C4876 C4877 1.404 . S
C4876 C4879 1.539 . S
C4877 C4873 1.408 . S
C4877 C4876 1.404 . S
C4877 H4889 0.930 . S
C4878 C4874 1.524 . S
C4878 H4890 0.956 . S
C4878 H4891 0.961 . S
C4878 H4892 0.961 . S
C4879 C4876 1.539 . S
C4879 H4893 0.958 . S
C4879 H4894 0.961 . S
C4879 H4895 0.960 . S
H4880 C4864 0.931 . S
H4881 C4869 0.929 . S
H4882 C4870 0.960 . S
H4883 C4870 0.962 . S
H4884 C4870 0.960 . S
H4885 C4871 0.961 . S
H4886 C4871 0.961 . S
H4887 C4871 0.961 . S
H4888 C4872 0.931 . S
H4889 C4877 0.930 . S
H4890 C4878 0.956 . S
H4891 C4878 0.961 . S
H4892 C4878 0.961 . S
H4893 C4879 0.958 . S
H4894 C4879 0.961 . S
H4895 C4879 0.960 . S
C4896 C4897 1.391 . S
C4896 C4898 1.394 . S
C4896 H4912 0.931 . S
C4897 C4896 1.391 . S
C4897 C4901 1.376 . S
C4898 C4896 1.394 . S
C4898 C4899 1.369 . S
C4898 C4902 1.531 . S
C4899 C4898 1.369 . S
C4899 C4900 1.410 . S
C4899 C4907 1.503 . S
C4900 C4899 1.410 . S
C4900 C4901 1.392 . S
C4900 C4903 1.511 . S
C4901 C4897 1.376 . S
C4901 C4900 1.392 . S
C4901 H4913 0.929 . S
C4902 C4898 1.531 . S
C4902 H4914 0.960 . S
C4902 H4915 0.962 . S
C4902 H4916 0.960 . S
C4903 C4900 1.511 . S
C4903 H4917 0.961 . S
C4903 H4918 0.961 . S
C4903 H4919 0.961 . S
C4904 C4905 1.370 . S
C4904 C4906 1.363 . S
C4904 H4920 0.931 . S
C4905 C4904 1.370 . S
C4905 C4909 1.408 . S
C4906 C4904 1.363 . S
C4906 C4907 1.370 . S
C4906 C4910 1.524 . S
C4907 C4899 1.503 . S
C4907 C4906 1.370 . S
C4907 C4908 1.403 . S
C4908 C4907 1.403 . S
C4908 C4909 1.404 . S
C4908 C4911 1.539 . S
C4909 C4905 1.408 . S
C4909 C4908 1.404 . S
C4909 H4921 0.930 . S
C4910 C4906 1.524 . S
C4910 H4922 0.956 . S
C4910 H4923 0.961 . S
C4910 H4924 0.961 . S
C4911 C4908 1.539 . S
C4911 H4925 0.958 . S
C4911 H4926 0.961 . S
C4911 H4927 0.960 . S
H4912 C4896 0.931 . S
H4913 C4901 0.929 . S
H4914 C4902 0.960 . S
H4915 C4902 0.962 . S
H4916 C4902 0.960 . S
H4917 C4903 0.961 . S
H4918 C4903 0.961 . S
H4919 C4903 0.961 . S
H4920 C4904 0.931 . S
H4921 C4909 0.930 . S
H4922 C4910 0.956 . S
H4923 C4910 0.961 . S
H4924 C4910 0.961 . S
H4925 C4911 0.958 . S
H4926 C4911 0.961 . S
H4927 C4911 0.960 . S
C4928 C4929 1.391 . S
C4928 C4930 1.394 . S
C4928 H4944 0.931 . S
C4929 C4928 1.391 . S
C4929 C4933 1.376 . S
C4930 C4928 1.394 . S
C4930 C4931 1.369 . S
C4930 C4934 1.531 . S
C4931 C4930 1.369 . S
C4931 C4932 1.410 . S
C4931 C4939 1.503 . S
C4932 C4931 1.410 . S
C4932 C4933 1.392 . S
C4932 C4935 1.511 . S
C4933 C4929 1.376 . S
C4933 C4932 1.392 . S
C4933 H4945 0.929 . S
C4934 C4930 1.531 . S
C4934 H4946 0.960 . S
C4934 H4947 0.962 . S
C4934 H4948 0.960 . S
C4935 C4932 1.511 . S
C4935 H4949 0.961 . S
C4935 H4950 0.961 . S
C4935 H4951 0.961 . S
C4936 C4937 1.370 . S
C4936 C4938 1.363 . S
C4936 H4952 0.931 . S
C4937 C4936 1.370 . S
C4937 C4941 1.408 . S
C4938 C4936 1.363 . S
C4938 C4939 1.370 . S
C4938 C4942 1.524 . S
C4939 C4931 1.503 . S
C4939 C4938 1.370 . S
C4939 C4940 1.403 . S
C4940 C4939 1.403 . S
C4940 C4941 1.404 . S
C4940 C4943 1.539 . S
C4941 C4937 1.408 . S
C4941 C4940 1.404 . S
C4941 H4953 0.930 . S
C4942 C4938 1.524 . S
C4942 H4954 0.956 . S
C4942 H4955 0.961 . S
C4942 H4956 0.961 . S
C4943 C4940 1.539 . S
C4943 H4957 0.958 . S
C4943 H4958 0.961 . S
C4943 H4959 0.960 . S
H4944 C4928 0.931 . S
H4945 C4933 0.929 . S
H4946 C4934 0.960 . S
H4947 C4934 0.962 . S
H4948 C4934 0.960 . S
H4949 C4935 0.961 . S
H4950 C4935 0.961 . S
H4951 C4935 0.961 . S
H4952 C4936 0.931 . S
H4953 C4941 0.930 . S
H4954 C4942 0.956 . S
H4955 C4942 0.961 . S
H4956 C4942 0.961 . S
H4957 C4943 0.958 . S
H4958 C4943 0.961 . S
H4959 C4943 0.960 . S
C4960 C4961 1.391 . S
C4960 C4962 1.394 1_554 S
C4960 H4976 0.931 . S
C4961 C4960 1.391 . S
C4961 C4965 1.376 . S
C4962 C4960 1.394 1_556 S
C4962 C4963 1.369 . S
C4962 C4966 1.531 . S
C4963 C4962 1.369 . S
C4963 C4964 1.410 . S
C4963 C4971 1.503 . S
C4964 C4963 1.410 . S
C4964 C4965 1.392 1_556 S
C4964 C4967 1.511 . S
C4965 C4961 1.376 . S
C4965 C4964 1.392 1_554 S
C4965 H4977 0.929 . S
C4966 C4962 1.531 . S
C4966 H4978 0.960 . S
C4966 H4979 0.962 . S
C4966 H4980 0.960 . S
C4967 C4964 1.511 . S
C4967 H4981 0.870 1_556 S
C4967 H4982 0.961 . S
C4967 H4983 0.961 . S
C4968 C4969 1.370 . S
C4968 C4970 1.363 . S
C4968 H4984 0.931 . S
C4969 C4968 1.370 . S
C4969 C4973 1.408 . S
C4970 C4968 1.363 . S
C4970 C4971 1.370 . S
C4970 C4974 1.524 . S
C4971 C4963 1.503 . S
C4971 C4970 1.370 . S
C4971 C4972 1.403 . S
C4972 C4971 1.403 . S
C4972 C4973 1.404 . S
C4972 C4975 1.539 . S
C4973 C4969 1.408 . S
C4973 C4972 1.404 . S
C4973 H4985 0.930 . S
C4974 C4970 1.524 . S
C4974 H4986 0.956 . S
C4974 H4987 0.961 . S
C4974 H4988 0.961 . S
C4975 C4972 1.539 . S
C4975 H4989 0.958 . S
C4975 H4990 0.961 . S
C4975 H4991 0.960 . S
H4976 C4960 0.931 . S
H4977 C4965 0.929 . S
H4978 C4966 0.960 . S
H4979 C4966 0.962 . S
H4980 C4966 0.960 . S
H4981 C4967 0.870 1_554 S
H4982 C4967 0.961 . S
H4983 C4967 0.961 . S
H4984 C4968 0.931 . S
H4985 C4973 0.930 . S
H4986 C4974 0.956 . S
H4987 C4974 0.961 . S
H4988 C4974 0.961 . S
H4989 C4975 0.958 . S
H4990 C4975 0.961 . S
H4991 C4975 0.960 . S
C4992 C4993 1.391 . S
C4992 C4994 1.394 . S
C4992 H5008 0.931 . S
C4993 C4992 1.391 . S
C4993 C4997 1.376 . S
C4994 C4992 1.394 . S
C4994 C4995 1.369 . S
C4994 C4998 1.531 . S
C4995 C4994 1.369 . S
C4995 C4996 1.410 . S
C4995 C5003 1.503 . S
C4996 C4995 1.410 . S
C4996 C4997 1.392 . S
C4996 C4999 1.511 . S
C4997 C4993 1.376 . S
C4997 C4996 1.392 . S
C4997 H5009 0.929 . S
C4998 C4994 1.531 . S
C4998 H5010 0.960 . S
C4998 H5011 0.962 . S
C4998 H5012 0.960 . S
C4999 C4996 1.511 . S
C4999 H5013 0.961 . S
C4999 H5014 0.961 . S
C4999 H5015 0.961 . S
C5000 C5001 1.370 . S
C5000 C5002 1.363 . S
C5000 H5016 0.931 . S
C5001 C5000 1.370 . S
C5001 C5005 1.408 . S
C5002 C5000 1.363 . S
C5002 C5003 1.370 . S
C5002 C5006 1.524 . S
C5003 C4995 1.503 . S
C5003 C5002 1.370 . S
C5003 C5004 1.403 . S
C5004 C5003 1.403 . S
C5004 C5005 1.404 . S
C5004 C5007 1.539 . S
C5005 C5001 1.408 . S
C5005 C5004 1.404 . S
C5005 H5017 0.930 . S
C5006 C5002 1.524 . S
C5006 H5018 0.956 . S
C5006 H5019 0.961 . S
C5006 H5020 0.961 . S
C5007 C5004 1.539 . S
C5007 H5021 0.958 . S
C5007 H5022 0.961 . S
C5007 H5023 0.960 . S
H5008 C4992 0.931 . S
H5009 C4997 0.929 . S
H5010 C4998 0.960 . S
H5011 C4998 0.962 . S
H5012 C4998 0.960 . S
H5013 C4999 0.961 . S
H5014 C4999 0.961 . S
H5015 C4999 0.961 . S
H5016 C5000 0.931 . S
H5017 C5005 0.930 . S
H5018 C5006 0.956 . S
H5019 C5006 0.961 . S
H5020 C5006 0.961 . S
H5021 C5007 0.958 . S
H5022 C5007 0.961 . S
H5023 C5007 0.960 . S
C5024 C5025 1.391 . S
C5024 C5026 1.394 . S
C5024 H5040 0.931 . S
C5025 C5024 1.391 . S
C5025 C5029 1.376 . S
C5026 C5024 1.394 . S
C5026 C5027 1.369 . S
C5026 C5030 1.531 . S
C5027 C5026 1.369 . S
C5027 C5028 1.410 . S
C5027 C5035 1.503 . S
C5028 C5027 1.410 . S
C5028 C5029 1.392 . S
C5028 C5031 1.511 . S
C5029 C5025 1.376 . S
C5029 C5028 1.392 . S
C5029 H5041 0.929 . S
C5030 C5026 1.531 . S
C5030 H5042 0.960 . S
C5030 H5043 0.962 . S
C5030 H5044 0.960 . S
C5031 C5028 1.511 . S
C5031 H5045 0.961 . S
C5031 H5046 0.961 . S
C5031 H5047 0.961 . S
C5032 C5033 1.370 . S
C5032 C5034 1.363 . S
C5032 H5048 0.931 . S
C5033 C5032 1.370 . S
C5033 C5037 1.408 . S
C5034 C5032 1.363 . S
C5034 C5035 1.370 . S
C5034 C5038 1.524 . S
C5035 C5027 1.503 . S
C5035 C5034 1.370 . S
C5035 C5036 1.403 . S
C5036 C5035 1.403 . S
C5036 C5037 1.404 . S
C5036 C5039 1.539 . S
C5037 C5033 1.408 . S
C5037 C5036 1.404 . S
C5037 H5049 0.930 . S
C5038 C5034 1.524 . S
C5038 H5050 0.956 . S
C5038 H5051 0.961 . S
C5038 H5052 0.961 . S
C5039 C5036 1.539 . S
C5039 H5053 0.958 . S
C5039 H5054 0.961 . S
C5039 H5055 0.960 . S
H5040 C5024 0.931 . S
H5041 C5029 0.929 . S
H5042 C5030 0.960 . S
H5043 C5030 0.962 . S
H5044 C5030 0.960 . S
H5045 C5031 0.961 . S
H5046 C5031 0.961 . S
H5047 C5031 0.961 . S
H5048 C5032 0.931 . S
H5049 C5037 0.930 . S
H5050 C5038 0.956 . S
H5051 C5038 0.961 . S
H5052 C5038 0.961 . S
H5053 C5039 0.958 . S
H5054 C5039 0.961 . S
H5055 C5039 0.960 . S
C5056 C5057 1.391 . S
C5056 C5058 1.394 . S
C5056 H5072 0.931 . S
C5057 C5056 1.391 . S
C5057 C5061 1.376 . S
C5058 C5056 1.394 . S
C5058 C5059 1.369 . S
C5058 C5062 1.531 . S
C5059 C5058 1.369 . S
C5059 C5060 1.410 . S
C5059 C5067 1.503 . S
C5060 C5059 1.410 . S
C5060 C5061 1.392 . S
C5060 C5063 1.511 . S
C5061 C5057 1.376 . S
C5061 C5060 1.392 . S
C5061 H5073 0.929 . S
C5062 C5058 1.531 . S
C5062 H5074 0.960 . S
C5062 H5075 0.962 . S
C5062 H5076 0.960 . S
C5063 C5060 1.511 . S
C5063 H5077 0.961 . S
C5063 H5078 0.961 . S
C5063 H5079 0.961 . S
C5064 C5065 1.370 . S
C5064 C5066 1.363 . S
C5064 H5080 0.931 . S
C5065 C5064 1.370 . S
C5065 C5069 1.408 . S
C5066 C5064 1.363 . S
C5066 C5067 1.370 . S
C5066 C5070 1.524 . S
C5067 C5059 1.503 . S
C5067 C5066 1.370 . S
C5067 C5068 1.403 . S
C5068 C5067 1.403 . S
C5068 C5069 1.404 . S
C5068 C5071 1.539 . S
C5069 C5065 1.408 . S
C5069 C5068 1.404 . S
C5069 H5081 0.930 . S
C5070 C5066 1.524 . S
C5070 H5082 0.956 . S
C5070 H5083 0.961 . S
C5070 H5084 0.961 . S
C5071 C5068 1.539 . S
C5071 H5085 0.958 . S
C5071 H5086 0.961 . S
C5071 H5087 0.960 . S
H5072 C5056 0.931 . S
H5073 C5061 0.929 . S
H5074 C5062 0.960 . S
H5075 C5062 0.962 . S
H5076 C5062 0.960 . S
H5077 C5063 0.961 . S
H5078 C5063 0.961 . S
H5079 C5063 0.961 . S
H5080 C5064 0.931 . S
H5081 C5069 0.930 . S
H5082 C5070 0.956 . S
H5083 C5070 0.961 . S
H5084 C5070 0.961 . S
H5085 C5071 0.958 . S
H5086 C5071 0.961 . S
H5087 C5071 0.960 . S
C5088 C5089 1.391 . S
C5088 C5090 1.394 . S
C5088 H5104 0.931 . S
C5089 C5088 1.391 . S
C5089 C5093 1.376 . S
C5090 C5088 1.394 . S
C5090 C5091 1.369 . S
C5090 C5094 1.531 . S
C5091 C5090 1.369 . S
C5091 C5092 1.410 . S
C5091 C5099 1.503 . S
C5092 C5091 1.410 . S
C5092 C5093 1.392 . S
C5092 C5095 1.511 . S
C5093 C5089 1.376 . S
C5093 C5092 1.392 . S
C5093 H5105 0.929 . S
C5094 C5090 1.531 . S
C5094 H5106 0.960 . S
C5094 H5107 0.962 . S
C5094 H5108 0.960 . S
C5095 C5092 1.511 . S
C5095 H5109 0.961 . S
C5095 H5110 0.961 . S
C5095 H5111 0.961 . S
C5096 C5097 1.370 . S
C5096 C5098 1.363 1_556 S
C5096 H5112 0.931 . S
C5097 C5096 1.370 . S
C5097 C5101 1.408 . S
C5098 C5096 1.363 1_554 S
C5098 C5099 1.370 . S
C5098 C5102 1.524 . S
C5099 C5091 1.503 . S
C5099 C5098 1.370 . S
C5099 C5100 1.403 . S
C5100 C5099 1.403 . S
C5100 C5101 1.404 1_554 S
C5100 C5103 1.539 . S
C5101 C5097 1.408 . S
C5101 C5100 1.404 1_556 S
C5101 H5113 0.930 . S
C5102 C5098 1.524 . S
C5102 H5114 0.956 . S
C5102 H5115 0.961 . S
C5102 H5116 0.961 1_554 S
C5103 C5100 1.539 . S
C5103 H5117 0.958 . S
C5103 H5118 0.961 . S
C5103 H5119 0.960 . S
H5104 C5088 0.931 . S
H5105 C5093 0.929 . S
H5106 C5094 0.960 . S
H5107 C5094 0.962 . S
H5108 C5094 0.960 . S
H5109 C5095 0.961 . S
H5110 C5095 0.961 . S
H5111 C5095 0.961 . S
H5112 C5096 0.931 . S
H5113 C5101 0.930 . S
H5114 C5102 0.956 . S
H5115 C5102 0.961 . S
H5116 C5102 0.961 1_556 S
H5117 C5103 0.958 . S
H5118 C5103 0.961 . S
H5119 C5103 0.960 . S
C5120 C5121 1.391 . S
C5120 C5122 1.394 . S
C5120 H5136 0.931 . S
C5121 C5120 1.391 . S
C5121 C5125 1.376 . S
C5122 C5120 1.394 . S
C5122 C5123 1.369 . S
C5122 C5126 1.531 . S
C5123 C5122 1.369 . S
C5123 C5124 1.410 . S
C5123 C5131 1.503 . S
C5124 C5123 1.410 . S
C5124 C5125 1.392 . S
C5124 C5127 1.511 . S
C5125 C5121 1.376 . S
C5125 C5124 1.392 . S
C5125 H5137 0.929 . S
C5126 C5122 1.531 . S
C5126 H5138 0.960 . S
C5126 H5139 0.962 . S
C5126 H5140 0.960 . S
C5127 C5124 1.511 . S
C5127 H5141 0.961 . S
C5127 H5142 0.961 . S
C5127 H5143 0.961 . S
C5128 C5129 1.370 . S
C5128 C5130 1.363 . S
C5128 H5144 0.931 . S
C5129 C5128 1.370 . S
C5129 C5133 1.408 . S
C5130 C5128 1.363 . S
C5130 C5131 1.370 . S
C5130 C5134 1.524 . S
C5131 C5123 1.503 . S
C5131 C5130 1.370 . S
C5131 C5132 1.403 . S
C5132 C5131 1.403 . S
C5132 C5133 1.404 . S
C5132 C5135 1.539 . S
C5133 C5129 1.408 . S
C5133 C5132 1.404 . S
C5133 H5145 0.930 . S
C5134 C5130 1.524 . S
C5134 H5146 0.956 . S
C5134 H5147 0.961 . S
C5134 H5148 0.961 . S
C5135 C5132 1.539 . S
C5135 H5149 0.958 . S
C5135 H5150 0.961 . S
C5135 H5151 0.960 . S
H5136 C5120 0.931 . S
H5137 C5125 0.929 . S
H5138 C5126 0.960 . S
H5139 C5126 0.962 . S
H5140 C5126 0.960 . S
H5141 C5127 0.961 . S
H5142 C5127 0.961 . S
H5143 C5127 0.961 . S
H5144 C5128 0.931 . S
H5145 C5133 0.930 . S
H5146 C5134 0.956 . S
H5147 C5134 0.961 . S
H5148 C5134 0.961 . S
H5149 C5135 0.958 . S
H5150 C5135 0.961 . S
H5151 C5135 0.960 . S
C5152 C5153 1.391 . S
C5152 C5154 1.394 . S
C5152 H5168 0.931 . S
C5153 C5152 1.391 . S
C5153 C5157 1.376 . S
C5154 C5152 1.394 . S
C5154 C5155 1.369 . S
C5154 C5158 1.531 . S
C5155 C5154 1.369 . S
C5155 C5156 1.410 . S
C5155 C5163 1.503 . S
C5156 C5155 1.410 . S
C5156 C5157 1.392 . S
C5156 C5159 1.511 . S
C5157 C5153 1.376 . S
C5157 C5156 1.392 . S
C5157 H5169 0.929 . S
C5158 C5154 1.531 . S
C5158 H5170 0.960 . S
C5158 H5171 0.962 . S
C5158 H5172 0.960 . S
C5159 C5156 1.511 . S
C5159 H5173 0.961 . S
C5159 H5174 0.961 . S
C5159 H5175 0.961 . S
C5160 C5161 1.370 . S
C5160 C5162 1.363 . S
C5160 H5176 0.931 . S
C5161 C5160 1.370 . S
C5161 C5165 1.408 . S
C5162 C5160 1.363 . S
C5162 C5163 1.370 . S
C5162 C5166 1.524 . S
C5163 C5155 1.503 . S
C5163 C5162 1.370 . S
C5163 C5164 1.403 . S
C5164 C5163 1.403 . S
C5164 C5165 1.404 . S
C5164 C5167 1.539 . S
C5165 C5161 1.408 . S
C5165 C5164 1.404 . S
C5165 H5177 0.930 . S
C5166 C5162 1.524 . S
C5166 H5178 0.956 . S
C5166 H5179 0.961 . S
C5166 H5180 0.961 . S
C5167 C5164 1.539 . S
C5167 H5181 0.958 . S
C5167 H5182 0.961 . S
C5167 H5183 0.960 . S
H5168 C5152 0.931 . S
H5169 C5157 0.929 . S
H5170 C5158 0.960 . S
H5171 C5158 0.962 . S
H5172 C5158 0.960 . S
H5173 C5159 0.961 . S
H5174 C5159 0.961 . S
H5175 C5159 0.961 . S
H5176 C5160 0.931 . S
H5177 C5165 0.930 . S
H5178 C5166 0.956 . S
H5179 C5166 0.961 . S
H5180 C5166 0.961 . S
H5181 C5167 0.958 . S
H5182 C5167 0.961 . S
H5183 C5167 0.960 . S
C5184 C5185 1.391 . S
C5184 C5186 1.394 . S
C5184 H5200 0.931 . S
C5185 C5184 1.391 . S
C5185 C5189 1.376 . S
C5186 C5184 1.394 . S
C5186 C5187 1.369 . S
C5186 C5190 1.531 . S
C5187 C5186 1.369 . S
C5187 C5188 1.410 . S
C5187 C5195 1.503 . S
C5188 C5187 1.410 . S
C5188 C5189 1.392 . S
C5188 C5191 1.511 . S
C5189 C5185 1.376 . S
C5189 C5188 1.392 . S
C5189 H5201 0.929 . S
C5190 C5186 1.531 . S
C5190 H5202 0.960 . S
C5190 H5203 0.962 . S
C5190 H5204 0.960 . S
C5191 C5188 1.511 . S
C5191 H5205 0.961 . S
C5191 H5206 0.961 . S
C5191 H5207 0.961 . S
C5192 C5193 1.370 . S
C5192 C5194 1.363 . S
C5192 H5208 0.931 . S
C5193 C5192 1.370 . S
C5193 C5197 1.408 . S
C5194 C5192 1.363 . S
C5194 C5195 1.370 . S
C5194 C5198 1.524 . S
C5195 C5187 1.503 . S
C5195 C5194 1.370 . S
C5195 C5196 1.403 . S
C5196 C5195 1.403 . S
C5196 C5197 1.404 . S
C5196 C5199 1.539 . S
C5197 C5193 1.408 . S
C5197 C5196 1.404 . S
C5197 H5209 0.930 . S
C5198 C5194 1.524 . S
C5198 H5210 0.956 . S
C5198 H5211 0.961 . S
C5198 H5212 0.961 . S
C5199 C5196 1.539 . S
C5199 H5213 0.958 . S
C5199 H5214 0.961 . S
C5199 H5215 0.960 . S
H5200 C5184 0.931 . S
H5201 C5189 0.929 . S
H5202 C5190 0.960 . S
H5203 C5190 0.962 . S
H5204 C5190 0.960 . S
H5205 C5191 0.961 . S
H5206 C5191 0.961 . S
H5207 C5191 0.961 . S
H5208 C5192 0.931 . S
H5209 C5197 0.930 . S
H5210 C5198 0.956 . S
H5211 C5198 0.961 . S
H5212 C5198 0.961 . S
H5213 C5199 0.958 . S
H5214 C5199 0.961 . S
H5215 C5199 0.960 . S
C5216 C5217 1.391 . S
C5216 C5218 1.394 . S
C5216 H5232 0.931 . S
C5217 C5216 1.391 . S
C5217 C5221 1.376 . S
C5218 C5216 1.394 . S
C5218 C5219 1.369 . S
C5218 C5222 1.531 . S
C5219 C5218 1.369 . S
C5219 C5220 1.410 . S
C5219 C5227 1.503 . S
C5220 C5219 1.410 . S
C5220 C5221 1.392 . S
C5220 C5223 1.511 . S
C5221 C5217 1.376 . S
C5221 C5220 1.392 . S
C5221 H5233 0.929 . S
C5222 C5218 1.531 . S
C5222 H5234 0.960 . S
C5222 H5235 0.962 . S
C5222 H5236 0.960 . S
C5223 C5220 1.511 . S
C5223 H5237 0.961 . S
C5223 H5238 0.961 . S
C5223 H5239 0.961 . S
C5224 C5225 1.370 . S
C5224 C5226 1.363 . S
C5224 H5240 0.931 . S
C5225 C5224 1.370 . S
C5225 C5229 1.408 . S
C5226 C5224 1.363 . S
C5226 C5227 1.370 . S
C5226 C5230 1.524 . S
C5227 C5219 1.503 . S
C5227 C5226 1.370 . S
C5227 C5228 1.403 . S
C5228 C5227 1.403 . S
C5228 C5229 1.404 . S
C5228 C5231 1.539 . S
C5229 C5225 1.408 . S
C5229 C5228 1.404 . S
C5229 H5241 0.930 . S
C5230 C5226 1.524 . S
C5230 H5242 0.956 . S
C5230 H5243 0.961 . S
C5230 H5244 0.961 . S
C5231 C5228 1.539 . S
C5231 H5245 0.958 . S
C5231 H5246 0.961 . S
C5231 H5247 0.960 . S
H5232 C5216 0.931 . S
H5233 C5221 0.929 . S
H5234 C5222 0.960 . S
H5235 C5222 0.962 . S
H5236 C5222 0.960 . S
H5237 C5223 0.961 . S
H5238 C5223 0.961 . S
H5239 C5223 0.961 . S
H5240 C5224 0.931 . S
H5241 C5229 0.930 . S
H5242 C5230 0.956 . S
H5243 C5230 0.961 . S
H5244 C5230 0.961 . S
H5245 C5231 0.958 . S
H5246 C5231 0.961 . S
H5247 C5231 0.960 . S
C5248 C5249 1.391 . S
C5248 C5250 1.394 . S
C5248 H5264 0.931 . S
C5249 C5248 1.391 . S
C5249 C5253 1.376 . S
C5250 C5248 1.394 . S
C5250 C5251 1.369 . S
C5250 C5254 1.531 . S
C5251 C5250 1.369 . S
C5251 C5252 1.410 . S
C5251 C5259 1.503 . S
C5252 C5251 1.410 . S
C5252 C5253 1.392 . S
C5252 C5255 1.511 . S
C5253 C5249 1.376 . S
C5253 C5252 1.392 . S
C5253 H5265 0.929 . S
C5254 C5250 1.531 . S
C5254 H5266 0.960 . S
C5254 H5267 0.962 . S
C5254 H5268 0.960 . S
C5255 C5252 1.511 . S
C5255 H5269 0.961 . S
C5255 H5270 0.961 . S
C5255 H5271 0.961 . S
C5256 C5257 1.370 . S
C5256 C5258 1.363 1_565 S
C5256 H5272 0.931 . S
C5257 C5256 1.370 . S
C5257 C5261 1.408 . S
C5258 C5256 1.363 1_545 S
C5258 C5259 1.370 . S
C5258 C5262 1.524 . S
C5259 C5251 1.503 . S
C5259 C5258 1.370 . S
C5259 C5260 1.403 . S
C5260 C5259 1.403 . S
C5260 C5261 1.404 1_545 S
C5260 C5263 1.539 . S
C5261 C5257 1.408 . S
C5261 C5260 1.404 1_565 S
C5261 H5273 0.930 . S
C5262 C5258 1.524 . S
C5262 H5274 0.956 . S
C5262 H5275 0.961 . S
C5262 H5276 0.961 . S
C5263 C5260 1.539 . S
C5263 H5277 0.958 . S
C5263 H5278 0.961 1_545 S
C5263 H5279 0.960 . S
H5264 C5248 0.931 . S
H5265 C5253 0.929 . S
H5266 C5254 0.960 . S
H5267 C5254 0.962 . S
H5268 C5254 0.960 . S
H5269 C5255 0.961 . S
H5270 C5255 0.961 . S
H5271 C5255 0.961 . S
H5272 C5256 0.931 . S
H5273 C5261 0.930 . S
H5274 C5262 0.956 . S
H5275 C5262 0.961 . S
H5276 C5262 0.961 . S
H5277 C5263 0.958 . S
H5278 C5263 0.961 1_565 S
H5279 C5263 0.960 . S
C5280 C5281 1.391 . S
C5280 C5282 1.394 . S
C5280 H5296 0.931 . S
C5281 C5280 1.391 . S
C5281 C5285 1.376 . S
C5282 C5280 1.394 . S
C5282 C5283 1.369 . S
C5282 C5286 1.531 . S
C5283 C5282 1.369 . S
C5283 C5284 1.410 . S
C5283 C5291 1.503 . S
C5284 C5283 1.410 . S
C5284 C5285 1.392 . S
C5284 C5287 1.511 . S
C5285 C5281 1.376 . S
C5285 C5284 1.392 . S
C5285 H5297 0.929 . S
C5286 C5282 1.531 . S
C5286 H5298 0.960 . S
C5286 H5299 0.962 . S
C5286 H5300 0.960 . S
C5287 C5284 1.511 . S
C5287 H5301 0.961 . S
C5287 H5302 0.961 . S
C5287 H5303 0.961 . S
C5288 C5289 1.370 . S
C5288 C5290 1.363 . S
C5288 H5304 0.931 . S
C5289 C5288 1.370 . S
C5289 C5293 1.408 . S
C5290 C5288 1.363 . S
C5290 C5291 1.370 . S
C5290 C5294 1.524 . S
C5291 C5283 1.503 . S
C5291 C5290 1.370 . S
C5291 C5292 1.403 . S
C5292 C5291 1.403 . S
C5292 C5293 1.404 . S
C5292 C5295 1.539 . S
C5293 C5289 1.408 . S
C5293 C5292 1.404 . S
C5293 H5305 0.930 . S
C5294 C5290 1.524 . S
C5294 H5306 0.956 . S
C5294 H5307 0.961 . S
C5294 H5308 0.961 . S
C5295 C5292 1.539 . S
C5295 H5309 0.958 . S
C5295 H5310 0.961 . S
C5295 H5311 0.960 . S
H5296 C5280 0.931 . S
H5297 C5285 0.929 . S
H5298 C5286 0.960 . S
H5299 C5286 0.962 . S
H5300 C5286 0.960 . S
H5301 C5287 0.961 . S
H5302 C5287 0.961 . S
H5303 C5287 0.961 . S
H5304 C5288 0.931 . S
H5305 C5293 0.930 . S
H5306 C5294 0.956 . S
H5307 C5294 0.961 . S
H5308 C5294 0.961 . S
H5309 C5295 0.958 . S
H5310 C5295 0.961 . S
H5311 C5295 0.960 . S
C5312 C5313 1.391 . S
C5312 C5314 1.394 . S
C5312 H5328 0.931 . S
C5313 C5312 1.391 . S
C5313 C5317 1.376 . S
C5314 C5312 1.394 . S
C5314 C5315 1.369 . S
C5314 C5318 1.531 . S
C5315 C5314 1.369 . S
C5315 C5316 1.410 . S
C5315 C5323 1.503 . S
C5316 C5315 1.410 . S
C5316 C5317 1.392 . S
C5316 C5319 1.511 . S
C5317 C5313 1.376 . S
C5317 C5316 1.392 . S
C5317 H5329 0.929 . S
C5318 C5314 1.531 . S
C5318 H5330 0.960 . S
C5318 H5331 0.962 . S
C5318 H5332 0.960 . S
C5319 C5316 1.511 . S
C5319 H5333 0.961 . S
C5319 H5334 0.961 . S
C5319 H5335 0.961 . S
C5320 C5321 1.370 . S
C5320 C5322 1.363 . S
C5320 H5336 0.931 . S
C5321 C5320 1.370 . S
C5321 C5325 1.408 . S
C5322 C5320 1.363 . S
C5322 C5323 1.370 . S
C5322 C5326 1.524 . S
C5323 C5315 1.503 . S
C5323 C5322 1.370 . S
C5323 C5324 1.403 . S
C5324 C5323 1.403 . S
C5324 C5325 1.404 . S
C5324 C5327 1.539 . S
C5325 C5321 1.408 . S
C5325 C5324 1.404 . S
C5325 H5337 0.930 . S
C5326 C5322 1.524 . S
C5326 H5338 0.956 . S
C5326 H5339 0.961 . S
C5326 H5340 0.961 . S
C5327 C5324 1.539 . S
C5327 H5341 0.958 . S
C5327 H5342 0.961 . S
C5327 H5343 0.960 . S
H5328 C5312 0.931 . S
H5329 C5317 0.929 . S
H5330 C5318 0.960 . S
H5331 C5318 0.962 . S
H5332 C5318 0.960 . S
H5333 C5319 0.961 . S
H5334 C5319 0.961 . S
H5335 C5319 0.961 . S
H5336 C5320 0.931 . S
H5337 C5325 0.930 . S
H5338 C5326 0.956 . S
H5339 C5326 0.961 . S
H5340 C5326 0.961 . S
H5341 C5327 0.958 . S
H5342 C5327 0.961 . S
H5343 C5327 0.960 . S
C5344 C5345 1.391 . S
C5344 C5346 1.394 . S
C5344 H5360 0.931 . S
C5345 C5344 1.391 . S
C5345 C5349 1.376 . S
C5346 C5344 1.394 . S
C5346 C5347 1.369 . S
C5346 C5350 1.531 . S
C5347 C5346 1.369 . S
C5347 C5348 1.410 . S
C5347 C5355 1.503 . S
C5348 C5347 1.410 . S
C5348 C5349 1.392 . S
C5348 C5351 1.511 . S
C5349 C5345 1.376 . S
C5349 C5348 1.392 . S
C5349 H5361 0.929 . S
C5350 C5346 1.531 . S
C5350 H5362 0.960 . S
C5350 H5363 0.962 . S
C5350 H5364 0.960 . S
C5351 C5348 1.511 . S
C5351 H5365 0.961 . S
C5351 H5366 0.961 . S
C5351 H5367 0.961 . S
C5352 C5353 1.370 . S
C5352 C5354 1.363 . S
C5352 H5368 0.931 . S
C5353 C5352 1.370 . S
C5353 C5357 1.408 . S
C5354 C5352 1.363 . S
C5354 C5355 1.370 . S
C5354 C5358 1.524 . S
C5355 C5347 1.503 . S
C5355 C5354 1.370 . S
C5355 C5356 1.403 . S
C5356 C5355 1.403 . S
C5356 C5357 1.404 . S
C5356 C5359 1.539 . S
C5357 C5353 1.408 . S
C5357 C5356 1.404 . S
C5357 H5369 0.930 . S
C5358 C5354 1.524 . S
C5358 H5370 0.956 . S
C5358 H5371 0.961 . S
C5358 H5372 0.961 . S
C5359 C5356 1.539 . S
C5359 H5373 0.958 . S
C5359 H5374 0.961 . S
C5359 H5375 0.960 . S
H5360 C5344 0.931 . S
H5361 C5349 0.929 . S
H5362 C5350 0.960 . S
H5363 C5350 0.962 . S
H5364 C5350 0.960 . S
H5365 C5351 0.961 . S
H5366 C5351 0.961 . S
H5367 C5351 0.961 . S
H5368 C5352 0.931 . S
H5369 C5357 0.930 . S
H5370 C5358 0.956 . S
H5371 C5358 0.961 . S
H5372 C5358 0.961 . S
H5373 C5359 0.958 . S
H5374 C5359 0.961 . S
H5375 C5359 0.960 . S
C5376 C5377 1.391 . S
C5376 C5378 1.394 . S
C5376 H5392 0.931 . S
C5377 C5376 1.391 . S
C5377 C5381 1.376 . S
C5378 C5376 1.394 . S
C5378 C5379 1.369 . S
C5378 C5382 1.531 . S
C5379 C5378 1.369 . S
C5379 C5380 1.410 . S
C5379 C5387 1.503 . S
C5380 C5379 1.410 . S
C5380 C5381 1.392 . S
C5380 C5383 1.511 . S
C5381 C5377 1.376 . S
C5381 C5380 1.392 . S
C5381 H5393 0.929 . S
C5382 C5378 1.531 . S
C5382 H5394 0.960 . S
C5382 H5395 0.962 . S
C5382 H5396 0.960 . S
C5383 C5380 1.511 . S
C5383 H5397 0.961 . S
C5383 H5398 0.961 . S
C5383 H5399 0.961 . S
C5384 C5385 1.370 . S
C5384 C5386 1.363 . S
C5384 H5400 0.931 . S
C5385 C5384 1.370 . S
C5385 C5389 1.408 . S
C5386 C5384 1.363 . S
C5386 C5387 1.370 . S
C5386 C5390 1.524 . S
C5387 C5379 1.503 . S
C5387 C5386 1.370 . S
C5387 C5388 1.403 . S
C5388 C5387 1.403 . S
C5388 C5389 1.404 . S
C5388 C5391 1.539 . S
C5389 C5385 1.408 . S
C5389 C5388 1.404 . S
C5389 H5401 0.930 . S
C5390 C5386 1.524 . S
C5390 H5402 0.956 . S
C5390 H5403 0.961 . S
C5390 H5404 0.961 . S
C5391 C5388 1.539 . S
C5391 H5405 0.958 . S
C5391 H5406 0.961 . S
C5391 H5407 0.960 . S
H5392 C5376 0.931 . S
H5393 C5381 0.929 . S
H5394 C5382 0.960 . S
H5395 C5382 0.962 . S
H5396 C5382 0.960 . S
H5397 C5383 0.961 . S
H5398 C5383 0.961 . S
H5399 C5383 0.961 . S
H5400 C5384 0.931 . S
H5401 C5389 0.930 . S
H5402 C5390 0.956 . S
H5403 C5390 0.961 . S
H5404 C5390 0.961 . S
H5405 C5391 0.958 . S
H5406 C5391 0.961 . S
H5407 C5391 0.960 . S
C5408 C5409 1.391 . S
C5408 C5410 1.394 . S
C5408 H5424 0.931 . S
C5409 C5408 1.391 . S
C5409 C5413 1.376 . S
C5410 C5408 1.394 . S
C5410 C5411 1.369 . S
C5410 C5414 1.531 . S
C5411 C5410 1.369 . S
C5411 C5412 1.410 . S
C5411 C5419 1.503 . S
C5412 C5411 1.410 . S
C5412 C5413 1.392 . S
C5412 C5415 1.511 . S
C5413 C5409 1.376 . S
C5413 C5412 1.392 . S
C5413 H5425 0.929 . S
C5414 C5410 1.531 . S
C5414 H5426 0.960 . S
C5414 H5427 0.962 . S
C5414 H5428 0.960 . S
C5415 C5412 1.511 . S
C5415 H5429 0.961 . S
C5415 H5430 0.961 . S
C5415 H5431 0.961 . S
C5416 C5417 1.370 . S
C5416 C5418 1.363 . S
C5416 H5432 0.931 . S
C5417 C5416 1.370 . S
C5417 C5421 1.408 . S
C5418 C5416 1.363 . S
C5418 C5419 1.370 . S
C5418 C5422 1.524 . S
C5419 C5411 1.503 . S
C5419 C5418 1.370 . S
C5419 C5420 1.403 . S
C5420 C5419 1.403 . S
C5420 C5421 1.404 . S
C5420 C5423 1.539 . S
C5421 C5417 1.408 . S
C5421 C5420 1.404 . S
C5421 H5433 0.930 . S
C5422 C5418 1.524 . S
C5422 H5434 0.956 . S
C5422 H5435 0.961 . S
C5422 H5436 0.961 . S
C5423 C5420 1.539 . S
C5423 H5437 0.958 . S
C5423 H5438 0.961 . S
C5423 H5439 0.960 . S
H5424 C5408 0.931 . S
H5425 C5413 0.929 . S
H5426 C5414 0.960 . S
H5427 C5414 0.962 . S
H5428 C5414 0.960 . S
H5429 C5415 0.961 . S
H5430 C5415 0.961 . S
H5431 C5415 0.961 . S
H5432 C5416 0.931 . S
H5433 C5421 0.930 . S
H5434 C5422 0.956 . S
H5435 C5422 0.961 . S
H5436 C5422 0.961 . S
H5437 C5423 0.958 . S
H5438 C5423 0.961 . S
H5439 C5423 0.960 . S
C5440 C5441 1.391 . S
C5440 C5442 1.394 . S
C5440 H5456 0.931 . S
C5441 C5440 1.391 . S
C5441 C5445 1.376 . S
C5442 C5440 1.394 . S
C5442 C5443 1.369 . S
C5442 C5446 1.531 . S
C5443 C5442 1.369 . S
C5443 C5444 1.410 . S
C5443 C5451 1.503 . S
C5444 C5443 1.410 . S
C5444 C5445 1.392 . S
C5444 C5447 1.511 . S
C5445 C5441 1.376 . S
C5445 C5444 1.392 . S
C5445 H5457 0.929 . S
C5446 C5442 1.531 . S
C5446 H5458 0.960 . S
C5446 H5459 0.962 . S
C5446 H5460 0.960 . S
C5447 C5444 1.511 . S
C5447 H5461 0.961 . S
C5447 H5462 0.961 . S
C5447 H5463 0.961 . S
C5448 C5449 1.370 . S
C5448 C5450 1.363 . S
C5448 H5464 0.931 . S
C5449 C5448 1.370 . S
C5449 C5453 1.408 . S
C5450 C5448 1.363 . S
C5450 C5451 1.370 . S
C5450 C5454 1.524 . S
C5451 C5443 1.503 . S
C5451 C5450 1.370 . S
C5451 C5452 1.403 . S
C5452 C5451 1.403 . S
C5452 C5453 1.404 . S
C5452 C5455 1.539 . S
C5453 C5449 1.408 . S
C5453 C5452 1.404 . S
C5453 H5465 0.930 . S
C5454 C5450 1.524 . S
C5454 H5466 0.956 . S
C5454 H5467 0.961 . S
C5454 H5468 0.961 . S
C5455 C5452 1.539 . S
C5455 H5469 0.958 . S
C5455 H5470 0.961 . S
C5455 H5471 0.960 . S
H5456 C5440 0.931 . S
H5457 C5445 0.929 . S
H5458 C5446 0.960 . S
H5459 C5446 0.962 . S
H5460 C5446 0.960 . S
H5461 C5447 0.961 . S
H5462 C5447 0.961 . S
H5463 C5447 0.961 . S
H5464 C5448 0.931 . S
H5465 C5453 0.930 . S
H5466 C5454 0.956 . S
H5467 C5454 0.961 . S
H5468 C5454 0.961 . S
H5469 C5455 0.958 . S
H5470 C5455 0.961 . S
H5471 C5455 0.960 . S
C5472 C5473 1.391 . S
C5472 C5474 1.394 . S
C5472 H5488 0.931 . S
C5473 C5472 1.391 . S
C5473 C5477 1.376 . S
C5474 C5472 1.394 . S
C5474 C5475 1.369 . S
C5474 C5478 1.531 . S
C5475 C5474 1.369 . S
C5475 C5476 1.410 . S
C5475 C5483 1.503 . S
C5476 C5475 1.410 . S
C5476 C5477 1.392 . S
C5476 C5479 1.511 . S
C5477 C5473 1.376 . S
C5477 C5476 1.392 . S
C5477 H5489 0.929 . S
C5478 C5474 1.531 . S
C5478 H5490 0.960 . S
C5478 H5491 0.962 . S
C5478 H5492 0.960 . S
C5479 C5476 1.511 . S
C5479 H5493 0.961 . S
C5479 H5494 0.961 . S
C5479 H5495 0.961 . S
C5480 C5481 1.383 . S
C5480 C5482 1.351 1_655 S
C5480 H5496 0.929 1_655 S
C5481 C5480 1.383 . S
C5481 C5485 1.408 . S
C5482 C5480 1.351 1_455 S
C5482 C5483 1.370 . S
C5482 C5486 1.524 . S
C5483 C5475 1.503 . S
C5483 C5482 1.370 . S
C5483 C5484 1.403 1_455 S
C5484 C5483 1.403 1_655 S
C5484 C5485 1.404 . S
C5484 C5487 1.539 . S
C5485 C5481 1.408 . S
C5485 C5484 1.404 . S
C5485 H5497 0.930 . S
C5486 C5482 1.524 . S
C5486 H5498 0.956 . S
C5486 H5499 0.961 . S
C5486 H5500 0.961 . S
C5487 C5484 1.539 . S
C5487 H5501 0.958 . S
C5487 H5502 0.961 . S
C5487 H5503 0.960 1_655 S
H5488 C5472 0.931 . S
H5489 C5477 0.929 . S
H5490 C5478 0.960 . S
H5491 C5478 0.962 . S
H5492 C5478 0.960 . S
H5493 C5479 0.961 . S
H5494 C5479 0.961 . S
H5495 C5479 0.961 . S
H5496 C5480 0.929 1_455 S
H5497 C5485 0.930 . S
H5498 C5486 0.956 . S
H5499 C5486 0.961 . S
H5500 C5486 0.961 . S
H5501 C5487 0.958 . S
H5502 C5487 0.961 . S
H5503 C5487 0.960 1_455 S
C5504 C5505 1.391 . S
C5504 C5506 1.394 . S
C5504 H5520 0.931 . S
C5505 C5504 1.391 . S
C5505 C5509 1.376 . S
C5506 C5504 1.394 . S
C5506 C5507 1.369 . S
C5506 C5510 1.531 . S
C5507 C5506 1.369 . S
C5507 C5508 1.410 . S
C5507 C5515 1.503 . S
C5508 C5507 1.410 . S
C5508 C5509 1.392 . S
C5508 C5511 1.511 . S
C5509 C5505 1.376 . S
C5509 C5508 1.392 . S
C5509 H5521 0.929 . S
C5510 C5506 1.531 . S
C5510 H5522 0.960 . S
C5510 H5523 0.962 . S
C5510 H5524 0.960 . S
C5511 C5508 1.511 . S
C5511 H5525 0.961 . S
C5511 H5526 0.961 . S
C5511 H5527 0.961 . S
C5512 C5513 1.370 . S
C5512 C5514 1.363 . S
C5512 H5528 0.931 . S
C5513 C5512 1.370 . S
C5513 C5517 1.408 . S
C5514 C5512 1.363 . S
C5514 C5515 1.370 . S
C5514 C5518 1.524 . S
C5515 C5507 1.503 . S
C5515 C5514 1.370 . S
C5515 C5516 1.403 . S
C5516 C5515 1.403 . S
C5516 C5517 1.404 . S
C5516 C5519 1.539 . S
C5517 C5513 1.408 . S
C5517 C5516 1.404 . S
C5517 H5529 0.930 . S
C5518 C5514 1.524 . S
C5518 H5530 0.956 . S
C5518 H5531 0.961 . S
C5518 H5532 0.961 . S
C5519 C5516 1.539 . S
C5519 H5533 0.958 . S
C5519 H5534 0.961 . S
C5519 H5535 0.960 . S
H5520 C5504 0.931 . S
H5521 C5509 0.929 . S
H5522 C5510 0.960 . S
H5523 C5510 0.962 . S
H5524 C5510 0.960 . S
H5525 C5511 0.961 . S
H5526 C5511 0.961 . S
H5527 C5511 0.961 . S
H5528 C5512 0.931 . S
H5529 C5517 0.930 . S
H5530 C5518 0.956 . S
H5531 C5518 0.961 . S
H5532 C5518 0.961 . S
H5533 C5519 0.958 . S
H5534 C5519 0.961 . S
H5535 C5519 0.960 . S
C5536 C5537 1.391 . S
C5536 C5538 1.394 . S
C5536 H5552 0.931 . S
C5537 C5536 1.391 . S
C5537 C5541 1.376 . S
C5538 C5536 1.394 . S
C5538 C5539 1.369 . S
C5538 C5542 1.531 . S
C5539 C5538 1.369 . S
C5539 C5540 1.410 . S
C5539 C5547 1.503 . S
C5540 C5539 1.410 . S
C5540 C5541 1.392 . S
C5540 C5543 1.511 . S
C5541 C5537 1.376 . S
C5541 C5540 1.392 . S
C5541 H5553 0.929 . S
C5542 C5538 1.531 . S
C5542 H5554 0.960 . S
C5542 H5555 0.962 . S
C5542 H5556 0.960 . S
C5543 C5540 1.511 . S
C5543 H5557 0.961 . S
C5543 H5558 0.961 . S
C5543 H5559 0.961 . S
C5544 C5545 1.373 . S
C5544 C5546 1.361 1_655 S
C5544 H5560 0.929 1_655 S
C5545 C5544 1.373 . S
C5545 C5549 1.408 . S
C5546 C5544 1.361 1_455 S
C5546 C5547 1.370 . S
C5546 C5550 1.524 . S
C5547 C5539 1.503 . S
C5547 C5546 1.370 . S
C5547 C5548 1.403 1_455 S
C5548 C5547 1.403 1_655 S
C5548 C5549 1.404 . S
C5548 C5551 1.539 . S
C5549 C5545 1.408 . S
C5549 C5548 1.404 . S
C5549 H5561 0.930 . S
C5550 C5546 1.524 . S
C5550 H5562 0.956 . S
C5550 H5563 0.961 . S
C5550 H5564 0.961 . S
C5551 C5548 1.539 . S
C5551 H5565 0.958 . S
C5551 H5566 0.961 . S
C5551 H5567 0.960 1_655 S
H5552 C5536 0.931 . S
H5553 C5541 0.929 . S
H5554 C5542 0.960 . S
H5555 C5542 0.962 . S
H5556 C5542 0.960 . S
H5557 C5543 0.961 . S
H5558 C5543 0.961 . S
H5559 C5543 0.961 . S
H5560 C5544 0.929 1_455 S
H5561 C5549 0.930 . S
H5562 C5550 0.956 . S
H5563 C5550 0.961 . S
H5564 C5550 0.961 . S
H5565 C5551 0.958 . S
H5566 C5551 0.961 . S
H5567 C5551 0.960 1_455 S
C5568 C5569 1.391 . S
C5568 C5570 1.394 . S
C5568 H5584 0.931 . S
C5569 C5568 1.391 . S
C5569 C5573 1.376 . S
C5570 C5568 1.394 . S
C5570 C5571 1.369 . S
C5570 C5574 1.531 . S
C5571 C5570 1.369 . S
C5571 C5572 1.410 . S
C5571 C5579 1.503 . S
C5572 C5571 1.410 . S
C5572 C5573 1.392 . S
C5572 C5575 1.511 . S
C5573 C5569 1.376 . S
C5573 C5572 1.392 . S
C5573 H5585 0.929 . S
C5574 C5570 1.531 . S
C5574 H5586 0.960 . S
C5574 H5587 0.962 . S
C5574 H5588 0.960 . S
C5575 C5572 1.511 . S
C5575 H5589 0.961 . S
C5575 H5590 0.961 . S
C5575 H5591 0.961 . S
C5576 C5577 1.370 . S
C5576 C5578 1.363 . S
C5576 H5592 0.931 . S
C5577 C5576 1.370 . S
C5577 C5581 1.408 . S
C5578 C5576 1.363 . S
C5578 C5579 1.370 . S
C5578 C5582 1.524 . S
C5579 C5571 1.503 . S
C5579 C5578 1.370 . S
C5579 C5580 1.403 . S
C5580 C5579 1.403 . S
C5580 C5581 1.404 . S
C5580 C5583 1.539 . S
C5581 C5577 1.408 . S
C5581 C5580 1.404 . S
C5581 H5593 0.930 . S
C5582 C5578 1.524 . S
C5582 H5594 0.956 . S
C5582 H5595 0.961 . S
C5582 H5596 0.961 . S
C5583 C5580 1.539 . S
C5583 H5597 0.958 . S
C5583 H5598 0.961 . S
C5583 H5599 0.960 . S
H5584 C5568 0.931 . S
H5585 C5573 0.929 . S
H5586 C5574 0.960 . S
H5587 C5574 0.962 . S
H5588 C5574 0.960 . S
H5589 C5575 0.961 . S
H5590 C5575 0.961 . S
H5591 C5575 0.961 . S
H5592 C5576 0.931 . S
H5593 C5581 0.930 . S
H5594 C5582 0.956 . S
H5595 C5582 0.961 . S
H5596 C5582 0.961 . S
H5597 C5583 0.958 . S
H5598 C5583 0.961 . S
H5599 C5583 0.960 . S
C5600 C5601 1.391 . S
C5600 C5602 1.394 . S
C5600 H5616 0.931 . S
C5601 C5600 1.391 . S
C5601 C5605 1.376 . S
C5602 C5600 1.394 . S
C5602 C5603 1.369 . S
C5602 C5606 1.531 . S
C5603 C5602 1.369 . S
C5603 C5604 1.410 . S
C5603 C5611 1.503 . S
C5604 C5603 1.410 . S
C5604 C5605 1.392 . S
C5604 C5607 1.511 . S
C5605 C5601 1.376 . S
C5605 C5604 1.392 . S
C5605 H5617 0.929 . S
C5606 C5602 1.531 . S
C5606 H5618 0.960 . S
C5606 H5619 0.962 . S
C5606 H5620 0.960 . S
C5607 C5604 1.511 . S
C5607 H5621 0.961 . S
C5607 H5622 0.961 . S
C5607 H5623 0.961 . S
C5608 C5609 1.370 . S
C5608 C5610 1.363 . S
C5608 H5624 0.931 . S
C5609 C5608 1.370 . S
C5609 C5613 1.408 . S
C5610 C5608 1.363 . S
C5610 C5611 1.370 . S
C5610 C5614 1.524 . S
C5611 C5603 1.503 . S
C5611 C5610 1.370 . S
C5611 C5612 1.403 . S
C5612 C5611 1.403 . S
C5612 C5613 1.404 . S
C5612 C5615 1.539 . S
C5613 C5609 1.408 . S
C5613 C5612 1.404 . S
C5613 H5625 0.930 . S
C5614 C5610 1.524 . S
C5614 H5626 0.956 . S
C5614 H5627 0.961 . S
C5614 H5628 0.961 . S
C5615 C5612 1.539 . S
C5615 H5629 0.958 . S
C5615 H5630 0.961 . S
C5615 H5631 0.960 . S
H5616 C5600 0.931 . S
H5617 C5605 0.929 . S
H5618 C5606 0.960 . S
H5619 C5606 0.962 . S
H5620 C5606 0.960 . S
H5621 C5607 0.961 . S
H5622 C5607 0.961 . S
H5623 C5607 0.961 . S
H5624 C5608 0.931 . S
H5625 C5613 0.930 . S
H5626 C5614 0.956 . S
H5627 C5614 0.961 . S
H5628 C5614 0.961 . S
H5629 C5615 0.958 . S
H5630 C5615 0.961 . S
H5631 C5615 0.960 . S
C5632 C5633 1.391 . S
C5632 C5634 1.394 . S
C5632 H5648 0.931 . S
C5633 C5632 1.391 . S
C5633 C5637 1.376 . S
C5634 C5632 1.394 . S
C5634 C5635 1.369 . S
C5634 C5638 1.531 . S
C5635 C5634 1.369 . S
C5635 C5636 1.410 . S
C5635 C5643 1.503 . S
C5636 C5635 1.410 . S
C5636 C5637 1.392 . S
C5636 C5639 1.511 . S
C5637 C5633 1.376 . S
C5637 C5636 1.392 . S
C5637 H5649 0.929 . S
C5638 C5634 1.531 . S
C5638 H5650 0.960 . S
C5638 H5651 0.962 . S
C5638 H5652 0.960 . S
C5639 C5636 1.511 . S
C5639 H5653 0.961 . S
C5639 H5654 0.961 . S
C5639 H5655 0.961 . S
C5640 C5641 1.370 . S
C5640 C5642 1.363 . S
C5640 H5656 0.931 . S
C5641 C5640 1.370 . S
C5641 C5645 1.408 . S
C5642 C5640 1.363 . S
C5642 C5643 1.370 . S
C5642 C5646 1.524 . S
C5643 C5635 1.503 . S
C5643 C5642 1.370 . S
C5643 C5644 1.403 . S
C5644 C5643 1.403 . S
C5644 C5645 1.404 . S
C5644 C5647 1.539 . S
C5645 C5641 1.408 . S
C5645 C5644 1.404 . S
C5645 H5657 0.930 . S
C5646 C5642 1.524 . S
C5646 H5658 0.956 . S
C5646 H5659 0.961 . S
C5646 H5660 0.961 . S
C5647 C5644 1.539 . S
C5647 H5661 0.958 . S
C5647 H5662 0.961 . S
C5647 H5663 0.960 . S
H5648 C5632 0.931 . S
H5649 C5637 0.929 . S
H5650 C5638 0.960 . S
H5651 C5638 0.962 . S
H5652 C5638 0.960 . S
H5653 C5639 0.961 . S
H5654 C5639 0.961 . S
H5655 C5639 0.961 . S
H5656 C5640 0.931 . S
H5657 C5645 0.930 . S
H5658 C5646 0.956 . S
H5659 C5646 0.961 . S
H5660 C5646 0.961 . S
H5661 C5647 0.958 . S
H5662 C5647 0.961 . S
H5663 C5647 0.960 . S
C5664 C5665 1.391 . S
C5664 C5666 1.394 1_556 S
C5664 H5680 0.931 . S
C5665 C5664 1.391 . S
C5665 C5669 1.376 . S
C5666 C5664 1.394 1_554 S
C5666 C5667 1.369 . S
C5666 C5670 1.531 . S
C5667 C5666 1.369 . S
C5667 C5668 1.410 . S
C5667 C5675 1.503 . S
C5668 C5667 1.410 . S
C5668 C5669 1.392 1_554 S
C5668 C5671 1.511 . S
C5669 C5665 1.376 . S
C5669 C5668 1.392 1_556 S
C5669 H5681 0.929 . S
C5670 C5666 1.531 . S
C5670 H5682 0.960 . S
C5670 H5683 0.962 . S
C5670 H5684 0.960 . S
C5671 C5668 1.511 . S
C5671 H5685 0.961 . S
C5671 H5686 0.961 . S
C5671 H5687 0.961 . S
C5672 C5673 1.370 . S
C5672 C5674 1.363 . S
C5672 H5688 0.931 . S
C5673 C5672 1.370 . S
C5673 C5677 1.408 . S
C5674 C5672 1.363 . S
C5674 C5675 1.370 . S
C5674 C5678 1.524 . S
C5675 C5667 1.503 . S
C5675 C5674 1.370 . S
C5675 C5676 1.403 . S
C5676 C5675 1.403 . S
C5676 C5677 1.404 . S
C5676 C5679 1.539 . S
C5677 C5673 1.408 . S
C5677 C5676 1.404 . S
C5677 H5689 0.930 . S
C5678 C5674 1.524 . S
C5678 H5690 0.956 . S
C5678 H5691 0.961 . S
C5678 H5692 0.961 . S
C5679 C5676 1.539 . S
C5679 H5693 0.958 . S
C5679 H5694 0.961 . S
C5679 H5695 0.960 . S
H5680 C5664 0.931 . S
H5681 C5669 0.929 . S
H5682 C5670 0.960 . S
H5683 C5670 0.962 . S
H5684 C5670 0.960 . S
H5685 C5671 0.961 . S
H5686 C5671 0.961 . S
H5687 C5671 0.961 . S
H5688 C5672 0.931 . S
H5689 C5677 0.930 . S
H5690 C5678 0.956 . S
H5691 C5678 0.961 . S
H5692 C5678 0.961 . S
H5693 C5679 0.958 . S
H5694 C5679 0.961 . S
H5695 C5679 0.960 . S
C5696 C5697 1.391 . S
C5696 C5698 1.394 . S
C5696 H5712 0.931 . S
C5697 C5696 1.391 . S
C5697 C5701 1.376 . S
C5698 C5696 1.394 . S
C5698 C5699 1.369 . S
C5698 C5702 1.531 . S
C5699 C5698 1.369 . S
C5699 C5700 1.410 . S
C5699 C5707 1.503 . S
C5700 C5699 1.410 . S
C5700 C5701 1.392 . S
C5700 C5703 1.511 . S
C5701 C5697 1.376 . S
C5701 C5700 1.392 . S
C5701 H5713 0.929 . S
C5702 C5698 1.531 . S
C5702 H5714 0.960 . S
C5702 H5715 0.962 . S
C5702 H5716 0.960 . S
C5703 C5700 1.511 . S
C5703 H5717 0.961 . S
C5703 H5718 0.961 . S
C5703 H5719 0.961 . S
C5704 C5705 1.370 . S
C5704 C5706 1.363 . S
C5704 H5720 0.931 . S
C5705 C5704 1.370 . S
C5705 C5709 1.408 . S
C5706 C5704 1.363 . S
C5706 C5707 1.370 . S
C5706 C5710 1.524 . S
C5707 C5699 1.503 . S
C5707 C5706 1.370 . S
C5707 C5708 1.403 . S
C5708 C5707 1.403 . S
C5708 C5709 1.404 . S
C5708 C5711 1.539 . S
C5709 C5705 1.408 . S
C5709 C5708 1.404 . S
C5709 H5721 0.930 . S
C5710 C5706 1.524 . S
C5710 H5722 0.956 . S
C5710 H5723 0.961 . S
C5710 H5724 0.961 . S
C5711 C5708 1.539 . S
C5711 H5725 0.958 . S
C5711 H5726 0.961 . S
C5711 H5727 0.960 . S
H5712 C5696 0.931 . S
H5713 C5701 0.929 . S
H5714 C5702 0.960 . S
H5715 C5702 0.962 . S
H5716 C5702 0.960 . S
H5717 C5703 0.961 . S
H5718 C5703 0.961 . S
H5719 C5703 0.961 . S
H5720 C5704 0.931 . S
H5721 C5709 0.930 . S
H5722 C5710 0.956 . S
H5723 C5710 0.961 . S
H5724 C5710 0.961 . S
H5725 C5711 0.958 . S
H5726 C5711 0.961 . S
H5727 C5711 0.960 . S
C5728 C5729 1.391 . S
C5728 C5730 1.394 . S
C5728 H5744 0.931 . S
C5729 C5728 1.391 . S
C5729 C5733 1.376 . S
C5730 C5728 1.394 . S
C5730 C5731 1.369 . S
C5730 C5734 1.531 . S
C5731 C5730 1.369 . S
C5731 C5732 1.410 . S
C5731 C5739 1.503 . S
C5732 C5731 1.410 . S
C5732 C5733 1.392 . S
C5732 C5735 1.511 . S
C5733 C5729 1.376 . S
C5733 C5732 1.392 . S
C5733 H5745 0.929 . S
C5734 C5730 1.531 . S
C5734 H5746 0.960 . S
C5734 H5747 0.962 . S
C5734 H5748 0.960 . S
C5735 C5732 1.511 . S
C5735 H5749 0.961 . S
C5735 H5750 0.961 . S
C5735 H5751 0.961 . S
C5736 C5737 1.370 . S
C5736 C5738 1.363 . S
C5736 H5752 0.931 . S
C5737 C5736 1.370 . S
C5737 C5741 1.408 . S
C5738 C5736 1.363 . S
C5738 C5739 1.370 . S
C5738 C5742 1.524 . S
C5739 C5731 1.503 . S
C5739 C5738 1.370 . S
C5739 C5740 1.403 . S
C5740 C5739 1.403 . S
C5740 C5741 1.404 . S
C5740 C5743 1.539 . S
C5741 C5737 1.408 . S
C5741 C5740 1.404 . S
C5741 H5753 0.930 . S
C5742 C5738 1.524 . S
C5742 H5754 0.956 . S
C5742 H5755 0.961 . S
C5742 H5756 0.961 . S
C5743 C5740 1.539 . S
C5743 H5757 0.958 . S
C5743 H5758 0.961 . S
C5743 H5759 0.960 . S
H5744 C5728 0.931 . S
H5745 C5733 0.929 . S
H5746 C5734 0.960 . S
H5747 C5734 0.962 . S
H5748 C5734 0.960 . S
H5749 C5735 0.961 . S
H5750 C5735 0.961 . S
H5751 C5735 0.961 . S
H5752 C5736 0.931 . S
H5753 C5741 0.930 . S
H5754 C5742 0.956 . S
H5755 C5742 0.961 . S
H5756 C5742 0.961 . S
H5757 C5743 0.958 . S
H5758 C5743 0.961 . S
H5759 C5743 0.960 . S
C5760 C5761 1.391 . S
C5760 C5762 1.394 . S
C5760 H5776 0.931 . S
C5761 C5760 1.391 . S
C5761 C5765 1.376 . S
C5762 C5760 1.394 . S
C5762 C5763 1.369 . S
C5762 C5766 1.531 . S
C5763 C5762 1.369 . S
C5763 C5764 1.410 . S
C5763 C5771 1.503 . S
C5764 C5763 1.410 . S
C5764 C5765 1.392 . S
C5764 C5767 1.511 . S
C5765 C5761 1.376 . S
C5765 C5764 1.392 . S
C5765 H5777 0.929 . S
C5766 C5762 1.531 . S
C5766 H5778 0.960 . S
C5766 H5779 0.962 . S
C5766 H5780 0.960 . S
C5767 C5764 1.511 . S
C5767 H5781 0.961 . S
C5767 H5782 0.961 . S
C5767 H5783 0.961 . S
C5768 C5769 1.370 . S
C5768 C5770 1.363 . S
C5768 H5784 0.931 . S
C5769 C5768 1.370 . S
C5769 C5773 1.408 . S
C5770 C5768 1.363 . S
C5770 C5771 1.370 . S
C5770 C5774 1.524 . S
C5771 C5763 1.503 . S
C5771 C5770 1.370 . S
C5771 C5772 1.403 . S
C5772 C5771 1.403 . S
C5772 C5773 1.404 . S
C5772 C5775 1.539 . S
C5773 C5769 1.408 . S
C5773 C5772 1.404 . S
C5773 H5785 0.930 . S
C5774 C5770 1.524 . S
C5774 H5786 0.956 . S
C5774 H5787 0.961 . S
C5774 H5788 0.961 . S
C5775 C5772 1.539 . S
C5775 H5789 0.958 . S
C5775 H5790 0.961 . S
C5775 H5791 0.960 . S
H5776 C5760 0.931 . S
H5777 C5765 0.929 . S
H5778 C5766 0.960 . S
H5779 C5766 0.962 . S
H5780 C5766 0.960 . S
H5781 C5767 0.961 . S
H5782 C5767 0.961 . S
H5783 C5767 0.961 . S
H5784 C5768 0.931 . S
H5785 C5773 0.930 . S
H5786 C5774 0.956 . S
H5787 C5774 0.961 . S
H5788 C5774 0.961 . S
H5789 C5775 0.958 . S
H5790 C5775 0.961 . S
H5791 C5775 0.960 . S
C5792 C5793 1.391 . S
C5792 C5794 1.394 1_554 S
C5792 H5808 0.931 . S
C5793 C5792 1.391 . S
C5793 C5797 1.376 . S
C5794 C5792 1.394 1_556 S
C5794 C5795 1.369 . S
C5794 C5798 1.531 . S
C5795 C5794 1.369 . S
C5795 C5796 1.410 . S
C5795 C5803 1.503 . S
C5796 C5795 1.410 . S
C5796 C5797 1.392 1_556 S
C5796 C5799 1.511 . S
C5797 C5793 1.376 . S
C5797 C5796 1.392 1_554 S
C5797 H5809 0.929 . S
C5798 C5794 1.531 . S
C5798 H5810 0.960 . S
C5798 H5811 0.962 . S
C5798 H5812 0.960 . S
C5799 C5796 1.511 . S
C5799 H5813 0.961 . S
C5799 H5814 0.961 . S
C5799 H5815 0.961 . S
C5800 C5801 1.370 . S
C5800 C5802 1.363 . S
C5800 H5816 0.931 . S
C5801 C5800 1.370 . S
C5801 C5805 1.408 . S
C5802 C5800 1.363 . S
C5802 C5803 1.370 . S
C5802 C5806 1.524 . S
C5803 C5795 1.503 . S
C5803 C5802 1.370 . S
C5803 C5804 1.403 . S
C5804 C5803 1.403 . S
C5804 C5805 1.404 . S
C5804 C5807 1.539 . S
C5805 C5801 1.408 . S
C5805 C5804 1.404 . S
C5805 H5817 0.930 . S
C5806 C5802 1.524 . S
C5806 H5818 0.956 . S
C5806 H5819 0.961 . S
C5806 H5820 0.961 . S
C5807 C5804 1.539 . S
C5807 H5821 0.958 . S
C5807 H5822 0.961 . S
C5807 H5823 0.960 . S
H5808 C5792 0.931 . S
H5809 C5797 0.929 . S
H5810 C5798 0.960 . S
H5811 C5798 0.962 . S
H5812 C5798 0.960 . S
H5813 C5799 0.961 . S
H5814 C5799 0.961 . S
H5815 C5799 0.961 . S
H5816 C5800 0.931 . S
H5817 C5805 0.930 . S
H5818 C5806 0.956 . S
H5819 C5806 0.961 . S
H5820 C5806 0.961 . S
H5821 C5807 0.958 . S
H5822 C5807 0.961 . S
H5823 C5807 0.960 . S
C5824 C5825 1.391 . S
C5824 C5826 1.394 . S
C5824 H5840 0.931 . S
C5825 C5824 1.391 . S
C5825 C5829 1.376 . S
C5826 C5824 1.394 . S
C5826 C5827 1.369 . S
C5826 C5830 1.531 . S
C5827 C5826 1.369 . S
C5827 C5828 1.410 . S
C5827 C5835 1.503 . S
C5828 C5827 1.410 . S
C5828 C5829 1.392 . S
C5828 C5831 1.511 . S
C5829 C5825 1.376 . S
C5829 C5828 1.392 . S
C5829 H5841 0.929 . S
C5830 C5826 1.531 . S
C5830 H5842 0.960 . S
C5830 H5843 0.962 . S
C5830 H5844 0.960 . S
C5831 C5828 1.511 . S
C5831 H5845 0.961 . S
C5831 H5846 0.961 . S
C5831 H5847 0.961 . S
C5832 C5833 1.370 . S
C5832 C5834 1.363 . S
C5832 H5848 0.931 . S
C5833 C5832 1.370 . S
C5833 C5837 1.408 . S
C5834 C5832 1.363 . S
C5834 C5835 1.370 . S
C5834 C5838 1.524 . S
C5835 C5827 1.503 . S
C5835 C5834 1.370 . S
C5835 C5836 1.403 . S
C5836 C5835 1.403 . S
C5836 C5837 1.404 . S
C5836 C5839 1.539 . S
C5837 C5833 1.408 . S
C5837 C5836 1.404 . S
C5837 H5849 0.930 . S
C5838 C5834 1.524 . S
C5838 H5850 0.956 . S
C5838 H5851 0.961 . S
C5838 H5852 0.961 . S
C5839 C5836 1.539 . S
C5839 H5853 0.958 . S
C5839 H5854 0.961 . S
C5839 H5855 0.960 . S
H5840 C5824 0.931 . S
H5841 C5829 0.929 . S
H5842 C5830 0.960 . S
H5843 C5830 0.962 . S
H5844 C5830 0.960 . S
H5845 C5831 0.961 . S
H5846 C5831 0.961 . S
H5847 C5831 0.961 . S
H5848 C5832 0.931 . S
H5849 C5837 0.930 . S
H5850 C5838 0.956 . S
H5851 C5838 0.961 . S
H5852 C5838 0.961 . S
H5853 C5839 0.958 . S
H5854 C5839 0.961 . S
H5855 C5839 0.960 . S
C5856 C5857 1.391 . S
C5856 C5858 1.394 . S
C5856 H5872 0.931 . S
C5857 C5856 1.391 . S
C5857 C5861 1.376 . S
C5858 C5856 1.394 . S
C5858 C5859 1.369 . S
C5858 C5862 1.531 . S
C5859 C5858 1.369 . S
C5859 C5860 1.410 . S
C5859 C5867 1.503 . S
C5860 C5859 1.410 . S
C5860 C5861 1.392 . S
C5860 C5863 1.511 . S
C5861 C5857 1.376 . S
C5861 C5860 1.392 . S
C5861 H5873 0.929 . S
C5862 C5858 1.531 . S
C5862 H5874 0.960 . S
C5862 H5875 0.962 . S
C5862 H5876 0.960 . S
C5863 C5860 1.511 . S
C5863 H5877 0.961 . S
C5863 H5878 0.961 . S
C5863 H5879 0.961 . S
C5864 C5865 1.370 . S
C5864 C5866 1.363 . S
C5864 H5880 0.931 . S
C5865 C5864 1.370 . S
C5865 C5869 1.408 . S
C5866 C5864 1.363 . S
C5866 C5867 1.370 . S
C5866 C5870 1.524 . S
C5867 C5859 1.503 . S
C5867 C5866 1.370 . S
C5867 C5868 1.403 . S
C5868 C5867 1.403 . S
C5868 C5869 1.404 . S
C5868 C5871 1.539 . S
C5869 C5865 1.408 . S
C5869 C5868 1.404 . S
C5869 H5881 0.930 . S
C5870 C5866 1.524 . S
C5870 H5882 0.956 . S
C5870 H5883 0.961 . S
C5870 H5884 0.961 . S
C5871 C5868 1.539 . S
C5871 H5885 0.958 . S
C5871 H5886 0.961 . S
C5871 H5887 0.960 . S
H5872 C5856 0.931 . S
H5873 C5861 0.929 . S
H5874 C5862 0.960 . S
H5875 C5862 0.962 . S
H5876 C5862 0.960 . S
H5877 C5863 0.961 . S
H5878 C5863 0.961 . S
H5879 C5863 0.961 . S
H5880 C5864 0.931 . S
H5881 C5869 0.930 . S
H5882 C5870 0.956 . S
H5883 C5870 0.961 . S
H5884 C5870 0.961 . S
H5885 C5871 0.958 . S
H5886 C5871 0.961 . S
H5887 C5871 0.960 . S
C5888 C5889 1.391 . S
C5888 C5890 1.394 . S
C5888 H5904 0.931 . S
C5889 C5888 1.391 . S
C5889 C5893 1.376 . S
C5890 C5888 1.394 . S
C5890 C5891 1.369 . S
C5890 C5894 1.531 . S
C5891 C5890 1.369 . S
C5891 C5892 1.410 . S
C5891 C5899 1.503 . S
C5892 C5891 1.410 . S
C5892 C5893 1.392 . S
C5892 C5895 1.511 . S
C5893 C5889 1.376 . S
C5893 C5892 1.392 . S
C5893 H5905 0.929 . S
C5894 C5890 1.531 . S
C5894 H5906 0.960 . S
C5894 H5907 0.962 . S
C5894 H5908 0.960 . S
C5895 C5892 1.511 . S
C5895 H5909 0.961 . S
C5895 H5910 0.961 . S
C5895 H5911 0.961 . S
C5896 C5897 1.370 . S
C5896 C5898 1.363 . S
C5896 H5912 0.931 . S
C5897 C5896 1.370 . S
C5897 C5901 1.408 . S
C5898 C5896 1.363 . S
C5898 C5899 1.370 . S
C5898 C5902 1.524 . S
C5899 C5891 1.503 . S
C5899 C5898 1.370 . S
C5899 C5900 1.403 . S
C5900 C5899 1.403 . S
C5900 C5901 1.404 . S
C5900 C5903 1.539 . S
C5901 C5897 1.408 . S
C5901 C5900 1.404 . S
C5901 H5913 0.930 . S
C5902 C5898 1.524 . S
C5902 H5914 0.956 . S
C5902 H5915 0.961 . S
C5902 H5916 0.961 . S
C5903 C5900 1.539 . S
C5903 H5917 0.958 . S
C5903 H5918 0.961 . S
C5903 H5919 0.960 . S
H5904 C5888 0.931 . S
H5905 C5893 0.929 . S
H5906 C5894 0.960 . S
H5907 C5894 0.962 . S
H5908 C5894 0.960 . S
H5909 C5895 0.961 . S
H5910 C5895 0.961 . S
H5911 C5895 0.961 . S
H5912 C5896 0.931 . S
H5913 C5901 0.930 . S
H5914 C5902 0.956 . S
H5915 C5902 0.961 . S
H5916 C5902 0.961 . S
H5917 C5903 0.958 . S
H5918 C5903 0.961 . S
H5919 C5903 0.960 . S
C5920 C5921 1.391 . S
C5920 C5922 1.394 . S
C5920 H5936 0.931 . S
C5921 C5920 1.391 . S
C5921 C5925 1.376 . S
C5922 C5920 1.394 . S
C5922 C5923 1.369 . S
C5922 C5926 1.531 . S
C5923 C5922 1.369 . S
C5923 C5924 1.410 . S
C5923 C5931 1.503 . S
C5924 C5923 1.410 . S
C5924 C5925 1.392 . S
C5924 C5927 1.511 . S
C5925 C5921 1.376 . S
C5925 C5924 1.392 . S
C5925 H5937 0.929 . S
C5926 C5922 1.531 . S
C5926 H5938 0.960 . S
C5926 H5939 0.962 . S
C5926 H5940 0.960 . S
C5927 C5924 1.511 . S
C5927 H5941 0.961 . S
C5927 H5942 0.961 . S
C5927 H5943 0.961 . S
C5928 C5929 1.370 . S
C5928 C5930 1.363 . S
C5928 H5944 0.931 . S
C5929 C5928 1.370 . S
C5929 C5933 1.408 . S
C5930 C5928 1.363 . S
C5930 C5931 1.370 . S
C5930 C5934 1.524 . S
C5931 C5923 1.503 . S
C5931 C5930 1.370 . S
C5931 C5932 1.403 . S
C5932 C5931 1.403 . S
C5932 C5933 1.404 . S
C5932 C5935 1.539 . S
C5933 C5929 1.408 . S
C5933 C5932 1.404 . S
C5933 H5945 0.930 . S
C5934 C5930 1.524 . S
C5934 H5946 0.956 . S
C5934 H5947 0.961 . S
C5934 H5948 0.961 . S
C5935 C5932 1.539 . S
C5935 H5949 0.958 . S
C5935 H5950 0.961 . S
C5935 H5951 0.960 . S
H5936 C5920 0.931 . S
H5937 C5925 0.929 . S
H5938 C5926 0.960 . S
H5939 C5926 0.962 . S
H5940 C5926 0.960 . S
H5941 C5927 0.961 . S
H5942 C5927 0.961 . S
H5943 C5927 0.961 . S
H5944 C5928 0.931 . S
H5945 C5933 0.930 . S
H5946 C5934 0.956 . S
H5947 C5934 0.961 . S
H5948 C5934 0.961 . S
H5949 C5935 0.958 . S
H5950 C5935 0.961 . S
H5951 C5935 0.960 . S
C5952 C5953 1.391 . S
C5952 C5954 1.394 . S
C5952 H5968 0.931 . S
C5953 C5952 1.391 . S
C5953 C5957 1.376 . S
C5954 C5952 1.394 . S
C5954 C5955 1.369 . S
C5954 C5958 1.531 . S
C5955 C5954 1.369 . S
C5955 C5956 1.410 . S
C5955 C5963 1.503 . S
C5956 C5955 1.410 . S
C5956 C5957 1.392 . S
C5956 C5959 1.511 . S
C5957 C5953 1.376 . S
C5957 C5956 1.392 . S
C5957 H5969 0.929 . S
C5958 C5954 1.531 . S
C5958 H5970 0.960 . S
C5958 H5971 0.962 . S
C5958 H5972 0.960 . S
C5959 C5956 1.511 . S
C5959 H5973 0.961 . S
C5959 H5974 0.961 . S
C5959 H5975 0.961 . S
C5960 C5961 1.460 . S
C5960 C5962 1.276 1_565 S
C5960 H5976 0.931 . S
C5961 C5960 1.460 . S
C5961 C5965 1.408 . S
C5962 C5960 1.276 1_545 S
C5962 C5963 1.370 . S
C5962 C5966 1.524 . S
C5963 C5955 1.503 . S
C5963 C5962 1.370 . S
C5963 C5964 1.348 1_545 S
C5964 C5963 1.348 1_565 S
C5964 C5965 1.462 . S
C5964 C5967 1.539 . S
C5965 C5961 1.408 . S
C5965 C5964 1.462 . S
C5965 H5977 0.930 . S
C5966 C5962 1.524 . S
C5966 H5978 0.956 . S
C5966 H5979 0.961 . S
C5966 H5980 0.961 . S
C5967 C5964 1.539 . S
C5967 H5981 0.926 1_565 S
C5967 H5982 1.056 . S
C5967 H5983 0.897 1_565 S
H5968 C5952 0.931 . S
H5969 C5957 0.929 . S
H5970 C5958 0.960 . S
H5971 C5958 0.962 . S
H5972 C5958 0.960 . S
H5973 C5959 0.961 . S
H5974 C5959 0.961 . S
H5975 C5959 0.961 . S
H5976 C5960 0.931 . S
H5977 C5965 0.930 . S
H5978 C5966 0.956 . S
H5979 C5966 0.961 . S
H5980 C5966 0.961 . S
H5981 C5967 0.926 1_545 S
H5982 C5967 1.056 . S
H5983 C5967 0.897 1_545 S
C5984 C5985 1.391 . S
C5984 C5986 1.394 . S
C5984 H6000 0.931 . S
C5985 C5984 1.391 . S
C5985 C5989 1.376 . S
C5986 C5984 1.394 . S
C5986 C5987 1.369 . S
C5986 C5990 1.531 . S
C5987 C5986 1.369 . S
C5987 C5988 1.410 . S
C5987 C5995 1.503 . S
C5988 C5987 1.410 . S
C5988 C5989 1.392 . S
C5988 C5991 1.511 . S
C5989 C5985 1.376 . S
C5989 C5988 1.392 . S
C5989 H6001 0.929 . S
C5990 C5986 1.531 . S
C5990 H6002 0.960 . S
C5990 H6003 0.962 . S
C5990 H6004 0.960 . S
C5991 C5988 1.511 . S
C5991 H6005 0.961 . S
C5991 H6006 0.961 . S
C5991 H6007 0.961 . S
C5992 C5993 1.370 . S
C5992 C5994 1.363 . S
C5992 H6008 0.931 . S
C5993 C5992 1.370 . S
C5993 C5997 1.408 . S
C5994 C5992 1.363 . S
C5994 C5995 1.370 . S
C5994 C5998 1.524 . S
C5995 C5987 1.503 . S
C5995 C5994 1.370 . S
C5995 C5996 1.403 . S
C5996 C5995 1.403 . S
C5996 C5997 1.404 . S
C5996 C5999 1.539 . S
C5997 C5993 1.408 . S
C5997 C5996 1.404 . S
C5997 H6009 0.930 . S
C5998 C5994 1.524 . S
C5998 H6010 0.956 . S
C5998 H6011 0.961 . S
C5998 H6012 0.961 . S
C5999 C5996 1.539 . S
C5999 H6013 0.958 . S
C5999 H6014 0.961 . S
C5999 H6015 0.960 . S
H6000 C5984 0.931 . S
H6001 C5989 0.929 . S
H6002 C5990 0.960 . S
H6003 C5990 0.962 . S
H6004 C5990 0.960 . S
H6005 C5991 0.961 . S
H6006 C5991 0.961 . S
H6007 C5991 0.961 . S
H6008 C5992 0.931 . S
H6009 C5997 0.930 . S
H6010 C5998 0.956 . S
H6011 C5998 0.961 . S
H6012 C5998 0.961 . S
H6013 C5999 0.958 . S
H6014 C5999 0.961 . S
H6015 C5999 0.960 . S
C6016 C6017 1.391 . S
C6016 C6018 1.394 . S
C6016 H6032 0.931 . S
C6017 C6016 1.391 . S
C6017 C6021 1.376 . S
C6018 C6016 1.394 . S
C6018 C6019 1.369 . S
C6018 C6022 1.531 . S
C6019 C6018 1.369 . S
C6019 C6020 1.410 . S
C6019 C6027 1.503 . S
C6020 C6019 1.410 . S
C6020 C6021 1.392 . S
C6020 C6023 1.511 . S
C6021 C6017 1.376 . S
C6021 C6020 1.392 . S
C6021 H6033 0.929 . S
C6022 C6018 1.531 . S
C6022 H6034 0.960 . S
C6022 H6035 0.962 . S
C6022 H6036 0.960 . S
C6023 C6020 1.511 . S
C6023 H6037 0.961 . S
C6023 H6038 0.961 . S
C6023 H6039 0.961 . S
C6024 C6025 1.370 . S
C6024 C6026 1.363 . S
C6024 H6040 0.931 . S
C6025 C6024 1.370 . S
C6025 C6029 1.408 . S
C6026 C6024 1.363 . S
C6026 C6027 1.370 . S
C6026 C6030 1.524 . S
C6027 C6019 1.503 . S
C6027 C6026 1.370 . S
C6027 C6028 1.403 . S
C6028 C6027 1.403 . S
C6028 C6029 1.404 . S
C6028 C6031 1.539 . S
C6029 C6025 1.408 . S
C6029 C6028 1.404 . S
C6029 H6041 0.930 . S
C6030 C6026 1.524 . S
C6030 H6042 0.956 . S
C6030 H6043 0.961 . S
C6030 H6044 0.961 . S
C6031 C6028 1.539 . S
C6031 H6045 0.958 . S
C6031 H6046 0.961 . S
C6031 H6047 0.960 . S
H6032 C6016 0.931 . S
H6033 C6021 0.929 . S
H6034 C6022 0.960 . S
H6035 C6022 0.962 . S
H6036 C6022 0.960 . S
H6037 C6023 0.961 . S
H6038 C6023 0.961 . S
H6039 C6023 0.961 . S
H6040 C6024 0.931 . S
H6041 C6029 0.930 . S
H6042 C6030 0.956 . S
H6043 C6030 0.961 . S
H6044 C6030 0.961 . S
H6045 C6031 0.958 . S
H6046 C6031 0.961 . S
H6047 C6031 0.960 . S
C6048 C6049 1.391 . S
C6048 C6050 1.394 . S
C6048 H6064 0.931 . S
C6049 C6048 1.391 . S
C6049 C6053 1.376 . S
C6050 C6048 1.394 . S
C6050 C6051 1.369 . S
C6050 C6054 1.531 . S
C6051 C6050 1.369 . S
C6051 C6052 1.410 . S
C6051 C6059 1.503 . S
C6052 C6051 1.410 . S
C6052 C6053 1.392 . S
C6052 C6055 1.511 . S
C6053 C6049 1.376 . S
C6053 C6052 1.392 . S
C6053 H6065 0.929 . S
C6054 C6050 1.531 . S
C6054 H6066 0.960 . S
C6054 H6067 0.962 . S
C6054 H6068 0.960 . S
C6055 C6052 1.511 . S
C6055 H6069 0.961 . S
C6055 H6070 0.961 . S
C6055 H6071 0.961 . S
C6056 C6057 1.370 . S
C6056 C6058 1.363 . S
C6056 H6072 0.931 . S
C6057 C6056 1.370 . S
C6057 C6061 1.408 . S
C6058 C6056 1.363 . S
C6058 C6059 1.370 . S
C6058 C6062 1.524 . S
C6059 C6051 1.503 . S
C6059 C6058 1.370 . S
C6059 C6060 1.403 . S
C6060 C6059 1.403 . S
C6060 C6061 1.404 . S
C6060 C6063 1.539 . S
C6061 C6057 1.408 . S
C6061 C6060 1.404 . S
C6061 H6073 0.930 . S
C6062 C6058 1.524 . S
C6062 H6074 0.956 . S
C6062 H6075 0.961 . S
C6062 H6076 0.961 . S
C6063 C6060 1.539 . S
C6063 H6077 0.958 . S
C6063 H6078 0.961 . S
C6063 H6079 0.960 . S
H6064 C6048 0.931 . S
H6065 C6053 0.929 . S
H6066 C6054 0.960 . S
H6067 C6054 0.962 . S
H6068 C6054 0.960 . S
H6069 C6055 0.961 . S
H6070 C6055 0.961 . S
H6071 C6055 0.961 . S
H6072 C6056 0.931 . S
H6073 C6061 0.930 . S
H6074 C6062 0.956 . S
H6075 C6062 0.961 . S
H6076 C6062 0.961 . S
H6077 C6063 0.958 . S
H6078 C6063 0.961 . S
H6079 C6063 0.960 . S
C6080 C6081 1.391 . S
C6080 C6082 1.394 . S
C6080 H6096 0.931 . S
C6081 C6080 1.391 . S
C6081 C6085 1.376 . S
C6082 C6080 1.394 . S
C6082 C6083 1.369 . S
C6082 C6086 1.531 . S
C6083 C6082 1.369 . S
C6083 C6084 1.410 . S
C6083 C6091 1.503 . S
C6084 C6083 1.410 . S
C6084 C6085 1.392 . S
C6084 C6087 1.511 . S
C6085 C6081 1.376 . S
C6085 C6084 1.392 . S
C6085 H6097 0.929 . S
C6086 C6082 1.531 . S
C6086 H6098 0.960 . S
C6086 H6099 0.962 . S
C6086 H6100 0.960 . S
C6087 C6084 1.511 . S
C6087 H6101 0.961 . S
C6087 H6102 0.961 . S
C6087 H6103 0.961 . S
C6088 C6089 1.370 . S
C6088 C6090 1.363 1_545 S
C6088 H6104 0.931 . S
C6089 C6088 1.370 . S
C6089 C6093 1.408 . S
C6090 C6088 1.363 1_565 S
C6090 C6091 1.370 . S
C6090 C6094 1.524 . S
C6091 C6083 1.503 . S
C6091 C6090 1.370 . S
C6091 C6092 1.403 . S
C6092 C6091 1.403 . S
C6092 C6093 1.404 1_565 S
C6092 C6095 1.539 . S
C6093 C6089 1.408 . S
C6093 C6092 1.404 1_545 S
C6093 H6105 0.930 . S
C6094 C6090 1.524 . S
C6094 H6106 0.956 . S
C6094 H6107 0.961 . S
C6094 H6108 0.961 1_565 S
C6095 C6092 1.539 . S
C6095 H6109 0.958 . S
C6095 H6110 0.961 . S
C6095 H6111 0.960 . S
H6096 C6080 0.931 . S
H6097 C6085 0.929 . S
H6098 C6086 0.960 . S
H6099 C6086 0.962 . S
H6100 C6086 0.960 . S
H6101 C6087 0.961 . S
H6102 C6087 0.961 . S
H6103 C6087 0.961 . S
H6104 C6088 0.931 . S
H6105 C6093 0.930 . S
H6106 C6094 0.956 . S
H6107 C6094 0.961 . S
H6108 C6094 0.961 1_545 S
H6109 C6095 0.958 . S
H6110 C6095 0.961 . S
H6111 C6095 0.960 . S
C6112 C6113 1.429 . S
C6112 C6114 1.354 1_565 S
C6112 H6128 0.930 . S
C6113 C6112 1.429 . S
C6113 C6117 1.376 . S
C6114 C6112 1.354 1_545 S
C6114 C6115 1.369 . S
C6114 C6118 1.531 . S
C6115 C6114 1.369 . S
C6115 C6116 1.444 . S
C6115 C6123 1.503 . S
C6116 C6115 1.444 . S
C6116 C6117 1.356 1_545 S
C6116 C6119 1.511 . S
C6117 C6113 1.376 . S
C6117 C6116 1.356 1_565 S
C6117 H6129 0.929 . S
C6118 C6114 1.531 . S
C6118 H6130 0.960 . S
C6118 H6131 0.962 . S
C6118 H6132 0.960 . S
C6119 C6116 1.511 . S
C6119 H6133 0.892 1_545 S
C6119 H6134 1.016 . S
C6119 H6135 0.981 . S
C6120 C6121 1.370 . S
C6120 C6122 1.363 . S
C6120 H6136 0.931 . S
C6121 C6120 1.370 . S
C6121 C6125 1.408 . S
C6122 C6120 1.363 . S
C6122 C6123 1.370 . S
C6122 C6126 1.524 . S
C6123 C6115 1.503 . S
C6123 C6122 1.370 . S
C6123 C6124 1.403 . S
C6124 C6123 1.403 . S
C6124 C6125 1.404 . S
C6124 C6127 1.539 . S
C6125 C6121 1.408 . S
C6125 C6124 1.404 . S
C6125 H6137 0.930 . S
C6126 C6122 1.524 . S
C6126 H6138 0.956 . S
C6126 H6139 0.961 . S
C6126 H6140 0.961 . S
C6127 C6124 1.539 . S
C6127 H6141 0.958 . S
C6127 H6142 0.961 . S
C6127 H6143 0.960 . S
H6128 C6112 0.930 . S
H6129 C6117 0.929 . S
H6130 C6118 0.960 . S
H6131 C6118 0.962 . S
H6132 C6118 0.960 . S
H6133 C6119 0.892 1_565 S
H6134 C6119 1.016 . S
H6135 C6119 0.981 . S
H6136 C6120 0.931 . S
H6137 C6125 0.930 . S
H6138 C6126 0.956 . S
H6139 C6126 0.961 . S
H6140 C6126 0.961 . S
H6141 C6127 0.958 . S
H6142 C6127 0.961 . S
H6143 C6127 0.960 . S
C6144 C6145 1.391 . S
C6144 C6146 1.394 . S
C6144 H6160 0.931 . S
C6145 C6144 1.391 . S
C6145 C6149 1.376 . S
C6146 C6144 1.394 . S
C6146 C6147 1.369 . S
C6146 C6150 1.531 . S
C6147 C6146 1.369 . S
C6147 C6148 1.410 . S
C6147 C6155 1.503 . S
C6148 C6147 1.410 . S
C6148 C6149 1.392 . S
C6148 C6151 1.511 . S
C6149 C6145 1.376 . S
C6149 C6148 1.392 . S
C6149 H6161 0.929 . S
C6150 C6146 1.531 . S
C6150 H6162 0.960 . S
C6150 H6163 0.962 . S
C6150 H6164 0.960 . S
C6151 C6148 1.511 . S
C6151 H6165 0.961 . S
C6151 H6166 0.961 . S
C6151 H6167 0.961 . S
C6152 C6153 1.370 . S
C6152 C6154 1.363 . S
C6152 H6168 0.931 . S
C6153 C6152 1.370 . S
C6153 C6157 1.408 . S
C6154 C6152 1.363 . S
C6154 C6155 1.370 . S
C6154 C6158 1.524 . S
C6155 C6147 1.503 . S
C6155 C6154 1.370 . S
C6155 C6156 1.403 . S
C6156 C6155 1.403 . S
C6156 C6157 1.404 . S
C6156 C6159 1.539 . S
C6157 C6153 1.408 . S
C6157 C6156 1.404 . S
C6157 H6169 0.930 . S
C6158 C6154 1.524 . S
C6158 H6170 0.956 . S
C6158 H6171 0.961 . S
C6158 H6172 0.961 . S
C6159 C6156 1.539 . S
C6159 H6173 0.958 . S
C6159 H6174 0.961 . S
C6159 H6175 0.960 . S
H6160 C6144 0.931 . S
H6161 C6149 0.929 . S
H6162 C6150 0.960 . S
H6163 C6150 0.962 . S
H6164 C6150 0.960 . S
H6165 C6151 0.961 . S
H6166 C6151 0.961 . S
H6167 C6151 0.961 . S
H6168 C6152 0.931 . S
H6169 C6157 0.930 . S
H6170 C6158 0.956 . S
H6171 C6158 0.961 . S
H6172 C6158 0.961 . S
H6173 C6159 0.958 . S
H6174 C6159 0.961 . S
H6175 C6159 0.960 . S
C6176 C6177 1.391 . S
C6176 C6178 1.394 . S
C6176 H6192 0.931 . S
C6177 C6176 1.391 . S
C6177 C6181 1.376 . S
C6178 C6176 1.394 . S
C6178 C6179 1.369 . S
C6178 C6182 1.531 . S
C6179 C6178 1.369 . S
C6179 C6180 1.410 . S
C6179 C6187 1.503 . S
C6180 C6179 1.410 . S
C6180 C6181 1.392 . S
C6180 C6183 1.511 . S
C6181 C6177 1.376 . S
C6181 C6180 1.392 . S
C6181 H6193 0.929 . S
C6182 C6178 1.531 . S
C6182 H6194 0.960 . S
C6182 H6195 0.962 . S
C6182 H6196 0.960 . S
C6183 C6180 1.511 . S
C6183 H6197 0.961 . S
C6183 H6198 0.961 . S
C6183 H6199 0.961 . S
C6184 C6185 1.370 . S
C6184 C6186 1.363 . S
C6184 H6200 0.931 . S
C6185 C6184 1.370 . S
C6185 C6189 1.408 . S
C6186 C6184 1.363 . S
C6186 C6187 1.370 . S
C6186 C6190 1.524 . S
C6187 C6179 1.503 . S
C6187 C6186 1.370 . S
C6187 C6188 1.403 . S
C6188 C6187 1.403 . S
C6188 C6189 1.404 . S
C6188 C6191 1.539 . S
C6189 C6185 1.408 . S
C6189 C6188 1.404 . S
C6189 H6201 0.930 . S
C6190 C6186 1.524 . S
C6190 H6202 0.956 . S
C6190 H6203 0.961 . S
C6190 H6204 0.961 . S
C6191 C6188 1.539 . S
C6191 H6205 0.958 . S
C6191 H6206 0.961 . S
C6191 H6207 0.960 . S
H6192 C6176 0.931 . S
H6193 C6181 0.929 . S
H6194 C6182 0.960 . S
H6195 C6182 0.962 . S
H6196 C6182 0.960 . S
H6197 C6183 0.961 . S
H6198 C6183 0.961 . S
H6199 C6183 0.961 . S
H6200 C6184 0.931 . S
H6201 C6189 0.930 . S
H6202 C6190 0.956 . S
H6203 C6190 0.961 . S
H6204 C6190 0.961 . S
H6205 C6191 0.958 . S
H6206 C6191 0.961 . S
H6207 C6191 0.960 . S
C6208 C6209 1.391 . S
C6208 C6210 1.394 . S
C6208 H6224 0.931 . S
C6209 C6208 1.391 . S
C6209 C6213 1.376 . S
C6210 C6208 1.394 . S
C6210 C6211 1.369 . S
C6210 C6214 1.531 . S
C6211 C6210 1.369 . S
C6211 C6212 1.410 . S
C6211 C6219 1.503 . S
C6212 C6211 1.410 . S
C6212 C6213 1.392 . S
C6212 C6215 1.511 . S
C6213 C6209 1.376 . S
C6213 C6212 1.392 . S
C6213 H6225 0.929 . S
C6214 C6210 1.531 . S
C6214 H6226 0.960 . S
C6214 H6227 0.962 . S
C6214 H6228 0.960 . S
C6215 C6212 1.511 . S
C6215 H6229 0.961 . S
C6215 H6230 0.961 . S
C6215 H6231 0.961 . S
C6216 C6217 1.370 . S
C6216 C6218 1.363 . S
C6216 H6232 0.931 . S
C6217 C6216 1.370 . S
C6217 C6221 1.408 . S
C6218 C6216 1.363 . S
C6218 C6219 1.370 . S
C6218 C6222 1.524 . S
C6219 C6211 1.503 . S
C6219 C6218 1.370 . S
C6219 C6220 1.403 . S
C6220 C6219 1.403 . S
C6220 C6221 1.404 . S
C6220 C6223 1.539 . S
C6221 C6217 1.408 . S
C6221 C6220 1.404 . S
C6221 H6233 0.930 . S
C6222 C6218 1.524 . S
C6222 H6234 0.956 . S
C6222 H6235 0.961 . S
C6222 H6236 0.961 . S
C6223 C6220 1.539 . S
C6223 H6237 0.958 . S
C6223 H6238 0.961 . S
C6223 H6239 0.960 . S
H6224 C6208 0.931 . S
H6225 C6213 0.929 . S
H6226 C6214 0.960 . S
H6227 C6214 0.962 . S
H6228 C6214 0.960 . S
H6229 C6215 0.961 . S
H6230 C6215 0.961 . S
H6231 C6215 0.961 . S
H6232 C6216 0.931 . S
H6233 C6221 0.930 . S
H6234 C6222 0.956 . S
H6235 C6222 0.961 . S
H6236 C6222 0.961 . S
H6237 C6223 0.958 . S
H6238 C6223 0.961 . S
H6239 C6223 0.960 . S
C6240 C6241 1.433 . S
C6240 C6242 1.352 1_455 S
C6240 H6256 0.931 . S
C6241 C6240 1.433 . S
C6241 C6245 1.376 . S
C6242 C6240 1.352 1_655 S
C6242 C6243 1.369 . S
C6242 C6246 1.531 . S
C6243 C6242 1.369 . S
C6243 C6244 1.337 1_655 S
C6243 C6251 1.503 . S
C6244 C6243 1.337 1_455 S
C6244 C6245 1.465 . S
C6244 C6247 1.510 . S
C6245 C6241 1.376 . S
C6245 C6244 1.465 . S
C6245 H6257 0.929 . S
C6246 C6242 1.531 . S
C6246 H6258 0.960 . S
C6246 H6259 0.962 . S
C6246 H6260 0.960 . S
C6247 C6244 1.510 . S
C6247 H6261 1.075 . S
C6247 H6262 0.844 1_455 S
C6247 H6263 0.986 . S
C6248 C6249 1.370 . S
C6248 C6250 1.363 . S
C6248 H6264 0.931 . S
C6249 C6248 1.370 . S
C6249 C6253 1.408 . S
C6250 C6248 1.363 . S
C6250 C6251 1.370 . S
C6250 C6254 1.524 . S
C6251 C6243 1.503 . S
C6251 C6250 1.370 . S
C6251 C6252 1.403 . S
C6252 C6251 1.403 . S
C6252 C6253 1.404 . S
C6252 C6255 1.539 . S
C6253 C6249 1.408 . S
C6253 C6252 1.404 . S
C6253 H6265 0.930 . S
C6254 C6250 1.524 . S
C6254 H6266 0.956 . S
C6254 H6267 0.961 . S
C6254 H6268 0.961 . S
C6255 C6252 1.539 . S
C6255 H6269 0.958 . S
C6255 H6270 0.961 . S
C6255 H6271 0.960 . S
H6256 C6240 0.931 . S
H6257 C6245 0.929 . S
H6258 C6246 0.960 . S
H6259 C6246 0.962 . S
H6260 C6246 0.960 . S
H6261 C6247 1.075 . S
H6262 C6247 0.844 1_655 S
H6263 C6247 0.986 . S
H6264 C6248 0.931 . S
H6265 C6253 0.930 . S
H6266 C6254 0.956 . S
H6267 C6254 0.961 . S
H6268 C6254 0.961 . S
H6269 C6255 0.958 . S
H6270 C6255 0.961 . S
H6271 C6255 0.960 . S
C6272 C6273 1.391 . S
C6272 C6274 1.394 . S
C6272 H6288 0.931 . S
C6273 C6272 1.391 . S
C6273 C6277 1.376 . S
C6274 C6272 1.394 . S
C6274 C6275 1.369 . S
C6274 C6278 1.531 . S
C6275 C6274 1.369 . S
C6275 C6276 1.410 . S
C6275 C6283 1.503 . S
C6276 C6275 1.410 . S
C6276 C6277 1.392 . S
C6276 C6279 1.511 . S
C6277 C6273 1.376 . S
C6277 C6276 1.392 . S
C6277 H6289 0.929 . S
C6278 C6274 1.531 . S
C6278 H6290 0.960 . S
C6278 H6291 0.962 . S
C6278 H6292 0.960 . S
C6279 C6276 1.511 . S
C6279 H6293 0.961 . S
C6279 H6294 0.961 . S
C6279 H6295 0.961 . S
C6280 C6281 1.370 . S
C6280 C6282 1.363 . S
C6280 H6296 0.931 . S
C6281 C6280 1.370 . S
C6281 C6285 1.408 . S
C6282 C6280 1.363 . S
C6282 C6283 1.370 . S
C6282 C6286 1.524 . S
C6283 C6275 1.503 . S
C6283 C6282 1.370 . S
C6283 C6284 1.403 . S
C6284 C6283 1.403 . S
C6284 C6285 1.404 . S
C6284 C6287 1.539 . S
C6285 C6281 1.408 . S
C6285 C6284 1.404 . S
C6285 H6297 0.930 . S
C6286 C6282 1.524 . S
C6286 H6298 0.956 . S
C6286 H6299 0.961 . S
C6286 H6300 0.961 . S
C6287 C6284 1.539 . S
C6287 H6301 0.958 . S
C6287 H6302 0.961 . S
C6287 H6303 0.960 . S
H6288 C6272 0.931 . S
H6289 C6277 0.929 . S
H6290 C6278 0.960 . S
H6291 C6278 0.962 . S
H6292 C6278 0.960 . S
H6293 C6279 0.961 . S
H6294 C6279 0.961 . S
H6295 C6279 0.961 . S
H6296 C6280 0.931 . S
H6297 C6285 0.930 . S
H6298 C6286 0.956 . S
H6299 C6286 0.961 . S
H6300 C6286 0.961 . S
H6301 C6287 0.958 . S
H6302 C6287 0.961 . S
H6303 C6287 0.960 . S
C6304 C6305 1.391 . S
C6304 C6306 1.394 1_455 S
C6304 H6320 0.931 . S
C6305 C6304 1.391 . S
C6305 C6309 1.376 . S
C6306 C6304 1.394 1_655 S
C6306 C6307 1.369 . S
C6306 C6310 1.531 . S
C6307 C6306 1.369 . S
C6307 C6308 1.410 . S
C6307 C6315 1.503 . S
C6308 C6307 1.410 . S
C6308 C6309 1.392 1_655 S
C6308 C6311 1.511 . S
C6309 C6305 1.376 . S
C6309 C6308 1.392 1_455 S
C6309 H6321 0.929 . S
C6310 C6306 1.531 . S
C6310 H6322 0.960 . S
C6310 H6323 0.962 . S
C6310 H6324 0.960 . S
C6311 C6308 1.511 . S
C6311 H6325 0.961 . S
C6311 H6326 0.961 . S
C6311 H6327 0.961 . S
C6312 C6313 1.370 . S
C6312 C6314 1.363 . S
C6312 H6328 0.931 . S
C6313 C6312 1.370 . S
C6313 C6317 1.408 . S
C6314 C6312 1.363 . S
C6314 C6315 1.370 . S
C6314 C6318 1.524 . S
C6315 C6307 1.503 . S
C6315 C6314 1.370 . S
C6315 C6316 1.403 . S
C6316 C6315 1.403 . S
C6316 C6317 1.404 . S
C6316 C6319 1.539 . S
C6317 C6313 1.408 . S
C6317 C6316 1.404 . S
C6317 H6329 0.930 . S
C6318 C6314 1.524 . S
C6318 H6330 0.956 . S
C6318 H6331 0.961 . S
C6318 H6332 0.961 . S
C6319 C6316 1.539 . S
C6319 H6333 0.958 . S
C6319 H6334 0.961 . S
C6319 H6335 0.960 . S
H6320 C6304 0.931 . S
H6321 C6309 0.929 . S
H6322 C6310 0.960 . S
H6323 C6310 0.962 . S
H6324 C6310 0.960 . S
H6325 C6311 0.961 . S
H6326 C6311 0.961 . S
H6327 C6311 0.961 . S
H6328 C6312 0.931 . S
H6329 C6317 0.930 . S
H6330 C6318 0.956 . S
H6331 C6318 0.961 . S
H6332 C6318 0.961 . S
H6333 C6319 0.958 . S
H6334 C6319 0.961 . S
H6335 C6319 0.960 . S
C6336 C6337 1.391 . S
C6336 C6338 1.394 . S
C6336 H6352 0.931 . S
C6337 C6336 1.391 . S
C6337 C6341 1.376 . S
C6338 C6336 1.394 . S
C6338 C6339 1.369 . S
C6338 C6342 1.531 . S
C6339 C6338 1.369 . S
C6339 C6340 1.410 . S
C6339 C6347 1.503 . S
C6340 C6339 1.410 . S
C6340 C6341 1.392 . S
C6340 C6343 1.511 . S
C6341 C6337 1.376 . S
C6341 C6340 1.392 . S
C6341 H6353 0.929 . S
C6342 C6338 1.531 . S
C6342 H6354 0.960 . S
C6342 H6355 0.962 . S
C6342 H6356 0.960 . S
C6343 C6340 1.511 . S
C6343 H6357 0.961 . S
C6343 H6358 0.961 . S
C6343 H6359 0.961 . S
C6344 C6345 1.370 . S
C6344 C6346 1.363 . S
C6344 H6360 0.931 . S
C6345 C6344 1.370 . S
C6345 C6349 1.408 . S
C6346 C6344 1.363 . S
C6346 C6347 1.370 . S
C6346 C6350 1.524 . S
C6347 C6339 1.503 . S
C6347 C6346 1.370 . S
C6347 C6348 1.403 . S
C6348 C6347 1.403 . S
C6348 C6349 1.404 . S
C6348 C6351 1.539 . S
C6349 C6345 1.408 . S
C6349 C6348 1.404 . S
C6349 H6361 0.930 . S
C6350 C6346 1.524 . S
C6350 H6362 0.956 . S
C6350 H6363 0.961 . S
C6350 H6364 0.961 . S
C6351 C6348 1.539 . S
C6351 H6365 0.958 . S
C6351 H6366 0.961 . S
C6351 H6367 0.960 . S
H6352 C6336 0.931 . S
H6353 C6341 0.929 . S
H6354 C6342 0.960 . S
H6355 C6342 0.962 . S
H6356 C6342 0.960 . S
H6357 C6343 0.961 . S
H6358 C6343 0.961 . S
H6359 C6343 0.961 . S
H6360 C6344 0.931 . S
H6361 C6349 0.930 . S
H6362 C6350 0.956 . S
H6363 C6350 0.961 . S
H6364 C6350 0.961 . S
H6365 C6351 0.958 . S
H6366 C6351 0.961 . S
H6367 C6351 0.960 . S
C6368 C6369 1.391 . S
C6368 C6370 1.394 . S
C6368 H6384 0.931 . S
C6369 C6368 1.391 . S
C6369 C6373 1.376 . S
C6370 C6368 1.394 . S
C6370 C6371 1.369 . S
C6370 C6374 1.531 . S
C6371 C6370 1.369 . S
C6371 C6372 1.410 . S
C6371 C6379 1.503 . S
C6372 C6371 1.410 . S
C6372 C6373 1.392 . S
C6372 C6375 1.511 . S
C6373 C6369 1.376 . S
C6373 C6372 1.392 . S
C6373 H6385 0.929 . S
C6374 C6370 1.531 . S
C6374 H6386 0.960 . S
C6374 H6387 0.962 . S
C6374 H6388 0.960 . S
C6375 C6372 1.511 . S
C6375 H6389 0.961 . S
C6375 H6390 0.961 . S
C6375 H6391 0.961 . S
C6376 C6377 1.370 . S
C6376 C6378 1.363 . S
C6376 H6392 0.931 . S
C6377 C6376 1.370 . S
C6377 C6381 1.408 . S
C6378 C6376 1.363 . S
C6378 C6379 1.370 . S
C6378 C6382 1.524 . S
C6379 C6371 1.503 . S
C6379 C6378 1.370 . S
C6379 C6380 1.403 . S
C6380 C6379 1.403 . S
C6380 C6381 1.404 . S
C6380 C6383 1.539 . S
C6381 C6377 1.408 . S
C6381 C6380 1.404 . S
C6381 H6393 0.930 . S
C6382 C6378 1.524 . S
C6382 H6394 0.956 . S
C6382 H6395 0.961 . S
C6382 H6396 0.961 . S
C6383 C6380 1.539 . S
C6383 H6397 0.958 . S
C6383 H6398 0.961 . S
C6383 H6399 0.960 . S
H6384 C6368 0.931 . S
H6385 C6373 0.929 . S
H6386 C6374 0.960 . S
H6387 C6374 0.962 . S
H6388 C6374 0.960 . S
H6389 C6375 0.961 . S
H6390 C6375 0.961 . S
H6391 C6375 0.961 . S
H6392 C6376 0.931 . S
H6393 C6381 0.930 . S
H6394 C6382 0.956 . S
H6395 C6382 0.961 . S
H6396 C6382 0.961 . S
H6397 C6383 0.958 . S
H6398 C6383 0.961 . S
H6399 C6383 0.960 . S
C6400 C6401 1.391 . S
C6400 C6402 1.394 . S
C6400 H6416 0.931 . S
C6401 C6400 1.391 . S
C6401 C6405 1.376 . S
C6402 C6400 1.394 . S
C6402 C6403 1.369 . S
C6402 C6406 1.531 . S
C6403 C6402 1.369 . S
C6403 C6404 1.410 . S
C6403 C6411 1.503 . S
C6404 C6403 1.410 . S
C6404 C6405 1.392 . S
C6404 C6407 1.511 . S
C6405 C6401 1.376 . S
C6405 C6404 1.392 . S
C6405 H6417 0.929 . S
C6406 C6402 1.531 . S
C6406 H6418 0.960 . S
C6406 H6419 0.962 . S
C6406 H6420 0.960 . S
C6407 C6404 1.511 . S
C6407 H6421 0.961 . S
C6407 H6422 0.961 . S
C6407 H6423 0.961 . S
C6408 C6409 1.370 . S
C6408 C6410 1.363 . S
C6408 H6424 0.931 . S
C6409 C6408 1.370 . S
C6409 C6413 1.408 . S
C6410 C6408 1.363 . S
C6410 C6411 1.370 . S
C6410 C6414 1.524 . S
C6411 C6403 1.503 . S
C6411 C6410 1.370 . S
C6411 C6412 1.403 . S
C6412 C6411 1.403 . S
C6412 C6413 1.404 . S
C6412 C6415 1.539 . S
C6413 C6409 1.408 . S
C6413 C6412 1.404 . S
C6413 H6425 0.930 . S
C6414 C6410 1.524 . S
C6414 H6426 0.956 . S
C6414 H6427 0.961 . S
C6414 H6428 0.961 . S
C6415 C6412 1.539 . S
C6415 H6429 0.958 . S
C6415 H6430 0.961 . S
C6415 H6431 0.960 . S
H6416 C6400 0.931 . S
H6417 C6405 0.929 . S
H6418 C6406 0.960 . S
H6419 C6406 0.962 . S
H6420 C6406 0.960 . S
H6421 C6407 0.961 . S
H6422 C6407 0.961 . S
H6423 C6407 0.961 . S
H6424 C6408 0.931 . S
H6425 C6413 0.930 . S
H6426 C6414 0.956 . S
H6427 C6414 0.961 . S
H6428 C6414 0.961 . S
H6429 C6415 0.958 . S
H6430 C6415 0.961 . S
H6431 C6415 0.960 . S
C6432 C6433 1.501 . S
C6432 C6434 1.283 1_554 S
C6432 H6448 0.944 . S
C6433 C6432 1.501 . S
C6433 C6437 1.376 . S
C6434 C6432 1.283 1_556 S
C6434 C6435 1.369 . S
C6434 C6438 1.531 . S
C6435 C6434 1.369 . S
C6435 C6436 1.354 1_556 S
C6435 C6443 1.503 . S
C6436 C6435 1.354 1_554 S
C6436 C6437 1.450 . S
C6436 C6439 1.511 . S
C6437 C6433 1.376 . S
C6437 C6436 1.450 . S
C6437 H6449 0.929 . S
C6438 C6434 1.531 . S
C6438 H6450 0.960 . S
C6438 H6451 0.962 . S
C6438 H6452 0.960 . S
C6439 C6436 1.511 . S
C6439 H6453 1.012 . S
C6439 H6454 0.896 1_554 S
C6439 H6455 0.980 . S
C6440 C6441 1.370 . S
C6440 C6442 1.363 . S
C6440 H6456 0.931 . S
C6441 C6440 1.370 . S
C6441 C6445 1.408 . S
C6442 C6440 1.363 . S
C6442 C6443 1.370 . S
C6442 C6446 1.524 . S
C6443 C6435 1.503 . S
C6443 C6442 1.370 . S
C6443 C6444 1.403 . S
C6444 C6443 1.403 . S
C6444 C6445 1.404 . S
C6444 C6447 1.539 . S
C6445 C6441 1.408 . S
C6445 C6444 1.404 . S
C6445 H6457 0.930 . S
C6446 C6442 1.524 . S
C6446 H6458 0.956 . S
C6446 H6459 0.961 . S
C6446 H6460 0.961 . S
C6447 C6444 1.539 . S
C6447 H6461 0.958 . S
C6447 H6462 0.961 . S
C6447 H6463 0.960 . S
H6448 C6432 0.944 . S
H6449 C6437 0.929 . S
H6450 C6438 0.960 . S
H6451 C6438 0.962 . S
H6452 C6438 0.960 . S
H6453 C6439 1.012 . S
H6454 C6439 0.896 1_556 S
H6455 C6439 0.980 . S
H6456 C6440 0.931 . S
H6457 C6445 0.930 . S
H6458 C6446 0.956 . S
H6459 C6446 0.961 . S
H6460 C6446 0.961 . S
H6461 C6447 0.958 . S
H6462 C6447 0.961 . S
H6463 C6447 0.960 . S
C6464 C6465 1.391 . S
C6464 C6466 1.394 . S
C6464 H6480 0.931 . S
C6465 C6464 1.391 . S
C6465 C6469 1.376 . S
C6466 C6464 1.394 . S
C6466 C6467 1.369 . S
C6466 C6470 1.531 . S
C6467 C6466 1.369 . S
C6467 C6468 1.410 . S
C6467 C6475 1.503 . S
C6468 C6467 1.410 . S
C6468 C6469 1.392 . S
C6468 C6471 1.511 . S
C6469 C6465 1.376 . S
C6469 C6468 1.392 . S
C6469 H6481 0.929 . S
C6470 C6466 1.531 . S
C6470 H6482 0.960 . S
C6470 H6483 0.962 . S
C6470 H6484 0.960 . S
C6471 C6468 1.511 . S
C6471 H6485 0.961 . S
C6471 H6486 0.961 . S
C6471 H6487 0.961 . S
C6472 C6473 1.370 . S
C6472 C6474 1.363 . S
C6472 H6488 0.931 . S
C6473 C6472 1.370 . S
C6473 C6477 1.408 . S
C6474 C6472 1.363 . S
C6474 C6475 1.370 . S
C6474 C6478 1.524 . S
C6475 C6467 1.503 . S
C6475 C6474 1.370 . S
C6475 C6476 1.403 . S
C6476 C6475 1.403 . S
C6476 C6477 1.404 . S
C6476 C6479 1.539 . S
C6477 C6473 1.408 . S
C6477 C6476 1.404 . S
C6477 H6489 0.930 . S
C6478 C6474 1.524 . S
C6478 H6490 0.956 . S
C6478 H6491 0.961 . S
C6478 H6492 0.961 . S
C6479 C6476 1.539 . S
C6479 H6493 0.958 . S
C6479 H6494 0.961 . S
C6479 H6495 0.960 . S
H6480 C6464 0.931 . S
H6481 C6469 0.929 . S
H6482 C6470 0.960 . S
H6483 C6470 0.962 . S
H6484 C6470 0.960 . S
H6485 C6471 0.961 . S
H6486 C6471 0.961 . S
H6487 C6471 0.961 . S
H6488 C6472 0.931 . S
H6489 C6477 0.930 . S
H6490 C6478 0.956 . S
H6491 C6478 0.961 . S
H6492 C6478 0.961 . S
H6493 C6479 0.958 . S
H6494 C6479 0.961 . S
H6495 C6479 0.960 . S
C6496 C6497 1.391 . S
C6496 C6498 1.394 . S
C6496 H6512 0.931 . S
C6497 C6496 1.391 . S
C6497 C6501 1.376 . S
C6498 C6496 1.394 . S
C6498 C6499 1.369 . S
C6498 C6502 1.531 . S
C6499 C6498 1.369 . S
C6499 C6500 1.410 . S
C6499 C6507 1.503 . S
C6500 C6499 1.410 . S
C6500 C6501 1.392 . S
C6500 C6503 1.511 . S
C6501 C6497 1.376 . S
C6501 C6500 1.392 . S
C6501 H6513 0.929 . S
C6502 C6498 1.531 . S
C6502 H6514 0.960 . S
C6502 H6515 0.962 . S
C6502 H6516 0.960 . S
C6503 C6500 1.511 . S
C6503 H6517 0.961 . S
C6503 H6518 0.961 . S
C6503 H6519 0.961 . S
C6504 C6505 1.370 . S
C6504 C6506 1.363 . S
C6504 H6520 0.931 . S
C6505 C6504 1.370 . S
C6505 C6509 1.408 . S
C6506 C6504 1.363 . S
C6506 C6507 1.370 . S
C6506 C6510 1.524 . S
C6507 C6499 1.503 . S
C6507 C6506 1.370 . S
C6507 C6508 1.403 . S
C6508 C6507 1.403 . S
C6508 C6509 1.404 . S
C6508 C6511 1.539 . S
C6509 C6505 1.408 . S
C6509 C6508 1.404 . S
C6509 H6521 0.930 . S
C6510 C6506 1.524 . S
C6510 H6522 0.956 . S
C6510 H6523 0.961 . S
C6510 H6524 0.961 . S
C6511 C6508 1.539 . S
C6511 H6525 0.958 . S
C6511 H6526 0.961 . S
C6511 H6527 0.960 . S
H6512 C6496 0.931 . S
H6513 C6501 0.929 . S
H6514 C6502 0.960 . S
H6515 C6502 0.962 . S
H6516 C6502 0.960 . S
H6517 C6503 0.961 . S
H6518 C6503 0.961 . S
H6519 C6503 0.961 . S
H6520 C6504 0.931 . S
H6521 C6509 0.930 . S
H6522 C6510 0.956 . S
H6523 C6510 0.961 . S
H6524 C6510 0.961 . S
H6525 C6511 0.958 . S
H6526 C6511 0.961 . S
H6527 C6511 0.960 . S
C6528 C6529 1.391 . S
C6528 C6530 1.394 . S
C6528 H6544 0.931 . S
C6529 C6528 1.391 . S
C6529 C6533 1.376 . S
C6530 C6528 1.394 . S
C6530 C6531 1.369 . S
C6530 C6534 1.531 . S
C6531 C6530 1.369 . S
C6531 C6532 1.410 . S
C6531 C6539 1.503 . S
C6532 C6531 1.410 . S
C6532 C6533 1.392 . S
C6532 C6535 1.511 . S
C6533 C6529 1.376 . S
C6533 C6532 1.392 . S
C6533 H6545 0.929 . S
C6534 C6530 1.531 . S
C6534 H6546 0.960 . S
C6534 H6547 0.962 . S
C6534 H6548 0.960 . S
C6535 C6532 1.511 . S
C6535 H6549 0.961 . S
C6535 H6550 0.961 . S
C6535 H6551 0.961 . S
C6536 C6537 1.370 . S
C6536 C6538 1.363 . S
C6536 H6552 0.931 . S
C6537 C6536 1.370 . S
C6537 C6541 1.408 . S
C6538 C6536 1.363 . S
C6538 C6539 1.370 . S
C6538 C6542 1.524 . S
C6539 C6531 1.503 . S
C6539 C6538 1.370 . S
C6539 C6540 1.403 . S
C6540 C6539 1.403 . S
C6540 C6541 1.404 . S
C6540 C6543 1.539 . S
C6541 C6537 1.408 . S
C6541 C6540 1.404 . S
C6541 H6553 0.930 . S
C6542 C6538 1.524 . S
C6542 H6554 0.956 . S
C6542 H6555 0.961 . S
C6542 H6556 0.961 . S
C6543 C6540 1.539 . S
C6543 H6557 0.958 . S
C6543 H6558 0.961 . S
C6543 H6559 0.960 . S
H6544 C6528 0.931 . S
H6545 C6533 0.929 . S
H6546 C6534 0.960 . S
H6547 C6534 0.962 . S
H6548 C6534 0.960 . S
H6549 C6535 0.961 . S
H6550 C6535 0.961 . S
H6551 C6535 0.961 . S
H6552 C6536 0.931 . S
H6553 C6541 0.930 . S
H6554 C6542 0.956 . S
H6555 C6542 0.961 . S
H6556 C6542 0.961 . S
H6557 C6543 0.958 . S
H6558 C6543 0.961 . S
H6559 C6543 0.960 . S
C6560 C6561 1.391 . S
C6560 C6562 1.394 . S
C6560 H6576 0.931 . S
C6561 C6560 1.391 . S
C6561 C6565 1.376 . S
C6562 C6560 1.394 . S
C6562 C6563 1.369 . S
C6562 C6566 1.531 . S
C6563 C6562 1.369 . S
C6563 C6564 1.410 . S
C6563 C6571 1.503 . S
C6564 C6563 1.410 . S
C6564 C6565 1.392 . S
C6564 C6567 1.511 . S
C6565 C6561 1.376 . S
C6565 C6564 1.392 . S
C6565 H6577 0.929 . S
C6566 C6562 1.531 . S
C6566 H6578 0.960 . S
C6566 H6579 0.962 . S
C6566 H6580 0.960 . S
C6567 C6564 1.511 . S
C6567 H6581 0.961 . S
C6567 H6582 0.961 . S
C6567 H6583 0.961 . S
C6568 C6569 1.370 . S
C6568 C6570 1.293 1_556 S
C6568 H6584 0.931 . S
C6569 C6568 1.370 . S
C6569 C6573 1.438 . S
C6570 C6568 1.293 1_554 S
C6570 C6571 1.438 . S
C6570 C6574 1.523 . S
C6571 C6563 1.503 . S
C6571 C6570 1.438 . S
C6571 C6572 1.403 . S
C6572 C6571 1.403 . S
C6572 C6573 1.372 1_554 S
C6572 C6575 1.539 . S
C6573 C6569 1.438 . S
C6573 C6572 1.372 1_556 S
C6573 H6585 0.928 . S
C6574 C6570 1.523 . S
C6574 H6586 1.022 . S
C6574 H6587 1.032 . S
C6574 H6588 0.841 1_554 S
C6575 C6572 1.539 . S
C6575 H6589 0.958 . S
C6575 H6590 0.961 . S
C6575 H6591 0.960 . S
H6576 C6560 0.931 . S
H6577 C6565 0.929 . S
H6578 C6566 0.960 . S
H6579 C6566 0.962 . S
H6580 C6566 0.960 . S
H6581 C6567 0.961 . S
H6582 C6567 0.961 . S
H6583 C6567 0.961 . S
H6584 C6568 0.931 . S
H6585 C6573 0.928 . S
H6586 C6574 1.022 . S
H6587 C6574 1.032 . S
H6588 C6574 0.841 1_556 S
H6589 C6575 0.958 . S
H6590 C6575 0.961 . S
H6591 C6575 0.960 . S
C6592 C6593 1.391 . S
C6592 C6594 1.394 . S
C6592 H6608 0.931 . S
C6593 C6592 1.391 . S
C6593 C6597 1.376 . S
C6594 C6592 1.394 . S
C6594 C6595 1.369 . S
C6594 C6598 1.531 . S
C6595 C6594 1.369 . S
C6595 C6596 1.410 . S
C6595 C6603 1.503 . S
C6596 C6595 1.410 . S
C6596 C6597 1.392 . S
C6596 C6599 1.511 . S
C6597 C6593 1.376 . S
C6597 C6596 1.392 . S
C6597 H6609 0.929 . S
C6598 C6594 1.531 . S
C6598 H6610 0.960 . S
C6598 H6611 0.962 . S
C6598 H6612 0.960 . S
C6599 C6596 1.511 . S
C6599 H6613 0.961 . S
C6599 H6614 0.961 . S
C6599 H6615 0.961 . S
C6600 C6601 1.370 . S
C6600 C6602 1.363 . S
C6600 H6616 0.931 . S
C6601 C6600 1.370 . S
C6601 C6605 1.408 . S
C6602 C6600 1.363 . S
C6602 C6603 1.370 . S
C6602 C6606 1.524 . S
C6603 C6595 1.503 . S
C6603 C6602 1.370 . S
C6603 C6604 1.403 . S
C6604 C6603 1.403 . S
C6604 C6605 1.404 . S
C6604 C6607 1.539 . S
C6605 C6601 1.408 . S
C6605 C6604 1.404 . S
C6605 H6617 0.930 . S
C6606 C6602 1.524 . S
C6606 H6618 0.956 . S
C6606 H6619 0.961 . S
C6606 H6620 0.961 . S
C6607 C6604 1.539 . S
C6607 H6621 0.958 . S
C6607 H6622 0.961 . S
C6607 H6623 0.960 . S
H6608 C6592 0.931 . S
H6609 C6597 0.929 . S
H6610 C6598 0.960 . S
H6611 C6598 0.962 . S
H6612 C6598 0.960 . S
H6613 C6599 0.961 . S
H6614 C6599 0.961 . S
H6615 C6599 0.961 . S
H6616 C6600 0.931 . S
H6617 C6605 0.930 . S
H6618 C6606 0.956 . S
H6619 C6606 0.961 . S
H6620 C6606 0.961 . S
H6621 C6607 0.958 . S
H6622 C6607 0.961 . S
H6623 C6607 0.960 . S
C6624 C6625 1.391 . S
C6624 C6626 1.394 . S
C6624 H6640 0.931 . S
C6625 C6624 1.391 . S
C6625 C6629 1.376 . S
C6626 C6624 1.394 . S
C6626 C6627 1.369 . S
C6626 C6630 1.531 . S
C6627 C6626 1.369 . S
C6627 C6628 1.410 . S
C6627 C6635 1.503 . S
C6628 C6627 1.410 . S
C6628 C6629 1.392 . S
C6628 C6631 1.511 . S
C6629 C6625 1.376 . S
C6629 C6628 1.392 . S
C6629 H6641 0.929 . S
C6630 C6626 1.531 . S
C6630 H6642 0.960 . S
C6630 H6643 0.962 . S
C6630 H6644 0.960 . S
C6631 C6628 1.511 . S
C6631 H6645 0.961 . S
C6631 H6646 0.961 . S
C6631 H6647 0.961 . S
C6632 C6633 1.370 . S
C6632 C6634 1.363 . S
C6632 H6648 0.931 . S
C6633 C6632 1.370 . S
C6633 C6637 1.408 . S
C6634 C6632 1.363 . S
C6634 C6635 1.370 . S
C6634 C6638 1.524 . S
C6635 C6627 1.503 . S
C6635 C6634 1.370 . S
C6635 C6636 1.403 . S
C6636 C6635 1.403 . S
C6636 C6637 1.404 . S
C6636 C6639 1.539 . S
C6637 C6633 1.408 . S
C6637 C6636 1.404 . S
C6637 H6649 0.930 . S
C6638 C6634 1.524 . S
C6638 H6650 0.956 . S
C6638 H6651 0.961 . S
C6638 H6652 0.961 . S
C6639 C6636 1.539 . S
C6639 H6653 0.958 . S
C6639 H6654 0.961 . S
C6639 H6655 0.960 . S
H6640 C6624 0.931 . S
H6641 C6629 0.929 . S
H6642 C6630 0.960 . S
H6643 C6630 0.962 . S
H6644 C6630 0.960 . S
H6645 C6631 0.961 . S
H6646 C6631 0.961 . S
H6647 C6631 0.961 . S
H6648 C6632 0.931 . S
H6649 C6637 0.930 . S
H6650 C6638 0.956 . S
H6651 C6638 0.961 . S
H6652 C6638 0.961 . S
H6653 C6639 0.958 . S
H6654 C6639 0.961 . S
H6655 C6639 0.960 . S
C6656 C6657 1.391 . S
C6656 C6658 1.394 . S
C6656 H6672 0.931 . S
C6657 C6656 1.391 . S
C6657 C6661 1.376 . S
C6658 C6656 1.394 . S
C6658 C6659 1.369 . S
C6658 C6662 1.531 . S
C6659 C6658 1.369 . S
C6659 C6660 1.410 . S
C6659 C6667 1.503 . S
C6660 C6659 1.410 . S
C6660 C6661 1.392 . S
C6660 C6663 1.511 . S
C6661 C6657 1.376 . S
C6661 C6660 1.392 . S
C6661 H6673 0.929 . S
C6662 C6658 1.531 . S
C6662 H6674 0.960 . S
C6662 H6675 0.962 . S
C6662 H6676 0.960 . S
C6663 C6660 1.511 . S
C6663 H6677 0.961 . S
C6663 H6678 0.961 . S
C6663 H6679 0.961 . S
C6664 C6665 1.370 . S
C6664 C6666 1.363 . S
C6664 H6680 0.931 . S
C6665 C6664 1.370 . S
C6665 C6669 1.408 . S
C6666 C6664 1.363 . S
C6666 C6667 1.370 . S
C6666 C6670 1.524 . S
C6667 C6659 1.503 . S
C6667 C6666 1.370 . S
C6667 C6668 1.403 . S
C6668 C6667 1.403 . S
C6668 C6669 1.404 . S
C6668 C6671 1.539 . S
C6669 C6665 1.408 . S
C6669 C6668 1.404 . S
C6669 H6681 0.930 . S
C6670 C6666 1.524 . S
C6670 H6682 0.956 . S
C6670 H6683 0.961 . S
C6670 H6684 0.961 . S
C6671 C6668 1.539 . S
C6671 H6685 0.958 . S
C6671 H6686 0.961 . S
C6671 H6687 0.960 . S
H6672 C6656 0.931 . S
H6673 C6661 0.929 . S
H6674 C6662 0.960 . S
H6675 C6662 0.962 . S
H6676 C6662 0.960 . S
H6677 C6663 0.961 . S
H6678 C6663 0.961 . S
H6679 C6663 0.961 . S
H6680 C6664 0.931 . S
H6681 C6669 0.930 . S
H6682 C6670 0.956 . S
H6683 C6670 0.961 . S
H6684 C6670 0.961 . S
H6685 C6671 0.958 . S
H6686 C6671 0.961 . S
H6687 C6671 0.960 . S
C6688 C6689 1.391 . S
C6688 C6690 1.394 . S
C6688 H6704 0.931 . S
C6689 C6688 1.391 . S
C6689 C6693 1.376 . S
C6690 C6688 1.394 . S
C6690 C6691 1.369 . S
C6690 C6694 1.531 . S
C6691 C6690 1.369 . S
C6691 C6692 1.410 . S
C6691 C6699 1.503 . S
C6692 C6691 1.410 . S
C6692 C6693 1.392 . S
C6692 C6695 1.511 . S
C6693 C6689 1.376 . S
C6693 C6692 1.392 . S
C6693 H6705 0.929 . S
C6694 C6690 1.531 . S
C6694 H6706 0.960 . S
C6694 H6707 0.962 . S
C6694 H6708 0.960 . S
C6695 C6692 1.511 . S
C6695 H6709 0.961 . S
C6695 H6710 0.961 . S
C6695 H6711 0.961 . S
C6696 C6697 1.370 . S
C6696 C6698 1.363 . S
C6696 H6712 0.931 . S
C6697 C6696 1.370 . S
C6697 C6701 1.408 . S
C6698 C6696 1.363 . S
C6698 C6699 1.370 . S
C6698 C6702 1.524 . S
C6699 C6691 1.503 . S
C6699 C6698 1.370 . S
C6699 C6700 1.403 . S
C6700 C6699 1.403 . S
C6700 C6701 1.404 . S
C6700 C6703 1.539 . S
C6701 C6697 1.408 . S
C6701 C6700 1.404 . S
C6701 H6713 0.930 . S
C6702 C6698 1.524 . S
C6702 H6714 0.956 . S
C6702 H6715 0.961 . S
C6702 H6716 0.961 . S
C6703 C6700 1.539 . S
C6703 H6717 0.958 . S
C6703 H6718 0.961 . S
C6703 H6719 0.960 . S
H6704 C6688 0.931 . S
H6705 C6693 0.929 . S
H6706 C6694 0.960 . S
H6707 C6694 0.962 . S
H6708 C6694 0.960 . S
H6709 C6695 0.961 . S
H6710 C6695 0.961 . S
H6711 C6695 0.961 . S
H6712 C6696 0.931 . S
H6713 C6701 0.930 . S
H6714 C6702 0.956 . S
H6715 C6702 0.961 . S
H6716 C6702 0.961 . S
H6717 C6703 0.958 . S
H6718 C6703 0.961 . S
H6719 C6703 0.960 . S
C6720 C6721 1.391 . S
C6720 C6722 1.394 . S
C6720 H6736 0.931 . S
C6721 C6720 1.391 . S
C6721 C6725 1.376 . S
C6722 C6720 1.394 . S
C6722 C6723 1.369 . S
C6722 C6726 1.531 . S
C6723 C6722 1.369 . S
C6723 C6724 1.410 . S
C6723 C6731 1.503 . S
C6724 C6723 1.410 . S
C6724 C6725 1.392 . S
C6724 C6727 1.511 . S
C6725 C6721 1.376 . S
C6725 C6724 1.392 . S
C6725 H6737 0.929 . S
C6726 C6722 1.531 . S
C6726 H6738 0.960 . S
C6726 H6739 0.962 . S
C6726 H6740 0.960 . S
C6727 C6724 1.511 . S
C6727 H6741 0.961 . S
C6727 H6742 0.961 . S
C6727 H6743 0.961 . S
C6728 C6729 1.428 . S
C6728 C6730 1.308 1_545 S
C6728 H6744 0.931 . S
C6729 C6728 1.428 . S
C6729 C6733 1.408 . S
C6730 C6728 1.308 1_565 S
C6730 C6731 1.370 . S
C6730 C6734 1.524 . S
C6731 C6723 1.503 . S
C6731 C6730 1.370 . S
C6731 C6732 1.301 1_565 S
C6732 C6731 1.301 1_545 S
C6732 C6733 1.509 . S
C6732 C6735 1.551 . S
C6733 C6729 1.408 . S
C6733 C6732 1.509 . S
C6733 H6745 0.930 . S
C6734 C6730 1.524 . S
C6734 H6746 0.956 . S
C6734 H6747 0.961 . S
C6734 H6748 0.961 . S
C6735 C6732 1.551 . S
C6735 H6749 0.962 . S
C6735 H6750 0.961 . S
C6735 H6751 0.960 1_545 S
H6736 C6720 0.931 . S
H6737 C6725 0.929 . S
H6738 C6726 0.960 . S
H6739 C6726 0.962 . S
H6740 C6726 0.960 . S
H6741 C6727 0.961 . S
H6742 C6727 0.961 . S
H6743 C6727 0.961 . S
H6744 C6728 0.931 . S
H6745 C6733 0.930 . S
H6746 C6734 0.956 . S
H6747 C6734 0.961 . S
H6748 C6734 0.961 . S
H6749 C6735 0.962 . S
H6750 C6735 0.961 . S
H6751 C6735 0.960 1_565 S
C6752 C6753 1.391 . S
C6752 C6754 1.394 . S
C6752 H6768 0.931 . S
C6753 C6752 1.391 . S
C6753 C6757 1.376 . S
C6754 C6752 1.394 . S
C6754 C6755 1.369 . S
C6754 C6758 1.531 . S
C6755 C6754 1.369 . S
C6755 C6756 1.410 . S
C6755 C6763 1.503 . S
C6756 C6755 1.410 . S
C6756 C6757 1.392 . S
C6756 C6759 1.511 . S
C6757 C6753 1.376 . S
C6757 C6756 1.392 . S
C6757 H6769 0.929 . S
C6758 C6754 1.531 . S
C6758 H6770 0.960 . S
C6758 H6771 0.962 . S
C6758 H6772 0.960 . S
C6759 C6756 1.511 . S
C6759 H6773 0.961 . S
C6759 H6774 0.961 . S
C6759 H6775 0.961 . S
C6760 C6761 1.370 . S
C6760 C6762 1.363 . S
C6760 H6776 0.931 . S
C6761 C6760 1.370 . S
C6761 C6765 1.408 . S
C6762 C6760 1.363 . S
C6762 C6763 1.370 . S
C6762 C6766 1.524 . S
C6763 C6755 1.503 . S
C6763 C6762 1.370 . S
C6763 C6764 1.403 . S
C6764 C6763 1.403 . S
C6764 C6765 1.404 . S
C6764 C6767 1.539 . S
C6765 C6761 1.408 . S
C6765 C6764 1.404 . S
C6765 H6777 0.930 . S
C6766 C6762 1.524 . S
C6766 H6778 0.956 . S
C6766 H6779 0.961 . S
C6766 H6780 0.961 . S
C6767 C6764 1.539 . S
C6767 H6781 0.958 . S
C6767 H6782 0.961 . S
C6767 H6783 0.960 . S
H6768 C6752 0.931 . S
H6769 C6757 0.929 . S
H6770 C6758 0.960 . S
H6771 C6758 0.962 . S
H6772 C6758 0.960 . S
H6773 C6759 0.961 . S
H6774 C6759 0.961 . S
H6775 C6759 0.961 . S
H6776 C6760 0.931 . S
H6777 C6765 0.930 . S
H6778 C6766 0.956 . S
H6779 C6766 0.961 . S
H6780 C6766 0.961 . S
H6781 C6767 0.958 . S
H6782 C6767 0.961 . S
H6783 C6767 0.960 . S
C6784 C6785 1.391 . S
C6784 C6786 1.394 . S
C6784 H6800 0.931 . S
C6785 C6784 1.391 . S
C6785 C6789 1.376 . S
C6786 C6784 1.394 . S
C6786 C6787 1.369 . S
C6786 C6790 1.531 . S
C6787 C6786 1.369 . S
C6787 C6788 1.410 . S
C6787 C6795 1.503 . S
C6788 C6787 1.410 . S
C6788 C6789 1.392 . S
C6788 C6791 1.511 . S
C6789 C6785 1.376 . S
C6789 C6788 1.392 . S
C6789 H6801 0.929 . S
C6790 C6786 1.531 . S
C6790 H6802 0.960 . S
C6790 H6803 0.962 . S
C6790 H6804 0.960 . S
C6791 C6788 1.511 . S
C6791 H6805 0.961 . S
C6791 H6806 0.961 . S
C6791 H6807 0.961 . S
C6792 C6793 1.370 . S
C6792 C6794 1.363 . S
C6792 H6808 0.931 . S
C6793 C6792 1.370 . S
C6793 C6797 1.408 . S
C6794 C6792 1.363 . S
C6794 C6795 1.370 . S
C6794 C6798 1.524 . S
C6795 C6787 1.503 . S
C6795 C6794 1.370 . S
C6795 C6796 1.403 . S
C6796 C6795 1.403 . S
C6796 C6797 1.404 . S
C6796 C6799 1.539 . S
C6797 C6793 1.408 . S
C6797 C6796 1.404 . S
C6797 H6809 0.930 . S
C6798 C6794 1.524 . S
C6798 H6810 0.956 . S
C6798 H6811 0.961 . S
C6798 H6812 0.961 . S
C6799 C6796 1.539 . S
C6799 H6813 0.958 . S
C6799 H6814 0.961 . S
C6799 H6815 0.960 . S
H6800 C6784 0.931 . S
H6801 C6789 0.929 . S
H6802 C6790 0.960 . S
H6803 C6790 0.962 . S
H6804 C6790 0.960 . S
H6805 C6791 0.961 . S
H6806 C6791 0.961 . S
H6807 C6791 0.961 . S
H6808 C6792 0.931 . S
H6809 C6797 0.930 . S
H6810 C6798 0.956 . S
H6811 C6798 0.961 . S
H6812 C6798 0.961 . S
H6813 C6799 0.958 . S
H6814 C6799 0.961 . S
H6815 C6799 0.960 . S
C6816 C6817 1.391 . S
C6816 C6818 1.394 . S
C6816 H6832 0.931 . S
C6817 C6816 1.391 . S
C6817 C6821 1.376 . S
C6818 C6816 1.394 . S
C6818 C6819 1.369 . S
C6818 C6822 1.531 . S
C6819 C6818 1.369 . S
C6819 C6820 1.410 . S
C6819 C6827 1.503 . S
C6820 C6819 1.410 . S
C6820 C6821 1.392 . S
C6820 C6823 1.511 . S
C6821 C6817 1.376 . S
C6821 C6820 1.392 . S
C6821 H6833 0.929 . S
C6822 C6818 1.531 . S
C6822 H6834 0.960 . S
C6822 H6835 0.962 . S
C6822 H6836 0.960 . S
C6823 C6820 1.511 . S
C6823 H6837 0.961 . S
C6823 H6838 0.961 . S
C6823 H6839 0.961 . S
C6824 C6825 1.370 . S
C6824 C6826 1.363 . S
C6824 H6840 0.931 . S
C6825 C6824 1.370 . S
C6825 C6829 1.408 . S
C6826 C6824 1.363 . S
C6826 C6827 1.370 . S
C6826 C6830 1.524 . S
C6827 C6819 1.503 . S
C6827 C6826 1.370 . S
C6827 C6828 1.403 . S
C6828 C6827 1.403 . S
C6828 C6829 1.404 . S
C6828 C6831 1.539 . S
C6829 C6825 1.408 . S
C6829 C6828 1.404 . S
C6829 H6841 0.930 . S
C6830 C6826 1.524 . S
C6830 H6842 0.956 . S
C6830 H6843 0.961 . S
C6830 H6844 0.961 . S
C6831 C6828 1.539 . S
C6831 H6845 0.958 . S
C6831 H6846 0.961 . S
C6831 H6847 0.960 . S
H6832 C6816 0.931 . S
H6833 C6821 0.929 . S
H6834 C6822 0.960 . S
H6835 C6822 0.962 . S
H6836 C6822 0.960 . S
H6837 C6823 0.961 . S
H6838 C6823 0.961 . S
H6839 C6823 0.961 . S
H6840 C6824 0.931 . S
H6841 C6829 0.930 . S
H6842 C6830 0.956 . S
H6843 C6830 0.961 . S
H6844 C6830 0.961 . S
H6845 C6831 0.958 . S
H6846 C6831 0.961 . S
H6847 C6831 0.960 . S
C6848 C6849 1.391 . S
C6848 C6850 1.394 1_565 S
C6848 H6864 0.931 . S
C6849 C6848 1.391 . S
C6849 C6853 1.376 . S
C6850 C6848 1.394 1_545 S
C6850 C6851 1.369 . S
C6850 C6854 1.531 . S
C6851 C6850 1.369 . S
C6851 C6852 1.410 . S
C6851 C6859 1.503 . S
C6852 C6851 1.410 . S
C6852 C6853 1.392 1_545 S
C6852 C6855 1.511 . S
C6853 C6849 1.376 . S
C6853 C6852 1.392 1_565 S
C6853 H6865 0.929 . S
C6854 C6850 1.531 . S
C6854 H6866 0.960 . S
C6854 H6867 0.962 . S
C6854 H6868 0.960 . S
C6855 C6852 1.511 . S
C6855 H6869 0.961 . S
C6855 H6870 0.961 . S
C6855 H6871 0.961 . S
C6856 C6857 1.370 . S
C6856 C6858 1.363 . S
C6856 H6872 0.931 . S
C6857 C6856 1.370 . S
C6857 C6861 1.408 . S
C6858 C6856 1.363 . S
C6858 C6859 1.370 . S
C6858 C6862 1.524 . S
C6859 C6851 1.503 . S
C6859 C6858 1.370 . S
C6859 C6860 1.403 . S
C6860 C6859 1.403 . S
C6860 C6861 1.404 . S
C6860 C6863 1.539 . S
C6861 C6857 1.408 . S
C6861 C6860 1.404 . S
C6861 H6873 0.930 . S
C6862 C6858 1.524 . S
C6862 H6874 0.956 . S
C6862 H6875 0.961 . S
C6862 H6876 0.961 . S
C6863 C6860 1.539 . S
C6863 H6877 0.958 . S
C6863 H6878 0.961 . S
C6863 H6879 0.960 . S
H6864 C6848 0.931 . S
H6865 C6853 0.929 . S
H6866 C6854 0.960 . S
H6867 C6854 0.962 . S
H6868 C6854 0.960 . S
H6869 C6855 0.961 . S
H6870 C6855 0.961 . S
H6871 C6855 0.961 . S
H6872 C6856 0.931 . S
H6873 C6861 0.930 . S
H6874 C6862 0.956 . S
H6875 C6862 0.961 . S
H6876 C6862 0.961 . S
H6877 C6863 0.958 . S
H6878 C6863 0.961 . S
H6879 C6863 0.960 . S
C6880 C6881 1.480 . S
C6880 C6882 1.297 1_545 S
C6880 H6896 0.949 . S
C6881 C6880 1.480 . S
C6881 C6885 1.376 . S
C6882 C6880 1.297 1_565 S
C6882 C6883 1.369 . S
C6882 C6886 1.531 . S
C6883 C6882 1.369 . S
C6883 C6884 1.410 . S
C6883 C6891 1.503 . S
C6884 C6883 1.410 . S
C6884 C6885 1.392 1_565 S
C6884 C6887 1.511 . S
C6885 C6881 1.376 . S
C6885 C6884 1.392 1_545 S
C6885 H6897 0.929 . S
C6886 C6882 1.531 . S
C6886 H6898 0.960 . S
C6886 H6899 0.962 . S
C6886 H6900 0.960 . S
C6887 C6884 1.511 . S
C6887 H6901 0.961 1_565 S
C6887 H6902 0.961 . S
C6887 H6903 0.961 . S
C6888 C6889 1.370 . S
C6888 C6890 1.363 . S
C6888 H6904 0.931 . S
C6889 C6888 1.370 . S
C6889 C6893 1.408 . S
C6890 C6888 1.363 . S
C6890 C6891 1.370 . S
C6890 C6894 1.524 . S
C6891 C6883 1.503 . S
C6891 C6890 1.370 . S
C6891 C6892 1.403 . S
C6892 C6891 1.403 . S
C6892 C6893 1.404 . S
C6892 C6895 1.539 . S
C6893 C6889 1.408 . S
C6893 C6892 1.404 . S
C6893 H6905 0.930 . S
C6894 C6890 1.524 . S
C6894 H6906 0.956 . S
C6894 H6907 0.961 . S
C6894 H6908 0.961 . S
C6895 C6892 1.539 . S
C6895 H6909 0.958 . S
C6895 H6910 0.961 . S
C6895 H6911 0.960 . S
H6896 C6880 0.949 . S
H6897 C6885 0.929 . S
H6898 C6886 0.960 . S
H6899 C6886 0.962 . S
H6900 C6886 0.960 . S
H6901 C6887 0.961 1_545 S
H6902 C6887 0.961 . S
H6903 C6887 0.961 . S
H6904 C6888 0.931 . S
H6905 C6893 0.930 . S
H6906 C6894 0.956 . S
H6907 C6894 0.961 . S
H6908 C6894 0.961 . S
H6909 C6895 0.958 . S
H6910 C6895 0.961 . S
H6911 C6895 0.960 . S
C6912 C6913 1.391 . S
C6912 C6914 1.394 . S
C6912 H6928 0.931 . S
C6913 C6912 1.391 . S
C6913 C6917 1.376 . S
C6914 C6912 1.394 . S
C6914 C6915 1.369 . S
C6914 C6918 1.531 . S
C6915 C6914 1.369 . S
C6915 C6916 1.410 . S
C6915 C6923 1.503 . S
C6916 C6915 1.410 . S
C6916 C6917 1.392 . S
C6916 C6919 1.511 . S
C6917 C6913 1.376 . S
C6917 C6916 1.392 . S
C6917 H6929 0.929 . S
C6918 C6914 1.531 . S
C6918 H6930 0.960 . S
C6918 H6931 0.962 . S
C6918 H6932 0.960 . S
C6919 C6916 1.511 . S
C6919 H6933 0.961 . S
C6919 H6934 0.961 . S
C6919 H6935 0.961 . S
C6920 C6921 1.370 . S
C6920 C6922 1.363 . S
C6920 H6936 0.931 . S
C6921 C6920 1.370 . S
C6921 C6925 1.408 . S
C6922 C6920 1.363 . S
C6922 C6923 1.370 . S
C6922 C6926 1.524 . S
C6923 C6915 1.503 . S
C6923 C6922 1.370 . S
C6923 C6924 1.403 . S
C6924 C6923 1.403 . S
C6924 C6925 1.404 . S
C6924 C6927 1.539 . S
C6925 C6921 1.408 . S
C6925 C6924 1.404 . S
C6925 H6937 0.930 . S
C6926 C6922 1.524 . S
C6926 H6938 0.956 . S
C6926 H6939 0.961 . S
C6926 H6940 0.961 . S
C6927 C6924 1.539 . S
C6927 H6941 0.958 . S
C6927 H6942 0.961 . S
C6927 H6943 0.960 . S
H6928 C6912 0.931 . S
H6929 C6917 0.929 . S
H6930 C6918 0.960 . S
H6931 C6918 0.962 . S
H6932 C6918 0.960 . S
H6933 C6919 0.961 . S
H6934 C6919 0.961 . S
H6935 C6919 0.961 . S
H6936 C6920 0.931 . S
H6937 C6925 0.930 . S
H6938 C6926 0.956 . S
H6939 C6926 0.961 . S
H6940 C6926 0.961 . S
H6941 C6927 0.958 . S
H6942 C6927 0.961 . S
H6943 C6927 0.960 . S
C6944 C6945 1.391 . S
C6944 C6946 1.394 . S
C6944 H6960 0.931 . S
C6945 C6944 1.391 . S
C6945 C6949 1.376 . S
C6946 C6944 1.394 . S
C6946 C6947 1.369 . S
C6946 C6950 1.531 . S
C6947 C6946 1.369 . S
C6947 C6948 1.410 . S
C6947 C6955 1.503 . S
C6948 C6947 1.410 . S
C6948 C6949 1.392 . S
C6948 C6951 1.511 . S
C6949 C6945 1.376 . S
C6949 C6948 1.392 . S
C6949 H6961 0.929 . S
C6950 C6946 1.531 . S
C6950 H6962 0.960 . S
C6950 H6963 0.962 . S
C6950 H6964 0.960 . S
C6951 C6948 1.511 . S
C6951 H6965 0.961 . S
C6951 H6966 0.961 . S
C6951 H6967 0.961 . S
C6952 C6953 1.370 . S
C6952 C6954 1.363 . S
C6952 H6968 0.931 . S
C6953 C6952 1.370 . S
C6953 C6957 1.408 . S
C6954 C6952 1.363 . S
C6954 C6955 1.370 . S
C6954 C6958 1.524 . S
C6955 C6947 1.503 . S
C6955 C6954 1.370 . S
C6955 C6956 1.403 . S
C6956 C6955 1.403 . S
C6956 C6957 1.404 . S
C6956 C6959 1.539 . S
C6957 C6953 1.408 . S
C6957 C6956 1.404 . S
C6957 H6969 0.930 . S
C6958 C6954 1.524 . S
C6958 H6970 0.956 . S
C6958 H6971 0.961 . S
C6958 H6972 0.961 . S
C6959 C6956 1.539 . S
C6959 H6973 0.958 . S
C6959 H6974 0.961 . S
C6959 H6975 0.960 . S
H6960 C6944 0.931 . S
H6961 C6949 0.929 . S
H6962 C6950 0.960 . S
H6963 C6950 0.962 . S
H6964 C6950 0.960 . S
H6965 C6951 0.961 . S
H6966 C6951 0.961 . S
H6967 C6951 0.961 . S
H6968 C6952 0.931 . S
H6969 C6957 0.930 . S
H6970 C6958 0.956 . S
H6971 C6958 0.961 . S
H6972 C6958 0.961 . S
H6973 C6959 0.958 . S
H6974 C6959 0.961 . S
H6975 C6959 0.960 . S
C6976 C6977 1.391 . S
C6976 C6978 1.394 . S
C6976 H6992 0.931 . S
C6977 C6976 1.391 . S
C6977 C6981 1.376 . S
C6978 C6976 1.394 . S
C6978 C6979 1.369 . S
C6978 C6982 1.531 . S
C6979 C6978 1.369 . S
C6979 C6980 1.410 . S
C6979 C6987 1.503 . S
C6980 C6979 1.410 . S
C6980 C6981 1.392 . S
C6980 C6983 1.511 . S
C6981 C6977 1.376 . S
C6981 C6980 1.392 . S
C6981 H6993 0.929 . S
C6982 C6978 1.531 . S
C6982 H6994 0.960 . S
C6982 H6995 0.962 . S
C6982 H6996 0.960 . S
C6983 C6980 1.511 . S
C6983 H6997 0.961 . S
C6983 H6998 0.961 . S
C6983 H6999 0.961 . S
C6984 C6985 1.370 . S
C6984 C6986 1.363 . S
C6984 H7000 0.931 . S
C6985 C6984 1.370 . S
C6985 C6989 1.408 . S
C6986 C6984 1.363 . S
C6986 C6987 1.370 . S
C6986 C6990 1.524 . S
C6987 C6979 1.503 . S
C6987 C6986 1.370 . S
C6987 C6988 1.403 . S
C6988 C6987 1.403 . S
C6988 C6989 1.404 . S
C6988 C6991 1.539 . S
C6989 C6985 1.408 . S
C6989 C6988 1.404 . S
C6989 H7001 0.930 . S
C6990 C6986 1.524 . S
C6990 H7002 0.956 . S
C6990 H7003 0.961 . S
C6990 H7004 0.961 . S
C6991 C6988 1.539 . S
C6991 H7005 0.958 . S
C6991 H7006 0.961 . S
C6991 H7007 0.960 . S
H6992 C6976 0.931 . S
H6993 C6981 0.929 . S
H6994 C6982 0.960 . S
H6995 C6982 0.962 . S
H6996 C6982 0.960 . S
H6997 C6983 0.961 . S
H6998 C6983 0.961 . S
H6999 C6983 0.961 . S
H7000 C6984 0.931 . S
H7001 C6989 0.930 . S
H7002 C6990 0.956 . S
H7003 C6990 0.961 . S
H7004 C6990 0.961 . S
H7005 C6991 0.958 . S
H7006 C6991 0.961 . S
H7007 C6991 0.960 . S
C7008 C7009 1.391 . S
C7008 C7010 1.394 . S
C7008 H7024 0.931 . S
C7009 C7008 1.391 . S
C7009 C7013 1.376 . S
C7010 C7008 1.394 . S
C7010 C7011 1.369 . S
C7010 C7014 1.531 . S
C7011 C7010 1.369 . S
C7011 C7012 1.410 . S
C7011 C7019 1.503 . S
C7012 C7011 1.410 . S
C7012 C7013 1.392 . S
C7012 C7015 1.511 . S
C7013 C7009 1.376 . S
C7013 C7012 1.392 . S
C7013 H7025 0.929 . S
C7014 C7010 1.531 . S
C7014 H7026 0.960 . S
C7014 H7027 0.962 . S
C7014 H7028 0.960 . S
C7015 C7012 1.511 . S
C7015 H7029 0.961 . S
C7015 H7030 0.961 . S
C7015 H7031 0.961 . S
C7016 C7017 1.370 . S
C7016 C7018 1.363 . S
C7016 H7032 0.931 . S
C7017 C7016 1.370 . S
C7017 C7021 1.408 . S
C7018 C7016 1.363 . S
C7018 C7019 1.370 . S
C7018 C7022 1.524 . S
C7019 C7011 1.503 . S
C7019 C7018 1.370 . S
C7019 C7020 1.403 . S
C7020 C7019 1.403 . S
C7020 C7021 1.404 . S
C7020 C7023 1.539 . S
C7021 C7017 1.408 . S
C7021 C7020 1.404 . S
C7021 H7033 0.930 . S
C7022 C7018 1.524 . S
C7022 H7034 0.956 . S
C7022 H7035 0.961 . S
C7022 H7036 0.961 . S
C7023 C7020 1.539 . S
C7023 H7037 0.958 . S
C7023 H7038 0.961 . S
C7023 H7039 0.960 . S
H7024 C7008 0.931 . S
H7025 C7013 0.929 . S
H7026 C7014 0.960 . S
H7027 C7014 0.962 . S
H7028 C7014 0.960 . S
H7029 C7015 0.961 . S
H7030 C7015 0.961 . S
H7031 C7015 0.961 . S
H7032 C7016 0.931 . S
H7033 C7021 0.930 . S
H7034 C7022 0.956 . S
H7035 C7022 0.961 . S
H7036 C7022 0.961 . S
H7037 C7023 0.958 . S
H7038 C7023 0.961 . S
H7039 C7023 0.960 . S
C7040 C7041 1.391 . S
C7040 C7042 1.394 . S
C7040 H7056 0.931 . S
C7041 C7040 1.391 . S
C7041 C7045 1.376 . S
C7042 C7040 1.394 . S
C7042 C7043 1.369 . S
C7042 C7046 1.531 . S
C7043 C7042 1.369 . S
C7043 C7044 1.410 . S
C7043 C7051 1.503 . S
C7044 C7043 1.410 . S
C7044 C7045 1.392 . S
C7044 C7047 1.511 . S
C7045 C7041 1.376 . S
C7045 C7044 1.392 . S
C7045 H7057 0.929 . S
C7046 C7042 1.531 . S
C7046 H7058 0.960 . S
C7046 H7059 0.962 . S
C7046 H7060 0.960 . S
C7047 C7044 1.511 . S
C7047 H7061 0.961 . S
C7047 H7062 0.961 . S
C7047 H7063 0.961 . S
C7048 C7049 1.370 . S
C7048 C7050 1.363 . S
C7048 H7064 0.931 . S
C7049 C7048 1.370 . S
C7049 C7053 1.408 . S
C7050 C7048 1.363 . S
C7050 C7051 1.370 . S
C7050 C7054 1.524 . S
C7051 C7043 1.503 . S
C7051 C7050 1.370 . S
C7051 C7052 1.403 . S
C7052 C7051 1.403 . S
C7052 C7053 1.404 . S
C7052 C7055 1.539 . S
C7053 C7049 1.408 . S
C7053 C7052 1.404 . S
C7053 H7065 0.930 . S
C7054 C7050 1.524 . S
C7054 H7066 0.956 . S
C7054 H7067 0.961 . S
C7054 H7068 0.961 . S
C7055 C7052 1.539 . S
C7055 H7069 0.958 . S
C7055 H7070 0.961 . S
C7055 H7071 0.960 . S
H7056 C7040 0.931 . S
H7057 C7045 0.929 . S
H7058 C7046 0.960 . S
H7059 C7046 0.962 . S
H7060 C7046 0.960 . S
H7061 C7047 0.961 . S
H7062 C7047 0.961 . S
H7063 C7047 0.961 . S
H7064 C7048 0.931 . S
H7065 C7053 0.930 . S
H7066 C7054 0.956 . S
H7067 C7054 0.961 . S
H7068 C7054 0.961 . S
H7069 C7055 0.958 . S
H7070 C7055 0.961 . S
H7071 C7055 0.960 . S
C7072 C7073 1.391 . S
C7072 C7074 1.394 . S
C7072 H7088 0.931 . S
C7073 C7072 1.391 . S
C7073 C7077 1.376 . S
C7074 C7072 1.394 . S
C7074 C7075 1.369 . S
C7074 C7078 1.531 . S
C7075 C7074 1.369 . S
C7075 C7076 1.410 . S
C7075 C7083 1.503 . S
C7076 C7075 1.410 . S
C7076 C7077 1.392 . S
C7076 C7079 1.511 . S
C7077 C7073 1.376 . S
C7077 C7076 1.392 . S
C7077 H7089 0.929 . S
C7078 C7074 1.531 . S
C7078 H7090 0.960 . S
C7078 H7091 0.962 . S
C7078 H7092 0.960 . S
C7079 C7076 1.511 . S
C7079 H7093 0.961 . S
C7079 H7094 0.961 . S
C7079 H7095 0.961 . S
C7080 C7081 1.370 . S
C7080 C7082 1.363 . S
C7080 H7096 0.931 . S
C7081 C7080 1.370 . S
C7081 C7085 1.408 . S
C7082 C7080 1.363 . S
C7082 C7083 1.370 . S
C7082 C7086 1.524 . S
C7083 C7075 1.503 . S
C7083 C7082 1.370 . S
C7083 C7084 1.403 . S
C7084 C7083 1.403 . S
C7084 C7085 1.404 . S
C7084 C7087 1.539 . S
C7085 C7081 1.408 . S
C7085 C7084 1.404 . S
C7085 H7097 0.930 . S
C7086 C7082 1.524 . S
C7086 H7098 0.956 . S
C7086 H7099 0.961 . S
C7086 H7100 0.961 . S
C7087 C7084 1.539 . S
C7087 H7101 0.958 . S
C7087 H7102 0.961 . S
C7087 H7103 0.960 . S
H7088 C7072 0.931 . S
H7089 C7077 0.929 . S
H7090 C7078 0.960 . S
H7091 C7078 0.962 . S
H7092 C7078 0.960 . S
H7093 C7079 0.961 . S
H7094 C7079 0.961 . S
H7095 C7079 0.961 . S
H7096 C7080 0.931 . S
H7097 C7085 0.930 . S
H7098 C7086 0.956 . S
H7099 C7086 0.961 . S
H7100 C7086 0.961 . S
H7101 C7087 0.958 . S
H7102 C7087 0.961 . S
H7103 C7087 0.960 . S
C7104 C7105 1.391 . S
C7104 C7106 1.394 . S
C7104 H7120 0.931 . S
C7105 C7104 1.391 . S
C7105 C7109 1.376 . S
C7106 C7104 1.394 . S
C7106 C7107 1.369 . S
C7106 C7110 1.531 . S
C7107 C7106 1.369 . S
C7107 C7108 1.410 . S
C7107 C7115 1.503 . S
C7108 C7107 1.410 . S
C7108 C7109 1.392 . S
C7108 C7111 1.511 . S
C7109 C7105 1.376 . S
C7109 C7108 1.392 . S
C7109 H7121 0.929 . S
C7110 C7106 1.531 . S
C7110 H7122 0.960 . S
C7110 H7123 0.962 . S
C7110 H7124 0.960 . S
C7111 C7108 1.511 . S
C7111 H7125 0.961 . S
C7111 H7126 0.961 . S
C7111 H7127 0.961 . S
C7112 C7113 1.370 . S
C7112 C7114 1.363 . S
C7112 H7128 0.931 . S
C7113 C7112 1.370 . S
C7113 C7117 1.408 . S
C7114 C7112 1.363 . S
C7114 C7115 1.370 . S
C7114 C7118 1.524 . S
C7115 C7107 1.503 . S
C7115 C7114 1.370 . S
C7115 C7116 1.403 . S
C7116 C7115 1.403 . S
C7116 C7117 1.404 . S
C7116 C7119 1.539 . S
C7117 C7113 1.408 . S
C7117 C7116 1.404 . S
C7117 H7129 0.930 . S
C7118 C7114 1.524 . S
C7118 H7130 0.956 . S
C7118 H7131 0.961 . S
C7118 H7132 0.961 . S
C7119 C7116 1.539 . S
C7119 H7133 0.958 . S
C7119 H7134 0.961 . S
C7119 H7135 0.960 . S
H7120 C7104 0.931 . S
H7121 C7109 0.929 . S
H7122 C7110 0.960 . S
H7123 C7110 0.962 . S
H7124 C7110 0.960 . S
H7125 C7111 0.961 . S
H7126 C7111 0.961 . S
H7127 C7111 0.961 . S
H7128 C7112 0.931 . S
H7129 C7117 0.930 . S
H7130 C7118 0.956 . S
H7131 C7118 0.961 . S
H7132 C7118 0.961 . S
H7133 C7119 0.958 . S
H7134 C7119 0.961 . S
H7135 C7119 0.960 . S
C7136 C7137 1.391 . S
C7136 C7138 1.394 . S
C7136 H7152 0.931 . S
C7137 C7136 1.391 . S
C7137 C7141 1.376 . S
C7138 C7136 1.394 . S
C7138 C7139 1.369 . S
C7138 C7142 1.531 . S
C7139 C7138 1.369 . S
C7139 C7140 1.410 . S
C7139 C7147 1.503 . S
C7140 C7139 1.410 . S
C7140 C7141 1.392 . S
C7140 C7143 1.511 . S
C7141 C7137 1.376 . S
C7141 C7140 1.392 . S
C7141 H7153 0.929 . S
C7142 C7138 1.531 . S
C7142 H7154 0.960 . S
C7142 H7155 0.962 . S
C7142 H7156 0.960 . S
C7143 C7140 1.511 . S
C7143 H7157 0.961 . S
C7143 H7158 0.961 . S
C7143 H7159 0.961 . S
C7144 C7145 1.370 . S
C7144 C7146 1.363 . S
C7144 H7160 0.931 . S
C7145 C7144 1.370 . S
C7145 C7149 1.408 . S
C7146 C7144 1.363 . S
C7146 C7147 1.370 . S
C7146 C7150 1.524 . S
C7147 C7139 1.503 . S
C7147 C7146 1.370 . S
C7147 C7148 1.403 . S
C7148 C7147 1.403 . S
C7148 C7149 1.404 . S
C7148 C7151 1.539 . S
C7149 C7145 1.408 . S
C7149 C7148 1.404 . S
C7149 H7161 0.930 . S
C7150 C7146 1.524 . S
C7150 H7162 0.956 . S
C7150 H7163 0.961 . S
C7150 H7164 0.961 . S
C7151 C7148 1.539 . S
C7151 H7165 0.958 . S
C7151 H7166 0.961 . S
C7151 H7167 0.960 . S
H7152 C7136 0.931 . S
H7153 C7141 0.929 . S
H7154 C7142 0.960 . S
H7155 C7142 0.962 . S
H7156 C7142 0.960 . S
H7157 C7143 0.961 . S
H7158 C7143 0.961 . S
H7159 C7143 0.961 . S
H7160 C7144 0.931 . S
H7161 C7149 0.930 . S
H7162 C7150 0.956 . S
H7163 C7150 0.961 . S
H7164 C7150 0.961 . S
H7165 C7151 0.958 . S
H7166 C7151 0.961 . S
H7167 C7151 0.960 . S
C7168 C7169 1.391 . S
C7168 C7170 1.394 . S
C7168 H7184 0.931 . S
C7169 C7168 1.391 . S
C7169 C7173 1.376 . S
C7170 C7168 1.394 . S
C7170 C7171 1.369 . S
C7170 C7174 1.531 . S
C7171 C7170 1.369 . S
C7171 C7172 1.410 . S
C7171 C7179 1.503 . S
C7172 C7171 1.410 . S
C7172 C7173 1.392 . S
C7172 C7175 1.511 . S
C7173 C7169 1.376 . S
C7173 C7172 1.392 . S
C7173 H7185 0.929 . S
C7174 C7170 1.531 . S
C7174 H7186 0.960 . S
C7174 H7187 0.962 . S
C7174 H7188 0.960 . S
C7175 C7172 1.511 . S
C7175 H7189 0.961 . S
C7175 H7190 0.961 . S
C7175 H7191 0.961 . S
C7176 C7177 1.370 . S
C7176 C7178 1.363 . S
C7176 H7192 0.931 . S
C7177 C7176 1.370 . S
C7177 C7181 1.408 . S
C7178 C7176 1.363 . S
C7178 C7179 1.370 . S
C7178 C7182 1.524 . S
C7179 C7171 1.503 . S
C7179 C7178 1.370 . S
C7179 C7180 1.403 . S
C7180 C7179 1.403 . S
C7180 C7181 1.404 . S
C7180 C7183 1.539 . S
C7181 C7177 1.408 . S
C7181 C7180 1.404 . S
C7181 H7193 0.930 . S
C7182 C7178 1.524 . S
C7182 H7194 0.956 . S
C7182 H7195 0.961 . S
C7182 H7196 0.961 . S
C7183 C7180 1.539 . S
C7183 H7197 0.958 . S
C7183 H7198 0.961 . S
C7183 H7199 0.960 . S
H7184 C7168 0.931 . S
H7185 C7173 0.929 . S
H7186 C7174 0.960 . S
H7187 C7174 0.962 . S
H7188 C7174 0.960 . S
H7189 C7175 0.961 . S
H7190 C7175 0.961 . S
H7191 C7175 0.961 . S
H7192 C7176 0.931 . S
H7193 C7181 0.930 . S
H7194 C7182 0.956 . S
H7195 C7182 0.961 . S
H7196 C7182 0.961 . S
H7197 C7183 0.958 . S
H7198 C7183 0.961 . S
H7199 C7183 0.960 . S
C7200 C7201 1.391 . S
C7200 C7202 1.394 . S
C7200 H7216 0.931 . S
C7201 C7200 1.391 . S
C7201 C7205 1.376 . S
C7202 C7200 1.394 . S
C7202 C7203 1.369 . S
C7202 C7206 1.531 . S
C7203 C7202 1.369 . S
C7203 C7204 1.410 . S
C7203 C7211 1.503 . S
C7204 C7203 1.410 . S
C7204 C7205 1.392 . S
C7204 C7207 1.511 . S
C7205 C7201 1.376 . S
C7205 C7204 1.392 . S
C7205 H7217 0.929 . S
C7206 C7202 1.531 . S
C7206 H7218 0.960 . S
C7206 H7219 0.962 . S
C7206 H7220 0.960 . S
C7207 C7204 1.511 . S
C7207 H7221 0.961 . S
C7207 H7222 0.961 . S
C7207 H7223 0.961 . S
C7208 C7209 1.370 . S
C7208 C7210 1.363 . S
C7208 H7224 0.931 . S
C7209 C7208 1.370 . S
C7209 C7213 1.408 . S
C7210 C7208 1.363 . S
C7210 C7211 1.370 . S
C7210 C7214 1.524 . S
C7211 C7203 1.503 . S
C7211 C7210 1.370 . S
C7211 C7212 1.403 . S
C7212 C7211 1.403 . S
C7212 C7213 1.404 . S
C7212 C7215 1.539 . S
C7213 C7209 1.408 . S
C7213 C7212 1.404 . S
C7213 H7225 0.930 . S
C7214 C7210 1.524 . S
C7214 H7226 0.956 . S
C7214 H7227 0.961 . S
C7214 H7228 0.961 . S
C7215 C7212 1.539 . S
C7215 H7229 0.958 . S
C7215 H7230 0.961 . S
C7215 H7231 0.960 . S
H7216 C7200 0.931 . S
H7217 C7205 0.929 . S
H7218 C7206 0.960 . S
H7219 C7206 0.962 . S
H7220 C7206 0.960 . S
H7221 C7207 0.961 . S
H7222 C7207 0.961 . S
H7223 C7207 0.961 . S
H7224 C7208 0.931 . S
H7225 C7213 0.930 . S
H7226 C7214 0.956 . S
H7227 C7214 0.961 . S
H7228 C7214 0.961 . S
H7229 C7215 0.958 . S
H7230 C7215 0.961 . S
H7231 C7215 0.960 . S
C7232 C7233 1.391 . S
C7232 C7234 1.394 . S
C7232 H7248 0.931 . S
C7233 C7232 1.391 . S
C7233 C7237 1.376 . S
C7234 C7232 1.394 . S
C7234 C7235 1.369 . S
C7234 C7238 1.531 . S
C7235 C7234 1.369 . S
C7235 C7236 1.410 . S
C7235 C7243 1.503 . S
C7236 C7235 1.410 . S
C7236 C7237 1.392 . S
C7236 C7239 1.511 . S
C7237 C7233 1.376 . S
C7237 C7236 1.392 . S
C7237 H7249 0.929 . S
C7238 C7234 1.531 . S
C7238 H7250 0.960 . S
C7238 H7251 0.962 . S
C7238 H7252 0.960 . S
C7239 C7236 1.511 . S
C7239 H7253 0.961 . S
C7239 H7254 0.961 . S
C7239 H7255 0.961 . S
C7240 C7241 1.370 . S
C7240 C7242 1.363 . S
C7240 H7256 0.931 . S
C7241 C7240 1.370 . S
C7241 C7245 1.408 . S
C7242 C7240 1.363 . S
C7242 C7243 1.370 . S
C7242 C7246 1.524 . S
C7243 C7235 1.503 . S
C7243 C7242 1.370 . S
C7243 C7244 1.403 . S
C7244 C7243 1.403 . S
C7244 C7245 1.404 . S
C7244 C7247 1.539 . S
C7245 C7241 1.408 . S
C7245 C7244 1.404 . S
C7245 H7257 0.930 . S
C7246 C7242 1.524 . S
C7246 H7258 0.956 . S
C7246 H7259 0.961 . S
C7246 H7260 0.961 . S
C7247 C7244 1.539 . S
C7247 H7261 0.958 . S
C7247 H7262 0.961 . S
C7247 H7263 0.960 . S
H7248 C7232 0.931 . S
H7249 C7237 0.929 . S
H7250 C7238 0.960 . S
H7251 C7238 0.962 . S
H7252 C7238 0.960 . S
H7253 C7239 0.961 . S
H7254 C7239 0.961 . S
H7255 C7239 0.961 . S
H7256 C7240 0.931 . S
H7257 C7245 0.930 . S
H7258 C7246 0.956 . S
H7259 C7246 0.961 . S
H7260 C7246 0.961 . S
H7261 C7247 0.958 . S
H7262 C7247 0.961 . S
H7263 C7247 0.960 . S
C7264 C7265 1.391 . S
C7264 C7266 1.394 . S
C7264 H7280 0.931 . S
C7265 C7264 1.391 . S
C7265 C7269 1.376 . S
C7266 C7264 1.394 . S
C7266 C7267 1.369 . S
C7266 C7270 1.531 . S
C7267 C7266 1.369 . S
C7267 C7268 1.410 . S
C7267 C7275 1.503 . S
C7268 C7267 1.410 . S
C7268 C7269 1.392 . S
C7268 C7271 1.511 . S
C7269 C7265 1.376 . S
C7269 C7268 1.392 . S
C7269 H7281 0.929 . S
C7270 C7266 1.531 . S
C7270 H7282 0.960 . S
C7270 H7283 0.962 . S
C7270 H7284 0.960 . S
C7271 C7268 1.511 . S
C7271 H7285 0.961 . S
C7271 H7286 0.961 . S
C7271 H7287 0.961 . S
C7272 C7273 1.370 . S
C7272 C7274 1.363 . S
C7272 H7288 0.931 . S
C7273 C7272 1.370 . S
C7273 C7277 1.408 . S
C7274 C7272 1.363 . S
C7274 C7275 1.370 . S
C7274 C7278 1.524 . S
C7275 C7267 1.503 . S
C7275 C7274 1.370 . S
C7275 C7276 1.403 . S
C7276 C7275 1.403 . S
C7276 C7277 1.404 . S
C7276 C7279 1.539 . S
C7277 C7273 1.408 . S
C7277 C7276 1.404 . S
C7277 H7289 0.930 . S
C7278 C7274 1.524 . S
C7278 H7290 0.956 . S
C7278 H7291 0.961 . S
C7278 H7292 0.961 . S
C7279 C7276 1.539 . S
C7279 H7293 0.958 . S
C7279 H7294 0.961 . S
C7279 H7295 0.960 . S
H7280 C7264 0.931 . S
H7281 C7269 0.929 . S
H7282 C7270 0.960 . S
H7283 C7270 0.962 . S
H7284 C7270 0.960 . S
H7285 C7271 0.961 . S
H7286 C7271 0.961 . S
H7287 C7271 0.961 . S
H7288 C7272 0.931 . S
H7289 C7277 0.930 . S
H7290 C7278 0.956 . S
H7291 C7278 0.961 . S
H7292 C7278 0.961 . S
H7293 C7279 0.958 . S
H7294 C7279 0.961 . S
H7295 C7279 0.960 . S
C7296 C7297 1.391 . S
C7296 C7298 1.394 . S
C7296 H7312 0.931 . S
C7297 C7296 1.391 . S
C7297 C7301 1.376 . S
C7298 C7296 1.394 . S
C7298 C7299 1.369 . S
C7298 C7302 1.531 . S
C7299 C7298 1.369 . S
C7299 C7300 1.410 . S
C7299 C7307 1.503 . S
C7300 C7299 1.410 . S
C7300 C7301 1.392 . S
C7300 C7303 1.511 . S
C7301 C7297 1.376 . S
C7301 C7300 1.392 . S
C7301 H7313 0.929 . S
C7302 C7298 1.531 . S
C7302 H7314 0.960 . S
C7302 H7315 0.962 . S
C7302 H7316 0.960 . S
C7303 C7300 1.511 . S
C7303 H7317 0.961 . S
C7303 H7318 0.961 . S
C7303 H7319 0.961 . S
C7304 C7305 1.370 . S
C7304 C7306 1.363 . S
C7304 H7320 0.931 . S
C7305 C7304 1.370 . S
C7305 C7309 1.408 . S
C7306 C7304 1.363 . S
C7306 C7307 1.370 . S
C7306 C7310 1.524 . S
C7307 C7299 1.503 . S
C7307 C7306 1.370 . S
C7307 C7308 1.403 . S
C7308 C7307 1.403 . S
C7308 C7309 1.404 . S
C7308 C7311 1.539 . S
C7309 C7305 1.408 . S
C7309 C7308 1.404 . S
C7309 H7321 0.930 . S
C7310 C7306 1.524 . S
C7310 H7322 0.956 . S
C7310 H7323 0.961 . S
C7310 H7324 0.961 . S
C7311 C7308 1.539 . S
C7311 H7325 0.958 . S
C7311 H7326 0.961 . S
C7311 H7327 0.960 . S
H7312 C7296 0.931 . S
H7313 C7301 0.929 . S
H7314 C7302 0.960 . S
H7315 C7302 0.962 . S
H7316 C7302 0.960 . S
H7317 C7303 0.961 . S
H7318 C7303 0.961 . S
H7319 C7303 0.961 . S
H7320 C7304 0.931 . S
H7321 C7309 0.930 . S
H7322 C7310 0.956 . S
H7323 C7310 0.961 . S
H7324 C7310 0.961 . S
H7325 C7311 0.958 . S
H7326 C7311 0.961 . S
H7327 C7311 0.960 . S
C7328 C7329 1.391 . S
C7328 C7330 1.394 . S
C7328 H7344 0.931 . S
C7329 C7328 1.391 . S
C7329 C7333 1.376 . S
C7330 C7328 1.394 . S
C7330 C7331 1.369 . S
C7330 C7334 1.531 . S
C7331 C7330 1.369 . S
C7331 C7332 1.410 . S
C7331 C7339 1.503 . S
C7332 C7331 1.410 . S
C7332 C7333 1.392 . S
C7332 C7335 1.511 . S
C7333 C7329 1.376 . S
C7333 C7332 1.392 . S
C7333 H7345 0.929 . S
C7334 C7330 1.531 . S
C7334 H7346 0.960 . S
C7334 H7347 0.962 . S
C7334 H7348 0.960 . S
C7335 C7332 1.511 . S
C7335 H7349 0.961 . S
C7335 H7350 0.961 . S
C7335 H7351 0.961 . S
C7336 C7337 1.370 . S
C7336 C7338 1.363 . S
C7336 H7352 0.931 . S
C7337 C7336 1.370 . S
C7337 C7341 1.408 . S
C7338 C7336 1.363 . S
C7338 C7339 1.370 . S
C7338 C7342 1.524 . S
C7339 C7331 1.503 . S
C7339 C7338 1.370 . S
C7339 C7340 1.403 . S
C7340 C7339 1.403 . S
C7340 C7341 1.404 . S
C7340 C7343 1.539 . S
C7341 C7337 1.408 . S
C7341 C7340 1.404 . S
C7341 H7353 0.930 . S
C7342 C7338 1.524 . S
C7342 H7354 0.956 . S
C7342 H7355 0.961 . S
C7342 H7356 0.961 . S
C7343 C7340 1.539 . S
C7343 H7357 0.958 . S
C7343 H7358 0.961 . S
C7343 H7359 0.960 . S
H7344 C7328 0.931 . S
H7345 C7333 0.929 . S
H7346 C7334 0.960 . S
H7347 C7334 0.962 . S
H7348 C7334 0.960 . S
H7349 C7335 0.961 . S
H7350 C7335 0.961 . S
H7351 C7335 0.961 . S
H7352 C7336 0.931 . S
H7353 C7341 0.930 . S
H7354 C7342 0.956 . S
H7355 C7342 0.961 . S
H7356 C7342 0.961 . S
H7357 C7343 0.958 . S
H7358 C7343 0.961 . S
H7359 C7343 0.960 . S
C7360 C7361 1.391 . S
C7360 C7362 1.394 . S
C7360 H7376 0.931 . S
C7361 C7360 1.391 . S
C7361 C7365 1.376 . S
C7362 C7360 1.394 . S
C7362 C7363 1.369 . S
C7362 C7366 1.531 . S
C7363 C7362 1.369 . S
C7363 C7364 1.410 . S
C7363 C7371 1.503 . S
C7364 C7363 1.410 . S
C7364 C7365 1.392 . S
C7364 C7367 1.511 . S
C7365 C7361 1.376 . S
C7365 C7364 1.392 . S
C7365 H7377 0.929 . S
C7366 C7362 1.531 . S
C7366 H7378 0.960 . S
C7366 H7379 0.962 . S
C7366 H7380 0.960 . S
C7367 C7364 1.511 . S
C7367 H7381 0.961 . S
C7367 H7382 0.961 . S
C7367 H7383 0.961 . S
C7368 C7369 1.370 . S
C7368 C7370 1.363 . S
C7368 H7384 0.931 . S
C7369 C7368 1.370 . S
C7369 C7373 1.408 . S
C7370 C7368 1.363 . S
C7370 C7371 1.370 . S
C7370 C7374 1.524 . S
C7371 C7363 1.503 . S
C7371 C7370 1.370 . S
C7371 C7372 1.403 . S
C7372 C7371 1.403 . S
C7372 C7373 1.404 . S
C7372 C7375 1.539 . S
C7373 C7369 1.408 . S
C7373 C7372 1.404 . S
C7373 H7385 0.930 . S
C7374 C7370 1.524 . S
C7374 H7386 0.956 . S
C7374 H7387 0.961 . S
C7374 H7388 0.961 . S
C7375 C7372 1.539 . S
C7375 H7389 0.958 . S
C7375 H7390 0.961 . S
C7375 H7391 0.960 . S
H7376 C7360 0.931 . S
H7377 C7365 0.929 . S
H7378 C7366 0.960 . S
H7379 C7366 0.962 . S
H7380 C7366 0.960 . S
H7381 C7367 0.961 . S
H7382 C7367 0.961 . S
H7383 C7367 0.961 . S
H7384 C7368 0.931 . S
H7385 C7373 0.930 . S
H7386 C7374 0.956 . S
H7387 C7374 0.961 . S
H7388 C7374 0.961 . S
H7389 C7375 0.958 . S
H7390 C7375 0.961 . S
H7391 C7375 0.960 . S
C7392 C7393 1.391 . S
C7392 C7394 1.394 . S
C7392 H7408 0.931 . S
C7393 C7392 1.391 . S
C7393 C7397 1.376 . S
C7394 C7392 1.394 . S
C7394 C7395 1.369 . S
C7394 C7398 1.531 . S
C7395 C7394 1.369 . S
C7395 C7396 1.410 . S
C7395 C7403 1.503 . S
C7396 C7395 1.410 . S
C7396 C7397 1.392 . S
C7396 C7399 1.511 . S
C7397 C7393 1.376 . S
C7397 C7396 1.392 . S
C7397 H7409 0.929 . S
C7398 C7394 1.531 . S
C7398 H7410 0.960 . S
C7398 H7411 0.962 . S
C7398 H7412 0.960 . S
C7399 C7396 1.511 . S
C7399 H7413 0.961 . S
C7399 H7414 0.961 . S
C7399 H7415 0.961 . S
C7400 C7401 1.370 . S
C7400 C7402 1.363 . S
C7400 H7416 0.931 . S
C7401 C7400 1.370 . S
C7401 C7405 1.408 . S
C7402 C7400 1.363 . S
C7402 C7403 1.370 . S
C7402 C7406 1.524 . S
C7403 C7395 1.503 . S
C7403 C7402 1.370 . S
C7403 C7404 1.403 . S
C7404 C7403 1.403 . S
C7404 C7405 1.404 . S
C7404 C7407 1.539 . S
C7405 C7401 1.408 . S
C7405 C7404 1.404 . S
C7405 H7417 0.930 . S
C7406 C7402 1.524 . S
C7406 H7418 0.956 . S
C7406 H7419 0.961 . S
C7406 H7420 0.961 . S
C7407 C7404 1.539 . S
C7407 H7421 0.958 . S
C7407 H7422 0.961 . S
C7407 H7423 0.960 . S
H7408 C7392 0.931 . S
H7409 C7397 0.929 . S
H7410 C7398 0.960 . S
H7411 C7398 0.962 . S
H7412 C7398 0.960 . S
H7413 C7399 0.961 . S
H7414 C7399 0.961 . S
H7415 C7399 0.961 . S
H7416 C7400 0.931 . S
H7417 C7405 0.930 . S
H7418 C7406 0.956 . S
H7419 C7406 0.961 . S
H7420 C7406 0.961 . S
H7421 C7407 0.958 . S
H7422 C7407 0.961 . S
H7423 C7407 0.960 . S
C7424 C7425 1.391 . S
C7424 C7426 1.394 . S
C7424 H7440 0.931 . S
C7425 C7424 1.391 . S
C7425 C7429 1.376 . S
C7426 C7424 1.394 . S
C7426 C7427 1.369 . S
C7426 C7430 1.531 . S
C7427 C7426 1.369 . S
C7427 C7428 1.410 . S
C7427 C7435 1.503 . S
C7428 C7427 1.410 . S
C7428 C7429 1.392 . S
C7428 C7431 1.511 . S
C7429 C7425 1.376 . S
C7429 C7428 1.392 . S
C7429 H7441 0.929 . S
C7430 C7426 1.531 . S
C7430 H7442 0.960 . S
C7430 H7443 0.962 . S
C7430 H7444 0.960 . S
C7431 C7428 1.511 . S
C7431 H7445 0.961 . S
C7431 H7446 0.961 . S
C7431 H7447 0.961 . S
C7432 C7433 1.370 . S
C7432 C7434 1.363 . S
C7432 H7448 0.931 . S
C7433 C7432 1.370 . S
C7433 C7437 1.408 . S
C7434 C7432 1.363 . S
C7434 C7435 1.370 . S
C7434 C7438 1.524 . S
C7435 C7427 1.503 . S
C7435 C7434 1.370 . S
C7435 C7436 1.403 . S
C7436 C7435 1.403 . S
C7436 C7437 1.404 . S
C7436 C7439 1.539 . S
C7437 C7433 1.408 . S
C7437 C7436 1.404 . S
C7437 H7449 0.930 . S
C7438 C7434 1.524 . S
C7438 H7450 0.956 . S
C7438 H7451 0.961 . S
C7438 H7452 0.961 . S
C7439 C7436 1.539 . S
C7439 H7453 0.958 . S
C7439 H7454 0.961 . S
C7439 H7455 0.960 . S
H7440 C7424 0.931 . S
H7441 C7429 0.929 . S
H7442 C7430 0.960 . S
H7443 C7430 0.962 . S
H7444 C7430 0.960 . S
H7445 C7431 0.961 . S
H7446 C7431 0.961 . S
H7447 C7431 0.961 . S
H7448 C7432 0.931 . S
H7449 C7437 0.930 . S
H7450 C7438 0.956 . S
H7451 C7438 0.961 . S
H7452 C7438 0.961 . S
H7453 C7439 0.958 . S
H7454 C7439 0.961 . S
H7455 C7439 0.960 . S
C7456 C7457 1.391 . S
C7456 C7458 1.394 . S
C7456 H7472 0.931 . S
C7457 C7456 1.391 . S
C7457 C7461 1.376 . S
C7458 C7456 1.394 . S
C7458 C7459 1.369 . S
C7458 C7462 1.531 . S
C7459 C7458 1.369 . S
C7459 C7460 1.410 . S
C7459 C7467 1.503 . S
C7460 C7459 1.410 . S
C7460 C7461 1.392 . S
C7460 C7463 1.511 . S
C7461 C7457 1.376 . S
C7461 C7460 1.392 . S
C7461 H7473 0.929 . S
C7462 C7458 1.531 . S
C7462 H7474 0.960 . S
C7462 H7475 0.962 . S
C7462 H7476 0.960 . S
C7463 C7460 1.511 . S
C7463 H7477 0.961 . S
C7463 H7478 0.961 . S
C7463 H7479 0.961 . S
C7464 C7465 1.370 . S
C7464 C7466 1.363 . S
C7464 H7480 0.931 . S
C7465 C7464 1.370 . S
C7465 C7469 1.408 . S
C7466 C7464 1.363 . S
C7466 C7467 1.370 . S
C7466 C7470 1.524 . S
C7467 C7459 1.503 . S
C7467 C7466 1.370 . S
C7467 C7468 1.403 . S
C7468 C7467 1.403 . S
C7468 C7469 1.404 . S
C7468 C7471 1.539 . S
C7469 C7465 1.408 . S
C7469 C7468 1.404 . S
C7469 H7481 0.930 . S
C7470 C7466 1.524 . S
C7470 H7482 0.956 . S
C7470 H7483 0.961 . S
C7470 H7484 0.961 . S
C7471 C7468 1.539 . S
C7471 H7485 0.958 . S
C7471 H7486 0.961 . S
C7471 H7487 0.960 . S
H7472 C7456 0.931 . S
H7473 C7461 0.929 . S
H7474 C7462 0.960 . S
H7475 C7462 0.962 . S
H7476 C7462 0.960 . S
H7477 C7463 0.961 . S
H7478 C7463 0.961 . S
H7479 C7463 0.961 . S
H7480 C7464 0.931 . S
H7481 C7469 0.930 . S
H7482 C7470 0.956 . S
H7483 C7470 0.961 . S
H7484 C7470 0.961 . S
H7485 C7471 0.958 . S
H7486 C7471 0.961 . S
H7487 C7471 0.960 . S
C7488 C7489 1.391 . S
C7488 C7490 1.394 . S
C7488 H7504 0.931 . S
C7489 C7488 1.391 . S
C7489 C7493 1.376 . S
C7490 C7488 1.394 . S
C7490 C7491 1.369 . S
C7490 C7494 1.531 . S
C7491 C7490 1.369 . S
C7491 C7492 1.410 . S
C7491 C7499 1.503 . S
C7492 C7491 1.410 . S
C7492 C7493 1.392 . S
C7492 C7495 1.511 . S
C7493 C7489 1.376 . S
C7493 C7492 1.392 . S
C7493 H7505 0.929 . S
C7494 C7490 1.531 . S
C7494 H7506 0.960 . S
C7494 H7507 0.962 . S
C7494 H7508 0.960 . S
C7495 C7492 1.511 . S
C7495 H7509 0.961 . S
C7495 H7510 0.961 . S
C7495 H7511 0.961 . S
C7496 C7497 1.370 . S
C7496 C7498 1.363 . S
C7496 H7512 0.931 . S
C7497 C7496 1.370 . S
C7497 C7501 1.408 . S
C7498 C7496 1.363 . S
C7498 C7499 1.370 . S
C7498 C7502 1.524 . S
C7499 C7491 1.503 . S
C7499 C7498 1.370 . S
C7499 C7500 1.403 . S
C7500 C7499 1.403 . S
C7500 C7501 1.404 . S
C7500 C7503 1.539 . S
C7501 C7497 1.408 . S
C7501 C7500 1.404 . S
C7501 H7513 0.930 . S
C7502 C7498 1.524 . S
C7502 H7514 0.956 . S
C7502 H7515 0.961 . S
C7502 H7516 0.961 . S
C7503 C7500 1.539 . S
C7503 H7517 0.958 . S
C7503 H7518 0.961 . S
C7503 H7519 0.960 . S
H7504 C7488 0.931 . S
H7505 C7493 0.929 . S
H7506 C7494 0.960 . S
H7507 C7494 0.962 . S
H7508 C7494 0.960 . S
H7509 C7495 0.961 . S
H7510 C7495 0.961 . S
H7511 C7495 0.961 . S
H7512 C7496 0.931 . S
H7513 C7501 0.930 . S
H7514 C7502 0.956 . S
H7515 C7502 0.961 . S
H7516 C7502 0.961 . S
H7517 C7503 0.958 . S
H7518 C7503 0.961 . S
H7519 C7503 0.960 . S
C7520 C7521 1.391 . S
C7520 C7522 1.394 . S
C7520 H7536 0.931 . S
C7521 C7520 1.391 . S
C7521 C7525 1.376 . S
C7522 C7520 1.394 . S
C7522 C7523 1.369 . S
C7522 C7526 1.531 . S
C7523 C7522 1.369 . S
C7523 C7524 1.410 . S
C7523 C7531 1.503 . S
C7524 C7523 1.410 . S
C7524 C7525 1.392 . S
C7524 C7527 1.511 . S
C7525 C7521 1.376 . S
C7525 C7524 1.392 . S
C7525 H7537 0.929 . S
C7526 C7522 1.531 . S
C7526 H7538 0.960 . S
C7526 H7539 0.962 . S
C7526 H7540 0.960 . S
C7527 C7524 1.511 . S
C7527 H7541 0.961 . S
C7527 H7542 0.961 . S
C7527 H7543 0.961 . S
C7528 C7529 1.370 . S
C7528 C7530 1.363 . S
C7528 H7544 0.931 . S
C7529 C7528 1.370 . S
C7529 C7533 1.408 . S
C7530 C7528 1.363 . S
C7530 C7531 1.370 . S
C7530 C7534 1.524 . S
C7531 C7523 1.503 . S
C7531 C7530 1.370 . S
C7531 C7532 1.403 . S
C7532 C7531 1.403 . S
C7532 C7533 1.404 . S
C7532 C7535 1.539 . S
C7533 C7529 1.408 . S
C7533 C7532 1.404 . S
C7533 H7545 0.930 . S
C7534 C7530 1.524 . S
C7534 H7546 0.956 . S
C7534 H7547 0.961 . S
C7534 H7548 0.961 . S
C7535 C7532 1.539 . S
C7535 H7549 0.958 . S
C7535 H7550 0.961 . S
C7535 H7551 0.960 . S
H7536 C7520 0.931 . S
H7537 C7525 0.929 . S
H7538 C7526 0.960 . S
H7539 C7526 0.962 . S
H7540 C7526 0.960 . S
H7541 C7527 0.961 . S
H7542 C7527 0.961 . S
H7543 C7527 0.961 . S
H7544 C7528 0.931 . S
H7545 C7533 0.930 . S
H7546 C7534 0.956 . S
H7547 C7534 0.961 . S
H7548 C7534 0.961 . S
H7549 C7535 0.958 . S
H7550 C7535 0.961 . S
H7551 C7535 0.960 . S
C7552 C7553 1.391 . S
C7552 C7554 1.394 . S
C7552 H7568 0.931 . S
C7553 C7552 1.391 . S
C7553 C7557 1.376 . S
C7554 C7552 1.394 . S
C7554 C7555 1.369 . S
C7554 C7558 1.531 . S
C7555 C7554 1.369 . S
C7555 C7556 1.410 . S
C7555 C7563 1.503 . S
C7556 C7555 1.410 . S
C7556 C7557 1.392 . S
C7556 C7559 1.511 . S
C7557 C7553 1.376 . S
C7557 C7556 1.392 . S
C7557 H7569 0.929 . S
C7558 C7554 1.531 . S
C7558 H7570 0.960 . S
C7558 H7571 0.962 . S
C7558 H7572 0.960 . S
C7559 C7556 1.511 . S
C7559 H7573 0.961 . S
C7559 H7574 0.961 . S
C7559 H7575 0.961 . S
C7560 C7561 1.370 . S
C7560 C7562 1.363 . S
C7560 H7576 0.931 . S
C7561 C7560 1.370 . S
C7561 C7565 1.408 . S
C7562 C7560 1.363 . S
C7562 C7563 1.370 . S
C7562 C7566 1.524 . S
C7563 C7555 1.503 . S
C7563 C7562 1.370 . S
C7563 C7564 1.403 . S
C7564 C7563 1.403 . S
C7564 C7565 1.404 . S
C7564 C7567 1.539 . S
C7565 C7561 1.408 . S
C7565 C7564 1.404 . S
C7565 H7577 0.930 . S
C7566 C7562 1.524 . S
C7566 H7578 0.956 . S
C7566 H7579 0.961 . S
C7566 H7580 0.961 . S
C7567 C7564 1.539 . S
C7567 H7581 0.958 . S
C7567 H7582 0.961 . S
C7567 H7583 0.960 . S
H7568 C7552 0.931 . S
H7569 C7557 0.929 . S
H7570 C7558 0.960 . S
H7571 C7558 0.962 . S
H7572 C7558 0.960 . S
H7573 C7559 0.961 . S
H7574 C7559 0.961 . S
H7575 C7559 0.961 . S
H7576 C7560 0.931 . S
H7577 C7565 0.930 . S
H7578 C7566 0.956 . S
H7579 C7566 0.961 . S
H7580 C7566 0.961 . S
H7581 C7567 0.958 . S
H7582 C7567 0.961 . S
H7583 C7567 0.960 . S
C7584 C7585 1.391 . S
C7584 C7586 1.394 . S
C7584 H7600 0.931 . S
C7585 C7584 1.391 . S
C7585 C7589 1.376 . S
C7586 C7584 1.394 . S
C7586 C7587 1.369 . S
C7586 C7590 1.531 . S
C7587 C7586 1.369 . S
C7587 C7588 1.410 . S
C7587 C7595 1.503 . S
C7588 C7587 1.410 . S
C7588 C7589 1.392 . S
C7588 C7591 1.511 . S
C7589 C7585 1.376 . S
C7589 C7588 1.392 . S
C7589 H7601 0.929 . S
C7590 C7586 1.531 . S
C7590 H7602 0.960 . S
C7590 H7603 0.962 . S
C7590 H7604 0.960 . S
C7591 C7588 1.511 . S
C7591 H7605 0.961 . S
C7591 H7606 0.961 . S
C7591 H7607 0.961 . S
C7592 C7593 1.370 . S
C7592 C7594 1.363 . S
C7592 H7608 0.931 . S
C7593 C7592 1.370 . S
C7593 C7597 1.408 . S
C7594 C7592 1.363 . S
C7594 C7595 1.370 . S
C7594 C7598 1.524 . S
C7595 C7587 1.503 . S
C7595 C7594 1.370 . S
C7595 C7596 1.403 . S
C7596 C7595 1.403 . S
C7596 C7597 1.404 . S
C7596 C7599 1.539 . S
C7597 C7593 1.408 . S
C7597 C7596 1.404 . S
C7597 H7609 0.930 . S
C7598 C7594 1.524 . S
C7598 H7610 0.956 . S
C7598 H7611 0.961 . S
C7598 H7612 0.961 . S
C7599 C7596 1.539 . S
C7599 H7613 0.958 . S
C7599 H7614 0.961 . S
C7599 H7615 0.960 . S
H7600 C7584 0.931 . S
H7601 C7589 0.929 . S
H7602 C7590 0.960 . S
H7603 C7590 0.962 . S
H7604 C7590 0.960 . S
H7605 C7591 0.961 . S
H7606 C7591 0.961 . S
H7607 C7591 0.961 . S
H7608 C7592 0.931 . S
H7609 C7597 0.930 . S
H7610 C7598 0.956 . S
H7611 C7598 0.961 . S
H7612 C7598 0.961 . S
H7613 C7599 0.958 . S
H7614 C7599 0.961 . S
H7615 C7599 0.960 . S
C7616 C7617 1.391 . S
C7616 C7618 1.394 . S
C7616 H7632 0.931 . S
C7617 C7616 1.391 . S
C7617 C7621 1.376 . S
C7618 C7616 1.394 . S
C7618 C7619 1.369 . S
C7618 C7622 1.531 . S
C7619 C7618 1.369 . S
C7619 C7620 1.410 . S
C7619 C7627 1.503 . S
C7620 C7619 1.410 . S
C7620 C7621 1.392 . S
C7620 C7623 1.511 . S
C7621 C7617 1.376 . S
C7621 C7620 1.392 . S
C7621 H7633 0.929 . S
C7622 C7618 1.531 . S
C7622 H7634 0.960 . S
C7622 H7635 0.962 . S
C7622 H7636 0.960 . S
C7623 C7620 1.511 . S
C7623 H7637 0.961 . S
C7623 H7638 0.961 . S
C7623 H7639 0.961 . S
C7624 C7625 1.370 . S
C7624 C7626 1.363 . S
C7624 H7640 0.931 . S
C7625 C7624 1.370 . S
C7625 C7629 1.408 . S
C7626 C7624 1.363 . S
C7626 C7627 1.370 . S
C7626 C7630 1.524 . S
C7627 C7619 1.503 . S
C7627 C7626 1.370 . S
C7627 C7628 1.403 . S
C7628 C7627 1.403 . S
C7628 C7629 1.404 . S
C7628 C7631 1.539 . S
C7629 C7625 1.408 . S
C7629 C7628 1.404 . S
C7629 H7641 0.930 . S
C7630 C7626 1.524 . S
C7630 H7642 0.956 . S
C7630 H7643 0.961 . S
C7630 H7644 0.961 . S
C7631 C7628 1.539 . S
C7631 H7645 0.958 . S
C7631 H7646 0.961 . S
C7631 H7647 0.960 . S
H7632 C7616 0.931 . S
H7633 C7621 0.929 . S
H7634 C7622 0.960 . S
H7635 C7622 0.962 . S
H7636 C7622 0.960 . S
H7637 C7623 0.961 . S
H7638 C7623 0.961 . S
H7639 C7623 0.961 . S
H7640 C7624 0.931 . S
H7641 C7629 0.930 . S
H7642 C7630 0.956 . S
H7643 C7630 0.961 . S
H7644 C7630 0.961 . S
H7645 C7631 0.958 . S
H7646 C7631 0.961 . S
H7647 C7631 0.960 . S
C7648 C7649 1.391 . S
C7648 C7650 1.394 . S
C7648 H7664 0.931 . S
C7649 C7648 1.391 . S
C7649 C7653 1.376 . S
C7650 C7648 1.394 . S
C7650 C7651 1.369 . S
C7650 C7654 1.531 . S
C7651 C7650 1.369 . S
C7651 C7652 1.410 . S
C7651 C7659 1.503 . S
C7652 C7651 1.410 . S
C7652 C7653 1.392 . S
C7652 C7655 1.511 . S
C7653 C7649 1.376 . S
C7653 C7652 1.392 . S
C7653 H7665 0.929 . S
C7654 C7650 1.531 . S
C7654 H7666 0.960 . S
C7654 H7667 0.962 . S
C7654 H7668 0.960 . S
C7655 C7652 1.511 . S
C7655 H7669 0.961 . S
C7655 H7670 0.961 . S
C7655 H7671 0.961 . S
C7656 C7657 1.370 . S
C7656 C7658 1.363 . S
C7656 H7672 0.931 . S
C7657 C7656 1.370 . S
C7657 C7661 1.408 . S
C7658 C7656 1.363 . S
C7658 C7659 1.370 . S
C7658 C7662 1.524 . S
C7659 C7651 1.503 . S
C7659 C7658 1.370 . S
C7659 C7660 1.403 . S
C7660 C7659 1.403 . S
C7660 C7661 1.404 . S
C7660 C7663 1.539 . S
C7661 C7657 1.408 . S
C7661 C7660 1.404 . S
C7661 H7673 0.930 . S
C7662 C7658 1.524 . S
C7662 H7674 0.956 . S
C7662 H7675 0.961 . S
C7662 H7676 0.961 . S
C7663 C7660 1.539 . S
C7663 H7677 0.958 . S
C7663 H7678 0.961 . S
C7663 H7679 0.960 . S
H7664 C7648 0.931 . S
H7665 C7653 0.929 . S
H7666 C7654 0.960 . S
H7667 C7654 0.962 . S
H7668 C7654 0.960 . S
H7669 C7655 0.961 . S
H7670 C7655 0.961 . S
H7671 C7655 0.961 . S
H7672 C7656 0.931 . S
H7673 C7661 0.930 . S
H7674 C7662 0.956 . S
H7675 C7662 0.961 . S
H7676 C7662 0.961 . S
H7677 C7663 0.958 . S
H7678 C7663 0.961 . S
H7679 C7663 0.960 . S
C7680 C7681 1.391 . S
C7680 C7682 1.394 . S
C7680 H7696 0.931 . S
C7681 C7680 1.391 . S
C7681 C7685 1.376 . S
C7682 C7680 1.394 . S
C7682 C7683 1.369 . S
C7682 C7686 1.531 . S
C7683 C7682 1.369 . S
C7683 C7684 1.410 . S
C7683 C7691 1.503 . S
C7684 C7683 1.410 . S
C7684 C7685 1.392 . S
C7684 C7687 1.511 . S
C7685 C7681 1.376 . S
C7685 C7684 1.392 . S
C7685 H7697 0.929 . S
C7686 C7682 1.531 . S
C7686 H7698 0.960 . S
C7686 H7699 0.962 . S
C7686 H7700 0.960 . S
C7687 C7684 1.511 . S
C7687 H7701 0.961 . S
C7687 H7702 0.961 . S
C7687 H7703 0.961 . S
C7688 C7689 1.370 . S
C7688 C7690 1.363 . S
C7688 H7704 0.931 . S
C7689 C7688 1.370 . S
C7689 C7693 1.408 . S
C7690 C7688 1.363 . S
C7690 C7691 1.370 . S
C7690 C7694 1.524 . S
C7691 C7683 1.503 . S
C7691 C7690 1.370 . S
C7691 C7692 1.403 . S
C7692 C7691 1.403 . S
C7692 C7693 1.404 . S
C7692 C7695 1.539 . S
C7693 C7689 1.408 . S
C7693 C7692 1.404 . S
C7693 H7705 0.930 . S
C7694 C7690 1.524 . S
C7694 H7706 0.956 . S
C7694 H7707 0.961 . S
C7694 H7708 0.961 . S
C7695 C7692 1.539 . S
C7695 H7709 0.958 . S
C7695 H7710 0.961 . S
C7695 H7711 0.960 . S
H7696 C7680 0.931 . S
H7697 C7685 0.929 . S
H7698 C7686 0.960 . S
H7699 C7686 0.962 . S
H7700 C7686 0.960 . S
H7701 C7687 0.961 . S
H7702 C7687 0.961 . S
H7703 C7687 0.961 . S
H7704 C7688 0.931 . S
H7705 C7693 0.930 . S
H7706 C7694 0.956 . S
H7707 C7694 0.961 . S
H7708 C7694 0.961 . S
H7709 C7695 0.958 . S
H7710 C7695 0.961 . S
H7711 C7695 0.960 . S
C7712 C7713 1.391 . S
C7712 C7714 1.394 . S
C7712 H7728 0.931 . S
C7713 C7712 1.391 . S
C7713 C7717 1.376 . S
C7714 C7712 1.394 . S
C7714 C7715 1.369 . S
C7714 C7718 1.531 . S
C7715 C7714 1.369 . S
C7715 C7716 1.410 . S
C7715 C7723 1.503 . S
C7716 C7715 1.410 . S
C7716 C7717 1.392 . S
C7716 C7719 1.511 . S
C7717 C7713 1.376 . S
C7717 C7716 1.392 . S
C7717 H7729 0.929 . S
C7718 C7714 1.531 . S
C7718 H7730 0.960 . S
C7718 H7731 0.962 . S
C7718 H7732 0.960 . S
C7719 C7716 1.511 . S
C7719 H7733 0.961 . S
C7719 H7734 0.961 . S
C7719 H7735 0.961 . S
C7720 C7721 1.370 . S
C7720 C7722 1.363 . S
C7720 H7736 0.931 . S
C7721 C7720 1.370 . S
C7721 C7725 1.408 . S
C7722 C7720 1.363 . S
C7722 C7723 1.370 . S
C7722 C7726 1.524 . S
C7723 C7715 1.503 . S
C7723 C7722 1.370 . S
C7723 C7724 1.403 . S
C7724 C7723 1.403 . S
C7724 C7725 1.404 . S
C7724 C7727 1.539 . S
C7725 C7721 1.408 . S
C7725 C7724 1.404 . S
C7725 H7737 0.930 . S
C7726 C7722 1.524 . S
C7726 H7738 0.956 . S
C7726 H7739 0.961 . S
C7726 H7740 0.961 . S
C7727 C7724 1.539 . S
C7727 H7741 0.958 . S
C7727 H7742 0.961 . S
C7727 H7743 0.960 . S
H7728 C7712 0.931 . S
H7729 C7717 0.929 . S
H7730 C7718 0.960 . S
H7731 C7718 0.962 . S
H7732 C7718 0.960 . S
H7733 C7719 0.961 . S
H7734 C7719 0.961 . S
H7735 C7719 0.961 . S
H7736 C7720 0.931 . S
H7737 C7725 0.930 . S
H7738 C7726 0.956 . S
H7739 C7726 0.961 . S
H7740 C7726 0.961 . S
H7741 C7727 0.958 . S
H7742 C7727 0.961 . S
H7743 C7727 0.960 . S
C7744 C7745 1.391 . S
C7744 C7746 1.394 . S
C7744 H7760 0.931 . S
C7745 C7744 1.391 . S
C7745 C7749 1.376 . S
C7746 C7744 1.394 . S
C7746 C7747 1.369 . S
C7746 C7750 1.531 . S
C7747 C7746 1.369 . S
C7747 C7748 1.410 . S
C7747 C7755 1.503 . S
C7748 C7747 1.410 . S
C7748 C7749 1.392 . S
C7748 C7751 1.511 . S
C7749 C7745 1.376 . S
C7749 C7748 1.392 . S
C7749 H7761 0.929 . S
C7750 C7746 1.531 . S
C7750 H7762 0.960 . S
C7750 H7763 0.962 . S
C7750 H7764 0.960 . S
C7751 C7748 1.511 . S
C7751 H7765 0.961 . S
C7751 H7766 0.961 . S
C7751 H7767 0.961 . S
C7752 C7753 1.370 . S
C7752 C7754 1.363 . S
C7752 H7768 0.931 . S
C7753 C7752 1.370 . S
C7753 C7757 1.408 . S
C7754 C7752 1.363 . S
C7754 C7755 1.370 . S
C7754 C7758 1.524 . S
C7755 C7747 1.503 . S
C7755 C7754 1.370 . S
C7755 C7756 1.403 . S
C7756 C7755 1.403 . S
C7756 C7757 1.404 . S
C7756 C7759 1.539 . S
C7757 C7753 1.408 . S
C7757 C7756 1.404 . S
C7757 H7769 0.930 . S
C7758 C7754 1.524 . S
C7758 H7770 0.956 . S
C7758 H7771 0.961 . S
C7758 H7772 0.961 . S
C7759 C7756 1.539 . S
C7759 H7773 0.958 . S
C7759 H7774 0.961 . S
C7759 H7775 0.960 . S
H7760 C7744 0.931 . S
H7761 C7749 0.929 . S
H7762 C7750 0.960 . S
H7763 C7750 0.962 . S
H7764 C7750 0.960 . S
H7765 C7751 0.961 . S
H7766 C7751 0.961 . S
H7767 C7751 0.961 . S
H7768 C7752 0.931 . S
H7769 C7757 0.930 . S
H7770 C7758 0.956 . S
H7771 C7758 0.961 . S
H7772 C7758 0.961 . S
H7773 C7759 0.958 . S
H7774 C7759 0.961 . S
H7775 C7759 0.960 . S
C7776 C7777 1.391 . S
C7776 C7778 1.394 . S
C7776 H7792 0.931 . S
C7777 C7776 1.391 . S
C7777 C7781 1.376 . S
C7778 C7776 1.394 . S
C7778 C7779 1.369 . S
C7778 C7782 1.531 . S
C7779 C7778 1.369 . S
C7779 C7780 1.410 . S
C7779 C7787 1.503 . S
C7780 C7779 1.410 . S
C7780 C7781 1.392 . S
C7780 C7783 1.511 . S
C7781 C7777 1.376 . S
C7781 C7780 1.392 . S
C7781 H7793 0.929 . S
C7782 C7778 1.531 . S
C7782 H7794 0.960 . S
C7782 H7795 0.962 . S
C7782 H7796 0.960 . S
C7783 C7780 1.511 . S
C7783 H7797 0.961 . S
C7783 H7798 0.961 . S
C7783 H7799 0.961 . S
C7784 C7785 1.370 . S
C7784 C7786 1.363 . S
C7784 H7800 0.931 . S
C7785 C7784 1.370 . S
C7785 C7789 1.408 . S
C7786 C7784 1.363 . S
C7786 C7787 1.370 . S
C7786 C7790 1.524 . S
C7787 C7779 1.503 . S
C7787 C7786 1.370 . S
C7787 C7788 1.403 . S
C7788 C7787 1.403 . S
C7788 C7789 1.404 . S
C7788 C7791 1.539 . S
C7789 C7785 1.408 . S
C7789 C7788 1.404 . S
C7789 H7801 0.930 . S
C7790 C7786 1.524 . S
C7790 H7802 0.956 . S
C7790 H7803 0.961 . S
C7790 H7804 0.961 . S
C7791 C7788 1.539 . S
C7791 H7805 0.958 . S
C7791 H7806 0.961 . S
C7791 H7807 0.960 . S
H7792 C7776 0.931 . S
H7793 C7781 0.929 . S
H7794 C7782 0.960 . S
H7795 C7782 0.962 . S
H7796 C7782 0.960 . S
H7797 C7783 0.961 . S
H7798 C7783 0.961 . S
H7799 C7783 0.961 . S
H7800 C7784 0.931 . S
H7801 C7789 0.930 . S
H7802 C7790 0.956 . S
H7803 C7790 0.961 . S
H7804 C7790 0.961 . S
H7805 C7791 0.958 . S
H7806 C7791 0.961 . S
H7807 C7791 0.960 . S
C7808 C7809 1.391 . S
C7808 C7810 1.394 . S
C7808 H7824 0.931 . S
C7809 C7808 1.391 . S
C7809 C7813 1.376 . S
C7810 C7808 1.394 . S
C7810 C7811 1.369 . S
C7810 C7814 1.531 . S
C7811 C7810 1.369 . S
C7811 C7812 1.410 . S
C7811 C7819 1.503 . S
C7812 C7811 1.410 . S
C7812 C7813 1.392 . S
C7812 C7815 1.511 . S
C7813 C7809 1.376 . S
C7813 C7812 1.392 . S
C7813 H7825 0.929 . S
C7814 C7810 1.531 . S
C7814 H7826 0.960 . S
C7814 H7827 0.962 . S
C7814 H7828 0.960 . S
C7815 C7812 1.511 . S
C7815 H7829 0.961 . S
C7815 H7830 0.961 . S
C7815 H7831 0.961 . S
C7816 C7817 1.370 . S
C7816 C7818 1.363 . S
C7816 H7832 0.931 . S
C7817 C7816 1.370 . S
C7817 C7821 1.408 . S
C7818 C7816 1.363 . S
C7818 C7819 1.370 . S
C7818 C7822 1.524 . S
C7819 C7811 1.503 . S
C7819 C7818 1.370 . S
C7819 C7820 1.403 . S
C7820 C7819 1.403 . S
C7820 C7821 1.404 . S
C7820 C7823 1.539 . S
C7821 C7817 1.408 . S
C7821 C7820 1.404 . S
C7821 H7833 0.930 . S
C7822 C7818 1.524 . S
C7822 H7834 0.956 . S
C7822 H7835 0.961 . S
C7822 H7836 0.961 . S
C7823 C7820 1.539 . S
C7823 H7837 0.958 . S
C7823 H7838 0.961 . S
C7823 H7839 0.960 . S
H7824 C7808 0.931 . S
H7825 C7813 0.929 . S
H7826 C7814 0.960 . S
H7827 C7814 0.962 . S
H7828 C7814 0.960 . S
H7829 C7815 0.961 . S
H7830 C7815 0.961 . S
H7831 C7815 0.961 . S
H7832 C7816 0.931 . S
H7833 C7821 0.930 . S
H7834 C7822 0.956 . S
H7835 C7822 0.961 . S
H7836 C7822 0.961 . S
H7837 C7823 0.958 . S
H7838 C7823 0.961 . S
H7839 C7823 0.960 . S
C7840 C7841 1.391 . S
C7840 C7842 1.394 . S
C7840 H7856 0.931 . S
C7841 C7840 1.391 . S
C7841 C7845 1.376 . S
C7842 C7840 1.394 . S
C7842 C7843 1.369 . S
C7842 C7846 1.531 . S
C7843 C7842 1.369 . S
C7843 C7844 1.410 . S
C7843 C7851 1.503 . S
C7844 C7843 1.410 . S
C7844 C7845 1.392 . S
C7844 C7847 1.511 . S
C7845 C7841 1.376 . S
C7845 C7844 1.392 . S
C7845 H7857 0.929 . S
C7846 C7842 1.531 . S
C7846 H7858 0.960 . S
C7846 H7859 0.962 . S
C7846 H7860 0.960 . S
C7847 C7844 1.511 . S
C7847 H7861 0.961 . S
C7847 H7862 0.961 . S
C7847 H7863 0.961 . S
C7848 C7849 1.370 . S
C7848 C7850 1.363 . S
C7848 H7864 0.931 . S
C7849 C7848 1.370 . S
C7849 C7853 1.408 . S
C7850 C7848 1.363 . S
C7850 C7851 1.370 . S
C7850 C7854 1.524 . S
C7851 C7843 1.503 . S
C7851 C7850 1.370 . S
C7851 C7852 1.403 . S
C7852 C7851 1.403 . S
C7852 C7853 1.404 . S
C7852 C7855 1.539 . S
C7853 C7849 1.408 . S
C7853 C7852 1.404 . S
C7853 H7865 0.930 . S
C7854 C7850 1.524 . S
C7854 H7866 0.956 . S
C7854 H7867 0.961 . S
C7854 H7868 0.961 . S
C7855 C7852 1.539 . S
C7855 H7869 0.958 . S
C7855 H7870 0.961 . S
C7855 H7871 0.960 . S
H7856 C7840 0.931 . S
H7857 C7845 0.929 . S
H7858 C7846 0.960 . S
H7859 C7846 0.962 . S
H7860 C7846 0.960 . S
H7861 C7847 0.961 . S
H7862 C7847 0.961 . S
H7863 C7847 0.961 . S
H7864 C7848 0.931 . S
H7865 C7853 0.930 . S
H7866 C7854 0.956 . S
H7867 C7854 0.961 . S
H7868 C7854 0.961 . S
H7869 C7855 0.958 . S
H7870 C7855 0.961 . S
H7871 C7855 0.960 . S
C7872 C7873 1.391 . S
C7872 C7874 1.394 . S
C7872 H7888 0.931 . S
C7873 C7872 1.391 . S
C7873 C7877 1.376 . S
C7874 C7872 1.394 . S
C7874 C7875 1.369 . S
C7874 C7878 1.531 . S
C7875 C7874 1.369 . S
C7875 C7876 1.410 . S
C7875 C7883 1.503 . S
C7876 C7875 1.410 . S
C7876 C7877 1.392 . S
C7876 C7879 1.511 . S
C7877 C7873 1.376 . S
C7877 C7876 1.392 . S
C7877 H7889 0.929 . S
C7878 C7874 1.531 . S
C7878 H7890 0.960 . S
C7878 H7891 0.962 . S
C7878 H7892 0.960 . S
C7879 C7876 1.511 . S
C7879 H7893 0.961 . S
C7879 H7894 0.961 . S
C7879 H7895 0.961 . S
C7880 C7881 1.370 . S
C7880 C7882 1.363 . S
C7880 H7896 0.931 . S
C7881 C7880 1.370 . S
C7881 C7885 1.408 . S
C7882 C7880 1.363 . S
C7882 C7883 1.370 . S
C7882 C7886 1.524 . S
C7883 C7875 1.503 . S
C7883 C7882 1.370 . S
C7883 C7884 1.403 . S
C7884 C7883 1.403 . S
C7884 C7885 1.404 . S
C7884 C7887 1.539 . S
C7885 C7881 1.408 . S
C7885 C7884 1.404 . S
C7885 H7897 0.930 . S
C7886 C7882 1.524 . S
C7886 H7898 0.956 . S
C7886 H7899 0.961 . S
C7886 H7900 0.961 . S
C7887 C7884 1.539 . S
C7887 H7901 0.958 . S
C7887 H7902 0.961 . S
C7887 H7903 0.960 . S
H7888 C7872 0.931 . S
H7889 C7877 0.929 . S
H7890 C7878 0.960 . S
H7891 C7878 0.962 . S
H7892 C7878 0.960 . S
H7893 C7879 0.961 . S
H7894 C7879 0.961 . S
H7895 C7879 0.961 . S
H7896 C7880 0.931 . S
H7897 C7885 0.930 . S
H7898 C7886 0.956 . S
H7899 C7886 0.961 . S
H7900 C7886 0.961 . S
H7901 C7887 0.958 . S
H7902 C7887 0.961 . S
H7903 C7887 0.960 . S
C7904 C7905 1.391 . S
C7904 C7906 1.394 . S
C7904 H7920 0.931 . S
C7905 C7904 1.391 . S
C7905 C7909 1.376 . S
C7906 C7904 1.394 . S
C7906 C7907 1.369 . S
C7906 C7910 1.531 . S
C7907 C7906 1.369 . S
C7907 C7908 1.410 . S
C7907 C7915 1.503 . S
C7908 C7907 1.410 . S
C7908 C7909 1.392 . S
C7908 C7911 1.511 . S
C7909 C7905 1.376 . S
C7909 C7908 1.392 . S
C7909 H7921 0.929 . S
C7910 C7906 1.531 . S
C7910 H7922 0.960 . S
C7910 H7923 0.962 . S
C7910 H7924 0.960 . S
C7911 C7908 1.511 . S
C7911 H7925 0.961 . S
C7911 H7926 0.961 . S
C7911 H7927 0.961 . S
C7912 C7913 1.370 . S
C7912 C7914 1.363 . S
C7912 H7928 0.931 . S
C7913 C7912 1.370 . S
C7913 C7917 1.408 . S
C7914 C7912 1.363 . S
C7914 C7915 1.370 . S
C7914 C7918 1.524 . S
C7915 C7907 1.503 . S
C7915 C7914 1.370 . S
C7915 C7916 1.403 . S
C7916 C7915 1.403 . S
C7916 C7917 1.404 . S
C7916 C7919 1.539 . S
C7917 C7913 1.408 . S
C7917 C7916 1.404 . S
C7917 H7929 0.930 . S
C7918 C7914 1.524 . S
C7918 H7930 0.956 . S
C7918 H7931 0.961 . S
C7918 H7932 0.961 . S
C7919 C7916 1.539 . S
C7919 H7933 0.958 . S
C7919 H7934 0.961 . S
C7919 H7935 0.960 . S
H7920 C7904 0.931 . S
H7921 C7909 0.929 . S
H7922 C7910 0.960 . S
H7923 C7910 0.962 . S
H7924 C7910 0.960 . S
H7925 C7911 0.961 . S
H7926 C7911 0.961 . S
H7927 C7911 0.961 . S
H7928 C7912 0.931 . S
H7929 C7917 0.930 . S
H7930 C7918 0.956 . S
H7931 C7918 0.961 . S
H7932 C7918 0.961 . S
H7933 C7919 0.958 . S
H7934 C7919 0.961 . S
H7935 C7919 0.960 . S
C7936 C7937 1.391 . S
C7936 C7938 1.394 . S
C7936 H7952 0.931 . S
C7937 C7936 1.391 . S
C7937 C7941 1.376 . S
C7938 C7936 1.394 . S
C7938 C7939 1.369 . S
C7938 C7942 1.531 . S
C7939 C7938 1.369 . S
C7939 C7940 1.410 . S
C7939 C7947 1.503 . S
C7940 C7939 1.410 . S
C7940 C7941 1.392 . S
C7940 C7943 1.511 . S
C7941 C7937 1.376 . S
C7941 C7940 1.392 . S
C7941 H7953 0.929 . S
C7942 C7938 1.531 . S
C7942 H7954 0.960 . S
C7942 H7955 0.962 . S
C7942 H7956 0.960 . S
C7943 C7940 1.511 . S
C7943 H7957 0.961 . S
C7943 H7958 0.961 . S
C7943 H7959 0.961 . S
C7944 C7945 1.370 . S
C7944 C7946 1.363 . S
C7944 H7960 0.931 . S
C7945 C7944 1.370 . S
C7945 C7949 1.408 . S
C7946 C7944 1.363 . S
C7946 C7947 1.370 . S
C7946 C7950 1.524 . S
C7947 C7939 1.503 . S
C7947 C7946 1.370 . S
C7947 C7948 1.403 . S
C7948 C7947 1.403 . S
C7948 C7949 1.404 . S
C7948 C7951 1.539 . S
C7949 C7945 1.408 . S
C7949 C7948 1.404 . S
C7949 H7961 0.930 . S
C7950 C7946 1.524 . S
C7950 H7962 0.956 . S
C7950 H7963 0.961 . S
C7950 H7964 0.961 . S
C7951 C7948 1.539 . S
C7951 H7965 0.958 . S
C7951 H7966 0.961 . S
C7951 H7967 0.960 . S
H7952 C7936 0.931 . S
H7953 C7941 0.929 . S
H7954 C7942 0.960 . S
H7955 C7942 0.962 . S
H7956 C7942 0.960 . S
H7957 C7943 0.961 . S
H7958 C7943 0.961 . S
H7959 C7943 0.961 . S
H7960 C7944 0.931 . S
H7961 C7949 0.930 . S
H7962 C7950 0.956 . S
H7963 C7950 0.961 . S
H7964 C7950 0.961 . S
H7965 C7951 0.958 . S
H7966 C7951 0.961 . S
H7967 C7951 0.960 . S
C7968 C7969 1.391 . S
C7968 C7970 1.394 . S
C7968 H7984 0.931 . S
C7969 C7968 1.391 . S
C7969 C7973 1.376 . S
C7970 C7968 1.394 . S
C7970 C7971 1.369 . S
C7970 C7974 1.531 . S
C7971 C7970 1.369 . S
C7971 C7972 1.410 . S
C7971 C7979 1.503 . S
C7972 C7971 1.410 . S
C7972 C7973 1.392 . S
C7972 C7975 1.511 . S
C7973 C7969 1.376 . S
C7973 C7972 1.392 . S
C7973 H7985 0.929 . S
C7974 C7970 1.531 . S
C7974 H7986 0.960 . S
C7974 H7987 0.962 . S
C7974 H7988 0.960 . S
C7975 C7972 1.511 . S
C7975 H7989 0.961 . S
C7975 H7990 0.961 . S
C7975 H7991 0.961 . S
C7976 C7977 1.370 . S
C7976 C7978 1.363 . S
C7976 H7992 0.931 . S
C7977 C7976 1.370 . S
C7977 C7981 1.408 . S
C7978 C7976 1.363 . S
C7978 C7979 1.370 . S
C7978 C7982 1.524 . S
C7979 C7971 1.503 . S
C7979 C7978 1.370 . S
C7979 C7980 1.403 . S
C7980 C7979 1.403 . S
C7980 C7981 1.404 . S
C7980 C7983 1.539 . S
C7981 C7977 1.408 . S
C7981 C7980 1.404 . S
C7981 H7993 0.930 . S
C7982 C7978 1.524 . S
C7982 H7994 0.956 . S
C7982 H7995 0.961 . S
C7982 H7996 0.961 . S
C7983 C7980 1.539 . S
C7983 H7997 0.958 . S
C7983 H7998 0.961 . S
C7983 H7999 0.960 . S
H7984 C7968 0.931 . S
H7985 C7973 0.929 . S
H7986 C7974 0.960 . S
H7987 C7974 0.962 . S
H7988 C7974 0.960 . S
H7989 C7975 0.961 . S
H7990 C7975 0.961 . S
H7991 C7975 0.961 . S
H7992 C7976 0.931 . S
H7993 C7981 0.930 . S
H7994 C7982 0.956 . S
H7995 C7982 0.961 . S
H7996 C7982 0.961 . S
H7997 C7983 0.958 . S
H7998 C7983 0.961 . S
H7999 C7983 0.960 . S
C8000 C8001 1.391 . S
C8000 C8002 1.394 . S
C8000 H8016 0.931 . S
C8001 C8000 1.391 . S
C8001 C8005 1.376 . S
C8002 C8000 1.394 . S
C8002 C8003 1.369 . S
C8002 C8006 1.531 . S
C8003 C8002 1.369 . S
C8003 C8004 1.410 . S
C8003 C8011 1.503 . S
C8004 C8003 1.410 . S
C8004 C8005 1.392 . S
C8004 C8007 1.511 . S
C8005 C8001 1.376 . S
C8005 C8004 1.392 . S
C8005 H8017 0.929 . S
C8006 C8002 1.531 . S
C8006 H8018 0.960 . S
C8006 H8019 0.962 . S
C8006 H8020 0.960 . S
C8007 C8004 1.511 . S
C8007 H8021 0.961 . S
C8007 H8022 0.961 . S
C8007 H8023 0.961 . S
C8008 C8009 1.370 . S
C8008 C8010 1.363 . S
C8008 H8024 0.931 . S
C8009 C8008 1.370 . S
C8009 C8013 1.408 . S
C8010 C8008 1.363 . S
C8010 C8011 1.370 . S
C8010 C8014 1.524 . S
C8011 C8003 1.503 . S
C8011 C8010 1.370 . S
C8011 C8012 1.403 . S
C8012 C8011 1.403 . S
C8012 C8013 1.404 . S
C8012 C8015 1.539 . S
C8013 C8009 1.408 . S
C8013 C8012 1.404 . S
C8013 H8025 0.930 . S
C8014 C8010 1.524 . S
C8014 H8026 0.956 . S
C8014 H8027 0.961 . S
C8014 H8028 0.961 . S
C8015 C8012 1.539 . S
C8015 H8029 0.958 . S
C8015 H8030 0.961 . S
C8015 H8031 0.960 . S
H8016 C8000 0.931 . S
H8017 C8005 0.929 . S
H8018 C8006 0.960 . S
H8019 C8006 0.962 . S
H8020 C8006 0.960 . S
H8021 C8007 0.961 . S
H8022 C8007 0.961 . S
H8023 C8007 0.961 . S
H8024 C8008 0.931 . S
H8025 C8013 0.930 . S
H8026 C8014 0.956 . S
H8027 C8014 0.961 . S
H8028 C8014 0.961 . S
H8029 C8015 0.958 . S
H8030 C8015 0.961 . S
H8031 C8015 0.960 . S
C8032 C8033 1.391 . S
C8032 C8034 1.394 . S
C8032 H8048 0.931 . S
C8033 C8032 1.391 . S
C8033 C8037 1.376 . S
C8034 C8032 1.394 . S
C8034 C8035 1.369 . S
C8034 C8038 1.531 . S
C8035 C8034 1.369 . S
C8035 C8036 1.410 . S
C8035 C8043 1.503 . S
C8036 C8035 1.410 . S
C8036 C8037 1.392 . S
C8036 C8039 1.511 . S
C8037 C8033 1.376 . S
C8037 C8036 1.392 . S
C8037 H8049 0.929 . S
C8038 C8034 1.531 . S
C8038 H8050 0.960 . S
C8038 H8051 0.962 . S
C8038 H8052 0.960 . S
C8039 C8036 1.511 . S
C8039 H8053 0.961 . S
C8039 H8054 0.961 . S
C8039 H8055 0.961 . S
C8040 C8041 1.370 . S
C8040 C8042 1.363 . S
C8040 H8056 0.931 . S
C8041 C8040 1.370 . S
C8041 C8045 1.408 . S
C8042 C8040 1.363 . S
C8042 C8043 1.370 . S
C8042 C8046 1.524 . S
C8043 C8035 1.503 . S
C8043 C8042 1.370 . S
C8043 C8044 1.403 . S
C8044 C8043 1.403 . S
C8044 C8045 1.404 . S
C8044 C8047 1.539 . S
C8045 C8041 1.408 . S
C8045 C8044 1.404 . S
C8045 H8057 0.930 . S
C8046 C8042 1.524 . S
C8046 H8058 0.956 . S
C8046 H8059 0.961 . S
C8046 H8060 0.961 . S
C8047 C8044 1.539 . S
C8047 H8061 0.958 . S
C8047 H8062 0.961 . S
C8047 H8063 0.960 . S
H8048 C8032 0.931 . S
H8049 C8037 0.929 . S
H8050 C8038 0.960 . S
H8051 C8038 0.962 . S
H8052 C8038 0.960 . S
H8053 C8039 0.961 . S
H8054 C8039 0.961 . S
H8055 C8039 0.961 . S
H8056 C8040 0.931 . S
H8057 C8045 0.930 . S
H8058 C8046 0.956 . S
H8059 C8046 0.961 . S
H8060 C8046 0.961 . S
H8061 C8047 0.958 . S
H8062 C8047 0.961 . S
H8063 C8047 0.960 . S
C8064 C8065 1.391 . S
C8064 C8066 1.394 . S
C8064 H8080 0.931 . S
C8065 C8064 1.391 . S
C8065 C8069 1.376 . S
C8066 C8064 1.394 . S
C8066 C8067 1.369 . S
C8066 C8070 1.531 . S
C8067 C8066 1.369 . S
C8067 C8068 1.410 . S
C8067 C8075 1.503 . S
C8068 C8067 1.410 . S
C8068 C8069 1.392 . S
C8068 C8071 1.511 . S
C8069 C8065 1.376 . S
C8069 C8068 1.392 . S
C8069 H8081 0.929 . S
C8070 C8066 1.531 . S
C8070 H8082 0.960 . S
C8070 H8083 0.962 . S
C8070 H8084 0.960 . S
C8071 C8068 1.511 . S
C8071 H8085 0.961 . S
C8071 H8086 0.961 . S
C8071 H8087 0.961 . S
C8072 C8073 1.370 . S
C8072 C8074 1.363 . S
C8072 H8088 0.931 . S
C8073 C8072 1.370 . S
C8073 C8077 1.408 . S
C8074 C8072 1.363 . S
C8074 C8075 1.370 . S
C8074 C8078 1.524 . S
C8075 C8067 1.503 . S
C8075 C8074 1.370 . S
C8075 C8076 1.403 . S
C8076 C8075 1.403 . S
C8076 C8077 1.404 . S
C8076 C8079 1.539 . S
C8077 C8073 1.408 . S
C8077 C8076 1.404 . S
C8077 H8089 0.930 . S
C8078 C8074 1.524 . S
C8078 H8090 0.956 . S
C8078 H8091 0.961 . S
C8078 H8092 0.961 . S
C8079 C8076 1.539 . S
C8079 H8093 0.958 . S
C8079 H8094 0.961 . S
C8079 H8095 0.960 . S
H8080 C8064 0.931 . S
H8081 C8069 0.929 . S
H8082 C8070 0.960 . S
H8083 C8070 0.962 . S
H8084 C8070 0.960 . S
H8085 C8071 0.961 . S
H8086 C8071 0.961 . S
H8087 C8071 0.961 . S
H8088 C8072 0.931 . S
H8089 C8077 0.930 . S
H8090 C8078 0.956 . S
H8091 C8078 0.961 . S
H8092 C8078 0.961 . S
H8093 C8079 0.958 . S
H8094 C8079 0.961 . S
H8095 C8079 0.960 . S
C8096 C8097 1.391 . S
C8096 C8098 1.394 . S
C8096 H8112 0.931 . S
C8097 C8096 1.391 . S
C8097 C8101 1.376 . S
C8098 C8096 1.394 . S
C8098 C8099 1.369 . S
C8098 C8102 1.531 . S
C8099 C8098 1.369 . S
C8099 C8100 1.410 . S
C8099 C8107 1.503 . S
C8100 C8099 1.410 . S
C8100 C8101 1.392 . S
C8100 C8103 1.511 . S
C8101 C8097 1.376 . S
C8101 C8100 1.392 . S
C8101 H8113 0.929 . S
C8102 C8098 1.531 . S
C8102 H8114 0.960 . S
C8102 H8115 0.962 . S
C8102 H8116 0.960 . S
C8103 C8100 1.511 . S
C8103 H8117 0.961 . S
C8103 H8118 0.961 . S
C8103 H8119 0.961 . S
C8104 C8105 1.370 . S
C8104 C8106 1.363 . S
C8104 H8120 0.931 . S
C8105 C8104 1.370 . S
C8105 C8109 1.408 . S
C8106 C8104 1.363 . S
C8106 C8107 1.370 . S
C8106 C8110 1.524 . S
C8107 C8099 1.503 . S
C8107 C8106 1.370 . S
C8107 C8108 1.403 . S
C8108 C8107 1.403 . S
C8108 C8109 1.404 . S
C8108 C8111 1.539 . S
C8109 C8105 1.408 . S
C8109 C8108 1.404 . S
C8109 H8121 0.930 . S
C8110 C8106 1.524 . S
C8110 H8122 0.956 . S
C8110 H8123 0.961 . S
C8110 H8124 0.961 . S
C8111 C8108 1.539 . S
C8111 H8125 0.958 . S
C8111 H8126 0.961 . S
C8111 H8127 0.960 . S
H8112 C8096 0.931 . S
H8113 C8101 0.929 . S
H8114 C8102 0.960 . S
H8115 C8102 0.962 . S
H8116 C8102 0.960 . S
H8117 C8103 0.961 . S
H8118 C8103 0.961 . S
H8119 C8103 0.961 . S
H8120 C8104 0.931 . S
H8121 C8109 0.930 . S
H8122 C8110 0.956 . S
H8123 C8110 0.961 . S
H8124 C8110 0.961 . S
H8125 C8111 0.958 . S
H8126 C8111 0.961 . S
H8127 C8111 0.960 . S
C8128 C8129 1.391 . S
C8128 C8130 1.394 . S
C8128 H8144 0.931 . S
C8129 C8128 1.391 . S
C8129 C8133 1.376 . S
C8130 C8128 1.394 . S
C8130 C8131 1.369 . S
C8130 C8134 1.531 . S
C8131 C8130 1.369 . S
C8131 C8132 1.410 . S
C8131 C8139 1.503 . S
C8132 C8131 1.410 . S
C8132 C8133 1.392 . S
C8132 C8135 1.511 . S
C8133 C8129 1.376 . S
C8133 C8132 1.392 . S
C8133 H8145 0.929 . S
C8134 C8130 1.531 . S
C8134 H8146 0.960 . S
C8134 H8147 0.962 . S
C8134 H8148 0.960 . S
C8135 C8132 1.511 . S
C8135 H8149 0.961 . S
C8135 H8150 0.961 . S
C8135 H8151 0.961 . S
C8136 C8137 1.370 . S
C8136 C8138 1.363 . S
C8136 H8152 0.931 . S
C8137 C8136 1.370 . S
C8137 C8141 1.408 . S
C8138 C8136 1.363 . S
C8138 C8139 1.370 . S
C8138 C8142 1.524 . S
C8139 C8131 1.503 . S
C8139 C8138 1.370 . S
C8139 C8140 1.403 . S
C8140 C8139 1.403 . S
C8140 C8141 1.404 . S
C8140 C8143 1.539 . S
C8141 C8137 1.408 . S
C8141 C8140 1.404 . S
C8141 H8153 0.930 . S
C8142 C8138 1.524 . S
C8142 H8154 0.956 . S
C8142 H8155 0.961 . S
C8142 H8156 0.961 . S
C8143 C8140 1.539 . S
C8143 H8157 0.958 . S
C8143 H8158 0.961 . S
C8143 H8159 0.960 . S
H8144 C8128 0.931 . S
H8145 C8133 0.929 . S
H8146 C8134 0.960 . S
H8147 C8134 0.962 . S
H8148 C8134 0.960 . S
H8149 C8135 0.961 . S
H8150 C8135 0.961 . S
H8151 C8135 0.961 . S
H8152 C8136 0.931 . S
H8153 C8141 0.930 . S
H8154 C8142 0.956 . S
H8155 C8142 0.961 . S
H8156 C8142 0.961 . S
H8157 C8143 0.958 . S
H8158 C8143 0.961 . S
H8159 C8143 0.960 . S
C8160 C8161 1.391 . S
C8160 C8162 1.394 . S
C8160 H8176 0.931 . S
C8161 C8160 1.391 . S
C8161 C8165 1.376 . S
C8162 C8160 1.394 . S
C8162 C8163 1.369 . S
C8162 C8166 1.531 . S
C8163 C8162 1.369 . S
C8163 C8164 1.410 . S
C8163 C8171 1.503 . S
C8164 C8163 1.410 . S
C8164 C8165 1.392 . S
C8164 C8167 1.511 . S
C8165 C8161 1.376 . S
C8165 C8164 1.392 . S
C8165 H8177 0.929 . S
C8166 C8162 1.531 . S
C8166 H8178 0.960 . S
C8166 H8179 0.962 . S
C8166 H8180 0.960 . S
C8167 C8164 1.511 . S
C8167 H8181 0.961 . S
C8167 H8182 0.961 . S
C8167 H8183 0.961 . S
C8168 C8169 1.370 . S
C8168 C8170 1.363 . S
C8168 H8184 0.931 . S
C8169 C8168 1.370 . S
C8169 C8173 1.408 . S
C8170 C8168 1.363 . S
C8170 C8171 1.370 . S
C8170 C8174 1.524 . S
C8171 C8163 1.503 . S
C8171 C8170 1.370 . S
C8171 C8172 1.403 . S
C8172 C8171 1.403 . S
C8172 C8173 1.404 . S
C8172 C8175 1.539 . S
C8173 C8169 1.408 . S
C8173 C8172 1.404 . S
C8173 H8185 0.930 . S
C8174 C8170 1.524 . S
C8174 H8186 0.956 . S
C8174 H8187 0.961 . S
C8174 H8188 0.961 . S
C8175 C8172 1.539 . S
C8175 H8189 0.958 . S
C8175 H8190 0.961 . S
C8175 H8191 0.960 . S
H8176 C8160 0.931 . S
H8177 C8165 0.929 . S
H8178 C8166 0.960 . S
H8179 C8166 0.962 . S
H8180 C8166 0.960 . S
H8181 C8167 0.961 . S
H8182 C8167 0.961 . S
H8183 C8167 0.961 . S
H8184 C8168 0.931 . S
H8185 C8173 0.930 . S
H8186 C8174 0.956 . S
H8187 C8174 0.961 . S
H8188 C8174 0.961 . S
H8189 C8175 0.958 . S
H8190 C8175 0.961 . S
H8191 C8175 0.960 . S
C8192 C8193 1.391 . S
C8192 C8194 1.394 . S
C8192 H8208 0.931 . S
C8193 C8192 1.391 . S
C8193 C8197 1.376 . S
C8194 C8192 1.394 . S
C8194 C8195 1.369 . S
C8194 C8198 1.531 . S
C8195 C8194 1.369 . S
C8195 C8196 1.410 . S
C8195 C8203 1.503 . S
C8196 C8195 1.410 . S
C8196 C8197 1.392 . S
C8196 C8199 1.511 . S
C8197 C8193 1.376 . S
C8197 C8196 1.392 . S
C8197 H8209 0.929 . S
C8198 C8194 1.531 . S
C8198 H8210 0.960 . S
C8198 H8211 0.962 . S
C8198 H8212 0.960 . S
C8199 C8196 1.511 . S
C8199 H8213 0.961 . S
C8199 H8214 0.961 . S
C8199 H8215 0.961 . S
C8200 C8201 1.370 . S
C8200 C8202 1.363 . S
C8200 H8216 0.931 . S
C8201 C8200 1.370 . S
C8201 C8205 1.408 . S
C8202 C8200 1.363 . S
C8202 C8203 1.370 . S
C8202 C8206 1.524 . S
C8203 C8195 1.503 . S
C8203 C8202 1.370 . S
C8203 C8204 1.403 . S
C8204 C8203 1.403 . S
C8204 C8205 1.404 . S
C8204 C8207 1.539 . S
C8205 C8201 1.408 . S
C8205 C8204 1.404 . S
C8205 H8217 0.930 . S
C8206 C8202 1.524 . S
C8206 H8218 0.956 . S
C8206 H8219 0.961 . S
C8206 H8220 0.961 . S
C8207 C8204 1.539 . S
C8207 H8221 0.958 . S
C8207 H8222 0.961 . S
C8207 H8223 0.960 . S
H8208 C8192 0.931 . S
H8209 C8197 0.929 . S
H8210 C8198 0.960 . S
H8211 C8198 0.962 . S
H8212 C8198 0.960 . S
H8213 C8199 0.961 . S
H8214 C8199 0.961 . S
H8215 C8199 0.961 . S
H8216 C8200 0.931 . S
H8217 C8205 0.930 . S
H8218 C8206 0.956 . S
H8219 C8206 0.961 . S
H8220 C8206 0.961 . S
H8221 C8207 0.958 . S
H8222 C8207 0.961 . S
H8223 C8207 0.960 . S
C8224 C8225 1.391 . S
C8224 C8226 1.394 . S
C8224 H8240 0.931 . S
C8225 C8224 1.391 . S
C8225 C8229 1.376 . S
C8226 C8224 1.394 . S
C8226 C8227 1.369 . S
C8226 C8230 1.531 . S
C8227 C8226 1.369 . S
C8227 C8228 1.410 . S
C8227 C8235 1.503 . S
C8228 C8227 1.410 . S
C8228 C8229 1.392 . S
C8228 C8231 1.511 . S
C8229 C8225 1.376 . S
C8229 C8228 1.392 . S
C8229 H8241 0.929 . S
C8230 C8226 1.531 . S
C8230 H8242 0.960 . S
C8230 H8243 0.962 . S
C8230 H8244 0.960 . S
C8231 C8228 1.511 . S
C8231 H8245 0.961 . S
C8231 H8246 0.961 . S
C8231 H8247 0.961 . S
C8232 C8233 1.370 . S
C8232 C8234 1.363 . S
C8232 H8248 0.931 . S
C8233 C8232 1.370 . S
C8233 C8237 1.408 . S
C8234 C8232 1.363 . S
C8234 C8235 1.370 . S
C8234 C8238 1.524 . S
C8235 C8227 1.503 . S
C8235 C8234 1.370 . S
C8235 C8236 1.403 . S
C8236 C8235 1.403 . S
C8236 C8237 1.404 . S
C8236 C8239 1.539 . S
C8237 C8233 1.408 . S
C8237 C8236 1.404 . S
C8237 H8249 0.930 . S
C8238 C8234 1.524 . S
C8238 H8250 0.956 . S
C8238 H8251 0.961 . S
C8238 H8252 0.961 . S
C8239 C8236 1.539 . S
C8239 H8253 0.958 . S
C8239 H8254 0.961 . S
C8239 H8255 0.960 . S
H8240 C8224 0.931 . S
H8241 C8229 0.929 . S
H8242 C8230 0.960 . S
H8243 C8230 0.962 . S
H8244 C8230 0.960 . S
H8245 C8231 0.961 . S
H8246 C8231 0.961 . S
H8247 C8231 0.961 . S
H8248 C8232 0.931 . S
H8249 C8237 0.930 . S
H8250 C8238 0.956 . S
H8251 C8238 0.961 . S
H8252 C8238 0.961 . S
H8253 C8239 0.958 . S
H8254 C8239 0.961 . S
H8255 C8239 0.960 . S
C8256 C8257 1.391 . S
C8256 C8258 1.394 . S
C8256 H8272 0.931 . S
C8257 C8256 1.391 . S
C8257 C8261 1.376 . S
C8258 C8256 1.394 . S
C8258 C8259 1.369 . S
C8258 C8262 1.531 . S
C8259 C8258 1.369 . S
C8259 C8260 1.410 . S
C8259 C8267 1.503 . S
C8260 C8259 1.410 . S
C8260 C8261 1.392 . S
C8260 C8263 1.511 . S
C8261 C8257 1.376 . S
C8261 C8260 1.392 . S
C8261 H8273 0.929 . S
C8262 C8258 1.531 . S
C8262 H8274 0.960 . S
C8262 H8275 0.962 . S
C8262 H8276 0.960 . S
C8263 C8260 1.511 . S
C8263 H8277 0.961 . S
C8263 H8278 0.961 . S
C8263 H8279 0.961 . S
C8264 C8265 1.370 . S
C8264 C8266 1.363 . S
C8264 H8280 0.931 . S
C8265 C8264 1.370 . S
C8265 C8269 1.408 . S
C8266 C8264 1.363 . S
C8266 C8267 1.370 . S
C8266 C8270 1.524 . S
C8267 C8259 1.503 . S
C8267 C8266 1.370 . S
C8267 C8268 1.403 . S
C8268 C8267 1.403 . S
C8268 C8269 1.404 . S
C8268 C8271 1.539 . S
C8269 C8265 1.408 . S
C8269 C8268 1.404 . S
C8269 H8281 0.930 . S
C8270 C8266 1.524 . S
C8270 H8282 0.956 . S
C8270 H8283 0.961 . S
C8270 H8284 0.961 . S
C8271 C8268 1.539 . S
C8271 H8285 0.958 . S
C8271 H8286 0.961 . S
C8271 H8287 0.960 . S
H8272 C8256 0.931 . S
H8273 C8261 0.929 . S
H8274 C8262 0.960 . S
H8275 C8262 0.962 . S
H8276 C8262 0.960 . S
H8277 C8263 0.961 . S
H8278 C8263 0.961 . S
H8279 C8263 0.961 . S
H8280 C8264 0.931 . S
H8281 C8269 0.930 . S
H8282 C8270 0.956 . S
H8283 C8270 0.961 . S
H8284 C8270 0.961 . S
H8285 C8271 0.958 . S
H8286 C8271 0.961 . S
H8287 C8271 0.960 . S
C8288 C8289 1.391 . S
C8288 C8290 1.394 . S
C8288 H8304 0.931 . S
C8289 C8288 1.391 . S
C8289 C8293 1.376 . S
C8290 C8288 1.394 . S
C8290 C8291 1.369 . S
C8290 C8294 1.531 . S
C8291 C8290 1.369 . S
C8291 C8292 1.410 . S
C8291 C8299 1.503 . S
C8292 C8291 1.410 . S
C8292 C8293 1.392 . S
C8292 C8295 1.511 . S
C8293 C8289 1.376 . S
C8293 C8292 1.392 . S
C8293 H8305 0.929 . S
C8294 C8290 1.531 . S
C8294 H8306 0.960 . S
C8294 H8307 0.962 . S
C8294 H8308 0.960 . S
C8295 C8292 1.511 . S
C8295 H8309 0.961 . S
C8295 H8310 0.961 . S
C8295 H8311 0.961 . S
C8296 C8297 1.370 . S
C8296 C8298 1.363 . S
C8296 H8312 0.931 . S
C8297 C8296 1.370 . S
C8297 C8301 1.408 . S
C8298 C8296 1.363 . S
C8298 C8299 1.370 . S
C8298 C8302 1.524 . S
C8299 C8291 1.503 . S
C8299 C8298 1.370 . S
C8299 C8300 1.403 . S
C8300 C8299 1.403 . S
C8300 C8301 1.404 . S
C8300 C8303 1.539 . S
C8301 C8297 1.408 . S
C8301 C8300 1.404 . S
C8301 H8313 0.930 . S
C8302 C8298 1.524 . S
C8302 H8314 0.956 . S
C8302 H8315 0.961 . S
C8302 H8316 0.961 . S
C8303 C8300 1.539 . S
C8303 H8317 0.958 . S
C8303 H8318 0.961 . S
C8303 H8319 0.960 . S
H8304 C8288 0.931 . S
H8305 C8293 0.929 . S
H8306 C8294 0.960 . S
H8307 C8294 0.962 . S
H8308 C8294 0.960 . S
H8309 C8295 0.961 . S
H8310 C8295 0.961 . S
H8311 C8295 0.961 . S
H8312 C8296 0.931 . S
H8313 C8301 0.930 . S
H8314 C8302 0.956 . S
H8315 C8302 0.961 . S
H8316 C8302 0.961 . S
H8317 C8303 0.958 . S
H8318 C8303 0.961 . S
H8319 C8303 0.960 . S
C8320 C8321 1.391 . S
C8320 C8322 1.394 . S
C8320 H8336 0.931 . S
C8321 C8320 1.391 . S
C8321 C8325 1.376 . S
C8322 C8320 1.394 . S
C8322 C8323 1.369 . S
C8322 C8326 1.531 . S
C8323 C8322 1.369 . S
C8323 C8324 1.410 . S
C8323 C8331 1.503 . S
C8324 C8323 1.410 . S
C8324 C8325 1.392 . S
C8324 C8327 1.511 . S
C8325 C8321 1.376 . S
C8325 C8324 1.392 . S
C8325 H8337 0.929 . S
C8326 C8322 1.531 . S
C8326 H8338 0.960 . S
C8326 H8339 0.962 . S
C8326 H8340 0.960 . S
C8327 C8324 1.511 . S
C8327 H8341 0.961 . S
C8327 H8342 0.961 . S
C8327 H8343 0.961 . S
C8328 C8329 1.370 . S
C8328 C8330 1.363 . S
C8328 H8344 0.931 . S
C8329 C8328 1.370 . S
C8329 C8333 1.408 . S
C8330 C8328 1.363 . S
C8330 C8331 1.370 . S
C8330 C8334 1.524 . S
C8331 C8323 1.503 . S
C8331 C8330 1.370 . S
C8331 C8332 1.403 . S
C8332 C8331 1.403 . S
C8332 C8333 1.404 . S
C8332 C8335 1.539 . S
C8333 C8329 1.408 . S
C8333 C8332 1.404 . S
C8333 H8345 0.930 . S
C8334 C8330 1.524 . S
C8334 H8346 0.956 . S
C8334 H8347 0.961 . S
C8334 H8348 0.961 . S
C8335 C8332 1.539 . S
C8335 H8349 0.958 . S
C8335 H8350 0.961 . S
C8335 H8351 0.960 . S
H8336 C8320 0.931 . S
H8337 C8325 0.929 . S
H8338 C8326 0.960 . S
H8339 C8326 0.962 . S
H8340 C8326 0.960 . S
H8341 C8327 0.961 . S
H8342 C8327 0.961 . S
H8343 C8327 0.961 . S
H8344 C8328 0.931 . S
H8345 C8333 0.930 . S
H8346 C8334 0.956 . S
H8347 C8334 0.961 . S
H8348 C8334 0.961 . S
H8349 C8335 0.958 . S
H8350 C8335 0.961 . S
H8351 C8335 0.960 . S
C8352 C8353 1.391 . S
C8352 C8354 1.394 . S
C8352 H8368 0.931 . S
C8353 C8352 1.391 . S
C8353 C8357 1.376 . S
C8354 C8352 1.394 . S
C8354 C8355 1.369 . S
C8354 C8358 1.531 . S
C8355 C8354 1.369 . S
C8355 C8356 1.410 . S
C8355 C8363 1.503 . S
C8356 C8355 1.410 . S
C8356 C8357 1.392 . S
C8356 C8359 1.511 . S
C8357 C8353 1.376 . S
C8357 C8356 1.392 . S
C8357 H8369 0.929 . S
C8358 C8354 1.531 . S
C8358 H8370 0.960 . S
C8358 H8371 0.962 . S
C8358 H8372 0.960 . S
C8359 C8356 1.511 . S
C8359 H8373 0.961 . S
C8359 H8374 0.961 . S
C8359 H8375 0.961 . S
C8360 C8361 1.370 . S
C8360 C8362 1.363 . S
C8360 H8376 0.931 . S
C8361 C8360 1.370 . S
C8361 C8365 1.408 . S
C8362 C8360 1.363 . S
C8362 C8363 1.370 . S
C8362 C8366 1.524 . S
C8363 C8355 1.503 . S
C8363 C8362 1.370 . S
C8363 C8364 1.403 . S
C8364 C8363 1.403 . S
C8364 C8365 1.404 . S
C8364 C8367 1.539 . S
C8365 C8361 1.408 . S
C8365 C8364 1.404 . S
C8365 H8377 0.930 . S
C8366 C8362 1.524 . S
C8366 H8378 0.956 . S
C8366 H8379 0.961 . S
C8366 H8380 0.961 . S
C8367 C8364 1.539 . S
C8367 H8381 0.958 . S
C8367 H8382 0.961 . S
C8367 H8383 0.960 . S
H8368 C8352 0.931 . S
H8369 C8357 0.929 . S
H8370 C8358 0.960 . S
H8371 C8358 0.962 . S
H8372 C8358 0.960 . S
H8373 C8359 0.961 . S
H8374 C8359 0.961 . S
H8375 C8359 0.961 . S
H8376 C8360 0.931 . S
H8377 C8365 0.930 . S
H8378 C8366 0.956 . S
H8379 C8366 0.961 . S
H8380 C8366 0.961 . S
H8381 C8367 0.958 . S
H8382 C8367 0.961 . S
H8383 C8367 0.960 . S
C8384 C8385 1.391 . S
C8384 C8386 1.394 . S
C8384 H8400 0.931 . S
C8385 C8384 1.391 . S
C8385 C8389 1.376 . S
C8386 C8384 1.394 . S
C8386 C8387 1.369 . S
C8386 C8390 1.531 . S
C8387 C8386 1.369 . S
C8387 C8388 1.410 . S
C8387 C8395 1.503 . S
C8388 C8387 1.410 . S
C8388 C8389 1.392 . S
C8388 C8391 1.511 . S
C8389 C8385 1.376 . S
C8389 C8388 1.392 . S
C8389 H8401 0.929 . S
C8390 C8386 1.531 . S
C8390 H8402 0.960 . S
C8390 H8403 0.962 . S
C8390 H8404 0.960 . S
C8391 C8388 1.511 . S
C8391 H8405 0.961 . S
C8391 H8406 0.961 . S
C8391 H8407 0.961 . S
C8392 C8393 1.370 . S
C8392 C8394 1.363 . S
C8392 H8408 0.931 . S
C8393 C8392 1.370 . S
C8393 C8397 1.408 . S
C8394 C8392 1.363 . S
C8394 C8395 1.370 . S
C8394 C8398 1.524 . S
C8395 C8387 1.503 . S
C8395 C8394 1.370 . S
C8395 C8396 1.403 . S
C8396 C8395 1.403 . S
C8396 C8397 1.404 . S
C8396 C8399 1.539 . S
C8397 C8393 1.408 . S
C8397 C8396 1.404 . S
C8397 H8409 0.930 . S
C8398 C8394 1.524 . S
C8398 H8410 0.956 . S
C8398 H8411 0.961 . S
C8398 H8412 0.961 . S
C8399 C8396 1.539 . S
C8399 H8413 0.958 . S
C8399 H8414 0.961 . S
C8399 H8415 0.960 . S
H8400 C8384 0.931 . S
H8401 C8389 0.929 . S
H8402 C8390 0.960 . S
H8403 C8390 0.962 . S
H8404 C8390 0.960 . S
H8405 C8391 0.961 . S
H8406 C8391 0.961 . S
H8407 C8391 0.961 . S
H8408 C8392 0.931 . S
H8409 C8397 0.930 . S
H8410 C8398 0.956 . S
H8411 C8398 0.961 . S
H8412 C8398 0.961 . S
H8413 C8399 0.958 . S
H8414 C8399 0.961 . S
H8415 C8399 0.960 . S
C8416 C8417 1.391 . S
C8416 C8418 1.394 . S
C8416 H8432 0.931 . S
C8417 C8416 1.391 . S
C8417 C8421 1.376 . S
C8418 C8416 1.394 . S
C8418 C8419 1.369 . S
C8418 C8422 1.531 . S
C8419 C8418 1.369 . S
C8419 C8420 1.410 . S
C8419 C8427 1.503 . S
C8420 C8419 1.410 . S
C8420 C8421 1.392 . S
C8420 C8423 1.511 . S
C8421 C8417 1.376 . S
C8421 C8420 1.392 . S
C8421 H8433 0.929 . S
C8422 C8418 1.531 . S
C8422 H8434 0.960 . S
C8422 H8435 0.962 . S
C8422 H8436 0.960 . S
C8423 C8420 1.511 . S
C8423 H8437 0.961 . S
C8423 H8438 0.961 . S
C8423 H8439 0.961 . S
C8424 C8425 1.370 . S
C8424 C8426 1.363 . S
C8424 H8440 0.931 . S
C8425 C8424 1.370 . S
C8425 C8429 1.408 . S
C8426 C8424 1.363 . S
C8426 C8427 1.370 . S
C8426 C8430 1.524 . S
C8427 C8419 1.503 . S
C8427 C8426 1.370 . S
C8427 C8428 1.403 . S
C8428 C8427 1.403 . S
C8428 C8429 1.404 . S
C8428 C8431 1.539 . S
C8429 C8425 1.408 . S
C8429 C8428 1.404 . S
C8429 H8441 0.930 . S
C8430 C8426 1.524 . S
C8430 H8442 0.956 . S
C8430 H8443 0.961 . S
C8430 H8444 0.961 . S
C8431 C8428 1.539 . S
C8431 H8445 0.958 . S
C8431 H8446 0.961 . S
C8431 H8447 0.960 . S
H8432 C8416 0.931 . S
H8433 C8421 0.929 . S
H8434 C8422 0.960 . S
H8435 C8422 0.962 . S
H8436 C8422 0.960 . S
H8437 C8423 0.961 . S
H8438 C8423 0.961 . S
H8439 C8423 0.961 . S
H8440 C8424 0.931 . S
H8441 C8429 0.930 . S
H8442 C8430 0.956 . S
H8443 C8430 0.961 . S
H8444 C8430 0.961 . S
H8445 C8431 0.958 . S
H8446 C8431 0.961 . S
H8447 C8431 0.960 . S
C3841 C2 1.499 . S
C3849 C3221 1.487 . S
C3873 C42 1.506 . S
C3881 C1341 1.503 . S
C3905 C3301 1.486 . S
C3913 C82 1.513 . S
C3937 C1421 1.509 . S
C3945 C122 1.512 . S
C3969 C162 1.510 . S
C3977 C3381 1.503 . S
C4001 C202 1.501 . S
C4009 C1501 1.486 . S
C4033 C3461 1.510 . S
C4041 C242 1.509 . S
C4065 C1581 1.510 . S
C4073 C282 1.511 . S
C4097 C322 1.495 . S
C4105 C3541 1.498 . S
C4129 C362 1.514 . S
C4137 C3821 1.501 . S
C4161 C402 1.516 . S
C4169 C3741 1.498 . S
C4193 C442 1.512 . S
C4201 C3781 1.502 . S
C4225 C1661 1.473 . S
C4233 C482 1.505 . S
C4257 C522 1.501 . S
C4265 C3621 1.502 . S
C4289 C1741 1.510 . S
C4297 C562 1.509 . S
C4321 C1781 1.493 . S
C4329 C602 1.513 . S
C4353 C2901 1.510 . S
C4361 C642 1.509 . S
C4385 C1141 1.476 . S
C4393 C682 1.504 . S
C4417 C3101 1.510 . S
C4425 C722 1.511 . S
C4449 C762 1.501 . S
C4457 C1221 1.502 . S
C4481 C1261 1.506 . S
C4489 C802 1.512 . S
C4513 C842 1.499 . S
C4521 C2981 1.500 . S
C4545 C3021 1.471 . S
C4553 C882 1.508 . S
C4577 C922 1.494 . S
C4585 C2941 1.496 . S
C4609 C2261 1.501 . S
C4617 C962 1.487 . S
C4641 C381 1.502 . S
C4649 C1002 1.488 . S
C4673 C1042 1.497 . S
C4681 C2341 1.514 . S
C4705 C1082 1.500 . S
C4713 C461 1.513 . S
C4737 C1122 1.473 . S
C4745 C2421 1.509 . S
C4769 C541 1.501 . S
C4777 C1162 1.488 . S
C4801 C2501 1.500 . S
C4809 C1202 1.484 . S
C4833 C1242 1.495 . S
C4841 C621 1.514 . S
C4865 C2581 1.514 . S
C4873 C1282 1.497 . S
C4897 C2861 1.499 . S
C4905 C1322 1.484 . S
C4929 C2781 1.513 . S
C4937 C1362 1.496 . S
C4961 C1402 1.503 . S
C4969 C2821 1.514 . S
C4993 C701 1.511 . S
C5001 C1442 1.493 . S
C5025 C1482 1.472 . S
C5033 C2661 1.509 . S
C5057 C781 1.502 . S
C5065 C1522 1.489 . S
C5089 C821 1.513 . S
C5097 C1562 1.499 . S
C5121 C1941 1.512 . S
C5129 C1602 1.498 . S
C5153 C181 1.500 . S
C5161 C1642 1.487 . S
C5185 C2141 1.502 . S
C5193 C1682 1.485 . S
C5217 C261 1.508 . S
C5225 C1722 1.491 . S
C5249 C301 1.508 . S
C5257 C1762 1.491 . S
C5281 C2021 1.501 . S
C5289 C1802 1.487 . S
C5313 C2061 1.517 . S
C5321 C1842 1.501 . S
C5345 C1882 1.509 . S
C5353 C1981 1.515 . S
C5377 C1301 1.497 . S
C5385 C1922 1.513 . S
C5409 C1962 1.507 . S
C5417 C3261 1.503 . S
C5441 C1381 1.498 . S
C5449 C2002 1.513 . S
C5473 C3341 1.510 . S
C5481 C2042 1.511 . S
C5505 C2082 1.516 . S
C5513 C1461 1.498 . S
C5537 C3421 1.506 . S
C5545 C2122 1.512 . S
C5569 C1541 1.478 . S
C5577 C2162 1.504 . S
C5601 C2202 1.494 . S
C5609 C3501 1.489 . S
C5633 C2242 1.493 . S
C5641 C1621 1.494 . S
C5665 C2282 1.496 . S
C5673 C1901 1.488 . S
C5697 C2322 1.509 . S
C5705 C1821 1.488 . S
C5729 C1861 1.484 . S
C5737 C2362 1.513 . S
C5761 C3581 1.471 . S
C5769 C2402 1.507 . S
C5793 C2442 1.512 . S
C5801 C1701 1.502 . S
C5825 C2482 1.493 . S
C5833 C3661 1.493 . S
C5857 C3701 1.490 . S
C5865 C2522 1.513 . S
C5889 C2562 1.515 . S
C5897 C981 1.500 . S
C5921 C2602 1.493 . S
C5929 C3061 1.492 . S
C5953 C1181 1.510 . S
C5961 C2642 1.509 . S
C5985 C3141 1.509 . S
C5993 C2682 1.508 . S
C6017 C3181 1.471 . S
C6025 C2722 1.506 . S
C6049 C1061 1.472 . S
C6057 C2762 1.509 . S
C6081 C1101 1.472 . S
C6089 C2802 1.509 . S
C6113 C2842 1.510 . S
C6121 C1021 1.488 . S
C6145 C341 1.515 . S
C6153 C2882 1.501 . S
C6177 C2301 1.501 . S
C6185 C2922 1.488 . S
C6209 C2962 1.502 . S
C6217 C421 1.513 . S
C6241 C3002 1.479 . S
C6249 C2381 1.509 . S
C6273 C501 1.513 . S
C6281 C3042 1.499 . S
C6305 C3082 1.469 . S
C6313 C2461 1.508 . S
C6337 C581 1.500 . S
C6345 C3122 1.485 . S
C6369 C2541 1.510 . S
C6377 C3162 1.496 . S
C6401 C3202 1.468 . S
C6409 C661 1.508 . S
C6433 C3242 1.474 . S
C6441 C941 1.509 . S
C6465 C861 1.512 . S
C6473 C3282 1.495 . S
C6497 C901 1.502 . S
C6505 C3322 1.486 . S
C6529 C2621 1.504 . S
C6537 C3362 1.491 . S
C6561 C741 1.517 . S
C6569 C3402 1.501 . S
C6593 C3442 1.497 . S
C6601 C2701 1.514 . S
C6625 C2741 1.517 . S
C6633 C3482 1.501 . S
C6657 C21 1.508 . S
C6665 C3522 1.491 . S
C6689 C3562 1.502 . S
C6697 C2101 1.515 . S
C6721 C221 1.502 . S
C6729 C3602 1.486 . S
C6753 C2181 1.517 . S
C6761 C3642 1.501 . S
C6785 C2221 1.504 . S
C6793 C3682 1.491 . S
C6817 C101 1.499 . S
C6825 C3722 1.484 . S
C6849 C3762 1.509 . S
C6857 C141 1.515 . S
C6881 C3802 1.497 . S
C6889 C61 1.512 . S
C6913 C375 1.505 . S
C6921 C15 1.510 . S
C6945 C415 1.504 . S
C6953 C55 1.510 . S
C6977 C455 1.506 . S
C6985 C95 1.510 . S
C7009 C335 1.508 . S
C7017 C135 1.508 . S
C7041 C615 1.505 . S
C7049 C175 1.510 . S
C7073 C495 1.508 . S
C7081 C215 1.508 . S
C7105 C255 1.506 . S
C7113 C535 1.509 . S
C7137 C575 1.508 . S
C7145 C295 1.509 . S
C7169 C655 1.506 . S
C7177 C735 1.509 . S
C7201 C2815 1.508 . S
C7209 C695 1.508 . S
C7233 C775 1.506 . S
C7241 C2855 1.510 . S
C7265 C2775 1.508 . S
C7273 C815 1.509 . S
C7297 C2735 1.508 . S
C7305 C855 1.508 . S
C7329 C895 1.506 . S
C7337 C2615 1.508 . S
C7361 C2695 1.503 . S
C7369 C935 1.510 . S
C7393 C975 1.501 . S
C7401 C1335 1.508 . S
C7425 C1015 1.507 . S
C7433 C1375 1.507 . S
C7457 C1415 1.504 . S
C7465 C1055 1.507 . S
C7489 C1295 1.508 . S
C7497 C1095 1.507 . S
C7521 C1575 1.504 . S
C7529 C1135 1.507 . S
C7553 C1455 1.505 . S
C7561 C1175 1.510 . S
C7585 C1215 1.503 . S
C7593 C1495 1.507 . S
C7617 C1535 1.506 . S
C7625 C1255 1.507 . S
C7649 C1695 1.506 . S
C7657 C1615 1.510 . S
C7681 C1655 1.500 . S
C7689 C3775 1.510 . S
C7713 C1735 1.504 . S
C7721 C3815 1.510 . S
C7745 C3735 1.508 . S
C7753 C1775 1.507 . S
C7777 C1815 1.502 . S
C7785 C3695 1.510 . S
C7809 C1855 1.506 . S
C7817 C3575 1.507 . S
C7841 C3655 1.504 . S
C7849 C1895 1.507 . S
C7873 C2295 1.507 . S
C7881 C1935 1.509 . S
C7905 C1975 1.507 . S
C7913 C2335 1.509 . S
C7937 C2015 1.506 . S
C7945 C2375 1.509 . S
C7969 C2255 1.505 . S
C7977 C2055 1.510 . S
C8001 C2535 1.505 . S
C8009 C2095 1.510 . S
C8033 C2415 1.508 . S
C8041 C2135 1.508 . S
C8065 C2175 1.507 . S
C8073 C2455 1.508 . S
C8097 C2215 1.507 . S
C8105 C2495 1.509 . S
C8129 C2575 1.504 . S
C8137 C2655 1.509 . S
C8161 C3255 1.508 . S
C8169 C2895 1.509 . S
C8193 C2935 1.508 . S
C8201 C3295 1.509 . S
C8225 C3335 1.500 . S
C8233 C2975 1.510 . S
C8257 C3215 1.509 . S
C8265 C3015 1.509 . S
C8289 C3495 1.500 . S
C8297 C3055 1.510 . S
C8321 C3375 1.505 . S
C8329 C3095 1.507 . S
C8353 C3415 1.509 . S
C8361 C3135 1.508 . S
C8385 C3455 1.504 . S
C8393 C3175 1.507 . S
C8417 C3535 1.502 . S
C8425 C3615 1.510 . S
