# Generated by pormake.
# Topology smu, (6)-cn, num edge types: 1
# Building blocks:
#     Node 0, Type 0, BuildingBlock: MIDCAF_clean_sbu_0, # of connection points: 6
#     Node 1, Type 0, BuildingBlock: MIDCAF_clean_sbu_0, # of connection points: 6
#     Node 2, Type 0, BuildingBlock: MIDCAF_clean_sbu_0, # of connection points: 6
#     Node 3, Type 0, BuildingBlock: MIDCAF_clean_sbu_0, # of connection points: 6
#     Node 4, Type 0, BuildingBlock: MIDCAF_clean_sbu_0, # of connection points: 6
#     Node 5, Type 0, BuildingBlock: MIDCAF_clean_sbu_0, # of connection points: 6
#     Edge 6, Type (0, 0), BuildingBlock: AJUNOK_clean_linker_0, # of connection points: 2
#     Edge 7, Type (0, 0), BuildingBlock: AJUNOK_clean_linker_0, # of connection points: 2
#     Edge 8, Type (0, 0), BuildingBlock: AJUNOK_clean_linker_0, # of connection points: 2
#     Edge 9, Type (0, 0), BuildingBlock: AJUNOK_clean_linker_0, # of connection points: 2
#     Edge 10, Type (0, 0), BuildingBlock: AJUNOK_clean_linker_0, # of connection points: 2
#     Edge 11, Type (0, 0), BuildingBlock: AJUNOK_clean_linker_0, # of connection points: 2
#     Edge 12, Type (0, 0), BuildingBlock: AJUNOK_clean_linker_0, # of connection points: 2
#     Edge 13, Type (0, 0), BuildingBlock: AJUNOK_clean_linker_0, # of connection points: 2
#     Edge 14, Type (0, 0), BuildingBlock: AJUNOK_clean_linker_0, # of connection points: 2
#     Edge 15, Type (0, 0), BuildingBlock: AJUNOK_clean_linker_0, # of connection points: 2
#     Edge 16, Type (0, 0), BuildingBlock: AJUNOK_clean_linker_0, # of connection points: 2
#     Edge 17, Type (0, 0), BuildingBlock: AJUNOK_clean_linker_0, # of connection points: 2
#     Edge 18, Type (0, 0), BuildingBlock: AJUNOK_clean_linker_0, # of connection points: 2
#     Edge 19, Type (0, 0), BuildingBlock: AJUNOK_clean_linker_0, # of connection points: 2
#     Edge 20, Type (0, 0), BuildingBlock: AJUNOK_clean_linker_0, # of connection points: 2
#     Edge 21, Type (0, 0), BuildingBlock: AJUNOK_clean_linker_0, # of connection points: 2
#     Edge 22, Type (0, 0), BuildingBlock: AJUNOK_clean_linker_0, # of connection points: 2
#     Edge 23, Type (0, 0), BuildingBlock: AJUNOK_clean_linker_0, # of connection points: 2
# Relax obj value: 0.354
# Max RMSD: 0.260
# Mean RMSD: 0.260
data_MOF--net-smu--node1-MIDCAF_clean_sbu_0--edge1-AJUNOK_clean_linker_0
_symmetry_space_group_name_H-M    P1
_symmetry_Int_Tables_number       1
_symmetry_cell_setting            triclinic
loop_
_symmetry_equiv_pos_as_xyz
'x, y, z'
_cell_length_a     21.597841
_cell_length_b     21.428385
_cell_length_c     22.308229
_cell_angle_alpha  91.396775
_cell_angle_beta   90.374641
_cell_angle_gamma 120.71006
loop_
_atom_site_label
_atom_site_type_symbol
_atom_site_fract_x
_atom_site_fract_y
_atom_site_fract_z
_atom_type_partial_charge
Zn0 Zn 0.19351 0.00647 0.16881 0.0
Zn1 Zn 0.37445 0.10505 0.30968 0.0
Zn2 Zn 0.28198 0.04991 0.24278 0.0
C3 C 0.41294 0.03014 0.24396 0.0
C4 C 0.26414 0.03132 0.37887 0.0
O5 O 0.24774 0.12992 0.23747 0.0
O6 O 0.13994 0.05368 0.19917 0.0
C7 C 0.30662 0.02974 0.10742 0.0
O8 O 0.37264 0.04275 0.21007 0.0
O9 O 0.40668 0.03294 0.3 0.0
O10 O 0.31542 0.09646 0.38061 0.0
O11 O 0.24576 -0.00438 0.32827 0.0
O12 O 0.25656 0.04249 0.09753 0.0
O13 O 0.32057 0.0208 0.16151 0.0
O14 O 0.19304 0.95318 0.27943 0.0
O15 O 0.15218 0.90271 0.19022 0.0
C16 C 0.15028 0.89711 0.24652 0.0
O17 O 0.31769 0.16601 0.24572 0.0
O18 O 0.42997 0.19969 0.26758 0.0
C19 C 0.18253 0.11299 0.22625 0.0
C20 C 0.38479 0.21517 0.24773 0.0
Zn21 Zn 0.77379 0.76054 0.28803 0.0
Zn22 Zn 0.65642 0.54402 0.34632 0.0
Zn23 Zn 0.69458 0.64672 0.28843 0.0
C24 C 0.54692 0.51209 0.27504 0.0
C25 C 0.70518 0.65843 0.42464 0.0
O26 O 0.81178 0.67651 0.28174 0.0
O27 O 0.85399 0.77384 0.33994 0.0
C28 C 0.70069 0.68256 0.17142 0.0
O29 O 0.60262 0.55577 0.2464 0.0
O30 O 0.552 0.51342 0.33155 0.0
O31 O 0.70765 0.60079 0.42152 0.0
O32 O 0.68829 0.67952 0.37768 0.0
O33 O 0.76338 0.72753 0.19328 0.0
O34 O 0.64908 0.65398 0.20833 0.0
O35 O 0.65472 0.72345 0.25811 0.0
O36 O 0.72597 0.81199 0.3196 0.0
C37 C 0.6739 0.78566 0.28267 0.0
O38 O 0.76638 0.60557 0.26189 0.0
O39 O 0.69825 0.49528 0.29543 0.0
C40 C 0.86467 0.72853 0.3123 0.0
C41 C 0.75058 0.53889 0.2643 0.0
Zn42 Zn 0.88181 0.1695 0.14662 0.0
Zn43 Zn 0.82428 0.26865 0.30715 0.0
Zn44 Zn 0.87045 0.22993 0.23365 0.0
C45 C 0.8925 0.38348 0.24257 0.0
C46 C 0.89991 0.22977 0.37378 0.0
O47 O 0.78302 0.11104 0.22166 0.0
O48 O 0.81542 0.06261 0.14935 0.0
C49 C 0.89986 0.2872 0.09755 0.0
O50 O 0.87664 0.33054 0.20533 0.0
O51 O 0.89643 0.37339 0.29759 0.0
O52 O 0.83785 0.22151 0.37746 0.0
O53 O 0.92997 0.24326 0.32191 0.0
O54 O 0.86696 0.22114 0.08104 0.0
O55 O 0.91147 0.30386 0.15418 0.0
O56 O 0.96106 0.22868 0.26853 0.0
O57 O -0.01565 0.20828 0.17632 0.0
C58 C 0.0034 0.22434 0.23104 0.0
O59 O 0.75663 0.15422 0.23637 0.0
O60 O 0.72525 0.23071 0.27113 0.0
C61 C 0.77291 0.0545 0.19089 0.0
C62 C 0.70842 0.1711 0.24509 0.0
Zn63 Zn 0.02845 0.2436 0.81965 0.0
Zn64 Zn 0.11626 0.41766 0.68299 0.0
Zn65 Zn 0.06294 0.32415 0.74738 0.0
C66 C 0.03834 0.45245 0.75177 0.0
C67 C 0.04195 0.30137 0.60764 0.0
O68 O 0.14463 0.29229 0.75503 0.0
O69 O 0.06728 0.18294 0.78502 0.0
C70 C 0.04502 0.34932 0.88644 0.0
O71 O 0.05027 0.41101 0.78418 0.0
O72 O 0.04465 0.4496 0.69571 0.0
O73 O 0.10376 0.35795 0.60854 0.0
O74 O 0.00811 0.2809 0.65748 0.0
O75 O 0.07031 0.30814 0.89344 0.0
O76 O 0.02961 0.35872 0.83254 0.0
O77 O -0.03085 0.22905 0.70817 0.0
O78 O 0.92612 0.21316 0.79835 0.0
C79 C 0.91556 0.19635 0.7431 0.0
O80 O 0.17901 0.36343 0.75365 0.0
O81 O 0.2121 0.47449 0.72833 0.0
C82 C 0.12661 0.22571 0.76156 0.0
C83 C 0.22737 0.43118 0.75237 0.0
Zn84 Zn 0.2748 0.85147 0.68879 0.0
Zn85 Zn 0.18907 0.95067 0.81636 0.0
Zn86 Zn 0.2343 0.90963 0.7476 0.0
C87 C 0.25676 0.05941 0.74404 0.0
C88 C 0.27391 0.92699 0.88137 0.0
O89 O 0.15469 0.79457 0.75246 0.0
O90 O 0.23463 0.76157 0.73823 0.0
C91 C 0.2246 0.91505 0.61373 0.0
O92 O 0.23494 0.00281 0.70956 0.0
O93 O 0.26429 0.05323 0.79931 0.0
O94 O 0.2074 0.90392 0.88565 0.0
O95 O 0.30266 0.94477 0.8296 0.0
O96 O 0.22039 0.85433 0.61784 0.0
O97 O 0.24276 0.95713 0.66074 0.0
O98 O 0.33703 0.92576 0.78283 0.0
O99 O 0.38035 0.92327 0.69516 0.0
C100 C 0.39025 0.93496 0.75107 0.0
O101 O 0.11908 0.82828 0.75687 0.0
O102 O 0.09011 0.91031 0.77915 0.0
C103 C 0.17355 0.74688 0.75634 0.0
C104 C 0.07135 0.84701 0.76037 0.0
Zn105 Zn 0.5609 0.70474 0.72969 0.0
Zn106 Zn 0.7531 0.79937 0.85056 0.0
Zn107 Zn 0.65214 0.7435 0.79435 0.0
C108 C 0.77813 0.71604 0.78129 0.0
C109 C 0.65603 0.72649 0.9278 0.0
O110 O 0.61689 0.82352 0.79311 0.0
O111 O 0.50367 0.74115 0.77393 0.0
C112 C 0.67013 0.745 0.65914 0.0
O113 O 0.73642 0.73063 0.75116 0.0
O114 O 0.77911 0.72257 0.83762 0.0
O115 O 0.69861 0.79407 0.92395 0.0
O116 O 0.63148 0.6878 0.87922 0.0
O117 O 0.61967 0.75849 0.66009 0.0
O118 O 0.68647 0.72449 0.70749 0.0
O119 O 0.55974 0.64752 0.83088 0.0
O120 O 0.54056 0.6031 0.73959 0.0
C121 C 0.52493 0.5931 0.7942 0.0
O122 O 0.6876 0.85909 0.79378 0.0
O123 O 0.80065 0.88774 0.79939 0.0
C124 C 0.55004 0.80479 0.79162 0.0
C125 C 0.75457 0.90456 0.78502 0.0
C126 C 0.3553 0.02804 0.94911 0.0
C127 C 0.31749 0.95273 0.93686 0.0
C128 C 0.36233 0.0554 1.00803 0.0
C129 C 0.334 0.0081 0.05593 0.0
H130 H 0.36953 0.06536 0.91276 0.0
H131 H 0.38211 0.11282 0.01526 0.0
S132 S 0.24866 0.80807 0.04789 0.0
N133 N 0.26429 0.83255 0.97738 0.0
N134 N 0.28091 0.88419 0.08865 0.0
C135 C 0.30774 0.93389 0.04497 0.0
C136 C 0.29868 0.90596 0.98494 0.0
C137 C 0.72215 0.68988 0.5926 0.0
C138 C 0.69904 0.73986 0.60096 0.0
C139 C 0.72905 0.6676 0.53489 0.0
C140 C 0.71327 0.69475 0.48374 0.0
H141 H 0.72937 0.66338 0.63051 0.0
H142 H 0.74254 0.62548 0.53061 0.0
S143 S 0.6689 0.84083 0.48272 0.0
N144 N 0.67404 0.82638 0.55443 0.0
N145 N 0.68655 0.78425 0.44573 0.0
C146 C 0.69833 0.75101 0.49181 0.0
C147 C 0.69137 0.77369 0.5506 0.0
C148 C 0.90629 0.33225 0.99493 0.0
C149 C 0.94126 0.33925 0.05044 0.0
C150 C 0.94364 0.34726 0.94072 0.0
C151 C 0.01688 0.36819 0.94021 0.0
H152 H 0.84816 0.3067 0.99276 0.0
H153 H 0.91285 0.33319 0.89897 0.0
S154 S 0.13629 0.41 0.07374 0.0
N155 N 0.056 0.38204 0.10182 0.0
N156 N 0.1256 0.40801 1.00017 0.0
C157 C 0.05422 0.38478 0.99565 0.0
C158 C 0.01653 0.37109 0.05081 0.0
C159 C 0.24323 0.03837 0.48786 0.0
C160 C 0.23638 -0.00432 0.43636 0.0
C161 C 0.23441 0.0106 0.54541 0.0
C162 C 0.21791 0.93893 0.55343 0.0
H163 H 0.25963 0.09504 0.48391 0.0
H164 H 0.24465 0.04683 0.58375 0.0
S165 S 0.18532 0.80206 0.4324 0.0
N166 N 0.20782 0.87708 0.39688 0.0
N167 N 0.18578 0.82287 0.50414 0.0
C168 C 0.20452 0.89378 0.50183 0.0
C169 C 0.21519 0.92265 0.44346 0.0
C170 C 0.60347 0.66357 0.02362 0.0
C171 C 0.66097 0.69476 0.98404 0.0
C172 C 0.61549 0.65361 0.0838 0.0
C173 C 0.68565 0.67667 0.10605 0.0
H174 H 0.55046 0.65188 0.00932 0.0
H175 H 0.57068 0.63349 0.11401 0.0
S176 S 0.85025 0.74583 0.01604 0.0
N177 N 0.78729 0.73646 0.96811 0.0
N178 N 0.80996 0.71917 0.08087 0.0
C179 C 0.74162 0.70072 0.06511 0.0
C180 C 0.72922 0.70967 1.00413 0.0
C181 C 0.89812 0.2097 0.48442 0.0
C182 C 0.93799 0.23323 0.4312 0.0
C183 C 0.93194 0.22664 0.54146 0.0
C184 C 0.00728 0.26793 0.54792 0.0
H185 H 0.83981 0.18117 0.48236 0.0
H186 H 0.89858 0.21122 0.5807 0.0
S187 S 0.13709 0.33052 0.42301 0.0
N188 N 0.05732 0.2917 0.389 0.0
N189 N 0.12113 0.32199 0.49553 0.0
C190 C 0.04792 0.28569 0.49495 0.0
C191 C 0.01333 0.26872 0.43683 0.0
C192 C 0.51931 0.01813 0.25914 0.0
C193 C 0.48176 0.04092 0.22246 0.0
C194 C 0.5945 0.05742 0.26259 0.0
C195 C 0.6335 0.11953 0.22882 0.0
H196 H 0.49056 0.97567 0.2909 0.0
H197 H 0.62158 0.04356 0.29608 0.0
S198 S 0.56222 0.18781 0.11269 0.0
N199 N 0.49002 0.11886 0.1413 0.0
N200 N 0.63189 0.19299 0.1486 0.0
C201 C 0.59749 0.13623 0.18563 0.0
C202 C 0.52102 0.09591 0.18156 0.0
C203 C 0.42391 0.4042 0.27524 0.0
C204 C 0.48993 0.44413 0.24598 0.0
C205 C 0.38356 0.32827 0.26943 0.0
C206 C 0.40904 0.29082 0.2349 0.0
H207 H 0.40771 0.43093 0.30807 0.0
H208 H 0.33714 0.29876 0.29741 0.0
S209 S 0.56692 0.37045 0.13663 0.0
N210 N 0.56945 0.44113 0.1705 0.0
N211 N 0.4947 0.2982 0.16159 0.0
C212 C 0.46885 0.33029 0.19888 0.0
C213 C 0.50895 0.40746 0.20359 0.0
C214 C 0.81861 0.42549 0.19093 0.0
C215 C 0.87841 0.44223 0.22821 0.0
C216 C 0.78029 0.46186 0.19906 0.0
C217 C 0.80135 0.51658 0.24392 0.0
H218 H 0.7961 0.37857 0.16038 0.0
H219 H 0.73088 0.44327 0.17339 0.0
S220 S 0.95985 0.58739 0.34691 0.0
N221 N 0.96299 0.52459 0.30494 0.0
N222 N 0.88826 0.58895 0.3228 0.0
C223 C 0.86472 0.53824 0.2773 0.0
C224 C 0.90457 0.50268 0.26813 0.0
C225 C 0.01988 0.55612 0.74305 0.0
C226 C 0.04659 0.52023 0.77724 0.0
C227 C 0.05756 0.63196 0.74145 0.0
C228 C 0.12225 0.67318 0.77435 0.0
H229 H -0.02443 0.52557 0.71129 0.0
H230 H 0.04036 0.65769 0.70952 0.0
S231 S 0.20147 0.60659 0.88506 0.0
N232 N 0.13097 0.53239 0.85611 0.0
N233 N 0.20237 0.67518 0.85201 0.0
C234 C 0.14277 0.63876 0.81579 0.0
C235 C 0.10391 0.56175 0.81819 0.0
C236 C 0.43501 0.88443 0.82681 0.0
C237 C 0.45024 0.93071 0.77836 0.0
C238 C 0.47289 0.84815 0.83505 0.0
C239 C 0.52837 0.8592 0.79642 0.0
H240 H 0.38784 0.86865 0.85359 0.0
H241 H 0.45472 0.8068 0.86842 0.0
S242 S 0.59927 -0.01297 0.67192 0.0
N243 N 0.53276 -0.00435 0.69862 0.0
N244 N 0.6034 0.92675 0.71383 0.0
C245 C 0.55025 0.91239 0.75316 0.0
C246 C 0.51168 0.9491 0.74463 0.0
C247 C 0.33047 0.51652 0.81919 0.0
C248 C 0.30058 0.4585 0.77668 0.0
C249 C 0.4043 0.55346 0.83409 0.0
C250 C 0.45063 0.53448 0.80564 0.0
H251 H 0.29743 0.53636 0.83815 0.0
H252 H 0.42618 0.60235 0.86227 0.0
S253 S 0.39649 0.38052 0.69697 0.0
N254 N 0.32078 0.37901 0.71116 0.0
N255 N 0.45934 0.44761 0.73942 0.0
C256 C 0.41955 0.47138 0.76819 0.0
C257 C 0.34457 0.43402 0.75302 0.0
C258 C 0.17136 0.22063 0.21103 0.0
C259 C 0.15598 0.1606 0.2452 0.0
C260 C 0.12674 0.25028 0.2136 0.0
C261 C 0.06628 0.22069 0.25063 0.0
H262 H 0.21294 0.23954 0.17773 0.0
H263 H 0.1347 0.2909 0.18162 0.0
S264 S 0.01377 0.07334 0.35769 0.0
N265 N 0.08477 0.0803 0.32388 0.0
N266 N 0.00101 0.13643 0.32918 0.0
C267 C 0.05683 0.1674 0.29088 0.0
C268 C 0.10166 0.13678 0.28774 0.0
C269 C -0.00767 0.79907 0.34555 0.0
C270 C 0.94017 0.74812 0.30455 0.0
C271 C 0.0639 0.84259 0.3291 0.0
C272 C 0.0865 0.83435 0.27208 0.0
H273 H -0.0237 0.81158 0.388 0.0
H274 H 0.09893 0.88816 0.35864 0.0
S275 S -0.02487 0.69368 0.15536 0.0
N276 N 0.91817 0.68312 0.20858 0.0
N277 N 0.05474 0.75942 0.18029 0.0
C278 C 0.03738 0.77511 0.23485 0.0
C279 C 0.96354 0.73305 0.25043 0.0
C280 C 0.7007 0.9684 0.27014 0.0
C281 C 0.71855 0.98056 0.20937 0.0
C282 C 0.67029 0.89856 0.29288 0.0
C283 C 0.65831 0.83895 0.25586 0.0
H284 H 0.71761 0.01376 0.30166 0.0
H285 H 0.66607 0.89326 0.3411 0.0
S286 S 0.67166 0.83917 0.0903 0.0
N287 N 0.70378 0.92514 0.11013 0.0
N288 N 0.64726 0.79397 0.15306 0.0
C289 C 0.66374 0.84865 0.19363 0.0
C290 C 0.69469 0.9198 0.17037 0.0
C291 C 0.14848 0.14094 0.70074 0.0
C292 C 0.17401 0.1988 0.74314 0.0
C293 C 0.18406 0.10209 0.69271 0.0
C294 C 0.2452 0.11914 0.72804 0.0
H295 H 0.09788 0.12234 0.67684 0.0
H296 H 0.15834 0.05326 0.66428 0.0
S297 S 0.33903 0.27344 0.83816 0.0
N298 N 0.26798 0.27691 0.81534 0.0
N299 N 0.3362 0.20519 0.79957 0.0
C300 C 0.27589 0.18261 0.76509 0.0
C301 C 0.23937 0.22172 0.77342 0.0
C302 C 0.95518 0.81437 0.71142 0.0
C303 C -0.00515 0.79472 0.7485 0.0
C304 C 0.87994 0.77762 0.71343 0.0
C305 C 0.84292 0.72215 0.75437 0.0
H306 H -0.01727 0.86216 0.68454 0.0
H307 H 0.85215 0.79963 0.68909 0.0
S308 S 0.9218 0.64133 0.85137 0.0
N309 N -0.00826 0.70883 0.81902 0.0
N310 N 0.85005 0.64025 0.82379 0.0
C311 C 0.88145 0.69576 0.78525 0.0
C312 C 0.95793 0.73257 0.78255 0.0
C313 C 0.86942 0.07375 0.69969 0.0
C314 C 0.85414 0.12344 0.72814 0.0
C315 C 0.83272 0.00074 0.71537 0.0
C316 C 0.77861 0.97524 0.75851 0.0
H317 H 0.91626 0.09284 0.67183 0.0
H318 H 0.85047 0.96531 0.69702 0.0
S319 S 0.70658 0.07999 0.83365 0.0
N320 N 0.77157 0.13923 0.79132 0.0
N321 N 0.70358 0.00212 0.82166 0.0
C322 C 0.75596 0.0219 0.78048 0.0
C323 C 0.79293 0.09602 0.76421 0.0
loop_
_geom_bond_atom_site_label_1
_geom_bond_atom_site_label_2
_geom_bond_distance
_geom_bond_site_symmetry_2
_ccdc_geom_bond_type
Zn0 O6 1.920 . S
Zn0 O12 1.898 . S
Zn0 O15 1.905 1_545 S
Zn1 O9 1.905 . S
Zn1 O10 1.898 . S
Zn1 O18 1.920 . S
Zn2 O5 2.080 . S
Zn2 O8 2.114 . S
Zn2 O11 2.120 . S
Zn2 O13 2.120 . S
Zn2 O14 2.114 1_545 S
Zn2 O17 2.080 . S
C3 O8 1.166 . S
C3 O9 1.182 . S
C4 O10 1.167 . S
C4 O11 1.299 . S
O5 Zn2 2.080 . S
O5 C19 1.305 . S
O6 Zn0 1.920 . S
O6 C19 1.234 . S
C7 O12 1.167 . S
C7 O13 1.299 . S
O8 Zn2 2.114 . S
O8 C3 1.166 . S
O9 Zn1 1.905 . S
O9 C3 1.182 . S
O10 Zn1 1.898 . S
O10 C4 1.167 . S
O11 Zn2 2.120 . S
O11 C4 1.299 . S
O12 Zn0 1.898 . S
O12 C7 1.167 . S
O13 Zn2 2.120 . S
O13 C7 1.299 . S
O14 Zn2 2.114 1_565 S
O14 C16 1.166 . S
O15 Zn0 1.905 1_565 S
O15 C16 1.182 . S
C16 O14 1.166 . S
C16 O15 1.182 . S
O17 Zn2 2.080 . S
O17 C20 1.305 . S
O18 Zn1 1.920 . S
O18 C20 1.234 . S
C19 O5 1.305 . S
C19 O6 1.234 . S
C20 O17 1.305 . S
C20 O18 1.234 . S
Zn21 O27 1.920 . S
Zn21 O33 1.898 . S
Zn21 O36 1.905 . S
Zn22 O30 1.905 . S
Zn22 O31 1.898 . S
Zn22 O39 1.920 . S
Zn23 O26 2.080 . S
Zn23 O29 2.114 . S
Zn23 O32 2.120 . S
Zn23 O34 2.120 . S
Zn23 O35 2.114 . S
Zn23 O38 2.080 . S
C24 O29 1.166 . S
C24 O30 1.182 . S
C25 O31 1.167 . S
C25 O32 1.299 . S
O26 Zn23 2.080 . S
O26 C40 1.305 . S
O27 Zn21 1.920 . S
O27 C40 1.234 . S
C28 O33 1.167 . S
C28 O34 1.299 . S
O29 Zn23 2.114 . S
O29 C24 1.166 . S
O30 Zn22 1.905 . S
O30 C24 1.182 . S
O31 Zn22 1.898 . S
O31 C25 1.167 . S
O32 Zn23 2.120 . S
O32 C25 1.299 . S
O33 Zn21 1.898 . S
O33 C28 1.167 . S
O34 Zn23 2.120 . S
O34 C28 1.299 . S
O35 Zn23 2.114 . S
O35 C37 1.166 . S
O36 Zn21 1.905 . S
O36 C37 1.182 . S
C37 O35 1.166 . S
C37 O36 1.182 . S
O38 Zn23 2.080 . S
O38 C41 1.305 . S
O39 Zn22 1.920 . S
O39 C41 1.234 . S
C40 O26 1.305 . S
C40 O27 1.234 . S
C41 O38 1.305 . S
C41 O39 1.234 . S
Zn42 O48 1.920 . S
Zn42 O54 1.898 . S
Zn42 O57 1.905 1_655 S
Zn43 O51 1.905 . S
Zn43 O52 1.898 . S
Zn43 O60 1.920 . S
Zn44 O47 2.080 . S
Zn44 O50 2.114 . S
Zn44 O53 2.120 . S
Zn44 O55 2.120 . S
Zn44 O56 2.114 1_655 S
Zn44 O59 2.080 . S
C45 O50 1.166 . S
C45 O51 1.182 . S
C46 O52 1.167 . S
C46 O53 1.299 . S
O47 Zn44 2.080 . S
O47 C61 1.305 . S
O48 Zn42 1.920 . S
O48 C61 1.234 . S
C49 O54 1.167 . S
C49 O55 1.299 . S
O50 Zn44 2.114 . S
O50 C45 1.166 . S
O51 Zn43 1.905 . S
O51 C45 1.182 . S
O52 Zn43 1.898 . S
O52 C46 1.167 . S
O53 Zn44 2.120 . S
O53 C46 1.299 . S
O54 Zn42 1.898 . S
O54 C49 1.167 . S
O55 Zn44 2.120 . S
O55 C49 1.299 . S
O56 Zn44 2.114 1_455 S
O56 C58 1.166 . S
O57 Zn42 1.905 1_455 S
O57 C58 1.182 . S
C58 O56 1.166 . S
C58 O57 1.182 . S
O59 Zn44 2.080 . S
O59 C62 1.305 . S
O60 Zn43 1.920 . S
O60 C62 1.234 . S
C61 O47 1.305 . S
C61 O48 1.234 . S
C62 O59 1.305 . S
C62 O60 1.234 . S
Zn63 O69 1.920 . S
Zn63 O75 1.898 . S
Zn63 O78 1.905 1_455 S
Zn64 O72 1.905 . S
Zn64 O73 1.898 . S
Zn64 O81 1.920 . S
Zn65 O68 2.080 . S
Zn65 O71 2.114 . S
Zn65 O74 2.120 . S
Zn65 O76 2.120 . S
Zn65 O77 2.114 1_455 S
Zn65 O80 2.080 . S
C66 O71 1.166 . S
C66 O72 1.182 . S
C67 O73 1.167 . S
C67 O74 1.299 . S
O68 Zn65 2.080 . S
O68 C82 1.305 . S
O69 Zn63 1.920 . S
O69 C82 1.234 . S
C70 O75 1.167 . S
C70 O76 1.299 . S
O71 Zn65 2.114 . S
O71 C66 1.166 . S
O72 Zn64 1.905 . S
O72 C66 1.182 . S
O73 Zn64 1.898 . S
O73 C67 1.167 . S
O74 Zn65 2.120 . S
O74 C67 1.299 . S
O75 Zn63 1.898 . S
O75 C70 1.167 . S
O76 Zn65 2.120 . S
O76 C70 1.299 . S
O77 Zn65 2.114 1_655 S
O77 C79 1.166 . S
O78 Zn63 1.905 1_655 S
O78 C79 1.182 . S
C79 O77 1.166 . S
C79 O78 1.182 . S
O80 Zn65 2.080 . S
O80 C83 1.305 . S
O81 Zn64 1.920 . S
O81 C83 1.234 . S
C82 O68 1.305 . S
C82 O69 1.234 . S
C83 O80 1.305 . S
C83 O81 1.234 . S
Zn84 O90 1.920 . S
Zn84 O96 1.898 . S
Zn84 O99 1.905 . S
Zn85 O93 1.905 1_565 S
Zn85 O94 1.898 . S
Zn85 O102 1.920 . S
Zn86 O89 2.080 . S
Zn86 O92 2.114 1_565 S
Zn86 O95 2.120 . S
Zn86 O97 2.120 . S
Zn86 O98 2.114 . S
Zn86 O101 2.080 . S
C87 O92 1.166 . S
C87 O93 1.182 . S
C88 O94 1.167 . S
C88 O95 1.299 . S
O89 Zn86 2.080 . S
O89 C103 1.305 . S
O90 Zn84 1.920 . S
O90 C103 1.234 . S
C91 O96 1.167 . S
C91 O97 1.299 . S
O92 Zn86 2.114 1_545 S
O92 C87 1.166 . S
O93 Zn85 1.905 1_545 S
O93 C87 1.182 . S
O94 Zn85 1.898 . S
O94 C88 1.167 . S
O95 Zn86 2.120 . S
O95 C88 1.299 . S
O96 Zn84 1.898 . S
O96 C91 1.167 . S
O97 Zn86 2.120 . S
O97 C91 1.299 . S
O98 Zn86 2.114 . S
O98 C100 1.166 . S
O99 Zn84 1.905 . S
O99 C100 1.182 . S
C100 O98 1.166 . S
C100 O99 1.182 . S
O101 Zn86 2.080 . S
O101 C104 1.305 . S
O102 Zn85 1.920 . S
O102 C104 1.234 . S
C103 O89 1.305 . S
C103 O90 1.234 . S
C104 O101 1.305 . S
C104 O102 1.234 . S
Zn105 O111 1.920 . S
Zn105 O117 1.898 . S
Zn105 O120 1.905 . S
Zn106 O114 1.905 . S
Zn106 O115 1.898 . S
Zn106 O123 1.920 . S
Zn107 O110 2.080 . S
Zn107 O113 2.114 . S
Zn107 O116 2.120 . S
Zn107 O118 2.120 . S
Zn107 O119 2.114 . S
Zn107 O122 2.080 . S
C108 O113 1.166 . S
C108 O114 1.182 . S
C109 O115 1.167 . S
C109 O116 1.299 . S
O110 Zn107 2.080 . S
O110 C124 1.305 . S
O111 Zn105 1.920 . S
O111 C124 1.234 . S
C112 O117 1.167 . S
C112 O118 1.299 . S
O113 Zn107 2.114 . S
O113 C108 1.166 . S
O114 Zn106 1.905 . S
O114 C108 1.182 . S
O115 Zn106 1.898 . S
O115 C109 1.167 . S
O116 Zn107 2.120 . S
O116 C109 1.299 . S
O117 Zn105 1.898 . S
O117 C112 1.167 . S
O118 Zn107 2.120 . S
O118 C112 1.299 . S
O119 Zn107 2.114 . S
O119 C121 1.166 . S
O120 Zn105 1.905 . S
O120 C121 1.182 . S
C121 O119 1.166 . S
C121 O120 1.182 . S
O122 Zn107 2.080 . S
O122 C125 1.305 . S
O123 Zn106 1.920 . S
O123 C125 1.234 . S
C124 O110 1.305 . S
C124 O111 1.234 . S
C125 O122 1.305 . S
C125 O123 1.234 . S
C126 C127 1.369 1_545 S
C126 C128 1.419 1_556 S
C126 H130 0.930 . S
C127 C126 1.369 1_565 S
C127 C136 1.429 . S
C128 C126 1.419 1_554 S
C128 C129 1.363 . S
C128 H131 0.929 . S
C129 C128 1.363 . S
C129 C135 1.428 1_545 S
H130 C126 0.930 . S
H131 C128 0.929 . S
S132 N133 1.613 1_554 S
S132 N134 1.610 . S
N133 S132 1.613 1_556 S
N133 C136 1.350 . S
N134 S132 1.610 . S
N134 C135 1.351 . S
C135 C129 1.428 1_565 S
C135 N134 1.351 . S
C135 C136 1.434 1_554 S
C136 C127 1.429 . S
C136 N133 1.350 . S
C136 C135 1.434 1_556 S
C137 C138 1.369 . S
C137 C139 1.419 . S
C137 H141 0.930 . S
C138 C137 1.369 . S
C138 C147 1.429 . S
C139 C137 1.419 . S
C139 C140 1.363 . S
C139 H142 0.929 . S
C140 C139 1.363 . S
C140 C146 1.428 . S
H141 C137 0.930 . S
H142 C139 0.929 . S
S143 N144 1.613 . S
S143 N145 1.610 . S
N144 S143 1.613 . S
N144 C147 1.350 . S
N145 S143 1.610 . S
N145 C146 1.351 . S
C146 C140 1.428 . S
C146 N145 1.351 . S
C146 C147 1.434 . S
C147 C138 1.429 . S
C147 N144 1.350 . S
C147 C146 1.434 . S
C148 C149 1.369 . S
C148 C150 1.419 1_554 S
C148 H152 0.930 . S
C149 C148 1.369 . S
C149 C158 1.429 1_655 S
C150 C148 1.419 1_556 S
C150 C151 1.363 1_655 S
C150 H153 0.929 . S
C151 C150 1.363 1_455 S
C151 C157 1.428 . S
H152 C148 0.930 . S
H153 C150 0.929 . S
S154 N155 1.613 . S
S154 N156 1.610 1_554 S
N155 S154 1.613 . S
N155 C158 1.350 . S
N156 S154 1.610 1_556 S
N156 C157 1.351 . S
C157 C151 1.428 . S
C157 N156 1.351 . S
C157 C158 1.434 1_556 S
C158 C149 1.429 1_455 S
C158 N155 1.350 . S
C158 C157 1.434 1_554 S
C159 C160 1.369 . S
C159 C161 1.419 . S
C159 H163 0.930 . S
C160 C159 1.369 . S
C160 C169 1.429 1_545 S
C161 C159 1.419 . S
C161 C162 1.363 1_545 S
C161 H164 0.929 . S
C162 C161 1.363 1_565 S
C162 C168 1.428 . S
H163 C159 0.930 . S
H164 C161 0.929 . S
S165 N166 1.613 . S
S165 N167 1.610 . S
N166 S165 1.613 . S
N166 C169 1.350 . S
N167 S165 1.610 . S
N167 C168 1.351 . S
C168 C162 1.428 . S
C168 N167 1.351 . S
C168 C169 1.434 . S
C169 C160 1.429 1_565 S
C169 N166 1.350 . S
C169 C168 1.434 . S
C170 C171 1.369 . S
C170 C172 1.419 1_556 S
C170 H174 0.930 . S
C171 C170 1.369 . S
C171 C180 1.429 . S
C172 C170 1.419 1_554 S
C172 C173 1.363 . S
C172 H175 0.929 . S
C173 C172 1.363 . S
C173 C179 1.428 . S
H174 C170 0.930 . S
H175 C172 0.929 . S
S176 N177 1.613 . S
S176 N178 1.610 1_556 S
N177 S176 1.613 . S
N177 C180 1.350 . S
N178 S176 1.610 1_554 S
N178 C179 1.351 . S
C179 C173 1.428 . S
C179 N178 1.351 . S
C179 C180 1.434 1_554 S
C180 C171 1.429 . S
C180 N177 1.350 . S
C180 C179 1.434 1_556 S
C181 C182 1.369 . S
C181 C183 1.419 1_655 S
C181 H185 0.930 . S
C182 C181 1.369 . S
C182 C191 1.430 1_655 S
C183 C181 1.419 1_455 S
C183 C184 1.363 . S
C183 H186 0.929 . S
C184 C183 1.363 . S
C184 C190 1.428 . S
H185 C181 0.930 . S
H186 C183 0.929 . S
S187 N188 1.613 . S
S187 N189 1.610 . S
N188 S187 1.613 . S
N188 C191 1.346 . S
N189 S187 1.610 . S
N189 C190 1.351 . S
C190 C184 1.428 . S
C190 N189 1.351 . S
C190 C191 1.437 . S
C191 C182 1.430 1_455 S
C191 N188 1.346 . S
C191 C190 1.437 . S
C192 C193 1.369 . S
C192 C194 1.419 . S
C192 H196 0.930 . S
C193 C192 1.369 . S
C193 C202 1.429 . S
C194 C192 1.419 . S
C194 C195 1.363 . S
C194 H197 0.929 . S
C195 C194 1.363 . S
C195 C201 1.428 . S
H196 C192 0.930 . S
H197 C194 0.929 . S
S198 N199 1.613 . S
S198 N200 1.610 . S
N199 S198 1.613 . S
N199 C202 1.350 . S
N200 S198 1.610 . S
N200 C201 1.351 . S
C201 C195 1.428 . S
C201 N200 1.351 . S
C201 C202 1.434 . S
C202 C193 1.429 . S
C202 N199 1.350 . S
C202 C201 1.434 . S
C203 C204 1.369 . S
C203 C205 1.419 . S
C203 H207 0.930 . S
C204 C203 1.369 . S
C204 C213 1.429 . S
C205 C203 1.419 . S
C205 C206 1.363 . S
C205 H208 0.929 . S
C206 C205 1.363 . S
C206 C212 1.428 . S
H207 C203 0.930 . S
H208 C205 0.929 . S
S209 N210 1.613 . S
S209 N211 1.610 . S
N210 S209 1.613 . S
N210 C213 1.350 . S
N211 S209 1.610 . S
N211 C212 1.351 . S
C212 C206 1.428 . S
C212 N211 1.351 . S
C212 C213 1.434 . S
C213 C204 1.429 . S
C213 N210 1.350 . S
C213 C212 1.434 . S
C214 C215 1.369 . S
C214 C216 1.419 . S
C214 H218 0.930 . S
C215 C214 1.369 . S
C215 C224 1.429 . S
C216 C214 1.419 . S
C216 C217 1.363 . S
C216 H219 0.929 . S
C217 C216 1.363 . S
C217 C223 1.428 . S
H218 C214 0.930 . S
H219 C216 0.929 . S
S220 N221 1.613 . S
S220 N222 1.610 1_455 S
N221 S220 1.613 . S
N221 C224 1.350 1_455 S
N222 S220 1.610 1_655 S
N222 C223 1.351 . S
C223 C217 1.428 . S
C223 N222 1.351 . S
C223 C224 1.434 . S
C224 C215 1.429 . S
C224 N221 1.350 1_655 S
C224 C223 1.434 . S
C225 C226 1.369 . S
C225 C227 1.419 . S
C225 H229 0.930 . S
C226 C225 1.369 . S
C226 C235 1.429 . S
C227 C225 1.419 . S
C227 C228 1.363 . S
C227 H230 0.929 . S
C228 C227 1.363 . S
C228 C234 1.428 . S
H229 C225 0.930 . S
H230 C227 0.929 . S
S231 N232 1.613 . S
S231 N233 1.610 . S
N232 S231 1.613 . S
N232 C235 1.350 . S
N233 S231 1.610 . S
N233 C234 1.351 . S
C234 C228 1.428 . S
C234 N233 1.351 . S
C234 C235 1.434 . S
C235 C226 1.429 . S
C235 N232 1.350 . S
C235 C234 1.434 . S
C236 C237 1.369 . S
C236 C238 1.419 . S
C236 H240 0.930 . S
C237 C236 1.369 . S
C237 C246 1.429 . S
C238 C236 1.419 . S
C238 C239 1.363 . S
C238 H241 0.929 . S
C239 C238 1.363 . S
C239 C245 1.428 . S
H240 C236 0.930 . S
H241 C238 0.929 . S
S242 N243 1.613 . S
S242 N244 1.610 1_545 S
N243 S242 1.613 . S
N243 C246 1.350 1_545 S
N244 S242 1.610 1_565 S
N244 C245 1.351 . S
C245 C239 1.428 . S
C245 N244 1.351 . S
C245 C246 1.434 . S
C246 C237 1.429 . S
C246 N243 1.350 1_565 S
C246 C245 1.434 . S
C247 C248 1.369 . S
C247 C249 1.419 . S
C247 H251 0.930 . S
C248 C247 1.369 . S
C248 C257 1.429 . S
C249 C247 1.419 . S
C249 C250 1.363 . S
C249 H252 0.929 . S
C250 C249 1.363 . S
C250 C256 1.428 . S
H251 C247 0.930 . S
H252 C249 0.929 . S
S253 N254 1.613 . S
S253 N255 1.610 . S
N254 S253 1.613 . S
N254 C257 1.350 . S
N255 S253 1.610 . S
N255 C256 1.351 . S
C256 C250 1.428 . S
C256 N255 1.351 . S
C256 C257 1.434 . S
C257 C248 1.429 . S
C257 N254 1.350 . S
C257 C256 1.434 . S
C258 C259 1.369 . S
C258 C260 1.419 . S
C258 H262 0.930 . S
C259 C258 1.369 . S
C259 C268 1.429 . S
C260 C258 1.419 . S
C260 C261 1.363 . S
C260 H263 0.929 . S
C261 C260 1.363 . S
C261 C267 1.428 . S
H262 C258 0.930 . S
H263 C260 0.929 . S
S264 N265 1.613 . S
S264 N266 1.610 . S
N265 S264 1.613 . S
N265 C268 1.350 . S
N266 S264 1.610 . S
N266 C267 1.351 . S
C267 C261 1.428 . S
C267 N266 1.351 . S
C267 C268 1.434 . S
C268 C259 1.429 . S
C268 N265 1.350 . S
C268 C267 1.434 . S
C269 C270 1.369 1_455 S
C269 C271 1.419 . S
C269 H273 0.930 1_455 S
C270 C269 1.369 1_655 S
C270 C279 1.429 1_655 S
C271 C269 1.419 . S
C271 C272 1.363 . S
C271 H274 0.929 . S
C272 C271 1.363 . S
C272 C278 1.428 . S
H273 C269 0.930 1_655 S
H274 C271 0.929 . S
S275 N276 1.613 . S
S275 N277 1.610 . S
N276 S275 1.613 . S
N276 C279 1.350 . S
N277 S275 1.610 . S
N277 C278 1.351 . S
C278 C272 1.428 . S
C278 N277 1.351 . S
C278 C279 1.434 . S
C279 C270 1.429 1_455 S
C279 N276 1.350 . S
C279 C278 1.434 . S
C280 C281 1.369 1_565 S
C280 C282 1.419 . S
C280 H284 0.930 1_565 S
C281 C280 1.369 1_545 S
C281 C290 1.429 1_545 S
C282 C280 1.419 . S
C282 C283 1.363 . S
C282 H285 0.929 . S
C283 C282 1.363 . S
C283 C289 1.428 . S
H284 C280 0.930 1_545 S
H285 C282 0.929 . S
S286 N287 1.613 . S
S286 N288 1.610 . S
N287 S286 1.613 . S
N287 C290 1.350 . S
N288 S286 1.610 . S
N288 C289 1.351 . S
C289 C283 1.428 . S
C289 N288 1.351 . S
C289 C290 1.434 . S
C290 C281 1.429 1_565 S
C290 N287 1.350 . S
C290 C289 1.434 . S
C291 C292 1.369 . S
C291 C293 1.419 . S
C291 H295 0.930 . S
C292 C291 1.369 . S
C292 C301 1.429 . S
C293 C291 1.419 . S
C293 C294 1.363 . S
C293 H296 0.929 . S
C294 C293 1.363 . S
C294 C300 1.428 . S
H295 C291 0.930 . S
H296 C293 0.929 . S
S297 N298 1.613 . S
S297 N299 1.610 . S
N298 S297 1.613 . S
N298 C301 1.350 . S
N299 S297 1.610 . S
N299 C300 1.351 . S
C300 C294 1.428 . S
C300 N299 1.351 . S
C300 C301 1.434 . S
C301 C292 1.429 . S
C301 N298 1.350 . S
C301 C300 1.434 . S
C302 C303 1.369 1_655 S
C302 C304 1.419 . S
C302 H306 0.930 1_655 S
C303 C302 1.369 1_455 S
C303 C312 1.429 1_455 S
C304 C302 1.419 . S
C304 C305 1.363 . S
C304 H307 0.929 . S
C305 C304 1.363 . S
C305 C311 1.428 . S
H306 C302 0.930 1_455 S
H307 C304 0.929 . S
S308 N309 1.613 . S
S308 N310 1.610 . S
N309 S308 1.613 . S
N309 C312 1.350 . S
N310 S308 1.610 . S
N310 C311 1.351 . S
C311 C305 1.428 . S
C311 N310 1.351 . S
C311 C312 1.434 . S
C312 C303 1.429 1_655 S
C312 N309 1.350 . S
C312 C311 1.434 . S
C313 C314 1.369 . S
C313 C315 1.419 . S
C313 H317 0.930 . S
C314 C313 1.369 . S
C314 C323 1.429 . S
C315 C313 1.419 . S
C315 C316 1.363 1_545 S
C315 H318 0.929 1_545 S
C316 C315 1.363 1_565 S
C316 C322 1.428 1_565 S
H317 C313 0.930 . S
H318 C315 0.929 1_565 S
S319 N320 1.613 . S
S319 N321 1.610 . S
N320 S319 1.613 . S
N320 C323 1.350 . S
N321 S319 1.610 . S
N321 C322 1.351 . S
C322 C316 1.428 1_545 S
C322 N321 1.351 . S
C322 C323 1.434 . S
C323 C314 1.429 . S
C323 N320 1.350 . S
C323 C322 1.434 . S
C127 C88 1.407 . S
C129 C7 1.402 . S
C138 C112 1.483 . S
C140 C25 1.485 . S
C149 C49 1.405 . S
C151 C70 1.410 . S
C160 C4 1.491 . S
C162 C91 1.485 . S
C171 C109 1.399 . S
C173 C28 1.405 . S
C182 C46 1.486 . S
C184 C67 1.484 . S
C193 C3 1.036 . S
C195 C62 1.338 . S
C204 C24 1.036 . S
C206 C20 1.337 . S
C215 C45 1.022 . S
C217 C41 1.337 . S
C226 C66 1.014 . S
C228 C103 1.330 . S
C237 C100 1.031 . S
C239 C124 1.338 . S
C248 C83 1.331 . S
C250 C121 1.014 . S
C259 C19 1.173 . S
C261 C58 0.940 . S
C270 C40 1.180 . S
C272 C16 0.940 . S
C281 C61 1.178 . S
C283 C37 0.938 . S
C292 C82 1.187 . S
C294 C87 0.955 . S
C303 C104 1.179 . S
C305 C108 0.939 . S
C314 C79 0.936 . S
C316 C125 1.179 . S
