# Generated by pormake.
# Topology rhr, (4)-cn, num edge types: 1
# Building blocks:
#     Node 0, Type 0, BuildingBlock: KOZSID_clean_sbu_0, # of connection points: 4
#     Node 1, Type 0, BuildingBlock: KOZSID_clean_sbu_0, # of connection points: 4
#     Node 2, Type 0, BuildingBlock: KOZSID_clean_sbu_0, # of connection points: 4
#     Node 3, Type 0, BuildingBlock: KOZSID_clean_sbu_0, # of connection points: 4
#     Node 4, Type 0, BuildingBlock: KOZSID_clean_sbu_0, # of connection points: 4
#     Node 5, Type 0, BuildingBlock: KOZSID_clean_sbu_0, # of connection points: 4
#     Node 6, Type 0, BuildingBlock: KOZSID_clean_sbu_0, # of connection points: 4
#     Node 7, Type 0, BuildingBlock: KOZSID_clean_sbu_0, # of connection points: 4
#     Node 8, Type 0, BuildingBlock: KOZSID_clean_sbu_0, # of connection points: 4
#     Node 9, Type 0, BuildingBlock: KOZSID_clean_sbu_0, # of connection points: 4
#     Node 10, Type 0, BuildingBlock: KOZSID_clean_sbu_0, # of connection points: 4
#     Node 11, Type 0, BuildingBlock: KOZSID_clean_sbu_0, # of connection points: 4
#     Node 12, Type 0, BuildingBlock: KOZSID_clean_sbu_0, # of connection points: 4
#     Node 13, Type 0, BuildingBlock: KOZSID_clean_sbu_0, # of connection points: 4
#     Node 14, Type 0, BuildingBlock: KOZSID_clean_sbu_0, # of connection points: 4
#     Node 15, Type 0, BuildingBlock: KOZSID_clean_sbu_0, # of connection points: 4
#     Node 16, Type 0, BuildingBlock: KOZSID_clean_sbu_0, # of connection points: 4
#     Node 17, Type 0, BuildingBlock: KOZSID_clean_sbu_0, # of connection points: 4
#     Node 18, Type 0, BuildingBlock: KOZSID_clean_sbu_0, # of connection points: 4
#     Node 19, Type 0, BuildingBlock: KOZSID_clean_sbu_0, # of connection points: 4
#     Node 20, Type 0, BuildingBlock: KOZSID_clean_sbu_0, # of connection points: 4
#     Node 21, Type 0, BuildingBlock: KOZSID_clean_sbu_0, # of connection points: 4
#     Node 22, Type 0, BuildingBlock: KOZSID_clean_sbu_0, # of connection points: 4
#     Node 23, Type 0, BuildingBlock: KOZSID_clean_sbu_0, # of connection points: 4
#     Edge 24, Type (0, 0), BuildingBlock: MIFKUJ_clean_linker_0, # of connection points: 2
#     Edge 25, Type (0, 0), BuildingBlock: MIFKUJ_clean_linker_0, # of connection points: 2
#     Edge 26, Type (0, 0), BuildingBlock: MIFKUJ_clean_linker_0, # of connection points: 2
#     Edge 27, Type (0, 0), BuildingBlock: MIFKUJ_clean_linker_0, # of connection points: 2
#     Edge 28, Type (0, 0), BuildingBlock: MIFKUJ_clean_linker_0, # of connection points: 2
#     Edge 29, Type (0, 0), BuildingBlock: MIFKUJ_clean_linker_0, # of connection points: 2
#     Edge 30, Type (0, 0), BuildingBlock: MIFKUJ_clean_linker_0, # of connection points: 2
#     Edge 31, Type (0, 0), BuildingBlock: MIFKUJ_clean_linker_0, # of connection points: 2
#     Edge 32, Type (0, 0), BuildingBlock: MIFKUJ_clean_linker_0, # of connection points: 2
#     Edge 33, Type (0, 0), BuildingBlock: MIFKUJ_clean_linker_0, # of connection points: 2
#     Edge 34, Type (0, 0), BuildingBlock: MIFKUJ_clean_linker_0, # of connection points: 2
#     Edge 35, Type (0, 0), BuildingBlock: MIFKUJ_clean_linker_0, # of connection points: 2
#     Edge 36, Type (0, 0), BuildingBlock: MIFKUJ_clean_linker_0, # of connection points: 2
#     Edge 37, Type (0, 0), BuildingBlock: MIFKUJ_clean_linker_0, # of connection points: 2
#     Edge 38, Type (0, 0), BuildingBlock: MIFKUJ_clean_linker_0, # of connection points: 2
#     Edge 39, Type (0, 0), BuildingBlock: MIFKUJ_clean_linker_0, # of connection points: 2
#     Edge 40, Type (0, 0), BuildingBlock: MIFKUJ_clean_linker_0, # of connection points: 2
#     Edge 41, Type (0, 0), BuildingBlock: MIFKUJ_clean_linker_0, # of connection points: 2
#     Edge 42, Type (0, 0), BuildingBlock: MIFKUJ_clean_linker_0, # of connection points: 2
#     Edge 43, Type (0, 0), BuildingBlock: MIFKUJ_clean_linker_0, # of connection points: 2
#     Edge 44, Type (0, 0), BuildingBlock: MIFKUJ_clean_linker_0, # of connection points: 2
#     Edge 45, Type (0, 0), BuildingBlock: MIFKUJ_clean_linker_0, # of connection points: 2
#     Edge 46, Type (0, 0), BuildingBlock: MIFKUJ_clean_linker_0, # of connection points: 2
#     Edge 47, Type (0, 0), BuildingBlock: MIFKUJ_clean_linker_0, # of connection points: 2
#     Edge 48, Type (0, 0), BuildingBlock: MIFKUJ_clean_linker_0, # of connection points: 2
#     Edge 49, Type (0, 0), BuildingBlock: MIFKUJ_clean_linker_0, # of connection points: 2
#     Edge 50, Type (0, 0), BuildingBlock: MIFKUJ_clean_linker_0, # of connection points: 2
#     Edge 51, Type (0, 0), BuildingBlock: MIFKUJ_clean_linker_0, # of connection points: 2
#     Edge 52, Type (0, 0), BuildingBlock: MIFKUJ_clean_linker_0, # of connection points: 2
#     Edge 53, Type (0, 0), BuildingBlock: MIFKUJ_clean_linker_0, # of connection points: 2
#     Edge 54, Type (0, 0), BuildingBlock: MIFKUJ_clean_linker_0, # of connection points: 2
#     Edge 55, Type (0, 0), BuildingBlock: MIFKUJ_clean_linker_0, # of connection points: 2
#     Edge 56, Type (0, 0), BuildingBlock: MIFKUJ_clean_linker_0, # of connection points: 2
#     Edge 57, Type (0, 0), BuildingBlock: MIFKUJ_clean_linker_0, # of connection points: 2
#     Edge 58, Type (0, 0), BuildingBlock: MIFKUJ_clean_linker_0, # of connection points: 2
#     Edge 59, Type (0, 0), BuildingBlock: MIFKUJ_clean_linker_0, # of connection points: 2
#     Edge 60, Type (0, 0), BuildingBlock: MIFKUJ_clean_linker_0, # of connection points: 2
#     Edge 61, Type (0, 0), BuildingBlock: MIFKUJ_clean_linker_0, # of connection points: 2
#     Edge 62, Type (0, 0), BuildingBlock: MIFKUJ_clean_linker_0, # of connection points: 2
#     Edge 63, Type (0, 0), BuildingBlock: MIFKUJ_clean_linker_0, # of connection points: 2
#     Edge 64, Type (0, 0), BuildingBlock: MIFKUJ_clean_linker_0, # of connection points: 2
#     Edge 65, Type (0, 0), BuildingBlock: MIFKUJ_clean_linker_0, # of connection points: 2
#     Edge 66, Type (0, 0), BuildingBlock: MIFKUJ_clean_linker_0, # of connection points: 2
#     Edge 67, Type (0, 0), BuildingBlock: MIFKUJ_clean_linker_0, # of connection points: 2
#     Edge 68, Type (0, 0), BuildingBlock: MIFKUJ_clean_linker_0, # of connection points: 2
#     Edge 69, Type (0, 0), BuildingBlock: MIFKUJ_clean_linker_0, # of connection points: 2
#     Edge 70, Type (0, 0), BuildingBlock: MIFKUJ_clean_linker_0, # of connection points: 2
#     Edge 71, Type (0, 0), BuildingBlock: MIFKUJ_clean_linker_0, # of connection points: 2
# Relax obj value: 0.003
# Max RMSD: 0.027
# Mean RMSD: 0.017
data_MOF--net-rhr--node1-KOZSID_clean_sbu_0--edge1-MIFKUJ_clean_linker_0
_symmetry_space_group_name_H-M    P1
_symmetry_Int_Tables_number       1
_symmetry_cell_setting            triclinic
loop_
_symmetry_equiv_pos_as_xyz
'x, y, z'
_cell_length_a     78.59539
_cell_length_b     78.653732
_cell_length_c     78.517096
_cell_angle_alpha  87.487958
_cell_angle_beta   86.379473
_cell_angle_gamma 90.704465
loop_
_atom_site_label
_atom_site_type_symbol
_atom_site_fract_x
_atom_site_fract_y
_atom_site_fract_z
_atom_type_partial_charge
C0 C 0.37958 0.99381 0.34732 0.0
C1 C 0.39445 0.98801 0.35411 0.0
C2 C 0.39565 0.99558 0.36931 0.0
C3 C 0.38155 0.00558 0.37098 0.0
N4 N 0.37134 0.00488 0.35779 0.0
Co5 Co 0.34962 0.01787 0.35533 0.0
N6 N 0.35205 0.02985 0.37719 0.0
C7 C 0.36548 0.02876 0.38709 0.0
C8 C 0.364 0.03858 0.40109 0.0
C9 C 0.34864 0.04637 0.40017 0.0
C10 C 0.34147 0.04071 0.38569 0.0
N11 N 0.3275 0.03029 0.35329 0.0
C12 C 0.31877 0.04053 0.3643 0.0
C13 C 0.30315 0.04508 0.35829 0.0
C14 C 0.30198 0.03765 0.34302 0.0
C15 C 0.31678 0.02882 0.3406 0.0
N16 N 0.34754 0.00639 0.33312 0.0
C17 C 0.33497 0.00879 0.32233 0.0
C18 C 0.33707 0.9999 0.30774 0.0
C19 C 0.35202 0.99145 0.30914 0.0
C20 C 0.35827 0.9957 0.32456 0.0
N21 N 0.33671 0.99897 0.36813 0.0
C22 C 0.31674 0.974 0.38746 0.0
C23 C 0.31265 0.97932 0.37101 0.0
C24 C 0.32275 0.99163 0.36164 0.0
C25 C 0.33134 0.98105 0.39382 0.0
C26 C 0.34107 0.99337 0.38403 0.0
N27 N 0.36256 0.03679 0.34241 0.0
C28 C 0.36504 0.05776 0.31881 0.0
C29 C 0.38215 0.0611 0.32161 0.0
C30 C 0.38899 0.05253 0.33555 0.0
C31 C 0.37902 0.04074 0.34579 0.0
C32 C 0.35562 0.04565 0.32918 0.0
H33 H 0.38508 0.03475 0.35616 0.0
H34 H 0.34282 0.04356 0.32604 0.0
H35 H 0.31883 0.9952 0.34927 0.0
H36 H 0.35198 0.99831 0.38966 0.0
C37 C 0.37846 0.01713 0.38382 0.0
C38 C 0.37438 0.9891 0.33048 0.0
C39 C 0.32451 0.04593 0.38074 0.0
C40 C 0.32107 0.01905 0.32654 0.0
H41 H 0.40374 0.97954 0.34846 0.0
H42 H 0.40592 0.9944 0.37782 0.0
H43 H 0.37283 0.0396 0.41104 0.0
H44 H 0.34324 0.05506 0.40928 0.0
H45 H 0.29342 0.05278 0.36438 0.0
H46 H 0.29146 0.03839 0.33477 0.0
H47 H 0.32869 0.99955 0.29733 0.0
H48 H 0.35767 0.98307 0.29986 0.0
H49 H 0.30143 0.97436 0.36548 0.0
H50 H 0.33531 0.9771 0.40634 0.0
H51 H 0.35884 0.06437 0.30858 0.0
H52 H 0.40215 0.0545 0.33838 0.0
C53 C 0.04452 0.37408 0.33239 0.0
C54 C 0.04859 0.38916 0.33987 0.0
C55 C 0.03905 0.38937 0.35498 0.0
C56 C 0.02969 0.37452 0.35587 0.0
N57 N 0.03274 0.36474 0.34227 0.0
Co58 Co 0.02163 0.34225 0.33828 0.0
N59 N 0.00628 0.34351 0.35961 0.0
C60 C 0.00527 0.35651 0.37035 0.0
C61 C 0.99318 0.35404 0.38359 0.0
C62 C 0.98608 0.33848 0.38128 0.0
C63 C 0.99442 0.33226 0.36676 0.0
N64 N 0.01093 0.31948 0.33461 0.0
C65 C 0.99916 0.31015 0.34453 0.0
C66 C 0.9961 0.29445 0.33778 0.0
C67 C 0.00622 0.29385 0.32307 0.0
C68 C 0.01495 0.30907 0.32172 0.0
N69 N 0.03653 0.34129 0.31661 0.0
C70 C 0.03693 0.32871 0.30538 0.0
C71 C 0.04805 0.33183 0.29142 0.0
C72 C 0.05499 0.34748 0.29369 0.0
C73 C 0.04762 0.35303 0.30896 0.0
N74 N 0.03915 0.33058 0.35144 0.0
C75 C 0.06236 0.31252 0.37092 0.0
C76 C 0.0601 0.30854 0.35408 0.0
C77 C 0.04851 0.31763 0.34466 0.0
C78 C 0.05323 0.32601 0.37772 0.0
C79 C 0.04188 0.33488 0.36779 0.0
N80 N 0.00414 0.35388 0.32513 0.0
C81 C 0.98707 0.35569 0.30059 0.0
C82 C 0.98083 0.37145 0.30534 0.0
C83 C 0.98615 0.37807 0.32037 0.0
C84 C 0.99765 0.36912 0.33002 0.0
C85 C 0.99862 0.34718 0.3106 0.0
H86 H 1.00128 0.37493 0.34124 0.0
H87 H 0.00302 0.3353 0.30621 0.0
H88 H 0.04716 0.31372 0.33203 0.0
H89 H 0.03531 0.34502 0.37372 0.0
C90 C 0.01664 0.37034 0.36828 0.0
C91 C 0.05144 0.36964 0.3155 0.0
C92 C 0.99092 0.3154 0.36061 0.0
C93 C 0.02687 0.31402 0.30844 0.0
H94 H 0.05718 0.39923 0.33475 0.0
H95 H 0.03849 0.39947 0.36391 0.0
H96 H 0.99011 0.36242 0.39389 0.0
H97 H 0.97605 0.33231 0.38949 0.0
H98 H 0.98759 0.28435 0.34301 0.0
H99 H 0.00721 0.28348 0.31445 0.0
H100 H 0.05073 0.32373 0.28081 0.0
H101 H 0.06436 0.3541 0.28502 0.0
H102 H 0.06685 0.29809 0.34832 0.0
H103 H 0.05479 0.32969 0.39067 0.0
H104 H 0.9831 0.3499 0.28919 0.0
H105 H 0.98184 0.39034 0.32451 0.0
C106 C 0.68363 0.99359 0.32916 0.0
C107 C 0.69057 0.9893 0.31325 0.0
C108 C 0.70586 0.99773 0.31071 0.0
C109 C 0.70736 0.00677 0.32508 0.0
N110 N 0.69411 0.00443 0.33682 0.0
Co111 Co 0.69053 0.01679 0.35862 0.0
N112 N 0.71268 0.02987 0.35449 0.0
C113 C 0.72426 0.02816 0.34122 0.0
C114 C 0.73895 0.03748 0.34235 0.0
C115 C 0.7368 0.04546 0.3574 0.0
C116 C 0.72076 0.04066 0.36457 0.0
N117 N 0.68654 0.02972 0.38 0.0
C118 C 0.69664 0.04112 0.38738 0.0
C119 C 0.68862 0.04713 0.40213 0.0
C120 C 0.67317 0.03895 0.40442 0.0
C121 C 0.67252 0.02855 0.3909 0.0
N122 N 0.66879 0.00318 0.36319 0.0
C123 C 0.65803 0.00365 0.37728 0.0
C124 C 0.64412 0.99301 0.37697 0.0
C125 C 0.646 0.98538 0.36168 0.0
C126 C 0.66095 0.99194 0.35344 0.0
N127 N 0.70299 0.99883 0.37157 0.0
C128 C 0.72205 0.97492 0.3907 0.0
C129 C 0.70786 0.98311 0.39813 0.0
C130 C 0.69855 0.99471 0.38844 0.0
C131 C 0.72619 0.97877 0.3733 0.0
C132 C 0.71668 0.99065 0.36412 0.0
N133 N 0.67803 0.03469 0.34562 0.0
C134 C 0.65161 0.049 0.33994 0.0
C135 C 0.65904 0.05727 0.32513 0.0
C136 C 0.67637 0.0545 0.32112 0.0
C137 C 0.68551 0.04322 0.33138 0.0
C138 C 0.66126 0.03808 0.35 0.0
H139 H 0.69856 0.04137 0.32735 0.0
H140 H 0.65477 0.03234 0.36117 0.0
H141 H 0.68791 1.00034 0.39501 0.0
H142 H 0.72076 0.99309 0.35102 0.0
C143 C 0.72098 0.0176 0.32794 0.0
C144 C 0.66679 0.98753 0.33612 0.0
C145 C 0.71405 0.04622 0.38127 0.0
C146 C 0.6601 0.01595 0.38932 0.0
H147 H 0.68504 0.98117 0.30424 0.0
H148 H 0.71469 0.99753 0.29957 0.0
H149 H 0.75005 0.03814 0.33344 0.0
H150 H 0.74617 0.0536 0.36261 0.0
H151 H 0.6936 0.05617 0.41062 0.0
H152 H 0.66383 0.03993 0.41505 0.0
H153 H 0.63348 0.99153 0.38639 0.0
H154 H 0.63713 0.97637 0.35693 0.0
H155 H 0.70403 0.98095 0.41154 0.0
H156 H 0.73671 0.97263 0.3666 0.0
H157 H 0.63834 0.05098 0.34385 0.0
H158 H 0.68276 0.06061 0.30981 0.0
C159 C 0.97559 0.7129 0.33772 0.0
C160 C 0.97148 0.72719 0.32791 0.0
C161 C 0.98274 0.72796 0.31393 0.0
C162 C 0.99296 0.71412 0.31601 0.0
N163 N 0.9888 0.70446 0.33038 0.0
Co164 Co 1.00004 0.68308 0.33839 0.0
N165 N 0.01787 0.68538 0.31902 0.0
C166 C 0.01991 0.69832 0.30711 0.0
C167 C 0.03365 0.69654 0.29571 0.0
C168 C 0.04078 0.68152 0.30059 0.0
C169 C 0.03086 0.67498 0.3147 0.0
N170 N 0.01081 0.66124 0.34594 0.0
C171 C 0.02399 0.65276 0.33853 0.0
C172 C 0.02696 0.63755 0.3474 0.0
C173 C 0.01512 0.63629 0.36088 0.0
C174 C 0.00562 0.65071 0.35942 0.0
N175 N 0.98266 0.68125 0.35823 0.0
C176 C 0.98137 0.66901 0.37093 0.0
C177 C 0.96884 0.67187 0.38338 0.0
C178 C 0.9619 0.687 0.37851 0.0
C179 C 0.97061 0.69243 0.36328 0.0
N180 N 0.98505 0.66988 0.3243 0.0
C181 C 0.96352 0.65128 0.30442 0.0
C182 C 0.96447 0.6472 0.3218 0.0
C183 C 0.97524 0.65656 0.33141 0.0
C184 C 0.97363 0.66472 0.2971 0.0
C185 C 0.98422 0.67378 0.30719 0.0
N186 N 0.01502 0.69628 0.3525 0.0
C187 C 0.03064 0.69854 0.37785 0.0
C188 C 0.03637 0.71496 0.37263 0.0
C189 C 0.03111 0.72187 0.35714 0.0
C190 C 0.02067 0.71234 0.3473 0.0
C191 C 0.01994 0.68961 0.3678 0.0
H192 H 0.01731 0.71828 0.33555 0.0
H193 H 0.01586 0.67731 0.3727 0.0
H194 H 0.97541 0.65273 0.34454 0.0
H195 H 0.99156 0.68391 0.30086 0.0
C196 C 0.0078 0.71108 0.30595 0.0
C197 C 0.96759 0.70869 0.35455 0.0
C198 C 0.03379 0.65846 0.32297 0.0
C199 C 0.99214 0.65503 0.37079 0.0
H200 H 0.96174 0.7364 0.33089 0.0
H201 H 0.98384 0.73785 0.30387 0.0
H202 H 0.03768 0.70489 0.28485 0.0
H203 H 0.05179 0.67582 0.29426 0.0
H204 H 0.03665 0.62829 0.34437 0.0
H205 H 0.01361 0.62608 0.37058 0.0
H206 H 0.96537 0.66404 0.39478 0.0
H207 H 0.95179 0.69346 0.38551 0.0
H208 H 0.95708 0.63669 0.32797 0.0
H209 H 0.97321 0.66844 0.28368 0.0
H210 H 0.03452 0.69241 0.38956 0.0
H211 H 0.03489 0.73464 0.35261 0.0
C212 C 0.34085 0.98007 0.72562 0.0
C213 C 0.33212 0.97372 0.74053 0.0
C214 C 0.31753 0.98284 0.74244 0.0
C215 C 0.31808 0.99404 0.72855 0.0
N216 N 0.33209 0.99258 0.71783 0.0
Co217 Co 0.33723 0.00544 0.69546 0.0
N218 N 0.3166 0.01988 0.69908 0.0
C219 C 0.30593 0.01994 0.71328 0.0
C220 C 0.29355 0.03201 0.71255 0.0
C221 C 0.29645 0.04013 0.69691 0.0
C222 C 0.31035 0.03233 0.68889 0.0
N223 N 0.34171 0.01749 0.67253 0.0
C224 C 0.33223 0.02907 0.6642 0.0
C225 C 0.33909 0.03285 0.6477 0.0
C226 C 0.3535 0.0235 0.64561 0.0
C227 C 0.3545 0.01441 0.66078 0.0
N228 N 0.35853 0.9918 0.6924 0.0
C229 C 0.37048 0.9934 0.67923 0.0
C230 C 0.38457 0.98367 0.68138 0.0
C231 C 0.38157 0.97547 0.69695 0.0
C232 C 0.3656 0.98052 0.70333 0.0
N233 N 0.32381 0.98812 0.68431 0.0
C234 C 0.30449 0.96457 0.66746 0.0
C235 C 0.32187 0.96689 0.66318 0.0
C236 C 0.33121 0.97871 0.67163 0.0
C237 C 0.29696 0.97396 0.6805 0.0
C238 C 0.30681 0.98548 0.68881 0.0
N239 N 0.3507 0.02273 0.7066 0.0
C240 C 0.37447 0.04256 0.70579 0.0
C241 C 0.37105 0.0459 0.72299 0.0
C242 C 0.35696 0.03774 0.73171 0.0
C243 C 0.34695 0.02644 0.7233 0.0
C244 C 0.36431 0.03097 0.69796 0.0
H245 H 0.33638 0.02071 0.73068 0.0
H246 H 0.36784 0.02881 0.68492 0.0
H247 H 0.34434 0.98013 0.66752 0.0
H248 H 0.30035 0.99219 0.69873 0.0
C249 C 0.30674 0.00732 0.72623 0.0
C250 C 0.35778 0.97445 0.71989 0.0
C251 C 0.31665 0.03667 0.67134 0.0
C252 C 0.36775 0.0036 0.66473 0.0
H253 H 0.33609 0.96379 0.74935 0.0
H254 H 0.30796 0.98181 0.75298 0.0
H255 H 0.28335 0.03431 0.72204 0.0
H256 H 0.28893 0.0504 0.69186 0.0
H257 H 0.33422 0.04142 0.63808 0.0
H258 H 0.36223 0.02337 0.63439 0.0
H259 H 0.39573 0.9827 0.67268 0.0
H260 H 0.39028 0.96687 0.70291 0.0
H261 H 0.32816 0.95996 0.65301 0.0
H262 H 0.28352 0.97238 0.68432 0.0
H263 H 0.38498 0.04883 0.69832 0.0
H264 H 0.35381 0.03974 0.74509 0.0
C265 C 0.99319 0.35887 0.68157 0.0
C266 C 0.98834 0.37406 0.67377 0.0
C267 C 0.9972 0.37553 0.65824 0.0
C268 C 0.00688 0.36118 0.65734 0.0
N269 N 0.00458 0.35047 0.67126 0.0
Co270 Co 0.0168 0.32844 0.67524 0.0
N271 N 0.03159 0.33177 0.65344 0.0
C272 C 0.03159 0.34545 0.6424 0.0
C273 C 0.04295 0.34436 0.62852 0.0
C274 C 0.05057 0.32898 0.6307 0.0
C275 C 0.0433 0.32142 0.64577 0.0
N276 N 0.0288 0.30623 0.67905 0.0
C277 C 0.04048 0.298 0.66888 0.0
C278 C 0.04433 0.28221 0.67614 0.0
C279 C 0.03485 0.28038 0.6913 0.0
C280 C 0.02566 0.29501 0.69245 0.0
N281 N 0.00226 0.32533 0.69724 0.0
C282 C 0.00268 0.31197 0.70863 0.0
C283 C 0.99226 0.31367 0.7231 0.0
C284 C 0.98492 0.3292 0.72103 0.0
C285 C 0.99123 0.33611 0.70529 0.0
N286 N 0.99937 0.31604 0.66252 0.0
C287 C 0.97715 0.29669 0.64314 0.0
C288 C 0.98047 0.29165 0.65994 0.0
C289 C 0.99143 0.30139 0.66929 0.0
C290 C 0.98483 0.31196 0.63651 0.0
C291 C 0.99566 0.32134 0.6463 0.0
N292 N 0.03418 0.3408 0.68793 0.0
C293 C 0.05107 0.34308 0.71268 0.0
C294 C 0.05608 0.35983 0.70777 0.0
C295 C 0.05036 0.3666 0.6924 0.0
C296 C 0.03971 0.35693 0.68271 0.0
C297 C 0.0402 0.33392 0.70272 0.0
H298 H 0.03593 0.3629 0.67113 0.0
H299 H 0.03659 0.32137 0.70741 0.0
H300 H 0.99349 0.29663 0.6819 0.0
H301 H 1.00103 0.33277 0.64035 0.0
C302 C 0.01973 0.35839 0.64467 0.0
C303 C 0.98694 0.35328 0.69895 0.0
C304 C 0.04777 0.30426 0.65202 0.0
C305 C 0.01362 0.29839 0.70569 0.0
H306 H 0.9796 0.38333 0.67897 0.0
H307 H 0.99713 0.38616 0.649 0.0
H308 H 0.04511 0.35347 0.61784 0.0
H309 H 0.06019 0.32379 0.622 0.0
H310 H 0.05283 0.27279 0.67089 0.0
H311 H 0.03444 0.26949 0.70024 0.0
H312 H 0.99059 0.30488 0.7341 0.0
H313 H 0.97624 0.33495 0.73027 0.0
H314 H 0.97499 0.27995 0.66581 0.0
H315 H 0.98246 0.31679 0.62376 0.0
H316 H 0.0551 0.33718 0.72445 0.0
H317 H 0.05413 0.37935 0.68777 0.0
C318 C 0.68989 0.02842 0.66816 0.0
C319 C 0.68445 0.03429 0.65249 0.0
C320 C 0.6689 0.02688 0.65085 0.0
C321 C 0.6657 0.01703 0.66556 0.0
N322 N 0.67824 0.01772 0.67657 0.0
Co323 Co 0.67872 0.00548 0.69953 0.0
N324 N 0.65639 0.99364 0.69654 0.0
C325 C 0.64686 0.99503 0.68279 0.0
C326 C 0.63214 0.98543 0.68443 0.0
C327 C 0.63223 0.9774 0.70016 0.0
C328 C 0.64711 0.98254 0.70722 0.0
N329 N 0.67899 0.99359 0.72269 0.0
C330 C 0.66741 0.98278 0.73104 0.0
C331 C 0.67248 0.97757 0.74705 0.0
C332 C 0.68771 0.98551 0.74898 0.0
C333 C 0.69109 0.99504 0.7341 0.0
N334 N 0.70128 0.01698 0.70232 0.0
C335 C 0.71113 0.01513 0.7158 0.0
C336 C 0.72623 0.02409 0.71379 0.0
C337 C 0.72615 0.03205 0.69801 0.0
C338 C 0.71089 0.02751 0.69132 0.0
N339 N 0.66655 0.02461 0.71017 0.0
C340 C 0.64775 0.04954 0.72737 0.0
C341 C 0.66328 0.04401 0.73309 0.0
C342 C 0.67242 0.03173 0.72432 0.0
C343 C 0.64211 0.04291 0.71248 0.0
C344 C 0.65168 0.03059 0.7041 0.0
N345 N 0.69086 0.98633 0.68896 0.0
C346 C 0.7132 0.96556 0.68931 0.0
C347 C 0.70953 0.96047 0.67312 0.0
C348 C 0.69596 0.96813 0.66524 0.0
C349 C 0.6868 0.98086 0.67338 0.0
C350 C 0.70384 0.97843 0.6969 0.0
H351 H 0.67666 0.98627 0.66669 0.0
H352 H 0.70749 0.98187 0.70909 0.0
H353 H 0.68402 0.02794 0.72951 0.0
H354 H 0.64663 0.02593 0.69293 0.0
C355 C 0.6516 0.00615 0.66891 0.0
C356 C 0.70633 0.03317 0.6743 0.0
C357 C 0.65157 0.97695 0.72432 0.0
C358 C 0.70578 0.00498 0.73023 0.0
H359 H 0.69113 0.04288 0.64313 0.0
H360 H 0.66101 0.02826 0.64008 0.0
H361 H 0.62234 0.98463 0.67539 0.0
H362 H 0.62231 0.96891 0.70587 0.0
H363 H 0.6659 0.96885 0.75636 0.0
H364 H 0.69546 0.98437 0.75987 0.0
H365 H 0.73617 0.02467 0.72269 0.0
H366 H 0.73626 0.04014 0.69204 0.0
H367 H 0.66814 0.04868 0.74465 0.0
H368 H 0.6303 0.04707 0.70737 0.0
H369 H 0.72336 0.95974 0.69611 0.0
H370 H 0.69268 0.96471 0.65263 0.0
C371 C 0.98987 0.65898 0.71311 0.0
C372 C 0.98292 0.66472 0.72849 0.0
C373 C 0.99085 0.67983 0.73099 0.0
C374 C 0.00222 0.68241 0.71716 0.0
N375 N 1.00193 0.66998 0.7058 0.0
Co376 Co 0.01746 0.66804 0.68467 0.0
N377 N 0.02977 0.68984 0.68891 0.0
C378 C 0.02647 0.70016 0.70201 0.0
C379 C 0.03612 0.71483 0.70094 0.0
C380 C 0.04602 0.71401 0.68612 0.0
C381 C 0.04193 0.69872 0.67903 0.0
N382 N 0.0332 0.66588 0.66377 0.0
C383 C 0.04547 0.6767 0.65662 0.0
C384 C 0.05362 0.67017 0.64217 0.0
C385 C 0.04589 0.65491 0.63982 0.0
C386 C 0.03363 0.65292 0.65299 0.0
N387 N 0.00495 0.64646 0.6802 0.0
C388 C 0.00769 0.63658 0.66665 0.0
C389 C 0.99702 0.62265 0.66695 0.0
C390 C 0.98696 0.62356 0.68167 0.0
C391 C 0.9922 0.63798 0.6896 0.0
N392 N 1.00125 0.68138 0.67079 0.0
C393 C 0.97965 0.70141 0.65043 0.0
C394 C 0.98769 0.68694 0.64417 0.0
C395 C 0.99823 0.67719 0.65445 0.0
C396 C 0.98248 0.70544 0.66723 0.0
C397 C 0.9932 0.69541 0.67705 0.0
N398 N 0.0337 0.65471 0.69856 0.0
C399 C 0.05051 0.62941 0.70342 0.0
C400 C 0.0555 0.63505 0.71906 0.0
C401 C 0.04949 0.65089 0.72406 0.0
C402 C 0.0388 0.66041 0.71373 0.0
C403 C 0.03973 0.63929 0.69352 0.0
H404 H 0.03476 0.67232 0.71836 0.0
H405 H 0.03631 0.63408 0.68189 0.0
H406 H 0.00391 0.66636 0.64884 0.0
H407 H 0.99493 0.69938 0.68963 0.0
C408 C 0.01371 0.69609 0.71474 0.0
C409 C 0.98511 0.6427 0.70634 0.0
C410 C 0.04932 0.69357 0.66254 0.0
C411 C 0.02132 0.63991 0.65465 0.0
H412 H 0.97338 0.65849 0.73722 0.0
H413 H 0.98884 0.68779 0.74182 0.0
H414 H 0.03564 0.72514 0.70965 0.0
H415 H 0.05493 0.72379 0.68096 0.0
H416 H 0.0638 0.67604 0.63393 0.0
H417 H 0.0485 0.64653 0.62942 0.0
H418 H 0.9969 0.61275 0.65781 0.0
H419 H 0.97711 0.61443 0.68623 0.0
H420 H 0.98576 0.68301 0.63138 0.0
H421 H 0.97676 0.71656 0.67274 0.0
H422 H 0.0546 0.6172 0.69893 0.0
H423 H 0.05314 0.65607 0.73587 0.0
C424 C 0.38028 0.34198 0.02478 0.0
C425 C 0.39539 0.34987 0.02857 0.0
C426 C 0.39623 0.36518 0.01966 0.0
C427 C 0.38161 0.36584 0.01103 0.0
N428 N 0.37144 0.35187 0.01385 0.0
Co429 Co 0.34872 0.34795 0.00409 0.0
N430 N 0.35013 0.37041 0.99072 0.0
C431 C 0.36333 0.38171 0.98987 0.0
C432 C 0.361 0.39578 0.97942 0.0
C433 C 0.34534 0.39343 0.97326 0.0
C434 C 0.33888 0.37805 0.98046 0.0
N435 N 0.32582 0.34422 0.99464 0.0
C436 C 0.31655 0.35452 0.98448 0.0
C437 C 0.30077 0.34724 0.98194 0.0
C438 C 0.30009 0.33181 0.9906 0.0
C439 C 0.31534 0.33055 0.99806 0.0
N440 N 0.34747 0.32533 0.01718 0.0
C441 C 0.3348 0.31353 0.01715 0.0
C442 C 0.33752 0.29909 0.02694 0.0
C443 C 0.35289 0.30175 0.03362 0.0
C444 C 0.35866 0.31778 0.02757 0.0
N445 N 0.33732 0.35901 0.02377 0.0
C446 C 0.31901 0.37605 0.04958 0.0
C447 C 0.31459 0.35943 0.04589 0.0
C448 C 0.32384 0.35122 0.03304 0.0
C449 C 0.33326 0.38369 0.04071 0.0
C450 C 0.34224 0.37495 0.02805 0.0
N451 N 0.36011 0.33688 0.98434 0.0
C452 C 0.36178 0.31381 0.965 0.0
C453 C 0.37725 0.32019 0.95748 0.0
C454 C 0.38372 0.33535 0.96326 0.0
C455 C 0.37503 0.3434 0.97659 0.0
C456 C 0.35346 0.32232 0.97825 0.0
H457 H 0.38075 0.35477 0.98048 0.0
H458 H 0.34181 0.31671 0.98351 0.0
H459 H 0.31963 0.3387 0.03067 0.0
H460 H 0.35286 0.38152 0.02164 0.0
C461 C 0.37737 0.3791 0.9997 0.0
C462 C 0.37493 0.32512 0.03198 0.0
C463 C 0.32194 0.37137 0.9772 0.0
C464 C 0.32019 0.3167 0.00832 0.0
H465 H 0.40485 0.34504 0.03689 0.0
H466 H 0.40636 0.37465 0.01941 0.0
H467 H 0.36958 0.40657 0.97676 0.0
H468 H 0.33932 0.40214 0.96452 0.0
H469 H 0.29068 0.35256 0.97472 0.0
H470 H 0.28964 0.32265 0.99149 0.0
H471 H 0.32926 0.28799 0.02906 0.0
H472 H 0.35914 0.29288 0.04201 0.0
H473 H 0.30389 0.35282 0.05274 0.0
H474 H 0.33718 0.39658 0.04306 0.0
H475 H 0.3563 0.30202 0.96104 0.0
H476 H 0.39551 0.34098 0.9576 0.0
C477 C 0.68453 0.31715 0.04321 0.0
C478 C 0.68984 0.30113 0.04864 0.0
C479 C 0.70506 0.29841 0.03998 0.0
C480 C 0.70813 0.31276 0.02969 0.0
N481 N 0.69589 0.32463 0.03136 0.0
Co482 Co 0.69466 0.34672 0.01766 0.0
N483 N 0.71681 0.34236 0.00449 0.0
C484 C 0.72697 0.32876 0.00655 0.0
C485 C 0.74144 0.3293 0.99586 0.0
C486 C 0.74063 0.34425 0.98653 0.0
C487 C 0.72569 0.35208 0.99218 0.0
N488 N 0.69312 0.36853 0.00353 0.0
C489 C 0.70414 0.37573 0.99118 0.0
C490 C 0.69825 0.39123 0.98496 0.0
C491 C 0.68296 0.39387 0.99356 0.0
C492 C 0.68039 0.37995 0.00457 0.0
N493 N 0.6728 0.35134 0.03122 0.0
C494 C 0.66323 0.36547 0.02998 0.0
C495 C 0.64906 0.36515 0.04109 0.0
C496 C 0.6495 0.34984 0.04991 0.0
C497 C 0.66393 0.34162 0.04353 0.0
N498 N 0.7075 0.35864 0.03462 0.0
C499 C 0.72652 0.37632 0.0576 0.0
C500 C 0.71283 0.38394 0.04991 0.0
C501 C 0.70352 0.37493 0.0387 0.0
C502 C 0.73038 0.35956 0.05377 0.0
C503 C 0.72081 0.35104 0.0423 0.0
N504 N 0.68179 0.33482 1.00073 0.0
C505 C 0.65624 0.33173 0.98555 0.0
C506 C 0.66219 0.31668 0.97876 0.0
C507 C 0.67833 0.31111 0.98262 0.0
C508 C 0.68784 0.32029 0.99362 0.0
C509 C 0.66624 0.34061 0.9963 0.0
H510 H 0.6999 0.31521 0.99639 0.0
H511 H 0.66098 0.352 1.00102 0.0
H512 H 0.6933 0.38156 0.03335 0.0
H513 H 0.72451 0.33838 0.03976 0.0
C514 C 0.72229 0.31539 0.01822 0.0
C515 C 0.66836 0.32443 0.04927 0.0
C516 C 0.72061 0.36876 0.98549 0.0
C517 C 0.66708 0.37812 0.01722 0.0
H518 H 0.68329 0.29216 0.0577 0.0
H519 H 0.71284 0.28718 0.04087 0.0
H520 H 0.75135 0.31989 0.9949 0.0
H521 H 0.75002 0.34886 0.97668 0.0
H522 H 0.70451 0.40001 0.97551 0.0
H523 H 0.67496 0.40491 0.99237 0.0
H524 H 0.63931 0.3747 0.04232 0.0
H525 H 0.64011 0.34513 0.05971 0.0
H526 H 0.70946 0.397 0.05218 0.0
H527 H 0.74072 0.35298 0.05958 0.0
H528 H 0.6439 0.33665 0.9826 0.0
H529 H 0.68339 0.29947 0.9776 0.0
C530 C 0.70775 0.68969 0.04676 0.0
C531 C 0.72225 0.6979 0.0517 0.0
C532 C 0.72482 0.71194 0.041 0.0
C533 C 0.71176 0.71151 0.03025 0.0
N534 N 0.70092 0.69811 0.03349 0.0
Co535 Co 0.68013 0.69264 0.02111 0.0
N536 N 0.68468 0.71255 0.00452 0.0
C537 C 0.69818 0.72345 0.00379 0.0
C538 C 0.69765 0.73611 0.9913 0.0
C539 C 0.68288 0.7332 0.98362 0.0
C540 C 0.67525 0.7188 0.99186 0.0
N541 N 0.65905 0.6875 0.00906 0.0
C542 C 0.65196 0.69623 0.99611 0.0
C543 C 0.63702 0.68842 0.99169 0.0
C544 C 0.63436 0.67447 1.00249 0.0
C545 C 0.64779 0.67452 0.01278 0.0
N546 N 0.67586 0.67245 0.03738 0.0
C547 C 0.66296 0.6609 0.03748 0.0
C548 C 0.66383 0.64798 0.04967 0.0
C549 C 0.67828 0.65134 0.05772 0.0
C550 C 0.68535 0.66622 0.04996 0.0
N551 N 0.66624 0.7074 0.03691 0.0
C552 C 0.6466 0.72831 0.05954 0.0
C553 C 0.64176 0.71142 0.05691 0.0
C554 C 0.65157 0.70137 0.04567 0.0
C555 C 0.66153 0.73442 0.0504 0.0
C556 C 0.67103 0.72392 0.03937 0.0
N557 N 0.69408 0.67783 0.00535 0.0
C558 C 0.69724 0.65218 0.98915 0.0
C559 C 0.7142 0.65634 0.98365 0.0
C560 C 0.72072 0.67169 0.98929 0.0
C561 C 0.71058 0.68212 0.99986 0.0
C562 C 0.68761 0.66286 0.99988 0.0
H563 H 0.71646 0.69358 0.00354 0.0
H564 H 0.67492 0.65867 0.00361 0.0
H565 H 0.64702 0.68869 0.04431 0.0
H566 H 0.68222 0.7295 0.03291 0.0
C567 C 0.71014 0.72262 0.01616 0.0
C568 C 0.70144 0.67354 0.05454 0.0
C569 C 0.65863 0.71212 0.9879 0.0
C570 C 0.65025 0.66251 0.02595 0.0
H571 H 0.73032 0.69392 0.06177 0.0
H572 H 0.73523 0.7211 0.04076 0.0
H573 H 0.70658 0.74661 0.98857 0.0
H574 H 0.6781 0.74114 0.97346 0.0
H575 H 0.62881 0.69249 0.98177 0.0
H576 H 0.62382 0.66543 0.00287 0.0
H577 H 0.65511 0.63728 0.05223 0.0
H578 H 0.68319 0.64358 0.06797 0.0
H579 H 0.63053 0.70573 0.06368 0.0
H580 H 0.66589 0.74741 0.0515 0.0
H581 H 0.69117 0.64075 0.98509 0.0
H582 H 0.73375 0.67567 0.98585 0.0
C583 C 0.37403 0.69323 1.00011 0.0
C584 C 0.38971 0.68642 0.99521 0.0
C585 C 0.39132 0.67193 0.00513 0.0
C586 C 0.37664 0.67077 0.01553 0.0
N587 N 0.36559 0.68347 0.01268 0.0
Co588 Co 0.34334 0.68741 0.02579 0.0
N589 N 0.34618 0.66663 0.04106 0.0
C590 C 0.35938 0.65575 0.04049 0.0
C591 C 0.35751 0.64234 0.05223 0.0
C592 C 0.34203 0.64459 0.06061 0.0
C593 C 0.33532 0.65928 0.05341 0.0
N594 N 0.32127 0.69157 0.03914 0.0
C595 C 0.31287 0.68196 0.05185 0.0
C596 C 0.29756 0.68927 0.05722 0.0
C597 C 0.29621 0.70394 0.04754 0.0
C598 C 0.31065 0.70475 0.0368 0.0
N599 N 0.34027 0.70793 0.01026 0.0
C600 C 0.32677 0.71843 0.01042 0.0
C601 C 0.32835 0.73152 0.99829 0.0
C602 C 0.3439 0.72938 0.99 0.0
C603 C 0.35094 0.71511 0.99767 0.0
N604 N 0.33099 0.67302 0.0099 0.0
C605 C 0.31297 0.65203 0.98818 0.0
C606 C 0.30637 0.66752 0.99358 0.0
C607 C 0.31546 0.67767 0.00428 0.0
C608 C 0.3289 0.6474 0.99384 0.0
C609 C 0.33758 0.65794 0.00452 0.0
N610 N 0.35573 0.70182 0.04166 0.0
C611 C 0.36006 0.72889 0.05472 0.0
C612 C 0.37443 0.72291 0.06265 0.0
C613 C 0.37906 0.70605 0.06005 0.0
C614 C 0.36973 0.69589 0.04955 0.0
C615 C 0.35091 0.71822 0.04455 0.0
H616 H 0.37426 0.68333 0.04787 0.0
H617 H 0.34001 0.72359 0.03908 0.0
H618 H 0.3096 0.68923 0.0079 0.0
H619 H 0.34957 0.65353 0.0084 0.0
C620 C 0.37316 0.65828 0.0285 0.0
C621 C 0.36812 0.70942 0.99312 0.0
C622 C 0.31835 0.6654 0.05839 0.0
C623 C 0.31362 0.71663 0.02318 0.0
H624 H 0.39919 0.69159 0.98572 0.0
H625 H 0.4021 0.6635 0.00509 0.0
H626 H 0.36623 0.632 0.05424 0.0
H627 H 0.33622 0.63621 0.07071 0.0
H628 H 0.28805 0.68428 0.06675 0.0
H629 H 0.28561 0.71259 0.04778 0.0
H630 H 0.31953 0.74173 0.99614 0.0
H631 H 0.34963 0.73765 0.97977 0.0
H632 H 0.29426 0.67199 0.98944 0.0
H633 H 0.33461 0.63549 0.99034 0.0
H634 H 0.35574 0.74176 0.05649 0.0
H635 H 0.39013 0.70078 0.06577 0.0
C636 C 0.82377 0.47442 0.84953 0.0
C637 C 0.80825 0.4683 0.8446 0.0
C638 C 0.80305 0.47954 0.83228 0.0
C639 C 0.81567 0.49178 0.83027 0.0
N640 N 0.82872 0.48881 0.8403 0.0
Co641 Co 0.84936 0.50356 0.84135 0.0
N642 N 0.8444 0.5166 0.81999 0.0
C643 C 0.8295 0.51673 0.81244 0.0
C644 C 0.83018 0.52628 0.79736 0.0
C645 C 0.84653 0.53258 0.79527 0.0
C646 C 0.85489 0.52662 0.80935 0.0
N647 N 0.86983 0.51843 0.84241 0.0
C648 C 0.87802 0.52854 0.83002 0.0
C649 C 0.89178 0.537 0.83623 0.0
C650 C 0.89225 0.53187 0.85309 0.0
C651 C 0.87876 0.52067 0.85622 0.0
N652 N 0.85447 0.49055 0.86274 0.0
C653 C 0.86556 0.49542 0.87408 0.0
C654 C 0.8661 0.48434 0.888 0.0
C655 C 0.85438 0.47184 0.8855 0.0
C656 C 0.84729 0.47603 0.87012 0.0
N657 N 0.86309 0.48735 0.82761 0.0
C658 C 0.88324 0.46519 0.80716 0.0
C659 C 0.88933 0.47204 0.82193 0.0
C660 C 0.87912 0.48293 0.83193 0.0
C661 C 0.86667 0.46971 0.80307 0.0
C662 C 0.85693 0.48074 0.81332 0.0
N663 N 0.83565 0.51985 0.85508 0.0
C664 C 0.81534 0.52529 0.87872 0.0
C665 C 0.81604 0.54297 0.87502 0.0
C666 C 0.827 0.54867 0.86095 0.0
C667 C 0.83667 0.53702 0.8513 0.0
C668 C 0.825 0.51411 0.86865 0.0
H669 H 0.84496 0.54199 0.84072 0.0
H670 H 0.82382 0.50076 0.87203 0.0
H671 H 0.88431 0.48785 0.84313 0.0
H672 H 0.84442 0.48404 0.8095 0.0
C673 C 0.81648 0.50519 0.81799 0.0
C674 C 0.832 0.46751 0.86456 0.0
C675 C 0.87254 0.53109 0.81261 0.0
C676 C 0.87604 0.5098 0.8707 0.0
H677 H 0.80116 0.45717 0.8498 0.0
H678 H 0.79151 0.47879 0.8255 0.0
H679 H 0.82028 0.5277 0.78844 0.0
H680 H 0.85169 0.54043 0.78447 0.0
H681 H 0.90057 0.54592 0.82931 0.0
H682 H 0.90174 0.53531 0.86179 0.0
H683 H 0.874 0.48526 0.89873 0.0
H684 H 0.85094 0.46125 0.89435 0.0
H685 H 0.90188 0.46888 0.82593 0.0
H686 H 0.86131 0.46506 0.79176 0.0
H687 H 0.80754 0.51994 0.88953 0.0
H688 H 0.82804 0.56205 0.85716 0.0
C689 C 0.4823 0.8364 0.88656 0.0
C690 C 0.47629 0.84385 0.90143 0.0
C691 C 0.48463 0.85912 0.90182 0.0
C692 C 0.49516 0.86016 0.88721 0.0
N693 N 0.49397 0.84651 0.87741 0.0
Co694 Co 0.50695 0.84275 0.8551 0.0
N695 N 0.52038 0.86448 0.85651 0.0
C696 C 0.51936 0.87547 0.86932 0.0
C697 C 0.53024 0.88921 0.86675 0.0
C698 C 0.53868 0.88696 0.85131 0.0
C699 C 0.53234 0.87193 0.84532 0.0
N700 N 0.5197 0.83915 0.83261 0.0
C701 C 0.53146 0.84922 0.82353 0.0
C702 C 0.53667 0.84229 0.80813 0.0
C703 C 0.52781 0.82734 0.80739 0.0
C704 C 0.51772 0.82603 0.82229 0.0
N705 N 0.49381 0.82079 0.85391 0.0
C706 C 0.49521 0.80952 0.84136 0.0
C707 C 0.48507 0.79529 0.84441 0.0
C708 C 0.47681 0.79746 0.85994 0.0
C709 C 0.48237 0.813 0.86545 0.0
N710 N 0.48926 0.85523 0.84283 0.0
C711 C 0.46547 0.87362 0.82413 0.0
C712 C 0.46947 0.85684 0.82048 0.0
C713 C 0.48139 0.84805 0.82976 0.0
C714 C 0.47334 0.88085 0.83763 0.0
C715 C 0.4849 0.87145 0.84685 0.0
N716 N 0.5246 0.83029 0.86733 0.0
C717 C 0.54257 0.80578 0.87049 0.0
C718 C 0.54852 0.81183 0.88547 0.0
C719 C 0.54259 0.82737 0.89112 0.0
C720 C 0.53061 0.83626 0.88199 0.0
C721 C 0.53084 0.81524 0.86158 0.0
H722 H 0.52625 0.84783 0.88716 0.0
H723 H 0.52693 0.81006 0.85014 0.0
H724 H 0.48407 0.8355 0.826 0.0
H725 H 0.49027 0.8777 0.85702 0.0
C726 C 0.50725 0.87307 0.88305 0.0
C727 C 0.47685 0.81953 0.88194 0.0
C728 C 0.53771 0.86561 0.82869 0.0
C729 C 0.50632 0.81263 0.82694 0.0
H730 H 0.46703 0.83863 0.91113 0.0
H731 H 0.48349 0.86819 0.9118 0.0
H732 H 0.53162 0.89979 0.87494 0.0
H733 H 0.54822 0.89554 0.84504 0.0
H734 H 0.5458 0.84758 0.79836 0.0
H735 H 0.52854 0.81855 0.79715 0.0
H736 H 0.48399 0.78452 0.83641 0.0
H737 H 0.46786 0.7885 0.86657 0.0
H738 H 0.46347 0.8504 0.81047 0.0
H739 H 0.47091 0.89385 0.84096 0.0
H740 H 0.54704 0.79385 0.86559 0.0
H741 H 0.54686 0.83244 0.90276 0.0
C742 C 0.15825 0.52686 0.84326 0.0
C743 C 0.14333 0.53232 0.85158 0.0
C744 C 0.14119 0.52293 0.86662 0.0
C745 C 0.15498 0.51245 0.86677 0.0
N746 N 0.16593 0.51471 0.85284 0.0
Co747 Co 0.18784 0.5023 0.84837 0.0
N748 N 0.18385 0.48738 0.86971 0.0
C749 C 0.16969 0.48691 0.88043 0.0
C750 C 0.17053 0.47551 0.89407 0.0
C751 C 0.18625 0.4684 0.89206 0.0
C752 C 0.1942 0.47599 0.87731 0.0
N753 N 0.21016 0.4904 0.84435 0.0
C754 C 0.21836 0.47919 0.85459 0.0
C755 C 0.2344 0.47541 0.84744 0.0
C756 C 0.23647 0.48454 0.83227 0.0
C757 C 0.22171 0.49347 0.83105 0.0
N758 N 0.1915 0.51676 0.82667 0.0
C759 C 0.20478 0.5158 0.81495 0.0
C760 C 0.20319 0.52583 0.80047 0.0
C761 C 0.18784 0.53352 0.80291 0.0
C762 C 0.18096 0.5279 0.81894 0.0
N763 N 0.19997 0.51951 0.8615 0.0
C764 C 0.21834 0.54233 0.88106 0.0
C765 C 0.22359 0.5393 0.86407 0.0
C766 C 0.21432 0.52802 0.85462 0.0
C767 C 0.20349 0.53385 0.88788 0.0
C768 C 0.19461 0.5227 0.87801 0.0
N769 N 0.17564 0.48509 0.83516 0.0
C770 C 0.17467 0.46688 0.81094 0.0
C771 C 0.15727 0.46336 0.81451 0.0
C772 C 0.14942 0.47049 0.82894 0.0
C773 C 0.15877 0.48097 0.83911 0.0
C774 C 0.18348 0.47774 0.82124 0.0
H775 H 0.15195 0.48573 0.85002 0.0
H776 H 0.19658 0.48019 0.81748 0.0
H777 H 0.21906 0.52628 0.84177 0.0
H778 H 0.18352 0.51661 0.88413 0.0
C779 C 0.15702 0.49905 0.87872 0.0
C780 C 0.16412 0.53301 0.82596 0.0
C781 C 0.21177 0.47235 0.87141 0.0
C782 C 0.2184 0.50505 0.81776 0.0
H783 H 0.13462 0.5418 0.84706 0.0
H784 H 0.13053 0.52327 0.87602 0.0
H785 H 0.16116 0.47323 0.90465 0.0
H786 H 0.19147 0.45904 0.90072 0.0
H787 H 0.24383 0.46719 0.85277 0.0
H788 H 0.24758 0.48493 0.82336 0.0
H789 H 0.21195 0.52706 0.78927 0.0
H790 H 0.18224 0.54198 0.79366 0.0
H791 H 0.23479 0.5457 0.85795 0.0
H792 H 0.19884 0.53547 0.90098 0.0
H793 H 0.18138 0.46167 0.79993 0.0
H794 H 0.13606 0.4679 0.8325 0.0
C795 C 0.49268 0.21515 0.84293 0.0
C796 C 0.48967 0.22897 0.83198 0.0
C797 C 0.50189 0.22875 0.81887 0.0
C798 C 0.51159 0.21487 0.82256 0.0
N799 N 0.50627 0.20614 0.8372 0.0
Co800 Co 0.51652 0.18509 0.84737 0.0
N801 N 0.535 0.18531 0.82853 0.0
C802 C 0.53765 0.19703 0.81544 0.0
C803 C 0.55136 0.1937 0.80452 0.0
C804 C 0.55777 0.17889 0.8109 0.0
C805 C 0.54754 0.17402 0.82541 0.0
N806 N 0.52656 0.16383 0.85733 0.0
C807 C 0.53956 0.15432 0.85107 0.0
C808 C 0.54219 0.1401 0.86161 0.0
C809 C 0.53022 0.14049 0.87494 0.0
C810 C 0.52104 0.15486 0.87178 0.0
N811 N 0.49823 0.18506 0.86641 0.0
C812 C 0.49602 0.17377 0.87991 0.0
C813 C 0.48249 0.17729 0.89101 0.0
C814 C 0.47573 0.1918 0.8843 0.0
C815 C 0.4856 0.19628 0.86945 0.0
N816 N 0.50182 0.17096 0.83386 0.0
C817 C 0.48061 0.15118 0.81483 0.0
C818 C 0.48135 0.148 0.83236 0.0
C819 C 0.49207 0.15788 0.84154 0.0
C820 C 0.49075 0.16427 0.80689 0.0
C821 C 0.50111 0.174 0.8166 0.0
N822 N 0.53124 0.19922 0.86089 0.0
C823 C 0.54407 0.2046 0.88734 0.0
C824 C 0.55268 0.2189 0.87983 0.0
C825 C 0.55027 0.22334 0.86278 0.0
C826 C 0.53949 0.21346 0.85365 0.0
C827 C 0.53354 0.19499 0.8777 0.0
H828 H 0.53804 0.21765 0.84078 0.0
H829 H 0.52746 0.18417 0.88413 0.0
H830 H 0.49227 0.15464 0.85481 0.0
H831 H 0.50838 0.18393 0.80985 0.0
C832 C 0.5263 0.21031 0.81305 0.0
C833 C 0.48275 0.21156 0.85896 0.0
C834 C 0.54942 0.15797 0.83502 0.0
C835 C 0.50687 0.15997 0.88181 0.0
H836 H 0.47982 0.23838 0.83347 0.0
H837 H 0.5037 0.23783 0.80812 0.0
H838 H 0.55584 0.2009 0.793 0.0
H839 H 0.5685 0.17224 0.80522 0.0
H840 H 0.55164 0.13036 0.85969 0.0
H841 H 0.52825 0.13123 0.88552 0.0
H842 H 0.47814 0.17022 0.90264 0.0
H843 H 0.46487 0.19844 0.88979 0.0
H844 H 0.47385 0.13778 0.83895 0.0
H845 H 0.49047 0.16718 0.79329 0.0
H846 H 0.54566 0.20065 0.90053 0.0
H847 H 0.55652 0.2345 0.85653 0.0
C848 C 0.83791 0.49761 0.14795 0.0
C849 C 0.84586 0.49426 0.13216 0.0
C850 C 0.85973 0.50485 0.12986 0.0
C851 C 0.85944 0.51411 0.14423 0.0
N852 N 0.8462 0.51009 0.15563 0.0
Co853 Co 0.84067 0.52078 0.17803 0.0
N854 N 0.8607 0.53685 0.17417 0.0
C855 C 0.87176 0.53834 0.16024 0.0
C856 C 0.88414 0.5506 0.16126 0.0
C857 C 0.8809 0.55729 0.17684 0.0
C858 C 0.86672 0.5486 0.18446 0.0
N859 N 0.83535 0.53125 0.2006 0.0
C860 C 0.84402 0.5433 0.2085 0.0
C861 C 0.8364 0.54642 0.22448 0.0
C862 C 0.82241 0.53596 0.22678 0.0
C863 C 0.82234 0.52703 0.21219 0.0
N864 N 0.82045 0.50491 0.18176 0.0
C865 C 0.80896 0.50395 0.19538 0.0
C866 C 0.7966 0.49167 0.19441 0.0
C867 C 0.80027 0.48444 0.17918 0.0
C868 C 0.81467 0.49286 0.17165 0.0
N869 N 0.85516 0.50391 0.18946 0.0
C870 C 0.87607 0.48093 0.20661 0.0
C871 C 0.85927 0.48351 0.21267 0.0
C872 C 0.84916 0.49497 0.20401 0.0
C873 C 0.88214 0.48979 0.1916 0.0
C874 C 0.87152 0.50109 0.18326 0.0
N875 N 0.82616 0.53769 0.16664 0.0
C876 C 0.80019 0.5538 0.1663 0.0
C877 C 0.80528 0.56136 0.15036 0.0
C878 C 0.82105 0.55696 0.14274 0.0
C879 C 0.8312 0.54521 0.15103 0.0
C880 C 0.81072 0.54209 0.17412 0.0
H881 H 0.84301 0.54237 0.1445 0.0
H882 H 0.80603 0.53678 0.18621 0.0
H883 H 0.83657 0.49644 0.20943 0.0
H884 H 0.8769 0.50752 0.17193 0.0
C885 C 0.87079 0.52737 0.14686 0.0
C886 C 0.82224 0.48904 0.15482 0.0
C887 C 0.8598 0.55162 0.20167 0.0
C888 C 0.81042 0.51439 0.20915 0.0
H889 H 0.84191 0.48532 0.12305 0.0
H890 H 0.86873 0.50595 0.11883 0.0
H891 H 0.89449 0.55403 0.15194 0.0
H892 H 0.88829 0.56725 0.18212 0.0
H893 H 0.84064 0.55517 0.23365 0.0
H894 H 0.81351 0.53481 0.23788 0.0
H895 H 0.78622 0.48831 0.20371 0.0
H896 H 0.79313 0.47411 0.17421 0.0
H897 H 0.85385 0.47669 0.22406 0.0
H898 H 0.89512 0.48831 0.18645 0.0
H899 H 0.78818 0.55698 0.17284 0.0
H900 H 0.82546 0.56232 0.13027 0.0
C901 C 0.54144 0.85268 0.16907 0.0
C902 C 0.54718 0.85979 0.15323 0.0
C903 C 0.53951 0.8752 0.15152 0.0
C904 C 0.52949 0.87662 0.1663 0.0
N905 N 0.53049 0.86322 0.17754 0.0
Co906 Co 0.51644 0.85958 0.19976 0.0
N907 N 0.50423 0.88176 0.19668 0.0
C908 C 0.50716 0.89334 0.18356 0.0
C909 C 0.49792 0.9079 0.18524 0.0
C910 C 0.48867 0.90563 0.2005 0.0
C911 C 0.49271 0.88969 0.20726 0.0
N912 N 0.50191 0.85559 0.22163 0.0
C913 C 0.49022 0.86566 0.22971 0.0
C914 C 0.4831 0.85766 0.24462 0.0
C915 C 0.49076 0.84223 0.24623 0.0
C916 C 0.502 0.84157 0.2322 0.0
N917 N 0.5291 0.83773 0.20318 0.0
C918 C 0.52728 0.82687 0.21701 0.0
C919 C 0.53729 0.81276 0.21576 0.0
C920 C 0.54589 0.8146 0.2001 0.0
C921 C 0.54054 0.82974 0.19259 0.0
N922 N 0.53394 0.87187 0.21243 0.0
C923 C 0.55671 0.89072 0.2316 0.0
C924 C 0.5483 0.87596 0.23853 0.0
C925 C 0.53723 0.86679 0.22883 0.0
C926 C 0.55382 0.89554 0.21463 0.0
C927 C 0.5425 0.88608 0.2054 0.0
N928 N 0.49897 0.84726 0.1871 0.0
C929 C 0.48423 0.82099 0.18132 0.0
C930 C 0.47672 0.82851 0.16714 0.0
C931 C 0.48033 0.84591 0.16359 0.0
C932 C 0.49144 0.85487 0.17349 0.0
C933 C 0.49487 0.8305 0.19113 0.0
H934 H 0.49387 0.86794 0.16977 0.0
H935 H 0.49986 0.82385 0.20178 0.0
H936 H 0.53136 0.85569 0.235 0.0
H937 H 0.54069 0.89065 0.19265 0.0
C938 C 0.51869 0.89014 0.16986 0.0
C939 C 0.54623 0.8356 0.17514 0.0
C940 C 0.48569 0.88297 0.22403 0.0
C941 C 0.51425 0.82901 0.22967 0.0
H942 H 0.55572 0.85426 0.14372 0.0
H943 H 0.54079 0.88413 0.14061 0.0
H944 H 0.49808 0.91896 0.17653 0.0
H945 H 0.48015 0.91484 0.20612 0.0
H946 H 0.4736 0.86262 0.25361 0.0
H947 H 0.48882 0.83286 0.25672 0.0
H948 H 0.53766 0.80199 0.22479 0.0
H949 H 0.5547 0.80558 0.19459 0.0
H950 H 0.5503 0.87136 0.25145 0.0
H951 H 0.55994 0.90685 0.20857 0.0
H952 H 0.48233 0.80762 0.18482 0.0
H953 H 0.47466 0.85278 0.1532 0.0
C954 C 0.19166 0.54758 0.1597 0.0
C955 C 0.18527 0.55478 0.14499 0.0
C956 C 0.16997 0.54694 0.14317 0.0
C957 C 0.16783 0.53555 0.15686 0.0
N958 N 0.18077 0.53571 0.16744 0.0
Co959 Co 0.18266 0.5214 0.18905 0.0
N960 N 0.16055 0.50919 0.18582 0.0
C961 C 0.15027 0.51171 0.17277 0.0
C962 C 0.13578 0.50177 0.1742 0.0
C963 C 0.1368 0.49232 0.18906 0.0
C964 C 0.15199 0.497 0.19584 0.0
N965 N 0.18444 0.5072 0.21076 0.0
C966 C 0.17361 0.49522 0.21843 0.0
C967 C 0.17977 0.48841 0.23342 0.0
C968 C 0.19486 0.49655 0.23546 0.0
C969 C 0.19712 0.50775 0.22163 0.0
N970 N 0.20487 0.53345 0.19216 0.0
C971 C 0.21526 0.53079 0.20509 0.0
C972 C 0.22998 0.54037 0.20341 0.0
C973 C 0.22905 0.54965 0.18843 0.0
C974 C 0.21367 0.54527 0.18187 0.0
N975 N 0.1702 0.53879 0.20217 0.0
C976 C 0.15138 0.56176 0.22198 0.0
C977 C 0.16684 0.55552 0.2272 0.0
C978 C 0.176 0.5442 0.21714 0.0
C979 C 0.14575 0.55676 0.20644 0.0
C980 C 0.15529 0.54537 0.19681 0.0
N981 N 0.19513 0.50403 0.17594 0.0
C982 C 0.21904 0.48527 0.17246 0.0
C983 C 0.21421 0.48108 0.15636 0.0
C984 C 0.19937 0.48814 0.15042 0.0
C985 C 0.19006 0.49947 0.16038 0.0
C986 C 0.20939 0.49666 0.18196 0.0
H987 H 0.17896 0.50455 0.15511 0.0
H988 H 0.21386 0.49941 0.19404 0.0
H989 H 0.18762 0.53985 0.22187 0.0
H990 H 0.15016 0.54187 0.18525 0.0
C991 C 0.15414 0.5241 0.15978 0.0
C992 C 0.20827 0.55226 0.16557 0.0
C993 C 0.15742 0.48987 0.21207 0.0
C994 C 0.21108 0.51883 0.21842 0.0
H995 H 0.19112 0.56459 0.13637 0.0
H996 H 0.16152 0.54912 0.13296 0.0
H997 H 0.12552 0.50166 0.16563 0.0
H998 H 0.12727 0.48322 0.19441 0.0
H999 H 0.17395 0.47856 0.24202 0.0
H1000 H 0.20321 0.49453 0.24578 0.0
H1001 H 0.24031 0.54037 0.21189 0.0
H1002 H 0.23877 0.55845 0.18287 0.0
H1003 H 0.17182 0.55928 0.23905 0.0
H1004 H 0.13375 0.56118 0.20195 0.0
H1005 H 0.23025 0.4798 0.17775 0.0
H1006 H 0.19515 0.48531 0.13797 0.0
C1007 C 0.49067 0.18944 0.21023 0.0
C1008 C 0.48311 0.1967 0.22458 0.0
C1009 C 0.49132 0.21186 0.22615 0.0
C1010 C 0.50328 0.21305 0.21267 0.0
N1011 N 0.503 0.19975 0.20235 0.0
Co1012 Co 0.51846 0.19621 0.18153 0.0
N1013 N 0.53144 0.21792 0.1846 0.0
C1014 C 0.52837 0.2291 0.197 0.0
C1015 C 0.53867 0.24332 0.19534 0.0
C1016 C 0.54882 0.24125 0.18089 0.0
C1017 C 0.54419 0.22574 0.17459 0.0
N1018 N 0.53414 0.19251 0.16089 0.0
C1019 C 0.5469 0.20252 0.15333 0.0
C1020 C 0.55472 0.19504 0.13924 0.0
C1021 C 0.54636 0.17996 0.13759 0.0
C1022 C 0.53406 0.17903 0.15077 0.0
N1023 N 0.50529 0.17464 0.1783 0.0
C1024 C 0.50786 0.16386 0.16545 0.0
C1025 C 0.49756 0.14965 0.16709 0.0
C1026 C 0.48794 0.1513 0.18197 0.0
C1027 C 0.49285 0.16659 0.18855 0.0
N1028 N 0.50266 0.2092 0.16681 0.0
C1029 C 0.48145 0.22831 0.14517 0.0
C1030 C 0.48876 0.21303 0.14013 0.0
C1031 C 0.49914 0.20378 0.15101 0.0
C1032 C 0.48483 0.23367 0.16142 0.0
C1033 C 0.49534 0.22406 0.17189 0.0
N1034 N 0.53424 0.18319 0.19621 0.0
C1035 C 0.54957 0.15734 0.20283 0.0
C1036 C 0.55509 0.16382 0.21787 0.0
C1037 C 0.5502 0.18035 0.2217 0.0
C1038 C 0.53978 0.18968 0.21087 0.0
C1039 C 0.53943 0.16716 0.19224 0.0
H1040 H 0.53621 0.20204 0.21474 0.0
H1041 H 0.53585 0.16143 0.18094 0.0
H1042 H 0.50424 0.19231 0.14628 0.0
H1043 H 0.49749 0.22904 0.18398 0.0
C1044 C 0.51527 0.22622 0.20966 0.0
C1045 C 0.48614 0.17244 0.20506 0.0
C1046 C 0.55173 0.21937 0.15867 0.0
C1047 C 0.52148 0.16633 0.15326 0.0
H1048 H 0.47293 0.19142 0.23322 0.0
H1049 H 0.48907 0.22079 0.23612 0.0
H1050 H 0.53851 0.25411 0.20344 0.0
H1051 H 0.55828 0.25036 0.17543 0.0
H1052 H 0.56519 0.20011 0.13083 0.0
H1053 H 0.54869 0.17096 0.1277 0.0
H1054 H 0.49764 0.13893 0.15889 0.0
H1055 H 0.47882 0.14193 0.18756 0.0
H1056 H 0.48638 0.20805 0.12785 0.0
H1057 H 0.47969 0.24547 0.166 0.0
H1058 H 0.5532 0.14472 0.19909 0.0
H1059 H 0.55406 0.18596 0.23323 0.0
C1060 C 0.8396 0.86839 0.50041 0.0
C1061 C 0.84546 0.88498 0.49684 0.0
C1062 C 0.86054 0.88654 0.50434 0.0
C1063 C 0.86301 0.87096 0.51219 0.0
N1064 N 0.8504 0.85947 0.51021 0.0
Co1065 Co 0.84878 0.83549 0.52032 0.0
N1066 N 0.871 0.83791 0.53145 0.0
C1067 C 0.88121 0.85193 0.53075 0.0
C1068 C 0.89561 0.84994 0.53956 0.0
C1069 C 0.89461 0.83365 0.54629 0.0
C1070 C 0.87962 0.82657 0.54113 0.0
N1071 N 0.84715 0.8115 0.53046 0.0
C1072 C 0.85791 0.80266 0.54037 0.0
C1073 C 0.85186 0.78622 0.54441 0.0
C1074 C 0.83677 0.78461 0.53691 0.0
C1075 C 0.83445 0.80006 0.52868 0.0
N1076 N 0.82657 0.83306 0.50914 0.0
C1077 C 0.8164 0.819 0.50981 0.0
C1078 C 0.80223 0.82082 0.50063 0.0
C1079 C 0.80333 0.83704 0.49369 0.0
C1080 C 0.81811 0.8443 0.49917 0.0
N1081 N 0.8612 0.82728 0.49962 0.0
C1082 C 0.87929 0.81498 0.47077 0.0
C1083 C 0.86458 0.80662 0.47788 0.0
C1084 C 0.85579 0.81297 0.49211 0.0
C1085 C 0.88466 0.82977 0.47819 0.0
C1086 C 0.8755 0.83564 0.49251 0.0
N1087 N 0.83629 0.84371 0.54099 0.0
C1088 C 0.81207 0.84176 0.56154 0.0
C1089 C 0.81693 0.85693 0.56858 0.0
C1090 C 0.83206 0.86496 0.56206 0.0
C1091 C 0.84153 0.8581 0.54848 0.0
C1092 C 0.82183 0.83546 0.54785 0.0
H1093 H 0.85284 0.86488 0.54407 0.0
H1094 H 0.81725 0.82404 0.5429 0.0
H1095 H 0.84476 0.80595 0.49689 0.0
H1096 H 0.88031 0.84689 0.49764 0.0
C1097 C 0.87692 0.8668 0.52172 0.0
C1098 C 0.8236 0.86186 0.49436 0.0
C1099 C 0.8741 0.80908 0.54599 0.0
C1100 C 0.82061 0.80417 0.51901 0.0
H1101 H 0.83942 0.89503 0.48968 0.0
H1102 H 0.86867 0.89776 0.50422 0.0
H1103 H 0.90563 0.85925 0.54094 0.0
H1104 H 0.90387 0.82768 0.55416 0.0
H1105 H 0.85781 0.77635 0.55191 0.0
H1106 H 0.82852 0.77346 0.5373 0.0
H1107 H 0.79234 0.81143 0.49906 0.0
H1108 H 0.79428 0.84279 0.48544 0.0
H1109 H 0.86004 0.79495 0.47277 0.0
H1110 H 0.89588 0.83681 0.47301 0.0
H1111 H 0.80066 0.83484 0.5664 0.0
H1112 H 0.83635 0.87681 0.56699 0.0
C1113 C 0.17209 0.80054 0.54344 0.0
C1114 C 0.17924 0.78531 0.54882 0.0
C1115 C 0.1946 0.7842 0.53988 0.0
C1116 C 0.19597 0.7987 0.52955 0.0
N1117 N 0.18239 0.80903 0.53131 0.0
Co1118 Co 0.17937 0.8315 0.51878 0.0
N1119 N 0.20142 0.82918 0.50478 0.0
C1120 C 0.21169 0.81552 0.50473 0.0
C1121 C 0.2259 0.81751 0.49375 0.0
C1122 C 0.22468 0.83343 0.48636 0.0
C1123 C 0.20972 0.84026 0.4933 0.0
N1124 N 0.17691 0.85447 0.50708 0.0
C1125 C 0.18793 0.86353 0.49606 0.0
C1126 C 0.18158 0.87943 0.49172 0.0
C1127 C 0.16614 0.88059 0.50053 0.0
C1128 C 0.16396 0.86541 0.5097 0.0
N1129 N 0.15682 0.83335 0.53203 0.0
C1130 C 0.14554 0.8461 0.53054 0.0
C1131 C 0.1309 0.8437 0.54084 0.0
C1132 C 0.13281 0.82838 0.54926 0.0
C1133 C 0.14857 0.82226 0.54355 0.0
N1134 N 0.19132 0.84276 0.53677 0.0
C1135 C 0.20903 0.86042 0.56076 0.0
C1136 C 0.19205 0.86407 0.55793 0.0
C1137 C 0.18356 0.85526 0.54591 0.0
C1138 C 0.21679 0.84736 0.55174 0.0
C1139 C 0.20772 0.83864 0.54004 0.0
N1140 N 0.16735 0.82023 0.50076 0.0
C1141 C 0.14534 0.82031 0.48058 0.0
C1142 C 0.14855 0.80339 0.47714 0.0
C1143 C 0.16162 0.79515 0.48521 0.0
C1144 C 0.17097 0.80382 0.49671 0.0
C1145 C 0.15474 0.8284 0.49244 0.0
H1146 H 0.18091 0.79687 0.50228 0.0
H1147 H 0.15133 0.84116 0.49484 0.0
H1148 H 0.17078 0.85895 0.54412 0.0
H1149 H 0.21435 0.8288 0.5336 0.0
C1150 C 0.20884 0.80204 0.51675 0.0
C1151 C 0.15515 0.80593 0.54958 0.0
C1152 C 0.20445 0.85765 0.48934 0.0
C1153 C 0.14962 0.86073 0.52034 0.0
H1154 H 0.17377 0.77574 0.55794 0.0
H1155 H 0.20343 0.77376 0.5404 0.0
H1156 H 0.23629 0.80873 0.49189 0.0
H1157 H 0.23403 0.8395 0.47729 0.0
H1158 H 0.18751 0.88919 0.48308 0.0
H1159 H 0.15753 0.89121 0.50026 0.0
H1160 H 0.12023 0.8522 0.54225 0.0
H1161 H 0.12367 0.82245 0.55864 0.0
H1162 H 0.18526 0.87375 0.5649 0.0
H1163 H 0.22995 0.84407 0.55332 0.0
H1164 H 0.13525 0.82711 0.47457 0.0
H1165 H 0.16463 0.78205 0.48265 0.0
C1166 C 0.15687 0.18113 0.54387 0.0
C1167 C 0.14166 0.17356 0.55042 0.0
C1168 C 0.14079 0.1579 0.54366 0.0
C1169 C 0.15553 0.15666 0.53351 0.0
N1170 N 0.16583 0.17056 0.5334 0.0
Co1171 Co 0.18877 0.17351 0.52058 0.0
N1172 N 0.18668 0.15112 0.50928 0.0
C1173 C 0.17301 0.14042 0.51098 0.0
C1174 C 0.1748 0.12628 0.50146 0.0
C1175 C 0.19056 0.128 0.49316 0.0
C1176 C 0.19764 0.14308 0.49822 0.0
N1177 N 0.21199 0.17614 0.50827 0.0
C1178 C 0.22093 0.16555 0.49781 0.0
C1179 C 0.23711 0.1721 0.4931 0.0
C1180 C 0.23842 0.18733 0.50065 0.0
C1181 C 0.2231 0.18919 0.50967 0.0
N1182 N 0.19051 0.19624 0.53128 0.0
C1183 C 0.20366 0.20749 0.52862 0.0
C1184 C 0.20107 0.22249 0.53655 0.0
C1185 C 0.18522 0.22086 0.54467 0.0
C1186 C 0.17904 0.2048 0.54137 0.0
N1187 N 0.19955 0.16206 0.54011 0.0
C1188 C 0.21689 0.14466 0.5658 0.0
C1189 C 0.22103 0.16156 0.56084 0.0
C1190 C 0.21232 0.16992 0.54807 0.0
C1191 C 0.20342 0.13689 0.55815 0.0
C1192 C 0.1949 0.14578 0.54559 0.0
N1193 N 0.17803 0.18495 0.50112 0.0
C1194 C 0.17763 0.20803 0.47981 0.0
C1195 C 0.16113 0.20345 0.47602 0.0
C1196 C 0.15357 0.18897 0.48436 0.0
C1197 C 0.16223 0.1799 0.49667 0.0
C1198 C 0.1858 0.19866 0.49232 0.0
H1199 H 0.15574 0.16905 0.50264 0.0
H1200 H 0.19823 0.20299 0.4949 0.0
H1201 H 0.21633 0.18266 0.54473 0.0
H1202 H 0.18483 0.13905 0.5403 0.0
C1203 C 0.15928 0.1434 0.52264 0.0
C1204 C 0.16207 0.19845 0.54788 0.0
C1205 C 0.21486 0.14908 0.4922 0.0
C1206 C 0.21844 0.20339 0.5189 0.0
H1207 H 0.13205 0.17888 0.55903 0.0
H1208 H 0.13043 0.14868 0.54557 0.0
H1209 H 0.16583 0.11581 0.50087 0.0
H1210 H 0.19626 0.11906 0.48449 0.0
H1211 H 0.24701 0.16645 0.48508 0.0
H1212 H 0.24924 0.19604 0.49965 0.0
H1213 H 0.20964 0.23338 0.53638 0.0
H1214 H 0.1789 0.23051 0.55204 0.0
H1215 H 0.23108 0.16834 0.56666 0.0
H1216 H 0.19972 0.12378 0.56141 0.0
H1217 H 0.18399 0.21916 0.47362 0.0
H1218 H 0.14092 0.18475 0.48152 0.0
C1219 C 0.81577 0.16432 0.49032 0.0
C1220 C 0.80025 0.17127 0.48645 0.0
C1221 C 0.79879 0.18609 0.49477 0.0
C1222 C 0.81337 0.18736 0.50334 0.0
N1223 N 0.82417 0.17429 0.50094 0.0
Co1224 Co 0.84635 0.17083 0.51204 0.0
N1225 N 0.84361 0.19216 0.52519 0.0
C1226 C 0.83039 0.20299 0.52477 0.0
C1227 C 0.83212 0.2168 0.53461 0.0
C1228 C 0.84743 0.21478 0.54168 0.0
C1229 C 0.85419 0.19974 0.53577 0.0
N1230 N 0.86855 0.16738 0.52308 0.0
C1231 C 0.87688 0.1773 0.53379 0.0
C1232 C 0.89214 0.17012 0.53813 0.0
C1233 C 0.89369 0.15536 0.5297 0.0
C1234 C 0.87932 0.15428 0.52077 0.0
N1235 N 0.84908 0.14948 0.49894 0.0
C1236 C 0.86238 0.13874 0.49923 0.0
C1237 C 0.86081 0.12511 0.48914 0.0
C1238 C 0.8455 0.12711 0.48209 0.0
C1239 C 0.83847 0.14186 0.4884 0.0
N1240 N 0.8587 0.1843 0.49296 0.0
C1241 C 0.87803 0.20499 0.46842 0.0
C1242 C 0.8835 0.18877 0.4733 0.0
C1243 C 0.87372 0.17873 0.48547 0.0
C1244 C 0.86237 0.21037 0.47549 0.0
C1245 C 0.85293 0.19987 0.48752 0.0
N1246 N 0.83403 0.15739 0.53113 0.0
C1247 C 0.83076 0.13171 0.54926 0.0
C1248 C 0.81522 0.13721 0.55654 0.0
C1249 C 0.80952 0.15321 0.55121 0.0
C1250 C 0.81904 0.163 0.53865 0.0
C1251 C 0.8399 0.14193 0.53675 0.0
H1252 H 0.81385 0.17496 0.53506 0.0
H1253 H 0.8516 0.13696 0.53171 0.0
H1254 H 0.87878 0.16666 0.48885 0.0
H1255 H 0.84114 0.20475 0.49242 0.0
C1256 C 0.81685 0.20019 0.51446 0.0
C1257 C 0.82163 0.14793 0.48407 0.0
C1258 C 0.87098 0.1936 0.54013 0.0
C1259 C 0.87589 0.1415 0.50959 0.0
H1260 H 0.79074 0.16602 0.4787 0.0
H1261 H 0.78815 0.19471 0.49491 0.0
H1262 H 0.82344 0.22728 0.53619 0.0
H1263 H 0.8531 0.22356 0.54999 0.0
H1264 H 0.9013 0.17513 0.54641 0.0
H1265 H 0.90419 0.14658 0.52986 0.0
H1266 H 0.86966 0.11481 0.48729 0.0
H1267 H 0.84005 0.11857 0.47339 0.0
H1268 H 0.89557 0.18403 0.4682 0.0
H1269 H 0.85741 0.2227 0.47183 0.0
H1270 H 0.83591 0.11955 0.55319 0.0
H1271 H 0.79751 0.15804 0.55638 0.0
H1272 H 0.22875 0.11785 0.49943 0.0
H1273 H 0.24712 0.10057 0.48075 0.0
H1274 H 0.24511 0.1391 0.44015 0.0
H1275 H 0.22644 0.15617 0.4588 0.0
H1276 H 0.24281 0.10937 0.42678 0.0
H1277 H 0.28073 0.13299 0.46465 0.0
H1278 H 0.29208 0.13989 0.49212 0.0
H1279 H 0.29703 0.08665 0.50509 0.0
H1280 H 0.28532 0.07942 0.47787 0.0
H1281 H 0.31292 0.07839 0.37436 0.0
H1282 H 0.29453 0.09573 0.39297 0.0
H1283 H 0.29267 0.05539 0.43204 0.0
H1284 H 0.31094 0.038 0.41333 0.0
H1285 H 0.29713 0.08616 0.44597 0.0
H1286 H 0.2589 0.06311 0.40724 0.0
H1287 H 0.24899 0.05716 0.3789 0.0
H1288 H 0.24606 0.11076 0.36674 0.0
H1289 H 0.25625 0.11704 0.39492 0.0
C1290 C 0.23222 0.1226 0.4865 0.0
C1291 C 0.22616 0.13844 0.48065 0.0
C1292 C 0.24285 0.11275 0.47581 0.0
C1293 C 0.24787 0.11848 0.45893 0.0
C1294 C 0.24158 0.13424 0.45303 0.0
C1295 C 0.23094 0.14408 0.46373 0.0
C1296 C 0.25955 0.10809 0.44747 0.0
C1297 C 0.25478 0.10452 0.43098 0.0
C1298 C 0.27517 0.10136 0.45277 0.0
C1299 C 0.28196 0.10566 0.46929 0.0
C1300 C 0.28404 0.12274 0.47345 0.0
C1301 C 0.29056 0.12672 0.48897 0.0
C1302 C 0.29522 0.11372 0.50037 0.0
C1303 C 0.29336 0.09671 0.49628 0.0
C1304 C 0.28677 0.09267 0.48081 0.0
C1305 C 0.30849 0.07319 0.38688 0.0
C1306 C 0.3133 0.05671 0.39226 0.0
C1307 C 0.29794 0.08312 0.39756 0.0
C1308 C 0.29192 0.07693 0.41399 0.0
C1309 C 0.29702 0.06058 0.41949 0.0
C1310 C 0.30747 0.05059 0.40876 0.0
C1311 C 0.28033 0.08742 0.42538 0.0
C1312 C 0.28513 0.091 0.44183 0.0
C1313 C 0.26483 0.09429 0.41999 0.0
C1314 C 0.2585 0.09055 0.40313 0.0
C1315 C 0.25626 0.07363 0.39848 0.0
C1316 C 0.25058 0.0702 0.38245 0.0
C1317 C 0.24693 0.08357 0.37101 0.0
C1318 C 0.24892 0.10041 0.37561 0.0
C1319 C 0.25464 0.10392 0.39161 0.0
H1320 H 0.24254 0.08089 0.35861 0.0
H1321 H 0.30034 0.11683 0.51235 0.0
H1322 H 0.95958 0.30355 0.35322 0.0
H1323 H 0.9403 0.28432 0.371 0.0
H1324 H 0.97694 0.28177 0.40973 0.0
H1325 H 0.99641 0.30049 0.39162 0.0
H1326 H 0.96393 0.25158 0.40677 0.0
H1327 H 0.94129 0.30719 0.41303 0.0
H1328 H 0.93053 0.33505 0.40331 0.0
H1329 H 0.88943 0.31026 0.38016 0.0
H1330 H 0.9001 0.28222 0.38952 0.0
H1331 H 0.88472 0.23889 0.47123 0.0
H1332 H 0.9037 0.25741 0.45259 0.0
H1333 H 0.9148 0.21557 0.42011 0.0
H1334 H 0.89596 0.19692 0.43885 0.0
H1335 H 0.9042 0.2684 0.42074 0.0
H1336 H 0.95577 0.21868 0.40374 0.0
H1337 H 0.9678 0.19259 0.41647 0.0
H1338 H 0.95305 0.20877 0.46673 0.0
H1339 H 0.94115 0.23505 0.45432 0.0
C1340 C 0.96348 0.29872 0.36548 0.0
C1341 C 0.97939 0.3034 0.37113 0.0
C1342 C 0.95247 0.28785 0.37567 0.0
C1343 C 0.95706 0.28175 0.39183 0.0
C1344 C 0.9731 0.28628 0.39733 0.0
C1345 C 0.98418 0.297 0.38706 0.0
C1346 C 0.94509 0.27084 0.40311 0.0
C1347 C 0.95085 0.25525 0.40978 0.0
C1348 C 0.92812 0.27575 0.40737 0.0
C1349 C 0.92159 0.2926 0.40184 0.0
C1350 C 0.93002 0.30767 0.40576 0.0
C1351 C 0.92394 0.3235 0.40033 0.0
C1352 C 0.90933 0.32442 0.39109 0.0
C1353 C 0.90076 0.30952 0.3873 0.0
C1354 C 0.90681 0.29366 0.39267 0.0
C1355 C 0.89106 0.23367 0.46001 0.0
C1356 C 0.88888 0.21642 0.45655 0.0
C1357 C 0.90194 0.24427 0.44938 0.0
C1358 C 0.91086 0.23786 0.43505 0.0
C1359 C 0.90833 0.22075 0.43128 0.0
C1360 C 0.89756 0.2101 0.44199 0.0
C1361 C 0.92298 0.24904 0.42423 0.0
C1362 C 0.91724 0.26469 0.41765 0.0
C1363 C 0.94013 0.24442 0.42048 0.0
C1364 C 0.94741 0.22873 0.42808 0.0
C1365 C 0.95515 0.21669 0.41751 0.0
C1366 C 0.96194 0.20187 0.42467 0.0
C1367 C 0.96113 0.199 0.4424 0.0
C1368 C 0.9536 0.21098 0.453 0.0
C1369 C 0.94682 0.22583 0.44591 0.0
H1370 H 0.96638 0.18751 0.44791 0.0
H1371 H 0.90463 0.33669 0.3869 0.0
H1372 H 0.79117 0.87316 0.50165 0.0
H1373 H 0.7739 0.89173 0.4838 0.0
H1374 H 0.81499 0.89493 0.44469 0.0
H1375 H 0.83208 0.87599 0.46235 0.0
H1376 H 0.80052 0.927 0.45215 0.0
H1377 H 0.78199 0.87078 0.43885 0.0
H1378 H 0.77074 0.84176 0.44598 0.0
H1379 H 0.72491 0.86232 0.46901 0.0
H1380 H 0.73602 0.89148 0.46228 0.0
H1381 H 0.75654 0.96812 0.38651 0.0
H1382 H 0.77326 0.94848 0.40319 0.0
H1383 H 0.72862 0.93503 0.43598 0.0
H1384 H 0.71146 0.95358 0.41852 0.0
H1385 H 0.74513 0.90794 0.43206 0.0
H1386 H 0.76255 0.96343 0.44706 0.0
H1387 H 0.77325 0.99296 0.44218 0.0
H1388 H 0.82007 0.97489 0.41879 0.0
H1389 H 0.80956 0.94525 0.42333 0.0
C1390 C 0.79643 0.87774 0.48919 0.0
C1391 C 0.81295 0.87309 0.48338 0.0
C1392 C 0.78658 0.88837 0.479 0.0
C1393 C 0.79309 0.89475 0.46283 0.0
C1394 C 0.80967 0.89023 0.4571 0.0
C1395 C 0.81942 0.8794 0.46718 0.0
C1396 C 0.78264 0.90611 0.45193 0.0
C1397 C 0.78851 0.92277 0.44756 0.0
C1398 C 0.7667 0.90084 0.44635 0.0
C1399 C 0.75991 0.88332 0.45021 0.0
C1400 C 0.76957 0.86912 0.44556 0.0
C1401 C 0.76321 0.85264 0.44951 0.0
C1402 C 0.74714 0.8502 0.45798 0.0
C1403 C 0.73737 0.86423 0.46247 0.0
C1404 C 0.74368 0.88073 0.45858 0.0
C1405 C 0.75009 0.96082 0.39706 0.0
C1406 C 0.73247 0.96272 0.40103 0.0
C1407 C 0.75984 0.94972 0.40686 0.0
C1408 C 0.75243 0.94042 0.42124 0.0
C1409 C 0.73482 0.94206 0.42509 0.0
C1410 C 0.72499 0.95295 0.41513 0.0
C1411 C 0.76295 0.92899 0.43219 0.0
C1412 C 0.75711 0.91228 0.4366 0.0
C1413 C 0.77881 0.93433 0.43808 0.0
C1414 C 0.78519 0.95213 0.43538 0.0
C1415 C 0.77508 0.96576 0.44076 0.0
C1416 C 0.78112 0.98252 0.43808 0.0
C1417 C 0.79731 0.9858 0.43014 0.0
C1418 C 0.80752 0.97233 0.42491 0.0
C1419 C 0.80153 0.95555 0.42755 0.0
H1420 H 0.80196 0.99879 0.42807 0.0
H1421 H 0.74224 0.83743 0.46103 0.0
H1422 H 0.13117 0.77368 0.48428 0.0
H1423 H 0.11243 0.75893 0.46589 0.0
H1424 H 0.12353 0.79747 0.4257 0.0
H1425 H 0.14165 0.81268 0.44448 0.0
H1426 H 0.09165 0.79067 0.42708 0.0
H1427 H 0.14108 0.75608 0.42535 0.0
H1428 H 0.16424 0.73909 0.43689 0.0
H1429 H 0.12748 0.7041 0.46206 0.0
H1430 H 0.10407 0.72101 0.45087 0.0
H1431 H 0.06235 0.73731 0.36163 0.0
H1432 H 0.08129 0.75295 0.37907 0.0
H1433 H 0.05633 0.72954 0.42478 0.0
H1434 H 0.03656 0.71465 0.40764 0.0
H1435 H 0.09568 0.72855 0.41929 0.0
H1436 H 0.04636 0.76529 0.42069 0.0
H1437 H 0.02434 0.78232 0.40718 0.0
H1438 H 0.06322 0.81332 0.37978 0.0
H1439 H 0.08549 0.79628 0.39294 0.0
C1440 C 0.12966 0.77889 0.47146 0.0
C1441 C 0.13787 0.79419 0.46568 0.0
C1442 C 0.11903 0.77044 0.46094 0.0
C1443 C 0.11681 0.77689 0.44426 0.0
C1444 C 0.12506 0.79222 0.43849 0.0
C1445 C 0.13542 0.80087 0.44916 0.0
C1446 C 0.10553 0.76788 0.43305 0.0
C1447 C 0.09275 0.77714 0.4252 0.0
C1448 C 0.10677 0.75016 0.4307 0.0
C1449 C 0.12082 0.7399 0.43738 0.0
C1450 C 0.13793 0.74482 0.43344 0.0
C1451 C 0.1511 0.7352 0.43991 0.0
C1452 C 0.14733 0.72055 0.45023 0.0
C1453 C 0.13038 0.71547 0.45407 0.0
C1454 C 0.11715 0.72505 0.44766 0.0
C1455 C 0.0606 0.7357 0.37539 0.0
C1456 C 0.04787 0.72465 0.38317 0.0
C1457 C 0.07156 0.74454 0.3853 0.0
C1458 C 0.07016 0.74229 0.40313 0.0
C1459 C 0.05761 0.73129 0.41099 0.0
C1460 C 0.04641 0.72271 0.40113 0.0
C1461 C 0.08193 0.75135 0.41359 0.0
C1462 C 0.09475 0.74209 0.42121 0.0
C1463 C 0.08095 0.76908 0.41547 0.0
C1464 C 0.06758 0.77938 0.40763 0.0
C1465 C 0.05022 0.77562 0.41165 0.0
C1466 C 0.03769 0.7853 0.40409 0.0
C1467 C 0.04238 0.79886 0.39259 0.0
C1468 C 0.05961 0.8028 0.38866 0.0
C1469 C 0.07219 0.79314 0.39618 0.0
H1470 H 0.03266 0.80635 0.38675 0.0
H1471 H 0.15755 0.71312 0.45522 0.0
H1472 H 0.23359 0.84935 0.58193 0.0
H1473 H 0.25006 0.8663 0.60049 0.0
H1474 H 0.22204 0.91094 0.58602 0.0
H1475 H 0.2065 0.89444 0.56644 0.0
H1476 H 0.25355 0.91913 0.58615 0.0
H1477 H 0.2146 0.88789 0.62573 0.0
H1478 H 0.20011 0.86235 0.63938 0.0
H1479 H 0.24813 0.84318 0.65431 0.0
H1480 H 0.26294 0.86851 0.64055 0.0
H1481 H 0.27419 0.97101 0.65369 0.0
H1482 H 0.25796 0.95225 0.63638 0.0
H1483 H 0.29537 0.91312 0.64233 0.0
H1484 H 0.31172 0.93187 0.65963 0.0
H1485 H 0.25999 0.90174 0.64689 0.0
H1486 H 0.2983 0.93445 0.60721 0.0
H1487 H 0.31152 0.96099 0.5944 0.0
H1488 H 0.2625 0.97851 0.58063 0.0
H1489 H 0.24894 0.95217 0.5936 0.0
C1490 C 0.23105 0.86281 0.58252 0.0
C1491 C 0.21863 0.87047 0.57269 0.0
C1492 C 0.24032 0.87245 0.59335 0.0
C1493 C 0.2371 0.88985 0.59488 0.0
C1494 C 0.22471 0.89752 0.58512 0.0
C1495 C 0.21566 0.88798 0.57408 0.0
C1496 C 0.24689 0.90024 0.6063 0.0
C1497 C 0.25473 0.9154 0.59948 0.0
C1498 C 0.24877 0.89524 0.62363 0.0
C1499 C 0.23989 0.88002 0.63196 0.0
C1500 C 0.22208 0.87817 0.63181 0.0
C1501 C 0.21381 0.86374 0.63959 0.0
C1502 C 0.2232 0.85113 0.64767 0.0
C1503 C 0.24088 0.85295 0.64803 0.0
C1504 C 0.24922 0.86734 0.64025 0.0
C1505 C 0.27883 0.95833 0.65147 0.0
C1506 C 0.2942 0.95286 0.65793 0.0
C1507 C 0.26962 0.94769 0.64155 0.0
C1508 C 0.27557 0.9314 0.63805 0.0
C1509 C 0.29063 0.92568 0.64492 0.0
C1510 C 0.29997 0.9364 0.65468 0.0
C1511 C 0.26636 0.92057 0.62672 0.0
C1512 C 0.25872 0.90537 0.63355 0.0
C1513 C 0.26443 0.92563 0.60947 0.0
C1514 C 0.27259 0.94141 0.60153 0.0
C1515 C 0.29032 0.94402 0.60158 0.0
C1516 C 0.29788 0.95902 0.59427 0.0
C1517 C 0.28785 0.97145 0.58674 0.0
C1518 C 0.27025 0.96888 0.58648 0.0
C1519 C 0.26262 0.95391 0.5938 0.0
H1520 H 0.29373 0.98305 0.58108 0.0
H1521 H 0.21677 0.83997 0.65368 0.0
H1522 H 0.07975 0.2928 0.65879 0.0
H1523 H 0.09879 0.27492 0.64148 0.0
H1524 H 0.06176 0.27346 0.60329 0.0
H1525 H 0.04254 0.29095 0.62092 0.0
H1526 H 0.07458 0.24316 0.60655 0.0
H1527 H 0.09989 0.29878 0.59872 0.0
H1528 H 0.11191 0.32588 0.60755 0.0
H1529 H 0.15117 0.29885 0.6325 0.0
H1530 H 0.13923 0.27155 0.62402 0.0
H1531 H 0.13086 0.21119 0.5403 0.0
H1532 H 0.11164 0.22893 0.55763 0.0
H1533 H 0.14734 0.22824 0.59715 0.0
H1534 H 0.16654 0.21053 0.57974 0.0
H1535 H 0.1352 0.25963 0.59305 0.0
H1536 H 0.10971 0.20389 0.60025 0.0
H1537 H 0.09771 0.17707 0.5907 0.0
H1538 H 0.05864 0.20478 0.56616 0.0
H1539 H 0.07059 0.23181 0.57531 0.0
C1540 C 0.07567 0.28861 0.64672 0.0
C1541 C 0.05958 0.29331 0.64128 0.0
C1542 C 0.08664 0.27845 0.6367 0.0
C1543 C 0.082 0.27286 0.62077 0.0
C1544 C 0.06583 0.27749 0.61542 0.0
C1545 C 0.05483 0.28758 0.62549 0.0
C1546 C 0.09389 0.2622 0.60979 0.0
C1547 C 0.08776 0.24696 0.60344 0.0
C1548 C 0.11131 0.26672 0.60582 0.0
C1549 C 0.11856 0.28311 0.61088 0.0
C1550 C 0.11101 0.2986 0.6062 0.0
C1551 C 0.11782 0.314 0.61112 0.0
C1552 C 0.13227 0.31408 0.62062 0.0
C1553 C 0.13996 0.29876 0.62517 0.0
C1554 C 0.13318 0.28332 0.6203 0.0
C1555 C 0.13457 0.2148 0.55271 0.0
C1556 C 0.15027 0.20941 0.55861 0.0
C1557 C 0.12353 0.22493 0.56269 0.0
C1558 C 0.1278 0.22994 0.57894 0.0
C1559 C 0.14359 0.22468 0.58474 0.0
C1560 C 0.1546 0.2145 0.57478 0.0
C1561 C 0.11588 0.24062 0.58984 0.0
C1562 C 0.12201 0.25586 0.59617 0.0
C1563 C 0.09845 0.23614 0.59371 0.0
C1564 C 0.09115 0.21989 0.58832 0.0
C1565 C 0.09864 0.20428 0.59271 0.0
C1566 C 0.09184 0.18904 0.58738 0.0
C1567 C 0.07745 0.18922 0.5778 0.0
C1568 C 0.0698 0.20466 0.57356 0.0
C1569 C 0.07658 0.21994 0.57882 0.0
H1570 H 0.0722 0.17741 0.57369 0.0
H1571 H 0.13752 0.32602 0.62442 0.0
H1572 H 0.79736 0.14677 0.58563 0.0
H1573 H 0.77955 0.12881 0.60597 0.0
H1574 H 0.79204 0.08486 0.57692 0.0
H1575 H 0.80946 0.10283 0.55622 0.0
H1576 H 0.75845 0.08562 0.58572 0.0
H1577 H 0.81019 0.09138 0.61444 0.0
H1578 H 0.83384 0.1069 0.62635 0.0
H1579 H 0.79823 0.13198 0.66018 0.0
H1580 H 0.77434 0.11678 0.64831 0.0
H1581 H 0.72602 0.02281 0.64715 0.0
H1582 H 0.74549 0.04025 0.62766 0.0
H1583 H 0.73314 0.08445 0.65648 0.0
H1584 H 0.71389 0.06686 0.6761 0.0
H1585 H 0.76688 0.08341 0.64788 0.0
H1586 H 0.71515 0.07773 0.61922 0.0
H1587 H 0.69147 0.06196 0.60768 0.0
H1588 H 0.72694 0.03683 0.57374 0.0
H1589 H 0.75088 0.05223 0.58531 0.0
C1590 C 0.79626 0.13329 0.58351 0.0
C1591 C 0.80488 0.12624 0.5693 0.0
C1592 C 0.78619 0.12302 0.59524 0.0
C1593 C 0.7846 0.10545 0.59307 0.0
C1594 C 0.79314 0.09837 0.57888 0.0
C1595 C 0.80321 0.10864 0.56715 0.0
C1596 C 0.77378 0.09451 0.60542 0.0
C1597 C 0.76045 0.08495 0.59928 0.0
C1598 C 0.77612 0.09395 0.62317 0.0
C1599 C 0.79047 0.10307 0.63037 0.0
C1600 C 0.80739 0.10031 0.62433 0.0
C1601 C 0.82084 0.10903 0.63108 0.0
C1602 C 0.81754 0.12045 0.64398 0.0
C1603 C 0.80077 0.12315 0.65018 0.0
C1604 C 0.78727 0.11447 0.64345 0.0
C1605 C 0.72761 0.03624 0.64929 0.0
C1606 C 0.71857 0.04362 0.66298 0.0
C1607 C 0.73863 0.04619 0.63817 0.0
C1608 C 0.74061 0.06371 0.64049 0.0
C1609 C 0.7318 0.07098 0.65444 0.0
C1610 C 0.72082 0.061 0.66559 0.0
C1611 C 0.75159 0.07451 0.62818 0.0
C1612 C 0.76491 0.08407 0.63432 0.0
C1613 C 0.74923 0.0751 0.61043 0.0
C1614 C 0.73482 0.06602 0.60325 0.0
C1615 C 0.71791 0.06876 0.60938 0.0
C1616 C 0.70444 0.05989 0.60282 0.0
C1617 C 0.7077 0.04838 0.59 0.0
C1618 C 0.72444 0.04574 0.58368 0.0
C1619 C 0.73796 0.05454 0.59023 0.0
H1620 H 0.69726 0.04152 0.58495 0.0
H1621 H 0.82797 0.12719 0.6492 0.0
H1622 H 0.9845 0.71031 0.61611 0.0
H1623 H 0.96662 0.72812 0.59846 0.0
H1624 H 0.93199 0.73535 0.64225 0.0
H1625 H 0.94959 0.71718 0.65991 0.0
H1626 H 0.91452 0.72958 0.61452 0.0
H1627 H 0.96076 0.76661 0.627 0.0
H1628 H 0.9909 0.77528 0.62822 0.0
H1629 H 0.99816 0.77307 0.5737 0.0
H1630 H 0.9681 0.76415 0.57218 0.0
H1631 H 0.86832 0.7988 0.57961 0.0
H1632 H 0.88614 0.78061 0.5972 0.0
H1633 H 0.92207 0.7758 0.55387 0.0
H1634 H 0.90435 0.79431 0.53644 0.0
H1635 H 0.93896 0.78014 0.58123 0.0
H1636 H 0.89307 0.74339 0.56835 0.0
H1637 H 0.86304 0.73458 0.56668 0.0
H1638 H 0.85526 0.73566 0.62124 0.0
H1639 H 0.8852 0.74477 0.62322 0.0
C1640 C 0.973 0.71553 0.622 0.0
C1641 C 0.96859 0.71225 0.63953 0.0
C1642 C 0.96284 0.72589 0.61188 0.0
C1643 C 0.94798 0.73333 0.61899 0.0
C1644 C 0.94339 0.72987 0.63641 0.0
C1645 C 0.95358 0.71956 0.64655 0.0
C1646 C 0.93726 0.7447 0.6083 0.0
C1647 C 0.91984 0.74076 0.60743 0.0
C1648 C 0.94417 0.7591 0.59862 0.0
C1649 C 0.96222 0.76455 0.59949 0.0
C1650 C 0.96882 0.76785 0.61528 0.0
C1651 C 0.98588 0.77283 0.61603 0.0
C1652 C 0.99645 0.77468 0.60106 0.0
C1653 C 0.98996 0.77161 0.5853 0.0
C1654 C 0.97291 0.7666 0.58448 0.0
C1655 C 0.88002 0.79381 0.5739 0.0
C1656 C 0.88494 0.79787 0.55667 0.0
C1657 C 0.89019 0.78334 0.58391 0.0
C1658 C 0.90544 0.77653 0.57689 0.0
C1659 C 0.91041 0.7808 0.55967 0.0
C1660 C 0.90027 0.79132 0.54968 0.0
C1661 C 0.91619 0.76505 0.58746 0.0
C1662 C 0.93362 0.76896 0.5883 0.0
C1663 C 0.90931 0.75056 0.59704 0.0
C1664 C 0.89134 0.74493 0.59592 0.0
C1665 C 0.88493 0.74187 0.57998 0.0
C1666 C 0.86792 0.73681 0.57898 0.0
C1667 C 0.85724 0.7346 0.59384 0.0
C1668 C 0.86355 0.7374 0.60974 0.0
C1669 C 0.88054 0.74251 0.61081 0.0
H1670 H 0.84407 0.73068 0.59304 0.0
H1671 H 0.00966 0.77854 0.60166 0.0
H1672 H 0.37014 0.31942 0.06658 0.0
H1673 H 0.38823 0.3033 0.08576 0.0
H1674 H 0.42285 0.29273 0.04281 0.0
H1675 H 0.40465 0.30881 0.02366 0.0
H1676 H 0.41699 0.26444 0.06326 0.0
H1677 H 0.43264 0.32245 0.07125 0.0
H1678 H 0.42758 0.35245 0.07762 0.0
H1679 H 0.40626 0.33711 0.12772 0.0
H1680 H 0.41094 0.30697 0.12155 0.0
H1681 H 0.48566 0.23374 0.11024 0.0
H1682 H 0.4678 0.2501 0.09134 0.0
H1683 H 0.43462 0.26273 0.13464 0.0
H1684 H 0.45244 0.24636 0.15365 0.0
H1685 H 0.43968 0.29003 0.11398 0.0
H1686 H 0.42359 0.23211 0.10603 0.0
H1687 H 0.42824 0.20203 0.09969 0.0
H1688 H 0.44995 0.21709 0.04967 0.0
H1689 H 0.44565 0.24729 0.05579 0.0
C1690 C 0.38164 0.31367 0.0613 0.0
C1691 C 0.38606 0.31539 0.04368 0.0
C1692 C 0.39202 0.3045 0.07225 0.0
C1693 C 0.40708 0.29686 0.06583 0.0
C1694 C 0.41136 0.29847 0.04814 0.0
C1695 C 0.40101 0.3077 0.03721 0.0
C1696 C 0.41827 0.28714 0.0775 0.0
C1697 C 0.42213 0.27014 0.07421 0.0
C1698 C 0.42473 0.29432 0.09209 0.0
C1699 C 0.42198 0.31244 0.09588 0.0
C1700 C 0.42674 0.32546 0.08358 0.0
C1701 C 0.42396 0.34249 0.08716 0.0
C1702 C 0.41657 0.34668 0.10305 0.0
C1703 C 0.41197 0.33384 0.11541 0.0
C1704 C 0.41469 0.31678 0.11188 0.0
C1705 C 0.47447 0.23983 0.11579 0.0
C1706 C 0.47052 0.23854 0.13357 0.0
C1707 C 0.46423 0.24925 0.10491 0.0
C1708 C 0.44962 0.25755 0.11143 0.0
C1709 C 0.44577 0.2565 0.12919 0.0
C1710 C 0.45605 0.24713 0.1401 0.0
C1711 C 0.4384 0.2673 0.09976 0.0
C1712 C 0.43454 0.28432 0.10304 0.0
C1713 C 0.4319 0.26012 0.08518 0.0
C1714 C 0.43445 0.24197 0.08143 0.0
C1715 C 0.42948 0.22902 0.09372 0.0
C1716 C 0.43203 0.21194 0.09016 0.0
C1717 C 0.43943 0.20765 0.0743 0.0
C1718 C 0.44424 0.22043 0.06196 0.0
C1719 C 0.44174 0.23753 0.06546 0.0
H1720 H 0.44139 0.19443 0.07157 0.0
H1721 H 0.41443 0.35988 0.1058 0.0
H1722 H 0.79136 0.49263 0.14159 0.0
H1723 H 0.77613 0.47192 0.12535 0.0
H1724 H 0.81847 0.43773 0.12799 0.0
H1725 H 0.83345 0.45816 0.14485 0.0
H1726 H 0.80139 0.44642 0.09277 0.0
H1727 H 0.79185 0.42544 0.15222 0.0
H1728 H 0.78344 0.42986 0.18248 0.0
H1729 H 0.73396 0.44604 0.16873 0.0
H1730 H 0.74221 0.44203 0.13833 0.0
H1731 H 0.76113 0.37544 0.06025 0.0
H1732 H 0.77833 0.39296 0.07766 0.0
H1733 H 0.73289 0.41762 0.09731 0.0
H1734 H 0.71552 0.39933 0.0809 0.0
H1735 H 0.75281 0.41331 0.12167 0.0
H1736 H 0.75979 0.43585 0.06421 0.0
H1737 H 0.76633 0.43541 0.03309 0.0
H1738 H 0.81771 0.4208 0.04139 0.0
H1739 H 0.81141 0.42092 0.07258 0.0
C1740 C 0.79735 0.48068 0.13866 0.0
C1741 C 0.81347 0.47685 0.14437 0.0
C1742 C 0.78873 0.46895 0.1294 0.0
C1743 C 0.79627 0.45342 0.12553 0.0
C1744 C 0.81256 0.44974 0.13085 0.0
C1745 C 0.82104 0.46132 0.14043 0.0
C1746 C 0.78677 0.44078 0.11647 0.0
C1747 C 0.79095 0.4389 0.09907 0.0
C1748 C 0.77281 0.43161 0.12469 0.0
C1749 C 0.76771 0.43359 0.143 0.0
C1750 C 0.77923 0.43008 0.15564 0.0
C1751 C 0.77448 0.43249 0.17281 0.0
C1752 C 0.75819 0.43827 0.17752 0.0
C1753 C 0.74659 0.44159 0.16506 0.0
C1754 C 0.75129 0.43924 0.14786 0.0
C1755 C 0.75474 0.38431 0.06856 0.0
C1756 C 0.73694 0.38608 0.06903 0.0
C1757 C 0.76463 0.3945 0.07833 0.0
C1758 C 0.75694 0.40687 0.08849 0.0
C1759 C 0.73913 0.40824 0.08947 0.0
C1760 C 0.72922 0.3979 0.07991 0.0
C1761 C 0.76742 0.41871 0.09779 0.0
C1762 C 0.76336 0.42058 0.11528 0.0
C1763 C 0.78121 0.42825 0.08949 0.0
C1764 C 0.78507 0.4282 0.07074 0.0
C1765 C 0.77245 0.43241 0.0594 0.0
C1766 C 0.77612 0.43224 0.04175 0.0
C1767 C 0.79241 0.42802 0.03527 0.0
C1768 C 0.80509 0.42402 0.04643 0.0
C1769 C 0.80148 0.42415 0.0641 0.0
H1770 H 0.79523 0.42789 0.02161 0.0
H1771 H 0.75454 0.44014 0.19082 0.0
H1772 H 0.65778 0.75416 0.07929 0.0
H1773 H 0.64111 0.77212 0.09837 0.0
H1774 H 0.59519 0.74534 0.08741 0.0
H1775 H 0.61163 0.72796 0.06749 0.0
H1776 H 0.5878 0.77695 0.08888 0.0
H1777 H 0.61671 0.73943 0.12656 0.0
H1778 H 0.64131 0.72498 0.13839 0.0
H1779 H 0.66297 0.77325 0.14975 0.0
H1780 H 0.63859 0.78801 0.13779 0.0
H1781 H 0.53574 0.80741 0.15908 0.0
H1782 H 0.5526 0.7892 0.13993 0.0
H1783 H 0.59735 0.81997 0.14623 0.0
H1784 H 0.58042 0.83813 0.1654 0.0
H1785 H 0.60523 0.78636 0.14738 0.0
H1786 H 0.57518 0.82353 0.11 0.0
H1787 H 0.54978 0.83719 0.09898 0.0
H1788 H 0.52952 0.78829 0.08766 0.0
H1789 H 0.55461 0.77433 0.09896 0.0
C1790 C 0.64411 0.75212 0.08068 0.0
C1791 C 0.63626 0.73935 0.07163 0.0
C1792 C 0.63454 0.76235 0.09192 0.0
C1793 C 0.61675 0.76006 0.09479 0.0
C1794 C 0.60884 0.74747 0.08566 0.0
C1795 C 0.61839 0.73731 0.07431 0.0
C1796 C 0.60642 0.77083 0.10709 0.0
C1797 C 0.59156 0.77875 0.10174 0.0
C1798 C 0.61125 0.77366 0.1239 0.0
C1799 C 0.62591 0.76483 0.13112 0.0
C1800 C 0.62678 0.74697 0.13147 0.0
C1801 C 0.64067 0.73872 0.13822 0.0
C1802 C 0.65372 0.74819 0.14477 0.0
C1803 C 0.65287 0.76593 0.14464 0.0
C1804 C 0.63901 0.77425 0.13789 0.0
C1805 C 0.54918 0.81025 0.15636 0.0
C1806 C 0.55672 0.82427 0.16367 0.0
C1807 C 0.55884 0.79986 0.14535 0.0
C1808 C 0.57635 0.80319 0.14134 0.0
C1809 C 0.58394 0.81703 0.14898 0.0
C1810 C 0.57424 0.82747 0.15991 0.0
C1811 C 0.58666 0.79239 0.12914 0.0
C1812 C 0.60151 0.78451 0.13451 0.0
C1813 C 0.58174 0.78946 0.11241 0.0
C1814 C 0.5667 0.79787 0.10549 0.0
C1815 C 0.56524 0.81568 0.1053 0.0
C1816 C 0.55089 0.82348 0.099 0.0
C1817 C 0.538 0.81362 0.09268 0.0
C1818 C 0.53946 0.79593 0.09261 0.0
C1819 C 0.55374 0.78806 0.09896 0.0
H1820 H 0.52691 0.8197 0.0878 0.0
H1821 H 0.66446 0.74178 0.14999 0.0
H1822 H 0.2181 0.58458 0.17202 0.0
H1823 H 0.23688 0.60395 0.15388 0.0
H1824 H 0.24239 0.56569 0.1162 0.0
H1825 H 0.22414 0.54613 0.13472 0.0
H1826 H 0.27195 0.58014 0.11943 0.0
H1827 H 0.2159 0.60043 0.11152 0.0
H1828 H 0.1872 0.6105 0.12019 0.0
H1829 H 0.20922 0.6534 0.14322 0.0
H1830 H 0.23809 0.64344 0.13491 0.0
H1831 H 0.30382 0.63561 0.05019 0.0
H1832 H 0.28485 0.61652 0.06852 0.0
H1833 H 0.2872 0.65108 0.10952 0.0
H1834 H 0.3064 0.67007 0.09123 0.0
H1835 H 0.25368 0.63876 0.10429 0.0
H1836 H 0.31027 0.61746 0.111 0.0
H1837 H 0.33831 0.60724 0.10031 0.0
H1838 H 0.31406 0.56562 0.07721 0.0
H1839 H 0.28583 0.57579 0.0875 0.0
C1840 C 0.22346 0.58036 0.1599 0.0
C1841 C 0.2198 0.56395 0.15469 0.0
C1842 C 0.23406 0.59143 0.14949 0.0
C1843 C 0.24087 0.58639 0.13353 0.0
C1844 C 0.23729 0.56989 0.12843 0.0
C1845 C 0.22685 0.55876 0.13894 0.0
C1846 C 0.25174 0.59829 0.12218 0.0
C1847 C 0.26784 0.59287 0.11597 0.0
C1848 C 0.24651 0.61502 0.11779 0.0
C1849 C 0.22917 0.6211 0.12274 0.0
C1850 C 0.21463 0.61194 0.11855 0.0
C1851 C 0.19833 0.61764 0.12338 0.0
C1852 C 0.19639 0.63256 0.13229 0.0
C1853 C 0.21075 0.64183 0.13634 0.0
C1854 C 0.22708 0.63617 0.13157 0.0
C1855 C 0.30021 0.63908 0.06312 0.0
C1856 C 0.30641 0.65425 0.06937 0.0
C1857 C 0.28942 0.62822 0.07354 0.0
C1858 C 0.28468 0.63239 0.09038 0.0
C1859 C 0.29068 0.64769 0.09655 0.0
C1860 C 0.3016 0.65848 0.08616 0.0
C1861 C 0.27379 0.62056 0.10166 0.0
C1862 C 0.25773 0.62601 0.10782 0.0
C1863 C 0.27893 0.60379 0.10579 0.0
C1864 C 0.29592 0.59748 0.09989 0.0
C1865 C 0.3109 0.6062 0.10354 0.0
C1866 C 0.32684 0.60041 0.09756 0.0
C1867 C 0.32797 0.58581 0.08806 0.0
C1868 C 0.31316 0.57694 0.08456 0.0
C1869 C 0.29719 0.58271 0.09047 0.0
H1870 H 0.34031 0.58135 0.08343 0.0
H1871 H 0.18376 0.63695 0.13602 0.0
H1872 H 0.37866 0.70616 0.95973 0.0
H1873 H 0.39785 0.72539 0.94177 0.0
H1874 H 0.40305 0.75741 0.98447 0.0
H1875 H 0.38367 0.73826 1.0023 0.0
H1876 H 0.39861 0.77625 0.95611 0.0
H1877 H 0.43445 0.73053 0.97239 0.0
H1878 H 0.4428 0.70053 0.97596 0.0
H1879 H 0.44423 0.69564 0.92164 0.0
H1880 H 0.43559 0.72554 0.91776 0.0
H1881 H 0.48682 0.80123 0.90957 0.0
H1882 H 0.46899 0.78287 0.92984 0.0
H1883 H 0.42486 0.79517 0.9019 0.0
H1884 H 0.44271 0.81361 0.88178 0.0
H1885 H 0.4503 0.75473 0.92497 0.0
H1886 H 0.39014 0.79674 0.93036 0.0
H1887 H 0.38291 0.82717 0.92867 0.0
H1888 H 0.43287 0.8405 0.9434 0.0
H1889 H 0.4403 0.81016 0.94546 0.0
C1890 C 0.38401 0.71729 0.96519 0.0
C1891 C 0.37995 0.72078 0.98231 0.0
C1892 C 0.39495 0.72823 0.955 0.0
C1893 C 0.40203 0.74274 0.96184 0.0
C1894 C 0.39775 0.74629 0.97894 0.0
C1895 C 0.38679 0.73537 0.98911 0.0
C1896 C 0.41387 0.75424 0.95114 0.0
C1897 C 0.4099 0.77155 0.9493 0.0
C1898 C 0.42881 0.74817 0.94254 0.0
C1899 C 0.43423 0.73024 0.9448 0.0
C1900 C 0.43643 0.72302 0.96121 0.0
C1901 C 0.44122 0.70604 0.96329 0.0
C1902 C 0.44401 0.69618 0.94904 0.0
C1903 C 0.44205 0.70329 0.93267 0.0
C1904 C 0.43721 0.72026 0.93052 0.0
C1905 C 0.47329 0.79999 0.9079 0.0
C1906 C 0.466 0.80873 0.89429 0.0
C1907 C 0.46316 0.7895 0.91937 0.0
C1908 C 0.44558 0.78774 0.91744 0.0
C1909 C 0.43834 0.79651 0.90376 0.0
C1910 C 0.44848 0.80697 0.89228 0.0
C1911 C 0.43483 0.77666 0.92966 0.0
C1912 C 0.439 0.75943 0.93179 0.0
C1913 C 0.42027 0.78287 0.9388 0.0
C1914 C 0.41582 0.80116 0.93789 0.0
C1915 C 0.39955 0.80616 0.93332 0.0
C1916 C 0.39542 0.8234 0.93229 0.0
C1917 C 0.40744 0.83577 0.93587 0.0
C1918 C 0.42359 0.83092 0.94057 0.0
C1919 C 0.42777 0.8137 0.94165 0.0
H1920 H 0.40422 0.8491 0.93504 0.0
H1921 H 0.44772 0.68303 0.95067 0.0
H1922 H 0.31032 0.36397 0.94612 0.0
H1923 H 0.29134 0.38076 0.92856 0.0
H1924 H 0.2889 0.4192 0.96617 0.0
H1925 H 0.30733 0.402 0.98402 0.0
H1926 H 0.25871 0.41537 0.95539 0.0
H1927 H 0.31395 0.42346 0.92672 0.0
H1928 H 0.34134 0.41475 0.91297 0.0
H1929 H 0.31481 0.38922 0.87508 0.0
H1930 H 0.28723 0.39758 0.88875 0.0
H1931 H 0.22456 0.48063 0.9016 0.0
H1932 H 0.24301 0.46364 0.91965 0.0
H1933 H 0.24229 0.42323 0.88428 0.0
H1934 H 0.22391 0.44032 0.86621 0.0
H1935 H 0.27409 0.42833 0.89392 0.0
H1936 H 0.21863 0.42113 0.92298 0.0
H1937 H 0.19165 0.4309 0.93676 0.0
H1938 H 0.21932 0.45601 0.9741 0.0
H1939 H 0.2465 0.44664 0.96037 0.0
C1940 C 0.30564 0.37598 0.95064 0.0
C1941 C 0.31032 0.38168 0.96643 0.0
C1942 C 0.29489 0.38567 0.94053 0.0
C1943 C 0.2888 0.40151 0.94579 0.0
C1944 C 0.29337 0.40711 0.9617 0.0
C1945 C 0.30398 0.39732 0.97188 0.0
C1946 C 0.27767 0.41218 0.93479 0.0
C1947 C 0.26224 0.41837 0.942 0.0
C1948 C 0.28195 0.41597 0.91717 0.0
C1949 C 0.29852 0.41102 0.90886 0.0
C1950 C 0.31395 0.41589 0.91552 0.0
C1951 C 0.32951 0.41103 0.90773 0.0
C1952 C 0.32982 0.4014 0.89318 0.0
C1953 C 0.31455 0.39666 0.88636 0.0
C1954 C 0.29895 0.40147 0.89412 0.0
C1955 C 0.22833 0.4681 0.89775 0.0
C1956 C 0.22286 0.46181 0.8825 0.0
C1957 C 0.23884 0.45835 0.90809 0.0
C1958 C 0.24402 0.44201 0.90348 0.0
C1959 C 0.23856 0.43576 0.88817 0.0
C1960 C 0.22802 0.44551 0.87786 0.0
C1961 C 0.25517 0.43146 0.91452 0.0
C1962 C 0.27059 0.42531 0.9073 0.0
C1963 C 0.25095 0.42784 0.93215 0.0
C1964 C 0.23461 0.43331 0.94055 0.0
C1965 C 0.21897 0.42884 0.93406 0.0
C1966 C 0.20364 0.43429 0.94187 0.0
C1967 C 0.20377 0.4441 0.95627 0.0
C1968 C 0.21924 0.44844 0.96293 0.0
C1969 C 0.23461 0.44305 0.95514 0.0
H1970 H 0.19189 0.44832 0.9623 0.0
H1971 H 0.34188 0.39764 0.88717 0.0
H1972 H 0.58468 0.23071 0.86987 0.0
H1973 H 0.60373 0.24752 0.8863 0.0
H1974 H 0.56568 0.24675 0.92842 0.0
H1975 H 0.54651 0.23006 0.912 0.0
H1976 H 0.58018 0.27902 0.92012 0.0
H1977 H 0.59814 0.22139 0.93103 0.0
H1978 H 0.60803 0.19305 0.92296 0.0
H1979 H 0.65271 0.21577 0.89649 0.0
H1980 H 0.64295 0.24429 0.9042 0.0
H1981 H 0.62897 0.30749 0.98564 0.0
H1982 H 0.61082 0.291 0.96813 0.0
H1983 H 0.65272 0.28698 0.9303 0.0
H1984 H 0.67108 0.30314 0.94807 0.0
H1985 H 0.63664 0.25755 0.93529 0.0
H1986 H 0.61958 0.31496 0.92448 0.0
H1987 H 0.60994 0.3436 0.93184 0.0
H1988 H 0.564 0.32202 0.95686 0.0
H1989 H 0.57347 0.29322 0.94986 0.0
C1990 C 0.58036 0.23423 0.88259 0.0
C1991 C 0.56416 0.22909 0.8897 0.0
C1992 C 0.59127 0.2437 0.89198 0.0
C1993 C 0.58611 0.24823 0.90857 0.0
C1994 C 0.56987 0.24331 0.91563 0.0
C1995 C 0.559 0.23372 0.90631 0.0
C1996 C 0.59764 0.25819 0.91857 0.0
C1997 C 0.59245 0.27428 0.92363 0.0
C1998 C 0.61381 0.25213 0.92264 0.0
C1999 C 0.61972 0.23499 0.91804 0.0
C2000 C 0.61 0.22036 0.92336 0.0
C2001 C 0.6156 0.20426 0.91888 0.0
C2002 C 0.63097 0.20261 0.90918 0.0
C2003 C 0.64079 0.21706 0.90398 0.0
C2004 C 0.63524 0.2332 0.90841 0.0
C2005 C 0.63425 0.30316 0.97354 0.0
C2006 C 0.65134 0.30667 0.9681 0.0
C2007 C 0.62388 0.29378 0.96353 0.0
C2008 C 0.63033 0.28804 0.94776 0.0
C2009 C 0.64748 0.29134 0.94241 0.0
C2010 C 0.65794 0.30055 0.95253 0.0
C2011 C 0.61917 0.27842 0.93698 0.0
C2012 C 0.62442 0.26237 0.93174 0.0
C2013 C 0.60309 0.2846 0.93261 0.0
C2014 C 0.59731 0.30192 0.93676 0.0
C2015 C 0.60747 0.31631 0.93166 0.0
C2016 C 0.60203 0.33257 0.93575 0.0
C2017 C 0.58639 0.33462 0.94484 0.0
C2018 C 0.57613 0.32041 0.94983 0.0
C2019 C 0.58152 0.30412 0.94578 0.0
H2020 H 0.5822 0.34722 0.948 0.0
H2021 H 0.63528 0.19014 0.90572 0.0
H2022 H 0.7409 0.66503 0.95971 0.0
H2023 H 0.75828 0.64652 0.94192 0.0
H2024 H 0.72888 0.60293 0.96261 0.0
H2025 H 0.71226 0.62117 0.98143 0.0
H2026 H 0.75925 0.59323 0.95936 0.0
H2027 H 0.72528 0.62325 0.92003 0.0
H2028 H 0.71296 0.64816 0.90543 0.0
H2029 H 0.76309 0.66585 0.88749 0.0
H2030 H 0.77574 0.64115 0.90218 0.0
H2031 H 0.7848 0.5372 0.89317 0.0
H2032 H 0.7685 0.55632 0.91131 0.0
H2033 H 0.80594 0.59612 0.89915 0.0
H2034 H 0.82289 0.57686 0.88155 0.0
H2035 H 0.77201 0.60773 0.89774 0.0
H2036 H 0.80519 0.57591 0.93718 0.0
H2037 H 0.81606 0.54981 0.95094 0.0
H2038 H 0.76498 0.53411 0.96766 0.0
H2039 H 0.75378 0.56002 0.95378 0.0
C2040 C 0.73816 0.6515 0.96078 0.0
C2041 C 0.72488 0.64487 0.97224 0.0
C2042 C 0.74805 0.64084 0.95024 0.0
C2043 C 0.74486 0.62315 0.95043 0.0
C2044 C 0.73174 0.61646 0.96195 0.0
C2045 C 0.72198 0.62707 0.97266 0.0
C2046 C 0.75524 0.61162 0.93889 0.0
C2047 C 0.76176 0.59639 0.94585 0.0
C2048 C 0.75901 0.61557 0.92118 0.0
C2049 C 0.75146 0.63044 0.91236 0.0
C2050 C 0.73369 0.63252 0.91308 0.0
C2051 C 0.72664 0.64659 0.90477 0.0
C2052 C 0.73724 0.65861 0.89558 0.0
C2053 C 0.7549 0.65655 0.89464 0.0
C2054 C 0.76202 0.64251 0.90294 0.0
C2055 C 0.78989 0.54988 0.89446 0.0
C2056 C 0.80551 0.55515 0.88576 0.0
C2057 C 0.78036 0.56093 0.90485 0.0
C2058 C 0.78593 0.57775 0.90682 0.0
C2059 C 0.80124 0.58326 0.8979 0.0
C2060 C 0.81093 0.57214 0.88767 0.0
C2061 C 0.77585 0.58946 0.91826 0.0
C2062 C 0.76943 0.60467 0.91127 0.0
C2063 C 0.77192 0.58536 0.93586 0.0
C2064 C 0.77863 0.56983 0.9443 0.0
C2065 C 0.79626 0.56683 0.94367 0.0
C2066 C 0.80249 0.55208 0.95152 0.0
C2067 C 0.79122 0.54028 0.96013 0.0
C2068 C 0.7737 0.54324 0.96096 0.0
C2069 C 0.7674 0.55797 0.95313 0.0
H2070 H 0.79606 0.52887 0.96619 0.0
H2071 H 0.73176 0.66949 0.88915 0.0
H2072 H 0.04287 0.38646 0.28639 0.0
H2073 H 0.06057 0.40652 0.26786 0.0
H2074 H 0.10124 0.40125 0.30211 0.0
H2075 H 0.0837 0.38079 0.32028 0.0
H2076 H 0.07393 0.43649 0.27224 0.0
H2077 H 0.13952 0.40472 0.27985 0.0
H2078 H 0.15095 0.37604 0.2852 0.0
H2079 H 0.10729 0.35369 0.26409 0.0
H2080 H 0.09574 0.38223 0.25835 0.0
H2081 H 0.14014 0.49434 0.24263 0.0
H2082 H 0.12184 0.47363 0.25968 0.0
H2083 H 0.13116 0.43666 0.22123 0.0
H2084 H 0.14994 0.45725 0.20453 0.0
H2085 H 0.13251 0.42171 0.25124 0.0
H2086 H 0.09368 0.45927 0.22519 0.0
H2087 H 0.08091 0.48676 0.21733 0.0
H2088 H 0.06839 0.49526 0.27027 0.0
H2089 H 0.08148 0.46804 0.27848 0.0
C2090 C 0.05562 0.38963 0.28986 0.0
C2091 C 0.06201 0.38219 0.30466 0.0
C2092 C 0.06568 0.4011 0.27935 0.0
C2093 C 0.08231 0.40529 0.28348 0.0
C2094 C 0.08857 0.39802 0.29849 0.0
C2095 C 0.07855 0.38645 0.30891 0.0
C2096 C 0.09312 0.41718 0.27207 0.0
C2097 C 0.08674 0.43327 0.26766 0.0
C2098 C 0.1097 0.41285 0.26573 0.0
C2099 C 0.1167 0.39562 0.26883 0.0
C2100 C 0.13241 0.39369 0.27627 0.0
C2101 C 0.1389 0.37745 0.27938 0.0
C2102 C 0.12983 0.36305 0.27504 0.0
C2103 C 0.11428 0.36486 0.2675 0.0
C2104 C 0.10775 0.38106 0.26433 0.0
C2105 C 0.13825 0.48175 0.23793 0.0
C2106 C 0.14629 0.47731 0.22232 0.0
C2107 C 0.12775 0.46997 0.24758 0.0
C2108 C 0.12491 0.45364 0.24164 0.0
C2109 C 0.13313 0.44917 0.22608 0.0
C2110 C 0.14376 0.46091 0.21652 0.0
C2111 C 0.11345 0.44117 0.25167 0.0
C2112 C 0.11971 0.42496 0.25582 0.0
C2113 C 0.09659 0.44524 0.25738 0.0
C2114 C 0.08873 0.46167 0.25246 0.0
C2115 C 0.08837 0.46708 0.23517 0.0
C2116 C 0.08107 0.48262 0.23065 0.0
C2117 C 0.07391 0.49279 0.24329 0.0
C2118 C 0.074 0.48742 0.26048 0.0
C2119 C 0.08137 0.47194 0.26508 0.0
H2120 H 0.06824 0.50481 0.23977 0.0
H2121 H 0.13486 0.3505 0.27748 0.0
H2122 H 0.13232 0.52509 0.816 0.0
H2123 H 0.11368 0.54257 0.79878 0.0
H2124 H 0.15196 0.58261 0.79415 0.0
H2125 H 0.16998 0.56558 0.8125 0.0
H2126 H 0.12365 0.59701 0.79685 0.0
H2127 H 0.14383 0.55256 0.76105 0.0
H2128 H 0.14892 0.52259 0.75446 0.0
H2129 H 0.09501 0.5123 0.75859 0.0
H2130 H 0.0896 0.54216 0.76544 0.0
H2131 H 0.08292 0.61546 0.70906 0.0
H2132 H 0.10125 0.59851 0.72705 0.0
H2133 H 0.07188 0.61352 0.77201 0.0
H2134 H 0.05357 0.63054 0.75412 0.0
H2135 H 0.09685 0.57197 0.74801 0.0
H2136 H 0.09663 0.6157 0.80563 0.0
H2137 H 0.09434 0.64621 0.81138 0.0
H2138 H 0.1134 0.65946 0.75999 0.0
H2139 H 0.11602 0.62905 0.75402 0.0
C2140 C 0.13667 0.53768 0.81139 0.0
C2141 C 0.15273 0.54385 0.8154 0.0
C2142 C 0.12608 0.54764 0.80136 0.0
C2143 C 0.13147 0.56387 0.79462 0.0
C2144 C 0.1474 0.57016 0.79899 0.0
C2145 C 0.15781 0.56035 0.80937 0.0
C2146 C 0.12064 0.57422 0.78301 0.0
C2147 C 0.11781 0.59146 0.7862 0.0
C2148 C 0.11314 0.56729 0.76879 0.0
C2149 C 0.11632 0.54955 0.7639 0.0
C2150 C 0.13307 0.5439 0.76057 0.0
C2151 C 0.13601 0.52694 0.75681 0.0
C2152 C 0.1223 0.51555 0.75619 0.0
C2153 C 0.10561 0.52114 0.75912 0.0
C2154 C 0.1026 0.53808 0.76292 0.0
C2155 C 0.08026 0.6151 0.72277 0.0
C2156 C 0.06674 0.62453 0.73006 0.0
C2157 C 0.09082 0.60538 0.73309 0.0
C2158 C 0.0882 0.60481 0.751 0.0
C2159 C 0.07452 0.61397 0.75829 0.0
C2160 C 0.06402 0.62376 0.748 0.0
C2161 C 0.09974 0.59467 0.762 0.0
C2162 C 0.10269 0.57749 0.75868 0.0
C2163 C 0.10772 0.60177 0.77582 0.0
C2164 C 0.10635 0.62009 0.77934 0.0
C2165 C 0.10039 0.62513 0.79558 0.0
C2166 C 0.09902 0.6424 0.79888 0.0
C2167 C 0.10367 0.65476 0.78604 0.0
C2168 C 0.10974 0.64988 0.7699 0.0
C2169 C 0.11115 0.63262 0.76655 0.0
H2170 H 0.10259 0.66813 0.78861 0.0
H2171 H 0.12461 0.50239 0.75349 0.0
H2172 H 0.36189 0.06818 0.74783 0.0
H2173 H 0.38058 0.08627 0.76307 0.0
H2174 H 0.42416 0.06891 0.73277 0.0
H2175 H 0.40575 0.04981 0.71838 0.0
H2176 H 0.4318 0.0696 0.76399 0.0
H2177 H 0.40598 0.10925 0.72594 0.0
H2178 H 0.38244 0.12365 0.71212 0.0
H2179 H 0.36304 0.14086 0.76063 0.0
H2180 H 0.38634 0.12636 0.77479 0.0
H2181 H 0.48864 0.13591 0.78495 0.0
H2182 H 0.46985 0.11845 0.7688 0.0
H2183 H 0.42833 0.12601 0.80618 0.0
H2184 H 0.44707 0.14342 0.82242 0.0
H2185 H 0.42008 0.13082 0.77108 0.0
H2186 H 0.44686 0.0903 0.80855 0.0
H2187 H 0.47146 0.07659 0.82116 0.0
H2188 H 0.49037 0.06194 0.77151 0.0
H2189 H 0.466 0.07579 0.75857 0.0
C2190 C 0.37547 0.06803 0.74452 0.0
C2191 C 0.38228 0.05752 0.73182 0.0
C2192 C 0.38612 0.0786 0.75309 0.0
C2193 C 0.40375 0.07918 0.74886 0.0
C2194 C 0.41059 0.06874 0.73619 0.0
C2195 C 0.39999 0.05797 0.72782 0.0
C2196 C 0.41515 0.09032 0.75796 0.0
C2197 C 0.42935 0.08304 0.76529 0.0
C2198 C 0.41183 0.10781 0.75993 0.0
C2199 C 0.39782 0.11658 0.75145 0.0
C2200 C 0.39662 0.116 0.73368 0.0
C2201 C 0.38334 0.1242 0.72578 0.0
C2202 C 0.37123 0.13313 0.7355 0.0
C2203 C 0.37241 0.13392 0.75313 0.0
C2204 C 0.38567 0.12573 0.76109 0.0
C2205 C 0.47548 0.13391 0.78963 0.0
C2206 C 0.46927 0.14092 0.80491 0.0
C2207 C 0.46481 0.12391 0.78047 0.0
C2208 C 0.44778 0.12094 0.78639 0.0
C2209 C 0.44146 0.12819 0.80147 0.0
C2210 C 0.45217 0.13801 0.81074 0.0
C2211 C 0.43659 0.11005 0.77698 0.0
C2212 C 0.42247 0.11738 0.76965 0.0
C2213 C 0.44011 0.09269 0.77479 0.0
C2214 C 0.4547 0.08424 0.78257 0.0
C2215 C 0.45634 0.08428 0.80031 0.0
C2216 C 0.47023 0.07646 0.80752 0.0
C2217 C 0.4825 0.06844 0.79714 0.0
C2218 C 0.48087 0.06818 0.77953 0.0
C2219 C 0.46702 0.076 0.77225 0.0
H2220 H 0.49324 0.06239 0.80275 0.0
H2221 H 0.36095 0.13947 0.72936 0.0
H2222 H 0.91808 0.46665 0.79904 0.0
H2223 H 0.93543 0.44794 0.78114 0.0
H2224 H 0.89055 0.41863 0.77185 0.0
H2225 H 0.87316 0.43707 0.79005 0.0
H2226 H 0.91646 0.39754 0.77741 0.0
H2227 H 0.90968 0.44761 0.74135 0.0
H2228 H 0.91114 0.47834 0.73361 0.0
H2229 H 0.96529 0.47853 0.73827 0.0
H2230 H 0.96411 0.44783 0.74627 0.0
H2231 H 0.95269 0.35065 0.70856 0.0
H2232 H 0.93531 0.36949 0.72648 0.0
H2233 H 0.97965 0.40103 0.73234 0.0
H2234 H 0.99688 0.38235 0.71401 0.0
H2235 H 0.95412 0.42106 0.72877 0.0
H2236 H 0.96145 0.37147 0.76473 0.0
H2237 H 0.96055 0.34081 0.77282 0.0
H2238 H 0.90626 0.33975 0.76923 0.0
H2239 H 0.90687 0.37037 0.76084 0.0
C2240 C 0.91183 0.45616 0.79334 0.0
C2241 C 0.89404 0.45357 0.79612 0.0
C2242 C 0.92183 0.44549 0.78289 0.0
C2243 C 0.91442 0.43182 0.77482 0.0
C2244 C 0.89672 0.42903 0.77777 0.0
C2245 C 0.8867 0.43976 0.78814 0.0
C2246 C 0.92505 0.42048 0.76336 0.0
C2247 C 0.9245 0.40272 0.76664 0.0
C2248 C 0.93602 0.42702 0.74947 0.0
C2249 C 0.93678 0.44546 0.74457 0.0
C2250 C 0.92188 0.45423 0.74084 0.0
C2251 C 0.92266 0.47164 0.73639 0.0
C2252 C 0.93829 0.48039 0.73549 0.0
C2253 C 0.95318 0.47174 0.739 0.0
C2254 C 0.95247 0.45433 0.74348 0.0
C2255 C 0.95871 0.3616 0.71372 0.0
C2256 C 0.97622 0.3649 0.70998 0.0
C2257 C 0.94877 0.37238 0.72408 0.0
C2258 C 0.95606 0.38671 0.73122 0.0
C2259 C 0.97355 0.39014 0.72718 0.0
C2260 C 0.98346 0.37941 0.71672 0.0
C2261 C 0.94553 0.39808 0.74279 0.0
C2262 C 0.9461 0.41585 0.73953 0.0
C2263 C 0.93467 0.39155 0.7568 0.0
C2264 C 0.93423 0.37318 0.76199 0.0
C2265 C 0.94933 0.36468 0.76555 0.0
C2266 C 0.94887 0.34731 0.7702 0.0
C2267 C 0.93336 0.33833 0.7715 0.0
C2268 C 0.91827 0.34672 0.76819 0.0
C2269 C 0.91866 0.36408 0.7635 0.0
H2270 H 0.93303 0.32489 0.7751 0.0
H2271 H 0.93887 0.49387 0.73204 0.0
H2272 H 0.64498 0.94339 0.72023 0.0
H2273 H 0.62514 0.92448 0.7378 0.0
H2274 H 0.61196 0.96599 0.77008 0.0
H2275 H 0.63184 0.98485 0.75249 0.0
H2276 H 0.61682 0.93675 0.78877 0.0
H2277 H 0.58565 0.95462 0.74099 0.0
H2278 H 0.58084 0.95933 0.71043 0.0
H2279 H 0.58356 0.90556 0.70349 0.0
H2280 H 0.58872 0.90055 0.73396 0.0
H2281 H 0.5288 0.89243 0.80844 0.0
H2282 H 0.54781 0.91151 0.79009 0.0
H2283 H 0.59103 0.88184 0.8041 0.0
H2284 H 0.57196 0.86286 0.82251 0.0
H2285 H 0.56992 0.90657 0.76252 0.0
H2286 H 0.62421 0.90981 0.80891 0.0
H2287 H 0.62783 0.9067 0.83987 0.0
H2288 H 0.576 0.92164 0.85043 0.0
H2289 H 0.57217 0.92515 0.81956 0.0
C2290 C 0.63781 0.94838 0.73109 0.0
C2291 C 0.63976 0.96547 0.73507 0.0
C2292 C 0.6265 0.93765 0.74108 0.0
C2293 C 0.61698 0.94388 0.75516 0.0
C2294 C 0.61918 0.96093 0.75928 0.0
C2295 C 0.63045 0.97168 0.74926 0.0
C2296 C 0.60459 0.93266 0.76547 0.0
C2297 C 0.60659 0.93012 0.78303 0.0
C2298 C 0.59105 0.92428 0.75802 0.0
C2299 C 0.58773 0.92722 0.73973 0.0
C2300 C 0.58535 0.9438 0.73292 0.0
C2301 C 0.58255 0.94653 0.71562 0.0
C2302 C 0.58193 0.93275 0.70502 0.0
C2303 C 0.58407 0.91622 0.71171 0.0
C2304 C 0.58692 0.91343 0.72901 0.0
C2305 C 0.54236 0.88999 0.8074 0.0
C2306 C 0.54906 0.87633 0.81675 0.0
C2307 C 0.55317 0.9008 0.79694 0.0
C2308 C 0.57083 0.89816 0.79584 0.0
C2309 C 0.57746 0.88419 0.8049 0.0
C2310 C 0.56663 0.87336 0.81533 0.0
C2311 C 0.58239 0.91038 0.78573 0.0
C2312 C 0.5802 0.91313 0.76824 0.0
C2313 C 0.59557 0.91921 0.79329 0.0
C2314 C 0.59787 0.91757 0.81191 0.0
C2315 C 0.61362 0.91252 0.81784 0.0
C2316 C 0.61571 0.91068 0.83538 0.0
C2317 C 0.60214 0.91392 0.84711 0.0
C2318 C 0.58648 0.91909 0.84133 0.0
C2319 C 0.58435 0.921 0.82381 0.0
H2320 H 0.60377 0.91245 0.86068 0.0
H2321 H 0.57975 0.93489 0.69162 0.0
H2322 H 0.97027 0.64009 0.27225 0.0
H2323 H 0.95123 0.62404 0.2552 0.0
H2324 H 0.91192 0.62438 0.2961 0.0
H2325 H 0.93085 0.6405 0.31319 0.0
H2326 H 0.91495 0.59334 0.28343 0.0
H2327 H 0.90945 0.65055 0.26128 0.0
H2328 H 0.91973 0.67852 0.24912 0.0
H2329 H 0.9425 0.65475 0.20523 0.0
H2330 H 0.93256 0.62659 0.21725 0.0
H2331 H 0.85263 0.5838 0.21084 0.0
H2332 H 0.86901 0.60168 0.22908 0.0
H2333 H 0.90539 0.56144 0.23467 0.0
H2334 H 0.88885 0.54355 0.21669 0.0
H2335 H 0.9014 0.61374 0.22519 0.0
H2336 H 0.91913 0.56129 0.27486 0.0
H2337 H 0.90734 0.53406 0.28754 0.0
H2338 H 0.8567 0.55012 0.27785 0.0
H2339 H 0.86815 0.57754 0.26537 0.0
C2340 C 0.95751 0.63689 0.27754 0.0
C2341 C 0.95203 0.64158 0.29403 0.0
C2342 C 0.94667 0.6277 0.26781 0.0
C2343 C 0.93013 0.62317 0.27435 0.0
C2344 C 0.92466 0.62773 0.29085 0.0
C2345 C 0.9355 0.63689 0.3006 0.0
C2346 C 0.91858 0.61353 0.26404 0.0
C2347 C 0.91196 0.5978 0.27071 0.0
C2348 C 0.91448 0.61952 0.24756 0.0
C2349 C 0.92037 0.63645 0.24024 0.0
C2350 C 0.91675 0.65127 0.24909 0.0
C2351 C 0.9225 0.66716 0.24221 0.0
C2352 C 0.9318 0.66841 0.22643 0.0
C2353 C 0.93532 0.65377 0.21747 0.0
C2354 C 0.92961 0.63784 0.2243 0.0
C2355 C 0.8641 0.57887 0.21609 0.0
C2356 C 0.86954 0.5624 0.21265 0.0
C2357 C 0.87344 0.58904 0.22638 0.0
C2358 C 0.88829 0.58279 0.23334 0.0
C2359 C 0.89382 0.56638 0.22964 0.0
C2360 C 0.88446 0.55622 0.21939 0.0
C2361 C 0.89804 0.59343 0.24446 0.0
C2362 C 0.90434 0.60932 0.23793 0.0
C2363 C 0.90161 0.58772 0.26118 0.0
C2364 C 0.89454 0.57142 0.26904 0.0
C2365 C 0.90547 0.55905 0.27553 0.0
C2366 C 0.89885 0.54357 0.28267 0.0
C2367 C 0.88129 0.54034 0.28346 0.0
C2368 C 0.8703 0.55262 0.27719 0.0
C2369 C 0.87686 0.56812 0.27007 0.0
H2370 H 0.87619 0.52834 0.28897 0.0
H2371 H 0.93624 0.68072 0.22113 0.0
H2372 H 0.38159 0.95522 0.33583 0.0
H2373 H 0.40032 0.9372 0.31824 0.0
H2374 H 0.41076 0.97959 0.28223 0.0
H2375 H 0.39228 0.99762 0.30003 0.0
H2376 H 0.40042 0.92584 0.28731 0.0
H2377 H 0.45091 0.977 0.26321 0.0
H2378 H 0.46329 0.00369 0.27272 0.0
H2379 H 0.45099 0.98761 0.32506 0.0
H2380 H 0.43877 0.96073 0.31589 0.0
H2381 H 0.45306 0.89336 0.21872 0.0
H2382 H 0.43435 0.911 0.23671 0.0
H2383 H 0.47333 0.91418 0.27275 0.0
H2384 H 0.49209 0.89672 0.25458 0.0
H2385 H 0.45951 0.94445 0.26894 0.0
H2386 H 0.43719 0.88809 0.28039 0.0
H2387 H 0.42579 0.86009 0.27334 0.0
H2388 H 0.38346 0.88423 0.2507 0.0
H2389 H 0.39474 0.91241 0.25739 0.0
C2390 C 0.38792 0.96067 0.32417 0.0
C2391 C 0.38552 0.97789 0.3194 0.0
C2392 C 0.3986 0.95033 0.31404 0.0
C2393 C 0.40728 0.95692 0.29886 0.0
C2394 C 0.40458 0.9741 0.29395 0.0
C2395 C 0.39391 0.98443 0.3041 0.0
C2396 C 0.41915 0.94591 0.28831 0.0
C2397 C 0.4133 0.93001 0.28327 0.0
C2398 C 0.4362 0.95094 0.28316 0.0
C2399 C 0.44377 0.96694 0.28884 0.0
C2400 C 0.45092 0.97913 0.27675 0.0
C2401 C 0.45789 0.9943 0.28208 0.0
C2402 C 0.45787 0.99737 0.29948 0.0
C2403 C 0.45094 0.98525 0.31159 0.0
C2404 C 0.44398 0.97005 0.30633 0.0
C2405 C 0.45761 0.89784 0.23049 0.0
C2406 C 0.47407 0.89363 0.23521 0.0
C2407 C 0.44686 0.90789 0.24086 0.0
C2408 C 0.45222 0.91395 0.25633 0.0
C2409 C 0.46875 0.9098 0.26096 0.0
C2410 C 0.47948 0.89972 0.2506 0.0
C2411 C 0.44064 0.92456 0.26763 0.0
C2412 C 0.44657 0.94035 0.27287 0.0
C2413 C 0.42377 0.91929 0.27321 0.0
C2414 C 0.4169 0.90237 0.26925 0.0
C2415 C 0.42551 0.88744 0.2738 0.0
C2416 C 0.41907 0.87153 0.26988 0.0
C2417 C 0.40393 0.87038 0.26154 0.0
C2418 C 0.39519 0.88514 0.25714 0.0
C2419 C 0.4016 0.90108 0.261 0.0
H2420 H 0.39896 0.85806 0.25852 0.0
H2421 H 0.46326 0.00913 0.30357 0.0
H2422 H 0.62715 0.05095 0.31427 0.0
H2423 H 0.61013 0.06919 0.29602 0.0
H2424 H 0.65026 0.10726 0.29234 0.0
H2425 H 0.66744 0.08896 0.31049 0.0
H2426 H 0.61744 0.12082 0.29939 0.0
H2427 H 0.64507 0.08408 0.2592 0.0
H2428 H 0.65349 0.05709 0.24646 0.0
H2429 H 0.60084 0.0432 0.24321 0.0
H2430 H 0.59209 0.07001 0.25615 0.0
H2431 H 0.58377 0.17352 0.23359 0.0
H2432 H 0.60159 0.15601 0.25164 0.0
H2433 H 0.56808 0.11287 0.24678 0.0
H2434 H 0.55062 0.13021 0.22826 0.0
H2435 H 0.59823 0.10202 0.24419 0.0
H2436 H 0.56982 0.1373 0.28475 0.0
H2437 H 0.56026 0.16412 0.2971 0.0
H2438 H 0.61232 0.17998 0.30075 0.0
H2439 H 0.6222 0.15334 0.28821 0.0
C2440 C 0.63236 0.06322 0.30962 0.0
C2441 C 0.6487 0.06846 0.3139 0.0
C2442 C 0.62263 0.07362 0.29908 0.0
C2443 C 0.62889 0.08963 0.29269 0.0
C2444 C 0.64512 0.09498 0.29707 0.0
C2445 C 0.65499 0.08446 0.30739 0.0
C2446 C 0.61842 0.10079 0.28158 0.0
C2447 C 0.61342 0.11681 0.28721 0.0
C2448 C 0.61269 0.09542 0.2659 0.0
C2449 C 0.61793 0.07899 0.25878 0.0
C2450 C 0.63529 0.07517 0.25598 0.0
C2451 C 0.64012 0.05993 0.24867 0.0
C2452 C 0.6277 0.04846 0.24401 0.0
C2453 C 0.61043 0.05212 0.24681 0.0
C2454 C 0.60553 0.06733 0.25412 0.0
C2455 C 0.58013 0.16033 0.23647 0.0
C2456 C 0.56573 0.15331 0.22943 0.0
C2457 C 0.59033 0.15029 0.24689 0.0
C2458 C 0.58618 0.13304 0.25092 0.0
C2459 C 0.57172 0.12607 0.24393 0.0
C2460 C 0.56169 0.13602 0.23331 0.0
C2461 C 0.59704 0.12211 0.262 0.0
C2462 C 0.60216 0.1061 0.25638 0.0
C2463 C 0.60264 0.12738 0.27782 0.0
C2464 C 0.59675 0.1434 0.28538 0.0
C2465 C 0.57923 0.14657 0.28807 0.0
C2466 C 0.57375 0.16173 0.29512 0.0
C2467 C 0.58567 0.17377 0.29966 0.0
C2468 C 0.6031 0.17065 0.2972 0.0
C2469 C 0.60865 0.15552 0.29014 0.0
H2470 H 0.58141 0.1855 0.30512 0.0
H2471 H 0.63145 0.03681 0.2381 0.0
H2472 H 0.7441 0.95749 0.67299 0.0
H2473 H 0.76206 0.93762 0.65747 0.0
H2474 H 0.71762 0.91566 0.63682 0.0
H2475 H 0.69938 0.93498 0.65308 0.0
H2476 H 0.73962 0.89144 0.64529 0.0
H2477 H 0.74232 0.94454 0.61327 0.0
H2478 H 0.74642 0.97555 0.60848 0.0
H2479 H 0.79831 0.97149 0.62215 0.0
H2480 H 0.79444 0.94047 0.62728 0.0
H2481 H 0.78211 0.85807 0.57094 0.0
H2482 H 0.76396 0.87316 0.59141 0.0
H2483 H 0.80831 0.88954 0.61628 0.0
H2484 H 0.82662 0.87396 0.59622 0.0
H2485 H 0.78655 0.91599 0.60619 0.0
H2486 H 0.78308 0.86155 0.63669 0.0
H2487 H 0.77795 0.83055 0.63985 0.0
H2488 H 0.72618 0.83725 0.62671 0.0
H2489 H 0.73107 0.86829 0.62321 0.0
C2490 C 0.73807 0.94822 0.66544 0.0
C2491 C 0.72029 0.94785 0.66423 0.0
C2492 C 0.74838 0.93699 0.65643 0.0
C2493 C 0.74118 0.92539 0.64579 0.0
C2494 C 0.72342 0.92461 0.64491 0.0
C2495 C 0.71305 0.93576 0.65406 0.0
C2496 C 0.75228 0.9145 0.63515 0.0
C2497 C 0.74977 0.89679 0.63661 0.0
C2498 C 0.76563 0.92154 0.62398 0.0
C2499 C 0.76803 0.9402 0.62083 0.0
C2500 C 0.75457 0.95028 0.61539 0.0
C2501 C 0.75685 0.96785 0.61259 0.0
C2502 C 0.7726 0.97549 0.61505 0.0
C2503 C 0.78611 0.96556 0.62028 0.0
C2504 C 0.78388 0.94797 0.62312 0.0
C2505 C 0.78802 0.86448 0.58103 0.0
C2506 C 0.80585 0.86484 0.58192 0.0
C2507 C 0.77761 0.87316 0.59265 0.0
C2508 C 0.78484 0.88239 0.60531 0.0
C2509 C 0.80255 0.88248 0.60653 0.0
C2510 C 0.81298 0.87367 0.59501 0.0
C2511 C 0.77398 0.89295 0.61646 0.0
C2512 C 0.77648 0.91064 0.61499 0.0
C2513 C 0.76048 0.88589 0.62737 0.0
C2514 C 0.75749 0.86724 0.62954 0.0
C2515 C 0.77064 0.8564 0.63433 0.0
C2516 C 0.76777 0.83883 0.63621 0.0
C2517 C 0.75176 0.83193 0.63344 0.0
C2518 C 0.73858 0.84261 0.62883 0.0
C2519 C 0.74139 0.8602 0.62692 0.0
H2520 H 0.74957 0.81832 0.63491 0.0
H2521 H 0.77435 0.98911 0.61288 0.0
H2522 H 0.12576 0.78945 0.54306 0.0
H2523 H 0.10771 0.77072 0.56271 0.0
H2524 H 0.14236 0.77782 0.60237 0.0
H2525 H 0.16026 0.7968 0.58277 0.0
H2526 H 0.1325 0.7434 0.59874 0.0
H2527 H 0.10677 0.79832 0.60401 0.0
H2528 H 0.09413 0.82481 0.59302 0.0
H2529 H 0.05409 0.79597 0.57248 0.0
H2530 H 0.0667 0.76926 0.58305 0.0
H2531 H 0.08098 0.70611 0.66809 0.0
H2532 H 0.09889 0.72576 0.64936 0.0
H2533 H 0.06023 0.72694 0.61263 0.0
H2534 H 0.04205 0.70792 0.63178 0.0
H2535 H 0.0724 0.75748 0.61476 0.0
H2536 H 0.09739 0.70296 0.60778 0.0
H2537 H 0.10981 0.67569 0.61697 0.0
H2538 H 0.15064 0.70247 0.63855 0.0
H2539 H 0.13831 0.72993 0.62972 0.0
C2540 C 0.12943 0.78701 0.556 0.0
C2541 C 0.14431 0.7945 0.56149 0.0
C2542 C 0.11916 0.77635 0.56719 0.0
C2543 C 0.12367 0.77294 0.58401 0.0
C2544 C 0.13867 0.78027 0.58944 0.0
C2545 C 0.14884 0.79109 0.5783 0.0
C2546 C 0.11269 0.76178 0.59596 0.0
C2547 C 0.11942 0.74656 0.60246 0.0
C2548 C 0.0955 0.7657 0.60036 0.0
C2549 C 0.08779 0.78177 0.59417 0.0
C2550 C 0.09536 0.79761 0.59702 0.0
C2551 C 0.08819 0.81267 0.59088 0.0
C2552 C 0.07334 0.81207 0.58202 0.0
C2553 C 0.06561 0.79641 0.57932 0.0
C2554 C 0.07276 0.78131 0.58538 0.0
C2555 C 0.07632 0.71074 0.65607 0.0
C2556 C 0.06017 0.70566 0.65135 0.0
C2557 C 0.08658 0.72182 0.6453 0.0
C2558 C 0.08105 0.72768 0.62942 0.0
C2559 C 0.06481 0.72264 0.62479 0.0
C2560 C 0.05447 0.71174 0.63566 0.0
C2561 C 0.09216 0.739 0.61761 0.0
C2562 C 0.08546 0.75426 0.61111 0.0
C2563 C 0.10933 0.73499 0.61298 0.0
C2564 C 0.11683 0.7185 0.61823 0.0
C2565 C 0.10895 0.70304 0.61459 0.0
C2566 C 0.11598 0.68755 0.61972 0.0
C2567 C 0.13098 0.68735 0.62837 0.0
C2568 C 0.13901 0.70265 0.63187 0.0
C2569 C 0.13201 0.71818 0.6268 0.0
H2570 H 0.13641 0.67534 0.63233 0.0
H2571 H 0.0678 0.82375 0.57728 0.0
H2572 H 0.2513 0.14672 0.56934 0.0
H2573 H 0.26814 0.12965 0.58845 0.0
H2574 H 0.22262 0.10269 0.60868 0.0
H2575 H 0.20548 0.12052 0.59039 0.0
H2576 H 0.24228 0.10751 0.63344 0.0
H2577 H 0.25015 0.0857 0.57804 0.0
H2578 H 0.25674 0.08641 0.54689 0.0
H2579 H 0.30771 0.10385 0.55386 0.0
H2580 H 0.30135 0.10346 0.58507 0.0
H2581 H 0.28464 0.03151 0.66127 0.0
H2582 H 0.26772 0.05111 0.64419 0.0
H2583 H 0.30962 0.08729 0.63986 0.0
H2584 H 0.32633 0.06797 0.65753 0.0
H2585 H 0.29211 0.07766 0.60747 0.0
H2586 H 0.28212 0.09768 0.66486 0.0
H2587 H 0.27394 0.09328 0.69558 0.0
H2588 H 0.22453 0.07496 0.68386 0.0
H2589 H 0.23254 0.07895 0.65303 0.0
C2590 C 0.24476 0.13745 0.57811 0.0
C2591 C 0.227 0.13495 0.57821 0.0
C2592 C 0.25447 0.12752 0.58888 0.0
C2593 C 0.2467 0.11463 0.59973 0.0
C2594 C 0.22892 0.11248 0.60032 0.0
C2595 C 0.21915 0.12257 0.5897 0.0
C2596 C 0.25718 0.10309 0.61007 0.0
C2597 C 0.25308 0.10089 0.62771 0.0
C2598 C 0.27131 0.09443 0.60263 0.0
C2599 C 0.27521 0.09472 0.58388 0.0
C2600 C 0.26272 0.08982 0.57292 0.0
C2601 C 0.26642 0.09014 0.55527 0.0
C2602 C 0.28261 0.09521 0.54842 0.0
C2603 C 0.29516 0.09995 0.5592 0.0
C2604 C 0.29152 0.09967 0.57688 0.0
C2605 C 0.29015 0.04368 0.65667 0.0
C2606 C 0.30671 0.04832 0.66057 0.0
C2607 C 0.28055 0.0548 0.64696 0.0
C2608 C 0.2875 0.07056 0.64084 0.0
C2609 C 0.30414 0.07512 0.64449 0.0
C2610 C 0.31362 0.06415 0.6545 0.0
C2611 C 0.27727 0.08234 0.6307 0.0
C2612 C 0.28139 0.08445 0.61312 0.0
C2613 C 0.26293 0.09054 0.63811 0.0
C2614 C 0.25799 0.08846 0.65664 0.0
C2615 C 0.26956 0.09257 0.66883 0.0
C2616 C 0.26495 0.09017 0.68626 0.0
C2617 C 0.24874 0.0838 0.69167 0.0
C2618 C 0.23709 0.07987 0.67965 0.0
C2619 C 0.24165 0.08221 0.6622 0.0
H2620 H 0.2452 0.08195 0.70518 0.0
H2621 H 0.28545 0.0954 0.53476 0.0
H2622 H 0.86658 0.19902 0.57438 0.0
H2623 H 0.88451 0.21605 0.5919 0.0
H2624 H 0.91825 0.22866 0.54754 0.0
H2625 H 0.90043 0.2113 0.53015 0.0
H2626 H 0.9367 0.22249 0.57379 0.0
H2627 H 0.88816 0.25711 0.56473 0.0
H2628 H 0.85754 0.26362 0.56497 0.0
H2629 H 0.85284 0.25515 0.61947 0.0
H2630 H 0.88339 0.24829 0.61953 0.0
H2631 H 0.98093 0.29119 0.60862 0.0
H2632 H 0.96303 0.27398 0.59151 0.0
H2633 H 0.93045 0.26031 0.63634 0.0
H2634 H 0.948 0.27796 0.65348 0.0
H2635 H 0.91142 0.267 0.60996 0.0
H2636 H 0.96018 0.23235 0.61878 0.0
H2637 H 0.99081 0.22579 0.61826 0.0
H2638 H 0.99512 0.23468 0.5638 0.0
H2639 H 0.96455 0.24153 0.56402 0.0
C2640 C 0.87783 0.20545 0.56841 0.0
C2641 C 0.88205 0.20393 0.55089 0.0
C2642 C 0.88807 0.21528 0.57841 0.0
C2643 C 0.90272 0.224 0.5711 0.0
C2644 C 0.90707 0.22219 0.55359 0.0
C2645 C 0.89685 0.2123 0.54362 0.0
C2646 C 0.91346 0.23497 0.58163 0.0
C2647 C 0.93115 0.23237 0.5815 0.0
C2648 C 0.90636 0.24772 0.59208 0.0
C2649 C 0.88803 0.25203 0.59211 0.0
C2650 C 0.88058 0.25652 0.57676 0.0
C2651 C 0.86323 0.26028 0.57684 0.0
C2652 C 0.85325 0.25976 0.59222 0.0
C2653 C 0.86059 0.25552 0.60756 0.0
C2654 C 0.87792 0.25171 0.60755 0.0
C2655 C 0.96987 0.2847 0.61489 0.0
C2656 C 0.96605 0.28608 0.63257 0.0
C2657 C 0.95969 0.27464 0.60505 0.0
C2658 C 0.9454 0.26554 0.61256 0.0
C2659 C 0.94139 0.26707 0.63015 0.0
C2660 C 0.95159 0.27711 0.64001 0.0
C2661 C 0.93464 0.25451 0.60211 0.0
C2662 C 0.91696 0.25711 0.60225 0.0
C2663 C 0.94175 0.2418 0.59162 0.0
C2664 C 0.96011 0.23761 0.59144 0.0
C2665 C 0.96769 0.23303 0.60671 0.0
C2666 C 0.98503 0.22924 0.60646 0.0
C2667 C 0.99491 0.22986 0.59101 0.0
C2668 C 0.98746 0.23423 0.57576 0.0
C2669 C 0.97012 0.23805 0.57594 0.0
H2670 H 0.00834 0.22693 0.59085 0.0
H2671 H 0.83982 0.26268 0.59226 0.0
H2672 H 0.72622 0.0789 0.37457 0.0
H2673 H 0.74423 0.09598 0.39198 0.0
H2674 H 0.74409 0.05466 0.42995 0.0
H2675 H 0.72608 0.03759 0.41247 0.0
H2676 H 0.73991 0.08476 0.44509 0.0
H2677 H 0.77871 0.06312 0.402 0.0
H2678 H 0.78932 0.05778 0.37253 0.0
H2679 H 0.79373 0.11159 0.361 0.0
H2680 H 0.78285 0.11725 0.39034 0.0
H2681 H 0.8072 0.11647 0.49224 0.0
H2682 H 0.78928 0.09915 0.47502 0.0
H2683 H 0.79278 0.13844 0.43481 0.0
H2684 H 0.81123 0.15545 0.45186 0.0
H2685 H 0.79514 0.10918 0.42079 0.0
H2686 H 0.75604 0.13109 0.46342 0.0
H2687 H 0.74487 0.13677 0.49265 0.0
H2688 H 0.74055 0.08307 0.50483 0.0
H2689 H 0.75193 0.07707 0.47573 0.0
C2690 C 0.7301 0.07347 0.38661 0.0
C2691 C 0.72488 0.05683 0.39206 0.0
C2692 C 0.74043 0.08322 0.39657 0.0
C2693 C 0.7458 0.07662 0.41229 0.0
C2694 C 0.74023 0.06012 0.41792 0.0
C2695 C 0.72996 0.05033 0.4079 0.0
C2696 C 0.75727 0.08685 0.42277 0.0
C2697 C 0.75209 0.0899 0.43982 0.0
C2698 C 0.77305 0.09398 0.41591 0.0
C2699 C 0.77981 0.09061 0.39833 0.0
C2700 C 0.78183 0.07382 0.39315 0.0
C2701 C 0.7879 0.07073 0.37647 0.0
C2702 C 0.79216 0.08434 0.36489 0.0
C2703 C 0.7904 0.10106 0.36998 0.0
C2704 C 0.78428 0.10422 0.38664 0.0
C2705 C 0.80414 0.12137 0.47971 0.0
C2706 C 0.81052 0.13739 0.47347 0.0
C2707 C 0.79377 0.11151 0.46988 0.0
C2708 C 0.78927 0.1175 0.4536 0.0
C2709 C 0.7959 0.13344 0.44728 0.0
C2710 C 0.80638 0.14323 0.45707 0.0
C2711 C 0.77779 0.10718 0.44317 0.0
C2712 C 0.78297 0.10408 0.4261 0.0
C2713 C 0.76196 0.10007 0.44999 0.0
C2714 C 0.75499 0.10363 0.46745 0.0
C2715 C 0.75281 0.12049 0.47237 0.0
C2716 C 0.74643 0.12377 0.4889 0.0
C2717 C 0.74204 0.11029 0.5006 0.0
C2718 C 0.74398 0.0935 0.49576 0.0
C2719 C 0.75038 0.09015 0.47925 0.0
H2720 H 0.7371 0.11285 0.5134 0.0
H2721 H 0.79686 0.08193 0.35198 0.0
H2722 H 0.98251 0.73218 0.37287 0.0
H2723 H 0.96839 0.75372 0.39029 0.0
H2724 H 0.91945 0.73666 0.37496 0.0
H2725 H 0.93368 0.71516 0.35744 0.0
H2726 H 0.92282 0.77242 0.37572 0.0
H2727 H 0.93195 0.72217 0.41119 0.0
H2728 H 0.94953 0.69936 0.42308 0.0
H2729 H 0.98067 0.73656 0.44542 0.0
H2730 H 0.96346 0.75964 0.43336 0.0
H2731 H 0.86719 0.80019 0.44297 0.0
H2732 H 0.88351 0.78522 0.421 0.0
H2733 H 0.93027 0.79906 0.44326 0.0
H2734 H 0.91396 0.81329 0.46584 0.0
H2735 H 0.92944 0.7664 0.43813 0.0
H2736 H 0.91914 0.81679 0.40427 0.0
H2737 H 0.90197 0.83962 0.39179 0.0
H2738 H 0.87329 0.80267 0.36635 0.0
H2739 H 0.89013 0.77958 0.37886 0.0
C2740 C 0.96876 0.73324 0.37318 0.0
C2741 C 0.95902 0.72216 0.3641 0.0
C2742 C 0.96075 0.74546 0.38303 0.0
C2743 C 0.94291 0.74662 0.38395 0.0
C2744 C 0.93323 0.73592 0.37433 0.0
C2745 C 0.94127 0.72366 0.36447 0.0
C2746 C 0.93432 0.75817 0.39589 0.0
C2747 C 0.92411 0.77109 0.38939 0.0
C2748 C 0.9364 0.75653 0.41363 0.0
C2749 C 0.94651 0.74264 0.42123 0.0
C2750 C 0.94261 0.7255 0.41854 0.0
C2751 C 0.95251 0.71252 0.42531 0.0
C2752 C 0.96623 0.71651 0.43497 0.0
C2753 C 0.97005 0.73349 0.43791 0.0
C2754 C 0.96023 0.74653 0.43111 0.0
C2755 C 0.88095 0.80007 0.44318 0.0
C2756 C 0.88927 0.80781 0.45622 0.0
C2757 C 0.89028 0.79171 0.43047 0.0
C2758 C 0.90812 0.79116 0.43042 0.0
C2759 C 0.91651 0.79939 0.44306 0.0
C2760 C 0.90718 0.80764 0.45586 0.0
C2761 C 0.91786 0.78081 0.41803 0.0
C2762 C 0.92825 0.76797 0.42446 0.0
C2763 C 0.91594 0.78257 0.40023 0.0
C2764 C 0.90582 0.79644 0.39262 0.0
C2765 C 0.90909 0.81352 0.39611 0.0
C2766 C 0.89943 0.82651 0.38902 0.0
C2767 C 0.88652 0.8226 0.37831 0.0
C2768 C 0.88328 0.80568 0.37465 0.0
C2769 C 0.8929 0.79264 0.38172 0.0
H2770 H 0.87906 0.83268 0.37283 0.0
H2771 H 0.97388 0.70645 0.4402 0.0
H2772 H 0.30801 0.97401 0.42185 0.0
H2773 H 0.28941 0.95386 0.43898 0.0
H2774 H 0.28133 0.92576 0.39418 0.0
H2775 H 0.30015 0.94571 0.37695 0.0
H2776 H 0.25152 0.93099 0.41269 0.0
H2777 H 0.3072 0.91045 0.42379 0.0
H2778 H 0.33678 0.91269 0.43231 0.0
H2779 H 0.31864 0.92782 0.48204 0.0
H2780 H 0.28894 0.92591 0.47372 0.0
H2781 H 0.21239 0.85744 0.45506 0.0
H2782 H 0.23173 0.877 0.43769 0.0
H2783 H 0.24161 0.90424 0.48267 0.0
H2784 H 0.2225 0.88443 0.50003 0.0
H2785 H 0.27061 0.89938 0.46396 0.0
H2786 H 0.21512 0.92008 0.45321 0.0
H2787 H 0.18543 0.9181 0.44499 0.0
H2788 H 0.20295 0.90322 0.39498 0.0
H2789 H 0.23276 0.90485 0.40301 0.0
C2790 C 0.3025 0.96341 0.41565 0.0
C2791 C 0.30567 0.96148 0.39799 0.0
C2792 C 0.2918 0.95193 0.42547 0.0
C2793 C 0.28406 0.93822 0.4179 0.0
C2794 C 0.28712 0.93627 0.40029 0.0
C2795 C 0.29785 0.94773 0.39045 0.0
C2796 C 0.27262 0.92604 0.42831 0.0
C2797 C 0.25576 0.92389 0.42376 0.0
C2798 C 0.27801 0.9171 0.44302 0.0
C2799 C 0.29585 0.9182 0.44807 0.0
C2800 C 0.30952 0.91439 0.43649 0.0
C2801 C 0.32631 0.91558 0.4413 0.0
C2802 C 0.32959 0.92044 0.45769 0.0
C2803 C 0.31608 0.92408 0.46933 0.0
C2804 C 0.29927 0.92293 0.46459 0.0
C2805 C 0.21875 0.86762 0.46115 0.0
C2806 C 0.21608 0.86952 0.47879 0.0
C2807 C 0.22971 0.87882 0.45126 0.0
C2808 C 0.23801 0.89222 0.45884 0.0
C2809 C 0.23537 0.89402 0.47654 0.0
C2810 C 0.22444 0.88279 0.48642 0.0
C2811 C 0.2495 0.90431 0.44835 0.0
C2812 C 0.26636 0.90646 0.45289 0.0
C2813 C 0.24408 0.9133 0.43367 0.0
C2814 C 0.22617 0.91242 0.42877 0.0
C2815 C 0.21264 0.91626 0.44051 0.0
C2816 C 0.19579 0.91521 0.43587 0.0
C2817 C 0.19231 0.9105 0.41949 0.0
C2818 C 0.20567 0.90685 0.40768 0.0
C2819 C 0.22255 0.90784 0.41226 0.0
H2820 H 0.17925 0.9097 0.41592 0.0
H2821 H 0.34259 0.92135 0.46138 0.0
H2822 H 0.12842 0.21393 0.48075 0.0
H2823 H 0.11264 0.23227 0.46168 0.0
H2824 H 0.15632 0.23561 0.42544 0.0
H2825 H 0.17232 0.21739 0.44469 0.0
H2826 H 0.14281 0.26604 0.4293 0.0
H2827 H 0.12132 0.21078 0.41844 0.0
H2828 H 0.10897 0.18222 0.42568 0.0
H2829 H 0.06404 0.20457 0.44866 0.0
H2830 H 0.07623 0.23328 0.44177 0.0
H2831 H 0.0945 0.30165 0.36218 0.0
H2832 H 0.11232 0.28313 0.37931 0.0
H2833 H 0.0733 0.2815 0.42056 0.0
H2834 H 0.05538 0.29985 0.40347 0.0
H2835 H 0.08532 0.24958 0.41238 0.0
H2836 H 0.1078 0.30488 0.42396 0.0
H2837 H 0.12035 0.33328 0.41627 0.0
H2838 H 0.16371 0.31031 0.39095 0.0
H2839 H 0.15129 0.28176 0.39829 0.0
C2840 C 0.13459 0.2184 0.46862 0.0
C2841 C 0.15153 0.21413 0.46411 0.0
C2842 C 0.12557 0.22888 0.45774 0.0
C2843 C 0.13321 0.23508 0.44202 0.0
C2844 C 0.15018 0.23092 0.4375 0.0
C2845 C 0.15928 0.22054 0.44848 0.0
C2846 C 0.12354 0.2462 0.43052 0.0
C2847 C 0.13037 0.26232 0.42535 0.0
C2848 C 0.10718 0.24145 0.42562 0.0
C2849 C 0.09976 0.22419 0.4297 0.0
C2850 C 0.10886 0.20961 0.42514 0.0
C2851 C 0.10188 0.19339 0.42917 0.0
C2852 C 0.08575 0.19158 0.43766 0.0
C2853 C 0.07654 0.20599 0.4421 0.0
C2854 C 0.08348 0.22224 0.43812 0.0
C2855 C 0.08977 0.29735 0.37492 0.0
C2856 C 0.0736 0.30218 0.38153 0.0
C2857 C 0.09997 0.28687 0.3847 0.0
C2858 C 0.09411 0.28103 0.40119 0.0
C2859 C 0.07802 0.28592 0.40785 0.0
C2860 C 0.06788 0.29649 0.39814 0.0
C2861 C 0.10452 0.26942 0.41138 0.0
C2862 C 0.09782 0.25321 0.41626 0.0
C2863 C 0.12102 0.27404 0.4159 0.0
C2864 C 0.12852 0.29119 0.41151 0.0
C2865 C 0.11994 0.30589 0.41662 0.0
C2866 C 0.12704 0.32201 0.41235 0.0
C2867 C 0.14279 0.3236 0.40308 0.0
C2868 C 0.15149 0.30906 0.3981 0.0
C2869 C 0.14443 0.29291 0.40232 0.0
H2870 H 0.14828 0.3361 0.3998 0.0
H2871 H 0.08036 0.17901 0.44077 0.0
H2872 H 0.66396 0.71889 0.95361 0.0
H2873 H 0.64654 0.73659 0.93518 0.0
H2874 H 0.611 0.74442 0.97827 0.0
H2875 H 0.62892 0.72749 0.99678 0.0
H2876 H 0.61604 0.7343 0.92538 0.0
H2877 H 0.59359 0.7829 0.97555 0.0
H2878 H 0.60424 0.79581 1.00098 0.0
H2879 H 0.65583 0.78722 0.98237 0.0
H2880 H 0.64551 0.77451 0.95672 0.0
H2881 H 0.54545 0.7786 0.89634 0.0
H2882 H 0.56525 0.76204 0.91298 0.0
H2883 H 0.59887 0.8059 0.91288 0.0
H2884 H 0.57866 0.82267 0.89685 0.0
H2885 H 0.59744 0.79145 0.94262 0.0
H2886 H 0.60707 0.77129 0.88657 0.0
H2887 H 0.59943 0.75971 0.85934 0.0
H2888 H 0.57932 0.71431 0.88606 0.0
H2889 H 0.58663 0.72572 0.91349 0.0
C2890 C 0.65248 0.72455 0.95906 0.0
C2891 C 0.64782 0.72218 0.97655 0.0
C2892 C 0.6425 0.73454 0.94857 0.0
C2893 C 0.62762 0.7421 0.95541 0.0
C2894 C 0.62265 0.73911 0.9728 0.0
C2895 C 0.63278 0.72937 0.98332 0.0
C2896 C 0.61731 0.75313 0.94439 0.0
C2897 C 0.61201 0.74682 0.92912 0.0
C2898 C 0.61241 0.76965 0.94905 0.0
C2899 C 0.61875 0.77762 0.96428 0.0
C2900 C 0.60721 0.78386 0.97684 0.0
C2901 C 0.61319 0.79113 0.9913 0.0
C2902 C 0.6307 0.79229 0.99331 0.0
C2903 C 0.64227 0.78627 0.98083 0.0
C2904 C 0.63636 0.77902 0.96632 0.0
C2905 C 0.55712 0.78464 0.89984 0.0
C2906 C 0.56064 0.80183 0.89529 0.0
C2907 C 0.56845 0.77518 0.90927 0.0
C2908 C 0.58372 0.78263 0.91392 0.0
C2909 C 0.58719 0.79987 0.90943 0.0
C2910 C 0.57569 0.80942 0.90027 0.0
C2911 C 0.59591 0.77251 0.92373 0.0
C2912 C 0.60155 0.77898 0.93881 0.0
C2913 C 0.6016 0.75639 0.91858 0.0
C2914 C 0.59728 0.74943 0.9021 0.0
C2915 C 0.60092 0.75888 0.88665 0.0
C2916 C 0.59667 0.75235 0.87118 0.0
C2917 C 0.58887 0.7363 0.87097 0.0
C2918 C 0.58535 0.72674 0.88624 0.0
C2919 C 0.58957 0.73323 0.90175 0.0
H2920 H 0.58558 0.73126 0.85898 0.0
H2921 H 0.6353 0.79789 0.00454 0.0
H2922 H 0.27819 0.64652 0.98813 0.0
H2923 H 0.26257 0.62848 0.96977 0.0
H2924 H 0.30996 0.61335 0.94459 0.0
H2925 H 0.32566 0.63197 0.96241 0.0
H2926 H 0.28754 0.61857 0.92151 0.0
H2927 H 0.28643 0.58689 0.97506 0.0
H2928 H 0.2812 0.58201 0.00619 0.0
H2929 H 0.22792 0.59156 1.00197 0.0
H2930 H 0.23288 0.59673 0.97081 0.0
H2931 H 0.25323 0.54717 0.88096 0.0
H2932 H 0.26923 0.56576 0.89855 0.0
H2933 H 0.22217 0.58251 0.92312 0.0
H2934 H 0.20607 0.56411 0.90547 0.0
H2935 H 0.24467 0.57624 0.94647 0.0
H2936 H 0.24604 0.60796 0.89274 0.0
H2937 H 0.25151 0.61264 0.8616 0.0
H2938 H 0.30463 0.60259 0.86623 0.0
H2939 H 0.29944 0.59762 0.89738 0.0
C2940 C 0.28536 0.63954 0.97858 0.0
C2941 C 0.30331 0.64081 0.97691 0.0
C2942 C 0.27636 0.629 0.96817 0.0
C2943 C 0.285 0.61923 0.95585 0.0
C2944 C 0.30289 0.62062 0.95399 0.0
C2945 C 0.31191 0.6312 0.96437 0.0
C2946 C 0.27542 0.60767 0.9449 0.0
C2947 C 0.27835 0.60916 0.92703 0.0
C2948 C 0.2631 0.59553 0.95191 0.0
C2949 C 0.26006 0.59236 0.97062 0.0
C2950 C 0.27362 0.58807 0.98078 0.0
C2951 C 0.2707 0.58524 0.99843 0.0
C2952 C 0.25425 0.58652 0.00606 0.0
C2953 C 0.24067 0.5906 0.99604 0.0
C2954 C 0.24352 0.59347 0.97839 0.0
C2955 C 0.24621 0.55496 0.88992 0.0
C2956 C 0.22824 0.55403 0.89165 0.0
C2957 C 0.25543 0.56561 0.90006 0.0
C2958 C 0.24699 0.57576 0.91217 0.0
C2959 C 0.22908 0.57483 0.91397 0.0
C2960 C 0.21985 0.56419 0.90384 0.0
C2961 C 0.25676 0.58718 0.92309 0.0
C2962 C 0.25387 0.58565 0.94096 0.0
C2963 C 0.26916 0.59923 0.91608 0.0
C2964 C 0.27232 0.60225 0.89737 0.0
C2965 C 0.25887 0.60662 0.8871 0.0
C2966 C 0.26192 0.60934 0.86945 0.0
C2967 C 0.2784 0.60787 0.86194 0.0
C2968 C 0.29187 0.6037 0.87206 0.0
C2969 C 0.28888 0.60095 0.88972 0.0
H2970 H 0.28074 0.60998 0.84827 0.0
H2971 H 0.25201 0.58432 0.01973 0.0
H2972 H 0.41155 0.31525 0.95451 0.0
H2973 H 0.42755 0.29879 0.93353 0.0
H2974 H 0.38105 0.28674 0.90994 0.0
H2975 H 0.36487 0.30349 0.93081 0.0
H2976 H 0.40055 0.25861 0.91626 0.0
H2977 H 0.40879 0.31407 0.8895 0.0
H2978 H 0.41597 0.34473 0.88808 0.0
H2979 H 0.46687 0.33368 0.90164 0.0
H2980 H 0.45993 0.30296 0.90339 0.0
H2981 H 0.44963 0.21614 0.85209 0.0
H2982 H 0.42978 0.23667 0.86488 0.0
H2983 H 0.4701 0.25601 0.89392 0.0
H2984 H 0.48987 0.23564 0.88097 0.0
H2985 H 0.45096 0.28152 0.88094 0.0
H2986 H 0.4421 0.22733 0.91164 0.0
H2987 H 0.43565 0.19654 0.91429 0.0
H2988 H 0.38657 0.20515 0.89466 0.0
H2989 H 0.39286 0.236 0.89161 0.0
C2990 C 0.40474 0.3094 0.94466 0.0
C2991 C 0.38695 0.31075 0.94426 0.0
C2992 C 0.4139 0.29996 0.93272 0.0
C2993 C 0.40548 0.29174 0.92009 0.0
C2994 C 0.38775 0.29306 0.91958 0.0
C2995 C 0.37854 0.30255 0.93154 0.0
C2996 C 0.41526 0.28112 0.90803 0.0
C2997 C 0.41133 0.26367 0.90821 0.0
C2998 C 0.42952 0.28773 0.89786 0.0
C2999 C 0.4338 0.3062 0.89667 0.0
C3000 C 0.42149 0.31818 0.89229 0.0
C3001 C 0.42552 0.33557 0.89141 0.0
C3002 C 0.44186 0.34115 0.89479 0.0
C3003 C 0.45422 0.32934 0.89902 0.0
C3004 C 0.45025 0.31193 0.89993 0.0
C3005 C 0.45415 0.22495 0.86107 0.0
C3006 C 0.47106 0.2245 0.8657 0.0
C3007 C 0.4429 0.23659 0.86836 0.0
C3008 C 0.44849 0.24774 0.88041 0.0
C3009 C 0.46559 0.24755 0.8846 0.0
C3010 C 0.4768 0.23594 0.87732 0.0
C3011 C 0.43642 0.25901 0.88942 0.0
C3012 C 0.43995 0.27655 0.8887 0.0
C3013 C 0.42189 0.25247 0.89922 0.0
C3014 C 0.41803 0.23395 0.9012 0.0
C3015 C 0.42999 0.22265 0.90776 0.0
C3016 C 0.42635 0.20519 0.90935 0.0
C3017 C 0.41073 0.19889 0.9046 0.0
C3018 C 0.39868 0.21005 0.89829 0.0
C3019 C 0.40227 0.22752 0.89663 0.0
H3020 H 0.40793 0.18537 0.90584 0.0
H3021 H 0.44495 0.35462 0.89411 0.0
H3022 H 0.75196 0.38169 0.99116 0.0
H3023 H 0.77187 0.39752 0.97085 0.0
H3024 H 0.73549 0.39463 0.93205 0.0
H3025 H 0.71605 0.3779 0.95215 0.0
H3026 H 0.76511 0.38997 0.91792 0.0
H3027 H 0.74234 0.43161 0.95564 0.0
H3028 H 0.73521 0.44384 0.98355 0.0
H3029 H 0.78829 0.44575 0.99344 0.0
H3030 H 0.79573 0.4333 0.96568 0.0
H3031 H 0.80404 0.47721 0.88349 0.0
H3032 H 0.7859 0.46 0.90421 0.0
H3033 H 0.81828 0.41683 0.89582 0.0
H3034 H 0.83627 0.4341 0.87466 0.0
H3035 H 0.79074 0.44463 0.93353 0.0
H3036 H 0.79378 0.38031 0.90036 0.0
H3037 H 0.79812 0.36969 0.87132 0.0
H3038 H 0.77937 0.41656 0.8501 0.0
H3039 H 0.77467 0.42734 0.87902 0.0
C3040 C 0.74831 0.38444 0.97826 0.0
C3041 C 0.73247 0.37877 0.9732 0.0
C3042 C 0.75961 0.39356 0.96669 0.0
C3043 C 0.75511 0.39759 0.94994 0.0
C3044 C 0.73929 0.39175 0.94487 0.0
C3045 C 0.72813 0.38233 0.95636 0.0
C3046 C 0.76679 0.40793 0.93773 0.0
C3047 C 0.77073 0.4019 0.92138 0.0
C3048 C 0.77399 0.42366 0.94206 0.0
C3049 C 0.76957 0.43138 0.95865 0.0
C3050 C 0.75249 0.43455 0.96381 0.0
C3051 C 0.74839 0.44152 0.9796 0.0
C3052 C 0.76129 0.44552 0.99028 0.0
C3053 C 0.77832 0.44261 0.98517 0.0
C3054 C 0.78248 0.43561 0.9694 0.0
C3055 C 0.80723 0.46402 0.88608 0.0
C3056 C 0.8214 0.45686 0.87742 0.0
C3057 C 0.79693 0.45423 0.89797 0.0
C3058 C 0.8006 0.43705 0.90151 0.0
C3059 C 0.81503 0.42997 0.89313 0.0
C3060 C 0.82532 0.43979 0.88111 0.0
C3061 C 0.78907 0.42663 0.91377 0.0
C3062 C 0.7852 0.43264 0.93013 0.0
C3063 C 0.78153 0.41115 0.90928 0.0
C3064 C 0.78407 0.40469 0.89185 0.0
C3065 C 0.79053 0.38832 0.8895 0.0
C3066 C 0.79305 0.38227 0.87306 0.0
C3067 C 0.78908 0.39247 0.85887 0.0
C3068 C 0.7825 0.4087 0.8611 0.0
C3069 C 0.77992 0.41479 0.87751 0.0
H3070 H 0.79106 0.38777 0.84616 0.0
H3071 H 0.75809 0.4509 1.00251 0.0
H3072 H 0.63735 0.3118 0.04214 0.0
H3073 H 0.61735 0.29433 0.06107 0.0
H3074 H 0.65211 0.29637 0.10134 0.0
H3075 H 0.67202 0.314 0.08244 0.0
H3076 H 0.63958 0.26362 0.09698 0.0
H3077 H 0.61775 0.31998 0.10316 0.0
H3078 H 0.60734 0.34773 0.09271 0.0
H3079 H 0.56601 0.32276 0.07011 0.0
H3080 H 0.57635 0.29482 0.08017 0.0
H3081 H 0.58401 0.22944 0.16495 0.0
H3082 H 0.6037 0.24775 0.14665 0.0
H3083 H 0.56637 0.25154 0.10866 0.0
H3084 H 0.54649 0.23372 0.12731 0.0
H3085 H 0.58037 0.28154 0.11179 0.0
H3086 H 0.60176 0.22549 0.10452 0.0
H3087 H 0.61209 0.19728 0.11368 0.0
H3088 H 0.65395 0.22085 0.13675 0.0
H3089 H 0.64371 0.24924 0.12795 0.0
C3090 C 0.6406 0.30855 0.05508 0.0
C3091 C 0.65615 0.31413 0.0609 0.0
C3092 C 0.62922 0.29862 0.06586 0.0
C3093 C 0.63323 0.2941 0.08264 0.0
C3094 C 0.6488 0.29968 0.08844 0.0
C3095 C 0.66011 0.30973 0.0777 0.0
C3096 C 0.62122 0.28344 0.09409 0.0
C3097 C 0.6267 0.26762 0.10043 0.0
C3098 C 0.60428 0.28848 0.09817 0.0
C3099 C 0.59792 0.30529 0.09229 0.0
C3100 C 0.60652 0.32039 0.09585 0.0
C3101 C 0.60062 0.33616 0.09001 0.0
C3102 C 0.58605 0.337 0.08072 0.0
C3103 C 0.57731 0.32208 0.07729 0.0
C3104 C 0.58318 0.30627 0.08307 0.0
C3105 C 0.58007 0.23427 0.15271 0.0
C3106 C 0.5638 0.23028 0.14749 0.0
C3107 C 0.59132 0.24463 0.1422 0.0
C3108 C 0.58663 0.25089 0.12613 0.0
C3109 C 0.57031 0.24689 0.12097 0.0
C3110 C 0.559 0.23667 0.13155 0.0
C3111 C 0.5987 0.26164 0.11474 0.0
C3112 C 0.59324 0.2775 0.10838 0.0
C3113 C 0.61562 0.25655 0.11049 0.0
C3114 C 0.62187 0.2395 0.11572 0.0
C3115 C 0.6131 0.22467 0.11166 0.0
C3116 C 0.61894 0.20864 0.11677 0.0
C3117 C 0.63364 0.20728 0.12583 0.0
C3118 C 0.64255 0.22193 0.12975 0.0
C3119 C 0.63674 0.23799 0.1247 0.0
H3120 H 0.63815 0.19486 0.12977 0.0
H3121 H 0.5815 0.34922 0.0762 0.0
H3122 H 0.81468 0.59092 0.13231 0.0
H3123 H 0.79627 0.61067 0.11749 0.0
H3124 H 0.75231 0.57955 0.13439 0.0
H3125 H 0.7707 0.55938 0.14866 0.0
H3126 H 0.75136 0.5886 0.10166 0.0
H3127 H 0.7604 0.61696 0.15305 0.0
H3128 H 0.77727 0.62914 0.17511 0.0
H3129 H 0.80155 0.66434 0.13757 0.0
H3130 H 0.78499 0.65221 0.11523 0.0
H3131 H 0.69966 0.67072 0.08923 0.0
H3132 H 0.717 0.65242 0.10731 0.0
H3133 H 0.74511 0.63568 0.06222 0.0
H3134 H 0.7277 0.65387 0.04425 0.0
H3135 H 0.7517 0.65056 0.11126 0.0
H3136 H 0.75073 0.59283 0.06791 0.0
H3137 H 0.7323 0.5808 0.04701 0.0
H3138 H 0.68861 0.60399 0.0715 0.0
H3139 H 0.70671 0.61586 0.09273 0.0
C3140 C 0.80111 0.58821 0.13277 0.0
C3141 C 0.79414 0.57359 0.14168 0.0
C3142 C 0.79059 0.5996 0.12445 0.0
C3143 C 0.77291 0.59667 0.12502 0.0
C3144 C 0.76592 0.58208 0.13386 0.0
C3145 C 0.77643 0.57065 0.14213 0.0
C3146 C 0.76175 0.60858 0.11602 0.0
C3147 C 0.75142 0.60214 0.10379 0.0
C3148 C 0.76163 0.6262 0.11901 0.0
C3149 C 0.77155 0.63358 0.13244 0.0
C3150 C 0.76943 0.62722 0.14947 0.0
C3151 C 0.77892 0.63412 0.16203 0.0
C3152 C 0.7905 0.64748 0.15774 0.0
C3153 C 0.79258 0.65399 0.14088 0.0
C3154 C 0.78313 0.64711 0.12826 0.0
C3155 C 0.70966 0.66319 0.08333 0.0
C3156 C 0.71245 0.66345 0.06552 0.0
C3157 C 0.71954 0.65284 0.09358 0.0
C3158 C 0.73218 0.64262 0.08605 0.0
C3159 C 0.73528 0.64335 0.06823 0.0
C3160 C 0.72542 0.65369 0.05801 0.0
C3161 C 0.74166 0.63059 0.09672 0.0
C3162 C 0.75165 0.63701 0.10921 0.0
C3163 C 0.74123 0.6129 0.09421 0.0
C3164 C 0.73013 0.60536 0.08181 0.0
C3165 C 0.73718 0.59526 0.0689 0.0
C3166 C 0.72679 0.58848 0.05699 0.0
C3167 C 0.70931 0.59167 0.0579 0.0
C3168 C 0.70216 0.60156 0.07078 0.0
C3169 C 0.71248 0.60832 0.08275 0.0
H3170 H 0.7013 0.58644 0.04864 0.0
H3171 H 0.79784 0.65281 0.16748 0.0
H3172 H 0.38738 0.71511 0.09376 0.0
H3173 H 0.40406 0.73347 0.11113 0.0
H3174 H 0.40137 0.7745 0.07323 0.0
H3175 H 0.38459 0.75623 0.05584 0.0
H3176 H 0.43443 0.7701 0.08468 0.0
H3177 H 0.37717 0.77592 0.10898 0.0
H3178 H 0.3494 0.76543 0.12192 0.0
H3179 H 0.37424 0.74172 0.16375 0.0
H3180 H 0.4022 0.75188 0.15092 0.0
H3181 H 0.4699 0.83429 0.13297 0.0
H3182 H 0.45189 0.81783 0.11563 0.0
H3183 H 0.44112 0.78178 0.15802 0.0
H3184 H 0.45741 0.79916 0.17605 0.0
H3185 H 0.41438 0.7838 0.14357 0.0
H3186 H 0.47164 0.77647 0.11969 0.0
H3187 H 0.49991 0.78532 0.10659 0.0
H3188 H 0.47632 0.80962 0.06428 0.0
H3189 H 0.44791 0.80115 0.07724 0.0
C3190 C 0.39036 0.72803 0.08908 0.0
C3191 C 0.38455 0.73416 0.07338 0.0
C3192 C 0.39984 0.73857 0.09909 0.0
C3193 C 0.40396 0.75547 0.09359 0.0
C3194 C 0.39837 0.76156 0.07782 0.0
C3195 C 0.38866 0.75111 0.06793 0.0
C3196 C 0.41413 0.76674 0.10423 0.0
C3197 C 0.42998 0.77327 0.0975 0.0
C3198 C 0.4086 0.77056 0.12113 0.0
C3199 C 0.3918 0.76452 0.1289 0.0
C3200 C 0.37673 0.76835 0.12086 0.0
C3201 C 0.36095 0.76249 0.12819 0.0
C3202 C 0.36006 0.75288 0.14362 0.0
C3203 C 0.37495 0.74915 0.15178 0.0
C3204 C 0.39076 0.75497 0.1445 0.0
C3205 C 0.4635 0.82309 0.13888 0.0
C3206 C 0.46552 0.81826 0.15618 0.0
C3207 C 0.45337 0.81336 0.12868 0.0
C3208 C 0.44537 0.79809 0.13516 0.0
C3209 C 0.44715 0.79335 0.15244 0.0
C3210 C 0.45686 0.80331 0.16278 0.0
C3211 C 0.435 0.78715 0.12417 0.0
C3212 C 0.41902 0.78066 0.1308 0.0
C3213 C 0.44056 0.78314 0.10724 0.0
C3214 C 0.45765 0.78831 0.09952 0.0
C3215 C 0.47249 0.78381 0.10765 0.0
C3216 C 0.48854 0.78875 0.10025 0.0
C3217 C 0.4899 0.79805 0.08463 0.0
C3218 C 0.47524 0.80243 0.07638 0.0
C3219 C 0.45916 0.79757 0.08375 0.0
H3220 H 0.5023 0.80182 0.07885 0.0
H3221 H 0.34783 0.74835 0.14928 0.0
H3222 H 0.28428 0.37586 0.05386 0.0
H3223 H 0.26652 0.39285 0.07295 0.0
H3224 H 0.31157 0.41573 0.09151 0.0
H3225 H 0.32951 0.39811 0.07302 0.0
H3226 H 0.28826 0.40855 0.11708 0.0
H3227 H 0.28907 0.43659 0.06168 0.0
H3228 H 0.28593 0.43888 0.03062 0.0
H3229 H 0.23294 0.42498 0.03863 0.0
H3230 H 0.23582 0.42236 0.06975 0.0
H3231 H 0.24889 0.48106 0.15182 0.0
H3232 H 0.2665 0.46229 0.13437 0.0
H3233 H 0.22127 0.43702 0.11906 0.0
H3234 H 0.2035 0.45563 0.1367 0.0
H3235 H 0.24456 0.44535 0.09203 0.0
H3236 H 0.24439 0.41789 0.14809 0.0
H3237 H 0.24821 0.41662 0.17904 0.0
H3238 H 0.30099 0.43084 0.16948 0.0
H3239 H 0.29742 0.43243 0.13846 0.0
C3240 C 0.29044 0.38425 0.06224 0.0
C3241 C 0.30831 0.38568 0.06189 0.0
C3242 C 0.28027 0.3941 0.07298 0.0
C3243 C 0.28775 0.40575 0.08338 0.0
C3244 C 0.30557 0.40687 0.08347 0.0
C3245 C 0.31578 0.39692 0.07281 0.0
C3246 C 0.27696 0.41698 0.09394 0.0
C3247 C 0.27885 0.41675 0.11158 0.0
C3248 C 0.26451 0.42746 0.08675 0.0
C3249 C 0.26271 0.42912 0.06804 0.0
C3250 C 0.27678 0.4339 0.05681 0.0
C3251 C 0.27504 0.43527 0.03919 0.0
C3252 C 0.25926 0.43203 0.03265 0.0
C3253 C 0.24516 0.42746 0.04372 0.0
C3254 C 0.24684 0.42604 0.06135 0.0
C3255 C 0.24269 0.47137 0.14491 0.0
C3256 C 0.22482 0.46972 0.14572 0.0
C3257 C 0.25276 0.46072 0.13492 0.0
C3258 C 0.24515 0.4482 0.12561 0.0
C3259 C 0.22733 0.44664 0.12619 0.0
C3260 C 0.21723 0.45728 0.13621 0.0
C3261 C 0.25584 0.43685 0.11514 0.0
C3262 C 0.25395 0.4371 0.09751 0.0
C3263 C 0.26839 0.42652 0.12231 0.0
C3264 C 0.2706 0.42542 0.14096 0.0
C3265 C 0.25678 0.42086 0.15259 0.0
C3266 C 0.25891 0.42007 0.17015 0.0
C3267 C 0.27482 0.42368 0.17623 0.0
C3268 C 0.28866 0.42805 0.16476 0.0
C3269 C 0.2866 0.42889 0.14719 0.0
H3270 H 0.27644 0.42306 0.18983 0.0
H3271 H 0.25794 0.4331 0.01901 0.0
H3272 H 0.90306 0.52252 0.79737 0.0
H3273 H 0.92236 0.54052 0.77815 0.0
H3274 H 0.88612 0.58121 0.78066 0.0
H3275 H 0.86707 0.56341 0.80018 0.0
H3276 H 0.90072 0.57552 0.74679 0.0
H3277 H 0.91761 0.58323 0.80412 0.0
H3278 H 0.92655 0.57297 0.83225 0.0
H3279 H 0.97114 0.55092 0.80826 0.0
H3280 H 0.96228 0.56078 0.77993 0.0
H3281 H 0.95126 0.64641 0.71518 0.0
H3282 H 0.93222 0.62653 0.73242 0.0
H3283 H 0.97376 0.5916 0.73727 0.0
H3284 H 0.99291 0.61185 0.72058 0.0
H3285 H 0.95675 0.59293 0.76672 0.0
H3286 H 0.94135 0.58522 0.70981 0.0
H3287 H 0.93268 0.59381 0.6811 0.0
H3288 H 0.88609 0.61382 0.70306 0.0
H3289 H 0.89461 0.60558 0.73195 0.0
C3290 C 0.8992 0.53524 0.7936 0.0
C3291 C 0.88349 0.5415 0.79988 0.0
C3292 C 0.91019 0.5455 0.7827 0.0
C3293 C 0.90562 0.56217 0.77795 0.0
C3294 C 0.88979 0.56833 0.78403 0.0
C3295 C 0.87892 0.55816 0.7951 0.0
C3296 C 0.91762 0.5735 0.76727 0.0
C3297 C 0.91291 0.57949 0.75117 0.0
C3298 C 0.9337 0.57825 0.77284 0.0
C3299 C 0.93919 0.57259 0.78989 0.0
C3300 C 0.92925 0.57608 0.80482 0.0
C3301 C 0.93431 0.57035 0.82081 0.0
C3302 C 0.94938 0.56126 0.82204 0.0
C3303 C 0.95945 0.55794 0.80728 0.0
C3304 C 0.95442 0.5636 0.79126 0.0
C3305 C 0.95626 0.6345 0.72003 0.0
C3306 C 0.97348 0.63061 0.71669 0.0
C3307 C 0.94539 0.62309 0.72975 0.0
C3308 C 0.95147 0.60741 0.73598 0.0
C3309 C 0.96875 0.60357 0.73263 0.0
C3310 C 0.97965 0.61507 0.72306 0.0
C3311 C 0.93987 0.59513 0.74615 0.0
C3312 C 0.94463 0.58894 0.7622 0.0
C3313 C 0.92391 0.59002 0.74043 0.0
C3314 C 0.91869 0.59491 0.72307 0.0
C3315 C 0.92931 0.59156 0.70853 0.0
C3316 C 0.92442 0.59636 0.69222 0.0
C3317 C 0.90886 0.60439 0.69026 0.0
C3318 C 0.89815 0.60761 0.70461 0.0
C3319 C 0.90299 0.60287 0.72095 0.0
H3320 H 0.90509 0.60809 0.67762 0.0
H3321 H 0.95327 0.55684 0.83442 0.0
H3322 H 0.89948 0.45857 0.19357 0.0
H3323 H 0.91766 0.43944 0.20947 0.0
H3324 H 0.89548 0.45739 0.25694 0.0
H3325 H 0.87792 0.47709 0.24117 0.0
H3326 H 0.92868 0.45531 0.25813 0.0
H3327 H 0.88381 0.4187 0.24148 0.0
H3328 H 0.86535 0.4055 0.22134 0.0
H3329 H 0.9092 0.38426 0.19516 0.0
H3330 H 0.92795 0.39754 0.21502 0.0
H3331 H 0.95319 0.3901 0.31566 0.0
H3332 H 0.93567 0.40805 0.29782 0.0
H3333 H 0.96455 0.3927 0.25268 0.0
H3334 H 0.98243 0.375 0.27043 0.0
H3335 H 0.92906 0.39321 0.24935 0.0
H3336 H 0.97367 0.42949 0.26717 0.0
H3337 H 0.99149 0.44229 0.28811 0.0
H3338 H 0.94707 0.46385 0.31293 0.0
H3339 H 0.92894 0.45095 0.29229 0.0
C3340 C 0.89861 0.45857 0.20739 0.0
C3341 C 0.88718 0.46928 0.21611 0.0
C3342 C 0.90887 0.4475 0.21646 0.0
C3343 C 0.90774 0.44682 0.23439 0.0
C3344 C 0.8965 0.45765 0.2431 0.0
C3345 C 0.88635 0.46878 0.23407 0.0
C3346 C 0.91836 0.43499 0.24418 0.0
C3347 C 0.9286 0.44171 0.25633 0.0
C3348 C 0.91855 0.41729 0.24156 0.0
C3349 C 0.9073 0.40927 0.22962 0.0
C3350 C 0.88953 0.41133 0.23134 0.0
C3351 C 0.87901 0.40381 0.21999 0.0
C3352 C 0.8861 0.39409 0.20694 0.0
C3353 C 0.90373 0.39182 0.20525 0.0
C3354 C 0.9143 0.39933 0.21656 0.0
C3355 C 0.95587 0.39058 0.30194 0.0
C3356 C 0.9693 0.38124 0.29447 0.0
C3357 C 0.9458 0.40077 0.29178 0.0
C3358 C 0.94898 0.4018 0.27399 0.0
C3359 C 0.96193 0.39203 0.26641 0.0
C3360 C 0.97208 0.38188 0.27657 0.0
C3361 C 0.93913 0.41355 0.26338 0.0
C3362 C 0.92912 0.40682 0.25107 0.0
C3363 C 0.93904 0.43123 0.26592 0.0
C3364 C 0.94993 0.43912 0.27828 0.0
C3365 C 0.96769 0.43685 0.27718 0.0
C3366 C 0.97785 0.44414 0.28898 0.0
C3367 C 0.97041 0.45385 0.30187 0.0
C3368 C 0.95281 0.45632 0.30295 0.0
C3369 C 0.94259 0.44903 0.2912 0.0
H3370 H 0.9783 0.45948 0.311 0.0
H3371 H 0.87794 0.38827 0.19817 0.0
H3372 H 0.67095 0.95464 0.32645 0.0
H3373 H 0.65283 0.93805 0.30865 0.0
H3374 H 0.61889 0.98051 0.30457 0.0
H3375 H 0.63714 0.9971 0.32219 0.0
H3376 H 0.62085 0.92657 0.31154 0.0
H3377 H 0.60273 0.98243 0.26574 0.0
H3378 H 0.61535 0.00979 0.25424 0.0
H3379 H 0.6656 0.99069 0.26069 0.0
H3380 H 0.6533 0.96319 0.27199 0.0
H3381 H 0.55193 0.89839 0.26541 0.0
H3382 H 0.57067 0.91453 0.28263 0.0
H3383 H 0.60648 0.92244 0.23901 0.0
H3384 H 0.58757 0.90651 0.22161 0.0
H3385 H 0.60548 0.9503 0.25506 0.0
H3386 H 0.61259 0.89234 0.27325 0.0
H3387 H 0.60369 0.86341 0.28388 0.0
H3388 H 0.58157 0.88351 0.33005 0.0
H3389 H 0.59013 0.9126 0.31959 0.0
C3390 C 0.65961 0.96039 0.32172 0.0
C3391 C 0.65552 0.9772 0.32557 0.0
C3392 C 0.6492 0.95088 0.3116 0.0
C3393 C 0.63449 0.95799 0.30501 0.0
C3394 C 0.63025 0.97473 0.30919 0.0
C3395 C 0.64065 0.98421 0.31933 0.0
C3396 C 0.62373 0.94804 0.29361 0.0
C3397 C 0.61745 0.93181 0.29923 0.0
C3398 C 0.6196 0.95452 0.27726 0.0
C3399 C 0.62707 0.97082 0.26986 0.0
C3400 C 0.61647 0.98405 0.26459 0.0
C3401 C 0.62357 0.99959 0.25813 0.0
C3402 C 0.64127 1.00199 0.2568 0.0
C3403 C 0.6519 0.98883 0.26179 0.0
C3404 C 0.64487 0.97328 0.26823 0.0
C3405 C 0.56384 0.90344 0.25946 0.0
C3406 C 0.56821 0.90093 0.24207 0.0
C3407 C 0.57462 0.91271 0.26938 0.0
C3408 C 0.59029 0.91957 0.26234 0.0
C3409 C 0.59454 0.91735 0.24489 0.0
C3410 C 0.58366 0.9082 0.23489 0.0
C3411 C 0.60218 0.92893 0.27317 0.0
C3412 C 0.60875 0.94506 0.26742 0.0
C3413 C 0.60699 0.92213 0.2892 0.0
C3414 C 0.60186 0.90466 0.29557 0.0
C3415 C 0.60572 0.8906 0.28562 0.0
C3416 C 0.60075 0.87418 0.29162 0.0
C3417 C 0.59203 0.87163 0.30761 0.0
C3418 C 0.5883 0.88551 0.31766 0.0
C3419 C 0.59322 0.90196 0.31171 0.0
H3420 H 0.5882 0.85891 0.31224 0.0
H3421 H 0.64679 0.01403 0.25189 0.0
H3422 H 0.14442 0.55772 0.25635 0.0
H3423 H 0.1251 0.57446 0.27431 0.0
H3424 H 0.11461 0.60678 0.23051 0.0
H3425 H 0.13425 0.59031 0.21249 0.0
H3426 H 0.11831 0.62493 0.25913 0.0
H3427 H 0.08729 0.57611 0.24275 0.0
H3428 H 0.08233 0.54547 0.23927 0.0
H3429 H 0.08202 0.53617 0.29358 0.0
H3430 H 0.08725 0.56674 0.29737 0.0
H3431 H 0.02722 0.63747 0.29782 0.0
H3432 H 0.0478 0.62042 0.28135 0.0
H3433 H 0.08773 0.63675 0.31256 0.0
H3434 H 0.06708 0.65393 0.32891 0.0
H3435 H 0.06879 0.59445 0.28943 0.0
H3436 H 0.12344 0.64476 0.28565 0.0
H3437 H 0.12706 0.67588 0.28696 0.0
H3438 H 0.07715 0.68317 0.26881 0.0
H3439 H 0.07334 0.65214 0.26714 0.0
C3440 C 0.13824 0.56858 0.25061 0.0
C3441 C 0.14076 0.57269 0.23302 0.0
C3442 C 0.12713 0.57804 0.26085 0.0
C3443 C 0.11833 0.59169 0.25366 0.0
C3444 C 0.12128 0.59624 0.23625 0.0
C3445 C 0.13238 0.58676 0.22598 0.0
C3446 C 0.10544 0.60073 0.26415 0.0
C3447 C 0.10752 0.61829 0.26582 0.0
C3448 C 0.09121 0.59204 0.27254 0.0
C3449 C 0.08784 0.57369 0.27033 0.0
C3450 C 0.08629 0.56751 0.25394 0.0
C3451 C 0.08341 0.55017 0.25191 0.0
C3452 C 0.08192 0.53889 0.26619 0.0
C3453 C 0.08322 0.54493 0.28253 0.0
C3454 C 0.08613 0.56227 0.28463 0.0
C3455 C 0.04036 0.63713 0.30123 0.0
C3456 C 0.04577 0.64682 0.31447 0.0
C3457 C 0.05205 0.62744 0.29191 0.0
C3458 C 0.06926 0.62749 0.29568 0.0
C3459 C 0.07451 0.63672 0.30939 0.0
C3460 C 0.0628 0.64641 0.31872 0.0
C3461 C 0.08184 0.6186 0.28468 0.0
C3462 C 0.07967 0.60107 0.28288 0.0
C3463 C 0.09576 0.6274 0.27584 0.0
C3464 C 0.09805 0.64611 0.27646 0.0
C3465 C 0.11327 0.65302 0.28187 0.0
C3466 C 0.11535 0.67064 0.28268 0.0
C3467 C 0.10232 0.68149 0.27803 0.0
C3468 C 0.08721 0.67475 0.27247 0.0
C3469 C 0.08508 0.65715 0.27161 0.0
H3470 H 0.10394 0.69513 0.27869 0.0
H3471 H 0.07972 0.52547 0.26459 0.0
H3472 H 0.49358 0.16042 0.2367 0.0
H3473 H 0.47586 0.14225 0.25698 0.0
H3474 H 0.43716 0.13989 0.22044 0.0
H3475 H 0.4544 0.15917 0.20072 0.0
H3476 H 0.42206 0.14241 0.24942 0.0
H3477 H 0.46666 0.1061 0.22934 0.0
H3478 H 0.49636 0.09751 0.22287 0.0
H3479 H 0.50598 0.09861 0.27604 0.0
H3480 H 0.47639 0.10743 0.28281 0.0
H3481 H 0.38028 0.06702 0.28695 0.0
H3482 H 0.39768 0.0865 0.26787 0.0
H3483 H 0.42637 0.10112 0.30999 0.0
H3484 H 0.40847 0.08238 0.32947 0.0
H3485 H 0.44643 0.09202 0.27873 0.0
H3486 H 0.40022 0.12802 0.2977 0.0
H3487 H 0.36995 0.13531 0.30273 0.0
H3488 H 0.36282 0.13255 0.24915 0.0
H3489 H 0.39301 0.12499 0.24383 0.0
C3490 C 0.48126 0.156 0.23307 0.0
C3491 C 0.47544 0.16091 0.21707 0.0
C3492 C 0.47119 0.14549 0.24459 0.0
C3493 C 0.45529 0.13925 0.24015 0.0
C3494 C 0.44939 0.14438 0.22419 0.0
C3495 C 0.4593 0.15525 0.21285 0.0
C3496 C 0.44471 0.12759 0.25218 0.0
C3497 C 0.42741 0.13128 0.2556 0.0
C3498 C 0.45161 0.11312 0.26055 0.0
C3499 C 0.46935 0.10758 0.25656 0.0
C3500 C 0.47513 0.1046 0.23965 0.0
C3501 C 0.49195 0.09968 0.23593 0.0
C3502 C 0.50306 0.09756 0.24903 0.0
C3503 C 0.49736 0.10028 0.2659 0.0
C3504 C 0.48057 0.10522 0.26969 0.0
C3505 C 0.39004 0.07458 0.29233 0.0
C3506 C 0.39281 0.07308 0.3099 0.0
C3507 C 0.40009 0.08561 0.28132 0.0
C3508 C 0.41329 0.09524 0.28753 0.0
C3509 C 0.41629 0.09371 0.30494 0.0
C3510 C 0.40606 0.08289 0.31604 0.0
C3511 C 0.42395 0.10691 0.27579 0.0
C3512 C 0.44121 0.10318 0.27246 0.0
C3513 C 0.41695 0.12112 0.26723 0.0
C3514 C 0.39883 0.12577 0.2704 0.0
C3515 C 0.39216 0.12882 0.28701 0.0
C3516 C 0.37503 0.13303 0.28991 0.0
C3517 C 0.36446 0.13435 0.27627 0.0
C3518 C 0.37102 0.13151 0.2597 0.0
C3519 C 0.38814 0.12727 0.25674 0.0
H3520 H 0.35119 0.13762 0.27854 0.0
H3521 H 0.51608 0.09377 0.24613 0.0
H3522 H 0.08427 0.34999 0.72473 0.0
H3523 H 0.10186 0.36709 0.74233 0.0
H3524 H 0.06984 0.41033 0.73351 0.0
H3525 H 0.05256 0.39341 0.71551 0.0
H3526 H 0.10052 0.4214 0.73196 0.0
H3527 H 0.06884 0.3845 0.77291 0.0
H3528 H 0.05794 0.35712 0.78603 0.0
H3529 H 0.10914 0.34117 0.79327 0.0
H3530 H 0.12035 0.36839 0.77999 0.0
H3531 H 0.1261 0.46973 0.80186 0.0
H3532 H 0.10982 0.45211 0.78342 0.0
H3533 H 0.14943 0.41471 0.78331 0.0
H3534 H 0.16592 0.43245 0.80155 0.0
H3535 H 0.11569 0.40055 0.78949 0.0
H3536 H 0.14687 0.43833 0.74895 0.0
H3537 H 0.15716 0.46591 0.73584 0.0
H3538 H 0.10561 0.48073 0.72867 0.0
H3539 H 0.09499 0.45329 0.74195 0.0
C3540 C 0.08091 0.36312 0.7266 0.0
C3541 C 0.06692 0.37025 0.71865 0.0
C3542 C 0.09098 0.37293 0.73677 0.0
C3543 C 0.08715 0.39007 0.73964 0.0
C3544 C 0.07322 0.39721 0.73161 0.0
C3545 C 0.0633 0.38748 0.72125 0.0
C3546 C 0.09767 0.40062 0.75079 0.0
C3547 C 0.10357 0.41686 0.74464 0.0
C3548 C 0.10214 0.39477 0.76728 0.0
C3549 C 0.09544 0.37841 0.7753 0.0
C3550 C 0.07777 0.37511 0.77719 0.0
C3551 C 0.07154 0.35962 0.78467 0.0
C3552 C 0.08284 0.34739 0.79044 0.0
C3553 C 0.1004 0.35065 0.78878 0.0
C3554 C 0.1067 0.3661 0.78129 0.0
C3555 C 0.13134 0.45774 0.79794 0.0
C3556 C 0.14735 0.45253 0.80323 0.0
C3557 C 0.12205 0.4477 0.78731 0.0
C3558 C 0.12836 0.43204 0.78188 0.0
C3559 C 0.14425 0.42671 0.78729 0.0
C3560 C 0.15371 0.43691 0.79766 0.0
C3561 C 0.11834 0.42125 0.77066 0.0
C3562 C 0.11256 0.40501 0.77682 0.0
C3563 C 0.11382 0.42717 0.75427 0.0
C3564 C 0.12013 0.44381 0.74659 0.0
C3565 C 0.13771 0.44753 0.74474 0.0
C3566 C 0.14361 0.46312 0.73722 0.0
C3567 C 0.13205 0.47504 0.73139 0.0
C3568 C 0.11455 0.47145 0.73314 0.0
C3569 C 0.10859 0.45588 0.74067 0.0
H3570 H 0.13664 0.48709 0.72554 0.0
H3571 H 0.07799 0.33541 0.79622 0.0
H3572 H 0.58389 0.15524 0.83263 0.0
H3573 H 0.60064 0.13543 0.81522 0.0
H3574 H 0.55416 0.11092 0.80195 0.0
H3575 H 0.53745 0.13081 0.81929 0.0
H3576 H 0.58094 0.08807 0.80806 0.0
H3577 H 0.57043 0.13944 0.77492 0.0
H3578 H 0.57024 0.17051 0.76921 0.0
H3579 H 0.62459 0.17283 0.77209 0.0
H3580 H 0.62508 0.14176 0.77795 0.0
H3581 H 0.61324 0.04823 0.73424 0.0
H3582 H 0.59617 0.06632 0.75296 0.0
H3583 H 0.64133 0.09513 0.7627 0.0
H3584 H 0.65838 0.07758 0.74341 0.0
H3585 H 0.61486 0.11558 0.75865 0.0
H3586 H 0.62542 0.06378 0.79095 0.0
H3587 H 0.6254 0.03267 0.79649 0.0
H3588 H 0.57085 0.031 0.7954 0.0
H3589 H 0.57057 0.06208 0.7896 0.0
C3590 C 0.57738 0.14536 0.82624 0.0
C3591 C 0.55954 0.14444 0.82705 0.0
C3592 C 0.58687 0.13415 0.81632 0.0
C3593 C 0.57856 0.12192 0.80718 0.0
C3594 C 0.56074 0.12031 0.80891 0.0
C3595 C 0.55125 0.13159 0.81876 0.0
C3596 C 0.58837 0.11177 0.79476 0.0
C3597 C 0.58823 0.09401 0.79716 0.0
C3598 C 0.598 0.11965 0.7807 0.0
C3599 C 0.59777 0.13831 0.77703 0.0
C3600 C 0.58233 0.14659 0.77444 0.0
C3601 C 0.58217 0.16419 0.77112 0.0
C3602 C 0.59739 0.17365 0.77033 0.0
C3603 C 0.61281 0.1655 0.77274 0.0
C3604 C 0.61304 0.14788 0.77602 0.0
C3605 C 0.61948 0.05864 0.74008 0.0
C3606 C 0.63718 0.06142 0.73745 0.0
C3607 C 0.60975 0.06882 0.75093 0.0
C3608 C 0.61757 0.08182 0.75947 0.0
C3609 C 0.6351 0.08507 0.75633 0.0
C3610 C 0.64482 0.07495 0.74542 0.0
C3611 C 0.60758 0.0918 0.77197 0.0
C3612 C 0.60763 0.10957 0.76957 0.0
C3613 C 0.59787 0.0839 0.78601 0.0
C3614 C 0.598 0.06523 0.78968 0.0
C3615 C 0.61343 0.05676 0.79178 0.0
C3616 C 0.61347 0.03914 0.79498 0.0
C3617 C 0.59813 0.02986 0.79625 0.0
C3618 C 0.58272 0.0382 0.79438 0.0
C3619 C 0.58262 0.05582 0.79115 0.0
H3620 H 0.59819 0.01621 0.79872 0.0
H3621 H 0.59723 0.18728 0.76782 0.0
H3622 H 0.44298 0.89817 0.83473 0.0
H3623 H 0.42429 0.91507 0.81743 0.0
H3624 H 0.44085 0.88766 0.77308 0.0
H3625 H 0.46078 0.87183 0.78988 0.0
H3626 H 0.43902 0.91859 0.76382 0.0
H3627 H 0.40066 0.8805 0.79664 0.0
H3628 H 0.38728 0.86586 0.8226 0.0
H3629 H 0.37079 0.9138 0.84138 0.0
H3630 H 0.38427 0.92875 0.81562 0.0
H3631 H 0.36832 0.94207 0.71482 0.0
H3632 H 0.38577 0.92438 0.73331 0.0
H3633 H 0.38563 0.96397 0.76962 0.0
H3634 H 0.36876 0.98195 0.75083 0.0
H3635 H 0.37834 0.92688 0.78266 0.0
H3636 H 0.41806 0.96414 0.74813 0.0
H3637 H 0.42974 0.97683 0.7205 0.0
H3638 H 0.44205 0.92712 0.70329 0.0
H3639 H 0.43011 0.91411 0.73071 0.0
C3640 C 0.44289 0.89587 0.82125 0.0
C3641 C 0.45345 0.88353 0.81379 0.0
C3642 C 0.43193 0.90538 0.81141 0.0
C3643 C 0.43086 0.90243 0.79399 0.0
C3644 C 0.44135 0.89013 0.78651 0.0
C3645 C 0.4526 0.88089 0.79624 0.0
C3646 C 0.41915 0.91242 0.78346 0.0
C3647 C 0.42571 0.92016 0.7679 0.0
C3648 C 0.40178 0.91471 0.78878 0.0
C3649 C 0.39362 0.90576 0.80427 0.0
C3650 C 0.39429 0.88793 0.80636 0.0
C3651 C 0.38667 0.87957 0.82103 0.0
C3652 C 0.37823 0.8889 0.83365 0.0
C3653 C 0.37735 0.9066 0.8316 0.0
C3654 C 0.38496 0.91502 0.81696 0.0
C3655 C 0.37206 0.94692 0.72675 0.0
C3656 C 0.36747 0.96334 0.73142 0.0
C3657 C 0.3819 0.93685 0.73728 0.0
C3658 C 0.38693 0.94296 0.75274 0.0
C3659 C 0.38178 0.9591 0.75773 0.0
C3660 C 0.37224 0.96931 0.74704 0.0
C3661 C 0.39831 0.93285 0.76327 0.0
C3662 C 0.39167 0.92516 0.77873 0.0
C3663 C 0.41548 0.9303 0.75772 0.0
C3664 C 0.42302 0.93814 0.7414 0.0
C3665 C 0.42312 0.9559 0.7384 0.0
C3666 C 0.4298 0.96316 0.72278 0.0
C3667 C 0.43659 0.95279 0.71013 0.0
C3668 C 0.43676 0.93514 0.71309 0.0
C3669 C 0.43004 0.92782 0.72867 0.0
H3670 H 0.44176 0.95842 0.69805 0.0
H3671 H 0.37234 0.8824 0.845 0.0
loop_
_geom_bond_atom_site_label_1
_geom_bond_atom_site_label_2
_geom_bond_distance
_geom_bond_site_symmetry_2
_ccdc_geom_bond_type
C0 C1 1.443 . S
C0 N4 1.376 1_565 S
C0 C38 1.389 . S
C1 C0 1.443 . S
C1 C2 1.330 1_565 S
C1 H41 0.951 . S
C2 C1 1.330 1_545 S
C2 C3 1.449 . S
C2 H42 0.950 . S
C3 C2 1.449 . S
C3 N4 1.374 . S
C3 C37 1.395 . S
N4 C0 1.376 1_545 S
N4 C3 1.374 . S
N4 Co5 2.008 . S
Co5 N4 2.008 . S
Co5 N6 1.995 . S
Co5 N11 2.008 . S
Co5 N16 1.995 . S
Co5 N21 2.282 1_545 S
Co5 N27 2.282 . S
N6 Co5 1.995 . S
N6 C7 1.376 . S
N6 C10 1.383 . S
C7 N6 1.376 . S
C7 C8 1.446 . S
C7 C37 1.391 . S
C8 C7 1.446 . S
C8 C9 1.339 . S
C8 H43 0.949 . S
C9 C8 1.339 . S
C9 C10 1.439 . S
C9 H44 0.950 . S
C10 N6 1.383 . S
C10 C9 1.439 . S
C10 C39 1.392 . S
N11 Co5 2.008 . S
N11 C12 1.376 . S
N11 C15 1.374 . S
C12 N11 1.376 . S
C12 C13 1.443 . S
C12 C39 1.389 . S
C13 C12 1.443 . S
C13 C14 1.340 . S
C13 H45 0.951 . S
C14 C13 1.340 . S
C14 C15 1.439 . S
C14 H46 0.950 . S
C15 N11 1.374 . S
C15 C14 1.439 . S
C15 C40 1.395 . S
N16 Co5 1.995 . S
N16 C17 1.376 . S
N16 C20 1.383 1_545 S
C17 N16 1.376 . S
C17 C18 1.446 1_545 S
C17 C40 1.391 . S
C18 C17 1.446 1_565 S
C18 C19 1.339 . S
C18 H47 0.949 . S
C19 C18 1.339 . S
C19 C20 1.439 . S
C19 H48 0.950 . S
C20 N16 1.383 1_565 S
C20 C19 1.439 . S
C20 C38 1.392 . S
N21 Co5 2.282 1_565 S
N21 C24 1.332 . S
N21 C26 1.332 . S
C22 C23 1.386 . S
C22 C25 1.388 . S
C23 C22 1.386 . S
C23 C24 1.382 . S
C23 H49 0.950 . S
C24 N21 1.332 . S
C24 C23 1.382 . S
C24 H35 0.952 . S
C25 C22 1.388 . S
C25 C26 1.382 . S
C25 H50 0.950 . S
C26 N21 1.332 . S
C26 C25 1.382 . S
C26 H36 0.948 . S
N27 Co5 2.282 . S
N27 C31 1.332 . S
N27 C32 1.332 . S
C28 C29 1.388 . S
C28 C32 1.382 . S
C28 H51 0.950 . S
C29 C28 1.388 . S
C29 C30 1.386 . S
C30 C29 1.386 . S
C30 C31 1.382 . S
C30 H52 0.950 . S
C31 N27 1.332 . S
C31 C30 1.382 . S
C31 H33 0.952 . S
C32 N27 1.332 . S
C32 C28 1.382 . S
C32 H34 0.948 . S
H33 C31 0.952 . S
H34 C32 0.948 . S
H35 C24 0.952 . S
H36 C26 0.948 . S
C37 C3 1.395 . S
C37 C7 1.391 . S
C38 C0 1.389 . S
C38 C20 1.392 . S
C39 C10 1.392 . S
C39 C12 1.389 . S
C40 C15 1.395 . S
C40 C17 1.391 . S
H41 C1 0.951 . S
H42 C2 0.950 . S
H43 C8 0.949 . S
H44 C9 0.950 . S
H45 C13 0.951 . S
H46 C14 0.950 . S
H47 C18 0.949 . S
H48 C19 0.950 . S
H49 C23 0.950 . S
H50 C25 0.950 . S
H51 C28 0.950 . S
H52 C30 0.950 . S
C53 C54 1.443 . S
C53 N57 1.376 . S
C53 C91 1.389 . S
C54 C53 1.443 . S
C54 C55 1.340 . S
C54 H94 0.951 . S
C55 C54 1.340 . S
C55 C56 1.439 . S
C55 H95 0.950 . S
C56 C55 1.439 . S
C56 N57 1.374 . S
C56 C90 1.395 . S
N57 C53 1.376 . S
N57 C56 1.374 . S
N57 Co58 2.008 . S
Co58 N57 2.008 . S
Co58 N59 1.995 . S
Co58 N64 2.008 . S
Co58 N69 1.995 . S
Co58 N74 2.282 . S
Co58 N80 2.282 1_455 S
N59 Co58 1.995 . S
N59 C60 1.376 . S
N59 C63 1.383 1_455 S
C60 N59 1.376 . S
C60 C61 1.446 1_455 S
C60 C90 1.391 . S
C61 C60 1.446 1_655 S
C61 C62 1.339 . S
C61 H96 0.949 . S
C62 C61 1.339 . S
C62 C63 1.439 . S
C62 H97 0.950 . S
C63 N59 1.383 1_655 S
C63 C62 1.439 . S
C63 C92 1.392 . S
N64 Co58 2.008 . S
N64 C65 1.376 1_455 S
N64 C68 1.374 . S
C65 N64 1.376 1_655 S
C65 C66 1.443 . S
C65 C92 1.389 . S
C66 C65 1.443 . S
C66 C67 1.340 1_655 S
C66 H98 0.951 . S
C67 C66 1.340 1_455 S
C67 C68 1.439 . S
C67 H99 0.950 . S
C68 N64 1.374 . S
C68 C67 1.439 . S
C68 C93 1.395 . S
N69 Co58 1.995 . S
N69 C70 1.376 . S
N69 C73 1.383 . S
C70 N69 1.376 . S
C70 C71 1.446 . S
C70 C93 1.391 . S
C71 C70 1.446 . S
C71 C72 1.339 . S
C71 H100 0.949 . S
C72 C71 1.339 . S
C72 C73 1.439 . S
C72 H101 0.950 . S
C73 N69 1.383 . S
C73 C72 1.439 . S
C73 C91 1.392 . S
N74 Co58 2.282 . S
N74 C77 1.332 . S
N74 C79 1.332 . S
C75 C76 1.386 . S
C75 C78 1.388 . S
C76 C75 1.386 . S
C76 C77 1.382 . S
C76 H102 0.950 . S
C77 N74 1.332 . S
C77 C76 1.382 . S
C77 H88 0.952 . S
C78 C75 1.388 . S
C78 C79 1.382 . S
C78 H103 0.950 . S
C79 N74 1.332 . S
C79 C78 1.382 . S
C79 H89 0.948 . S
N80 Co58 2.282 1_655 S
N80 C84 1.332 . S
N80 C85 1.332 . S
C81 C82 1.388 . S
C81 C85 1.382 . S
C81 H104 0.950 . S
C82 C81 1.388 . S
C82 C83 1.386 . S
C83 C82 1.386 . S
C83 C84 1.382 . S
C83 H105 0.950 . S
C84 N80 1.332 . S
C84 C83 1.382 . S
C84 H86 0.952 . S
C85 N80 1.332 . S
C85 C81 1.382 . S
C85 H87 0.948 1_655 S
H86 C84 0.952 . S
H87 C85 0.948 1_455 S
H88 C77 0.952 . S
H89 C79 0.948 . S
C90 C56 1.395 . S
C90 C60 1.391 . S
C91 C53 1.389 . S
C91 C73 1.392 . S
C92 C63 1.392 . S
C92 C65 1.389 . S
C93 C68 1.395 . S
C93 C70 1.391 . S
H94 C54 0.951 . S
H95 C55 0.950 . S
H96 C61 0.949 . S
H97 C62 0.950 . S
H98 C66 0.951 . S
H99 C67 0.950 . S
H100 C71 0.949 . S
H101 C72 0.950 . S
H102 C76 0.950 . S
H103 C78 0.950 . S
H104 C81 0.950 . S
H105 C83 0.950 . S
C106 C107 1.443 . S
C106 N110 1.376 1_565 S
C106 C144 1.389 . S
C107 C106 1.443 . S
C107 C108 1.337 1_565 S
C107 H147 0.951 . S
C108 C107 1.337 1_545 S
C108 C109 1.442 . S
C108 H148 0.951 . S
C109 C108 1.442 . S
C109 N110 1.374 . S
C109 C143 1.395 . S
N110 C106 1.376 1_545 S
N110 C109 1.374 . S
N110 Co111 2.008 . S
Co111 N110 2.008 . S
Co111 N112 1.995 . S
Co111 N117 2.008 . S
Co111 N122 2.029 . S
Co111 N127 2.282 1_545 S
Co111 N133 2.282 . S
N112 Co111 1.995 . S
N112 C113 1.376 . S
N112 C116 1.383 . S
C113 N112 1.376 . S
C113 C114 1.446 . S
C113 C143 1.391 . S
C114 C113 1.446 . S
C114 C115 1.339 . S
C114 H149 0.949 . S
C115 C114 1.339 . S
C115 C116 1.439 . S
C115 H150 0.950 . S
C116 N112 1.383 . S
C116 C115 1.439 . S
C116 C145 1.392 . S
N117 Co111 2.008 . S
N117 C118 1.376 . S
N117 C121 1.374 . S
C118 N117 1.376 . S
C118 C119 1.443 . S
C118 C145 1.389 . S
C119 C118 1.443 . S
C119 C120 1.340 . S
C119 H151 0.951 . S
C120 C119 1.340 . S
C120 C121 1.439 . S
C120 H152 0.950 . S
C121 N117 1.374 . S
C121 C120 1.439 . S
C121 C146 1.395 . S
N122 Co111 2.029 . S
N122 C123 1.377 . S
N122 C126 1.345 1_545 S
C123 N122 1.377 . S
C123 C124 1.414 1_545 S
C123 C146 1.425 . S
C124 C123 1.414 1_565 S
C124 C125 1.339 . S
C124 H153 0.949 . S
C125 C124 1.339 . S
C125 C126 1.439 . S
C125 H154 0.950 . S
C126 N122 1.345 1_565 S
C126 C125 1.439 . S
C126 C144 1.392 . S
N127 Co111 2.282 1_565 S
N127 C130 1.332 . S
N127 C132 1.332 . S
C128 C129 1.386 . S
C128 C131 1.388 . S
C129 C128 1.386 . S
C129 C130 1.382 . S
C129 H155 0.950 . S
C130 N127 1.332 . S
C130 C129 1.382 . S
C130 H141 0.952 . S
C131 C128 1.388 . S
C131 C132 1.382 . S
C131 H156 0.950 . S
C132 N127 1.332 . S
C132 C131 1.382 . S
C132 H142 0.948 . S
N133 Co111 2.282 . S
N133 C137 1.332 . S
N133 C138 1.332 . S
C134 C135 1.388 . S
C134 C138 1.382 . S
C134 H157 0.950 . S
C135 C134 1.388 . S
C135 C136 1.386 . S
C136 C135 1.386 . S
C136 C137 1.382 . S
C136 H158 0.950 . S
C137 N133 1.332 . S
C137 C136 1.382 . S
C137 H139 0.952 . S
C138 N133 1.332 . S
C138 C134 1.382 . S
C138 H140 0.948 . S
H139 C137 0.952 . S
H140 C138 0.948 . S
H141 C130 0.952 . S
H142 C132 0.948 . S
C143 C109 1.395 . S
C143 C113 1.391 . S
C144 C106 1.389 . S
C144 C126 1.392 . S
C145 C116 1.392 . S
C145 C118 1.389 . S
C146 C121 1.395 . S
C146 C123 1.425 . S
H147 C107 0.951 . S
H148 C108 0.951 . S
H149 C114 0.949 . S
H150 C115 0.950 . S
H151 C119 0.951 . S
H152 C120 0.950 . S
H153 C124 0.949 . S
H154 C125 0.950 . S
H155 C129 0.950 . S
H156 C131 0.950 . S
H157 C134 0.950 . S
H158 C136 0.950 . S
C159 C160 1.443 . S
C159 N163 1.376 . S
C159 C197 1.389 . S
C160 C159 1.443 . S
C160 C161 1.340 . S
C160 H200 0.951 . S
C161 C160 1.340 . S
C161 C162 1.439 . S
C161 H201 0.950 . S
C162 C161 1.439 . S
C162 N163 1.374 . S
C162 C196 1.395 1_655 S
N163 C159 1.376 . S
N163 C162 1.374 . S
N163 Co164 2.003 1_655 S
Co164 N163 2.003 1_455 S
Co164 N165 2.002 . S
Co164 N170 2.014 . S
Co164 N175 1.987 1_455 S
Co164 N180 2.272 1_455 S
Co164 N186 2.293 . S
N165 Co164 2.002 . S
N165 C166 1.376 . S
N165 C169 1.383 . S
C166 N165 1.376 . S
C166 C167 1.446 . S
C166 C196 1.391 . S
C167 C166 1.446 . S
C167 C168 1.339 . S
C167 H202 0.949 . S
C168 C167 1.339 . S
C168 C169 1.439 . S
C168 H203 0.950 . S
C169 N165 1.383 . S
C169 C168 1.439 . S
C169 C198 1.392 . S
N170 Co164 2.014 . S
N170 C171 1.376 . S
N170 C174 1.374 . S
C171 N170 1.376 . S
C171 C172 1.443 . S
C171 C198 1.389 . S
C172 C171 1.443 . S
C172 C173 1.340 . S
C172 H204 0.951 . S
C173 C172 1.340 . S
C173 C174 1.439 . S
C173 H205 0.950 . S
C174 N170 1.374 . S
C174 C173 1.439 . S
C174 C199 1.395 1_455 S
N175 Co164 1.987 1_655 S
N175 C176 1.376 . S
N175 C179 1.383 . S
C176 N175 1.376 . S
C176 C177 1.446 . S
C176 C199 1.391 . S
C177 C176 1.446 . S
C177 C178 1.339 . S
C177 H206 0.949 . S
C178 C177 1.339 . S
C178 C179 1.439 . S
C178 H207 0.950 . S
C179 N175 1.383 . S
C179 C178 1.439 . S
C179 C197 1.392 . S
N180 Co164 2.272 1_655 S
N180 C183 1.332 . S
N180 C185 1.332 . S
C181 C182 1.386 . S
C181 C184 1.388 . S
C182 C181 1.386 . S
C182 C183 1.382 . S
C182 H208 0.950 . S
C183 N180 1.332 . S
C183 C182 1.382 . S
C183 H194 0.952 . S
C184 C181 1.388 . S
C184 C185 1.382 . S
C184 H209 0.950 . S
C185 N180 1.332 . S
C185 C184 1.382 . S
C185 H195 0.948 . S
N186 Co164 2.293 . S
N186 C190 1.332 . S
N186 C191 1.332 . S
C187 C188 1.388 . S
C187 C191 1.382 . S
C187 H210 0.950 . S
C188 C187 1.388 . S
C188 C189 1.386 . S
C189 C188 1.386 . S
C189 C190 1.382 . S
C189 H211 0.950 . S
C190 N186 1.332 . S
C190 C189 1.382 . S
C190 H192 0.952 . S
C191 N186 1.332 . S
C191 C187 1.382 . S
C191 H193 0.948 . S
H192 C190 0.952 . S
H193 C191 0.948 . S
H194 C183 0.952 . S
H195 C185 0.948 . S
C196 C162 1.395 1_455 S
C196 C166 1.391 . S
C197 C159 1.389 . S
C197 C179 1.392 . S
C198 C169 1.392 . S
C198 C171 1.389 . S
C199 C174 1.395 1_655 S
C199 C176 1.391 . S
H200 C160 0.951 . S
H201 C161 0.950 . S
H202 C167 0.949 . S
H203 C168 0.950 . S
H204 C172 0.951 . S
H205 C173 0.950 . S
H206 C177 0.949 . S
H207 C178 0.950 . S
H208 C182 0.950 . S
H209 C184 0.950 . S
H210 C187 0.950 . S
H211 C189 0.950 . S
C212 C213 1.443 . S
C212 N216 1.376 . S
C212 C250 1.389 . S
C213 C212 1.443 . S
C213 C214 1.340 . S
C213 H253 0.951 . S
C214 C213 1.340 . S
C214 C215 1.439 . S
C214 H254 0.950 . S
C215 C214 1.439 . S
C215 N216 1.374 . S
C215 C249 1.395 1_565 S
N216 C212 1.376 . S
N216 C215 1.374 . S
N216 Co217 2.008 1_565 S
Co217 N216 2.008 1_545 S
Co217 N218 1.995 . S
Co217 N223 2.008 . S
Co217 N228 1.995 1_545 S
Co217 N233 2.282 1_545 S
Co217 N239 2.282 . S
N218 Co217 1.995 . S
N218 C219 1.376 . S
N218 C222 1.383 . S
C219 N218 1.376 . S
C219 C220 1.446 . S
C219 C249 1.391 . S
C220 C219 1.446 . S
C220 C221 1.339 . S
C220 H255 0.949 . S
C221 C220 1.339 . S
C221 C222 1.439 . S
C221 H256 0.950 . S
C222 N218 1.383 . S
C222 C221 1.439 . S
C222 C251 1.392 . S
N223 Co217 2.008 . S
N223 C224 1.376 . S
N223 C227 1.374 . S
C224 N223 1.376 . S
C224 C225 1.443 . S
C224 C251 1.389 . S
C225 C224 1.443 . S
C225 C226 1.340 . S
C225 H257 0.951 . S
C226 C225 1.340 . S
C226 C227 1.439 . S
C226 H258 0.950 . S
C227 N223 1.374 . S
C227 C226 1.439 . S
C227 C252 1.395 . S
N228 Co217 1.995 1_565 S
N228 C229 1.376 . S
N228 C232 1.383 . S
C229 N228 1.376 . S
C229 C230 1.446 . S
C229 C252 1.391 1_565 S
C230 C229 1.446 . S
C230 C231 1.339 . S
C230 H259 0.949 . S
C231 C230 1.339 . S
C231 C232 1.439 . S
C231 H260 0.950 . S
C232 N228 1.383 . S
C232 C231 1.439 . S
C232 C250 1.392 . S
N233 Co217 2.282 1_565 S
N233 C236 1.332 . S
N233 C238 1.332 . S
C234 C235 1.386 . S
C234 C237 1.388 . S
C235 C234 1.386 . S
C235 C236 1.382 . S
C235 H261 0.950 . S
C236 N233 1.332 . S
C236 C235 1.382 . S
C236 H247 0.952 . S
C237 C234 1.388 . S
C237 C238 1.382 . S
C237 H262 0.950 . S
C238 N233 1.332 . S
C238 C237 1.382 . S
C238 H248 0.948 . S
N239 Co217 2.282 . S
N239 C243 1.332 . S
N239 C244 1.332 . S
C240 C241 1.388 . S
C240 C244 1.382 . S
C240 H263 0.950 . S
C241 C240 1.388 . S
C241 C242 1.386 . S
C242 C241 1.386 . S
C242 C243 1.382 . S
C242 H264 0.950 . S
C243 N239 1.332 . S
C243 C242 1.382 . S
C243 H245 0.952 . S
C244 N239 1.332 . S
C244 C240 1.382 . S
C244 H246 0.948 . S
H245 C243 0.952 . S
H246 C244 0.948 . S
H247 C236 0.952 . S
H248 C238 0.948 . S
C249 C215 1.395 1_545 S
C249 C219 1.391 . S
C250 C212 1.389 . S
C250 C232 1.392 . S
C251 C222 1.392 . S
C251 C224 1.389 . S
C252 C227 1.395 . S
C252 C229 1.391 1_545 S
H253 C213 0.951 . S
H254 C214 0.950 . S
H255 C220 0.949 . S
H256 C221 0.950 . S
H257 C225 0.951 . S
H258 C226 0.950 . S
H259 C230 0.949 . S
H260 C231 0.950 . S
H261 C235 0.950 . S
H262 C237 0.950 . S
H263 C240 0.950 . S
H264 C242 0.950 . S
C265 C266 1.443 . S
C265 N269 1.376 1_655 S
C265 C303 1.389 . S
C266 C265 1.443 . S
C266 C267 1.340 1_655 S
C266 H306 0.951 . S
C267 C266 1.340 1_455 S
C267 C268 1.439 . S
C267 H307 0.950 . S
C268 C267 1.439 . S
C268 N269 1.374 . S
C268 C302 1.395 . S
N269 C265 1.376 1_455 S
N269 C268 1.374 . S
N269 Co270 2.008 . S
Co270 N269 2.008 . S
Co270 N271 1.995 . S
Co270 N276 2.008 . S
Co270 N281 1.995 . S
Co270 N286 2.282 1_455 S
Co270 N292 2.282 . S
N271 Co270 1.995 . S
N271 C272 1.376 . S
N271 C275 1.383 . S
C272 N271 1.376 . S
C272 C273 1.446 . S
C272 C302 1.391 . S
C273 C272 1.446 . S
C273 C274 1.339 . S
C273 H308 0.949 . S
C274 C273 1.339 . S
C274 C275 1.439 . S
C274 H309 0.950 . S
C275 N271 1.383 . S
C275 C274 1.439 . S
C275 C304 1.392 . S
N276 Co270 2.008 . S
N276 C277 1.376 . S
N276 C280 1.374 . S
C277 N276 1.376 . S
C277 C278 1.443 . S
C277 C304 1.389 . S
C278 C277 1.443 . S
C278 C279 1.340 . S
C278 H310 0.951 . S
C279 C278 1.340 . S
C279 C280 1.439 . S
C279 H311 0.950 . S
C280 N276 1.374 . S
C280 C279 1.439 . S
C280 C305 1.395 . S
N281 Co270 1.995 . S
N281 C282 1.376 . S
N281 C285 1.383 1_455 S
C282 N281 1.376 . S
C282 C283 1.446 1_455 S
C282 C305 1.391 . S
C283 C282 1.446 1_655 S
C283 C284 1.339 . S
C283 H312 0.949 . S
C284 C283 1.339 . S
C284 C285 1.439 . S
C284 H313 0.950 . S
C285 N281 1.383 1_655 S
C285 C284 1.439 . S
C285 C303 1.392 . S
N286 Co270 2.282 1_655 S
N286 C289 1.332 . S
N286 C291 1.332 . S
C287 C288 1.386 . S
C287 C290 1.388 . S
C288 C287 1.386 . S
C288 C289 1.382 . S
C288 H314 0.950 . S
C289 N286 1.332 . S
C289 C288 1.382 . S
C289 H300 0.952 . S
C290 C287 1.388 . S
C290 C291 1.382 . S
C290 H315 0.950 . S
C291 N286 1.332 . S
C291 C290 1.382 . S
C291 H301 0.948 1_655 S
N292 Co270 2.282 . S
N292 C296 1.332 . S
N292 C297 1.332 . S
C293 C294 1.388 . S
C293 C297 1.382 . S
C293 H316 0.950 . S
C294 C293 1.388 . S
C294 C295 1.386 . S
C295 C294 1.386 . S
C295 C296 1.382 . S
C295 H317 0.950 . S
C296 N292 1.332 . S
C296 C295 1.382 . S
C296 H298 0.952 . S
C297 N292 1.332 . S
C297 C293 1.382 . S
C297 H299 0.948 . S
H298 C296 0.952 . S
H299 C297 0.948 . S
H300 C289 0.952 . S
H301 C291 0.948 1_455 S
C302 C268 1.395 . S
C302 C272 1.391 . S
C303 C265 1.389 . S
C303 C285 1.392 . S
C304 C275 1.392 . S
C304 C277 1.389 . S
C305 C280 1.395 . S
C305 C282 1.391 . S
H306 C266 0.951 . S
H307 C267 0.950 . S
H308 C273 0.949 . S
H309 C274 0.950 . S
H310 C278 0.951 . S
H311 C279 0.950 . S
H312 C283 0.949 . S
H313 C284 0.950 . S
H314 C288 0.950 . S
H315 C290 0.950 . S
H316 C293 0.950 . S
H317 C295 0.950 . S
C318 C319 1.443 . S
C318 N322 1.376 . S
C318 C356 1.389 . S
C319 C318 1.443 . S
C319 C320 1.340 . S
C319 H359 0.951 . S
C320 C319 1.340 . S
C320 C321 1.439 . S
C320 H360 0.950 . S
C321 C320 1.439 . S
C321 N322 1.374 . S
C321 C355 1.409 . S
N322 C318 1.376 . S
N322 C321 1.374 . S
N322 Co323 2.008 . S
Co323 N322 2.008 . S
Co323 N324 1.995 1_545 S
Co323 N329 2.008 1_545 S
Co323 N334 1.995 . S
Co323 N339 2.282 . S
Co323 N345 2.282 1_545 S
N324 Co323 1.995 1_565 S
N324 C325 1.376 . S
N324 C328 1.383 . S
C325 N324 1.376 . S
C325 C326 1.446 . S
C325 C355 1.380 1_565 S
C326 C325 1.446 . S
C326 C327 1.339 . S
C326 H361 0.949 . S
C327 C326 1.339 . S
C327 C328 1.439 . S
C327 H362 0.950 . S
C328 N324 1.383 . S
C328 C327 1.439 . S
C328 C357 1.392 . S
N329 Co323 2.008 1_565 S
N329 C330 1.376 . S
N329 C333 1.374 . S
C330 N329 1.376 . S
C330 C331 1.443 . S
C330 C357 1.389 . S
C331 C330 1.443 . S
C331 C332 1.340 . S
C331 H363 0.951 . S
C332 C331 1.340 . S
C332 C333 1.439 . S
C332 H364 0.950 . S
C333 N329 1.374 . S
C333 C332 1.439 . S
C333 C358 1.395 1_565 S
N334 Co323 1.995 . S
N334 C335 1.376 . S
N334 C338 1.383 . S
C335 N334 1.376 . S
C335 C336 1.446 . S
C335 C358 1.391 . S
C336 C335 1.446 . S
C336 C337 1.339 . S
C336 H365 0.949 . S
C337 C336 1.339 . S
C337 C338 1.439 . S
C337 H366 0.950 . S
C338 N334 1.383 . S
C338 C337 1.439 . S
C338 C356 1.392 . S
N339 Co323 2.282 . S
N339 C342 1.332 . S
N339 C344 1.332 . S
C340 C341 1.386 . S
C340 C343 1.388 . S
C341 C340 1.386 . S
C341 C342 1.382 . S
C341 H367 0.950 . S
C342 N339 1.332 . S
C342 C341 1.382 . S
C342 H353 0.952 . S
C343 C340 1.388 . S
C343 C344 1.382 . S
C343 H368 0.950 . S
C344 N339 1.332 . S
C344 C343 1.382 . S
C344 H354 0.948 . S
N345 Co323 2.282 1_565 S
N345 C349 1.332 . S
N345 C350 1.332 . S
C346 C347 1.388 . S
C346 C350 1.382 . S
C346 H369 0.950 . S
C347 C346 1.388 . S
C347 C348 1.386 . S
C348 C347 1.386 . S
C348 C349 1.382 . S
C348 H370 0.950 . S
C349 N345 1.332 . S
C349 C348 1.382 . S
C349 H351 0.952 . S
C350 N345 1.332 . S
C350 C346 1.382 . S
C350 H352 0.948 . S
H351 C349 0.952 . S
H352 C350 0.948 . S
H353 C342 0.952 . S
H354 C344 0.948 . S
C355 C321 1.409 . S
C355 C325 1.380 1_545 S
C356 C318 1.389 . S
C356 C338 1.392 . S
C357 C328 1.392 . S
C357 C330 1.389 . S
C358 C333 1.395 1_545 S
C358 C335 1.391 . S
H359 C319 0.951 . S
H360 C320 0.950 . S
H361 C326 0.949 . S
H362 C327 0.950 . S
H363 C331 0.951 . S
H364 C332 0.950 . S
H365 C336 0.949 . S
H366 C337 0.950 . S
H367 C341 0.950 . S
H368 C343 0.950 . S
H369 C346 0.950 . S
H370 C348 0.950 . S
C371 C372 1.443 . S
C371 N375 1.376 1_655 S
C371 C409 1.389 . S
C372 C371 1.443 . S
C372 C373 1.353 . S
C372 H412 0.951 . S
C373 C372 1.353 . S
C373 C374 1.427 1_655 S
C373 H413 0.951 . S
C374 C373 1.427 1_455 S
C374 N375 1.374 . S
C374 C408 1.395 . S
N375 C371 1.376 1_455 S
N375 C374 1.374 . S
N375 Co376 2.008 . S
Co376 N375 2.008 . S
Co376 N377 1.995 . S
Co376 N382 2.008 . S
Co376 N387 1.995 . S
Co376 N392 2.282 1_455 S
Co376 N398 2.282 . S
N377 Co376 1.995 . S
N377 C378 1.376 . S
N377 C381 1.383 . S
C378 N377 1.376 . S
C378 C379 1.446 . S
C378 C408 1.391 . S
C379 C378 1.446 . S
C379 C380 1.339 . S
C379 H414 0.949 . S
C380 C379 1.339 . S
C380 C381 1.439 . S
C380 H415 0.950 . S
C381 N377 1.383 . S
C381 C380 1.439 . S
C381 C410 1.392 . S
N382 Co376 2.008 . S
N382 C383 1.376 . S
N382 C386 1.374 . S
C383 N382 1.376 . S
C383 C384 1.443 . S
C383 C410 1.389 . S
C384 C383 1.443 . S
C384 C385 1.340 . S
C384 H416 0.951 . S
C385 C384 1.340 . S
C385 C386 1.439 . S
C385 H417 0.950 . S
C386 N382 1.374 . S
C386 C385 1.439 . S
C386 C411 1.395 . S
N387 Co376 1.995 . S
N387 C388 1.376 . S
N387 C391 1.383 1_455 S
C388 N387 1.376 . S
C388 C389 1.446 1_455 S
C388 C411 1.391 . S
C389 C388 1.446 1_655 S
C389 C390 1.339 . S
C389 H418 0.949 . S
C390 C389 1.339 . S
C390 C391 1.439 . S
C390 H419 0.950 . S
C391 N387 1.383 1_655 S
C391 C390 1.439 . S
C391 C409 1.392 . S
N392 Co376 2.282 1_655 S
N392 C395 1.332 . S
N392 C397 1.332 . S
C393 C394 1.386 . S
C393 C396 1.388 . S
C394 C393 1.386 . S
C394 C395 1.382 . S
C394 H420 0.950 . S
C395 N392 1.332 . S
C395 C394 1.382 . S
C395 H406 0.952 . S
C396 C393 1.388 . S
C396 C397 1.382 . S
C396 H421 0.950 . S
C397 N392 1.332 . S
C397 C396 1.382 . S
C397 H407 0.950 . S
N398 Co376 2.282 . S
N398 C402 1.332 . S
N398 C403 1.332 . S
C399 C400 1.388 . S
C399 C403 1.382 . S
C399 H422 0.950 . S
C400 C399 1.388 . S
C400 C401 1.386 . S
C401 C400 1.386 . S
C401 C402 1.382 . S
C401 H423 0.950 . S
C402 N398 1.332 . S
C402 C401 1.382 . S
C402 H404 0.952 . S
C403 N398 1.332 . S
C403 C399 1.382 . S
C403 H405 0.948 . S
H404 C402 0.952 . S
H405 C403 0.948 . S
H406 C395 0.952 . S
H407 C397 0.950 . S
C408 C374 1.395 . S
C408 C378 1.391 . S
C409 C371 1.389 . S
C409 C391 1.392 . S
C410 C381 1.392 . S
C410 C383 1.389 . S
C411 C386 1.395 . S
C411 C388 1.391 . S
H412 C372 0.951 . S
H413 C373 0.951 . S
H414 C379 0.949 . S
H415 C380 0.950 . S
H416 C384 0.951 . S
H417 C385 0.950 . S
H418 C389 0.949 . S
H419 C390 0.950 . S
H420 C394 0.950 . S
H421 C396 0.950 . S
H422 C399 0.950 . S
H423 C401 0.950 . S
C424 C425 1.443 . S
C424 N428 1.376 . S
C424 C462 1.389 . S
C425 C424 1.443 . S
C425 C426 1.340 . S
C425 H465 0.951 . S
C426 C425 1.340 . S
C426 C427 1.439 . S
C426 H466 0.950 . S
C427 C426 1.439 . S
C427 N428 1.374 . S
C427 C461 1.395 1_554 S
N428 C424 1.376 . S
N428 C427 1.374 . S
N428 Co429 2.020 . S
Co429 N428 2.020 . S
Co429 N430 1.980 1_554 S
Co429 N435 1.997 1_554 S
Co429 N440 2.010 . S
Co429 N445 2.301 . S
Co429 N451 2.264 1_554 S
N430 Co429 1.980 1_556 S
N430 C431 1.376 . S
N430 C434 1.383 . S
C431 N430 1.376 . S
C431 C432 1.446 . S
C431 C461 1.391 . S
C432 C431 1.446 . S
C432 C433 1.339 . S
C432 H467 0.949 . S
C433 C432 1.339 . S
C433 C434 1.439 . S
C433 H468 0.950 . S
C434 N430 1.383 . S
C434 C433 1.439 . S
C434 C463 1.392 . S
N435 Co429 1.997 1_556 S
N435 C436 1.376 . S
N435 C439 1.374 . S
C436 N435 1.376 . S
C436 C437 1.443 . S
C436 C463 1.389 . S
C437 C436 1.443 . S
C437 C438 1.340 . S
C437 H469 0.951 . S
C438 C437 1.340 . S
C438 C439 1.439 . S
C438 H470 0.950 . S
C439 N435 1.374 . S
C439 C438 1.439 . S
C439 C464 1.395 1_556 S
N440 Co429 2.010 . S
N440 C441 1.376 . S
N440 C444 1.383 . S
C441 N440 1.376 . S
C441 C442 1.446 . S
C441 C464 1.391 . S
C442 C441 1.446 . S
C442 C443 1.339 . S
C442 H471 0.949 . S
C443 C442 1.339 . S
C443 C444 1.439 . S
C443 H472 0.950 . S
C444 N440 1.383 . S
C444 C443 1.439 . S
C444 C462 1.392 . S
N445 Co429 2.301 . S
N445 C448 1.332 . S
N445 C450 1.332 . S
C446 C447 1.386 . S
C446 C449 1.388 . S
C447 C446 1.386 . S
C447 C448 1.382 . S
C447 H473 0.950 . S
C448 N445 1.332 . S
C448 C447 1.382 . S
C448 H459 0.952 . S
C449 C446 1.388 . S
C449 C450 1.382 . S
C449 H474 0.950 . S
C450 N445 1.332 . S
C450 C449 1.382 . S
C450 H460 0.948 . S
N451 Co429 2.264 1_556 S
N451 C455 1.332 . S
N451 C456 1.332 . S
C452 C453 1.388 . S
C452 C456 1.382 . S
C452 H475 0.950 . S
C453 C452 1.388 . S
C453 C454 1.386 . S
C454 C453 1.386 . S
C454 C455 1.382 . S
C454 H476 0.950 . S
C455 N451 1.332 . S
C455 C454 1.382 . S
C455 H457 0.952 . S
C456 N451 1.332 . S
C456 C452 1.382 . S
C456 H458 0.948 . S
H457 C455 0.952 . S
H458 C456 0.948 . S
H459 C448 0.952 . S
H460 C450 0.948 . S
C461 C427 1.395 1_556 S
C461 C431 1.391 . S
C462 C424 1.389 . S
C462 C444 1.392 . S
C463 C434 1.392 . S
C463 C436 1.389 . S
C464 C439 1.395 1_554 S
C464 C441 1.391 . S
H465 C425 0.951 . S
H466 C426 0.950 . S
H467 C432 0.949 . S
H468 C433 0.950 . S
H469 C437 0.951 . S
H470 C438 0.950 . S
H471 C442 0.949 . S
H472 C443 0.950 . S
H473 C447 0.950 . S
H474 C449 0.950 . S
H475 C452 0.950 . S
H476 C454 0.950 . S
C477 C478 1.443 . S
C477 N481 1.376 . S
C477 C515 1.389 . S
C478 C477 1.443 . S
C478 C479 1.340 . S
C478 H518 0.951 . S
C479 C478 1.340 . S
C479 C480 1.439 . S
C479 H519 0.950 . S
C480 C479 1.439 . S
C480 N481 1.374 . S
C480 C514 1.395 . S
N481 C477 1.376 . S
N481 C480 1.374 . S
N481 Co482 2.008 . S
Co482 N481 2.008 . S
Co482 N483 2.009 . S
Co482 N488 2.008 . S
Co482 N493 1.995 . S
Co482 N498 2.282 . S
Co482 N504 2.282 1_554 S
N483 Co482 2.009 . S
N483 C484 1.378 . S
N483 C487 1.366 1_554 S
C484 N483 1.378 . S
C484 C485 1.446 1_554 S
C484 C514 1.391 . S
C485 C484 1.446 1_556 S
C485 C486 1.339 . S
C485 H520 0.949 . S
C486 C485 1.339 . S
C486 C487 1.439 . S
C486 H521 0.950 . S
C487 N483 1.366 1_556 S
C487 C486 1.439 . S
C487 C516 1.392 . S
N488 Co482 2.008 . S
N488 C489 1.376 1_554 S
N488 C492 1.374 . S
C489 N488 1.376 1_556 S
C489 C490 1.443 . S
C489 C516 1.389 . S
C490 C489 1.443 . S
C490 C491 1.340 . S
C490 H522 0.951 . S
C491 C490 1.340 . S
C491 C492 1.439 1_556 S
C491 H523 0.950 . S
C492 N488 1.374 . S
C492 C491 1.439 1_554 S
C492 C517 1.395 . S
N493 Co482 1.995 . S
N493 C494 1.376 . S
N493 C497 1.383 . S
C494 N493 1.376 . S
C494 C495 1.446 . S
C494 C517 1.391 . S
C495 C494 1.446 . S
C495 C496 1.339 . S
C495 H524 0.949 . S
C496 C495 1.339 . S
C496 C497 1.439 . S
C496 H525 0.950 . S
C497 N493 1.383 . S
C497 C496 1.439 . S
C497 C515 1.392 . S
N498 Co482 2.282 . S
N498 C501 1.332 . S
N498 C503 1.332 . S
C499 C500 1.386 . S
C499 C502 1.388 . S
C500 C499 1.386 . S
C500 C501 1.382 . S
C500 H526 0.950 . S
C501 N498 1.332 . S
C501 C500 1.382 . S
C501 H512 0.952 . S
C502 C499 1.388 . S
C502 C503 1.382 . S
C502 H527 0.950 . S
C503 N498 1.332 . S
C503 C502 1.382 . S
C503 H513 0.948 . S
N504 Co482 2.282 1_556 S
N504 C508 1.332 . S
N504 C509 1.332 . S
C505 C506 1.388 . S
C505 C509 1.382 . S
C505 H528 0.950 . S
C506 C505 1.388 . S
C506 C507 1.386 . S
C507 C506 1.386 . S
C507 C508 1.382 . S
C507 H529 0.950 . S
C508 N504 1.332 . S
C508 C507 1.382 . S
C508 H510 0.952 . S
C509 N504 1.332 . S
C509 C505 1.382 . S
C509 H511 0.948 . S
H510 C508 0.952 . S
H511 C509 0.948 . S
H512 C501 0.952 . S
H513 C503 0.948 . S
C514 C480 1.395 . S
C514 C484 1.391 . S
C515 C477 1.389 . S
C515 C497 1.392 . S
C516 C487 1.392 . S
C516 C489 1.389 . S
C517 C492 1.395 . S
C517 C494 1.391 . S
H518 C478 0.951 . S
H519 C479 0.950 . S
H520 C485 0.949 . S
H521 C486 0.950 . S
H522 C490 0.951 . S
H523 C491 0.950 . S
H524 C495 0.949 . S
H525 C496 0.950 . S
H526 C500 0.950 . S
H527 C502 0.950 . S
H528 C505 0.950 . S
H529 C507 0.950 . S
C530 C531 1.443 . S
C530 N534 1.376 . S
C530 C568 1.389 . S
C531 C530 1.443 . S
C531 C532 1.340 . S
C531 H571 0.951 . S
C532 C531 1.340 . S
C532 C533 1.439 . S
C532 H572 0.950 . S
C533 C532 1.439 . S
C533 N534 1.374 . S
C533 C567 1.395 . S
N534 C530 1.376 . S
N534 C533 1.374 . S
N534 Co535 2.008 . S
Co535 N534 2.008 . S
Co535 N536 1.995 . S
Co535 N541 2.008 . S
Co535 N546 1.995 . S
Co535 N551 2.282 . S
Co535 N557 2.316 . S
N536 Co535 1.995 . S
N536 C537 1.376 . S
N536 C540 1.383 1_554 S
C537 N536 1.376 . S
C537 C538 1.446 1_554 S
C537 C567 1.391 . S
C538 C537 1.446 1_556 S
C538 C539 1.339 . S
C538 H573 0.949 . S
C539 C538 1.339 . S
C539 C540 1.439 . S
C539 H574 0.950 . S
C540 N536 1.383 1_556 S
C540 C539 1.439 . S
C540 C569 1.392 . S
N541 Co535 2.008 . S
N541 C542 1.376 . S
N541 C545 1.374 . S
C542 N541 1.376 . S
C542 C543 1.443 . S
C542 C569 1.389 1_554 S
C543 C542 1.443 . S
C543 C544 1.340 . S
C543 H575 0.951 1_554 S
C544 C543 1.340 . S
C544 C545 1.439 . S
C544 H576 0.950 . S
C545 N541 1.374 . S
C545 C544 1.439 . S
C545 C570 1.395 . S
N546 Co535 1.995 . S
N546 C547 1.376 . S
N546 C550 1.383 . S
C547 N546 1.376 . S
C547 C548 1.446 . S
C547 C570 1.391 . S
C548 C547 1.446 . S
C548 C549 1.339 . S
C548 H577 0.949 . S
C549 C548 1.339 . S
C549 C550 1.439 . S
C549 H578 0.950 . S
C550 N546 1.383 . S
C550 C549 1.439 . S
C550 C568 1.392 . S
N551 Co535 2.282 . S
N551 C554 1.332 . S
N551 C556 1.332 . S
C552 C553 1.386 . S
C552 C555 1.388 . S
C553 C552 1.386 . S
C553 C554 1.382 . S
C553 H579 0.950 . S
C554 N551 1.332 . S
C554 C553 1.382 . S
C554 H565 0.952 . S
C555 C552 1.388 . S
C555 C556 1.382 . S
C555 H580 0.950 . S
C556 N551 1.332 . S
C556 C555 1.382 . S
C556 H566 0.948 . S
N557 Co535 2.316 . S
N557 C561 1.309 1_554 S
N557 C562 1.330 . S
C558 C559 1.388 . S
C558 C562 1.372 1_556 S
C558 H581 0.950 . S
C559 C558 1.388 . S
C559 C560 1.386 . S
C560 C559 1.386 . S
C560 C561 1.382 . S
C560 H582 0.950 . S
C561 N557 1.309 1_556 S
C561 C560 1.382 . S
C561 H563 0.952 . S
C562 N557 1.330 . S
C562 C558 1.372 1_554 S
C562 H564 0.957 . S
H563 C561 0.952 . S
H564 C562 0.957 . S
H565 C554 0.952 . S
H566 C556 0.948 . S
C567 C533 1.395 . S
C567 C537 1.391 . S
C568 C530 1.389 . S
C568 C550 1.392 . S
C569 C540 1.392 . S
C569 C542 1.389 1_556 S
C570 C545 1.395 . S
C570 C547 1.391 . S
H571 C531 0.951 . S
H572 C532 0.950 . S
H573 C538 0.949 . S
H574 C539 0.950 . S
H575 C543 0.951 1_556 S
H576 C544 0.950 . S
H577 C548 0.949 . S
H578 C549 0.950 . S
H579 C553 0.950 . S
H580 C555 0.950 . S
H581 C558 0.950 . S
H582 C560 0.950 . S
C583 C584 1.445 . S
C583 N587 1.376 . S
C583 C621 1.389 1_554 S
C584 C583 1.445 . S
C584 C585 1.350 . S
C584 H624 0.942 1_554 S
C585 C584 1.350 . S
C585 C586 1.439 . S
C585 H625 0.950 . S
C586 C585 1.439 . S
C586 N587 1.374 . S
C586 C620 1.395 . S
N587 C583 1.376 . S
N587 C586 1.374 . S
N587 Co588 2.008 . S
Co588 N587 2.008 . S
Co588 N589 1.995 . S
Co588 N594 2.008 . S
Co588 N599 1.995 . S
Co588 N604 2.282 . S
Co588 N610 2.282 . S
N589 Co588 1.995 . S
N589 C590 1.376 . S
N589 C593 1.383 . S
C590 N589 1.376 . S
C590 C591 1.446 . S
C590 C620 1.391 . S
C591 C590 1.446 . S
C591 C592 1.339 . S
C591 H626 0.949 . S
C592 C591 1.339 . S
C592 C593 1.439 . S
C592 H627 0.950 . S
C593 N589 1.383 . S
C593 C592 1.439 . S
C593 C622 1.392 . S
N594 Co588 2.008 . S
N594 C595 1.376 . S
N594 C598 1.374 . S
C595 N594 1.376 . S
C595 C596 1.443 . S
C595 C622 1.389 . S
C596 C595 1.443 . S
C596 C597 1.340 . S
C596 H628 0.951 . S
C597 C596 1.340 . S
C597 C598 1.439 . S
C597 H629 0.950 . S
C598 N594 1.374 . S
C598 C597 1.439 . S
C598 C623 1.395 . S
N599 Co588 1.995 . S
N599 C600 1.376 . S
N599 C603 1.371 1_554 S
C600 N599 1.376 . S
C600 C601 1.446 1_554 S
C600 C623 1.391 . S
C601 C600 1.446 1_556 S
C601 C602 1.339 . S
C601 H630 0.949 . S
C602 C601 1.339 . S
C602 C603 1.447 . S
C602 H631 0.950 . S
C603 N599 1.371 1_556 S
C603 C602 1.447 . S
C603 C621 1.395 . S
N604 Co588 2.282 . S
N604 C607 1.332 1_554 S
N604 C609 1.332 . S
C605 C606 1.386 . S
C605 C608 1.388 . S
C606 C605 1.386 . S
C606 C607 1.382 . S
C606 H632 0.950 . S
C607 N604 1.332 1_556 S
C607 C606 1.382 . S
C607 H618 0.952 . S
C608 C605 1.388 . S
C608 C609 1.382 1_556 S
C608 H633 0.950 . S
C609 N604 1.332 . S
C609 C608 1.382 1_554 S
C609 H619 0.948 . S
N610 Co588 2.282 . S
N610 C614 1.332 . S
N610 C615 1.332 . S
C611 C612 1.388 . S
C611 C615 1.382 . S
C611 H634 0.950 . S
C612 C611 1.388 . S
C612 C613 1.386 . S
C613 C612 1.386 . S
C613 C614 1.382 . S
C613 H635 0.950 . S
C614 N610 1.332 . S
C614 C613 1.382 . S
C614 H616 0.952 . S
C615 N610 1.332 . S
C615 C611 1.382 . S
C615 H617 0.948 . S
H616 C614 0.952 . S
H617 C615 0.948 . S
H618 C607 0.952 . S
H619 C609 0.948 . S
C620 C586 1.395 . S
C620 C590 1.391 . S
C621 C583 1.389 1_556 S
C621 C603 1.395 . S
C622 C593 1.392 . S
C622 C595 1.389 . S
C623 C598 1.395 . S
C623 C600 1.391 . S
H624 C584 0.942 1_556 S
H625 C585 0.950 . S
H626 C591 0.949 . S
H627 C592 0.950 . S
H628 C596 0.951 . S
H629 C597 0.950 . S
H630 C601 0.949 . S
H631 C602 0.950 . S
H632 C606 0.950 . S
H633 C608 0.950 . S
H634 C611 0.950 . S
H635 C613 0.950 . S
C636 C637 1.443 . S
C636 N640 1.376 . S
C636 C674 1.389 . S
C637 C636 1.443 . S
C637 C638 1.340 . S
C637 H677 0.951 . S
C638 C637 1.340 . S
C638 C639 1.439 . S
C638 H678 0.950 . S
C639 C638 1.439 . S
C639 N640 1.374 . S
C639 C673 1.395 . S
N640 C636 1.376 . S
N640 C639 1.374 . S
N640 Co641 2.008 . S
Co641 N640 2.008 . S
Co641 N642 1.995 . S
Co641 N647 2.008 . S
Co641 N652 1.995 . S
Co641 N657 2.282 . S
Co641 N663 2.282 . S
N642 Co641 1.995 . S
N642 C643 1.376 . S
N642 C646 1.383 . S
C643 N642 1.376 . S
C643 C644 1.446 . S
C643 C673 1.391 . S
C644 C643 1.446 . S
C644 C645 1.339 . S
C644 H679 0.949 . S
C645 C644 1.339 . S
C645 C646 1.439 . S
C645 H680 0.950 . S
C646 N642 1.383 . S
C646 C645 1.439 . S
C646 C675 1.392 . S
N647 Co641 2.008 . S
N647 C648 1.376 . S
N647 C651 1.374 . S
C648 N647 1.376 . S
C648 C649 1.443 . S
C648 C675 1.389 . S
C649 C648 1.443 . S
C649 C650 1.340 . S
C649 H681 0.951 . S
C650 C649 1.340 . S
C650 C651 1.439 . S
C650 H682 0.950 . S
C651 N647 1.374 . S
C651 C650 1.439 . S
C651 C676 1.395 . S
N652 Co641 1.995 . S
N652 C653 1.376 . S
N652 C656 1.383 . S
C653 N652 1.376 . S
C653 C654 1.446 . S
C653 C676 1.391 . S
C654 C653 1.446 . S
C654 C655 1.339 . S
C654 H683 0.949 . S
C655 C654 1.339 . S
C655 C656 1.439 . S
C655 H684 0.950 . S
C656 N652 1.383 . S
C656 C655 1.439 . S
C656 C674 1.392 . S
N657 Co641 2.282 . S
N657 C660 1.332 . S
N657 C662 1.332 . S
C658 C659 1.386 . S
C658 C661 1.388 . S
C659 C658 1.386 . S
C659 C660 1.382 . S
C659 H685 0.950 . S
C660 N657 1.332 . S
C660 C659 1.382 . S
C660 H671 0.952 . S
C661 C658 1.388 . S
C661 C662 1.382 . S
C661 H686 0.950 . S
C662 N657 1.332 . S
C662 C661 1.382 . S
C662 H672 0.948 . S
N663 Co641 2.282 . S
N663 C667 1.332 . S
N663 C668 1.332 . S
C664 C665 1.388 . S
C664 C668 1.382 . S
C664 H687 0.950 . S
C665 C664 1.388 . S
C665 C666 1.386 . S
C666 C665 1.386 . S
C666 C667 1.382 . S
C666 H688 0.950 . S
C667 N663 1.332 . S
C667 C666 1.382 . S
C667 H669 0.952 . S
C668 N663 1.332 . S
C668 C664 1.382 . S
C668 H670 0.948 . S
H669 C667 0.952 . S
H670 C668 0.948 . S
H671 C660 0.952 . S
H672 C662 0.948 . S
C673 C639 1.395 . S
C673 C643 1.391 . S
C674 C636 1.389 . S
C674 C656 1.392 . S
C675 C646 1.392 . S
C675 C648 1.389 . S
C676 C651 1.395 . S
C676 C653 1.391 . S
H677 C637 0.951 . S
H678 C638 0.950 . S
H679 C644 0.949 . S
H680 C645 0.950 . S
H681 C649 0.951 . S
H682 C650 0.950 . S
H683 C654 0.949 . S
H684 C655 0.950 . S
H685 C659 0.950 . S
H686 C661 0.950 . S
H687 C664 0.950 . S
H688 C666 0.950 . S
C689 C690 1.443 . S
C689 N693 1.376 . S
C689 C727 1.389 . S
C690 C689 1.443 . S
C690 C691 1.340 . S
C690 H730 0.951 . S
C691 C690 1.340 . S
C691 C692 1.439 . S
C691 H731 0.950 . S
C692 C691 1.439 . S
C692 N693 1.374 . S
C692 C726 1.395 . S
N693 C689 1.376 . S
N693 C692 1.374 . S
N693 Co694 2.008 . S
Co694 N693 2.008 . S
Co694 N695 1.995 . S
Co694 N700 2.008 . S
Co694 N705 1.995 . S
Co694 N710 2.282 . S
Co694 N716 2.282 . S
N695 Co694 1.995 . S
N695 C696 1.376 . S
N695 C699 1.383 . S
C696 N695 1.376 . S
C696 C697 1.446 . S
C696 C726 1.391 . S
C697 C696 1.446 . S
C697 C698 1.339 . S
C697 H732 0.949 . S
C698 C697 1.339 . S
C698 C699 1.439 . S
C698 H733 0.950 . S
C699 N695 1.383 . S
C699 C698 1.439 . S
C699 C728 1.392 . S
N700 Co694 2.008 . S
N700 C701 1.376 . S
N700 C704 1.374 . S
C701 N700 1.376 . S
C701 C702 1.443 . S
C701 C728 1.389 . S
C702 C701 1.443 . S
C702 C703 1.340 . S
C702 H734 0.951 . S
C703 C702 1.340 . S
C703 C704 1.439 . S
C703 H735 0.950 . S
C704 N700 1.374 . S
C704 C703 1.439 . S
C704 C729 1.395 . S
N705 Co694 1.995 . S
N705 C706 1.376 . S
N705 C709 1.383 . S
C706 N705 1.376 . S
C706 C707 1.446 . S
C706 C729 1.391 . S
C707 C706 1.446 . S
C707 C708 1.339 . S
C707 H736 0.949 . S
C708 C707 1.339 . S
C708 C709 1.439 . S
C708 H737 0.950 . S
C709 N705 1.383 . S
C709 C708 1.439 . S
C709 C727 1.392 . S
N710 Co694 2.282 . S
N710 C713 1.332 . S
N710 C715 1.332 . S
C711 C712 1.386 . S
C711 C714 1.388 . S
C712 C711 1.386 . S
C712 C713 1.382 . S
C712 H738 0.950 . S
C713 N710 1.332 . S
C713 C712 1.382 . S
C713 H724 0.952 . S
C714 C711 1.388 . S
C714 C715 1.382 . S
C714 H739 0.950 . S
C715 N710 1.332 . S
C715 C714 1.382 . S
C715 H725 0.948 . S
N716 Co694 2.282 . S
N716 C720 1.332 . S
N716 C721 1.332 . S
C717 C718 1.388 . S
C717 C721 1.382 . S
C717 H740 0.950 . S
C718 C717 1.388 . S
C718 C719 1.386 . S
C719 C718 1.386 . S
C719 C720 1.382 . S
C719 H741 0.950 . S
C720 N716 1.332 . S
C720 C719 1.382 . S
C720 H722 0.952 . S
C721 N716 1.332 . S
C721 C717 1.382 . S
C721 H723 0.948 . S
H722 C720 0.952 . S
H723 C721 0.948 . S
H724 C713 0.952 . S
H725 C715 0.948 . S
C726 C692 1.395 . S
C726 C696 1.391 . S
C727 C689 1.389 . S
C727 C709 1.392 . S
C728 C699 1.392 . S
C728 C701 1.389 . S
C729 C704 1.395 . S
C729 C706 1.391 . S
H730 C690 0.951 . S
H731 C691 0.950 . S
H732 C697 0.949 . S
H733 C698 0.950 . S
H734 C702 0.951 . S
H735 C703 0.950 . S
H736 C707 0.949 . S
H737 C708 0.950 . S
H738 C712 0.950 . S
H739 C714 0.950 . S
H740 C717 0.950 . S
H741 C719 0.950 . S
C742 C743 1.443 . S
C742 N746 1.376 . S
C742 C780 1.389 . S
C743 C742 1.443 . S
C743 C744 1.340 . S
C743 H783 0.951 . S
C744 C743 1.340 . S
C744 C745 1.439 . S
C744 H784 0.950 . S
C745 C744 1.439 . S
C745 N746 1.374 . S
C745 C779 1.395 . S
N746 C742 1.376 . S
N746 C745 1.374 . S
N746 Co747 2.008 . S
Co747 N746 2.008 . S
Co747 N748 1.995 . S
Co747 N753 2.008 . S
Co747 N758 1.995 . S
Co747 N763 2.282 . S
Co747 N769 2.282 . S
N748 Co747 1.995 . S
N748 C749 1.376 . S
N748 C752 1.383 . S
C749 N748 1.376 . S
C749 C750 1.446 . S
C749 C779 1.391 . S
C750 C749 1.446 . S
C750 C751 1.339 . S
C750 H785 0.949 . S
C751 C750 1.339 . S
C751 C752 1.439 . S
C751 H786 0.950 . S
C752 N748 1.383 . S
C752 C751 1.439 . S
C752 C781 1.392 . S
N753 Co747 2.008 . S
N753 C754 1.376 . S
N753 C757 1.374 . S
C754 N753 1.376 . S
C754 C755 1.443 . S
C754 C781 1.389 . S
C755 C754 1.443 . S
C755 C756 1.340 . S
C755 H787 0.951 . S
C756 C755 1.340 . S
C756 C757 1.439 . S
C756 H788 0.950 . S
C757 N753 1.374 . S
C757 C756 1.439 . S
C757 C782 1.395 . S
N758 Co747 1.995 . S
N758 C759 1.376 . S
N758 C762 1.383 . S
C759 N758 1.376 . S
C759 C760 1.446 . S
C759 C782 1.391 . S
C760 C759 1.446 . S
C760 C761 1.339 . S
C760 H789 0.949 . S
C761 C760 1.339 . S
C761 C762 1.439 . S
C761 H790 0.950 . S
C762 N758 1.383 . S
C762 C761 1.439 . S
C762 C780 1.392 . S
N763 Co747 2.282 . S
N763 C766 1.332 . S
N763 C768 1.332 . S
C764 C765 1.386 . S
C764 C767 1.388 . S
C765 C764 1.386 . S
C765 C766 1.382 . S
C765 H791 0.950 . S
C766 N763 1.332 . S
C766 C765 1.382 . S
C766 H777 0.952 . S
C767 C764 1.388 . S
C767 C768 1.382 . S
C767 H792 0.950 . S
C768 N763 1.332 . S
C768 C767 1.382 . S
C768 H778 0.948 . S
N769 Co747 2.282 . S
N769 C773 1.332 . S
N769 C774 1.332 . S
C770 C771 1.388 . S
C770 C774 1.382 . S
C770 H793 0.950 . S
C771 C770 1.388 . S
C771 C772 1.386 . S
C772 C771 1.386 . S
C772 C773 1.382 . S
C772 H794 0.950 . S
C773 N769 1.332 . S
C773 C772 1.382 . S
C773 H775 0.952 . S
C774 N769 1.332 . S
C774 C770 1.382 . S
C774 H776 0.948 . S
H775 C773 0.952 . S
H776 C774 0.948 . S
H777 C766 0.952 . S
H778 C768 0.948 . S
C779 C745 1.395 . S
C779 C749 1.391 . S
C780 C742 1.389 . S
C780 C762 1.392 . S
C781 C752 1.392 . S
C781 C754 1.389 . S
C782 C757 1.395 . S
C782 C759 1.391 . S
H783 C743 0.951 . S
H784 C744 0.950 . S
H785 C750 0.949 . S
H786 C751 0.950 . S
H787 C755 0.951 . S
H788 C756 0.950 . S
H789 C760 0.949 . S
H790 C761 0.950 . S
H791 C765 0.950 . S
H792 C767 0.950 . S
H793 C770 0.950 . S
H794 C772 0.950 . S
C795 C796 1.443 . S
C795 N799 1.376 . S
C795 C833 1.389 . S
C796 C795 1.443 . S
C796 C797 1.340 . S
C796 H836 0.951 . S
C797 C796 1.340 . S
C797 C798 1.439 . S
C797 H837 0.950 . S
C798 C797 1.439 . S
C798 N799 1.374 . S
C798 C832 1.395 . S
N799 C795 1.376 . S
N799 C798 1.374 . S
N799 Co800 2.008 . S
Co800 N799 2.008 . S
Co800 N801 1.995 . S
Co800 N806 2.008 . S
Co800 N811 1.995 . S
Co800 N816 2.282 . S
Co800 N822 2.282 . S
N801 Co800 1.995 . S
N801 C802 1.376 . S
N801 C805 1.383 . S
C802 N801 1.376 . S
C802 C803 1.446 . S
C802 C832 1.391 . S
C803 C802 1.446 . S
C803 C804 1.339 . S
C803 H838 0.949 . S
C804 C803 1.339 . S
C804 C805 1.439 . S
C804 H839 0.950 . S
C805 N801 1.383 . S
C805 C804 1.439 . S
C805 C834 1.392 . S
N806 Co800 2.008 . S
N806 C807 1.376 . S
N806 C810 1.374 . S
C807 N806 1.376 . S
C807 C808 1.443 . S
C807 C834 1.389 . S
C808 C807 1.443 . S
C808 C809 1.340 . S
C808 H840 0.951 . S
C809 C808 1.340 . S
C809 C810 1.439 . S
C809 H841 0.950 . S
C810 N806 1.374 . S
C810 C809 1.439 . S
C810 C835 1.395 . S
N811 Co800 1.995 . S
N811 C812 1.376 . S
N811 C815 1.383 . S
C812 N811 1.376 . S
C812 C813 1.446 . S
C812 C835 1.391 . S
C813 C812 1.446 . S
C813 C814 1.339 . S
C813 H842 0.949 . S
C814 C813 1.339 . S
C814 C815 1.439 . S
C814 H843 0.950 . S
C815 N811 1.383 . S
C815 C814 1.439 . S
C815 C833 1.392 . S
N816 Co800 2.282 . S
N816 C819 1.332 . S
N816 C821 1.332 . S
C817 C818 1.386 . S
C817 C820 1.388 . S
C818 C817 1.386 . S
C818 C819 1.382 . S
C818 H844 0.950 . S
C819 N816 1.332 . S
C819 C818 1.382 . S
C819 H830 0.952 . S
C820 C817 1.388 . S
C820 C821 1.382 . S
C820 H845 0.950 . S
C821 N816 1.332 . S
C821 C820 1.382 . S
C821 H831 0.948 . S
N822 Co800 2.282 . S
N822 C826 1.332 . S
N822 C827 1.332 . S
C823 C824 1.388 . S
C823 C827 1.382 . S
C823 H846 0.950 . S
C824 C823 1.388 . S
C824 C825 1.386 . S
C825 C824 1.386 . S
C825 C826 1.382 . S
C825 H847 0.950 . S
C826 N822 1.332 . S
C826 C825 1.382 . S
C826 H828 0.952 . S
C827 N822 1.332 . S
C827 C823 1.382 . S
C827 H829 0.948 . S
H828 C826 0.952 . S
H829 C827 0.948 . S
H830 C819 0.952 . S
H831 C821 0.948 . S
C832 C798 1.395 . S
C832 C802 1.391 . S
C833 C795 1.389 . S
C833 C815 1.392 . S
C834 C805 1.392 . S
C834 C807 1.389 . S
C835 C810 1.395 . S
C835 C812 1.391 . S
H836 C796 0.951 . S
H837 C797 0.950 . S
H838 C803 0.949 . S
H839 C804 0.950 . S
H840 C808 0.951 . S
H841 C809 0.950 . S
H842 C813 0.949 . S
H843 C814 0.950 . S
H844 C818 0.950 . S
H845 C820 0.950 . S
H846 C823 0.950 . S
H847 C825 0.950 . S
C848 C849 1.443 . S
C848 N852 1.376 . S
C848 C886 1.389 . S
C849 C848 1.443 . S
C849 C850 1.340 . S
C849 H889 0.951 . S
C850 C849 1.340 . S
C850 C851 1.439 . S
C850 H890 0.950 . S
C851 C850 1.439 . S
C851 N852 1.374 . S
C851 C885 1.395 . S
N852 C848 1.376 . S
N852 C851 1.374 . S
N852 Co853 2.008 . S
Co853 N852 2.008 . S
Co853 N854 1.995 . S
Co853 N859 2.008 . S
Co853 N864 1.995 . S
Co853 N869 2.282 . S
Co853 N875 2.282 . S
N854 Co853 1.995 . S
N854 C855 1.376 . S
N854 C858 1.383 . S
C855 N854 1.376 . S
C855 C856 1.446 . S
C855 C885 1.391 . S
C856 C855 1.446 . S
C856 C857 1.339 . S
C856 H891 0.949 . S
C857 C856 1.339 . S
C857 C858 1.439 . S
C857 H892 0.950 . S
C858 N854 1.383 . S
C858 C857 1.439 . S
C858 C887 1.392 . S
N859 Co853 2.008 . S
N859 C860 1.376 . S
N859 C863 1.374 . S
C860 N859 1.376 . S
C860 C861 1.443 . S
C860 C887 1.389 . S
C861 C860 1.443 . S
C861 C862 1.340 . S
C861 H893 0.951 . S
C862 C861 1.340 . S
C862 C863 1.439 . S
C862 H894 0.950 . S
C863 N859 1.374 . S
C863 C862 1.439 . S
C863 C888 1.395 . S
N864 Co853 1.995 . S
N864 C865 1.376 . S
N864 C868 1.383 . S
C865 N864 1.376 . S
C865 C866 1.446 . S
C865 C888 1.391 . S
C866 C865 1.446 . S
C866 C867 1.339 . S
C866 H895 0.949 . S
C867 C866 1.339 . S
C867 C868 1.439 . S
C867 H896 0.950 . S
C868 N864 1.383 . S
C868 C867 1.439 . S
C868 C886 1.392 . S
N869 Co853 2.282 . S
N869 C872 1.332 . S
N869 C874 1.332 . S
C870 C871 1.386 . S
C870 C873 1.388 . S
C871 C870 1.386 . S
C871 C872 1.382 . S
C871 H897 0.950 . S
C872 N869 1.332 . S
C872 C871 1.382 . S
C872 H883 0.952 . S
C873 C870 1.388 . S
C873 C874 1.382 . S
C873 H898 0.950 . S
C874 N869 1.332 . S
C874 C873 1.382 . S
C874 H884 0.948 . S
N875 Co853 2.282 . S
N875 C879 1.332 . S
N875 C880 1.332 . S
C876 C877 1.388 . S
C876 C880 1.382 . S
C876 H899 0.950 . S
C877 C876 1.388 . S
C877 C878 1.386 . S
C878 C877 1.386 . S
C878 C879 1.382 . S
C878 H900 0.950 . S
C879 N875 1.332 . S
C879 C878 1.382 . S
C879 H881 0.952 . S
C880 N875 1.332 . S
C880 C876 1.382 . S
C880 H882 0.948 . S
H881 C879 0.952 . S
H882 C880 0.948 . S
H883 C872 0.952 . S
H884 C874 0.948 . S
C885 C851 1.395 . S
C885 C855 1.391 . S
C886 C848 1.389 . S
C886 C868 1.392 . S
C887 C858 1.392 . S
C887 C860 1.389 . S
C888 C863 1.395 . S
C888 C865 1.391 . S
H889 C849 0.951 . S
H890 C850 0.950 . S
H891 C856 0.949 . S
H892 C857 0.950 . S
H893 C861 0.951 . S
H894 C862 0.950 . S
H895 C866 0.949 . S
H896 C867 0.950 . S
H897 C871 0.950 . S
H898 C873 0.950 . S
H899 C876 0.950 . S
H900 C878 0.950 . S
C901 C902 1.443 . S
C901 N905 1.376 . S
C901 C939 1.389 . S
C902 C901 1.443 . S
C902 C903 1.340 . S
C902 H942 0.951 . S
C903 C902 1.340 . S
C903 C904 1.439 . S
C903 H943 0.950 . S
C904 C903 1.439 . S
C904 N905 1.374 . S
C904 C938 1.395 . S
N905 C901 1.376 . S
N905 C904 1.374 . S
N905 Co906 2.008 . S
Co906 N905 2.008 . S
Co906 N907 1.995 . S
Co906 N912 2.008 . S
Co906 N917 1.995 . S
Co906 N922 2.282 . S
Co906 N928 2.282 . S
N907 Co906 1.995 . S
N907 C908 1.376 . S
N907 C911 1.383 . S
C908 N907 1.376 . S
C908 C909 1.446 . S
C908 C938 1.391 . S
C909 C908 1.446 . S
C909 C910 1.339 . S
C909 H944 0.949 . S
C910 C909 1.339 . S
C910 C911 1.439 . S
C910 H945 0.950 . S
C911 N907 1.383 . S
C911 C910 1.439 . S
C911 C940 1.392 . S
N912 Co906 2.008 . S
N912 C913 1.376 . S
N912 C916 1.374 . S
C913 N912 1.376 . S
C913 C914 1.443 . S
C913 C940 1.389 . S
C914 C913 1.443 . S
C914 C915 1.340 . S
C914 H946 0.951 . S
C915 C914 1.340 . S
C915 C916 1.439 . S
C915 H947 0.950 . S
C916 N912 1.374 . S
C916 C915 1.439 . S
C916 C941 1.395 . S
N917 Co906 1.995 . S
N917 C918 1.376 . S
N917 C921 1.383 . S
C918 N917 1.376 . S
C918 C919 1.446 . S
C918 C941 1.391 . S
C919 C918 1.446 . S
C919 C920 1.339 . S
C919 H948 0.949 . S
C920 C919 1.339 . S
C920 C921 1.439 . S
C920 H949 0.950 . S
C921 N917 1.383 . S
C921 C920 1.439 . S
C921 C939 1.392 . S
N922 Co906 2.282 . S
N922 C925 1.332 . S
N922 C927 1.332 . S
C923 C924 1.386 . S
C923 C926 1.388 . S
C924 C923 1.386 . S
C924 C925 1.382 . S
C924 H950 0.950 . S
C925 N922 1.332 . S
C925 C924 1.382 . S
C925 H936 0.952 . S
C926 C923 1.388 . S
C926 C927 1.382 . S
C926 H951 0.950 . S
C927 N922 1.332 . S
C927 C926 1.382 . S
C927 H937 0.948 . S
N928 Co906 2.282 . S
N928 C932 1.332 . S
N928 C933 1.332 . S
C929 C930 1.388 . S
C929 C933 1.382 . S
C929 H952 0.950 . S
C930 C929 1.388 . S
C930 C931 1.386 . S
C931 C930 1.386 . S
C931 C932 1.382 . S
C931 H953 0.950 . S
C932 N928 1.332 . S
C932 C931 1.382 . S
C932 H934 0.952 . S
C933 N928 1.332 . S
C933 C929 1.382 . S
C933 H935 0.948 . S
H934 C932 0.952 . S
H935 C933 0.948 . S
H936 C925 0.952 . S
H937 C927 0.948 . S
C938 C904 1.395 . S
C938 C908 1.391 . S
C939 C901 1.389 . S
C939 C921 1.392 . S
C940 C911 1.392 . S
C940 C913 1.389 . S
C941 C916 1.395 . S
C941 C918 1.391 . S
H942 C902 0.951 . S
H943 C903 0.950 . S
H944 C909 0.949 . S
H945 C910 0.950 . S
H946 C914 0.951 . S
H947 C915 0.950 . S
H948 C919 0.949 . S
H949 C920 0.950 . S
H950 C924 0.950 . S
H951 C926 0.950 . S
H952 C929 0.950 . S
H953 C931 0.950 . S
C954 C955 1.443 . S
C954 N958 1.376 . S
C954 C992 1.389 . S
C955 C954 1.443 . S
C955 C956 1.340 . S
C955 H995 0.951 . S
C956 C955 1.340 . S
C956 C957 1.439 . S
C956 H996 0.950 . S
C957 C956 1.439 . S
C957 N958 1.374 . S
C957 C991 1.395 . S
N958 C954 1.376 . S
N958 C957 1.374 . S
N958 Co959 2.008 . S
Co959 N958 2.008 . S
Co959 N960 1.995 . S
Co959 N965 2.008 . S
Co959 N970 1.995 . S
Co959 N975 2.282 . S
Co959 N981 2.282 . S
N960 Co959 1.995 . S
N960 C961 1.376 . S
N960 C964 1.383 . S
C961 N960 1.376 . S
C961 C962 1.446 . S
C961 C991 1.391 . S
C962 C961 1.446 . S
C962 C963 1.339 . S
C962 H997 0.949 . S
C963 C962 1.339 . S
C963 C964 1.439 . S
C963 H998 0.950 . S
C964 N960 1.383 . S
C964 C963 1.439 . S
C964 C993 1.392 . S
N965 Co959 2.008 . S
N965 C966 1.376 . S
N965 C969 1.374 . S
C966 N965 1.376 . S
C966 C967 1.443 . S
C966 C993 1.389 . S
C967 C966 1.443 . S
C967 C968 1.340 . S
C967 H999 0.951 . S
C968 C967 1.340 . S
C968 C969 1.439 . S
C968 H1000 0.950 . S
C969 N965 1.374 . S
C969 C968 1.439 . S
C969 C994 1.395 . S
N970 Co959 1.995 . S
N970 C971 1.376 . S
N970 C974 1.383 . S
C971 N970 1.376 . S
C971 C972 1.446 . S
C971 C994 1.391 . S
C972 C971 1.446 . S
C972 C973 1.339 . S
C972 H1001 0.949 . S
C973 C972 1.339 . S
C973 C974 1.439 . S
C973 H1002 0.950 . S
C974 N970 1.383 . S
C974 C973 1.439 . S
C974 C992 1.392 . S
N975 Co959 2.282 . S
N975 C978 1.332 . S
N975 C980 1.332 . S
C976 C977 1.386 . S
C976 C979 1.388 . S
C977 C976 1.386 . S
C977 C978 1.382 . S
C977 H1003 0.950 . S
C978 N975 1.332 . S
C978 C977 1.382 . S
C978 H989 0.952 . S
C979 C976 1.388 . S
C979 C980 1.382 . S
C979 H1004 0.950 . S
C980 N975 1.332 . S
C980 C979 1.382 . S
C980 H990 0.948 . S
N981 Co959 2.282 . S
N981 C985 1.332 . S
N981 C986 1.332 . S
C982 C983 1.388 . S
C982 C986 1.382 . S
C982 H1005 0.950 . S
C983 C982 1.388 . S
C983 C984 1.386 . S
C984 C983 1.386 . S
C984 C985 1.382 . S
C984 H1006 0.950 . S
C985 N981 1.332 . S
C985 C984 1.382 . S
C985 H987 0.952 . S
C986 N981 1.332 . S
C986 C982 1.382 . S
C986 H988 0.948 . S
H987 C985 0.952 . S
H988 C986 0.948 . S
H989 C978 0.952 . S
H990 C980 0.948 . S
C991 C957 1.395 . S
C991 C961 1.391 . S
C992 C954 1.389 . S
C992 C974 1.392 . S
C993 C964 1.392 . S
C993 C966 1.389 . S
C994 C969 1.395 . S
C994 C971 1.391 . S
H995 C955 0.951 . S
H996 C956 0.950 . S
H997 C962 0.949 . S
H998 C963 0.950 . S
H999 C967 0.951 . S
H1000 C968 0.950 . S
H1001 C972 0.949 . S
H1002 C973 0.950 . S
H1003 C977 0.950 . S
H1004 C979 0.950 . S
H1005 C982 0.950 . S
H1006 C984 0.950 . S
C1007 C1008 1.443 . S
C1007 N1011 1.376 . S
C1007 C1045 1.389 . S
C1008 C1007 1.443 . S
C1008 C1009 1.340 . S
C1008 H1048 0.951 . S
C1009 C1008 1.340 . S
C1009 C1010 1.439 . S
C1009 H1049 0.950 . S
C1010 C1009 1.439 . S
C1010 N1011 1.374 . S
C1010 C1044 1.395 . S
N1011 C1007 1.376 . S
N1011 C1010 1.374 . S
N1011 Co1012 2.008 . S
Co1012 N1011 2.008 . S
Co1012 N1013 1.995 . S
Co1012 N1018 2.008 . S
Co1012 N1023 1.995 . S
Co1012 N1028 2.282 . S
Co1012 N1034 2.282 . S
N1013 Co1012 1.995 . S
N1013 C1014 1.376 . S
N1013 C1017 1.383 . S
C1014 N1013 1.376 . S
C1014 C1015 1.446 . S
C1014 C1044 1.391 . S
C1015 C1014 1.446 . S
C1015 C1016 1.339 . S
C1015 H1050 0.949 . S
C1016 C1015 1.339 . S
C1016 C1017 1.439 . S
C1016 H1051 0.950 . S
C1017 N1013 1.383 . S
C1017 C1016 1.439 . S
C1017 C1046 1.392 . S
N1018 Co1012 2.008 . S
N1018 C1019 1.376 . S
N1018 C1022 1.374 . S
C1019 N1018 1.376 . S
C1019 C1020 1.443 . S
C1019 C1046 1.389 . S
C1020 C1019 1.443 . S
C1020 C1021 1.340 . S
C1020 H1052 0.951 . S
C1021 C1020 1.340 . S
C1021 C1022 1.439 . S
C1021 H1053 0.950 . S
C1022 N1018 1.374 . S
C1022 C1021 1.439 . S
C1022 C1047 1.395 . S
N1023 Co1012 1.995 . S
N1023 C1024 1.376 . S
N1023 C1027 1.383 . S
C1024 N1023 1.376 . S
C1024 C1025 1.446 . S
C1024 C1047 1.391 . S
C1025 C1024 1.446 . S
C1025 C1026 1.339 . S
C1025 H1054 0.949 . S
C1026 C1025 1.339 . S
C1026 C1027 1.439 . S
C1026 H1055 0.950 . S
C1027 N1023 1.383 . S
C1027 C1026 1.439 . S
C1027 C1045 1.392 . S
N1028 Co1012 2.282 . S
N1028 C1031 1.332 . S
N1028 C1033 1.332 . S
C1029 C1030 1.386 . S
C1029 C1032 1.388 . S
C1030 C1029 1.386 . S
C1030 C1031 1.382 . S
C1030 H1056 0.950 . S
C1031 N1028 1.332 . S
C1031 C1030 1.382 . S
C1031 H1042 0.952 . S
C1032 C1029 1.388 . S
C1032 C1033 1.382 . S
C1032 H1057 0.950 . S
C1033 N1028 1.332 . S
C1033 C1032 1.382 . S
C1033 H1043 0.948 . S
N1034 Co1012 2.282 . S
N1034 C1038 1.332 . S
N1034 C1039 1.332 . S
C1035 C1036 1.388 . S
C1035 C1039 1.382 . S
C1035 H1058 0.950 . S
C1036 C1035 1.388 . S
C1036 C1037 1.386 . S
C1037 C1036 1.386 . S
C1037 C1038 1.382 . S
C1037 H1059 0.950 . S
C1038 N1034 1.332 . S
C1038 C1037 1.382 . S
C1038 H1040 0.952 . S
C1039 N1034 1.332 . S
C1039 C1035 1.382 . S
C1039 H1041 0.948 . S
H1040 C1038 0.952 . S
H1041 C1039 0.948 . S
H1042 C1031 0.952 . S
H1043 C1033 0.948 . S
C1044 C1010 1.395 . S
C1044 C1014 1.391 . S
C1045 C1007 1.389 . S
C1045 C1027 1.392 . S
C1046 C1017 1.392 . S
C1046 C1019 1.389 . S
C1047 C1022 1.395 . S
C1047 C1024 1.391 . S
H1048 C1008 0.951 . S
H1049 C1009 0.950 . S
H1050 C1015 0.949 . S
H1051 C1016 0.950 . S
H1052 C1020 0.951 . S
H1053 C1021 0.950 . S
H1054 C1025 0.949 . S
H1055 C1026 0.950 . S
H1056 C1030 0.950 . S
H1057 C1032 0.950 . S
H1058 C1035 0.950 . S
H1059 C1037 0.950 . S
C1060 C1061 1.443 . S
C1060 N1064 1.376 . S
C1060 C1098 1.389 . S
C1061 C1060 1.443 . S
C1061 C1062 1.340 . S
C1061 H1101 0.951 . S
C1062 C1061 1.340 . S
C1062 C1063 1.439 . S
C1062 H1102 0.950 . S
C1063 C1062 1.439 . S
C1063 N1064 1.374 . S
C1063 C1097 1.395 . S
N1064 C1060 1.376 . S
N1064 C1063 1.374 . S
N1064 Co1065 2.008 . S
Co1065 N1064 2.008 . S
Co1065 N1066 1.995 . S
Co1065 N1071 2.008 . S
Co1065 N1076 1.995 . S
Co1065 N1081 2.282 . S
Co1065 N1087 2.282 . S
N1066 Co1065 1.995 . S
N1066 C1067 1.376 . S
N1066 C1070 1.383 . S
C1067 N1066 1.376 . S
C1067 C1068 1.446 . S
C1067 C1097 1.391 . S
C1068 C1067 1.446 . S
C1068 C1069 1.339 . S
C1068 H1103 0.949 . S
C1069 C1068 1.339 . S
C1069 C1070 1.439 . S
C1069 H1104 0.950 . S
C1070 N1066 1.383 . S
C1070 C1069 1.439 . S
C1070 C1099 1.392 . S
N1071 Co1065 2.008 . S
N1071 C1072 1.376 . S
N1071 C1075 1.374 . S
C1072 N1071 1.376 . S
C1072 C1073 1.443 . S
C1072 C1099 1.389 . S
C1073 C1072 1.443 . S
C1073 C1074 1.340 . S
C1073 H1105 0.951 . S
C1074 C1073 1.340 . S
C1074 C1075 1.439 . S
C1074 H1106 0.950 . S
C1075 N1071 1.374 . S
C1075 C1074 1.439 . S
C1075 C1100 1.395 . S
N1076 Co1065 1.995 . S
N1076 C1077 1.376 . S
N1076 C1080 1.383 . S
C1077 N1076 1.376 . S
C1077 C1078 1.446 . S
C1077 C1100 1.391 . S
C1078 C1077 1.446 . S
C1078 C1079 1.339 . S
C1078 H1107 0.949 . S
C1079 C1078 1.339 . S
C1079 C1080 1.439 . S
C1079 H1108 0.950 . S
C1080 N1076 1.383 . S
C1080 C1079 1.439 . S
C1080 C1098 1.392 . S
N1081 Co1065 2.282 . S
N1081 C1084 1.332 . S
N1081 C1086 1.332 . S
C1082 C1083 1.386 . S
C1082 C1085 1.388 . S
C1083 C1082 1.386 . S
C1083 C1084 1.382 . S
C1083 H1109 0.950 . S
C1084 N1081 1.332 . S
C1084 C1083 1.382 . S
C1084 H1095 0.952 . S
C1085 C1082 1.388 . S
C1085 C1086 1.382 . S
C1085 H1110 0.950 . S
C1086 N1081 1.332 . S
C1086 C1085 1.382 . S
C1086 H1096 0.948 . S
N1087 Co1065 2.282 . S
N1087 C1091 1.332 . S
N1087 C1092 1.332 . S
C1088 C1089 1.388 . S
C1088 C1092 1.382 . S
C1088 H1111 0.950 . S
C1089 C1088 1.388 . S
C1089 C1090 1.386 . S
C1090 C1089 1.386 . S
C1090 C1091 1.382 . S
C1090 H1112 0.950 . S
C1091 N1087 1.332 . S
C1091 C1090 1.382 . S
C1091 H1093 0.952 . S
C1092 N1087 1.332 . S
C1092 C1088 1.382 . S
C1092 H1094 0.948 . S
H1093 C1091 0.952 . S
H1094 C1092 0.948 . S
H1095 C1084 0.952 . S
H1096 C1086 0.948 . S
C1097 C1063 1.395 . S
C1097 C1067 1.391 . S
C1098 C1060 1.389 . S
C1098 C1080 1.392 . S
C1099 C1070 1.392 . S
C1099 C1072 1.389 . S
C1100 C1075 1.395 . S
C1100 C1077 1.391 . S
H1101 C1061 0.951 . S
H1102 C1062 0.950 . S
H1103 C1068 0.949 . S
H1104 C1069 0.950 . S
H1105 C1073 0.951 . S
H1106 C1074 0.950 . S
H1107 C1078 0.949 . S
H1108 C1079 0.950 . S
H1109 C1083 0.950 . S
H1110 C1085 0.950 . S
H1111 C1088 0.950 . S
H1112 C1090 0.950 . S
C1113 C1114 1.443 . S
C1113 N1117 1.376 . S
C1113 C1151 1.389 . S
C1114 C1113 1.443 . S
C1114 C1115 1.340 . S
C1114 H1154 0.951 . S
C1115 C1114 1.340 . S
C1115 C1116 1.439 . S
C1115 H1155 0.950 . S
C1116 C1115 1.439 . S
C1116 N1117 1.374 . S
C1116 C1150 1.395 . S
N1117 C1113 1.376 . S
N1117 C1116 1.374 . S
N1117 Co1118 2.008 . S
Co1118 N1117 2.008 . S
Co1118 N1119 1.995 . S
Co1118 N1124 2.008 . S
Co1118 N1129 1.995 . S
Co1118 N1134 2.282 . S
Co1118 N1140 2.282 . S
N1119 Co1118 1.995 . S
N1119 C1120 1.376 . S
N1119 C1123 1.383 . S
C1120 N1119 1.376 . S
C1120 C1121 1.446 . S
C1120 C1150 1.391 . S
C1121 C1120 1.446 . S
C1121 C1122 1.339 . S
C1121 H1156 0.949 . S
C1122 C1121 1.339 . S
C1122 C1123 1.439 . S
C1122 H1157 0.950 . S
C1123 N1119 1.383 . S
C1123 C1122 1.439 . S
C1123 C1152 1.392 . S
N1124 Co1118 2.008 . S
N1124 C1125 1.376 . S
N1124 C1128 1.374 . S
C1125 N1124 1.376 . S
C1125 C1126 1.443 . S
C1125 C1152 1.389 . S
C1126 C1125 1.443 . S
C1126 C1127 1.340 . S
C1126 H1158 0.951 . S
C1127 C1126 1.340 . S
C1127 C1128 1.439 . S
C1127 H1159 0.950 . S
C1128 N1124 1.374 . S
C1128 C1127 1.439 . S
C1128 C1153 1.395 . S
N1129 Co1118 1.995 . S
N1129 C1130 1.376 . S
N1129 C1133 1.383 . S
C1130 N1129 1.376 . S
C1130 C1131 1.446 . S
C1130 C1153 1.391 . S
C1131 C1130 1.446 . S
C1131 C1132 1.339 . S
C1131 H1160 0.949 . S
C1132 C1131 1.339 . S
C1132 C1133 1.439 . S
C1132 H1161 0.950 . S
C1133 N1129 1.383 . S
C1133 C1132 1.439 . S
C1133 C1151 1.392 . S
N1134 Co1118 2.282 . S
N1134 C1137 1.332 . S
N1134 C1139 1.332 . S
C1135 C1136 1.386 . S
C1135 C1138 1.388 . S
C1136 C1135 1.386 . S
C1136 C1137 1.382 . S
C1136 H1162 0.950 . S
C1137 N1134 1.332 . S
C1137 C1136 1.382 . S
C1137 H1148 0.952 . S
C1138 C1135 1.388 . S
C1138 C1139 1.382 . S
C1138 H1163 0.950 . S
C1139 N1134 1.332 . S
C1139 C1138 1.382 . S
C1139 H1149 0.948 . S
N1140 Co1118 2.282 . S
N1140 C1144 1.332 . S
N1140 C1145 1.332 . S
C1141 C1142 1.388 . S
C1141 C1145 1.382 . S
C1141 H1164 0.950 . S
C1142 C1141 1.388 . S
C1142 C1143 1.386 . S
C1143 C1142 1.386 . S
C1143 C1144 1.382 . S
C1143 H1165 0.950 . S
C1144 N1140 1.332 . S
C1144 C1143 1.382 . S
C1144 H1146 0.952 . S
C1145 N1140 1.332 . S
C1145 C1141 1.382 . S
C1145 H1147 0.948 . S
H1146 C1144 0.952 . S
H1147 C1145 0.948 . S
H1148 C1137 0.952 . S
H1149 C1139 0.948 . S
C1150 C1116 1.395 . S
C1150 C1120 1.391 . S
C1151 C1113 1.389 . S
C1151 C1133 1.392 . S
C1152 C1123 1.392 . S
C1152 C1125 1.389 . S
C1153 C1128 1.395 . S
C1153 C1130 1.391 . S
H1154 C1114 0.951 . S
H1155 C1115 0.950 . S
H1156 C1121 0.949 . S
H1157 C1122 0.950 . S
H1158 C1126 0.951 . S
H1159 C1127 0.950 . S
H1160 C1131 0.949 . S
H1161 C1132 0.950 . S
H1162 C1136 0.950 . S
H1163 C1138 0.950 . S
H1164 C1141 0.950 . S
H1165 C1143 0.950 . S
C1166 C1167 1.443 . S
C1166 N1170 1.376 . S
C1166 C1204 1.389 . S
C1167 C1166 1.443 . S
C1167 C1168 1.340 . S
C1167 H1207 0.951 . S
C1168 C1167 1.340 . S
C1168 C1169 1.439 . S
C1168 H1208 0.950 . S
C1169 C1168 1.439 . S
C1169 N1170 1.374 . S
C1169 C1203 1.395 . S
N1170 C1166 1.376 . S
N1170 C1169 1.374 . S
N1170 Co1171 2.008 . S
Co1171 N1170 2.008 . S
Co1171 N1172 1.995 . S
Co1171 N1177 2.008 . S
Co1171 N1182 1.995 . S
Co1171 N1187 2.282 . S
Co1171 N1193 2.282 . S
N1172 Co1171 1.995 . S
N1172 C1173 1.376 . S
N1172 C1176 1.383 . S
C1173 N1172 1.376 . S
C1173 C1174 1.446 . S
C1173 C1203 1.391 . S
C1174 C1173 1.446 . S
C1174 C1175 1.339 . S
C1174 H1209 0.949 . S
C1175 C1174 1.339 . S
C1175 C1176 1.439 . S
C1175 H1210 0.950 . S
C1176 N1172 1.383 . S
C1176 C1175 1.439 . S
C1176 C1205 1.392 . S
N1177 Co1171 2.008 . S
N1177 C1178 1.376 . S
N1177 C1181 1.374 . S
C1178 N1177 1.376 . S
C1178 C1179 1.443 . S
C1178 C1205 1.389 . S
C1179 C1178 1.443 . S
C1179 C1180 1.340 . S
C1179 H1211 0.951 . S
C1180 C1179 1.340 . S
C1180 C1181 1.439 . S
C1180 H1212 0.950 . S
C1181 N1177 1.374 . S
C1181 C1180 1.439 . S
C1181 C1206 1.395 . S
N1182 Co1171 1.995 . S
N1182 C1183 1.376 . S
N1182 C1186 1.383 . S
C1183 N1182 1.376 . S
C1183 C1184 1.446 . S
C1183 C1206 1.391 . S
C1184 C1183 1.446 . S
C1184 C1185 1.339 . S
C1184 H1213 0.949 . S
C1185 C1184 1.339 . S
C1185 C1186 1.439 . S
C1185 H1214 0.950 . S
C1186 N1182 1.383 . S
C1186 C1185 1.439 . S
C1186 C1204 1.392 . S
N1187 Co1171 2.282 . S
N1187 C1190 1.332 . S
N1187 C1192 1.332 . S
C1188 C1189 1.386 . S
C1188 C1191 1.388 . S
C1189 C1188 1.386 . S
C1189 C1190 1.382 . S
C1189 H1215 0.950 . S
C1190 N1187 1.332 . S
C1190 C1189 1.382 . S
C1190 H1201 0.952 . S
C1191 C1188 1.388 . S
C1191 C1192 1.382 . S
C1191 H1216 0.950 . S
C1192 N1187 1.332 . S
C1192 C1191 1.382 . S
C1192 H1202 0.948 . S
N1193 Co1171 2.282 . S
N1193 C1197 1.332 . S
N1193 C1198 1.332 . S
C1194 C1195 1.388 . S
C1194 C1198 1.382 . S
C1194 H1217 0.950 . S
C1195 C1194 1.388 . S
C1195 C1196 1.386 . S
C1196 C1195 1.386 . S
C1196 C1197 1.382 . S
C1196 H1218 0.950 . S
C1197 N1193 1.332 . S
C1197 C1196 1.382 . S
C1197 H1199 0.952 . S
C1198 N1193 1.332 . S
C1198 C1194 1.382 . S
C1198 H1200 0.948 . S
H1199 C1197 0.952 . S
H1200 C1198 0.948 . S
H1201 C1190 0.952 . S
H1202 C1192 0.948 . S
C1203 C1169 1.395 . S
C1203 C1173 1.391 . S
C1204 C1166 1.389 . S
C1204 C1186 1.392 . S
C1205 C1176 1.392 . S
C1205 C1178 1.389 . S
C1206 C1181 1.395 . S
C1206 C1183 1.391 . S
H1207 C1167 0.951 . S
H1208 C1168 0.950 . S
H1209 C1174 0.949 . S
H1210 C1175 0.950 . S
H1211 C1179 0.951 . S
H1212 C1180 0.950 . S
H1213 C1184 0.949 . S
H1214 C1185 0.950 . S
H1215 C1189 0.950 . S
H1216 C1191 0.950 . S
H1217 C1194 0.950 . S
H1218 C1196 0.950 . S
C1219 C1220 1.443 . S
C1219 N1223 1.376 . S
C1219 C1257 1.389 . S
C1220 C1219 1.443 . S
C1220 C1221 1.340 . S
C1220 H1260 0.951 . S
C1221 C1220 1.340 . S
C1221 C1222 1.439 . S
C1221 H1261 0.950 . S
C1222 C1221 1.439 . S
C1222 N1223 1.374 . S
C1222 C1256 1.395 . S
N1223 C1219 1.376 . S
N1223 C1222 1.374 . S
N1223 Co1224 2.008 . S
Co1224 N1223 2.008 . S
Co1224 N1225 1.995 . S
Co1224 N1230 2.008 . S
Co1224 N1235 1.995 . S
Co1224 N1240 2.282 . S
Co1224 N1246 2.282 . S
N1225 Co1224 1.995 . S
N1225 C1226 1.376 . S
N1225 C1229 1.383 . S
C1226 N1225 1.376 . S
C1226 C1227 1.446 . S
C1226 C1256 1.391 . S
C1227 C1226 1.446 . S
C1227 C1228 1.339 . S
C1227 H1262 0.949 . S
C1228 C1227 1.339 . S
C1228 C1229 1.439 . S
C1228 H1263 0.950 . S
C1229 N1225 1.383 . S
C1229 C1228 1.439 . S
C1229 C1258 1.392 . S
N1230 Co1224 2.008 . S
N1230 C1231 1.376 . S
N1230 C1234 1.374 . S
C1231 N1230 1.376 . S
C1231 C1232 1.443 . S
C1231 C1258 1.389 . S
C1232 C1231 1.443 . S
C1232 C1233 1.340 . S
C1232 H1264 0.951 . S
C1233 C1232 1.340 . S
C1233 C1234 1.439 . S
C1233 H1265 0.950 . S
C1234 N1230 1.374 . S
C1234 C1233 1.439 . S
C1234 C1259 1.395 . S
N1235 Co1224 1.995 . S
N1235 C1236 1.376 . S
N1235 C1239 1.383 . S
C1236 N1235 1.376 . S
C1236 C1237 1.446 . S
C1236 C1259 1.391 . S
C1237 C1236 1.446 . S
C1237 C1238 1.339 . S
C1237 H1266 0.949 . S
C1238 C1237 1.339 . S
C1238 C1239 1.439 . S
C1238 H1267 0.950 . S
C1239 N1235 1.383 . S
C1239 C1238 1.439 . S
C1239 C1257 1.392 . S
N1240 Co1224 2.282 . S
N1240 C1243 1.332 . S
N1240 C1245 1.332 . S
C1241 C1242 1.386 . S
C1241 C1244 1.388 . S
C1242 C1241 1.386 . S
C1242 C1243 1.382 . S
C1242 H1268 0.950 . S
C1243 N1240 1.332 . S
C1243 C1242 1.382 . S
C1243 H1254 0.952 . S
C1244 C1241 1.388 . S
C1244 C1245 1.382 . S
C1244 H1269 0.950 . S
C1245 N1240 1.332 . S
C1245 C1244 1.382 . S
C1245 H1255 0.948 . S
N1246 Co1224 2.282 . S
N1246 C1250 1.332 . S
N1246 C1251 1.332 . S
C1247 C1248 1.388 . S
C1247 C1251 1.382 . S
C1247 H1270 0.950 . S
C1248 C1247 1.388 . S
C1248 C1249 1.386 . S
C1249 C1248 1.386 . S
C1249 C1250 1.382 . S
C1249 H1271 0.950 . S
C1250 N1246 1.332 . S
C1250 C1249 1.382 . S
C1250 H1252 0.952 . S
C1251 N1246 1.332 . S
C1251 C1247 1.382 . S
C1251 H1253 0.948 . S
H1252 C1250 0.952 . S
H1253 C1251 0.948 . S
H1254 C1243 0.952 . S
H1255 C1245 0.948 . S
C1256 C1222 1.395 . S
C1256 C1226 1.391 . S
C1257 C1219 1.389 . S
C1257 C1239 1.392 . S
C1258 C1229 1.392 . S
C1258 C1231 1.389 . S
C1259 C1234 1.395 . S
C1259 C1236 1.391 . S
H1260 C1220 0.951 . S
H1261 C1221 0.950 . S
H1262 C1227 0.949 . S
H1263 C1228 0.950 . S
H1264 C1232 0.951 . S
H1265 C1233 0.950 . S
H1266 C1237 0.949 . S
H1267 C1238 0.950 . S
H1268 C1242 0.950 . S
H1269 C1244 0.950 . S
H1270 C1247 0.950 . S
H1271 C1249 0.950 . S
H1272 C1290 0.951 . S
H1273 C1292 0.951 . S
H1274 C1294 0.950 . S
H1275 C1295 0.950 . S
H1276 C1297 0.950 . S
H1277 C1300 0.950 . S
H1278 C1301 0.950 . S
H1279 C1303 0.950 . S
H1280 C1304 0.950 . S
H1281 C1305 0.951 . S
H1282 C1307 0.951 . S
H1283 C1309 0.950 . S
H1284 C1310 0.950 . S
H1285 C1312 0.950 . S
H1286 C1315 0.950 . S
H1287 C1316 0.950 . S
H1288 C1318 0.950 . S
H1289 C1319 0.950 . S
C1290 H1272 0.951 . S
C1290 C1291 1.366 . S
C1290 C1292 1.388 . S
C1291 C1290 1.366 . S
C1291 C1295 1.385 . S
C1292 H1273 0.951 . S
C1292 C1290 1.388 . S
C1292 C1293 1.366 . S
C1293 C1292 1.366 . S
C1293 C1294 1.414 . S
C1293 C1296 1.499 . S
C1294 H1274 0.950 . S
C1294 C1293 1.414 . S
C1294 C1295 1.374 . S
C1295 H1275 0.950 . S
C1295 C1291 1.385 . S
C1295 C1294 1.374 . S
C1296 C1293 1.499 . S
C1296 C1297 1.373 . S
C1296 C1298 1.389 . S
C1297 H1276 0.950 . S
C1297 C1296 1.373 . S
C1297 C1313 1.377 . S
C1298 C1296 1.389 . S
C1298 C1299 1.524 . S
C1298 C1312 1.377 . S
C1299 C1298 1.524 . S
C1299 C1300 1.397 . S
C1299 C1304 1.363 . S
C1300 H1277 0.950 . S
C1300 C1299 1.397 . S
C1300 C1301 1.334 . S
C1301 H1278 0.950 . S
C1301 C1300 1.334 . S
C1301 C1302 1.287 . S
C1302 C1301 1.287 . S
C1302 C1303 1.524 . S
C1302 H1321 0.913 . S
C1303 H1279 0.950 . S
C1303 C1302 1.524 . S
C1303 C1304 1.415 . S
C1304 H1280 0.950 . S
C1304 C1299 1.363 . S
C1304 C1303 1.415 . S
C1305 H1281 0.951 . S
C1305 C1306 1.366 . S
C1305 C1307 1.388 . S
C1306 C1305 1.366 . S
C1306 C1310 1.385 . S
C1307 H1282 0.951 . S
C1307 C1305 1.388 . S
C1307 C1308 1.366 . S
C1308 C1307 1.366 . S
C1308 C1309 1.414 . S
C1308 C1311 1.499 . S
C1309 H1283 0.950 . S
C1309 C1308 1.414 . S
C1309 C1310 1.374 . S
C1310 H1284 0.950 . S
C1310 C1306 1.385 . S
C1310 C1309 1.374 . S
C1311 C1308 1.499 . S
C1311 C1312 1.373 . S
C1311 C1313 1.389 . S
C1312 H1285 0.950 . S
C1312 C1298 1.377 . S
C1312 C1311 1.373 . S
C1313 C1297 1.377 . S
C1313 C1311 1.389 . S
C1313 C1314 1.524 . S
C1314 C1313 1.524 . S
C1314 C1315 1.397 . S
C1314 C1319 1.363 . S
C1315 H1286 0.950 . S
C1315 C1314 1.397 . S
C1315 C1316 1.334 . S
C1316 H1287 0.950 . S
C1316 C1315 1.334 . S
C1316 C1317 1.287 . S
C1317 C1316 1.287 . S
C1317 C1318 1.524 . S
C1317 H1320 0.999 . S
C1318 H1288 0.950 . S
C1318 C1317 1.524 . S
C1318 C1319 1.415 . S
C1319 H1289 0.950 . S
C1319 C1314 1.363 . S
C1319 C1318 1.415 . S
H1320 C1317 0.999 . S
H1321 C1302 0.913 . S
H1322 C1340 0.951 . S
H1323 C1342 0.951 . S
H1324 C1344 0.950 . S
H1325 C1345 0.950 . S
H1326 C1347 0.950 . S
H1327 C1350 0.950 . S
H1328 C1351 0.950 . S
H1329 C1353 0.950 . S
H1330 C1354 0.950 . S
H1331 C1355 0.951 . S
H1332 C1357 0.951 . S
H1333 C1359 0.950 . S
H1334 C1360 0.950 . S
H1335 C1362 0.950 . S
H1336 C1365 0.950 . S
H1337 C1366 0.950 . S
H1338 C1368 0.950 . S
H1339 C1369 0.950 . S
C1340 H1322 0.951 . S
C1340 C1341 1.366 . S
C1340 C1342 1.388 . S
C1341 C1340 1.366 . S
C1341 C1345 1.385 . S
C1342 H1323 0.951 . S
C1342 C1340 1.388 . S
C1342 C1343 1.366 . S
C1343 C1342 1.366 . S
C1343 C1344 1.414 . S
C1343 C1346 1.499 . S
C1344 H1324 0.950 . S
C1344 C1343 1.414 . S
C1344 C1345 1.374 . S
C1345 H1325 0.950 . S
C1345 C1341 1.385 . S
C1345 C1344 1.374 . S
C1346 C1343 1.499 . S
C1346 C1347 1.373 . S
C1346 C1348 1.389 . S
C1347 H1326 0.950 . S
C1347 C1346 1.373 . S
C1347 C1363 1.377 . S
C1348 C1346 1.389 . S
C1348 C1349 1.524 . S
C1348 C1362 1.377 . S
C1349 C1348 1.524 . S
C1349 C1350 1.397 . S
C1349 C1354 1.363 . S
C1350 H1327 0.950 . S
C1350 C1349 1.397 . S
C1350 C1351 1.334 . S
C1351 H1328 0.950 . S
C1351 C1350 1.334 . S
C1351 C1352 1.287 . S
C1352 C1351 1.287 . S
C1352 C1353 1.524 . S
C1352 H1371 0.913 . S
C1353 H1329 0.950 . S
C1353 C1352 1.524 . S
C1353 C1354 1.415 . S
C1354 H1330 0.950 . S
C1354 C1349 1.363 . S
C1354 C1353 1.415 . S
C1355 H1331 0.951 . S
C1355 C1356 1.366 . S
C1355 C1357 1.388 . S
C1356 C1355 1.366 . S
C1356 C1360 1.385 . S
C1357 H1332 0.951 . S
C1357 C1355 1.388 . S
C1357 C1358 1.366 . S
C1358 C1357 1.366 . S
C1358 C1359 1.414 . S
C1358 C1361 1.499 . S
C1359 H1333 0.950 . S
C1359 C1358 1.414 . S
C1359 C1360 1.374 . S
C1360 H1334 0.950 . S
C1360 C1356 1.385 . S
C1360 C1359 1.374 . S
C1361 C1358 1.499 . S
C1361 C1362 1.373 . S
C1361 C1363 1.389 . S
C1362 H1335 0.950 . S
C1362 C1348 1.377 . S
C1362 C1361 1.373 . S
C1363 C1347 1.377 . S
C1363 C1361 1.389 . S
C1363 C1364 1.524 . S
C1364 C1363 1.524 . S
C1364 C1365 1.397 . S
C1364 C1369 1.363 . S
C1365 H1336 0.950 . S
C1365 C1364 1.397 . S
C1365 C1366 1.334 . S
C1366 H1337 0.950 . S
C1366 C1365 1.334 . S
C1366 C1367 1.287 . S
C1367 C1366 1.287 . S
C1367 C1368 1.524 . S
C1367 H1370 0.999 . S
C1368 H1338 0.950 . S
C1368 C1367 1.524 . S
C1368 C1369 1.415 . S
C1369 H1339 0.950 . S
C1369 C1364 1.363 . S
C1369 C1368 1.415 . S
H1370 C1367 0.999 . S
H1371 C1352 0.913 . S
H1372 C1390 0.951 . S
H1373 C1392 0.951 . S
H1374 C1394 0.950 . S
H1375 C1395 0.950 . S
H1376 C1397 0.950 . S
H1377 C1400 0.950 . S
H1378 C1401 0.950 . S
H1379 C1403 0.950 . S
H1380 C1404 0.950 . S
H1381 C1405 0.951 . S
H1382 C1407 0.951 . S
H1383 C1409 0.950 . S
H1384 C1410 0.950 . S
H1385 C1412 0.950 . S
H1386 C1415 0.950 . S
H1387 C1416 0.950 . S
H1388 C1418 0.950 . S
H1389 C1419 0.950 . S
C1390 H1372 0.951 . S
C1390 C1391 1.366 . S
C1390 C1392 1.388 . S
C1391 C1390 1.366 . S
C1391 C1395 1.385 . S
C1392 H1373 0.951 . S
C1392 C1390 1.388 . S
C1392 C1393 1.366 . S
C1393 C1392 1.366 . S
C1393 C1394 1.414 . S
C1393 C1396 1.499 . S
C1394 H1374 0.950 . S
C1394 C1393 1.414 . S
C1394 C1395 1.374 . S
C1395 H1375 0.950 . S
C1395 C1391 1.385 . S
C1395 C1394 1.374 . S
C1396 C1393 1.499 . S
C1396 C1397 1.373 . S
C1396 C1398 1.389 . S
C1397 H1376 0.950 . S
C1397 C1396 1.373 . S
C1397 C1413 1.377 . S
C1398 C1396 1.389 . S
C1398 C1399 1.524 . S
C1398 C1412 1.377 . S
C1399 C1398 1.524 . S
C1399 C1400 1.397 . S
C1399 C1404 1.363 . S
C1400 H1377 0.950 . S
C1400 C1399 1.397 . S
C1400 C1401 1.334 . S
C1401 H1378 0.950 . S
C1401 C1400 1.334 . S
C1401 C1402 1.287 . S
C1402 C1401 1.287 . S
C1402 C1403 1.524 . S
C1402 H1421 0.913 . S
C1403 H1379 0.950 . S
C1403 C1402 1.524 . S
C1403 C1404 1.415 . S
C1404 H1380 0.950 . S
C1404 C1399 1.363 . S
C1404 C1403 1.415 . S
C1405 H1381 0.951 . S
C1405 C1406 1.366 . S
C1405 C1407 1.388 . S
C1406 C1405 1.366 . S
C1406 C1410 1.385 . S
C1407 H1382 0.951 . S
C1407 C1405 1.388 . S
C1407 C1408 1.366 . S
C1408 C1407 1.366 . S
C1408 C1409 1.414 . S
C1408 C1411 1.499 . S
C1409 H1383 0.950 . S
C1409 C1408 1.414 . S
C1409 C1410 1.374 . S
C1410 H1384 0.950 . S
C1410 C1406 1.385 . S
C1410 C1409 1.374 . S
C1411 C1408 1.499 . S
C1411 C1412 1.373 . S
C1411 C1413 1.389 . S
C1412 H1385 0.950 . S
C1412 C1398 1.377 . S
C1412 C1411 1.373 . S
C1413 C1397 1.377 . S
C1413 C1411 1.389 . S
C1413 C1414 1.524 . S
C1414 C1413 1.524 . S
C1414 C1415 1.397 . S
C1414 C1419 1.363 . S
C1415 H1386 0.950 . S
C1415 C1414 1.397 . S
C1415 C1416 1.334 . S
C1416 H1387 0.950 . S
C1416 C1415 1.334 . S
C1416 C1417 1.287 . S
C1417 C1416 1.287 . S
C1417 C1418 1.524 . S
C1417 H1420 0.999 . S
C1418 H1388 0.950 . S
C1418 C1417 1.524 . S
C1418 C1419 1.415 . S
C1419 H1389 0.950 . S
C1419 C1414 1.363 . S
C1419 C1418 1.415 . S
H1420 C1417 0.999 . S
H1421 C1402 0.913 . S
H1422 C1440 0.951 . S
H1423 C1442 0.951 . S
H1424 C1444 0.950 . S
H1425 C1445 0.950 . S
H1426 C1447 0.950 . S
H1427 C1450 0.950 . S
H1428 C1451 0.950 . S
H1429 C1453 0.950 . S
H1430 C1454 0.950 . S
H1431 C1455 0.951 . S
H1432 C1457 0.951 . S
H1433 C1459 0.950 . S
H1434 C1460 0.950 . S
H1435 C1462 0.950 . S
H1436 C1465 0.950 . S
H1437 C1466 0.950 . S
H1438 C1468 0.950 . S
H1439 C1469 0.950 . S
C1440 H1422 0.951 . S
C1440 C1441 1.366 . S
C1440 C1442 1.388 . S
C1441 C1440 1.366 . S
C1441 C1445 1.385 . S
C1442 H1423 0.951 . S
C1442 C1440 1.388 . S
C1442 C1443 1.366 . S
C1443 C1442 1.366 . S
C1443 C1444 1.414 . S
C1443 C1446 1.499 . S
C1444 H1424 0.950 . S
C1444 C1443 1.414 . S
C1444 C1445 1.374 . S
C1445 H1425 0.950 . S
C1445 C1441 1.385 . S
C1445 C1444 1.374 . S
C1446 C1443 1.499 . S
C1446 C1447 1.373 . S
C1446 C1448 1.389 . S
C1447 H1426 0.950 . S
C1447 C1446 1.373 . S
C1447 C1463 1.377 . S
C1448 C1446 1.389 . S
C1448 C1449 1.524 . S
C1448 C1462 1.377 . S
C1449 C1448 1.524 . S
C1449 C1450 1.397 . S
C1449 C1454 1.363 . S
C1450 H1427 0.950 . S
C1450 C1449 1.397 . S
C1450 C1451 1.334 . S
C1451 H1428 0.950 . S
C1451 C1450 1.334 . S
C1451 C1452 1.287 . S
C1452 C1451 1.287 . S
C1452 C1453 1.524 . S
C1452 H1471 0.913 . S
C1453 H1429 0.950 . S
C1453 C1452 1.524 . S
C1453 C1454 1.415 . S
C1454 H1430 0.950 . S
C1454 C1449 1.363 . S
C1454 C1453 1.415 . S
C1455 H1431 0.951 . S
C1455 C1456 1.366 . S
C1455 C1457 1.388 . S
C1456 C1455 1.366 . S
C1456 C1460 1.385 . S
C1457 H1432 0.951 . S
C1457 C1455 1.388 . S
C1457 C1458 1.366 . S
C1458 C1457 1.366 . S
C1458 C1459 1.414 . S
C1458 C1461 1.499 . S
C1459 H1433 0.950 . S
C1459 C1458 1.414 . S
C1459 C1460 1.374 . S
C1460 H1434 0.950 . S
C1460 C1456 1.385 . S
C1460 C1459 1.374 . S
C1461 C1458 1.499 . S
C1461 C1462 1.373 . S
C1461 C1463 1.389 . S
C1462 H1435 0.950 . S
C1462 C1448 1.377 . S
C1462 C1461 1.373 . S
C1463 C1447 1.377 . S
C1463 C1461 1.389 . S
C1463 C1464 1.524 . S
C1464 C1463 1.524 . S
C1464 C1465 1.397 . S
C1464 C1469 1.363 . S
C1465 H1436 0.950 . S
C1465 C1464 1.397 . S
C1465 C1466 1.334 . S
C1466 H1437 0.950 . S
C1466 C1465 1.334 . S
C1466 C1467 1.287 . S
C1467 C1466 1.287 . S
C1467 C1468 1.524 . S
C1467 H1470 0.999 . S
C1468 H1438 0.950 . S
C1468 C1467 1.524 . S
C1468 C1469 1.415 . S
C1469 H1439 0.950 . S
C1469 C1464 1.363 . S
C1469 C1468 1.415 . S
H1470 C1467 0.999 . S
H1471 C1452 0.913 . S
H1472 C1490 0.951 . S
H1473 C1492 0.951 . S
H1474 C1494 0.950 . S
H1475 C1495 0.950 . S
H1476 C1497 0.950 . S
H1477 C1500 0.950 . S
H1478 C1501 0.950 . S
H1479 C1503 0.950 . S
H1480 C1504 0.950 . S
H1481 C1505 0.951 . S
H1482 C1507 0.951 . S
H1483 C1509 0.950 . S
H1484 C1510 0.950 . S
H1485 C1512 0.950 . S
H1486 C1515 0.950 . S
H1487 C1516 0.950 . S
H1488 C1518 0.950 . S
H1489 C1519 0.950 . S
C1490 H1472 0.951 . S
C1490 C1491 1.366 . S
C1490 C1492 1.388 . S
C1491 C1490 1.366 . S
C1491 C1495 1.385 . S
C1492 H1473 0.951 . S
C1492 C1490 1.388 . S
C1492 C1493 1.366 . S
C1493 C1492 1.366 . S
C1493 C1494 1.414 . S
C1493 C1496 1.499 . S
C1494 H1474 0.950 . S
C1494 C1493 1.414 . S
C1494 C1495 1.374 . S
C1495 H1475 0.950 . S
C1495 C1491 1.385 . S
C1495 C1494 1.374 . S
C1496 C1493 1.499 . S
C1496 C1497 1.373 . S
C1496 C1498 1.389 . S
C1497 H1476 0.950 . S
C1497 C1496 1.373 . S
C1497 C1513 1.377 . S
C1498 C1496 1.389 . S
C1498 C1499 1.524 . S
C1498 C1512 1.377 . S
C1499 C1498 1.524 . S
C1499 C1500 1.397 . S
C1499 C1504 1.363 . S
C1500 H1477 0.950 . S
C1500 C1499 1.397 . S
C1500 C1501 1.334 . S
C1501 H1478 0.950 . S
C1501 C1500 1.334 . S
C1501 C1502 1.287 . S
C1502 C1501 1.287 . S
C1502 C1503 1.524 . S
C1502 H1521 0.913 . S
C1503 H1479 0.950 . S
C1503 C1502 1.524 . S
C1503 C1504 1.415 . S
C1504 H1480 0.950 . S
C1504 C1499 1.363 . S
C1504 C1503 1.415 . S
C1505 H1481 0.951 . S
C1505 C1506 1.366 . S
C1505 C1507 1.388 . S
C1506 C1505 1.366 . S
C1506 C1510 1.385 . S
C1507 H1482 0.951 . S
C1507 C1505 1.388 . S
C1507 C1508 1.366 . S
C1508 C1507 1.366 . S
C1508 C1509 1.414 . S
C1508 C1511 1.499 . S
C1509 H1483 0.950 . S
C1509 C1508 1.414 . S
C1509 C1510 1.374 . S
C1510 H1484 0.950 . S
C1510 C1506 1.385 . S
C1510 C1509 1.374 . S
C1511 C1508 1.499 . S
C1511 C1512 1.373 . S
C1511 C1513 1.389 . S
C1512 H1485 0.950 . S
C1512 C1498 1.377 . S
C1512 C1511 1.373 . S
C1513 C1497 1.377 . S
C1513 C1511 1.389 . S
C1513 C1514 1.524 . S
C1514 C1513 1.524 . S
C1514 C1515 1.397 . S
C1514 C1519 1.363 . S
C1515 H1486 0.950 . S
C1515 C1514 1.397 . S
C1515 C1516 1.334 . S
C1516 H1487 0.950 . S
C1516 C1515 1.334 . S
C1516 C1517 1.287 . S
C1517 C1516 1.287 . S
C1517 C1518 1.524 . S
C1517 H1520 0.999 . S
C1518 H1488 0.950 . S
C1518 C1517 1.524 . S
C1518 C1519 1.415 . S
C1519 H1489 0.950 . S
C1519 C1514 1.363 . S
C1519 C1518 1.415 . S
H1520 C1517 0.999 . S
H1521 C1502 0.913 . S
H1522 C1540 0.951 . S
H1523 C1542 0.951 . S
H1524 C1544 0.950 . S
H1525 C1545 0.950 . S
H1526 C1547 0.950 . S
H1527 C1550 0.950 . S
H1528 C1551 0.950 . S
H1529 C1553 0.950 . S
H1530 C1554 0.950 . S
H1531 C1555 0.951 . S
H1532 C1557 0.951 . S
H1533 C1559 0.950 . S
H1534 C1560 0.950 . S
H1535 C1562 0.950 . S
H1536 C1565 0.950 . S
H1537 C1566 0.950 . S
H1538 C1568 0.950 . S
H1539 C1569 0.950 . S
C1540 H1522 0.951 . S
C1540 C1541 1.366 . S
C1540 C1542 1.388 . S
C1541 C1540 1.366 . S
C1541 C1545 1.385 . S
C1542 H1523 0.951 . S
C1542 C1540 1.388 . S
C1542 C1543 1.366 . S
C1543 C1542 1.366 . S
C1543 C1544 1.414 . S
C1543 C1546 1.499 . S
C1544 H1524 0.950 . S
C1544 C1543 1.414 . S
C1544 C1545 1.374 . S
C1545 H1525 0.950 . S
C1545 C1541 1.385 . S
C1545 C1544 1.374 . S
C1546 C1543 1.499 . S
C1546 C1547 1.373 . S
C1546 C1548 1.389 . S
C1547 H1526 0.950 . S
C1547 C1546 1.373 . S
C1547 C1563 1.377 . S
C1548 C1546 1.389 . S
C1548 C1549 1.524 . S
C1548 C1562 1.377 . S
C1549 C1548 1.524 . S
C1549 C1550 1.397 . S
C1549 C1554 1.363 . S
C1550 H1527 0.950 . S
C1550 C1549 1.397 . S
C1550 C1551 1.334 . S
C1551 H1528 0.950 . S
C1551 C1550 1.334 . S
C1551 C1552 1.287 . S
C1552 C1551 1.287 . S
C1552 C1553 1.524 . S
C1552 H1571 0.913 . S
C1553 H1529 0.950 . S
C1553 C1552 1.524 . S
C1553 C1554 1.415 . S
C1554 H1530 0.950 . S
C1554 C1549 1.363 . S
C1554 C1553 1.415 . S
C1555 H1531 0.951 . S
C1555 C1556 1.366 . S
C1555 C1557 1.388 . S
C1556 C1555 1.366 . S
C1556 C1560 1.385 . S
C1557 H1532 0.951 . S
C1557 C1555 1.388 . S
C1557 C1558 1.366 . S
C1558 C1557 1.366 . S
C1558 C1559 1.414 . S
C1558 C1561 1.499 . S
C1559 H1533 0.950 . S
C1559 C1558 1.414 . S
C1559 C1560 1.374 . S
C1560 H1534 0.950 . S
C1560 C1556 1.385 . S
C1560 C1559 1.374 . S
C1561 C1558 1.499 . S
C1561 C1562 1.373 . S
C1561 C1563 1.389 . S
C1562 H1535 0.950 . S
C1562 C1548 1.377 . S
C1562 C1561 1.373 . S
C1563 C1547 1.377 . S
C1563 C1561 1.389 . S
C1563 C1564 1.524 . S
C1564 C1563 1.524 . S
C1564 C1565 1.397 . S
C1564 C1569 1.363 . S
C1565 H1536 0.950 . S
C1565 C1564 1.397 . S
C1565 C1566 1.334 . S
C1566 H1537 0.950 . S
C1566 C1565 1.334 . S
C1566 C1567 1.287 . S
C1567 C1566 1.287 . S
C1567 C1568 1.524 . S
C1567 H1570 0.999 . S
C1568 H1538 0.950 . S
C1568 C1567 1.524 . S
C1568 C1569 1.415 . S
C1569 H1539 0.950 . S
C1569 C1564 1.363 . S
C1569 C1568 1.415 . S
H1570 C1567 0.999 . S
H1571 C1552 0.913 . S
H1572 C1590 0.951 . S
H1573 C1592 0.951 . S
H1574 C1594 0.950 . S
H1575 C1595 0.950 . S
H1576 C1597 0.950 . S
H1577 C1600 0.950 . S
H1578 C1601 0.950 . S
H1579 C1603 0.950 . S
H1580 C1604 0.950 . S
H1581 C1605 0.951 . S
H1582 C1607 0.951 . S
H1583 C1609 0.950 . S
H1584 C1610 0.950 . S
H1585 C1612 0.950 . S
H1586 C1615 0.950 . S
H1587 C1616 0.950 . S
H1588 C1618 0.950 . S
H1589 C1619 0.950 . S
C1590 H1572 0.951 . S
C1590 C1591 1.366 . S
C1590 C1592 1.388 . S
C1591 C1590 1.366 . S
C1591 C1595 1.385 . S
C1592 H1573 0.951 . S
C1592 C1590 1.388 . S
C1592 C1593 1.366 . S
C1593 C1592 1.366 . S
C1593 C1594 1.414 . S
C1593 C1596 1.499 . S
C1594 H1574 0.950 . S
C1594 C1593 1.414 . S
C1594 C1595 1.374 . S
C1595 H1575 0.950 . S
C1595 C1591 1.385 . S
C1595 C1594 1.374 . S
C1596 C1593 1.499 . S
C1596 C1597 1.373 . S
C1596 C1598 1.389 . S
C1597 H1576 0.950 . S
C1597 C1596 1.373 . S
C1597 C1613 1.377 . S
C1598 C1596 1.389 . S
C1598 C1599 1.524 . S
C1598 C1612 1.377 . S
C1599 C1598 1.524 . S
C1599 C1600 1.397 . S
C1599 C1604 1.363 . S
C1600 H1577 0.950 . S
C1600 C1599 1.397 . S
C1600 C1601 1.334 . S
C1601 H1578 0.950 . S
C1601 C1600 1.334 . S
C1601 C1602 1.287 . S
C1602 C1601 1.287 . S
C1602 C1603 1.524 . S
C1602 H1621 0.913 . S
C1603 H1579 0.950 . S
C1603 C1602 1.524 . S
C1603 C1604 1.415 . S
C1604 H1580 0.950 . S
C1604 C1599 1.363 . S
C1604 C1603 1.415 . S
C1605 H1581 0.951 . S
C1605 C1606 1.366 . S
C1605 C1607 1.388 . S
C1606 C1605 1.366 . S
C1606 C1610 1.385 . S
C1607 H1582 0.951 . S
C1607 C1605 1.388 . S
C1607 C1608 1.366 . S
C1608 C1607 1.366 . S
C1608 C1609 1.414 . S
C1608 C1611 1.499 . S
C1609 H1583 0.950 . S
C1609 C1608 1.414 . S
C1609 C1610 1.374 . S
C1610 H1584 0.950 . S
C1610 C1606 1.385 . S
C1610 C1609 1.374 . S
C1611 C1608 1.499 . S
C1611 C1612 1.373 . S
C1611 C1613 1.389 . S
C1612 H1585 0.950 . S
C1612 C1598 1.377 . S
C1612 C1611 1.373 . S
C1613 C1597 1.377 . S
C1613 C1611 1.389 . S
C1613 C1614 1.524 . S
C1614 C1613 1.524 . S
C1614 C1615 1.397 . S
C1614 C1619 1.363 . S
C1615 H1586 0.950 . S
C1615 C1614 1.397 . S
C1615 C1616 1.334 . S
C1616 H1587 0.950 . S
C1616 C1615 1.334 . S
C1616 C1617 1.287 . S
C1617 C1616 1.287 . S
C1617 C1618 1.524 . S
C1617 H1620 0.999 . S
C1618 H1588 0.950 . S
C1618 C1617 1.524 . S
C1618 C1619 1.415 . S
C1619 H1589 0.950 . S
C1619 C1614 1.363 . S
C1619 C1618 1.415 . S
H1620 C1617 0.999 . S
H1621 C1602 0.913 . S
H1622 C1640 0.951 . S
H1623 C1642 0.951 . S
H1624 C1644 0.950 . S
H1625 C1645 0.950 . S
H1626 C1647 0.950 . S
H1627 C1650 0.950 . S
H1628 C1651 0.950 . S
H1629 C1653 0.950 . S
H1630 C1654 0.950 . S
H1631 C1655 0.951 . S
H1632 C1657 0.951 . S
H1633 C1659 0.950 . S
H1634 C1660 0.950 . S
H1635 C1662 0.950 . S
H1636 C1665 0.950 . S
H1637 C1666 0.950 . S
H1638 C1668 0.950 . S
H1639 C1669 0.950 . S
C1640 H1622 0.951 . S
C1640 C1641 1.366 . S
C1640 C1642 1.388 . S
C1641 C1640 1.366 . S
C1641 C1645 1.385 . S
C1642 H1623 0.951 . S
C1642 C1640 1.388 . S
C1642 C1643 1.366 . S
C1643 C1642 1.366 . S
C1643 C1644 1.414 . S
C1643 C1646 1.499 . S
C1644 H1624 0.950 . S
C1644 C1643 1.414 . S
C1644 C1645 1.374 . S
C1645 H1625 0.950 . S
C1645 C1641 1.385 . S
C1645 C1644 1.374 . S
C1646 C1643 1.499 . S
C1646 C1647 1.373 . S
C1646 C1648 1.389 . S
C1647 H1626 0.950 . S
C1647 C1646 1.373 . S
C1647 C1663 1.377 . S
C1648 C1646 1.389 . S
C1648 C1649 1.524 . S
C1648 C1662 1.377 . S
C1649 C1648 1.524 . S
C1649 C1650 1.397 . S
C1649 C1654 1.363 . S
C1650 H1627 0.950 . S
C1650 C1649 1.397 . S
C1650 C1651 1.334 . S
C1651 H1628 0.950 . S
C1651 C1650 1.334 . S
C1651 C1652 1.287 . S
C1652 C1651 1.287 . S
C1652 C1653 1.524 . S
C1652 H1671 0.913 . S
C1653 H1629 0.950 . S
C1653 C1652 1.524 . S
C1653 C1654 1.415 . S
C1654 H1630 0.950 . S
C1654 C1649 1.363 . S
C1654 C1653 1.415 . S
C1655 H1631 0.951 . S
C1655 C1656 1.366 . S
C1655 C1657 1.388 . S
C1656 C1655 1.366 . S
C1656 C1660 1.385 . S
C1657 H1632 0.951 . S
C1657 C1655 1.388 . S
C1657 C1658 1.366 . S
C1658 C1657 1.366 . S
C1658 C1659 1.414 . S
C1658 C1661 1.499 . S
C1659 H1633 0.950 . S
C1659 C1658 1.414 . S
C1659 C1660 1.374 . S
C1660 H1634 0.950 . S
C1660 C1656 1.385 . S
C1660 C1659 1.374 . S
C1661 C1658 1.499 . S
C1661 C1662 1.373 . S
C1661 C1663 1.389 . S
C1662 H1635 0.950 . S
C1662 C1648 1.377 . S
C1662 C1661 1.373 . S
C1663 C1647 1.377 . S
C1663 C1661 1.389 . S
C1663 C1664 1.524 . S
C1664 C1663 1.524 . S
C1664 C1665 1.397 . S
C1664 C1669 1.363 . S
C1665 H1636 0.950 . S
C1665 C1664 1.397 . S
C1665 C1666 1.334 . S
C1666 H1637 0.950 . S
C1666 C1665 1.334 . S
C1666 C1667 1.287 . S
C1667 C1666 1.287 . S
C1667 C1668 1.524 . S
C1667 H1670 0.999 . S
C1668 H1638 0.950 . S
C1668 C1667 1.524 . S
C1668 C1669 1.415 . S
C1669 H1639 0.950 . S
C1669 C1664 1.363 . S
C1669 C1668 1.415 . S
H1670 C1667 0.999 . S
H1671 C1652 0.913 . S
H1672 C1690 0.951 . S
H1673 C1692 0.951 . S
H1674 C1694 0.950 . S
H1675 C1695 0.950 . S
H1676 C1697 0.950 . S
H1677 C1700 0.950 . S
H1678 C1701 0.950 . S
H1679 C1703 0.950 . S
H1680 C1704 0.950 . S
H1681 C1705 0.951 . S
H1682 C1707 0.951 . S
H1683 C1709 0.950 . S
H1684 C1710 0.950 . S
H1685 C1712 0.950 . S
H1686 C1715 0.950 . S
H1687 C1716 0.950 . S
H1688 C1718 0.950 . S
H1689 C1719 0.950 . S
C1690 H1672 0.951 . S
C1690 C1691 1.366 . S
C1690 C1692 1.388 . S
C1691 C1690 1.366 . S
C1691 C1695 1.385 . S
C1692 H1673 0.951 . S
C1692 C1690 1.388 . S
C1692 C1693 1.366 . S
C1693 C1692 1.366 . S
C1693 C1694 1.414 . S
C1693 C1696 1.499 . S
C1694 H1674 0.950 . S
C1694 C1693 1.414 . S
C1694 C1695 1.374 . S
C1695 H1675 0.950 . S
C1695 C1691 1.385 . S
C1695 C1694 1.374 . S
C1696 C1693 1.499 . S
C1696 C1697 1.373 . S
C1696 C1698 1.389 . S
C1697 H1676 0.950 . S
C1697 C1696 1.373 . S
C1697 C1713 1.377 . S
C1698 C1696 1.389 . S
C1698 C1699 1.524 . S
C1698 C1712 1.377 . S
C1699 C1698 1.524 . S
C1699 C1700 1.397 . S
C1699 C1704 1.363 . S
C1700 H1677 0.950 . S
C1700 C1699 1.397 . S
C1700 C1701 1.334 . S
C1701 H1678 0.950 . S
C1701 C1700 1.334 . S
C1701 C1702 1.287 . S
C1702 C1701 1.287 . S
C1702 C1703 1.524 . S
C1702 H1721 0.913 . S
C1703 H1679 0.950 . S
C1703 C1702 1.524 . S
C1703 C1704 1.415 . S
C1704 H1680 0.950 . S
C1704 C1699 1.363 . S
C1704 C1703 1.415 . S
C1705 H1681 0.951 . S
C1705 C1706 1.366 . S
C1705 C1707 1.388 . S
C1706 C1705 1.366 . S
C1706 C1710 1.385 . S
C1707 H1682 0.951 . S
C1707 C1705 1.388 . S
C1707 C1708 1.366 . S
C1708 C1707 1.366 . S
C1708 C1709 1.414 . S
C1708 C1711 1.499 . S
C1709 H1683 0.950 . S
C1709 C1708 1.414 . S
C1709 C1710 1.374 . S
C1710 H1684 0.950 . S
C1710 C1706 1.385 . S
C1710 C1709 1.374 . S
C1711 C1708 1.499 . S
C1711 C1712 1.373 . S
C1711 C1713 1.389 . S
C1712 H1685 0.950 . S
C1712 C1698 1.377 . S
C1712 C1711 1.373 . S
C1713 C1697 1.377 . S
C1713 C1711 1.389 . S
C1713 C1714 1.524 . S
C1714 C1713 1.524 . S
C1714 C1715 1.397 . S
C1714 C1719 1.363 . S
C1715 H1686 0.950 . S
C1715 C1714 1.397 . S
C1715 C1716 1.334 . S
C1716 H1687 0.950 . S
C1716 C1715 1.334 . S
C1716 C1717 1.287 . S
C1717 C1716 1.287 . S
C1717 C1718 1.524 . S
C1717 H1720 0.999 . S
C1718 H1688 0.950 . S
C1718 C1717 1.524 . S
C1718 C1719 1.415 . S
C1719 H1689 0.950 . S
C1719 C1714 1.363 . S
C1719 C1718 1.415 . S
H1720 C1717 0.999 . S
H1721 C1702 0.913 . S
H1722 C1740 0.951 . S
H1723 C1742 0.951 . S
H1724 C1744 0.950 . S
H1725 C1745 0.950 . S
H1726 C1747 0.950 . S
H1727 C1750 0.950 . S
H1728 C1751 0.950 . S
H1729 C1753 0.950 . S
H1730 C1754 0.950 . S
H1731 C1755 0.951 . S
H1732 C1757 0.951 . S
H1733 C1759 0.950 . S
H1734 C1760 0.950 . S
H1735 C1762 0.950 . S
H1736 C1765 0.950 . S
H1737 C1766 0.950 . S
H1738 C1768 0.950 . S
H1739 C1769 0.950 . S
C1740 H1722 0.951 . S
C1740 C1741 1.366 . S
C1740 C1742 1.388 . S
C1741 C1740 1.366 . S
C1741 C1745 1.385 . S
C1742 H1723 0.951 . S
C1742 C1740 1.388 . S
C1742 C1743 1.366 . S
C1743 C1742 1.366 . S
C1743 C1744 1.414 . S
C1743 C1746 1.499 . S
C1744 H1724 0.950 . S
C1744 C1743 1.414 . S
C1744 C1745 1.374 . S
C1745 H1725 0.950 . S
C1745 C1741 1.385 . S
C1745 C1744 1.374 . S
C1746 C1743 1.499 . S
C1746 C1747 1.373 . S
C1746 C1748 1.389 . S
C1747 H1726 0.950 . S
C1747 C1746 1.373 . S
C1747 C1763 1.377 . S
C1748 C1746 1.389 . S
C1748 C1749 1.524 . S
C1748 C1762 1.377 . S
C1749 C1748 1.524 . S
C1749 C1750 1.397 . S
C1749 C1754 1.363 . S
C1750 H1727 0.950 . S
C1750 C1749 1.397 . S
C1750 C1751 1.334 . S
C1751 H1728 0.950 . S
C1751 C1750 1.334 . S
C1751 C1752 1.287 . S
C1752 C1751 1.287 . S
C1752 C1753 1.524 . S
C1752 H1771 0.913 . S
C1753 H1729 0.950 . S
C1753 C1752 1.524 . S
C1753 C1754 1.415 . S
C1754 H1730 0.950 . S
C1754 C1749 1.363 . S
C1754 C1753 1.415 . S
C1755 H1731 0.951 . S
C1755 C1756 1.366 . S
C1755 C1757 1.388 . S
C1756 C1755 1.366 . S
C1756 C1760 1.385 . S
C1757 H1732 0.951 . S
C1757 C1755 1.388 . S
C1757 C1758 1.366 . S
C1758 C1757 1.366 . S
C1758 C1759 1.414 . S
C1758 C1761 1.499 . S
C1759 H1733 0.950 . S
C1759 C1758 1.414 . S
C1759 C1760 1.374 . S
C1760 H1734 0.950 . S
C1760 C1756 1.385 . S
C1760 C1759 1.374 . S
C1761 C1758 1.499 . S
C1761 C1762 1.373 . S
C1761 C1763 1.389 . S
C1762 H1735 0.950 . S
C1762 C1748 1.377 . S
C1762 C1761 1.373 . S
C1763 C1747 1.377 . S
C1763 C1761 1.389 . S
C1763 C1764 1.524 . S
C1764 C1763 1.524 . S
C1764 C1765 1.397 . S
C1764 C1769 1.363 . S
C1765 H1736 0.950 . S
C1765 C1764 1.397 . S
C1765 C1766 1.334 . S
C1766 H1737 0.950 . S
C1766 C1765 1.334 . S
C1766 C1767 1.287 . S
C1767 C1766 1.287 . S
C1767 C1768 1.524 . S
C1767 H1770 0.999 . S
C1768 H1738 0.950 . S
C1768 C1767 1.524 . S
C1768 C1769 1.415 . S
C1769 H1739 0.950 . S
C1769 C1764 1.363 . S
C1769 C1768 1.415 . S
H1770 C1767 0.999 . S
H1771 C1752 0.913 . S
H1772 C1790 0.951 . S
H1773 C1792 0.951 . S
H1774 C1794 0.950 . S
H1775 C1795 0.950 . S
H1776 C1797 0.950 . S
H1777 C1800 0.950 . S
H1778 C1801 0.950 . S
H1779 C1803 0.950 . S
H1780 C1804 0.950 . S
H1781 C1805 0.951 . S
H1782 C1807 0.951 . S
H1783 C1809 0.950 . S
H1784 C1810 0.950 . S
H1785 C1812 0.950 . S
H1786 C1815 0.950 . S
H1787 C1816 0.950 . S
H1788 C1818 0.950 . S
H1789 C1819 0.950 . S
C1790 H1772 0.951 . S
C1790 C1791 1.366 . S
C1790 C1792 1.388 . S
C1791 C1790 1.366 . S
C1791 C1795 1.385 . S
C1792 H1773 0.951 . S
C1792 C1790 1.388 . S
C1792 C1793 1.366 . S
C1793 C1792 1.366 . S
C1793 C1794 1.414 . S
C1793 C1796 1.499 . S
C1794 H1774 0.950 . S
C1794 C1793 1.414 . S
C1794 C1795 1.374 . S
C1795 H1775 0.950 . S
C1795 C1791 1.385 . S
C1795 C1794 1.374 . S
C1796 C1793 1.499 . S
C1796 C1797 1.373 . S
C1796 C1798 1.389 . S
C1797 H1776 0.950 . S
C1797 C1796 1.373 . S
C1797 C1813 1.377 . S
C1798 C1796 1.389 . S
C1798 C1799 1.524 . S
C1798 C1812 1.377 . S
C1799 C1798 1.524 . S
C1799 C1800 1.397 . S
C1799 C1804 1.363 . S
C1800 H1777 0.950 . S
C1800 C1799 1.397 . S
C1800 C1801 1.334 . S
C1801 H1778 0.950 . S
C1801 C1800 1.334 . S
C1801 C1802 1.287 . S
C1802 C1801 1.287 . S
C1802 C1803 1.524 . S
C1802 H1821 0.913 . S
C1803 H1779 0.950 . S
C1803 C1802 1.524 . S
C1803 C1804 1.415 . S
C1804 H1780 0.950 . S
C1804 C1799 1.363 . S
C1804 C1803 1.415 . S
C1805 H1781 0.951 . S
C1805 C1806 1.366 . S
C1805 C1807 1.388 . S
C1806 C1805 1.366 . S
C1806 C1810 1.385 . S
C1807 H1782 0.951 . S
C1807 C1805 1.388 . S
C1807 C1808 1.366 . S
C1808 C1807 1.366 . S
C1808 C1809 1.414 . S
C1808 C1811 1.499 . S
C1809 H1783 0.950 . S
C1809 C1808 1.414 . S
C1809 C1810 1.374 . S
C1810 H1784 0.950 . S
C1810 C1806 1.385 . S
C1810 C1809 1.374 . S
C1811 C1808 1.499 . S
C1811 C1812 1.373 . S
C1811 C1813 1.389 . S
C1812 H1785 0.950 . S
C1812 C1798 1.377 . S
C1812 C1811 1.373 . S
C1813 C1797 1.377 . S
C1813 C1811 1.389 . S
C1813 C1814 1.524 . S
C1814 C1813 1.524 . S
C1814 C1815 1.397 . S
C1814 C1819 1.363 . S
C1815 H1786 0.950 . S
C1815 C1814 1.397 . S
C1815 C1816 1.334 . S
C1816 H1787 0.950 . S
C1816 C1815 1.334 . S
C1816 C1817 1.287 . S
C1817 C1816 1.287 . S
C1817 C1818 1.524 . S
C1817 H1820 0.999 . S
C1818 H1788 0.950 . S
C1818 C1817 1.524 . S
C1818 C1819 1.415 . S
C1819 H1789 0.950 . S
C1819 C1814 1.363 . S
C1819 C1818 1.415 . S
H1820 C1817 0.999 . S
H1821 C1802 0.913 . S
H1822 C1840 0.951 . S
H1823 C1842 0.951 . S
H1824 C1844 0.950 . S
H1825 C1845 0.950 . S
H1826 C1847 0.950 . S
H1827 C1850 0.950 . S
H1828 C1851 0.950 . S
H1829 C1853 0.950 . S
H1830 C1854 0.950 . S
H1831 C1855 0.951 . S
H1832 C1857 0.951 . S
H1833 C1859 0.950 . S
H1834 C1860 0.950 . S
H1835 C1862 0.950 . S
H1836 C1865 0.950 . S
H1837 C1866 0.950 . S
H1838 C1868 0.950 . S
H1839 C1869 0.950 . S
C1840 H1822 0.951 . S
C1840 C1841 1.366 . S
C1840 C1842 1.388 . S
C1841 C1840 1.366 . S
C1841 C1845 1.385 . S
C1842 H1823 0.951 . S
C1842 C1840 1.388 . S
C1842 C1843 1.366 . S
C1843 C1842 1.366 . S
C1843 C1844 1.414 . S
C1843 C1846 1.499 . S
C1844 H1824 0.950 . S
C1844 C1843 1.414 . S
C1844 C1845 1.374 . S
C1845 H1825 0.950 . S
C1845 C1841 1.385 . S
C1845 C1844 1.374 . S
C1846 C1843 1.499 . S
C1846 C1847 1.373 . S
C1846 C1848 1.389 . S
C1847 H1826 0.950 . S
C1847 C1846 1.373 . S
C1847 C1863 1.377 . S
C1848 C1846 1.389 . S
C1848 C1849 1.524 . S
C1848 C1862 1.377 . S
C1849 C1848 1.524 . S
C1849 C1850 1.397 . S
C1849 C1854 1.363 . S
C1850 H1827 0.950 . S
C1850 C1849 1.397 . S
C1850 C1851 1.334 . S
C1851 H1828 0.950 . S
C1851 C1850 1.334 . S
C1851 C1852 1.287 . S
C1852 C1851 1.287 . S
C1852 C1853 1.524 . S
C1852 H1871 0.913 . S
C1853 H1829 0.950 . S
C1853 C1852 1.524 . S
C1853 C1854 1.415 . S
C1854 H1830 0.950 . S
C1854 C1849 1.363 . S
C1854 C1853 1.415 . S
C1855 H1831 0.951 . S
C1855 C1856 1.366 . S
C1855 C1857 1.388 . S
C1856 C1855 1.366 . S
C1856 C1860 1.385 . S
C1857 H1832 0.951 . S
C1857 C1855 1.388 . S
C1857 C1858 1.366 . S
C1858 C1857 1.366 . S
C1858 C1859 1.414 . S
C1858 C1861 1.499 . S
C1859 H1833 0.950 . S
C1859 C1858 1.414 . S
C1859 C1860 1.374 . S
C1860 H1834 0.950 . S
C1860 C1856 1.385 . S
C1860 C1859 1.374 . S
C1861 C1858 1.499 . S
C1861 C1862 1.373 . S
C1861 C1863 1.389 . S
C1862 H1835 0.950 . S
C1862 C1848 1.377 . S
C1862 C1861 1.373 . S
C1863 C1847 1.377 . S
C1863 C1861 1.389 . S
C1863 C1864 1.524 . S
C1864 C1863 1.524 . S
C1864 C1865 1.397 . S
C1864 C1869 1.363 . S
C1865 H1836 0.950 . S
C1865 C1864 1.397 . S
C1865 C1866 1.334 . S
C1866 H1837 0.950 . S
C1866 C1865 1.334 . S
C1866 C1867 1.287 . S
C1867 C1866 1.287 . S
C1867 C1868 1.524 . S
C1867 H1870 0.999 . S
C1868 H1838 0.950 . S
C1868 C1867 1.524 . S
C1868 C1869 1.415 . S
C1869 H1839 0.950 . S
C1869 C1864 1.363 . S
C1869 C1868 1.415 . S
H1870 C1867 0.999 . S
H1871 C1852 0.913 . S
H1872 C1890 0.951 . S
H1873 C1892 0.951 . S
H1874 C1894 0.950 . S
H1875 C1895 0.950 1_554 S
H1876 C1897 0.950 . S
H1877 C1900 0.950 . S
H1878 C1901 0.950 . S
H1879 C1903 0.950 . S
H1880 C1904 0.950 . S
H1881 C1905 0.951 . S
H1882 C1907 0.951 . S
H1883 C1909 0.950 . S
H1884 C1910 0.950 . S
H1885 C1912 0.950 . S
H1886 C1915 0.950 . S
H1887 C1916 0.950 . S
H1888 C1918 0.950 . S
H1889 C1919 0.950 . S
C1890 H1872 0.951 . S
C1890 C1891 1.366 . S
C1890 C1892 1.388 . S
C1891 C1890 1.366 . S
C1891 C1895 1.385 . S
C1892 H1873 0.951 . S
C1892 C1890 1.388 . S
C1892 C1893 1.366 . S
C1893 C1892 1.366 . S
C1893 C1894 1.414 . S
C1893 C1896 1.499 . S
C1894 H1874 0.950 . S
C1894 C1893 1.414 . S
C1894 C1895 1.374 . S
C1895 H1875 0.950 1_556 S
C1895 C1891 1.385 . S
C1895 C1894 1.374 . S
C1896 C1893 1.499 . S
C1896 C1897 1.373 . S
C1896 C1898 1.389 . S
C1897 H1876 0.950 . S
C1897 C1896 1.373 . S
C1897 C1913 1.377 . S
C1898 C1896 1.389 . S
C1898 C1899 1.524 . S
C1898 C1912 1.377 . S
C1899 C1898 1.524 . S
C1899 C1900 1.397 . S
C1899 C1904 1.363 . S
C1900 H1877 0.950 . S
C1900 C1899 1.397 . S
C1900 C1901 1.334 . S
C1901 H1878 0.950 . S
C1901 C1900 1.334 . S
C1901 C1902 1.287 . S
C1902 C1901 1.287 . S
C1902 C1903 1.524 . S
C1902 H1921 0.913 . S
C1903 H1879 0.950 . S
C1903 C1902 1.524 . S
C1903 C1904 1.415 . S
C1904 H1880 0.950 . S
C1904 C1899 1.363 . S
C1904 C1903 1.415 . S
C1905 H1881 0.951 . S
C1905 C1906 1.366 . S
C1905 C1907 1.388 . S
C1906 C1905 1.366 . S
C1906 C1910 1.385 . S
C1907 H1882 0.951 . S
C1907 C1905 1.388 . S
C1907 C1908 1.366 . S
C1908 C1907 1.366 . S
C1908 C1909 1.414 . S
C1908 C1911 1.499 . S
C1909 H1883 0.950 . S
C1909 C1908 1.414 . S
C1909 C1910 1.374 . S
C1910 H1884 0.950 . S
C1910 C1906 1.385 . S
C1910 C1909 1.374 . S
C1911 C1908 1.499 . S
C1911 C1912 1.373 . S
C1911 C1913 1.389 . S
C1912 H1885 0.950 . S
C1912 C1898 1.377 . S
C1912 C1911 1.373 . S
C1913 C1897 1.377 . S
C1913 C1911 1.389 . S
C1913 C1914 1.524 . S
C1914 C1913 1.524 . S
C1914 C1915 1.397 . S
C1914 C1919 1.363 . S
C1915 H1886 0.950 . S
C1915 C1914 1.397 . S
C1915 C1916 1.334 . S
C1916 H1887 0.950 . S
C1916 C1915 1.334 . S
C1916 C1917 1.287 . S
C1917 C1916 1.287 . S
C1917 C1918 1.524 . S
C1917 H1920 0.999 . S
C1918 H1888 0.950 . S
C1918 C1917 1.524 . S
C1918 C1919 1.415 . S
C1919 H1889 0.950 . S
C1919 C1914 1.363 . S
C1919 C1918 1.415 . S
H1920 C1917 0.999 . S
H1921 C1902 0.913 . S
H1922 C1940 0.951 . S
H1923 C1942 0.951 . S
H1924 C1944 0.950 . S
H1925 C1945 0.950 . S
H1926 C1947 0.950 . S
H1927 C1950 0.950 . S
H1928 C1951 0.950 . S
H1929 C1953 0.950 . S
H1930 C1954 0.950 . S
H1931 C1955 0.951 . S
H1932 C1957 0.951 . S
H1933 C1959 0.950 . S
H1934 C1960 0.950 . S
H1935 C1962 0.950 . S
H1936 C1965 0.950 . S
H1937 C1966 0.950 . S
H1938 C1968 0.950 . S
H1939 C1969 0.950 . S
C1940 H1922 0.951 . S
C1940 C1941 1.366 . S
C1940 C1942 1.388 . S
C1941 C1940 1.366 . S
C1941 C1945 1.385 . S
C1942 H1923 0.951 . S
C1942 C1940 1.388 . S
C1942 C1943 1.366 . S
C1943 C1942 1.366 . S
C1943 C1944 1.414 . S
C1943 C1946 1.499 . S
C1944 H1924 0.950 . S
C1944 C1943 1.414 . S
C1944 C1945 1.374 . S
C1945 H1925 0.950 . S
C1945 C1941 1.385 . S
C1945 C1944 1.374 . S
C1946 C1943 1.499 . S
C1946 C1947 1.373 . S
C1946 C1948 1.389 . S
C1947 H1926 0.950 . S
C1947 C1946 1.373 . S
C1947 C1963 1.377 . S
C1948 C1946 1.389 . S
C1948 C1949 1.524 . S
C1948 C1962 1.377 . S
C1949 C1948 1.524 . S
C1949 C1950 1.397 . S
C1949 C1954 1.363 . S
C1950 H1927 0.950 . S
C1950 C1949 1.397 . S
C1950 C1951 1.334 . S
C1951 H1928 0.950 . S
C1951 C1950 1.334 . S
C1951 C1952 1.287 . S
C1952 C1951 1.287 . S
C1952 C1953 1.524 . S
C1952 H1971 0.913 . S
C1953 H1929 0.950 . S
C1953 C1952 1.524 . S
C1953 C1954 1.415 . S
C1954 H1930 0.950 . S
C1954 C1949 1.363 . S
C1954 C1953 1.415 . S
C1955 H1931 0.951 . S
C1955 C1956 1.366 . S
C1955 C1957 1.388 . S
C1956 C1955 1.366 . S
C1956 C1960 1.385 . S
C1957 H1932 0.951 . S
C1957 C1955 1.388 . S
C1957 C1958 1.366 . S
C1958 C1957 1.366 . S
C1958 C1959 1.414 . S
C1958 C1961 1.499 . S
C1959 H1933 0.950 . S
C1959 C1958 1.414 . S
C1959 C1960 1.374 . S
C1960 H1934 0.950 . S
C1960 C1956 1.385 . S
C1960 C1959 1.374 . S
C1961 C1958 1.499 . S
C1961 C1962 1.373 . S
C1961 C1963 1.389 . S
C1962 H1935 0.950 . S
C1962 C1948 1.377 . S
C1962 C1961 1.373 . S
C1963 C1947 1.377 . S
C1963 C1961 1.389 . S
C1963 C1964 1.524 . S
C1964 C1963 1.524 . S
C1964 C1965 1.397 . S
C1964 C1969 1.363 . S
C1965 H1936 0.950 . S
C1965 C1964 1.397 . S
C1965 C1966 1.334 . S
C1966 H1937 0.950 . S
C1966 C1965 1.334 . S
C1966 C1967 1.287 . S
C1967 C1966 1.287 . S
C1967 C1968 1.524 . S
C1967 H1970 0.999 . S
C1968 H1938 0.950 . S
C1968 C1967 1.524 . S
C1968 C1969 1.415 . S
C1969 H1939 0.950 . S
C1969 C1964 1.363 . S
C1969 C1968 1.415 . S
H1970 C1967 0.999 . S
H1971 C1952 0.913 . S
H1972 C1990 0.951 . S
H1973 C1992 0.951 . S
H1974 C1994 0.950 . S
H1975 C1995 0.950 . S
H1976 C1997 0.950 . S
H1977 C2000 0.950 . S
H1978 C2001 0.950 . S
H1979 C2003 0.950 . S
H1980 C2004 0.950 . S
H1981 C2005 0.951 . S
H1982 C2007 0.951 . S
H1983 C2009 0.950 . S
H1984 C2010 0.950 . S
H1985 C2012 0.950 . S
H1986 C2015 0.950 . S
H1987 C2016 0.950 . S
H1988 C2018 0.950 . S
H1989 C2019 0.950 . S
C1990 H1972 0.951 . S
C1990 C1991 1.366 . S
C1990 C1992 1.388 . S
C1991 C1990 1.366 . S
C1991 C1995 1.385 . S
C1992 H1973 0.951 . S
C1992 C1990 1.388 . S
C1992 C1993 1.366 . S
C1993 C1992 1.366 . S
C1993 C1994 1.414 . S
C1993 C1996 1.499 . S
C1994 H1974 0.950 . S
C1994 C1993 1.414 . S
C1994 C1995 1.374 . S
C1995 H1975 0.950 . S
C1995 C1991 1.385 . S
C1995 C1994 1.374 . S
C1996 C1993 1.499 . S
C1996 C1997 1.373 . S
C1996 C1998 1.389 . S
C1997 H1976 0.950 . S
C1997 C1996 1.373 . S
C1997 C2013 1.377 . S
C1998 C1996 1.389 . S
C1998 C1999 1.524 . S
C1998 C2012 1.377 . S
C1999 C1998 1.524 . S
C1999 C2000 1.397 . S
C1999 C2004 1.363 . S
C2000 H1977 0.950 . S
C2000 C1999 1.397 . S
C2000 C2001 1.334 . S
C2001 H1978 0.950 . S
C2001 C2000 1.334 . S
C2001 C2002 1.287 . S
C2002 C2001 1.287 . S
C2002 C2003 1.524 . S
C2002 H2021 0.913 . S
C2003 H1979 0.950 . S
C2003 C2002 1.524 . S
C2003 C2004 1.415 . S
C2004 H1980 0.950 . S
C2004 C1999 1.363 . S
C2004 C2003 1.415 . S
C2005 H1981 0.951 . S
C2005 C2006 1.366 . S
C2005 C2007 1.388 . S
C2006 C2005 1.366 . S
C2006 C2010 1.385 . S
C2007 H1982 0.951 . S
C2007 C2005 1.388 . S
C2007 C2008 1.366 . S
C2008 C2007 1.366 . S
C2008 C2009 1.414 . S
C2008 C2011 1.499 . S
C2009 H1983 0.950 . S
C2009 C2008 1.414 . S
C2009 C2010 1.374 . S
C2010 H1984 0.950 . S
C2010 C2006 1.385 . S
C2010 C2009 1.374 . S
C2011 C2008 1.499 . S
C2011 C2012 1.373 . S
C2011 C2013 1.389 . S
C2012 H1985 0.950 . S
C2012 C1998 1.377 . S
C2012 C2011 1.373 . S
C2013 C1997 1.377 . S
C2013 C2011 1.389 . S
C2013 C2014 1.524 . S
C2014 C2013 1.524 . S
C2014 C2015 1.397 . S
C2014 C2019 1.363 . S
C2015 H1986 0.950 . S
C2015 C2014 1.397 . S
C2015 C2016 1.334 . S
C2016 H1987 0.950 . S
C2016 C2015 1.334 . S
C2016 C2017 1.287 . S
C2017 C2016 1.287 . S
C2017 C2018 1.524 . S
C2017 H2020 0.999 . S
C2018 H1988 0.950 . S
C2018 C2017 1.524 . S
C2018 C2019 1.415 . S
C2019 H1989 0.950 . S
C2019 C2014 1.363 . S
C2019 C2018 1.415 . S
H2020 C2017 0.999 . S
H2021 C2002 0.913 . S
H2022 C2040 0.951 . S
H2023 C2042 0.951 . S
H2024 C2044 0.950 . S
H2025 C2045 0.950 . S
H2026 C2047 0.950 . S
H2027 C2050 0.950 . S
H2028 C2051 0.950 . S
H2029 C2053 0.950 . S
H2030 C2054 0.950 . S
H2031 C2055 0.951 . S
H2032 C2057 0.951 . S
H2033 C2059 0.950 . S
H2034 C2060 0.950 . S
H2035 C2062 0.950 . S
H2036 C2065 0.950 . S
H2037 C2066 0.950 . S
H2038 C2068 0.950 . S
H2039 C2069 0.950 . S
C2040 H2022 0.951 . S
C2040 C2041 1.366 . S
C2040 C2042 1.388 . S
C2041 C2040 1.366 . S
C2041 C2045 1.385 . S
C2042 H2023 0.951 . S
C2042 C2040 1.388 . S
C2042 C2043 1.366 . S
C2043 C2042 1.366 . S
C2043 C2044 1.414 . S
C2043 C2046 1.499 . S
C2044 H2024 0.950 . S
C2044 C2043 1.414 . S
C2044 C2045 1.374 . S
C2045 H2025 0.950 . S
C2045 C2041 1.385 . S
C2045 C2044 1.374 . S
C2046 C2043 1.499 . S
C2046 C2047 1.373 . S
C2046 C2048 1.389 . S
C2047 H2026 0.950 . S
C2047 C2046 1.373 . S
C2047 C2063 1.377 . S
C2048 C2046 1.389 . S
C2048 C2049 1.524 . S
C2048 C2062 1.377 . S
C2049 C2048 1.524 . S
C2049 C2050 1.397 . S
C2049 C2054 1.363 . S
C2050 H2027 0.950 . S
C2050 C2049 1.397 . S
C2050 C2051 1.334 . S
C2051 H2028 0.950 . S
C2051 C2050 1.334 . S
C2051 C2052 1.287 . S
C2052 C2051 1.287 . S
C2052 C2053 1.524 . S
C2052 H2071 0.913 . S
C2053 H2029 0.950 . S
C2053 C2052 1.524 . S
C2053 C2054 1.415 . S
C2054 H2030 0.950 . S
C2054 C2049 1.363 . S
C2054 C2053 1.415 . S
C2055 H2031 0.951 . S
C2055 C2056 1.366 . S
C2055 C2057 1.388 . S
C2056 C2055 1.366 . S
C2056 C2060 1.385 . S
C2057 H2032 0.951 . S
C2057 C2055 1.388 . S
C2057 C2058 1.366 . S
C2058 C2057 1.366 . S
C2058 C2059 1.414 . S
C2058 C2061 1.499 . S
C2059 H2033 0.950 . S
C2059 C2058 1.414 . S
C2059 C2060 1.374 . S
C2060 H2034 0.950 . S
C2060 C2056 1.385 . S
C2060 C2059 1.374 . S
C2061 C2058 1.499 . S
C2061 C2062 1.373 . S
C2061 C2063 1.389 . S
C2062 H2035 0.950 . S
C2062 C2048 1.377 . S
C2062 C2061 1.373 . S
C2063 C2047 1.377 . S
C2063 C2061 1.389 . S
C2063 C2064 1.524 . S
C2064 C2063 1.524 . S
C2064 C2065 1.397 . S
C2064 C2069 1.363 . S
C2065 H2036 0.950 . S
C2065 C2064 1.397 . S
C2065 C2066 1.334 . S
C2066 H2037 0.950 . S
C2066 C2065 1.334 . S
C2066 C2067 1.287 . S
C2067 C2066 1.287 . S
C2067 C2068 1.524 . S
C2067 H2070 0.999 . S
C2068 H2038 0.950 . S
C2068 C2067 1.524 . S
C2068 C2069 1.415 . S
C2069 H2039 0.950 . S
C2069 C2064 1.363 . S
C2069 C2068 1.415 . S
H2070 C2067 0.999 . S
H2071 C2052 0.913 . S
H2072 C2090 0.951 . S
H2073 C2092 0.951 . S
H2074 C2094 0.950 . S
H2075 C2095 0.950 . S
H2076 C2097 0.950 . S
H2077 C2100 0.950 . S
H2078 C2101 0.950 . S
H2079 C2103 0.950 . S
H2080 C2104 0.950 . S
H2081 C2105 0.951 . S
H2082 C2107 0.951 . S
H2083 C2109 0.950 . S
H2084 C2110 0.950 . S
H2085 C2112 0.950 . S
H2086 C2115 0.950 . S
H2087 C2116 0.950 . S
H2088 C2118 0.950 . S
H2089 C2119 0.950 . S
C2090 H2072 0.951 . S
C2090 C2091 1.366 . S
C2090 C2092 1.388 . S
C2091 C2090 1.366 . S
C2091 C2095 1.385 . S
C2092 H2073 0.951 . S
C2092 C2090 1.388 . S
C2092 C2093 1.366 . S
C2093 C2092 1.366 . S
C2093 C2094 1.414 . S
C2093 C2096 1.499 . S
C2094 H2074 0.950 . S
C2094 C2093 1.414 . S
C2094 C2095 1.374 . S
C2095 H2075 0.950 . S
C2095 C2091 1.385 . S
C2095 C2094 1.374 . S
C2096 C2093 1.499 . S
C2096 C2097 1.373 . S
C2096 C2098 1.389 . S
C2097 H2076 0.950 . S
C2097 C2096 1.373 . S
C2097 C2113 1.377 . S
C2098 C2096 1.389 . S
C2098 C2099 1.524 . S
C2098 C2112 1.377 . S
C2099 C2098 1.524 . S
C2099 C2100 1.397 . S
C2099 C2104 1.363 . S
C2100 H2077 0.950 . S
C2100 C2099 1.397 . S
C2100 C2101 1.334 . S
C2101 H2078 0.950 . S
C2101 C2100 1.334 . S
C2101 C2102 1.287 . S
C2102 C2101 1.287 . S
C2102 C2103 1.524 . S
C2102 H2121 0.913 . S
C2103 H2079 0.950 . S
C2103 C2102 1.524 . S
C2103 C2104 1.415 . S
C2104 H2080 0.950 . S
C2104 C2099 1.363 . S
C2104 C2103 1.415 . S
C2105 H2081 0.951 . S
C2105 C2106 1.366 . S
C2105 C2107 1.388 . S
C2106 C2105 1.366 . S
C2106 C2110 1.385 . S
C2107 H2082 0.951 . S
C2107 C2105 1.388 . S
C2107 C2108 1.366 . S
C2108 C2107 1.366 . S
C2108 C2109 1.414 . S
C2108 C2111 1.499 . S
C2109 H2083 0.950 . S
C2109 C2108 1.414 . S
C2109 C2110 1.374 . S
C2110 H2084 0.950 . S
C2110 C2106 1.385 . S
C2110 C2109 1.374 . S
C2111 C2108 1.499 . S
C2111 C2112 1.373 . S
C2111 C2113 1.389 . S
C2112 H2085 0.950 . S
C2112 C2098 1.377 . S
C2112 C2111 1.373 . S
C2113 C2097 1.377 . S
C2113 C2111 1.389 . S
C2113 C2114 1.524 . S
C2114 C2113 1.524 . S
C2114 C2115 1.397 . S
C2114 C2119 1.363 . S
C2115 H2086 0.950 . S
C2115 C2114 1.397 . S
C2115 C2116 1.334 . S
C2116 H2087 0.950 . S
C2116 C2115 1.334 . S
C2116 C2117 1.287 . S
C2117 C2116 1.287 . S
C2117 C2118 1.524 . S
C2117 H2120 0.999 . S
C2118 H2088 0.950 . S
C2118 C2117 1.524 . S
C2118 C2119 1.415 . S
C2119 H2089 0.950 . S
C2119 C2114 1.363 . S
C2119 C2118 1.415 . S
H2120 C2117 0.999 . S
H2121 C2102 0.913 . S
H2122 C2140 0.951 . S
H2123 C2142 0.951 . S
H2124 C2144 0.950 . S
H2125 C2145 0.950 . S
H2126 C2147 0.950 . S
H2127 C2150 0.950 . S
H2128 C2151 0.950 . S
H2129 C2153 0.950 . S
H2130 C2154 0.950 . S
H2131 C2155 0.951 . S
H2132 C2157 0.951 . S
H2133 C2159 0.950 . S
H2134 C2160 0.950 . S
H2135 C2162 0.950 . S
H2136 C2165 0.950 . S
H2137 C2166 0.950 . S
H2138 C2168 0.950 . S
H2139 C2169 0.950 . S
C2140 H2122 0.951 . S
C2140 C2141 1.366 . S
C2140 C2142 1.388 . S
C2141 C2140 1.366 . S
C2141 C2145 1.385 . S
C2142 H2123 0.951 . S
C2142 C2140 1.388 . S
C2142 C2143 1.366 . S
C2143 C2142 1.366 . S
C2143 C2144 1.414 . S
C2143 C2146 1.499 . S
C2144 H2124 0.950 . S
C2144 C2143 1.414 . S
C2144 C2145 1.374 . S
C2145 H2125 0.950 . S
C2145 C2141 1.385 . S
C2145 C2144 1.374 . S
C2146 C2143 1.499 . S
C2146 C2147 1.373 . S
C2146 C2148 1.389 . S
C2147 H2126 0.950 . S
C2147 C2146 1.373 . S
C2147 C2163 1.377 . S
C2148 C2146 1.389 . S
C2148 C2149 1.524 . S
C2148 C2162 1.377 . S
C2149 C2148 1.524 . S
C2149 C2150 1.397 . S
C2149 C2154 1.363 . S
C2150 H2127 0.950 . S
C2150 C2149 1.397 . S
C2150 C2151 1.334 . S
C2151 H2128 0.950 . S
C2151 C2150 1.334 . S
C2151 C2152 1.287 . S
C2152 C2151 1.287 . S
C2152 C2153 1.524 . S
C2152 H2171 0.913 . S
C2153 H2129 0.950 . S
C2153 C2152 1.524 . S
C2153 C2154 1.415 . S
C2154 H2130 0.950 . S
C2154 C2149 1.363 . S
C2154 C2153 1.415 . S
C2155 H2131 0.951 . S
C2155 C2156 1.366 . S
C2155 C2157 1.388 . S
C2156 C2155 1.366 . S
C2156 C2160 1.385 . S
C2157 H2132 0.951 . S
C2157 C2155 1.388 . S
C2157 C2158 1.366 . S
C2158 C2157 1.366 . S
C2158 C2159 1.414 . S
C2158 C2161 1.499 . S
C2159 H2133 0.950 . S
C2159 C2158 1.414 . S
C2159 C2160 1.374 . S
C2160 H2134 0.950 . S
C2160 C2156 1.385 . S
C2160 C2159 1.374 . S
C2161 C2158 1.499 . S
C2161 C2162 1.373 . S
C2161 C2163 1.389 . S
C2162 H2135 0.950 . S
C2162 C2148 1.377 . S
C2162 C2161 1.373 . S
C2163 C2147 1.377 . S
C2163 C2161 1.389 . S
C2163 C2164 1.524 . S
C2164 C2163 1.524 . S
C2164 C2165 1.397 . S
C2164 C2169 1.363 . S
C2165 H2136 0.950 . S
C2165 C2164 1.397 . S
C2165 C2166 1.334 . S
C2166 H2137 0.950 . S
C2166 C2165 1.334 . S
C2166 C2167 1.287 . S
C2167 C2166 1.287 . S
C2167 C2168 1.524 . S
C2167 H2170 0.999 . S
C2168 H2138 0.950 . S
C2168 C2167 1.524 . S
C2168 C2169 1.415 . S
C2169 H2139 0.950 . S
C2169 C2164 1.363 . S
C2169 C2168 1.415 . S
H2170 C2167 0.999 . S
H2171 C2152 0.913 . S
H2172 C2190 0.951 . S
H2173 C2192 0.951 . S
H2174 C2194 0.950 . S
H2175 C2195 0.950 . S
H2176 C2197 0.950 . S
H2177 C2200 0.950 . S
H2178 C2201 0.950 . S
H2179 C2203 0.950 . S
H2180 C2204 0.950 . S
H2181 C2205 0.951 . S
H2182 C2207 0.951 . S
H2183 C2209 0.950 . S
H2184 C2210 0.950 . S
H2185 C2212 0.950 . S
H2186 C2215 0.950 . S
H2187 C2216 0.950 . S
H2188 C2218 0.950 . S
H2189 C2219 0.950 . S
C2190 H2172 0.951 . S
C2190 C2191 1.366 . S
C2190 C2192 1.388 . S
C2191 C2190 1.366 . S
C2191 C2195 1.385 . S
C2192 H2173 0.951 . S
C2192 C2190 1.388 . S
C2192 C2193 1.366 . S
C2193 C2192 1.366 . S
C2193 C2194 1.414 . S
C2193 C2196 1.499 . S
C2194 H2174 0.950 . S
C2194 C2193 1.414 . S
C2194 C2195 1.374 . S
C2195 H2175 0.950 . S
C2195 C2191 1.385 . S
C2195 C2194 1.374 . S
C2196 C2193 1.499 . S
C2196 C2197 1.373 . S
C2196 C2198 1.389 . S
C2197 H2176 0.950 . S
C2197 C2196 1.373 . S
C2197 C2213 1.377 . S
C2198 C2196 1.389 . S
C2198 C2199 1.524 . S
C2198 C2212 1.377 . S
C2199 C2198 1.524 . S
C2199 C2200 1.397 . S
C2199 C2204 1.363 . S
C2200 H2177 0.950 . S
C2200 C2199 1.397 . S
C2200 C2201 1.334 . S
C2201 H2178 0.950 . S
C2201 C2200 1.334 . S
C2201 C2202 1.287 . S
C2202 C2201 1.287 . S
C2202 C2203 1.524 . S
C2202 H2221 0.913 . S
C2203 H2179 0.950 . S
C2203 C2202 1.524 . S
C2203 C2204 1.415 . S
C2204 H2180 0.950 . S
C2204 C2199 1.363 . S
C2204 C2203 1.415 . S
C2205 H2181 0.951 . S
C2205 C2206 1.366 . S
C2205 C2207 1.388 . S
C2206 C2205 1.366 . S
C2206 C2210 1.385 . S
C2207 H2182 0.951 . S
C2207 C2205 1.388 . S
C2207 C2208 1.366 . S
C2208 C2207 1.366 . S
C2208 C2209 1.414 . S
C2208 C2211 1.499 . S
C2209 H2183 0.950 . S
C2209 C2208 1.414 . S
C2209 C2210 1.374 . S
C2210 H2184 0.950 . S
C2210 C2206 1.385 . S
C2210 C2209 1.374 . S
C2211 C2208 1.499 . S
C2211 C2212 1.373 . S
C2211 C2213 1.389 . S
C2212 H2185 0.950 . S
C2212 C2198 1.377 . S
C2212 C2211 1.373 . S
C2213 C2197 1.377 . S
C2213 C2211 1.389 . S
C2213 C2214 1.524 . S
C2214 C2213 1.524 . S
C2214 C2215 1.397 . S
C2214 C2219 1.363 . S
C2215 H2186 0.950 . S
C2215 C2214 1.397 . S
C2215 C2216 1.334 . S
C2216 H2187 0.950 . S
C2216 C2215 1.334 . S
C2216 C2217 1.287 . S
C2217 C2216 1.287 . S
C2217 C2218 1.524 . S
C2217 H2220 0.999 . S
C2218 H2188 0.950 . S
C2218 C2217 1.524 . S
C2218 C2219 1.415 . S
C2219 H2189 0.950 . S
C2219 C2214 1.363 . S
C2219 C2218 1.415 . S
H2220 C2217 0.999 . S
H2221 C2202 0.913 . S
H2222 C2240 0.951 . S
H2223 C2242 0.951 . S
H2224 C2244 0.950 . S
H2225 C2245 0.950 . S
H2226 C2247 0.950 . S
H2227 C2250 0.950 . S
H2228 C2251 0.950 . S
H2229 C2253 0.950 . S
H2230 C2254 0.950 . S
H2231 C2255 0.951 . S
H2232 C2257 0.951 . S
H2233 C2259 0.950 . S
H2234 C2260 0.950 . S
H2235 C2262 0.950 . S
H2236 C2265 0.950 . S
H2237 C2266 0.950 . S
H2238 C2268 0.950 . S
H2239 C2269 0.950 . S
C2240 H2222 0.951 . S
C2240 C2241 1.366 . S
C2240 C2242 1.388 . S
C2241 C2240 1.366 . S
C2241 C2245 1.385 . S
C2242 H2223 0.951 . S
C2242 C2240 1.388 . S
C2242 C2243 1.366 . S
C2243 C2242 1.366 . S
C2243 C2244 1.414 . S
C2243 C2246 1.499 . S
C2244 H2224 0.950 . S
C2244 C2243 1.414 . S
C2244 C2245 1.374 . S
C2245 H2225 0.950 . S
C2245 C2241 1.385 . S
C2245 C2244 1.374 . S
C2246 C2243 1.499 . S
C2246 C2247 1.373 . S
C2246 C2248 1.389 . S
C2247 H2226 0.950 . S
C2247 C2246 1.373 . S
C2247 C2263 1.377 . S
C2248 C2246 1.389 . S
C2248 C2249 1.524 . S
C2248 C2262 1.377 . S
C2249 C2248 1.524 . S
C2249 C2250 1.397 . S
C2249 C2254 1.363 . S
C2250 H2227 0.950 . S
C2250 C2249 1.397 . S
C2250 C2251 1.334 . S
C2251 H2228 0.950 . S
C2251 C2250 1.334 . S
C2251 C2252 1.287 . S
C2252 C2251 1.287 . S
C2252 C2253 1.524 . S
C2252 H2271 0.913 . S
C2253 H2229 0.950 . S
C2253 C2252 1.524 . S
C2253 C2254 1.415 . S
C2254 H2230 0.950 . S
C2254 C2249 1.363 . S
C2254 C2253 1.415 . S
C2255 H2231 0.951 . S
C2255 C2256 1.366 . S
C2255 C2257 1.388 . S
C2256 C2255 1.366 . S
C2256 C2260 1.385 . S
C2257 H2232 0.951 . S
C2257 C2255 1.388 . S
C2257 C2258 1.366 . S
C2258 C2257 1.366 . S
C2258 C2259 1.414 . S
C2258 C2261 1.499 . S
C2259 H2233 0.950 . S
C2259 C2258 1.414 . S
C2259 C2260 1.374 . S
C2260 H2234 0.950 . S
C2260 C2256 1.385 . S
C2260 C2259 1.374 . S
C2261 C2258 1.499 . S
C2261 C2262 1.373 . S
C2261 C2263 1.389 . S
C2262 H2235 0.950 . S
C2262 C2248 1.377 . S
C2262 C2261 1.373 . S
C2263 C2247 1.377 . S
C2263 C2261 1.389 . S
C2263 C2264 1.524 . S
C2264 C2263 1.524 . S
C2264 C2265 1.397 . S
C2264 C2269 1.363 . S
C2265 H2236 0.950 . S
C2265 C2264 1.397 . S
C2265 C2266 1.334 . S
C2266 H2237 0.950 . S
C2266 C2265 1.334 . S
C2266 C2267 1.287 . S
C2267 C2266 1.287 . S
C2267 C2268 1.524 . S
C2267 H2270 0.999 . S
C2268 H2238 0.950 . S
C2268 C2267 1.524 . S
C2268 C2269 1.415 . S
C2269 H2239 0.950 . S
C2269 C2264 1.363 . S
C2269 C2268 1.415 . S
H2270 C2267 0.999 . S
H2271 C2252 0.913 . S
H2272 C2290 0.951 . S
H2273 C2292 0.951 . S
H2274 C2294 0.950 . S
H2275 C2295 0.950 . S
H2276 C2297 0.950 . S
H2277 C2300 0.950 . S
H2278 C2301 0.950 . S
H2279 C2303 0.950 . S
H2280 C2304 0.950 . S
H2281 C2305 0.951 . S
H2282 C2307 0.951 . S
H2283 C2309 0.950 . S
H2284 C2310 0.950 . S
H2285 C2312 0.950 . S
H2286 C2315 0.950 . S
H2287 C2316 0.950 . S
H2288 C2318 0.950 . S
H2289 C2319 0.950 . S
C2290 H2272 0.951 . S
C2290 C2291 1.366 . S
C2290 C2292 1.388 . S
C2291 C2290 1.366 . S
C2291 C2295 1.385 . S
C2292 H2273 0.951 . S
C2292 C2290 1.388 . S
C2292 C2293 1.366 . S
C2293 C2292 1.366 . S
C2293 C2294 1.414 . S
C2293 C2296 1.499 . S
C2294 H2274 0.950 . S
C2294 C2293 1.414 . S
C2294 C2295 1.374 . S
C2295 H2275 0.950 . S
C2295 C2291 1.385 . S
C2295 C2294 1.374 . S
C2296 C2293 1.499 . S
C2296 C2297 1.373 . S
C2296 C2298 1.389 . S
C2297 H2276 0.950 . S
C2297 C2296 1.373 . S
C2297 C2313 1.377 . S
C2298 C2296 1.389 . S
C2298 C2299 1.524 . S
C2298 C2312 1.377 . S
C2299 C2298 1.524 . S
C2299 C2300 1.397 . S
C2299 C2304 1.363 . S
C2300 H2277 0.950 . S
C2300 C2299 1.397 . S
C2300 C2301 1.334 . S
C2301 H2278 0.950 . S
C2301 C2300 1.334 . S
C2301 C2302 1.287 . S
C2302 C2301 1.287 . S
C2302 C2303 1.524 . S
C2302 H2321 0.913 . S
C2303 H2279 0.950 . S
C2303 C2302 1.524 . S
C2303 C2304 1.415 . S
C2304 H2280 0.950 . S
C2304 C2299 1.363 . S
C2304 C2303 1.415 . S
C2305 H2281 0.951 . S
C2305 C2306 1.366 . S
C2305 C2307 1.388 . S
C2306 C2305 1.366 . S
C2306 C2310 1.385 . S
C2307 H2282 0.951 . S
C2307 C2305 1.388 . S
C2307 C2308 1.366 . S
C2308 C2307 1.366 . S
C2308 C2309 1.414 . S
C2308 C2311 1.499 . S
C2309 H2283 0.950 . S
C2309 C2308 1.414 . S
C2309 C2310 1.374 . S
C2310 H2284 0.950 . S
C2310 C2306 1.385 . S
C2310 C2309 1.374 . S
C2311 C2308 1.499 . S
C2311 C2312 1.373 . S
C2311 C2313 1.389 . S
C2312 H2285 0.950 . S
C2312 C2298 1.377 . S
C2312 C2311 1.373 . S
C2313 C2297 1.377 . S
C2313 C2311 1.389 . S
C2313 C2314 1.524 . S
C2314 C2313 1.524 . S
C2314 C2315 1.397 . S
C2314 C2319 1.363 . S
C2315 H2286 0.950 . S
C2315 C2314 1.397 . S
C2315 C2316 1.334 . S
C2316 H2287 0.950 . S
C2316 C2315 1.334 . S
C2316 C2317 1.287 . S
C2317 C2316 1.287 . S
C2317 C2318 1.524 . S
C2317 H2320 0.999 . S
C2318 H2288 0.950 . S
C2318 C2317 1.524 . S
C2318 C2319 1.415 . S
C2319 H2289 0.950 . S
C2319 C2314 1.363 . S
C2319 C2318 1.415 . S
H2320 C2317 0.999 . S
H2321 C2302 0.913 . S
H2322 C2340 0.951 . S
H2323 C2342 0.951 . S
H2324 C2344 0.950 . S
H2325 C2345 0.950 . S
H2326 C2347 0.950 . S
H2327 C2350 0.950 . S
H2328 C2351 0.950 . S
H2329 C2353 0.950 . S
H2330 C2354 0.950 . S
H2331 C2355 0.951 . S
H2332 C2357 0.951 . S
H2333 C2359 0.950 . S
H2334 C2360 0.950 . S
H2335 C2362 0.950 . S
H2336 C2365 0.950 . S
H2337 C2366 0.950 . S
H2338 C2368 0.950 . S
H2339 C2369 0.950 . S
C2340 H2322 0.951 . S
C2340 C2341 1.366 . S
C2340 C2342 1.388 . S
C2341 C2340 1.366 . S
C2341 C2345 1.385 . S
C2342 H2323 0.951 . S
C2342 C2340 1.388 . S
C2342 C2343 1.366 . S
C2343 C2342 1.366 . S
C2343 C2344 1.414 . S
C2343 C2346 1.499 . S
C2344 H2324 0.950 . S
C2344 C2343 1.414 . S
C2344 C2345 1.374 . S
C2345 H2325 0.950 . S
C2345 C2341 1.385 . S
C2345 C2344 1.374 . S
C2346 C2343 1.499 . S
C2346 C2347 1.373 . S
C2346 C2348 1.389 . S
C2347 H2326 0.950 . S
C2347 C2346 1.373 . S
C2347 C2363 1.377 . S
C2348 C2346 1.389 . S
C2348 C2349 1.524 . S
C2348 C2362 1.377 . S
C2349 C2348 1.524 . S
C2349 C2350 1.397 . S
C2349 C2354 1.363 . S
C2350 H2327 0.950 . S
C2350 C2349 1.397 . S
C2350 C2351 1.334 . S
C2351 H2328 0.950 . S
C2351 C2350 1.334 . S
C2351 C2352 1.287 . S
C2352 C2351 1.287 . S
C2352 C2353 1.524 . S
C2352 H2371 0.913 . S
C2353 H2329 0.950 . S
C2353 C2352 1.524 . S
C2353 C2354 1.415 . S
C2354 H2330 0.950 . S
C2354 C2349 1.363 . S
C2354 C2353 1.415 . S
C2355 H2331 0.951 . S
C2355 C2356 1.366 . S
C2355 C2357 1.388 . S
C2356 C2355 1.366 . S
C2356 C2360 1.385 . S
C2357 H2332 0.951 . S
C2357 C2355 1.388 . S
C2357 C2358 1.366 . S
C2358 C2357 1.366 . S
C2358 C2359 1.414 . S
C2358 C2361 1.499 . S
C2359 H2333 0.950 . S
C2359 C2358 1.414 . S
C2359 C2360 1.374 . S
C2360 H2334 0.950 . S
C2360 C2356 1.385 . S
C2360 C2359 1.374 . S
C2361 C2358 1.499 . S
C2361 C2362 1.373 . S
C2361 C2363 1.389 . S
C2362 H2335 0.950 . S
C2362 C2348 1.377 . S
C2362 C2361 1.373 . S
C2363 C2347 1.377 . S
C2363 C2361 1.389 . S
C2363 C2364 1.524 . S
C2364 C2363 1.524 . S
C2364 C2365 1.397 . S
C2364 C2369 1.363 . S
C2365 H2336 0.950 . S
C2365 C2364 1.397 . S
C2365 C2366 1.334 . S
C2366 H2337 0.950 . S
C2366 C2365 1.334 . S
C2366 C2367 1.287 . S
C2367 C2366 1.287 . S
C2367 C2368 1.524 . S
C2367 H2370 0.999 . S
C2368 H2338 0.950 . S
C2368 C2367 1.524 . S
C2368 C2369 1.415 . S
C2369 H2339 0.950 . S
C2369 C2364 1.363 . S
C2369 C2368 1.415 . S
H2370 C2367 0.999 . S
H2371 C2352 0.913 . S
H2372 C2390 0.951 . S
H2373 C2392 0.951 . S
H2374 C2394 0.950 . S
H2375 C2395 0.950 . S
H2376 C2397 0.950 . S
H2377 C2400 0.950 . S
H2378 C2401 0.950 1_545 S
H2379 C2403 0.950 . S
H2380 C2404 0.950 . S
H2381 C2405 0.951 . S
H2382 C2407 0.951 . S
H2383 C2409 0.950 . S
H2384 C2410 0.950 . S
H2385 C2412 0.950 . S
H2386 C2415 0.950 . S
H2387 C2416 0.950 . S
H2388 C2418 0.950 . S
H2389 C2419 0.950 . S
C2390 H2372 0.951 . S
C2390 C2391 1.366 . S
C2390 C2392 1.388 . S
C2391 C2390 1.366 . S
C2391 C2395 1.385 . S
C2392 H2373 0.951 . S
C2392 C2390 1.388 . S
C2392 C2393 1.366 . S
C2393 C2392 1.366 . S
C2393 C2394 1.414 . S
C2393 C2396 1.499 . S
C2394 H2374 0.950 . S
C2394 C2393 1.414 . S
C2394 C2395 1.374 . S
C2395 H2375 0.950 . S
C2395 C2391 1.385 . S
C2395 C2394 1.374 . S
C2396 C2393 1.499 . S
C2396 C2397 1.373 . S
C2396 C2398 1.389 . S
C2397 H2376 0.950 . S
C2397 C2396 1.373 . S
C2397 C2413 1.377 . S
C2398 C2396 1.389 . S
C2398 C2399 1.524 . S
C2398 C2412 1.377 . S
C2399 C2398 1.524 . S
C2399 C2400 1.397 . S
C2399 C2404 1.363 . S
C2400 H2377 0.950 . S
C2400 C2399 1.397 . S
C2400 C2401 1.334 . S
C2401 H2378 0.950 1_565 S
C2401 C2400 1.334 . S
C2401 C2402 1.287 . S
C2402 C2401 1.287 . S
C2402 C2403 1.524 . S
C2402 H2421 0.913 1_565 S
C2403 H2379 0.950 . S
C2403 C2402 1.524 . S
C2403 C2404 1.415 . S
C2404 H2380 0.950 . S
C2404 C2399 1.363 . S
C2404 C2403 1.415 . S
C2405 H2381 0.951 . S
C2405 C2406 1.366 . S
C2405 C2407 1.388 . S
C2406 C2405 1.366 . S
C2406 C2410 1.385 . S
C2407 H2382 0.951 . S
C2407 C2405 1.388 . S
C2407 C2408 1.366 . S
C2408 C2407 1.366 . S
C2408 C2409 1.414 . S
C2408 C2411 1.499 . S
C2409 H2383 0.950 . S
C2409 C2408 1.414 . S
C2409 C2410 1.374 . S
C2410 H2384 0.950 . S
C2410 C2406 1.385 . S
C2410 C2409 1.374 . S
C2411 C2408 1.499 . S
C2411 C2412 1.373 . S
C2411 C2413 1.389 . S
C2412 H2385 0.950 . S
C2412 C2398 1.377 . S
C2412 C2411 1.373 . S
C2413 C2397 1.377 . S
C2413 C2411 1.389 . S
C2413 C2414 1.524 . S
C2414 C2413 1.524 . S
C2414 C2415 1.397 . S
C2414 C2419 1.363 . S
C2415 H2386 0.950 . S
C2415 C2414 1.397 . S
C2415 C2416 1.334 . S
C2416 H2387 0.950 . S
C2416 C2415 1.334 . S
C2416 C2417 1.287 . S
C2417 C2416 1.287 . S
C2417 C2418 1.524 . S
C2417 H2420 0.999 . S
C2418 H2388 0.950 . S
C2418 C2417 1.524 . S
C2418 C2419 1.415 . S
C2419 H2389 0.950 . S
C2419 C2414 1.363 . S
C2419 C2418 1.415 . S
H2420 C2417 0.999 . S
H2421 C2402 0.913 1_545 S
H2422 C2440 0.951 . S
H2423 C2442 0.951 . S
H2424 C2444 0.950 . S
H2425 C2445 0.950 . S
H2426 C2447 0.950 . S
H2427 C2450 0.950 . S
H2428 C2451 0.950 . S
H2429 C2453 0.950 . S
H2430 C2454 0.950 . S
H2431 C2455 0.951 . S
H2432 C2457 0.951 . S
H2433 C2459 0.950 . S
H2434 C2460 0.950 . S
H2435 C2462 0.950 . S
H2436 C2465 0.950 . S
H2437 C2466 0.950 . S
H2438 C2468 0.950 . S
H2439 C2469 0.950 . S
C2440 H2422 0.951 . S
C2440 C2441 1.366 . S
C2440 C2442 1.388 . S
C2441 C2440 1.366 . S
C2441 C2445 1.385 . S
C2442 H2423 0.951 . S
C2442 C2440 1.388 . S
C2442 C2443 1.366 . S
C2443 C2442 1.366 . S
C2443 C2444 1.414 . S
C2443 C2446 1.499 . S
C2444 H2424 0.950 . S
C2444 C2443 1.414 . S
C2444 C2445 1.374 . S
C2445 H2425 0.950 . S
C2445 C2441 1.385 . S
C2445 C2444 1.374 . S
C2446 C2443 1.499 . S
C2446 C2447 1.373 . S
C2446 C2448 1.389 . S
C2447 H2426 0.950 . S
C2447 C2446 1.373 . S
C2447 C2463 1.377 . S
C2448 C2446 1.389 . S
C2448 C2449 1.524 . S
C2448 C2462 1.377 . S
C2449 C2448 1.524 . S
C2449 C2450 1.397 . S
C2449 C2454 1.363 . S
C2450 H2427 0.950 . S
C2450 C2449 1.397 . S
C2450 C2451 1.334 . S
C2451 H2428 0.950 . S
C2451 C2450 1.334 . S
C2451 C2452 1.287 . S
C2452 C2451 1.287 . S
C2452 C2453 1.524 . S
C2452 H2471 0.913 . S
C2453 H2429 0.950 . S
C2453 C2452 1.524 . S
C2453 C2454 1.415 . S
C2454 H2430 0.950 . S
C2454 C2449 1.363 . S
C2454 C2453 1.415 . S
C2455 H2431 0.951 . S
C2455 C2456 1.366 . S
C2455 C2457 1.388 . S
C2456 C2455 1.366 . S
C2456 C2460 1.385 . S
C2457 H2432 0.951 . S
C2457 C2455 1.388 . S
C2457 C2458 1.366 . S
C2458 C2457 1.366 . S
C2458 C2459 1.414 . S
C2458 C2461 1.499 . S
C2459 H2433 0.950 . S
C2459 C2458 1.414 . S
C2459 C2460 1.374 . S
C2460 H2434 0.950 . S
C2460 C2456 1.385 . S
C2460 C2459 1.374 . S
C2461 C2458 1.499 . S
C2461 C2462 1.373 . S
C2461 C2463 1.389 . S
C2462 H2435 0.950 . S
C2462 C2448 1.377 . S
C2462 C2461 1.373 . S
C2463 C2447 1.377 . S
C2463 C2461 1.389 . S
C2463 C2464 1.524 . S
C2464 C2463 1.524 . S
C2464 C2465 1.397 . S
C2464 C2469 1.363 . S
C2465 H2436 0.950 . S
C2465 C2464 1.397 . S
C2465 C2466 1.334 . S
C2466 H2437 0.950 . S
C2466 C2465 1.334 . S
C2466 C2467 1.287 . S
C2467 C2466 1.287 . S
C2467 C2468 1.524 . S
C2467 H2470 0.999 . S
C2468 H2438 0.950 . S
C2468 C2467 1.524 . S
C2468 C2469 1.415 . S
C2469 H2439 0.950 . S
C2469 C2464 1.363 . S
C2469 C2468 1.415 . S
H2470 C2467 0.999 . S
H2471 C2452 0.913 . S
H2472 C2490 0.951 . S
H2473 C2492 0.951 . S
H2474 C2494 0.950 . S
H2475 C2495 0.950 . S
H2476 C2497 0.950 . S
H2477 C2500 0.950 . S
H2478 C2501 0.950 . S
H2479 C2503 0.950 . S
H2480 C2504 0.950 . S
H2481 C2505 0.951 . S
H2482 C2507 0.951 . S
H2483 C2509 0.950 . S
H2484 C2510 0.950 . S
H2485 C2512 0.950 . S
H2486 C2515 0.950 . S
H2487 C2516 0.950 . S
H2488 C2518 0.950 . S
H2489 C2519 0.950 . S
C2490 H2472 0.951 . S
C2490 C2491 1.366 . S
C2490 C2492 1.388 . S
C2491 C2490 1.366 . S
C2491 C2495 1.385 . S
C2492 H2473 0.951 . S
C2492 C2490 1.388 . S
C2492 C2493 1.366 . S
C2493 C2492 1.366 . S
C2493 C2494 1.414 . S
C2493 C2496 1.499 . S
C2494 H2474 0.950 . S
C2494 C2493 1.414 . S
C2494 C2495 1.374 . S
C2495 H2475 0.950 . S
C2495 C2491 1.385 . S
C2495 C2494 1.374 . S
C2496 C2493 1.499 . S
C2496 C2497 1.373 . S
C2496 C2498 1.389 . S
C2497 H2476 0.950 . S
C2497 C2496 1.373 . S
C2497 C2513 1.377 . S
C2498 C2496 1.389 . S
C2498 C2499 1.524 . S
C2498 C2512 1.377 . S
C2499 C2498 1.524 . S
C2499 C2500 1.397 . S
C2499 C2504 1.363 . S
C2500 H2477 0.950 . S
C2500 C2499 1.397 . S
C2500 C2501 1.334 . S
C2501 H2478 0.950 . S
C2501 C2500 1.334 . S
C2501 C2502 1.287 . S
C2502 C2501 1.287 . S
C2502 C2503 1.524 . S
C2502 H2521 0.913 . S
C2503 H2479 0.950 . S
C2503 C2502 1.524 . S
C2503 C2504 1.415 . S
C2504 H2480 0.950 . S
C2504 C2499 1.363 . S
C2504 C2503 1.415 . S
C2505 H2481 0.951 . S
C2505 C2506 1.366 . S
C2505 C2507 1.388 . S
C2506 C2505 1.366 . S
C2506 C2510 1.385 . S
C2507 H2482 0.951 . S
C2507 C2505 1.388 . S
C2507 C2508 1.366 . S
C2508 C2507 1.366 . S
C2508 C2509 1.414 . S
C2508 C2511 1.499 . S
C2509 H2483 0.950 . S
C2509 C2508 1.414 . S
C2509 C2510 1.374 . S
C2510 H2484 0.950 . S
C2510 C2506 1.385 . S
C2510 C2509 1.374 . S
C2511 C2508 1.499 . S
C2511 C2512 1.373 . S
C2511 C2513 1.389 . S
C2512 H2485 0.950 . S
C2512 C2498 1.377 . S
C2512 C2511 1.373 . S
C2513 C2497 1.377 . S
C2513 C2511 1.389 . S
C2513 C2514 1.524 . S
C2514 C2513 1.524 . S
C2514 C2515 1.397 . S
C2514 C2519 1.363 . S
C2515 H2486 0.950 . S
C2515 C2514 1.397 . S
C2515 C2516 1.334 . S
C2516 H2487 0.950 . S
C2516 C2515 1.334 . S
C2516 C2517 1.287 . S
C2517 C2516 1.287 . S
C2517 C2518 1.524 . S
C2517 H2520 0.999 . S
C2518 H2488 0.950 . S
C2518 C2517 1.524 . S
C2518 C2519 1.415 . S
C2519 H2489 0.950 . S
C2519 C2514 1.363 . S
C2519 C2518 1.415 . S
H2520 C2517 0.999 . S
H2521 C2502 0.913 . S
H2522 C2540 0.951 . S
H2523 C2542 0.951 . S
H2524 C2544 0.950 . S
H2525 C2545 0.950 . S
H2526 C2547 0.950 . S
H2527 C2550 0.950 . S
H2528 C2551 0.950 . S
H2529 C2553 0.950 . S
H2530 C2554 0.950 . S
H2531 C2555 0.951 . S
H2532 C2557 0.951 . S
H2533 C2559 0.950 . S
H2534 C2560 0.950 . S
H2535 C2562 0.950 . S
H2536 C2565 0.950 . S
H2537 C2566 0.950 . S
H2538 C2568 0.950 . S
H2539 C2569 0.950 . S
C2540 H2522 0.951 . S
C2540 C2541 1.366 . S
C2540 C2542 1.388 . S
C2541 C2540 1.366 . S
C2541 C2545 1.385 . S
C2542 H2523 0.951 . S
C2542 C2540 1.388 . S
C2542 C2543 1.366 . S
C2543 C2542 1.366 . S
C2543 C2544 1.414 . S
C2543 C2546 1.499 . S
C2544 H2524 0.950 . S
C2544 C2543 1.414 . S
C2544 C2545 1.374 . S
C2545 H2525 0.950 . S
C2545 C2541 1.385 . S
C2545 C2544 1.374 . S
C2546 C2543 1.499 . S
C2546 C2547 1.373 . S
C2546 C2548 1.389 . S
C2547 H2526 0.950 . S
C2547 C2546 1.373 . S
C2547 C2563 1.377 . S
C2548 C2546 1.389 . S
C2548 C2549 1.524 . S
C2548 C2562 1.377 . S
C2549 C2548 1.524 . S
C2549 C2550 1.397 . S
C2549 C2554 1.363 . S
C2550 H2527 0.950 . S
C2550 C2549 1.397 . S
C2550 C2551 1.334 . S
C2551 H2528 0.950 . S
C2551 C2550 1.334 . S
C2551 C2552 1.287 . S
C2552 C2551 1.287 . S
C2552 C2553 1.524 . S
C2552 H2571 0.913 . S
C2553 H2529 0.950 . S
C2553 C2552 1.524 . S
C2553 C2554 1.415 . S
C2554 H2530 0.950 . S
C2554 C2549 1.363 . S
C2554 C2553 1.415 . S
C2555 H2531 0.951 . S
C2555 C2556 1.366 . S
C2555 C2557 1.388 . S
C2556 C2555 1.366 . S
C2556 C2560 1.385 . S
C2557 H2532 0.951 . S
C2557 C2555 1.388 . S
C2557 C2558 1.366 . S
C2558 C2557 1.366 . S
C2558 C2559 1.414 . S
C2558 C2561 1.499 . S
C2559 H2533 0.950 . S
C2559 C2558 1.414 . S
C2559 C2560 1.374 . S
C2560 H2534 0.950 . S
C2560 C2556 1.385 . S
C2560 C2559 1.374 . S
C2561 C2558 1.499 . S
C2561 C2562 1.373 . S
C2561 C2563 1.389 . S
C2562 H2535 0.950 . S
C2562 C2548 1.377 . S
C2562 C2561 1.373 . S
C2563 C2547 1.377 . S
C2563 C2561 1.389 . S
C2563 C2564 1.524 . S
C2564 C2563 1.524 . S
C2564 C2565 1.397 . S
C2564 C2569 1.363 . S
C2565 H2536 0.950 . S
C2565 C2564 1.397 . S
C2565 C2566 1.334 . S
C2566 H2537 0.950 . S
C2566 C2565 1.334 . S
C2566 C2567 1.287 . S
C2567 C2566 1.287 . S
C2567 C2568 1.524 . S
C2567 H2570 0.999 . S
C2568 H2538 0.950 . S
C2568 C2567 1.524 . S
C2568 C2569 1.415 . S
C2569 H2539 0.950 . S
C2569 C2564 1.363 . S
C2569 C2568 1.415 . S
H2570 C2567 0.999 . S
H2571 C2552 0.913 . S
H2572 C2590 0.951 . S
H2573 C2592 0.951 . S
H2574 C2594 0.950 . S
H2575 C2595 0.950 . S
H2576 C2597 0.950 . S
H2577 C2600 0.950 . S
H2578 C2601 0.950 . S
H2579 C2603 0.950 . S
H2580 C2604 0.950 . S
H2581 C2605 0.951 . S
H2582 C2607 0.951 . S
H2583 C2609 0.950 . S
H2584 C2610 0.950 . S
H2585 C2612 0.950 . S
H2586 C2615 0.950 . S
H2587 C2616 0.950 . S
H2588 C2618 0.950 . S
H2589 C2619 0.950 . S
C2590 H2572 0.951 . S
C2590 C2591 1.366 . S
C2590 C2592 1.388 . S
C2591 C2590 1.366 . S
C2591 C2595 1.385 . S
C2592 H2573 0.951 . S
C2592 C2590 1.388 . S
C2592 C2593 1.366 . S
C2593 C2592 1.366 . S
C2593 C2594 1.414 . S
C2593 C2596 1.499 . S
C2594 H2574 0.950 . S
C2594 C2593 1.414 . S
C2594 C2595 1.374 . S
C2595 H2575 0.950 . S
C2595 C2591 1.385 . S
C2595 C2594 1.374 . S
C2596 C2593 1.499 . S
C2596 C2597 1.373 . S
C2596 C2598 1.389 . S
C2597 H2576 0.950 . S
C2597 C2596 1.373 . S
C2597 C2613 1.377 . S
C2598 C2596 1.389 . S
C2598 C2599 1.524 . S
C2598 C2612 1.377 . S
C2599 C2598 1.524 . S
C2599 C2600 1.397 . S
C2599 C2604 1.363 . S
C2600 H2577 0.950 . S
C2600 C2599 1.397 . S
C2600 C2601 1.334 . S
C2601 H2578 0.950 . S
C2601 C2600 1.334 . S
C2601 C2602 1.287 . S
C2602 C2601 1.287 . S
C2602 C2603 1.524 . S
C2602 H2621 0.913 . S
C2603 H2579 0.950 . S
C2603 C2602 1.524 . S
C2603 C2604 1.415 . S
C2604 H2580 0.950 . S
C2604 C2599 1.363 . S
C2604 C2603 1.415 . S
C2605 H2581 0.951 . S
C2605 C2606 1.366 . S
C2605 C2607 1.388 . S
C2606 C2605 1.366 . S
C2606 C2610 1.385 . S
C2607 H2582 0.951 . S
C2607 C2605 1.388 . S
C2607 C2608 1.366 . S
C2608 C2607 1.366 . S
C2608 C2609 1.414 . S
C2608 C2611 1.499 . S
C2609 H2583 0.950 . S
C2609 C2608 1.414 . S
C2609 C2610 1.374 . S
C2610 H2584 0.950 . S
C2610 C2606 1.385 . S
C2610 C2609 1.374 . S
C2611 C2608 1.499 . S
C2611 C2612 1.373 . S
C2611 C2613 1.389 . S
C2612 H2585 0.950 . S
C2612 C2598 1.377 . S
C2612 C2611 1.373 . S
C2613 C2597 1.377 . S
C2613 C2611 1.389 . S
C2613 C2614 1.524 . S
C2614 C2613 1.524 . S
C2614 C2615 1.397 . S
C2614 C2619 1.363 . S
C2615 H2586 0.950 . S
C2615 C2614 1.397 . S
C2615 C2616 1.334 . S
C2616 H2587 0.950 . S
C2616 C2615 1.334 . S
C2616 C2617 1.287 . S
C2617 C2616 1.287 . S
C2617 C2618 1.524 . S
C2617 H2620 0.999 . S
C2618 H2588 0.950 . S
C2618 C2617 1.524 . S
C2618 C2619 1.415 . S
C2619 H2589 0.950 . S
C2619 C2614 1.363 . S
C2619 C2618 1.415 . S
H2620 C2617 0.999 . S
H2621 C2602 0.913 . S
H2622 C2640 0.951 . S
H2623 C2642 0.951 . S
H2624 C2644 0.950 . S
H2625 C2645 0.950 . S
H2626 C2647 0.950 . S
H2627 C2650 0.950 . S
H2628 C2651 0.950 . S
H2629 C2653 0.950 . S
H2630 C2654 0.950 . S
H2631 C2655 0.951 . S
H2632 C2657 0.951 . S
H2633 C2659 0.950 . S
H2634 C2660 0.950 . S
H2635 C2662 0.950 . S
H2636 C2665 0.950 . S
H2637 C2666 0.950 . S
H2638 C2668 0.950 . S
H2639 C2669 0.950 . S
C2640 H2622 0.951 . S
C2640 C2641 1.366 . S
C2640 C2642 1.388 . S
C2641 C2640 1.366 . S
C2641 C2645 1.385 . S
C2642 H2623 0.951 . S
C2642 C2640 1.388 . S
C2642 C2643 1.366 . S
C2643 C2642 1.366 . S
C2643 C2644 1.414 . S
C2643 C2646 1.499 . S
C2644 H2624 0.950 . S
C2644 C2643 1.414 . S
C2644 C2645 1.374 . S
C2645 H2625 0.950 . S
C2645 C2641 1.385 . S
C2645 C2644 1.374 . S
C2646 C2643 1.499 . S
C2646 C2647 1.373 . S
C2646 C2648 1.389 . S
C2647 H2626 0.950 . S
C2647 C2646 1.373 . S
C2647 C2663 1.377 . S
C2648 C2646 1.389 . S
C2648 C2649 1.524 . S
C2648 C2662 1.377 . S
C2649 C2648 1.524 . S
C2649 C2650 1.397 . S
C2649 C2654 1.363 . S
C2650 H2627 0.950 . S
C2650 C2649 1.397 . S
C2650 C2651 1.334 . S
C2651 H2628 0.950 . S
C2651 C2650 1.334 . S
C2651 C2652 1.287 . S
C2652 C2651 1.287 . S
C2652 C2653 1.524 . S
C2652 H2671 0.913 . S
C2653 H2629 0.950 . S
C2653 C2652 1.524 . S
C2653 C2654 1.415 . S
C2654 H2630 0.950 . S
C2654 C2649 1.363 . S
C2654 C2653 1.415 . S
C2655 H2631 0.951 . S
C2655 C2656 1.366 . S
C2655 C2657 1.388 . S
C2656 C2655 1.366 . S
C2656 C2660 1.385 . S
C2657 H2632 0.951 . S
C2657 C2655 1.388 . S
C2657 C2658 1.366 . S
C2658 C2657 1.366 . S
C2658 C2659 1.414 . S
C2658 C2661 1.499 . S
C2659 H2633 0.950 . S
C2659 C2658 1.414 . S
C2659 C2660 1.374 . S
C2660 H2634 0.950 . S
C2660 C2656 1.385 . S
C2660 C2659 1.374 . S
C2661 C2658 1.499 . S
C2661 C2662 1.373 . S
C2661 C2663 1.389 . S
C2662 H2635 0.950 . S
C2662 C2648 1.377 . S
C2662 C2661 1.373 . S
C2663 C2647 1.377 . S
C2663 C2661 1.389 . S
C2663 C2664 1.524 . S
C2664 C2663 1.524 . S
C2664 C2665 1.397 . S
C2664 C2669 1.363 . S
C2665 H2636 0.950 . S
C2665 C2664 1.397 . S
C2665 C2666 1.334 . S
C2666 H2637 0.950 . S
C2666 C2665 1.334 . S
C2666 C2667 1.287 . S
C2667 C2666 1.287 . S
C2667 C2668 1.524 . S
C2667 H2670 0.999 1_655 S
C2668 H2638 0.950 . S
C2668 C2667 1.524 . S
C2668 C2669 1.415 . S
C2669 H2639 0.950 . S
C2669 C2664 1.363 . S
C2669 C2668 1.415 . S
H2670 C2667 0.999 1_455 S
H2671 C2652 0.913 . S
H2672 C2690 0.951 . S
H2673 C2692 0.951 . S
H2674 C2694 0.950 . S
H2675 C2695 0.950 . S
H2676 C2697 0.950 . S
H2677 C2700 0.950 . S
H2678 C2701 0.950 . S
H2679 C2703 0.950 . S
H2680 C2704 0.950 . S
H2681 C2705 0.951 . S
H2682 C2707 0.951 . S
H2683 C2709 0.950 . S
H2684 C2710 0.950 . S
H2685 C2712 0.950 . S
H2686 C2715 0.950 . S
H2687 C2716 0.950 . S
H2688 C2718 0.950 . S
H2689 C2719 0.950 . S
C2690 H2672 0.951 . S
C2690 C2691 1.366 . S
C2690 C2692 1.388 . S
C2691 C2690 1.366 . S
C2691 C2695 1.385 . S
C2692 H2673 0.951 . S
C2692 C2690 1.388 . S
C2692 C2693 1.366 . S
C2693 C2692 1.366 . S
C2693 C2694 1.414 . S
C2693 C2696 1.499 . S
C2694 H2674 0.950 . S
C2694 C2693 1.414 . S
C2694 C2695 1.374 . S
C2695 H2675 0.950 . S
C2695 C2691 1.385 . S
C2695 C2694 1.374 . S
C2696 C2693 1.499 . S
C2696 C2697 1.373 . S
C2696 C2698 1.389 . S
C2697 H2676 0.950 . S
C2697 C2696 1.373 . S
C2697 C2713 1.377 . S
C2698 C2696 1.389 . S
C2698 C2699 1.524 . S
C2698 C2712 1.377 . S
C2699 C2698 1.524 . S
C2699 C2700 1.397 . S
C2699 C2704 1.363 . S
C2700 H2677 0.950 . S
C2700 C2699 1.397 . S
C2700 C2701 1.334 . S
C2701 H2678 0.950 . S
C2701 C2700 1.334 . S
C2701 C2702 1.287 . S
C2702 C2701 1.287 . S
C2702 C2703 1.524 . S
C2702 H2721 0.913 . S
C2703 H2679 0.950 . S
C2703 C2702 1.524 . S
C2703 C2704 1.415 . S
C2704 H2680 0.950 . S
C2704 C2699 1.363 . S
C2704 C2703 1.415 . S
C2705 H2681 0.951 . S
C2705 C2706 1.366 . S
C2705 C2707 1.388 . S
C2706 C2705 1.366 . S
C2706 C2710 1.385 . S
C2707 H2682 0.951 . S
C2707 C2705 1.388 . S
C2707 C2708 1.366 . S
C2708 C2707 1.366 . S
C2708 C2709 1.414 . S
C2708 C2711 1.499 . S
C2709 H2683 0.950 . S
C2709 C2708 1.414 . S
C2709 C2710 1.374 . S
C2710 H2684 0.950 . S
C2710 C2706 1.385 . S
C2710 C2709 1.374 . S
C2711 C2708 1.499 . S
C2711 C2712 1.373 . S
C2711 C2713 1.389 . S
C2712 H2685 0.950 . S
C2712 C2698 1.377 . S
C2712 C2711 1.373 . S
C2713 C2697 1.377 . S
C2713 C2711 1.389 . S
C2713 C2714 1.524 . S
C2714 C2713 1.524 . S
C2714 C2715 1.397 . S
C2714 C2719 1.363 . S
C2715 H2686 0.950 . S
C2715 C2714 1.397 . S
C2715 C2716 1.334 . S
C2716 H2687 0.950 . S
C2716 C2715 1.334 . S
C2716 C2717 1.287 . S
C2717 C2716 1.287 . S
C2717 C2718 1.524 . S
C2717 H2720 0.999 . S
C2718 H2688 0.950 . S
C2718 C2717 1.524 . S
C2718 C2719 1.415 . S
C2719 H2689 0.950 . S
C2719 C2714 1.363 . S
C2719 C2718 1.415 . S
H2720 C2717 0.999 . S
H2721 C2702 0.913 . S
H2722 C2740 0.951 . S
H2723 C2742 0.951 . S
H2724 C2744 0.950 . S
H2725 C2745 0.950 . S
H2726 C2747 0.950 . S
H2727 C2750 0.950 . S
H2728 C2751 0.950 . S
H2729 C2753 0.950 . S
H2730 C2754 0.950 . S
H2731 C2755 0.951 . S
H2732 C2757 0.951 . S
H2733 C2759 0.950 . S
H2734 C2760 0.950 . S
H2735 C2762 0.950 . S
H2736 C2765 0.950 . S
H2737 C2766 0.950 . S
H2738 C2768 0.950 . S
H2739 C2769 0.950 . S
C2740 H2722 0.951 . S
C2740 C2741 1.366 . S
C2740 C2742 1.388 . S
C2741 C2740 1.366 . S
C2741 C2745 1.385 . S
C2742 H2723 0.951 . S
C2742 C2740 1.388 . S
C2742 C2743 1.366 . S
C2743 C2742 1.366 . S
C2743 C2744 1.414 . S
C2743 C2746 1.499 . S
C2744 H2724 0.950 . S
C2744 C2743 1.414 . S
C2744 C2745 1.374 . S
C2745 H2725 0.950 . S
C2745 C2741 1.385 . S
C2745 C2744 1.374 . S
C2746 C2743 1.499 . S
C2746 C2747 1.373 . S
C2746 C2748 1.389 . S
C2747 H2726 0.950 . S
C2747 C2746 1.373 . S
C2747 C2763 1.377 . S
C2748 C2746 1.389 . S
C2748 C2749 1.524 . S
C2748 C2762 1.377 . S
C2749 C2748 1.524 . S
C2749 C2750 1.397 . S
C2749 C2754 1.363 . S
C2750 H2727 0.950 . S
C2750 C2749 1.397 . S
C2750 C2751 1.334 . S
C2751 H2728 0.950 . S
C2751 C2750 1.334 . S
C2751 C2752 1.287 . S
C2752 C2751 1.287 . S
C2752 C2753 1.524 . S
C2752 H2771 0.913 . S
C2753 H2729 0.950 . S
C2753 C2752 1.524 . S
C2753 C2754 1.415 . S
C2754 H2730 0.950 . S
C2754 C2749 1.363 . S
C2754 C2753 1.415 . S
C2755 H2731 0.951 . S
C2755 C2756 1.366 . S
C2755 C2757 1.388 . S
C2756 C2755 1.366 . S
C2756 C2760 1.385 . S
C2757 H2732 0.951 . S
C2757 C2755 1.388 . S
C2757 C2758 1.366 . S
C2758 C2757 1.366 . S
C2758 C2759 1.414 . S
C2758 C2761 1.499 . S
C2759 H2733 0.950 . S
C2759 C2758 1.414 . S
C2759 C2760 1.374 . S
C2760 H2734 0.950 . S
C2760 C2756 1.385 . S
C2760 C2759 1.374 . S
C2761 C2758 1.499 . S
C2761 C2762 1.373 . S
C2761 C2763 1.389 . S
C2762 H2735 0.950 . S
C2762 C2748 1.377 . S
C2762 C2761 1.373 . S
C2763 C2747 1.377 . S
C2763 C2761 1.389 . S
C2763 C2764 1.524 . S
C2764 C2763 1.524 . S
C2764 C2765 1.397 . S
C2764 C2769 1.363 . S
C2765 H2736 0.950 . S
C2765 C2764 1.397 . S
C2765 C2766 1.334 . S
C2766 H2737 0.950 . S
C2766 C2765 1.334 . S
C2766 C2767 1.287 . S
C2767 C2766 1.287 . S
C2767 C2768 1.524 . S
C2767 H2770 0.999 . S
C2768 H2738 0.950 . S
C2768 C2767 1.524 . S
C2768 C2769 1.415 . S
C2769 H2739 0.950 . S
C2769 C2764 1.363 . S
C2769 C2768 1.415 . S
H2770 C2767 0.999 . S
H2771 C2752 0.913 . S
H2772 C2790 0.951 . S
H2773 C2792 0.951 . S
H2774 C2794 0.950 . S
H2775 C2795 0.950 . S
H2776 C2797 0.950 . S
H2777 C2800 0.950 . S
H2778 C2801 0.950 . S
H2779 C2803 0.950 . S
H2780 C2804 0.950 . S
H2781 C2805 0.951 . S
H2782 C2807 0.951 . S
H2783 C2809 0.950 . S
H2784 C2810 0.950 . S
H2785 C2812 0.950 . S
H2786 C2815 0.950 . S
H2787 C2816 0.950 . S
H2788 C2818 0.950 . S
H2789 C2819 0.950 . S
C2790 H2772 0.951 . S
C2790 C2791 1.366 . S
C2790 C2792 1.388 . S
C2791 C2790 1.366 . S
C2791 C2795 1.385 . S
C2792 H2773 0.951 . S
C2792 C2790 1.388 . S
C2792 C2793 1.366 . S
C2793 C2792 1.366 . S
C2793 C2794 1.414 . S
C2793 C2796 1.499 . S
C2794 H2774 0.950 . S
C2794 C2793 1.414 . S
C2794 C2795 1.374 . S
C2795 H2775 0.950 . S
C2795 C2791 1.385 . S
C2795 C2794 1.374 . S
C2796 C2793 1.499 . S
C2796 C2797 1.373 . S
C2796 C2798 1.389 . S
C2797 H2776 0.950 . S
C2797 C2796 1.373 . S
C2797 C2813 1.377 . S
C2798 C2796 1.389 . S
C2798 C2799 1.524 . S
C2798 C2812 1.377 . S
C2799 C2798 1.524 . S
C2799 C2800 1.397 . S
C2799 C2804 1.363 . S
C2800 H2777 0.950 . S
C2800 C2799 1.397 . S
C2800 C2801 1.334 . S
C2801 H2778 0.950 . S
C2801 C2800 1.334 . S
C2801 C2802 1.287 . S
C2802 C2801 1.287 . S
C2802 C2803 1.524 . S
C2802 H2821 0.913 . S
C2803 H2779 0.950 . S
C2803 C2802 1.524 . S
C2803 C2804 1.415 . S
C2804 H2780 0.950 . S
C2804 C2799 1.363 . S
C2804 C2803 1.415 . S
C2805 H2781 0.951 . S
C2805 C2806 1.366 . S
C2805 C2807 1.388 . S
C2806 C2805 1.366 . S
C2806 C2810 1.385 . S
C2807 H2782 0.951 . S
C2807 C2805 1.388 . S
C2807 C2808 1.366 . S
C2808 C2807 1.366 . S
C2808 C2809 1.414 . S
C2808 C2811 1.499 . S
C2809 H2783 0.950 . S
C2809 C2808 1.414 . S
C2809 C2810 1.374 . S
C2810 H2784 0.950 . S
C2810 C2806 1.385 . S
C2810 C2809 1.374 . S
C2811 C2808 1.499 . S
C2811 C2812 1.373 . S
C2811 C2813 1.389 . S
C2812 H2785 0.950 . S
C2812 C2798 1.377 . S
C2812 C2811 1.373 . S
C2813 C2797 1.377 . S
C2813 C2811 1.389 . S
C2813 C2814 1.524 . S
C2814 C2813 1.524 . S
C2814 C2815 1.397 . S
C2814 C2819 1.363 . S
C2815 H2786 0.950 . S
C2815 C2814 1.397 . S
C2815 C2816 1.334 . S
C2816 H2787 0.950 . S
C2816 C2815 1.334 . S
C2816 C2817 1.287 . S
C2817 C2816 1.287 . S
C2817 C2818 1.524 . S
C2817 H2820 0.999 . S
C2818 H2788 0.950 . S
C2818 C2817 1.524 . S
C2818 C2819 1.415 . S
C2819 H2789 0.950 . S
C2819 C2814 1.363 . S
C2819 C2818 1.415 . S
H2820 C2817 0.999 . S
H2821 C2802 0.913 . S
H2822 C2840 0.951 . S
H2823 C2842 0.951 . S
H2824 C2844 0.950 . S
H2825 C2845 0.950 . S
H2826 C2847 0.950 . S
H2827 C2850 0.950 . S
H2828 C2851 0.950 . S
H2829 C2853 0.950 . S
H2830 C2854 0.950 . S
H2831 C2855 0.951 . S
H2832 C2857 0.951 . S
H2833 C2859 0.950 . S
H2834 C2860 0.950 . S
H2835 C2862 0.950 . S
H2836 C2865 0.950 . S
H2837 C2866 0.950 . S
H2838 C2868 0.950 . S
H2839 C2869 0.950 . S
C2840 H2822 0.951 . S
C2840 C2841 1.366 . S
C2840 C2842 1.388 . S
C2841 C2840 1.366 . S
C2841 C2845 1.385 . S
C2842 H2823 0.951 . S
C2842 C2840 1.388 . S
C2842 C2843 1.366 . S
C2843 C2842 1.366 . S
C2843 C2844 1.414 . S
C2843 C2846 1.499 . S
C2844 H2824 0.950 . S
C2844 C2843 1.414 . S
C2844 C2845 1.374 . S
C2845 H2825 0.950 . S
C2845 C2841 1.385 . S
C2845 C2844 1.374 . S
C2846 C2843 1.499 . S
C2846 C2847 1.373 . S
C2846 C2848 1.389 . S
C2847 H2826 0.950 . S
C2847 C2846 1.373 . S
C2847 C2863 1.377 . S
C2848 C2846 1.389 . S
C2848 C2849 1.524 . S
C2848 C2862 1.377 . S
C2849 C2848 1.524 . S
C2849 C2850 1.397 . S
C2849 C2854 1.363 . S
C2850 H2827 0.950 . S
C2850 C2849 1.397 . S
C2850 C2851 1.334 . S
C2851 H2828 0.950 . S
C2851 C2850 1.334 . S
C2851 C2852 1.287 . S
C2852 C2851 1.287 . S
C2852 C2853 1.524 . S
C2852 H2871 0.913 . S
C2853 H2829 0.950 . S
C2853 C2852 1.524 . S
C2853 C2854 1.415 . S
C2854 H2830 0.950 . S
C2854 C2849 1.363 . S
C2854 C2853 1.415 . S
C2855 H2831 0.951 . S
C2855 C2856 1.366 . S
C2855 C2857 1.388 . S
C2856 C2855 1.366 . S
C2856 C2860 1.385 . S
C2857 H2832 0.951 . S
C2857 C2855 1.388 . S
C2857 C2858 1.366 . S
C2858 C2857 1.366 . S
C2858 C2859 1.414 . S
C2858 C2861 1.499 . S
C2859 H2833 0.950 . S
C2859 C2858 1.414 . S
C2859 C2860 1.374 . S
C2860 H2834 0.950 . S
C2860 C2856 1.385 . S
C2860 C2859 1.374 . S
C2861 C2858 1.499 . S
C2861 C2862 1.373 . S
C2861 C2863 1.389 . S
C2862 H2835 0.950 . S
C2862 C2848 1.377 . S
C2862 C2861 1.373 . S
C2863 C2847 1.377 . S
C2863 C2861 1.389 . S
C2863 C2864 1.524 . S
C2864 C2863 1.524 . S
C2864 C2865 1.397 . S
C2864 C2869 1.363 . S
C2865 H2836 0.950 . S
C2865 C2864 1.397 . S
C2865 C2866 1.334 . S
C2866 H2837 0.950 . S
C2866 C2865 1.334 . S
C2866 C2867 1.287 . S
C2867 C2866 1.287 . S
C2867 C2868 1.524 . S
C2867 H2870 0.999 . S
C2868 H2838 0.950 . S
C2868 C2867 1.524 . S
C2868 C2869 1.415 . S
C2869 H2839 0.950 . S
C2869 C2864 1.363 . S
C2869 C2868 1.415 . S
H2870 C2867 0.999 . S
H2871 C2852 0.913 . S
H2872 C2890 0.951 . S
H2873 C2892 0.951 . S
H2874 C2894 0.950 . S
H2875 C2895 0.950 . S
H2876 C2897 0.950 . S
H2877 C2900 0.950 . S
H2878 C2901 0.950 1_554 S
H2879 C2903 0.950 . S
H2880 C2904 0.950 . S
H2881 C2905 0.951 . S
H2882 C2907 0.951 . S
H2883 C2909 0.950 . S
H2884 C2910 0.950 . S
H2885 C2912 0.950 . S
H2886 C2915 0.950 . S
H2887 C2916 0.950 . S
H2888 C2918 0.950 . S
H2889 C2919 0.950 . S
C2890 H2872 0.951 . S
C2890 C2891 1.366 . S
C2890 C2892 1.388 . S
C2891 C2890 1.366 . S
C2891 C2895 1.385 . S
C2892 H2873 0.951 . S
C2892 C2890 1.388 . S
C2892 C2893 1.366 . S
C2893 C2892 1.366 . S
C2893 C2894 1.414 . S
C2893 C2896 1.499 . S
C2894 H2874 0.950 . S
C2894 C2893 1.414 . S
C2894 C2895 1.374 . S
C2895 H2875 0.950 . S
C2895 C2891 1.385 . S
C2895 C2894 1.374 . S
C2896 C2893 1.499 . S
C2896 C2897 1.373 . S
C2896 C2898 1.389 . S
C2897 H2876 0.950 . S
C2897 C2896 1.373 . S
C2897 C2913 1.377 . S
C2898 C2896 1.389 . S
C2898 C2899 1.524 . S
C2898 C2912 1.377 . S
C2899 C2898 1.524 . S
C2899 C2900 1.397 . S
C2899 C2904 1.363 . S
C2900 H2877 0.950 . S
C2900 C2899 1.397 . S
C2900 C2901 1.334 . S
C2901 H2878 0.950 1_556 S
C2901 C2900 1.334 . S
C2901 C2902 1.287 . S
C2902 C2901 1.287 . S
C2902 C2903 1.524 . S
C2902 H2921 0.913 . S
C2903 H2879 0.950 . S
C2903 C2902 1.524 . S
C2903 C2904 1.415 . S
C2904 H2880 0.950 . S
C2904 C2899 1.363 . S
C2904 C2903 1.415 . S
C2905 H2881 0.951 . S
C2905 C2906 1.366 . S
C2905 C2907 1.388 . S
C2906 C2905 1.366 . S
C2906 C2910 1.385 . S
C2907 H2882 0.951 . S
C2907 C2905 1.388 . S
C2907 C2908 1.366 . S
C2908 C2907 1.366 . S
C2908 C2909 1.414 . S
C2908 C2911 1.499 . S
C2909 H2883 0.950 . S
C2909 C2908 1.414 . S
C2909 C2910 1.374 . S
C2910 H2884 0.950 . S
C2910 C2906 1.385 . S
C2910 C2909 1.374 . S
C2911 C2908 1.499 . S
C2911 C2912 1.373 . S
C2911 C2913 1.389 . S
C2912 H2885 0.950 . S
C2912 C2898 1.377 . S
C2912 C2911 1.373 . S
C2913 C2897 1.377 . S
C2913 C2911 1.389 . S
C2913 C2914 1.524 . S
C2914 C2913 1.524 . S
C2914 C2915 1.397 . S
C2914 C2919 1.363 . S
C2915 H2886 0.950 . S
C2915 C2914 1.397 . S
C2915 C2916 1.334 . S
C2916 H2887 0.950 . S
C2916 C2915 1.334 . S
C2916 C2917 1.287 . S
C2917 C2916 1.287 . S
C2917 C2918 1.524 . S
C2917 H2920 0.999 . S
C2918 H2888 0.950 . S
C2918 C2917 1.524 . S
C2918 C2919 1.415 . S
C2919 H2889 0.950 . S
C2919 C2914 1.363 . S
C2919 C2918 1.415 . S
H2920 C2917 0.999 . S
H2921 C2902 0.913 . S
H2922 C2940 0.951 . S
H2923 C2942 0.951 . S
H2924 C2944 0.950 . S
H2925 C2945 0.950 . S
H2926 C2947 0.950 . S
H2927 C2950 0.950 . S
H2928 C2951 0.950 . S
H2929 C2953 0.950 . S
H2930 C2954 0.950 . S
H2931 C2955 0.951 . S
H2932 C2957 0.951 . S
H2933 C2959 0.950 . S
H2934 C2960 0.950 . S
H2935 C2962 0.950 . S
H2936 C2965 0.950 . S
H2937 C2966 0.950 . S
H2938 C2968 0.950 . S
H2939 C2969 0.950 . S
C2940 H2922 0.951 . S
C2940 C2941 1.366 . S
C2940 C2942 1.388 . S
C2941 C2940 1.366 . S
C2941 C2945 1.385 . S
C2942 H2923 0.951 . S
C2942 C2940 1.388 . S
C2942 C2943 1.366 . S
C2943 C2942 1.366 . S
C2943 C2944 1.414 . S
C2943 C2946 1.499 . S
C2944 H2924 0.950 . S
C2944 C2943 1.414 . S
C2944 C2945 1.374 . S
C2945 H2925 0.950 . S
C2945 C2941 1.385 . S
C2945 C2944 1.374 . S
C2946 C2943 1.499 . S
C2946 C2947 1.373 . S
C2946 C2948 1.389 . S
C2947 H2926 0.950 . S
C2947 C2946 1.373 . S
C2947 C2963 1.377 . S
C2948 C2946 1.389 . S
C2948 C2949 1.524 . S
C2948 C2962 1.377 . S
C2949 C2948 1.524 . S
C2949 C2950 1.397 . S
C2949 C2954 1.363 . S
C2950 H2927 0.950 . S
C2950 C2949 1.397 . S
C2950 C2951 1.334 . S
C2951 H2928 0.950 . S
C2951 C2950 1.334 . S
C2951 C2952 1.287 . S
C2952 C2951 1.287 . S
C2952 C2953 1.524 . S
C2952 H2971 0.913 1_556 S
C2953 H2929 0.950 . S
C2953 C2952 1.524 . S
C2953 C2954 1.415 . S
C2954 H2930 0.950 . S
C2954 C2949 1.363 . S
C2954 C2953 1.415 . S
C2955 H2931 0.951 . S
C2955 C2956 1.366 . S
C2955 C2957 1.388 . S
C2956 C2955 1.366 . S
C2956 C2960 1.385 . S
C2957 H2932 0.951 . S
C2957 C2955 1.388 . S
C2957 C2958 1.366 . S
C2958 C2957 1.366 . S
C2958 C2959 1.414 . S
C2958 C2961 1.499 . S
C2959 H2933 0.950 . S
C2959 C2958 1.414 . S
C2959 C2960 1.374 . S
C2960 H2934 0.950 . S
C2960 C2956 1.385 . S
C2960 C2959 1.374 . S
C2961 C2958 1.499 . S
C2961 C2962 1.373 . S
C2961 C2963 1.389 . S
C2962 H2935 0.950 . S
C2962 C2948 1.377 . S
C2962 C2961 1.373 . S
C2963 C2947 1.377 . S
C2963 C2961 1.389 . S
C2963 C2964 1.524 . S
C2964 C2963 1.524 . S
C2964 C2965 1.397 . S
C2964 C2969 1.363 . S
C2965 H2936 0.950 . S
C2965 C2964 1.397 . S
C2965 C2966 1.334 . S
C2966 H2937 0.950 . S
C2966 C2965 1.334 . S
C2966 C2967 1.287 . S
C2967 C2966 1.287 . S
C2967 C2968 1.524 . S
C2967 H2970 0.999 . S
C2968 H2938 0.950 . S
C2968 C2967 1.524 . S
C2968 C2969 1.415 . S
C2969 H2939 0.950 . S
C2969 C2964 1.363 . S
C2969 C2968 1.415 . S
H2970 C2967 0.999 . S
H2971 C2952 0.913 1_554 S
H2972 C2990 0.951 . S
H2973 C2992 0.951 . S
H2974 C2994 0.950 . S
H2975 C2995 0.950 . S
H2976 C2997 0.950 . S
H2977 C3000 0.950 . S
H2978 C3001 0.950 . S
H2979 C3003 0.950 . S
H2980 C3004 0.950 . S
H2981 C3005 0.951 . S
H2982 C3007 0.951 . S
H2983 C3009 0.950 . S
H2984 C3010 0.950 . S
H2985 C3012 0.950 . S
H2986 C3015 0.950 . S
H2987 C3016 0.950 . S
H2988 C3018 0.950 . S
H2989 C3019 0.950 . S
C2990 H2972 0.951 . S
C2990 C2991 1.366 . S
C2990 C2992 1.388 . S
C2991 C2990 1.366 . S
C2991 C2995 1.385 . S
C2992 H2973 0.951 . S
C2992 C2990 1.388 . S
C2992 C2993 1.366 . S
C2993 C2992 1.366 . S
C2993 C2994 1.414 . S
C2993 C2996 1.499 . S
C2994 H2974 0.950 . S
C2994 C2993 1.414 . S
C2994 C2995 1.374 . S
C2995 H2975 0.950 . S
C2995 C2991 1.385 . S
C2995 C2994 1.374 . S
C2996 C2993 1.499 . S
C2996 C2997 1.373 . S
C2996 C2998 1.389 . S
C2997 H2976 0.950 . S
C2997 C2996 1.373 . S
C2997 C3013 1.377 . S
C2998 C2996 1.389 . S
C2998 C2999 1.524 . S
C2998 C3012 1.377 . S
C2999 C2998 1.524 . S
C2999 C3000 1.397 . S
C2999 C3004 1.363 . S
C3000 H2977 0.950 . S
C3000 C2999 1.397 . S
C3000 C3001 1.334 . S
C3001 H2978 0.950 . S
C3001 C3000 1.334 . S
C3001 C3002 1.287 . S
C3002 C3001 1.287 . S
C3002 C3003 1.524 . S
C3002 H3021 0.913 . S
C3003 H2979 0.950 . S
C3003 C3002 1.524 . S
C3003 C3004 1.415 . S
C3004 H2980 0.950 . S
C3004 C2999 1.363 . S
C3004 C3003 1.415 . S
C3005 H2981 0.951 . S
C3005 C3006 1.366 . S
C3005 C3007 1.388 . S
C3006 C3005 1.366 . S
C3006 C3010 1.385 . S
C3007 H2982 0.951 . S
C3007 C3005 1.388 . S
C3007 C3008 1.366 . S
C3008 C3007 1.366 . S
C3008 C3009 1.414 . S
C3008 C3011 1.499 . S
C3009 H2983 0.950 . S
C3009 C3008 1.414 . S
C3009 C3010 1.374 . S
C3010 H2984 0.950 . S
C3010 C3006 1.385 . S
C3010 C3009 1.374 . S
C3011 C3008 1.499 . S
C3011 C3012 1.373 . S
C3011 C3013 1.389 . S
C3012 H2985 0.950 . S
C3012 C2998 1.377 . S
C3012 C3011 1.373 . S
C3013 C2997 1.377 . S
C3013 C3011 1.389 . S
C3013 C3014 1.524 . S
C3014 C3013 1.524 . S
C3014 C3015 1.397 . S
C3014 C3019 1.363 . S
C3015 H2986 0.950 . S
C3015 C3014 1.397 . S
C3015 C3016 1.334 . S
C3016 H2987 0.950 . S
C3016 C3015 1.334 . S
C3016 C3017 1.287 . S
C3017 C3016 1.287 . S
C3017 C3018 1.524 . S
C3017 H3020 0.999 . S
C3018 H2988 0.950 . S
C3018 C3017 1.524 . S
C3018 C3019 1.415 . S
C3019 H2989 0.950 . S
C3019 C3014 1.363 . S
C3019 C3018 1.415 . S
H3020 C3017 0.999 . S
H3021 C3002 0.913 . S
H3022 C3040 0.951 . S
H3023 C3042 0.951 . S
H3024 C3044 0.950 . S
H3025 C3045 0.950 . S
H3026 C3047 0.950 . S
H3027 C3050 0.950 . S
H3028 C3051 0.950 . S
H3029 C3053 0.950 . S
H3030 C3054 0.950 . S
H3031 C3055 0.951 . S
H3032 C3057 0.951 . S
H3033 C3059 0.950 . S
H3034 C3060 0.950 . S
H3035 C3062 0.950 . S
H3036 C3065 0.950 . S
H3037 C3066 0.950 . S
H3038 C3068 0.950 . S
H3039 C3069 0.950 . S
C3040 H3022 0.951 . S
C3040 C3041 1.366 . S
C3040 C3042 1.388 . S
C3041 C3040 1.366 . S
C3041 C3045 1.385 . S
C3042 H3023 0.951 . S
C3042 C3040 1.388 . S
C3042 C3043 1.366 . S
C3043 C3042 1.366 . S
C3043 C3044 1.414 . S
C3043 C3046 1.499 . S
C3044 H3024 0.950 . S
C3044 C3043 1.414 . S
C3044 C3045 1.374 . S
C3045 H3025 0.950 . S
C3045 C3041 1.385 . S
C3045 C3044 1.374 . S
C3046 C3043 1.499 . S
C3046 C3047 1.373 . S
C3046 C3048 1.389 . S
C3047 H3026 0.950 . S
C3047 C3046 1.373 . S
C3047 C3063 1.377 . S
C3048 C3046 1.389 . S
C3048 C3049 1.524 . S
C3048 C3062 1.377 . S
C3049 C3048 1.524 . S
C3049 C3050 1.397 . S
C3049 C3054 1.363 . S
C3050 H3027 0.950 . S
C3050 C3049 1.397 . S
C3050 C3051 1.334 . S
C3051 H3028 0.950 . S
C3051 C3050 1.334 . S
C3051 C3052 1.287 . S
C3052 C3051 1.287 . S
C3052 C3053 1.524 . S
C3052 H3071 0.913 1_556 S
C3053 H3029 0.950 . S
C3053 C3052 1.524 . S
C3053 C3054 1.415 . S
C3054 H3030 0.950 . S
C3054 C3049 1.363 . S
C3054 C3053 1.415 . S
C3055 H3031 0.951 . S
C3055 C3056 1.366 . S
C3055 C3057 1.388 . S
C3056 C3055 1.366 . S
C3056 C3060 1.385 . S
C3057 H3032 0.951 . S
C3057 C3055 1.388 . S
C3057 C3058 1.366 . S
C3058 C3057 1.366 . S
C3058 C3059 1.414 . S
C3058 C3061 1.499 . S
C3059 H3033 0.950 . S
C3059 C3058 1.414 . S
C3059 C3060 1.374 . S
C3060 H3034 0.950 . S
C3060 C3056 1.385 . S
C3060 C3059 1.374 . S
C3061 C3058 1.499 . S
C3061 C3062 1.373 . S
C3061 C3063 1.389 . S
C3062 H3035 0.950 . S
C3062 C3048 1.377 . S
C3062 C3061 1.373 . S
C3063 C3047 1.377 . S
C3063 C3061 1.389 . S
C3063 C3064 1.524 . S
C3064 C3063 1.524 . S
C3064 C3065 1.397 . S
C3064 C3069 1.363 . S
C3065 H3036 0.950 . S
C3065 C3064 1.397 . S
C3065 C3066 1.334 . S
C3066 H3037 0.950 . S
C3066 C3065 1.334 . S
C3066 C3067 1.287 . S
C3067 C3066 1.287 . S
C3067 C3068 1.524 . S
C3067 H3070 0.999 . S
C3068 H3038 0.950 . S
C3068 C3067 1.524 . S
C3068 C3069 1.415 . S
C3069 H3039 0.950 . S
C3069 C3064 1.363 . S
C3069 C3068 1.415 . S
H3070 C3067 0.999 . S
H3071 C3052 0.913 1_554 S
H3072 C3090 0.951 . S
H3073 C3092 0.951 . S
H3074 C3094 0.950 . S
H3075 C3095 0.950 . S
H3076 C3097 0.950 . S
H3077 C3100 0.950 . S
H3078 C3101 0.950 . S
H3079 C3103 0.950 . S
H3080 C3104 0.950 . S
H3081 C3105 0.951 . S
H3082 C3107 0.951 . S
H3083 C3109 0.950 . S
H3084 C3110 0.950 . S
H3085 C3112 0.950 . S
H3086 C3115 0.950 . S
H3087 C3116 0.950 . S
H3088 C3118 0.950 . S
H3089 C3119 0.950 . S
C3090 H3072 0.951 . S
C3090 C3091 1.366 . S
C3090 C3092 1.388 . S
C3091 C3090 1.366 . S
C3091 C3095 1.385 . S
C3092 H3073 0.951 . S
C3092 C3090 1.388 . S
C3092 C3093 1.366 . S
C3093 C3092 1.366 . S
C3093 C3094 1.414 . S
C3093 C3096 1.499 . S
C3094 H3074 0.950 . S
C3094 C3093 1.414 . S
C3094 C3095 1.374 . S
C3095 H3075 0.950 . S
C3095 C3091 1.385 . S
C3095 C3094 1.374 . S
C3096 C3093 1.499 . S
C3096 C3097 1.373 . S
C3096 C3098 1.389 . S
C3097 H3076 0.950 . S
C3097 C3096 1.373 . S
C3097 C3113 1.377 . S
C3098 C3096 1.389 . S
C3098 C3099 1.524 . S
C3098 C3112 1.377 . S
C3099 C3098 1.524 . S
C3099 C3100 1.397 . S
C3099 C3104 1.363 . S
C3100 H3077 0.950 . S
C3100 C3099 1.397 . S
C3100 C3101 1.334 . S
C3101 H3078 0.950 . S
C3101 C3100 1.334 . S
C3101 C3102 1.287 . S
C3102 C3101 1.287 . S
C3102 C3103 1.524 . S
C3102 H3121 0.913 . S
C3103 H3079 0.950 . S
C3103 C3102 1.524 . S
C3103 C3104 1.415 . S
C3104 H3080 0.950 . S
C3104 C3099 1.363 . S
C3104 C3103 1.415 . S
C3105 H3081 0.951 . S
C3105 C3106 1.366 . S
C3105 C3107 1.388 . S
C3106 C3105 1.366 . S
C3106 C3110 1.385 . S
C3107 H3082 0.951 . S
C3107 C3105 1.388 . S
C3107 C3108 1.366 . S
C3108 C3107 1.366 . S
C3108 C3109 1.414 . S
C3108 C3111 1.499 . S
C3109 H3083 0.950 . S
C3109 C3108 1.414 . S
C3109 C3110 1.374 . S
C3110 H3084 0.950 . S
C3110 C3106 1.385 . S
C3110 C3109 1.374 . S
C3111 C3108 1.499 . S
C3111 C3112 1.373 . S
C3111 C3113 1.389 . S
C3112 H3085 0.950 . S
C3112 C3098 1.377 . S
C3112 C3111 1.373 . S
C3113 C3097 1.377 . S
C3113 C3111 1.389 . S
C3113 C3114 1.524 . S
C3114 C3113 1.524 . S
C3114 C3115 1.397 . S
C3114 C3119 1.363 . S
C3115 H3086 0.950 . S
C3115 C3114 1.397 . S
C3115 C3116 1.334 . S
C3116 H3087 0.950 . S
C3116 C3115 1.334 . S
C3116 C3117 1.287 . S
C3117 C3116 1.287 . S
C3117 C3118 1.524 . S
C3117 H3120 0.999 . S
C3118 H3088 0.950 . S
C3118 C3117 1.524 . S
C3118 C3119 1.415 . S
C3119 H3089 0.950 . S
C3119 C3114 1.363 . S
C3119 C3118 1.415 . S
H3120 C3117 0.999 . S
H3121 C3102 0.913 . S
H3122 C3140 0.951 . S
H3123 C3142 0.951 . S
H3124 C3144 0.950 . S
H3125 C3145 0.950 . S
H3126 C3147 0.950 . S
H3127 C3150 0.950 . S
H3128 C3151 0.950 . S
H3129 C3153 0.950 . S
H3130 C3154 0.950 . S
H3131 C3155 0.951 . S
H3132 C3157 0.951 . S
H3133 C3159 0.950 . S
H3134 C3160 0.950 . S
H3135 C3162 0.950 . S
H3136 C3165 0.950 . S
H3137 C3166 0.950 . S
H3138 C3168 0.950 . S
H3139 C3169 0.950 . S
C3140 H3122 0.951 . S
C3140 C3141 1.366 . S
C3140 C3142 1.388 . S
C3141 C3140 1.366 . S
C3141 C3145 1.385 . S
C3142 H3123 0.951 . S
C3142 C3140 1.388 . S
C3142 C3143 1.366 . S
C3143 C3142 1.366 . S
C3143 C3144 1.414 . S
C3143 C3146 1.499 . S
C3144 H3124 0.950 . S
C3144 C3143 1.414 . S
C3144 C3145 1.374 . S
C3145 H3125 0.950 . S
C3145 C3141 1.385 . S
C3145 C3144 1.374 . S
C3146 C3143 1.499 . S
C3146 C3147 1.373 . S
C3146 C3148 1.389 . S
C3147 H3126 0.950 . S
C3147 C3146 1.373 . S
C3147 C3163 1.377 . S
C3148 C3146 1.389 . S
C3148 C3149 1.524 . S
C3148 C3162 1.377 . S
C3149 C3148 1.524 . S
C3149 C3150 1.397 . S
C3149 C3154 1.363 . S
C3150 H3127 0.950 . S
C3150 C3149 1.397 . S
C3150 C3151 1.334 . S
C3151 H3128 0.950 . S
C3151 C3150 1.334 . S
C3151 C3152 1.287 . S
C3152 C3151 1.287 . S
C3152 C3153 1.524 . S
C3152 H3171 0.913 . S
C3153 H3129 0.950 . S
C3153 C3152 1.524 . S
C3153 C3154 1.415 . S
C3154 H3130 0.950 . S
C3154 C3149 1.363 . S
C3154 C3153 1.415 . S
C3155 H3131 0.951 . S
C3155 C3156 1.366 . S
C3155 C3157 1.388 . S
C3156 C3155 1.366 . S
C3156 C3160 1.385 . S
C3157 H3132 0.951 . S
C3157 C3155 1.388 . S
C3157 C3158 1.366 . S
C3158 C3157 1.366 . S
C3158 C3159 1.414 . S
C3158 C3161 1.499 . S
C3159 H3133 0.950 . S
C3159 C3158 1.414 . S
C3159 C3160 1.374 . S
C3160 H3134 0.950 . S
C3160 C3156 1.385 . S
C3160 C3159 1.374 . S
C3161 C3158 1.499 . S
C3161 C3162 1.373 . S
C3161 C3163 1.389 . S
C3162 H3135 0.950 . S
C3162 C3148 1.377 . S
C3162 C3161 1.373 . S
C3163 C3147 1.377 . S
C3163 C3161 1.389 . S
C3163 C3164 1.524 . S
C3164 C3163 1.524 . S
C3164 C3165 1.397 . S
C3164 C3169 1.363 . S
C3165 H3136 0.950 . S
C3165 C3164 1.397 . S
C3165 C3166 1.334 . S
C3166 H3137 0.950 . S
C3166 C3165 1.334 . S
C3166 C3167 1.287 . S
C3167 C3166 1.287 . S
C3167 C3168 1.524 . S
C3167 H3170 0.999 . S
C3168 H3138 0.950 . S
C3168 C3167 1.524 . S
C3168 C3169 1.415 . S
C3169 H3139 0.950 . S
C3169 C3164 1.363 . S
C3169 C3168 1.415 . S
H3170 C3167 0.999 . S
H3171 C3152 0.913 . S
H3172 C3190 0.951 . S
H3173 C3192 0.951 . S
H3174 C3194 0.950 . S
H3175 C3195 0.950 . S
H3176 C3197 0.950 . S
H3177 C3200 0.950 . S
H3178 C3201 0.950 . S
H3179 C3203 0.950 . S
H3180 C3204 0.950 . S
H3181 C3205 0.951 . S
H3182 C3207 0.951 . S
H3183 C3209 0.950 . S
H3184 C3210 0.950 . S
H3185 C3212 0.950 . S
H3186 C3215 0.950 . S
H3187 C3216 0.950 . S
H3188 C3218 0.950 . S
H3189 C3219 0.950 . S
C3190 H3172 0.951 . S
C3190 C3191 1.366 . S
C3190 C3192 1.388 . S
C3191 C3190 1.366 . S
C3191 C3195 1.385 . S
C3192 H3173 0.951 . S
C3192 C3190 1.388 . S
C3192 C3193 1.366 . S
C3193 C3192 1.366 . S
C3193 C3194 1.414 . S
C3193 C3196 1.499 . S
C3194 H3174 0.950 . S
C3194 C3193 1.414 . S
C3194 C3195 1.374 . S
C3195 H3175 0.950 . S
C3195 C3191 1.385 . S
C3195 C3194 1.374 . S
C3196 C3193 1.499 . S
C3196 C3197 1.373 . S
C3196 C3198 1.389 . S
C3197 H3176 0.950 . S
C3197 C3196 1.373 . S
C3197 C3213 1.377 . S
C3198 C3196 1.389 . S
C3198 C3199 1.524 . S
C3198 C3212 1.377 . S
C3199 C3198 1.524 . S
C3199 C3200 1.397 . S
C3199 C3204 1.363 . S
C3200 H3177 0.950 . S
C3200 C3199 1.397 . S
C3200 C3201 1.334 . S
C3201 H3178 0.950 . S
C3201 C3200 1.334 . S
C3201 C3202 1.287 . S
C3202 C3201 1.287 . S
C3202 C3203 1.524 . S
C3202 H3221 0.913 . S
C3203 H3179 0.950 . S
C3203 C3202 1.524 . S
C3203 C3204 1.415 . S
C3204 H3180 0.950 . S
C3204 C3199 1.363 . S
C3204 C3203 1.415 . S
C3205 H3181 0.951 . S
C3205 C3206 1.366 . S
C3205 C3207 1.388 . S
C3206 C3205 1.366 . S
C3206 C3210 1.385 . S
C3207 H3182 0.951 . S
C3207 C3205 1.388 . S
C3207 C3208 1.366 . S
C3208 C3207 1.366 . S
C3208 C3209 1.414 . S
C3208 C3211 1.499 . S
C3209 H3183 0.950 . S
C3209 C3208 1.414 . S
C3209 C3210 1.374 . S
C3210 H3184 0.950 . S
C3210 C3206 1.385 . S
C3210 C3209 1.374 . S
C3211 C3208 1.499 . S
C3211 C3212 1.373 . S
C3211 C3213 1.389 . S
C3212 H3185 0.950 . S
C3212 C3198 1.377 . S
C3212 C3211 1.373 . S
C3213 C3197 1.377 . S
C3213 C3211 1.389 . S
C3213 C3214 1.524 . S
C3214 C3213 1.524 . S
C3214 C3215 1.397 . S
C3214 C3219 1.363 . S
C3215 H3186 0.950 . S
C3215 C3214 1.397 . S
C3215 C3216 1.334 . S
C3216 H3187 0.950 . S
C3216 C3215 1.334 . S
C3216 C3217 1.287 . S
C3217 C3216 1.287 . S
C3217 C3218 1.524 . S
C3217 H3220 0.999 . S
C3218 H3188 0.950 . S
C3218 C3217 1.524 . S
C3218 C3219 1.415 . S
C3219 H3189 0.950 . S
C3219 C3214 1.363 . S
C3219 C3218 1.415 . S
H3220 C3217 0.999 . S
H3221 C3202 0.913 . S
H3222 C3240 0.951 . S
H3223 C3242 0.951 . S
H3224 C3244 0.950 . S
H3225 C3245 0.950 . S
H3226 C3247 0.950 . S
H3227 C3250 0.950 . S
H3228 C3251 0.950 . S
H3229 C3253 0.950 . S
H3230 C3254 0.950 . S
H3231 C3255 0.951 . S
H3232 C3257 0.951 . S
H3233 C3259 0.950 . S
H3234 C3260 0.950 . S
H3235 C3262 0.950 . S
H3236 C3265 0.950 . S
H3237 C3266 0.950 . S
H3238 C3268 0.950 . S
H3239 C3269 0.950 . S
C3240 H3222 0.951 . S
C3240 C3241 1.366 . S
C3240 C3242 1.388 . S
C3241 C3240 1.366 . S
C3241 C3245 1.385 . S
C3242 H3223 0.951 . S
C3242 C3240 1.388 . S
C3242 C3243 1.366 . S
C3243 C3242 1.366 . S
C3243 C3244 1.414 . S
C3243 C3246 1.499 . S
C3244 H3224 0.950 . S
C3244 C3243 1.414 . S
C3244 C3245 1.374 . S
C3245 H3225 0.950 . S
C3245 C3241 1.385 . S
C3245 C3244 1.374 . S
C3246 C3243 1.499 . S
C3246 C3247 1.373 . S
C3246 C3248 1.389 . S
C3247 H3226 0.950 . S
C3247 C3246 1.373 . S
C3247 C3263 1.377 . S
C3248 C3246 1.389 . S
C3248 C3249 1.524 . S
C3248 C3262 1.377 . S
C3249 C3248 1.524 . S
C3249 C3250 1.397 . S
C3249 C3254 1.363 . S
C3250 H3227 0.950 . S
C3250 C3249 1.397 . S
C3250 C3251 1.334 . S
C3251 H3228 0.950 . S
C3251 C3250 1.334 . S
C3251 C3252 1.287 . S
C3252 C3251 1.287 . S
C3252 C3253 1.524 . S
C3252 H3271 0.913 . S
C3253 H3229 0.950 . S
C3253 C3252 1.524 . S
C3253 C3254 1.415 . S
C3254 H3230 0.950 . S
C3254 C3249 1.363 . S
C3254 C3253 1.415 . S
C3255 H3231 0.951 . S
C3255 C3256 1.366 . S
C3255 C3257 1.388 . S
C3256 C3255 1.366 . S
C3256 C3260 1.385 . S
C3257 H3232 0.951 . S
C3257 C3255 1.388 . S
C3257 C3258 1.366 . S
C3258 C3257 1.366 . S
C3258 C3259 1.414 . S
C3258 C3261 1.499 . S
C3259 H3233 0.950 . S
C3259 C3258 1.414 . S
C3259 C3260 1.374 . S
C3260 H3234 0.950 . S
C3260 C3256 1.385 . S
C3260 C3259 1.374 . S
C3261 C3258 1.499 . S
C3261 C3262 1.373 . S
C3261 C3263 1.389 . S
C3262 H3235 0.950 . S
C3262 C3248 1.377 . S
C3262 C3261 1.373 . S
C3263 C3247 1.377 . S
C3263 C3261 1.389 . S
C3263 C3264 1.524 . S
C3264 C3263 1.524 . S
C3264 C3265 1.397 . S
C3264 C3269 1.363 . S
C3265 H3236 0.950 . S
C3265 C3264 1.397 . S
C3265 C3266 1.334 . S
C3266 H3237 0.950 . S
C3266 C3265 1.334 . S
C3266 C3267 1.287 . S
C3267 C3266 1.287 . S
C3267 C3268 1.524 . S
C3267 H3270 0.999 . S
C3268 H3238 0.950 . S
C3268 C3267 1.524 . S
C3268 C3269 1.415 . S
C3269 H3239 0.950 . S
C3269 C3264 1.363 . S
C3269 C3268 1.415 . S
H3270 C3267 0.999 . S
H3271 C3252 0.913 . S
H3272 C3290 0.951 . S
H3273 C3292 0.951 . S
H3274 C3294 0.950 . S
H3275 C3295 0.950 . S
H3276 C3297 0.950 . S
H3277 C3300 0.950 . S
H3278 C3301 0.950 . S
H3279 C3303 0.950 . S
H3280 C3304 0.950 . S
H3281 C3305 0.951 . S
H3282 C3307 0.951 . S
H3283 C3309 0.950 . S
H3284 C3310 0.950 . S
H3285 C3312 0.950 . S
H3286 C3315 0.950 . S
H3287 C3316 0.950 . S
H3288 C3318 0.950 . S
H3289 C3319 0.950 . S
C3290 H3272 0.951 . S
C3290 C3291 1.366 . S
C3290 C3292 1.388 . S
C3291 C3290 1.366 . S
C3291 C3295 1.385 . S
C3292 H3273 0.951 . S
C3292 C3290 1.388 . S
C3292 C3293 1.366 . S
C3293 C3292 1.366 . S
C3293 C3294 1.414 . S
C3293 C3296 1.499 . S
C3294 H3274 0.950 . S
C3294 C3293 1.414 . S
C3294 C3295 1.374 . S
C3295 H3275 0.950 . S
C3295 C3291 1.385 . S
C3295 C3294 1.374 . S
C3296 C3293 1.499 . S
C3296 C3297 1.373 . S
C3296 C3298 1.389 . S
C3297 H3276 0.950 . S
C3297 C3296 1.373 . S
C3297 C3313 1.377 . S
C3298 C3296 1.389 . S
C3298 C3299 1.524 . S
C3298 C3312 1.377 . S
C3299 C3298 1.524 . S
C3299 C3300 1.397 . S
C3299 C3304 1.363 . S
C3300 H3277 0.950 . S
C3300 C3299 1.397 . S
C3300 C3301 1.334 . S
C3301 H3278 0.950 . S
C3301 C3300 1.334 . S
C3301 C3302 1.287 . S
C3302 C3301 1.287 . S
C3302 C3303 1.524 . S
C3302 H3321 0.913 . S
C3303 H3279 0.950 . S
C3303 C3302 1.524 . S
C3303 C3304 1.415 . S
C3304 H3280 0.950 . S
C3304 C3299 1.363 . S
C3304 C3303 1.415 . S
C3305 H3281 0.951 . S
C3305 C3306 1.366 . S
C3305 C3307 1.388 . S
C3306 C3305 1.366 . S
C3306 C3310 1.385 . S
C3307 H3282 0.951 . S
C3307 C3305 1.388 . S
C3307 C3308 1.366 . S
C3308 C3307 1.366 . S
C3308 C3309 1.414 . S
C3308 C3311 1.499 . S
C3309 H3283 0.950 . S
C3309 C3308 1.414 . S
C3309 C3310 1.374 . S
C3310 H3284 0.950 . S
C3310 C3306 1.385 . S
C3310 C3309 1.374 . S
C3311 C3308 1.499 . S
C3311 C3312 1.373 . S
C3311 C3313 1.389 . S
C3312 H3285 0.950 . S
C3312 C3298 1.377 . S
C3312 C3311 1.373 . S
C3313 C3297 1.377 . S
C3313 C3311 1.389 . S
C3313 C3314 1.524 . S
C3314 C3313 1.524 . S
C3314 C3315 1.397 . S
C3314 C3319 1.363 . S
C3315 H3286 0.950 . S
C3315 C3314 1.397 . S
C3315 C3316 1.334 . S
C3316 H3287 0.950 . S
C3316 C3315 1.334 . S
C3316 C3317 1.287 . S
C3317 C3316 1.287 . S
C3317 C3318 1.524 . S
C3317 H3320 0.999 . S
C3318 H3288 0.950 . S
C3318 C3317 1.524 . S
C3318 C3319 1.415 . S
C3319 H3289 0.950 . S
C3319 C3314 1.363 . S
C3319 C3318 1.415 . S
H3320 C3317 0.999 . S
H3321 C3302 0.913 . S
H3322 C3340 0.951 . S
H3323 C3342 0.951 . S
H3324 C3344 0.950 . S
H3325 C3345 0.950 . S
H3326 C3347 0.950 . S
H3327 C3350 0.950 . S
H3328 C3351 0.950 . S
H3329 C3353 0.950 . S
H3330 C3354 0.950 . S
H3331 C3355 0.951 . S
H3332 C3357 0.951 . S
H3333 C3359 0.950 . S
H3334 C3360 0.950 . S
H3335 C3362 0.950 . S
H3336 C3365 0.950 . S
H3337 C3366 0.950 . S
H3338 C3368 0.950 . S
H3339 C3369 0.950 . S
C3340 H3322 0.951 . S
C3340 C3341 1.366 . S
C3340 C3342 1.388 . S
C3341 C3340 1.366 . S
C3341 C3345 1.385 . S
C3342 H3323 0.951 . S
C3342 C3340 1.388 . S
C3342 C3343 1.366 . S
C3343 C3342 1.366 . S
C3343 C3344 1.414 . S
C3343 C3346 1.499 . S
C3344 H3324 0.950 . S
C3344 C3343 1.414 . S
C3344 C3345 1.374 . S
C3345 H3325 0.950 . S
C3345 C3341 1.385 . S
C3345 C3344 1.374 . S
C3346 C3343 1.499 . S
C3346 C3347 1.373 . S
C3346 C3348 1.389 . S
C3347 H3326 0.950 . S
C3347 C3346 1.373 . S
C3347 C3363 1.377 . S
C3348 C3346 1.389 . S
C3348 C3349 1.524 . S
C3348 C3362 1.377 . S
C3349 C3348 1.524 . S
C3349 C3350 1.397 . S
C3349 C3354 1.363 . S
C3350 H3327 0.950 . S
C3350 C3349 1.397 . S
C3350 C3351 1.334 . S
C3351 H3328 0.950 . S
C3351 C3350 1.334 . S
C3351 C3352 1.287 . S
C3352 C3351 1.287 . S
C3352 C3353 1.524 . S
C3352 H3371 0.913 . S
C3353 H3329 0.950 . S
C3353 C3352 1.524 . S
C3353 C3354 1.415 . S
C3354 H3330 0.950 . S
C3354 C3349 1.363 . S
C3354 C3353 1.415 . S
C3355 H3331 0.951 . S
C3355 C3356 1.366 . S
C3355 C3357 1.388 . S
C3356 C3355 1.366 . S
C3356 C3360 1.385 . S
C3357 H3332 0.951 . S
C3357 C3355 1.388 . S
C3357 C3358 1.366 . S
C3358 C3357 1.366 . S
C3358 C3359 1.414 . S
C3358 C3361 1.499 . S
C3359 H3333 0.950 . S
C3359 C3358 1.414 . S
C3359 C3360 1.374 . S
C3360 H3334 0.950 . S
C3360 C3356 1.385 . S
C3360 C3359 1.374 . S
C3361 C3358 1.499 . S
C3361 C3362 1.373 . S
C3361 C3363 1.389 . S
C3362 H3335 0.950 . S
C3362 C3348 1.377 . S
C3362 C3361 1.373 . S
C3363 C3347 1.377 . S
C3363 C3361 1.389 . S
C3363 C3364 1.524 . S
C3364 C3363 1.524 . S
C3364 C3365 1.397 . S
C3364 C3369 1.363 . S
C3365 H3336 0.950 . S
C3365 C3364 1.397 . S
C3365 C3366 1.334 . S
C3366 H3337 0.950 . S
C3366 C3365 1.334 . S
C3366 C3367 1.287 . S
C3367 C3366 1.287 . S
C3367 C3368 1.524 . S
C3367 H3370 0.999 . S
C3368 H3338 0.950 . S
C3368 C3367 1.524 . S
C3368 C3369 1.415 . S
C3369 H3339 0.950 . S
C3369 C3364 1.363 . S
C3369 C3368 1.415 . S
H3370 C3367 0.999 . S
H3371 C3352 0.913 . S
H3372 C3390 0.951 . S
H3373 C3392 0.951 . S
H3374 C3394 0.950 . S
H3375 C3395 0.950 . S
H3376 C3397 0.950 . S
H3377 C3400 0.950 . S
H3378 C3401 0.950 1_545 S
H3379 C3403 0.950 . S
H3380 C3404 0.950 . S
H3381 C3405 0.951 . S
H3382 C3407 0.951 . S
H3383 C3409 0.950 . S
H3384 C3410 0.950 . S
H3385 C3412 0.950 . S
H3386 C3415 0.950 . S
H3387 C3416 0.950 . S
H3388 C3418 0.950 . S
H3389 C3419 0.950 . S
C3390 H3372 0.951 . S
C3390 C3391 1.366 . S
C3390 C3392 1.388 . S
C3391 C3390 1.366 . S
C3391 C3395 1.385 . S
C3392 H3373 0.951 . S
C3392 C3390 1.388 . S
C3392 C3393 1.366 . S
C3393 C3392 1.366 . S
C3393 C3394 1.414 . S
C3393 C3396 1.499 . S
C3394 H3374 0.950 . S
C3394 C3393 1.414 . S
C3394 C3395 1.374 . S
C3395 H3375 0.950 . S
C3395 C3391 1.385 . S
C3395 C3394 1.374 . S
C3396 C3393 1.499 . S
C3396 C3397 1.373 . S
C3396 C3398 1.389 . S
C3397 H3376 0.950 . S
C3397 C3396 1.373 . S
C3397 C3413 1.377 . S
C3398 C3396 1.389 . S
C3398 C3399 1.524 . S
C3398 C3412 1.377 . S
C3399 C3398 1.524 . S
C3399 C3400 1.397 . S
C3399 C3404 1.363 . S
C3400 H3377 0.950 . S
C3400 C3399 1.397 . S
C3400 C3401 1.334 . S
C3401 H3378 0.950 1_565 S
C3401 C3400 1.334 . S
C3401 C3402 1.287 . S
C3402 C3401 1.287 . S
C3402 C3403 1.524 . S
C3402 H3421 0.913 . S
C3403 H3379 0.950 . S
C3403 C3402 1.524 . S
C3403 C3404 1.415 . S
C3404 H3380 0.950 . S
C3404 C3399 1.363 . S
C3404 C3403 1.415 . S
C3405 H3381 0.951 . S
C3405 C3406 1.366 . S
C3405 C3407 1.388 . S
C3406 C3405 1.366 . S
C3406 C3410 1.385 . S
C3407 H3382 0.951 . S
C3407 C3405 1.388 . S
C3407 C3408 1.366 . S
C3408 C3407 1.366 . S
C3408 C3409 1.414 . S
C3408 C3411 1.499 . S
C3409 H3383 0.950 . S
C3409 C3408 1.414 . S
C3409 C3410 1.374 . S
C3410 H3384 0.950 . S
C3410 C3406 1.385 . S
C3410 C3409 1.374 . S
C3411 C3408 1.499 . S
C3411 C3412 1.373 . S
C3411 C3413 1.389 . S
C3412 H3385 0.950 . S
C3412 C3398 1.377 . S
C3412 C3411 1.373 . S
C3413 C3397 1.377 . S
C3413 C3411 1.389 . S
C3413 C3414 1.524 . S
C3414 C3413 1.524 . S
C3414 C3415 1.397 . S
C3414 C3419 1.363 . S
C3415 H3386 0.950 . S
C3415 C3414 1.397 . S
C3415 C3416 1.334 . S
C3416 H3387 0.950 . S
C3416 C3415 1.334 . S
C3416 C3417 1.287 . S
C3417 C3416 1.287 . S
C3417 C3418 1.524 . S
C3417 H3420 0.999 . S
C3418 H3388 0.950 . S
C3418 C3417 1.524 . S
C3418 C3419 1.415 . S
C3419 H3389 0.950 . S
C3419 C3414 1.363 . S
C3419 C3418 1.415 . S
H3420 C3417 0.999 . S
H3421 C3402 0.913 . S
H3422 C3440 0.951 . S
H3423 C3442 0.951 . S
H3424 C3444 0.950 . S
H3425 C3445 0.950 . S
H3426 C3447 0.950 . S
H3427 C3450 0.950 . S
H3428 C3451 0.950 . S
H3429 C3453 0.950 . S
H3430 C3454 0.950 . S
H3431 C3455 0.951 . S
H3432 C3457 0.951 . S
H3433 C3459 0.950 . S
H3434 C3460 0.950 . S
H3435 C3462 0.950 . S
H3436 C3465 0.950 . S
H3437 C3466 0.950 . S
H3438 C3468 0.950 . S
H3439 C3469 0.950 . S
C3440 H3422 0.951 . S
C3440 C3441 1.366 . S
C3440 C3442 1.388 . S
C3441 C3440 1.366 . S
C3441 C3445 1.385 . S
C3442 H3423 0.951 . S
C3442 C3440 1.388 . S
C3442 C3443 1.366 . S
C3443 C3442 1.366 . S
C3443 C3444 1.414 . S
C3443 C3446 1.499 . S
C3444 H3424 0.950 . S
C3444 C3443 1.414 . S
C3444 C3445 1.374 . S
C3445 H3425 0.950 . S
C3445 C3441 1.385 . S
C3445 C3444 1.374 . S
C3446 C3443 1.499 . S
C3446 C3447 1.373 . S
C3446 C3448 1.389 . S
C3447 H3426 0.950 . S
C3447 C3446 1.373 . S
C3447 C3463 1.377 . S
C3448 C3446 1.389 . S
C3448 C3449 1.524 . S
C3448 C3462 1.377 . S
C3449 C3448 1.524 . S
C3449 C3450 1.397 . S
C3449 C3454 1.363 . S
C3450 H3427 0.950 . S
C3450 C3449 1.397 . S
C3450 C3451 1.334 . S
C3451 H3428 0.950 . S
C3451 C3450 1.334 . S
C3451 C3452 1.287 . S
C3452 C3451 1.287 . S
C3452 C3453 1.524 . S
C3452 H3471 0.913 . S
C3453 H3429 0.950 . S
C3453 C3452 1.524 . S
C3453 C3454 1.415 . S
C3454 H3430 0.950 . S
C3454 C3449 1.363 . S
C3454 C3453 1.415 . S
C3455 H3431 0.951 . S
C3455 C3456 1.366 . S
C3455 C3457 1.388 . S
C3456 C3455 1.366 . S
C3456 C3460 1.385 . S
C3457 H3432 0.951 . S
C3457 C3455 1.388 . S
C3457 C3458 1.366 . S
C3458 C3457 1.366 . S
C3458 C3459 1.414 . S
C3458 C3461 1.499 . S
C3459 H3433 0.950 . S
C3459 C3458 1.414 . S
C3459 C3460 1.374 . S
C3460 H3434 0.950 . S
C3460 C3456 1.385 . S
C3460 C3459 1.374 . S
C3461 C3458 1.499 . S
C3461 C3462 1.373 . S
C3461 C3463 1.389 . S
C3462 H3435 0.950 . S
C3462 C3448 1.377 . S
C3462 C3461 1.373 . S
C3463 C3447 1.377 . S
C3463 C3461 1.389 . S
C3463 C3464 1.524 . S
C3464 C3463 1.524 . S
C3464 C3465 1.397 . S
C3464 C3469 1.363 . S
C3465 H3436 0.950 . S
C3465 C3464 1.397 . S
C3465 C3466 1.334 . S
C3466 H3437 0.950 . S
C3466 C3465 1.334 . S
C3466 C3467 1.287 . S
C3467 C3466 1.287 . S
C3467 C3468 1.524 . S
C3467 H3470 0.999 . S
C3468 H3438 0.950 . S
C3468 C3467 1.524 . S
C3468 C3469 1.415 . S
C3469 H3439 0.950 . S
C3469 C3464 1.363 . S
C3469 C3468 1.415 . S
H3470 C3467 0.999 . S
H3471 C3452 0.913 . S
H3472 C3490 0.951 . S
H3473 C3492 0.951 . S
H3474 C3494 0.950 . S
H3475 C3495 0.950 . S
H3476 C3497 0.950 . S
H3477 C3500 0.950 . S
H3478 C3501 0.950 . S
H3479 C3503 0.950 . S
H3480 C3504 0.950 . S
H3481 C3505 0.951 . S
H3482 C3507 0.951 . S
H3483 C3509 0.950 . S
H3484 C3510 0.950 . S
H3485 C3512 0.950 . S
H3486 C3515 0.950 . S
H3487 C3516 0.950 . S
H3488 C3518 0.950 . S
H3489 C3519 0.950 . S
C3490 H3472 0.951 . S
C3490 C3491 1.366 . S
C3490 C3492 1.388 . S
C3491 C3490 1.366 . S
C3491 C3495 1.385 . S
C3492 H3473 0.951 . S
C3492 C3490 1.388 . S
C3492 C3493 1.366 . S
C3493 C3492 1.366 . S
C3493 C3494 1.414 . S
C3493 C3496 1.499 . S
C3494 H3474 0.950 . S
C3494 C3493 1.414 . S
C3494 C3495 1.374 . S
C3495 H3475 0.950 . S
C3495 C3491 1.385 . S
C3495 C3494 1.374 . S
C3496 C3493 1.499 . S
C3496 C3497 1.373 . S
C3496 C3498 1.389 . S
C3497 H3476 0.950 . S
C3497 C3496 1.373 . S
C3497 C3513 1.377 . S
C3498 C3496 1.389 . S
C3498 C3499 1.524 . S
C3498 C3512 1.377 . S
C3499 C3498 1.524 . S
C3499 C3500 1.397 . S
C3499 C3504 1.363 . S
C3500 H3477 0.950 . S
C3500 C3499 1.397 . S
C3500 C3501 1.334 . S
C3501 H3478 0.950 . S
C3501 C3500 1.334 . S
C3501 C3502 1.287 . S
C3502 C3501 1.287 . S
C3502 C3503 1.524 . S
C3502 H3521 0.913 . S
C3503 H3479 0.950 . S
C3503 C3502 1.524 . S
C3503 C3504 1.415 . S
C3504 H3480 0.950 . S
C3504 C3499 1.363 . S
C3504 C3503 1.415 . S
C3505 H3481 0.951 . S
C3505 C3506 1.366 . S
C3505 C3507 1.388 . S
C3506 C3505 1.366 . S
C3506 C3510 1.385 . S
C3507 H3482 0.951 . S
C3507 C3505 1.388 . S
C3507 C3508 1.366 . S
C3508 C3507 1.366 . S
C3508 C3509 1.414 . S
C3508 C3511 1.499 . S
C3509 H3483 0.950 . S
C3509 C3508 1.414 . S
C3509 C3510 1.374 . S
C3510 H3484 0.950 . S
C3510 C3506 1.385 . S
C3510 C3509 1.374 . S
C3511 C3508 1.499 . S
C3511 C3512 1.373 . S
C3511 C3513 1.389 . S
C3512 H3485 0.950 . S
C3512 C3498 1.377 . S
C3512 C3511 1.373 . S
C3513 C3497 1.377 . S
C3513 C3511 1.389 . S
C3513 C3514 1.524 . S
C3514 C3513 1.524 . S
C3514 C3515 1.397 . S
C3514 C3519 1.363 . S
C3515 H3486 0.950 . S
C3515 C3514 1.397 . S
C3515 C3516 1.334 . S
C3516 H3487 0.950 . S
C3516 C3515 1.334 . S
C3516 C3517 1.287 . S
C3517 C3516 1.287 . S
C3517 C3518 1.524 . S
C3517 H3520 0.999 . S
C3518 H3488 0.950 . S
C3518 C3517 1.524 . S
C3518 C3519 1.415 . S
C3519 H3489 0.950 . S
C3519 C3514 1.363 . S
C3519 C3518 1.415 . S
H3520 C3517 0.999 . S
H3521 C3502 0.913 . S
H3522 C3540 0.951 . S
H3523 C3542 0.951 . S
H3524 C3544 0.950 . S
H3525 C3545 0.950 . S
H3526 C3547 0.950 . S
H3527 C3550 0.950 . S
H3528 C3551 0.950 . S
H3529 C3553 0.950 . S
H3530 C3554 0.950 . S
H3531 C3555 0.951 . S
H3532 C3557 0.951 . S
H3533 C3559 0.950 . S
H3534 C3560 0.950 . S
H3535 C3562 0.950 . S
H3536 C3565 0.950 . S
H3537 C3566 0.950 . S
H3538 C3568 0.950 . S
H3539 C3569 0.950 . S
C3540 H3522 0.951 . S
C3540 C3541 1.366 . S
C3540 C3542 1.388 . S
C3541 C3540 1.366 . S
C3541 C3545 1.385 . S
C3542 H3523 0.951 . S
C3542 C3540 1.388 . S
C3542 C3543 1.366 . S
C3543 C3542 1.366 . S
C3543 C3544 1.414 . S
C3543 C3546 1.499 . S
C3544 H3524 0.950 . S
C3544 C3543 1.414 . S
C3544 C3545 1.374 . S
C3545 H3525 0.950 . S
C3545 C3541 1.385 . S
C3545 C3544 1.374 . S
C3546 C3543 1.499 . S
C3546 C3547 1.373 . S
C3546 C3548 1.389 . S
C3547 H3526 0.950 . S
C3547 C3546 1.373 . S
C3547 C3563 1.377 . S
C3548 C3546 1.389 . S
C3548 C3549 1.524 . S
C3548 C3562 1.377 . S
C3549 C3548 1.524 . S
C3549 C3550 1.397 . S
C3549 C3554 1.363 . S
C3550 H3527 0.950 . S
C3550 C3549 1.397 . S
C3550 C3551 1.334 . S
C3551 H3528 0.950 . S
C3551 C3550 1.334 . S
C3551 C3552 1.287 . S
C3552 C3551 1.287 . S
C3552 C3553 1.524 . S
C3552 H3571 0.913 . S
C3553 H3529 0.950 . S
C3553 C3552 1.524 . S
C3553 C3554 1.415 . S
C3554 H3530 0.950 . S
C3554 C3549 1.363 . S
C3554 C3553 1.415 . S
C3555 H3531 0.951 . S
C3555 C3556 1.366 . S
C3555 C3557 1.388 . S
C3556 C3555 1.366 . S
C3556 C3560 1.385 . S
C3557 H3532 0.951 . S
C3557 C3555 1.388 . S
C3557 C3558 1.366 . S
C3558 C3557 1.366 . S
C3558 C3559 1.414 . S
C3558 C3561 1.499 . S
C3559 H3533 0.950 . S
C3559 C3558 1.414 . S
C3559 C3560 1.374 . S
C3560 H3534 0.950 . S
C3560 C3556 1.385 . S
C3560 C3559 1.374 . S
C3561 C3558 1.499 . S
C3561 C3562 1.373 . S
C3561 C3563 1.389 . S
C3562 H3535 0.950 . S
C3562 C3548 1.377 . S
C3562 C3561 1.373 . S
C3563 C3547 1.377 . S
C3563 C3561 1.389 . S
C3563 C3564 1.524 . S
C3564 C3563 1.524 . S
C3564 C3565 1.397 . S
C3564 C3569 1.363 . S
C3565 H3536 0.950 . S
C3565 C3564 1.397 . S
C3565 C3566 1.334 . S
C3566 H3537 0.950 . S
C3566 C3565 1.334 . S
C3566 C3567 1.287 . S
C3567 C3566 1.287 . S
C3567 C3568 1.524 . S
C3567 H3570 0.999 . S
C3568 H3538 0.950 . S
C3568 C3567 1.524 . S
C3568 C3569 1.415 . S
C3569 H3539 0.950 . S
C3569 C3564 1.363 . S
C3569 C3568 1.415 . S
H3570 C3567 0.999 . S
H3571 C3552 0.913 . S
H3572 C3590 0.951 . S
H3573 C3592 0.951 . S
H3574 C3594 0.950 . S
H3575 C3595 0.950 . S
H3576 C3597 0.950 . S
H3577 C3600 0.950 . S
H3578 C3601 0.950 . S
H3579 C3603 0.950 . S
H3580 C3604 0.950 . S
H3581 C3605 0.951 . S
H3582 C3607 0.951 . S
H3583 C3609 0.950 . S
H3584 C3610 0.950 . S
H3585 C3612 0.950 . S
H3586 C3615 0.950 . S
H3587 C3616 0.950 . S
H3588 C3618 0.950 . S
H3589 C3619 0.950 . S
C3590 H3572 0.951 . S
C3590 C3591 1.366 . S
C3590 C3592 1.388 . S
C3591 C3590 1.366 . S
C3591 C3595 1.385 . S
C3592 H3573 0.951 . S
C3592 C3590 1.388 . S
C3592 C3593 1.366 . S
C3593 C3592 1.366 . S
C3593 C3594 1.414 . S
C3593 C3596 1.499 . S
C3594 H3574 0.950 . S
C3594 C3593 1.414 . S
C3594 C3595 1.374 . S
C3595 H3575 0.950 . S
C3595 C3591 1.385 . S
C3595 C3594 1.374 . S
C3596 C3593 1.499 . S
C3596 C3597 1.373 . S
C3596 C3598 1.389 . S
C3597 H3576 0.950 . S
C3597 C3596 1.373 . S
C3597 C3613 1.377 . S
C3598 C3596 1.389 . S
C3598 C3599 1.524 . S
C3598 C3612 1.377 . S
C3599 C3598 1.524 . S
C3599 C3600 1.397 . S
C3599 C3604 1.363 . S
C3600 H3577 0.950 . S
C3600 C3599 1.397 . S
C3600 C3601 1.334 . S
C3601 H3578 0.950 . S
C3601 C3600 1.334 . S
C3601 C3602 1.287 . S
C3602 C3601 1.287 . S
C3602 C3603 1.524 . S
C3602 H3621 0.913 . S
C3603 H3579 0.950 . S
C3603 C3602 1.524 . S
C3603 C3604 1.415 . S
C3604 H3580 0.950 . S
C3604 C3599 1.363 . S
C3604 C3603 1.415 . S
C3605 H3581 0.951 . S
C3605 C3606 1.366 . S
C3605 C3607 1.388 . S
C3606 C3605 1.366 . S
C3606 C3610 1.385 . S
C3607 H3582 0.951 . S
C3607 C3605 1.388 . S
C3607 C3608 1.366 . S
C3608 C3607 1.366 . S
C3608 C3609 1.414 . S
C3608 C3611 1.499 . S
C3609 H3583 0.950 . S
C3609 C3608 1.414 . S
C3609 C3610 1.374 . S
C3610 H3584 0.950 . S
C3610 C3606 1.385 . S
C3610 C3609 1.374 . S
C3611 C3608 1.499 . S
C3611 C3612 1.373 . S
C3611 C3613 1.389 . S
C3612 H3585 0.950 . S
C3612 C3598 1.377 . S
C3612 C3611 1.373 . S
C3613 C3597 1.377 . S
C3613 C3611 1.389 . S
C3613 C3614 1.524 . S
C3614 C3613 1.524 . S
C3614 C3615 1.397 . S
C3614 C3619 1.363 . S
C3615 H3586 0.950 . S
C3615 C3614 1.397 . S
C3615 C3616 1.334 . S
C3616 H3587 0.950 . S
C3616 C3615 1.334 . S
C3616 C3617 1.287 . S
C3617 C3616 1.287 . S
C3617 C3618 1.524 . S
C3617 H3620 0.999 . S
C3618 H3588 0.950 . S
C3618 C3617 1.524 . S
C3618 C3619 1.415 . S
C3619 H3589 0.950 . S
C3619 C3614 1.363 . S
C3619 C3618 1.415 . S
H3620 C3617 0.999 . S
H3621 C3602 0.913 . S
H3622 C3640 0.951 . S
H3623 C3642 0.951 . S
H3624 C3644 0.950 . S
H3625 C3645 0.950 . S
H3626 C3647 0.950 . S
H3627 C3650 0.950 . S
H3628 C3651 0.950 . S
H3629 C3653 0.950 . S
H3630 C3654 0.950 . S
H3631 C3655 0.951 . S
H3632 C3657 0.951 . S
H3633 C3659 0.950 . S
H3634 C3660 0.950 . S
H3635 C3662 0.950 . S
H3636 C3665 0.950 . S
H3637 C3666 0.950 . S
H3638 C3668 0.950 . S
H3639 C3669 0.950 . S
C3640 H3622 0.951 . S
C3640 C3641 1.366 . S
C3640 C3642 1.388 . S
C3641 C3640 1.366 . S
C3641 C3645 1.385 . S
C3642 H3623 0.951 . S
C3642 C3640 1.388 . S
C3642 C3643 1.366 . S
C3643 C3642 1.366 . S
C3643 C3644 1.414 . S
C3643 C3646 1.499 . S
C3644 H3624 0.950 . S
C3644 C3643 1.414 . S
C3644 C3645 1.374 . S
C3645 H3625 0.950 . S
C3645 C3641 1.385 . S
C3645 C3644 1.374 . S
C3646 C3643 1.499 . S
C3646 C3647 1.373 . S
C3646 C3648 1.389 . S
C3647 H3626 0.950 . S
C3647 C3646 1.373 . S
C3647 C3663 1.377 . S
C3648 C3646 1.389 . S
C3648 C3649 1.524 . S
C3648 C3662 1.377 . S
C3649 C3648 1.524 . S
C3649 C3650 1.397 . S
C3649 C3654 1.363 . S
C3650 H3627 0.950 . S
C3650 C3649 1.397 . S
C3650 C3651 1.334 . S
C3651 H3628 0.950 . S
C3651 C3650 1.334 . S
C3651 C3652 1.287 . S
C3652 C3651 1.287 . S
C3652 C3653 1.524 . S
C3652 H3671 0.913 . S
C3653 H3629 0.950 . S
C3653 C3652 1.524 . S
C3653 C3654 1.415 . S
C3654 H3630 0.950 . S
C3654 C3649 1.363 . S
C3654 C3653 1.415 . S
C3655 H3631 0.951 . S
C3655 C3656 1.366 . S
C3655 C3657 1.388 . S
C3656 C3655 1.366 . S
C3656 C3660 1.385 . S
C3657 H3632 0.951 . S
C3657 C3655 1.388 . S
C3657 C3658 1.366 . S
C3658 C3657 1.366 . S
C3658 C3659 1.414 . S
C3658 C3661 1.499 . S
C3659 H3633 0.950 . S
C3659 C3658 1.414 . S
C3659 C3660 1.374 . S
C3660 H3634 0.950 . S
C3660 C3656 1.385 . S
C3660 C3659 1.374 . S
C3661 C3658 1.499 . S
C3661 C3662 1.373 . S
C3661 C3663 1.389 . S
C3662 H3635 0.950 . S
C3662 C3648 1.377 . S
C3662 C3661 1.373 . S
C3663 C3647 1.377 . S
C3663 C3661 1.389 . S
C3663 C3664 1.524 . S
C3664 C3663 1.524 . S
C3664 C3665 1.397 . S
C3664 C3669 1.363 . S
C3665 H3636 0.950 . S
C3665 C3664 1.397 . S
C3665 C3666 1.334 . S
C3666 H3637 0.950 . S
C3666 C3665 1.334 . S
C3666 C3667 1.287 . S
C3667 C3666 1.287 . S
C3667 C3668 1.524 . S
C3667 H3670 0.999 . S
C3668 H3638 0.950 . S
C3668 C3667 1.524 . S
C3668 C3669 1.415 . S
C3669 H3639 0.950 . S
C3669 C3664 1.363 . S
C3669 C3668 1.415 . S
H3670 C3667 0.999 . S
H3671 C3652 0.913 . S
C1291 C1205 1.880 . S
C1306 C39 1.880 . S
C1341 C92 1.466 . S
C1356 C1241 1.466 . S
C1391 C1098 1.571 . S
C1406 C128 1.573 . S
C1441 C1142 1.347 . S
C1456 C188 1.348 . S
C1491 C1135 1.279 . S
C1506 C234 1.279 . S
C1541 C304 1.833 . S
C1556 C1204 1.834 . S
C1591 C1248 1.463 . S
C1606 C356 1.463 . S
C1641 C393 1.701 . S
C1656 C1099 1.701 . S
C1691 C462 1.702 . S
C1706 C1029 1.703 . S
C1741 C886 1.502 . S
C1756 C499 1.503 . S
C1791 C552 1.669 . S
C1806 C939 1.668 . S
C1841 C992 1.600 . S
C1856 C622 1.601 . S
C1891 C621 1.579 . S
C1906 C727 1.580 . S
C1941 C463 1.704 . S
C1956 C781 1.704 . S
C1991 C824 1.337 . S
C2006 C506 1.336 . S
C2041 C559 1.703 . S
C2056 C665 1.702 . S
C2091 C91 1.618 . S
C2106 C993 1.617 . S
C2141 C780 1.692 . S
C2156 C400 1.692 . S
C2191 C241 1.208 . S
C2206 C817 1.209 . S
C2241 C658 1.832 . S
C2256 C303 1.831 . S
C2291 C357 1.578 . S
C2306 C728 1.578 . S
C2341 C181 1.378 . S
C2356 C887 1.378 . S
C2391 C38 1.858 . S
C2406 C940 1.859 . S
C2441 C135 1.518 . S
C2456 C1036 1.517 . S
C2491 C347 1.270 . S
C2506 C1089 1.270 . S
C2541 C1151 1.526 . S
C2556 C410 1.526 . S
C2591 C1188 1.405 . S
C2606 C251 1.405 . S
C2641 C1258 1.706 . S
C2656 C287 1.706 . S
C2691 C145 1.825 . S
C2706 C1257 1.827 . S
C2741 C197 1.207 . S
C2756 C1082 1.206 . S
C2791 C22 1.528 . S
C2806 C1152 1.529 . S
C2841 C1195 1.361 . S
C2856 C75 1.360 . S
C2891 C569 1.469 . S
C2906 C718 1.470 . S
C2941 C605 1.557 . S
C2956 C764 1.558 . S
C2991 C453 1.171 . S
C3006 C833 1.171 . S
C3041 C516 1.524 . S
C3056 C674 1.526 . S
C3091 C515 1.565 . S
C3106 C1046 1.563 . S
C3141 C877 1.259 . S
C3156 C568 1.259 . S
C3191 C612 1.575 . S
C3206 C930 1.576 . S
C3241 C446 1.229 . S
C3256 C983 1.229 . S
C3291 C675 1.591 . S
C3306 C409 1.591 . S
C3341 C870 1.248 . S
C3356 C82 1.248 . S
C3391 C144 1.661 . S
C3406 C923 1.660 . S
C3441 C976 1.259 . S
C3456 C198 1.258 . S
C3491 C1045 1.591 . S
C3506 C29 1.591 . S
C3541 C294 1.481 . S
C3556 C771 1.481 . S
C3591 C834 1.298 . S
C3606 C340 1.296 . S
C3641 C711 1.424 . S
C3656 C250 1.424 . S
