# Generated by pormake.
# Topology sxi, (6)-cn, num edge types: 1
# Building blocks:
#     Node 0, Type 0, BuildingBlock: OJICUG_clean_sbu_0, # of connection points: 6
#     Node 1, Type 0, BuildingBlock: OJICUG_clean_sbu_0, # of connection points: 6
#     Node 2, Type 0, BuildingBlock: OJICUG_clean_sbu_0, # of connection points: 6
#     Node 3, Type 0, BuildingBlock: OJICUG_clean_sbu_0, # of connection points: 6
#     Node 4, Type 0, BuildingBlock: OJICUG_clean_sbu_0, # of connection points: 6
#     Node 5, Type 0, BuildingBlock: OJICUG_clean_sbu_0, # of connection points: 6
#     Node 6, Type 0, BuildingBlock: OJICUG_clean_sbu_0, # of connection points: 6
#     Node 7, Type 0, BuildingBlock: OJICUG_clean_sbu_0, # of connection points: 6
#     Node 8, Type 0, BuildingBlock: OJICUG_clean_sbu_0, # of connection points: 6
#     Node 9, Type 0, BuildingBlock: OJICUG_clean_sbu_0, # of connection points: 6
#     Node 10, Type 0, BuildingBlock: OJICUG_clean_sbu_0, # of connection points: 6
#     Node 11, Type 0, BuildingBlock: OJICUG_clean_sbu_0, # of connection points: 6
#     Node 12, Type 0, BuildingBlock: OJICUG_clean_sbu_0, # of connection points: 6
#     Node 13, Type 0, BuildingBlock: OJICUG_clean_sbu_0, # of connection points: 6
#     Node 14, Type 0, BuildingBlock: OJICUG_clean_sbu_0, # of connection points: 6
#     Node 15, Type 0, BuildingBlock: OJICUG_clean_sbu_0, # of connection points: 6
#     Node 16, Type 0, BuildingBlock: OJICUG_clean_sbu_0, # of connection points: 6
#     Node 17, Type 0, BuildingBlock: OJICUG_clean_sbu_0, # of connection points: 6
#     Node 18, Type 0, BuildingBlock: OJICUG_clean_sbu_0, # of connection points: 6
#     Node 19, Type 0, BuildingBlock: OJICUG_clean_sbu_0, # of connection points: 6
#     Node 20, Type 0, BuildingBlock: OJICUG_clean_sbu_0, # of connection points: 6
#     Node 21, Type 0, BuildingBlock: OJICUG_clean_sbu_0, # of connection points: 6
#     Node 22, Type 0, BuildingBlock: OJICUG_clean_sbu_0, # of connection points: 6
#     Node 23, Type 0, BuildingBlock: OJICUG_clean_sbu_0, # of connection points: 6
#     Edge 24, Type (0, 0), BuildingBlock: AJUNOK_clean_linker_0, # of connection points: 2
#     Edge 25, Type (0, 0), BuildingBlock: AJUNOK_clean_linker_0, # of connection points: 2
#     Edge 26, Type (0, 0), BuildingBlock: AJUNOK_clean_linker_0, # of connection points: 2
#     Edge 27, Type (0, 0), BuildingBlock: AJUNOK_clean_linker_0, # of connection points: 2
#     Edge 28, Type (0, 0), BuildingBlock: AJUNOK_clean_linker_0, # of connection points: 2
#     Edge 29, Type (0, 0), BuildingBlock: AJUNOK_clean_linker_0, # of connection points: 2
#     Edge 30, Type (0, 0), BuildingBlock: AJUNOK_clean_linker_0, # of connection points: 2
#     Edge 31, Type (0, 0), BuildingBlock: AJUNOK_clean_linker_0, # of connection points: 2
#     Edge 32, Type (0, 0), BuildingBlock: AJUNOK_clean_linker_0, # of connection points: 2
#     Edge 33, Type (0, 0), BuildingBlock: AJUNOK_clean_linker_0, # of connection points: 2
#     Edge 34, Type (0, 0), BuildingBlock: AJUNOK_clean_linker_0, # of connection points: 2
#     Edge 35, Type (0, 0), BuildingBlock: AJUNOK_clean_linker_0, # of connection points: 2
#     Edge 36, Type (0, 0), BuildingBlock: AJUNOK_clean_linker_0, # of connection points: 2
#     Edge 37, Type (0, 0), BuildingBlock: AJUNOK_clean_linker_0, # of connection points: 2
#     Edge 38, Type (0, 0), BuildingBlock: AJUNOK_clean_linker_0, # of connection points: 2
#     Edge 39, Type (0, 0), BuildingBlock: AJUNOK_clean_linker_0, # of connection points: 2
#     Edge 40, Type (0, 0), BuildingBlock: AJUNOK_clean_linker_0, # of connection points: 2
#     Edge 41, Type (0, 0), BuildingBlock: AJUNOK_clean_linker_0, # of connection points: 2
#     Edge 42, Type (0, 0), BuildingBlock: AJUNOK_clean_linker_0, # of connection points: 2
#     Edge 43, Type (0, 0), BuildingBlock: AJUNOK_clean_linker_0, # of connection points: 2
#     Edge 44, Type (0, 0), BuildingBlock: AJUNOK_clean_linker_0, # of connection points: 2
#     Edge 45, Type (0, 0), BuildingBlock: AJUNOK_clean_linker_0, # of connection points: 2
#     Edge 46, Type (0, 0), BuildingBlock: AJUNOK_clean_linker_0, # of connection points: 2
#     Edge 47, Type (0, 0), BuildingBlock: AJUNOK_clean_linker_0, # of connection points: 2
#     Edge 48, Type (0, 0), BuildingBlock: AJUNOK_clean_linker_0, # of connection points: 2
#     Edge 49, Type (0, 0), BuildingBlock: AJUNOK_clean_linker_0, # of connection points: 2
#     Edge 50, Type (0, 0), BuildingBlock: AJUNOK_clean_linker_0, # of connection points: 2
#     Edge 51, Type (0, 0), BuildingBlock: AJUNOK_clean_linker_0, # of connection points: 2
#     Edge 52, Type (0, 0), BuildingBlock: AJUNOK_clean_linker_0, # of connection points: 2
#     Edge 53, Type (0, 0), BuildingBlock: AJUNOK_clean_linker_0, # of connection points: 2
#     Edge 54, Type (0, 0), BuildingBlock: AJUNOK_clean_linker_0, # of connection points: 2
#     Edge 55, Type (0, 0), BuildingBlock: AJUNOK_clean_linker_0, # of connection points: 2
#     Edge 56, Type (0, 0), BuildingBlock: AJUNOK_clean_linker_0, # of connection points: 2
#     Edge 57, Type (0, 0), BuildingBlock: AJUNOK_clean_linker_0, # of connection points: 2
#     Edge 58, Type (0, 0), BuildingBlock: AJUNOK_clean_linker_0, # of connection points: 2
#     Edge 59, Type (0, 0), BuildingBlock: AJUNOK_clean_linker_0, # of connection points: 2
#     Edge 60, Type (0, 0), BuildingBlock: AJUNOK_clean_linker_0, # of connection points: 2
#     Edge 61, Type (0, 0), BuildingBlock: AJUNOK_clean_linker_0, # of connection points: 2
#     Edge 62, Type (0, 0), BuildingBlock: AJUNOK_clean_linker_0, # of connection points: 2
#     Edge 63, Type (0, 0), BuildingBlock: AJUNOK_clean_linker_0, # of connection points: 2
#     Edge 64, Type (0, 0), BuildingBlock: AJUNOK_clean_linker_0, # of connection points: 2
#     Edge 65, Type (0, 0), BuildingBlock: AJUNOK_clean_linker_0, # of connection points: 2
#     Edge 66, Type (0, 0), BuildingBlock: AJUNOK_clean_linker_0, # of connection points: 2
#     Edge 67, Type (0, 0), BuildingBlock: AJUNOK_clean_linker_0, # of connection points: 2
#     Edge 68, Type (0, 0), BuildingBlock: AJUNOK_clean_linker_0, # of connection points: 2
#     Edge 69, Type (0, 0), BuildingBlock: AJUNOK_clean_linker_0, # of connection points: 2
#     Edge 70, Type (0, 0), BuildingBlock: AJUNOK_clean_linker_0, # of connection points: 2
#     Edge 71, Type (0, 0), BuildingBlock: AJUNOK_clean_linker_0, # of connection points: 2
#     Edge 72, Type (0, 0), BuildingBlock: AJUNOK_clean_linker_0, # of connection points: 2
#     Edge 73, Type (0, 0), BuildingBlock: AJUNOK_clean_linker_0, # of connection points: 2
#     Edge 74, Type (0, 0), BuildingBlock: AJUNOK_clean_linker_0, # of connection points: 2
#     Edge 75, Type (0, 0), BuildingBlock: AJUNOK_clean_linker_0, # of connection points: 2
#     Edge 76, Type (0, 0), BuildingBlock: AJUNOK_clean_linker_0, # of connection points: 2
#     Edge 77, Type (0, 0), BuildingBlock: AJUNOK_clean_linker_0, # of connection points: 2
#     Edge 78, Type (0, 0), BuildingBlock: AJUNOK_clean_linker_0, # of connection points: 2
#     Edge 79, Type (0, 0), BuildingBlock: AJUNOK_clean_linker_0, # of connection points: 2
#     Edge 80, Type (0, 0), BuildingBlock: AJUNOK_clean_linker_0, # of connection points: 2
#     Edge 81, Type (0, 0), BuildingBlock: AJUNOK_clean_linker_0, # of connection points: 2
#     Edge 82, Type (0, 0), BuildingBlock: AJUNOK_clean_linker_0, # of connection points: 2
#     Edge 83, Type (0, 0), BuildingBlock: AJUNOK_clean_linker_0, # of connection points: 2
#     Edge 84, Type (0, 0), BuildingBlock: AJUNOK_clean_linker_0, # of connection points: 2
#     Edge 85, Type (0, 0), BuildingBlock: AJUNOK_clean_linker_0, # of connection points: 2
#     Edge 86, Type (0, 0), BuildingBlock: AJUNOK_clean_linker_0, # of connection points: 2
#     Edge 87, Type (0, 0), BuildingBlock: AJUNOK_clean_linker_0, # of connection points: 2
#     Edge 88, Type (0, 0), BuildingBlock: AJUNOK_clean_linker_0, # of connection points: 2
#     Edge 89, Type (0, 0), BuildingBlock: AJUNOK_clean_linker_0, # of connection points: 2
#     Edge 90, Type (0, 0), BuildingBlock: AJUNOK_clean_linker_0, # of connection points: 2
#     Edge 91, Type (0, 0), BuildingBlock: AJUNOK_clean_linker_0, # of connection points: 2
#     Edge 92, Type (0, 0), BuildingBlock: AJUNOK_clean_linker_0, # of connection points: 2
#     Edge 93, Type (0, 0), BuildingBlock: AJUNOK_clean_linker_0, # of connection points: 2
#     Edge 94, Type (0, 0), BuildingBlock: AJUNOK_clean_linker_0, # of connection points: 2
#     Edge 95, Type (0, 0), BuildingBlock: AJUNOK_clean_linker_0, # of connection points: 2
# Relax obj value: 0.447
# Max RMSD: 0.271
# Mean RMSD: 0.271
data_MOF--net-sxi--node1-OJICUG_clean_sbu_0--edge1-AJUNOK_clean_linker_0
_symmetry_space_group_name_H-M    P1
_symmetry_Int_Tables_number       1
_symmetry_cell_setting            triclinic
loop_
_symmetry_equiv_pos_as_xyz
'x, y, z'
_cell_length_a     36.487581
_cell_length_b     36.485632
_cell_length_c     36.575598
_cell_angle_alpha  89.947417
_cell_angle_beta   89.902158
_cell_angle_gamma 89.995232
loop_
_atom_site_label
_atom_site_type_symbol
_atom_site_fract_x
_atom_site_fract_y
_atom_site_fract_z
_atom_type_partial_charge
Sc0 Sc 0.00234 0.30154 0.41229 0.0
Sc1 Sc 0.07854 0.32991 0.36232 0.0
Sc2 Sc 0.03515 0.38925 0.42043 0.0
O3 O 0.03738 0.34032 0.39752 0.0
C4 C 0.95443 0.37539 0.40617 0.0
C5 C 0.01399 0.27592 0.33427 0.0
C6 C 0.05498 0.40559 0.33504 0.0
C7 C 0.08157 0.26297 0.41487 0.0
C8 C 0.00732 0.33933 0.48787 0.0
C9 C 0.11451 0.38671 0.41801 0.0
O10 O 0.9581 0.34099 0.41182 0.0
O11 O 0.04807 0.2845 0.33485 0.0
O12 O 0.05285 0.41509 0.36881 0.0
O13 O 0.04647 0.26101 0.41536 0.0
O14 O 0.01471 0.37006 0.47301 0.0
O15 O 0.11422 0.37391 0.38547 0.0
O16 O 0.00763 0.3095 0.47016 0.0
O17 O 0.09886 0.28966 0.40012 0.0
O18 O 0.0888 0.37835 0.43928 0.0
O19 O 0.99144 0.29046 0.3561 0.0
O20 O 0.9807 0.39787 0.40329 0.0
O21 O 0.05808 0.37192 0.32556 0.0
Sc22 Sc 0.95234 0.75997 0.66315 0.0
Sc23 Sc 0.91615 0.83204 0.61013 0.0
Sc24 Sc 0.85938 0.77684 0.6619 0.0
O25 O 0.90983 0.78916 0.64448 0.0
C26 C 0.89054 0.70285 0.63872 0.0
C27 C 0.98061 0.77613 0.58355 0.0
C28 C 0.84333 0.8021 0.57879 0.0
C29 C 0.98026 0.84316 0.66817 0.0
C30 C 0.90447 0.75047 0.73254 0.0
C31 C 0.85315 0.85772 0.66751 0.0
O32 O 0.92244 0.7106 0.6509 0.0
O33 O 0.9624 0.80599 0.57936 0.0
O34 O 0.8333 0.79595 0.61168 0.0
O35 O 0.98337 0.80888 0.67461 0.0
O36 O 0.87525 0.75339 0.71403 0.0
O37 O 0.8695 0.86188 0.63661 0.0
O38 O 0.93551 0.75838 0.71941 0.0
O39 O 0.95542 0.85663 0.64746 0.0
O40 O 0.85736 0.8291 0.68644 0.0
O41 O 0.9766 0.75552 0.61094 0.0
O42 O 0.8636 0.72476 0.63805 0.0
O43 O 0.87657 0.81009 0.57115 0.0
Sc44 Sc 0.47239 0.6978 0.92341 0.0
Sc45 Sc 0.40803 0.66613 0.85981 0.0
Sc46 Sc 0.47624 0.60813 0.89363 0.0
O47 O 0.45176 0.6574 0.89216 0.0
C48 C 0.5412 0.65886 0.88472 0.0
C49 C 0.45829 0.73716 0.84628 0.0
C50 C 0.44187 0.59974 0.81347 0.0
C51 C 0.38902 0.71777 0.92867 0.0
C52 C 0.49818 0.63684 0.97412 0.0
C53 C 0.39318 0.59373 0.91004 0.0
O54 O 0.52611 0.68239 0.90562 0.0
O55 O 0.4368 0.71271 0.83264 0.0
O56 O 0.45991 0.58831 0.84066 0.0
O57 O 0.42035 0.71521 0.94331 0.0
O58 O 0.50069 0.61537 0.947 0.0
O59 O 0.38122 0.61934 0.88865 0.0
O60 O 0.47879 0.66556 0.97256 0.0
O61 O 0.38147 0.70384 0.89772 0.0
O62 O 0.42699 0.58717 0.91607 0.0
O63 O 0.47012 0.73567 0.87885 0.0
O64 O 0.52423 0.63165 0.87111 0.0
O65 O 0.42462 0.63003 0.81484 0.0
Sc66 Sc 0.54377 0.22774 0.17506 0.0
Sc67 Sc 0.57618 0.15754 0.11647 0.0
Sc68 Sc 0.63635 0.21763 0.15971 0.0
O69 O 0.5851 0.20051 0.15023 0.0
C70 C 0.60041 0.29082 0.1529 0.0
C71 C 0.51207 0.2169 0.0955 0.0
C72 C 0.64696 0.18934 0.07703 0.0
C73 C 0.51345 0.14548 0.17595 0.0
C74 C 0.59865 0.23382 0.23788 0.0
C75 C 0.64374 0.13378 0.16976 0.0
O76 O 0.5716 0.27926 0.16878 0.0
O77 O 0.53005 0.1872 0.08855 0.0
O78 O 0.6582 0.2024 0.10712 0.0
O79 O 0.51214 0.17917 0.18457 0.0
O80 O 0.62449 0.23618 0.21463 0.0
O81 O 0.62128 0.12601 0.14367 0.0
O82 O 0.56661 0.2236 0.22915 0.0
O83 O 0.53731 0.13246 0.15407 0.0
O84 O 0.64929 0.16602 0.18123 0.0
O85 O 0.51679 0.23567 0.12425 0.0
O86 O 0.62382 0.26977 0.13845 0.0
O87 O 0.61476 0.17599 0.074 0.0
Sc88 Sc 0.50328 0.10901 0.59394 0.0
Sc89 Sc 0.5672 0.16852 0.63166 0.0
Sc90 Sc 0.49401 0.20152 0.57895 0.0
O91 O 0.52178 0.16018 0.60186 0.0
C92 C 0.47386 0.14539 0.51994 0.0
C93 C 0.58476 0.10494 0.57246 0.0
C94 C 0.57588 0.22531 0.56507 0.0
C95 C 0.53878 0.09794 0.67288 0.0
C96 C 0.43745 0.15098 0.62228 0.0
C97 C 0.51566 0.23676 0.65506 0.0
O98 O 0.4726 0.11994 0.54362 0.0
O99 O 0.5946 0.12404 0.6004 0.0
O100 O 0.54196 0.22718 0.55776 0.0
O101 O 0.52762 0.08558 0.64248 0.0
O102 O 0.44459 0.17779 0.60084 0.0
O103 O 0.54245 0.21513 0.66255 0.0
O104 O 0.45713 0.12251 0.62522 0.0
O105 O 0.55033 0.13085 0.67565 0.0
O106 O 0.4965 0.23383 0.62653 0.0
O107 O 0.55149 0.09888 0.56395 0.0
O108 O 0.48883 0.17571 0.52678 0.0
O109 O 0.58895 0.20575 0.59084 0.0
Sc110 Sc 0.13356 0.24853 0.8567 0.0
Sc111 Sc 0.07561 0.31827 0.88704 0.0
Sc112 Sc 0.0402 0.24253 0.83859 0.0
O113 O 0.08299 0.27017 0.86062 0.0
C114 C 0.09846 0.21651 0.78224 0.0
C115 C 0.14345 0.32926 0.83014 0.0
C116 C 0.01938 0.32378 0.81871 0.0
C117 C 0.14462 0.29015 0.93322 0.0
C118 C 0.08577 0.18543 0.88688 0.0
C119 C 0.00547 0.27183 0.91267 0.0
O120 O 0.1239 0.22039 0.80555 0.0
O121 O 0.12013 0.34254 0.85313 0.0
O122 O 0.01947 0.28984 0.81096 0.0
O123 O 0.15541 0.27093 0.90653 0.0
O124 O 0.05838 0.19402 0.86688 0.0
O125 O 0.0301 0.29557 0.92092 0.0
O126 O 0.11569 0.20309 0.88733 0.0
O127 O 0.11392 0.30689 0.93214 0.0
O128 O 0.00631 0.25325 0.88368 0.0
O129 O 0.1503 0.29525 0.82695 0.0
O130 O 0.06621 0.2271 0.78857 0.0
O131 O 0.0369 0.33699 0.84585 0.0
Sc132 Sc -0.00229 0.88916 0.09159 0.0
Sc133 Sc 0.93387 0.82906 0.12944 0.0
Sc134 Sc 0.00885 0.79645 0.07931 0.0
O135 O 0.9797 0.83783 0.10041 0.0
C136 C 0.02725 0.85072 0.01879 0.0
C137 C 0.91663 0.89128 0.06794 0.0
C138 C 0.92801 0.768 0.06617 0.0
C139 C 0.95869 0.90236 0.16893 0.0
C140 C 0.06311 0.84869 0.12267 0.0
C141 C 0.98811 0.76442 0.15686 0.0
O142 O 0.02898 0.87683 0.0417 0.0
O143 O 0.90611 0.8714 0.09525 0.0
O144 O 0.96204 0.7676 0.05892 0.0
O145 O 0.97217 0.91404 0.13912 0.0
O146 O 0.05786 0.82229 0.10025 0.0
O147 O 0.95997 0.78485 0.16295 0.0
O148 O 0.04302 0.87693 0.12433 0.0
O149 O 0.94775 0.86925 0.17193 0.0
O150 O 0.00737 0.76674 0.12831 0.0
O151 O 0.9501 0.89804 0.06071 0.0
O152 O 0.01248 0.8206 0.02663 0.0
O153 O 0.91428 0.78867 0.09071 0.0
Sc154 Sc 0.36014 0.74067 0.33313 0.0
Sc155 Sc 0.42161 0.68003 0.37341 0.0
Sc156 Sc 0.45314 0.75527 0.32705 0.0
O157 O 0.41086 0.72443 0.34382 0.0
C158 C 0.39791 0.77534 0.265 0.0
C159 C 0.35826 0.65539 0.31821 0.0
C160 C 0.47614 0.67985 0.30242 0.0
C161 C 0.34817 0.70853 0.41394 0.0
C162 C 0.40175 0.80564 0.3712 0.0
C163 C 0.4869 0.72818 0.39794 0.0
O164 O 0.37388 0.75336 0.27703 0.0
O165 O 0.38497 0.64692 0.33928 0.0
O166 O 0.46881 0.71226 0.29135 0.0
O167 O 0.33897 0.72868 0.3871 0.0
O168 O 0.43447 0.79419 0.36625 0.0
O169 O 0.458 0.71242 0.40957 0.0
O170 O 0.37433 0.79393 0.35295 0.0
O171 O 0.37746 0.68923 0.41332 0.0
O172 O 0.49183 0.73213 0.36422 0.0
O173 O 0.346 0.68773 0.3143 0.0
O174 O 0.42508 0.78478 0.28414 0.0
O175 O 0.46541 0.66713 0.33359 0.0
Sc176 Sc 0.41611 0.02821 0.39096 0.0
Sc177 Sc 0.35842 0.06577 0.32745 0.0
Sc178 Sc 0.40272 0.98398 0.30918 0.0
O179 O 0.3921 0.02472 0.3428 0.0
C180 C 0.48097 0.9903 0.34432 0.0
C181 C 0.41364 0.10645 0.38044 0.0
C182 C 0.41417 0.05937 0.26395 0.0
C183 C 0.32885 0.0478 0.40358 0.0
C184 C 0.39333 0.94726 0.38854 0.0
C185 C 0.32935 -0.00048 0.27758 0.0
O186 O 0.46918 0.00662 0.37291 0.0
O187 O 0.38056 0.10435 0.36936 0.0
O188 O 0.41298 0.02406 0.265 0.0
O189 O 0.36265 0.04671 0.41409 0.0
O190 O 0.39479 0.94586 0.35359 0.0
O191 O 0.33231 0.03413 0.28194 0.0
O192 O 0.40002 0.9754 0.40745 0.0
O193 O 0.32009 0.04919 0.36962 0.0
O194 O 0.34566 0.97833 0.29917 0.0
O195 O 0.43474 0.08035 0.37339 0.0
O196 O 0.46054 0.98231 0.3176 0.0
O197 O 0.39891 0.07999 0.28783 0.0
Sc198 Sc 0.24492 0.16218 0.54782 0.0
Sc199 Sc 0.16731 0.11365 0.57594 0.0
Sc200 Sc 0.21014 0.17276 0.63319 0.0
O201 O 0.20904 0.14842 0.58567 0.0
C202 C 0.28992 0.15453 0.62281 0.0
C203 C 0.23258 0.08406 0.52358 0.0
C204 C 0.19092 0.08758 0.65159 0.0
C205 C 0.16586 0.16605 0.50883 0.0
C206 C 0.24138 0.23879 0.58394 0.0
C207 C 0.13371 0.17136 0.63257 0.0
O208 O 0.28796 0.1596 0.58824 0.0
O209 O 0.19809 0.08506 0.53073 0.0
O210 O 0.19171 0.12174 0.66003 0.0
O211 O 0.20106 0.16632 0.50704 0.0
O212 O 0.23202 0.22462 0.61428 0.0
O213 O 0.13207 0.13838 0.62064 0.0
O214 O 0.24173 0.22059 0.55447 0.0
O215 O 0.14809 0.15147 0.53529 0.0
O216 O 0.15749 0.19151 0.61849 0.0
O217 O 0.25449 0.10563 0.5391 0.0
O218 O 0.26314 0.15512 0.64463 0.0
O219 O 0.18752 0.0771 0.61832 0.0
Sc220 Sc 0.08456 0.00451 0.80389 0.0
Sc221 Sc 0.13293 0.92487 0.82279 0.0
Sc222 Sc 0.06936 0.95731 0.88356 0.0
O223 O 0.09625 0.96385 0.83726 0.0
C224 C 0.08607 0.03971 0.88424 0.0
C225 C 0.16117 0.99373 0.77616 0.0
C226 C 0.15682 0.9433 0.90065 0.0
C227 C 0.07867 0.92964 0.75767 0.0
C228 C 0.00498 0.99357 0.83542 0.0
C229 C 0.07854 0.88063 0.87311 0.0
O230 O 0.08746 0.04202 0.84934 0.0
O231 O 0.15958 0.95896 0.77967 0.0
O232 O 0.12244 0.94191 0.90907 0.0
O233 O 0.07902 0.96493 0.75884 0.0
O234 O 0.01619 0.97634 0.86368 0.0
O235 O 0.11173 0.88419 0.86293 0.0
O236 O 0.02627 0.00285 0.80968 0.0
O237 O 0.09481 0.90932 0.78127 0.0
O238 O 0.05638 0.9047 0.86289 0.0
O239 O 0.14163 0.01393 0.79607 0.0
O240 O 0.08038 0.01062 0.90214 0.0
O241 O 0.16795 0.94259 0.86729 0.0
Sc242 Sc 0.23376 0.83962 0.05776 0.0
Sc243 Sc 0.31808 0.88102 0.07134 0.0
Sc244 Sc 0.28404 0.82122 0.13478 0.0
O245 O 0.27705 0.84808 0.0886 0.0
C246 C 0.20374 0.84688 0.13976 0.0
C247 C 0.25026 0.91325 0.02584 0.0
C248 C 0.30429 0.90789 0.14942 0.0
C249 C 0.30565 0.82333 0.01014 0.0
C250 C 0.24071 0.75927 0.08976 0.0
C251 C 0.3608 0.82496 0.12059 0.0
O252 O 0.19986 0.84877 0.10501 0.0
O253 O 0.28485 0.90864 0.02805 0.0
O254 O 0.30383 0.87364 0.15851 0.0
O255 O 0.27065 0.82789 0.01133 0.0
O256 O 0.26162 0.76888 0.11601 0.0
O257 O 0.35881 0.8582 0.11032 0.0
O258 O 0.22934 0.78167 0.06592 0.0
O259 O 0.32823 0.83926 0.03169 0.0
O260 O 0.33473 0.8044 0.11217 0.0
O261 O 0.22954 0.89697 0.04797 0.0
O262 O 0.23242 0.83613 0.1559 0.0
O263 O 0.30466 0.9184 0.11576 0.0
Sc264 Sc 0.91727 0.49654 0.69122 0.0
Sc265 Sc 0.86596 0.41932 0.66419 0.0
Sc266 Sc 0.90806 0.47614 0.5982 0.0
O267 O 0.89683 0.46403 0.65123 0.0
C268 C 0.8853 0.55127 0.63171 0.0
C269 C 0.84023 0.476 0.72686 0.0
C270 C 0.82584 0.44505 0.58981 0.0
C271 C 0.93144 0.41772 0.72378 0.0
C272 C 0.98209 0.50549 0.63481 0.0
C273 C 0.92276 0.3915 0.6017 0.0
O274 O 0.89467 0.54338 0.6643 0.0
O275 O 0.83198 0.44942 0.70536 0.0
O276 O 0.8547 0.46074 0.57845 0.0
O277 O 0.94071 0.45102 0.71953 0.0
O278 O 0.96359 0.49435 0.60768 0.0
O279 O 0.89876 0.3845 0.62647 0.0
O280 O 0.96925 0.5068 0.66678 0.0
O281 O 0.90437 0.40327 0.70693 0.0
O282 O 0.92903 0.42333 0.58956 0.0
O283 O 0.86986 0.49351 0.72416 0.0
O284 O 0.88844 0.53007 0.60452 0.0
O285 O 0.82438 0.43022 0.62157 0.0
Sc286 Sc 0.76803 0.65377 0.85295 0.0
Sc287 Sc 0.82869 0.61178 0.91469 0.0
Sc288 Sc 0.75603 0.66409 0.94657 0.0
O289 O 0.78449 0.64307 0.90436 0.0
C290 C 0.74388 0.72812 0.88887 0.0
C291 C 0.85418 0.66329 0.8481 0.0
C292 C 0.83438 0.67911 0.97252 0.0
C293 C 0.79516 0.57123 0.84261 0.0
C294 C 0.69488 0.63629 0.89641 0.0
C295 C 0.77827 0.5879 0.98104 0.0
O296 O 0.76093 0.71195 0.86318 0.0
O297 O 0.86218 0.64577 0.87743 0.0
O298 O 0.8031 0.69244 0.96508 0.0
O299 O 0.77343 0.59749 0.83527 0.0
O300 O 0.70911 0.63529 0.92809 0.0
O301 O 0.79703 0.57677 0.95349 0.0
O302 O 0.7123 0.64437 0.86741 0.0
O303 O 0.81711 0.57266 0.86994 0.0
O304 O 0.76798 0.6208 0.9839 0.0
O305 O 0.82201 0.66567 0.83539 0.0
O306 O 0.73706 0.71249 0.91897 0.0
O307 O 0.84573 0.6485 0.95944 0.0
Sc308 Sc 0.60242 0.50424 0.10851 0.0
Sc309 Sc 0.63877 0.57342 0.16285 0.0
Sc310 Sc 0.58824 0.50509 0.20214 0.0
O311 O 0.60916 0.52813 0.15676 0.0
C312 C 0.52974 0.47739 0.14547 0.0
C313 C 0.58879 0.58873 0.09228 0.0
C314 C 0.56613 0.58352 0.2134 0.0
C315 C 0.68281 0.53647 0.09519 0.0
C316 C 0.62781 0.44182 0.16427 0.0
C317 C 0.65953 0.5309 0.23404 0.0
O318 O 0.54473 0.49421 0.11896 0.0
O319 O 0.60553 0.60136 0.12053 0.0
O320 O 0.55378 0.55123 0.20855 0.0
O321 O 0.65834 0.51225 0.08971 0.0
O322 O 0.62478 0.46061 0.19347 0.0
O323 O 0.67301 0.54345 0.20421 0.0
O324 O 0.61757 0.45298 0.13276 0.0
O325 O 0.67974 0.56007 0.12085 0.0
O326 O 0.62543 0.532 0.23839 0.0
O327 O 0.58712 0.55486 0.08432 0.0
O328 O 0.54533 0.47408 0.17611 0.0
O329 O 0.59866 0.59319 0.20372 0.0
Sc330 Sc 0.74355 0.34533 0.35798 0.0
Sc331 Sc 0.67424 0.37921 0.41391 0.0
Sc332 Sc 0.74657 0.33389 0.45211 0.0
O333 O 0.72115 0.3523 0.40699 0.0
C334 C 0.77591 0.27518 0.3971 0.0
C335 C 0.66019 0.32208 0.34848 0.0
C336 C 0.67013 0.30822 0.46746 0.0
C337 C 0.70546 0.42316 0.34313 0.0
C338 C 0.80461 0.37975 0.41032 0.0
C339 C 0.71648 0.40426 0.48306 0.0
O340 O 0.75904 0.28917 0.37019 0.0
O341 O 0.64741 0.34133 0.37506 0.0
O342 O 0.70257 0.29708 0.461 0.0
O343 O 0.72998 0.39925 0.33668 0.0
O344 O 0.78873 0.37272 0.4407 0.0
O345 O 0.70304 0.41651 0.45312 0.0
O346 O 0.79369 0.36755 0.37938 0.0
O347 O 0.68346 0.41982 0.37021 0.0
O348 O 0.718 0.37028 0.48787 0.0
O349 O 0.69345 0.32339 0.33793 0.0
O350 O 0.77915 0.29168 0.42719 0.0
O351 O 0.65866 0.33991 0.45708 0.0
Sc352 Sc 0.29328 0.41636 0.01705 0.0
Sc353 Sc 0.3283 0.355 0.08257 0.0
Sc354 Sc 0.38401 0.3921 0.0137 0.0
O355 O 0.33495 0.38734 0.03831 0.0
C356 C 0.33659 0.38431 0.94775 0.0
C357 C 0.2574 0.33819 0.03131 0.0
C358 C 0.39574 0.31149 0.04772 0.0
C359 C 0.27086 0.41951 0.10032 0.0
C360 C 0.35066 0.47204 0.99643 0.0
C361 C 0.39948 0.40736 0.09624 0.0
O362 O 0.31234 0.40386 0.96333 0.0
O363 O 0.28028 0.32718 0.05596 0.0
O364 O 0.40604 0.33973 0.03032 0.0
O365 O 0.26995 0.43124 0.06782 0.0
O366 O 0.37303 0.44599 0.99056 0.0
O367 O 0.37581 0.38384 0.10826 0.0
O368 O 0.32266 0.46749 0.01636 0.0
O369 O 0.29111 0.39292 0.11035 0.0
O370 O 0.40382 0.41531 0.06259 0.0
O371 O 0.25978 0.36908 0.01564 0.0
O372 O 0.36254 0.369 0.96512 0.0
O373 O 0.36493 0.3108 0.06422 0.0
Sc374 Sc 0.89287 0.08612 0.97225 0.0
Sc375 Sc 0.82583 0.1285 0.9202 0.0
Sc376 Sc 0.80226 0.07538 0.9963 0.0
O377 O 0.8401 0.09692 0.9628 0.0
C378 C 0.85371 0.00975 0.99385 0.0
C379 C 0.88821 0.07386 0.88908 0.0
C380 C 0.76447 0.06846 0.91823 0.0
C381 C 0.89709 0.17001 0.94642 0.0
C382 C 0.86872 0.09618 0.04921 0.0
C383 C 0.76839 0.15196 0.98472 0.0
O384 O 0.88127 0.03126 0.99276 0.0
O385 O 0.8678 0.10218 0.88401 0.0
O386 O 0.7631 0.06624 0.95294 0.0
O387 O 0.91195 0.13937 0.95407 0.0
O388 O 0.83828 0.08038 0.04282 0.0
O389 O 0.77994 0.15441 0.95153 0.0
O390 O 0.88957 0.10865 0.02476 0.0
O391 O 0.8635 0.17218 0.93678 0.0
O392 O 0.78056 0.12835 0.00704 0.0
O393 O 0.89741 0.06278 0.92043 0.0
O394 O 0.8212 0.02064 0.98865 0.0
O395 O 0.78858 0.08726 0.90149 0.0
Sc396 Sc 0.16249 0.56141 0.25394 0.0
Sc397 Sc 0.11778 0.57497 0.17158 0.0
Sc398 Sc 0.17193 0.64197 0.20692 0.0
O399 O 0.14981 0.59311 0.21233 0.0
C400 C 0.15262 0.64282 0.28739 0.0
C401 C 0.08781 0.5298 0.24116 0.0
C402 C 0.08575 0.6508 0.18806 0.0
C403 C 0.17347 0.51191 0.18238 0.0
C404 C 0.23859 0.59865 0.2444 0.0
C405 C 0.17501 0.62454 0.12965 0.0
O406 O 0.15719 0.6081 0.29016 0.0
O407 O 0.09105 0.53243 0.2064 0.0
O408 O 0.11887 0.66291 0.18591 0.0
O409 O 0.17084 0.51454 0.2173 0.0
O410 O 0.22439 0.62734 0.23052 0.0
O411 O 0.14144 0.61447 0.13049 0.0
O412 O 0.22028 0.56992 0.25086 0.0
O413 O 0.15878 0.53471 0.16018 0.0
O414 O 0.19358 0.62052 0.15796 0.0
O415 O 0.10562 0.55085 0.26192 0.0
O416 O 0.15373 0.66066 0.25786 0.0
O417 O 0.07842 0.61658 0.18614 0.0
Sc418 Sc 0.69041 0.91708 0.49921 0.0
Sc419 Sc 0.66951 0.86822 0.42026 0.0
Sc420 Sc 0.60363 0.91844 0.46332 0.0
O421 O 0.65469 0.90036 0.462 0.0
C422 C 0.61537 0.90001 0.54241 0.0
C423 C 0.72171 0.8404 0.48657 0.0
C424 C 0.59468 0.8343 0.43871 0.0
C425 C 0.73322 0.92478 0.42319 0.0
C426 C 0.64588 0.9885 0.49498 0.0
C427 C 0.61479 0.92594 0.38374 0.0
O428 O 0.64874 0.91066 0.54083 0.0
O429 O 0.71389 0.84088 0.45236 0.0
O430 O 0.58217 0.86709 0.44018 0.0
O431 O 0.73302 0.9257 0.45818 0.0
O432 O 0.61685 0.97057 0.48805 0.0
O433 O 0.6278 0.89327 0.38266 0.0
O434 O 0.67738 0.97404 0.49444 0.0
O435 O 0.70877 0.90847 0.40438 0.0
O436 O 0.61535 0.94372 0.41305 0.0
O437 O 0.70656 0.86194 0.50901 0.0
O438 O 0.59464 0.89564 0.51513 0.0
O439 O 0.62908 0.82803 0.43672 0.0
Sc440 Sc 0.33787 0.35776 0.72279 0.0
Sc441 Sc 0.37655 0.42154 0.66248 0.0
Sc442 Sc 0.32276 0.45059 0.73418 0.0
O443 O 0.34575 0.4094 0.70612 0.0
C444 C 0.26291 0.3894 0.74882 0.0
C445 C 0.32789 0.35317 0.63679 0.0
C446 C 0.30509 0.47411 0.65676 0.0
C447 C 0.42066 0.35178 0.6959 0.0
C448 C 0.35623 0.40335 0.79443 0.0
C449 C 0.39589 0.48893 0.71176 0.0
O450 O 0.27946 0.36529 0.72999 0.0
O451 O 0.34425 0.38326 0.62899 0.0
O452 O 0.29169 0.46505 0.68758 0.0
O453 O 0.39472 0.34293 0.71738 0.0
O454 O 0.35515 0.43497 0.77972 0.0
O455 O 0.4093 0.46108 0.69515 0.0
O456 O 0.34772 0.37377 0.77807 0.0
O457 O 0.41784 0.3788 0.67369 0.0
O458 O 0.36204 0.49116 0.7184 0.0
O459 O 0.32636 0.33975 0.66878 0.0
O460 O 0.2776 0.41981 0.75642 0.0
O461 O 0.33726 0.4644 0.64624 0.0
Sc462 Sc 0.10908 0.60543 0.49264 0.0
Sc463 Sc 0.16707 0.6413 0.55904 0.0
Sc464 Sc 0.20316 0.59467 0.48582 0.0
O465 O 0.15891 0.61318 0.51305 0.0
C466 C 0.14713 0.53515 0.45935 0.0
C467 C 0.10076 0.58584 0.57627 0.0
C468 C 0.21949 0.56917 0.56253 0.0
C469 C 0.09583 0.68443 0.52938 0.0
C470 C 0.15848 0.6419 0.43099 0.0
C471 C 0.23647 0.66514 0.5157 0.0
O472 O 0.12083 0.54941 0.47694 0.0
O473 O 0.12705 0.60625 0.58766 0.0
O474 O 0.21428 0.55844 0.52977 0.0
O475 O 0.08805 0.65895 0.50705 0.0
O476 O 0.1897 0.63362 0.44443 0.0
O477 O 0.20699 0.67742 0.5301 0.0
O478 O 0.12817 0.62853 0.44245 0.0
O479 O 0.12435 0.68277 0.54958 0.0
O480 O 0.24064 0.63124 0.51164 0.0
O481 O 0.09091 0.58362 0.54305 0.0
O482 O 0.17725 0.55155 0.45495 0.0
O483 O 0.20912 0.60073 0.57434 0.0
Sc484 Sc 0.65543 0.94987 0.74776 0.0
Sc485 Sc 0.60554 0.91734 0.82282 0.0
Sc486 Sc 0.63761 0.8579 0.75521 0.0
O487 O 0.63235 0.90876 0.77571 0.0
C488 C 0.61062 0.90123 0.69063 0.0
C489 C 0.57995 0.98519 0.77081 0.0
C490 C 0.56087 0.84744 0.79726 0.0
C491 C 0.67068 0.97582 0.8289 0.0
C492 C 0.71262 0.8935 0.72659 0.0
C493 C 0.66421 0.85066 0.83504 0.0
O494 O 0.63385 0.92646 0.69791 0.0
O495 O 0.57355 0.96407 0.79846 0.0
O496 O 0.58894 0.83493 0.7809 0.0
O497 O 0.67702 0.97667 0.79482 0.0
O498 O 0.68778 0.86919 0.72344 0.0
O499 O 0.63892 0.87208 0.84772 0.0
O500 O 0.70691 0.92286 0.74368 0.0
O501 O 0.64623 0.95535 0.84298 0.0
O502 O 0.66918 0.84457 0.80119 0.0
O503 O 0.60773 0.98188 0.75048 0.0
O504 O 0.60504 0.87366 0.71088 0.0
O505 O 0.56048 0.88 0.80982 0.0
Sc506 Sc 0.84055 0.03809 0.25814 0.0
Sc507 Sc 0.89248 0.07691 0.32592 0.0
Sc508 Sc 0.8451 0.1323 0.26439 0.0
O509 O 0.85857 0.08336 0.28366 0.0
C510 C 0.87751 0.08535 0.19856 0.0
C511 C 0.91444 0.00855 0.27935 0.0
C512 C 0.92725 0.15021 0.29231 0.0
C513 C 0.82411 0.02025 0.33664 0.0
C514 C 0.77562 0.08995 0.23583 0.0
C515 C 0.83733 0.14221 0.34948 0.0
O516 O 0.87443 0.05366 0.21317 0.0
O517 O 0.92688 0.03858 0.29232 0.0
O518 O 0.89853 0.15682 0.27369 0.0
O519 O 0.80959 0.02586 0.3054 0.0
O520 O 0.78841 0.1169 0.25364 0.0
O521 O 0.86066 0.11725 0.35834 0.0
O522 O 0.79425 0.06142 0.2302 0.0
O523 O 0.85564 0.033 0.34602 0.0
O524 O 0.82832 0.14964 0.31678 0.0
O525 O 0.88072 0.0026 0.28122 0.0
O526 O 0.86351 0.1145 0.21199 0.0
O527 O 0.93035 0.12106 0.31137 0.0
C528 C 0.89977 0.3874 0.44239 0.0
C529 C 0.91795 0.39022 0.40879 0.0
C530 C 0.86187 0.3905 0.444 0.0
C531 C 0.84158 0.39519 0.41169 0.0
H532 H 0.91457 0.3796 0.46688 0.0
H533 H 0.84851 0.38451 0.46981 0.0
S534 S 0.87869 0.41628 0.31956 0.0
N535 N 0.91513 0.40716 0.34475 0.0
N536 N 0.84308 0.41284 0.34733 0.0
C537 C 0.86023 0.40433 0.37919 0.0
C538 C 0.89891 0.40146 0.37774 0.0
C539 C 0.85282 0.60873 0.64341 0.0
C540 C 0.87951 0.58937 0.62388 0.0
C541 C 0.85452 0.64674 0.64516 0.0
C542 C 0.88362 0.66549 0.6284 0.0
H543 H 0.83231 0.59432 0.65936 0.0
H544 H 0.83505 0.66114 0.66236 0.0
S545 S 0.95788 0.62691 0.57136 0.0
N546 N 0.9334 0.59118 0.58457 0.0
N547 N 0.93724 0.66309 0.58903 0.0
C548 C 0.90875 0.64664 0.60658 0.0
C549 C 0.90649 0.60816 0.604 0.0
C550 C 0.63609 0.62475 0.86559 0.0
C551 C 0.65564 0.6405 0.89447 0.0
C552 C 0.59914 0.63291 0.86076 0.0
C553 C 0.58119 0.65763 0.88425 0.0
H554 H 0.64941 0.60595 0.84688 0.0
H555 H 0.58436 0.61902 0.83916 0.0
S556 S 0.62282 0.70953 0.96126 0.0
N557 N 0.65619 0.68387 0.94493 0.0
N558 N 0.58701 0.7003 0.93548 0.0
C559 C 0.60143 0.67531 0.91186 0.0
C560 C 0.63861 0.66625 0.91724 0.0
C561 C 0.63457 0.34593 0.13315 0.0
C562 C 0.61102 0.32885 0.15828 0.0
C563 C 0.64462 0.38242 0.13783 0.0
C564 C 0.63167 0.40244 0.16796 0.0
H565 H 0.64389 0.33157 0.10893 0.0
H566 H 0.66014 0.39586 0.11637 0.0
S567 S 0.57511 0.36792 0.24492 0.0
N568 N 0.5792 0.33286 0.21679 0.0
N569 N 0.59871 0.40139 0.22589 0.0
C570 C 0.61141 0.38449 0.19523 0.0
C571 C 0.60054 0.3477 0.1901 0.0
C572 C 0.38162 0.11689 0.6362 0.0
C573 C 0.40142 0.14981 0.6385 0.0
C574 C 0.34363 0.11779 0.63565 0.0
C575 C 0.32554 0.15137 0.63842 0.0
H576 H 0.39517 0.09122 0.62991 0.0
H577 H 0.32868 0.09298 0.62908 0.0
S578 S 0.36511 0.24263 0.65704 0.0
N579 N 0.40074 0.21502 0.65255 0.0
N580 N 0.3285 0.21648 0.65194 0.0
C581 C 0.34474 0.18329 0.64701 0.0
C582 C 0.38333 0.18252 0.64717 0.0
C583 C 0.11916 0.13065 0.90711 0.0
C584 C 0.08567 0.14966 0.90455 0.0
C585 C 0.1195 0.09261 0.90627 0.0
C586 C 0.08647 0.07349 0.90423 0.0
H587 H 0.14515 0.14475 0.90432 0.0
H588 H 0.14539 0.07852 0.90247 0.0
S589 S 0.99248 0.11032 0.91214 0.0
N590 N 0.01928 0.14681 0.91109 0.0
N591 N 0.02019 0.07456 0.91017 0.0
C592 C 0.05323 0.09179 0.90944 0.0
C593 C 0.05275 0.13049 0.90966 0.0
C594 C 0.11449 0.8822 0.15065 0.0
C595 C 0.09648 0.84879 0.14415 0.0
C596 C 0.15164 0.88229 0.15901 0.0
C597 C 0.17062 0.84906 0.1609 0.0
H598 H 0.10139 0.90814 0.14456 0.0
H599 H 0.1665 0.90799 0.15755 0.0
S600 S 0.13265 0.75544 0.16015 0.0
N601 N 0.09758 0.78238 0.15058 0.0
N602 N 0.16767 0.78305 0.16759 0.0
C603 C 0.15116 0.81617 0.16321 0.0
C604 C 0.11371 0.81582 0.15364 0.0
C605 C 0.42689 0.85761 0.40653 0.0
C606 C 0.39617 0.83812 0.39395 0.0
C607 C 0.424 0.89491 0.41359 0.0
C608 C 0.39067 0.91284 0.40741 0.0
H609 H 0.454 0.84556 0.40619 0.0
H610 H 0.44901 0.91052 0.41741 0.0
S611 S 0.3 0.87114 0.39202 0.0
N612 N 0.32927 0.83667 0.38984 0.0
N613 N 0.32488 0.90789 0.40079 0.0
C614 C 0.35871 0.89249 0.40321 0.0
C615 C 0.36128 0.8544 0.39687 0.0
C616 C 0.36518 0.36602 0.88893 0.0
C617 C 0.34001 0.38799 0.90811 0.0
C618 C 0.37239 0.37251 0.85207 0.0
C619 C 0.3554 0.40172 0.83387 0.0
H620 H 0.37935 0.3437 0.90242 0.0
H621 H 0.39079 0.3543 0.83754 0.0
S622 S 0.28656 0.46661 0.87088 0.0
N623 N 0.29696 0.43943 0.90532 0.0
N624 N 0.31192 0.45215 0.8365 0.0
C625 C 0.33047 0.42405 0.85258 0.0
C626 C 0.32221 0.41688 0.88959 0.0
C627 C 0.88613 0.12575 0.10651 0.0
C628 C 0.88318 0.09402 0.08558 0.0
C629 C 0.89064 0.12287 0.14409 0.0
C630 C 0.8911 0.08812 0.16109 0.0
H631 H 0.88172 0.1525 0.09437 0.0
H632 H 0.88943 0.14785 0.16004 0.0
S633 S 0.90033 -0.00157 0.11455 0.0
N634 N 0.89278 0.02826 0.08141 0.0
N635 N 0.90057 0.02246 0.15276 0.0
C636 C 0.89514 0.05676 0.1393 0.0
C637 C 0.89081 0.05981 0.10106 0.0
C638 C 0.12097 0.6657 0.34113 0.0
C639 C 0.15316 0.66353 0.3207 0.0
C640 C 0.12298 0.66602 0.37905 0.0
C641 C 0.15723 0.66222 0.39649 0.0
H642 H 0.09451 0.66219 0.32816 0.0
H643 H 0.09757 0.66352 0.39421 0.0
S644 S 0.24864 0.67163 0.35313 0.0
N645 N 0.21931 0.67021 0.31882 0.0
N646 N 0.2235 0.6696 0.39068 0.0
C647 C 0.18929 0.66835 0.37607 0.0
C648 C 0.18709 0.66891 0.33753 0.0
C649 C 0.60005 0.86545 0.59722 0.0
C650 C 0.59887 0.89842 0.5779 0.0
C651 C 0.59837 0.86594 0.63516 0.0
C652 C 0.59641 0.89956 0.65383 0.0
H653 H 0.60619 0.83993 0.58334 0.0
H654 H 0.6033 0.84053 0.64972 0.0
S655 S 0.58251 0.99165 0.61394 0.0
N656 N 0.58765 0.96408 0.57848 0.0
N657 N 0.58507 0.96515 0.65051 0.0
C658 C 0.58977 0.9319 0.6344 0.0
C659 C 0.59104 0.9313 0.59589 0.0
C660 C 0.14355 0.48619 0.41097 0.0
C661 C 0.14456 0.49635 0.44809 0.0
C662 C 0.13773 0.44938 0.40064 0.0
C663 C 0.13339 0.42163 0.42719 0.0
H664 H 0.14533 0.50702 0.38992 0.0
H665 H 0.13397 0.44318 0.37193 0.0
S666 S 0.14013 0.43391 0.5278 0.0
N667 N 0.14492 0.47569 0.51106 0.0
N668 N 0.13529 0.40674 0.49205 0.0
C669 C 0.13769 0.43141 0.46424 0.0
C670 C 0.14278 0.46871 0.47461 0.0
C671 C 0.81577 0.88979 0.71398 0.0
C672 C 0.81994 0.87871 0.67733 0.0
C673 C 0.78094 0.8953 0.72939 0.0
C674 C 0.74891 0.88875 0.70909 0.0
H675 H 0.83956 0.89172 0.73157 0.0
H676 H 0.77903 0.9029 0.75797 0.0
S677 S 0.74456 0.8642 0.61092 0.0
N678 N 0.78888 0.86547 0.62011 0.0
N679 N 0.72338 0.87464 0.6495 0.0
C680 C 0.75257 0.87981 0.67193 0.0
C681 C 0.7881 0.87523 0.65592 0.0
C682 C 0.36979 0.53108 0.91348 0.0
C683 C 0.36841 0.56697 0.92726 0.0
C684 C 0.36297 0.50084 0.93605 0.0
C685 C 0.3536 0.50521 0.97313 0.0
H686 H 0.3798 0.52615 0.88599 0.0
H687 H 0.36664 0.47369 0.92468 0.0
S688 S 0.34224 0.59367 0.0215 0.0
N689 N 0.35474 0.60545 0.97964 0.0
N690 N 0.33968 0.54841 0.02171 0.0
C691 C 0.34887 0.54101 0.98649 0.0
C692 C 0.35677 0.57195 0.9636 0.0
C693 C 0.69987 0.09601 0.16477 0.0
C694 C 0.6694 0.1069 0.18575 0.0
C695 C 0.73386 0.08846 0.18145 0.0
C696 C 0.73856 0.09231 0.21949 0.0
H697 H 0.69858 0.09715 0.1352 0.0
H698 H 0.75724 0.08232 0.16421 0.0
S699 S 0.66563 0.11251 0.28698 0.0
N700 N 0.64482 0.11503 0.24696 0.0
N701 N 0.70874 0.1019 0.27799 0.0
C702 C 0.70758 0.09963 0.24093 0.0
C703 C 0.67293 0.10637 0.22412 0.0
C704 C 0.65222 0.03217 0.54661 0.0
C705 C 0.64155 0.02545 0.51023 0.0
C706 C 0.63737 0.06174 0.5663 0.0
C707 C 0.61176 0.08524 0.54985 0.0
H708 H 0.66896 0.01237 0.56106 0.0
H709 H 0.64281 0.06368 0.59535 0.0
S710 S 0.5821 0.08401 0.45287 0.0
N711 N 0.60897 0.0478 0.45699 0.0
N712 N 0.58206 0.10405 0.49335 0.0
C713 C 0.60496 0.08148 0.51215 0.0
C714 C 0.61948 0.05121 0.49246 0.0
C715 C 0.21943 0.39301 0.80186 0.0
C716 C 0.22737 0.38022 0.76627 0.0
C717 C 0.18925 0.37949 0.82171 0.0
C718 C 0.16591 0.35311 0.80637 0.0
H719 H 0.23809 0.4116 0.81548 0.0
H720 H 0.18603 0.38742 0.85008 0.0
S721 S 0.17001 0.31704 0.71158 0.0
N722 N 0.20617 0.34407 0.71479 0.0
N723 N 0.14931 0.31907 0.75173 0.0
C724 C 0.17153 0.34296 0.76963 0.0
C725 C 0.20235 0.35633 0.74967 0.0
C726 C 0.90225 0.92102 0.00903 0.0
C727 C 0.89037 0.91134 0.04452 0.0
C728 C 0.8878 0.95141 0.99093 0.0
C729 C 0.85984 0.97217 0.0069 0.0
H730 H 0.92561 0.90738 -0.00326 0.0
H731 H 0.90042 0.96031 0.96559 0.0
S732 S 0.81241 0.95277 0.09455 0.0
N733 N 0.8446 0.92099 0.09188 0.0
N734 N 0.81594 0.97738 0.05674 0.0
C735 C 0.84391 0.95966 0.03971 0.0
C736 C 0.85939 0.92912 0.05875 0.0
C737 C 0.33333 0.63533 0.25941 0.0
C738 C 0.33882 0.62762 0.29673 0.0
C739 C 0.30219 0.6227 0.24111 0.0
C740 C 0.27598 0.60133 0.25938 0.0
H741 H 0.35097 0.65478 0.24549 0.0
H742 H 0.29712 0.6322 0.21349 0.0
S743 S 0.28117 0.56834 0.35527 0.0
N744 N 0.31835 0.59364 0.34991 0.0
N745 N 0.26014 0.56862 0.31531 0.0
C746 C 0.28361 0.58952 0.2953 0.0
C747 C 0.31516 0.60291 0.31406 0.0
C748 C 0.40418 0.12087 0.44646 0.0
C749 C 0.42374 0.12709 0.41378 0.0
C750 C 0.42052 0.12687 0.4808 0.0
C751 C 0.45656 0.1403 0.48364 0.0
H752 H 0.37715 0.10871 0.44565 0.0
H753 H 0.40508 0.12034 0.50528 0.0
S754 S 0.51799 0.16449 0.40653 0.0
N755 N 0.48029 0.14934 0.38667 0.0
N756 N 0.51011 0.16251 0.45098 0.0
C757 C 0.47531 0.14923 0.45127 0.0
C758 C 0.45908 0.14227 0.41644 0.0
C759 C 0.09007 0.17319 0.68695 0.0
C760 C 0.1249 0.17989 0.6718 0.0
C761 C 0.0814 0.18473 0.72289 0.0
C762 C 0.1077 0.20217 0.74531 0.0
H763 H 0.06907 0.1602 0.67058 0.0
H764 H 0.05393 0.18008 0.73313 0.0
S765 S 0.20351 0.22458 0.7201 0.0
N766 N 0.18571 0.20573 0.68337 0.0
N767 N 0.17017 0.22402 0.7504 0.0
C768 C 0.14283 0.20763 0.73106 0.0
C769 C 0.15121 0.1974 0.69449 0.0
C770 C 0.03158 0.85658 0.91583 0.0
C771 C 0.06901 0.86315 0.90861 0.0
C772 C 0.01848 0.85233 0.95158 0.0
C773 C 0.04217 0.85501 0.98159 0.0
H774 H 0.01184 0.85696 0.89372 0.0
H775 H 0.98935 0.84832 0.95586 0.0
S776 S 0.14325 0.86342 0.97799 0.0
N777 N 0.13037 0.86553 0.93472 0.0
N778 N 0.10523 0.85878 0.00214 0.0
C779 C 0.0799 0.85861 0.97497 0.0
C780 C 0.09349 0.86213 0.93838 0.0
C781 C 0.38237 0.77652 0.16298 0.0
C782 C 0.38056 0.81423 0.15449 0.0
C783 C 0.38879 0.7643 0.19867 0.0
C784 C 0.39484 0.78919 0.22717 0.0
H785 H 0.3761 0.75619 0.14232 0.0
H786 H 0.38802 0.73511 0.20418 0.0
S787 S 0.398 0.89047 0.21937 0.0
N788 N 0.38873 0.87632 0.17749 0.0
N789 N 0.40229 0.85302 0.24446 0.0
C790 C 0.39639 0.8268 0.21878 0.0
C791 C 0.38909 0.83942 0.1824 0.0
C792 C 0.95274 0.32913 0.52756 0.0
C793 C 0.98974 0.33991 0.52433 0.0
C794 C 0.93105 0.34084 0.55723 0.0
C795 C 0.94601 0.36303 0.58481 0.0
H796 H 0.93942 0.31515 0.50509 0.0
H797 H 0.90173 0.33628 0.5562 0.0
S798 S 0.04315 0.39196 0.59263 0.0
N799 N 0.04145 0.36933 0.55357 0.0
N800 N 0.00139 0.38987 0.61005 0.0
C801 C 0.98411 0.36948 0.58419 0.0
C802 C 0.00581 0.35855 0.5536 0.0
C803 C 0.8752 0.72398 0.82803 0.0
C804 C 0.88118 0.68576 0.82815 0.0
C805 C 0.88533 0.7458 0.79801 0.0
C806 C 0.90266 0.73025 0.7675 0.0
H807 H 0.85888 0.73641 0.84949 0.0
H808 H 0.87733 0.77439 0.7976 0.0
S809 S 0.92762 0.63251 0.75548 0.0
N810 N 0.90754 0.63398 0.796 0.0
N811 N 0.92814 0.67516 0.74024 0.0
C812 C 0.91184 0.69281 0.76866 0.0
C813 C 0.90087 0.67049 0.79893 0.0
C814 C 0.53668 0.62826 0.07123 0.0
C815 C 0.5715 0.61282 0.06479 0.0
C816 C 0.51333 0.63782 0.04188 0.0
C817 C 0.5237 0.63096 0.00536 0.0
H818 H 0.52636 0.63038 0.09893 0.0
H819 H 0.48624 0.64838 0.04786 0.0
S820 S 0.6136 0.59416 0.97451 0.0
N821 N 0.61643 0.59462 0.0195 0.0
N822 N 0.57269 0.61079 0.96479 0.0
C823 C 0.55937 0.61759 -0.00114 0.0
C824 C 0.58322 0.60906 0.02845 0.0
C825 C 0.60291 0.30206 0.315 0.0
C826 C 0.63761 0.29402 0.32962 0.0
C827 C 0.58727 0.27916 0.28807 0.0
C828 C 0.60629 0.24822 0.27481 0.0
H829 H 0.58935 0.32751 0.322 0.0
H830 H 0.56199 0.28764 0.27513 0.0
S831 S 0.69325 0.21081 0.31079 0.0
N832 N 0.68647 0.24878 0.33438 0.0
N833 N 0.65798 0.20745 0.28283 0.0
C834 C 0.63866 0.23784 0.29238 0.0
C835 C 0.65411 0.26039 0.32004 0.0
C836 C 0.46528 0.48042 0.12336 0.0
C837 C 0.49331 0.4604 0.14031 0.0
C838 C 0.43204 0.4637 0.11406 0.0
C839 C 0.42585 0.42607 0.12051 0.0
H840 H 0.46961 0.50886 0.11596 0.0
H841 H 0.4122 0.4796 0.09874 0.0
S842 S 0.48986 0.36222 0.16655 0.0
N843 N 0.51182 0.40184 0.16617 0.0
N844 N 0.44978 0.36994 0.14696 0.0
C845 C 0.4527 0.40634 0.13967 0.0
C846 C 0.48642 0.42361 0.14986 0.0
C847 C 0.96551 0.0491 0.82854 0.0
C848 C 0.96833 0.01127 0.83651 0.0
C849 C 0.93504 0.06982 0.84004 0.0
C850 C 0.90618 0.05319 0.85929 0.0
H851 H 0.98871 0.06364 0.81701 0.0
H852 H 0.93636 0.09941 0.83798 0.0
S853 S 0.89616 0.95377 0.87851 0.0
N854 N 0.93688 0.95727 0.85899 0.0
N855 N 0.879 0.99567 0.87908 0.0
C856 C 0.90635 0.01459 0.86227 0.0
C857 C 0.93774 0.99376 0.85163 0.0
C858 C 0.1689 0.68406 0.09589 0.0
C859 C 0.18998 0.65302 0.10464 0.0
C860 C 0.1859 0.7179 0.08805 0.0
C861 C 0.22436 0.72202 0.08979 0.0
H862 H 0.13935 0.68324 0.0987 0.0
H863 H 0.16868 0.7417 0.08371 0.0
S864 S 0.29173 0.64758 0.10347 0.0
N865 N 0.25147 0.62721 0.10734 0.0
N866 N 0.28285 0.69116 0.09507 0.0
C867 C 0.24562 0.69056 0.09483 0.0
C868 C 0.22851 0.65595 0.10132 0.0
C869 C 0.52216 0.93576 0.34333 0.0
C870 C 0.51815 0.9742 0.34442 0.0
C871 C 0.55624 0.919 0.35004 0.0
C872 C 0.58745 0.94028 0.35754 0.0
H873 H 0.49821 0.91846 0.34025 0.0
H874 H 0.55715 0.88951 0.35348 0.0
S875 S 0.5927 0.04194 0.35502 0.0
N876 N 0.54893 0.0329 0.34782 0.0
N877 N 0.61324 0.00176 0.35896 0.0
C878 C 0.58443 0.97872 0.35381 0.0
C879 C 0.54964 0.99567 0.34806 0.0
C880 C 0.26681 0.3327 0.61759 0.0
C881 C 0.30468 0.334 0.60999 0.0
C882 C 0.24507 0.30332 0.6058 0.0
C883 C 0.26025 0.27465 0.58519 0.0
H884 H 0.25477 0.35243 0.63623 0.0
H885 H 0.21699 0.30156 0.61533 0.0
S886 S 0.35701 0.26715 0.5547 0.0
N887 N 0.35572 0.30569 0.57837 0.0
N888 N 0.31468 0.25106 0.55477 0.0
C889 C 0.29721 0.27756 0.57423 0.0
C890 C 0.31951 0.30717 0.58694 0.0
C891 C 0.0427 0.5066 0.60354 0.0
C892 C 0.01793 0.5228 0.62797 0.0
C893 C 0.07314 0.5261 0.59076 0.0
C894 C 0.07936 0.56272 0.60134 0.0
H895 H 0.03739 0.4795 0.59269 0.0
H896 H 0.09013 0.51358 0.56988 0.0
S897 S 0.02352 0.6168 0.66629 0.0
N898 N 0.00288 0.57654 0.66444 0.0
N899 N 0.05964 0.61358 0.63917 0.0
C900 C 0.05633 0.57832 0.62772 0.0
C901 C 0.02556 0.55825 0.64125 0.0
C902 C 0.69207 0.77275 0.89602 0.0
C903 C 0.72733 0.76467 0.88217 0.0
C904 C 0.67256 0.80393 0.88435 0.0
C905 C 0.68805 0.8283 0.85896 0.0
H906 H 0.67826 0.75341 0.91375 0.0
H907 H 0.6442 0.80703 0.8926 0.0
S908 S 0.78235 0.82379 0.8207 0.0
N909 N 0.77874 0.78645 0.84603 0.0
N910 N 0.74285 0.8455 0.82504 0.0
C911 C 0.72482 0.82261 0.84829 0.0
C912 C 0.74424 0.79061 0.85948 0.0
C913 C 0.76918 0.20868 0.3836 0.0
C914 C 0.79174 0.23811 0.39361 0.0
C915 C 0.78414 0.1743 0.37529 0.0
C916 C 0.82227 0.16827 0.37627 0.0
H917 H 0.73994 0.21273 0.38065 0.0
H918 H 0.76612 0.15339 0.36437 0.0
S919 S 0.89261 0.23562 0.40481 0.0
N920 N 0.85347 0.25822 0.40812 0.0
N921 N 0.88182 0.1938 0.39121 0.0
C922 C 0.84473 0.19661 0.38942 0.0
C923 C 0.82941 0.2316 0.39827 0.0
C924 C 0.05499 0.50189 0.29423 0.0
C925 C 0.07049 0.49738 0.25925 0.0
C926 C 0.04827 0.4719 0.31738 0.0
C927 C 0.05699 0.43569 0.30694 0.0
H928 H 0.04989 0.5292 0.30471 0.0
H929 H 0.03759 0.47751 0.34445 0.0
S930 S 0.09548 0.40849 0.21679 0.0
N931 N 0.09214 0.45357 0.21419 0.0
N932 N 0.07953 0.39705 0.25754 0.0
C933 C 0.07032 0.43048 0.27102 0.0
C934 C 0.07703 0.46127 0.24727 0.0
C935 C 0.8191 0.82409 0.51734 0.0
C936 C 0.81401 0.80383 0.54987 0.0
C937 C 0.78945 0.832 0.4937 0.0
C938 C 0.7536 0.81979 0.50149 0.0
H939 H 0.84556 0.83614 0.51134 0.0
H940 H 0.79406 0.85049 0.47095 0.0
S941 S 0.72626 0.76114 0.57963 0.0
N942 N 0.77063 0.76767 0.58555 0.0
N943 N 0.71552 0.78348 0.54187 0.0
C944 C 0.7488 0.79714 0.53216 0.0
C945 C 0.77878 0.78888 0.55606 0.0
C946 C 0.44284 0.51135 0.75651 0.0
C947 C 0.41831 0.51905 0.72793 0.0
C948 C 0.45243 0.53841 0.78241 0.0
C949 C 0.43772 0.57438 0.7811 0.0
H950 H 0.452 0.48345 0.76093 0.0
H951 H 0.46962 0.53017 0.80508 0.0
S952 S 0.37683 0.60978 0.70784 0.0
N953 N 0.38311 0.56627 0.69715 0.0
N954 N 0.40102 0.61688 0.74529 0.0
C955 C 0.41582 0.58313 0.75061 0.0
C956 C 0.4062 0.5556 0.72428 0.0
C957 C 0.70903 0.20428 0.05033 0.0
C958 C 0.67451 0.187 0.0463 0.0
C959 C 0.73871 0.19648 0.02696 0.0
C960 C 0.73522 0.17176 -0.00222 0.0
H961 H 0.7141 0.22226 0.07332 0.0
H962 H 0.76538 0.20771 0.03355 0.0
S963 S 0.65043 0.12213 0.9719 0.0
N964 N 0.63824 0.14623 0.00817 0.0
N965 N 0.69391 0.13215 0.96418 0.0
C966 C 0.70026 0.15668 0.99137 0.0
C967 C 0.66997 0.16422 0.01549 0.0
C968 C 0.56988 0.0517 0.76203 0.0
C969 C 0.55577 0.01575 0.75898 0.0
C970 C 0.56238 0.07905 0.73565 0.0
C971 C 0.5406 0.07159 0.70475 0.0
H972 H 0.59015 0.05762 0.78283 0.0
H973 H 0.57606 0.10526 0.73812 0.0
S974 S 0.49215 0.98348 0.68714 0.0
N975 N 0.51553 0.97575 0.72496 0.0
N976 N 0.50054 0.02653 0.67598 0.0
C977 C 0.52334 0.03679 0.70348 0.0
C978 C 0.53101 0.00917 0.73043 0.0
C979 C 0.191 0.33226 0.01732 0.0
C980 C 0.22607 0.31577 0.0177 0.0
C981 C 0.1639 0.3222 0.99175 0.0
C982 C 0.17061 0.29526 0.965 0.0
H983 H 0.18558 0.35552 0.03494 0.0
H984 H 0.13846 0.33749 0.99146 0.0
S985 S 0.25621 0.23989 0.95769 0.0
N986 N 0.26454 0.26859 0.99155 0.0
N987 N 0.21399 0.24878 0.94407 0.0
C988 C 0.2045 0.27623 0.96732 0.0
C989 C 0.23203 0.28664 0.99346 0.0
C990 C 0.92584 0.944 0.2596 0.0
C991 C 0.9358 0.98138 0.25717 0.0
C992 C 0.93474 0.91851 0.23205 0.0
C993 C 0.9539 0.92904 0.20027 0.0
H994 H 0.90884 0.93475 0.28213 0.0
H995 H 0.92489 0.89067 0.23501 0.0
S996 S 0.99 0.02294 0.18211 0.0
N997 N 0.96846 0.02696 0.22166 0.0
N998 N 0.98581 0.97952 0.17004 0.0
C999 C 0.96624 0.96594 0.19863 0.0
C1000 C 0.95715 0.99189 0.22696 0.0
C1001 C 0.25783 0.70963 0.46802 0.0
C1002 C 0.26579 0.6881 0.49889 0.0
C1003 C 0.28521 0.7182 0.44199 0.0
C1004 C 0.32166 0.7052 0.44545 0.0
H1005 H 0.22968 0.71695 0.46207 0.0
H1006 H 0.27696 0.73298 0.41767 0.0
S1007 S 0.35764 0.65296 0.52483 0.0
N1008 N 0.31359 0.65811 0.53391 0.0
N1009 N 0.36471 0.67392 0.48541 0.0
C1010 C 0.33047 0.68648 0.47796 0.0
C1011 C 0.3027 0.6781 0.50449 0.0
C1012 C 0.28335 0.04651 0.49791 0.0
C1013 C 0.24904 0.0634 0.49234 0.0
C1014 C 0.30786 0.03994 0.46889 0.0
C1015 C 0.29947 0.04997 0.4326 0.0
H1016 H 0.29259 0.04092 0.52551 0.0
H1017 H 0.33444 0.02843 0.47537 0.0
S1018 S 0.21174 0.09217 0.40256 0.0
N1019 N 0.20692 0.08778 0.44727 0.0
N1020 N 0.25245 0.075 0.39253 0.0
C1021 C 0.26406 0.06439 0.42618 0.0
C1022 C 0.23904 0.07115 0.45599 0.0
C1023 C 0.16975 0.00106 0.70806 0.0
C1024 C 0.17858 0.012 0.74397 0.0
C1025 C 0.17563 0.02464 0.67783 0.0
C1026 C 0.1904 0.06015 0.68236 0.0
H1027 H 0.15563 0.97534 0.7036 0.0
H1028 H 0.16651 0.01577 0.6511 0.0
S1029 S 0.22329 0.09933 0.77027 0.0
N1030 N 0.20645 0.05891 0.78165 0.0
N1031 N 0.21805 0.10268 0.72558 0.0
C1032 C 0.20191 0.07 0.71788 0.0
C1033 C 0.19586 0.04613 0.7484 0.0
C1034 C 0.21933 0.92676 0.92708 0.0
C1035 C 0.18418 0.9425 0.93145 0.0
C1036 C 0.24272 0.92058 0.95738 0.0
C1037 C 0.23199 0.93009 0.99322 0.0
H1038 H 0.22798 0.9171 0.90044 0.0
H1039 H 0.26811 0.90582 0.95301 0.0
S1040 S 0.14551 0.97711 0.01892 0.0
N1041 N 0.14216 0.97143 0.97429 0.0
N1042 N 0.18554 0.95957 0.03052 0.0
C1043 C 0.19821 0.94828 -0.00259 0.0
C1044 C 0.17453 0.95455 0.96681 0.0
C1045 C 0.29421 0.92446 0.21543 0.0
C1046 C 0.3056 0.93539 0.18017 0.0
C1047 C 0.29874 0.94714 0.24613 0.0
C1048 C 0.31473 0.98218 0.24343 0.0
H1049 H 0.28273 0.89742 0.21977 0.0
H1050 H 0.29137 0.93625 0.27272 0.0
S1051 S 0.34759 0.02541 0.15754 0.0
N1052 N 0.33197 0.98503 0.14428 0.0
N1053 N 0.34066 0.02747 0.20215 0.0
C1054 C 0.32445 0.9945 0.20817 0.0
C1055 C 0.31986 0.97123 0.17661 0.0
C1056 C 0.7339 0.41598 0.5479 0.0
C1057 C 0.73697 0.42631 0.51074 0.0
C1058 C 0.76155 0.42379 0.57366 0.0
C1059 C 0.79391 0.44225 0.56356 0.0
H1060 H 0.71105 0.3991 0.55661 0.0
H1061 H 0.75829 0.41346 0.60124 0.0
S1062 S 0.81379 0.47883 0.47027 0.0
N1063 N 0.77358 0.45859 0.46589 0.0
N1064 N 0.82533 0.47398 0.51364 0.0
C1065 C 0.796 0.45524 0.52693 0.0
C1066 C 0.76764 0.44722 0.50079 0.0
C1067 C 0.83152 0.48566 0.79347 0.0
C1068 C 0.81681 0.48862 0.75788 0.0
C1069 C 0.82236 0.51064 0.82152 0.0
C1070 C 0.798 0.54002 0.81541 0.0
H1071 H 0.85309 0.46593 0.79874 0.0
H1072 H 0.83648 0.50826 0.84743 0.0
S1073 S 0.7483 0.5572 0.72806 0.0
N1074 N 0.77425 0.52123 0.7191 0.0
N1075 N 0.75595 0.56752 0.77133 0.0
C1076 C 0.78053 0.54118 0.78075 0.0
C1077 C 0.79017 0.51575 0.75221 0.0
C1078 C 0.74332 0.56399 0.07492 0.0
C1079 C 0.71343 0.54067 0.06756 0.0
C1080 C 0.76782 0.57506 0.04716 0.0
C1081 C 0.76386 0.56341 0.01056 0.0
H1082 H 0.74659 0.57573 0.10191 0.0
H1083 H 0.78828 0.59552 0.05381 0.0
S1084 S 0.69262 0.49966 0.97671 0.0
N1085 N 0.68353 0.50369 0.02078 0.0
N1086 N 0.72924 0.52515 0.96907 0.0
C1087 C 0.73601 0.53788 0.00329 0.0
C1088 C 0.71095 0.52641 0.03158 0.0
C1089 C 0.67775 0.48442 0.32527 0.0
C1090 C 0.70034 0.45442 0.31627 0.0
C1091 C 0.66808 0.51119 0.29916 0.0
C1092 C 0.68035 0.50961 0.26249 0.0
H1093 H 0.66611 0.48656 0.35245 0.0
H1094 H 0.64888 0.53233 0.30731 0.0
S1095 S 0.74164 0.43815 0.22444 0.0
N1096 N 0.73652 0.4262 0.26773 0.0
N1097 N 0.71773 0.4762 0.21905 0.0
C1098 C 0.70459 0.48105 0.25347 0.0
C1099 C 0.71463 0.45363 0.28014 0.0
C1100 C 0.48801 0.261 0.04922 0.0
C1101 C 0.4816 0.23062 0.07202 0.0
C1102 C 0.45948 0.28511 0.03917 0.0
C1103 C 0.42313 0.28062 0.05216 0.0
H1104 H 0.51584 0.26796 0.04153 0.0
H1105 H 0.46676 0.309 0.02315 0.0
S1106 S 0.39127 0.20286 0.10964 0.0
N1107 N 0.43566 0.19546 0.10468 0.0
N1108 N 0.3822 0.24055 0.08627 0.0
C1109 C 0.41594 0.24874 0.07283 0.0
C1110 C 0.44505 0.22396 0.08267 0.0
C1111 C 0.98258 0.22916 0.95916 0.0
C1112 C 0.97548 0.2601 0.93734 0.0
C1113 C 0.95614 0.20144 0.96395 0.0
C1114 C 0.92118 0.20349 0.94738 0.0
H1115 H 0.01024 0.22393 0.96858 0.0
H1116 H 0.96425 0.17698 0.97867 0.0
S1117 S 0.88639 0.28287 0.89425 0.0
N1118 N 0.92913 0.29399 0.90409 0.0
N1119 N 0.8792 0.24252 0.9135 0.0
C1120 C 0.91222 0.23651 0.92952 0.0
C1121 C 0.93929 0.2647 0.92468 0.0
C1122 C 0.995 0.69829 0.16653 0.0
C1123 C -4e-05 0.73389 0.18079 0.0
C1124 C 0.02182 0.67079 0.17075 0.0
C1125 C 0.05474 0.67772 0.18954 0.0
H1126 H 0.97242 0.69301 0.14805 0.0
H1127 H 0.01795 0.64495 0.15672 0.0
S1128 S 0.07591 0.76243 0.24158 0.0
N1129 N 0.03688 0.77182 0.2207 0.0
N1130 N 0.08654 0.71996 0.22993 0.0
C1131 C 0.05769 0.71144 0.2081 0.0
C1132 C 0.0304 0.73942 0.20363 0.0
C1133 C 0.50366 0.78189 0.43616 0.0
C1134 C 0.51358 0.74771 0.42146 0.0
C1135 C 0.53021 0.80906 0.44328 0.0
C1136 C 0.56788 0.8031 0.43622 0.0
H1137 H 0.47496 0.78893 0.43899 0.0
H1138 H 0.52081 0.83559 0.45267 0.0
S1139 S 0.60819 0.71596 0.40228 0.0
N1140 N 0.56364 0.70805 0.40334 0.0
N1141 N 0.61359 0.7582 0.41753 0.0
C1142 C 0.57827 0.76774 0.42457 0.0
C1143 C 0.55116 0.74034 0.41705 0.0
C1144 C 0.47647 0.26335 0.70362 0.0
C1145 C 0.50484 0.26841 0.6781 0.0
C1146 C 0.45136 0.29161 0.71159 0.0
C1147 C 0.45302 0.32613 0.69385 0.0
H1148 H 0.47121 0.23623 0.71455 0.0
H1149 H 0.42866 0.28509 0.72956 0.0
S1150 S 0.52596 0.35491 0.62901 0.0
N1151 N 0.53605 0.31187 0.63872 0.0
N1152 N 0.48906 0.36483 0.65329 0.0
C1153 C 0.48349 0.33257 0.67102 0.0
C1154 C 0.50929 0.30384 0.66335 0.0
C1155 C 0.04703 0.76759 0.5714 0.0
C1156 C 0.0107 0.76431 0.55865 0.0
C1157 C 0.07505 0.74349 0.55987 0.0
C1158 C 0.06807 0.71475 0.53505 0.0
H1159 H 0.05314 0.78683 0.59311 0.0
H1160 H 0.10179 0.74603 0.57241 0.0
S1161 S 0.97802 0.69688 0.49053 0.0
N1162 N 0.96992 0.73194 0.51787 0.0
N1163 N 0.02199 0.68731 0.49522 0.0
C1164 C 0.03237 0.7132 0.51981 0.0
C1165 C 0.00391 0.7377 0.53185 0.0
C1166 C 0.50263 0.75949 0.79888 0.0
C1167 C 0.47472 0.76747 0.82423 0.0
C1168 C 0.529 0.78606 0.78882 0.0
C1169 C 0.52885 0.82189 0.80376 0.0
H1170 H 0.50604 0.73167 0.78911 0.0
H1171 H 0.55087 0.77768 0.77061 0.0
S1172 S 0.45868 0.85762 0.86834 0.0
N1173 N 0.44666 0.81451 0.86173 0.0
N1174 N 0.49538 0.86439 0.84271 0.0
C1175 C 0.49931 0.83086 0.82706 0.0
C1176 C 0.47261 0.80373 0.83731 0.0
C1177 C 0.94684 0.21604 0.28325 0.0
C1178 C 0.95538 0.18037 0.29582 0.0
C1179 C 0.96831 0.24669 0.29265 0.0
C1180 C 5e-05 0.24323 0.31414 0.0
H1181 H 0.92187 0.22095 0.26805 0.0
H1182 H 0.95867 0.2737 0.28492 0.0
S1183 S 0.0373 0.15627 0.35123 0.0
N1184 N 2e-05 0.14358 0.32899 0.0
N1185 N 0.04045 0.2011 0.3458 0.0
C1186 C 0.01059 0.20763 0.32463 0.0
C1187 C 0.98835 0.17631 0.31567 0.0
C1188 C 0.14127 0.2389 0.43899 0.0
C1189 C 0.10317 0.2344 0.43451 0.0
C1190 C 0.16167 0.21542 0.46147 0.0
C1191 C 0.14485 0.18648 0.48062 0.0
H1192 H 0.15544 0.26165 0.42621 0.0
H1193 H 0.19054 0.22121 0.4652 0.0
S1194 S 0.04715 0.15886 0.47381 0.0
N1195 N 0.05034 0.19573 0.44783 0.0
N1196 N 0.08867 0.15188 0.49022 0.0
C1197 C 0.10728 0.18013 0.4746 0.0
C1198 C 0.08648 0.20395 0.45152 0.0
C1199 C 0.06406 0.87414 0.72082 0.0
C1200 C 0.05628 0.91085 0.7295 0.0
C1201 C 0.03998 0.85317 0.69976 0.0
C1202 C 0.0069 0.8679 0.68646 0.0
H1203 H 0.08847 0.86098 0.7314 0.0
H1204 H 0.04704 0.82477 0.69473 0.0
S1205 S 0.97462 0.96352 0.69934 0.0
N1206 N 0.01404 0.96185 0.7214 0.0
N1207 N 0.96865 0.92232 0.68167 0.0
C1208 C -0.00039 0.90518 0.69322 0.0
C1209 C 0.02431 0.92667 0.71475 0.0
C1210 C 0.34184 0.76786 0.92999 0.0
C1211 C 0.36137 0.73993 0.94818 0.0
C1212 C 0.32173 0.7942 0.94982 0.0
C1213 C 0.32067 0.79302 0.9882 0.0
H1214 H 0.34402 0.77073 0.90058 0.0
H1215 H 0.3087 0.81656 0.93529 0.0
S1216 S 0.36193 0.72204 0.04793 0.0
N1217 N 0.37461 0.71036 0.00618 0.0
N1218 N 0.33679 0.75937 0.04317 0.0
C1219 C 0.33778 0.7637 0.00626 0.0
C1220 C 0.35817 0.73722 0.9863 0.0
C1221 C 0.4946 0.08481 0.20303 0.0
C1222 C 0.48576 0.12096 0.1928 0.0
C1223 C 0.47011 0.0636 0.22403 0.0
C1224 C 0.43605 0.07791 0.23526 0.0
H1225 H 0.52133 0.0736 0.19656 0.0
H1226 H 0.47885 0.03681 0.23338 0.0
S1227 S 0.39712 0.16817 0.20936 0.0
N1228 N 0.43851 0.16797 0.19109 0.0
N1229 N 0.39275 0.12823 0.23013 0.0
C1230 C 0.42584 0.1128 0.2226 0.0
C1231 C 0.45063 0.1343 0.20149 0.0
C1232 C 0.58945 0.2796 0.52631 0.0
C1233 C 0.60099 0.24608 0.54132 0.0
C1234 C 0.61175 0.29911 0.50207 0.0
C1235 C 0.64639 0.28572 0.49159 0.0
H1236 H 0.56298 0.29099 0.53352 0.0
H1237 H 0.60169 0.32503 0.4917 0.0
S1238 S 0.68792 0.19746 0.52142 0.0
N1239 N 0.64824 0.19925 0.54306 0.0
N1240 N 0.69038 0.23556 0.49718 0.0
C1241 C 0.65797 0.25171 0.50602 0.0
C1242 C 0.63527 0.23205 0.53103 0.0
C1243 C 0.94933 0.35634 0.74898 0.0
C1244 C 0.95367 0.39465 0.74896 0.0
C1245 C 0.97069 0.33385 0.77153 0.0
C1246 C 0.99723 0.34864 0.79529 0.0
H1247 H 0.92953 0.3434 0.73113 0.0
H1248 H 0.96616 0.30454 0.77033 0.0
S1249 S 0.01923 0.44738 0.80632 0.0
N1250 N 0.98644 0.44652 0.77534 0.0
N1251 N 0.02652 0.40419 0.81752 0.0
C1252 C 0.00169 0.38694 0.79586 0.0
C1253 C 0.98 0.4099 0.77277 0.0
C1254 C 0.91853 0.71918 0.01867 0.0
C1255 C 0.90346 0.74402 0.04421 0.0
C1256 C 0.89616 0.69755 0.9962 0.0
C1257 C 0.85781 0.70011 -0.0019 0.0
H1258 H 0.94795 0.71662 0.01558 0.0
H1259 H 0.90903 0.67942 0.97656 0.0
S1260 S 0.80422 0.7584 0.06213 0.0
N1261 N 0.84739 0.7681 0.07127 0.0
N1262 N 0.80553 0.72756 0.02921 0.0
C1263 C 0.8423 0.72397 0.0242 0.0
C1264 C 0.86503 0.74584 0.04719 0.0
C1265 C 0.49629 0.61798 0.28185 0.0
C1266 C 0.49912 0.65625 0.27885 0.0
C1267 C 0.5177 0.59486 0.26012 0.0
C1268 C 0.54323 0.60906 0.23489 0.0
H1269 H 0.47718 0.6057 0.30097 0.0
H1270 H 0.51459 0.56553 0.26364 0.0
S1271 S 0.56124 0.70734 0.21637 0.0
N1272 N 0.52931 0.70749 0.24842 0.0
N1273 N 0.5699 0.66376 0.20782 0.0
C1274 C 0.54641 0.64726 0.23156 0.0
C1275 C 0.52423 0.67092 0.25341 0.0
C1276 C 0.20977 0.4462 0.112 0.0
C1277 C 0.24445 0.43655 0.12578 0.0
C1278 C 0.18594 0.46856 0.13178 0.0
C1279 C 0.1957 0.48213 0.1663 0.0
H1280 H 0.20155 0.43766 0.08484 0.0
H1281 H 0.16029 0.47658 0.1192 0.0
S1282 S 0.28182 0.46199 0.21632 0.0
N1283 N 0.28627 0.43967 0.17725 0.0
N1284 N 0.24119 0.48197 0.21493 0.0
C1285 C 0.22915 0.47055 0.18172 0.0
C1286 C 0.25363 0.44764 0.16133 0.0
C1287 C 0.74587 0.04069 0.8589 0.0
C1288 C 0.73857 0.04634 0.89623 0.0
C1289 C 0.72372 0.01798 0.83767 0.0
C1290 C 0.69313 -0.00014 0.8527 0.0
H1291 H 0.76942 0.05329 0.84591 0.0
H1292 H 0.73111 0.01436 0.80921 0.0
S1293 S 0.66046 0.00731 0.94867 0.0
N1294 N 0.69749 0.03325 0.94716 0.0
N1295 N 0.65566 0.99045 0.90709 0.0
C1296 C 0.68495 0.00577 0.88988 0.0
C1297 C 0.70766 0.02902 0.91164 0.0
C1298 C 0.79915 0.00096 0.39745 0.0
C1299 C 0.80566 0.99352 0.36037 0.0
C1300 C 0.7772 0.97738 0.41854 0.0
C1301 C 0.76144 0.94571 0.40308 0.0
H1302 H 0.80949 0.02594 0.40965 0.0
H1303 H 0.77104 0.98502 0.4465 0.0
S1304 S 0.77672 0.91097 0.3089 0.0
N1305 N 0.79912 0.95022 0.31037 0.0
N1306 N 0.75841 0.90577 0.34987 0.0
C1307 C 0.7703 0.93676 0.36674 0.0
C1308 C 0.79229 0.96075 0.3454 0.0
C1309 C 0.28742 0.49765 0.59508 0.0
C1310 C 0.28301 0.49848 0.63322 0.0
C1311 C 0.26639 0.52029 0.57239 0.0
C1312 C 0.24067 0.54504 0.58708 0.0
H1313 H 0.30696 0.47909 0.58261 0.0
H1314 H 0.27072 0.51872 0.54312 0.0
S1315 S 0.21905 0.55822 0.68531 0.0
N1316 N 0.25111 0.52631 0.6848 0.0
N1317 N 0.21185 0.56895 0.64207 0.0
C1318 C 0.23614 0.54631 0.62518 0.0
C1319 C 0.25721 0.52299 0.64826 0.0
loop_
_geom_bond_atom_site_label_1
_geom_bond_atom_site_label_2
_geom_bond_distance
_geom_bond_site_symmetry_2
_ccdc_geom_bond_type
Sc0 O3 2.025 . S
Sc0 O10 2.105 1_455 S
Sc0 O13 2.105 . S
Sc0 O16 2.105 1_455 S
Sc0 O19 2.105 . S
Sc1 O3 2.025 . S
Sc1 O11 2.105 . S
Sc1 O15 2.105 . S
Sc1 O17 2.105 . S
Sc1 O21 2.105 . S
Sc2 O3 2.025 . S
Sc2 O12 2.105 . S
Sc2 O14 2.103 1_455 S
Sc2 O18 2.105 . S
Sc2 O20 2.105 1_455 S
O3 Sc0 2.025 . S
O3 Sc1 2.025 . S
O3 Sc2 2.025 . S
C4 O10 1.268 . S
C4 O20 1.268 . S
C5 O11 1.268 . S
C5 O19 1.268 . S
C6 O12 1.268 . S
C6 O21 1.268 . S
C7 O13 1.268 . S
C7 O17 1.268 . S
C8 O14 1.269 . S
C8 O16 1.268 . S
C9 O15 1.268 . S
C9 O18 1.268 . S
O10 Sc0 2.105 1_655 S
O10 C4 1.268 . S
O11 Sc1 2.105 . S
O11 C5 1.268 . S
O12 Sc2 2.105 . S
O12 C6 1.268 . S
O13 Sc0 2.105 . S
O13 C7 1.268 . S
O14 Sc2 2.103 1_655 S
O14 C8 1.269 . S
O15 Sc1 2.105 . S
O15 C9 1.268 . S
O16 Sc0 2.105 1_655 S
O16 C8 1.268 . S
O17 Sc1 2.105 . S
O17 C7 1.268 . S
O18 Sc2 2.105 . S
O18 C9 1.268 . S
O19 Sc0 2.105 . S
O19 C5 1.268 . S
O20 Sc2 2.105 1_655 S
O20 C4 1.268 . S
O21 Sc1 2.105 . S
O21 C6 1.268 . S
Sc22 O25 2.025 . S
Sc22 O32 2.105 . S
Sc22 O35 2.105 . S
Sc22 O38 2.105 . S
Sc22 O41 2.105 . S
Sc23 O25 2.025 . S
Sc23 O33 2.105 . S
Sc23 O37 2.105 . S
Sc23 O39 2.105 . S
Sc23 O43 2.105 . S
Sc24 O25 2.025 . S
Sc24 O34 2.105 . S
Sc24 O36 2.105 . S
Sc24 O40 2.105 . S
Sc24 O42 2.105 . S
O25 Sc22 2.025 . S
O25 Sc23 2.025 . S
O25 Sc24 2.025 . S
C26 O32 1.268 . S
C26 O42 1.268 . S
C27 O33 1.268 . S
C27 O41 1.268 . S
C28 O34 1.268 . S
C28 O43 1.268 . S
C29 O35 1.268 . S
C29 O39 1.268 . S
C30 O36 1.268 . S
C30 O38 1.268 . S
C31 O37 1.268 . S
C31 O40 1.268 . S
O32 Sc22 2.105 . S
O32 C26 1.268 . S
O33 Sc23 2.105 . S
O33 C27 1.268 . S
O34 Sc24 2.105 . S
O34 C28 1.268 . S
O35 Sc22 2.105 . S
O35 C29 1.268 . S
O36 Sc24 2.105 . S
O36 C30 1.268 . S
O37 Sc23 2.105 . S
O37 C31 1.268 . S
O38 Sc22 2.105 . S
O38 C30 1.268 . S
O39 Sc23 2.105 . S
O39 C29 1.268 . S
O40 Sc24 2.105 . S
O40 C31 1.268 . S
O41 Sc22 2.105 . S
O41 C27 1.268 . S
O42 Sc24 2.105 . S
O42 C26 1.268 . S
O43 Sc23 2.105 . S
O43 C28 1.268 . S
Sc44 O47 2.025 . S
Sc44 O54 2.105 . S
Sc44 O57 2.105 . S
Sc44 O60 2.105 . S
Sc44 O63 2.105 . S
Sc45 O47 2.025 . S
Sc45 O55 2.105 . S
Sc45 O59 2.105 . S
Sc45 O61 2.105 . S
Sc45 O65 2.105 . S
Sc46 O47 2.025 . S
Sc46 O56 2.105 . S
Sc46 O58 2.105 . S
Sc46 O62 2.105 . S
Sc46 O64 2.105 . S
O47 Sc44 2.025 . S
O47 Sc45 2.025 . S
O47 Sc46 2.025 . S
C48 O54 1.268 . S
C48 O64 1.268 . S
C49 O55 1.268 . S
C49 O63 1.268 . S
C50 O56 1.268 . S
C50 O65 1.268 . S
C51 O57 1.268 . S
C51 O61 1.268 . S
C52 O58 1.268 . S
C52 O60 1.268 . S
C53 O59 1.268 . S
C53 O62 1.268 . S
O54 Sc44 2.105 . S
O54 C48 1.268 . S
O55 Sc45 2.105 . S
O55 C49 1.268 . S
O56 Sc46 2.105 . S
O56 C50 1.268 . S
O57 Sc44 2.105 . S
O57 C51 1.268 . S
O58 Sc46 2.105 . S
O58 C52 1.268 . S
O59 Sc45 2.105 . S
O59 C53 1.268 . S
O60 Sc44 2.105 . S
O60 C52 1.268 . S
O61 Sc45 2.105 . S
O61 C51 1.268 . S
O62 Sc46 2.105 . S
O62 C53 1.268 . S
O63 Sc44 2.105 . S
O63 C49 1.268 . S
O64 Sc46 2.105 . S
O64 C48 1.268 . S
O65 Sc45 2.105 . S
O65 C50 1.268 . S
Sc66 O69 2.025 . S
Sc66 O76 2.105 . S
Sc66 O79 2.105 . S
Sc66 O82 2.105 . S
Sc66 O85 2.105 . S
Sc67 O69 2.025 . S
Sc67 O77 2.105 . S
Sc67 O81 2.105 . S
Sc67 O83 2.105 . S
Sc67 O87 2.105 . S
Sc68 O69 2.025 . S
Sc68 O78 2.105 . S
Sc68 O80 2.105 . S
Sc68 O84 2.105 . S
Sc68 O86 2.105 . S
O69 Sc66 2.025 . S
O69 Sc67 2.025 . S
O69 Sc68 2.025 . S
C70 O76 1.268 . S
C70 O86 1.268 . S
C71 O77 1.268 . S
C71 O85 1.268 . S
C72 O78 1.268 . S
C72 O87 1.268 . S
C73 O79 1.268 . S
C73 O83 1.268 . S
C74 O80 1.268 . S
C74 O82 1.268 . S
C75 O81 1.268 . S
C75 O84 1.268 . S
O76 Sc66 2.105 . S
O76 C70 1.268 . S
O77 Sc67 2.105 . S
O77 C71 1.268 . S
O78 Sc68 2.105 . S
O78 C72 1.268 . S
O79 Sc66 2.105 . S
O79 C73 1.268 . S
O80 Sc68 2.105 . S
O80 C74 1.268 . S
O81 Sc67 2.105 . S
O81 C75 1.268 . S
O82 Sc66 2.105 . S
O82 C74 1.268 . S
O83 Sc67 2.105 . S
O83 C73 1.268 . S
O84 Sc68 2.105 . S
O84 C75 1.268 . S
O85 Sc66 2.105 . S
O85 C71 1.268 . S
O86 Sc68 2.105 . S
O86 C70 1.268 . S
O87 Sc67 2.105 . S
O87 C72 1.268 . S
Sc88 O91 2.025 . S
Sc88 O98 2.105 . S
Sc88 O101 2.105 . S
Sc88 O104 2.105 . S
Sc88 O107 2.105 . S
Sc89 O91 2.025 . S
Sc89 O99 2.105 . S
Sc89 O103 2.105 . S
Sc89 O105 2.105 . S
Sc89 O109 2.105 . S
Sc90 O91 2.025 . S
Sc90 O100 2.105 . S
Sc90 O102 2.105 . S
Sc90 O106 2.105 . S
Sc90 O108 2.105 . S
O91 Sc88 2.025 . S
O91 Sc89 2.025 . S
O91 Sc90 2.025 . S
C92 O98 1.268 . S
C92 O108 1.268 . S
C93 O99 1.268 . S
C93 O107 1.268 . S
C94 O100 1.268 . S
C94 O109 1.268 . S
C95 O101 1.268 . S
C95 O105 1.268 . S
C96 O102 1.268 . S
C96 O104 1.268 . S
C97 O103 1.268 . S
C97 O106 1.268 . S
O98 Sc88 2.105 . S
O98 C92 1.268 . S
O99 Sc89 2.105 . S
O99 C93 1.268 . S
O100 Sc90 2.105 . S
O100 C94 1.268 . S
O101 Sc88 2.105 . S
O101 C95 1.268 . S
O102 Sc90 2.105 . S
O102 C96 1.268 . S
O103 Sc89 2.105 . S
O103 C97 1.268 . S
O104 Sc88 2.105 . S
O104 C96 1.268 . S
O105 Sc89 2.105 . S
O105 C95 1.268 . S
O106 Sc90 2.105 . S
O106 C97 1.268 . S
O107 Sc88 2.105 . S
O107 C93 1.268 . S
O108 Sc90 2.105 . S
O108 C92 1.268 . S
O109 Sc89 2.105 . S
O109 C94 1.268 . S
Sc110 O113 2.025 . S
Sc110 O120 2.105 . S
Sc110 O123 2.105 . S
Sc110 O126 2.105 . S
Sc110 O129 2.105 . S
Sc111 O113 2.025 . S
Sc111 O121 2.105 . S
Sc111 O125 2.105 . S
Sc111 O127 2.105 . S
Sc111 O131 2.105 . S
Sc112 O113 2.025 . S
Sc112 O122 2.105 . S
Sc112 O124 2.105 . S
Sc112 O128 2.105 . S
Sc112 O130 2.105 . S
O113 Sc110 2.025 . S
O113 Sc111 2.025 . S
O113 Sc112 2.025 . S
C114 O120 1.268 . S
C114 O130 1.268 . S
C115 O121 1.268 . S
C115 O129 1.268 . S
C116 O122 1.268 . S
C116 O131 1.268 . S
C117 O123 1.268 . S
C117 O127 1.268 . S
C118 O124 1.268 . S
C118 O126 1.268 . S
C119 O125 1.268 . S
C119 O128 1.268 . S
O120 Sc110 2.105 . S
O120 C114 1.268 . S
O121 Sc111 2.105 . S
O121 C115 1.268 . S
O122 Sc112 2.105 . S
O122 C116 1.268 . S
O123 Sc110 2.105 . S
O123 C117 1.268 . S
O124 Sc112 2.105 . S
O124 C118 1.268 . S
O125 Sc111 2.105 . S
O125 C119 1.268 . S
O126 Sc110 2.105 . S
O126 C118 1.268 . S
O127 Sc111 2.105 . S
O127 C117 1.268 . S
O128 Sc112 2.105 . S
O128 C119 1.268 . S
O129 Sc110 2.105 . S
O129 C115 1.268 . S
O130 Sc112 2.105 . S
O130 C114 1.268 . S
O131 Sc111 2.105 . S
O131 C116 1.268 . S
Sc132 O135 2.025 . S
Sc132 O142 2.103 1_655 S
Sc132 O145 2.105 . S
Sc132 O148 2.105 1_655 S
Sc132 O151 2.105 . S
Sc133 O135 2.025 . S
Sc133 O143 2.105 . S
Sc133 O147 2.105 . S
Sc133 O149 2.105 . S
Sc133 O153 2.105 . S
Sc134 O135 2.025 . S
Sc134 O144 2.105 . S
Sc134 O146 2.105 1_655 S
Sc134 O150 2.105 . S
Sc134 O152 2.105 1_655 S
O135 Sc132 2.025 . S
O135 Sc133 2.025 . S
O135 Sc134 2.025 . S
C136 O142 1.269 . S
C136 O152 1.268 . S
C137 O143 1.268 . S
C137 O151 1.268 . S
C138 O144 1.268 . S
C138 O153 1.268 . S
C139 O145 1.268 . S
C139 O149 1.268 . S
C140 O146 1.268 . S
C140 O148 1.268 . S
C141 O147 1.268 . S
C141 O150 1.268 . S
O142 Sc132 2.103 1_455 S
O142 C136 1.269 . S
O143 Sc133 2.105 . S
O143 C137 1.268 . S
O144 Sc134 2.105 . S
O144 C138 1.268 . S
O145 Sc132 2.105 . S
O145 C139 1.268 . S
O146 Sc134 2.105 1_455 S
O146 C140 1.268 . S
O147 Sc133 2.105 . S
O147 C141 1.268 . S
O148 Sc132 2.105 1_455 S
O148 C140 1.268 . S
O149 Sc133 2.105 . S
O149 C139 1.268 . S
O150 Sc134 2.105 . S
O150 C141 1.268 . S
O151 Sc132 2.105 . S
O151 C137 1.268 . S
O152 Sc134 2.105 1_455 S
O152 C136 1.268 . S
O153 Sc133 2.105 . S
O153 C138 1.268 . S
Sc154 O157 2.025 . S
Sc154 O164 2.105 . S
Sc154 O167 2.105 . S
Sc154 O170 2.105 . S
Sc154 O173 2.105 . S
Sc155 O157 2.025 . S
Sc155 O165 2.105 . S
Sc155 O169 2.105 . S
Sc155 O171 2.105 . S
Sc155 O175 2.105 . S
Sc156 O157 2.025 . S
Sc156 O166 2.105 . S
Sc156 O168 2.105 . S
Sc156 O172 2.105 . S
Sc156 O174 2.105 . S
O157 Sc154 2.025 . S
O157 Sc155 2.025 . S
O157 Sc156 2.025 . S
C158 O164 1.268 . S
C158 O174 1.268 . S
C159 O165 1.268 . S
C159 O173 1.268 . S
C160 O166 1.268 . S
C160 O175 1.268 . S
C161 O167 1.268 . S
C161 O171 1.268 . S
C162 O168 1.268 . S
C162 O170 1.268 . S
C163 O169 1.268 . S
C163 O172 1.268 . S
O164 Sc154 2.105 . S
O164 C158 1.268 . S
O165 Sc155 2.105 . S
O165 C159 1.268 . S
O166 Sc156 2.105 . S
O166 C160 1.268 . S
O167 Sc154 2.105 . S
O167 C161 1.268 . S
O168 Sc156 2.105 . S
O168 C162 1.268 . S
O169 Sc155 2.105 . S
O169 C163 1.268 . S
O170 Sc154 2.105 . S
O170 C162 1.268 . S
O171 Sc155 2.105 . S
O171 C161 1.268 . S
O172 Sc156 2.105 . S
O172 C163 1.268 . S
O173 Sc154 2.105 . S
O173 C159 1.268 . S
O174 Sc156 2.105 . S
O174 C158 1.268 . S
O175 Sc155 2.105 . S
O175 C160 1.268 . S
Sc176 O179 2.025 . S
Sc176 O186 2.103 1_545 S
Sc176 O189 2.105 . S
Sc176 O192 2.105 1_545 S
Sc176 O195 2.105 . S
Sc177 O179 2.025 . S
Sc177 O187 2.105 . S
Sc177 O191 2.105 . S
Sc177 O193 2.105 . S
Sc177 O197 2.105 . S
Sc178 O179 2.025 . S
Sc178 O188 2.105 . S
Sc178 O190 2.105 1_545 S
Sc178 O194 2.105 . S
Sc178 O196 2.105 1_545 S
O179 Sc176 2.025 . S
O179 Sc177 2.025 . S
O179 Sc178 2.025 . S
C180 O186 1.269 . S
C180 O196 1.268 . S
C181 O187 1.268 . S
C181 O195 1.268 . S
C182 O188 1.268 . S
C182 O197 1.268 . S
C183 O189 1.268 . S
C183 O193 1.268 . S
C184 O190 1.268 . S
C184 O192 1.268 . S
C185 O191 1.268 . S
C185 O194 1.268 . S
O186 Sc176 2.103 1_565 S
O186 C180 1.269 . S
O187 Sc177 2.105 . S
O187 C181 1.268 . S
O188 Sc178 2.105 . S
O188 C182 1.268 . S
O189 Sc176 2.105 . S
O189 C183 1.268 . S
O190 Sc178 2.105 1_565 S
O190 C184 1.268 . S
O191 Sc177 2.105 . S
O191 C185 1.268 . S
O192 Sc176 2.105 1_565 S
O192 C184 1.268 . S
O193 Sc177 2.105 . S
O193 C183 1.268 . S
O194 Sc178 2.105 . S
O194 C185 1.268 . S
O195 Sc176 2.105 . S
O195 C181 1.268 . S
O196 Sc178 2.105 1_565 S
O196 C180 1.268 . S
O197 Sc177 2.105 . S
O197 C182 1.268 . S
Sc198 O201 2.025 . S
Sc198 O208 2.105 . S
Sc198 O211 2.105 . S
Sc198 O214 2.105 . S
Sc198 O217 2.105 . S
Sc199 O201 2.025 . S
Sc199 O209 2.105 . S
Sc199 O213 2.105 . S
Sc199 O215 2.105 . S
Sc199 O219 2.105 . S
Sc200 O201 2.025 . S
Sc200 O210 2.105 . S
Sc200 O212 2.105 . S
Sc200 O216 2.105 . S
Sc200 O218 2.105 . S
O201 Sc198 2.025 . S
O201 Sc199 2.025 . S
O201 Sc200 2.025 . S
C202 O208 1.268 . S
C202 O218 1.268 . S
C203 O209 1.268 . S
C203 O217 1.268 . S
C204 O210 1.268 . S
C204 O219 1.268 . S
C205 O211 1.268 . S
C205 O215 1.268 . S
C206 O212 1.268 . S
C206 O214 1.268 . S
C207 O213 1.268 . S
C207 O216 1.268 . S
O208 Sc198 2.105 . S
O208 C202 1.268 . S
O209 Sc199 2.105 . S
O209 C203 1.268 . S
O210 Sc200 2.105 . S
O210 C204 1.268 . S
O211 Sc198 2.105 . S
O211 C205 1.268 . S
O212 Sc200 2.105 . S
O212 C206 1.268 . S
O213 Sc199 2.105 . S
O213 C207 1.268 . S
O214 Sc198 2.105 . S
O214 C206 1.268 . S
O215 Sc199 2.105 . S
O215 C205 1.268 . S
O216 Sc200 2.105 . S
O216 C207 1.268 . S
O217 Sc198 2.105 . S
O217 C203 1.268 . S
O218 Sc200 2.105 . S
O218 C202 1.268 . S
O219 Sc199 2.105 . S
O219 C204 1.268 . S
Sc220 O223 2.025 . S
Sc220 O230 2.105 1_565 S
Sc220 O233 2.105 . S
Sc220 O236 2.105 1_565 S
Sc220 O239 2.105 . S
Sc221 O223 2.025 . S
Sc221 O231 2.105 . S
Sc221 O235 2.105 . S
Sc221 O237 2.105 . S
Sc221 O241 2.105 . S
Sc222 O223 2.025 . S
Sc222 O232 2.105 . S
Sc222 O234 2.103 1_565 S
Sc222 O238 2.105 . S
Sc222 O240 2.105 1_565 S
O223 Sc220 2.025 . S
O223 Sc221 2.025 . S
O223 Sc222 2.025 . S
C224 O230 1.268 . S
C224 O240 1.268 . S
C225 O231 1.268 . S
C225 O239 1.268 . S
C226 O232 1.268 . S
C226 O241 1.268 . S
C227 O233 1.268 . S
C227 O237 1.268 . S
C228 O234 1.269 . S
C228 O236 1.268 . S
C229 O235 1.268 . S
C229 O238 1.268 . S
O230 Sc220 2.105 1_545 S
O230 C224 1.268 . S
O231 Sc221 2.105 . S
O231 C225 1.268 . S
O232 Sc222 2.105 . S
O232 C226 1.268 . S
O233 Sc220 2.105 . S
O233 C227 1.268 . S
O234 Sc222 2.103 1_545 S
O234 C228 1.269 . S
O235 Sc221 2.105 . S
O235 C229 1.268 . S
O236 Sc220 2.105 1_545 S
O236 C228 1.268 . S
O237 Sc221 2.105 . S
O237 C227 1.268 . S
O238 Sc222 2.105 . S
O238 C229 1.268 . S
O239 Sc220 2.105 . S
O239 C225 1.268 . S
O240 Sc222 2.105 1_545 S
O240 C224 1.268 . S
O241 Sc221 2.105 . S
O241 C226 1.268 . S
Sc242 O245 2.025 . S
Sc242 O252 2.105 . S
Sc242 O255 2.105 . S
Sc242 O258 2.105 . S
Sc242 O261 2.105 . S
Sc243 O245 2.025 . S
Sc243 O253 2.105 . S
Sc243 O257 2.105 . S
Sc243 O259 2.105 . S
Sc243 O263 2.105 . S
Sc244 O245 2.025 . S
Sc244 O254 2.105 . S
Sc244 O256 2.105 . S
Sc244 O260 2.105 . S
Sc244 O262 2.105 . S
O245 Sc242 2.025 . S
O245 Sc243 2.025 . S
O245 Sc244 2.025 . S
C246 O252 1.268 . S
C246 O262 1.268 . S
C247 O253 1.268 . S
C247 O261 1.268 . S
C248 O254 1.268 . S
C248 O263 1.268 . S
C249 O255 1.268 . S
C249 O259 1.268 . S
C250 O256 1.268 . S
C250 O258 1.268 . S
C251 O257 1.268 . S
C251 O260 1.268 . S
O252 Sc242 2.105 . S
O252 C246 1.268 . S
O253 Sc243 2.105 . S
O253 C247 1.268 . S
O254 Sc244 2.105 . S
O254 C248 1.268 . S
O255 Sc242 2.105 . S
O255 C249 1.268 . S
O256 Sc244 2.105 . S
O256 C250 1.268 . S
O257 Sc243 2.105 . S
O257 C251 1.268 . S
O258 Sc242 2.105 . S
O258 C250 1.268 . S
O259 Sc243 2.105 . S
O259 C249 1.268 . S
O260 Sc244 2.105 . S
O260 C251 1.268 . S
O261 Sc242 2.105 . S
O261 C247 1.268 . S
O262 Sc244 2.105 . S
O262 C246 1.268 . S
O263 Sc243 2.105 . S
O263 C248 1.268 . S
Sc264 O267 2.025 . S
Sc264 O274 2.105 . S
Sc264 O277 2.105 . S
Sc264 O280 2.105 . S
Sc264 O283 2.105 . S
Sc265 O267 2.025 . S
Sc265 O275 2.105 . S
Sc265 O279 2.105 . S
Sc265 O281 2.105 . S
Sc265 O285 2.105 . S
Sc266 O267 2.025 . S
Sc266 O276 2.105 . S
Sc266 O278 2.105 . S
Sc266 O282 2.105 . S
Sc266 O284 2.105 . S
O267 Sc264 2.025 . S
O267 Sc265 2.025 . S
O267 Sc266 2.025 . S
C268 O274 1.268 . S
C268 O284 1.268 . S
C269 O275 1.268 . S
C269 O283 1.268 . S
C270 O276 1.268 . S
C270 O285 1.268 . S
C271 O277 1.268 . S
C271 O281 1.268 . S
C272 O278 1.268 . S
C272 O280 1.268 . S
C273 O279 1.268 . S
C273 O282 1.268 . S
O274 Sc264 2.105 . S
O274 C268 1.268 . S
O275 Sc265 2.105 . S
O275 C269 1.268 . S
O276 Sc266 2.105 . S
O276 C270 1.268 . S
O277 Sc264 2.105 . S
O277 C271 1.268 . S
O278 Sc266 2.105 . S
O278 C272 1.268 . S
O279 Sc265 2.105 . S
O279 C273 1.268 . S
O280 Sc264 2.105 . S
O280 C272 1.268 . S
O281 Sc265 2.105 . S
O281 C271 1.268 . S
O282 Sc266 2.105 . S
O282 C273 1.268 . S
O283 Sc264 2.105 . S
O283 C269 1.268 . S
O284 Sc266 2.105 . S
O284 C268 1.268 . S
O285 Sc265 2.105 . S
O285 C270 1.268 . S
Sc286 O289 2.025 . S
Sc286 O296 2.105 . S
Sc286 O299 2.105 . S
Sc286 O302 2.105 . S
Sc286 O305 2.105 . S
Sc287 O289 2.025 . S
Sc287 O297 2.105 . S
Sc287 O301 2.105 . S
Sc287 O303 2.105 . S
Sc287 O307 2.105 . S
Sc288 O289 2.025 . S
Sc288 O298 2.105 . S
Sc288 O300 2.105 . S
Sc288 O304 2.105 . S
Sc288 O306 2.105 . S
O289 Sc286 2.025 . S
O289 Sc287 2.025 . S
O289 Sc288 2.025 . S
C290 O296 1.268 . S
C290 O306 1.268 . S
C291 O297 1.268 . S
C291 O305 1.268 . S
C292 O298 1.268 . S
C292 O307 1.268 . S
C293 O299 1.268 . S
C293 O303 1.268 . S
C294 O300 1.268 . S
C294 O302 1.268 . S
C295 O301 1.268 . S
C295 O304 1.268 . S
O296 Sc286 2.105 . S
O296 C290 1.268 . S
O297 Sc287 2.105 . S
O297 C291 1.268 . S
O298 Sc288 2.105 . S
O298 C292 1.268 . S
O299 Sc286 2.105 . S
O299 C293 1.268 . S
O300 Sc288 2.105 . S
O300 C294 1.268 . S
O301 Sc287 2.105 . S
O301 C295 1.268 . S
O302 Sc286 2.105 . S
O302 C294 1.268 . S
O303 Sc287 2.105 . S
O303 C293 1.268 . S
O304 Sc288 2.105 . S
O304 C295 1.268 . S
O305 Sc286 2.105 . S
O305 C291 1.268 . S
O306 Sc288 2.105 . S
O306 C290 1.268 . S
O307 Sc287 2.105 . S
O307 C292 1.268 . S
Sc308 O311 2.025 . S
Sc308 O318 2.105 . S
Sc308 O321 2.105 . S
Sc308 O324 2.105 . S
Sc308 O327 2.105 . S
Sc309 O311 2.025 . S
Sc309 O319 2.105 . S
Sc309 O323 2.105 . S
Sc309 O325 2.105 . S
Sc309 O329 2.105 . S
Sc310 O311 2.025 . S
Sc310 O320 2.105 . S
Sc310 O322 2.105 . S
Sc310 O326 2.105 . S
Sc310 O328 2.105 . S
O311 Sc308 2.025 . S
O311 Sc309 2.025 . S
O311 Sc310 2.025 . S
C312 O318 1.268 . S
C312 O328 1.268 . S
C313 O319 1.268 . S
C313 O327 1.268 . S
C314 O320 1.268 . S
C314 O329 1.268 . S
C315 O321 1.268 . S
C315 O325 1.268 . S
C316 O322 1.268 . S
C316 O324 1.268 . S
C317 O323 1.268 . S
C317 O326 1.268 . S
O318 Sc308 2.105 . S
O318 C312 1.268 . S
O319 Sc309 2.105 . S
O319 C313 1.268 . S
O320 Sc310 2.105 . S
O320 C314 1.268 . S
O321 Sc308 2.105 . S
O321 C315 1.268 . S
O322 Sc310 2.105 . S
O322 C316 1.268 . S
O323 Sc309 2.105 . S
O323 C317 1.268 . S
O324 Sc308 2.105 . S
O324 C316 1.268 . S
O325 Sc309 2.105 . S
O325 C315 1.268 . S
O326 Sc310 2.105 . S
O326 C317 1.268 . S
O327 Sc308 2.105 . S
O327 C313 1.268 . S
O328 Sc310 2.105 . S
O328 C312 1.268 . S
O329 Sc309 2.105 . S
O329 C314 1.268 . S
Sc330 O333 2.025 . S
Sc330 O340 2.105 . S
Sc330 O343 2.105 . S
Sc330 O346 2.105 . S
Sc330 O349 2.105 . S
Sc331 O333 2.025 . S
Sc331 O341 2.105 . S
Sc331 O345 2.105 . S
Sc331 O347 2.105 . S
Sc331 O351 2.105 . S
Sc332 O333 2.025 . S
Sc332 O342 2.105 . S
Sc332 O344 2.105 . S
Sc332 O348 2.105 . S
Sc332 O350 2.105 . S
O333 Sc330 2.025 . S
O333 Sc331 2.025 . S
O333 Sc332 2.025 . S
C334 O340 1.268 . S
C334 O350 1.268 . S
C335 O341 1.268 . S
C335 O349 1.268 . S
C336 O342 1.268 . S
C336 O351 1.268 . S
C337 O343 1.268 . S
C337 O347 1.268 . S
C338 O344 1.268 . S
C338 O346 1.268 . S
C339 O345 1.268 . S
C339 O348 1.268 . S
O340 Sc330 2.105 . S
O340 C334 1.268 . S
O341 Sc331 2.105 . S
O341 C335 1.268 . S
O342 Sc332 2.105 . S
O342 C336 1.268 . S
O343 Sc330 2.105 . S
O343 C337 1.268 . S
O344 Sc332 2.105 . S
O344 C338 1.268 . S
O345 Sc331 2.105 . S
O345 C339 1.268 . S
O346 Sc330 2.105 . S
O346 C338 1.268 . S
O347 Sc331 2.105 . S
O347 C337 1.268 . S
O348 Sc332 2.105 . S
O348 C339 1.268 . S
O349 Sc330 2.105 . S
O349 C335 1.268 . S
O350 Sc332 2.105 . S
O350 C334 1.268 . S
O351 Sc331 2.105 . S
O351 C336 1.268 . S
Sc352 O355 2.025 . S
Sc352 O362 2.105 1_554 S
Sc352 O365 2.105 . S
Sc352 O368 2.105 1_554 S
Sc352 O371 2.105 . S
Sc353 O355 2.025 . S
Sc353 O363 2.105 . S
Sc353 O367 2.105 . S
Sc353 O369 2.105 . S
Sc353 O373 2.105 . S
Sc354 O355 2.025 . S
Sc354 O364 2.105 . S
Sc354 O366 2.103 1_554 S
Sc354 O370 2.105 . S
Sc354 O372 2.105 1_554 S
O355 Sc352 2.025 . S
O355 Sc353 2.025 . S
O355 Sc354 2.025 . S
C356 O362 1.268 . S
C356 O372 1.268 . S
C357 O363 1.268 . S
C357 O371 1.268 . S
C358 O364 1.268 . S
C358 O373 1.268 . S
C359 O365 1.268 . S
C359 O369 1.268 . S
C360 O366 1.269 . S
C360 O368 1.268 . S
C361 O367 1.268 . S
C361 O370 1.268 . S
O362 Sc352 2.105 1_556 S
O362 C356 1.268 . S
O363 Sc353 2.105 . S
O363 C357 1.268 . S
O364 Sc354 2.105 . S
O364 C358 1.268 . S
O365 Sc352 2.105 . S
O365 C359 1.268 . S
O366 Sc354 2.103 1_556 S
O366 C360 1.269 . S
O367 Sc353 2.105 . S
O367 C361 1.268 . S
O368 Sc352 2.105 1_556 S
O368 C360 1.268 . S
O369 Sc353 2.105 . S
O369 C359 1.268 . S
O370 Sc354 2.105 . S
O370 C361 1.268 . S
O371 Sc352 2.105 . S
O371 C357 1.268 . S
O372 Sc354 2.105 1_556 S
O372 C356 1.268 . S
O373 Sc353 2.105 . S
O373 C358 1.268 . S
Sc374 O377 2.025 . S
Sc374 O384 2.103 1_556 S
Sc374 O387 2.105 . S
Sc374 O390 2.105 1_556 S
Sc374 O393 2.105 . S
Sc375 O377 2.025 . S
Sc375 O385 2.105 . S
Sc375 O389 2.105 . S
Sc375 O391 2.105 . S
Sc375 O395 2.105 . S
Sc376 O377 2.025 . S
Sc376 O386 2.105 . S
Sc376 O388 2.105 1_556 S
Sc376 O392 2.105 . S
Sc376 O394 2.105 1_556 S
O377 Sc374 2.025 . S
O377 Sc375 2.025 . S
O377 Sc376 2.025 . S
C378 O384 1.269 . S
C378 O394 1.268 . S
C379 O385 1.268 . S
C379 O393 1.268 . S
C380 O386 1.268 . S
C380 O395 1.268 . S
C381 O387 1.268 . S
C381 O391 1.268 . S
C382 O388 1.268 . S
C382 O390 1.268 . S
C383 O389 1.268 . S
C383 O392 1.268 . S
O384 Sc374 2.103 1_554 S
O384 C378 1.269 . S
O385 Sc375 2.105 . S
O385 C379 1.268 . S
O386 Sc376 2.105 . S
O386 C380 1.268 . S
O387 Sc374 2.105 . S
O387 C381 1.268 . S
O388 Sc376 2.105 1_554 S
O388 C382 1.268 . S
O389 Sc375 2.105 . S
O389 C383 1.268 . S
O390 Sc374 2.105 1_554 S
O390 C382 1.268 . S
O391 Sc375 2.105 . S
O391 C381 1.268 . S
O392 Sc376 2.105 . S
O392 C383 1.268 . S
O393 Sc374 2.105 . S
O393 C379 1.268 . S
O394 Sc376 2.105 1_554 S
O394 C378 1.268 . S
O395 Sc375 2.105 . S
O395 C380 1.268 . S
Sc396 O399 2.025 . S
Sc396 O406 2.105 . S
Sc396 O409 2.105 . S
Sc396 O412 2.105 . S
Sc396 O415 2.105 . S
Sc397 O399 2.025 . S
Sc397 O407 2.105 . S
Sc397 O411 2.105 . S
Sc397 O413 2.105 . S
Sc397 O417 2.105 . S
Sc398 O399 2.025 . S
Sc398 O408 2.105 . S
Sc398 O410 2.105 . S
Sc398 O414 2.105 . S
Sc398 O416 2.105 . S
O399 Sc396 2.025 . S
O399 Sc397 2.025 . S
O399 Sc398 2.025 . S
C400 O406 1.268 . S
C400 O416 1.268 . S
C401 O407 1.268 . S
C401 O415 1.268 . S
C402 O408 1.268 . S
C402 O417 1.268 . S
C403 O409 1.268 . S
C403 O413 1.268 . S
C404 O410 1.268 . S
C404 O412 1.268 . S
C405 O411 1.268 . S
C405 O414 1.268 . S
O406 Sc396 2.105 . S
O406 C400 1.268 . S
O407 Sc397 2.105 . S
O407 C401 1.268 . S
O408 Sc398 2.105 . S
O408 C402 1.268 . S
O409 Sc396 2.105 . S
O409 C403 1.268 . S
O410 Sc398 2.105 . S
O410 C404 1.268 . S
O411 Sc397 2.105 . S
O411 C405 1.268 . S
O412 Sc396 2.105 . S
O412 C404 1.268 . S
O413 Sc397 2.105 . S
O413 C403 1.268 . S
O414 Sc398 2.105 . S
O414 C405 1.268 . S
O415 Sc396 2.105 . S
O415 C401 1.268 . S
O416 Sc398 2.105 . S
O416 C400 1.268 . S
O417 Sc397 2.105 . S
O417 C402 1.268 . S
Sc418 O421 2.025 . S
Sc418 O428 2.105 . S
Sc418 O431 2.105 . S
Sc418 O434 2.105 . S
Sc418 O437 2.105 . S
Sc419 O421 2.025 . S
Sc419 O429 2.105 . S
Sc419 O433 2.105 . S
Sc419 O435 2.105 . S
Sc419 O439 2.105 . S
Sc420 O421 2.025 . S
Sc420 O430 2.105 . S
Sc420 O432 2.105 . S
Sc420 O436 2.105 . S
Sc420 O438 2.105 . S
O421 Sc418 2.025 . S
O421 Sc419 2.025 . S
O421 Sc420 2.025 . S
C422 O428 1.268 . S
C422 O438 1.268 . S
C423 O429 1.268 . S
C423 O437 1.268 . S
C424 O430 1.268 . S
C424 O439 1.268 . S
C425 O431 1.268 . S
C425 O435 1.268 . S
C426 O432 1.268 . S
C426 O434 1.268 . S
C427 O433 1.268 . S
C427 O436 1.268 . S
O428 Sc418 2.105 . S
O428 C422 1.268 . S
O429 Sc419 2.105 . S
O429 C423 1.268 . S
O430 Sc420 2.105 . S
O430 C424 1.268 . S
O431 Sc418 2.105 . S
O431 C425 1.268 . S
O432 Sc420 2.105 . S
O432 C426 1.268 . S
O433 Sc419 2.105 . S
O433 C427 1.268 . S
O434 Sc418 2.105 . S
O434 C426 1.268 . S
O435 Sc419 2.105 . S
O435 C425 1.268 . S
O436 Sc420 2.105 . S
O436 C427 1.268 . S
O437 Sc418 2.105 . S
O437 C423 1.268 . S
O438 Sc420 2.105 . S
O438 C422 1.268 . S
O439 Sc419 2.105 . S
O439 C424 1.268 . S
Sc440 O443 2.025 . S
Sc440 O450 2.105 . S
Sc440 O453 2.105 . S
Sc440 O456 2.105 . S
Sc440 O459 2.105 . S
Sc441 O443 2.025 . S
Sc441 O451 2.105 . S
Sc441 O455 2.105 . S
Sc441 O457 2.105 . S
Sc441 O461 2.105 . S
Sc442 O443 2.025 . S
Sc442 O452 2.105 . S
Sc442 O454 2.105 . S
Sc442 O458 2.105 . S
Sc442 O460 2.105 . S
O443 Sc440 2.025 . S
O443 Sc441 2.025 . S
O443 Sc442 2.025 . S
C444 O450 1.268 . S
C444 O460 1.268 . S
C445 O451 1.268 . S
C445 O459 1.268 . S
C446 O452 1.268 . S
C446 O461 1.268 . S
C447 O453 1.268 . S
C447 O457 1.268 . S
C448 O454 1.268 . S
C448 O456 1.268 . S
C449 O455 1.268 . S
C449 O458 1.268 . S
O450 Sc440 2.105 . S
O450 C444 1.268 . S
O451 Sc441 2.105 . S
O451 C445 1.268 . S
O452 Sc442 2.105 . S
O452 C446 1.268 . S
O453 Sc440 2.105 . S
O453 C447 1.268 . S
O454 Sc442 2.105 . S
O454 C448 1.268 . S
O455 Sc441 2.105 . S
O455 C449 1.268 . S
O456 Sc440 2.105 . S
O456 C448 1.268 . S
O457 Sc441 2.105 . S
O457 C447 1.268 . S
O458 Sc442 2.105 . S
O458 C449 1.268 . S
O459 Sc440 2.105 . S
O459 C445 1.268 . S
O460 Sc442 2.105 . S
O460 C444 1.268 . S
O461 Sc441 2.105 . S
O461 C446 1.268 . S
Sc462 O465 2.025 . S
Sc462 O472 2.105 . S
Sc462 O475 2.105 . S
Sc462 O478 2.105 . S
Sc462 O481 2.105 . S
Sc463 O465 2.025 . S
Sc463 O473 2.105 . S
Sc463 O477 2.105 . S
Sc463 O479 2.105 . S
Sc463 O483 2.105 . S
Sc464 O465 2.025 . S
Sc464 O474 2.105 . S
Sc464 O476 2.105 . S
Sc464 O480 2.105 . S
Sc464 O482 2.105 . S
O465 Sc462 2.025 . S
O465 Sc463 2.025 . S
O465 Sc464 2.025 . S
C466 O472 1.268 . S
C466 O482 1.268 . S
C467 O473 1.268 . S
C467 O481 1.268 . S
C468 O474 1.268 . S
C468 O483 1.268 . S
C469 O475 1.268 . S
C469 O479 1.268 . S
C470 O476 1.268 . S
C470 O478 1.268 . S
C471 O477 1.268 . S
C471 O480 1.268 . S
O472 Sc462 2.105 . S
O472 C466 1.268 . S
O473 Sc463 2.105 . S
O473 C467 1.268 . S
O474 Sc464 2.105 . S
O474 C468 1.268 . S
O475 Sc462 2.105 . S
O475 C469 1.268 . S
O476 Sc464 2.105 . S
O476 C470 1.268 . S
O477 Sc463 2.105 . S
O477 C471 1.268 . S
O478 Sc462 2.105 . S
O478 C470 1.268 . S
O479 Sc463 2.105 . S
O479 C469 1.268 . S
O480 Sc464 2.105 . S
O480 C471 1.268 . S
O481 Sc462 2.105 . S
O481 C467 1.268 . S
O482 Sc464 2.105 . S
O482 C466 1.268 . S
O483 Sc463 2.105 . S
O483 C468 1.268 . S
Sc484 O487 2.025 . S
Sc484 O494 2.105 . S
Sc484 O497 2.105 . S
Sc484 O500 2.105 . S
Sc484 O503 2.105 . S
Sc485 O487 2.025 . S
Sc485 O495 2.105 . S
Sc485 O499 2.105 . S
Sc485 O501 2.105 . S
Sc485 O505 2.105 . S
Sc486 O487 2.025 . S
Sc486 O496 2.105 . S
Sc486 O498 2.105 . S
Sc486 O502 2.105 . S
Sc486 O504 2.105 . S
O487 Sc484 2.025 . S
O487 Sc485 2.025 . S
O487 Sc486 2.025 . S
C488 O494 1.268 . S
C488 O504 1.268 . S
C489 O495 1.268 . S
C489 O503 1.268 . S
C490 O496 1.268 . S
C490 O505 1.268 . S
C491 O497 1.268 . S
C491 O501 1.268 . S
C492 O498 1.268 . S
C492 O500 1.268 . S
C493 O499 1.268 . S
C493 O502 1.268 . S
O494 Sc484 2.105 . S
O494 C488 1.268 . S
O495 Sc485 2.105 . S
O495 C489 1.268 . S
O496 Sc486 2.105 . S
O496 C490 1.268 . S
O497 Sc484 2.105 . S
O497 C491 1.268 . S
O498 Sc486 2.105 . S
O498 C492 1.268 . S
O499 Sc485 2.105 . S
O499 C493 1.268 . S
O500 Sc484 2.105 . S
O500 C492 1.268 . S
O501 Sc485 2.105 . S
O501 C491 1.268 . S
O502 Sc486 2.105 . S
O502 C493 1.268 . S
O503 Sc484 2.105 . S
O503 C489 1.268 . S
O504 Sc486 2.105 . S
O504 C488 1.268 . S
O505 Sc485 2.105 . S
O505 C490 1.268 . S
Sc506 O509 2.025 . S
Sc506 O516 2.105 . S
Sc506 O519 2.105 . S
Sc506 O522 2.105 . S
Sc506 O525 2.105 . S
Sc507 O509 2.025 . S
Sc507 O517 2.105 . S
Sc507 O521 2.105 . S
Sc507 O523 2.105 . S
Sc507 O527 2.105 . S
Sc508 O509 2.025 . S
Sc508 O518 2.105 . S
Sc508 O520 2.105 . S
Sc508 O524 2.105 . S
Sc508 O526 2.105 . S
O509 Sc506 2.025 . S
O509 Sc507 2.025 . S
O509 Sc508 2.025 . S
C510 O516 1.268 . S
C510 O526 1.268 . S
C511 O517 1.268 . S
C511 O525 1.268 . S
C512 O518 1.268 . S
C512 O527 1.268 . S
C513 O519 1.268 . S
C513 O523 1.268 . S
C514 O520 1.268 . S
C514 O522 1.268 . S
C515 O521 1.268 . S
C515 O524 1.268 . S
O516 Sc506 2.105 . S
O516 C510 1.268 . S
O517 Sc507 2.105 . S
O517 C511 1.268 . S
O518 Sc508 2.105 . S
O518 C512 1.268 . S
O519 Sc506 2.105 . S
O519 C513 1.268 . S
O520 Sc508 2.105 . S
O520 C514 1.268 . S
O521 Sc507 2.105 . S
O521 C515 1.268 . S
O522 Sc506 2.105 . S
O522 C514 1.268 . S
O523 Sc507 2.105 . S
O523 C513 1.268 . S
O524 Sc508 2.105 . S
O524 C515 1.268 . S
O525 Sc506 2.105 . S
O525 C511 1.268 . S
O526 Sc508 2.105 . S
O526 C510 1.268 . S
O527 Sc507 2.105 . S
O527 C512 1.268 . S
C528 C529 1.369 . S
C528 C530 1.419 . S
C528 H532 0.930 . S
C529 C528 1.369 . S
C529 C538 1.429 . S
C530 C528 1.419 . S
C530 C531 1.363 . S
C530 H533 0.929 . S
C531 C530 1.363 . S
C531 C537 1.428 . S
H532 C528 0.930 . S
H533 C530 0.929 . S
S534 N535 1.613 . S
S534 N536 1.610 . S
N535 S534 1.613 . S
N535 C538 1.350 . S
N536 S534 1.610 . S
N536 C537 1.351 . S
C537 C531 1.428 . S
C537 N536 1.351 . S
C537 C538 1.434 . S
C538 C529 1.429 . S
C538 N535 1.350 . S
C538 C537 1.434 . S
C539 C540 1.369 . S
C539 C541 1.419 . S
C539 H543 0.930 . S
C540 C539 1.369 . S
C540 C549 1.429 . S
C541 C539 1.419 . S
C541 C542 1.363 . S
C541 H544 0.929 . S
C542 C541 1.363 . S
C542 C548 1.428 . S
H543 C539 0.930 . S
H544 C541 0.929 . S
S545 N546 1.613 . S
S545 N547 1.610 . S
N546 S545 1.613 . S
N546 C549 1.350 . S
N547 S545 1.610 . S
N547 C548 1.351 . S
C548 C542 1.428 . S
C548 N547 1.351 . S
C548 C549 1.434 . S
C549 C540 1.429 . S
C549 N546 1.350 . S
C549 C548 1.434 . S
C550 C551 1.369 . S
C550 C552 1.419 . S
C550 H554 0.930 . S
C551 C550 1.369 . S
C551 C560 1.429 . S
C552 C550 1.419 . S
C552 C553 1.363 . S
C552 H555 0.929 . S
C553 C552 1.363 . S
C553 C559 1.428 . S
H554 C550 0.930 . S
H555 C552 0.929 . S
S556 N557 1.613 . S
S556 N558 1.610 . S
N557 S556 1.613 . S
N557 C560 1.350 . S
N558 S556 1.610 . S
N558 C559 1.351 . S
C559 C553 1.428 . S
C559 N558 1.351 . S
C559 C560 1.434 . S
C560 C551 1.429 . S
C560 N557 1.350 . S
C560 C559 1.434 . S
C561 C562 1.369 . S
C561 C563 1.419 . S
C561 H565 0.930 . S
C562 C561 1.369 . S
C562 C571 1.429 . S
C563 C561 1.419 . S
C563 C564 1.363 . S
C563 H566 0.929 . S
C564 C563 1.363 . S
C564 C570 1.428 . S
H565 C561 0.930 . S
H566 C563 0.929 . S
S567 N568 1.613 . S
S567 N569 1.610 . S
N568 S567 1.613 . S
N568 C571 1.350 . S
N569 S567 1.610 . S
N569 C570 1.351 . S
C570 C564 1.428 . S
C570 N569 1.351 . S
C570 C571 1.434 . S
C571 C562 1.429 . S
C571 N568 1.350 . S
C571 C570 1.434 . S
C572 C573 1.369 . S
C572 C574 1.419 . S
C572 H576 0.930 . S
C573 C572 1.369 . S
C573 C582 1.429 . S
C574 C572 1.419 . S
C574 C575 1.363 . S
C574 H577 0.929 . S
C575 C574 1.363 . S
C575 C581 1.428 . S
H576 C572 0.930 . S
H577 C574 0.929 . S
S578 N579 1.613 . S
S578 N580 1.610 . S
N579 S578 1.613 . S
N579 C582 1.350 . S
N580 S578 1.610 . S
N580 C581 1.351 . S
C581 C575 1.428 . S
C581 N580 1.351 . S
C581 C582 1.434 . S
C582 C573 1.429 . S
C582 N579 1.350 . S
C582 C581 1.434 . S
C583 C584 1.369 . S
C583 C585 1.419 . S
C583 H587 0.930 . S
C584 C583 1.369 . S
C584 C593 1.429 . S
C585 C583 1.419 . S
C585 C586 1.363 . S
C585 H588 0.929 . S
C586 C585 1.363 . S
C586 C592 1.428 . S
H587 C583 0.930 . S
H588 C585 0.929 . S
S589 N590 1.613 . S
S589 N591 1.610 . S
N590 S589 1.613 . S
N590 C593 1.350 . S
N591 S589 1.610 . S
N591 C592 1.351 . S
C592 C586 1.428 . S
C592 N591 1.351 . S
C592 C593 1.434 . S
C593 C584 1.429 . S
C593 N590 1.350 . S
C593 C592 1.434 . S
C594 C595 1.369 . S
C594 C596 1.419 . S
C594 H598 0.930 . S
C595 C594 1.369 . S
C595 C604 1.429 . S
C596 C594 1.419 . S
C596 C597 1.363 . S
C596 H599 0.929 . S
C597 C596 1.363 . S
C597 C603 1.428 . S
H598 C594 0.930 . S
H599 C596 0.929 . S
S600 N601 1.613 . S
S600 N602 1.610 . S
N601 S600 1.613 . S
N601 C604 1.350 . S
N602 S600 1.610 . S
N602 C603 1.351 . S
C603 C597 1.428 . S
C603 N602 1.351 . S
C603 C604 1.434 . S
C604 C595 1.429 . S
C604 N601 1.350 . S
C604 C603 1.434 . S
C605 C606 1.369 . S
C605 C607 1.419 . S
C605 H609 0.930 . S
C606 C605 1.369 . S
C606 C615 1.429 . S
C607 C605 1.419 . S
C607 C608 1.363 . S
C607 H610 0.929 . S
C608 C607 1.363 . S
C608 C614 1.428 . S
H609 C605 0.930 . S
H610 C607 0.929 . S
S611 N612 1.613 . S
S611 N613 1.610 . S
N612 S611 1.613 . S
N612 C615 1.350 . S
N613 S611 1.610 . S
N613 C614 1.351 . S
C614 C608 1.428 . S
C614 N613 1.351 . S
C614 C615 1.434 . S
C615 C606 1.429 . S
C615 N612 1.350 . S
C615 C614 1.434 . S
C616 C617 1.369 . S
C616 C618 1.419 . S
C616 H620 0.930 . S
C617 C616 1.369 . S
C617 C626 1.429 . S
C618 C616 1.419 . S
C618 C619 1.363 . S
C618 H621 0.929 . S
C619 C618 1.363 . S
C619 C625 1.428 . S
H620 C616 0.930 . S
H621 C618 0.929 . S
S622 N623 1.613 . S
S622 N624 1.610 . S
N623 S622 1.613 . S
N623 C626 1.350 . S
N624 S622 1.610 . S
N624 C625 1.351 . S
C625 C619 1.428 . S
C625 N624 1.351 . S
C625 C626 1.434 . S
C626 C617 1.429 . S
C626 N623 1.350 . S
C626 C625 1.434 . S
C627 C628 1.369 . S
C627 C629 1.419 . S
C627 H631 0.930 . S
C628 C627 1.369 . S
C628 C637 1.429 . S
C629 C627 1.419 . S
C629 C630 1.363 . S
C629 H632 0.929 . S
C630 C629 1.363 . S
C630 C636 1.428 . S
H631 C627 0.930 . S
H632 C629 0.929 . S
S633 N634 1.613 . S
S633 N635 1.610 . S
N634 S633 1.613 . S
N634 C637 1.350 . S
N635 S633 1.610 . S
N635 C636 1.351 . S
C636 C630 1.428 . S
C636 N635 1.351 . S
C636 C637 1.434 . S
C637 C628 1.429 . S
C637 N634 1.350 . S
C637 C636 1.434 . S
C638 C639 1.369 . S
C638 C640 1.419 . S
C638 H642 0.930 . S
C639 C638 1.369 . S
C639 C648 1.429 . S
C640 C638 1.419 . S
C640 C641 1.363 . S
C640 H643 0.929 . S
C641 C640 1.363 . S
C641 C647 1.428 . S
H642 C638 0.930 . S
H643 C640 0.929 . S
S644 N645 1.613 . S
S644 N646 1.610 . S
N645 S644 1.613 . S
N645 C648 1.350 . S
N646 S644 1.610 . S
N646 C647 1.351 . S
C647 C641 1.428 . S
C647 N646 1.351 . S
C647 C648 1.434 . S
C648 C639 1.429 . S
C648 N645 1.350 . S
C648 C647 1.434 . S
C649 C650 1.369 . S
C649 C651 1.419 . S
C649 H653 0.930 . S
C650 C649 1.369 . S
C650 C659 1.429 . S
C651 C649 1.419 . S
C651 C652 1.363 . S
C651 H654 0.929 . S
C652 C651 1.363 . S
C652 C658 1.428 . S
H653 C649 0.930 . S
H654 C651 0.929 . S
S655 N656 1.613 . S
S655 N657 1.610 . S
N656 S655 1.613 . S
N656 C659 1.350 . S
N657 S655 1.610 . S
N657 C658 1.351 . S
C658 C652 1.428 . S
C658 N657 1.351 . S
C658 C659 1.434 . S
C659 C650 1.429 . S
C659 N656 1.350 . S
C659 C658 1.434 . S
C660 C661 1.369 . S
C660 C662 1.419 . S
C660 H664 0.930 . S
C661 C660 1.369 . S
C661 C670 1.429 . S
C662 C660 1.419 . S
C662 C663 1.363 . S
C662 H665 0.929 . S
C663 C662 1.363 . S
C663 C669 1.428 . S
H664 C660 0.930 . S
H665 C662 0.929 . S
S666 N667 1.613 . S
S666 N668 1.610 . S
N667 S666 1.613 . S
N667 C670 1.350 . S
N668 S666 1.610 . S
N668 C669 1.351 . S
C669 C663 1.428 . S
C669 N668 1.351 . S
C669 C670 1.434 . S
C670 C661 1.429 . S
C670 N667 1.350 . S
C670 C669 1.434 . S
C671 C672 1.369 . S
C671 C673 1.419 . S
C671 H675 0.930 . S
C672 C671 1.369 . S
C672 C681 1.429 . S
C673 C671 1.419 . S
C673 C674 1.363 . S
C673 H676 0.929 . S
C674 C673 1.363 . S
C674 C680 1.428 . S
H675 C671 0.930 . S
H676 C673 0.929 . S
S677 N678 1.613 . S
S677 N679 1.610 . S
N678 S677 1.613 . S
N678 C681 1.350 . S
N679 S677 1.610 . S
N679 C680 1.351 . S
C680 C674 1.428 . S
C680 N679 1.351 . S
C680 C681 1.434 . S
C681 C672 1.429 . S
C681 N678 1.350 . S
C681 C680 1.434 . S
C682 C683 1.369 . S
C682 C684 1.419 . S
C682 H686 0.930 . S
C683 C682 1.369 . S
C683 C692 1.429 . S
C684 C682 1.419 . S
C684 C685 1.363 . S
C684 H687 0.929 . S
C685 C684 1.363 . S
C685 C691 1.440 . S
H686 C682 0.930 . S
H687 C684 0.929 . S
S688 N689 1.613 1_554 S
S688 N690 1.610 . S
N689 S688 1.613 1_556 S
N689 C692 1.350 . S
N690 S688 1.610 . S
N690 C691 1.321 1_554 S
C691 C685 1.440 . S
C691 N690 1.321 1_556 S
C691 C692 1.453 . S
C692 C683 1.429 . S
C692 N689 1.350 . S
C692 C691 1.453 . S
C693 C694 1.369 . S
C693 C695 1.419 . S
C693 H697 0.930 . S
C694 C693 1.369 . S
C694 C703 1.429 . S
C695 C693 1.419 . S
C695 C696 1.363 . S
C695 H698 0.929 . S
C696 C695 1.363 . S
C696 C702 1.428 . S
H697 C693 0.930 . S
H698 C695 0.929 . S
S699 N700 1.613 . S
S699 N701 1.610 . S
N700 S699 1.613 . S
N700 C703 1.350 . S
N701 S699 1.610 . S
N701 C702 1.351 . S
C702 C696 1.428 . S
C702 N701 1.351 . S
C702 C703 1.434 . S
C703 C694 1.429 . S
C703 N700 1.350 . S
C703 C702 1.434 . S
C704 C705 1.369 . S
C704 C706 1.419 . S
C704 H708 0.930 1_545 S
C705 C704 1.369 . S
C705 C714 1.429 . S
C706 C704 1.419 . S
C706 C707 1.363 . S
C706 H709 0.929 . S
C707 C706 1.363 . S
C707 C713 1.428 . S
H708 C704 0.930 1_565 S
H709 C706 0.929 . S
S710 N711 1.613 . S
S710 N712 1.610 . S
N711 S710 1.613 . S
N711 C714 1.350 . S
N712 S710 1.610 . S
N712 C713 1.351 . S
C713 C707 1.428 . S
C713 N712 1.351 . S
C713 C714 1.434 . S
C714 C705 1.429 . S
C714 N711 1.350 . S
C714 C713 1.434 . S
C715 C716 1.369 . S
C715 C717 1.419 . S
C715 H719 0.930 . S
C716 C715 1.369 . S
C716 C725 1.429 . S
C717 C715 1.419 . S
C717 C718 1.363 . S
C717 H720 0.929 . S
C718 C717 1.363 . S
C718 C724 1.428 . S
H719 C715 0.930 . S
H720 C717 0.929 . S
S721 N722 1.613 . S
S721 N723 1.610 . S
N722 S721 1.613 . S
N722 C725 1.350 . S
N723 S721 1.610 . S
N723 C724 1.351 . S
C724 C718 1.428 . S
C724 N723 1.351 . S
C724 C725 1.434 . S
C725 C716 1.429 . S
C725 N722 1.350 . S
C725 C724 1.434 . S
C726 C727 1.369 . S
C726 C728 1.419 . S
C726 H730 0.930 . S
C727 C726 1.369 . S
C727 C736 1.429 . S
C728 C726 1.419 . S
C728 C729 1.363 . S
C728 H731 0.929 . S
C729 C728 1.363 . S
C729 C735 1.428 . S
H730 C726 0.930 . S
H731 C728 0.929 . S
S732 N733 1.613 . S
S732 N734 1.610 . S
N733 S732 1.613 . S
N733 C736 1.350 . S
N734 S732 1.610 . S
N734 C735 1.351 . S
C735 C729 1.428 . S
C735 N734 1.351 . S
C735 C736 1.434 . S
C736 C727 1.429 . S
C736 N733 1.350 . S
C736 C735 1.434 . S
C737 C738 1.369 . S
C737 C739 1.419 . S
C737 H741 0.930 . S
C738 C737 1.369 . S
C738 C747 1.429 . S
C739 C737 1.419 . S
C739 C740 1.363 . S
C739 H742 0.929 . S
C740 C739 1.363 . S
C740 C746 1.428 . S
H741 C737 0.930 . S
H742 C739 0.929 . S
S743 N744 1.613 . S
S743 N745 1.610 . S
N744 S743 1.613 . S
N744 C747 1.350 . S
N745 S743 1.610 . S
N745 C746 1.351 . S
C746 C740 1.428 . S
C746 N745 1.351 . S
C746 C747 1.434 . S
C747 C738 1.429 . S
C747 N744 1.350 . S
C747 C746 1.434 . S
C748 C749 1.369 . S
C748 C750 1.419 . S
C748 H752 0.930 . S
C749 C748 1.369 . S
C749 C758 1.429 . S
C750 C748 1.419 . S
C750 C751 1.363 . S
C750 H753 0.929 . S
C751 C750 1.363 . S
C751 C757 1.428 . S
H752 C748 0.930 . S
H753 C750 0.929 . S
S754 N755 1.613 . S
S754 N756 1.610 . S
N755 S754 1.613 . S
N755 C758 1.350 . S
N756 S754 1.610 . S
N756 C757 1.351 . S
C757 C751 1.428 . S
C757 N756 1.351 . S
C757 C758 1.434 . S
C758 C749 1.429 . S
C758 N755 1.350 . S
C758 C757 1.434 . S
C759 C760 1.369 . S
C759 C761 1.419 . S
C759 H763 0.930 . S
C760 C759 1.369 . S
C760 C769 1.429 . S
C761 C759 1.419 . S
C761 C762 1.363 . S
C761 H764 0.929 . S
C762 C761 1.363 . S
C762 C768 1.428 . S
H763 C759 0.930 . S
H764 C761 0.929 . S
S765 N766 1.613 . S
S765 N767 1.610 . S
N766 S765 1.613 . S
N766 C769 1.350 . S
N767 S765 1.610 . S
N767 C768 1.351 . S
C768 C762 1.428 . S
C768 N767 1.351 . S
C768 C769 1.434 . S
C769 C760 1.429 . S
C769 N766 1.350 . S
C769 C768 1.434 . S
C770 C771 1.369 . S
C770 C772 1.419 . S
C770 H774 0.930 . S
C771 C770 1.369 . S
C771 C780 1.429 . S
C772 C770 1.419 . S
C772 C773 1.363 . S
C772 H775 0.929 1_455 S
C773 C772 1.363 . S
C773 C779 1.428 . S
H774 C770 0.930 . S
H775 C772 0.929 1_655 S
S776 N777 1.613 1_554 S
S776 N778 1.610 . S
N777 S776 1.613 1_556 S
N777 C780 1.350 . S
N778 S776 1.610 . S
N778 C779 1.351 1_554 S
C779 C773 1.428 . S
C779 N778 1.351 1_556 S
C779 C780 1.434 . S
C780 C771 1.429 . S
C780 N777 1.350 . S
C780 C779 1.434 . S
C781 C782 1.369 . S
C781 C783 1.419 . S
C781 H785 0.930 . S
C782 C781 1.369 . S
C782 C791 1.429 . S
C783 C781 1.419 . S
C783 C784 1.363 . S
C783 H786 0.929 . S
C784 C783 1.363 . S
C784 C790 1.428 . S
H785 C781 0.930 . S
H786 C783 0.929 . S
S787 N788 1.613 . S
S787 N789 1.610 . S
N788 S787 1.613 . S
N788 C791 1.350 . S
N789 S787 1.610 . S
N789 C790 1.351 . S
C790 C784 1.428 . S
C790 N789 1.351 . S
C790 C791 1.434 . S
C791 C782 1.429 . S
C791 N788 1.350 . S
C791 C790 1.434 . S
C792 C793 1.369 . S
C792 C794 1.419 . S
C792 H796 0.930 . S
C793 C792 1.369 . S
C793 C802 1.429 . S
C794 C792 1.419 . S
C794 C795 1.363 . S
C794 H797 0.929 . S
C795 C794 1.363 . S
C795 C801 1.428 . S
H796 C792 0.930 . S
H797 C794 0.929 . S
S798 N799 1.613 . S
S798 N800 1.610 1_455 S
N799 S798 1.613 . S
N799 C802 1.350 1_455 S
N800 S798 1.610 1_655 S
N800 C801 1.351 . S
C801 C795 1.428 . S
C801 N800 1.351 . S
C801 C802 1.434 . S
C802 C793 1.429 . S
C802 N799 1.350 1_655 S
C802 C801 1.434 . S
C803 C804 1.369 . S
C803 C805 1.419 . S
C803 H807 0.930 . S
C804 C803 1.369 . S
C804 C813 1.429 . S
C805 C803 1.419 . S
C805 C806 1.363 . S
C805 H808 0.929 . S
C806 C805 1.363 . S
C806 C812 1.428 . S
H807 C803 0.930 . S
H808 C805 0.929 . S
S809 N810 1.613 . S
S809 N811 1.610 . S
N810 S809 1.613 . S
N810 C813 1.350 . S
N811 S809 1.610 . S
N811 C812 1.351 . S
C812 C806 1.428 . S
C812 N811 1.351 . S
C812 C813 1.434 . S
C813 C804 1.429 . S
C813 N810 1.350 . S
C813 C812 1.434 . S
C814 C815 1.369 . S
C814 C816 1.419 . S
C814 H818 0.930 . S
C815 C814 1.369 . S
C815 C824 1.429 . S
C816 C814 1.419 . S
C816 C817 1.363 . S
C816 H819 0.929 . S
C817 C816 1.363 . S
C817 C823 1.428 . S
H818 C814 0.930 . S
H819 C816 0.929 . S
S820 N821 1.613 1_556 S
S820 N822 1.610 . S
N821 S820 1.613 1_554 S
N821 C824 1.350 . S
N822 S820 1.610 . S
N822 C823 1.351 1_556 S
C823 C817 1.428 . S
C823 N822 1.351 1_554 S
C823 C824 1.434 . S
C824 C815 1.429 . S
C824 N821 1.350 . S
C824 C823 1.434 . S
C825 C826 1.369 . S
C825 C827 1.419 . S
C825 H829 0.930 . S
C826 C825 1.369 . S
C826 C835 1.429 . S
C827 C825 1.419 . S
C827 C828 1.363 . S
C827 H830 0.929 . S
C828 C827 1.363 . S
C828 C834 1.428 . S
H829 C825 0.930 . S
H830 C827 0.929 . S
S831 N832 1.613 . S
S831 N833 1.610 . S
N832 S831 1.613 . S
N832 C835 1.350 . S
N833 S831 1.610 . S
N833 C834 1.351 . S
C834 C828 1.428 . S
C834 N833 1.351 . S
C834 C835 1.434 . S
C835 C826 1.429 . S
C835 N832 1.350 . S
C835 C834 1.434 . S
C836 C837 1.369 . S
C836 C838 1.419 . S
C836 H840 0.930 . S
C837 C836 1.369 . S
C837 C846 1.429 . S
C838 C836 1.419 . S
C838 C839 1.363 . S
C838 H841 0.929 . S
C839 C838 1.363 . S
C839 C845 1.428 . S
H840 C836 0.930 . S
H841 C838 0.929 . S
S842 N843 1.613 . S
S842 N844 1.610 . S
N843 S842 1.613 . S
N843 C846 1.350 . S
N844 S842 1.610 . S
N844 C845 1.351 . S
C845 C839 1.428 . S
C845 N844 1.351 . S
C845 C846 1.434 . S
C846 C837 1.429 . S
C846 N843 1.350 . S
C846 C845 1.434 . S
C847 C848 1.369 . S
C847 C849 1.419 . S
C847 H851 0.930 1_655 S
C848 C847 1.369 . S
C848 C857 1.429 . S
C849 C847 1.419 . S
C849 C850 1.363 . S
C849 H852 0.929 . S
C850 C849 1.363 . S
C850 C856 1.428 . S
H851 C847 0.930 1_455 S
H852 C849 0.929 . S
S853 N854 1.613 . S
S853 N855 1.610 1_565 S
N854 S853 1.613 . S
N854 C857 1.350 1_565 S
N855 S853 1.610 1_545 S
N855 C856 1.351 . S
C856 C850 1.428 . S
C856 N855 1.351 . S
C856 C857 1.434 . S
C857 C848 1.429 . S
C857 N854 1.350 1_545 S
C857 C856 1.434 . S
C858 C859 1.369 . S
C858 C860 1.419 . S
C858 H862 0.930 . S
C859 C858 1.369 . S
C859 C868 1.429 . S
C860 C858 1.419 . S
C860 C861 1.363 . S
C860 H863 0.929 . S
C861 C860 1.363 . S
C861 C867 1.428 . S
H862 C858 0.930 . S
H863 C860 0.929 . S
S864 N865 1.613 . S
S864 N866 1.610 . S
N865 S864 1.613 . S
N865 C868 1.350 . S
N866 S864 1.610 . S
N866 C867 1.351 . S
C867 C861 1.428 . S
C867 N866 1.351 . S
C867 C868 1.434 . S
C868 C859 1.429 . S
C868 N865 1.350 . S
C868 C867 1.434 . S
C869 C870 1.369 . S
C869 C871 1.419 . S
C869 H873 0.930 . S
C870 C869 1.369 . S
C870 C879 1.429 . S
C871 C869 1.419 . S
C871 C872 1.363 . S
C871 H874 0.929 . S
C872 C871 1.363 . S
C872 C878 1.428 . S
H873 C869 0.930 . S
H874 C871 0.929 . S
S875 N876 1.613 1_565 S
S875 N877 1.610 . S
N876 S875 1.613 1_545 S
N876 C879 1.350 1_545 S
N877 S875 1.610 . S
N877 C878 1.351 . S
C878 C872 1.428 . S
C878 N877 1.351 . S
C878 C879 1.434 . S
C879 C870 1.429 . S
C879 N876 1.350 1_565 S
C879 C878 1.434 . S
C880 C881 1.369 . S
C880 C882 1.419 . S
C880 H884 0.930 . S
C881 C880 1.369 . S
C881 C890 1.429 . S
C882 C880 1.419 . S
C882 C883 1.363 . S
C882 H885 0.929 . S
C883 C882 1.363 . S
C883 C889 1.428 . S
H884 C880 0.930 . S
H885 C882 0.929 . S
S886 N887 1.613 . S
S886 N888 1.610 . S
N887 S886 1.613 . S
N887 C890 1.350 . S
N888 S886 1.610 . S
N888 C889 1.351 . S
C889 C883 1.428 . S
C889 N888 1.351 . S
C889 C890 1.434 . S
C890 C881 1.429 . S
C890 N887 1.350 . S
C890 C889 1.434 . S
C891 C892 1.369 . S
C891 C893 1.419 . S
C891 H895 0.930 1_455 S
C892 C891 1.369 . S
C892 C901 1.429 . S
C893 C891 1.419 . S
C893 C894 1.363 . S
C893 H896 0.929 . S
C894 C893 1.363 . S
C894 C900 1.428 . S
H895 C891 0.930 1_655 S
H896 C893 0.929 . S
S897 N898 1.613 . S
S897 N899 1.610 . S
N898 S897 1.613 . S
N898 C901 1.350 . S
N899 S897 1.610 . S
N899 C900 1.351 . S
C900 C894 1.428 . S
C900 N899 1.351 . S
C900 C901 1.434 . S
C901 C892 1.429 . S
C901 N898 1.350 . S
C901 C900 1.434 . S
C902 C903 1.369 . S
C902 C904 1.419 . S
C902 H906 0.930 . S
C903 C902 1.369 . S
C903 C912 1.429 . S
C904 C902 1.419 . S
C904 C905 1.363 . S
C904 H907 0.929 . S
C905 C904 1.363 . S
C905 C911 1.428 . S
H906 C902 0.930 . S
H907 C904 0.929 . S
S908 N909 1.613 . S
S908 N910 1.610 . S
N909 S908 1.613 . S
N909 C912 1.350 . S
N910 S908 1.610 . S
N910 C911 1.351 . S
C911 C905 1.428 . S
C911 N910 1.351 . S
C911 C912 1.434 . S
C912 C903 1.429 . S
C912 N909 1.350 . S
C912 C911 1.434 . S
C913 C914 1.369 . S
C913 C915 1.419 . S
C913 H917 0.930 . S
C914 C913 1.369 . S
C914 C923 1.429 . S
C915 C913 1.419 . S
C915 C916 1.363 . S
C915 H918 0.929 . S
C916 C915 1.363 . S
C916 C922 1.428 . S
H917 C913 0.930 . S
H918 C915 0.929 . S
S919 N920 1.613 . S
S919 N921 1.610 . S
N920 S919 1.613 . S
N920 C923 1.350 . S
N921 S919 1.610 . S
N921 C922 1.351 . S
C922 C916 1.428 . S
C922 N921 1.351 . S
C922 C923 1.434 . S
C923 C914 1.429 . S
C923 N920 1.350 . S
C923 C922 1.434 . S
C924 C925 1.369 . S
C924 C926 1.419 . S
C924 H928 0.930 . S
C925 C924 1.369 . S
C925 C934 1.429 . S
C926 C924 1.419 . S
C926 C927 1.363 . S
C926 H929 0.929 . S
C927 C926 1.363 . S
C927 C933 1.428 . S
H928 C924 0.930 . S
H929 C926 0.929 . S
S930 N931 1.613 . S
S930 N932 1.610 . S
N931 S930 1.613 . S
N931 C934 1.350 . S
N932 S930 1.610 . S
N932 C933 1.351 . S
C933 C927 1.428 . S
C933 N932 1.351 . S
C933 C934 1.434 . S
C934 C925 1.429 . S
C934 N931 1.350 . S
C934 C933 1.434 . S
C935 C936 1.369 . S
C935 C937 1.419 . S
C935 H939 0.930 . S
C936 C935 1.369 . S
C936 C945 1.429 . S
C937 C935 1.419 . S
C937 C938 1.363 . S
C937 H940 0.929 . S
C938 C937 1.363 . S
C938 C944 1.428 . S
H939 C935 0.930 . S
H940 C937 0.929 . S
S941 N942 1.613 . S
S941 N943 1.610 . S
N942 S941 1.613 . S
N942 C945 1.350 . S
N943 S941 1.610 . S
N943 C944 1.351 . S
C944 C938 1.428 . S
C944 N943 1.351 . S
C944 C945 1.434 . S
C945 C936 1.429 . S
C945 N942 1.350 . S
C945 C944 1.434 . S
C946 C947 1.369 . S
C946 C948 1.419 . S
C946 H950 0.930 . S
C947 C946 1.369 . S
C947 C956 1.429 . S
C948 C946 1.419 . S
C948 C949 1.363 . S
C948 H951 0.929 . S
C949 C948 1.363 . S
C949 C955 1.428 . S
H950 C946 0.930 . S
H951 C948 0.929 . S
S952 N953 1.613 . S
S952 N954 1.610 . S
N953 S952 1.613 . S
N953 C956 1.350 . S
N954 S952 1.610 . S
N954 C955 1.351 . S
C955 C949 1.428 . S
C955 N954 1.351 . S
C955 C956 1.434 . S
C956 C947 1.429 . S
C956 N953 1.350 . S
C956 C955 1.434 . S
C957 C958 1.369 . S
C957 C959 1.419 . S
C957 H961 0.930 . S
C958 C957 1.369 . S
C958 C967 1.429 . S
C959 C957 1.419 . S
C959 C960 1.363 1_554 S
C959 H962 0.929 1_554 S
C960 C959 1.363 1_556 S
C960 C966 1.428 . S
H961 C957 0.930 . S
H962 C959 0.929 1_556 S
S963 N964 1.613 . S
S963 N965 1.610 1_554 S
N964 S963 1.613 . S
N964 C967 1.350 . S
N965 S963 1.610 1_556 S
N965 C966 1.351 . S
C966 C960 1.428 . S
C966 N965 1.351 . S
C966 C967 1.434 1_556 S
C967 C958 1.429 . S
C967 N964 1.350 . S
C967 C966 1.434 1_554 S
C968 C969 1.369 . S
C968 C970 1.419 . S
C968 H972 0.930 . S
C969 C968 1.369 . S
C969 C978 1.429 . S
C970 C968 1.419 . S
C970 C971 1.363 . S
C970 H973 0.929 . S
C971 C970 1.363 . S
C971 C977 1.428 . S
H972 C968 0.930 . S
H973 C970 0.929 . S
S974 N975 1.613 . S
S974 N976 1.610 . S
N975 S974 1.613 . S
N975 C978 1.350 . S
N976 S974 1.610 . S
N976 C977 1.351 . S
C977 C971 1.428 . S
C977 N976 1.351 . S
C977 C978 1.434 . S
C978 C969 1.429 . S
C978 N975 1.350 . S
C978 C977 1.434 . S
C979 C980 1.369 . S
C979 C981 1.419 1_554 S
C979 H983 0.930 . S
C980 C979 1.369 . S
C980 C989 1.429 1_554 S
C981 C979 1.419 1_556 S
C981 C982 1.363 . S
C981 H984 0.929 1_556 S
C982 C981 1.363 . S
C982 C988 1.428 . S
H983 C979 0.930 . S
H984 C981 0.929 1_554 S
S985 N986 1.613 . S
S985 N987 1.610 . S
N986 S985 1.613 . S
N986 C989 1.350 . S
N987 S985 1.610 . S
N987 C988 1.351 . S
C988 C982 1.428 . S
C988 N987 1.351 . S
C988 C989 1.434 . S
C989 C980 1.429 1_556 S
C989 N986 1.350 . S
C989 C988 1.434 . S
C990 C991 1.369 . S
C990 C992 1.419 . S
C990 H994 0.930 . S
C991 C990 1.369 . S
C991 C1000 1.429 . S
C992 C990 1.419 . S
C992 C993 1.363 . S
C992 H995 0.929 . S
C993 C992 1.363 . S
C993 C999 1.428 . S
H994 C990 0.930 . S
H995 C992 0.929 . S
S996 N997 1.613 . S
S996 N998 1.610 1_545 S
N997 S996 1.613 . S
N997 C1000 1.350 1_545 S
N998 S996 1.610 1_565 S
N998 C999 1.351 . S
C999 C993 1.428 . S
C999 N998 1.351 . S
C999 C1000 1.434 . S
C1000 C991 1.429 . S
C1000 N997 1.350 1_565 S
C1000 C999 1.434 . S
C1001 C1002 1.369 . S
C1001 C1003 1.419 . S
C1001 H1005 0.930 . S
C1002 C1001 1.369 . S
C1002 C1011 1.429 . S
C1003 C1001 1.419 . S
C1003 C1004 1.363 . S
C1003 H1006 0.929 . S
C1004 C1003 1.363 . S
C1004 C1010 1.428 . S
H1005 C1001 0.930 . S
H1006 C1003 0.929 . S
S1007 N1008 1.613 . S
S1007 N1009 1.610 . S
N1008 S1007 1.613 . S
N1008 C1011 1.350 . S
N1009 S1007 1.610 . S
N1009 C1010 1.351 . S
C1010 C1004 1.428 . S
C1010 N1009 1.351 . S
C1010 C1011 1.434 . S
C1011 C1002 1.429 . S
C1011 N1008 1.350 . S
C1011 C1010 1.434 . S
C1012 C1013 1.369 . S
C1012 C1014 1.419 . S
C1012 H1016 0.930 . S
C1013 C1012 1.369 . S
C1013 C1022 1.429 . S
C1014 C1012 1.419 . S
C1014 C1015 1.363 . S
C1014 H1017 0.929 . S
C1015 C1014 1.363 . S
C1015 C1021 1.428 . S
H1016 C1012 0.930 . S
H1017 C1014 0.929 . S
S1018 N1019 1.613 1_565 S
S1018 N1020 1.610 1_565 S
N1019 S1018 1.613 1_545 S
N1019 C1022 1.350 . S
N1020 S1018 1.610 1_545 S
N1020 C1021 1.351 . S
C1021 C1015 1.428 . S
C1021 N1020 1.351 . S
C1021 C1022 1.434 . S
C1022 C1013 1.429 . S
C1022 N1019 1.350 . S
C1022 C1021 1.434 . S
C1023 C1024 1.369 . S
C1023 C1025 1.419 1_565 S
C1023 H1027 0.930 . S
C1024 C1023 1.369 . S
C1024 C1033 1.429 1_565 S
C1025 C1023 1.419 1_545 S
C1025 C1026 1.363 . S
C1025 H1028 0.929 . S
C1026 C1025 1.363 . S
C1026 C1032 1.428 . S
H1027 C1023 0.930 . S
H1028 C1025 0.929 . S
S1029 N1030 1.613 . S
S1029 N1031 1.610 . S
N1030 S1029 1.613 . S
N1030 C1033 1.350 . S
N1031 S1029 1.610 . S
N1031 C1032 1.351 . S
C1032 C1026 1.428 . S
C1032 N1031 1.351 . S
C1032 C1033 1.434 . S
C1033 C1024 1.429 1_545 S
C1033 N1030 1.350 . S
C1033 C1032 1.434 . S
C1034 C1035 1.369 . S
C1034 C1036 1.419 . S
C1034 H1038 0.930 . S
C1035 C1034 1.369 . S
C1035 C1044 1.429 . S
C1036 C1034 1.419 . S
C1036 C1037 1.363 . S
C1036 H1039 0.929 . S
C1037 C1036 1.363 . S
C1037 C1043 1.428 . S
H1038 C1034 0.930 . S
H1039 C1036 0.929 . S
S1040 N1041 1.613 . S
S1040 N1042 1.610 1_546 S
N1041 S1040 1.613 . S
N1041 C1044 1.350 1_545 S
N1042 S1040 1.610 1_564 S
N1042 C1043 1.351 1_554 S
C1043 C1037 1.428 . S
C1043 N1042 1.351 1_556 S
C1043 C1044 1.434 . S
C1044 C1035 1.429 . S
C1044 N1041 1.350 1_565 S
C1044 C1043 1.434 . S
C1045 C1046 1.369 . S
C1045 C1047 1.419 1_565 S
C1045 H1049 0.930 1_565 S
C1046 C1045 1.369 . S
C1046 C1055 1.429 . S
C1047 C1045 1.419 1_545 S
C1047 C1048 1.363 . S
C1047 H1050 0.929 . S
C1048 C1047 1.363 . S
C1048 C1054 1.428 1_545 S
H1049 C1045 0.930 1_545 S
H1050 C1047 0.929 . S
S1051 N1052 1.613 . S
S1051 N1053 1.610 . S
N1052 S1051 1.613 . S
N1052 C1055 1.350 . S
N1053 S1051 1.610 . S
N1053 C1054 1.351 . S
C1054 C1048 1.428 1_565 S
C1054 N1053 1.351 . S
C1054 C1055 1.434 . S
C1055 C1046 1.429 . S
C1055 N1052 1.350 . S
C1055 C1054 1.434 . S
C1056 C1057 1.369 . S
C1056 C1058 1.419 . S
C1056 H1060 0.930 . S
C1057 C1056 1.369 . S
C1057 C1066 1.429 . S
C1058 C1056 1.419 . S
C1058 C1059 1.363 . S
C1058 H1061 0.929 . S
C1059 C1058 1.363 . S
C1059 C1065 1.428 . S
H1060 C1056 0.930 . S
H1061 C1058 0.929 . S
S1062 N1063 1.613 . S
S1062 N1064 1.610 . S
N1063 S1062 1.613 . S
N1063 C1066 1.350 . S
N1064 S1062 1.610 . S
N1064 C1065 1.351 . S
C1065 C1059 1.428 . S
C1065 N1064 1.351 . S
C1065 C1066 1.434 . S
C1066 C1057 1.429 . S
C1066 N1063 1.350 . S
C1066 C1065 1.434 . S
C1067 C1068 1.369 . S
C1067 C1069 1.419 . S
C1067 H1071 0.930 . S
C1068 C1067 1.369 . S
C1068 C1077 1.429 . S
C1069 C1067 1.419 . S
C1069 C1070 1.363 . S
C1069 H1072 0.929 . S
C1070 C1069 1.363 . S
C1070 C1076 1.428 . S
H1071 C1067 0.930 . S
H1072 C1069 0.929 . S
S1073 N1074 1.613 . S
S1073 N1075 1.610 . S
N1074 S1073 1.613 . S
N1074 C1077 1.350 . S
N1075 S1073 1.610 . S
N1075 C1076 1.351 . S
C1076 C1070 1.428 . S
C1076 N1075 1.351 . S
C1076 C1077 1.434 . S
C1077 C1068 1.429 . S
C1077 N1074 1.350 . S
C1077 C1076 1.434 . S
C1078 C1079 1.369 . S
C1078 C1080 1.419 . S
C1078 H1082 0.930 . S
C1079 C1078 1.369 . S
C1079 C1088 1.429 . S
C1080 C1078 1.419 . S
C1080 C1081 1.363 . S
C1080 H1083 0.929 . S
C1081 C1080 1.363 . S
C1081 C1087 1.428 . S
H1082 C1078 0.930 . S
H1083 C1080 0.929 . S
S1084 N1085 1.613 1_556 S
S1084 N1086 1.610 . S
N1085 S1084 1.613 1_554 S
N1085 C1088 1.350 . S
N1086 S1084 1.610 . S
N1086 C1087 1.351 1_556 S
C1087 C1081 1.428 . S
C1087 N1086 1.351 1_554 S
C1087 C1088 1.434 . S
C1088 C1079 1.429 . S
C1088 N1085 1.350 . S
C1088 C1087 1.434 . S
C1089 C1090 1.369 . S
C1089 C1091 1.419 . S
C1089 H1093 0.930 . S
C1090 C1089 1.369 . S
C1090 C1099 1.429 . S
C1091 C1089 1.419 . S
C1091 C1092 1.363 . S
C1091 H1094 0.929 . S
C1092 C1091 1.363 . S
C1092 C1098 1.428 . S
H1093 C1089 0.930 . S
H1094 C1091 0.929 . S
S1095 N1096 1.613 . S
S1095 N1097 1.610 . S
N1096 S1095 1.613 . S
N1096 C1099 1.350 . S
N1097 S1095 1.610 . S
N1097 C1098 1.351 . S
C1098 C1092 1.428 . S
C1098 N1097 1.351 . S
C1098 C1099 1.434 . S
C1099 C1090 1.429 . S
C1099 N1096 1.350 . S
C1099 C1098 1.434 . S
C1100 C1101 1.369 . S
C1100 C1102 1.419 . S
C1100 H1104 0.930 . S
C1101 C1100 1.369 . S
C1101 C1110 1.429 . S
C1102 C1100 1.419 . S
C1102 C1103 1.363 . S
C1102 H1105 0.929 . S
C1103 C1102 1.363 . S
C1103 C1109 1.428 . S
H1104 C1100 0.930 . S
H1105 C1102 0.929 . S
S1106 N1107 1.613 . S
S1106 N1108 1.610 . S
N1107 S1106 1.613 . S
N1107 C1110 1.350 . S
N1108 S1106 1.610 . S
N1108 C1109 1.351 . S
C1109 C1103 1.428 . S
C1109 N1108 1.351 . S
C1109 C1110 1.434 . S
C1110 C1101 1.429 . S
C1110 N1107 1.350 . S
C1110 C1109 1.434 . S
C1111 C1112 1.369 . S
C1111 C1113 1.419 . S
C1111 H1115 0.930 1_655 S
C1112 C1111 1.369 . S
C1112 C1121 1.429 . S
C1113 C1111 1.419 . S
C1113 C1114 1.363 . S
C1113 H1116 0.929 . S
C1114 C1113 1.363 . S
C1114 C1120 1.428 . S
H1115 C1111 0.930 1_455 S
H1116 C1113 0.929 . S
S1117 N1118 1.613 . S
S1117 N1119 1.610 . S
N1118 S1117 1.613 . S
N1118 C1121 1.350 . S
N1119 S1117 1.610 . S
N1119 C1120 1.351 . S
C1120 C1114 1.428 . S
C1120 N1119 1.351 . S
C1120 C1121 1.434 . S
C1121 C1112 1.429 . S
C1121 N1118 1.350 . S
C1121 C1120 1.434 . S
C1122 C1123 1.369 . S
C1122 C1124 1.419 1_655 S
C1122 H1126 0.930 . S
C1123 C1122 1.369 . S
C1123 C1132 1.429 1_655 S
C1124 C1122 1.419 1_455 S
C1124 C1125 1.363 . S
C1124 H1127 0.929 . S
C1125 C1124 1.363 . S
C1125 C1131 1.428 . S
H1126 C1122 0.930 . S
H1127 C1124 0.929 . S
S1128 N1129 1.613 . S
S1128 N1130 1.610 . S
N1129 S1128 1.613 . S
N1129 C1132 1.350 . S
N1130 S1128 1.610 . S
N1130 C1131 1.351 . S
C1131 C1125 1.428 . S
C1131 N1130 1.351 . S
C1131 C1132 1.434 . S
C1132 C1123 1.429 1_455 S
C1132 N1129 1.350 . S
C1132 C1131 1.434 . S
C1133 C1134 1.369 . S
C1133 C1135 1.419 . S
C1133 H1137 0.930 . S
C1134 C1133 1.369 . S
C1134 C1143 1.429 . S
C1135 C1133 1.419 . S
C1135 C1136 1.363 . S
C1135 H1138 0.929 . S
C1136 C1135 1.363 . S
C1136 C1142 1.428 . S
H1137 C1133 0.930 . S
H1138 C1135 0.929 . S
S1139 N1140 1.613 . S
S1139 N1141 1.610 . S
N1140 S1139 1.613 . S
N1140 C1143 1.350 . S
N1141 S1139 1.610 . S
N1141 C1142 1.351 . S
C1142 C1136 1.428 . S
C1142 N1141 1.351 . S
C1142 C1143 1.434 . S
C1143 C1134 1.429 . S
C1143 N1140 1.350 . S
C1143 C1142 1.434 . S
C1144 C1145 1.369 . S
C1144 C1146 1.419 . S
C1144 H1148 0.930 . S
C1145 C1144 1.369 . S
C1145 C1154 1.429 . S
C1146 C1144 1.419 . S
C1146 C1147 1.363 . S
C1146 H1149 0.929 . S
C1147 C1146 1.363 . S
C1147 C1153 1.428 . S
H1148 C1144 0.930 . S
H1149 C1146 0.929 . S
S1150 N1151 1.613 . S
S1150 N1152 1.610 . S
N1151 S1150 1.613 . S
N1151 C1154 1.350 . S
N1152 S1150 1.610 . S
N1152 C1153 1.351 . S
C1153 C1147 1.428 . S
C1153 N1152 1.351 . S
C1153 C1154 1.434 . S
C1154 C1145 1.429 . S
C1154 N1151 1.350 . S
C1154 C1153 1.434 . S
C1155 C1156 1.369 . S
C1155 C1157 1.419 . S
C1155 H1159 0.930 . S
C1156 C1155 1.369 . S
C1156 C1165 1.429 . S
C1157 C1155 1.419 . S
C1157 C1158 1.363 . S
C1157 H1160 0.929 . S
C1158 C1157 1.363 . S
C1158 C1164 1.428 . S
H1159 C1155 0.930 . S
H1160 C1157 0.929 . S
S1161 N1162 1.613 . S
S1161 N1163 1.610 . S
N1162 S1161 1.613 . S
N1162 C1165 1.350 . S
N1163 S1161 1.610 . S
N1163 C1164 1.351 . S
C1164 C1158 1.428 . S
C1164 N1163 1.351 . S
C1164 C1165 1.434 . S
C1165 C1156 1.429 . S
C1165 N1162 1.350 . S
C1165 C1164 1.434 . S
C1166 C1167 1.369 . S
C1166 C1168 1.419 . S
C1166 H1170 0.930 . S
C1167 C1166 1.369 . S
C1167 C1176 1.429 . S
C1168 C1166 1.419 . S
C1168 C1169 1.363 . S
C1168 H1171 0.929 . S
C1169 C1168 1.363 . S
C1169 C1175 1.428 . S
H1170 C1166 0.930 . S
H1171 C1168 0.929 . S
S1172 N1173 1.613 . S
S1172 N1174 1.610 . S
N1173 S1172 1.613 . S
N1173 C1176 1.350 . S
N1174 S1172 1.610 . S
N1174 C1175 1.351 . S
C1175 C1169 1.428 . S
C1175 N1174 1.351 . S
C1175 C1176 1.434 . S
C1176 C1167 1.429 . S
C1176 N1173 1.350 . S
C1176 C1175 1.434 . S
C1177 C1178 1.369 . S
C1177 C1179 1.419 1_655 S
C1177 H1181 0.930 . S
C1178 C1177 1.369 . S
C1178 C1187 1.429 . S
C1179 C1177 1.419 1_455 S
C1179 C1180 1.363 . S
C1179 H1182 0.929 . S
C1180 C1179 1.363 . S
C1180 C1186 1.428 1_455 S
H1181 C1177 0.930 . S
H1182 C1179 0.929 . S
S1183 N1184 1.613 . S
S1183 N1185 1.610 . S
N1184 S1183 1.613 . S
N1184 C1187 1.350 . S
N1185 S1183 1.610 . S
N1185 C1186 1.351 . S
C1186 C1180 1.428 1_655 S
C1186 N1185 1.351 . S
C1186 C1187 1.434 . S
C1187 C1178 1.429 . S
C1187 N1184 1.350 . S
C1187 C1186 1.434 . S
C1188 C1189 1.369 . S
C1188 C1190 1.419 . S
C1188 H1192 0.930 . S
C1189 C1188 1.369 . S
C1189 C1198 1.429 . S
C1190 C1188 1.419 . S
C1190 C1191 1.363 . S
C1190 H1193 0.929 . S
C1191 C1190 1.363 . S
C1191 C1197 1.428 . S
H1192 C1188 0.930 . S
H1193 C1190 0.929 . S
S1194 N1195 1.613 . S
S1194 N1196 1.610 . S
N1195 S1194 1.613 . S
N1195 C1198 1.350 . S
N1196 S1194 1.610 . S
N1196 C1197 1.351 . S
C1197 C1191 1.428 . S
C1197 N1196 1.351 . S
C1197 C1198 1.434 . S
C1198 C1189 1.429 . S
C1198 N1195 1.350 . S
C1198 C1197 1.434 . S
C1199 C1200 1.369 . S
C1199 C1201 1.419 . S
C1199 H1203 0.930 . S
C1200 C1199 1.369 . S
C1200 C1209 1.429 . S
C1201 C1199 1.419 . S
C1201 C1202 1.363 1_455 S
C1201 H1204 0.929 . S
C1202 C1201 1.363 1_655 S
C1202 C1208 1.428 . S
H1203 C1199 0.930 . S
H1204 C1201 0.929 . S
S1205 N1206 1.613 1_655 S
S1205 N1207 1.610 . S
N1206 S1205 1.613 1_455 S
N1206 C1209 1.350 . S
N1207 S1205 1.610 . S
N1207 C1208 1.351 . S
C1208 C1202 1.428 . S
C1208 N1207 1.351 . S
C1208 C1209 1.434 1_655 S
C1209 C1200 1.429 . S
C1209 N1206 1.350 . S
C1209 C1208 1.434 1_455 S
C1210 C1211 1.369 . S
C1210 C1212 1.419 . S
C1210 H1214 0.930 . S
C1211 C1210 1.369 . S
C1211 C1220 1.429 . S
C1212 C1210 1.419 . S
C1212 C1213 1.363 1_556 S
C1212 H1215 0.929 . S
C1213 C1212 1.363 1_554 S
C1213 C1219 1.428 . S
H1214 C1210 0.930 . S
H1215 C1212 0.929 . S
S1216 N1217 1.613 . S
S1216 N1218 1.610 . S
N1217 S1216 1.613 . S
N1217 C1220 1.350 1_554 S
N1218 S1216 1.610 . S
N1218 C1219 1.351 . S
C1219 C1213 1.428 . S
C1219 N1218 1.351 . S
C1219 C1220 1.434 1_554 S
C1220 C1211 1.429 . S
C1220 N1217 1.350 1_556 S
C1220 C1219 1.434 1_556 S
C1221 C1222 1.369 . S
C1221 C1223 1.419 . S
C1221 H1225 0.930 . S
C1222 C1221 1.369 . S
C1222 C1231 1.429 . S
C1223 C1221 1.419 . S
C1223 C1224 1.363 . S
C1223 H1226 0.929 . S
C1224 C1223 1.363 . S
C1224 C1230 1.428 . S
H1225 C1221 0.930 . S
H1226 C1223 0.929 . S
S1227 N1228 1.613 . S
S1227 N1229 1.610 . S
N1228 S1227 1.613 . S
N1228 C1231 1.350 . S
N1229 S1227 1.610 . S
N1229 C1230 1.351 . S
C1230 C1224 1.428 . S
C1230 N1229 1.351 . S
C1230 C1231 1.434 . S
C1231 C1222 1.429 . S
C1231 N1228 1.350 . S
C1231 C1230 1.434 . S
C1232 C1233 1.369 . S
C1232 C1234 1.419 . S
C1232 H1236 0.930 . S
C1233 C1232 1.369 . S
C1233 C1242 1.429 . S
C1234 C1232 1.419 . S
C1234 C1235 1.363 . S
C1234 H1237 0.929 . S
C1235 C1234 1.363 . S
C1235 C1241 1.428 . S
H1236 C1232 0.930 . S
H1237 C1234 0.929 . S
S1238 N1239 1.613 . S
S1238 N1240 1.610 . S
N1239 S1238 1.613 . S
N1239 C1242 1.350 . S
N1240 S1238 1.610 . S
N1240 C1241 1.351 . S
C1241 C1235 1.428 . S
C1241 N1240 1.351 . S
C1241 C1242 1.434 . S
C1242 C1233 1.429 . S
C1242 N1239 1.350 . S
C1242 C1241 1.434 . S
C1243 C1244 1.369 . S
C1243 C1245 1.419 . S
C1243 H1247 0.930 . S
C1244 C1243 1.369 . S
C1244 C1253 1.429 . S
C1245 C1243 1.419 . S
C1245 C1246 1.363 1_655 S
C1245 H1248 0.929 . S
C1246 C1245 1.363 1_455 S
C1246 C1252 1.428 . S
H1247 C1243 0.930 . S
H1248 C1245 0.929 . S
S1249 N1250 1.622 . S
S1249 N1251 1.610 . S
N1250 S1249 1.622 . S
N1250 C1253 1.348 1_455 S
N1251 S1249 1.610 . S
N1251 C1252 1.351 . S
C1252 C1246 1.428 . S
C1252 N1251 1.351 . S
C1252 C1253 1.434 1_455 S
C1253 C1244 1.429 . S
C1253 N1250 1.348 1_655 S
C1253 C1252 1.434 1_655 S
C1254 C1255 1.369 . S
C1254 C1256 1.419 1_554 S
C1254 H1258 0.930 . S
C1255 C1254 1.369 . S
C1255 C1264 1.429 . S
C1256 C1254 1.419 1_556 S
C1256 C1257 1.363 . S
C1256 H1259 0.929 . S
C1257 C1256 1.363 . S
C1257 C1263 1.428 1_556 S
H1258 C1254 0.930 . S
H1259 C1256 0.929 . S
S1260 N1261 1.613 . S
S1260 N1262 1.610 . S
N1261 S1260 1.613 . S
N1261 C1264 1.350 . S
N1262 S1260 1.610 . S
N1262 C1263 1.351 . S
C1263 C1257 1.428 1_554 S
C1263 N1262 1.351 . S
C1263 C1264 1.434 . S
C1264 C1255 1.429 . S
C1264 N1261 1.350 . S
C1264 C1263 1.434 . S
C1265 C1266 1.369 . S
C1265 C1267 1.419 . S
C1265 H1269 0.930 . S
C1266 C1265 1.369 . S
C1266 C1275 1.429 . S
C1267 C1265 1.419 . S
C1267 C1268 1.363 . S
C1267 H1270 0.929 . S
C1268 C1267 1.363 . S
C1268 C1274 1.428 . S
H1269 C1265 0.930 . S
H1270 C1267 0.929 . S
S1271 N1272 1.613 . S
S1271 N1273 1.610 . S
N1272 S1271 1.613 . S
N1272 C1275 1.350 . S
N1273 S1271 1.610 . S
N1273 C1274 1.351 . S
C1274 C1268 1.428 . S
C1274 N1273 1.351 . S
C1274 C1275 1.434 . S
C1275 C1266 1.429 . S
C1275 N1272 1.350 . S
C1275 C1274 1.434 . S
C1276 C1277 1.369 . S
C1276 C1278 1.419 . S
C1276 H1280 0.930 . S
C1277 C1276 1.369 . S
C1277 C1286 1.429 . S
C1278 C1276 1.419 . S
C1278 C1279 1.363 . S
C1278 H1281 0.929 . S
C1279 C1278 1.363 . S
C1279 C1285 1.428 . S
H1280 C1276 0.930 . S
H1281 C1278 0.929 . S
S1282 N1283 1.613 . S
S1282 N1284 1.610 . S
N1283 S1282 1.613 . S
N1283 C1286 1.350 . S
N1284 S1282 1.610 . S
N1284 C1285 1.351 . S
C1285 C1279 1.428 . S
C1285 N1284 1.351 . S
C1285 C1286 1.434 . S
C1286 C1277 1.429 . S
C1286 N1283 1.350 . S
C1286 C1285 1.434 . S
C1287 C1288 1.369 . S
C1287 C1289 1.419 . S
C1287 H1291 0.930 . S
C1288 C1287 1.369 . S
C1288 C1297 1.436 . S
C1289 C1287 1.419 . S
C1289 C1290 1.363 1_545 S
C1289 H1292 0.929 . S
C1290 C1289 1.363 1_565 S
C1290 C1296 1.428 . S
H1291 C1287 0.930 . S
H1292 C1289 0.929 . S
S1293 N1294 1.613 . S
S1293 N1295 1.610 . S
N1294 S1293 1.613 . S
N1294 C1297 1.347 1_565 S
N1295 S1293 1.610 . S
N1295 C1296 1.351 . S
C1296 C1290 1.428 . S
C1296 N1295 1.351 . S
C1296 C1297 1.429 1_565 S
C1297 C1288 1.436 . S
C1297 N1294 1.347 1_545 S
C1297 C1296 1.429 1_545 S
C1298 C1299 1.369 . S
C1298 C1300 1.419 . S
C1298 H1302 0.930 . S
C1299 C1298 1.369 . S
C1299 C1308 1.429 1_545 S
C1300 C1298 1.419 . S
C1300 C1301 1.363 1_545 S
C1300 H1303 0.929 . S
C1301 C1300 1.363 1_565 S
C1301 C1307 1.428 . S
H1302 C1298 0.930 . S
H1303 C1300 0.929 . S
S1304 N1305 1.613 . S
S1304 N1306 1.610 . S
N1305 S1304 1.613 . S
N1305 C1308 1.350 . S
N1306 S1304 1.610 . S
N1306 C1307 1.351 . S
C1307 C1301 1.428 . S
C1307 N1306 1.351 . S
C1307 C1308 1.434 . S
C1308 C1299 1.429 1_565 S
C1308 N1305 1.350 . S
C1308 C1307 1.434 . S
C1309 C1310 1.369 . S
C1309 C1311 1.419 . S
C1309 H1313 0.930 . S
C1310 C1309 1.369 . S
C1310 C1319 1.429 . S
C1311 C1309 1.419 . S
C1311 C1312 1.363 . S
C1311 H1314 0.929 . S
C1312 C1311 1.363 . S
C1312 C1318 1.428 . S
H1313 C1309 0.930 . S
H1314 C1311 0.929 . S
S1315 N1316 1.613 . S
S1315 N1317 1.610 . S
N1316 S1315 1.613 . S
N1316 C1319 1.350 . S
N1317 S1315 1.610 . S
N1317 C1318 1.351 . S
C1318 C1312 1.428 . S
C1318 N1317 1.351 . S
C1318 C1319 1.434 . S
C1319 C1310 1.429 . S
C1319 N1316 1.350 . S
C1319 C1318 1.434 . S
C529 C4 1.181 . S
C531 C338 1.189 . S
C540 C268 1.175 . S
C542 C26 1.184 . S
C551 C294 1.184 . S
C553 C48 1.177 . S
C562 C70 1.189 . S
C564 C316 1.177 . S
C573 C96 1.190 . S
C575 C202 1.184 . S
C584 C118 1.190 . S
C586 C224 1.183 . S
C595 C140 1.191 . S
C597 C246 1.177 . S
C606 C162 1.188 . S
C608 C184 1.185 . S
C617 C356 1.180 . S
C619 C448 1.179 . S
C628 C382 1.187 . S
C630 C510 1.177 . S
C639 C400 1.179 . S
C641 C470 1.180 . S
C650 C422 1.175 . S
C652 C488 1.187 . S
C661 C466 1.251 . S
C663 C9 1.247 . S
C672 C31 1.249 . S
C674 C492 1.252 . S
C683 C53 1.241 . S
C685 C360 1.257 . S
C694 C75 1.242 . S
C696 C514 1.257 . S
C705 C426 1.253 1_545 S
C707 C93 1.247 . S
C716 C444 1.253 . S
C718 C115 1.247 . S
C727 C137 1.249 . S
C729 C378 1.252 1_565 S
C738 C159 1.248 . S
C740 C404 1.251 . S
C749 C181 1.242 . S
C751 C92 1.257 . S
C760 C207 1.240 . S
C762 C114 1.248 . S
C771 C229 1.246 . S
C773 C136 1.249 1_556 S
C782 C251 1.237 . S
C784 C158 1.249 . S
C793 C8 1.258 . S
C795 C273 1.242 . S
C804 C291 1.248 . S
C806 C30 1.253 . S
C815 C313 1.244 . S
C817 C52 1.248 1_554 S
C826 C335 1.238 . S
C828 C74 1.256 . S
C837 C312 1.249 . S
C839 C361 1.238 . S
C848 C228 1.255 1_655 S
C850 C379 1.246 . S
C859 C405 1.245 . S
C861 C250 1.256 . S
C870 C180 1.257 . S
C872 C427 1.239 . S
C881 C445 1.248 . S
C883 C206 1.250 . S
C892 C272 1.251 1_455 S
C894 C467 1.247 . S
C903 C290 1.258 . S
C905 C493 1.240 . S
C914 C334 1.246 . S
C916 C515 1.242 . S
C925 C401 1.658 . S
C927 C6 1.635 . S
C936 C28 1.636 . S
C938 C423 1.662 . S
C947 C449 1.655 . S
C949 C50 1.633 . S
C958 C72 1.628 . S
C960 C383 1.654 . S
C969 C489 1.663 1_545 S
C971 C95 1.633 . S
C980 C357 1.658 . S
C982 C117 1.628 . S
C991 C511 1.656 1_565 S
C993 C139 1.627 . S
C1002 C471 1.659 . S
C1004 C161 1.635 . S
C1013 C203 1.663 . S
C1015 C183 1.635 . S
C1024 C225 1.660 . S
C1026 C204 1.629 . S
C1035 C226 1.634 . S
C1037 C247 1.662 1_556 S
C1046 C248 1.626 . S
C1048 C185 1.655 . S
C1057 C339 1.663 . S
C1059 C270 1.635 . S
C1068 C269 1.659 . S
C1070 C293 1.629 . S
C1079 C315 1.630 . S
C1081 C295 1.660 1_554 S
C1090 C337 1.637 . S
C1092 C317 1.661 . S
C1101 C71 1.653 . S
C1103 C358 1.627 . S
C1112 C119 1.661 1_655 S
C1114 C381 1.636 . S
C1123 C141 1.660 . S
C1125 C402 1.629 . S
C1134 C163 1.653 . S
C1136 C424 1.630 . S
C1145 C97 1.657 . S
C1147 C447 1.634 . S
C1156 C27 1.662 1_455 S
C1158 C469 1.632 . S
C1167 C49 1.661 . S
C1169 C490 1.636 . S
C1178 C512 1.626 . S
C1180 C5 1.654 . S
C1189 C7 1.511 . S
C1191 C205 1.512 . S
C1200 C227 1.512 . S
C1202 C29 1.513 . S
C1211 C51 1.513 . S
C1213 C249 1.513 . S
C1222 C73 1.511 . S
C1224 C182 1.512 . S
C1233 C94 1.514 . S
C1235 C336 1.513 . S
C1244 C271 1.512 . S
C1246 C116 1.513 . S
C1255 C138 1.511 . S
C1257 C292 1.511 . S
C1266 C160 1.514 . S
C1268 C314 1.513 . S
C1277 C359 1.512 . S
C1279 C403 1.511 . S
C1288 C380 1.513 . S
C1290 C491 1.513 . S
C1299 C513 1.510 . S
C1301 C425 1.511 . S
C1310 C446 1.511 . S
C1312 C468 1.512 . S
