# Generated by pormake.
# Topology fcp, (5)-cn, num edge types: 1
# Building blocks:
#     Node 0, Type 0, BuildingBlock: BEQFEK_clean_sbu_0, # of connection points: 5
#     Node 1, Type 0, BuildingBlock: BEQFEK_clean_sbu_0, # of connection points: 5
#     Node 2, Type 0, BuildingBlock: BEQFEK_clean_sbu_0, # of connection points: 5
#     Node 3, Type 0, BuildingBlock: BEQFEK_clean_sbu_0, # of connection points: 5
#     Node 4, Type 0, BuildingBlock: BEQFEK_clean_sbu_0, # of connection points: 5
#     Node 5, Type 0, BuildingBlock: BEQFEK_clean_sbu_0, # of connection points: 5
#     Node 6, Type 0, BuildingBlock: BEQFEK_clean_sbu_0, # of connection points: 5
#     Node 7, Type 0, BuildingBlock: BEQFEK_clean_sbu_0, # of connection points: 5
#     Node 8, Type 0, BuildingBlock: BEQFEK_clean_sbu_0, # of connection points: 5
#     Node 9, Type 0, BuildingBlock: BEQFEK_clean_sbu_0, # of connection points: 5
#     Node 10, Type 0, BuildingBlock: BEQFEK_clean_sbu_0, # of connection points: 5
#     Node 11, Type 0, BuildingBlock: BEQFEK_clean_sbu_0, # of connection points: 5
#     Node 12, Type 0, BuildingBlock: BEQFEK_clean_sbu_0, # of connection points: 5
#     Node 13, Type 0, BuildingBlock: BEQFEK_clean_sbu_0, # of connection points: 5
#     Node 14, Type 0, BuildingBlock: BEQFEK_clean_sbu_0, # of connection points: 5
#     Node 15, Type 0, BuildingBlock: BEQFEK_clean_sbu_0, # of connection points: 5
#     Node 16, Type 0, BuildingBlock: BEQFEK_clean_sbu_0, # of connection points: 5
#     Node 17, Type 0, BuildingBlock: BEQFEK_clean_sbu_0, # of connection points: 5
#     Node 18, Type 0, BuildingBlock: BEQFEK_clean_sbu_0, # of connection points: 5
#     Node 19, Type 0, BuildingBlock: BEQFEK_clean_sbu_0, # of connection points: 5
#     Node 20, Type 0, BuildingBlock: BEQFEK_clean_sbu_0, # of connection points: 5
#     Node 21, Type 0, BuildingBlock: BEQFEK_clean_sbu_0, # of connection points: 5
#     Node 22, Type 0, BuildingBlock: BEQFEK_clean_sbu_0, # of connection points: 5
#     Node 23, Type 0, BuildingBlock: BEQFEK_clean_sbu_0, # of connection points: 5
#     Edge 24, Type (0, 0), BuildingBlock: CIFDUS_clean_linker_0, # of connection points: 2
#     Edge 25, Type (0, 0), BuildingBlock: CIFDUS_clean_linker_0, # of connection points: 2
#     Edge 26, Type (0, 0), BuildingBlock: CIFDUS_clean_linker_0, # of connection points: 2
#     Edge 27, Type (0, 0), BuildingBlock: CIFDUS_clean_linker_0, # of connection points: 2
#     Edge 28, Type (0, 0), BuildingBlock: CIFDUS_clean_linker_0, # of connection points: 2
#     Edge 29, Type (0, 0), BuildingBlock: CIFDUS_clean_linker_0, # of connection points: 2
#     Edge 30, Type (0, 0), BuildingBlock: CIFDUS_clean_linker_0, # of connection points: 2
#     Edge 31, Type (0, 0), BuildingBlock: CIFDUS_clean_linker_0, # of connection points: 2
#     Edge 32, Type (0, 0), BuildingBlock: CIFDUS_clean_linker_0, # of connection points: 2
#     Edge 33, Type (0, 0), BuildingBlock: CIFDUS_clean_linker_0, # of connection points: 2
#     Edge 34, Type (0, 0), BuildingBlock: CIFDUS_clean_linker_0, # of connection points: 2
#     Edge 35, Type (0, 0), BuildingBlock: CIFDUS_clean_linker_0, # of connection points: 2
#     Edge 36, Type (0, 0), BuildingBlock: CIFDUS_clean_linker_0, # of connection points: 2
#     Edge 37, Type (0, 0), BuildingBlock: CIFDUS_clean_linker_0, # of connection points: 2
#     Edge 38, Type (0, 0), BuildingBlock: CIFDUS_clean_linker_0, # of connection points: 2
#     Edge 39, Type (0, 0), BuildingBlock: CIFDUS_clean_linker_0, # of connection points: 2
#     Edge 40, Type (0, 0), BuildingBlock: CIFDUS_clean_linker_0, # of connection points: 2
#     Edge 41, Type (0, 0), BuildingBlock: CIFDUS_clean_linker_0, # of connection points: 2
#     Edge 42, Type (0, 0), BuildingBlock: CIFDUS_clean_linker_0, # of connection points: 2
#     Edge 43, Type (0, 0), BuildingBlock: CIFDUS_clean_linker_0, # of connection points: 2
#     Edge 44, Type (0, 0), BuildingBlock: CIFDUS_clean_linker_0, # of connection points: 2
#     Edge 45, Type (0, 0), BuildingBlock: CIFDUS_clean_linker_0, # of connection points: 2
#     Edge 46, Type (0, 0), BuildingBlock: CIFDUS_clean_linker_0, # of connection points: 2
#     Edge 47, Type (0, 0), BuildingBlock: CIFDUS_clean_linker_0, # of connection points: 2
#     Edge 48, Type (0, 0), BuildingBlock: CIFDUS_clean_linker_0, # of connection points: 2
#     Edge 49, Type (0, 0), BuildingBlock: CIFDUS_clean_linker_0, # of connection points: 2
#     Edge 50, Type (0, 0), BuildingBlock: CIFDUS_clean_linker_0, # of connection points: 2
#     Edge 51, Type (0, 0), BuildingBlock: CIFDUS_clean_linker_0, # of connection points: 2
#     Edge 52, Type (0, 0), BuildingBlock: CIFDUS_clean_linker_0, # of connection points: 2
#     Edge 53, Type (0, 0), BuildingBlock: CIFDUS_clean_linker_0, # of connection points: 2
#     Edge 54, Type (0, 0), BuildingBlock: CIFDUS_clean_linker_0, # of connection points: 2
#     Edge 55, Type (0, 0), BuildingBlock: CIFDUS_clean_linker_0, # of connection points: 2
#     Edge 56, Type (0, 0), BuildingBlock: CIFDUS_clean_linker_0, # of connection points: 2
#     Edge 57, Type (0, 0), BuildingBlock: CIFDUS_clean_linker_0, # of connection points: 2
#     Edge 58, Type (0, 0), BuildingBlock: CIFDUS_clean_linker_0, # of connection points: 2
#     Edge 59, Type (0, 0), BuildingBlock: CIFDUS_clean_linker_0, # of connection points: 2
#     Edge 60, Type (0, 0), BuildingBlock: CIFDUS_clean_linker_0, # of connection points: 2
#     Edge 61, Type (0, 0), BuildingBlock: CIFDUS_clean_linker_0, # of connection points: 2
#     Edge 62, Type (0, 0), BuildingBlock: CIFDUS_clean_linker_0, # of connection points: 2
#     Edge 63, Type (0, 0), BuildingBlock: CIFDUS_clean_linker_0, # of connection points: 2
#     Edge 64, Type (0, 0), BuildingBlock: CIFDUS_clean_linker_0, # of connection points: 2
#     Edge 65, Type (0, 0), BuildingBlock: CIFDUS_clean_linker_0, # of connection points: 2
#     Edge 66, Type (0, 0), BuildingBlock: CIFDUS_clean_linker_0, # of connection points: 2
#     Edge 67, Type (0, 0), BuildingBlock: CIFDUS_clean_linker_0, # of connection points: 2
#     Edge 68, Type (0, 0), BuildingBlock: CIFDUS_clean_linker_0, # of connection points: 2
#     Edge 69, Type (0, 0), BuildingBlock: CIFDUS_clean_linker_0, # of connection points: 2
#     Edge 70, Type (0, 0), BuildingBlock: CIFDUS_clean_linker_0, # of connection points: 2
#     Edge 71, Type (0, 0), BuildingBlock: CIFDUS_clean_linker_0, # of connection points: 2
#     Edge 72, Type (0, 0), BuildingBlock: CIFDUS_clean_linker_0, # of connection points: 2
#     Edge 73, Type (0, 0), BuildingBlock: CIFDUS_clean_linker_0, # of connection points: 2
#     Edge 74, Type (0, 0), BuildingBlock: CIFDUS_clean_linker_0, # of connection points: 2
#     Edge 75, Type (0, 0), BuildingBlock: CIFDUS_clean_linker_0, # of connection points: 2
#     Edge 76, Type (0, 0), BuildingBlock: CIFDUS_clean_linker_0, # of connection points: 2
#     Edge 77, Type (0, 0), BuildingBlock: CIFDUS_clean_linker_0, # of connection points: 2
#     Edge 78, Type (0, 0), BuildingBlock: CIFDUS_clean_linker_0, # of connection points: 2
#     Edge 79, Type (0, 0), BuildingBlock: CIFDUS_clean_linker_0, # of connection points: 2
#     Edge 80, Type (0, 0), BuildingBlock: CIFDUS_clean_linker_0, # of connection points: 2
#     Edge 81, Type (0, 0), BuildingBlock: CIFDUS_clean_linker_0, # of connection points: 2
#     Edge 82, Type (0, 0), BuildingBlock: CIFDUS_clean_linker_0, # of connection points: 2
#     Edge 83, Type (0, 0), BuildingBlock: CIFDUS_clean_linker_0, # of connection points: 2
# Relax obj value: 0.278
# Max RMSD: 0.212
# Mean RMSD: 0.212
data_MOF--net-fcp--node1-BEQFEK_clean_sbu_0--edge1-CIFDUS_clean_linker_0
_symmetry_space_group_name_H-M    P1
_symmetry_Int_Tables_number       1
_symmetry_cell_setting            triclinic
loop_
_symmetry_equiv_pos_as_xyz
'x, y, z'
_cell_length_a     46.024493
_cell_length_b     46.042729
_cell_length_c     46.040599
_cell_angle_alpha  90.024764
_cell_angle_beta   90.031087
_cell_angle_gamma 89.995672
loop_
_atom_site_label
_atom_site_type_symbol
_atom_site_fract_x
_atom_site_fract_y
_atom_site_fract_z
_atom_type_partial_charge
Co0 Co 0.03416 0.33978 0.16019 0.0
Co1 Co 0.09694 0.33451 0.13431 0.0
C2 C 0.0693 0.28696 0.17018 0.0
O3 O 0.04526 0.30031 0.17288 0.0
O4 O 0.09028 0.29799 0.15598 0.0
C5 C 0.98992 0.34065 0.20043 0.0
O6 O 0.01028 0.32604 0.21409 0.0
C7 C 0.14149 0.30414 0.10177 0.0
C8 C 0.17627 0.33688 0.09755 0.0
C9 C 0.16956 0.3081 0.09174 0.0
N10 N 0.13214 0.32921 0.11334 0.0
N11 N 0.1529 0.34884 0.11051 0.0
C12 C 0.12336 0.27728 0.09954 0.0
H13 H 0.12747 0.26331 0.11866 0.0
H14 H 0.09993 0.28299 0.09915 0.0
H15 H 0.12912 0.26481 0.07971 0.0
C16 C 0.02 0.34763 0.09738 0.0
N17 N 0.03896 0.34415 0.11944 0.0
N18 N 0.06548 0.34288 0.10884 0.0
C19 C 0.06432 0.34605 0.07978 0.0
C20 C 0.03544 0.3489 0.0714 0.0
C21 C 0.98772 0.34758 0.10113 0.0
H22 H 0.98157 0.33403 0.12006 0.0
H23 H 0.97669 0.3393 0.08134 0.0
H24 H 0.98028 0.37013 0.10524 0.0
O25 O 0.05852 0.36772 0.18196 0.0
O26 O 0.10303 0.36525 0.16371 0.0
H27 H 0.08538 0.35747 0.03931 0.0
H28 H 0.09885 0.32509 0.0569 0.0
C29 C 0.09053 0.3474 0.06058 0.0
H30 H 0.10782 0.3603 0.07127 0.0
H31 H 0.15144 0.37012 0.1182 0.0
O32 O 0.99435 0.34834 0.17425 0.0
C33 C 0.08497 0.37571 0.18183 0.0
Co34 Co 0.84447 0.45015 0.33268 0.0
Co35 Co 0.82918 0.39081 0.36311 0.0
C36 C 0.78768 0.42132 0.3222 0.0
O37 O 0.80494 0.44252 0.31824 0.0
O38 O 0.79436 0.40026 0.33891 0.0
C39 C 0.85344 0.49054 0.28962 0.0
O40 O 0.84023 0.46946 0.27563 0.0
C41 C 0.79735 0.34131 0.38893 0.0
C42 C 0.83059 0.32251 0.41799 0.0
C43 C 0.80186 0.31959 0.40948 0.0
N44 N 0.82184 0.35709 0.38657 0.0
N45 N 0.84179 0.34526 0.40349 0.0
C46 C 0.77205 0.34447 0.36872 0.0
H47 H 0.77996 0.34959 0.3466 0.0
H48 H 0.75799 0.36249 0.37636 0.0
H49 H 0.75914 0.32422 0.36717 0.0
C50 C 0.84942 0.46901 0.39428 0.0
N51 N 0.84531 0.44834 0.37395 0.0
N52 N 0.83874 0.42365 0.38681 0.0
C53 C 0.83832 0.42792 0.41582 0.0
C54 C 0.84508 0.4568 0.42156 0.0
C55 C 0.85516 0.50023 0.38736 0.0
H56 H 0.87798 0.50254 0.37995 0.0
H57 H 0.84082 0.50729 0.36932 0.0
H58 H 0.85156 0.51441 0.40651 0.0
O59 O 0.87072 0.42156 0.31456 0.0
O60 O 0.8616 0.37996 0.33693 0.0
H61 H 0.85115 0.38944 0.43802 0.0
H62 H 0.82982 0.4129 0.45997 0.0
C63 C 0.83242 0.4045 0.43763 0.0
H64 H 0.81262 0.3923 0.43139 0.0
H65 H 0.86318 0.35264 0.40501 0.0
O66 O 0.85747 0.48799 0.31685 0.0
C67 C 0.87545 0.39461 0.31807 0.0
Co68 Co 0.95966 0.6512 0.17056 0.0
Co69 Co 0.90123 0.65914 0.13623 0.0
C70 C 0.92138 0.701 0.18301 0.0
O71 O 0.94531 0.68789 0.18729 0.0
O72 O 0.90313 0.69179 0.16438 0.0
C73 C 0.01293 0.66011 0.2027 0.0
O74 O 0.00527 0.68759 0.20265 0.0
C75 C 0.86076 0.69381 0.10246 0.0
C76 C 0.82888 0.66151 0.08693 0.0
C77 C 0.83493 0.69103 0.08718 0.0
N78 N 0.86933 0.66732 0.11115 0.0
N79 N 0.85032 0.64803 0.10163 0.0
C80 C 0.878 0.72089 0.10757 0.0
H81 H 0.90143 0.7156 0.10981 0.0
H82 H 0.87482 0.73652 0.08949 0.0
H83 H 0.87068 0.73126 0.128 0.0
C84 C 0.98306 0.65275 0.10991 0.0
N85 N 0.96102 0.65307 0.1292 0.0
N86 N 0.9363 0.65543 0.11497 0.0
C87 C 0.94176 0.65596 0.08624 0.0
C88 C 0.97153 0.65435 0.08204 0.0
C89 C 0.01442 0.6512 0.11821 0.0
H90 H 0.01828 0.63111 0.13095 0.0
H91 H 0.01982 0.6699 0.13244 0.0
H92 H 0.02875 0.65133 0.09882 0.0
O93 O 0.9332 0.61989 0.18415 0.0
O94 O 0.8927 0.62331 0.15811 0.0
H95 H 0.90126 0.64346 0.06707 0.0
H96 H 0.92791 0.65618 0.04117 0.0
C97 C 0.91895 0.65936 0.0633 0.0
H98 H 0.90959 0.6815 0.06467 0.0
H99 H 0.85162 0.62577 0.10574 0.0
O100 O 0.99777 0.64182 0.18856 0.0
C101 C 0.90783 0.61092 0.17766 0.0
Co102 Co 0.15668 0.52639 0.329 0.0
Co103 Co 0.17114 0.58895 0.35182 0.0
C104 C 0.21071 0.55621 0.3109 0.0
O105 O 0.19434 0.53404 0.31052 0.0
O106 O 0.20419 0.57853 0.32589 0.0
C107 C 0.16213 0.4693 0.30546 0.0
O108 O 0.19009 0.47447 0.30782 0.0
C109 C 0.20885 0.63247 0.37835 0.0
C110 C 0.17861 0.66841 0.38797 0.0
C111 C 0.20766 0.66057 0.38904 0.0
N112 N 0.18186 0.62414 0.37098 0.0
N113 N 0.16381 0.64566 0.37696 0.0
C114 C 0.23506 0.61342 0.37611 0.0
H115 H 0.24566 0.61706 0.35483 0.0
H116 H 0.2287 0.59022 0.37767 0.0
H117 H 0.25095 0.61877 0.39346 0.0
C118 C 0.15545 0.51425 0.39258 0.0
N119 N 0.15856 0.53228 0.36976 0.0
N120 N 0.1634 0.55878 0.37934 0.0
C121 C 0.16279 0.5586 0.40863 0.0
C122 C 0.15792 0.53029 0.41817 0.0
C123 C 0.15186 0.48208 0.38963 0.0
H124 H 0.16331 0.47425 0.36995 0.0
H125 H 0.16048 0.47057 0.40897 0.0
H126 H 0.12842 0.47695 0.38724 0.0
O127 O 0.12775 0.55247 0.31093 0.0
O128 O 0.13692 0.59705 0.32664 0.0
H129 H 0.15231 0.6032 0.4166 0.0
H130 H 0.15627 0.58185 0.44907 0.0
C131 C 0.16488 0.58544 0.42687 0.0
H132 H 0.18795 0.59231 0.42828 0.0
H133 H 0.1415 0.64505 0.37293 0.0
O134 O 0.14418 0.48712 0.3166 0.0
C135 C 0.12213 0.57953 0.31114 0.0
Co136 Co 0.02896 0.65017 0.82996 0.0
Co137 Co 0.08909 0.67267 0.85444 0.0
C138 C 0.0513 0.70868 0.81456 0.0
O139 O 0.03207 0.68903 0.81269 0.0
O140 O 0.0739 0.70516 0.83014 0.0
C141 C 0.97398 0.64694 0.80125 0.0
O142 O 0.97864 0.67469 0.79668 0.0
C143 C 0.13621 0.71212 0.8735 0.0
C144 C 0.15983 0.68503 0.90515 0.0
C145 C 0.15875 0.71286 0.89367 0.0
N146 N 0.12356 0.68575 0.87442 0.0
N147 N 0.13849 0.6694 0.89268 0.0
C148 C 0.12966 0.73426 0.85064 0.0
H149 H 0.12331 0.72336 0.83016 0.0
H150 H 0.11162 0.74829 0.85824 0.0
H151 H 0.14893 0.74786 0.84575 0.0
C152 C 0.0159 0.64561 0.89274 0.0
N153 N 0.03424 0.65166 0.87079 0.0
N154 N 0.05921 0.66082 0.88147 0.0
C155 C 0.05728 0.66103 0.9108 0.0
C156 C 0.02982 0.65124 0.91894 0.0
C157 C 0.98507 0.63624 0.88837 0.0
H158 H 0.98474 0.61297 0.88212 0.0
H159 H 0.97519 0.64886 0.87038 0.0
H160 H 0.97195 0.63928 0.90835 0.0
O161 O 0.05847 0.6255 0.81145 0.0
O162 O 0.10119 0.64042 0.82787 0.0
H163 H 0.09806 0.65157 0.93046 0.0
H164 H 0.07478 0.67195 0.95346 0.0
C165 C 0.08173 0.66921 0.93066 0.0
H166 H 0.09196 0.68963 0.92308 0.0
H167 H 0.13411 0.64753 0.89664 0.0
O168 O 0.99139 0.63282 0.81745 0.0
C169 C 0.08603 0.62373 0.81179 0.0
Co170 Co 0.1757 0.47107 0.67224 0.0
Co171 Co 0.18541 0.4118 0.63914 0.0
C172 C 0.22959 0.43565 0.68112 0.0
O173 O 0.21416 0.45797 0.68661 0.0
O174 O 0.22129 0.41654 0.66285 0.0
C175 C 0.18173 0.52312 0.70739 0.0
O176 O 0.20848 0.51426 0.71189 0.0
C177 C 0.2108 0.35999 0.61094 0.0
C178 C 0.17634 0.34785 0.5798 0.0
C179 C 0.20403 0.3404 0.58893 0.0
N180 N 0.18863 0.37879 0.61381 0.0
N181 N 0.1679 0.37106 0.59548 0.0
C182 C 0.23612 0.35889 0.63134 0.0
H183 H 0.22877 0.36391 0.6537 0.0
H184 H 0.25238 0.37537 0.62467 0.0
H185 H 0.24643 0.33713 0.63167 0.0
C186 C 0.17089 0.49265 0.61146 0.0
N187 N 0.17425 0.47105 0.63098 0.0
N188 N 0.1786 0.4464 0.61707 0.0
C189 C 0.17858 0.45174 0.58824 0.0
C190 C 0.17324 0.48103 0.58372 0.0
C191 C 0.16571 0.52368 0.61949 0.0
H192 H 0.1474 0.52498 0.6351 0.0
H193 H 0.18531 0.53235 0.63055 0.0
H194 H 0.16077 0.53716 0.60013 0.0
O195 O 0.14633 0.44476 0.68872 0.0
O196 O 0.15292 0.4028 0.66617 0.0
H197 H 0.1673 0.41752 0.55901 0.0
H198 H 0.19523 0.44115 0.54562 0.0
C199 C 0.18679 0.43016 0.56534 0.0
H200 H 0.20372 0.4152 0.57362 0.0
H201 H 0.14797 0.38172 0.59361 0.0
O202 O 0.16563 0.50927 0.68967 0.0
C203 C 0.13976 0.41822 0.68496 0.0
Co204 Co 0.97934 0.3298 0.81686 0.0
Co205 Co 0.91944 0.32054 0.84832 0.0
C206 C 0.94409 0.27697 0.80588 0.0
O207 O 0.96713 0.29149 0.80112 0.0
O208 O 0.92485 0.28598 0.82354 0.0
C209 C 0.03176 0.32434 0.78301 0.0
O210 O 0.02239 0.2979 0.77782 0.0
C211 C 0.87736 0.28707 0.88131 0.0
C212 C 0.84265 0.31891 0.89011 0.0
C213 C 0.84978 0.28981 0.89286 0.0
N214 N 0.8861 0.31317 0.87171 0.0
N215 N 0.86541 0.33226 0.8774 0.0
C216 C 0.89558 0.26019 0.88047 0.0
H217 H 0.91875 0.26564 0.87668 0.0
H218 H 0.89333 0.24812 0.90122 0.0
H219 H 0.88784 0.24581 0.86288 0.0
C220 C 0.99892 0.33454 0.87862 0.0
N221 N 0.97818 0.3309 0.85826 0.0
N222 N 0.95289 0.32776 0.87124 0.0
C223 C 0.95665 0.32948 0.9002 0.0
C224 C 0.98597 0.33387 0.90593 0.0
C225 C 0.03036 0.33909 0.87178 0.0
H226 H 0.03252 0.35633 0.8551 0.0
H227 H 0.03942 0.31878 0.86246 0.0
H228 H 0.04296 0.34528 0.89137 0.0
O229 O 0.95296 0.35931 0.80027 0.0
O230 O 0.91045 0.35346 0.82221 0.0
H231 H 0.91492 0.34041 0.91753 0.0
H232 H 0.94027 0.32723 0.94453 0.0
C233 C 0.93278 0.32481 0.92181 0.0
H234 H 0.92399 0.30258 0.91916 0.0
H235 H 0.8663 0.35414 0.87149 0.0
O236 O 0.01791 0.34038 0.80074 0.0
C237 C 0.92646 0.36634 0.80372 0.0
Co238 Co 0.83717 0.52508 0.67118 0.0
Co239 Co 0.81439 0.58257 0.64211 0.0
C240 C 0.7803 0.55201 0.68793 0.0
O241 O 0.79982 0.5327 0.69095 0.0
O242 O 0.78259 0.57204 0.66904 0.0
C243 C 0.83574 0.46904 0.69777 0.0
O244 O 0.80746 0.47277 0.69672 0.0
C245 C 0.77876 0.63144 0.62128 0.0
C246 C 0.80407 0.64668 0.5835 0.0
C247 C 0.77825 0.65119 0.59837 0.0
N248 N 0.80299 0.61526 0.61906 0.0
N249 N 0.81837 0.62501 0.5969 0.0
C250 C 0.75881 0.63028 0.64695 0.0
H251 H 0.77124 0.62465 0.66678 0.0
H252 H 0.74203 0.61337 0.64326 0.0
H253 H 0.74809 0.65151 0.65074 0.0
C254 C 0.83826 0.50601 0.60958 0.0
N255 N 0.83375 0.52635 0.63016 0.0
N256 N 0.82332 0.55002 0.61788 0.0
C257 C 0.82001 0.54498 0.58917 0.0
C258 C 0.82994 0.51731 0.58297 0.0
C259 C 0.84894 0.47596 0.61567 0.0
H260 H 0.83242 0.46423 0.62872 0.0
H261 H 0.85312 0.46378 0.59528 0.0
H262 H 0.86913 0.47712 0.62879 0.0
O263 O 0.86422 0.55447 0.68565 0.0
O264 O 0.84812 0.59545 0.66617 0.0
H265 H 0.7948 0.55225 0.55027 0.0
H266 H 0.78766 0.57731 0.57951 0.0
C267 C 0.80484 0.56475 0.56828 0.0
H268 H 0.8209 0.57982 0.55857 0.0
H269 H 0.83854 0.61668 0.59077 0.0
O270 O 0.85225 0.4877 0.68589 0.0
C271 C 0.86568 0.58185 0.6827 0.0
Co272 Co 0.16542 0.03842 0.34103 0.0
Co273 Co 0.13624 0.09708 0.32264 0.0
C274 C 0.17841 0.06746 0.28376 0.0
O275 O 0.18191 0.04656 0.30154 0.0
O276 O 0.16132 0.08839 0.28939 0.0
C277 C 0.19137 0.98202 0.33619 0.0
O278 O 0.18849 0.98646 0.30816 0.0
C279 C 0.10673 0.14127 0.28757 0.0
C280 C 0.08652 0.16909 0.32103 0.0
C281 C 0.09007 0.1661 0.2913 0.0
N282 N 0.113 0.13026 0.31385 0.0
N283 N 0.10076 0.14692 0.33378 0.0
C284 C 0.1149 0.127 0.25952 0.0
H285 H 0.11552 0.10308 0.26214 0.0
H286 H 0.09924 0.13258 0.24205 0.0
H287 H 0.13684 0.13455 0.25306 0.0
C288 C 0.10242 0.02325 0.35107 0.0
N289 N 0.12394 0.04108 0.34214 0.0
N290 N 0.11229 0.0648 0.33139 0.0
C291 C 0.08324 0.06206 0.33096 0.0
C292 C 0.07555 0.03598 0.34438 0.0
C293 C 0.1079 0.99569 0.36738 0.0
H294 H 0.12939 0.99652 0.37825 0.0
H295 H 0.10793 0.9772 0.35191 0.0
H296 H 0.09077 0.99204 0.38393 0.0
O297 O 0.18278 0.06655 0.36783 0.0
O298 O 0.16136 0.10813 0.35629 0.0
H299 H 0.05795 0.10107 0.32837 0.0
H300 H 0.04386 0.07132 0.30676 0.0
C301 C 0.06386 0.08234 0.31441 0.0
H302 H 0.07538 0.09056 0.29502 0.0
H303 H 0.10228 0.14324 0.35609 0.0
O304 O 0.18072 0.00034 0.35389 0.0
C305 C 0.1793 0.09365 0.37164 0.0
Co306 Co 0.53734 0.33713 0.16125 0.0
Co307 Co 0.5991 0.36518 0.16872 0.0
C308 C 0.57137 0.32836 0.21518 0.0
O309 O 0.54822 0.32455 0.20061 0.0
O310 O 0.5922 0.34357 0.20526 0.0
C311 C 0.48241 0.30884 0.1709 0.0
O312 O 0.49005 0.30966 0.19838 0.0
C313 C 0.64224 0.39884 0.19996 0.0
C314 C 0.6777 0.40338 0.16803 0.0
C315 C 0.67036 0.40911 0.19668 0.0
N316 N 0.63357 0.38719 0.17468 0.0
N317 N 0.65471 0.39026 0.15552 0.0
C318 C 0.6234 0.40069 0.22637 0.0
H319 H 0.60017 0.40186 0.21994 0.0
H320 H 0.62925 0.41994 0.23968 0.0
H321 H 0.62647 0.38094 0.23973 0.0
C322 C 0.5215 0.39928 0.15232 0.0
N323 N 0.541 0.37798 0.15705 0.0
N324 N 0.56709 0.38949 0.15922 0.0
C325 C 0.56512 0.41842 0.15536 0.0
C326 C 0.53612 0.42573 0.15108 0.0
C327 C 0.48939 0.39438 0.15096 0.0
H328 H 0.48324 0.38881 0.12833 0.0
H329 H 0.48323 0.37595 0.16518 0.0
H330 H 0.47727 0.4141 0.15768 0.0
O331 O 0.56307 0.31632 0.13385 0.0
O332 O 0.60688 0.33591 0.13827 0.0
H333 H 0.60875 0.42802 0.14227 0.0
H334 H 0.58532 0.45933 0.14385 0.0
C335 C 0.59077 0.4384 0.15445 0.0
H336 H 0.59832 0.44268 0.17694 0.0
H337 H 0.65384 0.38247 0.13424 0.0
O338 O 0.49809 0.32171 0.15213 0.0
C339 C 0.58982 0.31733 0.12694 0.0
Co340 Co 0.83107 0.96384 0.33503 0.0
Co341 Co 0.85496 0.9012 0.32287 0.0
C342 C 0.82163 0.93343 0.2778 0.0
O343 O 0.81882 0.95567 0.29405 0.0
O344 O 0.83507 0.9109 0.28644 0.0
C345 C 0.79255 0.0096 0.33767 0.0
O346 O 0.77845 0.9909 0.32136 0.0
C347 C 0.88151 0.85108 0.29375 0.0
C348 C 0.89766 0.82513 0.33074 0.0
C349 C 0.89561 0.82541 0.30073 0.0
N350 N 0.87515 0.8652 0.31849 0.0
N351 N 0.88494 0.84962 0.34053 0.0
C352 C 0.8762 0.86318 0.26405 0.0
H353 H 0.87941 0.88704 0.26416 0.0
H354 H 0.89107 0.85343 0.2478 0.0
H355 H 0.85343 0.85853 0.25765 0.0
C356 C 0.89356 0.97341 0.35023 0.0
N357 N 0.87135 0.95669 0.34106 0.0
N358 N 0.88151 0.93132 0.33292 0.0
C359 C 0.91072 0.93184 0.33414 0.0
C360 C 0.91975 0.95838 0.34594 0.0
C361 C 0.88895 0.00228 0.36446 0.0
H362 H 0.86717 0.0031 0.37471 0.0
H363 H 0.89 0.01965 0.34779 0.0
H364 H 0.90569 0.00633 0.38134 0.0
O365 O 0.80822 0.93933 0.36071 0.0
O366 O 0.82446 0.89465 0.3534 0.0
H367 H 0.93425 0.89173 0.33596 0.0
H368 H 0.94971 0.91836 0.31144 0.0
C369 C 0.92921 0.90907 0.32 0.0
H370 H 0.91746 0.89928 0.30147 0.0
H371 H 0.88287 0.85568 0.36228 0.0
O372 O 0.81839 0.00362 0.3455 0.0
C373 C 0.80734 0.91234 0.36607 0.0
Co374 Co 0.46486 0.67694 0.16156 0.0
Co375 Co 0.40766 0.64121 0.17125 0.0
C376 C 0.42923 0.68638 0.21403 0.0
O377 O 0.45225 0.69187 0.19978 0.0
O378 O 0.41093 0.66771 0.20503 0.0
C379 C 0.51733 0.71058 0.16835 0.0
O380 O 0.50967 0.71198 0.19579 0.0
C381 C 0.36821 0.60703 0.20614 0.0
C382 C 0.33309 0.59626 0.17536 0.0
C383 C 0.34081 0.59482 0.20442 0.0
N384 N 0.37619 0.61579 0.17953 0.0
N385 N 0.35535 0.6088 0.16105 0.0
C386 C 0.38678 0.60985 0.23267 0.0
H387 H 0.40983 0.61347 0.22661 0.0
H388 H 0.38487 0.58997 0.24618 0.0
H389 H 0.37925 0.62837 0.24594 0.0
C390 C 0.48902 0.61672 0.15801 0.0
N391 N 0.4668 0.63554 0.16113 0.0
N392 N 0.4426 0.62075 0.16475 0.0
C393 C 0.4485 0.59214 0.16374 0.0
C394 C 0.47814 0.58855 0.15941 0.0
C395 C 0.51989 0.62577 0.15348 0.0
H396 H 0.52099 0.64168 0.13542 0.0
H397 H 0.5279 0.6368 0.17337 0.0
H398 H 0.53406 0.60694 0.14844 0.0
O399 O 0.43668 0.69179 0.13254 0.0
O400 O 0.39701 0.66472 0.13712 0.0
H401 H 0.40812 0.5716 0.15325 0.0
H402 H 0.43542 0.54677 0.16681 0.0
C403 C 0.42628 0.56892 0.16887 0.0
H404 H 0.41735 0.57132 0.19107 0.0
H405 H 0.35556 0.61411 0.13901 0.0
O406 O 0.50231 0.69536 0.15086 0.0
C407 C 0.41095 0.68517 0.12485 0.0
Co408 Co 0.16288 0.96427 0.66183 0.0
Co409 Co 0.13066 0.90558 0.67349 0.0
C410 C 0.17302 0.93204 0.71638 0.0
O411 O 0.17738 0.95472 0.70123 0.0
O412 O 0.15593 0.91214 0.70767 0.0
C413 C 0.20263 0.01159 0.65989 0.0
O414 O 0.21567 0.99641 0.68022 0.0
C415 C 0.09604 0.86782 0.70956 0.0
C416 C 0.08938 0.82932 0.68177 0.0
C417 C 0.08499 0.83981 0.70969 0.0
N418 N 0.10695 0.87335 0.68313 0.0
N419 N 0.10251 0.85046 0.6664 0.0
C420 C 0.09583 0.88944 0.73384 0.0
H421 H 0.09516 0.91186 0.725 0.0
H422 H 0.07695 0.88572 0.74836 0.0
H423 H 0.11599 0.88723 0.74675 0.0
C424 C 0.10118 0.98415 0.65503 0.0
N425 N 0.12138 0.96358 0.66034 0.0
N426 N 0.10815 0.93863 0.66471 0.0
C427 C 0.07929 0.94232 0.66186 0.0
C428 C 0.07377 0.97135 0.65591 0.0
C429 C 0.10813 0.01552 0.65031 0.0
H430 H 0.12635 0.02214 0.66464 0.0
H431 H 0.08896 0.02949 0.65463 0.0
H432 H 0.11511 0.01864 0.62746 0.0
O433 O 0.1802 0.93568 0.63424 0.0
O434 O 0.15535 0.8948 0.6404 0.0
H435 H 0.06661 0.89873 0.65139 0.0
H436 H 0.03691 0.9242 0.65213 0.0
C437 C 0.05767 0.91801 0.66269 0.0
H438 H 0.05331 0.91206 0.68562 0.0
H439 H 0.10965 0.84876 0.64495 0.0
O440 O 0.17864 0.00251 0.64957 0.0
C441 C 0.17513 0.90927 0.62767 0.0
Co442 Co 0.47318 0.3322 0.85367 0.0
Co443 Co 0.41127 0.35755 0.83983 0.0
C444 C 0.44125 0.31583 0.79988 0.0
O445 O 0.4631 0.31383 0.81661 0.0
O446 O 0.42 0.33253 0.80574 0.0
C447 C 0.52927 0.30599 0.84675 0.0
O448 O 0.52296 0.30705 0.81895 0.0
C449 C 0.36859 0.38915 0.80517 0.0
C450 C 0.33369 0.39791 0.83689 0.0
C451 C 0.34131 0.40172 0.808 0.0
N452 N 0.37655 0.37833 0.83107 0.0
N453 N 0.35561 0.38362 0.84996 0.0
C454 C 0.38767 0.38864 0.77888 0.0
H455 H 0.38317 0.36861 0.76626 0.0
H456 H 0.41088 0.38832 0.78545 0.0
H457 H 0.38341 0.40777 0.76484 0.0
C458 C 0.4876 0.39537 0.85492 0.0
N459 N 0.46876 0.37316 0.85202 0.0
N460 N 0.44247 0.38365 0.84794 0.0
C461 C 0.44357 0.41288 0.84909 0.0
C462 C 0.4723 0.42146 0.85318 0.0
C463 C 0.51975 0.39139 0.85761 0.0
H464 H 0.52661 0.37135 0.84615 0.0
H465 H 0.53162 0.41028 0.84849 0.0
H466 H 0.52549 0.3891 0.88091 0.0
O467 O 0.44726 0.31499 0.88307 0.0
O468 O 0.40307 0.33138 0.87303 0.0
H469 H 0.42171 0.45354 0.85835 0.0
H470 H 0.40994 0.43492 0.82582 0.0
C471 C 0.41723 0.43197 0.8486 0.0
H472 H 0.39944 0.42163 0.86104 0.0
H473 H 0.35625 0.37738 0.87175 0.0
O474 O 0.51245 0.31834 0.86488 0.0
C475 C 0.42009 0.31556 0.88803 0.0
Co476 Co 0.8209 0.03256 0.66174 0.0
Co477 Co 0.85052 0.0938 0.66256 0.0
C478 C 0.81217 0.07227 0.7116 0.0
O479 O 0.80774 0.04766 0.69978 0.0
O480 O 0.82806 0.09134 0.6994 0.0
C481 C 0.78569 0.98178 0.67079 0.0
O482 O 0.7786 0.99432 0.6954 0.0
C483 C 0.88723 0.13693 0.68971 0.0
C484 C 0.8951 0.16884 0.6548 0.0
C485 C 0.90081 0.1632 0.68384 0.0
N486 N 0.87395 0.1277 0.66547 0.0
N487 N 0.87882 0.14675 0.64457 0.0
C488 C 0.88813 0.11968 0.71728 0.0
H489 H 0.88539 0.09619 0.71259 0.0
H490 H 0.90893 0.1233 0.72895 0.0
H491 H 0.86999 0.1265 0.73152 0.0
C492 C 0.88254 0.01383 0.65711 0.0
N493 N 0.86187 0.0345 0.65805 0.0
N494 N 0.8743 0.06023 0.65718 0.0
C495 C 0.90335 0.05671 0.6551 0.0
C496 C 0.9096 0.02715 0.65524 0.0
C497 C 0.87627 0.98198 0.65855 0.0
H498 H 0.85931 0.97639 0.64236 0.0
H499 H 0.86756 0.97663 0.68037 0.0
H500 H 0.89601 0.96882 0.65428 0.0
O501 O 0.80181 0.05544 0.631 0.0
O502 O 0.82215 0.0991 0.6305 0.0
H503 H 0.91729 0.09888 0.64113 0.0
H504 H 0.94675 0.07434 0.64887 0.0
C505 C 0.92476 0.08122 0.65566 0.0
H506 H 0.92638 0.08983 0.67806 0.0
H507 H 0.87073 0.14485 0.62346 0.0
O508 O 0.80527 0.99311 0.65495 0.0
C509 C 0.80364 0.08099 0.62076 0.0
Co510 Co 0.52422 0.6765 0.84216 0.0
Co511 Co 0.58395 0.64777 0.8254 0.0
C512 C 0.55342 0.69056 0.78629 0.0
O513 O 0.53242 0.69363 0.80391 0.0
O514 O 0.57436 0.67333 0.79182 0.0
C515 C 0.46829 0.70311 0.83726 0.0
O516 O 0.47212 0.69956 0.80922 0.0
C517 C 0.6322 0.62386 0.79096 0.0
C518 C 0.64853 0.58866 0.81907 0.0
C519 C 0.65156 0.60071 0.79164 0.0
N520 N 0.61733 0.62443 0.81608 0.0
N521 N 0.62783 0.60385 0.83312 0.0
C522 C 0.63009 0.6471 0.76839 0.0
H523 H 0.62614 0.66837 0.77894 0.0
H524 H 0.61177 0.64199 0.7536 0.0
H525 H 0.65044 0.64891 0.75563 0.0
C526 C 0.50603 0.61485 0.84515 0.0
N527 N 0.52635 0.63554 0.84116 0.0
N528 N 0.55116 0.62324 0.83385 0.0
C529 C 0.54706 0.59421 0.83246 0.0
C530 C 0.5186 0.58797 0.84005 0.0
C531 C 0.47517 0.62099 0.85323 0.0
H532 H 0.47463 0.63622 0.87191 0.0
H533 H 0.46417 0.63179 0.83469 0.0
H534 H 0.46331 0.60079 0.85888 0.0
O535 O 0.5522 0.69271 0.86989 0.0
O536 O 0.59486 0.67337 0.85879 0.0
H537 H 0.58334 0.56588 0.83831 0.0
H538 H 0.55749 0.55319 0.81209 0.0
C539 C 0.56855 0.57285 0.82064 0.0
H540 H 0.58128 0.58279 0.80283 0.0
H541 H 0.6203 0.59967 0.85409 0.0
O542 O 0.48638 0.69198 0.85492 0.0
C543 C 0.57937 0.6904 0.87417 0.0
Co544 Co 0.34273 0.17375 0.04244 0.0
Co545 Co 0.33439 0.14734 0.1046 0.0
C546 C 0.28884 0.1849 0.07582 0.0
O547 O 0.30388 0.18795 0.05289 0.0
O548 O 0.29798 0.16968 0.09705 0.0
C549 C 0.33508 0.20202 0.98733 0.0
O550 O 0.30751 0.20305 0.99459 0.0
C551 C 0.30314 0.11235 0.14673 0.0
C552 C 0.33479 0.10733 0.18243 0.0
C553 C 0.30652 0.10057 0.17435 0.0
N554 N 0.32801 0.12558 0.13917 0.0
N555 N 0.34694 0.12238 0.16049 0.0
C556 C 0.27752 0.11001 0.12681 0.0
H557 H 0.28464 0.11139 0.10382 0.0
H558 H 0.26574 0.08928 0.13042 0.0
H559 H 0.26252 0.12838 0.13097 0.0
C560 C 0.34999 0.11148 0.0275 0.0
N561 N 0.34572 0.13307 0.04675 0.0
N562 N 0.34359 0.122 0.07303 0.0
C563 C 0.34719 0.09296 0.07136 0.0
C564 C 0.35119 0.08533 0.04245 0.0
C565 C 0.35298 0.11611 0.99549 0.0
H566 H 0.37105 0.13152 0.99136 0.0
H567 H 0.33279 0.12622 0.98702 0.0
H568 H 0.35724 0.09545 0.98382 0.0
O569 O 0.37095 0.19377 0.06756 0.0
O570 O 0.36598 0.17598 0.11202 0.0
H571 H 0.35819 0.08158 0.11513 0.0
H572 H 0.3534 0.05073 0.09132 0.0
C573 C 0.34536 0.07276 0.09676 0.0
H574 H 0.3224 0.07087 0.10372 0.0
H575 H 0.36799 0.13084 0.16025 0.0
O576 O 0.35276 0.18789 0.00317 0.0
C577 C 0.37807 0.19339 0.09424 0.0
Co578 Co 0.33983 0.84018 0.96928 0.0
Co579 Co 0.32469 0.86514 0.9077 0.0
C580 C 0.28643 0.82164 0.93672 0.0
O581 O 0.3032 0.82053 0.95864 0.0
O582 O 0.2914 0.83869 0.91552 0.0
C583 C 0.34995 0.79897 0.01007 0.0
O584 O 0.34009 0.78435 0.98763 0.0
C585 C 0.29066 0.89461 0.86302 0.0
C586 C 0.32429 0.90762 0.83135 0.0
C587 C 0.29463 0.90842 0.83651 0.0
N588 N 0.31671 0.88598 0.87292 0.0
N589 N 0.33674 0.89382 0.85393 0.0
C590 C 0.26297 0.89092 0.87964 0.0
H591 H 0.26743 0.8914 0.90333 0.0
H592 H 0.24715 0.90821 0.874 0.0
H593 H 0.25334 0.86948 0.87428 0.0
C594 C 0.33905 0.9031 0.98427 0.0
N595 N 0.33683 0.88095 0.96525 0.0
N596 N 0.33118 0.89141 0.93924 0.0
C597 C 0.32992 0.92062 0.94086 0.0
C598 C 0.33465 0.92905 0.96946 0.0
C599 C 0.34376 0.89919 0.01617 0.0
H600 H 0.33289 0.87906 0.02371 0.0
H601 H 0.3354 0.91807 0.02861 0.0
H602 H 0.3674 0.89697 0.02039 0.0
O603 O 0.37009 0.82442 0.94383 0.0
O604 O 0.35884 0.83992 0.89968 0.0
H605 H 0.34004 0.93315 0.89727 0.0
H606 H 0.33069 0.9631 0.92046 0.0
C607 C 0.32563 0.94015 0.91521 0.0
H608 H 0.30278 0.93859 0.90772 0.0
H609 H 0.3589 0.88966 0.85635 0.0
O610 O 0.35139 0.82652 0.00841 0.0
C611 C 0.37473 0.82496 0.91666 0.0
Co612 Co 0.32785 0.15449 0.54009 0.0
Co613 Co 0.35664 0.17829 0.59708 0.0
C614 C 0.31847 0.21582 0.56163 0.0
O615 O 0.31376 0.1956 0.54336 0.0
O616 O 0.33496 0.21206 0.58336 0.0
C617 C 0.28775 0.14742 0.49539 0.0
O618 O 0.27386 0.16556 0.51248 0.0
C619 C 0.37596 0.21415 0.64564 0.0
C620 C 0.41442 0.19036 0.66164 0.0
C621 C 0.39865 0.21576 0.66556 0.0
N622 N 0.37918 0.18979 0.62989 0.0
N623 N 0.4017 0.17525 0.64011 0.0
C624 C 0.34951 0.23303 0.64395 0.0
H625 H 0.33044 0.21999 0.63708 0.0
H626 H 0.35314 0.25048 0.62773 0.0
H627 H 0.34449 0.24293 0.66534 0.0
C628 C 0.39069 0.14129 0.52712 0.0
N629 N 0.36925 0.15189 0.5441 0.0
N630 N 0.38098 0.1651 0.56654 0.0
C631 C 0.41001 0.16576 0.56328 0.0
C632 C 0.41755 0.14958 0.53882 0.0
C633 C 0.38518 0.12286 0.50093 0.0
H634 H 0.36388 0.11175 0.50286 0.0
H635 H 0.38463 0.13689 0.48135 0.0
H636 H 0.40258 0.1064 0.49827 0.0
O637 O 0.30856 0.13155 0.57032 0.0
O638 O 0.32948 0.14729 0.61081 0.0
H639 H 0.4406 0.17534 0.59728 0.0
H640 H 0.44606 0.19568 0.56454 0.0
C641 C 0.42929 0.18662 0.5793 0.0
H642 H 0.41636 0.20482 0.58835 0.0
H643 H 0.40853 0.15512 0.6322 0.0
O644 O 0.3132 0.13918 0.50244 0.0
C645 C 0.31137 0.13088 0.59778 0.0
Co646 Co 0.66736 0.17222 0.97712 0.0
Co647 Co 0.67813 0.14668 0.91479 0.0
C648 C 0.72085 0.18688 0.94342 0.0
O649 O 0.7053 0.18886 0.96615 0.0
O650 O 0.71311 0.17106 0.92203 0.0
C651 C 0.67502 0.19985 0.03246 0.0
O652 O 0.70256 0.20088 0.02508 0.0
C653 C 0.70826 0.11775 0.86644 0.0
C654 C 0.6715 0.10198 0.83989 0.0
C655 C 0.70157 0.10289 0.84106 0.0
N656 N 0.68331 0.12541 0.87954 0.0
N657 N 0.66142 0.11592 0.86354 0.0
C658 C 0.73773 0.12282 0.87919 0.0
H659 H 0.73651 0.12295 0.90325 0.0
H660 H 0.75325 0.10582 0.87202 0.0
H661 H 0.74585 0.14426 0.87185 0.0
C662 C 0.66476 0.10946 0.99177 0.0
N663 N 0.66707 0.13139 0.97257 0.0
N664 N 0.67133 0.1206 0.94643 0.0
C665 C 0.67184 0.09134 0.94821 0.0
C666 C 0.66763 0.08327 0.977 0.0
C667 C 0.66031 0.11377 0.02366 0.0
H668 H 0.64325 0.1304 0.02728 0.0
H669 H 0.68077 0.12198 0.03344 0.0
H670 H 0.65395 0.09323 0.03455 0.0
O671 O 0.63772 0.19076 0.95264 0.0
O672 O 0.64502 0.17383 0.90821 0.0
H673 H 0.66184 0.07331 0.90662 0.0
H674 H 0.68139 0.04876 0.93018 0.0
C675 C 0.67912 0.07172 0.92333 0.0
H676 H 0.69987 0.0788 0.91341 0.0
H677 H 0.63957 0.11896 0.86881 0.0
O678 O 0.65732 0.18573 0.01663 0.0
C679 C 0.63137 0.19024 0.9258 0.0
Co680 Co 0.66652 0.84323 0.52486 0.0
Co681 Co 0.64113 0.8279 0.58607 0.0
C682 C 0.68231 0.78817 0.55497 0.0
O683 O 0.68449 0.80534 0.5335 0.0
O684 O 0.66588 0.79394 0.57641 0.0
C685 C 0.68937 0.8361 0.46742 0.0
O686 O 0.68651 0.80825 0.47292 0.0
C687 C 0.61281 0.79179 0.62919 0.0
C688 C 0.60172 0.82294 0.66393 0.0
C689 C 0.601 0.79369 0.65678 0.0
N690 N 0.62054 0.81852 0.62057 0.0
N691 N 0.61366 0.83714 0.6413 0.0
C692 C 0.61573 0.76524 0.61068 0.0
H693 H 0.61392 0.77111 0.58736 0.0
H694 H 0.59883 0.74898 0.61627 0.0
H695 H 0.6374 0.75544 0.61441 0.0
C696 C 0.60326 0.8485 0.51131 0.0
N697 N 0.62549 0.84277 0.52951 0.0
N698 N 0.615 0.8371 0.5555 0.0
C699 C 0.58582 0.83937 0.55475 0.0
C700 C 0.57739 0.84671 0.52678 0.0
C701 C 0.60704 0.85654 0.48008 0.0
H702 H 0.622 0.87536 0.47846 0.0
H703 H 0.6173 0.83813 0.46838 0.0
H704 H 0.58598 0.862 0.46968 0.0
O705 O 0.68469 0.87168 0.55143 0.0
O706 O 0.66732 0.86088 0.59504 0.0
H707 H 0.57194 0.84908 0.59797 0.0
H708 H 0.5431 0.83633 0.57451 0.0
C709 C 0.56638 0.8338 0.58019 0.0
H710 H 0.56998 0.81139 0.58819 0.0
H711 H 0.61772 0.85942 0.64028 0.0
O712 O 0.67948 0.85452 0.48549 0.0
C713 C 0.68371 0.87604 0.57872 0.0
Co714 Co 0.66541 0.82771 0.03021 0.0
Co715 Co 0.67359 0.85721 0.09106 0.0
C716 C 0.71817 0.81629 0.06551 0.0
O717 O 0.70365 0.81254 0.04229 0.0
O718 O 0.70901 0.83297 0.08561 0.0
C719 C 0.67192 0.79549 0.97669 0.0
O720 O 0.69905 0.7921 0.98489 0.0
C721 C 0.70482 0.89307 0.13272 0.0
C722 C 0.67206 0.90063 0.16693 0.0
C723 C 0.70079 0.90613 0.15965 0.0
N724 N 0.67982 0.88033 0.12475 0.0
N725 N 0.66024 0.88505 0.14518 0.0
C726 C 0.73133 0.89362 0.11392 0.0
H727 H 0.72503 0.89233 0.09067 0.0
H728 H 0.74418 0.91364 0.11782 0.0
H729 H 0.74502 0.87445 0.11893 0.0
C730 C 0.66126 0.88995 0.01207 0.0
N731 N 0.66425 0.86896 0.03227 0.0
N732 N 0.66634 0.8811 0.05808 0.0
C733 C 0.66398 0.91013 0.05522 0.0
C734 C 0.66106 0.91688 0.02591 0.0
C735 C 0.66014 0.88418 0.98011 0.0
H736 H 0.67302 0.86453 0.97478 0.0
H737 H 0.66856 0.90299 0.96763 0.0
H738 H 0.63726 0.88018 0.97365 0.0
O739 O 0.6357 0.81014 0.05593 0.0
O740 O 0.64069 0.83079 0.09912 0.0
H741 H 0.64965 0.92098 0.09818 0.0
H742 H 0.65198 0.95157 0.07402 0.0
C743 C 0.66241 0.93078 0.08031 0.0
H744 H 0.68468 0.9353 0.08833 0.0
H745 H 0.63895 0.87725 0.14447 0.0
O746 O 0.65524 0.81188 0.99142 0.0
C747 C 0.62815 0.81271 0.08238 0.0
Co748 Co 0.32739 0.8444 0.46706 0.0
Co749 Co 0.34962 0.83362 0.40375 0.0
C750 C 0.31205 0.79013 0.43489 0.0
O751 O 0.31123 0.80568 0.45774 0.0
O752 O 0.32626 0.79822 0.41256 0.0
C753 C 0.28829 0.85082 0.51077 0.0
O754 O 0.2733 0.83865 0.48975 0.0
C755 C 0.37994 0.80262 0.35773 0.0
C756 C 0.38813 0.83717 0.32544 0.0
C757 C 0.39232 0.80785 0.33078 0.0
N758 N 0.36894 0.82764 0.36781 0.0
N759 N 0.37382 0.84823 0.34843 0.0
C760 C 0.38016 0.77489 0.37469 0.0
H761 H 0.3602 0.76239 0.3696 0.0
H762 H 0.38027 0.7796 0.39834 0.0
H763 H 0.39937 0.76148 0.36897 0.0
C764 C 0.3914 0.84624 0.47846 0.0
N765 N 0.36817 0.84488 0.46061 0.0
N766 N 0.37726 0.84143 0.43372 0.0
C767 C 0.40654 0.84122 0.43354 0.0
C768 C 0.41657 0.84379 0.46188 0.0
C769 C 0.38931 0.84728 0.51086 0.0
H770 H 0.38862 0.87031 0.51791 0.0
H771 H 0.36907 0.83649 0.51825 0.0
H772 H 0.40841 0.8367 0.52111 0.0
O773 O 0.30698 0.87347 0.44279 0.0
O774 O 0.32215 0.866 0.3978 0.0
H775 H 0.41536 0.85338 0.38951 0.0
H776 H 0.44737 0.8465 0.41079 0.0
C777 C 0.42473 0.83936 0.40665 0.0
H778 H 0.42507 0.81661 0.39877 0.0
H779 H 0.36751 0.86986 0.35097 0.0
O780 O 0.31537 0.85503 0.50705 0.0
C781 C 0.30625 0.87952 0.41587 0.0
Co782 Co 0.66199 0.14674 0.45874 0.0
Co783 Co 0.63357 0.16988 0.40142 0.0
C784 C 0.67521 0.20609 0.43413 0.0
O785 O 0.67877 0.18618 0.45293 0.0
O786 O 0.65785 0.20302 0.41292 0.0
C787 C 0.68467 0.15106 0.51607 0.0
O788 O 0.6782 0.17863 0.51266 0.0
C789 C 0.6049 0.20755 0.35908 0.0
C790 C 0.58499 0.17574 0.32911 0.0
C791 C 0.58852 0.20525 0.3339 0.0
N792 N 0.61095 0.18064 0.36859 0.0
N793 N 0.59893 0.16172 0.35066 0.0
C794 C 0.61285 0.23469 0.37519 0.0
H795 H 0.61174 0.23086 0.39894 0.0
H796 H 0.59809 0.25287 0.3695 0.0
H797 H 0.63548 0.24086 0.36963 0.0
C798 C 0.59888 0.13691 0.473 0.0
N799 N 0.62055 0.14631 0.45562 0.0
N800 N 0.60911 0.15825 0.43235 0.0
C801 C 0.58 0.15843 0.43481 0.0
C802 C 0.57218 0.14417 0.46032 0.0
C803 C 0.604 0.1201 0.50032 0.0
H804 H 0.62483 0.10807 0.49892 0.0
H805 H 0.60542 0.13543 0.51887 0.0
H806 H 0.58599 0.10458 0.50434 0.0
O807 O 0.67983 0.12183 0.42914 0.0
O808 O 0.6595 0.13765 0.38835 0.0
H809 H 0.55527 0.1618 0.39553 0.0
H810 H 0.5401 0.18186 0.42575 0.0
C811 C 0.56052 0.17523 0.41484 0.0
H812 H 0.57162 0.19523 0.40757 0.0
H813 H 0.60038 0.13923 0.35306 0.0
O814 O 0.677 0.13296 0.49665 0.0
C815 C 0.67702 0.12087 0.40169 0.0
H816 H 0.1067 0.46084 0.2868 0.0
H817 H 0.19429 0.42903 0.276 0.0
H818 H 0.17838 0.39816 0.23589 0.0
H819 H 0.13995 0.38163 0.20263 0.0
H820 H 0.05239 0.41327 0.2139 0.0
H821 H 0.06811 0.44319 0.25476 0.0
C822 C 0.12229 0.44688 0.27598 0.0
C823 C 0.15167 0.44732 0.28442 0.0
C824 C 0.11312 0.42957 0.25262 0.0
C825 C 0.17153 0.42912 0.27001 0.0
C826 C 0.1625 0.41161 0.24691 0.0
C827 C 0.12439 0.39532 0.21384 0.0
C828 C 0.09512 0.39548 0.20502 0.0
C829 C 0.13345 0.41206 0.23769 0.0
C830 C 0.07509 0.41289 0.22014 0.0
C831 C 0.08402 0.42989 0.2436 0.0
H832 H 0.97036 0.32109 0.25228 0.0
H833 H 0.95315 0.38501 0.18591 0.0
H834 H 0.91608 0.40734 0.21669 0.0
H835 H 0.89076 0.41041 0.26357 0.0
H836 H 0.90679 0.34553 0.32927 0.0
H837 H 0.94236 0.3219 0.29763 0.0
C838 C 0.95829 0.33974 0.24442 0.0
C839 C 0.96466 0.35153 0.21696 0.0
C840 C 0.93711 0.35247 0.26223 0.0
C841 C 0.94863 0.37549 0.20694 0.0
C842 C 0.92759 0.38839 0.22461 0.0
C843 C 0.90211 0.39112 0.27098 0.0
C844 C 0.89654 0.37995 0.29887 0.0
C845 C 0.92208 0.3774 0.2525 0.0
C846 C 0.91087 0.35461 0.30796 0.0
C847 C 0.93117 0.3411 0.28988 0.0
H848 H 0.83989 0.50662 0.2347 0.0
H849 H 0.89397 0.53011 0.30765 0.0
H850 H 0.91634 0.56877 0.27891 0.0
H851 H 0.92106 0.59526 0.23282 0.0
H852 H 0.86529 0.57325 0.16072 0.0
H853 H 0.84316 0.53437 0.18936 0.0
C854 C 0.85651 0.52026 0.24437 0.0
C855 C 0.86537 0.51542 0.27322 0.0
C856 C 0.86911 0.5425 0.2278 0.0
C857 C 0.88671 0.53345 0.28551 0.0
C858 C 0.89961 0.55545 0.26905 0.0
C859 C 0.90421 0.5818 0.2233 0.0
C860 C 0.89504 0.58686 0.19458 0.0
C861 C 0.89114 0.55999 0.24011 0.0
C862 C 0.87278 0.56967 0.18274 0.0
C863 C 0.86011 0.54749 0.19911 0.0
H864 H 0.11095 0.63592 0.29596 0.0
H865 H 0.08233 0.54783 0.2809 0.0
H866 H 0.04735 0.56487 0.24513 0.0
H867 H 0.02496 0.60442 0.21781 0.0
H868 H 0.05253 0.69276 0.2328 0.0
H869 H 0.08806 0.67589 0.26855 0.0
C870 C 0.09689 0.62048 0.28505 0.0
C871 C 0.09933 0.59062 0.29123 0.0
C872 C 0.07684 0.6304 0.26418 0.0
C873 C 0.08102 0.57093 0.27665 0.0
C874 C 0.06102 0.58063 0.25606 0.0
C875 C 0.0389 0.62002 0.22866 0.0
C876 C 0.03616 0.64981 0.22249 0.0
C877 C 0.05889 0.61025 0.2495 0.0
C878 C 0.05423 0.66969 0.23705 0.0
C879 C 0.07448 0.66007 0.2576 0.0
H880 H 0.1245 0.53337 0.71633 0.0
H881 H 0.20977 0.56238 0.74232 0.0
H882 H 0.18792 0.59593 0.77737 0.0
H883 H 0.14433 0.61615 0.80146 0.0
H884 H 0.05952 0.58493 0.77589 0.0
H885 H 0.08157 0.55296 0.74022 0.0
C886 C 0.13837 0.54725 0.72939 0.0
C887 C 0.16873 0.54549 0.72654 0.0
C888 C 0.12574 0.56587 0.74992 0.0
C889 C 0.18632 0.56338 0.74399 0.0
C890 C 0.17384 0.58247 0.76414 0.0
C891 C 0.13069 0.60224 0.78821 0.0
C892 C 0.10026 0.60306 0.79151 0.0
C893 C 0.14354 0.58368 0.76753 0.0
C894 C 0.08298 0.58487 0.77399 0.0
C895 C 0.09555 0.56657 0.75342 0.0
H896 H 0.04653 0.38122 0.77822 0.0
H897 H 0.06864 0.29596 0.74608 0.0
H898 H 0.10349 0.31745 0.71229 0.0
H899 H 0.12683 0.36063 0.69107 0.0
H900 H 0.10374 0.44577 0.72308 0.0
H901 H 0.06987 0.42408 0.75739 0.0
C902 C 0.05918 0.36726 0.76407 0.0
C903 C 0.05502 0.337 0.76477 0.0
C904 C 0.07874 0.37977 0.74435 0.0
C905 C 0.07144 0.31932 0.74605 0.0
C906 C 0.09128 0.3316 0.72661 0.0
C907 C 0.11425 0.37446 0.7054 0.0
C908 C 0.11782 0.40482 0.70435 0.0
C909 C 0.09487 0.36184 0.72533 0.0
C910 C 0.10146 0.42235 0.72331 0.0
C911 C 0.08212 0.40998 0.74306 0.0
H912 H 0.8694 0.37379 0.79031 0.0
H913 H 0.95506 0.4074 0.77216 0.0
H914 H 0.93467 0.441 0.73662 0.0
H915 H 0.89272 0.46072 0.71065 0.0
H916 H 0.80699 0.42694 0.7282 0.0
H917 H 0.82735 0.39312 0.76364 0.0
C918 C 0.88356 0.38868 0.7788 0.0
C919 C 0.91367 0.38823 0.78403 0.0
C920 C 0.87177 0.4076 0.75798 0.0
C921 C 0.93179 0.40735 0.7686 0.0
C922 C 0.92017 0.4265 0.74818 0.0
C923 C 0.87847 0.4458 0.72201 0.0
C924 C 0.84836 0.4464 0.71675 0.0
C925 C 0.89024 0.42667 0.74258 0.0
C926 C 0.83026 0.42693 0.73176 0.0
C927 C 0.84185 0.40768 0.75217 0.0
H928 H 0.94233 0.66847 0.75633 0.0
H929 H 0.95768 0.59002 0.80541 0.0
H930 H 0.92646 0.56291 0.77219 0.0
H931 H 0.89601 0.56121 0.72876 0.0
H932 H 0.88029 0.63952 0.67957 0.0
H933 H 0.91101 0.66692 0.71319 0.0
C934 C 0.93861 0.64551 0.76 0.0
C935 C 0.95234 0.63131 0.78337 0.0
C936 C 0.921 0.62996 0.74056 0.0
C937 C 0.94738 0.6015 0.78764 0.0
C938 C 0.92966 0.58595 0.76856 0.0
C939 C 0.89946 0.58423 0.72514 0.0
C940 C 0.88603 0.59823 0.70148 0.0
C941 C 0.9167 0.59989 0.74476 0.0
C942 C 0.89048 0.62816 0.69748 0.0
C943 C 0.90792 0.64387 0.71678 0.0
H944 H 0.22969 0.07448 0.3953 0.0
H945 H 0.16957 0.14643 0.39722 0.0
H946 H 0.19884 0.17008 0.43477 0.0
H947 H 0.24029 0.16922 0.46838 0.0
H948 H 0.30115 0.09796 0.46536 0.0
H949 H 0.27285 0.07519 0.42656 0.0
C950 C 0.22292 0.09532 0.40396 0.0
C951 C 0.19725 0.1085 0.39379 0.0
C952 C 0.24001 0.1089 0.42523 0.0
C953 C 0.18913 0.13576 0.40481 0.0
C954 C 0.20585 0.14928 0.42627 0.0
C955 C 0.24746 0.14878 0.45911 0.0
C956 C 0.27262 0.13514 0.46989 0.0
C957 C 0.23115 0.1359 0.43682 0.0
C958 C 0.28187 0.10889 0.45742 0.0
C959 C 0.26562 0.0958 0.43536 0.0
H960 H 0.64641 0.30166 0.11947 0.0
H961 H 0.55928 0.28151 0.09101 0.0
H962 H 0.5778 0.24177 0.06133 0.0
H963 H 0.61854 0.21322 0.04293 0.0
H964 H 0.70588 0.23329 0.0707 0.0
H965 H 0.68732 0.27217 0.10173 0.0
C966 C 0.6315 0.28875 0.10657 0.0
C967 C 0.60152 0.29473 0.10731 0.0
C968 C 0.64225 0.26563 0.08979 0.0
C969 C 0.58247 0.27748 0.09078 0.0
C970 C 0.59301 0.25464 0.07389 0.0
C971 C 0.63355 0.2258 0.05605 0.0
C972 C 0.66358 0.22031 0.05447 0.0
C973 C 0.62283 0.24848 0.07331 0.0
C974 C 0.68266 0.237 0.07153 0.0
C975 C 0.67208 0.25938 0.08913 0.0
H976 H 0.70758 0.89106 0.45698 0.0
H977 H 0.71653 0.80302 0.42601 0.0
H978 H 0.75446 0.81851 0.3922 0.0
H979 H 0.78658 0.85699 0.37286 0.0
H980 H 0.77723 0.94462 0.40511 0.0
H981 H 0.73834 0.92916 0.43724 0.0
C982 C 0.71753 0.87524 0.44263 0.0
C983 C 0.70921 0.84591 0.4441 0.0
C984 C 0.73966 0.88414 0.42375 0.0
C985 C 0.72247 0.82577 0.42533 0.0
C986 C 0.74432 0.83457 0.40611 0.0
C987 C 0.77616 0.87261 0.38708 0.0
C988 C 0.78496 0.90187 0.38663 0.0
C989 C 0.75345 0.86364 0.40548 0.0
C990 C 0.77096 0.92194 0.40496 0.0
C991 C 0.74861 0.91317 0.42333 0.0
H992 H 0.33795 0.74368 0.02511 0.0
H993 H 0.3889 0.81806 0.05079 0.0
H994 H 0.41285 0.78896 0.08835 0.0
H995 H 0.42063 0.7418 0.11232 0.0
H996 H 0.368 0.66818 0.08783 0.0
H997 H 0.34346 0.69759 0.05101 0.0
C998 C 0.35416 0.75359 0.03907 0.0
C999 C 0.36184 0.78288 0.0351 0.0
C1000 C 0.36772 0.7368 0.06051 0.0
C1001 C 0.38259 0.79556 0.05352 0.0
C1002 C 0.39641 0.77889 0.07483 0.0
C1003 C 0.40389 0.73218 0.09879 0.0
C1004 C 0.39639 0.70278 0.1024 0.0
C1005 C 0.38945 0.74938 0.07818 0.0
C1006 C 0.37423 0.69073 0.08526 0.0
C1007 C 0.36019 0.70752 0.06429 0.0
H1008 H 0.23498 0.83538 0.52942 0.0
H1009 H 0.30641 0.89287 0.54887 0.0
H1010 H 0.27738 0.91646 0.58671 0.0
H1011 H 0.23071 0.92219 0.61247 0.0
H1012 H 0.16017 0.86331 0.5937 0.0
H1013 H 0.18981 0.83895 0.55708 0.0
C1014 C 0.24431 0.85293 0.54209 0.0
C1015 C 0.2727 0.86252 0.53624 0.0
C1016 C 0.22753 0.86634 0.56364 0.0
C1017 C 0.28462 0.88504 0.55305 0.0
C1018 C 0.26796 0.89867 0.57451 0.0
C1019 C 0.22183 0.9041 0.60025 0.0
C1020 C 0.19318 0.89478 0.60548 0.0
C1021 C 0.2392 0.88981 0.57963 0.0
C1022 C 0.18212 0.87095 0.58996 0.0
C1023 C 0.19905 0.857 0.56906 0.0
H1024 H 0.3636 0.29889 0.89471 0.0
H1025 H 0.44981 0.28528 0.92928 0.0
H1026 H 0.43133 0.24755 0.9614 0.0
H1027 H 0.3911 0.21823 0.97947 0.0
H1028 H 0.30455 0.23192 0.94601 0.0
H1029 H 0.32294 0.26944 0.91321 0.0
C1030 C 0.37828 0.28792 0.90951 0.0
C1031 C 0.40804 0.29501 0.90961 0.0
C1032 C 0.36759 0.26592 0.92775 0.0
C1033 C 0.4268 0.28031 0.92873 0.0
C1034 C 0.4163 0.25861 0.94703 0.0
C1035 C 0.37625 0.22912 0.96476 0.0
C1036 C 0.34651 0.22213 0.96506 0.0
C1037 C 0.38682 0.25106 0.94652 0.0
C1038 C 0.32757 0.23679 0.94611 0.0
C1039 C 0.33804 0.25837 0.92749 0.0
H1040 H 0.78216 0.13517 0.61128 0.0
H1041 H 0.77628 0.04652 0.58144 0.0
H1042 H 0.73784 0.06003 0.54748 0.0
H1043 H 0.70586 0.09689 0.52635 0.0
H1044 H 0.71054 0.1854 0.55705 0.0
H1045 H 0.74902 0.17193 0.59097 0.0
C1046 C 0.77267 0.11893 0.59708 0.0
C1047 C 0.78223 0.08998 0.59862 0.0
C1048 C 0.75005 0.1267 0.5781 0.0
C1049 C 0.76936 0.06899 0.58054 0.0
C1050 C 0.7473 0.07666 0.56121 0.0
C1051 C 0.71508 0.11322 0.54063 0.0
C1052 C 0.70532 0.14212 0.53907 0.0
C1053 C 0.73735 0.1054 0.55994 0.0
C1054 C 0.71755 0.16295 0.55779 0.0
C1055 C 0.73972 0.15533 0.57709 0.0
H1056 H 0.61501 0.78397 0.96738 0.0
H1057 H 0.70083 0.7629 0.93614 0.0
H1058 H 0.68004 0.72753 0.90226 0.0
H1059 H 0.63724 0.70211 0.88202 0.0
H1060 H 0.55189 0.72301 0.91503 0.0
H1061 H 0.57288 0.75853 0.94797 0.0
C1062 C 0.62922 0.77193 0.95294 0.0
C1063 C 0.65942 0.77626 0.95413 0.0
C1064 C 0.61722 0.75123 0.9341 0.0
C1065 C 0.67748 0.76009 0.93555 0.0
C1066 C 0.66561 0.73975 0.91629 0.0
C1067 C 0.62329 0.71423 0.89663 0.0
C1068 C 0.59301 0.70981 0.89597 0.0
C1069 C 0.63549 0.73493 0.91556 0.0
C1070 C 0.57525 0.72591 0.91495 0.0
C1071 C 0.5872 0.74637 0.93378 0.0
H1072 H 0.46972 0.29274 0.11564 0.0
H1073 H 0.44384 0.27867 0.20462 0.0
H1074 H 0.40989 0.24091 0.18902 0.0
H1075 H 0.38851 0.2109 0.15005 0.0
H1076 H 0.41532 0.22525 0.06131 0.0
H1077 H 0.44821 0.26353 0.07702 0.0
C1078 C 0.45644 0.28169 0.13165 0.0
C1079 C 0.45932 0.2886 0.16126 0.0
C1080 C 0.43741 0.25968 0.12262 0.0
C1081 C 0.44203 0.27385 0.18167 0.0
C1082 C 0.42273 0.25212 0.17278 0.0
C1083 C 0.40174 0.22224 0.1342 0.0
C1084 C 0.39949 0.21507 0.10456 0.0
C1085 C 0.42051 0.24458 0.14333 0.0
C1086 C 0.41657 0.23025 0.08427 0.0
C1087 C 0.43536 0.25225 0.09319 0.0
H1088 H 0.37704 0.80247 0.86201 0.0
H1089 H 0.42055 0.80093 0.94511 0.0
H1090 H 0.45216 0.76195 0.92827 0.0
H1091 H 0.46648 0.72745 0.89077 0.0
H1092 H 0.42358 0.72851 0.80738 0.0
H1093 H 0.39223 0.76818 0.82378 0.0
C1094 C 0.39378 0.79394 0.87623 0.0
C1095 C 0.39652 0.80468 0.90472 0.0
C1096 C 0.41154 0.77105 0.86662 0.0
C1097 C 0.41803 0.79309 0.92306 0.0
C1098 C 0.43599 0.77066 0.91353 0.0
C1099 C 0.45008 0.73609 0.87622 0.0
C1100 C 0.44721 0.72485 0.84796 0.0
C1101 C 0.43262 0.75919 0.88555 0.0
C1102 C 0.4261 0.73664 0.82931 0.0
C1103 C 0.40831 0.75945 0.8386 0.0
H1104 H 0.25073 0.0395 0.67988 0.0
H1105 H 0.18831 0.03998 0.60983 0.0
H1106 H 0.2162 0.07749 0.5849 0.0
H1107 H 0.25973 0.10792 0.58153 0.0
H1108 H 0.32168 0.10864 0.65192 0.0
H1109 H 0.29247 0.07287 0.67825 0.0
C1110 C 0.24309 0.04799 0.65928 0.0
C1111 C 0.21762 0.03673 0.64661 0.0
C1112 C 0.25924 0.06958 0.64503 0.0
C1113 C 0.20785 0.04819 0.62005 0.0
C1114 C 0.22386 0.06957 0.6057 0.0
C1115 C 0.26684 0.10028 0.60266 0.0
C1116 C 0.29302 0.1106 0.6146 0.0
C1117 C 0.24984 0.08001 0.61773 0.0
C1118 C 0.30165 0.10094 0.64223 0.0
C1119 C 0.28499 0.08047 0.65725 0.0
H1120 H 0.53805 0.2875 0.90206 0.0
H1121 H 0.57095 0.27824 0.81477 0.0
H1122 H 0.60452 0.24049 0.83114 0.0
H1123 H 0.62386 0.20938 0.8702 0.0
H1124 H 0.59036 0.2189 0.95728 0.0
H1125 H 0.55737 0.25689 0.94086 0.0
C1126 C 0.55279 0.27752 0.88663 0.0
C1127 C 0.55204 0.28581 0.85724 0.0
C1128 C 0.57162 0.25548 0.89606 0.0
C1129 C 0.57113 0.27236 0.83754 0.0
C1130 C 0.59022 0.25063 0.84685 0.0
C1131 C 0.6091 0.21954 0.8855 0.0
C1132 C 0.60951 0.21116 0.91489 0.0
C1133 C 0.5904 0.24176 0.876 0.0
C1134 C 0.5905 0.22486 0.93451 0.0
C1135 C 0.57169 0.2467 0.92519 0.0
H1136 H 0.78019 0.96647 0.61429 0.0
H1137 H 0.74826 0.94611 0.7 0.0
H1138 H 0.71335 0.91186 0.67907 0.0
H1139 H 0.69106 0.88884 0.63622 0.0
H1140 H 0.72226 0.91116 0.55058 0.0
H1141 H 0.75798 0.94387 0.57178 0.0
C1142 C 0.7659 0.95425 0.62848 0.0
C1143 C 0.76698 0.95864 0.65869 0.0
C1144 C 0.74541 0.9353 0.61628 0.0
C1145 C 0.74794 0.94299 0.67668 0.0
C1146 C 0.72788 0.92355 0.66472 0.0
C1147 C 0.70554 0.90097 0.62217 0.0
C1148 C 0.70385 0.8975 0.59181 0.0
C1149 C 0.72618 0.9198 0.6345 0.0
C1150 C 0.72292 0.91339 0.57399 0.0
C1151 C 0.74351 0.93203 0.58609 0.0
H1152 H 0.53235 0.71936 0.11197 0.0
H1153 H 0.55435 0.74519 0.19941 0.0
H1154 H 0.58995 0.77972 0.18056 0.0
H1155 H 0.61423 0.80318 0.13918 0.0
H1156 H 0.59184 0.77717 0.05184 0.0
H1157 H 0.55676 0.74239 0.07081 0.0
C1158 C 0.54507 0.73235 0.12697 0.0
C1159 C 0.54067 0.72963 0.15708 0.0
C1160 C 0.56522 0.7524 0.11599 0.0
C1161 C 0.55729 0.74678 0.17613 0.0
C1162 C 0.57758 0.76664 0.16537 0.0
C1163 C 0.60154 0.79006 0.12428 0.0
C1164 C 0.60564 0.79292 0.09411 0.0
C1165 C 0.58154 0.76982 0.13532 0.0
C1166 C 0.58916 0.7755 0.07515 0.0
C1167 C 0.56912 0.75551 0.08597 0.0
H1168 H 0.20902 0.97297 0.39183 0.0
H1169 H 0.21909 0.94011 0.30455 0.0
H1170 H 0.25629 0.90623 0.32134 0.0
H1171 H 0.28694 0.88692 0.36051 0.0
H1172 H 0.27654 0.91969 0.44778 0.0
H1173 H 0.23877 0.95294 0.4311 0.0
C1174 C 0.2191 0.95821 0.37648 0.0
C1175 C 0.21125 0.95914 0.34695 0.0
C1176 C 0.24075 0.93907 0.38618 0.0
C1177 C 0.22466 0.93987 0.32741 0.0
C1178 C 0.24607 0.92059 0.33695 0.0
C1179 C 0.2766 0.90151 0.37585 0.0
C1180 C 0.28476 0.90097 0.4053 0.0
C1181 C 0.25456 0.92028 0.36621 0.0
C1182 C 0.27079 0.91973 0.42496 0.0
C1183 C 0.24909 0.93868 0.41547 0.0
H1184 H 0.74143 0.03238 0.31941 0.0
H1185 H 0.8076 0.04181 0.38524 0.0
H1186 H 0.77743 0.07722 0.4108 0.0
H1187 H 0.73102 0.10296 0.41609 0.0
H1188 H 0.66553 0.09506 0.34949 0.0
H1189 H 0.69666 0.06132 0.32258 0.0
C1190 C 0.74939 0.04243 0.33919 0.0
C1191 C 0.7766 0.0343 0.35055 0.0
C1192 C 0.73192 0.06268 0.35379 0.0
C1193 C 0.78677 0.04772 0.37601 0.0
C1194 C 0.76944 0.06781 0.39075 0.0
C1195 C 0.72354 0.09378 0.39571 0.0
C1196 C 0.69585 0.10101 0.38499 0.0
C1197 C 0.74174 0.07494 0.38016 0.0
C1198 C 0.68669 0.08959 0.35824 0.0
C1199 C 0.70448 0.07036 0.34287 0.0
H1200 H 0.97353 0.37016 0.95058 0.0
H1201 H 0.02979 0.29964 0.92569 0.0
H1202 H 0.05041 0.29827 0.97474 0.0
H1203 H 0.05044 0.31545 0.02532 0.0
H1204 H 0.99427 0.38603 0.05042 0.0
H1205 H 0.97484 0.38856 0.00094 0.0
C1206 C 0.99038 0.3546 0.956 0.0
C1207 C 0.00013 0.33494 0.93477 0.0
C1208 C 0.00174 0.35369 0.98432 0.0
C1209 C 0.02214 0.31505 0.94174 0.0
C1210 C 0.03374 0.31414 0.96979 0.0
C1211 C 0.03423 0.33164 0.01982 0.0
C1212 C 0.02382 0.35059 0.0414 0.0
C1213 C 0.02345 0.33311 0.99133 0.0
C1214 C 0.00239 0.37105 0.03419 0.0
C1215 C 0.99144 0.37262 0.0059 0.0
H1216 H 0.80347 0.4571 0.46314 0.0
H1217 H 0.88922 0.48927 0.44394 0.0
H1218 H 0.89242 0.51077 0.49261 0.0
H1219 H 0.87099 0.51927 0.54122 0.0
H1220 H 0.78653 0.48438 0.56105 0.0
H1221 H 0.78284 0.4641 0.51189 0.0
C1222 C 0.82298 0.46853 0.46981 0.0
C1223 C 0.84627 0.47128 0.45029 0.0
C1224 C 0.82498 0.47989 0.49802 0.0
C1225 C 0.87106 0.4869 0.45872 0.0
C1226 C 0.87296 0.49897 0.48655 0.0
C1227 C 0.85203 0.50688 0.5347 0.0
C1228 C 0.82919 0.50283 0.55447 0.0
C1229 C 0.85018 0.49532 0.5065 0.0
C1230 C 0.80444 0.48724 0.54605 0.0
C1231 C 0.80229 0.4759 0.51799 0.0
H1232 H 0.029 0.6903 0.96339 0.0
H1233 H 0.0038 0.603 0.94088 0.0
H1234 H 0.98421 0.59572 0.98979 0.0
H1235 H 0.97385 0.61456 0.03898 0.0
H1236 H 0.00229 0.70049 0.06247 0.0
H1237 H 0.02221 0.70769 0.01357 0.0
C1238 C 0.01984 0.66947 0.96943 0.0
C1239 C 0.01815 0.64708 0.94871 0.0
C1240 C 0.00953 0.66516 0.99783 0.0
C1241 C 0.00524 0.62057 0.95648 0.0
C1242 C 0.99423 0.61634 0.98446 0.0
C1243 C 0.98487 0.63462 0.03337 0.0
C1244 C 0.98688 0.65695 0.05404 0.0
C1245 C 0.99628 0.63848 0.00532 0.0
C1246 C 0.00087 0.68299 0.04679 0.0
C1247 C 0.012 0.68715 0.01884 0.0
H1248 H 0.13658 0.46954 0.53954 0.0
H1249 H 0.2077 0.52504 0.56428 0.0
H1250 H 0.20942 0.54531 0.515 0.0
H1251 H 0.19243 0.54484 0.46415 0.0
H1252 H 0.11887 0.49178 0.4406 0.0
H1253 H 0.11674 0.47234 0.4899 0.0
C1254 C 0.15216 0.48636 0.53411 0.0
C1255 C 0.17195 0.49593 0.55529 0.0
C1256 C 0.15287 0.4979 0.50589 0.0
C1257 C 0.19212 0.51764 0.54826 0.0
C1258 C 0.19321 0.52903 0.52009 0.0
C1259 C 0.17559 0.52944 0.46994 0.0
C1260 C 0.15599 0.51958 0.4486 0.0
C1261 C 0.17394 0.51903 0.49862 0.0
C1262 C 0.13462 0.49924 0.45639 0.0
C1263 C 0.13322 0.48832 0.48466 0.0
H1264 H 0.94121 0.0144 0.34582 0.0
H1265 H 0.96838 0.92554 0.3587 0.0
H1266 H 0.01897 0.94066 0.35681 0.0
H1267 H 0.05524 0.97936 0.34793 0.0
H1268 H 0.02706 0.06845 0.35623 0.0
H1269 H 0.97671 0.05303 0.35439 0.0
C1270 C 0.95769 0.99815 0.34955 0.0
C1271 C 0.95038 0.96848 0.3507 0.0
C1272 C 0.98673 0.0072 0.3519 0.0
C1273 C 0.97298 0.9483 0.35535 0.0
C1274 C 0.0021 0.95697 0.35494 0.0
C1275 C 0.0384 0.99553 0.35037 0.0
C1276 C 0.04534 0.02535 0.35002 0.0
C1277 C 0.00926 0.98643 0.35253 0.0
C1278 C 0.02263 0.04553 0.35381 0.0
C1279 C 0.99366 0.03672 0.35337 0.0
H1280 H 0.54825 0.4736 0.18317 0.0
H1281 H 0.4959 0.44373 0.11148 0.0
H1282 H 0.47439 0.49213 0.1066 0.0
H1283 H 0.46971 0.5427 0.12365 0.0
H1284 H 0.52233 0.57253 0.19507 0.0
H1285 H 0.54548 0.52471 0.19849 0.0
C1286 C 0.53245 0.47784 0.16621 0.0
C1287 C 0.52361 0.45519 0.14771 0.0
C1288 C 0.52051 0.50574 0.16336 0.0
C1289 C 0.50275 0.46077 0.12618 0.0
C1290 C 0.49062 0.48846 0.12327 0.0
C1291 C 0.48641 0.53865 0.13978 0.0
C1292 C 0.49433 0.56084 0.15918 0.0
C1293 C 0.49921 0.51105 0.14185 0.0
C1294 C 0.51609 0.55568 0.17987 0.0
C1295 C 0.52912 0.52834 0.18195 0.0
H1296 H 0.02689 0.9659 0.6907 0.0
H1297 H 0.05618 0.00715 0.612 0.0
H1298 H 0.00751 0.02738 0.60413 0.0
H1299 H 0.95623 0.03237 0.61935 0.0
H1300 H 0.92757 0.99156 0.69852 0.0
H1301 H 0.97605 0.97108 0.70601 0.0
C1302 C 0.02252 0.97927 0.67179 0.0
C1303 C 0.04493 0.98505 0.65191 0.0
C1304 C 0.99453 0.99046 0.66732 0.0
C1305 C 0.03925 0.00267 0.62771 0.0
C1306 C 0.01141 0.01401 0.62311 0.0
C1307 C 0.96076 0.01909 0.63827 0.0
C1308 C 0.93853 0.01349 0.65843 0.0
C1309 C 0.98884 0.00792 0.6427 0.0
C1310 C 0.94437 0.99592 0.68264 0.0
C1311 C 0.9721 0.98443 0.68703 0.0
H1312 H 0.53376 0.54272 0.8739 0.0
H1313 H 0.47376 0.56849 0.8069 0.0
H1314 H 0.45469 0.51877 0.80431 0.0
H1315 H 0.45683 0.46768 0.81977 0.0
H1316 H 0.51355 0.443 0.89017 0.0
H1317 H 0.53295 0.49237 0.89224 0.0
C1318 C 0.51627 0.53737 0.85901 0.0
C1319 C 0.505 0.55896 0.84066 0.0
C1320 C 0.5053 0.50893 0.85794 0.0
C1321 C 0.48245 0.55209 0.82137 0.0
C1322 C 0.47175 0.52371 0.81978 0.0
C1323 C 0.47303 0.47321 0.83595 0.0
C1324 C 0.48381 0.4516 0.8547 0.0
C1325 C 0.4832 0.50191 0.8378 0.0
C1326 C 0.5053 0.45902 0.87507 0.0
C1327 C 0.51618 0.48733 0.87648 0.0
H1328 H 0.31258 0.05913 0.00708 0.0
H1329 H 0.39388 0.04552 0.05128 0.0
H1330 H 0.39599 0.99551 0.03295 0.0
H1331 H 0.37432 0.9556 0.00428 0.0
H1332 H 0.29217 0.96912 0.9614 0.0
H1333 H 0.29063 0.01916 0.9791 0.0
C1334 C 0.33079 0.04516 0.01244 0.0
C1335 C 0.3531 0.05572 0.0303 0.0
C1336 C 0.33159 0.01646 0.00213 0.0
C1337 C 0.37652 0.0376 0.03749 0.0
C1338 C 0.37767 0.00909 0.02707 0.0
C1339 C 0.35604 0.96951 0.99907 0.0
C1340 C 0.3335 0.95889 0.98143 0.0
C1341 C 0.35525 0.99823 0.00948 0.0
C1342 C 0.30995 0.97705 0.97464 0.0
C1343 C 0.30902 0.0056 0.9848 0.0
H1344 H 0.43742 0.14263 0.48258 0.0
H1345 H 0.46619 0.14109 0.57181 0.0
H1346 H 0.51652 0.14036 0.55603 0.0
H1347 H 0.55235 0.14432 0.51662 0.0
H1348 H 0.52373 0.13113 0.42834 0.0
H1349 H 0.47324 0.13278 0.44405 0.0
C1350 C 0.45443 0.14118 0.49873 0.0
C1351 C 0.44772 0.14354 0.52845 0.0
C1352 C 0.48348 0.13838 0.48959 0.0
C1353 C 0.47054 0.14143 0.54876 0.0
C1354 C 0.49946 0.14046 0.53978 0.0
C1355 C 0.53529 0.14082 0.50082 0.0
C1356 C 0.54203 0.13908 0.47109 0.0
C1357 C 0.50623 0.13968 0.51019 0.0
C1358 C 0.51926 0.13432 0.45118 0.0
C1359 C 0.49029 0.13489 0.46017 0.0
H1360 H 0.63567 0.03604 0.96204 0.0
H1361 H 0.70396 0.06445 0.01944 0.0
H1362 H 0.70864 0.0152 0.03892 0.0
H1363 H 0.69382 0.96399 0.03902 0.0
H1364 H 0.62398 0.93567 0.9834 0.0
H1365 H 0.61996 0.98465 0.96304 0.0
C1366 C 0.65151 0.03131 0.97883 0.0
C1367 C 0.66943 0.05367 0.9894 0.0
C1368 C 0.65403 0.00295 0.98991 0.0
C1369 C 0.68981 0.04753 0.01123 0.0
C1370 C 0.69259 0.01939 0.02221 0.0
C1371 C 0.67751 0.96863 0.02266 0.0
C1372 C 0.65916 0.94628 0.01279 0.0
C1373 C 0.67486 0.99694 0.01167 0.0
C1374 C 0.63858 0.95243 0.99112 0.0
C1375 C 0.63611 0.98048 0.97967 0.0
H1376 H 0.44643 0.87798 0.49996 0.0
H1377 H 0.45473 0.80165 0.44637 0.0
H1378 H 0.50574 0.7969 0.46011 0.0
H1379 H 0.54816 0.8142 0.48773 0.0
H1380 H 0.53969 0.88888 0.54333 0.0
H1381 H 0.48878 0.89471 0.52857 0.0
C1382 C 0.45943 0.86025 0.49153 0.0
C1383 C 0.44701 0.84044 0.47191 0.0
C1384 C 0.48877 0.85748 0.49976 0.0
C1385 C 0.46402 0.81751 0.46108 0.0
C1386 C 0.49315 0.81471 0.46899 0.0
C1387 C 0.53512 0.83186 0.4963 0.0
C1388 C 0.54743 0.85126 0.51628 0.0
C1389 C 0.50582 0.83463 0.48819 0.0
C1390 C 0.53047 0.87386 0.52773 0.0
C1391 C 0.50142 0.87709 0.5194 0.0
H1392 H 0.03504 0.26343 0.21235 0.0
H1393 H 0.11589 0.25056 0.1665 0.0
H1394 H 0.1285 0.21095 0.19899 0.0
H1395 H 0.1192 0.1837 0.24329 0.0
H1396 H 0.03925 0.1964 0.29034 0.0
H1397 H 0.02402 0.23313 0.25496 0.0
C1398 C 0.05516 0.25161 0.2091 0.0
C1399 C 0.07446 0.26003 0.18692 0.0
C1400 C 0.06271 0.22926 0.22842 0.0
C1401 C 0.10055 0.24457 0.18323 0.0
C1402 C 0.10791 0.222 0.20197 0.0
C1403 C 0.098 0.1937 0.24531 0.0
C1404 C 0.08006 0.18686 0.26898 0.0
C1405 C 0.0895 0.21465 0.22502 0.0
C1406 C 0.05333 0.20123 0.27213 0.0
C1407 C 0.04461 0.22213 0.25189 0.0
H1408 H 0.77473 0.45212 0.27357 0.0
H1409 H 0.74041 0.38639 0.33093 0.0
H1410 H 0.69949 0.37872 0.29813 0.0
H1411 H 0.67655 0.38697 0.25096 0.0
H1412 H 0.71148 0.45126 0.19257 0.0
H1413 H 0.74943 0.46309 0.22797 0.0
C1414 C 0.75806 0.43646 0.27919 0.0
C1415 C 0.76082 0.41963 0.30459 0.0
C1416 C 0.7349 0.43174 0.25992 0.0
C1417 C 0.73905 0.39936 0.31139 0.0
C1418 C 0.71562 0.39497 0.29264 0.0
C1419 C 0.69177 0.4043 0.24636 0.0
C1420 C 0.69086 0.41869 0.21945 0.0
C1421 C 0.71372 0.41054 0.26653 0.0
C1422 C 0.71168 0.44009 0.21327 0.0
C1423 C 0.73335 0.4468 0.23346 0.0
H1424 H 0.86666 0.8042 0.25419 0.0
H1425 H 0.94542 0.79364 0.30375 0.0
H1426 H 0.96122 0.75485 0.27084 0.0
H1427 H 0.95218 0.72387 0.22822 0.0
H1428 H 0.87253 0.73447 0.17964 0.0
H1429 H 0.85801 0.77408 0.21141 0.0
C1430 C 0.88758 0.79386 0.25742 0.0
C1431 C 0.90522 0.80216 0.28086 0.0
C1432 C 0.89641 0.77175 0.23849 0.0
C1433 C 0.93163 0.78768 0.28563 0.0
C1434 C 0.94068 0.76562 0.2668 0.0
C1435 C 0.93176 0.73499 0.2244 0.0
C1436 C 0.91364 0.72628 0.20133 0.0
C1437 C 0.92321 0.75749 0.24314 0.0
C1438 C 0.88712 0.74083 0.19694 0.0
C1439 C 0.87866 0.76341 0.21524 0.0
H1440 H 0.30588 0.54811 0.21248 0.0
H1441 H 0.32904 0.63107 0.24924 0.0
H1442 H 0.29256 0.62523 0.28703 0.0
H1443 H 0.25161 0.59853 0.30724 0.0
H1444 H 0.22746 0.51556 0.27081 0.0
H1445 H 0.26669 0.51938 0.23538 0.0
C1446 C 0.3031 0.56461 0.22909 0.0
C1447 C 0.32052 0.5896 0.22858 0.0
C1448 C 0.28175 0.56126 0.25063 0.0
C1449 C 0.31663 0.61112 0.24986 0.0
C1450 C 0.29549 0.608 0.27125 0.0
C1451 C 0.25514 0.58105 0.29191 0.0
C1452 C 0.23648 0.55692 0.29169 0.0
C1453 C 0.27766 0.58337 0.27159 0.0
C1454 C 0.24144 0.53448 0.2715 0.0
C1455 C 0.26383 0.53665 0.25113 0.0
H1456 H 0.0806 0.75962 0.81946 0.0
H1457 H 0.01669 0.71571 0.76683 0.0
H1458 H 0.01905 0.75459 0.73094 0.0
H1459 H 0.04388 0.79793 0.71169 0.0
H1460 H 0.10978 0.83974 0.76364 0.0
H1461 H 0.10189 0.80512 0.80256 0.0
C1462 C 0.06706 0.75863 0.80028 0.0
C1463 C 0.04902 0.7345 0.79562 0.0
C1464 C 0.06891 0.78076 0.7795 0.0
C1465 C 0.03095 0.73396 0.77095 0.0
C1466 C 0.0324 0.75611 0.75029 0.0
C1467 C 0.05605 0.79973 0.7318 0.0
C1468 C 0.07694 0.82174 0.73492 0.0
C1469 C 0.05199 0.77914 0.7539 0.0
C1470 C 0.09281 0.82375 0.76094 0.0
C1471 C 0.08865 0.8036 0.78314 0.0
H1472 H 0.334 0.38363 0.75208 0.0
H1473 H 0.30514 0.44786 0.81386 0.0
H1474 H 0.27002 0.46641 0.77859 0.0
H1475 H 0.24495 0.46165 0.73187 0.0
H1476 H 0.27292 0.3963 0.67072 0.0
H1477 H 0.31161 0.38148 0.70378 0.0
C1478 C 0.32072 0.40226 0.75753 0.0
C1479 C 0.32248 0.41465 0.7854 0.0
C1480 C 0.30031 0.41252 0.7373 0.0
C1481 C 0.3042 0.43802 0.7925 0.0
C1482 C 0.28415 0.44864 0.77235 0.0
C1483 C 0.25982 0.44453 0.72548 0.0
C1484 C 0.25582 0.42993 0.69891 0.0
C1485 C 0.28164 0.43568 0.74489 0.0
C1486 C 0.27526 0.40769 0.69114 0.0
C1487 C 0.29739 0.39917 0.71007 0.0
H1488 H 0.96687 0.26141 0.75329 0.0
H1489 H 0.90607 0.23401 0.81907 0.0
H1490 H 0.88847 0.19553 0.78766 0.0
H1491 H 0.88638 0.17346 0.73998 0.0
H1492 H 0.94655 0.19944 0.67317 0.0
H1493 H 0.96791 0.23537 0.70623 0.0
C1494 C 0.95023 0.2466 0.76094 0.0
C1495 C 0.93762 0.25075 0.7885 0.0
C1496 C 0.93975 0.22467 0.74239 0.0
C1497 C 0.91593 0.23152 0.79798 0.0
C1498 C 0.90578 0.2095 0.77995 0.0
C1499 C 0.90493 0.186 0.73289 0.0
C1500 C 0.91536 0.18319 0.7044 0.0
C1501 C 0.917 0.20638 0.7519 0.0
C1502 C 0.93828 0.20108 0.69513 0.0
C1503 C 0.95052 0.22156 0.71403 0.0
H1504 H 0.7021 0.571 0.79782 0.0
H1505 H 0.6432 0.60339 0.73247 0.0
H1506 H 0.67754 0.59064 0.69448 0.0
H1507 H 0.72585 0.57306 0.67995 0.0
H1508 H 0.78244 0.53554 0.74453 0.0
H1509 H 0.74707 0.54652 0.7825 0.0
C1510 C 0.6967 0.57513 0.77526 0.0
C1511 C 0.67097 0.59001 0.76824 0.0
C1512 C 0.71602 0.56648 0.7533 0.0
C1513 C 0.6638 0.59408 0.7388 0.0
C1514 C 0.68321 0.58623 0.71691 0.0
C1515 C 0.73019 0.56694 0.70229 0.0
C1516 C 0.75675 0.55384 0.70951 0.0
C1517 C 0.70968 0.57306 0.72397 0.0
C1518 C 0.76204 0.5456 0.73844 0.0
C1519 C 0.74195 0.55207 0.7602 0.0
H1520 H 0.2325 0.04492 0.27518 0.0
H1521 H 0.16538 0.0953 0.23348 0.0
H1522 H 0.19868 0.10833 0.19454 0.0
H1523 H 0.24812 0.11099 0.17644 0.0
H1524 H 0.31593 0.06047 0.21682 0.0
H1525 H 0.28116 0.04233 0.25267 0.0
C1526 C 0.22501 0.05814 0.25717 0.0
C1527 C 0.19668 0.06962 0.25748 0.0
C1528 C 0.24449 0.06595 0.23498 0.0
C1529 C 0.18726 0.08676 0.23406 0.0
C1530 C 0.20629 0.09421 0.21177 0.0
C1531 C 0.25524 0.09504 0.19211 0.0
C1532 C 0.28459 0.08673 0.19347 0.0
C1533 C 0.2352 0.08475 0.21255 0.0
C1534 C 0.29343 0.0672 0.21523 0.0
C1535 C 0.27356 0.05678 0.23572 0.0
H1536 H 0.61812 0.25389 0.31896 0.0
H1537 H 0.53799 0.20789 0.30346 0.0
H1538 H 0.52375 0.24429 0.26741 0.0
H1539 H 0.53603 0.28686 0.23794 0.0
H1540 H 0.61718 0.33162 0.25284 0.0
H1541 H 0.62847 0.29866 0.29257 0.0
C1542 C 0.5971 0.25233 0.30846 0.0
C1543 C 0.57885 0.22859 0.31422 0.0
C1544 C 0.58924 0.27312 0.28772 0.0
C1545 C 0.5523 0.22612 0.2994 0.0
C1546 C 0.54416 0.24691 0.27887 0.0
C1547 C 0.55594 0.28979 0.25019 0.0
C1548 C 0.57576 0.31168 0.24227 0.0
C1549 C 0.56272 0.27023 0.27251 0.0
C1550 C 0.6015 0.31504 0.2584 0.0
C1551 C 0.60809 0.29605 0.28104 0.0
H1552 H 0.77151 0.96091 0.26291 0.0
H1553 H 0.83639 0.90171 0.23026 0.0
H1554 H 0.80558 0.89013 0.18877 0.0
H1555 H 0.75777 0.89138 0.16615 0.0
H1556 H 0.692 0.94966 0.19862 0.0
H1557 H 0.72551 0.96683 0.23616 0.0
C1558 C 0.7792 0.94609 0.24629 0.0
C1559 C 0.80599 0.93184 0.24985 0.0
C1560 C 0.76102 0.93899 0.22279 0.0
C1561 C 0.81562 0.91254 0.22826 0.0
C1562 C 0.798 0.90589 0.20454 0.0
C1563 C 0.75103 0.9087 0.18053 0.0
C1564 C 0.72252 0.91954 0.17923 0.0
C1565 C 0.77026 0.91819 0.20217 0.0
C1566 C 0.71388 0.94101 0.19915 0.0
C1567 C 0.73302 0.95083 0.2206 0.0
H1568 H 0.45517 0.73634 0.23254 0.0
H1569 H 0.38611 0.67642 0.25331 0.0
H1570 H 0.37028 0.70756 0.2928 0.0
H1571 H 0.373 0.7538 0.3184 0.0
H1572 H 0.43978 0.8156 0.29646 0.0
H1573 H 0.45925 0.78203 0.26001 0.0
C1574 C 0.43696 0.72985 0.246 0.0
C1575 C 0.42202 0.70385 0.24003 0.0
C1576 C 0.42729 0.74845 0.26817 0.0
C1577 C 0.39823 0.69604 0.2575 0.0
C1578 C 0.38899 0.71399 0.28003 0.0
C1579 C 0.3923 0.7596 0.30626 0.0
C1580 C 0.40532 0.78682 0.31043 0.0
C1581 C 0.40298 0.74048 0.28517 0.0
C1582 C 0.42954 0.7946 0.29363 0.0
C1583 C 0.44066 0.77544 0.27286 0.0
H1584 H 0.2426 0.88402 0.82348 0.0
H1585 H 0.29802 0.95644 0.80235 0.0
H1586 H 0.26361 0.97217 0.76493 0.0
H1587 H 0.2195 0.96313 0.73611 0.0
H1588 H 0.1658 0.88894 0.75639 0.0
H1589 H 0.19729 0.87674 0.79695 0.0
C1590 C 0.24673 0.90375 0.81137 0.0
C1591 C 0.2725 0.91938 0.81602 0.0
C1592 C 0.22714 0.91234 0.7897 0.0
C1593 C 0.27818 0.94417 0.79919 0.0
C1594 C 0.25854 0.95315 0.77784 0.0
C1595 C 0.21439 0.94458 0.74969 0.0
C1596 C 0.19017 0.92708 0.74316 0.0
C1597 C 0.23315 0.93711 0.77258 0.0
C1598 C 0.18411 0.90295 0.7609 0.0
C1599 C 0.20224 0.8958 0.78406 0.0
H1600 H 0.4128 0.32411 0.74879 0.0
H1601 H 0.46437 0.26186 0.79623 0.0
H1602 H 0.45574 0.22545 0.75874 0.0
H1603 H 0.43101 0.2104 0.71424 0.0
H1604 H 0.38468 0.27425 0.66353 0.0
H1605 H 0.39328 0.31065 0.70075 0.0
C1606 C 0.42231 0.30264 0.75071 0.0
C1607 C 0.43892 0.29556 0.77527 0.0
C1608 C 0.41766 0.2819 0.72885 0.0
C1609 C 0.45155 0.26784 0.77741 0.0
C1610 C 0.44648 0.24694 0.75611 0.0
C1611 C 0.42281 0.23228 0.71122 0.0
C1612 C 0.40557 0.23891 0.68691 0.0
C1613 C 0.42915 0.25359 0.732 0.0
C1614 C 0.39608 0.26771 0.68296 0.0
C1615 C 0.40155 0.28885 0.70401 0.0
H1616 H 0.76813 0.04257 0.73775 0.0
H1617 H 0.82081 0.11973 0.74618 0.0
H1618 H 0.79246 0.13496 0.78813 0.0
H1619 H 0.75045 0.12839 0.82005 0.0
H1620 H 0.6963 0.05258 0.81067 0.0
H1621 H 0.72721 0.03501 0.77113 0.0
C1622 C 0.7737 0.06252 0.74898 0.0
C1623 C 0.79671 0.07989 0.73879 0.0
C1624 C 0.75681 0.07157 0.77273 0.0
C1625 C 0.80335 0.10583 0.75352 0.0
C1626 C 0.78704 0.11466 0.77749 0.0
C1627 C 0.74585 0.10766 0.80989 0.0
C1628 C 0.72148 0.09151 0.81859 0.0
C1629 C 0.76346 0.09795 0.78699 0.0
C1630 C 0.71508 0.06529 0.80438 0.0
C1631 C 0.73274 0.05524 0.78183 0.0
H1632 H 0.59159 0.68737 0.74144 0.0
H1633 H 0.51882 0.73715 0.7732 0.0
H1634 H 0.52605 0.77276 0.73462 0.0
H1635 H 0.55587 0.79195 0.69441 0.0
H1636 H 0.62974 0.74257 0.66464 0.0
H1637 H 0.61925 0.70462 0.69984 0.0
C1638 C 0.57718 0.70583 0.7399 0.0
C1639 C 0.55504 0.70969 0.7605 0.0
C1640 C 0.58172 0.72641 0.718 0.0
C1641 C 0.53619 0.73362 0.75773 0.0
C1642 C 0.54038 0.75412 0.73575 0.0
C1643 C 0.5694 0.77269 0.6955 0.0
C1644 C 0.59316 0.76979 0.6766 0.0
C1645 C 0.56353 0.75109 0.71621 0.0
C1646 C 0.61074 0.7449 0.67826 0.0
C1647 C 0.60497 0.72331 0.69864 0.0
H1648 H 0.27248 0.23194 0.04437 0.0
H1649 H 0.24515 0.17706 0.11529 0.0
H1650 H 0.204 0.20922 0.12462 0.0
H1651 H 0.17884 0.25526 0.11572 0.0
H1652 H 0.20794 0.31184 0.0471 0.0
H1653 H 0.24572 0.27674 0.03385 0.0
C1654 C 0.25725 0.2267 0.06155 0.0
C1655 C 0.2619 0.2021 0.07912 0.0
C1656 C 0.23421 0.24576 0.06737 0.0
C1657 C 0.24212 0.19585 0.1015 0.0
C1658 C 0.21864 0.21428 0.1069 0.0
C1659 C 0.19287 0.2595 0.09732 0.0
C1660 C 0.19033 0.28575 0.08196 0.0
C1661 C 0.21486 0.23961 0.09038 0.0
C1662 C 0.20947 0.29161 0.05901 0.0
C1663 C 0.23101 0.27159 0.05149 0.0
H1664 H 0.23183 0.82767 0.91457 0.0
H1665 H 0.29098 0.76523 0.95172 0.0
H1666 H 0.25682 0.72603 0.9415 0.0
H1667 H 0.2115 0.70915 0.91947 0.0
H1668 H 0.14885 0.77217 0.88955 0.0
H1669 H 0.18304 0.81124 0.89897 0.0
C1670 C 0.23697 0.8055 0.92068 0.0
C1671 C 0.26382 0.79925 0.93372 0.0
C1672 C 0.2169 0.78308 0.91543 0.0
C1673 C 0.27027 0.77054 0.94184 0.0
C1674 C 0.25087 0.74809 0.93583 0.0
C1675 C 0.20521 0.73141 0.91503 0.0
C1676 C 0.17832 0.7373 0.90178 0.0
C1677 C 0.22431 0.75405 0.92222 0.0
C1678 C 0.17022 0.76649 0.8974 0.0
C1679 C 0.18958 0.78907 0.90344 0.0
H1680 H 0.2612 0.22207 0.55051 0.0
H1681 H 0.3389 0.27019 0.57094 0.0
H1682 H 0.31025 0.31444 0.57767 0.0
H1683 H 0.26284 0.33803 0.58231 0.0
H1684 H 0.1846 0.28842 0.56838 0.0
H1685 H 0.21358 0.24643 0.55353 0.0
C1686 C 0.27182 0.24247 0.5557 0.0
C1687 C 0.30203 0.24313 0.55999 0.0
C1688 C 0.25505 0.26739 0.56103 0.0
C1689 C 0.31564 0.26939 0.56738 0.0
C1690 C 0.29927 0.29457 0.57139 0.0
C1691 C 0.25211 0.31788 0.57659 0.0
C1692 C 0.22166 0.31594 0.57767 0.0
C1693 C 0.2689 0.29357 0.56922 0.0
C1694 C 0.20806 0.29026 0.5683 0.0
C1695 C 0.22461 0.26624 0.55987 0.0
H1696 H 0.81549 0.28597 0.94052 0.0
H1697 H 0.83754 0.2418 0.86097 0.0
H1698 H 0.80159 0.20433 0.87107 0.0
H1699 H 0.76146 0.18611 0.90058 0.0
H1700 H 0.7384 0.23035 0.97998 0.0
H1701 H 0.77724 0.26549 0.97208 0.0
C1702 C 0.81255 0.2679 0.92568 0.0
C1703 C 0.82948 0.26625 0.90041 0.0
C1704 C 0.79157 0.24652 0.9315 0.0
C1705 C 0.82545 0.24298 0.88108 0.0
C1706 C 0.80464 0.22172 0.88666 0.0
C1707 C 0.76509 0.20321 0.91634 0.0
C1708 C 0.74682 0.20566 0.94065 0.0
C1709 C 0.78731 0.22348 0.9116 0.0
C1710 C 0.75207 0.2279 0.961 0.0
C1711 C 0.77421 0.24815 0.95645 0.0
H1712 H 0.67175 0.73591 0.58017 0.0
H1713 H 0.73723 0.7844 0.53402 0.0
H1714 H 0.77269 0.746 0.54312 0.0
H1715 H 0.78594 0.7005 0.56736 0.0
H1716 H 0.71917 0.64951 0.60894 0.0
H1717 H 0.68358 0.6873 0.59909 0.0
C1718 C 0.69373 0.73792 0.572 0.0
C1719 C 0.70201 0.76302 0.55683 0.0
C1720 C 0.71393 0.71565 0.57707 0.0
C1721 C 0.73036 0.76518 0.54572 0.0
C1722 C 0.7507 0.74335 0.5511 0.0
C1723 C 0.76359 0.69756 0.57423 0.0
C1724 C 0.75577 0.67295 0.59053 0.0
C1725 C 0.74287 0.71878 0.56727 0.0
C1726 C 0.72645 0.6691 0.59828 0.0
C1727 C 0.70584 0.69048 0.59211 0.0
H1728 H 0.82242 0.74242 0.1135 0.0
H1729 H 0.80194 0.69061 0.0382 0.0
H1730 H 0.76575 0.72653 0.02306 0.0
H1731 H 0.73775 0.77072 0.03327 0.0
H1732 H 0.75756 0.82148 0.10968 0.0
H1733 H 0.79703 0.78831 0.12181 0.0
C1734 C 0.81082 0.73941 0.09326 0.0
C1735 C 0.81529 0.71418 0.07665 0.0
C1736 C 0.78987 0.75992 0.08496 0.0
C1737 C 0.79897 0.70998 0.05122 0.0
C1738 C 0.77831 0.73049 0.04258 0.0
C1739 C 0.75097 0.77485 0.05233 0.0
C1740 C 0.74455 0.79855 0.07059 0.0
C1741 C 0.77325 0.75531 0.05957 0.0
C1742 C 0.7619 0.8034 0.09528 0.0
C1743 C 0.78444 0.78437 0.1023 0.0
H1744 H 0.21214 0.6966 0.43519 0.0
H1745 H 0.25715 0.66918 0.35784 0.0
H1746 H 0.29505 0.70528 0.36652 0.0
H1747 H 0.31316 0.74734 0.39393 0.0
H1748 H 0.26849 0.77432 0.47187 0.0
H1749 H 0.23302 0.73557 0.46535 0.0
C1750 C 0.23048 0.69836 0.42051 0.0
C1751 C 0.23203 0.68019 0.39609 0.0
C1752 C 0.2522 0.71918 0.42566 0.0
C1753 C 0.25582 0.68256 0.37713 0.0
C1754 C 0.27736 0.70338 0.38194 0.0
C1755 C 0.29591 0.74452 0.4097 0.0
C1756 C 0.29339 0.76395 0.43316 0.0
C1757 C 0.2755 0.72216 0.40586 0.0
C1758 C 0.271 0.75976 0.45355 0.0
C1759 C 0.25056 0.73767 0.44978 0.0
H1760 H 0.73267 0.2069 0.44476 0.0
H1761 H 0.66021 0.26217 0.42324 0.0
H1762 H 0.69312 0.3036 0.41741 0.0
H1763 H 0.74271 0.32288 0.41507 0.0
H1764 H 0.81551 0.26546 0.4289 0.0
H1765 H 0.78234 0.22635 0.44241 0.0
C1766 C 0.72413 0.22819 0.43935 0.0
C1767 C 0.69419 0.23174 0.43467 0.0
C1768 C 0.74327 0.25138 0.43452 0.0
C1769 C 0.68325 0.25914 0.42705 0.0
C1770 C 0.70204 0.28271 0.42363 0.0
C1771 C 0.75137 0.30162 0.4202 0.0
C1772 C 0.78153 0.29675 0.41961 0.0
C1773 C 0.73215 0.27886 0.42652 0.0
C1774 C 0.79235 0.26964 0.42857 0.0
C1775 C 0.77341 0.24723 0.43622 0.0
loop_
_geom_bond_atom_site_label_1
_geom_bond_atom_site_label_2
_geom_bond_distance
_geom_bond_site_symmetry_2
_ccdc_geom_bond_type
Co0 O3 1.970 . S
Co0 N17 1.989 . S
Co0 O25 1.967 . S
Co0 O32 1.920 . S
Co1 O4 1.966 . S
Co1 N10 2.022 . S
Co1 N18 1.993 . S
Co1 O26 1.941 . S
C2 O3 1.258 . S
C2 O4 1.263 . S
O3 Co0 1.970 . S
O3 C2 1.258 . S
O4 Co1 1.966 . S
O4 C2 1.263 . S
C5 O6 1.235 . S
C5 O32 1.289 1_655 S
O6 C5 1.235 . S
C7 C9 1.400 . S
C7 N10 1.351 . S
C7 C12 1.501 . S
C8 C9 1.387 . S
C8 N11 1.341 . S
C9 C7 1.400 . S
C9 C8 1.387 . S
N10 Co1 2.022 . S
N10 C7 1.351 . S
N10 N11 1.365 . S
N11 C8 1.341 . S
N11 N10 1.365 . S
N11 H31 0.862 . S
C12 C7 1.501 . S
C12 H13 0.961 . S
C12 H14 0.961 . S
C12 H15 0.960 . S
H13 C12 0.961 . S
H14 C12 0.961 . S
H15 C12 0.960 . S
C16 N17 1.342 . S
C16 C20 1.401 . S
C16 C21 1.471 1_455 S
N17 Co0 1.989 . S
N17 C16 1.342 . S
N17 N18 1.388 . S
N18 Co1 1.993 . S
N18 N17 1.388 . S
N18 C19 1.346 . S
C19 N18 1.346 . S
C19 C20 1.396 . S
C19 C29 1.510 . S
C20 C16 1.401 . S
C20 C19 1.396 . S
C21 C16 1.471 1_655 S
C21 H22 0.963 . S
C21 H23 0.982 . S
C21 H24 0.964 . S
H22 C21 0.963 . S
H23 C21 0.982 . S
H24 C21 0.964 . S
O25 Co0 1.967 . S
O25 C33 1.258 . S
O26 Co1 1.941 . S
O26 C33 1.266 . S
H27 C29 0.959 . S
H28 C29 0.961 . S
C29 C19 1.510 . S
C29 H27 0.959 . S
C29 H28 0.961 . S
C29 H30 0.960 . S
H30 C29 0.960 . S
H31 N11 0.862 . S
O32 Co0 1.920 . S
O32 C5 1.289 1_455 S
C33 O25 1.258 . S
C33 O26 1.266 . S
Co34 O37 1.970 . S
Co34 N51 1.989 . S
Co34 O59 1.967 . S
Co34 O66 1.920 . S
Co35 O38 1.966 . S
Co35 N44 2.022 . S
Co35 N52 1.993 . S
Co35 O60 1.941 . S
C36 O37 1.258 . S
C36 O38 1.263 . S
O37 Co34 1.970 . S
O37 C36 1.258 . S
O38 Co35 1.966 . S
O38 C36 1.263 . S
C39 O40 1.235 . S
C39 O66 1.289 . S
O40 C39 1.235 . S
C41 C43 1.400 . S
C41 N44 1.351 . S
C41 C46 1.501 . S
C42 C43 1.387 . S
C42 N45 1.341 . S
C43 C41 1.400 . S
C43 C42 1.387 . S
N44 Co35 2.022 . S
N44 C41 1.351 . S
N44 N45 1.365 . S
N45 C42 1.341 . S
N45 N44 1.365 . S
N45 H65 0.862 . S
C46 C41 1.501 . S
C46 H47 0.961 . S
C46 H48 0.961 . S
C46 H49 0.960 . S
H47 C46 0.961 . S
H48 C46 0.961 . S
H49 C46 0.960 . S
C50 N51 1.342 . S
C50 C54 1.401 . S
C50 C55 1.499 . S
N51 Co34 1.989 . S
N51 C50 1.342 . S
N51 N52 1.388 . S
N52 Co35 1.993 . S
N52 N51 1.388 . S
N52 C53 1.346 . S
C53 N52 1.346 . S
C53 C54 1.396 . S
C53 C63 1.510 . S
C54 C50 1.401 . S
C54 C53 1.396 . S
C55 C50 1.499 . S
C55 H56 0.959 . S
C55 H57 0.960 . S
C55 H58 0.961 . S
H56 C55 0.959 . S
H57 C55 0.960 . S
H58 C55 0.961 . S
O59 Co34 1.967 . S
O59 C67 1.258 . S
O60 Co35 1.941 . S
O60 C67 1.266 . S
H61 C63 0.959 . S
H62 C63 0.961 . S
C63 C53 1.510 . S
C63 H61 0.959 . S
C63 H62 0.961 . S
C63 H64 0.960 . S
H64 C63 0.960 . S
H65 N45 0.862 . S
O66 Co34 1.920 . S
O66 C39 1.289 . S
C67 O59 1.258 . S
C67 O60 1.266 . S
Co68 O71 1.970 . S
Co68 N85 1.989 . S
Co68 O93 1.967 . S
Co68 O100 1.920 . S
Co69 O72 1.966 . S
Co69 N78 2.022 . S
Co69 N86 1.993 . S
Co69 O94 1.941 . S
C70 O71 1.258 . S
C70 O72 1.263 . S
O71 Co68 1.970 . S
O71 C70 1.258 . S
O72 Co69 1.966 . S
O72 C70 1.263 . S
C73 O74 1.235 . S
C73 O100 1.289 1_455 S
O74 C73 1.235 . S
C75 C77 1.400 . S
C75 N78 1.351 . S
C75 C80 1.501 . S
C76 C77 1.387 . S
C76 N79 1.341 . S
C77 C75 1.400 . S
C77 C76 1.387 . S
N78 Co69 2.022 . S
N78 C75 1.351 . S
N78 N79 1.365 . S
N79 C76 1.341 . S
N79 N78 1.365 . S
N79 H99 0.862 . S
C80 C75 1.501 . S
C80 H81 0.961 . S
C80 H82 0.961 . S
C80 H83 0.960 . S
H81 C80 0.961 . S
H82 C80 0.961 . S
H83 C80 0.960 . S
C84 N85 1.342 . S
C84 C88 1.401 . S
C84 C89 1.471 1_655 S
N85 Co68 1.989 . S
N85 C84 1.342 . S
N85 N86 1.388 . S
N86 Co69 1.993 . S
N86 N85 1.388 . S
N86 C87 1.346 . S
C87 N86 1.346 . S
C87 C88 1.396 . S
C87 C97 1.510 . S
C88 C84 1.401 . S
C88 C87 1.396 . S
C89 C84 1.471 1_455 S
C89 H90 0.963 . S
C89 H91 0.982 . S
C89 H92 0.964 . S
H90 C89 0.963 . S
H91 C89 0.982 . S
H92 C89 0.964 . S
O93 Co68 1.967 . S
O93 C101 1.258 . S
O94 Co69 1.941 . S
O94 C101 1.266 . S
H95 C97 0.959 . S
H96 C97 0.961 . S
C97 C87 1.510 . S
C97 H95 0.959 . S
C97 H96 0.961 . S
C97 H98 0.960 . S
H98 C97 0.960 . S
H99 N79 0.862 . S
O100 Co68 1.920 . S
O100 C73 1.289 1_655 S
C101 O93 1.258 . S
C101 O94 1.266 . S
Co102 O105 1.970 . S
Co102 N119 1.989 . S
Co102 O127 1.967 . S
Co102 O134 1.920 . S
Co103 O106 1.966 . S
Co103 N112 2.022 . S
Co103 N120 1.993 . S
Co103 O128 1.941 . S
C104 O105 1.258 . S
C104 O106 1.263 . S
O105 Co102 1.970 . S
O105 C104 1.258 . S
O106 Co103 1.966 . S
O106 C104 1.263 . S
C107 O108 1.235 . S
C107 O134 1.289 . S
O108 C107 1.235 . S
C109 C111 1.400 . S
C109 N112 1.351 . S
C109 C114 1.501 . S
C110 C111 1.387 . S
C110 N113 1.341 . S
C111 C109 1.400 . S
C111 C110 1.387 . S
N112 Co103 2.022 . S
N112 C109 1.351 . S
N112 N113 1.365 . S
N113 C110 1.341 . S
N113 N112 1.365 . S
N113 H133 0.862 . S
C114 C109 1.501 . S
C114 H115 0.961 . S
C114 H116 0.961 . S
C114 H117 0.960 . S
H115 C114 0.961 . S
H116 C114 0.961 . S
H117 C114 0.960 . S
C118 N119 1.342 . S
C118 C122 1.401 . S
C118 C123 1.499 . S
N119 Co102 1.989 . S
N119 C118 1.342 . S
N119 N120 1.388 . S
N120 Co103 1.993 . S
N120 N119 1.388 . S
N120 C121 1.346 . S
C121 N120 1.346 . S
C121 C122 1.396 . S
C121 C131 1.510 . S
C122 C118 1.401 . S
C122 C121 1.396 . S
C123 C118 1.499 . S
C123 H124 0.959 . S
C123 H125 0.960 . S
C123 H126 0.961 . S
H124 C123 0.959 . S
H125 C123 0.960 . S
H126 C123 0.961 . S
O127 Co102 1.967 . S
O127 C135 1.258 . S
O128 Co103 1.941 . S
O128 C135 1.266 . S
H129 C131 0.959 . S
H130 C131 0.961 . S
C131 C121 1.510 . S
C131 H129 0.959 . S
C131 H130 0.961 . S
C131 H132 0.960 . S
H132 C131 0.960 . S
H133 N113 0.862 . S
O134 Co102 1.920 . S
O134 C107 1.289 . S
C135 O127 1.258 . S
C135 O128 1.266 . S
Co136 O139 1.970 . S
Co136 N153 1.989 . S
Co136 O161 1.967 . S
Co136 O168 1.920 . S
Co137 O140 1.966 . S
Co137 N146 2.022 . S
Co137 N154 1.993 . S
Co137 O162 1.941 . S
C138 O139 1.258 . S
C138 O140 1.263 . S
O139 Co136 1.970 . S
O139 C138 1.258 . S
O140 Co137 1.966 . S
O140 C138 1.263 . S
C141 O142 1.235 . S
C141 O168 1.289 1_655 S
O142 C141 1.235 . S
C143 C145 1.400 . S
C143 N146 1.351 . S
C143 C148 1.501 . S
C144 C145 1.387 . S
C144 N147 1.341 . S
C145 C143 1.400 . S
C145 C144 1.387 . S
N146 Co137 2.022 . S
N146 C143 1.351 . S
N146 N147 1.365 . S
N147 C144 1.341 . S
N147 N146 1.365 . S
N147 H167 0.862 . S
C148 C143 1.501 . S
C148 H149 0.961 . S
C148 H150 0.961 . S
C148 H151 0.960 . S
H149 C148 0.961 . S
H150 C148 0.961 . S
H151 C148 0.960 . S
C152 N153 1.342 . S
C152 C156 1.401 . S
C152 C157 1.471 1_455 S
N153 Co136 1.989 . S
N153 C152 1.342 . S
N153 N154 1.388 . S
N154 Co137 1.993 . S
N154 N153 1.388 . S
N154 C155 1.346 . S
C155 N154 1.346 . S
C155 C156 1.396 . S
C155 C165 1.510 . S
C156 C152 1.401 . S
C156 C155 1.396 . S
C157 C152 1.471 1_655 S
C157 H158 0.963 . S
C157 H159 0.982 . S
C157 H160 0.964 . S
H158 C157 0.963 . S
H159 C157 0.982 . S
H160 C157 0.964 . S
O161 Co136 1.967 . S
O161 C169 1.258 . S
O162 Co137 1.941 . S
O162 C169 1.266 . S
H163 C165 0.959 . S
H164 C165 0.961 . S
C165 C155 1.510 . S
C165 H163 0.959 . S
C165 H164 0.961 . S
C165 H166 0.960 . S
H166 C165 0.960 . S
H167 N147 0.862 . S
O168 Co136 1.920 . S
O168 C141 1.289 1_455 S
C169 O161 1.258 . S
C169 O162 1.266 . S
Co170 O173 1.970 . S
Co170 N187 1.989 . S
Co170 O195 1.967 . S
Co170 O202 1.920 . S
Co171 O174 1.966 . S
Co171 N180 2.022 . S
Co171 N188 1.993 . S
Co171 O196 1.941 . S
C172 O173 1.258 . S
C172 O174 1.263 . S
O173 Co170 1.970 . S
O173 C172 1.258 . S
O174 Co171 1.966 . S
O174 C172 1.263 . S
C175 O176 1.235 . S
C175 O202 1.289 . S
O176 C175 1.235 . S
C177 C179 1.400 . S
C177 N180 1.351 . S
C177 C182 1.501 . S
C178 C179 1.387 . S
C178 N181 1.341 . S
C179 C177 1.400 . S
C179 C178 1.387 . S
N180 Co171 2.022 . S
N180 C177 1.351 . S
N180 N181 1.365 . S
N181 C178 1.341 . S
N181 N180 1.365 . S
N181 H201 0.862 . S
C182 C177 1.501 . S
C182 H183 0.961 . S
C182 H184 0.961 . S
C182 H185 0.960 . S
H183 C182 0.961 . S
H184 C182 0.961 . S
H185 C182 0.960 . S
C186 N187 1.342 . S
C186 C190 1.401 . S
C186 C191 1.499 . S
N187 Co170 1.989 . S
N187 C186 1.342 . S
N187 N188 1.388 . S
N188 Co171 1.993 . S
N188 N187 1.388 . S
N188 C189 1.346 . S
C189 N188 1.346 . S
C189 C190 1.396 . S
C189 C199 1.510 . S
C190 C186 1.401 . S
C190 C189 1.396 . S
C191 C186 1.499 . S
C191 H192 0.959 . S
C191 H193 0.960 . S
C191 H194 0.961 . S
H192 C191 0.959 . S
H193 C191 0.960 . S
H194 C191 0.961 . S
O195 Co170 1.967 . S
O195 C203 1.258 . S
O196 Co171 1.941 . S
O196 C203 1.266 . S
H197 C199 0.959 . S
H198 C199 0.961 . S
C199 C189 1.510 . S
C199 H197 0.959 . S
C199 H198 0.961 . S
C199 H200 0.960 . S
H200 C199 0.960 . S
H201 N181 0.862 . S
O202 Co170 1.920 . S
O202 C175 1.289 . S
C203 O195 1.258 . S
C203 O196 1.266 . S
Co204 O207 1.970 . S
Co204 N221 1.989 . S
Co204 O229 1.967 . S
Co204 O236 1.920 . S
Co205 O208 1.966 . S
Co205 N214 2.022 . S
Co205 N222 1.993 . S
Co205 O230 1.941 . S
C206 O207 1.258 . S
C206 O208 1.263 . S
O207 Co204 1.970 . S
O207 C206 1.258 . S
O208 Co205 1.966 . S
O208 C206 1.263 . S
C209 O210 1.235 . S
C209 O236 1.289 1_455 S
O210 C209 1.235 . S
C211 C213 1.400 . S
C211 N214 1.351 . S
C211 C216 1.501 . S
C212 C213 1.387 . S
C212 N215 1.341 . S
C213 C211 1.400 . S
C213 C212 1.387 . S
N214 Co205 2.022 . S
N214 C211 1.351 . S
N214 N215 1.365 . S
N215 C212 1.341 . S
N215 N214 1.365 . S
N215 H235 0.862 . S
C216 C211 1.501 . S
C216 H217 0.961 . S
C216 H218 0.961 . S
C216 H219 0.960 . S
H217 C216 0.961 . S
H218 C216 0.961 . S
H219 C216 0.960 . S
C220 N221 1.342 . S
C220 C224 1.401 . S
C220 C225 1.471 1_655 S
N221 Co204 1.989 . S
N221 C220 1.342 . S
N221 N222 1.388 . S
N222 Co205 1.993 . S
N222 N221 1.388 . S
N222 C223 1.346 . S
C223 N222 1.346 . S
C223 C224 1.396 . S
C223 C233 1.510 . S
C224 C220 1.401 . S
C224 C223 1.396 . S
C225 C220 1.471 1_455 S
C225 H226 0.963 . S
C225 H227 0.982 . S
C225 H228 0.964 . S
H226 C225 0.963 . S
H227 C225 0.982 . S
H228 C225 0.964 . S
O229 Co204 1.967 . S
O229 C237 1.258 . S
O230 Co205 1.941 . S
O230 C237 1.266 . S
H231 C233 0.959 . S
H232 C233 0.961 . S
C233 C223 1.510 . S
C233 H231 0.959 . S
C233 H232 0.961 . S
C233 H234 0.960 . S
H234 C233 0.960 . S
H235 N215 0.862 . S
O236 Co204 1.920 . S
O236 C209 1.289 1_655 S
C237 O229 1.258 . S
C237 O230 1.266 . S
Co238 O241 1.970 . S
Co238 N255 1.989 . S
Co238 O263 1.967 . S
Co238 O270 1.920 . S
Co239 O242 1.966 . S
Co239 N248 2.022 . S
Co239 N256 1.993 . S
Co239 O264 1.941 . S
C240 O241 1.258 . S
C240 O242 1.263 . S
O241 Co238 1.970 . S
O241 C240 1.258 . S
O242 Co239 1.966 . S
O242 C240 1.263 . S
C243 O244 1.235 . S
C243 O270 1.289 . S
O244 C243 1.235 . S
C245 C247 1.400 . S
C245 N248 1.351 . S
C245 C250 1.501 . S
C246 C247 1.387 . S
C246 N249 1.341 . S
C247 C245 1.400 . S
C247 C246 1.387 . S
N248 Co239 2.022 . S
N248 C245 1.351 . S
N248 N249 1.365 . S
N249 C246 1.341 . S
N249 N248 1.365 . S
N249 H269 0.862 . S
C250 C245 1.501 . S
C250 H251 0.961 . S
C250 H252 0.961 . S
C250 H253 0.960 . S
H251 C250 0.961 . S
H252 C250 0.961 . S
H253 C250 0.960 . S
C254 N255 1.342 . S
C254 C258 1.401 . S
C254 C259 1.499 . S
N255 Co238 1.989 . S
N255 C254 1.342 . S
N255 N256 1.388 . S
N256 Co239 1.993 . S
N256 N255 1.388 . S
N256 C257 1.346 . S
C257 N256 1.346 . S
C257 C258 1.396 . S
C257 C267 1.510 . S
C258 C254 1.401 . S
C258 C257 1.396 . S
C259 C254 1.499 . S
C259 H260 0.959 . S
C259 H261 0.960 . S
C259 H262 0.961 . S
H260 C259 0.959 . S
H261 C259 0.960 . S
H262 C259 0.961 . S
O263 Co238 1.967 . S
O263 C271 1.258 . S
O264 Co239 1.941 . S
O264 C271 1.266 . S
H265 C267 0.959 . S
H266 C267 0.961 . S
C267 C257 1.510 . S
C267 H265 0.959 . S
C267 H266 0.961 . S
C267 H268 0.960 . S
H268 C267 0.960 . S
H269 N249 0.862 . S
O270 Co238 1.920 . S
O270 C243 1.289 . S
C271 O263 1.258 . S
C271 O264 1.266 . S
Co272 O275 1.970 . S
Co272 N289 1.989 . S
Co272 O297 1.967 . S
Co272 O304 1.920 . S
Co273 O276 1.966 . S
Co273 N282 2.022 . S
Co273 N290 1.993 . S
Co273 O298 1.941 . S
C274 O275 1.258 . S
C274 O276 1.263 . S
O275 Co272 1.970 . S
O275 C274 1.258 . S
O276 Co273 1.966 . S
O276 C274 1.263 . S
C277 O278 1.235 . S
C277 O304 1.289 1_565 S
O278 C277 1.235 . S
C279 C281 1.400 . S
C279 N282 1.351 . S
C279 C284 1.501 . S
C280 C281 1.387 . S
C280 N283 1.341 . S
C281 C279 1.400 . S
C281 C280 1.387 . S
N282 Co273 2.022 . S
N282 C279 1.351 . S
N282 N283 1.365 . S
N283 C280 1.341 . S
N283 N282 1.365 . S
N283 H303 0.862 . S
C284 C279 1.501 . S
C284 H285 0.961 . S
C284 H286 0.961 . S
C284 H287 0.960 . S
H285 C284 0.961 . S
H286 C284 0.961 . S
H287 C284 0.960 . S
C288 N289 1.342 . S
C288 C292 1.401 . S
C288 C293 1.471 1_545 S
N289 Co272 1.989 . S
N289 C288 1.342 . S
N289 N290 1.388 . S
N290 Co273 1.993 . S
N290 N289 1.388 . S
N290 C291 1.346 . S
C291 N290 1.346 . S
C291 C292 1.396 . S
C291 C301 1.510 . S
C292 C288 1.401 . S
C292 C291 1.396 . S
C293 C288 1.471 1_565 S
C293 H294 0.963 . S
C293 H295 0.982 . S
C293 H296 0.964 . S
H294 C293 0.963 . S
H295 C293 0.982 . S
H296 C293 0.964 . S
O297 Co272 1.967 . S
O297 C305 1.258 . S
O298 Co273 1.941 . S
O298 C305 1.266 . S
H299 C301 0.959 . S
H300 C301 0.961 . S
C301 C291 1.510 . S
C301 H299 0.959 . S
C301 H300 0.961 . S
C301 H302 0.960 . S
H302 C301 0.960 . S
H303 N283 0.862 . S
O304 Co272 1.920 . S
O304 C277 1.289 1_545 S
C305 O297 1.258 . S
C305 O298 1.266 . S
Co306 O309 1.970 . S
Co306 N323 1.989 . S
Co306 O331 1.967 . S
Co306 O338 1.920 . S
Co307 O310 1.966 . S
Co307 N316 2.022 . S
Co307 N324 1.993 . S
Co307 O332 1.941 . S
C308 O309 1.258 . S
C308 O310 1.263 . S
O309 Co306 1.970 . S
O309 C308 1.258 . S
O310 Co307 1.966 . S
O310 C308 1.263 . S
C311 O312 1.235 . S
C311 O338 1.289 . S
O312 C311 1.235 . S
C313 C315 1.400 . S
C313 N316 1.351 . S
C313 C318 1.501 . S
C314 C315 1.387 . S
C314 N317 1.341 . S
C315 C313 1.400 . S
C315 C314 1.387 . S
N316 Co307 2.022 . S
N316 C313 1.351 . S
N316 N317 1.365 . S
N317 C314 1.341 . S
N317 N316 1.365 . S
N317 H337 0.862 . S
C318 C313 1.501 . S
C318 H319 0.961 . S
C318 H320 0.961 . S
C318 H321 0.960 . S
H319 C318 0.961 . S
H320 C318 0.961 . S
H321 C318 0.960 . S
C322 N323 1.342 . S
C322 C326 1.401 . S
C322 C327 1.499 . S
N323 Co306 1.989 . S
N323 C322 1.342 . S
N323 N324 1.388 . S
N324 Co307 1.993 . S
N324 N323 1.388 . S
N324 C325 1.346 . S
C325 N324 1.346 . S
C325 C326 1.396 . S
C325 C335 1.510 . S
C326 C322 1.401 . S
C326 C325 1.396 . S
C327 C322 1.499 . S
C327 H328 0.959 . S
C327 H329 0.960 . S
C327 H330 0.961 . S
H328 C327 0.959 . S
H329 C327 0.960 . S
H330 C327 0.961 . S
O331 Co306 1.967 . S
O331 C339 1.258 . S
O332 Co307 1.941 . S
O332 C339 1.266 . S
H333 C335 0.959 . S
H334 C335 0.961 . S
C335 C325 1.510 . S
C335 H333 0.959 . S
C335 H334 0.961 . S
C335 H336 0.960 . S
H336 C335 0.960 . S
H337 N317 0.862 . S
O338 Co306 1.920 . S
O338 C311 1.289 . S
C339 O331 1.258 . S
C339 O332 1.266 . S
Co340 O343 1.970 . S
Co340 N357 1.989 . S
Co340 O365 1.967 . S
Co340 O372 1.920 . S
Co341 O344 1.966 . S
Co341 N350 2.022 . S
Co341 N358 1.993 . S
Co341 O366 1.941 . S
C342 O343 1.258 . S
C342 O344 1.263 . S
O343 Co340 1.970 . S
O343 C342 1.258 . S
O344 Co341 1.966 . S
O344 C342 1.263 . S
C345 O346 1.235 . S
C345 O372 1.289 1_545 S
O346 C345 1.235 . S
C347 C349 1.400 . S
C347 N350 1.351 . S
C347 C352 1.501 . S
C348 C349 1.387 . S
C348 N351 1.341 . S
C349 C347 1.400 . S
C349 C348 1.387 . S
N350 Co341 2.022 . S
N350 C347 1.351 . S
N350 N351 1.365 . S
N351 C348 1.341 . S
N351 N350 1.365 . S
N351 H371 0.862 . S
C352 C347 1.501 . S
C352 H353 0.961 . S
C352 H354 0.961 . S
C352 H355 0.960 . S
H353 C352 0.961 . S
H354 C352 0.961 . S
H355 C352 0.960 . S
C356 N357 1.342 . S
C356 C360 1.401 . S
C356 C361 1.471 1_565 S
N357 Co340 1.989 . S
N357 C356 1.342 . S
N357 N358 1.388 . S
N358 Co341 1.993 . S
N358 N357 1.388 . S
N358 C359 1.346 . S
C359 N358 1.346 . S
C359 C360 1.396 . S
C359 C369 1.510 . S
C360 C356 1.401 . S
C360 C359 1.396 . S
C361 C356 1.471 1_545 S
C361 H362 0.963 . S
C361 H363 0.982 . S
C361 H364 0.964 . S
H362 C361 0.963 . S
H363 C361 0.982 . S
H364 C361 0.964 . S
O365 Co340 1.967 . S
O365 C373 1.258 . S
O366 Co341 1.941 . S
O366 C373 1.266 . S
H367 C369 0.959 . S
H368 C369 0.961 . S
C369 C359 1.510 . S
C369 H367 0.959 . S
C369 H368 0.961 . S
C369 H370 0.960 . S
H370 C369 0.960 . S
H371 N351 0.862 . S
O372 Co340 1.920 . S
O372 C345 1.289 1_565 S
C373 O365 1.258 . S
C373 O366 1.266 . S
Co374 O377 1.970 . S
Co374 N391 1.989 . S
Co374 O399 1.967 . S
Co374 O406 1.920 . S
Co375 O378 1.966 . S
Co375 N384 2.022 . S
Co375 N392 1.993 . S
Co375 O400 1.941 . S
C376 O377 1.258 . S
C376 O378 1.263 . S
O377 Co374 1.970 . S
O377 C376 1.258 . S
O378 Co375 1.966 . S
O378 C376 1.263 . S
C379 O380 1.235 . S
C379 O406 1.289 . S
O380 C379 1.235 . S
C381 C383 1.400 . S
C381 N384 1.351 . S
C381 C386 1.501 . S
C382 C383 1.387 . S
C382 N385 1.341 . S
C383 C381 1.400 . S
C383 C382 1.387 . S
N384 Co375 2.022 . S
N384 C381 1.351 . S
N384 N385 1.365 . S
N385 C382 1.341 . S
N385 N384 1.365 . S
N385 H405 0.862 . S
C386 C381 1.501 . S
C386 H387 0.961 . S
C386 H388 0.961 . S
C386 H389 0.960 . S
H387 C386 0.961 . S
H388 C386 0.961 . S
H389 C386 0.960 . S
C390 N391 1.342 . S
C390 C394 1.401 . S
C390 C395 1.499 . S
N391 Co374 1.989 . S
N391 C390 1.342 . S
N391 N392 1.388 . S
N392 Co375 1.993 . S
N392 N391 1.388 . S
N392 C393 1.346 . S
C393 N392 1.346 . S
C393 C394 1.396 . S
C393 C403 1.510 . S
C394 C390 1.401 . S
C394 C393 1.396 . S
C395 C390 1.499 . S
C395 H396 0.959 . S
C395 H397 0.960 . S
C395 H398 0.961 . S
H396 C395 0.959 . S
H397 C395 0.960 . S
H398 C395 0.961 . S
O399 Co374 1.967 . S
O399 C407 1.258 . S
O400 Co375 1.941 . S
O400 C407 1.266 . S
H401 C403 0.959 . S
H402 C403 0.961 . S
C403 C393 1.510 . S
C403 H401 0.959 . S
C403 H402 0.961 . S
C403 H404 0.960 . S
H404 C403 0.960 . S
H405 N385 0.862 . S
O406 Co374 1.920 . S
O406 C379 1.289 . S
C407 O399 1.258 . S
C407 O400 1.266 . S
Co408 O411 1.970 . S
Co408 N425 1.989 . S
Co408 O433 1.967 . S
Co408 O440 1.920 . S
Co409 O412 1.966 . S
Co409 N418 2.022 . S
Co409 N426 1.993 . S
Co409 O434 1.941 . S
C410 O411 1.258 . S
C410 O412 1.263 . S
O411 Co408 1.970 . S
O411 C410 1.258 . S
O412 Co409 1.966 . S
O412 C410 1.263 . S
C413 O414 1.235 . S
C413 O440 1.289 1_545 S
O414 C413 1.235 . S
C415 C417 1.400 . S
C415 N418 1.351 . S
C415 C420 1.501 . S
C416 C417 1.387 . S
C416 N419 1.341 . S
C417 C415 1.400 . S
C417 C416 1.387 . S
N418 Co409 2.022 . S
N418 C415 1.351 . S
N418 N419 1.365 . S
N419 C416 1.341 . S
N419 N418 1.365 . S
N419 H439 0.862 . S
C420 C415 1.501 . S
C420 H421 0.961 . S
C420 H422 0.961 . S
C420 H423 0.960 . S
H421 C420 0.961 . S
H422 C420 0.961 . S
H423 C420 0.960 . S
C424 N425 1.342 . S
C424 C428 1.401 . S
C424 C429 1.471 1_565 S
N425 Co408 1.989 . S
N425 C424 1.342 . S
N425 N426 1.388 . S
N426 Co409 1.993 . S
N426 N425 1.388 . S
N426 C427 1.346 . S
C427 N426 1.346 . S
C427 C428 1.396 . S
C427 C437 1.510 . S
C428 C424 1.401 . S
C428 C427 1.396 . S
C429 C424 1.471 1_545 S
C429 H430 0.963 . S
C429 H431 0.982 . S
C429 H432 0.964 . S
H430 C429 0.963 . S
H431 C429 0.982 . S
H432 C429 0.964 . S
O433 Co408 1.967 . S
O433 C441 1.258 . S
O434 Co409 1.941 . S
O434 C441 1.266 . S
H435 C437 0.959 . S
H436 C437 0.961 . S
C437 C427 1.510 . S
C437 H435 0.959 . S
C437 H436 0.961 . S
C437 H438 0.960 . S
H438 C437 0.960 . S
H439 N419 0.862 . S
O440 Co408 1.920 . S
O440 C413 1.289 1_565 S
C441 O433 1.258 . S
C441 O434 1.266 . S
Co442 O445 1.970 . S
Co442 N459 1.989 . S
Co442 O467 1.967 . S
Co442 O474 1.920 . S
Co443 O446 1.966 . S
Co443 N452 2.022 . S
Co443 N460 1.993 . S
Co443 O468 1.941 . S
C444 O445 1.258 . S
C444 O446 1.263 . S
O445 Co442 1.970 . S
O445 C444 1.258 . S
O446 Co443 1.966 . S
O446 C444 1.263 . S
C447 O448 1.235 . S
C447 O474 1.289 . S
O448 C447 1.235 . S
C449 C451 1.400 . S
C449 N452 1.351 . S
C449 C454 1.501 . S
C450 C451 1.387 . S
C450 N453 1.341 . S
C451 C449 1.400 . S
C451 C450 1.387 . S
N452 Co443 2.022 . S
N452 C449 1.351 . S
N452 N453 1.365 . S
N453 C450 1.341 . S
N453 N452 1.365 . S
N453 H473 0.862 . S
C454 C449 1.501 . S
C454 H455 0.961 . S
C454 H456 0.961 . S
C454 H457 0.960 . S
H455 C454 0.961 . S
H456 C454 0.961 . S
H457 C454 0.960 . S
C458 N459 1.342 . S
C458 C462 1.401 . S
C458 C463 1.499 . S
N459 Co442 1.989 . S
N459 C458 1.342 . S
N459 N460 1.388 . S
N460 Co443 1.993 . S
N460 N459 1.388 . S
N460 C461 1.346 . S
C461 N460 1.346 . S
C461 C462 1.396 . S
C461 C471 1.510 . S
C462 C458 1.401 . S
C462 C461 1.396 . S
C463 C458 1.499 . S
C463 H464 0.959 . S
C463 H465 0.960 . S
C463 H466 0.961 . S
H464 C463 0.959 . S
H465 C463 0.960 . S
H466 C463 0.961 . S
O467 Co442 1.967 . S
O467 C475 1.258 . S
O468 Co443 1.941 . S
O468 C475 1.266 . S
H469 C471 0.959 . S
H470 C471 0.961 . S
C471 C461 1.510 . S
C471 H469 0.959 . S
C471 H470 0.961 . S
C471 H472 0.960 . S
H472 C471 0.960 . S
H473 N453 0.862 . S
O474 Co442 1.920 . S
O474 C447 1.289 . S
C475 O467 1.258 . S
C475 O468 1.266 . S
Co476 O479 1.970 . S
Co476 N493 1.989 . S
Co476 O501 1.967 . S
Co476 O508 1.920 . S
Co477 O480 1.966 . S
Co477 N486 2.022 . S
Co477 N494 1.993 . S
Co477 O502 1.941 . S
C478 O479 1.258 . S
C478 O480 1.263 . S
O479 Co476 1.970 . S
O479 C478 1.258 . S
O480 Co477 1.966 . S
O480 C478 1.263 . S
C481 O482 1.235 . S
C481 O508 1.289 1_565 S
O482 C481 1.235 . S
C483 C485 1.400 . S
C483 N486 1.351 . S
C483 C488 1.501 . S
C484 C485 1.387 . S
C484 N487 1.341 . S
C485 C483 1.400 . S
C485 C484 1.387 . S
N486 Co477 2.022 . S
N486 C483 1.351 . S
N486 N487 1.365 . S
N487 C484 1.341 . S
N487 N486 1.365 . S
N487 H507 0.862 . S
C488 C483 1.501 . S
C488 H489 0.961 . S
C488 H490 0.961 . S
C488 H491 0.960 . S
H489 C488 0.961 . S
H490 C488 0.961 . S
H491 C488 0.960 . S
C492 N493 1.342 . S
C492 C496 1.401 . S
C492 C497 1.471 1_545 S
N493 Co476 1.989 . S
N493 C492 1.342 . S
N493 N494 1.388 . S
N494 Co477 1.993 . S
N494 N493 1.388 . S
N494 C495 1.346 . S
C495 N494 1.346 . S
C495 C496 1.396 . S
C495 C505 1.510 . S
C496 C492 1.401 . S
C496 C495 1.396 . S
C497 C492 1.471 1_565 S
C497 H498 0.963 . S
C497 H499 0.982 . S
C497 H500 0.964 . S
H498 C497 0.963 . S
H499 C497 0.982 . S
H500 C497 0.964 . S
O501 Co476 1.967 . S
O501 C509 1.258 . S
O502 Co477 1.941 . S
O502 C509 1.266 . S
H503 C505 0.959 . S
H504 C505 0.961 . S
C505 C495 1.510 . S
C505 H503 0.959 . S
C505 H504 0.961 . S
C505 H506 0.960 . S
H506 C505 0.960 . S
H507 N487 0.862 . S
O508 Co476 1.920 . S
O508 C481 1.289 1_545 S
C509 O501 1.258 . S
C509 O502 1.266 . S
Co510 O513 1.970 . S
Co510 N527 1.989 . S
Co510 O535 1.967 . S
Co510 O542 1.920 . S
Co511 O514 1.966 . S
Co511 N520 2.022 . S
Co511 N528 1.993 . S
Co511 O536 1.941 . S
C512 O513 1.258 . S
C512 O514 1.263 . S
O513 Co510 1.970 . S
O513 C512 1.258 . S
O514 Co511 1.966 . S
O514 C512 1.263 . S
C515 O516 1.235 . S
C515 O542 1.289 . S
O516 C515 1.235 . S
C517 C519 1.400 . S
C517 N520 1.351 . S
C517 C522 1.501 . S
C518 C519 1.387 . S
C518 N521 1.341 . S
C519 C517 1.400 . S
C519 C518 1.387 . S
N520 Co511 2.022 . S
N520 C517 1.351 . S
N520 N521 1.365 . S
N521 C518 1.341 . S
N521 N520 1.365 . S
N521 H541 0.862 . S
C522 C517 1.501 . S
C522 H523 0.961 . S
C522 H524 0.961 . S
C522 H525 0.960 . S
H523 C522 0.961 . S
H524 C522 0.961 . S
H525 C522 0.960 . S
C526 N527 1.342 . S
C526 C530 1.401 . S
C526 C531 1.499 . S
N527 Co510 1.989 . S
N527 C526 1.342 . S
N527 N528 1.388 . S
N528 Co511 1.993 . S
N528 N527 1.388 . S
N528 C529 1.346 . S
C529 N528 1.346 . S
C529 C530 1.396 . S
C529 C539 1.510 . S
C530 C526 1.401 . S
C530 C529 1.396 . S
C531 C526 1.499 . S
C531 H532 0.959 . S
C531 H533 0.960 . S
C531 H534 0.961 . S
H532 C531 0.959 . S
H533 C531 0.960 . S
H534 C531 0.961 . S
O535 Co510 1.967 . S
O535 C543 1.258 . S
O536 Co511 1.941 . S
O536 C543 1.266 . S
H537 C539 0.959 . S
H538 C539 0.961 . S
C539 C529 1.510 . S
C539 H537 0.959 . S
C539 H538 0.961 . S
C539 H540 0.960 . S
H540 C539 0.960 . S
H541 N521 0.862 . S
O542 Co510 1.920 . S
O542 C515 1.289 . S
C543 O535 1.258 . S
C543 O536 1.266 . S
Co544 O547 1.970 . S
Co544 N561 1.989 . S
Co544 O569 1.967 . S
Co544 O576 1.920 . S
Co545 O548 1.966 . S
Co545 N554 2.022 . S
Co545 N562 1.993 . S
Co545 O570 1.941 . S
C546 O547 1.258 . S
C546 O548 1.263 . S
O547 Co544 1.970 . S
O547 C546 1.258 . S
O548 Co545 1.966 . S
O548 C546 1.263 . S
C549 O550 1.235 . S
C549 O576 1.289 1_556 S
O550 C549 1.235 . S
C551 C553 1.400 . S
C551 N554 1.351 . S
C551 C556 1.501 . S
C552 C553 1.387 . S
C552 N555 1.341 . S
C553 C551 1.400 . S
C553 C552 1.387 . S
N554 Co545 2.022 . S
N554 C551 1.351 . S
N554 N555 1.365 . S
N555 C552 1.341 . S
N555 N554 1.365 . S
N555 H575 0.862 . S
C556 C551 1.501 . S
C556 H557 0.961 . S
C556 H558 0.961 . S
C556 H559 0.960 . S
H557 C556 0.961 . S
H558 C556 0.961 . S
H559 C556 0.960 . S
C560 N561 1.342 . S
C560 C564 1.401 . S
C560 C565 1.471 1_554 S
N561 Co544 1.989 . S
N561 C560 1.342 . S
N561 N562 1.388 . S
N562 Co545 1.993 . S
N562 N561 1.388 . S
N562 C563 1.346 . S
C563 N562 1.346 . S
C563 C564 1.396 . S
C563 C573 1.510 . S
C564 C560 1.401 . S
C564 C563 1.396 . S
C565 C560 1.471 1_556 S
C565 H566 0.963 . S
C565 H567 0.982 . S
C565 H568 0.964 . S
H566 C565 0.963 . S
H567 C565 0.982 . S
H568 C565 0.964 . S
O569 Co544 1.967 . S
O569 C577 1.258 . S
O570 Co545 1.941 . S
O570 C577 1.266 . S
H571 C573 0.959 . S
H572 C573 0.961 . S
C573 C563 1.510 . S
C573 H571 0.959 . S
C573 H572 0.961 . S
C573 H574 0.960 . S
H574 C573 0.960 . S
H575 N555 0.862 . S
O576 Co544 1.920 . S
O576 C549 1.289 1_554 S
C577 O569 1.258 . S
C577 O570 1.266 . S
Co578 O581 1.970 . S
Co578 N595 1.989 . S
Co578 O603 1.967 . S
Co578 O610 1.920 . S
Co579 O582 1.966 . S
Co579 N588 2.022 . S
Co579 N596 1.993 . S
Co579 O604 1.941 . S
C580 O581 1.258 . S
C580 O582 1.263 . S
O581 Co578 1.970 . S
O581 C580 1.258 . S
O582 Co579 1.966 . S
O582 C580 1.263 . S
C583 O584 1.235 . S
C583 O610 1.289 1_554 S
O584 C583 1.235 . S
C585 C587 1.400 . S
C585 N588 1.351 . S
C585 C590 1.501 . S
C586 C587 1.387 . S
C586 N589 1.341 . S
C587 C585 1.400 . S
C587 C586 1.387 . S
N588 Co579 2.022 . S
N588 C585 1.351 . S
N588 N589 1.365 . S
N589 C586 1.341 . S
N589 N588 1.365 . S
N589 H609 0.862 . S
C590 C585 1.501 . S
C590 H591 0.961 . S
C590 H592 0.961 . S
C590 H593 0.960 . S
H591 C590 0.961 . S
H592 C590 0.961 . S
H593 C590 0.960 . S
C594 N595 1.342 . S
C594 C598 1.401 . S
C594 C599 1.471 1_556 S
N595 Co578 1.989 . S
N595 C594 1.342 . S
N595 N596 1.388 . S
N596 Co579 1.993 . S
N596 N595 1.388 . S
N596 C597 1.346 . S
C597 N596 1.346 . S
C597 C598 1.396 . S
C597 C607 1.510 . S
C598 C594 1.401 . S
C598 C597 1.396 . S
C599 C594 1.471 1_554 S
C599 H600 0.963 . S
C599 H601 0.982 . S
C599 H602 0.964 . S
H600 C599 0.963 . S
H601 C599 0.982 . S
H602 C599 0.964 . S
O603 Co578 1.967 . S
O603 C611 1.258 . S
O604 Co579 1.941 . S
O604 C611 1.266 . S
H605 C607 0.959 . S
H606 C607 0.961 . S
C607 C597 1.510 . S
C607 H605 0.959 . S
C607 H606 0.961 . S
C607 H608 0.960 . S
H608 C607 0.960 . S
H609 N589 0.862 . S
O610 Co578 1.920 . S
O610 C583 1.289 1_556 S
C611 O603 1.258 . S
C611 O604 1.266 . S
Co612 O615 1.970 . S
Co612 N629 1.989 . S
Co612 O637 1.967 . S
Co612 O644 1.920 . S
Co613 O616 1.966 . S
Co613 N622 2.022 . S
Co613 N630 1.993 . S
Co613 O638 1.941 . S
C614 O615 1.258 . S
C614 O616 1.263 . S
O615 Co612 1.970 . S
O615 C614 1.258 . S
O616 Co613 1.966 . S
O616 C614 1.263 . S
C617 O618 1.235 . S
C617 O644 1.289 . S
O618 C617 1.235 . S
C619 C621 1.400 . S
C619 N622 1.351 . S
C619 C624 1.501 . S
C620 C621 1.387 . S
C620 N623 1.341 . S
C621 C619 1.400 . S
C621 C620 1.387 . S
N622 Co613 2.022 . S
N622 C619 1.351 . S
N622 N623 1.365 . S
N623 C620 1.341 . S
N623 N622 1.365 . S
N623 H643 0.862 . S
C624 C619 1.501 . S
C624 H625 0.961 . S
C624 H626 0.961 . S
C624 H627 0.960 . S
H625 C624 0.961 . S
H626 C624 0.961 . S
H627 C624 0.960 . S
C628 N629 1.342 . S
C628 C632 1.401 . S
C628 C633 1.499 . S
N629 Co612 1.989 . S
N629 C628 1.342 . S
N629 N630 1.388 . S
N630 Co613 1.993 . S
N630 N629 1.388 . S
N630 C631 1.346 . S
C631 N630 1.346 . S
C631 C632 1.396 . S
C631 C641 1.510 . S
C632 C628 1.401 . S
C632 C631 1.396 . S
C633 C628 1.499 . S
C633 H634 0.959 . S
C633 H635 0.960 . S
C633 H636 0.961 . S
H634 C633 0.959 . S
H635 C633 0.960 . S
H636 C633 0.961 . S
O637 Co612 1.967 . S
O637 C645 1.258 . S
O638 Co613 1.941 . S
O638 C645 1.266 . S
H639 C641 0.959 . S
H640 C641 0.961 . S
C641 C631 1.510 . S
C641 H639 0.959 . S
C641 H640 0.961 . S
C641 H642 0.960 . S
H642 C641 0.960 . S
H643 N623 0.862 . S
O644 Co612 1.920 . S
O644 C617 1.289 . S
C645 O637 1.258 . S
C645 O638 1.266 . S
Co646 O649 1.970 . S
Co646 N663 1.989 . S
Co646 O671 1.967 . S
Co646 O678 1.920 . S
Co647 O650 1.966 . S
Co647 N656 2.022 . S
Co647 N664 1.993 . S
Co647 O672 1.941 . S
C648 O649 1.258 . S
C648 O650 1.263 . S
O649 Co646 1.970 . S
O649 C648 1.258 . S
O650 Co647 1.966 . S
O650 C648 1.263 . S
C651 O652 1.235 . S
C651 O678 1.289 1_554 S
O652 C651 1.235 . S
C653 C655 1.400 . S
C653 N656 1.351 . S
C653 C658 1.501 . S
C654 C655 1.387 . S
C654 N657 1.341 . S
C655 C653 1.400 . S
C655 C654 1.387 . S
N656 Co647 2.022 . S
N656 C653 1.351 . S
N656 N657 1.365 . S
N657 C654 1.341 . S
N657 N656 1.365 . S
N657 H677 0.862 . S
C658 C653 1.501 . S
C658 H659 0.961 . S
C658 H660 0.961 . S
C658 H661 0.960 . S
H659 C658 0.961 . S
H660 C658 0.961 . S
H661 C658 0.960 . S
C662 N663 1.342 . S
C662 C666 1.401 . S
C662 C667 1.471 1_556 S
N663 Co646 1.989 . S
N663 C662 1.342 . S
N663 N664 1.388 . S
N664 Co647 1.993 . S
N664 N663 1.388 . S
N664 C665 1.346 . S
C665 N664 1.346 . S
C665 C666 1.396 . S
C665 C675 1.510 . S
C666 C662 1.401 . S
C666 C665 1.396 . S
C667 C662 1.471 1_554 S
C667 H668 0.963 . S
C667 H669 0.982 . S
C667 H670 0.964 . S
H668 C667 0.963 . S
H669 C667 0.982 . S
H670 C667 0.964 . S
O671 Co646 1.967 . S
O671 C679 1.258 . S
O672 Co647 1.941 . S
O672 C679 1.266 . S
H673 C675 0.959 . S
H674 C675 0.961 . S
C675 C665 1.510 . S
C675 H673 0.959 . S
C675 H674 0.961 . S
C675 H676 0.960 . S
H676 C675 0.960 . S
H677 N657 0.862 . S
O678 Co646 1.920 . S
O678 C651 1.289 1_556 S
C679 O671 1.258 . S
C679 O672 1.266 . S
Co680 O683 1.970 . S
Co680 N697 1.989 . S
Co680 O705 1.967 . S
Co680 O712 1.920 . S
Co681 O684 1.966 . S
Co681 N690 2.022 . S
Co681 N698 1.993 . S
Co681 O706 1.941 . S
C682 O683 1.258 . S
C682 O684 1.263 . S
O683 Co680 1.970 . S
O683 C682 1.258 . S
O684 Co681 1.966 . S
O684 C682 1.263 . S
C685 O686 1.235 . S
C685 O712 1.289 . S
O686 C685 1.235 . S
C687 C689 1.400 . S
C687 N690 1.351 . S
C687 C692 1.501 . S
C688 C689 1.387 . S
C688 N691 1.341 . S
C689 C687 1.400 . S
C689 C688 1.387 . S
N690 Co681 2.022 . S
N690 C687 1.351 . S
N690 N691 1.365 . S
N691 C688 1.341 . S
N691 N690 1.365 . S
N691 H711 0.862 . S
C692 C687 1.501 . S
C692 H693 0.961 . S
C692 H694 0.961 . S
C692 H695 0.960 . S
H693 C692 0.961 . S
H694 C692 0.961 . S
H695 C692 0.960 . S
C696 N697 1.342 . S
C696 C700 1.401 . S
C696 C701 1.499 . S
N697 Co680 1.989 . S
N697 C696 1.342 . S
N697 N698 1.388 . S
N698 Co681 1.993 . S
N698 N697 1.388 . S
N698 C699 1.346 . S
C699 N698 1.346 . S
C699 C700 1.396 . S
C699 C709 1.510 . S
C700 C696 1.401 . S
C700 C699 1.396 . S
C701 C696 1.499 . S
C701 H702 0.959 . S
C701 H703 0.960 . S
C701 H704 0.961 . S
H702 C701 0.959 . S
H703 C701 0.960 . S
H704 C701 0.961 . S
O705 Co680 1.967 . S
O705 C713 1.258 . S
O706 Co681 1.941 . S
O706 C713 1.266 . S
H707 C709 0.959 . S
H708 C709 0.961 . S
C709 C699 1.510 . S
C709 H707 0.959 . S
C709 H708 0.961 . S
C709 H710 0.960 . S
H710 C709 0.960 . S
H711 N691 0.862 . S
O712 Co680 1.920 . S
O712 C685 1.289 . S
C713 O705 1.258 . S
C713 O706 1.266 . S
Co714 O717 1.970 . S
Co714 N731 1.989 . S
Co714 O739 1.967 . S
Co714 O746 1.920 . S
Co715 O718 1.966 . S
Co715 N724 2.022 . S
Co715 N732 1.993 . S
Co715 O740 1.941 . S
C716 O717 1.258 . S
C716 O718 1.263 . S
O717 Co714 1.970 . S
O717 C716 1.258 . S
O718 Co715 1.966 . S
O718 C716 1.263 . S
C719 O720 1.235 . S
C719 O746 1.289 1_556 S
O720 C719 1.235 . S
C721 C723 1.400 . S
C721 N724 1.351 . S
C721 C726 1.501 . S
C722 C723 1.387 . S
C722 N725 1.341 . S
C723 C721 1.400 . S
C723 C722 1.387 . S
N724 Co715 2.022 . S
N724 C721 1.351 . S
N724 N725 1.365 . S
N725 C722 1.341 . S
N725 N724 1.365 . S
N725 H745 0.862 . S
C726 C721 1.501 . S
C726 H727 0.961 . S
C726 H728 0.961 . S
C726 H729 0.960 . S
H727 C726 0.961 . S
H728 C726 0.961 . S
H729 C726 0.960 . S
C730 N731 1.342 . S
C730 C734 1.401 . S
C730 C735 1.471 1_554 S
N731 Co714 1.989 . S
N731 C730 1.342 . S
N731 N732 1.388 . S
N732 Co715 1.993 . S
N732 N731 1.388 . S
N732 C733 1.346 . S
C733 N732 1.346 . S
C733 C734 1.396 . S
C733 C743 1.510 . S
C734 C730 1.401 . S
C734 C733 1.396 . S
C735 C730 1.471 1_556 S
C735 H736 0.963 . S
C735 H737 0.982 . S
C735 H738 0.964 . S
H736 C735 0.963 . S
H737 C735 0.982 . S
H738 C735 0.964 . S
O739 Co714 1.967 . S
O739 C747 1.258 . S
O740 Co715 1.941 . S
O740 C747 1.266 . S
H741 C743 0.959 . S
H742 C743 0.961 . S
C743 C733 1.510 . S
C743 H741 0.959 . S
C743 H742 0.961 . S
C743 H744 0.960 . S
H744 C743 0.960 . S
H745 N725 0.862 . S
O746 Co714 1.920 . S
O746 C719 1.289 1_554 S
C747 O739 1.258 . S
C747 O740 1.266 . S
Co748 O751 1.970 . S
Co748 N765 1.989 . S
Co748 O773 1.967 . S
Co748 O780 1.920 . S
Co749 O752 1.966 . S
Co749 N758 2.022 . S
Co749 N766 1.993 . S
Co749 O774 1.941 . S
C750 O751 1.258 . S
C750 O752 1.263 . S
O751 Co748 1.970 . S
O751 C750 1.258 . S
O752 Co749 1.966 . S
O752 C750 1.263 . S
C753 O754 1.235 . S
C753 O780 1.289 . S
O754 C753 1.235 . S
C755 C757 1.400 . S
C755 N758 1.351 . S
C755 C760 1.501 . S
C756 C757 1.387 . S
C756 N759 1.341 . S
C757 C755 1.400 . S
C757 C756 1.387 . S
N758 Co749 2.022 . S
N758 C755 1.351 . S
N758 N759 1.365 . S
N759 C756 1.341 . S
N759 N758 1.365 . S
N759 H779 0.862 . S
C760 C755 1.501 . S
C760 H761 0.961 . S
C760 H762 0.961 . S
C760 H763 0.960 . S
H761 C760 0.961 . S
H762 C760 0.961 . S
H763 C760 0.960 . S
C764 N765 1.342 . S
C764 C768 1.401 . S
C764 C769 1.499 . S
N765 Co748 1.989 . S
N765 C764 1.342 . S
N765 N766 1.388 . S
N766 Co749 1.993 . S
N766 N765 1.388 . S
N766 C767 1.346 . S
C767 N766 1.346 . S
C767 C768 1.396 . S
C767 C777 1.510 . S
C768 C764 1.401 . S
C768 C767 1.396 . S
C769 C764 1.499 . S
C769 H770 0.959 . S
C769 H771 0.960 . S
C769 H772 0.961 . S
H770 C769 0.959 . S
H771 C769 0.960 . S
H772 C769 0.961 . S
O773 Co748 1.967 . S
O773 C781 1.258 . S
O774 Co749 1.941 . S
O774 C781 1.266 . S
H775 C777 0.959 . S
H776 C777 0.961 . S
C777 C767 1.510 . S
C777 H775 0.959 . S
C777 H776 0.961 . S
C777 H778 0.960 . S
H778 C777 0.960 . S
H779 N759 0.862 . S
O780 Co748 1.920 . S
O780 C753 1.289 . S
C781 O773 1.258 . S
C781 O774 1.266 . S
Co782 O785 1.970 . S
Co782 N799 1.989 . S
Co782 O807 1.967 . S
Co782 O814 1.920 . S
Co783 O786 1.966 . S
Co783 N792 2.022 . S
Co783 N800 1.993 . S
Co783 O808 1.941 . S
C784 O785 1.258 . S
C784 O786 1.263 . S
O785 Co782 1.970 . S
O785 C784 1.258 . S
O786 Co783 1.966 . S
O786 C784 1.263 . S
C787 O788 1.235 . S
C787 O814 1.289 . S
O788 C787 1.235 . S
C789 C791 1.400 . S
C789 N792 1.351 . S
C789 C794 1.501 . S
C790 C791 1.387 . S
C790 N793 1.341 . S
C791 C789 1.400 . S
C791 C790 1.387 . S
N792 Co783 2.022 . S
N792 C789 1.351 . S
N792 N793 1.365 . S
N793 C790 1.341 . S
N793 N792 1.365 . S
N793 H813 0.862 . S
C794 C789 1.501 . S
C794 H795 0.961 . S
C794 H796 0.961 . S
C794 H797 0.960 . S
H795 C794 0.961 . S
H796 C794 0.961 . S
H797 C794 0.960 . S
C798 N799 1.342 . S
C798 C802 1.401 . S
C798 C803 1.499 . S
N799 Co782 1.989 . S
N799 C798 1.342 . S
N799 N800 1.388 . S
N800 Co783 1.993 . S
N800 N799 1.388 . S
N800 C801 1.346 . S
C801 N800 1.346 . S
C801 C802 1.396 . S
C801 C811 1.510 . S
C802 C798 1.401 . S
C802 C801 1.396 . S
C803 C798 1.499 . S
C803 H804 0.959 . S
C803 H805 0.960 . S
C803 H806 0.961 . S
H804 C803 0.959 . S
H805 C803 0.960 . S
H806 C803 0.961 . S
O807 Co782 1.967 . S
O807 C815 1.258 . S
O808 Co783 1.941 . S
O808 C815 1.266 . S
H809 C811 0.959 . S
H810 C811 0.961 . S
C811 C801 1.510 . S
C811 H809 0.959 . S
C811 H810 0.961 . S
C811 H812 0.960 . S
H812 C811 0.960 . S
H813 N793 0.862 . S
O814 Co782 1.920 . S
O814 C787 1.289 . S
C815 O807 1.258 . S
C815 O808 1.266 . S
H816 C822 0.930 . S
H817 C825 0.930 . S
H818 C826 0.930 . S
H819 C827 0.930 . S
H820 C830 0.930 . S
H821 C831 0.930 . S
C822 H816 0.930 . S
C822 C823 1.355 . S
C822 C824 1.415 . S
C823 C822 1.355 . S
C823 C825 1.419 . S
C824 C822 1.415 . S
C824 C829 1.425 . S
C824 C831 1.409 . S
C825 H817 0.930 . S
C825 C823 1.419 . S
C825 C826 1.362 . S
C826 H818 0.930 . S
C826 C825 1.362 . S
C826 C829 1.409 . S
C827 H819 0.930 . S
C827 C828 1.355 . S
C827 C829 1.415 . S
C828 C827 1.355 . S
C828 C830 1.419 . S
C829 C824 1.425 . S
C829 C826 1.409 . S
C829 C827 1.415 . S
C830 H820 0.930 . S
C830 C828 1.419 . S
C830 C831 1.362 . S
C831 H821 0.930 . S
C831 C824 1.409 . S
C831 C830 1.362 . S
H832 C838 0.930 . S
H833 C841 0.930 . S
H834 C842 0.930 . S
H835 C843 0.930 . S
H836 C846 0.930 . S
H837 C847 0.930 . S
C838 H832 0.930 . S
C838 C839 1.355 . S
C838 C840 1.415 . S
C839 C838 1.355 . S
C839 C841 1.419 . S
C840 C838 1.415 . S
C840 C845 1.425 . S
C840 C847 1.409 . S
C841 H833 0.930 . S
C841 C839 1.419 . S
C841 C842 1.362 . S
C842 H834 0.930 . S
C842 C841 1.362 . S
C842 C845 1.409 . S
C843 H835 0.930 . S
C843 C844 1.355 . S
C843 C845 1.415 . S
C844 C843 1.355 . S
C844 C846 1.419 . S
C845 C840 1.425 . S
C845 C842 1.409 . S
C845 C843 1.415 . S
C846 H836 0.930 . S
C846 C844 1.419 . S
C846 C847 1.362 . S
C847 H837 0.930 . S
C847 C840 1.409 . S
C847 C846 1.362 . S
H848 C854 0.930 . S
H849 C857 0.930 . S
H850 C858 0.930 . S
H851 C859 0.930 . S
H852 C862 0.930 . S
H853 C863 0.930 . S
C854 H848 0.930 . S
C854 C855 1.355 . S
C854 C856 1.415 . S
C855 C854 1.355 . S
C855 C857 1.419 . S
C856 C854 1.415 . S
C856 C861 1.425 . S
C856 C863 1.409 . S
C857 H849 0.930 . S
C857 C855 1.419 . S
C857 C858 1.362 . S
C858 H850 0.930 . S
C858 C857 1.362 . S
C858 C861 1.409 . S
C859 H851 0.930 . S
C859 C860 1.355 . S
C859 C861 1.415 . S
C860 C859 1.355 . S
C860 C862 1.419 . S
C861 C856 1.425 . S
C861 C858 1.409 . S
C861 C859 1.415 . S
C862 H852 0.930 . S
C862 C860 1.419 . S
C862 C863 1.362 . S
C863 H853 0.930 . S
C863 C856 1.409 . S
C863 C862 1.362 . S
H864 C870 0.930 . S
H865 C873 0.930 . S
H866 C874 0.930 . S
H867 C875 0.930 . S
H868 C878 0.930 . S
H869 C879 0.930 . S
C870 H864 0.930 . S
C870 C871 1.355 . S
C870 C872 1.415 . S
C871 C870 1.355 . S
C871 C873 1.419 . S
C872 C870 1.415 . S
C872 C877 1.425 . S
C872 C879 1.409 . S
C873 H865 0.930 . S
C873 C871 1.419 . S
C873 C874 1.362 . S
C874 H866 0.930 . S
C874 C873 1.362 . S
C874 C877 1.409 . S
C875 H867 0.930 . S
C875 C876 1.355 . S
C875 C877 1.415 . S
C876 C875 1.355 . S
C876 C878 1.419 . S
C877 C872 1.425 . S
C877 C874 1.409 . S
C877 C875 1.415 . S
C878 H868 0.930 . S
C878 C876 1.419 . S
C878 C879 1.362 . S
C879 H869 0.930 . S
C879 C872 1.409 . S
C879 C878 1.362 . S
H880 C886 0.930 . S
H881 C889 0.930 . S
H882 C890 0.930 . S
H883 C891 0.930 . S
H884 C894 0.930 . S
H885 C895 0.930 . S
C886 H880 0.930 . S
C886 C887 1.355 . S
C886 C888 1.415 . S
C887 C886 1.355 . S
C887 C889 1.419 . S
C888 C886 1.415 . S
C888 C893 1.425 . S
C888 C895 1.409 . S
C889 H881 0.930 . S
C889 C887 1.419 . S
C889 C890 1.362 . S
C890 H882 0.930 . S
C890 C889 1.362 . S
C890 C893 1.409 . S
C891 H883 0.930 . S
C891 C892 1.355 . S
C891 C893 1.415 . S
C892 C891 1.355 . S
C892 C894 1.419 . S
C893 C888 1.425 . S
C893 C890 1.409 . S
C893 C891 1.415 . S
C894 H884 0.930 . S
C894 C892 1.419 . S
C894 C895 1.362 . S
C895 H885 0.930 . S
C895 C888 1.409 . S
C895 C894 1.362 . S
H896 C902 0.930 . S
H897 C905 0.930 . S
H898 C906 0.930 . S
H899 C907 0.930 . S
H900 C910 0.930 . S
H901 C911 0.930 . S
C902 H896 0.930 . S
C902 C903 1.355 . S
C902 C904 1.415 . S
C903 C902 1.355 . S
C903 C905 1.419 . S
C904 C902 1.415 . S
C904 C909 1.425 . S
C904 C911 1.409 . S
C905 H897 0.930 . S
C905 C903 1.419 . S
C905 C906 1.362 . S
C906 H898 0.930 . S
C906 C905 1.362 . S
C906 C909 1.409 . S
C907 H899 0.930 . S
C907 C908 1.355 . S
C907 C909 1.415 . S
C908 C907 1.355 . S
C908 C910 1.419 . S
C909 C904 1.425 . S
C909 C906 1.409 . S
C909 C907 1.415 . S
C910 H900 0.930 . S
C910 C908 1.419 . S
C910 C911 1.362 . S
C911 H901 0.930 . S
C911 C904 1.409 . S
C911 C910 1.362 . S
H912 C918 0.930 . S
H913 C921 0.930 . S
H914 C922 0.930 . S
H915 C923 0.930 . S
H916 C926 0.930 . S
H917 C927 0.930 . S
C918 H912 0.930 . S
C918 C919 1.355 . S
C918 C920 1.415 . S
C919 C918 1.355 . S
C919 C921 1.419 . S
C920 C918 1.415 . S
C920 C925 1.425 . S
C920 C927 1.409 . S
C921 H913 0.930 . S
C921 C919 1.419 . S
C921 C922 1.362 . S
C922 H914 0.930 . S
C922 C921 1.362 . S
C922 C925 1.409 . S
C923 H915 0.930 . S
C923 C924 1.355 . S
C923 C925 1.415 . S
C924 C923 1.355 . S
C924 C926 1.419 . S
C925 C920 1.425 . S
C925 C922 1.409 . S
C925 C923 1.415 . S
C926 H916 0.930 . S
C926 C924 1.419 . S
C926 C927 1.362 . S
C927 H917 0.930 . S
C927 C920 1.409 . S
C927 C926 1.362 . S
H928 C934 0.930 . S
H929 C937 0.930 1_455 S
H930 C938 0.930 . S
H931 C939 0.930 . S
H932 C942 0.930 . S
H933 C943 0.930 . S
C934 H928 0.930 . S
C934 C935 1.355 . S
C934 C936 1.415 . S
C935 C934 1.355 . S
C935 C937 1.419 . S
C936 C934 1.415 . S
C936 C941 1.425 . S
C936 C943 1.409 . S
C937 H929 0.930 1_655 S
C937 C935 1.419 . S
C937 C938 1.362 . S
C938 H930 0.930 . S
C938 C937 1.362 . S
C938 C941 1.409 . S
C939 H931 0.930 . S
C939 C940 1.355 . S
C939 C941 1.415 . S
C940 C939 1.355 . S
C940 C942 1.419 . S
C941 C936 1.425 . S
C941 C938 1.409 . S
C941 C939 1.415 . S
C942 H932 0.930 . S
C942 C940 1.419 . S
C942 C943 1.362 . S
C943 H933 0.930 . S
C943 C936 1.409 . S
C943 C942 1.362 . S
H944 C950 0.930 . S
H945 C953 0.930 . S
H946 C954 0.930 . S
H947 C955 0.930 . S
H948 C958 0.930 . S
H949 C959 0.930 . S
C950 H944 0.930 . S
C950 C951 1.355 . S
C950 C952 1.415 . S
C951 C950 1.355 . S
C951 C953 1.419 . S
C952 C950 1.415 . S
C952 C957 1.425 . S
C952 C959 1.409 . S
C953 H945 0.930 . S
C953 C951 1.419 . S
C953 C954 1.362 . S
C954 H946 0.930 . S
C954 C953 1.362 . S
C954 C957 1.409 . S
C955 H947 0.930 . S
C955 C956 1.355 . S
C955 C957 1.415 . S
C956 C955 1.355 . S
C956 C958 1.419 . S
C957 C952 1.425 . S
C957 C954 1.409 . S
C957 C955 1.415 . S
C958 H948 0.930 . S
C958 C956 1.419 . S
C958 C959 1.362 . S
C959 H949 0.930 . S
C959 C952 1.409 . S
C959 C958 1.362 . S
H960 C966 0.930 . S
H961 C969 0.930 . S
H962 C970 0.930 . S
H963 C971 0.930 . S
H964 C974 0.930 . S
H965 C975 0.930 . S
C966 H960 0.930 . S
C966 C967 1.355 . S
C966 C968 1.415 . S
C967 C966 1.355 . S
C967 C969 1.419 . S
C968 C966 1.415 . S
C968 C973 1.425 . S
C968 C975 1.409 . S
C969 H961 0.930 . S
C969 C967 1.419 . S
C969 C970 1.362 . S
C970 H962 0.930 . S
C970 C969 1.362 . S
C970 C973 1.409 . S
C971 H963 0.930 . S
C971 C972 1.355 . S
C971 C973 1.415 . S
C972 C971 1.355 . S
C972 C974 1.419 . S
C973 C968 1.425 . S
C973 C970 1.409 . S
C973 C971 1.415 . S
C974 H964 0.930 . S
C974 C972 1.419 . S
C974 C975 1.362 . S
C975 H965 0.930 . S
C975 C968 1.409 . S
C975 C974 1.362 . S
H976 C982 0.930 . S
H977 C985 0.930 . S
H978 C986 0.930 . S
H979 C987 0.930 . S
H980 C990 0.930 . S
H981 C991 0.930 . S
C982 H976 0.930 . S
C982 C983 1.355 . S
C982 C984 1.415 . S
C983 C982 1.355 . S
C983 C985 1.419 . S
C984 C982 1.415 . S
C984 C989 1.425 . S
C984 C991 1.409 . S
C985 H977 0.930 . S
C985 C983 1.419 . S
C985 C986 1.362 . S
C986 H978 0.930 . S
C986 C985 1.362 . S
C986 C989 1.409 . S
C987 H979 0.930 . S
C987 C988 1.355 . S
C987 C989 1.415 . S
C988 C987 1.355 . S
C988 C990 1.419 . S
C989 C984 1.425 . S
C989 C986 1.409 . S
C989 C987 1.415 . S
C990 H980 0.930 . S
C990 C988 1.419 . S
C990 C991 1.362 . S
C991 H981 0.930 . S
C991 C984 1.409 . S
C991 C990 1.362 . S
H992 C998 0.930 . S
H993 C1001 0.930 1_556 S
H994 C1002 0.930 . S
H995 C1003 0.930 . S
H996 C1006 0.930 . S
H997 C1007 0.930 . S
C998 H992 0.930 . S
C998 C999 1.355 . S
C998 C1000 1.415 . S
C999 C998 1.355 . S
C999 C1001 1.419 . S
C1000 C998 1.415 . S
C1000 C1005 1.425 . S
C1000 C1007 1.409 . S
C1001 H993 0.930 1_554 S
C1001 C999 1.419 . S
C1001 C1002 1.362 . S
C1002 H994 0.930 . S
C1002 C1001 1.362 . S
C1002 C1005 1.409 . S
C1003 H995 0.930 . S
C1003 C1004 1.355 . S
C1003 C1005 1.415 . S
C1004 C1003 1.355 . S
C1004 C1006 1.419 . S
C1005 C1000 1.425 . S
C1005 C1002 1.409 . S
C1005 C1003 1.415 . S
C1006 H996 0.930 . S
C1006 C1004 1.419 . S
C1006 C1007 1.362 . S
C1007 H997 0.930 . S
C1007 C1000 1.409 . S
C1007 C1006 1.362 . S
H1008 C1014 0.930 . S
H1009 C1017 0.930 . S
H1010 C1018 0.930 . S
H1011 C1019 0.930 . S
H1012 C1022 0.930 . S
H1013 C1023 0.930 . S
C1014 H1008 0.930 . S
C1014 C1015 1.355 . S
C1014 C1016 1.415 . S
C1015 C1014 1.355 . S
C1015 C1017 1.419 . S
C1016 C1014 1.415 . S
C1016 C1021 1.425 . S
C1016 C1023 1.409 . S
C1017 H1009 0.930 . S
C1017 C1015 1.419 . S
C1017 C1018 1.362 . S
C1018 H1010 0.930 . S
C1018 C1017 1.362 . S
C1018 C1021 1.409 . S
C1019 H1011 0.930 . S
C1019 C1020 1.355 . S
C1019 C1021 1.415 . S
C1020 C1019 1.355 . S
C1020 C1022 1.419 . S
C1021 C1016 1.425 . S
C1021 C1018 1.409 . S
C1021 C1019 1.415 . S
C1022 H1012 0.930 . S
C1022 C1020 1.419 . S
C1022 C1023 1.362 . S
C1023 H1013 0.930 . S
C1023 C1016 1.409 . S
C1023 C1022 1.362 . S
H1024 C1030 0.930 . S
H1025 C1033 0.930 . S
H1026 C1034 0.930 . S
H1027 C1035 0.930 . S
H1028 C1038 0.930 . S
H1029 C1039 0.930 . S
C1030 H1024 0.930 . S
C1030 C1031 1.355 . S
C1030 C1032 1.415 . S
C1031 C1030 1.355 . S
C1031 C1033 1.419 . S
C1032 C1030 1.415 . S
C1032 C1037 1.425 . S
C1032 C1039 1.409 . S
C1033 H1025 0.930 . S
C1033 C1031 1.419 . S
C1033 C1034 1.362 . S
C1034 H1026 0.930 . S
C1034 C1033 1.362 . S
C1034 C1037 1.409 . S
C1035 H1027 0.930 . S
C1035 C1036 1.355 . S
C1035 C1037 1.415 . S
C1036 C1035 1.355 . S
C1036 C1038 1.419 . S
C1037 C1032 1.425 . S
C1037 C1034 1.409 . S
C1037 C1035 1.415 . S
C1038 H1028 0.930 . S
C1038 C1036 1.419 . S
C1038 C1039 1.362 . S
C1039 H1029 0.930 . S
C1039 C1032 1.409 . S
C1039 C1038 1.362 . S
H1040 C1046 0.930 . S
H1041 C1049 0.930 . S
H1042 C1050 0.930 . S
H1043 C1051 0.930 . S
H1044 C1054 0.930 . S
H1045 C1055 0.930 . S
C1046 H1040 0.930 . S
C1046 C1047 1.355 . S
C1046 C1048 1.415 . S
C1047 C1046 1.355 . S
C1047 C1049 1.419 . S
C1048 C1046 1.415 . S
C1048 C1053 1.425 . S
C1048 C1055 1.409 . S
C1049 H1041 0.930 . S
C1049 C1047 1.419 . S
C1049 C1050 1.362 . S
C1050 H1042 0.930 . S
C1050 C1049 1.362 . S
C1050 C1053 1.409 . S
C1051 H1043 0.930 . S
C1051 C1052 1.355 . S
C1051 C1053 1.415 . S
C1052 C1051 1.355 . S
C1052 C1054 1.419 . S
C1053 C1048 1.425 . S
C1053 C1050 1.409 . S
C1053 C1051 1.415 . S
C1054 H1044 0.930 . S
C1054 C1052 1.419 . S
C1054 C1055 1.362 . S
C1055 H1045 0.930 . S
C1055 C1048 1.409 . S
C1055 C1054 1.362 . S
H1056 C1062 0.930 . S
H1057 C1065 0.930 . S
H1058 C1066 0.930 . S
H1059 C1067 0.930 . S
H1060 C1070 0.930 . S
H1061 C1071 0.930 . S
C1062 H1056 0.930 . S
C1062 C1063 1.355 . S
C1062 C1064 1.415 . S
C1063 C1062 1.355 . S
C1063 C1065 1.419 . S
C1064 C1062 1.415 . S
C1064 C1069 1.425 . S
C1064 C1071 1.409 . S
C1065 H1057 0.930 . S
C1065 C1063 1.419 . S
C1065 C1066 1.362 . S
C1066 H1058 0.930 . S
C1066 C1065 1.362 . S
C1066 C1069 1.409 . S
C1067 H1059 0.930 . S
C1067 C1068 1.355 . S
C1067 C1069 1.415 . S
C1068 C1067 1.355 . S
C1068 C1070 1.419 . S
C1069 C1064 1.425 . S
C1069 C1066 1.409 . S
C1069 C1067 1.415 . S
C1070 H1060 0.930 . S
C1070 C1068 1.419 . S
C1070 C1071 1.362 . S
C1071 H1061 0.930 . S
C1071 C1064 1.409 . S
C1071 C1070 1.362 . S
H1072 C1078 0.930 . S
H1073 C1081 0.930 . S
H1074 C1082 0.930 . S
H1075 C1083 0.930 . S
H1076 C1086 0.930 . S
H1077 C1087 0.930 . S
C1078 H1072 0.930 . S
C1078 C1079 1.355 . S
C1078 C1080 1.415 . S
C1079 C1078 1.355 . S
C1079 C1081 1.419 . S
C1080 C1078 1.415 . S
C1080 C1085 1.425 . S
C1080 C1087 1.409 . S
C1081 H1073 0.930 . S
C1081 C1079 1.419 . S
C1081 C1082 1.362 . S
C1082 H1074 0.930 . S
C1082 C1081 1.362 . S
C1082 C1085 1.409 . S
C1083 H1075 0.930 . S
C1083 C1084 1.355 . S
C1083 C1085 1.415 . S
C1084 C1083 1.355 . S
C1084 C1086 1.419 . S
C1085 C1080 1.425 . S
C1085 C1082 1.409 . S
C1085 C1083 1.415 . S
C1086 H1076 0.930 . S
C1086 C1084 1.419 . S
C1086 C1087 1.362 . S
C1087 H1077 0.930 . S
C1087 C1080 1.409 . S
C1087 C1086 1.362 . S
H1088 C1094 0.930 . S
H1089 C1097 0.930 . S
H1090 C1098 0.930 . S
H1091 C1099 0.930 . S
H1092 C1102 0.930 . S
H1093 C1103 0.930 . S
C1094 H1088 0.930 . S
C1094 C1095 1.355 . S
C1094 C1096 1.415 . S
C1095 C1094 1.355 . S
C1095 C1097 1.419 . S
C1096 C1094 1.415 . S
C1096 C1101 1.425 . S
C1096 C1103 1.409 . S
C1097 H1089 0.930 . S
C1097 C1095 1.419 . S
C1097 C1098 1.362 . S
C1098 H1090 0.930 . S
C1098 C1097 1.362 . S
C1098 C1101 1.409 . S
C1099 H1091 0.930 . S
C1099 C1100 1.355 . S
C1099 C1101 1.415 . S
C1100 C1099 1.355 . S
C1100 C1102 1.419 . S
C1101 C1096 1.425 . S
C1101 C1098 1.409 . S
C1101 C1099 1.415 . S
C1102 H1092 0.930 . S
C1102 C1100 1.419 . S
C1102 C1103 1.362 . S
C1103 H1093 0.930 . S
C1103 C1096 1.409 . S
C1103 C1102 1.362 . S
H1104 C1110 0.930 . S
H1105 C1113 0.930 1_565 S
H1106 C1114 0.930 . S
H1107 C1115 0.930 . S
H1108 C1118 0.930 . S
H1109 C1119 0.930 . S
C1110 H1104 0.930 . S
C1110 C1111 1.355 . S
C1110 C1112 1.415 . S
C1111 C1110 1.355 . S
C1111 C1113 1.419 . S
C1112 C1110 1.415 . S
C1112 C1117 1.425 . S
C1112 C1119 1.409 . S
C1113 H1105 0.930 1_545 S
C1113 C1111 1.419 . S
C1113 C1114 1.362 . S
C1114 H1106 0.930 . S
C1114 C1113 1.362 . S
C1114 C1117 1.409 . S
C1115 H1107 0.930 . S
C1115 C1116 1.355 . S
C1115 C1117 1.415 . S
C1116 C1115 1.355 . S
C1116 C1118 1.419 . S
C1117 C1112 1.425 . S
C1117 C1114 1.409 . S
C1117 C1115 1.415 . S
C1118 H1108 0.930 . S
C1118 C1116 1.419 . S
C1118 C1119 1.362 . S
C1119 H1109 0.930 . S
C1119 C1112 1.409 . S
C1119 C1118 1.362 . S
H1120 C1126 0.930 . S
H1121 C1129 0.930 . S
H1122 C1130 0.930 . S
H1123 C1131 0.930 . S
H1124 C1134 0.930 . S
H1125 C1135 0.930 . S
C1126 H1120 0.930 . S
C1126 C1127 1.355 . S
C1126 C1128 1.415 . S
C1127 C1126 1.355 . S
C1127 C1129 1.419 . S
C1128 C1126 1.415 . S
C1128 C1133 1.425 . S
C1128 C1135 1.409 . S
C1129 H1121 0.930 . S
C1129 C1127 1.419 . S
C1129 C1130 1.362 . S
C1130 H1122 0.930 . S
C1130 C1129 1.362 . S
C1130 C1133 1.409 . S
C1131 H1123 0.930 . S
C1131 C1132 1.355 . S
C1131 C1133 1.415 . S
C1132 C1131 1.355 . S
C1132 C1134 1.419 . S
C1133 C1128 1.425 . S
C1133 C1130 1.409 . S
C1133 C1131 1.415 . S
C1134 H1124 0.930 . S
C1134 C1132 1.419 . S
C1134 C1135 1.362 . S
C1135 H1125 0.930 . S
C1135 C1128 1.409 . S
C1135 C1134 1.362 . S
H1136 C1142 0.930 . S
H1137 C1145 0.930 . S
H1138 C1146 0.930 . S
H1139 C1147 0.930 . S
H1140 C1150 0.930 . S
H1141 C1151 0.930 . S
C1142 H1136 0.930 . S
C1142 C1143 1.355 . S
C1142 C1144 1.415 . S
C1143 C1142 1.355 . S
C1143 C1145 1.419 . S
C1144 C1142 1.415 . S
C1144 C1149 1.425 . S
C1144 C1151 1.409 . S
C1145 H1137 0.930 . S
C1145 C1143 1.419 . S
C1145 C1146 1.362 . S
C1146 H1138 0.930 . S
C1146 C1145 1.362 . S
C1146 C1149 1.409 . S
C1147 H1139 0.930 . S
C1147 C1148 1.355 . S
C1147 C1149 1.415 . S
C1148 C1147 1.355 . S
C1148 C1150 1.419 . S
C1149 C1144 1.425 . S
C1149 C1146 1.409 . S
C1149 C1147 1.415 . S
C1150 H1140 0.930 . S
C1150 C1148 1.419 . S
C1150 C1151 1.362 . S
C1151 H1141 0.930 . S
C1151 C1144 1.409 . S
C1151 C1150 1.362 . S
H1152 C1158 0.930 . S
H1153 C1161 0.930 . S
H1154 C1162 0.930 . S
H1155 C1163 0.930 . S
H1156 C1166 0.930 . S
H1157 C1167 0.930 . S
C1158 H1152 0.930 . S
C1158 C1159 1.355 . S
C1158 C1160 1.415 . S
C1159 C1158 1.355 . S
C1159 C1161 1.419 . S
C1160 C1158 1.415 . S
C1160 C1165 1.425 . S
C1160 C1167 1.409 . S
C1161 H1153 0.930 . S
C1161 C1159 1.419 . S
C1161 C1162 1.362 . S
C1162 H1154 0.930 . S
C1162 C1161 1.362 . S
C1162 C1165 1.409 . S
C1163 H1155 0.930 . S
C1163 C1164 1.355 . S
C1163 C1165 1.415 . S
C1164 C1163 1.355 . S
C1164 C1166 1.419 . S
C1165 C1160 1.425 . S
C1165 C1162 1.409 . S
C1165 C1163 1.415 . S
C1166 H1156 0.930 . S
C1166 C1164 1.419 . S
C1166 C1167 1.362 . S
C1167 H1157 0.930 . S
C1167 C1160 1.409 . S
C1167 C1166 1.362 . S
H1168 C1174 0.930 . S
H1169 C1177 0.930 . S
H1170 C1178 0.930 . S
H1171 C1179 0.930 . S
H1172 C1182 0.930 . S
H1173 C1183 0.930 . S
C1174 H1168 0.930 . S
C1174 C1175 1.355 . S
C1174 C1176 1.415 . S
C1175 C1174 1.355 . S
C1175 C1177 1.419 . S
C1176 C1174 1.415 . S
C1176 C1181 1.425 . S
C1176 C1183 1.409 . S
C1177 H1169 0.930 . S
C1177 C1175 1.419 . S
C1177 C1178 1.362 . S
C1178 H1170 0.930 . S
C1178 C1177 1.362 . S
C1178 C1181 1.409 . S
C1179 H1171 0.930 . S
C1179 C1180 1.355 . S
C1179 C1181 1.415 . S
C1180 C1179 1.355 . S
C1180 C1182 1.419 . S
C1181 C1176 1.425 . S
C1181 C1178 1.409 . S
C1181 C1179 1.415 . S
C1182 H1172 0.930 . S
C1182 C1180 1.419 . S
C1182 C1183 1.362 . S
C1183 H1173 0.930 . S
C1183 C1176 1.409 . S
C1183 C1182 1.362 . S
H1184 C1190 0.930 . S
H1185 C1193 0.930 1_565 S
H1186 C1194 0.930 . S
H1187 C1195 0.930 . S
H1188 C1198 0.930 . S
H1189 C1199 0.930 . S
C1190 H1184 0.930 . S
C1190 C1191 1.355 . S
C1190 C1192 1.415 . S
C1191 C1190 1.355 . S
C1191 C1193 1.419 . S
C1192 C1190 1.415 . S
C1192 C1197 1.425 . S
C1192 C1199 1.409 . S
C1193 H1185 0.930 1_545 S
C1193 C1191 1.419 . S
C1193 C1194 1.362 . S
C1194 H1186 0.930 . S
C1194 C1193 1.362 . S
C1194 C1197 1.409 . S
C1195 H1187 0.930 . S
C1195 C1196 1.355 . S
C1195 C1197 1.415 . S
C1196 C1195 1.355 . S
C1196 C1198 1.419 . S
C1197 C1192 1.425 . S
C1197 C1194 1.409 . S
C1197 C1195 1.415 . S
C1198 H1188 0.930 . S
C1198 C1196 1.419 . S
C1198 C1199 1.362 . S
C1199 H1189 0.930 . S
C1199 C1192 1.409 . S
C1199 C1198 1.362 . S
H1200 C1206 0.930 . S
H1201 C1209 0.930 . S
H1202 C1210 0.930 . S
H1203 C1211 0.930 . S
H1204 C1214 0.930 . S
H1205 C1215 0.930 . S
C1206 H1200 0.930 . S
C1206 C1207 1.355 . S
C1206 C1208 1.401 1_556 S
C1207 C1206 1.355 . S
C1207 C1209 1.419 1_655 S
C1208 C1206 1.401 1_554 S
C1208 C1213 1.425 1_654 S
C1208 C1215 1.424 . S
C1209 H1201 0.930 . S
C1209 C1207 1.419 1_455 S
C1209 C1210 1.362 . S
C1210 H1202 0.930 . S
C1210 C1209 1.362 . S
C1210 C1213 1.424 . S
C1211 H1203 0.930 . S
C1211 C1212 1.355 . S
C1211 C1213 1.401 1_554 S
C1212 C1211 1.355 . S
C1212 C1214 1.419 1_455 S
C1213 C1208 1.425 1_456 S
C1213 C1210 1.424 . S
C1213 C1211 1.401 1_556 S
C1214 H1204 0.930 . S
C1214 C1212 1.419 1_655 S
C1214 C1215 1.362 . S
C1215 H1205 0.930 . S
C1215 C1208 1.424 . S
C1215 C1214 1.362 . S
H1216 C1222 0.930 . S
H1217 C1225 0.930 . S
H1218 C1226 0.930 . S
H1219 C1227 0.930 . S
H1220 C1230 0.930 . S
H1221 C1231 0.930 . S
C1222 H1216 0.930 . S
C1222 C1223 1.355 . S
C1222 C1224 1.415 . S
C1223 C1222 1.355 . S
C1223 C1225 1.419 . S
C1224 C1222 1.415 . S
C1224 C1229 1.425 . S
C1224 C1231 1.409 . S
C1225 H1217 0.930 . S
C1225 C1223 1.419 . S
C1225 C1226 1.362 . S
C1226 H1218 0.930 . S
C1226 C1225 1.362 . S
C1226 C1229 1.409 . S
C1227 H1219 0.930 . S
C1227 C1228 1.355 . S
C1227 C1229 1.415 . S
C1228 C1227 1.355 . S
C1228 C1230 1.419 . S
C1229 C1224 1.425 . S
C1229 C1226 1.409 . S
C1229 C1227 1.415 . S
C1230 H1220 0.930 . S
C1230 C1228 1.419 . S
C1230 C1231 1.362 . S
C1231 H1221 0.930 . S
C1231 C1224 1.409 . S
C1231 C1230 1.362 . S
H1232 C1238 0.930 . S
H1233 C1241 0.930 . S
H1234 C1242 0.930 . S
H1235 C1243 0.930 . S
H1236 C1246 0.930 . S
H1237 C1247 0.930 . S
C1238 H1232 0.930 . S
C1238 C1239 1.355 . S
C1238 C1240 1.433 . S
C1239 C1238 1.355 . S
C1239 C1241 1.419 . S
C1240 C1238 1.433 . S
C1240 C1245 1.423 1_456 S
C1240 C1247 1.394 1_456 S
C1241 H1233 0.930 . S
C1241 C1239 1.419 . S
C1241 C1242 1.362 . S
C1242 H1234 0.930 . S
C1242 C1241 1.362 . S
C1242 C1245 1.394 1_456 S
C1243 H1235 0.930 . S
C1243 C1244 1.355 . S
C1243 C1245 1.433 . S
C1244 C1243 1.355 . S
C1244 C1246 1.419 . S
C1245 C1240 1.423 1_654 S
C1245 C1242 1.394 1_654 S
C1245 C1243 1.433 . S
C1246 H1236 0.930 . S
C1246 C1244 1.419 . S
C1246 C1247 1.362 . S
C1247 H1237 0.930 . S
C1247 C1240 1.394 1_654 S
C1247 C1246 1.362 . S
H1248 C1254 0.930 . S
H1249 C1257 0.930 . S
H1250 C1258 0.930 . S
H1251 C1259 0.930 . S
H1252 C1262 0.930 . S
H1253 C1263 0.930 . S
C1254 H1248 0.930 . S
C1254 C1255 1.355 . S
C1254 C1256 1.415 . S
C1255 C1254 1.355 . S
C1255 C1257 1.419 . S
C1256 C1254 1.415 . S
C1256 C1261 1.425 . S
C1256 C1263 1.409 . S
C1257 H1249 0.930 . S
C1257 C1255 1.419 . S
C1257 C1258 1.362 . S
C1258 H1250 0.930 . S
C1258 C1257 1.362 . S
C1258 C1261 1.409 . S
C1259 H1251 0.930 . S
C1259 C1260 1.355 . S
C1259 C1261 1.415 . S
C1260 C1259 1.355 . S
C1260 C1262 1.419 . S
C1261 C1256 1.425 . S
C1261 C1258 1.409 . S
C1261 C1259 1.415 . S
C1262 H1252 0.930 . S
C1262 C1260 1.419 . S
C1262 C1263 1.362 . S
C1263 H1253 0.930 . S
C1263 C1256 1.409 . S
C1263 C1262 1.362 . S
H1264 C1270 0.930 . S
H1265 C1273 0.930 . S
H1266 C1274 0.930 . S
H1267 C1275 0.930 . S
H1268 C1278 0.930 . S
H1269 C1279 0.930 . S
C1270 H1264 0.930 . S
C1270 C1271 1.355 1_545 S
C1270 C1272 1.415 . S
C1271 C1270 1.355 1_565 S
C1271 C1273 1.419 . S
C1272 C1270 1.415 . S
C1272 C1277 1.425 1_645 S
C1272 C1279 1.409 . S
C1273 H1265 0.930 . S
C1273 C1271 1.419 . S
C1273 C1274 1.362 1_655 S
C1274 H1266 0.930 . S
C1274 C1273 1.362 1_455 S
C1274 C1277 1.409 . S
C1275 H1267 0.930 . S
C1275 C1276 1.355 1_565 S
C1275 C1277 1.415 . S
C1276 C1275 1.355 1_545 S
C1276 C1278 1.419 . S
C1277 C1272 1.425 1_465 S
C1277 C1274 1.409 . S
C1277 C1275 1.415 . S
C1278 H1268 0.930 . S
C1278 C1276 1.419 . S
C1278 C1279 1.362 1_455 S
C1279 H1269 0.930 . S
C1279 C1272 1.409 . S
C1279 C1278 1.362 1_655 S
H1280 C1286 0.930 . S
H1281 C1289 0.930 . S
H1282 C1290 0.930 . S
H1283 C1291 0.930 . S
H1284 C1294 0.930 . S
H1285 C1295 0.930 . S
C1286 H1280 0.930 . S
C1286 C1287 1.355 . S
C1286 C1288 1.415 . S
C1287 C1286 1.355 . S
C1287 C1289 1.419 . S
C1288 C1286 1.415 . S
C1288 C1293 1.425 . S
C1288 C1295 1.409 . S
C1289 H1281 0.930 . S
C1289 C1287 1.419 . S
C1289 C1290 1.362 . S
C1290 H1282 0.930 . S
C1290 C1289 1.362 . S
C1290 C1293 1.409 . S
C1291 H1283 0.930 . S
C1291 C1292 1.355 . S
C1291 C1293 1.415 . S
C1292 C1291 1.355 . S
C1292 C1294 1.419 . S
C1293 C1288 1.425 . S
C1293 C1290 1.409 . S
C1293 C1291 1.415 . S
C1294 H1284 0.930 . S
C1294 C1292 1.419 . S
C1294 C1295 1.362 . S
C1295 H1285 0.930 . S
C1295 C1288 1.409 . S
C1295 C1294 1.362 . S
H1296 C1302 0.930 . S
H1297 C1305 0.930 . S
H1298 C1306 0.930 1_545 S
H1299 C1307 0.930 . S
H1300 C1310 0.930 . S
H1301 C1311 0.930 1_565 S
C1302 H1296 0.930 . S
C1302 C1303 1.355 . S
C1302 C1304 1.415 . S
C1303 C1302 1.355 . S
C1303 C1305 1.419 . S
C1304 C1302 1.415 . S
C1304 C1309 1.425 1_465 S
C1304 C1311 1.409 1_465 S
C1305 H1297 0.930 . S
C1305 C1303 1.419 . S
C1305 C1306 1.362 . S
C1306 H1298 0.930 1_565 S
C1306 C1305 1.362 . S
C1306 C1309 1.409 1_465 S
C1307 H1299 0.930 . S
C1307 C1308 1.355 . S
C1307 C1309 1.415 . S
C1308 C1307 1.355 . S
C1308 C1310 1.419 . S
C1309 C1304 1.425 1_645 S
C1309 C1306 1.409 1_645 S
C1309 C1307 1.415 . S
C1310 H1300 0.930 . S
C1310 C1308 1.419 . S
C1310 C1311 1.362 . S
C1311 H1301 0.930 1_545 S
C1311 C1304 1.409 1_645 S
C1311 C1310 1.362 . S
H1312 C1318 0.930 . S
H1313 C1321 0.930 . S
H1314 C1322 0.930 . S
H1315 C1323 0.930 . S
H1316 C1326 0.930 . S
H1317 C1327 0.930 . S
C1318 H1312 0.930 . S
C1318 C1319 1.355 . S
C1318 C1320 1.415 . S
C1319 C1318 1.355 . S
C1319 C1321 1.419 . S
C1320 C1318 1.415 . S
C1320 C1325 1.425 . S
C1320 C1327 1.409 . S
C1321 H1313 0.930 . S
C1321 C1319 1.419 . S
C1321 C1322 1.362 . S
C1322 H1314 0.930 . S
C1322 C1321 1.362 . S
C1322 C1325 1.409 . S
C1323 H1315 0.930 . S
C1323 C1324 1.355 . S
C1323 C1325 1.415 . S
C1324 C1323 1.355 . S
C1324 C1326 1.419 . S
C1325 C1320 1.425 . S
C1325 C1322 1.409 . S
C1325 C1323 1.415 . S
C1326 H1316 0.930 . S
C1326 C1324 1.419 . S
C1326 C1327 1.362 . S
C1327 H1317 0.930 . S
C1327 C1320 1.409 . S
C1327 C1326 1.362 . S
H1328 C1334 0.930 . S
H1329 C1337 0.930 . S
H1330 C1338 0.930 . S
H1331 C1339 0.930 . S
H1332 C1342 0.930 . S
H1333 C1343 0.930 . S
C1334 H1328 0.930 . S
C1334 C1335 1.355 . S
C1334 C1336 1.398 1_554 S
C1335 C1334 1.355 . S
C1335 C1337 1.419 . S
C1336 C1334 1.398 1_556 S
C1336 C1341 1.423 1_546 S
C1336 C1343 1.429 1_545 S
C1337 H1329 0.930 . S
C1337 C1335 1.419 . S
C1337 C1338 1.362 . S
C1338 H1330 0.930 . S
C1338 C1337 1.362 . S
C1338 C1341 1.429 1_545 S
C1339 H1331 0.930 . S
C1339 C1340 1.355 . S
C1339 C1341 1.398 1_556 S
C1340 C1339 1.355 . S
C1340 C1342 1.419 . S
C1341 C1336 1.423 1_564 S
C1341 C1338 1.429 1_565 S
C1341 C1339 1.398 1_554 S
C1342 H1332 0.930 . S
C1342 C1340 1.419 . S
C1342 C1343 1.362 . S
C1343 H1333 0.930 . S
C1343 C1336 1.429 1_565 S
C1343 C1342 1.362 . S
H1344 C1350 0.930 . S
H1345 C1353 0.930 . S
H1346 C1354 0.930 . S
H1347 C1355 0.930 . S
H1348 C1358 0.930 . S
H1349 C1359 0.930 . S
C1350 H1344 0.930 . S
C1350 C1351 1.355 . S
C1350 C1352 1.415 . S
C1351 C1350 1.355 . S
C1351 C1353 1.419 . S
C1352 C1350 1.415 . S
C1352 C1357 1.425 . S
C1352 C1359 1.409 . S
C1353 H1345 0.930 . S
C1353 C1351 1.419 . S
C1353 C1354 1.362 . S
C1354 H1346 0.930 . S
C1354 C1353 1.362 . S
C1354 C1357 1.409 . S
C1355 H1347 0.930 . S
C1355 C1356 1.355 . S
C1355 C1357 1.415 . S
C1356 C1355 1.355 . S
C1356 C1358 1.419 . S
C1357 C1352 1.425 . S
C1357 C1354 1.409 . S
C1357 C1355 1.415 . S
C1358 H1348 0.930 . S
C1358 C1356 1.419 . S
C1358 C1359 1.362 . S
C1359 H1349 0.930 . S
C1359 C1352 1.409 . S
C1359 C1358 1.362 . S
H1360 C1366 0.930 . S
H1361 C1369 0.930 . S
H1362 C1370 0.930 1_554 S
H1363 C1371 0.930 . S
H1364 C1374 0.930 . S
H1365 C1375 0.930 1_556 S
C1366 H1360 0.930 . S
C1366 C1367 1.355 . S
C1366 C1368 1.415 . S
C1367 C1366 1.355 . S
C1367 C1369 1.419 . S
C1368 C1366 1.415 . S
C1368 C1373 1.425 1_546 S
C1368 C1375 1.409 1_546 S
C1369 H1361 0.930 . S
C1369 C1367 1.419 . S
C1369 C1370 1.362 . S
C1370 H1362 0.930 1_556 S
C1370 C1369 1.362 . S
C1370 C1373 1.409 1_546 S
C1371 H1363 0.930 . S
C1371 C1372 1.355 . S
C1371 C1373 1.415 . S
C1372 C1371 1.355 . S
C1372 C1374 1.419 . S
C1373 C1368 1.425 1_564 S
C1373 C1370 1.409 1_564 S
C1373 C1371 1.415 . S
C1374 H1364 0.930 . S
C1374 C1372 1.419 . S
C1374 C1375 1.362 . S
C1375 H1365 0.930 1_554 S
C1375 C1368 1.409 1_564 S
C1375 C1374 1.362 . S
H1376 C1382 0.930 . S
H1377 C1385 0.930 . S
H1378 C1386 0.930 . S
H1379 C1387 0.930 . S
H1380 C1390 0.930 . S
H1381 C1391 0.930 . S
C1382 H1376 0.930 . S
C1382 C1383 1.355 . S
C1382 C1384 1.415 . S
C1383 C1382 1.355 . S
C1383 C1385 1.419 . S
C1384 C1382 1.415 . S
C1384 C1389 1.425 . S
C1384 C1391 1.409 . S
C1385 H1377 0.930 . S
C1385 C1383 1.419 . S
C1385 C1386 1.362 . S
C1386 H1378 0.930 . S
C1386 C1385 1.362 . S
C1386 C1389 1.409 . S
C1387 H1379 0.930 . S
C1387 C1388 1.355 . S
C1387 C1389 1.415 . S
C1388 C1387 1.355 . S
C1388 C1390 1.419 . S
C1389 C1384 1.425 . S
C1389 C1386 1.409 . S
C1389 C1387 1.415 . S
C1390 H1380 0.930 . S
C1390 C1388 1.419 . S
C1390 C1391 1.362 . S
C1391 H1381 0.930 . S
C1391 C1384 1.409 . S
C1391 C1390 1.362 . S
H1392 C1398 0.930 . S
H1393 C1401 0.930 . S
H1394 C1402 0.930 . S
H1395 C1403 0.930 . S
H1396 C1406 0.930 . S
H1397 C1407 0.930 . S
C1398 H1392 0.930 . S
C1398 C1399 1.355 . S
C1398 C1400 1.415 . S
C1399 C1398 1.355 . S
C1399 C1401 1.419 . S
C1400 C1398 1.415 . S
C1400 C1405 1.425 . S
C1400 C1407 1.409 . S
C1401 H1393 0.930 . S
C1401 C1399 1.419 . S
C1401 C1402 1.362 . S
C1402 H1394 0.930 . S
C1402 C1401 1.362 . S
C1402 C1405 1.409 . S
C1403 H1395 0.930 . S
C1403 C1404 1.355 . S
C1403 C1405 1.415 . S
C1404 C1403 1.355 . S
C1404 C1406 1.419 . S
C1405 C1400 1.425 . S
C1405 C1402 1.409 . S
C1405 C1403 1.415 . S
C1406 H1396 0.930 . S
C1406 C1404 1.419 . S
C1406 C1407 1.362 . S
C1407 H1397 0.930 . S
C1407 C1400 1.409 . S
C1407 C1406 1.362 . S
H1408 C1414 0.930 . S
H1409 C1417 0.930 . S
H1410 C1418 0.930 . S
H1411 C1419 0.930 . S
H1412 C1422 0.930 . S
H1413 C1423 0.930 . S
C1414 H1408 0.930 . S
C1414 C1415 1.355 . S
C1414 C1416 1.415 . S
C1415 C1414 1.355 . S
C1415 C1417 1.419 . S
C1416 C1414 1.415 . S
C1416 C1421 1.425 . S
C1416 C1423 1.409 . S
C1417 H1409 0.930 . S
C1417 C1415 1.419 . S
C1417 C1418 1.362 . S
C1418 H1410 0.930 . S
C1418 C1417 1.362 . S
C1418 C1421 1.409 . S
C1419 H1411 0.930 . S
C1419 C1420 1.355 . S
C1419 C1421 1.415 . S
C1420 C1419 1.355 . S
C1420 C1422 1.419 . S
C1421 C1416 1.425 . S
C1421 C1418 1.409 . S
C1421 C1419 1.415 . S
C1422 H1412 0.930 . S
C1422 C1420 1.419 . S
C1422 C1423 1.362 . S
C1423 H1413 0.930 . S
C1423 C1416 1.409 . S
C1423 C1422 1.362 . S
H1424 C1430 0.930 . S
H1425 C1433 0.930 . S
H1426 C1434 0.930 . S
H1427 C1435 0.930 . S
H1428 C1438 0.930 . S
H1429 C1439 0.930 . S
C1430 H1424 0.930 . S
C1430 C1431 1.355 . S
C1430 C1432 1.415 . S
C1431 C1430 1.355 . S
C1431 C1433 1.419 . S
C1432 C1430 1.415 . S
C1432 C1437 1.425 . S
C1432 C1439 1.409 . S
C1433 H1425 0.930 . S
C1433 C1431 1.419 . S
C1433 C1434 1.362 . S
C1434 H1426 0.930 . S
C1434 C1433 1.362 . S
C1434 C1437 1.409 . S
C1435 H1427 0.930 . S
C1435 C1436 1.355 . S
C1435 C1437 1.415 . S
C1436 C1435 1.355 . S
C1436 C1438 1.419 . S
C1437 C1432 1.425 . S
C1437 C1434 1.409 . S
C1437 C1435 1.415 . S
C1438 H1428 0.930 . S
C1438 C1436 1.419 . S
C1438 C1439 1.362 . S
C1439 H1429 0.930 . S
C1439 C1432 1.409 . S
C1439 C1438 1.362 . S
H1440 C1446 0.930 . S
H1441 C1449 0.930 . S
H1442 C1450 0.930 . S
H1443 C1451 0.930 . S
H1444 C1454 0.930 . S
H1445 C1455 0.930 . S
C1446 H1440 0.930 . S
C1446 C1447 1.355 . S
C1446 C1448 1.415 . S
C1447 C1446 1.355 . S
C1447 C1449 1.419 . S
C1448 C1446 1.415 . S
C1448 C1453 1.425 . S
C1448 C1455 1.409 . S
C1449 H1441 0.930 . S
C1449 C1447 1.419 . S
C1449 C1450 1.362 . S
C1450 H1442 0.930 . S
C1450 C1449 1.362 . S
C1450 C1453 1.409 . S
C1451 H1443 0.930 . S
C1451 C1452 1.355 . S
C1451 C1453 1.415 . S
C1452 C1451 1.355 . S
C1452 C1454 1.419 . S
C1453 C1448 1.425 . S
C1453 C1450 1.409 . S
C1453 C1451 1.415 . S
C1454 H1444 0.930 . S
C1454 C1452 1.419 . S
C1454 C1455 1.362 . S
C1455 H1445 0.930 . S
C1455 C1448 1.409 . S
C1455 C1454 1.362 . S
H1456 C1462 0.930 . S
H1457 C1465 0.930 . S
H1458 C1466 0.930 . S
H1459 C1467 0.930 . S
H1460 C1470 0.930 . S
H1461 C1471 0.930 . S
C1462 H1456 0.930 . S
C1462 C1463 1.355 . S
C1462 C1464 1.415 . S
C1463 C1462 1.355 . S
C1463 C1465 1.419 . S
C1464 C1462 1.415 . S
C1464 C1469 1.425 . S
C1464 C1471 1.409 . S
C1465 H1457 0.930 . S
C1465 C1463 1.419 . S
C1465 C1466 1.362 . S
C1466 H1458 0.930 . S
C1466 C1465 1.362 . S
C1466 C1469 1.409 . S
C1467 H1459 0.930 . S
C1467 C1468 1.355 . S
C1467 C1469 1.415 . S
C1468 C1467 1.355 . S
C1468 C1470 1.419 . S
C1469 C1464 1.425 . S
C1469 C1466 1.409 . S
C1469 C1467 1.415 . S
C1470 H1460 0.930 . S
C1470 C1468 1.419 . S
C1470 C1471 1.362 . S
C1471 H1461 0.930 . S
C1471 C1464 1.409 . S
C1471 C1470 1.362 . S
H1472 C1478 0.930 . S
H1473 C1481 0.930 . S
H1474 C1482 0.930 . S
H1475 C1483 0.930 . S
H1476 C1486 0.930 . S
H1477 C1487 0.930 . S
C1478 H1472 0.930 . S
C1478 C1479 1.355 . S
C1478 C1480 1.415 . S
C1479 C1478 1.355 . S
C1479 C1481 1.419 . S
C1480 C1478 1.415 . S
C1480 C1485 1.425 . S
C1480 C1487 1.409 . S
C1481 H1473 0.930 . S
C1481 C1479 1.419 . S
C1481 C1482 1.362 . S
C1482 H1474 0.930 . S
C1482 C1481 1.362 . S
C1482 C1485 1.409 . S
C1483 H1475 0.930 . S
C1483 C1484 1.355 . S
C1483 C1485 1.415 . S
C1484 C1483 1.355 . S
C1484 C1486 1.419 . S
C1485 C1480 1.425 . S
C1485 C1482 1.409 . S
C1485 C1483 1.415 . S
C1486 H1476 0.930 . S
C1486 C1484 1.419 . S
C1486 C1487 1.362 . S
C1487 H1477 0.930 . S
C1487 C1480 1.409 . S
C1487 C1486 1.362 . S
H1488 C1494 0.930 . S
H1489 C1497 0.930 . S
H1490 C1498 0.930 . S
H1491 C1499 0.930 . S
H1492 C1502 0.930 . S
H1493 C1503 0.930 . S
C1494 H1488 0.930 . S
C1494 C1495 1.355 . S
C1494 C1496 1.415 . S
C1495 C1494 1.355 . S
C1495 C1497 1.419 . S
C1496 C1494 1.415 . S
C1496 C1501 1.425 . S
C1496 C1503 1.409 . S
C1497 H1489 0.930 . S
C1497 C1495 1.419 . S
C1497 C1498 1.362 . S
C1498 H1490 0.930 . S
C1498 C1497 1.362 . S
C1498 C1501 1.409 . S
C1499 H1491 0.930 . S
C1499 C1500 1.355 . S
C1499 C1501 1.415 . S
C1500 C1499 1.355 . S
C1500 C1502 1.419 . S
C1501 C1496 1.425 . S
C1501 C1498 1.409 . S
C1501 C1499 1.415 . S
C1502 H1492 0.930 . S
C1502 C1500 1.419 . S
C1502 C1503 1.362 . S
C1503 H1493 0.930 . S
C1503 C1496 1.409 . S
C1503 C1502 1.362 . S
H1504 C1510 0.930 . S
H1505 C1513 0.930 . S
H1506 C1514 0.930 . S
H1507 C1515 0.930 . S
H1508 C1518 0.930 . S
H1509 C1519 0.930 . S
C1510 H1504 0.930 . S
C1510 C1511 1.355 . S
C1510 C1512 1.415 . S
C1511 C1510 1.355 . S
C1511 C1513 1.419 . S
C1512 C1510 1.415 . S
C1512 C1517 1.425 . S
C1512 C1519 1.409 . S
C1513 H1505 0.930 . S
C1513 C1511 1.419 . S
C1513 C1514 1.362 . S
C1514 H1506 0.930 . S
C1514 C1513 1.362 . S
C1514 C1517 1.409 . S
C1515 H1507 0.930 . S
C1515 C1516 1.355 . S
C1515 C1517 1.415 . S
C1516 C1515 1.355 . S
C1516 C1518 1.419 . S
C1517 C1512 1.425 . S
C1517 C1514 1.409 . S
C1517 C1515 1.415 . S
C1518 H1508 0.930 . S
C1518 C1516 1.419 . S
C1518 C1519 1.362 . S
C1519 H1509 0.930 . S
C1519 C1512 1.409 . S
C1519 C1518 1.362 . S
H1520 C1526 0.930 . S
H1521 C1529 0.930 . S
H1522 C1530 0.930 . S
H1523 C1531 0.930 . S
H1524 C1534 0.930 . S
H1525 C1535 0.930 . S
C1526 H1520 0.930 . S
C1526 C1527 1.355 . S
C1526 C1528 1.415 . S
C1527 C1526 1.355 . S
C1527 C1529 1.419 . S
C1528 C1526 1.415 . S
C1528 C1533 1.425 . S
C1528 C1535 1.409 . S
C1529 H1521 0.930 . S
C1529 C1527 1.419 . S
C1529 C1530 1.362 . S
C1530 H1522 0.930 . S
C1530 C1529 1.362 . S
C1530 C1533 1.409 . S
C1531 H1523 0.930 . S
C1531 C1532 1.355 . S
C1531 C1533 1.415 . S
C1532 C1531 1.355 . S
C1532 C1534 1.419 . S
C1533 C1528 1.425 . S
C1533 C1530 1.409 . S
C1533 C1531 1.415 . S
C1534 H1524 0.930 . S
C1534 C1532 1.419 . S
C1534 C1535 1.362 . S
C1535 H1525 0.930 . S
C1535 C1528 1.409 . S
C1535 C1534 1.362 . S
H1536 C1542 0.930 . S
H1537 C1545 0.930 . S
H1538 C1546 0.930 . S
H1539 C1547 0.930 . S
H1540 C1550 0.930 . S
H1541 C1551 0.930 . S
C1542 H1536 0.930 . S
C1542 C1543 1.355 . S
C1542 C1544 1.415 . S
C1543 C1542 1.355 . S
C1543 C1545 1.419 . S
C1544 C1542 1.415 . S
C1544 C1549 1.425 . S
C1544 C1551 1.409 . S
C1545 H1537 0.930 . S
C1545 C1543 1.419 . S
C1545 C1546 1.362 . S
C1546 H1538 0.930 . S
C1546 C1545 1.362 . S
C1546 C1549 1.409 . S
C1547 H1539 0.930 . S
C1547 C1548 1.355 . S
C1547 C1549 1.415 . S
C1548 C1547 1.355 . S
C1548 C1550 1.419 . S
C1549 C1544 1.425 . S
C1549 C1546 1.409 . S
C1549 C1547 1.415 . S
C1550 H1540 0.930 . S
C1550 C1548 1.419 . S
C1550 C1551 1.362 . S
C1551 H1541 0.930 . S
C1551 C1544 1.409 . S
C1551 C1550 1.362 . S
H1552 C1558 0.930 . S
H1553 C1561 0.930 . S
H1554 C1562 0.930 . S
H1555 C1563 0.930 . S
H1556 C1566 0.930 . S
H1557 C1567 0.930 . S
C1558 H1552 0.930 . S
C1558 C1559 1.355 . S
C1558 C1560 1.415 . S
C1559 C1558 1.355 . S
C1559 C1561 1.419 . S
C1560 C1558 1.415 . S
C1560 C1565 1.425 . S
C1560 C1567 1.409 . S
C1561 H1553 0.930 . S
C1561 C1559 1.419 . S
C1561 C1562 1.362 . S
C1562 H1554 0.930 . S
C1562 C1561 1.362 . S
C1562 C1565 1.409 . S
C1563 H1555 0.930 . S
C1563 C1564 1.355 . S
C1563 C1565 1.415 . S
C1564 C1563 1.355 . S
C1564 C1566 1.419 . S
C1565 C1560 1.425 . S
C1565 C1562 1.409 . S
C1565 C1563 1.415 . S
C1566 H1556 0.930 . S
C1566 C1564 1.419 . S
C1566 C1567 1.362 . S
C1567 H1557 0.930 . S
C1567 C1560 1.409 . S
C1567 C1566 1.362 . S
H1568 C1574 0.930 . S
H1569 C1577 0.930 . S
H1570 C1578 0.930 . S
H1571 C1579 0.930 . S
H1572 C1582 0.930 . S
H1573 C1583 0.930 . S
C1574 H1568 0.930 . S
C1574 C1575 1.355 . S
C1574 C1576 1.415 . S
C1575 C1574 1.355 . S
C1575 C1577 1.419 . S
C1576 C1574 1.415 . S
C1576 C1581 1.425 . S
C1576 C1583 1.409 . S
C1577 H1569 0.930 . S
C1577 C1575 1.419 . S
C1577 C1578 1.362 . S
C1578 H1570 0.930 . S
C1578 C1577 1.362 . S
C1578 C1581 1.409 . S
C1579 H1571 0.930 . S
C1579 C1580 1.355 . S
C1579 C1581 1.415 . S
C1580 C1579 1.355 . S
C1580 C1582 1.419 . S
C1581 C1576 1.425 . S
C1581 C1578 1.409 . S
C1581 C1579 1.415 . S
C1582 H1572 0.930 . S
C1582 C1580 1.419 . S
C1582 C1583 1.362 . S
C1583 H1573 0.930 . S
C1583 C1576 1.409 . S
C1583 C1582 1.362 . S
H1584 C1590 0.930 . S
H1585 C1593 0.930 . S
H1586 C1594 0.930 . S
H1587 C1595 0.930 . S
H1588 C1598 0.930 . S
H1589 C1599 0.930 . S
C1590 H1584 0.930 . S
C1590 C1591 1.355 . S
C1590 C1592 1.415 . S
C1591 C1590 1.355 . S
C1591 C1593 1.419 . S
C1592 C1590 1.415 . S
C1592 C1597 1.425 . S
C1592 C1599 1.409 . S
C1593 H1585 0.930 . S
C1593 C1591 1.419 . S
C1593 C1594 1.362 . S
C1594 H1586 0.930 . S
C1594 C1593 1.362 . S
C1594 C1597 1.409 . S
C1595 H1587 0.930 . S
C1595 C1596 1.355 . S
C1595 C1597 1.415 . S
C1596 C1595 1.355 . S
C1596 C1598 1.419 . S
C1597 C1592 1.425 . S
C1597 C1594 1.409 . S
C1597 C1595 1.415 . S
C1598 H1588 0.930 . S
C1598 C1596 1.419 . S
C1598 C1599 1.362 . S
C1599 H1589 0.930 . S
C1599 C1592 1.409 . S
C1599 C1598 1.362 . S
H1600 C1606 0.930 . S
H1601 C1609 0.930 . S
H1602 C1610 0.930 . S
H1603 C1611 0.930 . S
H1604 C1614 0.930 . S
H1605 C1615 0.930 . S
C1606 H1600 0.930 . S
C1606 C1607 1.355 . S
C1606 C1608 1.415 . S
C1607 C1606 1.355 . S
C1607 C1609 1.419 . S
C1608 C1606 1.415 . S
C1608 C1613 1.425 . S
C1608 C1615 1.409 . S
C1609 H1601 0.930 . S
C1609 C1607 1.419 . S
C1609 C1610 1.362 . S
C1610 H1602 0.930 . S
C1610 C1609 1.362 . S
C1610 C1613 1.409 . S
C1611 H1603 0.930 . S
C1611 C1612 1.355 . S
C1611 C1613 1.415 . S
C1612 C1611 1.355 . S
C1612 C1614 1.419 . S
C1613 C1608 1.425 . S
C1613 C1610 1.409 . S
C1613 C1611 1.415 . S
C1614 H1604 0.930 . S
C1614 C1612 1.419 . S
C1614 C1615 1.362 . S
C1615 H1605 0.930 . S
C1615 C1608 1.409 . S
C1615 C1614 1.362 . S
H1616 C1622 0.930 . S
H1617 C1625 0.930 . S
H1618 C1626 0.930 . S
H1619 C1627 0.930 . S
H1620 C1630 0.930 . S
H1621 C1631 0.930 . S
C1622 H1616 0.930 . S
C1622 C1623 1.355 . S
C1622 C1624 1.415 . S
C1623 C1622 1.355 . S
C1623 C1625 1.419 . S
C1624 C1622 1.415 . S
C1624 C1629 1.425 . S
C1624 C1631 1.409 . S
C1625 H1617 0.930 . S
C1625 C1623 1.419 . S
C1625 C1626 1.362 . S
C1626 H1618 0.930 . S
C1626 C1625 1.362 . S
C1626 C1629 1.409 . S
C1627 H1619 0.930 . S
C1627 C1628 1.355 . S
C1627 C1629 1.415 . S
C1628 C1627 1.355 . S
C1628 C1630 1.419 . S
C1629 C1624 1.425 . S
C1629 C1626 1.409 . S
C1629 C1627 1.415 . S
C1630 H1620 0.930 . S
C1630 C1628 1.419 . S
C1630 C1631 1.362 . S
C1631 H1621 0.930 . S
C1631 C1624 1.409 . S
C1631 C1630 1.362 . S
H1632 C1638 0.930 . S
H1633 C1641 0.930 . S
H1634 C1642 0.930 . S
H1635 C1643 0.930 . S
H1636 C1646 0.930 . S
H1637 C1647 0.930 . S
C1638 H1632 0.930 . S
C1638 C1639 1.355 . S
C1638 C1640 1.415 . S
C1639 C1638 1.355 . S
C1639 C1641 1.419 . S
C1640 C1638 1.415 . S
C1640 C1645 1.425 . S
C1640 C1647 1.409 . S
C1641 H1633 0.930 . S
C1641 C1639 1.419 . S
C1641 C1642 1.362 . S
C1642 H1634 0.930 . S
C1642 C1641 1.362 . S
C1642 C1645 1.409 . S
C1643 H1635 0.930 . S
C1643 C1644 1.355 . S
C1643 C1645 1.415 . S
C1644 C1643 1.355 . S
C1644 C1646 1.419 . S
C1645 C1640 1.425 . S
C1645 C1642 1.409 . S
C1645 C1643 1.415 . S
C1646 H1636 0.930 . S
C1646 C1644 1.419 . S
C1646 C1647 1.362 . S
C1647 H1637 0.930 . S
C1647 C1640 1.409 . S
C1647 C1646 1.362 . S
H1648 C1654 0.930 . S
H1649 C1657 0.930 . S
H1650 C1658 0.930 . S
H1651 C1659 0.930 . S
H1652 C1662 0.930 . S
H1653 C1663 0.930 . S
C1654 H1648 0.930 . S
C1654 C1655 1.355 . S
C1654 C1656 1.415 . S
C1655 C1654 1.355 . S
C1655 C1657 1.419 . S
C1656 C1654 1.415 . S
C1656 C1661 1.425 . S
C1656 C1663 1.409 . S
C1657 H1649 0.930 . S
C1657 C1655 1.419 . S
C1657 C1658 1.362 . S
C1658 H1650 0.930 . S
C1658 C1657 1.362 . S
C1658 C1661 1.409 . S
C1659 H1651 0.930 . S
C1659 C1660 1.355 . S
C1659 C1661 1.415 . S
C1660 C1659 1.355 . S
C1660 C1662 1.419 . S
C1661 C1656 1.425 . S
C1661 C1658 1.409 . S
C1661 C1659 1.415 . S
C1662 H1652 0.930 . S
C1662 C1660 1.419 . S
C1662 C1663 1.362 . S
C1663 H1653 0.930 . S
C1663 C1656 1.409 . S
C1663 C1662 1.362 . S
H1664 C1670 0.930 . S
H1665 C1673 0.930 . S
H1666 C1674 0.930 . S
H1667 C1675 0.930 . S
H1668 C1678 0.930 . S
H1669 C1679 0.930 . S
C1670 H1664 0.930 . S
C1670 C1671 1.355 . S
C1670 C1672 1.415 . S
C1671 C1670 1.355 . S
C1671 C1673 1.419 . S
C1672 C1670 1.415 . S
C1672 C1677 1.425 . S
C1672 C1679 1.409 . S
C1673 H1665 0.930 . S
C1673 C1671 1.419 . S
C1673 C1674 1.362 . S
C1674 H1666 0.930 . S
C1674 C1673 1.362 . S
C1674 C1677 1.409 . S
C1675 H1667 0.930 . S
C1675 C1676 1.355 . S
C1675 C1677 1.415 . S
C1676 C1675 1.355 . S
C1676 C1678 1.419 . S
C1677 C1672 1.425 . S
C1677 C1674 1.409 . S
C1677 C1675 1.415 . S
C1678 H1668 0.930 . S
C1678 C1676 1.419 . S
C1678 C1679 1.362 . S
C1679 H1669 0.930 . S
C1679 C1672 1.409 . S
C1679 C1678 1.362 . S
H1680 C1686 0.930 . S
H1681 C1689 0.930 . S
H1682 C1690 0.930 . S
H1683 C1691 0.930 . S
H1684 C1694 0.930 . S
H1685 C1695 0.930 . S
C1686 H1680 0.930 . S
C1686 C1687 1.355 . S
C1686 C1688 1.415 . S
C1687 C1686 1.355 . S
C1687 C1689 1.419 . S
C1688 C1686 1.415 . S
C1688 C1693 1.425 . S
C1688 C1695 1.409 . S
C1689 H1681 0.930 . S
C1689 C1687 1.419 . S
C1689 C1690 1.362 . S
C1690 H1682 0.930 . S
C1690 C1689 1.362 . S
C1690 C1693 1.409 . S
C1691 H1683 0.930 . S
C1691 C1692 1.355 . S
C1691 C1693 1.415 . S
C1692 C1691 1.355 . S
C1692 C1694 1.419 . S
C1693 C1688 1.425 . S
C1693 C1690 1.409 . S
C1693 C1691 1.415 . S
C1694 H1684 0.930 . S
C1694 C1692 1.419 . S
C1694 C1695 1.362 . S
C1695 H1685 0.930 . S
C1695 C1688 1.409 . S
C1695 C1694 1.362 . S
H1696 C1702 0.930 . S
H1697 C1705 0.930 . S
H1698 C1706 0.930 . S
H1699 C1707 0.930 . S
H1700 C1710 0.930 . S
H1701 C1711 0.930 . S
C1702 H1696 0.930 . S
C1702 C1703 1.355 . S
C1702 C1704 1.415 . S
C1703 C1702 1.355 . S
C1703 C1705 1.419 . S
C1704 C1702 1.415 . S
C1704 C1709 1.425 . S
C1704 C1711 1.409 . S
C1705 H1697 0.930 . S
C1705 C1703 1.419 . S
C1705 C1706 1.362 . S
C1706 H1698 0.930 . S
C1706 C1705 1.362 . S
C1706 C1709 1.409 . S
C1707 H1699 0.930 . S
C1707 C1708 1.355 . S
C1707 C1709 1.415 . S
C1708 C1707 1.355 . S
C1708 C1710 1.419 . S
C1709 C1704 1.425 . S
C1709 C1706 1.409 . S
C1709 C1707 1.415 . S
C1710 H1700 0.930 . S
C1710 C1708 1.419 . S
C1710 C1711 1.362 . S
C1711 H1701 0.930 . S
C1711 C1704 1.409 . S
C1711 C1710 1.362 . S
H1712 C1718 0.930 . S
H1713 C1721 0.930 . S
H1714 C1722 0.930 . S
H1715 C1723 0.930 . S
H1716 C1726 0.930 . S
H1717 C1727 0.930 . S
C1718 H1712 0.930 . S
C1718 C1719 1.355 . S
C1718 C1720 1.415 . S
C1719 C1718 1.355 . S
C1719 C1721 1.419 . S
C1720 C1718 1.415 . S
C1720 C1725 1.425 . S
C1720 C1727 1.409 . S
C1721 H1713 0.930 . S
C1721 C1719 1.419 . S
C1721 C1722 1.362 . S
C1722 H1714 0.930 . S
C1722 C1721 1.362 . S
C1722 C1725 1.409 . S
C1723 H1715 0.930 . S
C1723 C1724 1.355 . S
C1723 C1725 1.415 . S
C1724 C1723 1.355 . S
C1724 C1726 1.419 . S
C1725 C1720 1.425 . S
C1725 C1722 1.409 . S
C1725 C1723 1.415 . S
C1726 H1716 0.930 . S
C1726 C1724 1.419 . S
C1726 C1727 1.362 . S
C1727 H1717 0.930 . S
C1727 C1720 1.409 . S
C1727 C1726 1.362 . S
H1728 C1734 0.930 . S
H1729 C1737 0.930 . S
H1730 C1738 0.930 . S
H1731 C1739 0.930 . S
H1732 C1742 0.930 . S
H1733 C1743 0.930 . S
C1734 H1728 0.930 . S
C1734 C1735 1.355 . S
C1734 C1736 1.415 . S
C1735 C1734 1.355 . S
C1735 C1737 1.419 . S
C1736 C1734 1.415 . S
C1736 C1741 1.425 . S
C1736 C1743 1.409 . S
C1737 H1729 0.930 . S
C1737 C1735 1.419 . S
C1737 C1738 1.362 . S
C1738 H1730 0.930 . S
C1738 C1737 1.362 . S
C1738 C1741 1.409 . S
C1739 H1731 0.930 . S
C1739 C1740 1.355 . S
C1739 C1741 1.415 . S
C1740 C1739 1.355 . S
C1740 C1742 1.419 . S
C1741 C1736 1.425 . S
C1741 C1738 1.409 . S
C1741 C1739 1.415 . S
C1742 H1732 0.930 . S
C1742 C1740 1.419 . S
C1742 C1743 1.362 . S
C1743 H1733 0.930 . S
C1743 C1736 1.409 . S
C1743 C1742 1.362 . S
H1744 C1750 0.930 . S
H1745 C1753 0.930 . S
H1746 C1754 0.930 . S
H1747 C1755 0.930 . S
H1748 C1758 0.930 . S
H1749 C1759 0.930 . S
C1750 H1744 0.930 . S
C1750 C1751 1.355 . S
C1750 C1752 1.415 . S
C1751 C1750 1.355 . S
C1751 C1753 1.419 . S
C1752 C1750 1.415 . S
C1752 C1757 1.425 . S
C1752 C1759 1.409 . S
C1753 H1745 0.930 . S
C1753 C1751 1.419 . S
C1753 C1754 1.362 . S
C1754 H1746 0.930 . S
C1754 C1753 1.362 . S
C1754 C1757 1.409 . S
C1755 H1747 0.930 . S
C1755 C1756 1.355 . S
C1755 C1757 1.415 . S
C1756 C1755 1.355 . S
C1756 C1758 1.419 . S
C1757 C1752 1.425 . S
C1757 C1754 1.409 . S
C1757 C1755 1.415 . S
C1758 H1748 0.930 . S
C1758 C1756 1.419 . S
C1758 C1759 1.362 . S
C1759 H1749 0.930 . S
C1759 C1752 1.409 . S
C1759 C1758 1.362 . S
H1760 C1766 0.930 . S
H1761 C1769 0.930 . S
H1762 C1770 0.930 . S
H1763 C1771 0.930 . S
H1764 C1774 0.930 . S
H1765 C1775 0.930 . S
C1766 H1760 0.930 . S
C1766 C1767 1.355 . S
C1766 C1768 1.415 . S
C1767 C1766 1.355 . S
C1767 C1769 1.419 . S
C1768 C1766 1.415 . S
C1768 C1773 1.425 . S
C1768 C1775 1.409 . S
C1769 H1761 0.930 . S
C1769 C1767 1.419 . S
C1769 C1770 1.362 . S
C1770 H1762 0.930 . S
C1770 C1769 1.362 . S
C1770 C1773 1.409 . S
C1771 H1763 0.930 . S
C1771 C1772 1.355 . S
C1771 C1773 1.415 . S
C1772 C1771 1.355 . S
C1772 C1774 1.419 . S
C1773 C1768 1.425 . S
C1773 C1770 1.409 . S
C1773 C1771 1.415 . S
C1774 H1764 0.930 . S
C1774 C1772 1.419 . S
C1774 C1775 1.362 . S
C1775 H1765 0.930 . S
C1775 C1768 1.409 . S
C1775 C1774 1.362 . S
C823 C107 1.304 . S
C828 C33 1.313 . S
C839 C5 1.327 . S
C844 C67 1.332 . S
C855 C39 1.289 . S
C860 C101 1.286 . S
C871 C135 1.297 . S
C876 C73 1.288 . S
C887 C175 1.321 . S
C892 C169 1.327 . S
C903 C209 1.278 . S
C908 C203 1.285 . S
C919 C237 1.278 . S
C924 C243 1.275 . S
C935 C141 1.281 . S
C940 C271 1.281 . S
C951 C305 1.335 . S
C956 C617 1.333 . S
C967 C339 1.304 . S
C972 C651 1.295 . S
C983 C685 1.333 . S
C988 C373 1.335 . S
C999 C583 1.292 . S
C1004 C407 1.289 . S
C1015 C753 1.294 . S
C1020 C441 1.291 . S
C1031 C475 1.327 . S
C1036 C549 1.320 . S
C1047 C509 1.278 . S
C1052 C787 1.276 . S
C1063 C719 1.309 . S
C1068 C543 1.317 . S
C1079 C311 1.323 . S
C1084 C577 1.329 . S
C1095 C611 1.284 . S
C1100 C515 1.278 . S
C1111 C413 1.282 . S
C1116 C645 1.281 . S
C1127 C447 1.275 . S
C1132 C679 1.278 . S
C1143 C481 1.275 . S
C1148 C713 1.278 . S
C1159 C379 1.327 . S
C1164 C747 1.331 . S
C1175 C277 1.275 . S
C1180 C781 1.278 . S
C1191 C345 1.286 . S
C1196 C815 1.284 . S
C1207 C224 1.957 . S
C1212 C20 1.963 . S
C1223 C54 1.975 . S
C1228 C258 1.955 . S
C1239 C156 1.975 . S
C1244 C88 1.956 . S
C1255 C190 1.953 . S
C1260 C122 1.974 . S
C1271 C360 1.961 . S
C1276 C292 1.973 . S
C1287 C326 1.973 . S
C1292 C394 1.953 . S
C1303 C428 1.975 . S
C1308 C496 1.954 . S
C1319 C530 1.953 . S
C1324 C462 1.970 . S
C1335 C564 1.975 . S
C1340 C598 1.957 . S
C1351 C632 1.971 . S
C1356 C802 1.963 . S
C1367 C666 1.953 . S
C1372 C734 1.972 . S
C1383 C768 1.955 . S
C1388 C700 1.975 . S
C1399 C2 1.279 . S
C1404 C281 1.229 . S
C1415 C36 1.259 . S
C1420 C315 1.186 . S
C1431 C349 1.205 . S
C1436 C70 1.268 . S
C1447 C383 1.174 . S
C1452 C104 1.253 . S
C1463 C138 1.290 . S
C1468 C417 1.258 . S
C1479 C451 1.273 . S
C1484 C172 1.297 . S
C1495 C206 1.284 . S
C1500 C485 1.247 . S
C1511 C519 1.247 . S
C1516 C240 1.284 . S
C1527 C274 1.287 . S
C1532 C553 1.248 . S
C1543 C791 1.257 . S
C1548 C308 1.291 . S
C1559 C342 1.285 . S
C1564 C723 1.243 . S
C1575 C376 1.297 . S
C1580 C757 1.271 . S
C1591 C587 1.212 . S
C1596 C410 1.271 . S
C1607 C444 1.292 . S
C1612 C621 1.262 . S
C1623 C478 1.289 . S
C1628 C655 1.253 . S
C1639 C512 1.263 . S
C1644 C689 1.198 . S
C1655 C546 1.298 . S
C1660 C9 1.273 . S
C1671 C580 1.284 . S
C1676 C145 1.245 . S
C1687 C614 1.258 . S
C1692 C179 1.182 . S
C1703 C213 1.203 . S
C1708 C648 1.265 . S
C1719 C682 1.295 . S
C1724 C247 1.269 . S
C1735 C77 1.273 . S
C1740 C716 1.297 . S
C1751 C111 1.174 . S
C1756 C750 1.254 . S
C1767 C784 1.253 . S
C1772 C43 1.174 . S
