# Generated by pormake.
# Topology fnw, (5)-cn, num edge types: 1
# Building blocks:
#     Node 0, Type 0, BuildingBlock: XOMCOT_clean_sbu_0, # of connection points: 5
#     Node 1, Type 0, BuildingBlock: XOMCOT_clean_sbu_0, # of connection points: 5
#     Node 2, Type 0, BuildingBlock: XOMCOT_clean_sbu_0, # of connection points: 5
#     Node 3, Type 0, BuildingBlock: XOMCOT_clean_sbu_0, # of connection points: 5
#     Node 4, Type 0, BuildingBlock: XOMCOT_clean_sbu_0, # of connection points: 5
#     Node 5, Type 0, BuildingBlock: XOMCOT_clean_sbu_0, # of connection points: 5
#     Node 6, Type 0, BuildingBlock: XOMCOT_clean_sbu_0, # of connection points: 5
#     Node 7, Type 0, BuildingBlock: XOMCOT_clean_sbu_0, # of connection points: 5
#     Node 8, Type 0, BuildingBlock: XOMCOT_clean_sbu_0, # of connection points: 5
#     Node 9, Type 0, BuildingBlock: XOMCOT_clean_sbu_0, # of connection points: 5
#     Node 10, Type 0, BuildingBlock: XOMCOT_clean_sbu_0, # of connection points: 5
#     Node 11, Type 0, BuildingBlock: XOMCOT_clean_sbu_0, # of connection points: 5
#     Edge 12, Type (0, 0), BuildingBlock: OJICUG_clean_linker_0, # of connection points: 2
#     Edge 13, Type (0, 0), BuildingBlock: OJICUG_clean_linker_0, # of connection points: 2
#     Edge 14, Type (0, 0), BuildingBlock: OJICUG_clean_linker_0, # of connection points: 2
#     Edge 15, Type (0, 0), BuildingBlock: OJICUG_clean_linker_0, # of connection points: 2
#     Edge 16, Type (0, 0), BuildingBlock: OJICUG_clean_linker_0, # of connection points: 2
#     Edge 17, Type (0, 0), BuildingBlock: OJICUG_clean_linker_0, # of connection points: 2
#     Edge 18, Type (0, 0), BuildingBlock: OJICUG_clean_linker_0, # of connection points: 2
#     Edge 19, Type (0, 0), BuildingBlock: OJICUG_clean_linker_0, # of connection points: 2
#     Edge 20, Type (0, 0), BuildingBlock: OJICUG_clean_linker_0, # of connection points: 2
#     Edge 21, Type (0, 0), BuildingBlock: OJICUG_clean_linker_0, # of connection points: 2
#     Edge 22, Type (0, 0), BuildingBlock: OJICUG_clean_linker_0, # of connection points: 2
#     Edge 23, Type (0, 0), BuildingBlock: OJICUG_clean_linker_0, # of connection points: 2
#     Edge 24, Type (0, 0), BuildingBlock: OJICUG_clean_linker_0, # of connection points: 2
#     Edge 25, Type (0, 0), BuildingBlock: OJICUG_clean_linker_0, # of connection points: 2
#     Edge 26, Type (0, 0), BuildingBlock: OJICUG_clean_linker_0, # of connection points: 2
#     Edge 27, Type (0, 0), BuildingBlock: OJICUG_clean_linker_0, # of connection points: 2
#     Edge 28, Type (0, 0), BuildingBlock: OJICUG_clean_linker_0, # of connection points: 2
#     Edge 29, Type (0, 0), BuildingBlock: OJICUG_clean_linker_0, # of connection points: 2
#     Edge 30, Type (0, 0), BuildingBlock: OJICUG_clean_linker_0, # of connection points: 2
#     Edge 31, Type (0, 0), BuildingBlock: OJICUG_clean_linker_0, # of connection points: 2
#     Edge 32, Type (0, 0), BuildingBlock: OJICUG_clean_linker_0, # of connection points: 2
#     Edge 33, Type (0, 0), BuildingBlock: OJICUG_clean_linker_0, # of connection points: 2
#     Edge 34, Type (0, 0), BuildingBlock: OJICUG_clean_linker_0, # of connection points: 2
#     Edge 35, Type (0, 0), BuildingBlock: OJICUG_clean_linker_0, # of connection points: 2
#     Edge 36, Type (0, 0), BuildingBlock: OJICUG_clean_linker_0, # of connection points: 2
#     Edge 37, Type (0, 0), BuildingBlock: OJICUG_clean_linker_0, # of connection points: 2
#     Edge 38, Type (0, 0), BuildingBlock: OJICUG_clean_linker_0, # of connection points: 2
#     Edge 39, Type (0, 0), BuildingBlock: OJICUG_clean_linker_0, # of connection points: 2
#     Edge 40, Type (0, 0), BuildingBlock: OJICUG_clean_linker_0, # of connection points: 2
#     Edge 41, Type (0, 0), BuildingBlock: OJICUG_clean_linker_0, # of connection points: 2
# Relax obj value: 0.267
# Max RMSD: 0.158
# Mean RMSD: 0.158
data_MOF--net-fnw--node1-XOMCOT_clean_sbu_0--edge1-OJICUG_clean_linker_0
_symmetry_space_group_name_H-M    P1
_symmetry_Int_Tables_number       1
_symmetry_cell_setting            triclinic
loop_
_symmetry_equiv_pos_as_xyz
'x, y, z'
_cell_length_a     39.60657
_cell_length_b     39.594838
_cell_length_c     23.864813
_cell_angle_alpha  89.976974
_cell_angle_beta   90.007279
_cell_angle_gamma 120.00297
loop_
_atom_site_label
_atom_site_type_symbol
_atom_site_fract_x
_atom_site_fract_y
_atom_site_fract_z
_atom_type_partial_charge
Co0 Co 0.2728 0.46702 0.30931 0.0
C1 C 0.30537 0.41466 0.28855 0.0
C2 C 0.33507 0.45591 0.35452 0.0
C3 C 0.35234 0.4335 0.34784 0.0
N4 N 0.30562 0.44409 0.31747 0.0
N5 N 0.33377 0.40775 0.30624 0.0
H6 H 0.28532 0.39896 0.25484 0.0
H7 H 0.34396 0.47984 0.3836 0.0
C8 C 0.33058 0.54564 0.25647 0.0
O9 O 0.30563 0.54334 0.21823 0.0
N10 N 0.23946 0.4902 0.3026 0.0
C11 C 0.20028 0.47059 0.2966 0.0
C12 C 0.18732 0.49675 0.29078 0.0
C13 C 0.24929 0.52821 0.30358 0.0
N14 N 0.21829 0.53296 0.29429 0.0
C15 C 0.22575 0.42349 0.21523 0.0
C16 C 0.28226 0.46074 0.13422 0.0
C17 C 0.24336 0.43723 0.11753 0.0
C18 C 0.21526 0.41674 0.15869 0.0
C19 C 0.29151 0.46602 0.1913 0.0
N20 N 0.26275 0.45052 0.23088 0.0
H21 H 0.20369 0.40777 0.24638 0.0
H22 H 0.32167 0.48364 0.2034 0.0
H23 H 0.18185 0.43931 0.29678 0.0
H24 H 0.27823 0.55214 0.31184 0.0
O25 O 0.23011 0.4217 0.34579 0.0
O26 O 0.27517 0.47509 0.38871 0.0
O27 O 0.3214 0.51807 0.29161 0.0
C28 C 0.24447 0.44077 0.39235 0.0
H29 H 0.37778 0.43708 0.37002 0.0
H30 H 0.15756 0.48968 0.28304 0.0
H31 H 0.30515 0.47562 0.10347 0.0
H32 H 0.18508 0.39724 0.14748 0.0
Co33 Co 0.8069 0.27042 0.80918 0.0
C34 C 0.89181 0.30345 0.78655 0.0
C35 C 0.88052 0.33316 0.8528 0.0
C36 C 0.92014 0.35078 0.84527 0.0
N37 N 0.86275 0.30346 0.81615 0.0
N38 N 0.92716 0.33222 0.80351 0.0
H39 H 0.88738 0.28338 0.75285 0.0
H40 H 0.86562 0.34205 0.88211 0.0
C41 C 0.78546 0.32687 0.75358 0.0
O42 O 0.76253 0.30106 0.71642 0.0
N43 N 0.75034 0.23708 0.80385 0.0
C44 C 0.73043 0.19779 0.79933 0.0
C45 C 0.69131 0.18503 0.79445 0.0
C46 C 0.7224 0.24721 0.80505 0.0
N47 N 0.68644 0.21625 0.79715 0.0
C48 C 0.80237 0.22119 0.71796 0.0
C49 C 0.8222 0.27574 0.6338 0.0
C50 C 0.80643 0.23632 0.61912 0.0
C51 C 0.79838 0.20926 0.66218 0.0
C52 C 0.82581 0.28636 0.69036 0.0
N53 N 0.81259 0.2586 0.73143 0.0
H54 H 0.7963 0.19997 0.75032 0.0
H55 H 0.83823 0.31679 0.70083 0.0
H56 H 0.74303 0.17915 0.80007 0.0
H57 H 0.72776 0.27636 0.81254 0.0
O58 O 0.80976 0.22847 0.84739 0.0
O59 O 0.80187 0.27442 0.88839 0.0
O60 O 0.8043 0.31857 0.78913 0.0
C61 C 0.80543 0.24373 0.89328 0.0
H62 H 0.94203 0.37648 0.86692 0.0
H63 H 0.66834 0.1552 0.78801 0.0
H64 H 0.83012 0.29803 0.60212 0.0
H65 H 0.78834 0.17891 0.65294 0.0
Co66 Co 0.53766 0.80779 0.31582 0.0
C67 C 0.58584 0.89393 0.29657 0.0
C68 C 0.54243 0.87808 0.36075 0.0
C69 C 0.56014 0.91756 0.35238 0.0
N70 N 0.55822 0.86314 0.32561 0.0
N71 N 0.58724 0.92747 0.31196 0.0
H72 H 0.60263 0.89167 0.26251 0.0
H73 H 0.51814 0.86105 0.38851 0.0
C74 C 0.45898 0.78491 0.26147 0.0
O75 O 0.46246 0.76302 0.22311 0.0
N76 N 0.51612 0.75159 0.30781 0.0
C77 C 0.53609 0.73251 0.30017 0.0
C78 C 0.51014 0.69329 0.29388 0.0
C79 C 0.47831 0.72307 0.30952 0.0
N80 N 0.47383 0.68761 0.29882 0.0
C81 C 0.58258 0.80686 0.22175 0.0
C82 C 0.54422 0.82512 0.14124 0.0
C83 C 0.56825 0.8104 0.12419 0.0
C84 C 0.58935 0.80341 0.16511 0.0
C85 C 0.53887 0.82873 0.19839 0.0
N86 N 0.55489 0.81583 0.23768 0.0
H87 H 0.59864 0.80086 0.25276 0.0
H88 H 0.52063 0.84051 0.21077 0.0
H89 H 0.5674 0.74574 0.29949 0.0
H90 H 0.45429 0.72769 0.31904 0.0
O91 O 0.58346 0.81177 0.35251 0.0
O92 O 0.52899 0.80084 0.395 0.0
O93 O 0.48593 0.8035 0.29738 0.0
C94 C 0.56385 0.80584 0.39886 0.0
H95 H 0.55239 0.93727 0.37242 0.0
H96 H 0.51738 0.67087 0.28478 0.0
H97 H 0.52887 0.83272 0.11072 0.0
H98 H 0.60926 0.79328 0.15368 0.0
Co99 Co 0.7305 0.5354 0.80836 0.0
C100 C 0.69744 0.58743 0.78856 0.0
C101 C 0.66857 0.54646 0.85518 0.0
C102 C 0.65107 0.5687 0.84886 0.0
N103 N 0.69764 0.55822 0.81748 0.0
N104 N 0.66911 0.59426 0.80685 0.0
H105 H 0.71709 0.60302 0.7544 0.0
H106 H 0.66007 0.52268 0.88442 0.0
C107 C 0.6727 0.45657 0.75631 0.0
O108 O 0.69757 0.45893 0.71789 0.0
N109 N 0.76386 0.51234 0.80068 0.0
C110 C 0.80292 0.53194 0.79319 0.0
C111 C 0.81585 0.50575 0.78749 0.0
C112 C 0.75414 0.47439 0.80265 0.0
N113 N 0.78502 0.46958 0.79256 0.0
C114 C 0.77665 0.57935 0.71386 0.0
C115 C 0.71987 0.54135 0.63347 0.0
C116 C 0.75862 0.56523 0.61637 0.0
C117 C 0.78682 0.58611 0.65722 0.0
C118 C 0.71093 0.53606 0.69064 0.0
N119 N 0.73988 0.55192 0.7299 0.0
H120 H 0.79878 0.59534 0.74479 0.0
H121 H 0.68087 0.51815 0.70305 0.0
H122 H 0.82129 0.56321 0.79235 0.0
H123 H 0.72536 0.45055 0.8121 0.0
O124 O 0.77342 0.58077 0.84431 0.0
O125 O 0.72882 0.52731 0.88771 0.0
O126 O 0.68186 0.48427 0.79121 0.0
C127 C 0.75951 0.56165 0.89098 0.0
H128 H 0.62581 0.56508 0.87157 0.0
H129 H 0.84549 0.51275 0.77881 0.0
H130 H 0.69688 0.52616 0.60296 0.0
H131 H 0.81687 0.6059 0.6457 0.0
Co132 Co 0.19559 0.73182 0.3063 0.0
C133 C 0.11062 0.69864 0.28375 0.0
C134 C 0.12202 0.66972 0.35107 0.0
C135 C 0.08238 0.65213 0.34379 0.0
N136 N 0.13974 0.69893 0.31363 0.0
N137 N 0.0753 0.67019 0.30137 0.0
H138 H 0.115 0.71828 0.24944 0.0
H139 H 0.13694 0.66114 0.38082 0.0
C140 C 0.21728 0.67515 0.25233 0.0
O141 O 0.24044 0.70088 0.21523 0.0
N142 N 0.25213 0.76498 0.30068 0.0
C143 C 0.27216 0.80418 0.29471 0.0
C144 C 0.3113 0.81676 0.29091 0.0
C145 C 0.27996 0.75478 0.30377 0.0
N146 N 0.31602 0.78554 0.29573 0.0
C147 C 0.19951 0.78037 0.21448 0.0
C148 C 0.18055 0.72571 0.1308 0.0
C149 C 0.19584 0.76501 0.11579 0.0
C150 C 0.20344 0.79211 0.15859 0.0
C151 C 0.17698 0.71528 0.18746 0.0
N152 N 0.18978 0.74315 0.22831 0.0
H153 H 0.20526 0.80164 0.24664 0.0
H154 H 0.16487 0.68492 0.19816 0.0
H155 H 0.25965 0.82289 0.29383 0.0
H156 H 0.27442 0.72571 0.31262 0.0
O157 O 0.19294 0.77411 0.34371 0.0
O158 O 0.2008 0.72838 0.3856 0.0
O159 O 0.19807 0.68348 0.28716 0.0
C160 C 0.19735 0.75916 0.38988 0.0
H161 H 0.06051 0.62676 0.3661 0.0
H162 H 0.33441 0.84644 0.28378 0.0
H163 H 0.17297 0.70338 0.0993 0.0
H164 H 0.21309 0.82234 0.14908 0.0
Co165 Co 0.46529 0.19392 0.81458 0.0
C166 C 0.41663 0.1079 0.79409 0.0
C167 C 0.45999 0.1231 0.85817 0.0
C168 C 0.44212 0.08367 0.84924 0.0
N169 N 0.44433 0.13842 0.82346 0.0
N170 N 0.41505 0.07418 0.80891 0.0
H171 H 0.39994 0.1105 0.76017 0.0
H172 H 0.48435 0.13982 0.88594 0.0
C173 C 0.54348 0.21622 0.7589 0.0
O174 O 0.5402 0.2384 0.72082 0.0
N175 N 0.48725 0.25027 0.8075 0.0
C176 C 0.46744 0.26967 0.80169 0.0
C177 C 0.4935 0.30887 0.79572 0.0
C178 C 0.52517 0.27859 0.80838 0.0
N179 N 0.52977 0.31425 0.79901 0.0
C180 C 0.41977 0.19604 0.72277 0.0
C181 C 0.45575 0.17696 0.63964 0.0
C182 C 0.43165 0.19208 0.62425 0.0
C183 C 0.41195 0.19963 0.66678 0.0
C184 C 0.46259 0.1737 0.69638 0.0
N185 N 0.44746 0.18666 0.7369 0.0
H186 H 0.40429 0.20198 0.75476 0.0
H187 H 0.48107 0.16192 0.70744 0.0
H188 H 0.43616 0.25667 0.80215 0.0
H189 H 0.54919 0.27371 0.8166 0.0
O190 O 0.41993 0.19012 0.85217 0.0
O191 O 0.47445 0.20026 0.89369 0.0
O192 O 0.51661 0.19778 0.79494 0.0
C193 C 0.43974 0.19559 0.89816 0.0
H194 H 0.44982 0.06373 0.86869 0.0
H195 H 0.48633 0.33151 0.78805 0.0
H196 H 0.47067 0.16943 0.60837 0.0
H197 H 0.39129 0.20913 0.65698 0.0
Co198 Co 0.53763 0.7327 0.70293 0.0
C199 C 0.58887 0.69881 0.72473 0.0
C200 C 0.5488 0.67071 0.65691 0.0
C201 C 0.57058 0.65281 0.66389 0.0
N202 N 0.5603 0.6996 0.69486 0.0
N203 N 0.59558 0.67036 0.70663 0.0
H204 H 0.60408 0.71813 0.75936 0.0
H205 H 0.52546 0.66257 0.627 0.0
C206 C 0.45848 0.67555 0.75462 0.0
O207 O 0.46061 0.70078 0.79224 0.0
N208 N 0.51455 0.76607 0.70941 0.0
C209 C 0.53382 0.80508 0.71748 0.0
C210 C 0.50736 0.81777 0.72181 0.0
C211 C 0.47664 0.75618 0.70563 0.0
N212 N 0.47141 0.78683 0.71526 0.0
C213 C 0.58173 0.77944 0.7969 0.0
C214 C 0.54308 0.72352 0.87822 0.0
C215 C 0.56735 0.76237 0.89468 0.0
C216 C 0.58851 0.7901 0.85337 0.0
C217 C 0.53774 0.71408 0.82122 0.0
N218 N 0.554 0.74265 0.78142 0.0
H219 H 0.59797 0.80122 0.76562 0.0
H220 H 0.51956 0.68395 0.80937 0.0
H221 H 0.56504 0.82355 0.71966 0.0
H222 H 0.45313 0.72738 0.69539 0.0
O223 O 0.58305 0.77535 0.66658 0.0
O224 O 0.52965 0.7304 0.62354 0.0
O225 O 0.48646 0.68427 0.72043 0.0
C226 C 0.56402 0.76102 0.61998 0.0
H227 H 0.56704 0.6276 0.64109 0.0
H228 H 0.51397 0.84728 0.73062 0.0
H229 H 0.52769 0.70083 0.90909 0.0
H230 H 0.60858 0.82019 0.86438 0.0
Co231 Co 0.80622 0.5346 0.19556 0.0
C232 C 0.89109 0.58711 0.21674 0.0
C233 C 0.87972 0.54525 0.15174 0.0
C234 C 0.91938 0.56771 0.15859 0.0
N235 N 0.862 0.55741 0.18807 0.0
N236 N 0.92644 0.59384 0.19957 0.0
H237 H 0.88664 0.6031 0.24991 0.0
H238 H 0.86477 0.52106 0.12305 0.0
C239 C 0.78531 0.45658 0.25044 0.0
O240 O 0.76276 0.45943 0.28831 0.0
N241 N 0.74966 0.51145 0.2015 0.0
C242 C 0.72995 0.53103 0.20603 0.0
C243 C 0.69086 0.50485 0.21208 0.0
C244 C 0.72158 0.47341 0.20148 0.0
N245 N 0.68577 0.46865 0.21013 0.0
C246 C 0.80165 0.57815 0.28887 0.0
C247 C 0.82187 0.54211 0.37059 0.0
C248 C 0.80578 0.56511 0.38679 0.0
C249 C 0.79769 0.58502 0.34527 0.0
C250 C 0.82602 0.53668 0.31364 0.0
N251 N 0.8123 0.55153 0.27372 0.0
H252 H 0.79497 0.59342 0.25741 0.0
H253 H 0.83898 0.51937 0.30189 0.0
H254 H 0.7427 0.56229 0.20476 0.0
H255 H 0.72668 0.44943 0.19436 0.0
O256 O 0.80912 0.57974 0.15813 0.0
O257 O 0.80096 0.52608 0.11625 0.0
O258 O 0.80361 0.48364 0.21454 0.0
C259 C 0.80471 0.56043 0.11189 0.0
H260 H 0.9413 0.56392 0.137 0.0
H261 H 0.66809 0.51193 0.21896 0.0
H262 H 0.83024 0.5277 0.40164 0.0
H263 H 0.78647 0.60413 0.35611 0.0
Co264 Co 0.2716 0.80779 0.69388 0.0
C265 C 0.3095 0.894 0.71333 0.0
C266 C 0.33636 0.87826 0.64798 0.0
C267 C 0.35807 0.91775 0.65614 0.0
N268 N 0.30606 0.86323 0.68392 0.0
N269 N 0.34137 0.9276 0.69733 0.0
H270 H 0.29085 0.89171 0.74797 0.0
H271 H 0.34342 0.86132 0.61976 0.0
C272 C 0.32748 0.78554 0.74946 0.0
O273 O 0.30184 0.76324 0.78728 0.0
N274 N 0.23729 0.75152 0.70198 0.0
C275 C 0.19818 0.73219 0.70897 0.0
C276 C 0.18506 0.69297 0.71461 0.0
C277 C 0.24682 0.72317 0.70012 0.0
N278 N 0.21585 0.68752 0.70994 0.0
C279 C 0.22457 0.80683 0.78578 0.0
C280 C 0.27963 0.82537 0.86874 0.0
C281 C 0.2405 0.81061 0.88426 0.0
C282 C 0.21327 0.80338 0.84181 0.0
C283 C 0.28962 0.82849 0.81195 0.0
N284 N 0.26147 0.81572 0.77152 0.0
H285 H 0.20314 0.80107 0.75386 0.0
H286 H 0.31982 0.83998 0.80083 0.0
H287 H 0.17992 0.74522 0.7094 0.0
H288 H 0.27561 0.72804 0.69095 0.0
O289 O 0.22978 0.81122 0.65641 0.0
O290 O 0.27387 0.80069 0.61482 0.0
O291 O 0.31922 0.80415 0.71346 0.0
C292 C 0.24377 0.80527 0.61045 0.0
H293 H 0.38522 0.93751 0.63538 0.0
H294 H 0.15536 0.67035 0.72293 0.0
H295 H 0.30209 0.83269 0.89994 0.0
H296 H 0.1832 0.79418 0.85171 0.0
Co297 Co 0.46475 0.26913 0.2019 0.0
C298 C 0.41308 0.30258 0.22345 0.0
C299 C 0.45315 0.33082 0.15567 0.0
C300 C 0.43123 0.34858 0.16259 0.0
N301 N 0.44175 0.30193 0.19364 0.0
N302 N 0.40624 0.33095 0.20531 0.0
H303 H 0.39792 0.28326 0.25811 0.0
H304 H 0.47655 0.33911 0.12584 0.0
C305 C 0.5432 0.32654 0.25517 0.0
O306 O 0.54089 0.30132 0.29298 0.0
N307 N 0.48816 0.23602 0.20855 0.0
C308 C 0.46895 0.19687 0.21525 0.0
C309 C 0.49547 0.1843 0.22008 0.0
C310 C 0.5262 0.24617 0.20613 0.0
N311 N 0.53146 0.21546 0.21523 0.0
C312 C 0.42004 0.22132 0.29411 0.0
C313 C 0.45612 0.27635 0.37724 0.0
C314 C 0.43201 0.23713 0.39262 0.0
C315 C 0.41229 0.20988 0.35009 0.0
C316 C 0.46288 0.28649 0.32048 0.0
N317 N 0.44766 0.25841 0.27993 0.0
H318 H 0.40444 0.19989 0.26218 0.0
H319 H 0.4812 0.31677 0.30947 0.0
H320 H 0.43773 0.1782 0.21605 0.0
H321 H 0.54979 0.27516 0.19702 0.0
O322 O 0.41976 0.22652 0.16505 0.0
O323 O 0.47329 0.27186 0.12261 0.0
O324 O 0.51553 0.31766 0.22034 0.0
C325 C 0.43905 0.24107 0.11874 0.0
H326 H 0.43473 0.3738 0.13983 0.0
H327 H 0.48884 0.15468 0.22797 0.0
H328 H 0.47103 0.29881 0.40851 0.0
H329 H 0.39161 0.17972 0.35989 0.0
Co330 Co 0.19584 0.46656 0.69609 0.0
C331 C 0.11101 0.41421 0.71767 0.0
C332 C 0.12222 0.45498 0.65107 0.0
C333 C 0.08257 0.4326 0.65821 0.0
N334 N 0.14004 0.44344 0.68824 0.0
N335 N 0.07561 0.40718 0.70022 0.0
H336 H 0.11552 0.39878 0.75163 0.0
H337 H 0.13709 0.47872 0.62164 0.0
C338 C 0.21666 0.54497 0.74936 0.0
O339 O 0.23929 0.54241 0.7874 0.0
N340 N 0.25238 0.48993 0.70242 0.0
C341 C 0.27218 0.47052 0.70833 0.0
C342 C 0.31125 0.49687 0.71404 0.0
C343 C 0.28038 0.52798 0.70128 0.0
N344 N 0.31623 0.53298 0.71051 0.0
C345 C 0.19992 0.42324 0.79015 0.0
C346 C 0.1803 0.46015 0.87121 0.0
C347 C 0.19603 0.43691 0.88786 0.0
C348 C 0.20381 0.41658 0.84668 0.0
C349 C 0.17619 0.46535 0.81415 0.0
N350 N 0.18964 0.45006 0.77453 0.0
H351 H 0.20637 0.40763 0.75897 0.0
H352 H 0.16342 0.48278 0.80208 0.0
H353 H 0.25951 0.43926 0.70821 0.0
H354 H 0.27517 0.55179 0.69305 0.0
O355 O 0.19332 0.42133 0.65953 0.0
O356 O 0.20134 0.47465 0.61666 0.0
O357 O 0.1982 0.51755 0.71402 0.0
C358 C 0.19789 0.4404 0.61298 0.0
H359 H 0.0606 0.43605 0.63612 0.0
H360 H 0.33408 0.49 0.72181 0.0
H361 H 0.17213 0.47488 0.90199 0.0
H362 H 0.21474 0.39728 0.85786 0.0
Co363 Co 0.73106 0.19395 0.19721 0.0
C364 C 0.69326 0.1078 0.21647 0.0
C365 C 0.66627 0.12353 0.15128 0.0
C366 C 0.64448 0.08406 0.15968 0.0
N367 N 0.69668 0.13855 0.18701 0.0
N368 N 0.66131 0.07423 0.20072 0.0
H369 H 0.71195 0.11011 0.25108 0.0
H370 H 0.65914 0.14049 0.12318 0.0
C371 C 0.675 0.21633 0.25195 0.0
O372 O 0.7005 0.23869 0.28985 0.0
N373 N 0.7653 0.25017 0.20567 0.0
C374 C 0.80429 0.26946 0.21383 0.0
C375 C 0.81734 0.30866 0.21939 0.0
C376 C 0.7558 0.27852 0.20306 0.0
N377 N 0.78664 0.31413 0.21351 0.0
C378 C 0.77762 0.19417 0.28927 0.0
C379 C 0.72263 0.17636 0.37211 0.0
C380 C 0.76166 0.19062 0.38771 0.0
C381 C 0.78883 0.19746 0.34533 0.0
C382 C 0.71272 0.17336 0.3153 0.0
N383 N 0.74089 0.1858 0.27492 0.0
H384 H 0.79901 0.19965 0.2574 0.0
H385 H 0.68259 0.16218 0.30413 0.0
H386 H 0.82252 0.25641 0.21517 0.0
H387 H 0.72712 0.27365 0.19302 0.0
O388 O 0.77306 0.19071 0.16001 0.0
O389 O 0.7291 0.20132 0.11814 0.0
O390 O 0.68335 0.19756 0.21638 0.0
C391 C 0.75929 0.19687 0.11398 0.0
H392 H 0.61717 0.0643 0.1393 0.0
H393 H 0.84692 0.33126 0.22849 0.0
H394 H 0.7002 0.16933 0.40326 0.0
H395 H 0.8188 0.20627 0.35529 0.0
C396 C 0.36416 0.36015 0.19775 0.0
C397 C 0.3822 0.34436 0.23093 0.0
H398 H 0.33391 0.39237 0.19603 0.0
C399 C 0.38001 0.34585 0.28951 0.0
H400 H 0.3653 0.35912 0.15249 0.0
C401 C 0.36243 0.36517 0.31436 0.0
C402 C 0.34617 0.38273 0.2811 0.0
H403 H 0.3939 0.33415 0.316 0.0
H404 H 0.36265 0.36754 0.35957 0.0
C405 C 0.346 0.37889 0.22261 0.0
C406 C 0.96762 0.34569 0.71887 0.0
C407 C 0.96438 0.34509 0.77749 0.0
H408 H 0.00616 0.36629 0.64814 0.0
C409 C 0.99844 0.36132 0.81016 0.0
H410 H 0.94182 0.33364 0.69278 0.0
C411 C 0.03514 0.37959 0.78471 0.0
C412 C 0.03839 0.38255 0.72611 0.0
H413 H 0.9966 0.36101 0.85544 0.0
H414 H 0.06091 0.39344 0.81086 0.0
C415 C 0.00433 0.36457 0.69342 0.0
C416 C 0.60372 0.01902 0.2428 0.0
C417 C 0.64349 0.03741 0.2294 0.0
H418 H 0.55484 0.96961 0.27971 0.0
C419 C 0.66492 0.01909 0.24348 0.0
H420 H 0.58671 0.03274 0.23274 0.0
C421 C 0.64641 0.98241 0.26974 0.0
C422 C 0.60663 0.96438 0.28352 0.0
H423 H 0.69562 0.03284 0.23328 0.0
H424 H 0.66311 0.96841 0.2801 0.0
C425 C 0.58559 0.9831 0.26991 0.0
C426 C 0.65611 0.62269 0.72335 0.0
C427 C 0.65627 0.61898 0.78184 0.0
H428 H 0.63639 0.64221 0.65343 0.0
C429 C 0.64001 0.63645 0.81527 0.0
H430 H 0.6682 0.60928 0.69663 0.0
C431 C 0.62217 0.65559 0.7906 0.0
C432 C 0.61973 0.65699 0.73204 0.0
H433 H 0.64004 0.63419 0.86048 0.0
H434 H 0.60832 0.66727 0.81722 0.0
C435 C 0.63771 0.64125 0.69868 0.0
C436 C 0.00407 0.64145 0.30846 0.0
C437 C 0.03799 0.6571 0.2755 0.0
H438 H 0.9416 0.60942 0.30978 0.0
C439 C 0.03449 0.65563 0.2169 0.0
H440 H 0.00612 0.64245 0.35374 0.0
C441 C 0.99767 0.6364 0.19182 0.0
C442 C 0.96376 0.61894 0.22487 0.0
H443 H 0.06018 0.66722 0.1906 0.0
H444 H 0.99564 0.63396 0.14661 0.0
C445 C 0.96726 0.62283 0.28337 0.0
C446 C 0.33734 0.98212 0.74156 0.0
C447 C 0.35916 0.96457 0.72563 0.0
H448 H 0.3387 0.03213 0.77983 0.0
C449 C 0.39927 0.98381 0.73706 0.0
H450 H 0.30638 0.96774 0.73293 0.0
C451 C 0.4173 0.01971 0.76415 0.0
C452 C 0.39581 0.03757 0.77977 0.0
H453 H 0.41664 0.97071 0.72566 0.0
H454 H 0.44828 0.0338 0.77262 0.0
C455 C 0.35573 0.01879 0.76785 0.0
C456 C 0.1959 0.40094 0.97501 0.0
C457 C 0.20702 0.43626 0.94711 0.0
H458 H 0.19844 0.37347 0.05139 0.0
C459 C 0.23063 0.47156 0.97524 0.0
H460 H 0.17781 0.37333 0.95414 0.0
C461 C 0.24311 0.47165 0.03001 0.0
C462 C 0.2317 0.43642 0.05825 0.0
H463 H 0.24002 0.4992 0.95445 0.0
H464 H 0.26116 0.49934 0.05073 0.0
C465 C 0.20772 0.40101 0.03043 0.0
C466 C 0.80974 0.23462 0.45995 0.0
C467 C 0.77446 0.20049 0.4471 0.0
H468 H 0.84784 0.27238 0.52386 0.0
C469 C 0.75084 0.17737 0.4914 0.0
H470 H 0.82845 0.25345 0.42695 0.0
C471 C 0.76177 0.18856 0.54705 0.0
C472 C 0.7966 0.22316 0.55987 0.0
H473 H 0.72369 0.15076 0.48312 0.0
H474 H 0.74224 0.17061 0.58004 0.0
C475 C 0.82067 0.2458 0.5156 0.0
C476 C 0.53342 0.77576 0.0369 0.0
C477 C 0.56879 0.79938 0.06489 0.0
H478 H 0.50545 0.74508 0.96162 0.0
C479 C 0.60402 0.81037 0.03685 0.0
H480 H 0.50584 0.76641 0.05775 0.0
C481 C 0.60379 0.79836 0.98151 0.0
C482 C 0.56833 0.77435 0.95385 0.0
H483 H 0.63168 0.82848 0.05758 0.0
H484 H 0.63128 0.80749 0.96052 0.0
C485 C 0.53319 0.76314 0.98219 0.0
C486 C 0.80552 0.60127 0.47347 0.0
C487 C 0.79472 0.5659 0.44595 0.0
H488 H 0.8028 0.62887 0.54955 0.0
C489 C 0.77141 0.53065 0.4744 0.0
H490 H 0.82338 0.62882 0.45232 0.0
C491 C 0.75896 0.53066 0.52915 0.0
C492 C 0.7701 0.56593 0.55703 0.0
H493 H 0.76225 0.50298 0.45391 0.0
H494 H 0.74117 0.50301 0.55014 0.0
C495 C 0.79373 0.60129 0.52886 0.0
C496 C 0.2511 0.82409 0.9879 0.0
C497 C 0.22772 0.80069 0.94365 0.0
H498 H 0.25955 0.83111 0.07654 0.0
C499 C 0.19271 0.76628 0.95656 0.0
H500 H 0.27805 0.85091 0.97957 0.0
C501 C 0.18181 0.75512 0.01224 0.0
C502 C 0.20564 0.77806 0.05648 0.0
H503 H 0.17419 0.74724 0.9236 0.0
H504 H 0.15484 0.72832 0.02056 0.0
C505 C 0.2402 0.81292 0.04358 0.0
C506 C 0.42837 0.23647 0.55187 0.0
C507 C 0.42871 0.20194 0.56487 0.0
H508 H 0.42849 0.27438 0.48775 0.0
C509 C 0.4283 0.17829 0.52071 0.0
H510 H 0.4292 0.2557 0.58477 0.0
C511 C 0.42843 0.18933 0.46501 0.0
C512 C 0.42895 0.22429 0.452 0.0
H513 H 0.42819 0.15136 0.52911 0.0
H514 H 0.4293 0.17094 0.43212 0.0
C515 C 0.42847 0.24749 0.49616 0.0
C516 C 0.8236 0.57317 0.01198 0.0
C517 C 0.80114 0.57448 0.05657 0.0
H518 H 0.82857 0.57 0.92286 0.0
C519 C 0.76942 0.57985 0.04527 0.0
H520 H 0.84781 0.56836 0.02001 0.0
C521 C 0.75787 0.57976 0.98982 0.0
C522 C 0.7787 0.57556 0.94533 0.0
H523 H 0.75127 0.58003 0.07911 0.0
H524 H 0.73102 0.57992 0.98184 0.0
C525 C 0.81273 0.57425 0.95657 0.0
C526 C 0.18982 0.76655 0.54481 0.0
C527 C 0.2253 0.80053 0.55571 0.0
H528 H 0.15294 0.7265 0.48171 0.0
C529 C 0.24733 0.82454 0.51107 0.0
H530 H 0.17297 0.74727 0.57876 0.0
C531 C 0.23535 0.81328 0.45577 0.0
C532 C 0.20191 0.77734 0.44483 0.0
H533 H 0.27521 0.85048 0.51887 0.0
H534 H 0.25424 0.83063 0.4218 0.0
C535 C 0.17846 0.7547 0.48952 0.0
C536 C 0.42233 0.23248 0.96423 0.0
C537 C 0.42582 0.19962 0.95315 0.0
H538 H 0.42392 0.27173 0.02751 0.0
C539 C 0.42559 0.17636 0.99771 0.0
H540 H 0.42339 0.25121 0.93034 0.0
C541 C 0.42474 0.18742 0.05305 0.0
C542 C 0.42532 0.22245 0.06411 0.0
H543 H 0.42901 0.15129 0.98976 0.0
H544 H 0.4277 0.17081 0.08689 0.0
C545 C 0.4227 0.24419 0.01958 0.0
C546 C 0.24831 0.4254 0.49189 0.0
C547 C 0.22595 0.42668 0.44713 0.0
H548 H 0.25552 0.42686 0.58116 0.0
C549 C 0.19011 0.42438 0.4581 0.0
H550 H 0.27645 0.42794 0.48412 0.0
C551 C 0.17873 0.42488 0.51345 0.0
C552 C 0.20252 0.42647 0.5582 0.0
H553 H 0.17295 0.42629 0.42416 0.0
H554 H 0.15291 0.42702 0.52122 0.0
C555 C 0.23634 0.42469 0.54723 0.0
C556 C 0.76949 0.18909 0.95963 0.0
C557 C 0.80139 0.22616 0.94866 0.0
H558 H 0.73071 0.15053 0.02269 0.0
C559 C 0.82364 0.24984 0.9934 0.0
H560 H 0.75151 0.17084 0.9256 0.0
C561 C 0.81247 0.2378 0.04867 0.0
C562 C 0.77834 0.20245 0.05954 0.0
H563 H 0.84799 0.27883 0.98558 0.0
H564 H 0.82823 0.25775 0.08255 0.0
C565 C 0.75763 0.17755 0.01493 0.0
C566 C 0.58039 0.81501 0.55352 0.0
C567 C 0.57829 0.77932 0.56514 0.0
H568 H 0.57739 0.8516 0.48969 0.0
C569 C 0.57966 0.75671 0.52082 0.0
H570 H 0.57837 0.83232 0.58713 0.0
C571 C 0.58016 0.76821 0.46528 0.0
C572 C 0.57817 0.80185 0.45367 0.0
H573 H 0.57725 0.72867 0.52911 0.0
H574 H 0.57799 0.7488 0.43169 0.0
C575 C 0.57974 0.82594 0.49796 0.0
C576 C 0.24952 0.59973 0.25531 0.0
C577 C 0.21841 0.56885 0.2841 0.0
H578 H 0.27313 0.6573 0.22113 0.0
C579 C 0.18642 0.57271 0.30018 0.0
H580 H 0.27425 0.59725 0.24167 0.0
C581 C 0.18577 0.60694 0.28859 0.0
C582 C 0.21684 0.63787 0.25983 0.0
H583 H 0.16211 0.54938 0.32242 0.0
H584 H 0.16095 0.60925 0.30243 0.0
C585 C 0.2486 0.63383 0.24285 0.0
C586 C 0.61502 0.18506 0.80527 0.0
C587 C 0.65073 0.21659 0.78775 0.0
H588 H 0.55316 0.1602 0.80955 0.0
C589 C 0.65086 0.24751 0.75847 0.0
H590 H 0.61411 0.16092 0.82792 0.0
C591 C 0.61587 0.24686 0.74701 0.0
C592 C 0.58023 0.21557 0.76547 0.0
H593 H 0.67797 0.27187 0.74373 0.0
H594 H 0.61683 0.27123 0.72492 0.0
C595 C 0.58019 0.18468 0.79465 0.0
C596 C 0.43368 0.6159 0.30351 0.0
C597 C 0.43789 0.65201 0.28811 0.0
H598 H 0.39634 0.5539 0.30553 0.0
C599 C 0.40709 0.65281 0.25997 0.0
H600 H 0.45697 0.61451 0.32517 0.0
C601 C 0.37268 0.61814 0.2476 0.0
C602 C 0.36818 0.58207 0.26411 0.0
H603 H 0.40985 0.68025 0.24686 0.0
H604 H 0.34929 0.61967 0.22644 0.0
C605 C 0.39903 0.5813 0.29215 0.0
C606 C 0.75416 0.36815 0.74343 0.0
C607 C 0.78604 0.36425 0.76025 0.0
H608 H 0.72856 0.40477 0.74176 0.0
C609 C 0.81739 0.39549 0.78809 0.0
H610 H 0.72942 0.34443 0.72243 0.0
C611 C 0.81691 0.42989 0.79892 0.0
C612 C 0.78479 0.43358 0.78307 0.0
H613 H 0.8423 0.39328 0.80177 0.0
H614 H 0.84144 0.45347 0.82042 0.0
C615 C 0.7534 0.4024 0.7552 0.0
C616 C 0.35169 0.75385 0.25921 0.0
C617 C 0.3517 0.7849 0.28782 0.0
H618 H 0.38584 0.72992 0.22698 0.0
C619 C 0.38727 0.81632 0.30597 0.0
H620 H 0.32467 0.72958 0.24405 0.0
C621 C 0.42212 0.81648 0.29647 0.0
C622 C 0.42221 0.78553 0.26773 0.0
H623 H 0.38803 0.84055 0.32809 0.0
H624 H 0.44906 0.84092 0.3117 0.0
C625 C 0.38669 0.75432 0.24879 0.0
C626 C 0.63059 0.38408 0.74688 0.0
C627 C 0.63522 0.42004 0.76428 0.0
H628 H 0.59339 0.32198 0.7454 0.0
C629 C 0.60461 0.42058 0.79335 0.0
H630 H 0.6538 0.38271 0.72489 0.0
C631 C 0.57007 0.38591 0.80481 0.0
C632 C 0.56569 0.34991 0.7884 0.0
H633 H 0.60739 0.44788 0.80745 0.0
H634 H 0.54698 0.38716 0.82727 0.0
C635 C 0.59627 0.34931 0.75928 0.0
C636 C 0.36914 0.75483 0.76123 0.0
C637 C 0.36503 0.78643 0.74363 0.0
H638 H 0.40631 0.72992 0.76475 0.0
C639 C 0.39639 0.81799 0.71625 0.0
H640 H 0.34534 0.72997 0.78193 0.0
C641 C 0.43117 0.818 0.70673 0.0
C642 C 0.43509 0.78616 0.72339 0.0
H643 H 0.39402 0.84272 0.70206 0.0
H644 H 0.45488 0.84268 0.68565 0.0
C645 C 0.40376 0.75454 0.75072 0.0
C646 C 0.57943 0.39431 0.21717 0.0
C647 C 0.57986 0.36386 0.24694 0.0
H648 H 0.61294 0.45143 0.1818 0.0
C649 C 0.6158 0.36838 0.26424 0.0
H650 H 0.55219 0.39162 0.20307 0.0
C651 C 0.65064 0.40244 0.25109 0.0
C652 C 0.65013 0.43282 0.22122 0.0
H653 H 0.61708 0.34529 0.28673 0.0
H654 H 0.67796 0.40529 0.26498 0.0
C655 C 0.61416 0.42851 0.20485 0.0
C656 C 0.18438 0.58117 0.71376 0.0
C657 C 0.21568 0.58154 0.74218 0.0
H658 H 0.16 0.61482 0.68119 0.0
C659 C 0.24709 0.61739 0.75974 0.0
H660 H 0.15981 0.55396 0.69956 0.0
C661 C 0.24748 0.65223 0.74813 0.0
C662 C 0.21617 0.65181 0.71969 0.0
H663 H 0.27176 0.61863 0.78126 0.0
H664 H 0.272 0.67949 0.7621 0.0
C665 C 0.18446 0.61591 0.70313 0.0
C666 C 0.59875 0.24743 0.25216 0.0
C667 C 0.56771 0.21609 0.22397 0.0
H668 H 0.65681 0.27167 0.28464 0.0
C669 C 0.57182 0.18441 0.20704 0.0
H670 H 0.59605 0.27193 0.2664 0.0
C671 C 0.60646 0.18428 0.21722 0.0
C672 C 0.63752 0.21555 0.24546 0.0
H673 H 0.54836 0.15994 0.18526 0.0
H674 H 0.60895 0.15966 0.20283 0.0
C675 C 0.63325 0.24701 0.26327 0.0
C676 C 0.42245 0.60764 0.71718 0.0
C677 C 0.42186 0.63822 0.74628 0.0
H678 H 0.38912 0.55022 0.68269 0.0
C679 C 0.38585 0.63374 0.76306 0.0
H680 H 0.44976 0.61029 0.7035 0.0
C681 C 0.35108 0.59955 0.75013 0.0
C682 C 0.35176 0.569 0.72105 0.0
H683 H 0.38445 0.65693 0.78506 0.0
H684 H 0.3237 0.59671 0.76368 0.0
C685 C 0.3878 0.57329 0.70513 0.0
C686 C 0.75458 0.34937 0.25026 0.0
C687 C 0.78621 0.34982 0.22275 0.0
H688 H 0.72992 0.38296 0.28209 0.0
C689 C 0.81809 0.38571 0.20658 0.0
H690 H 0.72992 0.32209 0.26391 0.0
C691 C 0.81803 0.42044 0.21663 0.0
C692 C 0.78641 0.42003 0.2441 0.0
H693 H 0.84278 0.38682 0.18537 0.0
H694 H 0.84273 0.44766 0.20271 0.0
C695 C 0.75483 0.38419 0.26133 0.0
loop_
_geom_bond_atom_site_label_1
_geom_bond_atom_site_label_2
_geom_bond_distance
_geom_bond_site_symmetry_2
_ccdc_geom_bond_type
Co0 N4 2.148 . S
Co0 N10 2.128 . S
Co0 N20 2.194 . S
Co0 O25 2.351 . S
Co0 O26 2.155 . S
Co0 O27 2.096 . S
C1 N4 1.301 . S
C1 N5 1.328 . S
C1 H6 0.930 . S
C2 C3 1.333 . S
C2 N4 1.317 . S
C2 H7 0.930 . S
C3 C2 1.333 . S
C3 N5 1.350 . S
C3 H29 0.931 . S
N4 Co0 2.148 . S
N4 C1 1.301 . S
N4 C2 1.317 . S
N5 C1 1.328 . S
N5 C3 1.350 . S
H6 C1 0.930 . S
H7 C2 0.930 . S
C8 O9 1.224 . S
C8 O27 1.247 . S
O9 C8 1.224 . S
N10 Co0 2.128 . S
N10 C11 1.355 . S
N10 C13 1.311 . S
C11 N10 1.355 . S
C11 C12 1.363 . S
C11 H23 0.929 . S
C12 C11 1.363 . S
C12 N14 1.375 . S
C12 H30 0.931 . S
C13 N10 1.311 . S
C13 N14 1.347 . S
C13 H24 0.929 . S
N14 C12 1.375 . S
N14 C13 1.347 . S
C15 C18 1.365 . S
C15 N20 1.328 . S
C15 H21 0.929 . S
C16 C17 1.362 . S
C16 C19 1.378 . S
C16 H31 0.929 . S
C17 C16 1.362 . S
C17 C18 1.366 . S
C18 C15 1.365 . S
C18 C17 1.366 . S
C18 H32 0.930 . S
C19 C16 1.378 . S
C19 N20 1.315 . S
C19 H22 0.930 . S
N20 Co0 2.194 . S
N20 C15 1.328 . S
N20 C19 1.315 . S
H21 C15 0.929 . S
H22 C19 0.930 . S
H23 C11 0.929 . S
H24 C13 0.929 . S
O25 Co0 2.351 . S
O25 C28 1.244 . S
O26 Co0 2.155 . S
O26 C28 1.240 . S
O27 Co0 2.096 . S
O27 C8 1.247 . S
C28 O25 1.244 . S
C28 O26 1.240 . S
H29 C3 0.931 . S
H30 C12 0.931 . S
H31 C16 0.929 . S
H32 C18 0.930 . S
Co33 N37 2.148 . S
Co33 N43 2.128 . S
Co33 N53 2.194 . S
Co33 O58 2.351 . S
Co33 O59 2.155 . S
Co33 O60 2.096 . S
C34 N37 1.301 . S
C34 N38 1.328 . S
C34 H39 0.930 . S
C35 C36 1.333 . S
C35 N37 1.317 . S
C35 H40 0.930 . S
C36 C35 1.333 . S
C36 N38 1.350 . S
C36 H62 0.931 . S
N37 Co33 2.148 . S
N37 C34 1.301 . S
N37 C35 1.317 . S
N38 C34 1.328 . S
N38 C36 1.350 . S
H39 C34 0.930 . S
H40 C35 0.930 . S
C41 O42 1.224 . S
C41 O60 1.247 . S
O42 C41 1.224 . S
N43 Co33 2.128 . S
N43 C44 1.355 . S
N43 C46 1.311 . S
C44 N43 1.355 . S
C44 C45 1.363 . S
C44 H56 0.929 . S
C45 C44 1.363 . S
C45 N47 1.375 . S
C45 H63 0.931 . S
C46 N43 1.311 . S
C46 N47 1.347 . S
C46 H57 0.929 . S
N47 C45 1.375 . S
N47 C46 1.347 . S
C48 C51 1.365 . S
C48 N53 1.328 . S
C48 H54 0.929 . S
C49 C50 1.362 . S
C49 C52 1.378 . S
C49 H64 0.929 . S
C50 C49 1.362 . S
C50 C51 1.366 . S
C51 C48 1.365 . S
C51 C50 1.366 . S
C51 H65 0.930 . S
C52 C49 1.378 . S
C52 N53 1.315 . S
C52 H55 0.930 . S
N53 Co33 2.194 . S
N53 C48 1.328 . S
N53 C52 1.315 . S
H54 C48 0.929 . S
H55 C52 0.930 . S
H56 C44 0.929 . S
H57 C46 0.929 . S
O58 Co33 2.351 . S
O58 C61 1.244 . S
O59 Co33 2.155 . S
O59 C61 1.240 . S
O60 Co33 2.096 . S
O60 C41 1.247 . S
C61 O58 1.244 . S
C61 O59 1.240 . S
H62 C36 0.931 . S
H63 C45 0.931 . S
H64 C49 0.929 . S
H65 C51 0.930 . S
Co66 N70 2.148 . S
Co66 N76 2.128 . S
Co66 N86 2.194 . S
Co66 O91 2.351 . S
Co66 O92 2.155 . S
Co66 O93 2.096 . S
C67 N70 1.301 . S
C67 N71 1.328 . S
C67 H72 0.930 . S
C68 C69 1.333 . S
C68 N70 1.317 . S
C68 H73 0.930 . S
C69 C68 1.333 . S
C69 N71 1.350 . S
C69 H95 0.931 . S
N70 Co66 2.148 . S
N70 C67 1.301 . S
N70 C68 1.317 . S
N71 C67 1.328 . S
N71 C69 1.350 . S
H72 C67 0.930 . S
H73 C68 0.930 . S
C74 O75 1.224 . S
C74 O93 1.247 . S
O75 C74 1.224 . S
N76 Co66 2.128 . S
N76 C77 1.355 . S
N76 C79 1.311 . S
C77 N76 1.355 . S
C77 C78 1.363 . S
C77 H89 0.929 . S
C78 C77 1.363 . S
C78 N80 1.375 . S
C78 H96 0.931 . S
C79 N76 1.311 . S
C79 N80 1.347 . S
C79 H90 0.929 . S
N80 C78 1.375 . S
N80 C79 1.347 . S
C81 C84 1.365 . S
C81 N86 1.328 . S
C81 H87 0.929 . S
C82 C83 1.362 . S
C82 C85 1.378 . S
C82 H97 0.929 . S
C83 C82 1.362 . S
C83 C84 1.366 . S
C84 C81 1.365 . S
C84 C83 1.366 . S
C84 H98 0.930 . S
C85 C82 1.378 . S
C85 N86 1.315 . S
C85 H88 0.930 . S
N86 Co66 2.194 . S
N86 C81 1.328 . S
N86 C85 1.315 . S
H87 C81 0.929 . S
H88 C85 0.930 . S
H89 C77 0.929 . S
H90 C79 0.929 . S
O91 Co66 2.351 . S
O91 C94 1.244 . S
O92 Co66 2.155 . S
O92 C94 1.240 . S
O93 Co66 2.096 . S
O93 C74 1.247 . S
C94 O91 1.244 . S
C94 O92 1.240 . S
H95 C69 0.931 . S
H96 C78 0.931 . S
H97 C82 0.929 . S
H98 C84 0.930 . S
Co99 N103 2.148 . S
Co99 N109 2.128 . S
Co99 N119 2.194 . S
Co99 O124 2.351 . S
Co99 O125 2.155 . S
Co99 O126 2.096 . S
C100 N103 1.301 . S
C100 N104 1.328 . S
C100 H105 0.930 . S
C101 C102 1.333 . S
C101 N103 1.317 . S
C101 H106 0.930 . S
C102 C101 1.333 . S
C102 N104 1.350 . S
C102 H128 0.931 . S
N103 Co99 2.148 . S
N103 C100 1.301 . S
N103 C101 1.317 . S
N104 C100 1.328 . S
N104 C102 1.350 . S
H105 C100 0.930 . S
H106 C101 0.930 . S
C107 O108 1.224 . S
C107 O126 1.247 . S
O108 C107 1.224 . S
N109 Co99 2.128 . S
N109 C110 1.355 . S
N109 C112 1.311 . S
C110 N109 1.355 . S
C110 C111 1.363 . S
C110 H122 0.929 . S
C111 C110 1.363 . S
C111 N113 1.375 . S
C111 H129 0.931 . S
C112 N109 1.311 . S
C112 N113 1.347 . S
C112 H123 0.929 . S
N113 C111 1.375 . S
N113 C112 1.347 . S
C114 C117 1.365 . S
C114 N119 1.328 . S
C114 H120 0.929 . S
C115 C116 1.362 . S
C115 C118 1.378 . S
C115 H130 0.929 . S
C116 C115 1.362 . S
C116 C117 1.366 . S
C117 C114 1.365 . S
C117 C116 1.366 . S
C117 H131 0.930 . S
C118 C115 1.378 . S
C118 N119 1.315 . S
C118 H121 0.930 . S
N119 Co99 2.194 . S
N119 C114 1.328 . S
N119 C118 1.315 . S
H120 C114 0.929 . S
H121 C118 0.930 . S
H122 C110 0.929 . S
H123 C112 0.929 . S
O124 Co99 2.351 . S
O124 C127 1.244 . S
O125 Co99 2.155 . S
O125 C127 1.240 . S
O126 Co99 2.096 . S
O126 C107 1.247 . S
C127 O124 1.244 . S
C127 O125 1.240 . S
H128 C102 0.931 . S
H129 C111 0.931 . S
H130 C115 0.929 . S
H131 C117 0.930 . S
Co132 N136 2.148 . S
Co132 N142 2.128 . S
Co132 N152 2.194 . S
Co132 O157 2.351 . S
Co132 O158 2.155 . S
Co132 O159 2.096 . S
C133 N136 1.301 . S
C133 N137 1.328 . S
C133 H138 0.930 . S
C134 C135 1.333 . S
C134 N136 1.317 . S
C134 H139 0.930 . S
C135 C134 1.333 . S
C135 N137 1.350 . S
C135 H161 0.931 . S
N136 Co132 2.148 . S
N136 C133 1.301 . S
N136 C134 1.317 . S
N137 C133 1.328 . S
N137 C135 1.350 . S
H138 C133 0.930 . S
H139 C134 0.930 . S
C140 O141 1.224 . S
C140 O159 1.247 . S
O141 C140 1.224 . S
N142 Co132 2.128 . S
N142 C143 1.355 . S
N142 C145 1.311 . S
C143 N142 1.355 . S
C143 C144 1.363 . S
C143 H155 0.929 . S
C144 C143 1.363 . S
C144 N146 1.375 . S
C144 H162 0.931 . S
C145 N142 1.311 . S
C145 N146 1.347 . S
C145 H156 0.929 . S
N146 C144 1.375 . S
N146 C145 1.347 . S
C147 C150 1.365 . S
C147 N152 1.328 . S
C147 H153 0.929 . S
C148 C149 1.362 . S
C148 C151 1.378 . S
C148 H163 0.929 . S
C149 C148 1.362 . S
C149 C150 1.366 . S
C150 C147 1.365 . S
C150 C149 1.366 . S
C150 H164 0.930 . S
C151 C148 1.378 . S
C151 N152 1.315 . S
C151 H154 0.930 . S
N152 Co132 2.194 . S
N152 C147 1.328 . S
N152 C151 1.315 . S
H153 C147 0.929 . S
H154 C151 0.930 . S
H155 C143 0.929 . S
H156 C145 0.929 . S
O157 Co132 2.351 . S
O157 C160 1.244 . S
O158 Co132 2.155 . S
O158 C160 1.240 . S
O159 Co132 2.096 . S
O159 C140 1.247 . S
C160 O157 1.244 . S
C160 O158 1.240 . S
H161 C135 0.931 . S
H162 C144 0.931 . S
H163 C148 0.929 . S
H164 C150 0.930 . S
Co165 N169 2.148 . S
Co165 N175 2.128 . S
Co165 N185 2.194 . S
Co165 O190 2.351 . S
Co165 O191 2.155 . S
Co165 O192 2.096 . S
C166 N169 1.301 . S
C166 N170 1.328 . S
C166 H171 0.930 . S
C167 C168 1.333 . S
C167 N169 1.317 . S
C167 H172 0.930 . S
C168 C167 1.333 . S
C168 N170 1.350 . S
C168 H194 0.931 . S
N169 Co165 2.148 . S
N169 C166 1.301 . S
N169 C167 1.317 . S
N170 C166 1.328 . S
N170 C168 1.350 . S
H171 C166 0.930 . S
H172 C167 0.930 . S
C173 O174 1.224 . S
C173 O192 1.247 . S
O174 C173 1.224 . S
N175 Co165 2.128 . S
N175 C176 1.355 . S
N175 C178 1.311 . S
C176 N175 1.355 . S
C176 C177 1.363 . S
C176 H188 0.929 . S
C177 C176 1.363 . S
C177 N179 1.375 . S
C177 H195 0.931 . S
C178 N175 1.311 . S
C178 N179 1.347 . S
C178 H189 0.929 . S
N179 C177 1.375 . S
N179 C178 1.347 . S
C180 C183 1.365 . S
C180 N185 1.328 . S
C180 H186 0.929 . S
C181 C182 1.362 . S
C181 C184 1.378 . S
C181 H196 0.929 . S
C182 C181 1.362 . S
C182 C183 1.366 . S
C183 C180 1.365 . S
C183 C182 1.366 . S
C183 H197 0.930 . S
C184 C181 1.378 . S
C184 N185 1.315 . S
C184 H187 0.930 . S
N185 Co165 2.194 . S
N185 C180 1.328 . S
N185 C184 1.315 . S
H186 C180 0.929 . S
H187 C184 0.930 . S
H188 C176 0.929 . S
H189 C178 0.929 . S
O190 Co165 2.351 . S
O190 C193 1.244 . S
O191 Co165 2.155 . S
O191 C193 1.240 . S
O192 Co165 2.096 . S
O192 C173 1.247 . S
C193 O190 1.244 . S
C193 O191 1.240 . S
H194 C168 0.931 . S
H195 C177 0.931 . S
H196 C181 0.929 . S
H197 C183 0.930 . S
Co198 N202 2.148 . S
Co198 N208 2.128 . S
Co198 N218 2.194 . S
Co198 O223 2.351 . S
Co198 O224 2.155 . S
Co198 O225 2.096 . S
C199 N202 1.301 . S
C199 N203 1.328 . S
C199 H204 0.930 . S
C200 C201 1.333 . S
C200 N202 1.317 . S
C200 H205 0.930 . S
C201 C200 1.333 . S
C201 N203 1.350 . S
C201 H227 0.931 . S
N202 Co198 2.148 . S
N202 C199 1.301 . S
N202 C200 1.317 . S
N203 C199 1.328 . S
N203 C201 1.350 . S
H204 C199 0.930 . S
H205 C200 0.930 . S
C206 O207 1.224 . S
C206 O225 1.247 . S
O207 C206 1.224 . S
N208 Co198 2.128 . S
N208 C209 1.355 . S
N208 C211 1.311 . S
C209 N208 1.355 . S
C209 C210 1.363 . S
C209 H221 0.929 . S
C210 C209 1.363 . S
C210 N212 1.375 . S
C210 H228 0.931 . S
C211 N208 1.311 . S
C211 N212 1.347 . S
C211 H222 0.929 . S
N212 C210 1.375 . S
N212 C211 1.347 . S
C213 C216 1.365 . S
C213 N218 1.328 . S
C213 H219 0.929 . S
C214 C215 1.362 . S
C214 C217 1.378 . S
C214 H229 0.929 . S
C215 C214 1.362 . S
C215 C216 1.366 . S
C216 C213 1.365 . S
C216 C215 1.366 . S
C216 H230 0.930 . S
C217 C214 1.378 . S
C217 N218 1.315 . S
C217 H220 0.930 . S
N218 Co198 2.194 . S
N218 C213 1.328 . S
N218 C217 1.315 . S
H219 C213 0.929 . S
H220 C217 0.930 . S
H221 C209 0.929 . S
H222 C211 0.929 . S
O223 Co198 2.351 . S
O223 C226 1.244 . S
O224 Co198 2.155 . S
O224 C226 1.240 . S
O225 Co198 2.096 . S
O225 C206 1.247 . S
C226 O223 1.244 . S
C226 O224 1.240 . S
H227 C201 0.931 . S
H228 C210 0.931 . S
H229 C214 0.929 . S
H230 C216 0.930 . S
Co231 N235 2.148 . S
Co231 N241 2.128 . S
Co231 N251 2.194 . S
Co231 O256 2.351 . S
Co231 O257 2.155 . S
Co231 O258 2.096 . S
C232 N235 1.301 . S
C232 N236 1.328 . S
C232 H237 0.930 . S
C233 C234 1.333 . S
C233 N235 1.317 . S
C233 H238 0.930 . S
C234 C233 1.333 . S
C234 N236 1.350 . S
C234 H260 0.931 . S
N235 Co231 2.148 . S
N235 C232 1.301 . S
N235 C233 1.317 . S
N236 C232 1.328 . S
N236 C234 1.350 . S
H237 C232 0.930 . S
H238 C233 0.930 . S
C239 O240 1.224 . S
C239 O258 1.247 . S
O240 C239 1.224 . S
N241 Co231 2.128 . S
N241 C242 1.355 . S
N241 C244 1.311 . S
C242 N241 1.355 . S
C242 C243 1.363 . S
C242 H254 0.929 . S
C243 C242 1.363 . S
C243 N245 1.375 . S
C243 H261 0.931 . S
C244 N241 1.311 . S
C244 N245 1.347 . S
C244 H255 0.929 . S
N245 C243 1.375 . S
N245 C244 1.347 . S
C246 C249 1.365 . S
C246 N251 1.328 . S
C246 H252 0.929 . S
C247 C248 1.362 . S
C247 C250 1.378 . S
C247 H262 0.929 . S
C248 C247 1.362 . S
C248 C249 1.366 . S
C249 C246 1.365 . S
C249 C248 1.366 . S
C249 H263 0.930 . S
C250 C247 1.378 . S
C250 N251 1.315 . S
C250 H253 0.930 . S
N251 Co231 2.194 . S
N251 C246 1.328 . S
N251 C250 1.315 . S
H252 C246 0.929 . S
H253 C250 0.930 . S
H254 C242 0.929 . S
H255 C244 0.929 . S
O256 Co231 2.351 . S
O256 C259 1.244 . S
O257 Co231 2.155 . S
O257 C259 1.240 . S
O258 Co231 2.096 . S
O258 C239 1.247 . S
C259 O256 1.244 . S
C259 O257 1.240 . S
H260 C234 0.931 . S
H261 C243 0.931 . S
H262 C247 0.929 . S
H263 C249 0.930 . S
Co264 N268 2.148 . S
Co264 N274 2.128 . S
Co264 N284 2.194 . S
Co264 O289 2.351 . S
Co264 O290 2.155 . S
Co264 O291 2.096 . S
C265 N268 1.301 . S
C265 N269 1.328 . S
C265 H270 0.930 . S
C266 C267 1.333 . S
C266 N268 1.317 . S
C266 H271 0.930 . S
C267 C266 1.333 . S
C267 N269 1.350 . S
C267 H293 0.931 . S
N268 Co264 2.148 . S
N268 C265 1.301 . S
N268 C266 1.317 . S
N269 C265 1.328 . S
N269 C267 1.350 . S
H270 C265 0.930 . S
H271 C266 0.930 . S
C272 O273 1.224 . S
C272 O291 1.247 . S
O273 C272 1.224 . S
N274 Co264 2.128 . S
N274 C275 1.355 . S
N274 C277 1.311 . S
C275 N274 1.355 . S
C275 C276 1.363 . S
C275 H287 0.929 . S
C276 C275 1.363 . S
C276 N278 1.375 . S
C276 H294 0.931 . S
C277 N274 1.311 . S
C277 N278 1.347 . S
C277 H288 0.929 . S
N278 C276 1.375 . S
N278 C277 1.347 . S
C279 C282 1.365 . S
C279 N284 1.328 . S
C279 H285 0.929 . S
C280 C281 1.362 . S
C280 C283 1.378 . S
C280 H295 0.929 . S
C281 C280 1.362 . S
C281 C282 1.366 . S
C282 C279 1.365 . S
C282 C281 1.366 . S
C282 H296 0.930 . S
C283 C280 1.378 . S
C283 N284 1.315 . S
C283 H286 0.930 . S
N284 Co264 2.194 . S
N284 C279 1.328 . S
N284 C283 1.315 . S
H285 C279 0.929 . S
H286 C283 0.930 . S
H287 C275 0.929 . S
H288 C277 0.929 . S
O289 Co264 2.351 . S
O289 C292 1.244 . S
O290 Co264 2.155 . S
O290 C292 1.240 . S
O291 Co264 2.096 . S
O291 C272 1.247 . S
C292 O289 1.244 . S
C292 O290 1.240 . S
H293 C267 0.931 . S
H294 C276 0.931 . S
H295 C280 0.929 . S
H296 C282 0.930 . S
Co297 N301 2.148 . S
Co297 N307 2.128 . S
Co297 N317 2.194 . S
Co297 O322 2.351 . S
Co297 O323 2.155 . S
Co297 O324 2.096 . S
C298 N301 1.301 . S
C298 N302 1.328 . S
C298 H303 0.930 . S
C299 C300 1.333 . S
C299 N301 1.317 . S
C299 H304 0.930 . S
C300 C299 1.333 . S
C300 N302 1.350 . S
C300 H326 0.931 . S
N301 Co297 2.148 . S
N301 C298 1.301 . S
N301 C299 1.317 . S
N302 C298 1.328 . S
N302 C300 1.350 . S
H303 C298 0.930 . S
H304 C299 0.930 . S
C305 O306 1.224 . S
C305 O324 1.247 . S
O306 C305 1.224 . S
N307 Co297 2.128 . S
N307 C308 1.355 . S
N307 C310 1.311 . S
C308 N307 1.355 . S
C308 C309 1.363 . S
C308 H320 0.929 . S
C309 C308 1.363 . S
C309 N311 1.375 . S
C309 H327 0.931 . S
C310 N307 1.311 . S
C310 N311 1.347 . S
C310 H321 0.929 . S
N311 C309 1.375 . S
N311 C310 1.347 . S
C312 C315 1.365 . S
C312 N317 1.328 . S
C312 H318 0.929 . S
C313 C314 1.362 . S
C313 C316 1.378 . S
C313 H328 0.929 . S
C314 C313 1.362 . S
C314 C315 1.366 . S
C315 C312 1.365 . S
C315 C314 1.366 . S
C315 H329 0.930 . S
C316 C313 1.378 . S
C316 N317 1.315 . S
C316 H319 0.930 . S
N317 Co297 2.194 . S
N317 C312 1.328 . S
N317 C316 1.315 . S
H318 C312 0.929 . S
H319 C316 0.930 . S
H320 C308 0.929 . S
H321 C310 0.929 . S
O322 Co297 2.351 . S
O322 C325 1.244 . S
O323 Co297 2.155 . S
O323 C325 1.240 . S
O324 Co297 2.096 . S
O324 C305 1.247 . S
C325 O322 1.244 . S
C325 O323 1.240 . S
H326 C300 0.931 . S
H327 C309 0.931 . S
H328 C313 0.929 . S
H329 C315 0.930 . S
Co330 N334 2.148 . S
Co330 N340 2.128 . S
Co330 N350 2.194 . S
Co330 O355 2.351 . S
Co330 O356 2.155 . S
Co330 O357 2.096 . S
C331 N334 1.301 . S
C331 N335 1.328 . S
C331 H336 0.930 . S
C332 C333 1.333 . S
C332 N334 1.317 . S
C332 H337 0.930 . S
C333 C332 1.333 . S
C333 N335 1.350 . S
C333 H359 0.931 . S
N334 Co330 2.148 . S
N334 C331 1.301 . S
N334 C332 1.317 . S
N335 C331 1.328 . S
N335 C333 1.350 . S
H336 C331 0.930 . S
H337 C332 0.930 . S
C338 O339 1.224 . S
C338 O357 1.247 . S
O339 C338 1.224 . S
N340 Co330 2.128 . S
N340 C341 1.355 . S
N340 C343 1.311 . S
C341 N340 1.355 . S
C341 C342 1.363 . S
C341 H353 0.929 . S
C342 C341 1.363 . S
C342 N344 1.375 . S
C342 H360 0.931 . S
C343 N340 1.311 . S
C343 N344 1.347 . S
C343 H354 0.929 . S
N344 C342 1.375 . S
N344 C343 1.347 . S
C345 C348 1.365 . S
C345 N350 1.328 . S
C345 H351 0.929 . S
C346 C347 1.362 . S
C346 C349 1.378 . S
C346 H361 0.929 . S
C347 C346 1.362 . S
C347 C348 1.366 . S
C348 C345 1.365 . S
C348 C347 1.366 . S
C348 H362 0.930 . S
C349 C346 1.378 . S
C349 N350 1.315 . S
C349 H352 0.930 . S
N350 Co330 2.194 . S
N350 C345 1.328 . S
N350 C349 1.315 . S
H351 C345 0.929 . S
H352 C349 0.930 . S
H353 C341 0.929 . S
H354 C343 0.929 . S
O355 Co330 2.351 . S
O355 C358 1.244 . S
O356 Co330 2.155 . S
O356 C358 1.240 . S
O357 Co330 2.096 . S
O357 C338 1.247 . S
C358 O355 1.244 . S
C358 O356 1.240 . S
H359 C333 0.931 . S
H360 C342 0.931 . S
H361 C346 0.929 . S
H362 C348 0.930 . S
Co363 N367 2.148 . S
Co363 N373 2.128 . S
Co363 N383 2.194 . S
Co363 O388 2.351 . S
Co363 O389 2.155 . S
Co363 O390 2.096 . S
C364 N367 1.301 . S
C364 N368 1.328 . S
C364 H369 0.930 . S
C365 C366 1.333 . S
C365 N367 1.317 . S
C365 H370 0.930 . S
C366 C365 1.333 . S
C366 N368 1.350 . S
C366 H392 0.931 . S
N367 Co363 2.148 . S
N367 C364 1.301 . S
N367 C365 1.317 . S
N368 C364 1.328 . S
N368 C366 1.350 . S
H369 C364 0.930 . S
H370 C365 0.930 . S
C371 O372 1.224 . S
C371 O390 1.247 . S
O372 C371 1.224 . S
N373 Co363 2.128 . S
N373 C374 1.355 . S
N373 C376 1.311 . S
C374 N373 1.355 . S
C374 C375 1.363 . S
C374 H386 0.929 . S
C375 C374 1.363 . S
C375 N377 1.375 . S
C375 H393 0.931 . S
C376 N373 1.311 . S
C376 N377 1.347 . S
C376 H387 0.929 . S
N377 C375 1.375 . S
N377 C376 1.347 . S
C378 C381 1.365 . S
C378 N383 1.328 . S
C378 H384 0.929 . S
C379 C380 1.362 . S
C379 C382 1.378 . S
C379 H394 0.929 . S
C380 C379 1.362 . S
C380 C381 1.366 . S
C381 C378 1.365 . S
C381 C380 1.366 . S
C381 H395 0.930 . S
C382 C379 1.378 . S
C382 N383 1.315 . S
C382 H385 0.930 . S
N383 Co363 2.194 . S
N383 C378 1.328 . S
N383 C382 1.315 . S
H384 C378 0.929 . S
H385 C382 0.930 . S
H386 C374 0.929 . S
H387 C376 0.929 . S
O388 Co363 2.351 . S
O388 C391 1.244 . S
O389 Co363 2.155 . S
O389 C391 1.240 . S
O390 Co363 2.096 . S
O390 C371 1.247 . S
C391 O388 1.244 . S
C391 O389 1.240 . S
H392 C366 0.931 . S
H393 C375 0.931 . S
H394 C379 0.929 . S
H395 C381 0.930 . S
C396 C397 1.387 . S
C396 H400 0.950 . S
C396 C405 1.390 . S
C397 C396 1.387 . S
C397 C399 1.387 . S
H398 C405 0.950 . S
C399 C397 1.387 . S
C399 C401 1.390 . S
C399 H403 0.950 . S
H400 C396 0.950 . S
C401 C399 1.390 . S
C401 C402 1.387 . S
C401 H404 0.950 . S
C402 C401 1.387 . S
C402 C405 1.387 . S
H403 C399 0.950 . S
H404 C401 0.950 . S
C405 C396 1.390 . S
C405 H398 0.950 . S
C405 C402 1.387 . S
C406 C407 1.387 . S
C406 H410 0.950 . S
C406 C415 1.390 1_655 S
C407 C406 1.387 . S
C407 C409 1.387 . S
H408 C415 0.950 . S
C409 C407 1.387 . S
C409 C411 1.390 1_655 S
C409 H413 0.950 . S
H410 C406 0.950 . S
C411 C409 1.390 1_455 S
C411 C412 1.387 . S
C411 H414 0.950 . S
C412 C411 1.387 . S
C412 C415 1.387 . S
H413 C409 0.950 . S
H414 C411 0.950 . S
C415 C406 1.390 1_455 S
C415 H408 0.950 . S
C415 C412 1.387 . S
C416 C417 1.387 . S
C416 H420 0.950 . S
C416 C425 1.390 1_545 S
C417 C416 1.387 . S
C417 C419 1.387 . S
H418 C425 0.950 . S
C419 C417 1.387 . S
C419 C421 1.390 1_545 S
C419 H423 0.950 . S
H420 C416 0.950 . S
C421 C419 1.390 1_565 S
C421 C422 1.387 . S
C421 H424 0.950 . S
C422 C421 1.387 . S
C422 C425 1.387 . S
H423 C419 0.950 . S
H424 C421 0.950 . S
C425 C416 1.390 1_565 S
C425 H418 0.950 . S
C425 C422 1.387 . S
C426 C427 1.387 . S
C426 H430 0.950 . S
C426 C435 1.390 . S
C427 C426 1.387 . S
C427 C429 1.387 . S
H428 C435 0.950 . S
C429 C427 1.387 . S
C429 C431 1.390 . S
C429 H433 0.950 . S
H430 C426 0.950 . S
C431 C429 1.390 . S
C431 C432 1.387 . S
C431 H434 0.950 . S
C432 C431 1.387 . S
C432 C435 1.387 . S
H433 C429 0.950 . S
H434 C431 0.950 . S
C435 C426 1.390 . S
C435 H428 0.950 . S
C435 C432 1.387 . S
C436 C437 1.387 . S
C436 H440 0.950 . S
C436 C445 1.390 1_455 S
C437 C436 1.387 . S
C437 C439 1.387 . S
H438 C445 0.950 . S
C439 C437 1.387 . S
C439 C441 1.390 1_455 S
C439 H443 0.950 . S
H440 C436 0.950 . S
C441 C439 1.390 1_655 S
C441 C442 1.387 . S
C441 H444 0.950 . S
C442 C441 1.387 . S
C442 C445 1.387 . S
H443 C439 0.950 . S
H444 C441 0.950 . S
C445 C436 1.390 1_655 S
C445 H438 0.950 . S
C445 C442 1.387 . S
C446 C447 1.387 . S
C446 H450 0.950 . S
C446 C455 1.390 1_565 S
C447 C446 1.387 . S
C447 C449 1.387 . S
H448 C455 0.950 . S
C449 C447 1.387 . S
C449 C451 1.390 1_565 S
C449 H453 0.950 . S
H450 C446 0.950 . S
C451 C449 1.390 1_545 S
C451 C452 1.387 . S
C451 H454 0.950 . S
C452 C451 1.387 . S
C452 C455 1.387 . S
H453 C449 0.950 . S
H454 C451 0.950 . S
C455 C446 1.390 1_545 S
C455 H448 0.950 . S
C455 C452 1.387 . S
C456 C457 1.387 . S
C456 H460 0.950 . S
C456 C465 1.390 1_556 S
C457 C456 1.387 . S
C457 C459 1.387 . S
H458 C465 0.950 . S
C459 C457 1.387 . S
C459 C461 1.390 1_556 S
C459 H463 0.950 . S
H460 C456 0.950 . S
C461 C459 1.390 1_554 S
C461 C462 1.387 . S
C461 H464 0.950 . S
C462 C461 1.387 . S
C462 C465 1.387 . S
H463 C459 0.950 . S
H464 C461 0.950 . S
C465 C456 1.390 1_554 S
C465 H458 0.950 . S
C465 C462 1.387 . S
C466 C467 1.387 . S
C466 H470 0.950 . S
C466 C475 1.390 . S
C467 C466 1.387 . S
C467 C469 1.387 . S
H468 C475 0.950 . S
C469 C467 1.387 . S
C469 C471 1.390 . S
C469 H473 0.950 . S
H470 C466 0.950 . S
C471 C469 1.390 . S
C471 C472 1.387 . S
C471 H474 0.950 . S
C472 C471 1.387 . S
C472 C475 1.387 . S
H473 C469 0.950 . S
H474 C471 0.950 . S
C475 C466 1.390 . S
C475 H468 0.950 . S
C475 C472 1.387 . S
C476 C477 1.387 . S
C476 H480 0.950 . S
C476 C485 1.390 1_554 S
C477 C476 1.387 . S
C477 C479 1.387 . S
H478 C485 0.950 . S
C479 C477 1.387 . S
C479 C481 1.390 1_554 S
C479 H483 0.950 . S
H480 C476 0.950 . S
C481 C479 1.390 1_556 S
C481 C482 1.387 . S
C481 H484 0.950 . S
C482 C481 1.387 . S
C482 C485 1.387 . S
H483 C479 0.950 . S
H484 C481 0.950 . S
C485 C476 1.390 1_556 S
C485 H478 0.950 . S
C485 C482 1.387 . S
C486 C487 1.387 . S
C486 H490 0.950 . S
C486 C495 1.390 . S
C487 C486 1.387 . S
C487 C489 1.387 . S
H488 C495 0.950 . S
C489 C487 1.387 . S
C489 C491 1.390 . S
C489 H493 0.950 . S
H490 C486 0.950 . S
C491 C489 1.390 . S
C491 C492 1.387 . S
C491 H494 0.950 . S
C492 C491 1.387 . S
C492 C495 1.387 . S
H493 C489 0.950 . S
H494 C491 0.950 . S
C495 C486 1.390 . S
C495 H488 0.950 . S
C495 C492 1.387 . S
C496 C497 1.387 . S
C496 H500 0.950 . S
C496 C505 1.390 1_556 S
C497 C496 1.387 . S
C497 C499 1.387 . S
H498 C505 0.950 . S
C499 C497 1.387 . S
C499 C501 1.390 1_556 S
C499 H503 0.950 . S
H500 C496 0.950 . S
C501 C499 1.390 1_554 S
C501 C502 1.387 . S
C501 H504 0.950 . S
C502 C501 1.387 . S
C502 C505 1.387 . S
H503 C499 0.950 . S
H504 C501 0.950 . S
C505 C496 1.390 1_554 S
C505 H498 0.950 . S
C505 C502 1.387 . S
C506 C507 1.387 . S
C506 H510 0.950 . S
C506 C515 1.390 . S
C507 C506 1.387 . S
C507 C509 1.387 . S
H508 C515 0.950 . S
C509 C507 1.387 . S
C509 C511 1.390 . S
C509 H513 0.950 . S
H510 C506 0.950 . S
C511 C509 1.390 . S
C511 C512 1.387 . S
C511 H514 0.950 . S
C512 C511 1.387 . S
C512 C515 1.387 . S
H513 C509 0.950 . S
H514 C511 0.950 . S
C515 C506 1.390 . S
C515 H508 0.950 . S
C515 C512 1.387 . S
C516 C517 1.387 . S
C516 H520 0.950 . S
C516 C525 1.390 1_554 S
C517 C516 1.387 . S
C517 C519 1.387 . S
H518 C525 0.950 . S
C519 C517 1.387 . S
C519 C521 1.390 1_554 S
C519 H523 0.950 . S
H520 C516 0.950 . S
C521 C519 1.390 1_556 S
C521 C522 1.387 . S
C521 H524 0.950 . S
C522 C521 1.387 . S
C522 C525 1.387 . S
H523 C519 0.950 . S
H524 C521 0.950 . S
C525 C516 1.390 1_556 S
C525 H518 0.950 . S
C525 C522 1.387 . S
C526 C527 1.387 . S
C526 H530 0.950 . S
C526 C535 1.390 . S
C527 C526 1.387 . S
C527 C529 1.387 . S
H528 C535 0.950 . S
C529 C527 1.387 . S
C529 C531 1.390 . S
C529 H533 0.950 . S
H530 C526 0.950 . S
C531 C529 1.390 . S
C531 C532 1.387 . S
C531 H534 0.950 . S
C532 C531 1.387 . S
C532 C535 1.387 . S
H533 C529 0.950 . S
H534 C531 0.950 . S
C535 C526 1.390 . S
C535 H528 0.950 . S
C535 C532 1.387 . S
C536 C537 1.387 . S
C536 H540 0.950 . S
C536 C545 1.390 1_556 S
C537 C536 1.387 . S
C537 C539 1.387 . S
H538 C545 0.950 . S
C539 C537 1.387 . S
C539 C541 1.390 1_556 S
C539 H543 0.950 . S
H540 C536 0.950 . S
C541 C539 1.390 1_554 S
C541 C542 1.387 . S
C541 H544 0.950 . S
C542 C541 1.387 . S
C542 C545 1.387 . S
H543 C539 0.950 . S
H544 C541 0.950 . S
C545 C536 1.390 1_554 S
C545 H538 0.950 . S
C545 C542 1.387 . S
C546 C547 1.387 . S
C546 H550 0.950 . S
C546 C555 1.390 . S
C547 C546 1.387 . S
C547 C549 1.387 . S
H548 C555 0.950 . S
C549 C547 1.387 . S
C549 C551 1.390 . S
C549 H553 0.950 . S
H550 C546 0.950 . S
C551 C549 1.390 . S
C551 C552 1.387 . S
C551 H554 0.950 . S
C552 C551 1.387 . S
C552 C555 1.387 . S
H553 C549 0.950 . S
H554 C551 0.950 . S
C555 C546 1.390 . S
C555 H548 0.950 . S
C555 C552 1.387 . S
C556 C557 1.387 . S
C556 H560 0.950 . S
C556 C565 1.390 1_556 S
C557 C556 1.387 . S
C557 C559 1.387 . S
H558 C565 0.950 . S
C559 C557 1.387 . S
C559 C561 1.390 1_556 S
C559 H563 0.950 . S
H560 C556 0.950 . S
C561 C559 1.390 1_554 S
C561 C562 1.387 . S
C561 H564 0.950 . S
C562 C561 1.387 . S
C562 C565 1.387 . S
H563 C559 0.950 . S
H564 C561 0.950 . S
C565 C556 1.390 1_554 S
C565 H558 0.950 . S
C565 C562 1.387 . S
C566 C567 1.387 . S
C566 H570 0.950 . S
C566 C575 1.390 . S
C567 C566 1.387 . S
C567 C569 1.387 . S
H568 C575 0.950 . S
C569 C567 1.387 . S
C569 C571 1.390 . S
C569 H573 0.950 . S
H570 C566 0.950 . S
C571 C569 1.390 . S
C571 C572 1.387 . S
C571 H574 0.950 . S
C572 C571 1.387 . S
C572 C575 1.387 . S
H573 C569 0.950 . S
H574 C571 0.950 . S
C575 C566 1.390 . S
C575 H568 0.950 . S
C575 C572 1.387 . S
C576 C577 1.387 . S
C576 H580 0.950 . S
C576 C585 1.390 . S
C577 C576 1.387 . S
C577 C579 1.387 . S
H578 C585 0.950 . S
C579 C577 1.387 . S
C579 C581 1.390 . S
C579 H583 0.950 . S
H580 C576 0.950 . S
C581 C579 1.390 . S
C581 C582 1.387 . S
C581 H584 0.950 . S
C582 C581 1.387 . S
C582 C585 1.387 . S
H583 C579 0.950 . S
H584 C581 0.950 . S
C585 C576 1.390 . S
C585 H578 0.950 . S
C585 C582 1.387 . S
C586 C587 1.387 . S
C586 H590 0.950 . S
C586 C595 1.390 . S
C587 C586 1.387 . S
C587 C589 1.387 . S
H588 C595 0.950 . S
C589 C587 1.387 . S
C589 C591 1.390 . S
C589 H593 0.950 . S
H590 C586 0.950 . S
C591 C589 1.390 . S
C591 C592 1.387 . S
C591 H594 0.950 . S
C592 C591 1.387 . S
C592 C595 1.387 . S
H593 C589 0.950 . S
H594 C591 0.950 . S
C595 C586 1.390 . S
C595 H588 0.950 . S
C595 C592 1.387 . S
C596 C597 1.387 . S
C596 H600 0.950 . S
C596 C605 1.390 . S
C597 C596 1.387 . S
C597 C599 1.387 . S
H598 C605 0.950 . S
C599 C597 1.387 . S
C599 C601 1.390 . S
C599 H603 0.950 . S
H600 C596 0.950 . S
C601 C599 1.390 . S
C601 C602 1.387 . S
C601 H604 0.950 . S
C602 C601 1.387 . S
C602 C605 1.387 . S
H603 C599 0.950 . S
H604 C601 0.950 . S
C605 C596 1.390 . S
C605 H598 0.950 . S
C605 C602 1.387 . S
C606 C607 1.387 . S
C606 H610 0.950 . S
C606 C615 1.390 . S
C607 C606 1.387 . S
C607 C609 1.387 . S
H608 C615 0.950 . S
C609 C607 1.387 . S
C609 C611 1.390 . S
C609 H613 0.950 . S
H610 C606 0.950 . S
C611 C609 1.390 . S
C611 C612 1.387 . S
C611 H614 0.950 . S
C612 C611 1.387 . S
C612 C615 1.387 . S
H613 C609 0.950 . S
H614 C611 0.950 . S
C615 C606 1.390 . S
C615 H608 0.950 . S
C615 C612 1.387 . S
C616 C617 1.387 . S
C616 H620 0.950 . S
C616 C625 1.390 . S
C617 C616 1.387 . S
C617 C619 1.387 . S
H618 C625 0.950 . S
C619 C617 1.387 . S
C619 C621 1.390 . S
C619 H623 0.950 . S
H620 C616 0.950 . S
C621 C619 1.390 . S
C621 C622 1.387 . S
C621 H624 0.950 . S
C622 C621 1.387 . S
C622 C625 1.387 . S
H623 C619 0.950 . S
H624 C621 0.950 . S
C625 C616 1.390 . S
C625 H618 0.950 . S
C625 C622 1.387 . S
C626 C627 1.387 . S
C626 H630 0.950 . S
C626 C635 1.390 . S
C627 C626 1.387 . S
C627 C629 1.387 . S
H628 C635 0.950 . S
C629 C627 1.387 . S
C629 C631 1.390 . S
C629 H633 0.950 . S
H630 C626 0.950 . S
C631 C629 1.390 . S
C631 C632 1.387 . S
C631 H634 0.950 . S
C632 C631 1.387 . S
C632 C635 1.387 . S
H633 C629 0.950 . S
H634 C631 0.950 . S
C635 C626 1.390 . S
C635 H628 0.950 . S
C635 C632 1.387 . S
C636 C637 1.387 . S
C636 H640 0.950 . S
C636 C645 1.390 . S
C637 C636 1.387 . S
C637 C639 1.387 . S
H638 C645 0.950 . S
C639 C637 1.387 . S
C639 C641 1.390 . S
C639 H643 0.950 . S
H640 C636 0.950 . S
C641 C639 1.390 . S
C641 C642 1.387 . S
C641 H644 0.950 . S
C642 C641 1.387 . S
C642 C645 1.387 . S
H643 C639 0.950 . S
H644 C641 0.950 . S
C645 C636 1.390 . S
C645 H638 0.950 . S
C645 C642 1.387 . S
C646 C647 1.387 . S
C646 H650 0.950 . S
C646 C655 1.390 . S
C647 C646 1.387 . S
C647 C649 1.387 . S
H648 C655 0.950 . S
C649 C647 1.387 . S
C649 C651 1.390 . S
C649 H653 0.950 . S
H650 C646 0.950 . S
C651 C649 1.390 . S
C651 C652 1.387 . S
C651 H654 0.950 . S
C652 C651 1.387 . S
C652 C655 1.387 . S
H653 C649 0.950 . S
H654 C651 0.950 . S
C655 C646 1.390 . S
C655 H648 0.950 . S
C655 C652 1.387 . S
C656 C657 1.387 . S
C656 H660 0.950 . S
C656 C665 1.390 . S
C657 C656 1.387 . S
C657 C659 1.387 . S
H658 C665 0.950 . S
C659 C657 1.387 . S
C659 C661 1.390 . S
C659 H663 0.950 . S
H660 C656 0.950 . S
C661 C659 1.390 . S
C661 C662 1.387 . S
C661 H664 0.950 . S
C662 C661 1.387 . S
C662 C665 1.387 . S
H663 C659 0.950 . S
H664 C661 0.950 . S
C665 C656 1.390 . S
C665 H658 0.950 . S
C665 C662 1.387 . S
C666 C667 1.387 . S
C666 H670 0.950 . S
C666 C675 1.390 . S
C667 C666 1.387 . S
C667 C669 1.387 . S
H668 C675 0.950 . S
C669 C667 1.387 . S
C669 C671 1.390 . S
C669 H673 0.950 . S
H670 C666 0.950 . S
C671 C669 1.390 . S
C671 C672 1.387 . S
C671 H674 0.950 . S
C672 C671 1.387 . S
C672 C675 1.387 . S
H673 C669 0.950 . S
H674 C671 0.950 . S
C675 C666 1.390 . S
C675 H668 0.950 . S
C675 C672 1.387 . S
C676 C677 1.387 . S
C676 H680 0.950 . S
C676 C685 1.390 . S
C677 C676 1.387 . S
C677 C679 1.387 . S
H678 C685 0.950 . S
C679 C677 1.387 . S
C679 C681 1.390 . S
C679 H683 0.950 . S
H680 C676 0.950 . S
C681 C679 1.390 . S
C681 C682 1.387 . S
C681 H684 0.950 . S
C682 C681 1.387 . S
C682 C685 1.387 . S
H683 C679 0.950 . S
H684 C681 0.950 . S
C685 C676 1.390 . S
C685 H678 0.950 . S
C685 C682 1.387 . S
C686 C687 1.387 . S
C686 H690 0.950 . S
C686 C695 1.390 . S
C687 C686 1.387 . S
C687 C689 1.387 . S
H688 C695 0.950 . S
C689 C687 1.387 . S
C689 C691 1.390 . S
C689 H693 0.950 . S
H690 C686 0.950 . S
C691 C689 1.390 . S
C691 C692 1.387 . S
C691 H694 0.950 . S
C692 C691 1.387 . S
C692 C695 1.387 . S
H693 C689 0.950 . S
H694 C691 0.950 . S
C695 C686 1.390 . S
C695 H688 0.950 . S
C695 C692 1.387 . S
C397 N302 1.738 . S
C402 N5 1.740 . S
C407 N38 1.741 . S
C412 N335 1.738 . S
C417 N368 1.738 . S
C422 N71 1.738 . S
C427 N104 1.739 . S
C432 N203 1.738 . S
C437 N137 1.737 . S
C442 N236 1.740 . S
C447 N269 1.740 . S
C452 N170 1.740 . S
C457 C347 1.344 . S
C462 C17 1.344 . S
C467 C380 1.348 . S
C472 C50 1.346 . S
C477 C83 1.348 . S
C482 C215 1.347 . S
C487 C248 1.344 . S
C492 C116 1.344 . S
C497 C281 1.343 . S
C502 C149 1.345 . S
C507 C182 1.347 . S
C512 C314 1.345 . S
C517 C259 1.616 . S
C522 C127 1.616 . S
C527 C292 1.615 . S
C532 C160 1.618 . S
C537 C193 1.617 . S
C542 C325 1.618 . S
C547 C28 1.616 . S
C552 C358 1.616 . S
C557 C61 1.616 . S
C562 C391 1.618 . S
C567 C226 1.616 . S
C572 C94 1.618 . S
C577 N14 1.497 . S
C582 C140 1.497 . S
C587 N47 1.497 . S
C592 C173 1.497 . S
C597 N80 1.497 . S
C602 C8 1.497 . S
C607 C41 1.497 . S
C612 N113 1.497 . S
C617 N146 1.497 . S
C622 C74 1.497 . S
C627 C107 1.497 . S
C632 N179 1.497 . S
C637 C272 1.497 . S
C642 N212 1.497 . S
C647 C305 1.497 . S
C652 N245 1.497 . S
C657 C338 1.497 . S
C662 N278 1.497 . S
C667 N311 1.497 . S
C672 C371 1.497 . S
C677 C206 1.497 . S
C682 N344 1.497 . S
C687 N377 1.497 . S
C692 C239 1.497 . S
