# Generated by pormake.
# Topology umo, (4)-cn, num edge types: 1
# Building blocks:
#     Node 0, Type 0, BuildingBlock: ESEHIV_clean_sbu_0, # of connection points: 4
#     Node 1, Type 0, BuildingBlock: ESEHIV_clean_sbu_0, # of connection points: 4
#     Node 2, Type 0, BuildingBlock: ESEHIV_clean_sbu_0, # of connection points: 4
#     Node 3, Type 0, BuildingBlock: ESEHIV_clean_sbu_0, # of connection points: 4
#     Node 4, Type 0, BuildingBlock: ESEHIV_clean_sbu_0, # of connection points: 4
#     Node 5, Type 0, BuildingBlock: ESEHIV_clean_sbu_0, # of connection points: 4
#     Node 6, Type 0, BuildingBlock: ESEHIV_clean_sbu_0, # of connection points: 4
#     Node 7, Type 0, BuildingBlock: ESEHIV_clean_sbu_0, # of connection points: 4
#     Node 8, Type 0, BuildingBlock: ESEHIV_clean_sbu_0, # of connection points: 4
#     Node 9, Type 0, BuildingBlock: ESEHIV_clean_sbu_0, # of connection points: 4
#     Node 10, Type 0, BuildingBlock: ESEHIV_clean_sbu_0, # of connection points: 4
#     Node 11, Type 0, BuildingBlock: ESEHIV_clean_sbu_0, # of connection points: 4
#     Edge 12, Type (0, 0), BuildingBlock: UVAHIK_clean_linker_0, # of connection points: 2
#     Edge 13, Type (0, 0), BuildingBlock: UVAHIK_clean_linker_0, # of connection points: 2
#     Edge 14, Type (0, 0), BuildingBlock: UVAHIK_clean_linker_0, # of connection points: 2
#     Edge 15, Type (0, 0), BuildingBlock: UVAHIK_clean_linker_0, # of connection points: 2
#     Edge 16, Type (0, 0), BuildingBlock: UVAHIK_clean_linker_0, # of connection points: 2
#     Edge 17, Type (0, 0), BuildingBlock: UVAHIK_clean_linker_0, # of connection points: 2
#     Edge 18, Type (0, 0), BuildingBlock: UVAHIK_clean_linker_0, # of connection points: 2
#     Edge 19, Type (0, 0), BuildingBlock: UVAHIK_clean_linker_0, # of connection points: 2
#     Edge 20, Type (0, 0), BuildingBlock: UVAHIK_clean_linker_0, # of connection points: 2
#     Edge 21, Type (0, 0), BuildingBlock: UVAHIK_clean_linker_0, # of connection points: 2
#     Edge 22, Type (0, 0), BuildingBlock: UVAHIK_clean_linker_0, # of connection points: 2
#     Edge 23, Type (0, 0), BuildingBlock: UVAHIK_clean_linker_0, # of connection points: 2
#     Edge 24, Type (0, 0), BuildingBlock: UVAHIK_clean_linker_0, # of connection points: 2
#     Edge 25, Type (0, 0), BuildingBlock: UVAHIK_clean_linker_0, # of connection points: 2
#     Edge 26, Type (0, 0), BuildingBlock: UVAHIK_clean_linker_0, # of connection points: 2
#     Edge 27, Type (0, 0), BuildingBlock: UVAHIK_clean_linker_0, # of connection points: 2
#     Edge 28, Type (0, 0), BuildingBlock: UVAHIK_clean_linker_0, # of connection points: 2
#     Edge 29, Type (0, 0), BuildingBlock: UVAHIK_clean_linker_0, # of connection points: 2
#     Edge 30, Type (0, 0), BuildingBlock: UVAHIK_clean_linker_0, # of connection points: 2
#     Edge 31, Type (0, 0), BuildingBlock: UVAHIK_clean_linker_0, # of connection points: 2
#     Edge 32, Type (0, 0), BuildingBlock: UVAHIK_clean_linker_0, # of connection points: 2
#     Edge 33, Type (0, 0), BuildingBlock: UVAHIK_clean_linker_0, # of connection points: 2
#     Edge 34, Type (0, 0), BuildingBlock: UVAHIK_clean_linker_0, # of connection points: 2
#     Edge 35, Type (0, 0), BuildingBlock: UVAHIK_clean_linker_0, # of connection points: 2
# Relax obj value: 0.180
# Max RMSD: 0.179
# Mean RMSD: 0.179
data_MOF--net-umo--node1-ESEHIV_clean_sbu_0--edge1-UVAHIK_clean_linker_0
_symmetry_space_group_name_H-M    P1
_symmetry_Int_Tables_number       1
_symmetry_cell_setting            triclinic
loop_
_symmetry_equiv_pos_as_xyz
'x, y, z'
_cell_length_a     70.56167
_cell_length_b     70.449365
_cell_length_c     45.273705
_cell_angle_alpha  90.097525
_cell_angle_beta   90.155127
_cell_angle_gamma 119.91091
loop_
_atom_site_label
_atom_site_type_symbol
_atom_site_fract_x
_atom_site_fract_y
_atom_site_fract_z
_atom_type_partial_charge
Cu0 Cu 0.20349 0.57094 0.41 0.0
N1 N 0.22688 0.56942 0.42699 0.0
N2 N 0.26239 0.58321 0.43794 0.0
C3 C 0.24766 0.58205 0.41783 0.0
C4 C 0.2503 0.57059 0.46063 0.0
C5 C 0.22844 0.56225 0.45392 0.0
O6 O 0.21175 0.5775 0.36861 0.0
C7 C 0.1858 0.59325 0.44383 0.0
O8 O 0.16645 0.57792 0.43484 0.0
H9 H 0.25188 0.59203 0.39815 0.0
H10 H 0.21488 0.55334 0.46878 0.0
N11 N 0.17652 0.54464 0.41301 0.0
N12 N 0.14086 0.5201 0.40729 0.0
C13 C 0.1577 0.53971 0.39887 0.0
C14 C 0.1715 0.52735 0.43047 0.0
C15 C 0.1496 0.51227 0.42708 0.0
C16 C 0.20968 0.56149 0.35296 0.0
O17 O 0.1999 0.5418 0.36454 0.0
H18 H 0.15624 0.55074 0.38366 0.0
H19 H 0.18286 0.52585 0.44497 0.0
O20 O 0.20286 0.59413 0.43296 0.0
H21 H 0.25675 0.56862 0.4814 0.0
H22 H 0.14079 0.49678 0.43848 0.0
Cu23 Cu 0.66522 0.1833 0.56918 0.0
N24 N 0.68806 0.20713 0.58894 0.0
N25 N 0.70617 0.2423 0.60343 0.0
C26 C 0.69467 0.22806 0.58157 0.0
C27 C 0.70696 0.22977 0.62543 0.0
C28 C 0.69567 0.2081 0.61651 0.0
O29 O 0.66858 0.19252 0.52808 0.0
C30 C 0.62832 0.16488 0.60726 0.0
O31 O 0.63004 0.14718 0.60644 0.0
H32 H 0.68915 0.23247 0.56176 0.0
H33 H 0.6916 0.19402 0.63019 0.0
N34 N 0.66641 0.15717 0.57156 0.0
N35 N 0.65793 0.12221 0.56423 0.0
C36 C 0.65319 0.13812 0.55737 0.0
C37 C 0.68012 0.15328 0.58772 0.0
C38 C 0.67494 0.13183 0.58331 0.0
C39 C 0.68611 0.19502 0.51644 0.0
O40 O 0.69837 0.18951 0.53202 0.0
H41 H 0.64032 0.13604 0.5424 0.0
H42 H 0.69291 0.16513 0.6019 0.0
O43 O 0.63966 0.18054 0.58959 0.0
H44 H 0.714 0.23565 0.64709 0.0
H45 H 0.68287 0.12389 0.59394 0.0
Cu46 Cu 0.483 0.62812 0.73493 0.0
N47 N 0.47836 0.6421 0.76676 0.0
N48 N 0.45463 0.64631 0.79484 0.0
C49 C 0.4602 0.64377 0.76726 0.0
C50 C 0.47029 0.64677 0.81253 0.0
C51 C 0.48482 0.64391 0.79514 0.0
O52 O 0.47954 0.64237 0.69986 0.0
C53 C 0.46241 0.58766 0.76237 0.0
O54 O 0.4825 0.59251 0.76871 0.0
H55 H 0.44999 0.64078 0.74796 0.0
H56 H 0.49754 0.64086 0.80298 0.0
N57 N 0.51063 0.63002 0.7355 0.0
N58 N 0.53739 0.62205 0.7283 0.0
C59 C 0.51628 0.61618 0.72278 0.0
C60 C 0.5288 0.64522 0.74935 0.0
C61 C 0.54529 0.6404 0.74494 0.0
C62 C 0.49245 0.66303 0.69892 0.0
O63 O 0.50749 0.67206 0.71959 0.0
H64 H 0.50503 0.60199 0.70994 0.0
H65 H 0.52991 0.65874 0.76211 0.0
O66 O 0.45948 0.59839 0.74193 0.0
H67 H 0.46997 0.64682 0.83643 0.0
H68 H 0.56166 0.64942 0.754 0.0
Cu69 Cu 0.85098 0.45685 0.88995 0.0
N70 N 0.82965 0.46227 0.90583 0.0
N71 N 0.79544 0.45417 0.91633 0.0
C72 C 0.80844 0.45074 0.89796 0.0
C73 C 0.80905 0.46857 0.93671 0.0
C74 C 0.8302 0.47361 0.9301 0.0
O75 O 0.83605 0.43823 0.85594 0.0
C76 C 0.86975 0.45316 0.94222 0.0
O77 O 0.87822 0.47452 0.94159 0.0
H78 H 0.80237 0.43858 0.88061 0.0
H79 H 0.84469 0.48371 0.94313 0.0
N80 N 0.87632 0.48294 0.87918 0.0
N81 N 0.91129 0.50771 0.86951 0.0
C82 C 0.89677 0.48638 0.87503 0.0
C83 C 0.87794 0.50267 0.87603 0.0
C84 C 0.89938 0.51791 0.87004 0.0
C85 C 0.83432 0.44698 0.83222 0.0
O86 O 0.84711 0.46815 0.82868 0.0
H87 H 0.90102 0.47365 0.87711 0.0
H88 H 0.86447 0.50577 0.87837 0.0
O89 O 0.8578 0.44181 0.92066 0.0
H90 H 0.804 0.47429 0.95569 0.0
H91 H 0.90568 0.53522 0.86645 0.0
Cu92 Cu 0.39976 0.87139 0.07612 0.0
N93 N 0.37876 0.84907 0.09939 0.0
N94 N 0.36678 0.81639 0.1206 0.0
C95 C 0.37443 0.82832 0.09576 0.0
C96 C 0.36589 0.83013 0.14067 0.0
C97 C 0.37333 0.85031 0.12751 0.0
O98 O 0.39518 0.8587 0.03652 0.0
C99 C 0.43109 0.88981 0.11998 0.0
O100 O 0.42051 0.9005 0.12426 0.0
H101 H 0.37986 0.82306 0.07667 0.0
H102 H 0.37707 0.86537 0.13871 0.0
N103 N 0.3969 0.89651 0.07459 0.0
N104 N 0.40514 0.93115 0.06595 0.0
C105 C 0.41115 0.91581 0.06214 0.0
C106 C 0.38124 0.89959 0.08659 0.0
C107 C 0.38625 0.92087 0.08133 0.0
C108 C 0.37654 0.85377 0.02571 0.0
O109 O 0.36396 0.85895 0.04101 0.0
H110 H 0.4257 0.91845 0.05071 0.0
H111 H 0.36736 0.88734 0.09876 0.0
O112 O 0.4266 0.87779 0.09696 0.0
H113 H 0.36211 0.82647 0.16383 0.0
H114 H 0.37691 0.92827 0.08901 0.0
Cu115 Cu 0.57284 0.40139 0.23003 0.0
N116 N 0.56987 0.37629 0.24807 0.0
N117 N 0.58709 0.35972 0.26755 0.0
C118 C 0.58591 0.37143 0.24482 0.0
C119 C 0.57064 0.35662 0.28574 0.0
C120 C 0.56008 0.36693 0.2737 0.0
O121 O 0.5898 0.404 0.19477 0.0
C122 C 0.57733 0.42484 0.28126 0.0
O123 O 0.5559 0.41351 0.27955 0.0
H124 H 0.59863 0.37934 0.22851 0.0
H125 H 0.54807 0.36971 0.28467 0.0
N126 N 0.5462 0.39993 0.22058 0.0
N127 N 0.52231 0.41078 0.20806 0.0
C128 C 0.54364 0.4166 0.2108 0.0
C129 C 0.52584 0.38293 0.22401 0.0
C130 C 0.51108 0.38956 0.21634 0.0
C131 C 0.57977 0.39274 0.17202 0.0
O132 O 0.55841 0.38386 0.17068 0.0
H133 H 0.55719 0.4329 0.20682 0.0
H134 H 0.52201 0.36696 0.23205 0.0
O135 O 0.5885 0.42383 0.25986 0.0
H136 H 0.56775 0.3493 0.30745 0.0
H137 H 0.49345 0.37952 0.21694 0.0
Cu138 Cu 0.49636 0.83529 0.45957 0.0
N139 N 0.49613 0.80928 0.45072 0.0
N140 N 0.47519 0.7728 0.44572 0.0
C141 C 0.47825 0.79267 0.43804 0.0
C142 C 0.49241 0.77721 0.46336 0.0
C143 C 0.50514 0.79967 0.46665 0.0
O144 O 0.47884 0.82594 0.49543 0.0
C145 C 0.49243 0.84164 0.40076 0.0
O146 O 0.5086 0.83744 0.40084 0.0
H147 H 0.46638 0.79527 0.42631 0.0
H148 H 0.51812 0.80809 0.48267 0.0
N149 N 0.52421 0.85969 0.46649 0.0
N150 N 0.55002 0.89425 0.47731 0.0
C151 C 0.52836 0.88001 0.47386 0.0
C152 C 0.54387 0.86107 0.46495 0.0
C153 C 0.55978 0.88229 0.47164 0.0
C154 C 0.48866 0.8286 0.52007 0.0
O155 O 0.50865 0.84514 0.52289 0.0
H156 H 0.5156 0.88406 0.4771 0.0
H157 H 0.54647 0.84763 0.45924 0.0
O158 O 0.48377 0.84193 0.42535 0.0
H159 H 0.49435 0.76517 0.47577 0.0
H160 H 0.57721 0.8884 0.47189 0.0
Cu161 Cu 0.66676 0.46165 0.6369 0.0
N162 N 0.69335 0.46336 0.62696 0.0
N163 N 0.71437 0.44838 0.61838 0.0
C164 C 0.69696 0.44671 0.63285 0.0
C165 C 0.7222 0.46699 0.6025 0.0
C166 C 0.70921 0.47626 0.60791 0.0
O167 O 0.65586 0.4393 0.66773 0.0
C168 C 0.6554 0.46853 0.58144 0.0
O169 O 0.67136 0.48824 0.58818 0.0
H170 H 0.68574 0.43245 0.64525 0.0
H171 H 0.71039 0.49051 0.59717 0.0
N172 N 0.66941 0.48809 0.65083 0.0
N173 N 0.66003 0.51313 0.66367 0.0
C174 C 0.65299 0.49258 0.65343 0.0
C175 C 0.68753 0.50637 0.65966 0.0
C176 C 0.68182 0.52178 0.66762 0.0
C177 C 0.6613 0.44507 0.69455 0.0
O178 O 0.66684 0.46515 0.70229 0.0
H179 H 0.63626 0.48103 0.64739 0.0
H180 H 0.70373 0.50831 0.6603 0.0
O181 O 0.64951 0.45339 0.60061 0.0
H182 H 0.73568 0.47292 0.58713 0.0
H183 H 0.69293 0.53803 0.67598 0.0
Cu184 Cu 0.20752 0.64997 0.80577 0.0
N185 N 0.21828 0.63141 0.81626 0.0
N186 N 0.24248 0.62041 0.82565 0.0
C187 C 0.23889 0.63752 0.82468 0.0
C188 C 0.22322 0.60277 0.81794 0.0
C189 C 0.20834 0.60961 0.81221 0.0
O190 O 0.22826 0.67923 0.82032 0.0
C191 C 0.19162 0.65181 0.74745 0.0
O192 O 0.17684 0.65485 0.7608 0.0
H193 H 0.25143 0.65433 0.82829 0.0
H194 H 0.19178 0.59959 0.80419 0.0
N195 N 0.18061 0.64115 0.82445 0.0
N196 N 0.14521 0.62596 0.83682 0.0
C197 C 0.15979 0.6259 0.81737 0.0
C198 C 0.17904 0.65077 0.84925 0.0
C199 C 0.15741 0.64154 0.85689 0.0
C200 C 0.24785 0.69044 0.81115 0.0
O201 O 0.25437 0.68291 0.78918 0.0
H202 H 0.1554 0.61546 0.79804 0.0
H203 H 0.19278 0.66384 0.86087 0.0
O204 O 0.20563 0.64974 0.76277 0.0
H205 H 0.22028 0.58622 0.8156 0.0
H206 H 0.15116 0.64594 0.87593 0.0
Cu207 Cu 0.5695 0.21514 0.95193 0.0
N208 N 0.56722 0.23868 0.93732 0.0
N209 N 0.58165 0.27411 0.92566 0.0
C210 C 0.58186 0.25947 0.94458 0.0
C211 C 0.56594 0.26197 0.90566 0.0
C212 C 0.55707 0.24007 0.91291 0.0
O213 O 0.58877 0.22801 0.98613 0.0
C214 C 0.56938 0.19232 0.9009 0.0
O215 O 0.54819 0.18205 0.9054 0.0
H216 H 0.59426 0.26364 0.96129 0.0
H217 H 0.54557 0.22619 0.89981 0.0
N218 N 0.54232 0.19142 0.96295 0.0
N219 N 0.51674 0.15783 0.9774 0.0
C220 C 0.53833 0.17171 0.97284 0.0
C221 C 0.52267 0.19009 0.96121 0.0
C222 C 0.50691 0.16947 0.97008 0.0
C223 C 0.5806 0.22785 1.01128 0.0
O224 O 0.55971 0.21417 1.01555 0.0
H225 H 0.5511 0.16771 0.97644 0.0
H226 H 0.51998 0.20308 0.9535 0.0
O227 O 0.58206 0.20669 0.91954 0.0
H228 H 0.56221 0.26829 0.88606 0.0
H229 H 0.4895 0.16344 0.97031 0.0
Cu230 Cu 0.39932 0.57879 0.11685 0.0
N231 N 0.41185 0.60927 0.11883 0.0
N232 N 0.41478 0.6423 0.12353 0.0
C233 C 0.40111 0.62039 0.12295 0.0
C234 C 0.43496 0.64496 0.11971 0.0
C235 C 0.43308 0.62458 0.11685 0.0
O236 O 0.37169 0.56685 0.13807 0.0
C237 C 0.3927 0.57984 0.05508 0.0
O238 O 0.3896 0.59615 0.06232 0.0
H239 H 0.38356 0.61251 0.12493 0.0
H240 H 0.44627 0.62114 0.11365 0.0
N241 N 0.41744 0.57091 0.13749 0.0
N242 N 0.43622 0.55464 0.15251 0.0
C243 C 0.42301 0.55553 0.13136 0.0
C244 C 0.42732 0.57991 0.16328 0.0
C245 C 0.43884 0.57 0.17258 0.0
C246 C 0.35471 0.56671 0.1282 0.0
O247 O 0.35425 0.57206 0.10055 0.0
H248 H 0.41754 0.54531 0.11179 0.0
H249 H 0.42599 0.59269 0.17472 0.0
O250 O 0.3965 0.56965 0.07541 0.0
H251 H 0.45008 0.66046 0.1193 0.0
H252 H 0.44802 0.57357 0.19298 0.0
Cu253 Cu 0.8536 0.3935 0.29642 0.0
N254 N 0.83782 0.40837 0.29793 0.0
N255 N 0.80893 0.41344 0.29855 0.0
C256 C 0.81716 0.40071 0.30748 0.0
C257 C 0.82528 0.43009 0.28359 0.0
C258 C 0.84304 0.42693 0.2833 0.0
O259 O 0.83423 0.36343 0.30918 0.0
C260 C 0.85805 0.38017 0.23769 0.0
O261 O 0.84575 0.35993 0.24676 0.0
H262 H 0.80769 0.38518 0.31854 0.0
H263 H 0.85813 0.43659 0.27138 0.0
N264 N 0.87741 0.40682 0.32254 0.0
N265 N 0.91089 0.42226 0.3428 0.0
C266 C 0.89895 0.41469 0.31763 0.0
C267 C 0.87573 0.40964 0.35158 0.0
C268 C 0.89625 0.4191 0.36411 0.0
C269 C 0.8149 0.35176 0.29901 0.0
O270 O 0.80841 0.35916 0.27683 0.0
H271 H 0.90563 0.41442 0.29624 0.0
H272 H 0.86054 0.40495 0.36288 0.0
O273 O 0.86371 0.39592 0.25586 0.0
H274 H 0.82406 0.44294 0.2722 0.0
H275 H 0.90009 0.42347 0.38716 0.0
C276 C 0.29679 0.60569 0.41046 0.0
C277 C 0.28569 0.59842 0.43747 0.0
C278 C 0.31874 0.62227 0.40972 0.0
C279 C 0.36866 0.65431 0.45637 0.0
H280 H 0.38258 0.69903 0.39719 0.0
C281 C 0.45511 0.73198 0.44624 0.0
C282 C 0.45528 0.75188 0.442 0.0
C283 C 0.43554 0.71185 0.44408 0.0
C284 C 0.37899 0.68671 0.4139 0.0
H285 H 0.2894 0.60258 0.485 0.0
H286 H 0.32753 0.63148 0.48374 0.0
H287 H 0.34667 0.66631 0.39706 0.0
H288 H 0.43433 0.76568 0.43263 0.0
H289 H 0.40087 0.73107 0.42858 0.0
H290 H 0.40085 0.67528 0.47381 0.0
C291 C 0.31937 0.62418 0.46307 0.0
C292 C 0.35843 0.66777 0.41362 0.0
C293 C 0.29741 0.60754 0.4638 0.0
C294 C 0.43531 0.75096 0.43534 0.0
C295 C 0.41589 0.73094 0.43306 0.0
C296 C 0.3893 0.6733 0.45662 0.0
C297 C 0.33021 0.63209 0.43599 0.0
C298 C 0.35283 0.65142 0.43509 0.0
C299 C 0.41567 0.7111 0.43744 0.0
C300 C 0.39458 0.68993 0.43569 0.0
H301 H 0.28838 0.59878 0.38979 0.0
H302 H 0.32665 0.62759 0.38847 0.0
H303 H 0.36504 0.64197 0.47305 0.0
H304 H 0.47009 0.73194 0.45121 0.0
H305 H 0.43599 0.69686 0.44738 0.0
C306 C 0.7171 0.27768 0.57881 0.0
C307 C 0.71223 0.26518 0.60476 0.0
C308 C 0.72115 0.29928 0.57966 0.0
C309 C 0.73338 0.34573 0.63121 0.0
H310 H 0.7085 0.36371 0.56819 0.0
C311 C 0.71731 0.41836 0.64181 0.0
C312 C 0.72024 0.43147 0.61696 0.0
C313 C 0.71988 0.39996 0.63983 0.0
C314 C 0.71587 0.35913 0.58574 0.0
H315 H 0.70804 0.26587 0.65209 0.0
H316 H 0.71478 0.30326 0.65361 0.0
H317 H 0.70606 0.32804 0.56572 0.0
H318 H 0.72896 0.43593 0.57067 0.0
H319 H 0.73358 0.40374 0.56708 0.0
H320 H 0.74256 0.37664 0.65162 0.0
C321 C 0.71595 0.2966 0.63256 0.0
C322 C 0.71449 0.33861 0.58434 0.0
C323 C 0.71205 0.27505 0.63172 0.0
C324 C 0.72673 0.42626 0.59025 0.0
C325 C 0.72913 0.40767 0.58816 0.0
C326 C 0.73463 0.36621 0.63269 0.0
C327 C 0.72029 0.30897 0.6065 0.0
C328 C 0.72301 0.33147 0.6072 0.0
C329 C 0.72533 0.39406 0.61281 0.0
C330 C 0.72569 0.37309 0.61013 0.0
H331 H 0.71765 0.27069 0.55774 0.0
H332 H 0.72487 0.30835 0.55919 0.0
H333 H 0.74052 0.34108 0.64898 0.0
H334 H 0.71244 0.42209 0.66267 0.0
H335 H 0.71667 0.38984 0.65923 0.0
C336 C 0.26797 0.60679 0.81459 0.0
C337 C 0.26336 0.62153 0.82948 0.0
C338 C 0.28878 0.60901 0.81623 0.0
C339 C 0.34667 0.65008 0.83286 0.0
H340 H 0.35397 0.59918 0.827 0.0
C341 C 0.43176 0.65464 0.82807 0.0
C342 C 0.43368 0.64338 0.80364 0.0
C343 C 0.4113 0.6519 0.83595 0.0
C344 C 0.35218 0.61355 0.82876 0.0
H345 H 0.27684 0.64965 0.85878 0.0
H346 H 0.31305 0.6533 0.86217 0.0
H347 H 0.31744 0.59424 0.8328 0.0
H348 H 0.41547 0.6198 0.76909 0.0
H349 H 0.38009 0.6148 0.78305 0.0
H350 H 0.38158 0.6693 0.82872 0.0
C351 C 0.30073 0.64032 0.8486 0.0
C352 C 0.33123 0.61075 0.83188 0.0
C353 C 0.27993 0.63819 0.84675 0.0
C354 C 0.41469 0.62896 0.78778 0.0
C355 C 0.39432 0.6259 0.79596 0.0
C356 C 0.36769 0.65286 0.83009 0.0
C357 C 0.30555 0.62592 0.83304 0.0
C358 C 0.32809 0.62896 0.83316 0.0
C359 C 0.39237 0.63743 0.81996 0.0
C360 C 0.37059 0.63462 0.82724 0.0
H361 H 0.25576 0.59402 0.8007 0.0
H362 H 0.29188 0.59785 0.80343 0.0
H363 H 0.34498 0.66452 0.83348 0.0
H364 H 0.44612 0.66583 0.84066 0.0
H365 H 0.41023 0.66097 0.8546 0.0
C366 C 0.76027 0.43487 0.94319 0.0
C367 C 0.77186 0.44169 0.91649 0.0
C368 C 0.73773 0.41996 0.94314 0.0
C369 C 0.69568 0.37664 0.89534 0.0
H370 H 0.65545 0.37508 0.95471 0.0
C371 C 0.6063 0.3068 0.89612 0.0
C372 C 0.59865 0.29678 0.92371 0.0
C373 C 0.62546 0.32718 0.89418 0.0
C374 C 0.6665 0.37527 0.938 0.0
H375 H 0.76867 0.4395 0.86885 0.0
H376 H 0.72935 0.41409 0.86872 0.0
H377 H 0.69284 0.40599 0.95338 0.0
H378 H 0.60414 0.30114 0.97096 0.0
H379 H 0.63759 0.33648 0.96761 0.0
H380 H 0.66963 0.34581 0.88031 0.0
C381 C 0.73772 0.41961 0.88971 0.0
C382 C 0.68796 0.39297 0.93728 0.0
C383 C 0.76023 0.43429 0.88977 0.0
C384 C 0.60976 0.30832 0.94936 0.0
C385 C 0.62887 0.32868 0.94743 0.0
C386 C 0.67428 0.35903 0.89602 0.0
C387 C 0.72627 0.41169 0.91636 0.0
C388 C 0.70293 0.39377 0.91613 0.0
C389 C 0.63737 0.33805 0.91976 0.0
C390 C 0.65946 0.35795 0.91755 0.0
H391 H 0.76881 0.44011 0.96412 0.0
H392 H 0.72955 0.41413 0.96412 0.0
H393 H 0.70678 0.37636 0.8791 0.0
H394 H 0.59824 0.29837 0.87593 0.0
H395 H 0.63134 0.33411 0.87253 0.0
C396 C 0.37531 0.79299 0.15228 0.0
C397 C 0.3665 0.79609 0.12604 0.0
C398 C 0.37852 0.77502 0.15532 0.0
C399 C 0.39907 0.74639 0.14401 0.0
H400 H 0.35753 0.68806 0.11599 0.0
C401 C 0.42329 0.68085 0.11805 0.0
C402 C 0.40888 0.65916 0.12684 0.0
C403 C 0.41734 0.697 0.12055 0.0
C404 C 0.36924 0.70421 0.12413 0.0
H405 H 0.35315 0.78226 0.08313 0.0
H406 H 0.35847 0.75071 0.08849 0.0
H407 H 0.34726 0.71646 0.11666 0.0
H408 H 0.37697 0.63786 0.14608 0.0
H409 H 0.36657 0.6659 0.1499 0.0
H410 H 0.42115 0.73424 0.15112 0.0
C411 C 0.36293 0.76216 0.10671 0.0
C412 C 0.36341 0.72052 0.12431 0.0
C413 C 0.35994 0.78024 0.10357 0.0
C414 C 0.38841 0.65418 0.1385 0.0
C415 C 0.38242 0.6703 0.14079 0.0
C416 C 0.40497 0.73015 0.14357 0.0
C417 C 0.37278 0.75963 0.13231 0.0
C418 C 0.37831 0.74184 0.13405 0.0
C419 C 0.39677 0.69188 0.13175 0.0
C420 C 0.39019 0.70891 0.13341 0.0
H421 H 0.38079 0.80506 0.16982 0.0
H422 H 0.38595 0.77341 0.17542 0.0
H423 H 0.41102 0.76271 0.15135 0.0
H424 H 0.43904 0.68536 0.10862 0.0
H425 H 0.42868 0.71341 0.11304 0.0
C426 C 0.77271 0.39624 0.32288 0.0
C427 C 0.78624 0.40769 0.29896 0.0
C428 C 0.7504 0.38974 0.32242 0.0
C429 C 0.70992 0.39971 0.28148 0.0
H430 H 0.66714 0.34451 0.31626 0.0
C431 C 0.61927 0.3576 0.25105 0.0
C432 C 0.60615 0.35787 0.27423 0.0
C433 C 0.64028 0.36119 0.25661 0.0
C434 C 0.67898 0.35999 0.30661 0.0
H435 H 0.78681 0.42068 0.25544 0.0
H436 H 0.74818 0.40891 0.25408 0.0
H437 H 0.70621 0.35678 0.32095 0.0
H438 H 0.6043 0.36017 0.32185 0.0
H439 H 0.64091 0.36568 0.33156 0.0
H440 H 0.68259 0.40233 0.26604 0.0
C441 C 0.75472 0.40562 0.27385 0.0
C442 C 0.70137 0.36715 0.30942 0.0
C443 C 0.77698 0.41239 0.27455 0.0
C444 C 0.61384 0.35974 0.30346 0.0
C445 C 0.63484 0.36302 0.30906 0.0
C446 C 0.68764 0.39235 0.27821 0.0
C447 C 0.74104 0.39426 0.29779 0.0
C448 C 0.71718 0.38703 0.29656 0.0
C449 C 0.64849 0.36463 0.28555 0.0
C450 C 0.67199 0.37238 0.29048 0.0
H451 H 0.77943 0.39243 0.34199 0.0
H452 H 0.74056 0.38131 0.34146 0.0
H453 H 0.72143 0.41539 0.27202 0.0
H454 H 0.61372 0.35579 0.22836 0.0
H455 H 0.65048 0.36218 0.23816 0.0
C456 C 0.17363 0.64726 0.69787 0.0
C457 C 0.19156 0.64991 0.71475 0.0
C458 C 0.17316 0.64435 0.66719 0.0
C459 C 0.20818 0.65252 0.60234 0.0
H460 H 0.15586 0.60408 0.56844 0.0
C461 C 0.20719 0.61624 0.48726 0.0
C462 C 0.18762 0.60607 0.47085 0.0
C463 C 0.20783 0.62475 0.51545 0.0
C464 C 0.17047 0.61799 0.57726 0.0
H465 H 0.22333 0.65216 0.71242 0.0
H466 H 0.22256 0.64729 0.65898 0.0
H467 H 0.15658 0.61295 0.62053 0.0
H468 H 0.15379 0.59831 0.4704 0.0
H469 H 0.15508 0.61385 0.519 0.0
H470 H 0.22212 0.65763 0.55914 0.0
C471 C 0.20887 0.64746 0.66945 0.0
C472 C 0.17088 0.623 0.60726 0.0
C473 C 0.20923 0.65011 0.70013 0.0
C474 C 0.16909 0.60587 0.48253 0.0
C475 C 0.16979 0.6146 0.51059 0.0
C476 C 0.2077 0.64766 0.57224 0.0
C477 C 0.19073 0.6443 0.65265 0.0
C478 C 0.18984 0.64011 0.62027 0.0
C479 C 0.18898 0.62353 0.52787 0.0
C480 C 0.18895 0.63009 0.55933 0.0
H481 H 0.15975 0.64702 0.70839 0.0
H482 H 0.15903 0.64212 0.65483 0.0
H483 H 0.22294 0.66599 0.61163 0.0
H484 H 0.22177 0.61658 0.47907 0.0
H485 H 0.22287 0.63126 0.52803 0.0
C486 C 0.60292 0.15102 0.65039 0.0
C487 C 0.61829 0.16879 0.6336 0.0
C488 C 0.59668 0.15442 0.67833 0.0
C489 C 0.61875 0.19169 0.7409 0.0
H490 H 0.559 0.16272 0.76896 0.0
C491 C 0.59598 0.2064 0.8588 0.0
C492 C 0.57757 0.18914 0.87231 0.0
C493 C 0.60135 0.20435 0.82961 0.0
C494 C 0.57585 0.17066 0.76174 0.0
H495 H 0.63862 0.20417 0.63257 0.0
H496 H 0.62788 0.21005 0.68155 0.0
H497 H 0.56633 0.15866 0.71748 0.0
H498 H 0.55116 0.15578 0.86664 0.0
H499 H 0.56108 0.15173 0.81661 0.0
H500 H 0.62844 0.20306 0.78524 0.0
C501 C 0.62061 0.19351 0.67298 0.0
C502 C 0.57998 0.16845 0.7321 0.0
C503 C 0.62656 0.19014 0.64479 0.0
C504 C 0.56535 0.16943 0.8567 0.0
C505 C 0.57091 0.16723 0.82781 0.0
C506 C 0.61466 0.19363 0.77069 0.0
C507 C 0.60599 0.17564 0.69029 0.0
C508 C 0.60147 0.1789 0.72137 0.0
C509 C 0.58859 0.18486 0.81346 0.0
C510 C 0.59313 0.18304 0.78162 0.0
H511 H 0.59635 0.13439 0.64243 0.0
H512 H 0.58542 0.14034 0.6912 0.0
H513 H 0.63552 0.19969 0.73332 0.0
H514 H 0.60556 0.22188 0.8702 0.0
H515 H 0.61497 0.21838 0.81939 0.0
C516 C 0.40286 0.56234 1.01414 0.0
C517 C 0.39334 0.57475 0.02338 0.0
C518 C 0.4054 0.55963 0.98398 0.0
C519 C 0.40873 0.58619 0.91186 0.0
H520 H 0.40727 0.5344 0.87988 0.0
C521 C 0.42963 0.58311 0.79004 0.0
C522 C 0.44584 0.5773 0.786 0.0
C523 C 0.41836 0.57881 0.81686 0.0
C524 C 0.40771 0.54897 0.88847 0.0
H525 H 0.37792 0.59298 1.00812 0.0
H526 H 0.38175 0.58776 0.95584 0.0
H527 H 0.39714 0.53479 0.93135 0.0
H528 H 0.46135 0.56049 0.80582 0.0
H529 H 0.44154 0.55267 0.85222 0.0
H530 H 0.41963 0.60052 0.86922 0.0
C531 C 0.38791 0.58066 0.97174 0.0
C532 C 0.40201 0.54925 0.91804 0.0
C533 C 0.38557 0.58354 1.0018 0.0
C534 C 0.44899 0.56522 0.80823 0.0
C535 C 0.43759 0.56072 0.83489 0.0
C536 C 0.4143 0.58587 0.88231 0.0
C537 C 0.39831 0.5691 0.96235 0.0
C538 C 0.40277 0.568 0.93029 0.0
C539 C 0.42285 0.5683 0.84003 0.0
C540 C 0.41421 0.56739 0.87035 0.0
H541 H 0.40909 0.55541 0.0302 0.0
H542 H 0.41368 0.5508 0.9777 0.0
H543 H 0.40994 0.6011 0.92049 0.0
H544 H 0.42678 0.59241 0.77338 0.0
H545 H 0.40684 0.58456 0.81992 0.0
C546 C 0.85293 0.36815 0.18455 0.0
C547 C 0.86311 0.38487 0.20582 0.0
C548 C 0.85582 0.37304 0.15436 0.0
C549 C 0.89084 0.41586 0.10048 0.0
H550 H 0.83802 0.39172 0.05295 0.0
C551 C 0.88575 0.4558 0.99241 0.0
C552 C 0.87218 0.44268 0.96927 0.0
C553 C 0.88646 0.44651 0.01932 0.0
C554 C 0.85302 0.39829 0.06566 0.0
H555 H 0.88505 0.41972 0.21194 0.0
H556 H 0.89014 0.42819 0.15943 0.0
H557 H 0.83615 0.37952 0.10374 0.0
H558 H 0.84935 0.4093 0.95595 0.0
H559 H 0.85078 0.39298 1.00299 0.0
H560 H 0.90766 0.43491 0.06261 0.0
C561 C 0.87996 0.41129 0.16604 0.0
C562 C 0.85193 0.39131 0.09485 0.0
C563 C 0.87694 0.40644 0.19619 0.0
C564 C 0.85995 0.41988 0.97333 0.0
C565 C 0.86065 0.41056 1.00038 0.0
C566 C 0.89195 0.42277 0.07127 0.0
C567 C 0.86912 0.39472 0.14475 0.0
C568 C 0.87075 0.40036 0.11281 0.0
C569 C 0.87365 0.42382 0.02389 0.0
C570 C 0.87297 0.41446 0.05367 0.0
H571 H 0.84217 0.35135 0.19117 0.0
H572 H 0.84743 0.35987 0.13851 0.0
H573 H 0.90569 0.42288 0.11357 0.0
H574 H 0.89542 0.47341 0.9901 0.0
H575 H 0.89644 0.45732 0.03695 0.0
C576 C 0.44775 0.90142 0.17004 0.0
C577 C 0.44334 0.88773 0.1453 0.0
C578 C 0.45476 0.89698 0.19665 0.0
C579 C 0.45398 0.85068 0.23699 0.0
H580 H 0.48868 0.89627 0.29392 0.0
C581 C 0.48762 0.83612 0.34633 0.0
C582 C 0.48475 0.84552 0.37214 0.0
C583 C 0.48218 0.84079 0.31867 0.0
C584 C 0.4788 0.88338 0.27832 0.0
H585 H 0.4443 0.85936 0.12866 0.0
H586 H 0.45751 0.85208 0.17488 0.0
H587 H 0.48306 0.90626 0.24447 0.0
H588 H 0.47366 0.86701 0.38925 0.0
H589 H 0.4646 0.87573 0.34044 0.0
H590 H 0.45045 0.82787 0.27085 0.0
C591 C 0.45483 0.86592 0.17396 0.0
C592 C 0.47553 0.88906 0.24991 0.0
C593 C 0.44759 0.87028 0.14725 0.0
C594 C 0.47594 0.85947 0.36975 0.0
C595 C 0.47091 0.86455 0.34186 0.0
C596 C 0.45759 0.84503 0.26526 0.0
C597 C 0.45787 0.87883 0.19933 0.0
C598 C 0.46287 0.8728 0.22887 0.0
C599 C 0.47413 0.85533 0.31605 0.0
C600 C 0.46986 0.86132 0.28629 0.0
H601 H 0.44469 0.91503 0.16937 0.0
H602 H 0.45662 0.90723 0.21553 0.0
H603 H 0.44378 0.83763 0.22179 0.0
H604 H 0.4943 0.82523 0.34748 0.0
H605 H 0.48493 0.83355 0.29919 0.0
C606 C 0.60872 0.43827 0.31713 0.0
C607 C 0.58761 0.4343 0.31018 0.0
C608 C 0.61658 0.44317 0.34622 0.0
C609 C 0.59594 0.43513 0.42282 0.0
H610 H 0.65616 0.47663 0.44293 0.0
C611 C 0.6316 0.44289 0.5411 0.0
C612 C 0.64602 0.46424 0.55119 0.0
C613 C 0.6243 0.4392 0.51167 0.0
C614 C 0.63924 0.46506 0.43771 0.0
H615 H 0.55882 0.43377 0.32789 0.0
H616 H 0.57268 0.44274 0.37824 0.0
H617 H 0.64442 0.47183 0.3914 0.0
H618 H 0.66348 0.4985 0.53849 0.0
H619 H 0.65062 0.4921 0.48773 0.0
H620 H 0.59067 0.42863 0.46917 0.0
C621 C 0.58295 0.4415 0.36149 0.0
C622 C 0.63258 0.46216 0.40812 0.0
C623 C 0.57509 0.43657 0.33254 0.0
C624 C 0.65252 0.4818 0.53147 0.0
C625 C 0.64528 0.47814 0.50221 0.0
C626 C 0.60261 0.43799 0.4524 0.0
C627 C 0.60352 0.44424 0.3689 0.0
C628 C 0.6108 0.44728 0.40032 0.0
C629 C 0.63131 0.4568 0.49179 0.0
C630 C 0.62431 0.45311 0.46024 0.0
H631 H 0.61871 0.43647 0.30047 0.0
H632 H 0.63249 0.44512 0.35117 0.0
H633 H 0.57912 0.42325 0.41756 0.0
H634 H 0.62633 0.42901 0.5557 0.0
H635 H 0.61362 0.42254 0.50431 0.0
C636 C 0.94907 0.44325 0.32421 0.0
C637 C 0.93421 0.43145 0.34685 0.0
C638 C 0.97173 0.45319 0.32908 0.0
C639 C 1.01245 0.47191 0.39067 0.0
H640 H 0.05235 0.4739 0.33047 0.0
C641 C 0.10149 0.49618 0.41827 0.0
C642 C 0.11807 0.51033 0.39886 0.0
C643 C 0.07942 0.4871 0.41062 0.0
C644 C 0.04145 0.47367 0.34742 0.0
H645 H 0.93163 0.41992 0.39181 0.0
H646 H 0.97073 0.43678 0.40014 0.0
H647 H 1.01327 0.45683 0.31933 0.0
H648 H 0.12421 0.52565 0.3558 0.0
H649 H 0.08556 0.50977 0.34242 0.0
H650 H 0.04047 0.48845 0.41886 0.0
C651 C 0.96508 0.43906 0.3789 0.0
C652 C 1.01901 0.46391 0.34103 0.0
C653 C 0.94255 0.4293 0.3741 0.0
C654 C 0.1119 0.51497 0.37138 0.0
C655 C 0.08975 0.50571 0.36361 0.0
C656 C 0.03477 0.48152 0.39707 0.0
C657 C 0.98005 0.45146 0.35667 0.0
C658 C 1.00414 0.46266 0.3627 0.0
C659 C 0.07322 0.4918 0.38326 0.0
C660 C 0.04956 0.48234 0.37568 0.0
H661 H 0.9432 0.44533 0.30303 0.0
H662 H 0.9827 0.46269 0.31147 0.0
H663 H 1.00169 0.47184 0.40773 0.0
H664 H 0.10553 0.49239 0.43971 0.0
H665 H 0.06717 0.47626 0.42617 0.0
C666 C 0.54963 0.92932 0.48223 0.0
C667 C 0.56049 0.91724 0.48563 0.0
C668 C 0.55977 0.95149 0.49041 0.0
C669 C 0.6055 0.99353 0.53646 0.0
H670 H 0.59729 0.03475 0.48926 0.0
C671 C 0.65738 0.08705 0.55578 0.0
C672 C 0.64689 0.09959 0.55422 0.0
C673 C 0.64657 0.065 0.54712 0.0
C674 C 0.59958 0.02344 0.5029 0.0
H675 H 0.59076 0.91947 0.50072 0.0
H676 H 0.60849 0.95796 0.51421 0.0
H677 H 0.57907 0.9962 0.47489 0.0
H678 H 0.61652 0.09831 0.54199 0.0
H679 H 0.59776 0.05995 0.52676 0.0
H680 H 0.62609 0.02075 0.56436 0.0
C681 C 0.59197 0.95024 0.50557 0.0
C682 C 0.58909 1.00126 0.49466 0.0
C683 C 0.58184 0.92809 0.49742 0.0
C684 C 0.62531 0.0894 0.54325 0.0
C685 C 0.6145 0.06731 0.5345 0.0
C686 C 0.61602 1.01568 0.54464 0.0
C687 C 0.58109 0.9623 0.50227 0.0
C688 C 0.59197 0.98596 0.51125 0.0
C689 C 0.62492 0.05473 0.53652 0.0
C690 C 0.61331 0.031 0.52792 0.0
H691 H 0.53331 0.92175 0.473 0.0
H692 H 0.55073 0.96008 0.48777 0.0
H693 H 0.6078 0.98227 0.55021 0.0
H694 H 0.67409 0.09428 0.5635 0.0
H695 H 0.65532 0.05604 0.54846 0.0
C696 C 0.53774 0.588 0.7146 0.0
C697 C 0.54897 0.61077 0.71959 0.0
C698 C 0.54915 0.57703 0.70742 0.0
C699 C 0.60234 0.58619 0.67831 0.0
H700 H 0.58604 0.53075 0.71587 0.0
C701 C 0.65716 0.54664 0.67116 0.0
C702 C 0.64713 0.52367 0.66904 0.0
C703 C 0.64478 0.55685 0.6765 0.0
C704 C 0.59067 0.54606 0.70481 0.0
H705 H 0.58108 0.63983 0.72008 0.0
H706 H 0.6009 0.62079 0.70779 0.0
H707 H 0.56516 0.54907 0.72605 0.0
H708 H 0.61584 0.49359 0.67118 0.0
H709 H 0.59431 0.51135 0.67969 0.0
H710 H 0.62778 0.58322 0.65698 0.0
C711 C 0.58325 0.61136 0.70934 0.0
C712 C 0.57866 0.5566 0.7107 0.0
C713 C 0.57188 0.62228 0.71671 0.0
C714 C 0.62426 0.51127 0.67235 0.0
C715 C 0.61187 0.5215 0.67762 0.0
C716 C 0.61429 0.57562 0.67232 0.0
C717 C 0.57209 0.58856 0.70478 0.0
C718 C 0.58441 0.5769 0.6977 0.0
C719 C 0.62193 0.54446 0.6798 0.0
C720 C 0.60875 0.55546 0.68563 0.0
H721 H 0.52015 0.57854 0.71685 0.0
H722 H 0.53996 0.5595 0.70379 0.0
H723 H 0.60705 0.60161 0.66749 0.0
H724 H 0.67463 0.55689 0.66849 0.0
H725 H 0.65325 0.57452 0.6784 0.0
C726 C 0.11055 0.59135 0.82577 0.0
C727 C 0.12157 0.61297 0.83661 0.0
C728 C 0.08766 0.57841 0.82821 0.0
C729 C 0.04163 0.57532 0.87214 0.0
H730 H 1.00432 0.53572 0.81084 0.0
C731 C 0.94851 0.54002 0.87319 0.0
C732 C 0.93473 0.5179 0.86552 0.0
C733 C 0.97114 0.55008 0.86936 0.0
C734 C 1.01454 0.54652 0.82832 0.0
H735 H 0.11692 0.63834 0.85658 0.0
H736 H 0.07751 0.61616 0.86054 0.0
H737 H 0.04405 0.55613 0.80395 0.0
H738 H 0.93418 0.48913 0.84748 0.0
H739 H 0.97389 0.50676 0.84082 0.0
H740 H 1.01232 0.56602 0.89638 0.0
C741 C 0.08641 0.60879 0.85107 0.0
C742 C 0.03734 0.55822 0.82437 0.0
C743 C 0.1091 0.62159 0.84874 0.0
C744 C 0.94429 0.50612 0.85382 0.0
C745 C 0.96703 0.51629 0.84976 0.0
C746 C 1.01896 0.56373 0.87602 0.0
C747 C 0.07534 0.58687 0.84146 0.0
C748 C 0.05117 0.5731 0.84604 0.0
C749 C 0.98077 0.5384 0.85765 0.0
C750 C 1.00505 0.54944 0.85401 0.0
H751 H 0.11966 0.58421 0.81637 0.0
H752 H 0.07973 0.5616 0.82057 0.0
H753 H 0.05171 0.58612 0.8897 0.0
H754 H 0.94185 0.54959 0.88256 0.0
H755 H 0.98112 0.56719 0.87536 0.0
C756 C 0.51705 0.123 0.98531 0.0
C757 C 0.50623 0.13522 0.98709 0.0
C758 C 0.50667 0.10104 0.99421 0.0
C759 C 0.45954 0.05979 0.03855 0.0
H760 H 0.46872 1.01797 0.99414 0.0
C761 C 0.40608 0.96625 0.05547 0.0
C762 C 0.41673 0.95386 0.0566 0.0
C763 C 0.41736 0.98831 0.04715 0.0
C764 C 0.46614 0.02947 1.00695 0.0
H765 H 0.47587 0.13353 1.00032 0.0
H766 H 0.4577 0.09537 1.01481 0.0
H767 H 0.48766 0.0564 0.97958 0.0
H768 H 0.44797 0.95548 0.04966 0.0
H769 H 0.46742 0.99374 0.03479 0.0
H770 H 0.43775 0.03276 0.06561 0.0
C771 C 0.47437 0.10282 1.00696 0.0
C772 C 0.47706 0.05157 0.99865 0.0
C773 C 0.48476 0.12478 0.99821 0.0
C774 C 0.439 0.96421 0.04876 0.0
C775 C 0.45024 0.98626 0.04023 0.0
C776 C 0.44852 0.03769 0.04669 0.0
C777 C 0.48514 0.09059 1.00509 0.0
C778 C 0.47387 0.06706 1.01427 0.0
C779 C 0.4396 0.99863 0.0395 0.0
C780 C 0.45161 0.02222 0.03096 0.0
H781 H 0.53347 0.13024 0.97668 0.0
H782 H 0.51565 0.09231 0.99276 0.0
H783 H 0.45696 0.07122 0.05154 0.0
H784 H 0.38892 0.95894 0.06076 0.0
H785 H 0.40856 0.99725 0.04637 0.0
C786 C 0.4358 0.5201 0.13907 0.0
C787 C 0.44538 0.54025 0.15425 0.0
C788 C 0.44422 0.50586 0.14211 0.0
C789 C 0.49379 0.50413 0.16795 0.0
H790 H 0.45366 0.44171 0.17367 0.0
C791 C 0.52514 0.4426 0.18072 0.0
C792 C 0.51344 0.42459 0.19952 0.0
C793 C 0.5167 0.45618 0.17287 0.0
C794 C 0.46513 0.4591 0.17235 0.0
H795 H 0.47198 0.56135 0.18375 0.0
H796 H 0.48607 0.53652 0.18971 0.0
H797 H 0.43948 0.46641 0.16453 0.0
H798 H 0.48368 0.40697 0.22498 0.0
H799 H 0.46916 0.43076 0.21181 0.0
H800 H 0.51935 0.49699 0.17699 0.0
C801 C 0.4722 0.53169 0.17515 0.0
C802 C 0.45699 0.47329 0.16666 0.0
C803 C 0.46385 0.5459 0.17205 0.0
C804 C 0.49301 0.42048 0.21013 0.0
C805 C 0.48464 0.43415 0.20247 0.0
C806 C 0.50191 0.48998 0.1738 0.0
C807 C 0.46248 0.5114 0.16037 0.0
C808 C 0.47119 0.49605 0.16467 0.0
C809 C 0.49638 0.45226 0.18378 0.0
C810 C 0.4877 0.46725 0.17634 0.0
H811 H 0.42152 0.51509 0.12528 0.0
H812 H 0.43642 0.49051 0.13007 0.0
H813 H 0.50532 0.52148 0.16612 0.0
H814 H 0.54075 0.44607 0.17178 0.0
H815 H 0.52608 0.46968 0.15801 0.0
C816 C 0.21564 0.54689 0.30582 0.0
C817 C 0.22134 0.5649 0.32455 0.0
C818 C 0.22875 0.54863 0.28177 0.0
C819 C 0.28597 0.57985 0.25812 0.0
H820 H 0.2629 0.54788 0.18476 0.0
C821 C 0.33936 0.56192 0.17942 0.0
C822 C 0.33744 0.5645 0.14896 0.0
C823 C 0.32453 0.56248 0.19938 0.0
C824 C 0.26965 0.55705 0.205 0.0
H825 H 0.24478 0.59921 0.33187 0.0
H826 H 0.26773 0.60234 0.28954 0.0
H827 H 0.23808 0.54977 0.22055 0.0
H828 H 0.31794 0.56907 0.1156 0.0
H829 H 0.2921 0.57 0.1504 0.0
H830 H 0.31753 0.58717 0.24259 0.0
C831 C 0.25315 0.58678 0.29371 0.0
C832 C 0.2554 0.55801 0.22563 0.0
C833 C 0.23988 0.58507 0.31775 0.0
C834 C 0.31989 0.56694 0.13889 0.0
C835 C 0.30503 0.56745 0.15886 0.0
C836 C 0.30021 0.57885 0.23754 0.0
C837 C 0.24801 0.56841 0.27586 0.0
C838 C 0.26334 0.5692 0.25262 0.0
C839 C 0.30737 0.56559 0.18941 0.0
C840 C 0.29222 0.56721 0.21086 0.0
H841 H 0.20145 0.53112 0.31045 0.0
H842 H 0.22435 0.5341 0.26873 0.0
H843 H 0.29266 0.58842 0.27878 0.0
H844 H 0.35265 0.56 0.188 0.0
H845 H 0.32659 0.56056 0.2227 0.0
C846 C 0.77639 0.32455 0.31288 0.0
C847 C 0.7989 0.33185 0.31499 0.0
C848 C 0.76136 0.30725 0.33041 0.0
C849 C 0.75285 0.25934 0.37253 0.0
H850 H 0.71554 0.27102 0.42314 0.0
C851 C 0.7144 0.20929 0.477 0.0
C852 C 0.69452 0.20646 0.48789 0.0
C853 C 0.72416 0.22212 0.45217 0.0
C854 C 0.72541 0.26719 0.40874 0.0
H855 H 0.82319 0.32625 0.33635 0.0
H856 H 0.79682 0.29556 0.36633 0.0
H857 H 0.73832 0.29793 0.38622 0.0
H858 H 0.66881 0.21422 0.48032 0.0
H859 H 0.68563 0.2363 0.43617 0.0
H860 H 0.73997 0.2286 0.3946 0.0
C861 C 0.79088 0.30338 0.35129 0.0
C862 C 0.73857 0.28271 0.38769 0.0
C863 C 0.80596 0.32097 0.3342 0.0
C864 C 0.68415 0.21609 0.47252 0.0
C865 C 0.69391 0.22891 0.44736 0.0
C866 C 0.73945 0.24367 0.39319 0.0
C867 C 0.76847 0.2966 0.34994 0.0
C868 C 0.75281 0.27916 0.36991 0.0
C869 C 0.71427 0.23239 0.43715 0.0
C870 C 0.72602 0.24764 0.41223 0.0
H871 H 0.77044 0.33271 0.29848 0.0
H872 H 0.74418 0.30229 0.32888 0.0
H873 H 0.76344 0.25606 0.35877 0.0
H874 H 0.72292 0.20215 0.48822 0.0
H875 H 0.73999 0.22465 0.44554 0.0
C876 C 0.47248 0.66928 0.65661 0.0
C877 C 0.48987 0.67738 0.67706 0.0
C878 C 0.46991 0.68365 0.6376 0.0
C879 C 0.50101 0.74074 0.6081 0.0
H880 H 0.44394 0.73419 0.59283 0.0
C881 C 0.49311 0.81284 0.56718 0.0
C882 C 0.4818 0.8097 0.54037 0.0
C883 C 0.49119 0.79499 0.58309 0.0
C884 C 0.45994 0.73609 0.59677 0.0
H885 H 0.51816 0.70701 0.69333 0.0
H886 H 0.51351 0.73165 0.66112 0.0
H887 H 0.44686 0.70585 0.62071 0.0
H888 H 0.45826 0.78503 0.51045 0.0
H889 H 0.45459 0.75373 0.53883 0.0
H890 H 0.51415 0.77123 0.58518 0.0
C891 C 0.50205 0.71428 0.65905 0.0
C892 C 0.46165 0.71983 0.6126 0.0
C893 C 0.50463 0.70005 0.67781 0.0
C894 C 0.46709 0.78809 0.53113 0.0
C895 C 0.46506 0.77013 0.54728 0.0
C896 C 0.49932 0.757 0.59275 0.0
C897 C 0.4847 0.70639 0.6386 0.0
C898 C 0.48229 0.7222 0.61904 0.0
C899 C 0.47777 0.77349 0.5728 0.0
C900 C 0.47884 0.75512 0.5874 0.0
H901 H 0.46075 0.65193 0.65554 0.0
H902 H 0.45642 0.67694 0.62204 0.0
H903 H 0.51715 0.7429 0.61173 0.0
H904 H 0.50448 0.82919 0.57507 0.0
H905 H 0.50092 0.79806 0.60295 0.0
C906 C 0.79539 0.417 0.82442 0.0
C907 C 0.8143 0.43544 0.81364 0.0
C908 C 0.77507 0.4098 0.81075 0.0
C909 C 0.74763 0.41529 0.74359 0.0
H910 H 0.70495 0.41372 0.79883 0.0
C911 C 0.67039 0.41498 0.70182 0.0
C912 C 0.6691 0.43291 0.71322 0.0
C913 C 0.68371 0.40801 0.71553 0.0
C914 C 0.71656 0.41384 0.78311 0.0
H915 H 0.82696 0.45928 0.7783 0.0
H916 H 0.79176 0.4464 0.75412 0.0
H917 H 0.73805 0.41487 0.81733 0.0
H918 H 0.67833 0.4554 0.75031 0.0
H919 H 0.701 0.44301 0.77433 0.0
H920 H 0.72671 0.41537 0.70935 0.0
C921 C 0.79251 0.43769 0.77336 0.0
C922 C 0.73545 0.41432 0.79372 0.0
C923 C 0.81273 0.44511 0.78729 0.0
C924 C 0.67918 0.44179 0.74058 0.0
C925 C 0.6922 0.43463 0.75446 0.0
C926 C 0.72863 0.41459 0.73295 0.0
C927 C 0.77331 0.42054 0.78561 0.0
C928 C 0.75156 0.41581 0.77412 0.0
C929 C 0.69552 0.41843 0.74133 0.0
C930 C 0.71322 0.41462 0.7526 0.0
H931 H 0.79598 0.40906 0.84458 0.0
H932 H 0.76059 0.39639 0.82054 0.0
H933 H 0.75965 0.41626 0.7279 0.0
H934 H 0.6624 0.40733 0.68121 0.0
H935 H 0.68558 0.39516 0.7052 0.0
C936 C 0.37852 0.83132 0.98325 0.0
C937 C 0.36769 0.84065 0.99821 0.0
C938 C 0.36861 0.81739 0.95885 0.0
C939 C 0.32204 0.79965 0.90515 0.0
H940 H 0.32524 0.74642 0.89946 0.0
C941 C 0.25661 0.72121 0.84655 0.0
C942 C 0.26382 0.71026 0.8277 0.0
C943 C 0.27155 0.73895 0.86376 0.0
C944 C 0.3244 0.76135 0.90056 0.0
H945 H 0.33816 0.84301 0.99868 0.0
H946 H 0.32096 0.81875 0.95731 0.0
H947 H 0.34783 0.7744 0.93582 0.0
H948 H 0.29243 0.7094 0.81211 0.0
H949 H 0.31848 0.74016 0.84272 0.0
H950 H 0.29781 0.78604 0.87088 0.0
C951 C 0.33722 0.82234 0.96368 0.0
C952 C 0.33743 0.77746 0.92131 0.0
C953 C 0.34708 0.8362 0.98777 0.0
C954 C 0.28635 0.71759 0.82624 0.0
C955 C 0.30126 0.73509 0.8439 0.0
C956 C 0.30882 0.78344 0.88477 0.0
C957 C 0.34769 0.81255 0.94893 0.0
C958 C 0.33606 0.79664 0.92437 0.0
C959 C 0.294 0.74591 0.86292 0.0
C960 C 0.30955 0.76394 0.88262 0.0
H961 H 0.3944 0.83438 0.99074 0.0
H962 H 0.37728 0.81034 0.94789 0.0
H963 H 0.32092 0.81441 0.90619 0.0
H964 H 0.23937 0.71593 0.84823 0.0
H965 H 0.26545 0.74686 0.8784 0.0
C966 C 0.60901 0.38333 0.1607 0.0
C967 C 0.59053 0.38452 0.15164 0.0
C968 C 0.6157 0.37059 0.14482 0.0
C969 C 0.60893 0.34097 0.07405 0.0
H970 H 0.61077 0.29677 0.12298 0.0
C971 C 0.60985 0.26671 0.022 0.0
C972 C 0.59204 0.24684 0.0317 0.0
C973 C 0.61642 0.28616 0.03782 0.0
C974 C 0.61057 0.30915 0.10903 0.0
H975 H 0.56588 0.37491 0.11739 0.0
H976 H 0.57789 0.3533 0.08934 0.0
H977 H 0.61006 0.32776 0.14618 0.0
H978 H 0.56902 0.23145 0.06748 0.0
H979 H 0.5809 0.26508 0.0954 0.0
H980 H 0.60845 0.32183 0.03691 0.0
C981 C 0.58706 0.36193 0.10888 0.0
C982 C 0.61033 0.32699 0.1223 0.0
C983 C 0.58014 0.3743 0.12501 0.0
C984 C 0.58264 0.24648 0.05919 0.0
C985 C 0.58949 0.26579 0.07527 0.0
C986 C 0.60944 0.32326 0.06077 0.0
C987 C 0.60437 0.35922 0.11919 0.0
C988 C 0.60878 0.34273 0.10498 0.0
C989 C 0.60576 0.286 0.06411 0.0
C990 C 0.60954 0.30676 0.07813 0.0
H991 H 0.61744 0.39102 0.18107 0.0
H992 H 0.62924 0.36899 0.15316 0.0
H993 H 0.60787 0.35289 0.06011 0.0
H994 H 0.61775 0.26757 1.00118 0.0
H995 H 0.62924 0.30145 0.02889 0.0
loop_
_geom_bond_atom_site_label_1
_geom_bond_atom_site_label_2
_geom_bond_distance
_geom_bond_site_symmetry_2
_ccdc_geom_bond_type
Cu0 N1 1.999 . S
Cu0 O6 1.974 . S
Cu0 N11 1.985 . S
Cu0 O20 1.959 . S
N1 Cu0 1.999 . S
N1 C3 1.263 . S
N1 C5 1.389 . S
N2 C3 1.358 . S
N2 C4 1.400 . S
C3 N1 1.263 . S
C3 N2 1.358 . S
C3 H9 0.930 . S
C4 N2 1.400 . S
C4 C5 1.351 . S
C4 H21 0.930 . S
C5 N1 1.389 . S
C5 C4 1.351 . S
C5 H10 0.930 . S
O6 Cu0 1.974 . S
O6 C16 1.282 . S
C7 O8 1.261 . S
C7 O20 1.251 . S
O8 C7 1.261 . S
H9 C3 0.930 . S
H10 C5 0.930 . S
N11 Cu0 1.985 . S
N11 C13 1.335 . S
N11 C14 1.390 . S
N12 C13 1.345 . S
N12 C15 1.336 . S
C13 N11 1.335 . S
C13 N12 1.345 . S
C13 H18 0.930 . S
C14 N11 1.390 . S
C14 C15 1.346 . S
C14 H19 0.930 . S
C15 N12 1.336 . S
C15 C14 1.346 . S
C15 H22 0.929 . S
C16 O6 1.282 . S
C16 O17 1.216 . S
O17 C16 1.216 . S
H18 C13 0.930 . S
H19 C14 0.930 . S
O20 Cu0 1.959 . S
O20 C7 1.251 . S
H21 C4 0.930 . S
H22 C15 0.929 . S
Cu23 N24 1.999 . S
Cu23 O29 1.974 . S
Cu23 N34 1.985 . S
Cu23 O43 1.959 . S
N24 Cu23 1.999 . S
N24 C26 1.263 . S
N24 C28 1.389 . S
N25 C26 1.358 . S
N25 C27 1.400 . S
C26 N24 1.263 . S
C26 N25 1.358 . S
C26 H32 0.930 . S
C27 N25 1.400 . S
C27 C28 1.351 . S
C27 H44 0.930 . S
C28 N24 1.389 . S
C28 C27 1.351 . S
C28 H33 0.930 . S
O29 Cu23 1.974 . S
O29 C39 1.282 . S
C30 O31 1.261 . S
C30 O43 1.251 . S
O31 C30 1.261 . S
H32 C26 0.930 . S
H33 C28 0.930 . S
N34 Cu23 1.985 . S
N34 C36 1.335 . S
N34 C37 1.390 . S
N35 C36 1.345 . S
N35 C38 1.336 . S
C36 N34 1.335 . S
C36 N35 1.345 . S
C36 H41 0.930 . S
C37 N34 1.390 . S
C37 C38 1.346 . S
C37 H42 0.930 . S
C38 N35 1.336 . S
C38 C37 1.346 . S
C38 H45 0.929 . S
C39 O29 1.282 . S
C39 O40 1.216 . S
O40 C39 1.216 . S
H41 C36 0.930 . S
H42 C37 0.930 . S
O43 Cu23 1.959 . S
O43 C30 1.251 . S
H44 C27 0.930 . S
H45 C38 0.929 . S
Cu46 N47 1.999 . S
Cu46 O52 1.974 . S
Cu46 N57 1.985 . S
Cu46 O66 1.959 . S
N47 Cu46 1.999 . S
N47 C49 1.263 . S
N47 C51 1.389 . S
N48 C49 1.358 . S
N48 C50 1.400 . S
C49 N47 1.263 . S
C49 N48 1.358 . S
C49 H55 0.930 . S
C50 N48 1.400 . S
C50 C51 1.351 . S
C50 H67 0.930 . S
C51 N47 1.389 . S
C51 C50 1.351 . S
C51 H56 0.930 . S
O52 Cu46 1.974 . S
O52 C62 1.282 . S
C53 O54 1.261 . S
C53 O66 1.251 . S
O54 C53 1.261 . S
H55 C49 0.930 . S
H56 C51 0.930 . S
N57 Cu46 1.985 . S
N57 C59 1.335 . S
N57 C60 1.390 . S
N58 C59 1.345 . S
N58 C61 1.336 . S
C59 N57 1.335 . S
C59 N58 1.345 . S
C59 H64 0.930 . S
C60 N57 1.390 . S
C60 C61 1.346 . S
C60 H65 0.930 . S
C61 N58 1.336 . S
C61 C60 1.346 . S
C61 H68 0.929 . S
C62 O52 1.282 . S
C62 O63 1.216 . S
O63 C62 1.216 . S
H64 C59 0.930 . S
H65 C60 0.930 . S
O66 Cu46 1.959 . S
O66 C53 1.251 . S
H67 C50 0.930 . S
H68 C61 0.929 . S
Cu69 N70 1.999 . S
Cu69 O75 1.974 . S
Cu69 N80 1.985 . S
Cu69 O89 1.959 . S
N70 Cu69 1.999 . S
N70 C72 1.263 . S
N70 C74 1.389 . S
N71 C72 1.358 . S
N71 C73 1.400 . S
C72 N70 1.263 . S
C72 N71 1.358 . S
C72 H78 0.930 . S
C73 N71 1.400 . S
C73 C74 1.351 . S
C73 H90 0.930 . S
C74 N70 1.389 . S
C74 C73 1.351 . S
C74 H79 0.930 . S
O75 Cu69 1.974 . S
O75 C85 1.282 . S
C76 O77 1.261 . S
C76 O89 1.251 . S
O77 C76 1.261 . S
H78 C72 0.930 . S
H79 C74 0.930 . S
N80 Cu69 1.985 . S
N80 C82 1.335 . S
N80 C83 1.390 . S
N81 C82 1.345 . S
N81 C84 1.336 . S
C82 N80 1.335 . S
C82 N81 1.345 . S
C82 H87 0.930 . S
C83 N80 1.390 . S
C83 C84 1.346 . S
C83 H88 0.930 . S
C84 N81 1.336 . S
C84 C83 1.346 . S
C84 H91 0.929 . S
C85 O75 1.282 . S
C85 O86 1.216 . S
O86 C85 1.216 . S
H87 C82 0.930 . S
H88 C83 0.930 . S
O89 Cu69 1.959 . S
O89 C76 1.251 . S
H90 C73 0.930 . S
H91 C84 0.929 . S
Cu92 N93 1.999 . S
Cu92 O98 1.974 . S
Cu92 N103 1.985 . S
Cu92 O112 1.959 . S
N93 Cu92 1.999 . S
N93 C95 1.263 . S
N93 C97 1.389 . S
N94 C95 1.358 . S
N94 C96 1.400 . S
C95 N93 1.263 . S
C95 N94 1.358 . S
C95 H101 0.930 . S
C96 N94 1.400 . S
C96 C97 1.351 . S
C96 H113 0.930 . S
C97 N93 1.389 . S
C97 C96 1.351 . S
C97 H102 0.930 . S
O98 Cu92 1.974 . S
O98 C108 1.282 . S
C99 O100 1.261 . S
C99 O112 1.251 . S
O100 C99 1.261 . S
H101 C95 0.930 . S
H102 C97 0.930 . S
N103 Cu92 1.985 . S
N103 C105 1.335 . S
N103 C106 1.390 . S
N104 C105 1.345 . S
N104 C107 1.336 . S
C105 N103 1.335 . S
C105 N104 1.345 . S
C105 H110 0.930 . S
C106 N103 1.390 . S
C106 C107 1.346 . S
C106 H111 0.930 . S
C107 N104 1.336 . S
C107 C106 1.346 . S
C107 H114 0.929 . S
C108 O98 1.282 . S
C108 O109 1.216 . S
O109 C108 1.216 . S
H110 C105 0.930 . S
H111 C106 0.930 . S
O112 Cu92 1.959 . S
O112 C99 1.251 . S
H113 C96 0.930 . S
H114 C107 0.929 . S
Cu115 N116 1.999 . S
Cu115 O121 1.974 . S
Cu115 N126 1.985 . S
Cu115 O135 1.959 . S
N116 Cu115 1.999 . S
N116 C118 1.263 . S
N116 C120 1.389 . S
N117 C118 1.358 . S
N117 C119 1.400 . S
C118 N116 1.263 . S
C118 N117 1.358 . S
C118 H124 0.930 . S
C119 N117 1.400 . S
C119 C120 1.351 . S
C119 H136 0.930 . S
C120 N116 1.389 . S
C120 C119 1.351 . S
C120 H125 0.930 . S
O121 Cu115 1.974 . S
O121 C131 1.282 . S
C122 O123 1.261 . S
C122 O135 1.251 . S
O123 C122 1.261 . S
H124 C118 0.930 . S
H125 C120 0.930 . S
N126 Cu115 1.985 . S
N126 C128 1.335 . S
N126 C129 1.390 . S
N127 C128 1.345 . S
N127 C130 1.336 . S
C128 N126 1.335 . S
C128 N127 1.345 . S
C128 H133 0.930 . S
C129 N126 1.390 . S
C129 C130 1.346 . S
C129 H134 0.930 . S
C130 N127 1.336 . S
C130 C129 1.346 . S
C130 H137 0.929 . S
C131 O121 1.282 . S
C131 O132 1.216 . S
O132 C131 1.216 . S
H133 C128 0.930 . S
H134 C129 0.930 . S
O135 Cu115 1.959 . S
O135 C122 1.251 . S
H136 C119 0.930 . S
H137 C130 0.929 . S
Cu138 N139 1.999 . S
Cu138 O144 1.974 . S
Cu138 N149 1.985 . S
Cu138 O158 1.959 . S
N139 Cu138 1.999 . S
N139 C141 1.263 . S
N139 C143 1.389 . S
N140 C141 1.358 . S
N140 C142 1.400 . S
C141 N139 1.263 . S
C141 N140 1.358 . S
C141 H147 0.930 . S
C142 N140 1.400 . S
C142 C143 1.351 . S
C142 H159 0.930 . S
C143 N139 1.389 . S
C143 C142 1.351 . S
C143 H148 0.930 . S
O144 Cu138 1.974 . S
O144 C154 1.282 . S
C145 O146 1.261 . S
C145 O158 1.251 . S
O146 C145 1.261 . S
H147 C141 0.930 . S
H148 C143 0.930 . S
N149 Cu138 1.985 . S
N149 C151 1.335 . S
N149 C152 1.390 . S
N150 C151 1.345 . S
N150 C153 1.336 . S
C151 N149 1.335 . S
C151 N150 1.345 . S
C151 H156 0.930 . S
C152 N149 1.390 . S
C152 C153 1.346 . S
C152 H157 0.930 . S
C153 N150 1.336 . S
C153 C152 1.346 . S
C153 H160 0.929 . S
C154 O144 1.282 . S
C154 O155 1.216 . S
O155 C154 1.216 . S
H156 C151 0.930 . S
H157 C152 0.930 . S
O158 Cu138 1.959 . S
O158 C145 1.251 . S
H159 C142 0.930 . S
H160 C153 0.929 . S
Cu161 N162 1.999 . S
Cu161 O167 1.974 . S
Cu161 N172 1.985 . S
Cu161 O181 1.959 . S
N162 Cu161 1.999 . S
N162 C164 1.263 . S
N162 C166 1.389 . S
N163 C164 1.358 . S
N163 C165 1.400 . S
C164 N162 1.263 . S
C164 N163 1.358 . S
C164 H170 0.930 . S
C165 N163 1.400 . S
C165 C166 1.351 . S
C165 H182 0.930 . S
C166 N162 1.389 . S
C166 C165 1.351 . S
C166 H171 0.930 . S
O167 Cu161 1.974 . S
O167 C177 1.282 . S
C168 O169 1.261 . S
C168 O181 1.251 . S
O169 C168 1.261 . S
H170 C164 0.930 . S
H171 C166 0.930 . S
N172 Cu161 1.985 . S
N172 C174 1.335 . S
N172 C175 1.390 . S
N173 C174 1.345 . S
N173 C176 1.336 . S
C174 N172 1.335 . S
C174 N173 1.345 . S
C174 H179 0.930 . S
C175 N172 1.390 . S
C175 C176 1.346 . S
C175 H180 0.930 . S
C176 N173 1.336 . S
C176 C175 1.346 . S
C176 H183 0.929 . S
C177 O167 1.282 . S
C177 O178 1.216 . S
O178 C177 1.216 . S
H179 C174 0.930 . S
H180 C175 0.930 . S
O181 Cu161 1.959 . S
O181 C168 1.251 . S
H182 C165 0.930 . S
H183 C176 0.929 . S
Cu184 N185 1.999 . S
Cu184 O190 1.974 . S
Cu184 N195 1.985 . S
Cu184 O204 1.959 . S
N185 Cu184 1.999 . S
N185 C187 1.263 . S
N185 C189 1.389 . S
N186 C187 1.358 . S
N186 C188 1.400 . S
C187 N185 1.263 . S
C187 N186 1.358 . S
C187 H193 0.930 . S
C188 N186 1.400 . S
C188 C189 1.351 . S
C188 H205 0.930 . S
C189 N185 1.389 . S
C189 C188 1.351 . S
C189 H194 0.930 . S
O190 Cu184 1.974 . S
O190 C200 1.282 . S
C191 O192 1.261 . S
C191 O204 1.251 . S
O192 C191 1.261 . S
H193 C187 0.930 . S
H194 C189 0.930 . S
N195 Cu184 1.985 . S
N195 C197 1.335 . S
N195 C198 1.390 . S
N196 C197 1.345 . S
N196 C199 1.336 . S
C197 N195 1.335 . S
C197 N196 1.345 . S
C197 H202 0.930 . S
C198 N195 1.390 . S
C198 C199 1.346 . S
C198 H203 0.930 . S
C199 N196 1.336 . S
C199 C198 1.346 . S
C199 H206 0.929 . S
C200 O190 1.282 . S
C200 O201 1.216 . S
O201 C200 1.216 . S
H202 C197 0.930 . S
H203 C198 0.930 . S
O204 Cu184 1.959 . S
O204 C191 1.251 . S
H205 C188 0.930 . S
H206 C199 0.929 . S
Cu207 N208 1.999 . S
Cu207 O213 1.974 . S
Cu207 N218 1.985 . S
Cu207 O227 1.959 . S
N208 Cu207 1.999 . S
N208 C210 1.263 . S
N208 C212 1.389 . S
N209 C210 1.358 . S
N209 C211 1.400 . S
C210 N208 1.263 . S
C210 N209 1.358 . S
C210 H216 0.930 . S
C211 N209 1.400 . S
C211 C212 1.351 . S
C211 H228 0.930 . S
C212 N208 1.389 . S
C212 C211 1.351 . S
C212 H217 0.930 . S
O213 Cu207 1.974 . S
O213 C223 1.282 . S
C214 O215 1.261 . S
C214 O227 1.251 . S
O215 C214 1.261 . S
H216 C210 0.930 . S
H217 C212 0.930 . S
N218 Cu207 1.985 . S
N218 C220 1.335 . S
N218 C221 1.390 . S
N219 C220 1.345 . S
N219 C222 1.336 . S
C220 N218 1.335 . S
C220 N219 1.345 . S
C220 H225 0.930 . S
C221 N218 1.390 . S
C221 C222 1.346 . S
C221 H226 0.930 . S
C222 N219 1.336 . S
C222 C221 1.346 . S
C222 H229 0.929 . S
C223 O213 1.282 . S
C223 O224 1.216 . S
O224 C223 1.216 . S
H225 C220 0.930 . S
H226 C221 0.930 . S
O227 Cu207 1.959 . S
O227 C214 1.251 . S
H228 C211 0.930 . S
H229 C222 0.929 . S
Cu230 N231 1.999 . S
Cu230 O236 1.974 . S
Cu230 N241 1.985 . S
Cu230 O250 1.959 . S
N231 Cu230 1.999 . S
N231 C233 1.263 . S
N231 C235 1.389 . S
N232 C233 1.358 . S
N232 C234 1.400 . S
C233 N231 1.263 . S
C233 N232 1.358 . S
C233 H239 0.930 . S
C234 N232 1.400 . S
C234 C235 1.351 . S
C234 H251 0.930 . S
C235 N231 1.389 . S
C235 C234 1.351 . S
C235 H240 0.930 . S
O236 Cu230 1.974 . S
O236 C246 1.282 . S
C237 O238 1.261 . S
C237 O250 1.251 . S
O238 C237 1.261 . S
H239 C233 0.930 . S
H240 C235 0.930 . S
N241 Cu230 1.985 . S
N241 C243 1.335 . S
N241 C244 1.390 . S
N242 C243 1.345 . S
N242 C245 1.336 . S
C243 N241 1.335 . S
C243 N242 1.345 . S
C243 H248 0.930 . S
C244 N241 1.390 . S
C244 C245 1.346 . S
C244 H249 0.930 . S
C245 N242 1.336 . S
C245 C244 1.346 . S
C245 H252 0.929 . S
C246 O236 1.282 . S
C246 O247 1.216 . S
O247 C246 1.216 . S
H248 C243 0.930 . S
H249 C244 0.930 . S
O250 Cu230 1.959 . S
O250 C237 1.251 . S
H251 C234 0.930 . S
H252 C245 0.929 . S
Cu253 N254 1.999 . S
Cu253 O259 1.974 . S
Cu253 N264 1.985 . S
Cu253 O273 1.959 . S
N254 Cu253 1.999 . S
N254 C256 1.263 . S
N254 C258 1.389 . S
N255 C256 1.358 . S
N255 C257 1.400 . S
C256 N254 1.263 . S
C256 N255 1.358 . S
C256 H262 0.930 . S
C257 N255 1.400 . S
C257 C258 1.351 . S
C257 H274 0.930 . S
C258 N254 1.389 . S
C258 C257 1.351 . S
C258 H263 0.930 . S
O259 Cu253 1.974 . S
O259 C269 1.282 . S
C260 O261 1.261 . S
C260 O273 1.251 . S
O261 C260 1.261 . S
H262 C256 0.930 . S
H263 C258 0.930 . S
N264 Cu253 1.985 . S
N264 C266 1.335 . S
N264 C267 1.390 . S
N265 C266 1.345 . S
N265 C268 1.336 . S
C266 N264 1.335 . S
C266 N265 1.345 . S
C266 H271 0.930 . S
C267 N264 1.390 . S
C267 C268 1.346 . S
C267 H272 0.930 . S
C268 N265 1.336 . S
C268 C267 1.346 . S
C268 H275 0.929 . S
C269 O259 1.282 . S
C269 O270 1.216 . S
O270 C269 1.216 . S
H271 C266 0.930 . S
H272 C267 0.930 . S
O273 Cu253 1.959 . S
O273 C260 1.251 . S
H274 C257 0.930 . S
H275 C268 0.929 . S
C276 C277 1.349 . S
C276 C278 1.327 . S
C276 H301 0.950 . S
C277 C276 1.349 . S
C277 C293 1.349 . S
C278 C276 1.327 . S
C278 C297 1.429 . S
C278 H302 0.950 . S
C279 C296 1.574 . S
C279 C298 1.368 . S
C279 H303 0.949 . S
H280 C284 0.949 . S
C281 C282 1.349 . S
C281 C283 1.327 . S
C281 H304 0.950 . S
C282 C281 1.349 . S
C282 C294 1.349 . S
C283 C281 1.327 . S
C283 C299 1.429 . S
C283 H305 0.950 . S
C284 H280 0.949 . S
C284 C292 1.574 . S
C284 C300 1.368 . S
H285 C293 0.950 . S
H286 C291 0.950 . S
H287 C292 0.949 . S
H288 C294 0.950 . S
H289 C295 0.950 . S
H290 C296 0.949 . S
C291 H286 0.950 . S
C291 C293 1.327 . S
C291 C297 1.429 . S
C292 C284 1.574 . S
C292 H287 0.949 . S
C292 C298 1.368 . S
C293 C277 1.349 . S
C293 H285 0.950 . S
C293 C291 1.327 . S
C294 C282 1.349 . S
C294 H288 0.950 . S
C294 C295 1.327 . S
C295 H289 0.950 . S
C295 C294 1.327 . S
C295 C299 1.429 . S
C296 C279 1.574 . S
C296 H290 0.949 . S
C296 C300 1.368 . S
C297 C278 1.429 . S
C297 C291 1.429 . S
C297 C298 1.523 . S
C298 C279 1.368 . S
C298 C292 1.368 . S
C298 C297 1.523 . S
C299 C283 1.429 . S
C299 C295 1.429 . S
C299 C300 1.523 . S
C300 C284 1.368 . S
C300 C296 1.368 . S
C300 C299 1.523 . S
H301 C276 0.950 . S
H302 C278 0.950 . S
H303 C279 0.949 . S
H304 C281 0.950 . S
H305 C283 0.950 . S
C306 C307 1.349 . S
C306 C308 1.327 . S
C306 H331 0.950 . S
C307 C306 1.349 . S
C307 C323 1.349 . S
C308 C306 1.327 . S
C308 C327 1.429 . S
C308 H332 0.950 . S
C309 C326 1.574 . S
C309 C328 1.368 . S
C309 H333 0.949 . S
H310 C314 0.949 . S
C311 C312 1.349 . S
C311 C313 1.327 . S
C311 H334 0.950 . S
C312 C311 1.349 . S
C312 C324 1.349 . S
C313 C311 1.327 . S
C313 C329 1.429 . S
C313 H335 0.950 . S
C314 H310 0.949 . S
C314 C322 1.574 . S
C314 C330 1.368 . S
H315 C323 0.950 . S
H316 C321 0.950 . S
H317 C322 0.949 . S
H318 C324 0.950 . S
H319 C325 0.950 . S
H320 C326 0.949 . S
C321 H316 0.950 . S
C321 C323 1.327 . S
C321 C327 1.429 . S
C322 C314 1.574 . S
C322 H317 0.949 . S
C322 C328 1.368 . S
C323 C307 1.349 . S
C323 H315 0.950 . S
C323 C321 1.327 . S
C324 C312 1.349 . S
C324 H318 0.950 . S
C324 C325 1.327 . S
C325 H319 0.950 . S
C325 C324 1.327 . S
C325 C329 1.429 . S
C326 C309 1.574 . S
C326 H320 0.949 . S
C326 C330 1.368 . S
C327 C308 1.429 . S
C327 C321 1.429 . S
C327 C328 1.523 . S
C328 C309 1.368 . S
C328 C322 1.368 . S
C328 C327 1.523 . S
C329 C313 1.429 . S
C329 C325 1.429 . S
C329 C330 1.523 . S
C330 C314 1.368 . S
C330 C326 1.368 . S
C330 C329 1.523 . S
H331 C306 0.950 . S
H332 C308 0.950 . S
H333 C309 0.949 . S
H334 C311 0.950 . S
H335 C313 0.950 . S
C336 C337 1.349 . S
C336 C338 1.327 . S
C336 H361 0.950 . S
C337 C336 1.349 . S
C337 C353 1.349 . S
C338 C336 1.327 . S
C338 C357 1.429 . S
C338 H362 0.950 . S
C339 C356 1.574 . S
C339 C358 1.368 . S
C339 H363 0.949 . S
H340 C344 0.949 . S
C341 C342 1.349 . S
C341 C343 1.327 . S
C341 H364 0.950 . S
C342 C341 1.349 . S
C342 C354 1.349 . S
C343 C341 1.327 . S
C343 C359 1.429 . S
C343 H365 0.950 . S
C344 H340 0.949 . S
C344 C352 1.574 . S
C344 C360 1.368 . S
H345 C353 0.950 . S
H346 C351 0.950 . S
H347 C352 0.949 . S
H348 C354 0.950 . S
H349 C355 0.950 . S
H350 C356 0.949 . S
C351 H346 0.950 . S
C351 C353 1.327 . S
C351 C357 1.429 . S
C352 C344 1.574 . S
C352 H347 0.949 . S
C352 C358 1.368 . S
C353 C337 1.349 . S
C353 H345 0.950 . S
C353 C351 1.327 . S
C354 C342 1.349 . S
C354 H348 0.950 . S
C354 C355 1.327 . S
C355 H349 0.950 . S
C355 C354 1.327 . S
C355 C359 1.429 . S
C356 C339 1.574 . S
C356 H350 0.949 . S
C356 C360 1.368 . S
C357 C338 1.429 . S
C357 C351 1.429 . S
C357 C358 1.523 . S
C358 C339 1.368 . S
C358 C352 1.368 . S
C358 C357 1.523 . S
C359 C343 1.429 . S
C359 C355 1.429 . S
C359 C360 1.523 . S
C360 C344 1.368 . S
C360 C356 1.368 . S
C360 C359 1.523 . S
H361 C336 0.950 . S
H362 C338 0.950 . S
H363 C339 0.949 . S
H364 C341 0.950 . S
H365 C343 0.950 . S
C366 C367 1.349 . S
C366 C368 1.327 . S
C366 H391 0.950 . S
C367 C366 1.349 . S
C367 C383 1.349 . S
C368 C366 1.327 . S
C368 C387 1.429 . S
C368 H392 0.950 . S
C369 C386 1.574 . S
C369 C388 1.368 . S
C369 H393 0.949 . S
H370 C374 0.949 . S
C371 C372 1.349 . S
C371 C373 1.327 . S
C371 H394 0.950 . S
C372 C371 1.349 . S
C372 C384 1.349 . S
C373 C371 1.327 . S
C373 C389 1.429 . S
C373 H395 0.950 . S
C374 H370 0.949 . S
C374 C382 1.574 . S
C374 C390 1.368 . S
H375 C383 0.950 . S
H376 C381 0.950 . S
H377 C382 0.949 . S
H378 C384 0.950 . S
H379 C385 0.950 . S
H380 C386 0.949 . S
C381 H376 0.950 . S
C381 C383 1.327 . S
C381 C387 1.429 . S
C382 C374 1.574 . S
C382 H377 0.949 . S
C382 C388 1.368 . S
C383 C367 1.349 . S
C383 H375 0.950 . S
C383 C381 1.327 . S
C384 C372 1.349 . S
C384 H378 0.950 . S
C384 C385 1.327 . S
C385 H379 0.950 . S
C385 C384 1.327 . S
C385 C389 1.429 . S
C386 C369 1.574 . S
C386 H380 0.949 . S
C386 C390 1.368 . S
C387 C368 1.429 . S
C387 C381 1.429 . S
C387 C388 1.523 . S
C388 C369 1.368 . S
C388 C382 1.368 . S
C388 C387 1.523 . S
C389 C373 1.429 . S
C389 C385 1.429 . S
C389 C390 1.523 . S
C390 C374 1.368 . S
C390 C386 1.368 . S
C390 C389 1.523 . S
H391 C366 0.950 . S
H392 C368 0.950 . S
H393 C369 0.949 . S
H394 C371 0.950 . S
H395 C373 0.950 . S
C396 C397 1.349 . S
C396 C398 1.327 . S
C396 H421 0.950 . S
C397 C396 1.349 . S
C397 C413 1.349 . S
C398 C396 1.327 . S
C398 C417 1.429 . S
C398 H422 0.950 . S
C399 C416 1.574 . S
C399 C418 1.368 . S
C399 H423 0.949 . S
H400 C404 0.949 . S
C401 C402 1.349 . S
C401 C403 1.327 . S
C401 H424 0.950 . S
C402 C401 1.349 . S
C402 C414 1.349 . S
C403 C401 1.327 . S
C403 C419 1.429 . S
C403 H425 0.950 . S
C404 H400 0.949 . S
C404 C412 1.574 . S
C404 C420 1.368 . S
H405 C413 0.950 . S
H406 C411 0.950 . S
H407 C412 0.949 . S
H408 C414 0.950 . S
H409 C415 0.950 . S
H410 C416 0.949 . S
C411 H406 0.950 . S
C411 C413 1.327 . S
C411 C417 1.429 . S
C412 C404 1.574 . S
C412 H407 0.949 . S
C412 C418 1.368 . S
C413 C397 1.349 . S
C413 H405 0.950 . S
C413 C411 1.327 . S
C414 C402 1.349 . S
C414 H408 0.950 . S
C414 C415 1.327 . S
C415 H409 0.950 . S
C415 C414 1.327 . S
C415 C419 1.429 . S
C416 C399 1.574 . S
C416 H410 0.949 . S
C416 C420 1.368 . S
C417 C398 1.429 . S
C417 C411 1.429 . S
C417 C418 1.523 . S
C418 C399 1.368 . S
C418 C412 1.368 . S
C418 C417 1.523 . S
C419 C403 1.429 . S
C419 C415 1.429 . S
C419 C420 1.523 . S
C420 C404 1.368 . S
C420 C416 1.368 . S
C420 C419 1.523 . S
H421 C396 0.950 . S
H422 C398 0.950 . S
H423 C399 0.949 . S
H424 C401 0.950 . S
H425 C403 0.950 . S
C426 C427 1.349 . S
C426 C428 1.327 . S
C426 H451 0.950 . S
C427 C426 1.349 . S
C427 C443 1.349 . S
C428 C426 1.327 . S
C428 C447 1.429 . S
C428 H452 0.950 . S
C429 C446 1.574 . S
C429 C448 1.368 . S
C429 H453 0.949 . S
H430 C434 0.949 . S
C431 C432 1.349 . S
C431 C433 1.327 . S
C431 H454 0.950 . S
C432 C431 1.349 . S
C432 C444 1.349 . S
C433 C431 1.327 . S
C433 C449 1.429 . S
C433 H455 0.950 . S
C434 H430 0.949 . S
C434 C442 1.574 . S
C434 C450 1.368 . S
H435 C443 0.950 . S
H436 C441 0.950 . S
H437 C442 0.949 . S
H438 C444 0.950 . S
H439 C445 0.950 . S
H440 C446 0.949 . S
C441 H436 0.950 . S
C441 C443 1.327 . S
C441 C447 1.429 . S
C442 C434 1.574 . S
C442 H437 0.949 . S
C442 C448 1.368 . S
C443 C427 1.349 . S
C443 H435 0.950 . S
C443 C441 1.327 . S
C444 C432 1.349 . S
C444 H438 0.950 . S
C444 C445 1.327 . S
C445 H439 0.950 . S
C445 C444 1.327 . S
C445 C449 1.429 . S
C446 C429 1.574 . S
C446 H440 0.949 . S
C446 C450 1.368 . S
C447 C428 1.429 . S
C447 C441 1.429 . S
C447 C448 1.523 . S
C448 C429 1.368 . S
C448 C442 1.368 . S
C448 C447 1.523 . S
C449 C433 1.429 . S
C449 C445 1.429 . S
C449 C450 1.523 . S
C450 C434 1.368 . S
C450 C446 1.368 . S
C450 C449 1.523 . S
H451 C426 0.950 . S
H452 C428 0.950 . S
H453 C429 0.949 . S
H454 C431 0.950 . S
H455 C433 0.950 . S
C456 C457 1.349 . S
C456 C458 1.327 . S
C456 H481 0.950 . S
C457 C456 1.349 . S
C457 C473 1.349 . S
C458 C456 1.327 . S
C458 C477 1.429 . S
C458 H482 0.950 . S
C459 C476 1.574 . S
C459 C478 1.368 . S
C459 H483 0.949 . S
H460 C464 0.949 . S
C461 C462 1.349 . S
C461 C463 1.327 . S
C461 H484 0.950 . S
C462 C461 1.349 . S
C462 C474 1.349 . S
C463 C461 1.327 . S
C463 C479 1.429 . S
C463 H485 0.950 . S
C464 H460 0.949 . S
C464 C472 1.574 . S
C464 C480 1.368 . S
H465 C473 0.950 . S
H466 C471 0.950 . S
H467 C472 0.949 . S
H468 C474 0.950 . S
H469 C475 0.950 . S
H470 C476 0.949 . S
C471 H466 0.950 . S
C471 C473 1.327 . S
C471 C477 1.429 . S
C472 C464 1.574 . S
C472 H467 0.949 . S
C472 C478 1.368 . S
C473 C457 1.349 . S
C473 H465 0.950 . S
C473 C471 1.327 . S
C474 C462 1.349 . S
C474 H468 0.950 . S
C474 C475 1.327 . S
C475 H469 0.950 . S
C475 C474 1.327 . S
C475 C479 1.429 . S
C476 C459 1.574 . S
C476 H470 0.949 . S
C476 C480 1.368 . S
C477 C458 1.429 . S
C477 C471 1.429 . S
C477 C478 1.523 . S
C478 C459 1.368 . S
C478 C472 1.368 . S
C478 C477 1.523 . S
C479 C463 1.429 . S
C479 C475 1.429 . S
C479 C480 1.523 . S
C480 C464 1.368 . S
C480 C476 1.368 . S
C480 C479 1.523 . S
H481 C456 0.950 . S
H482 C458 0.950 . S
H483 C459 0.949 . S
H484 C461 0.950 . S
H485 C463 0.950 . S
C486 C487 1.349 . S
C486 C488 1.327 . S
C486 H511 0.950 . S
C487 C486 1.349 . S
C487 C503 1.349 . S
C488 C486 1.327 . S
C488 C507 1.429 . S
C488 H512 0.950 . S
C489 C506 1.574 . S
C489 C508 1.368 . S
C489 H513 0.949 . S
H490 C494 0.949 . S
C491 C492 1.349 . S
C491 C493 1.327 . S
C491 H514 0.950 . S
C492 C491 1.349 . S
C492 C504 1.349 . S
C493 C491 1.327 . S
C493 C509 1.429 . S
C493 H515 0.950 . S
C494 H490 0.949 . S
C494 C502 1.574 . S
C494 C510 1.368 . S
H495 C503 0.950 . S
H496 C501 0.950 . S
H497 C502 0.949 . S
H498 C504 0.950 . S
H499 C505 0.950 . S
H500 C506 0.949 . S
C501 H496 0.950 . S
C501 C503 1.327 . S
C501 C507 1.429 . S
C502 C494 1.574 . S
C502 H497 0.949 . S
C502 C508 1.368 . S
C503 C487 1.349 . S
C503 H495 0.950 . S
C503 C501 1.327 . S
C504 C492 1.349 . S
C504 H498 0.950 . S
C504 C505 1.327 . S
C505 H499 0.950 . S
C505 C504 1.327 . S
C505 C509 1.429 . S
C506 C489 1.574 . S
C506 H500 0.949 . S
C506 C510 1.368 . S
C507 C488 1.429 . S
C507 C501 1.429 . S
C507 C508 1.523 . S
C508 C489 1.368 . S
C508 C502 1.368 . S
C508 C507 1.523 . S
C509 C493 1.429 . S
C509 C505 1.429 . S
C509 C510 1.523 . S
C510 C494 1.368 . S
C510 C506 1.368 . S
C510 C509 1.523 . S
H511 C486 0.950 . S
H512 C488 0.950 . S
H513 C489 0.949 . S
H514 C491 0.950 . S
H515 C493 0.950 . S
C516 C517 1.349 . S
C516 C518 1.327 1_554 S
C516 H541 0.950 . S
C517 C516 1.349 . S
C517 C533 1.349 1_554 S
C518 C516 1.327 1_556 S
C518 C537 1.429 . S
C518 H542 0.950 . S
C519 C536 1.574 . S
C519 C538 1.368 . S
C519 H543 0.949 . S
H520 C524 0.949 . S
C521 C522 1.349 . S
C521 C523 1.327 . S
C521 H544 0.950 . S
C522 C521 1.349 . S
C522 C534 1.349 . S
C523 C521 1.327 . S
C523 C539 1.429 . S
C523 H545 0.950 . S
C524 H520 0.949 . S
C524 C532 1.574 . S
C524 C540 1.368 . S
H525 C533 0.952 . S
H526 C531 0.950 . S
H527 C532 0.949 . S
H528 C534 0.950 . S
H529 C535 0.950 . S
H530 C536 0.949 . S
C531 H526 0.950 . S
C531 C533 1.327 . S
C531 C537 1.429 . S
C532 C524 1.574 . S
C532 H527 0.949 . S
C532 C538 1.368 . S
C533 C517 1.349 1_556 S
C533 H525 0.952 . S
C533 C531 1.327 . S
C534 C522 1.349 . S
C534 H528 0.950 . S
C534 C535 1.327 . S
C535 H529 0.950 . S
C535 C534 1.327 . S
C535 C539 1.429 . S
C536 C519 1.574 . S
C536 H530 0.949 . S
C536 C540 1.368 . S
C537 C518 1.429 . S
C537 C531 1.429 . S
C537 C538 1.523 . S
C538 C519 1.368 . S
C538 C532 1.368 . S
C538 C537 1.523 . S
C539 C523 1.429 . S
C539 C535 1.429 . S
C539 C540 1.523 . S
C540 C524 1.368 . S
C540 C536 1.368 . S
C540 C539 1.523 . S
H541 C516 0.950 . S
H542 C518 0.950 . S
H543 C519 0.949 . S
H544 C521 0.950 . S
H545 C523 0.950 . S
C546 C547 1.349 . S
C546 C548 1.327 . S
C546 H571 0.950 . S
C547 C546 1.349 . S
C547 C563 1.349 . S
C548 C546 1.327 . S
C548 C567 1.429 . S
C548 H572 0.950 . S
C549 C566 1.574 . S
C549 C568 1.368 . S
C549 H573 0.949 . S
H550 C554 0.949 . S
C551 C552 1.349 1_554 S
C551 C553 1.327 . S
C551 H574 0.949 1_554 S
C552 C551 1.349 1_556 S
C552 C564 1.349 . S
C553 C551 1.327 . S
C553 C569 1.429 . S
C553 H575 0.950 . S
C554 H550 0.949 . S
C554 C562 1.574 . S
C554 C570 1.368 . S
H555 C563 0.950 . S
H556 C561 0.950 . S
H557 C562 0.949 . S
H558 C564 0.950 . S
H559 C565 0.950 . S
H560 C566 0.949 . S
C561 H556 0.950 . S
C561 C563 1.327 . S
C561 C567 1.429 . S
C562 C554 1.574 . S
C562 H557 0.949 . S
C562 C568 1.368 . S
C563 C547 1.349 . S
C563 H555 0.950 . S
C563 C561 1.327 . S
C564 C552 1.349 . S
C564 H558 0.950 . S
C564 C565 1.327 1_556 S
C565 H559 0.950 . S
C565 C564 1.327 1_554 S
C565 C569 1.429 . S
C566 C549 1.574 . S
C566 H560 0.949 . S
C566 C570 1.368 . S
C567 C548 1.429 . S
C567 C561 1.429 . S
C567 C568 1.523 . S
C568 C549 1.368 . S
C568 C562 1.368 . S
C568 C567 1.523 . S
C569 C553 1.429 . S
C569 C565 1.429 . S
C569 C570 1.523 . S
C570 C554 1.368 . S
C570 C566 1.368 . S
C570 C569 1.523 . S
H571 C546 0.950 . S
H572 C548 0.950 . S
H573 C549 0.949 . S
H574 C551 0.949 1_556 S
H575 C553 0.950 . S
C576 C577 1.349 . S
C576 C578 1.327 . S
C576 H601 0.950 . S
C577 C576 1.349 . S
C577 C593 1.349 . S
C578 C576 1.327 . S
C578 C597 1.429 . S
C578 H602 0.950 . S
C579 C596 1.574 . S
C579 C598 1.368 . S
C579 H603 0.949 . S
H580 C584 0.949 . S
C581 C582 1.349 . S
C581 C583 1.327 . S
C581 H604 0.950 . S
C582 C581 1.349 . S
C582 C594 1.349 . S
C583 C581 1.327 . S
C583 C599 1.429 . S
C583 H605 0.950 . S
C584 H580 0.949 . S
C584 C592 1.574 . S
C584 C600 1.368 . S
H585 C593 0.950 . S
H586 C591 0.950 . S
H587 C592 0.949 . S
H588 C594 0.950 . S
H589 C595 0.950 . S
H590 C596 0.949 . S
C591 H586 0.950 . S
C591 C593 1.327 . S
C591 C597 1.429 . S
C592 C584 1.574 . S
C592 H587 0.949 . S
C592 C598 1.368 . S
C593 C577 1.349 . S
C593 H585 0.950 . S
C593 C591 1.327 . S
C594 C582 1.349 . S
C594 H588 0.950 . S
C594 C595 1.327 . S
C595 H589 0.950 . S
C595 C594 1.327 . S
C595 C599 1.429 . S
C596 C579 1.574 . S
C596 H590 0.949 . S
C596 C600 1.368 . S
C597 C578 1.429 . S
C597 C591 1.429 . S
C597 C598 1.523 . S
C598 C579 1.368 . S
C598 C592 1.368 . S
C598 C597 1.523 . S
C599 C583 1.429 . S
C599 C595 1.429 . S
C599 C600 1.523 . S
C600 C584 1.368 . S
C600 C596 1.368 . S
C600 C599 1.523 . S
H601 C576 0.950 . S
H602 C578 0.950 . S
H603 C579 0.949 . S
H604 C581 0.950 . S
H605 C583 0.950 . S
C606 C607 1.349 . S
C606 C608 1.327 . S
C606 H631 0.950 . S
C607 C606 1.349 . S
C607 C623 1.349 . S
C608 C606 1.327 . S
C608 C627 1.429 . S
C608 H632 0.950 . S
C609 C626 1.574 . S
C609 C628 1.368 . S
C609 H633 0.949 . S
H610 C614 0.949 . S
C611 C612 1.349 . S
C611 C613 1.327 . S
C611 H634 0.950 . S
C612 C611 1.349 . S
C612 C624 1.349 . S
C613 C611 1.327 . S
C613 C629 1.429 . S
C613 H635 0.950 . S
C614 H610 0.949 . S
C614 C622 1.574 . S
C614 C630 1.368 . S
H615 C623 0.950 . S
H616 C621 0.950 . S
H617 C622 0.949 . S
H618 C624 0.950 . S
H619 C625 0.950 . S
H620 C626 0.949 . S
C621 H616 0.950 . S
C621 C623 1.327 . S
C621 C627 1.429 . S
C622 C614 1.574 . S
C622 H617 0.949 . S
C622 C628 1.368 . S
C623 C607 1.349 . S
C623 H615 0.950 . S
C623 C621 1.327 . S
C624 C612 1.349 . S
C624 H618 0.950 . S
C624 C625 1.327 . S
C625 H619 0.950 . S
C625 C624 1.327 . S
C625 C629 1.429 . S
C626 C609 1.574 . S
C626 H620 0.949 . S
C626 C630 1.368 . S
C627 C608 1.429 . S
C627 C621 1.429 . S
C627 C628 1.523 . S
C628 C609 1.368 . S
C628 C622 1.368 . S
C628 C627 1.523 . S
C629 C613 1.429 . S
C629 C625 1.429 . S
C629 C630 1.523 . S
C630 C614 1.368 . S
C630 C626 1.368 . S
C630 C629 1.523 . S
H631 C606 0.950 . S
H632 C608 0.950 . S
H633 C609 0.949 . S
H634 C611 0.950 . S
H635 C613 0.950 . S
C636 C637 1.349 . S
C636 C638 1.327 . S
C636 H661 0.950 . S
C637 C636 1.349 . S
C637 C653 1.349 . S
C638 C636 1.327 . S
C638 C657 1.429 . S
C638 H662 0.950 . S
C639 C656 1.574 1_655 S
C639 C658 1.368 . S
C639 H663 0.949 . S
H640 C644 0.949 . S
C641 C642 1.349 . S
C641 C643 1.327 . S
C641 H664 0.950 . S
C642 C641 1.349 . S
C642 C654 1.349 . S
C643 C641 1.327 . S
C643 C659 1.429 . S
C643 H665 0.950 . S
C644 H640 0.949 . S
C644 C652 1.574 1_455 S
C644 C660 1.368 . S
H645 C653 0.950 . S
H646 C651 0.950 . S
H647 C652 0.949 . S
H648 C654 0.950 . S
H649 C655 0.950 . S
H650 C656 0.949 . S
C651 H646 0.950 . S
C651 C653 1.327 . S
C651 C657 1.429 . S
C652 C644 1.574 1_655 S
C652 H647 0.949 . S
C652 C658 1.368 . S
C653 C637 1.349 . S
C653 H645 0.950 . S
C653 C651 1.327 . S
C654 C642 1.349 . S
C654 H648 0.950 . S
C654 C655 1.327 . S
C655 H649 0.950 . S
C655 C654 1.327 . S
C655 C659 1.429 . S
C656 C639 1.574 1_455 S
C656 H650 0.949 . S
C656 C660 1.368 . S
C657 C638 1.429 . S
C657 C651 1.429 . S
C657 C658 1.523 . S
C658 C639 1.368 . S
C658 C652 1.368 . S
C658 C657 1.523 . S
C659 C643 1.429 . S
C659 C655 1.429 . S
C659 C660 1.523 . S
C660 C644 1.368 . S
C660 C656 1.368 . S
C660 C659 1.523 . S
H661 C636 0.950 . S
H662 C638 0.950 . S
H663 C639 0.949 . S
H664 C641 0.950 . S
H665 C643 0.950 . S
C666 C667 1.349 . S
C666 C668 1.327 . S
C666 H691 0.950 . S
C667 C666 1.349 . S
C667 C683 1.349 . S
C668 C666 1.327 . S
C668 C687 1.429 . S
C668 H692 0.950 . S
C669 C686 1.574 1_565 S
C669 C688 1.368 . S
C669 H693 0.949 . S
H670 C674 0.949 . S
C671 C672 1.349 . S
C671 C673 1.327 . S
C671 H694 0.950 . S
C672 C671 1.349 . S
C672 C684 1.349 . S
C673 C671 1.327 . S
C673 C689 1.429 . S
C673 H695 0.950 . S
C674 H670 0.949 . S
C674 C682 1.574 1_545 S
C674 C690 1.368 . S
H675 C683 0.950 . S
H676 C681 0.950 . S
H677 C682 0.949 . S
H678 C684 0.950 . S
H679 C685 0.950 . S
H680 C686 0.949 . S
C681 H676 0.950 . S
C681 C683 1.327 . S
C681 C687 1.429 . S
C682 C674 1.574 1_565 S
C682 H677 0.949 . S
C682 C688 1.368 . S
C683 C667 1.349 . S
C683 H675 0.950 . S
C683 C681 1.327 . S
C684 C672 1.349 . S
C684 H678 0.950 . S
C684 C685 1.327 . S
C685 H679 0.950 . S
C685 C684 1.327 . S
C685 C689 1.429 . S
C686 C669 1.574 1_545 S
C686 H680 0.949 . S
C686 C690 1.368 . S
C687 C668 1.429 . S
C687 C681 1.429 . S
C687 C688 1.523 . S
C688 C669 1.368 . S
C688 C682 1.368 . S
C688 C687 1.523 . S
C689 C673 1.429 . S
C689 C685 1.429 . S
C689 C690 1.523 . S
C690 C674 1.368 . S
C690 C686 1.368 . S
C690 C689 1.523 . S
H691 C666 0.950 . S
H692 C668 0.950 . S
H693 C669 0.949 . S
H694 C671 0.950 . S
H695 C673 0.950 . S
C696 C697 1.349 . S
C696 C698 1.327 . S
C696 H721 0.950 . S
C697 C696 1.349 . S
C697 C713 1.349 . S
C698 C696 1.327 . S
C698 C717 1.429 . S
C698 H722 0.950 . S
C699 C716 1.574 . S
C699 C718 1.368 . S
C699 H723 0.949 . S
H700 C704 0.949 . S
C701 C702 1.349 . S
C701 C703 1.327 . S
C701 H724 0.950 . S
C702 C701 1.349 . S
C702 C714 1.349 . S
C703 C701 1.327 . S
C703 C719 1.429 . S
C703 H725 0.950 . S
C704 H700 0.949 . S
C704 C712 1.574 . S
C704 C720 1.368 . S
H705 C713 0.950 . S
H706 C711 0.950 . S
H707 C712 0.949 . S
H708 C714 0.950 . S
H709 C715 0.950 . S
H710 C716 0.949 . S
C711 H706 0.950 . S
C711 C713 1.327 . S
C711 C717 1.429 . S
C712 C704 1.574 . S
C712 H707 0.949 . S
C712 C718 1.368 . S
C713 C697 1.349 . S
C713 H705 0.950 . S
C713 C711 1.327 . S
C714 C702 1.349 . S
C714 H708 0.950 . S
C714 C715 1.327 . S
C715 H709 0.950 . S
C715 C714 1.327 . S
C715 C719 1.429 . S
C716 C699 1.574 . S
C716 H710 0.949 . S
C716 C720 1.368 . S
C717 C698 1.429 . S
C717 C711 1.429 . S
C717 C718 1.523 . S
C718 C699 1.368 . S
C718 C712 1.368 . S
C718 C717 1.523 . S
C719 C703 1.429 . S
C719 C715 1.429 . S
C719 C720 1.523 . S
C720 C704 1.368 . S
C720 C716 1.368 . S
C720 C719 1.523 . S
H721 C696 0.950 . S
H722 C698 0.950 . S
H723 C699 0.949 . S
H724 C701 0.950 . S
H725 C703 0.950 . S
C726 C727 1.349 . S
C726 C728 1.327 . S
C726 H751 0.950 . S
C727 C726 1.349 . S
C727 C743 1.349 . S
C728 C726 1.327 . S
C728 C747 1.429 . S
C728 H752 0.950 . S
C729 C746 1.574 1_455 S
C729 C748 1.368 . S
C729 H753 0.949 . S
H730 C734 0.949 . S
C731 C732 1.349 . S
C731 C733 1.327 . S
C731 H754 0.950 . S
C732 C731 1.349 . S
C732 C744 1.349 . S
C733 C731 1.327 . S
C733 C749 1.429 . S
C733 H755 0.950 . S
C734 H730 0.949 . S
C734 C742 1.574 1_655 S
C734 C750 1.368 . S
H735 C743 0.950 . S
H736 C741 0.950 . S
H737 C742 0.949 . S
H738 C744 0.950 . S
H739 C745 0.950 . S
H740 C746 0.949 . S
C741 H736 0.950 . S
C741 C743 1.327 . S
C741 C747 1.429 . S
C742 C734 1.574 1_455 S
C742 H737 0.949 . S
C742 C748 1.368 . S
C743 C727 1.349 . S
C743 H735 0.950 . S
C743 C741 1.327 . S
C744 C732 1.349 . S
C744 H738 0.950 . S
C744 C745 1.327 . S
C745 H739 0.950 . S
C745 C744 1.327 . S
C745 C749 1.429 . S
C746 C729 1.574 1_655 S
C746 H740 0.949 . S
C746 C750 1.368 . S
C747 C728 1.429 . S
C747 C741 1.429 . S
C747 C748 1.523 . S
C748 C729 1.368 . S
C748 C742 1.368 . S
C748 C747 1.523 . S
C749 C733 1.429 . S
C749 C745 1.429 . S
C749 C750 1.523 . S
C750 C734 1.368 . S
C750 C746 1.368 . S
C750 C749 1.523 . S
H751 C726 0.950 . S
H752 C728 0.950 . S
H753 C729 0.949 . S
H754 C731 0.950 . S
H755 C733 0.950 . S
C756 C757 1.349 . S
C756 C758 1.327 . S
C756 H781 0.950 . S
C757 C756 1.349 . S
C757 C773 1.349 . S
C758 C756 1.327 . S
C758 C777 1.429 . S
C758 H782 0.950 . S
C759 C776 1.574 1_545 S
C759 C778 1.368 1_554 S
C759 H783 0.949 . S
H760 C764 0.949 . S
C761 C762 1.349 . S
C761 C763 1.327 . S
C761 H784 0.950 . S
C762 C761 1.349 . S
C762 C774 1.349 . S
C763 C761 1.327 . S
C763 C779 1.429 . S
C763 H785 0.950 . S
C764 H760 0.949 . S
C764 C772 1.574 1_565 S
C764 C780 1.368 1_556 S
H765 C773 0.950 . S
H766 C771 0.950 1_554 S
H767 C772 0.949 . S
H768 C774 0.950 . S
H769 C775 0.950 1_556 S
H770 C776 0.949 . S
C771 H766 0.950 1_556 S
C771 C773 1.327 . S
C771 C777 1.429 . S
C772 C764 1.574 1_545 S
C772 H767 0.949 . S
C772 C778 1.368 . S
C773 C757 1.349 . S
C773 H765 0.950 . S
C773 C771 1.327 . S
C774 C762 1.349 . S
C774 H768 0.950 . S
C774 C775 1.327 . S
C775 H769 0.950 1_554 S
C775 C774 1.327 . S
C775 C779 1.429 . S
C776 C759 1.574 1_565 S
C776 H770 0.949 . S
C776 C780 1.368 . S
C777 C758 1.429 . S
C777 C771 1.429 . S
C777 C778 1.523 . S
C778 C759 1.368 1_556 S
C778 C772 1.368 . S
C778 C777 1.523 . S
C779 C763 1.429 . S
C779 C775 1.429 . S
C779 C780 1.523 . S
C780 C764 1.368 1_554 S
C780 C776 1.368 . S
C780 C779 1.523 . S
H781 C756 0.950 . S
H782 C758 0.950 . S
H783 C759 0.949 . S
H784 C761 0.950 . S
H785 C763 0.950 . S
C786 C787 1.349 . S
C786 C788 1.327 . S
C786 H811 0.950 . S
C787 C786 1.349 . S
C787 C803 1.349 . S
C788 C786 1.327 . S
C788 C807 1.429 . S
C788 H812 0.950 . S
C789 C806 1.574 . S
C789 C808 1.368 . S
C789 H813 0.949 . S
H790 C794 0.949 . S
C791 C792 1.349 . S
C791 C793 1.327 . S
C791 H814 0.950 . S
C792 C791 1.349 . S
C792 C804 1.349 . S
C793 C791 1.327 . S
C793 C809 1.429 . S
C793 H815 0.950 . S
C794 H790 0.949 . S
C794 C802 1.574 . S
C794 C810 1.368 . S
H795 C803 0.950 . S
H796 C801 0.950 . S
H797 C802 0.949 . S
H798 C804 0.950 . S
H799 C805 0.950 . S
H800 C806 0.949 . S
C801 H796 0.950 . S
C801 C803 1.327 . S
C801 C807 1.429 . S
C802 C794 1.574 . S
C802 H797 0.949 . S
C802 C808 1.368 . S
C803 C787 1.349 . S
C803 H795 0.950 . S
C803 C801 1.327 . S
C804 C792 1.349 . S
C804 H798 0.950 . S
C804 C805 1.327 . S
C805 H799 0.950 . S
C805 C804 1.327 . S
C805 C809 1.429 . S
C806 C789 1.574 . S
C806 H800 0.949 . S
C806 C810 1.368 . S
C807 C788 1.429 . S
C807 C801 1.429 . S
C807 C808 1.523 . S
C808 C789 1.368 . S
C808 C802 1.368 . S
C808 C807 1.523 . S
C809 C793 1.429 . S
C809 C805 1.429 . S
C809 C810 1.523 . S
C810 C794 1.368 . S
C810 C806 1.368 . S
C810 C809 1.523 . S
H811 C786 0.950 . S
H812 C788 0.950 . S
H813 C789 0.949 . S
H814 C791 0.950 . S
H815 C793 0.950 . S
C816 C817 1.349 . S
C816 C818 1.327 . S
C816 H841 0.950 . S
C817 C816 1.349 . S
C817 C833 1.349 . S
C818 C816 1.327 . S
C818 C837 1.429 . S
C818 H842 0.950 . S
C819 C836 1.574 . S
C819 C838 1.368 . S
C819 H843 0.949 . S
H820 C824 0.949 . S
C821 C822 1.349 . S
C821 C823 1.327 . S
C821 H844 0.950 . S
C822 C821 1.349 . S
C822 C834 1.349 . S
C823 C821 1.327 . S
C823 C839 1.429 . S
C823 H845 0.950 . S
C824 H820 0.949 . S
C824 C832 1.574 . S
C824 C840 1.368 . S
H825 C833 0.950 . S
H826 C831 0.950 . S
H827 C832 0.949 . S
H828 C834 0.950 . S
H829 C835 0.950 . S
H830 C836 0.949 . S
C831 H826 0.950 . S
C831 C833 1.327 . S
C831 C837 1.429 . S
C832 C824 1.574 . S
C832 H827 0.949 . S
C832 C838 1.368 . S
C833 C817 1.349 . S
C833 H825 0.950 . S
C833 C831 1.327 . S
C834 C822 1.349 . S
C834 H828 0.950 . S
C834 C835 1.327 . S
C835 H829 0.950 . S
C835 C834 1.327 . S
C835 C839 1.429 . S
C836 C819 1.574 . S
C836 H830 0.949 . S
C836 C840 1.368 . S
C837 C818 1.429 . S
C837 C831 1.429 . S
C837 C838 1.523 . S
C838 C819 1.368 . S
C838 C832 1.368 . S
C838 C837 1.523 . S
C839 C823 1.429 . S
C839 C835 1.429 . S
C839 C840 1.523 . S
C840 C824 1.368 . S
C840 C836 1.368 . S
C840 C839 1.523 . S
H841 C816 0.950 . S
H842 C818 0.950 . S
H843 C819 0.949 . S
H844 C821 0.950 . S
H845 C823 0.950 . S
C846 C847 1.349 . S
C846 C848 1.327 . S
C846 H871 0.950 . S
C847 C846 1.349 . S
C847 C863 1.349 . S
C848 C846 1.327 . S
C848 C867 1.429 . S
C848 H872 0.950 . S
C849 C866 1.574 . S
C849 C868 1.368 . S
C849 H873 0.949 . S
H850 C854 0.949 . S
C851 C852 1.349 . S
C851 C853 1.327 . S
C851 H874 0.950 . S
C852 C851 1.349 . S
C852 C864 1.349 . S
C853 C851 1.327 . S
C853 C869 1.429 . S
C853 H875 0.950 . S
C854 H850 0.949 . S
C854 C862 1.574 . S
C854 C870 1.368 . S
H855 C863 0.950 . S
H856 C861 0.950 . S
H857 C862 0.949 . S
H858 C864 0.950 . S
H859 C865 0.950 . S
H860 C866 0.949 . S
C861 H856 0.950 . S
C861 C863 1.327 . S
C861 C867 1.429 . S
C862 C854 1.574 . S
C862 H857 0.949 . S
C862 C868 1.368 . S
C863 C847 1.349 . S
C863 H855 0.950 . S
C863 C861 1.327 . S
C864 C852 1.349 . S
C864 H858 0.950 . S
C864 C865 1.327 . S
C865 H859 0.950 . S
C865 C864 1.327 . S
C865 C869 1.429 . S
C866 C849 1.574 . S
C866 H860 0.949 . S
C866 C870 1.368 . S
C867 C848 1.429 . S
C867 C861 1.429 . S
C867 C868 1.523 . S
C868 C849 1.368 . S
C868 C862 1.368 . S
C868 C867 1.523 . S
C869 C853 1.429 . S
C869 C865 1.429 . S
C869 C870 1.523 . S
C870 C854 1.368 . S
C870 C866 1.368 . S
C870 C869 1.523 . S
H871 C846 0.950 . S
H872 C848 0.950 . S
H873 C849 0.949 . S
H874 C851 0.950 . S
H875 C853 0.950 . S
C876 C877 1.349 . S
C876 C878 1.327 . S
C876 H901 0.950 . S
C877 C876 1.349 . S
C877 C893 1.349 . S
C878 C876 1.327 . S
C878 C897 1.429 . S
C878 H902 0.950 . S
C879 C896 1.574 . S
C879 C898 1.368 . S
C879 H903 0.949 . S
H880 C884 0.949 . S
C881 C882 1.349 . S
C881 C883 1.327 . S
C881 H904 0.950 . S
C882 C881 1.349 . S
C882 C894 1.349 . S
C883 C881 1.327 . S
C883 C899 1.429 . S
C883 H905 0.950 . S
C884 H880 0.949 . S
C884 C892 1.574 . S
C884 C900 1.368 . S
H885 C893 0.950 . S
H886 C891 0.950 . S
H887 C892 0.949 . S
H888 C894 0.950 . S
H889 C895 0.950 . S
H890 C896 0.949 . S
C891 H886 0.950 . S
C891 C893 1.327 . S
C891 C897 1.429 . S
C892 C884 1.574 . S
C892 H887 0.949 . S
C892 C898 1.368 . S
C893 C877 1.349 . S
C893 H885 0.950 . S
C893 C891 1.327 . S
C894 C882 1.349 . S
C894 H888 0.950 . S
C894 C895 1.327 . S
C895 H889 0.950 . S
C895 C894 1.327 . S
C895 C899 1.429 . S
C896 C879 1.574 . S
C896 H890 0.949 . S
C896 C900 1.368 . S
C897 C878 1.429 . S
C897 C891 1.429 . S
C897 C898 1.523 . S
C898 C879 1.368 . S
C898 C892 1.368 . S
C898 C897 1.523 . S
C899 C883 1.429 . S
C899 C895 1.429 . S
C899 C900 1.523 . S
C900 C884 1.368 . S
C900 C896 1.368 . S
C900 C899 1.523 . S
H901 C876 0.950 . S
H902 C878 0.950 . S
H903 C879 0.949 . S
H904 C881 0.950 . S
H905 C883 0.950 . S
C906 C907 1.349 . S
C906 C908 1.327 . S
C906 H931 0.950 . S
C907 C906 1.349 . S
C907 C923 1.349 . S
C908 C906 1.327 . S
C908 C927 1.429 . S
C908 H932 0.950 . S
C909 C926 1.574 . S
C909 C928 1.368 . S
C909 H933 0.949 . S
H910 C914 0.949 . S
C911 C912 1.349 . S
C911 C913 1.327 . S
C911 H934 0.950 . S
C912 C911 1.349 . S
C912 C924 1.349 . S
C913 C911 1.327 . S
C913 C929 1.429 . S
C913 H935 0.950 . S
C914 H910 0.949 . S
C914 C922 1.574 . S
C914 C930 1.368 . S
H915 C923 0.950 . S
H916 C921 0.950 . S
H917 C922 0.949 . S
H918 C924 0.950 . S
H919 C925 0.950 . S
H920 C926 0.949 . S
C921 H916 0.950 . S
C921 C923 1.327 . S
C921 C927 1.429 . S
C922 C914 1.574 . S
C922 H917 0.949 . S
C922 C928 1.368 . S
C923 C907 1.349 . S
C923 H915 0.950 . S
C923 C921 1.327 . S
C924 C912 1.349 . S
C924 H918 0.950 . S
C924 C925 1.327 . S
C925 H919 0.950 . S
C925 C924 1.327 . S
C925 C929 1.429 . S
C926 C909 1.574 . S
C926 H920 0.949 . S
C926 C930 1.368 . S
C927 C908 1.429 . S
C927 C921 1.429 . S
C927 C928 1.523 . S
C928 C909 1.368 . S
C928 C922 1.368 . S
C928 C927 1.523 . S
C929 C913 1.429 . S
C929 C925 1.429 . S
C929 C930 1.523 . S
C930 C914 1.368 . S
C930 C926 1.368 . S
C930 C929 1.523 . S
H931 C906 0.950 . S
H932 C908 0.950 . S
H933 C909 0.949 . S
H934 C911 0.950 . S
H935 C913 0.950 . S
C936 C937 1.361 . S
C936 C938 1.327 . S
C936 H961 0.950 . S
C937 C936 1.361 . S
C937 C953 1.348 1_556 S
C938 C936 1.327 . S
C938 C957 1.429 . S
C938 H962 0.950 . S
C939 C956 1.574 . S
C939 C958 1.368 . S
C939 H963 0.949 . S
H940 C944 0.949 . S
C941 C942 1.349 . S
C941 C943 1.327 . S
C941 H964 0.950 . S
C942 C941 1.349 . S
C942 C954 1.349 . S
C943 C941 1.327 . S
C943 C959 1.429 . S
C943 H965 0.950 . S
C944 H940 0.949 . S
C944 C952 1.574 . S
C944 C960 1.368 . S
H945 C953 0.950 . S
H946 C951 0.950 . S
H947 C952 0.949 . S
H948 C954 0.950 . S
H949 C955 0.950 . S
H950 C956 0.949 . S
C951 H946 0.950 . S
C951 C953 1.327 1_556 S
C951 C957 1.429 . S
C952 C944 1.574 . S
C952 H947 0.949 . S
C952 C958 1.368 . S
C953 C937 1.348 1_554 S
C953 H945 0.950 . S
C953 C951 1.327 1_554 S
C954 C942 1.349 . S
C954 H948 0.950 . S
C954 C955 1.327 . S
C955 H949 0.950 . S
C955 C954 1.327 . S
C955 C959 1.429 . S
C956 C939 1.574 . S
C956 H950 0.949 . S
C956 C960 1.368 . S
C957 C938 1.429 . S
C957 C951 1.429 . S
C957 C958 1.523 . S
C958 C939 1.368 . S
C958 C952 1.368 . S
C958 C957 1.523 . S
C959 C943 1.429 . S
C959 C955 1.429 . S
C959 C960 1.523 . S
C960 C944 1.368 . S
C960 C956 1.368 . S
C960 C959 1.523 . S
H961 C936 0.950 . S
H962 C938 0.950 . S
H963 C939 0.949 . S
H964 C941 0.950 . S
H965 C943 0.950 . S
C966 C967 1.349 . S
C966 C968 1.327 . S
C966 H991 0.950 . S
C967 C966 1.349 . S
C967 C983 1.349 . S
C968 C966 1.327 . S
C968 C987 1.429 . S
C968 H992 0.950 . S
C969 C986 1.574 . S
C969 C988 1.368 . S
C969 H993 0.949 . S
H970 C974 0.949 . S
C971 C972 1.350 . S
C971 C973 1.327 . S
C971 H994 0.950 1_554 S
C972 C971 1.350 . S
C972 C984 1.359 . S
C973 C971 1.327 . S
C973 C989 1.429 . S
C973 H995 0.950 . S
C974 H970 0.949 . S
C974 C982 1.574 . S
C974 C990 1.368 . S
H975 C983 0.950 . S
H976 C981 0.950 . S
H977 C982 0.949 . S
H978 C984 0.950 . S
H979 C985 0.950 . S
H980 C986 0.949 . S
C981 H976 0.950 . S
C981 C983 1.327 . S
C981 C987 1.429 . S
C982 C974 1.574 . S
C982 H977 0.949 . S
C982 C988 1.368 . S
C983 C967 1.349 . S
C983 H975 0.950 . S
C983 C981 1.327 . S
C984 C972 1.359 . S
C984 H978 0.950 . S
C984 C985 1.327 . S
C985 H979 0.950 . S
C985 C984 1.327 . S
C985 C989 1.429 . S
C986 C969 1.574 . S
C986 H980 0.949 . S
C986 C990 1.368 . S
C987 C968 1.429 . S
C987 C981 1.429 . S
C987 C988 1.523 . S
C988 C969 1.368 . S
C988 C982 1.368 . S
C988 C987 1.523 . S
C989 C973 1.429 . S
C989 C985 1.429 . S
C989 C990 1.523 . S
C990 C974 1.368 . S
C990 C986 1.368 . S
C990 C989 1.523 . S
H991 C966 0.950 . S
H992 C968 0.950 . S
H993 C969 0.949 . S
H994 C971 0.950 1_556 S
H995 C973 0.950 . S
C277 N2 1.279 . S
C282 N140 1.279 . S
C307 N25 1.279 . S
C312 N163 1.279 . S
C337 N186 1.279 . S
C342 N48 1.279 . S
C367 N71 1.279 . S
C372 N209 1.279 . S
C397 N94 1.279 . S
C402 N232 1.279 . S
C427 N255 1.279 . S
C432 N117 1.279 . S
C457 C191 1.328 . S
C462 C7 1.328 . S
C487 C30 1.328 . S
C492 C214 1.328 . S
C517 C237 1.328 . S
C522 C53 1.328 . S
C547 C260 1.328 . S
C552 C76 1.328 . S
C577 C99 1.328 . S
C582 C145 1.328 . S
C607 C122 1.328 . S
C612 C168 1.328 . S
C637 N265 1.848 . S
C642 N12 1.848 . S
C667 N150 1.848 . S
C672 N35 1.848 . S
C697 N58 1.848 . S
C702 N173 1.848 . S
C727 N196 1.848 . S
C732 N81 1.848 . S
C757 N219 1.848 . S
C762 N104 1.848 . S
C787 N242 1.848 . S
C792 N127 1.848 . S
C817 C16 1.748 . S
C822 C246 1.748 . S
C847 C269 1.749 . S
C852 C39 1.749 . S
C877 C62 1.748 . S
C882 C154 1.748 . S
C907 C85 1.748 . S
C912 C177 1.748 . S
C937 C108 1.737 1_556 S
C942 C200 1.749 . S
C967 C131 1.748 . S
C972 C223 1.736 1_554 S
