# Generated by pormake.
# Topology sni, (6)-cn, num edge types: 1
# Building blocks:
#     Node 0, Type 0, BuildingBlock: MIDCAF_clean_sbu_0, # of connection points: 6
#     Node 1, Type 0, BuildingBlock: MIDCAF_clean_sbu_0, # of connection points: 6
#     Node 2, Type 0, BuildingBlock: MIDCAF_clean_sbu_0, # of connection points: 6
#     Node 3, Type 0, BuildingBlock: MIDCAF_clean_sbu_0, # of connection points: 6
#     Node 4, Type 0, BuildingBlock: MIDCAF_clean_sbu_0, # of connection points: 6
#     Node 5, Type 0, BuildingBlock: MIDCAF_clean_sbu_0, # of connection points: 6
#     Node 6, Type 0, BuildingBlock: MIDCAF_clean_sbu_0, # of connection points: 6
#     Node 7, Type 0, BuildingBlock: MIDCAF_clean_sbu_0, # of connection points: 6
#     Edge 8, Type (0, 0), BuildingBlock: OJICUG_clean_linker_0, # of connection points: 2
#     Edge 9, Type (0, 0), BuildingBlock: OJICUG_clean_linker_0, # of connection points: 2
#     Edge 10, Type (0, 0), BuildingBlock: OJICUG_clean_linker_0, # of connection points: 2
#     Edge 11, Type (0, 0), BuildingBlock: OJICUG_clean_linker_0, # of connection points: 2
#     Edge 12, Type (0, 0), BuildingBlock: OJICUG_clean_linker_0, # of connection points: 2
#     Edge 13, Type (0, 0), BuildingBlock: OJICUG_clean_linker_0, # of connection points: 2
#     Edge 14, Type (0, 0), BuildingBlock: OJICUG_clean_linker_0, # of connection points: 2
#     Edge 15, Type (0, 0), BuildingBlock: OJICUG_clean_linker_0, # of connection points: 2
#     Edge 16, Type (0, 0), BuildingBlock: OJICUG_clean_linker_0, # of connection points: 2
#     Edge 17, Type (0, 0), BuildingBlock: OJICUG_clean_linker_0, # of connection points: 2
#     Edge 18, Type (0, 0), BuildingBlock: OJICUG_clean_linker_0, # of connection points: 2
#     Edge 19, Type (0, 0), BuildingBlock: OJICUG_clean_linker_0, # of connection points: 2
#     Edge 20, Type (0, 0), BuildingBlock: OJICUG_clean_linker_0, # of connection points: 2
#     Edge 21, Type (0, 0), BuildingBlock: OJICUG_clean_linker_0, # of connection points: 2
#     Edge 22, Type (0, 0), BuildingBlock: OJICUG_clean_linker_0, # of connection points: 2
#     Edge 23, Type (0, 0), BuildingBlock: OJICUG_clean_linker_0, # of connection points: 2
#     Edge 24, Type (0, 0), BuildingBlock: OJICUG_clean_linker_0, # of connection points: 2
#     Edge 25, Type (0, 0), BuildingBlock: OJICUG_clean_linker_0, # of connection points: 2
#     Edge 26, Type (0, 0), BuildingBlock: OJICUG_clean_linker_0, # of connection points: 2
#     Edge 27, Type (0, 0), BuildingBlock: OJICUG_clean_linker_0, # of connection points: 2
#     Edge 28, Type (0, 0), BuildingBlock: OJICUG_clean_linker_0, # of connection points: 2
#     Edge 29, Type (0, 0), BuildingBlock: OJICUG_clean_linker_0, # of connection points: 2
#     Edge 30, Type (0, 0), BuildingBlock: OJICUG_clean_linker_0, # of connection points: 2
#     Edge 31, Type (0, 0), BuildingBlock: OJICUG_clean_linker_0, # of connection points: 2
# Relax obj value: 0.345
# Max RMSD: 0.257
# Mean RMSD: 0.257
data_MOF--net-sni--node1-MIDCAF_clean_sbu_0--edge1-OJICUG_clean_linker_0
_symmetry_space_group_name_H-M    P1
_symmetry_Int_Tables_number       1
_symmetry_cell_setting            triclinic
loop_
_symmetry_equiv_pos_as_xyz
'x, y, z'
_cell_length_a     31.006601
_cell_length_b     31.093041
_cell_length_c     12.130345
_cell_angle_alpha  90.24786
_cell_angle_beta   89.594183
_cell_angle_gamma 89.570494
loop_
_atom_site_label
_atom_site_type_symbol
_atom_site_fract_x
_atom_site_fract_y
_atom_site_fract_z
_atom_type_partial_charge
Zn0 Zn 0.5555 0.18969 0.87471 0.0
Zn1 Zn 0.57438 0.1335 0.23453 0.0
Zn2 Zn 0.56176 0.15919 0.0531 0.0
C3 C 0.60695 0.06771 0.12623 0.0
C4 C 0.48714 0.15024 0.22908 0.0
O5 O 0.59212 0.22571 0.03668 0.0
O6 O 0.55981 0.25188 0.89062 0.0
C7 C 0.61098 0.12218 0.84635 0.0
O8 O 0.60167 0.0968 0.05154 0.0
O9 O 0.59133 0.07351 0.22111 0.0
O10 O 0.51747 0.14498 0.29624 0.0
O11 O 0.49572 0.15292 0.12499 0.0
O12 O 0.60384 0.15793 0.80086 0.0
O13 O 0.59557 0.11453 0.94306 0.0
O14 O 0.49116 0.15406 1.00549 0.0
O15 O 0.49903 0.17132 0.83037 0.0
C16 C 0.47531 0.15823 0.90752 0.0
O17 O 0.59562 0.20957 0.14959 0.0
O18 O 0.61912 0.17152 0.29047 0.0
C19 C 0.5853 0.2573 0.96951 0.0
C20 C 0.61754 0.20666 0.2395 0.0
Zn21 Zn 0.88713 0.64324 0.86929 0.0
Zn22 Zn 0.93407 0.6816 0.23827 0.0
Zn23 Zn 0.90711 0.66284 0.04858 0.0
C24 C 0.0066 0.65131 0.13956 0.0
C25 C 0.87093 0.6191 0.26712 0.0
O26 O 0.87195 0.71825 0.97244 0.0
O27 O 0.83712 0.68065 0.84751 0.0
C28 C 0.97106 0.65576 0.84319 0.0
O29 O 0.97958 0.65057 0.05871 0.0
O30 O -0.00559 0.66369 0.23372 0.0
O31 O 0.89453 0.64375 0.32299 0.0
O32 O 0.87236 0.62004 0.16091 0.0
O33 O 0.93834 0.65903 0.78291 0.0
O34 O 0.96639 0.652 0.94854 0.0
O35 O 0.866 0.60277 0.05399 0.0
O36 O 0.8749 0.58193 0.88129 0.0
C37 C 0.86117 0.57437 0.97707 0.0
O38 O 0.88381 0.72994 0.08904 0.0
O39 O 0.92084 0.74353 0.23962 0.0
C40 C 0.84349 0.71604 0.8953 0.0
C41 C 0.89423 0.75588 0.16797 0.0
Zn42 Zn 0.44127 0.76403 0.30275 0.0
Zn43 Zn 0.43321 0.79084 0.77071 0.0
Zn44 Zn 0.41716 0.79826 0.97329 0.0
C45 C 0.5064 0.82756 0.83266 0.0
C46 C 0.36103 0.84451 0.80009 0.0
O47 O 0.37994 0.74024 1.02328 0.0
O48 O 0.42571 0.7374 0.15457 0.0
C49 C 0.49025 0.78764 0.1208 0.0
O50 O 0.48652 0.8193 0.92457 0.0
O51 O 0.48789 0.82012 0.74258 0.0
O52 O 0.37863 0.82074 0.72772 0.0
O53 O 0.37507 0.84417 0.89896 0.0
O54 O 0.46379 0.75849 0.1447 0.0
O55 O 0.48225 0.80968 0.03467 0.0
O56 O 0.38995 0.83071 0.12702 0.0
O57 O 0.40267 0.81752 0.30755 0.0
C58 C 0.384 0.83898 0.23125 0.0
O59 O 0.39873 0.73162 0.91033 0.0
O60 O 0.43523 0.72809 0.75439 0.0
C61 C 0.38758 0.72984 0.12305 0.0
C62 C 0.41176 0.70989 0.82507 0.0
Zn63 Zn 0.06966 0.3257 0.22894 0.0
Zn64 Zn 0.07717 0.31954 0.7031 0.0
Zn65 Zn 0.06386 0.32087 0.04437 0.0
C66 C 0.11309 0.39063 0.85245 0.0
C67 C 0.00499 0.32857 0.88029 0.0
O68 O 0.08557 0.25719 0.11738 0.0
O69 O 0.06309 0.26768 0.28815 0.0
C70 C 0.13665 0.37173 0.15129 0.0
O71 O 0.10076 0.37335 0.94563 0.0
O72 O 0.10572 0.37424 0.75715 0.0
O73 O 0.04269 0.31936 0.84728 0.0
O74 O -0.00064 0.33126 0.9843 0.0
O75 O 0.12923 0.34774 0.23252 0.0
O76 O 0.11136 0.37078 0.06798 0.0
O77 O -0.00257 0.34098 0.1035 0.0
O78 O 0.02214 0.36632 0.25979 0.0
C79 C -0.00887 0.36227 0.1939 0.0
O80 O 0.08591 0.25455 0.99942 0.0
O81 O 0.07992 0.28831 0.84733 0.0
C82 C 0.0795 0.24296 0.21657 0.0
C83 C 0.09081 0.25399 0.89486 0.0
Zn84 Zn 0.74224 0.95523 0.73563 0.0
Zn85 Zn 0.69163 0.83688 0.38538 0.0
Zn86 Zn 0.69193 0.89406 0.50198 0.0
C87 C 0.69099 0.92114 0.27514 0.0
C88 C 0.61692 0.83188 0.43895 0.0
O89 O 0.73314 0.85746 0.61457 0.0
O90 O 0.77629 0.89915 0.71746 0.0
C91 C 0.69084 -0.00958 0.5801 0.0
O92 O 0.71315 0.9294 0.36142 0.0
O93 O 0.67491 0.88379 0.26599 0.0
O94 O 0.64392 0.80146 0.44827 0.0
O95 O 0.62996 0.8703 0.45086 0.0
O96 O 0.73137 -0.01185 0.59033 0.0
O97 O 0.67043 0.95552 0.56233 0.0
O98 O 0.68673 0.91193 0.66701 0.0
O99 O 0.68757 0.93773 0.83178 0.0
C100 C 0.66979 0.91279 0.76307 0.0
O101 O 0.7531 0.8902 0.4004 0.0
O102 O 0.7524 0.81965 0.40032 0.0
C103 C 0.76471 0.86232 0.68223 0.0
C104 C 0.77193 0.8541 0.37887 0.0
Zn105 Zn 0.26338 0.58788 0.2992 0.0
Zn106 Zn 0.21391 0.63012 0.66774 0.0
Zn107 Zn 0.20807 0.59048 0.4974 0.0
C108 C 0.18034 0.55282 0.7241 0.0
C109 C 0.13471 0.64233 0.62355 0.0
O110 O 0.23234 0.65336 0.44183 0.0
O111 O 0.29519 0.62368 0.40385 0.0
C112 C 0.22928 0.51093 0.32805 0.0
O113 O 0.16783 0.56257 0.62686 0.0
O114 O 0.20859 0.57604 0.76848 0.0
O115 O 0.16286 0.66959 0.64933 0.0
O116 O 0.14688 0.60619 0.58191 0.0
O117 O 0.26695 0.52316 0.30456 0.0
O118 O 0.20348 0.53592 0.38224 0.0
O119 O 0.17598 0.57716 0.34286 0.0
O120 O 0.21077 0.61589 0.22078 0.0
C121 C 0.17569 0.60004 0.25517 0.0
O122 O 0.2728 0.58417 0.58545 0.0
O123 O 0.27173 0.65018 0.65472 0.0
C124 C 0.27224 0.65715 0.41515 0.0
C125 C 0.29137 0.61492 0.63904 0.0
Zn126 Zn 0.25056 0.06466 0.34515 0.0
Zn127 Zn 0.23736 0.05215 0.72125 0.0
Zn128 Zn 0.25427 0.06681 0.53665 0.0
C129 C 0.31892 0.09094 0.7212 0.0
C130 C 0.24243 0.97448 0.66204 0.0
O131 O 0.1945 0.10108 0.46924 0.0
O132 O 0.19105 0.07208 0.30383 0.0
C133 C 0.317 0.12046 0.39757 0.0
O134 O 0.30792 0.09936 0.62114 0.0
O135 O 0.29584 0.06611 0.77844 0.0
O136 O 0.21841 -0.00713 0.73182 0.0
O137 O 0.25875 -0.0033 0.58231 0.0
O138 O 0.28937 0.11454 0.32319 0.0
O139 O 0.31141 0.10316 0.49274 0.0
O140 O 0.27152 -0.00052 0.46719 0.0
O141 O 0.27546 0.0119 0.28867 0.0
C142 C 0.28109 0.98665 0.36785 0.0
O143 O 0.19403 0.10553 0.58988 0.0
O144 O 0.19415 0.09228 0.7683 0.0
C145 C 0.17547 0.09737 0.37488 0.0
C146 C 0.17866 0.11245 0.68821 0.0
Zn147 Zn 0.79155 0.34372 0.70245 0.0
Zn148 Zn 0.73425 0.42562 0.42102 0.0
Zn149 Zn 0.76803 0.40079 0.58952 0.0
C150 C 0.82603 0.40755 0.38765 0.0
C151 C 0.76165 0.49588 0.47926 0.0
O152 O 0.72241 0.3875 0.73279 0.0
O153 O 0.73677 0.318 0.7427 0.0
C154 C 0.85845 0.34642 0.6069 0.0
O155 O 0.82563 0.41031 0.49363 0.0
O156 O 0.79052 0.40785 0.33594 0.0
O157 O 0.72498 0.48821 0.43975 0.0
O158 O 0.78157 0.46603 0.53071 0.0
O159 O 0.83716 0.31212 0.61733 0.0
O160 O 0.83793 0.3823 0.59613 0.0
O161 O 0.75916 0.42854 0.75212 0.0
O162 O 0.81318 0.39021 0.81402 0.0
C163 C 0.78978 0.42372 0.82183 0.0
O164 O 0.7267 0.35201 0.51008 0.0
O165 O 0.68365 0.3903 0.40566 0.0
C166 C 0.71366 0.34985 0.77117 0.0
C167 C 0.69417 0.35446 0.44547 0.0
C168 C 0.36508 0.15312 0.25414 0.0
C169 C 0.35913 0.13818 0.36311 0.0
H170 H 0.41018 0.16822 0.12493 0.0
C171 C 0.39533 0.13223 0.42948 0.0
H172 H 0.33775 0.1581 0.20043 0.0
C173 C 0.43653 0.13833 0.38629 0.0
C174 C 0.44273 0.14979 0.2748 0.0
H175 H 0.39219 0.11984 0.51228 0.0
H176 H 0.46366 0.13164 0.43951 0.0
C177 C 0.40654 0.15856 0.2101 0.0
C178 C 0.85208 0.57419 0.43056 0.0
C179 C 0.84157 0.58977 0.32531 0.0
H180 H 0.83469 0.53203 0.56295 0.0
C181 C 0.80246 0.57786 0.27744 0.0
H182 H 0.88206 0.58315 0.46949 0.0
C183 C 0.77475 0.54999 0.33255 0.0
C184 C 0.78615 0.53259 0.43543 0.0
H185 H 0.79331 0.58993 0.19722 0.0
H186 H 0.74544 0.54032 0.29149 0.0
C187 C 0.82487 0.54533 0.48454 0.0
C188 C 0.56298 0.85514 0.29977 0.0
C189 C 0.57788 0.82386 0.37458 0.0
H190 H 0.52421 0.86803 0.15735 0.0
C191 C 0.5619 0.782 0.36824 0.0
H192 H 0.57524 0.88766 0.30196 0.0
C193 C 0.53358 0.77084 0.28491 0.0
C194 C 0.5205 0.80131 0.20634 0.0
H195 H 0.57309 0.75727 0.42412 0.0
H196 H 0.52274 0.73783 0.2803 0.0
C197 C 0.53465 0.84382 0.21546 0.0
C198 C 0.20431 0.39868 0.23338 0.0
C199 C 0.16776 0.4063 0.1679 0.0
H200 H 0.25292 0.42656 0.33628 0.0
C201 C 0.15538 0.44864 0.14444 0.0
H202 H 0.21406 0.36611 0.25339 0.0
C203 C 0.17702 0.48277 0.19322 0.0
C204 C 0.21118 0.47501 0.26594 0.0
H205 H 0.12684 0.45533 0.09622 0.0
H206 H 0.16594 0.51515 0.17729 0.0
C207 C 0.22619 0.43298 0.28158 0.0
C208 C 0.61794 0.85343 0.72449 0.0
C209 C 0.62976 0.88868 0.78966 0.0
H210 H 0.56991 0.80652 0.68745 0.0
C211 C 0.60255 0.90088 0.87805 0.0
H212 H 0.63899 0.8422 0.65891 0.0
C213 C 0.56344 0.87937 0.8977 0.0
C214 C 0.55063 0.84566 0.828 0.0
H215 H 0.61072 0.92809 0.92907 0.0
H216 H 0.54226 0.89065 0.96317 0.0
C217 C 0.5787 0.83257 0.74231 0.0
C218 C 0.17043 0.4469 0.87581 0.0
C219 C 0.12796 0.43559 0.84958 0.0
H220 H 0.22023 0.49437 0.85932 0.0
C221 C 0.10154 0.46572 0.79594 0.0
H222 H 0.19166 0.42381 0.91484 0.0
C223 C 0.118 0.50509 0.76149 0.0
C224 C 0.1611 0.51564 0.78166 0.0
H225 H 0.06882 0.45749 0.77363 0.0
H226 H 0.09752 0.52644 0.71423 0.0
C227 C 0.18672 0.4871 0.84356 0.0
C228 C 0.3745 0.09203 0.87142 0.0
C229 C 0.35724 0.11028 0.77443 0.0
H230 H 0.42505 0.09338 0.99219 0.0
C231 C 0.37576 0.14785 0.73315 0.0
H232 H 0.36049 0.06336 0.90671 0.0
C233 C 0.41219 0.16522 0.78323 0.0
C234 C 0.43103 0.1456 0.8762 0.0
H235 H 0.36238 0.16364 0.66157 0.0
H236 H 0.42673 0.19333 0.74629 0.0
C237 C 0.41108 0.10949 0.92178 0.0
C238 C 0.85869 0.4955 0.99875 0.0
C239 C 0.83621 0.53468 0.99073 0.0
H240 H 0.86106 0.42891 0.95339 0.0
C241 C 0.79395 0.53449 0.94974 0.0
H242 H 0.89167 0.49495 1.02772 0.0
C243 C 0.77668 0.49696 0.90415 0.0
C244 C 0.80136 0.45888 0.89951 0.0
H245 H 0.77633 0.56448 0.94054 0.0
H246 H 0.7457 0.49887 0.8637 0.0
C247 C 0.84126 0.45778 0.95442 0.0
C248 C 0.04675 0.62858 0.83378 0.0
C249 C 0.01373 0.65409 0.78994 0.0
H250 H 0.11128 0.60493 0.81364 0.0
C251 C 0.02056 0.6755 0.6893 0.0
H252 H 0.04182 0.61076 0.90915 0.0
C253 C 0.06 0.6716 0.63374 0.0
C254 C 0.09262 0.64569 0.67743 0.0
H255 H -0.00463 0.69523 0.65358 0.0
H256 H 0.06494 0.68854 0.55686 0.0
C257 C 0.08601 0.6245 0.77796 0.0
C258 C 0.27765 0.93314 0.80988 0.0
C259 C 0.26468 0.93522 0.69896 0.0
H260 H 0.31869 0.90343 0.92826 0.0
C261 C 0.27945 0.90389 0.62468 0.0
H262 H 0.26686 0.95705 0.86942 0.0
C263 C 0.30975 0.87317 0.65852 0.0
C264 C 0.32539 0.8734 0.76753 0.0
H265 H 0.26867 0.90413 0.54008 0.0
H266 H 0.322 0.85028 0.59824 0.0
C267 C 0.30777 0.90266 0.84371 0.0
C268 C 0.91229 0.37969 0.72989 0.0
C269 C 0.90212 0.34714 0.65333 0.0
H270 H 0.95155 0.39798 0.86728 0.0
C271 C 0.92883 0.31067 0.64524 0.0
H272 H 0.89228 0.40823 0.73814 0.0
C273 C 0.96351 0.30565 0.71697 0.0
C274 C 0.9707 0.33614 0.80044 0.0
H275 H 0.92147 0.28506 0.58766 0.0
H276 H 0.98322 0.27678 0.71137 0.0
C277 C 0.94569 0.37369 0.80494 0.0
C278 C 0.66774 0.09806 0.71331 0.0
C279 C 0.63269 0.08822 0.78226 0.0
H280 H 0.71395 0.07424 0.59528 0.0
C281 C 0.61529 0.04677 0.78004 0.0
H282 H 0.68114 0.13015 0.71272 0.0
C283 C 0.63246 0.01561 0.70892 0.0
C284 C 0.66857 0.02488 0.64248 0.0
H285 H 0.58759 0.03885 0.83079 0.0
H286 H 0.61804 0.98404 0.70823 0.0
C287 C 0.68607 0.06637 0.64544 0.0
C288 C 0.90973 0.36994 0.17529 0.0
C289 C 0.94826 0.37912 0.23084 0.0
H290 H 0.84035 0.37229 0.18089 0.0
C291 C 0.9457 0.40181 0.33171 0.0
H292 H 0.91048 0.35277 0.09741 0.0
C293 C 0.90607 0.41228 0.37975 0.0
C294 C 0.86755 0.40109 0.32791 0.0
H295 H 0.97451 0.41017 0.37676 0.0
H296 H 0.90568 0.42823 0.45937 0.0
C297 C 0.86964 0.3811 0.22325 0.0
C298 C 0.6976 -0.00355 0.20237 0.0
C299 C 0.67703 0.95634 0.2004 0.0
H300 H 0.69171 0.06408 0.17166 0.0
C301 C 0.63788 0.95273 0.14298 0.0
H302 H 0.72769 0.00039 0.24597 0.0
C303 C 0.61716 -0.01063 0.10107 0.0
C304 C 0.6357 0.03008 0.11312 0.0
H305 H 0.62096 0.92239 0.14028 0.0
H306 H 0.58464 0.98643 0.06991 0.0
C307 C 0.67724 0.03289 0.15829 0.0
C308 C 0.0574 0.59325 0.18602 0.0
C309 C 0.05024 0.63242 0.13198 0.0
H310 H 0.10261 0.55233 0.26747 0.0
C311 C 0.08582 0.65775 0.10281 0.0
H312 H 0.03037 0.57363 0.21138 0.0
C313 C 0.12768 0.64536 0.13429 0.0
C314 C 0.13421 0.60806 0.19779 0.0
H315 H 0.08094 0.6886 0.0635 0.0
H316 H 0.15427 0.66674 0.11695 0.0
C317 C 0.09881 0.58129 0.21909 0.0
C318 C 0.32254 0.89127 0.20129 0.0
C319 C 0.35579 0.87545 0.2679 0.0
H320 H 0.27168 0.93771 0.18324 0.0
C321 C 0.3617 0.89439 0.37278 0.0
H322 H 0.31674 0.87719 0.12103 0.0
C323 C 0.33604 0.92916 0.40842 0.0
C324 C 0.3029 0.94507 0.34172 0.0
H325 H 0.38718 0.88321 0.42642 0.0
H326 H 0.34317 0.94459 0.48636 0.0
C327 C 0.29639 0.92556 0.23787 0.0
C328 C 0.63942 0.32108 0.32335 0.0
C329 C 0.67277 0.31594 0.40079 0.0
H330 H 0.59646 0.2908 0.21045 0.0
C331 C 0.68804 0.27443 0.42389 0.0
H332 H 0.62679 0.35265 0.30329 0.0
C333 C 0.67065 0.23892 0.36936 0.0
C334 C 0.638 0.24438 0.29026 0.0
H335 H 0.71387 0.26945 0.48221 0.0
H336 H 0.68295 0.20715 0.38873 0.0
C337 C 0.62237 0.28574 0.26849 0.0
C338 C 0.88094 0.82114 0.28575 0.0
C339 C 0.86929 0.7959 0.19342 0.0
H340 H 0.85821 0.86094 0.41962 0.0
C341 C 0.82877 0.8031 0.14612 0.0
H342 H 0.91215 0.81692 0.32398 0.0
C343 C 0.79879 0.83037 0.19821 0.0
C344 C 0.80816 0.84959 0.30058 0.0
H345 H 0.81818 0.78394 0.07711 0.0
H346 H 0.76614 0.83131 0.16683 0.0
C347 C 0.85032 0.84711 0.34021 0.0
C348 C 0.3638 0.71514 0.31663 0.0
C349 C 0.35279 0.72163 0.20555 0.0
H350 H 0.34361 0.69622 0.47715 0.0
C351 C 0.30908 0.71867 0.17619 0.0
H352 H 0.39686 0.71442 0.34299 0.0
C353 C 0.27823 0.70515 0.25426 0.0
C354 C 0.29068 0.69533 0.36285 0.0
H355 H 0.29931 0.72363 0.09162 0.0
H356 H 0.24606 0.69754 0.22639 0.0
C357 C 0.33282 0.70456 0.39505 0.0
C358 C 0.14314 0.13905 0.22112 0.0
C359 C 0.14367 0.12945 0.33485 0.0
H360 H 0.12373 0.18275 0.09533 0.0
C361 C 0.11802 0.15416 0.40655 0.0
H362 H 0.16268 0.12084 0.16278 0.0
C363 C 0.09454 0.18938 0.36634 0.0
C364 C 0.09687 0.20091 0.25376 0.0
H365 H 0.11698 0.14697 0.49354 0.0
H366 H 0.07634 0.20884 0.4248 0.0
C367 C 0.12053 0.17459 0.18145 0.0
C368 C 0.33182 0.61952 0.80938 0.0
C369 C 0.33317 0.61151 0.69474 0.0
H370 H 0.35479 0.65903 0.94176 0.0
C371 C 0.36968 0.62435 0.63557 0.0
H372 H 0.30391 0.60977 0.85723 0.0
C373 C 0.39938 0.65209 0.68453 0.0
C374 C 0.39245 0.66795 0.79281 0.0
H375 H 0.37171 0.61875 0.54744 0.0
H376 H 0.42446 0.66529 0.63241 0.0
C377 C 0.36056 0.64852 0.85768 0.0
C378 C 0.11983 0.14007 0.80934 0.0
C379 C 0.14706 0.14674 0.71739 0.0
H380 H 0.08096 0.16851 0.93771 0.0
C381 C 0.15189 0.18875 0.67767 0.0
H382 H 0.1156 0.10802 0.84232 0.0
C383 C 0.13214 0.22349 0.73335 0.0
C384 C 0.10808 0.21686 0.83091 0.0
H385 H 0.17332 0.19507 0.6088 0.0
H386 H 0.13774 0.25578 0.70362 0.0
C387 C 0.10074 0.17469 0.86569 0.0
C388 C 0.69007 0.31336 0.94158 0.0
C389 C 0.68003 0.34174 0.85503 0.0
H390 H 0.66707 0.26442 0.04992 0.0
C391 C 0.63678 0.35163 0.83447 0.0
H392 H 0.7234 0.30563 0.95979 0.0
C393 C 0.60425 0.32833 0.88782 0.0
C394 C 0.61478 0.29451 0.96073 0.0
H395 H 0.62822 0.37335 0.76842 0.0
H396 H 0.57126 0.33309 0.86142 0.0
C397 C 0.6577 0.28992 0.99424 0.0
C398 C 0.82252 0.82978 0.7997 0.0
C399 C 0.78557 0.82448 0.73379 0.0
H400 H 0.86952 0.79988 0.90392 0.0
C401 C 0.76683 0.78369 0.72679 0.0
H402 H 0.83777 0.86086 0.80738 0.0
C403 C 0.78463 0.74907 0.78413 0.0
C404 C 0.82167 0.75434 0.84947 0.0
H405 H 0.7381 0.77858 0.67831 0.0
H406 H 0.76961 0.71787 0.7761 0.0
C407 C 0.84045 0.79506 0.85657 0.0
loop_
_geom_bond_atom_site_label_1
_geom_bond_atom_site_label_2
_geom_bond_distance
_geom_bond_site_symmetry_2
_ccdc_geom_bond_type
Zn0 O6 1.920 . S
Zn0 O12 1.898 . S
Zn0 O15 1.905 . S
Zn1 O9 1.905 . S
Zn1 O10 1.898 . S
Zn1 O18 1.920 . S
Zn2 O5 2.080 1_554 S
Zn2 O8 2.114 . S
Zn2 O11 2.120 . S
Zn2 O13 2.120 1_554 S
Zn2 O14 2.114 1_554 S
Zn2 O17 2.080 . S
C3 O8 1.166 . S
C3 O9 1.182 . S
C4 O10 1.167 . S
C4 O11 1.299 . S
O5 Zn2 2.080 1_556 S
O5 C19 1.305 . S
O6 Zn0 1.920 . S
O6 C19 1.234 . S
C7 O12 1.167 . S
C7 O13 1.299 . S
O8 Zn2 2.114 . S
O8 C3 1.166 . S
O9 Zn1 1.905 . S
O9 C3 1.182 . S
O10 Zn1 1.898 . S
O10 C4 1.167 . S
O11 Zn2 2.120 . S
O11 C4 1.299 . S
O12 Zn0 1.898 . S
O12 C7 1.167 . S
O13 Zn2 2.120 1_556 S
O13 C7 1.299 . S
O14 Zn2 2.114 1_556 S
O14 C16 1.166 . S
O15 Zn0 1.905 . S
O15 C16 1.182 . S
C16 O14 1.166 . S
C16 O15 1.182 . S
O17 Zn2 2.080 . S
O17 C20 1.305 . S
O18 Zn1 1.920 . S
O18 C20 1.234 . S
C19 O5 1.305 . S
C19 O6 1.234 . S
C20 O17 1.305 . S
C20 O18 1.234 . S
Zn21 O27 1.920 . S
Zn21 O33 1.898 . S
Zn21 O36 1.905 . S
Zn22 O30 1.905 . S
Zn22 O31 1.898 . S
Zn22 O39 1.920 . S
Zn23 O26 2.080 1_554 S
Zn23 O29 2.114 . S
Zn23 O32 2.120 . S
Zn23 O34 2.120 1_554 S
Zn23 O35 2.114 1_554 S
Zn23 O38 2.080 . S
C24 O29 1.166 . S
C24 O30 1.182 . S
C25 O31 1.167 . S
C25 O32 1.299 . S
O26 Zn23 2.080 1_556 S
O26 C40 1.305 . S
O27 Zn21 1.920 . S
O27 C40 1.234 . S
C28 O33 1.167 . S
C28 O34 1.299 . S
O29 Zn23 2.114 . S
O29 C24 1.166 . S
O30 Zn22 1.905 . S
O30 C24 1.182 . S
O31 Zn22 1.898 . S
O31 C25 1.167 . S
O32 Zn23 2.120 . S
O32 C25 1.299 . S
O33 Zn21 1.898 . S
O33 C28 1.167 . S
O34 Zn23 2.120 1_556 S
O34 C28 1.299 . S
O35 Zn23 2.114 1_556 S
O35 C37 1.166 . S
O36 Zn21 1.905 . S
O36 C37 1.182 . S
C37 O35 1.166 . S
C37 O36 1.182 . S
O38 Zn23 2.080 . S
O38 C41 1.305 . S
O39 Zn22 1.920 . S
O39 C41 1.234 . S
C40 O26 1.305 . S
C40 O27 1.234 . S
C41 O38 1.305 . S
C41 O39 1.234 . S
Zn42 O48 1.920 . S
Zn42 O54 1.898 . S
Zn42 O57 1.905 . S
Zn43 O51 1.905 . S
Zn43 O52 1.898 . S
Zn43 O60 1.920 . S
Zn44 O47 2.080 . S
Zn44 O50 2.114 1_554 S
Zn44 O53 2.120 1_554 S
Zn44 O55 2.120 . S
Zn44 O56 2.114 . S
Zn44 O59 2.080 1_554 S
C45 O50 1.166 . S
C45 O51 1.182 . S
C46 O52 1.167 . S
C46 O53 1.299 . S
O47 Zn44 2.080 . S
O47 C61 1.305 . S
O48 Zn42 1.920 . S
O48 C61 1.234 . S
C49 O54 1.167 . S
C49 O55 1.299 . S
O50 Zn44 2.114 1_556 S
O50 C45 1.166 . S
O51 Zn43 1.905 . S
O51 C45 1.182 . S
O52 Zn43 1.898 . S
O52 C46 1.167 . S
O53 Zn44 2.120 1_556 S
O53 C46 1.299 . S
O54 Zn42 1.898 . S
O54 C49 1.167 . S
O55 Zn44 2.120 . S
O55 C49 1.299 . S
O56 Zn44 2.114 . S
O56 C58 1.166 . S
O57 Zn42 1.905 . S
O57 C58 1.182 . S
C58 O56 1.166 . S
C58 O57 1.182 . S
O59 Zn44 2.080 1_556 S
O59 C62 1.305 . S
O60 Zn43 1.920 . S
O60 C62 1.234 . S
C61 O47 1.305 . S
C61 O48 1.234 . S
C62 O59 1.305 . S
C62 O60 1.234 . S
Zn63 O69 1.920 . S
Zn63 O75 1.898 . S
Zn63 O78 1.905 . S
Zn64 O72 1.905 . S
Zn64 O73 1.898 . S
Zn64 O81 1.920 . S
Zn65 O68 2.080 . S
Zn65 O71 2.114 1_554 S
Zn65 O74 2.120 1_554 S
Zn65 O76 2.120 . S
Zn65 O77 2.114 . S
Zn65 O80 2.080 1_554 S
C66 O71 1.166 . S
C66 O72 1.182 . S
C67 O73 1.167 . S
C67 O74 1.299 . S
O68 Zn65 2.080 . S
O68 C82 1.305 . S
O69 Zn63 1.920 . S
O69 C82 1.234 . S
C70 O75 1.167 . S
C70 O76 1.299 . S
O71 Zn65 2.114 1_556 S
O71 C66 1.166 . S
O72 Zn64 1.905 . S
O72 C66 1.182 . S
O73 Zn64 1.898 . S
O73 C67 1.167 . S
O74 Zn65 2.120 1_556 S
O74 C67 1.299 . S
O75 Zn63 1.898 . S
O75 C70 1.167 . S
O76 Zn65 2.120 . S
O76 C70 1.299 . S
O77 Zn65 2.114 . S
O77 C79 1.166 . S
O78 Zn63 1.905 . S
O78 C79 1.182 . S
C79 O77 1.166 . S
C79 O78 1.182 . S
O80 Zn65 2.080 1_556 S
O80 C83 1.305 . S
O81 Zn64 1.920 . S
O81 C83 1.234 . S
C82 O68 1.305 . S
C82 O69 1.234 . S
C83 O80 1.305 . S
C83 O81 1.234 . S
Zn84 O90 1.920 . S
Zn84 O96 1.898 . S
Zn84 O99 1.905 . S
Zn85 O93 1.905 . S
Zn85 O94 1.898 . S
Zn85 O102 1.920 . S
Zn86 O89 2.080 . S
Zn86 O92 2.114 . S
Zn86 O95 2.120 . S
Zn86 O97 2.120 . S
Zn86 O98 2.114 . S
Zn86 O101 2.080 . S
C87 O92 1.166 . S
C87 O93 1.182 . S
C88 O94 1.167 . S
C88 O95 1.299 . S
O89 Zn86 2.080 . S
O89 C103 1.305 . S
O90 Zn84 1.920 . S
O90 C103 1.234 . S
C91 O96 1.167 . S
C91 O97 1.299 . S
O92 Zn86 2.114 . S
O92 C87 1.166 . S
O93 Zn85 1.905 . S
O93 C87 1.182 . S
O94 Zn85 1.898 . S
O94 C88 1.167 . S
O95 Zn86 2.120 . S
O95 C88 1.299 . S
O96 Zn84 1.898 . S
O96 C91 1.167 . S
O97 Zn86 2.120 . S
O97 C91 1.299 . S
O98 Zn86 2.114 . S
O98 C100 1.166 . S
O99 Zn84 1.905 . S
O99 C100 1.182 . S
C100 O98 1.166 . S
C100 O99 1.182 . S
O101 Zn86 2.080 . S
O101 C104 1.305 . S
O102 Zn85 1.920 . S
O102 C104 1.234 . S
C103 O89 1.305 . S
C103 O90 1.234 . S
C104 O101 1.305 . S
C104 O102 1.234 . S
Zn105 O111 1.920 . S
Zn105 O117 1.898 . S
Zn105 O120 1.905 . S
Zn106 O114 1.905 . S
Zn106 O115 1.898 . S
Zn106 O123 1.920 . S
Zn107 O110 2.080 . S
Zn107 O113 2.114 . S
Zn107 O116 2.120 . S
Zn107 O118 2.120 . S
Zn107 O119 2.114 . S
Zn107 O122 2.080 . S
C108 O113 1.166 . S
C108 O114 1.182 . S
C109 O115 1.167 . S
C109 O116 1.299 . S
O110 Zn107 2.080 . S
O110 C124 1.305 . S
O111 Zn105 1.920 . S
O111 C124 1.234 . S
C112 O117 1.167 . S
C112 O118 1.299 . S
O113 Zn107 2.114 . S
O113 C108 1.166 . S
O114 Zn106 1.905 . S
O114 C108 1.182 . S
O115 Zn106 1.898 . S
O115 C109 1.167 . S
O116 Zn107 2.120 . S
O116 C109 1.299 . S
O117 Zn105 1.898 . S
O117 C112 1.167 . S
O118 Zn107 2.120 . S
O118 C112 1.299 . S
O119 Zn107 2.114 . S
O119 C121 1.166 . S
O120 Zn105 1.905 . S
O120 C121 1.182 . S
C121 O119 1.166 . S
C121 O120 1.182 . S
O122 Zn107 2.080 . S
O122 C125 1.305 . S
O123 Zn106 1.920 . S
O123 C125 1.234 . S
C124 O110 1.305 . S
C124 O111 1.234 . S
C125 O122 1.305 . S
C125 O123 1.234 . S
Zn126 O132 1.920 . S
Zn126 O138 1.898 . S
Zn126 O141 1.905 . S
Zn127 O135 1.905 . S
Zn127 O136 1.898 . S
Zn127 O144 1.920 . S
Zn128 O131 2.080 . S
Zn128 O134 2.114 . S
Zn128 O137 2.120 . S
Zn128 O139 2.120 . S
Zn128 O140 2.114 . S
Zn128 O143 2.080 . S
C129 O134 1.166 . S
C129 O135 1.182 . S
C130 O136 1.167 . S
C130 O137 1.299 . S
O131 Zn128 2.080 . S
O131 C145 1.305 . S
O132 Zn126 1.920 . S
O132 C145 1.234 . S
C133 O138 1.167 . S
C133 O139 1.299 . S
O134 Zn128 2.114 . S
O134 C129 1.166 . S
O135 Zn127 1.905 . S
O135 C129 1.182 . S
O136 Zn127 1.898 . S
O136 C130 1.167 . S
O137 Zn128 2.120 . S
O137 C130 1.299 . S
O138 Zn126 1.898 . S
O138 C133 1.167 . S
O139 Zn128 2.120 . S
O139 C133 1.299 . S
O140 Zn128 2.114 . S
O140 C142 1.166 . S
O141 Zn126 1.905 . S
O141 C142 1.182 . S
C142 O140 1.166 . S
C142 O141 1.182 . S
O143 Zn128 2.080 . S
O143 C146 1.305 . S
O144 Zn127 1.920 . S
O144 C146 1.234 . S
C145 O131 1.305 . S
C145 O132 1.234 . S
C146 O143 1.305 . S
C146 O144 1.234 . S
Zn147 O153 1.920 . S
Zn147 O159 1.898 . S
Zn147 O162 1.905 . S
Zn148 O156 1.905 . S
Zn148 O157 1.898 . S
Zn148 O165 1.920 . S
Zn149 O152 2.080 . S
Zn149 O155 2.114 . S
Zn149 O158 2.120 . S
Zn149 O160 2.120 . S
Zn149 O161 2.114 . S
Zn149 O164 2.080 . S
C150 O155 1.166 . S
C150 O156 1.182 . S
C151 O157 1.167 . S
C151 O158 1.299 . S
O152 Zn149 2.080 . S
O152 C166 1.305 . S
O153 Zn147 1.920 . S
O153 C166 1.234 . S
C154 O159 1.167 . S
C154 O160 1.299 . S
O155 Zn149 2.114 . S
O155 C150 1.166 . S
O156 Zn148 1.905 . S
O156 C150 1.182 . S
O157 Zn148 1.898 . S
O157 C151 1.167 . S
O158 Zn149 2.120 . S
O158 C151 1.299 . S
O159 Zn147 1.898 . S
O159 C154 1.167 . S
O160 Zn149 2.120 . S
O160 C154 1.299 . S
O161 Zn149 2.114 . S
O161 C163 1.166 . S
O162 Zn147 1.905 . S
O162 C163 1.182 . S
C163 O161 1.166 . S
C163 O162 1.182 . S
O164 Zn149 2.080 . S
O164 C167 1.305 . S
O165 Zn148 1.920 . S
O165 C167 1.234 . S
C166 O152 1.305 . S
C166 O153 1.234 . S
C167 O164 1.305 . S
C167 O165 1.234 . S
C168 C169 1.387 . S
C168 H172 0.950 . S
C168 C177 1.390 . S
C169 C168 1.387 . S
C169 C171 1.387 . S
H170 C177 0.950 . S
C171 C169 1.387 . S
C171 C173 1.390 . S
C171 H175 0.950 . S
H172 C168 0.950 . S
C173 C171 1.390 . S
C173 C174 1.387 . S
C173 H176 0.950 . S
C174 C173 1.387 . S
C174 C177 1.387 . S
H175 C171 0.950 . S
H176 C173 0.950 . S
C177 C168 1.390 . S
C177 H170 0.950 . S
C177 C174 1.387 . S
C178 C179 1.387 . S
C178 H182 0.950 . S
C178 C187 1.390 . S
C179 C178 1.387 . S
C179 C181 1.387 . S
H180 C187 0.950 . S
C181 C179 1.387 . S
C181 C183 1.390 . S
C181 H185 0.950 . S
H182 C178 0.950 . S
C183 C181 1.390 . S
C183 C184 1.387 . S
C183 H186 0.950 . S
C184 C183 1.387 . S
C184 C187 1.387 . S
H185 C181 0.950 . S
H186 C183 0.950 . S
C187 C178 1.390 . S
C187 H180 0.950 . S
C187 C184 1.387 . S
C188 C189 1.387 . S
C188 H192 0.950 . S
C188 C197 1.390 . S
C189 C188 1.387 . S
C189 C191 1.387 . S
H190 C197 0.950 . S
C191 C189 1.387 . S
C191 C193 1.390 . S
C191 H195 0.950 . S
H192 C188 0.950 . S
C193 C191 1.390 . S
C193 C194 1.387 . S
C193 H196 0.950 . S
C194 C193 1.387 . S
C194 C197 1.387 . S
H195 C191 0.950 . S
H196 C193 0.950 . S
C197 C188 1.390 . S
C197 H190 0.950 . S
C197 C194 1.387 . S
C198 C199 1.387 . S
C198 H202 0.950 . S
C198 C207 1.390 . S
C199 C198 1.387 . S
C199 C201 1.387 . S
H200 C207 0.950 . S
C201 C199 1.387 . S
C201 C203 1.390 . S
C201 H205 0.950 . S
H202 C198 0.950 . S
C203 C201 1.390 . S
C203 C204 1.387 . S
C203 H206 0.950 . S
C204 C203 1.387 . S
C204 C207 1.387 . S
H205 C201 0.950 . S
H206 C203 0.950 . S
C207 C198 1.390 . S
C207 H200 0.950 . S
C207 C204 1.387 . S
C208 C209 1.387 . S
C208 H212 0.950 . S
C208 C217 1.390 . S
C209 C208 1.387 . S
C209 C211 1.387 . S
H210 C217 0.950 . S
C211 C209 1.387 . S
C211 C213 1.390 . S
C211 H215 0.950 . S
H212 C208 0.950 . S
C213 C211 1.390 . S
C213 C214 1.387 . S
C213 H216 0.950 . S
C214 C213 1.387 . S
C214 C217 1.387 . S
H215 C211 0.950 . S
H216 C213 0.950 . S
C217 C208 1.390 . S
C217 H210 0.950 . S
C217 C214 1.387 . S
C218 C219 1.387 . S
C218 H222 0.950 . S
C218 C227 1.390 . S
C219 C218 1.387 . S
C219 C221 1.387 . S
H220 C227 0.950 . S
C221 C219 1.387 . S
C221 C223 1.390 . S
C221 H225 0.950 . S
H222 C218 0.950 . S
C223 C221 1.390 . S
C223 C224 1.387 . S
C223 H226 0.950 . S
C224 C223 1.387 . S
C224 C227 1.387 . S
H225 C221 0.950 . S
H226 C223 0.950 . S
C227 C218 1.390 . S
C227 H220 0.950 . S
C227 C224 1.387 . S
C228 C229 1.387 . S
C228 H232 0.950 . S
C228 C237 1.390 . S
C229 C228 1.387 . S
C229 C231 1.387 . S
H230 C237 0.950 . S
C231 C229 1.387 . S
C231 C233 1.390 . S
C231 H235 0.950 . S
H232 C228 0.950 . S
C233 C231 1.390 . S
C233 C234 1.387 . S
C233 H236 0.950 . S
C234 C233 1.387 . S
C234 C237 1.387 . S
H235 C231 0.950 . S
H236 C233 0.950 . S
C237 C228 1.390 . S
C237 H230 0.950 . S
C237 C234 1.387 . S
C238 C239 1.387 . S
C238 H242 0.950 . S
C238 C247 1.390 . S
C239 C238 1.387 . S
C239 C241 1.387 . S
H240 C247 0.950 . S
C241 C239 1.387 . S
C241 C243 1.390 . S
C241 H245 0.950 . S
H242 C238 0.950 . S
C243 C241 1.390 . S
C243 C244 1.387 . S
C243 H246 0.950 . S
C244 C243 1.387 . S
C244 C247 1.387 . S
H245 C241 0.950 . S
H246 C243 0.950 . S
C247 C238 1.390 . S
C247 H240 0.950 . S
C247 C244 1.387 . S
C248 C249 1.387 . S
C248 H252 0.950 . S
C248 C257 1.390 1_655 S
C249 C248 1.387 . S
C249 C251 1.387 . S
H250 C257 0.950 . S
C251 C249 1.387 . S
C251 C253 1.390 1_655 S
C251 H255 0.950 . S
H252 C248 0.950 . S
C253 C251 1.390 1_455 S
C253 C254 1.387 . S
C253 H256 0.950 . S
C254 C253 1.387 . S
C254 C257 1.387 . S
H255 C251 0.950 . S
H256 C253 0.950 . S
C257 C248 1.390 1_455 S
C257 H250 0.950 . S
C257 C254 1.387 . S
C258 C259 1.387 . S
C258 H262 0.950 . S
C258 C267 1.390 1_545 S
C259 C258 1.387 . S
C259 C261 1.387 . S
H260 C267 0.950 . S
C261 C259 1.387 . S
C261 C263 1.390 1_545 S
C261 H265 0.950 . S
H262 C258 0.950 . S
C263 C261 1.390 1_565 S
C263 C264 1.387 . S
C263 H266 0.950 . S
C264 C263 1.387 . S
C264 C267 1.387 . S
H265 C261 0.950 . S
H266 C263 0.950 . S
C267 C258 1.390 1_565 S
C267 H260 0.950 . S
C267 C264 1.387 . S
C268 C269 1.387 . S
C268 H272 0.950 . S
C268 C277 1.390 1_655 S
C269 C268 1.387 . S
C269 C271 1.387 . S
H270 C277 0.950 . S
C271 C269 1.387 . S
C271 C273 1.390 1_655 S
C271 H275 0.950 . S
H272 C268 0.950 . S
C273 C271 1.390 1_455 S
C273 C274 1.387 . S
C273 H276 0.950 . S
C274 C273 1.387 . S
C274 C277 1.387 . S
H275 C271 0.950 . S
H276 C273 0.950 . S
C277 C268 1.390 1_455 S
C277 H270 0.950 . S
C277 C274 1.387 . S
C278 C279 1.387 . S
C278 H282 0.950 . S
C278 C287 1.390 1_545 S
C279 C278 1.387 . S
C279 C281 1.387 . S
H280 C287 0.950 . S
C281 C279 1.387 . S
C281 C283 1.390 1_545 S
C281 H285 0.950 . S
H282 C278 0.950 . S
C283 C281 1.390 1_565 S
C283 C284 1.387 . S
C283 H286 0.950 . S
C284 C283 1.387 . S
C284 C287 1.387 . S
H285 C281 0.950 . S
H286 C283 0.950 . S
C287 C278 1.390 1_565 S
C287 H280 0.950 . S
C287 C284 1.387 . S
C288 C289 1.387 . S
C288 H292 0.950 . S
C288 C297 1.390 1_455 S
C289 C288 1.387 . S
C289 C291 1.387 . S
H290 C297 0.950 . S
C291 C289 1.387 . S
C291 C293 1.390 1_455 S
C291 H295 0.950 . S
H292 C288 0.950 . S
C293 C291 1.390 1_655 S
C293 C294 1.387 . S
C293 H296 0.950 . S
C294 C293 1.387 . S
C294 C297 1.387 . S
H295 C291 0.950 . S
H296 C293 0.950 . S
C297 C288 1.390 1_655 S
C297 H290 0.950 . S
C297 C294 1.387 . S
C298 C299 1.387 . S
C298 H302 0.950 . S
C298 C307 1.390 1_565 S
C299 C298 1.387 . S
C299 C301 1.387 . S
H300 C307 0.950 . S
C301 C299 1.387 . S
C301 C303 1.390 1_565 S
C301 H305 0.950 . S
H302 C298 0.950 . S
C303 C301 1.390 1_545 S
C303 C304 1.387 . S
C303 H306 0.950 . S
C304 C303 1.387 . S
C304 C307 1.387 . S
H305 C301 0.950 . S
H306 C303 0.950 . S
C307 C298 1.390 1_545 S
C307 H300 0.950 . S
C307 C304 1.387 . S
C308 C309 1.387 . S
C308 H312 0.950 . S
C308 C317 1.390 1_655 S
C309 C308 1.387 . S
C309 C311 1.387 . S
H310 C317 0.950 . S
C311 C309 1.387 . S
C311 C313 1.390 1_655 S
C311 H315 0.950 . S
H312 C308 0.950 . S
C313 C311 1.390 1_455 S
C313 C314 1.387 . S
C313 H316 0.950 . S
C314 C313 1.387 . S
C314 C317 1.387 . S
H315 C311 0.950 . S
H316 C313 0.950 . S
C317 C308 1.390 1_455 S
C317 H310 0.950 . S
C317 C314 1.387 . S
C318 C319 1.387 . S
C318 H322 0.950 . S
C318 C327 1.390 1_565 S
C319 C318 1.387 . S
C319 C321 1.387 . S
H320 C327 0.950 . S
C321 C319 1.387 . S
C321 C323 1.390 1_565 S
C321 H325 0.950 . S
H322 C318 0.950 . S
C323 C321 1.390 1_545 S
C323 C324 1.387 . S
C323 H326 0.950 . S
C324 C323 1.387 . S
C324 C327 1.387 . S
H325 C321 0.950 . S
H326 C323 0.950 . S
C327 C318 1.390 1_545 S
C327 H320 0.950 . S
C327 C324 1.387 . S
C328 C329 1.387 . S
C328 H332 0.950 . S
C328 C337 1.390 . S
C329 C328 1.387 . S
C329 C331 1.387 . S
H330 C337 0.950 . S
C331 C329 1.387 . S
C331 C333 1.390 . S
C331 H335 0.950 . S
H332 C328 0.950 . S
C333 C331 1.390 . S
C333 C334 1.387 . S
C333 H336 0.950 . S
C334 C333 1.387 . S
C334 C337 1.387 . S
H335 C331 0.950 . S
H336 C333 0.950 . S
C337 C328 1.390 . S
C337 H330 0.950 . S
C337 C334 1.387 . S
C338 C339 1.387 . S
C338 H342 0.950 . S
C338 C347 1.390 . S
C339 C338 1.387 . S
C339 C341 1.387 . S
H340 C347 0.950 . S
C341 C339 1.387 . S
C341 C343 1.390 . S
C341 H345 0.950 . S
H342 C338 0.950 . S
C343 C341 1.390 . S
C343 C344 1.387 . S
C343 H346 0.950 . S
C344 C343 1.387 . S
C344 C347 1.387 . S
H345 C341 0.950 . S
H346 C343 0.950 . S
C347 C338 1.390 . S
C347 H340 0.950 . S
C347 C344 1.387 . S
C348 C349 1.387 . S
C348 H352 0.950 . S
C348 C357 1.390 . S
C349 C348 1.387 . S
C349 C351 1.387 . S
H350 C357 0.950 . S
C351 C349 1.387 . S
C351 C353 1.390 . S
C351 H355 0.950 . S
H352 C348 0.950 . S
C353 C351 1.390 . S
C353 C354 1.387 . S
C353 H356 0.950 . S
C354 C353 1.387 . S
C354 C357 1.387 . S
H355 C351 0.950 . S
H356 C353 0.950 . S
C357 C348 1.390 . S
C357 H350 0.950 . S
C357 C354 1.387 . S
C358 C359 1.387 . S
C358 H362 0.950 . S
C358 C367 1.390 . S
C359 C358 1.387 . S
C359 C361 1.387 . S
H360 C367 0.950 . S
C361 C359 1.387 . S
C361 C363 1.390 . S
C361 H365 0.950 . S
H362 C358 0.950 . S
C363 C361 1.390 . S
C363 C364 1.387 . S
C363 H366 0.950 . S
C364 C363 1.387 . S
C364 C367 1.387 . S
H365 C361 0.950 . S
H366 C363 0.950 . S
C367 C358 1.390 . S
C367 H360 0.950 . S
C367 C364 1.387 . S
C368 C369 1.387 . S
C368 H372 0.950 . S
C368 C377 1.390 . S
C369 C368 1.387 . S
C369 C371 1.387 . S
H370 C377 0.950 . S
C371 C369 1.387 . S
C371 C373 1.390 . S
C371 H375 0.950 . S
H372 C368 0.950 . S
C373 C371 1.390 . S
C373 C374 1.387 . S
C373 H376 0.950 . S
C374 C373 1.387 . S
C374 C377 1.387 . S
H375 C371 0.950 . S
H376 C373 0.950 . S
C377 C368 1.390 . S
C377 H370 0.950 . S
C377 C374 1.387 . S
C378 C379 1.387 . S
C378 H382 0.950 . S
C378 C387 1.390 . S
C379 C378 1.387 . S
C379 C381 1.387 . S
H380 C387 0.950 . S
C381 C379 1.387 . S
C381 C383 1.390 . S
C381 H385 0.950 . S
H382 C378 0.950 . S
C383 C381 1.390 . S
C383 C384 1.387 . S
C383 H386 0.950 . S
C384 C383 1.387 . S
C384 C387 1.387 . S
H385 C381 0.950 . S
H386 C383 0.950 . S
C387 C378 1.390 . S
C387 H380 0.950 . S
C387 C384 1.387 . S
C388 C389 1.387 . S
C388 H392 0.950 . S
C388 C397 1.390 . S
C389 C388 1.387 . S
C389 C391 1.387 . S
H390 C397 0.950 . S
C391 C389 1.387 . S
C391 C393 1.390 . S
C391 H395 0.950 . S
H392 C388 0.950 . S
C393 C391 1.390 . S
C393 C394 1.387 . S
C393 H396 0.950 . S
C394 C393 1.387 . S
C394 C397 1.387 . S
H395 C391 0.950 . S
H396 C393 0.950 . S
C397 C388 1.390 . S
C397 H390 0.950 . S
C397 C394 1.387 . S
C398 C399 1.387 . S
C398 H402 0.950 . S
C398 C407 1.390 . S
C399 C398 1.387 . S
C399 C401 1.387 . S
H400 C407 0.950 . S
C401 C399 1.387 . S
C401 C403 1.390 . S
C401 H405 0.950 . S
H402 C398 0.950 . S
C403 C401 1.390 . S
C403 C404 1.387 . S
C403 H406 0.950 . S
C404 C403 1.387 . S
C404 C407 1.387 . S
H405 C401 0.950 . S
H406 C403 0.950 . S
C407 C398 1.390 . S
C407 H400 0.950 . S
C407 C404 1.387 . S
C169 C133 1.422 . S
C174 C4 1.422 . S
C179 C25 1.426 . S
C184 C151 1.426 . S
C189 C88 1.426 . S
C194 C49 1.426 . S
C199 C70 1.422 . S
C204 C112 1.422 . S
C209 C100 1.201 . S
C214 C45 1.202 . S
C219 C66 1.207 . S
C224 C108 1.208 . S
C229 C129 1.201 . S
C234 C16 1.202 . S
C239 C37 1.201 . S
C244 C163 1.202 . S
C249 C28 1.426 . S
C254 C109 1.427 . S
C259 C130 1.426 . S
C264 C46 1.427 . S
C269 C154 1.426 . S
C274 C67 1.427 . S
C279 C7 1.422 . S
C284 C91 1.422 . S
C289 C79 1.207 . S
C294 C150 1.207 . S
C299 C87 1.207 . S
C304 C3 1.207 . S
C309 C24 1.201 . S
C314 C121 1.201 . S
C319 C58 1.201 . S
C324 C142 1.201 . S
C329 C167 1.126 . S
C334 C20 1.124 . S
C339 C41 1.126 . S
C344 C104 1.128 . S
C349 C61 1.126 . S
C354 C124 1.127 . S
C359 C145 1.123 . S
C364 C82 1.123 . S
C369 C125 1.124 . S
C374 C62 1.126 . S
C379 C146 1.127 . S
C384 C83 1.129 . S
C389 C166 1.123 . S
C394 C19 1.124 . S
C399 C103 1.126 . S
C404 C40 1.128 . S
