# Generated by pormake.
# Topology wlg, (5)-cn, num edge types: 1
# Building blocks:
#     Node 0, Type 0, BuildingBlock: BEQFEK_clean_sbu_0, # of connection points: 5
#     Node 1, Type 0, BuildingBlock: BEQFEK_clean_sbu_0, # of connection points: 5
#     Node 2, Type 0, BuildingBlock: BEQFEK_clean_sbu_0, # of connection points: 5
#     Node 3, Type 0, BuildingBlock: BEQFEK_clean_sbu_0, # of connection points: 5
#     Node 4, Type 0, BuildingBlock: BEQFEK_clean_sbu_0, # of connection points: 5
#     Node 5, Type 0, BuildingBlock: BEQFEK_clean_sbu_0, # of connection points: 5
#     Node 6, Type 0, BuildingBlock: BEQFEK_clean_sbu_0, # of connection points: 5
#     Node 7, Type 0, BuildingBlock: BEQFEK_clean_sbu_0, # of connection points: 5
#     Node 8, Type 0, BuildingBlock: BEQFEK_clean_sbu_0, # of connection points: 5
#     Node 9, Type 0, BuildingBlock: BEQFEK_clean_sbu_0, # of connection points: 5
#     Node 10, Type 0, BuildingBlock: BEQFEK_clean_sbu_0, # of connection points: 5
#     Node 11, Type 0, BuildingBlock: BEQFEK_clean_sbu_0, # of connection points: 5
#     Node 12, Type 0, BuildingBlock: BEQFEK_clean_sbu_0, # of connection points: 5
#     Node 13, Type 0, BuildingBlock: BEQFEK_clean_sbu_0, # of connection points: 5
#     Node 14, Type 0, BuildingBlock: BEQFEK_clean_sbu_0, # of connection points: 5
#     Node 15, Type 0, BuildingBlock: BEQFEK_clean_sbu_0, # of connection points: 5
#     Node 16, Type 0, BuildingBlock: BEQFEK_clean_sbu_0, # of connection points: 5
#     Node 17, Type 0, BuildingBlock: BEQFEK_clean_sbu_0, # of connection points: 5
#     Node 18, Type 0, BuildingBlock: BEQFEK_clean_sbu_0, # of connection points: 5
#     Node 19, Type 0, BuildingBlock: BEQFEK_clean_sbu_0, # of connection points: 5
#     Node 20, Type 0, BuildingBlock: BEQFEK_clean_sbu_0, # of connection points: 5
#     Node 21, Type 0, BuildingBlock: BEQFEK_clean_sbu_0, # of connection points: 5
#     Node 22, Type 0, BuildingBlock: BEQFEK_clean_sbu_0, # of connection points: 5
#     Node 23, Type 0, BuildingBlock: BEQFEK_clean_sbu_0, # of connection points: 5
#     Node 24, Type 0, BuildingBlock: BEQFEK_clean_sbu_0, # of connection points: 5
#     Node 25, Type 0, BuildingBlock: BEQFEK_clean_sbu_0, # of connection points: 5
#     Node 26, Type 0, BuildingBlock: BEQFEK_clean_sbu_0, # of connection points: 5
#     Node 27, Type 0, BuildingBlock: BEQFEK_clean_sbu_0, # of connection points: 5
#     Node 28, Type 0, BuildingBlock: BEQFEK_clean_sbu_0, # of connection points: 5
#     Node 29, Type 0, BuildingBlock: BEQFEK_clean_sbu_0, # of connection points: 5
#     Node 30, Type 0, BuildingBlock: BEQFEK_clean_sbu_0, # of connection points: 5
#     Node 31, Type 0, BuildingBlock: BEQFEK_clean_sbu_0, # of connection points: 5
#     Node 32, Type 0, BuildingBlock: BEQFEK_clean_sbu_0, # of connection points: 5
#     Node 33, Type 0, BuildingBlock: BEQFEK_clean_sbu_0, # of connection points: 5
#     Node 34, Type 0, BuildingBlock: BEQFEK_clean_sbu_0, # of connection points: 5
#     Node 35, Type 0, BuildingBlock: BEQFEK_clean_sbu_0, # of connection points: 5
#     Edge 36, Type (0, 0), BuildingBlock: AJUNOK_clean_linker_0, # of connection points: 2
#     Edge 37, Type (0, 0), BuildingBlock: AJUNOK_clean_linker_0, # of connection points: 2
#     Edge 38, Type (0, 0), BuildingBlock: AJUNOK_clean_linker_0, # of connection points: 2
#     Edge 39, Type (0, 0), BuildingBlock: AJUNOK_clean_linker_0, # of connection points: 2
#     Edge 40, Type (0, 0), BuildingBlock: AJUNOK_clean_linker_0, # of connection points: 2
#     Edge 41, Type (0, 0), BuildingBlock: AJUNOK_clean_linker_0, # of connection points: 2
#     Edge 42, Type (0, 0), BuildingBlock: AJUNOK_clean_linker_0, # of connection points: 2
#     Edge 43, Type (0, 0), BuildingBlock: AJUNOK_clean_linker_0, # of connection points: 2
#     Edge 44, Type (0, 0), BuildingBlock: AJUNOK_clean_linker_0, # of connection points: 2
#     Edge 45, Type (0, 0), BuildingBlock: AJUNOK_clean_linker_0, # of connection points: 2
#     Edge 46, Type (0, 0), BuildingBlock: AJUNOK_clean_linker_0, # of connection points: 2
#     Edge 47, Type (0, 0), BuildingBlock: AJUNOK_clean_linker_0, # of connection points: 2
#     Edge 48, Type (0, 0), BuildingBlock: AJUNOK_clean_linker_0, # of connection points: 2
#     Edge 49, Type (0, 0), BuildingBlock: AJUNOK_clean_linker_0, # of connection points: 2
#     Edge 50, Type (0, 0), BuildingBlock: AJUNOK_clean_linker_0, # of connection points: 2
#     Edge 51, Type (0, 0), BuildingBlock: AJUNOK_clean_linker_0, # of connection points: 2
#     Edge 52, Type (0, 0), BuildingBlock: AJUNOK_clean_linker_0, # of connection points: 2
#     Edge 53, Type (0, 0), BuildingBlock: AJUNOK_clean_linker_0, # of connection points: 2
#     Edge 54, Type (0, 0), BuildingBlock: AJUNOK_clean_linker_0, # of connection points: 2
#     Edge 55, Type (0, 0), BuildingBlock: AJUNOK_clean_linker_0, # of connection points: 2
#     Edge 56, Type (0, 0), BuildingBlock: AJUNOK_clean_linker_0, # of connection points: 2
#     Edge 57, Type (0, 0), BuildingBlock: AJUNOK_clean_linker_0, # of connection points: 2
#     Edge 58, Type (0, 0), BuildingBlock: AJUNOK_clean_linker_0, # of connection points: 2
#     Edge 59, Type (0, 0), BuildingBlock: AJUNOK_clean_linker_0, # of connection points: 2
#     Edge 60, Type (0, 0), BuildingBlock: AJUNOK_clean_linker_0, # of connection points: 2
#     Edge 61, Type (0, 0), BuildingBlock: AJUNOK_clean_linker_0, # of connection points: 2
#     Edge 62, Type (0, 0), BuildingBlock: AJUNOK_clean_linker_0, # of connection points: 2
#     Edge 63, Type (0, 0), BuildingBlock: AJUNOK_clean_linker_0, # of connection points: 2
#     Edge 64, Type (0, 0), BuildingBlock: AJUNOK_clean_linker_0, # of connection points: 2
#     Edge 65, Type (0, 0), BuildingBlock: AJUNOK_clean_linker_0, # of connection points: 2
#     Edge 66, Type (0, 0), BuildingBlock: AJUNOK_clean_linker_0, # of connection points: 2
#     Edge 67, Type (0, 0), BuildingBlock: AJUNOK_clean_linker_0, # of connection points: 2
#     Edge 68, Type (0, 0), BuildingBlock: AJUNOK_clean_linker_0, # of connection points: 2
#     Edge 69, Type (0, 0), BuildingBlock: AJUNOK_clean_linker_0, # of connection points: 2
#     Edge 70, Type (0, 0), BuildingBlock: AJUNOK_clean_linker_0, # of connection points: 2
#     Edge 71, Type (0, 0), BuildingBlock: AJUNOK_clean_linker_0, # of connection points: 2
#     Edge 72, Type (0, 0), BuildingBlock: AJUNOK_clean_linker_0, # of connection points: 2
#     Edge 73, Type (0, 0), BuildingBlock: AJUNOK_clean_linker_0, # of connection points: 2
#     Edge 74, Type (0, 0), BuildingBlock: AJUNOK_clean_linker_0, # of connection points: 2
#     Edge 75, Type (0, 0), BuildingBlock: AJUNOK_clean_linker_0, # of connection points: 2
#     Edge 76, Type (0, 0), BuildingBlock: AJUNOK_clean_linker_0, # of connection points: 2
#     Edge 77, Type (0, 0), BuildingBlock: AJUNOK_clean_linker_0, # of connection points: 2
#     Edge 78, Type (0, 0), BuildingBlock: AJUNOK_clean_linker_0, # of connection points: 2
#     Edge 79, Type (0, 0), BuildingBlock: AJUNOK_clean_linker_0, # of connection points: 2
#     Edge 80, Type (0, 0), BuildingBlock: AJUNOK_clean_linker_0, # of connection points: 2
#     Edge 81, Type (0, 0), BuildingBlock: AJUNOK_clean_linker_0, # of connection points: 2
#     Edge 82, Type (0, 0), BuildingBlock: AJUNOK_clean_linker_0, # of connection points: 2
#     Edge 83, Type (0, 0), BuildingBlock: AJUNOK_clean_linker_0, # of connection points: 2
#     Edge 84, Type (0, 0), BuildingBlock: AJUNOK_clean_linker_0, # of connection points: 2
#     Edge 85, Type (0, 0), BuildingBlock: AJUNOK_clean_linker_0, # of connection points: 2
#     Edge 86, Type (0, 0), BuildingBlock: AJUNOK_clean_linker_0, # of connection points: 2
#     Edge 87, Type (0, 0), BuildingBlock: AJUNOK_clean_linker_0, # of connection points: 2
#     Edge 88, Type (0, 0), BuildingBlock: AJUNOK_clean_linker_0, # of connection points: 2
#     Edge 89, Type (0, 0), BuildingBlock: AJUNOK_clean_linker_0, # of connection points: 2
#     Edge 90, Type (0, 0), BuildingBlock: AJUNOK_clean_linker_0, # of connection points: 2
#     Edge 91, Type (0, 0), BuildingBlock: AJUNOK_clean_linker_0, # of connection points: 2
#     Edge 92, Type (0, 0), BuildingBlock: AJUNOK_clean_linker_0, # of connection points: 2
#     Edge 93, Type (0, 0), BuildingBlock: AJUNOK_clean_linker_0, # of connection points: 2
#     Edge 94, Type (0, 0), BuildingBlock: AJUNOK_clean_linker_0, # of connection points: 2
#     Edge 95, Type (0, 0), BuildingBlock: AJUNOK_clean_linker_0, # of connection points: 2
#     Edge 96, Type (0, 0), BuildingBlock: AJUNOK_clean_linker_0, # of connection points: 2
#     Edge 97, Type (0, 0), BuildingBlock: AJUNOK_clean_linker_0, # of connection points: 2
#     Edge 98, Type (0, 0), BuildingBlock: AJUNOK_clean_linker_0, # of connection points: 2
#     Edge 99, Type (0, 0), BuildingBlock: AJUNOK_clean_linker_0, # of connection points: 2
#     Edge 100, Type (0, 0), BuildingBlock: AJUNOK_clean_linker_0, # of connection points: 2
#     Edge 101, Type (0, 0), BuildingBlock: AJUNOK_clean_linker_0, # of connection points: 2
#     Edge 102, Type (0, 0), BuildingBlock: AJUNOK_clean_linker_0, # of connection points: 2
#     Edge 103, Type (0, 0), BuildingBlock: AJUNOK_clean_linker_0, # of connection points: 2
#     Edge 104, Type (0, 0), BuildingBlock: AJUNOK_clean_linker_0, # of connection points: 2
#     Edge 105, Type (0, 0), BuildingBlock: AJUNOK_clean_linker_0, # of connection points: 2
#     Edge 106, Type (0, 0), BuildingBlock: AJUNOK_clean_linker_0, # of connection points: 2
#     Edge 107, Type (0, 0), BuildingBlock: AJUNOK_clean_linker_0, # of connection points: 2
#     Edge 108, Type (0, 0), BuildingBlock: AJUNOK_clean_linker_0, # of connection points: 2
#     Edge 109, Type (0, 0), BuildingBlock: AJUNOK_clean_linker_0, # of connection points: 2
#     Edge 110, Type (0, 0), BuildingBlock: AJUNOK_clean_linker_0, # of connection points: 2
#     Edge 111, Type (0, 0), BuildingBlock: AJUNOK_clean_linker_0, # of connection points: 2
#     Edge 112, Type (0, 0), BuildingBlock: AJUNOK_clean_linker_0, # of connection points: 2
#     Edge 113, Type (0, 0), BuildingBlock: AJUNOK_clean_linker_0, # of connection points: 2
#     Edge 114, Type (0, 0), BuildingBlock: AJUNOK_clean_linker_0, # of connection points: 2
#     Edge 115, Type (0, 0), BuildingBlock: AJUNOK_clean_linker_0, # of connection points: 2
#     Edge 116, Type (0, 0), BuildingBlock: AJUNOK_clean_linker_0, # of connection points: 2
#     Edge 117, Type (0, 0), BuildingBlock: AJUNOK_clean_linker_0, # of connection points: 2
#     Edge 118, Type (0, 0), BuildingBlock: AJUNOK_clean_linker_0, # of connection points: 2
#     Edge 119, Type (0, 0), BuildingBlock: AJUNOK_clean_linker_0, # of connection points: 2
#     Edge 120, Type (0, 0), BuildingBlock: AJUNOK_clean_linker_0, # of connection points: 2
#     Edge 121, Type (0, 0), BuildingBlock: AJUNOK_clean_linker_0, # of connection points: 2
#     Edge 122, Type (0, 0), BuildingBlock: AJUNOK_clean_linker_0, # of connection points: 2
#     Edge 123, Type (0, 0), BuildingBlock: AJUNOK_clean_linker_0, # of connection points: 2
#     Edge 124, Type (0, 0), BuildingBlock: AJUNOK_clean_linker_0, # of connection points: 2
#     Edge 125, Type (0, 0), BuildingBlock: AJUNOK_clean_linker_0, # of connection points: 2
# Relax obj value: 0.289
# Max RMSD: 0.182
# Mean RMSD: 0.182
data_MOF--net-wlg--node1-BEQFEK_clean_sbu_0--edge1-AJUNOK_clean_linker_0
_symmetry_space_group_name_H-M    P1
_symmetry_Int_Tables_number       1
_symmetry_cell_setting            triclinic
loop_
_symmetry_equiv_pos_as_xyz
'x, y, z'
_cell_length_a     43.251359
_cell_length_b     43.257112
_cell_length_c     52.089855
_cell_angle_alpha  90.008977
_cell_angle_beta   90.012379
_cell_angle_gamma 119.99133
loop_
_atom_site_label
_atom_site_type_symbol
_atom_site_fract_x
_atom_site_fract_y
_atom_site_fract_z
_atom_type_partial_charge
Co0 Co 0.96336 0.1842 0.14745 0.0
Co1 Co 0.02563 0.16742 0.14288 0.0
C2 C 0.95011 0.11289 0.12986 0.0
O3 O 0.93988 0.13489 0.13534 0.0
O4 O 0.98304 0.12214 0.13063 0.0
C5 C 0.89584 0.17759 0.14249 0.0
O6 O 0.89142 0.15423 0.12467 0.0
C7 C 0.06833 0.13256 0.13355 0.0
C8 C 0.12344 0.17691 0.13894 0.0
C9 C 0.10385 0.14092 0.1329 0.0
N10 N 0.06725 0.16262 0.13843 0.0
N11 N 0.1003 0.18881 0.14215 0.0
C12 C 0.03606 0.09601 0.13447 0.0
H13 H 0.01736 0.09505 0.14943 0.0
H14 H 0.02228 0.08989 0.11563 0.0
H15 H 0.04318 0.0753 0.13905 0.0
C16 C 0.01106 0.24666 0.11692 0.0
N17 N 0.00323 0.21555 0.12801 0.0
N18 N 0.02999 0.20944 0.12508 0.0
C19 C 0.05552 0.23672 0.11101 0.0
C20 C 0.04468 0.26157 0.10598 0.0
C21 C 0.98651 0.26169 0.11706 0.0
H22 H 0.95948 0.24081 0.11087 0.0
H23 H 0.99613 0.28514 0.10417 0.0
H24 H 0.98429 0.2696 0.13694 0.0
O25 O 0.97665 0.18345 0.18266 0.0
O26 O 0.01932 0.16942 0.18131 0.0
H27 H 0.11071 0.25488 0.11738 0.0
H28 H 0.09929 0.2545 0.08438 0.0
C29 C 0.08998 0.2397 0.10272 0.0
H30 H 0.08678 0.21283 0.10018 0.0
H31 H 0.10702 0.21448 0.14799 0.0
O32 O 0.92695 0.1981 0.15113 0.0
C33 C 0.99828 0.1764 0.19396 0.0
Co34 Co 0.81403 0.7784 0.14786 0.0
Co35 Co 0.82786 0.85648 0.14159 0.0
C36 C 0.88493 0.83886 0.13071 0.0
O37 O 0.86394 0.80682 0.13724 0.0
O38 O 0.87438 0.86152 0.13005 0.0
C39 C 0.82412 0.71935 0.13965 0.0
O40 O 0.85198 0.74272 0.12655 0.0
C41 C 0.86041 0.93386 0.13349 0.0
C42 C 0.81401 0.94199 0.13466 0.0
C43 C 0.85072 0.95996 0.13123 0.0
N44 N 0.83068 0.90195 0.13691 0.0
N45 N 0.80317 0.90723 0.13823 0.0
C46 C 0.89738 0.93973 0.13682 0.0
H47 H 0.89721 0.9204 0.15085 0.0
H48 H 0.90716 0.93586 0.11809 0.0
H49 H 0.91604 0.96699 0.14398 0.0
C50 C 0.75185 0.76168 0.11553 0.0
N51 N 0.78229 0.78561 0.12721 0.0
N52 N 0.78785 0.81813 0.12337 0.0
C53 C 0.76114 0.81556 0.10824 0.0
C54 C 0.73727 0.77979 0.10321 0.0
C55 C 0.73612 0.72213 0.11762 0.0
H56 H 0.73453 0.71459 0.13814 0.0
H57 H 0.75398 0.71431 0.10786 0.0
H58 H 0.70914 0.70743 0.10888 0.0
O59 O 0.8129 0.79161 0.18337 0.0
O60 O 0.82364 0.8473 0.17981 0.0
H61 H 0.74169 0.85222 0.10954 0.0
H62 H 0.74644 0.83929 0.07787 0.0
C63 C 0.75896 0.84629 0.09719 0.0
H64 H 0.78592 0.87011 0.09558 0.0
H65 H 0.77717 0.88738 0.1425 0.0
O66 O 0.80242 0.72822 0.14879 0.0
C67 C 0.81808 0.8205 0.19349 0.0
Co68 Co 0.21929 0.03327 0.1504 0.0
Co69 Co 0.14145 0.96808 0.14602 0.0
C70 C 0.15915 0.04319 0.13348 0.0
O71 O 0.19168 0.05532 0.13912 0.0
O72 O 0.13692 0.0099 0.13437 0.0
C73 C 0.27836 0.10119 0.1415 0.0
O74 O 0.25778 0.10202 0.1233 0.0
C75 C 0.06428 0.92559 0.13605 0.0
C76 C 0.05314 0.87011 0.13915 0.0
C77 C 0.03718 0.89029 0.1337 0.0
N78 N 0.09518 0.92621 0.14101 0.0
N79 N 0.08803 0.89287 0.14351 0.0
C80 C 0.05965 0.95751 0.13889 0.0
H81 H 0.07709 0.97499 0.15448 0.0
H82 H 0.0672 0.97273 0.12066 0.0
H83 H 0.0317 0.94972 0.14367 0.0
C84 C 0.23595 0.98792 0.11808 0.0
N85 N 0.21205 0.99407 0.13013 0.0
N86 N 0.17972 0.96627 0.12741 0.0
C87 C 0.18238 0.9418 0.1127 0.0
C88 C 0.21815 0.95457 0.10664 0.0
C89 C 0.27529 0.01357 0.11804 0.0
H90 H 0.28034 0.04026 0.11191 0.0
H91 H 0.28968 0.00474 0.10501 0.0
H92 H 0.28575 0.01617 0.13786 0.0
O93 O 0.20579 0.01945 0.18583 0.0
O94 O 0.1507 0.97321 0.18433 0.0
H95 H 0.1474 0.88694 0.12136 0.0
H96 H 0.15748 0.89536 0.08806 0.0
C97 C 0.15181 0.90599 0.10566 0.0
H98 H 0.1274 0.90775 0.10255 0.0
H99 H 0.10658 0.88558 0.14926 0.0
O100 O 0.26909 0.07184 0.15282 0.0
C101 C 0.17786 0.99597 0.19703 0.0
Co102 Co 0.18008 0.96605 0.35752 0.0
Co103 Co 0.17497 0.03546 0.35762 0.0
C104 C 0.11291 0.96274 0.37243 0.0
O105 O 0.13195 0.94807 0.37126 0.0
O106 O 0.12619 0.9958 0.3674 0.0
C107 C 0.16237 0.899 0.34485 0.0
O108 O 0.13723 0.90362 0.33459 0.0
C109 C 0.15182 0.08501 0.37519 0.0
C110 C 0.18094 0.13053 0.34901 0.0
C111 C 0.15463 0.11705 0.36768 0.0
N112 N 0.1751 0.0796 0.36156 0.0
N113 N 0.19307 0.10745 0.34634 0.0
C114 C 0.12489 0.0585 0.39339 0.0
H115 H 0.10058 0.03971 0.38262 0.0
H116 H 0.13582 0.04315 0.40305 0.0
H117 H 0.11722 0.0722 0.40794 0.0
C118 C 0.24501 0.01189 0.38842 0.0
N119 N 0.21503 0.00586 0.37624 0.0
N120 N 0.21313 0.0353 0.37635 0.0
C121 C 0.24226 0.06123 0.38838 0.0
C122 C 0.26353 0.04728 0.39655 0.0
C123 C 0.25585 0.98426 0.39167 0.0
H124 H 0.23202 0.95795 0.39575 0.0
H125 H 0.27553 0.99143 0.40745 0.0
H126 H 0.26793 0.98192 0.37351 0.0
O127 O 0.17982 0.97784 0.32079 0.0
O128 O 0.17994 0.02914 0.32033 0.0
H129 H 0.27821 0.1171 0.3974 0.0
H130 H 0.23093 0.10177 0.40043 0.0
C131 C 0.25141 0.09947 0.38909 0.0
H132 H 0.25088 0.10855 0.36928 0.0
H133 H 0.21165 0.10939 0.33272 0.0
O134 O 0.18729 0.92469 0.3573 0.0
C135 C 0.18006 0.00338 0.30856 0.0
Co136 Co 0.03447 0.21701 0.34674 0.0
Co137 Co 0.9712 0.14095 0.35889 0.0
C138 C 0.04646 0.15862 0.36696 0.0
O139 O 0.05781 0.1906 0.35992 0.0
O140 O 0.01321 0.13612 0.36787 0.0
C141 C 0.10225 0.2778 0.3525 0.0
O142 O 0.10447 0.25964 0.37192 0.0
C143 C 0.92589 0.06467 0.36875 0.0
C144 C 0.87262 0.05824 0.37523 0.0
C145 C 0.89072 0.03934 0.37422 0.0
N146 N 0.92869 0.09703 0.36755 0.0
N147 N 0.89658 0.0929 0.37103 0.0
C148 C 0.95486 0.05782 0.36006 0.0
H149 H 0.97008 0.07665 0.34439 0.0
H150 H 0.9732 0.0623 0.37634 0.0
H151 H 0.94406 0.03022 0.35277 0.0
C152 C 0.98982 0.23831 0.37532 0.0
N153 N 0.99703 0.21314 0.36725 0.0
N154 N 0.97314 0.18184 0.37617 0.0
C155 C 0.95243 0.18691 0.3932 0.0
C156 C 0.96173 0.22312 0.39309 0.0
C157 C 0.00529 0.27361 0.36189 0.0
H158 H 0.01094 0.27055 0.34154 0.0
H159 H 0.03116 0.2928 0.37086 0.0
H160 H 0.9867 0.28428 0.36232 0.0
O161 O 0.01693 0.19987 0.31302 0.0
O162 O 0.97134 0.14529 0.31982 0.0
H163 H 0.89987 0.14678 0.40495 0.0
H164 H 0.92968 0.17053 0.43087 0.0
C165 C 0.92783 0.15871 0.41162 0.0
H166 H 0.93472 0.13726 0.41315 0.0
H167 H 0.89059 0.11333 0.36921 0.0
O168 O 0.07254 0.26624 0.34118 0.0
C169 C 0.99176 0.17062 0.30469 0.0
Co170 Co 0.77876 0.81582 0.35196 0.0
Co171 Co 0.85747 0.83117 0.35541 0.0
C172 C 0.83692 0.88665 0.36882 0.0
O173 O 0.80424 0.86475 0.36474 0.0
O174 O 0.86034 0.87723 0.36625 0.0
C175 C 0.71755 0.82078 0.36159 0.0
O176 O 0.73726 0.84176 0.38027 0.0
C177 C 0.93135 0.86233 0.37354 0.0
C178 C 0.9505 0.83103 0.35233 0.0
C179 C 0.96165 0.86019 0.36843 0.0
N180 N 0.9036 0.83606 0.36078 0.0
N181 N 0.91516 0.81705 0.34847 0.0
C182 C 0.9292 0.88969 0.38976 0.0
H183 H 0.92929 0.91033 0.3771 0.0
H184 H 0.90399 0.87701 0.40094 0.0
H185 H 0.95231 0.90278 0.40305 0.0
C186 C 0.76546 0.75392 0.38386 0.0
N187 N 0.78773 0.78445 0.37158 0.0
N188 N 0.8206 0.79022 0.37305 0.0
C189 C 0.82008 0.76305 0.38624 0.0
C190 C 0.78512 0.73919 0.39356 0.0
C191 C 0.72582 0.73824 0.38466 0.0
H192 H 0.71552 0.73564 0.3648 0.0
H193 H 0.71947 0.75672 0.39514 0.0
H194 H 0.7123 0.71171 0.39412 0.0
O195 O 0.79335 0.81788 0.31614 0.0
O196 O 0.84841 0.82648 0.31745 0.0
H197 H 0.86104 0.75306 0.37328 0.0
H198 H 0.84647 0.73852 0.40578 0.0
C199 C 0.85228 0.75972 0.39144 0.0
H200 H 0.87437 0.78557 0.3985 0.0
H201 H 0.89935 0.7957 0.33633 0.0
O202 O 0.72825 0.80229 0.34963 0.0
C203 C 0.82133 0.82243 0.30487 0.0
Co204 Co 0.03447 0.8161 0.85354 0.0
Co205 Co 0.96829 0.82672 0.85547 0.0
C206 C 0.04219 0.88549 0.87036 0.0
O207 O 0.05562 0.86567 0.86628 0.0
O208 O 0.00892 0.87356 0.86714 0.0
C209 C 0.10321 0.82405 0.85956 0.0
O210 O 0.10735 0.84789 0.87685 0.0
C211 C 0.92087 0.84979 0.87709 0.0
C212 C 0.87969 0.8329 0.84695 0.0
C213 C 0.89182 0.85303 0.86924 0.0
N214 N 0.92605 0.8297 0.85983 0.0
N215 N 0.90091 0.8191 0.84213 0.0
C216 C 0.94284 0.86424 0.90092 0.0
H217 H 0.94941 0.84433 0.90873 0.0
H218 H 0.92844 0.87081 0.91563 0.0
H219 H 0.96844 0.88857 0.89622 0.0
C220 C 0.98751 0.75279 0.88487 0.0
N221 N 0.99459 0.78317 0.87288 0.0
N222 N 0.96593 0.78644 0.87311 0.0
C223 C 0.9393 0.7576 0.88494 0.0
C224 C 0.95208 0.73517 0.89289 0.0
C225 C 0.01439 0.74095 0.88823 0.0
H226 H 0.04114 0.76442 0.89184 0.0
H227 H 0.00708 0.72184 0.9044 0.0
H228 H 0.01583 0.72788 0.8703 0.0
O229 O 0.02086 0.81511 0.81745 0.0
O230 O 0.97458 0.82391 0.81775 0.0
H231 H 0.89416 0.75674 0.86728 0.0
H232 H 0.88267 0.72177 0.89067 0.0
C233 C 0.90161 0.75014 0.88602 0.0
H234 H 0.89957 0.76751 0.90081 0.0
H235 H 0.89959 0.80433 0.82592 0.0
O236 O 0.07236 0.80388 0.85036 0.0
C237 C 0.99742 0.81909 0.80568 0.0
Co238 Co 0.18731 0.22042 0.84371 0.0
Co239 Co 0.16909 0.14163 0.85343 0.0
C240 C 0.1151 0.16404 0.86227 0.0
O241 O 0.13679 0.19506 0.85404 0.0
O242 O 0.12424 0.14039 0.86436 0.0
C243 C 0.18239 0.28181 0.85189 0.0
O244 O 0.16167 0.2625 0.87082 0.0
C245 C 0.13721 0.06751 0.8723 0.0
C246 C 0.1716 0.04987 0.85375 0.0
C247 C 0.14101 0.03779 0.86848 0.0
N248 N 0.16406 0.09567 0.8602 0.0
N249 N 0.18468 0.08491 0.84935 0.0
C250 C 0.10863 0.06921 0.88732 0.0
H251 H 0.12047 0.09449 0.89838 0.0
H252 H 0.09525 0.04635 0.90077 0.0
H253 H 0.08848 0.06872 0.87388 0.0
C254 C 0.24846 0.23601 0.877 0.0
N255 N 0.21723 0.21272 0.86597 0.0
N256 N 0.2107 0.17991 0.86987 0.0
C257 C 0.23787 0.18145 0.88376 0.0
C258 C 0.26299 0.21715 0.88847 0.0
C259 C 0.2641 0.27564 0.87606 0.0
H260 H 0.24326 0.28242 0.88106 0.0
H261 H 0.28693 0.28954 0.88948 0.0
H262 H 0.27312 0.28513 0.85619 0.0
O263 O 0.18998 0.20469 0.8092 0.0
O264 O 0.17244 0.14732 0.81498 0.0
H265 H 0.26228 0.15598 0.90483 0.0
H266 H 0.21528 0.1278 0.89752 0.0
C267 C 0.2412 0.14957 0.89029 0.0
H268 H 0.24813 0.13999 0.87266 0.0
H269 H 0.20676 0.10111 0.83792 0.0
O270 O 0.20035 0.27064 0.83977 0.0
C271 C 0.1819 0.17424 0.8004 0.0
Co272 Co 0.7843 0.96411 0.85555 0.0
Co273 Co 0.86154 0.03046 0.86027 0.0
C274 C 0.84436 0.95592 0.87642 0.0
O275 O 0.81175 0.94374 0.87077 0.0
O276 O 0.86686 0.98915 0.87375 0.0
C277 C 0.72458 0.89507 0.86171 0.0
O278 O 0.74464 0.89219 0.87936 0.0
C279 C 0.93865 0.07903 0.86845 0.0
C280 C 0.94533 0.1322 0.86141 0.0
C281 C 0.96397 0.11504 0.86805 0.0
N282 N 0.90624 0.07498 0.86381 0.0
N283 N 0.91061 0.10699 0.85913 0.0
C284 C 0.94602 0.04889 0.86882 0.0
H285 H 0.92704 0.02707 0.85613 0.0
H286 H 0.94296 0.03938 0.88887 0.0
H287 H 0.97352 0.05732 0.86226 0.0
C288 C 0.76542 0.01135 0.88385 0.0
N289 N 0.7899 0.00461 0.87339 0.0
N290 N 0.82214 0.03218 0.877 0.0
C291 C 0.81886 0.05686 0.89097 0.0
C292 C 0.78283 0.04471 0.8953 0.0
C293 C 0.72606 0.98598 0.88287 0.0
H294 H 0.72021 0.96002 0.89125 0.0
H295 H 0.71093 0.9964 0.89348 0.0
H296 H 0.71723 0.98111 0.86254 0.0
O297 O 0.79971 0.97552 0.82003 0.0
O298 O 0.85342 0.02363 0.82209 0.0
H299 H 0.85439 0.11271 0.88608 0.0
H300 H 0.84262 0.09939 0.91872 0.0
C301 C 0.84928 0.09149 0.90019 0.0
H302 H 0.87358 0.08935 0.90268 0.0
H303 H 0.8902 0.11155 0.85322 0.0
O304 O 0.73446 0.92549 0.85193 0.0
C305 C 0.8276 0.99953 0.80913 0.0
Co306 Co 0.81851 0.03406 0.65144 0.0
Co307 Co 0.83031 0.96885 0.64635 0.0
C308 C 0.88736 0.04431 0.63174 0.0
O309 O 0.86669 0.05648 0.63662 0.0
O310 O 0.87678 0.01121 0.63474 0.0
C311 C 0.82179 0.10035 0.64347 0.0
O312 O 0.84193 0.10275 0.62387 0.0
C313 C 0.85774 0.92293 0.62805 0.0
C314 C 0.82538 0.87375 0.65036 0.0
C315 C 0.85431 0.89012 0.63391 0.0
N316 N 0.83243 0.92617 0.64072 0.0
N317 N 0.81266 0.89628 0.6536 0.0
C318 C 0.88596 0.95145 0.61169 0.0
H319 H 0.90744 0.97127 0.62417 0.0
H320 H 0.87451 0.96525 0.60059 0.0
H321 H 0.89771 0.94007 0.59836 0.0
C322 C 0.75393 0.9871 0.62103 0.0
N323 N 0.78481 0.99422 0.63232 0.0
N324 N 0.78923 0.96636 0.63008 0.0
C325 C 0.76088 0.94038 0.61736 0.0
C326 C 0.73754 0.95265 0.61121 0.0
C327 C 0.7395 0.01214 0.62136 0.0
H328 H 0.73777 0.01947 0.6415 0.0
H329 H 0.7583 0.03702 0.61109 0.0
H330 H 0.71274 0.00021 0.61231 0.0
O331 O 0.82205 0.02117 0.68704 0.0
O332 O 0.82761 0.97307 0.68439 0.0
H333 H 0.7491 0.8885 0.62941 0.0
H334 H 0.73434 0.88992 0.59722 0.0
C335 C 0.75599 0.90438 0.61146 0.0
H336 H 0.7813 0.90724 0.60396 0.0
H337 H 0.79196 0.8922 0.66596 0.0
O338 O 0.80548 0.07111 0.65563 0.0
C339 C 0.8254 0.99662 0.69767 0.0
Co340 Co 0.96652 0.78094 0.64779 0.0
Co341 Co 0.03267 0.8579 0.64456 0.0
C342 C 0.95788 0.84247 0.63326 0.0
O343 O 0.94461 0.80918 0.63656 0.0
O344 O 0.99123 0.86367 0.63556 0.0
C345 C 0.89775 0.72204 0.64001 0.0
O346 O 0.89586 0.74305 0.62267 0.0
C347 C 0.07623 0.92933 0.62341 0.0
C348 C 0.12474 0.95129 0.6473 0.0
C349 C 0.10779 0.96044 0.62874 0.0
N350 N 0.07429 0.90303 0.6383 0.0
N351 N 0.10374 0.91622 0.65223 0.0
C352 C 0.04774 0.92512 0.60506 0.0
H353 H 0.02693 0.92783 0.61554 0.0
H354 H 0.03503 0.89822 0.59614 0.0
H355 H 0.05903 0.94597 0.58993 0.0
C356 C 0.01225 0.76466 0.61478 0.0
N357 N 0.00534 0.78791 0.62704 0.0
N358 N 0.03376 0.81998 0.62615 0.0
C359 C 0.05995 0.81799 0.61347 0.0
C360 C 0.04721 0.78275 0.60578 0.0
C361 C 0.986 0.72561 0.61255 0.0
H362 H 0.9589 0.72149 0.60907 0.0
H363 H 0.99328 0.71324 0.59674 0.0
H364 H 0.98542 0.7123 0.6309 0.0
O365 O 0.98216 0.7941 0.68367 0.0
O366 O 0.0288 0.84915 0.68224 0.0
H367 H 0.11583 0.83998 0.60351 0.0
H368 H 0.09809 0.86986 0.59979 0.0
C369 C 0.09751 0.84834 0.61174 0.0
H370 H 0.10704 0.85935 0.6312 0.0
H371 H 0.10845 0.90187 0.66628 0.0
O372 O 0.9277 0.73114 0.65036 0.0
C373 C 0.00643 0.82176 0.69481 0.0
Co374 Co 0.21638 0.17686 0.64053 0.0
Co375 Co 0.14135 0.1705 0.64067 0.0
C376 C 0.15429 0.11051 0.62348 0.0
O377 O 0.18795 0.12975 0.62485 0.0
O378 O 0.1342 0.12317 0.62929 0.0
C379 C 0.26575 0.16015 0.65469 0.0
O380 O 0.23529 0.13123 0.65981 0.0
C381 C 0.06834 0.14528 0.62264 0.0
C382 C 0.05078 0.17388 0.64848 0.0
C383 C 0.03859 0.14728 0.63001 0.0
N384 N 0.09665 0.16908 0.6364 0.0
N385 N 0.08603 0.18653 0.65151 0.0
C386 C 0.06965 0.1209 0.60287 0.0
H387 H 0.09644 0.13348 0.5938 0.0
H388 H 0.04892 0.11437 0.58797 0.0
H389 H 0.06434 0.09569 0.61212 0.0
C390 C 0.23602 0.24347 0.61275 0.0
N391 N 0.21154 0.21244 0.62332 0.0
N392 N 0.18024 0.21064 0.62354 0.0
C393 C 0.18403 0.24101 0.61324 0.0
C394 C 0.21969 0.26309 0.60623 0.0
C395 C 0.27435 0.25382 0.60926 0.0
H396 H 0.27611 0.23034 0.6027 0.0
H397 H 0.28784 0.27585 0.59517 0.0
H398 H 0.28828 0.26238 0.62802 0.0
O399 O 0.20274 0.17483 0.67673 0.0
O400 O 0.15067 0.17292 0.67827 0.0
H401 H 0.14592 0.25009 0.63273 0.0
H402 H 0.16361 0.27646 0.60401 0.0
C403 C 0.15483 0.25001 0.61278 0.0
H404 H 0.13166 0.22908 0.60201 0.0
H405 H 0.1023 0.20543 0.66509 0.0
O406 O 0.26548 0.18622 0.64359 0.0
C407 C 0.17725 0.17378 0.68948 0.0
Co408 Co 0.6335 0.51889 0.48015 0.0
Co409 Co 0.69875 0.50655 0.47791 0.0
C410 C 0.62389 0.44854 0.46405 0.0
O411 O 0.61125 0.46905 0.46802 0.0
O412 O 0.65711 0.45981 0.46691 0.0
C413 C 0.56552 0.51241 0.47394 0.0
O414 O 0.56125 0.489 0.45625 0.0
C415 C 0.74442 0.47836 0.46096 0.0
C416 C 0.79123 0.50716 0.48626 0.0
C417 C 0.77572 0.47955 0.46863 0.0
N418 N 0.74115 0.50351 0.47386 0.0
N419 N 0.76965 0.52114 0.48857 0.0
C420 C 0.7177 0.45324 0.44197 0.0
H421 H 0.70656 0.46726 0.43077 0.0
H422 H 0.73006 0.44229 0.42882 0.0
H423 H 0.69541 0.43079 0.45227 0.0
C424 C 0.68104 0.58174 0.44909 0.0
N425 N 0.67336 0.55088 0.46056 0.0
N426 N 0.70159 0.54687 0.45997 0.0
C427 C 0.72844 0.57554 0.44812 0.0
C428 C 0.71642 0.59888 0.44105 0.0
C429 C 0.65486 0.5946 0.4465 0.0
H430 H 0.62851 0.57209 0.44061 0.0
H431 H 0.66393 0.61649 0.43224 0.0
H432 H 0.6514 0.60422 0.46545 0.0
O433 O 0.64758 0.52047 0.51605 0.0
O434 O 0.69309 0.51042 0.51563 0.0
H435 H 0.78328 0.60652 0.43509 0.0
H436 H 0.76524 0.55866 0.4369 0.0
C437 C 0.7657 0.582 0.44614 0.0
H438 H 0.77681 0.58467 0.46574 0.0
H439 H 0.7732 0.54109 0.50149 0.0
O440 O 0.59637 0.53209 0.48329 0.0
C441 C 0.67097 0.51631 0.52771 0.0
Co442 Co 0.48515 0.1162 0.48464 0.0
Co443 Co 0.49724 0.19338 0.47962 0.0
C444 C 0.55386 0.17431 0.46491 0.0
O445 O 0.53324 0.1414 0.46954 0.0
O446 O 0.54341 0.19682 0.46844 0.0
C447 C 0.48921 0.05325 0.47896 0.0
O448 O 0.51018 0.07052 0.45958 0.0
C449 C 0.5266 0.26705 0.46092 0.0
C450 C 0.49313 0.28423 0.4814 0.0
C451 C 0.52288 0.29657 0.46572 0.0
N452 N 0.50066 0.23873 0.47347 0.0
N453 N 0.48044 0.24915 0.48538 0.0
C454 C 0.55454 0.26589 0.44473 0.0
H455 H 0.54298 0.24003 0.43442 0.0
H456 H 0.56578 0.28807 0.4306 0.0
H457 H 0.57641 0.26854 0.45728 0.0
C458 C 0.42079 0.0988 0.45405 0.0
N459 N 0.45166 0.12251 0.46536 0.0
N460 N 0.45626 0.15486 0.46302 0.0
C461 C 0.42806 0.15258 0.45012 0.0
C462 C 0.40458 0.11695 0.44404 0.0
C463 C 0.40612 0.0593 0.45472 0.0
H464 H 0.40481 0.05061 0.47493 0.0
H465 H 0.42457 0.05285 0.44431 0.0
H466 H 0.37914 0.04443 0.44603 0.0
O467 O 0.48833 0.13295 0.52009 0.0
O468 O 0.49334 0.18638 0.5177 0.0
H469 H 0.41599 0.19269 0.46165 0.0
H470 H 0.40248 0.17686 0.42923 0.0
C471 C 0.42355 0.18385 0.44393 0.0
H472 H 0.44917 0.2063 0.43689 0.0
H473 H 0.45909 0.23275 0.49733 0.0
O474 O 0.47184 0.06611 0.48973 0.0
C475 C 0.49096 0.16047 0.53088 0.0
Co476 Co 0.8803 0.36357 0.49044 0.0
Co477 Co 0.80558 0.29938 0.4761 0.0
C478 C 0.8212 0.37422 0.46982 0.0
O479 O 0.85307 0.38617 0.47746 0.0
O480 O 0.79972 0.34086 0.46799 0.0
C481 C 0.94048 0.43206 0.48519 0.0
O482 O 0.9223 0.4338 0.46559 0.0
C483 C 0.73422 0.25488 0.45425 0.0
C484 C 0.71725 0.20326 0.47313 0.0
C485 C 0.70474 0.22137 0.45836 0.0
N486 N 0.76249 0.25686 0.46659 0.0
N487 N 0.75233 0.22552 0.4773 0.0
C488 C 0.7354 0.28456 0.43877 0.0
H489 H 0.76187 0.30024 0.42943 0.0
H490 H 0.7141 0.27389 0.42394 0.0
H491 H 0.73112 0.30249 0.45154 0.0
C492 C 0.90413 0.32088 0.46168 0.0
N493 N 0.8783 0.32756 0.46904 0.0
N494 N 0.8474 0.30265 0.4602 0.0
C495 C 0.85304 0.28106 0.44456 0.0
C496 C 0.88961 0.29165 0.44481 0.0
C497 C 0.9393 0.3375 0.47542 0.0
H498 H 0.93568 0.34318 0.49564 0.0
H499 H 0.95804 0.36347 0.46636 0.0
H500 H 0.95087 0.31967 0.47541 0.0
O501 O 0.86195 0.34406 0.52382 0.0
O502 O 0.80832 0.29799 0.51497 0.0
H503 H 0.81213 0.2265 0.44065 0.0
H504 H 0.8339 0.24773 0.41083 0.0
C505 C 0.82372 0.25162 0.42939 0.0
H506 H 0.80219 0.25787 0.42559 0.0
H507 H 0.76866 0.22018 0.48904 0.0
O508 O 0.92897 0.4026 0.49687 0.0
C509 C 0.83257 0.31782 0.53097 0.0
Co510 Co 0.84511 0.2951 0.6906 0.0
Co511 Co 0.83668 0.36286 0.68954 0.0
C512 C 0.77795 0.29029 0.70759 0.0
O513 O 0.79746 0.27618 0.70582 0.0
O514 O 0.79008 0.32298 0.70194 0.0
C515 C 0.83332 0.22495 0.69463 0.0
O516 O 0.80583 0.21986 0.7085 0.0
C517 C 0.8114 0.41103 0.70616 0.0
C518 C 0.84022 0.4567 0.67995 0.0
C519 C 0.81377 0.44279 0.69849 0.0
N520 N 0.83515 0.40614 0.6927 0.0
N521 N 0.85277 0.43394 0.67737 0.0
C522 C 0.7852 0.38471 0.72483 0.0
H523 H 0.79771 0.37176 0.73572 0.0
H524 H 0.77565 0.398 0.73833 0.0
H525 H 0.76186 0.36381 0.71424 0.0
C526 C 0.91124 0.34444 0.71869 0.0
N527 N 0.8803 0.33678 0.70726 0.0
N528 N 0.87733 0.36561 0.70674 0.0
C529 C 0.90668 0.39277 0.7177 0.0
C530 C 0.92926 0.38027 0.7257 0.0
C531 C 0.92326 0.31779 0.72252 0.0
H532 H 0.90004 0.29137 0.72736 0.0
H533 H 0.94354 0.3263 0.738 0.0
H534 H 0.93502 0.31498 0.70436 0.0
O535 O 0.84095 0.30433 0.65409 0.0
O536 O 0.83721 0.35351 0.65224 0.0
H537 H 0.91375 0.43907 0.69798 0.0
H538 H 0.94098 0.44905 0.72629 0.0
C539 C 0.91443 0.43057 0.71793 0.0
H540 H 0.89335 0.4322 0.72897 0.0
H541 H 0.87163 0.4362 0.66389 0.0
O542 O 0.85658 0.25651 0.6883 0.0
C543 C 0.83771 0.32748 0.64122 0.0
Co544 Co 0.70247 0.55269 0.68604 0.0
Co545 Co 0.63607 0.47583 0.68826 0.0
C546 C 0.71068 0.49088 0.70015 0.0
O547 O 0.72415 0.52427 0.69724 0.0
O548 O 0.67734 0.46983 0.69746 0.0
C549 C 0.77166 0.61217 0.692 0.0
O550 O 0.77585 0.59092 0.70783 0.0
C551 C 0.59189 0.4045 0.70929 0.0
C552 C 0.54495 0.382 0.68373 0.0
C553 C 0.56102 0.37298 0.70308 0.0
N554 N 0.59436 0.43061 0.69391 0.0
N555 N 0.56584 0.41713 0.679 0.0
C556 C 0.61843 0.41004 0.72981 0.0
H557 H 0.62834 0.43659 0.73887 0.0
H558 H 0.60633 0.38874 0.74458 0.0
H559 H 0.64167 0.40965 0.72124 0.0
C560 C 0.65637 0.56872 0.71851 0.0
N561 N 0.66342 0.54544 0.70644 0.0
N562 N 0.63482 0.51345 0.70688 0.0
C563 C 0.60842 0.51557 0.71909 0.0
C564 C 0.62125 0.55065 0.72694 0.0
C565 C 0.68165 0.6081 0.71931 0.0
H566 H 0.68547 0.61898 0.69954 0.0
H567 H 0.70803 0.61331 0.7264 0.0
H568 H 0.67155 0.62194 0.73176 0.0
O569 O 0.68722 0.54021 0.65015 0.0
O570 O 0.64033 0.48535 0.65065 0.0
H571 H 0.55928 0.47655 0.70218 0.0
H572 H 0.55425 0.49269 0.73311 0.0
C573 C 0.57106 0.48514 0.72159 0.0
H574 H 0.57146 0.4622 0.73078 0.0
H575 H 0.56172 0.43139 0.66455 0.0
O576 O 0.74066 0.6027 0.68355 0.0
C577 C 0.66295 0.51309 0.63854 0.0
Co578 Co 0.45058 0.15456 0.69075 0.0
Co579 Co 0.52646 0.16235 0.69229 0.0
C580 C 0.51305 0.22231 0.70784 0.0
O581 O 0.47964 0.20268 0.70487 0.0
O582 O 0.53395 0.21011 0.70351 0.0
C583 C 0.39236 0.16658 0.69717 0.0
O584 O 0.41543 0.19371 0.71098 0.0
C585 C 0.59786 0.18452 0.71248 0.0
C586 C 0.61801 0.16146 0.68389 0.0
C587 C 0.62837 0.18429 0.70478 0.0
N588 N 0.57078 0.16317 0.6968 0.0
N589 N 0.58287 0.14866 0.68015 0.0
C590 C 0.5956 0.20706 0.7333 0.0
H591 H 0.56745 0.19717 0.73888 0.0
H592 H 0.61103 0.20684 0.75027 0.0
H593 H 0.60796 0.23504 0.72663 0.0
C594 C 0.43253 0.08941 0.72074 0.0
N595 N 0.45631 0.11999 0.70916 0.0
N596 N 0.48807 0.12287 0.7098 0.0
C597 C 0.48535 0.0938 0.72157 0.0
C598 C 0.44996 0.07152 0.72899 0.0
C599 C 0.39374 0.07757 0.72348 0.0
H600 H 0.39051 0.1008 0.72822 0.0
H601 H 0.38099 0.05696 0.73864 0.0
H602 H 0.3801 0.06639 0.70491 0.0
O603 O 0.46445 0.15671 0.65438 0.0
O604 O 0.51676 0.15882 0.65465 0.0
H605 H 0.50618 0.0585 0.73006 0.0
H606 H 0.53646 0.10562 0.73574 0.0
C607 C 0.51526 0.08588 0.72293 0.0
H608 H 0.527 0.08877 0.70356 0.0
H609 H 0.56783 0.13225 0.66499 0.0
O610 O 0.40064 0.14399 0.68898 0.0
C611 C 0.49087 0.15823 0.64254 0.0
Co612 Co 0.70435 0.15087 0.18928 0.0
Co613 Co 0.64167 0.16669 0.19344 0.0
C614 C 0.71635 0.22138 0.20872 0.0
O615 O 0.72742 0.20013 0.20265 0.0
O616 O 0.68332 0.21167 0.20694 0.0
C617 C 0.77001 0.1539 0.19869 0.0
O618 O 0.77207 0.17421 0.21808 0.0
C619 C 0.59586 0.19848 0.20117 0.0
C620 C 0.54191 0.1519 0.1964 0.0
C621 C 0.55977 0.1882 0.20158 0.0
N622 N 0.59887 0.16938 0.19699 0.0
N623 N 0.56651 0.14181 0.19357 0.0
C624 C 0.62694 0.23574 0.20048 0.0
H625 H 0.6479 0.23707 0.18752 0.0
H626 H 0.63817 0.2436 0.2201 0.0
H627 H 0.61901 0.25496 0.19341 0.0
C628 C 0.65641 0.08796 0.21974 0.0
N629 N 0.66413 0.11879 0.20817 0.0
N630 N 0.63739 0.12492 0.21099 0.0
C631 C 0.61204 0.09811 0.2254 0.0
C632 C 0.62306 0.07366 0.23095 0.0
C633 C 0.67997 0.07183 0.21869 0.0
H634 H 0.68721 0.07058 0.19844 0.0
H635 H 0.70503 0.08924 0.22931 0.0
H636 H 0.66685 0.04463 0.2271 0.0
O637 O 0.69189 0.15177 0.15364 0.0
O638 O 0.64897 0.16546 0.15523 0.0
H639 H 0.55638 0.08058 0.22276 0.0
H640 H 0.57231 0.08351 0.25483 0.0
C641 C 0.57915 0.09675 0.23576 0.0
H642 H 0.58315 0.12402 0.23769 0.0
H643 H 0.56124 0.11636 0.18836 0.0
O644 O 0.74073 0.13689 0.18666 0.0
C645 C 0.67023 0.15894 0.14247 0.0
Co646 Co 0.84152 0.54575 0.19095 0.0
Co647 Co 0.83856 0.47266 0.19157 0.0
C648 C 0.77738 0.48311 0.20979 0.0
O649 O 0.79593 0.51681 0.20839 0.0
O650 O 0.79058 0.4637 0.20337 0.0
C651 C 0.82077 0.59215 0.17739 0.0
O652 O 0.79326 0.56071 0.17204 0.0
C653 C 0.81764 0.40229 0.21241 0.0
C654 C 0.84286 0.38264 0.18513 0.0
C655 C 0.81903 0.37204 0.20548 0.0
N656 N 0.83899 0.42917 0.19662 0.0
N657 N 0.85453 0.4174 0.18065 0.0
C658 C 0.79626 0.40564 0.23368 0.0
H659 H 0.81018 0.43326 0.24139 0.0
H660 H 0.79184 0.38635 0.24927 0.0
H661 H 0.76993 0.39984 0.22624 0.0
C662 C 0.9102 0.56879 0.21773 0.0
N663 N 0.87926 0.5435 0.20743 0.0
N664 N 0.8783 0.51262 0.20784 0.0
C665 C 0.90905 0.51742 0.21813 0.0
C666 C 0.93056 0.55334 0.22465 0.0
C667 C 0.9195 0.60685 0.221 0.0
H668 H 0.89556 0.60794 0.22731 0.0
H669 H 0.94131 0.62088 0.23519 0.0
H670 H 0.92799 0.62068 0.20221 0.0
O671 O 0.83678 0.53026 0.15476 0.0
O672 O 0.84011 0.48084 0.15394 0.0
H673 H 0.94647 0.49897 0.22608 0.0
H674 H 0.89983 0.46707 0.23207 0.0
C675 C 0.91877 0.48876 0.21922 0.0
H676 H 0.91604 0.47719 0.19979 0.0
H677 H 0.87127 0.43243 0.16563 0.0
O678 O 0.84821 0.59383 0.18777 0.0
C679 C 0.83711 0.50515 0.14239 0.0
Co680 Co 0.44454 0.29697 0.18708 0.0
Co681 Co 0.52279 0.3605 0.19121 0.0
C682 C 0.50257 0.28439 0.20366 0.0
O683 O 0.46974 0.27333 0.19993 0.0
O684 O 0.52574 0.31729 0.2013 0.0
C685 C 0.38289 0.23009 0.19376 0.0
O686 O 0.40185 0.22676 0.21211 0.0
C687 C 0.59546 0.40221 0.21117 0.0
C688 C 0.61707 0.45169 0.18839 0.0
C689 C 0.62662 0.43376 0.20584 0.0
N690 N 0.56879 0.40116 0.19722 0.0
N691 N 0.5818 0.43113 0.18392 0.0
C692 C 0.59131 0.37321 0.22891 0.0
H693 H 0.56518 0.36147 0.23889 0.0
H694 H 0.61326 0.38355 0.24324 0.0
H695 H 0.59201 0.35187 0.21761 0.0
C696 C 0.42998 0.34556 0.21785 0.0
N697 N 0.4528 0.33708 0.2067 0.0
N698 N 0.48552 0.36429 0.20846 0.0
C699 C 0.48444 0.39129 0.22071 0.0
C700 C 0.44907 0.38045 0.22688 0.0
C701 C 0.39059 0.32046 0.21952 0.0
H702 H 0.38545 0.29356 0.22513 0.0
H703 H 0.37783 0.32982 0.23362 0.0
H704 H 0.37848 0.3181 0.20032 0.0
O705 O 0.46011 0.31004 0.15144 0.0
O706 O 0.51479 0.35689 0.15327 0.0
H707 H 0.52598 0.43972 0.20473 0.0
H708 H 0.50974 0.44558 0.23517 0.0
C709 C 0.51619 0.42777 0.22394 0.0
H710 H 0.53794 0.42565 0.23358 0.0
H711 H 0.56708 0.43663 0.17068 0.0
O712 O 0.39416 0.26042 0.18343 0.0
C713 C 0.4881 0.33384 0.1404 0.0
Co714 Co 0.47781 0.36385 0.98319 0.0
Co715 Co 0.49234 0.29992 0.97773 0.0
C716 C 0.54827 0.3748 0.96487 0.0
O717 O 0.52718 0.38588 0.97113 0.0
O718 O 0.5382 0.34166 0.96534 0.0
C719 C 0.48591 0.43134 0.97377 0.0
O720 O 0.50694 0.43188 0.9554 0.0
C721 C 0.52588 0.25576 0.97072 0.0
C722 C 0.48006 0.20091 0.97212 0.0
C723 C 0.51683 0.22009 0.9691 0.0
N724 N 0.49579 0.25747 0.97346 0.0
N725 N 0.46861 0.2245 0.97486 0.0
C726 C 0.56257 0.2873 0.97399 0.0
H727 H 0.56185 0.30686 0.98737 0.0
H728 H 0.57255 0.30025 0.95508 0.0
H729 H 0.58138 0.27931 0.98185 0.0
C730 C 0.41522 0.31726 0.95159 0.0
N731 N 0.44559 0.32407 0.96351 0.0
N732 N 0.45153 0.29729 0.95987 0.0
C733 C 0.42519 0.27305 0.94454 0.0
C734 C 0.40115 0.28465 0.93929 0.0
C735 C 0.39997 0.34157 0.95235 0.0
H736 H 0.39704 0.34757 0.97262 0.0
H737 H 0.41886 0.36719 0.94292 0.0
H738 H 0.37371 0.32965 0.94252 0.0
O739 O 0.479 0.35102 0.01858 0.0
O740 O 0.4895 0.30586 0.01603 0.0
H741 H 0.4064 0.21709 0.94546 0.0
H742 H 0.41176 0.23523 0.91387 0.0
C743 C 0.42376 0.24055 0.93336 0.0
H744 H 0.4509 0.24405 0.9321 0.0
H745 H 0.44239 0.21802 0.97869 0.0
O746 O 0.46619 0.40222 0.98546 0.0
C747 C 0.48481 0.32807 0.02919 0.0
Co748 Co 0.63448 0.11236 0.98847 0.0
Co749 Co 0.69461 0.19086 0.97779 0.0
C750 C 0.61887 0.16952 0.96992 0.0
O751 O 0.61021 0.13873 0.9783 0.0
O752 O 0.65152 0.19289 0.96671 0.0
C753 C 0.56721 0.05214 0.98054 0.0
O754 O 0.56607 0.0719 0.96185 0.0
C755 C 0.73639 0.26783 0.96689 0.0
C756 C 0.79191 0.2786 0.96811 0.0
C757 C 0.77169 0.29491 0.96415 0.0
N758 N 0.73584 0.2368 0.971 0.0
N759 N 0.7692 0.24363 0.97215 0.0
C760 C 0.70441 0.27221 0.97034 0.0
H761 H 0.68723 0.25443 0.98591 0.0
H762 H 0.68874 0.26469 0.95227 0.0
H763 H 0.71215 0.30007 0.97539 0.0
C764 C 0.67908 0.09537 0.95565 0.0
N765 N 0.6717 0.11926 0.96633 0.0
N766 N 0.69706 0.15193 0.96062 0.0
C767 C 0.72066 0.14933 0.94489 0.0
C768 C 0.71036 0.11351 0.94169 0.0
C769 C 0.6571 0.05595 0.95974 0.0
H770 H 0.65478 0.05018 0.98063 0.0
H771 H 0.62976 0.04635 0.95225 0.0
H772 H 0.66883 0.04139 0.94998 0.0
O773 O 0.65283 0.12773 0.02271 0.0
O774 O 0.69171 0.18524 0.01659 0.0
H775 H 0.77638 0.18742 0.94466 0.0
H776 H 0.75744 0.1723 0.9135 0.0
C777 C 0.75245 0.18004 0.93272 0.0
H778 H 0.74827 0.20318 0.93066 0.0
H779 H 0.77657 0.22478 0.97686 0.0
O780 O 0.59649 0.06241 0.99229 0.0
C781 C 0.67452 0.15845 0.03141 0.0
Co782 Co 0.88233 0.51737 0.98607 0.0
Co783 Co 0.80429 0.50336 0.97866 0.0
C784 C 0.82373 0.4473 0.96667 0.0
O785 O 0.85567 0.46804 0.97364 0.0
O786 O 0.80091 0.45766 0.96666 0.0
C787 C 0.94225 0.50945 0.97818 0.0
O788 O 0.92272 0.48918 0.95916 0.0
C789 C 0.72739 0.46844 0.9686 0.0
C790 C 0.71641 0.51303 0.96867 0.0
C791 C 0.70032 0.47645 0.96506 0.0
N792 N 0.75834 0.49905 0.97252 0.0
N793 N 0.75134 0.52549 0.97318 0.0
C794 C 0.72284 0.43225 0.9734 0.0
H795 H 0.74143 0.43381 0.98868 0.0
H796 H 0.72895 0.42248 0.95555 0.0
H797 H 0.69519 0.41286 0.97946 0.0
C798 C 0.89991 0.58043 0.95425 0.0
N799 N 0.87579 0.54985 0.96567 0.0
N800 N 0.84331 0.5443 0.96151 0.0
C801 C 0.84613 0.57118 0.94646 0.0
C802 C 0.882 0.59517 0.94182 0.0
C803 C 0.93941 0.59586 0.95645 0.0
H804 H 0.94673 0.59636 0.97692 0.0
H805 H 0.94718 0.57839 0.94605 0.0
H806 H 0.95431 0.62325 0.94841 0.0
O807 O 0.86646 0.51629 0.02104 0.0
O808 O 0.81116 0.5064 0.01716 0.0
H809 H 0.80852 0.58945 0.94724 0.0
H810 H 0.82323 0.58638 0.91577 0.0
C811 C 0.81556 0.57309 0.93481 0.0
H812 H 0.7922 0.54597 0.93242 0.0
H813 H 0.77002 0.55179 0.97777 0.0
O814 O 0.9322 0.52869 0.98986 0.0
C815 C 0.83753 0.51113 0.03101 0.0
Co816 Co 0.2975 0.84886 0.81505 0.0
Co817 Co 0.36405 0.83882 0.81223 0.0
C818 C 0.28926 0.78012 0.79769 0.0
O819 O 0.27617 0.80036 0.80092 0.0
O820 O 0.32232 0.7916 0.8017 0.0
C821 C 0.23002 0.84261 0.80709 0.0
O822 O 0.22822 0.82192 0.78804 0.0
C823 C 0.41004 0.81224 0.79267 0.0
C824 C 0.45914 0.84344 0.81538 0.0
C825 C 0.44306 0.81559 0.79792 0.0
N826 N 0.40656 0.83647 0.80667 0.0
N827 N 0.43629 0.85543 0.8199 0.0
C828 C 0.38223 0.78656 0.77453 0.0
H829 H 0.36819 0.79923 0.76532 0.0
H830 H 0.39438 0.77773 0.75954 0.0
H831 H 0.36236 0.76284 0.78536 0.0
C832 C 0.34441 0.91314 0.78444 0.0
N833 N 0.33743 0.88253 0.79608 0.0
N834 N 0.36571 0.87869 0.7947 0.0
C835 C 0.3918 0.90707 0.78212 0.0
C836 C 0.37921 0.92993 0.77524 0.0
C837 C 0.31902 0.92715 0.78425 0.0
H838 H 0.31073 0.92828 0.80423 0.0
H839 H 0.29467 0.90839 0.77341 0.0
H840 H 0.33102 0.9541 0.77554 0.0
O841 O 0.31026 0.84637 0.85081 0.0
O842 O 0.35987 0.84323 0.8501 0.0
H843 H 0.44321 0.91889 0.79548 0.0
H844 H 0.4432 0.93437 0.76324 0.0
C845 C 0.4282 0.91241 0.77714 0.0
H846 H 0.42587 0.88736 0.76957 0.0
H847 H 0.44027 0.87537 0.83297 0.0
O848 O 0.25952 0.86085 0.81868 0.0
C849 C 0.33504 0.84443 0.8624 0.0
Co850 Co 0.14678 0.44569 0.81509 0.0
Co851 Co 0.16148 0.52421 0.81123 0.0
C852 C 0.21832 0.50529 0.80043 0.0
O853 O 0.19643 0.4726 0.80432 0.0
O854 O 0.2085 0.52848 0.80186 0.0
C855 C 0.15497 0.38695 0.80415 0.0
O856 O 0.17479 0.40763 0.7854 0.0
C857 C 0.19261 0.59865 0.7942 0.0
C858 C 0.15821 0.61558 0.81363 0.0
C859 C 0.18879 0.62815 0.79881 0.0
N860 N 0.16587 0.5701 0.80599 0.0
N861 N 0.14516 0.58038 0.81733 0.0
C862 C 0.22127 0.59766 0.77878 0.0
H863 H 0.20987 0.57235 0.76775 0.0
H864 H 0.23389 0.62054 0.76528 0.0
H865 H 0.24205 0.59895 0.79195 0.0
C866 C 0.08566 0.43158 0.78222 0.0
N867 N 0.11608 0.45428 0.79445 0.0
N868 N 0.12157 0.48702 0.79266 0.0
C869 C 0.09436 0.48598 0.77915 0.0
C870 C 0.07067 0.45079 0.77211 0.0
C871 C 0.06988 0.39191 0.78248 0.0
H872 H 0.0691 0.38278 0.8025 0.0
H873 H 0.08733 0.38488 0.77129 0.0
H874 H 0.04254 0.37784 0.7743 0.0
O875 O 0.14628 0.45925 0.85075 0.0
O876 O 0.15545 0.51453 0.84912 0.0
H877 H 0.08229 0.52582 0.79141 0.0
H878 H 0.07042 0.51203 0.75845 0.0
C879 C 0.09064 0.51788 0.77363 0.0
H880 H 0.11675 0.54053 0.76753 0.0
H881 H 0.12303 0.56372 0.82856 0.0
O882 O 0.13534 0.39573 0.81666 0.0
C883 C 0.15059 0.48726 0.86184 0.0
Co884 Co 0.55346 0.70398 0.81226 0.0
Co885 Co 0.47555 0.6393 0.8085 0.0
C886 C 0.49405 0.71482 0.79458 0.0
O887 O 0.52691 0.72692 0.79942 0.0
O888 O 0.47162 0.6816 0.79693 0.0
C889 C 0.6162 0.77139 0.80654 0.0
O890 O 0.59785 0.77642 0.78861 0.0
C891 C 0.39777 0.59451 0.80108 0.0
C892 C 0.38906 0.54003 0.80532 0.0
C893 C 0.3713 0.5587 0.80064 0.0
N894 N 0.42965 0.59668 0.80464 0.0
N895 N 0.42401 0.56396 0.80784 0.0
C896 C 0.39242 0.62601 0.80306 0.0
H897 H 0.41193 0.64564 0.81679 0.0
H898 H 0.39655 0.63862 0.78388 0.0
H899 H 0.36532 0.61834 0.81007 0.0
C900 C 0.56955 0.65746 0.78082 0.0
N901 N 0.54591 0.66431 0.79253 0.0
N902 N 0.51339 0.63685 0.7898 0.0
C903 C 0.51562 0.61202 0.77525 0.0
C904 C 0.55132 0.62406 0.7695 0.0
C905 C 0.60903 0.6824 0.78109 0.0
H906 H 0.61484 0.70932 0.77492 0.0
H907 H 0.62318 0.67307 0.76824 0.0
H908 H 0.61909 0.68469 0.801 0.0
O909 O 0.53979 0.69016 0.84774 0.0
O910 O 0.48488 0.64418 0.84652 0.0
H911 H 0.48055 0.55665 0.78248 0.0
H912 H 0.48983 0.5672 0.74932 0.0
C913 C 0.48465 0.57673 0.76767 0.0
H914 H 0.46028 0.57879 0.76552 0.0
H915 H 0.44372 0.55797 0.81297 0.0
O916 O 0.60383 0.74051 0.81614 0.0
C917 C 0.5123 0.6664 0.85915 0.0
Co918 Co 0.5144 0.62835 0.0167 0.0
Co919 Co 0.50351 0.69417 0.02133 0.0
C920 C 0.4451 0.6191 0.03445 0.0
O921 O 0.46519 0.60619 0.02984 0.0
O922 O 0.4567 0.6524 0.03194 0.0
C923 C 0.50843 0.56083 0.02399 0.0
O924 O 0.48712 0.55821 0.04284 0.0
C925 C 0.47638 0.73878 0.04214 0.0
C926 C 0.50258 0.78616 0.01712 0.0
C927 C 0.47665 0.77005 0.03588 0.0
N928 N 0.50052 0.73615 0.02744 0.0
N929 N 0.5166 0.76496 0.01287 0.0
C930 C 0.45279 0.71137 0.06133 0.0
H931 H 0.42913 0.68983 0.05149 0.0
H932 H 0.4674 0.69937 0.07065 0.0
H933 H 0.44348 0.72343 0.07607 0.0
C934 C 0.57822 0.67432 0.04806 0.0
N935 N 0.54744 0.66742 0.03676 0.0
N936 N 0.54383 0.69583 0.03827 0.0
C937 C 0.57276 0.72208 0.05029 0.0
C938 C 0.59564 0.70932 0.05698 0.0
C939 C 0.59079 0.64782 0.04972 0.0
H940 H 0.56786 0.62092 0.05383 0.0
H941 H 0.61128 0.6552 0.06493 0.0
H942 H 0.60233 0.64666 0.03097 0.0
O943 O 0.51445 0.64334 0.98106 0.0
O944 O 0.5072 0.69059 0.98344 0.0
H945 H 0.60736 0.77807 0.0596 0.0
H946 H 0.56007 0.76039 0.06526 0.0
C947 C 0.58009 0.75965 0.05234 0.0
H948 H 0.57717 0.76894 0.03315 0.0
H949 H 0.53536 0.76897 0.99876 0.0
O950 O 0.52646 0.59056 0.01267 0.0
C951 C 0.51112 0.6679 0.97043 0.0
Co952 Co 0.36892 0.88092 0.02181 0.0
Co953 Co 0.3005 0.80548 0.02381 0.0
C954 C 0.3738 0.81792 0.03799 0.0
O955 O 0.38811 0.85141 0.03506 0.0
O956 O 0.34051 0.79748 0.0342 0.0
C957 C 0.43901 0.93946 0.02854 0.0
O958 O 0.44239 0.91749 0.04414 0.0
C959 C 0.25242 0.73356 0.04304 0.0
C960 C 0.20573 0.71558 0.01765 0.0
C961 C 0.22022 0.70385 0.0364 0.0
N962 N 0.2571 0.76134 0.0286 0.0
N963 N 0.22872 0.75056 0.01378 0.0
C964 C 0.2783 0.73549 0.06291 0.0
H965 H 0.2928 0.76267 0.07137 0.0
H966 H 0.26423 0.71545 0.07824 0.0
H967 H 0.29799 0.72969 0.05388 0.0
C968 C 0.32318 0.89967 0.05278 0.0
N969 N 0.32941 0.87561 0.04099 0.0
N970 N 0.3003 0.84402 0.04176 0.0
C971 C 0.27441 0.84719 0.05385 0.0
C972 C 0.28808 0.88254 0.06128 0.0
C973 C 0.34955 0.93878 0.05375 0.0
H974 H 0.35519 0.94957 0.03391 0.0
H975 H 0.37503 0.94298 0.06201 0.0
H976 H 0.33949 0.95348 0.0653 0.0
O977 O 0.35583 0.86752 0.98559 0.0
O978 O 0.30571 0.81527 0.98629 0.0
H979 H 0.22411 0.80927 0.03781 0.0
H980 H 0.22105 0.82534 0.06925 0.0
C981 C 0.23686 0.81734 0.05699 0.0
H982 H 0.23698 0.79395 0.06562 0.0
H983 H 0.22604 0.7665 0.99995 0.0
O984 O 0.40841 0.93053 0.01949 0.0
C985 C 0.33043 0.84132 0.97394 0.0
Co986 Co 0.11162 0.48263 0.02039 0.0
Co987 Co 0.18934 0.49554 0.02366 0.0
C988 C 0.17085 0.55249 0.03806 0.0
O989 O 0.13783 0.53144 0.03412 0.0
O990 O 0.19341 0.54204 0.03471 0.0
C991 C 0.04895 0.48655 0.02875 0.0
O992 O 0.06735 0.50767 0.04778 0.0
C993 C 0.26366 0.52404 0.04066 0.0
C994 C 0.27956 0.49072 0.01859 0.0
C995 C 0.29275 0.52002 0.03479 0.0
N996 N 0.23479 0.49868 0.02825 0.0
N997 N 0.24444 0.47855 0.01536 0.0
C998 C 0.26341 0.55173 0.05769 0.0
H999 H 0.23753 0.54048 0.06794 0.0
H1000 H 0.28554 0.56172 0.07184 0.0
H1001 H 0.26692 0.57443 0.04574 0.0
C1002 C 0.09633 0.41898 0.05111 0.0
N1003 N 0.11929 0.44989 0.03952 0.0
N1004 N 0.15185 0.45481 0.041 0.0
C1005 C 0.15042 0.42674 0.05351 0.0
C1006 C 0.1152 0.40312 0.06028 0.0
C1007 C 0.05682 0.40409 0.05192 0.0
H1008 H 0.04626 0.39919 0.03202 0.0
H1009 H 0.05103 0.42406 0.06065 0.0
H1010 H 0.04314 0.37883 0.06301 0.0
O1011 O 0.12623 0.4847 0.98446 0.0
O1012 O 0.18032 0.49108 0.98594 0.0
H1013 H 0.18994 0.41509 0.03983 0.0
H1014 H 0.1755 0.40039 0.0723 0.0
C1015 C 0.1819 0.42201 0.0582 0.0
H1016 H 0.20467 0.44737 0.06531 0.0
H1017 H 0.22744 0.45759 0.00332 0.0
O1018 O 0.06122 0.46921 0.01715 0.0
C1019 C 0.15369 0.48782 0.97323 0.0
Co1020 Co 0.37172 0.48681 0.52069 0.0
Co1021 Co 0.30574 0.49775 0.52655 0.0
C1022 C 0.38099 0.55506 0.54117 0.0
O1023 O 0.39368 0.53504 0.53558 0.0
O1024 O 0.34772 0.5439 0.53867 0.0
C1025 C 0.43902 0.49213 0.52785 0.0
O1026 O 0.44091 0.51173 0.54766 0.0
C1027 C 0.26079 0.52954 0.53669 0.0
C1028 C 0.20616 0.48394 0.53249 0.0
C1029 C 0.22506 0.52013 0.53798 0.0
N1030 N 0.26286 0.50002 0.53205 0.0
N1031 N 0.23005 0.47298 0.52907 0.0
C1032 C 0.29207 0.5665 0.53462 0.0
H1033 H 0.31033 0.56731 0.51936 0.0
H1034 H 0.30654 0.57391 0.5532 0.0
H1035 H 0.28386 0.58631 0.52973 0.0
C1036 C 0.32591 0.42194 0.55088 0.0
N1037 N 0.3321 0.45264 0.5398 0.0
N1038 N 0.30438 0.45709 0.54338 0.0
C1039 C 0.27997 0.42933 0.55756 0.0
C1040 C 0.29258 0.40601 0.56239 0.0
C1041 C 0.35091 0.40754 0.5492 0.0
H1042 H 0.35808 0.40703 0.52881 0.0
H1043 H 0.37586 0.42568 0.55968 0.0
H1044 H 0.33901 0.38029 0.5574 0.0
O1045 O 0.35839 0.48996 0.48539 0.0
O1046 O 0.30991 0.49483 0.4884 0.0
H1047 H 0.22394 0.40953 0.55458 0.0
H1048 H 0.23943 0.41146 0.58669 0.0
C1049 C 0.24614 0.42572 0.568 0.0
H1050 H 0.2488 0.45233 0.57076 0.0
H1051 H 0.22395 0.44742 0.52342 0.0
O1052 O 0.40956 0.47482 0.51603 0.0
C1053 C 0.33346 0.49282 0.47496 0.0
Co1054 Co 0.51803 0.88638 0.52213 0.0
Co1055 Co 0.50561 0.80889 0.52544 0.0
C1056 C 0.44717 0.82541 0.5376 0.0
O1057 O 0.46777 0.85845 0.53339 0.0
O1058 O 0.45859 0.80348 0.53564 0.0
C1059 C 0.51108 0.94688 0.53106 0.0
O1060 O 0.49019 0.92725 0.54978 0.0
C1061 C 0.47878 0.73625 0.54488 0.0
C1062 C 0.50879 0.7177 0.52141 0.0
C1063 C 0.48165 0.7064 0.53939 0.0
N1064 N 0.50277 0.76376 0.53064 0.0
N1065 N 0.52095 0.75256 0.51688 0.0
C1066 C 0.45333 0.7385 0.56317 0.0
H1067 H 0.42948 0.73459 0.55247 0.0
H1068 H 0.46611 0.76524 0.57233 0.0
H1069 H 0.44462 0.71754 0.57816 0.0
C1070 C 0.58004 0.90197 0.5548 0.0
N1071 N 0.54966 0.8789 0.54267 0.0
N1072 N 0.54553 0.84664 0.54361 0.0
C1073 C 0.57366 0.84835 0.55624 0.0
C1074 C 0.5966 0.88359 0.5638 0.0
C1075 C 0.59326 0.94111 0.55698 0.0
H1076 H 0.57056 0.94552 0.56092 0.0
H1077 H 0.61341 0.9535 0.57248 0.0
H1078 H 0.60543 0.95419 0.53845 0.0
O1079 O 0.52029 0.87359 0.48632 0.0
O1080 O 0.50957 0.81779 0.48763 0.0
H1081 H 0.6062 0.82532 0.56756 0.0
H1082 H 0.55827 0.79556 0.56887 0.0
C1083 C 0.5804 0.81769 0.55811 0.0
H1084 H 0.58077 0.80788 0.53852 0.0
H1085 H 0.54039 0.76822 0.50342 0.0
O1086 O 0.52995 0.93639 0.51943 0.0
C1087 C 0.51558 0.84553 0.47509 0.0
Co1088 Co 0.11314 0.63054 0.51639 0.0
Co1089 Co 0.19144 0.69474 0.52024 0.0
C1090 C 0.17248 0.61964 0.53376 0.0
O1091 O 0.13992 0.60806 0.5285 0.0
O1092 O 0.19549 0.65269 0.53199 0.0
C1093 C 0.05264 0.56483 0.52848 0.0
O1094 O 0.07329 0.56522 0.54711 0.0
C1095 C 0.26552 0.7398 0.53775 0.0
C1096 C 0.28241 0.78964 0.51626 0.0
C1097 C 0.29494 0.77293 0.53249 0.0
N1098 N 0.2371 0.73683 0.52498 0.0
N1099 N 0.24734 0.76696 0.51241 0.0
C1100 C 0.26436 0.71146 0.55482 0.0
H1101 H 0.2661 0.69116 0.54286 0.0
H1102 H 0.23878 0.69826 0.56553 0.0
H1103 H 0.2869 0.72283 0.56866 0.0
C1104 C 0.09854 0.67836 0.54802 0.0
N1105 N 0.1214 0.67061 0.53605 0.0
N1106 N 0.15402 0.6981 0.53767 0.0
C1107 C 0.15277 0.72444 0.55075 0.0
C1108 C 0.11754 0.71279 0.55773 0.0
C1109 C 0.05894 0.65405 0.54821 0.0
H1110 H 0.0494 0.64562 0.52827 0.0
H1111 H 0.05249 0.62967 0.55933 0.0
H1112 H 0.04477 0.66702 0.5567 0.0
O1113 O 0.12688 0.64319 0.48059 0.0
O1114 O 0.18224 0.68909 0.48223 0.0
H1115 H 0.19299 0.77595 0.53813 0.0
H1116 H 0.17836 0.77502 0.57075 0.0
C1117 C 0.18455 0.7602 0.55615 0.0
H1118 H 0.20701 0.75686 0.56297 0.0
H1119 H 0.23075 0.77145 0.50031 0.0
O1120 O 0.06298 0.59273 0.51498 0.0
C1121 C 0.15514 0.66637 0.46948 0.0
Co1122 Co 0.15408 0.70391 0.31145 0.0
Co1123 Co 0.16272 0.63639 0.30724 0.0
C1124 C 0.22248 0.7121 0.29494 0.0
O1125 O 0.20242 0.72549 0.29731 0.0
O1126 O 0.2105 0.67887 0.2985 0.0
C1127 C 0.16665 0.76862 0.32758 0.0
O1128 O 0.19329 0.76613 0.33746 0.0
C1129 C 0.19494 0.59175 0.29659 0.0
C1130 C 0.14941 0.53692 0.29965 0.0
C1131 C 0.18572 0.55613 0.29462 0.0
N1132 N 0.16523 0.59354 0.30118 0.0
N1133 N 0.13822 0.56057 0.30346 0.0
C1134 C 0.23169 0.62279 0.30024 0.0
H1135 H 0.23142 0.63767 0.31743 0.0
H1136 H 0.23933 0.64058 0.28324 0.0
H1137 H 0.25185 0.61452 0.30344 0.0
C1138 C 0.0901 0.65957 0.28015 0.0
N1139 N 0.12026 0.66498 0.29172 0.0
N1140 N 0.12384 0.63666 0.28869 0.0
C1141 C 0.096 0.61259 0.27436 0.0
C1142 C 0.07357 0.62609 0.26882 0.0
C1143 C 0.07632 0.68509 0.28176 0.0
H1144 H 0.07549 0.69203 0.30216 0.0
H1145 H 0.095 0.71009 0.27156 0.0
H1146 H 0.04927 0.67378 0.27327 0.0
O1147 O 0.15523 0.68973 0.34708 0.0
O1148 O 0.15664 0.63923 0.34506 0.0
H1149 H 0.0748 0.55655 0.27887 0.0
H1150 H 0.07657 0.57052 0.24631 0.0
C1151 C 0.09115 0.57784 0.26488 0.0
H1152 H 0.11738 0.57957 0.26221 0.0
H1153 H 0.11249 0.55414 0.30889 0.0
O1154 O 0.14368 0.74298 0.31399 0.0
C1155 C 0.15571 0.66376 0.35803 0.0
Co1156 Co 0.29942 0.44765 0.31721 0.0
Co1157 Co 0.36261 0.52612 0.31242 0.0
C1158 C 0.28691 0.50553 0.29887 0.0
O1159 O 0.2759 0.47322 0.30459 0.0
O1160 O 0.31988 0.52895 0.30039 0.0
C1161 C 0.23429 0.38627 0.30606 0.0
O1162 O 0.23424 0.40597 0.28691 0.0
C1163 C 0.40605 0.6004 0.2955 0.0
C1164 C 0.45591 0.61834 0.31724 0.0
C1165 C 0.43833 0.6304 0.30152 0.0
N1166 N 0.40422 0.57199 0.30747 0.0
N1167 N 0.43446 0.58284 0.32009 0.0
C1168 C 0.37715 0.59896 0.27891 0.0
H1169 H 0.3555 0.59737 0.29123 0.0
H1170 H 0.36586 0.57474 0.26666 0.0
H1171 H 0.38742 0.62306 0.26659 0.0
C1172 C 0.34734 0.43334 0.2854 0.0
N1173 N 0.3395 0.45604 0.29749 0.0
N1174 N 0.3667 0.48879 0.29558 0.0
C1175 C 0.39299 0.48774 0.28226 0.0
C1176 C 0.38153 0.45256 0.27536 0.0
C1177 C 0.32306 0.39375 0.28481 0.0
H1178 H 0.31568 0.38366 0.30474 0.0
H1179 H 0.29812 0.38755 0.27456 0.0
H1180 H 0.33567 0.37993 0.2752 0.0
O1181 O 0.31206 0.46247 0.35288 0.0
O1182 O 0.35737 0.51803 0.35051 0.0
H1183 H 0.44441 0.52875 0.29437 0.0
H1184 H 0.4433 0.51341 0.26194 0.0
C1185 C 0.42844 0.51968 0.27645 0.0
H1186 H 0.42463 0.54174 0.26938 0.0
H1187 H 0.43959 0.5664 0.33186 0.0
O1188 O 0.26245 0.39735 0.31938 0.0
C1189 C 0.33501 0.49121 0.36362 0.0
Co1190 Co 0.54957 0.8507 0.31683 0.0
Co1191 Co 0.47335 0.84221 0.31437 0.0
C1192 C 0.48681 0.78178 0.30148 0.0
O1193 O 0.5202 0.80121 0.30479 0.0
O1194 O 0.46609 0.79448 0.30435 0.0
C1195 C 0.60799 0.83904 0.31105 0.0
O1196 O 0.5864 0.81394 0.29513 0.0
C1197 C 0.40214 0.81817 0.29334 0.0
C1198 C 0.38208 0.84499 0.31864 0.0
C1199 C 0.37182 0.81986 0.29922 0.0
N1200 N 0.42905 0.84102 0.30855 0.0
N1201 N 0.41703 0.85764 0.32325 0.0
C1202 C 0.40418 0.79242 0.27524 0.0
H1203 H 0.39785 0.76767 0.28574 0.0
H1204 H 0.43145 0.80418 0.26707 0.0
H1205 H 0.38439 0.78522 0.25953 0.0
C1206 C 0.56754 0.91409 0.28517 0.0
N1207 N 0.54365 0.88378 0.29694 0.0
N1208 N 0.51203 0.88123 0.29645 0.0
C1209 C 0.515 0.91035 0.28458 0.0
C1210 C 0.55038 0.93224 0.27696 0.0
C1211 C 0.60632 0.92573 0.28266 0.0
H1212 H 0.6095 0.90227 0.27873 0.0
H1213 H 0.61903 0.9456 0.26704 0.0
H1214 H 0.62 0.93781 0.30105 0.0
O1215 O 0.53675 0.8527 0.35274 0.0
O1216 O 0.48233 0.84594 0.35212 0.0
H1217 H 0.49475 0.9462 0.27617 0.0
H1218 H 0.46357 0.89905 0.27145 0.0
C1219 C 0.48554 0.91898 0.28366 0.0
H1220 H 0.47482 0.91706 0.30328 0.0
H1221 H 0.43194 0.87564 0.33772 0.0
O1222 O 0.59915 0.861 0.31963 0.0
C1223 C 0.50965 0.84994 0.3643 0.0
C1224 C 0.14748 0.12258 0.14662 0.0
C1225 C 0.11869 0.1166 0.13079 0.0
C1226 C 0.16109 0.09929 0.14649 0.0
C1227 C 0.14633 0.06889 0.13063 0.0
H1228 H 0.159 0.14489 0.15986 0.0
H1229 H 0.18253 0.10447 0.15968 0.0
S1230 S 0.07503 0.04449 0.08225 0.0
N1231 N 0.07935 0.08086 0.09603 0.0
N1232 N 0.10404 0.03607 0.09669 0.0
C1233 C 0.11866 0.06337 0.11382 0.0
C1234 C 0.10513 0.08753 0.11362 0.0
C1235 C 0.90675 0.0138 0.115 0.0
C1236 C 0.87423 0.99929 0.12855 0.0
C1237 C 0.9308 0.05072 0.11463 0.0
C1238 C 0.92268 0.07465 0.12702 0.0
H1239 H 0.91404 0.99655 0.10486 0.0
H1240 H 0.95609 0.06051 0.10485 0.0
S1241 S 0.83913 0.05073 0.16267 0.0
N1242 N 0.83414 0.01215 0.1531 0.0
N1243 N 0.8784 0.08129 0.15162 0.0
C1244 C 0.88914 0.06065 0.13913 0.0
C1245 C 0.86508 0.02309 0.13997 0.0
C1246 C 0.97412 0.84614 0.14453 0.0
C1247 C 0.9983 0.87613 0.13029 0.0
C1248 C 0.93743 0.83358 0.14356 0.0
C1249 C 0.92336 0.85064 0.12844 0.0
H1250 H 0.98367 0.83291 0.15726 0.0
H1251 H 0.92012 0.81113 0.15566 0.0
S1252 S 0.9745 0.9261 0.08388 0.0
N1253 N 0.00503 0.91918 0.09747 0.0
N1254 N 0.93597 0.89658 0.09673 0.0
C1255 C 0.94695 0.87953 0.11308 0.0
C1256 C 0.98442 0.89195 0.11368 0.0
C1257 C 0.13196 0.15749 0.38209 0.0
C1258 C 0.12614 0.12622 0.36962 0.0
C1259 C 0.1055 0.1674 0.38208 0.0
C1260 C 0.07249 0.14616 0.36973 0.0
H1261 H 0.15723 0.17461 0.39149 0.0
H1262 H 0.11108 0.19204 0.39142 0.0
S1263 S 0.04675 0.06467 0.33134 0.0
N1264 N 0.08653 0.07588 0.34289 0.0
N1265 N 0.0372 0.09447 0.34276 0.0
C1266 C 0.0668 0.11512 0.357 0.0
C1267 C 0.09357 0.10517 0.35695 0.0
C1268 C 0.89387 0.98474 0.38627 0.0
C1269 C 0.87468 -5e-05 0.37548 0.0
C1270 C 0.88097 0.94788 0.38496 0.0
C1271 C 0.84806 0.92473 0.37325 0.0
H1272 H 0.91942 0.0015 0.39541 0.0
H1273 H 0.8971 0.93757 0.39294 0.0
S1274 S 0.78557 0.95074 0.3446 0.0
N1275 N 0.81984 0.9887 0.35447 0.0
N1276 N 0.79517 0.91952 0.3524 0.0
C1277 C 0.82751 0.93937 0.36389 0.0
C1278 C 0.84086 0.97692 0.36499 0.0
C1279 C 0.02339 0.87917 0.38373 0.0
C1280 C 0.99923 0.88803 0.37272 0.0
C1281 C 0.05994 0.9044 0.38523 0.0
C1282 C 0.07371 0.9393 0.37549 0.0
H1283 H 0.01409 0.85233 0.39066 0.0
H1284 H 0.07773 0.89602 0.39318 0.0
S1285 S 0.02108 0.9747 0.34354 0.0
N1286 N 0.9913 0.93339 0.35134 0.0
N1287 N 0.05972 0.98084 0.35409 0.0
C1288 C 0.04946 0.94857 0.36494 0.0
C1289 C 0.01231 0.92287 0.36348 0.0
C1290 C 0.83209 0.89277 0.87808 0.0
C1291 C 0.85644 0.92953 0.88151 0.0
C1292 C 0.84369 0.86783 0.87614 0.0
C1293 C 0.88007 0.87836 0.87772 0.0
H1294 H 0.80395 0.88321 0.87518 0.0
H1295 H 0.82411 0.84029 0.87198 0.0
S1296 S 0.95432 0.97034 0.89029 0.0
N1297 N 0.9181 0.97391 0.89023 0.0
N1298 N 0.94024 0.92784 0.88465 0.0
C1299 C 0.90445 0.91447 0.88301 0.0
C1300 C 0.89249 0.93978 0.88546 0.0
C1301 C 0.05456 0.94867 0.8699 0.0
C1302 C 0.06642 0.92432 0.8751 0.0
C1303 C 0.0785 0.98559 0.86913 0.0
C1304 C 0.11518 -0.00033 0.87385 0.0
H1305 H 0.02694 0.93916 0.86485 0.0
H1306 H 0.06841 0.00289 0.86326 0.0
S1307 S 0.15919 0.94818 0.89219 0.0
N1308 N 0.1169 0.91762 0.88793 0.0
N1309 N 0.16166 0.98687 0.88636 0.0
C1310 C 0.12702 0.97591 0.88065 0.0
C1311 C 0.10271 0.93834 0.88144 0.0
C1312 C 0.06163 0.16805 0.84977 0.0
C1313 C 0.07758 0.15445 0.86647 0.0
C1314 C 0.02508 0.15647 0.85123 0.0
C1315 C 0.00329 0.13116 0.86961 0.0
H1316 H 0.07715 0.18653 0.83465 0.0
H1317 H 0.01356 0.16616 0.83712 0.0
S1318 S 0.03368 0.09334 0.92122 0.0
N1319 N 0.06987 0.11798 0.90396 0.0
N1320 N 0.00149 0.09756 0.90761 0.0
C1321 C 0.01953 0.1197 0.88778 0.0
C1322 C 0.05659 0.13089 0.88593 0.0
C1323 C 0.89925 0.83589 0.61962 0.0
C1324 C 0.93344 0.85695 0.63046 0.0
C1325 C 0.87392 0.84718 0.62004 0.0
C1326 C 0.882 0.8799 0.63125 0.0
H1327 H 0.89173 0.81012 0.6113 0.0
H1328 H 0.84767 0.82998 0.61199 0.0
S1329 S 0.96575 0.94287 0.6648 0.0
N1330 N 0.97296 0.91113 0.65406 0.0
N1331 N 0.92524 0.93187 0.65508 0.0
C1332 C 0.9159 0.9011 0.64219 0.0
C1333 C 0.9417 0.8898 0.64167 0.0
C1334 C 0.14959 0.02165 0.61238 0.0
C1335 C 0.11644 0.99732 0.6231 0.0
C1336 C 0.16049 0.05807 0.61061 0.0
C1337 C 0.13883 0.07148 0.61988 0.0
H1338 H 0.16768 0.01266 0.60614 0.0
H1339 H 0.18686 0.07607 0.60307 0.0
S1340 S 0.04981 0.01822 0.65032 0.0
N1341 N 0.06201 0.98871 0.64312 0.0
N1342 N 0.08244 0.05693 0.64012 0.0
C1343 C 0.10502 0.04697 0.62986 0.0
C1344 C 0.09391 0.00995 0.63149 0.0
C1345 C 0.95137 0.05933 0.62882 0.0
C1346 C 0.92567 0.07004 0.62612 0.0
C1347 C 0.98803 0.08426 0.62844 0.0
C1348 C 0.00051 0.12094 0.62536 0.0
H1349 H 0.9433 0.0318 0.63284 0.0
H1350 H 0.00655 0.07487 0.63229 0.0
S1351 S 0.94517 0.16295 0.61445 0.0
N1352 N 0.916 0.12002 0.61765 0.0
N1353 N 0.98486 0.16664 0.61756 0.0
C1354 C 0.97542 0.13192 0.62131 0.0
C1355 C 0.93807 0.10657 0.62144 0.0
C1356 C 0.8206 0.46081 0.45897 0.0
C1357 C 0.78552 0.45153 0.46561 0.0
C1358 C 0.8316 0.43526 0.45921 0.0
C1359 C 0.80791 0.39958 0.46623 0.0
H1360 H 0.83986 0.48818 0.45412 0.0
H1361 H 0.85908 0.44371 0.45446 0.0
S1362 S 0.71418 0.36275 0.48787 0.0
N1363 N 0.72785 0.40487 0.48098 0.0
N1364 N 0.74833 0.35701 0.48143 0.0
C1365 C 0.7727 0.39004 0.47285 0.0
C1366 C 0.76157 0.416 0.47259 0.0
C1367 C 0.60993 0.38489 0.46505 0.0
C1368 C 0.59881 0.40978 0.45973 0.0
C1369 C 0.5855 0.34814 0.46566 0.0
C1370 C 0.54896 0.33471 0.46087 0.0
H1371 H 0.63733 0.39382 0.47031 0.0
H1372 H 0.59512 0.33041 0.47144 0.0
S1373 S 0.50636 0.38771 0.44321 0.0
N1374 N 0.5489 0.41769 0.4473 0.0
N1375 N 0.50312 0.34864 0.44885 0.0
C1376 C 0.53767 0.35897 0.45436 0.0
C1377 C 0.56254 0.39643 0.45359 0.0
C1378 C 0.65446 0.23414 0.46192 0.0
C1379 C 0.66651 0.21038 0.45528 0.0
C1380 C 0.61796 0.22272 0.46344 0.0
C1381 C 0.59191 0.187 0.45856 0.0
H1382 H 0.67318 0.26124 0.46764 0.0
H1383 H 0.61027 0.24163 0.47005 0.0
S1384 S 0.60971 0.11506 0.43797 0.0
N1385 N 0.64976 0.15024 0.4421 0.0
N1386 N 0.58107 0.12864 0.44463 0.0
C1387 C 0.60368 0.1634 0.45064 0.0
C1388 C 0.64093 0.17508 0.44918 0.0
C1389 C 0.79487 0.48621 0.71233 0.0
C1390 C 0.78623 0.45306 0.70168 0.0
C1391 C 0.76961 0.49757 0.71303 0.0
C1392 C 0.73496 0.47617 0.70299 0.0
H1393 H 0.8215 0.50373 0.71966 0.0
H1394 H 0.77758 0.52371 0.72086 0.0
S1395 S 0.70085 0.3885 0.67078 0.0
N1396 N 0.74179 0.39985 0.67967 0.0
N1397 N 0.69423 0.42082 0.68102 0.0
C1398 C 0.72608 0.44273 0.6925 0.0
C1399 C 0.7518 0.43132 0.69177 0.0
C1400 C 0.51528 0.31076 0.71483 0.0
C1401 C 0.5511 0.33586 0.70974 0.0
C1402 C 0.50376 0.27421 0.71634 0.0
C1403 C 0.5275 0.26119 0.71229 0.0
H1404 H 0.49572 0.3193 0.71668 0.0
H1405 H 0.4756 0.25597 0.71939 0.0
S1406 S 0.62456 0.31647 0.69953 0.0
N1407 N 0.61057 0.34551 0.70158 0.0
N1408 N 0.58909 0.27705 0.70452 0.0
C1409 C 0.5638 0.28635 0.70855 0.0
C1410 C 0.57553 0.3236 0.70713 0.0
C1411 C 0.68972 0.20711 0.72266 0.0
C1412 C 0.66531 0.21325 0.70906 0.0
C1413 C 0.72604 0.23331 0.72372 0.0
C1414 C 0.73903 0.26641 0.71115 0.0
H1415 H 0.6809 0.18152 0.73176 0.0
H1416 H 0.74431 0.22706 0.73355 0.0
S1417 S 0.68547 0.29406 0.67176 0.0
N1418 N 0.6562 0.25397 0.68241 0.0
N1419 N 0.72417 0.30312 0.6842 0.0
C1420 C 0.71442 0.27299 0.69806 0.0
C1421 C 0.67762 0.24636 0.69699 0.0
C1422 C 0.5453 0.26549 0.21975 0.0
C1423 C 0.51431 0.25772 0.206 0.0
C1424 C 0.55906 0.24218 0.21919 0.0
C1425 C 0.54306 0.21091 0.20411 0.0
H1426 H 0.55911 0.28979 0.2309 0.0
H1427 H 0.58263 0.24902 0.23047 0.0
S1428 S 0.45992 0.17746 0.16579 0.0
N1429 N 0.46652 0.21532 0.17829 0.0
N1430 N 0.49306 0.17242 0.17644 0.0
C1431 C 0.51113 0.20215 0.19119 0.0
C1432 C 0.49671 0.22542 0.19222 0.0
C1433 C 0.75694 0.32182 0.21352 0.0
C1434 C 0.79384 0.33433 0.21227 0.0
C1435 C 0.73209 0.2852 0.21449 0.0
C1436 C 0.74304 0.25954 0.2139 0.0
H1437 H 0.74686 0.34013 0.21188 0.0
H1438 H 0.70405 0.2771 0.21404 0.0
S1439 S 0.83717 0.27909 0.2143 0.0
N1440 N 0.8404 0.31874 0.21323 0.0
N1441 N 0.794 0.24992 0.21502 0.0
C1442 C 0.78008 0.27195 0.21452 0.0
C1443 C 0.80534 0.30929 0.21357 0.0
C1444 C 0.72459 0.48878 0.22234 0.0
C1445 C 0.73835 0.4669 0.21419 0.0
C1446 C 0.68803 0.47716 0.22081 0.0
C1447 C 0.66374 0.44303 0.21153 0.0
H1448 H 0.7424 0.51589 0.22866 0.0
H1449 H 0.67886 0.49548 0.22603 0.0
S1450 S 0.68516 0.37465 0.18862 0.0
N1451 N 0.72399 0.40868 0.19735 0.0
N1452 N 0.65547 0.38706 0.19457 0.0
C1453 C 0.67666 0.42015 0.20456 0.0
C1454 C 0.71391 0.43197 0.20598 0.0
C1455 C 0.57326 0.22276 0.95347 0.0
C1456 C 0.54098 0.20489 0.96727 0.0
C1457 C 0.59786 0.21057 0.95363 0.0
C1458 C 0.59073 0.17946 0.96703 0.0
H1459 H 0.57991 0.24666 0.94267 0.0
H1460 H 0.62283 0.22594 0.94345 0.0
S1461 S 0.50798 0.12036 0.00366 0.0
N1462 N 0.502 0.15293 0.99305 0.0
N1463 N 0.54741 0.12934 0.99275 0.0
C1464 C 0.55743 0.16001 0.97949 0.0
C1465 C 0.53271 0.17278 0.97965 0.0
C1466 C 0.81599 0.35715 0.97691 0.0
C1467 C 0.78606 0.33399 0.96214 0.0
C1468 C 0.82879 0.39392 0.97723 0.0
C1469 C 0.8121 0.40908 0.96287 0.0
H1470 H 0.82895 0.34669 0.98907 0.0
H1471 H 0.85109 0.41037 0.98973 0.0
S1472 S 0.73722 0.36105 0.9172 0.0
N1473 N 0.74345 0.32949 0.92974 0.0
N1474 N 0.76693 0.39871 0.93101 0.0
C1475 C 0.78343 0.38656 0.94688 0.0
C1476 C 0.77061 0.34901 0.94631 0.0
C1477 C 0.63732 0.45844 0.97549 0.0
C1478 C 0.66141 0.45148 0.96216 0.0
C1479 C 0.60065 0.4341 0.97516 0.0
C1480 C 0.58651 0.40164 0.96158 0.0
H1481 H 0.64696 0.48229 0.9871 0.0
H1482 H 0.58344 0.44017 0.98662 0.0
S1483 S 0.63735 0.37392 0.91945 0.0
N1484 N 0.66793 0.41251 0.9316 0.0
N1485 N 0.59893 0.36587 0.93196 0.0
C1486 C 0.60999 0.39523 0.94697 0.0
C1487 C 0.64743 0.4204 0.94695 0.0
C1488 C 0.43207 0.75325 0.79349 0.0
C1489 C 0.45571 0.79025 0.79192 0.0
C1490 C 0.44447 0.72893 0.79239 0.0
C1491 C 0.48109 0.74049 0.79002 0.0
H1492 H 0.404 0.74289 0.79728 0.0
H1493 H 0.42524 0.70102 0.79501 0.0
S1494 S 0.5535 0.8347 0.78191 0.0
N1495 N 0.51695 0.83731 0.78547 0.0
N1496 N 0.54046 0.79177 0.78336 0.0
C1497 C 0.50476 0.77743 0.78683 0.0
C1498 C 0.49206 0.80221 0.78794 0.0
C1499 C 0.2757 0.71663 0.79886 0.0
C1500 C 0.26458 0.74138 0.79308 0.0
C1501 C 0.25135 0.67985 0.79946 0.0
C1502 C 0.21492 0.6663 0.79413 0.0
H1503 H 0.30302 0.7257 0.80449 0.0
H1504 H 0.26088 0.6622 0.80561 0.0
S1505 S 0.17252 0.7189 0.77487 0.0
N1506 N 0.21488 0.74903 0.7795 0.0
N1507 N 0.16928 0.67993 0.78094 0.0
C1508 C 0.20369 0.69042 0.78706 0.0
C1509 C 0.22847 0.72789 0.78634 0.0
C1510 C 0.28019 0.54756 0.78451 0.0
C1511 C 0.25666 0.51663 0.79817 0.0
C1512 C 0.31706 0.56012 0.78437 0.0
C1513 C 0.3319 0.54308 0.79876 0.0
H1514 H 0.27008 0.56217 0.77389 0.0
H1515 H 0.334 0.5836 0.77309 0.0
S1516 S 0.28123 0.45973 0.83664 0.0
N1517 N 0.25046 0.46779 0.82507 0.0
N1518 N 0.31959 0.49226 0.82574 0.0
C1519 C 0.30839 0.51131 0.81168 0.0
C1520 C 0.27087 0.49803 0.8113 0.0
C1521 C 0.43308 0.82516 0.05018 0.0
C1522 C 0.39751 0.80268 0.04216 0.0
C1523 C 0.45825 0.81375 0.04941 0.0
C1524 C 0.44867 0.77928 0.04103 0.0
H1525 H 0.44204 0.85237 0.05602 0.0
H1526 H 0.48569 0.83242 0.05456 0.0
S1527 S 0.3594 0.70981 0.0181 0.0
N1528 N 0.35422 0.74395 0.0258 0.0
N1529 N 0.40145 0.72264 0.02463 0.0
C1530 C 0.41301 0.756 0.03397 0.0
C1531 C 0.3874 0.76762 0.03457 0.0
C1532 C 0.22004 0.61635 0.04031 0.0
C1533 C 0.18353 0.59099 0.04289 0.0
C1534 C 0.23205 0.65303 0.03982 0.0
C1535 C 0.20804 0.6659 0.04194 0.0
H1536 H 0.23941 0.60793 0.03706 0.0
H1537 H 0.26004 0.67116 0.03603 0.0
S1538 S 0.11043 0.61163 0.05209 0.0
N1539 N 0.12391 0.58211 0.05012 0.0
N1540 N 0.14671 0.65105 0.04873 0.0
C1541 C 0.17184 0.64121 0.0459 0.0
C1542 C 0.15955 0.60381 0.0466 0.0
C1543 C 0.3818 0.6062 0.0353 0.0
C1544 C 0.40642 0.59436 0.03927 0.0
C1545 C 0.34493 0.58226 0.03523 0.0
C1546 C 0.33113 0.54551 0.03925 0.0
H1547 H 0.39095 0.63384 0.03067 0.0
H1548 H 0.32735 0.59246 0.03043 0.0
S1549 S 0.38346 0.501 0.05332 0.0
N1550 N 0.4138 0.54348 0.04957 0.0
N1551 N 0.34449 0.49864 0.04912 0.0
C1552 C 0.35517 0.53347 0.04444 0.0
C1553 C 0.39276 0.55783 0.04463 0.0
C1554 C 0.16878 0.56215 0.52252 0.0
C1555 C 0.18415 0.59324 0.53769 0.0
C1556 C 0.18145 0.5381 0.52344 0.0
C1557 C 0.20981 0.54407 0.53972 0.0
H1558 H 0.14773 0.55708 0.50897 0.0
H1559 H 0.16982 0.51538 0.51056 0.0
S1560 S 0.25421 0.61764 0.58706 0.0
N1561 N 0.22615 0.62651 0.57166 0.0
N1562 N 0.24902 0.58035 0.57434 0.0
C1563 C 0.22364 0.57367 0.55639 0.0
C1564 C 0.21114 0.59858 0.55507 0.0
C1565 C 0.39477 0.61861 0.54332 0.0
C1566 C 0.40618 0.59354 0.54653 0.0
C1567 C 0.41916 0.65533 0.54267 0.0
C1568 C 0.45601 0.66856 0.54537 0.0
H1569 H 0.3671 0.60997 0.53955 0.0
H1570 H 0.40913 0.67317 0.53824 0.0
S1571 S 0.49973 0.61521 0.55818 0.0
N1572 N 0.45691 0.58531 0.55552 0.0
N1573 N 0.50263 0.6544 0.55397 0.0
C1574 C 0.4677 0.64419 0.55027 0.0
C1575 C 0.44286 0.60672 0.55105 0.0
C1576 C 0.34695 0.76264 0.535 0.0
C1577 C 0.33308 0.7857 0.53804 0.0
C1578 C 0.38373 0.77533 0.53655 0.0
C1579 C 0.40824 0.8117 0.54099 0.0
H1580 H 0.32959 0.73492 0.52993 0.0
H1581 H 0.39303 0.75673 0.53275 0.0
S1582 S 0.38488 0.88234 0.55282 0.0
N1583 N 0.34614 0.84594 0.54752 0.0
N1584 N 0.41527 0.87002 0.55056 0.0
C1585 C 0.39443 0.83469 0.5453 0.0
C1586 C 0.35693 0.82169 0.54368 0.0
C1587 C 0.22861 0.50046 0.30967 0.0
C1588 C 0.25996 0.51652 0.29476 0.0
C1589 C 0.20413 0.51264 0.30875 0.0
C1590 C 0.20994 0.5412 0.29277 0.0
H1591 H 0.22365 0.47928 0.32304 0.0
H1592 H 0.18125 0.50051 0.32145 0.0
S1593 S 0.2841 0.58741 0.24613 0.0
N1594 N 0.29322 0.55934 0.26124 0.0
N1595 N 0.24642 0.58143 0.2587 0.0
C1596 C 0.23979 0.55569 0.27633 0.0
C1597 C 0.26508 0.54366 0.2776 0.0
C1598 C 0.4939 0.72976 0.28882 0.0
C1599 C 0.47183 0.74283 0.2978 0.0
C1600 C 0.48242 0.69313 0.28918 0.0
C1601 C 0.44837 0.66825 0.29832 0.0
H1602 H 0.52072 0.74806 0.2822 0.0
H1603 H 0.50058 0.68429 0.28282 0.0
S1604 S 0.38098 0.68833 0.32524 0.0
N1605 N 0.41445 0.72758 0.31666 0.0
N1606 N 0.39321 0.65904 0.31746 0.0
C1607 C 0.42581 0.68076 0.30695 0.0
C1608 C 0.43741 0.71797 0.30657 0.0
C1609 C 0.27455 0.76909 0.27892 0.0
C1610 C 0.26142 0.7369 0.29273 0.0
C1611 C 0.31076 0.79568 0.28024 0.0
C1612 C 0.33481 0.7908 0.2954 0.0
H1613 H 0.25651 0.77418 0.26765 0.0
H1614 H 0.31979 0.82047 0.26992 0.0
S1615 S 0.31372 0.71338 0.33703 0.0
N1616 N 0.27542 0.70324 0.32331 0.0
N1617 N 0.34324 0.75255 0.32516 0.0
C1618 C 0.32223 0.7588 0.30903 0.0
C1619 C 0.28556 0.73195 0.30782 0.0
C1620 C 0.99601 0.14516 0.26268 0.0
C1621 C 0.98737 0.16762 0.27667 0.0
C1622 C 0.00067 0.14868 0.23586 0.0
C1623 C 0.99664 0.17465 0.22234 0.0
H1624 H 0.00066 0.12586 0.27262 0.0
H1625 H 0.00721 0.13087 0.22566 0.0
S1626 S 0.97469 0.24018 0.25061 0.0
N1627 N 0.97547 0.21674 0.27535 0.0
N1628 N 0.9836 0.22316 0.22521 0.0
C1629 C 0.98757 0.19688 0.23628 0.0
C1630 C 0.9831 0.19341 0.26337 0.0
C1631 C 0.83692 0.80693 0.26242 0.0
C1632 C 0.82221 0.82407 0.27654 0.0
C1633 C 0.83541 0.80605 0.23553 0.0
C1634 C 0.82005 0.82313 0.2218 0.0
H1635 H 0.84868 0.79321 0.27223 0.0
H1636 H 0.84647 0.79192 0.22537 0.0
S1637 S 0.78004 0.87375 0.24988 0.0
N1638 N 0.79287 0.85958 0.27495 0.0
N1639 N 0.79122 0.85889 0.22433 0.0
C1640 C 0.80642 0.84145 0.23567 0.0
C1641 C 0.80716 0.84162 0.26307 0.0
C1642 C 0.16172 0.96671 0.24038 0.0
C1643 C 0.17685 0.99778 0.22535 0.0
C1644 C 0.16319 0.96882 0.26732 0.0
C1645 C 0.17905 0.00204 0.28012 0.0
H1646 H 0.14954 0.94071 0.2313 0.0
H1647 H 0.15157 0.94419 0.27821 0.0
S1648 S 0.22056 0.09116 0.24927 0.0
N1649 N 0.20714 0.0627 0.22508 0.0
N1650 N 0.20912 0.06653 0.27554 0.0
C1651 C 0.19336 0.03321 0.26522 0.0
C1652 C 0.19246 0.0311 0.23789 0.0
C1653 C 0.0063 0.79523 0.73723 0.0
C1654 C 0.0061 0.82272 0.72302 0.0
C1655 C 0.00323 0.79415 0.76405 0.0
C1656 C 0.99837 0.81968 0.7774 0.0
H1657 H 0.00906 0.77457 0.72753 0.0
H1658 H 0.00427 0.77297 0.77441 0.0
S1659 S 0.99494 0.89638 0.74883 0.0
N1660 N 0.00072 0.87597 0.72404 0.0
N1661 N 0.99343 0.87311 0.77444 0.0
C1662 C 0.99755 0.84697 0.76335 0.0
C1663 C 0.00182 0.8487 0.73613 0.0
C1664 C 0.14858 0.15356 0.75929 0.0
C1665 C 0.18135 0.17037 0.7724 0.0
C1666 C 0.14731 0.15506 0.7324 0.0
C1667 C 0.17885 0.17299 0.71783 0.0
H1668 H 0.12376 0.14031 0.76995 0.0
H1669 H 0.12153 0.14207 0.72299 0.0
S1670 S 0.27138 0.2209 0.74351 0.0
N1671 N 0.24582 0.20547 0.76925 0.0
N1672 N 0.24386 0.20749 0.71874 0.0
C1673 C 0.21183 0.18924 0.73087 0.0
C1674 C 0.21297 0.18819 0.75818 0.0
C1675 C 0.84439 0.03018 0.76646 0.0
C1676 C 0.82952 0.99852 0.78083 0.0
C1677 C 0.84309 0.0292 0.73954 0.0
C1678 C 0.8277 0.99658 0.72603 0.0
H1679 H 0.85598 0.05579 0.77608 0.0
H1680 H 0.85417 0.05425 0.72921 0.0
S1681 S 0.78741 0.90631 0.75483 0.0
N1682 N 0.80022 0.93367 0.77968 0.0
N1683 N 0.79875 0.932 0.7291 0.0
C1684 C 0.81401 0.96482 0.74018 0.0
C1685 C 0.81464 0.96576 0.76757 0.0
C1686 C 0.66785 0.48747 0.56982 0.0
C1687 C 0.67066 0.51663 0.55595 0.0
C1688 C 0.66372 0.48569 0.59661 0.0
C1689 C 0.66322 0.51346 0.6103 0.0
H1690 H 0.66799 0.46556 0.55985 0.0
H1691 H 0.6618 0.46291 0.60674 0.0
S1692 S 0.67017 0.59571 0.58282 0.0
N1693 N 0.6722 0.5735 0.55768 0.0
N1694 N 0.66626 0.57101 0.60814 0.0
C1695 C 0.66648 0.54291 0.59664 0.0
C1696 C 0.66969 0.54425 0.5694 0.0
C1697 C 0.50694 0.14375 0.59986 0.0
C1698 C 0.49163 0.16021 0.61415 0.0
C1699 C 0.50667 0.14419 0.57294 0.0
C1700 C 0.49193 0.16192 0.5593 0.0
H1701 H 0.51848 0.1297 0.60951 0.0
H1702 H 0.51822 0.13058 0.56273 0.0
S1703 S 0.45035 0.21091 0.5878 0.0
N1704 N 0.46221 0.19566 0.61276 0.0
N1705 N 0.46266 0.19727 0.56216 0.0
C1706 C 0.47747 0.17938 0.57337 0.0
C1707 C 0.47703 0.17827 0.60079 0.0
C1708 C 0.84639 0.30316 0.59999 0.0
C1709 C 0.83326 0.32282 0.61302 0.0
C1710 C 0.84349 0.29902 0.57325 0.0
C1711 C 0.82645 0.31345 0.55872 0.0
H1712 H 0.86022 0.29199 0.61039 0.0
H1713 H 0.85596 0.28574 0.56377 0.0
S1714 S 0.78515 0.36473 0.58331 0.0
N1715 N 0.80086 0.35522 0.60921 0.0
N1716 N 0.79517 0.3469 0.55893 0.0
C1717 C 0.81189 0.33181 0.57146 0.0
C1718 C 0.81533 0.3366 0.59863 0.0
C1719 C 0.67824 0.136 0.10076 0.0
C1720 C 0.67093 0.15992 0.1141 0.0
C1721 C 0.68088 0.13685 0.074 0.0
C1722 C 0.67738 0.16232 0.05954 0.0
H1723 H 0.68137 0.11598 0.11109 0.0
H1724 H 0.68526 0.11709 0.06447 0.0
S1725 S 0.65929 0.2317 0.08506 0.0
N1726 N 0.66076 0.21021 0.11085 0.0
N1727 N 0.66661 0.21231 0.06031 0.0
C1728 C 0.6709 0.18698 0.07255 0.0
C1729 C 0.66735 0.18559 0.0999 0.0
C1730 C 0.85179 0.49082 0.09926 0.0
C1731 C 0.83468 0.50498 0.11404 0.0
C1732 C 0.85207 0.49271 0.07242 0.0
C1733 C 0.83458 0.50809 0.05928 0.0
H1734 H 0.86599 0.47913 0.10848 0.0
H1735 H 0.86627 0.48207 0.06186 0.0
S1736 S 0.78379 0.54686 0.08899 0.0
N1737 N 0.79853 0.53374 0.11357 0.0
N1738 N 0.79841 0.53636 0.06298 0.0
C1739 C 0.81623 0.52116 0.07373 0.0
C1740 C 0.81651 0.51991 0.10115 0.0
C1741 C 0.4707 0.29825 0.07214 0.0
C1742 C 0.48831 0.32945 0.05739 0.0
C1743 C 0.47098 0.30006 0.09905 0.0
C1744 C 0.48961 0.33302 0.11206 0.0
H1745 H 0.45562 0.27249 0.06286 0.0
H1746 H 0.45639 0.27539 0.10974 0.0
S1747 S 0.5422 0.4221 0.08193 0.0
N1748 N 0.52613 0.39408 0.0575 0.0
N1749 N 0.52747 0.39727 0.10805 0.0
C1750 C 0.5085 0.36422 0.09746 0.0
C1751 C 0.50759 0.36247 0.07012 0.0
C1752 C 0.36495 0.86055 0.90535 0.0
C1753 C 0.33365 0.84225 0.89071 0.0
C1754 C 0.36352 0.86026 0.93226 0.0
C1755 C 0.33083 0.84096 0.94549 0.0
H1756 H 0.39059 0.87587 0.89595 0.0
H1757 H 0.38832 0.87512 0.94277 0.0
S1758 S 0.2415 0.78684 0.91578 0.0
N1759 N 0.26917 0.80338 0.89121 0.0
N1760 N 0.26661 0.80213 0.94174 0.0
C1761 C 0.29946 0.82177 0.931 0.0
C1762 C 0.30085 0.82263 0.90363 0.0
C1763 C 0.13586 0.50343 0.90443 0.0
C1764 C 0.1527 0.48856 0.89012 0.0
C1765 C 0.13633 0.50299 0.93136 0.0
C1766 C 0.15449 0.48857 0.94485 0.0
H1767 H 0.12152 0.51465 0.89477 0.0
H1768 H 0.12248 0.5142 0.94169 0.0
S1769 S 0.20464 0.44841 0.91606 0.0
N1770 N 0.18897 0.46004 0.89122 0.0
N1771 N 0.19069 0.4602 0.94179 0.0
C1772 C 0.17233 0.47462 0.93071 0.0
C1773 C 0.17118 0.47433 0.90334 0.0
C1774 C 0.4797 0.65264 0.92832 0.0
C1775 C 0.51175 0.66948 0.9423 0.0
C1776 C 0.47994 0.65096 0.90139 0.0
C1777 C 0.5123 0.66625 0.88765 0.0
H1778 H 0.45433 0.6403 0.9383 0.0
H1779 H 0.45466 0.63801 0.8913 0.0
S1780 S 0.60343 0.71221 0.91609 0.0
N1781 N 0.57635 0.70064 0.94105 0.0
N1782 N 0.57734 0.69808 0.89055 0.0
C1783 C 0.54455 0.68301 0.9017 0.0
C1784 C 0.54414 0.68444 0.92902 0.0
C1785 C 0.36535 0.51069 0.43294 0.0
C1786 C 0.33287 0.49433 0.44662 0.0
C1787 C 0.36598 0.5107 0.40602 0.0
C1788 C 0.33414 0.49349 0.39188 0.0
H1789 H 0.39057 0.52348 0.44314 0.0
H1790 H 0.39152 0.52325 0.39626 0.0
S1791 S 0.2421 0.44808 0.41837 0.0
N1792 N 0.26815 0.46197 0.44395 0.0
N1793 N 0.26919 0.461 0.39336 0.0
C1794 C 0.30147 0.47759 0.40528 0.0
C1795 C 0.30086 0.47831 0.43266 0.0
C1796 C 0.54101 0.87395 0.43293 0.0
C1797 C 0.51445 0.84497 0.44682 0.0
C1798 C 0.53902 0.87558 0.40615 0.0
C1799 C 0.50967 0.84905 0.39254 0.0
H1800 H 0.56357 0.8954 0.44284 0.0
H1801 H 0.56043 0.8979 0.39602 0.0
S1802 S 0.43281 0.76808 0.41999 0.0
N1803 N 0.45806 0.78909 0.44507 0.0
N1804 N 0.45362 0.79294 0.39473 0.0
C1805 C 0.48272 0.82018 0.4062 0.0
C1806 C 0.4853 0.81793 0.43338 0.0
C1807 C 0.17301 0.69606 0.39996 0.0
C1808 C 0.15651 0.66344 0.38641 0.0
C1809 C 0.17344 0.69696 0.42687 0.0
C1810 C 0.15657 0.66526 0.44118 0.0
H1811 H 0.18581 0.72119 0.38966 0.0
H1812 H 0.1862 0.72259 0.43651 0.0
S1813 S 0.11077 0.57296 0.41513 0.0
N1814 N 0.12418 0.59875 0.38942 0.0
N1815 N 0.12406 0.60031 0.44 0.0
C1816 C 0.14037 0.63247 0.42792 0.0
C1817 C 0.14061 0.63157 0.40054 0.0
C1818 C 0.09448 0.3377 0.05838 0.0
C1819 C 0.10031 0.36772 0.0727 0.0
C1820 C 0.07731 0.30336 0.06938 0.0
C1821 C 0.06576 0.29811 0.09507 0.0
H1822 H 0.10228 0.34067 0.03837 0.0
H1823 H 0.07205 0.2807 0.05748 0.0
S1824 S 0.07697 0.3686 0.14093 0.0
N1825 N 0.09446 0.39033 0.11389 0.0
N1826 N 0.06317 0.32619 0.1348 0.0
C1827 C 0.07254 0.3282 0.1097 0.0
C1828 C 0.08959 0.36293 0.09845 0.0
C1829 C 0.66081 0.72822 0.05659 0.0
C1830 C 0.63202 0.72919 0.06845 0.0
C1831 C 0.695 0.74513 0.0677 0.0
C1832 C 0.70172 0.76411 0.09083 0.0
H1833 H 0.65683 0.71404 0.03865 0.0
H1834 H 0.71628 0.7432 0.05824 0.0
S1835 S 0.63574 0.77416 0.12992 0.0
N1836 N 0.61256 0.7499 0.10506 0.0
N1837 N 0.67711 0.78276 0.1254 0.0
C1838 C 0.67346 0.7658 0.10269 0.0
C1839 C 0.63854 0.74812 0.09162 0.0
C1840 C 0.25839 0.92863 0.10914 0.0
C1841 C 0.23456 0.93497 0.09475 0.0
C1842 C 0.27531 0.91124 0.09827 0.0
C1843 C 0.2687 0.89932 0.07272 0.0
H1844 H 0.26413 0.93738 0.12894 0.0
H1845 H 0.2938 0.9072 0.10986 0.0
S1846 S 0.21028 0.91098 0.02647 0.0
N1847 N 0.2067 0.9295 0.05323 0.0
N1848 N 0.23763 0.89574 0.03308 0.0
C1849 C 0.24497 0.9054 0.05813 0.0
C1850 C 0.22808 0.9235 0.06908 0.0
C1851 C 0.3282 0.06437 0.39747 0.0
C1852 C 0.2996 0.06645 0.40856 0.0
C1853 C 0.36222 0.08128 0.40883 0.0
C1854 C 0.36898 0.10113 0.43158 0.0
H1855 H 0.32423 0.04951 0.37987 0.0
H1856 H 0.38339 0.07867 0.39984 0.0
S1857 S 0.30314 0.11382 0.46879 0.0
N1858 N 0.28018 0.08906 0.44405 0.0
N1859 N 0.34431 0.12143 0.46507 0.0
C1860 C 0.3408 0.10369 0.44276 0.0
C1861 C 0.30607 0.08621 0.43133 0.0
C1862 C 0.89074 0.23782 0.42633 0.0
C1863 C 0.90849 0.27477 0.43142 0.0
C1864 C 0.90775 0.22168 0.41365 0.0
C1865 C 0.94436 0.24086 0.40739 0.0
H1866 H 0.86336 0.22077 0.43213 0.0
H1867 H 0.89155 0.19391 0.40861 0.0
S1868 S 0.0045 0.33796 0.41847 0.0
N1869 N 0.96463 0.33063 0.42674 0.0
N1870 N 0.99882 0.2985 0.41075 0.0
C1871 C 0.96307 0.27737 0.41404 0.0
C1872 C 0.94474 0.29463 0.42415 0.0
C1873 C 0.77136 0.67558 0.39504 0.0
C1874 C 0.77108 0.70457 0.40704 0.0
C1875 C 0.75455 0.64153 0.40648 0.0
C1876 C 0.73723 0.63557 0.43035 0.0
H1877 H 0.78354 0.67898 0.37632 0.0
H1878 H 0.75411 0.61953 0.39624 0.0
S1879 S 0.73272 0.70386 0.47071 0.0
N1880 N 0.75426 0.72579 0.44465 0.0
N1881 N 0.72377 0.66233 0.46655 0.0
C1882 C 0.73834 0.66484 0.44299 0.0
C1883 C 0.755 0.69923 0.43123 0.0
C1884 C 0.9349 0.67047 0.89459 0.0
C1885 C 0.93217 0.69913 0.90492 0.0
C1886 C 0.91826 0.63676 0.90642 0.0
C1887 C 0.89778 0.63032 0.92877 0.0
H1888 H 0.95024 0.67416 0.87728 0.0
H1889 H 0.92153 0.61562 0.89811 0.0
S1890 S 0.88259 0.69609 0.96383 0.0
N1891 N 0.90797 0.71876 0.93925 0.0
N1892 N 0.87569 0.65508 0.96092 0.0
C1893 C 0.89424 0.65841 0.93906 0.0
C1894 C 0.91162 0.69288 0.92725 0.0
C1895 C 0.30221 0.22436 0.92621 0.0
C1896 C 0.29883 0.23225 0.90052 0.0
C1897 C 0.33568 0.24069 0.93846 0.0
C1898 C 0.36675 0.26548 0.92542 0.0
H1899 H 0.27872 0.20619 0.93709 0.0
H1900 H 0.33719 0.23458 0.95843 0.0
S1901 S 0.37268 0.29369 0.85769 0.0
N1902 N 0.32981 0.26502 0.86211 0.0
N1903 N 0.39242 0.29623 0.8854 0.0
C1904 C 0.36388 0.27301 0.89966 0.0
C1905 C 0.32997 0.25625 0.88714 0.0
C1906 C 0.73026 0.0931 0.90324 0.0
C1907 C 0.73095 0.09819 0.92991 0.0
C1908 C 0.74753 0.07611 0.89213 0.0
C1909 C 0.76629 0.06404 0.90734 0.0
H1910 H 0.71569 0.10164 0.89098 0.0
H1911 H 0.74597 0.0721 0.87154 0.0
S1912 S 0.77589 0.07107 0.97807 0.0
N1913 N 0.75178 0.08992 0.97121 0.0
N1914 N 0.78435 0.05824 0.95034 0.0
C1915 C 0.76745 0.06937 0.93397 0.0
C1916 C 0.74973 0.0864 0.94526 0.0
C1917 C 0.66208 0.92848 0.56382 0.0
C1918 C 0.63271 0.89929 0.57563 0.0
C1919 C 0.69606 0.94518 0.57523 0.0
C1920 C 0.70201 0.933 0.59869 0.0
H1921 H 0.6587 0.93871 0.54569 0.0
H1922 H 0.7178 0.96796 0.56573 0.0
S1923 S 0.63422 0.85819 0.63773 0.0
N1924 N 0.61183 0.85952 0.61245 0.0
N1925 N 0.67597 0.89028 0.63347 0.0
C1926 C 0.67314 0.90355 0.61052 0.0
C1927 C 0.63842 0.88682 0.59907 0.0
C1928 C 0.06708 0.73735 0.60546 0.0
C1929 C 0.06734 0.76687 0.59386 0.0
C1930 C 0.0842 0.72058 0.59396 0.0
C1931 C 0.10257 0.73299 0.57061 0.0
H1932 H 0.05326 0.72692 0.62349 0.0
H1933 H 0.08273 0.69746 0.60324 0.0
S1934 S 0.11089 0.80885 0.5322 0.0
N1935 N 0.08707 0.80739 0.55746 0.0
N1936 N 0.12 0.77634 0.53618 0.0
C1937 C 0.10365 0.76282 0.55903 0.0
C1938 C 0.08587 0.77967 0.57058 0.0
C1939 C 0.22467 0.30824 0.57371 0.0
C1940 C 0.23724 0.30028 0.59625 0.0
C1941 C 0.24224 0.34281 0.5632 0.0
C1942 C 0.27322 0.37039 0.57469 0.0
H1943 H 0.20156 0.28743 0.56385 0.0
H1944 H 0.23209 0.34778 0.5456 0.0
S1945 S 0.31506 0.3644 0.63506 0.0
N1946 N 0.28085 0.32375 0.63082 0.0
N1947 N 0.31455 0.38819 0.61042 0.0
C1948 C 0.28557 0.36305 0.59747 0.0
C1949 C 0.26742 0.3281 0.6084 0.0
C1950 C 0.02846 0.41628 0.7366 0.0
C1951 C 0.03531 0.43592 0.75946 0.0
C1952 C 0.99429 0.39911 0.7255 0.0
C1953 C 0.96566 0.40072 0.73697 0.0
H1954 H 0.04959 0.41376 0.72745 0.0
H1955 H 0.99014 0.38413 0.70793 0.0
S1956 S 0.96949 0.44767 0.79747 0.0
N1957 N 0.01076 0.45574 0.79336 0.0
N1958 N 0.94636 0.42293 0.77277 0.0
C1959 C 0.97227 0.42052 0.75973 0.0
C1960 C 0.00715 0.43825 0.77091 0.0
C1961 C 0.60642 0.57827 0.76347 0.0
C1962 C 0.60101 0.5668 0.73782 0.0
C1963 C 0.58965 0.59621 0.77363 0.0
C1964 C 0.5672 0.60356 0.75839 0.0
H1965 H 0.62405 0.5737 0.77565 0.0
H1966 H 0.59456 0.60477 0.7935 0.0
S1967 S 0.54628 0.58083 0.68961 0.0
N1968 N 0.57247 0.56457 0.69722 0.0
N1969 N 0.54175 0.59927 0.71608 0.0
C1970 C 0.56178 0.59236 0.73266 0.0
C1971 C 0.57854 0.57374 0.72242 0.0
C1972 C 0.38664 0.97234 0.73994 0.0
C1973 C 0.39904 0.96566 0.76305 0.0
C1974 C 0.40366 0.0065 0.72884 0.0
C1975 C 0.43351 0.03527 0.74057 0.0
H1976 H 0.36346 0.95103 0.73048 0.0
H1977 H 0.39326 0.01047 0.71099 0.0
S1978 S 0.47544 0.03191 0.80179 0.0
N1979 N 0.44254 0.99055 0.7975 0.0
N1980 N 0.47418 0.0549 0.77689 0.0
C1981 C 0.44621 0.02886 0.76364 0.0
C1982 C 0.42904 0.99402 0.77483 0.0
C1983 C 0.61509 0.03115 0.26627 0.0
C1984 C 0.6025 0.03834 0.24348 0.0
C1985 C 0.59758 0.99695 0.27727 0.0
C1986 C 0.56719 0.96864 0.26565 0.0
H1987 H 0.63884 0.05204 0.27548 0.0
H1988 H 0.60808 0.99256 0.29491 0.0
S1989 S 0.52462 0.97365 0.20522 0.0
N1990 N 0.55815 0.01468 0.20954 0.0
N1991 N 0.52584 0.95008 0.22975 0.0
C1992 C 0.55432 0.97564 0.2429 0.0
C1993 C 0.57186 0.01058 0.23191 0.0
C1994 C 0.97558 0.55872 0.25745 0.0
C1995 C 0.9676 0.57152 0.23503 0.0
C1996 C 0.01015 0.57611 0.26798 0.0
C1997 C 0.0378 0.60715 0.25662 0.0
H1998 H 0.95481 0.5354 0.26714 0.0
H1999 H 0.01511 0.56568 0.28544 0.0
S2000 S 0.03175 0.64987 0.19672 0.0
N2001 N 0.99106 0.61567 0.20085 0.0
N2002 N 0.05556 0.64897 0.22121 0.0
C2003 C 0.0304 0.61988 0.23404 0.0
C2004 C 0.9954 0.60194 0.22312 0.0
C2005 C 0.44546 0.41816 0.26222 0.0
C2006 C 0.43422 0.402 0.23796 0.0
C2007 C 0.42936 0.43596 0.27385 0.0
C2008 C 0.40137 0.43789 0.26165 0.0
H2009 H 0.46604 0.41605 0.27259 0.0
H2010 H 0.43794 0.44716 0.29287 0.0
S2011 S 0.36445 0.40303 0.19715 0.0
N2012 N 0.39547 0.39186 0.20131 0.0
N2013 N 0.36453 0.42416 0.22358 0.0
C2014 C 0.39073 0.42291 0.23713 0.0
C2015 C 0.40733 0.40524 0.22518 0.0
C2016 C 0.83007 0.14865 0.14826 0.0
C2017 C 0.86451 0.17343 0.15689 0.0
C2018 C 0.79987 0.14124 0.16261 0.0
C2019 C 0.80274 0.1584 0.1862 0.0
H2020 H 0.82626 0.13458 0.13029 0.0
H2021 H 0.77399 0.12233 0.15476 0.0
S2022 S 0.88699 0.22419 0.21822 0.0
N2023 N 0.89993 0.21433 0.19115 0.0
N2024 N 0.843 0.20023 0.21814 0.0
C2025 C 0.83706 0.18275 0.19539 0.0
C2026 C 0.86794 0.19044 0.18069 0.0
C2027 C 0.85332 0.65485 0.16182 0.0
C2028 C 0.82093 0.62451 0.16856 0.0
C2029 C 0.85387 0.68498 0.15155 0.0
C2030 C 0.82213 0.68601 0.14815 0.0
H2031 H 0.87837 0.65514 0.16404 0.0
H2032 H 0.87948 0.70792 0.1468 0.0
S2033 S 0.73041 0.61354 0.16304 0.0
N2034 N 0.75629 0.59712 0.17108 0.0
N2035 N 0.75752 0.65425 0.15226 0.0
C2036 C 0.78959 0.65594 0.15495 0.0
C2037 C 0.78895 0.62503 0.16503 0.0
C2038 C 0.34798 0.16398 0.18876 0.0
C2039 C 0.35456 0.19782 0.18085 0.0
C2040 C 0.32447 0.13314 0.17525 0.0
C2041 C 0.30636 0.13475 0.15328 0.0
H2042 H 0.36146 0.16115 0.20535 0.0
H2043 H 0.32019 0.10777 0.18237 0.0
S2044 S 0.31408 0.21689 0.12446 0.0
N2045 N 0.34093 0.23119 0.14957 0.0
N2046 N 0.29676 0.17317 0.12412 0.0
C2047 C 0.31272 0.16844 0.14506 0.0
C2048 C 0.33666 0.19993 0.1589 0.0
C2049 C 0.19221 0.86248 0.34785 0.0
C2050 C 0.16216 0.86504 0.341 0.0
C2051 C 0.19323 0.83111 0.34351 0.0
C2052 C 0.16425 0.80106 0.33213 0.0
H2053 H 0.21539 0.88501 0.35636 0.0
H2054 H 0.21719 0.83066 0.3489 0.0
S2055 S 0.07823 0.79313 0.3121 0.0
N2056 N 0.10191 0.83419 0.32328 0.0
N2057 N 0.104 0.77529 0.31507 0.0
C2058 C 0.13375 0.80299 0.32557 0.0
C2059 C 0.13266 0.83495 0.33003 0.0
C2060 C 0.2003 0.34094 0.3398 0.0
C2061 C 0.2003 0.35692 0.31625 0.0
C2062 C 0.16844 0.31634 0.35172 0.0
C2063 C 0.13518 0.3065 0.34057 0.0
H2064 H 0.22512 0.34787 0.34947 0.0
H2065 H 0.17004 0.30479 0.36977 0.0
S2066 S 0.1203 0.33969 0.27858 0.0
N2067 N 0.16409 0.36051 0.28186 0.0
N2068 N 0.10411 0.31426 0.30427 0.0
C2069 C 0.13469 0.32201 0.31688 0.0
C2070 C 0.16724 0.34707 0.30469 0.0
C2071 C 0.66783 0.8023 0.33019 0.0
C2072 C 0.68854 0.82506 0.35024 0.0
C2073 C 0.64287 0.80789 0.31704 0.0
C2074 C 0.63751 0.83649 0.32336 0.0
H2075 H 0.67106 0.78002 0.3244 0.0
H2076 H 0.62736 0.78926 0.30199 0.0
S2077 S 0.68555 0.90454 0.37398 0.0
N2078 N 0.70238 0.87776 0.37559 0.0
N2079 N 0.65556 0.88838 0.3508 0.0
C2080 C 0.65822 0.8597 0.34326 0.0
C2081 C 0.68357 0.85387 0.35678 0.0
C2082 C 0.19965 0.85853 0.84105 0.0
C2083 C 0.19707 0.83852 0.81901 0.0
C2084 C 0.16924 0.85268 0.85453 0.0
C2085 C 0.13488 0.82658 0.84657 0.0
H2086 H 0.22546 0.87876 0.84821 0.0
H2087 H 0.17282 0.86915 0.87119 0.0
S2088 S 0.11325 0.76685 0.78996 0.0
N2089 N 0.15717 0.79155 0.78971 0.0
N2090 N 0.09999 0.78035 0.81512 0.0
C2091 C 0.13181 0.80626 0.82456 0.0
C2092 C 0.16286 0.81237 0.81072 0.0
C2093 C 0.14705 0.31254 0.84681 0.0
C2094 C 0.17763 0.3105 0.84059 0.0
C2095 C 0.13934 0.33643 0.83423 0.0
C2096 C 0.16193 0.35938 0.81496 0.0
H2097 H 0.12836 0.295 0.86113 0.0
H2098 H 0.11547 0.33698 0.83978 0.0
S2099 S 0.24673 0.36615 0.79265 0.0
N2100 N 0.23147 0.33442 0.81462 0.0
N2101 N 0.21713 0.37954 0.79098 0.0
C2102 C 0.1929 0.35795 0.80874 0.0
C2103 C 0.20076 0.33357 0.8216 0.0
C2104 C 0.6773 0.8666 0.82814 0.0
C2105 C 0.6959 0.8628 0.84897 0.0
C2106 C 0.65272 0.83705 0.81389 0.0
C2107 C 0.64557 0.80239 0.8199 0.0
H2108 H 0.68192 0.89269 0.82256 0.0
H2109 H 0.6388 0.84149 0.79831 0.0
S2110 S 0.68741 0.77774 0.87239 0.0
N2111 N 0.70561 0.82145 0.87478 0.0
N2112 N 0.6595 0.76593 0.84795 0.0
C2113 C 0.6641 0.79813 0.8406 0.0
C2114 C 0.6891 0.82827 0.85519 0.0
C2115 C 0.80397 0.12937 0.67714 0.0
C2116 C 0.82408 0.13271 0.655 0.0
C2117 C 0.80813 0.15939 0.69027 0.0
C2118 C 0.83262 0.19406 0.68188 0.0
H2119 H 0.78498 0.1033 0.68465 0.0
H2120 H 0.79178 0.15528 0.70709 0.0
S2121 S 0.89121 0.21768 0.62449 0.0
N2122 N 0.86902 0.17364 0.62492 0.0
N2123 N 0.87693 0.23015 0.64965 0.0
C2124 C 0.8529 0.19792 0.6597 0.0
C2125 C 0.84849 0.16726 0.6462 0.0
C2126 C 0.86761 0.6727 0.67184 0.0
C2127 C 0.86485 0.69303 0.65182 0.0
C2128 C 0.8375 0.64771 0.68536 0.0
C2129 C 0.80326 0.64185 0.6794 0.0
H2130 H 0.89335 0.67627 0.67737 0.0
H2131 H 0.84119 0.63254 0.70038 0.0
S2132 S 0.78127 0.68834 0.62877 0.0
N2133 N 0.82493 0.70573 0.62675 0.0
N2134 N 0.7683 0.65879 0.65219 0.0
C2135 C 0.80001 0.66209 0.65948 0.0
C2136 C 0.83075 0.68752 0.64563 0.0
C2137 C 0.33163 0.13336 0.67788 0.0
C2138 C 0.35984 0.16553 0.68743 0.0
C2139 C 0.30154 0.13209 0.66688 0.0
C2140 C 0.29893 0.16307 0.66454 0.0
H2141 H 0.33276 0.10892 0.67896 0.0
H2142 H 0.28018 0.10664 0.66006 0.0
S2143 S 0.36516 0.25399 0.68665 0.0
N2144 N 0.38304 0.22919 0.69405 0.0
N2145 N 0.32649 0.22666 0.67297 0.0
C2146 C 0.32689 0.19545 0.67388 0.0
C2147 C 0.35731 0.19669 0.6855 0.0
C2148 C 0.46918 0.47764 0.49287 0.0
C2149 C 0.4719 0.49659 0.51554 0.0
C2150 C 0.49953 0.48398 0.47907 0.0
C2151 C 0.53395 0.50952 0.48732 0.0
H2152 H 0.44333 0.45789 0.48547 0.0
H2153 H 0.49585 0.46832 0.46192 0.0
S2154 S 0.55594 0.56628 0.54566 0.0
N2155 N 0.51199 0.54182 0.54581 0.0
N2156 N 0.56904 0.55399 0.51979 0.0
C2157 C 0.53715 0.52876 0.50998 0.0
C2158 C 0.50617 0.52212 0.52415 0.0
C2159 C 0.5182 0.01611 0.48325 0.0
C2160 C 0.4926 0.02464 0.49197 0.0
C2161 C 0.52497 0.99211 0.49665 0.0
C2162 C 0.50633 0.97543 0.51931 0.0
H2163 H 0.53363 0.02841 0.46609 0.0
H2164 H 0.54475 0.98631 0.48888 0.0
S2165 S 0.43654 0.98864 0.55047 0.0
N2166 N 0.44837 0.01443 0.52482 0.0
N2167 N 0.46129 0.96947 0.55007 0.0
C2168 C 0.48072 0.9838 0.52837 0.0
C2169 C 0.47371 0.00821 0.51465 0.0
C2170 C 0.97849 0.49834 0.4856 0.0
C2171 C 0.96986 0.46521 0.49642 0.0
C2172 C 0.00416 0.53036 0.49678 0.0
C2173 C 0.02245 0.53067 0.51922 0.0
H2174 H 0.96519 0.49973 0.46838 0.0
H2175 H 0.01005 0.55507 0.48741 0.0
S2176 S 0.00934 0.45109 0.55554 0.0
N2177 N 0.98136 0.43458 0.53116 0.0
N2178 N 0.02962 0.49484 0.55221 0.0
C2179 C 0.01383 0.49773 0.53047 0.0
C2180 C 0.98767 0.46502 0.51902 0.0
C2181 C 0.46891 0.46385 0.00517 0.0
C2182 C 0.49135 0.46507 0.98515 0.0
C2183 C 0.47553 0.49476 0.01831 0.0
C2184 C 0.50481 0.52823 0.01193 0.0
H2185 H 0.44608 0.43872 0.01094 0.0
H2186 H 0.45704 0.49235 0.03326 0.0
S2187 S 0.57254 0.54607 0.96161 0.0
N2188 N 0.54464 0.50268 0.95993 0.0
N2189 N 0.55706 0.56076 0.98468 0.0
C2190 C 0.52767 0.52991 0.99208 0.0
C2191 C 0.52088 0.4984 0.97862 0.0
C2192 C 0.53575 0.00036 0.01026 0.0
C2193 C 0.53388 0.02284 0.99157 0.0
C2194 C 0.50508 0.97444 0.02278 0.0
C2195 C 0.47123 0.96991 0.01717 0.0
H2196 H 0.56116 0.0028 0.01535 0.0
H2197 H 0.50802 0.95746 0.03668 0.0
S2198 S 0.45192 0.02322 0.97068 0.0
N2199 N 0.49544 0.03967 0.96862 0.0
N2200 N 0.43781 0.99106 0.99224 0.0
C2201 C 0.46899 0.99258 0.99878 0.0
C2202 C 0.50025 0.0189 0.98591 0.0
C2203 C 0.01442 0.51831 0.02393 0.0
C2204 C 0.01983 0.49003 0.01669 0.0
C2205 C 0.99022 0.52509 0.01079 0.0
C2206 C 0.97032 0.50385 0.98986 0.0
H2207 H 0.0295 0.53592 0.03959 0.0
H2208 H 0.98701 0.54714 0.01723 0.0
S2209 S 0.97352 0.4255 0.96379 0.0
N2210 N 0.00252 0.43992 0.98763 0.0
N2211 N 0.95713 0.4527 0.96286 0.0
C2212 C 0.97526 0.47527 0.9825 0.0
C2213 C -0.00014 0.46829 0.99597 0.0
loop_
_geom_bond_atom_site_label_1
_geom_bond_atom_site_label_2
_geom_bond_distance
_geom_bond_site_symmetry_2
_ccdc_geom_bond_type
Co0 O3 1.970 . S
Co0 N17 1.978 1_655 S
Co0 O25 1.967 . S
Co0 O32 1.920 . S
Co1 O4 1.966 1_455 S
Co1 N10 2.022 . S
Co1 N18 1.993 . S
Co1 O26 1.941 . S
C2 O3 1.258 . S
C2 O4 1.263 . S
O3 Co0 1.970 . S
O3 C2 1.258 . S
O4 Co1 1.966 1_655 S
O4 C2 1.263 . S
C5 O6 1.235 . S
C5 O32 1.289 . S
O6 C5 1.235 . S
C7 C9 1.400 . S
C7 N10 1.351 . S
C7 C12 1.501 . S
C8 C9 1.387 . S
C8 N11 1.341 . S
C9 C7 1.400 . S
C9 C8 1.387 . S
N10 Co1 2.022 . S
N10 C7 1.351 . S
N10 N11 1.365 . S
N11 C8 1.341 . S
N11 N10 1.365 . S
N11 H31 0.862 . S
C12 C7 1.501 . S
C12 H13 0.961 . S
C12 H14 0.961 . S
C12 H15 0.960 . S
H13 C12 0.961 . S
H14 C12 0.961 . S
H15 C12 0.960 . S
C16 N17 1.337 . S
C16 C20 1.401 . S
C16 C21 1.499 1_455 S
N17 Co0 1.978 1_455 S
N17 C16 1.337 . S
N17 N18 1.408 . S
N18 Co1 1.993 . S
N18 N17 1.408 . S
N18 C19 1.346 . S
C19 N18 1.346 . S
C19 C20 1.396 . S
C19 C29 1.510 . S
C20 C16 1.401 . S
C20 C19 1.396 . S
C21 C16 1.499 1_655 S
C21 H22 0.959 . S
C21 H23 0.960 . S
C21 H24 0.961 . S
H22 C21 0.959 . S
H23 C21 0.960 . S
H24 C21 0.961 . S
O25 Co0 1.967 . S
O25 C33 1.258 1_655 S
O26 Co1 1.941 . S
O26 C33 1.266 . S
H27 C29 0.959 . S
H28 C29 0.961 . S
C29 C19 1.510 . S
C29 H27 0.959 . S
C29 H28 0.961 . S
C29 H30 0.960 . S
H30 C29 0.960 . S
H31 N11 0.862 . S
O32 Co0 1.920 . S
O32 C5 1.289 . S
C33 O25 1.258 1_455 S
C33 O26 1.266 . S
Co34 O37 1.970 . S
Co34 N51 1.989 . S
Co34 O59 1.967 . S
Co34 O66 1.920 . S
Co35 O38 1.966 . S
Co35 N44 2.022 . S
Co35 N52 1.993 . S
Co35 O60 1.941 . S
C36 O37 1.258 . S
C36 O38 1.263 . S
O37 Co34 1.970 . S
O37 C36 1.258 . S
O38 Co35 1.966 . S
O38 C36 1.263 . S
C39 O40 1.235 . S
C39 O66 1.289 . S
O40 C39 1.235 . S
C41 C43 1.400 . S
C41 N44 1.351 . S
C41 C46 1.501 . S
C42 C43 1.387 . S
C42 N45 1.341 . S
C43 C41 1.400 . S
C43 C42 1.387 . S
N44 Co35 2.022 . S
N44 C41 1.351 . S
N44 N45 1.365 . S
N45 C42 1.341 . S
N45 N44 1.365 . S
N45 H65 0.862 . S
C46 C41 1.501 . S
C46 H47 0.961 . S
C46 H48 0.961 . S
C46 H49 0.960 . S
H47 C46 0.961 . S
H48 C46 0.961 . S
H49 C46 0.960 . S
C50 N51 1.342 . S
C50 C54 1.401 . S
C50 C55 1.499 . S
N51 Co34 1.989 . S
N51 C50 1.342 . S
N51 N52 1.388 . S
N52 Co35 1.993 . S
N52 N51 1.388 . S
N52 C53 1.346 . S
C53 N52 1.346 . S
C53 C54 1.396 . S
C53 C63 1.510 . S
C54 C50 1.401 . S
C54 C53 1.396 . S
C55 C50 1.499 . S
C55 H56 0.959 . S
C55 H57 0.960 . S
C55 H58 0.961 . S
H56 C55 0.959 . S
H57 C55 0.960 . S
H58 C55 0.961 . S
O59 Co34 1.967 . S
O59 C67 1.258 . S
O60 Co35 1.941 . S
O60 C67 1.266 . S
H61 C63 0.959 . S
H62 C63 0.961 . S
C63 C53 1.510 . S
C63 H61 0.959 . S
C63 H62 0.961 . S
C63 H64 0.960 . S
H64 C63 0.960 . S
H65 N45 0.862 . S
O66 Co34 1.920 . S
O66 C39 1.289 . S
C67 O59 1.258 . S
C67 O60 1.266 . S
Co68 O71 1.970 . S
Co68 N85 1.972 1_545 S
Co68 O93 1.967 . S
Co68 O100 1.920 . S
Co69 O72 1.966 1_565 S
Co69 N78 2.022 . S
Co69 N86 1.993 . S
Co69 O94 1.941 . S
C70 O71 1.258 . S
C70 O72 1.263 . S
O71 Co68 1.970 . S
O71 C70 1.258 . S
O72 Co69 1.966 1_545 S
O72 C70 1.263 . S
C73 O74 1.235 . S
C73 O100 1.289 . S
O74 C73 1.235 . S
C75 C77 1.400 . S
C75 N78 1.351 . S
C75 C80 1.501 . S
C76 C77 1.387 . S
C76 N79 1.341 . S
C77 C75 1.400 . S
C77 C76 1.387 . S
N78 Co69 2.022 . S
N78 C75 1.351 . S
N78 N79 1.365 . S
N79 C76 1.341 . S
N79 N78 1.365 . S
N79 H99 0.862 . S
C80 C75 1.501 . S
C80 H81 0.961 . S
C80 H82 0.961 . S
C80 H83 0.960 . S
H81 C80 0.961 . S
H82 C80 0.961 . S
H83 C80 0.960 . S
C84 N85 1.355 . S
C84 C88 1.401 . S
C84 C89 1.499 1_565 S
N85 Co68 1.972 1_565 S
N85 C84 1.355 . S
N85 N86 1.395 . S
N86 Co69 1.993 . S
N86 N85 1.395 . S
N86 C87 1.346 . S
C87 N86 1.346 . S
C87 C88 1.396 . S
C87 C97 1.510 . S
C88 C84 1.401 . S
C88 C87 1.396 . S
C89 C84 1.499 1_545 S
C89 H90 0.959 . S
C89 H91 0.960 . S
C89 H92 0.961 . S
H90 C89 0.959 . S
H91 C89 0.960 . S
H92 C89 0.961 . S
O93 Co68 1.967 . S
O93 C101 1.258 1_545 S
O94 Co69 1.941 . S
O94 C101 1.266 . S
H95 C97 0.959 . S
H96 C97 0.961 . S
C97 C87 1.510 . S
C97 H95 0.959 . S
C97 H96 0.961 . S
C97 H98 0.960 . S
H98 C97 0.960 . S
H99 N79 0.862 . S
O100 Co68 1.920 . S
O100 C73 1.289 . S
C101 O93 1.258 1_565 S
C101 O94 1.266 . S
Co102 O105 1.970 . S
Co102 N119 1.978 1_565 S
Co102 O127 1.967 . S
Co102 O134 1.920 . S
Co103 O106 1.966 1_545 S
Co103 N112 2.022 . S
Co103 N120 1.993 . S
Co103 O128 1.941 . S
C104 O105 1.258 . S
C104 O106 1.263 . S
O105 Co102 1.970 . S
O105 C104 1.258 . S
O106 Co103 1.966 1_565 S
O106 C104 1.263 . S
C107 O108 1.235 . S
C107 O134 1.289 . S
O108 C107 1.235 . S
C109 C111 1.400 . S
C109 N112 1.351 . S
C109 C114 1.501 . S
C110 C111 1.387 . S
C110 N113 1.341 . S
C111 C109 1.400 . S
C111 C110 1.387 . S
N112 Co103 2.022 . S
N112 C109 1.351 . S
N112 N113 1.365 . S
N113 C110 1.341 . S
N113 N112 1.365 . S
N113 H133 0.862 . S
C114 C109 1.501 . S
C114 H115 0.961 . S
C114 H116 0.961 . S
C114 H117 0.960 . S
H115 C114 0.961 . S
H116 C114 0.961 . S
H117 C114 0.960 . S
C118 N119 1.337 . S
C118 C122 1.401 . S
C118 C123 1.499 1_545 S
N119 Co102 1.978 1_545 S
N119 C118 1.337 . S
N119 N120 1.408 . S
N120 Co103 1.993 . S
N120 N119 1.408 . S
N120 C121 1.346 . S
C121 N120 1.346 . S
C121 C122 1.396 . S
C121 C131 1.510 . S
C122 C118 1.401 . S
C122 C121 1.396 . S
C123 C118 1.499 1_565 S
C123 H124 0.959 . S
C123 H125 0.960 . S
C123 H126 0.961 . S
H124 C123 0.959 . S
H125 C123 0.960 . S
H126 C123 0.961 . S
O127 Co102 1.967 . S
O127 C135 1.258 1_565 S
O128 Co103 1.941 . S
O128 C135 1.266 . S
H129 C131 0.959 . S
H130 C131 0.961 . S
C131 C121 1.510 . S
C131 H129 0.959 . S
C131 H130 0.961 . S
C131 H132 0.960 . S
H132 C131 0.960 . S
H133 N113 0.862 . S
O134 Co102 1.920 . S
O134 C107 1.289 . S
C135 O127 1.258 1_545 S
C135 O128 1.266 . S
Co136 O139 1.970 . S
Co136 N153 1.972 1_455 S
Co136 O161 1.967 . S
Co136 O168 1.920 . S
Co137 O140 1.966 1_655 S
Co137 N146 2.022 . S
Co137 N154 1.993 . S
Co137 O162 1.941 . S
C138 O139 1.258 . S
C138 O140 1.263 . S
O139 Co136 1.970 . S
O139 C138 1.258 . S
O140 Co137 1.966 1_455 S
O140 C138 1.263 . S
C141 O142 1.235 . S
C141 O168 1.289 . S
O142 C141 1.235 . S
C143 C145 1.400 . S
C143 N146 1.351 . S
C143 C148 1.501 . S
C144 C145 1.387 . S
C144 N147 1.341 . S
C145 C143 1.400 . S
C145 C144 1.387 . S
N146 Co137 2.022 . S
N146 C143 1.351 . S
N146 N147 1.365 . S
N147 C144 1.341 . S
N147 N146 1.365 . S
N147 H167 0.862 . S
C148 C143 1.501 . S
C148 H149 0.961 . S
C148 H150 0.961 . S
C148 H151 0.960 . S
H149 C148 0.961 . S
H150 C148 0.961 . S
H151 C148 0.960 . S
C152 N153 1.355 . S
C152 C156 1.401 . S
C152 C157 1.499 1_655 S
N153 Co136 1.972 1_655 S
N153 C152 1.355 . S
N153 N154 1.395 . S
N154 Co137 1.993 . S
N154 N153 1.395 . S
N154 C155 1.346 . S
C155 N154 1.346 . S
C155 C156 1.396 . S
C155 C165 1.510 . S
C156 C152 1.401 . S
C156 C155 1.396 . S
C157 C152 1.499 1_455 S
C157 H158 0.959 . S
C157 H159 0.960 . S
C157 H160 0.961 . S
H158 C157 0.959 . S
H159 C157 0.960 . S
H160 C157 0.961 . S
O161 Co136 1.967 . S
O161 C169 1.258 1_455 S
O162 Co137 1.941 . S
O162 C169 1.266 . S
H163 C165 0.959 . S
H164 C165 0.961 . S
C165 C155 1.510 . S
C165 H163 0.959 . S
C165 H164 0.961 . S
C165 H166 0.960 . S
H166 C165 0.960 . S
H167 N147 0.862 . S
O168 Co136 1.920 . S
O168 C141 1.289 . S
C169 O161 1.258 1_655 S
C169 O162 1.266 . S
Co170 O173 1.970 . S
Co170 N187 1.989 . S
Co170 O195 1.967 . S
Co170 O202 1.920 . S
Co171 O174 1.966 . S
Co171 N180 2.022 . S
Co171 N188 1.993 . S
Co171 O196 1.941 . S
C172 O173 1.258 . S
C172 O174 1.263 . S
O173 Co170 1.970 . S
O173 C172 1.258 . S
O174 Co171 1.966 . S
O174 C172 1.263 . S
C175 O176 1.235 . S
C175 O202 1.289 . S
O176 C175 1.235 . S
C177 C179 1.400 . S
C177 N180 1.351 . S
C177 C182 1.501 . S
C178 C179 1.387 . S
C178 N181 1.341 . S
C179 C177 1.400 . S
C179 C178 1.387 . S
N180 Co171 2.022 . S
N180 C177 1.351 . S
N180 N181 1.365 . S
N181 C178 1.341 . S
N181 N180 1.365 . S
N181 H201 0.862 . S
C182 C177 1.501 . S
C182 H183 0.961 . S
C182 H184 0.961 . S
C182 H185 0.960 . S
H183 C182 0.961 . S
H184 C182 0.961 . S
H185 C182 0.960 . S
C186 N187 1.342 . S
C186 C190 1.401 . S
C186 C191 1.499 . S
N187 Co170 1.989 . S
N187 C186 1.342 . S
N187 N188 1.388 . S
N188 Co171 1.993 . S
N188 N187 1.388 . S
N188 C189 1.346 . S
C189 N188 1.346 . S
C189 C190 1.396 . S
C189 C199 1.510 . S
C190 C186 1.401 . S
C190 C189 1.396 . S
C191 C186 1.499 . S
C191 H192 0.959 . S
C191 H193 0.960 . S
C191 H194 0.961 . S
H192 C191 0.959 . S
H193 C191 0.960 . S
H194 C191 0.961 . S
O195 Co170 1.967 . S
O195 C203 1.258 . S
O196 Co171 1.941 . S
O196 C203 1.266 . S
H197 C199 0.959 . S
H198 C199 0.961 . S
C199 C189 1.510 . S
C199 H197 0.959 . S
C199 H198 0.961 . S
C199 H200 0.960 . S
H200 C199 0.960 . S
H201 N181 0.862 . S
O202 Co170 1.920 . S
O202 C175 1.289 . S
C203 O195 1.258 . S
C203 O196 1.266 . S
Co204 O207 1.970 . S
Co204 N221 1.978 1_455 S
Co204 O229 1.967 . S
Co204 O236 1.920 . S
Co205 O208 1.966 1_655 S
Co205 N214 2.022 . S
Co205 N222 1.993 . S
Co205 O230 1.941 . S
C206 O207 1.258 . S
C206 O208 1.263 . S
O207 Co204 1.970 . S
O207 C206 1.258 . S
O208 Co205 1.966 1_455 S
O208 C206 1.263 . S
C209 O210 1.235 . S
C209 O236 1.289 . S
O210 C209 1.235 . S
C211 C213 1.400 . S
C211 N214 1.351 . S
C211 C216 1.501 . S
C212 C213 1.387 . S
C212 N215 1.341 . S
C213 C211 1.400 . S
C213 C212 1.387 . S
N214 Co205 2.022 . S
N214 C211 1.351 . S
N214 N215 1.365 . S
N215 C212 1.341 . S
N215 N214 1.365 . S
N215 H235 0.862 . S
C216 C211 1.501 . S
C216 H217 0.961 . S
C216 H218 0.961 . S
C216 H219 0.960 . S
H217 C216 0.961 . S
H218 C216 0.961 . S
H219 C216 0.960 . S
C220 N221 1.337 . S
C220 C224 1.401 . S
C220 C225 1.499 1_655 S
N221 Co204 1.978 1_655 S
N221 C220 1.337 . S
N221 N222 1.408 . S
N222 Co205 1.993 . S
N222 N221 1.408 . S
N222 C223 1.346 . S
C223 N222 1.346 . S
C223 C224 1.396 . S
C223 C233 1.510 . S
C224 C220 1.401 . S
C224 C223 1.396 . S
C225 C220 1.499 1_455 S
C225 H226 0.959 . S
C225 H227 0.960 . S
C225 H228 0.961 . S
H226 C225 0.959 . S
H227 C225 0.960 . S
H228 C225 0.961 . S
O229 Co204 1.967 . S
O229 C237 1.258 1_455 S
O230 Co205 1.941 . S
O230 C237 1.266 . S
H231 C233 0.959 . S
H232 C233 0.961 . S
C233 C223 1.510 . S
C233 H231 0.959 . S
C233 H232 0.961 . S
C233 H234 0.960 . S
H234 C233 0.960 . S
H235 N215 0.862 . S
O236 Co204 1.920 . S
O236 C209 1.289 . S
C237 O229 1.258 1_655 S
C237 O230 1.266 . S
Co238 O241 1.970 . S
Co238 N255 1.989 . S
Co238 O263 1.967 . S
Co238 O270 1.920 . S
Co239 O242 1.966 . S
Co239 N248 2.022 . S
Co239 N256 1.993 . S
Co239 O264 1.941 . S
C240 O241 1.258 . S
C240 O242 1.263 . S
O241 Co238 1.970 . S
O241 C240 1.258 . S
O242 Co239 1.966 . S
O242 C240 1.263 . S
C243 O244 1.235 . S
C243 O270 1.289 . S
O244 C243 1.235 . S
C245 C247 1.400 . S
C245 N248 1.351 . S
C245 C250 1.501 . S
C246 C247 1.387 . S
C246 N249 1.341 . S
C247 C245 1.400 . S
C247 C246 1.387 . S
N248 Co239 2.022 . S
N248 C245 1.351 . S
N248 N249 1.365 . S
N249 C246 1.341 . S
N249 N248 1.365 . S
N249 H269 0.862 . S
C250 C245 1.501 . S
C250 H251 0.961 . S
C250 H252 0.961 . S
C250 H253 0.960 . S
H251 C250 0.961 . S
H252 C250 0.961 . S
H253 C250 0.960 . S
C254 N255 1.342 . S
C254 C258 1.401 . S
C254 C259 1.499 . S
N255 Co238 1.989 . S
N255 C254 1.342 . S
N255 N256 1.388 . S
N256 Co239 1.993 . S
N256 N255 1.388 . S
N256 C257 1.346 . S
C257 N256 1.346 . S
C257 C258 1.396 . S
C257 C267 1.510 . S
C258 C254 1.401 . S
C258 C257 1.396 . S
C259 C254 1.499 . S
C259 H260 0.959 . S
C259 H261 0.960 . S
C259 H262 0.961 . S
H260 C259 0.959 . S
H261 C259 0.960 . S
H262 C259 0.961 . S
O263 Co238 1.967 . S
O263 C271 1.258 . S
O264 Co239 1.941 . S
O264 C271 1.266 . S
H265 C267 0.959 . S
H266 C267 0.961 . S
C267 C257 1.510 . S
C267 H265 0.959 . S
C267 H266 0.961 . S
C267 H268 0.960 . S
H268 C267 0.960 . S
H269 N249 0.862 . S
O270 Co238 1.920 . S
O270 C243 1.289 . S
C271 O263 1.258 . S
C271 O264 1.266 . S
Co272 O275 1.970 . S
Co272 N289 1.972 1_565 S
Co272 O297 1.967 . S
Co272 O304 1.920 . S
Co273 O276 1.966 1_545 S
Co273 N282 2.022 . S
Co273 N290 1.993 . S
Co273 O298 1.941 . S
C274 O275 1.258 . S
C274 O276 1.263 . S
O275 Co272 1.970 . S
O275 C274 1.258 . S
O276 Co273 1.966 1_565 S
O276 C274 1.263 . S
C277 O278 1.235 . S
C277 O304 1.289 . S
O278 C277 1.235 . S
C279 C281 1.400 . S
C279 N282 1.351 . S
C279 C284 1.501 . S
C280 C281 1.387 . S
C280 N283 1.341 . S
C281 C279 1.400 . S
C281 C280 1.387 . S
N282 Co273 2.022 . S
N282 C279 1.351 . S
N282 N283 1.365 . S
N283 C280 1.341 . S
N283 N282 1.365 . S
N283 H303 0.862 . S
C284 C279 1.501 . S
C284 H285 0.961 . S
C284 H286 0.961 . S
C284 H287 0.960 . S
H285 C284 0.961 . S
H286 C284 0.961 . S
H287 C284 0.960 . S
C288 N289 1.355 . S
C288 C292 1.401 . S
C288 C293 1.499 1_545 S
N289 Co272 1.972 1_545 S
N289 C288 1.355 . S
N289 N290 1.395 . S
N290 Co273 1.993 . S
N290 N289 1.395 . S
N290 C291 1.346 . S
C291 N290 1.346 . S
C291 C292 1.396 . S
C291 C301 1.510 . S
C292 C288 1.401 . S
C292 C291 1.396 . S
C293 C288 1.499 1_565 S
C293 H294 0.959 . S
C293 H295 0.960 . S
C293 H296 0.961 . S
H294 C293 0.959 . S
H295 C293 0.960 . S
H296 C293 0.961 . S
O297 Co272 1.967 . S
O297 C305 1.258 1_565 S
O298 Co273 1.941 . S
O298 C305 1.266 . S
H299 C301 0.959 . S
H300 C301 0.961 . S
C301 C291 1.510 . S
C301 H299 0.959 . S
C301 H300 0.961 . S
C301 H302 0.960 . S
H302 C301 0.960 . S
H303 N283 0.862 . S
O304 Co272 1.920 . S
O304 C277 1.289 . S
C305 O297 1.258 1_545 S
C305 O298 1.266 . S
Co306 O309 1.970 . S
Co306 N323 1.978 1_545 S
Co306 O331 1.967 . S
Co306 O338 1.920 . S
Co307 O310 1.966 1_565 S
Co307 N316 2.022 . S
Co307 N324 1.993 . S
Co307 O332 1.941 . S
C308 O309 1.258 . S
C308 O310 1.263 . S
O309 Co306 1.970 . S
O309 C308 1.258 . S
O310 Co307 1.966 1_545 S
O310 C308 1.263 . S
C311 O312 1.235 . S
C311 O338 1.289 . S
O312 C311 1.235 . S
C313 C315 1.400 . S
C313 N316 1.351 . S
C313 C318 1.501 . S
C314 C315 1.387 . S
C314 N317 1.341 . S
C315 C313 1.400 . S
C315 C314 1.387 . S
N316 Co307 2.022 . S
N316 C313 1.351 . S
N316 N317 1.365 . S
N317 C314 1.341 . S
N317 N316 1.365 . S
N317 H337 0.862 . S
C318 C313 1.501 . S
C318 H319 0.961 . S
C318 H320 0.961 . S
C318 H321 0.960 . S
H319 C318 0.961 . S
H320 C318 0.961 . S
H321 C318 0.960 . S
C322 N323 1.337 . S
C322 C326 1.401 . S
C322 C327 1.499 1_565 S
N323 Co306 1.978 1_565 S
N323 C322 1.337 . S
N323 N324 1.408 . S
N324 Co307 1.993 . S
N324 N323 1.408 . S
N324 C325 1.346 . S
C325 N324 1.346 . S
C325 C326 1.396 . S
C325 C335 1.510 . S
C326 C322 1.401 . S
C326 C325 1.396 . S
C327 C322 1.499 1_545 S
C327 H328 0.959 . S
C327 H329 0.960 . S
C327 H330 0.961 . S
H328 C327 0.959 . S
H329 C327 0.960 . S
H330 C327 0.961 . S
O331 Co306 1.967 . S
O331 C339 1.258 1_545 S
O332 Co307 1.941 . S
O332 C339 1.266 . S
H333 C335 0.959 . S
H334 C335 0.961 . S
C335 C325 1.510 . S
C335 H333 0.959 . S
C335 H334 0.961 . S
C335 H336 0.960 . S
H336 C335 0.960 . S
H337 N317 0.862 . S
O338 Co306 1.920 . S
O338 C311 1.289 . S
C339 O331 1.258 1_565 S
C339 O332 1.266 . S
Co340 O343 1.970 . S
Co340 N357 1.972 1_655 S
Co340 O365 1.967 . S
Co340 O372 1.920 . S
Co341 O344 1.966 1_455 S
Co341 N350 2.022 . S
Co341 N358 1.993 . S
Co341 O366 1.941 . S
C342 O343 1.258 . S
C342 O344 1.263 . S
O343 Co340 1.970 . S
O343 C342 1.258 . S
O344 Co341 1.966 1_655 S
O344 C342 1.263 . S
C345 O346 1.235 . S
C345 O372 1.289 . S
O346 C345 1.235 . S
C347 C349 1.400 . S
C347 N350 1.351 . S
C347 C352 1.501 . S
C348 C349 1.387 . S
C348 N351 1.341 . S
C349 C347 1.400 . S
C349 C348 1.387 . S
N350 Co341 2.022 . S
N350 C347 1.351 . S
N350 N351 1.365 . S
N351 C348 1.341 . S
N351 N350 1.365 . S
N351 H371 0.862 . S
C352 C347 1.501 . S
C352 H353 0.961 . S
C352 H354 0.961 . S
C352 H355 0.960 . S
H353 C352 0.961 . S
H354 C352 0.961 . S
H355 C352 0.960 . S
C356 N357 1.355 . S
C356 C360 1.401 . S
C356 C361 1.499 1_455 S
N357 Co340 1.972 1_455 S
N357 C356 1.355 . S
N357 N358 1.395 . S
N358 Co341 1.993 . S
N358 N357 1.395 . S
N358 C359 1.346 . S
C359 N358 1.346 . S
C359 C360 1.396 . S
C359 C369 1.510 . S
C360 C356 1.401 . S
C360 C359 1.396 . S
C361 C356 1.499 1_655 S
C361 H362 0.959 . S
C361 H363 0.960 . S
C361 H364 0.961 . S
H362 C361 0.959 . S
H363 C361 0.960 . S
H364 C361 0.961 . S
O365 Co340 1.967 . S
O365 C373 1.258 1_655 S
O366 Co341 1.941 . S
O366 C373 1.266 . S
H367 C369 0.959 . S
H368 C369 0.961 . S
C369 C359 1.510 . S
C369 H367 0.959 . S
C369 H368 0.961 . S
C369 H370 0.960 . S
H370 C369 0.960 . S
H371 N351 0.862 . S
O372 Co340 1.920 . S
O372 C345 1.289 . S
C373 O365 1.258 1_455 S
C373 O366 1.266 . S
Co374 O377 1.970 . S
Co374 N391 1.989 . S
Co374 O399 1.967 . S
Co374 O406 1.920 . S
Co375 O378 1.966 . S
Co375 N384 2.022 . S
Co375 N392 1.993 . S
Co375 O400 1.941 . S
C376 O377 1.258 . S
C376 O378 1.263 . S
O377 Co374 1.970 . S
O377 C376 1.258 . S
O378 Co375 1.966 . S
O378 C376 1.263 . S
C379 O380 1.235 . S
C379 O406 1.289 . S
O380 C379 1.235 . S
C381 C383 1.400 . S
C381 N384 1.351 . S
C381 C386 1.501 . S
C382 C383 1.387 . S
C382 N385 1.341 . S
C383 C381 1.400 . S
C383 C382 1.387 . S
N384 Co375 2.022 . S
N384 C381 1.351 . S
N384 N385 1.365 . S
N385 C382 1.341 . S
N385 N384 1.365 . S
N385 H405 0.862 . S
C386 C381 1.501 . S
C386 H387 0.961 . S
C386 H388 0.961 . S
C386 H389 0.960 . S
H387 C386 0.961 . S
H388 C386 0.961 . S
H389 C386 0.960 . S
C390 N391 1.342 . S
C390 C394 1.401 . S
C390 C395 1.499 . S
N391 Co374 1.989 . S
N391 C390 1.342 . S
N391 N392 1.388 . S
N392 Co375 1.993 . S
N392 N391 1.388 . S
N392 C393 1.346 . S
C393 N392 1.346 . S
C393 C394 1.396 . S
C393 C403 1.510 . S
C394 C390 1.401 . S
C394 C393 1.396 . S
C395 C390 1.499 . S
C395 H396 0.959 . S
C395 H397 0.960 . S
C395 H398 0.961 . S
H396 C395 0.959 . S
H397 C395 0.960 . S
H398 C395 0.961 . S
O399 Co374 1.967 . S
O399 C407 1.258 . S
O400 Co375 1.941 . S
O400 C407 1.266 . S
H401 C403 0.959 . S
H402 C403 0.961 . S
C403 C393 1.510 . S
C403 H401 0.959 . S
C403 H402 0.961 . S
C403 H404 0.960 . S
H404 C403 0.960 . S
H405 N385 0.862 . S
O406 Co374 1.920 . S
O406 C379 1.289 . S
C407 O399 1.258 . S
C407 O400 1.266 . S
Co408 O411 1.970 . S
Co408 N425 1.989 . S
Co408 O433 1.967 . S
Co408 O440 1.920 . S
Co409 O412 1.966 . S
Co409 N418 2.022 . S
Co409 N426 1.993 . S
Co409 O434 1.941 . S
C410 O411 1.258 . S
C410 O412 1.263 . S
O411 Co408 1.970 . S
O411 C410 1.258 . S
O412 Co409 1.966 . S
O412 C410 1.263 . S
C413 O414 1.235 . S
C413 O440 1.289 . S
O414 C413 1.235 . S
C415 C417 1.400 . S
C415 N418 1.351 . S
C415 C420 1.501 . S
C416 C417 1.387 . S
C416 N419 1.341 . S
C417 C415 1.400 . S
C417 C416 1.387 . S
N418 Co409 2.022 . S
N418 C415 1.351 . S
N418 N419 1.365 . S
N419 C416 1.341 . S
N419 N418 1.365 . S
N419 H439 0.862 . S
C420 C415 1.501 . S
C420 H421 0.961 . S
C420 H422 0.961 . S
C420 H423 0.960 . S
H421 C420 0.961 . S
H422 C420 0.961 . S
H423 C420 0.960 . S
C424 N425 1.342 . S
C424 C428 1.401 . S
C424 C429 1.499 . S
N425 Co408 1.989 . S
N425 C424 1.342 . S
N425 N426 1.388 . S
N426 Co409 1.993 . S
N426 N425 1.388 . S
N426 C427 1.346 . S
C427 N426 1.346 . S
C427 C428 1.396 . S
C427 C437 1.510 . S
C428 C424 1.401 . S
C428 C427 1.396 . S
C429 C424 1.499 . S
C429 H430 0.959 . S
C429 H431 0.960 . S
C429 H432 0.961 . S
H430 C429 0.959 . S
H431 C429 0.960 . S
H432 C429 0.961 . S
O433 Co408 1.967 . S
O433 C441 1.258 . S
O434 Co409 1.941 . S
O434 C441 1.266 . S
H435 C437 0.959 . S
H436 C437 0.961 . S
C437 C427 1.510 . S
C437 H435 0.959 . S
C437 H436 0.961 . S
C437 H438 0.960 . S
H438 C437 0.960 . S
H439 N419 0.862 . S
O440 Co408 1.920 . S
O440 C413 1.289 . S
C441 O433 1.258 . S
C441 O434 1.266 . S
Co442 O445 1.970 . S
Co442 N459 1.989 . S
Co442 O467 1.967 . S
Co442 O474 1.920 . S
Co443 O446 1.966 . S
Co443 N452 2.022 . S
Co443 N460 1.993 . S
Co443 O468 1.941 . S
C444 O445 1.258 . S
C444 O446 1.263 . S
O445 Co442 1.970 . S
O445 C444 1.258 . S
O446 Co443 1.966 . S
O446 C444 1.263 . S
C447 O448 1.235 . S
C447 O474 1.289 . S
O448 C447 1.235 . S
C449 C451 1.400 . S
C449 N452 1.351 . S
C449 C454 1.501 . S
C450 C451 1.387 . S
C450 N453 1.341 . S
C451 C449 1.400 . S
C451 C450 1.387 . S
N452 Co443 2.022 . S
N452 C449 1.351 . S
N452 N453 1.365 . S
N453 C450 1.341 . S
N453 N452 1.365 . S
N453 H473 0.862 . S
C454 C449 1.501 . S
C454 H455 0.961 . S
C454 H456 0.961 . S
C454 H457 0.960 . S
H455 C454 0.961 . S
H456 C454 0.961 . S
H457 C454 0.960 . S
C458 N459 1.342 . S
C458 C462 1.401 . S
C458 C463 1.499 . S
N459 Co442 1.989 . S
N459 C458 1.342 . S
N459 N460 1.388 . S
N460 Co443 1.993 . S
N460 N459 1.388 . S
N460 C461 1.346 . S
C461 N460 1.346 . S
C461 C462 1.396 . S
C461 C471 1.510 . S
C462 C458 1.401 . S
C462 C461 1.396 . S
C463 C458 1.499 . S
C463 H464 0.959 . S
C463 H465 0.960 . S
C463 H466 0.961 . S
H464 C463 0.959 . S
H465 C463 0.960 . S
H466 C463 0.961 . S
O467 Co442 1.967 . S
O467 C475 1.258 . S
O468 Co443 1.941 . S
O468 C475 1.266 . S
H469 C471 0.959 . S
H470 C471 0.961 . S
C471 C461 1.510 . S
C471 H469 0.959 . S
C471 H470 0.961 . S
C471 H472 0.960 . S
H472 C471 0.960 . S
H473 N453 0.862 . S
O474 Co442 1.920 . S
O474 C447 1.289 . S
C475 O467 1.258 . S
C475 O468 1.266 . S
Co476 O479 1.970 . S
Co476 N493 1.989 . S
Co476 O501 1.967 . S
Co476 O508 1.920 . S
Co477 O480 1.966 . S
Co477 N486 2.022 . S
Co477 N494 1.993 . S
Co477 O502 1.941 . S
C478 O479 1.258 . S
C478 O480 1.263 . S
O479 Co476 1.970 . S
O479 C478 1.258 . S
O480 Co477 1.966 . S
O480 C478 1.263 . S
C481 O482 1.235 . S
C481 O508 1.289 . S
O482 C481 1.235 . S
C483 C485 1.400 . S
C483 N486 1.351 . S
C483 C488 1.501 . S
C484 C485 1.387 . S
C484 N487 1.341 . S
C485 C483 1.400 . S
C485 C484 1.387 . S
N486 Co477 2.022 . S
N486 C483 1.351 . S
N486 N487 1.365 . S
N487 C484 1.341 . S
N487 N486 1.365 . S
N487 H507 0.862 . S
C488 C483 1.501 . S
C488 H489 0.961 . S
C488 H490 0.961 . S
C488 H491 0.960 . S
H489 C488 0.961 . S
H490 C488 0.961 . S
H491 C488 0.960 . S
C492 N493 1.342 . S
C492 C496 1.401 . S
C492 C497 1.499 . S
N493 Co476 1.989 . S
N493 C492 1.342 . S
N493 N494 1.388 . S
N494 Co477 1.993 . S
N494 N493 1.388 . S
N494 C495 1.346 . S
C495 N494 1.346 . S
C495 C496 1.396 . S
C495 C505 1.510 . S
C496 C492 1.401 . S
C496 C495 1.396 . S
C497 C492 1.499 . S
C497 H498 0.959 . S
C497 H499 0.960 . S
C497 H500 0.961 . S
H498 C497 0.959 . S
H499 C497 0.960 . S
H500 C497 0.961 . S
O501 Co476 1.967 . S
O501 C509 1.258 . S
O502 Co477 1.941 . S
O502 C509 1.266 . S
H503 C505 0.959 . S
H504 C505 0.961 . S
C505 C495 1.510 . S
C505 H503 0.959 . S
C505 H504 0.961 . S
C505 H506 0.960 . S
H506 C505 0.960 . S
H507 N487 0.862 . S
O508 Co476 1.920 . S
O508 C481 1.289 . S
C509 O501 1.258 . S
C509 O502 1.266 . S
Co510 O513 1.970 . S
Co510 N527 1.989 . S
Co510 O535 1.967 . S
Co510 O542 1.920 . S
Co511 O514 1.966 . S
Co511 N520 2.022 . S
Co511 N528 1.993 . S
Co511 O536 1.941 . S
C512 O513 1.258 . S
C512 O514 1.263 . S
O513 Co510 1.970 . S
O513 C512 1.258 . S
O514 Co511 1.966 . S
O514 C512 1.263 . S
C515 O516 1.235 . S
C515 O542 1.289 . S
O516 C515 1.235 . S
C517 C519 1.400 . S
C517 N520 1.351 . S
C517 C522 1.501 . S
C518 C519 1.387 . S
C518 N521 1.341 . S
C519 C517 1.400 . S
C519 C518 1.387 . S
N520 Co511 2.022 . S
N520 C517 1.351 . S
N520 N521 1.365 . S
N521 C518 1.341 . S
N521 N520 1.365 . S
N521 H541 0.862 . S
C522 C517 1.501 . S
C522 H523 0.961 . S
C522 H524 0.961 . S
C522 H525 0.960 . S
H523 C522 0.961 . S
H524 C522 0.961 . S
H525 C522 0.960 . S
C526 N527 1.342 . S
C526 C530 1.401 . S
C526 C531 1.499 . S
N527 Co510 1.989 . S
N527 C526 1.342 . S
N527 N528 1.388 . S
N528 Co511 1.993 . S
N528 N527 1.388 . S
N528 C529 1.346 . S
C529 N528 1.346 . S
C529 C530 1.396 . S
C529 C539 1.510 . S
C530 C526 1.401 . S
C530 C529 1.396 . S
C531 C526 1.499 . S
C531 H532 0.959 . S
C531 H533 0.960 . S
C531 H534 0.961 . S
H532 C531 0.959 . S
H533 C531 0.960 . S
H534 C531 0.961 . S
O535 Co510 1.967 . S
O535 C543 1.258 . S
O536 Co511 1.941 . S
O536 C543 1.266 . S
H537 C539 0.959 . S
H538 C539 0.961 . S
C539 C529 1.510 . S
C539 H537 0.959 . S
C539 H538 0.961 . S
C539 H540 0.960 . S
H540 C539 0.960 . S
H541 N521 0.862 . S
O542 Co510 1.920 . S
O542 C515 1.289 . S
C543 O535 1.258 . S
C543 O536 1.266 . S
Co544 O547 1.970 . S
Co544 N561 1.989 . S
Co544 O569 1.967 . S
Co544 O576 1.920 . S
Co545 O548 1.966 . S
Co545 N554 2.022 . S
Co545 N562 1.993 . S
Co545 O570 1.941 . S
C546 O547 1.258 . S
C546 O548 1.263 . S
O547 Co544 1.970 . S
O547 C546 1.258 . S
O548 Co545 1.966 . S
O548 C546 1.263 . S
C549 O550 1.235 . S
C549 O576 1.289 . S
O550 C549 1.235 . S
C551 C553 1.400 . S
C551 N554 1.351 . S
C551 C556 1.501 . S
C552 C553 1.387 . S
C552 N555 1.341 . S
C553 C551 1.400 . S
C553 C552 1.387 . S
N554 Co545 2.022 . S
N554 C551 1.351 . S
N554 N555 1.365 . S
N555 C552 1.341 . S
N555 N554 1.365 . S
N555 H575 0.862 . S
C556 C551 1.501 . S
C556 H557 0.961 . S
C556 H558 0.961 . S
C556 H559 0.960 . S
H557 C556 0.961 . S
H558 C556 0.961 . S
H559 C556 0.960 . S
C560 N561 1.342 . S
C560 C564 1.401 . S
C560 C565 1.499 . S
N561 Co544 1.989 . S
N561 C560 1.342 . S
N561 N562 1.388 . S
N562 Co545 1.993 . S
N562 N561 1.388 . S
N562 C563 1.346 . S
C563 N562 1.346 . S
C563 C564 1.396 . S
C563 C573 1.510 . S
C564 C560 1.401 . S
C564 C563 1.396 . S
C565 C560 1.499 . S
C565 H566 0.959 . S
C565 H567 0.960 . S
C565 H568 0.961 . S
H566 C565 0.959 . S
H567 C565 0.960 . S
H568 C565 0.961 . S
O569 Co544 1.967 . S
O569 C577 1.258 . S
O570 Co545 1.941 . S
O570 C577 1.266 . S
H571 C573 0.959 . S
H572 C573 0.961 . S
C573 C563 1.510 . S
C573 H571 0.959 . S
C573 H572 0.961 . S
C573 H574 0.960 . S
H574 C573 0.960 . S
H575 N555 0.862 . S
O576 Co544 1.920 . S
O576 C549 1.289 . S
C577 O569 1.258 . S
C577 O570 1.266 . S
Co578 O581 1.970 . S
Co578 N595 1.989 . S
Co578 O603 1.967 . S
Co578 O610 1.920 . S
Co579 O582 1.966 . S
Co579 N588 2.022 . S
Co579 N596 1.993 . S
Co579 O604 1.941 . S
C580 O581 1.258 . S
C580 O582 1.263 . S
O581 Co578 1.970 . S
O581 C580 1.258 . S
O582 Co579 1.966 . S
O582 C580 1.263 . S
C583 O584 1.235 . S
C583 O610 1.289 . S
O584 C583 1.235 . S
C585 C587 1.400 . S
C585 N588 1.351 . S
C585 C590 1.501 . S
C586 C587 1.387 . S
C586 N589 1.341 . S
C587 C585 1.400 . S
C587 C586 1.387 . S
N588 Co579 2.022 . S
N588 C585 1.351 . S
N588 N589 1.365 . S
N589 C586 1.341 . S
N589 N588 1.365 . S
N589 H609 0.862 . S
C590 C585 1.501 . S
C590 H591 0.961 . S
C590 H592 0.961 . S
C590 H593 0.960 . S
H591 C590 0.961 . S
H592 C590 0.961 . S
H593 C590 0.960 . S
C594 N595 1.342 . S
C594 C598 1.401 . S
C594 C599 1.499 . S
N595 Co578 1.989 . S
N595 C594 1.342 . S
N595 N596 1.388 . S
N596 Co579 1.993 . S
N596 N595 1.388 . S
N596 C597 1.346 . S
C597 N596 1.346 . S
C597 C598 1.396 . S
C597 C607 1.510 . S
C598 C594 1.401 . S
C598 C597 1.396 . S
C599 C594 1.499 . S
C599 H600 0.959 . S
C599 H601 0.960 . S
C599 H602 0.961 . S
H600 C599 0.959 . S
H601 C599 0.960 . S
H602 C599 0.961 . S
O603 Co578 1.967 . S
O603 C611 1.258 . S
O604 Co579 1.941 . S
O604 C611 1.266 . S
H605 C607 0.959 . S
H606 C607 0.961 . S
C607 C597 1.510 . S
C607 H605 0.959 . S
C607 H606 0.961 . S
C607 H608 0.960 . S
H608 C607 0.960 . S
H609 N589 0.862 . S
O610 Co578 1.920 . S
O610 C583 1.289 . S
C611 O603 1.258 . S
C611 O604 1.266 . S
Co612 O615 1.970 . S
Co612 N629 1.989 . S
Co612 O637 1.967 . S
Co612 O644 1.920 . S
Co613 O616 1.966 . S
Co613 N622 2.022 . S
Co613 N630 1.993 . S
Co613 O638 1.941 . S
C614 O615 1.258 . S
C614 O616 1.263 . S
O615 Co612 1.970 . S
O615 C614 1.258 . S
O616 Co613 1.966 . S
O616 C614 1.263 . S
C617 O618 1.235 . S
C617 O644 1.289 . S
O618 C617 1.235 . S
C619 C621 1.400 . S
C619 N622 1.351 . S
C619 C624 1.501 . S
C620 C621 1.387 . S
C620 N623 1.341 . S
C621 C619 1.400 . S
C621 C620 1.387 . S
N622 Co613 2.022 . S
N622 C619 1.351 . S
N622 N623 1.365 . S
N623 C620 1.341 . S
N623 N622 1.365 . S
N623 H643 0.862 . S
C624 C619 1.501 . S
C624 H625 0.961 . S
C624 H626 0.961 . S
C624 H627 0.960 . S
H625 C624 0.961 . S
H626 C624 0.961 . S
H627 C624 0.960 . S
C628 N629 1.342 . S
C628 C632 1.401 . S
C628 C633 1.499 . S
N629 Co612 1.989 . S
N629 C628 1.342 . S
N629 N630 1.388 . S
N630 Co613 1.993 . S
N630 N629 1.388 . S
N630 C631 1.346 . S
C631 N630 1.346 . S
C631 C632 1.396 . S
C631 C641 1.510 . S
C632 C628 1.401 . S
C632 C631 1.396 . S
C633 C628 1.499 . S
C633 H634 0.959 . S
C633 H635 0.960 . S
C633 H636 0.961 . S
H634 C633 0.959 . S
H635 C633 0.960 . S
H636 C633 0.961 . S
O637 Co612 1.967 . S
O637 C645 1.258 . S
O638 Co613 1.941 . S
O638 C645 1.266 . S
H639 C641 0.959 . S
H640 C641 0.961 . S
C641 C631 1.510 . S
C641 H639 0.959 . S
C641 H640 0.961 . S
C641 H642 0.960 . S
H642 C641 0.960 . S
H643 N623 0.862 . S
O644 Co612 1.920 . S
O644 C617 1.289 . S
C645 O637 1.258 . S
C645 O638 1.266 . S
Co646 O649 1.970 . S
Co646 N663 1.989 . S
Co646 O671 1.967 . S
Co646 O678 1.920 . S
Co647 O650 1.966 . S
Co647 N656 2.022 . S
Co647 N664 1.993 . S
Co647 O672 1.941 . S
C648 O649 1.258 . S
C648 O650 1.263 . S
O649 Co646 1.970 . S
O649 C648 1.258 . S
O650 Co647 1.966 . S
O650 C648 1.263 . S
C651 O652 1.235 . S
C651 O678 1.289 . S
O652 C651 1.235 . S
C653 C655 1.400 . S
C653 N656 1.351 . S
C653 C658 1.501 . S
C654 C655 1.387 . S
C654 N657 1.341 . S
C655 C653 1.400 . S
C655 C654 1.387 . S
N656 Co647 2.022 . S
N656 C653 1.351 . S
N656 N657 1.365 . S
N657 C654 1.341 . S
N657 N656 1.365 . S
N657 H677 0.862 . S
C658 C653 1.501 . S
C658 H659 0.961 . S
C658 H660 0.961 . S
C658 H661 0.960 . S
H659 C658 0.961 . S
H660 C658 0.961 . S
H661 C658 0.960 . S
C662 N663 1.342 . S
C662 C666 1.401 . S
C662 C667 1.499 . S
N663 Co646 1.989 . S
N663 C662 1.342 . S
N663 N664 1.388 . S
N664 Co647 1.993 . S
N664 N663 1.388 . S
N664 C665 1.346 . S
C665 N664 1.346 . S
C665 C666 1.396 . S
C665 C675 1.510 . S
C666 C662 1.401 . S
C666 C665 1.396 . S
C667 C662 1.499 . S
C667 H668 0.959 . S
C667 H669 0.960 . S
C667 H670 0.961 . S
H668 C667 0.959 . S
H669 C667 0.960 . S
H670 C667 0.961 . S
O671 Co646 1.967 . S
O671 C679 1.258 . S
O672 Co647 1.941 . S
O672 C679 1.266 . S
H673 C675 0.959 . S
H674 C675 0.961 . S
C675 C665 1.510 . S
C675 H673 0.959 . S
C675 H674 0.961 . S
C675 H676 0.960 . S
H676 C675 0.960 . S
H677 N657 0.862 . S
O678 Co646 1.920 . S
O678 C651 1.289 . S
C679 O671 1.258 . S
C679 O672 1.266 . S
Co680 O683 1.970 . S
Co680 N697 1.989 . S
Co680 O705 1.967 . S
Co680 O712 1.920 . S
Co681 O684 1.966 . S
Co681 N690 2.022 . S
Co681 N698 1.993 . S
Co681 O706 1.941 . S
C682 O683 1.258 . S
C682 O684 1.263 . S
O683 Co680 1.970 . S
O683 C682 1.258 . S
O684 Co681 1.966 . S
O684 C682 1.263 . S
C685 O686 1.235 . S
C685 O712 1.289 . S
O686 C685 1.235 . S
C687 C689 1.400 . S
C687 N690 1.351 . S
C687 C692 1.501 . S
C688 C689 1.387 . S
C688 N691 1.341 . S
C689 C687 1.400 . S
C689 C688 1.387 . S
N690 Co681 2.022 . S
N690 C687 1.351 . S
N690 N691 1.365 . S
N691 C688 1.341 . S
N691 N690 1.365 . S
N691 H711 0.862 . S
C692 C687 1.501 . S
C692 H693 0.961 . S
C692 H694 0.961 . S
C692 H695 0.960 . S
H693 C692 0.961 . S
H694 C692 0.961 . S
H695 C692 0.960 . S
C696 N697 1.342 . S
C696 C700 1.401 . S
C696 C701 1.499 . S
N697 Co680 1.989 . S
N697 C696 1.342 . S
N697 N698 1.388 . S
N698 Co681 1.993 . S
N698 N697 1.388 . S
N698 C699 1.346 . S
C699 N698 1.346 . S
C699 C700 1.396 . S
C699 C709 1.510 . S
C700 C696 1.401 . S
C700 C699 1.396 . S
C701 C696 1.499 . S
C701 H702 0.959 . S
C701 H703 0.960 . S
C701 H704 0.961 . S
H702 C701 0.959 . S
H703 C701 0.960 . S
H704 C701 0.961 . S
O705 Co680 1.967 . S
O705 C713 1.258 . S
O706 Co681 1.941 . S
O706 C713 1.266 . S
H707 C709 0.959 . S
H708 C709 0.961 . S
C709 C699 1.510 . S
C709 H707 0.959 . S
C709 H708 0.961 . S
C709 H710 0.960 . S
H710 C709 0.960 . S
H711 N691 0.862 . S
O712 Co680 1.920 . S
O712 C685 1.289 . S
C713 O705 1.258 . S
C713 O706 1.266 . S
Co714 O717 1.970 . S
Co714 N731 1.989 . S
Co714 O739 1.967 1_556 S
Co714 O746 1.920 . S
Co715 O718 1.966 . S
Co715 N724 2.022 . S
Co715 N732 1.993 . S
Co715 O740 1.941 1_556 S
C716 O717 1.258 . S
C716 O718 1.263 . S
O717 Co714 1.970 . S
O717 C716 1.258 . S
O718 Co715 1.966 . S
O718 C716 1.263 . S
C719 O720 1.235 . S
C719 O746 1.289 . S
O720 C719 1.235 . S
C721 C723 1.400 . S
C721 N724 1.351 . S
C721 C726 1.501 . S
C722 C723 1.387 . S
C722 N725 1.341 . S
C723 C721 1.400 . S
C723 C722 1.387 . S
N724 Co715 2.022 . S
N724 C721 1.351 . S
N724 N725 1.365 . S
N725 C722 1.341 . S
N725 N724 1.365 . S
N725 H745 0.862 . S
C726 C721 1.501 . S
C726 H727 0.961 . S
C726 H728 0.961 . S
C726 H729 0.960 . S
H727 C726 0.961 . S
H728 C726 0.961 . S
H729 C726 0.960 . S
C730 N731 1.342 . S
C730 C734 1.401 . S
C730 C735 1.499 . S
N731 Co714 1.989 . S
N731 C730 1.342 . S
N731 N732 1.388 . S
N732 Co715 1.993 . S
N732 N731 1.388 . S
N732 C733 1.346 . S
C733 N732 1.346 . S
C733 C734 1.396 . S
C733 C743 1.510 . S
C734 C730 1.401 . S
C734 C733 1.396 . S
C735 C730 1.499 . S
C735 H736 0.959 . S
C735 H737 0.960 . S
C735 H738 0.961 . S
H736 C735 0.959 . S
H737 C735 0.960 . S
H738 C735 0.961 . S
O739 Co714 1.967 1_554 S
O739 C747 1.258 . S
O740 Co715 1.941 1_554 S
O740 C747 1.266 . S
H741 C743 0.959 . S
H742 C743 0.961 . S
C743 C733 1.510 . S
C743 H741 0.959 . S
C743 H742 0.961 . S
C743 H744 0.960 . S
H744 C743 0.960 . S
H745 N725 0.862 . S
O746 Co714 1.920 . S
O746 C719 1.289 . S
C747 O739 1.258 . S
C747 O740 1.266 . S
Co748 O751 1.970 . S
Co748 N765 1.989 . S
Co748 O773 1.967 1_556 S
Co748 O780 1.920 . S
Co749 O752 1.966 . S
Co749 N758 2.022 . S
Co749 N766 1.993 . S
Co749 O774 1.941 1_556 S
C750 O751 1.258 . S
C750 O752 1.263 . S
O751 Co748 1.970 . S
O751 C750 1.258 . S
O752 Co749 1.966 . S
O752 C750 1.263 . S
C753 O754 1.235 . S
C753 O780 1.289 . S
O754 C753 1.235 . S
C755 C757 1.400 . S
C755 N758 1.351 . S
C755 C760 1.501 . S
C756 C757 1.387 . S
C756 N759 1.341 . S
C757 C755 1.400 . S
C757 C756 1.387 . S
N758 Co749 2.022 . S
N758 C755 1.351 . S
N758 N759 1.365 . S
N759 C756 1.341 . S
N759 N758 1.365 . S
N759 H779 0.862 . S
C760 C755 1.501 . S
C760 H761 0.961 . S
C760 H762 0.961 . S
C760 H763 0.960 . S
H761 C760 0.961 . S
H762 C760 0.961 . S
H763 C760 0.960 . S
C764 N765 1.342 . S
C764 C768 1.401 . S
C764 C769 1.499 . S
N765 Co748 1.989 . S
N765 C764 1.342 . S
N765 N766 1.388 . S
N766 Co749 1.993 . S
N766 N765 1.388 . S
N766 C767 1.346 . S
C767 N766 1.346 . S
C767 C768 1.396 . S
C767 C777 1.510 . S
C768 C764 1.401 . S
C768 C767 1.396 . S
C769 C764 1.499 . S
C769 H770 0.959 . S
C769 H771 0.960 . S
C769 H772 0.961 . S
H770 C769 0.959 . S
H771 C769 0.960 . S
H772 C769 0.961 . S
O773 Co748 1.967 1_554 S
O773 C781 1.258 . S
O774 Co749 1.941 1_554 S
O774 C781 1.266 . S
H775 C777 0.959 . S
H776 C777 0.961 . S
C777 C767 1.510 . S
C777 H775 0.959 . S
C777 H776 0.961 . S
C777 H778 0.960 . S
H778 C777 0.960 . S
H779 N759 0.862 . S
O780 Co748 1.920 . S
O780 C753 1.289 . S
C781 O773 1.258 . S
C781 O774 1.266 . S
Co782 O785 1.970 . S
Co782 N799 1.989 . S
Co782 O807 1.967 1_556 S
Co782 O814 1.920 . S
Co783 O786 1.966 . S
Co783 N792 2.022 . S
Co783 N800 1.993 . S
Co783 O808 1.941 1_556 S
C784 O785 1.258 . S
C784 O786 1.263 . S
O785 Co782 1.970 . S
O785 C784 1.258 . S
O786 Co783 1.966 . S
O786 C784 1.263 . S
C787 O788 1.235 . S
C787 O814 1.289 . S
O788 C787 1.235 . S
C789 C791 1.400 . S
C789 N792 1.351 . S
C789 C794 1.501 . S
C790 C791 1.387 . S
C790 N793 1.341 . S
C791 C789 1.400 . S
C791 C790 1.387 . S
N792 Co783 2.022 . S
N792 C789 1.351 . S
N792 N793 1.365 . S
N793 C790 1.341 . S
N793 N792 1.365 . S
N793 H813 0.862 . S
C794 C789 1.501 . S
C794 H795 0.961 . S
C794 H796 0.961 . S
C794 H797 0.960 . S
H795 C794 0.961 . S
H796 C794 0.961 . S
H797 C794 0.960 . S
C798 N799 1.342 . S
C798 C802 1.401 . S
C798 C803 1.499 . S
N799 Co782 1.989 . S
N799 C798 1.342 . S
N799 N800 1.388 . S
N800 Co783 1.993 . S
N800 N799 1.388 . S
N800 C801 1.346 . S
C801 N800 1.346 . S
C801 C802 1.396 . S
C801 C811 1.510 . S
C802 C798 1.401 . S
C802 C801 1.396 . S
C803 C798 1.499 . S
C803 H804 0.959 . S
C803 H805 0.960 . S
C803 H806 0.961 . S
H804 C803 0.959 . S
H805 C803 0.960 . S
H806 C803 0.961 . S
O807 Co782 1.967 1_554 S
O807 C815 1.258 . S
O808 Co783 1.941 1_554 S
O808 C815 1.266 . S
H809 C811 0.959 . S
H810 C811 0.961 . S
C811 C801 1.510 . S
C811 H809 0.959 . S
C811 H810 0.961 . S
C811 H812 0.960 . S
H812 C811 0.960 . S
H813 N793 0.862 . S
O814 Co782 1.920 . S
O814 C787 1.289 . S
C815 O807 1.258 . S
C815 O808 1.266 . S
Co816 O819 1.970 . S
Co816 N833 1.989 . S
Co816 O841 1.967 . S
Co816 O848 1.920 . S
Co817 O820 1.966 . S
Co817 N826 2.022 . S
Co817 N834 1.993 . S
Co817 O842 1.941 . S
C818 O819 1.258 . S
C818 O820 1.263 . S
O819 Co816 1.970 . S
O819 C818 1.258 . S
O820 Co817 1.966 . S
O820 C818 1.263 . S
C821 O822 1.235 . S
C821 O848 1.289 . S
O822 C821 1.235 . S
C823 C825 1.400 . S
C823 N826 1.351 . S
C823 C828 1.501 . S
C824 C825 1.387 . S
C824 N827 1.341 . S
C825 C823 1.400 . S
C825 C824 1.387 . S
N826 Co817 2.022 . S
N826 C823 1.351 . S
N826 N827 1.365 . S
N827 C824 1.341 . S
N827 N826 1.365 . S
N827 H847 0.862 . S
C828 C823 1.501 . S
C828 H829 0.961 . S
C828 H830 0.961 . S
C828 H831 0.960 . S
H829 C828 0.961 . S
H830 C828 0.961 . S
H831 C828 0.960 . S
C832 N833 1.342 . S
C832 C836 1.401 . S
C832 C837 1.499 . S
N833 Co816 1.989 . S
N833 C832 1.342 . S
N833 N834 1.388 . S
N834 Co817 1.993 . S
N834 N833 1.388 . S
N834 C835 1.346 . S
C835 N834 1.346 . S
C835 C836 1.396 . S
C835 C845 1.510 . S
C836 C832 1.401 . S
C836 C835 1.396 . S
C837 C832 1.499 . S
C837 H838 0.959 . S
C837 H839 0.960 . S
C837 H840 0.961 . S
H838 C837 0.959 . S
H839 C837 0.960 . S
H840 C837 0.961 . S
O841 Co816 1.967 . S
O841 C849 1.258 . S
O842 Co817 1.941 . S
O842 C849 1.266 . S
H843 C845 0.959 . S
H844 C845 0.961 . S
C845 C835 1.510 . S
C845 H843 0.959 . S
C845 H844 0.961 . S
C845 H846 0.960 . S
H846 C845 0.960 . S
H847 N827 0.862 . S
O848 Co816 1.920 . S
O848 C821 1.289 . S
C849 O841 1.258 . S
C849 O842 1.266 . S
Co850 O853 1.970 . S
Co850 N867 1.989 . S
Co850 O875 1.967 . S
Co850 O882 1.920 . S
Co851 O854 1.966 . S
Co851 N860 2.022 . S
Co851 N868 1.993 . S
Co851 O876 1.941 . S
C852 O853 1.258 . S
C852 O854 1.263 . S
O853 Co850 1.970 . S
O853 C852 1.258 . S
O854 Co851 1.966 . S
O854 C852 1.263 . S
C855 O856 1.235 . S
C855 O882 1.289 . S
O856 C855 1.235 . S
C857 C859 1.400 . S
C857 N860 1.351 . S
C857 C862 1.501 . S
C858 C859 1.387 . S
C858 N861 1.341 . S
C859 C857 1.400 . S
C859 C858 1.387 . S
N860 Co851 2.022 . S
N860 C857 1.351 . S
N860 N861 1.365 . S
N861 C858 1.341 . S
N861 N860 1.365 . S
N861 H881 0.862 . S
C862 C857 1.501 . S
C862 H863 0.961 . S
C862 H864 0.961 . S
C862 H865 0.960 . S
H863 C862 0.961 . S
H864 C862 0.961 . S
H865 C862 0.960 . S
C866 N867 1.342 . S
C866 C870 1.401 . S
C866 C871 1.499 . S
N867 Co850 1.989 . S
N867 C866 1.342 . S
N867 N868 1.388 . S
N868 Co851 1.993 . S
N868 N867 1.388 . S
N868 C869 1.346 . S
C869 N868 1.346 . S
C869 C870 1.396 . S
C869 C879 1.510 . S
C870 C866 1.401 . S
C870 C869 1.396 . S
C871 C866 1.499 . S
C871 H872 0.959 . S
C871 H873 0.960 . S
C871 H874 0.961 . S
H872 C871 0.959 . S
H873 C871 0.960 . S
H874 C871 0.961 . S
O875 Co850 1.967 . S
O875 C883 1.258 . S
O876 Co851 1.941 . S
O876 C883 1.266 . S
H877 C879 0.959 . S
H878 C879 0.961 . S
C879 C869 1.510 . S
C879 H877 0.959 . S
C879 H878 0.961 . S
C879 H880 0.960 . S
H880 C879 0.960 . S
H881 N861 0.862 . S
O882 Co850 1.920 . S
O882 C855 1.289 . S
C883 O875 1.258 . S
C883 O876 1.266 . S
Co884 O887 1.970 . S
Co884 N901 1.989 . S
Co884 O909 1.967 . S
Co884 O916 1.920 . S
Co885 O888 1.966 . S
Co885 N894 2.022 . S
Co885 N902 1.993 . S
Co885 O910 1.941 . S
C886 O887 1.258 . S
C886 O888 1.263 . S
O887 Co884 1.970 . S
O887 C886 1.258 . S
O888 Co885 1.966 . S
O888 C886 1.263 . S
C889 O890 1.235 . S
C889 O916 1.289 . S
O890 C889 1.235 . S
C891 C893 1.400 . S
C891 N894 1.351 . S
C891 C896 1.501 . S
C892 C893 1.387 . S
C892 N895 1.341 . S
C893 C891 1.400 . S
C893 C892 1.387 . S
N894 Co885 2.022 . S
N894 C891 1.351 . S
N894 N895 1.365 . S
N895 C892 1.341 . S
N895 N894 1.365 . S
N895 H915 0.862 . S
C896 C891 1.501 . S
C896 H897 0.961 . S
C896 H898 0.961 . S
C896 H899 0.960 . S
H897 C896 0.961 . S
H898 C896 0.961 . S
H899 C896 0.960 . S
C900 N901 1.342 . S
C900 C904 1.401 . S
C900 C905 1.499 . S
N901 Co884 1.989 . S
N901 C900 1.342 . S
N901 N902 1.388 . S
N902 Co885 1.993 . S
N902 N901 1.388 . S
N902 C903 1.346 . S
C903 N902 1.346 . S
C903 C904 1.396 . S
C903 C913 1.510 . S
C904 C900 1.401 . S
C904 C903 1.396 . S
C905 C900 1.499 . S
C905 H906 0.959 . S
C905 H907 0.960 . S
C905 H908 0.961 . S
H906 C905 0.959 . S
H907 C905 0.960 . S
H908 C905 0.961 . S
O909 Co884 1.967 . S
O909 C917 1.258 . S
O910 Co885 1.941 . S
O910 C917 1.266 . S
H911 C913 0.959 . S
H912 C913 0.961 . S
C913 C903 1.510 . S
C913 H911 0.959 . S
C913 H912 0.961 . S
C913 H914 0.960 . S
H914 C913 0.960 . S
H915 N895 0.862 . S
O916 Co884 1.920 . S
O916 C889 1.289 . S
C917 O909 1.258 . S
C917 O910 1.266 . S
Co918 O921 1.970 . S
Co918 N935 1.989 . S
Co918 O943 1.967 1_554 S
Co918 O950 1.920 . S
Co919 O922 1.966 . S
Co919 N928 2.022 . S
Co919 N936 1.993 . S
Co919 O944 1.941 1_554 S
C920 O921 1.258 . S
C920 O922 1.263 . S
O921 Co918 1.970 . S
O921 C920 1.258 . S
O922 Co919 1.966 . S
O922 C920 1.263 . S
C923 O924 1.235 . S
C923 O950 1.289 . S
O924 C923 1.235 . S
C925 C927 1.400 . S
C925 N928 1.351 . S
C925 C930 1.501 . S
C926 C927 1.387 . S
C926 N929 1.341 . S
C927 C925 1.400 . S
C927 C926 1.387 . S
N928 Co919 2.022 . S
N928 C925 1.351 . S
N928 N929 1.365 . S
N929 C926 1.341 . S
N929 N928 1.365 . S
N929 H949 0.862 . S
C930 C925 1.501 . S
C930 H931 0.961 . S
C930 H932 0.961 . S
C930 H933 0.960 . S
H931 C930 0.961 . S
H932 C930 0.961 . S
H933 C930 0.960 . S
C934 N935 1.342 . S
C934 C938 1.401 . S
C934 C939 1.499 . S
N935 Co918 1.989 . S
N935 C934 1.342 . S
N935 N936 1.388 . S
N936 Co919 1.993 . S
N936 N935 1.388 . S
N936 C937 1.346 . S
C937 N936 1.346 . S
C937 C938 1.396 . S
C937 C947 1.510 . S
C938 C934 1.401 . S
C938 C937 1.396 . S
C939 C934 1.499 . S
C939 H940 0.959 . S
C939 H941 0.960 . S
C939 H942 0.961 . S
H940 C939 0.959 . S
H941 C939 0.960 . S
H942 C939 0.961 . S
O943 Co918 1.967 1_556 S
O943 C951 1.258 . S
O944 Co919 1.941 1_556 S
O944 C951 1.266 . S
H945 C947 0.959 . S
H946 C947 0.961 . S
C947 C937 1.510 . S
C947 H945 0.959 . S
C947 H946 0.961 . S
C947 H948 0.960 . S
H948 C947 0.960 . S
H949 N929 0.862 . S
O950 Co918 1.920 . S
O950 C923 1.289 . S
C951 O943 1.258 . S
C951 O944 1.266 . S
Co952 O955 1.970 . S
Co952 N969 1.989 . S
Co952 O977 1.967 1_554 S
Co952 O984 1.920 . S
Co953 O956 1.966 . S
Co953 N962 2.022 . S
Co953 N970 1.993 . S
Co953 O978 1.941 1_554 S
C954 O955 1.258 . S
C954 O956 1.263 . S
O955 Co952 1.970 . S
O955 C954 1.258 . S
O956 Co953 1.966 . S
O956 C954 1.263 . S
C957 O958 1.235 . S
C957 O984 1.289 . S
O958 C957 1.235 . S
C959 C961 1.400 . S
C959 N962 1.351 . S
C959 C964 1.501 . S
C960 C961 1.387 . S
C960 N963 1.341 . S
C961 C959 1.400 . S
C961 C960 1.387 . S
N962 Co953 2.022 . S
N962 C959 1.351 . S
N962 N963 1.365 . S
N963 C960 1.341 . S
N963 N962 1.365 . S
N963 H983 0.862 . S
C964 C959 1.501 . S
C964 H965 0.961 . S
C964 H966 0.961 . S
C964 H967 0.960 . S
H965 C964 0.961 . S
H966 C964 0.961 . S
H967 C964 0.960 . S
C968 N969 1.342 . S
C968 C972 1.401 . S
C968 C973 1.499 . S
N969 Co952 1.989 . S
N969 C968 1.342 . S
N969 N970 1.388 . S
N970 Co953 1.993 . S
N970 N969 1.388 . S
N970 C971 1.346 . S
C971 N970 1.346 . S
C971 C972 1.396 . S
C971 C981 1.510 . S
C972 C968 1.401 . S
C972 C971 1.396 . S
C973 C968 1.499 . S
C973 H974 0.959 . S
C973 H975 0.960 . S
C973 H976 0.961 . S
H974 C973 0.959 . S
H975 C973 0.960 . S
H976 C973 0.961 . S
O977 Co952 1.967 1_556 S
O977 C985 1.258 . S
O978 Co953 1.941 1_556 S
O978 C985 1.266 . S
H979 C981 0.959 . S
H980 C981 0.961 . S
C981 C971 1.510 . S
C981 H979 0.959 . S
C981 H980 0.961 . S
C981 H982 0.960 . S
H982 C981 0.960 . S
H983 N963 0.862 . S
O984 Co952 1.920 . S
O984 C957 1.289 . S
C985 O977 1.258 . S
C985 O978 1.266 . S
Co986 O989 1.970 . S
Co986 N1003 1.989 . S
Co986 O1011 1.967 1_554 S
Co986 O1018 1.920 . S
Co987 O990 1.966 . S
Co987 N996 2.022 . S
Co987 N1004 1.993 . S
Co987 O1012 1.941 1_554 S
C988 O989 1.258 . S
C988 O990 1.263 . S
O989 Co986 1.970 . S
O989 C988 1.258 . S
O990 Co987 1.966 . S
O990 C988 1.263 . S
C991 O992 1.235 . S
C991 O1018 1.289 . S
O992 C991 1.235 . S
C993 C995 1.400 . S
C993 N996 1.351 . S
C993 C998 1.501 . S
C994 C995 1.387 . S
C994 N997 1.341 . S
C995 C993 1.400 . S
C995 C994 1.387 . S
N996 Co987 2.022 . S
N996 C993 1.351 . S
N996 N997 1.365 . S
N997 C994 1.341 . S
N997 N996 1.365 . S
N997 H1017 0.862 . S
C998 C993 1.501 . S
C998 H999 0.961 . S
C998 H1000 0.961 . S
C998 H1001 0.960 . S
H999 C998 0.961 . S
H1000 C998 0.961 . S
H1001 C998 0.960 . S
C1002 N1003 1.342 . S
C1002 C1006 1.401 . S
C1002 C1007 1.499 . S
N1003 Co986 1.989 . S
N1003 C1002 1.342 . S
N1003 N1004 1.388 . S
N1004 Co987 1.993 . S
N1004 N1003 1.388 . S
N1004 C1005 1.346 . S
C1005 N1004 1.346 . S
C1005 C1006 1.396 . S
C1005 C1015 1.510 . S
C1006 C1002 1.401 . S
C1006 C1005 1.396 . S
C1007 C1002 1.499 . S
C1007 H1008 0.959 . S
C1007 H1009 0.960 . S
C1007 H1010 0.961 . S
H1008 C1007 0.959 . S
H1009 C1007 0.960 . S
H1010 C1007 0.961 . S
O1011 Co986 1.967 1_556 S
O1011 C1019 1.258 . S
O1012 Co987 1.941 1_556 S
O1012 C1019 1.266 . S
H1013 C1015 0.959 . S
H1014 C1015 0.961 . S
C1015 C1005 1.510 . S
C1015 H1013 0.959 . S
C1015 H1014 0.961 . S
C1015 H1016 0.960 . S
H1016 C1015 0.960 . S
H1017 N997 0.862 . S
O1018 Co986 1.920 . S
O1018 C991 1.289 . S
C1019 O1011 1.258 . S
C1019 O1012 1.266 . S
Co1020 O1023 1.970 . S
Co1020 N1037 1.989 . S
Co1020 O1045 1.967 . S
Co1020 O1052 1.920 . S
Co1021 O1024 1.966 . S
Co1021 N1030 2.022 . S
Co1021 N1038 1.993 . S
Co1021 O1046 1.941 . S
C1022 O1023 1.258 . S
C1022 O1024 1.263 . S
O1023 Co1020 1.970 . S
O1023 C1022 1.258 . S
O1024 Co1021 1.966 . S
O1024 C1022 1.263 . S
C1025 O1026 1.235 . S
C1025 O1052 1.289 . S
O1026 C1025 1.235 . S
C1027 C1029 1.400 . S
C1027 N1030 1.351 . S
C1027 C1032 1.501 . S
C1028 C1029 1.387 . S
C1028 N1031 1.341 . S
C1029 C1027 1.400 . S
C1029 C1028 1.387 . S
N1030 Co1021 2.022 . S
N1030 C1027 1.351 . S
N1030 N1031 1.365 . S
N1031 C1028 1.341 . S
N1031 N1030 1.365 . S
N1031 H1051 0.862 . S
C1032 C1027 1.501 . S
C1032 H1033 0.961 . S
C1032 H1034 0.961 . S
C1032 H1035 0.960 . S
H1033 C1032 0.961 . S
H1034 C1032 0.961 . S
H1035 C1032 0.960 . S
C1036 N1037 1.342 . S
C1036 C1040 1.401 . S
C1036 C1041 1.499 . S
N1037 Co1020 1.989 . S
N1037 C1036 1.342 . S
N1037 N1038 1.388 . S
N1038 Co1021 1.993 . S
N1038 N1037 1.388 . S
N1038 C1039 1.346 . S
C1039 N1038 1.346 . S
C1039 C1040 1.396 . S
C1039 C1049 1.510 . S
C1040 C1036 1.401 . S
C1040 C1039 1.396 . S
C1041 C1036 1.499 . S
C1041 H1042 0.959 . S
C1041 H1043 0.960 . S
C1041 H1044 0.961 . S
H1042 C1041 0.959 . S
H1043 C1041 0.960 . S
H1044 C1041 0.961 . S
O1045 Co1020 1.967 . S
O1045 C1053 1.258 . S
O1046 Co1021 1.941 . S
O1046 C1053 1.266 . S
H1047 C1049 0.959 . S
H1048 C1049 0.961 . S
C1049 C1039 1.510 . S
C1049 H1047 0.959 . S
C1049 H1048 0.961 . S
C1049 H1050 0.960 . S
H1050 C1049 0.960 . S
H1051 N1031 0.862 . S
O1052 Co1020 1.920 . S
O1052 C1025 1.289 . S
C1053 O1045 1.258 . S
C1053 O1046 1.266 . S
Co1054 O1057 1.970 . S
Co1054 N1071 1.989 . S
Co1054 O1079 1.967 . S
Co1054 O1086 1.920 . S
Co1055 O1058 1.966 . S
Co1055 N1064 2.022 . S
Co1055 N1072 1.993 . S
Co1055 O1080 1.941 . S
C1056 O1057 1.258 . S
C1056 O1058 1.263 . S
O1057 Co1054 1.970 . S
O1057 C1056 1.258 . S
O1058 Co1055 1.966 . S
O1058 C1056 1.263 . S
C1059 O1060 1.235 . S
C1059 O1086 1.289 . S
O1060 C1059 1.235 . S
C1061 C1063 1.400 . S
C1061 N1064 1.351 . S
C1061 C1066 1.501 . S
C1062 C1063 1.387 . S
C1062 N1065 1.341 . S
C1063 C1061 1.400 . S
C1063 C1062 1.387 . S
N1064 Co1055 2.022 . S
N1064 C1061 1.351 . S
N1064 N1065 1.365 . S
N1065 C1062 1.341 . S
N1065 N1064 1.365 . S
N1065 H1085 0.862 . S
C1066 C1061 1.501 . S
C1066 H1067 0.961 . S
C1066 H1068 0.961 . S
C1066 H1069 0.960 . S
H1067 C1066 0.961 . S
H1068 C1066 0.961 . S
H1069 C1066 0.960 . S
C1070 N1071 1.342 . S
C1070 C1074 1.401 . S
C1070 C1075 1.499 . S
N1071 Co1054 1.989 . S
N1071 C1070 1.342 . S
N1071 N1072 1.388 . S
N1072 Co1055 1.993 . S
N1072 N1071 1.388 . S
N1072 C1073 1.346 . S
C1073 N1072 1.346 . S
C1073 C1074 1.396 . S
C1073 C1083 1.510 . S
C1074 C1070 1.401 . S
C1074 C1073 1.396 . S
C1075 C1070 1.499 . S
C1075 H1076 0.959 . S
C1075 H1077 0.960 . S
C1075 H1078 0.961 . S
H1076 C1075 0.959 . S
H1077 C1075 0.960 . S
H1078 C1075 0.961 . S
O1079 Co1054 1.967 . S
O1079 C1087 1.258 . S
O1080 Co1055 1.941 . S
O1080 C1087 1.266 . S
H1081 C1083 0.959 . S
H1082 C1083 0.961 . S
C1083 C1073 1.510 . S
C1083 H1081 0.959 . S
C1083 H1082 0.961 . S
C1083 H1084 0.960 . S
H1084 C1083 0.960 . S
H1085 N1065 0.862 . S
O1086 Co1054 1.920 . S
O1086 C1059 1.289 . S
C1087 O1079 1.258 . S
C1087 O1080 1.266 . S
Co1088 O1091 1.970 . S
Co1088 N1105 1.989 . S
Co1088 O1113 1.967 . S
Co1088 O1120 1.920 . S
Co1089 O1092 1.966 . S
Co1089 N1098 2.022 . S
Co1089 N1106 1.993 . S
Co1089 O1114 1.941 . S
C1090 O1091 1.258 . S
C1090 O1092 1.263 . S
O1091 Co1088 1.970 . S
O1091 C1090 1.258 . S
O1092 Co1089 1.966 . S
O1092 C1090 1.263 . S
C1093 O1094 1.235 . S
C1093 O1120 1.289 . S
O1094 C1093 1.235 . S
C1095 C1097 1.400 . S
C1095 N1098 1.351 . S
C1095 C1100 1.501 . S
C1096 C1097 1.387 . S
C1096 N1099 1.341 . S
C1097 C1095 1.400 . S
C1097 C1096 1.387 . S
N1098 Co1089 2.022 . S
N1098 C1095 1.351 . S
N1098 N1099 1.365 . S
N1099 C1096 1.341 . S
N1099 N1098 1.365 . S
N1099 H1119 0.862 . S
C1100 C1095 1.501 . S
C1100 H1101 0.961 . S
C1100 H1102 0.961 . S
C1100 H1103 0.960 . S
H1101 C1100 0.961 . S
H1102 C1100 0.961 . S
H1103 C1100 0.960 . S
C1104 N1105 1.342 . S
C1104 C1108 1.401 . S
C1104 C1109 1.499 . S
N1105 Co1088 1.989 . S
N1105 C1104 1.342 . S
N1105 N1106 1.388 . S
N1106 Co1089 1.993 . S
N1106 N1105 1.388 . S
N1106 C1107 1.346 . S
C1107 N1106 1.346 . S
C1107 C1108 1.396 . S
C1107 C1117 1.510 . S
C1108 C1104 1.401 . S
C1108 C1107 1.396 . S
C1109 C1104 1.499 . S
C1109 H1110 0.959 . S
C1109 H1111 0.960 . S
C1109 H1112 0.961 . S
H1110 C1109 0.959 . S
H1111 C1109 0.960 . S
H1112 C1109 0.961 . S
O1113 Co1088 1.967 . S
O1113 C1121 1.258 . S
O1114 Co1089 1.941 . S
O1114 C1121 1.266 . S
H1115 C1117 0.959 . S
H1116 C1117 0.961 . S
C1117 C1107 1.510 . S
C1117 H1115 0.959 . S
C1117 H1116 0.961 . S
C1117 H1118 0.960 . S
H1118 C1117 0.960 . S
H1119 N1099 0.862 . S
O1120 Co1088 1.920 . S
O1120 C1093 1.289 . S
C1121 O1113 1.258 . S
C1121 O1114 1.266 . S
Co1122 O1125 1.970 . S
Co1122 N1139 1.989 . S
Co1122 O1147 1.967 . S
Co1122 O1154 1.920 . S
Co1123 O1126 1.966 . S
Co1123 N1132 2.022 . S
Co1123 N1140 1.993 . S
Co1123 O1148 1.941 . S
C1124 O1125 1.258 . S
C1124 O1126 1.263 . S
O1125 Co1122 1.970 . S
O1125 C1124 1.258 . S
O1126 Co1123 1.966 . S
O1126 C1124 1.263 . S
C1127 O1128 1.235 . S
C1127 O1154 1.289 . S
O1128 C1127 1.235 . S
C1129 C1131 1.400 . S
C1129 N1132 1.351 . S
C1129 C1134 1.501 . S
C1130 C1131 1.387 . S
C1130 N1133 1.341 . S
C1131 C1129 1.400 . S
C1131 C1130 1.387 . S
N1132 Co1123 2.022 . S
N1132 C1129 1.351 . S
N1132 N1133 1.365 . S
N1133 C1130 1.341 . S
N1133 N1132 1.365 . S
N1133 H1153 0.862 . S
C1134 C1129 1.501 . S
C1134 H1135 0.961 . S
C1134 H1136 0.961 . S
C1134 H1137 0.960 . S
H1135 C1134 0.961 . S
H1136 C1134 0.961 . S
H1137 C1134 0.960 . S
C1138 N1139 1.342 . S
C1138 C1142 1.401 . S
C1138 C1143 1.499 . S
N1139 Co1122 1.989 . S
N1139 C1138 1.342 . S
N1139 N1140 1.388 . S
N1140 Co1123 1.993 . S
N1140 N1139 1.388 . S
N1140 C1141 1.346 . S
C1141 N1140 1.346 . S
C1141 C1142 1.396 . S
C1141 C1151 1.510 . S
C1142 C1138 1.401 . S
C1142 C1141 1.396 . S
C1143 C1138 1.499 . S
C1143 H1144 0.959 . S
C1143 H1145 0.960 . S
C1143 H1146 0.961 . S
H1144 C1143 0.959 . S
H1145 C1143 0.960 . S
H1146 C1143 0.961 . S
O1147 Co1122 1.967 . S
O1147 C1155 1.258 . S
O1148 Co1123 1.941 . S
O1148 C1155 1.266 . S
H1149 C1151 0.959 . S
H1150 C1151 0.961 . S
C1151 C1141 1.510 . S
C1151 H1149 0.959 . S
C1151 H1150 0.961 . S
C1151 H1152 0.960 . S
H1152 C1151 0.960 . S
H1153 N1133 0.862 . S
O1154 Co1122 1.920 . S
O1154 C1127 1.289 . S
C1155 O1147 1.258 . S
C1155 O1148 1.266 . S
Co1156 O1159 1.970 . S
Co1156 N1173 1.989 . S
Co1156 O1181 1.967 . S
Co1156 O1188 1.920 . S
Co1157 O1160 1.966 . S
Co1157 N1166 2.022 . S
Co1157 N1174 1.993 . S
Co1157 O1182 1.941 . S
C1158 O1159 1.258 . S
C1158 O1160 1.263 . S
O1159 Co1156 1.970 . S
O1159 C1158 1.258 . S
O1160 Co1157 1.966 . S
O1160 C1158 1.263 . S
C1161 O1162 1.235 . S
C1161 O1188 1.289 . S
O1162 C1161 1.235 . S
C1163 C1165 1.400 . S
C1163 N1166 1.351 . S
C1163 C1168 1.501 . S
C1164 C1165 1.387 . S
C1164 N1167 1.341 . S
C1165 C1163 1.400 . S
C1165 C1164 1.387 . S
N1166 Co1157 2.022 . S
N1166 C1163 1.351 . S
N1166 N1167 1.365 . S
N1167 C1164 1.341 . S
N1167 N1166 1.365 . S
N1167 H1187 0.862 . S
C1168 C1163 1.501 . S
C1168 H1169 0.961 . S
C1168 H1170 0.961 . S
C1168 H1171 0.960 . S
H1169 C1168 0.961 . S
H1170 C1168 0.961 . S
H1171 C1168 0.960 . S
C1172 N1173 1.342 . S
C1172 C1176 1.401 . S
C1172 C1177 1.499 . S
N1173 Co1156 1.989 . S
N1173 C1172 1.342 . S
N1173 N1174 1.388 . S
N1174 Co1157 1.993 . S
N1174 N1173 1.388 . S
N1174 C1175 1.346 . S
C1175 N1174 1.346 . S
C1175 C1176 1.396 . S
C1175 C1185 1.510 . S
C1176 C1172 1.401 . S
C1176 C1175 1.396 . S
C1177 C1172 1.499 . S
C1177 H1178 0.959 . S
C1177 H1179 0.960 . S
C1177 H1180 0.961 . S
H1178 C1177 0.959 . S
H1179 C1177 0.960 . S
H1180 C1177 0.961 . S
O1181 Co1156 1.967 . S
O1181 C1189 1.258 . S
O1182 Co1157 1.941 . S
O1182 C1189 1.266 . S
H1183 C1185 0.959 . S
H1184 C1185 0.961 . S
C1185 C1175 1.510 . S
C1185 H1183 0.959 . S
C1185 H1184 0.961 . S
C1185 H1186 0.960 . S
H1186 C1185 0.960 . S
H1187 N1167 0.862 . S
O1188 Co1156 1.920 . S
O1188 C1161 1.289 . S
C1189 O1181 1.258 . S
C1189 O1182 1.266 . S
Co1190 O1193 1.970 . S
Co1190 N1207 1.989 . S
Co1190 O1215 1.967 . S
Co1190 O1222 1.920 . S
Co1191 O1194 1.966 . S
Co1191 N1200 2.022 . S
Co1191 N1208 1.993 . S
Co1191 O1216 1.941 . S
C1192 O1193 1.258 . S
C1192 O1194 1.263 . S
O1193 Co1190 1.970 . S
O1193 C1192 1.258 . S
O1194 Co1191 1.966 . S
O1194 C1192 1.263 . S
C1195 O1196 1.235 . S
C1195 O1222 1.289 . S
O1196 C1195 1.235 . S
C1197 C1199 1.400 . S
C1197 N1200 1.351 . S
C1197 C1202 1.501 . S
C1198 C1199 1.387 . S
C1198 N1201 1.341 . S
C1199 C1197 1.400 . S
C1199 C1198 1.387 . S
N1200 Co1191 2.022 . S
N1200 C1197 1.351 . S
N1200 N1201 1.365 . S
N1201 C1198 1.341 . S
N1201 N1200 1.365 . S
N1201 H1221 0.862 . S
C1202 C1197 1.501 . S
C1202 H1203 0.961 . S
C1202 H1204 0.961 . S
C1202 H1205 0.960 . S
H1203 C1202 0.961 . S
H1204 C1202 0.961 . S
H1205 C1202 0.960 . S
C1206 N1207 1.342 . S
C1206 C1210 1.401 . S
C1206 C1211 1.499 . S
N1207 Co1190 1.989 . S
N1207 C1206 1.342 . S
N1207 N1208 1.388 . S
N1208 Co1191 1.993 . S
N1208 N1207 1.388 . S
N1208 C1209 1.346 . S
C1209 N1208 1.346 . S
C1209 C1210 1.396 . S
C1209 C1219 1.510 . S
C1210 C1206 1.401 . S
C1210 C1209 1.396 . S
C1211 C1206 1.499 . S
C1211 H1212 0.959 . S
C1211 H1213 0.960 . S
C1211 H1214 0.961 . S
H1212 C1211 0.959 . S
H1213 C1211 0.960 . S
H1214 C1211 0.961 . S
O1215 Co1190 1.967 . S
O1215 C1223 1.258 . S
O1216 Co1191 1.941 . S
O1216 C1223 1.266 . S
H1217 C1219 0.959 . S
H1218 C1219 0.961 . S
C1219 C1209 1.510 . S
C1219 H1217 0.959 . S
C1219 H1218 0.961 . S
C1219 H1220 0.960 . S
H1220 C1219 0.960 . S
H1221 N1201 0.862 . S
O1222 Co1190 1.920 . S
O1222 C1195 1.289 . S
C1223 O1215 1.258 . S
C1223 O1216 1.266 . S
C1224 C1225 1.369 . S
C1224 C1226 1.419 . S
C1224 H1228 0.930 . S
C1225 C1224 1.369 . S
C1225 C1234 1.429 . S
C1226 C1224 1.419 . S
C1226 C1227 1.363 . S
C1226 H1229 0.929 . S
C1227 C1226 1.363 . S
C1227 C1233 1.428 . S
H1228 C1224 0.930 . S
H1229 C1226 0.929 . S
S1230 N1231 1.613 . S
S1230 N1232 1.610 . S
N1231 S1230 1.613 . S
N1231 C1234 1.350 . S
N1232 S1230 1.610 . S
N1232 C1233 1.351 . S
C1233 C1227 1.428 . S
C1233 N1232 1.351 . S
C1233 C1234 1.434 . S
C1234 C1225 1.429 . S
C1234 N1231 1.350 . S
C1234 C1233 1.434 . S
C1235 C1236 1.369 1_545 S
C1235 C1237 1.419 . S
C1235 H1239 0.930 . S
C1236 C1235 1.369 1_565 S
C1236 C1245 1.429 1_565 S
C1237 C1235 1.419 . S
C1237 C1238 1.363 . S
C1237 H1240 0.929 . S
C1238 C1237 1.363 . S
C1238 C1244 1.428 . S
H1239 C1235 0.930 . S
H1240 C1237 0.929 . S
S1241 N1242 1.613 1_545 S
S1241 N1243 1.610 . S
N1242 S1241 1.613 1_565 S
N1242 C1245 1.350 1_565 S
N1243 S1241 1.610 . S
N1243 C1244 1.351 . S
C1244 C1238 1.428 . S
C1244 N1243 1.351 . S
C1244 C1245 1.434 . S
C1245 C1236 1.429 1_545 S
C1245 N1242 1.350 1_545 S
C1245 C1244 1.434 . S
C1246 C1247 1.369 1_655 S
C1246 C1248 1.419 . S
C1246 H1250 0.930 1_655 S
C1247 C1246 1.369 1_455 S
C1247 C1256 1.429 1_455 S
C1248 C1246 1.419 . S
C1248 C1249 1.363 . S
C1248 H1251 0.929 . S
C1249 C1248 1.363 . S
C1249 C1255 1.428 . S
H1250 C1246 0.930 1_455 S
H1251 C1248 0.929 . S
S1252 N1253 1.613 . S
S1252 N1254 1.610 . S
N1253 S1252 1.613 . S
N1253 C1256 1.350 . S
N1254 S1252 1.610 . S
N1254 C1255 1.351 . S
C1255 C1249 1.428 . S
C1255 N1254 1.351 . S
C1255 C1256 1.434 . S
C1256 C1247 1.429 1_655 S
C1256 N1253 1.350 . S
C1256 C1255 1.434 . S
C1257 C1258 1.369 . S
C1257 C1259 1.419 . S
C1257 H1261 0.930 . S
C1258 C1257 1.369 . S
C1258 C1267 1.429 . S
C1259 C1257 1.419 . S
C1259 C1260 1.363 . S
C1259 H1262 0.929 . S
C1260 C1259 1.363 . S
C1260 C1266 1.428 . S
H1261 C1257 0.930 . S
H1262 C1259 0.929 . S
S1263 N1264 1.613 . S
S1263 N1265 1.610 . S
N1264 S1263 1.613 . S
N1264 C1267 1.350 . S
N1265 S1263 1.610 . S
N1265 C1266 1.351 . S
C1266 C1260 1.428 . S
C1266 N1265 1.351 . S
C1266 C1267 1.434 . S
C1267 C1258 1.429 . S
C1267 N1264 1.350 . S
C1267 C1266 1.434 . S
C1268 C1269 1.369 1_565 S
C1268 C1270 1.419 . S
C1268 H1272 0.930 . S
C1269 C1268 1.369 1_545 S
C1269 C1278 1.429 1_545 S
C1270 C1268 1.419 . S
C1270 C1271 1.363 . S
C1270 H1273 0.929 . S
C1271 C1270 1.363 . S
C1271 C1277 1.428 . S
H1272 C1268 0.930 . S
H1273 C1270 0.929 . S
S1274 N1275 1.613 1_565 S
S1274 N1276 1.610 . S
N1275 S1274 1.613 1_545 S
N1275 C1278 1.350 1_545 S
N1276 S1274 1.610 . S
N1276 C1277 1.351 . S
C1277 C1271 1.428 . S
C1277 N1276 1.351 . S
C1277 C1278 1.434 . S
C1278 C1269 1.429 1_565 S
C1278 N1275 1.350 1_565 S
C1278 C1277 1.434 . S
C1279 C1280 1.369 1_455 S
C1279 C1281 1.419 . S
C1279 H1283 0.930 . S
C1280 C1279 1.369 1_655 S
C1280 C1289 1.429 . S
C1281 C1279 1.419 . S
C1281 C1282 1.363 . S
C1281 H1284 0.929 . S
C1282 C1281 1.363 . S
C1282 C1288 1.428 . S
H1283 C1279 0.930 . S
H1284 C1281 0.929 . S
S1285 N1286 1.613 . S
S1285 N1287 1.610 1_655 S
N1286 S1285 1.613 . S
N1286 C1289 1.350 . S
N1287 S1285 1.610 1_455 S
N1287 C1288 1.351 . S
C1288 C1282 1.428 . S
C1288 N1287 1.351 . S
C1288 C1289 1.434 1_455 S
C1289 C1280 1.429 . S
C1289 N1286 1.350 . S
C1289 C1288 1.434 1_655 S
C1290 C1291 1.369 . S
C1290 C1292 1.419 . S
C1290 H1294 0.930 . S
C1291 C1290 1.369 . S
C1291 C1300 1.429 . S
C1292 C1290 1.419 . S
C1292 C1293 1.363 . S
C1292 H1295 0.929 . S
C1293 C1292 1.363 . S
C1293 C1299 1.428 . S
H1294 C1290 0.930 . S
H1295 C1292 0.929 . S
S1296 N1297 1.613 . S
S1296 N1298 1.610 . S
N1297 S1296 1.613 . S
N1297 C1300 1.350 . S
N1298 S1296 1.610 . S
N1298 C1299 1.351 . S
C1299 C1293 1.428 . S
C1299 N1298 1.351 . S
C1299 C1300 1.434 . S
C1300 C1291 1.429 . S
C1300 N1297 1.350 . S
C1300 C1299 1.434 . S
C1301 C1302 1.369 . S
C1301 C1303 1.419 . S
C1301 H1305 0.930 . S
C1302 C1301 1.369 . S
C1302 C1311 1.429 . S
C1303 C1301 1.419 . S
C1303 C1304 1.363 1_565 S
C1303 H1306 0.929 1_565 S
C1304 C1303 1.363 1_545 S
C1304 C1310 1.428 1_545 S
H1305 C1301 0.930 . S
H1306 C1303 0.929 1_545 S
S1307 N1308 1.613 . S
S1307 N1309 1.610 . S
N1308 S1307 1.613 . S
N1308 C1311 1.350 . S
N1309 S1307 1.610 . S
N1309 C1310 1.351 . S
C1310 C1304 1.428 1_565 S
C1310 N1309 1.351 . S
C1310 C1311 1.434 . S
C1311 C1302 1.429 . S
C1311 N1308 1.350 . S
C1311 C1310 1.434 . S
C1312 C1313 1.369 . S
C1312 C1314 1.419 . S
C1312 H1316 0.930 . S
C1313 C1312 1.369 . S
C1313 C1322 1.429 . S
C1314 C1312 1.419 . S
C1314 C1315 1.363 1_455 S
C1314 H1317 0.933 . S
C1315 C1314 1.363 1_655 S
C1315 C1321 1.428 1_655 S
H1316 C1312 0.930 . S
H1317 C1314 0.933 . S
S1318 N1319 1.613 . S
S1318 N1320 1.610 . S
N1319 S1318 1.613 . S
N1319 C1322 1.350 . S
N1320 S1318 1.610 . S
N1320 C1321 1.351 . S
C1321 C1315 1.428 1_455 S
C1321 N1320 1.351 . S
C1321 C1322 1.434 . S
C1322 C1313 1.429 . S
C1322 N1319 1.350 . S
C1322 C1321 1.434 . S
C1323 C1324 1.369 . S
C1323 C1325 1.419 . S
C1323 H1327 0.930 . S
C1324 C1323 1.369 . S
C1324 C1333 1.429 . S
C1325 C1323 1.419 . S
C1325 C1326 1.363 . S
C1325 H1328 0.929 . S
C1326 C1325 1.363 . S
C1326 C1332 1.428 . S
H1327 C1323 0.930 . S
H1328 C1325 0.929 . S
S1329 N1330 1.613 . S
S1329 N1331 1.610 . S
N1330 S1329 1.613 . S
N1330 C1333 1.350 . S
N1331 S1329 1.610 . S
N1331 C1332 1.351 . S
C1332 C1326 1.428 . S
C1332 N1331 1.351 . S
C1332 C1333 1.434 . S
C1333 C1324 1.429 . S
C1333 N1330 1.350 . S
C1333 C1332 1.434 . S
C1334 C1335 1.369 1_545 S
C1334 C1336 1.419 . S
C1334 H1338 0.930 . S
C1335 C1334 1.369 1_565 S
C1335 C1344 1.437 . S
C1336 C1334 1.419 . S
C1336 C1337 1.363 . S
C1336 H1339 0.929 . S
C1337 C1336 1.363 . S
C1337 C1343 1.428 . S
H1338 C1334 0.930 . S
H1339 C1336 0.929 . S
S1340 N1341 1.613 . S
S1340 N1342 1.610 1_565 S
N1341 S1340 1.613 . S
N1341 C1344 1.365 . S
N1342 S1340 1.610 1_545 S
N1342 C1343 1.351 . S
C1343 C1337 1.428 . S
C1343 N1342 1.351 . S
C1343 C1344 1.409 1_545 S
C1344 C1335 1.437 . S
C1344 N1341 1.365 . S
C1344 C1343 1.409 1_565 S
C1345 C1346 1.369 . S
C1345 C1347 1.409 1_655 S
C1345 H1349 0.930 . S
C1346 C1345 1.369 . S
C1346 C1355 1.429 . S
C1347 C1345 1.409 1_455 S
C1347 C1348 1.360 . S
C1347 H1350 0.943 . S
C1348 C1347 1.360 . S
C1348 C1354 1.428 1_455 S
H1349 C1345 0.930 . S
H1350 C1347 0.943 . S
S1351 N1352 1.613 . S
S1351 N1353 1.610 . S
N1352 S1351 1.613 . S
N1352 C1355 1.350 . S
N1353 S1351 1.610 . S
N1353 C1354 1.351 . S
C1354 C1348 1.428 1_655 S
C1354 N1353 1.351 . S
C1354 C1355 1.434 . S
C1355 C1346 1.429 . S
C1355 N1352 1.350 . S
C1355 C1354 1.434 . S
C1356 C1357 1.369 . S
C1356 C1358 1.419 . S
C1356 H1360 0.930 . S
C1357 C1356 1.369 . S
C1357 C1366 1.429 . S
C1358 C1356 1.419 . S
C1358 C1359 1.363 . S
C1358 H1361 0.929 . S
C1359 C1358 1.363 . S
C1359 C1365 1.428 . S
H1360 C1356 0.930 . S
H1361 C1358 0.929 . S
S1362 N1363 1.613 . S
S1362 N1364 1.610 . S
N1363 S1362 1.613 . S
N1363 C1366 1.350 . S
N1364 S1362 1.610 . S
N1364 C1365 1.351 . S
C1365 C1359 1.428 . S
C1365 N1364 1.351 . S
C1365 C1366 1.434 . S
C1366 C1357 1.429 . S
C1366 N1363 1.350 . S
C1366 C1365 1.434 . S
C1367 C1368 1.369 . S
C1367 C1369 1.419 . S
C1367 H1371 0.930 . S
C1368 C1367 1.369 . S
C1368 C1377 1.429 . S
C1369 C1367 1.419 . S
C1369 C1370 1.363 . S
C1369 H1372 0.929 . S
C1370 C1369 1.363 . S
C1370 C1376 1.428 . S
H1371 C1367 0.930 . S
H1372 C1369 0.929 . S
S1373 N1374 1.613 . S
S1373 N1375 1.610 . S
N1374 S1373 1.613 . S
N1374 C1377 1.350 . S
N1375 S1373 1.610 . S
N1375 C1376 1.351 . S
C1376 C1370 1.428 . S
C1376 N1375 1.351 . S
C1376 C1377 1.434 . S
C1377 C1368 1.429 . S
C1377 N1374 1.350 . S
C1377 C1376 1.434 . S
C1378 C1379 1.369 . S
C1378 C1380 1.419 . S
C1378 H1382 0.930 . S
C1379 C1378 1.369 . S
C1379 C1388 1.429 . S
C1380 C1378 1.419 . S
C1380 C1381 1.363 . S
C1380 H1383 0.929 . S
C1381 C1380 1.363 . S
C1381 C1387 1.428 . S
H1382 C1378 0.930 . S
H1383 C1380 0.929 . S
S1384 N1385 1.613 . S
S1384 N1386 1.610 . S
N1385 S1384 1.613 . S
N1385 C1388 1.350 . S
N1386 S1384 1.610 . S
N1386 C1387 1.351 . S
C1387 C1381 1.428 . S
C1387 N1386 1.351 . S
C1387 C1388 1.434 . S
C1388 C1379 1.429 . S
C1388 N1385 1.350 . S
C1388 C1387 1.434 . S
C1389 C1390 1.369 . S
C1389 C1391 1.419 . S
C1389 H1393 0.930 . S
C1390 C1389 1.369 . S
C1390 C1399 1.429 . S
C1391 C1389 1.419 . S
C1391 C1392 1.363 . S
C1391 H1394 0.929 . S
C1392 C1391 1.363 . S
C1392 C1398 1.428 . S
H1393 C1389 0.930 . S
H1394 C1391 0.929 . S
S1395 N1396 1.613 . S
S1395 N1397 1.610 . S
N1396 S1395 1.613 . S
N1396 C1399 1.350 . S
N1397 S1395 1.610 . S
N1397 C1398 1.351 . S
C1398 C1392 1.428 . S
C1398 N1397 1.351 . S
C1398 C1399 1.434 . S
C1399 C1390 1.429 . S
C1399 N1396 1.350 . S
C1399 C1398 1.434 . S
C1400 C1401 1.369 . S
C1400 C1402 1.419 . S
C1400 H1404 0.930 . S
C1401 C1400 1.369 . S
C1401 C1410 1.429 . S
C1402 C1400 1.419 . S
C1402 C1403 1.363 . S
C1402 H1405 0.929 . S
C1403 C1402 1.363 . S
C1403 C1409 1.428 . S
H1404 C1400 0.930 . S
H1405 C1402 0.929 . S
S1406 N1407 1.613 . S
S1406 N1408 1.610 . S
N1407 S1406 1.613 . S
N1407 C1410 1.350 . S
N1408 S1406 1.610 . S
N1408 C1409 1.351 . S
C1409 C1403 1.428 . S
C1409 N1408 1.351 . S
C1409 C1410 1.434 . S
C1410 C1401 1.429 . S
C1410 N1407 1.350 . S
C1410 C1409 1.434 . S
C1411 C1412 1.369 . S
C1411 C1413 1.419 . S
C1411 H1415 0.930 . S
C1412 C1411 1.369 . S
C1412 C1421 1.429 . S
C1413 C1411 1.419 . S
C1413 C1414 1.363 . S
C1413 H1416 0.929 . S
C1414 C1413 1.363 . S
C1414 C1420 1.428 . S
H1415 C1411 0.930 . S
H1416 C1413 0.929 . S
S1417 N1418 1.613 . S
S1417 N1419 1.610 . S
N1418 S1417 1.613 . S
N1418 C1421 1.350 . S
N1419 S1417 1.610 . S
N1419 C1420 1.351 . S
C1420 C1414 1.428 . S
C1420 N1419 1.351 . S
C1420 C1421 1.434 . S
C1421 C1412 1.429 . S
C1421 N1418 1.350 . S
C1421 C1420 1.434 . S
C1422 C1423 1.369 . S
C1422 C1424 1.419 . S
C1422 H1426 0.930 . S
C1423 C1422 1.369 . S
C1423 C1432 1.429 . S
C1424 C1422 1.419 . S
C1424 C1425 1.363 . S
C1424 H1427 0.929 . S
C1425 C1424 1.363 . S
C1425 C1431 1.428 . S
H1426 C1422 0.930 . S
H1427 C1424 0.929 . S
S1428 N1429 1.613 . S
S1428 N1430 1.610 . S
N1429 S1428 1.613 . S
N1429 C1432 1.350 . S
N1430 S1428 1.610 . S
N1430 C1431 1.351 . S
C1431 C1425 1.428 . S
C1431 N1430 1.351 . S
C1431 C1432 1.434 . S
C1432 C1423 1.429 . S
C1432 N1429 1.350 . S
C1432 C1431 1.434 . S
C1433 C1434 1.369 . S
C1433 C1435 1.419 . S
C1433 H1437 0.930 . S
C1434 C1433 1.369 . S
C1434 C1443 1.429 . S
C1435 C1433 1.419 . S
C1435 C1436 1.363 . S
C1435 H1438 0.929 . S
C1436 C1435 1.363 . S
C1436 C1442 1.428 . S
H1437 C1433 0.930 . S
H1438 C1435 0.929 . S
S1439 N1440 1.613 . S
S1439 N1441 1.610 . S
N1440 S1439 1.613 . S
N1440 C1443 1.350 . S
N1441 S1439 1.610 . S
N1441 C1442 1.351 . S
C1442 C1436 1.428 . S
C1442 N1441 1.351 . S
C1442 C1443 1.434 . S
C1443 C1434 1.429 . S
C1443 N1440 1.350 . S
C1443 C1442 1.434 . S
C1444 C1445 1.369 . S
C1444 C1446 1.419 . S
C1444 H1448 0.930 . S
C1445 C1444 1.369 . S
C1445 C1454 1.429 . S
C1446 C1444 1.419 . S
C1446 C1447 1.363 . S
C1446 H1449 0.929 . S
C1447 C1446 1.363 . S
C1447 C1453 1.428 . S
H1448 C1444 0.930 . S
H1449 C1446 0.929 . S
S1450 N1451 1.613 . S
S1450 N1452 1.610 . S
N1451 S1450 1.613 . S
N1451 C1454 1.350 . S
N1452 S1450 1.610 . S
N1452 C1453 1.351 . S
C1453 C1447 1.428 . S
C1453 N1452 1.351 . S
C1453 C1454 1.434 . S
C1454 C1445 1.429 . S
C1454 N1451 1.350 . S
C1454 C1453 1.434 . S
C1455 C1456 1.369 . S
C1455 C1457 1.419 . S
C1455 H1459 0.930 . S
C1456 C1455 1.369 . S
C1456 C1465 1.429 . S
C1457 C1455 1.419 . S
C1457 C1458 1.363 . S
C1457 H1460 0.929 . S
C1458 C1457 1.363 . S
C1458 C1464 1.428 . S
H1459 C1455 0.930 . S
H1460 C1457 0.929 . S
S1461 N1462 1.613 1_554 S
S1461 N1463 1.610 . S
N1462 S1461 1.613 1_556 S
N1462 C1465 1.350 . S
N1463 S1461 1.610 . S
N1463 C1464 1.351 1_554 S
C1464 C1458 1.428 . S
C1464 N1463 1.351 1_556 S
C1464 C1465 1.434 . S
C1465 C1456 1.429 . S
C1465 N1462 1.350 . S
C1465 C1464 1.434 . S
C1466 C1467 1.369 . S
C1466 C1468 1.419 . S
C1466 H1470 0.930 . S
C1467 C1466 1.369 . S
C1467 C1476 1.429 . S
C1468 C1466 1.419 . S
C1468 C1469 1.363 . S
C1468 H1471 0.929 . S
C1469 C1468 1.363 . S
C1469 C1475 1.428 . S
H1470 C1466 0.930 . S
H1471 C1468 0.929 . S
S1472 N1473 1.613 . S
S1472 N1474 1.610 . S
N1473 S1472 1.613 . S
N1473 C1476 1.350 . S
N1474 S1472 1.610 . S
N1474 C1475 1.351 . S
C1475 C1469 1.428 . S
C1475 N1474 1.351 . S
C1475 C1476 1.434 . S
C1476 C1467 1.429 . S
C1476 N1473 1.350 . S
C1476 C1475 1.434 . S
C1477 C1478 1.369 . S
C1477 C1479 1.419 . S
C1477 H1481 0.930 . S
C1478 C1477 1.369 . S
C1478 C1487 1.429 . S
C1479 C1477 1.419 . S
C1479 C1480 1.363 . S
C1479 H1482 0.929 1_556 S
C1480 C1479 1.363 . S
C1480 C1486 1.428 . S
H1481 C1477 0.930 . S
H1482 C1479 0.929 1_554 S
S1483 N1484 1.613 . S
S1483 N1485 1.610 . S
N1484 S1483 1.613 . S
N1484 C1487 1.350 . S
N1485 S1483 1.610 . S
N1485 C1486 1.351 . S
C1486 C1480 1.428 . S
C1486 N1485 1.351 . S
C1486 C1487 1.434 . S
C1487 C1478 1.429 . S
C1487 N1484 1.350 . S
C1487 C1486 1.434 . S
C1488 C1489 1.369 . S
C1488 C1490 1.419 . S
C1488 H1492 0.930 . S
C1489 C1488 1.369 . S
C1489 C1498 1.429 . S
C1490 C1488 1.419 . S
C1490 C1491 1.363 . S
C1490 H1493 0.929 . S
C1491 C1490 1.363 . S
C1491 C1497 1.428 . S
H1492 C1488 0.930 . S
H1493 C1490 0.929 . S
S1494 N1495 1.613 . S
S1494 N1496 1.610 . S
N1495 S1494 1.613 . S
N1495 C1498 1.350 . S
N1496 S1494 1.610 . S
N1496 C1497 1.351 . S
C1497 C1491 1.428 . S
C1497 N1496 1.351 . S
C1497 C1498 1.434 . S
C1498 C1489 1.429 . S
C1498 N1495 1.350 . S
C1498 C1497 1.434 . S
C1499 C1500 1.369 . S
C1499 C1501 1.419 . S
C1499 H1503 0.930 . S
C1500 C1499 1.369 . S
C1500 C1509 1.429 . S
C1501 C1499 1.419 . S
C1501 C1502 1.363 . S
C1501 H1504 0.929 . S
C1502 C1501 1.363 . S
C1502 C1508 1.428 . S
H1503 C1499 0.930 . S
H1504 C1501 0.929 . S
S1505 N1506 1.613 . S
S1505 N1507 1.610 . S
N1506 S1505 1.613 . S
N1506 C1509 1.350 . S
N1507 S1505 1.610 . S
N1507 C1508 1.351 . S
C1508 C1502 1.428 . S
C1508 N1507 1.351 . S
C1508 C1509 1.434 . S
C1509 C1500 1.429 . S
C1509 N1506 1.350 . S
C1509 C1508 1.434 . S
C1510 C1511 1.369 . S
C1510 C1512 1.419 . S
C1510 H1514 0.930 . S
C1511 C1510 1.369 . S
C1511 C1520 1.429 . S
C1512 C1510 1.419 . S
C1512 C1513 1.363 . S
C1512 H1515 0.929 . S
C1513 C1512 1.363 . S
C1513 C1519 1.428 . S
H1514 C1510 0.930 . S
H1515 C1512 0.929 . S
S1516 N1517 1.613 . S
S1516 N1518 1.610 . S
N1517 S1516 1.613 . S
N1517 C1520 1.350 . S
N1518 S1516 1.610 . S
N1518 C1519 1.351 . S
C1519 C1513 1.428 . S
C1519 N1518 1.351 . S
C1519 C1520 1.434 . S
C1520 C1511 1.429 . S
C1520 N1517 1.350 . S
C1520 C1519 1.434 . S
C1521 C1522 1.369 . S
C1521 C1523 1.419 . S
C1521 H1525 0.930 . S
C1522 C1521 1.369 . S
C1522 C1531 1.429 . S
C1523 C1521 1.419 . S
C1523 C1524 1.363 . S
C1523 H1526 0.929 . S
C1524 C1523 1.363 . S
C1524 C1530 1.428 . S
H1525 C1521 0.930 . S
H1526 C1523 0.929 . S
S1527 N1528 1.613 . S
S1527 N1529 1.610 1_556 S
N1528 S1527 1.613 . S
N1528 C1531 1.350 1_556 S
N1529 S1527 1.610 1_554 S
N1529 C1530 1.351 . S
C1530 C1524 1.428 . S
C1530 N1529 1.351 . S
C1530 C1531 1.434 . S
C1531 C1522 1.429 . S
C1531 N1528 1.350 1_554 S
C1531 C1530 1.434 . S
C1532 C1533 1.369 . S
C1532 C1534 1.419 . S
C1532 H1536 0.930 . S
C1533 C1532 1.369 . S
C1533 C1542 1.429 . S
C1534 C1532 1.419 . S
C1534 C1535 1.363 . S
C1534 H1537 0.929 . S
C1535 C1534 1.363 . S
C1535 C1541 1.428 . S
H1536 C1532 0.930 . S
H1537 C1534 0.929 . S
S1538 N1539 1.613 . S
S1538 N1540 1.610 . S
N1539 S1538 1.613 . S
N1539 C1542 1.350 . S
N1540 S1538 1.610 . S
N1540 C1541 1.351 . S
C1541 C1535 1.428 . S
C1541 N1540 1.351 . S
C1541 C1542 1.434 . S
C1542 C1533 1.429 . S
C1542 N1539 1.350 . S
C1542 C1541 1.434 . S
C1543 C1544 1.369 . S
C1543 C1545 1.419 . S
C1543 H1547 0.930 . S
C1544 C1543 1.369 . S
C1544 C1553 1.429 . S
C1545 C1543 1.419 . S
C1545 C1546 1.363 . S
C1545 H1548 0.929 . S
C1546 C1545 1.363 . S
C1546 C1552 1.428 . S
H1547 C1543 0.930 . S
H1548 C1545 0.929 . S
S1549 N1550 1.613 . S
S1549 N1551 1.610 . S
N1550 S1549 1.613 . S
N1550 C1553 1.350 . S
N1551 S1549 1.610 . S
N1551 C1552 1.351 . S
C1552 C1546 1.428 . S
C1552 N1551 1.351 . S
C1552 C1553 1.434 . S
C1553 C1544 1.429 . S
C1553 N1550 1.350 . S
C1553 C1552 1.434 . S
C1554 C1555 1.369 . S
C1554 C1556 1.419 . S
C1554 H1558 0.930 . S
C1555 C1554 1.369 . S
C1555 C1564 1.429 . S
C1556 C1554 1.419 . S
C1556 C1557 1.363 . S
C1556 H1559 0.929 . S
C1557 C1556 1.363 . S
C1557 C1563 1.428 . S
H1558 C1554 0.930 . S
H1559 C1556 0.929 . S
S1560 N1561 1.613 . S
S1560 N1562 1.610 . S
N1561 S1560 1.613 . S
N1561 C1564 1.350 . S
N1562 S1560 1.610 . S
N1562 C1563 1.351 . S
C1563 C1557 1.428 . S
C1563 N1562 1.351 . S
C1563 C1564 1.434 . S
C1564 C1555 1.429 . S
C1564 N1561 1.350 . S
C1564 C1563 1.434 . S
C1565 C1566 1.369 . S
C1565 C1567 1.419 . S
C1565 H1569 0.930 . S
C1566 C1565 1.369 . S
C1566 C1575 1.429 . S
C1567 C1565 1.419 . S
C1567 C1568 1.363 . S
C1567 H1570 0.929 . S
C1568 C1567 1.363 . S
C1568 C1574 1.428 . S
H1569 C1565 0.930 . S
H1570 C1567 0.929 . S
S1571 N1572 1.613 . S
S1571 N1573 1.610 . S
N1572 S1571 1.613 . S
N1572 C1575 1.350 . S
N1573 S1571 1.610 . S
N1573 C1574 1.351 . S
C1574 C1568 1.428 . S
C1574 N1573 1.351 . S
C1574 C1575 1.434 . S
C1575 C1566 1.429 . S
C1575 N1572 1.350 . S
C1575 C1574 1.434 . S
C1576 C1577 1.369 . S
C1576 C1578 1.419 . S
C1576 H1580 0.930 . S
C1577 C1576 1.369 . S
C1577 C1586 1.429 . S
C1578 C1576 1.419 . S
C1578 C1579 1.363 . S
C1578 H1581 0.929 . S
C1579 C1578 1.363 . S
C1579 C1585 1.428 . S
H1580 C1576 0.930 . S
H1581 C1578 0.929 . S
S1582 N1583 1.613 . S
S1582 N1584 1.610 . S
N1583 S1582 1.613 . S
N1583 C1586 1.350 . S
N1584 S1582 1.610 . S
N1584 C1585 1.351 . S
C1585 C1579 1.428 . S
C1585 N1584 1.351 . S
C1585 C1586 1.434 . S
C1586 C1577 1.429 . S
C1586 N1583 1.350 . S
C1586 C1585 1.434 . S
C1587 C1588 1.369 . S
C1587 C1589 1.419 . S
C1587 H1591 0.930 . S
C1588 C1587 1.369 . S
C1588 C1597 1.429 . S
C1589 C1587 1.419 . S
C1589 C1590 1.363 . S
C1589 H1592 0.929 . S
C1590 C1589 1.363 . S
C1590 C1596 1.428 . S
H1591 C1587 0.930 . S
H1592 C1589 0.929 . S
S1593 N1594 1.613 . S
S1593 N1595 1.610 . S
N1594 S1593 1.613 . S
N1594 C1597 1.350 . S
N1595 S1593 1.610 . S
N1595 C1596 1.351 . S
C1596 C1590 1.428 . S
C1596 N1595 1.351 . S
C1596 C1597 1.434 . S
C1597 C1588 1.429 . S
C1597 N1594 1.350 . S
C1597 C1596 1.434 . S
C1598 C1599 1.369 . S
C1598 C1600 1.419 . S
C1598 H1602 0.930 . S
C1599 C1598 1.369 . S
C1599 C1608 1.429 . S
C1600 C1598 1.419 . S
C1600 C1601 1.363 . S
C1600 H1603 0.929 . S
C1601 C1600 1.363 . S
C1601 C1607 1.428 . S
H1602 C1598 0.930 . S
H1603 C1600 0.929 . S
S1604 N1605 1.613 . S
S1604 N1606 1.610 . S
N1605 S1604 1.613 . S
N1605 C1608 1.350 . S
N1606 S1604 1.610 . S
N1606 C1607 1.351 . S
C1607 C1601 1.428 . S
C1607 N1606 1.351 . S
C1607 C1608 1.434 . S
C1608 C1599 1.429 . S
C1608 N1605 1.350 . S
C1608 C1607 1.434 . S
C1609 C1610 1.369 . S
C1609 C1611 1.419 . S
C1609 H1613 0.930 . S
C1610 C1609 1.369 . S
C1610 C1619 1.429 . S
C1611 C1609 1.419 . S
C1611 C1612 1.363 . S
C1611 H1614 0.929 . S
C1612 C1611 1.363 . S
C1612 C1618 1.428 . S
H1613 C1609 0.930 . S
H1614 C1611 0.929 . S
S1615 N1616 1.613 . S
S1615 N1617 1.610 . S
N1616 S1615 1.613 . S
N1616 C1619 1.350 . S
N1617 S1615 1.610 . S
N1617 C1618 1.351 . S
C1618 C1612 1.428 . S
C1618 N1617 1.351 . S
C1618 C1619 1.434 . S
C1619 C1610 1.429 . S
C1619 N1616 1.350 . S
C1619 C1618 1.434 . S
C1620 C1621 1.369 . S
C1620 C1622 1.419 . S
C1620 H1624 0.930 . S
C1621 C1620 1.369 . S
C1621 C1630 1.429 1_655 S
C1622 C1620 1.419 . S
C1622 C1623 1.363 1_655 S
C1622 H1625 0.929 . S
C1623 C1622 1.363 1_455 S
C1623 C1629 1.428 . S
H1624 C1620 0.930 . S
H1625 C1622 0.929 . S
S1626 N1627 1.613 . S
S1626 N1628 1.610 . S
N1627 S1626 1.613 . S
N1627 C1630 1.350 . S
N1628 S1626 1.610 . S
N1628 C1629 1.351 . S
C1629 C1623 1.428 . S
C1629 N1628 1.351 . S
C1629 C1630 1.434 . S
C1630 C1621 1.429 1_455 S
C1630 N1627 1.350 . S
C1630 C1629 1.434 . S
C1631 C1632 1.369 . S
C1631 C1633 1.419 . S
C1631 H1635 0.930 . S
C1632 C1631 1.369 . S
C1632 C1641 1.429 . S
C1633 C1631 1.419 . S
C1633 C1634 1.363 . S
C1633 H1636 0.929 . S
C1634 C1633 1.363 . S
C1634 C1640 1.428 . S
H1635 C1631 0.930 . S
H1636 C1633 0.929 . S
S1637 N1638 1.613 . S
S1637 N1639 1.610 . S
N1638 S1637 1.613 . S
N1638 C1641 1.350 . S
N1639 S1637 1.610 . S
N1639 C1640 1.351 . S
C1640 C1634 1.428 . S
C1640 N1639 1.351 . S
C1640 C1641 1.434 . S
C1641 C1632 1.429 . S
C1641 N1638 1.350 . S
C1641 C1640 1.434 . S
C1642 C1643 1.369 . S
C1642 C1644 1.419 . S
C1642 H1646 0.930 . S
C1643 C1642 1.369 . S
C1643 C1652 1.429 1_565 S
C1644 C1642 1.419 . S
C1644 C1645 1.363 1_565 S
C1644 H1647 0.929 . S
C1645 C1644 1.363 1_545 S
C1645 C1651 1.428 . S
H1646 C1642 0.930 . S
H1647 C1644 0.929 . S
S1648 N1649 1.613 . S
S1648 N1650 1.610 . S
N1649 S1648 1.613 . S
N1649 C1652 1.350 . S
N1650 S1648 1.610 . S
N1650 C1651 1.351 . S
C1651 C1645 1.428 . S
C1651 N1650 1.351 . S
C1651 C1652 1.434 . S
C1652 C1643 1.429 1_545 S
C1652 N1649 1.350 . S
C1652 C1651 1.434 . S
C1653 C1654 1.369 . S
C1653 C1655 1.419 . S
C1653 H1657 0.930 . S
C1654 C1653 1.369 . S
C1654 C1663 1.429 1_455 S
C1655 C1653 1.419 . S
C1655 C1656 1.363 1_455 S
C1655 H1658 0.929 . S
C1656 C1655 1.363 1_655 S
C1656 C1662 1.428 . S
H1657 C1653 0.930 . S
H1658 C1655 0.929 . S
S1659 N1660 1.613 . S
S1659 N1661 1.610 . S
N1660 S1659 1.613 . S
N1660 C1663 1.350 . S
N1661 S1659 1.610 . S
N1661 C1662 1.351 . S
C1662 C1656 1.428 . S
C1662 N1661 1.351 . S
C1662 C1663 1.434 . S
C1663 C1654 1.429 1_655 S
C1663 N1660 1.350 . S
C1663 C1662 1.434 . S
C1664 C1665 1.369 . S
C1664 C1666 1.419 . S
C1664 H1668 0.930 . S
C1665 C1664 1.369 . S
C1665 C1674 1.429 . S
C1666 C1664 1.419 . S
C1666 C1667 1.363 . S
C1666 H1669 0.929 . S
C1667 C1666 1.363 . S
C1667 C1673 1.428 . S
H1668 C1664 0.930 . S
H1669 C1666 0.929 . S
S1670 N1671 1.613 . S
S1670 N1672 1.610 . S
N1671 S1670 1.613 . S
N1671 C1674 1.350 . S
N1672 S1670 1.610 . S
N1672 C1673 1.351 . S
C1673 C1667 1.428 . S
C1673 N1672 1.351 . S
C1673 C1674 1.434 . S
C1674 C1665 1.429 . S
C1674 N1671 1.350 . S
C1674 C1673 1.434 . S
C1675 C1676 1.369 . S
C1675 C1677 1.419 . S
C1675 H1679 0.930 . S
C1676 C1675 1.369 . S
C1676 C1685 1.429 1_545 S
C1677 C1675 1.419 . S
C1677 C1678 1.363 1_545 S
C1677 H1680 0.929 . S
C1678 C1677 1.363 1_565 S
C1678 C1684 1.428 . S
H1679 C1675 0.930 . S
H1680 C1677 0.929 . S
S1681 N1682 1.613 . S
S1681 N1683 1.610 . S
N1682 S1681 1.613 . S
N1682 C1685 1.350 . S
N1683 S1681 1.610 . S
N1683 C1684 1.351 . S
C1684 C1678 1.428 . S
C1684 N1683 1.351 . S
C1684 C1685 1.434 . S
C1685 C1676 1.429 1_565 S
C1685 N1682 1.350 . S
C1685 C1684 1.434 . S
C1686 C1687 1.369 . S
C1686 C1688 1.419 . S
C1686 H1690 0.930 . S
C1687 C1686 1.369 . S
C1687 C1696 1.429 . S
C1688 C1686 1.419 . S
C1688 C1689 1.363 . S
C1688 H1691 0.929 . S
C1689 C1688 1.363 . S
C1689 C1695 1.428 . S
H1690 C1686 0.930 . S
H1691 C1688 0.929 . S
S1692 N1693 1.613 . S
S1692 N1694 1.610 . S
N1693 S1692 1.613 . S
N1693 C1696 1.350 . S
N1694 S1692 1.610 . S
N1694 C1695 1.351 . S
C1695 C1689 1.428 . S
C1695 N1694 1.351 . S
C1695 C1696 1.434 . S
C1696 C1687 1.429 . S
C1696 N1693 1.350 . S
C1696 C1695 1.434 . S
C1697 C1698 1.369 . S
C1697 C1699 1.419 . S
C1697 H1701 0.930 . S
C1698 C1697 1.369 . S
C1698 C1707 1.429 . S
C1699 C1697 1.419 . S
C1699 C1700 1.363 . S
C1699 H1702 0.929 . S
C1700 C1699 1.363 . S
C1700 C1706 1.428 . S
H1701 C1697 0.930 . S
H1702 C1699 0.929 . S
S1703 N1704 1.613 . S
S1703 N1705 1.610 . S
N1704 S1703 1.613 . S
N1704 C1707 1.350 . S
N1705 S1703 1.610 . S
N1705 C1706 1.351 . S
C1706 C1700 1.428 . S
C1706 N1705 1.351 . S
C1706 C1707 1.434 . S
C1707 C1698 1.429 . S
C1707 N1704 1.350 . S
C1707 C1706 1.434 . S
C1708 C1709 1.369 . S
C1708 C1710 1.419 . S
C1708 H1712 0.930 . S
C1709 C1708 1.369 . S
C1709 C1718 1.429 . S
C1710 C1708 1.419 . S
C1710 C1711 1.363 . S
C1710 H1713 0.929 . S
C1711 C1710 1.363 . S
C1711 C1717 1.428 . S
H1712 C1708 0.930 . S
H1713 C1710 0.929 . S
S1714 N1715 1.613 . S
S1714 N1716 1.610 . S
N1715 S1714 1.613 . S
N1715 C1718 1.350 . S
N1716 S1714 1.610 . S
N1716 C1717 1.351 . S
C1717 C1711 1.428 . S
C1717 N1716 1.351 . S
C1717 C1718 1.434 . S
C1718 C1709 1.429 . S
C1718 N1715 1.350 . S
C1718 C1717 1.434 . S
C1719 C1720 1.369 . S
C1719 C1721 1.419 . S
C1719 H1723 0.930 . S
C1720 C1719 1.369 . S
C1720 C1729 1.429 . S
C1721 C1719 1.419 . S
C1721 C1722 1.363 . S
C1721 H1724 0.929 . S
C1722 C1721 1.363 . S
C1722 C1728 1.428 . S
H1723 C1719 0.930 . S
H1724 C1721 0.929 . S
S1725 N1726 1.613 . S
S1725 N1727 1.610 . S
N1726 S1725 1.613 . S
N1726 C1729 1.350 . S
N1727 S1725 1.610 . S
N1727 C1728 1.351 . S
C1728 C1722 1.428 . S
C1728 N1727 1.351 . S
C1728 C1729 1.434 . S
C1729 C1720 1.429 . S
C1729 N1726 1.350 . S
C1729 C1728 1.434 . S
C1730 C1731 1.369 . S
C1730 C1732 1.419 . S
C1730 H1734 0.930 . S
C1731 C1730 1.369 . S
C1731 C1740 1.429 . S
C1732 C1730 1.419 . S
C1732 C1733 1.363 . S
C1732 H1735 0.929 . S
C1733 C1732 1.363 . S
C1733 C1739 1.428 . S
H1734 C1730 0.930 . S
H1735 C1732 0.929 . S
S1736 N1737 1.613 . S
S1736 N1738 1.610 . S
N1737 S1736 1.613 . S
N1737 C1740 1.350 . S
N1738 S1736 1.610 . S
N1738 C1739 1.351 . S
C1739 C1733 1.428 . S
C1739 N1738 1.351 . S
C1739 C1740 1.434 . S
C1740 C1731 1.429 . S
C1740 N1737 1.350 . S
C1740 C1739 1.434 . S
C1741 C1742 1.369 . S
C1741 C1743 1.419 . S
C1741 H1745 0.930 . S
C1742 C1741 1.369 . S
C1742 C1751 1.429 . S
C1743 C1741 1.419 . S
C1743 C1744 1.363 . S
C1743 H1746 0.929 . S
C1744 C1743 1.363 . S
C1744 C1750 1.428 . S
H1745 C1741 0.930 . S
H1746 C1743 0.929 . S
S1747 N1748 1.613 . S
S1747 N1749 1.610 . S
N1748 S1747 1.613 . S
N1748 C1751 1.350 . S
N1749 S1747 1.610 . S
N1749 C1750 1.351 . S
C1750 C1744 1.428 . S
C1750 N1749 1.351 . S
C1750 C1751 1.434 . S
C1751 C1742 1.429 . S
C1751 N1748 1.350 . S
C1751 C1750 1.434 . S
C1752 C1753 1.369 . S
C1752 C1754 1.419 . S
C1752 H1756 0.930 . S
C1753 C1752 1.369 . S
C1753 C1762 1.429 . S
C1754 C1752 1.419 . S
C1754 C1755 1.363 . S
C1754 H1757 0.929 . S
C1755 C1754 1.363 . S
C1755 C1761 1.428 . S
H1756 C1752 0.930 . S
H1757 C1754 0.929 . S
S1758 N1759 1.613 . S
S1758 N1760 1.610 . S
N1759 S1758 1.613 . S
N1759 C1762 1.350 . S
N1760 S1758 1.610 . S
N1760 C1761 1.351 . S
C1761 C1755 1.428 . S
C1761 N1760 1.351 . S
C1761 C1762 1.434 . S
C1762 C1753 1.429 . S
C1762 N1759 1.350 . S
C1762 C1761 1.434 . S
C1763 C1764 1.369 . S
C1763 C1765 1.419 . S
C1763 H1767 0.930 . S
C1764 C1763 1.369 . S
C1764 C1773 1.429 . S
C1765 C1763 1.419 . S
C1765 C1766 1.363 . S
C1765 H1768 0.929 . S
C1766 C1765 1.363 . S
C1766 C1772 1.428 . S
H1767 C1763 0.930 . S
H1768 C1765 0.929 . S
S1769 N1770 1.613 . S
S1769 N1771 1.610 . S
N1770 S1769 1.613 . S
N1770 C1773 1.350 . S
N1771 S1769 1.610 . S
N1771 C1772 1.351 . S
C1772 C1766 1.428 . S
C1772 N1771 1.351 . S
C1772 C1773 1.434 . S
C1773 C1764 1.429 . S
C1773 N1770 1.350 . S
C1773 C1772 1.434 . S
C1774 C1775 1.369 . S
C1774 C1776 1.419 . S
C1774 H1778 0.930 . S
C1775 C1774 1.369 . S
C1775 C1784 1.429 . S
C1776 C1774 1.419 . S
C1776 C1777 1.363 . S
C1776 H1779 0.929 . S
C1777 C1776 1.363 . S
C1777 C1783 1.428 . S
H1778 C1774 0.930 . S
H1779 C1776 0.929 . S
S1780 N1781 1.613 . S
S1780 N1782 1.610 . S
N1781 S1780 1.613 . S
N1781 C1784 1.350 . S
N1782 S1780 1.610 . S
N1782 C1783 1.351 . S
C1783 C1777 1.428 . S
C1783 N1782 1.351 . S
C1783 C1784 1.434 . S
C1784 C1775 1.429 . S
C1784 N1781 1.350 . S
C1784 C1783 1.434 . S
C1785 C1786 1.369 . S
C1785 C1787 1.419 . S
C1785 H1789 0.930 . S
C1786 C1785 1.369 . S
C1786 C1795 1.429 . S
C1787 C1785 1.419 . S
C1787 C1788 1.363 . S
C1787 H1790 0.929 . S
C1788 C1787 1.363 . S
C1788 C1794 1.428 . S
H1789 C1785 0.930 . S
H1790 C1787 0.929 . S
S1791 N1792 1.613 . S
S1791 N1793 1.610 . S
N1792 S1791 1.613 . S
N1792 C1795 1.350 . S
N1793 S1791 1.610 . S
N1793 C1794 1.351 . S
C1794 C1788 1.428 . S
C1794 N1793 1.351 . S
C1794 C1795 1.434 . S
C1795 C1786 1.429 . S
C1795 N1792 1.350 . S
C1795 C1794 1.434 . S
C1796 C1797 1.369 . S
C1796 C1798 1.419 . S
C1796 H1800 0.930 . S
C1797 C1796 1.369 . S
C1797 C1806 1.429 . S
C1798 C1796 1.419 . S
C1798 C1799 1.363 . S
C1798 H1801 0.929 . S
C1799 C1798 1.363 . S
C1799 C1805 1.428 . S
H1800 C1796 0.930 . S
H1801 C1798 0.929 . S
S1802 N1803 1.613 . S
S1802 N1804 1.610 . S
N1803 S1802 1.613 . S
N1803 C1806 1.350 . S
N1804 S1802 1.610 . S
N1804 C1805 1.351 . S
C1805 C1799 1.428 . S
C1805 N1804 1.351 . S
C1805 C1806 1.434 . S
C1806 C1797 1.429 . S
C1806 N1803 1.350 . S
C1806 C1805 1.434 . S
C1807 C1808 1.369 . S
C1807 C1809 1.419 . S
C1807 H1811 0.930 . S
C1808 C1807 1.369 . S
C1808 C1817 1.429 . S
C1809 C1807 1.419 . S
C1809 C1810 1.363 . S
C1809 H1812 0.929 . S
C1810 C1809 1.363 . S
C1810 C1816 1.428 . S
H1811 C1807 0.930 . S
H1812 C1809 0.929 . S
S1813 N1814 1.613 . S
S1813 N1815 1.610 . S
N1814 S1813 1.613 . S
N1814 C1817 1.350 . S
N1815 S1813 1.610 . S
N1815 C1816 1.351 . S
C1816 C1810 1.428 . S
C1816 N1815 1.351 . S
C1816 C1817 1.434 . S
C1817 C1808 1.429 . S
C1817 N1814 1.350 . S
C1817 C1816 1.434 . S
C1818 C1819 1.369 . S
C1818 C1820 1.419 . S
C1818 H1822 0.930 . S
C1819 C1818 1.369 . S
C1819 C1828 1.429 . S
C1820 C1818 1.419 . S
C1820 C1821 1.363 . S
C1820 H1823 0.929 . S
C1821 C1820 1.363 . S
C1821 C1827 1.428 . S
H1822 C1818 0.930 . S
H1823 C1820 0.929 . S
S1824 N1825 1.613 . S
S1824 N1826 1.610 . S
N1825 S1824 1.613 . S
N1825 C1828 1.350 . S
N1826 S1824 1.610 . S
N1826 C1827 1.351 . S
C1827 C1821 1.428 . S
C1827 N1826 1.351 . S
C1827 C1828 1.434 . S
C1828 C1819 1.429 . S
C1828 N1825 1.350 . S
C1828 C1827 1.434 . S
C1829 C1830 1.369 . S
C1829 C1831 1.419 . S
C1829 H1833 0.930 . S
C1830 C1829 1.369 . S
C1830 C1839 1.429 . S
C1831 C1829 1.419 . S
C1831 C1832 1.363 . S
C1831 H1834 0.929 . S
C1832 C1831 1.363 . S
C1832 C1838 1.428 . S
H1833 C1829 0.930 . S
H1834 C1831 0.929 . S
S1835 N1836 1.613 . S
S1835 N1837 1.610 . S
N1836 S1835 1.613 . S
N1836 C1839 1.350 . S
N1837 S1835 1.610 . S
N1837 C1838 1.351 . S
C1838 C1832 1.428 . S
C1838 N1837 1.351 . S
C1838 C1839 1.434 . S
C1839 C1830 1.429 . S
C1839 N1836 1.350 . S
C1839 C1838 1.434 . S
C1840 C1841 1.369 . S
C1840 C1842 1.419 . S
C1840 H1844 0.930 . S
C1841 C1840 1.369 . S
C1841 C1850 1.429 . S
C1842 C1840 1.419 . S
C1842 C1843 1.363 . S
C1842 H1845 0.929 . S
C1843 C1842 1.363 . S
C1843 C1849 1.428 . S
H1844 C1840 0.930 . S
H1845 C1842 0.929 . S
S1846 N1847 1.613 . S
S1846 N1848 1.610 . S
N1847 S1846 1.613 . S
N1847 C1850 1.350 . S
N1848 S1846 1.610 . S
N1848 C1849 1.351 . S
C1849 C1843 1.428 . S
C1849 N1848 1.351 . S
C1849 C1850 1.434 . S
C1850 C1841 1.429 . S
C1850 N1847 1.350 . S
C1850 C1849 1.434 . S
C1851 C1852 1.369 . S
C1851 C1853 1.419 . S
C1851 H1855 0.930 . S
C1852 C1851 1.369 . S
C1852 C1861 1.429 . S
C1853 C1851 1.419 . S
C1853 C1854 1.363 . S
C1853 H1856 0.929 . S
C1854 C1853 1.363 . S
C1854 C1860 1.428 . S
H1855 C1851 0.930 . S
H1856 C1853 0.929 . S
S1857 N1858 1.613 . S
S1857 N1859 1.610 . S
N1858 S1857 1.613 . S
N1858 C1861 1.350 . S
N1859 S1857 1.610 . S
N1859 C1860 1.351 . S
C1860 C1854 1.428 . S
C1860 N1859 1.351 . S
C1860 C1861 1.434 . S
C1861 C1852 1.429 . S
C1861 N1858 1.350 . S
C1861 C1860 1.434 . S
C1862 C1863 1.369 . S
C1862 C1864 1.419 . S
C1862 H1866 0.930 . S
C1863 C1862 1.369 . S
C1863 C1872 1.429 . S
C1864 C1862 1.419 . S
C1864 C1865 1.363 . S
C1864 H1867 0.929 . S
C1865 C1864 1.363 . S
C1865 C1871 1.428 . S
H1866 C1862 0.930 . S
H1867 C1864 0.929 . S
S1868 N1869 1.613 . S
S1868 N1870 1.610 . S
N1869 S1868 1.613 . S
N1869 C1872 1.350 . S
N1870 S1868 1.610 . S
N1870 C1871 1.351 . S
C1871 C1865 1.428 . S
C1871 N1870 1.351 . S
C1871 C1872 1.434 . S
C1872 C1863 1.429 . S
C1872 N1869 1.350 . S
C1872 C1871 1.434 . S
C1873 C1874 1.369 . S
C1873 C1875 1.419 . S
C1873 H1877 0.930 . S
C1874 C1873 1.369 . S
C1874 C1883 1.429 . S
C1875 C1873 1.419 . S
C1875 C1876 1.363 . S
C1875 H1878 0.929 . S
C1876 C1875 1.363 . S
C1876 C1882 1.428 . S
H1877 C1873 0.930 . S
H1878 C1875 0.929 . S
S1879 N1880 1.613 . S
S1879 N1881 1.610 . S
N1880 S1879 1.613 . S
N1880 C1883 1.350 . S
N1881 S1879 1.610 . S
N1881 C1882 1.351 . S
C1882 C1876 1.428 . S
C1882 N1881 1.351 . S
C1882 C1883 1.434 . S
C1883 C1874 1.429 . S
C1883 N1880 1.350 . S
C1883 C1882 1.434 . S
C1884 C1885 1.369 . S
C1884 C1886 1.419 . S
C1884 H1888 0.930 . S
C1885 C1884 1.369 . S
C1885 C1894 1.429 . S
C1886 C1884 1.419 . S
C1886 C1887 1.363 . S
C1886 H1889 0.929 . S
C1887 C1886 1.363 . S
C1887 C1893 1.428 . S
H1888 C1884 0.930 . S
H1889 C1886 0.929 . S
S1890 N1891 1.613 . S
S1890 N1892 1.610 . S
N1891 S1890 1.613 . S
N1891 C1894 1.350 . S
N1892 S1890 1.610 . S
N1892 C1893 1.351 . S
C1893 C1887 1.428 . S
C1893 N1892 1.351 . S
C1893 C1894 1.434 . S
C1894 C1885 1.429 . S
C1894 N1891 1.350 . S
C1894 C1893 1.434 . S
C1895 C1896 1.369 . S
C1895 C1897 1.419 . S
C1895 H1899 0.930 . S
C1896 C1895 1.369 . S
C1896 C1905 1.429 . S
C1897 C1895 1.419 . S
C1897 C1898 1.363 . S
C1897 H1900 0.929 . S
C1898 C1897 1.363 . S
C1898 C1904 1.428 . S
H1899 C1895 0.930 . S
H1900 C1897 0.929 . S
S1901 N1902 1.613 . S
S1901 N1903 1.610 . S
N1902 S1901 1.613 . S
N1902 C1905 1.350 . S
N1903 S1901 1.610 . S
N1903 C1904 1.351 . S
C1904 C1898 1.428 . S
C1904 N1903 1.351 . S
C1904 C1905 1.434 . S
C1905 C1896 1.429 . S
C1905 N1902 1.350 . S
C1905 C1904 1.434 . S
C1906 C1907 1.369 . S
C1906 C1908 1.419 . S
C1906 H1910 0.930 . S
C1907 C1906 1.369 . S
C1907 C1916 1.429 . S
C1908 C1906 1.419 . S
C1908 C1909 1.363 . S
C1908 H1911 0.929 . S
C1909 C1908 1.363 . S
C1909 C1915 1.428 . S
H1910 C1906 0.930 . S
H1911 C1908 0.929 . S
S1912 N1913 1.613 . S
S1912 N1914 1.610 . S
N1913 S1912 1.613 . S
N1913 C1916 1.350 . S
N1914 S1912 1.610 . S
N1914 C1915 1.351 . S
C1915 C1909 1.428 . S
C1915 N1914 1.351 . S
C1915 C1916 1.434 . S
C1916 C1907 1.429 . S
C1916 N1913 1.350 . S
C1916 C1915 1.434 . S
C1917 C1918 1.369 . S
C1917 C1919 1.419 . S
C1917 H1921 0.930 . S
C1918 C1917 1.369 . S
C1918 C1927 1.429 . S
C1919 C1917 1.419 . S
C1919 C1920 1.363 . S
C1919 H1922 0.929 . S
C1920 C1919 1.363 . S
C1920 C1926 1.428 . S
H1921 C1917 0.930 . S
H1922 C1919 0.929 . S
S1923 N1924 1.613 . S
S1923 N1925 1.610 . S
N1924 S1923 1.613 . S
N1924 C1927 1.350 . S
N1925 S1923 1.610 . S
N1925 C1926 1.351 . S
C1926 C1920 1.428 . S
C1926 N1925 1.351 . S
C1926 C1927 1.434 . S
C1927 C1918 1.429 . S
C1927 N1924 1.350 . S
C1927 C1926 1.434 . S
C1928 C1929 1.369 . S
C1928 C1930 1.419 . S
C1928 H1932 0.930 . S
C1929 C1928 1.369 . S
C1929 C1938 1.429 . S
C1930 C1928 1.419 . S
C1930 C1931 1.363 . S
C1930 H1933 0.929 . S
C1931 C1930 1.363 . S
C1931 C1937 1.428 . S
H1932 C1928 0.930 . S
H1933 C1930 0.929 . S
S1934 N1935 1.613 . S
S1934 N1936 1.610 . S
N1935 S1934 1.613 . S
N1935 C1938 1.350 . S
N1936 S1934 1.610 . S
N1936 C1937 1.351 . S
C1937 C1931 1.428 . S
C1937 N1936 1.351 . S
C1937 C1938 1.434 . S
C1938 C1929 1.429 . S
C1938 N1935 1.350 . S
C1938 C1937 1.434 . S
C1939 C1940 1.369 . S
C1939 C1941 1.419 . S
C1939 H1943 0.930 . S
C1940 C1939 1.369 . S
C1940 C1949 1.429 . S
C1941 C1939 1.419 . S
C1941 C1942 1.363 . S
C1941 H1944 0.929 . S
C1942 C1941 1.363 . S
C1942 C1948 1.428 . S
H1943 C1939 0.930 . S
H1944 C1941 0.929 . S
S1945 N1946 1.613 . S
S1945 N1947 1.610 . S
N1946 S1945 1.613 . S
N1946 C1949 1.350 . S
N1947 S1945 1.610 . S
N1947 C1948 1.351 . S
C1948 C1942 1.428 . S
C1948 N1947 1.351 . S
C1948 C1949 1.434 . S
C1949 C1940 1.429 . S
C1949 N1946 1.350 . S
C1949 C1948 1.434 . S
C1950 C1951 1.369 . S
C1950 C1952 1.419 1_455 S
C1950 H1954 0.930 . S
C1951 C1950 1.369 . S
C1951 C1960 1.429 . S
C1952 C1950 1.419 1_655 S
C1952 C1953 1.363 . S
C1952 H1955 0.929 . S
C1953 C1952 1.363 . S
C1953 C1959 1.428 . S
H1954 C1950 0.930 . S
H1955 C1952 0.929 . S
S1956 N1957 1.613 1_655 S
S1956 N1958 1.610 . S
N1957 S1956 1.613 1_455 S
N1957 C1960 1.350 . S
N1958 S1956 1.610 . S
N1958 C1959 1.351 . S
C1959 C1953 1.428 . S
C1959 N1958 1.351 . S
C1959 C1960 1.434 1_655 S
C1960 C1951 1.429 . S
C1960 N1957 1.350 . S
C1960 C1959 1.434 1_455 S
C1961 C1962 1.369 . S
C1961 C1963 1.419 . S
C1961 H1965 0.930 . S
C1962 C1961 1.369 . S
C1962 C1971 1.429 . S
C1963 C1961 1.419 . S
C1963 C1964 1.363 . S
C1963 H1966 0.929 . S
C1964 C1963 1.363 . S
C1964 C1970 1.428 . S
H1965 C1961 0.930 . S
H1966 C1963 0.929 . S
S1967 N1968 1.613 . S
S1967 N1969 1.610 . S
N1968 S1967 1.613 . S
N1968 C1971 1.350 . S
N1969 S1967 1.610 . S
N1969 C1970 1.351 . S
C1970 C1964 1.428 . S
C1970 N1969 1.351 . S
C1970 C1971 1.434 . S
C1971 C1962 1.429 . S
C1971 N1968 1.350 . S
C1971 C1970 1.434 . S
C1972 C1973 1.369 . S
C1972 C1974 1.419 1_565 S
C1972 H1976 0.930 . S
C1973 C1972 1.369 . S
C1973 C1982 1.429 . S
C1974 C1972 1.419 1_545 S
C1974 C1975 1.363 . S
C1974 H1977 0.929 . S
C1975 C1974 1.363 . S
C1975 C1981 1.428 . S
H1976 C1972 0.930 . S
H1977 C1974 0.929 . S
S1978 N1979 1.613 1_545 S
S1978 N1980 1.610 . S
N1979 S1978 1.613 1_565 S
N1979 C1982 1.350 . S
N1980 S1978 1.610 . S
N1980 C1981 1.351 . S
C1981 C1975 1.428 . S
C1981 N1980 1.351 . S
C1981 C1982 1.434 1_545 S
C1982 C1973 1.429 . S
C1982 N1979 1.350 . S
C1982 C1981 1.434 1_565 S
C1983 C1984 1.369 . S
C1983 C1985 1.419 1_545 S
C1983 H1987 0.930 . S
C1984 C1983 1.369 . S
C1984 C1993 1.429 . S
C1985 C1983 1.419 1_565 S
C1985 C1986 1.363 . S
C1985 H1988 0.929 . S
C1986 C1985 1.363 . S
C1986 C1992 1.428 . S
H1987 C1983 0.930 . S
H1988 C1985 0.929 . S
S1989 N1990 1.613 1_565 S
S1989 N1991 1.610 . S
N1990 S1989 1.613 1_545 S
N1990 C1993 1.350 . S
N1991 S1989 1.610 . S
N1991 C1992 1.351 . S
C1992 C1986 1.428 . S
C1992 N1991 1.351 . S
C1992 C1993 1.434 1_565 S
C1993 C1984 1.429 . S
C1993 N1990 1.350 . S
C1993 C1992 1.434 1_545 S
C1994 C1995 1.369 . S
C1994 C1996 1.419 1_655 S
C1994 H1998 0.930 . S
C1995 C1994 1.369 . S
C1995 C2004 1.429 . S
C1996 C1994 1.419 1_455 S
C1996 C1997 1.363 . S
C1996 H1999 0.929 . S
C1997 C1996 1.363 . S
C1997 C2003 1.428 . S
H1998 C1994 0.930 . S
H1999 C1996 0.929 . S
S2000 N2001 1.613 1_455 S
S2000 N2002 1.610 . S
N2001 S2000 1.613 1_655 S
N2001 C2004 1.350 . S
N2002 S2000 1.610 . S
N2002 C2003 1.351 . S
C2003 C1997 1.428 . S
C2003 N2002 1.351 . S
C2003 C2004 1.434 1_455 S
C2004 C1995 1.429 . S
C2004 N2001 1.350 . S
C2004 C2003 1.434 1_655 S
C2005 C2006 1.369 . S
C2005 C2007 1.419 . S
C2005 H2009 0.930 . S
C2006 C2005 1.369 . S
C2006 C2015 1.429 . S
C2007 C2005 1.419 . S
C2007 C2008 1.363 . S
C2007 H2010 0.929 . S
C2008 C2007 1.363 . S
C2008 C2014 1.428 . S
H2009 C2005 0.930 . S
H2010 C2007 0.929 . S
S2011 N2012 1.613 . S
S2011 N2013 1.610 . S
N2012 S2011 1.613 . S
N2012 C2015 1.350 . S
N2013 S2011 1.610 . S
N2013 C2014 1.351 . S
C2014 C2008 1.428 . S
C2014 N2013 1.351 . S
C2014 C2015 1.434 . S
C2015 C2006 1.429 . S
C2015 N2012 1.350 . S
C2015 C2014 1.434 . S
C2016 C2017 1.369 . S
C2016 C2018 1.419 . S
C2016 H2020 0.930 . S
C2017 C2016 1.369 . S
C2017 C2026 1.429 . S
C2018 C2016 1.419 . S
C2018 C2019 1.363 . S
C2018 H2021 0.929 . S
C2019 C2018 1.363 . S
C2019 C2025 1.428 . S
H2020 C2016 0.930 . S
H2021 C2018 0.929 . S
S2022 N2023 1.613 . S
S2022 N2024 1.610 . S
N2023 S2022 1.613 . S
N2023 C2026 1.350 . S
N2024 S2022 1.610 . S
N2024 C2025 1.351 . S
C2025 C2019 1.428 . S
C2025 N2024 1.351 . S
C2025 C2026 1.434 . S
C2026 C2017 1.429 . S
C2026 N2023 1.350 . S
C2026 C2025 1.434 . S
C2027 C2028 1.369 . S
C2027 C2029 1.419 . S
C2027 H2031 0.930 . S
C2028 C2027 1.369 . S
C2028 C2037 1.429 . S
C2029 C2027 1.419 . S
C2029 C2030 1.363 . S
C2029 H2032 0.929 . S
C2030 C2029 1.363 . S
C2030 C2036 1.428 . S
H2031 C2027 0.930 . S
H2032 C2029 0.929 . S
S2033 N2034 1.613 . S
S2033 N2035 1.610 . S
N2034 S2033 1.613 . S
N2034 C2037 1.350 . S
N2035 S2033 1.610 . S
N2035 C2036 1.351 . S
C2036 C2030 1.428 . S
C2036 N2035 1.351 . S
C2036 C2037 1.434 . S
C2037 C2028 1.429 . S
C2037 N2034 1.350 . S
C2037 C2036 1.434 . S
C2038 C2039 1.369 . S
C2038 C2040 1.419 . S
C2038 H2042 0.930 . S
C2039 C2038 1.369 . S
C2039 C2048 1.429 . S
C2040 C2038 1.419 . S
C2040 C2041 1.363 . S
C2040 H2043 0.929 . S
C2041 C2040 1.363 . S
C2041 C2047 1.428 . S
H2042 C2038 0.930 . S
H2043 C2040 0.929 . S
S2044 N2045 1.613 . S
S2044 N2046 1.610 . S
N2045 S2044 1.613 . S
N2045 C2048 1.350 . S
N2046 S2044 1.610 . S
N2046 C2047 1.351 . S
C2047 C2041 1.428 . S
C2047 N2046 1.351 . S
C2047 C2048 1.434 . S
C2048 C2039 1.429 . S
C2048 N2045 1.350 . S
C2048 C2047 1.434 . S
C2049 C2050 1.369 . S
C2049 C2051 1.419 . S
C2049 H2053 0.930 . S
C2050 C2049 1.369 . S
C2050 C2059 1.429 . S
C2051 C2049 1.419 . S
C2051 C2052 1.363 . S
C2051 H2054 0.929 . S
C2052 C2051 1.363 . S
C2052 C2058 1.428 . S
H2053 C2049 0.930 . S
H2054 C2051 0.929 . S
S2055 N2056 1.613 . S
S2055 N2057 1.610 . S
N2056 S2055 1.613 . S
N2056 C2059 1.350 . S
N2057 S2055 1.610 . S
N2057 C2058 1.351 . S
C2058 C2052 1.428 . S
C2058 N2057 1.351 . S
C2058 C2059 1.434 . S
C2059 C2050 1.429 . S
C2059 N2056 1.350 . S
C2059 C2058 1.434 . S
C2060 C2061 1.369 . S
C2060 C2062 1.419 . S
C2060 H2064 0.930 . S
C2061 C2060 1.369 . S
C2061 C2070 1.429 . S
C2062 C2060 1.419 . S
C2062 C2063 1.363 . S
C2062 H2065 0.929 . S
C2063 C2062 1.363 . S
C2063 C2069 1.428 . S
H2064 C2060 0.930 . S
H2065 C2062 0.929 . S
S2066 N2067 1.613 . S
S2066 N2068 1.610 . S
N2067 S2066 1.613 . S
N2067 C2070 1.350 . S
N2068 S2066 1.610 . S
N2068 C2069 1.351 . S
C2069 C2063 1.428 . S
C2069 N2068 1.351 . S
C2069 C2070 1.434 . S
C2070 C2061 1.429 . S
C2070 N2067 1.350 . S
C2070 C2069 1.434 . S
C2071 C2072 1.369 . S
C2071 C2073 1.419 . S
C2071 H2075 0.930 . S
C2072 C2071 1.369 . S
C2072 C2081 1.429 . S
C2073 C2071 1.419 . S
C2073 C2074 1.363 . S
C2073 H2076 0.929 . S
C2074 C2073 1.363 . S
C2074 C2080 1.428 . S
H2075 C2071 0.930 . S
H2076 C2073 0.929 . S
S2077 N2078 1.613 . S
S2077 N2079 1.610 . S
N2078 S2077 1.613 . S
N2078 C2081 1.350 . S
N2079 S2077 1.610 . S
N2079 C2080 1.351 . S
C2080 C2074 1.428 . S
C2080 N2079 1.351 . S
C2080 C2081 1.434 . S
C2081 C2072 1.429 . S
C2081 N2078 1.350 . S
C2081 C2080 1.434 . S
C2082 C2083 1.369 . S
C2082 C2084 1.419 . S
C2082 H2086 0.930 . S
C2083 C2082 1.369 . S
C2083 C2092 1.429 . S
C2084 C2082 1.419 . S
C2084 C2085 1.363 . S
C2084 H2087 0.929 . S
C2085 C2084 1.363 . S
C2085 C2091 1.428 . S
H2086 C2082 0.930 . S
H2087 C2084 0.929 . S
S2088 N2089 1.613 . S
S2088 N2090 1.610 . S
N2089 S2088 1.613 . S
N2089 C2092 1.350 . S
N2090 S2088 1.610 . S
N2090 C2091 1.351 . S
C2091 C2085 1.428 . S
C2091 N2090 1.351 . S
C2091 C2092 1.434 . S
C2092 C2083 1.429 . S
C2092 N2089 1.350 . S
C2092 C2091 1.434 . S
C2093 C2094 1.369 . S
C2093 C2095 1.419 . S
C2093 H2097 0.930 . S
C2094 C2093 1.369 . S
C2094 C2103 1.429 . S
C2095 C2093 1.419 . S
C2095 C2096 1.363 . S
C2095 H2098 0.929 . S
C2096 C2095 1.363 . S
C2096 C2102 1.428 . S
H2097 C2093 0.930 . S
H2098 C2095 0.929 . S
S2099 N2100 1.613 . S
S2099 N2101 1.610 . S
N2100 S2099 1.613 . S
N2100 C2103 1.350 . S
N2101 S2099 1.610 . S
N2101 C2102 1.351 . S
C2102 C2096 1.428 . S
C2102 N2101 1.351 . S
C2102 C2103 1.434 . S
C2103 C2094 1.429 . S
C2103 N2100 1.350 . S
C2103 C2102 1.434 . S
C2104 C2105 1.369 . S
C2104 C2106 1.419 . S
C2104 H2108 0.930 . S
C2105 C2104 1.369 . S
C2105 C2114 1.429 . S
C2106 C2104 1.419 . S
C2106 C2107 1.363 . S
C2106 H2109 0.929 . S
C2107 C2106 1.363 . S
C2107 C2113 1.428 . S
H2108 C2104 0.930 . S
H2109 C2106 0.929 . S
S2110 N2111 1.613 . S
S2110 N2112 1.610 . S
N2111 S2110 1.613 . S
N2111 C2114 1.350 . S
N2112 S2110 1.610 . S
N2112 C2113 1.351 . S
C2113 C2107 1.428 . S
C2113 N2112 1.351 . S
C2113 C2114 1.434 . S
C2114 C2105 1.429 . S
C2114 N2111 1.350 . S
C2114 C2113 1.434 . S
C2115 C2116 1.369 . S
C2115 C2117 1.419 . S
C2115 H2119 0.930 . S
C2116 C2115 1.369 . S
C2116 C2125 1.429 . S
C2117 C2115 1.419 . S
C2117 C2118 1.363 . S
C2117 H2120 0.929 . S
C2118 C2117 1.363 . S
C2118 C2124 1.428 . S
H2119 C2115 0.930 . S
H2120 C2117 0.929 . S
S2121 N2122 1.613 . S
S2121 N2123 1.610 . S
N2122 S2121 1.613 . S
N2122 C2125 1.350 . S
N2123 S2121 1.610 . S
N2123 C2124 1.351 . S
C2124 C2118 1.428 . S
C2124 N2123 1.351 . S
C2124 C2125 1.434 . S
C2125 C2116 1.429 . S
C2125 N2122 1.350 . S
C2125 C2124 1.434 . S
C2126 C2127 1.369 . S
C2126 C2128 1.419 . S
C2126 H2130 0.930 . S
C2127 C2126 1.369 . S
C2127 C2136 1.429 . S
C2128 C2126 1.419 . S
C2128 C2129 1.363 . S
C2128 H2131 0.929 . S
C2129 C2128 1.363 . S
C2129 C2135 1.428 . S
H2130 C2126 0.930 . S
H2131 C2128 0.929 . S
S2132 N2133 1.613 . S
S2132 N2134 1.610 . S
N2133 S2132 1.613 . S
N2133 C2136 1.350 . S
N2134 S2132 1.610 . S
N2134 C2135 1.351 . S
C2135 C2129 1.428 . S
C2135 N2134 1.351 . S
C2135 C2136 1.434 . S
C2136 C2127 1.429 . S
C2136 N2133 1.350 . S
C2136 C2135 1.434 . S
C2137 C2138 1.369 . S
C2137 C2139 1.419 . S
C2137 H2141 0.930 . S
C2138 C2137 1.369 . S
C2138 C2147 1.429 . S
C2139 C2137 1.419 . S
C2139 C2140 1.363 . S
C2139 H2142 0.929 . S
C2140 C2139 1.363 . S
C2140 C2146 1.428 . S
H2141 C2137 0.930 . S
H2142 C2139 0.929 . S
S2143 N2144 1.613 . S
S2143 N2145 1.610 . S
N2144 S2143 1.613 . S
N2144 C2147 1.350 . S
N2145 S2143 1.610 . S
N2145 C2146 1.351 . S
C2146 C2140 1.428 . S
C2146 N2145 1.351 . S
C2146 C2147 1.434 . S
C2147 C2138 1.429 . S
C2147 N2144 1.350 . S
C2147 C2146 1.434 . S
C2148 C2149 1.369 . S
C2148 C2150 1.419 . S
C2148 H2152 0.930 . S
C2149 C2148 1.369 . S
C2149 C2158 1.429 . S
C2150 C2148 1.419 . S
C2150 C2151 1.363 . S
C2150 H2153 0.929 . S
C2151 C2150 1.363 . S
C2151 C2157 1.428 . S
H2152 C2148 0.930 . S
H2153 C2150 0.929 . S
S2154 N2155 1.613 . S
S2154 N2156 1.610 . S
N2155 S2154 1.613 . S
N2155 C2158 1.350 . S
N2156 S2154 1.610 . S
N2156 C2157 1.351 . S
C2157 C2151 1.428 . S
C2157 N2156 1.351 . S
C2157 C2158 1.434 . S
C2158 C2149 1.429 . S
C2158 N2155 1.350 . S
C2158 C2157 1.434 . S
C2159 C2160 1.395 . S
C2159 C2161 1.395 1_545 S
C2159 H2163 0.929 . S
C2160 C2159 1.395 . S
C2160 C2169 1.429 . S
C2161 C2159 1.395 1_565 S
C2161 C2162 1.363 . S
C2161 H2164 0.929 . S
C2162 C2161 1.363 . S
C2162 C2168 1.417 1_565 S
H2163 C2159 0.929 . S
H2164 C2161 0.929 . S
S2165 N2166 1.613 . S
S2165 N2167 1.610 . S
N2166 S2165 1.613 . S
N2166 C2169 1.350 . S
N2167 S2165 1.610 . S
N2167 C2168 1.353 . S
C2168 C2162 1.417 1_545 S
C2168 N2167 1.353 . S
C2168 C2169 1.445 . S
C2169 C2160 1.429 . S
C2169 N2166 1.350 . S
C2169 C2168 1.445 . S
C2170 C2171 1.369 1_455 S
C2170 C2172 1.419 . S
C2170 H2174 0.930 . S
C2171 C2170 1.369 1_655 S
C2171 C2180 1.429 . S
C2172 C2170 1.419 . S
C2172 C2173 1.363 . S
C2172 H2175 0.929 . S
C2173 C2172 1.363 . S
C2173 C2179 1.428 1_455 S
H2174 C2170 0.930 . S
H2175 C2172 0.929 . S
S2176 N2177 1.613 . S
S2176 N2178 1.610 . S
N2177 S2176 1.613 . S
N2177 C2180 1.350 . S
N2178 S2176 1.610 . S
N2178 C2179 1.351 . S
C2179 C2173 1.428 1_655 S
C2179 N2178 1.351 . S
C2179 C2180 1.434 . S
C2180 C2171 1.429 . S
C2180 N2177 1.350 . S
C2180 C2179 1.434 . S
C2181 C2182 1.369 . S
C2181 C2183 1.419 1_556 S
C2181 H2185 0.930 . S
C2182 C2181 1.369 . S
C2182 C2191 1.429 . S
C2183 C2181 1.419 1_554 S
C2183 C2184 1.363 . S
C2183 H2186 0.929 . S
C2184 C2183 1.363 . S
C2184 C2190 1.428 . S
H2185 C2181 0.930 . S
H2186 C2183 0.929 . S
S2187 N2188 1.613 1_554 S
S2187 N2189 1.610 . S
N2188 S2187 1.613 1_556 S
N2188 C2191 1.350 . S
N2189 S2187 1.610 . S
N2189 C2190 1.351 . S
C2190 C2184 1.428 . S
C2190 N2189 1.351 . S
C2190 C2191 1.434 1_554 S
C2191 C2182 1.429 . S
C2191 N2188 1.350 . S
C2191 C2190 1.434 1_556 S
C2192 C2193 1.374 1_554 S
C2192 C2194 1.418 1_545 S
C2192 H2196 0.912 1_545 S
C2193 C2192 1.374 1_556 S
C2193 C2202 1.429 . S
C2194 C2192 1.418 1_565 S
C2194 C2195 1.363 . S
C2194 H2197 0.929 . S
C2195 C2194 1.363 . S
C2195 C2201 1.404 1_564 S
H2196 C2192 0.912 1_565 S
H2197 C2194 0.929 . S
S2198 N2199 1.613 . S
S2198 N2200 1.610 . S
N2199 S2198 1.613 . S
N2199 C2202 1.350 . S
N2200 S2198 1.610 . S
N2200 C2201 1.373 . S
C2201 C2195 1.404 1_546 S
C2201 N2200 1.373 . S
C2201 C2202 1.440 . S
C2202 C2193 1.429 . S
C2202 N2199 1.350 . S
C2202 C2201 1.440 . S
C2203 C2204 1.369 . S
C2203 C2205 1.419 1_554 S
C2203 H2207 0.930 . S
C2204 C2203 1.369 . S
C2204 C2213 1.429 1_455 S
C2205 C2203 1.419 1_556 S
C2205 C2206 1.363 1_455 S
C2205 H2208 0.929 . S
C2206 C2205 1.363 1_655 S
C2206 C2212 1.428 . S
H2207 C2203 0.930 . S
H2208 C2205 0.929 . S
S2209 N2210 1.622 . S
S2209 N2211 1.610 . S
N2210 S2209 1.622 . S
N2210 C2213 1.349 1_556 S
N2211 S2209 1.610 . S
N2211 C2212 1.351 . S
C2212 C2206 1.428 . S
C2212 N2211 1.351 . S
C2212 C2213 1.434 1_556 S
C2213 C2204 1.429 1_655 S
C2213 N2210 1.349 1_554 S
C2213 C2212 1.434 1_554 S
C1225 C9 1.427 . S
C1227 C70 1.621 . S
C1236 C43 1.422 . S
C1238 C2 1.621 . S
C1247 C77 1.432 . S
C1249 C36 1.620 . S
C1258 C111 1.418 . S
C1260 C138 1.623 . S
C1269 C145 1.421 . S
C1271 C172 1.621 . S
C1280 C179 1.419 . S
C1282 C104 1.623 . S
C1291 C274 1.623 . S
C1293 C213 1.424 . S
C1302 C206 1.618 . S
C1304 C247 1.428 . S
C1313 C240 1.621 . S
C1315 C281 1.428 . S
C1324 C342 1.623 . S
C1326 C315 1.420 . S
C1335 C349 1.419 . S
C1337 C376 1.623 . S
C1346 C308 1.618 . S
C1348 C383 1.432 . S
C1357 C417 1.423 . S
C1359 C478 1.622 . S
C1368 C410 1.621 . S
C1370 C451 1.423 . S
C1379 C485 1.431 . S
C1381 C444 1.618 . S
C1390 C519 1.419 . S
C1392 C546 1.623 . S
C1401 C553 1.421 . S
C1403 C580 1.623 . S
C1412 C587 1.420 . S
C1414 C512 1.623 . S
C1423 C682 1.620 . S
C1425 C621 1.423 . S
C1434 C655 1.430 . S
C1436 C614 1.618 . S
C1445 C648 1.623 . S
C1447 C689 1.422 . S
C1456 C723 1.418 . S
C1458 C750 1.622 . S
C1467 C757 1.430 . S
C1469 C784 1.621 . S
C1478 C791 1.434 . S
C1480 C716 1.618 . S
C1489 C825 1.426 . S
C1491 C886 1.619 . S
C1500 C818 1.619 . S
C1502 C859 1.426 . S
C1511 C852 1.623 . S
C1513 C893 1.420 . S
C1522 C954 1.623 . S
C1524 C927 1.420 . S
C1533 C988 1.621 . S
C1535 C961 1.423 . S
C1544 C920 1.619 . S
C1546 C995 1.426 . S
C1555 C1090 1.619 . S
C1557 C1029 1.431 . S
C1566 C1022 1.618 . S
C1568 C1063 1.432 . S
C1577 C1097 1.430 . S
C1579 C1056 1.618 . S
C1588 C1158 1.622 . S
C1590 C1131 1.426 . S
C1599 C1192 1.623 . S
C1601 C1165 1.420 . S
C1610 C1124 1.623 . S
C1612 C1199 1.420 . S
C1621 C169 1.254 . S
C1623 C33 1.255 . S
C1632 C203 1.255 . S
C1634 C67 1.255 . S
C1643 C101 1.253 . S
C1645 C135 1.255 . S
C1654 C373 1.253 . S
C1656 C237 1.253 . S
C1665 C271 1.255 . S
C1667 C407 1.255 . S
C1676 C305 1.253 . S
C1678 C339 1.255 . S
C1687 C441 1.256 . S
C1689 C577 1.255 . S
C1698 C611 1.253 . S
C1700 C475 1.254 . S
C1709 C543 1.253 . S
C1711 C509 1.253 . S
C1720 C645 1.253 . S
C1722 C781 1.253 . S
C1731 C679 1.253 . S
C1733 C815 1.255 . S
C1742 C747 1.253 . S
C1744 C713 1.254 . S
C1753 C849 1.253 . S
C1755 C985 1.254 . S
C1764 C883 1.255 . S
C1766 C1019 1.255 . S
C1775 C951 1.255 . S
C1777 C917 1.254 . S
C1786 C1053 1.256 . S
C1788 C1189 1.254 . S
C1797 C1087 1.254 . S
C1799 C1223 1.253 . S
C1808 C1155 1.255 . S
C1810 C1121 1.253 . S
C1819 C1006 1.807 . S
C1821 C20 1.805 . S
C1830 C938 1.807 . S
C1832 C54 1.807 . S
C1841 C88 1.808 . S
C1843 C972 1.806 . S
C1852 C122 1.808 . S
C1854 C462 1.807 . S
C1863 C496 1.807 . S
C1865 C156 1.806 . S
C1874 C190 1.807 . S
C1876 C428 1.805 . S
C1885 C224 1.808 . S
C1887 C802 1.805 . S
C1896 C258 1.805 . S
C1898 C734 1.807 . S
C1907 C768 1.807 . S
C1909 C292 1.808 . S
C1918 C1074 1.808 . S
C1920 C326 1.806 . S
C1929 C360 1.808 . S
C1931 C1108 1.807 . S
C1940 C394 1.805 . S
C1942 C1040 1.807 . S
C1951 C870 1.805 . S
C1953 C530 1.808 . S
C1962 C564 1.806 . S
C1964 C904 1.808 . S
C1973 C836 1.806 . S
C1975 C598 1.808 . S
C1984 C632 1.807 . S
C1986 C1210 1.808 . S
C1995 C666 1.805 . S
C1997 C1142 1.807 . S
C2006 C700 1.805 . S
C2008 C1176 1.808 . S
C2017 C5 1.606 . S
C2019 C617 1.605 . S
C2028 C651 1.601 . S
C2030 C39 1.609 . S
C2039 C685 1.607 . S
C2041 C73 1.604 . S
C2050 C107 1.603 . S
C2052 C1127 1.608 . S
C2061 C1161 1.608 . S
C2063 C141 1.604 . S
C2072 C175 1.609 . S
C2074 C1195 1.602 . S
C2083 C821 1.609 . S
C2085 C209 1.603 . S
C2094 C243 1.609 . S
C2096 C855 1.603 . S
C2105 C277 1.601 . S
C2107 C889 1.609 . S
C2116 C311 1.606 . S
C2118 C515 1.605 . S
C2127 C345 1.601 . S
C2129 C549 1.609 . S
C2138 C583 1.601 . S
C2140 C379 1.609 . S
C2149 C1025 1.601 . S
C2151 C413 1.609 . S
C2160 C447 1.602 . S
C2162 C1059 1.608 . S
C2171 C481 1.602 . S
C2173 C1093 1.608 . S
C2182 C719 1.601 . S
C2184 C923 1.609 . S
C2193 C753 1.602 . S
C2195 C957 1.608 . S
C2204 C991 1.607 . S
C2206 C787 1.604 . S
