# Generated by pormake.
# Topology ulj, (4)-cn, num edge types: 1
# Building blocks:
#     Node 0, Type 0, BuildingBlock: NAWXER_clean_sbu_0, # of connection points: 4
#     Node 1, Type 0, BuildingBlock: NAWXER_clean_sbu_0, # of connection points: 4
#     Node 2, Type 0, BuildingBlock: NAWXER_clean_sbu_0, # of connection points: 4
#     Node 3, Type 0, BuildingBlock: NAWXER_clean_sbu_0, # of connection points: 4
#     Node 4, Type 0, BuildingBlock: NAWXER_clean_sbu_0, # of connection points: 4
#     Node 5, Type 0, BuildingBlock: NAWXER_clean_sbu_0, # of connection points: 4
#     Node 6, Type 0, BuildingBlock: NAWXER_clean_sbu_0, # of connection points: 4
#     Node 7, Type 0, BuildingBlock: NAWXER_clean_sbu_0, # of connection points: 4
#     Node 8, Type 0, BuildingBlock: NAWXER_clean_sbu_0, # of connection points: 4
#     Node 9, Type 0, BuildingBlock: NAWXER_clean_sbu_0, # of connection points: 4
#     Node 10, Type 0, BuildingBlock: NAWXER_clean_sbu_0, # of connection points: 4
#     Node 11, Type 0, BuildingBlock: NAWXER_clean_sbu_0, # of connection points: 4
#     Node 12, Type 0, BuildingBlock: NAWXER_clean_sbu_0, # of connection points: 4
#     Node 13, Type 0, BuildingBlock: NAWXER_clean_sbu_0, # of connection points: 4
#     Node 14, Type 0, BuildingBlock: NAWXER_clean_sbu_0, # of connection points: 4
#     Node 15, Type 0, BuildingBlock: NAWXER_clean_sbu_0, # of connection points: 4
#     Node 16, Type 0, BuildingBlock: NAWXER_clean_sbu_0, # of connection points: 4
#     Node 17, Type 0, BuildingBlock: NAWXER_clean_sbu_0, # of connection points: 4
#     Node 18, Type 0, BuildingBlock: NAWXER_clean_sbu_0, # of connection points: 4
#     Node 19, Type 0, BuildingBlock: NAWXER_clean_sbu_0, # of connection points: 4
#     Node 20, Type 0, BuildingBlock: NAWXER_clean_sbu_0, # of connection points: 4
#     Node 21, Type 0, BuildingBlock: NAWXER_clean_sbu_0, # of connection points: 4
#     Node 22, Type 0, BuildingBlock: NAWXER_clean_sbu_0, # of connection points: 4
#     Node 23, Type 0, BuildingBlock: NAWXER_clean_sbu_0, # of connection points: 4
#     Node 24, Type 0, BuildingBlock: NAWXER_clean_sbu_0, # of connection points: 4
#     Node 25, Type 0, BuildingBlock: NAWXER_clean_sbu_0, # of connection points: 4
#     Node 26, Type 0, BuildingBlock: NAWXER_clean_sbu_0, # of connection points: 4
#     Node 27, Type 0, BuildingBlock: NAWXER_clean_sbu_0, # of connection points: 4
#     Node 28, Type 0, BuildingBlock: NAWXER_clean_sbu_0, # of connection points: 4
#     Node 29, Type 0, BuildingBlock: NAWXER_clean_sbu_0, # of connection points: 4
#     Node 30, Type 0, BuildingBlock: NAWXER_clean_sbu_0, # of connection points: 4
#     Node 31, Type 0, BuildingBlock: NAWXER_clean_sbu_0, # of connection points: 4
#     Node 32, Type 0, BuildingBlock: NAWXER_clean_sbu_0, # of connection points: 4
#     Node 33, Type 0, BuildingBlock: NAWXER_clean_sbu_0, # of connection points: 4
#     Node 34, Type 0, BuildingBlock: NAWXER_clean_sbu_0, # of connection points: 4
#     Node 35, Type 0, BuildingBlock: NAWXER_clean_sbu_0, # of connection points: 4
#     Node 36, Type 0, BuildingBlock: NAWXER_clean_sbu_0, # of connection points: 4
#     Node 37, Type 0, BuildingBlock: NAWXER_clean_sbu_0, # of connection points: 4
#     Node 38, Type 0, BuildingBlock: NAWXER_clean_sbu_0, # of connection points: 4
#     Node 39, Type 0, BuildingBlock: NAWXER_clean_sbu_0, # of connection points: 4
#     Node 40, Type 0, BuildingBlock: NAWXER_clean_sbu_0, # of connection points: 4
#     Node 41, Type 0, BuildingBlock: NAWXER_clean_sbu_0, # of connection points: 4
#     Node 42, Type 0, BuildingBlock: NAWXER_clean_sbu_0, # of connection points: 4
#     Node 43, Type 0, BuildingBlock: NAWXER_clean_sbu_0, # of connection points: 4
#     Node 44, Type 0, BuildingBlock: NAWXER_clean_sbu_0, # of connection points: 4
#     Node 45, Type 0, BuildingBlock: NAWXER_clean_sbu_0, # of connection points: 4
#     Node 46, Type 0, BuildingBlock: NAWXER_clean_sbu_0, # of connection points: 4
#     Node 47, Type 0, BuildingBlock: NAWXER_clean_sbu_0, # of connection points: 4
#     Edge 48, Type (0, 0), BuildingBlock: XUDNAN_clean_linker_2, # of connection points: 2
#     Edge 49, Type (0, 0), BuildingBlock: XUDNAN_clean_linker_2, # of connection points: 2
#     Edge 50, Type (0, 0), BuildingBlock: XUDNAN_clean_linker_2, # of connection points: 2
#     Edge 51, Type (0, 0), BuildingBlock: XUDNAN_clean_linker_2, # of connection points: 2
#     Edge 52, Type (0, 0), BuildingBlock: XUDNAN_clean_linker_2, # of connection points: 2
#     Edge 53, Type (0, 0), BuildingBlock: XUDNAN_clean_linker_2, # of connection points: 2
#     Edge 54, Type (0, 0), BuildingBlock: XUDNAN_clean_linker_2, # of connection points: 2
#     Edge 55, Type (0, 0), BuildingBlock: XUDNAN_clean_linker_2, # of connection points: 2
#     Edge 56, Type (0, 0), BuildingBlock: XUDNAN_clean_linker_2, # of connection points: 2
#     Edge 57, Type (0, 0), BuildingBlock: XUDNAN_clean_linker_2, # of connection points: 2
#     Edge 58, Type (0, 0), BuildingBlock: XUDNAN_clean_linker_2, # of connection points: 2
#     Edge 59, Type (0, 0), BuildingBlock: XUDNAN_clean_linker_2, # of connection points: 2
#     Edge 60, Type (0, 0), BuildingBlock: XUDNAN_clean_linker_2, # of connection points: 2
#     Edge 61, Type (0, 0), BuildingBlock: XUDNAN_clean_linker_2, # of connection points: 2
#     Edge 62, Type (0, 0), BuildingBlock: XUDNAN_clean_linker_2, # of connection points: 2
#     Edge 63, Type (0, 0), BuildingBlock: XUDNAN_clean_linker_2, # of connection points: 2
#     Edge 64, Type (0, 0), BuildingBlock: XUDNAN_clean_linker_2, # of connection points: 2
#     Edge 65, Type (0, 0), BuildingBlock: XUDNAN_clean_linker_2, # of connection points: 2
#     Edge 66, Type (0, 0), BuildingBlock: XUDNAN_clean_linker_2, # of connection points: 2
#     Edge 67, Type (0, 0), BuildingBlock: XUDNAN_clean_linker_2, # of connection points: 2
#     Edge 68, Type (0, 0), BuildingBlock: XUDNAN_clean_linker_2, # of connection points: 2
#     Edge 69, Type (0, 0), BuildingBlock: XUDNAN_clean_linker_2, # of connection points: 2
#     Edge 70, Type (0, 0), BuildingBlock: XUDNAN_clean_linker_2, # of connection points: 2
#     Edge 71, Type (0, 0), BuildingBlock: XUDNAN_clean_linker_2, # of connection points: 2
#     Edge 72, Type (0, 0), BuildingBlock: XUDNAN_clean_linker_2, # of connection points: 2
#     Edge 73, Type (0, 0), BuildingBlock: XUDNAN_clean_linker_2, # of connection points: 2
#     Edge 74, Type (0, 0), BuildingBlock: XUDNAN_clean_linker_2, # of connection points: 2
#     Edge 75, Type (0, 0), BuildingBlock: XUDNAN_clean_linker_2, # of connection points: 2
#     Edge 76, Type (0, 0), BuildingBlock: XUDNAN_clean_linker_2, # of connection points: 2
#     Edge 77, Type (0, 0), BuildingBlock: XUDNAN_clean_linker_2, # of connection points: 2
#     Edge 78, Type (0, 0), BuildingBlock: XUDNAN_clean_linker_2, # of connection points: 2
#     Edge 79, Type (0, 0), BuildingBlock: XUDNAN_clean_linker_2, # of connection points: 2
#     Edge 80, Type (0, 0), BuildingBlock: XUDNAN_clean_linker_2, # of connection points: 2
#     Edge 81, Type (0, 0), BuildingBlock: XUDNAN_clean_linker_2, # of connection points: 2
#     Edge 82, Type (0, 0), BuildingBlock: XUDNAN_clean_linker_2, # of connection points: 2
#     Edge 83, Type (0, 0), BuildingBlock: XUDNAN_clean_linker_2, # of connection points: 2
#     Edge 84, Type (0, 0), BuildingBlock: XUDNAN_clean_linker_2, # of connection points: 2
#     Edge 85, Type (0, 0), BuildingBlock: XUDNAN_clean_linker_2, # of connection points: 2
#     Edge 86, Type (0, 0), BuildingBlock: XUDNAN_clean_linker_2, # of connection points: 2
#     Edge 87, Type (0, 0), BuildingBlock: XUDNAN_clean_linker_2, # of connection points: 2
#     Edge 88, Type (0, 0), BuildingBlock: XUDNAN_clean_linker_2, # of connection points: 2
#     Edge 89, Type (0, 0), BuildingBlock: XUDNAN_clean_linker_2, # of connection points: 2
#     Edge 90, Type (0, 0), BuildingBlock: XUDNAN_clean_linker_2, # of connection points: 2
#     Edge 91, Type (0, 0), BuildingBlock: XUDNAN_clean_linker_2, # of connection points: 2
#     Edge 92, Type (0, 0), BuildingBlock: XUDNAN_clean_linker_2, # of connection points: 2
#     Edge 93, Type (0, 0), BuildingBlock: XUDNAN_clean_linker_2, # of connection points: 2
#     Edge 94, Type (0, 0), BuildingBlock: XUDNAN_clean_linker_2, # of connection points: 2
#     Edge 95, Type (0, 0), BuildingBlock: XUDNAN_clean_linker_2, # of connection points: 2
#     Edge 96, Type (0, 0), BuildingBlock: XUDNAN_clean_linker_2, # of connection points: 2
#     Edge 97, Type (0, 0), BuildingBlock: XUDNAN_clean_linker_2, # of connection points: 2
#     Edge 98, Type (0, 0), BuildingBlock: XUDNAN_clean_linker_2, # of connection points: 2
#     Edge 99, Type (0, 0), BuildingBlock: XUDNAN_clean_linker_2, # of connection points: 2
#     Edge 100, Type (0, 0), BuildingBlock: XUDNAN_clean_linker_2, # of connection points: 2
#     Edge 101, Type (0, 0), BuildingBlock: XUDNAN_clean_linker_2, # of connection points: 2
#     Edge 102, Type (0, 0), BuildingBlock: XUDNAN_clean_linker_2, # of connection points: 2
#     Edge 103, Type (0, 0), BuildingBlock: XUDNAN_clean_linker_2, # of connection points: 2
#     Edge 104, Type (0, 0), BuildingBlock: XUDNAN_clean_linker_2, # of connection points: 2
#     Edge 105, Type (0, 0), BuildingBlock: XUDNAN_clean_linker_2, # of connection points: 2
#     Edge 106, Type (0, 0), BuildingBlock: XUDNAN_clean_linker_2, # of connection points: 2
#     Edge 107, Type (0, 0), BuildingBlock: XUDNAN_clean_linker_2, # of connection points: 2
#     Edge 108, Type (0, 0), BuildingBlock: XUDNAN_clean_linker_2, # of connection points: 2
#     Edge 109, Type (0, 0), BuildingBlock: XUDNAN_clean_linker_2, # of connection points: 2
#     Edge 110, Type (0, 0), BuildingBlock: XUDNAN_clean_linker_2, # of connection points: 2
#     Edge 111, Type (0, 0), BuildingBlock: XUDNAN_clean_linker_2, # of connection points: 2
#     Edge 112, Type (0, 0), BuildingBlock: XUDNAN_clean_linker_2, # of connection points: 2
#     Edge 113, Type (0, 0), BuildingBlock: XUDNAN_clean_linker_2, # of connection points: 2
#     Edge 114, Type (0, 0), BuildingBlock: XUDNAN_clean_linker_2, # of connection points: 2
#     Edge 115, Type (0, 0), BuildingBlock: XUDNAN_clean_linker_2, # of connection points: 2
#     Edge 116, Type (0, 0), BuildingBlock: XUDNAN_clean_linker_2, # of connection points: 2
#     Edge 117, Type (0, 0), BuildingBlock: XUDNAN_clean_linker_2, # of connection points: 2
#     Edge 118, Type (0, 0), BuildingBlock: XUDNAN_clean_linker_2, # of connection points: 2
#     Edge 119, Type (0, 0), BuildingBlock: XUDNAN_clean_linker_2, # of connection points: 2
#     Edge 120, Type (0, 0), BuildingBlock: XUDNAN_clean_linker_2, # of connection points: 2
#     Edge 121, Type (0, 0), BuildingBlock: XUDNAN_clean_linker_2, # of connection points: 2
#     Edge 122, Type (0, 0), BuildingBlock: XUDNAN_clean_linker_2, # of connection points: 2
#     Edge 123, Type (0, 0), BuildingBlock: XUDNAN_clean_linker_2, # of connection points: 2
#     Edge 124, Type (0, 0), BuildingBlock: XUDNAN_clean_linker_2, # of connection points: 2
#     Edge 125, Type (0, 0), BuildingBlock: XUDNAN_clean_linker_2, # of connection points: 2
#     Edge 126, Type (0, 0), BuildingBlock: XUDNAN_clean_linker_2, # of connection points: 2
#     Edge 127, Type (0, 0), BuildingBlock: XUDNAN_clean_linker_2, # of connection points: 2
#     Edge 128, Type (0, 0), BuildingBlock: XUDNAN_clean_linker_2, # of connection points: 2
#     Edge 129, Type (0, 0), BuildingBlock: XUDNAN_clean_linker_2, # of connection points: 2
#     Edge 130, Type (0, 0), BuildingBlock: XUDNAN_clean_linker_2, # of connection points: 2
#     Edge 131, Type (0, 0), BuildingBlock: XUDNAN_clean_linker_2, # of connection points: 2
#     Edge 132, Type (0, 0), BuildingBlock: XUDNAN_clean_linker_2, # of connection points: 2
#     Edge 133, Type (0, 0), BuildingBlock: XUDNAN_clean_linker_2, # of connection points: 2
#     Edge 134, Type (0, 0), BuildingBlock: XUDNAN_clean_linker_2, # of connection points: 2
#     Edge 135, Type (0, 0), BuildingBlock: XUDNAN_clean_linker_2, # of connection points: 2
#     Edge 136, Type (0, 0), BuildingBlock: XUDNAN_clean_linker_2, # of connection points: 2
#     Edge 137, Type (0, 0), BuildingBlock: XUDNAN_clean_linker_2, # of connection points: 2
#     Edge 138, Type (0, 0), BuildingBlock: XUDNAN_clean_linker_2, # of connection points: 2
#     Edge 139, Type (0, 0), BuildingBlock: XUDNAN_clean_linker_2, # of connection points: 2
#     Edge 140, Type (0, 0), BuildingBlock: XUDNAN_clean_linker_2, # of connection points: 2
#     Edge 141, Type (0, 0), BuildingBlock: XUDNAN_clean_linker_2, # of connection points: 2
#     Edge 142, Type (0, 0), BuildingBlock: XUDNAN_clean_linker_2, # of connection points: 2
#     Edge 143, Type (0, 0), BuildingBlock: XUDNAN_clean_linker_2, # of connection points: 2
# Relax obj value: 0.095
# Max RMSD: 0.223
# Mean RMSD: 0.216
data_MOF--net-ulj--node1-NAWXER_clean_sbu_0--edge1-XUDNAN_clean_linker_2
_symmetry_space_group_name_H-M    P1
_symmetry_Int_Tables_number       1
_symmetry_cell_setting            triclinic
loop_
_symmetry_equiv_pos_as_xyz
'x, y, z'
_cell_length_a     64.891479
_cell_length_b     64.90345
_cell_length_c     64.878232
_cell_angle_alpha  89.949831
_cell_angle_beta   90.023711
_cell_angle_gamma 89.977907
loop_
_atom_site_label
_atom_site_type_symbol
_atom_site_fract_x
_atom_site_fract_y
_atom_site_fract_z
_atom_type_partial_charge
C0 C 0.15416 0.24953 0.28578 0.0
C1 C 0.12886 0.19628 0.33088 0.0
O2 O 0.15861 0.25382 0.30462 0.0
Zn3 Zn 0.15424 0.23863 0.33449 0.0
O4 O 0.14438 0.23317 0.2816 0.0
Zn5 Zn 0.14181 0.22357 0.30913 0.0
O6 O 0.12154 0.24608 0.32382 0.0
O7 O 0.13925 0.25837 0.35014 0.0
O8 O 0.12783 0.1981 0.31148 0.0
O9 O 0.13796 0.21019 0.34161 0.0
O10 O 0.18207 0.23365 0.34358 0.0
O11 O 0.17318 0.21541 0.31639 0.0
C12 C 0.12282 0.25804 0.33957 0.0
C13 C 0.18669 0.22051 0.32989 0.0
C14 C 0.52977 0.61608 0.89803 0.0
C15 C 0.47616 0.56936 0.9208 0.0
O16 O 0.52206 0.60047 0.88918 0.0
Zn17 Zn 0.50256 0.59341 0.90974 0.0
O18 O 0.52292 0.62156 0.9158 0.0
Zn19 Zn 0.49929 0.61018 0.93693 0.0
O20 O 0.51455 0.60375 0.96136 0.0
O21 O 0.52166 0.58325 0.93517 0.0
O22 O 0.47948 0.58336 0.93437 0.0
O23 O 0.48614 0.56973 0.904 0.0
O24 O 0.48063 0.61827 0.90807 0.0
O25 O 0.47988 0.63243 0.93894 0.0
C26 C 0.52446 0.58858 0.95402 0.0
C27 C 0.47338 0.63179 0.92051 0.0
C28 C 0.87918 0.22541 0.34361 0.0
C29 C 0.81971 0.27002 0.3347 0.0
O30 O 0.88025 0.23561 0.3267 0.0
Zn31 Zn 0.86183 0.25845 0.31119 0.0
O32 O 0.864 0.2282 0.3556 0.0
Zn33 Zn 0.84963 0.24813 0.33906 0.0
O34 O 0.84001 0.23091 0.31178 0.0
O35 O 0.8559 0.24583 0.2857 0.0
O36 O 0.82355 0.25775 0.34947 0.0
O37 O 0.83256 0.27169 0.31977 0.0
O38 O 0.87895 0.28193 0.30917 0.0
O39 O 0.869 0.27548 0.34107 0.0
C40 C 0.84375 0.23207 0.29236 0.0
C41 C 0.87892 0.2867 0.3281 0.0
C42 C 0.5343 0.9244 0.93421 0.0
C43 C 0.48608 0.87866 0.9009 0.0
O44 O 0.52601 0.92583 0.91657 0.0
Zn45 Zn 0.50994 0.90125 0.91837 0.0
O46 O 0.52986 0.90912 0.94598 0.0
Zn47 Zn 0.50969 0.88253 0.94436 0.0
O48 O 0.52859 0.8604 0.94816 0.0
O49 O 0.53283 0.87659 0.91853 0.0
O50 O 0.49025 0.87201 0.91909 0.0
O51 O 0.49411 0.89532 0.89464 0.0
O52 O 0.48724 0.90953 0.94143 0.0
O53 O 0.49112 0.88722 0.96677 0.0
C54 C 0.53809 0.86227 0.93118 0.0
C55 C 0.48207 0.90286 0.95933 0.0
C56 C 0.11139 0.73353 0.16834 0.0
C57 C 0.17415 0.7723 0.1787 0.0
O58 O 0.10889 0.74695 0.18269 0.0
Zn59 Zn 0.129 0.76859 0.19882 0.0
O60 O 0.12904 0.73093 0.16041 0.0
Zn61 Zn 0.14279 0.75238 0.17488 0.0
O62 O 0.14762 0.73924 0.20519 0.0
O63 O 0.13123 0.75944 0.227 0.0
O64 O 0.1704 0.75813 0.16579 0.0
O65 O 0.16018 0.77759 0.19165 0.0
O66 O 0.1149 0.79388 0.19504 0.0
O67 O 0.12564 0.78016 0.16578 0.0
C68 C 0.14247 0.74383 0.22373 0.0
C69 C 0.11603 0.79448 0.17553 0.0
C70 C 0.01983 0.64626 0.08685 0.0
C71 C 0.97714 0.6008 0.04528 0.0
O72 O 0.01439 0.64854 0.0682 0.0
Zn73 Zn 0.99887 0.62325 0.06587 0.0
O74 O 0.01424 0.63021 0.09689 0.0
Zn75 Zn 0.99577 0.60339 0.09117 0.0
O76 O 0.01454 0.58148 0.09597 0.0
O77 O 0.02183 0.59895 0.06771 0.0
O78 O 0.97934 0.59413 0.06377 0.0
O79 O 0.98601 0.61734 0.03976 0.0
O80 O 0.97304 0.62967 0.08624 0.0
O81 O 0.97433 0.60632 0.11095 0.0
C82 C 0.0258 0.58413 0.08023 0.0
C83 C 0.96576 0.62199 0.10298 0.0
C84 C 0.8073 0.72991 0.16347 0.0
C85 C 0.85897 0.77691 0.1364 0.0
O86 O 0.82246 0.73209 0.17601 0.0
Zn87 Zn 0.85104 0.74948 0.17686 0.0
O88 O 0.80732 0.73973 0.14654 0.0
Zn89 Zn 0.83312 0.75365 0.15062 0.0
O90 O 0.85527 0.72846 0.1491 0.0
O91 O 0.87079 0.72803 0.17941 0.0
O92 O 0.8418 0.77144 0.12885 0.0
O93 O 0.86439 0.77011 0.15418 0.0
O94 O 0.84779 0.76605 0.20074 0.0
O95 O 0.82578 0.77408 0.17615 0.0
C96 C 0.86842 0.72046 0.16156 0.0
C97 C 0.83272 0.7768 0.19449 0.0
C98 C 0.96505 0.86744 0.07696 0.0
C99 C 0.01552 0.91195 0.04449 0.0
O100 O 0.97276 0.86696 0.05903 0.0
Zn101 Zn 0.99127 0.8896 0.06182 0.0
O102 O 0.97133 0.88106 0.08985 0.0
Zn103 Zn 0.99324 0.90634 0.08868 0.0
O104 O 0.97659 0.92957 0.09458 0.0
O105 O 0.97055 0.91628 0.06394 0.0
O106 O 0.01231 0.91744 0.06325 0.0
O107 O 0.00647 0.89614 0.03744 0.0
O108 O 0.01509 0.87888 0.08344 0.0
O109 O 0.01255 0.9004 0.10953 0.0
C110 C 0.96687 0.9301 0.07765 0.0
C111 C 0.02132 0.88511 0.10121 0.0
C112 C 0.31413 0.16425 0.27637 0.0
C113 C 0.34971 0.13969 0.21605 0.0
O114 O 0.33247 0.17179 0.276 0.0
Zn115 Zn 0.35918 0.16849 0.25538 0.0
O116 O 0.30873 0.15159 0.26255 0.0
Zn117 Zn 0.33319 0.15221 0.24694 0.0
O118 O 0.35476 0.135 0.26593 0.0
O119 O 0.38014 0.15666 0.2723 0.0
O120 O 0.33137 0.13707 0.22211 0.0
O121 O 0.36212 0.15078 0.22678 0.0
O122 O 0.36386 0.1966 0.24702 0.0
O123 O 0.3342 0.18401 0.23639 0.0
C124 C 0.37223 0.13892 0.27437 0.0
C125 C 0.34687 0.19916 0.23769 0.0
C126 C 0.37644 0.40172 0.95749 0.0
C127 C 0.4293 0.4085 0.01073 0.0
O128 O 0.39343 0.392 0.95868 0.0
Zn129 Zn 0.4022 0.40385 0.98443 0.0
O130 O 0.37136 0.41453 0.97169 0.0
Zn131 Zn 0.38468 0.42667 0.99985 0.0
O132 O 0.38761 0.45571 0.99311 0.0
O133 O 0.40695 0.43494 0.97428 0.0
O134 O 0.41388 0.42042 0.01389 0.0
O135 O 0.42877 0.39604 0.99566 0.0
O136 O 0.37977 0.39176 0.00567 0.0
O137 O 0.36482 0.41847 0.02036 0.0
C138 C 0.40056 0.4531 0.97863 0.0
C139 C 0.3665 0.39907 0.01835 0.0
C140 C 0.66444 0.3893 0.23814 0.0
C141 C 0.70117 0.34985 0.28972 0.0
O142 O 0.65348 0.37407 0.24445 0.0
Zn143 Zn 0.65685 0.3498 0.26747 0.0
O144 O 0.68153 0.3932 0.24681 0.0
Zn145 Zn 0.68163 0.37055 0.26546 0.0
O146 O 0.68212 0.34526 0.24398 0.0
O147 O 0.65526 0.32528 0.25029 0.0
O148 O 0.70646 0.36634 0.28066 0.0
O149 O 0.6832 0.34225 0.28648 0.0
O150 O 0.63501 0.35493 0.28696 0.0
O151 O 0.65927 0.3786 0.28842 0.0
C152 C 0.67134 0.32925 0.23982 0.0
C153 C 0.64216 0.37125 0.29502 0.0
C154 C 0.56514 0.08907 0.01383 0.0
C155 C 0.6128 0.11053 0.9608 0.0
O156 O 0.56293 0.10146 0.99889 0.0
Zn157 Zn 0.5896 0.09838 0.98734 0.0
O158 O 0.58252 0.0799 0.01636 0.0
Zn159 Zn 0.61224 0.08054 1.00041 0.0
O160 O 0.63019 0.08992 0.02127 0.0
O161 O 0.60922 0.11411 0.00981 0.0
O162 O 0.62196 0.09822 0.97335 0.0
O163 O 0.59373 0.11401 0.96302 0.0
O164 O 0.58994 0.0662 0.97731 0.0
O165 O 0.61673 0.05272 0.99322 0.0
C166 C 0.62404 0.10843 0.02166 0.0
C167 C 0.60151 0.05058 0.98121 0.0
C168 C 0.34338 0.86608 0.27889 0.0
C169 C 0.30124 0.83687 0.22513 0.0
O170 O 0.35497 0.85643 0.26606 0.0
Zn171 Zn 0.3495 0.83854 0.23802 0.0
O172 O 0.32409 0.86657 0.27602 0.0
Zn173 Zn 0.32308 0.8513 0.25132 0.0
O174 O 0.33003 0.82049 0.261 0.0
O175 O 0.35835 0.81065 0.24506 0.0
O176 O 0.29637 0.84819 0.24028 0.0
O177 O 0.32028 0.83214 0.2222 0.0
O178 O 0.36517 0.85371 0.21758 0.0
O179 O 0.33774 0.87043 0.22868 0.0
C180 C 0.34366 0.80666 0.25739 0.0
C181 C 0.35364 0.86953 0.217 0.0
C182 C 0.12826 0.41966 0.04807 0.0
C183 C 0.07029 0.42326 0.99975 0.0
O184 O 0.11141 0.40966 0.04892 0.0
Zn185 Zn 0.09972 0.42024 0.02371 0.0
O186 O 0.1318 0.43157 0.03266 0.0
Zn187 Zn 0.11613 0.44118 0.00467 0.0
O188 O 0.11423 0.47072 0.00875 0.0
O189 O 0.09683 0.45225 0.03156 0.0
O190 O 0.08569 0.43422 0.99402 0.0
O191 O 0.0718 0.41248 0.01604 0.0
O192 O 0.11923 0.4059 0.0013 0.0
O193 O 0.13386 0.43063 0.98318 0.0
C194 C 0.10301 0.46975 0.02479 0.0
C195 C 0.1315 0.41155 0.98688 0.0
C196 C 0.67428 0.59852 0.2833 0.0
C197 C 0.70511 0.64018 0.22923 0.0
O198 O 0.66068 0.60989 0.27452 0.0
Zn199 Zn 0.66026 0.63199 0.24958 0.0
O200 O 0.69273 0.59893 0.27687 0.0
Zn201 Zn 0.68934 0.61896 0.25549 0.0
O202 O 0.68284 0.64685 0.27209 0.0
O203 O 0.65168 0.65709 0.26322 0.0
O204 O 0.71365 0.62699 0.24092 0.0
O205 O 0.68559 0.64331 0.23057 0.0
O206 O 0.6417 0.61964 0.22976 0.0
O207 O 0.67162 0.60363 0.23199 0.0
C208 C 0.6681 0.65991 0.27355 0.0
C209 C 0.65372 0.60543 0.22374 0.0
C210 C 0.92391 0.07905 0.97387 0.0
C211 C 0.88089 0.10739 0.02822 0.0
O212 O 0.92832 0.09289 0.98694 0.0
Zn213 Zn 0.90249 0.09247 0.00162 0.0
O214 O 0.90629 0.07013 0.97467 0.0
Zn215 Zn 0.87915 0.07145 0.99371 0.0
O216 O 0.8583 0.07794 0.97367 0.0
O217 O 0.88023 0.10336 0.97931 0.0
O218 O 0.87166 0.09259 0.01882 0.0
O219 O 0.89921 0.11206 0.02316 0.0
O220 O 0.90358 0.06383 0.01806 0.0
O221 O 0.87852 0.04429 0.00593 0.0
C222 C 0.86425 0.09624 0.97007 0.0
C223 C 0.89371 0.04674 0.01799 0.0
C224 C 0.2209 0.31353 0.16774 0.0
C225 C 0.27051 0.33074 0.11306 0.0
O226 O 0.22288 0.30336 0.15103 0.0
Zn227 Zn 0.24545 0.31998 0.13973 0.0
O228 O 0.23281 0.32881 0.17142 0.0
Zn229 Zn 0.25769 0.34548 0.15831 0.0
O230 O 0.24522 0.37285 0.15515 0.0
O231 O 0.23049 0.34879 0.13599 0.0
O232 O 0.27126 0.34208 0.12913 0.0
O233 O 0.25815 0.3155 0.1125 0.0
O234 O 0.26904 0.31185 0.16039 0.0
O235 O 0.28041 0.33892 0.17748 0.0
C236 C 0.23138 0.36746 0.14228 0.0
C237 C 0.28104 0.31962 0.17393 0.0
C238 C 0.28615 0.68538 0.32598 0.0
C239 C 0.24099 0.63662 0.36301 0.0
O240 O 0.28515 0.66613 0.3222 0.0
Zn241 Zn 0.26422 0.65927 0.34326 0.0
O242 O 0.27503 0.69298 0.34036 0.0
Zn243 Zn 0.25295 0.6848 0.36263 0.0
O244 O 0.26782 0.68997 0.38882 0.0
O245 O 0.28025 0.66384 0.37101 0.0
O246 O 0.23989 0.65547 0.3687 0.0
O247 O 0.25337 0.63146 0.34863 0.0
O248 O 0.23765 0.67467 0.33218 0.0
O249 O 0.22878 0.70036 0.35269 0.0
C250 C 0.28064 0.67516 0.38712 0.0
C251 C 0.22558 0.68966 0.33651 0.0
C252 C 0.89704 0.46576 0.88379 0.0
C253 C 0.92089 0.51541 0.93414 0.0
O254 O 0.88933 0.47164 0.90071 0.0
Zn255 Zn 0.91035 0.49021 0.90892 0.0
O256 O 0.91498 0.47236 0.87856 0.0
Zn257 Zn 0.93732 0.49345 0.89248 0.0
O258 O 0.96123 0.47712 0.8984 0.0
O259 O 0.93566 0.47093 0.91976 0.0
O260 O 0.93465 0.51267 0.92015 0.0
O261 O 0.90406 0.50554 0.93308 0.0
O262 O 0.90973 0.51388 0.88484 0.0
O263 O 0.94099 0.51367 0.8715 0.0
C264 C 0.9544 0.46786 0.91418 0.0
C265 C 0.92291 0.52108 0.87191 0.0
C266 C 0.75632 0.82569 0.31328 0.0
C267 C 0.71174 0.83351 0.37282 0.0
O268 O 0.76069 0.81276 0.3276 0.0
Zn269 Zn 0.74961 0.80505 0.35796 0.0
O270 O 0.7418 0.83852 0.31594 0.0
Zn271 Zn 0.73421 0.82971 0.34322 0.0
O272 O 0.76022 0.8384 0.36176 0.0
O273 O 0.77342 0.81021 0.37538 0.0
O274 O 0.71219 0.84412 0.35638 0.0
O275 O 0.72457 0.81865 0.37529 0.0
O276 O 0.7404 0.77696 0.35414 0.0
O277 O 0.72111 0.79974 0.33782 0.0
C278 C 0.77377 0.82967 0.37322 0.0
C279 C 0.72498 0.78099 0.34274 0.0
C280 C 0.61283 0.52271 0.39934 0.0
C281 C 0.58488 0.48609 0.45826 0.0
O282 O 0.62041 0.51949 0.41706 0.0
Zn283 Zn 0.59835 0.50366 0.42807 0.0
O284 O 0.59475 0.51582 0.3951 0.0
Zn285 Zn 0.57159 0.498 0.41177 0.0
O286 O 0.54838 0.51576 0.41217 0.0
O287 O 0.57345 0.52608 0.43263 0.0
O288 O 0.57192 0.48643 0.44329 0.0
O289 O 0.60269 0.49368 0.45563 0.0
O290 O 0.5991 0.47607 0.4088 0.0
O291 O 0.5679 0.47384 0.39556 0.0
C292 C 0.5551 0.52837 0.42548 0.0
C293 C 0.58595 0.46665 0.39737 0.0
C294 C 0.26739 0.67844 0.68176 0.0
C295 C 0.21234 0.65014 0.63969 0.0
O296 O 0.26679 0.68651 0.66369 0.0
Zn297 Zn 0.24705 0.68493 0.63672 0.0
O298 O 0.25348 0.66585 0.68736 0.0
Zn299 Zn 0.23874 0.66594 0.66162 0.0
O300 O 0.26205 0.65368 0.64079 0.0
O301 O 0.26646 0.67676 0.61605 0.0
O302 O 0.21634 0.64667 0.65853 0.0
O303 O 0.22239 0.66414 0.63008 0.0
O304 O 0.23553 0.7121 0.63444 0.0
O305 O 0.22496 0.69607 0.6624 0.0
C306 C 0.27099 0.65947 0.62409 0.0
C307 C 0.22522 0.71225 0.65104 0.0
C308 C 0.91629 0.47931 0.6161 0.0
C309 C 0.96531 0.52639 0.58399 0.0
O310 O 0.93526 0.48157 0.62041 0.0
Zn311 Zn 0.94057 0.50314 0.60049 0.0
O312 O 0.90822 0.49009 0.60162 0.0
Zn313 Zn 0.91778 0.51349 0.5801 0.0
O314 O 0.91309 0.50057 0.55409 0.0
O315 O 0.93854 0.48636 0.57156 0.0
O316 O 0.94736 0.52769 0.57583 0.0
O317 O 0.96815 0.51435 0.59916 0.0
O318 O 0.92113 0.52808 0.61221 0.0
O319 O 0.89977 0.5356 0.58686 0.0
C320 C 0.92726 0.48715 0.5553 0.0
C321 C 0.90591 0.53865 0.60516 0.0
C322 C 0.06773 0.03302 0.63457 0.0
C323 C 0.02698 0.97765 0.60519 0.0
O324 O 0.04869 0.02903 0.63639 0.0
Zn325 Zn 0.048 0.00479 0.61986 0.0
O326 O 0.07916 0.02128 0.62348 0.0
Zn327 Zn 0.07407 0.99387 0.60481 0.0
O328 O 0.08156 0.0028 0.57775 0.0
O329 O 0.05272 0.01678 0.58903 0.0
O330 O 0.04572 0.97657 0.59884 0.0
O331 O 0.02191 0.9916 0.61788 0.0
O332 O 0.06585 0.98264 0.63716 0.0
O333 O 0.09208 0.97419 0.61727 0.0
C334 C 0.06626 0.0146 0.57477 0.0
C335 C 0.08242 0.97229 0.63415 0.0
C336 C 0.69523 0.72345 0.84596 0.0
C337 C 0.64281 0.76885 0.87425 0.0
O338 O 0.68039 0.72608 0.83313 0.0
Zn339 Zn 0.65147 0.74293 0.83285 0.0
O340 O 0.69435 0.73205 0.86348 0.0
Zn341 Zn 0.66847 0.7459 0.85968 0.0
O342 O 0.64588 0.72095 0.85986 0.0
O343 O 0.63169 0.72183 0.82897 0.0
O344 O 0.65956 0.76261 0.88217 0.0
O345 O 0.63781 0.7629 0.85605 0.0
O346 O 0.65457 0.76069 0.80995 0.0
O347 O 0.67569 0.76826 0.83545 0.0
C348 C 0.63305 0.71366 0.84665 0.0
C349 C 0.66892 0.7718 0.81715 0.0
C350 C 0.97242 0.06021 0.41293 0.0
C351 C 0.03108 0.10178 0.39333 0.0
O352 O 0.98489 0.05809 0.39805 0.0
Zn353 Zn 0.00129 0.08192 0.40306 0.0
O354 O 0.97405 0.07595 0.42477 0.0
Zn355 Zn 0.99407 0.10252 0.42673 0.0
O356 O 0.97581 0.12543 0.42188 0.0
O357 O 0.98196 0.10719 0.3939 0.0
O358 O 0.02141 0.1101 0.4085 0.0
O359 O 0.02443 0.08509 0.38564 0.0
O360 O 0.01576 0.07561 0.43235 0.0
O361 O 0.00507 0.09949 0.4541 0.0
C362 C 0.97332 0.12263 0.40268 0.0
C363 C 0.01578 0.08352 0.45046 0.0
C364 C 0.37935 0.72559 0.84818 0.0
C365 C 0.33886 0.77907 0.81516 0.0
O366 O 0.38815 0.73189 0.83163 0.0
Zn367 Zn 0.38101 0.75381 0.80767 0.0
O368 O 0.36188 0.7328 0.85311 0.0
Zn369 Zn 0.35885 0.75177 0.83068 0.0
O370 O 0.35272 0.73299 0.80361 0.0
O371 O 0.3794 0.73786 0.78323 0.0
O372 O 0.33479 0.76885 0.83134 0.0
O373 O 0.35535 0.77515 0.80496 0.0
O374 O 0.40358 0.77225 0.80862 0.0
O375 O 0.38353 0.77406 0.83608 0.0
C376 C 0.36213 0.7294 0.78657 0.0
C377 C 0.39942 0.7802 0.82597 0.0
C378 C 0.0365 0.41902 0.41305 0.0
C379 C 0.97482 0.38476 0.38824 0.0
O380 O 0.02484 0.42454 0.39834 0.0
Zn381 Zn 0.00522 0.40224 0.40065 0.0
O382 O 0.03208 0.40296 0.42363 0.0
Zn383 Zn 0.00852 0.38015 0.42465 0.0
O384 O 0.02415 0.35514 0.42028 0.0
O385 O 0.02221 0.37492 0.39258 0.0
O386 O 0.98257 0.37583 0.40414 0.0
O387 O 0.98321 0.40097 0.38109 0.0
O388 O 0.98881 0.40923 0.42831 0.0
O389 O 0.99569 0.38507 0.45129 0.0
C390 C 0.02824 0.35825 0.40136 0.0
C391 C 0.9865 0.40167 0.44641 0.0
C392 C 0.66151 0.23432 0.68788 0.0
C393 C 0.6238 0.2783 0.63981 0.0
O394 O 0.66776 0.23241 0.6692 0.0
Zn395 Zn 0.66147 0.24627 0.63946 0.0
O396 O 0.64768 0.24753 0.69219 0.0
Zn397 Zn 0.64379 0.25761 0.66451 0.0
O398 O 0.63197 0.23052 0.6495 0.0
O399 O 0.65276 0.22256 0.62363 0.0
O400 O 0.62244 0.27771 0.65933 0.0
O401 O 0.63777 0.26765 0.63078 0.0
O402 O 0.68741 0.25973 0.63285 0.0
O403 O 0.67204 0.27365 0.65968 0.0
C404 C 0.63668 0.2189 0.63424 0.0
C405 C 0.68742 0.27289 0.64733 0.0
C406 C 0.52572 0.13337 0.57946 0.0
C407 C 0.47448 0.10431 0.53319 0.0
O408 O 0.5205 0.13975 0.56169 0.0
Zn409 Zn 0.49957 0.11941 0.55671 0.0
O410 O 0.51651 0.11773 0.58735 0.0
Zn411 Zn 0.49265 0.09633 0.57837 0.0
O412 O 0.50676 0.07031 0.57867 0.0
O413 O 0.51811 0.09182 0.55487 0.0
O414 O 0.47524 0.09466 0.55039 0.0
O415 O 0.48615 0.11969 0.5301 0.0
O416 O 0.47566 0.12753 0.57885 0.0
O417 O 0.47208 0.1002 0.59875 0.0
C418 C 0.51917 0.07435 0.5641 0.0
C419 C 0.46682 0.11844 0.59407 0.0
C420 C 0.32864 0.23171 0.6888 0.0
C421 C 0.38801 0.27686 0.685 0.0
O422 O 0.34307 0.22505 0.7007 0.0
Zn423 Zn 0.37488 0.23484 0.70783 0.0
O424 O 0.33188 0.24753 0.67779 0.0
Zn425 Zn 0.35919 0.25275 0.68705 0.0
O426 O 0.37632 0.2273 0.67318 0.0
O427 O 0.39085 0.21185 0.69971 0.0
O428 O 0.37089 0.27704 0.67567 0.0
O429 O 0.39194 0.26208 0.69761 0.0
O430 O 0.37387 0.23812 0.73681 0.0
O431 O 0.35393 0.25982 0.71985 0.0
C432 C 0.38757 0.21276 0.68052 0.0
C433 C 0.36072 0.25254 0.73704 0.0
C434 C 0.51736 0.42564 0.5788 0.0
C435 C 0.47288 0.38586 0.62555 0.0
O436 O 0.50615 0.4119 0.57027 0.0
Zn437 Zn 0.48437 0.38898 0.57733 0.0
O438 O 0.51692 0.42784 0.59832 0.0
Zn439 Zn 0.49574 0.40671 0.60365 0.0
O440 O 0.51198 0.37939 0.59733 0.0
O441 O 0.49943 0.36364 0.56993 0.0
O442 O 0.48529 0.40002 0.63112 0.0
O443 O 0.47132 0.3811 0.60644 0.0
O444 O 0.46086 0.39971 0.56174 0.0
O445 O 0.46949 0.41921 0.58833 0.0
C446 C 0.51237 0.3643 0.58469 0.0
C447 C 0.45787 0.41568 0.57275 0.0
C448 C 0.80552 0.64762 0.77609 0.0
C449 C 0.84007 0.6151 0.71806 0.0
O450 O 0.82398 0.65442 0.7739 0.0
Zn451 Zn 0.84956 0.6488 0.75296 0.0
O452 O 0.79895 0.63351 0.76425 0.0
Zn453 Zn 0.82342 0.63096 0.74785 0.0
O454 O 0.84596 0.61733 0.76893 0.0
O455 O 0.87124 0.63997 0.77053 0.0
O456 O 0.82206 0.61215 0.72506 0.0
O457 O 0.85201 0.62805 0.72701 0.0
O458 O 0.85319 0.67531 0.74046 0.0
O459 O 0.8236 0.66073 0.73251 0.0
C460 C 0.86368 0.62279 0.77595 0.0
C461 C 0.836 0.67607 0.73116 0.0
C462 C 0.8718 0.89526 0.46779 0.0
C463 C 0.92106 0.91365 0.52192 0.0
O464 O 0.88846 0.88583 0.47207 0.0
Zn465 Zn 0.89692 0.90393 0.49438 0.0
O466 O 0.86639 0.91105 0.47839 0.0
Zn467 Zn 0.87749 0.92867 0.50421 0.0
O468 O 0.88088 0.95592 0.49268 0.0
O469 O 0.90135 0.93263 0.47858 0.0
O470 O 0.90484 0.92487 0.52183 0.0
O471 O 0.92338 0.89977 0.50832 0.0
O472 O 0.87447 0.8962 0.51744 0.0
O473 O 0.85661 0.92424 0.52487 0.0
C474 C 0.89447 0.95113 0.47943 0.0
C475 C 0.86016 0.90518 0.5277 0.0
C476 C 0.18167 0.83041 0.73298 0.0
C477 C 0.16426 0.87447 0.79123 0.0
O478 O 0.1903 0.84816 0.7318 0.0
Zn479 Zn 0.19208 0.87579 0.75021 0.0
O480 O 0.17059 0.82605 0.74852 0.0
Zn481 Zn 0.17379 0.85212 0.7625 0.0
O482 O 0.15807 0.87356 0.74212 0.0
O483 O 0.18156 0.89578 0.7314 0.0
O484 O 0.15939 0.8558 0.78805 0.0
O485 O 0.17631 0.88365 0.7785 0.0
O486 O 0.22087 0.87762 0.75675 0.0
O487 O 0.2057 0.85104 0.77144 0.0
C488 C 0.16307 0.88938 0.73131 0.0
C489 C 0.22201 0.86165 0.76798 0.0
C490 C 0.15011 0.56633 0.53147 0.0
C491 C 0.12348 0.52019 0.47945 0.0
O492 O 0.15323 0.54725 0.5288 0.0
Zn493 Zn 0.13748 0.54399 0.5042 0.0
O494 O 0.13944 0.57644 0.51821 0.0
Zn495 Zn 0.12282 0.56877 0.49023 0.0
O496 O 0.09532 0.57705 0.49709 0.0
O497 O 0.10614 0.55011 0.51477 0.0
O498 O 0.11748 0.53876 0.47602 0.0
O499 O 0.13544 0.51651 0.49448 0.0
O500 O 0.15523 0.5584 0.47976 0.0
O501 O 0.13617 0.5843 0.46895 0.0
C502 C 0.09197 0.56332 0.51063 0.0
C503 C 0.15255 0.57374 0.46754 0.0
C504 C 0.83044 0.38814 0.77171 0.0
C505 C 0.79632 0.35083 0.71616 0.0
O506 O 0.84319 0.3765 0.76207 0.0
Zn507 Zn 0.84182 0.3554 0.73624 0.0
O508 O 0.8118 0.38894 0.76583 0.0
Zn509 Zn 0.8136 0.36979 0.74347 0.0
O510 O 0.81921 0.34123 0.75899 0.0
O511 O 0.84929 0.32925 0.74867 0.0
O512 O 0.78868 0.36372 0.72876 0.0
O513 O 0.81564 0.34655 0.71713 0.0
O514 O 0.86062 0.36769 0.7167 0.0
O515 O 0.8318 0.38534 0.72065 0.0
C516 C 0.83318 0.32729 0.75964 0.0
C517 C 0.84936 0.38297 0.71189 0.0
C518 C 0.62405 0.89843 0.47667 0.0
C519 C 0.5981 0.95507 0.51727 0.0
O520 O 0.62841 0.91744 0.47614 0.0
Zn521 Zn 0.61087 0.92627 0.49779 0.0
O522 O 0.61081 0.89179 0.4898 0.0
Zn523 Zn 0.59175 0.90568 0.51352 0.0
O524 O 0.56398 0.90018 0.50428 0.0
O525 O 0.58039 0.9229 0.48507 0.0
O526 O 0.58939 0.9381 0.5227 0.0
O527 O 0.61188 0.95484 0.50341 0.0
O528 O 0.62401 0.91333 0.52539 0.0
O529 O 0.60101 0.8918 0.5382 0.0
C530 C 0.56402 0.91258 0.48911 0.0
C531 C 0.61858 0.90032 0.53925 0.0
C532 C 0.19799 0.16438 0.72209 0.0
C533 C 0.15503 0.13455 0.77494 0.0
O534 O 0.17992 0.17249 0.72137 0.0
Zn535 Zn 0.15084 0.16732 0.73779 0.0
O536 O 0.20122 0.14936 0.73413 0.0
Zn537 Zn 0.17477 0.14891 0.74685 0.0
O538 O 0.15413 0.13455 0.72413 0.0
O539 O 0.13179 0.15912 0.71749 0.0
O540 O 0.17356 0.13112 0.76997 0.0
O541 O 0.14425 0.14746 0.76443 0.0
O542 O 0.14538 0.19412 0.74812 0.0
O543 O 0.17325 0.17976 0.76123 0.0
C544 C 0.1381 0.14096 0.71437 0.0
C545 C 0.16098 0.19529 0.7598 0.0
C546 C 0.3782 0.59529 0.54038 0.0
C547 C 0.43616 0.58731 0.49395 0.0
O548 O 0.39626 0.60262 0.54204 0.0
Zn549 Zn 0.40647 0.59145 0.51691 0.0
O550 O 0.37338 0.58393 0.5249 0.0
Zn551 Zn 0.38937 0.57201 0.49774 0.0
O552 O 0.38894 0.54243 0.50166 0.0
O553 O 0.40732 0.55905 0.52497 0.0
O554 O 0.42049 0.57704 0.4877 0.0
O555 O 0.43461 0.59814 0.51012 0.0
O556 O 0.38751 0.60739 0.49424 0.0
O557 O 0.37302 0.5829 0.47572 0.0
C558 C 0.40008 0.54214 0.51774 0.0
C559 C 0.37547 0.60193 0.4795 0.0
C560 C 0.71464 0.84203 0.64035 0.0
C561 C 0.76546 0.79456 0.66927 0.0
O562 O 0.72832 0.85112 0.65133 0.0
Zn563 Zn 0.75472 0.84309 0.66955 0.0
O564 O 0.7149 0.82251 0.63889 0.0
Zn565 Zn 0.73932 0.81783 0.65548 0.0
O566 O 0.72944 0.8249 0.68606 0.0
O567 O 0.74767 0.85124 0.69738 0.0
O568 O 0.74956 0.78999 0.65877 0.0
O569 O 0.76896 0.81344 0.67399 0.0
O570 O 0.77593 0.85817 0.65532 0.0
O571 O 0.76324 0.83213 0.63736 0.0
C572 C 0.73385 0.83773 0.70041 0.0
C573 C 0.77579 0.84732 0.63901 0.0
C574 C 0.77341 0.16282 0.86893 0.0
C575 C 0.7285 0.17732 0.81049 0.0
O576 O 0.76383 0.18001 0.87086 0.0
Zn577 Zn 0.7412 0.19739 0.85384 0.0
O578 O 0.77004 0.15151 0.85332 0.0
Zn579 Zn 0.75044 0.16948 0.84015 0.0
O580 O 0.76894 0.19629 0.8323 0.0
O581 O 0.75529 0.22273 0.8488 0.0
O582 O 0.73957 0.16146 0.81355 0.0
O583 O 0.72782 0.19145 0.82426 0.0
O584 O 0.71768 0.19842 0.87162 0.0
O585 O 0.72421 0.16699 0.86044 0.0
C586 C 0.76888 0.2156 0.83665 0.0
C587 C 0.71331 0.17938 0.8713 0.0
C588 C 0.40112 0.9675 0.37379 0.0
C589 C 0.42065 0.02261 0.41999 0.0
O590 O 0.39135 0.9762 0.38826 0.0
Zn591 Zn 0.41149 0.99581 0.39591 0.0
O592 O 0.41919 0.97403 0.36901 0.0
Zn593 Zn 0.43947 0.99807 0.38092 0.0
O594 O 0.46337 0.98304 0.38922 0.0
O595 O 0.43623 0.97694 0.40872 0.0
O596 O 0.43517 0.01902 0.40699 0.0
O597 O 0.40401 0.01246 0.4188 0.0
O598 O 0.41198 0.01794 0.37072 0.0
O599 O 0.44352 0.01639 0.35832 0.0
C600 C 0.45532 0.97382 0.40446 0.0
C601 C 0.42564 0.02422 0.35785 0.0
C602 C 0.2752 0.30251 0.85092 0.0
C603 C 0.22242 0.33044 0.89711 0.0
O604 O 0.27134 0.29593 0.86903 0.0
Zn605 Zn 0.24885 0.31516 0.87464 0.0
O606 O 0.26493 0.3177 0.84362 0.0
Zn607 Zn 0.24084 0.33827 0.85194 0.0
O608 O 0.25582 0.36432 0.85144 0.0
O609 O 0.26538 0.34337 0.87667 0.0
O610 O 0.22397 0.34012 0.87997 0.0
O611 O 0.23346 0.31456 0.90034 0.0
O612 O 0.22711 0.30552 0.85219 0.0
O613 O 0.22001 0.33145 0.83133 0.0
C614 C 0.26694 0.36059 0.86718 0.0
C615 C 0.2175 0.3127 0.83653 0.0
C616 C 0.1004 0.04 0.87938 0.0
C617 C 0.07803 0.99267 0.93285 0.0
O618 O 0.10639 0.03756 0.8978 0.0
Zn619 Zn 0.08904 0.01524 0.90541 0.0
O620 O 0.08629 0.0281 0.87222 0.0
Zn621 Zn 0.06822 0.00277 0.88486 0.0
O622 O 0.04065 0.01237 0.8821 0.0
O623 O 0.05809 0.02852 0.90634 0.0
O624 O 0.06797 0.98958 0.91604 0.0
O625 O 0.09212 0.00621 0.93322 0.0
O626 O 0.10063 0.98893 0.88806 0.0
O627 O 0.0747 0.97952 0.86818 0.0
C628 C 0.04119 0.02563 0.89643 0.0
C629 C 0.09298 0.97682 0.87443 0.0
C630 C 0.7823 0.18342 0.1139 0.0
C631 C 0.73271 0.2281 0.14725 0.0
O632 O 0.76997 0.17266 0.12505 0.0
Zn633 Zn 0.74363 0.17955 0.1448 0.0
O634 O 0.77974 0.20273 0.11257 0.0
Zn635 Zn 0.75647 0.20499 0.13021 0.0
O636 O 0.76922 0.19736 0.1601 0.0
O637 O 0.75257 0.16988 0.17128 0.0
O638 O 0.74666 0.23222 0.13421 0.0
O639 O 0.72975 0.20928 0.15271 0.0
O640 O 0.7216 0.1645 0.13257 0.0
O641 O 0.73148 0.19082 0.11349 0.0
C642 C 0.76623 0.1836 0.17402 0.0
C643 C 0.71956 0.17534 0.11643 0.0
C644 C 0.40706 0.97888 0.12659 0.0
C645 C 0.45225 0.02774 0.09183 0.0
O646 O 0.42614 0.98199 0.12958 0.0
Zn647 Zn 0.42983 0.00319 0.10896 0.0
O648 O 0.3976 0.98911 0.11255 0.0
Zn649 Zn 0.40517 0.01221 0.09006 0.0
O650 O 0.40011 0.99916 0.06402 0.0
O651 O 0.4271 0.98644 0.08026 0.0
O652 O 0.43377 0.02818 0.08484 0.0
O653 O 0.457 0.0151 0.10603 0.0
O654 O 0.41155 0.02916 0.12035 0.0
O655 O 0.38725 0.03421 0.09708 0.0
C656 C 0.41511 0.98664 0.06451 0.0
C657 C 0.39576 0.0393 0.11394 0.0
C658 C 0.54658 0.4602 0.08972 0.0
C659 C 0.5912 0.51177 0.12221 0.0
O660 O 0.54188 0.47308 0.10369 0.0
Zn661 Zn 0.56866 0.48624 0.10624 0.0
O662 O 0.56508 0.45971 0.08282 0.0
Zn663 Zn 0.59329 0.47613 0.08759 0.0
O664 O 0.61215 0.45558 0.09675 0.0
O665 O 0.58855 0.46309 0.12007 0.0
O666 O 0.60035 0.50086 0.1085 0.0
O667 O 0.57213 0.50884 0.12568 0.0
O668 O 0.57173 0.50179 0.07692 0.0
O669 O 0.59848 0.48806 0.06108 0.0
C670 C 0.6048 0.45313 0.11471 0.0
C671 C 0.58372 0.50089 0.06121 0.0
H672 H 0.20458 0.27521 0.17678 0.0
H673 H 0.20395 0.33935 0.19562 0.0
H674 H 0.18435 0.3302 0.2267 0.0
H675 H 0.15207 0.26213 0.1978 0.0
H676 H 0.16037 0.2369 0.20595 0.0
H677 H 0.17188 0.24878 0.18362 0.0
H678 H 0.20801 0.24408 0.19996 0.0
H679 H 0.19665 0.23248 0.22244 0.0
H680 H 0.21308 0.2547 0.22512 0.0
H681 H 0.17019 0.31391 0.25817 0.0
H682 H 0.15825 0.29136 0.28654 0.0
H683 H 0.166 0.23795 0.24716 0.0
C684 C 0.19965 0.28735 0.18709 0.0
C685 C 0.20577 0.30797 0.18379 0.0
C686 C 0.19949 0.32343 0.19789 0.0
C687 C 0.18832 0.31841 0.2156 0.0
C688 C 0.18331 0.29788 0.21894 0.0
C689 C 0.18838 0.28259 0.20495 0.0
C690 C 0.18222 0.26157 0.21307 0.0
C691 C 0.16564 0.25177 0.19929 0.0
C692 C 0.20112 0.24738 0.21528 0.0
C693 C 0.17352 0.26746 0.23396 0.0
C694 C 0.17434 0.28848 0.23703 0.0
C695 C 0.16896 0.29745 0.25581 0.0
C696 C 0.16235 0.28457 0.27185 0.0
C697 C 0.16095 0.26306 0.26887 0.0
C698 C 0.16649 0.25445 0.24964 0.0
H699 H 0.55661 0.53311 0.05829 0.0
H700 H 0.60166 0.49841 0.02305 0.0
H701 H 0.59316 0.51893 0.99212 0.0
H702 H 0.51906 0.53639 0.01962 0.0
H703 H 0.51102 0.56222 0.02591 0.0
H704 H 0.52178 0.54589 0.04559 0.0
H705 H 0.54953 0.57349 0.05352 0.0
H706 H 0.53883 0.58995 0.03386 0.0
H707 H 0.56569 0.58294 0.03299 0.0
H708 H 0.57726 0.54082 0.96433 0.0
H709 H 0.55627 0.56365 0.94214 0.0
H710 H 0.52283 0.58502 0.99593 0.0
C711 C 0.56489 0.52998 0.04415 0.0
C712 C 0.57979 0.51415 0.04308 0.0
C713 C 0.59024 0.51052 0.02426 0.0
C714 C 0.58552 0.52209 0.0066 0.0
C715 C 0.57053 0.53739 0.00812 0.0
C716 C 0.56052 0.54149 0.02646 0.0
C717 C 0.54451 0.55825 0.02384 0.0
C718 C 0.52281 0.5502 0.02904 0.0
C719 C 0.54998 0.57729 0.03682 0.0
C720 C 0.54674 0.56262 0.00104 0.0
C721 C 0.56183 0.55044 0.99224 0.0
C722 C 0.56566 0.55069 0.9711 0.0
C723 C 0.55364 0.56365 0.95863 0.0
C724 C 0.53814 0.57625 0.96738 0.0
C725 C 0.53489 0.57589 0.98888 0.0
H726 H 0.8462 0.23377 0.25054 0.0
H727 H 0.81628 0.2007 0.30041 0.0
H728 H 0.79556 0.18134 0.27488 0.0
H729 H 0.80256 0.24153 0.22163 0.0
H730 H 0.81496 0.23875 0.19693 0.0
H731 H 0.82957 0.24741 0.2188 0.0
H732 H 0.85565 0.2176 0.21352 0.0
H733 H 0.84115 0.20887 0.1915 0.0
H734 H 0.84648 0.1914 0.21245 0.0
H735 H 0.77574 0.16826 0.24379 0.0
H736 H 0.75799 0.16349 0.21037 0.0
H737 H 0.8007 0.20622 0.18171 0.0
C738 C 0.83566 0.22212 0.25617 0.0
C739 C 0.83294 0.21866 0.27747 0.0
C740 C 0.81871 0.20351 0.28414 0.0
C741 C 0.80692 0.19242 0.26975 0.0
C742 C 0.80966 0.19664 0.24884 0.0
C743 C 0.82376 0.21111 0.24211 0.0
C744 C 0.82253 0.21433 0.21908 0.0
C745 C 0.81707 0.23683 0.21382 0.0
C746 C 0.84265 0.20764 0.20852 0.0
C747 C 0.80507 0.19989 0.2139 0.0
C748 C 0.79804 0.18952 0.23114 0.0
C749 C 0.78129 0.17611 0.23016 0.0
C750 C 0.77131 0.1735 0.21113 0.0
C751 C 0.77797 0.18451 0.19347 0.0
C752 C 0.79527 0.19757 0.19492 0.0
H753 H 0.47975 0.90412 0.00125 0.0
H754 H 0.45116 0.92827 0.94583 0.0
H755 H 0.42809 0.94984 0.96721 0.0
H756 H 0.43378 0.90464 0.03478 0.0
H757 H 0.44838 0.91297 0.05689 0.0
H758 H 0.46046 0.89733 0.03739 0.0
H759 H 0.48895 0.92495 0.03285 0.0
H760 H 0.47695 0.94067 0.05226 0.0
H761 H 0.48172 0.95113 0.02696 0.0
H762 H 0.40975 0.97035 0.99462 0.0
H763 H 0.39936 0.99 0.02549 0.0
H764 H 0.44155 0.95376 0.06271 0.0
C765 C 0.46826 0.91354 0.99363 0.0
C766 C 0.46698 0.91432 0.97191 0.0
C767 C 0.45224 0.92735 0.96247 0.0
C768 C 0.43905 0.93958 0.97448 0.0
C769 C 0.44096 0.93871 0.99588 0.0
C770 C 0.45528 0.9261 0.00536 0.0
C771 C 0.45574 0.92954 0.02843 0.0
C772 C 0.44919 0.90995 0.04005 0.0
C773 C 0.47711 0.93702 0.03553 0.0
C774 C 0.4397 0.94633 0.03045 0.0
C775 C 0.43107 0.95114 0.01156 0.0
C776 C 0.41631 0.96661 0.0095 0.0
C777 C 0.41049 0.97767 0.02713 0.0
C778 C 0.41965 0.97343 0.04651 0.0
C779 C 0.43424 0.95735 0.04814 0.0
H780 H 0.20664 0.72699 0.32737 0.0
H781 H 0.20651 0.66187 0.3122 0.0
H782 H 0.18245 0.6684 0.28371 0.0
H783 H 0.15117 0.73677 0.31305 0.0
H784 H 0.15698 0.76174 0.30237 0.0
H785 H 0.17207 0.75179 0.32349 0.0
H786 H 0.20532 0.75683 0.30201 0.0
H787 H 0.19036 0.7666 0.28079 0.0
H788 H 0.20731 0.74493 0.27699 0.0
H789 H 0.16334 0.68207 0.25379 0.0
H790 H 0.14721 0.70225 0.22574 0.0
H791 H 0.15732 0.75842 0.2604 0.0
C792 C 0.20097 0.71408 0.31845 0.0
C793 C 0.20844 0.69392 0.32203 0.0
C794 C 0.20107 0.67746 0.30971 0.0
C795 C 0.18734 0.68098 0.29349 0.0
C796 C 0.18087 0.70106 0.28979 0.0
C797 C 0.18712 0.71734 0.30205 0.0
C798 C 0.17882 0.73758 0.29366 0.0
C799 C 0.16387 0.74756 0.30906 0.0
C800 C 0.19651 0.75235 0.28803 0.0
C801 C 0.16756 0.73009 0.27454 0.0
C802 C 0.16897 0.70894 0.27266 0.0
C803 C 0.16162 0.69858 0.25532 0.0
C804 C 0.15258 0.71013 0.23944 0.0
C805 C 0.15068 0.73174 0.24116 0.0
C806 C 0.15805 0.74181 0.25904 0.0
H807 H 0.98457 0.59449 0.0042 0.0
H808 H 0.94191 0.57981 0.0535 0.0
H809 H 0.92152 0.55838 0.02951 0.0
H810 H 0.94749 0.59527 0.96158 0.0
H811 H 0.96486 0.58278 0.94387 0.0
H812 H 0.97493 0.5987 0.96427 0.0
H813 H 0.9974 0.56825 0.97707 0.0
H814 H 0.9874 0.55225 0.95674 0.0
H815 H 0.9853 0.54401 0.98319 0.0
H816 H 0.90632 0.53809 0.00072 0.0
H817 H 0.89862 0.51769 0.96969 0.0
H818 H 0.95247 0.54338 0.93937 0.0
C819 C 0.97071 0.58705 0.00977 0.0
C820 C 0.96455 0.58897 0.03056 0.0
C821 C 0.94674 0.57857 0.03756 0.0
C822 C 0.93505 0.56645 0.02405 0.0
C823 C 0.94161 0.56466 0.00369 0.0
C824 C 0.95912 0.57448 0.99658 0.0
C825 C 0.96371 0.56854 0.97444 0.0
C826 C 0.96268 0.58745 0.9602 0.0
C827 C 0.98469 0.55761 0.97277 0.0
C828 C 0.94607 0.55381 0.97027 0.0
C829 C 0.93336 0.55207 0.98727 0.0
C830 C 0.91613 0.53932 0.98729 0.0
C831 C 0.91187 0.52782 0.96955 0.0
C832 C 0.92494 0.5289 0.95208 0.0
C833 C 0.94219 0.54221 0.95246 0.0
H834 H 0.8376 0.77818 0.23614 0.0
H835 H 0.80267 0.80552 0.18605 0.0
H836 H 0.78164 0.82475 0.2114 0.0
H837 H 0.79597 0.76855 0.26719 0.0
H838 H 0.80893 0.77366 0.29123 0.0
H839 H 0.82346 0.7651 0.26927 0.0
H840 H 0.84705 0.79722 0.27202 0.0
H841 H 0.83265 0.80584 0.29415 0.0
H842 H 0.8357 0.82257 0.27217 0.0
H843 H 0.76219 0.8381 0.24252 0.0
H844 H 0.74527 0.84317 0.27631 0.0
H845 H 0.79238 0.80561 0.3054 0.0
C846 C 0.82595 0.78868 0.23041 0.0
C847 C 0.82192 0.79053 0.2091 0.0
C848 C 0.80613 0.804 0.20231 0.0
C849 C 0.79415 0.81501 0.21659 0.0
C850 C 0.79818 0.81234 0.23756 0.0
C851 C 0.81375 0.7995 0.2444 0.0
C852 C 0.81359 0.79742 0.26761 0.0
C853 C 0.81028 0.77485 0.2742 0.0
C854 C 0.83343 0.8063 0.27704 0.0
C855 C 0.79513 0.81061 0.27279 0.0
C856 C 0.78665 0.81943 0.25534 0.0
C857 C 0.76886 0.83146 0.2563 0.0
C858 C 0.75936 0.83425 0.27555 0.0
C859 C 0.76751 0.82476 0.29346 0.0
C860 C 0.7858 0.8131 0.292 0.0
H861 H 0.05121 0.96011 0.93717 0.0
H862 H 0.0925 0.99976 0.97181 0.0
H863 H 0.08216 0.98241 0.00401 0.0
H864 H 0.01078 0.95914 0.97377 0.0
H865 H 0.00423 0.93249 0.96957 0.0
H866 H 0.01559 0.94736 0.94908 0.0
H867 H 0.04488 0.92042 0.94562 0.0
H868 H 0.03358 0.90543 0.96609 0.0
H869 H 0.06003 0.91372 0.96794 0.0
H870 H 0.06544 0.96253 0.03277 0.0
H871 H 0.04474 0.94024 0.05576 0.0
H872 H 0.01552 0.91262 0.00232 0.0
C873 C 0.05823 0.96502 0.9515 0.0
C874 C 0.07267 0.98131 0.95193 0.0
C875 C 0.08145 0.98728 0.97104 0.0
C876 C 0.07567 0.97753 0.98944 0.0
C877 C 0.06124 0.96169 0.9885 0.0
C878 C 0.05277 0.95534 0.97001 0.0
C879 C 0.03731 0.93817 0.97331 0.0
C880 C 0.0157 0.94469 0.966 0.0
C881 C 0.04438 0.91825 0.96261 0.0
C882 C 0.0382 0.93609 0.99655 0.0
C883 C 0.05206 0.94983 0.00503 0.0
C884 C 0.05474 0.95151 0.0263 0.0
C885 C 0.0429 0.93884 0.03923 0.0
C886 C 0.0287 0.92456 0.03083 0.0
C887 C 0.02651 0.92312 0.00919 0.0
H888 H 0.2736 0.15375 0.27753 0.0
H889 H 0.3189 0.1925 0.3078 0.0
H890 H 0.29109 0.20841 0.32856 0.0
H891 H 0.23755 0.19149 0.27085 0.0
H892 H 0.21541 0.17519 0.27474 0.0
H893 H 0.23906 0.16431 0.26531 0.0
H894 H 0.23943 0.13816 0.29555 0.0
H895 H 0.21561 0.14887 0.30503 0.0
H896 H 0.23779 0.1474 0.3217 0.0
H897 H 0.25754 0.22275 0.34296 0.0
H898 H 0.22182 0.23481 0.34874 0.0
H899 H 0.19924 0.18727 0.30755 0.0
C900 C 0.27786 0.16516 0.28893 0.0
C901 C 0.29848 0.17176 0.29115 0.0
C902 C 0.30323 0.18706 0.30597 0.0
C903 C 0.28753 0.19616 0.31783 0.0
C904 C 0.26724 0.18972 0.31469 0.0
C905 C 0.26245 0.17448 0.30062 0.0
C906 C 0.23943 0.17179 0.29832 0.0
C907 C 0.23247 0.17596 0.27599 0.0
C908 C 0.23267 0.15028 0.30559 0.0
C909 C 0.2319 0.18833 0.31281 0.0
C910 C 0.24809 0.19829 0.32245 0.0
C911 C 0.24477 0.21487 0.3357 0.0
C912 C 0.22443 0.22161 0.33888 0.0
C913 C 0.20777 0.21197 0.32858 0.0
C914 C 0.21163 0.19492 0.3157 0.0
H915 H 0.4566 0.56015 0.95732 0.0
H916 H 0.46327 0.53971 0.89393 0.0
H917 H 0.44156 0.50954 0.90142 0.0
H918 H 0.46058 0.5115 0.9799 0.0
H919 H 0.44181 0.51591 0.9999 0.0
H920 H 0.45589 0.53726 0.98918 0.0
H921 H 0.42157 0.55546 0.9799 0.0
H922 H 0.40735 0.53416 0.99067 0.0
H923 H 0.40273 0.54213 0.96444 0.0
H924 H 0.42294 0.47991 0.91627 0.0
H925 H 0.40733 0.45264 0.93763 0.0
H926 H 0.41129 0.49212 0.9914 0.0
C927 C 0.45313 0.54956 0.94491 0.0
C928 C 0.4616 0.55234 0.925 0.0
C929 C 0.45696 0.53794 0.90928 0.0
C930 C 0.44458 0.52077 0.91336 0.0
C931 C 0.43682 0.51827 0.9332 0.0
C932 C 0.44075 0.53228 0.94872 0.0
C933 C 0.43159 0.52515 0.96903 0.0
C934 C 0.44847 0.52228 0.98546 0.0
C935 C 0.41481 0.54012 0.97644 0.0
C936 C 0.4224 0.50466 0.96258 0.0
C937 C 0.42554 0.50112 0.9418 0.0
C938 C 0.42002 0.48264 0.93246 0.0
C939 C 0.41126 0.46724 0.94472 0.0
C940 C 0.40794 0.47045 0.96603 0.0
C941 C 0.41324 0.48953 0.97502 0.0
H942 H 0.81198 0.30485 0.31263 0.0
H943 H 0.78356 0.26159 0.35495 0.0
H944 H 0.75015 0.27953 0.35069 0.0
H945 H 0.78189 0.35046 0.32901 0.0
H946 H 0.78067 0.36042 0.3031 0.0
H947 H 0.80257 0.34534 0.31117 0.0
H948 H 0.79651 0.32024 0.2807 0.0
H949 H 0.77462 0.33517 0.27258 0.0
H950 H 0.77171 0.30805 0.27783 0.0
H951 H 0.71907 0.2994 0.33794 0.0
H952 H 0.69344 0.32097 0.31961 0.0
H953 H 0.74296 0.35226 0.28742 0.0
C954 C 0.7988 0.29934 0.32127 0.0
C955 C 0.80029 0.28183 0.33408 0.0
C956 C 0.78274 0.27507 0.34515 0.0
C957 C 0.76372 0.28515 0.34281 0.0
C958 C 0.76269 0.30215 0.32968 0.0
C959 C 0.77987 0.30937 0.31936 0.0
C960 C 0.77461 0.32733 0.30547 0.0
C961 C 0.78559 0.34706 0.31262 0.0
C962 C 0.77966 0.32239 0.28281 0.0
C963 C 0.75163 0.32868 0.309 0.0
C964 C 0.745 0.31407 0.32304 0.0
C965 C 0.72413 0.3112 0.32729 0.0
C966 C 0.7097 0.32346 0.31678 0.0
C967 C 0.71627 0.33846 0.30236 0.0
C968 C 0.73752 0.34127 0.29876 0.0
H969 H 0.53304 0.96539 0.92492 0.0
H970 H 0.56689 0.91983 0.9603 0.0
H971 H 0.58989 0.94719 0.9735 0.0
H972 H 0.57637 0.9995 0.91244 0.0
H973 H 0.56137 0.02262 0.91595 0.0
H974 H 0.54904 0.99924 0.90743 0.0
H975 H 0.52344 0.00148 0.938 0.0
H976 H 0.53564 0.02484 0.94658 0.0
H977 H 0.53329 0.00326 0.96393 0.0
H978 H 0.60832 0.97923 0.98354 0.0
H979 H 0.61914 0.01429 0.99285 0.0
H980 H 0.5718 0.03967 0.95281 0.0
C981 C 0.54556 0.96118 0.93514 0.0
C982 C 0.54847 0.94054 0.94142 0.0
C983 C 0.56455 0.93558 0.95527 0.0
C984 C 0.57772 0.95097 0.96273 0.0
C985 C 0.57436 0.97122 0.95637 0.0
C986 C 0.55855 0.97641 0.94308 0.0
C987 C 0.5571 0.99955 0.94021 0.0
C988 C 0.56122 0.00558 0.91767 0.0
C989 C 0.53613 0.00776 0.94763 0.0
C990 C 0.57444 0.00657 0.95416 0.0
C991 C 0.58441 0.98992 0.96299 0.0
C992 C 0.60069 0.99239 0.97669 0.0
C993 C 0.60673 0.01242 0.98184 0.0
C994 C 0.5963 0.02977 0.97357 0.0
C995 C 0.58011 0.02674 0.95933 0.0
H996 H 0.18605 0.80428 0.20322 0.0
H997 H 0.20888 0.76199 0.15672 0.0
H998 H 0.2439 0.77642 0.16092 0.0
H999 H 0.21971 0.84802 0.18987 0.0
H1000 H 0.22278 0.85528 0.2165 0.0
H1001 H 0.19929 0.84313 0.20805 0.0
H1002 H 0.20399 0.81471 0.2358 0.0
H1003 H 0.22746 0.82672 0.24429 0.0
H1004 H 0.22761 0.80009 0.23645 0.0
H1005 H 0.27713 0.79315 0.17308 0.0
H1006 H 0.30526 0.81083 0.19185 0.0
H1007 H 0.25986 0.8422 0.22964 0.0
C1008 C 0.19831 0.79826 0.19363 0.0
C1009 C 0.19472 0.78203 0.17963 0.0
C1010 C 0.21125 0.7745 0.1675 0.0
C1011 C 0.23119 0.78262 0.16975 0.0
C1012 C 0.23424 0.79837 0.18403 0.0
C1013 C 0.21818 0.80619 0.19563 0.0
C1014 C 0.22559 0.82215 0.21085 0.0
C1015 C 0.21629 0.84341 0.20602 0.0
C1016 C 0.22089 0.81551 0.23316 0.0
C1017 C 0.24844 0.8217 0.20644 0.0
C1018 C 0.2532 0.80805 0.19082 0.0
C1019 C 0.27355 0.80412 0.18511 0.0
C1020 C 0.28942 0.81422 0.19585 0.0
C1021 C 0.28477 0.82798 0.21214 0.0
C1022 C 0.26397 0.83196 0.21713 0.0
H1023 H 0.08894 0.50673 0.00968 0.0
H1024 H 0.10342 0.47391 0.06608 0.0
H1025 H 0.08981 0.50284 0.08656 0.0
H1026 H 0.09775 0.56059 0.02997 0.0
H1027 H 0.07596 0.57063 0.01595 0.0
H1028 H 0.09052 0.54934 0.00562 0.0
H1029 H 0.05705 0.52773 0.00308 0.0
H1030 H 0.04245 0.54886 0.01345 0.0
H1031 H 0.04151 0.52399 0.02581 0.0
H1032 H 0.07051 0.53206 0.10075 0.0
H1033 H 0.04585 0.55998 0.108 0.0
H1034 H 0.04283 0.57442 0.04274 0.0
C1035 C 0.08986 0.50608 0.02633 0.0
C1036 C 0.09744 0.48835 0.03641 0.0
C1037 C 0.09777 0.48751 0.05818 0.0
C1038 C 0.09019 0.50389 0.06992 0.0
C1039 C 0.08223 0.52095 0.05962 0.0
C1040 C 0.082 0.52225 0.03833 0.0
C1041 C 0.07016 0.54113 0.03123 0.0
C1042 C 0.08446 0.55633 0.02003 0.0
C1043 C 0.0517 0.53506 0.0176 0.0
C1044 C 0.06315 0.54971 0.05181 0.0
C1045 C 0.07063 0.53799 0.06796 0.0
C1046 C 0.06487 0.54163 0.0883 0.0
C1047 C 0.05078 0.55746 0.09226 0.0
C1048 C 0.04259 0.56942 0.07595 0.0
C1049 C 0.04923 0.56579 0.05553 0.0
H1050 H 0.80546 0.70163 0.19478 0.0
H1051 H 0.76946 0.72778 0.14477 0.0
H1052 H 0.7397 0.70639 0.15511 0.0
H1053 H 0.7846 0.64966 0.19099 0.0
H1054 H 0.78494 0.64568 0.21848 0.0
H1055 H 0.80356 0.66255 0.20667 0.0
H1056 H 0.79216 0.6922 0.23086 0.0
H1057 H 0.77353 0.67544 0.24275 0.0
H1058 H 0.76539 0.6996 0.23168 0.0
H1059 H 0.7131 0.684 0.17259 0.0
H1060 H 0.69228 0.66107 0.19485 0.0
H1061 H 0.7463 0.64844 0.23223 0.0
C1062 C 0.79137 0.70278 0.1859 0.0
C1063 C 0.78977 0.71641 0.16899 0.0
C1064 C 0.77107 0.7174 0.15775 0.0
C1065 C 0.75407 0.70533 0.16351 0.0
C1066 C 0.75612 0.69217 0.18038 0.0
C1067 C 0.77436 0.69069 0.19129 0.0
C1068 C 0.7725 0.67558 0.20898 0.0
C1069 C 0.78728 0.65728 0.2061 0.0
C1070 C 0.7761 0.68635 0.22979 0.0
C1071 C 0.75026 0.66901 0.20652 0.0
C1072 C 0.74104 0.67879 0.18998 0.0
C1073 C 0.72023 0.67604 0.18541 0.0
C1074 C 0.70853 0.66303 0.19814 0.0
C1075 C 0.71774 0.6528 0.21509 0.0
C1076 C 0.73892 0.65572 0.21914 0.0
H1077 H 0.90047 0.00653 0.00757 0.0
H1078 H 0.90384 0.04972 0.05835 0.0
H1079 H 0.91914 0.02269 0.08045 0.0
H1080 H 0.89128 0.95878 0.03822 0.0
H1081 H 0.90799 0.94355 0.02208 0.0
H1082 H 0.89409 0.96507 0.01129 0.0
H1083 H 0.92842 0.9807 0.99822 0.0
H1084 H 0.9424 0.95931 0.009 0.0
H1085 H 0.94904 0.98527 0.01627 0.0
H1086 H 0.9364 0.99242 0.09599 0.0
H1087 H 0.95699 0.96157 0.10365 0.0
H1088 H 0.9448 0.93816 0.04213 0.0
C1089 C 0.90387 0.00999 0.02355 0.0
C1090 C 0.90064 0.02995 0.03154 0.0
C1091 C 0.90601 0.03437 0.05217 0.0
C1092 C 0.91461 0.01912 0.0648 0.0
C1093 C 0.91801 0.99965 0.05641 0.0
C1094 C 0.91296 0.99504 0.03623 0.0
C1095 C 0.92055 0.97372 0.03035 0.0
C1096 C 0.90239 0.95943 0.02519 0.0
C1097 C 0.93602 0.97483 0.01241 0.0
C1098 C 0.931 0.96728 0.05025 0.0
C1099 C 0.92896 0.98234 0.06516 0.0
C1100 C 0.93797 0.98043 0.08452 0.0
C1101 C 0.94968 0.96281 0.0887 0.0
C1102 C 0.95255 0.94739 0.0735 0.0
C1103 C 0.94277 0.94957 0.05412 0.0
H1104 H 0.27525 0.27862 0.17835 0.0
H1105 H 0.31655 0.32798 0.19637 0.0
H1106 H 0.33865 0.30242 0.21458 0.0
H1107 H 0.27833 0.25005 0.22556 0.0
H1108 H 0.27675 0.22549 0.21271 0.0
H1109 H 0.26467 0.24781 0.20147 0.0
H1110 H 0.28523 0.24195 0.16771 0.0
H1111 H 0.29748 0.21969 0.17887 0.0
H1112 H 0.31295 0.24039 0.1687 0.0
H1113 H 0.35664 0.27034 0.22981 0.0
H1114 H 0.36745 0.23595 0.24236 0.0
H1115 H 0.31317 0.20882 0.21429 0.0
C1116 C 0.28897 0.28419 0.18605 0.0
C1117 C 0.29432 0.3053 0.18576 0.0
C1118 C 0.3122 0.31188 0.19637 0.0
C1119 C 0.32483 0.29746 0.20667 0.0
C1120 C 0.31915 0.27666 0.20634 0.0
C1121 C 0.30148 0.27018 0.19643 0.0
C1122 C 0.29833 0.24719 0.19842 0.0
C1123 C 0.27834 0.24236 0.21024 0.0
C1124 C 0.29852 0.2367 0.17716 0.0
C1125 C 0.31714 0.24151 0.21086 0.0
C1126 C 0.32906 0.25862 0.21528 0.0
C1127 C 0.34734 0.25691 0.22647 0.0
C1128 C 0.35339 0.23729 0.23347 0.0
C1129 C 0.34116 0.21966 0.22932 0.0
C1130 C 0.32287 0.22194 0.21777 0.0
H1131 H 0.32026 0.79686 0.2906 0.0
H1132 H 0.36041 0.76959 0.24471 0.0
H1133 H 0.35166 0.73476 0.25798 0.0
H1134 H 0.33113 0.76022 0.33199 0.0
H1135 H 0.30488 0.76092 0.34105 0.0
H1136 H 0.31591 0.78324 0.32879 0.0
H1137 H 0.28588 0.78351 0.30237 0.0
H1138 H 0.27488 0.76111 0.3144 0.0
H1139 H 0.28083 0.76076 0.28727 0.0
H1140 H 0.33516 0.70232 0.27504 0.0
H1141 H 0.31472 0.67678 0.29509 0.0
H1142 H 0.28672 0.72697 0.32926 0.0
C1143 C 0.32752 0.78361 0.28349 0.0
C1144 C 0.34102 0.78594 0.26663 0.0
C1145 C 0.35014 0.76817 0.25778 0.0
C1146 C 0.34518 0.74834 0.26516 0.0
C1147 C 0.3313 0.74661 0.28153 0.0
C1148 C 0.32287 0.76391 0.2907 0.0
C1149 C 0.30785 0.7583 0.30752 0.0
C1150 C 0.3154 0.76613 0.32858 0.0
C1151 C 0.28608 0.7664 0.30258 0.0
C1152 C 0.30878 0.73511 0.30628 0.0
C1153 C 0.32232 0.72844 0.29127 0.0
C1154 C 0.32474 0.70745 0.28699 0.0
C1155 C 0.31305 0.69304 0.2984 0.0
C1156 C 0.29919 0.69978 0.31386 0.0
C1157 C 0.29728 0.72112 0.31774 0.0
H1158 H 0.99647 0.46692 0.91224 0.0
H1159 H 0.94469 0.44195 0.94636 0.0
H1160 H 0.96892 0.4249 0.97044 0.0
H1161 H 0.03206 0.42321 0.91923 0.0
H1162 H 0.05403 0.43993 0.92221 0.0
H1163 H 0.03265 0.4478 0.90631 0.0
H1164 H 0.0291 0.48133 0.9277 0.0
H1165 H 0.05036 0.47354 0.94369 0.0
H1166 H 0.02585 0.47963 0.95524 0.0
H1167 H 0.99919 0.41278 0.9924 0.0
H1168 H 0.03232 0.40774 0.01066 0.0
H1169 H 0.06374 0.44183 0.96244 0.0
C1170 C 0.99017 0.45744 0.92445 0.0
C1171 C 0.96864 0.45557 0.92724 0.0
C1172 C 0.96111 0.44346 0.94379 0.0
C1173 C 0.97477 0.43371 0.95753 0.0
C1174 C 0.99592 0.43626 0.95457 0.0
C1175 C 0.00354 0.44785 0.93839 0.0
C1176 C 0.02677 0.44972 0.9395 0.0
C1177 C 0.03698 0.43955 0.92069 0.0
C1178 C 0.03339 0.4724 0.94167 0.0
C1179 C 0.03107 0.43768 0.95901 0.0
C1180 C 0.01315 0.42979 0.96739 0.0
C1181 C 0.01331 0.41875 0.98585 0.0
C1182 C 0.03222 0.41594 0.99611 0.0
C1183 C 0.05067 0.42436 0.988 0.0
C1184 C 0.04997 0.43512 0.96906 0.0
H1185 H 0.73449 0.73997 0.33849 0.0
H1186 H 0.68581 0.78459 0.32785 0.0
H1187 H 0.66445 0.75752 0.3118 0.0
H1188 H 0.72936 0.71489 0.29089 0.0
H1189 H 0.73481 0.68946 0.30066 0.0
H1190 H 0.74528 0.7117 0.31345 0.0
H1191 H 0.7285 0.7 0.34778 0.0
H1192 H 0.71797 0.67768 0.33506 0.0
H1193 H 0.70116 0.69511 0.34866 0.0
H1194 H 0.6493 0.72618 0.29479 0.0
H1195 H 0.64224 0.69332 0.27688 0.0
H1196 H 0.70114 0.66948 0.29795 0.0
C1197 C 0.71917 0.74393 0.33317 0.0
C1198 C 0.71174 0.76434 0.33456 0.0
C1199 C 0.6918 0.76903 0.32698 0.0
C1200 C 0.67951 0.75375 0.31791 0.0
C1201 C 0.6874 0.73385 0.31647 0.0
C1202 C 0.70679 0.72891 0.32386 0.0
C1203 C 0.71229 0.70677 0.31894 0.0
C1204 C 0.73157 0.70565 0.30517 0.0
C1205 C 0.71514 0.69414 0.3388 0.0
C1206 C 0.69313 0.70017 0.30737 0.0
C1207 C 0.67884 0.71591 0.30632 0.0
C1208 C 0.6603 0.71367 0.29567 0.0
C1209 C 0.65641 0.69494 0.28555 0.0
C1210 C 0.67109 0.67879 0.28602 0.0
C1211 C 0.68951 0.68145 0.29737 0.0
H1212 H 0.44431 0.56552 0.45883 0.0
H1213 H 0.47356 0.60352 0.50542 0.0
H1214 H 0.50757 0.59612 0.49001 0.0
H1215 H 0.4803 0.52667 0.45914 0.0
H1216 H 0.47931 0.52154 0.43185 0.0
H1217 H 0.45725 0.5323 0.44466 0.0
H1218 H 0.45718 0.56302 0.41908 0.0
H1219 H 0.4793 0.55231 0.40613 0.0
H1220 H 0.48019 0.57827 0.41594 0.0
H1221 H 0.53869 0.58057 0.47237 0.0
H1222 H 0.56383 0.55877 0.45374 0.0
H1223 H 0.51383 0.53193 0.41835 0.0
C1224 C 0.45779 0.57271 0.46553 0.0
C1225 C 0.45624 0.58515 0.48331 0.0
C1226 C 0.47433 0.59403 0.49173 0.0
C1227 C 0.49373 0.58994 0.48306 0.0
C1228 C 0.49476 0.57715 0.46583 0.0
C1229 C 0.47721 0.56885 0.45705 0.0
C1230 C 0.48248 0.55427 0.43966 0.0
C1231 C 0.47436 0.53241 0.44411 0.0
C1232 C 0.4743 0.56247 0.41898 0.0
C1233 C 0.50575 0.55508 0.44048 0.0
C1234 C 0.51261 0.56849 0.45552 0.0
C1235 C 0.53351 0.57035 0.46026 0.0
C1236 C 0.54768 0.5579 0.44961 0.0
C1237 C 0.54086 0.54378 0.43445 0.0
C1238 C 0.51965 0.54282 0.42957 0.0
H1239 H 0.20553 0.71903 0.68788 0.0
H1240 H 0.22318 0.74926 0.63082 0.0
H1241 H 0.2108 0.78242 0.64462 0.0
H1242 H 0.15903 0.75094 0.69823 0.0
H1243 H 0.16376 0.7511 0.7256 0.0
H1244 H 0.17165 0.72931 0.7103 0.0
H1245 H 0.209 0.73334 0.72385 0.0
H1246 H 0.20129 0.75519 0.73906 0.0
H1247 H 0.22204 0.75767 0.72076 0.0
H1248 H 0.20083 0.81277 0.66604 0.0
H1249 H 0.19218 0.8381 0.69306 0.0
H1250 H 0.18 0.78825 0.73596 0.0
C1251 C 0.20633 0.73251 0.67807 0.0
C1252 C 0.21527 0.7315 0.65822 0.0
C1253 C 0.21632 0.7496 0.64603 0.0
C1254 C 0.20931 0.76852 0.65373 0.0
C1255 C 0.20112 0.76908 0.67357 0.0
C1256 C 0.19936 0.75152 0.6855 0.0
C1257 C 0.19124 0.75656 0.70682 0.0
C1258 C 0.17016 0.74637 0.71044 0.0
C1259 C 0.20682 0.75032 0.7236 0.0
C1260 C 0.18925 0.77976 0.7052 0.0
C1261 C 0.19496 0.78664 0.68585 0.0
C1262 C 0.19595 0.80756 0.68111 0.0
C1263 C 0.19111 0.82182 0.69658 0.0
C1264 C 0.18523 0.81512 0.71651 0.0
C1265 C 0.18403 0.7938 0.72073 0.0
H1266 H 0.07987 0.53652 0.54121 0.0
H1267 H 0.05831 0.58797 0.50418 0.0
H1268 H 0.02436 0.58586 0.52112 0.0
H1269 H 0.03368 0.50772 0.5395 0.0
H1270 H 0.03556 0.49841 0.56561 0.0
H1271 H 0.05857 0.5048 0.55152 0.0
H1272 H 0.06937 0.53001 0.58054 0.0
H1273 H 0.04632 0.52374 0.5947 0.0
H1274 H 0.05193 0.55018 0.58831 0.0
H1275 H 0.99204 0.57659 0.54006 0.0
H1276 H 0.96362 0.56077 0.55982 0.0
H1277 H 0.0063 0.51609 0.58544 0.0
C1278 C 0.06809 0.54748 0.53679 0.0
C1279 C 0.07181 0.56243 0.52135 0.0
C1280 C 0.05589 0.5764 0.51597 0.0
C1281 C 0.03654 0.57536 0.52554 0.0
C1282 C 0.03336 0.56038 0.54059 0.0
C1283 C 0.0487 0.54673 0.54626 0.0
C1284 C 0.041 0.53158 0.5623 0.0
C1285 C 0.04228 0.50932 0.55424 0.0
C1286 C 0.05286 0.53403 0.58267 0.0
C1287 C 0.01884 0.53861 0.56449 0.0
C1288 C 0.01478 0.5553 0.55187 0.0
C1289 C 0.99509 0.56371 0.55022 0.0
C1290 C 0.97905 0.55463 0.56149 0.0
C1291 C 0.9828 0.53739 0.57435 0.0
C1292 C 0.00306 0.52955 0.57611 0.0
H1293 H 0.96294 0.91929 0.51819 0.0
H1294 H 0.91295 0.91726 0.5624 0.0
H1295 H 0.93652 0.92891 0.58982 0.0
H1296 H 0.00589 0.90505 0.55509 0.0
H1297 H 0.02347 0.92305 0.54331 0.0
H1298 H 0.00387 0.9107 0.52795 0.0
H1299 H 0.9906 0.94647 0.51619 0.0
H1300 H 0.00999 0.9589 0.53159 0.0
H1301 H 0.9832 0.96519 0.53533 0.0
H1302 H 0.96322 0.9455 0.61091 0.0
H1303 H 0.99198 0.96594 0.62487 0.0
H1304 H 0.02554 0.95802 0.56758 0.0
C1305 C 0.95729 0.92053 0.53384 0.0
C1306 C 0.9363 0.91701 0.5384 0.0
C1307 C 0.92908 0.91963 0.55878 0.0
C1308 C 0.94235 0.9262 0.57443 0.0
C1309 C 0.96282 0.93021 0.56943 0.0
C1310 C 0.97037 0.92741 0.54969 0.0
C1311 C 0.99238 0.93522 0.54804 0.0
C1312 C 0.00729 0.91744 0.54332 0.0
C1313 C 0.99413 0.95247 0.53183 0.0
C1314 C 0.99568 0.94346 0.5697 0.0
C1315 C 0.97847 0.94012 0.5818 0.0
C1316 C 0.97696 0.94785 0.60176 0.0
C1317 C 0.99333 0.95952 0.60952 0.0
C1318 C 0.01104 0.96337 0.59739 0.0
C1319 C 0.01238 0.95489 0.57735 0.0
H1320 H 0.69798 0.81788 0.70868 0.0
H1321 H 0.7479 0.85116 0.73807 0.0
H1322 H 0.73416 0.84133 0.77232 0.0
H1323 H 0.65788 0.82891 0.74859 0.0
H1324 H 0.64689 0.80358 0.74563 0.0
H1325 H 0.65883 0.81617 0.72393 0.0
H1326 H 0.68283 0.78461 0.71899 0.0
H1327 H 0.67116 0.77204 0.74071 0.0
H1328 H 0.69864 0.77605 0.7402 0.0
H1329 H 0.71795 0.82287 0.80298 0.0
H1330 H 0.69979 0.79933 0.82695 0.0
H1331 H 0.66032 0.77934 0.7768 0.0
C1332 C 0.70573 0.82359 0.72232 0.0
C1333 C 0.72397 0.83529 0.72077 0.0
C1334 C 0.73376 0.84235 0.73895 0.0
C1335 C 0.72609 0.8368 0.75845 0.0
C1336 C 0.70844 0.82454 0.75941 0.0
C1337 C 0.69821 0.81836 0.74177 0.0
C1338 C 0.6806 0.80395 0.74666 0.0
C1339 C 0.65982 0.81375 0.74086 0.0
C1340 C 0.6835 0.78293 0.73602 0.0
C1341 C 0.68301 0.80223 0.76974 0.0
C1342 C 0.69899 0.81432 0.77694 0.0
C1343 C 0.70512 0.81371 0.79756 0.0
C1344 C 0.69477 0.80025 0.81105 0.0
C1345 C 0.67854 0.78759 0.8038 0.0
C1346 C 0.67244 0.789 0.78295 0.0
H1347 H 0.00856 0.08489 0.49203 0.0
H1348 H 0.04977 0.05928 0.44604 0.0
H1349 H 0.06886 0.04089 0.47338 0.0
H1350 H 0.04645 0.09056 0.53369 0.0
H1351 H 0.02842 0.08276 0.55334 0.0
H1352 H 0.01931 0.09561 0.53044 0.0
H1353 H 0.99439 0.06524 0.52326 0.0
H1354 H 0.00344 0.0523 0.54608 0.0
H1355 H 0.00453 0.03944 0.52149 0.0
H1356 H 0.08246 0.02412 0.50532 0.0
H1357 H 0.08857 0.00859 0.5395 0.0
H1358 H 0.03754 0.04392 0.56453 0.0
C1359 C 0.02185 0.07573 0.4878 0.0
C1360 C 0.02785 0.07364 0.46699 0.0
C1361 C 0.04498 0.0611 0.46193 0.0
C1362 C 0.05596 0.05068 0.47734 0.0
C1363 C 0.04949 0.05283 0.49769 0.0
C1364 C 0.03278 0.06495 0.50295 0.0
C1365 C 0.02805 0.06335 0.52576 0.0
C1366 C 0.03072 0.08432 0.53643 0.0
C1367 C 0.00632 0.05455 0.52935 0.0
C1368 C 0.04457 0.04827 0.53242 0.0
C1369 C 0.05693 0.04261 0.51605 0.0
C1370 C 0.07296 0.02851 0.5183 0.0
C1371 C 0.07631 0.01978 0.53778 0.0
C1372 C 0.06353 0.02503 0.55469 0.0
C1373 C 0.04759 0.03961 0.55193 0.0
H1374 H 0.32267 0.71374 0.78555 0.0
H1375 H 0.37896 0.71852 0.74965 0.0
H1376 H 0.36123 0.70338 0.7198 0.0
H1377 H 0.3044 0.66449 0.76182 0.0
H1378 H 0.27784 0.67261 0.76245 0.0
H1379 H 0.29557 0.68153 0.78189 0.0
H1380 H 0.2862 0.71929 0.7729 0.0
H1381 H 0.26866 0.71053 0.7533 0.0
H1382 H 0.28905 0.7282 0.74672 0.0
H1383 H 0.33667 0.69286 0.69263 0.0
H1384 H 0.30711 0.68401 0.67037 0.0
H1385 H 0.26683 0.68394 0.72371 0.0
C1386 C 0.33141 0.71107 0.77159 0.0
C1387 C 0.35222 0.71734 0.76997 0.0
C1388 C 0.36303 0.71386 0.75131 0.0
C1389 C 0.3531 0.70525 0.73423 0.0
C1390 C 0.33242 0.69992 0.7361 0.0
C1391 C 0.32174 0.70234 0.75436 0.0
C1392 C 0.29928 0.69636 0.7518 0.0
C1393 C 0.29397 0.67763 0.76529 0.0
C1394 C 0.28496 0.71469 0.75645 0.0
C1395 C 0.29894 0.69085 0.7291 0.0
C1396 C 0.31825 0.69305 0.72038 0.0
C1397 C 0.32156 0.69063 0.69932 0.0
C1398 C 0.30469 0.68576 0.6868 0.0
C1399 C 0.28486 0.68313 0.69543 0.0
C1400 C 0.28198 0.68548 0.71686 0.0
H1401 H 0.9916 0.40621 0.48827 0.0
H1402 H 0.9514 0.42221 0.43728 0.0
H1403 H 0.92999 0.44322 0.4606 0.0
H1404 H 0.95167 0.40539 0.52926 0.0
H1405 H 0.96845 0.41723 0.54796 0.0
H1406 H 0.9791 0.40116 0.52797 0.0
H1407 H 0.00308 0.43103 0.51671 0.0
H1408 H 0.99246 0.44719 0.53657 0.0
H1409 H 0.992 0.45565 0.51011 0.0
H1410 H 0.9145 0.46436 0.48834 0.0
H1411 H 0.90646 0.4856 0.51871 0.0
H1412 H 0.95737 0.45739 0.55187 0.0
C1413 C 0.97798 0.41374 0.48222 0.0
C1414 C 0.97294 0.41245 0.46108 0.0
C1415 C 0.95541 0.42298 0.45348 0.0
C1416 C 0.94313 0.43487 0.4666 0.0
C1417 C 0.94869 0.43623 0.48727 0.0
C1418 C 0.96571 0.42603 0.49509 0.0
C1419 C 0.9693 0.43171 0.51749 0.0
C1420 C 0.96699 0.41274 0.5315 0.0
C1421 C 0.99046 0.44201 0.52038 0.0
C1422 C 0.95187 0.44692 0.52086 0.0
C1423 C 0.94003 0.44904 0.50329 0.0
C1424 C 0.92353 0.46272 0.50227 0.0
C1425 C 0.91912 0.47476 0.51962 0.0
C1426 C 0.93125 0.47318 0.53771 0.0
C1427 C 0.94771 0.45887 0.53834 0.0
H1428 H 0.66211 0.24145 0.72957 0.0
H1429 H 0.6821 0.19799 0.68288 0.0
H1430 H 0.69903 0.17693 0.70971 0.0
H1431 H 0.70828 0.24043 0.75814 0.0
H1432 H 0.69601 0.24271 0.78295 0.0
H1433 H 0.68371 0.25321 0.76041 0.0
H1434 H 0.65102 0.23157 0.76807 0.0
H1435 H 0.66326 0.22098 0.79066 0.0
H1436 H 0.65324 0.20404 0.77107 0.0
H1437 H 0.71529 0.1615 0.74141 0.0
H1438 H 0.73113 0.15398 0.77527 0.0
H1439 H 0.70128 0.20807 0.80092 0.0
C1440 C 0.66975 0.22732 0.72506 0.0
C1441 C 0.67068 0.22127 0.70418 0.0
C1442 C 0.68119 0.2029 0.69881 0.0
C1443 C 0.69077 0.19079 0.71394 0.0
C1444 C 0.68978 0.19729 0.73436 0.0
C1445 C 0.67961 0.21517 0.73993 0.0
C1446 C 0.6821 0.21953 0.76272 0.0
C1447 C 0.69319 0.24019 0.76625 0.0
C1448 C 0.66116 0.21899 0.77378 0.0
C1449 C 0.69548 0.20147 0.76902 0.0
C1450 C 0.69954 0.18867 0.75252 0.0
C1451 C 0.7121 0.17134 0.75449 0.0
C1452 C 0.72101 0.16717 0.77378 0.0
C1453 C 0.71746 0.18041 0.79076 0.0
C1454 C 0.70427 0.19759 0.78829 0.0
H1455 H 0.45382 0.04818 0.42691 0.0
H1456 H 0.39414 0.03067 0.45164 0.0
H1457 H 0.39992 0.0532 0.48157 0.0
H1458 H 0.4803 0.04824 0.47345 0.0
H1459 H 0.49622 0.0703 0.46783 0.0
H1460 H 0.4865 0.05465 0.44713 0.0
H1461 H 0.46988 0.08688 0.43037 0.0
H1462 H 0.47956 0.10267 0.45107 0.0
H1463 H 0.45241 0.10256 0.44522 0.0
H1464 H 0.41398 0.07329 0.51092 0.0
H1465 H 0.43497 0.09133 0.53711 0.0
H1466 H 0.48456 0.09798 0.4929 0.0
C1467 C 0.4418 0.0494 0.43842 0.0
C1468 C 0.42353 0.03764 0.4369 0.0
C1469 C 0.40826 0.03954 0.4524 0.0
C1470 C 0.41136 0.05235 0.46947 0.0
C1471 C 0.42968 0.06342 0.4707 0.0
C1472 C 0.44457 0.06229 0.45551 0.0
C1473 C 0.46339 0.07488 0.46124 0.0
C1474 C 0.48273 0.0612 0.46249 0.0
C1475 C 0.46648 0.09282 0.44607 0.0
C1476 C 0.45702 0.08263 0.48233 0.0
C1477 C 0.43747 0.07588 0.48744 0.0
C1478 C 0.42906 0.07916 0.50693 0.0
C1479 C 0.44106 0.08936 0.52168 0.0
C1480 C 0.46107 0.0964 0.51675 0.0
C1481 C 0.46899 0.09336 0.49673 0.0
H1482 H 0.32983 0.28067 0.74361 0.0
H1483 H 0.37185 0.23957 0.77566 0.0
H1484 H 0.35519 0.24822 0.8087 0.0
H1485 H 0.32736 0.31997 0.78383 0.0
H1486 H 0.30041 0.32498 0.77935 0.0
H1487 H 0.31656 0.31639 0.75848 0.0
H1488 H 0.29165 0.28584 0.75189 0.0
H1489 H 0.27555 0.29423 0.77285 0.0
H1490 H 0.2857 0.26838 0.77269 0.0
H1491 H 0.33208 0.25966 0.8382 0.0
H1492 H 0.30581 0.27478 0.86156 0.0
H1493 H 0.27985 0.30835 0.80977 0.0
C1494 C 0.33577 0.27374 0.75759 0.0
C1495 C 0.35216 0.25948 0.757 0.0
C1496 C 0.35932 0.2506 0.77569 0.0
C1497 C 0.34994 0.25537 0.79456 0.0
C1498 C 0.3335 0.26914 0.79454 0.0
C1499 C 0.32663 0.27835 0.77656 0.0
C1500 C 0.30837 0.2922 0.78058 0.0
C1501 C 0.31349 0.31472 0.77525 0.0
C1502 C 0.28919 0.2847 0.76881 0.0
C1503 C 0.30595 0.28922 0.80356 0.0
C1504 C 0.3205 0.27585 0.81142 0.0
C1505 C 0.32072 0.27032 0.83225 0.0
C1506 C 0.30573 0.27889 0.84538 0.0
C1507 C 0.29091 0.29285 0.83756 0.0
C1508 C 0.29111 0.29793 0.81636 0.0
H1509 H 0.54779 0.46916 0.4691 0.0
H1510 H 0.60759 0.48574 0.49406 0.0
H1511 H 0.59622 0.47451 0.52867 0.0
H1512 H 0.5175 0.48521 0.51285 0.0
H1513 H 0.49965 0.46406 0.51057 0.0
H1514 H 0.51238 0.47396 0.48797 0.0
H1515 H 0.52645 0.43748 0.47965 0.0
H1516 H 0.51355 0.42748 0.50206 0.0
H1517 H 0.54089 0.42369 0.49899 0.0
H1518 H 0.57783 0.46096 0.561 0.0
H1519 H 0.5552 0.44369 0.58671 0.0
H1520 H 0.50824 0.43637 0.53972 0.0
C1521 C 0.55856 0.47042 0.4818 0.0
C1522 C 0.57859 0.47832 0.47882 0.0
C1523 C 0.59216 0.47968 0.49592 0.0
C1524 C 0.5858 0.47345 0.51568 0.0
C1525 C 0.56583 0.46594 0.51811 0.0
C1526 C 0.55249 0.4643 0.50154 0.0
C1527 C 0.53209 0.45509 0.50793 0.0
C1528 C 0.51436 0.4705 0.50463 0.0
C1529 C 0.52802 0.43473 0.49648 0.0
C1530 C 0.53611 0.45152 0.5306 0.0
C1531 C 0.55551 0.45806 0.53637 0.0
C1532 C 0.56258 0.45583 0.55663 0.0
C1533 C 0.54964 0.44615 0.57116 0.0
C1534 C 0.53008 0.43867 0.56515 0.0
C1535 C 0.5232 0.44185 0.54474 0.0
H1536 H 0.69965 0.69755 0.81277 0.0
H1537 H 0.73253 0.72205 0.86562 0.0
H1538 H 0.76393 0.7036 0.85464 0.0
H1539 H 0.7244 0.64678 0.81325 0.0
H1540 H 0.72499 0.64502 0.78553 0.0
H1541 H 0.70484 0.65942 0.79807 0.0
H1542 H 0.71442 0.6917 0.77656 0.0
H1543 H 0.73457 0.67741 0.76397 0.0
H1544 H 0.74054 0.70114 0.77708 0.0
H1545 H 0.79261 0.68517 0.83609 0.0
H1546 H 0.8158 0.66627 0.81243 0.0
H1547 H 0.76377 0.65201 0.77298 0.0
C1548 C 0.71339 0.69888 0.82215 0.0
C1549 C 0.71362 0.71127 0.84005 0.0
C1550 C 0.73194 0.71258 0.8519 0.0
C1551 C 0.74987 0.70218 0.84577 0.0
C1552 C 0.74918 0.69028 0.82793 0.0
C1553 C 0.73136 0.68837 0.81641 0.0
C1554 C 0.73482 0.67491 0.79766 0.0
C1555 C 0.72147 0.65537 0.7987 0.0
C1556 C 0.73086 0.68702 0.77764 0.0
C1557 C 0.75747 0.66984 0.80023 0.0
C1558 C 0.7655 0.67893 0.81774 0.0
C1559 C 0.78642 0.67768 0.82254 0.0
C1560 C 0.79947 0.66696 0.80903 0.0
C1561 C 0.79151 0.65742 0.79111 0.0
C1562 C 0.77019 0.65871 0.78685 0.0
H1563 H 0.90145 0.99225 0.48622 0.0
H1564 H 0.90635 0.94425 0.44002 0.0
H1565 H 0.92284 0.9688 0.41612 0.0
H1566 H 0.89368 0.03656 0.45023 0.0
H1567 H 0.90965 0.0534 0.46547 0.0
H1568 H 0.89516 0.03314 0.47777 0.0
H1569 H 0.92876 0.01896 0.4941 0.0
H1570 H 0.94332 0.03912 0.48185 0.0
H1571 H 0.95022 0.01255 0.47766 0.0
H1572 H 0.9417 0.99695 0.39869 0.0
H1573 H 0.96348 0.02657 0.38931 0.0
H1574 H 0.94771 0.05638 0.44711 0.0
C1575 C 0.90549 0.98716 0.47085 0.0
C1576 C 0.90247 0.9665 0.46479 0.0
C1577 C 0.90852 0.96008 0.44486 0.0
C1578 C 0.91776 0.97392 0.43116 0.0
C1579 C 0.92097 0.99409 0.4377 0.0
C1580 C 0.91511 0.00073 0.45708 0.0
C1581 C 0.92248 0.02253 0.46105 0.0
C1582 C 0.90415 0.03728 0.46379 0.0
C1583 C 0.93706 0.02332 0.47976 0.0
C1584 C 0.93388 0.02683 0.44112 0.0
C1585 C 0.93246 0.01035 0.42774 0.0
C1586 C 0.94272 0.01009 0.4089 0.0
C1587 C 0.9551 0.02698 0.40374 0.0
C1588 C 0.95727 0.04382 0.41744 0.0
C1589 C 0.94615 0.04387 0.43619 0.0
H1590 H 0.22932 0.83034 0.79535 0.0
H1591 H 0.26031 0.87588 0.75735 0.0
H1592 H 0.29394 0.86086 0.76694 0.0
H1593 H 0.26853 0.82852 0.83647 0.0
H1594 H 0.26534 0.80118 0.8402 0.0
H1595 H 0.24388 0.81663 0.83167 0.0
H1596 H 0.23939 0.79282 0.79993 0.0
H1597 H 0.2609 0.77741 0.80825 0.0
H1598 H 0.26091 0.78868 0.78285 0.0
H1599 H 0.32375 0.8385 0.7775 0.0
H1600 H 0.34788 0.81205 0.7906 0.0
H1601 H 0.29755 0.78214 0.82287 0.0
C1602 C 0.24318 0.8374 0.78932 0.0
C1603 C 0.24219 0.85429 0.7756 0.0
C1604 C 0.26069 0.863 0.76797 0.0
C1605 C 0.27987 0.85456 0.7733 0.0
C1606 C 0.28027 0.8376 0.78647 0.0
C1607 C 0.26243 0.8293 0.79462 0.0
C1608 C 0.26701 0.81062 0.80784 0.0
C1609 C 0.26083 0.81448 0.83039 0.0
C1610 C 0.25643 0.79125 0.79919 0.0
C1611 C 0.29018 0.80943 0.80549 0.0
C1612 C 0.29753 0.8251 0.79307 0.0
C1613 C 0.31824 0.82637 0.78754 0.0
C1614 C 0.33179 0.81124 0.79495 0.0
C1615 C 0.32458 0.79521 0.80789 0.0
C1616 C 0.30354 0.79444 0.81332 0.0
H1617 H 0.09153 0.52061 0.45168 0.0
H1618 H 0.13789 0.4807 0.47887 0.0
H1619 H 0.12314 0.45103 0.46044 0.0
H1620 H 0.05091 0.48688 0.45695 0.0
H1621 H 0.03828 0.49328 0.43304 0.0
H1622 H 0.05432 0.51202 0.44562 0.0
H1623 H 0.07626 0.51573 0.41246 0.0
H1624 H 0.06022 0.49697 0.39972 0.0
H1625 H 0.08771 0.49316 0.40102 0.0
H1626 H 0.10085 0.42521 0.44365 0.0
H1627 H 0.0724 0.40474 0.42896 0.0
H1628 H 0.0407 0.46096 0.41158 0.0
C1629 C 0.0989 0.50573 0.4533 0.0
C1630 C 0.1159 0.50298 0.46665 0.0
C1631 C 0.12486 0.48319 0.46872 0.0
C1632 C 0.11667 0.46624 0.45823 0.0
C1633 C 0.0996 0.46935 0.4456 0.0
C1634 C 0.09087 0.4886 0.44295 0.0
C1635 C 0.07142 0.48735 0.43006 0.0
C1636 C 0.05263 0.49535 0.44215 0.0
C1637 C 0.07407 0.499 0.4096 0.0
C1638 C 0.07018 0.46431 0.42658 0.0
C1639 C 0.08675 0.45427 0.43549 0.0
C1640 C 0.08805 0.43287 0.43618 0.0
C1641 C 0.07181 0.42139 0.42789 0.0
C1642 C 0.05459 0.43133 0.41893 0.0
C1643 C 0.054 0.45304 0.41783 0.0
H1644 H 0.75415 0.34891 0.71607 0.0
H1645 H 0.80811 0.32805 0.68257 0.0
H1646 H 0.78568 0.30848 0.65878 0.0
H1647 H 0.72788 0.30183 0.71437 0.0
H1648 H 0.70262 0.31308 0.71167 0.0
H1649 H 0.72274 0.32719 0.72446 0.0
H1650 H 0.71753 0.35767 0.69913 0.0
H1651 H 0.69739 0.3436 0.68621 0.0
H1652 H 0.71909 0.35317 0.67176 0.0
H1653 H 0.75727 0.2893 0.63999 0.0
H1654 H 0.72572 0.2708 0.62922 0.0
H1655 H 0.69076 0.3039 0.67564 0.0
C1656 C 0.76125 0.34055 0.7035 0.0
C1657 C 0.78289 0.34016 0.70108 0.0
C1658 C 0.79157 0.32865 0.68468 0.0
C1659 C 0.77895 0.31755 0.67104 0.0
C1660 C 0.75767 0.31807 0.67402 0.0
C1661 C 0.74892 0.32926 0.68989 0.0
C1662 C 0.72583 0.32605 0.69081 0.0
C1663 C 0.7194 0.31646 0.71155 0.0
C1664 C 0.71428 0.34633 0.68673 0.0
C1665 C 0.72298 0.31102 0.67321 0.0
C1666 C 0.74145 0.3068 0.66351 0.0
C1667 C 0.7427 0.29265 0.64737 0.0
C1668 C 0.72468 0.28225 0.64131 0.0
C1669 C 0.70573 0.28591 0.65152 0.0
C1670 C 0.70494 0.30081 0.66739 0.0
H1671 H 0.56509 0.96247 0.54283 0.0
H1672 H 0.61518 0.99288 0.51047 0.0
H1673 H 0.60159 0.02662 0.52113 0.0
H1674 H 0.52668 0.99736 0.52896 0.0
H1675 H 0.51321 0.99679 0.55325 0.0
H1676 H 0.52798 0.97478 0.54512 0.0
H1677 H 0.5491 0.97608 0.579 0.0
H1678 H 0.53426 0.99803 0.58734 0.0
H1679 H 0.56197 0.99962 0.58618 0.0
H1680 H 0.58077 0.0569 0.53168 0.0
H1681 H 0.55489 0.08209 0.5435 0.0
H1682 H 0.51867 0.03246 0.56997 0.0
C1683 C 0.57346 0.9762 0.53838 0.0
C1684 C 0.59122 0.97501 0.52583 0.0
C1685 C 0.60155 0.99337 0.52008 0.0
C1686 C 0.59398 0.01264 0.52608 0.0
C1687 C 0.57615 0.01331 0.53796 0.0
C1688 C 0.56612 0.99561 0.54427 0.0
C1689 C 0.54663 0.00074 0.55607 0.0
C1690 C 0.5275 0.99189 0.54519 0.0
C1691 C 0.54809 0.99317 0.57848 0.0
C1692 C 0.54705 0.02405 0.55492 0.0
C1693 C 0.56425 0.03095 0.54445 0.0
C1694 C 0.5674 0.05174 0.54021 0.0
C1695 C 0.55257 0.06591 0.54687 0.0
C1696 C 0.53488 0.05922 0.55775 0.0
C1697 C 0.53222 0.03803 0.56197 0.0
H1698 H 0.31516 0.19845 0.71154 0.0
H1699 H 0.29521 0.24298 0.66568 0.0
H1700 H 0.26013 0.22855 0.66689 0.0
H1701 H 0.28262 0.15554 0.6934 0.0
H1702 H 0.27742 0.14663 0.71921 0.0
H1703 H 0.30144 0.15935 0.7135 0.0
H1704 H 0.29426 0.18601 0.74235 0.0
H1705 H 0.27028 0.17338 0.74814 0.0
H1706 H 0.27053 0.20046 0.74193 0.0
H1707 H 0.22635 0.2116 0.67555 0.0
H1708 H 0.19682 0.19274 0.69061 0.0
H1709 H 0.23898 0.15852 0.72973 0.0
C1710 C 0.30351 0.20495 0.7015 0.0
C1711 C 0.30802 0.22184 0.6885 0.0
C1712 C 0.29222 0.23001 0.67576 0.0
C1713 C 0.2722 0.2219 0.67629 0.0
C1714 C 0.2682 0.20547 0.68949 0.0
C1715 C 0.28344 0.19698 0.70176 0.0
C1716 C 0.27484 0.18004 0.71533 0.0
C1717 C 0.28466 0.15915 0.71003 0.0
C1718 C 0.27764 0.1853 0.73829 0.0
C1719 C 0.25234 0.18067 0.70909 0.0
C1720 C 0.2488 0.19539 0.69412 0.0
C1721 C 0.22897 0.19977 0.68702 0.0
C1722 C 0.21229 0.189 0.69566 0.0
C1723 C 0.21558 0.17396 0.71113 0.0
C1724 C 0.23594 0.16958 0.7176 0.0
H1725 H 0.44708 0.42964 0.53408 0.0
H1726 H 0.43544 0.43854 0.59927 0.0
H1727 H 0.41613 0.4703 0.59157 0.0
H1728 H 0.4574 0.48031 0.52308 0.0
H1729 H 0.44527 0.48126 0.4981 0.0
H1730 H 0.45495 0.45719 0.50789 0.0
H1731 H 0.419 0.44046 0.5034 0.0
H1732 H 0.40923 0.46442 0.49324 0.0
H1733 H 0.39677 0.45243 0.51498 0.0
H1734 H 0.40401 0.50367 0.57804 0.0
H1735 H 0.39614 0.53551 0.55866 0.0
H1736 H 0.41374 0.50538 0.50172 0.0
C1737 C 0.43964 0.43782 0.54658 0.0
C1738 C 0.44246 0.43151 0.56726 0.0
C1739 C 0.43326 0.44303 0.58333 0.0
C1740 C 0.42229 0.4611 0.57911 0.0
C1741 C 0.42056 0.46747 0.5587 0.0
C1742 C 0.42864 0.45607 0.5426 0.0
C1743 C 0.42611 0.46747 0.52228 0.0
C1744 C 0.44718 0.47181 0.51226 0.0
C1745 C 0.41193 0.45548 0.50761 0.0
C1746 C 0.41594 0.48724 0.52962 0.0
C1747 C 0.41292 0.48684 0.55071 0.0
C1748 C 0.40575 0.50399 0.56146 0.0
C1749 C 0.40145 0.52202 0.55038 0.0
C1750 C 0.40402 0.52267 0.52876 0.0
C1751 C 0.41115 0.50501 0.51821 0.0
H1752 H 0.79907 0.68407 0.71189 0.0
H1753 H 0.85888 0.71098 0.72524 0.0
H1754 H 0.84787 0.74342 0.70881 0.0
H1755 H 0.7914 0.7096 0.66181 0.0
H1756 H 0.76419 0.71323 0.66601 0.0
H1757 H 0.77724 0.69154 0.67747 0.0
H1758 H 0.76428 0.70271 0.71354 0.0
H1759 H 0.75125 0.72444 0.70223 0.0
H1760 H 0.76971 0.72839 0.72261 0.0
H1761 H 0.82967 0.77368 0.69374 0.0
H1762 H 0.80569 0.7997 0.67985 0.0
H1763 H 0.7578 0.75325 0.67529 0.0
C1764 C 0.80998 0.69667 0.71107 0.0
C1765 C 0.82988 0.69493 0.71983 0.0
C1766 C 0.84359 0.71188 0.71862 0.0
C1767 C 0.83749 0.73039 0.70929 0.0
C1768 C 0.81768 0.73169 0.70112 0.0
C1769 C 0.80416 0.71527 0.70177 0.0
C1770 C 0.78344 0.72105 0.69259 0.0
C1771 C 0.7788 0.70808 0.67332 0.0
C1772 C 0.76616 0.71903 0.70871 0.0
C1773 C 0.78734 0.7434 0.68702 0.0
C1774 C 0.80721 0.74917 0.69206 0.0
C1775 C 0.81415 0.7693 0.68948 0.0
C1776 C 0.80039 0.78398 0.68165 0.0
C1777 C 0.77994 0.77846 0.67636 0.0
C1778 C 0.77344 0.75783 0.67888 0.0
H1779 H 0.80442 0.32246 0.78977 0.0
H1780 H 0.85351 0.29007 0.75796 0.0
H1781 H 0.84437 0.2581 0.77674 0.0
H1782 H 0.80935 0.29516 0.83948 0.0
H1783 H 0.78188 0.29531 0.84356 0.0
H1784 H 0.79389 0.31589 0.8293 0.0
H1785 H 0.76933 0.30892 0.79855 0.0
H1786 H 0.75734 0.28829 0.81263 0.0
H1787 H 0.76822 0.28345 0.78754 0.0
H1788 H 0.82691 0.22885 0.796 0.0
H1789 H 0.80384 0.20533 0.81518 0.0
H1790 H 0.76704 0.2576 0.83476 0.0
C1791 C 0.81353 0.30875 0.78698 0.0
C1792 C 0.82968 0.30873 0.77239 0.0
C1793 C 0.84116 0.29046 0.76917 0.0
C1794 C 0.83606 0.27224 0.77974 0.0
C1795 C 0.81966 0.27271 0.79366 0.0
C1796 C 0.80876 0.29059 0.79745 0.0
C1797 C 0.79111 0.28693 0.81222 0.0
C1798 C 0.79425 0.29904 0.83233 0.0
C1799 C 0.77028 0.29221 0.80212 0.0
C1800 C 0.79335 0.26402 0.81572 0.0
C1801 C 0.80994 0.25606 0.80499 0.0
C1802 C 0.81411 0.23499 0.80474 0.0
C1803 C 0.80088 0.22174 0.81562 0.0
C1804 C 0.78375 0.22965 0.8266 0.0
C1805 C 0.7802 0.2511 0.82682 0.0
H1806 H 0.56046 0.93506 0.45368 0.0
H1807 H 0.52462 0.89938 0.49747 0.0
H1808 H 0.49266 0.90929 0.47916 0.0
H1809 H 0.5267 0.97661 0.44989 0.0
H1810 H 0.53076 0.98093 0.42275 0.0
H1811 H 0.55079 0.96941 0.43808 0.0
H1812 H 0.55191 0.93802 0.41343 0.0
H1813 H 0.53194 0.94951 0.39791 0.0
H1814 H 0.52856 0.92392 0.40818 0.0
H1815 H 0.46438 0.92615 0.45794 0.0
H1816 H 0.44248 0.94703 0.43467 0.0
H1817 H 0.49731 0.97073 0.40461 0.0
C1818 C 0.54595 0.92901 0.45926 0.0
C1819 C 0.54505 0.91642 0.477 0.0
C1820 C 0.5257 0.90895 0.48383 0.0
C1821 C 0.50746 0.91453 0.47355 0.0
C1822 C 0.50889 0.92737 0.45636 0.0
C1823 C 0.52769 0.93431 0.44915 0.0
C1824 C 0.52509 0.94865 0.43094 0.0
C1825 C 0.53385 0.97017 0.43571 0.0
C1826 C 0.53496 0.93947 0.41146 0.0
C1827 C 0.50186 0.9491 0.42927 0.0
C1828 C 0.49273 0.93671 0.44401 0.0
C1829 C 0.47137 0.93565 0.44615 0.0
C1830 C 0.45906 0.94761 0.43291 0.0
C1831 C 0.46816 0.96038 0.41772 0.0
C1832 C 0.48984 0.9609 0.41585 0.0
H1833 H 0.2222 0.27123 0.83438 0.0
H1834 H 0.18584 0.32157 0.80953 0.0
H1835 H 0.16628 0.29661 0.78813 0.0
H1836 H 0.22679 0.24376 0.78713 0.0
H1837 H 0.22574 0.21874 0.79917 0.0
H1838 H 0.23582 0.24043 0.8132 0.0
H1839 H 0.2094 0.2339 0.84244 0.0
H1840 H 0.19919 0.2122 0.82849 0.0
H1841 H 0.1823 0.2328 0.83636 0.0
H1842 H 0.15078 0.26583 0.76977 0.0
H1843 H 0.14213 0.23249 0.7538 0.0
H1844 H 0.19019 0.20274 0.78969 0.0
C1845 C 0.20994 0.27704 0.82465 0.0
C1846 C 0.20527 0.29831 0.82382 0.0
C1847 C 0.18952 0.30532 0.81047 0.0
C1848 C 0.17835 0.29126 0.79833 0.0
C1849 C 0.18338 0.27036 0.79959 0.0
C1850 C 0.19896 0.26334 0.81227 0.0
C1851 C 0.20217 0.24033 0.81007 0.0
C1852 C 0.22392 0.23554 0.8019 0.0
C1853 C 0.19801 0.22915 0.83056 0.0
C1854 C 0.18585 0.23536 0.79421 0.0
C1855 C 0.17505 0.25285 0.78849 0.0
C1856 C 0.15916 0.25208 0.77411 0.0
C1857 C 0.15434 0.23301 0.76518 0.0
C1858 C 0.16549 0.21495 0.77048 0.0
C1859 C 0.18139 0.21623 0.78529 0.0
H1860 H 0.03497 0.05052 0.93019 0.0
H1861 H 0.00369 0.02389 0.87735 0.0
H1862 H 0.97061 0.03737 0.89012 0.0
H1863 H 0.99752 0.03841 0.96635 0.0
H1864 H 0.99983 0.06177 0.98117 0.0
H1865 H 0.02154 0.05236 0.96674 0.0
H1866 H 0.02421 0.08725 0.94749 0.0
H1867 H 0.00257 0.09687 0.96201 0.0
H1868 H 0.00196 0.09734 0.93424 0.0
H1869 H 0.9406 0.04957 0.91058 0.0
H1870 H 0.91563 0.06182 0.93652 0.0
H1871 H 0.96608 0.08174 0.97564 0.0
C1872 C 0.02125 0.04797 0.92103 0.0
C1873 C 0.02196 0.03617 0.90273 0.0
C1874 C 0.00358 0.0329 0.89139 0.0
C1875 C 0.98469 0.04052 0.8985 0.0
C1876 C 0.98442 0.05156 0.91688 0.0
C1877 C 0.00222 0.05553 0.92789 0.0
C1878 C 0.99745 0.06672 0.94783 0.0
C1879 C 0.0045 0.05405 0.96662 0.0
C1880 C 0.00712 0.08833 0.94789 0.0
C1881 C 0.97415 0.06786 0.94656 0.0
C1882 C 0.96699 0.05908 0.92854 0.0
C1883 C 0.94601 0.05685 0.92456 0.0
C1884 C 0.93196 0.06375 0.93943 0.0
C1885 C 0.93894 0.07289 0.95796 0.0
C1886 C 0.96032 0.07518 0.96142 0.0
H1887 H 0.70858 0.22723 0.18229 0.0
H1888 H 0.7304 0.26767 0.1336 0.0
H1889 H 0.71373 0.29715 0.15055 0.0
H1890 H 0.65857 0.25425 0.19125 0.0
H1891 H 0.65984 0.25043 0.21874 0.0
H1892 H 0.67133 0.23184 0.20161 0.0
H1893 H 0.70627 0.23601 0.22046 0.0
H1894 H 0.69494 0.25464 0.23758 0.0
H1895 H 0.71752 0.26129 0.22283 0.0
H1896 H 0.69892 0.32268 0.17426 0.0
H1897 H 0.68544 0.34308 0.2033 0.0
H1898 H 0.67176 0.28685 0.23677 0.0
C1899 C 0.70941 0.24221 0.17497 0.0
C1900 C 0.72076 0.24513 0.15657 0.0
C1901 C 0.72183 0.26504 0.14767 0.0
C1902 C 0.71233 0.28189 0.15714 0.0
C1903 C 0.7017 0.27863 0.17547 0.0
C1904 C 0.7 0.25931 0.18428 0.0
C1905 C 0.68888 0.26045 0.20485 0.0
C1906 C 0.66844 0.24853 0.20406 0.0
C1907 C 0.70274 0.25264 0.22246 0.0
C1908 C 0.68519 0.28349 0.20644 0.0
C1909 C 0.69264 0.29359 0.18921 0.0
C1910 C 0.69266 0.31497 0.18766 0.0
C1911 C 0.68507 0.32641 0.20425 0.0
C1912 C 0.67739 0.31648 0.22208 0.0
C1913 C 0.67711 0.29474 0.22307 0.0
H1914 H 0.56035 0.05718 0.04155 0.0
H1915 H 0.52968 0.11128 0.01673 0.0
H1916 H 0.49874 0.10308 0.03701 0.0
H1917 H 0.51759 0.02466 0.0394 0.0
H1918 H 0.5229 0.01107 0.06305 0.0
H1919 H 0.54371 0.02237 0.04863 0.0
H1920 H 0.55498 0.04309 0.08083 0.0
H1921 H 0.5342 0.03179 0.0954 0.0
H1922 H 0.53656 0.05941 0.09372 0.0
H1923 H 0.47007 0.08739 0.05641 0.0
H1924 H 0.44523 0.06518 0.07464 0.0
H1925 H 0.49399 0.02137 0.08795 0.0
C1926 C 0.54728 0.06753 0.04076 0.0
C1927 C 0.54746 0.08491 0.02759 0.0
C1928 C 0.52992 0.09787 0.02668 0.0
C1929 C 0.51227 0.09341 0.03822 0.0
C1930 C 0.5124 0.07597 0.05069 0.0
C1931 C 0.52944 0.06326 0.05218 0.0
C1932 C 0.52488 0.04468 0.06565 0.0
C1933 C 0.52742 0.02451 0.05345 0.0
C1934 C 0.53846 0.04476 0.08506 0.0
C1935 C 0.50247 0.04869 0.07097 0.0
C1936 C 0.49569 0.06693 0.06227 0.0
C1937 C 0.47524 0.07326 0.06361 0.0
C1938 C 0.46124 0.06051 0.07392 0.0
C1939 C 0.46776 0.0417 0.08284 0.0
C1940 C 0.48872 0.0359 0.08165 0.0
H1941 H 0.50465 0.46619 0.08865 0.0
H1942 H 0.55288 0.42469 0.06814 0.0
H1943 H 0.52728 0.40474 0.04832 0.0
H1944 H 0.46254 0.42747 0.09168 0.0
H1945 H 0.44365 0.44534 0.08189 0.0
H1946 H 0.46521 0.45465 0.09672 0.0
H1947 H 0.47502 0.47933 0.06687 0.0
H1948 H 0.4536 0.47004 0.05193 0.0
H1949 H 0.4793 0.46896 0.04146 0.0
H1950 H 0.49719 0.39131 0.02804 0.0
H1951 H 0.46492 0.38571 0.0086 0.0
H1952 H 0.43636 0.43625 0.04182 0.0
C1953 C 0.50971 0.45255 0.08047 0.0
C1954 C 0.53073 0.44686 0.08013 0.0
C1955 C 0.53684 0.42928 0.06872 0.0
C1956 C 0.5224 0.41781 0.05745 0.0
C1957 C 0.50188 0.42412 0.05768 0.0
C1958 C 0.49551 0.44105 0.06894 0.0
C1959 C 0.47292 0.44564 0.06513 0.0
C1960 C 0.46034 0.44312 0.08504 0.0
C1961 C 0.47005 0.46727 0.05579 0.0
C1962 C 0.46772 0.42893 0.04966 0.0
C1963 C 0.48457 0.41654 0.04574 0.0
C1964 C 0.48381 0.40075 0.03118 0.0
C1965 C 0.46541 0.3977 0.02019 0.0
C1966 C 0.44804 0.41045 0.02372 0.0
C1967 C 0.44925 0.42607 0.03889 0.0
H1968 H 0.11459 0.27415 0.37757 0.0
H1969 H 0.09211 0.2727 0.3146 0.0
H1970 H 0.06455 0.29737 0.32393 0.0
H1971 H 0.06372 0.27705 0.40182 0.0
H1972 H 0.07258 0.29377 0.42215 0.0
H1973 H 0.09005 0.27556 0.41058 0.0
H1974 H 0.11532 0.30524 0.40195 0.0
H1975 H 0.09792 0.32354 0.4134 0.0
H1976 H 0.1063 0.32697 0.38713 0.0
H1977 H 0.04168 0.32455 0.33944 0.0
H1978 H 0.02291 0.34994 0.36069 0.0
H1979 H 0.05867 0.33177 0.4142 0.0
C1980 C 0.10378 0.27893 0.36578 0.0
C1981 C 0.10551 0.27165 0.34532 0.0
C1982 C 0.09099 0.27807 0.33036 0.0
C1983 C 0.07535 0.2921 0.33551 0.0
C1984 C 0.07424 0.29919 0.35577 0.0
C1985 C 0.08787 0.29258 0.37075 0.0
C1986 C 0.08334 0.30252 0.39138 0.0
C1987 C 0.07704 0.28625 0.40743 0.0
C1988 C 0.10182 0.31533 0.3989 0.0
C1989 C 0.06531 0.31616 0.38559 0.0
C1990 C 0.06039 0.31409 0.36494 0.0
C1991 C 0.04517 0.32605 0.35568 0.0
C1992 C 0.03468 0.34049 0.36784 0.0
C1993 C 0.03926 0.34263 0.38908 0.0
C1994 C 0.05464 0.33016 0.39808 0.0
H1995 H 0.61574 0.70373 0.88406 0.0
H1996 H 0.61983 0.68422 0.82025 0.0
H1997 H 0.59541 0.65598 0.82725 0.0
H1998 H 0.60968 0.65213 0.90716 0.0
H1999 H 0.59113 0.66082 0.92592 0.0
H2000 H 0.61063 0.67824 0.91657 0.0
H2001 H 0.58225 0.70412 0.90562 0.0
H2002 H 0.56268 0.68675 0.91481 0.0
H2003 H 0.562 0.69575 0.88853 0.0
H2004 H 0.56974 0.63112 0.84032 0.0
H2005 H 0.54303 0.61133 0.85849 0.0
H2006 H 0.55373 0.64755 0.91378 0.0
C2007 C 0.61178 0.6932 0.87174 0.0
C2008 C 0.61977 0.69595 0.85167 0.0
C2009 C 0.61388 0.68229 0.83573 0.0
C2010 C 0.60009 0.66619 0.83957 0.0
C2011 C 0.59216 0.66409 0.85938 0.0
C2012 C 0.59767 0.67721 0.87522 0.0
C2013 C 0.58562 0.67235 0.89468 0.0
C2014 C 0.60013 0.66547 0.91211 0.0
C2015 C 0.57235 0.69084 0.90129 0.0
C2016 C 0.57237 0.65462 0.88717 0.0
C2017 C 0.57663 0.65001 0.86683 0.0
C2018 C 0.5663 0.63449 0.85628 0.0
C2019 C 0.55113 0.62334 0.86677 0.0
C2020 C 0.54625 0.62788 0.88757 0.0
C2021 C 0.55709 0.64372 0.89789 0.0
H2022 H 0.88802 0.20887 0.38154 0.0
H2023 H 0.9066 0.20742 0.31728 0.0
H2024 H 0.93269 0.18096 0.32548 0.0
H2025 H 0.93948 0.20323 0.40253 0.0
H2026 H 0.93118 0.18743 0.42383 0.0
H2027 H 0.91387 0.20619 0.41288 0.0
H2028 H 0.88674 0.17758 0.40663 0.0
H2029 H 0.90398 0.15873 0.4175 0.0
H2030 H 0.89377 0.1551 0.39192 0.0
H2031 H 0.95549 0.15356 0.34027 0.0
H2032 H 0.97548 0.12884 0.36119 0.0
H2033 H 0.94346 0.14939 0.41619 0.0
C2034 C 0.89759 0.20299 0.36921 0.0
C2035 C 0.89524 0.21012 0.34876 0.0
C2036 C 0.90818 0.20221 0.33307 0.0
C2037 C 0.92299 0.18714 0.33756 0.0
C2038 C 0.92483 0.18035 0.35785 0.0
C2039 C 0.91267 0.18817 0.37347 0.0
C2040 C 0.91806 0.1785 0.39404 0.0
C2041 C 0.92613 0.19481 0.40921 0.0
C2042 C 0.89953 0.16678 0.40305 0.0
C2043 C 0.93501 0.16387 0.38749 0.0
C2044 C 0.93855 0.16508 0.36652 0.0
C2045 C 0.95299 0.15259 0.35674 0.0
C2046 C 0.9642 0.13854 0.36873 0.0
C2047 C 0.96107 0.13728 0.3903 0.0
C2048 C 0.94631 0.15017 0.39976 0.0
H2049 H 0.4592 0.84715 0.91037 0.0
H2050 H 0.48369 0.88283 0.85927 0.0
H2051 H 0.46354 0.86193 0.83493 0.0
H2052 H 0.4589 0.79841 0.88525 0.0
H2053 H 0.43486 0.78995 0.8963 0.0
H2054 H 0.45084 0.80798 0.91005 0.0
H2055 H 0.4203 0.83362 0.91216 0.0
H2056 H 0.4042 0.81563 0.89846 0.0
H2057 H 0.4074 0.84149 0.88882 0.0
H2058 H 0.44312 0.83602 0.81595 0.0
H2059 H 0.42091 0.80793 0.80332 0.0
H2060 H 0.4075 0.79003 0.86638 0.0
C2061 C 0.4602 0.85061 0.89407 0.0
C2062 C 0.47304 0.86659 0.88671 0.0
C2063 C 0.4739 0.87073 0.86528 0.0
C2064 C 0.46256 0.85891 0.8513 0.0
C2065 C 0.4502 0.8432 0.859 0.0
C2066 C 0.44869 0.83914 0.87986 0.0
C2067 C 0.4341 0.82135 0.88391 0.0
C2068 C 0.44535 0.80336 0.8945 0.0
C2069 C 0.41539 0.82845 0.89659 0.0
C2070 C 0.42796 0.81589 0.86204 0.0
C2071 C 0.43758 0.82864 0.84796 0.0
C2072 C 0.43528 0.82607 0.8268 0.0
C2073 C 0.42273 0.81004 0.81978 0.0
C2074 C 0.41245 0.79697 0.8339 0.0
C2075 C 0.41498 0.80002 0.8553 0.0
H2076 H 0.10833 0.69296 0.15795 0.0
H2077 H 0.07511 0.75088 0.15681 0.0
H2078 H 0.04792 0.73491 0.13527 0.0
H2079 H 0.09837 0.67717 0.10757 0.0
H2080 H 0.09458 0.6503 0.1135 0.0
H2081 H 0.11087 0.66586 0.12967 0.0
H2082 H 0.08909 0.65616 0.16171 0.0
H2083 H 0.07297 0.64021 0.14571 0.0
H2084 H 0.06161 0.66021 0.16127 0.0
H2085 H 0.027 0.71369 0.11014 0.0
H2086 H 0.01003 0.68692 0.0888 0.0
H2087 H 0.0549 0.64198 0.1095 0.0
C2088 C 0.09506 0.70208 0.15353 0.0
C2089 C 0.09362 0.72305 0.15903 0.0
C2090 C 0.07621 0.73468 0.15295 0.0
C2091 C 0.06085 0.7258 0.14058 0.0
C2092 C 0.06297 0.70518 0.13493 0.0
C2093 C 0.07931 0.69329 0.14173 0.0
C2094 C 0.07779 0.67142 0.13378 0.0
C2095 C 0.09652 0.66588 0.12033 0.0
C2096 C 0.0752 0.6561 0.15168 0.0
C2097 C 0.05834 0.67297 0.121 0.0
C2098 C 0.0502 0.69266 0.12158 0.0
C2099 C 0.03301 0.69814 0.10988 0.0
C2100 C 0.02362 0.68296 0.09768 0.0
C2101 C 0.03122 0.66254 0.09767 0.0
C2102 C 0.04879 0.65752 0.10943 0.0
H2103 H 0.88405 0.7115 0.1234 0.0
H2104 H 0.8806 0.68898 0.18627 0.0
H2105 H 0.90228 0.65916 0.17687 0.0
H2106 H 0.88546 0.66108 0.09721 0.0
H2107 H 0.90413 0.66953 0.07846 0.0
H2108 H 0.88619 0.68772 0.08935 0.0
H2109 H 0.91659 0.71082 0.10104 0.0
H2110 H 0.93459 0.69275 0.09018 0.0
H2111 H 0.93665 0.69994 0.11693 0.0
H2112 H 0.92544 0.63294 0.16136 0.0
H2113 H 0.95133 0.61349 0.1416 0.0
H2114 H 0.94168 0.65402 0.08915 0.0
C2115 C 0.88757 0.70003 0.13503 0.0
C2116 C 0.88055 0.70231 0.15548 0.0
C2117 C 0.88585 0.6874 0.1705 0.0
C2118 C 0.89802 0.67038 0.16528 0.0
C2119 C 0.90493 0.66865 0.14504 0.0
C2120 C 0.90009 0.68315 0.13017 0.0
C2121 C 0.91123 0.67871 0.11013 0.0
C2122 C 0.89583 0.67397 0.09276 0.0
C2123 C 0.92562 0.69662 0.10424 0.0
C2124 C 0.92331 0.65967 0.1162 0.0
C2125 C 0.91912 0.65393 0.13627 0.0
C2126 C 0.92879 0.63719 0.14558 0.0
C2127 C 0.94347 0.62623 0.13421 0.0
C2128 C 0.94856 0.63223 0.11383 0.0
C2129 C 0.93808 0.649 0.10466 0.0
H2130 H 0.89113 0.80092 0.15033 0.0
H2131 H 0.85847 0.78266 0.09485 0.0
H2132 H 0.88235 0.80347 0.0739 0.0
H2133 H 0.90036 0.85364 0.13406 0.0
H2134 H 0.92549 0.85504 0.14583 0.0
H2135 H 0.90606 0.83841 0.15661 0.0
H2136 H 0.93093 0.80732 0.15352 0.0
H2137 H 0.9504 0.82385 0.14266 0.0
H2138 H 0.94213 0.80123 0.12884 0.0
H2139 H 0.91038 0.82468 0.05877 0.0
H2140 H 0.93925 0.84787 0.05041 0.0
H2141 H 0.9528 0.85458 0.1156 0.0
C2142 C 0.88903 0.80134 0.13378 0.0
C2143 C 0.87298 0.79012 0.1242 0.0
C2144 C 0.87059 0.79119 0.10253 0.0
C2145 C 0.88413 0.80289 0.09047 0.0
C2146 C 0.89981 0.81368 0.10034 0.0
C2147 C 0.90221 0.81327 0.1215 0.0
C2148 C 0.92007 0.82683 0.12816 0.0
C2149 C 0.91254 0.84453 0.14198 0.0
C2150 C 0.93688 0.81404 0.13893 0.0
C2151 C 0.92738 0.83475 0.10741 0.0
C2152 C 0.91558 0.82675 0.09159 0.0
C2153 C 0.91965 0.83119 0.07101 0.0
C2154 C 0.93614 0.84431 0.06642 0.0
C2155 C 0.94821 0.85309 0.08235 0.0
C2156 C 0.94372 0.84823 0.10312 0.0
H2157 H 0.03808 0.84618 0.09524 0.0
H2158 H 0.04363 0.90156 0.1324 0.0
H2159 H 0.0708 0.88519 0.15296 0.0
H2160 H 0.0437 0.81108 0.13626 0.0
H2161 H 0.05867 0.79236 0.12225 0.0
H2162 H 0.04103 0.80894 0.10869 0.0
H2163 H 0.0707 0.82147 0.08511 0.0
H2164 H 0.08845 0.80487 0.09862 0.0
H2165 H 0.0937 0.83207 0.09654 0.0
H2166 H 0.09428 0.86248 0.17186 0.0
H2167 H 0.11384 0.83414 0.18793 0.0
H2168 H 0.09484 0.79304 0.13879 0.0
C2169 C 0.04532 0.85493 0.10745 0.0
C2170 C 0.03869 0.87516 0.11219 0.0
C2171 C 0.04833 0.88602 0.12851 0.0
C2172 C 0.06389 0.87691 0.14025 0.0
C2173 C 0.06981 0.85689 0.13551 0.0
C2174 C 0.06097 0.84597 0.1195 0.0
C2175 C 0.06947 0.82416 0.11873 0.0
C2176 C 0.05219 0.8082 0.12166 0.0
C2177 C 0.08129 0.82043 0.09855 0.0
C2178 C 0.08399 0.8245 0.13711 0.0
C2179 C 0.08395 0.84364 0.14642 0.0
C2180 C 0.09477 0.84752 0.16454 0.0
C2181 C 0.10577 0.83134 0.17358 0.0
C2182 C 0.10603 0.81158 0.16443 0.0
C2183 C 0.09528 0.80818 0.14577 0.0
H2184 H 0.3565 0.10567 0.29555 0.0
H2185 H 0.41374 0.1358 0.27861 0.0
H2186 H 0.43339 0.10882 0.29684 0.0
H2187 H 0.37282 0.09191 0.34678 0.0
H2188 H 0.35943 0.06758 0.34702 0.0
H2189 H 0.34975 0.08859 0.33164 0.0
H2190 H 0.35078 0.06539 0.29918 0.0
H2191 H 0.36053 0.04433 0.31445 0.0
H2192 H 0.37457 0.05292 0.29207 0.0
H2193 H 0.44688 0.07861 0.31608 0.0
H2194 H 0.45361 0.04859 0.33831 0.0
H2195 H 0.38775 0.03889 0.34519 0.0
C2196 C 0.37317 0.10646 0.29561 0.0
C2197 C 0.38364 0.12273 0.28559 0.0
C2198 C 0.40544 0.12349 0.28624 0.0
C2199 C 0.41673 0.10819 0.29645 0.0
C2200 C 0.40599 0.09239 0.30619 0.0
C2201 C 0.38471 0.09151 0.30613 0.0
C2202 C 0.37705 0.0734 0.31882 0.0
C2203 C 0.36399 0.08082 0.33715 0.0
C2204 C 0.36502 0.05811 0.30532 0.0
C2205 C 0.39737 0.06429 0.32597 0.0
C2206 C 0.41383 0.07535 0.31822 0.0
C2207 C 0.43414 0.06985 0.32233 0.0
C2208 C 0.43779 0.05271 0.33492 0.0
C2209 C 0.42121 0.04141 0.34353 0.0
C2210 C 0.40073 0.04728 0.3389 0.0
H2211 H 0.33456 0.40154 0.95807 0.0
H2212 H 0.38698 0.39463 0.91729 0.0
H2213 H 0.36329 0.38999 0.88767 0.0
H2214 H 0.30603 0.36163 0.93597 0.0
H2215 H 0.28135 0.37379 0.9398 0.0
H2216 H 0.30246 0.37974 0.95671 0.0
H2217 H 0.29796 0.41855 0.94817 0.0
H2218 H 0.27706 0.41257 0.93087 0.0
H2219 H 0.29897 0.42698 0.92171 0.0
H2220 H 0.33382 0.38405 0.86297 0.0
H2221 H 0.30184 0.37099 0.8467 0.0
H2222 H 0.26916 0.37933 0.9042 0.0
C2223 C 0.34101 0.39941 0.94281 0.0
C2224 C 0.36251 0.39868 0.93981 0.0
C2225 C 0.37049 0.39526 0.91981 0.0
C2226 C 0.35716 0.39286 0.90291 0.0
C2227 C 0.33595 0.39368 0.90637 0.0
C2228 C 0.32795 0.3965 0.92592 0.0
C2229 C 0.30477 0.39397 0.92609 0.0
C2230 C 0.29829 0.37623 0.94048 0.0
C2231 C 0.29406 0.41423 0.93206 0.0
C2232 C 0.30099 0.38876 0.90368 0.0
C2233 C 0.31906 0.38933 0.89238 0.0
C2234 C 0.31954 0.38386 0.87158 0.0
C2235 C 0.3013 0.37669 0.86238 0.0
C2236 C 0.28309 0.37474 0.87414 0.0
C2237 C 0.28281 0.38138 0.89481 0.0
H2238 H 0.6558 0.40317 0.31917 0.0
H2239 H 0.60302 0.3634 0.3088 0.0
H2240 H 0.58386 0.38187 0.33598 0.0
H2241 H 0.64974 0.40726 0.37516 0.0
H2242 H 0.65768 0.43386 0.37573 0.0
H2243 H 0.66766 0.41683 0.35621 0.0
H2244 H 0.65476 0.44172 0.32773 0.0
H2245 H 0.64481 0.45883 0.34714 0.0
H2246 H 0.628 0.44919 0.32725 0.0
H2247 H 0.56947 0.40645 0.36203 0.0
H2248 H 0.5611 0.43496 0.38579 0.0
H2249 H 0.6237 0.45777 0.38059 0.0
C2250 C 0.64026 0.39822 0.32271 0.0
C2251 C 0.6309 0.38183 0.31182 0.0
C2252 C 0.61054 0.37586 0.31695 0.0
C2253 C 0.59954 0.38625 0.33239 0.0
C2254 C 0.60919 0.4024 0.34273 0.0
C2255 C 0.62914 0.40829 0.33821 0.0
C2256 C 0.63572 0.42655 0.35119 0.0
C2257 C 0.65377 0.42077 0.36542 0.0
C2258 C 0.64113 0.44517 0.33751 0.0
C2259 C 0.61619 0.43033 0.3634 0.0
C2260 C 0.60109 0.41619 0.35829 0.0
C2261 C 0.58126 0.41739 0.36641 0.0
C2262 C 0.57665 0.43364 0.37986 0.0
C2263 C 0.59184 0.44835 0.38523 0.0
C2264 C 0.61196 0.44643 0.37715 0.0
H2265 H 0.65152 0.10238 0.94505 0.0
H2266 H 0.60051 0.14559 0.94145 0.0
H2267 H 0.62046 0.16732 0.91767 0.0
H2268 H 0.69193 0.13904 0.94401 0.0
H2269 H 0.70881 0.1241 0.92778 0.0
H2270 H 0.69037 0.11131 0.9441 0.0
H2271 H 0.6751 0.09246 0.91239 0.0
H2272 H 0.69359 0.10511 0.89598 0.0
H2273 H 0.66643 0.10729 0.89053 0.0
H2274 H 0.64677 0.18611 0.8972 0.0
H2275 H 0.67685 0.19891 0.87764 0.0
H2276 H 0.71 0.14258 0.89173 0.0
C2277 C 0.64451 0.1163 0.93907 0.0
C2278 C 0.62446 0.12229 0.94514 0.0
C2279 C 0.61579 0.1406 0.93695 0.0
C2280 C 0.62702 0.15312 0.92348 0.0
C2281 C 0.6468 0.14698 0.91802 0.0
C2282 C 0.65539 0.12885 0.92521 0.0
C2283 C 0.67696 0.12588 0.91671 0.0
C2284 C 0.69296 0.12504 0.93419 0.0
C2285 C 0.67808 0.10654 0.90309 0.0
C2286 C 0.67922 0.14537 0.90399 0.0
C2287 C 0.66168 0.15739 0.90516 0.0
C2288 C 0.66048 0.17671 0.89585 0.0
C2289 C 0.67762 0.18389 0.88489 0.0
C2290 C 0.69554 0.17162 0.88305 0.0
C2291 C 0.6963 0.15208 0.89264 0.0
H2292 H 0.39106 0.88126 0.20066 0.0
H2293 H 0.32602 0.89688 0.20144 0.0
H2294 H 0.33267 0.92606 0.17802 0.0
H2295 H 0.40918 0.93369 0.20149 0.0
H2296 H 0.43086 0.92889 0.18482 0.0
H2297 H 0.42099 0.90855 0.20093 0.0
H2298 H 0.41612 0.88535 0.16881 0.0
H2299 H 0.42601 0.90561 0.1526 0.0
H2300 H 0.40103 0.89464 0.1474 0.0
H2301 H 0.34599 0.953 0.15416 0.0
H2302 H 0.3656 0.97763 0.13287 0.0
H2303 H 0.42247 0.94621 0.14896 0.0
C2304 C 0.37823 0.89076 0.19575 0.0
C2305 C 0.358 0.88676 0.20275 0.0
C2306 C 0.34164 0.8997 0.19628 0.0
C2307 C 0.34525 0.91627 0.18293 0.0
C2308 C 0.36535 0.91988 0.17639 0.0
C2309 C 0.38162 0.90765 0.18268 0.0
C2310 C 0.40184 0.9155 0.17397 0.0
C2311 C 0.41658 0.92205 0.19134 0.0
C2312 C 0.41183 0.89931 0.15985 0.0
C2313 C 0.39433 0.93397 0.16174 0.0
C2314 C 0.3732 0.93605 0.16322 0.0
C2315 C 0.36256 0.95161 0.15295 0.0
C2316 C 0.37383 0.96549 0.14086 0.0
C2317 C 0.39555 0.96389 0.13934 0.0
C2318 C 0.4059 0.94792 0.14998 0.0
H2319 H 0.19179 0.35919 0.13292 0.0
H2320 H 0.23736 0.4079 0.13089 0.0
H2321 H 0.21383 0.42877 0.10902 0.0
H2322 H 0.17758 0.36126 0.08275 0.0
H2323 H 0.15055 0.35618 0.08661 0.0
H2324 H 0.16909 0.34694 0.105 0.0
H2325 H 0.15006 0.36602 0.13445 0.0
H2326 H 0.13117 0.37507 0.11619 0.0
H2327 H 0.14492 0.39321 0.13208 0.0
H2328 H 0.1878 0.44116 0.0825 0.0
H2329 H 0.16048 0.44559 0.05631 0.0
H2330 H 0.13177 0.38877 0.07669 0.0
C2331 C 0.19653 0.37456 0.12844 0.0
C2332 C 0.21627 0.38208 0.13363 0.0
C2333 C 0.22213 0.40208 0.12733 0.0
C2334 C 0.20891 0.41393 0.11483 0.0
C2335 C 0.18983 0.40562 0.1092 0.0
C2336 C 0.18351 0.38653 0.1162 0.0
C2337 C 0.16314 0.3802 0.10676 0.0
C2338 C 0.16524 0.35996 0.09456 0.0
C2339 C 0.14633 0.37854 0.12336 0.0
C2340 C 0.15929 0.3983 0.09262 0.0
C2341 C 0.17476 0.41288 0.0943 0.0
C2342 C 0.1754 0.43006 0.08142 0.0
C2343 C 0.15988 0.43237 0.06649 0.0
C2344 C 0.14391 0.41759 0.06457 0.0
C2345 C 0.14355 0.40051 0.07803 0.0
H2346 H 0.61454 0.59471 0.21107 0.0
H2347 H 0.67938 0.58433 0.1983 0.0
H2348 H 0.67007 0.5609 0.16994 0.0
H2349 H 0.59893 0.54237 0.20241 0.0
H2350 H 0.57458 0.54901 0.19079 0.0
H2351 H 0.58617 0.56603 0.20939 0.0
H2352 H 0.58458 0.59597 0.183 0.0
H2353 H 0.57304 0.57901 0.16429 0.0
H2354 H 0.59631 0.59282 0.15802 0.0
H2355 H 0.65423 0.53882 0.14326 0.0
H2356 H 0.63281 0.51682 0.12119 0.0
H2357 H 0.57774 0.53961 0.15173 0.0
C2358 C 0.62673 0.58761 0.20218 0.0
C2359 C 0.6477 0.59141 0.20682 0.0
C2360 C 0.66324 0.5816 0.19506 0.0
C2361 C 0.65811 0.56835 0.17885 0.0
C2362 C 0.63735 0.56488 0.17469 0.0
C2363 C 0.62187 0.57401 0.18608 0.0
C2364 C 0.60081 0.56666 0.17896 0.0
C2365 C 0.58946 0.55534 0.19643 0.0
C2366 C 0.58793 0.58469 0.17057 0.0
C2367 C 0.60695 0.55195 0.16185 0.0
C2368 C 0.62811 0.55142 0.15955 0.0
C2369 C 0.63764 0.53906 0.14489 0.0
C2370 C 0.62527 0.52663 0.13238 0.0
C2371 C 0.60353 0.52643 0.13468 0.0
C2372 C 0.59428 0.53943 0.14955 0.0
H2373 H 0.7847 0.14498 0.09602 0.0
H2374 H 0.81981 0.20059 0.10788 0.0
H2375 H 0.84967 0.18575 0.08968 0.0
H2376 H 0.82758 0.10813 0.09965 0.0
H2377 H 0.81847 0.09262 0.07849 0.0
H2378 H 0.80037 0.10662 0.09423 0.0
H2379 H 0.78578 0.12456 0.06165 0.0
H2380 H 0.80379 0.1106 0.04584 0.0
H2381 H 0.80303 0.13835 0.04479 0.0
H2382 H 0.87524 0.16574 0.06965 0.0
H2383 H 0.89435 0.14288 0.04624 0.0
H2384 H 0.8424 0.10067 0.04512 0.0
C2385 C 0.79881 0.15383 0.095 0.0
C2386 C 0.80008 0.17385 0.10346 0.0
C2387 C 0.81857 0.18523 0.10148 0.0
C2388 C 0.83564 0.17689 0.09128 0.0
C2389 C 0.83389 0.15723 0.08292 0.0
C2390 C 0.81593 0.14588 0.08444 0.0
C2391 C 0.81773 0.12582 0.07256 0.0
C2392 C 0.81594 0.10719 0.08711 0.0
C2393 C 0.80163 0.12478 0.05518 0.0
C2394 C 0.83941 0.12783 0.06401 0.0
C2395 C 0.84851 0.14593 0.0705 0.0
C2396 C 0.86832 0.15148 0.06448 0.0
C2397 C 0.87907 0.13835 0.05118 0.0
C2398 C 0.8699 0.11996 0.04379 0.0
C2399 C 0.84986 0.11458 0.05052 0.0
H2400 H 0.34142 0.40852 0.05094 0.0
H2401 H 0.3604 0.35772 0.01187 0.0
H2402 H 0.33666 0.33449 0.03059 0.0
H2403 H 0.33821 0.37938 0.09752 0.0
H2404 H 0.31618 0.39334 0.10705 0.0
H2405 H 0.33414 0.40582 0.09 0.0
H2406 H 0.30422 0.41477 0.06502 0.0
H2407 H 0.28619 0.40219 0.08195 0.0
H2408 H 0.28798 0.39443 0.05534 0.0
H2409 H 0.31005 0.31676 0.05402 0.0
H2410 H 0.28548 0.30615 0.08149 0.0
H2411 H 0.28544 0.36873 0.10491 0.0
C2412 C 0.34058 0.39253 0.04626 0.0
C2413 C 0.35274 0.38497 0.02992 0.0
C2414 C 0.35127 0.36387 0.02441 0.0
C2415 C 0.33775 0.35057 0.03488 0.0
C2416 C 0.32589 0.35856 0.05089 0.0
C2417 C 0.32734 0.37905 0.05662 0.0
C2418 C 0.31356 0.3838 0.07476 0.0
C2419 C 0.32629 0.391 0.09343 0.0
C2420 C 0.29701 0.39974 0.06891 0.0
C2421 C 0.30419 0.3628 0.07844 0.0
C2422 C 0.31122 0.3484 0.06446 0.0
C2423 C 0.30449 0.32793 0.06507 0.0
C2424 C 0.2905 0.32204 0.08062 0.0
C2425 C 0.2837 0.33655 0.0954 0.0
C2426 C 0.29051 0.35718 0.09398 0.0
H2427 H 0.2999 0.63848 0.39099 0.0
H2428 H 0.2942 0.69796 0.42093 0.0
H2429 H 0.31927 0.68645 0.44768 0.0
H2430 H 0.30207 0.6085 0.4366 0.0
H2431 H 0.31988 0.59014 0.4258 0.0
H2432 H 0.30222 0.60369 0.40924 0.0
H2433 H 0.33287 0.61677 0.38718 0.0
H2434 H 0.35066 0.60335 0.40373 0.0
H2435 H 0.35359 0.63064 0.39943 0.0
H2436 H 0.3458 0.66736 0.47105 0.0
H2437 H 0.36845 0.64263 0.48943 0.0
H2438 H 0.35484 0.5962 0.44335 0.0
C2439 C 0.30395 0.64931 0.40303 0.0
C2440 C 0.29524 0.66926 0.40372 0.0
C2441 C 0.30074 0.68264 0.42005 0.0
C2442 C 0.315 0.67623 0.43523 0.0
C2443 C 0.32338 0.65639 0.43386 0.0
C2444 C 0.31782 0.64316 0.41817 0.0
C2445 C 0.32816 0.6224 0.42016 0.0
C2446 C 0.31213 0.60518 0.42313 0.0
C2447 C 0.34215 0.61805 0.40152 0.0
C2448 C 0.34061 0.62584 0.43947 0.0
C2449 C 0.33787 0.64552 0.44719 0.0
C2450 C 0.34797 0.65195 0.46506 0.0
C2451 C 0.36089 0.63783 0.47534 0.0
C2452 C 0.36344 0.61747 0.46781 0.0
C2453 C 0.35324 0.61161 0.44954 0.0
H2454 H 0.90887 0.44646 0.84753 0.0
H2455 H 0.85641 0.45632 0.88795 0.0
H2456 H 0.83415 0.43758 0.86376 0.0
H2457 H 0.88197 0.45227 0.79995 0.0
H2458 H 0.89563 0.43206 0.78669 0.0
H2459 H 0.90798 0.44586 0.80736 0.0
H2460 H 0.91506 0.41149 0.82641 0.0
H2461 H 0.90286 0.39756 0.80572 0.0
H2462 H 0.89394 0.39428 0.83182 0.0
H2463 H 0.81689 0.42016 0.83452 0.0
H2464 H 0.80618 0.40171 0.8031 0.0
H2465 H 0.86966 0.40088 0.78197 0.0
C2466 C 0.89275 0.44449 0.85136 0.0
C2467 C 0.88444 0.45292 0.86968 0.0
C2468 C 0.86323 0.44999 0.8741 0.0
C2469 C 0.85039 0.43941 0.86041 0.0
C2470 C 0.85895 0.43157 0.84241 0.0
C2471 C 0.87966 0.43366 0.83793 0.0
C2472 C 0.88479 0.4235 0.81749 0.0
C2473 C 0.89308 0.43938 0.80195 0.0
C2474 C 0.90007 0.40565 0.82055 0.0
C2475 C 0.86367 0.41566 0.81116 0.0
C2476 C 0.849 0.42068 0.82573 0.0
C2477 C 0.82825 0.41592 0.82308 0.0
C2478 C 0.8223 0.40554 0.80513 0.0
C2479 C 0.83708 0.39977 0.79015 0.0
C2480 C 0.85805 0.40491 0.79326 0.0
H2481 H 0.64218 0.9082 0.44015 0.0
H2482 H 0.62967 0.85673 0.48097 0.0
H2483 H 0.64966 0.83375 0.45793 0.0
H2484 H 0.63858 0.87902 0.3921 0.0
H2485 H 0.65886 0.89363 0.37999 0.0
H2486 H 0.64278 0.90552 0.39924 0.0
H2487 H 0.67527 0.91527 0.42036 0.0
H2488 H 0.69143 0.90335 0.40125 0.0
H2489 H 0.69318 0.89537 0.42781 0.0
H2490 H 0.67384 0.81739 0.43192 0.0
H2491 H 0.69787 0.80831 0.40372 0.0
H2492 H 0.69258 0.87035 0.37933 0.0
C2493 C 0.64349 0.89205 0.44417 0.0
C2494 C 0.6345 0.88421 0.46236 0.0
C2495 C 0.63641 0.86299 0.46704 0.0
C2496 C 0.64776 0.84987 0.45409 0.0
C2497 C 0.65672 0.85821 0.4364 0.0
C2498 C 0.65443 0.87876 0.43131 0.0
C2499 C 0.66572 0.88406 0.41163 0.0
C2500 C 0.65058 0.89096 0.39474 0.0
C2501 C 0.68239 0.90048 0.41551 0.0
C2502 C 0.67516 0.86338 0.40664 0.0
C2503 C 0.66987 0.84865 0.42111 0.0
C2504 C 0.67782 0.82871 0.42033 0.0
C2505 C 0.6915 0.82373 0.40433 0.0
C2506 C 0.69689 0.83859 0.38927 0.0
C2507 C 0.68845 0.85858 0.39042 0.0
H2508 H 0.59957 0.54199 0.3638 0.0
H2509 H 0.65449 0.52735 0.39917 0.0
H2510 H 0.67599 0.54414 0.37279 0.0
H2511 H 0.62168 0.53496 0.31317 0.0
H2512 H 0.60824 0.55649 0.30186 0.0
H2513 H 0.59697 0.54275 0.32319 0.0
H2514 H 0.59399 0.57682 0.34375 0.0
H2515 H 0.60519 0.59068 0.32246 0.0
H2516 H 0.61666 0.59239 0.34771 0.0
H2517 H 0.6917 0.56166 0.34254 0.0
H2518 H 0.70057 0.58155 0.31139 0.0
H2519 H 0.6356 0.58673 0.29616 0.0
C2520 C 0.61612 0.5423 0.36593 0.0
C2521 C 0.62536 0.53332 0.38352 0.0
C2522 C 0.64705 0.5342 0.38588 0.0
C2523 C 0.65943 0.54362 0.37093 0.0
C2524 C 0.64988 0.5523 0.35379 0.0
C2525 C 0.62873 0.55196 0.35127 0.0
C2526 C 0.62244 0.56318 0.33173 0.0
C2527 C 0.6117 0.54846 0.31659 0.0
C2528 C 0.60876 0.58188 0.33672 0.0
C2529 C 0.64337 0.56982 0.32372 0.0
C2530 C 0.65897 0.56315 0.33659 0.0
C2531 C 0.67963 0.56707 0.33236 0.0
C2532 C 0.68451 0.57831 0.31459 0.0
C2533 C 0.66879 0.58575 0.30138 0.0
C2534 C 0.64795 0.58135 0.30603 0.0
H2535 H 0.16125 0.60678 0.53701 0.0
H2536 H 0.15547 0.54828 0.56889 0.0
H2537 H 0.16688 0.56468 0.60125 0.0
H2538 H 0.20778 0.62132 0.56188 0.0
H2539 H 0.20161 0.64838 0.56286 0.0
H2540 H 0.19097 0.63252 0.54278 0.0
H2541 H 0.15417 0.64393 0.55338 0.0
H2542 H 0.16474 0.65967 0.57367 0.0
H2543 H 0.14576 0.64029 0.57961 0.0
H2544 H 0.17959 0.58705 0.6299 0.0
H2545 H 0.19729 0.61264 0.65175 0.0
H2546 H 0.19677 0.65616 0.60088 0.0
C2547 C 0.1622 0.59752 0.55088 0.0
C2548 C 0.15738 0.57632 0.55054 0.0
C2549 C 0.15917 0.56456 0.56885 0.0
C2550 C 0.16545 0.57376 0.58733 0.0
C2551 C 0.1701 0.5947 0.5872 0.0
C2552 C 0.16887 0.60638 0.5694 0.0
C2553 C 0.17659 0.6281 0.57305 0.0
C2554 C 0.19535 0.63285 0.55934 0.0
C2555 C 0.15928 0.64393 0.56973 0.0
C2556 C 0.18258 0.62668 0.59559 0.0
C2557 C 0.17829 0.60742 0.60356 0.0
C2558 C 0.18297 0.60223 0.62388 0.0
C2559 C 0.19293 0.61691 0.6362 0.0
C2560 C 0.1984 0.6364 0.62804 0.0
C2561 C 0.19269 0.64143 0.6076 0.0
H2562 H 0.87872 0.60055 0.70868 0.0
H2563 H 0.81646 0.60563 0.68486 0.0
H2564 H 0.82741 0.58879 0.65253 0.0
H2565 H 0.90618 0.60813 0.6606 0.0
H2566 H 0.92549 0.58891 0.66608 0.0
H2567 H 0.91325 0.60259 0.6869 0.0
H2568 H 0.90213 0.56796 0.70337 0.0
H2569 H 0.91445 0.55419 0.68269 0.0
H2570 H 0.88761 0.54973 0.68826 0.0
H2571 H 0.84503 0.57231 0.62273 0.0
H2572 H 0.86693 0.55274 0.59879 0.0
H2573 H 0.9174 0.55528 0.64271 0.0
C2574 C 0.86748 0.59819 0.69656 0.0
C2575 C 0.84678 0.60451 0.6991 0.0
C2576 C 0.83237 0.60087 0.68316 0.0
C2577 C 0.83848 0.59145 0.66472 0.0
C2578 C 0.85898 0.58543 0.66263 0.0
C2579 C 0.87321 0.58829 0.67822 0.0
C2580 C 0.8939 0.57898 0.67251 0.0
C2581 C 0.9107 0.59565 0.67146 0.0
C2582 C 0.89987 0.56169 0.6876 0.0
C2583 C 0.88906 0.57049 0.65126 0.0
C2584 C 0.86892 0.57476 0.64578 0.0
C2585 C 0.8608 0.56878 0.62687 0.0
C2586 C 0.87344 0.55775 0.61332 0.0
C2587 C 0.8939 0.55244 0.61885 0.0
C2588 C 0.90183 0.55909 0.63804 0.0
H2589 H 0.16944 0.91306 0.69712 0.0
H2590 H 0.12138 0.88977 0.73734 0.0
H2591 H 0.09521 0.90845 0.71678 0.0
H2592 H 0.14829 0.96313 0.6885 0.0
H2593 H 0.15581 0.96411 0.66178 0.0
H2594 H 0.17065 0.9491 0.67983 0.0
H2595 H 0.16582 0.91669 0.65699 0.0
H2596 H 0.15097 0.93161 0.63887 0.0
H2597 H 0.14017 0.90859 0.65005 0.0
H2598 H 0.07462 0.93113 0.69272 0.0
H2599 H 0.06083 0.95389 0.66534 0.0
H2600 H 0.12229 0.96023 0.6398 0.0
C2601 C 0.15341 0.91193 0.70162 0.0
C2602 C 0.14739 0.90012 0.71886 0.0
C2603 C 0.12626 0.89875 0.72414 0.0
C2604 C 0.11133 0.90933 0.71261 0.0
C2605 C 0.1178 0.92091 0.69571 0.0
C2606 C 0.13831 0.92206 0.69009 0.0
C2607 C 0.14121 0.9351 0.67099 0.0
C2608 C 0.15479 0.95398 0.67556 0.0
C2609 C 0.15006 0.92222 0.65317 0.0
C2610 C 0.11914 0.9413 0.66683 0.0
C2611 C 0.10587 0.93313 0.68135 0.0
C2612 C 0.08482 0.93745 0.68114 0.0
C2613 C 0.07715 0.95041 0.6656 0.0
C2614 C 0.09048 0.95861 0.6504 0.0
C2615 C 0.1117 0.95391 0.65105 0.0
H2616 H 0.61228 0.79448 0.85971 0.0
H2617 H 0.64212 0.77377 0.91594 0.0
H2618 H 0.61873 0.79562 0.93641 0.0
H2619 H 0.60524 0.84742 0.87627 0.0
H2620 H 0.58061 0.85023 0.86373 0.0
H2621 H 0.59953 0.83275 0.85338 0.0
H2622 H 0.5731 0.8029 0.85531 0.0
H2623 H 0.55411 0.82027 0.86568 0.0
H2624 H 0.56077 0.79712 0.87954 0.0
H2625 H 0.59124 0.81816 0.9509 0.0
H2626 H 0.56274 0.84216 0.9585 0.0
H2627 H 0.55193 0.85027 0.89297 0.0
C2628 C 0.61386 0.79456 0.87633 0.0
C2629 C 0.62896 0.78237 0.88626 0.0
C2630 C 0.63071 0.78302 0.90801 0.0
C2631 C 0.61746 0.79534 0.91978 0.0
C2632 C 0.60273 0.80714 0.90955 0.0
C2633 C 0.60097 0.80707 0.88832 0.0
C2634 C 0.58405 0.82157 0.88123 0.0
C2635 C 0.59289 0.83903 0.86786 0.0
C2636 C 0.567 0.80975 0.86977 0.0
C2637 C 0.57647 0.82961 0.90181 0.0
C2638 C 0.58737 0.82092 0.91792 0.0
C2639 C 0.58271 0.82523 0.93842 0.0
C2640 C 0.56647 0.83882 0.94258 0.0
C2641 C 0.55527 0.84816 0.92633 0.0
C2642 C 0.56044 0.84356 0.90568 0.0
H2643 H 0.04733 0.13993 0.40239 0.0
H2644 H 0.05625 0.08616 0.36357 0.0
H2645 H 0.08524 0.10339 0.34632 0.0
H2646 H 0.05587 0.17651 0.36427 0.0
H2647 H 0.06943 0.19464 0.38035 0.0
H2648 H 0.05104 0.17724 0.39163 0.0
H2649 H 0.07898 0.16379 0.41682 0.0
H2650 H 0.09749 0.18121 0.4056 0.0
H2651 H 0.10294 0.15399 0.40674 0.0
H2652 H 0.10971 0.12747 0.3302 0.0
H2653 H 0.12921 0.15717 0.31665 0.0
H2654 H 0.10608 0.19526 0.36639 0.0
C2655 C 0.05567 0.13163 0.39056 0.0
C2656 C 0.04952 0.11168 0.38435 0.0
C2657 C 0.06064 0.10145 0.3686 0.0
C2658 C 0.07721 0.11106 0.35876 0.0
C2659 C 0.08263 0.13085 0.36495 0.0
C2660 C 0.07234 0.14101 0.38057 0.0
C2661 C 0.0804 0.1628 0.38312 0.0
C2662 C 0.06316 0.17873 0.37962 0.0
C2663 C 0.09056 0.16561 0.40433 0.0
C2664 C 0.09626 0.16347 0.36599 0.0
C2665 C 0.09737 0.14477 0.35584 0.0
C2666 C 0.10937 0.14205 0.33828 0.0
C2667 C 0.12031 0.15898 0.33066 0.0
C2668 C 0.11931 0.17827 0.3407 0.0
C2669 C 0.1075 0.18046 0.35883 0.0
H2670 H 0.46618 0.6449 0.8811 0.0
H2671 H 0.44447 0.65137 0.94401 0.0
H2672 H 0.41694 0.67487 0.93203 0.0
H2673 H 0.45841 0.69789 0.86716 0.0
H2674 H 0.45073 0.69212 0.8411 0.0
H2675 H 0.46804 0.67509 0.85455 0.0
H2676 H 0.44328 0.64453 0.84773 0.0
H2677 H 0.42582 0.66149 0.83435 0.0
H2678 H 0.41676 0.64636 0.85582 0.0
H2679 H 0.39136 0.69693 0.91306 0.0
H2680 H 0.3717 0.71899 0.88905 0.0
H2681 H 0.4115 0.69979 0.83884 0.0
C2682 C 0.45555 0.65119 0.89232 0.0
C2683 C 0.4573 0.64624 0.91345 0.0
C2684 C 0.44337 0.65501 0.92775 0.0
C2685 C 0.42764 0.66827 0.92108 0.0
C2686 C 0.42628 0.67278 0.90012 0.0
C2687 C 0.44003 0.66473 0.88599 0.0
C2688 C 0.43584 0.67286 0.8645 0.0
C2689 C 0.45436 0.68523 0.85636 0.0
C2690 C 0.43008 0.65526 0.84974 0.0
C2691 C 0.41755 0.6867 0.86875 0.0
C2692 C 0.41211 0.6862 0.88933 0.0
C2693 C 0.39552 0.69751 0.89692 0.0
C2694 C 0.3844 0.70992 0.88315 0.0
C2695 C 0.39011 0.71113 0.8621 0.0
C2696 C 0.40683 0.69924 0.85485 0.0
H2697 H 0.95175 0.35201 0.40127 0.0
H2698 H 0.95837 0.39557 0.35085 0.0
H2699 H 0.93177 0.37678 0.33123 0.0
H2700 H 0.94745 0.30826 0.37154 0.0
H2701 H 0.92856 0.29553 0.38744 0.0
H2702 H 0.946 0.31387 0.39872 0.0
H2703 H 0.91514 0.33501 0.41271 0.0
H2704 H 0.89755 0.31661 0.40161 0.0
H2705 H 0.89532 0.34355 0.3952 0.0
H2706 H 0.90841 0.3508 0.31536 0.0
H2707 H 0.88798 0.32049 0.30502 0.0
H2708 H 0.89552 0.29439 0.36616 0.0
C2709 C 0.9473 0.35788 0.38628 0.0
C2710 C 0.95713 0.37525 0.37757 0.0
C2711 C 0.95098 0.38235 0.35787 0.0
C2712 C 0.93588 0.37179 0.34661 0.0
C2713 C 0.92693 0.35437 0.35542 0.0
C2714 C 0.93219 0.34762 0.37492 0.0
C2715 C 0.92123 0.32775 0.38032 0.0
C2716 C 0.93674 0.31033 0.38476 0.0
C2717 C 0.90643 0.33093 0.39854 0.0
C2718 C 0.90956 0.32396 0.3605 0.0
C2719 C 0.91298 0.33957 0.34639 0.0
C2720 C 0.90527 0.3387 0.3264 0.0
C2721 C 0.89381 0.32137 0.32064 0.0
C2722 C 0.8901 0.30523 0.33486 0.0
C2723 C 0.89783 0.30671 0.35512 0.0
H2724 H 0.62209 0.20829 0.59615 0.0
H2725 H 0.61892 0.19235 0.66095 0.0
H2726 H 0.59158 0.16694 0.65348 0.0
H2727 H 0.56888 0.20792 0.58824 0.0
H2728 H 0.56965 0.19749 0.56251 0.0
H2729 H 0.59116 0.21208 0.57217 0.0
H2730 H 0.61574 0.18156 0.5645 0.0
H2731 H 0.59433 0.16695 0.55455 0.0
H2732 H 0.61004 0.15645 0.57493 0.0
H2733 H 0.56321 0.1453 0.6396 0.0
H2734 H 0.53491 0.12894 0.62025 0.0
H2735 H 0.55479 0.16039 0.56459 0.0
C2736 C 0.61605 0.19891 0.60858 0.0
C2737 C 0.62277 0.20184 0.62904 0.0
C2738 C 0.61405 0.19002 0.64515 0.0
C2739 C 0.59856 0.17559 0.64105 0.0
C2740 C 0.59182 0.17342 0.62079 0.0
C2741 C 0.60023 0.18473 0.60479 0.0
C2742 C 0.5888 0.18081 0.5848 0.0
C2743 C 0.57904 0.20076 0.57645 0.0
C2744 C 0.60308 0.17084 0.56875 0.0
C2745 C 0.57249 0.1658 0.59215 0.0
C2746 C 0.57472 0.16155 0.6129 0.0
C2747 C 0.56136 0.14839 0.62331 0.0
C2748 C 0.54531 0.13921 0.61219 0.0
C2749 C 0.5426 0.14343 0.59094 0.0
C2750 C 0.5564 0.15694 0.58085 0.0
H2751 H 0.4078 0.21517 0.64315 0.0
H2752 H 0.38503 0.17237 0.68915 0.0
H2753 H 0.3999 0.14334 0.66975 0.0
H2754 H 0.40225 0.18062 0.59757 0.0
H2755 H 0.42609 0.18919 0.58619 0.0
H2756 H 0.41121 0.20653 0.60197 0.0
H2757 H 0.44304 0.21262 0.62529 0.0
H2758 H 0.45797 0.19527 0.60964 0.0
H2759 H 0.45576 0.19084 0.63698 0.0
H2760 H 0.41911 0.11948 0.64762 0.0
H2761 H 0.44313 0.10171 0.6244 0.0
H2762 H 0.45533 0.15946 0.59274 0.0
C2763 C 0.40557 0.19961 0.64874 0.0
C2764 C 0.39512 0.19585 0.66746 0.0
C2765 C 0.39295 0.17544 0.67478 0.0
C2766 C 0.40125 0.15887 0.66383 0.0
C2767 C 0.41185 0.163 0.64566 0.0
C2768 C 0.41416 0.18281 0.63813 0.0
C2769 C 0.42805 0.18295 0.61929 0.0
C2770 C 0.41619 0.19025 0.60012 0.0
C2771 C 0.44735 0.1962 0.62304 0.0
C2772 C 0.43346 0.16023 0.61778 0.0
C2773 C 0.42364 0.14905 0.633 0.0
C2774 C 0.42677 0.12799 0.63549 0.0
C2775 C 0.44052 0.11805 0.62223 0.0
C2776 C 0.45114 0.12916 0.60671 0.0
C2777 C 0.44731 0.15051 0.60432 0.0
H2778 H 0.43538 0.36868 0.61971 0.0
H2779 H 0.48453 0.37393 0.66461 0.0
H2780 H 0.46753 0.34725 0.6862 0.0
H2781 H 0.39318 0.35954 0.657 0.0
H2782 H 0.38046 0.34191 0.63972 0.0
H2783 H 0.39554 0.36286 0.62951 0.0
H2784 H 0.41712 0.33676 0.60834 0.0
H2785 H 0.4024 0.31571 0.61874 0.0
H2786 H 0.43005 0.31594 0.62147 0.0
H2787 H 0.44676 0.31634 0.70039 0.0
H2788 H 0.42263 0.2875 0.7075 0.0
H2789 H 0.38728 0.30422 0.65324 0.0
C2790 C 0.44231 0.36461 0.63436 0.0
C2791 C 0.46117 0.3734 0.6406 0.0
C2792 C 0.46988 0.36758 0.65975 0.0
C2793 C 0.46041 0.35233 0.67199 0.0
C2794 C 0.44212 0.34339 0.66497 0.0
C2795 C 0.43299 0.34971 0.64676 0.0
C2796 C 0.41383 0.33737 0.642 0.0
C2797 C 0.39462 0.35125 0.64207 0.0
C2798 C 0.416 0.32576 0.62143 0.0
C2799 C 0.41379 0.32269 0.66007 0.0
C2800 C 0.43017 0.32627 0.67322 0.0
C2801 C 0.43371 0.31368 0.69035 0.0
C2802 C 0.42002 0.29726 0.69421 0.0
C2803 C 0.40297 0.29368 0.68103 0.0
C2804 C 0.39997 0.30665 0.6638 0.0
H2805 H 0.52931 0.3541 0.62132 0.0
H2806 H 0.53073 0.33811 0.55644 0.0
H2807 H 0.55974 0.31397 0.56334 0.0
H2808 H 0.58265 0.3546 0.62981 0.0
H2809 H 0.58115 0.34371 0.65533 0.0
H2810 H 0.55995 0.35854 0.64533 0.0
H2811 H 0.53507 0.32798 0.65183 0.0
H2812 H 0.55614 0.31312 0.66214 0.0
H2813 H 0.54099 0.30304 0.64115 0.0
H2814 H 0.59046 0.29354 0.57764 0.0
H2815 H 0.61766 0.27631 0.59802 0.0
H2816 H 0.59485 0.3059 0.65348 0.0
C2817 C 0.53557 0.34541 0.60852 0.0
C2818 C 0.52789 0.34801 0.5883 0.0
C2819 C 0.53636 0.33622 0.57205 0.0
C2820 C 0.55288 0.32261 0.57584 0.0
C2821 C 0.56044 0.32089 0.59597 0.0
C2822 C 0.55178 0.33178 0.61205 0.0
C2823 C 0.56258 0.3275 0.63226 0.0
C2824 C 0.57215 0.34726 0.6412 0.0
C2825 C 0.54782 0.3173 0.64775 0.0
C2826 C 0.57899 0.31264 0.62512 0.0
C2827 C 0.57761 0.30903 0.60414 0.0
C2828 C 0.59153 0.29617 0.59407 0.0
C2829 C 0.60702 0.28655 0.60579 0.0
C2830 C 0.60841 0.28975 0.62738 0.0
C2831 C 0.59421 0.30308 0.63704 0.0
H2832 H 0.88435 0.53183 0.85749 0.0
H2833 H 0.94908 0.5483 0.85383 0.0
H2834 H 0.94063 0.57617 0.82943 0.0
H2835 H 0.87356 0.54009 0.80366 0.0
H2836 H 0.84809 0.55035 0.80788 0.0
H2837 H 0.8589 0.53217 0.82589 0.0
H2838 H 0.853 0.55802 0.85571 0.0
H2839 H 0.84214 0.57626 0.83779 0.0
H2840 H 0.86357 0.58364 0.85385 0.0
H2841 H 0.92558 0.6023 0.80602 0.0
H2842 H 0.90488 0.62447 0.78323 0.0
H2843 H 0.84977 0.59042 0.80001 0.0
C2844 C 0.89668 0.54144 0.85166 0.0
C2845 C 0.91737 0.53799 0.85764 0.0
C2846 C 0.93314 0.55065 0.84945 0.0
C2847 C 0.9285 0.56655 0.83562 0.0
C2848 C 0.90802 0.56948 0.82992 0.0
C2849 C 0.89235 0.55724 0.83751 0.0
C2850 C 0.87176 0.5633 0.82814 0.0
C2851 C 0.86254 0.54541 0.81565 0.0
C2852 C 0.85673 0.57075 0.84487 0.0
C2853 C 0.87837 0.58089 0.81419 0.0
C2854 C 0.89934 0.58424 0.81566 0.0
C2855 C 0.90915 0.59981 0.80466 0.0
C2856 C 0.89722 0.61235 0.79178 0.0
C2857 C 0.87571 0.60916 0.78978 0.0
C2858 C 0.8662 0.59313 0.8011 0.0
H2859 H 0.86327 0.85574 0.45463 0.0
H2860 H 0.84993 0.92012 0.44251 0.0
H2861 H 0.82547 0.91006 0.41523 0.0
H2862 H 0.85804 0.83703 0.40099 0.0
H2863 H 0.84545 0.81349 0.40866 0.0
H2864 H 0.86374 0.82561 0.42569 0.0
H2865 H 0.83624 0.82656 0.45459 0.0
H2866 H 0.81786 0.81454 0.43766 0.0
H2867 H 0.81177 0.8388 0.44971 0.0
H2868 H 0.80128 0.89356 0.39096 0.0
H2869 H 0.77742 0.87145 0.37161 0.0
H2870 H 0.80473 0.81721 0.3999 0.0
C2871 C 0.8555 0.86765 0.44587 0.0
C2872 C 0.85859 0.88872 0.45047 0.0
C2873 C 0.84778 0.90392 0.43915 0.0
C2874 C 0.83393 0.89836 0.42359 0.0
C2875 C 0.83089 0.87751 0.41965 0.0
C2876 C 0.84126 0.86234 0.43045 0.0
C2877 C 0.83378 0.84107 0.42416 0.0
C2878 C 0.8513 0.82856 0.41428 0.0
C2879 C 0.82435 0.82957 0.44263 0.0
C2880 C 0.81745 0.84674 0.40837 0.0
C2881 C 0.81629 0.86785 0.40589 0.0
C2882 C 0.8021 0.87699 0.39266 0.0
C2883 C 0.78857 0.86425 0.38174 0.0
C2884 C 0.78914 0.84255 0.38419 0.0
C2885 C 0.80394 0.83372 0.3976 0.0
H2886 H 0.16893 0.91551 0.80068 0.0
H2887 H 0.13754 0.85979 0.82038 0.0
H2888 H 0.11853 0.87977 0.84646 0.0
H2889 H 0.17223 0.93981 0.85263 0.0
H2890 H 0.16767 0.96523 0.84238 0.0
H2891 H 0.1807 0.94617 0.82694 0.0
H2892 H 0.15367 0.95121 0.79797 0.0
H2893 H 0.14052 0.97016 0.81332 0.0
H2894 H 0.1267 0.94803 0.80381 0.0
H2895 H 0.09962 0.90611 0.86688 0.0
H2896 H 0.08319 0.93716 0.88165 0.0
H2897 H 0.12748 0.97587 0.85012 0.0
C2898 C 0.15842 0.90741 0.8108 0.0
C2899 C 0.15479 0.88603 0.80849 0.0
C2900 C 0.14067 0.87611 0.82186 0.0
C2901 C 0.12981 0.88733 0.83677 0.0
C2902 C 0.13337 0.90844 0.83829 0.0
C2903 C 0.14749 0.91838 0.82584 0.0
C2904 C 0.14741 0.94143 0.82973 0.0
C2905 C 0.16824 0.94858 0.83844 0.0
C2906 C 0.14173 0.9534 0.81004 0.0
C2907 C 0.13055 0.94296 0.84582 0.0
C2908 C 0.12276 0.9237 0.8506 0.0
C2909 C 0.1059 0.92121 0.86366 0.0
C2910 C 0.09665 0.93887 0.87192 0.0
C2911 C 0.10441 0.95867 0.86727 0.0
C2912 C 0.12172 0.96078 0.8543 0.0
H2913 H 0.15487 0.60884 0.44442 0.0
H2914 H 0.18483 0.54982 0.45387 0.0
H2915 H 0.2093 0.55786 0.42565 0.0
H2916 H 0.15942 0.61082 0.38917 0.0
H2917 H 0.16455 0.63811 0.38873 0.0
H2918 H 0.14907 0.62723 0.40904 0.0
H2919 H 0.17363 0.64277 0.43648 0.0
H2920 H 0.18898 0.65392 0.41627 0.0
H2921 H 0.20083 0.63727 0.4351 0.0
H2922 H 0.231 0.57319 0.39607 0.0
H2923 H 0.24941 0.5956 0.371 0.0
H2924 H 0.20472 0.64401 0.38203 0.0
C2925 C 0.16651 0.59753 0.44054 0.0
C2926 C 0.16788 0.57867 0.45131 0.0
C2927 C 0.18352 0.56442 0.44587 0.0
C2928 C 0.19739 0.56878 0.42977 0.0
C2929 C 0.19547 0.5875 0.41932 0.0
C2930 C 0.1805 0.60169 0.42471 0.0
C2931 C 0.18215 0.62111 0.41199 0.0
C2932 C 0.16264 0.6245 0.39896 0.0
C2933 C 0.18667 0.63987 0.42578 0.0
C2934 C 0.20044 0.61576 0.39861 0.0
C2935 C 0.20788 0.59626 0.40281 0.0
C2936 C 0.2252 0.58844 0.39262 0.0
C2937 C 0.23546 0.60117 0.37828 0.0
C2938 C 0.22844 0.62148 0.37454 0.0
C2939 C 0.21043 0.62852 0.38451 0.0
H2940 H 0.88887 0.39219 0.69938 0.0
H2941 H 0.8246 0.40734 0.68852 0.0
H2942 H 0.83493 0.43246 0.66197 0.0
H2943 H 0.90747 0.444 0.69469 0.0
H2944 H 0.93122 0.43689 0.68217 0.0
H2945 H 0.91887 0.41912 0.69955 0.0
H2946 H 0.91826 0.39137 0.67088 0.0
H2947 H 0.9306 0.40906 0.65338 0.0
H2948 H 0.90644 0.39726 0.64641 0.0
H2949 H 0.85178 0.45572 0.63685 0.0
H2950 H 0.87438 0.47775 0.61589 0.0
H2951 H 0.92816 0.44918 0.6438 0.0
C2952 C 0.87701 0.40069 0.69126 0.0
C2953 C 0.85593 0.39777 0.69591 0.0
C2954 C 0.84083 0.40938 0.68523 0.0
C2955 C 0.84653 0.42361 0.67007 0.0
C2956 C 0.8674 0.42622 0.6659 0.0
C2957 C 0.88245 0.41526 0.67626 0.0
C2958 C 0.90382 0.42185 0.66942 0.0
C2959 C 0.91606 0.43101 0.68754 0.0
C2960 C 0.91546 0.40381 0.65943 0.0
C2961 C 0.89836 0.43824 0.65365 0.0
C2962 C 0.87725 0.44028 0.65176 0.0
C2963 C 0.86834 0.45429 0.63818 0.0
C2964 C 0.88135 0.46671 0.6263 0.0
C2965 C 0.90306 0.46522 0.6282 0.0
C2966 C 0.91164 0.45071 0.64204 0.0
H2967 H 0.624 0.86337 0.55922 0.0
H2968 H 0.64552 0.92661 0.5574 0.0
H2969 H 0.67035 0.91898 0.58523 0.0
H2970 H 0.63011 0.85471 0.61485 0.0
H2971 H 0.63947 0.82876 0.61163 0.0
H2972 H 0.62184 0.83958 0.59308 0.0
H2973 H 0.64769 0.83162 0.56372 0.0
H2974 H 0.66537 0.82077 0.58215 0.0
H2975 H 0.67366 0.84134 0.56542 0.0
H2976 H 0.69327 0.90457 0.61228 0.0
H2977 H 0.71536 0.88365 0.63489 0.0
H2978 H 0.68087 0.82885 0.61795 0.0
C2979 C 0.63373 0.87564 0.56498 0.0
C2980 C 0.63275 0.89564 0.5564 0.0
C2981 C 0.64605 0.91121 0.56385 0.0
C2982 C 0.6601 0.90705 0.57971 0.0
C2983 C 0.66084 0.88716 0.58774 0.0
C2984 C 0.6482 0.87162 0.58052 0.0
C2985 C 0.65343 0.85118 0.59064 0.0
C2986 C 0.63512 0.84309 0.6033 0.0
C2987 C 0.66046 0.8353 0.57452 0.0
C2988 C 0.6711 0.85766 0.6045 0.0
C2989 C 0.67483 0.87856 0.6028 0.0
C2990 C 0.69049 0.8882 0.6138 0.0
C2991 C 0.70294 0.87614 0.62665 0.0
C2992 C 0.69988 0.85457 0.62822 0.0
C2993 C 0.68357 0.84529 0.61712 0.0
H2994 H 0.10591 0.0382 0.65262 0.0
H2995 H 0.04836 0.06956 0.63926 0.0
H2996 H 0.06131 0.1008 0.65648 0.0
H2997 H 0.11138 0.05919 0.70344 0.0
H2998 H 0.13903 0.06154 0.70234 0.0
H2999 H 0.12619 0.04199 0.68742 0.0
H3000 H 0.14324 0.056 0.65417 0.0
H3001 H 0.15615 0.07561 0.669 0.0
H3002 H 0.14014 0.08278 0.64744 0.0
H3003 H 0.07961 0.12813 0.675 0.0
H3004 H 0.10138 0.15011 0.69656 0.0
H3005 H 0.14706 0.10124 0.70071 0.0
C3006 C 0.09623 0.05178 0.65315 0.0
C3007 C 0.07621 0.05161 0.64448 0.0
C3008 C 0.06373 0.06943 0.6458 0.0
C3009 C 0.07098 0.08725 0.65547 0.0
C3010 C 0.09065 0.08693 0.66401 0.0
C3011 C 0.10309 0.06967 0.66321 0.0
C3012 C 0.12305 0.07324 0.67499 0.0
C3013 C 0.12502 0.05809 0.69312 0.0
C3014 C 0.14175 0.07183 0.66053 0.0
C3015 C 0.11977 0.09517 0.68252 0.0
C3016 C 0.10105 0.10271 0.6757 0.0
C3017 C 0.09431 0.12244 0.68048 0.0
C3018 C 0.10688 0.13482 0.69277 0.0
C3019 C 0.126 0.12746 0.70043 0.0
C3020 C 0.13256 0.10733 0.69511 0.0
H3021 H 0.34317 0.61715 0.53404 0.0
H3022 H 0.379 0.58638 0.58125 0.0
H3023 H 0.35371 0.5974 0.60771 0.0
H3024 H 0.33238 0.6612 0.56403 0.0
H3025 H 0.30685 0.66517 0.5538 0.0
H3026 H 0.32616 0.65265 0.53833 0.0
H3027 H 0.30208 0.6212 0.53345 0.0
H3028 H 0.28264 0.63365 0.54887 0.0
H3029 H 0.29171 0.60831 0.55578 0.0
H3030 H 0.32495 0.61232 0.62885 0.0
H3031 H 0.29667 0.63289 0.64397 0.0
H3032 H 0.28152 0.65671 0.58332 0.0
C3033 C 0.34535 0.61243 0.54992 0.0
C3034 C 0.36261 0.60064 0.55577 0.0
C3035 C 0.3656 0.59522 0.57665 0.0
C3036 C 0.35134 0.60136 0.59168 0.0
C3037 C 0.33449 0.6132 0.5855 0.0
C3038 C 0.33156 0.61889 0.56516 0.0
C3039 C 0.31333 0.63329 0.56289 0.0
C3040 C 0.3201 0.65432 0.55426 0.0
C3041 C 0.29644 0.62352 0.54945 0.0
C3042 C 0.30657 0.63496 0.58515 0.0
C3043 C 0.31871 0.62292 0.59788 0.0
C3044 C 0.31534 0.62182 0.61906 0.0
C3045 C 0.29925 0.63349 0.62748 0.0
C3046 C 0.28705 0.6464 0.61479 0.0
C3047 C 0.29074 0.64706 0.59336 0.0
H3048 H 0.83896 0.9193 0.56156 0.0
H3049 H 0.85422 0.86373 0.52763 0.0
H3050 H 0.83466 0.84298 0.55274 0.0
H3051 H 0.84394 0.89658 0.61205 0.0
H3052 H 0.82285 0.91094 0.62303 0.0
H3053 H 0.83752 0.9217 0.60205 0.0
H3054 H 0.80402 0.92644 0.5808 0.0
H3055 H 0.78924 0.91579 0.60175 0.0
H3056 H 0.78746 0.90458 0.57641 0.0
H3057 H 0.81278 0.82838 0.58059 0.0
H3058 H 0.79088 0.8205 0.61068 0.0
H3059 H 0.79144 0.88506 0.62804 0.0
C3060 C 0.83805 0.90279 0.55938 0.0
C3061 C 0.848 0.89311 0.54263 0.0
C3062 C 0.84673 0.87144 0.5404 0.0
C3063 C 0.83564 0.85952 0.55455 0.0
C3064 C 0.82614 0.86949 0.57098 0.0
C3065 C 0.82731 0.89059 0.57359 0.0
C3066 C 0.81606 0.8973 0.59293 0.0
C3067 C 0.83099 0.90721 0.60843 0.0
C3068 C 0.79813 0.91189 0.58765 0.0
C3069 C 0.80828 0.87668 0.60065 0.0
C3070 C 0.81417 0.86089 0.58764 0.0
C3071 C 0.8082 0.84056 0.591 0.0
C3072 C 0.79576 0.83625 0.60809 0.0
C3073 C 0.78967 0.85214 0.62171 0.0
C3074 C 0.79618 0.87258 0.61803 0.0
H3075 H 0.83751 0.08459 0.93934 0.0
H3076 H 0.86459 0.13818 0.96878 0.0
H3077 H 0.84446 0.16093 0.9459 0.0
H3078 H 0.83767 0.10588 0.88762 0.0
H3079 H 0.81357 0.09405 0.88052 0.0
H3080 H 0.82999 0.08188 0.89933 0.0
H3081 H 0.79986 0.08159 0.92554 0.0
H3082 H 0.78336 0.09377 0.90682 0.0
H3083 H 0.78698 0.1054 0.93178 0.0
H3084 H 0.82022 0.17783 0.92127 0.0
H3085 H 0.79517 0.18795 0.89445 0.0
H3086 H 0.78532 0.12357 0.87935 0.0
C3087 C 0.83919 0.10111 0.94094 0.0
C3088 C 0.85254 0.10965 0.95587 0.0
C3089 C 0.8545 0.13133 0.9574 0.0
C3090 C 0.84309 0.14437 0.94452 0.0
C3091 C 0.83002 0.13549 0.93001 0.0
C3092 C 0.82816 0.11438 0.92796 0.0
C3093 C 0.81328 0.10887 0.91082 0.0
C3094 C 0.82429 0.09697 0.89355 0.0
C3095 C 0.79478 0.09669 0.91925 0.0
C3096 C 0.80692 0.13019 0.90373 0.0
C3097 C 0.81664 0.1453 0.91514 0.0
C3098 C 0.81265 0.16616 0.91208 0.0
C3099 C 0.79837 0.17174 0.89688 0.0
C3100 C 0.78847 0.15654 0.88477 0.0
C3101 C 0.7929 0.13551 0.8882 0.0
H3102 H 0.37957 0.88813 0.28165 0.0
H3103 H 0.32573 0.86911 0.31641 0.0
H3104 H 0.33673 0.89077 0.34554 0.0
H3105 H 0.41551 0.8931 0.32666 0.0
H3106 H 0.42763 0.91581 0.31622 0.0
H3107 H 0.41735 0.89647 0.29914 0.0
H3108 H 0.39504 0.92427 0.28116 0.0
H3109 H 0.40506 0.94363 0.29827 0.0
H3110 H 0.37763 0.93969 0.29636 0.0
H3111 H 0.35077 0.91674 0.36899 0.0
H3112 H 0.36777 0.94564 0.38646 0.0
H3113 H 0.41284 0.94917 0.33707 0.0
C3114 C 0.37052 0.8881 0.29568 0.0
C3115 C 0.35193 0.87683 0.29696 0.0
C3116 C 0.34006 0.87759 0.31522 0.0
C3117 C 0.34621 0.88979 0.33185 0.0
C3118 C 0.36423 0.90122 0.32995 0.0
C3119 C 0.37634 0.90049 0.31244 0.0
C3120 C 0.39398 0.91581 0.31388 0.0
C3121 C 0.41486 0.90462 0.31398 0.0
C3122 C 0.39285 0.93179 0.29638 0.0
C3123 C 0.3895 0.92557 0.33466 0.0
C3124 C 0.37237 0.9167 0.34366 0.0
C3125 C 0.36437 0.92367 0.36227 0.0
C3126 C 0.3741 0.9402 0.37201 0.0
C3127 C 0.39167 0.94969 0.36317 0.0
C3128 C 0.39957 0.94211 0.34431 0.0
H3129 H 0.20663 0.36923 0.89943 0.0
H3130 H 0.20649 0.31016 0.93084 0.0
H3131 H 0.18238 0.32427 0.9569 0.0
H3132 H 0.20635 0.4002 0.94509 0.0
H3133 H 0.1902 0.4199 0.93398 0.0
H3134 H 0.20687 0.40485 0.9177 0.0
H3135 H 0.17549 0.39419 0.89538 0.0
H3136 H 0.1587 0.40915 0.91163 0.0
H3137 H 0.15358 0.38217 0.9075 0.0
H3138 H 0.15766 0.34493 0.97899 0.0
H3139 H 0.13633 0.37087 0.99682 0.0
H3140 H 0.15407 0.4167 0.95139 0.0
C3141 C 0.20145 0.35917 0.91171 0.0
C3142 C 0.20826 0.33852 0.91303 0.0
C3143 C 0.20142 0.32601 0.92954 0.0
C3144 C 0.1877 0.33388 0.94435 0.0
C3145 C 0.18121 0.35431 0.94249 0.0
C3146 C 0.18805 0.36682 0.92668 0.0
C3147 C 0.17939 0.38841 0.92844 0.0
C3148 C 0.19674 0.40427 0.93149 0.0
C3149 C 0.16599 0.39378 0.90962 0.0
C3150 C 0.16646 0.38614 0.9477 0.0
C3151 C 0.16758 0.36632 0.95548 0.0
C3152 C 0.15674 0.36049 0.97306 0.0
C3153 C 0.1446 0.37534 0.98303 0.0
C3154 C 0.14354 0.39585 0.97552 0.0
C3155 C 0.1546 0.4012 0.95756 0.0
H3156 H 0.09031 0.05198 0.83957 0.0
H3157 H 0.13183 0.06549 0.89037 0.0
H3158 H 0.14807 0.09281 0.86985 0.0
H3159 H 0.12703 0.0593 0.79939 0.0
H3160 H 0.10924 0.07128 0.78172 0.0
H3161 H 0.09994 0.05327 0.80068 0.0
H3162 H 0.07439 0.08076 0.81425 0.0
H3163 H 0.0837 0.0989 0.79538 0.0
H3164 H 0.08399 0.10552 0.82236 0.0
H3165 H 0.16162 0.11672 0.84371 0.0
H3166 H 0.1717 0.13643 0.81277 0.0
H3167 H 0.12102 0.1094 0.77869 0.0
C3168 C 0.10273 0.06078 0.84639 0.0
C3169 C 0.10975 0.05653 0.86664 0.0
C3170 C 0.1261 0.06839 0.87495 0.0
C3171 C 0.13543 0.08402 0.86344 0.0
C3172 C 0.1282 0.08781 0.84362 0.0
C3173 C 0.11222 0.07663 0.83509 0.0
C3174 C 0.10799 0.08361 0.81312 0.0
C3175 C 0.11125 0.0658 0.79783 0.0
C3176 C 0.08622 0.09274 0.81117 0.0
C3177 C 0.12437 0.10015 0.81059 0.0
C3178 C 0.13577 0.10227 0.82847 0.0
C3179 C 0.15262 0.11548 0.82972 0.0
C3180 C 0.15822 0.1266 0.81212 0.0
C3181 C 0.14688 0.12466 0.79363 0.0
C3182 C 0.12954 0.11152 0.79289 0.0
H3183 H 0.64447 0.09966 0.05704 0.0
H3184 H 0.62794 0.15026 0.01657 0.0
H3185 H 0.64962 0.17383 0.03744 0.0
H3186 H 0.64539 0.12981 0.10496 0.0
H3187 H 0.66679 0.11528 0.11513 0.0
H3188 H 0.64875 0.10318 0.09785 0.0
H3189 H 0.6789 0.09291 0.07374 0.0
H3190 H 0.69699 0.10516 0.09079 0.0
H3191 H 0.69592 0.11261 0.06404 0.0
H3192 H 0.67638 0.19066 0.06072 0.0
H3193 H 0.70311 0.20009 0.08629 0.0
H3194 H 0.70029 0.13838 0.1119 0.0
C3195 C 0.64516 0.11577 0.05273 0.0
C3196 C 0.63464 0.1232 0.03522 0.0
C3197 C 0.63582 0.14436 0.03007 0.0
C3198 C 0.64814 0.1578 0.04176 0.0
C3199 C 0.65877 0.14981 0.05869 0.0
C3200 C 0.65706 0.12934 0.06434 0.0
C3201 C 0.67033 0.12432 0.0828 0.0
C3202 C 0.65702 0.11777 0.10128 0.0
C3203 C 0.68649 0.10778 0.07751 0.0
C3204 C 0.68024 0.14503 0.08641 0.0
C3205 C 0.67348 0.15957 0.07236 0.0
C3206 C 0.68152 0.17949 0.072 0.0
C3207 C 0.69676 0.18466 0.08648 0.0
C3208 C 0.70361 0.17 0.10115 0.0
C3209 C 0.69513 0.15001 0.10108 0.0
H3210 H 0.41028 0.05564 0.15051 0.0
H3211 H 0.36231 0.06288 0.10432 0.0
H3212 H 0.34773 0.09179 0.12394 0.0
H3213 H 0.37875 0.06538 0.1938 0.0
H3214 H 0.39799 0.07946 0.20804 0.0
H3215 H 0.40573 0.06023 0.18964 0.0
H3216 H 0.42813 0.08733 0.17072 0.0
H3217 H 0.42033 0.1067 0.18903 0.0
H3218 H 0.41646 0.11094 0.16184 0.0
H3219 H 0.33636 0.11749 0.14953 0.0
H3220 H 0.32879 0.13873 0.18014 0.0
H3221 H 0.38456 0.11661 0.20957 0.0
C3222 C 0.39683 0.06344 0.14443 0.0
C3223 C 0.38747 0.05694 0.12583 0.0
C3224 C 0.3698 0.06751 0.11849 0.0
C3225 C 0.36142 0.08404 0.12949 0.0
C3226 C 0.37094 0.08999 0.14775 0.0
C3227 C 0.38827 0.08011 0.15521 0.0
C3228 C 0.39481 0.08908 0.1758 0.0
C3229 C 0.39428 0.07255 0.19282 0.0
C3230 C 0.41621 0.09911 0.17424 0.0
C3231 C 0.37813 0.10516 0.17894 0.0
C3232 C 0.36462 0.10545 0.16245 0.0
C3233 C 0.34702 0.11772 0.16237 0.0
C3234 C 0.34285 0.12972 0.17977 0.0
C3235 C 0.35632 0.12954 0.1969 0.0
C3236 C 0.3744 0.11745 0.19634 0.0
H3237 H 0.62565 0.39848 0.22347 0.0
H3238 H 0.69078 0.40399 0.20933 0.0
H3239 H 0.68222 0.41866 0.17533 0.0
H3240 H 0.60776 0.38572 0.17279 0.0
H3241 H 0.58482 0.40133 0.17416 0.0
H3242 H 0.59577 0.39067 0.19736 0.0
H3243 H 0.59816 0.42716 0.21336 0.0
H3244 H 0.58693 0.43788 0.19033 0.0
H3245 H 0.61141 0.44728 0.1995 0.0
H3246 H 0.66693 0.43058 0.14232 0.0
H3247 H 0.64592 0.44525 0.1143 0.0
H3248 H 0.59057 0.43536 0.15056 0.0
C3249 C 0.63805 0.40294 0.21322 0.0
C3250 C 0.65887 0.40012 0.21895 0.0
C3251 C 0.67473 0.40621 0.20528 0.0
C3252 C 0.67004 0.41437 0.18587 0.0
C3253 C 0.6494 0.41669 0.18053 0.0
C3254 C 0.63363 0.41167 0.19394 0.0
C3255 C 0.6128 0.41693 0.18471 0.0
C3256 C 0.59951 0.3975 0.1821 0.0
C3257 C 0.60168 0.43329 0.19775 0.0
C3258 C 0.61938 0.42554 0.16399 0.0
C3259 C 0.64054 0.42482 0.16179 0.0
C3260 C 0.65035 0.4314 0.14389 0.0
C3261 C 0.63825 0.43956 0.12799 0.0
C3262 C 0.61663 0.44145 0.13027 0.0
C3263 C 0.60707 0.4341 0.14842 0.0
loop_
_geom_bond_atom_site_label_1
_geom_bond_atom_site_label_2
_geom_bond_distance
_geom_bond_site_symmetry_2
_ccdc_geom_bond_type
C0 O2 1.247 . S
C0 O4 1.258 . S
C1 O8 1.247 . S
C1 O9 1.258 . S
O2 C0 1.247 . S
O2 Zn3 2.028 . S
Zn3 O2 2.028 . S
Zn3 O7 2.035 . S
Zn3 O9 2.035 . S
Zn3 O10 2.028 . S
O4 C0 1.258 . S
O4 Zn5 2.035 . S
Zn5 O4 2.035 . S
Zn5 O6 2.028 . S
Zn5 O8 2.028 . S
Zn5 O11 2.035 . S
O6 Zn5 2.028 . S
O6 C12 1.247 . S
O7 Zn3 2.035 . S
O7 C12 1.258 . S
O8 C1 1.247 . S
O8 Zn5 2.028 . S
O9 C1 1.258 . S
O9 Zn3 2.035 . S
O10 Zn3 2.028 . S
O10 C13 1.247 . S
O11 Zn5 2.035 . S
O11 C13 1.258 . S
C12 O6 1.247 . S
C12 O7 1.258 . S
C13 O10 1.247 . S
C13 O11 1.258 . S
C14 O16 1.247 . S
C14 O18 1.258 . S
C15 O22 1.247 . S
C15 O23 1.258 . S
O16 C14 1.247 . S
O16 Zn17 2.028 . S
Zn17 O16 2.028 . S
Zn17 O21 2.035 . S
Zn17 O23 2.035 . S
Zn17 O24 2.028 . S
O18 C14 1.258 . S
O18 Zn19 2.035 . S
Zn19 O18 2.035 . S
Zn19 O20 2.028 . S
Zn19 O22 2.028 . S
Zn19 O25 2.035 . S
O20 Zn19 2.028 . S
O20 C26 1.247 . S
O21 Zn17 2.035 . S
O21 C26 1.258 . S
O22 C15 1.247 . S
O22 Zn19 2.028 . S
O23 C15 1.258 . S
O23 Zn17 2.035 . S
O24 Zn17 2.028 . S
O24 C27 1.247 . S
O25 Zn19 2.035 . S
O25 C27 1.258 . S
C26 O20 1.247 . S
C26 O21 1.258 . S
C27 O24 1.247 . S
C27 O25 1.258 . S
C28 O30 1.247 . S
C28 O32 1.258 . S
C29 O36 1.247 . S
C29 O37 1.258 . S
O30 C28 1.247 . S
O30 Zn31 2.028 . S
Zn31 O30 2.028 . S
Zn31 O35 2.035 . S
Zn31 O37 2.035 . S
Zn31 O38 2.028 . S
O32 C28 1.258 . S
O32 Zn33 2.035 . S
Zn33 O32 2.035 . S
Zn33 O34 2.028 . S
Zn33 O36 2.028 . S
Zn33 O39 2.035 . S
O34 Zn33 2.028 . S
O34 C40 1.247 . S
O35 Zn31 2.035 . S
O35 C40 1.258 . S
O36 C29 1.247 . S
O36 Zn33 2.028 . S
O37 C29 1.258 . S
O37 Zn31 2.035 . S
O38 Zn31 2.028 . S
O38 C41 1.247 . S
O39 Zn33 2.035 . S
O39 C41 1.258 . S
C40 O34 1.247 . S
C40 O35 1.258 . S
C41 O38 1.247 . S
C41 O39 1.258 . S
C42 O44 1.247 . S
C42 O46 1.258 . S
C43 O50 1.247 . S
C43 O51 1.258 . S
O44 C42 1.247 . S
O44 Zn45 2.028 . S
Zn45 O44 2.028 . S
Zn45 O49 2.035 . S
Zn45 O51 2.035 . S
Zn45 O52 2.028 . S
O46 C42 1.258 . S
O46 Zn47 2.035 . S
Zn47 O46 2.035 . S
Zn47 O48 2.028 . S
Zn47 O50 2.028 . S
Zn47 O53 2.035 . S
O48 Zn47 2.028 . S
O48 C54 1.247 . S
O49 Zn45 2.035 . S
O49 C54 1.258 . S
O50 C43 1.247 . S
O50 Zn47 2.028 . S
O51 C43 1.258 . S
O51 Zn45 2.035 . S
O52 Zn45 2.028 . S
O52 C55 1.247 . S
O53 Zn47 2.035 . S
O53 C55 1.258 . S
C54 O48 1.247 . S
C54 O49 1.258 . S
C55 O52 1.247 . S
C55 O53 1.258 . S
C56 O58 1.247 . S
C56 O60 1.258 . S
C57 O64 1.247 . S
C57 O65 1.258 . S
O58 C56 1.247 . S
O58 Zn59 2.028 . S
Zn59 O58 2.028 . S
Zn59 O63 2.035 . S
Zn59 O65 2.035 . S
Zn59 O66 2.028 . S
O60 C56 1.258 . S
O60 Zn61 2.035 . S
Zn61 O60 2.035 . S
Zn61 O62 2.028 . S
Zn61 O64 2.028 . S
Zn61 O67 2.035 . S
O62 Zn61 2.028 . S
O62 C68 1.247 . S
O63 Zn59 2.035 . S
O63 C68 1.258 . S
O64 C57 1.247 . S
O64 Zn61 2.028 . S
O65 C57 1.258 . S
O65 Zn59 2.035 . S
O66 Zn59 2.028 . S
O66 C69 1.247 . S
O67 Zn61 2.035 . S
O67 C69 1.258 . S
C68 O62 1.247 . S
C68 O63 1.258 . S
C69 O66 1.247 . S
C69 O67 1.258 . S
C70 O72 1.247 . S
C70 O74 1.258 . S
C71 O78 1.247 . S
C71 O79 1.258 . S
O72 C70 1.247 . S
O72 Zn73 2.028 . S
Zn73 O72 2.028 . S
Zn73 O77 2.035 . S
Zn73 O79 2.035 1_455 S
Zn73 O80 2.028 1_455 S
O74 C70 1.258 . S
O74 Zn75 2.035 1_455 S
Zn75 O74 2.035 1_655 S
Zn75 O76 2.028 1_655 S
Zn75 O78 2.028 . S
Zn75 O81 2.035 . S
O76 Zn75 2.028 1_455 S
O76 C82 1.247 . S
O77 Zn73 2.035 . S
O77 C82 1.258 . S
O78 C71 1.247 . S
O78 Zn75 2.028 . S
O79 C71 1.258 . S
O79 Zn73 2.035 1_655 S
O80 Zn73 2.028 1_655 S
O80 C83 1.247 . S
O81 Zn75 2.035 . S
O81 C83 1.258 . S
C82 O76 1.247 . S
C82 O77 1.258 . S
C83 O80 1.247 . S
C83 O81 1.258 . S
C84 O86 1.247 . S
C84 O88 1.258 . S
C85 O92 1.247 . S
C85 O93 1.258 . S
O86 C84 1.247 . S
O86 Zn87 2.028 . S
Zn87 O86 2.028 . S
Zn87 O91 2.035 . S
Zn87 O93 2.035 . S
Zn87 O94 2.028 . S
O88 C84 1.258 . S
O88 Zn89 2.035 . S
Zn89 O88 2.035 . S
Zn89 O90 2.028 . S
Zn89 O92 2.028 . S
Zn89 O95 2.035 . S
O90 Zn89 2.028 . S
O90 C96 1.247 . S
O91 Zn87 2.035 . S
O91 C96 1.258 . S
O92 C85 1.247 . S
O92 Zn89 2.028 . S
O93 C85 1.258 . S
O93 Zn87 2.035 . S
O94 Zn87 2.028 . S
O94 C97 1.247 . S
O95 Zn89 2.035 . S
O95 C97 1.258 . S
C96 O90 1.247 . S
C96 O91 1.258 . S
C97 O94 1.247 . S
C97 O95 1.258 . S
C98 O100 1.247 . S
C98 O102 1.258 . S
C99 O106 1.247 . S
C99 O107 1.258 . S
O100 C98 1.247 . S
O100 Zn101 2.028 . S
Zn101 O100 2.028 . S
Zn101 O105 2.035 . S
Zn101 O107 2.035 1_655 S
Zn101 O108 2.028 1_655 S
O102 C98 1.258 . S
O102 Zn103 2.035 1_655 S
Zn103 O102 2.035 1_455 S
Zn103 O104 2.028 1_455 S
Zn103 O106 2.028 . S
Zn103 O109 2.035 . S
O104 Zn103 2.028 1_655 S
O104 C110 1.247 . S
O105 Zn101 2.035 . S
O105 C110 1.258 . S
O106 C99 1.247 . S
O106 Zn103 2.028 . S
O107 C99 1.258 . S
O107 Zn101 2.035 1_455 S
O108 Zn101 2.028 1_455 S
O108 C111 1.247 . S
O109 Zn103 2.035 . S
O109 C111 1.258 . S
C110 O104 1.247 . S
C110 O105 1.258 . S
C111 O108 1.247 . S
C111 O109 1.258 . S
C112 O114 1.247 . S
C112 O116 1.258 . S
C113 O120 1.247 . S
C113 O121 1.258 . S
O114 C112 1.247 . S
O114 Zn115 2.028 . S
Zn115 O114 2.028 . S
Zn115 O119 2.035 . S
Zn115 O121 2.035 . S
Zn115 O122 2.028 . S
O116 C112 1.258 . S
O116 Zn117 2.035 . S
Zn117 O116 2.035 . S
Zn117 O118 2.028 . S
Zn117 O120 2.028 . S
Zn117 O123 2.035 . S
O118 Zn117 2.028 . S
O118 C124 1.247 . S
O119 Zn115 2.035 . S
O119 C124 1.258 . S
O120 C113 1.247 . S
O120 Zn117 2.028 . S
O121 C113 1.258 . S
O121 Zn115 2.035 . S
O122 Zn115 2.028 . S
O122 C125 1.247 . S
O123 Zn117 2.035 . S
O123 C125 1.258 . S
C124 O118 1.247 . S
C124 O119 1.258 . S
C125 O122 1.247 . S
C125 O123 1.258 . S
C126 O128 1.247 . S
C126 O130 1.258 . S
C127 O134 1.247 . S
C127 O135 1.258 . S
O128 C126 1.247 . S
O128 Zn129 2.028 . S
Zn129 O128 2.028 . S
Zn129 O133 2.035 . S
Zn129 O135 2.035 1_556 S
Zn129 O136 2.028 1_556 S
O130 C126 1.258 . S
O130 Zn131 2.035 1_556 S
Zn131 O130 2.035 1_554 S
Zn131 O132 2.028 1_554 S
Zn131 O134 2.028 . S
Zn131 O137 2.035 . S
O132 Zn131 2.028 1_556 S
O132 C138 1.247 . S
O133 Zn129 2.035 . S
O133 C138 1.258 . S
O134 C127 1.247 . S
O134 Zn131 2.028 . S
O135 C127 1.258 . S
O135 Zn129 2.035 1_554 S
O136 Zn129 2.028 1_554 S
O136 C139 1.247 . S
O137 Zn131 2.035 . S
O137 C139 1.258 . S
C138 O132 1.247 . S
C138 O133 1.258 . S
C139 O136 1.247 . S
C139 O137 1.258 . S
C140 O142 1.247 . S
C140 O144 1.258 . S
C141 O148 1.247 . S
C141 O149 1.258 . S
O142 C140 1.247 . S
O142 Zn143 2.028 . S
Zn143 O142 2.028 . S
Zn143 O147 2.035 . S
Zn143 O149 2.035 . S
Zn143 O150 2.028 . S
O144 C140 1.258 . S
O144 Zn145 2.035 . S
Zn145 O144 2.035 . S
Zn145 O146 2.028 . S
Zn145 O148 2.028 . S
Zn145 O151 2.035 . S
O146 Zn145 2.028 . S
O146 C152 1.247 . S
O147 Zn143 2.035 . S
O147 C152 1.258 . S
O148 C141 1.247 . S
O148 Zn145 2.028 . S
O149 C141 1.258 . S
O149 Zn143 2.035 . S
O150 Zn143 2.028 . S
O150 C153 1.247 . S
O151 Zn145 2.035 . S
O151 C153 1.258 . S
C152 O146 1.247 . S
C152 O147 1.258 . S
C153 O150 1.247 . S
C153 O151 1.258 . S
C154 O156 1.247 . S
C154 O158 1.258 . S
C155 O162 1.247 . S
C155 O163 1.258 . S
O156 C154 1.247 . S
O156 Zn157 2.028 1_554 S
Zn157 O156 2.028 1_556 S
Zn157 O161 2.035 1_556 S
Zn157 O163 2.035 . S
Zn157 O164 2.028 . S
O158 C154 1.258 . S
O158 Zn159 2.035 . S
Zn159 O158 2.035 . S
Zn159 O160 2.028 . S
Zn159 O162 2.028 1_554 S
Zn159 O165 2.035 1_554 S
O160 Zn159 2.028 . S
O160 C166 1.247 . S
O161 Zn157 2.035 1_554 S
O161 C166 1.258 . S
O162 C155 1.247 . S
O162 Zn159 2.028 1_556 S
O163 C155 1.258 . S
O163 Zn157 2.035 . S
O164 Zn157 2.028 . S
O164 C167 1.247 . S
O165 Zn159 2.035 1_556 S
O165 C167 1.258 . S
C166 O160 1.247 . S
C166 O161 1.258 . S
C167 O164 1.247 . S
C167 O165 1.258 . S
C168 O170 1.247 . S
C168 O172 1.258 . S
C169 O176 1.247 . S
C169 O177 1.258 . S
O170 C168 1.247 . S
O170 Zn171 2.028 . S
Zn171 O170 2.028 . S
Zn171 O175 2.035 . S
Zn171 O177 2.035 . S
Zn171 O178 2.028 . S
O172 C168 1.258 . S
O172 Zn173 2.035 . S
Zn173 O172 2.035 . S
Zn173 O174 2.028 . S
Zn173 O176 2.028 . S
Zn173 O179 2.035 . S
O174 Zn173 2.028 . S
O174 C180 1.247 . S
O175 Zn171 2.035 . S
O175 C180 1.258 . S
O176 C169 1.247 . S
O176 Zn173 2.028 . S
O177 C169 1.258 . S
O177 Zn171 2.035 . S
O178 Zn171 2.028 . S
O178 C181 1.247 . S
O179 Zn173 2.035 . S
O179 C181 1.258 . S
C180 O174 1.247 . S
C180 O175 1.258 . S
C181 O178 1.247 . S
C181 O179 1.258 . S
C182 O184 1.247 . S
C182 O186 1.258 . S
C183 O190 1.247 . S
C183 O191 1.258 . S
O184 C182 1.247 . S
O184 Zn185 2.028 . S
Zn185 O184 2.028 . S
Zn185 O189 2.035 . S
Zn185 O191 2.035 1_554 S
Zn185 O192 2.028 1_554 S
O186 C182 1.258 . S
O186 Zn187 2.035 1_554 S
Zn187 O186 2.035 1_556 S
Zn187 O188 2.028 1_556 S
Zn187 O190 2.028 . S
Zn187 O193 2.035 . S
O188 Zn187 2.028 1_554 S
O188 C194 1.247 . S
O189 Zn185 2.035 . S
O189 C194 1.258 . S
O190 C183 1.247 . S
O190 Zn187 2.028 . S
O191 C183 1.258 . S
O191 Zn185 2.035 1_556 S
O192 Zn185 2.028 1_556 S
O192 C195 1.247 . S
O193 Zn187 2.035 . S
O193 C195 1.258 . S
C194 O188 1.247 . S
C194 O189 1.258 . S
C195 O192 1.247 . S
C195 O193 1.258 . S
C196 O198 1.247 . S
C196 O200 1.258 . S
C197 O204 1.247 . S
C197 O205 1.258 . S
O198 C196 1.247 . S
O198 Zn199 2.028 . S
Zn199 O198 2.028 . S
Zn199 O203 2.035 . S
Zn199 O205 2.035 . S
Zn199 O206 2.028 . S
O200 C196 1.258 . S
O200 Zn201 2.035 . S
Zn201 O200 2.035 . S
Zn201 O202 2.028 . S
Zn201 O204 2.028 . S
Zn201 O207 2.035 . S
O202 Zn201 2.028 . S
O202 C208 1.247 . S
O203 Zn199 2.035 . S
O203 C208 1.258 . S
O204 C197 1.247 . S
O204 Zn201 2.028 . S
O205 C197 1.258 . S
O205 Zn199 2.035 . S
O206 Zn199 2.028 . S
O206 C209 1.247 . S
O207 Zn201 2.035 . S
O207 C209 1.258 . S
C208 O202 1.247 . S
C208 O203 1.258 . S
C209 O206 1.247 . S
C209 O207 1.258 . S
C210 O212 1.247 . S
C210 O214 1.258 . S
C211 O218 1.247 . S
C211 O219 1.258 . S
O212 C210 1.247 . S
O212 Zn213 2.028 1_556 S
Zn213 O212 2.028 1_554 S
Zn213 O217 2.035 1_554 S
Zn213 O219 2.035 . S
Zn213 O220 2.028 . S
O214 C210 1.258 . S
O214 Zn215 2.035 . S
Zn215 O214 2.035 . S
Zn215 O216 2.028 . S
Zn215 O218 2.028 1_556 S
Zn215 O221 2.035 1_556 S
O216 Zn215 2.028 . S
O216 C222 1.247 . S
O217 Zn213 2.035 1_556 S
O217 C222 1.258 . S
O218 C211 1.247 . S
O218 Zn215 2.028 1_554 S
O219 C211 1.258 . S
O219 Zn213 2.035 . S
O220 Zn213 2.028 . S
O220 C223 1.247 . S
O221 Zn215 2.035 1_554 S
O221 C223 1.258 . S
C222 O216 1.247 . S
C222 O217 1.258 . S
C223 O220 1.247 . S
C223 O221 1.258 . S
C224 O226 1.247 . S
C224 O228 1.258 . S
C225 O232 1.247 . S
C225 O233 1.258 . S
O226 C224 1.247 . S
O226 Zn227 2.028 . S
Zn227 O226 2.028 . S
Zn227 O231 2.035 . S
Zn227 O233 2.035 . S
Zn227 O234 2.028 . S
O228 C224 1.258 . S
O228 Zn229 2.035 . S
Zn229 O228 2.035 . S
Zn229 O230 2.028 . S
Zn229 O232 2.028 . S
Zn229 O235 2.035 . S
O230 Zn229 2.028 . S
O230 C236 1.247 . S
O231 Zn227 2.035 . S
O231 C236 1.258 . S
O232 C225 1.247 . S
O232 Zn229 2.028 . S
O233 C225 1.258 . S
O233 Zn227 2.035 . S
O234 Zn227 2.028 . S
O234 C237 1.247 . S
O235 Zn229 2.035 . S
O235 C237 1.258 . S
C236 O230 1.247 . S
C236 O231 1.258 . S
C237 O234 1.247 . S
C237 O235 1.258 . S
C238 O240 1.247 . S
C238 O242 1.258 . S
C239 O246 1.247 . S
C239 O247 1.258 . S
O240 C238 1.247 . S
O240 Zn241 2.028 . S
Zn241 O240 2.028 . S
Zn241 O245 2.035 . S
Zn241 O247 2.035 . S
Zn241 O248 2.028 . S
O242 C238 1.258 . S
O242 Zn243 2.035 . S
Zn243 O242 2.035 . S
Zn243 O244 2.028 . S
Zn243 O246 2.028 . S
Zn243 O249 2.035 . S
O244 Zn243 2.028 . S
O244 C250 1.247 . S
O245 Zn241 2.035 . S
O245 C250 1.258 . S
O246 C239 1.247 . S
O246 Zn243 2.028 . S
O247 C239 1.258 . S
O247 Zn241 2.035 . S
O248 Zn241 2.028 . S
O248 C251 1.247 . S
O249 Zn243 2.035 . S
O249 C251 1.258 . S
C250 O244 1.247 . S
C250 O245 1.258 . S
C251 O248 1.247 . S
C251 O249 1.258 . S
C252 O254 1.247 . S
C252 O256 1.258 . S
C253 O260 1.247 . S
C253 O261 1.258 . S
O254 C252 1.247 . S
O254 Zn255 2.028 . S
Zn255 O254 2.028 . S
Zn255 O259 2.035 . S
Zn255 O261 2.035 . S
Zn255 O262 2.028 . S
O256 C252 1.258 . S
O256 Zn257 2.035 . S
Zn257 O256 2.035 . S
Zn257 O258 2.028 . S
Zn257 O260 2.028 . S
Zn257 O263 2.035 . S
O258 Zn257 2.028 . S
O258 C264 1.247 . S
O259 Zn255 2.035 . S
O259 C264 1.258 . S
O260 C253 1.247 . S
O260 Zn257 2.028 . S
O261 C253 1.258 . S
O261 Zn255 2.035 . S
O262 Zn255 2.028 . S
O262 C265 1.247 . S
O263 Zn257 2.035 . S
O263 C265 1.258 . S
C264 O258 1.247 . S
C264 O259 1.258 . S
C265 O262 1.247 . S
C265 O263 1.258 . S
C266 O268 1.247 . S
C266 O270 1.258 . S
C267 O274 1.247 . S
C267 O275 1.258 . S
O268 C266 1.247 . S
O268 Zn269 2.028 . S
Zn269 O268 2.028 . S
Zn269 O273 2.035 . S
Zn269 O275 2.035 . S
Zn269 O276 2.028 . S
O270 C266 1.258 . S
O270 Zn271 2.035 . S
Zn271 O270 2.035 . S
Zn271 O272 2.028 . S
Zn271 O274 2.028 . S
Zn271 O277 2.035 . S
O272 Zn271 2.028 . S
O272 C278 1.247 . S
O273 Zn269 2.035 . S
O273 C278 1.258 . S
O274 C267 1.247 . S
O274 Zn271 2.028 . S
O275 C267 1.258 . S
O275 Zn269 2.035 . S
O276 Zn269 2.028 . S
O276 C279 1.247 . S
O277 Zn271 2.035 . S
O277 C279 1.258 . S
C278 O272 1.247 . S
C278 O273 1.258 . S
C279 O276 1.247 . S
C279 O277 1.258 . S
C280 O282 1.247 . S
C280 O284 1.258 . S
C281 O288 1.247 . S
C281 O289 1.258 . S
O282 C280 1.247 . S
O282 Zn283 2.028 . S
Zn283 O282 2.028 . S
Zn283 O287 2.035 . S
Zn283 O289 2.035 . S
Zn283 O290 2.028 . S
O284 C280 1.258 . S
O284 Zn285 2.035 . S
Zn285 O284 2.035 . S
Zn285 O286 2.028 . S
Zn285 O288 2.028 . S
Zn285 O291 2.035 . S
O286 Zn285 2.028 . S
O286 C292 1.247 . S
O287 Zn283 2.035 . S
O287 C292 1.258 . S
O288 C281 1.247 . S
O288 Zn285 2.028 . S
O289 C281 1.258 . S
O289 Zn283 2.035 . S
O290 Zn283 2.028 . S
O290 C293 1.247 . S
O291 Zn285 2.035 . S
O291 C293 1.258 . S
C292 O286 1.247 . S
C292 O287 1.258 . S
C293 O290 1.247 . S
C293 O291 1.258 . S
C294 O296 1.247 . S
C294 O298 1.258 . S
C295 O302 1.247 . S
C295 O303 1.258 . S
O296 C294 1.247 . S
O296 Zn297 2.028 . S
Zn297 O296 2.028 . S
Zn297 O301 2.035 . S
Zn297 O303 2.035 . S
Zn297 O304 2.028 . S
O298 C294 1.258 . S
O298 Zn299 2.035 . S
Zn299 O298 2.035 . S
Zn299 O300 2.028 . S
Zn299 O302 2.028 . S
Zn299 O305 2.035 . S
O300 Zn299 2.028 . S
O300 C306 1.247 . S
O301 Zn297 2.035 . S
O301 C306 1.258 . S
O302 C295 1.247 . S
O302 Zn299 2.028 . S
O303 C295 1.258 . S
O303 Zn297 2.035 . S
O304 Zn297 2.028 . S
O304 C307 1.247 . S
O305 Zn299 2.035 . S
O305 C307 1.258 . S
C306 O300 1.247 . S
C306 O301 1.258 . S
C307 O304 1.247 . S
C307 O305 1.258 . S
C308 O310 1.247 . S
C308 O312 1.258 . S
C309 O316 1.247 . S
C309 O317 1.258 . S
O310 C308 1.247 . S
O310 Zn311 2.028 . S
Zn311 O310 2.028 . S
Zn311 O315 2.035 . S
Zn311 O317 2.035 . S
Zn311 O318 2.028 . S
O312 C308 1.258 . S
O312 Zn313 2.035 . S
Zn313 O312 2.035 . S
Zn313 O314 2.028 . S
Zn313 O316 2.028 . S
Zn313 O319 2.035 . S
O314 Zn313 2.028 . S
O314 C320 1.247 . S
O315 Zn311 2.035 . S
O315 C320 1.258 . S
O316 C309 1.247 . S
O316 Zn313 2.028 . S
O317 C309 1.258 . S
O317 Zn311 2.035 . S
O318 Zn311 2.028 . S
O318 C321 1.247 . S
O319 Zn313 2.035 . S
O319 C321 1.258 . S
C320 O314 1.247 . S
C320 O315 1.258 . S
C321 O318 1.247 . S
C321 O319 1.258 . S
C322 O324 1.247 . S
C322 O326 1.258 . S
C323 O330 1.247 . S
C323 O331 1.258 . S
O324 C322 1.247 . S
O324 Zn325 2.028 . S
Zn325 O324 2.028 . S
Zn325 O329 2.035 . S
Zn325 O331 2.035 1_545 S
Zn325 O332 2.028 1_545 S
O326 C322 1.258 . S
O326 Zn327 2.035 1_545 S
Zn327 O326 2.035 1_565 S
Zn327 O328 2.028 1_565 S
Zn327 O330 2.028 . S
Zn327 O333 2.035 . S
O328 Zn327 2.028 1_545 S
O328 C334 1.247 . S
O329 Zn325 2.035 . S
O329 C334 1.258 . S
O330 C323 1.247 . S
O330 Zn327 2.028 . S
O331 C323 1.258 . S
O331 Zn325 2.035 1_565 S
O332 Zn325 2.028 1_565 S
O332 C335 1.247 . S
O333 Zn327 2.035 . S
O333 C335 1.258 . S
C334 O328 1.247 . S
C334 O329 1.258 . S
C335 O332 1.247 . S
C335 O333 1.258 . S
C336 O338 1.247 . S
C336 O340 1.258 . S
C337 O344 1.247 . S
C337 O345 1.258 . S
O338 C336 1.247 . S
O338 Zn339 2.028 . S
Zn339 O338 2.028 . S
Zn339 O343 2.035 . S
Zn339 O345 2.035 . S
Zn339 O346 2.028 . S
O340 C336 1.258 . S
O340 Zn341 2.035 . S
Zn341 O340 2.035 . S
Zn341 O342 2.028 . S
Zn341 O344 2.028 . S
Zn341 O347 2.035 . S
O342 Zn341 2.028 . S
O342 C348 1.247 . S
O343 Zn339 2.035 . S
O343 C348 1.258 . S
O344 C337 1.247 . S
O344 Zn341 2.028 . S
O345 C337 1.258 . S
O345 Zn339 2.035 . S
O346 Zn339 2.028 . S
O346 C349 1.247 . S
O347 Zn341 2.035 . S
O347 C349 1.258 . S
C348 O342 1.247 . S
C348 O343 1.258 . S
C349 O346 1.247 . S
C349 O347 1.258 . S
C350 O352 1.247 . S
C350 O354 1.258 . S
C351 O358 1.247 . S
C351 O359 1.258 . S
O352 C350 1.247 . S
O352 Zn353 2.028 1_655 S
Zn353 O352 2.028 1_455 S
Zn353 O357 2.035 1_455 S
Zn353 O359 2.035 . S
Zn353 O360 2.028 . S
O354 C350 1.258 . S
O354 Zn355 2.035 . S
Zn355 O354 2.035 . S
Zn355 O356 2.028 . S
Zn355 O358 2.028 1_655 S
Zn355 O361 2.035 1_655 S
O356 Zn355 2.028 . S
O356 C362 1.247 . S
O357 Zn353 2.035 1_655 S
O357 C362 1.258 . S
O358 C351 1.247 . S
O358 Zn355 2.028 1_455 S
O359 C351 1.258 . S
O359 Zn353 2.035 . S
O360 Zn353 2.028 . S
O360 C363 1.247 . S
O361 Zn355 2.035 1_455 S
O361 C363 1.258 . S
C362 O356 1.247 . S
C362 O357 1.258 . S
C363 O360 1.247 . S
C363 O361 1.258 . S
C364 O366 1.247 . S
C364 O368 1.258 . S
C365 O372 1.247 . S
C365 O373 1.258 . S
O366 C364 1.247 . S
O366 Zn367 2.028 . S
Zn367 O366 2.028 . S
Zn367 O371 2.035 . S
Zn367 O373 2.035 . S
Zn367 O374 2.028 . S
O368 C364 1.258 . S
O368 Zn369 2.035 . S
Zn369 O368 2.035 . S
Zn369 O370 2.028 . S
Zn369 O372 2.028 . S
Zn369 O375 2.035 . S
O370 Zn369 2.028 . S
O370 C376 1.247 . S
O371 Zn367 2.035 . S
O371 C376 1.258 . S
O372 C365 1.247 . S
O372 Zn369 2.028 . S
O373 C365 1.258 . S
O373 Zn367 2.035 . S
O374 Zn367 2.028 . S
O374 C377 1.247 . S
O375 Zn369 2.035 . S
O375 C377 1.258 . S
C376 O370 1.247 . S
C376 O371 1.258 . S
C377 O374 1.247 . S
C377 O375 1.258 . S
C378 O380 1.247 . S
C378 O382 1.258 . S
C379 O386 1.247 . S
C379 O387 1.258 . S
O380 C378 1.247 . S
O380 Zn381 2.028 1_455 S
Zn381 O380 2.028 1_655 S
Zn381 O385 2.035 1_655 S
Zn381 O387 2.035 . S
Zn381 O388 2.028 . S
O382 C378 1.258 . S
O382 Zn383 2.035 . S
Zn383 O382 2.035 . S
Zn383 O384 2.028 . S
Zn383 O386 2.028 1_455 S
Zn383 O389 2.035 1_455 S
O384 Zn383 2.028 . S
O384 C390 1.247 . S
O385 Zn381 2.035 1_455 S
O385 C390 1.258 . S
O386 C379 1.247 . S
O386 Zn383 2.028 1_655 S
O387 C379 1.258 . S
O387 Zn381 2.035 . S
O388 Zn381 2.028 . S
O388 C391 1.247 . S
O389 Zn383 2.035 1_655 S
O389 C391 1.258 . S
C390 O384 1.247 . S
C390 O385 1.258 . S
C391 O388 1.247 . S
C391 O389 1.258 . S
C392 O394 1.247 . S
C392 O396 1.258 . S
C393 O400 1.247 . S
C393 O401 1.258 . S
O394 C392 1.247 . S
O394 Zn395 2.028 . S
Zn395 O394 2.028 . S
Zn395 O399 2.035 . S
Zn395 O401 2.035 . S
Zn395 O402 2.028 . S
O396 C392 1.258 . S
O396 Zn397 2.035 . S
Zn397 O396 2.035 . S
Zn397 O398 2.028 . S
Zn397 O400 2.028 . S
Zn397 O403 2.035 . S
O398 Zn397 2.028 . S
O398 C404 1.247 . S
O399 Zn395 2.035 . S
O399 C404 1.258 . S
O400 C393 1.247 . S
O400 Zn397 2.028 . S
O401 C393 1.258 . S
O401 Zn395 2.035 . S
O402 Zn395 2.028 . S
O402 C405 1.247 . S
O403 Zn397 2.035 . S
O403 C405 1.258 . S
C404 O398 1.247 . S
C404 O399 1.258 . S
C405 O402 1.247 . S
C405 O403 1.258 . S
C406 O408 1.247 . S
C406 O410 1.258 . S
C407 O414 1.247 . S
C407 O415 1.258 . S
O408 C406 1.247 . S
O408 Zn409 2.028 . S
Zn409 O408 2.028 . S
Zn409 O413 2.035 . S
Zn409 O415 2.035 . S
Zn409 O416 2.028 . S
O410 C406 1.258 . S
O410 Zn411 2.035 . S
Zn411 O410 2.035 . S
Zn411 O412 2.028 . S
Zn411 O414 2.028 . S
Zn411 O417 2.035 . S
O412 Zn411 2.028 . S
O412 C418 1.247 . S
O413 Zn409 2.035 . S
O413 C418 1.258 . S
O414 C407 1.247 . S
O414 Zn411 2.028 . S
O415 C407 1.258 . S
O415 Zn409 2.035 . S
O416 Zn409 2.028 . S
O416 C419 1.247 . S
O417 Zn411 2.035 . S
O417 C419 1.258 . S
C418 O412 1.247 . S
C418 O413 1.258 . S
C419 O416 1.247 . S
C419 O417 1.258 . S
C420 O422 1.247 . S
C420 O424 1.258 . S
C421 O428 1.247 . S
C421 O429 1.258 . S
O422 C420 1.247 . S
O422 Zn423 2.028 . S
Zn423 O422 2.028 . S
Zn423 O427 2.035 . S
Zn423 O429 2.035 . S
Zn423 O430 2.028 . S
O424 C420 1.258 . S
O424 Zn425 2.035 . S
Zn425 O424 2.035 . S
Zn425 O426 2.028 . S
Zn425 O428 2.028 . S
Zn425 O431 2.035 . S
O426 Zn425 2.028 . S
O426 C432 1.247 . S
O427 Zn423 2.035 . S
O427 C432 1.258 . S
O428 C421 1.247 . S
O428 Zn425 2.028 . S
O429 C421 1.258 . S
O429 Zn423 2.035 . S
O430 Zn423 2.028 . S
O430 C433 1.247 . S
O431 Zn425 2.035 . S
O431 C433 1.258 . S
C432 O426 1.247 . S
C432 O427 1.258 . S
C433 O430 1.247 . S
C433 O431 1.258 . S
C434 O436 1.247 . S
C434 O438 1.258 . S
C435 O442 1.247 . S
C435 O443 1.258 . S
O436 C434 1.247 . S
O436 Zn437 2.028 . S
Zn437 O436 2.028 . S
Zn437 O441 2.035 . S
Zn437 O443 2.035 . S
Zn437 O444 2.028 . S
O438 C434 1.258 . S
O438 Zn439 2.035 . S
Zn439 O438 2.035 . S
Zn439 O440 2.028 . S
Zn439 O442 2.028 . S
Zn439 O445 2.035 . S
O440 Zn439 2.028 . S
O440 C446 1.247 . S
O441 Zn437 2.035 . S
O441 C446 1.258 . S
O442 C435 1.247 . S
O442 Zn439 2.028 . S
O443 C435 1.258 . S
O443 Zn437 2.035 . S
O444 Zn437 2.028 . S
O444 C447 1.247 . S
O445 Zn439 2.035 . S
O445 C447 1.258 . S
C446 O440 1.247 . S
C446 O441 1.258 . S
C447 O444 1.247 . S
C447 O445 1.258 . S
C448 O450 1.247 . S
C448 O452 1.258 . S
C449 O456 1.247 . S
C449 O457 1.258 . S
O450 C448 1.247 . S
O450 Zn451 2.028 . S
Zn451 O450 2.028 . S
Zn451 O455 2.035 . S
Zn451 O457 2.035 . S
Zn451 O458 2.028 . S
O452 C448 1.258 . S
O452 Zn453 2.035 . S
Zn453 O452 2.035 . S
Zn453 O454 2.028 . S
Zn453 O456 2.028 . S
Zn453 O459 2.035 . S
O454 Zn453 2.028 . S
O454 C460 1.247 . S
O455 Zn451 2.035 . S
O455 C460 1.258 . S
O456 C449 1.247 . S
O456 Zn453 2.028 . S
O457 C449 1.258 . S
O457 Zn451 2.035 . S
O458 Zn451 2.028 . S
O458 C461 1.247 . S
O459 Zn453 2.035 . S
O459 C461 1.258 . S
C460 O454 1.247 . S
C460 O455 1.258 . S
C461 O458 1.247 . S
C461 O459 1.258 . S
C462 O464 1.247 . S
C462 O466 1.258 . S
C463 O470 1.247 . S
C463 O471 1.258 . S
O464 C462 1.247 . S
O464 Zn465 2.028 . S
Zn465 O464 2.028 . S
Zn465 O469 2.035 . S
Zn465 O471 2.035 . S
Zn465 O472 2.028 . S
O466 C462 1.258 . S
O466 Zn467 2.035 . S
Zn467 O466 2.035 . S
Zn467 O468 2.028 . S
Zn467 O470 2.028 . S
Zn467 O473 2.035 . S
O468 Zn467 2.028 . S
O468 C474 1.247 . S
O469 Zn465 2.035 . S
O469 C474 1.258 . S
O470 C463 1.247 . S
O470 Zn467 2.028 . S
O471 C463 1.258 . S
O471 Zn465 2.035 . S
O472 Zn465 2.028 . S
O472 C475 1.247 . S
O473 Zn467 2.035 . S
O473 C475 1.258 . S
C474 O468 1.247 . S
C474 O469 1.258 . S
C475 O472 1.247 . S
C475 O473 1.258 . S
C476 O478 1.247 . S
C476 O480 1.258 . S
C477 O484 1.247 . S
C477 O485 1.258 . S
O478 C476 1.247 . S
O478 Zn479 2.028 . S
Zn479 O478 2.028 . S
Zn479 O483 2.035 . S
Zn479 O485 2.035 . S
Zn479 O486 2.028 . S
O480 C476 1.258 . S
O480 Zn481 2.035 . S
Zn481 O480 2.035 . S
Zn481 O482 2.028 . S
Zn481 O484 2.028 . S
Zn481 O487 2.035 . S
O482 Zn481 2.028 . S
O482 C488 1.247 . S
O483 Zn479 2.035 . S
O483 C488 1.258 . S
O484 C477 1.247 . S
O484 Zn481 2.028 . S
O485 C477 1.258 . S
O485 Zn479 2.035 . S
O486 Zn479 2.028 . S
O486 C489 1.247 . S
O487 Zn481 2.035 . S
O487 C489 1.258 . S
C488 O482 1.247 . S
C488 O483 1.258 . S
C489 O486 1.247 . S
C489 O487 1.258 . S
C490 O492 1.247 . S
C490 O494 1.258 . S
C491 O498 1.247 . S
C491 O499 1.258 . S
O492 C490 1.247 . S
O492 Zn493 2.028 . S
Zn493 O492 2.028 . S
Zn493 O497 2.035 . S
Zn493 O499 2.035 . S
Zn493 O500 2.028 . S
O494 C490 1.258 . S
O494 Zn495 2.035 . S
Zn495 O494 2.035 . S
Zn495 O496 2.028 . S
Zn495 O498 2.028 . S
Zn495 O501 2.035 . S
O496 Zn495 2.028 . S
O496 C502 1.247 . S
O497 Zn493 2.035 . S
O497 C502 1.258 . S
O498 C491 1.247 . S
O498 Zn495 2.028 . S
O499 C491 1.258 . S
O499 Zn493 2.035 . S
O500 Zn493 2.028 . S
O500 C503 1.247 . S
O501 Zn495 2.035 . S
O501 C503 1.258 . S
C502 O496 1.247 . S
C502 O497 1.258 . S
C503 O500 1.247 . S
C503 O501 1.258 . S
C504 O506 1.247 . S
C504 O508 1.258 . S
C505 O512 1.247 . S
C505 O513 1.258 . S
O506 C504 1.247 . S
O506 Zn507 2.028 . S
Zn507 O506 2.028 . S
Zn507 O511 2.035 . S
Zn507 O513 2.035 . S
Zn507 O514 2.028 . S
O508 C504 1.258 . S
O508 Zn509 2.035 . S
Zn509 O508 2.035 . S
Zn509 O510 2.028 . S
Zn509 O512 2.028 . S
Zn509 O515 2.035 . S
O510 Zn509 2.028 . S
O510 C516 1.247 . S
O511 Zn507 2.035 . S
O511 C516 1.258 . S
O512 C505 1.247 . S
O512 Zn509 2.028 . S
O513 C505 1.258 . S
O513 Zn507 2.035 . S
O514 Zn507 2.028 . S
O514 C517 1.247 . S
O515 Zn509 2.035 . S
O515 C517 1.258 . S
C516 O510 1.247 . S
C516 O511 1.258 . S
C517 O514 1.247 . S
C517 O515 1.258 . S
C518 O520 1.247 . S
C518 O522 1.258 . S
C519 O526 1.247 . S
C519 O527 1.258 . S
O520 C518 1.247 . S
O520 Zn521 2.028 . S
Zn521 O520 2.028 . S
Zn521 O525 2.035 . S
Zn521 O527 2.035 . S
Zn521 O528 2.028 . S
O522 C518 1.258 . S
O522 Zn523 2.035 . S
Zn523 O522 2.035 . S
Zn523 O524 2.028 . S
Zn523 O526 2.028 . S
Zn523 O529 2.035 . S
O524 Zn523 2.028 . S
O524 C530 1.247 . S
O525 Zn521 2.035 . S
O525 C530 1.258 . S
O526 C519 1.247 . S
O526 Zn523 2.028 . S
O527 C519 1.258 . S
O527 Zn521 2.035 . S
O528 Zn521 2.028 . S
O528 C531 1.247 . S
O529 Zn523 2.035 . S
O529 C531 1.258 . S
C530 O524 1.247 . S
C530 O525 1.258 . S
C531 O528 1.247 . S
C531 O529 1.258 . S
C532 O534 1.247 . S
C532 O536 1.258 . S
C533 O540 1.247 . S
C533 O541 1.258 . S
O534 C532 1.247 . S
O534 Zn535 2.028 . S
Zn535 O534 2.028 . S
Zn535 O539 2.035 . S
Zn535 O541 2.035 . S
Zn535 O542 2.028 . S
O536 C532 1.258 . S
O536 Zn537 2.035 . S
Zn537 O536 2.035 . S
Zn537 O538 2.028 . S
Zn537 O540 2.028 . S
Zn537 O543 2.035 . S
O538 Zn537 2.028 . S
O538 C544 1.247 . S
O539 Zn535 2.035 . S
O539 C544 1.258 . S
O540 C533 1.247 . S
O540 Zn537 2.028 . S
O541 C533 1.258 . S
O541 Zn535 2.035 . S
O542 Zn535 2.028 . S
O542 C545 1.247 . S
O543 Zn537 2.035 . S
O543 C545 1.258 . S
C544 O538 1.247 . S
C544 O539 1.258 . S
C545 O542 1.247 . S
C545 O543 1.258 . S
C546 O548 1.247 . S
C546 O550 1.258 . S
C547 O554 1.247 . S
C547 O555 1.258 . S
O548 C546 1.247 . S
O548 Zn549 2.028 . S
Zn549 O548 2.028 . S
Zn549 O553 2.035 . S
Zn549 O555 2.035 . S
Zn549 O556 2.028 . S
O550 C546 1.258 . S
O550 Zn551 2.035 . S
Zn551 O550 2.035 . S
Zn551 O552 2.028 . S
Zn551 O554 2.028 . S
Zn551 O557 2.035 . S
O552 Zn551 2.028 . S
O552 C558 1.247 . S
O553 Zn549 2.035 . S
O553 C558 1.258 . S
O554 C547 1.247 . S
O554 Zn551 2.028 . S
O555 C547 1.258 . S
O555 Zn549 2.035 . S
O556 Zn549 2.028 . S
O556 C559 1.247 . S
O557 Zn551 2.035 . S
O557 C559 1.258 . S
C558 O552 1.247 . S
C558 O553 1.258 . S
C559 O556 1.247 . S
C559 O557 1.258 . S
C560 O562 1.247 . S
C560 O564 1.258 . S
C561 O568 1.247 . S
C561 O569 1.258 . S
O562 C560 1.247 . S
O562 Zn563 2.028 . S
Zn563 O562 2.028 . S
Zn563 O567 2.035 . S
Zn563 O569 2.035 . S
Zn563 O570 2.028 . S
O564 C560 1.258 . S
O564 Zn565 2.035 . S
Zn565 O564 2.035 . S
Zn565 O566 2.028 . S
Zn565 O568 2.028 . S
Zn565 O571 2.035 . S
O566 Zn565 2.028 . S
O566 C572 1.247 . S
O567 Zn563 2.035 . S
O567 C572 1.258 . S
O568 C561 1.247 . S
O568 Zn565 2.028 . S
O569 C561 1.258 . S
O569 Zn563 2.035 . S
O570 Zn563 2.028 . S
O570 C573 1.247 . S
O571 Zn565 2.035 . S
O571 C573 1.258 . S
C572 O566 1.247 . S
C572 O567 1.258 . S
C573 O570 1.247 . S
C573 O571 1.258 . S
C574 O576 1.247 . S
C574 O578 1.258 . S
C575 O582 1.247 . S
C575 O583 1.258 . S
O576 C574 1.247 . S
O576 Zn577 2.028 . S
Zn577 O576 2.028 . S
Zn577 O581 2.035 . S
Zn577 O583 2.035 . S
Zn577 O584 2.028 . S
O578 C574 1.258 . S
O578 Zn579 2.035 . S
Zn579 O578 2.035 . S
Zn579 O580 2.028 . S
Zn579 O582 2.028 . S
Zn579 O585 2.035 . S
O580 Zn579 2.028 . S
O580 C586 1.247 . S
O581 Zn577 2.035 . S
O581 C586 1.258 . S
O582 C575 1.247 . S
O582 Zn579 2.028 . S
O583 C575 1.258 . S
O583 Zn577 2.035 . S
O584 Zn577 2.028 . S
O584 C587 1.247 . S
O585 Zn579 2.035 . S
O585 C587 1.258 . S
C586 O580 1.247 . S
C586 O581 1.258 . S
C587 O584 1.247 . S
C587 O585 1.258 . S
C588 O590 1.247 . S
C588 O592 1.258 . S
C589 O596 1.247 . S
C589 O597 1.258 . S
O590 C588 1.247 . S
O590 Zn591 2.028 . S
Zn591 O590 2.028 . S
Zn591 O595 2.035 . S
Zn591 O597 2.035 1_565 S
Zn591 O598 2.028 1_565 S
O592 C588 1.258 . S
O592 Zn593 2.035 1_565 S
Zn593 O592 2.035 1_545 S
Zn593 O594 2.028 1_545 S
Zn593 O596 2.028 . S
Zn593 O599 2.035 . S
O594 Zn593 2.028 1_565 S
O594 C600 1.247 . S
O595 Zn591 2.035 . S
O595 C600 1.258 . S
O596 C589 1.247 . S
O596 Zn593 2.028 . S
O597 C589 1.258 . S
O597 Zn591 2.035 1_545 S
O598 Zn591 2.028 1_545 S
O598 C601 1.247 . S
O599 Zn593 2.035 . S
O599 C601 1.258 . S
C600 O594 1.247 . S
C600 O595 1.258 . S
C601 O598 1.247 . S
C601 O599 1.258 . S
C602 O604 1.247 . S
C602 O606 1.258 . S
C603 O610 1.247 . S
C603 O611 1.258 . S
O604 C602 1.247 . S
O604 Zn605 2.028 . S
Zn605 O604 2.028 . S
Zn605 O609 2.035 . S
Zn605 O611 2.035 . S
Zn605 O612 2.028 . S
O606 C602 1.258 . S
O606 Zn607 2.035 . S
Zn607 O606 2.035 . S
Zn607 O608 2.028 . S
Zn607 O610 2.028 . S
Zn607 O613 2.035 . S
O608 Zn607 2.028 . S
O608 C614 1.247 . S
O609 Zn605 2.035 . S
O609 C614 1.258 . S
O610 C603 1.247 . S
O610 Zn607 2.028 . S
O611 C603 1.258 . S
O611 Zn605 2.035 . S
O612 Zn605 2.028 . S
O612 C615 1.247 . S
O613 Zn607 2.035 . S
O613 C615 1.258 . S
C614 O608 1.247 . S
C614 O609 1.258 . S
C615 O612 1.247 . S
C615 O613 1.258 . S
C616 O618 1.247 . S
C616 O620 1.258 . S
C617 O624 1.247 . S
C617 O625 1.258 . S
O618 C616 1.247 . S
O618 Zn619 2.028 . S
Zn619 O618 2.028 . S
Zn619 O623 2.035 . S
Zn619 O625 2.035 1_545 S
Zn619 O626 2.028 1_545 S
O620 C616 1.258 . S
O620 Zn621 2.035 1_545 S
Zn621 O620 2.035 1_565 S
Zn621 O622 2.028 1_565 S
Zn621 O624 2.028 . S
Zn621 O627 2.035 . S
O622 Zn621 2.028 1_545 S
O622 C628 1.247 . S
O623 Zn619 2.035 . S
O623 C628 1.258 . S
O624 C617 1.247 . S
O624 Zn621 2.028 . S
O625 C617 1.258 . S
O625 Zn619 2.035 1_565 S
O626 Zn619 2.028 1_565 S
O626 C629 1.247 . S
O627 Zn621 2.035 . S
O627 C629 1.258 . S
C628 O622 1.247 . S
C628 O623 1.258 . S
C629 O626 1.247 . S
C629 O627 1.258 . S
C630 O632 1.247 . S
C630 O634 1.258 . S
C631 O638 1.247 . S
C631 O639 1.258 . S
O632 C630 1.247 . S
O632 Zn633 2.028 . S
Zn633 O632 2.028 . S
Zn633 O637 2.035 . S
Zn633 O639 2.035 . S
Zn633 O640 2.028 . S
O634 C630 1.258 . S
O634 Zn635 2.035 . S
Zn635 O634 2.035 . S
Zn635 O636 2.028 . S
Zn635 O638 2.028 . S
Zn635 O641 2.035 . S
O636 Zn635 2.028 . S
O636 C642 1.247 . S
O637 Zn633 2.035 . S
O637 C642 1.258 . S
O638 C631 1.247 . S
O638 Zn635 2.028 . S
O639 C631 1.258 . S
O639 Zn633 2.035 . S
O640 Zn633 2.028 . S
O640 C643 1.247 . S
O641 Zn635 2.035 . S
O641 C643 1.258 . S
C642 O636 1.247 . S
C642 O637 1.258 . S
C643 O640 1.247 . S
C643 O641 1.258 . S
C644 O646 1.247 . S
C644 O648 1.258 . S
C645 O652 1.247 . S
C645 O653 1.258 . S
O646 C644 1.247 . S
O646 Zn647 2.028 . S
Zn647 O646 2.028 . S
Zn647 O651 2.035 . S
Zn647 O653 2.035 1_565 S
Zn647 O654 2.028 1_565 S
O648 C644 1.258 . S
O648 Zn649 2.035 1_565 S
Zn649 O648 2.035 1_545 S
Zn649 O650 2.028 1_545 S
Zn649 O652 2.028 . S
Zn649 O655 2.035 . S
O650 Zn649 2.028 1_565 S
O650 C656 1.247 . S
O651 Zn647 2.035 . S
O651 C656 1.258 . S
O652 C645 1.247 . S
O652 Zn649 2.028 . S
O653 C645 1.258 . S
O653 Zn647 2.035 1_545 S
O654 Zn647 2.028 1_545 S
O654 C657 1.247 . S
O655 Zn649 2.035 . S
O655 C657 1.258 . S
C656 O650 1.247 . S
C656 O651 1.258 . S
C657 O654 1.247 . S
C657 O655 1.258 . S
C658 O660 1.247 . S
C658 O662 1.258 . S
C659 O666 1.247 . S
C659 O667 1.258 . S
O660 C658 1.247 . S
O660 Zn661 2.028 . S
Zn661 O660 2.028 . S
Zn661 O665 2.035 . S
Zn661 O667 2.035 . S
Zn661 O668 2.028 . S
O662 C658 1.258 . S
O662 Zn663 2.035 . S
Zn663 O662 2.035 . S
Zn663 O664 2.028 . S
Zn663 O666 2.028 . S
Zn663 O669 2.035 . S
O664 Zn663 2.028 . S
O664 C670 1.247 . S
O665 Zn661 2.035 . S
O665 C670 1.258 . S
O666 C659 1.247 . S
O666 Zn663 2.028 . S
O667 C659 1.258 . S
O667 Zn661 2.035 . S
O668 Zn661 2.028 . S
O668 C671 1.247 . S
O669 Zn663 2.035 . S
O669 C671 1.258 . S
C670 O664 1.247 . S
C670 O665 1.258 . S
C671 O668 1.247 . S
C671 O669 1.258 . S
H672 C684 0.930 . S
H673 C686 0.930 . S
H674 C687 0.930 . S
H675 C691 0.959 . S
H676 C691 0.959 . S
H677 C691 0.961 . S
H678 C692 0.960 . S
H679 C692 0.961 . S
H680 C692 0.959 . S
H681 C695 0.929 . S
H682 C696 0.931 . S
H683 C698 0.930 . S
C684 H672 0.930 . S
C684 C685 1.399 . S
C684 C689 1.399 . S
C685 C684 1.399 . S
C685 C686 1.376 . S
C686 H673 0.930 . S
C686 C685 1.376 . S
C686 C687 1.388 . S
C687 H674 0.930 . S
C687 C686 1.388 . S
C687 C688 1.390 . S
C688 C687 1.390 . S
C688 C689 1.394 . S
C688 C694 1.465 . S
C689 C684 1.399 . S
C689 C688 1.394 . S
C689 C690 1.516 . S
C690 C689 1.516 . S
C690 C691 1.502 . S
C690 C692 1.561 . S
C690 C693 1.526 . S
C691 H675 0.959 . S
C691 H676 0.959 . S
C691 H677 0.961 . S
C691 C690 1.502 . S
C692 H678 0.960 . S
C692 H679 0.961 . S
C692 H680 0.959 . S
C692 C690 1.561 . S
C693 C690 1.526 . S
C693 C694 1.396 . S
C693 C698 1.390 . S
C694 C688 1.465 . S
C694 C693 1.396 . S
C694 C695 1.399 . S
C695 H681 0.929 . S
C695 C694 1.399 . S
C695 C696 1.385 . S
C696 H682 0.931 . S
C696 C695 1.385 . S
C696 C697 1.389 . S
C697 C696 1.389 . S
C697 C698 1.387 . S
C698 H683 0.930 . S
C698 C693 1.390 . S
C698 C697 1.387 . S
H699 C711 0.930 . S
H700 C713 0.930 . S
H701 C714 0.912 1_556 S
H702 C718 0.959 . S
H703 C718 0.959 . S
H704 C718 0.961 . S
H705 C719 0.960 . S
H706 C719 0.961 . S
H707 C719 0.959 . S
H708 C722 0.929 . S
H709 C723 0.931 . S
H710 C725 0.930 . S
C711 H699 0.930 . S
C711 C712 1.399 . S
C711 C716 1.399 . S
C712 C711 1.399 . S
C712 C713 1.376 . S
C713 H700 0.930 . S
C713 C712 1.376 . S
C713 C714 1.388 . S
C714 H701 0.912 1_554 S
C714 C713 1.388 . S
C714 C715 1.390 . S
C715 C714 1.390 . S
C715 C716 1.394 . S
C715 C721 1.465 1_554 S
C716 C711 1.399 . S
C716 C715 1.394 . S
C716 C717 1.516 . S
C717 C716 1.516 . S
C717 C718 1.502 . S
C717 C719 1.561 . S
C717 C720 1.526 1_554 S
C718 H702 0.959 . S
C718 H703 0.959 . S
C718 H704 0.961 . S
C718 C717 1.502 . S
C719 H705 0.960 . S
C719 H706 0.961 . S
C719 H707 0.959 . S
C719 C717 1.561 . S
C720 C717 1.526 1_556 S
C720 C721 1.396 . S
C720 C725 1.390 . S
C721 C715 1.465 1_556 S
C721 C720 1.396 . S
C721 C722 1.399 . S
C722 H708 0.929 . S
C722 C721 1.399 . S
C722 C723 1.385 . S
C723 H709 0.931 . S
C723 C722 1.385 . S
C723 C724 1.389 . S
C724 C723 1.389 . S
C724 C725 1.387 . S
C725 H710 0.930 . S
C725 C720 1.390 . S
C725 C724 1.387 . S
H726 C738 0.930 . S
H727 C740 0.930 . S
H728 C741 0.930 . S
H729 C745 0.959 . S
H730 C745 0.959 . S
H731 C745 0.961 . S
H732 C746 0.960 . S
H733 C746 0.961 . S
H734 C746 0.959 . S
H735 C749 0.929 . S
H736 C750 0.931 . S
H737 C752 0.930 . S
C738 H726 0.930 . S
C738 C739 1.399 . S
C738 C743 1.399 . S
C739 C738 1.399 . S
C739 C740 1.376 . S
C740 H727 0.930 . S
C740 C739 1.376 . S
C740 C741 1.388 . S
C741 H728 0.930 . S
C741 C740 1.388 . S
C741 C742 1.390 . S
C742 C741 1.390 . S
C742 C743 1.394 . S
C742 C748 1.465 . S
C743 C738 1.399 . S
C743 C742 1.394 . S
C743 C744 1.516 . S
C744 C743 1.516 . S
C744 C745 1.502 . S
C744 C746 1.561 . S
C744 C747 1.526 . S
C745 H729 0.959 . S
C745 H730 0.959 . S
C745 H731 0.961 . S
C745 C744 1.502 . S
C746 H732 0.960 . S
C746 H733 0.961 . S
C746 H734 0.959 . S
C746 C744 1.561 . S
C747 C744 1.526 . S
C747 C748 1.396 . S
C747 C752 1.390 . S
C748 C742 1.465 . S
C748 C747 1.396 . S
C748 C749 1.399 . S
C749 H735 0.929 . S
C749 C748 1.399 . S
C749 C750 1.385 . S
C750 H736 0.931 . S
C750 C749 1.385 . S
C750 C751 1.389 . S
C751 C750 1.389 . S
C751 C752 1.387 . S
C752 H737 0.930 . S
C752 C747 1.390 . S
C752 C751 1.387 . S
H753 C765 0.930 . S
H754 C767 0.930 . S
H755 C768 0.930 . S
H756 C772 0.959 . S
H757 C772 0.959 . S
H758 C772 0.961 . S
H759 C773 0.960 1_556 S
H760 C773 0.961 . S
H761 C773 0.959 . S
H762 C776 0.929 . S
H763 C777 0.931 . S
H764 C779 0.930 . S
C765 H753 0.930 . S
C765 C766 1.399 . S
C765 C770 1.399 . S
C766 C765 1.399 . S
C766 C767 1.376 . S
C767 H754 0.930 . S
C767 C766 1.376 . S
C767 C768 1.388 . S
C768 H755 0.930 . S
C768 C767 1.388 . S
C768 C769 1.390 . S
C769 C768 1.390 . S
C769 C770 1.394 . S
C769 C775 1.465 1_556 S
C770 C765 1.399 . S
C770 C769 1.394 . S
C770 C771 1.516 . S
C771 C770 1.516 . S
C771 C772 1.502 . S
C771 C773 1.561 1_556 S
C771 C774 1.526 1_556 S
C772 H756 0.959 . S
C772 H757 0.959 . S
C772 H758 0.961 . S
C772 C771 1.502 . S
C773 H759 0.960 1_554 S
C773 H760 0.961 . S
C773 H761 0.959 . S
C773 C771 1.561 1_554 S
C774 C771 1.526 1_554 S
C774 C775 1.396 . S
C774 C779 1.390 . S
C775 C769 1.465 1_554 S
C775 C774 1.396 . S
C775 C776 1.399 . S
C776 H762 0.929 . S
C776 C775 1.399 . S
C776 C777 1.385 . S
C777 H763 0.931 . S
C777 C776 1.385 . S
C777 C778 1.389 . S
C778 C777 1.389 . S
C778 C779 1.387 . S
C779 H764 0.930 . S
C779 C774 1.390 . S
C779 C778 1.387 . S
H780 C792 0.930 . S
H781 C794 0.930 . S
H782 C795 0.930 . S
H783 C799 0.959 . S
H784 C799 0.959 . S
H785 C799 0.961 . S
H786 C800 0.960 . S
H787 C800 0.961 . S
H788 C800 0.959 . S
H789 C803 0.929 . S
H790 C804 0.931 . S
H791 C806 0.930 . S
C792 H780 0.930 . S
C792 C793 1.399 . S
C792 C797 1.399 . S
C793 C792 1.399 . S
C793 C794 1.376 . S
C794 H781 0.930 . S
C794 C793 1.376 . S
C794 C795 1.388 . S
C795 H782 0.930 . S
C795 C794 1.388 . S
C795 C796 1.390 . S
C796 C795 1.390 . S
C796 C797 1.394 . S
C796 C802 1.465 . S
C797 C792 1.399 . S
C797 C796 1.394 . S
C797 C798 1.516 . S
C798 C797 1.516 . S
C798 C799 1.502 . S
C798 C800 1.561 . S
C798 C801 1.526 . S
C799 H783 0.959 . S
C799 H784 0.959 . S
C799 H785 0.961 . S
C799 C798 1.502 . S
C800 H786 0.960 . S
C800 H787 0.961 . S
C800 H788 0.959 . S
C800 C798 1.561 . S
C801 C798 1.526 . S
C801 C802 1.396 . S
C801 C806 1.390 . S
C802 C796 1.465 . S
C802 C801 1.396 . S
C802 C803 1.399 . S
C803 H789 0.929 . S
C803 C802 1.399 . S
C803 C804 1.385 . S
C804 H790 0.931 . S
C804 C803 1.385 . S
C804 C805 1.389 . S
C805 C804 1.389 . S
C805 C806 1.387 . S
C806 H791 0.930 . S
C806 C801 1.390 . S
C806 C805 1.387 . S
H807 C819 0.930 . S
H808 C821 0.930 . S
H809 C822 0.930 . S
H810 C826 0.959 . S
H811 C826 0.959 . S
H812 C826 0.961 1_554 S
H813 C827 0.960 . S
H814 C827 0.961 . S
H815 C827 0.959 . S
H816 C830 0.929 . S
H817 C831 0.931 . S
H818 C833 0.930 . S
C819 H807 0.930 . S
C819 C820 1.399 . S
C819 C824 1.399 . S
C820 C819 1.399 . S
C820 C821 1.376 . S
C821 H808 0.930 . S
C821 C820 1.376 . S
C821 C822 1.388 . S
C822 H809 0.930 . S
C822 C821 1.388 . S
C822 C823 1.390 . S
C823 C822 1.390 . S
C823 C824 1.394 . S
C823 C829 1.465 1_554 S
C824 C819 1.399 . S
C824 C823 1.394 . S
C824 C825 1.516 . S
C825 C824 1.516 . S
C825 C826 1.502 1_554 S
C825 C827 1.561 . S
C825 C828 1.526 1_554 S
C826 H810 0.959 . S
C826 H811 0.959 . S
C826 H812 0.961 1_556 S
C826 C825 1.502 1_556 S
C827 H813 0.960 . S
C827 H814 0.961 . S
C827 H815 0.959 . S
C827 C825 1.561 . S
C828 C825 1.526 1_556 S
C828 C829 1.396 . S
C828 C833 1.390 . S
C829 C823 1.465 1_556 S
C829 C828 1.396 . S
C829 C830 1.399 . S
C830 H816 0.929 . S
C830 C829 1.399 . S
C830 C831 1.385 . S
C831 H817 0.931 . S
C831 C830 1.385 . S
C831 C832 1.389 . S
C832 C831 1.389 . S
C832 C833 1.387 . S
C833 H818 0.930 . S
C833 C828 1.390 . S
C833 C832 1.387 . S
H834 C846 0.930 . S
H835 C848 0.930 . S
H836 C849 0.930 . S
H837 C853 0.959 . S
H838 C853 0.959 . S
H839 C853 0.961 . S
H840 C854 0.960 . S
H841 C854 0.961 . S
H842 C854 0.959 . S
H843 C857 0.929 . S
H844 C858 0.931 . S
H845 C860 0.930 . S
C846 H834 0.930 . S
C846 C847 1.399 . S
C846 C851 1.399 . S
C847 C846 1.399 . S
C847 C848 1.376 . S
C848 H835 0.930 . S
C848 C847 1.376 . S
C848 C849 1.388 . S
C849 H836 0.930 . S
C849 C848 1.388 . S
C849 C850 1.390 . S
C850 C849 1.390 . S
C850 C851 1.394 . S
C850 C856 1.465 . S
C851 C846 1.399 . S
C851 C850 1.394 . S
C851 C852 1.516 . S
C852 C851 1.516 . S
C852 C853 1.502 . S
C852 C854 1.561 . S
C852 C855 1.526 . S
C853 H837 0.959 . S
C853 H838 0.959 . S
C853 H839 0.961 . S
C853 C852 1.502 . S
C854 H840 0.960 . S
C854 H841 0.961 . S
C854 H842 0.959 . S
C854 C852 1.561 . S
C855 C852 1.526 . S
C855 C856 1.396 . S
C855 C860 1.390 . S
C856 C850 1.465 . S
C856 C855 1.396 . S
C856 C857 1.399 . S
C857 H843 0.929 . S
C857 C856 1.399 . S
C857 C858 1.385 . S
C858 H844 0.931 . S
C858 C857 1.385 . S
C858 C859 1.389 . S
C859 C858 1.389 . S
C859 C860 1.387 . S
C860 H845 0.930 . S
C860 C855 1.390 . S
C860 C859 1.387 . S
H861 C873 0.930 . S
H862 C875 0.930 . S
H863 C876 0.930 . S
H864 C880 0.959 . S
H865 C880 0.959 1_554 S
H866 C880 0.961 . S
H867 C881 0.960 . S
H868 C881 0.961 . S
H869 C881 0.959 . S
H870 C884 0.929 . S
H871 C885 0.931 . S
H872 C887 0.930 . S
C873 H861 0.930 . S
C873 C874 1.399 . S
C873 C878 1.399 . S
C874 C873 1.399 . S
C874 C875 1.376 . S
C875 H862 0.930 . S
C875 C874 1.376 . S
C875 C876 1.388 . S
C876 H863 0.930 . S
C876 C875 1.388 . S
C876 C877 1.390 . S
C877 C876 1.390 . S
C877 C878 1.394 . S
C877 C883 1.465 1_556 S
C878 C873 1.399 . S
C878 C877 1.394 . S
C878 C879 1.516 1_556 S
C879 C878 1.516 1_554 S
C879 C880 1.502 1_554 S
C879 C881 1.561 . S
C879 C882 1.526 . S
C880 H864 0.959 . S
C880 H865 0.959 1_556 S
C880 H866 0.961 . S
C880 C879 1.502 1_556 S
C881 H867 0.960 . S
C881 H868 0.961 . S
C881 H869 0.959 . S
C881 C879 1.561 . S
C882 C879 1.526 . S
C882 C883 1.396 . S
C882 C887 1.390 . S
C883 C877 1.465 1_554 S
C883 C882 1.396 . S
C883 C884 1.399 . S
C884 H870 0.929 . S
C884 C883 1.399 . S
C884 C885 1.385 . S
C885 H871 0.931 . S
C885 C884 1.385 . S
C885 C886 1.389 . S
C886 C885 1.389 . S
C886 C887 1.387 . S
C887 H872 0.930 . S
C887 C882 1.390 . S
C887 C886 1.387 . S
H888 C900 0.930 . S
H889 C902 0.930 . S
H890 C903 0.930 . S
H891 C907 0.959 . S
H892 C907 0.959 . S
H893 C907 0.961 . S
H894 C908 0.960 . S
H895 C908 0.961 . S
H896 C908 0.959 . S
H897 C911 0.929 . S
H898 C912 0.931 . S
H899 C914 0.930 . S
C900 H888 0.930 . S
C900 C901 1.399 . S
C900 C905 1.399 . S
C901 C900 1.399 . S
C901 C902 1.376 . S
C902 H889 0.930 . S
C902 C901 1.376 . S
C902 C903 1.388 . S
C903 H890 0.930 . S
C903 C902 1.388 . S
C903 C904 1.390 . S
C904 C903 1.390 . S
C904 C905 1.394 . S
C904 C910 1.465 . S
C905 C900 1.399 . S
C905 C904 1.394 . S
C905 C906 1.516 . S
C906 C905 1.516 . S
C906 C907 1.502 . S
C906 C908 1.561 . S
C906 C909 1.526 . S
C907 H891 0.959 . S
C907 H892 0.959 . S
C907 H893 0.961 . S
C907 C906 1.502 . S
C908 H894 0.960 . S
C908 H895 0.961 . S
C908 H896 0.959 . S
C908 C906 1.561 . S
C909 C906 1.526 . S
C909 C910 1.396 . S
C909 C914 1.390 . S
C910 C904 1.465 . S
C910 C909 1.396 . S
C910 C911 1.399 . S
C911 H897 0.929 . S
C911 C910 1.399 . S
C911 C912 1.385 . S
C912 H898 0.931 . S
C912 C911 1.385 . S
C912 C913 1.389 . S
C913 C912 1.389 . S
C913 C914 1.387 . S
C914 H899 0.930 . S
C914 C909 1.390 . S
C914 C913 1.387 . S
H915 C927 0.930 . S
H916 C929 0.930 . S
H917 C930 0.930 . S
H918 C934 0.959 . S
H919 C934 0.959 . S
H920 C934 0.961 . S
H921 C935 0.960 . S
H922 C935 0.961 . S
H923 C935 0.959 . S
H924 C938 0.929 . S
H925 C939 0.931 . S
H926 C941 0.930 . S
C927 H915 0.930 . S
C927 C928 1.399 . S
C927 C932 1.399 . S
C928 C927 1.399 . S
C928 C929 1.376 . S
C929 H916 0.930 . S
C929 C928 1.376 . S
C929 C930 1.388 . S
C930 H917 0.930 . S
C930 C929 1.388 . S
C930 C931 1.390 . S
C931 C930 1.390 . S
C931 C932 1.394 . S
C931 C937 1.465 . S
C932 C927 1.399 . S
C932 C931 1.394 . S
C932 C933 1.516 . S
C933 C932 1.516 . S
C933 C934 1.502 . S
C933 C935 1.561 . S
C933 C936 1.526 . S
C934 H918 0.959 . S
C934 H919 0.959 . S
C934 H920 0.961 . S
C934 C933 1.502 . S
C935 H921 0.960 . S
C935 H922 0.961 . S
C935 H923 0.959 . S
C935 C933 1.561 . S
C936 C933 1.526 . S
C936 C937 1.396 . S
C936 C941 1.390 . S
C937 C931 1.465 . S
C937 C936 1.396 . S
C937 C938 1.399 . S
C938 H924 0.929 . S
C938 C937 1.399 . S
C938 C939 1.385 . S
C939 H925 0.931 . S
C939 C938 1.385 . S
C939 C940 1.389 . S
C940 C939 1.389 . S
C940 C941 1.387 . S
C941 H926 0.930 . S
C941 C936 1.390 . S
C941 C940 1.387 . S
H942 C954 0.930 . S
H943 C956 0.930 . S
H944 C957 0.930 . S
H945 C961 0.959 . S
H946 C961 0.959 . S
H947 C961 0.961 . S
H948 C962 0.960 . S
H949 C962 0.961 . S
H950 C962 0.959 . S
H951 C965 0.929 . S
H952 C966 0.931 . S
H953 C968 0.930 . S
C954 H942 0.930 . S
C954 C955 1.399 . S
C954 C959 1.399 . S
C955 C954 1.399 . S
C955 C956 1.376 . S
C956 H943 0.930 . S
C956 C955 1.376 . S
C956 C957 1.388 . S
C957 H944 0.930 . S
C957 C956 1.388 . S
C957 C958 1.390 . S
C958 C957 1.390 . S
C958 C959 1.394 . S
C958 C964 1.465 . S
C959 C954 1.399 . S
C959 C958 1.394 . S
C959 C960 1.516 . S
C960 C959 1.516 . S
C960 C961 1.502 . S
C960 C962 1.561 . S
C960 C963 1.526 . S
C961 H945 0.959 . S
C961 H946 0.959 . S
C961 H947 0.961 . S
C961 C960 1.502 . S
C962 H948 0.960 . S
C962 H949 0.961 . S
C962 H950 0.959 . S
C962 C960 1.561 . S
C963 C960 1.526 . S
C963 C964 1.396 . S
C963 C968 1.390 . S
C964 C958 1.465 . S
C964 C963 1.396 . S
C964 C965 1.399 . S
C965 H951 0.929 . S
C965 C964 1.399 . S
C965 C966 1.385 . S
C966 H952 0.931 . S
C966 C965 1.385 . S
C966 C967 1.389 . S
C967 C966 1.389 . S
C967 C968 1.387 . S
C968 H953 0.930 . S
C968 C963 1.390 . S
C968 C967 1.387 . S
H969 C981 0.930 . S
H970 C983 0.930 . S
H971 C984 0.930 . S
H972 C988 0.943 1_565 S
H973 C988 1.000 . S
H974 C988 0.926 1_565 S
H975 C989 0.960 . S
H976 C989 0.961 . S
H977 C989 0.959 . S
H978 C992 0.929 . S
H979 C993 0.931 . S
H980 C995 0.930 . S
C981 H969 0.930 . S
C981 C982 1.399 . S
C981 C986 1.399 . S
C982 C981 1.399 . S
C982 C983 1.376 . S
C983 H970 0.930 . S
C983 C982 1.376 . S
C983 C984 1.388 . S
C984 H971 0.930 . S
C984 C983 1.388 . S
C984 C985 1.390 . S
C985 C984 1.390 . S
C985 C986 1.394 . S
C985 C991 1.465 1_565 S
C986 C981 1.399 . S
C986 C985 1.394 . S
C986 C987 1.516 1_565 S
C987 C986 1.516 1_545 S
C987 C988 1.514 . S
C987 C989 1.561 . S
C987 C990 1.526 . S
C988 H972 0.943 1_545 S
C988 H973 1.000 . S
C988 H974 0.926 1_545 S
C988 C987 1.514 . S
C989 H975 0.960 . S
C989 H976 0.961 . S
C989 H977 0.959 . S
C989 C987 1.561 . S
C990 C987 1.526 . S
C990 C991 1.396 . S
C990 C995 1.390 . S
C991 C985 1.465 1_545 S
C991 C990 1.396 . S
C991 C992 1.399 . S
C992 H978 0.929 . S
C992 C991 1.399 . S
C992 C993 1.385 . S
C993 H979 0.931 . S
C993 C992 1.385 . S
C993 C994 1.389 . S
C994 C993 1.389 . S
C994 C995 1.387 . S
C995 H980 0.930 . S
C995 C990 1.390 . S
C995 C994 1.387 . S
H996 C1008 0.930 . S
H997 C1010 0.930 . S
H998 C1011 0.930 . S
H999 C1015 0.959 . S
H1000 C1015 0.959 . S
H1001 C1015 0.961 . S
H1002 C1016 0.960 . S
H1003 C1016 0.961 . S
H1004 C1016 0.959 . S
H1005 C1019 0.929 . S
H1006 C1020 0.931 . S
H1007 C1022 0.930 . S
C1008 H996 0.930 . S
C1008 C1009 1.399 . S
C1008 C1013 1.399 . S
C1009 C1008 1.399 . S
C1009 C1010 1.376 . S
C1010 H997 0.930 . S
C1010 C1009 1.376 . S
C1010 C1011 1.388 . S
C1011 H998 0.930 . S
C1011 C1010 1.388 . S
C1011 C1012 1.390 . S
C1012 C1011 1.390 . S
C1012 C1013 1.394 . S
C1012 C1018 1.465 . S
C1013 C1008 1.399 . S
C1013 C1012 1.394 . S
C1013 C1014 1.516 . S
C1014 C1013 1.516 . S
C1014 C1015 1.502 . S
C1014 C1016 1.561 . S
C1014 C1017 1.526 . S
C1015 H999 0.959 . S
C1015 H1000 0.959 . S
C1015 H1001 0.961 . S
C1015 C1014 1.502 . S
C1016 H1002 0.960 . S
C1016 H1003 0.961 . S
C1016 H1004 0.959 . S
C1016 C1014 1.561 . S
C1017 C1014 1.526 . S
C1017 C1018 1.396 . S
C1017 C1022 1.390 . S
C1018 C1012 1.465 . S
C1018 C1017 1.396 . S
C1018 C1019 1.399 . S
C1019 H1005 0.929 . S
C1019 C1018 1.399 . S
C1019 C1020 1.385 . S
C1020 H1006 0.931 . S
C1020 C1019 1.385 . S
C1020 C1021 1.389 . S
C1021 C1020 1.389 . S
C1021 C1022 1.387 . S
C1022 H1007 0.930 . S
C1022 C1017 1.390 . S
C1022 C1021 1.387 . S
H1023 C1035 0.930 . S
H1024 C1037 0.930 . S
H1025 C1038 0.930 . S
H1026 C1042 0.959 . S
H1027 C1042 0.959 . S
H1028 C1042 0.961 . S
H1029 C1043 0.960 . S
H1030 C1043 0.961 . S
H1031 C1043 0.959 . S
H1032 C1046 0.929 . S
H1033 C1047 0.931 . S
H1034 C1049 0.930 . S
C1035 H1023 0.930 . S
C1035 C1036 1.399 . S
C1035 C1040 1.399 . S
C1036 C1035 1.399 . S
C1036 C1037 1.376 . S
C1037 H1024 0.930 . S
C1037 C1036 1.376 . S
C1037 C1038 1.388 . S
C1038 H1025 0.930 . S
C1038 C1037 1.388 . S
C1038 C1039 1.390 . S
C1039 C1038 1.390 . S
C1039 C1040 1.394 . S
C1039 C1045 1.465 . S
C1040 C1035 1.399 . S
C1040 C1039 1.394 . S
C1040 C1041 1.516 . S
C1041 C1040 1.516 . S
C1041 C1042 1.502 . S
C1041 C1043 1.561 . S
C1041 C1044 1.526 . S
C1042 H1026 0.959 . S
C1042 H1027 0.959 . S
C1042 H1028 0.961 . S
C1042 C1041 1.502 . S
C1043 H1029 0.960 . S
C1043 H1030 0.961 . S
C1043 H1031 0.959 . S
C1043 C1041 1.561 . S
C1044 C1041 1.526 . S
C1044 C1045 1.396 . S
C1044 C1049 1.390 . S
C1045 C1039 1.465 . S
C1045 C1044 1.396 . S
C1045 C1046 1.399 . S
C1046 H1032 0.929 . S
C1046 C1045 1.399 . S
C1046 C1047 1.385 . S
C1047 H1033 0.931 . S
C1047 C1046 1.385 . S
C1047 C1048 1.389 . S
C1048 C1047 1.389 . S
C1048 C1049 1.387 . S
C1049 H1034 0.930 . S
C1049 C1044 1.390 . S
C1049 C1048 1.387 . S
H1050 C1062 0.930 . S
H1051 C1064 0.930 . S
H1052 C1065 0.930 . S
H1053 C1069 0.959 . S
H1054 C1069 0.959 . S
H1055 C1069 0.961 . S
H1056 C1070 0.960 . S
H1057 C1070 0.961 . S
H1058 C1070 0.959 . S
H1059 C1073 0.929 . S
H1060 C1074 0.931 . S
H1061 C1076 0.930 . S
C1062 H1050 0.930 . S
C1062 C1063 1.399 . S
C1062 C1067 1.399 . S
C1063 C1062 1.399 . S
C1063 C1064 1.376 . S
C1064 H1051 0.930 . S
C1064 C1063 1.376 . S
C1064 C1065 1.388 . S
C1065 H1052 0.930 . S
C1065 C1064 1.388 . S
C1065 C1066 1.390 . S
C1066 C1065 1.390 . S
C1066 C1067 1.394 . S
C1066 C1072 1.465 . S
C1067 C1062 1.399 . S
C1067 C1066 1.394 . S
C1067 C1068 1.516 . S
C1068 C1067 1.516 . S
C1068 C1069 1.502 . S
C1068 C1070 1.561 . S
C1068 C1071 1.526 . S
C1069 H1053 0.959 . S
C1069 H1054 0.959 . S
C1069 H1055 0.961 . S
C1069 C1068 1.502 . S
C1070 H1056 0.960 . S
C1070 H1057 0.961 . S
C1070 H1058 0.959 . S
C1070 C1068 1.561 . S
C1071 C1068 1.526 . S
C1071 C1072 1.396 . S
C1071 C1076 1.390 . S
C1072 C1066 1.465 . S
C1072 C1071 1.396 . S
C1072 C1073 1.399 . S
C1073 H1059 0.929 . S
C1073 C1072 1.399 . S
C1073 C1074 1.385 . S
C1074 H1060 0.931 . S
C1074 C1073 1.385 . S
C1074 C1075 1.389 . S
C1075 C1074 1.389 . S
C1075 C1076 1.387 . S
C1076 H1061 0.930 . S
C1076 C1071 1.390 . S
C1076 C1075 1.387 . S
H1077 C1089 0.930 . S
H1078 C1091 0.930 . S
H1079 C1092 0.930 . S
H1080 C1096 0.959 . S
H1081 C1096 0.959 . S
H1082 C1096 0.961 . S
H1083 C1097 0.959 . S
H1084 C1097 0.961 . S
H1085 C1097 0.959 . S
H1086 C1100 0.929 . S
H1087 C1101 0.931 . S
H1088 C1103 0.930 . S
C1089 H1077 0.930 . S
C1089 C1090 1.399 . S
C1089 C1094 1.399 . S
C1090 C1089 1.399 . S
C1090 C1091 1.376 . S
C1091 H1078 0.930 . S
C1091 C1090 1.376 . S
C1091 C1092 1.388 . S
C1092 H1079 0.930 . S
C1092 C1091 1.388 . S
C1092 C1093 1.390 . S
C1093 C1092 1.390 . S
C1093 C1094 1.394 . S
C1093 C1099 1.465 1_545 S
C1094 C1089 1.399 . S
C1094 C1093 1.394 . S
C1094 C1095 1.516 1_545 S
C1095 C1094 1.516 1_565 S
C1095 C1096 1.502 . S
C1095 C1097 1.561 . S
C1095 C1098 1.526 . S
C1096 H1080 0.959 . S
C1096 H1081 0.959 . S
C1096 H1082 0.961 . S
C1096 C1095 1.502 . S
C1097 H1083 0.959 . S
C1097 H1084 0.961 . S
C1097 H1085 0.959 . S
C1097 C1095 1.561 . S
C1098 C1095 1.526 . S
C1098 C1099 1.396 . S
C1098 C1103 1.390 . S
C1099 C1093 1.465 1_565 S
C1099 C1098 1.396 . S
C1099 C1100 1.399 . S
C1100 H1086 0.929 . S
C1100 C1099 1.399 . S
C1100 C1101 1.385 . S
C1101 H1087 0.931 . S
C1101 C1100 1.385 . S
C1101 C1102 1.389 . S
C1102 C1101 1.389 . S
C1102 C1103 1.387 . S
C1103 H1088 0.930 . S
C1103 C1098 1.390 . S
C1103 C1102 1.387 . S
H1104 C1116 0.930 . S
H1105 C1118 0.930 . S
H1106 C1119 0.930 . S
H1107 C1123 0.959 . S
H1108 C1123 0.959 . S
H1109 C1123 0.961 . S
H1110 C1124 0.960 . S
H1111 C1124 0.961 . S
H1112 C1124 0.959 . S
H1113 C1127 0.929 . S
H1114 C1128 0.931 . S
H1115 C1130 0.930 . S
C1116 H1104 0.930 . S
C1116 C1117 1.399 . S
C1116 C1121 1.399 . S
C1117 C1116 1.399 . S
C1117 C1118 1.376 . S
C1118 H1105 0.930 . S
C1118 C1117 1.376 . S
C1118 C1119 1.388 . S
C1119 H1106 0.930 . S
C1119 C1118 1.388 . S
C1119 C1120 1.390 . S
C1120 C1119 1.390 . S
C1120 C1121 1.394 . S
C1120 C1126 1.465 . S
C1121 C1116 1.399 . S
C1121 C1120 1.394 . S
C1121 C1122 1.516 . S
C1122 C1121 1.516 . S
C1122 C1123 1.502 . S
C1122 C1124 1.561 . S
C1122 C1125 1.526 . S
C1123 H1107 0.959 . S
C1123 H1108 0.959 . S
C1123 H1109 0.961 . S
C1123 C1122 1.502 . S
C1124 H1110 0.960 . S
C1124 H1111 0.961 . S
C1124 H1112 0.959 . S
C1124 C1122 1.561 . S
C1125 C1122 1.526 . S
C1125 C1126 1.396 . S
C1125 C1130 1.390 . S
C1126 C1120 1.465 . S
C1126 C1125 1.396 . S
C1126 C1127 1.399 . S
C1127 H1113 0.929 . S
C1127 C1126 1.399 . S
C1127 C1128 1.385 . S
C1128 H1114 0.931 . S
C1128 C1127 1.385 . S
C1128 C1129 1.389 . S
C1129 C1128 1.389 . S
C1129 C1130 1.387 . S
C1130 H1115 0.930 . S
C1130 C1125 1.390 . S
C1130 C1129 1.387 . S
H1131 C1143 0.930 . S
H1132 C1145 0.930 . S
H1133 C1146 0.930 . S
H1134 C1150 0.959 . S
H1135 C1150 0.959 . S
H1136 C1150 0.961 . S
H1137 C1151 0.960 . S
H1138 C1151 0.961 . S
H1139 C1151 0.959 . S
H1140 C1154 0.929 . S
H1141 C1155 0.931 . S
H1142 C1157 0.930 . S
C1143 H1131 0.930 . S
C1143 C1144 1.399 . S
C1143 C1148 1.399 . S
C1144 C1143 1.399 . S
C1144 C1145 1.376 . S
C1145 H1132 0.930 . S
C1145 C1144 1.376 . S
C1145 C1146 1.388 . S
C1146 H1133 0.930 . S
C1146 C1145 1.388 . S
C1146 C1147 1.390 . S
C1147 C1146 1.390 . S
C1147 C1148 1.394 . S
C1147 C1153 1.465 . S
C1148 C1143 1.399 . S
C1148 C1147 1.394 . S
C1148 C1149 1.516 . S
C1149 C1148 1.516 . S
C1149 C1150 1.502 . S
C1149 C1151 1.561 . S
C1149 C1152 1.526 . S
C1150 H1134 0.959 . S
C1150 H1135 0.959 . S
C1150 H1136 0.961 . S
C1150 C1149 1.502 . S
C1151 H1137 0.960 . S
C1151 H1138 0.961 . S
C1151 H1139 0.959 . S
C1151 C1149 1.561 . S
C1152 C1149 1.526 . S
C1152 C1153 1.396 . S
C1152 C1157 1.390 . S
C1153 C1147 1.465 . S
C1153 C1152 1.396 . S
C1153 C1154 1.399 . S
C1154 H1140 0.929 . S
C1154 C1153 1.399 . S
C1154 C1155 1.385 . S
C1155 H1141 0.931 . S
C1155 C1154 1.385 . S
C1155 C1156 1.389 . S
C1156 C1155 1.389 . S
C1156 C1157 1.387 . S
C1157 H1142 0.930 . S
C1157 C1152 1.390 . S
C1157 C1156 1.387 . S
H1158 C1170 0.930 . S
H1159 C1172 0.930 . S
H1160 C1173 0.930 . S
H1161 C1177 0.959 . S
H1162 C1177 0.959 . S
H1163 C1177 0.961 . S
H1164 C1178 0.960 . S
H1165 C1178 0.961 . S
H1166 C1178 0.959 . S
H1167 C1181 0.929 . S
H1168 C1182 0.931 . S
H1169 C1184 0.930 . S
C1170 H1158 0.930 . S
C1170 C1171 1.399 . S
C1170 C1175 1.399 . S
C1171 C1170 1.399 . S
C1171 C1172 1.376 . S
C1172 H1159 0.930 . S
C1172 C1171 1.376 . S
C1172 C1173 1.388 . S
C1173 H1160 0.930 . S
C1173 C1172 1.388 . S
C1173 C1174 1.390 . S
C1174 C1173 1.390 . S
C1174 C1175 1.394 . S
C1174 C1180 1.465 1_655 S
C1175 C1170 1.399 . S
C1175 C1174 1.394 . S
C1175 C1176 1.516 1_655 S
C1176 C1175 1.516 1_455 S
C1176 C1177 1.502 . S
C1176 C1178 1.561 . S
C1176 C1179 1.526 . S
C1177 H1161 0.959 . S
C1177 H1162 0.959 . S
C1177 H1163 0.961 . S
C1177 C1176 1.502 . S
C1178 H1164 0.960 . S
C1178 H1165 0.961 . S
C1178 H1166 0.959 . S
C1178 C1176 1.561 . S
C1179 C1176 1.526 . S
C1179 C1180 1.396 . S
C1179 C1184 1.390 . S
C1180 C1174 1.465 1_455 S
C1180 C1179 1.396 . S
C1180 C1181 1.399 . S
C1181 H1167 0.929 . S
C1181 C1180 1.399 . S
C1181 C1182 1.385 . S
C1182 H1168 0.931 . S
C1182 C1181 1.385 . S
C1182 C1183 1.389 . S
C1183 C1182 1.389 . S
C1183 C1184 1.387 . S
C1184 H1169 0.930 . S
C1184 C1179 1.390 . S
C1184 C1183 1.387 . S
H1185 C1197 0.930 . S
H1186 C1199 0.930 . S
H1187 C1200 0.930 . S
H1188 C1204 0.959 . S
H1189 C1204 0.959 . S
H1190 C1204 0.961 . S
H1191 C1205 0.960 . S
H1192 C1205 0.961 . S
H1193 C1205 0.959 . S
H1194 C1208 0.929 . S
H1195 C1209 0.931 . S
H1196 C1211 0.930 . S
C1197 H1185 0.930 . S
C1197 C1198 1.399 . S
C1197 C1202 1.399 . S
C1198 C1197 1.399 . S
C1198 C1199 1.376 . S
C1199 H1186 0.930 . S
C1199 C1198 1.376 . S
C1199 C1200 1.388 . S
C1200 H1187 0.930 . S
C1200 C1199 1.388 . S
C1200 C1201 1.390 . S
C1201 C1200 1.390 . S
C1201 C1202 1.394 . S
C1201 C1207 1.465 . S
C1202 C1197 1.399 . S
C1202 C1201 1.394 . S
C1202 C1203 1.516 . S
C1203 C1202 1.516 . S
C1203 C1204 1.502 . S
C1203 C1205 1.561 . S
C1203 C1206 1.526 . S
C1204 H1188 0.959 . S
C1204 H1189 0.959 . S
C1204 H1190 0.961 . S
C1204 C1203 1.502 . S
C1205 H1191 0.960 . S
C1205 H1192 0.961 . S
C1205 H1193 0.959 . S
C1205 C1203 1.561 . S
C1206 C1203 1.526 . S
C1206 C1207 1.396 . S
C1206 C1211 1.390 . S
C1207 C1201 1.465 . S
C1207 C1206 1.396 . S
C1207 C1208 1.399 . S
C1208 H1194 0.929 . S
C1208 C1207 1.399 . S
C1208 C1209 1.385 . S
C1209 H1195 0.931 . S
C1209 C1208 1.385 . S
C1209 C1210 1.389 . S
C1210 C1209 1.389 . S
C1210 C1211 1.387 . S
C1211 H1196 0.930 . S
C1211 C1206 1.390 . S
C1211 C1210 1.387 . S
H1212 C1224 0.930 . S
H1213 C1226 0.930 . S
H1214 C1227 0.930 . S
H1215 C1231 0.959 . S
H1216 C1231 0.959 . S
H1217 C1231 0.961 . S
H1218 C1232 0.960 . S
H1219 C1232 0.961 . S
H1220 C1232 0.959 . S
H1221 C1235 0.929 . S
H1222 C1236 0.931 . S
H1223 C1238 0.930 . S
C1224 H1212 0.930 . S
C1224 C1225 1.399 . S
C1224 C1229 1.399 . S
C1225 C1224 1.399 . S
C1225 C1226 1.376 . S
C1226 H1213 0.930 . S
C1226 C1225 1.376 . S
C1226 C1227 1.388 . S
C1227 H1214 0.930 . S
C1227 C1226 1.388 . S
C1227 C1228 1.390 . S
C1228 C1227 1.390 . S
C1228 C1229 1.394 . S
C1228 C1234 1.465 . S
C1229 C1224 1.399 . S
C1229 C1228 1.394 . S
C1229 C1230 1.516 . S
C1230 C1229 1.516 . S
C1230 C1231 1.502 . S
C1230 C1232 1.561 . S
C1230 C1233 1.526 . S
C1231 H1215 0.959 . S
C1231 H1216 0.959 . S
C1231 H1217 0.961 . S
C1231 C1230 1.502 . S
C1232 H1218 0.960 . S
C1232 H1219 0.961 . S
C1232 H1220 0.959 . S
C1232 C1230 1.561 . S
C1233 C1230 1.526 . S
C1233 C1234 1.396 . S
C1233 C1238 1.390 . S
C1234 C1228 1.465 . S
C1234 C1233 1.396 . S
C1234 C1235 1.399 . S
C1235 H1221 0.929 . S
C1235 C1234 1.399 . S
C1235 C1236 1.385 . S
C1236 H1222 0.931 . S
C1236 C1235 1.385 . S
C1236 C1237 1.389 . S
C1237 C1236 1.389 . S
C1237 C1238 1.387 . S
C1238 H1223 0.930 . S
C1238 C1233 1.390 . S
C1238 C1237 1.387 . S
H1239 C1251 0.930 . S
H1240 C1253 0.930 . S
H1241 C1254 0.930 . S
H1242 C1258 0.959 . S
H1243 C1258 0.959 . S
H1244 C1258 0.961 . S
H1245 C1259 0.960 . S
H1246 C1259 0.961 . S
H1247 C1259 0.959 . S
H1248 C1262 0.929 . S
H1249 C1263 0.931 . S
H1250 C1265 0.930 . S
C1251 H1239 0.930 . S
C1251 C1252 1.399 . S
C1251 C1256 1.399 . S
C1252 C1251 1.399 . S
C1252 C1253 1.376 . S
C1253 H1240 0.930 . S
C1253 C1252 1.376 . S
C1253 C1254 1.388 . S
C1254 H1241 0.930 . S
C1254 C1253 1.388 . S
C1254 C1255 1.390 . S
C1255 C1254 1.390 . S
C1255 C1256 1.394 . S
C1255 C1261 1.465 . S
C1256 C1251 1.399 . S
C1256 C1255 1.394 . S
C1256 C1257 1.516 . S
C1257 C1256 1.516 . S
C1257 C1258 1.502 . S
C1257 C1259 1.561 . S
C1257 C1260 1.526 . S
C1258 H1242 0.959 . S
C1258 H1243 0.959 . S
C1258 H1244 0.961 . S
C1258 C1257 1.502 . S
C1259 H1245 0.960 . S
C1259 H1246 0.961 . S
C1259 H1247 0.959 . S
C1259 C1257 1.561 . S
C1260 C1257 1.526 . S
C1260 C1261 1.396 . S
C1260 C1265 1.390 . S
C1261 C1255 1.465 . S
C1261 C1260 1.396 . S
C1261 C1262 1.399 . S
C1262 H1248 0.929 . S
C1262 C1261 1.399 . S
C1262 C1263 1.385 . S
C1263 H1249 0.931 . S
C1263 C1262 1.385 . S
C1263 C1264 1.389 . S
C1264 C1263 1.389 . S
C1264 C1265 1.387 . S
C1265 H1250 0.930 . S
C1265 C1260 1.390 . S
C1265 C1264 1.387 . S
H1266 C1278 0.930 . S
H1267 C1280 0.930 . S
H1268 C1281 0.930 . S
H1269 C1285 0.959 . S
H1270 C1285 0.959 1_655 S
H1271 C1285 0.961 . S
H1272 C1286 0.960 1_455 S
H1273 C1286 0.961 . S
H1274 C1286 0.959 . S
H1275 C1289 0.929 . S
H1276 C1290 0.931 . S
H1277 C1292 0.930 . S
C1278 H1266 0.930 . S
C1278 C1279 1.399 . S
C1278 C1283 1.399 . S
C1279 C1278 1.399 . S
C1279 C1280 1.376 . S
C1280 H1267 0.930 . S
C1280 C1279 1.376 . S
C1280 C1281 1.388 . S
C1281 H1268 0.930 . S
C1281 C1280 1.388 . S
C1281 C1282 1.390 . S
C1282 C1281 1.390 . S
C1282 C1283 1.394 . S
C1282 C1288 1.465 1_455 S
C1283 C1278 1.399 . S
C1283 C1282 1.394 . S
C1283 C1284 1.516 1_455 S
C1284 C1283 1.516 1_655 S
C1284 C1285 1.502 1_655 S
C1284 C1286 1.561 . S
C1284 C1287 1.526 . S
C1285 H1269 0.959 . S
C1285 H1270 0.959 1_455 S
C1285 H1271 0.961 . S
C1285 C1284 1.502 1_455 S
C1286 H1272 0.960 1_655 S
C1286 H1273 0.961 . S
C1286 H1274 0.959 . S
C1286 C1284 1.561 . S
C1287 C1284 1.526 . S
C1287 C1288 1.396 . S
C1287 C1292 1.390 . S
C1288 C1282 1.465 1_655 S
C1288 C1287 1.396 . S
C1288 C1289 1.399 . S
C1289 H1275 0.929 . S
C1289 C1288 1.399 . S
C1289 C1290 1.385 . S
C1290 H1276 0.931 . S
C1290 C1289 1.385 . S
C1290 C1291 1.389 . S
C1291 C1290 1.389 . S
C1291 C1292 1.387 . S
C1292 H1277 0.930 . S
C1292 C1287 1.390 . S
C1292 C1291 1.387 . S
H1293 C1305 0.930 . S
H1294 C1307 0.930 . S
H1295 C1308 0.930 . S
H1296 C1312 0.959 . S
H1297 C1312 0.959 . S
H1298 C1312 0.960 . S
H1299 C1313 0.960 . S
H1300 C1313 0.961 . S
H1301 C1313 0.959 . S
H1302 C1316 0.929 . S
H1303 C1317 0.931 . S
H1304 C1319 0.930 . S
C1305 H1293 0.930 . S
C1305 C1306 1.399 . S
C1305 C1310 1.399 . S
C1306 C1305 1.399 . S
C1306 C1307 1.376 . S
C1307 H1294 0.930 . S
C1307 C1306 1.376 . S
C1307 C1308 1.388 . S
C1308 H1295 0.930 . S
C1308 C1307 1.388 . S
C1308 C1309 1.390 . S
C1309 C1308 1.390 . S
C1309 C1310 1.394 . S
C1309 C1315 1.465 1_655 S
C1310 C1305 1.399 . S
C1310 C1309 1.394 . S
C1310 C1311 1.516 1_655 S
C1311 C1310 1.516 1_455 S
C1311 C1312 1.502 . S
C1311 C1313 1.561 . S
C1311 C1314 1.526 . S
C1312 H1296 0.959 . S
C1312 H1297 0.959 . S
C1312 H1298 0.960 . S
C1312 C1311 1.502 . S
C1313 H1299 0.960 . S
C1313 H1300 0.961 . S
C1313 H1301 0.959 . S
C1313 C1311 1.561 . S
C1314 C1311 1.526 . S
C1314 C1315 1.396 . S
C1314 C1319 1.390 . S
C1315 C1309 1.465 1_455 S
C1315 C1314 1.396 . S
C1315 C1316 1.399 . S
C1316 H1302 0.929 . S
C1316 C1315 1.399 . S
C1316 C1317 1.385 . S
C1317 H1303 0.931 . S
C1317 C1316 1.385 . S
C1317 C1318 1.389 . S
C1318 C1317 1.389 . S
C1318 C1319 1.387 . S
C1319 H1304 0.930 . S
C1319 C1314 1.390 . S
C1319 C1318 1.387 . S
H1320 C1332 0.930 . S
H1321 C1334 0.930 . S
H1322 C1335 0.930 . S
H1323 C1339 0.959 . S
H1324 C1339 0.959 . S
H1325 C1339 0.961 . S
H1326 C1340 0.960 . S
H1327 C1340 0.961 . S
H1328 C1340 0.959 . S
H1329 C1343 0.929 . S
H1330 C1344 0.931 . S
H1331 C1346 0.930 . S
C1332 H1320 0.930 . S
C1332 C1333 1.399 . S
C1332 C1337 1.399 . S
C1333 C1332 1.399 . S
C1333 C1334 1.376 . S
C1334 H1321 0.930 . S
C1334 C1333 1.376 . S
C1334 C1335 1.388 . S
C1335 H1322 0.930 . S
C1335 C1334 1.388 . S
C1335 C1336 1.390 . S
C1336 C1335 1.390 . S
C1336 C1337 1.394 . S
C1336 C1342 1.465 . S
C1337 C1332 1.399 . S
C1337 C1336 1.394 . S
C1337 C1338 1.516 . S
C1338 C1337 1.516 . S
C1338 C1339 1.502 . S
C1338 C1340 1.561 . S
C1338 C1341 1.526 . S
C1339 H1323 0.959 . S
C1339 H1324 0.959 . S
C1339 H1325 0.961 . S
C1339 C1338 1.502 . S
C1340 H1326 0.960 . S
C1340 H1327 0.961 . S
C1340 H1328 0.959 . S
C1340 C1338 1.561 . S
C1341 C1338 1.526 . S
C1341 C1342 1.396 . S
C1341 C1346 1.390 . S
C1342 C1336 1.465 . S
C1342 C1341 1.396 . S
C1342 C1343 1.399 . S
C1343 H1329 0.929 . S
C1343 C1342 1.399 . S
C1343 C1344 1.385 . S
C1344 H1330 0.931 . S
C1344 C1343 1.385 . S
C1344 C1345 1.389 . S
C1345 C1344 1.389 . S
C1345 C1346 1.387 . S
C1346 H1331 0.930 . S
C1346 C1341 1.390 . S
C1346 C1345 1.387 . S
H1347 C1359 0.930 . S
H1348 C1361 0.930 . S
H1349 C1362 0.930 . S
H1350 C1366 0.959 . S
H1351 C1366 0.959 . S
H1352 C1366 0.961 . S
H1353 C1367 0.960 . S
H1354 C1367 0.961 . S
H1355 C1367 0.959 . S
H1356 C1370 0.929 . S
H1357 C1371 0.931 . S
H1358 C1373 0.930 . S
C1359 H1347 0.930 . S
C1359 C1360 1.399 . S
C1359 C1364 1.399 . S
C1360 C1359 1.399 . S
C1360 C1361 1.376 . S
C1361 H1348 0.930 . S
C1361 C1360 1.376 . S
C1361 C1362 1.388 . S
C1362 H1349 0.930 . S
C1362 C1361 1.388 . S
C1362 C1363 1.390 . S
C1363 C1362 1.390 . S
C1363 C1364 1.394 . S
C1363 C1369 1.465 . S
C1364 C1359 1.399 . S
C1364 C1363 1.394 . S
C1364 C1365 1.516 . S
C1365 C1364 1.516 . S
C1365 C1366 1.502 . S
C1365 C1367 1.561 . S
C1365 C1368 1.526 . S
C1366 H1350 0.959 . S
C1366 H1351 0.959 . S
C1366 H1352 0.961 . S
C1366 C1365 1.502 . S
C1367 H1353 0.960 . S
C1367 H1354 0.961 . S
C1367 H1355 0.959 . S
C1367 C1365 1.561 . S
C1368 C1365 1.526 . S
C1368 C1369 1.396 . S
C1368 C1373 1.390 . S
C1369 C1363 1.465 . S
C1369 C1368 1.396 . S
C1369 C1370 1.399 . S
C1370 H1356 0.929 . S
C1370 C1369 1.399 . S
C1370 C1371 1.385 . S
C1371 H1357 0.931 . S
C1371 C1370 1.385 . S
C1371 C1372 1.389 . S
C1372 C1371 1.389 . S
C1372 C1373 1.387 . S
C1373 H1358 0.930 . S
C1373 C1368 1.390 . S
C1373 C1372 1.387 . S
H1374 C1386 0.930 . S
H1375 C1388 0.930 . S
H1376 C1389 0.930 . S
H1377 C1393 0.959 . S
H1378 C1393 0.959 . S
H1379 C1393 0.961 . S
H1380 C1394 0.960 . S
H1381 C1394 0.961 . S
H1382 C1394 0.959 . S
H1383 C1397 0.929 . S
H1384 C1398 0.931 . S
H1385 C1400 0.930 . S
C1386 H1374 0.930 . S
C1386 C1387 1.399 . S
C1386 C1391 1.399 . S
C1387 C1386 1.399 . S
C1387 C1388 1.376 . S
C1388 H1375 0.930 . S
C1388 C1387 1.376 . S
C1388 C1389 1.388 . S
C1389 H1376 0.930 . S
C1389 C1388 1.388 . S
C1389 C1390 1.390 . S
C1390 C1389 1.390 . S
C1390 C1391 1.394 . S
C1390 C1396 1.465 . S
C1391 C1386 1.399 . S
C1391 C1390 1.394 . S
C1391 C1392 1.516 . S
C1392 C1391 1.516 . S
C1392 C1393 1.502 . S
C1392 C1394 1.561 . S
C1392 C1395 1.526 . S
C1393 H1377 0.959 . S
C1393 H1378 0.959 . S
C1393 H1379 0.961 . S
C1393 C1392 1.502 . S
C1394 H1380 0.960 . S
C1394 H1381 0.961 . S
C1394 H1382 0.959 . S
C1394 C1392 1.561 . S
C1395 C1392 1.526 . S
C1395 C1396 1.396 . S
C1395 C1400 1.390 . S
C1396 C1390 1.465 . S
C1396 C1395 1.396 . S
C1396 C1397 1.399 . S
C1397 H1383 0.929 . S
C1397 C1396 1.399 . S
C1397 C1398 1.385 . S
C1398 H1384 0.931 . S
C1398 C1397 1.385 . S
C1398 C1399 1.389 . S
C1399 C1398 1.389 . S
C1399 C1400 1.387 . S
C1400 H1385 0.930 . S
C1400 C1395 1.390 . S
C1400 C1399 1.387 . S
H1401 C1413 0.930 . S
H1402 C1415 0.930 . S
H1403 C1416 0.930 . S
H1404 C1420 0.959 . S
H1405 C1420 0.959 . S
H1406 C1420 0.961 . S
H1407 C1421 0.960 . S
H1408 C1421 0.961 . S
H1409 C1421 0.959 . S
H1410 C1424 0.929 . S
H1411 C1425 0.931 . S
H1412 C1427 0.930 . S
C1413 H1401 0.930 . S
C1413 C1414 1.399 . S
C1413 C1418 1.399 . S
C1414 C1413 1.399 . S
C1414 C1415 1.376 . S
C1415 H1402 0.930 . S
C1415 C1414 1.376 . S
C1415 C1416 1.388 . S
C1416 H1403 0.930 . S
C1416 C1415 1.388 . S
C1416 C1417 1.390 . S
C1417 C1416 1.390 . S
C1417 C1418 1.394 . S
C1417 C1423 1.465 . S
C1418 C1413 1.399 . S
C1418 C1417 1.394 . S
C1418 C1419 1.516 . S
C1419 C1418 1.516 . S
C1419 C1420 1.502 . S
C1419 C1421 1.561 . S
C1419 C1422 1.526 . S
C1420 H1404 0.959 . S
C1420 H1405 0.959 . S
C1420 H1406 0.961 . S
C1420 C1419 1.502 . S
C1421 H1407 0.960 . S
C1421 H1408 0.961 . S
C1421 H1409 0.959 . S
C1421 C1419 1.561 . S
C1422 C1419 1.526 . S
C1422 C1423 1.396 . S
C1422 C1427 1.390 . S
C1423 C1417 1.465 . S
C1423 C1422 1.396 . S
C1423 C1424 1.399 . S
C1424 H1410 0.929 . S
C1424 C1423 1.399 . S
C1424 C1425 1.385 . S
C1425 H1411 0.931 . S
C1425 C1424 1.385 . S
C1425 C1426 1.389 . S
C1426 C1425 1.389 . S
C1426 C1427 1.387 . S
C1427 H1412 0.930 . S
C1427 C1422 1.390 . S
C1427 C1426 1.387 . S
H1428 C1440 0.930 . S
H1429 C1442 0.930 . S
H1430 C1443 0.930 . S
H1431 C1447 0.959 . S
H1432 C1447 0.959 . S
H1433 C1447 0.961 . S
H1434 C1448 0.960 . S
H1435 C1448 0.961 . S
H1436 C1448 0.959 . S
H1437 C1451 0.929 . S
H1438 C1452 0.931 . S
H1439 C1454 0.930 . S
C1440 H1428 0.930 . S
C1440 C1441 1.399 . S
C1440 C1445 1.399 . S
C1441 C1440 1.399 . S
C1441 C1442 1.376 . S
C1442 H1429 0.930 . S
C1442 C1441 1.376 . S
C1442 C1443 1.388 . S
C1443 H1430 0.930 . S
C1443 C1442 1.388 . S
C1443 C1444 1.390 . S
C1444 C1443 1.390 . S
C1444 C1445 1.394 . S
C1444 C1450 1.465 . S
C1445 C1440 1.399 . S
C1445 C1444 1.394 . S
C1445 C1446 1.516 . S
C1446 C1445 1.516 . S
C1446 C1447 1.502 . S
C1446 C1448 1.561 . S
C1446 C1449 1.526 . S
C1447 H1431 0.959 . S
C1447 H1432 0.959 . S
C1447 H1433 0.961 . S
C1447 C1446 1.502 . S
C1448 H1434 0.960 . S
C1448 H1435 0.961 . S
C1448 H1436 0.959 . S
C1448 C1446 1.561 . S
C1449 C1446 1.526 . S
C1449 C1450 1.396 . S
C1449 C1454 1.390 . S
C1450 C1444 1.465 . S
C1450 C1449 1.396 . S
C1450 C1451 1.399 . S
C1451 H1437 0.929 . S
C1451 C1450 1.399 . S
C1451 C1452 1.385 . S
C1452 H1438 0.931 . S
C1452 C1451 1.385 . S
C1452 C1453 1.389 . S
C1453 C1452 1.389 . S
C1453 C1454 1.387 . S
C1454 H1439 0.930 . S
C1454 C1449 1.390 . S
C1454 C1453 1.387 . S
H1455 C1467 0.930 . S
H1456 C1469 0.930 . S
H1457 C1470 0.930 . S
H1458 C1474 0.959 . S
H1459 C1474 0.959 . S
H1460 C1474 0.961 . S
H1461 C1475 0.960 . S
H1462 C1475 0.961 . S
H1463 C1475 0.959 . S
H1464 C1478 0.929 . S
H1465 C1479 0.931 . S
H1466 C1481 0.930 . S
C1467 H1455 0.930 . S
C1467 C1468 1.399 . S
C1467 C1472 1.399 . S
C1468 C1467 1.399 . S
C1468 C1469 1.376 . S
C1469 H1456 0.930 . S
C1469 C1468 1.376 . S
C1469 C1470 1.388 . S
C1470 H1457 0.930 . S
C1470 C1469 1.388 . S
C1470 C1471 1.390 . S
C1471 C1470 1.390 . S
C1471 C1472 1.394 . S
C1471 C1477 1.465 . S
C1472 C1467 1.399 . S
C1472 C1471 1.394 . S
C1472 C1473 1.516 . S
C1473 C1472 1.516 . S
C1473 C1474 1.502 . S
C1473 C1475 1.561 . S
C1473 C1476 1.526 . S
C1474 H1458 0.959 . S
C1474 H1459 0.959 . S
C1474 H1460 0.961 . S
C1474 C1473 1.502 . S
C1475 H1461 0.960 . S
C1475 H1462 0.961 . S
C1475 H1463 0.959 . S
C1475 C1473 1.561 . S
C1476 C1473 1.526 . S
C1476 C1477 1.396 . S
C1476 C1481 1.390 . S
C1477 C1471 1.465 . S
C1477 C1476 1.396 . S
C1477 C1478 1.399 . S
C1478 H1464 0.929 . S
C1478 C1477 1.399 . S
C1478 C1479 1.385 . S
C1479 H1465 0.931 . S
C1479 C1478 1.385 . S
C1479 C1480 1.389 . S
C1480 C1479 1.389 . S
C1480 C1481 1.387 . S
C1481 H1466 0.930 . S
C1481 C1476 1.390 . S
C1481 C1480 1.387 . S
H1482 C1494 0.930 . S
H1483 C1496 0.930 . S
H1484 C1497 0.930 . S
H1485 C1501 0.959 . S
H1486 C1501 0.959 . S
H1487 C1501 0.961 . S
H1488 C1502 0.960 . S
H1489 C1502 0.961 . S
H1490 C1502 0.959 . S
H1491 C1505 0.929 . S
H1492 C1506 0.931 . S
H1493 C1508 0.930 . S
C1494 H1482 0.930 . S
C1494 C1495 1.399 . S
C1494 C1499 1.399 . S
C1495 C1494 1.399 . S
C1495 C1496 1.376 . S
C1496 H1483 0.930 . S
C1496 C1495 1.376 . S
C1496 C1497 1.388 . S
C1497 H1484 0.930 . S
C1497 C1496 1.388 . S
C1497 C1498 1.390 . S
C1498 C1497 1.390 . S
C1498 C1499 1.394 . S
C1498 C1504 1.465 . S
C1499 C1494 1.399 . S
C1499 C1498 1.394 . S
C1499 C1500 1.516 . S
C1500 C1499 1.516 . S
C1500 C1501 1.502 . S
C1500 C1502 1.561 . S
C1500 C1503 1.526 . S
C1501 H1485 0.959 . S
C1501 H1486 0.959 . S
C1501 H1487 0.961 . S
C1501 C1500 1.502 . S
C1502 H1488 0.960 . S
C1502 H1489 0.961 . S
C1502 H1490 0.959 . S
C1502 C1500 1.561 . S
C1503 C1500 1.526 . S
C1503 C1504 1.396 . S
C1503 C1508 1.390 . S
C1504 C1498 1.465 . S
C1504 C1503 1.396 . S
C1504 C1505 1.399 . S
C1505 H1491 0.929 . S
C1505 C1504 1.399 . S
C1505 C1506 1.385 . S
C1506 H1492 0.931 . S
C1506 C1505 1.385 . S
C1506 C1507 1.389 . S
C1507 C1506 1.389 . S
C1507 C1508 1.387 . S
C1508 H1493 0.930 . S
C1508 C1503 1.390 . S
C1508 C1507 1.387 . S
H1509 C1521 0.930 . S
H1510 C1523 0.930 . S
H1511 C1524 0.930 . S
H1512 C1528 0.959 . S
H1513 C1528 0.959 . S
H1514 C1528 0.961 . S
H1515 C1529 0.960 . S
H1516 C1529 0.961 . S
H1517 C1529 0.959 . S
H1518 C1532 0.929 . S
H1519 C1533 0.931 . S
H1520 C1535 0.930 . S
C1521 H1509 0.930 . S
C1521 C1522 1.399 . S
C1521 C1526 1.399 . S
C1522 C1521 1.399 . S
C1522 C1523 1.376 . S
C1523 H1510 0.930 . S
C1523 C1522 1.376 . S
C1523 C1524 1.388 . S
C1524 H1511 0.930 . S
C1524 C1523 1.388 . S
C1524 C1525 1.390 . S
C1525 C1524 1.390 . S
C1525 C1526 1.394 . S
C1525 C1531 1.465 . S
C1526 C1521 1.399 . S
C1526 C1525 1.394 . S
C1526 C1527 1.516 . S
C1527 C1526 1.516 . S
C1527 C1528 1.502 . S
C1527 C1529 1.561 . S
C1527 C1530 1.526 . S
C1528 H1512 0.959 . S
C1528 H1513 0.959 . S
C1528 H1514 0.961 . S
C1528 C1527 1.502 . S
C1529 H1515 0.960 . S
C1529 H1516 0.961 . S
C1529 H1517 0.959 . S
C1529 C1527 1.561 . S
C1530 C1527 1.526 . S
C1530 C1531 1.396 . S
C1530 C1535 1.390 . S
C1531 C1525 1.465 . S
C1531 C1530 1.396 . S
C1531 C1532 1.399 . S
C1532 H1518 0.929 . S
C1532 C1531 1.399 . S
C1532 C1533 1.385 . S
C1533 H1519 0.931 . S
C1533 C1532 1.385 . S
C1533 C1534 1.389 . S
C1534 C1533 1.389 . S
C1534 C1535 1.387 . S
C1535 H1520 0.930 . S
C1535 C1530 1.390 . S
C1535 C1534 1.387 . S
H1536 C1548 0.930 . S
H1537 C1550 0.930 . S
H1538 C1551 0.930 . S
H1539 C1555 0.959 . S
H1540 C1555 0.959 . S
H1541 C1555 0.961 . S
H1542 C1556 0.960 . S
H1543 C1556 0.961 . S
H1544 C1556 0.959 . S
H1545 C1559 0.929 . S
H1546 C1560 0.931 . S
H1547 C1562 0.930 . S
C1548 H1536 0.930 . S
C1548 C1549 1.399 . S
C1548 C1553 1.399 . S
C1549 C1548 1.399 . S
C1549 C1550 1.376 . S
C1550 H1537 0.930 . S
C1550 C1549 1.376 . S
C1550 C1551 1.388 . S
C1551 H1538 0.930 . S
C1551 C1550 1.388 . S
C1551 C1552 1.390 . S
C1552 C1551 1.390 . S
C1552 C1553 1.394 . S
C1552 C1558 1.465 . S
C1553 C1548 1.399 . S
C1553 C1552 1.394 . S
C1553 C1554 1.516 . S
C1554 C1553 1.516 . S
C1554 C1555 1.502 . S
C1554 C1556 1.561 . S
C1554 C1557 1.526 . S
C1555 H1539 0.959 . S
C1555 H1540 0.959 . S
C1555 H1541 0.961 . S
C1555 C1554 1.502 . S
C1556 H1542 0.960 . S
C1556 H1543 0.961 . S
C1556 H1544 0.959 . S
C1556 C1554 1.561 . S
C1557 C1554 1.526 . S
C1557 C1558 1.396 . S
C1557 C1562 1.390 . S
C1558 C1552 1.465 . S
C1558 C1557 1.396 . S
C1558 C1559 1.399 . S
C1559 H1545 0.929 . S
C1559 C1558 1.399 . S
C1559 C1560 1.385 . S
C1560 H1546 0.931 . S
C1560 C1559 1.385 . S
C1560 C1561 1.389 . S
C1561 C1560 1.389 . S
C1561 C1562 1.387 . S
C1562 H1547 0.930 . S
C1562 C1557 1.390 . S
C1562 C1561 1.387 . S
H1563 C1575 0.930 . S
H1564 C1577 0.930 . S
H1565 C1578 0.930 . S
H1566 C1582 0.959 . S
H1567 C1582 0.959 . S
H1568 C1582 0.961 . S
H1569 C1583 0.960 1_565 S
H1570 C1583 0.961 . S
H1571 C1583 0.976 . S
H1572 C1586 0.929 . S
H1573 C1587 0.931 . S
H1574 C1589 0.930 . S
C1575 H1563 0.930 . S
C1575 C1576 1.399 . S
C1575 C1580 1.399 . S
C1576 C1575 1.399 . S
C1576 C1577 1.376 . S
C1577 H1564 0.930 . S
C1577 C1576 1.376 . S
C1577 C1578 1.388 . S
C1578 H1565 0.930 . S
C1578 C1577 1.388 . S
C1578 C1579 1.390 . S
C1579 C1578 1.390 . S
C1579 C1580 1.394 . S
C1579 C1585 1.465 1_565 S
C1580 C1575 1.399 . S
C1580 C1579 1.394 . S
C1580 C1581 1.516 1_565 S
C1581 C1580 1.516 1_545 S
C1581 C1582 1.502 . S
C1581 C1583 1.561 . S
C1581 C1584 1.526 . S
C1582 H1566 0.959 . S
C1582 H1567 0.959 . S
C1582 H1568 0.961 . S
C1582 C1581 1.502 . S
C1583 H1569 0.960 1_545 S
C1583 H1570 0.961 . S
C1583 H1571 0.976 . S
C1583 C1581 1.561 . S
C1584 C1581 1.526 . S
C1584 C1585 1.396 . S
C1584 C1589 1.390 . S
C1585 C1579 1.465 1_545 S
C1585 C1584 1.396 . S
C1585 C1586 1.399 . S
C1586 H1572 0.929 . S
C1586 C1585 1.399 . S
C1586 C1587 1.385 . S
C1587 H1573 0.931 . S
C1587 C1586 1.385 . S
C1587 C1588 1.389 . S
C1588 C1587 1.389 . S
C1588 C1589 1.387 . S
C1589 H1574 0.930 . S
C1589 C1584 1.390 . S
C1589 C1588 1.387 . S
H1590 C1602 0.930 . S
H1591 C1604 0.930 . S
H1592 C1605 0.930 . S
H1593 C1609 0.959 . S
H1594 C1609 0.959 . S
H1595 C1609 0.961 . S
H1596 C1610 0.960 . S
H1597 C1610 0.961 . S
H1598 C1610 0.959 . S
H1599 C1613 0.929 . S
H1600 C1614 0.931 . S
H1601 C1616 0.930 . S
C1602 H1590 0.930 . S
C1602 C1603 1.399 . S
C1602 C1607 1.399 . S
C1603 C1602 1.399 . S
C1603 C1604 1.376 . S
C1604 H1591 0.930 . S
C1604 C1603 1.376 . S
C1604 C1605 1.388 . S
C1605 H1592 0.930 . S
C1605 C1604 1.388 . S
C1605 C1606 1.390 . S
C1606 C1605 1.390 . S
C1606 C1607 1.394 . S
C1606 C1612 1.465 . S
C1607 C1602 1.399 . S
C1607 C1606 1.394 . S
C1607 C1608 1.516 . S
C1608 C1607 1.516 . S
C1608 C1609 1.502 . S
C1608 C1610 1.561 . S
C1608 C1611 1.526 . S
C1609 H1593 0.959 . S
C1609 H1594 0.959 . S
C1609 H1595 0.961 . S
C1609 C1608 1.502 . S
C1610 H1596 0.960 . S
C1610 H1597 0.961 . S
C1610 H1598 0.959 . S
C1610 C1608 1.561 . S
C1611 C1608 1.526 . S
C1611 C1612 1.396 . S
C1611 C1616 1.390 . S
C1612 C1606 1.465 . S
C1612 C1611 1.396 . S
C1612 C1613 1.399 . S
C1613 H1599 0.929 . S
C1613 C1612 1.399 . S
C1613 C1614 1.385 . S
C1614 H1600 0.931 . S
C1614 C1613 1.385 . S
C1614 C1615 1.389 . S
C1615 C1614 1.389 . S
C1615 C1616 1.387 . S
C1616 H1601 0.930 . S
C1616 C1611 1.390 . S
C1616 C1615 1.387 . S
H1617 C1629 0.930 . S
H1618 C1631 0.930 . S
H1619 C1632 0.930 . S
H1620 C1636 0.959 . S
H1621 C1636 0.959 . S
H1622 C1636 0.961 . S
H1623 C1637 0.960 . S
H1624 C1637 0.961 . S
H1625 C1637 0.959 . S
H1626 C1640 0.929 . S
H1627 C1641 0.931 . S
H1628 C1643 0.930 . S
C1629 H1617 0.930 . S
C1629 C1630 1.399 . S
C1629 C1634 1.399 . S
C1630 C1629 1.399 . S
C1630 C1631 1.376 . S
C1631 H1618 0.930 . S
C1631 C1630 1.376 . S
C1631 C1632 1.388 . S
C1632 H1619 0.930 . S
C1632 C1631 1.388 . S
C1632 C1633 1.390 . S
C1633 C1632 1.390 . S
C1633 C1634 1.394 . S
C1633 C1639 1.465 . S
C1634 C1629 1.399 . S
C1634 C1633 1.394 . S
C1634 C1635 1.516 . S
C1635 C1634 1.516 . S
C1635 C1636 1.502 . S
C1635 C1637 1.561 . S
C1635 C1638 1.526 . S
C1636 H1620 0.959 . S
C1636 H1621 0.959 . S
C1636 H1622 0.961 . S
C1636 C1635 1.502 . S
C1637 H1623 0.960 . S
C1637 H1624 0.961 . S
C1637 H1625 0.959 . S
C1637 C1635 1.561 . S
C1638 C1635 1.526 . S
C1638 C1639 1.396 . S
C1638 C1643 1.390 . S
C1639 C1633 1.465 . S
C1639 C1638 1.396 . S
C1639 C1640 1.399 . S
C1640 H1626 0.929 . S
C1640 C1639 1.399 . S
C1640 C1641 1.385 . S
C1641 H1627 0.931 . S
C1641 C1640 1.385 . S
C1641 C1642 1.389 . S
C1642 C1641 1.389 . S
C1642 C1643 1.387 . S
C1643 H1628 0.930 . S
C1643 C1638 1.390 . S
C1643 C1642 1.387 . S
H1644 C1656 0.930 . S
H1645 C1658 0.930 . S
H1646 C1659 0.930 . S
H1647 C1663 0.959 . S
H1648 C1663 0.959 . S
H1649 C1663 0.961 . S
H1650 C1664 0.960 . S
H1651 C1664 0.961 . S
H1652 C1664 0.959 . S
H1653 C1667 0.929 . S
H1654 C1668 0.931 . S
H1655 C1670 0.930 . S
C1656 H1644 0.930 . S
C1656 C1657 1.399 . S
C1656 C1661 1.399 . S
C1657 C1656 1.399 . S
C1657 C1658 1.376 . S
C1658 H1645 0.930 . S
C1658 C1657 1.376 . S
C1658 C1659 1.388 . S
C1659 H1646 0.930 . S
C1659 C1658 1.388 . S
C1659 C1660 1.390 . S
C1660 C1659 1.390 . S
C1660 C1661 1.394 . S
C1660 C1666 1.465 . S
C1661 C1656 1.399 . S
C1661 C1660 1.394 . S
C1661 C1662 1.516 . S
C1662 C1661 1.516 . S
C1662 C1663 1.502 . S
C1662 C1664 1.561 . S
C1662 C1665 1.526 . S
C1663 H1647 0.959 . S
C1663 H1648 0.959 . S
C1663 H1649 0.961 . S
C1663 C1662 1.502 . S
C1664 H1650 0.960 . S
C1664 H1651 0.961 . S
C1664 H1652 0.959 . S
C1664 C1662 1.561 . S
C1665 C1662 1.526 . S
C1665 C1666 1.396 . S
C1665 C1670 1.390 . S
C1666 C1660 1.465 . S
C1666 C1665 1.396 . S
C1666 C1667 1.399 . S
C1667 H1653 0.929 . S
C1667 C1666 1.399 . S
C1667 C1668 1.385 . S
C1668 H1654 0.931 . S
C1668 C1667 1.385 . S
C1668 C1669 1.389 . S
C1669 C1668 1.389 . S
C1669 C1670 1.387 . S
C1670 H1655 0.930 . S
C1670 C1665 1.390 . S
C1670 C1669 1.387 . S
H1671 C1683 0.930 . S
H1672 C1685 0.930 . S
H1673 C1686 0.930 . S
H1674 C1690 0.959 . S
H1675 C1690 0.959 . S
H1676 C1690 0.961 . S
H1677 C1691 0.960 . S
H1678 C1691 0.961 . S
H1679 C1691 0.959 . S
H1680 C1694 0.929 . S
H1681 C1695 0.931 . S
H1682 C1697 0.930 . S
C1683 H1671 0.930 . S
C1683 C1684 1.399 . S
C1683 C1688 1.399 . S
C1684 C1683 1.399 . S
C1684 C1685 1.376 . S
C1685 H1672 0.930 . S
C1685 C1684 1.376 . S
C1685 C1686 1.388 . S
C1686 H1673 0.930 . S
C1686 C1685 1.388 . S
C1686 C1687 1.390 . S
C1687 C1686 1.390 . S
C1687 C1688 1.394 . S
C1687 C1693 1.465 1_565 S
C1688 C1683 1.399 . S
C1688 C1687 1.394 . S
C1688 C1689 1.516 . S
C1689 C1688 1.516 . S
C1689 C1690 1.502 . S
C1689 C1691 1.561 . S
C1689 C1692 1.526 1_565 S
C1690 H1674 0.959 . S
C1690 H1675 0.959 . S
C1690 H1676 0.961 . S
C1690 C1689 1.502 . S
C1691 H1677 0.960 . S
C1691 H1678 0.961 . S
C1691 H1679 0.959 . S
C1691 C1689 1.561 . S
C1692 C1689 1.526 1_545 S
C1692 C1693 1.396 . S
C1692 C1697 1.390 . S
C1693 C1687 1.465 1_545 S
C1693 C1692 1.396 . S
C1693 C1694 1.399 . S
C1694 H1680 0.929 . S
C1694 C1693 1.399 . S
C1694 C1695 1.385 . S
C1695 H1681 0.931 . S
C1695 C1694 1.385 . S
C1695 C1696 1.389 . S
C1696 C1695 1.389 . S
C1696 C1697 1.387 . S
C1697 H1682 0.930 . S
C1697 C1692 1.390 . S
C1697 C1696 1.387 . S
H1698 C1710 0.930 . S
H1699 C1712 0.930 . S
H1700 C1713 0.930 . S
H1701 C1717 0.959 . S
H1702 C1717 0.959 . S
H1703 C1717 0.961 . S
H1704 C1718 0.960 . S
H1705 C1718 0.961 . S
H1706 C1718 0.959 . S
H1707 C1721 0.929 . S
H1708 C1722 0.931 . S
H1709 C1724 0.930 . S
C1710 H1698 0.930 . S
C1710 C1711 1.399 . S
C1710 C1715 1.399 . S
C1711 C1710 1.399 . S
C1711 C1712 1.376 . S
C1712 H1699 0.930 . S
C1712 C1711 1.376 . S
C1712 C1713 1.388 . S
C1713 H1700 0.930 . S
C1713 C1712 1.388 . S
C1713 C1714 1.390 . S
C1714 C1713 1.390 . S
C1714 C1715 1.394 . S
C1714 C1720 1.465 . S
C1715 C1710 1.399 . S
C1715 C1714 1.394 . S
C1715 C1716 1.516 . S
C1716 C1715 1.516 . S
C1716 C1717 1.502 . S
C1716 C1718 1.561 . S
C1716 C1719 1.526 . S
C1717 H1701 0.959 . S
C1717 H1702 0.959 . S
C1717 H1703 0.961 . S
C1717 C1716 1.502 . S
C1718 H1704 0.960 . S
C1718 H1705 0.961 . S
C1718 H1706 0.959 . S
C1718 C1716 1.561 . S
C1719 C1716 1.526 . S
C1719 C1720 1.396 . S
C1719 C1724 1.390 . S
C1720 C1714 1.465 . S
C1720 C1719 1.396 . S
C1720 C1721 1.399 . S
C1721 H1707 0.929 . S
C1721 C1720 1.399 . S
C1721 C1722 1.385 . S
C1722 H1708 0.931 . S
C1722 C1721 1.385 . S
C1722 C1723 1.389 . S
C1723 C1722 1.389 . S
C1723 C1724 1.387 . S
C1724 H1709 0.930 . S
C1724 C1719 1.390 . S
C1724 C1723 1.387 . S
H1725 C1737 0.930 . S
H1726 C1739 0.930 . S
H1727 C1740 0.930 . S
H1728 C1744 0.959 . S
H1729 C1744 0.959 . S
H1730 C1744 0.961 . S
H1731 C1745 0.960 . S
H1732 C1745 0.961 . S
H1733 C1745 0.959 . S
H1734 C1748 0.929 . S
H1735 C1749 0.931 . S
H1736 C1751 0.930 . S
C1737 H1725 0.930 . S
C1737 C1738 1.399 . S
C1737 C1742 1.399 . S
C1738 C1737 1.399 . S
C1738 C1739 1.376 . S
C1739 H1726 0.930 . S
C1739 C1738 1.376 . S
C1739 C1740 1.388 . S
C1740 H1727 0.930 . S
C1740 C1739 1.388 . S
C1740 C1741 1.390 . S
C1741 C1740 1.390 . S
C1741 C1742 1.394 . S
C1741 C1747 1.465 . S
C1742 C1737 1.399 . S
C1742 C1741 1.394 . S
C1742 C1743 1.516 . S
C1743 C1742 1.516 . S
C1743 C1744 1.502 . S
C1743 C1745 1.561 . S
C1743 C1746 1.526 . S
C1744 H1728 0.959 . S
C1744 H1729 0.959 . S
C1744 H1730 0.961 . S
C1744 C1743 1.502 . S
C1745 H1731 0.960 . S
C1745 H1732 0.961 . S
C1745 H1733 0.959 . S
C1745 C1743 1.561 . S
C1746 C1743 1.526 . S
C1746 C1747 1.396 . S
C1746 C1751 1.390 . S
C1747 C1741 1.465 . S
C1747 C1746 1.396 . S
C1747 C1748 1.399 . S
C1748 H1734 0.929 . S
C1748 C1747 1.399 . S
C1748 C1749 1.385 . S
C1749 H1735 0.931 . S
C1749 C1748 1.385 . S
C1749 C1750 1.389 . S
C1750 C1749 1.389 . S
C1750 C1751 1.387 . S
C1751 H1736 0.930 . S
C1751 C1746 1.390 . S
C1751 C1750 1.387 . S
H1752 C1764 0.930 . S
H1753 C1766 0.930 . S
H1754 C1767 0.930 . S
H1755 C1771 0.959 . S
H1756 C1771 0.959 . S
H1757 C1771 0.961 . S
H1758 C1772 0.960 . S
H1759 C1772 0.961 . S
H1760 C1772 0.959 . S
H1761 C1775 0.929 . S
H1762 C1776 0.931 . S
H1763 C1778 0.930 . S
C1764 H1752 0.930 . S
C1764 C1765 1.399 . S
C1764 C1769 1.399 . S
C1765 C1764 1.399 . S
C1765 C1766 1.376 . S
C1766 H1753 0.930 . S
C1766 C1765 1.376 . S
C1766 C1767 1.388 . S
C1767 H1754 0.930 . S
C1767 C1766 1.388 . S
C1767 C1768 1.390 . S
C1768 C1767 1.390 . S
C1768 C1769 1.394 . S
C1768 C1774 1.465 . S
C1769 C1764 1.399 . S
C1769 C1768 1.394 . S
C1769 C1770 1.516 . S
C1770 C1769 1.516 . S
C1770 C1771 1.502 . S
C1770 C1772 1.561 . S
C1770 C1773 1.526 . S
C1771 H1755 0.959 . S
C1771 H1756 0.959 . S
C1771 H1757 0.961 . S
C1771 C1770 1.502 . S
C1772 H1758 0.960 . S
C1772 H1759 0.961 . S
C1772 H1760 0.959 . S
C1772 C1770 1.561 . S
C1773 C1770 1.526 . S
C1773 C1774 1.396 . S
C1773 C1778 1.390 . S
C1774 C1768 1.465 . S
C1774 C1773 1.396 . S
C1774 C1775 1.399 . S
C1775 H1761 0.929 . S
C1775 C1774 1.399 . S
C1775 C1776 1.385 . S
C1776 H1762 0.931 . S
C1776 C1775 1.385 . S
C1776 C1777 1.389 . S
C1777 C1776 1.389 . S
C1777 C1778 1.387 . S
C1778 H1763 0.930 . S
C1778 C1773 1.390 . S
C1778 C1777 1.387 . S
H1779 C1791 0.930 . S
H1780 C1793 0.930 . S
H1781 C1794 0.930 . S
H1782 C1798 0.959 . S
H1783 C1798 0.959 . S
H1784 C1798 0.961 . S
H1785 C1799 0.960 . S
H1786 C1799 0.961 . S
H1787 C1799 0.959 . S
H1788 C1802 0.929 . S
H1789 C1803 0.931 . S
H1790 C1805 0.930 . S
C1791 H1779 0.930 . S
C1791 C1792 1.399 . S
C1791 C1796 1.399 . S
C1792 C1791 1.399 . S
C1792 C1793 1.376 . S
C1793 H1780 0.930 . S
C1793 C1792 1.376 . S
C1793 C1794 1.388 . S
C1794 H1781 0.930 . S
C1794 C1793 1.388 . S
C1794 C1795 1.390 . S
C1795 C1794 1.390 . S
C1795 C1796 1.394 . S
C1795 C1801 1.465 . S
C1796 C1791 1.399 . S
C1796 C1795 1.394 . S
C1796 C1797 1.516 . S
C1797 C1796 1.516 . S
C1797 C1798 1.502 . S
C1797 C1799 1.561 . S
C1797 C1800 1.526 . S
C1798 H1782 0.959 . S
C1798 H1783 0.959 . S
C1798 H1784 0.961 . S
C1798 C1797 1.502 . S
C1799 H1785 0.960 . S
C1799 H1786 0.961 . S
C1799 H1787 0.959 . S
C1799 C1797 1.561 . S
C1800 C1797 1.526 . S
C1800 C1801 1.396 . S
C1800 C1805 1.390 . S
C1801 C1795 1.465 . S
C1801 C1800 1.396 . S
C1801 C1802 1.399 . S
C1802 H1788 0.929 . S
C1802 C1801 1.399 . S
C1802 C1803 1.385 . S
C1803 H1789 0.931 . S
C1803 C1802 1.385 . S
C1803 C1804 1.389 . S
C1804 C1803 1.389 . S
C1804 C1805 1.387 . S
C1805 H1790 0.930 . S
C1805 C1800 1.390 . S
C1805 C1804 1.387 . S
H1806 C1818 0.930 . S
H1807 C1820 0.930 . S
H1808 C1821 0.930 . S
H1809 C1825 0.959 . S
H1810 C1825 0.959 . S
H1811 C1825 0.961 . S
H1812 C1826 0.960 . S
H1813 C1826 0.961 . S
H1814 C1826 0.959 . S
H1815 C1829 0.929 . S
H1816 C1830 0.931 . S
H1817 C1832 0.930 . S
C1818 H1806 0.930 . S
C1818 C1819 1.399 . S
C1818 C1823 1.399 . S
C1819 C1818 1.399 . S
C1819 C1820 1.376 . S
C1820 H1807 0.930 . S
C1820 C1819 1.376 . S
C1820 C1821 1.388 . S
C1821 H1808 0.930 . S
C1821 C1820 1.388 . S
C1821 C1822 1.390 . S
C1822 C1821 1.390 . S
C1822 C1823 1.394 . S
C1822 C1828 1.465 . S
C1823 C1818 1.399 . S
C1823 C1822 1.394 . S
C1823 C1824 1.516 . S
C1824 C1823 1.516 . S
C1824 C1825 1.502 . S
C1824 C1826 1.561 . S
C1824 C1827 1.526 . S
C1825 H1809 0.959 . S
C1825 H1810 0.959 . S
C1825 H1811 0.961 . S
C1825 C1824 1.502 . S
C1826 H1812 0.960 . S
C1826 H1813 0.961 . S
C1826 H1814 0.959 . S
C1826 C1824 1.561 . S
C1827 C1824 1.526 . S
C1827 C1828 1.396 . S
C1827 C1832 1.390 . S
C1828 C1822 1.465 . S
C1828 C1827 1.396 . S
C1828 C1829 1.399 . S
C1829 H1815 0.929 . S
C1829 C1828 1.399 . S
C1829 C1830 1.385 . S
C1830 H1816 0.931 . S
C1830 C1829 1.385 . S
C1830 C1831 1.389 . S
C1831 C1830 1.389 . S
C1831 C1832 1.387 . S
C1832 H1817 0.930 . S
C1832 C1827 1.390 . S
C1832 C1831 1.387 . S
H1833 C1845 0.930 . S
H1834 C1847 0.930 . S
H1835 C1848 0.930 . S
H1836 C1852 0.959 . S
H1837 C1852 0.959 . S
H1838 C1852 0.961 . S
H1839 C1853 0.960 . S
H1840 C1853 0.961 . S
H1841 C1853 0.959 . S
H1842 C1856 0.929 . S
H1843 C1857 0.931 . S
H1844 C1859 0.930 . S
C1845 H1833 0.930 . S
C1845 C1846 1.399 . S
C1845 C1850 1.399 . S
C1846 C1845 1.399 . S
C1846 C1847 1.376 . S
C1847 H1834 0.930 . S
C1847 C1846 1.376 . S
C1847 C1848 1.388 . S
C1848 H1835 0.930 . S
C1848 C1847 1.388 . S
C1848 C1849 1.390 . S
C1849 C1848 1.390 . S
C1849 C1850 1.394 . S
C1849 C1855 1.465 . S
C1850 C1845 1.399 . S
C1850 C1849 1.394 . S
C1850 C1851 1.516 . S
C1851 C1850 1.516 . S
C1851 C1852 1.502 . S
C1851 C1853 1.561 . S
C1851 C1854 1.526 . S
C1852 H1836 0.959 . S
C1852 H1837 0.959 . S
C1852 H1838 0.961 . S
C1852 C1851 1.502 . S
C1853 H1839 0.960 . S
C1853 H1840 0.961 . S
C1853 H1841 0.959 . S
C1853 C1851 1.561 . S
C1854 C1851 1.526 . S
C1854 C1855 1.396 . S
C1854 C1859 1.390 . S
C1855 C1849 1.465 . S
C1855 C1854 1.396 . S
C1855 C1856 1.399 . S
C1856 H1842 0.929 . S
C1856 C1855 1.399 . S
C1856 C1857 1.385 . S
C1857 H1843 0.931 . S
C1857 C1856 1.385 . S
C1857 C1858 1.389 . S
C1858 C1857 1.389 . S
C1858 C1859 1.387 . S
C1859 H1844 0.930 . S
C1859 C1854 1.390 . S
C1859 C1858 1.387 . S
H1860 C1872 0.930 . S
H1861 C1874 0.930 . S
H1862 C1875 0.930 . S
H1863 C1879 0.959 . S
H1864 C1879 0.959 . S
H1865 C1879 0.961 1_455 S
H1866 C1880 0.960 . S
H1867 C1880 0.961 1_554 S
H1868 C1880 0.959 . S
H1869 C1883 0.929 . S
H1870 C1884 0.931 . S
H1871 C1886 0.930 . S
C1872 H1860 0.930 . S
C1872 C1873 1.399 . S
C1872 C1877 1.399 . S
C1873 C1872 1.399 . S
C1873 C1874 1.376 . S
C1874 H1861 0.930 . S
C1874 C1873 1.376 . S
C1874 C1875 1.388 . S
C1875 H1862 0.930 . S
C1875 C1874 1.388 . S
C1875 C1876 1.390 . S
C1876 C1875 1.390 . S
C1876 C1877 1.394 . S
C1876 C1882 1.465 1_455 S
C1877 C1872 1.399 . S
C1877 C1876 1.394 . S
C1877 C1878 1.516 . S
C1878 C1877 1.516 . S
C1878 C1879 1.502 1_455 S
C1878 C1880 1.561 . S
C1878 C1881 1.526 1_455 S
C1879 H1863 0.959 . S
C1879 H1864 0.959 . S
C1879 H1865 0.961 1_655 S
C1879 C1878 1.502 1_655 S
C1880 H1866 0.960 . S
C1880 H1867 0.961 1_556 S
C1880 H1868 0.959 . S
C1880 C1878 1.561 . S
C1881 C1878 1.526 1_655 S
C1881 C1882 1.396 . S
C1881 C1886 1.390 . S
C1882 C1876 1.465 1_655 S
C1882 C1881 1.396 . S
C1882 C1883 1.399 . S
C1883 H1869 0.929 . S
C1883 C1882 1.399 . S
C1883 C1884 1.385 . S
C1884 H1870 0.931 . S
C1884 C1883 1.385 . S
C1884 C1885 1.389 . S
C1885 C1884 1.389 . S
C1885 C1886 1.387 . S
C1886 H1871 0.930 . S
C1886 C1881 1.390 . S
C1886 C1885 1.387 . S
H1887 C1899 0.930 . S
H1888 C1901 0.930 . S
H1889 C1902 0.930 . S
H1890 C1906 0.959 . S
H1891 C1906 0.959 . S
H1892 C1906 0.961 . S
H1893 C1907 0.960 . S
H1894 C1907 0.961 . S
H1895 C1907 0.959 . S
H1896 C1910 0.929 . S
H1897 C1911 0.931 . S
H1898 C1913 0.930 . S
C1899 H1887 0.930 . S
C1899 C1900 1.399 . S
C1899 C1904 1.399 . S
C1900 C1899 1.399 . S
C1900 C1901 1.376 . S
C1901 H1888 0.930 . S
C1901 C1900 1.376 . S
C1901 C1902 1.388 . S
C1902 H1889 0.930 . S
C1902 C1901 1.388 . S
C1902 C1903 1.390 . S
C1903 C1902 1.390 . S
C1903 C1904 1.394 . S
C1903 C1909 1.465 . S
C1904 C1899 1.399 . S
C1904 C1903 1.394 . S
C1904 C1905 1.516 . S
C1905 C1904 1.516 . S
C1905 C1906 1.502 . S
C1905 C1907 1.561 . S
C1905 C1908 1.526 . S
C1906 H1890 0.959 . S
C1906 H1891 0.959 . S
C1906 H1892 0.961 . S
C1906 C1905 1.502 . S
C1907 H1893 0.960 . S
C1907 H1894 0.961 . S
C1907 H1895 0.959 . S
C1907 C1905 1.561 . S
C1908 C1905 1.526 . S
C1908 C1909 1.396 . S
C1908 C1913 1.390 . S
C1909 C1903 1.465 . S
C1909 C1908 1.396 . S
C1909 C1910 1.399 . S
C1910 H1896 0.929 . S
C1910 C1909 1.399 . S
C1910 C1911 1.385 . S
C1911 H1897 0.931 . S
C1911 C1910 1.385 . S
C1911 C1912 1.389 . S
C1912 C1911 1.389 . S
C1912 C1913 1.387 . S
C1913 H1898 0.930 . S
C1913 C1908 1.390 . S
C1913 C1912 1.387 . S
H1914 C1926 0.930 . S
H1915 C1928 0.930 . S
H1916 C1929 0.930 . S
H1917 C1933 0.959 . S
H1918 C1933 0.959 . S
H1919 C1933 0.961 . S
H1920 C1934 0.960 . S
H1921 C1934 0.961 . S
H1922 C1934 0.959 . S
H1923 C1937 0.929 . S
H1924 C1938 0.931 . S
H1925 C1940 0.930 . S
C1926 H1914 0.930 . S
C1926 C1927 1.399 . S
C1926 C1931 1.399 . S
C1927 C1926 1.399 . S
C1927 C1928 1.376 . S
C1928 H1915 0.930 . S
C1928 C1927 1.376 . S
C1928 C1929 1.388 . S
C1929 H1916 0.930 . S
C1929 C1928 1.388 . S
C1929 C1930 1.390 . S
C1930 C1929 1.390 . S
C1930 C1931 1.394 . S
C1930 C1936 1.465 . S
C1931 C1926 1.399 . S
C1931 C1930 1.394 . S
C1931 C1932 1.516 . S
C1932 C1931 1.516 . S
C1932 C1933 1.502 . S
C1932 C1934 1.561 . S
C1932 C1935 1.526 . S
C1933 H1917 0.959 . S
C1933 H1918 0.959 . S
C1933 H1919 0.961 . S
C1933 C1932 1.502 . S
C1934 H1920 0.960 . S
C1934 H1921 0.961 . S
C1934 H1922 0.959 . S
C1934 C1932 1.561 . S
C1935 C1932 1.526 . S
C1935 C1936 1.396 . S
C1935 C1940 1.390 . S
C1936 C1930 1.465 . S
C1936 C1935 1.396 . S
C1936 C1937 1.399 . S
C1937 H1923 0.929 . S
C1937 C1936 1.399 . S
C1937 C1938 1.385 . S
C1938 H1924 0.931 . S
C1938 C1937 1.385 . S
C1938 C1939 1.389 . S
C1939 C1938 1.389 . S
C1939 C1940 1.387 . S
C1940 H1925 0.930 . S
C1940 C1935 1.390 . S
C1940 C1939 1.387 . S
H1941 C1953 0.930 . S
H1942 C1955 0.930 . S
H1943 C1956 0.930 . S
H1944 C1960 0.959 . S
H1945 C1960 0.959 . S
H1946 C1960 0.961 . S
H1947 C1961 0.960 . S
H1948 C1961 0.961 . S
H1949 C1961 0.959 . S
H1950 C1964 0.929 . S
H1951 C1965 0.931 . S
H1952 C1967 0.930 . S
C1953 H1941 0.930 . S
C1953 C1954 1.399 . S
C1953 C1958 1.399 . S
C1954 C1953 1.399 . S
C1954 C1955 1.376 . S
C1955 H1942 0.930 . S
C1955 C1954 1.376 . S
C1955 C1956 1.388 . S
C1956 H1943 0.930 . S
C1956 C1955 1.388 . S
C1956 C1957 1.390 . S
C1957 C1956 1.390 . S
C1957 C1958 1.394 . S
C1957 C1963 1.465 . S
C1958 C1953 1.399 . S
C1958 C1957 1.394 . S
C1958 C1959 1.516 . S
C1959 C1958 1.516 . S
C1959 C1960 1.502 . S
C1959 C1961 1.561 . S
C1959 C1962 1.526 . S
C1960 H1944 0.959 . S
C1960 H1945 0.959 . S
C1960 H1946 0.961 . S
C1960 C1959 1.502 . S
C1961 H1947 0.960 . S
C1961 H1948 0.961 . S
C1961 H1949 0.959 . S
C1961 C1959 1.561 . S
C1962 C1959 1.526 . S
C1962 C1963 1.396 . S
C1962 C1967 1.390 . S
C1963 C1957 1.465 . S
C1963 C1962 1.396 . S
C1963 C1964 1.399 . S
C1964 H1950 0.929 . S
C1964 C1963 1.399 . S
C1964 C1965 1.385 . S
C1965 H1951 0.931 . S
C1965 C1964 1.385 . S
C1965 C1966 1.389 . S
C1966 C1965 1.389 . S
C1966 C1967 1.387 . S
C1967 H1952 0.930 . S
C1967 C1962 1.390 . S
C1967 C1966 1.387 . S
H1968 C1980 0.930 . S
H1969 C1982 0.930 . S
H1970 C1983 0.930 . S
H1971 C1987 0.959 . S
H1972 C1987 0.959 . S
H1973 C1987 0.961 . S
H1974 C1988 0.960 . S
H1975 C1988 0.961 . S
H1976 C1988 0.959 . S
H1977 C1991 0.929 . S
H1978 C1992 0.931 . S
H1979 C1994 0.930 . S
C1980 H1968 0.930 . S
C1980 C1981 1.399 . S
C1980 C1985 1.399 . S
C1981 C1980 1.399 . S
C1981 C1982 1.376 . S
C1982 H1969 0.930 . S
C1982 C1981 1.376 . S
C1982 C1983 1.388 . S
C1983 H1970 0.930 . S
C1983 C1982 1.388 . S
C1983 C1984 1.390 . S
C1984 C1983 1.390 . S
C1984 C1985 1.394 . S
C1984 C1990 1.465 . S
C1985 C1980 1.399 . S
C1985 C1984 1.394 . S
C1985 C1986 1.516 . S
C1986 C1985 1.516 . S
C1986 C1987 1.502 . S
C1986 C1988 1.561 . S
C1986 C1989 1.526 . S
C1987 H1971 0.959 . S
C1987 H1972 0.959 . S
C1987 H1973 0.961 . S
C1987 C1986 1.502 . S
C1988 H1974 0.960 . S
C1988 H1975 0.961 . S
C1988 H1976 0.959 . S
C1988 C1986 1.561 . S
C1989 C1986 1.526 . S
C1989 C1990 1.396 . S
C1989 C1994 1.390 . S
C1990 C1984 1.465 . S
C1990 C1989 1.396 . S
C1990 C1991 1.399 . S
C1991 H1977 0.929 . S
C1991 C1990 1.399 . S
C1991 C1992 1.385 . S
C1992 H1978 0.931 . S
C1992 C1991 1.385 . S
C1992 C1993 1.389 . S
C1993 C1992 1.389 . S
C1993 C1994 1.387 . S
C1994 H1979 0.930 . S
C1994 C1989 1.390 . S
C1994 C1993 1.387 . S
H1995 C2007 0.930 . S
H1996 C2009 0.930 . S
H1997 C2010 0.930 . S
H1998 C2014 0.959 . S
H1999 C2014 0.959 . S
H2000 C2014 0.961 . S
H2001 C2015 0.960 . S
H2002 C2015 0.961 . S
H2003 C2015 0.959 . S
H2004 C2018 0.929 . S
H2005 C2019 0.931 . S
H2006 C2021 0.930 . S
C2007 H1995 0.930 . S
C2007 C2008 1.399 . S
C2007 C2012 1.399 . S
C2008 C2007 1.399 . S
C2008 C2009 1.376 . S
C2009 H1996 0.930 . S
C2009 C2008 1.376 . S
C2009 C2010 1.388 . S
C2010 H1997 0.930 . S
C2010 C2009 1.388 . S
C2010 C2011 1.390 . S
C2011 C2010 1.390 . S
C2011 C2012 1.394 . S
C2011 C2017 1.465 . S
C2012 C2007 1.399 . S
C2012 C2011 1.394 . S
C2012 C2013 1.516 . S
C2013 C2012 1.516 . S
C2013 C2014 1.502 . S
C2013 C2015 1.561 . S
C2013 C2016 1.526 . S
C2014 H1998 0.959 . S
C2014 H1999 0.959 . S
C2014 H2000 0.961 . S
C2014 C2013 1.502 . S
C2015 H2001 0.960 . S
C2015 H2002 0.961 . S
C2015 H2003 0.959 . S
C2015 C2013 1.561 . S
C2016 C2013 1.526 . S
C2016 C2017 1.396 . S
C2016 C2021 1.390 . S
C2017 C2011 1.465 . S
C2017 C2016 1.396 . S
C2017 C2018 1.399 . S
C2018 H2004 0.929 . S
C2018 C2017 1.399 . S
C2018 C2019 1.385 . S
C2019 H2005 0.931 . S
C2019 C2018 1.385 . S
C2019 C2020 1.389 . S
C2020 C2019 1.389 . S
C2020 C2021 1.387 . S
C2021 H2006 0.930 . S
C2021 C2016 1.390 . S
C2021 C2020 1.387 . S
H2022 C2034 0.930 . S
H2023 C2036 0.930 . S
H2024 C2037 0.930 . S
H2025 C2041 0.959 . S
H2026 C2041 0.959 . S
H2027 C2041 0.961 . S
H2028 C2042 0.960 . S
H2029 C2042 0.961 . S
H2030 C2042 0.959 . S
H2031 C2045 0.929 . S
H2032 C2046 0.931 . S
H2033 C2048 0.930 . S
C2034 H2022 0.930 . S
C2034 C2035 1.399 . S
C2034 C2039 1.399 . S
C2035 C2034 1.399 . S
C2035 C2036 1.376 . S
C2036 H2023 0.930 . S
C2036 C2035 1.376 . S
C2036 C2037 1.388 . S
C2037 H2024 0.930 . S
C2037 C2036 1.388 . S
C2037 C2038 1.390 . S
C2038 C2037 1.390 . S
C2038 C2039 1.394 . S
C2038 C2044 1.465 . S
C2039 C2034 1.399 . S
C2039 C2038 1.394 . S
C2039 C2040 1.516 . S
C2040 C2039 1.516 . S
C2040 C2041 1.502 . S
C2040 C2042 1.561 . S
C2040 C2043 1.526 . S
C2041 H2025 0.959 . S
C2041 H2026 0.959 . S
C2041 H2027 0.961 . S
C2041 C2040 1.502 . S
C2042 H2028 0.960 . S
C2042 H2029 0.961 . S
C2042 H2030 0.959 . S
C2042 C2040 1.561 . S
C2043 C2040 1.526 . S
C2043 C2044 1.396 . S
C2043 C2048 1.390 . S
C2044 C2038 1.465 . S
C2044 C2043 1.396 . S
C2044 C2045 1.399 . S
C2045 H2031 0.929 . S
C2045 C2044 1.399 . S
C2045 C2046 1.385 . S
C2046 H2032 0.931 . S
C2046 C2045 1.385 . S
C2046 C2047 1.389 . S
C2047 C2046 1.389 . S
C2047 C2048 1.387 . S
C2048 H2033 0.930 . S
C2048 C2043 1.390 . S
C2048 C2047 1.387 . S
H2049 C2061 0.930 . S
H2050 C2063 0.930 . S
H2051 C2064 0.930 . S
H2052 C2068 0.959 . S
H2053 C2068 0.959 . S
H2054 C2068 0.961 . S
H2055 C2069 0.960 . S
H2056 C2069 0.961 . S
H2057 C2069 0.959 . S
H2058 C2072 0.929 . S
H2059 C2073 0.931 . S
H2060 C2075 0.930 . S
C2061 H2049 0.930 . S
C2061 C2062 1.399 . S
C2061 C2066 1.399 . S
C2062 C2061 1.399 . S
C2062 C2063 1.376 . S
C2063 H2050 0.930 . S
C2063 C2062 1.376 . S
C2063 C2064 1.388 . S
C2064 H2051 0.930 . S
C2064 C2063 1.388 . S
C2064 C2065 1.390 . S
C2065 C2064 1.390 . S
C2065 C2066 1.394 . S
C2065 C2071 1.465 . S
C2066 C2061 1.399 . S
C2066 C2065 1.394 . S
C2066 C2067 1.516 . S
C2067 C2066 1.516 . S
C2067 C2068 1.502 . S
C2067 C2069 1.561 . S
C2067 C2070 1.526 . S
C2068 H2052 0.959 . S
C2068 H2053 0.959 . S
C2068 H2054 0.961 . S
C2068 C2067 1.502 . S
C2069 H2055 0.960 . S
C2069 H2056 0.961 . S
C2069 H2057 0.959 . S
C2069 C2067 1.561 . S
C2070 C2067 1.526 . S
C2070 C2071 1.396 . S
C2070 C2075 1.390 . S
C2071 C2065 1.465 . S
C2071 C2070 1.396 . S
C2071 C2072 1.399 . S
C2072 H2058 0.929 . S
C2072 C2071 1.399 . S
C2072 C2073 1.385 . S
C2073 H2059 0.931 . S
C2073 C2072 1.385 . S
C2073 C2074 1.389 . S
C2074 C2073 1.389 . S
C2074 C2075 1.387 . S
C2075 H2060 0.930 . S
C2075 C2070 1.390 . S
C2075 C2074 1.387 . S
H2076 C2088 0.930 . S
H2077 C2090 0.930 . S
H2078 C2091 0.930 . S
H2079 C2095 0.959 . S
H2080 C2095 0.959 . S
H2081 C2095 0.961 . S
H2082 C2096 0.960 . S
H2083 C2096 0.961 . S
H2084 C2096 0.959 . S
H2085 C2099 0.929 . S
H2086 C2100 0.931 . S
H2087 C2102 0.930 . S
C2088 H2076 0.930 . S
C2088 C2089 1.399 . S
C2088 C2093 1.399 . S
C2089 C2088 1.399 . S
C2089 C2090 1.376 . S
C2090 H2077 0.930 . S
C2090 C2089 1.376 . S
C2090 C2091 1.388 . S
C2091 H2078 0.930 . S
C2091 C2090 1.388 . S
C2091 C2092 1.390 . S
C2092 C2091 1.390 . S
C2092 C2093 1.394 . S
C2092 C2098 1.465 . S
C2093 C2088 1.399 . S
C2093 C2092 1.394 . S
C2093 C2094 1.516 . S
C2094 C2093 1.516 . S
C2094 C2095 1.502 . S
C2094 C2096 1.561 . S
C2094 C2097 1.526 . S
C2095 H2079 0.959 . S
C2095 H2080 0.959 . S
C2095 H2081 0.961 . S
C2095 C2094 1.502 . S
C2096 H2082 0.960 . S
C2096 H2083 0.961 . S
C2096 H2084 0.959 . S
C2096 C2094 1.561 . S
C2097 C2094 1.526 . S
C2097 C2098 1.396 . S
C2097 C2102 1.390 . S
C2098 C2092 1.465 . S
C2098 C2097 1.396 . S
C2098 C2099 1.399 . S
C2099 H2085 0.929 . S
C2099 C2098 1.399 . S
C2099 C2100 1.385 . S
C2100 H2086 0.931 . S
C2100 C2099 1.385 . S
C2100 C2101 1.389 . S
C2101 C2100 1.389 . S
C2101 C2102 1.387 . S
C2102 H2087 0.930 . S
C2102 C2097 1.390 . S
C2102 C2101 1.387 . S
H2103 C2115 0.930 . S
H2104 C2117 0.930 . S
H2105 C2118 0.930 . S
H2106 C2122 0.959 . S
H2107 C2122 0.959 . S
H2108 C2122 0.961 . S
H2109 C2123 0.960 . S
H2110 C2123 0.961 . S
H2111 C2123 0.959 . S
H2112 C2126 0.929 . S
H2113 C2127 0.931 . S
H2114 C2129 0.930 . S
C2115 H2103 0.930 . S
C2115 C2116 1.399 . S
C2115 C2120 1.399 . S
C2116 C2115 1.399 . S
C2116 C2117 1.376 . S
C2117 H2104 0.930 . S
C2117 C2116 1.376 . S
C2117 C2118 1.388 . S
C2118 H2105 0.930 . S
C2118 C2117 1.388 . S
C2118 C2119 1.390 . S
C2119 C2118 1.390 . S
C2119 C2120 1.394 . S
C2119 C2125 1.465 . S
C2120 C2115 1.399 . S
C2120 C2119 1.394 . S
C2120 C2121 1.516 . S
C2121 C2120 1.516 . S
C2121 C2122 1.502 . S
C2121 C2123 1.561 . S
C2121 C2124 1.526 . S
C2122 H2106 0.959 . S
C2122 H2107 0.959 . S
C2122 H2108 0.961 . S
C2122 C2121 1.502 . S
C2123 H2109 0.960 . S
C2123 H2110 0.961 . S
C2123 H2111 0.959 . S
C2123 C2121 1.561 . S
C2124 C2121 1.526 . S
C2124 C2125 1.396 . S
C2124 C2129 1.390 . S
C2125 C2119 1.465 . S
C2125 C2124 1.396 . S
C2125 C2126 1.399 . S
C2126 H2112 0.929 . S
C2126 C2125 1.399 . S
C2126 C2127 1.385 . S
C2127 H2113 0.931 . S
C2127 C2126 1.385 . S
C2127 C2128 1.389 . S
C2128 C2127 1.389 . S
C2128 C2129 1.387 . S
C2129 H2114 0.930 . S
C2129 C2124 1.390 . S
C2129 C2128 1.387 . S
H2130 C2142 0.930 . S
H2131 C2144 0.930 . S
H2132 C2145 0.930 . S
H2133 C2149 0.959 . S
H2134 C2149 0.959 . S
H2135 C2149 0.961 . S
H2136 C2150 0.960 . S
H2137 C2150 0.961 . S
H2138 C2150 0.959 . S
H2139 C2153 0.929 . S
H2140 C2154 0.931 . S
H2141 C2156 0.930 . S
C2142 H2130 0.930 . S
C2142 C2143 1.399 . S
C2142 C2147 1.399 . S
C2143 C2142 1.399 . S
C2143 C2144 1.376 . S
C2144 H2131 0.930 . S
C2144 C2143 1.376 . S
C2144 C2145 1.388 . S
C2145 H2132 0.930 . S
C2145 C2144 1.388 . S
C2145 C2146 1.390 . S
C2146 C2145 1.390 . S
C2146 C2147 1.394 . S
C2146 C2152 1.465 . S
C2147 C2142 1.399 . S
C2147 C2146 1.394 . S
C2147 C2148 1.516 . S
C2148 C2147 1.516 . S
C2148 C2149 1.502 . S
C2148 C2150 1.561 . S
C2148 C2151 1.526 . S
C2149 H2133 0.959 . S
C2149 H2134 0.959 . S
C2149 H2135 0.961 . S
C2149 C2148 1.502 . S
C2150 H2136 0.960 . S
C2150 H2137 0.961 . S
C2150 H2138 0.959 . S
C2150 C2148 1.561 . S
C2151 C2148 1.526 . S
C2151 C2152 1.396 . S
C2151 C2156 1.390 . S
C2152 C2146 1.465 . S
C2152 C2151 1.396 . S
C2152 C2153 1.399 . S
C2153 H2139 0.929 . S
C2153 C2152 1.399 . S
C2153 C2154 1.385 . S
C2154 H2140 0.931 . S
C2154 C2153 1.385 . S
C2154 C2155 1.389 . S
C2155 C2154 1.389 . S
C2155 C2156 1.387 . S
C2156 H2141 0.930 . S
C2156 C2151 1.390 . S
C2156 C2155 1.387 . S
H2157 C2169 0.930 . S
H2158 C2171 0.930 . S
H2159 C2172 0.930 . S
H2160 C2176 0.959 . S
H2161 C2176 0.959 . S
H2162 C2176 0.961 . S
H2163 C2177 0.960 . S
H2164 C2177 0.961 . S
H2165 C2177 0.959 . S
H2166 C2180 0.929 . S
H2167 C2181 0.931 . S
H2168 C2183 0.930 . S
C2169 H2157 0.930 . S
C2169 C2170 1.399 . S
C2169 C2174 1.399 . S
C2170 C2169 1.399 . S
C2170 C2171 1.376 . S
C2171 H2158 0.930 . S
C2171 C2170 1.376 . S
C2171 C2172 1.388 . S
C2172 H2159 0.930 . S
C2172 C2171 1.388 . S
C2172 C2173 1.390 . S
C2173 C2172 1.390 . S
C2173 C2174 1.394 . S
C2173 C2179 1.465 . S
C2174 C2169 1.399 . S
C2174 C2173 1.394 . S
C2174 C2175 1.516 . S
C2175 C2174 1.516 . S
C2175 C2176 1.502 . S
C2175 C2177 1.561 . S
C2175 C2178 1.526 . S
C2176 H2160 0.959 . S
C2176 H2161 0.959 . S
C2176 H2162 0.961 . S
C2176 C2175 1.502 . S
C2177 H2163 0.960 . S
C2177 H2164 0.961 . S
C2177 H2165 0.959 . S
C2177 C2175 1.561 . S
C2178 C2175 1.526 . S
C2178 C2179 1.396 . S
C2178 C2183 1.390 . S
C2179 C2173 1.465 . S
C2179 C2178 1.396 . S
C2179 C2180 1.399 . S
C2180 H2166 0.929 . S
C2180 C2179 1.399 . S
C2180 C2181 1.385 . S
C2181 H2167 0.931 . S
C2181 C2180 1.385 . S
C2181 C2182 1.389 . S
C2182 C2181 1.389 . S
C2182 C2183 1.387 . S
C2183 H2168 0.930 . S
C2183 C2178 1.390 . S
C2183 C2182 1.387 . S
H2184 C2196 0.930 . S
H2185 C2198 0.930 . S
H2186 C2199 0.930 . S
H2187 C2203 0.959 . S
H2188 C2203 0.959 . S
H2189 C2203 0.961 . S
H2190 C2204 0.960 . S
H2191 C2204 0.961 . S
H2192 C2204 0.959 . S
H2193 C2207 0.929 . S
H2194 C2208 0.931 . S
H2195 C2210 0.930 . S
C2196 H2184 0.930 . S
C2196 C2197 1.399 . S
C2196 C2201 1.399 . S
C2197 C2196 1.399 . S
C2197 C2198 1.376 . S
C2198 H2185 0.930 . S
C2198 C2197 1.376 . S
C2198 C2199 1.388 . S
C2199 H2186 0.930 . S
C2199 C2198 1.388 . S
C2199 C2200 1.390 . S
C2200 C2199 1.390 . S
C2200 C2201 1.394 . S
C2200 C2206 1.465 . S
C2201 C2196 1.399 . S
C2201 C2200 1.394 . S
C2201 C2202 1.516 . S
C2202 C2201 1.516 . S
C2202 C2203 1.502 . S
C2202 C2204 1.561 . S
C2202 C2205 1.526 . S
C2203 H2187 0.959 . S
C2203 H2188 0.959 . S
C2203 H2189 0.961 . S
C2203 C2202 1.502 . S
C2204 H2190 0.960 . S
C2204 H2191 0.961 . S
C2204 H2192 0.959 . S
C2204 C2202 1.561 . S
C2205 C2202 1.526 . S
C2205 C2206 1.396 . S
C2205 C2210 1.390 . S
C2206 C2200 1.465 . S
C2206 C2205 1.396 . S
C2206 C2207 1.399 . S
C2207 H2193 0.929 . S
C2207 C2206 1.399 . S
C2207 C2208 1.385 . S
C2208 H2194 0.931 . S
C2208 C2207 1.385 . S
C2208 C2209 1.389 . S
C2209 C2208 1.389 . S
C2209 C2210 1.387 . S
C2210 H2195 0.930 . S
C2210 C2205 1.390 . S
C2210 C2209 1.387 . S
H2211 C2223 0.930 . S
H2212 C2225 0.930 . S
H2213 C2226 0.930 . S
H2214 C2230 0.959 . S
H2215 C2230 0.959 . S
H2216 C2230 0.961 . S
H2217 C2231 0.960 . S
H2218 C2231 0.961 . S
H2219 C2231 0.959 . S
H2220 C2234 0.929 . S
H2221 C2235 0.931 . S
H2222 C2237 0.930 . S
C2223 H2211 0.930 . S
C2223 C2224 1.399 . S
C2223 C2228 1.399 . S
C2224 C2223 1.399 . S
C2224 C2225 1.376 . S
C2225 H2212 0.930 . S
C2225 C2224 1.376 . S
C2225 C2226 1.388 . S
C2226 H2213 0.930 . S
C2226 C2225 1.388 . S
C2226 C2227 1.390 . S
C2227 C2226 1.390 . S
C2227 C2228 1.394 . S
C2227 C2233 1.465 . S
C2228 C2223 1.399 . S
C2228 C2227 1.394 . S
C2228 C2229 1.516 . S
C2229 C2228 1.516 . S
C2229 C2230 1.502 . S
C2229 C2231 1.561 . S
C2229 C2232 1.526 . S
C2230 H2214 0.959 . S
C2230 H2215 0.959 . S
C2230 H2216 0.961 . S
C2230 C2229 1.502 . S
C2231 H2217 0.960 . S
C2231 H2218 0.961 . S
C2231 H2219 0.959 . S
C2231 C2229 1.561 . S
C2232 C2229 1.526 . S
C2232 C2233 1.396 . S
C2232 C2237 1.390 . S
C2233 C2227 1.465 . S
C2233 C2232 1.396 . S
C2233 C2234 1.399 . S
C2234 H2220 0.929 . S
C2234 C2233 1.399 . S
C2234 C2235 1.385 . S
C2235 H2221 0.931 . S
C2235 C2234 1.385 . S
C2235 C2236 1.389 . S
C2236 C2235 1.389 . S
C2236 C2237 1.387 . S
C2237 H2222 0.930 . S
C2237 C2232 1.390 . S
C2237 C2236 1.387 . S
H2238 C2250 0.930 . S
H2239 C2252 0.930 . S
H2240 C2253 0.930 . S
H2241 C2257 0.959 . S
H2242 C2257 0.959 . S
H2243 C2257 0.961 . S
H2244 C2258 0.960 . S
H2245 C2258 0.961 . S
H2246 C2258 0.959 . S
H2247 C2261 0.929 . S
H2248 C2262 0.931 . S
H2249 C2264 0.930 . S
C2250 H2238 0.930 . S
C2250 C2251 1.399 . S
C2250 C2255 1.399 . S
C2251 C2250 1.399 . S
C2251 C2252 1.376 . S
C2252 H2239 0.930 . S
C2252 C2251 1.376 . S
C2252 C2253 1.388 . S
C2253 H2240 0.930 . S
C2253 C2252 1.388 . S
C2253 C2254 1.390 . S
C2254 C2253 1.390 . S
C2254 C2255 1.394 . S
C2254 C2260 1.465 . S
C2255 C2250 1.399 . S
C2255 C2254 1.394 . S
C2255 C2256 1.516 . S
C2256 C2255 1.516 . S
C2256 C2257 1.502 . S
C2256 C2258 1.561 . S
C2256 C2259 1.526 . S
C2257 H2241 0.959 . S
C2257 H2242 0.959 . S
C2257 H2243 0.961 . S
C2257 C2256 1.502 . S
C2258 H2244 0.960 . S
C2258 H2245 0.961 . S
C2258 H2246 0.959 . S
C2258 C2256 1.561 . S
C2259 C2256 1.526 . S
C2259 C2260 1.396 . S
C2259 C2264 1.390 . S
C2260 C2254 1.465 . S
C2260 C2259 1.396 . S
C2260 C2261 1.399 . S
C2261 H2247 0.929 . S
C2261 C2260 1.399 . S
C2261 C2262 1.385 . S
C2262 H2248 0.931 . S
C2262 C2261 1.385 . S
C2262 C2263 1.389 . S
C2263 C2262 1.389 . S
C2263 C2264 1.387 . S
C2264 H2249 0.930 . S
C2264 C2259 1.390 . S
C2264 C2263 1.387 . S
H2265 C2277 0.930 . S
H2266 C2279 0.930 . S
H2267 C2280 0.930 . S
H2268 C2284 0.959 . S
H2269 C2284 0.959 . S
H2270 C2284 0.961 . S
H2271 C2285 0.960 . S
H2272 C2285 0.961 . S
H2273 C2285 0.959 . S
H2274 C2288 0.929 . S
H2275 C2289 0.931 . S
H2276 C2291 0.930 . S
C2277 H2265 0.930 . S
C2277 C2278 1.399 . S
C2277 C2282 1.399 . S
C2278 C2277 1.399 . S
C2278 C2279 1.376 . S
C2279 H2266 0.930 . S
C2279 C2278 1.376 . S
C2279 C2280 1.388 . S
C2280 H2267 0.930 . S
C2280 C2279 1.388 . S
C2280 C2281 1.390 . S
C2281 C2280 1.390 . S
C2281 C2282 1.394 . S
C2281 C2287 1.465 . S
C2282 C2277 1.399 . S
C2282 C2281 1.394 . S
C2282 C2283 1.516 . S
C2283 C2282 1.516 . S
C2283 C2284 1.502 . S
C2283 C2285 1.561 . S
C2283 C2286 1.526 . S
C2284 H2268 0.959 . S
C2284 H2269 0.959 . S
C2284 H2270 0.961 . S
C2284 C2283 1.502 . S
C2285 H2271 0.960 . S
C2285 H2272 0.961 . S
C2285 H2273 0.959 . S
C2285 C2283 1.561 . S
C2286 C2283 1.526 . S
C2286 C2287 1.396 . S
C2286 C2291 1.390 . S
C2287 C2281 1.465 . S
C2287 C2286 1.396 . S
C2287 C2288 1.399 . S
C2288 H2274 0.929 . S
C2288 C2287 1.399 . S
C2288 C2289 1.385 . S
C2289 H2275 0.931 . S
C2289 C2288 1.385 . S
C2289 C2290 1.389 . S
C2290 C2289 1.389 . S
C2290 C2291 1.387 . S
C2291 H2276 0.930 . S
C2291 C2286 1.390 . S
C2291 C2290 1.387 . S
H2292 C2304 0.930 . S
H2293 C2306 0.930 . S
H2294 C2307 0.930 . S
H2295 C2311 0.959 . S
H2296 C2311 0.959 . S
H2297 C2311 0.961 . S
H2298 C2312 0.960 . S
H2299 C2312 0.961 . S
H2300 C2312 0.959 . S
H2301 C2315 0.929 . S
H2302 C2316 0.931 . S
H2303 C2318 0.930 . S
C2304 H2292 0.930 . S
C2304 C2305 1.399 . S
C2304 C2309 1.399 . S
C2305 C2304 1.399 . S
C2305 C2306 1.376 . S
C2306 H2293 0.930 . S
C2306 C2305 1.376 . S
C2306 C2307 1.388 . S
C2307 H2294 0.930 . S
C2307 C2306 1.388 . S
C2307 C2308 1.390 . S
C2308 C2307 1.390 . S
C2308 C2309 1.394 . S
C2308 C2314 1.465 . S
C2309 C2304 1.399 . S
C2309 C2308 1.394 . S
C2309 C2310 1.516 . S
C2310 C2309 1.516 . S
C2310 C2311 1.502 . S
C2310 C2312 1.561 . S
C2310 C2313 1.526 . S
C2311 H2295 0.959 . S
C2311 H2296 0.959 . S
C2311 H2297 0.961 . S
C2311 C2310 1.502 . S
C2312 H2298 0.960 . S
C2312 H2299 0.961 . S
C2312 H2300 0.959 . S
C2312 C2310 1.561 . S
C2313 C2310 1.526 . S
C2313 C2314 1.396 . S
C2313 C2318 1.390 . S
C2314 C2308 1.465 . S
C2314 C2313 1.396 . S
C2314 C2315 1.399 . S
C2315 H2301 0.929 . S
C2315 C2314 1.399 . S
C2315 C2316 1.385 . S
C2316 H2302 0.931 . S
C2316 C2315 1.385 . S
C2316 C2317 1.389 . S
C2317 C2316 1.389 . S
C2317 C2318 1.387 . S
C2318 H2303 0.930 . S
C2318 C2313 1.390 . S
C2318 C2317 1.387 . S
H2319 C2331 0.930 . S
H2320 C2333 0.930 . S
H2321 C2334 0.930 . S
H2322 C2338 0.959 . S
H2323 C2338 0.959 . S
H2324 C2338 0.961 . S
H2325 C2339 0.960 . S
H2326 C2339 0.961 . S
H2327 C2339 0.959 . S
H2328 C2342 0.929 . S
H2329 C2343 0.931 . S
H2330 C2345 0.930 . S
C2331 H2319 0.930 . S
C2331 C2332 1.399 . S
C2331 C2336 1.399 . S
C2332 C2331 1.399 . S
C2332 C2333 1.376 . S
C2333 H2320 0.930 . S
C2333 C2332 1.376 . S
C2333 C2334 1.388 . S
C2334 H2321 0.930 . S
C2334 C2333 1.388 . S
C2334 C2335 1.390 . S
C2335 C2334 1.390 . S
C2335 C2336 1.394 . S
C2335 C2341 1.465 . S
C2336 C2331 1.399 . S
C2336 C2335 1.394 . S
C2336 C2337 1.516 . S
C2337 C2336 1.516 . S
C2337 C2338 1.502 . S
C2337 C2339 1.561 . S
C2337 C2340 1.526 . S
C2338 H2322 0.959 . S
C2338 H2323 0.959 . S
C2338 H2324 0.961 . S
C2338 C2337 1.502 . S
C2339 H2325 0.960 . S
C2339 H2326 0.961 . S
C2339 H2327 0.959 . S
C2339 C2337 1.561 . S
C2340 C2337 1.526 . S
C2340 C2341 1.396 . S
C2340 C2345 1.390 . S
C2341 C2335 1.465 . S
C2341 C2340 1.396 . S
C2341 C2342 1.399 . S
C2342 H2328 0.929 . S
C2342 C2341 1.399 . S
C2342 C2343 1.385 . S
C2343 H2329 0.931 . S
C2343 C2342 1.385 . S
C2343 C2344 1.389 . S
C2344 C2343 1.389 . S
C2344 C2345 1.387 . S
C2345 H2330 0.930 . S
C2345 C2340 1.390 . S
C2345 C2344 1.387 . S
H2346 C2358 0.930 . S
H2347 C2360 0.930 . S
H2348 C2361 0.930 . S
H2349 C2365 0.959 . S
H2350 C2365 0.959 . S
H2351 C2365 0.961 . S
H2352 C2366 0.960 . S
H2353 C2366 0.961 . S
H2354 C2366 0.959 . S
H2355 C2369 0.929 . S
H2356 C2370 0.931 . S
H2357 C2372 0.930 . S
C2358 H2346 0.930 . S
C2358 C2359 1.399 . S
C2358 C2363 1.399 . S
C2359 C2358 1.399 . S
C2359 C2360 1.376 . S
C2360 H2347 0.930 . S
C2360 C2359 1.376 . S
C2360 C2361 1.388 . S
C2361 H2348 0.930 . S
C2361 C2360 1.388 . S
C2361 C2362 1.390 . S
C2362 C2361 1.390 . S
C2362 C2363 1.394 . S
C2362 C2368 1.465 . S
C2363 C2358 1.399 . S
C2363 C2362 1.394 . S
C2363 C2364 1.516 . S
C2364 C2363 1.516 . S
C2364 C2365 1.502 . S
C2364 C2366 1.561 . S
C2364 C2367 1.526 . S
C2365 H2349 0.959 . S
C2365 H2350 0.959 . S
C2365 H2351 0.961 . S
C2365 C2364 1.502 . S
C2366 H2352 0.960 . S
C2366 H2353 0.961 . S
C2366 H2354 0.959 . S
C2366 C2364 1.561 . S
C2367 C2364 1.526 . S
C2367 C2368 1.396 . S
C2367 C2372 1.390 . S
C2368 C2362 1.465 . S
C2368 C2367 1.396 . S
C2368 C2369 1.399 . S
C2369 H2355 0.929 . S
C2369 C2368 1.399 . S
C2369 C2370 1.385 . S
C2370 H2356 0.931 . S
C2370 C2369 1.385 . S
C2370 C2371 1.389 . S
C2371 C2370 1.389 . S
C2371 C2372 1.387 . S
C2372 H2357 0.930 . S
C2372 C2367 1.390 . S
C2372 C2371 1.387 . S
H2373 C2385 0.930 . S
H2374 C2387 0.930 . S
H2375 C2388 0.930 . S
H2376 C2392 0.959 . S
H2377 C2392 0.959 . S
H2378 C2392 0.961 . S
H2379 C2393 0.960 . S
H2380 C2393 0.961 . S
H2381 C2393 0.959 . S
H2382 C2396 0.929 . S
H2383 C2397 0.931 . S
H2384 C2399 0.930 . S
C2385 H2373 0.930 . S
C2385 C2386 1.399 . S
C2385 C2390 1.399 . S
C2386 C2385 1.399 . S
C2386 C2387 1.376 . S
C2387 H2374 0.930 . S
C2387 C2386 1.376 . S
C2387 C2388 1.388 . S
C2388 H2375 0.930 . S
C2388 C2387 1.388 . S
C2388 C2389 1.390 . S
C2389 C2388 1.390 . S
C2389 C2390 1.394 . S
C2389 C2395 1.465 . S
C2390 C2385 1.399 . S
C2390 C2389 1.394 . S
C2390 C2391 1.516 . S
C2391 C2390 1.516 . S
C2391 C2392 1.502 . S
C2391 C2393 1.561 . S
C2391 C2394 1.526 . S
C2392 H2376 0.959 . S
C2392 H2377 0.959 . S
C2392 H2378 0.961 . S
C2392 C2391 1.502 . S
C2393 H2379 0.960 . S
C2393 H2380 0.961 . S
C2393 H2381 0.959 . S
C2393 C2391 1.561 . S
C2394 C2391 1.526 . S
C2394 C2395 1.396 . S
C2394 C2399 1.390 . S
C2395 C2389 1.465 . S
C2395 C2394 1.396 . S
C2395 C2396 1.399 . S
C2396 H2382 0.929 . S
C2396 C2395 1.399 . S
C2396 C2397 1.385 . S
C2397 H2383 0.931 . S
C2397 C2396 1.385 . S
C2397 C2398 1.389 . S
C2398 C2397 1.389 . S
C2398 C2399 1.387 . S
C2399 H2384 0.930 . S
C2399 C2394 1.390 . S
C2399 C2398 1.387 . S
H2400 C2412 0.930 . S
H2401 C2414 0.930 . S
H2402 C2415 0.930 . S
H2403 C2419 0.959 . S
H2404 C2419 0.959 . S
H2405 C2419 0.961 . S
H2406 C2420 0.960 . S
H2407 C2420 0.961 . S
H2408 C2420 0.959 . S
H2409 C2423 0.929 . S
H2410 C2424 0.931 . S
H2411 C2426 0.930 . S
C2412 H2400 0.930 . S
C2412 C2413 1.399 . S
C2412 C2417 1.399 . S
C2413 C2412 1.399 . S
C2413 C2414 1.376 . S
C2414 H2401 0.930 . S
C2414 C2413 1.376 . S
C2414 C2415 1.388 . S
C2415 H2402 0.930 . S
C2415 C2414 1.388 . S
C2415 C2416 1.390 . S
C2416 C2415 1.390 . S
C2416 C2417 1.394 . S
C2416 C2422 1.465 . S
C2417 C2412 1.399 . S
C2417 C2416 1.394 . S
C2417 C2418 1.516 . S
C2418 C2417 1.516 . S
C2418 C2419 1.502 . S
C2418 C2420 1.561 . S
C2418 C2421 1.526 . S
C2419 H2403 0.959 . S
C2419 H2404 0.959 . S
C2419 H2405 0.961 . S
C2419 C2418 1.502 . S
C2420 H2406 0.960 . S
C2420 H2407 0.961 . S
C2420 H2408 0.959 . S
C2420 C2418 1.561 . S
C2421 C2418 1.526 . S
C2421 C2422 1.396 . S
C2421 C2426 1.390 . S
C2422 C2416 1.465 . S
C2422 C2421 1.396 . S
C2422 C2423 1.399 . S
C2423 H2409 0.929 . S
C2423 C2422 1.399 . S
C2423 C2424 1.385 . S
C2424 H2410 0.931 . S
C2424 C2423 1.385 . S
C2424 C2425 1.389 . S
C2425 C2424 1.389 . S
C2425 C2426 1.387 . S
C2426 H2411 0.930 . S
C2426 C2421 1.390 . S
C2426 C2425 1.387 . S
H2427 C2439 0.930 . S
H2428 C2441 0.930 . S
H2429 C2442 0.930 . S
H2430 C2446 0.959 . S
H2431 C2446 0.959 . S
H2432 C2446 0.961 . S
H2433 C2447 0.960 . S
H2434 C2447 0.961 . S
H2435 C2447 0.959 . S
H2436 C2450 0.929 . S
H2437 C2451 0.931 . S
H2438 C2453 0.930 . S
C2439 H2427 0.930 . S
C2439 C2440 1.399 . S
C2439 C2444 1.399 . S
C2440 C2439 1.399 . S
C2440 C2441 1.376 . S
C2441 H2428 0.930 . S
C2441 C2440 1.376 . S
C2441 C2442 1.388 . S
C2442 H2429 0.930 . S
C2442 C2441 1.388 . S
C2442 C2443 1.390 . S
C2443 C2442 1.390 . S
C2443 C2444 1.394 . S
C2443 C2449 1.465 . S
C2444 C2439 1.399 . S
C2444 C2443 1.394 . S
C2444 C2445 1.516 . S
C2445 C2444 1.516 . S
C2445 C2446 1.502 . S
C2445 C2447 1.561 . S
C2445 C2448 1.526 . S
C2446 H2430 0.959 . S
C2446 H2431 0.959 . S
C2446 H2432 0.961 . S
C2446 C2445 1.502 . S
C2447 H2433 0.960 . S
C2447 H2434 0.961 . S
C2447 H2435 0.959 . S
C2447 C2445 1.561 . S
C2448 C2445 1.526 . S
C2448 C2449 1.396 . S
C2448 C2453 1.390 . S
C2449 C2443 1.465 . S
C2449 C2448 1.396 . S
C2449 C2450 1.399 . S
C2450 H2436 0.929 . S
C2450 C2449 1.399 . S
C2450 C2451 1.385 . S
C2451 H2437 0.931 . S
C2451 C2450 1.385 . S
C2451 C2452 1.389 . S
C2452 C2451 1.389 . S
C2452 C2453 1.387 . S
C2453 H2438 0.930 . S
C2453 C2448 1.390 . S
C2453 C2452 1.387 . S
H2454 C2466 0.930 . S
H2455 C2468 0.930 . S
H2456 C2469 0.930 . S
H2457 C2473 0.959 . S
H2458 C2473 0.959 . S
H2459 C2473 0.961 . S
H2460 C2474 0.960 . S
H2461 C2474 0.961 . S
H2462 C2474 0.959 . S
H2463 C2477 0.929 . S
H2464 C2478 0.931 . S
H2465 C2480 0.930 . S
C2466 H2454 0.930 . S
C2466 C2467 1.399 . S
C2466 C2471 1.399 . S
C2467 C2466 1.399 . S
C2467 C2468 1.376 . S
C2468 H2455 0.930 . S
C2468 C2467 1.376 . S
C2468 C2469 1.388 . S
C2469 H2456 0.930 . S
C2469 C2468 1.388 . S
C2469 C2470 1.390 . S
C2470 C2469 1.390 . S
C2470 C2471 1.394 . S
C2470 C2476 1.465 . S
C2471 C2466 1.399 . S
C2471 C2470 1.394 . S
C2471 C2472 1.516 . S
C2472 C2471 1.516 . S
C2472 C2473 1.502 . S
C2472 C2474 1.561 . S
C2472 C2475 1.526 . S
C2473 H2457 0.959 . S
C2473 H2458 0.959 . S
C2473 H2459 0.961 . S
C2473 C2472 1.502 . S
C2474 H2460 0.960 . S
C2474 H2461 0.961 . S
C2474 H2462 0.959 . S
C2474 C2472 1.561 . S
C2475 C2472 1.526 . S
C2475 C2476 1.396 . S
C2475 C2480 1.390 . S
C2476 C2470 1.465 . S
C2476 C2475 1.396 . S
C2476 C2477 1.399 . S
C2477 H2463 0.929 . S
C2477 C2476 1.399 . S
C2477 C2478 1.385 . S
C2478 H2464 0.931 . S
C2478 C2477 1.385 . S
C2478 C2479 1.389 . S
C2479 C2478 1.389 . S
C2479 C2480 1.387 . S
C2480 H2465 0.930 . S
C2480 C2475 1.390 . S
C2480 C2479 1.387 . S
H2481 C2493 0.930 . S
H2482 C2495 0.930 . S
H2483 C2496 0.930 . S
H2484 C2500 0.959 . S
H2485 C2500 0.959 . S
H2486 C2500 0.961 . S
H2487 C2501 0.960 . S
H2488 C2501 0.961 . S
H2489 C2501 0.959 . S
H2490 C2504 0.929 . S
H2491 C2505 0.931 . S
H2492 C2507 0.930 . S
C2493 H2481 0.930 . S
C2493 C2494 1.399 . S
C2493 C2498 1.399 . S
C2494 C2493 1.399 . S
C2494 C2495 1.376 . S
C2495 H2482 0.930 . S
C2495 C2494 1.376 . S
C2495 C2496 1.388 . S
C2496 H2483 0.930 . S
C2496 C2495 1.388 . S
C2496 C2497 1.390 . S
C2497 C2496 1.390 . S
C2497 C2498 1.394 . S
C2497 C2503 1.465 . S
C2498 C2493 1.399 . S
C2498 C2497 1.394 . S
C2498 C2499 1.516 . S
C2499 C2498 1.516 . S
C2499 C2500 1.502 . S
C2499 C2501 1.561 . S
C2499 C2502 1.526 . S
C2500 H2484 0.959 . S
C2500 H2485 0.959 . S
C2500 H2486 0.961 . S
C2500 C2499 1.502 . S
C2501 H2487 0.960 . S
C2501 H2488 0.961 . S
C2501 H2489 0.959 . S
C2501 C2499 1.561 . S
C2502 C2499 1.526 . S
C2502 C2503 1.396 . S
C2502 C2507 1.390 . S
C2503 C2497 1.465 . S
C2503 C2502 1.396 . S
C2503 C2504 1.399 . S
C2504 H2490 0.929 . S
C2504 C2503 1.399 . S
C2504 C2505 1.385 . S
C2505 H2491 0.931 . S
C2505 C2504 1.385 . S
C2505 C2506 1.389 . S
C2506 C2505 1.389 . S
C2506 C2507 1.387 . S
C2507 H2492 0.930 . S
C2507 C2502 1.390 . S
C2507 C2506 1.387 . S
H2508 C2520 0.930 . S
H2509 C2522 0.930 . S
H2510 C2523 0.930 . S
H2511 C2527 0.959 . S
H2512 C2527 0.959 . S
H2513 C2527 0.961 . S
H2514 C2528 0.960 . S
H2515 C2528 0.961 . S
H2516 C2528 0.959 . S
H2517 C2531 0.929 . S
H2518 C2532 0.931 . S
H2519 C2534 0.930 . S
C2520 H2508 0.930 . S
C2520 C2521 1.399 . S
C2520 C2525 1.399 . S
C2521 C2520 1.399 . S
C2521 C2522 1.376 . S
C2522 H2509 0.930 . S
C2522 C2521 1.376 . S
C2522 C2523 1.388 . S
C2523 H2510 0.930 . S
C2523 C2522 1.388 . S
C2523 C2524 1.390 . S
C2524 C2523 1.390 . S
C2524 C2525 1.394 . S
C2524 C2530 1.465 . S
C2525 C2520 1.399 . S
C2525 C2524 1.394 . S
C2525 C2526 1.516 . S
C2526 C2525 1.516 . S
C2526 C2527 1.502 . S
C2526 C2528 1.561 . S
C2526 C2529 1.526 . S
C2527 H2511 0.959 . S
C2527 H2512 0.959 . S
C2527 H2513 0.961 . S
C2527 C2526 1.502 . S
C2528 H2514 0.960 . S
C2528 H2515 0.961 . S
C2528 H2516 0.959 . S
C2528 C2526 1.561 . S
C2529 C2526 1.526 . S
C2529 C2530 1.396 . S
C2529 C2534 1.390 . S
C2530 C2524 1.465 . S
C2530 C2529 1.396 . S
C2530 C2531 1.399 . S
C2531 H2517 0.929 . S
C2531 C2530 1.399 . S
C2531 C2532 1.385 . S
C2532 H2518 0.931 . S
C2532 C2531 1.385 . S
C2532 C2533 1.389 . S
C2533 C2532 1.389 . S
C2533 C2534 1.387 . S
C2534 H2519 0.930 . S
C2534 C2529 1.390 . S
C2534 C2533 1.387 . S
H2535 C2547 0.930 . S
H2536 C2549 0.930 . S
H2537 C2550 0.930 . S
H2538 C2554 0.959 . S
H2539 C2554 0.959 . S
H2540 C2554 0.961 . S
H2541 C2555 0.960 . S
H2542 C2555 0.961 . S
H2543 C2555 0.959 . S
H2544 C2558 0.929 . S
H2545 C2559 0.931 . S
H2546 C2561 0.930 . S
C2547 H2535 0.930 . S
C2547 C2548 1.399 . S
C2547 C2552 1.399 . S
C2548 C2547 1.399 . S
C2548 C2549 1.376 . S
C2549 H2536 0.930 . S
C2549 C2548 1.376 . S
C2549 C2550 1.388 . S
C2550 H2537 0.930 . S
C2550 C2549 1.388 . S
C2550 C2551 1.390 . S
C2551 C2550 1.390 . S
C2551 C2552 1.394 . S
C2551 C2557 1.465 . S
C2552 C2547 1.399 . S
C2552 C2551 1.394 . S
C2552 C2553 1.516 . S
C2553 C2552 1.516 . S
C2553 C2554 1.502 . S
C2553 C2555 1.561 . S
C2553 C2556 1.526 . S
C2554 H2538 0.959 . S
C2554 H2539 0.959 . S
C2554 H2540 0.961 . S
C2554 C2553 1.502 . S
C2555 H2541 0.960 . S
C2555 H2542 0.961 . S
C2555 H2543 0.959 . S
C2555 C2553 1.561 . S
C2556 C2553 1.526 . S
C2556 C2557 1.396 . S
C2556 C2561 1.390 . S
C2557 C2551 1.465 . S
C2557 C2556 1.396 . S
C2557 C2558 1.399 . S
C2558 H2544 0.929 . S
C2558 C2557 1.399 . S
C2558 C2559 1.385 . S
C2559 H2545 0.931 . S
C2559 C2558 1.385 . S
C2559 C2560 1.389 . S
C2560 C2559 1.389 . S
C2560 C2561 1.387 . S
C2561 H2546 0.930 . S
C2561 C2556 1.390 . S
C2561 C2560 1.387 . S
H2562 C2574 0.930 . S
H2563 C2576 0.930 . S
H2564 C2577 0.930 . S
H2565 C2581 0.959 . S
H2566 C2581 0.959 . S
H2567 C2581 0.961 . S
H2568 C2582 0.960 . S
H2569 C2582 0.961 . S
H2570 C2582 0.959 . S
H2571 C2585 0.929 . S
H2572 C2586 0.931 . S
H2573 C2588 0.930 . S
C2574 H2562 0.930 . S
C2574 C2575 1.399 . S
C2574 C2579 1.399 . S
C2575 C2574 1.399 . S
C2575 C2576 1.376 . S
C2576 H2563 0.930 . S
C2576 C2575 1.376 . S
C2576 C2577 1.388 . S
C2577 H2564 0.930 . S
C2577 C2576 1.388 . S
C2577 C2578 1.390 . S
C2578 C2577 1.390 . S
C2578 C2579 1.394 . S
C2578 C2584 1.465 . S
C2579 C2574 1.399 . S
C2579 C2578 1.394 . S
C2579 C2580 1.516 . S
C2580 C2579 1.516 . S
C2580 C2581 1.502 . S
C2580 C2582 1.561 . S
C2580 C2583 1.526 . S
C2581 H2565 0.959 . S
C2581 H2566 0.959 . S
C2581 H2567 0.961 . S
C2581 C2580 1.502 . S
C2582 H2568 0.960 . S
C2582 H2569 0.961 . S
C2582 H2570 0.959 . S
C2582 C2580 1.561 . S
C2583 C2580 1.526 . S
C2583 C2584 1.396 . S
C2583 C2588 1.390 . S
C2584 C2578 1.465 . S
C2584 C2583 1.396 . S
C2584 C2585 1.399 . S
C2585 H2571 0.929 . S
C2585 C2584 1.399 . S
C2585 C2586 1.385 . S
C2586 H2572 0.931 . S
C2586 C2585 1.385 . S
C2586 C2587 1.389 . S
C2587 C2586 1.389 . S
C2587 C2588 1.387 . S
C2588 H2573 0.930 . S
C2588 C2583 1.390 . S
C2588 C2587 1.387 . S
H2589 C2601 0.930 . S
H2590 C2603 0.930 . S
H2591 C2604 0.930 . S
H2592 C2608 0.959 . S
H2593 C2608 0.959 . S
H2594 C2608 0.961 . S
H2595 C2609 0.960 . S
H2596 C2609 0.961 . S
H2597 C2609 0.959 . S
H2598 C2612 0.929 . S
H2599 C2613 0.931 . S
H2600 C2615 0.930 . S
C2601 H2589 0.930 . S
C2601 C2602 1.399 . S
C2601 C2606 1.399 . S
C2602 C2601 1.399 . S
C2602 C2603 1.376 . S
C2603 H2590 0.930 . S
C2603 C2602 1.376 . S
C2603 C2604 1.388 . S
C2604 H2591 0.930 . S
C2604 C2603 1.388 . S
C2604 C2605 1.390 . S
C2605 C2604 1.390 . S
C2605 C2606 1.394 . S
C2605 C2611 1.465 . S
C2606 C2601 1.399 . S
C2606 C2605 1.394 . S
C2606 C2607 1.516 . S
C2607 C2606 1.516 . S
C2607 C2608 1.502 . S
C2607 C2609 1.561 . S
C2607 C2610 1.526 . S
C2608 H2592 0.959 . S
C2608 H2593 0.959 . S
C2608 H2594 0.961 . S
C2608 C2607 1.502 . S
C2609 H2595 0.960 . S
C2609 H2596 0.961 . S
C2609 H2597 0.959 . S
C2609 C2607 1.561 . S
C2610 C2607 1.526 . S
C2610 C2611 1.396 . S
C2610 C2615 1.390 . S
C2611 C2605 1.465 . S
C2611 C2610 1.396 . S
C2611 C2612 1.399 . S
C2612 H2598 0.929 . S
C2612 C2611 1.399 . S
C2612 C2613 1.385 . S
C2613 H2599 0.931 . S
C2613 C2612 1.385 . S
C2613 C2614 1.389 . S
C2614 C2613 1.389 . S
C2614 C2615 1.387 . S
C2615 H2600 0.930 . S
C2615 C2610 1.390 . S
C2615 C2614 1.387 . S
H2616 C2628 0.930 . S
H2617 C2630 0.930 . S
H2618 C2631 0.930 . S
H2619 C2635 0.959 . S
H2620 C2635 0.959 . S
H2621 C2635 0.961 . S
H2622 C2636 0.960 . S
H2623 C2636 0.961 . S
H2624 C2636 0.959 . S
H2625 C2639 0.929 . S
H2626 C2640 0.931 . S
H2627 C2642 0.930 . S
C2628 H2616 0.930 . S
C2628 C2629 1.399 . S
C2628 C2633 1.399 . S
C2629 C2628 1.399 . S
C2629 C2630 1.376 . S
C2630 H2617 0.930 . S
C2630 C2629 1.376 . S
C2630 C2631 1.388 . S
C2631 H2618 0.930 . S
C2631 C2630 1.388 . S
C2631 C2632 1.390 . S
C2632 C2631 1.390 . S
C2632 C2633 1.394 . S
C2632 C2638 1.465 . S
C2633 C2628 1.399 . S
C2633 C2632 1.394 . S
C2633 C2634 1.516 . S
C2634 C2633 1.516 . S
C2634 C2635 1.502 . S
C2634 C2636 1.561 . S
C2634 C2637 1.526 . S
C2635 H2619 0.959 . S
C2635 H2620 0.959 . S
C2635 H2621 0.961 . S
C2635 C2634 1.502 . S
C2636 H2622 0.960 . S
C2636 H2623 0.961 . S
C2636 H2624 0.959 . S
C2636 C2634 1.561 . S
C2637 C2634 1.526 . S
C2637 C2638 1.396 . S
C2637 C2642 1.390 . S
C2638 C2632 1.465 . S
C2638 C2637 1.396 . S
C2638 C2639 1.399 . S
C2639 H2625 0.929 . S
C2639 C2638 1.399 . S
C2639 C2640 1.385 . S
C2640 H2626 0.931 . S
C2640 C2639 1.385 . S
C2640 C2641 1.389 . S
C2641 C2640 1.389 . S
C2641 C2642 1.387 . S
C2642 H2627 0.930 . S
C2642 C2637 1.390 . S
C2642 C2641 1.387 . S
H2643 C2655 0.930 . S
H2644 C2657 0.930 . S
H2645 C2658 0.930 . S
H2646 C2662 0.959 . S
H2647 C2662 0.959 . S
H2648 C2662 0.961 . S
H2649 C2663 0.960 . S
H2650 C2663 0.961 . S
H2651 C2663 0.959 . S
H2652 C2666 0.929 . S
H2653 C2667 0.931 . S
H2654 C2669 0.930 . S
C2655 H2643 0.930 . S
C2655 C2656 1.399 . S
C2655 C2660 1.399 . S
C2656 C2655 1.399 . S
C2656 C2657 1.376 . S
C2657 H2644 0.930 . S
C2657 C2656 1.376 . S
C2657 C2658 1.388 . S
C2658 H2645 0.930 . S
C2658 C2657 1.388 . S
C2658 C2659 1.390 . S
C2659 C2658 1.390 . S
C2659 C2660 1.394 . S
C2659 C2665 1.465 . S
C2660 C2655 1.399 . S
C2660 C2659 1.394 . S
C2660 C2661 1.516 . S
C2661 C2660 1.516 . S
C2661 C2662 1.502 . S
C2661 C2663 1.561 . S
C2661 C2664 1.526 . S
C2662 H2646 0.959 . S
C2662 H2647 0.959 . S
C2662 H2648 0.961 . S
C2662 C2661 1.502 . S
C2663 H2649 0.960 . S
C2663 H2650 0.961 . S
C2663 H2651 0.959 . S
C2663 C2661 1.561 . S
C2664 C2661 1.526 . S
C2664 C2665 1.396 . S
C2664 C2669 1.390 . S
C2665 C2659 1.465 . S
C2665 C2664 1.396 . S
C2665 C2666 1.399 . S
C2666 H2652 0.929 . S
C2666 C2665 1.399 . S
C2666 C2667 1.385 . S
C2667 H2653 0.931 . S
C2667 C2666 1.385 . S
C2667 C2668 1.389 . S
C2668 C2667 1.389 . S
C2668 C2669 1.387 . S
C2669 H2654 0.930 . S
C2669 C2664 1.390 . S
C2669 C2668 1.387 . S
H2670 C2682 0.930 . S
H2671 C2684 0.930 . S
H2672 C2685 0.930 . S
H2673 C2689 0.959 . S
H2674 C2689 0.959 . S
H2675 C2689 0.961 . S
H2676 C2690 0.960 . S
H2677 C2690 0.961 . S
H2678 C2690 0.959 . S
H2679 C2693 0.929 . S
H2680 C2694 0.931 . S
H2681 C2696 0.930 . S
C2682 H2670 0.930 . S
C2682 C2683 1.399 . S
C2682 C2687 1.399 . S
C2683 C2682 1.399 . S
C2683 C2684 1.376 . S
C2684 H2671 0.930 . S
C2684 C2683 1.376 . S
C2684 C2685 1.388 . S
C2685 H2672 0.930 . S
C2685 C2684 1.388 . S
C2685 C2686 1.390 . S
C2686 C2685 1.390 . S
C2686 C2687 1.394 . S
C2686 C2692 1.465 . S
C2687 C2682 1.399 . S
C2687 C2686 1.394 . S
C2687 C2688 1.516 . S
C2688 C2687 1.516 . S
C2688 C2689 1.502 . S
C2688 C2690 1.561 . S
C2688 C2691 1.526 . S
C2689 H2673 0.959 . S
C2689 H2674 0.959 . S
C2689 H2675 0.961 . S
C2689 C2688 1.502 . S
C2690 H2676 0.960 . S
C2690 H2677 0.961 . S
C2690 H2678 0.959 . S
C2690 C2688 1.561 . S
C2691 C2688 1.526 . S
C2691 C2692 1.396 . S
C2691 C2696 1.390 . S
C2692 C2686 1.465 . S
C2692 C2691 1.396 . S
C2692 C2693 1.399 . S
C2693 H2679 0.929 . S
C2693 C2692 1.399 . S
C2693 C2694 1.385 . S
C2694 H2680 0.931 . S
C2694 C2693 1.385 . S
C2694 C2695 1.389 . S
C2695 C2694 1.389 . S
C2695 C2696 1.387 . S
C2696 H2681 0.930 . S
C2696 C2691 1.390 . S
C2696 C2695 1.387 . S
H2697 C2709 0.930 . S
H2698 C2711 0.930 . S
H2699 C2712 0.930 . S
H2700 C2716 0.959 . S
H2701 C2716 0.959 . S
H2702 C2716 0.961 . S
H2703 C2717 0.960 . S
H2704 C2717 0.961 . S
H2705 C2717 0.959 . S
H2706 C2720 0.929 . S
H2707 C2721 0.931 . S
H2708 C2723 0.930 . S
C2709 H2697 0.930 . S
C2709 C2710 1.399 . S
C2709 C2714 1.399 . S
C2710 C2709 1.399 . S
C2710 C2711 1.376 . S
C2711 H2698 0.930 . S
C2711 C2710 1.376 . S
C2711 C2712 1.388 . S
C2712 H2699 0.930 . S
C2712 C2711 1.388 . S
C2712 C2713 1.390 . S
C2713 C2712 1.390 . S
C2713 C2714 1.394 . S
C2713 C2719 1.465 . S
C2714 C2709 1.399 . S
C2714 C2713 1.394 . S
C2714 C2715 1.516 . S
C2715 C2714 1.516 . S
C2715 C2716 1.502 . S
C2715 C2717 1.561 . S
C2715 C2718 1.526 . S
C2716 H2700 0.959 . S
C2716 H2701 0.959 . S
C2716 H2702 0.961 . S
C2716 C2715 1.502 . S
C2717 H2703 0.960 . S
C2717 H2704 0.961 . S
C2717 H2705 0.959 . S
C2717 C2715 1.561 . S
C2718 C2715 1.526 . S
C2718 C2719 1.396 . S
C2718 C2723 1.390 . S
C2719 C2713 1.465 . S
C2719 C2718 1.396 . S
C2719 C2720 1.399 . S
C2720 H2706 0.929 . S
C2720 C2719 1.399 . S
C2720 C2721 1.385 . S
C2721 H2707 0.931 . S
C2721 C2720 1.385 . S
C2721 C2722 1.389 . S
C2722 C2721 1.389 . S
C2722 C2723 1.387 . S
C2723 H2708 0.930 . S
C2723 C2718 1.390 . S
C2723 C2722 1.387 . S
H2724 C2736 0.930 . S
H2725 C2738 0.930 . S
H2726 C2739 0.930 . S
H2727 C2743 0.959 . S
H2728 C2743 0.959 . S
H2729 C2743 0.961 . S
H2730 C2744 0.960 . S
H2731 C2744 0.961 . S
H2732 C2744 0.959 . S
H2733 C2747 0.929 . S
H2734 C2748 0.931 . S
H2735 C2750 0.930 . S
C2736 H2724 0.930 . S
C2736 C2737 1.399 . S
C2736 C2741 1.399 . S
C2737 C2736 1.399 . S
C2737 C2738 1.376 . S
C2738 H2725 0.930 . S
C2738 C2737 1.376 . S
C2738 C2739 1.388 . S
C2739 H2726 0.930 . S
C2739 C2738 1.388 . S
C2739 C2740 1.390 . S
C2740 C2739 1.390 . S
C2740 C2741 1.394 . S
C2740 C2746 1.465 . S
C2741 C2736 1.399 . S
C2741 C2740 1.394 . S
C2741 C2742 1.516 . S
C2742 C2741 1.516 . S
C2742 C2743 1.502 . S
C2742 C2744 1.561 . S
C2742 C2745 1.526 . S
C2743 H2727 0.959 . S
C2743 H2728 0.959 . S
C2743 H2729 0.961 . S
C2743 C2742 1.502 . S
C2744 H2730 0.960 . S
C2744 H2731 0.961 . S
C2744 H2732 0.959 . S
C2744 C2742 1.561 . S
C2745 C2742 1.526 . S
C2745 C2746 1.396 . S
C2745 C2750 1.390 . S
C2746 C2740 1.465 . S
C2746 C2745 1.396 . S
C2746 C2747 1.399 . S
C2747 H2733 0.929 . S
C2747 C2746 1.399 . S
C2747 C2748 1.385 . S
C2748 H2734 0.931 . S
C2748 C2747 1.385 . S
C2748 C2749 1.389 . S
C2749 C2748 1.389 . S
C2749 C2750 1.387 . S
C2750 H2735 0.930 . S
C2750 C2745 1.390 . S
C2750 C2749 1.387 . S
H2751 C2763 0.930 . S
H2752 C2765 0.930 . S
H2753 C2766 0.930 . S
H2754 C2770 0.959 . S
H2755 C2770 0.959 . S
H2756 C2770 0.961 . S
H2757 C2771 0.960 . S
H2758 C2771 0.961 . S
H2759 C2771 0.959 . S
H2760 C2774 0.929 . S
H2761 C2775 0.931 . S
H2762 C2777 0.930 . S
C2763 H2751 0.930 . S
C2763 C2764 1.399 . S
C2763 C2768 1.399 . S
C2764 C2763 1.399 . S
C2764 C2765 1.376 . S
C2765 H2752 0.930 . S
C2765 C2764 1.376 . S
C2765 C2766 1.388 . S
C2766 H2753 0.930 . S
C2766 C2765 1.388 . S
C2766 C2767 1.390 . S
C2767 C2766 1.390 . S
C2767 C2768 1.394 . S
C2767 C2773 1.465 . S
C2768 C2763 1.399 . S
C2768 C2767 1.394 . S
C2768 C2769 1.516 . S
C2769 C2768 1.516 . S
C2769 C2770 1.502 . S
C2769 C2771 1.561 . S
C2769 C2772 1.526 . S
C2770 H2754 0.959 . S
C2770 H2755 0.959 . S
C2770 H2756 0.961 . S
C2770 C2769 1.502 . S
C2771 H2757 0.960 . S
C2771 H2758 0.961 . S
C2771 H2759 0.959 . S
C2771 C2769 1.561 . S
C2772 C2769 1.526 . S
C2772 C2773 1.396 . S
C2772 C2777 1.390 . S
C2773 C2767 1.465 . S
C2773 C2772 1.396 . S
C2773 C2774 1.399 . S
C2774 H2760 0.929 . S
C2774 C2773 1.399 . S
C2774 C2775 1.385 . S
C2775 H2761 0.931 . S
C2775 C2774 1.385 . S
C2775 C2776 1.389 . S
C2776 C2775 1.389 . S
C2776 C2777 1.387 . S
C2777 H2762 0.930 . S
C2777 C2772 1.390 . S
C2777 C2776 1.387 . S
H2778 C2790 0.930 . S
H2779 C2792 0.930 . S
H2780 C2793 0.930 . S
H2781 C2797 0.959 . S
H2782 C2797 0.959 . S
H2783 C2797 0.961 . S
H2784 C2798 0.960 . S
H2785 C2798 0.961 . S
H2786 C2798 0.959 . S
H2787 C2801 0.929 . S
H2788 C2802 0.931 . S
H2789 C2804 0.930 . S
C2790 H2778 0.930 . S
C2790 C2791 1.399 . S
C2790 C2795 1.399 . S
C2791 C2790 1.399 . S
C2791 C2792 1.376 . S
C2792 H2779 0.930 . S
C2792 C2791 1.376 . S
C2792 C2793 1.388 . S
C2793 H2780 0.930 . S
C2793 C2792 1.388 . S
C2793 C2794 1.390 . S
C2794 C2793 1.390 . S
C2794 C2795 1.394 . S
C2794 C2800 1.465 . S
C2795 C2790 1.399 . S
C2795 C2794 1.394 . S
C2795 C2796 1.516 . S
C2796 C2795 1.516 . S
C2796 C2797 1.502 . S
C2796 C2798 1.561 . S
C2796 C2799 1.526 . S
C2797 H2781 0.959 . S
C2797 H2782 0.959 . S
C2797 H2783 0.961 . S
C2797 C2796 1.502 . S
C2798 H2784 0.960 . S
C2798 H2785 0.961 . S
C2798 H2786 0.959 . S
C2798 C2796 1.561 . S
C2799 C2796 1.526 . S
C2799 C2800 1.396 . S
C2799 C2804 1.390 . S
C2800 C2794 1.465 . S
C2800 C2799 1.396 . S
C2800 C2801 1.399 . S
C2801 H2787 0.929 . S
C2801 C2800 1.399 . S
C2801 C2802 1.385 . S
C2802 H2788 0.931 . S
C2802 C2801 1.385 . S
C2802 C2803 1.389 . S
C2803 C2802 1.389 . S
C2803 C2804 1.387 . S
C2804 H2789 0.930 . S
C2804 C2799 1.390 . S
C2804 C2803 1.387 . S
H2805 C2817 0.930 . S
H2806 C2819 0.930 . S
H2807 C2820 0.930 . S
H2808 C2824 0.959 . S
H2809 C2824 0.959 . S
H2810 C2824 0.961 . S
H2811 C2825 0.960 . S
H2812 C2825 0.961 . S
H2813 C2825 0.959 . S
H2814 C2828 0.929 . S
H2815 C2829 0.931 . S
H2816 C2831 0.930 . S
C2817 H2805 0.930 . S
C2817 C2818 1.399 . S
C2817 C2822 1.399 . S
C2818 C2817 1.399 . S
C2818 C2819 1.376 . S
C2819 H2806 0.930 . S
C2819 C2818 1.376 . S
C2819 C2820 1.388 . S
C2820 H2807 0.930 . S
C2820 C2819 1.388 . S
C2820 C2821 1.390 . S
C2821 C2820 1.390 . S
C2821 C2822 1.394 . S
C2821 C2827 1.465 . S
C2822 C2817 1.399 . S
C2822 C2821 1.394 . S
C2822 C2823 1.516 . S
C2823 C2822 1.516 . S
C2823 C2824 1.502 . S
C2823 C2825 1.561 . S
C2823 C2826 1.526 . S
C2824 H2808 0.959 . S
C2824 H2809 0.959 . S
C2824 H2810 0.961 . S
C2824 C2823 1.502 . S
C2825 H2811 0.960 . S
C2825 H2812 0.961 . S
C2825 H2813 0.959 . S
C2825 C2823 1.561 . S
C2826 C2823 1.526 . S
C2826 C2827 1.396 . S
C2826 C2831 1.390 . S
C2827 C2821 1.465 . S
C2827 C2826 1.396 . S
C2827 C2828 1.399 . S
C2828 H2814 0.929 . S
C2828 C2827 1.399 . S
C2828 C2829 1.385 . S
C2829 H2815 0.931 . S
C2829 C2828 1.385 . S
C2829 C2830 1.389 . S
C2830 C2829 1.389 . S
C2830 C2831 1.387 . S
C2831 H2816 0.930 . S
C2831 C2826 1.390 . S
C2831 C2830 1.387 . S
H2832 C2844 0.930 . S
H2833 C2846 0.930 . S
H2834 C2847 0.930 . S
H2835 C2851 0.959 . S
H2836 C2851 0.959 . S
H2837 C2851 0.961 . S
H2838 C2852 0.960 . S
H2839 C2852 0.961 . S
H2840 C2852 0.959 . S
H2841 C2855 0.929 . S
H2842 C2856 0.931 . S
H2843 C2858 0.930 . S
C2844 H2832 0.930 . S
C2844 C2845 1.399 . S
C2844 C2849 1.399 . S
C2845 C2844 1.399 . S
C2845 C2846 1.376 . S
C2846 H2833 0.930 . S
C2846 C2845 1.376 . S
C2846 C2847 1.388 . S
C2847 H2834 0.930 . S
C2847 C2846 1.388 . S
C2847 C2848 1.390 . S
C2848 C2847 1.390 . S
C2848 C2849 1.394 . S
C2848 C2854 1.465 . S
C2849 C2844 1.399 . S
C2849 C2848 1.394 . S
C2849 C2850 1.516 . S
C2850 C2849 1.516 . S
C2850 C2851 1.502 . S
C2850 C2852 1.561 . S
C2850 C2853 1.526 . S
C2851 H2835 0.959 . S
C2851 H2836 0.959 . S
C2851 H2837 0.961 . S
C2851 C2850 1.502 . S
C2852 H2838 0.960 . S
C2852 H2839 0.961 . S
C2852 H2840 0.959 . S
C2852 C2850 1.561 . S
C2853 C2850 1.526 . S
C2853 C2854 1.396 . S
C2853 C2858 1.390 . S
C2854 C2848 1.465 . S
C2854 C2853 1.396 . S
C2854 C2855 1.399 . S
C2855 H2841 0.929 . S
C2855 C2854 1.399 . S
C2855 C2856 1.385 . S
C2856 H2842 0.931 . S
C2856 C2855 1.385 . S
C2856 C2857 1.389 . S
C2857 C2856 1.389 . S
C2857 C2858 1.387 . S
C2858 H2843 0.930 . S
C2858 C2853 1.390 . S
C2858 C2857 1.387 . S
H2859 C2871 0.930 . S
H2860 C2873 0.930 . S
H2861 C2874 0.930 . S
H2862 C2878 0.959 . S
H2863 C2878 0.959 . S
H2864 C2878 0.961 . S
H2865 C2879 0.960 . S
H2866 C2879 0.961 . S
H2867 C2879 0.959 . S
H2868 C2882 0.929 . S
H2869 C2883 0.931 . S
H2870 C2885 0.930 . S
C2871 H2859 0.930 . S
C2871 C2872 1.399 . S
C2871 C2876 1.399 . S
C2872 C2871 1.399 . S
C2872 C2873 1.376 . S
C2873 H2860 0.930 . S
C2873 C2872 1.376 . S
C2873 C2874 1.388 . S
C2874 H2861 0.930 . S
C2874 C2873 1.388 . S
C2874 C2875 1.390 . S
C2875 C2874 1.390 . S
C2875 C2876 1.394 . S
C2875 C2881 1.465 . S
C2876 C2871 1.399 . S
C2876 C2875 1.394 . S
C2876 C2877 1.516 . S
C2877 C2876 1.516 . S
C2877 C2878 1.502 . S
C2877 C2879 1.561 . S
C2877 C2880 1.526 . S
C2878 H2862 0.959 . S
C2878 H2863 0.959 . S
C2878 H2864 0.961 . S
C2878 C2877 1.502 . S
C2879 H2865 0.960 . S
C2879 H2866 0.961 . S
C2879 H2867 0.959 . S
C2879 C2877 1.561 . S
C2880 C2877 1.526 . S
C2880 C2881 1.396 . S
C2880 C2885 1.390 . S
C2881 C2875 1.465 . S
C2881 C2880 1.396 . S
C2881 C2882 1.399 . S
C2882 H2868 0.929 . S
C2882 C2881 1.399 . S
C2882 C2883 1.385 . S
C2883 H2869 0.931 . S
C2883 C2882 1.385 . S
C2883 C2884 1.389 . S
C2884 C2883 1.389 . S
C2884 C2885 1.387 . S
C2885 H2870 0.930 . S
C2885 C2880 1.390 . S
C2885 C2884 1.387 . S
H2886 C2898 0.930 . S
H2887 C2900 0.930 . S
H2888 C2901 0.930 . S
H2889 C2905 0.959 . S
H2890 C2905 0.959 . S
H2891 C2905 0.961 . S
H2892 C2906 0.960 . S
H2893 C2906 0.961 . S
H2894 C2906 0.959 . S
H2895 C2909 0.929 . S
H2896 C2910 0.931 . S
H2897 C2912 0.930 . S
C2898 H2886 0.930 . S
C2898 C2899 1.399 . S
C2898 C2903 1.399 . S
C2899 C2898 1.399 . S
C2899 C2900 1.376 . S
C2900 H2887 0.930 . S
C2900 C2899 1.376 . S
C2900 C2901 1.388 . S
C2901 H2888 0.930 . S
C2901 C2900 1.388 . S
C2901 C2902 1.390 . S
C2902 C2901 1.390 . S
C2902 C2903 1.394 . S
C2902 C2908 1.465 . S
C2903 C2898 1.399 . S
C2903 C2902 1.394 . S
C2903 C2904 1.516 . S
C2904 C2903 1.516 . S
C2904 C2905 1.502 . S
C2904 C2906 1.561 . S
C2904 C2907 1.526 . S
C2905 H2889 0.959 . S
C2905 H2890 0.959 . S
C2905 H2891 0.961 . S
C2905 C2904 1.502 . S
C2906 H2892 0.960 . S
C2906 H2893 0.961 . S
C2906 H2894 0.959 . S
C2906 C2904 1.561 . S
C2907 C2904 1.526 . S
C2907 C2908 1.396 . S
C2907 C2912 1.390 . S
C2908 C2902 1.465 . S
C2908 C2907 1.396 . S
C2908 C2909 1.399 . S
C2909 H2895 0.929 . S
C2909 C2908 1.399 . S
C2909 C2910 1.385 . S
C2910 H2896 0.931 . S
C2910 C2909 1.385 . S
C2910 C2911 1.389 . S
C2911 C2910 1.389 . S
C2911 C2912 1.387 . S
C2912 H2897 0.930 . S
C2912 C2907 1.390 . S
C2912 C2911 1.387 . S
H2913 C2925 0.930 . S
H2914 C2927 0.930 . S
H2915 C2928 0.930 . S
H2916 C2932 0.959 . S
H2917 C2932 0.959 . S
H2918 C2932 0.961 . S
H2919 C2933 0.960 . S
H2920 C2933 0.961 . S
H2921 C2933 0.959 . S
H2922 C2936 0.929 . S
H2923 C2937 0.931 . S
H2924 C2939 0.930 . S
C2925 H2913 0.930 . S
C2925 C2926 1.399 . S
C2925 C2930 1.399 . S
C2926 C2925 1.399 . S
C2926 C2927 1.376 . S
C2927 H2914 0.930 . S
C2927 C2926 1.376 . S
C2927 C2928 1.388 . S
C2928 H2915 0.930 . S
C2928 C2927 1.388 . S
C2928 C2929 1.390 . S
C2929 C2928 1.390 . S
C2929 C2930 1.394 . S
C2929 C2935 1.465 . S
C2930 C2925 1.399 . S
C2930 C2929 1.394 . S
C2930 C2931 1.516 . S
C2931 C2930 1.516 . S
C2931 C2932 1.502 . S
C2931 C2933 1.561 . S
C2931 C2934 1.526 . S
C2932 H2916 0.959 . S
C2932 H2917 0.959 . S
C2932 H2918 0.961 . S
C2932 C2931 1.502 . S
C2933 H2919 0.960 . S
C2933 H2920 0.961 . S
C2933 H2921 0.959 . S
C2933 C2931 1.561 . S
C2934 C2931 1.526 . S
C2934 C2935 1.396 . S
C2934 C2939 1.390 . S
C2935 C2929 1.465 . S
C2935 C2934 1.396 . S
C2935 C2936 1.399 . S
C2936 H2922 0.929 . S
C2936 C2935 1.399 . S
C2936 C2937 1.385 . S
C2937 H2923 0.931 . S
C2937 C2936 1.385 . S
C2937 C2938 1.389 . S
C2938 C2937 1.389 . S
C2938 C2939 1.387 . S
C2939 H2924 0.930 . S
C2939 C2934 1.390 . S
C2939 C2938 1.387 . S
H2940 C2952 0.930 . S
H2941 C2954 0.930 . S
H2942 C2955 0.930 . S
H2943 C2959 0.959 . S
H2944 C2959 0.959 . S
H2945 C2959 0.961 . S
H2946 C2960 0.960 . S
H2947 C2960 0.961 . S
H2948 C2960 0.959 . S
H2949 C2963 0.929 . S
H2950 C2964 0.931 . S
H2951 C2966 0.930 . S
C2952 H2940 0.930 . S
C2952 C2953 1.399 . S
C2952 C2957 1.399 . S
C2953 C2952 1.399 . S
C2953 C2954 1.376 . S
C2954 H2941 0.930 . S
C2954 C2953 1.376 . S
C2954 C2955 1.388 . S
C2955 H2942 0.930 . S
C2955 C2954 1.388 . S
C2955 C2956 1.390 . S
C2956 C2955 1.390 . S
C2956 C2957 1.394 . S
C2956 C2962 1.465 . S
C2957 C2952 1.399 . S
C2957 C2956 1.394 . S
C2957 C2958 1.516 . S
C2958 C2957 1.516 . S
C2958 C2959 1.502 . S
C2958 C2960 1.561 . S
C2958 C2961 1.526 . S
C2959 H2943 0.959 . S
C2959 H2944 0.959 . S
C2959 H2945 0.961 . S
C2959 C2958 1.502 . S
C2960 H2946 0.960 . S
C2960 H2947 0.961 . S
C2960 H2948 0.959 . S
C2960 C2958 1.561 . S
C2961 C2958 1.526 . S
C2961 C2962 1.396 . S
C2961 C2966 1.390 . S
C2962 C2956 1.465 . S
C2962 C2961 1.396 . S
C2962 C2963 1.399 . S
C2963 H2949 0.929 . S
C2963 C2962 1.399 . S
C2963 C2964 1.385 . S
C2964 H2950 0.931 . S
C2964 C2963 1.385 . S
C2964 C2965 1.389 . S
C2965 C2964 1.389 . S
C2965 C2966 1.387 . S
C2966 H2951 0.930 . S
C2966 C2961 1.390 . S
C2966 C2965 1.387 . S
H2967 C2979 0.930 . S
H2968 C2981 0.930 . S
H2969 C2982 0.930 . S
H2970 C2986 0.959 . S
H2971 C2986 0.959 . S
H2972 C2986 0.961 . S
H2973 C2987 0.960 . S
H2974 C2987 0.961 . S
H2975 C2987 0.959 . S
H2976 C2990 0.929 . S
H2977 C2991 0.931 . S
H2978 C2993 0.930 . S
C2979 H2967 0.930 . S
C2979 C2980 1.399 . S
C2979 C2984 1.399 . S
C2980 C2979 1.399 . S
C2980 C2981 1.376 . S
C2981 H2968 0.930 . S
C2981 C2980 1.376 . S
C2981 C2982 1.388 . S
C2982 H2969 0.930 . S
C2982 C2981 1.388 . S
C2982 C2983 1.390 . S
C2983 C2982 1.390 . S
C2983 C2984 1.394 . S
C2983 C2989 1.465 . S
C2984 C2979 1.399 . S
C2984 C2983 1.394 . S
C2984 C2985 1.516 . S
C2985 C2984 1.516 . S
C2985 C2986 1.502 . S
C2985 C2987 1.561 . S
C2985 C2988 1.526 . S
C2986 H2970 0.959 . S
C2986 H2971 0.959 . S
C2986 H2972 0.961 . S
C2986 C2985 1.502 . S
C2987 H2973 0.960 . S
C2987 H2974 0.961 . S
C2987 H2975 0.959 . S
C2987 C2985 1.561 . S
C2988 C2985 1.526 . S
C2988 C2989 1.396 . S
C2988 C2993 1.390 . S
C2989 C2983 1.465 . S
C2989 C2988 1.396 . S
C2989 C2990 1.399 . S
C2990 H2976 0.929 . S
C2990 C2989 1.399 . S
C2990 C2991 1.385 . S
C2991 H2977 0.931 . S
C2991 C2990 1.385 . S
C2991 C2992 1.389 . S
C2992 C2991 1.389 . S
C2992 C2993 1.387 . S
C2993 H2978 0.930 . S
C2993 C2988 1.390 . S
C2993 C2992 1.387 . S
H2994 C3006 0.930 . S
H2995 C3008 0.930 . S
H2996 C3009 0.930 . S
H2997 C3013 0.959 . S
H2998 C3013 0.959 . S
H2999 C3013 0.961 . S
H3000 C3014 0.960 . S
H3001 C3014 0.961 . S
H3002 C3014 0.959 . S
H3003 C3017 0.929 . S
H3004 C3018 0.931 . S
H3005 C3020 0.930 . S
C3006 H2994 0.930 . S
C3006 C3007 1.399 . S
C3006 C3011 1.399 . S
C3007 C3006 1.399 . S
C3007 C3008 1.376 . S
C3008 H2995 0.930 . S
C3008 C3007 1.376 . S
C3008 C3009 1.388 . S
C3009 H2996 0.930 . S
C3009 C3008 1.388 . S
C3009 C3010 1.390 . S
C3010 C3009 1.390 . S
C3010 C3011 1.394 . S
C3010 C3016 1.465 . S
C3011 C3006 1.399 . S
C3011 C3010 1.394 . S
C3011 C3012 1.516 . S
C3012 C3011 1.516 . S
C3012 C3013 1.502 . S
C3012 C3014 1.561 . S
C3012 C3015 1.526 . S
C3013 H2997 0.959 . S
C3013 H2998 0.959 . S
C3013 H2999 0.961 . S
C3013 C3012 1.502 . S
C3014 H3000 0.960 . S
C3014 H3001 0.961 . S
C3014 H3002 0.959 . S
C3014 C3012 1.561 . S
C3015 C3012 1.526 . S
C3015 C3016 1.396 . S
C3015 C3020 1.390 . S
C3016 C3010 1.465 . S
C3016 C3015 1.396 . S
C3016 C3017 1.399 . S
C3017 H3003 0.929 . S
C3017 C3016 1.399 . S
C3017 C3018 1.385 . S
C3018 H3004 0.931 . S
C3018 C3017 1.385 . S
C3018 C3019 1.389 . S
C3019 C3018 1.389 . S
C3019 C3020 1.387 . S
C3020 H3005 0.930 . S
C3020 C3015 1.390 . S
C3020 C3019 1.387 . S
H3021 C3033 0.930 . S
H3022 C3035 0.930 . S
H3023 C3036 0.930 . S
H3024 C3040 0.959 . S
H3025 C3040 0.959 . S
H3026 C3040 0.961 . S
H3027 C3041 0.960 . S
H3028 C3041 0.961 . S
H3029 C3041 0.959 . S
H3030 C3044 0.929 . S
H3031 C3045 0.931 . S
H3032 C3047 0.930 . S
C3033 H3021 0.930 . S
C3033 C3034 1.399 . S
C3033 C3038 1.399 . S
C3034 C3033 1.399 . S
C3034 C3035 1.376 . S
C3035 H3022 0.930 . S
C3035 C3034 1.376 . S
C3035 C3036 1.388 . S
C3036 H3023 0.930 . S
C3036 C3035 1.388 . S
C3036 C3037 1.390 . S
C3037 C3036 1.390 . S
C3037 C3038 1.394 . S
C3037 C3043 1.465 . S
C3038 C3033 1.399 . S
C3038 C3037 1.394 . S
C3038 C3039 1.516 . S
C3039 C3038 1.516 . S
C3039 C3040 1.502 . S
C3039 C3041 1.561 . S
C3039 C3042 1.526 . S
C3040 H3024 0.959 . S
C3040 H3025 0.959 . S
C3040 H3026 0.961 . S
C3040 C3039 1.502 . S
C3041 H3027 0.960 . S
C3041 H3028 0.961 . S
C3041 H3029 0.959 . S
C3041 C3039 1.561 . S
C3042 C3039 1.526 . S
C3042 C3043 1.396 . S
C3042 C3047 1.390 . S
C3043 C3037 1.465 . S
C3043 C3042 1.396 . S
C3043 C3044 1.399 . S
C3044 H3030 0.929 . S
C3044 C3043 1.399 . S
C3044 C3045 1.385 . S
C3045 H3031 0.931 . S
C3045 C3044 1.385 . S
C3045 C3046 1.389 . S
C3046 C3045 1.389 . S
C3046 C3047 1.387 . S
C3047 H3032 0.930 . S
C3047 C3042 1.390 . S
C3047 C3046 1.387 . S
H3048 C3060 0.930 . S
H3049 C3062 0.930 . S
H3050 C3063 0.930 . S
H3051 C3067 0.959 . S
H3052 C3067 0.959 . S
H3053 C3067 0.961 . S
H3054 C3068 0.960 . S
H3055 C3068 0.961 . S
H3056 C3068 0.959 . S
H3057 C3071 0.929 . S
H3058 C3072 0.931 . S
H3059 C3074 0.930 . S
C3060 H3048 0.930 . S
C3060 C3061 1.399 . S
C3060 C3065 1.399 . S
C3061 C3060 1.399 . S
C3061 C3062 1.376 . S
C3062 H3049 0.930 . S
C3062 C3061 1.376 . S
C3062 C3063 1.388 . S
C3063 H3050 0.930 . S
C3063 C3062 1.388 . S
C3063 C3064 1.390 . S
C3064 C3063 1.390 . S
C3064 C3065 1.394 . S
C3064 C3070 1.465 . S
C3065 C3060 1.399 . S
C3065 C3064 1.394 . S
C3065 C3066 1.516 . S
C3066 C3065 1.516 . S
C3066 C3067 1.502 . S
C3066 C3068 1.561 . S
C3066 C3069 1.526 . S
C3067 H3051 0.959 . S
C3067 H3052 0.959 . S
C3067 H3053 0.961 . S
C3067 C3066 1.502 . S
C3068 H3054 0.960 . S
C3068 H3055 0.961 . S
C3068 H3056 0.959 . S
C3068 C3066 1.561 . S
C3069 C3066 1.526 . S
C3069 C3070 1.396 . S
C3069 C3074 1.390 . S
C3070 C3064 1.465 . S
C3070 C3069 1.396 . S
C3070 C3071 1.399 . S
C3071 H3057 0.929 . S
C3071 C3070 1.399 . S
C3071 C3072 1.385 . S
C3072 H3058 0.931 . S
C3072 C3071 1.385 . S
C3072 C3073 1.389 . S
C3073 C3072 1.389 . S
C3073 C3074 1.387 . S
C3074 H3059 0.930 . S
C3074 C3069 1.390 . S
C3074 C3073 1.387 . S
H3075 C3087 0.930 . S
H3076 C3089 0.930 . S
H3077 C3090 0.930 . S
H3078 C3094 0.959 . S
H3079 C3094 0.959 . S
H3080 C3094 0.961 . S
H3081 C3095 0.960 . S
H3082 C3095 0.961 . S
H3083 C3095 0.959 . S
H3084 C3098 0.929 . S
H3085 C3099 0.931 . S
H3086 C3101 0.930 . S
C3087 H3075 0.930 . S
C3087 C3088 1.399 . S
C3087 C3092 1.399 . S
C3088 C3087 1.399 . S
C3088 C3089 1.376 . S
C3089 H3076 0.930 . S
C3089 C3088 1.376 . S
C3089 C3090 1.388 . S
C3090 H3077 0.930 . S
C3090 C3089 1.388 . S
C3090 C3091 1.390 . S
C3091 C3090 1.390 . S
C3091 C3092 1.394 . S
C3091 C3097 1.465 . S
C3092 C3087 1.399 . S
C3092 C3091 1.394 . S
C3092 C3093 1.516 . S
C3093 C3092 1.516 . S
C3093 C3094 1.502 . S
C3093 C3095 1.561 . S
C3093 C3096 1.526 . S
C3094 H3078 0.959 . S
C3094 H3079 0.959 . S
C3094 H3080 0.961 . S
C3094 C3093 1.502 . S
C3095 H3081 0.960 . S
C3095 H3082 0.961 . S
C3095 H3083 0.959 . S
C3095 C3093 1.561 . S
C3096 C3093 1.526 . S
C3096 C3097 1.396 . S
C3096 C3101 1.390 . S
C3097 C3091 1.465 . S
C3097 C3096 1.396 . S
C3097 C3098 1.399 . S
C3098 H3084 0.929 . S
C3098 C3097 1.399 . S
C3098 C3099 1.385 . S
C3099 H3085 0.931 . S
C3099 C3098 1.385 . S
C3099 C3100 1.389 . S
C3100 C3099 1.389 . S
C3100 C3101 1.387 . S
C3101 H3086 0.930 . S
C3101 C3096 1.390 . S
C3101 C3100 1.387 . S
H3102 C3114 0.930 . S
H3103 C3116 0.930 . S
H3104 C3117 0.930 . S
H3105 C3121 0.959 . S
H3106 C3121 0.959 . S
H3107 C3121 0.961 . S
H3108 C3122 0.960 . S
H3109 C3122 0.961 . S
H3110 C3122 0.959 . S
H3111 C3125 0.929 . S
H3112 C3126 0.931 . S
H3113 C3128 0.930 . S
C3114 H3102 0.930 . S
C3114 C3115 1.399 . S
C3114 C3119 1.399 . S
C3115 C3114 1.399 . S
C3115 C3116 1.376 . S
C3116 H3103 0.930 . S
C3116 C3115 1.376 . S
C3116 C3117 1.388 . S
C3117 H3104 0.930 . S
C3117 C3116 1.388 . S
C3117 C3118 1.390 . S
C3118 C3117 1.390 . S
C3118 C3119 1.394 . S
C3118 C3124 1.465 . S
C3119 C3114 1.399 . S
C3119 C3118 1.394 . S
C3119 C3120 1.516 . S
C3120 C3119 1.516 . S
C3120 C3121 1.502 . S
C3120 C3122 1.561 . S
C3120 C3123 1.526 . S
C3121 H3105 0.959 . S
C3121 H3106 0.959 . S
C3121 H3107 0.961 . S
C3121 C3120 1.502 . S
C3122 H3108 0.960 . S
C3122 H3109 0.961 . S
C3122 H3110 0.959 . S
C3122 C3120 1.561 . S
C3123 C3120 1.526 . S
C3123 C3124 1.396 . S
C3123 C3128 1.390 . S
C3124 C3118 1.465 . S
C3124 C3123 1.396 . S
C3124 C3125 1.399 . S
C3125 H3111 0.929 . S
C3125 C3124 1.399 . S
C3125 C3126 1.385 . S
C3126 H3112 0.931 . S
C3126 C3125 1.385 . S
C3126 C3127 1.389 . S
C3127 C3126 1.389 . S
C3127 C3128 1.387 . S
C3128 H3113 0.930 . S
C3128 C3123 1.390 . S
C3128 C3127 1.387 . S
H3129 C3141 0.930 . S
H3130 C3143 0.930 . S
H3131 C3144 0.930 . S
H3132 C3148 0.959 . S
H3133 C3148 0.959 . S
H3134 C3148 0.961 . S
H3135 C3149 0.960 . S
H3136 C3149 0.961 . S
H3137 C3149 0.959 . S
H3138 C3152 0.929 . S
H3139 C3153 0.931 . S
H3140 C3155 0.930 . S
C3141 H3129 0.930 . S
C3141 C3142 1.399 . S
C3141 C3146 1.399 . S
C3142 C3141 1.399 . S
C3142 C3143 1.376 . S
C3143 H3130 0.930 . S
C3143 C3142 1.376 . S
C3143 C3144 1.388 . S
C3144 H3131 0.930 . S
C3144 C3143 1.388 . S
C3144 C3145 1.390 . S
C3145 C3144 1.390 . S
C3145 C3146 1.394 . S
C3145 C3151 1.465 . S
C3146 C3141 1.399 . S
C3146 C3145 1.394 . S
C3146 C3147 1.516 . S
C3147 C3146 1.516 . S
C3147 C3148 1.502 . S
C3147 C3149 1.561 . S
C3147 C3150 1.526 . S
C3148 H3132 0.959 . S
C3148 H3133 0.959 . S
C3148 H3134 0.961 . S
C3148 C3147 1.502 . S
C3149 H3135 0.960 . S
C3149 H3136 0.961 . S
C3149 H3137 0.959 . S
C3149 C3147 1.561 . S
C3150 C3147 1.526 . S
C3150 C3151 1.396 . S
C3150 C3155 1.390 . S
C3151 C3145 1.465 . S
C3151 C3150 1.396 . S
C3151 C3152 1.399 . S
C3152 H3138 0.929 . S
C3152 C3151 1.399 . S
C3152 C3153 1.385 . S
C3153 H3139 0.931 . S
C3153 C3152 1.385 . S
C3153 C3154 1.389 . S
C3154 C3153 1.389 . S
C3154 C3155 1.387 . S
C3155 H3140 0.930 . S
C3155 C3150 1.390 . S
C3155 C3154 1.387 . S
H3156 C3168 0.930 . S
H3157 C3170 0.930 . S
H3158 C3171 0.930 . S
H3159 C3175 0.959 . S
H3160 C3175 0.959 . S
H3161 C3175 0.961 . S
H3162 C3176 0.960 . S
H3163 C3176 0.961 . S
H3164 C3176 0.959 . S
H3165 C3179 0.929 . S
H3166 C3180 0.931 . S
H3167 C3182 0.930 . S
C3168 H3156 0.930 . S
C3168 C3169 1.399 . S
C3168 C3173 1.399 . S
C3169 C3168 1.399 . S
C3169 C3170 1.376 . S
C3170 H3157 0.930 . S
C3170 C3169 1.376 . S
C3170 C3171 1.388 . S
C3171 H3158 0.930 . S
C3171 C3170 1.388 . S
C3171 C3172 1.390 . S
C3172 C3171 1.390 . S
C3172 C3173 1.394 . S
C3172 C3178 1.465 . S
C3173 C3168 1.399 . S
C3173 C3172 1.394 . S
C3173 C3174 1.516 . S
C3174 C3173 1.516 . S
C3174 C3175 1.502 . S
C3174 C3176 1.561 . S
C3174 C3177 1.526 . S
C3175 H3159 0.959 . S
C3175 H3160 0.959 . S
C3175 H3161 0.961 . S
C3175 C3174 1.502 . S
C3176 H3162 0.960 . S
C3176 H3163 0.961 . S
C3176 H3164 0.959 . S
C3176 C3174 1.561 . S
C3177 C3174 1.526 . S
C3177 C3178 1.396 . S
C3177 C3182 1.390 . S
C3178 C3172 1.465 . S
C3178 C3177 1.396 . S
C3178 C3179 1.399 . S
C3179 H3165 0.929 . S
C3179 C3178 1.399 . S
C3179 C3180 1.385 . S
C3180 H3166 0.931 . S
C3180 C3179 1.385 . S
C3180 C3181 1.389 . S
C3181 C3180 1.389 . S
C3181 C3182 1.387 . S
C3182 H3167 0.930 . S
C3182 C3177 1.390 . S
C3182 C3181 1.387 . S
H3183 C3195 0.930 . S
H3184 C3197 0.930 . S
H3185 C3198 0.930 . S
H3186 C3202 0.959 . S
H3187 C3202 0.959 . S
H3188 C3202 0.961 . S
H3189 C3203 0.960 . S
H3190 C3203 0.961 . S
H3191 C3203 0.959 . S
H3192 C3206 0.929 . S
H3193 C3207 0.931 . S
H3194 C3209 0.930 . S
C3195 H3183 0.930 . S
C3195 C3196 1.399 . S
C3195 C3200 1.399 . S
C3196 C3195 1.399 . S
C3196 C3197 1.376 . S
C3197 H3184 0.930 . S
C3197 C3196 1.376 . S
C3197 C3198 1.388 . S
C3198 H3185 0.930 . S
C3198 C3197 1.388 . S
C3198 C3199 1.390 . S
C3199 C3198 1.390 . S
C3199 C3200 1.394 . S
C3199 C3205 1.465 . S
C3200 C3195 1.399 . S
C3200 C3199 1.394 . S
C3200 C3201 1.516 . S
C3201 C3200 1.516 . S
C3201 C3202 1.502 . S
C3201 C3203 1.561 . S
C3201 C3204 1.526 . S
C3202 H3186 0.959 . S
C3202 H3187 0.959 . S
C3202 H3188 0.961 . S
C3202 C3201 1.502 . S
C3203 H3189 0.960 . S
C3203 H3190 0.961 . S
C3203 H3191 0.959 . S
C3203 C3201 1.561 . S
C3204 C3201 1.526 . S
C3204 C3205 1.396 . S
C3204 C3209 1.390 . S
C3205 C3199 1.465 . S
C3205 C3204 1.396 . S
C3205 C3206 1.399 . S
C3206 H3192 0.929 . S
C3206 C3205 1.399 . S
C3206 C3207 1.385 . S
C3207 H3193 0.931 . S
C3207 C3206 1.385 . S
C3207 C3208 1.389 . S
C3208 C3207 1.389 . S
C3208 C3209 1.387 . S
C3209 H3194 0.930 . S
C3209 C3204 1.390 . S
C3209 C3208 1.387 . S
H3210 C3222 0.930 . S
H3211 C3224 0.930 . S
H3212 C3225 0.930 . S
H3213 C3229 0.959 . S
H3214 C3229 0.959 . S
H3215 C3229 0.961 . S
H3216 C3230 0.960 . S
H3217 C3230 0.961 . S
H3218 C3230 0.959 . S
H3219 C3233 0.929 . S
H3220 C3234 0.931 . S
H3221 C3236 0.930 . S
C3222 H3210 0.930 . S
C3222 C3223 1.399 . S
C3222 C3227 1.399 . S
C3223 C3222 1.399 . S
C3223 C3224 1.376 . S
C3224 H3211 0.930 . S
C3224 C3223 1.376 . S
C3224 C3225 1.388 . S
C3225 H3212 0.930 . S
C3225 C3224 1.388 . S
C3225 C3226 1.390 . S
C3226 C3225 1.390 . S
C3226 C3227 1.394 . S
C3226 C3232 1.465 . S
C3227 C3222 1.399 . S
C3227 C3226 1.394 . S
C3227 C3228 1.516 . S
C3228 C3227 1.516 . S
C3228 C3229 1.502 . S
C3228 C3230 1.561 . S
C3228 C3231 1.526 . S
C3229 H3213 0.959 . S
C3229 H3214 0.959 . S
C3229 H3215 0.961 . S
C3229 C3228 1.502 . S
C3230 H3216 0.960 . S
C3230 H3217 0.961 . S
C3230 H3218 0.959 . S
C3230 C3228 1.561 . S
C3231 C3228 1.526 . S
C3231 C3232 1.396 . S
C3231 C3236 1.390 . S
C3232 C3226 1.465 . S
C3232 C3231 1.396 . S
C3232 C3233 1.399 . S
C3233 H3219 0.929 . S
C3233 C3232 1.399 . S
C3233 C3234 1.385 . S
C3234 H3220 0.931 . S
C3234 C3233 1.385 . S
C3234 C3235 1.389 . S
C3235 C3234 1.389 . S
C3235 C3236 1.387 . S
C3236 H3221 0.930 . S
C3236 C3231 1.390 . S
C3236 C3235 1.387 . S
H3237 C3249 0.930 . S
H3238 C3251 0.930 . S
H3239 C3252 0.930 . S
H3240 C3256 0.959 . S
H3241 C3256 0.959 . S
H3242 C3256 0.961 . S
H3243 C3257 0.960 . S
H3244 C3257 0.961 . S
H3245 C3257 0.959 . S
H3246 C3260 0.929 . S
H3247 C3261 0.931 . S
H3248 C3263 0.930 . S
C3249 H3237 0.930 . S
C3249 C3250 1.399 . S
C3249 C3254 1.399 . S
C3250 C3249 1.399 . S
C3250 C3251 1.376 . S
C3251 H3238 0.930 . S
C3251 C3250 1.376 . S
C3251 C3252 1.388 . S
C3252 H3239 0.930 . S
C3252 C3251 1.388 . S
C3252 C3253 1.390 . S
C3253 C3252 1.390 . S
C3253 C3254 1.394 . S
C3253 C3259 1.465 . S
C3254 C3249 1.399 . S
C3254 C3253 1.394 . S
C3254 C3255 1.516 . S
C3255 C3254 1.516 . S
C3255 C3256 1.502 . S
C3255 C3257 1.561 . S
C3255 C3258 1.526 . S
C3256 H3240 0.959 . S
C3256 H3241 0.959 . S
C3256 H3242 0.961 . S
C3256 C3255 1.502 . S
C3257 H3243 0.960 . S
C3257 H3244 0.961 . S
C3257 H3245 0.959 . S
C3257 C3255 1.561 . S
C3258 C3255 1.526 . S
C3258 C3259 1.396 . S
C3258 C3263 1.390 . S
C3259 C3253 1.465 . S
C3259 C3258 1.396 . S
C3259 C3260 1.399 . S
C3260 H3246 0.929 . S
C3260 C3259 1.399 . S
C3260 C3261 1.385 . S
C3261 H3247 0.931 . S
C3261 C3260 1.385 . S
C3261 C3262 1.389 . S
C3262 C3261 1.389 . S
C3262 C3263 1.387 . S
C3263 H3248 0.930 . S
C3263 C3258 1.390 . S
C3263 C3262 1.387 . S
C685 C224 1.457 . S
C697 C0 1.477 . S
C712 C671 1.504 . S
C724 C26 1.508 . S
C739 C40 1.456 . S
C751 C642 1.497 . S
C766 C55 1.398 . S
C778 C656 1.456 . S
C793 C251 1.502 . S
C805 C68 1.516 . S
C820 C71 1.508 . S
C832 C253 1.541 . S
C847 C97 1.498 . S
C859 C266 1.537 . S
C874 C617 1.458 . S
C886 C99 1.454 . S
C901 C112 1.422 . S
C913 C13 1.490 . S
C928 C15 1.523 . S
C940 C138 1.490 . S
C955 C29 1.463 . S
C967 C141 1.401 . S
C982 C42 1.512 . S
C994 C167 1.500 . S
C1009 C57 1.500 . S
C1021 C169 1.429 . S
C1036 C194 1.454 . S
C1048 C82 1.461 . S
C1063 C84 1.467 . S
C1075 C197 1.453 . S
C1090 C223 1.486 . S
C1102 C110 1.463 . S
C1117 C237 1.404 . S
C1129 C125 1.494 . S
C1144 C180 1.460 . S
C1156 C238 1.427 . S
C1171 C264 1.458 . S
C1183 C183 1.436 . S
C1198 C279 1.495 . S
C1210 C208 1.479 . S
C1225 C547 1.476 . S
C1237 C292 1.483 . S
C1252 C307 1.419 . S
C1264 C476 1.475 . S
C1279 C502 1.491 . S
C1291 C309 1.487 . S
C1306 C463 1.519 . S
C1318 C323 1.487 . S
C1333 C572 1.493 . S
C1345 C349 1.509 . S
C1360 C363 1.452 . S
C1372 C334 1.465 . S
C1387 C376 1.450 . S
C1399 C294 1.496 . S
C1414 C391 1.472 . S
C1426 C320 1.501 . S
C1441 C392 1.470 . S
C1453 C575 1.455 . S
C1468 C589 1.423 . S
C1480 C407 1.443 . S
C1495 C433 1.454 . S
C1507 C602 1.436 . S
C1522 C281 1.507 . S
C1534 C434 1.422 . S
C1549 C336 1.517 . S
C1561 C448 1.453 . S
C1576 C474 1.464 . S
C1588 C350 1.443 . S
C1603 C489 1.487 . S
C1615 C365 1.530 . S
C1630 C491 1.376 . S
C1642 C378 1.441 . S
C1657 C505 1.484 . S
C1669 C405 1.479 . S
C1684 C519 1.457 . S
C1696 C418 1.529 . S
C1711 C420 1.512 . S
C1723 C532 1.484 . S
C1738 C447 1.506 . S
C1750 C558 1.469 . S
C1765 C461 1.498 . S
C1777 C561 1.484 . S
C1792 C516 1.523 . S
C1804 C586 1.501 . S
C1819 C530 1.497 . S
C1831 C600 1.476 . S
C1846 C615 1.420 . S
C1858 C545 1.508 . S
C1873 C628 1.457 . S
C1885 C210 1.489 . S
C1900 C631 1.447 . S
C1912 C152 1.534 . S
C1927 C154 1.436 . S
C1939 C645 1.446 . S
C1954 C658 1.441 . S
C1966 C127 1.436 . S
C1981 C12 1.557 . S
C1993 C390 1.534 . S
C2008 C348 1.707 . S
C2020 C14 1.772 . S
C2035 C28 1.505 . S
C2047 C362 1.504 . S
C2062 C43 1.744 . S
C2074 C377 1.687 . S
C2089 C56 1.615 . S
C2101 C70 1.571 . S
C2116 C96 1.805 . S
C2128 C83 1.872 . S
C2143 C85 1.578 . S
C2155 C98 1.508 . S
C2170 C111 1.847 . S
C2182 C69 1.800 . S
C2197 C124 1.563 . S
C2209 C601 1.502 . S
C2224 C126 1.807 . S
C2236 C614 1.759 . S
C2251 C153 1.728 . S
C2263 C293 1.700 . S
C2278 C155 1.854 . S
C2290 C587 1.815 . S
C2305 C181 1.502 . S
C2317 C644 1.509 . S
C2332 C236 1.790 . S
C2344 C182 1.789 . S
C2359 C209 1.687 . S
C2371 C659 1.674 . S
C2386 C630 1.800 . S
C2398 C211 1.850 . S
C2413 C139 1.518 . S
C2425 C225 1.563 . S
C2440 C250 1.746 . S
C2452 C559 1.672 . S
C2467 C252 1.756 . S
C2479 C504 1.685 . S
C2494 C518 1.764 . S
C2506 C267 1.767 . S
C2521 C280 1.690 . S
C2533 C196 1.681 . S
C2548 C490 1.627 . S
C2560 C295 1.697 . S
C2575 C449 1.701 . S
C2587 C321 1.757 . S
C2602 C488 1.836 . S
C2614 C335 1.873 . S
C2629 C337 1.734 . S
C2641 C54 1.706 . S
C2656 C351 1.788 . S
C2668 C1 1.753 . S
C2683 C27 1.723 . S
C2695 C364 1.780 . S
C2710 C379 1.804 . S
C2722 C41 1.759 . S
C2737 C404 1.675 . S
C2749 C406 1.680 . S
C2764 C432 1.638 . S
C2776 C419 1.705 . S
C2791 C435 1.723 . S
C2803 C421 1.728 . S
C2818 C446 1.708 . S
C2830 C393 1.686 . S
C2845 C265 1.712 . S
C2857 C460 1.722 . S
C2872 C462 1.741 . S
C2884 C278 1.739 . S
C2899 C477 1.579 . S
C2911 C629 1.505 . S
C2926 C503 1.695 . S
C2938 C239 1.624 . S
C2953 C517 1.766 . S
C2965 C308 1.750 . S
C2980 C531 1.752 . S
C2992 C560 1.752 . S
C3007 C322 1.591 . S
C3019 C544 1.593 . S
C3034 C546 1.707 . S
C3046 C306 1.641 . S
C3061 C475 1.723 . S
C3073 C573 1.725 . S
C3088 C222 1.554 . S
C3100 C574 1.554 . S
C3115 C168 1.772 . S
C3127 C588 1.825 . S
C3142 C603 1.500 . S
C3154 C195 1.489 . S
C3169 C616 1.834 . S
C3181 C533 1.829 . S
C3196 C166 1.598 . S
C3208 C643 1.599 . S
C3223 C657 1.781 . S
C3235 C113 1.775 . S
C3250 C140 1.633 . S
C3262 C670 1.704 . S
