# Generated by pormake.
# Topology vbm, (6)-cn, num edge types: 1
# Building blocks:
#     Node 0, Type 0, BuildingBlock: BETDEL_clean_sbu_0, # of connection points: 6
#     Node 1, Type 0, BuildingBlock: BETDEL_clean_sbu_0, # of connection points: 6
#     Node 2, Type 0, BuildingBlock: BETDEL_clean_sbu_0, # of connection points: 6
#     Node 3, Type 0, BuildingBlock: BETDEL_clean_sbu_0, # of connection points: 6
#     Node 4, Type 0, BuildingBlock: BETDEL_clean_sbu_0, # of connection points: 6
#     Node 5, Type 0, BuildingBlock: BETDEL_clean_sbu_0, # of connection points: 6
#     Node 6, Type 0, BuildingBlock: BETDEL_clean_sbu_0, # of connection points: 6
#     Node 7, Type 0, BuildingBlock: BETDEL_clean_sbu_0, # of connection points: 6
#     Node 8, Type 0, BuildingBlock: BETDEL_clean_sbu_0, # of connection points: 6
#     Node 9, Type 0, BuildingBlock: BETDEL_clean_sbu_0, # of connection points: 6
#     Node 10, Type 0, BuildingBlock: BETDEL_clean_sbu_0, # of connection points: 6
#     Node 11, Type 0, BuildingBlock: BETDEL_clean_sbu_0, # of connection points: 6
#     Node 12, Type 0, BuildingBlock: BETDEL_clean_sbu_0, # of connection points: 6
#     Node 13, Type 0, BuildingBlock: BETDEL_clean_sbu_0, # of connection points: 6
#     Node 14, Type 0, BuildingBlock: BETDEL_clean_sbu_0, # of connection points: 6
#     Node 15, Type 0, BuildingBlock: BETDEL_clean_sbu_0, # of connection points: 6
#     Edge 16, Type (0, 0), BuildingBlock: AJUNOK_clean_linker_0, # of connection points: 2
#     Edge 17, Type (0, 0), BuildingBlock: AJUNOK_clean_linker_0, # of connection points: 2
#     Edge 18, Type (0, 0), BuildingBlock: AJUNOK_clean_linker_0, # of connection points: 2
#     Edge 19, Type (0, 0), BuildingBlock: AJUNOK_clean_linker_0, # of connection points: 2
#     Edge 20, Type (0, 0), BuildingBlock: AJUNOK_clean_linker_0, # of connection points: 2
#     Edge 21, Type (0, 0), BuildingBlock: AJUNOK_clean_linker_0, # of connection points: 2
#     Edge 22, Type (0, 0), BuildingBlock: AJUNOK_clean_linker_0, # of connection points: 2
#     Edge 23, Type (0, 0), BuildingBlock: AJUNOK_clean_linker_0, # of connection points: 2
#     Edge 24, Type (0, 0), BuildingBlock: AJUNOK_clean_linker_0, # of connection points: 2
#     Edge 25, Type (0, 0), BuildingBlock: AJUNOK_clean_linker_0, # of connection points: 2
#     Edge 26, Type (0, 0), BuildingBlock: AJUNOK_clean_linker_0, # of connection points: 2
#     Edge 27, Type (0, 0), BuildingBlock: AJUNOK_clean_linker_0, # of connection points: 2
#     Edge 28, Type (0, 0), BuildingBlock: AJUNOK_clean_linker_0, # of connection points: 2
#     Edge 29, Type (0, 0), BuildingBlock: AJUNOK_clean_linker_0, # of connection points: 2
#     Edge 30, Type (0, 0), BuildingBlock: AJUNOK_clean_linker_0, # of connection points: 2
#     Edge 31, Type (0, 0), BuildingBlock: AJUNOK_clean_linker_0, # of connection points: 2
#     Edge 32, Type (0, 0), BuildingBlock: AJUNOK_clean_linker_0, # of connection points: 2
#     Edge 33, Type (0, 0), BuildingBlock: AJUNOK_clean_linker_0, # of connection points: 2
#     Edge 34, Type (0, 0), BuildingBlock: AJUNOK_clean_linker_0, # of connection points: 2
#     Edge 35, Type (0, 0), BuildingBlock: AJUNOK_clean_linker_0, # of connection points: 2
#     Edge 36, Type (0, 0), BuildingBlock: AJUNOK_clean_linker_0, # of connection points: 2
#     Edge 37, Type (0, 0), BuildingBlock: AJUNOK_clean_linker_0, # of connection points: 2
#     Edge 38, Type (0, 0), BuildingBlock: AJUNOK_clean_linker_0, # of connection points: 2
#     Edge 39, Type (0, 0), BuildingBlock: AJUNOK_clean_linker_0, # of connection points: 2
#     Edge 40, Type (0, 0), BuildingBlock: AJUNOK_clean_linker_0, # of connection points: 2
#     Edge 41, Type (0, 0), BuildingBlock: AJUNOK_clean_linker_0, # of connection points: 2
#     Edge 42, Type (0, 0), BuildingBlock: AJUNOK_clean_linker_0, # of connection points: 2
#     Edge 43, Type (0, 0), BuildingBlock: AJUNOK_clean_linker_0, # of connection points: 2
#     Edge 44, Type (0, 0), BuildingBlock: AJUNOK_clean_linker_0, # of connection points: 2
#     Edge 45, Type (0, 0), BuildingBlock: AJUNOK_clean_linker_0, # of connection points: 2
#     Edge 46, Type (0, 0), BuildingBlock: AJUNOK_clean_linker_0, # of connection points: 2
#     Edge 47, Type (0, 0), BuildingBlock: AJUNOK_clean_linker_0, # of connection points: 2
#     Edge 48, Type (0, 0), BuildingBlock: AJUNOK_clean_linker_0, # of connection points: 2
#     Edge 49, Type (0, 0), BuildingBlock: AJUNOK_clean_linker_0, # of connection points: 2
#     Edge 50, Type (0, 0), BuildingBlock: AJUNOK_clean_linker_0, # of connection points: 2
#     Edge 51, Type (0, 0), BuildingBlock: AJUNOK_clean_linker_0, # of connection points: 2
#     Edge 52, Type (0, 0), BuildingBlock: AJUNOK_clean_linker_0, # of connection points: 2
#     Edge 53, Type (0, 0), BuildingBlock: AJUNOK_clean_linker_0, # of connection points: 2
#     Edge 54, Type (0, 0), BuildingBlock: AJUNOK_clean_linker_0, # of connection points: 2
#     Edge 55, Type (0, 0), BuildingBlock: AJUNOK_clean_linker_0, # of connection points: 2
#     Edge 56, Type (0, 0), BuildingBlock: AJUNOK_clean_linker_0, # of connection points: 2
#     Edge 57, Type (0, 0), BuildingBlock: AJUNOK_clean_linker_0, # of connection points: 2
#     Edge 58, Type (0, 0), BuildingBlock: AJUNOK_clean_linker_0, # of connection points: 2
#     Edge 59, Type (0, 0), BuildingBlock: AJUNOK_clean_linker_0, # of connection points: 2
#     Edge 60, Type (0, 0), BuildingBlock: AJUNOK_clean_linker_0, # of connection points: 2
#     Edge 61, Type (0, 0), BuildingBlock: AJUNOK_clean_linker_0, # of connection points: 2
#     Edge 62, Type (0, 0), BuildingBlock: AJUNOK_clean_linker_0, # of connection points: 2
#     Edge 63, Type (0, 0), BuildingBlock: AJUNOK_clean_linker_0, # of connection points: 2
# Relax obj value: 0.061
# Max RMSD: 0.119
# Mean RMSD: 0.119
data_MOF--net-vbm--node1-BETDEL_clean_sbu_0--edge1-AJUNOK_clean_linker_0
_symmetry_space_group_name_H-M    P1
_symmetry_Int_Tables_number       1
_symmetry_cell_setting            triclinic
loop_
_symmetry_equiv_pos_as_xyz
'x, y, z'
_cell_length_a     43.179008
_cell_length_b     14.136296
_cell_length_c     40.725711
_cell_angle_alpha  90.154889
_cell_angle_beta   89.956939
_cell_angle_gamma 90.023767
loop_
_atom_site_label
_atom_site_type_symbol
_atom_site_fract_x
_atom_site_fract_y
_atom_site_fract_z
_atom_type_partial_charge
Dy0 Dy 0.12592 0.04454 0.15066 0.0
C1 C 0.10166 0.45219 0.16487 0.0
C2 C 0.12498 0.85323 0.15137 0.0
Dy3 Dy 0.10325 0.26087 0.16526 0.0
O4 O 0.14123 0.90476 0.17179 0.0
O5 O 0.11086 0.90648 0.13037 0.0
O6 O 0.13588 0.06267 0.09668 0.0
O7 O 0.11757 0.17358 0.12392 0.0
C8 C 0.12561 0.14899 0.09533 0.0
C9 C 0.10359 0.15069 0.2201 0.0
O10 O 0.05837 0.19845 0.14956 0.0
O11 O 0.07411 0.04122 0.1556 0.0
O12 O 0.08485 0.39852 0.14572 0.0
O13 O 0.11819 0.40093 0.18452 0.0
O14 O 0.09499 0.23882 0.22021 0.0
O15 O 0.11087 0.13073 0.19108 0.0
O16 O 0.17125 0.11214 0.16376 0.0
O17 O 0.15424 0.26758 0.156 0.0
C18 C 0.05244 0.10625 0.15047 0.0
C19 C 0.17657 0.20469 0.16076 0.0
Dy20 Dy 0.85236 1.00816 0.14785 0.0
C21 C 0.87757 0.61057 0.15554 0.0
C22 C 0.85074 0.20344 0.15114 0.0
Dy23 Dy 0.87604 0.80613 0.15556 0.0
O24 O 0.85229 0.15324 0.12445 0.0
O25 O 0.84816 0.14644 0.17604 0.0
O26 O 0.82875 0.96818 0.10139 0.0
O27 O 0.871 0.90198 0.11314 0.0
C28 C 0.84892 0.90463 0.09251 0.0
C29 C 0.8785 0.91417 0.2099 0.0
O30 O 0.92125 0.86866 0.14077 0.0
O31 O 0.90401 1.02116 0.15115 0.0
O32 O 0.87514 0.66456 0.18122 0.0
O33 O 0.88108 0.66397 0.12978 0.0
O34 O 0.89926 0.85068 0.2028 0.0
O35 O 0.85698 0.91237 0.18904 0.0
O36 O 0.80753 0.9424 0.16348 0.0
O37 O 0.82475 0.79127 0.1511 0.0
C38 C 0.92647 0.96063 0.14426 0.0
C39 C 0.80243 0.85032 0.15957 0.0
Dy40 Dy 0.12696 1.02266 0.40388 0.0
C41 C 0.10322 0.6248 0.39688 0.0
C42 C 0.12746 0.21784 0.40611 0.0
Dy43 Dy 0.10448 0.81989 0.39534 0.0
O44 O 0.11532 0.16206 0.42776 0.0
O45 O 0.14103 0.16656 0.38367 0.0
O46 O 0.14992 0.98491 0.4508 0.0
O47 O 0.10837 0.91581 0.43822 0.0
C48 C 0.13007 0.92028 0.45926 0.0
C49 C 0.10269 0.92335 0.33977 0.0
O50 O 0.059 0.8838 0.40817 0.0
O51 O 0.07598 0.03401 0.39463 0.0
O52 O 0.11362 0.67633 0.37301 0.0
O53 O 0.0919 0.68026 0.4195 0.0
O54 O 0.08388 0.85355 0.34576 0.0
O55 O 0.12305 0.92767 0.36201 0.0
O56 O 0.17224 0.95529 0.38966 0.0
O57 O 0.15496 0.80675 0.40456 0.0
C58 C 0.05359 0.9747 0.40275 0.0
C59 C 0.17735 0.86387 0.39517 0.0
Dy60 Dy 0.85494 0.0474 0.39122 0.0
C61 C 0.87141 0.45074 0.37748 0.0
C62 C 0.85529 0.85844 0.37776 0.0
Dy63 Dy 0.87444 0.2583 0.38244 0.0
O64 O 0.83147 0.90431 0.38946 0.0
O65 O 0.878 0.91635 0.37251 0.0
O66 O 0.85097 0.03975 0.44619 0.0
O67 O 0.86477 0.16581 0.42395 0.0
C68 C 0.85985 0.12633 0.45129 0.0
C69 C 0.87807 0.14773 0.32829 0.0
O70 O 0.9192 0.20271 0.40139 0.0
O71 O 0.90665 0.04723 0.38879 0.0
O72 O 0.85411 0.39108 0.36177 0.0
O73 O 0.89136 0.40532 0.39559 0.0
O74 O 0.89667 0.21786 0.33423 0.0
O75 O 0.85738 0.14517 0.35012 0.0
O76 O 0.80895 0.11345 0.38054 0.0
O77 O 0.8246 0.2636 0.39653 0.0
C78 C 0.92696 0.11262 0.39762 0.0
C79 C 0.80263 0.20258 0.38855 0.0
Dy80 Dy 0.87383 0.80193 0.88595 0.0
C81 C 0.85212 0.20387 0.89361 0.0
C82 C 0.87493 0.60882 0.88489 0.0
Dy83 Dy 0.84983 1.01103 0.8953 0.0
O84 O 0.86206 0.66213 0.86295 0.0
O85 O 0.88854 0.66141 0.90695 0.0
O86 O 0.89575 0.84074 0.83764 0.0
O87 O 0.85656 0.91481 0.85378 0.0
C88 C 0.87743 0.9119 0.83201 0.0
C89 C 0.85217 0.92525 0.95423 0.0
O90 O 0.80401 0.94127 0.8855 0.0
O91 O 0.82293 0.78867 0.89384 0.0
O92 O 0.86929 0.14902 0.9112 0.0
O93 O 0.83246 0.1531 0.87656 0.0
O94 O 0.84033 1.00842 0.94961 0.0
O95 O 0.85979 0.89141 0.92666 0.0
O96 O 0.91699 0.86873 0.90471 0.0
O97 O 0.90109 1.01584 0.88675 0.0
C98 C 0.79981 0.84817 0.88862 0.0
C99 C 0.92274 0.95891 0.89838 0.0
Dy100 Dy 0.10038 0.25523 0.89304 0.0
C101 C 0.12184 0.84699 0.90738 0.0
C102 C 0.09846 0.44617 0.89454 0.0
Dy103 Dy 0.12265 0.03804 0.9076 0.0
O104 O 0.08373 0.39177 0.91518 0.0
O105 O 0.11303 0.39586 0.87281 0.0
O106 O 0.09065 0.23031 0.83835 0.0
O107 O 0.10833 0.12539 0.86759 0.0
C108 C 0.10008 0.14295 0.83879 0.0
C109 C 0.12323 0.14478 0.9627 0.0
O110 O 0.16777 0.10269 0.89233 0.0
O111 O 0.15182 0.25985 0.89933 0.0
O112 O 0.10807 0.90071 0.92863 0.0
O113 O 0.13744 0.89794 0.8863 0.0
O114 O 0.13333 0.05827 0.9614 0.0
O115 O 0.11484 0.16816 0.93418 0.0
O116 O 0.05528 0.19282 0.90752 0.0
O117 O 0.07083 0.03512 0.90139 0.0
C118 C 0.17358 0.19526 0.89395 0.0
C119 C 0.04916 0.10088 0.9057 0.0
Dy120 Dy 0.87317 0.24614 0.65815 0.0
C121 C 0.85604 0.8448 0.64975 0.0
C122 C 0.87414 0.43887 0.66032 0.0
Dy123 Dy 0.85252 0.03694 0.64571 0.0
O124 O 0.89047 0.38718 0.64021 0.0
O125 O 0.85817 0.38499 0.67969 0.0
O126 O 0.89426 0.20586 0.70693 0.0
O127 O 0.85688 0.1283 0.68861 0.0
C128 C 0.87733 0.13067 0.71069 0.0
C129 C 0.85539 0.12567 0.58747 0.0
O130 O 0.8059 0.10029 0.65601 0.0
O131 O 0.82243 0.25585 0.649 0.0
O132 O 0.83335 0.89485 0.66211 0.0
O133 O 0.87562 0.89989 0.63533 0.0
O134 O 0.84507 0.04015 0.59116 0.0
O135 O 0.86143 0.16038 0.6154 0.0
O136 O 0.91769 0.18804 0.6399 0.0
O137 O 0.90373 0.03615 0.65432 0.0
C138 C 0.80022 0.19259 0.65338 0.0
C139 C 0.92484 0.09855 0.64526 0.0
Dy140 Dy 0.10343 0.81326 0.66311 0.0
C141 C 0.12597 0.21112 0.65627 0.0
C142 C 0.10133 0.61829 0.6605 0.0
Dy143 Dy 0.12493 1.0161 0.65542 0.0
O144 O 0.10364 0.66897 0.68699 0.0
O145 O 0.09863 0.67459 0.63546 0.0
O146 O 0.08105 0.85246 0.71143 0.0
O147 O 0.12195 0.92027 0.69677 0.0
C148 C 0.1011 0.91821 0.71848 0.0
C149 C 0.12939 0.91364 0.60001 0.0
O150 O 0.17053 0.95419 0.67 0.0
O151 O 0.15483 0.80069 0.65872 0.0
O152 O 0.1247 0.15807 0.63029 0.0
O153 O 0.12848 0.15723 0.68199 0.0
O154 O 0.14921 0.97765 0.60925 0.0
O155 O 0.10721 0.90937 0.62052 0.0
O156 O 0.05788 0.87203 0.64798 0.0
O157 O 0.07325 1.02594 0.6588 0.0
C158 C 0.1767 0.86284 0.66588 0.0
C159 C 0.05166 0.96333 0.65113 0.0
Dy160 Dy 0.62637 0.53878 0.15381 0.0
C161 C 0.60287 0.93644 0.16073 0.0
C162 C 0.62761 0.34399 0.15803 0.0
Dy163 Dy 0.60468 0.74115 0.16097 0.0
O164 O 0.62868 0.39277 0.1311 0.0
O165 O 0.62759 0.40209 0.18284 0.0
O166 O 0.64999 0.57409 0.107 0.0
O167 O 0.60821 0.64372 0.11856 0.0
C168 C 0.63011 0.6378 0.09775 0.0
C169 C 0.60157 0.63593 0.2159 0.0
O170 O 0.55924 0.68314 0.14508 0.0
O171 O 0.57452 0.52935 0.15592 0.0
O172 O 0.60314 0.88312 0.1866 0.0
O173 O 0.60198 0.88257 0.13479 0.0
O174 O 0.58109 0.69948 0.2082 0.0
O175 O 0.62318 0.6356 0.19505 0.0
O176 O 0.67201 0.60141 0.16811 0.0
O177 O 0.65603 0.75378 0.15625 0.0
C178 C 0.5529 0.59193 0.14838 0.0
C179 C 0.67807 0.69252 0.16351 0.0
Dy180 Dy 0.35179 0.52274 0.14497 0.0
C181 C 0.37563 0.11461 0.16065 0.0
C182 C 0.35071 0.71401 0.14871 0.0
Dy183 Dy 0.37444 0.30607 0.1589 0.0
O184 O 0.33711 0.65824 0.16978 0.0
O185 O 0.36345 0.66499 0.12543 0.0
O186 O 0.34199 0.50697 0.09101 0.0
O187 O 0.35945 0.39323 0.11759 0.0
C188 C 0.35183 0.42026 0.08909 0.0
C189 C 0.37494 0.41784 0.2136 0.0
O190 O 0.41936 0.36687 0.14356 0.0
O191 O 0.40392 0.52507 0.14869 0.0
O192 O 0.38988 0.16543 0.13852 0.0
O193 O 0.36189 0.16878 0.18181 0.0
O194 O 0.38333 0.32962 0.21379 0.0
O195 O 0.36747 0.4367 0.18463 0.0
O196 O 0.30657 0.45493 0.15909 0.0
O197 O 0.32343 0.29918 0.15132 0.0
C198 C 0.42551 0.4589 0.14443 0.0
C199 C 0.30141 0.36193 0.15743 0.0
Dy200 Dy 0.62664 0.51297 0.39943 0.0
C201 C 0.60339 0.11547 0.39104 0.0
C202 C 0.62828 0.70804 0.39661 0.0
Dy203 Dy 0.60424 0.31079 0.39212 0.0
O204 O 0.62344 0.65784 0.42272 0.0
O205 O 0.63395 0.65121 0.37212 0.0
O206 O 0.64992 0.47762 0.44637 0.0
O207 O 0.60812 0.4081 0.43458 0.0
C208 C 0.62999 0.41375 0.45543 0.0
C209 C 0.60151 0.41553 0.33704 0.0
O210 O 0.55854 0.37117 0.40591 0.0
O211 O 0.57503 0.52364 0.39446 0.0
O212 O 0.60977 0.17017 0.36645 0.0
O213 O 0.59577 0.16793 0.41614 0.0
O214 O 0.58127 0.35093 0.34447 0.0
O215 O 0.62295 0.41637 0.3581 0.0
O216 O 0.67218 0.44708 0.38601 0.0
O217 O 0.65504 0.29779 0.40022 0.0
C218 C 0.55287 0.46244 0.40167 0.0
C219 C 0.67748 0.35595 0.39164 0.0
Dy220 Dy 0.35354 0.54699 0.3984 0.0
C221 C 0.37391 0.94447 0.38891 0.0
C222 C 0.35218 0.352 0.39821 0.0
Dy223 Dy 0.37339 0.74956 0.38945 0.0
O224 O 0.3653 0.40481 0.42021 0.0
O225 O 0.33842 0.40603 0.37694 0.0
O226 O 0.33061 0.58136 0.44565 0.0
O227 O 0.37121 0.6554 0.43297 0.0
C228 C 0.34971 0.64799 0.45422 0.0
C229 C 0.37569 0.64514 0.33376 0.0
O230 O 0.41955 0.6925 0.40252 0.0
O231 O 0.40483 0.53968 0.3896 0.0
O232 O 0.36401 0.89008 0.36553 0.0
O233 O 0.38497 0.892 0.41238 0.0
O234 O 0.39439 0.71495 0.34002 0.0
O235 O 0.3554 0.64007 0.35609 0.0
O236 O 0.30723 0.61012 0.3861 0.0
O237 O 0.32307 0.76124 0.39965 0.0
C238 C 0.42641 0.60256 0.39723 0.0
C239 C 0.30105 0.70072 0.39193 0.0
Dy240 Dy 0.37284 0.29975 0.88542 0.0
C241 C 0.34687 0.70146 0.88359 0.0
C242 C 0.37415 0.10555 0.8848 0.0
Dy243 Dy 0.34906 0.51118 0.89577 0.0
O244 O 0.37632 0.15938 0.8591 0.0
O245 O 0.37295 0.15817 0.91103 0.0
O246 O 0.39481 0.34969 0.83829 0.0
O247 O 0.35352 0.41264 0.85476 0.0
C248 C 0.37435 0.4155 0.83297 0.0
C249 C 0.35556 0.42474 0.9544 0.0
O250 O 0.30336 0.4419 0.88508 0.0
O251 O 0.32137 0.28614 0.88766 0.0
O252 O 0.33065 0.6579 0.90594 0.0
O253 O 0.36287 0.64004 0.86693 0.0
O254 O 0.34508 0.51033 0.95105 0.0
O255 O 0.36123 0.39182 0.92617 0.0
O256 O 0.41646 0.36207 0.90492 0.0
O257 O 0.40101 0.51833 0.89648 0.0
C258 C 0.29865 0.34867 0.88537 0.0
C259 C 0.42239 0.45421 0.90367 0.0
Dy260 Dy 0.60216 0.73516 0.89351 0.0
C261 C 0.62499 0.33817 0.89903 0.0
C262 C 0.6005 0.93033 0.89606 0.0
Dy263 Dy 0.62332 0.53336 0.90092 0.0
O264 O 0.60114 0.8795 0.86948 0.0
O265 O 0.59912 0.87407 0.92122 0.0
O266 O 0.57912 0.69397 0.84575 0.0
O267 O 0.62079 0.62885 0.85944 0.0
C268 C 0.59957 0.62996 0.83818 0.0
C269 C 0.62804 0.63458 0.95656 0.0
O270 O 0.6691 0.59568 0.88618 0.0
O271 O 0.65343 0.74857 0.8979 0.0
O272 O 0.62603 0.39033 0.92525 0.0
O273 O 0.62473 0.39317 0.87345 0.0
O274 O 0.64778 0.57076 0.94703 0.0
O275 O 0.60572 0.63937 0.93624 0.0
O276 O 0.55655 0.67866 0.90894 0.0
O277 O 0.57126 0.52393 0.89881 0.0
C278 C 0.67535 0.68698 0.89058 0.0
C279 C 0.54974 0.5879 0.90565 0.0
Dy280 Dy 0.37456 0.74975 0.65831 0.0
C281 C 0.34941 0.35303 0.65557 0.0
C282 C 0.3753 0.94514 0.65456 0.0
Dy283 Dy 0.35165 0.54832 0.65149 0.0
O284 O 0.38167 0.89575 0.68057 0.0
O285 O 0.37049 0.88729 0.63025 0.0
O286 O 0.39631 0.7093 0.70676 0.0
O287 O 0.35446 0.64633 0.69239 0.0
C288 C 0.3753 0.64687 0.71406 0.0
C289 C 0.34926 0.64722 0.59522 0.0
O290 O 0.30668 0.61436 0.66766 0.0
O291 O 0.32349 0.76474 0.65462 0.0
O292 O 0.34117 0.40334 0.6304 0.0
O293 O 0.35723 0.41013 0.67924 0.0
O294 O 0.32889 0.58484 0.6043 0.0
O295 O 0.37104 0.65119 0.61618 0.0
O296 O 0.41948 0.69055 0.642 0.0
O297 O 0.40374 0.53656 0.65198 0.0
C298 C 0.30121 0.70601 0.66305 0.0
C299 C 0.42567 0.59939 0.64524 0.0
Dy300 Dy 0.60307 0.30989 0.65981 0.0
C301 C 0.62742 0.70682 0.65562 0.0
C302 C 0.60196 0.11435 0.6607 0.0
Dy303 Dy 0.62574 0.51167 0.65212 0.0
O304 O 0.60646 0.16923 0.68582 0.0
O305 O 0.59627 0.16678 0.63516 0.0
O306 O 0.57973 0.35365 0.70714 0.0
O307 O 0.6218 0.41665 0.6936 0.0
C308 C 0.60033 0.41726 0.71464 0.0
C309 C 0.62982 0.41031 0.59646 0.0
O310 O 0.67136 0.44574 0.66524 0.0
O311 O 0.6539 0.29487 0.65292 0.0
O312 O 0.62471 0.65686 0.62901 0.0
O313 O 0.63098 0.64966 0.68035 0.0
O314 O 0.64963 0.47457 0.60562 0.0
O315 O 0.60769 0.40577 0.61707 0.0
O316 O 0.55786 0.36818 0.64396 0.0
O317 O 0.57381 0.52206 0.65431 0.0
C318 C 0.67641 0.3539 0.66055 0.0
C319 C 0.55199 0.45974 0.64681 0.0
C320 C 0.21396 0.33859 0.1528 0.0
C321 C 0.2087 0.24286 0.1613 0.0
C322 C 0.24378 0.37784 0.1526 0.0
C323 C 0.26965 0.32304 0.16078 0.0
H324 H 0.19493 0.38405 0.14571 0.0
H325 H 0.2466 0.45083 0.14512 0.0
S326 S 0.26864 0.07157 0.18781 0.0
N327 N 0.23203 0.0963 0.18005 0.0
N328 N 0.28801 0.16959 0.17996 0.0
C329 C 0.26473 0.22802 0.17031 0.0
C330 C 0.23434 0.18807 0.17046 0.0
C331 C 0.74483 0.86755 0.16134 0.0
C332 C 0.77104 0.80962 0.16362 0.0
C333 C 0.71503 0.82869 0.16211 0.0
C334 C 0.71014 0.7302 0.16528 0.0
H335 H 0.74728 0.94318 0.15798 0.0
H336 H 0.69568 0.87686 0.1596 0.0
S337 S 0.77128 0.54855 0.17579 0.0
N338 N 0.79033 0.64914 0.17201 0.0
N339 N 0.73427 0.57658 0.17308 0.0
C340 C 0.73616 0.67181 0.16898 0.0
C341 C 0.76659 0.71138 0.16821 0.0
C342 C 0.2647 0.83831 0.39168 0.0
C343 C 0.26912 0.73915 0.39059 0.0
C344 C 0.23508 0.87855 0.39226 0.0
C345 C 0.20861 0.82138 0.39192 0.0
H346 H 0.28433 0.88605 0.39242 0.0
H347 H 0.233 0.95481 0.39379 0.0
S348 S 0.2072 0.55806 0.38626 0.0
N349 N 0.24434 0.58529 0.38729 0.0
N350 N 0.1886 0.65989 0.388 0.0
C351 C 0.21261 0.72205 0.38963 0.0
C352 C 0.24285 0.68123 0.38903 0.0
C353 C 0.76511 0.33711 0.38903 0.0
C354 C 0.77038 0.23851 0.38845 0.0
C355 C 0.73513 0.37483 0.38934 0.0
C356 C 0.70912 0.31548 0.38949 0.0
H357 H 0.78433 0.38616 0.3893 0.0
H358 H 0.73241 0.45101 0.39007 0.0
S359 S 0.71006 0.05176 0.38745 0.0
N360 N 0.74695 0.0823 0.38755 0.0
N361 N 0.69056 0.15209 0.3881 0.0
C362 C 0.714 0.21641 0.38854 0.0
C363 C 0.7446 0.17822 0.38803 0.0
C364 C 0.71216 0.82385 0.88959 0.0
C365 C 0.70737 0.72491 0.88808 0.0
C366 C 0.74192 0.86334 0.8891 0.0
C367 C 0.76828 0.80577 0.88717 0.0
H368 H 0.69275 0.87203 0.89151 0.0
H369 H 0.74421 0.9395 0.89088 0.0
S370 S 0.76857 0.54244 0.88038 0.0
N371 N 0.73159 0.57066 0.88306 0.0
N372 N 0.78754 0.64369 0.88179 0.0
C373 C 0.76384 0.70654 0.88467 0.0
C374 C 0.73344 0.66649 0.88518 0.0
C375 C 0.24171 0.36603 0.89489 0.0
C376 C 0.26671 0.30992 0.88471 0.0
C377 C 0.21192 0.32783 0.89777 0.0
C378 C 0.20573 0.23178 0.89051 0.0
H379 H 0.24526 0.43945 0.9016 0.0
H380 H 0.19368 0.37446 0.90625 0.0
S381 S 0.26287 0.05634 0.86003 0.0
N382 N 0.28309 0.1543 0.86528 0.0
N383 N 0.22707 0.08296 0.87084 0.0
C384 C 0.2304 0.17539 0.87944 0.0
C385 C 0.26082 0.21432 0.87646 0.0
C386 C 0.73372 0.3691 0.65375 0.0
C387 C 0.70797 0.31334 0.66155 0.0
C388 C 0.7632 0.32869 0.6509 0.0
C389 C 0.76824 0.23082 0.65593 0.0
H390 H 0.73099 0.44392 0.64885 0.0
H391 H 0.78214 0.37527 0.64441 0.0
S392 S 0.70842 0.05535 0.67968 0.0
N393 N 0.68939 0.15607 0.6763 0.0
N394 N 0.74481 0.08051 0.67084 0.0
C395 C 0.74271 0.1747 0.6646 0.0
C396 C 0.71263 0.21588 0.66749 0.0
C397 C 0.21379 0.72746 0.66976 0.0
C398 C 0.20878 0.82616 0.66813 0.0
C399 C 0.24368 0.68889 0.66912 0.0
C400 C 0.26979 0.7474 0.66672 0.0
H401 H 0.19443 0.67886 0.67102 0.0
H402 H 0.24622 0.61268 0.66965 0.0
S403 S 0.26948 1.01134 0.66429 0.0
N404 N 0.23256 0.98164 0.66576 0.0
N405 N 0.28871 0.91058 0.66496 0.0
C406 C 0.26515 0.84674 0.66638 0.0
C407 C 0.23469 0.88574 0.66702 0.0
C408 C 0.11186 0.07411 0.30904 0.0
C409 C 0.10356 0.97805 0.30857 0.0
C410 C 0.11192 0.12868 0.28024 0.0
C411 C 0.10458 0.0887 0.24953 0.0
H412 H 0.11746 0.10818 0.332 0.0
H413 H 0.11784 0.20301 0.28206 0.0
S414 S 0.08129 0.83984 0.23462 0.0
N415 N 0.08739 0.84513 0.27465 0.0
N416 N 0.08858 0.9469 0.22038 0.0
C417 C 0.09668 0.99228 0.24851 0.0
C418 C 0.09582 0.93722 0.27805 0.0
C419 C 0.85331 0.02988 0.29005 0.0
C420 C 0.87874 0.08802 0.2981 0.0
C421 C 0.85313 0.97498 0.26115 0.0
C422 C 0.87872 0.9741 0.23976 0.0
H423 H 0.83324 1.02752 0.306 0.0
H424 H 0.83304 0.93168 0.25577 0.0
S425 S 0.95059 0.11482 0.24872 0.0
N426 N 0.92977 0.14315 0.28136 0.0
N427 N 0.92974 0.03705 0.22798 0.0
C428 C 0.90428 0.03118 0.2475 0.0
C429 C 0.90421 0.08887 0.27643 0.0
C430 C 0.86769 0.11445 0.77115 0.0
C431 C 0.87661 0.07326 0.7411 0.0
C432 C 0.86744 0.06145 0.80041 0.0
C433 C 0.87695 0.96626 0.8008 0.0
H434 H 0.86072 0.18804 0.77201 0.0
H435 H 0.86044 0.09581 0.82297 0.0
S436 S 0.9027 0.82605 0.72856 0.0
N437 N 0.89482 0.93163 0.71347 0.0
N438 N 0.89547 0.83317 0.76833 0.0
C439 C 0.88614 0.92471 0.77088 0.0
C440 C 0.88565 0.97793 0.74105 0.0
C441 C 0.07688 1.02021 0.80166 0.0
C442 C 0.10183 0.07952 0.80991 0.0
C443 C 0.07696 0.96753 0.77221 0.0
C444 C 0.10191 0.97278 0.7499 0.0
H445 H 0.05692 1.01602 0.81773 0.0
H446 H 0.05708 0.92354 0.76665 0.0
S447 S 0.17326 0.11627 0.7612 0.0
N448 N 0.15225 0.13951 0.79416 0.0
N449 N 0.15278 0.04047 0.7392 0.0
C450 C 0.12722 0.03093 0.75839 0.0
C451 C 0.12705 0.08439 0.78828 0.0
C452 C 0.62898 0.50353 0.292 0.0
C453 C 0.60112 0.47231 0.30635 0.0
C454 C 0.62902 0.55469 0.26235 0.0
C455 C 0.60116 0.57921 0.24657 0.0
H456 H 0.65095 0.48695 0.30345 0.0
H457 H 0.651 0.57662 0.25203 0.0
S458 S 0.52201 0.51589 0.27429 0.0
N459 N 0.54499 0.46918 0.30231 0.0
N460 N 0.54504 0.56843 0.24754 0.0
C461 C 0.57319 0.54948 0.2609 0.0
C462 C 0.57318 0.49524 0.29053 0.0
C463 C 0.3635 0.49778 0.30185 0.0
C464 C 0.37478 0.591 0.30225 0.0
C465 C 0.3635 0.44306 0.27299 0.0
C466 C 0.37373 0.48049 0.24293 0.0
H467 H 0.35534 0.46582 0.32419 0.0
H468 H 0.35532 0.37066 0.27424 0.0
S469 S 0.40495 0.72185 0.23 0.0
N470 N 0.39658 0.71867 0.2696 0.0
N471 N 0.39526 0.61714 0.21508 0.0
C472 C 0.38438 0.57444 0.2426 0.0
C473 C 0.38528 0.62933 0.2723 0.0
C474 C 0.40195 0.50332 0.78804 0.0
C475 C 0.37399 0.47777 0.80351 0.0
C476 C 0.40222 0.55982 0.75957 0.0
C477 C 0.37449 0.59031 0.74485 0.0
H478 H 0.42385 0.47989 0.79813 0.0
H479 H 0.42429 0.57789 0.74857 0.0
S480 S 0.29509 0.54324 0.77565 0.0
N481 N 0.31788 0.48958 0.80231 0.0
N482 N 0.31832 0.5917 0.74818 0.0
C483 C 0.3464 0.56509 0.76002 0.0
C484 C 0.34616 0.51002 0.78952 0.0
C485 C 0.57254 0.54879 0.79122 0.0
C486 C 0.6003 0.57629 0.80666 0.0
C487 C 0.57275 0.49666 0.76165 0.0
C488 C 0.6007 0.4727 0.74582 0.0
H489 H 0.55048 0.56626 0.80238 0.0
H490 H 0.55082 0.47593 0.75089 0.0
S491 S 0.67971 0.53065 0.77555 0.0
N492 N 0.6565 0.57577 0.80378 0.0
N493 N 0.65687 0.48194 0.74772 0.0
C494 C 0.62858 0.5014 0.76071 0.0
C495 C 0.62839 0.55198 0.79126 0.0
C496 C 0.15048 0.20802 1.01103 0.0
C497 C 0.12244 0.19921 0.99375 0.0
C498 C 0.1511 0.20909 0.04553 0.0
C499 C 0.12371 0.20143 0.06402 0.0
H500 H 0.17228 0.20195 0.99798 0.0
H501 H 0.17336 0.20379 0.05767 0.0
S502 S 0.04402 0.19356 0.0306 0.0
N503 N 0.0664 0.19663 0.99766 0.0
N504 N 0.06758 0.19876 0.06253 0.0
C505 C 0.09539 0.20535 0.04709 0.0
C506 C 0.09475 0.20419 1.01186 0.0
C507 C 0.82446 0.87589 1.00425 0.0
C508 C 0.85259 0.88027 0.98696 0.0
C509 C 0.82377 0.87374 0.03868 0.0
C510 C 0.85121 0.87679 0.0573 0.0
H511 H 0.80273 0.88278 0.99116 0.0
H512 H 0.80147 0.87738 0.05084 0.0
S513 S 0.93107 0.87717 1.02364 0.0
N514 N 0.90864 0.87815 0.99077 0.0
N515 N 0.90751 0.87376 0.05563 0.0
C516 C 0.87959 0.872 0.04029 0.0
C517 C 0.88024 0.87404 1.00504 0.0
C518 C 0.15555 0.8854 0.51235 0.0
C519 C 0.1279 0.89132 0.49426 0.0
C520 C 0.15539 0.88358 0.54674 0.0
C521 C 0.12756 0.88772 0.56465 0.0
H522 H 0.1777 0.88823 0.49985 0.0
H523 H 0.17742 0.88515 0.55947 0.0
S524 S 0.04849 0.89185 0.5291 0.0
N525 N 0.07164 0.89149 0.49674 0.0
N526 N 0.07132 0.88823 0.56164 0.0
C527 C 0.09955 0.88537 0.54694 0.0
C528 C 0.09972 0.88715 0.51165 0.0
C529 C 0.88617 0.16755 0.53795 0.0
C530 C 0.85768 0.17054 0.55476 0.0
C531 C 0.88731 0.16673 0.5033 0.0
C532 C 0.86 0.16936 0.48446 0.0
H533 H 0.90738 0.15512 0.55148 0.0
H534 H 0.90936 0.15401 0.49135 0.0
S535 S 0.78007 0.19032 0.51669 0.0
N536 N 0.80197 0.18631 0.54992 0.0
N537 N 0.80413 0.18549 0.48516 0.0
C538 C 0.83177 0.18177 0.50103 0.0
C539 C 0.83061 0.18226 0.53613 0.0
C540 C 0.65538 0.66455 0.04383 0.0
C541 C 0.62788 0.66286 0.06235 0.0
C542 C 0.65485 0.66398 1.00943 0.0
C543 C 0.6268 0.66156 0.99189 0.0
H544 H 0.67763 0.66063 0.05605 0.0
H545 H 0.67672 0.65959 0.99644 0.0
S546 S 0.54813 0.66804 0.0285 0.0
N547 N 0.57161 0.6682 0.06054 0.0
N548 N 0.57063 0.66695 0.99564 0.0
C549 C 0.59903 0.66778 1.00994 0.0
C550 C 0.59957 0.66845 0.04525 0.0
C551 C 0.38421 0.38278 1.00541 0.0
C552 C 0.35688 0.37678 0.98668 0.0
C553 C 0.38329 0.37979 0.04006 0.0
C554 C 0.355 0.37134 0.05707 0.0
H555 H 0.40588 0.40058 0.99349 0.0
H556 H 0.40428 0.39601 0.05352 0.0
S557 S 0.27771 0.33941 1.01921 0.0
N558 N 0.30144 0.3502 0.9876 0.0
N559 N 0.2997 0.34541 0.05234 0.0
C560 C 0.32815 0.35505 0.03844 0.0
C561 C 0.32908 0.35778 1.00333 0.0
C562 C 0.65573 0.38156 0.50865 0.0
C563 C 0.62801 0.38657 0.49064 0.0
C564 C 0.65568 0.38042 0.54306 0.0
C565 C 0.62791 0.38439 0.56108 0.0
H566 H 0.67784 0.38429 0.49606 0.0
H567 H 0.67776 0.38242 0.5557 0.0
S568 S 0.54872 0.38715 0.52581 0.0
N569 N 0.57176 0.38631 0.49337 0.0
N570 N 0.57166 0.38441 0.55827 0.0
C571 C 0.59985 0.38152 0.54348 0.0
C572 C 0.5999 0.38257 0.50817 0.0
C573 C 0.32385 0.67967 0.54185 0.0
C574 C 0.35151 0.67398 0.55995 0.0
C575 C 0.32397 0.68028 0.50744 0.0
C576 C 0.35175 0.67529 0.48947 0.0
H577 H 0.3017 0.67775 0.55437 0.0
H578 H 0.30191 0.67857 0.49475 0.0
S579 S 0.43086 0.6709 0.52492 0.0
N580 N 0.40777 0.67274 0.55733 0.0
N581 N 0.40798 0.67376 0.4924 0.0
C582 C 0.37979 0.67762 0.50713 0.0
C583 C 0.37967 0.677 0.54246 0.0
C584 C 0.98386 0.93783 0.14657 0.0
C585 C 0.95844 0.99857 0.14287 0.0
C586 C 0.01404 0.97355 0.14858 0.0
C587 C 0.02012 0.07164 0.14689 0.0
H588 H 0.98045 0.8622 0.14886 0.0
H589 H 0.03267 0.92325 0.15199 0.0
S590 S 0.9616 0.26048 0.13428 0.0
N591 N 0.94136 0.16156 0.13534 0.0
N592 N -0.00198 0.22839 0.13929 0.0
C593 C -0.00506 0.13302 0.14206 0.0
C594 C 0.96416 0.09661 0.14001 0.0
C595 C 0.96604 0.98322 0.4013 0.0
C596 C 0.95947 0.08106 0.40167 0.0
C597 C -0.00358 0.94942 0.40252 0.0
C598 C 0.02159 1.01192 0.40402 0.0
H599 H 0.94759 0.93149 0.39956 0.0
H600 H 0.00014 0.87369 0.40141 0.0
S601 S 0.0172 0.27454 0.40884 0.0
N602 N 0.98078 0.23992 0.40588 0.0
N603 N 0.03801 0.17667 0.40841 0.0
C604 C 0.01544 0.10998 0.40572 0.0
C605 C 0.98438 0.14446 0.40453 0.0
C606 C 0.00988 0.97146 0.91054 0.0
C607 C 0.01651 0.06833 0.90618 0.0
C608 C 0.97953 0.93682 0.90862 0.0
C609 C 0.95455 0.9975 0.90204 0.0
H610 H 0.02832 0.9213 0.91517 0.0
H611 H 0.97578 0.86161 0.91174 0.0
S612 S 0.95918 0.25836 0.89025 0.0
N613 N -0.00467 0.22503 0.89619 0.0
N614 N 0.93841 0.16071 0.89262 0.0
C615 C 0.96075 0.09514 0.89849 0.0
C616 C -0.00834 0.13035 0.90059 0.0
C617 C 0.96408 0.96939 0.64908 0.0
C618 C 0.95745 0.06608 0.64402 0.0
C619 C -0.00545 0.93617 0.65041 0.0
C620 C 0.01965 0.99827 0.64691 0.0
H621 H 0.94562 0.91849 0.65263 0.0
H622 H -0.00162 0.86171 0.65514 0.0
S623 S 0.01519 0.25626 0.62978 0.0
N624 N 0.97875 0.22229 0.63313 0.0
N625 N 0.03606 0.15996 0.63548 0.0
C626 C 0.01347 0.09452 0.64053 0.0
C627 C 0.98237 0.12836 0.63909 0.0
C628 C 0.46516 0.58817 0.14567 0.0
C629 C 0.45824 0.49084 0.14285 0.0
C630 C 0.49579 0.62063 0.14651 0.0
C631 C 0.52074 0.55731 0.14471 0.0
H632 H 0.44687 0.64002 0.14788 0.0
H633 H 0.49985 0.69592 0.14949 0.0
S634 S 0.51552 0.29622 0.13424 0.0
N635 N 0.47921 0.33201 0.13621 0.0
N636 N 0.53663 0.39297 0.13768 0.0
C637 C 0.51425 0.46005 0.14074 0.0
C638 C 0.48305 0.42702 0.13983 0.0
C639 C 0.46543 0.47199 0.39554 0.0
C640 C 0.45888 0.56915 0.39959 0.0
C641 C 0.49576 0.43741 0.39725 0.0
C642 C 0.52077 0.49861 0.40289 0.0
H643 H 0.44705 0.42168 0.39075 0.0
H644 H 0.49963 0.36253 0.39329 0.0
S645 S 0.51629 0.75809 0.4174 0.0
N646 N 0.48009 0.72535 0.41106 0.0
N647 N 0.53703 0.66049 0.41437 0.0
C648 C 0.51459 0.5956 0.4078 0.0
C649 C 0.48368 0.63082 0.40613 0.0
C650 C 0.47956 0.42581 0.90357 0.0
C651 C 0.45461 0.48827 0.90793 0.0
C652 C 0.51016 0.45863 0.90367 0.0
C653 C 0.51713 0.55529 0.90827 0.0
H654 H 0.47548 0.35138 0.89888 0.0
H655 H 0.52842 0.40756 0.89936 0.0
S656 S 0.46016 0.74658 0.92453 0.0
N657 N 0.43894 0.65044 0.9198 0.0
N658 N 0.49639 0.71197 0.91986 0.0
C659 C 0.49243 0.61793 0.91417 0.0
C660 C 0.46123 0.58448 0.91403 0.0
C661 C 0.46443 0.46845 0.64817 0.0
C662 C 0.45799 0.56489 0.64252 0.0
C663 C 0.49482 0.43417 0.64837 0.0
C664 C 0.51999 0.49502 0.6431 0.0
H665 H 0.44594 0.4188 0.65327 0.0
H666 H 0.4986 0.36009 0.6538 0.0
S667 S 0.51585 0.75124 0.62332 0.0
N668 N 0.47946 0.71911 0.62876 0.0
N669 N 0.53657 0.65469 0.62913 0.0
C670 C 0.51393 0.59075 0.63597 0.0
C671 C 0.48295 0.62568 0.63567 0.0
C672 C 0.13349 0.69808 0.17884 0.0
C673 C 0.11912 0.75091 0.15408 0.0
C674 C 0.12692 0.60177 0.18265 0.0
C675 C 0.10569 0.55518 0.1619 0.0
H676 H 0.14985 0.73126 0.19542 0.0
H677 H 0.13888 0.56339 0.20182 0.0
S678 S 0.06105 0.66272 0.09394 0.0
N679 N 0.08209 0.7503 0.10888 0.0
N680 N 0.06986 0.56926 0.11626 0.0
C681 C 0.09084 0.60742 0.13735 0.0
C682 C 0.09758 0.70536 0.13335 0.0
C683 C 0.86384 0.35865 0.12425 0.0
C684 C 0.85649 0.30767 0.15294 0.0
C685 C 0.87128 0.45574 0.12535 0.0
C686 C 0.87177 0.50618 0.15521 0.0
H687 H 0.86409 0.32313 0.10065 0.0
H688 H 0.87649 0.49164 0.10254 0.0
S689 S 0.85432 0.40612 0.23749 0.0
N690 N 0.8503 0.31551 0.21217 0.0
N691 N 0.86406 0.4971 0.21431 0.0
C692 C 0.86448 0.45601 0.1841 0.0
C693 C 0.85691 0.35718 0.18296 0.0
C694 C 0.13188 0.3752 0.3776 0.0
C695 C 0.12203 0.32207 0.40484 0.0
C696 C 0.1251 0.47237 0.37501 0.0
C697 C 0.10822 0.52063 0.39955 0.0
H698 H 0.1447 0.34139 0.35795 0.0
H699 H 0.13343 0.51013 0.35365 0.0
S700 S 0.07696 0.41419 0.47586 0.0
N701 N 0.09431 0.32542 0.45689 0.0
N702 N 0.08182 0.5073 0.452 0.0
C703 C 0.09824 0.46838 0.4269 0.0
C704 C 0.1051 0.36945 0.42955 0.0
C705 C 0.89185 0.61546 0.3832 0.0
C706 C 0.867 0.55441 0.37656 0.0
C707 C 0.88788 0.71396 0.38254 0.0
C708 C 0.85869 0.75466 0.37628 0.0
H709 H 0.91456 0.58701 0.38867 0.0
H710 H 0.90769 0.75857 0.38778 0.0
S711 S 0.78615 0.62569 0.35768 0.0
N712 N 0.81228 0.5417 0.36281 0.0
N713 N 0.80464 0.72676 0.36335 0.0
C714 C 0.83363 0.69455 0.36986 0.0
C715 C 0.83785 0.59435 0.36951 0.0
C716 C 0.84384 0.36213 0.86702 0.0
C717 C 0.85712 0.30748 0.89206 0.0
C718 C 0.85038 0.45929 0.86442 0.0
C719 C 0.87029 0.50517 0.88685 0.0
H720 H 0.82862 0.32956 0.84913 0.0
H721 H 0.83947 0.4989 0.84486 0.0
S722 S 0.91059 0.39391 0.95716 0.0
N723 N 0.8909 0.3068 0.93999 0.0
N724 N 0.90303 0.4885 0.9349 0.0
C725 C 0.88362 0.4513 0.91198 0.0
C726 C 0.87704 0.35272 0.91465 0.0
C727 C 0.12186 0.59638 0.87516 0.0
C728 C 0.10269 0.54893 0.89775 0.0
C729 C 0.12857 0.69261 0.87879 0.0
C730 C 0.11634 0.74452 0.90515 0.0
H731 H 0.13206 0.55878 0.85462 0.0
H732 H 0.14324 0.72655 0.86072 0.0
S733 S 0.06469 0.65332 0.97094 0.0
N734 N 0.07145 0.56074 0.94722 0.0
N735 N 0.08397 0.74185 0.95424 0.0
C736 C 0.09704 0.69797 0.92791 0.0
C737 C 0.09018 0.60002 0.92413 0.0
C738 C 0.84088 0.6855 0.67162 0.0
C739 C 0.86084 0.74153 0.65262 0.0
C740 C 0.84586 0.5877 0.67471 0.0
C741 C 0.87082 0.54274 0.65871 0.0
H742 H 0.82133 0.71726 0.68417 0.0
H743 H 0.82968 0.54681 0.68925 0.0
S744 S 0.93057 0.65839 0.60726 0.0
N745 N 0.90726 0.74512 0.61849 0.0
N746 N 0.91618 0.5619 0.62415 0.0
C747 C 0.89114 0.59813 0.64004 0.0
C748 C 0.88624 0.69743 0.63704 0.0
C749 C 0.12068 0.36587 0.68646 0.0
C750 C 0.12032 0.3152 0.65666 0.0
C751 C 0.11383 0.46324 0.68753 0.0
C752 C 0.10621 0.51394 0.65889 0.0
H753 H 0.12625 0.33006 0.70919 0.0
H754 H 0.1148 0.49921 0.71103 0.0
S755 S 0.10095 0.41391 0.57473 0.0
N756 N 0.11098 0.32312 0.59782 0.0
N757 N 0.09817 0.50523 0.59992 0.0
C758 C 0.10547 0.46392 0.62899 0.0
C759 C 0.11252 0.36492 0.62787 0.0
C760 C 0.61175 0.08982 0.13099 0.0
C761 C 0.60798 0.04091 0.16079 0.0
C762 C 0.61868 0.18715 0.13042 0.0
C763 C 0.62218 0.23983 0.15962 0.0
H764 H 0.60959 0.0525 0.10784 0.0
H765 H 0.62113 0.22145 0.1068 0.0
S766 S 0.61445 0.14592 0.24426 0.0
N767 N 0.60821 0.05321 0.2204 0.0
N768 N 0.62105 0.23548 0.21925 0.0
C769 C 0.61837 0.19194 0.1896 0.0
C770 C 0.61132 0.0928 0.1902 0.0
C771 C 0.37142 0.86558 0.12738 0.0
C772 C 0.35573 0.81648 0.15242 0.0
C773 C 0.37878 0.96147 0.13068 0.0
C774 C 0.3707 1.01163 0.15916 0.0
H775 H 0.3782 0.82966 0.10496 0.0
H776 H 0.39037 0.99678 0.11054 0.0
S777 S 0.3308 0.91473 0.23263 0.0
N778 N 0.33316 0.82425 0.20702 0.0
N779 N 0.3471 1.00476 0.21347 0.0
C780 C 0.35536 0.96317 0.18463 0.0
C781 C 0.34776 0.86548 0.18118 0.0
C782 C 0.60525 0.95961 0.4208 0.0
C783 C 0.60887 1.01113 0.39153 0.0
C784 C 0.61218 0.86234 0.42228 0.0
C785 C 0.62306 0.81229 0.39457 0.0
H786 H 0.5972 0.99478 0.44287 0.0
H787 H 0.60874 0.82593 0.44536 0.0
S788 S 0.63659 0.91386 0.31187 0.0
N789 N 0.6242 1.00422 0.33405 0.0
N790 N 0.63699 0.82211 0.33689 0.0
C791 C 0.62675 0.86287 0.36513 0.0
C792 C 0.61972 0.96193 0.36361 0.0
C793 C 0.37749 0.10051 0.41846 0.0
C794 C 0.36902 0.04873 0.39032 0.0
C795 C 0.37144 0.19809 0.42097 0.0
C796 C 0.35647 0.24777 0.39556 0.0
H797 H 0.38874 0.06538 0.43882 0.0
H798 H 0.37863 0.23492 0.44305 0.0
S799 S 0.33009 0.14576 0.31633 0.0
N800 N 0.34523 0.05521 0.33619 0.0
N801 N 0.33382 0.23778 0.34107 0.0
C802 C 0.34792 0.19693 0.36727 0.0
C803 C 0.35423 0.09773 0.3646 0.0
C804 C 0.34559 0.86164 0.90996 0.0
C805 C 0.35207 0.80522 0.88228 0.0
C806 C 0.35361 0.958 0.91085 0.0
C807 C 0.36797 1.00215 0.88388 0.0
H808 H 0.33493 0.83065 0.93148 0.0
H809 H 0.34817 0.99844 0.93273 0.0
S810 S 0.38897 0.8865 0.80503 0.0
N811 N 0.37344 0.80078 0.82708 0.0
N812 N 0.38764 0.98226 0.82835 0.0
C813 C 0.37405 0.94695 0.85581 0.0
C814 C 0.36633 0.84845 0.85511 0.0
C815 C 0.61629 0.18442 0.86891 0.0
C816 C 0.61976 0.23373 0.89877 0.0
C817 C 0.60949 0.08689 0.86825 0.0
C818 C 0.60567 0.03469 0.89744 0.0
H819 H 0.61871 0.22149 0.8458 0.0
H820 H 0.60737 0.05206 0.84464 0.0
S821 S 0.61214 0.13015 0.98216 0.0
N822 N 0.61875 0.22236 0.95836 0.0
N823 N 0.60588 0.04023 0.95707 0.0
C824 C 0.60898 0.08322 0.92744 0.0
C825 C 0.61606 0.18227 0.92812 0.0
C826 C 0.37447 0.10514 0.68224 0.0
C827 C 0.36918 0.04931 0.65406 0.0
C828 C 0.36737 0.20257 0.68281 0.0
C829 C 0.35443 0.24828 0.65532 0.0
H830 H 0.3842 0.07337 0.70409 0.0
H831 H 0.37234 0.24253 0.70492 0.0
S832 S 0.33488 0.13366 0.57583 0.0
N833 N 0.34945 0.04719 0.59818 0.0
N834 N 0.33603 0.22898 0.59932 0.0
C835 C 0.34865 0.19296 0.62716 0.0
C836 C 0.35605 0.09402 0.62651 0.0
C837 C 0.61288 0.86143 0.62938 0.0
C838 C 0.62205 0.81111 0.65761 0.0
C839 C 0.6058 0.95867 0.63071 0.0
C840 C 0.60756 1.00996 0.66033 0.0
H841 H 0.61088 0.82526 0.606 0.0
H842 H 0.59909 0.994 0.60825 0.0
S843 S 0.63057 0.912 0.74132 0.0
N844 N 0.6325 0.82049 0.71611 0.0
N845 N 0.61944 1.00254 0.71866 0.0
C846 C 0.61674 0.96051 0.68875 0.0
C847 C 0.62392 0.86145 0.68738 0.0
loop_
_geom_bond_atom_site_label_1
_geom_bond_atom_site_label_2
_geom_bond_distance
_geom_bond_site_symmetry_2
_ccdc_geom_bond_type
Dy0 O4 2.398 . S
Dy0 O5 2.491 . S
Dy0 O6 2.403 1_565 S
Dy0 O7 2.664 1_565 S
Dy0 O11 2.326 . S
Dy0 O15 2.310 1_565 S
Dy0 O16 2.351 1_565 S
C1 O12 1.185 . S
C1 O13 1.355 . S
C2 O4 1.185 . S
C2 O5 1.355 . S
Dy3 O7 2.310 . S
Dy3 O10 2.351 . S
Dy3 O12 2.398 . S
Dy3 O13 2.491 . S
Dy3 O14 2.403 . S
Dy3 O15 2.664 . S
Dy3 O17 2.326 . S
O4 Dy0 2.398 . S
O4 C2 1.185 . S
O5 Dy0 2.491 . S
O5 C2 1.355 . S
O6 Dy0 2.403 1_545 S
O6 C8 1.254 . S
O7 Dy0 2.664 1_545 S
O7 Dy3 2.310 . S
O7 C8 1.268 . S
C8 O6 1.254 . S
C8 O7 1.268 . S
C9 O14 1.254 . S
C9 O15 1.268 . S
O10 Dy3 2.351 . S
O10 C18 1.249 . S
O11 Dy0 2.326 . S
O11 C18 1.267 1_565 S
O12 C1 1.185 . S
O12 Dy3 2.398 . S
O13 C1 1.355 . S
O13 Dy3 2.491 . S
O14 Dy3 2.403 . S
O14 C9 1.254 . S
O15 Dy0 2.310 1_545 S
O15 Dy3 2.664 . S
O15 C9 1.268 . S
O16 Dy0 2.351 1_545 S
O16 C19 1.249 . S
O17 Dy3 2.326 . S
O17 C19 1.267 . S
C18 O10 1.249 . S
C18 O11 1.267 1_545 S
C19 O16 1.249 . S
C19 O17 1.267 . S
Dy20 O24 2.398 . S
Dy20 O25 2.491 . S
Dy20 O26 2.403 1_545 S
Dy20 O27 2.664 1_545 S
Dy20 O31 2.326 . S
Dy20 O35 2.310 1_545 S
Dy20 O36 2.351 1_545 S
C21 O32 1.185 . S
C21 O33 1.355 . S
C22 O24 1.185 . S
C22 O25 1.355 . S
Dy23 O27 2.310 . S
Dy23 O30 2.351 . S
Dy23 O32 2.398 . S
Dy23 O33 2.491 . S
Dy23 O34 2.403 . S
Dy23 O35 2.664 . S
Dy23 O37 2.326 . S
O24 Dy20 2.398 . S
O24 C22 1.185 . S
O25 Dy20 2.491 . S
O25 C22 1.355 . S
O26 Dy20 2.403 1_565 S
O26 C28 1.254 . S
O27 Dy20 2.664 1_565 S
O27 Dy23 2.310 . S
O27 C28 1.268 . S
C28 O26 1.254 . S
C28 O27 1.268 . S
C29 O34 1.254 . S
C29 O35 1.268 . S
O30 Dy23 2.351 . S
O30 C38 1.249 . S
O31 Dy20 2.326 . S
O31 C38 1.267 1_545 S
O32 C21 1.185 . S
O32 Dy23 2.398 . S
O33 C21 1.355 . S
O33 Dy23 2.491 . S
O34 Dy23 2.403 . S
O34 C29 1.254 . S
O35 Dy20 2.310 1_565 S
O35 Dy23 2.664 . S
O35 C29 1.268 . S
O36 Dy20 2.351 1_565 S
O36 C39 1.249 . S
O37 Dy23 2.326 . S
O37 C39 1.267 . S
C38 O30 1.249 . S
C38 O31 1.267 1_565 S
C39 O36 1.249 . S
C39 O37 1.267 . S
Dy40 O44 2.398 . S
Dy40 O45 2.491 . S
Dy40 O46 2.403 1_545 S
Dy40 O47 2.664 1_545 S
Dy40 O51 2.326 . S
Dy40 O55 2.310 1_545 S
Dy40 O56 2.351 1_545 S
C41 O52 1.185 . S
C41 O53 1.355 . S
C42 O44 1.185 . S
C42 O45 1.355 . S
Dy43 O47 2.310 . S
Dy43 O50 2.351 . S
Dy43 O52 2.398 . S
Dy43 O53 2.491 . S
Dy43 O54 2.403 . S
Dy43 O55 2.664 . S
Dy43 O57 2.326 . S
O44 Dy40 2.398 . S
O44 C42 1.185 . S
O45 Dy40 2.491 . S
O45 C42 1.355 . S
O46 Dy40 2.403 1_565 S
O46 C48 1.254 . S
O47 Dy40 2.664 1_565 S
O47 Dy43 2.310 . S
O47 C48 1.268 . S
C48 O46 1.254 . S
C48 O47 1.268 . S
C49 O54 1.254 . S
C49 O55 1.268 . S
O50 Dy43 2.351 . S
O50 C58 1.249 . S
O51 Dy40 2.326 . S
O51 C58 1.267 1_545 S
O52 C41 1.185 . S
O52 Dy43 2.398 . S
O53 C41 1.355 . S
O53 Dy43 2.491 . S
O54 Dy43 2.403 . S
O54 C49 1.254 . S
O55 Dy40 2.310 1_565 S
O55 Dy43 2.664 . S
O55 C49 1.268 . S
O56 Dy40 2.351 1_565 S
O56 C59 1.249 . S
O57 Dy43 2.326 . S
O57 C59 1.267 . S
C58 O50 1.249 . S
C58 O51 1.267 1_565 S
C59 O56 1.249 . S
C59 O57 1.267 . S
Dy60 O64 2.398 . S
Dy60 O65 2.491 . S
Dy60 O66 2.403 1_565 S
Dy60 O67 2.664 1_565 S
Dy60 O71 2.326 . S
Dy60 O75 2.310 1_565 S
Dy60 O76 2.351 1_565 S
C61 O72 1.185 . S
C61 O73 1.355 . S
C62 O64 1.185 . S
C62 O65 1.355 . S
Dy63 O67 2.310 . S
Dy63 O70 2.351 . S
Dy63 O72 2.398 . S
Dy63 O73 2.491 . S
Dy63 O74 2.403 . S
Dy63 O75 2.664 . S
Dy63 O77 2.326 . S
O64 Dy60 2.398 . S
O64 C62 1.185 . S
O65 Dy60 2.491 . S
O65 C62 1.355 . S
O66 Dy60 2.403 1_545 S
O66 C68 1.254 . S
O67 Dy60 2.664 1_545 S
O67 Dy63 2.310 . S
O67 C68 1.268 . S
C68 O66 1.254 . S
C68 O67 1.268 . S
C69 O74 1.254 . S
C69 O75 1.268 . S
O70 Dy63 2.351 . S
O70 C78 1.249 . S
O71 Dy60 2.326 . S
O71 C78 1.267 1_565 S
O72 C61 1.185 . S
O72 Dy63 2.398 . S
O73 C61 1.355 . S
O73 Dy63 2.491 . S
O74 Dy63 2.403 . S
O74 C69 1.254 . S
O75 Dy60 2.310 1_545 S
O75 Dy63 2.664 . S
O75 C69 1.268 . S
O76 Dy60 2.351 1_545 S
O76 C79 1.249 . S
O77 Dy63 2.326 . S
O77 C79 1.267 . S
C78 O70 1.249 . S
C78 O71 1.267 1_545 S
C79 O76 1.249 . S
C79 O77 1.267 . S
Dy80 O84 2.398 . S
Dy80 O85 2.491 . S
Dy80 O86 2.403 . S
Dy80 O87 2.664 . S
Dy80 O91 2.326 . S
Dy80 O95 2.310 . S
Dy80 O96 2.351 . S
C81 O92 1.185 . S
C81 O93 1.355 . S
C82 O84 1.185 . S
C82 O85 1.355 . S
Dy83 O87 2.310 1_545 S
Dy83 O90 2.351 1_545 S
Dy83 O92 2.398 . S
Dy83 O93 2.491 . S
Dy83 O94 2.403 1_545 S
Dy83 O95 2.664 1_545 S
Dy83 O97 2.326 . S
O84 Dy80 2.398 . S
O84 C82 1.185 . S
O85 Dy80 2.491 . S
O85 C82 1.355 . S
O86 Dy80 2.403 . S
O86 C88 1.254 . S
O87 Dy80 2.664 . S
O87 Dy83 2.310 1_565 S
O87 C88 1.268 . S
C88 O86 1.254 . S
C88 O87 1.268 . S
C89 O94 1.254 . S
C89 O95 1.268 . S
O90 Dy83 2.351 1_565 S
O90 C98 1.249 . S
O91 Dy80 2.326 . S
O91 C98 1.267 . S
O92 C81 1.185 . S
O92 Dy83 2.398 . S
O93 C81 1.355 . S
O93 Dy83 2.491 . S
O94 Dy83 2.403 1_565 S
O94 C89 1.254 . S
O95 Dy80 2.310 . S
O95 Dy83 2.664 1_565 S
O95 C89 1.268 . S
O96 Dy80 2.351 . S
O96 C99 1.249 . S
O97 Dy83 2.326 . S
O97 C99 1.267 1_545 S
C98 O90 1.249 . S
C98 O91 1.267 . S
C99 O96 1.249 . S
C99 O97 1.267 1_565 S
Dy100 O104 2.398 . S
Dy100 O105 2.491 . S
Dy100 O106 2.403 . S
Dy100 O107 2.664 . S
Dy100 O111 2.326 . S
Dy100 O115 2.310 . S
Dy100 O116 2.351 . S
C101 O112 1.185 . S
C101 O113 1.355 . S
C102 O104 1.185 . S
C102 O105 1.355 . S
Dy103 O107 2.310 1_565 S
Dy103 O110 2.351 1_565 S
Dy103 O112 2.398 . S
Dy103 O113 2.491 . S
Dy103 O114 2.403 1_565 S
Dy103 O115 2.664 1_565 S
Dy103 O117 2.326 . S
O104 Dy100 2.398 . S
O104 C102 1.185 . S
O105 Dy100 2.491 . S
O105 C102 1.355 . S
O106 Dy100 2.403 . S
O106 C108 1.254 . S
O107 Dy100 2.664 . S
O107 Dy103 2.310 1_545 S
O107 C108 1.268 . S
C108 O106 1.254 . S
C108 O107 1.268 . S
C109 O114 1.254 . S
C109 O115 1.268 . S
O110 Dy103 2.351 1_545 S
O110 C118 1.249 . S
O111 Dy100 2.326 . S
O111 C118 1.267 . S
O112 C101 1.185 . S
O112 Dy103 2.398 . S
O113 C101 1.355 . S
O113 Dy103 2.491 . S
O114 Dy103 2.403 1_545 S
O114 C109 1.254 . S
O115 Dy100 2.310 . S
O115 Dy103 2.664 1_545 S
O115 C109 1.268 . S
O116 Dy100 2.351 . S
O116 C119 1.249 . S
O117 Dy103 2.326 . S
O117 C119 1.267 1_565 S
C118 O110 1.249 . S
C118 O111 1.267 . S
C119 O116 1.249 . S
C119 O117 1.267 1_545 S
Dy120 O124 2.398 . S
Dy120 O125 2.491 . S
Dy120 O126 2.403 . S
Dy120 O127 2.664 . S
Dy120 O131 2.326 . S
Dy120 O135 2.310 . S
Dy120 O136 2.351 . S
C121 O132 1.185 . S
C121 O133 1.355 . S
C122 O124 1.185 . S
C122 O125 1.355 . S
Dy123 O127 2.310 1_565 S
Dy123 O130 2.351 1_565 S
Dy123 O132 2.398 . S
Dy123 O133 2.491 . S
Dy123 O134 2.403 1_565 S
Dy123 O135 2.664 1_565 S
Dy123 O137 2.326 . S
O124 Dy120 2.398 . S
O124 C122 1.185 . S
O125 Dy120 2.491 . S
O125 C122 1.355 . S
O126 Dy120 2.403 . S
O126 C128 1.254 . S
O127 Dy120 2.664 . S
O127 Dy123 2.310 1_545 S
O127 C128 1.268 . S
C128 O126 1.254 . S
C128 O127 1.268 . S
C129 O134 1.254 . S
C129 O135 1.268 . S
O130 Dy123 2.351 1_545 S
O130 C138 1.249 . S
O131 Dy120 2.326 . S
O131 C138 1.267 . S
O132 C121 1.185 . S
O132 Dy123 2.398 . S
O133 C121 1.355 . S
O133 Dy123 2.491 . S
O134 Dy123 2.403 1_545 S
O134 C129 1.254 . S
O135 Dy120 2.310 . S
O135 Dy123 2.664 1_545 S
O135 C129 1.268 . S
O136 Dy120 2.351 . S
O136 C139 1.249 . S
O137 Dy123 2.326 . S
O137 C139 1.267 1_565 S
C138 O130 1.249 . S
C138 O131 1.267 . S
C139 O136 1.249 . S
C139 O137 1.267 1_545 S
Dy140 O144 2.398 . S
Dy140 O145 2.491 . S
Dy140 O146 2.403 . S
Dy140 O147 2.664 . S
Dy140 O151 2.326 . S
Dy140 O155 2.310 . S
Dy140 O156 2.351 . S
C141 O152 1.185 . S
C141 O153 1.355 . S
C142 O144 1.185 . S
C142 O145 1.355 . S
Dy143 O147 2.310 1_545 S
Dy143 O150 2.351 1_545 S
Dy143 O152 2.398 . S
Dy143 O153 2.491 . S
Dy143 O154 2.403 1_545 S
Dy143 O155 2.664 1_545 S
Dy143 O157 2.326 . S
O144 Dy140 2.398 . S
O144 C142 1.185 . S
O145 Dy140 2.491 . S
O145 C142 1.355 . S
O146 Dy140 2.403 . S
O146 C148 1.254 . S
O147 Dy140 2.664 . S
O147 Dy143 2.310 1_565 S
O147 C148 1.268 . S
C148 O146 1.254 . S
C148 O147 1.268 . S
C149 O154 1.254 . S
C149 O155 1.268 . S
O150 Dy143 2.351 1_565 S
O150 C158 1.249 . S
O151 Dy140 2.326 . S
O151 C158 1.267 . S
O152 C141 1.185 . S
O152 Dy143 2.398 . S
O153 C141 1.355 . S
O153 Dy143 2.491 . S
O154 Dy143 2.403 1_565 S
O154 C149 1.254 . S
O155 Dy140 2.310 . S
O155 Dy143 2.664 1_565 S
O155 C149 1.268 . S
O156 Dy140 2.351 . S
O156 C159 1.249 . S
O157 Dy143 2.326 . S
O157 C159 1.267 1_545 S
C158 O150 1.249 . S
C158 O151 1.267 . S
C159 O156 1.249 . S
C159 O157 1.267 1_565 S
Dy160 O164 2.398 . S
Dy160 O165 2.491 . S
Dy160 O166 2.403 . S
Dy160 O167 2.664 . S
Dy160 O171 2.326 . S
Dy160 O175 2.310 . S
Dy160 O176 2.351 . S
C161 O172 1.185 . S
C161 O173 1.355 . S
C162 O164 1.185 . S
C162 O165 1.355 . S
Dy163 O167 2.310 . S
Dy163 O170 2.351 . S
Dy163 O172 2.398 . S
Dy163 O173 2.491 . S
Dy163 O174 2.403 . S
Dy163 O175 2.664 . S
Dy163 O177 2.326 . S
O164 Dy160 2.398 . S
O164 C162 1.185 . S
O165 Dy160 2.491 . S
O165 C162 1.355 . S
O166 Dy160 2.403 . S
O166 C168 1.254 . S
O167 Dy160 2.664 . S
O167 Dy163 2.310 . S
O167 C168 1.268 . S
C168 O166 1.254 . S
C168 O167 1.268 . S
C169 O174 1.254 . S
C169 O175 1.268 . S
O170 Dy163 2.351 . S
O170 C178 1.249 . S
O171 Dy160 2.326 . S
O171 C178 1.267 . S
O172 C161 1.185 . S
O172 Dy163 2.398 . S
O173 C161 1.355 . S
O173 Dy163 2.491 . S
O174 Dy163 2.403 . S
O174 C169 1.254 . S
O175 Dy160 2.310 . S
O175 Dy163 2.664 . S
O175 C169 1.268 . S
O176 Dy160 2.351 . S
O176 C179 1.249 . S
O177 Dy163 2.326 . S
O177 C179 1.267 . S
C178 O170 1.249 . S
C178 O171 1.267 . S
C179 O176 1.249 . S
C179 O177 1.267 . S
Dy180 O184 2.398 . S
Dy180 O185 2.491 . S
Dy180 O186 2.403 . S
Dy180 O187 2.664 . S
Dy180 O191 2.326 . S
Dy180 O195 2.310 . S
Dy180 O196 2.351 . S
C181 O192 1.185 . S
C181 O193 1.355 . S
C182 O184 1.185 . S
C182 O185 1.355 . S
Dy183 O187 2.310 . S
Dy183 O190 2.351 . S
Dy183 O192 2.398 . S
Dy183 O193 2.491 . S
Dy183 O194 2.403 . S
Dy183 O195 2.664 . S
Dy183 O197 2.326 . S
O184 Dy180 2.398 . S
O184 C182 1.185 . S
O185 Dy180 2.491 . S
O185 C182 1.355 . S
O186 Dy180 2.403 . S
O186 C188 1.254 . S
O187 Dy180 2.664 . S
O187 Dy183 2.310 . S
O187 C188 1.268 . S
C188 O186 1.254 . S
C188 O187 1.268 . S
C189 O194 1.254 . S
C189 O195 1.268 . S
O190 Dy183 2.351 . S
O190 C198 1.249 . S
O191 Dy180 2.326 . S
O191 C198 1.267 . S
O192 C181 1.185 . S
O192 Dy183 2.398 . S
O193 C181 1.355 . S
O193 Dy183 2.491 . S
O194 Dy183 2.403 . S
O194 C189 1.254 . S
O195 Dy180 2.310 . S
O195 Dy183 2.664 . S
O195 C189 1.268 . S
O196 Dy180 2.351 . S
O196 C199 1.249 . S
O197 Dy183 2.326 . S
O197 C199 1.267 . S
C198 O190 1.249 . S
C198 O191 1.267 . S
C199 O196 1.249 . S
C199 O197 1.267 . S
Dy200 O204 2.398 . S
Dy200 O205 2.491 . S
Dy200 O206 2.403 . S
Dy200 O207 2.664 . S
Dy200 O211 2.326 . S
Dy200 O215 2.310 . S
Dy200 O216 2.351 . S
C201 O212 1.185 . S
C201 O213 1.355 . S
C202 O204 1.185 . S
C202 O205 1.355 . S
Dy203 O207 2.310 . S
Dy203 O210 2.351 . S
Dy203 O212 2.398 . S
Dy203 O213 2.491 . S
Dy203 O214 2.403 . S
Dy203 O215 2.664 . S
Dy203 O217 2.326 . S
O204 Dy200 2.398 . S
O204 C202 1.185 . S
O205 Dy200 2.491 . S
O205 C202 1.355 . S
O206 Dy200 2.403 . S
O206 C208 1.254 . S
O207 Dy200 2.664 . S
O207 Dy203 2.310 . S
O207 C208 1.268 . S
C208 O206 1.254 . S
C208 O207 1.268 . S
C209 O214 1.254 . S
C209 O215 1.268 . S
O210 Dy203 2.351 . S
O210 C218 1.249 . S
O211 Dy200 2.326 . S
O211 C218 1.267 . S
O212 C201 1.185 . S
O212 Dy203 2.398 . S
O213 C201 1.355 . S
O213 Dy203 2.491 . S
O214 Dy203 2.403 . S
O214 C209 1.254 . S
O215 Dy200 2.310 . S
O215 Dy203 2.664 . S
O215 C209 1.268 . S
O216 Dy200 2.351 . S
O216 C219 1.249 . S
O217 Dy203 2.326 . S
O217 C219 1.267 . S
C218 O210 1.249 . S
C218 O211 1.267 . S
C219 O216 1.249 . S
C219 O217 1.267 . S
Dy220 O224 2.398 . S
Dy220 O225 2.491 . S
Dy220 O226 2.403 . S
Dy220 O227 2.664 . S
Dy220 O231 2.326 . S
Dy220 O235 2.310 . S
Dy220 O236 2.351 . S
C221 O232 1.185 . S
C221 O233 1.355 . S
C222 O224 1.185 . S
C222 O225 1.355 . S
Dy223 O227 2.310 . S
Dy223 O230 2.351 . S
Dy223 O232 2.398 . S
Dy223 O233 2.491 . S
Dy223 O234 2.403 . S
Dy223 O235 2.664 . S
Dy223 O237 2.326 . S
O224 Dy220 2.398 . S
O224 C222 1.185 . S
O225 Dy220 2.491 . S
O225 C222 1.355 . S
O226 Dy220 2.403 . S
O226 C228 1.254 . S
O227 Dy220 2.664 . S
O227 Dy223 2.310 . S
O227 C228 1.268 . S
C228 O226 1.254 . S
C228 O227 1.268 . S
C229 O234 1.254 . S
C229 O235 1.268 . S
O230 Dy223 2.351 . S
O230 C238 1.249 . S
O231 Dy220 2.326 . S
O231 C238 1.267 . S
O232 C221 1.185 . S
O232 Dy223 2.398 . S
O233 C221 1.355 . S
O233 Dy223 2.491 . S
O234 Dy223 2.403 . S
O234 C229 1.254 . S
O235 Dy220 2.310 . S
O235 Dy223 2.664 . S
O235 C229 1.268 . S
O236 Dy220 2.351 . S
O236 C239 1.249 . S
O237 Dy223 2.326 . S
O237 C239 1.267 . S
C238 O230 1.249 . S
C238 O231 1.267 . S
C239 O236 1.249 . S
C239 O237 1.267 . S
Dy240 O244 2.398 . S
Dy240 O245 2.491 . S
Dy240 O246 2.403 . S
Dy240 O247 2.664 . S
Dy240 O251 2.326 . S
Dy240 O255 2.310 . S
Dy240 O256 2.351 . S
C241 O252 1.185 . S
C241 O253 1.355 . S
C242 O244 1.185 . S
C242 O245 1.355 . S
Dy243 O247 2.310 . S
Dy243 O250 2.351 . S
Dy243 O252 2.398 . S
Dy243 O253 2.491 . S
Dy243 O254 2.403 . S
Dy243 O255 2.664 . S
Dy243 O257 2.326 . S
O244 Dy240 2.398 . S
O244 C242 1.185 . S
O245 Dy240 2.491 . S
O245 C242 1.355 . S
O246 Dy240 2.403 . S
O246 C248 1.254 . S
O247 Dy240 2.664 . S
O247 Dy243 2.310 . S
O247 C248 1.268 . S
C248 O246 1.254 . S
C248 O247 1.268 . S
C249 O254 1.254 . S
C249 O255 1.268 . S
O250 Dy243 2.351 . S
O250 C258 1.249 . S
O251 Dy240 2.326 . S
O251 C258 1.267 . S
O252 C241 1.185 . S
O252 Dy243 2.398 . S
O253 C241 1.355 . S
O253 Dy243 2.491 . S
O254 Dy243 2.403 . S
O254 C249 1.254 . S
O255 Dy240 2.310 . S
O255 Dy243 2.664 . S
O255 C249 1.268 . S
O256 Dy240 2.351 . S
O256 C259 1.249 . S
O257 Dy243 2.326 . S
O257 C259 1.267 . S
C258 O250 1.249 . S
C258 O251 1.267 . S
C259 O256 1.249 . S
C259 O257 1.267 . S
Dy260 O264 2.398 . S
Dy260 O265 2.491 . S
Dy260 O266 2.403 . S
Dy260 O267 2.664 . S
Dy260 O271 2.326 . S
Dy260 O275 2.310 . S
Dy260 O276 2.351 . S
C261 O272 1.185 . S
C261 O273 1.355 . S
C262 O264 1.185 . S
C262 O265 1.355 . S
Dy263 O267 2.310 . S
Dy263 O270 2.351 . S
Dy263 O272 2.398 . S
Dy263 O273 2.491 . S
Dy263 O274 2.403 . S
Dy263 O275 2.664 . S
Dy263 O277 2.326 . S
O264 Dy260 2.398 . S
O264 C262 1.185 . S
O265 Dy260 2.491 . S
O265 C262 1.355 . S
O266 Dy260 2.403 . S
O266 C268 1.254 . S
O267 Dy260 2.664 . S
O267 Dy263 2.310 . S
O267 C268 1.268 . S
C268 O266 1.254 . S
C268 O267 1.268 . S
C269 O274 1.254 . S
C269 O275 1.268 . S
O270 Dy263 2.351 . S
O270 C278 1.249 . S
O271 Dy260 2.326 . S
O271 C278 1.267 . S
O272 C261 1.185 . S
O272 Dy263 2.398 . S
O273 C261 1.355 . S
O273 Dy263 2.491 . S
O274 Dy263 2.403 . S
O274 C269 1.254 . S
O275 Dy260 2.310 . S
O275 Dy263 2.664 . S
O275 C269 1.268 . S
O276 Dy260 2.351 . S
O276 C279 1.249 . S
O277 Dy263 2.326 . S
O277 C279 1.267 . S
C278 O270 1.249 . S
C278 O271 1.267 . S
C279 O276 1.249 . S
C279 O277 1.267 . S
Dy280 O284 2.398 . S
Dy280 O285 2.491 . S
Dy280 O286 2.403 . S
Dy280 O287 2.664 . S
Dy280 O291 2.326 . S
Dy280 O295 2.310 . S
Dy280 O296 2.351 . S
C281 O292 1.185 . S
C281 O293 1.355 . S
C282 O284 1.185 . S
C282 O285 1.355 . S
Dy283 O287 2.310 . S
Dy283 O290 2.351 . S
Dy283 O292 2.398 . S
Dy283 O293 2.491 . S
Dy283 O294 2.403 . S
Dy283 O295 2.664 . S
Dy283 O297 2.326 . S
O284 Dy280 2.398 . S
O284 C282 1.185 . S
O285 Dy280 2.491 . S
O285 C282 1.355 . S
O286 Dy280 2.403 . S
O286 C288 1.254 . S
O287 Dy280 2.664 . S
O287 Dy283 2.310 . S
O287 C288 1.268 . S
C288 O286 1.254 . S
C288 O287 1.268 . S
C289 O294 1.254 . S
C289 O295 1.268 . S
O290 Dy283 2.351 . S
O290 C298 1.249 . S
O291 Dy280 2.326 . S
O291 C298 1.267 . S
O292 C281 1.185 . S
O292 Dy283 2.398 . S
O293 C281 1.355 . S
O293 Dy283 2.491 . S
O294 Dy283 2.403 . S
O294 C289 1.254 . S
O295 Dy280 2.310 . S
O295 Dy283 2.664 . S
O295 C289 1.268 . S
O296 Dy280 2.351 . S
O296 C299 1.249 . S
O297 Dy283 2.326 . S
O297 C299 1.267 . S
C298 O290 1.249 . S
C298 O291 1.267 . S
C299 O296 1.249 . S
C299 O297 1.267 . S
Dy300 O304 2.398 . S
Dy300 O305 2.491 . S
Dy300 O306 2.403 . S
Dy300 O307 2.664 . S
Dy300 O311 2.326 . S
Dy300 O315 2.310 . S
Dy300 O316 2.351 . S
C301 O312 1.185 . S
C301 O313 1.355 . S
C302 O304 1.185 . S
C302 O305 1.355 . S
Dy303 O307 2.310 . S
Dy303 O310 2.351 . S
Dy303 O312 2.398 . S
Dy303 O313 2.491 . S
Dy303 O314 2.403 . S
Dy303 O315 2.664 . S
Dy303 O317 2.326 . S
O304 Dy300 2.398 . S
O304 C302 1.185 . S
O305 Dy300 2.491 . S
O305 C302 1.355 . S
O306 Dy300 2.403 . S
O306 C308 1.254 . S
O307 Dy300 2.664 . S
O307 Dy303 2.310 . S
O307 C308 1.268 . S
C308 O306 1.254 . S
C308 O307 1.268 . S
C309 O314 1.254 . S
C309 O315 1.268 . S
O310 Dy303 2.351 . S
O310 C318 1.249 . S
O311 Dy300 2.326 . S
O311 C318 1.267 . S
O312 C301 1.185 . S
O312 Dy303 2.398 . S
O313 C301 1.355 . S
O313 Dy303 2.491 . S
O314 Dy303 2.403 . S
O314 C309 1.254 . S
O315 Dy300 2.310 . S
O315 Dy303 2.664 . S
O315 C309 1.268 . S
O316 Dy300 2.351 . S
O316 C319 1.249 . S
O317 Dy303 2.326 . S
O317 C319 1.267 . S
C318 O310 1.249 . S
C318 O311 1.267 . S
C319 O316 1.249 . S
C319 O317 1.267 . S
C320 C321 1.369 . S
C320 C322 1.419 . S
C320 H324 0.930 . S
C321 C320 1.369 . S
C321 C330 1.429 . S
C322 C320 1.419 . S
C322 C323 1.363 . S
C322 H325 0.929 . S
C323 C322 1.363 . S
C323 C329 1.428 . S
H324 C320 0.930 . S
H325 C322 0.929 . S
S326 N327 1.613 . S
S326 N328 1.610 . S
N327 S326 1.613 . S
N327 C330 1.350 . S
N328 S326 1.610 . S
N328 C329 1.351 . S
C329 C323 1.428 . S
C329 N328 1.351 . S
C329 C330 1.434 . S
C330 C321 1.429 . S
C330 N327 1.350 . S
C330 C329 1.434 . S
C331 C332 1.369 . S
C331 C333 1.419 . S
C331 H335 0.930 . S
C332 C331 1.369 . S
C332 C341 1.429 . S
C333 C331 1.419 . S
C333 C334 1.363 . S
C333 H336 0.929 . S
C334 C333 1.363 . S
C334 C340 1.428 . S
H335 C331 0.930 . S
H336 C333 0.929 . S
S337 N338 1.613 . S
S337 N339 1.610 . S
N338 S337 1.613 . S
N338 C341 1.350 . S
N339 S337 1.610 . S
N339 C340 1.351 . S
C340 C334 1.428 . S
C340 N339 1.351 . S
C340 C341 1.434 . S
C341 C332 1.429 . S
C341 N338 1.350 . S
C341 C340 1.434 . S
C342 C343 1.369 . S
C342 C344 1.419 . S
C342 H346 0.930 . S
C343 C342 1.369 . S
C343 C352 1.429 . S
C344 C342 1.419 . S
C344 C345 1.363 . S
C344 H347 0.929 . S
C345 C344 1.363 . S
C345 C351 1.428 . S
H346 C342 0.930 . S
H347 C344 0.929 . S
S348 N349 1.613 . S
S348 N350 1.610 . S
N349 S348 1.613 . S
N349 C352 1.350 . S
N350 S348 1.610 . S
N350 C351 1.351 . S
C351 C345 1.428 . S
C351 N350 1.351 . S
C351 C352 1.434 . S
C352 C343 1.429 . S
C352 N349 1.350 . S
C352 C351 1.434 . S
C353 C354 1.369 . S
C353 C355 1.419 . S
C353 H357 0.930 . S
C354 C353 1.369 . S
C354 C363 1.429 . S
C355 C353 1.419 . S
C355 C356 1.363 . S
C355 H358 0.929 . S
C356 C355 1.363 . S
C356 C362 1.428 . S
H357 C353 0.930 . S
H358 C355 0.929 . S
S359 N360 1.613 . S
S359 N361 1.610 . S
N360 S359 1.613 . S
N360 C363 1.350 . S
N361 S359 1.610 . S
N361 C362 1.351 . S
C362 C356 1.428 . S
C362 N361 1.351 . S
C362 C363 1.434 . S
C363 C354 1.429 . S
C363 N360 1.350 . S
C363 C362 1.434 . S
C364 C365 1.369 . S
C364 C366 1.419 . S
C364 H368 0.930 . S
C365 C364 1.369 . S
C365 C374 1.429 . S
C366 C364 1.419 . S
C366 C367 1.363 . S
C366 H369 0.929 . S
C367 C366 1.363 . S
C367 C373 1.428 . S
H368 C364 0.930 . S
H369 C366 0.929 . S
S370 N371 1.613 . S
S370 N372 1.610 . S
N371 S370 1.613 . S
N371 C374 1.350 . S
N372 S370 1.610 . S
N372 C373 1.351 . S
C373 C367 1.428 . S
C373 N372 1.351 . S
C373 C374 1.434 . S
C374 C365 1.429 . S
C374 N371 1.350 . S
C374 C373 1.434 . S
C375 C376 1.369 . S
C375 C377 1.419 . S
C375 H379 0.930 . S
C376 C375 1.369 . S
C376 C385 1.429 . S
C377 C375 1.419 . S
C377 C378 1.363 . S
C377 H380 0.929 . S
C378 C377 1.363 . S
C378 C384 1.428 . S
H379 C375 0.930 . S
H380 C377 0.929 . S
S381 N382 1.613 . S
S381 N383 1.610 . S
N382 S381 1.613 . S
N382 C385 1.350 . S
N383 S381 1.610 . S
N383 C384 1.351 . S
C384 C378 1.428 . S
C384 N383 1.351 . S
C384 C385 1.434 . S
C385 C376 1.429 . S
C385 N382 1.350 . S
C385 C384 1.434 . S
C386 C387 1.369 . S
C386 C388 1.419 . S
C386 H390 0.930 . S
C387 C386 1.369 . S
C387 C396 1.429 . S
C388 C386 1.419 . S
C388 C389 1.363 . S
C388 H391 0.929 . S
C389 C388 1.363 . S
C389 C395 1.428 . S
H390 C386 0.930 . S
H391 C388 0.929 . S
S392 N393 1.613 . S
S392 N394 1.610 . S
N393 S392 1.613 . S
N393 C396 1.350 . S
N394 S392 1.610 . S
N394 C395 1.351 . S
C395 C389 1.428 . S
C395 N394 1.351 . S
C395 C396 1.434 . S
C396 C387 1.429 . S
C396 N393 1.350 . S
C396 C395 1.434 . S
C397 C398 1.369 . S
C397 C399 1.419 . S
C397 H401 0.930 . S
C398 C397 1.369 . S
C398 C407 1.429 . S
C399 C397 1.419 . S
C399 C400 1.363 . S
C399 H402 0.929 . S
C400 C399 1.363 . S
C400 C406 1.428 . S
H401 C397 0.930 . S
H402 C399 0.929 . S
S403 N404 1.613 . S
S403 N405 1.610 . S
N404 S403 1.613 . S
N404 C407 1.350 . S
N405 S403 1.610 . S
N405 C406 1.351 . S
C406 C400 1.428 . S
C406 N405 1.351 . S
C406 C407 1.434 . S
C407 C398 1.429 . S
C407 N404 1.350 . S
C407 C406 1.434 . S
C408 C409 1.369 1_545 S
C408 C410 1.419 . S
C408 H412 0.930 . S
C409 C408 1.369 1_565 S
C409 C418 1.429 . S
C410 C408 1.419 . S
C410 C411 1.363 . S
C410 H413 0.929 . S
C411 C410 1.363 . S
C411 C417 1.428 1_545 S
H412 C408 0.930 . S
H413 C410 0.929 . S
S414 N415 1.613 . S
S414 N416 1.610 . S
N415 S414 1.613 . S
N415 C418 1.350 . S
N416 S414 1.610 . S
N416 C417 1.351 . S
C417 C411 1.428 1_565 S
C417 N416 1.351 . S
C417 C418 1.434 . S
C418 C409 1.429 . S
C418 N415 1.350 . S
C418 C417 1.434 . S
C419 C420 1.369 1_565 S
C419 C421 1.419 . S
C419 H423 0.930 . S
C420 C419 1.369 1_545 S
C420 C429 1.429 . S
C421 C419 1.419 . S
C421 C422 1.363 . S
C421 H424 0.929 . S
C422 C421 1.363 . S
C422 C428 1.428 1_565 S
H423 C419 0.930 . S
H424 C421 0.929 . S
S425 N426 1.613 . S
S425 N427 1.610 . S
N426 S425 1.613 . S
N426 C429 1.350 . S
N427 S425 1.610 . S
N427 C428 1.351 . S
C428 C422 1.428 1_545 S
C428 N427 1.351 . S
C428 C429 1.434 . S
C429 C420 1.429 . S
C429 N426 1.350 . S
C429 C428 1.434 . S
C430 C431 1.369 . S
C430 C432 1.419 . S
C430 H434 0.930 . S
C431 C430 1.369 . S
C431 C440 1.429 1_545 S
C432 C430 1.419 . S
C432 C433 1.363 1_545 S
C432 H435 0.929 . S
C433 C432 1.363 1_565 S
C433 C439 1.428 . S
H434 C430 0.930 . S
H435 C432 0.929 . S
S436 N437 1.613 . S
S436 N438 1.610 . S
N437 S436 1.613 . S
N437 C440 1.350 . S
N438 S436 1.610 . S
N438 C439 1.351 . S
C439 C433 1.428 . S
C439 N438 1.351 . S
C439 C440 1.434 . S
C440 C431 1.429 1_565 S
C440 N437 1.350 . S
C440 C439 1.434 . S
C441 C442 1.369 1_565 S
C441 C443 1.419 . S
C441 H445 0.930 . S
C442 C441 1.369 1_545 S
C442 C451 1.429 . S
C443 C441 1.419 . S
C443 C444 1.363 . S
C443 H446 0.929 . S
C444 C443 1.363 . S
C444 C450 1.428 1_565 S
H445 C441 0.930 . S
H446 C443 0.929 . S
S447 N448 1.613 . S
S447 N449 1.610 . S
N448 S447 1.613 . S
N448 C451 1.350 . S
N449 S447 1.610 . S
N449 C450 1.351 . S
C450 C444 1.428 1_545 S
C450 N449 1.351 . S
C450 C451 1.434 . S
C451 C442 1.429 . S
C451 N448 1.350 . S
C451 C450 1.434 . S
C452 C453 1.369 . S
C452 C454 1.419 . S
C452 H456 0.930 . S
C453 C452 1.369 . S
C453 C462 1.429 . S
C454 C452 1.419 . S
C454 C455 1.363 . S
C454 H457 0.929 . S
C455 C454 1.363 . S
C455 C461 1.428 . S
H456 C452 0.930 . S
H457 C454 0.929 . S
S458 N459 1.613 . S
S458 N460 1.610 . S
N459 S458 1.613 . S
N459 C462 1.350 . S
N460 S458 1.610 . S
N460 C461 1.351 . S
C461 C455 1.428 . S
C461 N460 1.351 . S
C461 C462 1.434 . S
C462 C453 1.429 . S
C462 N459 1.350 . S
C462 C461 1.434 . S
C463 C464 1.369 . S
C463 C465 1.419 . S
C463 H467 0.930 . S
C464 C463 1.369 . S
C464 C473 1.429 . S
C465 C463 1.419 . S
C465 C466 1.363 . S
C465 H468 0.929 . S
C466 C465 1.363 . S
C466 C472 1.428 . S
H467 C463 0.930 . S
H468 C465 0.929 . S
S469 N470 1.613 . S
S469 N471 1.610 . S
N470 S469 1.613 . S
N470 C473 1.350 . S
N471 S469 1.610 . S
N471 C472 1.351 . S
C472 C466 1.428 . S
C472 N471 1.351 . S
C472 C473 1.434 . S
C473 C464 1.429 . S
C473 N470 1.350 . S
C473 C472 1.434 . S
C474 C475 1.369 . S
C474 C476 1.419 . S
C474 H478 0.930 . S
C475 C474 1.369 . S
C475 C484 1.429 . S
C476 C474 1.419 . S
C476 C477 1.363 . S
C476 H479 0.929 . S
C477 C476 1.363 . S
C477 C483 1.428 . S
H478 C474 0.930 . S
H479 C476 0.929 . S
S480 N481 1.613 . S
S480 N482 1.610 . S
N481 S480 1.613 . S
N481 C484 1.350 . S
N482 S480 1.610 . S
N482 C483 1.351 . S
C483 C477 1.428 . S
C483 N482 1.351 . S
C483 C484 1.434 . S
C484 C475 1.429 . S
C484 N481 1.350 . S
C484 C483 1.434 . S
C485 C486 1.369 . S
C485 C487 1.419 . S
C485 H489 0.930 . S
C486 C485 1.369 . S
C486 C495 1.429 . S
C487 C485 1.419 . S
C487 C488 1.363 . S
C487 H490 0.929 . S
C488 C487 1.363 . S
C488 C494 1.428 . S
H489 C485 0.930 . S
H490 C487 0.929 . S
S491 N492 1.613 . S
S491 N493 1.610 . S
N492 S491 1.613 . S
N492 C495 1.350 . S
N493 S491 1.610 . S
N493 C494 1.351 . S
C494 C488 1.428 . S
C494 N493 1.351 . S
C494 C495 1.434 . S
C495 C486 1.429 . S
C495 N492 1.350 . S
C495 C494 1.434 . S
C496 C497 1.369 . S
C496 C498 1.419 1_556 S
C496 H500 0.930 . S
C497 C496 1.369 . S
C497 C506 1.429 . S
C498 C496 1.419 1_554 S
C498 C499 1.363 . S
C498 H501 0.929 . S
C499 C498 1.363 . S
C499 C505 1.428 . S
H500 C496 0.930 . S
H501 C498 0.929 . S
S502 N503 1.616 1_554 S
S502 N504 1.608 . S
N503 S502 1.616 1_556 S
N503 C506 1.350 1_565 S
N504 S502 1.608 . S
N504 C505 1.351 1_565 S
C505 C499 1.428 . S
C505 N504 1.351 1_545 S
C505 C506 1.434 1_554 S
C506 C497 1.429 . S
C506 N503 1.350 1_545 S
C506 C505 1.434 1_556 S
C507 C508 1.369 . S
C507 C509 1.419 1_556 S
C507 H511 0.930 . S
C508 C507 1.369 . S
C508 C517 1.429 . S
C509 C507 1.419 1_554 S
C509 C510 1.363 . S
C509 H512 0.929 . S
C510 C509 1.363 . S
C510 C516 1.428 . S
H511 C507 0.930 . S
H512 C509 0.929 . S
S513 N514 1.616 1_554 S
S513 N515 1.608 . S
N514 S513 1.616 1_556 S
N514 C517 1.350 . S
N515 S513 1.608 . S
N515 C516 1.351 . S
C516 C510 1.428 . S
C516 N515 1.351 . S
C516 C517 1.434 1_554 S
C517 C508 1.429 . S
C517 N514 1.350 . S
C517 C516 1.434 1_556 S
C518 C519 1.369 . S
C518 C520 1.419 . S
C518 H522 0.930 . S
C519 C518 1.369 . S
C519 C528 1.429 . S
C520 C518 1.419 . S
C520 C521 1.363 . S
C520 H523 0.929 . S
C521 C520 1.363 . S
C521 C527 1.428 . S
H522 C518 0.930 . S
H523 C520 0.929 . S
S524 N525 1.613 . S
S524 N526 1.610 . S
N525 S524 1.613 . S
N525 C528 1.350 1_545 S
N526 S524 1.610 . S
N526 C527 1.351 1_545 S
C527 C521 1.428 . S
C527 N526 1.351 1_565 S
C527 C528 1.434 . S
C528 C519 1.429 . S
C528 N525 1.350 1_565 S
C528 C527 1.434 . S
C529 C530 1.369 . S
C529 C531 1.419 . S
C529 H533 0.930 . S
C530 C529 1.369 . S
C530 C539 1.429 . S
C531 C529 1.419 . S
C531 C532 1.363 . S
C531 H534 0.929 . S
C532 C531 1.363 . S
C532 C538 1.428 . S
H533 C529 0.930 . S
H534 C531 0.929 . S
S535 N536 1.613 . S
S535 N537 1.610 . S
N536 S535 1.613 . S
N536 C539 1.350 1_565 S
N537 S535 1.610 . S
N537 C538 1.351 1_565 S
C538 C532 1.428 . S
C538 N537 1.351 1_545 S
C538 C539 1.434 . S
C539 C530 1.429 . S
C539 N536 1.350 1_545 S
C539 C538 1.434 . S
C540 C541 1.369 . S
C540 C542 1.419 1_554 S
C540 H544 0.930 . S
C541 C540 1.369 . S
C541 C550 1.429 . S
C542 C540 1.419 1_556 S
C542 C543 1.363 . S
C542 H545 0.929 . S
C543 C542 1.363 . S
C543 C549 1.428 . S
H544 C540 0.930 . S
H545 C542 0.929 . S
S546 N547 1.616 1_556 S
S546 N548 1.608 . S
N547 S546 1.616 1_554 S
N547 C550 1.350 . S
N548 S546 1.608 . S
N548 C549 1.351 . S
C549 C543 1.428 . S
C549 N548 1.351 . S
C549 C550 1.434 1_556 S
C550 C541 1.429 . S
C550 N547 1.350 . S
C550 C549 1.434 1_554 S
C551 C552 1.369 . S
C551 C553 1.419 1_556 S
C551 H555 0.930 . S
C552 C551 1.369 . S
C552 C561 1.429 . S
C553 C551 1.419 1_554 S
C553 C554 1.363 . S
C553 H556 0.929 . S
C554 C553 1.363 . S
C554 C560 1.428 . S
H555 C551 0.930 . S
H556 C553 0.929 . S
S557 N558 1.616 1_554 S
S557 N559 1.608 . S
N558 S557 1.616 1_556 S
N558 C561 1.350 . S
N559 S557 1.608 . S
N559 C560 1.351 . S
C560 C554 1.428 . S
C560 N559 1.351 . S
C560 C561 1.434 1_554 S
C561 C552 1.429 . S
C561 N558 1.350 . S
C561 C560 1.434 1_556 S
C562 C563 1.369 . S
C562 C564 1.419 . S
C562 H566 0.930 . S
C563 C562 1.369 . S
C563 C572 1.429 . S
C564 C562 1.419 . S
C564 C565 1.363 . S
C564 H567 0.929 . S
C565 C564 1.363 . S
C565 C571 1.428 . S
H566 C562 0.930 . S
H567 C564 0.929 . S
S568 N569 1.613 . S
S568 N570 1.610 . S
N569 S568 1.613 . S
N569 C572 1.350 . S
N570 S568 1.610 . S
N570 C571 1.351 . S
C571 C565 1.428 . S
C571 N570 1.351 . S
C571 C572 1.434 . S
C572 C563 1.429 . S
C572 N569 1.350 . S
C572 C571 1.434 . S
C573 C574 1.369 . S
C573 C575 1.419 . S
C573 H577 0.930 . S
C574 C573 1.369 . S
C574 C583 1.429 . S
C575 C573 1.419 . S
C575 C576 1.363 . S
C575 H578 0.929 . S
C576 C575 1.363 . S
C576 C582 1.428 . S
H577 C573 0.930 . S
H578 C575 0.929 . S
S579 N580 1.613 . S
S579 N581 1.610 . S
N580 S579 1.613 . S
N580 C583 1.350 . S
N581 S579 1.610 . S
N581 C582 1.351 . S
C582 C576 1.428 . S
C582 N581 1.351 . S
C582 C583 1.434 . S
C583 C574 1.429 . S
C583 N580 1.350 . S
C583 C582 1.434 . S
C584 C585 1.369 1_565 S
C584 C586 1.419 1_655 S
C584 H588 0.930 . S
C585 C584 1.369 1_545 S
C585 C594 1.429 . S
C586 C584 1.419 1_455 S
C586 C587 1.363 . S
C586 H589 0.929 . S
C587 C586 1.363 . S
C587 C593 1.428 1_565 S
H588 C584 0.930 . S
H589 C586 0.929 . S
S590 N591 1.613 1_455 S
S590 N592 1.610 . S
N591 S590 1.613 1_655 S
N591 C594 1.350 . S
N592 S590 1.610 . S
N592 C593 1.351 . S
C593 C587 1.428 1_545 S
C593 N592 1.351 . S
C593 C594 1.434 1_455 S
C594 C585 1.429 . S
C594 N591 1.350 . S
C594 C593 1.434 1_655 S
C595 C596 1.369 . S
C595 C597 1.419 1_655 S
C595 H599 0.930 . S
C596 C595 1.369 . S
C596 C605 1.429 1_565 S
C597 C595 1.419 1_455 S
C597 C598 1.363 1_565 S
C597 H600 0.929 . S
C598 C597 1.363 1_545 S
C598 C604 1.428 . S
H599 C595 0.930 . S
H600 C597 0.929 . S
S601 N602 1.613 . S
S601 N603 1.610 1_655 S
N602 S601 1.613 . S
N602 C605 1.350 . S
N603 S601 1.610 1_455 S
N603 C604 1.351 . S
C604 C598 1.428 . S
C604 N603 1.351 . S
C604 C605 1.434 1_455 S
C605 C596 1.429 1_545 S
C605 N602 1.350 . S
C605 C604 1.434 1_655 S
C606 C607 1.369 . S
C606 C608 1.419 1_455 S
C606 H610 0.930 . S
C607 C606 1.369 . S
C607 C616 1.429 1_565 S
C608 C606 1.419 1_655 S
C608 C609 1.363 1_565 S
C608 H611 0.929 . S
C609 C608 1.363 1_545 S
C609 C615 1.428 . S
H610 C606 0.930 . S
H611 C608 0.929 . S
S612 N613 1.613 . S
S612 N614 1.610 1_455 S
N613 S612 1.613 . S
N613 C616 1.350 . S
N614 S612 1.610 1_655 S
N614 C615 1.351 . S
C615 C609 1.428 . S
C615 N614 1.351 . S
C615 C616 1.434 1_655 S
C616 C607 1.429 1_545 S
C616 N613 1.350 . S
C616 C615 1.434 1_455 S
C617 C618 1.369 . S
C617 C619 1.419 1_655 S
C617 H621 0.930 . S
C618 C617 1.369 . S
C618 C627 1.429 1_565 S
C619 C617 1.419 1_455 S
C619 C620 1.363 1_565 S
C619 H622 0.929 . S
C620 C619 1.363 1_545 S
C620 C626 1.428 . S
H621 C617 0.930 . S
H622 C619 0.929 . S
S623 N624 1.615 . S
S623 N625 1.608 1_655 S
N624 S623 1.615 . S
N624 C627 1.350 . S
N625 S623 1.608 1_455 S
N625 C626 1.351 . S
C626 C620 1.428 . S
C626 N625 1.351 . S
C626 C627 1.434 1_455 S
C627 C618 1.429 1_545 S
C627 N624 1.350 . S
C627 C626 1.434 1_655 S
C628 C629 1.369 . S
C628 C630 1.419 . S
C628 H632 0.930 . S
C629 C628 1.369 . S
C629 C638 1.429 . S
C630 C628 1.419 . S
C630 C631 1.363 . S
C630 H633 0.929 . S
C631 C630 1.363 . S
C631 C637 1.428 . S
H632 C628 0.930 . S
H633 C630 0.929 . S
S634 N635 1.613 . S
S634 N636 1.610 . S
N635 S634 1.613 . S
N635 C638 1.350 . S
N636 S634 1.610 . S
N636 C637 1.351 . S
C637 C631 1.428 . S
C637 N636 1.351 . S
C637 C638 1.434 . S
C638 C629 1.429 . S
C638 N635 1.350 . S
C638 C637 1.434 . S
C639 C640 1.369 . S
C639 C641 1.419 . S
C639 H643 0.930 . S
C640 C639 1.369 . S
C640 C649 1.429 . S
C641 C639 1.419 . S
C641 C642 1.363 . S
C641 H644 0.929 . S
C642 C641 1.363 . S
C642 C648 1.428 . S
H643 C639 0.930 . S
H644 C641 0.929 . S
S645 N646 1.613 . S
S645 N647 1.610 . S
N646 S645 1.613 . S
N646 C649 1.350 . S
N647 S645 1.610 . S
N647 C648 1.351 . S
C648 C642 1.428 . S
C648 N647 1.351 . S
C648 C649 1.434 . S
C649 C640 1.429 . S
C649 N646 1.350 . S
C649 C648 1.434 . S
C650 C651 1.369 . S
C650 C652 1.419 . S
C650 H654 0.930 . S
C651 C650 1.369 . S
C651 C660 1.429 . S
C652 C650 1.419 . S
C652 C653 1.363 . S
C652 H655 0.929 . S
C653 C652 1.363 . S
C653 C659 1.428 . S
H654 C650 0.930 . S
H655 C652 0.929 . S
S656 N657 1.613 . S
S656 N658 1.610 . S
N657 S656 1.613 . S
N657 C660 1.350 . S
N658 S656 1.610 . S
N658 C659 1.351 . S
C659 C653 1.428 . S
C659 N658 1.351 . S
C659 C660 1.434 . S
C660 C651 1.429 . S
C660 N657 1.350 . S
C660 C659 1.434 . S
C661 C662 1.369 . S
C661 C663 1.419 . S
C661 H665 0.930 . S
C662 C661 1.369 . S
C662 C671 1.429 . S
C663 C661 1.419 . S
C663 C664 1.363 . S
C663 H666 0.929 . S
C664 C663 1.363 . S
C664 C670 1.428 . S
H665 C661 0.930 . S
H666 C663 0.929 . S
S667 N668 1.613 . S
S667 N669 1.610 . S
N668 S667 1.613 . S
N668 C671 1.350 . S
N669 S667 1.610 . S
N669 C670 1.351 . S
C670 C664 1.428 . S
C670 N669 1.351 . S
C670 C671 1.434 . S
C671 C662 1.429 . S
C671 N668 1.350 . S
C671 C670 1.434 . S
C672 C673 1.369 . S
C672 C674 1.419 . S
C672 H676 0.930 . S
C673 C672 1.369 . S
C673 C682 1.429 . S
C674 C672 1.419 . S
C674 C675 1.363 . S
C674 H677 0.929 . S
C675 C674 1.363 . S
C675 C681 1.428 . S
H676 C672 0.930 . S
H677 C674 0.929 . S
S678 N679 1.613 . S
S678 N680 1.610 . S
N679 S678 1.613 . S
N679 C682 1.350 . S
N680 S678 1.610 . S
N680 C681 1.351 . S
C681 C675 1.428 . S
C681 N680 1.351 . S
C681 C682 1.434 . S
C682 C673 1.429 . S
C682 N679 1.350 . S
C682 C681 1.434 . S
C683 C684 1.369 . S
C683 C685 1.419 . S
C683 H687 0.930 . S
C684 C683 1.369 . S
C684 C693 1.429 . S
C685 C683 1.419 . S
C685 C686 1.363 . S
C685 H688 0.929 . S
C686 C685 1.363 . S
C686 C692 1.428 . S
H687 C683 0.930 . S
H688 C685 0.929 . S
S689 N690 1.613 . S
S689 N691 1.610 . S
N690 S689 1.613 . S
N690 C693 1.350 . S
N691 S689 1.610 . S
N691 C692 1.351 . S
C692 C686 1.428 . S
C692 N691 1.351 . S
C692 C693 1.434 . S
C693 C684 1.429 . S
C693 N690 1.350 . S
C693 C692 1.434 . S
C694 C695 1.369 . S
C694 C696 1.419 . S
C694 H698 0.930 . S
C695 C694 1.369 . S
C695 C704 1.429 . S
C696 C694 1.419 . S
C696 C697 1.363 . S
C696 H699 0.929 . S
C697 C696 1.363 . S
C697 C703 1.428 . S
H698 C694 0.930 . S
H699 C696 0.929 . S
S700 N701 1.613 . S
S700 N702 1.610 . S
N701 S700 1.613 . S
N701 C704 1.350 . S
N702 S700 1.610 . S
N702 C703 1.351 . S
C703 C697 1.428 . S
C703 N702 1.351 . S
C703 C704 1.434 . S
C704 C695 1.429 . S
C704 N701 1.350 . S
C704 C703 1.434 . S
C705 C706 1.369 . S
C705 C707 1.419 . S
C705 H709 0.930 . S
C706 C705 1.369 . S
C706 C715 1.429 . S
C707 C705 1.419 . S
C707 C708 1.363 . S
C707 H710 0.929 . S
C708 C707 1.363 . S
C708 C714 1.428 . S
H709 C705 0.930 . S
H710 C707 0.929 . S
S711 N712 1.613 . S
S711 N713 1.610 . S
N712 S711 1.613 . S
N712 C715 1.350 . S
N713 S711 1.610 . S
N713 C714 1.351 . S
C714 C708 1.428 . S
C714 N713 1.351 . S
C714 C715 1.434 . S
C715 C706 1.429 . S
C715 N712 1.350 . S
C715 C714 1.434 . S
C716 C717 1.369 . S
C716 C718 1.419 . S
C716 H720 0.930 . S
C717 C716 1.369 . S
C717 C726 1.429 . S
C718 C716 1.419 . S
C718 C719 1.363 . S
C718 H721 0.929 . S
C719 C718 1.363 . S
C719 C725 1.428 . S
H720 C716 0.930 . S
H721 C718 0.929 . S
S722 N723 1.613 . S
S722 N724 1.610 . S
N723 S722 1.613 . S
N723 C726 1.350 . S
N724 S722 1.610 . S
N724 C725 1.351 . S
C725 C719 1.428 . S
C725 N724 1.351 . S
C725 C726 1.434 . S
C726 C717 1.429 . S
C726 N723 1.350 . S
C726 C725 1.434 . S
C727 C728 1.369 . S
C727 C729 1.419 . S
C727 H731 0.930 . S
C728 C727 1.369 . S
C728 C737 1.429 . S
C729 C727 1.419 . S
C729 C730 1.363 . S
C729 H732 0.929 . S
C730 C729 1.363 . S
C730 C736 1.428 . S
H731 C727 0.930 . S
H732 C729 0.929 . S
S733 N734 1.613 . S
S733 N735 1.610 . S
N734 S733 1.613 . S
N734 C737 1.350 . S
N735 S733 1.610 . S
N735 C736 1.351 . S
C736 C730 1.428 . S
C736 N735 1.351 . S
C736 C737 1.434 . S
C737 C728 1.429 . S
C737 N734 1.350 . S
C737 C736 1.434 . S
C738 C739 1.369 . S
C738 C740 1.419 . S
C738 H742 0.930 . S
C739 C738 1.369 . S
C739 C748 1.429 . S
C740 C738 1.419 . S
C740 C741 1.363 . S
C740 H743 0.929 . S
C741 C740 1.363 . S
C741 C747 1.428 . S
H742 C738 0.930 . S
H743 C740 0.929 . S
S744 N745 1.613 . S
S744 N746 1.610 . S
N745 S744 1.613 . S
N745 C748 1.350 . S
N746 S744 1.610 . S
N746 C747 1.351 . S
C747 C741 1.428 . S
C747 N746 1.351 . S
C747 C748 1.434 . S
C748 C739 1.429 . S
C748 N745 1.350 . S
C748 C747 1.434 . S
C749 C750 1.369 . S
C749 C751 1.419 . S
C749 H753 0.930 . S
C750 C749 1.369 . S
C750 C759 1.429 . S
C751 C749 1.419 . S
C751 C752 1.363 . S
C751 H754 0.929 . S
C752 C751 1.363 . S
C752 C758 1.428 . S
H753 C749 0.930 . S
H754 C751 0.929 . S
S755 N756 1.613 . S
S755 N757 1.610 . S
N756 S755 1.613 . S
N756 C759 1.350 . S
N757 S755 1.610 . S
N757 C758 1.351 . S
C758 C752 1.428 . S
C758 N757 1.351 . S
C758 C759 1.434 . S
C759 C750 1.429 . S
C759 N756 1.350 . S
C759 C758 1.434 . S
C760 C761 1.369 1_545 S
C760 C762 1.419 . S
C760 H764 0.930 1_545 S
C761 C760 1.369 1_565 S
C761 C770 1.429 1_565 S
C762 C760 1.419 . S
C762 C763 1.363 . S
C762 H765 0.929 . S
C763 C762 1.363 . S
C763 C769 1.428 . S
H764 C760 0.930 1_565 S
H765 C762 0.929 . S
S766 N767 1.613 . S
S766 N768 1.610 . S
N767 S766 1.613 . S
N767 C770 1.350 . S
N768 S766 1.610 . S
N768 C769 1.351 . S
C769 C763 1.428 . S
C769 N768 1.351 . S
C769 C770 1.434 . S
C770 C761 1.429 1_545 S
C770 N767 1.350 . S
C770 C769 1.434 . S
C771 C772 1.369 . S
C771 C773 1.419 . S
C771 H775 0.930 . S
C772 C771 1.369 . S
C772 C781 1.429 . S
C773 C771 1.419 . S
C773 C774 1.363 1_565 S
C773 H776 0.929 1_565 S
C774 C773 1.363 1_545 S
C774 C780 1.428 1_545 S
H775 C771 0.930 . S
H776 C773 0.929 1_545 S
S777 N778 1.613 . S
S777 N779 1.610 . S
N778 S777 1.613 . S
N778 C781 1.350 . S
N779 S777 1.610 . S
N779 C780 1.351 . S
C780 C774 1.428 1_565 S
C780 N779 1.351 . S
C780 C781 1.434 . S
C781 C772 1.429 . S
C781 N778 1.350 . S
C781 C780 1.434 . S
C782 C783 1.369 1_565 S
C782 C784 1.419 . S
C782 H786 0.930 . S
C783 C782 1.369 1_545 S
C783 C792 1.429 1_545 S
C784 C782 1.419 . S
C784 C785 1.363 . S
C784 H787 0.929 . S
C785 C784 1.363 . S
C785 C791 1.428 . S
H786 C782 0.930 . S
H787 C784 0.929 . S
S788 N789 1.613 . S
S788 N790 1.610 . S
N789 S788 1.613 . S
N789 C792 1.350 . S
N790 S788 1.610 . S
N790 C791 1.351 . S
C791 C785 1.428 . S
C791 N790 1.351 . S
C791 C792 1.434 . S
C792 C783 1.429 1_565 S
C792 N789 1.350 . S
C792 C791 1.434 . S
C793 C794 1.369 1_545 S
C793 C795 1.419 . S
C793 H797 0.930 1_545 S
C794 C793 1.369 1_565 S
C794 C803 1.429 1_565 S
C795 C793 1.419 . S
C795 C796 1.363 . S
C795 H798 0.929 . S
C796 C795 1.363 . S
C796 C802 1.428 . S
H797 C793 0.930 1_565 S
H798 C795 0.929 . S
S799 N800 1.613 . S
S799 N801 1.610 . S
N800 S799 1.613 . S
N800 C803 1.350 . S
N801 S799 1.610 . S
N801 C802 1.351 . S
C802 C796 1.428 . S
C802 N801 1.351 . S
C802 C803 1.434 . S
C803 C794 1.429 1_545 S
C803 N800 1.350 . S
C803 C802 1.434 . S
C804 C805 1.369 . S
C804 C806 1.419 . S
C804 H808 0.930 . S
C805 C804 1.369 . S
C805 C814 1.429 . S
C806 C804 1.419 . S
C806 C807 1.363 1_565 S
C806 H809 0.929 . S
C807 C806 1.363 1_545 S
C807 C813 1.428 1_545 S
H808 C804 0.930 . S
H809 C806 0.929 . S
S810 N811 1.613 . S
S810 N812 1.601 1_565 S
N811 S810 1.613 . S
N811 C814 1.350 . S
N812 S810 1.601 1_545 S
N812 C813 1.345 1_545 S
C813 C807 1.428 1_565 S
C813 N812 1.345 1_565 S
C813 C814 1.434 . S
C814 C805 1.429 . S
C814 N811 1.350 . S
C814 C813 1.434 . S
C815 C816 1.369 . S
C815 C817 1.419 . S
C815 H819 0.930 . S
C816 C815 1.369 . S
C816 C825 1.429 . S
C817 C815 1.419 . S
C817 C818 1.363 1_545 S
C817 H820 0.929 . S
C818 C817 1.363 1_565 S
C818 C824 1.428 1_565 S
H819 C815 0.930 . S
H820 C817 0.929 . S
S821 N822 1.613 . S
S821 N823 1.610 1_545 S
N822 S821 1.613 . S
N822 C825 1.350 . S
N823 S821 1.610 1_565 S
N823 C824 1.351 1_565 S
C824 C818 1.428 1_545 S
C824 N823 1.351 1_545 S
C824 C825 1.434 . S
C825 C816 1.429 . S
C825 N822 1.350 . S
C825 C824 1.434 . S
C826 C827 1.369 1_545 S
C826 C828 1.419 . S
C826 H830 0.930 . S
C827 C826 1.369 1_565 S
C827 C836 1.429 1_565 S
C828 C826 1.419 . S
C828 C829 1.363 . S
C828 H831 0.929 . S
C829 C828 1.363 . S
C829 C835 1.428 . S
H830 C826 0.930 . S
H831 C828 0.929 . S
S832 N833 1.613 . S
S832 N834 1.610 . S
N833 S832 1.613 . S
N833 C836 1.350 . S
N834 S832 1.610 . S
N834 C835 1.351 . S
C835 C829 1.428 . S
C835 N834 1.351 . S
C835 C836 1.434 . S
C836 C827 1.429 1_545 S
C836 N833 1.350 . S
C836 C835 1.434 . S
C837 C838 1.369 . S
C837 C839 1.419 . S
C837 H841 0.930 . S
C838 C837 1.369 . S
C838 C847 1.429 . S
C839 C837 1.419 . S
C839 C840 1.363 1_565 S
C839 H842 0.929 1_565 S
C840 C839 1.363 1_545 S
C840 C846 1.428 1_545 S
H841 C837 0.930 . S
H842 C839 0.929 1_545 S
S843 N844 1.613 . S
S843 N845 1.610 . S
N844 S843 1.613 . S
N844 C847 1.350 . S
N845 S843 1.610 . S
N845 C846 1.351 . S
C846 C840 1.428 1_565 S
C846 N845 1.351 . S
C846 C847 1.434 . S
C847 C838 1.429 . S
C847 N844 1.350 . S
C847 C846 1.434 . S
C321 C19 1.506 . S
C323 C199 1.508 . S
C332 C39 1.510 . S
C334 C179 1.509 . S
C343 C239 1.507 . S
C345 C59 1.508 . S
C354 C79 1.508 . S
C356 C219 1.509 . S
C365 C278 1.510 . S
C367 C98 1.510 . S
C376 C258 1.507 . S
C378 C118 1.507 . S
C387 C318 1.507 . S
C389 C138 1.507 . S
C398 C158 1.509 . S
C400 C298 1.510 . S
C409 C49 1.609 . S
C411 C9 1.610 . S
C420 C69 1.609 . S
C422 C29 1.610 . S
C431 C128 1.609 . S
C433 C88 1.608 . S
C442 C108 1.609 . S
C444 C148 1.610 . S
C453 C209 1.608 . S
C455 C169 1.609 . S
C464 C229 1.608 . S
C466 C189 1.609 . S
C475 C248 1.609 . S
C477 C288 1.610 . S
C486 C268 1.609 . S
C488 C308 1.610 . S
C497 C109 1.483 . S
C499 C8 1.483 . S
C508 C89 1.488 . S
C510 C28 1.487 . S
C519 C48 1.478 . S
C521 C149 1.479 . S
C530 C129 1.479 . S
C532 C68 1.480 . S
C541 C168 1.479 . S
C543 C269 1.480 . S
C552 C249 1.479 . S
C554 C188 1.480 . S
C563 C208 1.479 . S
C565 C309 1.480 . S
C574 C289 1.481 . S
C576 C228 1.481 . S
C585 C38 1.595 1_545 S
C587 C18 1.588 1_565 S
C596 C78 1.589 1_565 S
C598 C58 1.594 1_545 S
C607 C119 1.586 1_565 S
C609 C99 1.594 1_545 S
C618 C139 1.590 1_565 S
C620 C159 1.589 1_545 S
C629 C198 1.592 . S
C631 C178 1.592 . S
C640 C238 1.587 . S
C642 C218 1.594 . S
C651 C259 1.593 . S
C653 C279 1.587 . S
C662 C299 1.586 . S
C664 C319 1.593 . S
C673 C2 1.577 . S
C675 C1 1.573 . S
C684 C22 1.574 . S
C686 C21 1.575 . S
C695 C42 1.579 . S
C697 C41 1.572 . S
C706 C61 1.578 . S
C708 C62 1.572 . S
C717 C81 1.577 . S
C719 C82 1.573 . S
C728 C102 1.570 . S
C730 C101 1.578 . S
C739 C121 1.579 . S
C741 C122 1.572 . S
C750 C141 1.578 . S
C752 C142 1.572 . S
C761 C161 1.577 . S
C763 C162 1.573 . S
C772 C182 1.571 . S
C774 C181 1.578 . S
C783 C201 1.574 . S
C785 C202 1.575 . S
C794 C221 1.576 . S
C796 C222 1.574 . S
C805 C241 1.579 . S
C807 C242 1.572 . S
C816 C261 1.575 . S
C818 C262 1.574 . S
C827 C282 1.575 . S
C829 C281 1.574 . S
C838 C301 1.573 . S
C840 C302 1.576 . S
