# Generated by pormake.
# Topology ecb, (8)-cn, num edge types: 1
# Building blocks:
#     Node 0, Type 0, BuildingBlock: TAGTUT_clean_sbu_3, # of connection points: 8
#     Node 1, Type 0, BuildingBlock: TAGTUT_clean_sbu_3, # of connection points: 8
#     Node 2, Type 0, BuildingBlock: TAGTUT_clean_sbu_3, # of connection points: 8
#     Node 3, Type 0, BuildingBlock: TAGTUT_clean_sbu_3, # of connection points: 8
#     Node 4, Type 0, BuildingBlock: TAGTUT_clean_sbu_3, # of connection points: 8
#     Node 5, Type 0, BuildingBlock: TAGTUT_clean_sbu_3, # of connection points: 8
#     Node 6, Type 0, BuildingBlock: TAGTUT_clean_sbu_3, # of connection points: 8
#     Node 7, Type 0, BuildingBlock: TAGTUT_clean_sbu_3, # of connection points: 8
#     Node 8, Type 0, BuildingBlock: TAGTUT_clean_sbu_3, # of connection points: 8
#     Node 9, Type 0, BuildingBlock: TAGTUT_clean_sbu_3, # of connection points: 8
#     Node 10, Type 0, BuildingBlock: TAGTUT_clean_sbu_3, # of connection points: 8
#     Node 11, Type 0, BuildingBlock: TAGTUT_clean_sbu_3, # of connection points: 8
#     Node 12, Type 0, BuildingBlock: TAGTUT_clean_sbu_3, # of connection points: 8
#     Node 13, Type 0, BuildingBlock: TAGTUT_clean_sbu_3, # of connection points: 8
#     Node 14, Type 0, BuildingBlock: TAGTUT_clean_sbu_3, # of connection points: 8
#     Node 15, Type 0, BuildingBlock: TAGTUT_clean_sbu_3, # of connection points: 8
#     Node 16, Type 0, BuildingBlock: TAGTUT_clean_sbu_3, # of connection points: 8
#     Node 17, Type 0, BuildingBlock: TAGTUT_clean_sbu_3, # of connection points: 8
#     Edge 18, Type (0, 0), None
#     Edge 19, Type (0, 0), None
#     Edge 20, Type (0, 0), None
#     Edge 21, Type (0, 0), None
#     Edge 22, Type (0, 0), None
#     Edge 23, Type (0, 0), None
#     Edge 24, Type (0, 0), None
#     Edge 25, Type (0, 0), None
#     Edge 26, Type (0, 0), None
#     Edge 27, Type (0, 0), None
#     Edge 28, Type (0, 0), None
#     Edge 29, Type (0, 0), None
#     Edge 30, Type (0, 0), None
#     Edge 31, Type (0, 0), None
#     Edge 32, Type (0, 0), None
#     Edge 33, Type (0, 0), None
#     Edge 34, Type (0, 0), None
#     Edge 35, Type (0, 0), None
#     Edge 36, Type (0, 0), None
#     Edge 37, Type (0, 0), None
#     Edge 38, Type (0, 0), None
#     Edge 39, Type (0, 0), None
#     Edge 40, Type (0, 0), None
#     Edge 41, Type (0, 0), None
#     Edge 42, Type (0, 0), None
#     Edge 43, Type (0, 0), None
#     Edge 44, Type (0, 0), None
#     Edge 45, Type (0, 0), None
#     Edge 46, Type (0, 0), None
#     Edge 47, Type (0, 0), None
#     Edge 48, Type (0, 0), None
#     Edge 49, Type (0, 0), None
#     Edge 50, Type (0, 0), None
#     Edge 51, Type (0, 0), None
#     Edge 52, Type (0, 0), None
#     Edge 53, Type (0, 0), None
#     Edge 54, Type (0, 0), None
#     Edge 55, Type (0, 0), None
#     Edge 56, Type (0, 0), None
#     Edge 57, Type (0, 0), None
#     Edge 58, Type (0, 0), None
#     Edge 59, Type (0, 0), None
#     Edge 60, Type (0, 0), None
#     Edge 61, Type (0, 0), None
#     Edge 62, Type (0, 0), None
#     Edge 63, Type (0, 0), None
#     Edge 64, Type (0, 0), None
#     Edge 65, Type (0, 0), None
#     Edge 66, Type (0, 0), None
#     Edge 67, Type (0, 0), None
#     Edge 68, Type (0, 0), None
#     Edge 69, Type (0, 0), None
#     Edge 70, Type (0, 0), None
#     Edge 71, Type (0, 0), None
#     Edge 72, Type (0, 0), None
#     Edge 73, Type (0, 0), None
#     Edge 74, Type (0, 0), None
#     Edge 75, Type (0, 0), None
#     Edge 76, Type (0, 0), None
#     Edge 77, Type (0, 0), None
#     Edge 78, Type (0, 0), None
#     Edge 79, Type (0, 0), None
#     Edge 80, Type (0, 0), None
#     Edge 81, Type (0, 0), None
#     Edge 82, Type (0, 0), None
#     Edge 83, Type (0, 0), None
#     Edge 84, Type (0, 0), None
#     Edge 85, Type (0, 0), None
#     Edge 86, Type (0, 0), None
#     Edge 87, Type (0, 0), None
#     Edge 88, Type (0, 0), None
#     Edge 89, Type (0, 0), None
# Relax obj value: 0.172
# Max RMSD: 0.280
# Mean RMSD: 0.280
data_MOF--net-ecb--node1-TAGTUT_clean_sbu_3--edge1-none
_symmetry_space_group_name_H-M    P1
_symmetry_Int_Tables_number       1
_symmetry_cell_setting            triclinic
loop_
_symmetry_equiv_pos_as_xyz
'x, y, z'
_cell_length_a     34.686976
_cell_length_b     34.417899
_cell_length_c     9.5417644
_cell_angle_alpha  89.994367
_cell_angle_beta   89.913405
_cell_angle_gamma 119.74079
loop_
_atom_site_label
_atom_site_type_symbol
_atom_site_fract_x
_atom_site_fract_y
_atom_site_fract_z
_atom_type_partial_charge
C0 C 0.24466 0.12322 0.81315 0.0
C1 C 0.28734 0.15481 0.37742 0.0
C2 C 0.25035 0.0325 0.29321 0.0
Mg3 Mg 0.16567 0.02237 0.91489 0.0
Mg4 Mg 0.1908 0.93757 0.92537 0.0
O5 O 0.18806 0.98291 0.82832 0.0
Mg6 Mg 0.23785 0.03473 0.72434 0.0
O7 O 0.28047 0.08893 0.62149 0.0
Mg8 Mg 0.23152 0.09542 0.53015 0.0
Mg9 Mg 0.32026 0.08779 0.49244 0.0
C10 C 0.249 0.95218 0.62144 0.0
O11 O 0.29198 0.04697 0.86827 0.0
O12 O 0.10603 0.96584 0.00273 0.0
O13 O 0.3488 0.08406 0.715 0.0
O14 O 0.20442 0.02491 0.10774 0.0
O15 O 0.11631 0.90634 -0.00174 0.0
O16 O 0.23158 0.9776 0.10702 0.0
O17 O 0.18537 0.02214 0.57129 0.0
O18 O 0.128 0.00725 0.70286 0.0
C19 C 0.14476 0.9978 0.59761 0.0
C20 C 0.09218 0.92497 0.02613 0.0
O21 O 0.25236 0.99005 0.60339 0.0
O22 O 0.28934 0.1645 0.50332 0.0
O23 O 0.22902 0.92748 0.73172 0.0
O24 O 0.23594 0.05718 0.34293 0.0
O25 O 0.30665 0.13276 0.34065 0.0
O26 O 0.28208 0.0299 0.35293 0.0
O27 O 0.22941 0.08269 0.84947 0.0
O28 O 0.22659 0.13164 0.71296 0.0
C29 C 0.22819 0.00984 0.16216 0.0
C30 C 0.33333 0.06884 0.84119 0.0
C31 C 0.9221 0.14484 0.81334 0.0
C32 C 0.88443 0.15406 0.38381 0.0
C33 C 0.00633 0.23914 0.29051 0.0
Mg34 Mg 0.0228 0.1675 0.91193 0.0
Mg35 Mg 0.10402 0.27781 0.92838 0.0
O36 O 0.06117 0.22978 0.82562 0.0
Mg37 Mg 0.00913 0.22705 0.71972 0.0
O38 O 0.95488 0.21357 0.61713 0.0
Mg39 Mg 0.94791 0.15793 0.52798 0.0
Mg40 Mg 0.94967 0.25189 0.49388 0.0
C41 C 0.09186 0.32412 0.623 0.0
O42 O 0.99263 0.26488 0.86893 0.0
O43 O 0.07977 0.16491 0.00213 0.0
O44 O 0.94671 0.2757 0.72563 0.0
O45 O 0.01766 0.20261 0.10525 0.0
O46 O 0.13689 0.23541 0.00403 0.0
O47 O 0.06208 0.27728 0.1078 0.0
O48 O 0.02205 0.18706 0.56524 0.0
O49 O 0.03856 0.14564 0.69911 0.0
C50 C 0.04713 0.17151 0.59308 0.0
C51 C 0.11981 0.19257 0.0294 0.0
O52 O 0.0546 0.28945 0.59904 0.0
O53 O 0.87925 0.14705 0.51152 0.0
O54 O 0.1147 0.32742 0.73655 0.0
O55 O 0.98205 0.19945 0.33592 0.0
O56 O 0.90457 0.19501 0.34465 0.0
O57 O 0.00797 0.27281 0.35422 0.0
O58 O 0.9626 0.17024 0.84468 0.0
O59 O 0.91327 0.11759 0.71481 0.0
C60 C 0.03055 0.24103 0.16079 0.0
C61 C 0.96321 0.27613 0.8497 0.0
C62 C 0.89162 0.79777 0.81306 0.0
C63 C 0.88836 0.75871 0.37579 0.0
C64 C 0.79755 0.78922 0.29069 0.0
Mg65 Mg 0.86969 0.876 0.91411 0.0
Mg66 Mg 0.76103 0.85107 0.92576 0.0
O67 O 0.80791 0.85192 0.83048 0.0
Mg68 Mg 0.80998 0.80216 0.7225 0.0
O69 O 0.8238 0.76143 0.61449 0.0
Mg70 Mg 0.87888 0.81172 0.52839 0.0
Mg71 Mg 0.78767 0.71823 0.48543 0.0
C72 C 0.7194 0.7989 0.61062 0.0
O73 O 0.77243 0.74496 0.87099 0.0
O74 O 0.8728 0.936 0.00427 0.0
O75 O 0.76431 0.69063 0.71851 0.0
O76 O 0.83417 0.83628 0.10554 0.0
O77 O 0.80356 0.92541 0.0001 0.0
O78 O 0.76011 0.80812 0.10639 0.0
O79 O 0.84916 0.85585 0.57149 0.0
O80 O 0.89144 0.91385 0.70227 0.0
C81 C 0.86573 0.89683 0.59669 0.0
C82 C 0.84582 0.94972 0.02831 0.0
O83 O 0.74987 0.78878 0.5997 0.0
O84 O 0.89487 0.75673 0.50243 0.0
O85 O 0.71615 0.81965 0.72164 0.0
O86 O 0.83682 0.80556 0.33882 0.0
O87 O 0.84768 0.73733 0.33571 0.0
O88 O 0.76464 0.75546 0.34987 0.0
O89 O 0.86607 0.81265 0.84548 0.0
O90 O 0.91845 0.81595 0.71395 0.0
C91 C 0.79578 0.81157 0.16018 0.0
C92 C 0.7627 0.70461 0.84602 0.0
C93 C 0.86578 0.99447 0.09709 0.0
C94 C 0.84561 0.92151 0.5285 0.0
C95 C 0.79549 0.00935 0.66136 0.0
Mg96 Mg 0.87864 0.09221 0.02962 0.0
Mg97 Mg 0.78744 0.09475 -0.01396 0.0
O98 O 0.82347 0.0876 0.11522 0.0
Mg99 Mg 0.80956 0.03313 0.22424 0.0
O100 O 0.80748 0.98133 0.33194 0.0
Mg101 Mg 0.86931 0.01901 0.41488 0.0
Mg102 Mg 0.76067 0.93517 0.42684 0.0
C103 C 0.76222 0.08346 0.34651 0.0
O104 O 0.74961 0.98639 0.1011 0.0
O105 O 0.89486 0.16321 0.00302 0.0
O106 O 0.71589 0.92169 0.2225 0.0
O107 O 0.83663 0.05643 0.83982 0.0
O108 O 0.84752 0.13561 0.83642 0.0
O109 O 0.76445 0.03443 0.8509 0.0
O110 O 0.86556 0.07898 0.34856 0.0
O111 O 0.91817 0.12732 0.21589 0.0
C112 C 0.89038 0.11914 0.31172 0.0
C113 C 0.88822 0.15484 0.87637 0.0
O114 O 0.77185 0.05278 0.37185 0.0
O115 O 0.87252 0.96219 0.5043 0.0
O116 O 0.764 0.09908 0.21892 0.0
O117 O 0.83385 0.02303 0.60659 0.0
O118 O 0.80332 0.90348 0.50062 0.0
O119 O 0.75979 0.97718 0.6076 0.0
O120 O 0.84864 0.01846 0.07396 0.0
O121 O 0.89125 0.00293 0.20312 0.0
C122 C 0.79733 0.0335 0.79183 0.0
C123 C 0.71918 0.94577 0.11164 0.0
C124 C 0.92232 0.80266 0.31336 0.0
C125 C 0.88468 0.75639 0.88426 0.0
C126 C 0.00644 0.79263 0.79102 0.0
Mg127 Mg 0.02296 0.88069 0.41227 0.0
Mg128 Mg 0.10418 0.8516 0.42884 0.0
O129 O 0.0613 0.85672 0.32616 0.0
Mg130 Mg 0.00927 0.80746 0.22019 0.0
O131 O 0.95499 0.76679 0.1175 0.0
Mg132 Mg 0.94817 0.81562 0.02865 0.0
Mg133 Mg 0.94957 0.72324 -0.00583 0.0
C134 C 0.09201 0.79319 0.12326 0.0
O135 O 0.99264 0.75303 0.36926 0.0
O136 O 0.07987 0.94022 0.50236 0.0
O137 O 0.94651 0.69642 0.22594 0.0
O138 O 0.01779 0.84046 0.60565 0.0
O139 O 0.13703 0.9269 0.50419 0.0
O140 O 0.0622 0.8102 0.60831 0.0
O141 O 0.02231 0.86041 0.06581 0.0
O142 O 0.03883 0.91836 0.19948 0.0
C143 C 0.04738 0.90105 0.09347 0.0
C144 C 0.11993 0.95265 0.52951 0.0
O145 O 0.05471 0.79052 0.09943 0.0
O146 O 0.87927 0.75811 0.01187 0.0
O147 O 0.11486 0.81274 0.23679 0.0
O148 O 0.98231 0.80819 0.83662 0.0
O149 O 0.90459 0.73532 0.84528 0.0
O150 O 0.00792 0.76048 0.85452 0.0
O151 O 0.96278 0.81775 0.3452 0.0
O152 O 0.9136 0.82138 0.21549 0.0
C153 C 0.03066 0.81492 0.66123 0.0
C154 C 0.96308 0.71243 0.34999 0.0
C155 C 0.24465 0.14686 0.31322 0.0
C156 C 0.28729 0.15793 0.8777 0.0
C157 C 0.2502 0.24319 0.79363 0.0
Mg158 Mg 0.16558 0.16864 0.41521 0.0
Mg159 Mg 0.19061 0.27853 0.42577 0.0
O160 O 0.18801 0.23051 0.32882 0.0
Mg161 Mg 0.2378 0.22849 0.22484 0.0
O162 O 0.28038 0.2169 0.12184 0.0
Mg163 Mg 0.23141 0.16146 0.03047 0.0
Mg164 Mg 0.32016 0.25785 -0.00711 0.0
C165 C 0.24887 0.32218 0.12205 0.0
O166 O 0.29199 0.27037 0.36874 0.0
O167 O 0.10591 0.16549 0.50292 0.0
O168 O 0.34881 0.29008 0.21549 0.0
O169 O 0.20432 0.20486 0.6081 0.0
O170 O 0.11608 0.23521 0.49823 0.0
O171 O 0.23137 0.27931 0.60752 0.0
O172 O 0.1853 0.18865 0.07171 0.0
O173 O 0.1279 0.14613 0.20314 0.0
C174 C 0.14467 0.17231 0.09781 0.0
C175 C 0.09199 0.19246 0.5261 0.0
O176 O 0.2523 0.28772 0.10406 0.0
O177 O 0.28919 0.15015 0.00358 0.0
O178 O 0.22882 0.32686 0.2322 0.0
O179 O 0.23582 0.2041 0.84326 0.0
O180 O 0.30656 0.1993 0.841 0.0
O181 O 0.28191 0.27753 0.85342 0.0
O182 O 0.22936 0.17207 0.34989 0.0
O183 O 0.22646 0.1203 0.21329 0.0
C184 C 0.22804 0.24369 0.66258 0.0
C185 C 0.33335 0.28982 0.34171 0.0
C186 C 0.88422 0.41932 0.16132 0.0
C187 C 0.90159 0.4633 0.72671 0.0
C188 C 0.95137 0.36947 0.66979 0.0
Mg189 Mg 0.87386 0.34132 0.33509 0.0
Mg190 Mg 0.90324 0.27024 0.30487 0.0
O191 O 0.92078 0.32784 0.25931 0.0
Mg192 Mg 0.93277 0.36609 0.0962 0.0
O193 O 0.93729 0.40643 0.94547 0.0
Mg194 Mg 0.87535 0.36946 0.87487 0.0
Mg195 Mg 0.98358 0.45539 0.86519 0.0
C196 C 0.95037 0.2923 0.97584 0.0
O197 O 0.99433 0.41736 0.19888 0.0
O198 O 0.84696 0.29044 0.50334 0.0
O199 O 0.02813 0.47891 0.06697 0.0
O200 O 0.933 0.37796 0.45889 0.0
O201 O 0.82826 0.2363 0.35516 0.0
O202 O 0.93778 0.31584 0.49476 0.0
O203 O 0.87205 0.31246 0.00194 0.0
O204 O 0.82383 0.28923 0.17117 0.0
C205 C 0.83813 0.28063 0.05815 0.0
C206 C 0.81703 0.25456 0.45282 0.0
O207 O 0.96374 0.33397 0.97856 0.0
O208 O 0.87626 0.42141 0.7323 0.0
O209 O 0.92898 0.2656 0.08048 0.0
O210 O 0.91202 0.35178 0.72066 0.0
O211 O 0.94094 0.48299 0.7819 0.0
O212 O 0.98313 0.40862 0.7055 0.0
O213 O 0.90262 0.39787 0.19925 0.0
O214 O 0.86013 0.40747 0.05104 0.0
C215 C 0.94845 0.35674 0.52614 0.0
C216 C 0.0242 0.45774 0.18393 0.0
C217 C 0.63743 0.47062 0.15665 0.0
C218 C 0.57732 0.42478 0.75415 0.0
C219 C 0.66294 0.56615 0.63427 0.0
Mg220 Mg 0.72078 0.5342 0.28098 0.0
Mg221 Mg 0.76275 0.64638 0.31155 0.0
O222 O 0.7416 0.59645 0.20024 0.0
Mg223 Mg 0.69081 0.57077 0.06068 0.0
O224 O 0.64335 0.53221 0.92671 0.0
Mg225 Mg 0.67469 0.49947 0.85705 0.0
Mg226 Mg 0.58814 0.5207 0.86815 0.0
C227 C 0.74902 0.67281 0.96851 0.0
O228 O 0.64426 0.58754 0.18245 0.0
O229 O 0.77644 0.55368 0.41629 0.0
O230 O 0.57708 0.5515 0.07828 0.0
O231 O 0.68606 0.55055 0.43703 0.0
O232 O 0.81108 0.62834 0.43414 0.0
O233 O 0.70542 0.62243 0.46185 0.0
O234 O 0.73781 0.55736 0.94161 0.0
O235 O 0.76307 0.53028 0.10234 0.0
C236 C 0.77002 0.55537 -0.00434 0.0
C237 C 0.80688 0.58946 0.46619 0.0
O238 O 0.71978 0.63303 0.93931 0.0
O239 O 0.61896 0.44351 0.74753 0.0
O240 O 0.76708 0.68426 0.09408 0.0
O241 O 0.68131 0.54548 0.68947 0.0
O242 O 0.5578 0.44506 0.80989 0.0
O243 O 0.62523 0.56111 0.67707 0.0
O244 O 0.65983 0.5115 0.17695 0.0
O245 O 0.64661 0.45346 0.05262 0.0
C246 C 0.68063 0.58085 0.49384 0.0
C247 C 0.60298 0.5755 0.18113 0.0
C248 C 0.55332 0.20147 0.19839 0.0
C249 C 0.59766 0.17728 0.74406 0.0
C250 C 0.46446 0.12707 0.64217 0.0
Mg251 Mg 0.46594 0.21116 0.27213 0.0
Mg252 Mg 0.37551 0.11593 0.31263 0.0
O253 O 0.41787 0.15422 0.18613 0.0
Mg254 Mg 0.46009 0.14238 0.08177 0.0
O255 O 0.50957 0.14178 0.9718 0.0
Mg256 Mg 0.52903 0.20273 0.88286 0.0
Mg257 Mg 0.50384 0.09343 0.86971 0.0
C258 C 0.36318 0.083 0.96587 0.0
O259 O 0.45179 0.08414 0.20851 0.0
O260 O 0.40886 0.22324 0.29492 0.0
O261 O 0.47613 0.04776 0.06994 0.0
O262 O 0.45928 0.16807 0.46136 0.0
O263 O 0.38996 0.17543 0.46162 0.0
O264 O 0.41194 0.09454 0.44943 0.0
O265 O 0.46442 0.19725 0.9531 0.0
O266 O 0.47029 0.25121 0.08543 0.0
C267 C 0.44969 0.22283 -0.00845 0.0
C268 C 0.40938 0.21651 0.42213 0.0
O269 O 0.40438 0.09841 0.94155 0.0
O270 O 0.58777 0.2065 0.78122 0.0
O271 O 0.34792 0.08536 0.08983 0.0
O272 O 0.48915 0.1657 0.69575 0.0
O273 O 0.57312 0.135 0.77423 0.0
O274 O 0.45969 0.09097 0.69792 0.0
O275 O 0.51304 0.18534 0.22895 0.0
O276 O 0.56874 0.22716 0.09132 0.0
C277 C 0.44355 0.12857 0.51057 0.0
C278 C 0.45985 0.05234 0.18853 0.0
C279 C 0.45053 0.25226 0.49094 0.0
C280 C 0.40884 0.21798 0.92225 0.0
C281 C 0.44309 0.3401 0.01175 0.0
Mg282 Mg 0.52899 0.35175 0.38332 0.0
Mg283 Mg 0.50347 0.4356 0.37051 0.0
O284 O 0.50956 0.39322 0.47287 0.0
Mg285 Mg 0.46018 0.34308 0.58351 0.0
O286 O 0.41789 0.28903 0.68708 0.0
Mg287 Mg 0.46574 0.28005 0.77343 0.0
Mg288 Mg 0.37535 0.28488 0.81316 0.0
C289 C 0.45958 0.43278 0.68943 0.0
O290 O 0.40443 0.33117 0.44252 0.0
O291 O 0.58754 0.40683 0.28053 0.0
O292 O 0.34782 0.28786 0.59042 0.0
O293 O 0.48879 0.34862 0.19674 0.0
O294 O 0.57265 0.46352 0.27405 0.0
O295 O 0.45923 0.39381 0.19909 0.0
O296 O 0.51331 0.35316 0.73191 0.0
O297 O 0.56867 0.36726 0.59164 0.0
C298 C 0.55329 0.37784 0.69818 0.0
C299 C 0.59727 0.4459 0.24337 0.0
O300 O 0.45168 0.39298 0.70975 0.0
O301 O 0.40844 0.21098 0.79489 0.0
O302 O 0.47576 0.45357 0.57066 0.0
O303 O 0.45886 0.31637 0.96245 0.0
O304 O 0.38955 0.2397 0.96224 0.0
O305 O 0.41157 0.34262 0.95037 0.0
O306 O 0.46478 0.29276 0.45583 0.0
O307 O 0.4702 0.24423 0.58732 0.0
C308 C 0.464 0.36249 0.14335 0.0
C309 C 0.36318 0.30543 0.46652 0.0
C310 C 0.77034 0.24084 0.49459 0.0
C311 C 0.80745 0.2432 0.96591 0.0
C312 C 0.6812 0.12634 -0.00525 0.0
Mg313 Mg 0.67497 0.20161 0.35853 0.0
Mg314 Mg 0.58846 0.09358 0.36848 0.0
O315 O 0.64337 0.13754 0.4285 0.0
Mg316 Mg 0.69106 0.14614 0.56139 0.0
O317 O 0.7422 0.17124 0.69989 0.0
Mg318 Mg 0.72175 0.21303 0.78071 0.0
Mg319 Mg 0.7626 0.1419 0.81196 0.0
C320 C 0.60317 0.05367 0.68192 0.0
O321 O 0.7196 0.11254 0.4394 0.0
O322 O 0.6191 0.20205 0.25078 0.0
O323 O 0.76662 0.10819 0.59446 0.0
O324 O 0.68124 0.16232 0.19002 0.0
O325 O 0.55797 0.1387 0.30914 0.0
O326 O 0.62577 0.09033 0.17793 0.0
O327 O 0.66053 0.1747 0.67871 0.0
O328 O 0.64736 0.21964 0.55474 0.0
C329 C 0.63798 0.19299 0.65803 0.0
C330 C 0.57746 0.17877 0.25526 0.0
O331 O 0.64444 0.08293 0.68345 0.0
O332 O 0.7776 0.24916 0.91439 0.0
O333 O 0.57734 0.05169 0.57871 0.0
O334 O 0.68737 0.16233 0.93796 0.0
O335 O 0.81104 0.20806 0.93536 0.0
O336 O 0.70516 0.1087 0.9619 0.0
O337 O 0.73806 0.20639 0.44203 0.0
O338 O 0.76359 0.2591 0.60125 0.0
C339 C 0.66323 0.1233 0.13484 0.0
C340 C 0.74863 0.10172 0.4688 0.0
C341 C 0.88387 0.49014 0.66172 0.0
C342 C 0.90174 0.46381 0.22658 0.0
C343 C 0.95106 0.6073 0.17002 0.0
Mg344 Mg 0.87339 0.55777 0.83548 0.0
Mg345 Mg 0.90299 0.6584 0.80506 0.0
O346 O 0.92024 0.61813 0.75943 0.0
Mg347 Mg 0.93234 0.59189 0.59654 0.0
O348 O 0.93699 0.55606 0.44605 0.0
Mg349 Mg 0.87509 0.5311 0.37504 0.0
Mg350 Mg 0.98347 0.55382 0.36541 0.0
C351 C 0.95012 0.68338 0.47609 0.0
O352 O 0.99399 0.60227 0.69955 0.0
O353 O 0.84653 0.5818 0.00368 0.0
O354 O 0.02806 0.57495 0.56706 0.0
O355 O 0.9326 0.58039 0.9592 0.0
O356 O 0.82804 0.61747 0.85556 0.0
O357 O 0.93751 0.64735 -0.00509 0.0
O358 O 0.87154 0.58473 0.50196 0.0
O359 O 0.82332 0.55976 0.67148 0.0
C360 C 0.83755 0.5825 0.55809 0.0
C361 C 0.81672 0.58797 0.95323 0.0
O362 O 0.96334 0.65496 0.47875 0.0
O363 O 0.87622 0.48014 0.23264 0.0
O364 O 0.9288 0.68878 0.58074 0.0
O365 O 0.91171 0.58549 0.22084 0.0
O366 O 0.94111 0.48362 0.28161 0.0
O367 O 0.98293 0.6001 0.20585 0.0
O368 O 0.90217 0.52999 0.69972 0.0
O369 O 0.85986 0.47788 0.55126 0.0
C370 C 0.94811 0.61708 0.02635 0.0
C371 C 0.02403 0.59199 0.68425 0.0
C372 C 0.56109 0.7625 0.44651 0.0
C373 C 0.57849 0.79726 0.01443 0.0
C374 C 0.60715 0.68822 0.97001 0.0
Mg375 Mg 0.52308 0.67542 0.62474 0.0
Mg376 Mg 0.54153 0.59007 0.61146 0.0
O377 O 0.56144 0.64902 0.56491 0.0
Mg378 Mg 0.58985 0.6892 0.40411 0.0
O379 O 0.60608 0.72879 0.23944 0.0
Mg380 Mg 0.54403 0.70434 0.16863 0.0
Mg381 Mg 0.65088 0.77943 0.16341 0.0
C382 C 0.58848 0.59614 0.2958 0.0
O383 O 0.65589 0.73651 0.51452 0.0
O384 O 0.47452 0.62093 0.76999 0.0
O385 O 0.6882 0.79849 0.37935 0.0
O386 O 0.57753 0.69456 0.77467 0.0
O387 O 0.46756 0.56075 0.66311 0.0
O388 O 0.58337 0.63189 0.79527 0.0
O389 O 0.52759 0.64726 0.30571 0.0
O390 O 0.47333 0.63489 0.44782 0.0
C391 C 0.4882 0.62331 0.34308 0.0
C392 C 0.45093 0.58 0.73851 0.0
O393 O 0.60769 0.63916 0.29718 0.0
O394 O 0.5553 0.75533 0.0024 0.0
O395 O 0.56328 0.57245 0.39936 0.0
O396 O 0.57056 0.67157 0.03698 0.0
O397 O 0.61433 0.81503 0.08855 0.0
O398 O 0.63993 0.7285 -0.00692 0.0
O399 O 0.57095 0.73505 0.49926 0.0
O400 O 0.53956 0.7531 0.33099 0.0
C401 C 0.59539 0.67314 0.82851 0.0
C402 C 0.6842 0.77824 0.49867 0.0
C403 C 0.26988 0.83533 0.47053 0.0
C404 C 0.22397 0.82274 0.06895 0.0
C405 C 0.33664 0.92887 0.96059 0.0
Mg406 Mg 0.36724 0.86663 0.59966 0.0
Mg407 Mg 0.43992 0.97853 0.62392 0.0
O408 O 0.40058 0.92969 0.52084 0.0
Mg409 Mg 0.35083 0.92206 0.39107 0.0
O410 O 0.30035 0.90166 0.26564 0.0
Mg411 Mg 0.302 0.84712 0.20609 0.0
Mg412 Mg 0.26882 0.92131 0.15564 0.0
C413 C 0.44006 0.01622 0.297 0.0
O414 O 0.31143 0.94848 0.52556 0.0
O415 O 0.42352 0.87074 0.7185 0.0
O416 O 0.25296 0.93267 0.38229 0.0
O417 O 0.35293 0.8987 0.77464 0.0
O418 O 0.47446 0.94387 0.72344 0.0
O419 O 0.39108 0.97395 0.78417 0.0
O420 O 0.37795 0.88688 0.25208 0.0
O421 O 0.3943 0.84885 0.40272 0.0
C422 C 0.40463 0.87441 0.29546 0.0
C423 C 0.46078 0.90245 0.75629 0.0
O424 O 0.39964 0.98599 0.27525 0.0
O425 O 0.23064 0.82195 0.19535 0.0
O426 O 0.45933 0.02054 0.41799 0.0
O427 O 0.32562 0.89084 0.01578 0.0
O428 O 0.23267 0.86024 0.01654 0.0
O429 O 0.32522 0.95605 0.01324 0.0
O430 O 0.308 0.86463 0.50743 0.0
O431 O 0.26814 0.80439 0.39635 0.0
C432 C 0.36048 0.93567 0.82905 0.0
C433 C 0.27093 0.94019 0.50669 0.0
C434 C 0.22519 0.46374 0.49057 0.0
C435 C 0.2327 0.42841 0.06047 0.0
C436 C 0.13689 0.45561 0.9772 0.0
Mg437 Mg 0.20464 0.54166 0.60541 0.0
Mg438 Mg 0.09679 0.51736 0.62089 0.0
O439 O 0.14147 0.51304 0.53171 0.0
Mg440 Mg 0.14405 0.46538 0.41104 0.0
O441 O 0.16199 0.43039 0.28921 0.0
Mg442 Mg 0.2169 0.48461 0.21826 0.0
Mg443 Mg 0.13205 0.38457 0.16101 0.0
C444 C 0.05913 0.47357 0.29544 0.0
O445 O 0.10996 0.39843 0.54353 0.0
O446 O 0.20711 0.60144 0.70114 0.0
O447 O 0.11102 0.3501 0.38184 0.0
O448 O 0.17122 0.50201 0.79246 0.0
O449 O 0.13805 0.59079 0.69332 0.0
O450 O 0.09706 0.47392 0.79936 0.0
O451 O 0.18155 0.52355 0.26825 0.0
O452 O 0.22469 0.58127 0.39804 0.0
C453 C 0.19831 0.56451 0.29448 0.0
C454 C 0.17991 0.61505 0.72365 0.0
O455 O 0.08406 0.45591 0.28877 0.0
O456 O 0.23935 0.43687 0.18696 0.0
O457 O 0.05724 0.49434 0.40797 0.0
O458 O 0.17664 0.47451 0.02422 0.0
O459 O 0.19253 0.40423 0.0186 0.0
O460 O 0.10561 0.41957 0.03217 0.0
O461 O 0.2002 0.47788 0.5326 0.0
O462 O 0.25636 0.48863 0.40992 0.0
C463 C 0.13325 0.47705 0.84831 0.0
C464 C 0.10682 0.36029 0.51137 0.0
C465 C 0.22539 0.78687 -0.00951 0.0
C466 C 0.23293 0.82982 0.56043 0.0
C467 C 0.13703 0.70686 0.47714 0.0
Mg468 Mg 0.20467 0.68839 0.10536 0.0
Mg469 Mg 0.09677 0.60496 0.12104 0.0
O470 O 0.1415 0.65385 0.03157 0.0
Mg471 Mg 0.14414 0.70414 0.91097 0.0
O472 O 0.16217 0.75712 0.7892 0.0
Mg473 Mg 0.21704 0.75772 0.71815 0.0
Mg474 Mg 0.13226 0.77307 0.66114 0.0
C475 C 0.059 0.61111 0.79571 0.0
O476 O 0.1101 0.737 0.04358 0.0
O477 O 0.20708 0.63105 0.20114 0.0
O478 O 0.11122 0.78646 0.88205 0.0
O479 O 0.17129 0.69468 0.2924 0.0
O480 O 0.13799 0.57271 0.19353 0.0
O481 O 0.09711 0.64871 0.2994 0.0
O482 O 0.18161 0.68344 0.76817 0.0
O483 O 0.22472 0.66882 0.89803 0.0
C484 C 0.19838 0.65925 0.79437 0.0
C485 C 0.17985 0.59025 0.22376 0.0
O486 O 0.08407 0.65368 0.78872 0.0
O487 O 0.23966 0.82792 0.68681 0.0
O488 O 0.0571 0.58848 0.90833 0.0
O489 O 0.17678 0.72766 0.52407 0.0
O490 O 0.19274 0.8139 0.51875 0.0
O491 O 0.10578 0.71165 0.5322 0.0
O492 O 0.20031 0.74775 0.03255 0.0
O493 O 0.25652 0.79307 0.90979 0.0
C494 C 0.13333 0.68174 0.34829 0.0
C495 C 0.10699 0.77203 0.01154 0.0
C496 C 0.26969 0.45999 0.97097 0.0
C497 C 0.22373 0.42647 0.56933 0.0
C498 C 0.33632 0.43302 0.46107 0.0
Mg499 Mg 0.36706 0.52596 0.10025 0.0
Mg500 Mg 0.43961 0.4866 0.12477 0.0
O501 O 0.4004 0.49626 0.02138 0.0
Mg502 Mg 0.3506 0.45413 0.89161 0.0
O503 O 0.30009 0.42404 0.76626 0.0
Mg504 Mg 0.30172 0.4802 0.70643 0.0
Mg505 Mg 0.26861 0.37282 0.65634 0.0
C506 C 0.43978 0.44911 0.79781 0.0
O507 O 0.31124 0.38834 0.02617 0.0
O508 O 0.42331 0.57804 0.21953 0.0
O509 O 0.25278 0.34562 0.88294 0.0
O510 O 0.35268 0.47952 0.27517 0.0
O511 O 0.47412 0.55567 0.22522 0.0
O512 O 0.3907 0.44228 0.28463 0.0
O513 O 0.37766 0.51639 0.75243 0.0
O514 O 0.39416 0.57076 0.90323 0.0
C515 C 0.4044 0.55551 0.79582 0.0
C516 C 0.46046 0.58344 0.25804 0.0
O517 O 0.39938 0.43898 0.77588 0.0
O518 O 0.23036 0.43399 0.69572 0.0
O519 O 0.45901 0.46399 0.91888 0.0
O520 O 0.32531 0.46003 0.51622 0.0
O521 O 0.23241 0.39764 0.51709 0.0
O522 O 0.32497 0.39445 0.5139 0.0
O523 O 0.30781 0.46879 0.00789 0.0
O524 O 0.2679 0.48913 0.89662 0.0
C525 C 0.36016 0.45004 0.32955 0.0
C526 C 0.27075 0.35609 0.00731 0.0
C527 C 0.4886 0.89029 0.84075 0.0
C528 C 0.45111 0.89622 0.23776 0.0
C529 C 0.59595 0.94724 0.32676 0.0
Mg530 Mg 0.54512 0.86639 0.66639 0.0
Mg531 Mg 0.65091 0.89622 0.66433 0.0
O532 O 0.60727 0.90471 0.73693 0.0
Mg533 Mg 0.59038 0.92682 0.9029 0.0
O534 O 0.56137 0.93774 0.06365 0.0
Mg535 Mg 0.52341 0.87294 0.12248 0.0
Mg536 Mg 0.54193 0.97702 0.11147 0.0
C537 C 0.68407 0.93134 -0.00053 0.0
O538 O 0.60806 0.99481 0.79764 0.0
O539 O 0.55672 0.82717 0.49879 0.0
O540 O 0.56339 0.01671 0.8999 0.0
O541 O 0.57205 0.92606 0.53685 0.0
O542 O 0.61309 0.82368 0.5941 0.0
O543 O 0.64028 0.93569 0.49044 0.0
O544 O 0.57184 0.86196 -0.0031 0.0
O545 O 0.54083 0.81294 0.82748 0.0
C546 C 0.56248 0.82498 0.94275 0.0
C547 C 0.57795 0.8066 0.51685 0.0
O548 O 0.6563 0.94551 0.01386 0.0
O549 O 0.47429 0.87824 0.26704 0.0
O550 O 0.68779 0.91446 0.88107 0.0
O551 O 0.5775 0.9078 0.27401 0.0
O552 O 0.46803 0.93249 0.16414 0.0
O553 O 0.58432 0.97674 0.29307 0.0
O554 O 0.52816 0.90638 0.80444 0.0
O555 O 0.47378 0.86361 0.945 0.0
C556 C 0.6083 0.9445 0.46799 0.0
C557 C 0.58869 0.01846 0.79636 0.0
loop_
_geom_bond_atom_site_label_1
_geom_bond_atom_site_label_2
_geom_bond_distance
_geom_bond_site_symmetry_2
_ccdc_geom_bond_type
C0 O27 1.312 . S
C0 O28 1.208 . S
C1 O22 1.331 . S
C1 O25 1.244 . S
C2 O24 1.264 . S
C2 O26 1.273 . S
Mg3 O5 1.936 . S
Mg3 O12 2.081 1_556 S
Mg3 O14 2.024 1_556 S
Mg3 O18 2.031 . S
Mg3 O27 2.291 1_565 S
Mg4 O5 1.963 . S
Mg4 O15 1.942 1_556 S
Mg4 O16 1.955 1_556 S
Mg4 O23 1.986 . S
O5 Mg3 1.936 . S
O5 Mg4 1.963 . S
O5 Mg6 1.915 1_565 S
Mg6 O5 1.915 1_545 S
Mg6 O7 1.915 . S
Mg6 O11 2.013 . S
Mg6 O17 2.114 1_545 S
Mg6 O21 2.013 1_545 S
Mg6 O27 2.114 . S
O7 Mg6 1.915 . S
O7 Mg8 1.936 . S
O7 Mg9 1.963 . S
Mg8 O7 1.936 . S
Mg8 O17 2.291 1_545 S
Mg8 O22 2.081 . S
Mg8 O24 2.023 . S
Mg8 O28 2.031 . S
Mg9 O7 1.963 . S
Mg9 O13 1.986 . S
Mg9 O25 1.942 . S
Mg9 O26 1.955 . S
C10 O21 1.191 . S
C10 O23 1.307 . S
O11 Mg6 2.013 . S
O11 C30 1.191 . S
O12 Mg3 2.081 1_554 S
O12 C20 1.331 . S
O13 Mg9 1.986 . S
O13 C30 1.307 . S
O14 Mg3 2.024 1_554 S
O14 C29 1.266 1_565 S
O15 Mg4 1.942 1_554 S
O15 C20 1.244 . S
O16 Mg4 1.955 1_554 S
O16 C29 1.273 1_565 S
O17 Mg6 2.114 1_565 S
O17 Mg8 2.291 1_565 S
O17 C19 1.312 . S
O18 Mg3 2.031 . S
O18 C19 1.208 . S
C19 O17 1.312 . S
C19 O18 1.208 . S
C20 O12 1.331 . S
C20 O15 1.244 . S
O21 Mg6 2.013 1_565 S
O21 C10 1.191 . S
O22 C1 1.331 . S
O22 Mg8 2.081 . S
O23 Mg4 1.986 . S
O23 C10 1.307 . S
O24 C2 1.264 . S
O24 Mg8 2.023 . S
O25 C1 1.244 . S
O25 Mg9 1.942 . S
O26 C2 1.273 . S
O26 Mg9 1.955 . S
O27 C0 1.312 . S
O27 Mg3 2.291 1_545 S
O27 Mg6 2.114 . S
O28 C0 1.208 . S
O28 Mg8 2.031 . S
C29 O14 1.266 1_545 S
C29 O16 1.273 1_545 S
C30 O11 1.191 . S
C30 O13 1.307 . S
C31 O58 1.312 . S
C31 O59 1.208 . S
C32 O53 1.331 . S
C32 O56 1.244 . S
C33 O55 1.266 1_455 S
C33 O57 1.273 1_455 S
Mg34 O36 1.936 . S
Mg34 O43 2.081 1_556 S
Mg34 O45 2.023 1_556 S
Mg34 O49 2.031 . S
Mg34 O58 2.291 1_455 S
Mg35 O36 1.963 . S
Mg35 O46 1.942 1_556 S
Mg35 O47 1.955 1_556 S
Mg35 O54 1.986 . S
O36 Mg34 1.936 . S
O36 Mg35 1.963 . S
O36 Mg37 1.915 . S
Mg37 O36 1.915 . S
Mg37 O38 1.915 1_455 S
Mg37 O42 2.013 1_455 S
Mg37 O48 2.114 . S
Mg37 O52 2.013 . S
Mg37 O58 2.114 1_455 S
O38 Mg37 1.915 1_655 S
O38 Mg39 1.936 . S
O38 Mg40 1.963 . S
Mg39 O38 1.936 . S
Mg39 O48 2.291 1_655 S
Mg39 O53 2.081 . S
Mg39 O55 2.024 . S
Mg39 O59 2.031 . S
Mg40 O38 1.963 . S
Mg40 O44 1.986 . S
Mg40 O56 1.942 . S
Mg40 O57 1.955 . S
C41 O52 1.191 . S
C41 O54 1.307 . S
O42 Mg37 2.013 1_655 S
O42 C61 1.191 . S
O43 Mg34 2.081 1_554 S
O43 C51 1.331 . S
O44 Mg40 1.986 . S
O44 C61 1.307 . S
O45 Mg34 2.023 1_554 S
O45 C60 1.264 . S
O46 Mg35 1.942 1_554 S
O46 C51 1.244 . S
O47 Mg35 1.955 1_554 S
O47 C60 1.273 . S
O48 Mg37 2.114 . S
O48 Mg39 2.291 1_455 S
O48 C50 1.312 . S
O49 Mg34 2.031 . S
O49 C50 1.208 . S
C50 O48 1.312 . S
C50 O49 1.208 . S
C51 O43 1.331 . S
C51 O46 1.244 . S
O52 Mg37 2.013 . S
O52 C41 1.191 . S
O53 C32 1.331 . S
O53 Mg39 2.081 . S
O54 Mg35 1.986 . S
O54 C41 1.307 . S
O55 C33 1.266 1_655 S
O55 Mg39 2.024 . S
O56 C32 1.244 . S
O56 Mg40 1.942 . S
O57 C33 1.273 1_655 S
O57 Mg40 1.955 . S
O58 C31 1.312 . S
O58 Mg34 2.291 1_655 S
O58 Mg37 2.114 1_655 S
O59 C31 1.208 . S
O59 Mg39 2.031 . S
C60 O45 1.264 . S
C60 O47 1.273 . S
C61 O42 1.191 . S
C61 O44 1.307 . S
C62 O89 1.312 . S
C62 O90 1.208 . S
C63 O84 1.331 . S
C63 O87 1.244 . S
C64 O86 1.264 . S
C64 O88 1.273 . S
Mg65 O67 1.936 . S
Mg65 O74 2.081 1_556 S
Mg65 O76 2.023 1_556 S
Mg65 O80 2.031 . S
Mg65 O89 2.291 . S
Mg66 O67 1.963 . S
Mg66 O77 1.942 1_556 S
Mg66 O78 1.955 1_556 S
Mg66 O85 1.986 . S
O67 Mg65 1.936 . S
O67 Mg66 1.963 . S
O67 Mg68 1.915 . S
Mg68 O67 1.915 . S
Mg68 O69 1.915 . S
Mg68 O73 2.013 . S
Mg68 O79 2.114 . S
Mg68 O83 2.013 . S
Mg68 O89 2.114 . S
O69 Mg68 1.915 . S
O69 Mg70 1.936 . S
O69 Mg71 1.963 . S
Mg70 O69 1.936 . S
Mg70 O79 2.291 . S
Mg70 O84 2.081 . S
Mg70 O86 2.023 . S
Mg70 O90 2.031 . S
Mg71 O69 1.963 . S
Mg71 O75 1.986 . S
Mg71 O87 1.942 . S
Mg71 O88 1.955 . S
C72 O83 1.191 . S
C72 O85 1.307 . S
O73 Mg68 2.013 . S
O73 C92 1.191 . S
O74 Mg65 2.081 1_554 S
O74 C82 1.331 . S
O75 Mg71 1.986 . S
O75 C92 1.307 . S
O76 Mg65 2.023 1_554 S
O76 C91 1.264 . S
O77 Mg66 1.942 1_554 S
O77 C82 1.244 . S
O78 Mg66 1.955 1_554 S
O78 C91 1.273 . S
O79 Mg68 2.114 . S
O79 Mg70 2.291 . S
O79 C81 1.312 . S
O80 Mg65 2.031 . S
O80 C81 1.208 . S
C81 O79 1.312 . S
C81 O80 1.208 . S
C82 O74 1.331 . S
C82 O77 1.244 . S
O83 Mg68 2.013 . S
O83 C72 1.191 . S
O84 C63 1.331 . S
O84 Mg70 2.081 . S
O85 Mg66 1.986 . S
O85 C72 1.307 . S
O86 C64 1.264 . S
O86 Mg70 2.023 . S
O87 C63 1.244 . S
O87 Mg71 1.942 . S
O88 C64 1.273 . S
O88 Mg71 1.955 . S
O89 C62 1.312 . S
O89 Mg65 2.291 . S
O89 Mg68 2.114 . S
O90 C62 1.208 . S
O90 Mg70 2.031 . S
C91 O76 1.264 . S
C91 O78 1.273 . S
C92 O73 1.191 . S
C92 O75 1.307 . S
C93 O120 1.312 . S
C93 O121 1.208 . S
C94 O115 1.331 . S
C94 O118 1.244 . S
C95 O117 1.260 1_545 S
C95 O119 1.273 1_545 S
Mg96 O98 1.936 . S
Mg96 O105 2.081 1_554 S
Mg96 O107 2.023 1_554 S
Mg96 O111 2.031 . S
Mg96 O120 2.291 1_545 S
Mg97 O98 1.963 . S
Mg97 O108 1.942 1_554 S
Mg97 O109 1.955 1_554 S
Mg97 O116 1.986 . S
O98 Mg96 1.936 . S
O98 Mg97 1.963 . S
O98 Mg99 1.915 . S
Mg99 O98 1.915 . S
Mg99 O100 1.915 1_545 S
Mg99 O104 2.013 1_545 S
Mg99 O110 2.114 . S
Mg99 O114 2.013 . S
Mg99 O120 2.114 1_545 S
O100 Mg99 1.915 1_565 S
O100 Mg101 1.936 . S
O100 Mg102 1.963 . S
Mg101 O100 1.936 . S
Mg101 O110 2.291 1_565 S
Mg101 O115 2.081 . S
Mg101 O117 2.026 . S
Mg101 O121 2.031 . S
Mg102 O100 1.963 . S
Mg102 O106 1.986 . S
Mg102 O118 1.942 . S
Mg102 O119 1.955 . S
C103 O114 1.191 . S
C103 O116 1.307 . S
O104 Mg99 2.013 1_565 S
O104 C123 1.191 . S
O105 Mg96 2.081 1_556 S
O105 C113 1.331 . S
O106 Mg102 1.986 . S
O106 C123 1.307 . S
O107 Mg96 2.023 1_556 S
O107 C122 1.264 . S
O108 Mg97 1.942 1_556 S
O108 C113 1.244 . S
O109 Mg97 1.955 1_556 S
O109 C122 1.273 . S
O110 Mg99 2.114 . S
O110 Mg101 2.291 1_545 S
O110 C112 1.312 . S
O111 Mg96 2.031 . S
O111 C112 1.208 . S
C112 O110 1.312 . S
C112 O111 1.208 . S
C113 O105 1.331 . S
C113 O108 1.244 . S
O114 Mg99 2.013 . S
O114 C103 1.191 . S
O115 C94 1.331 . S
O115 Mg101 2.081 . S
O116 Mg97 1.986 . S
O116 C103 1.307 . S
O117 C95 1.260 1_565 S
O117 Mg101 2.026 . S
O118 C94 1.244 . S
O118 Mg102 1.942 . S
O119 C95 1.273 1_565 S
O119 Mg102 1.955 . S
O120 C93 1.312 . S
O120 Mg96 2.291 1_565 S
O120 Mg99 2.114 1_565 S
O121 C93 1.208 . S
O121 Mg101 2.031 . S
C122 O107 1.264 . S
C122 O109 1.273 . S
C123 O104 1.191 . S
C123 O106 1.307 . S
C124 O151 1.312 . S
C124 O152 1.208 . S
C125 O146 1.331 . S
C125 O149 1.244 . S
C126 O148 1.260 1_455 S
C126 O150 1.273 1_455 S
Mg127 O129 1.936 . S
Mg127 O136 2.081 . S
Mg127 O138 2.023 . S
Mg127 O142 2.031 . S
Mg127 O151 2.291 1_455 S
Mg128 O129 1.963 . S
Mg128 O139 1.942 . S
Mg128 O140 1.955 . S
Mg128 O147 1.986 . S
O129 Mg127 1.936 . S
O129 Mg128 1.963 . S
O129 Mg130 1.915 . S
Mg130 O129 1.915 . S
Mg130 O131 1.915 1_455 S
Mg130 O135 2.013 1_455 S
Mg130 O141 2.114 . S
Mg130 O145 2.013 . S
Mg130 O151 2.114 1_455 S
O131 Mg130 1.915 1_655 S
O131 Mg132 1.936 . S
O131 Mg133 1.963 . S
Mg132 O131 1.936 . S
Mg132 O141 2.291 1_655 S
Mg132 O146 2.081 1_554 S
Mg132 O148 2.026 1_554 S
Mg132 O152 2.031 . S
Mg133 O131 1.963 . S
Mg133 O137 1.986 . S
Mg133 O149 1.942 1_554 S
Mg133 O150 1.955 1_554 S
C134 O145 1.191 . S
C134 O147 1.307 . S
O135 Mg130 2.013 1_655 S
O135 C154 1.191 . S
O136 Mg127 2.081 . S
O136 C144 1.331 . S
O137 Mg133 1.986 . S
O137 C154 1.307 . S
O138 Mg127 2.023 . S
O138 C153 1.264 . S
O139 Mg128 1.942 . S
O139 C144 1.244 . S
O140 Mg128 1.955 . S
O140 C153 1.273 . S
O141 Mg130 2.114 . S
O141 Mg132 2.291 1_455 S
O141 C143 1.312 . S
O142 Mg127 2.031 . S
O142 C143 1.208 . S
C143 O141 1.312 . S
C143 O142 1.208 . S
C144 O136 1.331 . S
C144 O139 1.244 . S
O145 Mg130 2.013 . S
O145 C134 1.191 . S
O146 C125 1.331 . S
O146 Mg132 2.081 1_556 S
O147 Mg128 1.986 . S
O147 C134 1.307 . S
O148 C126 1.260 1_655 S
O148 Mg132 2.026 1_556 S
O149 C125 1.244 . S
O149 Mg133 1.942 1_556 S
O150 C126 1.273 1_655 S
O150 Mg133 1.955 1_556 S
O151 C124 1.312 . S
O151 Mg127 2.291 1_655 S
O151 Mg130 2.114 1_655 S
O152 C124 1.208 . S
O152 Mg132 2.031 . S
C153 O138 1.264 . S
C153 O140 1.273 . S
C154 O135 1.191 . S
C154 O137 1.307 . S
C155 O182 1.312 . S
C155 O183 1.208 . S
C156 O177 1.331 . S
C156 O180 1.244 . S
C157 O179 1.264 . S
C157 O181 1.273 . S
Mg158 O160 1.936 . S
Mg158 O167 2.081 . S
Mg158 O169 2.023 . S
Mg158 O173 2.031 . S
Mg158 O182 2.291 . S
Mg159 O160 1.963 . S
Mg159 O170 1.942 . S
Mg159 O171 1.955 . S
Mg159 O178 1.986 . S
O160 Mg158 1.936 . S
O160 Mg159 1.963 . S
O160 Mg161 1.915 . S
Mg161 O160 1.915 . S
Mg161 O162 1.915 . S
Mg161 O166 2.013 . S
Mg161 O172 2.114 . S
Mg161 O176 2.013 . S
Mg161 O182 2.114 . S
O162 Mg161 1.915 . S
O162 Mg163 1.936 . S
O162 Mg164 1.963 . S
Mg163 O162 1.936 . S
Mg163 O172 2.291 . S
Mg163 O177 2.081 1_554 S
Mg163 O179 2.023 1_554 S
Mg163 O183 2.031 . S
Mg164 O162 1.963 . S
Mg164 O168 1.986 . S
Mg164 O180 1.942 1_554 S
Mg164 O181 1.955 1_554 S
C165 O176 1.191 . S
C165 O178 1.307 . S
O166 Mg161 2.013 . S
O166 C185 1.191 . S
O167 Mg158 2.081 . S
O167 C175 1.331 . S
O168 Mg164 1.986 . S
O168 C185 1.307 . S
O169 Mg158 2.023 . S
O169 C184 1.264 . S
O170 Mg159 1.942 . S
O170 C175 1.244 . S
O171 Mg159 1.955 . S
O171 C184 1.273 . S
O172 Mg161 2.114 . S
O172 Mg163 2.291 . S
O172 C174 1.312 . S
O173 Mg158 2.031 . S
O173 C174 1.208 . S
C174 O172 1.312 . S
C174 O173 1.208 . S
C175 O167 1.331 . S
C175 O170 1.244 . S
O176 Mg161 2.013 . S
O176 C165 1.191 . S
O177 C156 1.331 . S
O177 Mg163 2.081 1_556 S
O178 Mg159 1.986 . S
O178 C165 1.307 . S
O179 C157 1.264 . S
O179 Mg163 2.023 1_556 S
O180 C156 1.244 . S
O180 Mg164 1.942 1_556 S
O181 C157 1.273 . S
O181 Mg164 1.955 1_556 S
O182 C155 1.312 . S
O182 Mg158 2.291 . S
O182 Mg161 2.114 . S
O183 C155 1.208 . S
O183 Mg163 2.031 . S
C184 O169 1.264 . S
C184 O171 1.273 . S
C185 O166 1.191 . S
C185 O168 1.307 . S
C186 O213 1.312 . S
C186 O214 1.208 . S
C187 O208 1.331 . S
C187 O211 1.244 . S
C188 O210 1.264 . S
C188 O212 1.273 . S
Mg189 O191 1.936 . S
Mg189 O198 2.081 . S
Mg189 O200 2.023 . S
Mg189 O204 2.031 . S
Mg189 O213 2.291 . S
Mg190 O191 1.963 . S
Mg190 O201 1.942 . S
Mg190 O202 1.955 . S
Mg190 O209 1.986 . S
O191 Mg189 1.936 . S
O191 Mg190 1.963 . S
O191 Mg192 1.915 . S
Mg192 O191 1.915 . S
Mg192 O193 1.915 1_554 S
Mg192 O197 2.013 . S
Mg192 O203 2.114 1_554 S
Mg192 O207 2.013 1_554 S
Mg192 O213 2.114 . S
O193 Mg192 1.915 1_556 S
O193 Mg194 1.936 . S
O193 Mg195 1.963 . S
Mg194 O193 1.936 . S
Mg194 O203 2.291 . S
Mg194 O208 2.081 . S
Mg194 O210 2.023 . S
Mg194 O214 2.031 1_556 S
Mg195 O193 1.963 . S
Mg195 O199 1.986 1_656 S
Mg195 O211 1.942 . S
Mg195 O212 1.955 . S
C196 O207 1.190 1_554 S
C196 O209 1.309 . S
O197 Mg192 2.013 . S
O197 C216 1.191 1_655 S
O198 Mg189 2.081 . S
O198 C206 1.331 . S
O199 Mg195 1.986 1_454 S
O199 C216 1.307 . S
O200 Mg189 2.023 . S
O200 C215 1.264 . S
O201 Mg190 1.942 . S
O201 C206 1.244 . S
O202 Mg190 1.955 . S
O202 C215 1.273 . S
O203 Mg192 2.114 1_556 S
O203 Mg194 2.291 . S
O203 C205 1.312 . S
O204 Mg189 2.031 . S
O204 C205 1.208 1_554 S
C205 O203 1.312 . S
C205 O204 1.208 1_556 S
C206 O198 1.331 . S
C206 O201 1.244 . S
O207 Mg192 2.013 1_556 S
O207 C196 1.190 1_556 S
O208 C187 1.331 . S
O208 Mg194 2.081 . S
O209 Mg190 1.986 . S
O209 C196 1.309 . S
O210 C188 1.264 . S
O210 Mg194 2.023 . S
O211 C187 1.244 . S
O211 Mg195 1.942 . S
O212 C188 1.273 . S
O212 Mg195 1.955 . S
O213 C186 1.312 . S
O213 Mg189 2.291 . S
O213 Mg192 2.114 . S
O214 C186 1.208 . S
O214 Mg194 2.031 1_554 S
C215 O200 1.264 . S
C215 O202 1.273 . S
C216 O197 1.191 1_455 S
C216 O199 1.307 . S
C217 O244 1.312 . S
C217 O245 1.208 . S
C218 O239 1.331 . S
C218 O242 1.244 . S
C219 O241 1.264 . S
C219 O243 1.273 . S
Mg220 O222 1.936 . S
Mg220 O229 2.081 . S
Mg220 O231 2.023 . S
Mg220 O235 2.031 . S
Mg220 O244 2.291 . S
Mg221 O222 1.963 . S
Mg221 O232 1.942 . S
Mg221 O233 1.955 . S
Mg221 O240 1.986 . S
O222 Mg220 1.936 . S
O222 Mg221 1.963 . S
O222 Mg223 1.915 . S
Mg223 O222 1.915 . S
Mg223 O224 1.915 1_554 S
Mg223 O228 2.013 . S
Mg223 O234 2.114 1_554 S
Mg223 O238 2.013 1_554 S
Mg223 O244 2.114 . S
O224 Mg223 1.915 1_556 S
O224 Mg225 1.936 . S
O224 Mg226 1.963 . S
Mg225 O224 1.936 . S
Mg225 O234 2.291 . S
Mg225 O239 2.081 . S
Mg225 O241 2.023 . S
Mg225 O245 2.031 1_556 S
Mg226 O224 1.963 . S
Mg226 O230 1.986 1_556 S
Mg226 O242 1.942 . S
Mg226 O243 1.955 . S
C227 O238 1.190 1_554 S
C227 O240 1.310 . S
O228 Mg223 2.013 . S
O228 C247 1.191 . S
O229 Mg220 2.081 . S
O229 C237 1.331 . S
O230 Mg226 1.986 1_554 S
O230 C247 1.307 . S
O231 Mg220 2.023 . S
O231 C246 1.264 . S
O232 Mg221 1.942 . S
O232 C237 1.244 . S
O233 Mg221 1.955 . S
O233 C246 1.273 . S
O234 Mg223 2.114 1_556 S
O234 Mg225 2.291 . S
O234 C236 1.312 . S
O235 Mg220 2.031 . S
O235 C236 1.208 1_554 S
C236 O234 1.312 . S
C236 O235 1.208 1_556 S
C237 O229 1.331 . S
C237 O232 1.244 . S
O238 Mg223 2.013 1_556 S
O238 C227 1.190 1_556 S
O239 C218 1.331 . S
O239 Mg225 2.081 . S
O240 Mg221 1.986 . S
O240 C227 1.310 . S
O241 C219 1.264 . S
O241 Mg225 2.023 . S
O242 C218 1.244 . S
O242 Mg226 1.942 . S
O243 C219 1.273 . S
O243 Mg226 1.955 . S
O244 C217 1.312 . S
O244 Mg220 2.291 . S
O244 Mg223 2.114 . S
O245 C217 1.208 . S
O245 Mg225 2.031 1_554 S
C246 O231 1.264 . S
C246 O233 1.273 . S
C247 O228 1.191 . S
C247 O230 1.307 . S
C248 O275 1.312 . S
C248 O276 1.208 . S
C249 O270 1.331 . S
C249 O273 1.244 . S
C250 O272 1.264 . S
C250 O274 1.273 . S
Mg251 O253 1.936 . S
Mg251 O260 2.081 . S
Mg251 O262 2.023 . S
Mg251 O266 2.031 . S
Mg251 O275 2.291 . S
Mg252 O253 1.963 . S
Mg252 O263 1.942 . S
Mg252 O264 1.955 . S
Mg252 O271 1.986 . S
O253 Mg251 1.936 . S
O253 Mg252 1.963 . S
O253 Mg254 1.915 . S
Mg254 O253 1.915 . S
Mg254 O255 1.915 1_554 S
Mg254 O259 2.013 . S
Mg254 O265 2.114 1_554 S
Mg254 O269 2.013 1_554 S
Mg254 O275 2.114 . S
O255 Mg254 1.915 1_556 S
O255 Mg256 1.936 . S
O255 Mg257 1.963 . S
Mg256 O255 1.936 . S
Mg256 O265 2.291 . S
Mg256 O270 2.081 . S
Mg256 O272 2.023 . S
Mg256 O276 2.031 1_556 S
Mg257 O255 1.963 . S
Mg257 O261 1.986 1_556 S
Mg257 O273 1.942 . S
Mg257 O274 1.955 . S
C258 O269 1.190 1_554 S
C258 O271 1.310 . S
O259 Mg254 2.013 . S
O259 C278 1.191 . S
O260 Mg251 2.081 . S
O260 C268 1.331 . S
O261 Mg257 1.986 1_554 S
O261 C278 1.307 . S
O262 Mg251 2.023 . S
O262 C277 1.264 . S
O263 Mg252 1.942 . S
O263 C268 1.244 . S
O264 Mg252 1.955 . S
O264 C277 1.273 . S
O265 Mg254 2.114 1_556 S
O265 Mg256 2.291 . S
O265 C267 1.312 . S
O266 Mg251 2.031 . S
O266 C267 1.208 1_554 S
C267 O265 1.312 . S
C267 O266 1.208 1_556 S
C268 O260 1.331 . S
C268 O263 1.244 . S
O269 Mg254 2.013 1_556 S
O269 C258 1.190 1_556 S
O270 C249 1.331 . S
O270 Mg256 2.081 . S
O271 Mg252 1.986 . S
O271 C258 1.310 . S
O272 C250 1.264 . S
O272 Mg256 2.023 . S
O273 C249 1.244 . S
O273 Mg257 1.942 . S
O274 C250 1.273 . S
O274 Mg257 1.955 . S
O275 C248 1.312 . S
O275 Mg251 2.291 . S
O275 Mg254 2.114 . S
O276 C248 1.208 . S
O276 Mg256 2.031 1_554 S
C277 O262 1.264 . S
C277 O264 1.273 . S
C278 O259 1.191 . S
C278 O261 1.307 . S
C279 O306 1.312 . S
C279 O307 1.208 . S
C280 O301 1.331 . S
C280 O304 1.244 . S
C281 O303 1.264 . S
C281 O305 1.273 1_554 S
Mg282 O284 1.936 . S
Mg282 O291 2.081 . S
Mg282 O293 2.023 . S
Mg282 O297 2.031 . S
Mg282 O306 2.291 . S
Mg283 O284 1.963 . S
Mg283 O294 1.942 . S
Mg283 O295 1.955 . S
Mg283 O302 1.986 . S
O284 Mg282 1.936 . S
O284 Mg283 1.963 . S
O284 Mg285 1.915 . S
Mg285 O284 1.915 . S
Mg285 O286 1.915 . S
Mg285 O290 2.013 . S
Mg285 O296 2.114 . S
Mg285 O300 2.013 . S
Mg285 O306 2.114 . S
O286 Mg285 1.915 . S
O286 Mg287 1.936 . S
O286 Mg288 1.963 . S
Mg287 O286 1.936 . S
Mg287 O296 2.291 . S
Mg287 O301 2.081 . S
Mg287 O303 2.023 1_556 S
Mg287 O307 2.031 . S
Mg288 O286 1.963 . S
Mg288 O292 1.986 . S
Mg288 O304 1.942 . S
Mg288 O305 1.955 . S
C289 O300 1.191 . S
C289 O302 1.307 . S
O290 Mg285 2.013 . S
O290 C309 1.191 . S
O291 Mg282 2.081 . S
O291 C299 1.331 . S
O292 Mg288 1.986 . S
O292 C309 1.307 . S
O293 Mg282 2.023 . S
O293 C308 1.264 . S
O294 Mg283 1.942 . S
O294 C299 1.244 . S
O295 Mg283 1.955 . S
O295 C308 1.273 . S
O296 Mg285 2.114 . S
O296 Mg287 2.291 . S
O296 C298 1.312 . S
O297 Mg282 2.031 . S
O297 C298 1.208 . S
C298 O296 1.312 . S
C298 O297 1.208 . S
C299 O291 1.331 . S
C299 O294 1.244 . S
O300 Mg285 2.013 . S
O300 C289 1.191 . S
O301 C280 1.331 . S
O301 Mg287 2.081 . S
O302 Mg283 1.986 . S
O302 C289 1.307 . S
O303 C281 1.264 . S
O303 Mg287 2.023 1_554 S
O304 C280 1.244 . S
O304 Mg288 1.942 . S
O305 C281 1.273 1_556 S
O305 Mg288 1.955 . S
O306 C279 1.312 . S
O306 Mg282 2.291 . S
O306 Mg285 2.114 . S
O307 C279 1.208 . S
O307 Mg287 2.031 . S
C308 O293 1.264 . S
C308 O295 1.273 . S
C309 O290 1.191 . S
C309 O292 1.307 . S
C310 O337 1.312 . S
C310 O338 1.208 . S
C311 O332 1.331 . S
C311 O335 1.244 . S
C312 O334 1.264 . S
C312 O336 1.273 1_554 S
Mg313 O315 1.936 . S
Mg313 O322 2.081 . S
Mg313 O324 2.023 . S
Mg313 O328 2.031 . S
Mg313 O337 2.291 . S
Mg314 O315 1.963 . S
Mg314 O325 1.942 . S
Mg314 O326 1.955 . S
Mg314 O333 1.986 . S
O315 Mg313 1.936 . S
O315 Mg314 1.963 . S
O315 Mg316 1.915 . S
Mg316 O315 1.915 . S
Mg316 O317 1.915 . S
Mg316 O321 2.013 . S
Mg316 O327 2.114 . S
Mg316 O331 2.013 . S
Mg316 O337 2.114 . S
O317 Mg316 1.915 . S
O317 Mg318 1.936 . S
O317 Mg319 1.963 . S
Mg318 O317 1.936 . S
Mg318 O327 2.291 . S
Mg318 O332 2.081 . S
Mg318 O334 2.023 1_556 S
Mg318 O338 2.031 . S
Mg319 O317 1.963 . S
Mg319 O323 1.986 . S
Mg319 O335 1.942 . S
Mg319 O336 1.955 . S
C320 O331 1.191 . S
C320 O333 1.307 . S
O321 Mg316 2.013 . S
O321 C340 1.191 . S
O322 Mg313 2.081 . S
O322 C330 1.331 . S
O323 Mg319 1.986 . S
O323 C340 1.307 . S
O324 Mg313 2.023 . S
O324 C339 1.264 . S
O325 Mg314 1.942 . S
O325 C330 1.244 . S
O326 Mg314 1.955 . S
O326 C339 1.273 . S
O327 Mg316 2.114 . S
O327 Mg318 2.291 . S
O327 C329 1.312 . S
O328 Mg313 2.031 . S
O328 C329 1.208 . S
C329 O327 1.312 . S
C329 O328 1.208 . S
C330 O322 1.331 . S
C330 O325 1.244 . S
O331 Mg316 2.013 . S
O331 C320 1.191 . S
O332 C311 1.331 . S
O332 Mg318 2.081 . S
O333 Mg314 1.986 . S
O333 C320 1.307 . S
O334 C312 1.264 . S
O334 Mg318 2.023 1_554 S
O335 C311 1.244 . S
O335 Mg319 1.942 . S
O336 C312 1.273 1_556 S
O336 Mg319 1.955 . S
O337 C310 1.312 . S
O337 Mg313 2.291 . S
O337 Mg316 2.114 . S
O338 C310 1.208 . S
O338 Mg318 2.031 . S
C339 O324 1.264 . S
C339 O326 1.273 . S
C340 O321 1.191 . S
C340 O323 1.307 . S
C341 O368 1.312 . S
C341 O369 1.208 . S
C342 O363 1.331 . S
C342 O366 1.244 . S
C343 O365 1.264 . S
C343 O367 1.273 . S
Mg344 O346 1.936 . S
Mg344 O353 2.081 . S
Mg344 O355 2.023 1_556 S
Mg344 O359 2.031 . S
Mg344 O368 2.291 . S
Mg345 O346 1.963 . S
Mg345 O356 1.942 . S
Mg345 O357 1.955 . S
Mg345 O364 1.986 . S
O346 Mg344 1.936 . S
O346 Mg345 1.963 . S
O346 Mg347 1.915 . S
Mg347 O346 1.915 . S
Mg347 O348 1.915 . S
Mg347 O352 2.013 . S
Mg347 O358 2.114 . S
Mg347 O362 2.013 . S
Mg347 O368 2.114 . S
O348 Mg347 1.915 . S
O348 Mg349 1.936 . S
O348 Mg350 1.963 . S
Mg349 O348 1.936 . S
Mg349 O358 2.291 . S
Mg349 O363 2.081 . S
Mg349 O365 2.023 . S
Mg349 O369 2.031 . S
Mg350 O348 1.963 . S
Mg350 O354 1.986 1_655 S
Mg350 O366 1.942 . S
Mg350 O367 1.955 . S
C351 O362 1.191 . S
C351 O364 1.307 . S
O352 Mg347 2.013 . S
O352 C371 1.191 1_655 S
O353 Mg344 2.081 . S
O353 C361 1.331 . S
O354 Mg350 1.986 1_455 S
O354 C371 1.307 . S
O355 Mg344 2.023 1_554 S
O355 C370 1.264 . S
O356 Mg345 1.942 . S
O356 C361 1.244 . S
O357 Mg345 1.955 . S
O357 C370 1.273 1_556 S
O358 Mg347 2.114 . S
O358 Mg349 2.291 . S
O358 C360 1.312 . S
O359 Mg344 2.031 . S
O359 C360 1.208 . S
C360 O358 1.312 . S
C360 O359 1.208 . S
C361 O353 1.331 . S
C361 O356 1.244 . S
O362 Mg347 2.013 . S
O362 C351 1.191 . S
O363 C342 1.331 . S
O363 Mg349 2.081 . S
O364 Mg345 1.986 . S
O364 C351 1.307 . S
O365 C343 1.264 . S
O365 Mg349 2.023 . S
O366 C342 1.244 . S
O366 Mg350 1.942 . S
O367 C343 1.273 . S
O367 Mg350 1.955 . S
O368 C341 1.312 . S
O368 Mg344 2.291 . S
O368 Mg347 2.114 . S
O369 C341 1.208 . S
O369 Mg349 2.031 . S
C370 O355 1.264 . S
C370 O357 1.273 1_554 S
C371 O352 1.191 1_455 S
C371 O354 1.307 . S
C372 O399 1.312 . S
C372 O400 1.208 . S
C373 O394 1.331 . S
C373 O397 1.244 . S
C374 O396 1.264 . S
C374 O398 1.273 1_556 S
Mg375 O377 1.936 . S
Mg375 O384 2.081 . S
Mg375 O386 2.023 . S
Mg375 O390 2.031 . S
Mg375 O399 2.291 . S
Mg376 O377 1.963 . S
Mg376 O387 1.942 . S
Mg376 O388 1.955 . S
Mg376 O395 1.986 . S
O377 Mg375 1.936 . S
O377 Mg376 1.963 . S
O377 Mg378 1.915 . S
Mg378 O377 1.915 . S
Mg378 O379 1.915 . S
Mg378 O383 2.013 . S
Mg378 O389 2.114 . S
Mg378 O393 2.013 . S
Mg378 O399 2.114 . S
O379 Mg378 1.915 . S
O379 Mg380 1.936 . S
O379 Mg381 1.963 . S
Mg380 O379 1.936 . S
Mg380 O389 2.291 . S
Mg380 O394 2.081 . S
Mg380 O396 2.023 1_554 S
Mg380 O400 2.031 . S
Mg381 O379 1.963 . S
Mg381 O385 1.986 . S
Mg381 O397 1.942 . S
Mg381 O398 1.955 . S
C382 O393 1.191 . S
C382 O395 1.307 . S
O383 Mg378 2.013 . S
O383 C402 1.191 . S
O384 Mg375 2.081 . S
O384 C392 1.331 . S
O385 Mg381 1.986 . S
O385 C402 1.307 . S
O386 Mg375 2.023 . S
O386 C401 1.264 . S
O387 Mg376 1.942 . S
O387 C392 1.244 . S
O388 Mg376 1.955 . S
O388 C401 1.273 . S
O389 Mg378 2.114 . S
O389 Mg380 2.291 . S
O389 C391 1.312 . S
O390 Mg375 2.031 . S
O390 C391 1.208 . S
C391 O389 1.312 . S
C391 O390 1.208 . S
C392 O384 1.331 . S
C392 O387 1.244 . S
O393 Mg378 2.013 . S
O393 C382 1.191 . S
O394 C373 1.331 . S
O394 Mg380 2.081 . S
O395 Mg376 1.986 . S
O395 C382 1.307 . S
O396 C374 1.264 . S
O396 Mg380 2.023 1_556 S
O397 C373 1.244 . S
O397 Mg381 1.942 . S
O398 C374 1.273 1_554 S
O398 Mg381 1.955 . S
O399 C372 1.312 . S
O399 Mg375 2.291 . S
O399 Mg378 2.114 . S
O400 C372 1.208 . S
O400 Mg380 2.031 . S
C401 O386 1.264 . S
C401 O388 1.273 . S
C402 O383 1.191 . S
C402 O385 1.307 . S
C403 O430 1.312 . S
C403 O431 1.208 . S
C404 O425 1.331 . S
C404 O428 1.244 . S
C405 O427 1.264 . S
C405 O429 1.273 1_556 S
Mg406 O408 1.936 . S
Mg406 O415 2.081 . S
Mg406 O417 2.023 . S
Mg406 O421 2.031 . S
Mg406 O430 2.291 . S
Mg407 O408 1.963 . S
Mg407 O418 1.942 . S
Mg407 O419 1.955 . S
Mg407 O426 1.986 1_565 S
O408 Mg406 1.936 . S
O408 Mg407 1.963 . S
O408 Mg409 1.915 . S
Mg409 O408 1.915 . S
Mg409 O410 1.915 . S
Mg409 O414 2.013 . S
Mg409 O420 2.114 . S
Mg409 O424 2.013 . S
Mg409 O430 2.114 . S
O410 Mg409 1.915 . S
O410 Mg411 1.936 . S
O410 Mg412 1.963 . S
Mg411 O410 1.936 . S
Mg411 O420 2.291 . S
Mg411 O425 2.081 . S
Mg411 O427 2.023 1_554 S
Mg411 O431 2.031 . S
Mg412 O410 1.963 . S
Mg412 O416 1.986 . S
Mg412 O428 1.942 . S
Mg412 O429 1.955 . S
C413 O424 1.191 1_545 S
C413 O426 1.307 . S
O414 Mg409 2.013 . S
O414 C433 1.191 . S
O415 Mg406 2.081 . S
O415 C423 1.331 . S
O416 Mg412 1.986 . S
O416 C433 1.307 . S
O417 Mg406 2.023 . S
O417 C432 1.264 . S
O418 Mg407 1.942 . S
O418 C423 1.244 . S
O419 Mg407 1.955 . S
O419 C432 1.273 . S
O420 Mg409 2.114 . S
O420 Mg411 2.291 . S
O420 C422 1.312 . S
O421 Mg406 2.031 . S
O421 C422 1.208 . S
C422 O420 1.312 . S
C422 O421 1.208 . S
C423 O415 1.331 . S
C423 O418 1.244 . S
O424 Mg409 2.013 . S
O424 C413 1.191 1_565 S
O425 C404 1.331 . S
O425 Mg411 2.081 . S
O426 Mg407 1.986 1_545 S
O426 C413 1.307 . S
O427 C405 1.264 . S
O427 Mg411 2.023 1_556 S
O428 C404 1.244 . S
O428 Mg412 1.942 . S
O429 C405 1.273 1_554 S
O429 Mg412 1.955 . S
O430 C403 1.312 . S
O430 Mg406 2.291 . S
O430 Mg409 2.114 . S
O431 C403 1.208 . S
O431 Mg411 2.031 . S
C432 O417 1.264 . S
C432 O419 1.273 . S
C433 O414 1.191 . S
C433 O416 1.307 . S
C434 O461 1.312 . S
C434 O462 1.208 . S
C435 O456 1.331 . S
C435 O459 1.244 . S
C436 O458 1.264 . S
C436 O460 1.273 1_556 S
Mg437 O439 1.936 . S
Mg437 O446 2.081 . S
Mg437 O448 2.023 . S
Mg437 O452 2.031 . S
Mg437 O461 2.291 . S
Mg438 O439 1.963 . S
Mg438 O449 1.942 . S
Mg438 O450 1.955 . S
Mg438 O457 1.986 . S
O439 Mg437 1.936 . S
O439 Mg438 1.963 . S
O439 Mg440 1.915 . S
Mg440 O439 1.915 . S
Mg440 O441 1.915 . S
Mg440 O445 2.013 . S
Mg440 O451 2.114 . S
Mg440 O455 2.013 . S
Mg440 O461 2.114 . S
O441 Mg440 1.915 . S
O441 Mg442 1.936 . S
O441 Mg443 1.963 . S
Mg442 O441 1.936 . S
Mg442 O451 2.291 . S
Mg442 O456 2.081 . S
Mg442 O458 2.023 1_554 S
Mg442 O462 2.031 . S
Mg443 O441 1.963 . S
Mg443 O447 1.986 . S
Mg443 O459 1.942 . S
Mg443 O460 1.955 . S
C444 O455 1.191 . S
C444 O457 1.307 . S
O445 Mg440 2.013 . S
O445 C464 1.191 . S
O446 Mg437 2.081 . S
O446 C454 1.331 . S
O447 Mg443 1.986 . S
O447 C464 1.307 . S
O448 Mg437 2.023 . S
O448 C463 1.264 . S
O449 Mg438 1.942 . S
O449 C454 1.244 . S
O450 Mg438 1.955 . S
O450 C463 1.273 . S
O451 Mg440 2.114 . S
O451 Mg442 2.291 . S
O451 C453 1.312 . S
O452 Mg437 2.031 . S
O452 C453 1.208 . S
C453 O451 1.312 . S
C453 O452 1.208 . S
C454 O446 1.331 . S
C454 O449 1.244 . S
O455 Mg440 2.013 . S
O455 C444 1.191 . S
O456 C435 1.331 . S
O456 Mg442 2.081 . S
O457 Mg438 1.986 . S
O457 C444 1.307 . S
O458 C436 1.264 . S
O458 Mg442 2.023 1_556 S
O459 C435 1.244 . S
O459 Mg443 1.942 . S
O460 C436 1.273 1_554 S
O460 Mg443 1.955 . S
O461 C434 1.312 . S
O461 Mg437 2.291 . S
O461 Mg440 2.114 . S
O462 C434 1.208 . S
O462 Mg442 2.031 . S
C463 O448 1.264 . S
C463 O450 1.273 . S
C464 O445 1.191 . S
C464 O447 1.307 . S
C465 O492 1.312 . S
C465 O493 1.208 1_554 S
C466 O487 1.331 . S
C466 O490 1.244 . S
C467 O489 1.264 . S
C467 O491 1.273 . S
Mg468 O470 1.936 . S
Mg468 O477 2.081 . S
Mg468 O479 2.023 . S
Mg468 O483 2.031 1_554 S
Mg468 O492 2.291 . S
Mg469 O470 1.963 . S
Mg469 O480 1.942 . S
Mg469 O481 1.955 . S
Mg469 O488 1.986 1_554 S
O470 Mg468 1.936 . S
O470 Mg469 1.963 . S
O470 Mg471 1.915 1_554 S
Mg471 O470 1.915 1_556 S
Mg471 O472 1.915 . S
Mg471 O476 2.013 1_556 S
Mg471 O482 2.114 . S
Mg471 O486 2.013 . S
Mg471 O492 2.114 1_556 S
O472 Mg471 1.915 . S
O472 Mg473 1.936 . S
O472 Mg474 1.963 . S
Mg473 O472 1.936 . S
Mg473 O482 2.291 . S
Mg473 O487 2.081 . S
Mg473 O489 2.023 . S
Mg473 O493 2.031 . S
Mg474 O472 1.963 . S
Mg474 O478 1.986 . S
Mg474 O490 1.942 . S
Mg474 O491 1.955 . S
C475 O486 1.191 . S
C475 O488 1.307 . S
O476 Mg471 2.013 1_554 S
O476 C495 1.190 1_554 S
O477 Mg468 2.081 . S
O477 C485 1.331 . S
O478 Mg474 1.986 . S
O478 C495 1.309 . S
O479 Mg468 2.023 . S
O479 C494 1.264 . S
O480 Mg469 1.942 . S
O480 C485 1.244 . S
O481 Mg469 1.955 . S
O481 C494 1.273 . S
O482 Mg471 2.114 . S
O482 Mg473 2.291 . S
O482 C484 1.312 . S
O483 Mg468 2.031 1_556 S
O483 C484 1.208 . S
C484 O482 1.312 . S
C484 O483 1.208 . S
C485 O477 1.331 . S
C485 O480 1.244 . S
O486 Mg471 2.013 . S
O486 C475 1.191 . S
O487 C466 1.331 . S
O487 Mg473 2.081 . S
O488 Mg469 1.986 1_556 S
O488 C475 1.307 . S
O489 C467 1.264 . S
O489 Mg473 2.023 . S
O490 C466 1.244 . S
O490 Mg474 1.942 . S
O491 C467 1.273 . S
O491 Mg474 1.955 . S
O492 C465 1.312 . S
O492 Mg468 2.291 . S
O492 Mg471 2.114 1_554 S
O493 C465 1.208 1_556 S
O493 Mg473 2.031 . S
C494 O479 1.264 . S
C494 O481 1.273 . S
C495 O476 1.190 1_556 S
C495 O478 1.309 . S
C496 O523 1.312 . S
C496 O524 1.208 1_554 S
C497 O518 1.331 . S
C497 O521 1.244 . S
C498 O520 1.264 . S
C498 O522 1.273 . S
Mg499 O501 1.936 . S
Mg499 O508 2.081 . S
Mg499 O510 2.023 . S
Mg499 O514 2.031 1_554 S
Mg499 O523 2.291 . S
Mg500 O501 1.963 . S
Mg500 O511 1.942 . S
Mg500 O512 1.955 . S
Mg500 O519 1.986 1_554 S
O501 Mg499 1.936 . S
O501 Mg500 1.963 . S
O501 Mg502 1.915 1_554 S
Mg502 O501 1.915 1_556 S
Mg502 O503 1.915 . S
Mg502 O507 2.013 1_556 S
Mg502 O513 2.114 . S
Mg502 O517 2.013 . S
Mg502 O523 2.114 1_556 S
O503 Mg502 1.915 . S
O503 Mg504 1.936 . S
O503 Mg505 1.963 . S
Mg504 O503 1.936 . S
Mg504 O513 2.291 . S
Mg504 O518 2.081 . S
Mg504 O520 2.023 . S
Mg504 O524 2.031 . S
Mg505 O503 1.963 . S
Mg505 O509 1.986 . S
Mg505 O521 1.942 . S
Mg505 O522 1.955 . S
C506 O517 1.191 . S
C506 O519 1.307 . S
O507 Mg502 2.013 1_554 S
O507 C526 1.190 1_554 S
O508 Mg499 2.081 . S
O508 C516 1.331 . S
O509 Mg505 1.986 . S
O509 C526 1.310 . S
O510 Mg499 2.023 . S
O510 C525 1.264 . S
O511 Mg500 1.942 . S
O511 C516 1.244 . S
O512 Mg500 1.955 . S
O512 C525 1.273 . S
O513 Mg502 2.114 . S
O513 Mg504 2.291 . S
O513 C515 1.312 . S
O514 Mg499 2.031 1_556 S
O514 C515 1.208 . S
C515 O513 1.312 . S
C515 O514 1.208 . S
C516 O508 1.331 . S
C516 O511 1.244 . S
O517 Mg502 2.013 . S
O517 C506 1.191 . S
O518 C497 1.331 . S
O518 Mg504 2.081 . S
O519 Mg500 1.986 1_556 S
O519 C506 1.307 . S
O520 C498 1.264 . S
O520 Mg504 2.023 . S
O521 C497 1.244 . S
O521 Mg505 1.942 . S
O522 C498 1.273 . S
O522 Mg505 1.955 . S
O523 C496 1.312 . S
O523 Mg499 2.291 . S
O523 Mg502 2.114 1_554 S
O524 C496 1.208 1_556 S
O524 Mg504 2.031 . S
C525 O510 1.264 . S
C525 O512 1.273 . S
C526 O507 1.190 1_556 S
C526 O509 1.310 . S
C527 O554 1.312 . S
C527 O555 1.208 . S
C528 O549 1.331 . S
C528 O552 1.244 . S
C529 O551 1.264 . S
C529 O553 1.273 . S
Mg530 O532 1.936 . S
Mg530 O539 2.081 . S
Mg530 O541 2.023 . S
Mg530 O545 2.031 . S
Mg530 O554 2.291 . S
Mg531 O532 1.963 . S
Mg531 O542 1.942 . S
Mg531 O543 1.955 . S
Mg531 O550 1.986 . S
O532 Mg530 1.936 . S
O532 Mg531 1.963 . S
O532 Mg533 1.915 . S
Mg533 O532 1.915 . S
Mg533 O534 1.915 1_556 S
Mg533 O538 2.013 . S
Mg533 O544 2.114 1_556 S
Mg533 O548 2.013 1_556 S
Mg533 O554 2.114 . S
O534 Mg533 1.915 1_554 S
O534 Mg535 1.936 . S
O534 Mg536 1.963 . S
Mg535 O534 1.936 . S
Mg535 O544 2.291 . S
Mg535 O549 2.081 . S
Mg535 O551 2.023 . S
Mg535 O555 2.031 1_554 S
Mg536 O534 1.963 . S
Mg536 O540 1.986 1_564 S
Mg536 O552 1.942 . S
Mg536 O553 1.955 . S
C537 O548 1.190 1_556 S
C537 O550 1.310 . S
O538 Mg533 2.013 . S
O538 C557 1.191 1_565 S
O539 Mg530 2.081 . S
O539 C547 1.331 . S
O540 Mg536 1.986 1_546 S
O540 C557 1.307 . S
O541 Mg530 2.023 . S
O541 C556 1.264 . S
O542 Mg531 1.942 . S
O542 C547 1.244 . S
O543 Mg531 1.955 . S
O543 C556 1.273 . S
O544 Mg533 2.114 1_554 S
O544 Mg535 2.291 . S
O544 C546 1.312 . S
O545 Mg530 2.031 . S
O545 C546 1.208 1_556 S
C546 O544 1.312 . S
C546 O545 1.208 1_554 S
C547 O539 1.331 . S
C547 O542 1.244 . S
O548 Mg533 2.013 1_554 S
O548 C537 1.190 1_554 S
O549 C528 1.331 . S
O549 Mg535 2.081 . S
O550 Mg531 1.986 . S
O550 C537 1.310 . S
O551 C529 1.264 . S
O551 Mg535 2.023 . S
O552 C528 1.244 . S
O552 Mg536 1.942 . S
O553 C529 1.273 . S
O553 Mg536 1.955 . S
O554 C527 1.312 . S
O554 Mg530 2.291 . S
O554 Mg533 2.114 . S
O555 C527 1.208 . S
O555 Mg535 2.031 1_556 S
C556 O541 1.264 . S
C556 O543 1.273 . S
C557 O538 1.191 1_545 S
C557 O540 1.307 . S
C144 C19 3.473 . S
C50 C175 3.473 . S
C81 C94 3.473 . S
C113 C31 3.473 . S
C125 C62 3.473 . S
C0 C156 3.473 . S
C112 C32 3.473 . S
C63 C124 3.473 . S
C155 C1 3.473 . S
C143 C20 3.473 . S
C174 C51 3.473 . S
C93 C82 3.473 . S
C205 C311 3.473 . S
C236 C361 3.473 . S
C267 C280 3.473 . S
C217 C299 3.473 . S
C248 C330 3.473 . S
C342 C186 3.473 . S
C298 C218 3.473 . S
C249 C329 3.473 . S
C341 C187 3.472 . S
C206 C310 3.473 . S
C237 C360 3.472 . S
C268 C279 3.473 . S
C516 C391 3.473 . S
C528 C422 3.473 . S
C453 C485 3.472 . S
C466 C403 3.473 . S
C434 C497 3.473 . S
C547 C372 3.473 . S
C404 C465 3.473 . S
C435 C496 3.473 . S
C546 C373 3.473 . S
C515 C392 3.472 . S
C423 C527 3.472 . S
C484 C454 3.473 . S
C433 C10 1.801 . S
C41 C464 1.801 . S
C72 C402 1.801 . S
C196 C61 1.799 1_554 S
C92 C227 1.798 1_556 S
C258 C30 1.798 1_554 S
C103 C340 1.801 . S
C154 C351 1.801 . S
C309 C185 1.801 . S
C495 C134 1.799 1_556 S
C165 C526 1.798 1_554 S
C123 C537 1.798 1_554 S
C247 C382 1.800 . S
C413 C278 1.800 . S
C444 C216 1.800 . S
C506 C289 1.800 . S
C320 C557 1.801 . S
C371 C475 1.801 . S
C2 C29 1.126 . S
C33 C60 1.126 . S
C64 C91 1.126 . S
C122 C95 1.125 . S
C153 C126 1.125 . S
C184 C157 1.126 . S
C188 C215 1.126 . S
C219 C246 1.125 . S
C250 C277 1.125 . S
C308 C281 1.125 . S
C312 C339 1.126 . S
C343 C370 1.125 . S
C401 C374 1.125 . S
C405 C432 1.126 . S
C463 C436 1.125 . S
C467 C494 1.126 . S
C498 C525 1.125 . S
C529 C556 1.125 . S
