# Generated by pormake.
# Topology hjm, (4)-cn, num edge types: 1
# Building blocks:
#     Node 0, Type 0, BuildingBlock: GALJAG_clean_sbu_0, # of connection points: 4
#     Node 1, Type 0, BuildingBlock: GALJAG_clean_sbu_0, # of connection points: 4
#     Node 2, Type 0, BuildingBlock: GALJAG_clean_sbu_0, # of connection points: 4
#     Node 3, Type 0, BuildingBlock: GALJAG_clean_sbu_0, # of connection points: 4
#     Node 4, Type 0, BuildingBlock: GALJAG_clean_sbu_0, # of connection points: 4
#     Node 5, Type 0, BuildingBlock: GALJAG_clean_sbu_0, # of connection points: 4
#     Node 6, Type 0, BuildingBlock: GALJAG_clean_sbu_0, # of connection points: 4
#     Node 7, Type 0, BuildingBlock: GALJAG_clean_sbu_0, # of connection points: 4
#     Edge 8, Type (0, 0), BuildingBlock: XUDNAN_clean_linker_2, # of connection points: 2
#     Edge 9, Type (0, 0), BuildingBlock: XUDNAN_clean_linker_2, # of connection points: 2
#     Edge 10, Type (0, 0), BuildingBlock: XUDNAN_clean_linker_2, # of connection points: 2
#     Edge 11, Type (0, 0), BuildingBlock: XUDNAN_clean_linker_2, # of connection points: 2
#     Edge 12, Type (0, 0), BuildingBlock: XUDNAN_clean_linker_2, # of connection points: 2
#     Edge 13, Type (0, 0), BuildingBlock: XUDNAN_clean_linker_2, # of connection points: 2
#     Edge 14, Type (0, 0), BuildingBlock: XUDNAN_clean_linker_2, # of connection points: 2
#     Edge 15, Type (0, 0), BuildingBlock: XUDNAN_clean_linker_2, # of connection points: 2
#     Edge 16, Type (0, 0), BuildingBlock: XUDNAN_clean_linker_2, # of connection points: 2
#     Edge 17, Type (0, 0), BuildingBlock: XUDNAN_clean_linker_2, # of connection points: 2
#     Edge 18, Type (0, 0), BuildingBlock: XUDNAN_clean_linker_2, # of connection points: 2
#     Edge 19, Type (0, 0), BuildingBlock: XUDNAN_clean_linker_2, # of connection points: 2
#     Edge 20, Type (0, 0), BuildingBlock: XUDNAN_clean_linker_2, # of connection points: 2
#     Edge 21, Type (0, 0), BuildingBlock: XUDNAN_clean_linker_2, # of connection points: 2
#     Edge 22, Type (0, 0), BuildingBlock: XUDNAN_clean_linker_2, # of connection points: 2
#     Edge 23, Type (0, 0), BuildingBlock: XUDNAN_clean_linker_2, # of connection points: 2
# Relax obj value: 0.069
# Max RMSD: 0.136
# Mean RMSD: 0.136
data_MOF--net-hjm--node1-GALJAG_clean_sbu_0--edge1-XUDNAN_clean_linker_2
_symmetry_space_group_name_H-M    P1
_symmetry_Int_Tables_number       1
_symmetry_cell_setting            triclinic
loop_
_symmetry_equiv_pos_as_xyz
'x, y, z'
_cell_length_a     25.395227
_cell_length_b     21.135572
_cell_length_c     25.412721
_cell_angle_alpha  90.074095
_cell_angle_beta   68.956334
_cell_angle_gamma 90.05349
loop_
_atom_site_label
_atom_site_type_symbol
_atom_site_fract_x
_atom_site_fract_y
_atom_site_fract_z
_atom_type_partial_charge
In0 In 0.1683 0.26745 0.30245 0.0
O1 O 0.10159 0.34201 0.31356 0.0
O2 O 0.14451 0.34412 0.37159 0.0
C3 C 0.19632 0.28659 0.19086 0.0
C4 C 0.09345 0.17865 0.35951 0.0
C5 C 0.27245 0.23504 0.29828 0.0
O6 O 0.20164 0.32867 0.22386 0.0
O7 O 0.1764 0.23469 0.21417 0.0
O8 O 0.2382 0.19611 0.29076 0.0
O9 O 0.25365 0.29071 0.30981 0.0
C10 C 0.10676 0.36794 0.35612 0.0
O11 O 0.12894 0.20258 0.37801 0.0
O12 O 0.09644 0.19861 0.31172 0.0
In13 In 0.78964 0.22046 0.19859 0.0
O14 O 0.80599 0.27863 0.11878 0.0
O15 O 0.86299 0.28985 0.16211 0.0
C16 C 0.76912 0.24974 0.30755 0.0
C17 C 0.85723 0.11991 0.15751 0.0
C18 C 0.68052 0.20477 0.21024 0.0
O19 O 0.77804 0.29126 0.26967 0.0
O20 O 0.77256 0.19342 0.29013 0.0
O21 O 0.71365 0.15882 0.2052 0.0
O22 O 0.70285 0.25855 0.20765 0.0
C23 C 0.85012 0.30479 0.1202 0.0
O24 O 0.82188 0.13901 0.13667 0.0
O25 O 0.85763 0.15067 0.19999 0.0
In26 In 0.80435 0.76903 0.69058 0.0
O27 O 0.87347 0.69293 0.65828 0.0
O28 O 0.81178 0.6999 0.62016 0.0
C29 C 0.81343 0.77781 0.79284 0.0
C30 C 0.85194 0.86377 0.61809 0.0
C31 C 0.69068 0.77419 0.72862 0.0
O32 O 0.80171 0.72618 0.77442 0.0
O33 O 0.82323 0.8233 0.75863 0.0
O34 O 0.72154 0.82252 0.72168 0.0
O35 O 0.71712 0.7225 0.7156 0.0
C36 C 0.85607 0.67336 0.62044 0.0
O37 O 0.80472 0.84009 0.62339 0.0
O38 O 0.87513 0.84018 0.64994 0.0
In39 In 0.1737 0.71909 0.83836 0.0
O40 O 0.14583 0.76134 0.92649 0.0
O41 O 0.1054 0.79436 0.87154 0.0
C42 C 0.28093 0.73876 0.83153 0.0
C43 C 0.11249 0.61223 0.87375 0.0
C44 C 0.19015 0.74274 0.72941 0.0
O45 O 0.24465 0.78203 0.84097 0.0
O46 O 0.26321 0.68417 0.82594 0.0
O47 O 0.2066 0.6922 0.74504 0.0
O48 O 0.16483 0.78063 0.76877 0.0
C49 C 0.1097 0.79792 0.91944 0.0
O50 O 0.10488 0.64993 0.83882 0.0
O51 O 0.15254 0.62709 0.88971 0.0
In52 In 0.71282 0.7465 0.3103 0.0
O53 O 0.64724 0.82483 0.34184 0.0
O54 O 0.70231 0.80951 0.38666 0.0
C55 C 0.73166 0.7697 0.20065 0.0
C56 C 0.63716 0.65409 0.3567 0.0
C57 C 0.82064 0.7221 0.29921 0.0
O58 O 0.72699 0.81307 0.23619 0.0
O59 O 0.72611 0.7144 0.2205 0.0
O60 O 0.78476 0.6788 0.30507 0.0
O61 O 0.80185 0.77742 0.29999 0.0
C62 C 0.66165 0.84073 0.38258 0.0
O63 O 0.67501 0.66934 0.37567 0.0
O64 O 0.63795 0.6849 0.31395 0.0
In65 In 0.33441 0.75729 0.20552 0.0
O66 O 0.3949 0.83828 0.19834 0.0
O67 O 0.35777 0.83284 0.13572 0.0
C68 C 0.3044 0.77136 0.31786 0.0
C69 C 0.41108 0.67091 0.14649 0.0
C70 C 0.22957 0.72742 0.21034 0.0
O71 O 0.29639 0.81338 0.28636 0.0
O72 O 0.32884 0.72206 0.29254 0.0
O73 O 0.26279 0.68731 0.21812 0.0
O74 O 0.25009 0.78223 0.19766 0.0
C75 C 0.39129 0.86154 0.15415 0.0
O76 O 0.37091 0.68887 0.132 0.0
O77 O 0.41185 0.69533 0.19156 0.0
In78 In 0.32473 0.24676 0.66973 0.0
O79 O 0.39931 0.18489 0.66732 0.0
O80 O 0.36314 0.16903 0.60501 0.0
C81 C 0.30442 0.27237 0.77936 0.0
C82 C 0.3781 0.33814 0.59578 0.0
C83 C 0.21703 0.22574 0.67837 0.0
O84 O 0.30533 0.21664 0.76112 0.0
O85 O 0.31454 0.31486 0.74221 0.0
O86 O 0.23684 0.28048 0.67836 0.0
O87 O 0.25178 0.18136 0.6732 0.0
C88 C 0.40108 0.15446 0.624 0.0
O89 O 0.33676 0.30775 0.59219 0.0
O90 O 0.39158 0.32345 0.63734 0.0
In91 In 0.69467 0.25902 0.81609 0.0
O92 O 0.6232 0.18625 0.85157 0.0
O93 O 0.67897 0.20206 0.89567 0.0
C94 C 0.68546 0.27384 0.71415 0.0
C95 C 0.65228 0.3607 0.88161 0.0
C96 C 0.80636 0.2338 0.78032 0.0
O97 O 0.68206 0.22036 0.73718 0.0
O98 O 0.69169 0.31959 0.74325 0.0
O99 O 0.78669 0.28884 0.79297 0.0
O100 O 0.7697 0.1914 0.78628 0.0
C101 C 0.63608 0.17342 0.89398 0.0
O102 O 0.7014 0.34002 0.87252 0.0
O103 O 0.62509 0.33111 0.85635 0.0
H104 H 0.08893 0.11502 0.45484 0.0
H105 H 0.0011 0.13854 0.33779 0.0
H106 H 0.92761 0.06364 0.39372 0.0
H107 H 0.06332 0.9486 0.47607 0.0
H108 H 0.05452 0.95085 0.54966 0.0
H109 H 0.09893 0.00822 0.50173 0.0
H110 H 0.04076 0.09903 0.5648 0.0
H111 H 0.99618 0.04178 0.61276 0.0
H112 H 0.96544 0.10146 0.58212 0.0
H113 H 0.86365 0.98716 0.46234 0.0
H114 H 0.81661 0.90801 0.53555 0.0
H115 H 0.94785 0.93123 0.60609 0.0
C116 C 0.05415 0.10447 0.44109 0.0
C117 C 0.0505 0.13259 0.39213 0.0
C118 C 0.00468 0.11734 0.37514 0.0
C119 C 0.96266 0.07512 0.40674 0.0
C120 C 0.96739 0.04834 0.45491 0.0
C121 C 0.01216 0.06197 0.47183 0.0
C122 C 0.00829 0.0249 0.52409 0.0
C123 C 0.05928 0.98051 0.51214 0.0
C124 C 0.0023 0.06947 0.57386 0.0
C125 C 0.95447 0.98807 0.5337 0.0
C126 C 0.93125 0.00284 0.49368 0.0
C127 C 0.88147 0.97503 0.49382 0.0
C128 C 0.85503 0.93026 0.53561 0.0
C129 C 0.87873 0.91343 0.57629 0.0
C130 C 0.92889 0.94309 0.57541 0.0
H131 H 0.02266 0.87322 0.91777 0.0
H132 H 0.12185 0.82402 0.01974 0.0
H133 H 0.06749 0.90081 0.09217 0.0
H134 H 0.01131 0.03918 0.95127 0.0
H135 H 0.94022 0.0457 0.95222 0.0
H136 H 0.98724 0.98727 0.90822 0.0
H137 H 0.91498 0.89893 0.95587 0.0
H138 H 0.86796 0.95745 0.9997 0.0
H139 H 0.88956 0.89082 0.03149 0.0
H140 H 0.00107 0.98093 0.15468 0.0
H141 H 0.93091 0.0642 0.19968 0.0
H142 H 0.87418 0.05923 0.05767 0.0
C143 C 0.0326 0.87818 0.9556 0.0
C144 C 0.07616 0.84245 0.96339 0.0
C145 C 0.08823 0.85054 0.01322 0.0
C146 C 0.05746 0.89374 0.05473 0.0
C147 C 0.01429 0.92768 0.04613 0.0
C148 C 0.002 0.92061 0.99771 0.0
C149 C 0.95435 0.96379 0.99822 0.0
C150 C 0.97451 0.01183 0.9496 0.0
C151 C 0.9037 0.9254 0.99623 0.0
C152 C 0.94134 0.99579 0.05482 0.0
C153 C 0.97652 0.97446 0.08173 0.0
C154 C 0.97322 0.99799 0.13408 0.0
C155 C 0.93324 0.04514 0.15932 0.0
C156 C 0.89705 0.06789 0.13225 0.0
C157 C 0.901 0.04239 0.07957 0.0
H158 H 0.47228 0.40337 0.59218 0.0
H159 H 0.35595 0.37845 0.50359 0.0
H160 H 0.41088 0.45523 0.43136 0.0
H161 H 0.4946 0.56989 0.56778 0.0
H162 H 0.56834 0.5665 0.55839 0.0
H163 H 0.51994 0.50946 0.60274 0.0
H164 H 0.58168 0.41818 0.54381 0.0
H165 H 0.63017 0.47499 0.49922 0.0
H166 H 0.59836 0.4162 0.46864 0.0
H167 H 0.47788 0.53544 0.36961 0.0
H168 H 0.55204 0.61396 0.32275 0.0
H169 H 0.62488 0.58518 0.45148 0.0
C170 C 0.45822 0.41425 0.55771 0.0
C171 C 0.40977 0.38528 0.5535 0.0
C172 C 0.39288 0.40038 0.50763 0.0
C173 C 0.42383 0.44378 0.46641 0.0
C174 C 0.47153 0.47138 0.47173 0.0
C175 C 0.48868 0.45721 0.51619 0.0
C176 C 0.54147 0.49338 0.51215 0.0
C177 C 0.53039 0.53741 0.56329 0.0
C178 C 0.59081 0.44798 0.50555 0.0
C179 C 0.55107 0.53057 0.45866 0.0
C180 C 0.51038 0.5171 0.43592 0.0
C181 C 0.51007 0.54628 0.38691 0.0
C182 C 0.55233 0.59073 0.36061 0.0
C183 C 0.59418 0.60549 0.38346 0.0
C184 C 0.59355 0.57467 0.43294 0.0
H185 H 0.40778 0.59542 0.06029 0.0
H186 H 0.5138 0.6478 0.15453 0.0
H187 H 0.58923 0.57768 0.09389 0.0
H188 H 0.44758 0.43166 0.0431 0.0
H189 H 0.44534 0.42611 0.97315 0.0
H190 H 0.40079 0.48196 0.02284 0.0
H191 H 0.44266 0.57296 0.95159 0.0
H192 H 0.48755 0.51734 0.90182 0.0
H193 H 0.51798 0.58496 0.92358 0.0
H194 H 0.65325 0.50259 0.02223 0.0
H195 H 0.69839 0.42164 0.94977 0.0
H196 H 0.54901 0.41611 0.90466 0.0
C197 C 0.44687 0.59208 0.06816 0.0
C198 C 0.45513 0.62702 0.11195 0.0
C199 C 0.50664 0.62118 0.12126 0.0
C200 C 0.54976 0.58175 0.08692 0.0
C201 C 0.54036 0.54814 0.04388 0.0
C202 C 0.48999 0.5524 0.03478 0.0
C203 C 0.48983 0.50976 0.98693 0.0
C204 C 0.44313 0.45939 0.00777 0.0
C205 C 0.48417 0.54858 0.93811 0.0
C206 C 0.5479 0.48057 0.97067 0.0
C207 C 0.57664 0.50383 1.00359 0.0
C208 C 0.6311 0.48389 0.99632 0.0
C209 C 0.65644 0.43809 0.95496 0.0
C210 C 0.62715 0.4126 0.92171 0.0
C211 C 0.57243 0.43474 0.92943 0.0
H212 H 0.94934 0.36338 0.11195 0.0
H213 H 0.82997 0.34218 0.0264 0.0
H214 H 0.88876 0.41187 0.94995 0.0
H215 H 0.97901 0.52607 0.08076 0.0
H216 H 0.05282 0.51997 0.07054 0.0
H217 H 0.00298 0.46565 0.1169 0.0
H218 H 0.06127 0.37126 0.05993 0.0
H219 H 0.1111 0.42542 0.01312 0.0
H220 H 0.07669 0.36689 0.98502 0.0
H221 H 0.9577 0.48709 0.88521 0.0
H222 H 0.03028 0.56696 0.83834 0.0
H223 H 0.10583 0.53895 0.96503 0.0
C224 C 0.93571 0.37325 0.07702 0.0
C225 C 0.88507 0.34742 0.07508 0.0
C226 C 0.86858 0.36151 0.02875 0.0
C227 C 0.90181 0.40079 0.98501 0.0
C228 C 0.95155 0.42534 0.9881 0.0
C229 C 0.96849 0.41228 0.0329 0.0
C230 C 0.02271 0.44679 0.02696 0.0
C231 C 0.01381 0.49232 0.07673 0.0
C232 C 0.07077 0.39978 0.02089 0.0
C233 C 0.03282 0.48241 0.97248 0.0
C234 C 0.99159 0.46877 0.95049 0.0
C235 C 0.99047 0.49782 0.90175 0.0
C236 C 0.03188 0.54307 0.87542 0.0
C237 C 0.07379 0.55887 0.89791 0.0
C238 C 0.07475 0.52721 0.94649 0.0
H239 H 0.09675 0.42217 0.45828 0.0
H240 H 0.02964 0.42887 0.32342 0.0
H241 H 0.95909 0.50723 0.37684 0.0
H242 H 0.96537 0.43329 0.57209 0.0
H243 H 0.9905 0.48371 0.6153 0.0
H244 H 0.03836 0.43028 0.56566 0.0
H245 H 0.10464 0.52376 0.51892 0.0
H246 H 0.05729 0.57746 0.56882 0.0
H247 H 0.0768 0.59124 0.49424 0.0
H248 H 0.89199 0.57786 0.44609 0.0
H249 H 0.83654 0.64649 0.52466 0.0
H250 H 0.94719 0.59872 0.61523 0.0
C251 C 0.06765 0.44084 0.43981 0.0
C252 C 0.06856 0.4193 0.38676 0.0
C253 C 0.02962 0.4445 0.36404 0.0
C254 C 0.98929 0.48898 0.39408 0.0
C255 C 0.9885 0.50803 0.44676 0.0
C256 C 0.02695 0.48562 0.46932 0.0
C257 C 0.01609 0.51401 0.52722 0.0
C258 C 0.00172 0.46224 0.57274 0.0
C259 C 0.06671 0.554 0.52728 0.0
C260 C 0.96515 0.55517 0.53369 0.0
C261 C 0.94999 0.55052 0.48676 0.0
C262 C 0.9036 0.58238 0.48295 0.0
C263 C 0.87219 0.62099 0.52798 0.0
C264 C 0.88755 0.62797 0.57603 0.0
C265 C 0.93455 0.59433 0.57897 0.0
H266 H 0.55 0.09249 0.89605 0.0
H267 H 0.64581 0.15967 0.99628 0.0
H268 H 0.58898 0.09232 0.07525 0.0
H269 H 0.4141 0.08066 0.01132 0.0
H270 H 0.39383 0.00897 0.98508 0.0
H271 H 0.44011 0.06472 0.93665 0.0
H272 H 0.51455 0.97641 0.89602 0.0
H273 H 0.46828 0.9204 0.94397 0.0
H274 H 0.53898 0.93156 0.94306 0.0
H275 H 0.52434 0.01752 0.14231 0.0
H276 H 0.45852 0.93342 0.19273 0.0
H277 H 0.40452 0.91122 0.0498 0.0
C278 C 0.5588 0.09302 0.9347 0.0
C279 C 0.60227 0.13132 0.9401 0.0
C280 C 0.61286 0.13055 0.99115 0.0
C281 C 0.58063 0.09271 0.03637 0.0
C282 C 0.53812 0.05559 0.02982 0.0
C283 C 0.52725 0.05491 0.98029 0.0
C284 C 0.48046 0.0084 0.98396 0.0
C285 C 0.42909 0.04275 0.97897 0.0
C286 C 0.50186 0.9561 0.93911 0.0
C287 C 0.46748 0.98258 0.043 0.0
C288 C 0.50088 0.01119 0.06875 0.0
C289 C 0.49779 0.9948 0.12277 0.0
C290 C 0.46027 0.94694 0.15103 0.0
C291 C 0.42646 0.91578 0.12517 0.0
C292 C 0.42959 0.93453 0.07072 0.0
H293 H 0.56851 0.90755 0.38563 0.0
H294 H 0.68714 0.88544 0.47181 0.0
H295 H 0.6343 0.96502 0.54249 0.0
H296 H 0.54655 0.07708 0.40919 0.0
H297 H 0.47271 0.07235 0.41919 0.0
H298 H 0.52167 0.01618 0.37413 0.0
H299 H 0.46133 0.924 0.43277 0.0
H300 H 0.41242 0.97985 0.47824 0.0
H301 H 0.44554 0.92154 0.5078 0.0
H302 H 0.56591 0.04379 0.60592 0.0
H303 H 0.48888 0.11814 0.65561 0.0
H304 H 0.41505 0.08732 0.52789 0.0
C305 C 0.58367 0.91981 0.41909 0.0
C306 C 0.63188 0.89039 0.42332 0.0
C307 C 0.65024 0.90745 0.46786 0.0
C308 C 0.62054 0.95255 0.50815 0.0
C309 C 0.57264 0.98 0.50321 0.0
C310 C 0.55449 0.9645 0.45964 0.0
C311 C 0.50108 0.99972 0.46449 0.0
C312 C 0.51113 0.04396 0.41375 0.0
C313 C 0.45222 0.95351 0.47124 0.0
C314 C 0.49149 0.0368 0.5181 0.0
C315 C 0.53332 0.02505 0.53969 0.0
C316 C 0.53304 0.05351 0.5893 0.0
C317 C 0.48904 0.09543 0.61732 0.0
C318 C 0.44591 0.10821 0.59573 0.0
C319 C 0.44731 0.0783 0.54554 0.0
H320 H 0.31145 0.68556 0.39623 0.0
H321 H 0.25178 0.87407 0.37902 0.0
H322 H 0.21506 0.88637 0.48242 0.0
H323 H 0.19381 0.64252 0.52055 0.0
H324 H 0.23609 0.59917 0.55196 0.0
H325 H 0.25831 0.60504 0.47639 0.0
H326 H 0.35437 0.65145 0.4718 0.0
H327 H 0.33256 0.64552 0.54732 0.0
H328 H 0.35554 0.72054 0.51306 0.0
H329 H 0.18402 0.87821 0.58706 0.0
H330 H 0.16284 0.85113 0.68701 0.0
H331 H 0.24277 0.66809 0.63691 0.0
C332 C 0.29091 0.7295 0.41427 0.0
C333 C 0.28455 0.77894 0.37967 0.0
C334 C 0.2572 0.83564 0.40477 0.0
C335 C 0.23613 0.84305 0.46343 0.0
C336 C 0.24274 0.79333 0.49639 0.0
C337 C 0.26956 0.73771 0.47285 0.0
C338 C 0.2709 0.69163 0.51799 0.0
C339 C 0.23779 0.63102 0.51663 0.0
C340 C 0.33197 0.67642 0.51219 0.0
C341 C 0.24101 0.73032 0.57049 0.0
C342 C 0.22488 0.78868 0.55701 0.0
C343 C 0.19647 0.8327 0.59822 0.0
C344 C 0.18456 0.81685 0.65484 0.0
C345 C 0.20119 0.75759 0.66965 0.0
C346 C 0.22955 0.71376 0.62682 0.0
H347 H 0.79133 0.68829 0.87674 0.0
H348 H 0.82449 0.88856 0.84252 0.0
H349 H 0.80615 0.90778 0.94315 0.0
H350 H 0.67904 0.70498 0.00854 0.0
H351 H 0.69922 0.63869 0.04164 0.0
H352 H 0.71682 0.63937 0.96642 0.0
H353 H 0.82251 0.62347 0.9511 0.0
H354 H 0.80514 0.62198 0.02633 0.0
H355 H 0.85672 0.67747 0.9836 0.0
H356 H 0.7762 0.90725 0.0478 0.0
H357 H 0.75142 0.88476 0.14896 0.0
H358 H 0.74063 0.68438 0.11616 0.0
C359 C 0.79555 0.73597 0.89036 0.0
C360 C 0.8093 0.78695 0.85183 0.0
C361 C 0.81417 0.84876 0.87125 0.0
C362 C 0.80358 0.86025 0.92838 0.0
C363 C 0.78876 0.80934 0.9655 0.0
C364 C 0.78566 0.74825 0.94733 0.0
C365 C 0.7691 0.70211 0.99626 0.0
C366 C 0.71271 0.66939 1.00363 0.0
C367 C 0.81619 0.6534 0.98888 0.0
C368 C 0.76311 0.74704 0.04464 0.0
C369 C 0.774 0.80871 0.02592 0.0
C370 C 0.76903 0.85901 0.06282 0.0
C371 C 0.75451 0.8458 0.12026 0.0
C372 C 0.74463 0.78283 0.14028 0.0
C373 C 0.74849 0.73294 0.10194 0.0
H374 H 0.75004 0.16816 0.39624 0.0
H375 H 0.75107 0.36754 0.35505 0.0
H376 H 0.72165 0.39453 0.45611 0.0
H377 H 0.62826 0.17372 0.52801 0.0
H378 H 0.65805 0.11759 0.56282 0.0
H379 H 0.67602 0.11353 0.48759 0.0
H380 H 0.78233 0.12088 0.47309 0.0
H381 H 0.76455 0.12459 0.54822 0.0
H382 H 0.8071 0.18599 0.50386 0.0
H383 H 0.69635 0.40029 0.56052 0.0
H384 H 0.68153 0.38486 0.66113 0.0
H385 H 0.69617 0.1817 0.6349 0.0
C386 C 0.74387 0.21747 0.40854 0.0
C387 C 0.75289 0.26582 0.36787 0.0
C388 C 0.74456 0.32979 0.38553 0.0
C389 C 0.72752 0.34555 0.44283 0.0
C390 C 0.71886 0.29676 0.48187 0.0
C391 C 0.72689 0.23402 0.46555 0.0
C392 C 0.71718 0.19089 0.51577 0.0
C393 C 0.66689 0.14634 0.52401 0.0
C394 C 0.77099 0.15342 0.50987 0.0
C395 C 0.70362 0.23938 0.56274 0.0
C396 C 0.70421 0.30008 0.5423 0.0
C397 C 0.69537 0.353 0.57713 0.0
C398 C 0.68697 0.34376 0.63418 0.0
C399 C 0.68746 0.28212 0.65578 0.0
C400 C 0.69485 0.2293 0.6197 0.0
H401 H 0.20937 0.19787 0.10843 0.0
H402 H 0.2212 0.39939 0.13531 0.0
H403 H 0.2503 0.41767 0.03278 0.0
H404 H 0.33129 0.18926 0.98054 0.0
H405 H 0.30077 0.13123 0.94795 0.0
H406 H 0.27959 0.13409 0.02357 0.0
H407 H 0.175 0.14591 0.03279 0.0
H408 H 0.19582 0.14293 0.95721 0.0
H409 H 0.1553 0.20903 0.99589 0.0
H410 H 0.27761 0.41408 0.92772 0.0
H411 H 0.30255 0.38876 0.82676 0.0
H412 H 0.27524 0.18925 0.86802 0.0
C413 C 0.21782 0.24585 0.09271 0.0
C414 C 0.21285 0.2973 0.12968 0.0
C415 C 0.22479 0.35934 0.1076 0.0
C416 C 0.24129 0.37019 0.0495 0.0
C417 C 0.24609 0.31841 0.01411 0.0
C418 C 0.23493 0.25744 0.03477 0.0
C419 C 0.24434 0.21 0.98754 0.0
C420 C 0.29182 0.16341 0.98475 0.0
C421 C 0.18933 0.17492 0.99374 0.0
C422 C 0.26208 0.25391 0.93713 0.0
C423 C 0.26278 0.31623 0.95341 0.0
C424 C 0.27737 0.36546 0.91441 0.0
C425 C 0.29149 0.35061 0.85721 0.0
C426 C 0.29097 0.28707 0.8396 0.0
C427 C 0.27622 0.23823 0.88021 0.0
H428 H 0.35961 0.31327 0.29603 0.0
H429 H 0.31825 0.11678 0.27916 0.0
H430 H 0.41807 0.08737 0.25599 0.0
H431 H 0.48957 0.31443 0.18119 0.0
H432 H 0.52529 0.36546 0.21448 0.0
H433 H 0.44995 0.37084 0.23375 0.0
H434 H 0.43629 0.35183 0.33865 0.0
H435 H 0.51165 0.34707 0.31975 0.0
H436 H 0.46736 0.283 0.35762 0.0
H437 H 0.52258 0.0797 0.23154 0.0
H438 H 0.62505 0.09437 0.20829 0.0
H439 H 0.59869 0.29602 0.23906 0.0
C440 C 0.37143 0.26395 0.28838 0.0
C441 C 0.33119 0.21724 0.28969 0.0
C442 C 0.34839 0.1533 0.27863 0.0
C443 C 0.40497 0.13611 0.26541 0.0
C444 C 0.44378 0.18342 0.2635 0.0
C445 C 0.42782 0.24599 0.27493 0.0
C446 C 0.47829 0.28788 0.26803 0.0
C447 C 0.48622 0.33757 0.22159 0.0
C448 C 0.47308 0.31927 0.32436 0.0
C449 C 0.52512 0.23915 0.25031 0.0
C450 C 0.50428 0.17915 0.24828 0.0
C451 C 0.53946 0.12643 0.23296 0.0
C452 C 0.59753 0.13523 0.21974 0.0
C453 C 0.61973 0.1963 0.22164 0.0
C454 C 0.58294 0.24882 0.23689 0.0
H455 H 0.61384 0.68119 0.73131 0.0
H456 H 0.62746 0.87729 0.77601 0.0
H457 H 0.52384 0.88674 0.81225 0.0
H458 H 0.50032 0.70396 0.68247 0.0
H459 H 0.46558 0.63027 0.70991 0.0
H460 H 0.54082 0.63718 0.69067 0.0
H461 H 0.53221 0.60196 0.79132 0.0
H462 H 0.45688 0.5947 0.81061 0.0
H463 H 0.48542 0.64454 0.85144 0.0
H464 H 0.42029 0.87701 0.84002 0.0
H465 H 0.32155 0.84956 0.85569 0.0
H466 H 0.37327 0.65979 0.7927 0.0
C467 C 0.59488 0.7259 0.74914 0.0
C468 C 0.62856 0.77853 0.75096 0.0
C469 C 0.60241 0.83644 0.77411 0.0
C470 C 0.54361 0.84223 0.79498 0.0
C471 C 0.51159 0.78972 0.79222 0.0
C472 C 0.53608 0.73267 0.76983 0.0
C473 C 0.4917 0.68449 0.76998 0.0
C474 C 0.50012 0.66273 0.70968 0.0
C475 C 0.49157 0.62804 0.80809 0.0
C476 C 0.43861 0.72384 0.79508 0.0
C477 C 0.45122 0.78418 0.80803 0.0
C478 C 0.40975 0.82986 0.83033 0.0
C479 C 0.35381 0.81378 0.83904 0.0
C480 C 0.3398 0.75254 0.8255 0.0
C481 C 0.38275 0.70679 0.80384 0.0
H482 H 0.14487 0.81085 0.2183 0.0
H483 H 0.17918 0.61096 0.22788 0.0
H484 H 0.07767 0.58727 0.25309 0.0
H485 H 0.01509 0.81265 0.33681 0.0
H486 H 0.98158 0.86922 0.30602 0.0
H487 H 0.05708 0.87001 0.2868 0.0
H488 H 0.06972 0.85896 0.18164 0.0
H489 H 0.9943 0.85852 0.20018 0.0
H490 H 0.03614 0.79442 0.15932 0.0
H491 H 0.97182 0.586 0.27855 0.0
H492 H 0.87039 0.6072 0.29986 0.0
H493 H 0.90621 0.80812 0.27561 0.0
C494 C 0.13115 0.76201 0.22495 0.0
C495 C 0.16985 0.71265 0.22068 0.0
C496 C 0.15017 0.64944 0.23061 0.0
C497 C 0.09264 0.63555 0.2451 0.0
C498 C 0.05543 0.68549 0.24978 0.0
C499 C 0.07392 0.74743 0.23996 0.0
C500 C 0.02528 0.7926 0.24893 0.0
C501 C 0.01943 0.83883 0.29754 0.0
C502 C 0.03172 0.82818 0.19426 0.0
C503 C 0.9766 0.7464 0.26462 0.0
C504 C 0.99471 0.68484 0.26513 0.0
C505 C 0.95718 0.63402 0.27819 0.0
C506 C 0.89972 0.6465 0.29031 0.0
C507 C 0.88055 0.70925 0.28939 0.0
C508 C 0.91958 0.75967 0.27682 0.0
H509 H 0.13207 0.31305 0.70523 0.0
H510 H 0.16685 0.11322 0.67054 0.0
H511 H 0.06569 0.09408 0.68881 0.0
H512 H 0.00329 0.29387 0.81939 0.0
H513 H 0.96933 0.36132 0.80203 0.0
H514 H 0.04484 0.36005 0.78211 0.0
H515 H 0.05655 0.37931 0.6777 0.0
H516 H 0.98099 0.38092 0.69736 0.0
H517 H 0.02261 0.32668 0.64383 0.0
H518 H 0.96015 0.09611 0.71555 0.0
H519 H 0.858 0.1192 0.74827 0.0
H520 H 0.89258 0.31754 0.76655 0.0
C521 C 0.11853 0.26538 0.70082 0.0
C522 C 0.15724 0.21459 0.68628 0.0
C523 C 0.13783 0.15278 0.68155 0.0
C524 C 0.08053 0.14149 0.69179 0.0
C525 C 0.04332 0.19251 0.70682 0.0
C526 C 0.06154 0.25327 0.71121 0.0
C527 C 0.01272 0.29944 0.73019 0.0
C528 C 0.00724 0.33046 0.78678 0.0
C529 C 0.01858 0.34953 0.68455 0.0
C530 C 0.96405 0.25498 0.73665 0.0
C531 C 0.98258 0.1936 0.72259 0.0
C532 C 0.94517 0.14404 0.72636 0.0
C533 C 0.88727 0.15757 0.74512 0.0
C534 C 0.86744 0.22011 0.75998 0.0
C535 C 0.9065 0.2693 0.75539 0.0
loop_
_geom_bond_atom_site_label_1
_geom_bond_atom_site_label_2
_geom_bond_distance
_geom_bond_site_symmetry_2
_ccdc_geom_bond_type
In0 O1 2.294 . S
In0 O2 2.326 . S
In0 O6 2.266 . S
In0 O7 2.326 . S
In0 O8 2.266 . S
In0 O9 2.326 . S
In0 O11 2.294 . S
In0 O12 2.326 . S
O1 In0 2.294 . S
O1 C10 1.240 . S
O2 In0 2.326 . S
O2 C10 1.252 . S
C3 O6 1.252 . S
C3 O7 1.260 . S
C4 O11 1.240 . S
C4 O12 1.252 . S
C5 O8 1.252 . S
C5 O9 1.260 . S
O6 In0 2.266 . S
O6 C3 1.252 . S
O7 In0 2.326 . S
O7 C3 1.260 . S
O8 In0 2.266 . S
O8 C5 1.252 . S
O9 In0 2.326 . S
O9 C5 1.260 . S
C10 O1 1.240 . S
C10 O2 1.252 . S
O11 In0 2.294 . S
O11 C4 1.240 . S
O12 In0 2.326 . S
O12 C4 1.252 . S
In13 O14 2.294 . S
In13 O15 2.326 . S
In13 O19 2.266 . S
In13 O20 2.326 . S
In13 O21 2.266 . S
In13 O22 2.326 . S
In13 O24 2.294 . S
In13 O25 2.326 . S
O14 In13 2.294 . S
O14 C23 1.240 . S
O15 In13 2.326 . S
O15 C23 1.252 . S
C16 O19 1.252 . S
C16 O20 1.260 . S
C17 O24 1.240 . S
C17 O25 1.252 . S
C18 O21 1.252 . S
C18 O22 1.260 . S
O19 In13 2.266 . S
O19 C16 1.252 . S
O20 In13 2.326 . S
O20 C16 1.260 . S
O21 In13 2.266 . S
O21 C18 1.252 . S
O22 In13 2.326 . S
O22 C18 1.260 . S
C23 O14 1.240 . S
C23 O15 1.252 . S
O24 In13 2.294 . S
O24 C17 1.240 . S
O25 In13 2.326 . S
O25 C17 1.252 . S
In26 O27 2.294 . S
In26 O28 2.326 . S
In26 O32 2.266 . S
In26 O33 2.326 . S
In26 O34 2.266 . S
In26 O35 2.326 . S
In26 O37 2.294 . S
In26 O38 2.326 . S
O27 In26 2.294 . S
O27 C36 1.240 . S
O28 In26 2.326 . S
O28 C36 1.252 . S
C29 O32 1.252 . S
C29 O33 1.260 . S
C30 O37 1.240 . S
C30 O38 1.252 . S
C31 O34 1.252 . S
C31 O35 1.260 . S
O32 In26 2.266 . S
O32 C29 1.252 . S
O33 In26 2.326 . S
O33 C29 1.260 . S
O34 In26 2.266 . S
O34 C31 1.252 . S
O35 In26 2.326 . S
O35 C31 1.260 . S
C36 O27 1.240 . S
C36 O28 1.252 . S
O37 In26 2.294 . S
O37 C30 1.240 . S
O38 In26 2.326 . S
O38 C30 1.252 . S
In39 O40 2.294 . S
In39 O41 2.326 . S
In39 O45 2.266 . S
In39 O46 2.326 . S
In39 O47 2.266 . S
In39 O48 2.326 . S
In39 O50 2.294 . S
In39 O51 2.326 . S
O40 In39 2.294 . S
O40 C49 1.240 . S
O41 In39 2.326 . S
O41 C49 1.252 . S
C42 O45 1.252 . S
C42 O46 1.260 . S
C43 O50 1.240 . S
C43 O51 1.252 . S
C44 O47 1.252 . S
C44 O48 1.260 . S
O45 In39 2.266 . S
O45 C42 1.252 . S
O46 In39 2.326 . S
O46 C42 1.260 . S
O47 In39 2.266 . S
O47 C44 1.252 . S
O48 In39 2.326 . S
O48 C44 1.260 . S
C49 O40 1.240 . S
C49 O41 1.252 . S
O50 In39 2.294 . S
O50 C43 1.240 . S
O51 In39 2.326 . S
O51 C43 1.252 . S
In52 O53 2.294 . S
In52 O54 2.326 . S
In52 O58 2.266 . S
In52 O59 2.326 . S
In52 O60 2.266 . S
In52 O61 2.326 . S
In52 O63 2.294 . S
In52 O64 2.326 . S
O53 In52 2.294 . S
O53 C62 1.240 . S
O54 In52 2.326 . S
O54 C62 1.252 . S
C55 O58 1.252 . S
C55 O59 1.260 . S
C56 O63 1.240 . S
C56 O64 1.252 . S
C57 O60 1.252 . S
C57 O61 1.260 . S
O58 In52 2.266 . S
O58 C55 1.252 . S
O59 In52 2.326 . S
O59 C55 1.260 . S
O60 In52 2.266 . S
O60 C57 1.252 . S
O61 In52 2.326 . S
O61 C57 1.260 . S
C62 O53 1.240 . S
C62 O54 1.252 . S
O63 In52 2.294 . S
O63 C56 1.240 . S
O64 In52 2.326 . S
O64 C56 1.252 . S
In65 O66 2.294 . S
In65 O67 2.326 . S
In65 O71 2.266 . S
In65 O72 2.326 . S
In65 O73 2.266 . S
In65 O74 2.326 . S
In65 O76 2.294 . S
In65 O77 2.326 . S
O66 In65 2.294 . S
O66 C75 1.240 . S
O67 In65 2.326 . S
O67 C75 1.252 . S
C68 O71 1.252 . S
C68 O72 1.260 . S
C69 O76 1.240 . S
C69 O77 1.252 . S
C70 O73 1.252 . S
C70 O74 1.260 . S
O71 In65 2.266 . S
O71 C68 1.252 . S
O72 In65 2.326 . S
O72 C68 1.260 . S
O73 In65 2.266 . S
O73 C70 1.252 . S
O74 In65 2.326 . S
O74 C70 1.260 . S
C75 O66 1.240 . S
C75 O67 1.252 . S
O76 In65 2.294 . S
O76 C69 1.240 . S
O77 In65 2.326 . S
O77 C69 1.252 . S
In78 O79 2.294 . S
In78 O80 2.326 . S
In78 O84 2.266 . S
In78 O85 2.326 . S
In78 O86 2.266 . S
In78 O87 2.326 . S
In78 O89 2.294 . S
In78 O90 2.326 . S
O79 In78 2.294 . S
O79 C88 1.240 . S
O80 In78 2.326 . S
O80 C88 1.252 . S
C81 O84 1.252 . S
C81 O85 1.260 . S
C82 O89 1.240 . S
C82 O90 1.252 . S
C83 O86 1.252 . S
C83 O87 1.260 . S
O84 In78 2.266 . S
O84 C81 1.252 . S
O85 In78 2.326 . S
O85 C81 1.260 . S
O86 In78 2.266 . S
O86 C83 1.252 . S
O87 In78 2.326 . S
O87 C83 1.260 . S
C88 O79 1.240 . S
C88 O80 1.252 . S
O89 In78 2.294 . S
O89 C82 1.240 . S
O90 In78 2.326 . S
O90 C82 1.252 . S
In91 O92 2.294 . S
In91 O93 2.326 . S
In91 O97 2.266 . S
In91 O98 2.326 . S
In91 O99 2.266 . S
In91 O100 2.326 . S
In91 O102 2.294 . S
In91 O103 2.326 . S
O92 In91 2.294 . S
O92 C101 1.240 . S
O93 In91 2.326 . S
O93 C101 1.252 . S
C94 O97 1.252 . S
C94 O98 1.260 . S
C95 O102 1.240 . S
C95 O103 1.252 . S
C96 O99 1.252 . S
C96 O100 1.260 . S
O97 In91 2.266 . S
O97 C94 1.252 . S
O98 In91 2.326 . S
O98 C94 1.260 . S
O99 In91 2.266 . S
O99 C96 1.252 . S
O100 In91 2.326 . S
O100 C96 1.260 . S
C101 O92 1.240 . S
C101 O93 1.252 . S
O102 In91 2.294 . S
O102 C95 1.240 . S
O103 In91 2.326 . S
O103 C95 1.252 . S
H104 C116 0.930 . S
H105 C118 0.930 . S
H106 C119 0.930 1_655 S
H107 C123 0.959 1_565 S
H108 C123 0.959 . S
H109 C123 0.961 . S
H110 C124 0.960 . S
H111 C124 0.961 . S
H112 C124 0.959 . S
H113 C127 0.929 . S
H114 C128 0.931 . S
H115 C130 0.930 . S
C116 H104 0.930 . S
C116 C117 1.399 . S
C116 C121 1.399 . S
C117 C116 1.399 . S
C117 C118 1.376 . S
C118 H105 0.930 . S
C118 C117 1.376 . S
C118 C119 1.388 . S
C119 H106 0.930 1_455 S
C119 C118 1.388 . S
C119 C120 1.390 . S
C120 C119 1.390 . S
C120 C121 1.394 . S
C120 C126 1.465 1_445 S
C121 C116 1.399 . S
C121 C120 1.394 . S
C121 C122 1.516 . S
C122 C121 1.516 . S
C122 C123 1.502 . S
C122 C124 1.561 1_455 S
C122 C125 1.526 1_445 S
C123 H107 0.959 1_545 S
C123 H108 0.959 . S
C123 H109 0.961 . S
C123 C122 1.502 . S
C124 H110 0.960 . S
C124 H111 0.961 . S
C124 H112 0.959 . S
C124 C122 1.561 1_655 S
C125 C122 1.526 1_665 S
C125 C126 1.396 . S
C125 C130 1.390 . S
C126 C120 1.465 1_665 S
C126 C125 1.396 . S
C126 C127 1.399 . S
C127 H113 0.929 . S
C127 C126 1.399 . S
C127 C128 1.385 . S
C128 H114 0.931 . S
C128 C127 1.385 . S
C128 C129 1.389 . S
C129 C128 1.389 . S
C129 C130 1.387 . S
C130 H115 0.930 . S
C130 C125 1.390 . S
C130 C129 1.387 . S
H131 C143 0.930 . S
H132 C145 0.930 . S
H133 C146 0.930 1_554 S
H134 C150 0.959 . S
H135 C150 0.959 . S
H136 C150 0.961 . S
H137 C151 0.960 . S
H138 C151 0.961 1_554 S
H139 C151 0.959 1_554 S
H140 C154 0.929 . S
H141 C155 0.931 . S
H142 C157 0.930 . S
C143 H131 0.930 . S
C143 C144 1.399 . S
C143 C148 1.399 . S
C144 C143 1.399 . S
C144 C145 1.376 . S
C145 H132 0.930 . S
C145 C144 1.376 . S
C145 C146 1.388 . S
C146 H133 0.930 1_556 S
C146 C145 1.388 . S
C146 C147 1.385 . S
C147 C146 1.385 . S
C147 C148 1.409 . S
C147 C153 1.462 1_566 S
C148 C143 1.399 . S
C148 C147 1.409 . S
C148 C149 1.516 1_455 S
C149 C148 1.516 1_655 S
C149 C150 1.502 1_565 S
C149 C151 1.561 . S
C149 C152 1.526 1_566 S
C150 H134 0.959 . S
C150 H135 0.959 . S
C150 H136 0.961 . S
C150 C149 1.502 1_545 S
C151 H137 0.960 . S
C151 H138 0.961 1_556 S
C151 H139 0.959 1_556 S
C151 C149 1.561 . S
C152 C149 1.526 1_544 S
C152 C153 1.382 1_655 S
C152 C157 1.390 . S
C153 C147 1.462 1_544 S
C153 C152 1.382 1_455 S
C153 C154 1.406 . S
C154 H140 0.929 . S
C154 C153 1.406 . S
C154 C155 1.385 1_455 S
C155 H141 0.931 . S
C155 C154 1.385 1_655 S
C155 C156 1.389 . S
C156 C155 1.389 . S
C156 C157 1.387 . S
C157 H142 0.930 . S
C157 C152 1.390 . S
C157 C156 1.387 . S
H158 C170 0.930 . S
H159 C172 0.930 . S
H160 C173 0.930 . S
H161 C177 0.959 . S
H162 C177 0.959 . S
H163 C177 0.961 . S
H164 C178 0.960 . S
H165 C178 0.961 . S
H166 C178 0.959 . S
H167 C181 0.929 . S
H168 C182 0.931 . S
H169 C184 0.930 . S
C170 H158 0.930 . S
C170 C171 1.399 . S
C170 C175 1.399 . S
C171 C170 1.399 . S
C171 C172 1.376 . S
C172 H159 0.930 . S
C172 C171 1.376 . S
C172 C173 1.388 . S
C173 H160 0.930 . S
C173 C172 1.388 . S
C173 C174 1.390 . S
C174 C173 1.390 . S
C174 C175 1.394 . S
C174 C180 1.465 . S
C175 C170 1.399 . S
C175 C174 1.394 . S
C175 C176 1.516 . S
C176 C175 1.516 . S
C176 C177 1.502 . S
C176 C178 1.561 . S
C176 C179 1.526 . S
C177 H161 0.959 . S
C177 H162 0.959 . S
C177 H163 0.961 . S
C177 C176 1.502 . S
C178 H164 0.960 . S
C178 H165 0.961 . S
C178 H166 0.959 . S
C178 C176 1.561 . S
C179 C176 1.526 . S
C179 C180 1.396 . S
C179 C184 1.390 . S
C180 C174 1.465 . S
C180 C179 1.396 . S
C180 C181 1.399 . S
C181 H167 0.929 . S
C181 C180 1.399 . S
C181 C182 1.385 . S
C182 H168 0.931 . S
C182 C181 1.385 . S
C182 C183 1.389 . S
C183 C182 1.389 . S
C183 C184 1.387 . S
C184 H169 0.930 . S
C184 C179 1.390 . S
C184 C183 1.387 . S
H185 C197 0.930 . S
H186 C199 0.930 . S
H187 C200 0.930 . S
H188 C204 0.959 1_554 S
H189 C204 0.959 . S
H190 C204 0.961 1_554 S
H191 C205 0.960 . S
H192 C205 0.961 . S
H193 C205 0.959 . S
H194 C208 0.929 . S
H195 C209 0.931 . S
H196 C211 0.930 . S
C197 H185 0.930 . S
C197 C198 1.399 . S
C197 C202 1.399 . S
C198 C197 1.399 . S
C198 C199 1.376 . S
C199 H186 0.930 . S
C199 C198 1.376 . S
C199 C200 1.388 . S
C200 H187 0.930 . S
C200 C199 1.388 . S
C200 C201 1.390 . S
C201 C200 1.390 . S
C201 C202 1.394 . S
C201 C207 1.465 1_554 S
C202 C197 1.399 . S
C202 C201 1.394 . S
C202 C203 1.516 1_554 S
C203 C202 1.516 1_556 S
C203 C204 1.502 . S
C203 C205 1.561 . S
C203 C206 1.526 . S
C204 H188 0.959 1_556 S
C204 H189 0.959 . S
C204 H190 0.961 1_556 S
C204 C203 1.502 . S
C205 H191 0.960 . S
C205 H192 0.961 . S
C205 H193 0.959 . S
C205 C203 1.561 . S
C206 C203 1.526 . S
C206 C207 1.396 . S
C206 C211 1.390 . S
C207 C201 1.465 1_556 S
C207 C206 1.396 . S
C207 C208 1.399 . S
C208 H194 0.929 . S
C208 C207 1.399 . S
C208 C209 1.385 . S
C209 H195 0.931 . S
C209 C208 1.385 . S
C209 C210 1.389 . S
C210 C209 1.389 . S
C210 C211 1.387 . S
C211 H196 0.930 . S
C211 C206 1.390 . S
C211 C210 1.387 . S
H212 C224 0.930 . S
H213 C226 0.930 . S
H214 C227 0.930 . S
H215 C231 0.959 . S
H216 C231 0.959 . S
H217 C231 0.961 . S
H218 C232 0.960 . S
H219 C232 0.961 . S
H220 C232 0.959 1_655 S
H221 C235 0.928 1_654 S
H222 C236 0.931 . S
H223 C238 0.930 . S
C224 H212 0.930 . S
C224 C225 1.399 . S
C224 C229 1.399 . S
C225 C224 1.399 . S
C225 C226 1.376 . S
C226 H213 0.930 . S
C226 C225 1.376 . S
C226 C227 1.388 . S
C227 H214 0.930 . S
C227 C226 1.388 . S
C227 C228 1.390 . S
C228 C227 1.390 . S
C228 C229 1.394 . S
C228 C234 1.465 1_654 S
C229 C224 1.399 . S
C229 C228 1.394 . S
C229 C230 1.516 1_654 S
C230 C229 1.516 1_456 S
C230 C231 1.502 . S
C230 C232 1.561 . S
C230 C233 1.526 . S
C231 H215 0.959 . S
C231 H216 0.959 . S
C231 H217 0.961 . S
C231 C230 1.502 . S
C232 H218 0.960 . S
C232 H219 0.961 . S
C232 H220 0.959 1_455 S
C232 C230 1.561 . S
C233 C230 1.526 . S
C233 C234 1.396 . S
C233 C238 1.390 . S
C234 C228 1.465 1_456 S
C234 C233 1.396 . S
C234 C235 1.399 . S
C235 H221 0.928 1_456 S
C235 C234 1.399 . S
C235 C236 1.386 . S
C236 H222 0.931 . S
C236 C235 1.386 . S
C236 C237 1.389 . S
C237 C236 1.389 . S
C237 C238 1.387 . S
C238 H223 0.930 . S
C238 C233 1.390 . S
C238 C237 1.387 . S
H239 C251 0.930 . S
H240 C253 0.930 . S
H241 C254 0.930 . S
H242 C258 0.959 . S
H243 C258 0.959 . S
H244 C258 0.961 . S
H245 C259 0.960 . S
H246 C259 0.961 . S
H247 C259 0.959 . S
H248 C262 0.929 . S
H249 C263 0.931 . S
H250 C265 0.930 . S
C251 H239 0.930 . S
C251 C252 1.399 . S
C251 C256 1.399 . S
C252 C251 1.399 . S
C252 C253 1.376 . S
C253 H240 0.930 . S
C253 C252 1.376 . S
C253 C254 1.388 . S
C254 H241 0.930 . S
C254 C253 1.388 . S
C254 C255 1.390 . S
C255 C254 1.390 . S
C255 C256 1.394 . S
C255 C261 1.465 1_455 S
C256 C251 1.399 . S
C256 C255 1.394 . S
C256 C257 1.516 1_455 S
C257 C256 1.516 1_655 S
C257 C258 1.502 . S
C257 C259 1.561 1_655 S
C257 C260 1.526 . S
C258 H242 0.959 . S
C258 H243 0.959 . S
C258 H244 0.961 . S
C258 C257 1.502 . S
C259 H245 0.960 . S
C259 H246 0.961 . S
C259 H247 0.959 . S
C259 C257 1.561 1_455 S
C260 C257 1.526 . S
C260 C261 1.396 . S
C260 C265 1.390 . S
C261 C255 1.465 1_655 S
C261 C260 1.396 . S
C261 C262 1.399 . S
C262 H248 0.929 . S
C262 C261 1.399 . S
C262 C263 1.385 . S
C263 H249 0.931 . S
C263 C262 1.385 . S
C263 C264 1.389 . S
C264 C263 1.389 . S
C264 C265 1.387 . S
C265 H250 0.930 . S
C265 C260 1.390 . S
C265 C264 1.387 . S
H266 C278 0.930 . S
H267 C280 0.930 . S
H268 C281 0.930 . S
H269 C285 0.959 1_545 S
H270 C285 0.959 . S
H271 C285 0.961 . S
H272 C286 0.960 . S
H273 C286 0.961 . S
H274 C286 0.959 . S
H275 C289 0.929 1_545 S
H276 C290 0.931 . S
H277 C292 0.930 . S
C278 H266 0.930 . S
C278 C279 1.399 . S
C278 C283 1.399 . S
C279 C278 1.399 . S
C279 C280 1.376 . S
C280 H267 0.930 . S
C280 C279 1.376 . S
C280 C281 1.388 1_556 S
C281 H268 0.930 . S
C281 C280 1.388 1_554 S
C281 C282 1.390 . S
C282 C281 1.390 . S
C282 C283 1.394 1_554 S
C282 C288 1.465 1_545 S
C283 C278 1.399 . S
C283 C282 1.394 1_556 S
C283 C284 1.516 1_545 S
C284 C283 1.516 1_565 S
C284 C285 1.502 . S
C284 C286 1.561 . S
C284 C287 1.526 1_556 S
C285 H269 0.959 1_565 S
C285 H270 0.959 . S
C285 H271 0.961 . S
C285 C284 1.502 . S
C286 H272 0.960 . S
C286 H273 0.961 . S
C286 H274 0.959 . S
C286 C284 1.561 . S
C287 C284 1.526 1_554 S
C287 C288 1.396 . S
C287 C292 1.390 . S
C288 C282 1.465 1_565 S
C288 C287 1.396 . S
C288 C289 1.399 . S
C289 H275 0.929 1_565 S
C289 C288 1.399 . S
C289 C290 1.385 . S
C290 H276 0.931 . S
C290 C289 1.385 . S
C290 C291 1.389 . S
C291 C290 1.389 . S
C291 C292 1.387 . S
C292 H277 0.930 . S
C292 C287 1.390 . S
C292 C291 1.387 . S
H293 C305 0.930 . S
H294 C307 0.930 . S
H295 C308 0.930 . S
H296 C312 0.959 . S
H297 C312 0.959 . S
H298 C312 0.961 . S
H299 C313 0.960 . S
H300 C313 0.961 . S
H301 C313 0.959 . S
H302 C316 0.929 . S
H303 C317 0.931 . S
H304 C319 0.930 . S
C305 H293 0.930 . S
C305 C306 1.399 . S
C305 C310 1.399 . S
C306 C305 1.399 . S
C306 C307 1.376 . S
C307 H294 0.930 . S
C307 C306 1.376 . S
C307 C308 1.388 . S
C308 H295 0.930 . S
C308 C307 1.388 . S
C308 C309 1.390 . S
C309 C308 1.390 . S
C309 C310 1.394 . S
C309 C315 1.465 1_565 S
C310 C305 1.399 . S
C310 C309 1.394 . S
C310 C311 1.516 1_565 S
C311 C310 1.516 1_545 S
C311 C312 1.502 . S
C311 C313 1.561 1_545 S
C311 C314 1.526 . S
C312 H296 0.959 . S
C312 H297 0.959 . S
C312 H298 0.961 . S
C312 C311 1.502 . S
C313 H299 0.960 . S
C313 H300 0.961 . S
C313 H301 0.959 . S
C313 C311 1.561 1_565 S
C314 C311 1.526 . S
C314 C315 1.396 . S
C314 C319 1.390 . S
C315 C309 1.465 1_545 S
C315 C314 1.396 . S
C315 C316 1.399 . S
C316 H302 0.929 . S
C316 C315 1.399 . S
C316 C317 1.385 . S
C317 H303 0.931 . S
C317 C316 1.385 . S
C317 C318 1.389 . S
C318 C317 1.389 . S
C318 C319 1.387 . S
C319 H304 0.930 . S
C319 C314 1.390 . S
C319 C318 1.387 . S
H320 C332 0.930 . S
H321 C334 0.930 . S
H322 C335 0.930 . S
H323 C339 0.959 . S
H324 C339 0.959 . S
H325 C339 0.961 . S
H326 C340 0.960 . S
H327 C340 0.961 . S
H328 C340 0.959 . S
H329 C343 0.929 . S
H330 C344 0.931 . S
H331 C346 0.930 . S
C332 H320 0.930 . S
C332 C333 1.399 . S
C332 C337 1.399 . S
C333 C332 1.399 . S
C333 C334 1.376 . S
C334 H321 0.930 . S
C334 C333 1.376 . S
C334 C335 1.388 . S
C335 H322 0.930 . S
C335 C334 1.388 . S
C335 C336 1.390 . S
C336 C335 1.390 . S
C336 C337 1.394 . S
C336 C342 1.465 . S
C337 C332 1.399 . S
C337 C336 1.394 . S
C337 C338 1.516 . S
C338 C337 1.516 . S
C338 C339 1.502 . S
C338 C340 1.561 . S
C338 C341 1.526 . S
C339 H323 0.959 . S
C339 H324 0.959 . S
C339 H325 0.961 . S
C339 C338 1.502 . S
C340 H326 0.960 . S
C340 H327 0.961 . S
C340 H328 0.959 . S
C340 C338 1.561 . S
C341 C338 1.526 . S
C341 C342 1.396 . S
C341 C346 1.390 . S
C342 C336 1.465 . S
C342 C341 1.396 . S
C342 C343 1.399 . S
C343 H329 0.929 . S
C343 C342 1.399 . S
C343 C344 1.385 . S
C344 H330 0.931 . S
C344 C343 1.385 . S
C344 C345 1.389 . S
C345 C344 1.389 . S
C345 C346 1.387 . S
C346 H331 0.930 . S
C346 C341 1.390 . S
C346 C345 1.387 . S
H347 C359 0.930 . S
H348 C361 0.930 . S
H349 C362 0.930 . S
H350 C366 0.959 . S
H351 C366 0.959 . S
H352 C366 0.961 1_556 S
H353 C367 0.960 . S
H354 C367 0.961 1_554 S
H355 C367 0.959 . S
H356 C370 0.929 . S
H357 C371 0.931 . S
H358 C373 0.930 . S
C359 H347 0.930 . S
C359 C360 1.399 . S
C359 C364 1.399 . S
C360 C359 1.399 . S
C360 C361 1.376 . S
C361 H348 0.930 . S
C361 C360 1.376 . S
C361 C362 1.388 . S
C362 H349 0.930 . S
C362 C361 1.388 . S
C362 C363 1.390 . S
C363 C362 1.390 . S
C363 C364 1.394 . S
C363 C369 1.465 1_556 S
C364 C359 1.399 . S
C364 C363 1.394 . S
C364 C365 1.516 1_556 S
C365 C364 1.516 1_554 S
C365 C366 1.502 . S
C365 C367 1.561 1_554 S
C365 C368 1.526 . S
C366 H350 0.959 . S
C366 H351 0.959 . S
C366 H352 0.961 1_554 S
C366 C365 1.502 . S
C367 H353 0.960 . S
C367 H354 0.961 1_556 S
C367 H355 0.959 . S
C367 C365 1.561 1_556 S
C368 C365 1.526 . S
C368 C369 1.396 . S
C368 C373 1.390 . S
C369 C363 1.465 1_554 S
C369 C368 1.396 . S
C369 C370 1.399 . S
C370 H356 0.929 . S
C370 C369 1.399 . S
C370 C371 1.385 . S
C371 H357 0.931 . S
C371 C370 1.385 . S
C371 C372 1.389 . S
C372 C371 1.389 . S
C372 C373 1.387 . S
C373 H358 0.930 . S
C373 C368 1.390 . S
C373 C372 1.387 . S
H374 C386 0.930 . S
H375 C388 0.930 . S
H376 C389 0.930 . S
H377 C393 0.959 . S
H378 C393 0.959 . S
H379 C393 0.961 . S
H380 C394 0.960 . S
H381 C394 0.961 . S
H382 C394 0.959 . S
H383 C397 0.929 . S
H384 C398 0.931 . S
H385 C400 0.930 . S
C386 H374 0.930 . S
C386 C387 1.399 . S
C386 C391 1.399 . S
C387 C386 1.399 . S
C387 C388 1.376 . S
C388 H375 0.930 . S
C388 C387 1.376 . S
C388 C389 1.388 . S
C389 H376 0.930 . S
C389 C388 1.388 . S
C389 C390 1.390 . S
C390 C389 1.390 . S
C390 C391 1.394 . S
C390 C396 1.465 . S
C391 C386 1.399 . S
C391 C390 1.394 . S
C391 C392 1.516 . S
C392 C391 1.516 . S
C392 C393 1.502 . S
C392 C394 1.561 . S
C392 C395 1.526 . S
C393 H377 0.959 . S
C393 H378 0.959 . S
C393 H379 0.961 . S
C393 C392 1.502 . S
C394 H380 0.960 . S
C394 H381 0.961 . S
C394 H382 0.959 . S
C394 C392 1.561 . S
C395 C392 1.526 . S
C395 C396 1.396 . S
C395 C400 1.390 . S
C396 C390 1.465 . S
C396 C395 1.396 . S
C396 C397 1.399 . S
C397 H383 0.929 . S
C397 C396 1.399 . S
C397 C398 1.385 . S
C398 H384 0.931 . S
C398 C397 1.385 . S
C398 C399 1.389 . S
C399 C398 1.389 . S
C399 C400 1.387 . S
C400 H385 0.930 . S
C400 C395 1.390 . S
C400 C399 1.387 . S
H401 C413 0.930 . S
H402 C415 0.930 . S
H403 C416 0.930 . S
H404 C420 0.959 . S
H405 C420 0.959 . S
H406 C420 0.961 1_554 S
H407 C421 0.960 . S
H408 C421 0.961 1_556 S
H409 C421 0.959 . S
H410 C424 0.929 . S
H411 C425 0.931 . S
H412 C427 0.930 . S
C413 H401 0.930 . S
C413 C414 1.399 . S
C413 C418 1.399 . S
C414 C413 1.399 . S
C414 C415 1.376 . S
C415 H402 0.930 . S
C415 C414 1.376 . S
C415 C416 1.388 . S
C416 H403 0.930 . S
C416 C415 1.388 . S
C416 C417 1.390 . S
C417 C416 1.390 . S
C417 C418 1.394 . S
C417 C423 1.465 1_554 S
C418 C413 1.399 . S
C418 C417 1.394 . S
C418 C419 1.516 1_554 S
C419 C418 1.516 1_556 S
C419 C420 1.502 . S
C419 C421 1.561 1_556 S
C419 C422 1.526 . S
C420 H404 0.959 . S
C420 H405 0.959 . S
C420 H406 0.961 1_556 S
C420 C419 1.502 . S
C421 H407 0.960 . S
C421 H408 0.961 1_554 S
C421 H409 0.959 . S
C421 C419 1.561 1_554 S
C422 C419 1.526 . S
C422 C423 1.396 . S
C422 C427 1.390 . S
C423 C417 1.465 1_556 S
C423 C422 1.396 . S
C423 C424 1.399 . S
C424 H410 0.929 . S
C424 C423 1.399 . S
C424 C425 1.385 . S
C425 H411 0.931 . S
C425 C424 1.385 . S
C425 C426 1.389 . S
C426 C425 1.389 . S
C426 C427 1.387 . S
C427 H412 0.930 . S
C427 C422 1.390 . S
C427 C426 1.387 . S
H428 C440 0.930 . S
H429 C442 0.930 . S
H430 C443 0.930 . S
H431 C447 0.959 . S
H432 C447 0.959 . S
H433 C447 0.961 . S
H434 C448 0.960 . S
H435 C448 0.961 . S
H436 C448 0.959 . S
H437 C451 0.929 . S
H438 C452 0.931 . S
H439 C454 0.930 . S
C440 H428 0.930 . S
C440 C441 1.399 . S
C440 C445 1.399 . S
C441 C440 1.399 . S
C441 C442 1.376 . S
C442 H429 0.930 . S
C442 C441 1.376 . S
C442 C443 1.388 . S
C443 H430 0.930 . S
C443 C442 1.388 . S
C443 C444 1.390 . S
C444 C443 1.390 . S
C444 C445 1.394 . S
C444 C450 1.465 . S
C445 C440 1.399 . S
C445 C444 1.394 . S
C445 C446 1.516 . S
C446 C445 1.516 . S
C446 C447 1.502 . S
C446 C448 1.561 . S
C446 C449 1.526 . S
C447 H431 0.959 . S
C447 H432 0.959 . S
C447 H433 0.961 . S
C447 C446 1.502 . S
C448 H434 0.960 . S
C448 H435 0.961 . S
C448 H436 0.959 . S
C448 C446 1.561 . S
C449 C446 1.526 . S
C449 C450 1.396 . S
C449 C454 1.390 . S
C450 C444 1.465 . S
C450 C449 1.396 . S
C450 C451 1.399 . S
C451 H437 0.929 . S
C451 C450 1.399 . S
C451 C452 1.385 . S
C452 H438 0.931 . S
C452 C451 1.385 . S
C452 C453 1.389 . S
C453 C452 1.389 . S
C453 C454 1.387 . S
C454 H439 0.930 . S
C454 C449 1.390 . S
C454 C453 1.387 . S
H455 C467 0.930 . S
H456 C469 0.930 . S
H457 C470 0.930 . S
H458 C474 0.959 . S
H459 C474 0.959 . S
H460 C474 0.961 . S
H461 C475 0.960 . S
H462 C475 0.961 . S
H463 C475 0.959 . S
H464 C478 0.929 . S
H465 C479 0.931 . S
H466 C481 0.930 . S
C467 H455 0.930 . S
C467 C468 1.399 . S
C467 C472 1.399 . S
C468 C467 1.399 . S
C468 C469 1.376 . S
C469 H456 0.930 . S
C469 C468 1.376 . S
C469 C470 1.388 . S
C470 H457 0.930 . S
C470 C469 1.388 . S
C470 C471 1.390 . S
C471 C470 1.390 . S
C471 C472 1.394 . S
C471 C477 1.465 . S
C472 C467 1.399 . S
C472 C471 1.394 . S
C472 C473 1.516 . S
C473 C472 1.516 . S
C473 C474 1.502 . S
C473 C475 1.561 . S
C473 C476 1.526 . S
C474 H458 0.959 . S
C474 H459 0.959 . S
C474 H460 0.961 . S
C474 C473 1.502 . S
C475 H461 0.960 . S
C475 H462 0.961 . S
C475 H463 0.959 . S
C475 C473 1.561 . S
C476 C473 1.526 . S
C476 C477 1.396 . S
C476 C481 1.390 . S
C477 C471 1.465 . S
C477 C476 1.396 . S
C477 C478 1.399 . S
C478 H464 0.929 . S
C478 C477 1.399 . S
C478 C479 1.385 . S
C479 H465 0.931 . S
C479 C478 1.385 . S
C479 C480 1.389 . S
C480 C479 1.389 . S
C480 C481 1.387 . S
C481 H466 0.930 . S
C481 C476 1.390 . S
C481 C480 1.387 . S
H482 C494 0.930 . S
H483 C496 0.930 . S
H484 C497 0.930 . S
H485 C501 0.959 . S
H486 C501 0.959 . S
H487 C501 0.961 1_455 S
H488 C502 0.960 . S
H489 C502 0.961 1_655 S
H490 C502 0.959 . S
H491 C505 0.929 . S
H492 C506 0.931 . S
H493 C508 0.930 . S
C494 H482 0.930 . S
C494 C495 1.399 . S
C494 C499 1.399 . S
C495 C494 1.399 . S
C495 C496 1.376 . S
C496 H483 0.930 . S
C496 C495 1.376 . S
C496 C497 1.388 . S
C497 H484 0.930 . S
C497 C496 1.388 . S
C497 C498 1.390 . S
C498 C497 1.390 . S
C498 C499 1.394 . S
C498 C504 1.465 1_455 S
C499 C494 1.399 . S
C499 C498 1.394 . S
C499 C500 1.516 1_455 S
C500 C499 1.516 1_655 S
C500 C501 1.502 . S
C500 C502 1.561 1_655 S
C500 C503 1.526 . S
C501 H485 0.959 . S
C501 H486 0.959 . S
C501 H487 0.961 1_655 S
C501 C500 1.502 . S
C502 H488 0.960 . S
C502 H489 0.961 1_455 S
C502 H490 0.959 . S
C502 C500 1.561 1_455 S
C503 C500 1.526 . S
C503 C504 1.396 . S
C503 C508 1.390 . S
C504 C498 1.465 1_655 S
C504 C503 1.396 . S
C504 C505 1.399 . S
C505 H491 0.929 . S
C505 C504 1.399 . S
C505 C506 1.385 . S
C506 H492 0.931 . S
C506 C505 1.385 . S
C506 C507 1.389 . S
C507 C506 1.389 . S
C507 C508 1.387 . S
C508 H493 0.930 . S
C508 C503 1.390 . S
C508 C507 1.387 . S
H509 C521 0.930 . S
H510 C523 0.930 . S
H511 C524 0.930 . S
H512 C528 0.959 . S
H513 C528 0.959 . S
H514 C528 0.961 1_455 S
H515 C529 0.960 . S
H516 C529 0.961 1_655 S
H517 C529 0.959 . S
H518 C532 0.929 . S
H519 C533 0.931 . S
H520 C535 0.930 . S
C521 H509 0.930 . S
C521 C522 1.399 . S
C521 C526 1.399 . S
C522 C521 1.399 . S
C522 C523 1.376 . S
C523 H510 0.930 . S
C523 C522 1.376 . S
C523 C524 1.388 . S
C524 H511 0.930 . S
C524 C523 1.388 . S
C524 C525 1.390 . S
C525 C524 1.390 . S
C525 C526 1.394 . S
C525 C531 1.465 1_455 S
C526 C521 1.399 . S
C526 C525 1.394 . S
C526 C527 1.516 1_455 S
C527 C526 1.516 1_655 S
C527 C528 1.502 . S
C527 C529 1.561 1_655 S
C527 C530 1.526 . S
C528 H512 0.959 . S
C528 H513 0.959 . S
C528 H514 0.961 1_655 S
C528 C527 1.502 . S
C529 H515 0.960 . S
C529 H516 0.961 1_455 S
C529 H517 0.959 . S
C529 C527 1.561 1_455 S
C530 C527 1.526 . S
C530 C531 1.396 . S
C530 C535 1.390 . S
C531 C525 1.465 1_655 S
C531 C530 1.396 . S
C531 C532 1.399 . S
C532 H518 0.929 . S
C532 C531 1.399 . S
C532 C533 1.385 . S
C533 H519 0.931 . S
C533 C532 1.385 . S
C533 C534 1.389 . S
C534 C533 1.389 . S
C534 C535 1.387 . S
C535 H520 0.930 . S
C535 C530 1.390 . S
C535 C534 1.387 . S
C117 C4 1.856 . S
C129 C30 1.828 . S
C144 C49 1.828 . S
C156 C17 1.856 . S
C171 C82 1.830 . S
C183 C56 1.855 . S
C198 C69 1.853 . S
C210 C95 1.828 . S
C225 C23 1.249 . S
C237 C43 1.223 . S
C252 C10 1.238 . S
C264 C36 1.235 . S
C279 C101 1.253 . S
C291 C75 1.218 . S
C306 C62 1.246 . S
C318 C88 1.215 . S
C333 C68 1.515 . S
C345 C44 1.530 . S
C360 C29 1.529 . S
C372 C55 1.512 . S
C387 C16 1.515 . S
C399 C94 1.530 . S
C414 C3 1.515 . S
C426 C81 1.530 . S
C441 C5 1.538 . S
C453 C18 1.535 . S
C468 C31 1.536 . S
C480 C42 1.536 . S
C495 C70 1.536 . S
C507 C57 1.535 . S
C522 C83 1.552 . S
C534 C96 1.553 . S
