# Generated by pormake.
# Topology wft, (7)-cn, num edge types: 1
# Building blocks:
#     Node 0, Type 0, BuildingBlock: HICVOG_clean_sbu_0, # of connection points: 7
#     Node 1, Type 0, BuildingBlock: HICVOG_clean_sbu_0, # of connection points: 7
#     Node 2, Type 0, BuildingBlock: HICVOG_clean_sbu_0, # of connection points: 7
#     Node 3, Type 0, BuildingBlock: HICVOG_clean_sbu_0, # of connection points: 7
#     Node 4, Type 0, BuildingBlock: HICVOG_clean_sbu_0, # of connection points: 7
#     Node 5, Type 0, BuildingBlock: HICVOG_clean_sbu_0, # of connection points: 7
#     Node 6, Type 0, BuildingBlock: HICVOG_clean_sbu_0, # of connection points: 7
#     Node 7, Type 0, BuildingBlock: HICVOG_clean_sbu_0, # of connection points: 7
#     Edge 8, Type (0, 0), BuildingBlock: UVAHIK_clean_linker_0, # of connection points: 2
#     Edge 9, Type (0, 0), BuildingBlock: UVAHIK_clean_linker_0, # of connection points: 2
#     Edge 10, Type (0, 0), BuildingBlock: UVAHIK_clean_linker_0, # of connection points: 2
#     Edge 11, Type (0, 0), BuildingBlock: UVAHIK_clean_linker_0, # of connection points: 2
#     Edge 12, Type (0, 0), BuildingBlock: UVAHIK_clean_linker_0, # of connection points: 2
#     Edge 13, Type (0, 0), BuildingBlock: UVAHIK_clean_linker_0, # of connection points: 2
#     Edge 14, Type (0, 0), BuildingBlock: UVAHIK_clean_linker_0, # of connection points: 2
#     Edge 15, Type (0, 0), BuildingBlock: UVAHIK_clean_linker_0, # of connection points: 2
#     Edge 16, Type (0, 0), BuildingBlock: UVAHIK_clean_linker_0, # of connection points: 2
#     Edge 17, Type (0, 0), BuildingBlock: UVAHIK_clean_linker_0, # of connection points: 2
#     Edge 18, Type (0, 0), BuildingBlock: UVAHIK_clean_linker_0, # of connection points: 2
#     Edge 19, Type (0, 0), BuildingBlock: UVAHIK_clean_linker_0, # of connection points: 2
#     Edge 20, Type (0, 0), BuildingBlock: UVAHIK_clean_linker_0, # of connection points: 2
#     Edge 21, Type (0, 0), BuildingBlock: UVAHIK_clean_linker_0, # of connection points: 2
#     Edge 22, Type (0, 0), BuildingBlock: UVAHIK_clean_linker_0, # of connection points: 2
#     Edge 23, Type (0, 0), BuildingBlock: UVAHIK_clean_linker_0, # of connection points: 2
#     Edge 24, Type (0, 0), BuildingBlock: UVAHIK_clean_linker_0, # of connection points: 2
#     Edge 25, Type (0, 0), BuildingBlock: UVAHIK_clean_linker_0, # of connection points: 2
#     Edge 26, Type (0, 0), BuildingBlock: UVAHIK_clean_linker_0, # of connection points: 2
#     Edge 27, Type (0, 0), BuildingBlock: UVAHIK_clean_linker_0, # of connection points: 2
#     Edge 28, Type (0, 0), BuildingBlock: UVAHIK_clean_linker_0, # of connection points: 2
#     Edge 29, Type (0, 0), BuildingBlock: UVAHIK_clean_linker_0, # of connection points: 2
#     Edge 30, Type (0, 0), BuildingBlock: UVAHIK_clean_linker_0, # of connection points: 2
#     Edge 31, Type (0, 0), BuildingBlock: UVAHIK_clean_linker_0, # of connection points: 2
#     Edge 32, Type (0, 0), BuildingBlock: UVAHIK_clean_linker_0, # of connection points: 2
#     Edge 33, Type (0, 0), BuildingBlock: UVAHIK_clean_linker_0, # of connection points: 2
#     Edge 34, Type (0, 0), BuildingBlock: UVAHIK_clean_linker_0, # of connection points: 2
#     Edge 35, Type (0, 0), BuildingBlock: UVAHIK_clean_linker_0, # of connection points: 2
# Relax obj value: 0.189
# Max RMSD: 0.215
# Mean RMSD: 0.215
data_MOF--net-wft--node1-HICVOG_clean_sbu_0--edge1-UVAHIK_clean_linker_0
_symmetry_space_group_name_H-M    P1
_symmetry_Int_Tables_number       1
_symmetry_cell_setting            triclinic
loop_
_symmetry_equiv_pos_as_xyz
'x, y, z'
_cell_length_a     40.606486
_cell_length_b     40.633687
_cell_length_c     38.270324
_cell_angle_alpha  89.912853
_cell_angle_beta   89.951546
_cell_angle_gamma 90.01295
loop_
_atom_site_label
_atom_site_type_symbol
_atom_site_fract_x
_atom_site_fract_y
_atom_site_fract_z
_atom_type_partial_charge
Zn0 Zn 0.33815 0.29968 0.34189 0.0
C1 C 0.34341 0.27418 0.23959 0.0
N2 N 0.31096 0.28073 0.24012 0.0
C3 C 0.30533 0.28738 0.27396 0.0
N4 N 0.33328 0.2855 0.29322 0.0
N5 N 0.35722 0.27648 0.27152 0.0
C6 C 0.45432 0.2798 0.24451 0.0
O7 O 0.44571 0.30793 0.25871 0.0
O8 O 0.3153 0.26925 0.37666 0.0
Zn9 Zn 0.39851 0.25534 0.28508 0.0
N10 N 0.32162 0.34451 0.34638 0.0
C11 C 0.30182 0.39388 0.32022 0.0
C12 C 0.31112 0.36106 0.31754 0.0
C13 C 0.32444 0.36012 0.37775 0.0
N14 N 0.30486 0.40945 0.35132 0.0
C15 C 0.31622 0.39373 0.38035 0.0
O16 O 0.42061 0.27476 0.32733 0.0
C17 C 0.41403 0.29254 0.35369 0.0
O18 O 0.38493 0.30262 0.35961 0.0
H19 H 0.31096 0.34945 0.2923 0.0
H20 H 0.33457 0.34681 0.39975 0.0
C21 C 0.41121 0.18653 0.29207 0.0
C22 C 0.40308 0.15342 0.29852 0.0
C23 C 0.34819 0.1696 0.31145 0.0
C24 C 0.3563 0.20224 0.30456 0.0
N25 N 0.38764 0.21009 0.29522 0.0
N26 N 0.37165 0.14605 0.30827 0.0
H27 H 0.43595 0.19381 0.28502 0.0
C28 C 0.33202 0.24505 0.38827 0.0
O29 O 0.36118 0.23935 0.37472 0.0
O30 O 0.43566 0.25488 0.24873 0.0
H31 H 0.33775 0.22113 0.30687 0.0
H32 H 0.29323 0.40722 0.29751 0.0
H33 H 0.32342 0.16298 0.31918 0.0
Zn34 Zn 0.25967 0.63237 0.72397 0.0
C35 C 0.27382 0.73106 0.73274 0.0
N36 N 0.26658 0.72549 0.7665 0.0
C37 C 0.26357 0.69255 0.76782 0.0
N38 N 0.26901 0.67832 0.7365 0.0
N39 N 0.27602 0.70262 0.71432 0.0
C40 C 0.23671 0.72083 0.62533 0.0
O41 O 0.21782 0.71117 0.65123 0.0
O42 O 0.25615 0.59787 0.76316 0.0
Zn43 Zn 0.29508 0.69799 0.66721 0.0
N44 N 0.21775 0.63121 0.70055 0.0
C45 C 0.18732 0.63809 0.64805 0.0
C46 C 0.21676 0.64039 0.66646 0.0
C47 C 0.19067 0.61884 0.7169 0.0
N48 N 0.16035 0.62553 0.66418 0.0
C49 C 0.16108 0.61539 0.69813 0.0
O50 O 0.30472 0.65135 0.65149 0.0
C51 C 0.30439 0.62138 0.66115 0.0
O52 O 0.29084 0.61254 0.68952 0.0
H53 H 0.23872 0.64936 0.65369 0.0
H54 H 0.19252 0.61147 0.74398 0.0
C55 C 0.3555 0.71736 0.63542 0.0
C56 C 0.38771 0.73006 0.63393 0.0
C57 C 0.38412 0.74378 0.69407 0.0
C58 C 0.35267 0.73013 0.69566 0.0
N59 N 0.33853 0.71809 0.66614 0.0
N60 N 0.40088 0.7434 0.66338 0.0
H61 H 0.34402 0.70674 0.61255 0.0
C62 C 0.27965 0.57756 0.76815 0.0
O63 O 0.30852 0.584 0.75419 0.0
O64 O 0.26786 0.71884 0.62831 0.0
H65 H 0.34001 0.72867 0.72037 0.0
H66 H 0.18603 0.64565 0.62097 0.0
H67 H 0.39543 0.75396 0.71725 0.0
Zn68 Zn 0.63615 0.78136 0.29503 0.0
C69 C 0.73503 0.77101 0.28681 0.0
N70 N 0.72971 0.77977 0.25342 0.0
C71 C 0.69666 0.78112 0.25155 0.0
N72 N 0.68218 0.77327 0.28222 0.0
N73 N 0.7064 0.76654 0.30451 0.0
C74 C 0.72678 0.8017 0.3928 0.0
O75 O 0.7172 0.82057 0.36687 0.0
O76 O 0.60171 0.78599 0.25598 0.0
Zn77 Zn 0.70151 0.74563 0.35061 0.0
N78 N 0.63493 0.82249 0.32001 0.0
C79 C 0.64352 0.85196 0.37281 0.0
C80 C 0.64556 0.82298 0.35361 0.0
C81 C 0.62155 0.84967 0.3049 0.0
N82 N 0.62985 0.87901 0.35794 0.0
C83 C 0.61837 0.87878 0.3245 0.0
O84 O 0.65462 0.7374 0.36771 0.0
C85 C 0.62475 0.73706 0.35762 0.0
O86 O 0.61629 0.74906 0.32833 0.0
H87 H 0.65552 0.80102 0.3654 0.0
H88 H 0.61327 0.84829 0.27811 0.0
C89 C 0.71948 0.68252 0.37734 0.0
C90 C 0.72873 0.64918 0.37508 0.0
C91 C 0.73858 0.65626 0.31432 0.0
C92 C 0.72833 0.68886 0.31655 0.0
N93 N 0.71959 0.70157 0.34804 0.0
N94 N 0.73825 0.63719 0.34343 0.0
H95 H 0.7106 0.69294 0.40157 0.0
C96 C 0.58301 0.76208 0.24747 0.0
O97 O 0.59063 0.73231 0.25818 0.0
O98 O 0.72427 0.7706 0.38994 0.0
H99 H 0.72641 0.70353 0.29313 0.0
H100 H 0.65217 0.85282 0.39952 0.0
H101 H 0.74581 0.64587 0.28946 0.0
Zn102 Zn 0.78067 0.40225 0.71805 0.0
C103 C 0.76845 0.3032 0.72653 0.0
N104 N 0.7775 0.30857 0.75977 0.0
C105 C 0.77976 0.34156 0.76126 0.0
N106 N 0.77218 0.356 0.73049 0.0
N107 N 0.76486 0.33171 0.70848 0.0
C108 C 0.80124 0.3118 0.61875 0.0
O109 O 0.82041 0.32182 0.6442 0.0
O110 O 0.78276 0.43669 0.75733 0.0
Zn111 Zn 0.7447 0.33573 0.66198 0.0
N112 N 0.82326 0.40375 0.69605 0.0
C113 C 0.85554 0.39531 0.64506 0.0
C114 C 0.82554 0.39321 0.66251 0.0
C115 C 0.84955 0.41722 0.71275 0.0
N116 N 0.88175 0.40898 0.66152 0.0
C117 C 0.8797 0.42045 0.6949 0.0
O118 O 0.73705 0.38226 0.64508 0.0
C119 C 0.73785 0.41249 0.65359 0.0
O120 O 0.7506 0.4219 0.68215 0.0
H121 H 0.80412 0.38347 0.64942 0.0
H122 H 0.84669 0.42551 0.7394 0.0
C123 C 0.68231 0.31616 0.63387 0.0
C124 C 0.64894 0.30681 0.63559 0.0
C125 C 0.65427 0.29974 0.69698 0.0
C126 C 0.68693 0.30999 0.69523 0.0
N127 N 0.70051 0.31753 0.66375 0.0
N128 N 0.63604 0.2987 0.66732 0.0
H129 H 0.69338 0.32391 0.60948 0.0
C130 C 0.75879 0.4562 0.76327 0.0
O131 O 0.72993 0.4495 0.74953 0.0
O132 O 0.77012 0.31336 0.62251 0.0
H133 H 0.70097 0.31281 0.71895 0.0
H134 H 0.85786 0.38673 0.61843 0.0
H135 H 0.64318 0.29354 0.72184 0.0
Zn136 Zn 0.90278 0.2829 0.21624 0.0
C137 C 0.80405 0.27042 0.22708 0.0
N138 N 0.80963 0.28064 0.25989 0.0
C139 C 0.84268 0.28278 0.26117 0.0
N140 N 0.85695 0.27421 0.23058 0.0
N141 N 0.83249 0.26607 0.20907 0.0
C142 C 0.81041 0.30017 0.11908 0.0
O143 O 0.81747 0.32007 0.145 0.0
O144 O 0.93795 0.29014 0.25416 0.0
Zn145 Zn 0.83671 0.24465 0.1632 0.0
N146 N 0.90243 0.32249 0.18832 0.0
C147 C 0.89015 0.3476 0.13376 0.0
C148 C 0.88943 0.32035 0.15576 0.0
C149 C 0.91684 0.35073 0.19972 0.0
N150 N 0.90445 0.37577 0.14502 0.0
C151 C 0.91804 0.37836 0.17745 0.0
O152 O 0.88335 0.23509 0.14752 0.0
C153 C 0.91349 0.23535 0.15655 0.0
O154 O 0.92288 0.24926 0.18451 0.0
H155 H 0.87874 0.29758 0.14692 0.0
H156 H 0.9282 0.35098 0.22524 0.0
C157 C 0.81757 0.18214 0.13621 0.0
C158 C 0.80864 0.1487 0.13829 0.0
C159 C 0.80018 0.15488 0.19939 0.0
C160 C 0.81017 0.1876 0.19731 0.0
N161 N 0.81807 0.20079 0.16577 0.0
N162 N 0.79998 0.13619 0.17004 0.0
H163 H 0.82587 0.19291 0.11188 0.0
C164 C 0.95662 0.26669 0.26412 0.0
O165 O 0.94865 0.23638 0.25571 0.0
O166 O 0.81496 0.26936 0.12275 0.0
H167 H 0.81267 0.20197 0.22084 0.0
H168 H 0.87983 0.34627 0.10775 0.0
H169 H 0.79366 0.14408 0.2243 0.0
Zn170 Zn 0.27673 0.13347 0.77836 0.0
C171 C 0.25111 0.22976 0.77335 0.0
N172 N 0.25488 0.22566 0.7388 0.0
C173 C 0.26011 0.19307 0.73589 0.0
N174 N 0.25982 0.17769 0.76723 0.0
N175 N 0.25329 0.2008 0.79089 0.0
C176 C 0.28801 0.22743 0.88479 0.0
O177 O 0.30447 0.23999 0.85847 0.0
O178 O 0.28076 0.09932 0.73922 0.0
Zn179 Zn 0.23599 0.19257 0.83827 0.0
N180 N 0.32006 0.13983 0.79752 0.0
C181 C 0.35521 0.16871 0.83649 0.0
C182 C 0.32432 0.16397 0.82158 0.0
C183 C 0.34531 0.11981 0.788 0.0
N184 N 0.3804 0.14857 0.82727 0.0
C185 C 0.37643 0.12389 0.80356 0.0
O186 O 0.23117 0.14494 0.85176 0.0
C187 C 0.23645 0.11533 0.84289 0.0
O188 O 0.25193 0.10853 0.81506 0.0
H189 H 0.3038 0.17917 0.82925 0.0
H190 H 0.34093 0.10104 0.76859 0.0
C191 C 0.17399 0.20838 0.87076 0.0
C192 C 0.13987 0.21476 0.87072 0.0
C193 C 0.14162 0.22083 0.809 0.0
C194 C 0.17497 0.21317 0.80908 0.0
N195 N 0.19076 0.20789 0.8399 0.0
N196 N 0.12487 0.22112 0.83962 0.0
H197 H 0.1868 0.20199 0.8946 0.0
C198 C 0.25668 0.08024 0.73242 0.0
O199 O 0.22736 0.08784 0.74449 0.0
O200 O 0.26214 0.21057 0.87929 0.0
H201 H 0.18788 0.21061 0.78459 0.0
H202 H 0.35906 0.18793 0.85559 0.0
H203 H 0.12885 0.22543 0.78468 0.0
Zn204 Zn 0.20157 0.7975 0.16895 0.0
C205 C 0.19724 0.77109 0.27147 0.0
N206 N 0.22997 0.77593 0.27017 0.0
C207 C 0.23513 0.78314 0.23634 0.0
N208 N 0.20669 0.78315 0.21778 0.0
N209 N 0.18278 0.77511 0.24003 0.0
C210 C 0.0846 0.78157 0.26909 0.0
O211 O 0.09284 0.8097 0.25455 0.0
O212 O 0.22229 0.76611 0.13341 0.0
Zn213 Zn 0.13976 0.75704 0.22738 0.0
N214 N 0.22051 0.84122 0.16343 0.0
C215 C 0.24213 0.89028 0.18843 0.0
C216 C 0.23143 0.85791 0.19194 0.0
C217 C 0.21884 0.85617 0.13156 0.0
N218 N 0.2401 0.90527 0.15685 0.0
C219 C 0.2285 0.88933 0.12811 0.0
O220 O 0.11784 0.77915 0.18681 0.0
C221 C 0.12493 0.79623 0.16007 0.0
O222 O 0.15456 0.80367 0.15279 0.0
H223 H 0.23085 0.84675 0.21747 0.0
H224 H 0.20843 0.84284 0.10975 0.0
C225 C 0.12331 0.68924 0.21993 0.0
C226 C 0.12886 0.65613 0.21101 0.0
C227 C 0.18275 0.67034 0.19193 0.0
C228 C 0.17701 0.70306 0.2007 0.0
N229 N 0.14744 0.71185 0.21447 0.0
N230 N 0.15867 0.64773 0.19729 0.0
H231 H 0.10041 0.69713 0.23164 0.0
C232 C 0.20348 0.7453 0.11852 0.0
O233 O 0.17294 0.74252 0.12942 0.0
O234 O 0.10341 0.75676 0.2648 0.0
H235 H 0.196 0.72126 0.19659 0.0
H236 H 0.25101 0.90376 0.21089 0.0
H237 H 0.20615 0.66292 0.18093 0.0
Zn238 Zn 0.75398 0.901 0.79336 0.0
C239 C 0.77581 0.80488 0.78162 0.0
N240 N 0.76709 0.81056 0.74832 0.0
C241 C 0.7633 0.84343 0.74753 0.0
N242 N 0.76949 0.85748 0.77878 0.0
N243 N 0.77785 0.83314 0.80032 0.0
C244 C 0.76433 0.79212 0.90116 0.0
O245 O 0.78462 0.76865 0.8915 0.0
O246 O 0.74997 0.93698 0.75584 0.0
Zn247 Zn 0.79547 0.83769 0.84798 0.0
N248 N 0.71089 0.89389 0.81301 0.0
C249 C 0.6764 0.86268 0.85077 0.0
C250 C 0.70704 0.86841 0.83565 0.0
C251 C 0.68533 0.91406 0.80482 0.0
N252 N 0.65083 0.88277 0.84266 0.0
C253 C 0.65423 0.9084 0.81994 0.0
O254 O 0.80301 0.88434 0.86432 0.0
C255 C 0.79735 0.91441 0.85743 0.0
O256 O 0.78029 0.92272 0.8311 0.0
H257 H 0.72769 0.85283 0.84201 0.0
H258 H 0.68957 0.93459 0.78739 0.0
C259 C 0.85617 0.8171 0.88062 0.0
C260 C 0.88951 0.80741 0.88038 0.0
C261 C 0.88616 0.79882 0.81912 0.0
C262 C 0.85378 0.80989 0.81928 0.0
N263 N 0.83906 0.81803 0.84999 0.0
N264 N 0.9033 0.79821 0.84945 0.0
H265 H 0.84448 0.82571 0.90432 0.0
C266 C 0.77467 0.95487 0.74784 0.0
O267 O 0.80401 0.94599 0.75878 0.0
O268 O 0.76497 0.8197 0.88544 0.0
H269 H 0.84101 0.81315 0.79487 0.0
H270 H 0.67296 0.84254 0.86894 0.0
H271 H 0.89802 0.79198 0.79487 0.0
C272 C 0.3515 0.22987 0.19668 0.0
C273 C 0.35931 0.26175 0.20782 0.0
C274 C 0.35316 0.22179 0.16124 0.0
C275 C 0.37651 0.24965 0.07211 0.0
H276 H 0.28892 0.21865 0.04894 0.0
C277 C 0.3235 0.25426 0.93063 0.0
C278 C 0.30106 0.22961 0.92087 0.0
C279 C 0.33515 0.25605 0.96511 0.0
C280 C 0.31378 0.22661 0.05465 0.0
H281 H 0.37761 0.30936 0.19169 0.0
H282 H 0.38107 0.29519 0.12963 0.0
H283 H 0.30524 0.22264 0.10954 0.0
H284 H 0.27455 0.18653 0.93913 0.0
H285 H 0.29563 0.18876 0.99824 0.0
H286 H 0.38497 0.25356 0.01692 0.0
C287 C 0.37389 0.27631 0.14814 0.0
C288 C 0.32314 0.22892 0.0896 0.0
C289 C 0.37214 0.28438 0.18367 0.0
C290 C 0.2913 0.20627 0.94593 0.0
C291 C 0.30335 0.20766 0.98002 0.0
C292 C 0.36728 0.24686 0.03688 0.0
C293 C 0.36244 0.24559 0.13637 0.0
C294 C 0.35452 0.24055 0.09883 0.0
C295 C 0.32498 0.23289 0.99038 0.0
C296 C 0.33567 0.23541 0.02768 0.0
H297 H 0.34101 0.21224 0.21484 0.0
H298 H 0.34463 0.19777 0.15297 0.0
H299 H 0.4008 0.25886 0.07848 0.0
H300 H 0.33153 0.27254 0.91184 0.0
H301 H 0.35149 0.27604 0.97206 0.0
C302 C 0.18987 0.71304 0.06488 0.0
C303 C 0.21379 0.72791 0.08619 0.0
C304 C 0.19829 0.69978 0.03243 0.0
C305 C 0.26377 0.70515 0.96446 0.0
H306 H 0.21063 0.63758 0.9204 0.0
C307 C 0.28653 0.66921 0.82205 0.0
C308 C 0.25878 0.67546 0.80129 0.0
C309 C 0.28337 0.66586 0.8583 0.0
C310 C 0.22582 0.6563 0.93249 0.0
H311 H 0.26579 0.73888 0.09084 0.0
H312 H 0.28093 0.71442 0.03479 0.0
H313 H 0.2024 0.65028 0.98215 0.0
H314 H 0.20586 0.68106 0.80139 0.0
H315 H 0.20001 0.67388 0.86469 0.0
H316 H 0.28723 0.71091 0.9147 0.0
C317 C 0.25531 0.71401 0.04257 0.0
C318 C 0.22096 0.66387 0.96784 0.0
C319 C 0.24672 0.72783 0.07492 0.0
C320 C 0.22749 0.67538 0.81683 0.0
C321 C 0.22422 0.67152 0.85306 0.0
C322 C 0.26903 0.69711 0.92937 0.0
C323 C 0.23107 0.70043 0.02043 0.0
C324 C 0.23922 0.68911 0.98415 0.0
C325 C 0.25231 0.66847 0.87433 0.0
C326 C 0.24962 0.67315 0.91277 0.0
H327 H 0.16419 0.71278 0.07257 0.0
H328 H 0.17867 0.69027 0.01621 0.0
H329 H 0.27801 0.72508 0.97553 0.0
H330 H 0.31097 0.66999 0.81068 0.0
H331 H 0.3054 0.66335 0.87403 0.0
C332 C 0.73232 0.81667 0.9506 0.0
C333 C 0.74411 0.78854 0.9333 0.0
C334 C 0.71646 0.81405 0.98291 0.0
C335 C 0.70788 0.75601 0.05809 0.0
H336 H 0.65016 0.82483 0.09238 0.0
C337 C 0.66634 0.7578 0.20124 0.0
C338 C 0.67999 0.78543 0.21776 0.0
C339 C 0.66307 0.75713 0.16478 0.0
C340 C 0.66592 0.80523 0.083 0.0
H341 H 0.74665 0.73536 0.93544 0.0
H342 H 0.71747 0.73048 0.99098 0.0
H343 H 0.6656 0.82382 0.03072 0.0
H344 H 0.69833 0.83484 0.20993 0.0
H345 H 0.69095 0.83442 0.14653 0.0
H346 H 0.7079 0.73748 0.11053 0.0
C347 C 0.72164 0.75483 0.98037 0.0
C348 C 0.67519 0.8048 0.04771 0.0
C349 C 0.73817 0.75753 0.94829 0.0
C350 C 0.68707 0.81355 0.1978 0.0
C351 C 0.68305 0.81319 0.16151 0.0
C352 C 0.698 0.75605 0.09312 0.0
C353 C 0.71124 0.78312 0.99867 0.0
C354 C 0.69726 0.78082 0.03492 0.0
C355 C 0.67277 0.78435 0.14449 0.0
C356 C 0.67769 0.78117 0.10617 0.0
H357 H 0.7366 0.84102 0.93992 0.0
H358 H 0.7096 0.83657 0.99609 0.0
H359 H 0.72525 0.73739 0.04982 0.0
H360 H 0.66144 0.73558 0.21604 0.0
H361 H 0.65506 0.73461 0.15228 0.0
C362 C 0.76086 0.37442 0.81211 0.0
C363 C 0.78656 0.35833 0.79454 0.0
C364 C 0.76234 0.37884 0.84843 0.0
C365 C 0.76127 0.34994 0.92262 0.0
H366 H 0.83844 0.37156 0.97762 0.0
C367 C 0.78959 0.29298 0.05779 0.0
C368 C 0.80179 0.31369 0.08418 0.0
C369 C 0.78465 0.30494 0.02387 0.0
C370 C 0.81654 0.36581 0.9627 0.0
H371 H 0.83479 0.3365 0.80023 0.0
H372 H 0.83812 0.34544 0.86318 0.0
H373 H 0.83736 0.38467 0.91512 0.0
H374 H 0.81761 0.36352 0.09569 0.0
H375 H 0.80962 0.38414 0.03619 0.0
H376 H 0.74111 0.32958 0.96975 0.0
C377 C 0.81677 0.35456 0.84925 0.0
C378 C 0.81597 0.37322 0.92692 0.0
C379 C 0.81499 0.34959 0.81316 0.0
C380 C 0.80812 0.34689 0.07602 0.0
C381 C 0.80373 0.3587 0.04192 0.0
C382 C 0.76205 0.34207 0.95823 0.0
C383 C 0.78976 0.36764 0.86755 0.0
C384 C 0.78855 0.36486 0.90635 0.0
C385 C 0.79226 0.33776 0.01538 0.0
C386 C 0.78992 0.34936 0.97854 0.0
H387 H 0.73838 0.38069 0.79839 0.0
H388 H 0.74124 0.38918 0.86182 0.0
H389 H 0.73995 0.34278 0.90743 0.0
H390 H 0.78446 0.2673 0.06317 0.0
H391 H 0.77602 0.28812 1.00393 0.0
C392 C 0.87693 0.26526 0.31167 0.0
C393 C 0.8596 0.29024 0.29425 0.0
C394 C 0.88156 0.26688 0.34797 0.0
C395 C 0.85388 0.26429 0.42259 0.0
H396 H 0.87069 0.34288 0.47709 0.0
C397 C 0.79588 0.28882 0.5581 0.0
C398 C 0.81546 0.30346 0.58408 0.0
C399 C 0.80812 0.28435 0.52421 0.0
C400 C 0.86631 0.32058 0.46234 0.0
H401 H 0.8358 0.33748 0.30021 0.0
H402 H 0.84502 0.34108 0.36305 0.0
H403 H 0.88363 0.34238 0.41461 0.0
H404 H 0.86366 0.3241 0.59491 0.0
H405 H 0.88479 0.31671 0.53558 0.0
H406 H 0.83516 0.243 0.46993 0.0
C407 C 0.85497 0.32017 0.34904 0.0
C408 C 0.87361 0.32035 0.42654 0.0
C409 C 0.84983 0.31824 0.31299 0.0
C410 C 0.84792 0.31265 0.57559 0.0
C411 C 0.85999 0.30863 0.54154 0.0
C412 C 0.84617 0.26468 0.45826 0.0
C413 C 0.86932 0.29374 0.36724 0.0
C414 C 0.86691 0.29241 0.40609 0.0
C415 C 0.84009 0.29481 0.51534 0.0
C416 C 0.85169 0.29304 0.47842 0.0
H417 H 0.884 0.24308 0.29789 0.0
H418 H 0.89293 0.24624 0.36124 0.0
H419 H 0.84801 0.24251 0.40754 0.0
H420 H 0.77077 0.28149 0.56372 0.0
H421 H 0.79206 0.27388 0.50457 0.0
C422 C 0.23994 0.18479 0.67608 0.0
C423 C 0.26383 0.17762 0.70138 0.0
C424 C 0.24635 0.17972 0.64073 0.0
C425 C 0.3176 0.17991 0.58166 0.0
H426 H 0.24941 0.17007 0.5115 0.0
C427 C 0.34321 0.20399 0.43562 0.0
C428 C 0.3215 0.22658 0.41987 0.0
C429 C 0.33564 0.18963 0.46785 0.0
C430 C 0.26872 0.17279 0.53079 0.0
H431 H 0.31249 0.15774 0.71014 0.0
H432 H 0.32374 0.14786 0.6479 0.0
H433 H 0.23762 0.15595 0.57229 0.0
H434 H 0.27393 0.25032 0.42486 0.0
H435 H 0.26052 0.22486 0.48111 0.0
H436 H 0.34852 0.19711 0.54013 0.0
C437 C 0.30004 0.15781 0.65538 0.0
C438 C 0.26201 0.16474 0.56567 0.0
C439 C 0.2935 0.16294 0.69104 0.0
C440 C 0.29121 0.23309 0.43628 0.0
C441 C 0.28349 0.21841 0.46844 0.0
C442 C 0.32441 0.18753 0.54673 0.0
C443 C 0.27702 0.16748 0.62968 0.0
C444 C 0.28602 0.16928 0.59183 0.0
C445 C 0.30601 0.19716 0.48498 0.0
C446 C 0.29976 0.185 0.52108 0.0
H447 H 0.21703 0.19657 0.68351 0.0
H448 H 0.2281 0.18793 0.62205 0.0
H449 H 0.33662 0.18426 0.60092 0.0
H450 H 0.3667 0.19821 0.42368 0.0
H451 H 0.35331 0.17308 0.47974 0.0
C452 C 0.19146 0.73259 0.32108 0.0
C453 C 0.18079 0.76123 0.30406 0.0
C454 C 0.18542 0.72808 0.35672 0.0
C455 C 0.16463 0.72208 0.43332 0.0
H456 H 0.19938 0.79788 0.48258 0.0
C457 C 0.18969 0.72128 0.58274 0.0
C458 C 0.22206 0.73055 0.59137 0.0
C459 C 0.17723 0.72711 0.54916 0.0
C460 C 0.18933 0.77663 0.46925 0.0
H461 H 0.154 0.80684 0.31002 0.0
H462 H 0.14354 0.7992 0.37271 0.0
H463 H 0.18731 0.80195 0.42021 0.0
H464 H 0.26617 0.75452 0.57203 0.0
H465 H 0.2442 0.76531 0.51378 0.0
H466 H 0.16787 0.69643 0.48222 0.0
C467 C 0.15628 0.78004 0.35843 0.0
C468 C 0.18209 0.77904 0.43361 0.0
C469 C 0.16188 0.78425 0.32254 0.0
C470 C 0.24117 0.74703 0.5662 0.0
C471 C 0.22853 0.75336 0.53288 0.0
C472 C 0.17145 0.71981 0.46912 0.0
C473 C 0.16922 0.75255 0.37616 0.0
C474 C 0.17056 0.75152 0.415 0.0
C475 C 0.19666 0.74292 0.52376 0.0
C476 C 0.18481 0.74678 0.48722 0.0
H477 H 0.20664 0.71484 0.3074 0.0
H478 H 0.19596 0.70679 0.36959 0.0
H479 H 0.15575 0.70049 0.41969 0.0
H480 H 0.17437 0.70844 0.60151 0.0
H481 H 0.15254 0.71894 0.54291 0.0
C482 C 0.72651 0.8505 0.69674 0.0
C483 C 0.75472 0.86057 0.71493 0.0
C484 C 0.72365 0.85627 0.66086 0.0
C485 C 0.72171 0.87592 0.58363 0.0
H486 H 0.79879 0.8384 0.5389 0.0
C487 C 0.72711 0.8491 0.43481 0.0
C488 C 0.73584 0.81643 0.42692 0.0
C489 C 0.73182 0.86171 0.46849 0.0
C490 C 0.77721 0.8492 0.55095 0.0
H491 H 0.80124 0.88615 0.71067 0.0
H492 H 0.79646 0.89619 0.64762 0.0
H493 H 0.80027 0.85138 0.60119 0.0
H494 H 0.7578 0.77193 0.4478 0.0
H495 H 0.76669 0.79418 0.50629 0.0
H496 H 0.69829 0.87257 0.53355 0.0
C497 C 0.77637 0.88413 0.66117 0.0
C498 C 0.77814 0.85698 0.58655 0.0
C499 C 0.77891 0.87882 0.69729 0.0
C500 C 0.75078 0.79717 0.45301 0.0
C501 C 0.75599 0.80997 0.48648 0.0
C502 C 0.72093 0.86858 0.54789 0.0
C503 C 0.74937 0.87159 0.64235 0.0
C504 C 0.75011 0.86956 0.60352 0.0
C505 C 0.74595 0.84214 0.49481 0.0
C506 C 0.74837 0.85424 0.5314 0.0
H507 H 0.70789 0.83578 0.70972 0.0
H508 H 0.70268 0.84607 0.64716 0.0
H509 H 0.69974 0.88559 0.59599 0.0
H510 H 0.71546 0.86458 0.41535 0.0
H511 H 0.72402 0.88664 0.47409 0.0
C512 C 0.45439 0.12841 0.27219 0.0
C513 C 0.42755 0.12645 0.29543 0.0
C514 C 0.47656 0.10222 0.26917 0.0
C515 C 0.48393 1.01301 0.28662 0.0
H516 H 0.57797 0.0296 0.2857 0.0
C517 C 0.5758 0.90589 0.28604 0.0
C518 C 0.60123 0.9084 0.31088 0.0
C519 C 0.55698 0.93343 0.27714 0.0
C520 C 0.55177 0.02459 0.28587 0.0
H521 H 0.40316 0.09538 0.33367 0.0
H522 H 0.44184 0.05007 0.32862 0.0
H523 H 0.53959 0.07587 0.28502 0.0
H524 H 0.62764 0.94226 0.34451 0.0
H525 H 0.59441 0.98996 0.32957 0.0
H526 H 0.4959 0.96191 0.28915 0.0
C527 C 0.44551 0.0716 0.31236 0.0
C528 C 0.5298 0.05107 0.28515 0.0
C529 C 0.42341 0.09769 0.31538 0.0
C530 C 0.60819 0.93939 0.3254 0.0
C531 C 0.58932 0.96687 0.31656 0.0
C532 C 0.50584 0.98659 0.28737 0.0
C533 C 0.47226 0.07349 0.28914 0.0
C534 C 0.49564 0.04556 0.28633 0.0
C535 C 0.56297 0.96404 0.29299 0.0
C536 C 0.54002 0.99207 0.28772 0.0
H537 H 0.45798 0.14977 0.25569 0.0
H538 H 0.49673 0.10423 0.25076 0.0
H539 H 0.45775 1.00794 0.28695 0.0
H540 H 0.56918 0.88246 0.27464 0.0
H541 H 0.53707 0.93052 0.25859 0.0
C542 C 0.90513 0.46272 0.73511 0.0
C543 C 0.90869 0.43739 0.7103 0.0
C544 C 0.93241 0.4812 0.74574 0.0
C545 C 0.02428 0.48493 0.74107 0.0
H546 H 1.00983 0.57921 0.73929 0.0
C547 C 0.13375 0.5747 0.73892 0.0
C548 C 0.13136 0.59936 0.71314 0.0
C549 C 0.10592 0.55668 0.74896 0.0
C550 C 1.0143 0.55294 0.73998 0.0
H551 H 0.94405 0.41087 0.67852 0.0
H552 H 0.99117 0.44341 0.69629 0.0
H553 H 0.96288 0.54209 0.73751 0.0
H554 H 0.09747 0.62535 0.67911 0.0
H555 H 0.04944 0.59359 0.69589 0.0
H556 H 0.07576 0.49574 0.74095 0.0
C557 C 0.96751 0.44871 0.70809 0.0
C558 C 0.98732 0.53161 0.73943 0.0
C559 C 0.94034 0.43022 0.69756 0.0
C560 C 0.10027 0.60648 0.69892 0.0
C561 C 0.07257 0.58844 0.70886 0.0
C562 C 0.05126 0.50626 0.74137 0.0
C563 C 0.96381 0.47492 0.73171 0.0
C564 C 0.99202 0.49732 0.73875 0.0
C565 C 0.07516 0.56276 0.73337 0.0
C566 C 0.04663 0.54052 0.73961 0.0
H567 H 0.88116 0.46947 0.74518 0.0
H568 H 0.92873 0.50102 0.76422 0.0
H569 H 0.02877 0.45866 0.74127 0.0
H570 H 0.15725 0.56803 0.75016 0.0
H571 H 0.10873 0.53729 0.76817 0.0
C572 C 0.94686 0.43017 0.16034 0.0
C573 C 0.93527 0.40935 0.18705 0.0
C574 C 0.96379 0.45902 0.16827 0.0
C575 C 1.01417 0.49722 0.23614 0.0
H576 H 1.00165 0.57507 0.17891 0.0
C577 C 0.11315 0.59725 0.21994 0.0
C578 C 0.10344 0.63025 0.21598 0.0
C579 C 0.08972 0.57221 0.2223 0.0
C580 C 1.00515 0.5538 0.19557 0.0
H581 H 0.93132 0.4038 0.24345 0.0
H582 H 0.96144 0.45405 0.25713 0.0
H583 H 0.96474 0.52835 0.17211 0.0
H584 H 0.06096 0.66261 0.2115 0.0
H585 H 0.02027 0.61902 0.21648 0.0
H586 H 0.05481 0.52264 0.25938 0.0
C587 C 0.95768 0.44754 0.22999 0.0
C588 C 0.98422 0.52686 0.19137 0.0
C589 C 0.94056 0.41859 0.22206 0.0
C590 C 0.06957 0.63765 0.21518 0.0
C591 C 0.04612 0.61256 0.21759 0.0
C592 C 0.03514 0.52421 0.24036 0.0
C593 C 0.96955 0.46799 0.20313 0.0
C594 C 0.98902 0.49798 0.21096 0.0
C595 C 0.05594 0.57952 0.22068 0.0
C596 C 0.03134 0.5525 0.21952 0.0
H597 H 0.94349 0.4239 0.13308 0.0
H598 H 0.97311 0.47391 0.14694 0.0
H599 H 0.01856 0.47527 0.25154 0.0
H600 H 0.13898 0.59063 0.22074 0.0
H601 H 0.09817 0.54699 0.22413 0.0
C602 C 0.39962 0.06883 0.7854 0.0
C603 C 0.40456 0.10162 0.79601 0.0
C604 C 0.42631 0.04743 0.78163 0.0
C605 C 0.51769 0.04412 0.77599 0.0
H606 H 0.50579 0.95778 0.8174 0.0
C607 C 0.622 0.94683 0.78086 0.0
C608 C 0.62549 0.92992 0.81278 0.0
C609 C 0.59455 0.96682 0.77479 0.0
C610 C 0.50954 0.98183 0.80581 0.0
H611 H 0.44171 0.13767 0.80999 0.0
H612 H 0.48803 0.10019 0.8042 0.0
H613 H 0.4591 0.99503 0.81312 0.0
H614 H 0.60268 0.92072 0.86315 0.0
H615 H 0.55518 0.95568 0.85268 0.0
H616 H 0.56853 0.03131 0.7701 0.0
C617 C 0.46358 0.09118 0.79818 0.0
C618 C 0.48266 1.00304 0.80291 0.0
C619 C 0.43694 0.1126 0.80185 0.0
C620 C 0.60074 0.93322 0.83822 0.0
C621 C 0.57339 0.95317 0.83216 0.0
C622 C 0.54463 0.02289 0.77894 0.0
C623 C 0.45854 0.05819 0.78862 0.0
C624 C 0.48651 0.03464 0.78848 0.0
C625 C 0.56995 0.9702 0.80039 0.0
C626 C 0.54095 0.99173 0.79448 0.0
H627 H 0.37515 0.05907 0.78127 0.0
H628 H 0.42162 0.02224 0.77389 0.0
H629 H 0.52138 0.06816 0.76437 0.0
H630 H 0.64007 0.94426 0.76025 0.0
H631 H 0.59236 0.97927 0.74985 0.0
C632 C 0.50599 0.3034 0.21841 0.0
C633 C 0.48835 0.27589 0.23051 0.0
C634 C 0.53958 0.301 0.21025 0.0
C635 C 0.60971 0.24033 0.19981 0.0
H636 H 0.66233 0.31735 0.22099 0.0
C637 C 0.75084 0.23964 0.22863 0.0
C638 C 0.77008 0.26498 0.21411 0.0
C639 C 0.71661 0.23888 0.22372 0.0
C640 C 0.648 0.29573 0.21448 0.0
H641 H 0.49221 0.22397 0.24275 0.0
H642 H 0.55081 0.21995 0.23004 0.0
H643 H 0.60282 0.32018 0.2261 0.0
H644 H 0.76806 0.31035 0.18468 0.0
H645 H 0.70837 0.30916 0.17593 0.0
H646 H 0.65564 0.21557 0.19024 0.0
C647 C 0.53874 0.24333 0.22568 0.0
C648 C 0.61361 0.29732 0.21723 0.0
C649 C 0.50493 0.2456 0.2331 0.0
C650 C 0.75427 0.28953 0.19447 0.0
C651 C 0.71994 0.28917 0.19009 0.0
C652 C 0.64423 0.2386 0.19771 0.0
C653 C 0.55688 0.27118 0.2148 0.0
C654 C 0.59374 0.26964 0.21009 0.0
C655 C 0.70059 0.2642 0.2053 0.0
C656 C 0.66381 0.26627 0.2051 0.0
H657 H 0.49393 0.32707 0.21592 0.0
H658 H 0.55203 0.32286 0.20092 0.0
H659 H 0.59563 0.21856 0.19338 0.0
H660 H 0.76201 0.22131 0.24542 0.0
H661 H 0.70245 0.21963 0.23633 0.0
C662 C 0.21979 0.2816 0.78564 0.0
C663 C 0.2489 0.26315 0.78871 0.0
C664 C 0.21983 0.3157 0.79156 0.0
C665 C 0.27221 0.38599 0.82375 0.0
H666 H 0.2194 0.43684 0.75888 0.0
C667 C 0.29947 0.52241 0.78918 0.0
C668 C 0.27309 0.54383 0.78201 0.0
C669 C 0.29395 0.489 0.79625 0.0
C670 C 0.23393 0.42314 0.77764 0.0
H671 H 0.30129 0.26657 0.79758 0.0
H672 H 0.30161 0.32563 0.8084 0.0
H673 H 0.21434 0.37721 0.76001 0.0
H674 H 0.2199 0.54684 0.77815 0.0
H675 H 0.21024 0.48854 0.79059 0.0
H676 H 0.29261 0.43209 0.8404 0.0
C677 C 0.27825 0.31377 0.80327 0.0
C678 C 0.23099 0.38874 0.77837 0.0
C679 C 0.27807 0.27967 0.79753 0.0
C680 C 0.24084 0.53118 0.78371 0.0
C681 C 0.23532 0.49762 0.79048 0.0
C682 C 0.2753 0.42041 0.82285 0.0
C683 C 0.24925 0.33252 0.79959 0.0
C684 C 0.25038 0.3695 0.80111 0.0
C685 C 0.26186 0.47589 0.7961 0.0
C686 C 0.25651 0.43948 0.79945 0.0
H687 H 0.1973 0.27008 0.77679 0.0
H688 H 0.19691 0.32903 0.78861 0.0
H689 H 0.28718 0.37228 0.84209 0.0
H690 H 0.32464 0.5312 0.78803 0.0
H691 H 0.31505 0.47312 0.80017 0.0
C692 C 0.53328 0.79832 0.23929 0.0
C693 C 0.54946 0.7683 0.23307 0.0
C694 C 0.49966 0.80204 0.23161 0.0
C695 C 0.42397 0.75086 0.21481 0.0
H696 H 0.3839 0.83636 0.20036 0.0
C697 C 0.28247 0.76681 0.19773 0.0
C698 C 0.26891 0.7883 0.22258 0.0
C699 C 0.31668 0.76627 0.19179 0.0
C700 C 0.39476 0.81227 0.20418 0.0
H701 H 0.54338 0.71936 0.2118 0.0
H702 H 0.48563 0.72632 0.1964 0.0
H703 H 0.44377 0.83157 0.20244 0.0
H704 H 0.28016 0.82675 0.25973 0.0
H705 H 0.33936 0.82702 0.24819 0.0
H706 H 0.3747 0.73173 0.21607 0.0
C707 C 0.49823 0.74669 0.20871 0.0
C708 C 0.42921 0.80948 0.20575 0.0
C709 C 0.53165 0.74277 0.2171 0.0
C710 C 0.2899 0.81039 0.23992 0.0
C711 C 0.32383 0.81046 0.23337 0.0
C712 C 0.38958 0.75361 0.21254 0.0
C713 C 0.48128 0.77603 0.21683 0.0
C714 C 0.4445 0.77879 0.21183 0.0
C715 C 0.33785 0.78767 0.21012 0.0
C716 C 0.37449 0.78441 0.20787 0.0
H717 H 0.54609 0.8184 0.25199 0.0
H718 H 0.48789 0.82491 0.23885 0.0
H719 H 0.43421 0.72683 0.22026 0.0
H720 H 0.267 0.74886 0.18478 0.0
H721 H 0.32673 0.74841 0.17371 0.0
C722 C 0.75785 0.75453 0.81435 0.0
C723 C 0.78177 0.77094 0.79438 0.0
C724 C 0.75861 0.72003 0.81787 0.0
C725 C 0.79512 0.64637 0.77228 0.0
H726 H 0.75243 0.59793 0.84693 0.0
C727 C 0.79625 0.50407 0.77632 0.0
C728 C 0.76478 0.48963 0.77805 0.0
C729 C 0.80063 0.53762 0.78376 0.0
C730 C 0.76452 0.61117 0.82594 0.0
H731 H 0.82548 0.76422 0.76292 0.0
H732 H 0.82893 0.70519 0.77172 0.0
H733 H 0.75718 0.65784 0.85079 0.0
H734 H 0.71366 0.49886 0.79106 0.0
H735 H 0.72156 0.55709 0.80511 0.0
H736 H 0.80293 0.59958 0.74786 0.0
C737 C 0.80863 0.71823 0.78371 0.0
C738 C 0.76708 0.64566 0.82797 0.0
C739 C 0.80724 0.7524 0.77937 0.0
C740 C 0.73823 0.50913 0.78952 0.0
C741 C 0.74275 0.54253 0.79762 0.0
C742 C 0.79317 0.61199 0.77066 0.0
C743 C 0.78353 0.70113 0.80165 0.0
C744 C 0.78221 0.66398 0.80098 0.0
C745 C 0.77381 0.55744 0.79379 0.0
C746 C 0.77761 0.59392 0.79725 0.0
H747 H 0.73729 0.7681 0.82522 0.0
H748 H 0.73853 0.70823 0.83162 0.0
H749 H 0.80601 0.65905 0.75025 0.0
H750 H 0.81723 0.48994 0.76734 0.0
H751 H 0.82492 0.54831 0.78078 0.0
C752 C 1.00663 0.30304 0.26974 0.0
C753 C 0.99032 0.27346 0.27784 0.0
C754 C 0.04034 0.30695 0.27695 0.0
C755 C 0.11585 0.25625 0.29592 0.0
H756 H 0.15645 0.342 0.30631 0.0
C757 C 0.25743 0.27155 0.31211 0.0
C758 C 0.27137 0.29278 0.28716 0.0
C759 C 0.22318 0.27132 0.31779 0.0
C760 C 0.14546 0.31785 0.30357 0.0
H761 H 0.99629 0.22562 0.30196 0.0
H762 H 0.0542 0.23299 0.31641 0.0
H763 H 0.09655 0.33747 0.30446 0.0
H764 H 0.26068 0.33101 0.24946 0.0
H765 H 0.20138 0.3317 0.26039 0.0
H766 H 0.16498 0.23679 0.29543 0.0
C767 C 0.04161 0.2528 0.30303 0.0
C768 C 0.11098 0.31519 0.30219 0.0
C769 C 1.00811 0.24867 0.29517 0.0
C770 C 0.25066 0.31485 0.26935 0.0
C771 C 0.21666 0.31517 0.27556 0.0
C772 C 0.15026 0.25889 0.29795 0.0
C773 C 0.05867 0.2816 0.29308 0.0
C774 C 0.0955 0.28438 0.29766 0.0
C775 C 0.20229 0.29269 0.29901 0.0
C776 C 0.16557 0.28976 0.30117 0.0
H777 H 0.99384 0.32254 0.25598 0.0
H778 H 0.05221 0.32938 0.26833 0.0
H779 H 0.10543 0.23208 0.29168 0.0
H780 H 0.27262 0.25354 0.32535 0.0
H781 H 0.21289 0.2537 0.33604 0.0
C782 C 0.23683 0.02799 0.70448 0.0
C783 C 0.26264 0.04626 0.71932 0.0
C784 C 0.24045 0.99425 0.69776 0.0
C785 C 0.30254 0.92458 0.69816 0.0
H786 H 0.22409 0.87169 0.71175 0.0
C787 C 0.3015 0.78579 0.73635 0.0
C788 C 0.279 0.76498 0.71932 0.0
C789 C 0.30209 0.81966 0.7294 0.0
C790 C 0.24617 0.88609 0.70739 0.0
H791 H 0.31291 0.04338 0.73796 0.0
H792 H 0.31889 0.98464 0.72777 0.0
H793 H 0.22003 0.9313 0.71317 0.0
H794 H 0.23854 0.76381 0.68279 0.0
H795 H 0.23923 0.82306 0.67065 0.0
H796 H 0.32877 0.87873 0.69466 0.0
C797 C 0.29604 0.99625 0.7201 0.0
C798 C 0.2439 0.92052 0.70801 0.0
C799 C 0.29264 0.03018 0.72605 0.0
C800 C 0.25719 0.77883 0.69495 0.0
C801 C 0.25723 0.8129 0.68854 0.0
C802 C 0.30487 0.89008 0.69826 0.0
C803 C 0.26973 0.97746 0.70657 0.0
C804 C 0.27207 0.9405 0.70365 0.0
C805 C 0.27932 0.83381 0.70617 0.0
C806 C 0.27673 0.87041 0.70307 0.0
H807 H 0.21343 0.03965 0.69886 0.0
H808 H 0.21986 0.98128 0.68629 0.0
H809 H 0.3248 0.93868 0.69392 0.0
H810 H 0.31791 0.77598 0.75609 0.0
H811 H 0.3191 0.83506 0.7438 0.0
C812 C 0.78847 0.74075 0.2853 0.0
C813 C 0.76894 0.76567 0.30012 0.0
C814 C 0.82267 0.74018 0.29038 0.0
C815 C 0.89101 0.79718 0.30103 0.0
H816 H 0.94348 0.7196 0.32015 0.0
C817 C 0.03316 0.80482 0.29598 0.0
C818 C 0.05069 0.77747 0.28341 0.0
C819 C 0.99959 0.80235 0.30434 0.0
C820 C 0.92939 0.74151 0.31427 0.0
H821 H 0.77039 0.81036 0.33062 0.0
H822 H 0.83014 0.80954 0.33956 0.0
H823 H 0.88351 0.71649 0.32346 0.0
H824 H 0.04663 0.72577 0.27044 0.0
H825 H 0.98812 0.72162 0.2835 0.0
H826 H 0.93615 0.82192 0.28973 0.0
C827 C 0.81878 0.78977 0.32493 0.0
C828 C 0.89488 0.73971 0.31649 0.0
C829 C 0.78443 0.78992 0.32041 0.0
C830 C 0.03402 0.74725 0.2805 0.0
C831 C 1.00024 0.74492 0.28812 0.0
C832 C 0.92541 0.79887 0.29814 0.0
C833 C 0.83842 0.76526 0.30934 0.0
C834 C 0.87523 0.7675 0.30975 0.0
C835 C 0.98219 0.77262 0.29952 0.0
C836 C 0.94533 0.77103 0.30451 0.0
H837 H 0.77752 0.72262 0.26815 0.0
H838 H 0.83701 0.72127 0.2775 0.0
H839 H 0.87664 0.81893 0.29504 0.0
H840 H 0.04527 0.82843 0.29868 0.0
H841 H 0.98725 0.82409 0.31405 0.0
C842 C 0.78443 0.25371 0.69138 0.0
C843 C 0.76191 0.26943 0.71364 0.0
C844 C 0.78341 0.2194 0.68684 0.0
C845 C 0.73273 0.14413 0.69968 0.0
H846 H 0.81593 0.10169 0.72008 0.0
C847 C 0.74046 1.00582 0.73833 0.0
C848 C 0.77001 0.98849 0.73301 0.0
C849 C 0.73815 0.03943 0.72999 0.0
C850 C 0.79253 0.11277 0.71346 0.0
H851 H 0.72062 0.2616 0.74844 0.0
H852 H 0.71778 0.20216 0.73932 0.0
H853 H 0.81363 0.16115 0.7142 0.0
H854 H 0.81959 0.99246 0.71264 0.0
H855 H 0.81511 0.05019 0.69621 0.0
H856 H 0.71153 0.0959 0.69854 0.0
C857 C 0.73609 0.21621 0.72509 0.0
C858 C 0.79126 0.14713 0.71022 0.0
C859 C 0.73757 0.25033 0.73016 0.0
C860 C 0.79652 1.00512 0.71729 0.0
C861 C 0.79402 0.0385 0.70829 0.0
C862 C 0.73406 0.10966 0.70229 0.0
C863 C 0.75966 0.20012 0.70429 0.0
C864 C 0.76129 0.16333 0.70384 0.0
C865 C 0.76515 0.0566 0.7155 0.0
C866 C 0.76392 0.09333 0.70983 0.0
H867 H 0.80429 0.26752 0.67953 0.0
H868 H 0.80197 0.20778 0.67069 0.0
H869 H 0.70926 0.15583 0.69453 0.0
H870 H 0.71964 0.9939 0.75076 0.0
H871 H 0.71556 0.05215 0.73648 0.0
C872 C 0.31907 0.39911 0.44621 0.0
C873 C 0.32151 0.4132 0.4127 0.0
C874 C 0.32305 0.41859 0.47612 0.0
C875 C 0.35592 0.49908 0.50607 0.0
H876 H 0.29015 0.49143 0.57905 0.0
C877 C 0.32661 0.60368 0.60288 0.0
C878 C 0.31641 0.59554 0.63694 0.0
C879 C 0.333 0.57898 0.57839 0.0
C880 C 0.30915 0.49354 0.5593 0.0
H881 H 0.33066 0.45871 0.38453 0.0
H882 H 0.33723 0.49241 0.43631 0.0
H883 H 0.29043 0.45209 0.53111 0.0
H884 H 0.30717 0.5549 0.67256 0.0
H885 H 0.31877 0.51198 0.62999 0.0
H886 H 0.37415 0.54102 0.53381 0.0
C887 C 0.33262 0.46633 0.43962 0.0
C888 C 0.30927 0.47094 0.53178 0.0
C889 C 0.32846 0.44701 0.40987 0.0
C890 C 0.31466 0.56212 0.64647 0.0
C891 C 0.3211 0.53745 0.622 0.0
C892 C 0.35584 0.52164 0.53361 0.0
C893 C 0.32977 0.45246 0.4731 0.0
C894 C 0.3322 0.47389 0.50445 0.0
C895 C 0.32945 0.54557 0.5874 0.0
C896 C 0.33202 0.51956 0.56019 0.0
H897 H 0.3133 0.37327 0.44946 0.0
H898 H 0.32076 0.40718 0.5016 0.0
H899 H 0.37428 0.50167 0.48569 0.0
H900 H 0.32827 0.62914 0.59461 0.0
H901 H 0.33915 0.58615 0.55191 0.0
C902 C 0.60601 0.71583 0.41628 0.0
C903 C 0.59838 0.7269 0.38237 0.0
C904 C 0.58108 0.71148 0.44122 0.0
C905 C 0.51941 0.69254 0.48449 0.0
H906 H 0.46165 0.76828 0.49207 0.0
C907 C 0.40828 0.69998 0.58073 0.0
C908 C 0.40809 0.72832 0.60182 0.0
C909 C 0.42992 0.69756 0.5523 0.0
C910 C 0.47751 0.74692 0.49018 0.0
H911 H 0.55813 0.74004 0.34764 0.0
H912 H 0.51502 0.73267 0.39113 0.0
H913 H 0.50255 0.76607 0.44531 0.0
H914 H 0.42997 0.77641 0.60936 0.0
H915 H 0.467 0.77256 0.55916 0.0
H916 H 0.49432 0.67359 0.52967 0.0
C917 C 0.54029 0.72767 0.39848 0.0
C918 C 0.50076 0.74553 0.46329 0.0
C919 C 0.56507 0.73171 0.37351 0.0
C920 C 0.42948 0.75435 0.59349 0.0
C921 C 0.45059 0.75219 0.56473 0.0
C922 C 0.49572 0.6937 0.51112 0.0
C923 C 0.54808 0.71837 0.43284 0.0
C924 C 0.52221 0.7185 0.46035 0.0
C925 C 0.45131 0.72364 0.54407 0.0
C926 C 0.47484 0.72113 0.51447 0.0
H927 H 0.63135 0.7118 0.42401 0.0
H928 H 0.58781 0.70435 0.46754 0.0
H929 H 0.53555 0.67139 0.48278 0.0
H930 H 0.39251 0.67925 0.58685 0.0
H931 H 0.42994 0.67531 0.53673 0.0
C932 C 0.73156 0.47144 0.63492 0.0
C933 C 0.72772 0.43771 0.62763 0.0
C934 C 0.72723 0.49502 0.60864 0.0
C935 C 0.73374 0.50209 0.51341 0.0
H936 H 0.69477 0.58827 0.52678 0.0
C937 C 0.71981 0.59272 0.39913 0.0
C938 C 0.72627 0.62621 0.40526 0.0
C939 C 0.7176 0.57044 0.4268 0.0
C940 C 0.70605 0.56443 0.52275 0.0
H941 H 0.71411 0.40261 0.58744 0.0
H942 H 0.70632 0.44374 0.54182 0.0
H943 H 0.69321 0.54796 0.57429 0.0
H944 H 0.73604 0.66234 0.4457 0.0
H945 H 0.73247 0.62327 0.49406 0.0
H946 H 0.7472 0.51849 0.46232 0.0
C947 C 0.7133 0.45188 0.56772 0.0
C948 C 0.70504 0.54131 0.54993 0.0
C949 C 0.71754 0.42831 0.59397 0.0
C950 C 0.73044 0.63687 0.43995 0.0
C951 C 0.72839 0.61445 0.46773 0.0
C952 C 0.73487 0.52517 0.48639 0.0
C953 C 0.71902 0.4854 0.57449 0.0
C954 C 0.71882 0.50983 0.5455 0.0
C955 C 0.72212 0.5809 0.46145 0.0
C956 C 0.72097 0.55661 0.49062 0.0
H957 H 0.7393 0.47963 0.66055 0.0
H958 H 0.73194 0.52062 0.6147 0.0
H959 H 0.74529 0.47836 0.5094 0.0
H960 H 0.71608 0.58367 0.37282 0.0
H961 H 0.71211 0.54495 0.42097 0.0
C962 C 0.47301 0.28955 0.37361 0.0
C963 C 0.44019 0.29899 0.37993 0.0
C964 C 0.49694 0.29267 0.39974 0.0
C965 C 0.50412 0.29437 0.49516 0.0
H966 H 0.59261 0.32682 0.47877 0.0
C967 C 0.59337 0.31518 0.6092 0.0
C968 C 0.62685 0.30753 0.60462 0.0
C969 C 0.57176 0.31537 0.58086 0.0
C970 C 0.56815 0.31728 0.48371 0.0
H971 H 0.40718 0.32026 0.41842 0.0
H972 H 0.44885 0.32555 0.46384 0.0
H973 H 0.55293 0.32568 0.43072 0.0
H974 H 0.66376 0.29371 0.56634 0.0
H975 H 0.62583 0.29345 0.51682 0.0
H976 H 0.51916 0.28521 0.54771 0.0
C977 C 0.45599 0.31548 0.43876 0.0
C978 C 0.54539 0.31675 0.45618 0.0
C979 C 0.43215 0.31263 0.4126 0.0
C980 C 0.63824 0.3002 0.57078 0.0
C981 C 0.61646 0.30008 0.54235 0.0
C982 C 0.52686 0.29461 0.52251 0.0
C983 C 0.48852 0.30502 0.43285 0.0
C984 C 0.51303 0.30555 0.46172 0.0
C985 C 0.58284 0.30743 0.54709 0.0
C986 C 0.55911 0.30636 0.51732 0.0
H987 H 0.48011 0.27903 0.34872 0.0
H988 H 0.52176 0.28427 0.39443 0.0
H989 H 0.47961 0.28492 0.5001 0.0
H990 H 0.58381 0.32136 0.63479 0.0
H991 H 0.5463 0.32194 0.58551 0.0
C992 C 0.82002 0.93108 0.91581 0.0
C993 C 0.80701 0.94006 0.88311 0.0
C994 C 0.82413 0.95459 0.94211 0.0
C995 C 0.82774 0.04405 0.96067 0.0
H996 H 0.79232 1.01783 0.0506 0.0
C997 C 0.80478 0.13712 0.0734 0.0
C998 C 0.81066 0.12617 0.10774 0.0
C999 C 0.80635 0.1151 0.04527 0.0
C1000 C 0.80282 0.02551 0.02588 0.0
H1001 H 0.7901 0.98134 0.85181 0.0
H1002 H 0.79742 0.02227 0.89769 0.0
H1003 H 0.79373 0.97842 1.00295 0.0
H1004 H 0.82349 0.0836 0.13916 0.0
H1005 H 0.82687 0.04564 0.09039 0.0
H1006 H 0.8369 0.09121 0.98373 0.0
C1007 C 0.80436 0.99702 0.90299 0.0
C1008 C 0.80361 1.00283 0.9985 0.0
C1009 C 0.80007 0.97348 0.87671 0.0
C1010 C 0.81842 0.09284 0.11314 0.0
C1011 C 0.82025 0.07098 0.0851 0.0
C1012 C 0.82717 0.06675 0.98821 0.0
C1013 C 0.81554 0.98768 0.93631 0.0
C1014 C 0.81605 1.01178 0.96556 0.0
C1015 C 0.81395 0.08167 0.05079 0.0
C1016 C 0.81468 0.05776 0.02121 0.0
H1017 H 0.8258 0.90564 0.92168 0.0
H1018 H 0.83335 0.94671 0.96732 0.0
H1019 H 0.83764 0.05165 0.93564 0.0
H1020 H 0.79821 0.16248 0.06827 0.0
H1021 H 0.80087 0.12416 0.01929 0.0
C1022 C 0.92915 0.20958 0.09943 0.0
C1023 C 0.9387 0.22336 0.13154 0.0
C1024 C 0.9524 0.20385 0.07321 0.0
C1025 C 0.04185 0.19903 0.05333 0.0
H1026 H 1.01382 0.23182 0.96294 0.0
C1027 C 0.13133 0.22027 0.93607 0.0
C1028 C 0.11919 0.21239 0.90268 0.0
C1029 C 0.11054 0.21902 0.96535 0.0
C1030 C 0.02198 0.2221 0.98784 0.0
H1031 H 0.9807 0.23969 0.16207 0.0
H1032 H 0.02115 0.22984 0.1162 0.0
H1033 H 0.9754 0.23196 0.01153 0.0
H1034 H 0.07604 0.19585 0.87424 0.0
H1035 H 0.0403 0.1933 0.92491 0.0
H1036 H 0.08867 0.18942 0.02936 0.0
C1037 C 0.99567 0.22342 0.11134 0.0
C1038 C 0.99988 0.22213 0.01574 0.0
C1039 C 0.9724 0.22914 0.13763 0.0
C1040 C 0.08613 0.2026 0.89943 0.0
C1041 C 0.06555 0.20119 0.92853 0.0
C1042 C 0.06405 0.1989 0.02525 0.0
C1043 C 0.98576 0.21176 0.07844 0.0
C1044 C 1.00944 0.21049 0.04879 0.0
C1045 C 0.07727 0.20987 0.96179 0.0
C1046 C 0.05428 0.21031 0.99211 0.0
H1047 H 0.90348 0.20449 0.09392 0.0
H1048 H 0.94409 0.19415 0.04839 0.0
H1049 H 0.04994 0.18982 0.07847 0.0
H1050 H 0.15653 0.2283 0.93953 0.0
H1051 H 0.12027 0.22615 0.99057 0.0
C1052 C 0.22815 0.89351 0.06208 0.0
C1053 C 0.22426 0.90819 0.09511 0.0
C1054 C 0.22505 0.91238 0.03153 0.0
C1055 C 0.19018 0.99037 0.99798 0.0
H1056 H 0.2599 0.98624 0.92891 0.0
C1057 C 0.21464 0.09559 0.90058 0.0
C1058 C 0.22733 0.08835 0.86728 0.0
C1059 C 0.20987 0.07063 0.92524 0.0
C1060 C 0.23982 0.98732 0.94751 0.0
H1061 H 0.21352 0.95402 0.1218 0.0
H1062 H 0.20801 0.98662 0.06883 0.0
H1063 H 0.25968 0.94745 0.97762 0.0
H1064 H 0.24334 0.04875 0.83326 0.0
H1065 H 0.23439 1.00514 0.87608 0.0
H1066 H 0.17046 0.0304 0.96828 0.0
C1067 C 0.21331 0.9606 0.06644 0.0
C1068 C 0.23977 0.96507 0.97548 0.0
C1069 C 0.2168 0.94193 0.09683 0.0
C1070 C 0.23373 0.05528 0.85873 0.0
C1071 C 0.22882 0.03027 0.88339 0.0
C1072 C 0.19009 1.01243 0.96993 0.0
C1073 C 0.21756 0.94615 0.03344 0.0
C1074 C 0.21539 0.96688 1.00147 0.0
C1075 C 0.21746 0.0377 0.91722 0.0
C1076 C 0.21535 1.01174 0.94476 0.0
H1077 H 0.23432 0.86768 0.0598 0.0
H1078 H 0.22846 0.90059 0.00643 0.0
H1079 H 0.17075 0.99201 0.01731 0.0
H1080 H 0.20949 0.12075 0.90816 0.0
H1081 H 0.20148 0.07743 0.95111 0.0
C1082 C 0.8992 0.80333 0.94565 0.0
C1083 C 0.91097 0.80955 0.91169 0.0
C1084 C 0.92075 0.80417 0.9743 0.0
C1085 C 1.01001 0.79815 0.99434 0.0
H1086 H 0.98538 0.8334 0.08474 0.0
C1087 C 0.1064 0.81718 0.10163 0.0
C1088 C 0.09849 0.80432 0.13473 0.0
C1089 C 0.08216 0.82055 0.07599 0.0
C1090 C 0.9925 0.82335 0.05966 0.0
H1091 H 0.95421 0.82289 0.8815 0.0
H1092 H 0.99122 0.82505 0.93103 0.0
H1093 H 0.94522 0.8333 0.037 0.0
H1094 H 0.05839 0.78677 0.16739 0.0
H1095 H 1.01609 0.79283 0.12254 0.0
H1096 H 0.05723 0.78842 0.01671 0.0
C1097 C 0.96572 0.81853 0.93566 0.0
C1098 C 0.96949 0.82316 0.03236 0.0
C1099 C 0.9444 0.8174 0.90719 0.0
C1100 C 0.0654 0.79661 0.14213 0.0
C1101 C 0.0411 0.8002 0.11649 0.0
C1102 C 0.03297 0.79859 0.02142 0.0
C1103 C 0.95439 0.81139 0.96953 0.0
C1104 C 0.97808 0.81078 0.99925 0.0
C1105 C 0.0494 0.81136 0.08286 0.0
C1106 C 0.02461 0.81137 0.05431 0.0
H1107 H 0.87365 0.79689 0.95 0.0
H1108 H 0.91123 0.79829 1.0 0.0
H1109 H 1.0173 0.78761 0.96954 0.0
H1110 H 0.13157 0.82352 0.09502 0.0
H1111 H 0.0892 0.82974 0.05047 0.0
loop_
_geom_bond_atom_site_label_1
_geom_bond_atom_site_label_2
_geom_bond_distance
_geom_bond_site_symmetry_2
_ccdc_geom_bond_type
Zn0 N4 2.020 . S
Zn0 O8 2.019 . S
Zn0 N10 2.119 . S
Zn0 O18 1.975 . S
C1 N2 1.334 . S
C1 N5 1.336 . S
N2 C1 1.334 . S
N2 C3 1.334 . S
C3 N2 1.334 . S
C3 N4 1.336 . S
N4 Zn0 2.020 . S
N4 C3 1.336 . S
N4 N5 1.354 . S
N5 C1 1.336 . S
N5 N4 1.354 . S
N5 Zn9 2.020 . S
C6 O7 1.244 . S
C6 O30 1.257 . S
O7 C6 1.244 . S
O8 Zn0 2.019 . S
O8 C28 1.257 . S
Zn9 N5 2.020 . S
Zn9 O16 1.975 . S
Zn9 N25 2.119 . S
Zn9 O30 2.019 . S
N10 Zn0 2.119 . S
N10 C12 1.334 . S
N10 C13 1.328 . S
C11 C12 1.391 . S
C11 N14 1.329 . S
C11 H32 0.930 . S
C12 N10 1.334 . S
C12 C11 1.391 . S
C12 H19 0.930 . S
C13 N10 1.328 . S
C13 C15 1.392 . S
C13 H20 0.930 . S
N14 C11 1.329 . S
N14 C15 1.331 . S
C15 C13 1.392 . S
C15 N14 1.331 . S
O16 Zn9 1.975 . S
O16 C17 1.252 . S
C17 O16 1.252 . S
C17 O18 1.252 . S
O18 Zn0 1.975 . S
O18 C17 1.252 . S
H19 C12 0.930 . S
H20 C13 0.930 . S
C21 C22 1.392 . S
C21 N25 1.328 . S
C21 H27 0.930 . S
C22 C21 1.392 . S
C22 N26 1.331 . S
C23 C24 1.391 . S
C23 N26 1.329 . S
C23 H33 0.930 . S
C24 C23 1.391 . S
C24 N25 1.334 . S
C24 H31 0.930 . S
N25 Zn9 2.119 . S
N25 C21 1.328 . S
N25 C24 1.334 . S
N26 C22 1.331 . S
N26 C23 1.329 . S
H27 C21 0.930 . S
C28 O8 1.257 . S
C28 O29 1.244 . S
O29 C28 1.244 . S
O30 C6 1.257 . S
O30 Zn9 2.019 . S
H31 C24 0.930 . S
H32 C11 0.930 . S
H33 C23 0.930 . S
Zn34 N38 2.020 . S
Zn34 O42 2.019 . S
Zn34 N44 2.119 . S
Zn34 O52 1.975 . S
C35 N36 1.334 . S
C35 N39 1.336 . S
N36 C35 1.334 . S
N36 C37 1.334 . S
C37 N36 1.334 . S
C37 N38 1.336 . S
N38 Zn34 2.020 . S
N38 C37 1.336 . S
N38 N39 1.354 . S
N39 C35 1.336 . S
N39 N38 1.354 . S
N39 Zn43 2.020 . S
C40 O41 1.244 . S
C40 O64 1.257 . S
O41 C40 1.244 . S
O42 Zn34 2.019 . S
O42 C62 1.257 . S
Zn43 N39 2.020 . S
Zn43 O50 1.975 . S
Zn43 N59 2.119 . S
Zn43 O64 2.019 . S
N44 Zn34 2.119 . S
N44 C46 1.334 . S
N44 C47 1.328 . S
C45 C46 1.391 . S
C45 N48 1.329 . S
C45 H66 0.930 . S
C46 N44 1.334 . S
C46 C45 1.391 . S
C46 H53 0.930 . S
C47 N44 1.328 . S
C47 C49 1.392 . S
C47 H54 0.930 . S
N48 C45 1.329 . S
N48 C49 1.331 . S
C49 C47 1.392 . S
C49 N48 1.331 . S
O50 Zn43 1.975 . S
O50 C51 1.252 . S
C51 O50 1.252 . S
C51 O52 1.252 . S
O52 Zn34 1.975 . S
O52 C51 1.252 . S
H53 C46 0.930 . S
H54 C47 0.930 . S
C55 C56 1.392 . S
C55 N59 1.328 . S
C55 H61 0.930 . S
C56 C55 1.392 . S
C56 N60 1.331 . S
C57 C58 1.391 . S
C57 N60 1.329 . S
C57 H67 0.930 . S
C58 C57 1.391 . S
C58 N59 1.334 . S
C58 H65 0.930 . S
N59 Zn43 2.119 . S
N59 C55 1.328 . S
N59 C58 1.334 . S
N60 C56 1.331 . S
N60 C57 1.329 . S
H61 C55 0.930 . S
C62 O42 1.257 . S
C62 O63 1.244 . S
O63 C62 1.244 . S
O64 C40 1.257 . S
O64 Zn43 2.019 . S
H65 C58 0.930 . S
H66 C45 0.930 . S
H67 C57 0.930 . S
Zn68 N72 2.020 . S
Zn68 O76 2.019 . S
Zn68 N78 2.119 . S
Zn68 O86 1.975 . S
C69 N70 1.334 . S
C69 N73 1.336 . S
N70 C69 1.334 . S
N70 C71 1.334 . S
C71 N70 1.334 . S
C71 N72 1.336 . S
N72 Zn68 2.020 . S
N72 C71 1.336 . S
N72 N73 1.354 . S
N73 C69 1.336 . S
N73 N72 1.354 . S
N73 Zn77 2.020 . S
C74 O75 1.244 . S
C74 O98 1.257 . S
O75 C74 1.244 . S
O76 Zn68 2.019 . S
O76 C96 1.257 . S
Zn77 N73 2.020 . S
Zn77 O84 1.975 . S
Zn77 N93 2.119 . S
Zn77 O98 2.019 . S
N78 Zn68 2.119 . S
N78 C80 1.334 . S
N78 C81 1.328 . S
C79 C80 1.391 . S
C79 N82 1.329 . S
C79 H100 0.930 . S
C80 N78 1.334 . S
C80 C79 1.391 . S
C80 H87 0.930 . S
C81 N78 1.328 . S
C81 C83 1.392 . S
C81 H88 0.930 . S
N82 C79 1.329 . S
N82 C83 1.331 . S
C83 C81 1.392 . S
C83 N82 1.331 . S
O84 Zn77 1.975 . S
O84 C85 1.252 . S
C85 O84 1.252 . S
C85 O86 1.252 . S
O86 Zn68 1.975 . S
O86 C85 1.252 . S
H87 C80 0.930 . S
H88 C81 0.930 . S
C89 C90 1.392 . S
C89 N93 1.328 . S
C89 H95 0.930 . S
C90 C89 1.392 . S
C90 N94 1.331 . S
C91 C92 1.391 . S
C91 N94 1.329 . S
C91 H101 0.930 . S
C92 C91 1.391 . S
C92 N93 1.334 . S
C92 H99 0.930 . S
N93 Zn77 2.119 . S
N93 C89 1.328 . S
N93 C92 1.334 . S
N94 C90 1.331 . S
N94 C91 1.329 . S
H95 C89 0.930 . S
C96 O76 1.257 . S
C96 O97 1.244 . S
O97 C96 1.244 . S
O98 C74 1.257 . S
O98 Zn77 2.019 . S
H99 C92 0.930 . S
H100 C79 0.930 . S
H101 C91 0.930 . S
Zn102 N106 2.020 . S
Zn102 O110 2.019 . S
Zn102 N112 2.119 . S
Zn102 O120 1.975 . S
C103 N104 1.334 . S
C103 N107 1.336 . S
N104 C103 1.334 . S
N104 C105 1.334 . S
C105 N104 1.334 . S
C105 N106 1.336 . S
N106 Zn102 2.020 . S
N106 C105 1.336 . S
N106 N107 1.354 . S
N107 C103 1.336 . S
N107 N106 1.354 . S
N107 Zn111 2.020 . S
C108 O109 1.244 . S
C108 O132 1.257 . S
O109 C108 1.244 . S
O110 Zn102 2.019 . S
O110 C130 1.257 . S
Zn111 N107 2.020 . S
Zn111 O118 1.975 . S
Zn111 N127 2.119 . S
Zn111 O132 2.019 . S
N112 Zn102 2.119 . S
N112 C114 1.334 . S
N112 C115 1.328 . S
C113 C114 1.391 . S
C113 N116 1.329 . S
C113 H134 0.930 . S
C114 N112 1.334 . S
C114 C113 1.391 . S
C114 H121 0.930 . S
C115 N112 1.328 . S
C115 C117 1.392 . S
C115 H122 0.930 . S
N116 C113 1.329 . S
N116 C117 1.331 . S
C117 C115 1.392 . S
C117 N116 1.331 . S
O118 Zn111 1.975 . S
O118 C119 1.252 . S
C119 O118 1.252 . S
C119 O120 1.252 . S
O120 Zn102 1.975 . S
O120 C119 1.252 . S
H121 C114 0.930 . S
H122 C115 0.930 . S
C123 C124 1.392 . S
C123 N127 1.328 . S
C123 H129 0.930 . S
C124 C123 1.392 . S
C124 N128 1.331 . S
C125 C126 1.391 . S
C125 N128 1.329 . S
C125 H135 0.930 . S
C126 C125 1.391 . S
C126 N127 1.334 . S
C126 H133 0.930 . S
N127 Zn111 2.119 . S
N127 C123 1.328 . S
N127 C126 1.334 . S
N128 C124 1.331 . S
N128 C125 1.329 . S
H129 C123 0.930 . S
C130 O110 1.257 . S
C130 O131 1.244 . S
O131 C130 1.244 . S
O132 C108 1.257 . S
O132 Zn111 2.019 . S
H133 C126 0.930 . S
H134 C113 0.930 . S
H135 C125 0.930 . S
Zn136 N140 2.020 . S
Zn136 O144 2.019 . S
Zn136 N146 2.119 . S
Zn136 O154 1.975 . S
C137 N138 1.334 . S
C137 N141 1.336 . S
N138 C137 1.334 . S
N138 C139 1.334 . S
C139 N138 1.334 . S
C139 N140 1.336 . S
N140 Zn136 2.020 . S
N140 C139 1.336 . S
N140 N141 1.354 . S
N141 C137 1.336 . S
N141 N140 1.354 . S
N141 Zn145 2.020 . S
C142 O143 1.244 . S
C142 O166 1.257 . S
O143 C142 1.244 . S
O144 Zn136 2.019 . S
O144 C164 1.257 . S
Zn145 N141 2.020 . S
Zn145 O152 1.975 . S
Zn145 N161 2.119 . S
Zn145 O166 2.019 . S
N146 Zn136 2.119 . S
N146 C148 1.334 . S
N146 C149 1.328 . S
C147 C148 1.391 . S
C147 N150 1.329 . S
C147 H168 0.930 . S
C148 N146 1.334 . S
C148 C147 1.391 . S
C148 H155 0.930 . S
C149 N146 1.328 . S
C149 C151 1.392 . S
C149 H156 0.930 . S
N150 C147 1.329 . S
N150 C151 1.331 . S
C151 C149 1.392 . S
C151 N150 1.331 . S
O152 Zn145 1.975 . S
O152 C153 1.252 . S
C153 O152 1.252 . S
C153 O154 1.252 . S
O154 Zn136 1.975 . S
O154 C153 1.252 . S
H155 C148 0.930 . S
H156 C149 0.930 . S
C157 C158 1.392 . S
C157 N161 1.328 . S
C157 H163 0.930 . S
C158 C157 1.392 . S
C158 N162 1.331 . S
C159 C160 1.391 . S
C159 N162 1.329 . S
C159 H169 0.930 . S
C160 C159 1.391 . S
C160 N161 1.334 . S
C160 H167 0.930 . S
N161 Zn145 2.119 . S
N161 C157 1.328 . S
N161 C160 1.334 . S
N162 C158 1.331 . S
N162 C159 1.329 . S
H163 C157 0.930 . S
C164 O144 1.257 . S
C164 O165 1.244 . S
O165 C164 1.244 . S
O166 C142 1.257 . S
O166 Zn145 2.019 . S
H167 C160 0.930 . S
H168 C147 0.930 . S
H169 C159 0.930 . S
Zn170 N174 2.020 . S
Zn170 O178 2.019 . S
Zn170 N180 2.119 . S
Zn170 O188 1.975 . S
C171 N172 1.334 . S
C171 N175 1.336 . S
N172 C171 1.334 . S
N172 C173 1.334 . S
C173 N172 1.334 . S
C173 N174 1.336 . S
N174 Zn170 2.020 . S
N174 C173 1.336 . S
N174 N175 1.354 . S
N175 C171 1.336 . S
N175 N174 1.354 . S
N175 Zn179 2.020 . S
C176 O177 1.244 . S
C176 O200 1.257 . S
O177 C176 1.244 . S
O178 Zn170 2.019 . S
O178 C198 1.257 . S
Zn179 N175 2.020 . S
Zn179 O186 1.975 . S
Zn179 N195 2.119 . S
Zn179 O200 2.019 . S
N180 Zn170 2.119 . S
N180 C182 1.334 . S
N180 C183 1.328 . S
C181 C182 1.391 . S
C181 N184 1.329 . S
C181 H202 0.930 . S
C182 N180 1.334 . S
C182 C181 1.391 . S
C182 H189 0.930 . S
C183 N180 1.328 . S
C183 C185 1.392 . S
C183 H190 0.930 . S
N184 C181 1.329 . S
N184 C185 1.331 . S
C185 C183 1.392 . S
C185 N184 1.331 . S
O186 Zn179 1.975 . S
O186 C187 1.252 . S
C187 O186 1.252 . S
C187 O188 1.252 . S
O188 Zn170 1.975 . S
O188 C187 1.252 . S
H189 C182 0.930 . S
H190 C183 0.930 . S
C191 C192 1.392 . S
C191 N195 1.328 . S
C191 H197 0.930 . S
C192 C191 1.392 . S
C192 N196 1.331 . S
C193 C194 1.391 . S
C193 N196 1.329 . S
C193 H203 0.930 . S
C194 C193 1.391 . S
C194 N195 1.334 . S
C194 H201 0.930 . S
N195 Zn179 2.119 . S
N195 C191 1.328 . S
N195 C194 1.334 . S
N196 C192 1.331 . S
N196 C193 1.329 . S
H197 C191 0.930 . S
C198 O178 1.257 . S
C198 O199 1.244 . S
O199 C198 1.244 . S
O200 C176 1.257 . S
O200 Zn179 2.019 . S
H201 C194 0.930 . S
H202 C181 0.930 . S
H203 C193 0.930 . S
Zn204 N208 2.020 . S
Zn204 O212 2.019 . S
Zn204 N214 2.119 . S
Zn204 O222 1.975 . S
C205 N206 1.334 . S
C205 N209 1.336 . S
N206 C205 1.334 . S
N206 C207 1.334 . S
C207 N206 1.334 . S
C207 N208 1.336 . S
N208 Zn204 2.020 . S
N208 C207 1.336 . S
N208 N209 1.354 . S
N209 C205 1.336 . S
N209 N208 1.354 . S
N209 Zn213 2.020 . S
C210 O211 1.244 . S
C210 O234 1.257 . S
O211 C210 1.244 . S
O212 Zn204 2.019 . S
O212 C232 1.257 . S
Zn213 N209 2.020 . S
Zn213 O220 1.975 . S
Zn213 N229 2.119 . S
Zn213 O234 2.019 . S
N214 Zn204 2.119 . S
N214 C216 1.334 . S
N214 C217 1.328 . S
C215 C216 1.391 . S
C215 N218 1.329 . S
C215 H236 0.930 . S
C216 N214 1.334 . S
C216 C215 1.391 . S
C216 H223 0.930 . S
C217 N214 1.328 . S
C217 C219 1.392 . S
C217 H224 0.930 . S
N218 C215 1.329 . S
N218 C219 1.331 . S
C219 C217 1.392 . S
C219 N218 1.331 . S
O220 Zn213 1.975 . S
O220 C221 1.252 . S
C221 O220 1.252 . S
C221 O222 1.252 . S
O222 Zn204 1.975 . S
O222 C221 1.252 . S
H223 C216 0.930 . S
H224 C217 0.930 . S
C225 C226 1.392 . S
C225 N229 1.328 . S
C225 H231 0.930 . S
C226 C225 1.392 . S
C226 N230 1.331 . S
C227 C228 1.391 . S
C227 N230 1.329 . S
C227 H237 0.930 . S
C228 C227 1.391 . S
C228 N229 1.334 . S
C228 H235 0.930 . S
N229 Zn213 2.119 . S
N229 C225 1.328 . S
N229 C228 1.334 . S
N230 C226 1.331 . S
N230 C227 1.329 . S
H231 C225 0.930 . S
C232 O212 1.257 . S
C232 O233 1.244 . S
O233 C232 1.244 . S
O234 C210 1.257 . S
O234 Zn213 2.019 . S
H235 C228 0.930 . S
H236 C215 0.930 . S
H237 C227 0.930 . S
Zn238 N242 2.020 . S
Zn238 O246 2.019 . S
Zn238 N248 2.119 . S
Zn238 O256 1.975 . S
C239 N240 1.334 . S
C239 N243 1.336 . S
N240 C239 1.334 . S
N240 C241 1.334 . S
C241 N240 1.334 . S
C241 N242 1.336 . S
N242 Zn238 2.020 . S
N242 C241 1.336 . S
N242 N243 1.354 . S
N243 C239 1.336 . S
N243 N242 1.354 . S
N243 Zn247 2.020 . S
C244 O245 1.244 . S
C244 O268 1.257 . S
O245 C244 1.244 . S
O246 Zn238 2.019 . S
O246 C266 1.257 . S
Zn247 N243 2.020 . S
Zn247 O254 1.975 . S
Zn247 N263 2.119 . S
Zn247 O268 2.019 . S
N248 Zn238 2.119 . S
N248 C250 1.334 . S
N248 C251 1.328 . S
C249 C250 1.391 . S
C249 N252 1.329 . S
C249 H270 0.930 . S
C250 N248 1.334 . S
C250 C249 1.391 . S
C250 H257 0.930 . S
C251 N248 1.328 . S
C251 C253 1.392 . S
C251 H258 0.930 . S
N252 C249 1.329 . S
N252 C253 1.331 . S
C253 C251 1.392 . S
C253 N252 1.331 . S
O254 Zn247 1.975 . S
O254 C255 1.252 . S
C255 O254 1.252 . S
C255 O256 1.252 . S
O256 Zn238 1.975 . S
O256 C255 1.252 . S
H257 C250 0.930 . S
H258 C251 0.930 . S
C259 C260 1.392 . S
C259 N263 1.328 . S
C259 H265 0.930 . S
C260 C259 1.392 . S
C260 N264 1.331 . S
C261 C262 1.391 . S
C261 N264 1.329 . S
C261 H271 0.930 . S
C262 C261 1.391 . S
C262 N263 1.334 . S
C262 H269 0.930 . S
N263 Zn247 2.119 . S
N263 C259 1.328 . S
N263 C262 1.334 . S
N264 C260 1.331 . S
N264 C261 1.329 . S
H265 C259 0.930 . S
C266 O246 1.257 . S
C266 O267 1.244 . S
O267 C266 1.244 . S
O268 C244 1.257 . S
O268 Zn247 2.019 . S
H269 C262 0.930 . S
H270 C249 0.930 . S
H271 C261 0.930 . S
C272 C273 1.349 . S
C272 C274 1.327 . S
C272 H297 0.950 . S
C273 C272 1.349 . S
C273 C289 1.349 . S
C274 C272 1.327 . S
C274 C293 1.429 . S
C274 H298 0.950 . S
C275 C292 1.574 . S
C275 C294 1.368 . S
C275 H299 0.949 . S
H276 C280 0.949 . S
C277 C278 1.349 . S
C277 C279 1.327 1_556 S
C277 H300 0.950 . S
C278 C277 1.349 . S
C278 C290 1.344 1_556 S
C279 C277 1.327 1_554 S
C279 C295 1.429 . S
C279 H301 0.950 . S
C280 H276 0.949 . S
C280 C288 1.574 . S
C280 C296 1.368 . S
H281 C289 0.950 . S
H282 C287 0.950 . S
H283 C288 0.949 . S
H284 C290 0.948 1_556 S
H285 C291 0.950 . S
H286 C292 0.949 . S
C287 H282 0.950 . S
C287 C289 1.327 . S
C287 C293 1.429 . S
C288 C280 1.574 . S
C288 H283 0.949 . S
C288 C294 1.368 . S
C289 C273 1.349 . S
C289 H281 0.950 . S
C289 C287 1.327 . S
C290 C278 1.344 1_554 S
C290 H284 0.948 1_554 S
C290 C291 1.334 . S
C291 H285 0.950 . S
C291 C290 1.334 . S
C291 C295 1.429 . S
C292 C275 1.574 . S
C292 H286 0.949 . S
C292 C296 1.368 . S
C293 C274 1.429 . S
C293 C287 1.429 . S
C293 C294 1.523 . S
C294 C275 1.368 . S
C294 C288 1.368 . S
C294 C293 1.523 . S
C295 C279 1.429 . S
C295 C291 1.429 . S
C295 C296 1.523 . S
C296 C280 1.368 . S
C296 C292 1.368 . S
C296 C295 1.523 . S
H297 C272 0.950 . S
H298 C274 0.950 . S
H299 C275 0.949 . S
H300 C277 0.950 . S
H301 C279 0.950 . S
C302 C303 1.349 . S
C302 C304 1.327 1_554 S
C302 H327 0.950 . S
C303 C302 1.349 . S
C303 C319 1.349 . S
C304 C302 1.327 1_556 S
C304 C323 1.429 . S
C304 H328 0.950 . S
C305 C322 1.574 . S
C305 C324 1.368 . S
C305 H329 0.949 . S
H306 C310 0.949 . S
C307 C308 1.349 . S
C307 C309 1.327 . S
C307 H330 0.950 . S
C308 C307 1.349 . S
C308 C320 1.349 . S
C309 C307 1.327 . S
C309 C325 1.429 . S
C309 H331 0.950 . S
C310 H306 0.949 . S
C310 C318 1.574 . S
C310 C326 1.368 . S
H311 C319 0.950 . S
H312 C317 0.950 . S
H313 C318 0.949 . S
H314 C320 0.950 . S
H315 C321 0.950 . S
H316 C322 0.949 . S
C317 H312 0.950 . S
C317 C319 1.327 1_556 S
C317 C323 1.429 . S
C318 C310 1.574 . S
C318 H313 0.949 . S
C318 C324 1.368 . S
C319 C303 1.349 . S
C319 H311 0.950 . S
C319 C317 1.327 1_554 S
C320 C308 1.349 . S
C320 H314 0.950 . S
C320 C321 1.327 . S
C321 H315 0.950 . S
C321 C320 1.327 . S
C321 C325 1.429 . S
C322 C305 1.574 . S
C322 H316 0.949 . S
C322 C326 1.368 . S
C323 C304 1.429 . S
C323 C317 1.429 . S
C323 C324 1.523 . S
C324 C305 1.368 . S
C324 C318 1.368 . S
C324 C323 1.523 . S
C325 C309 1.429 . S
C325 C321 1.429 . S
C325 C326 1.523 . S
C326 C310 1.368 . S
C326 C322 1.368 . S
C326 C325 1.523 . S
H327 C302 0.950 . S
H328 C304 0.950 . S
H329 C305 0.949 . S
H330 C307 0.950 . S
H331 C309 0.950 . S
C332 C333 1.349 . S
C332 C334 1.327 1_556 S
C332 H357 0.950 . S
C333 C332 1.349 . S
C333 C349 1.349 . S
C334 C332 1.327 1_554 S
C334 C353 1.429 . S
C334 H358 0.950 . S
C335 C352 1.574 . S
C335 C354 1.368 . S
C335 H359 0.949 . S
H336 C340 0.949 . S
C337 C338 1.349 . S
C337 C339 1.327 . S
C337 H360 0.950 . S
C338 C337 1.349 . S
C338 C350 1.349 . S
C339 C337 1.327 . S
C339 C355 1.429 . S
C339 H361 0.950 . S
C340 H336 0.949 . S
C340 C348 1.574 . S
C340 C356 1.368 . S
H341 C349 0.950 . S
H342 C347 0.950 . S
H343 C348 0.949 . S
H344 C350 0.950 . S
H345 C351 0.950 . S
H346 C352 0.949 . S
C347 H342 0.950 . S
C347 C349 1.327 1_554 S
C347 C353 1.429 . S
C348 C340 1.574 . S
C348 H343 0.949 . S
C348 C354 1.368 . S
C349 C333 1.349 . S
C349 H341 0.950 . S
C349 C347 1.327 1_556 S
C350 C338 1.349 . S
C350 H344 0.950 . S
C350 C351 1.327 . S
C351 H345 0.950 . S
C351 C350 1.327 . S
C351 C355 1.429 . S
C352 C335 1.574 . S
C352 H346 0.949 . S
C352 C356 1.368 . S
C353 C334 1.429 . S
C353 C347 1.429 . S
C353 C354 1.523 . S
C354 C335 1.368 . S
C354 C348 1.368 . S
C354 C353 1.523 . S
C355 C339 1.429 . S
C355 C351 1.429 . S
C355 C356 1.523 . S
C356 C340 1.368 . S
C356 C352 1.368 . S
C356 C355 1.523 . S
H357 C332 0.950 . S
H358 C334 0.950 . S
H359 C335 0.949 . S
H360 C337 0.950 . S
H361 C339 0.950 . S
C362 C363 1.349 . S
C362 C364 1.327 . S
C362 H387 0.950 . S
C363 C362 1.349 . S
C363 C379 1.349 . S
C364 C362 1.327 . S
C364 C383 1.429 . S
C364 H388 0.950 . S
C365 C382 1.574 . S
C365 C384 1.368 . S
C365 H389 0.949 . S
H366 C370 0.949 . S
C367 C368 1.359 . S
C367 C369 1.313 1_554 S
C367 H390 0.953 . S
C368 C367 1.359 . S
C368 C380 1.349 . S
C369 C367 1.313 1_556 S
C369 C385 1.429 . S
C369 H391 0.950 . S
C370 H366 0.949 . S
C370 C378 1.574 . S
C370 C386 1.368 . S
H371 C379 0.950 . S
H372 C377 0.950 . S
H373 C378 0.949 . S
H374 C380 0.950 . S
H375 C381 0.950 . S
H376 C382 0.949 . S
C377 H372 0.950 . S
C377 C379 1.327 . S
C377 C383 1.429 . S
C378 C370 1.574 . S
C378 H373 0.949 . S
C378 C384 1.368 . S
C379 C363 1.349 . S
C379 H371 0.950 . S
C379 C377 1.327 . S
C380 C368 1.349 . S
C380 H374 0.950 . S
C380 C381 1.327 1_554 S
C381 H375 0.950 . S
C381 C380 1.327 1_556 S
C381 C385 1.429 . S
C382 C365 1.574 . S
C382 H376 0.949 . S
C382 C386 1.368 . S
C383 C364 1.429 . S
C383 C377 1.429 . S
C383 C384 1.523 . S
C384 C365 1.368 . S
C384 C378 1.368 . S
C384 C383 1.523 . S
C385 C369 1.429 . S
C385 C381 1.429 . S
C385 C386 1.523 . S
C386 C370 1.368 . S
C386 C382 1.368 . S
C386 C385 1.523 . S
H387 C362 0.950 . S
H388 C364 0.950 . S
H389 C365 0.949 . S
H390 C367 0.953 . S
H391 C369 0.950 . S
C392 C393 1.349 . S
C392 C394 1.327 . S
C392 H417 0.950 . S
C393 C392 1.349 . S
C393 C409 1.349 . S
C394 C392 1.327 . S
C394 C413 1.429 . S
C394 H418 0.950 . S
C395 C412 1.574 . S
C395 C414 1.368 . S
C395 H419 0.949 . S
H396 C400 0.949 . S
C397 C398 1.349 . S
C397 C399 1.327 . S
C397 H420 0.950 . S
C398 C397 1.349 . S
C398 C410 1.349 . S
C399 C397 1.327 . S
C399 C415 1.429 . S
C399 H421 0.950 . S
C400 H396 0.949 . S
C400 C408 1.574 . S
C400 C416 1.368 . S
H401 C409 0.950 . S
H402 C407 0.950 . S
H403 C408 0.949 . S
H404 C410 0.950 . S
H405 C411 0.950 . S
H406 C412 0.949 . S
C407 H402 0.950 . S
C407 C409 1.327 . S
C407 C413 1.429 . S
C408 C400 1.574 . S
C408 H403 0.949 . S
C408 C414 1.368 . S
C409 C393 1.349 . S
C409 H401 0.950 . S
C409 C407 1.327 . S
C410 C398 1.349 . S
C410 H404 0.950 . S
C410 C411 1.327 . S
C411 H405 0.950 . S
C411 C410 1.327 . S
C411 C415 1.429 . S
C412 C395 1.574 . S
C412 H406 0.949 . S
C412 C416 1.368 . S
C413 C394 1.429 . S
C413 C407 1.429 . S
C413 C414 1.523 . S
C414 C395 1.368 . S
C414 C408 1.368 . S
C414 C413 1.523 . S
C415 C399 1.429 . S
C415 C411 1.429 . S
C415 C416 1.523 . S
C416 C400 1.368 . S
C416 C412 1.368 . S
C416 C415 1.523 . S
H417 C392 0.950 . S
H418 C394 0.950 . S
H419 C395 0.949 . S
H420 C397 0.950 . S
H421 C399 0.950 . S
C422 C423 1.349 . S
C422 C424 1.327 . S
C422 H447 0.950 . S
C423 C422 1.349 . S
C423 C439 1.349 . S
C424 C422 1.327 . S
C424 C443 1.429 . S
C424 H448 0.950 . S
C425 C442 1.574 . S
C425 C444 1.368 . S
C425 H449 0.949 . S
H426 C430 0.949 . S
C427 C428 1.349 . S
C427 C429 1.327 . S
C427 H450 0.950 . S
C428 C427 1.349 . S
C428 C440 1.349 . S
C429 C427 1.327 . S
C429 C445 1.429 . S
C429 H451 0.950 . S
C430 H426 0.949 . S
C430 C438 1.574 . S
C430 C446 1.368 . S
H431 C439 0.950 . S
H432 C437 0.950 . S
H433 C438 0.949 . S
H434 C440 0.950 . S
H435 C441 0.950 . S
H436 C442 0.949 . S
C437 H432 0.950 . S
C437 C439 1.327 . S
C437 C443 1.429 . S
C438 C430 1.574 . S
C438 H433 0.949 . S
C438 C444 1.368 . S
C439 C423 1.349 . S
C439 H431 0.950 . S
C439 C437 1.327 . S
C440 C428 1.349 . S
C440 H434 0.950 . S
C440 C441 1.327 . S
C441 H435 0.950 . S
C441 C440 1.327 . S
C441 C445 1.429 . S
C442 C425 1.574 . S
C442 H436 0.949 . S
C442 C446 1.368 . S
C443 C424 1.429 . S
C443 C437 1.429 . S
C443 C444 1.523 . S
C444 C425 1.368 . S
C444 C438 1.368 . S
C444 C443 1.523 . S
C445 C429 1.429 . S
C445 C441 1.429 . S
C445 C446 1.523 . S
C446 C430 1.368 . S
C446 C442 1.368 . S
C446 C445 1.523 . S
H447 C422 0.950 . S
H448 C424 0.950 . S
H449 C425 0.949 . S
H450 C427 0.950 . S
H451 C429 0.950 . S
C452 C453 1.349 . S
C452 C454 1.327 . S
C452 H477 0.950 . S
C453 C452 1.349 . S
C453 C469 1.349 . S
C454 C452 1.327 . S
C454 C473 1.429 . S
C454 H478 0.950 . S
C455 C472 1.574 . S
C455 C474 1.368 . S
C455 H479 0.949 . S
H456 C460 0.949 . S
C457 C458 1.349 . S
C457 C459 1.327 . S
C457 H480 0.950 . S
C458 C457 1.349 . S
C458 C470 1.349 . S
C459 C457 1.327 . S
C459 C475 1.429 . S
C459 H481 0.950 . S
C460 H456 0.949 . S
C460 C468 1.574 . S
C460 C476 1.368 . S
H461 C469 0.950 . S
H462 C467 0.950 . S
H463 C468 0.949 . S
H464 C470 0.950 . S
H465 C471 0.950 . S
H466 C472 0.949 . S
C467 H462 0.950 . S
C467 C469 1.327 . S
C467 C473 1.429 . S
C468 C460 1.574 . S
C468 H463 0.949 . S
C468 C474 1.368 . S
C469 C453 1.349 . S
C469 H461 0.950 . S
C469 C467 1.327 . S
C470 C458 1.349 . S
C470 H464 0.950 . S
C470 C471 1.327 . S
C471 H465 0.950 . S
C471 C470 1.327 . S
C471 C475 1.429 . S
C472 C455 1.574 . S
C472 H466 0.949 . S
C472 C476 1.368 . S
C473 C454 1.429 . S
C473 C467 1.429 . S
C473 C474 1.523 . S
C474 C455 1.368 . S
C474 C468 1.368 . S
C474 C473 1.523 . S
C475 C459 1.429 . S
C475 C471 1.429 . S
C475 C476 1.523 . S
C476 C460 1.368 . S
C476 C472 1.368 . S
C476 C475 1.523 . S
H477 C452 0.950 . S
H478 C454 0.950 . S
H479 C455 0.949 . S
H480 C457 0.950 . S
H481 C459 0.950 . S
C482 C483 1.349 . S
C482 C484 1.327 . S
C482 H507 0.950 . S
C483 C482 1.349 . S
C483 C499 1.349 . S
C484 C482 1.327 . S
C484 C503 1.429 . S
C484 H508 0.950 . S
C485 C502 1.574 . S
C485 C504 1.368 . S
C485 H509 0.949 . S
H486 C490 0.949 . S
C487 C488 1.349 . S
C487 C489 1.327 . S
C487 H510 0.950 . S
C488 C487 1.349 . S
C488 C500 1.349 . S
C489 C487 1.327 . S
C489 C505 1.429 . S
C489 H511 0.950 . S
C490 H486 0.949 . S
C490 C498 1.574 . S
C490 C506 1.368 . S
H491 C499 0.950 . S
H492 C497 0.950 . S
H493 C498 0.949 . S
H494 C500 0.950 . S
H495 C501 0.950 . S
H496 C502 0.949 . S
C497 H492 0.950 . S
C497 C499 1.327 . S
C497 C503 1.429 . S
C498 C490 1.574 . S
C498 H493 0.949 . S
C498 C504 1.368 . S
C499 C483 1.349 . S
C499 H491 0.950 . S
C499 C497 1.327 . S
C500 C488 1.349 . S
C500 H494 0.950 . S
C500 C501 1.327 . S
C501 H495 0.950 . S
C501 C500 1.327 . S
C501 C505 1.429 . S
C502 C485 1.574 . S
C502 H496 0.949 . S
C502 C506 1.368 . S
C503 C484 1.429 . S
C503 C497 1.429 . S
C503 C504 1.523 . S
C504 C485 1.368 . S
C504 C498 1.368 . S
C504 C503 1.523 . S
C505 C489 1.429 . S
C505 C501 1.429 . S
C505 C506 1.523 . S
C506 C490 1.368 . S
C506 C502 1.368 . S
C506 C505 1.523 . S
H507 C482 0.950 . S
H508 C484 0.950 . S
H509 C485 0.949 . S
H510 C487 0.950 . S
H511 C489 0.950 . S
C512 C513 1.349 . S
C512 C514 1.327 . S
C512 H537 0.950 . S
C513 C512 1.349 . S
C513 C529 1.349 . S
C514 C512 1.327 . S
C514 C533 1.429 . S
C514 H538 0.950 . S
C515 C532 1.574 1_545 S
C515 C534 1.368 . S
C515 H539 0.949 . S
H516 C520 0.949 . S
C517 C518 1.349 . S
C517 C519 1.327 . S
C517 H540 0.950 . S
C518 C517 1.349 . S
C518 C530 1.349 . S
C519 C517 1.327 . S
C519 C535 1.429 . S
C519 H541 0.950 . S
C520 H516 0.949 . S
C520 C528 1.574 1_565 S
C520 C536 1.368 . S
H521 C529 0.950 . S
H522 C527 0.950 . S
H523 C528 0.949 . S
H524 C530 0.950 . S
H525 C531 0.950 . S
H526 C532 0.949 . S
C527 H522 0.950 . S
C527 C529 1.327 . S
C527 C533 1.429 . S
C528 C520 1.574 1_545 S
C528 H523 0.949 . S
C528 C534 1.368 . S
C529 C513 1.349 . S
C529 H521 0.950 . S
C529 C527 1.327 . S
C530 C518 1.349 . S
C530 H524 0.950 . S
C530 C531 1.327 . S
C531 H525 0.950 . S
C531 C530 1.327 . S
C531 C535 1.429 . S
C532 C515 1.574 1_565 S
C532 H526 0.949 . S
C532 C536 1.368 . S
C533 C514 1.429 . S
C533 C527 1.429 . S
C533 C534 1.523 . S
C534 C515 1.368 . S
C534 C528 1.368 . S
C534 C533 1.523 . S
C535 C519 1.429 . S
C535 C531 1.429 . S
C535 C536 1.523 . S
C536 C520 1.368 . S
C536 C532 1.368 . S
C536 C535 1.523 . S
H537 C512 0.950 . S
H538 C514 0.950 . S
H539 C515 0.949 . S
H540 C517 0.950 . S
H541 C519 0.950 . S
C542 C543 1.349 . S
C542 C544 1.327 . S
C542 H567 0.950 . S
C543 C542 1.349 . S
C543 C559 1.349 . S
C544 C542 1.327 . S
C544 C563 1.429 . S
C544 H568 0.950 . S
C545 C562 1.574 1_655 S
C545 C564 1.368 . S
C545 H569 0.949 . S
H546 C550 0.949 . S
C547 C548 1.349 . S
C547 C549 1.327 . S
C547 H570 0.950 . S
C548 C547 1.349 . S
C548 C560 1.349 . S
C549 C547 1.327 . S
C549 C565 1.429 . S
C549 H571 0.950 . S
C550 H546 0.949 . S
C550 C558 1.574 1_455 S
C550 C566 1.368 . S
H551 C559 0.950 . S
H552 C557 0.950 . S
H553 C558 0.949 . S
H554 C560 0.950 . S
H555 C561 0.950 . S
H556 C562 0.949 . S
C557 H552 0.950 . S
C557 C559 1.327 . S
C557 C563 1.429 . S
C558 C550 1.574 1_655 S
C558 H553 0.949 . S
C558 C564 1.368 . S
C559 C543 1.349 . S
C559 H551 0.950 . S
C559 C557 1.327 . S
C560 C548 1.349 . S
C560 H554 0.950 . S
C560 C561 1.327 . S
C561 H555 0.950 . S
C561 C560 1.327 . S
C561 C565 1.429 . S
C562 C545 1.574 1_455 S
C562 H556 0.949 . S
C562 C566 1.368 . S
C563 C544 1.429 . S
C563 C557 1.429 . S
C563 C564 1.523 . S
C564 C545 1.368 . S
C564 C558 1.368 . S
C564 C563 1.523 . S
C565 C549 1.429 . S
C565 C561 1.429 . S
C565 C566 1.523 . S
C566 C550 1.368 . S
C566 C562 1.368 . S
C566 C565 1.523 . S
H567 C542 0.950 . S
H568 C544 0.950 . S
H569 C545 0.949 . S
H570 C547 0.950 . S
H571 C549 0.950 . S
C572 C573 1.349 . S
C572 C574 1.327 . S
C572 H597 0.950 . S
C573 C572 1.349 . S
C573 C589 1.349 . S
C574 C572 1.327 . S
C574 C593 1.429 . S
C574 H598 0.950 . S
C575 C592 1.574 . S
C575 C594 1.368 1_455 S
C575 H599 0.949 . S
H576 C580 0.949 . S
C577 C578 1.349 . S
C577 C579 1.327 . S
C577 H600 0.950 . S
C578 C577 1.349 . S
C578 C590 1.349 . S
C579 C577 1.327 . S
C579 C595 1.429 . S
C579 H601 0.950 . S
C580 H576 0.949 . S
C580 C588 1.574 . S
C580 C596 1.368 1_655 S
H581 C589 0.950 . S
H582 C587 0.974 . S
H583 C588 0.949 . S
H584 C590 0.950 . S
H585 C591 0.974 . S
H586 C592 0.949 . S
C587 H582 0.974 . S
C587 C589 1.327 . S
C587 C593 1.429 . S
C588 C580 1.574 . S
C588 H583 0.949 . S
C588 C594 1.368 . S
C589 C573 1.349 . S
C589 H581 0.950 . S
C589 C587 1.327 . S
C590 C578 1.349 . S
C590 H584 0.950 . S
C590 C591 1.327 . S
C591 H585 0.974 . S
C591 C590 1.327 . S
C591 C595 1.429 . S
C592 C575 1.574 . S
C592 H586 0.949 . S
C592 C596 1.368 . S
C593 C574 1.429 . S
C593 C587 1.429 . S
C593 C594 1.523 . S
C594 C575 1.368 1_655 S
C594 C588 1.368 . S
C594 C593 1.523 . S
C595 C579 1.429 . S
C595 C591 1.429 . S
C595 C596 1.523 . S
C596 C580 1.368 1_455 S
C596 C592 1.368 . S
C596 C595 1.523 . S
H597 C572 0.950 . S
H598 C574 0.950 . S
H599 C575 0.949 . S
H600 C577 0.950 . S
H601 C579 0.950 . S
C602 C603 1.349 . S
C602 C604 1.327 . S
C602 H627 0.950 . S
C603 C602 1.349 . S
C603 C619 1.349 . S
C604 C602 1.327 . S
C604 C623 1.429 . S
C604 H628 0.974 . S
C605 C622 1.574 . S
C605 C624 1.368 . S
C605 H629 0.949 . S
H606 C610 0.949 . S
C607 C608 1.349 . S
C607 C609 1.327 . S
C607 H630 0.950 . S
C608 C607 1.349 . S
C608 C620 1.349 . S
C609 C607 1.327 . S
C609 C625 1.429 . S
C609 H631 0.974 . S
C610 H606 0.949 . S
C610 C618 1.574 . S
C610 C626 1.368 . S
H611 C619 0.950 . S
H612 C617 0.950 . S
H613 C618 0.949 . S
H614 C620 0.950 . S
H615 C621 0.950 . S
H616 C622 0.949 . S
C617 H612 0.950 . S
C617 C619 1.327 . S
C617 C623 1.429 . S
C618 C610 1.574 . S
C618 H613 0.949 . S
C618 C624 1.368 1_565 S
C619 C603 1.349 . S
C619 H611 0.950 . S
C619 C617 1.327 . S
C620 C608 1.349 . S
C620 H614 0.950 . S
C620 C621 1.327 . S
C621 H615 0.950 . S
C621 C620 1.327 . S
C621 C625 1.429 . S
C622 C605 1.574 . S
C622 H616 0.949 . S
C622 C626 1.368 1_545 S
C623 C604 1.429 . S
C623 C617 1.429 . S
C623 C624 1.523 . S
C624 C605 1.368 . S
C624 C618 1.368 1_545 S
C624 C623 1.523 . S
C625 C609 1.429 . S
C625 C621 1.429 . S
C625 C626 1.523 . S
C626 C610 1.368 . S
C626 C622 1.368 1_565 S
C626 C625 1.523 . S
H627 C602 0.950 . S
H628 C604 0.974 . S
H629 C605 0.949 . S
H630 C607 0.950 . S
H631 C609 0.974 . S
C632 C633 1.349 . S
C632 C634 1.327 . S
C632 H657 0.950 . S
C633 C632 1.349 . S
C633 C649 1.349 . S
C634 C632 1.327 . S
C634 C653 1.429 . S
C634 H658 0.950 . S
C635 C652 1.574 . S
C635 C654 1.368 . S
C635 H659 0.949 . S
H636 C640 0.949 . S
C637 C638 1.349 . S
C637 C639 1.327 . S
C637 H660 0.950 . S
C638 C637 1.349 . S
C638 C650 1.349 . S
C639 C637 1.327 . S
C639 C655 1.429 . S
C639 H661 0.950 . S
C640 H636 0.949 . S
C640 C648 1.574 . S
C640 C656 1.368 . S
H641 C649 0.950 . S
H642 C647 0.950 . S
H643 C648 0.949 . S
H644 C650 0.950 . S
H645 C651 0.950 . S
H646 C652 0.949 . S
C647 H642 0.950 . S
C647 C649 1.327 . S
C647 C653 1.429 . S
C648 C640 1.574 . S
C648 H643 0.949 . S
C648 C654 1.368 . S
C649 C633 1.349 . S
C649 H641 0.950 . S
C649 C647 1.327 . S
C650 C638 1.349 . S
C650 H644 0.950 . S
C650 C651 1.327 . S
C651 H645 0.950 . S
C651 C650 1.327 . S
C651 C655 1.429 . S
C652 C635 1.574 . S
C652 H646 0.949 . S
C652 C656 1.368 . S
C653 C634 1.429 . S
C653 C647 1.429 . S
C653 C654 1.523 . S
C654 C635 1.368 . S
C654 C648 1.368 . S
C654 C653 1.523 . S
C655 C639 1.429 . S
C655 C651 1.429 . S
C655 C656 1.523 . S
C656 C640 1.368 . S
C656 C652 1.368 . S
C656 C655 1.523 . S
H657 C632 0.950 . S
H658 C634 0.950 . S
H659 C635 0.949 . S
H660 C637 0.950 . S
H661 C639 0.950 . S
C662 C663 1.349 . S
C662 C664 1.327 . S
C662 H687 0.950 . S
C663 C662 1.349 . S
C663 C679 1.349 . S
C664 C662 1.327 . S
C664 C683 1.429 . S
C664 H688 0.950 . S
C665 C682 1.574 . S
C665 C684 1.368 . S
C665 H689 0.949 . S
H666 C670 0.949 . S
C667 C668 1.349 . S
C667 C669 1.327 . S
C667 H690 0.950 . S
C668 C667 1.349 . S
C668 C680 1.349 . S
C669 C667 1.327 . S
C669 C685 1.429 . S
C669 H691 0.950 . S
C670 H666 0.949 . S
C670 C678 1.574 . S
C670 C686 1.368 . S
H671 C679 0.950 . S
H672 C677 0.950 . S
H673 C678 0.949 . S
H674 C680 0.950 . S
H675 C681 0.950 . S
H676 C682 0.949 . S
C677 H672 0.950 . S
C677 C679 1.327 . S
C677 C683 1.429 . S
C678 C670 1.574 . S
C678 H673 0.949 . S
C678 C684 1.368 . S
C679 C663 1.349 . S
C679 H671 0.950 . S
C679 C677 1.327 . S
C680 C668 1.349 . S
C680 H674 0.950 . S
C680 C681 1.327 . S
C681 H675 0.950 . S
C681 C680 1.327 . S
C681 C685 1.429 . S
C682 C665 1.574 . S
C682 H676 0.949 . S
C682 C686 1.368 . S
C683 C664 1.429 . S
C683 C677 1.429 . S
C683 C684 1.523 . S
C684 C665 1.368 . S
C684 C678 1.368 . S
C684 C683 1.523 . S
C685 C669 1.429 . S
C685 C681 1.429 . S
C685 C686 1.523 . S
C686 C670 1.368 . S
C686 C682 1.368 . S
C686 C685 1.523 . S
H687 C662 0.950 . S
H688 C664 0.950 . S
H689 C665 0.949 . S
H690 C667 0.950 . S
H691 C669 0.950 . S
C692 C693 1.349 . S
C692 C694 1.327 . S
C692 H717 0.950 . S
C693 C692 1.349 . S
C693 C709 1.349 . S
C694 C692 1.327 . S
C694 C713 1.429 . S
C694 H718 0.950 . S
C695 C712 1.574 . S
C695 C714 1.368 . S
C695 H719 0.949 . S
H696 C700 0.949 . S
C697 C698 1.349 . S
C697 C699 1.327 . S
C697 H720 0.950 . S
C698 C697 1.349 . S
C698 C710 1.349 . S
C699 C697 1.327 . S
C699 C715 1.429 . S
C699 H721 0.950 . S
C700 H696 0.949 . S
C700 C708 1.574 . S
C700 C716 1.368 . S
H701 C709 0.950 . S
H702 C707 0.950 . S
H703 C708 0.949 . S
H704 C710 0.950 . S
H705 C711 0.950 . S
H706 C712 0.949 . S
C707 H702 0.950 . S
C707 C709 1.327 . S
C707 C713 1.429 . S
C708 C700 1.574 . S
C708 H703 0.949 . S
C708 C714 1.368 . S
C709 C693 1.349 . S
C709 H701 0.950 . S
C709 C707 1.327 . S
C710 C698 1.349 . S
C710 H704 0.950 . S
C710 C711 1.327 . S
C711 H705 0.950 . S
C711 C710 1.327 . S
C711 C715 1.429 . S
C712 C695 1.574 . S
C712 H706 0.949 . S
C712 C716 1.368 . S
C713 C694 1.429 . S
C713 C707 1.429 . S
C713 C714 1.523 . S
C714 C695 1.368 . S
C714 C708 1.368 . S
C714 C713 1.523 . S
C715 C699 1.429 . S
C715 C711 1.429 . S
C715 C716 1.523 . S
C716 C700 1.368 . S
C716 C712 1.368 . S
C716 C715 1.523 . S
H717 C692 0.950 . S
H718 C694 0.950 . S
H719 C695 0.949 . S
H720 C697 0.950 . S
H721 C699 0.950 . S
C722 C723 1.349 . S
C722 C724 1.327 . S
C722 H747 0.950 . S
C723 C722 1.349 . S
C723 C739 1.349 . S
C724 C722 1.327 . S
C724 C743 1.429 . S
C724 H748 0.950 . S
C725 C742 1.574 . S
C725 C744 1.368 . S
C725 H749 0.949 . S
H726 C730 0.949 . S
C727 C728 1.349 . S
C727 C729 1.327 . S
C727 H750 0.950 . S
C728 C727 1.349 . S
C728 C740 1.349 . S
C729 C727 1.327 . S
C729 C745 1.429 . S
C729 H751 0.950 . S
C730 H726 0.949 . S
C730 C738 1.574 . S
C730 C746 1.368 . S
H731 C739 0.950 . S
H732 C737 0.950 . S
H733 C738 0.949 . S
H734 C740 0.950 . S
H735 C741 0.950 . S
H736 C742 0.949 . S
C737 H732 0.950 . S
C737 C739 1.327 . S
C737 C743 1.429 . S
C738 C730 1.574 . S
C738 H733 0.949 . S
C738 C744 1.368 . S
C739 C723 1.349 . S
C739 H731 0.950 . S
C739 C737 1.327 . S
C740 C728 1.349 . S
C740 H734 0.950 . S
C740 C741 1.327 . S
C741 H735 0.950 . S
C741 C740 1.327 . S
C741 C745 1.429 . S
C742 C725 1.574 . S
C742 H736 0.949 . S
C742 C746 1.368 . S
C743 C724 1.429 . S
C743 C737 1.429 . S
C743 C744 1.523 . S
C744 C725 1.368 . S
C744 C738 1.368 . S
C744 C743 1.523 . S
C745 C729 1.429 . S
C745 C741 1.429 . S
C745 C746 1.523 . S
C746 C730 1.368 . S
C746 C742 1.368 . S
C746 C745 1.523 . S
H747 C722 0.950 . S
H748 C724 0.950 . S
H749 C725 0.949 . S
H750 C727 0.950 . S
H751 C729 0.950 . S
C752 C753 1.349 . S
C752 C754 1.327 . S
C752 H777 0.950 1_455 S
C753 C752 1.349 . S
C753 C769 1.349 . S
C754 C752 1.327 . S
C754 C773 1.429 . S
C754 H778 0.950 . S
C755 C772 1.574 . S
C755 C774 1.368 . S
C755 H779 0.949 . S
H756 C760 0.949 . S
C757 C758 1.349 . S
C757 C759 1.327 . S
C757 H780 0.950 . S
C758 C757 1.349 . S
C758 C770 1.349 . S
C759 C757 1.327 . S
C759 C775 1.429 . S
C759 H781 0.950 . S
C760 H756 0.949 . S
C760 C768 1.574 . S
C760 C776 1.368 . S
H761 C769 0.950 . S
H762 C767 0.950 . S
H763 C768 0.949 . S
H764 C770 0.950 . S
H765 C771 0.950 . S
H766 C772 0.949 . S
C767 H762 0.950 . S
C767 C769 1.327 . S
C767 C773 1.429 . S
C768 C760 1.574 . S
C768 H763 0.949 . S
C768 C774 1.368 . S
C769 C753 1.349 . S
C769 H761 0.950 . S
C769 C767 1.327 . S
C770 C758 1.349 . S
C770 H764 0.950 . S
C770 C771 1.327 . S
C771 H765 0.950 . S
C771 C770 1.327 . S
C771 C775 1.429 . S
C772 C755 1.574 . S
C772 H766 0.949 . S
C772 C776 1.368 . S
C773 C754 1.429 . S
C773 C767 1.429 . S
C773 C774 1.523 . S
C774 C755 1.368 . S
C774 C768 1.368 . S
C774 C773 1.523 . S
C775 C759 1.429 . S
C775 C771 1.429 . S
C775 C776 1.523 . S
C776 C760 1.368 . S
C776 C772 1.368 . S
C776 C775 1.523 . S
H777 C752 0.950 1_655 S
H778 C754 0.950 . S
H779 C755 0.949 . S
H780 C757 0.950 . S
H781 C759 0.950 . S
C782 C783 1.349 . S
C782 C784 1.327 . S
C782 H807 0.950 . S
C783 C782 1.349 . S
C783 C799 1.349 . S
C784 C782 1.327 . S
C784 C803 1.429 . S
C784 H808 0.950 . S
C785 C802 1.574 . S
C785 C804 1.368 . S
C785 H809 0.949 . S
H786 C790 0.949 . S
C787 C788 1.349 . S
C787 C789 1.327 . S
C787 H810 0.950 . S
C788 C787 1.349 . S
C788 C800 1.349 . S
C789 C787 1.327 . S
C789 C805 1.429 . S
C789 H811 0.950 . S
C790 H786 0.949 . S
C790 C798 1.574 . S
C790 C806 1.368 . S
H791 C799 0.950 1_545 S
H792 C797 0.950 . S
H793 C798 0.949 . S
H794 C800 0.950 . S
H795 C801 0.950 . S
H796 C802 0.949 . S
C797 H792 0.950 . S
C797 C799 1.327 . S
C797 C803 1.429 . S
C798 C790 1.574 . S
C798 H793 0.949 . S
C798 C804 1.368 . S
C799 C783 1.349 . S
C799 H791 0.950 1_565 S
C799 C797 1.327 . S
C800 C788 1.349 . S
C800 H794 0.950 . S
C800 C801 1.327 . S
C801 H795 0.950 . S
C801 C800 1.327 . S
C801 C805 1.429 . S
C802 C785 1.574 . S
C802 H796 0.949 . S
C802 C806 1.368 . S
C803 C784 1.429 . S
C803 C797 1.429 . S
C803 C804 1.523 . S
C804 C785 1.368 . S
C804 C798 1.368 . S
C804 C803 1.523 . S
C805 C789 1.429 . S
C805 C801 1.429 . S
C805 C806 1.523 . S
C806 C790 1.368 . S
C806 C802 1.368 . S
C806 C805 1.523 . S
H807 C782 0.950 . S
H808 C784 0.950 . S
H809 C785 0.949 . S
H810 C787 0.950 . S
H811 C789 0.950 . S
C812 C813 1.349 . S
C812 C814 1.327 . S
C812 H837 0.950 . S
C813 C812 1.349 . S
C813 C829 1.349 . S
C814 C812 1.327 . S
C814 C833 1.429 . S
C814 H838 0.950 . S
C815 C832 1.574 . S
C815 C834 1.368 . S
C815 H839 0.949 . S
H816 C820 0.949 . S
C817 C818 1.349 . S
C817 C819 1.327 . S
C817 H840 0.950 . S
C818 C817 1.349 . S
C818 C830 1.349 . S
C819 C817 1.327 . S
C819 C835 1.429 . S
C819 H841 0.950 . S
C820 H816 0.949 . S
C820 C828 1.574 . S
C820 C836 1.368 . S
H821 C829 0.950 . S
H822 C827 0.950 . S
H823 C828 0.949 . S
H824 C830 0.950 . S
H825 C831 0.950 . S
H826 C832 0.949 . S
C827 H822 0.950 . S
C827 C829 1.327 . S
C827 C833 1.429 . S
C828 C820 1.574 . S
C828 H823 0.949 . S
C828 C834 1.368 . S
C829 C813 1.349 . S
C829 H821 0.950 . S
C829 C827 1.327 . S
C830 C818 1.349 . S
C830 H824 0.950 . S
C830 C831 1.327 . S
C831 H825 0.950 . S
C831 C830 1.327 . S
C831 C835 1.429 . S
C832 C815 1.574 . S
C832 H826 0.949 . S
C832 C836 1.368 . S
C833 C814 1.429 . S
C833 C827 1.429 . S
C833 C834 1.523 . S
C834 C815 1.368 . S
C834 C828 1.368 . S
C834 C833 1.523 . S
C835 C819 1.429 . S
C835 C831 1.429 . S
C835 C836 1.523 . S
C836 C820 1.368 . S
C836 C832 1.368 . S
C836 C835 1.523 . S
H837 C812 0.950 . S
H838 C814 0.950 . S
H839 C815 0.949 . S
H840 C817 0.950 . S
H841 C819 0.950 . S
C842 C843 1.349 . S
C842 C844 1.327 . S
C842 H867 0.950 . S
C843 C842 1.349 . S
C843 C859 1.349 . S
C844 C842 1.327 . S
C844 C863 1.429 . S
C844 H868 0.950 . S
C845 C862 1.574 . S
C845 C864 1.368 . S
C845 H869 0.949 . S
H846 C850 0.949 . S
C847 C848 1.349 . S
C847 C849 1.327 . S
C847 H870 0.950 1_545 S
C848 C847 1.349 . S
C848 C860 1.349 . S
C849 C847 1.327 . S
C849 C865 1.429 . S
C849 H871 0.950 . S
C850 H846 0.949 . S
C850 C858 1.574 . S
C850 C866 1.368 . S
H851 C859 0.950 . S
H852 C857 0.950 . S
H853 C858 0.949 . S
H854 C860 0.950 . S
H855 C861 0.950 . S
H856 C862 0.949 . S
C857 H852 0.950 . S
C857 C859 1.327 . S
C857 C863 1.429 . S
C858 C850 1.574 . S
C858 H853 0.949 . S
C858 C864 1.368 . S
C859 C843 1.349 . S
C859 H851 0.950 . S
C859 C857 1.327 . S
C860 C848 1.349 . S
C860 H854 0.950 . S
C860 C861 1.327 . S
C861 H855 0.950 . S
C861 C860 1.327 . S
C861 C865 1.429 . S
C862 C845 1.574 . S
C862 H856 0.949 . S
C862 C866 1.368 . S
C863 C844 1.429 . S
C863 C857 1.429 . S
C863 C864 1.523 . S
C864 C845 1.368 . S
C864 C858 1.368 . S
C864 C863 1.523 . S
C865 C849 1.429 . S
C865 C861 1.429 . S
C865 C866 1.523 . S
C866 C850 1.368 . S
C866 C862 1.368 . S
C866 C865 1.523 . S
H867 C842 0.950 . S
H868 C844 0.950 . S
H869 C845 0.949 . S
H870 C847 0.950 1_565 S
H871 C849 0.950 . S
C872 C873 1.349 . S
C872 C874 1.327 . S
C872 H897 0.950 . S
C873 C872 1.349 . S
C873 C889 1.349 . S
C874 C872 1.327 . S
C874 C893 1.429 . S
C874 H898 0.950 . S
C875 C892 1.574 . S
C875 C894 1.368 . S
C875 H899 0.949 . S
H876 C880 0.949 . S
C877 C878 1.349 . S
C877 C879 1.327 . S
C877 H900 0.950 . S
C878 C877 1.349 . S
C878 C890 1.349 . S
C879 C877 1.327 . S
C879 C895 1.429 . S
C879 H901 0.950 . S
C880 H876 0.949 . S
C880 C888 1.574 . S
C880 C896 1.368 . S
H881 C889 0.950 . S
H882 C887 0.950 . S
H883 C888 0.949 . S
H884 C890 0.950 . S
H885 C891 0.950 . S
H886 C892 0.949 . S
C887 H882 0.950 . S
C887 C889 1.327 . S
C887 C893 1.429 . S
C888 C880 1.574 . S
C888 H883 0.949 . S
C888 C894 1.368 . S
C889 C873 1.349 . S
C889 H881 0.950 . S
C889 C887 1.327 . S
C890 C878 1.349 . S
C890 H884 0.950 . S
C890 C891 1.327 . S
C891 H885 0.950 . S
C891 C890 1.327 . S
C891 C895 1.429 . S
C892 C875 1.574 . S
C892 H886 0.949 . S
C892 C896 1.368 . S
C893 C874 1.429 . S
C893 C887 1.429 . S
C893 C894 1.523 . S
C894 C875 1.368 . S
C894 C888 1.368 . S
C894 C893 1.523 . S
C895 C879 1.429 . S
C895 C891 1.429 . S
C895 C896 1.523 . S
C896 C880 1.368 . S
C896 C892 1.368 . S
C896 C895 1.523 . S
H897 C872 0.950 . S
H898 C874 0.950 . S
H899 C875 0.949 . S
H900 C877 0.950 . S
H901 C879 0.950 . S
C902 C903 1.349 . S
C902 C904 1.327 . S
C902 H927 0.950 . S
C903 C902 1.349 . S
C903 C919 1.349 . S
C904 C902 1.327 . S
C904 C923 1.429 . S
C904 H928 0.950 . S
C905 C922 1.574 . S
C905 C924 1.368 . S
C905 H929 0.949 . S
H906 C910 0.949 . S
C907 C908 1.349 . S
C907 C909 1.327 . S
C907 H930 0.950 . S
C908 C907 1.349 . S
C908 C920 1.349 . S
C909 C907 1.327 . S
C909 C925 1.429 . S
C909 H931 0.950 . S
C910 H906 0.949 . S
C910 C918 1.574 . S
C910 C926 1.368 . S
H911 C919 0.950 . S
H912 C917 0.950 . S
H913 C918 0.949 . S
H914 C920 0.950 . S
H915 C921 0.950 . S
H916 C922 0.949 . S
C917 H912 0.950 . S
C917 C919 1.327 . S
C917 C923 1.429 . S
C918 C910 1.574 . S
C918 H913 0.949 . S
C918 C924 1.368 . S
C919 C903 1.349 . S
C919 H911 0.950 . S
C919 C917 1.327 . S
C920 C908 1.349 . S
C920 H914 0.950 . S
C920 C921 1.327 . S
C921 H915 0.950 . S
C921 C920 1.327 . S
C921 C925 1.429 . S
C922 C905 1.574 . S
C922 H916 0.949 . S
C922 C926 1.368 . S
C923 C904 1.429 . S
C923 C917 1.429 . S
C923 C924 1.523 . S
C924 C905 1.368 . S
C924 C918 1.368 . S
C924 C923 1.523 . S
C925 C909 1.429 . S
C925 C921 1.429 . S
C925 C926 1.523 . S
C926 C910 1.368 . S
C926 C922 1.368 . S
C926 C925 1.523 . S
H927 C902 0.950 . S
H928 C904 0.950 . S
H929 C905 0.949 . S
H930 C907 0.950 . S
H931 C909 0.950 . S
C932 C933 1.349 . S
C932 C934 1.327 . S
C932 H957 0.950 . S
C933 C932 1.349 . S
C933 C949 1.349 . S
C934 C932 1.327 . S
C934 C953 1.429 . S
C934 H958 0.950 . S
C935 C952 1.574 . S
C935 C954 1.368 . S
C935 H959 0.949 . S
H936 C940 0.949 . S
C937 C938 1.349 . S
C937 C939 1.327 . S
C937 H960 0.950 . S
C938 C937 1.349 . S
C938 C950 1.349 . S
C939 C937 1.327 . S
C939 C955 1.429 . S
C939 H961 0.950 . S
C940 H936 0.949 . S
C940 C948 1.574 . S
C940 C956 1.368 . S
H941 C949 0.950 . S
H942 C947 0.950 . S
H943 C948 0.949 . S
H944 C950 0.950 . S
H945 C951 0.950 . S
H946 C952 0.949 . S
C947 H942 0.950 . S
C947 C949 1.327 . S
C947 C953 1.429 . S
C948 C940 1.574 . S
C948 H943 0.949 . S
C948 C954 1.368 . S
C949 C933 1.349 . S
C949 H941 0.950 . S
C949 C947 1.327 . S
C950 C938 1.349 . S
C950 H944 0.950 . S
C950 C951 1.327 . S
C951 H945 0.950 . S
C951 C950 1.327 . S
C951 C955 1.429 . S
C952 C935 1.574 . S
C952 H946 0.949 . S
C952 C956 1.368 . S
C953 C934 1.429 . S
C953 C947 1.429 . S
C953 C954 1.523 . S
C954 C935 1.368 . S
C954 C948 1.368 . S
C954 C953 1.523 . S
C955 C939 1.429 . S
C955 C951 1.429 . S
C955 C956 1.523 . S
C956 C940 1.368 . S
C956 C952 1.368 . S
C956 C955 1.523 . S
H957 C932 0.950 . S
H958 C934 0.950 . S
H959 C935 0.949 . S
H960 C937 0.950 . S
H961 C939 0.950 . S
C962 C963 1.349 . S
C962 C964 1.327 . S
C962 H987 0.950 . S
C963 C962 1.349 . S
C963 C979 1.349 . S
C964 C962 1.327 . S
C964 C983 1.429 . S
C964 H988 0.950 . S
C965 C982 1.574 . S
C965 C984 1.368 . S
C965 H989 0.949 . S
H966 C970 0.949 . S
C967 C968 1.349 . S
C967 C969 1.327 . S
C967 H990 0.950 . S
C968 C967 1.349 . S
C968 C980 1.349 . S
C969 C967 1.327 . S
C969 C985 1.429 . S
C969 H991 0.950 . S
C970 H966 0.949 . S
C970 C978 1.574 . S
C970 C986 1.368 . S
H971 C979 0.950 . S
H972 C977 0.950 . S
H973 C978 0.949 . S
H974 C980 0.950 . S
H975 C981 0.950 . S
H976 C982 0.949 . S
C977 H972 0.950 . S
C977 C979 1.327 . S
C977 C983 1.429 . S
C978 C970 1.574 . S
C978 H973 0.949 . S
C978 C984 1.368 . S
C979 C963 1.349 . S
C979 H971 0.950 . S
C979 C977 1.327 . S
C980 C968 1.349 . S
C980 H974 0.950 . S
C980 C981 1.327 . S
C981 H975 0.950 . S
C981 C980 1.327 . S
C981 C985 1.429 . S
C982 C965 1.574 . S
C982 H976 0.949 . S
C982 C986 1.368 . S
C983 C964 1.429 . S
C983 C977 1.429 . S
C983 C984 1.523 . S
C984 C965 1.368 . S
C984 C978 1.368 . S
C984 C983 1.523 . S
C985 C969 1.429 . S
C985 C981 1.429 . S
C985 C986 1.523 . S
C986 C970 1.368 . S
C986 C982 1.368 . S
C986 C985 1.523 . S
H987 C962 0.950 . S
H988 C964 0.950 . S
H989 C965 0.949 . S
H990 C967 0.950 . S
H991 C969 0.950 . S
C992 C993 1.349 . S
C992 C994 1.327 . S
C992 H1017 0.950 . S
C993 C992 1.349 . S
C993 C1009 1.349 . S
C994 C992 1.327 . S
C994 C1013 1.429 . S
C994 H1018 0.950 . S
C995 C1012 1.574 1_556 S
C995 C1014 1.368 . S
C995 H1019 0.949 . S
H996 C1000 0.949 . S
C997 C998 1.349 . S
C997 C999 1.327 . S
C997 H1020 0.950 . S
C998 C997 1.349 . S
C998 C1010 1.349 . S
C999 C997 1.327 . S
C999 C1015 1.429 . S
C999 H1021 0.950 . S
C1000 H996 0.949 . S
C1000 C1008 1.574 1_544 S
C1000 C1016 1.368 . S
H1001 C1009 0.950 . S
H1002 C1007 0.950 . S
H1003 C1008 0.949 . S
H1004 C1010 0.950 . S
H1005 C1011 0.950 . S
H1006 C1012 0.949 . S
C1007 H1002 0.950 . S
C1007 C1009 1.327 . S
C1007 C1013 1.429 . S
C1008 C1000 1.574 1_566 S
C1008 H1003 0.949 . S
C1008 C1014 1.368 1_565 S
C1009 C993 1.349 . S
C1009 H1001 0.950 . S
C1009 C1007 1.327 . S
C1010 C998 1.349 . S
C1010 H1004 0.950 . S
C1010 C1011 1.327 . S
C1011 H1005 0.950 . S
C1011 C1010 1.327 . S
C1011 C1015 1.429 . S
C1012 C995 1.574 1_554 S
C1012 H1006 0.949 . S
C1012 C1016 1.368 . S
C1013 C994 1.429 . S
C1013 C1007 1.429 . S
C1013 C1014 1.523 1_565 S
C1014 C995 1.368 . S
C1014 C1008 1.368 1_545 S
C1014 C1013 1.523 1_545 S
C1015 C999 1.429 . S
C1015 C1011 1.429 . S
C1015 C1016 1.523 . S
C1016 C1000 1.368 . S
C1016 C1012 1.368 . S
C1016 C1015 1.523 . S
H1017 C992 0.950 . S
H1018 C994 0.950 . S
H1019 C995 0.949 . S
H1020 C997 0.950 . S
H1021 C999 0.950 . S
C1022 C1023 1.349 . S
C1022 C1024 1.327 . S
C1022 H1047 0.950 . S
C1023 C1022 1.349 . S
C1023 C1039 1.349 . S
C1024 C1022 1.327 . S
C1024 C1043 1.429 . S
C1024 H1048 0.950 . S
C1025 C1042 1.574 . S
C1025 C1044 1.368 . S
C1025 H1049 0.949 . S
H1026 C1030 0.949 . S
C1027 C1028 1.349 . S
C1027 C1029 1.327 . S
C1027 H1050 0.950 . S
C1028 C1027 1.349 . S
C1028 C1040 1.349 . S
C1029 C1027 1.327 . S
C1029 C1045 1.429 . S
C1029 H1051 0.950 . S
C1030 H1026 0.949 . S
C1030 C1038 1.560 1_456 S
C1030 C1046 1.368 . S
H1031 C1039 0.950 . S
H1032 C1037 0.950 . S
H1033 C1038 0.949 . S
H1034 C1040 0.950 . S
H1035 C1041 0.950 . S
H1036 C1042 0.949 . S
C1037 H1032 0.950 . S
C1037 C1039 1.327 . S
C1037 C1043 1.429 . S
C1038 C1030 1.560 1_654 S
C1038 H1033 0.949 . S
C1038 C1044 1.382 1_655 S
C1039 C1023 1.349 . S
C1039 H1031 0.950 . S
C1039 C1037 1.327 . S
C1040 C1028 1.349 . S
C1040 H1034 0.950 . S
C1040 C1041 1.327 . S
C1041 H1035 0.950 . S
C1041 C1040 1.327 . S
C1041 C1045 1.429 . S
C1042 C1025 1.574 . S
C1042 H1036 0.949 . S
C1042 C1046 1.368 1_554 S
C1043 C1024 1.429 . S
C1043 C1037 1.429 . S
C1043 C1044 1.523 1_655 S
C1044 C1025 1.368 . S
C1044 C1038 1.382 1_455 S
C1044 C1043 1.523 1_455 S
C1045 C1029 1.429 . S
C1045 C1041 1.429 . S
C1045 C1046 1.523 . S
C1046 C1030 1.368 . S
C1046 C1042 1.368 1_556 S
C1046 C1045 1.523 . S
H1047 C1022 0.950 . S
H1048 C1024 0.950 . S
H1049 C1025 0.949 . S
H1050 C1027 0.950 . S
H1051 C1029 0.950 . S
C1052 C1053 1.349 . S
C1052 C1054 1.327 . S
C1052 H1077 0.950 . S
C1053 C1052 1.349 . S
C1053 C1069 1.349 . S
C1054 C1052 1.327 . S
C1054 C1073 1.429 . S
C1054 H1078 0.950 . S
C1055 C1072 1.574 1_565 S
C1055 C1074 1.368 . S
C1055 H1079 0.949 . S
H1056 C1060 0.949 . S
C1057 C1058 1.349 . S
C1057 C1059 1.327 . S
C1057 H1080 0.950 . S
C1058 C1057 1.349 . S
C1058 C1070 1.349 . S
C1059 C1057 1.327 . S
C1059 C1075 1.429 . S
C1059 H1081 0.950 . S
C1060 H1056 0.949 . S
C1060 C1068 1.574 . S
C1060 C1076 1.368 . S
H1061 C1069 0.950 . S
H1062 C1067 0.950 . S
H1063 C1068 0.949 . S
H1064 C1070 0.950 . S
H1065 C1071 0.950 . S
H1066 C1072 0.949 . S
C1067 H1062 0.950 . S
C1067 C1069 1.327 . S
C1067 C1073 1.429 . S
C1068 C1060 1.574 . S
C1068 H1063 0.949 . S
C1068 C1074 1.368 1_556 S
C1069 C1053 1.349 . S
C1069 H1061 0.950 . S
C1069 C1067 1.327 . S
C1070 C1058 1.349 . S
C1070 H1064 0.950 . S
C1070 C1071 1.327 . S
C1071 H1065 0.950 . S
C1071 C1070 1.327 . S
C1071 C1075 1.429 . S
C1072 C1055 1.574 1_545 S
C1072 H1066 0.949 . S
C1072 C1076 1.368 1_544 S
C1073 C1054 1.429 . S
C1073 C1067 1.429 . S
C1073 C1074 1.523 . S
C1074 C1055 1.368 . S
C1074 C1068 1.368 1_554 S
C1074 C1073 1.523 . S
C1075 C1059 1.429 . S
C1075 C1071 1.429 . S
C1075 C1076 1.523 1_545 S
C1076 C1060 1.368 . S
C1076 C1072 1.368 1_566 S
C1076 C1075 1.523 1_565 S
H1077 C1052 0.950 . S
H1078 C1054 0.950 . S
H1079 C1055 0.949 . S
H1080 C1057 0.950 . S
H1081 C1059 0.950 . S
C1082 C1083 1.349 . S
C1082 C1084 1.327 . S
C1082 H1107 0.950 . S
C1083 C1082 1.349 . S
C1083 C1099 1.349 . S
C1084 C1082 1.327 . S
C1084 C1103 1.429 . S
C1084 H1108 0.950 . S
C1085 C1102 1.574 1_556 S
C1085 C1104 1.368 . S
C1085 H1109 0.949 . S
H1086 C1090 0.949 . S
C1087 C1088 1.349 . S
C1087 C1089 1.327 . S
C1087 H1110 0.950 . S
C1088 C1087 1.349 . S
C1088 C1100 1.349 . S
C1089 C1087 1.327 . S
C1089 C1105 1.429 . S
C1089 H1111 0.950 . S
C1090 H1086 0.949 . S
C1090 C1098 1.585 . S
C1090 C1106 1.368 . S
H1091 C1099 0.950 . S
H1092 C1097 0.950 . S
H1093 C1098 0.948 1_556 S
H1094 C1100 0.950 . S
H1095 C1101 0.950 . S
H1096 C1102 0.949 1_455 S
C1097 H1092 0.950 . S
C1097 C1099 1.327 . S
C1097 C1103 1.429 . S
C1098 C1090 1.585 . S
C1098 H1093 0.948 1_554 S
C1098 C1104 1.358 1_554 S
C1099 C1083 1.349 . S
C1099 H1091 0.950 . S
C1099 C1097 1.327 . S
C1100 C1088 1.349 . S
C1100 H1094 0.950 . S
C1100 C1101 1.327 . S
C1101 H1095 0.950 . S
C1101 C1100 1.327 . S
C1101 C1105 1.429 . S
C1102 C1085 1.574 1_554 S
C1102 H1096 0.949 1_655 S
C1102 C1106 1.368 . S
C1103 C1084 1.429 . S
C1103 C1097 1.429 . S
C1103 C1104 1.523 . S
C1104 C1085 1.368 . S
C1104 C1098 1.358 1_556 S
C1104 C1103 1.523 . S
C1105 C1089 1.429 . S
C1105 C1101 1.429 . S
C1105 C1106 1.523 1_455 S
C1106 C1090 1.368 . S
C1106 C1102 1.368 . S
C1106 C1105 1.523 1_655 S
H1107 C1082 0.950 . S
H1108 C1084 0.950 . S
H1109 C1085 0.949 . S
H1110 C1087 0.950 . S
H1111 C1089 0.950 . S
C273 C1 1.479 . S
C278 C176 1.563 . S
C303 C232 1.563 . S
C308 C37 1.479 . S
C333 C244 1.563 . S
C338 C71 1.479 . S
C363 C105 1.479 . S
C368 C142 1.563 . S
C393 C139 1.479 . S
C398 C108 1.563 . S
C423 C173 1.479 . S
C428 C28 1.563 . S
C453 C205 1.479 . S
C458 C40 1.563 . S
C483 C241 1.479 . S
C488 C74 1.563 . S
C513 C22 0.984 . S
C518 C83 0.984 . S
C543 C117 0.984 . S
C548 C49 0.984 . S
C573 C151 0.984 . S
C578 C226 0.984 . S
C603 C185 0.984 . S
C608 C253 0.984 . S
C633 C6 2.322 . S
C638 C137 2.243 . S
C663 C171 2.243 . S
C668 C62 2.322 . S
C693 C96 2.322 . S
C698 C207 2.243 . S
C723 C239 2.243 . S
C728 C130 2.322 . S
C753 C164 2.322 1_455 S
C758 C3 2.243 . S
C783 C198 2.322 1_565 S
C788 C35 2.243 . S
C813 C69 2.243 . S
C818 C210 2.322 1_655 S
C843 C103 2.243 . S
C848 C266 2.322 1_545 S
C873 C15 0.721 . S
C878 C51 0.718 . S
C903 C85 0.718 . S
C908 C56 0.721 . S
C933 C119 0.718 . S
C938 C90 0.721 . S
C963 C17 0.718 . S
C968 C124 0.721 . S
C993 C255 0.718 . S
C998 C158 0.721 . S
C1023 C153 0.718 . S
C1028 C192 0.721 . S
C1053 C219 0.721 . S
C1058 C187 0.718 . S
C1083 C260 0.721 . S
C1088 C221 0.718 . S
