# Generated by pormake.
# Topology vbx, (6)-cn, num edge types: 1
# Building blocks:
#     Node 0, Type 0, BuildingBlock: IZENUY_clean_sbu_0, # of connection points: 6
#     Node 1, Type 0, BuildingBlock: IZENUY_clean_sbu_0, # of connection points: 6
#     Node 2, Type 0, BuildingBlock: IZENUY_clean_sbu_0, # of connection points: 6
#     Node 3, Type 0, BuildingBlock: IZENUY_clean_sbu_0, # of connection points: 6
#     Node 4, Type 0, BuildingBlock: IZENUY_clean_sbu_0, # of connection points: 6
#     Node 5, Type 0, BuildingBlock: IZENUY_clean_sbu_0, # of connection points: 6
#     Node 6, Type 0, BuildingBlock: IZENUY_clean_sbu_0, # of connection points: 6
#     Node 7, Type 0, BuildingBlock: IZENUY_clean_sbu_0, # of connection points: 6
#     Node 8, Type 0, BuildingBlock: IZENUY_clean_sbu_0, # of connection points: 6
#     Node 9, Type 0, BuildingBlock: IZENUY_clean_sbu_0, # of connection points: 6
#     Node 10, Type 0, BuildingBlock: IZENUY_clean_sbu_0, # of connection points: 6
#     Node 11, Type 0, BuildingBlock: IZENUY_clean_sbu_0, # of connection points: 6
#     Node 12, Type 0, BuildingBlock: IZENUY_clean_sbu_0, # of connection points: 6
#     Node 13, Type 0, BuildingBlock: IZENUY_clean_sbu_0, # of connection points: 6
#     Node 14, Type 0, BuildingBlock: IZENUY_clean_sbu_0, # of connection points: 6
#     Node 15, Type 0, BuildingBlock: IZENUY_clean_sbu_0, # of connection points: 6
#     Edge 16, Type (0, 0), BuildingBlock: CIFDUS_clean_linker_0, # of connection points: 2
#     Edge 17, Type (0, 0), BuildingBlock: CIFDUS_clean_linker_0, # of connection points: 2
#     Edge 18, Type (0, 0), BuildingBlock: CIFDUS_clean_linker_0, # of connection points: 2
#     Edge 19, Type (0, 0), BuildingBlock: CIFDUS_clean_linker_0, # of connection points: 2
#     Edge 20, Type (0, 0), BuildingBlock: CIFDUS_clean_linker_0, # of connection points: 2
#     Edge 21, Type (0, 0), BuildingBlock: CIFDUS_clean_linker_0, # of connection points: 2
#     Edge 22, Type (0, 0), BuildingBlock: CIFDUS_clean_linker_0, # of connection points: 2
#     Edge 23, Type (0, 0), BuildingBlock: CIFDUS_clean_linker_0, # of connection points: 2
#     Edge 24, Type (0, 0), BuildingBlock: CIFDUS_clean_linker_0, # of connection points: 2
#     Edge 25, Type (0, 0), BuildingBlock: CIFDUS_clean_linker_0, # of connection points: 2
#     Edge 26, Type (0, 0), BuildingBlock: CIFDUS_clean_linker_0, # of connection points: 2
#     Edge 27, Type (0, 0), BuildingBlock: CIFDUS_clean_linker_0, # of connection points: 2
#     Edge 28, Type (0, 0), BuildingBlock: CIFDUS_clean_linker_0, # of connection points: 2
#     Edge 29, Type (0, 0), BuildingBlock: CIFDUS_clean_linker_0, # of connection points: 2
#     Edge 30, Type (0, 0), BuildingBlock: CIFDUS_clean_linker_0, # of connection points: 2
#     Edge 31, Type (0, 0), BuildingBlock: CIFDUS_clean_linker_0, # of connection points: 2
#     Edge 32, Type (0, 0), BuildingBlock: CIFDUS_clean_linker_0, # of connection points: 2
#     Edge 33, Type (0, 0), BuildingBlock: CIFDUS_clean_linker_0, # of connection points: 2
#     Edge 34, Type (0, 0), BuildingBlock: CIFDUS_clean_linker_0, # of connection points: 2
#     Edge 35, Type (0, 0), BuildingBlock: CIFDUS_clean_linker_0, # of connection points: 2
#     Edge 36, Type (0, 0), BuildingBlock: CIFDUS_clean_linker_0, # of connection points: 2
#     Edge 37, Type (0, 0), BuildingBlock: CIFDUS_clean_linker_0, # of connection points: 2
#     Edge 38, Type (0, 0), BuildingBlock: CIFDUS_clean_linker_0, # of connection points: 2
#     Edge 39, Type (0, 0), BuildingBlock: CIFDUS_clean_linker_0, # of connection points: 2
#     Edge 40, Type (0, 0), BuildingBlock: CIFDUS_clean_linker_0, # of connection points: 2
#     Edge 41, Type (0, 0), BuildingBlock: CIFDUS_clean_linker_0, # of connection points: 2
#     Edge 42, Type (0, 0), BuildingBlock: CIFDUS_clean_linker_0, # of connection points: 2
#     Edge 43, Type (0, 0), BuildingBlock: CIFDUS_clean_linker_0, # of connection points: 2
#     Edge 44, Type (0, 0), BuildingBlock: CIFDUS_clean_linker_0, # of connection points: 2
#     Edge 45, Type (0, 0), BuildingBlock: CIFDUS_clean_linker_0, # of connection points: 2
#     Edge 46, Type (0, 0), BuildingBlock: CIFDUS_clean_linker_0, # of connection points: 2
#     Edge 47, Type (0, 0), BuildingBlock: CIFDUS_clean_linker_0, # of connection points: 2
#     Edge 48, Type (0, 0), BuildingBlock: CIFDUS_clean_linker_0, # of connection points: 2
#     Edge 49, Type (0, 0), BuildingBlock: CIFDUS_clean_linker_0, # of connection points: 2
#     Edge 50, Type (0, 0), BuildingBlock: CIFDUS_clean_linker_0, # of connection points: 2
#     Edge 51, Type (0, 0), BuildingBlock: CIFDUS_clean_linker_0, # of connection points: 2
#     Edge 52, Type (0, 0), BuildingBlock: CIFDUS_clean_linker_0, # of connection points: 2
#     Edge 53, Type (0, 0), BuildingBlock: CIFDUS_clean_linker_0, # of connection points: 2
#     Edge 54, Type (0, 0), BuildingBlock: CIFDUS_clean_linker_0, # of connection points: 2
#     Edge 55, Type (0, 0), BuildingBlock: CIFDUS_clean_linker_0, # of connection points: 2
#     Edge 56, Type (0, 0), BuildingBlock: CIFDUS_clean_linker_0, # of connection points: 2
#     Edge 57, Type (0, 0), BuildingBlock: CIFDUS_clean_linker_0, # of connection points: 2
#     Edge 58, Type (0, 0), BuildingBlock: CIFDUS_clean_linker_0, # of connection points: 2
#     Edge 59, Type (0, 0), BuildingBlock: CIFDUS_clean_linker_0, # of connection points: 2
#     Edge 60, Type (0, 0), BuildingBlock: CIFDUS_clean_linker_0, # of connection points: 2
#     Edge 61, Type (0, 0), BuildingBlock: CIFDUS_clean_linker_0, # of connection points: 2
#     Edge 62, Type (0, 0), BuildingBlock: CIFDUS_clean_linker_0, # of connection points: 2
#     Edge 63, Type (0, 0), BuildingBlock: CIFDUS_clean_linker_0, # of connection points: 2
# Relax obj value: 0.242
# Max RMSD: 0.243
# Mean RMSD: 0.243
data_MOF--net-vbx--node1-IZENUY_clean_sbu_0--edge1-CIFDUS_clean_linker_0
_symmetry_space_group_name_H-M    P1
_symmetry_Int_Tables_number       1
_symmetry_cell_setting            triclinic
loop_
_symmetry_equiv_pos_as_xyz
'x, y, z'
_cell_length_a     40.600559
_cell_length_b     24.138804
_cell_length_c     49.498166
_cell_angle_alpha  89.597807
_cell_angle_beta   90.231371
_cell_angle_gamma 89.509347
loop_
_atom_site_label
_atom_site_type_symbol
_atom_site_fract_x
_atom_site_fract_y
_atom_site_fract_z
_atom_type_partial_charge
Fe0 Fe 0.37695 0.433 0.11967 0.0
Fe1 Fe 0.37703 0.3312 0.08318 0.0
O2 O 0.35704 0.37358 0.10717 0.0
Fe3 Fe 0.31711 0.35696 0.11855 0.0
O4 O 0.30043 0.42243 0.10639 0.0
O5 O 0.3386 0.47343 0.12514 0.0
O6 O 0.37848 0.46337 0.08625 0.0
C7 C 0.39136 0.44033 0.06603 0.0
C8 C 0.35078 0.39142 0.16599 0.0
O9 O 0.3988 0.38909 0.06661 0.0
C10 C 0.34293 0.25328 0.11665 0.0
O11 O 0.41888 0.40371 0.11663 0.0
O12 O 0.41111 0.31661 0.10599 0.0
O13 O 0.32394 0.38353 0.15324 0.0
O14 O 0.37643 0.40542 0.15353 0.0
C15 C 0.31514 0.33238 0.06238 0.0
O16 O 0.35773 0.26567 0.09486 0.0
O17 O 0.33117 0.29082 0.13132 0.0
C18 C 0.42922 0.35397 0.11553 0.0
O19 O 0.34491 0.34381 0.05889 0.0
O20 O 0.30349 0.32657 0.08601 0.0
C21 C 0.31044 0.46886 0.11419 0.0
Fe22 Fe 0.65848 0.61294 0.62358 0.0
Fe23 Fe 0.66433 0.71968 0.59067 0.0
O24 O 0.68192 0.67121 0.61386 0.0
Fe25 Fe 0.72227 0.68005 0.62695 0.0
O26 O 0.73634 0.61154 0.61601 0.0
O27 O 0.6933 0.56699 0.63065 0.0
O28 O 0.65832 0.58769 0.58885 0.0
C29 C 0.64775 0.61618 0.56899 0.0
C30 C 0.68327 0.64679 0.6723 0.0
O31 O 0.64082 0.66716 0.57204 0.0
C32 C 0.70296 0.78907 0.62505 0.0
O33 O 0.61864 0.6473 0.61923 0.0
O34 O 0.62997 0.73505 0.61314 0.0
O35 O 0.7112 0.65431 0.66115 0.0
O36 O 0.658 0.6357 0.65834 0.0
C37 C 0.727 0.71258 0.57116 0.0
O38 O 0.68592 0.7809 0.60398 0.0
O39 O 0.71268 0.74873 0.63933 0.0
C40 C 0.61074 0.69778 0.62138 0.0
O41 O 0.69664 0.70734 0.56693 0.0
O42 O 0.73905 0.70858 0.59491 0.0
C43 C 0.72302 0.56701 0.62348 0.0
Fe44 Fe 0.30987 0.67325 0.87678 0.0
Fe45 Fe 0.37192 0.60289 0.86864 0.0
O46 O 0.35153 0.65834 0.88506 0.0
Fe47 Fe 0.37294 0.69735 0.90976 0.0
O48 O 0.34281 0.68193 0.93548 0.0
O49 O 0.29823 0.69459 0.91076 0.0
O50 O 0.29666 0.60333 0.88592 0.0
C51 C 0.30777 0.56036 0.87472 0.0
C52 C 0.33306 0.7791 0.88246 0.0
O53 O 0.33495 0.56191 0.86246 0.0
C54 C 0.42296 0.68134 0.87388 0.0
O55 O 0.31462 0.65545 0.84094 0.0
O56 O 0.36763 0.63762 0.83619 0.0
O57 O 0.35215 0.76357 0.90147 0.0
O58 O 0.31933 0.74409 0.86736 0.0
C59 C 0.38965 0.58592 0.9215 0.0
O60 O 0.41314 0.63214 0.87134 0.0
O61 O 0.40548 0.71643 0.88617 0.0
C62 C 0.34014 0.6524 0.82626 0.0
O63 O 0.37664 0.56595 0.90049 0.0
O64 O 0.39643 0.63714 0.92278 0.0
C65 C 0.31224 0.6904 0.93354 0.0
Fe66 Fe 0.65007 0.43578 0.37815 0.0
Fe67 Fe 0.65398 0.33139 0.41324 0.0
O68 O 0.67267 0.37663 0.38938 0.0
Fe69 Fe 0.71318 0.36445 0.37729 0.0
O70 O 0.72753 0.43357 0.38666 0.0
O71 O 0.68513 0.47899 0.37053 0.0
O72 O 0.65022 0.46378 0.41244 0.0
C73 C 0.63953 0.43742 0.43277 0.0
C74 C 0.67547 0.39707 0.33066 0.0
O75 O 0.6312 0.38715 0.43036 0.0
C76 C 0.69241 0.2561 0.38157 0.0
O77 O 0.60983 0.40472 0.38267 0.0
O78 O 0.61973 0.31686 0.39031 0.0
O79 O 0.70274 0.38704 0.34264 0.0
O80 O 0.64981 0.41051 0.34369 0.0
C81 C 0.71697 0.33811 0.43349 0.0
O82 O 0.67435 0.26791 0.4015 0.0
O83 O 0.70411 0.29394 0.36679 0.0
C84 C 0.60151 0.35476 0.3806 0.0
O85 O 0.68641 0.34247 0.43749 0.0
O86 O 0.72909 0.33963 0.40992 0.0
C87 C 0.71465 0.47805 0.37811 0.0
Fe88 Fe 0.66689 0.72526 0.91479 0.0
Fe89 Fe 0.66265 0.62186 0.87964 0.0
O90 O 0.68597 0.67738 0.89255 0.0
Fe91 Fe 0.72796 0.68379 0.8836 0.0
O92 O 0.74122 0.71087 0.91696 0.0
O93 O 0.69596 0.70952 0.94129 0.0
O94 O 0.64049 0.67284 0.93051 0.0
C95 C 0.64678 0.6216 0.93337 0.0
C96 C 0.70923 0.79316 0.88301 0.0
O97 O 0.6579 0.59395 0.91371 0.0
C98 C 0.69517 0.65604 0.83433 0.0
O99 O 0.63543 0.7443 0.89003 0.0
O100 O 0.62285 0.65837 0.88096 0.0
O101 O 0.72112 0.75267 0.87039 0.0
O102 O 0.69092 0.7857 0.90339 0.0
C103 C 0.72576 0.5712 0.88597 0.0
O104 O 0.66741 0.64751 0.84523 0.0
O105 O 0.72122 0.65954 0.84866 0.0
C106 C 0.61546 0.70943 0.88073 0.0
O107 O 0.69745 0.57426 0.87538 0.0
O108 O 0.73874 0.61405 0.8957 0.0
C109 C 0.72672 0.71226 0.93967 0.0
Fe110 Fe 0.35674 0.34544 0.41336 0.0
Fe111 Fe 0.36184 0.43588 0.36998 0.0
O112 O 0.33867 0.38415 0.38655 0.0
Fe113 Fe 0.29748 0.37189 0.37652 0.0
O114 O 0.28323 0.35225 0.4105 0.0
O115 O 0.32566 0.36836 0.4367 0.0
O116 O 0.38199 0.40283 0.42575 0.0
C117 C 0.37736 0.45454 0.42303 0.0
C118 C 0.31863 0.26533 0.38538 0.0
O119 O 0.36615 0.47437 0.40116 0.0
C120 C 0.33106 0.3891 0.32686 0.0
O121 O 0.38926 0.31956 0.39198 0.0
O122 O 0.40191 0.40056 0.37483 0.0
O123 O 0.30682 0.30008 0.36866 0.0
O124 O 0.33441 0.28134 0.40599 0.0
C125 C 0.29807 0.4849 0.37284 0.0
O126 O 0.35826 0.40043 0.33795 0.0
O127 O 0.30468 0.38814 0.34056 0.0
C128 C 0.40929 0.35035 0.37988 0.0
O129 O 0.32625 0.4809 0.36205 0.0
O130 O 0.28509 0.44309 0.38383 0.0
C131 C 0.29556 0.35815 0.43387 0.0
Fe132 Fe 0.67764 0.44721 0.12354 0.0
Fe133 Fe 0.73622 0.366 0.12447 0.0
O134 O 0.6958 0.38347 0.11351 0.0
Fe135 Fe 0.67335 0.33865 0.09213 0.0
O136 O 0.65232 0.39512 0.0738 0.0
O137 O 0.67568 0.47116 0.08852 0.0
O138 O 0.71642 0.48539 0.1272 0.0
C139 C 0.74408 0.4775 0.11625 0.0
C140 C 0.62348 0.37384 0.12441 0.0
O141 O 0.75326 0.42933 0.11016 0.0
C142 C 0.70959 0.26242 0.12581 0.0
O143 O 0.67885 0.4257 0.15864 0.0
O144 O 0.73056 0.39663 0.15818 0.0
O145 O 0.63986 0.33239 0.11638 0.0
O146 O 0.63524 0.42206 0.12231 0.0
C147 C 0.73489 0.33145 0.0698 0.0
O148 O 0.72327 0.30044 0.13906 0.0
O149 O 0.69136 0.27411 0.10572 0.0
C150 C 0.70444 0.40909 0.17098 0.0
O151 O 0.74809 0.33225 0.09299 0.0
O152 O 0.70467 0.34193 0.06645 0.0
C153 C 0.66172 0.44443 0.06983 0.0
Fe154 Fe 0.30847 0.68858 0.61968 0.0
Fe155 Fe 0.36293 0.71676 0.57878 0.0
O156 O 0.34809 0.67596 0.60589 0.0
Fe157 Fe 0.37297 0.62146 0.61895 0.0
O158 O 0.33851 0.57699 0.62908 0.0
O159 O 0.2948 0.61839 0.6121 0.0
O160 O 0.28961 0.71131 0.58741 0.0
C161 C 0.29918 0.70735 0.56313 0.0
C162 C 0.34939 0.66576 0.66541 0.0
O163 O 0.32884 0.69712 0.55781 0.0
C164 C 0.41916 0.70618 0.60831 0.0
O165 O 0.31864 0.75962 0.62807 0.0
O166 O 0.34193 0.78095 0.58938 0.0
O167 O 0.37441 0.65373 0.65159 0.0
O168 O 0.32098 0.66921 0.65451 0.0
C169 C 0.38165 0.60787 0.56474 0.0
O170 O 0.39842 0.73917 0.59798 0.0
O171 O 0.41227 0.6555 0.61163 0.0
C172 C 0.32806 0.79552 0.61115 0.0
O173 O 0.38604 0.65971 0.56285 0.0
O174 O 0.37264 0.58632 0.58677 0.0
C175 C 0.30892 0.57511 0.62097 0.0
Fe176 Fe 0.88499 0.93783 0.12285 0.0
Fe177 Fe 0.87744 0.8407 0.08397 0.0
O178 O 0.86065 0.88428 0.10926 0.0
Fe179 Fe 0.8198 0.87526 0.12091 0.0
O180 O 0.80761 0.94616 0.11185 0.0
O181 O 0.85043 0.9841 0.13098 0.0
O182 O 0.88692 0.97171 0.09016 0.0
C183 C 0.89675 0.94865 0.06879 0.0
C184 C 0.85738 0.89623 0.16865 0.0
O185 O 0.90168 0.89656 0.06811 0.0
C186 C 0.83847 0.76659 0.11605 0.0
O187 O 0.9246 0.90257 0.1176 0.0
O188 O 0.91165 0.8184 0.10554 0.0
O189 O 0.82984 0.89473 0.1562 0.0
O190 O 0.88371 0.90623 0.15604 0.0
C191 C 0.81523 0.85521 0.06403 0.0
O192 O 0.85481 0.7776 0.09483 0.0
O193 O 0.82848 0.80488 0.13115 0.0
C194 C 0.93217 0.85189 0.11527 0.0
O195 O 0.8456 0.86012 0.06045 0.0
O196 O 0.80321 0.85244 0.08769 0.0
C197 C 0.82144 0.98815 0.1217 0.0
Fe198 Fe 0.16072 0.12173 0.62463 0.0
Fe199 Fe 0.16637 0.21743 0.58446 0.0
O200 O 0.18362 0.17724 0.61105 0.0
Fe201 Fe 0.22363 0.19112 0.62377 0.0
O202 O 0.2383 0.1212 0.61591 0.0
O203 O 0.19646 0.07917 0.63445 0.0
O204 O 0.16088 0.08627 0.59243 0.0
C205 C 0.15022 0.10738 0.57063 0.0
C206 C 0.18496 0.16787 0.6705 0.0
O207 O 0.14417 0.15905 0.56901 0.0
C208 C 0.20201 0.29757 0.61551 0.0
O209 O 0.12034 0.15328 0.61778 0.0
O210 O 0.13112 0.23797 0.60467 0.0
O211 O 0.21294 0.17187 0.65905 0.0
O212 O 0.1597 0.15457 0.65718 0.0
C213 C 0.22947 0.21105 0.56694 0.0
O214 O 0.18638 0.28266 0.59455 0.0
O215 O 0.21266 0.26196 0.63229 0.0
C216 C 0.11158 0.20338 0.61481 0.0
O217 O 0.19983 0.19947 0.56256 0.0
O218 O 0.24046 0.21429 0.59092 0.0
C219 C 0.22548 0.07778 0.62537 0.0
Fe220 Fe 0.87208 0.21065 0.91108 0.0
Fe221 Fe 0.80873 0.19613 0.87759 0.0
O222 O 0.8488 0.17353 0.88684 0.0
Fe223 Fe 0.8654 0.11286 0.87207 0.0
O224 O 0.86844 0.07899 0.9048 0.0
O225 O 0.89239 0.14838 0.92547 0.0
O226 O 0.84078 0.20139 0.93656 0.0
C227 C 0.81099 0.21545 0.93385 0.0
C228 C 0.92085 0.18362 0.87567 0.0
O229 O 0.79845 0.22361 0.91076 0.0
C230 C 0.8367 0.16147 0.82798 0.0
O231 O 0.85488 0.27942 0.90168 0.0
O232 O 0.8239 0.26264 0.86626 0.0
O233 O 0.90819 0.13604 0.87372 0.0
O234 O 0.90556 0.22237 0.88737 0.0
C235 C 0.79878 0.0846 0.88005 0.0
O236 O 0.81187 0.17269 0.84246 0.0
O237 O 0.86305 0.1433 0.83855 0.0
C238 C 0.83765 0.29671 0.88182 0.0
O239 O 0.79064 0.13149 0.88885 0.0
O240 O 0.82568 0.07795 0.86763 0.0
C241 C 0.8833 0.09818 0.9251 0.0
Fe242 Fe 0.15403 0.94444 0.37353 0.0
Fe243 Fe 0.15662 0.84642 0.41306 0.0
O244 O 0.17565 0.88701 0.38756 0.0
Fe245 Fe 0.21589 0.87146 0.37605 0.0
O246 O 0.23102 0.94024 0.38479 0.0
O247 O 0.19038 0.98469 0.36499 0.0
O248 O 0.15365 0.97852 0.40601 0.0
C249 C 0.1425 0.95729 0.42748 0.0
C250 C 0.17976 0.89845 0.32824 0.0
O251 O 0.13518 0.90615 0.42852 0.0
C252 C 0.19262 0.76586 0.38231 0.0
O253 O 0.1132 0.91603 0.37893 0.0
O254 O 0.12185 0.82995 0.39114 0.0
O255 O 0.20693 0.89225 0.34084 0.0
O256 O 0.15386 0.91276 0.34054 0.0
C257 C 0.21949 0.84893 0.43271 0.0
O258 O 0.17588 0.78037 0.40271 0.0
O259 O 0.20459 0.80172 0.36656 0.0
C260 C 0.10401 0.86633 0.37982 0.0
O261 O 0.18947 0.85919 0.43674 0.0
O262 O 0.23108 0.84692 0.40901 0.0
C263 C 0.21914 0.98415 0.37465 0.0
Fe264 Fe 0.16605 0.19846 0.91675 0.0
Fe265 Fe 0.16392 0.10947 0.8731 0.0
O266 O 0.18593 0.16074 0.89084 0.0
Fe267 Fe 0.22769 0.17306 0.88285 0.0
O268 O 0.23998 0.19089 0.91764 0.0
O269 O 0.19567 0.17516 0.94167 0.0
O270 O 0.14073 0.13968 0.9278 0.0
C271 C 0.14696 0.08831 0.92557 0.0
C272 C 0.20655 0.27961 0.89101 0.0
O273 O 0.15891 0.0694 0.90396 0.0
C274 C 0.19649 0.15947 0.83174 0.0
O275 O 0.13432 0.22429 0.89383 0.0
O276 O 0.12339 0.14299 0.87682 0.0
O277 O 0.21907 0.24506 0.87493 0.0
O278 O 0.1887 0.26349 0.91052 0.0
C279 C 0.2274 0.06055 0.87785 0.0
O280 O 0.16872 0.14713 0.84153 0.0
O281 O 0.22222 0.159 0.8465 0.0
C282 C 0.11505 0.19275 0.8813 0.0
O283 O 0.19994 0.06578 0.8659 0.0
O284 O 0.23962 0.10121 0.89019 0.0
C285 C 0.22609 0.1834 0.94027 0.0
Fe286 Fe 0.86086 0.82775 0.41286 0.0
Fe287 Fe 0.86547 0.9276 0.37494 0.0
O288 O 0.8421 0.87251 0.38857 0.0
Fe289 Fe 0.8006 0.86333 0.37841 0.0
O290 O 0.78664 0.84068 0.41214 0.0
O291 O 0.83079 0.8457 0.43803 0.0
O292 O 0.88695 0.88152 0.42717 0.0
C293 C 0.8804 0.93261 0.42883 0.0
C294 C 0.82034 0.7542 0.38328 0.0
O295 O 0.86911 0.95857 0.40846 0.0
C296 C 0.83511 0.88814 0.32955 0.0
O297 O 0.89254 0.80637 0.38934 0.0
O298 O 0.9053 0.89141 0.37814 0.0
O299 O 0.8082 0.79187 0.36834 0.0
O300 O 0.83789 0.76614 0.40347 0.0
C301 C 0.80189 0.97725 0.37804 0.0
O302 O 0.86209 0.89933 0.34118 0.0
O303 O 0.80853 0.88344 0.34295 0.0
C304 C 0.91252 0.84025 0.37925 0.0
O305 O 0.83063 0.97445 0.3685 0.0
O306 O 0.78856 0.93426 0.38757 0.0
C307 C 0.80013 0.84049 0.43538 0.0
Fe308 Fe 0.23937 0.85726 0.12204 0.0
Fe309 Fe 0.17758 0.8313 0.0883 0.0
O310 O 0.19917 0.87497 0.11083 0.0
Fe311 Fe 0.18076 0.93712 0.12228 0.0
O312 O 0.21977 0.97511 0.12607 0.0
O313 O 0.25636 0.9201 0.10758 0.0
O314 O 0.25157 0.82221 0.09078 0.0
C315 C 0.23931 0.8229 0.06725 0.0
C316 C 0.20816 0.89796 0.16886 0.0
O317 O 0.20965 0.83638 0.06335 0.0
C318 C 0.12665 0.86316 0.1207 0.0
O319 O 0.22506 0.79337 0.13685 0.0
O320 O 0.19575 0.76599 0.10207 0.0
O321 O 0.18212 0.9127 0.15679 0.0
O322 O 0.23434 0.88835 0.15572 0.0
C323 C 0.16416 0.94043 0.06882 0.0
O324 O 0.14314 0.82296 0.11149 0.0
O325 O 0.13845 0.91152 0.12067 0.0
C326 C 0.21231 0.75496 0.12337 0.0
O327 O 0.15696 0.88926 0.07007 0.0
O328 O 0.17823 0.96421 0.08829 0.0
C329 C 0.24709 0.96792 0.11427 0.0
Fe330 Fe 0.80692 0.18915 0.62239 0.0
Fe331 Fe 0.86624 0.21694 0.5861 0.0
O332 O 0.846 0.17169 0.60896 0.0
Fe333 Fe 0.86532 0.10795 0.61795 0.0
O334 O 0.82729 0.06912 0.62405 0.0
O335 O 0.78828 0.12555 0.61013 0.0
O336 O 0.79186 0.22241 0.59113 0.0
C337 C 0.80298 0.22328 0.56721 0.0
C338 C 0.84355 0.14456 0.66691 0.0
O339 O 0.83281 0.21282 0.56229 0.0
C340 C 0.91829 0.18285 0.61667 0.0
O341 O 0.82132 0.25482 0.63552 0.0
O342 O 0.84921 0.28122 0.59996 0.0
O343 O 0.86754 0.1281 0.65286 0.0
O344 O 0.8163 0.15902 0.65601 0.0
C345 C 0.87619 0.11206 0.56363 0.0
O346 O 0.90135 0.22393 0.6087 0.0
O347 O 0.9073 0.13417 0.61436 0.0
C348 C 0.83364 0.29282 0.62125 0.0
O349 O 0.88613 0.16107 0.56709 0.0
O350 O 0.86386 0.085 0.58302 0.0
C351 C 0.79811 0.07734 0.61598 0.0
H352 H 0.33959 0.16616 0.08136 0.0
H353 H 0.31896 0.2122 0.16377 0.0
H354 H 0.28779 0.1276 0.17035 0.0
H355 H 0.26164 0.04504 0.15158 0.0
H356 H 0.28397 0.99494 0.07031 0.0
H357 H 0.31899 0.0765 0.06432 0.0
C358 C 0.32904 0.15698 0.10096 0.0
C359 C 0.33138 0.19599 0.12192 0.0
C360 C 0.31082 0.10802 0.10465 0.0
C361 C 0.31736 0.1833 0.14717 0.0
C362 C 0.29931 0.135 0.15096 0.0
C363 C 0.27436 0.05195 0.13263 0.0
C364 C 0.26993 1.01482 0.11126 0.0
C365 C 0.29499 0.09799 0.12962 0.0
C366 C 0.28698 1.02335 0.08697 0.0
C367 C 0.30697 0.06991 0.08357 0.0
H368 H 0.69616 0.88481 0.59481 0.0
H369 H 0.74475 0.81796 0.66584 0.0
H370 H 0.77792 0.90101 0.66931 0.0
H371 H 0.79663 0.98948 0.65033 0.0
H372 H 0.74692 0.05989 0.58093 0.0
H373 H 0.71089 0.97889 0.57867 0.0
C374 C 0.71353 0.88878 0.61136 0.0
C375 C 0.71798 0.84446 0.62986 0.0
C376 C 0.7328 0.93709 0.61332 0.0
C377 C 0.7407 0.85086 0.65118 0.0
C378 C 0.75993 0.89839 0.65313 0.0
C379 C 0.77782 0.98717 0.63476 0.0
C380 C 0.77477 0.03024 0.61557 0.0
C381 C 0.75682 0.9411 0.63395 0.0
C382 C 0.74985 0.02718 0.59586 0.0
C383 C 0.72927 0.98082 0.59457 0.0
H384 H 0.28334 0.82229 0.85173 0.0
H385 H 0.35557 0.86795 0.91158 0.0
H386 H 0.33035 0.96011 0.91489 0.0
H387 H 0.28494 0.02582 0.90307 0.0
H388 H 0.21207 0.97582 0.84442 0.0
H389 H 0.24027 0.88783 0.83866 0.0
C390 C 0.29401 0.85251 0.86524 0.0
C391 C 0.32138 0.83781 0.88138 0.0
C392 C 0.27889 0.90482 0.8676 0.0
C393 C 0.33456 0.87787 0.89884 0.0
C394 C 0.32 0.93061 0.90088 0.0
C395 C 0.27537 0.99578 0.88894 0.0
C396 C 0.24618 1.00776 0.87439 0.0
C397 C 0.29166 0.94423 0.88577 0.0
C398 C 0.23424 0.96806 0.85614 0.0
C399 C 0.25043 0.91749 0.8527 0.0
H400 H 0.73986 1.00633 0.39703 0.0
H401 H 0.82246 0.07032 0.35214 0.0
H402 H 0.7946 0.1589 0.34674 0.0
H403 H 0.74831 0.22096 0.35636 0.0
H404 H 0.66627 0.16083 0.40283 0.0
H405 H 0.69195 0.06882 0.40549 0.0
C406 C 0.75171 0.03958 0.38602 0.0
C407 C 0.78347 0.03104 0.37519 0.0
C408 C 0.73551 0.09155 0.38304 0.0
C409 C 0.79823 0.07508 0.36094 0.0
C410 C 0.78223 0.12611 0.35769 0.0
C411 C 0.73564 0.18754 0.36661 0.0
C412 C 0.70519 0.19809 0.37918 0.0
C413 C 0.75101 0.13509 0.36879 0.0
C414 C 0.68962 0.15411 0.3928 0.0
C415 C 0.70443 0.10141 0.3945 0.0
H416 H 0.79242 0.99812 0.84612 0.0
H417 H 0.75404 0.06568 0.9201 0.0
H418 H 0.72011 0.98315 0.92661 0.0
H419 H 0.705 0.88824 0.91292 0.0
H420 H 0.74291 0.8234 0.83797 0.0
H421 H 0.77284 0.9087 0.83004 0.0
C422 C 0.77645 0.99491 0.86358 0.0
C423 C 0.77601 0.03745 0.88277 0.0
C424 C 0.75686 0.94783 0.86701 0.0
C425 C 0.75481 0.03329 0.90506 0.0
C426 C 0.73549 0.98609 0.90882 0.0
C427 C 0.71927 0.8932 0.89461 0.0
C428 C 0.72198 0.849 0.87629 0.0
C429 C 0.73674 0.94259 0.89014 0.0
C430 C 0.74061 0.85634 0.85262 0.0
C431 C 0.75788 0.90512 0.84805 0.0
H432 H 0.27201 1.01908 0.40468 0.0
H433 H 0.21129 0.06235 0.33578 0.0
H434 H 0.23928 0.15039 0.33117 0.0
H435 H 0.27717 0.21889 0.34888 0.0
H436 H 0.33684 0.17928 0.41886 0.0
H437 H 0.31359 0.08633 0.42054 0.0
C438 C 0.26532 0.04753 0.38848 0.0
C439 C 0.23933 0.03438 0.37085 0.0
C440 C 0.28121 0.09908 0.38615 0.0
C441 C 0.23086 0.07173 0.34993 0.0
C442 C 0.24691 0.12216 0.34719 0.0
C443 C 0.28551 0.18978 0.36429 0.0
C444 C 0.3085 0.20646 0.38383 0.0
C445 C 0.27154 0.13687 0.36554 0.0
C446 C 0.31902 0.16783 0.4036 0.0
C447 C 0.30563 0.11461 0.40466 0.0
H448 H 0.75722 1.01525 0.1076 0.0
H449 H 0.84427 0.08125 0.14573 0.0
H450 H 0.81585 0.16829 0.15372 0.0
H451 H 0.76778 0.22844 0.14786 0.0
H452 H 0.68121 0.16671 0.10775 0.0
H453 H 0.70754 0.07561 0.10325 0.0
C454 C 0.76994 0.04864 0.11767 0.0
C455 C 0.80303 0.04123 0.12586 0.0
C456 C 0.7534 0.09956 0.12218 0.0
C457 C 0.81894 0.08527 0.13899 0.0
C458 C 0.80265 0.13534 0.14373 0.0
C459 C 0.75426 0.19479 0.13873 0.0
C460 C 0.72238 0.20457 0.12839 0.0
C461 C 0.77 0.14318 0.13527 0.0
C462 C 0.70567 0.16042 0.1161 0.0
C463 C 0.72086 0.10835 0.11328 0.0
H464 H 0.28105 0.04519 0.59782 0.0
H465 H 0.21291 0.99166 0.65924 0.0
H466 H 0.24078 0.90229 0.66232 0.0
H467 H 0.2817 0.83638 0.6455 0.0
H468 H 0.34846 0.88648 0.58248 0.0
H469 H 0.32438 0.97969 0.58244 0.0
C470 C 0.27258 1.01416 0.61207 0.0
C471 C 0.24473 0.02527 0.62812 0.0
C472 C 0.28846 0.9619 0.61347 0.0
C473 C 0.23402 0.98431 0.6464 0.0
C474 C 0.25001 0.93303 0.64826 0.0
C475 C 0.29144 0.86785 0.63206 0.0
C476 C 0.3169 0.85414 0.61402 0.0
C477 C 0.27688 0.92096 0.6316 0.0
C478 C 0.32887 0.89565 0.59659 0.0
C479 C 0.315 0.94903 0.59647 0.0
H480 H 0.83721 0.67561 0.08234 0.0
H481 H 0.80914 0.7303 0.162 0.0
H482 H 0.77803 0.64611 0.169 0.0
H483 H 0.75479 0.5602 0.15157 0.0
H484 H 0.78462 0.50031 0.0736 0.0
H485 H 0.81886 0.58272 0.06691 0.0
C486 C 0.82488 0.66857 0.10143 0.0
C487 C 0.82533 0.71001 0.12141 0.0
C488 C 0.80684 0.61932 0.10553 0.0
C489 C 0.80908 0.6998 0.14604 0.0
C490 C 0.79109 0.65156 0.15012 0.0
C491 C 0.76896 0.56509 0.13318 0.0
C492 C 0.76688 0.52474 0.11296 0.0
C493 C 0.78907 0.61174 0.12979 0.0
C494 C 0.7858 0.531 0.08943 0.0
C495 C 0.80532 0.57815 0.0856 0.0
H496 H 0.25003 0.54463 0.59767 0.0
H497 H 0.3261 0.48646 0.65237 0.0
H498 H 0.29796 0.39855 0.65768 0.0
H499 H 0.25372 0.3356 0.64509 0.0
H500 H 0.17895 0.38984 0.58844 0.0
H501 H 0.20421 0.48148 0.58599 0.0
C502 C 0.2603 0.51285 0.61088 0.0
C503 C 0.29033 0.52246 0.62447 0.0
C504 C 0.24414 0.46143 0.6136 0.0
C505 C 0.30326 0.48045 0.64143 0.0
C506 C 0.2871 0.42999 0.64459 0.0
C507 C 0.2425 0.36766 0.63256 0.0
C508 C 0.21425 0.35561 0.61711 0.0
C509 C 0.25775 0.41971 0.63057 0.0
C510 C 0.20056 0.39778 0.60066 0.0
C511 C 0.21513 0.45023 0.59913 0.0
H512 H 0.78631 0.53969 0.9078 0.0
H513 H 0.70874 0.48465 0.85451 0.0
H514 H 0.73863 0.39967 0.84592 0.0
H515 H 0.78482 0.33815 0.85462 0.0
H516 H 0.86145 0.38609 0.91013 0.0
H517 H 0.83444 0.47646 0.91611 0.0
C518 C 0.77601 0.50907 0.89434 0.0
C519 C 0.74506 0.519 0.88205 0.0
C520 C 0.79332 0.4589 0.88957 0.0
C521 C 0.73223 0.47855 0.86459 0.0
C522 C 0.74943 0.42969 0.85944 0.0
C523 C 0.79613 0.36854 0.86769 0.0
C524 C 0.82533 0.3551 0.88175 0.0
C525 C 0.77981 0.41921 0.87191 0.0
C526 C 0.83911 0.39522 0.89886 0.0
C527 C 0.82348 0.44682 0.90248 0.0
H528 H 0.24099 0.51736 0.39845 0.0
H529 H 0.31322 0.57277 0.34064 0.0
H530 H 0.28491 0.66149 0.33635 0.0
H531 H 0.24187 0.72581 0.35064 0.0
H532 H 0.17074 0.67426 0.41007 0.0
H533 H 0.19596 0.5818 0.41164 0.0
C534 C 0.25039 0.54872 0.3848 0.0
C535 C 0.27941 0.53811 0.37003 0.0
C536 C 0.2341 0.60055 0.38259 0.0
C537 C 0.29119 0.57954 0.35247 0.0
C538 C 0.27492 0.63047 0.3499 0.0
C539 C 0.23141 0.69422 0.36364 0.0
C540 C 0.2043 0.7073 0.38016 0.0
C541 C 0.24662 0.64171 0.36506 0.0
C542 C 0.1915 0.66558 0.39704 0.0
C543 C 0.20606 0.61268 0.39808 0.0
H544 H 0.25774 0.52474 0.90796 0.0
H545 H 0.31348 0.48003 0.83713 0.0
H546 H 0.2849 0.39231 0.8346 0.0
H547 H 0.24702 0.32544 0.85368 0.0
H548 H 0.19237 0.36541 0.92566 0.0
H549 H 0.2171 0.45759 0.92625 0.0
C550 C 0.26332 0.49596 0.89186 0.0
C551 C 0.28795 0.50902 0.87291 0.0
C552 C 0.24702 0.44451 0.89069 0.0
C553 C 0.29496 0.47106 0.85221 0.0
C554 C 0.27855 0.42075 0.85065 0.0
C555 C 0.24013 0.35435 0.86941 0.0
C556 C 0.21788 0.33811 0.88964 0.0
C557 C 0.25497 0.40663 0.86999 0.0
C558 C 0.20937 0.37657 0.90976 0.0
C559 C 0.22366 0.42931 0.9102 0.0
H560 H 0.76936 0.71612 0.35299 0.0
H561 H 0.84538 0.66167 0.4085 0.0
H562 H 0.82094 0.56967 0.41075 0.0
H563 H 0.77462 0.50685 0.40022 0.0
H564 H 0.6982 0.56476 0.34571 0.0
H565 H 0.72609 0.65227 0.33994 0.0
C566 C 0.781 0.68391 0.36519 0.0
C567 C 0.80902 0.69612 0.38066 0.0
C568 C 0.7664 0.63148 0.36696 0.0
C569 C 0.82363 0.65366 0.39644 0.0
C570 C 0.80959 0.60096 0.39787 0.0
C571 C 0.76431 0.53847 0.38692 0.0
C572 C 0.73406 0.52923 0.37383 0.0
C573 C 0.7804 0.58974 0.38378 0.0
C574 C 0.72113 0.57075 0.35652 0.0
C575 C 0.73713 0.62102 0.35304 0.0
H576 H 0.30191 0.5489 0.15186 0.0
H577 H 0.26719 0.4956 0.07396 0.0
H578 H 0.23045 0.5765 0.07097 0.0
H579 H 0.21117 0.66596 0.08925 0.0
H580 H 0.24433 0.71631 0.16829 0.0
H581 H 0.27782 0.63246 0.17237 0.0
C582 C 0.28625 0.55509 0.13426 0.0
C583 C 0.28763 0.517 0.11295 0.0
C584 C 0.26459 0.60089 0.13301 0.0
C585 C 0.26669 0.52469 0.09053 0.0
C586 C 0.24564 0.57085 0.08885 0.0
C587 C 0.22501 0.65796 0.10768 0.0
C588 C 0.22535 0.69794 0.1283 0.0
C589 C 0.24463 0.60963 0.10985 0.0
C590 C 0.24366 0.68664 0.15198 0.0
C591 C 0.26309 0.6388 0.15428 0.0
H592 H 0.77979 0.32812 0.64864 0.0
H593 H 0.86034 0.38781 0.6003 0.0
H594 H 0.8343 0.47955 0.59756 0.0
H595 H 0.78557 0.54053 0.60533 0.0
H596 H 0.70419 0.47587 0.6515 0.0
H597 H 0.73344 0.38908 0.65834 0.0
C598 C 0.79214 0.36146 0.63806 0.0
C599 C 0.82206 0.35092 0.62479 0.0
C600 C 0.77643 0.41334 0.63562 0.0
C601 C 0.83734 0.39471 0.61081 0.0
C602 C 0.8223 0.44713 0.60903 0.0
C603 C 0.77437 0.50752 0.61697 0.0
C604 C 0.74247 0.51497 0.62754 0.0
C605 C 0.7913 0.45656 0.62069 0.0
C606 C 0.72845 0.47154 0.6427 0.0
C607 C 0.74525 0.42166 0.64682 0.0
H608 H 0.39429 0.40467 0.01407 0.0
H609 H 0.401 0.55163 0.06284 0.0
H610 H 0.40456 0.60902 0.02218 0.0
H611 H 0.4011 0.61831 0.97301 0.0
H612 H 0.3904 0.47242 0.92395 0.0
H613 H 0.39337 0.41381 0.9644 0.0
C614 C 0.39717 0.44915 0.01575 0.0
C615 C 0.39749 0.47383 0.04143 0.0
C616 C 0.39826 0.48215 0.99223 0.0
C617 C 0.40064 0.53163 0.04331 0.0
C618 C 0.40265 0.56449 0.02007 0.0
C619 C 0.40003 0.57363 0.97106 0.0
C620 C 0.39565 0.54985 0.94543 0.0
C621 C 0.40082 0.54033 0.99444 0.0
C622 C 0.3938 0.49187 0.9434 0.0
C623 C 0.39541 0.4583 0.96655 0.0
H624 H 0.64073 0.54815 0.44554 0.0
H625 H 0.63525 0.38508 0.48146 0.0
H626 H 0.63695 0.42507 0.52647 0.0
H627 H 0.64195 0.50626 0.55612 0.0
H628 H 0.64499 0.66968 0.52042 0.0
H629 H 0.64216 0.62988 0.47531 0.0
C630 C 0.6396 0.52144 0.46321 0.0
C631 C 0.63777 0.46362 0.45993 0.0
C632 C 0.64024 0.5448 0.48929 0.0
C633 C 0.63633 0.42974 0.48319 0.0
C634 C 0.63748 0.45255 0.50907 0.0
C635 C 0.64176 0.53316 0.53848 0.0
C636 C 0.64365 0.59093 0.5418 0.0
C637 C 0.6397 0.51001 0.51242 0.0
C638 C 0.64327 0.6251 0.51861 0.0
C639 C 0.6418 0.60235 0.4927 0.0
H640 H 0.65454 0.55427 0.05678 0.0
H641 H 0.65669 0.39077 0.02214 0.0
H642 H 0.65056 0.43034 0.97694 0.0
H643 H 0.64715 0.51165 0.94685 0.0
H644 H 0.64245 0.67509 0.98151 0.0
H645 H 0.64659 0.6354 0.02679 0.0
C646 C 0.65348 0.52742 0.03932 0.0
C647 C 0.65615 0.46974 0.04284 0.0
C648 C 0.64938 0.5504 0.01328 0.0
C649 C 0.65448 0.43536 0.02003 0.0
C650 C 0.65107 0.45792 0.99412 0.0
C651 C 0.64655 0.53851 0.96432 0.0
C652 C 0.64448 0.59623 0.96068 0.0
C653 C 0.64876 0.51541 0.99045 0.0
C654 C 0.64372 0.63043 0.98362 0.0
C655 C 0.64635 0.60782 0.0096 0.0
H656 H 0.38427 0.64002 0.512 0.0
H657 H 0.38945 0.49544 0.56373 0.0
H658 H 0.39185 0.43571 0.5242 0.0
H659 H 0.3881 0.42408 0.47523 0.0
H660 H 0.37961 0.56801 0.42333 0.0
H661 H 0.38323 0.62842 0.46265 0.0
C662 C 0.38648 0.5955 0.51463 0.0
C663 C 0.38671 0.57228 0.54082 0.0
C664 C 0.38708 0.56123 0.49178 0.0
C665 C 0.38915 0.51443 0.54383 0.0
C666 C 0.39049 0.48021 0.52123 0.0
C667 C 0.3876 0.46868 0.4724 0.0
C668 C 0.38364 0.49141 0.4463 0.0
C669 C 0.38886 0.50309 0.49513 0.0
C670 C 0.38265 0.54935 0.44315 0.0
C671 C 0.38463 0.58394 0.46565 0.0
H672 H 0.90045 0.12891 0.97605 0.0
H673 H 0.88013 0.98509 0.92762 0.0
H674 H 0.88582 0.92553 0.96747 0.0
H675 H 0.8926 0.91488 0.01664 0.0
H676 H 0.90923 0.05941 0.06545 0.0
H677 H 0.90936 0.11784 0.02493 0.0
C678 C 0.89778 0.08445 0.97411 0.0
C679 C 0.88996 0.06161 0.9488 0.0
C680 C 0.90036 0.05047 0.99725 0.0
C681 C 0.88614 1.0039 0.9468 0.0
C682 C 0.88937 0.96973 0.96961 0.0
C683 C 0.89692 0.95901 0.01835 0.0
C684 C 0.90113 0.98268 0.04403 0.0
C685 C 0.89597 0.99263 0.99502 0.0
C686 C 0.906 0.04012 0.04594 0.0
C687 C 0.90598 0.07359 0.02277 0.0
H688 H 0.14033 0.92422 0.48019 0.0
H689 H 0.13692 0.06999 0.42926 0.0
H690 H 0.13654 0.12905 0.46911 0.0
H691 H 0.14093 0.13964 0.5183 0.0
H692 H 0.1476 0.9941 0.56924 0.0
H693 H 0.14283 0.93486 0.52962 0.0
C694 C 0.13892 0.96889 0.47782 0.0
C695 C 0.13848 0.99257 0.45173 0.0
C696 C 0.13956 1.00276 0.50087 0.0
C697 C 0.13726 0.0506 0.44906 0.0
C698 C 0.1371 0.08446 0.47186 0.0
C699 C 0.14088 0.09497 0.52081 0.0
C700 C 0.14453 0.07149 0.54679 0.0
C701 C 0.1388 0.06105 0.49786 0.0
C702 C 0.14485 1.01342 0.54954 0.0
C703 C 0.14213 0.97944 0.52686 0.0
H704 H 0.15528 0.9051 0.01703 0.0
H705 H 0.15324 0.05154 0.06656 0.0
H706 H 0.1437 0.1093 0.02669 0.0
H707 H 0.14064 0.11935 0.97772 0.0
H708 H 0.14678 0.97463 0.92725 0.0
H709 H 0.14947 0.91512 0.96746 0.0
C710 C 0.1522 0.94955 0.01908 0.0
C711 C 0.15503 0.97396 0.04473 0.0
C712 C 0.14752 0.98289 0.99589 0.0
C713 C 0.15139 0.03171 0.04705 0.0
C714 C 0.14589 0.06483 0.02426 0.0
C715 C 0.14187 0.07471 0.97544 0.0
C716 C 0.14335 0.05152 0.94947 0.0
C717 C 0.14455 0.04101 0.99856 0.0
C718 C 0.14551 0.99359 0.94699 0.0
C719 C 0.1472 0.95954 0.96999 0.0
H720 H 0.87948 0.04351 0.44071 0.0
H721 H 0.8879 0.88104 0.47734 0.0
H722 H 0.88754 0.92165 0.52206 0.0
H723 H 0.88242 1.00286 0.55126 0.0
H724 H 0.87673 0.16589 0.51528 0.0
H725 H 0.87853 0.12571 0.47015 0.0
C726 C 0.88161 1.01715 0.45848 0.0
C727 C 0.88372 0.95937 0.45554 0.0
C728 C 0.88171 0.04082 0.4844 0.0
C729 C 0.88649 0.92575 0.47885 0.0
C730 C 0.88611 0.94885 0.50456 0.0
C731 C 0.88175 0.0295 0.53352 0.0
C732 C 0.87937 0.0871 0.53658 0.0
C733 C 0.88334 1.00624 0.50762 0.0
C734 C 0.87879 0.12129 0.51343 0.0
C735 C 0.87969 0.09839 0.4876 0.0
H736 H 0.47289 0.41743 0.14275 0.0
H737 H 0.46552 0.26398 0.09907 0.0
H738 H 0.52536 0.25237 0.10092 0.0
H739 H 0.58031 0.29198 0.11008 0.0
H740 H 0.58675 0.44625 0.15327 0.0
H741 H 0.527 0.45079 0.15677 0.0
C742 C 0.48431 0.38105 0.13393 0.0
C743 C 0.46472 0.34217 0.12043 0.0
C744 C 0.51873 0.37487 0.13484 0.0
C745 C 0.47995 0.29481 0.10949 0.0
C746 C 0.51425 0.28822 0.11043 0.0
C747 C 0.56865 0.32586 0.1208 0.0
C748 C 0.58801 0.36911 0.13105 0.0
C749 C 0.534 0.32883 0.12236 0.0
C750 C 0.57245 0.41277 0.14486 0.0
C751 C 0.53822 0.41553 0.14684 0.0
H752 H 0.56801 0.77047 0.59676 0.0
H753 H 0.57616 0.6497 0.66108 0.0
H754 H 0.51638 0.64681 0.66508 0.0
H755 H 0.46233 0.66638 0.64517 0.0
H756 H 0.45301 0.78546 0.58024 0.0
H757 H 0.51247 0.80176 0.58169 0.0
C758 C 0.55662 0.74517 0.61225 0.0
C759 C 0.57628 0.71004 0.62849 0.0
C760 C 0.52202 0.74244 0.61389 0.0
C761 C 0.56135 0.67685 0.64831 0.0
C762 C 0.5272 0.67485 0.65047 0.0
C763 C 0.47329 0.69658 0.63165 0.0
C764 C 0.45356 0.72386 0.61231 0.0
C765 C 0.50735 0.70541 0.63251 0.0
C766 C 0.46782 0.76369 0.59523 0.0
C767 C 0.50183 0.77284 0.59597 0.0
H768 H 0.57279 0.66051 0.84679 0.0
H769 H 0.57937 0.79161 0.90514 0.0
H770 H 0.51919 0.80039 0.90565 0.0
H771 H 0.46459 0.76014 0.89466 0.0
H772 H 0.45951 0.62793 0.83655 0.0
H773 H 0.51889 0.63085 0.83055 0.0
C774 C 0.56105 0.69192 0.85914 0.0
C775 C 0.58046 0.72488 0.8761 0.0
C776 C 0.52655 0.69605 0.85964 0.0
C777 C 0.56499 0.76577 0.89182 0.0
C778 C 0.53052 0.77042 0.89231 0.0
C779 C 0.47641 0.73302 0.8802 0.0
C780 C 0.45763 0.69313 0.86647 0.0
C781 C 0.51098 0.73426 0.87708 0.0
C782 C 0.47339 0.65836 0.84774 0.0
C783 C 0.50741 0.65991 0.84429 0.0
H784 H 0.55657 0.28117 0.40056 0.0
H785 H 0.57071 0.40711 0.3396 0.0
H786 H 0.51162 0.41168 0.33109 0.0
H787 H 0.45576 0.39183 0.34646 0.0
H788 H 0.44069 0.26705 0.40787 0.0
H789 H 0.49994 0.24954 0.41043 0.0
C790 C 0.5467 0.30811 0.38482 0.0
C791 C 0.56776 0.34429 0.37098 0.0
C792 C 0.51242 0.31161 0.38047 0.0
C793 C 0.55478 0.37933 0.3507 0.0
C794 C 0.521 0.38222 0.34592 0.0
C795 C 0.46541 0.36006 0.36002 0.0
C796 C 0.44394 0.33169 0.37729 0.0
C797 C 0.49951 0.35054 0.36159 0.0
C798 C 0.45672 0.28989 0.39444 0.0
C799 C 0.49067 0.27998 0.39604 0.0
H800 H 0.97736 0.90278 0.14632 0.0
H801 H 0.96619 0.76547 0.09191 0.0
H802 H 0.0261 0.75169 0.09136 0.0
H803 H 0.08209 0.78721 0.10172 0.0
H804 H 0.09169 0.92665 0.1552 0.0
H805 H 0.03219 0.9306 0.16092 0.0
C806 C 0.98796 0.86922 0.13466 0.0
C807 C 0.96732 0.83571 0.11891 0.0
C808 C 0.02231 0.86224 0.13408 0.0
C809 C 0.98146 0.79194 0.10422 0.0
C810 C 1.01579 0.78432 0.10374 0.0
C811 C 0.07116 0.81755 0.1151 0.0
C812 C 0.09134 0.85704 0.12776 0.0
C813 C 0.03656 0.8204 0.11792 0.0
C814 C 0.07674 0.89624 0.14496 0.0
C815 C 0.04267 0.89862 0.14822 0.0
H816 H 0.96141 0.26288 0.60027 0.0
H817 H 0.95344 0.11632 0.65018 0.0
H818 H 1.01286 0.11483 0.65717 0.0
H819 H 0.0672 0.14727 0.6443 0.0
H820 H 0.07667 0.29084 0.59263 0.0
H821 H 1.01665 0.30216 0.59158 0.0
C822 C 0.97269 0.23144 0.61314 0.0
C823 C 0.95319 0.1893 0.6244 0.0
C824 C 1.00715 0.22996 0.61654 0.0
C825 C 0.96805 0.1487 0.64099 0.0
C826 C 1.00201 0.14778 0.64499 0.0
C827 C 0.05619 0.18155 0.63309 0.0
C828 C 0.0763 0.21752 0.61818 0.0
C829 C 0.02185 0.18693 0.63207 0.0
C830 C 0.06171 0.26234 0.60418 0.0
C831 C 0.02737 0.26862 0.60343 0.0
H832 H 0.06985 0.14299 0.84949 0.0
H833 H 0.08122 0.27881 0.90483 0.0
H834 H 0.02152 0.29321 0.9053 0.0
H835 H 0.96568 0.25848 0.89486 0.0
H836 H 0.95538 0.12081 0.84036 0.0
H837 H 1.01485 0.1164 0.83453 0.0
C838 C 0.05934 0.17636 0.86132 0.0
C839 C 0.08 0.20912 0.87742 0.0
C840 C 0.02502 0.18378 0.86188 0.0
C841 C 0.06596 0.25274 0.89232 0.0
C842 C 0.03174 0.26079 0.89274 0.0
C843 C 0.97642 0.22839 0.88124 0.0
C844 C 0.95608 0.18946 0.86841 0.0
C845 C 1.01093 0.2253 0.87832 0.0
C846 C 0.97045 0.15074 0.85081 0.0
C847 C 1.00451 0.14809 0.84746 0.0
H848 H 0.06174 0.78713 0.399 0.0
H849 H 0.07009 0.91988 0.34063 0.0
H850 H 1.01115 0.91688 0.33182 0.0
H851 H 0.95654 0.88777 0.34612 0.0
H852 H 0.94672 0.757 0.40521 0.0
H853 H 1.0067 0.74703 0.40785 0.0
C854 C 0.0507 0.8143 0.38389 0.0
C855 C 0.07004 0.85451 0.37094 0.0
C856 C 1.01645 0.81315 0.37924 0.0
C857 C 0.05552 0.88935 0.35128 0.0
C858 C 0.02182 0.88772 0.3462 0.0
C859 C 0.96756 0.8562 0.3591 0.0
C860 C 0.94737 0.82388 0.37574 0.0
C861 C 1.0019 0.85156 0.36093 0.0
C862 C 0.96181 0.78254 0.39221 0.0
C863 C 0.99613 0.77716 0.39392 0.0
H864 H 0.27218 0.24677 0.05779 0.0
H865 H 0.31894 0.37756 0.01258 0.0
H866 H 0.29798 0.33967 0.9704 0.0
H867 H 0.26786 0.26821 0.94618 0.0
H868 H 0.21915 0.13864 0.99063 0.0
H869 H 0.24009 0.17611 0.03326 0.0
C870 C 0.27703 0.26756 0.03873 0.0
C871 C 0.29673 0.31513 0.03822 0.0
C872 C 0.26546 0.2448 0.01441 0.0
C873 C 0.30357 0.34109 0.01339 0.0
C874 C 0.29191 0.31917 0.98926 0.0
C875 C 0.26246 0.24751 0.96517 0.0
C876 C 0.2428 0.20003 0.96534 0.0
C877 C 0.2734 0.2705 0.98949 0.0
C878 C 0.23487 0.1747 0.9901 0.0
C879 C 0.24648 0.19646 0.01444 0.0
H880 H 0.82321 0.82174 0.48652 0.0
H881 H 0.73464 0.81617 0.43784 0.0
H882 H 0.70539 0.77274 0.47517 0.0
H883 H 0.70531 0.73393 0.52042 0.0
H884 H 0.79278 0.74048 0.57029 0.0
H885 H 0.82256 0.78465 0.533 0.0
C886 C 0.79739 0.81164 0.48411 0.0
C887 C 0.78117 0.82219 0.45927 0.0
C888 C 0.7808 0.78584 0.50555 0.0
C889 C 0.74774 0.80874 0.45664 0.0
C890 C 0.73105 0.78346 0.47792 0.0
C891 C 0.73097 0.74462 0.52332 0.0
C892 C 0.74682 0.73357 0.54822 0.0
C893 C 0.74749 0.77115 0.50223 0.0
C894 C 0.78005 0.74802 0.55133 0.0
C895 C 0.79696 0.77371 0.5301 0.0
H896 H 0.21495 0.78648 0.01971 0.0
H897 H 0.30562 0.80303 0.06471 0.0
H898 H 0.33598 0.75827 0.02816 0.0
H899 H 0.33678 0.71723 0.98293 0.0
H900 H 0.2457 0.70107 0.93833 0.0
H901 H 0.21534 0.74192 0.9757 0.0
C902 C 0.2414 0.78072 0.0215 0.0
C903 C 0.25809 0.79865 0.04474 0.0
C904 C 0.25853 0.75439 0.00069 0.0
C905 C 0.29226 0.78992 0.04691 0.0
C906 C 0.30959 0.76414 0.0261 0.0
C907 C 0.31022 0.72182 0.98153 0.0
C908 C 0.29356 0.7064 0.95781 0.0
C909 C 0.29295 0.7463 0.00288 0.0
C910 C 0.25915 0.71282 0.95632 0.0
C911 C 0.24178 0.73646 0.9776 0.0
H912 H 0.82209 0.24739 0.51619 0.0
H913 H 0.73705 0.24766 0.56843 0.0
H914 H 0.70346 0.28736 0.53198 0.0
H915 H 0.69828 0.32044 0.48539 0.0
H916 H 0.78347 0.31956 0.43326 0.0
H917 H 0.81727 0.2826 0.47011 0.0
C918 C 0.79617 0.25583 0.51966 0.0
C919 C 0.78204 0.24429 0.54496 0.0
C920 C 0.77718 0.2791 0.49883 0.0
C921 C 0.74848 0.25594 0.5491 0.0
C922 C 0.72931 0.27883 0.52833 0.0
C923 C 0.7243 0.31265 0.48208 0.0
C924 C 0.73828 0.32248 0.45654 0.0
C925 C 0.74345 0.29058 0.50315 0.0
C926 C 0.77206 0.31231 0.45269 0.0
C927 C 0.79137 0.29088 0.4737 0.0
H928 H 0.77261 0.76993 0.05792 0.0
H929 H 0.81746 0.90585 0.01527 0.0
H930 H 0.79682 0.8706 0.9723 0.0
H931 H 0.76754 0.79912 0.9465 0.0
H932 H 0.72192 0.66383 0.98896 0.0
H933 H 0.74201 0.69953 0.03214 0.0
C934 C 0.77692 0.7926 0.03928 0.0
C935 C 0.79584 0.84106 0.03978 0.0
C936 C 0.76587 0.77102 0.01449 0.0
C937 C 0.80235 0.86904 0.01538 0.0
C938 C 0.79098 0.84847 0.99078 0.0
C939 C 0.76278 0.77687 0.96518 0.0
C940 C 0.7442 0.72811 0.96459 0.0
C941 C 0.77332 0.79886 0.99 0.0
C942 C 0.73693 0.70075 0.98898 0.0
C943 C 0.74801 0.72156 0.01367 0.0
H944 H 0.20634 0.23327 0.51672 0.0
H945 H 0.29391 0.24538 0.56617 0.0
H946 H 0.3212 0.29698 0.52993 0.0
H947 H 0.31965 0.33897 0.48457 0.0
H948 H 0.23104 0.32799 0.43624 0.0
H949 H 0.20412 0.2772 0.47256 0.0
C950 C 0.23155 0.24656 0.51966 0.0
C951 C 0.24815 0.23499 0.54414 0.0
C952 C 0.24654 0.27756 0.49927 0.0
C953 C 0.28068 0.2532 0.54746 0.0
C954 C 0.29614 0.28318 0.52687 0.0
C955 C 0.29426 0.32626 0.48207 0.0
C956 C 0.2774 0.33723 0.45761 0.0
C957 C 0.27913 0.29606 0.50282 0.0
C958 C 0.24457 0.32024 0.45481 0.0
C959 C 0.22927 0.29071 0.47546 0.0
H960 H 0.71196 0.30557 0.02013 0.0
H961 H 0.80104 0.30994 0.0681 0.0
H962 H 0.83222 0.27062 0.03068 0.0
H963 H 0.83417 0.23621 0.98426 0.0
H964 H 0.74486 0.2324 0.93658 0.0
H965 H 0.71363 0.26955 0.97437 0.0
C966 C 0.73823 0.29823 0.02242 0.0
C967 C 0.75417 0.31084 0.0468 0.0
C968 C 0.75588 0.2752 0.00104 0.0
C969 C 0.78818 0.30069 0.04947 0.0
C970 C 0.80602 0.27803 0.02815 0.0
C971 C 0.80781 0.2429 0.98225 0.0
C972 C 0.79186 0.23179 0.95768 0.0
C973 C 0.79008 0.26502 0.00388 0.0
C974 C 0.75773 0.24091 0.95529 0.0
C975 C 0.73986 0.26231 0.97682 0.0
H976 H 0.19901 0.82579 0.48385 0.0
H977 H 0.28474 0.82127 0.43235 0.0
H978 H 0.3157 0.77235 0.46752 0.0
H979 H 0.31817 0.72965 0.51197 0.0
H980 H 0.23354 0.73575 0.56455 0.0
H981 H 0.20191 0.78395 0.52918 0.0
C982 C 0.2246 0.81476 0.48039 0.0
C983 C 0.23952 0.82722 0.45544 0.0
C984 C 0.24214 0.78588 0.50054 0.0
C985 C 0.27265 0.81235 0.45134 0.0
C986 C 0.2903 0.78396 0.47135 0.0
C987 C 0.29268 0.74085 0.51575 0.0
C988 C 0.27819 0.72881 0.54089 0.0
C989 C 0.27514 0.76993 0.49581 0.0
C990 C 0.24521 0.74417 0.54533 0.0
C991 C 0.22724 0.77217 0.52523 0.0
H992 H 0.29995 0.37539 0.20157 0.0
H993 H 0.40495 0.40208 0.19801 0.0
H994 H 0.40817 0.40158 0.24701 0.0
H995 H 0.38145 0.39644 0.29099 0.0
H996 H 0.27653 0.37055 0.29543 0.0
H997 H 0.27321 0.36752 0.24618 0.0
C998 C 0.32353 0.38094 0.21151 0.0
C999 C 0.35206 0.3892 0.19597 0.0
C1000 C 0.32533 0.38079 0.23995 0.0
C1001 C 0.38245 0.39609 0.20931 0.0
C1002 C 0.38441 0.39573 0.23742 0.0
C1003 C 0.35783 0.3899 0.28126 0.0
C1004 C 0.3293 0.38406 0.297 0.0
C1005 C 0.35601 0.38858 0.25295 0.0
C1006 C 0.29894 0.37539 0.2839 0.0
C1007 C 0.29698 0.37371 0.25568 0.0
H1008 H 0.6465 0.64143 0.7966 0.0
H1009 H 0.75067 0.67263 0.8043 0.0
H1010 H 0.75626 0.6727 0.75529 0.0
H1011 H 0.73184 0.66328 0.70997 0.0
H1012 H 0.62764 0.63199 0.70238 0.0
H1013 H 0.62204 0.63261 0.75134 0.0
C1014 C 0.67044 0.6483 0.78761 0.0
C1015 C 0.69809 0.65683 0.80432 0.0
C1016 C 0.6736 0.6482 0.75927 0.0
C1017 C 0.72889 0.66575 0.79211 0.0
C1018 C 0.73217 0.66583 0.76399 0.0
C1019 C 0.70789 0.65656 0.71898 0.0
C1020 C 0.68029 0.64739 0.7023 0.0
C1021 C 0.70472 0.65695 0.74733 0.0
C1022 C 0.64945 0.63894 0.71453 0.0
C1023 C 0.64614 0.63933 0.74264 0.0
H1024 H 0.3888 0.65401 0.78861 0.0
H1025 H 0.28327 0.66808 0.79741 0.0
H1026 H 0.27687 0.6763 0.74858 0.0
H1027 H 0.30094 0.67538 0.70317 0.0
H1028 H 0.40653 0.66136 0.69456 0.0
H1029 H 0.41302 0.65763 0.74343 0.0
C1030 C 0.3644 0.65897 0.77988 0.0
C1031 C 0.3366 0.65986 0.79669 0.0
C1032 C 0.36081 0.66366 0.75175 0.0
C1033 C 0.30517 0.66696 0.78499 0.0
C1034 C 0.30143 0.67166 0.75702 0.0
C1035 C 0.32538 0.67191 0.71197 0.0
C1036 C 0.3531 0.66811 0.69514 0.0
C1037 C 0.32904 0.66948 0.74018 0.0
C1038 C 0.38464 0.66389 0.70696 0.0
C1039 C 0.38846 0.66172 0.73495 0.0
H1040 H 0.65211 0.42238 0.20478 0.0
H1041 H 0.7567 0.38794 0.20455 0.0
H1042 H 0.7566 0.37988 0.25366 0.0
H1043 H 0.72713 0.38266 0.29658 0.0
H1044 H 0.62254 0.41693 0.29722 0.0
H1045 H 0.62242 0.42461 0.24798 0.0
C1046 C 0.67494 0.41341 0.21545 0.0
C1047 C 0.7044 0.40608 0.20091 0.0
C1048 C 0.67472 0.40848 0.24376 0.0
C1049 C 0.73367 0.39395 0.21514 0.0
C1050 C 0.73365 0.38922 0.24326 0.0
C1051 C 0.70421 0.39162 0.28602 0.0
C1052 C 0.6749 0.39927 0.30069 0.0
C1053 C 0.70433 0.3963 0.25776 0.0
C1054 C 0.6455 0.4109 0.28653 0.0
C1055 C 0.64541 0.4154 0.25834 0.0
H1056 H 0.80603 0.88241 0.20375 0.0
H1057 H 0.91165 0.90179 0.20128 0.0
H1058 H 0.91409 0.89982 0.25043 0.0
H1059 H 0.88642 0.89508 0.29427 0.0
H1060 H 0.78086 0.87557 0.29712 0.0
H1061 H 0.77842 0.87494 0.24785 0.0
C1062 C 0.82961 0.88604 0.21393 0.0
C1063 C 0.85855 0.8926 0.19866 0.0
C1064 C 0.83093 0.88497 0.24237 0.0
C1065 C 0.88888 0.89697 0.21235 0.0
C1066 C 0.89036 0.89586 0.24055 0.0
C1067 C 0.86284 0.89059 0.28417 0.0
C1068 C 0.83387 0.88571 0.29954 0.0
C1069 C 0.86154 0.89032 0.25578 0.0
C1070 C 0.80361 0.87957 0.28594 0.0
C1071 C 0.80215 0.87924 0.25769 0.0
H1072 H 0.14752 0.16339 0.79402 0.0
H1073 H 0.25319 0.17266 0.80267 0.0
H1074 H 0.25905 0.17891 0.75369 0.0
H1075 H 0.23433 0.17697 0.70811 0.0
H1076 H 0.12854 0.16731 0.70007 0.0
H1077 H 0.12278 0.16625 0.74893 0.0
C1078 C 0.17186 0.16701 0.78525 0.0
C1079 C 0.19984 0.16701 0.80209 0.0
C1080 C 0.17512 0.17035 0.75706 0.0
C1081 C 0.23115 0.17226 0.79027 0.0
C1082 C 0.23458 0.17578 0.7622 0.0
C1083 C 0.21002 0.17506 0.71704 0.0
C1084 C 0.182 0.17165 0.70031 0.0
C1085 C 0.20675 0.17415 0.74535 0.0
C1086 C 0.15065 0.16942 0.71233 0.0
C1087 C 0.14725 0.16883 0.74035 0.0
H1088 H 0.79873 0.17872 0.70434 0.0
H1089 H 0.89687 0.1102 0.69655 0.0
H1090 H 0.90362 0.11059 0.74542 0.0
H1091 H 0.8818 0.12964 0.79045 0.0
H1092 H 0.78373 0.19814 0.79847 0.0
H1093 H 0.77705 0.19866 0.7495 0.0
C1094 C 0.82156 0.16372 0.71331 0.0
C1095 C 0.84712 0.14423 0.69671 0.0
C1096 C 0.82542 0.16416 0.74152 0.0
C1097 C 0.87664 0.12527 0.70875 0.0
C1098 C 0.88062 0.12553 0.73675 0.0
C1099 C 0.85898 0.14485 0.78152 0.0
C1100 C 0.83331 0.16363 0.79819 0.0
C1101 C 0.85518 0.14484 0.75333 0.0
C1102 C 0.80392 0.18324 0.78619 0.0
C1103 C 0.80003 0.18353 0.75815 0.0
H1104 H 0.23195 0.88309 0.29472 0.0
H1105 H 0.12658 0.90979 0.29457 0.0
H1106 H 0.12627 0.91185 0.24531 0.0
H1107 H 0.15587 0.90819 0.20245 0.0
H1108 H 0.26121 0.88156 0.20238 0.0
H1109 H 0.26146 0.87747 0.2517 0.0
C1110 C 0.20886 0.88911 0.28396 0.0
C1111 C 0.17937 0.89655 0.29838 0.0
C1112 C 0.20884 0.89059 0.25562 0.0
C1113 C 0.14969 0.9042 0.28403 0.0
C1114 C 0.14947 0.90545 0.25584 0.0
C1115 C 0.17895 0.90165 0.21318 0.0
C1116 C 0.20851 0.89562 0.19872 0.0
C1117 C 0.17892 0.89918 0.24147 0.0
C1118 C 0.2381 0.88657 0.21299 0.0
C1119 C 0.23828 0.88417 0.24119 0.0
loop_
_geom_bond_atom_site_label_1
_geom_bond_atom_site_label_2
_geom_bond_distance
_geom_bond_site_symmetry_2
_ccdc_geom_bond_type
Fe0 O2 1.918 . S
Fe0 O5 1.997 . S
Fe0 O6 2.002 . S
Fe0 O11 1.976 . S
Fe0 O14 1.996 . S
Fe1 O2 1.918 . S
Fe1 O9 1.997 . S
Fe1 O12 1.996 . S
Fe1 O16 1.976 . S
Fe1 O19 2.002 . S
O2 Fe0 1.918 . S
O2 Fe1 1.918 . S
O2 Fe3 1.918 . S
Fe3 O2 1.918 . S
Fe3 O4 2.002 . S
Fe3 O13 1.976 . S
Fe3 O17 1.996 . S
Fe3 O20 1.997 . S
O4 Fe3 2.002 . S
O4 C21 1.295 . S
O5 Fe0 1.997 . S
O5 C21 1.235 . S
O6 Fe0 2.002 . S
O6 C7 1.295 . S
C7 O6 1.295 . S
C7 O9 1.235 . S
C8 O13 1.287 . S
C8 O14 1.255 . S
O9 Fe1 1.997 . S
O9 C7 1.235 . S
C10 O16 1.287 . S
C10 O17 1.255 . S
O11 Fe0 1.976 . S
O11 C18 1.287 . S
O12 Fe1 1.996 . S
O12 C18 1.255 . S
O13 Fe3 1.976 . S
O13 C8 1.287 . S
O14 Fe0 1.996 . S
O14 C8 1.255 . S
C15 O19 1.295 . S
C15 O20 1.235 . S
O16 Fe1 1.976 . S
O16 C10 1.287 . S
O17 Fe3 1.996 . S
O17 C10 1.255 . S
C18 O11 1.287 . S
C18 O12 1.255 . S
O19 Fe1 2.002 . S
O19 C15 1.295 . S
O20 Fe3 1.997 . S
O20 C15 1.235 . S
C21 O4 1.295 . S
C21 O5 1.235 . S
Fe22 O24 1.918 . S
Fe22 O27 1.997 . S
Fe22 O28 2.002 . S
Fe22 O33 1.976 . S
Fe22 O36 1.996 . S
Fe23 O24 1.918 . S
Fe23 O31 1.997 . S
Fe23 O34 1.996 . S
Fe23 O38 1.976 . S
Fe23 O41 2.002 . S
O24 Fe22 1.918 . S
O24 Fe23 1.918 . S
O24 Fe25 1.918 . S
Fe25 O24 1.918 . S
Fe25 O26 2.002 . S
Fe25 O35 1.976 . S
Fe25 O39 1.996 . S
Fe25 O42 1.997 . S
O26 Fe25 2.002 . S
O26 C43 1.295 . S
O27 Fe22 1.997 . S
O27 C43 1.235 . S
O28 Fe22 2.002 . S
O28 C29 1.295 . S
C29 O28 1.295 . S
C29 O31 1.235 . S
C30 O35 1.287 . S
C30 O36 1.255 . S
O31 Fe23 1.997 . S
O31 C29 1.235 . S
C32 O38 1.287 . S
C32 O39 1.255 . S
O33 Fe22 1.976 . S
O33 C40 1.287 . S
O34 Fe23 1.996 . S
O34 C40 1.255 . S
O35 Fe25 1.976 . S
O35 C30 1.287 . S
O36 Fe22 1.996 . S
O36 C30 1.255 . S
C37 O41 1.295 . S
C37 O42 1.235 . S
O38 Fe23 1.976 . S
O38 C32 1.287 . S
O39 Fe25 1.996 . S
O39 C32 1.255 . S
C40 O33 1.287 . S
C40 O34 1.255 . S
O41 Fe23 2.002 . S
O41 C37 1.295 . S
O42 Fe25 1.997 . S
O42 C37 1.235 . S
C43 O26 1.295 . S
C43 O27 1.235 . S
Fe44 O46 1.918 . S
Fe44 O49 1.997 . S
Fe44 O50 2.002 . S
Fe44 O55 1.976 . S
Fe44 O58 1.996 . S
Fe45 O46 1.918 . S
Fe45 O53 1.997 . S
Fe45 O56 1.996 . S
Fe45 O60 1.976 . S
Fe45 O63 2.002 . S
O46 Fe44 1.918 . S
O46 Fe45 1.918 . S
O46 Fe47 1.918 . S
Fe47 O46 1.918 . S
Fe47 O48 2.002 . S
Fe47 O57 1.976 . S
Fe47 O61 1.996 . S
Fe47 O64 1.997 . S
O48 Fe47 2.002 . S
O48 C65 1.295 . S
O49 Fe44 1.997 . S
O49 C65 1.235 . S
O50 Fe44 2.002 . S
O50 C51 1.295 . S
C51 O50 1.295 . S
C51 O53 1.235 . S
C52 O57 1.287 . S
C52 O58 1.255 . S
O53 Fe45 1.997 . S
O53 C51 1.235 . S
C54 O60 1.287 . S
C54 O61 1.255 . S
O55 Fe44 1.976 . S
O55 C62 1.287 . S
O56 Fe45 1.996 . S
O56 C62 1.255 . S
O57 Fe47 1.976 . S
O57 C52 1.287 . S
O58 Fe44 1.996 . S
O58 C52 1.255 . S
C59 O63 1.295 . S
C59 O64 1.235 . S
O60 Fe45 1.976 . S
O60 C54 1.287 . S
O61 Fe47 1.996 . S
O61 C54 1.255 . S
C62 O55 1.287 . S
C62 O56 1.255 . S
O63 Fe45 2.002 . S
O63 C59 1.295 . S
O64 Fe47 1.997 . S
O64 C59 1.235 . S
C65 O48 1.295 . S
C65 O49 1.235 . S
Fe66 O68 1.918 . S
Fe66 O71 1.997 . S
Fe66 O72 2.002 . S
Fe66 O77 1.976 . S
Fe66 O80 1.996 . S
Fe67 O68 1.918 . S
Fe67 O75 1.997 . S
Fe67 O78 1.996 . S
Fe67 O82 1.976 . S
Fe67 O85 2.002 . S
O68 Fe66 1.918 . S
O68 Fe67 1.918 . S
O68 Fe69 1.918 . S
Fe69 O68 1.918 . S
Fe69 O70 2.002 . S
Fe69 O79 1.976 . S
Fe69 O83 1.996 . S
Fe69 O86 1.997 . S
O70 Fe69 2.002 . S
O70 C87 1.295 . S
O71 Fe66 1.997 . S
O71 C87 1.235 . S
O72 Fe66 2.002 . S
O72 C73 1.295 . S
C73 O72 1.295 . S
C73 O75 1.235 . S
C74 O79 1.287 . S
C74 O80 1.255 . S
O75 Fe67 1.997 . S
O75 C73 1.235 . S
C76 O82 1.287 . S
C76 O83 1.255 . S
O77 Fe66 1.976 . S
O77 C84 1.287 . S
O78 Fe67 1.996 . S
O78 C84 1.255 . S
O79 Fe69 1.976 . S
O79 C74 1.287 . S
O80 Fe66 1.996 . S
O80 C74 1.255 . S
C81 O85 1.295 . S
C81 O86 1.235 . S
O82 Fe67 1.976 . S
O82 C76 1.287 . S
O83 Fe69 1.996 . S
O83 C76 1.255 . S
C84 O77 1.287 . S
C84 O78 1.255 . S
O85 Fe67 2.002 . S
O85 C81 1.295 . S
O86 Fe69 1.997 . S
O86 C81 1.235 . S
C87 O70 1.295 . S
C87 O71 1.235 . S
Fe88 O90 1.918 . S
Fe88 O93 1.997 . S
Fe88 O94 2.002 . S
Fe88 O99 1.976 . S
Fe88 O102 1.996 . S
Fe89 O90 1.918 . S
Fe89 O97 1.997 . S
Fe89 O100 1.996 . S
Fe89 O104 1.976 . S
Fe89 O107 2.002 . S
O90 Fe88 1.918 . S
O90 Fe89 1.918 . S
O90 Fe91 1.918 . S
Fe91 O90 1.918 . S
Fe91 O92 2.002 . S
Fe91 O101 1.976 . S
Fe91 O105 1.996 . S
Fe91 O108 1.997 . S
O92 Fe91 2.002 . S
O92 C109 1.295 . S
O93 Fe88 1.997 . S
O93 C109 1.235 . S
O94 Fe88 2.002 . S
O94 C95 1.295 . S
C95 O94 1.295 . S
C95 O97 1.235 . S
C96 O101 1.287 . S
C96 O102 1.255 . S
O97 Fe89 1.997 . S
O97 C95 1.235 . S
C98 O104 1.287 . S
C98 O105 1.255 . S
O99 Fe88 1.976 . S
O99 C106 1.287 . S
O100 Fe89 1.996 . S
O100 C106 1.255 . S
O101 Fe91 1.976 . S
O101 C96 1.287 . S
O102 Fe88 1.996 . S
O102 C96 1.255 . S
C103 O107 1.295 . S
C103 O108 1.235 . S
O104 Fe89 1.976 . S
O104 C98 1.287 . S
O105 Fe91 1.996 . S
O105 C98 1.255 . S
C106 O99 1.287 . S
C106 O100 1.255 . S
O107 Fe89 2.002 . S
O107 C103 1.295 . S
O108 Fe91 1.997 . S
O108 C103 1.235 . S
C109 O92 1.295 . S
C109 O93 1.235 . S
Fe110 O112 1.918 . S
Fe110 O115 1.997 . S
Fe110 O116 2.002 . S
Fe110 O121 1.976 . S
Fe110 O124 1.996 . S
Fe111 O112 1.918 . S
Fe111 O119 1.997 . S
Fe111 O122 1.996 . S
Fe111 O126 1.976 . S
Fe111 O129 2.002 . S
O112 Fe110 1.918 . S
O112 Fe111 1.918 . S
O112 Fe113 1.918 . S
Fe113 O112 1.918 . S
Fe113 O114 2.002 . S
Fe113 O123 1.976 . S
Fe113 O127 1.996 . S
Fe113 O130 1.997 . S
O114 Fe113 2.002 . S
O114 C131 1.295 . S
O115 Fe110 1.997 . S
O115 C131 1.235 . S
O116 Fe110 2.002 . S
O116 C117 1.295 . S
C117 O116 1.295 . S
C117 O119 1.235 . S
C118 O123 1.287 . S
C118 O124 1.255 . S
O119 Fe111 1.997 . S
O119 C117 1.235 . S
C120 O126 1.287 . S
C120 O127 1.255 . S
O121 Fe110 1.976 . S
O121 C128 1.287 . S
O122 Fe111 1.996 . S
O122 C128 1.255 . S
O123 Fe113 1.976 . S
O123 C118 1.287 . S
O124 Fe110 1.996 . S
O124 C118 1.255 . S
C125 O129 1.295 . S
C125 O130 1.235 . S
O126 Fe111 1.976 . S
O126 C120 1.287 . S
O127 Fe113 1.996 . S
O127 C120 1.255 . S
C128 O121 1.287 . S
C128 O122 1.255 . S
O129 Fe111 2.002 . S
O129 C125 1.295 . S
O130 Fe113 1.997 . S
O130 C125 1.235 . S
C131 O114 1.295 . S
C131 O115 1.235 . S
Fe132 O134 1.918 . S
Fe132 O137 1.997 . S
Fe132 O138 2.002 . S
Fe132 O143 1.976 . S
Fe132 O146 1.996 . S
Fe133 O134 1.918 . S
Fe133 O141 1.997 . S
Fe133 O144 1.996 . S
Fe133 O148 1.976 . S
Fe133 O151 2.002 . S
O134 Fe132 1.918 . S
O134 Fe133 1.918 . S
O134 Fe135 1.918 . S
Fe135 O134 1.918 . S
Fe135 O136 2.002 . S
Fe135 O145 1.976 . S
Fe135 O149 1.996 . S
Fe135 O152 1.997 . S
O136 Fe135 2.002 . S
O136 C153 1.295 . S
O137 Fe132 1.997 . S
O137 C153 1.235 . S
O138 Fe132 2.002 . S
O138 C139 1.295 . S
C139 O138 1.295 . S
C139 O141 1.235 . S
C140 O145 1.287 . S
C140 O146 1.255 . S
O141 Fe133 1.997 . S
O141 C139 1.235 . S
C142 O148 1.287 . S
C142 O149 1.255 . S
O143 Fe132 1.976 . S
O143 C150 1.287 . S
O144 Fe133 1.996 . S
O144 C150 1.255 . S
O145 Fe135 1.976 . S
O145 C140 1.287 . S
O146 Fe132 1.996 . S
O146 C140 1.255 . S
C147 O151 1.295 . S
C147 O152 1.235 . S
O148 Fe133 1.976 . S
O148 C142 1.287 . S
O149 Fe135 1.996 . S
O149 C142 1.255 . S
C150 O143 1.287 . S
C150 O144 1.255 . S
O151 Fe133 2.002 . S
O151 C147 1.295 . S
O152 Fe135 1.997 . S
O152 C147 1.235 . S
C153 O136 1.295 . S
C153 O137 1.235 . S
Fe154 O156 1.918 . S
Fe154 O159 1.997 . S
Fe154 O160 2.002 . S
Fe154 O165 1.976 . S
Fe154 O168 1.996 . S
Fe155 O156 1.918 . S
Fe155 O163 1.997 . S
Fe155 O166 1.996 . S
Fe155 O170 1.976 . S
Fe155 O173 2.002 . S
O156 Fe154 1.918 . S
O156 Fe155 1.918 . S
O156 Fe157 1.918 . S
Fe157 O156 1.918 . S
Fe157 O158 2.002 . S
Fe157 O167 1.976 . S
Fe157 O171 1.996 . S
Fe157 O174 1.997 . S
O158 Fe157 2.002 . S
O158 C175 1.295 . S
O159 Fe154 1.997 . S
O159 C175 1.235 . S
O160 Fe154 2.002 . S
O160 C161 1.295 . S
C161 O160 1.295 . S
C161 O163 1.235 . S
C162 O167 1.287 . S
C162 O168 1.255 . S
O163 Fe155 1.997 . S
O163 C161 1.235 . S
C164 O170 1.287 . S
C164 O171 1.255 . S
O165 Fe154 1.976 . S
O165 C172 1.287 . S
O166 Fe155 1.996 . S
O166 C172 1.255 . S
O167 Fe157 1.976 . S
O167 C162 1.287 . S
O168 Fe154 1.996 . S
O168 C162 1.255 . S
C169 O173 1.295 . S
C169 O174 1.235 . S
O170 Fe155 1.976 . S
O170 C164 1.287 . S
O171 Fe157 1.996 . S
O171 C164 1.255 . S
C172 O165 1.287 . S
C172 O166 1.255 . S
O173 Fe155 2.002 . S
O173 C169 1.295 . S
O174 Fe157 1.997 . S
O174 C169 1.235 . S
C175 O158 1.295 . S
C175 O159 1.235 . S
Fe176 O178 1.918 . S
Fe176 O181 1.997 . S
Fe176 O182 2.002 . S
Fe176 O187 1.976 . S
Fe176 O190 1.996 . S
Fe177 O178 1.918 . S
Fe177 O185 1.997 . S
Fe177 O188 1.996 . S
Fe177 O192 1.976 . S
Fe177 O195 2.002 . S
O178 Fe176 1.918 . S
O178 Fe177 1.918 . S
O178 Fe179 1.918 . S
Fe179 O178 1.918 . S
Fe179 O180 2.002 . S
Fe179 O189 1.976 . S
Fe179 O193 1.996 . S
Fe179 O196 1.997 . S
O180 Fe179 2.002 . S
O180 C197 1.295 . S
O181 Fe176 1.997 . S
O181 C197 1.235 . S
O182 Fe176 2.002 . S
O182 C183 1.295 . S
C183 O182 1.295 . S
C183 O185 1.235 . S
C184 O189 1.287 . S
C184 O190 1.255 . S
O185 Fe177 1.997 . S
O185 C183 1.235 . S
C186 O192 1.287 . S
C186 O193 1.255 . S
O187 Fe176 1.976 . S
O187 C194 1.287 . S
O188 Fe177 1.996 . S
O188 C194 1.255 . S
O189 Fe179 1.976 . S
O189 C184 1.287 . S
O190 Fe176 1.996 . S
O190 C184 1.255 . S
C191 O195 1.295 . S
C191 O196 1.235 . S
O192 Fe177 1.976 . S
O192 C186 1.287 . S
O193 Fe179 1.996 . S
O193 C186 1.255 . S
C194 O187 1.287 . S
C194 O188 1.255 . S
O195 Fe177 2.002 . S
O195 C191 1.295 . S
O196 Fe179 1.997 . S
O196 C191 1.235 . S
C197 O180 1.295 . S
C197 O181 1.235 . S
Fe198 O200 1.918 . S
Fe198 O203 1.997 . S
Fe198 O204 2.002 . S
Fe198 O209 1.976 . S
Fe198 O212 1.996 . S
Fe199 O200 1.918 . S
Fe199 O207 1.997 . S
Fe199 O210 1.996 . S
Fe199 O214 1.976 . S
Fe199 O217 2.002 . S
O200 Fe198 1.918 . S
O200 Fe199 1.918 . S
O200 Fe201 1.918 . S
Fe201 O200 1.918 . S
Fe201 O202 2.002 . S
Fe201 O211 1.976 . S
Fe201 O215 1.996 . S
Fe201 O218 1.997 . S
O202 Fe201 2.002 . S
O202 C219 1.295 . S
O203 Fe198 1.997 . S
O203 C219 1.235 . S
O204 Fe198 2.002 . S
O204 C205 1.295 . S
C205 O204 1.295 . S
C205 O207 1.235 . S
C206 O211 1.287 . S
C206 O212 1.255 . S
O207 Fe199 1.997 . S
O207 C205 1.235 . S
C208 O214 1.287 . S
C208 O215 1.255 . S
O209 Fe198 1.976 . S
O209 C216 1.287 . S
O210 Fe199 1.996 . S
O210 C216 1.255 . S
O211 Fe201 1.976 . S
O211 C206 1.287 . S
O212 Fe198 1.996 . S
O212 C206 1.255 . S
C213 O217 1.295 . S
C213 O218 1.235 . S
O214 Fe199 1.976 . S
O214 C208 1.287 . S
O215 Fe201 1.996 . S
O215 C208 1.255 . S
C216 O209 1.287 . S
C216 O210 1.255 . S
O217 Fe199 2.002 . S
O217 C213 1.295 . S
O218 Fe201 1.997 . S
O218 C213 1.235 . S
C219 O202 1.295 . S
C219 O203 1.235 . S
Fe220 O222 1.918 . S
Fe220 O225 1.997 . S
Fe220 O226 2.002 . S
Fe220 O231 1.976 . S
Fe220 O234 1.996 . S
Fe221 O222 1.918 . S
Fe221 O229 1.997 . S
Fe221 O232 1.996 . S
Fe221 O236 1.976 . S
Fe221 O239 2.002 . S
O222 Fe220 1.918 . S
O222 Fe221 1.918 . S
O222 Fe223 1.918 . S
Fe223 O222 1.918 . S
Fe223 O224 2.002 . S
Fe223 O233 1.976 . S
Fe223 O237 1.996 . S
Fe223 O240 1.997 . S
O224 Fe223 2.002 . S
O224 C241 1.295 . S
O225 Fe220 1.997 . S
O225 C241 1.235 . S
O226 Fe220 2.002 . S
O226 C227 1.295 . S
C227 O226 1.295 . S
C227 O229 1.235 . S
C228 O233 1.287 . S
C228 O234 1.255 . S
O229 Fe221 1.997 . S
O229 C227 1.235 . S
C230 O236 1.287 . S
C230 O237 1.255 . S
O231 Fe220 1.976 . S
O231 C238 1.287 . S
O232 Fe221 1.996 . S
O232 C238 1.255 . S
O233 Fe223 1.976 . S
O233 C228 1.287 . S
O234 Fe220 1.996 . S
O234 C228 1.255 . S
C235 O239 1.295 . S
C235 O240 1.235 . S
O236 Fe221 1.976 . S
O236 C230 1.287 . S
O237 Fe223 1.996 . S
O237 C230 1.255 . S
C238 O231 1.287 . S
C238 O232 1.255 . S
O239 Fe221 2.002 . S
O239 C235 1.295 . S
O240 Fe223 1.997 . S
O240 C235 1.235 . S
C241 O224 1.295 . S
C241 O225 1.235 . S
Fe242 O244 1.918 . S
Fe242 O247 1.997 . S
Fe242 O248 2.002 . S
Fe242 O253 1.976 . S
Fe242 O256 1.996 . S
Fe243 O244 1.918 . S
Fe243 O251 1.997 . S
Fe243 O254 1.996 . S
Fe243 O258 1.976 . S
Fe243 O261 2.002 . S
O244 Fe242 1.918 . S
O244 Fe243 1.918 . S
O244 Fe245 1.918 . S
Fe245 O244 1.918 . S
Fe245 O246 2.002 . S
Fe245 O255 1.976 . S
Fe245 O259 1.996 . S
Fe245 O262 1.997 . S
O246 Fe245 2.002 . S
O246 C263 1.295 . S
O247 Fe242 1.997 . S
O247 C263 1.235 . S
O248 Fe242 2.002 . S
O248 C249 1.295 . S
C249 O248 1.295 . S
C249 O251 1.235 . S
C250 O255 1.287 . S
C250 O256 1.255 . S
O251 Fe243 1.997 . S
O251 C249 1.235 . S
C252 O258 1.287 . S
C252 O259 1.255 . S
O253 Fe242 1.976 . S
O253 C260 1.287 . S
O254 Fe243 1.996 . S
O254 C260 1.255 . S
O255 Fe245 1.976 . S
O255 C250 1.287 . S
O256 Fe242 1.996 . S
O256 C250 1.255 . S
C257 O261 1.295 . S
C257 O262 1.235 . S
O258 Fe243 1.976 . S
O258 C252 1.287 . S
O259 Fe245 1.996 . S
O259 C252 1.255 . S
C260 O253 1.287 . S
C260 O254 1.255 . S
O261 Fe243 2.002 . S
O261 C257 1.295 . S
O262 Fe245 1.997 . S
O262 C257 1.235 . S
C263 O246 1.295 . S
C263 O247 1.235 . S
Fe264 O266 1.918 . S
Fe264 O269 1.997 . S
Fe264 O270 2.002 . S
Fe264 O275 1.976 . S
Fe264 O278 1.996 . S
Fe265 O266 1.918 . S
Fe265 O273 1.997 . S
Fe265 O276 1.996 . S
Fe265 O280 1.976 . S
Fe265 O283 2.002 . S
O266 Fe264 1.918 . S
O266 Fe265 1.918 . S
O266 Fe267 1.918 . S
Fe267 O266 1.918 . S
Fe267 O268 2.002 . S
Fe267 O277 1.976 . S
Fe267 O281 1.996 . S
Fe267 O284 1.997 . S
O268 Fe267 2.002 . S
O268 C285 1.295 . S
O269 Fe264 1.997 . S
O269 C285 1.235 . S
O270 Fe264 2.002 . S
O270 C271 1.295 . S
C271 O270 1.295 . S
C271 O273 1.235 . S
C272 O277 1.287 . S
C272 O278 1.255 . S
O273 Fe265 1.997 . S
O273 C271 1.235 . S
C274 O280 1.287 . S
C274 O281 1.255 . S
O275 Fe264 1.976 . S
O275 C282 1.287 . S
O276 Fe265 1.996 . S
O276 C282 1.255 . S
O277 Fe267 1.976 . S
O277 C272 1.287 . S
O278 Fe264 1.996 . S
O278 C272 1.255 . S
C279 O283 1.295 . S
C279 O284 1.235 . S
O280 Fe265 1.976 . S
O280 C274 1.287 . S
O281 Fe267 1.996 . S
O281 C274 1.255 . S
C282 O275 1.287 . S
C282 O276 1.255 . S
O283 Fe265 2.002 . S
O283 C279 1.295 . S
O284 Fe267 1.997 . S
O284 C279 1.235 . S
C285 O268 1.295 . S
C285 O269 1.235 . S
Fe286 O288 1.918 . S
Fe286 O291 1.997 . S
Fe286 O292 2.002 . S
Fe286 O297 1.976 . S
Fe286 O300 1.996 . S
Fe287 O288 1.918 . S
Fe287 O295 1.997 . S
Fe287 O298 1.996 . S
Fe287 O302 1.976 . S
Fe287 O305 2.002 . S
O288 Fe286 1.918 . S
O288 Fe287 1.918 . S
O288 Fe289 1.918 . S
Fe289 O288 1.918 . S
Fe289 O290 2.002 . S
Fe289 O299 1.976 . S
Fe289 O303 1.996 . S
Fe289 O306 1.997 . S
O290 Fe289 2.002 . S
O290 C307 1.295 . S
O291 Fe286 1.997 . S
O291 C307 1.235 . S
O292 Fe286 2.002 . S
O292 C293 1.295 . S
C293 O292 1.295 . S
C293 O295 1.235 . S
C294 O299 1.287 . S
C294 O300 1.255 . S
O295 Fe287 1.997 . S
O295 C293 1.235 . S
C296 O302 1.287 . S
C296 O303 1.255 . S
O297 Fe286 1.976 . S
O297 C304 1.287 . S
O298 Fe287 1.996 . S
O298 C304 1.255 . S
O299 Fe289 1.976 . S
O299 C294 1.287 . S
O300 Fe286 1.996 . S
O300 C294 1.255 . S
C301 O305 1.295 . S
C301 O306 1.235 . S
O302 Fe287 1.976 . S
O302 C296 1.287 . S
O303 Fe289 1.996 . S
O303 C296 1.255 . S
C304 O297 1.287 . S
C304 O298 1.255 . S
O305 Fe287 2.002 . S
O305 C301 1.295 . S
O306 Fe289 1.997 . S
O306 C301 1.235 . S
C307 O290 1.295 . S
C307 O291 1.235 . S
Fe308 O310 1.918 . S
Fe308 O313 1.997 . S
Fe308 O314 2.002 . S
Fe308 O319 1.976 . S
Fe308 O322 1.996 . S
Fe309 O310 1.918 . S
Fe309 O317 1.997 . S
Fe309 O320 1.996 . S
Fe309 O324 1.976 . S
Fe309 O327 2.002 . S
O310 Fe308 1.918 . S
O310 Fe309 1.918 . S
O310 Fe311 1.918 . S
Fe311 O310 1.918 . S
Fe311 O312 2.002 . S
Fe311 O321 1.976 . S
Fe311 O325 1.996 . S
Fe311 O328 1.997 . S
O312 Fe311 2.002 . S
O312 C329 1.295 . S
O313 Fe308 1.997 . S
O313 C329 1.235 . S
O314 Fe308 2.002 . S
O314 C315 1.295 . S
C315 O314 1.295 . S
C315 O317 1.235 . S
C316 O321 1.287 . S
C316 O322 1.255 . S
O317 Fe309 1.997 . S
O317 C315 1.235 . S
C318 O324 1.287 . S
C318 O325 1.255 . S
O319 Fe308 1.976 . S
O319 C326 1.287 . S
O320 Fe309 1.996 . S
O320 C326 1.255 . S
O321 Fe311 1.976 . S
O321 C316 1.287 . S
O322 Fe308 1.996 . S
O322 C316 1.255 . S
C323 O327 1.295 . S
C323 O328 1.235 . S
O324 Fe309 1.976 . S
O324 C318 1.287 . S
O325 Fe311 1.996 . S
O325 C318 1.255 . S
C326 O319 1.287 . S
C326 O320 1.255 . S
O327 Fe309 2.002 . S
O327 C323 1.295 . S
O328 Fe311 1.997 . S
O328 C323 1.235 . S
C329 O312 1.295 . S
C329 O313 1.235 . S
Fe330 O332 1.918 . S
Fe330 O335 1.997 . S
Fe330 O336 2.002 . S
Fe330 O341 1.976 . S
Fe330 O344 1.996 . S
Fe331 O332 1.918 . S
Fe331 O339 1.997 . S
Fe331 O342 1.996 . S
Fe331 O346 1.976 . S
Fe331 O349 2.002 . S
O332 Fe330 1.918 . S
O332 Fe331 1.918 . S
O332 Fe333 1.918 . S
Fe333 O332 1.918 . S
Fe333 O334 2.002 . S
Fe333 O343 1.976 . S
Fe333 O347 1.996 . S
Fe333 O350 1.997 . S
O334 Fe333 2.002 . S
O334 C351 1.295 . S
O335 Fe330 1.997 . S
O335 C351 1.235 . S
O336 Fe330 2.002 . S
O336 C337 1.295 . S
C337 O336 1.295 . S
C337 O339 1.235 . S
C338 O343 1.287 . S
C338 O344 1.255 . S
O339 Fe331 1.997 . S
O339 C337 1.235 . S
C340 O346 1.287 . S
C340 O347 1.255 . S
O341 Fe330 1.976 . S
O341 C348 1.287 . S
O342 Fe331 1.996 . S
O342 C348 1.255 . S
O343 Fe333 1.976 . S
O343 C338 1.287 . S
O344 Fe330 1.996 . S
O344 C338 1.255 . S
C345 O349 1.295 . S
C345 O350 1.235 . S
O346 Fe331 1.976 . S
O346 C340 1.287 . S
O347 Fe333 1.996 . S
O347 C340 1.255 . S
C348 O341 1.287 . S
C348 O342 1.255 . S
O349 Fe331 2.002 . S
O349 C345 1.295 . S
O350 Fe333 1.997 . S
O350 C345 1.235 . S
C351 O334 1.295 . S
C351 O335 1.235 . S
H352 C358 0.930 . S
H353 C361 0.930 . S
H354 C362 0.930 . S
H355 C363 0.930 . S
H356 C366 0.930 . S
H357 C367 0.930 . S
C358 H352 0.930 . S
C358 C359 1.355 . S
C358 C360 1.415 . S
C359 C358 1.355 . S
C359 C361 1.419 . S
C360 C358 1.415 . S
C360 C365 1.425 . S
C360 C367 1.409 . S
C361 H353 0.930 . S
C361 C359 1.419 . S
C361 C362 1.362 . S
C362 H354 0.930 . S
C362 C361 1.362 . S
C362 C365 1.409 . S
C363 H355 0.930 . S
C363 C364 1.355 1_545 S
C363 C365 1.415 . S
C364 C363 1.355 1_565 S
C364 C366 1.419 . S
C365 C360 1.425 . S
C365 C362 1.409 . S
C365 C363 1.415 . S
C366 H356 0.930 . S
C366 C364 1.419 . S
C366 C367 1.362 1_565 S
C367 H357 0.930 . S
C367 C360 1.409 . S
C367 C366 1.362 1_545 S
H368 C374 0.930 . S
H369 C377 0.930 . S
H370 C378 0.930 . S
H371 C379 0.930 . S
H372 C382 0.930 . S
H373 C383 0.930 1_545 S
C374 H368 0.930 . S
C374 C375 1.355 . S
C374 C376 1.415 . S
C375 C374 1.355 . S
C375 C377 1.419 . S
C376 C374 1.415 . S
C376 C381 1.425 . S
C376 C383 1.409 . S
C377 H369 0.930 . S
C377 C375 1.419 . S
C377 C378 1.362 . S
C378 H370 0.930 . S
C378 C377 1.362 . S
C378 C381 1.409 . S
C379 H371 0.930 . S
C379 C380 1.355 1_565 S
C379 C381 1.415 . S
C380 C379 1.355 1_545 S
C380 C382 1.419 . S
C381 C376 1.425 . S
C381 C378 1.409 . S
C381 C379 1.415 . S
C382 H372 0.930 . S
C382 C380 1.419 . S
C382 C383 1.362 1_545 S
C383 H373 0.930 1_565 S
C383 C376 1.409 . S
C383 C382 1.362 1_565 S
H384 C390 0.930 . S
H385 C393 0.930 . S
H386 C394 0.930 . S
H387 C395 0.930 . S
H388 C398 0.930 . S
H389 C399 0.930 . S
C390 H384 0.930 . S
C390 C391 1.355 . S
C390 C392 1.415 . S
C391 C390 1.355 . S
C391 C393 1.419 . S
C392 C390 1.415 . S
C392 C397 1.425 . S
C392 C399 1.409 . S
C393 H385 0.930 . S
C393 C391 1.419 . S
C393 C394 1.362 . S
C394 H386 0.930 . S
C394 C393 1.362 . S
C394 C397 1.409 . S
C395 H387 0.930 . S
C395 C396 1.355 . S
C395 C397 1.415 1_545 S
C396 C395 1.355 . S
C396 C398 1.419 1_545 S
C397 C392 1.425 . S
C397 C394 1.409 . S
C397 C395 1.415 1_565 S
C398 H388 0.930 . S
C398 C396 1.419 1_565 S
C398 C399 1.362 . S
C399 H389 0.930 . S
C399 C392 1.409 . S
C399 C398 1.362 . S
H400 C406 0.930 . S
H401 C409 0.930 . S
H402 C410 0.930 . S
H403 C411 0.930 . S
H404 C414 0.930 . S
H405 C415 0.930 . S
C406 H400 0.930 . S
C406 C407 1.355 . S
C406 C408 1.415 1_565 S
C407 C406 1.355 . S
C407 C409 1.419 1_565 S
C408 C406 1.415 1_545 S
C408 C413 1.425 . S
C408 C415 1.409 . S
C409 H401 0.930 . S
C409 C407 1.419 1_545 S
C409 C410 1.362 . S
C410 H402 0.930 . S
C410 C409 1.362 . S
C410 C413 1.409 . S
C411 H403 0.930 . S
C411 C412 1.355 . S
C411 C413 1.415 . S
C412 C411 1.355 . S
C412 C414 1.419 . S
C413 C408 1.425 . S
C413 C410 1.409 . S
C413 C411 1.415 . S
C414 H404 0.930 . S
C414 C412 1.419 . S
C414 C415 1.362 . S
C415 H405 0.930 . S
C415 C408 1.409 . S
C415 C414 1.362 . S
H416 C422 0.930 . S
H417 C425 0.930 . S
H418 C426 0.930 1_545 S
H419 C427 0.930 . S
H420 C430 0.930 . S
H421 C431 0.930 . S
C422 H416 0.930 . S
C422 C423 1.355 1_565 S
C422 C424 1.415 . S
C423 C422 1.355 1_545 S
C423 C425 1.419 . S
C424 C422 1.415 . S
C424 C429 1.425 . S
C424 C431 1.409 . S
C425 H417 0.930 . S
C425 C423 1.419 . S
C425 C426 1.362 1_545 S
C426 H418 0.930 1_565 S
C426 C425 1.362 1_565 S
C426 C429 1.409 . S
C427 H419 0.930 . S
C427 C428 1.355 . S
C427 C429 1.415 . S
C428 C427 1.355 . S
C428 C430 1.419 . S
C429 C424 1.425 . S
C429 C426 1.409 . S
C429 C427 1.415 . S
C430 H420 0.930 . S
C430 C428 1.419 . S
C430 C431 1.362 . S
C431 H421 0.930 . S
C431 C424 1.409 . S
C431 C430 1.362 . S
H432 C438 0.930 . S
H433 C441 0.930 . S
H434 C442 0.930 . S
H435 C443 0.930 . S
H436 C446 0.930 . S
H437 C447 0.930 . S
C438 H432 0.930 . S
C438 C439 1.355 . S
C438 C440 1.415 1_565 S
C439 C438 1.355 . S
C439 C441 1.419 1_565 S
C440 C438 1.415 1_545 S
C440 C445 1.425 . S
C440 C447 1.409 . S
C441 H433 0.930 . S
C441 C439 1.419 1_545 S
C441 C442 1.362 . S
C442 H434 0.930 . S
C442 C441 1.362 . S
C442 C445 1.409 . S
C443 H435 0.930 . S
C443 C444 1.355 . S
C443 C445 1.415 . S
C444 C443 1.355 . S
C444 C446 1.419 . S
C445 C440 1.425 . S
C445 C442 1.409 . S
C445 C443 1.415 . S
C446 H436 0.930 . S
C446 C444 1.419 . S
C446 C447 1.362 . S
C447 H437 0.930 . S
C447 C440 1.409 . S
C447 C446 1.362 . S
H448 C454 0.930 . S
H449 C457 0.930 . S
H450 C458 0.930 . S
H451 C459 0.930 . S
H452 C462 0.930 . S
H453 C463 0.930 . S
C454 H448 0.930 . S
C454 C455 1.355 . S
C454 C456 1.415 1_565 S
C455 C454 1.355 . S
C455 C457 1.419 1_565 S
C456 C454 1.415 1_545 S
C456 C461 1.425 . S
C456 C463 1.409 . S
C457 H449 0.930 . S
C457 C455 1.419 1_545 S
C457 C458 1.362 . S
C458 H450 0.930 . S
C458 C457 1.362 . S
C458 C461 1.409 . S
C459 H451 0.930 . S
C459 C460 1.355 . S
C459 C461 1.415 . S
C460 C459 1.355 . S
C460 C462 1.419 . S
C461 C456 1.425 . S
C461 C458 1.409 . S
C461 C459 1.415 . S
C462 H452 0.930 . S
C462 C460 1.419 . S
C462 C463 1.362 . S
C463 H453 0.930 . S
C463 C456 1.409 . S
C463 C462 1.362 . S
H464 C470 0.930 . S
H465 C473 0.930 . S
H466 C474 0.930 . S
H467 C475 0.930 . S
H468 C478 0.930 . S
H469 C479 0.930 . S
C470 H464 0.930 . S
C470 C471 1.355 . S
C470 C472 1.415 1_545 S
C471 C470 1.355 . S
C471 C473 1.419 1_545 S
C472 C470 1.415 1_565 S
C472 C477 1.425 . S
C472 C479 1.409 . S
C473 H465 0.930 . S
C473 C471 1.419 1_565 S
C473 C474 1.362 . S
C474 H466 0.930 . S
C474 C473 1.362 . S
C474 C477 1.409 . S
C475 H467 0.930 . S
C475 C476 1.355 . S
C475 C477 1.415 . S
C476 C475 1.355 . S
C476 C478 1.419 . S
C477 C472 1.425 . S
C477 C474 1.409 . S
C477 C475 1.415 . S
C478 H468 0.930 . S
C478 C476 1.419 . S
C478 C479 1.362 . S
C479 H469 0.930 . S
C479 C472 1.409 . S
C479 C478 1.362 . S
H480 C486 0.930 . S
H481 C489 0.930 . S
H482 C490 0.930 . S
H483 C491 0.930 . S
H484 C494 0.930 . S
H485 C495 0.930 . S
C486 H480 0.930 . S
C486 C487 1.355 . S
C486 C488 1.415 . S
C487 C486 1.355 . S
C487 C489 1.419 . S
C488 C486 1.415 . S
C488 C493 1.425 . S
C488 C495 1.409 . S
C489 H481 0.930 . S
C489 C487 1.419 . S
C489 C490 1.362 . S
C490 H482 0.930 . S
C490 C489 1.362 . S
C490 C493 1.409 . S
C491 H483 0.930 . S
C491 C492 1.355 . S
C491 C493 1.415 . S
C492 C491 1.355 . S
C492 C494 1.419 . S
C493 C488 1.425 . S
C493 C490 1.409 . S
C493 C491 1.415 . S
C494 H484 0.930 . S
C494 C492 1.419 . S
C494 C495 1.362 . S
C495 H485 0.930 . S
C495 C488 1.409 . S
C495 C494 1.362 . S
H496 C502 0.930 . S
H497 C505 0.930 . S
H498 C506 0.930 . S
H499 C507 0.930 . S
H500 C510 0.930 . S
H501 C511 0.930 . S
C502 H496 0.930 . S
C502 C503 1.355 . S
C502 C504 1.415 . S
C503 C502 1.355 . S
C503 C505 1.419 . S
C504 C502 1.415 . S
C504 C509 1.425 . S
C504 C511 1.409 . S
C505 H497 0.930 . S
C505 C503 1.419 . S
C505 C506 1.362 . S
C506 H498 0.930 . S
C506 C505 1.362 . S
C506 C509 1.409 . S
C507 H499 0.930 . S
C507 C508 1.355 . S
C507 C509 1.415 . S
C508 C507 1.355 . S
C508 C510 1.419 . S
C509 C504 1.425 . S
C509 C506 1.409 . S
C509 C507 1.415 . S
C510 H500 0.930 . S
C510 C508 1.419 . S
C510 C511 1.362 . S
C511 H501 0.930 . S
C511 C504 1.409 . S
C511 C510 1.362 . S
H512 C518 0.930 . S
H513 C521 0.930 . S
H514 C522 0.930 . S
H515 C523 0.930 . S
H516 C526 0.930 . S
H517 C527 0.930 . S
C518 H512 0.930 . S
C518 C519 1.355 . S
C518 C520 1.415 . S
C519 C518 1.355 . S
C519 C521 1.419 . S
C520 C518 1.415 . S
C520 C525 1.425 . S
C520 C527 1.409 . S
C521 H513 0.930 . S
C521 C519 1.419 . S
C521 C522 1.362 . S
C522 H514 0.930 . S
C522 C521 1.362 . S
C522 C525 1.409 . S
C523 H515 0.930 . S
C523 C524 1.355 . S
C523 C525 1.415 . S
C524 C523 1.355 . S
C524 C526 1.419 . S
C525 C520 1.425 . S
C525 C522 1.409 . S
C525 C523 1.415 . S
C526 H516 0.930 . S
C526 C524 1.419 . S
C526 C527 1.362 . S
C527 H517 0.930 . S
C527 C520 1.409 . S
C527 C526 1.362 . S
H528 C534 0.930 . S
H529 C537 0.930 . S
H530 C538 0.930 . S
H531 C539 0.930 . S
H532 C542 0.930 . S
H533 C543 0.930 . S
C534 H528 0.930 . S
C534 C535 1.355 . S
C534 C536 1.415 . S
C535 C534 1.355 . S
C535 C537 1.419 . S
C536 C534 1.415 . S
C536 C541 1.425 . S
C536 C543 1.409 . S
C537 H529 0.930 . S
C537 C535 1.419 . S
C537 C538 1.362 . S
C538 H530 0.930 . S
C538 C537 1.362 . S
C538 C541 1.409 . S
C539 H531 0.930 . S
C539 C540 1.355 . S
C539 C541 1.415 . S
C540 C539 1.355 . S
C540 C542 1.419 . S
C541 C536 1.425 . S
C541 C538 1.409 . S
C541 C539 1.415 . S
C542 H532 0.930 . S
C542 C540 1.419 . S
C542 C543 1.362 . S
C543 H533 0.930 . S
C543 C536 1.409 . S
C543 C542 1.362 . S
H544 C550 0.930 . S
H545 C553 0.930 . S
H546 C554 0.930 . S
H547 C555 0.930 . S
H548 C558 0.930 . S
H549 C559 0.930 . S
C550 H544 0.930 . S
C550 C551 1.355 . S
C550 C552 1.415 . S
C551 C550 1.355 . S
C551 C553 1.419 . S
C552 C550 1.415 . S
C552 C557 1.425 . S
C552 C559 1.409 . S
C553 H545 0.930 . S
C553 C551 1.419 . S
C553 C554 1.362 . S
C554 H546 0.930 . S
C554 C553 1.362 . S
C554 C557 1.409 . S
C555 H547 0.930 . S
C555 C556 1.355 . S
C555 C557 1.415 . S
C556 C555 1.355 . S
C556 C558 1.419 . S
C557 C552 1.425 . S
C557 C554 1.409 . S
C557 C555 1.415 . S
C558 H548 0.930 . S
C558 C556 1.419 . S
C558 C559 1.362 . S
C559 H549 0.930 . S
C559 C552 1.409 . S
C559 C558 1.362 . S
H560 C566 0.930 . S
H561 C569 0.930 . S
H562 C570 0.930 . S
H563 C571 0.930 . S
H564 C574 0.930 . S
H565 C575 0.930 . S
C566 H560 0.930 . S
C566 C567 1.355 . S
C566 C568 1.415 . S
C567 C566 1.355 . S
C567 C569 1.419 . S
C568 C566 1.415 . S
C568 C573 1.425 . S
C568 C575 1.409 . S
C569 H561 0.930 . S
C569 C567 1.419 . S
C569 C570 1.362 . S
C570 H562 0.930 . S
C570 C569 1.362 . S
C570 C573 1.409 . S
C571 H563 0.930 . S
C571 C572 1.355 . S
C571 C573 1.415 . S
C572 C571 1.355 . S
C572 C574 1.419 . S
C573 C568 1.425 . S
C573 C570 1.409 . S
C573 C571 1.415 . S
C574 H564 0.930 . S
C574 C572 1.419 . S
C574 C575 1.362 . S
C575 H565 0.930 . S
C575 C568 1.409 . S
C575 C574 1.362 . S
H576 C582 0.930 . S
H577 C585 0.930 . S
H578 C586 0.930 . S
H579 C587 0.930 . S
H580 C590 0.930 . S
H581 C591 0.930 . S
C582 H576 0.930 . S
C582 C583 1.355 . S
C582 C584 1.415 . S
C583 C582 1.355 . S
C583 C585 1.419 . S
C584 C582 1.415 . S
C584 C589 1.425 . S
C584 C591 1.409 . S
C585 H577 0.930 . S
C585 C583 1.419 . S
C585 C586 1.362 . S
C586 H578 0.930 . S
C586 C585 1.362 . S
C586 C589 1.409 . S
C587 H579 0.930 . S
C587 C588 1.355 . S
C587 C589 1.415 . S
C588 C587 1.355 . S
C588 C590 1.419 . S
C589 C584 1.425 . S
C589 C586 1.409 . S
C589 C587 1.415 . S
C590 H580 0.930 . S
C590 C588 1.419 . S
C590 C591 1.362 . S
C591 H581 0.930 . S
C591 C584 1.409 . S
C591 C590 1.362 . S
H592 C598 0.930 . S
H593 C601 0.930 . S
H594 C602 0.930 . S
H595 C603 0.930 . S
H596 C606 0.930 . S
H597 C607 0.930 . S
C598 H592 0.930 . S
C598 C599 1.355 . S
C598 C600 1.415 . S
C599 C598 1.355 . S
C599 C601 1.419 . S
C600 C598 1.415 . S
C600 C605 1.425 . S
C600 C607 1.409 . S
C601 H593 0.930 . S
C601 C599 1.419 . S
C601 C602 1.362 . S
C602 H594 0.930 . S
C602 C601 1.362 . S
C602 C605 1.409 . S
C603 H595 0.930 . S
C603 C604 1.355 . S
C603 C605 1.415 . S
C604 C603 1.355 . S
C604 C606 1.419 . S
C605 C600 1.425 . S
C605 C602 1.409 . S
C605 C603 1.415 . S
C606 H596 0.930 . S
C606 C604 1.419 . S
C606 C607 1.362 . S
C607 H597 0.930 . S
C607 C600 1.409 . S
C607 C606 1.362 . S
H608 C614 0.930 . S
H609 C617 0.930 . S
H610 C618 0.950 . S
H611 C619 0.930 . S
H612 C622 0.930 . S
H613 C623 0.950 . S
C614 H608 0.930 . S
C614 C615 1.355 . S
C614 C616 1.415 . S
C615 C614 1.355 . S
C615 C617 1.419 . S
C616 C614 1.415 . S
C616 C621 1.425 1_554 S
C616 C623 1.419 . S
C617 H609 0.930 . S
C617 C615 1.419 . S
C617 C618 1.334 1_554 S
C618 H610 0.950 . S
C618 C617 1.334 1_556 S
C618 C621 1.419 . S
C619 H611 0.930 . S
C619 C620 1.355 . S
C619 C621 1.415 . S
C620 C619 1.355 . S
C620 C622 1.419 . S
C621 C616 1.425 1_556 S
C621 C618 1.419 . S
C621 C619 1.415 . S
C622 H612 0.930 . S
C622 C620 1.419 . S
C622 C623 1.334 1_556 S
C623 H613 0.950 . S
C623 C616 1.419 . S
C623 C622 1.334 1_554 S
H624 C630 0.930 . S
H625 C633 0.930 . S
H626 C634 0.930 . S
H627 C635 0.930 . S
H628 C638 0.930 . S
H629 C639 0.930 . S
C630 H624 0.930 . S
C630 C631 1.355 . S
C630 C632 1.415 . S
C631 C630 1.355 . S
C631 C633 1.419 . S
C632 C630 1.415 . S
C632 C637 1.425 . S
C632 C639 1.409 . S
C633 H625 0.930 . S
C633 C631 1.419 . S
C633 C634 1.362 . S
C634 H626 0.930 . S
C634 C633 1.362 . S
C634 C637 1.409 . S
C635 H627 0.930 . S
C635 C636 1.355 . S
C635 C637 1.415 . S
C636 C635 1.355 . S
C636 C638 1.419 . S
C637 C632 1.425 . S
C637 C634 1.409 . S
C637 C635 1.415 . S
C638 H628 0.930 . S
C638 C636 1.419 . S
C638 C639 1.362 . S
C639 H629 0.930 . S
C639 C632 1.409 . S
C639 C638 1.362 . S
H640 C646 0.930 . S
H641 C649 0.930 . S
H642 C650 0.930 . S
H643 C651 0.930 . S
H644 C654 0.930 . S
H645 C655 0.930 . S
C646 H640 0.930 . S
C646 C647 1.355 . S
C646 C648 1.415 . S
C647 C646 1.355 . S
C647 C649 1.419 . S
C648 C646 1.415 . S
C648 C653 1.425 1_554 S
C648 C655 1.409 1_554 S
C649 H641 0.930 . S
C649 C647 1.419 . S
C649 C650 1.362 . S
C650 H642 0.930 . S
C650 C649 1.362 . S
C650 C653 1.409 1_554 S
C651 H643 0.930 . S
C651 C652 1.355 . S
C651 C653 1.415 . S
C652 C651 1.355 . S
C652 C654 1.419 . S
C653 C648 1.425 1_556 S
C653 C650 1.409 1_556 S
C653 C651 1.415 . S
C654 H644 0.930 . S
C654 C652 1.419 . S
C654 C655 1.362 . S
C655 H645 0.930 . S
C655 C648 1.409 1_556 S
C655 C654 1.362 . S
H656 C662 0.930 . S
H657 C665 0.930 . S
H658 C666 0.930 . S
H659 C667 0.930 . S
H660 C670 0.930 . S
H661 C671 0.930 . S
C662 H656 0.930 . S
C662 C663 1.355 . S
C662 C664 1.415 . S
C663 C662 1.355 . S
C663 C665 1.419 . S
C664 C662 1.415 . S
C664 C669 1.425 . S
C664 C671 1.409 . S
C665 H657 0.930 . S
C665 C663 1.419 . S
C665 C666 1.362 . S
C666 H658 0.930 . S
C666 C665 1.362 . S
C666 C669 1.409 . S
C667 H659 0.930 . S
C667 C668 1.355 . S
C667 C669 1.415 . S
C668 C667 1.355 . S
C668 C670 1.419 . S
C669 C664 1.425 . S
C669 C666 1.409 . S
C669 C667 1.415 . S
C670 H660 0.930 . S
C670 C668 1.419 . S
C670 C671 1.362 . S
C671 H661 0.930 . S
C671 C664 1.409 . S
C671 C670 1.362 . S
H672 C678 0.930 . S
H673 C681 0.930 . S
H674 C682 0.930 . S
H675 C683 0.930 . S
H676 C686 0.930 . S
H677 C687 0.930 . S
C678 H672 0.930 . S
C678 C679 1.355 . S
C678 C680 1.415 . S
C679 C678 1.355 . S
C679 C681 1.419 . S
C680 C678 1.415 . S
C680 C685 1.425 1_546 S
C680 C687 1.409 1_546 S
C681 H673 0.930 . S
C681 C679 1.419 . S
C681 C682 1.362 . S
C682 H674 0.930 . S
C682 C681 1.362 . S
C682 C685 1.409 1_546 S
C683 H675 0.930 . S
C683 C684 1.355 . S
C683 C685 1.415 . S
C684 C683 1.355 . S
C684 C686 1.419 . S
C685 C680 1.425 1_564 S
C685 C682 1.409 1_564 S
C685 C683 1.415 . S
C686 H676 0.930 . S
C686 C684 1.419 . S
C686 C687 1.362 . S
C687 H677 0.930 . S
C687 C680 1.409 1_564 S
C687 C686 1.362 . S
H688 C694 0.930 . S
H689 C697 0.930 . S
H690 C698 0.930 . S
H691 C699 0.930 . S
H692 C702 0.930 . S
H693 C703 0.930 . S
C694 H688 0.930 . S
C694 C695 1.355 . S
C694 C696 1.415 . S
C695 C694 1.355 . S
C695 C697 1.419 . S
C696 C694 1.415 . S
C696 C701 1.425 1_565 S
C696 C703 1.409 . S
C697 H689 0.930 . S
C697 C695 1.419 . S
C697 C698 1.362 1_565 S
C698 H690 0.930 . S
C698 C697 1.362 1_545 S
C698 C701 1.409 . S
C699 H691 0.930 . S
C699 C700 1.355 . S
C699 C701 1.415 . S
C700 C699 1.355 . S
C700 C702 1.419 . S
C701 C696 1.425 1_545 S
C701 C698 1.409 . S
C701 C699 1.415 . S
C702 H692 0.930 . S
C702 C700 1.419 . S
C702 C703 1.362 1_545 S
C703 H693 0.930 . S
C703 C696 1.409 . S
C703 C702 1.362 1_565 S
H704 C710 0.930 . S
H705 C713 0.930 . S
H706 C714 0.930 . S
H707 C715 0.930 . S
H708 C718 0.930 . S
H709 C719 0.930 . S
C710 H704 0.930 . S
C710 C711 1.355 . S
C710 C712 1.415 1_554 S
C711 C710 1.355 . S
C711 C713 1.419 . S
C712 C710 1.415 1_556 S
C712 C717 1.425 1_566 S
C712 C719 1.409 . S
C713 H705 0.930 . S
C713 C711 1.419 . S
C713 C714 1.362 1_565 S
C714 H706 0.930 . S
C714 C713 1.362 1_545 S
C714 C717 1.409 . S
C715 H707 0.930 . S
C715 C716 1.355 . S
C715 C717 1.415 1_556 S
C716 C715 1.355 . S
C716 C718 1.419 . S
C717 C712 1.425 1_544 S
C717 C714 1.409 . S
C717 C715 1.415 1_554 S
C718 H708 0.930 . S
C718 C716 1.419 . S
C718 C719 1.362 1_545 S
C719 H709 0.930 . S
C719 C712 1.409 . S
C719 C718 1.362 1_565 S
H720 C726 0.936 . S
H721 C729 0.930 . S
H722 C730 0.930 . S
H723 C731 0.936 . S
H724 C734 0.930 . S
H725 C735 0.930 . S
C726 H720 0.936 . S
C726 C727 1.355 . S
C726 C728 1.415 1_565 S
C727 C726 1.355 . S
C727 C729 1.419 . S
C728 C726 1.415 1_545 S
C728 C733 1.425 1_545 S
C728 C735 1.409 . S
C729 H721 0.930 . S
C729 C727 1.419 . S
C729 C730 1.362 . S
C730 H722 0.930 . S
C730 C729 1.362 . S
C730 C733 1.409 . S
C731 H723 0.936 . S
C731 C732 1.355 . S
C731 C733 1.415 1_545 S
C732 C731 1.355 . S
C732 C734 1.419 . S
C733 C728 1.425 1_565 S
C733 C730 1.409 . S
C733 C731 1.415 1_565 S
C734 H724 0.930 . S
C734 C732 1.419 . S
C734 C735 1.362 . S
C735 H725 0.930 . S
C735 C728 1.409 . S
C735 C734 1.362 . S
H736 C742 0.930 . S
H737 C745 0.930 . S
H738 C746 0.930 . S
H739 C747 0.930 . S
H740 C750 0.930 . S
H741 C751 0.930 . S
C742 H736 0.930 . S
C742 C743 1.355 . S
C742 C744 1.415 . S
C743 C742 1.355 . S
C743 C745 1.419 . S
C744 C742 1.415 . S
C744 C749 1.425 . S
C744 C751 1.409 . S
C745 H737 0.930 . S
C745 C743 1.419 . S
C745 C746 1.362 . S
C746 H738 0.930 . S
C746 C745 1.362 . S
C746 C749 1.409 . S
C747 H739 0.930 . S
C747 C748 1.355 . S
C747 C749 1.415 . S
C748 C747 1.355 . S
C748 C750 1.419 . S
C749 C744 1.425 . S
C749 C746 1.409 . S
C749 C747 1.415 . S
C750 H740 0.930 . S
C750 C748 1.419 . S
C750 C751 1.362 . S
C751 H741 0.930 . S
C751 C744 1.409 . S
C751 C750 1.362 . S
H752 C758 0.930 . S
H753 C761 0.930 . S
H754 C762 0.930 . S
H755 C763 0.930 . S
H756 C766 0.930 . S
H757 C767 0.930 . S
C758 H752 0.930 . S
C758 C759 1.355 . S
C758 C760 1.415 . S
C759 C758 1.355 . S
C759 C761 1.419 . S
C760 C758 1.415 . S
C760 C765 1.425 . S
C760 C767 1.409 . S
C761 H753 0.930 . S
C761 C759 1.419 . S
C761 C762 1.362 . S
C762 H754 0.930 . S
C762 C761 1.362 . S
C762 C765 1.409 . S
C763 H755 0.930 . S
C763 C764 1.355 . S
C763 C765 1.415 . S
C764 C763 1.355 . S
C764 C766 1.419 . S
C765 C760 1.425 . S
C765 C762 1.409 . S
C765 C763 1.415 . S
C766 H756 0.930 . S
C766 C764 1.419 . S
C766 C767 1.362 . S
C767 H757 0.930 . S
C767 C760 1.409 . S
C767 C766 1.362 . S
H768 C774 0.930 . S
H769 C777 0.930 . S
H770 C778 0.930 . S
H771 C779 0.930 . S
H772 C782 0.930 . S
H773 C783 0.930 . S
C774 H768 0.930 . S
C774 C775 1.355 . S
C774 C776 1.415 . S
C775 C774 1.355 . S
C775 C777 1.419 . S
C776 C774 1.415 . S
C776 C781 1.425 . S
C776 C783 1.409 . S
C777 H769 0.930 . S
C777 C775 1.419 . S
C777 C778 1.362 . S
C778 H770 0.930 . S
C778 C777 1.362 . S
C778 C781 1.409 . S
C779 H771 0.930 . S
C779 C780 1.355 . S
C779 C781 1.415 . S
C780 C779 1.355 . S
C780 C782 1.419 . S
C781 C776 1.425 . S
C781 C778 1.409 . S
C781 C779 1.415 . S
C782 H772 0.930 . S
C782 C780 1.419 . S
C782 C783 1.362 . S
C783 H773 0.930 . S
C783 C776 1.409 . S
C783 C782 1.362 . S
H784 C790 0.930 . S
H785 C793 0.930 . S
H786 C794 0.930 . S
H787 C795 0.930 . S
H788 C798 0.930 . S
H789 C799 0.930 . S
C790 H784 0.930 . S
C790 C791 1.355 . S
C790 C792 1.415 . S
C791 C790 1.355 . S
C791 C793 1.419 . S
C792 C790 1.415 . S
C792 C797 1.425 . S
C792 C799 1.409 . S
C793 H785 0.930 . S
C793 C791 1.419 . S
C793 C794 1.362 . S
C794 H786 0.930 . S
C794 C793 1.362 . S
C794 C797 1.409 . S
C795 H787 0.930 . S
C795 C796 1.355 . S
C795 C797 1.415 . S
C796 C795 1.355 . S
C796 C798 1.419 . S
C797 C792 1.425 . S
C797 C794 1.409 . S
C797 C795 1.415 . S
C798 H788 0.930 . S
C798 C796 1.419 . S
C798 C799 1.362 . S
C799 H789 0.930 . S
C799 C792 1.409 . S
C799 C798 1.362 . S
H800 C806 0.930 . S
H801 C809 0.930 . S
H802 C810 0.930 . S
H803 C811 0.930 . S
H804 C814 0.930 . S
H805 C815 0.930 . S
C806 H800 0.930 . S
C806 C807 1.355 . S
C806 C808 1.415 . S
C807 C806 1.355 . S
C807 C809 1.419 . S
C808 C806 1.415 . S
C808 C813 1.425 1_655 S
C808 C815 1.409 1_655 S
C809 H801 0.930 . S
C809 C807 1.419 . S
C809 C810 1.362 . S
C810 H802 0.930 . S
C810 C809 1.362 . S
C810 C813 1.409 1_655 S
C811 H803 0.930 . S
C811 C812 1.355 . S
C811 C813 1.415 . S
C812 C811 1.355 . S
C812 C814 1.419 . S
C813 C808 1.425 1_455 S
C813 C810 1.409 1_455 S
C813 C811 1.415 . S
C814 H804 0.930 . S
C814 C812 1.419 . S
C814 C815 1.362 . S
C815 H805 0.930 . S
C815 C808 1.409 1_455 S
C815 C814 1.362 . S
H816 C822 0.930 . S
H817 C825 0.930 . S
H818 C826 0.930 . S
H819 C827 0.930 . S
H820 C830 0.930 . S
H821 C831 0.930 . S
C822 H816 0.930 . S
C822 C823 1.355 . S
C822 C824 1.415 . S
C823 C822 1.355 . S
C823 C825 1.419 . S
C824 C822 1.415 . S
C824 C829 1.425 1_655 S
C824 C831 1.409 1_655 S
C825 H817 0.930 . S
C825 C823 1.419 . S
C825 C826 1.362 . S
C826 H818 0.930 . S
C826 C825 1.362 . S
C826 C829 1.409 1_655 S
C827 H819 0.930 . S
C827 C828 1.355 . S
C827 C829 1.415 . S
C828 C827 1.355 . S
C828 C830 1.419 . S
C829 C824 1.425 1_455 S
C829 C826 1.409 1_455 S
C829 C827 1.415 . S
C830 H820 0.930 . S
C830 C828 1.419 . S
C830 C831 1.362 . S
C831 H821 0.930 . S
C831 C824 1.409 1_455 S
C831 C830 1.362 . S
H832 C838 0.930 . S
H833 C841 0.930 . S
H834 C842 0.930 . S
H835 C843 0.930 . S
H836 C846 0.930 . S
H837 C847 0.930 . S
C838 H832 0.930 . S
C838 C839 1.355 . S
C838 C840 1.415 . S
C839 C838 1.355 . S
C839 C841 1.419 . S
C840 C838 1.415 . S
C840 C845 1.425 1_455 S
C840 C847 1.409 1_455 S
C841 H833 0.930 . S
C841 C839 1.419 . S
C841 C842 1.362 . S
C842 H834 0.930 . S
C842 C841 1.362 . S
C842 C845 1.409 1_455 S
C843 H835 0.930 . S
C843 C844 1.355 . S
C843 C845 1.415 . S
C844 C843 1.355 . S
C844 C846 1.419 . S
C845 C840 1.425 1_655 S
C845 C842 1.409 1_655 S
C845 C843 1.415 . S
C846 H836 0.930 . S
C846 C844 1.419 . S
C846 C847 1.362 . S
C847 H837 0.930 . S
C847 C840 1.409 1_655 S
C847 C846 1.362 . S
H848 C854 0.930 . S
H849 C857 0.930 . S
H850 C858 0.930 . S
H851 C859 0.930 . S
H852 C862 0.930 . S
H853 C863 0.930 . S
C854 H848 0.930 . S
C854 C855 1.355 . S
C854 C856 1.415 . S
C855 C854 1.355 . S
C855 C857 1.419 . S
C856 C854 1.415 . S
C856 C861 1.425 1_455 S
C856 C863 1.409 1_455 S
C857 H849 0.930 . S
C857 C855 1.419 . S
C857 C858 1.362 . S
C858 H850 0.930 . S
C858 C857 1.362 . S
C858 C861 1.409 1_455 S
C859 H851 0.930 . S
C859 C860 1.355 . S
C859 C861 1.415 . S
C860 C859 1.355 . S
C860 C862 1.419 . S
C861 C856 1.425 1_655 S
C861 C858 1.409 1_655 S
C861 C859 1.415 . S
C862 H852 0.930 . S
C862 C860 1.419 . S
C862 C863 1.362 . S
C863 H853 0.930 . S
C863 C856 1.409 1_655 S
C863 C862 1.362 . S
H864 C870 0.930 . S
H865 C873 0.930 . S
H866 C874 0.930 1_556 S
H867 C875 0.930 . S
H868 C878 0.930 . S
H869 C879 0.930 1_554 S
C870 H864 0.930 . S
C870 C871 1.355 . S
C870 C872 1.415 . S
C871 C870 1.355 . S
C871 C873 1.419 . S
C872 C870 1.415 . S
C872 C877 1.425 1_554 S
C872 C879 1.409 1_554 S
C873 H865 0.930 . S
C873 C871 1.419 . S
C873 C874 1.362 . S
C874 H866 0.930 1_554 S
C874 C873 1.362 . S
C874 C877 1.409 1_554 S
C875 H867 0.930 . S
C875 C876 1.355 . S
C875 C877 1.415 . S
C876 C875 1.355 . S
C876 C878 1.419 . S
C877 C872 1.425 1_556 S
C877 C874 1.409 1_556 S
C877 C875 1.415 . S
C878 H868 0.930 . S
C878 C876 1.419 . S
C878 C879 1.362 . S
C879 H869 0.930 1_556 S
C879 C872 1.409 1_556 S
C879 C878 1.362 . S
H880 C886 0.930 . S
H881 C889 0.930 . S
H882 C890 0.930 . S
H883 C891 0.930 . S
H884 C894 0.930 . S
H885 C895 0.930 . S
C886 H880 0.930 . S
C886 C887 1.355 . S
C886 C888 1.415 . S
C887 C886 1.355 . S
C887 C889 1.419 . S
C888 C886 1.415 . S
C888 C893 1.425 . S
C888 C895 1.409 . S
C889 H881 0.930 . S
C889 C887 1.419 . S
C889 C890 1.362 . S
C890 H882 0.930 . S
C890 C889 1.362 . S
C890 C893 1.409 . S
C891 H883 0.930 . S
C891 C892 1.355 . S
C891 C893 1.415 . S
C892 C891 1.355 . S
C892 C894 1.419 . S
C893 C888 1.425 . S
C893 C890 1.409 . S
C893 C891 1.415 . S
C894 H884 0.930 . S
C894 C892 1.419 . S
C894 C895 1.362 . S
C895 H885 0.930 . S
C895 C888 1.409 . S
C895 C894 1.362 . S
H896 C902 0.930 . S
H897 C905 0.930 . S
H898 C906 0.930 . S
H899 C907 0.930 . S
H900 C910 0.930 . S
H901 C911 0.930 . S
C902 H896 0.930 . S
C902 C903 1.355 . S
C902 C904 1.442 . S
C903 C902 1.355 . S
C903 C905 1.419 . S
C904 C902 1.442 . S
C904 C909 1.424 1_554 S
C904 C911 1.383 1_554 S
C905 H897 0.930 . S
C905 C903 1.419 . S
C905 C906 1.362 . S
C906 H898 0.930 . S
C906 C905 1.362 . S
C906 C909 1.404 1_554 S
C907 H899 0.930 . S
C907 C908 1.355 . S
C907 C909 1.420 . S
C908 C907 1.355 . S
C908 C910 1.419 . S
C909 C904 1.424 1_556 S
C909 C906 1.404 1_556 S
C909 C907 1.420 . S
C910 H900 0.930 . S
C910 C908 1.419 . S
C910 C911 1.362 . S
C911 H901 0.930 . S
C911 C904 1.383 1_556 S
C911 C910 1.362 . S
H912 C918 0.930 . S
H913 C921 0.930 . S
H914 C922 0.930 . S
H915 C923 0.930 . S
H916 C926 0.930 . S
H917 C927 0.930 . S
C918 H912 0.930 . S
C918 C919 1.355 . S
C918 C920 1.415 . S
C919 C918 1.355 . S
C919 C921 1.419 . S
C920 C918 1.415 . S
C920 C925 1.425 . S
C920 C927 1.409 . S
C921 H913 0.930 . S
C921 C919 1.419 . S
C921 C922 1.362 . S
C922 H914 0.930 . S
C922 C921 1.362 . S
C922 C925 1.409 . S
C923 H915 0.930 . S
C923 C924 1.355 . S
C923 C925 1.415 . S
C924 C923 1.355 . S
C924 C926 1.419 . S
C925 C920 1.425 . S
C925 C922 1.409 . S
C925 C923 1.415 . S
C926 H916 0.930 . S
C926 C924 1.419 . S
C926 C927 1.362 . S
C927 H917 0.930 . S
C927 C920 1.409 . S
C927 C926 1.362 . S
H928 C934 0.930 . S
H929 C937 0.930 . S
H930 C938 0.930 . S
H931 C939 0.930 . S
H932 C942 0.930 . S
H933 C943 0.930 . S
C934 H928 0.930 . S
C934 C935 1.355 . S
C934 C936 1.415 . S
C935 C934 1.355 . S
C935 C937 1.419 . S
C936 C934 1.415 . S
C936 C941 1.425 1_554 S
C936 C943 1.409 . S
C937 H929 0.930 . S
C937 C935 1.419 . S
C937 C938 1.362 1_554 S
C938 H930 0.930 . S
C938 C937 1.362 1_556 S
C938 C941 1.409 . S
C939 H931 0.930 . S
C939 C940 1.355 . S
C939 C941 1.415 . S
C940 C939 1.355 . S
C940 C942 1.419 . S
C941 C936 1.425 1_556 S
C941 C938 1.409 . S
C941 C939 1.415 . S
C942 H932 0.930 . S
C942 C940 1.419 . S
C942 C943 1.362 1_556 S
C943 H933 0.930 . S
C943 C936 1.409 . S
C943 C942 1.362 1_554 S
H944 C950 0.930 . S
H945 C953 0.930 . S
H946 C954 0.930 . S
H947 C955 0.930 . S
H948 C958 0.930 . S
H949 C959 0.930 . S
C950 H944 0.930 . S
C950 C951 1.355 . S
C950 C952 1.415 . S
C951 C950 1.355 . S
C951 C953 1.419 . S
C952 C950 1.415 . S
C952 C957 1.425 . S
C952 C959 1.409 . S
C953 H945 0.930 . S
C953 C951 1.419 . S
C953 C954 1.362 . S
C954 H946 0.930 . S
C954 C953 1.362 . S
C954 C957 1.409 . S
C955 H947 0.930 . S
C955 C956 1.355 . S
C955 C957 1.415 . S
C956 C955 1.355 . S
C956 C958 1.419 . S
C957 C952 1.425 . S
C957 C954 1.409 . S
C957 C955 1.415 . S
C958 H948 0.930 . S
C958 C956 1.419 . S
C958 C959 1.362 . S
C959 H949 0.930 . S
C959 C952 1.409 . S
C959 C958 1.362 . S
H960 C966 0.930 . S
H961 C969 0.930 . S
H962 C970 0.930 . S
H963 C971 0.930 . S
H964 C974 0.930 . S
H965 C975 0.930 . S
C966 H960 0.930 . S
C966 C967 1.355 . S
C966 C968 1.415 . S
C967 C966 1.355 . S
C967 C969 1.419 . S
C968 C966 1.415 . S
C968 C973 1.425 1_554 S
C968 C975 1.409 1_554 S
C969 H961 0.930 . S
C969 C967 1.419 . S
C969 C970 1.362 . S
C970 H962 0.930 . S
C970 C969 1.362 . S
C970 C973 1.409 1_554 S
C971 H963 0.930 . S
C971 C972 1.355 . S
C971 C973 1.415 . S
C972 C971 1.355 . S
C972 C974 1.419 . S
C973 C968 1.425 1_556 S
C973 C970 1.409 1_556 S
C973 C971 1.415 . S
C974 H964 0.930 . S
C974 C972 1.419 . S
C974 C975 1.362 . S
C975 H965 0.930 . S
C975 C968 1.409 1_556 S
C975 C974 1.362 . S
H976 C982 0.930 . S
H977 C985 0.930 . S
H978 C986 0.930 . S
H979 C987 0.930 . S
H980 C990 0.930 . S
H981 C991 0.930 . S
C982 H976 0.930 . S
C982 C983 1.355 . S
C982 C984 1.415 . S
C983 C982 1.355 . S
C983 C985 1.419 . S
C984 C982 1.415 . S
C984 C989 1.425 . S
C984 C991 1.409 . S
C985 H977 0.930 . S
C985 C983 1.419 . S
C985 C986 1.362 . S
C986 H978 0.930 . S
C986 C985 1.362 . S
C986 C989 1.409 . S
C987 H979 0.930 . S
C987 C988 1.355 . S
C987 C989 1.415 . S
C988 C987 1.355 . S
C988 C990 1.419 . S
C989 C984 1.425 . S
C989 C986 1.409 . S
C989 C987 1.415 . S
C990 H980 0.930 . S
C990 C988 1.419 . S
C990 C991 1.362 . S
C991 H981 0.930 . S
C991 C984 1.409 . S
C991 C990 1.362 . S
H992 C998 0.930 . S
H993 C1001 0.930 . S
H994 C1002 0.930 . S
H995 C1003 0.930 . S
H996 C1006 0.930 . S
H997 C1007 0.930 . S
C998 H992 0.930 . S
C998 C999 1.355 . S
C998 C1000 1.415 . S
C999 C998 1.355 . S
C999 C1001 1.419 . S
C1000 C998 1.415 . S
C1000 C1005 1.425 . S
C1000 C1007 1.409 . S
C1001 H993 0.930 . S
C1001 C999 1.419 . S
C1001 C1002 1.362 . S
C1002 H994 0.930 . S
C1002 C1001 1.362 . S
C1002 C1005 1.409 . S
C1003 H995 0.930 . S
C1003 C1004 1.355 . S
C1003 C1005 1.415 . S
C1004 C1003 1.355 . S
C1004 C1006 1.419 . S
C1005 C1000 1.425 . S
C1005 C1002 1.409 . S
C1005 C1003 1.415 . S
C1006 H996 0.930 . S
C1006 C1004 1.419 . S
C1006 C1007 1.362 . S
C1007 H997 0.930 . S
C1007 C1000 1.409 . S
C1007 C1006 1.362 . S
H1008 C1014 0.930 . S
H1009 C1017 0.930 . S
H1010 C1018 0.930 . S
H1011 C1019 0.930 . S
H1012 C1022 0.930 . S
H1013 C1023 0.930 . S
C1014 H1008 0.930 . S
C1014 C1015 1.355 . S
C1014 C1016 1.415 . S
C1015 C1014 1.355 . S
C1015 C1017 1.419 . S
C1016 C1014 1.415 . S
C1016 C1021 1.425 . S
C1016 C1023 1.409 . S
C1017 H1009 0.930 . S
C1017 C1015 1.419 . S
C1017 C1018 1.362 . S
C1018 H1010 0.930 . S
C1018 C1017 1.362 . S
C1018 C1021 1.409 . S
C1019 H1011 0.930 . S
C1019 C1020 1.355 . S
C1019 C1021 1.415 . S
C1020 C1019 1.355 . S
C1020 C1022 1.419 . S
C1021 C1016 1.425 . S
C1021 C1018 1.409 . S
C1021 C1019 1.415 . S
C1022 H1012 0.930 . S
C1022 C1020 1.419 . S
C1022 C1023 1.362 . S
C1023 H1013 0.930 . S
C1023 C1016 1.409 . S
C1023 C1022 1.362 . S
H1024 C1030 0.930 . S
H1025 C1033 0.930 . S
H1026 C1034 0.930 . S
H1027 C1035 0.930 . S
H1028 C1038 0.930 . S
H1029 C1039 0.930 . S
C1030 H1024 0.930 . S
C1030 C1031 1.355 . S
C1030 C1032 1.415 . S
C1031 C1030 1.355 . S
C1031 C1033 1.419 . S
C1032 C1030 1.415 . S
C1032 C1037 1.425 . S
C1032 C1039 1.409 . S
C1033 H1025 0.930 . S
C1033 C1031 1.419 . S
C1033 C1034 1.362 . S
C1034 H1026 0.930 . S
C1034 C1033 1.362 . S
C1034 C1037 1.409 . S
C1035 H1027 0.930 . S
C1035 C1036 1.355 . S
C1035 C1037 1.415 . S
C1036 C1035 1.355 . S
C1036 C1038 1.419 . S
C1037 C1032 1.425 . S
C1037 C1034 1.409 . S
C1037 C1035 1.415 . S
C1038 H1028 0.930 . S
C1038 C1036 1.419 . S
C1038 C1039 1.362 . S
C1039 H1029 0.930 . S
C1039 C1032 1.409 . S
C1039 C1038 1.362 . S
H1040 C1046 0.930 . S
H1041 C1049 0.930 . S
H1042 C1050 0.930 . S
H1043 C1051 0.930 . S
H1044 C1054 0.930 . S
H1045 C1055 0.930 . S
C1046 H1040 0.930 . S
C1046 C1047 1.355 . S
C1046 C1048 1.415 . S
C1047 C1046 1.355 . S
C1047 C1049 1.419 . S
C1048 C1046 1.415 . S
C1048 C1053 1.425 . S
C1048 C1055 1.409 . S
C1049 H1041 0.930 . S
C1049 C1047 1.419 . S
C1049 C1050 1.362 . S
C1050 H1042 0.930 . S
C1050 C1049 1.362 . S
C1050 C1053 1.409 . S
C1051 H1043 0.930 . S
C1051 C1052 1.355 . S
C1051 C1053 1.415 . S
C1052 C1051 1.355 . S
C1052 C1054 1.419 . S
C1053 C1048 1.425 . S
C1053 C1050 1.409 . S
C1053 C1051 1.415 . S
C1054 H1044 0.930 . S
C1054 C1052 1.419 . S
C1054 C1055 1.362 . S
C1055 H1045 0.930 . S
C1055 C1048 1.409 . S
C1055 C1054 1.362 . S
H1056 C1062 0.930 . S
H1057 C1065 0.930 . S
H1058 C1066 0.930 . S
H1059 C1067 0.930 . S
H1060 C1070 0.930 . S
H1061 C1071 0.930 . S
C1062 H1056 0.930 . S
C1062 C1063 1.355 . S
C1062 C1064 1.415 . S
C1063 C1062 1.355 . S
C1063 C1065 1.419 . S
C1064 C1062 1.415 . S
C1064 C1069 1.425 . S
C1064 C1071 1.409 . S
C1065 H1057 0.930 . S
C1065 C1063 1.419 . S
C1065 C1066 1.362 . S
C1066 H1058 0.930 . S
C1066 C1065 1.362 . S
C1066 C1069 1.409 . S
C1067 H1059 0.930 . S
C1067 C1068 1.355 . S
C1067 C1069 1.415 . S
C1068 C1067 1.355 . S
C1068 C1070 1.419 . S
C1069 C1064 1.425 . S
C1069 C1066 1.409 . S
C1069 C1067 1.415 . S
C1070 H1060 0.930 . S
C1070 C1068 1.419 . S
C1070 C1071 1.362 . S
C1071 H1061 0.930 . S
C1071 C1064 1.409 . S
C1071 C1070 1.362 . S
H1072 C1078 0.930 . S
H1073 C1081 0.930 . S
H1074 C1082 0.930 . S
H1075 C1083 0.930 . S
H1076 C1086 0.930 . S
H1077 C1087 0.930 . S
C1078 H1072 0.930 . S
C1078 C1079 1.355 . S
C1078 C1080 1.415 . S
C1079 C1078 1.355 . S
C1079 C1081 1.419 . S
C1080 C1078 1.415 . S
C1080 C1085 1.425 . S
C1080 C1087 1.409 . S
C1081 H1073 0.930 . S
C1081 C1079 1.419 . S
C1081 C1082 1.362 . S
C1082 H1074 0.930 . S
C1082 C1081 1.362 . S
C1082 C1085 1.409 . S
C1083 H1075 0.930 . S
C1083 C1084 1.355 . S
C1083 C1085 1.415 . S
C1084 C1083 1.355 . S
C1084 C1086 1.419 . S
C1085 C1080 1.425 . S
C1085 C1082 1.409 . S
C1085 C1083 1.415 . S
C1086 H1076 0.930 . S
C1086 C1084 1.419 . S
C1086 C1087 1.362 . S
C1087 H1077 0.930 . S
C1087 C1080 1.409 . S
C1087 C1086 1.362 . S
H1088 C1094 0.930 . S
H1089 C1097 0.930 . S
H1090 C1098 0.930 . S
H1091 C1099 0.930 . S
H1092 C1102 0.930 . S
H1093 C1103 0.930 . S
C1094 H1088 0.930 . S
C1094 C1095 1.355 . S
C1094 C1096 1.415 . S
C1095 C1094 1.355 . S
C1095 C1097 1.419 . S
C1096 C1094 1.415 . S
C1096 C1101 1.425 . S
C1096 C1103 1.409 . S
C1097 H1089 0.930 . S
C1097 C1095 1.419 . S
C1097 C1098 1.362 . S
C1098 H1090 0.930 . S
C1098 C1097 1.362 . S
C1098 C1101 1.409 . S
C1099 H1091 0.930 . S
C1099 C1100 1.355 . S
C1099 C1101 1.415 . S
C1100 C1099 1.355 . S
C1100 C1102 1.419 . S
C1101 C1096 1.425 . S
C1101 C1098 1.409 . S
C1101 C1099 1.415 . S
C1102 H1092 0.930 . S
C1102 C1100 1.419 . S
C1102 C1103 1.362 . S
C1103 H1093 0.930 . S
C1103 C1096 1.409 . S
C1103 C1102 1.362 . S
H1104 C1110 0.930 . S
H1105 C1113 0.930 . S
H1106 C1114 0.930 . S
H1107 C1115 0.930 . S
H1108 C1118 0.930 . S
H1109 C1119 0.930 . S
C1110 H1104 0.930 . S
C1110 C1111 1.355 . S
C1110 C1112 1.415 . S
C1111 C1110 1.355 . S
C1111 C1113 1.419 . S
C1112 C1110 1.415 . S
C1112 C1117 1.425 . S
C1112 C1119 1.409 . S
C1113 H1105 0.930 . S
C1113 C1111 1.419 . S
C1113 C1114 1.362 . S
C1114 H1106 0.930 . S
C1114 C1113 1.362 . S
C1114 C1117 1.409 . S
C1115 H1107 0.930 . S
C1115 C1116 1.355 . S
C1115 C1117 1.415 . S
C1116 C1115 1.355 . S
C1116 C1118 1.419 . S
C1117 C1112 1.425 . S
C1117 C1114 1.409 . S
C1117 C1115 1.415 . S
C1118 H1108 0.930 . S
C1118 C1116 1.419 . S
C1118 C1119 1.362 . S
C1119 H1109 0.930 . S
C1119 C1112 1.409 . S
C1119 C1118 1.362 . S
C359 C10 1.562 . S
C364 C329 1.638 . S
C375 C32 1.535 . S
C380 C351 1.641 . S
C391 C52 1.597 . S
C396 C279 1.630 . S
C407 C301 1.631 . S
C412 C76 1.590 . S
C423 C235 1.644 . S
C428 C96 1.548 . S
C439 C263 1.640 . S
C444 C118 1.615 . S
C455 C197 1.640 . S
C460 C142 1.614 . S
C471 C219 1.640 . S
C476 C172 1.614 . S
C487 C186 1.538 . S
C492 C139 1.639 . S
C503 C175 1.630 . S
C508 C208 1.594 . S
C519 C103 1.640 . S
C524 C238 1.535 . S
C535 C125 1.636 . S
C540 C252 1.556 . S
C551 C51 1.642 . S
C556 C272 1.564 . S
C567 C294 1.614 . S
C572 C87 1.640 . S
C583 C21 1.643 . S
C588 C326 1.548 . S
C599 C348 1.579 . S
C604 C43 1.641 . S
C615 C7 1.324 . S
C620 C59 1.347 . S
C631 C73 1.347 . S
C636 C29 1.324 . S
C647 C153 1.329 . S
C652 C95 1.352 . S
C663 C169 1.335 . S
C668 C117 1.342 . S
C679 C241 1.347 . S
C684 C183 1.324 . S
C695 C249 1.331 . S
C700 C205 1.327 . S
C711 C323 1.337 . S
C716 C271 1.340 . S
C727 C293 1.348 . S
C732 C345 1.334 . S
C743 C18 1.529 . S
C748 C140 1.492 . S
C759 C40 1.498 . S
C764 C164 1.527 . S
C775 C106 1.507 . S
C780 C54 1.519 . S
C791 C84 1.505 . S
C796 C128 1.521 . S
C807 C194 1.529 . S
C812 C318 1.493 . S
C823 C340 1.509 . S
C828 C216 1.510 . S
C839 C282 1.527 . S
C844 C228 1.498 . S
C855 C260 1.495 . S
C860 C304 1.528 . S
C871 C15 0.949 . S
C876 C285 0.961 . S
C887 C307 1.062 . S
C892 C37 1.060 . S
C903 C315 0.961 . S
C908 C65 0.951 . S
C919 C337 0.983 . S
C924 C81 0.976 . S
C935 C191 0.982 . S
C940 C109 0.994 . S
C951 C213 1.018 . S
C956 C131 1.022 . S
C967 C147 1.075 . S
C972 C227 1.072 . S
C983 C257 1.032 . S
C988 C161 1.035 . S
C999 C8 1.435 . S
C1004 C120 1.425 . S
C1015 C98 1.425 . S
C1020 C30 1.435 . S
C1031 C62 1.433 . S
C1036 C162 1.435 . S
C1047 C150 1.429 . S
C1052 C74 1.435 . S
C1063 C184 1.435 . S
C1068 C296 1.425 . S
C1079 C274 1.425 . S
C1084 C206 1.435 . S
C1095 C338 1.436 . S
C1100 C230 1.429 . S
C1111 C250 1.433 . S
C1116 C316 1.427 . S
