# Generated by pormake.
# Topology bcu-i, (5)-cn, num edge types: 1
# Building blocks:
#     Node 0, Type 0, BuildingBlock: BEQFEK_clean_sbu_0, # of connection points: 5
#     Node 1, Type 0, BuildingBlock: BEQFEK_clean_sbu_0, # of connection points: 5
#     Node 2, Type 0, BuildingBlock: BEQFEK_clean_sbu_0, # of connection points: 5
#     Node 3, Type 0, BuildingBlock: BEQFEK_clean_sbu_0, # of connection points: 5
#     Node 4, Type 0, BuildingBlock: BEQFEK_clean_sbu_0, # of connection points: 5
#     Node 5, Type 0, BuildingBlock: BEQFEK_clean_sbu_0, # of connection points: 5
#     Node 6, Type 0, BuildingBlock: BEQFEK_clean_sbu_0, # of connection points: 5
#     Node 7, Type 0, BuildingBlock: BEQFEK_clean_sbu_0, # of connection points: 5
#     Node 8, Type 0, BuildingBlock: BEQFEK_clean_sbu_0, # of connection points: 5
#     Node 9, Type 0, BuildingBlock: BEQFEK_clean_sbu_0, # of connection points: 5
#     Node 10, Type 0, BuildingBlock: BEQFEK_clean_sbu_0, # of connection points: 5
#     Node 11, Type 0, BuildingBlock: BEQFEK_clean_sbu_0, # of connection points: 5
#     Node 12, Type 0, BuildingBlock: BEQFEK_clean_sbu_0, # of connection points: 5
#     Node 13, Type 0, BuildingBlock: BEQFEK_clean_sbu_0, # of connection points: 5
#     Node 14, Type 0, BuildingBlock: BEQFEK_clean_sbu_0, # of connection points: 5
#     Node 15, Type 0, BuildingBlock: BEQFEK_clean_sbu_0, # of connection points: 5
#     Edge 16, Type (0, 0), None
#     Edge 17, Type (0, 0), None
#     Edge 18, Type (0, 0), None
#     Edge 19, Type (0, 0), None
#     Edge 20, Type (0, 0), None
#     Edge 21, Type (0, 0), None
#     Edge 22, Type (0, 0), None
#     Edge 23, Type (0, 0), None
#     Edge 24, Type (0, 0), None
#     Edge 25, Type (0, 0), None
#     Edge 26, Type (0, 0), None
#     Edge 27, Type (0, 0), None
#     Edge 28, Type (0, 0), None
#     Edge 29, Type (0, 0), None
#     Edge 30, Type (0, 0), None
#     Edge 31, Type (0, 0), None
#     Edge 32, Type (0, 0), None
#     Edge 33, Type (0, 0), None
#     Edge 34, Type (0, 0), None
#     Edge 35, Type (0, 0), None
#     Edge 36, Type (0, 0), None
#     Edge 37, Type (0, 0), None
#     Edge 38, Type (0, 0), None
#     Edge 39, Type (0, 0), None
#     Edge 40, Type (0, 0), None
#     Edge 41, Type (0, 0), None
#     Edge 42, Type (0, 0), None
#     Edge 43, Type (0, 0), None
#     Edge 44, Type (0, 0), None
#     Edge 45, Type (0, 0), None
#     Edge 46, Type (0, 0), None
#     Edge 47, Type (0, 0), None
#     Edge 48, Type (0, 0), None
#     Edge 49, Type (0, 0), None
#     Edge 50, Type (0, 0), None
#     Edge 51, Type (0, 0), None
#     Edge 52, Type (0, 0), None
#     Edge 53, Type (0, 0), None
#     Edge 54, Type (0, 0), None
#     Edge 55, Type (0, 0), None
# Relax obj value: 0.952
# Max RMSD: 0.183
# Mean RMSD: 0.183
data_MOF--net-bcu-i--node1-BEQFEK_clean_sbu_0--edge1-none
_symmetry_space_group_name_H-M    P1
_symmetry_Int_Tables_number       1
_symmetry_cell_setting            triclinic
loop_
_symmetry_equiv_pos_as_xyz
'x, y, z'
_cell_length_a     23.447716
_cell_length_b     23.447385
_cell_length_c     22.658791
_cell_angle_alpha  90.000686
_cell_angle_beta   89.999109
_cell_angle_gamma 89.995531
loop_
_atom_site_label
_atom_site_type_symbol
_atom_site_fract_x
_atom_site_fract_y
_atom_site_fract_z
_atom_type_partial_charge
Co0 Co 0.27037 0.16615 0.27725 0.0
Co1 Co 0.23608 0.05934 0.20096 0.0
C2 C 0.16375 0.15904 0.1953 0.0
O3 O 0.20036 0.18386 0.22806 0.0
O4 O 0.16792 0.10624 0.18349 0.0
C5 C 0.21959 0.20368 0.37154 0.0
O6 O 0.18764 0.16537 0.34526 0.0
C7 C 0.17815 0.95257 0.173 0.0
C8 C 0.25155 0.89408 0.16564 0.0
C9 C 0.1928 0.89505 0.17266 0.0
N10 N 0.22638 0.98376 0.16928 0.0
N11 N 0.2698 0.94846 0.16252 0.0
C12 C 0.12117 0.97765 0.18786 0.0
H13 H 0.12655 0.01397 0.21851 0.0
H14 H 0.09249 0.94608 0.20861 0.0
H15 H 0.10099 0.99388 0.14688 0.0
C16 C 0.29077 0.07687 0.36457 0.0
N17 N 0.27341 0.09305 0.31051 0.0
N18 N 0.24963 0.04979 0.28338 0.0
C19 C 0.24774 0.00537 0.32146 0.0
C20 C 0.27433 0.0211 0.37357 0.0
C21 C 0.3247 0.11336 0.4059 0.0
H22 H 0.34898 0.14598 0.38085 0.0
H23 H 0.29586 0.13539 0.43713 0.0
H24 H 0.35445 0.08666 0.43218 0.0
O25 O 0.33411 0.17185 0.224 0.0
O26 O 0.30239 0.10326 0.16322 0.0
H27 H 0.23992 0.92229 0.28413 0.0
H28 H 0.2056 0.92986 0.35452 0.0
C29 C 0.21484 0.95159 0.31219 0.0
H30 H 0.17354 0.96123 0.29135 0.0
H31 H 0.31244 0.96123 0.16243 0.0
O32 O 0.26589 0.21896 0.34677 0.0
C33 C 0.33723 0.14394 0.17579 0.0
Co34 Co 0.84401 0.27037 0.27725 0.0
Co35 Co 0.95082 0.23606 0.20097 0.0
C36 C 0.85112 0.16375 0.19531 0.0
O37 O 0.8263 0.20036 0.22807 0.0
O38 O 0.90391 0.1679 0.18349 0.0
C39 C 0.80649 0.21961 0.37154 0.0
O40 O 0.8448 0.18765 0.34527 0.0
C41 C 0.05761 0.17813 0.17306 0.0
C42 C 0.11607 0.25157 0.1657 0.0
C43 C 0.11511 0.19283 0.17284 0.0
N44 N 0.0264 0.22634 0.16928 0.0
N45 N 0.06168 0.26978 0.16251 0.0
C46 C 0.03256 0.12114 0.18794 0.0
H47 H 0.99617 0.12652 0.2185 0.0
H48 H 0.06412 0.09251 0.20878 0.0
H49 H 0.01643 0.1009 0.14694 0.0
C50 C 0.93329 0.29078 0.36458 0.0
N51 N 0.91712 0.2734 0.31051 0.0
N52 N 0.96037 0.24961 0.2834 0.0
C53 C 1.00478 0.24771 0.32149 0.0
C54 C 0.98906 0.27433 0.37359 0.0
C55 C 0.8968 0.32473 0.40589 0.0
H56 H 0.86419 0.34902 0.38083 0.0
H57 H 0.87476 0.2959 0.43712 0.0
H58 H 0.9235 0.35448 0.43217 0.0
O59 O 0.83831 0.33411 0.224 0.0
O60 O 0.90691 0.30237 0.16323 0.0
H61 H 0.08787 0.23985 0.28419 0.0
H62 H 0.08027 0.20554 0.35458 0.0
C63 C 0.05855 0.21478 0.31224 0.0
H64 H 0.04891 0.17349 0.2914 0.0
H65 H 0.04888 0.31241 0.16236 0.0
O66 O 0.79121 0.26591 0.34677 0.0
C67 C 0.86622 0.33721 0.17579 0.0
Co68 Co 0.73979 0.84403 0.27725 0.0
Co69 Co 0.77408 0.95084 0.20096 0.0
C70 C 0.8464 0.85114 0.19529 0.0
O71 O 0.80979 0.82632 0.22806 0.0
O72 O 0.84224 0.90393 0.18348 0.0
C73 C 0.79057 0.8065 0.37154 0.0
O74 O 0.82251 0.84481 0.34526 0.0
C75 C 0.83201 0.05761 0.17305 0.0
C76 C 0.75858 0.1161 0.16572 0.0
C77 C 0.81731 0.11512 0.17284 0.0
N78 N 0.78379 0.02642 0.16927 0.0
N79 N 0.74036 0.06171 0.16252 0.0
C80 C 0.889 0.03254 0.1879 0.0
H81 H 0.88362 0.99619 0.21851 0.0
H82 H 0.91766 0.0641 0.20867 0.0
H83 H 0.90919 0.01634 0.1469 0.0
C84 C 0.71939 0.93331 0.36458 0.0
N85 N 0.73675 0.91714 0.31051 0.0
N86 N 0.76054 0.96039 0.28339 0.0
C87 C 0.76244 1.0048 0.32148 0.0
C88 C 0.73584 0.98908 0.37358 0.0
C89 C 0.68545 0.89683 0.4059 0.0
H90 H 0.66116 0.86421 0.38084 0.0
H91 H 0.71429 0.87478 0.43712 0.0
H92 H 0.65571 0.92353 0.43218 0.0
O93 O 0.67605 0.83833 0.224 0.0
O94 O 0.70778 0.90692 0.16323 0.0
H95 H 0.77028 0.0879 0.28419 0.0
H96 H 0.80462 0.08028 0.35456 0.0
C97 C 0.79536 0.05858 0.31223 0.0
H98 H 0.83665 0.04893 0.29137 0.0
H99 H 0.69773 0.04893 0.16237 0.0
O100 O 0.74427 0.79123 0.34677 0.0
C101 C 0.67293 0.86624 0.17579 0.0
Co102 Co 0.16616 0.73986 0.27722 0.0
Co103 Co 0.05932 0.77412 0.20094 0.0
C104 C 0.15902 0.84645 0.19524 0.0
O105 O 0.18386 0.80986 0.22801 0.0
O106 O 0.10623 0.84227 0.18343 0.0
C107 C 0.2037 0.79061 0.3715 0.0
O108 O 0.16538 0.82256 0.34524 0.0
C109 C 0.95254 0.83204 0.17305 0.0
C110 C 0.89408 0.7586 0.16569 0.0
C111 C 0.89504 0.81733 0.17283 0.0
N112 N 0.98375 0.78382 0.16926 0.0
N113 N 0.94846 0.74038 0.1625 0.0
C114 C 0.97759 0.88902 0.18791 0.0
H115 H 0.01398 0.88364 0.21849 0.0
H116 H 0.94604 0.91766 0.20875 0.0
H117 H 0.99374 0.90925 0.14692 0.0
C118 C 0.07688 0.71944 0.36456 0.0
N119 N 0.09305 0.73682 0.3105 0.0
N120 N 0.04979 0.76059 0.28338 0.0
C121 C 0.00537 0.76247 0.32147 0.0
C122 C 0.0211 0.73586 0.37356 0.0
C123 C 0.11338 0.68549 0.40587 0.0
H124 H 0.146 0.66121 0.38081 0.0
H125 H 0.13543 0.71434 0.43709 0.0
H126 H 0.0867 0.65575 0.43216 0.0
O127 O 0.17185 0.67611 0.22398 0.0
O128 O 0.10324 0.7078 0.16322 0.0
H129 H 0.92228 0.77028 0.28417 0.0
H130 H 0.92987 0.80461 0.35455 0.0
C131 C 0.95159 0.79537 0.31222 0.0
H132 H 0.96122 0.83667 0.29137 0.0
H133 H 0.96126 0.69775 0.16235 0.0
O134 O 0.21898 0.74431 0.34672 0.0
C135 C 0.14393 0.67297 0.17578 0.0
Co136 Co 0.27054 0.84439 0.52589 0.0
Co137 Co 0.2361 0.9511 0.60223 0.0
C138 C 0.16386 0.85138 0.60778 0.0
O139 O 0.20052 0.82662 0.57502 0.0
O140 O 0.16794 0.90418 0.61961 0.0
C141 C 0.21992 0.80687 0.43151 0.0
O142 O 0.1879 0.84516 0.45775 0.0
C143 C 0.17805 0.05775 0.63022 0.0
C144 C 0.25136 0.11637 0.63743 0.0
C145 C 0.19261 0.11531 0.63045 0.0
N146 N 0.22633 0.02665 0.63395 0.0
N147 N 0.2697 0.06202 0.64062 0.0
C148 C 0.12111 0.03255 0.61545 0.0
H149 H 0.12651 0.99649 0.58446 0.0
H150 H 0.09215 0.06414 0.59516 0.0
H151 H 0.10124 0.01585 0.6564 0.0
C152 C 0.2909 0.93372 0.43863 0.0
N153 N 0.27356 0.91752 0.49269 0.0
N154 N 0.2497 0.96074 0.51982 0.0
C155 C 0.24772 0.00515 0.48172 0.0
C156 C 0.27429 0.98943 0.4296 0.0
C157 C 0.32493 0.8973 0.39731 0.0
H158 H 0.3492 0.86466 0.42236 0.0
H159 H 0.29615 0.87529 0.366 0.0
H160 H 0.35469 0.92405 0.37112 0.0
O161 O 0.33421 0.83865 0.57918 0.0
O162 O 0.30232 0.90709 0.64004 0.0
H163 H 0.23985 0.08825 0.51899 0.0
H164 H 0.20544 0.08058 0.44866 0.0
C165 C 0.21476 0.0589 0.49099 0.0
H166 H 0.1735 0.04924 0.5119 0.0
H167 H 0.31236 0.04932 0.64068 0.0
O168 O 0.26619 0.7916 0.45635 0.0
C169 C 0.33719 0.86642 0.62748 0.0
Co170 Co 0.16577 0.27049 0.52592 0.0
Co171 Co 0.05903 0.23613 0.60226 0.0
C172 C 0.15874 0.16383 0.60783 0.0
O173 O 0.18353 0.20046 0.57507 0.0
O174 O 0.10595 0.16796 0.61966 0.0
C175 C 0.20331 0.21988 0.43155 0.0
O176 O 0.16502 0.18787 0.45776 0.0
C177 C 0.9524 0.17808 0.63025 0.0
C178 C 0.89377 0.25139 0.63744 0.0
C179 C 0.89484 0.19263 0.63047 0.0
N180 N 0.98349 0.22636 0.63397 0.0
N181 N 0.9481 0.26974 0.64064 0.0
C182 C 0.97762 0.12114 0.61549 0.0
H183 H 0.01364 0.12653 0.58446 0.0
H184 H 0.94603 0.09215 0.59526 0.0
H185 H 0.99438 0.10132 0.65644 0.0
C186 C 0.07644 0.29088 0.43864 0.0
N187 N 0.09264 0.27354 0.49271 0.0
N188 N 0.04941 0.24971 0.51984 0.0
C189 C 1.005 0.24774 0.48174 0.0
C190 C 0.02072 0.27429 0.42962 0.0
C191 C 0.11287 0.32488 0.39732 0.0
H192 H 0.14551 0.34915 0.42237 0.0
H193 H 0.13488 0.29609 0.36602 0.0
H194 H 0.08613 0.35465 0.37112 0.0
O195 O 0.17151 0.33418 0.5792 0.0
O196 O 0.10304 0.30235 0.64007 0.0
H197 H 0.92189 0.23992 0.51901 0.0
H198 H 0.92955 0.20549 0.44869 0.0
C199 C 0.95123 0.21481 0.49102 0.0
H200 H 0.96087 0.17355 0.51195 0.0
H201 H 0.9608 0.31239 0.64069 0.0
O202 O 0.21857 0.26615 0.4564 0.0
C203 C 0.14372 0.33719 0.6275 0.0
Co204 Co 0.73967 0.16579 0.52592 0.0
Co205 Co 0.77405 0.05905 0.60225 0.0
C206 C 0.84633 0.15876 0.60784 0.0
O207 O 0.80969 0.18355 0.57508 0.0
O208 O 0.8422 0.10597 0.61967 0.0
C209 C 0.79028 0.20334 0.43155 0.0
O210 O 0.82229 0.16504 0.45777 0.0
C211 C 0.8321 0.9524 0.63023 0.0
C212 C 0.75879 0.89379 0.63743 0.0
C213 C 0.81754 0.89485 0.63045 0.0
N214 N 0.78381 0.98351 0.63396 0.0
N215 N 0.74044 0.94813 0.64063 0.0
C216 C 0.88904 0.97762 0.61547 0.0
H217 H 0.88364 0.01367 0.58447 0.0
H218 H 0.918 0.94603 0.59519 0.0
H219 H 0.90889 0.99433 0.65641 0.0
C220 C 0.7193 0.07647 0.43864 0.0
N221 N 0.73664 0.09266 0.49271 0.0
N222 N 0.76047 0.04944 0.51983 0.0
C223 C 0.76244 1.00502 0.48174 0.0
C224 C 0.73588 0.02075 0.42961 0.0
C225 C 0.68528 0.1129 0.39733 0.0
H226 H 0.66101 0.14554 0.42238 0.0
H227 H 0.71407 0.13491 0.36603 0.0
H228 H 0.65552 0.08616 0.37112 0.0
O229 O 0.67599 0.17153 0.5792 0.0
O230 O 0.70782 0.10306 0.64006 0.0
H231 H 0.77028 0.92191 0.519 0.0
H232 H 0.80469 0.92957 0.44867 0.0
C233 C 0.79538 0.95126 0.49101 0.0
H234 H 0.83664 0.96089 0.51193 0.0
H235 H 0.69779 0.96083 0.64069 0.0
O236 O 0.74401 0.2186 0.4564 0.0
C237 C 0.67298 0.14374 0.62749 0.0
Co238 Co 0.8444 0.73967 0.52591 0.0
Co239 Co 0.95113 0.77405 0.60225 0.0
C240 C 0.85141 0.84633 0.60783 0.0
O241 O 0.82663 0.8097 0.57506 0.0
O242 O 0.90421 0.84221 0.61966 0.0
C243 C 0.80685 0.79029 0.43154 0.0
O244 O 0.84515 0.8223 0.45776 0.0
C245 C 0.05777 0.83209 0.63019 0.0
C246 C 0.11639 0.75876 0.63737 0.0
C247 C 0.1153 0.81749 0.63028 0.0
N248 N 0.02667 0.78381 0.63397 0.0
N249 N 0.06205 0.74043 0.64064 0.0
C250 C 0.03255 0.88904 0.61545 0.0
H251 H 0.9965 0.88364 0.58445 0.0
H252 H 0.06413 0.91801 0.59518 0.0
H253 H 0.01583 0.90887 0.65641 0.0
C254 C 0.93373 0.7193 0.43863 0.0
N255 N 0.91753 0.73664 0.4927 0.0
N256 N 0.96075 0.76047 0.51982 0.0
C257 C 0.00516 0.76245 0.48172 0.0
C258 C 0.98944 0.73589 0.4296 0.0
C259 C 0.8973 0.68528 0.39732 0.0
H260 H 0.86467 0.66101 0.42237 0.0
H261 H 0.87528 0.71407 0.36602 0.0
H262 H 0.92404 0.65552 0.37111 0.0
O263 O 0.83866 0.67599 0.57919 0.0
O264 O 0.90712 0.70783 0.64005 0.0
H265 H 0.08828 0.77029 0.51894 0.0
H266 H 0.08058 0.80474 0.44864 0.0
C267 C 0.05891 0.7954 0.49098 0.0
H268 H 0.04927 0.83666 0.51192 0.0
H269 H 0.04934 0.69778 0.64075 0.0
O270 O 0.79159 0.74402 0.45639 0.0
C271 C 0.86644 0.67298 0.62748 0.0
Co272 Co 0.77037 0.66615 0.77725 0.0
Co273 Co 0.73609 0.55933 0.70095 0.0
C274 C 0.66376 0.65903 0.69528 0.0
O275 O 0.70037 0.68386 0.72805 0.0
O276 O 0.66793 0.60624 0.68347 0.0
C277 C 0.71959 0.70368 0.87153 0.0
O278 O 0.68764 0.66537 0.84526 0.0
C279 C 0.67815 0.45256 0.67299 0.0
C280 C 0.75156 0.39407 0.66564 0.0
C281 C 0.69281 0.39503 0.67265 0.0
N282 N 0.72638 0.48375 0.66927 0.0
N283 N 0.76981 0.44845 0.66252 0.0
C284 C 0.62117 0.47763 0.68785 0.0
H285 H 0.62655 0.51397 0.71848 0.0
H286 H 0.5925 0.44607 0.70861 0.0
H287 H 0.60098 0.49385 0.64686 0.0
C288 C 0.79075 0.57687 0.86457 0.0
N289 N 0.7734 0.59304 0.81051 0.0
N290 N 0.74963 0.54979 0.78337 0.0
C291 C 0.74772 0.50537 0.82146 0.0
C292 C 0.77431 0.5211 0.87357 0.0
C293 C 0.82469 0.61336 -0.0941 0.0
H294 H 0.84897 0.64598 0.88085 0.0
H295 H 0.79585 0.63539 -0.06287 0.0
H296 H 0.85444 0.58665 -0.06782 0.0
O297 O 0.83412 0.67183 0.72402 0.0
O298 O 0.8024 0.60324 0.66321 0.0
H299 H 0.73991 0.42229 0.78412 0.0
H300 H 0.70559 0.42986 0.85451 0.0
C301 C 0.71483 0.45159 0.81219 0.0
H302 H 0.67353 0.46123 0.79134 0.0
H303 H 0.81244 0.46122 0.66243 0.0
O304 O 0.76589 0.71895 0.84676 0.0
C305 C 0.83725 0.6439 0.67582 0.0
Co306 Co 0.34402 0.77037 0.77725 0.0
Co307 Co 0.45083 0.73605 0.70095 0.0
C308 C 0.35112 0.66375 0.69529 0.0
O309 O 0.3263 0.70036 0.72805 0.0
O310 O 0.40392 0.6679 0.68347 0.0
C311 C 0.30649 0.71961 0.87154 0.0
O312 O 0.3448 0.68765 0.84526 0.0
C313 C 0.55762 0.67812 0.67305 0.0
C314 C 0.61608 0.75156 0.66569 0.0
C315 C 0.61512 0.69283 0.67282 0.0
N316 N 0.52641 0.72634 0.66927 0.0
N317 N 0.56169 0.76978 0.6625 0.0
C318 C 0.53257 0.62113 0.68792 0.0
H319 H 0.49617 0.62652 0.71847 0.0
H320 H 0.56413 0.59252 0.70878 0.0
H321 H 0.51646 0.60089 0.64692 0.0
C322 C 0.43329 0.79076 0.86457 0.0
N323 N 0.41712 0.77339 0.81051 0.0
N324 N 0.46038 0.7496 0.78339 0.0
C325 C 0.50479 0.7477 0.82148 0.0
C326 C 0.48906 0.77431 0.87358 0.0
C327 C 0.39681 0.82472 -0.09411 0.0
H328 H 0.36419 0.84901 0.88082 0.0
H329 H 0.37476 0.79589 -0.06288 0.0
H330 H 0.42351 0.85446 -0.06784 0.0
O331 O 0.33833 0.83412 0.72402 0.0
O332 O 0.40692 0.80237 0.66322 0.0
H333 H 0.58788 0.73984 0.78418 0.0
H334 H 0.58027 0.70553 0.85456 0.0
C335 C 0.55856 0.71477 0.81223 0.0
H336 H 0.54891 0.67347 0.79139 0.0
H337 H 0.54889 0.81241 0.66235 0.0
O338 O 0.29121 0.76591 0.84676 0.0
C339 C 0.36626 0.83724 0.67582 0.0
Co340 Co 0.23979 0.34403 0.77725 0.0
Co341 Co 0.27408 0.45084 0.70095 0.0
C342 C 0.3464 0.35113 0.69528 0.0
O343 O 0.30979 0.32631 0.72805 0.0
O344 O 0.34224 0.40392 0.68347 0.0
C345 C 0.29057 0.3065 0.87154 0.0
O346 O 0.32252 0.34481 0.84526 0.0
C347 C 0.33201 0.55761 0.67303 0.0
C348 C 0.25858 0.6161 0.6657 0.0
C349 C 0.31732 0.61512 0.67283 0.0
N350 N 0.28379 0.52642 0.66926 0.0
N351 N 0.24036 0.56171 0.66251 0.0
C352 C 0.389 0.53254 0.68788 0.0
H353 H 0.38362 0.49618 0.71848 0.0
H354 H 0.41766 0.5641 0.70867 0.0
H355 H 0.40919 0.51636 0.64688 0.0
C356 C 0.21941 0.43331 0.86458 0.0
N357 N 0.23677 0.41714 0.81051 0.0
N358 N 0.26055 0.46039 0.78338 0.0
C359 C 0.26246 0.5048 0.82148 0.0
C360 C 0.23586 0.48908 0.87358 0.0
C361 C 0.18546 0.39683 -0.0941 0.0
H362 H 0.16118 0.36422 0.88085 0.0
H363 H 0.2143 0.37479 -0.06287 0.0
H364 H 0.15572 0.42353 -0.06782 0.0
O365 O 0.17604 0.33835 0.72403 0.0
O366 O 0.20776 0.40693 0.66322 0.0
H367 H 0.27029 0.58789 0.78418 0.0
H368 H 0.30463 0.58028 0.85455 0.0
C369 C 0.29538 0.55857 0.81222 0.0
H370 H 0.33667 0.54892 0.79136 0.0
H371 H 0.19773 0.54893 0.66237 0.0
O372 O 0.24427 0.29123 0.84677 0.0
C373 C 0.17291 0.36627 0.67583 0.0
Co374 Co 0.66616 0.23985 0.77723 0.0
Co375 Co 0.55932 0.27411 0.70094 0.0
C376 C 0.65902 0.34644 0.69523 0.0
O377 O 0.68386 0.30985 0.72801 0.0
O378 O 0.60623 0.34225 0.68342 0.0
C379 C 0.7037 0.29061 0.87151 0.0
O380 O 0.66539 0.32257 0.84525 0.0
C381 C 0.45254 0.33203 0.67304 0.0
C382 C 0.39407 0.25859 0.66569 0.0
C383 C 0.39503 0.31733 0.67282 0.0
N384 N 0.48374 0.28381 0.66926 0.0
N385 N 0.44846 0.24037 0.6625 0.0
C386 C 0.47759 0.38902 0.6879 0.0
H387 H 0.51399 0.38363 0.71846 0.0
H388 H 0.44603 0.41764 0.70876 0.0
H389 H 0.49371 0.40925 0.64691 0.0
C390 C 0.57689 0.21945 0.86457 0.0
N391 N 0.59306 0.23682 0.8105 0.0
N392 N 0.54979 0.26059 0.78338 0.0
C393 C 0.50538 0.26248 0.82147 0.0
C394 C 0.52111 0.23588 0.87357 0.0
C395 C 0.61338 0.18551 -0.09412 0.0
H396 H 0.646 0.16122 0.88082 0.0
H397 H 0.63543 0.21435 -0.0629 0.0
H398 H 0.58669 0.15577 -0.06783 0.0
O399 O 0.67184 0.17609 0.72401 0.0
O400 O 0.60323 0.20778 0.66322 0.0
H401 H 0.42228 0.27029 0.78417 0.0
H402 H 0.42988 0.30463 0.85455 0.0
C403 C 0.45159 0.29538 0.81222 0.0
H404 H 0.46123 0.33668 0.79137 0.0
H405 H 0.46125 0.19775 0.66235 0.0
O406 O 0.71898 0.24431 0.84673 0.0
C407 C 0.6439 0.17294 0.67582 0.0
Co408 Co 0.77054 0.3444 0.02589 0.0
Co409 Co 0.73611 0.45111 0.10224 0.0
C410 C 0.66386 0.35139 0.1078 0.0
O411 O 0.70052 0.32662 0.07504 0.0
O412 O 0.66795 0.40419 0.11963 0.0
C413 C 0.71991 0.30687 -0.06848 0.0
O414 O 0.6879 0.34516 -0.04225 0.0
C415 C 0.67805 0.55777 0.13023 0.0
C416 C 0.75136 0.61638 0.13744 0.0
C417 C 0.69261 0.61532 0.13046 0.0
N418 N 0.72633 0.52666 0.13396 0.0
N419 N 0.7697 0.56204 0.14063 0.0
C420 C 0.62111 0.53256 0.11546 0.0
H421 H 0.62651 0.4965 0.08448 0.0
H422 H 0.59216 0.56415 0.09516 0.0
H423 H 0.60124 0.51588 0.15641 0.0
C424 C 0.79089 0.43372 -0.06137 0.0
N425 N 0.77355 0.41752 -0.0073 0.0
N426 N 0.7497 0.46074 0.01982 0.0
C427 C 0.7477 0.50515 -0.01828 0.0
C428 C 0.77427 0.48943 -0.0704 0.0
C429 C 0.82492 0.3973 0.89732 0.0
H430 H 0.84919 0.36467 -0.07763 0.0
H431 H 0.79614 0.37529 0.866 0.0
H432 H 0.85468 0.42406 0.87112 0.0
O433 O 0.83422 0.33867 0.07917 0.0
O434 O 0.80234 0.40711 0.14005 0.0
H435 H 0.73984 0.58826 0.019 0.0
H436 H 0.70543 0.58059 -0.05134 0.0
C437 C 0.71475 0.5589 -0.009 0.0
H438 H 0.67349 0.54925 0.01191 0.0
H439 H 0.81236 0.54933 0.14069 0.0
O440 O 0.76619 0.29161 -0.04364 0.0
C441 C 0.83721 0.36647 0.12745 0.0
Co442 Co 0.66576 0.7705 0.02591 0.0
Co443 Co 0.55903 0.73614 0.10226 0.0
C444 C 0.65874 0.66385 0.10784 0.0
O445 O 0.68353 0.70048 0.07507 0.0
O446 O 0.60595 0.66798 0.11967 0.0
C447 C 0.70332 0.71988 -0.06846 0.0
O448 O 0.66502 0.68787 -0.04224 0.0
C449 C 0.45239 0.67809 0.13025 0.0
C450 C 0.39376 0.7514 0.13744 0.0
C451 C 0.39483 0.69264 0.13047 0.0
N452 N 0.48348 0.72637 0.13397 0.0
N453 N 0.44809 0.76975 0.14063 0.0
C454 C 0.47761 0.62114 0.1155 0.0
H455 H 0.51364 0.62654 0.08448 0.0
H456 H 0.44602 0.59216 0.09526 0.0
H457 H 0.49435 0.60132 0.15645 0.0
C458 C 0.57644 0.79086 -0.06136 0.0
N459 N 0.59264 0.77353 -0.0073 0.0
N460 N 0.54941 0.7497 0.01984 0.0
C461 C 0.505 0.74773 -0.01826 0.0
C462 C 0.52072 0.77427 -0.07039 0.0
C463 C 0.61287 0.82487 0.89731 0.0
H464 H 0.64551 0.84914 -0.07764 0.0
H465 H 0.63487 0.79607 0.86601 0.0
H466 H 0.58612 0.85463 0.87111 0.0
O467 O 0.67149 0.83419 0.07918 0.0
O468 O 0.60303 0.80237 0.14006 0.0
H469 H 0.42189 0.73991 0.01901 0.0
H470 H 0.42955 0.70548 -0.05131 0.0
C471 C 0.45124 0.7148 -0.00897 0.0
H472 H 0.46088 0.67354 0.01195 0.0
H473 H 0.46079 0.8124 0.14068 0.0
O474 O 0.71857 0.76615 -0.04361 0.0
C475 C 0.64368 0.83722 0.12746 0.0
Co476 Co 0.23967 0.66579 0.02591 0.0
Co477 Co 0.27405 0.55905 0.10226 0.0
C478 C 0.34632 0.65877 0.10785 0.0
O479 O 0.30968 0.68356 0.07508 0.0
O480 O 0.34219 0.60598 0.11968 0.0
C481 C 0.29029 0.70334 -0.06845 0.0
O482 O 0.3223 0.66504 -0.04223 0.0
C483 C 0.3321 0.4524 0.13024 0.0
C484 C 0.25879 0.39379 0.13744 0.0
C485 C 0.31754 0.39485 0.13047 0.0
N486 N 0.28381 0.4835 0.13397 0.0
N487 N 0.24044 0.44813 0.14063 0.0
C488 C 0.38904 0.47761 0.11548 0.0
H489 H 0.38364 0.51367 0.0845 0.0
H490 H 0.41799 0.44603 0.09519 0.0
H491 H 0.4089 0.49431 0.15643 0.0
C492 C 0.21931 0.57647 -0.06136 0.0
N493 N 0.23665 0.59267 -0.0073 0.0
N494 N 0.26048 0.54944 0.01984 0.0
C495 C 0.26246 0.50502 -0.01826 0.0
C496 C 0.2359 0.52075 -0.07039 0.0
C497 C 0.1853 0.6129 0.89732 0.0
H498 H 0.16103 0.64553 -0.07763 0.0
H499 H 0.21409 0.63491 0.86602 0.0
H500 H 0.15554 0.58615 0.87112 0.0
O501 O 0.17597 0.67152 0.07917 0.0
O502 O 0.20781 0.60306 0.14006 0.0
H503 H 0.27029 0.42191 0.01901 0.0
H504 H 0.30471 0.42957 -0.05132 0.0
C505 C 0.29539 0.45126 -0.00898 0.0
H506 H 0.33665 0.4609 0.01194 0.0
H507 H 0.19778 0.46083 0.14069 0.0
O508 O 0.24402 0.7186 -0.04361 0.0
C509 C 0.17295 0.64371 0.12745 0.0
Co510 Co 0.3444 0.23968 0.02591 0.0
Co511 Co 0.45113 0.27405 0.10226 0.0
C512 C 0.35141 0.34633 0.10785 0.0
O513 O 0.32663 0.3097 0.07508 0.0
O514 O 0.40421 0.3422 0.11968 0.0
C515 C 0.30685 0.2903 -0.06845 0.0
O516 O 0.34515 0.32231 -0.04224 0.0
C517 C 0.55777 0.3321 0.13021 0.0
C518 C 0.6164 0.25876 0.13738 0.0
C519 C 0.61531 0.3175 0.1303 0.0
N520 N 0.52668 0.28382 0.13399 0.0
N521 N 0.56206 0.24044 0.14065 0.0
C522 C 0.53255 0.38904 0.11547 0.0
H523 H 0.49649 0.38365 0.08448 0.0
H524 H 0.56413 0.41801 0.09518 0.0
H525 H 0.51585 0.40888 0.15643 0.0
C526 C 0.43373 0.21932 -0.06136 0.0
N527 N 0.41753 0.23665 -0.00729 0.0
N528 N 0.46076 0.26049 0.01984 0.0
C529 C 0.50516 0.26247 -0.01827 0.0
C530 C 0.48944 0.23591 -0.07039 0.0
C531 C 0.3973 0.1853 0.89732 0.0
H532 H 0.36468 0.16102 -0.07763 0.0
H533 H 0.37529 0.21409 0.86602 0.0
H534 H 0.42405 0.15554 0.87111 0.0
O535 O 0.33868 0.17598 0.07917 0.0
O536 O 0.40713 0.20782 0.14006 0.0
H537 H 0.58828 0.2703 0.01896 0.0
H538 H 0.58058 0.30475 -0.05135 0.0
C539 C 0.55892 0.29542 -0.009 0.0
H540 H 0.54927 0.33667 0.01193 0.0
H541 H 0.54935 0.19779 0.14076 0.0
O542 O 0.2916 0.24403 -0.04361 0.0
C543 C 0.36648 0.17296 0.12745 0.0
loop_
_geom_bond_atom_site_label_1
_geom_bond_atom_site_label_2
_geom_bond_distance
_geom_bond_site_symmetry_2
_ccdc_geom_bond_type
Co0 O3 1.970 . S
Co0 N17 1.989 . S
Co0 O25 1.967 . S
Co0 O32 1.920 . S
Co1 O4 1.966 . S
Co1 N10 2.022 1_545 S
Co1 N18 1.993 . S
Co1 O26 1.941 . S
C2 O3 1.258 . S
C2 O4 1.263 . S
O3 Co0 1.970 . S
O3 C2 1.258 . S
O4 Co1 1.966 . S
O4 C2 1.263 . S
C5 O6 1.235 . S
C5 O32 1.289 . S
O6 C5 1.235 . S
C7 C9 1.400 . S
C7 N10 1.351 . S
C7 C12 1.501 . S
C8 C9 1.387 . S
C8 N11 1.341 . S
C9 C7 1.400 . S
C9 C8 1.387 . S
N10 Co1 2.022 1_565 S
N10 C7 1.351 . S
N10 N11 1.365 . S
N11 C8 1.341 . S
N11 N10 1.365 . S
N11 H31 0.862 . S
C12 C7 1.501 . S
C12 H13 0.961 1_565 S
C12 H14 0.961 . S
C12 H15 0.960 . S
H13 C12 0.961 1_545 S
H14 C12 0.961 . S
H15 C12 0.960 . S
C16 N17 1.342 . S
C16 C20 1.401 . S
C16 C21 1.499 . S
N17 Co0 1.989 . S
N17 C16 1.342 . S
N17 N18 1.388 . S
N18 Co1 1.993 . S
N18 N17 1.388 . S
N18 C19 1.346 1_545 S
C19 N18 1.346 1_565 S
C19 C20 1.396 1_565 S
C19 C29 1.510 . S
C20 C16 1.401 . S
C20 C19 1.396 1_545 S
C21 C16 1.499 . S
C21 H22 0.959 . S
C21 H23 0.960 . S
C21 H24 0.961 . S
H22 C21 0.959 . S
H23 C21 0.960 . S
H24 C21 0.961 . S
O25 Co0 1.967 . S
O25 C33 1.258 . S
O26 Co1 1.941 . S
O26 C33 1.266 . S
H27 C29 0.959 . S
H28 C29 0.961 . S
C29 C19 1.510 . S
C29 H27 0.959 . S
C29 H28 0.961 . S
C29 H30 0.960 . S
H30 C29 0.960 . S
H31 N11 0.862 . S
O32 Co0 1.920 . S
O32 C5 1.289 . S
C33 O25 1.258 . S
C33 O26 1.266 . S
Co34 O37 1.970 . S
Co34 N51 1.989 . S
Co34 O59 1.967 . S
Co34 O66 1.920 . S
Co35 O38 1.966 . S
Co35 N44 2.022 1_655 S
Co35 N52 1.993 . S
Co35 O60 1.941 . S
C36 O37 1.258 . S
C36 O38 1.263 . S
O37 Co34 1.970 . S
O37 C36 1.258 . S
O38 Co35 1.966 . S
O38 C36 1.263 . S
C39 O40 1.235 . S
C39 O66 1.289 . S
O40 C39 1.235 . S
C41 C43 1.400 . S
C41 N44 1.351 . S
C41 C46 1.501 . S
C42 C43 1.387 . S
C42 N45 1.341 . S
C43 C41 1.400 . S
C43 C42 1.387 . S
N44 Co35 2.022 1_455 S
N44 C41 1.351 . S
N44 N45 1.365 . S
N45 C42 1.341 . S
N45 N44 1.365 . S
N45 H65 0.862 . S
C46 C41 1.501 . S
C46 H47 0.961 1_455 S
C46 H48 0.961 . S
C46 H49 0.960 . S
H47 C46 0.961 1_655 S
H48 C46 0.961 . S
H49 C46 0.960 . S
C50 N51 1.342 . S
C50 C54 1.401 . S
C50 C55 1.499 . S
N51 Co34 1.989 . S
N51 C50 1.342 . S
N51 N52 1.388 . S
N52 Co35 1.993 . S
N52 N51 1.388 . S
N52 C53 1.346 1_655 S
C53 N52 1.346 1_455 S
C53 C54 1.396 1_455 S
C53 C63 1.510 . S
C54 C50 1.401 . S
C54 C53 1.396 1_655 S
C55 C50 1.499 . S
C55 H56 0.959 . S
C55 H57 0.960 . S
C55 H58 0.961 . S
H56 C55 0.959 . S
H57 C55 0.960 . S
H58 C55 0.961 . S
O59 Co34 1.967 . S
O59 C67 1.258 . S
O60 Co35 1.941 . S
O60 C67 1.266 . S
H61 C63 0.959 . S
H62 C63 0.961 . S
C63 C53 1.510 . S
C63 H61 0.959 . S
C63 H62 0.961 . S
C63 H64 0.960 . S
H64 C63 0.960 . S
H65 N45 0.862 . S
O66 Co34 1.920 . S
O66 C39 1.289 . S
C67 O59 1.258 . S
C67 O60 1.266 . S
Co68 O71 1.970 . S
Co68 N85 1.989 . S
Co68 O93 1.967 . S
Co68 O100 1.920 . S
Co69 O72 1.966 . S
Co69 N78 2.022 1_565 S
Co69 N86 1.993 . S
Co69 O94 1.941 . S
C70 O71 1.258 . S
C70 O72 1.263 . S
O71 Co68 1.970 . S
O71 C70 1.258 . S
O72 Co69 1.966 . S
O72 C70 1.263 . S
C73 O74 1.235 . S
C73 O100 1.289 . S
O74 C73 1.235 . S
C75 C77 1.400 . S
C75 N78 1.351 . S
C75 C80 1.501 . S
C76 C77 1.387 . S
C76 N79 1.341 . S
C77 C75 1.400 . S
C77 C76 1.387 . S
N78 Co69 2.022 1_545 S
N78 C75 1.351 . S
N78 N79 1.365 . S
N79 C76 1.341 . S
N79 N78 1.365 . S
N79 H99 0.862 . S
C80 C75 1.501 . S
C80 H81 0.961 1_545 S
C80 H82 0.961 . S
C80 H83 0.960 . S
H81 C80 0.961 1_565 S
H82 C80 0.961 . S
H83 C80 0.960 . S
C84 N85 1.342 . S
C84 C88 1.401 . S
C84 C89 1.499 . S
N85 Co68 1.989 . S
N85 C84 1.342 . S
N85 N86 1.388 . S
N86 Co69 1.993 . S
N86 N85 1.388 . S
N86 C87 1.346 1_565 S
C87 N86 1.346 1_545 S
C87 C88 1.396 1_545 S
C87 C97 1.510 . S
C88 C84 1.401 . S
C88 C87 1.396 1_565 S
C89 C84 1.499 . S
C89 H90 0.959 . S
C89 H91 0.960 . S
C89 H92 0.961 . S
H90 C89 0.959 . S
H91 C89 0.960 . S
H92 C89 0.961 . S
O93 Co68 1.967 . S
O93 C101 1.258 . S
O94 Co69 1.941 . S
O94 C101 1.266 . S
H95 C97 0.959 . S
H96 C97 0.961 . S
C97 C87 1.510 . S
C97 H95 0.959 . S
C97 H96 0.961 . S
C97 H98 0.960 . S
H98 C97 0.960 . S
H99 N79 0.862 . S
O100 Co68 1.920 . S
O100 C73 1.289 . S
C101 O93 1.258 . S
C101 O94 1.266 . S
Co102 O105 1.970 . S
Co102 N119 1.989 . S
Co102 O127 1.967 . S
Co102 O134 1.920 . S
Co103 O106 1.966 . S
Co103 N112 2.022 1_455 S
Co103 N120 1.993 . S
Co103 O128 1.941 . S
C104 O105 1.258 . S
C104 O106 1.263 . S
O105 Co102 1.970 . S
O105 C104 1.258 . S
O106 Co103 1.966 . S
O106 C104 1.263 . S
C107 O108 1.235 . S
C107 O134 1.289 . S
O108 C107 1.235 . S
C109 C111 1.400 . S
C109 N112 1.351 . S
C109 C114 1.501 . S
C110 C111 1.387 . S
C110 N113 1.341 . S
C111 C109 1.400 . S
C111 C110 1.387 . S
N112 Co103 2.022 1_655 S
N112 C109 1.351 . S
N112 N113 1.365 . S
N113 C110 1.341 . S
N113 N112 1.365 . S
N113 H133 0.862 . S
C114 C109 1.501 . S
C114 H115 0.961 1_655 S
C114 H116 0.961 . S
C114 H117 0.960 . S
H115 C114 0.961 1_455 S
H116 C114 0.961 . S
H117 C114 0.960 . S
C118 N119 1.342 . S
C118 C122 1.401 . S
C118 C123 1.499 . S
N119 Co102 1.989 . S
N119 C118 1.342 . S
N119 N120 1.388 . S
N120 Co103 1.993 . S
N120 N119 1.388 . S
N120 C121 1.346 1_455 S
C121 N120 1.346 1_655 S
C121 C122 1.396 1_655 S
C121 C131 1.510 . S
C122 C118 1.401 . S
C122 C121 1.396 1_455 S
C123 C118 1.499 . S
C123 H124 0.959 . S
C123 H125 0.960 . S
C123 H126 0.961 . S
H124 C123 0.959 . S
H125 C123 0.960 . S
H126 C123 0.961 . S
O127 Co102 1.967 . S
O127 C135 1.258 . S
O128 Co103 1.941 . S
O128 C135 1.266 . S
H129 C131 0.959 . S
H130 C131 0.961 . S
C131 C121 1.510 . S
C131 H129 0.959 . S
C131 H130 0.961 . S
C131 H132 0.960 . S
H132 C131 0.960 . S
H133 N113 0.862 . S
O134 Co102 1.920 . S
O134 C107 1.289 . S
C135 O127 1.258 . S
C135 O128 1.266 . S
Co136 O139 1.970 . S
Co136 N153 1.989 . S
Co136 O161 1.967 . S
Co136 O168 1.920 . S
Co137 O140 1.966 . S
Co137 N146 2.022 1_565 S
Co137 N154 1.993 . S
Co137 O162 1.941 . S
C138 O139 1.258 . S
C138 O140 1.263 . S
O139 Co136 1.970 . S
O139 C138 1.258 . S
O140 Co137 1.966 . S
O140 C138 1.263 . S
C141 O142 1.235 . S
C141 O168 1.289 . S
O142 C141 1.235 . S
C143 C145 1.400 . S
C143 N146 1.351 . S
C143 C148 1.501 . S
C144 C145 1.387 . S
C144 N147 1.341 . S
C145 C143 1.400 . S
C145 C144 1.387 . S
N146 Co137 2.022 1_545 S
N146 C143 1.351 . S
N146 N147 1.365 . S
N147 C144 1.341 . S
N147 N146 1.365 . S
N147 H167 0.862 . S
C148 C143 1.501 . S
C148 H149 0.961 1_545 S
C148 H150 0.961 . S
C148 H151 0.960 . S
H149 C148 0.961 1_565 S
H150 C148 0.961 . S
H151 C148 0.960 . S
C152 N153 1.342 . S
C152 C156 1.401 . S
C152 C157 1.499 . S
N153 Co136 1.989 . S
N153 C152 1.342 . S
N153 N154 1.388 . S
N154 Co137 1.993 . S
N154 N153 1.388 . S
N154 C155 1.346 1_565 S
C155 N154 1.346 1_545 S
C155 C156 1.396 1_545 S
C155 C165 1.510 . S
C156 C152 1.401 . S
C156 C155 1.396 1_565 S
C157 C152 1.499 . S
C157 H158 0.959 . S
C157 H159 0.960 . S
C157 H160 0.961 . S
H158 C157 0.959 . S
H159 C157 0.960 . S
H160 C157 0.961 . S
O161 Co136 1.967 . S
O161 C169 1.258 . S
O162 Co137 1.941 . S
O162 C169 1.266 . S
H163 C165 0.959 . S
H164 C165 0.961 . S
C165 C155 1.510 . S
C165 H163 0.959 . S
C165 H164 0.961 . S
C165 H166 0.960 . S
H166 C165 0.960 . S
H167 N147 0.862 . S
O168 Co136 1.920 . S
O168 C141 1.289 . S
C169 O161 1.258 . S
C169 O162 1.266 . S
Co170 O173 1.970 . S
Co170 N187 1.989 . S
Co170 O195 1.967 . S
Co170 O202 1.920 . S
Co171 O174 1.966 . S
Co171 N180 2.022 1_455 S
Co171 N188 1.993 . S
Co171 O196 1.941 . S
C172 O173 1.258 . S
C172 O174 1.263 . S
O173 Co170 1.970 . S
O173 C172 1.258 . S
O174 Co171 1.966 . S
O174 C172 1.263 . S
C175 O176 1.235 . S
C175 O202 1.289 . S
O176 C175 1.235 . S
C177 C179 1.400 . S
C177 N180 1.351 . S
C177 C182 1.501 . S
C178 C179 1.387 . S
C178 N181 1.341 . S
C179 C177 1.400 . S
C179 C178 1.387 . S
N180 Co171 2.022 1_655 S
N180 C177 1.351 . S
N180 N181 1.365 . S
N181 C178 1.341 . S
N181 N180 1.365 . S
N181 H201 0.862 . S
C182 C177 1.501 . S
C182 H183 0.961 1_655 S
C182 H184 0.961 . S
C182 H185 0.960 . S
H183 C182 0.961 1_455 S
H184 C182 0.961 . S
H185 C182 0.960 . S
C186 N187 1.342 . S
C186 C190 1.401 . S
C186 C191 1.499 . S
N187 Co170 1.989 . S
N187 C186 1.342 . S
N187 N188 1.388 . S
N188 Co171 1.993 . S
N188 N187 1.388 . S
N188 C189 1.346 1_455 S
C189 N188 1.346 1_655 S
C189 C190 1.396 1_655 S
C189 C199 1.510 . S
C190 C186 1.401 . S
C190 C189 1.396 1_455 S
C191 C186 1.499 . S
C191 H192 0.959 . S
C191 H193 0.960 . S
C191 H194 0.961 . S
H192 C191 0.959 . S
H193 C191 0.960 . S
H194 C191 0.961 . S
O195 Co170 1.967 . S
O195 C203 1.258 . S
O196 Co171 1.941 . S
O196 C203 1.266 . S
H197 C199 0.959 . S
H198 C199 0.961 . S
C199 C189 1.510 . S
C199 H197 0.959 . S
C199 H198 0.961 . S
C199 H200 0.960 . S
H200 C199 0.960 . S
H201 N181 0.862 . S
O202 Co170 1.920 . S
O202 C175 1.289 . S
C203 O195 1.258 . S
C203 O196 1.266 . S
Co204 O207 1.970 . S
Co204 N221 1.989 . S
Co204 O229 1.967 . S
Co204 O236 1.920 . S
Co205 O208 1.966 . S
Co205 N214 2.022 1_545 S
Co205 N222 1.993 . S
Co205 O230 1.941 . S
C206 O207 1.258 . S
C206 O208 1.263 . S
O207 Co204 1.970 . S
O207 C206 1.258 . S
O208 Co205 1.966 . S
O208 C206 1.263 . S
C209 O210 1.235 . S
C209 O236 1.289 . S
O210 C209 1.235 . S
C211 C213 1.400 . S
C211 N214 1.351 . S
C211 C216 1.501 . S
C212 C213 1.387 . S
C212 N215 1.341 . S
C213 C211 1.400 . S
C213 C212 1.387 . S
N214 Co205 2.022 1_565 S
N214 C211 1.351 . S
N214 N215 1.365 . S
N215 C212 1.341 . S
N215 N214 1.365 . S
N215 H235 0.862 . S
C216 C211 1.501 . S
C216 H217 0.961 1_565 S
C216 H218 0.961 . S
C216 H219 0.960 . S
H217 C216 0.961 1_545 S
H218 C216 0.961 . S
H219 C216 0.960 . S
C220 N221 1.342 . S
C220 C224 1.401 . S
C220 C225 1.499 . S
N221 Co204 1.989 . S
N221 C220 1.342 . S
N221 N222 1.388 . S
N222 Co205 1.993 . S
N222 N221 1.388 . S
N222 C223 1.346 1_545 S
C223 N222 1.346 1_565 S
C223 C224 1.396 1_565 S
C223 C233 1.510 . S
C224 C220 1.401 . S
C224 C223 1.396 1_545 S
C225 C220 1.499 . S
C225 H226 0.959 . S
C225 H227 0.960 . S
C225 H228 0.961 . S
H226 C225 0.959 . S
H227 C225 0.960 . S
H228 C225 0.961 . S
O229 Co204 1.967 . S
O229 C237 1.258 . S
O230 Co205 1.941 . S
O230 C237 1.266 . S
H231 C233 0.959 . S
H232 C233 0.961 . S
C233 C223 1.510 . S
C233 H231 0.959 . S
C233 H232 0.961 . S
C233 H234 0.960 . S
H234 C233 0.960 . S
H235 N215 0.862 . S
O236 Co204 1.920 . S
O236 C209 1.289 . S
C237 O229 1.258 . S
C237 O230 1.266 . S
Co238 O241 1.970 . S
Co238 N255 1.989 . S
Co238 O263 1.967 . S
Co238 O270 1.920 . S
Co239 O242 1.966 . S
Co239 N248 2.022 1_655 S
Co239 N256 1.993 . S
Co239 O264 1.941 . S
C240 O241 1.258 . S
C240 O242 1.263 . S
O241 Co238 1.970 . S
O241 C240 1.258 . S
O242 Co239 1.966 . S
O242 C240 1.263 . S
C243 O244 1.235 . S
C243 O270 1.289 . S
O244 C243 1.235 . S
C245 C247 1.400 . S
C245 N248 1.351 . S
C245 C250 1.501 . S
C246 C247 1.387 . S
C246 N249 1.341 . S
C247 C245 1.400 . S
C247 C246 1.387 . S
N248 Co239 2.022 1_455 S
N248 C245 1.351 . S
N248 N249 1.365 . S
N249 C246 1.341 . S
N249 N248 1.365 . S
N249 H269 0.862 . S
C250 C245 1.501 . S
C250 H251 0.961 1_455 S
C250 H252 0.961 . S
C250 H253 0.960 . S
H251 C250 0.961 1_655 S
H252 C250 0.961 . S
H253 C250 0.960 . S
C254 N255 1.342 . S
C254 C258 1.401 . S
C254 C259 1.499 . S
N255 Co238 1.989 . S
N255 C254 1.342 . S
N255 N256 1.388 . S
N256 Co239 1.993 . S
N256 N255 1.388 . S
N256 C257 1.346 1_655 S
C257 N256 1.346 1_455 S
C257 C258 1.396 1_455 S
C257 C267 1.510 . S
C258 C254 1.401 . S
C258 C257 1.396 1_655 S
C259 C254 1.499 . S
C259 H260 0.959 . S
C259 H261 0.960 . S
C259 H262 0.961 . S
H260 C259 0.959 . S
H261 C259 0.960 . S
H262 C259 0.961 . S
O263 Co238 1.967 . S
O263 C271 1.258 . S
O264 Co239 1.941 . S
O264 C271 1.266 . S
H265 C267 0.959 . S
H266 C267 0.961 . S
C267 C257 1.510 . S
C267 H265 0.959 . S
C267 H266 0.961 . S
C267 H268 0.960 . S
H268 C267 0.960 . S
H269 N249 0.862 . S
O270 Co238 1.920 . S
O270 C243 1.289 . S
C271 O263 1.258 . S
C271 O264 1.266 . S
Co272 O275 1.970 . S
Co272 N289 1.989 . S
Co272 O297 1.967 . S
Co272 O304 1.920 . S
Co273 O276 1.966 . S
Co273 N282 2.022 . S
Co273 N290 1.993 . S
Co273 O298 1.941 . S
C274 O275 1.258 . S
C274 O276 1.263 . S
O275 Co272 1.970 . S
O275 C274 1.258 . S
O276 Co273 1.966 . S
O276 C274 1.263 . S
C277 O278 1.235 . S
C277 O304 1.289 . S
O278 C277 1.235 . S
C279 C281 1.400 . S
C279 N282 1.351 . S
C279 C284 1.501 . S
C280 C281 1.387 . S
C280 N283 1.341 . S
C281 C279 1.400 . S
C281 C280 1.387 . S
N282 Co273 2.022 . S
N282 C279 1.351 . S
N282 N283 1.365 . S
N283 C280 1.341 . S
N283 N282 1.365 . S
N283 H303 0.862 . S
C284 C279 1.501 . S
C284 H285 0.961 . S
C284 H286 0.961 . S
C284 H287 0.960 . S
H285 C284 0.961 . S
H286 C284 0.961 . S
H287 C284 0.960 . S
C288 N289 1.342 . S
C288 C292 1.401 . S
C288 C293 1.499 1_556 S
N289 Co272 1.989 . S
N289 C288 1.342 . S
N289 N290 1.388 . S
N290 Co273 1.993 . S
N290 N289 1.388 . S
N290 C291 1.346 . S
C291 N290 1.346 . S
C291 C292 1.396 . S
C291 C301 1.510 . S
C292 C288 1.401 . S
C292 C291 1.396 . S
C293 C288 1.499 1_554 S
C293 H294 0.959 . S
C293 H295 0.960 . S
C293 H296 0.961 . S
H294 C293 0.959 . S
H295 C293 0.960 . S
H296 C293 0.961 . S
O297 Co272 1.967 . S
O297 C305 1.258 . S
O298 Co273 1.941 . S
O298 C305 1.266 . S
H299 C301 0.959 . S
H300 C301 0.961 . S
C301 C291 1.510 . S
C301 H299 0.959 . S
C301 H300 0.961 . S
C301 H302 0.960 . S
H302 C301 0.960 . S
H303 N283 0.862 . S
O304 Co272 1.920 . S
O304 C277 1.289 . S
C305 O297 1.258 . S
C305 O298 1.266 . S
Co306 O309 1.970 . S
Co306 N323 1.989 . S
Co306 O331 1.967 . S
Co306 O338 1.920 . S
Co307 O310 1.966 . S
Co307 N316 2.022 . S
Co307 N324 1.993 . S
Co307 O332 1.941 . S
C308 O309 1.258 . S
C308 O310 1.263 . S
O309 Co306 1.970 . S
O309 C308 1.258 . S
O310 Co307 1.966 . S
O310 C308 1.263 . S
C311 O312 1.235 . S
C311 O338 1.289 . S
O312 C311 1.235 . S
C313 C315 1.400 . S
C313 N316 1.351 . S
C313 C318 1.501 . S
C314 C315 1.387 . S
C314 N317 1.341 . S
C315 C313 1.400 . S
C315 C314 1.387 . S
N316 Co307 2.022 . S
N316 C313 1.351 . S
N316 N317 1.365 . S
N317 C314 1.341 . S
N317 N316 1.365 . S
N317 H337 0.862 . S
C318 C313 1.501 . S
C318 H319 0.961 . S
C318 H320 0.961 . S
C318 H321 0.960 . S
H319 C318 0.961 . S
H320 C318 0.961 . S
H321 C318 0.960 . S
C322 N323 1.342 . S
C322 C326 1.401 . S
C322 C327 1.499 1_556 S
N323 Co306 1.989 . S
N323 C322 1.342 . S
N323 N324 1.388 . S
N324 Co307 1.993 . S
N324 N323 1.388 . S
N324 C325 1.346 . S
C325 N324 1.346 . S
C325 C326 1.396 . S
C325 C335 1.510 . S
C326 C322 1.401 . S
C326 C325 1.396 . S
C327 C322 1.499 1_554 S
C327 H328 0.959 . S
C327 H329 0.960 . S
C327 H330 0.961 . S
H328 C327 0.959 . S
H329 C327 0.960 . S
H330 C327 0.961 . S
O331 Co306 1.967 . S
O331 C339 1.258 . S
O332 Co307 1.941 . S
O332 C339 1.266 . S
H333 C335 0.959 . S
H334 C335 0.961 . S
C335 C325 1.510 . S
C335 H333 0.959 . S
C335 H334 0.961 . S
C335 H336 0.960 . S
H336 C335 0.960 . S
H337 N317 0.862 . S
O338 Co306 1.920 . S
O338 C311 1.289 . S
C339 O331 1.258 . S
C339 O332 1.266 . S
Co340 O343 1.970 . S
Co340 N357 1.989 . S
Co340 O365 1.967 . S
Co340 O372 1.920 . S
Co341 O344 1.966 . S
Co341 N350 2.022 . S
Co341 N358 1.993 . S
Co341 O366 1.941 . S
C342 O343 1.258 . S
C342 O344 1.263 . S
O343 Co340 1.970 . S
O343 C342 1.258 . S
O344 Co341 1.966 . S
O344 C342 1.263 . S
C345 O346 1.235 . S
C345 O372 1.289 . S
O346 C345 1.235 . S
C347 C349 1.400 . S
C347 N350 1.351 . S
C347 C352 1.501 . S
C348 C349 1.387 . S
C348 N351 1.341 . S
C349 C347 1.400 . S
C349 C348 1.387 . S
N350 Co341 2.022 . S
N350 C347 1.351 . S
N350 N351 1.365 . S
N351 C348 1.341 . S
N351 N350 1.365 . S
N351 H371 0.862 . S
C352 C347 1.501 . S
C352 H353 0.961 . S
C352 H354 0.961 . S
C352 H355 0.960 . S
H353 C352 0.961 . S
H354 C352 0.961 . S
H355 C352 0.960 . S
C356 N357 1.342 . S
C356 C360 1.401 . S
C356 C361 1.499 1_556 S
N357 Co340 1.989 . S
N357 C356 1.342 . S
N357 N358 1.388 . S
N358 Co341 1.993 . S
N358 N357 1.388 . S
N358 C359 1.346 . S
C359 N358 1.346 . S
C359 C360 1.396 . S
C359 C369 1.510 . S
C360 C356 1.401 . S
C360 C359 1.396 . S
C361 C356 1.499 1_554 S
C361 H362 0.959 . S
C361 H363 0.960 . S
C361 H364 0.961 . S
H362 C361 0.959 . S
H363 C361 0.960 . S
H364 C361 0.961 . S
O365 Co340 1.967 . S
O365 C373 1.258 . S
O366 Co341 1.941 . S
O366 C373 1.266 . S
H367 C369 0.959 . S
H368 C369 0.961 . S
C369 C359 1.510 . S
C369 H367 0.959 . S
C369 H368 0.961 . S
C369 H370 0.960 . S
H370 C369 0.960 . S
H371 N351 0.862 . S
O372 Co340 1.920 . S
O372 C345 1.289 . S
C373 O365 1.258 . S
C373 O366 1.266 . S
Co374 O377 1.970 . S
Co374 N391 1.989 . S
Co374 O399 1.967 . S
Co374 O406 1.920 . S
Co375 O378 1.966 . S
Co375 N384 2.022 . S
Co375 N392 1.993 . S
Co375 O400 1.941 . S
C376 O377 1.258 . S
C376 O378 1.263 . S
O377 Co374 1.970 . S
O377 C376 1.258 . S
O378 Co375 1.966 . S
O378 C376 1.263 . S
C379 O380 1.235 . S
C379 O406 1.289 . S
O380 C379 1.235 . S
C381 C383 1.400 . S
C381 N384 1.351 . S
C381 C386 1.501 . S
C382 C383 1.387 . S
C382 N385 1.341 . S
C383 C381 1.400 . S
C383 C382 1.387 . S
N384 Co375 2.022 . S
N384 C381 1.351 . S
N384 N385 1.365 . S
N385 C382 1.341 . S
N385 N384 1.365 . S
N385 H405 0.862 . S
C386 C381 1.501 . S
C386 H387 0.961 . S
C386 H388 0.961 . S
C386 H389 0.960 . S
H387 C386 0.961 . S
H388 C386 0.961 . S
H389 C386 0.960 . S
C390 N391 1.342 . S
C390 C394 1.401 . S
C390 C395 1.499 1_556 S
N391 Co374 1.989 . S
N391 C390 1.342 . S
N391 N392 1.388 . S
N392 Co375 1.993 . S
N392 N391 1.388 . S
N392 C393 1.346 . S
C393 N392 1.346 . S
C393 C394 1.396 . S
C393 C403 1.510 . S
C394 C390 1.401 . S
C394 C393 1.396 . S
C395 C390 1.499 1_554 S
C395 H396 0.959 . S
C395 H397 0.960 . S
C395 H398 0.961 . S
H396 C395 0.959 . S
H397 C395 0.960 . S
H398 C395 0.961 . S
O399 Co374 1.967 . S
O399 C407 1.258 . S
O400 Co375 1.941 . S
O400 C407 1.266 . S
H401 C403 0.959 . S
H402 C403 0.961 . S
C403 C393 1.510 . S
C403 H401 0.959 . S
C403 H402 0.961 . S
C403 H404 0.960 . S
H404 C403 0.960 . S
H405 N385 0.862 . S
O406 Co374 1.920 . S
O406 C379 1.289 . S
C407 O399 1.258 . S
C407 O400 1.266 . S
Co408 O411 1.970 . S
Co408 N425 1.989 . S
Co408 O433 1.967 . S
Co408 O440 1.920 . S
Co409 O412 1.966 . S
Co409 N418 2.022 . S
Co409 N426 1.993 . S
Co409 O434 1.941 . S
C410 O411 1.258 . S
C410 O412 1.263 . S
O411 Co408 1.970 . S
O411 C410 1.258 . S
O412 Co409 1.966 . S
O412 C410 1.263 . S
C413 O414 1.235 . S
C413 O440 1.289 . S
O414 C413 1.235 . S
C415 C417 1.400 . S
C415 N418 1.351 . S
C415 C420 1.501 . S
C416 C417 1.387 . S
C416 N419 1.341 . S
C417 C415 1.400 . S
C417 C416 1.387 . S
N418 Co409 2.022 . S
N418 C415 1.351 . S
N418 N419 1.365 . S
N419 C416 1.341 . S
N419 N418 1.365 . S
N419 H439 0.862 . S
C420 C415 1.501 . S
C420 H421 0.961 . S
C420 H422 0.961 . S
C420 H423 0.960 . S
H421 C420 0.961 . S
H422 C420 0.961 . S
H423 C420 0.960 . S
C424 N425 1.342 . S
C424 C428 1.401 . S
C424 C429 1.499 1_554 S
N425 Co408 1.989 . S
N425 C424 1.342 . S
N425 N426 1.388 . S
N426 Co409 1.993 . S
N426 N425 1.388 . S
N426 C427 1.346 . S
C427 N426 1.346 . S
C427 C428 1.396 . S
C427 C437 1.510 . S
C428 C424 1.401 . S
C428 C427 1.396 . S
C429 C424 1.499 1_556 S
C429 H430 0.959 . S
C429 H431 0.960 . S
C429 H432 0.961 . S
H430 C429 0.959 . S
H431 C429 0.960 . S
H432 C429 0.961 . S
O433 Co408 1.967 . S
O433 C441 1.258 . S
O434 Co409 1.941 . S
O434 C441 1.266 . S
H435 C437 0.959 . S
H436 C437 0.961 . S
C437 C427 1.510 . S
C437 H435 0.959 . S
C437 H436 0.961 . S
C437 H438 0.960 . S
H438 C437 0.960 . S
H439 N419 0.862 . S
O440 Co408 1.920 . S
O440 C413 1.289 . S
C441 O433 1.258 . S
C441 O434 1.266 . S
Co442 O445 1.970 . S
Co442 N459 1.989 . S
Co442 O467 1.967 . S
Co442 O474 1.920 . S
Co443 O446 1.966 . S
Co443 N452 2.022 . S
Co443 N460 1.993 . S
Co443 O468 1.941 . S
C444 O445 1.258 . S
C444 O446 1.263 . S
O445 Co442 1.970 . S
O445 C444 1.258 . S
O446 Co443 1.966 . S
O446 C444 1.263 . S
C447 O448 1.235 . S
C447 O474 1.289 . S
O448 C447 1.235 . S
C449 C451 1.400 . S
C449 N452 1.351 . S
C449 C454 1.501 . S
C450 C451 1.387 . S
C450 N453 1.341 . S
C451 C449 1.400 . S
C451 C450 1.387 . S
N452 Co443 2.022 . S
N452 C449 1.351 . S
N452 N453 1.365 . S
N453 C450 1.341 . S
N453 N452 1.365 . S
N453 H473 0.862 . S
C454 C449 1.501 . S
C454 H455 0.961 . S
C454 H456 0.961 . S
C454 H457 0.960 . S
H455 C454 0.961 . S
H456 C454 0.961 . S
H457 C454 0.960 . S
C458 N459 1.342 . S
C458 C462 1.401 . S
C458 C463 1.499 1_554 S
N459 Co442 1.989 . S
N459 C458 1.342 . S
N459 N460 1.388 . S
N460 Co443 1.993 . S
N460 N459 1.388 . S
N460 C461 1.346 . S
C461 N460 1.346 . S
C461 C462 1.396 . S
C461 C471 1.510 . S
C462 C458 1.401 . S
C462 C461 1.396 . S
C463 C458 1.499 1_556 S
C463 H464 0.959 . S
C463 H465 0.960 . S
C463 H466 0.961 . S
H464 C463 0.959 . S
H465 C463 0.960 . S
H466 C463 0.961 . S
O467 Co442 1.967 . S
O467 C475 1.258 . S
O468 Co443 1.941 . S
O468 C475 1.266 . S
H469 C471 0.959 . S
H470 C471 0.961 . S
C471 C461 1.510 . S
C471 H469 0.959 . S
C471 H470 0.961 . S
C471 H472 0.960 . S
H472 C471 0.960 . S
H473 N453 0.862 . S
O474 Co442 1.920 . S
O474 C447 1.289 . S
C475 O467 1.258 . S
C475 O468 1.266 . S
Co476 O479 1.970 . S
Co476 N493 1.989 . S
Co476 O501 1.967 . S
Co476 O508 1.920 . S
Co477 O480 1.966 . S
Co477 N486 2.022 . S
Co477 N494 1.993 . S
Co477 O502 1.941 . S
C478 O479 1.258 . S
C478 O480 1.263 . S
O479 Co476 1.970 . S
O479 C478 1.258 . S
O480 Co477 1.966 . S
O480 C478 1.263 . S
C481 O482 1.235 . S
C481 O508 1.289 . S
O482 C481 1.235 . S
C483 C485 1.400 . S
C483 N486 1.351 . S
C483 C488 1.501 . S
C484 C485 1.387 . S
C484 N487 1.341 . S
C485 C483 1.400 . S
C485 C484 1.387 . S
N486 Co477 2.022 . S
N486 C483 1.351 . S
N486 N487 1.365 . S
N487 C484 1.341 . S
N487 N486 1.365 . S
N487 H507 0.862 . S
C488 C483 1.501 . S
C488 H489 0.961 . S
C488 H490 0.961 . S
C488 H491 0.960 . S
H489 C488 0.961 . S
H490 C488 0.961 . S
H491 C488 0.960 . S
C492 N493 1.342 . S
C492 C496 1.401 . S
C492 C497 1.499 1_554 S
N493 Co476 1.989 . S
N493 C492 1.342 . S
N493 N494 1.388 . S
N494 Co477 1.993 . S
N494 N493 1.388 . S
N494 C495 1.346 . S
C495 N494 1.346 . S
C495 C496 1.396 . S
C495 C505 1.510 . S
C496 C492 1.401 . S
C496 C495 1.396 . S
C497 C492 1.499 1_556 S
C497 H498 0.959 . S
C497 H499 0.960 . S
C497 H500 0.961 . S
H498 C497 0.959 . S
H499 C497 0.960 . S
H500 C497 0.961 . S
O501 Co476 1.967 . S
O501 C509 1.258 . S
O502 Co477 1.941 . S
O502 C509 1.266 . S
H503 C505 0.959 . S
H504 C505 0.961 . S
C505 C495 1.510 . S
C505 H503 0.959 . S
C505 H504 0.961 . S
C505 H506 0.960 . S
H506 C505 0.960 . S
H507 N487 0.862 . S
O508 Co476 1.920 . S
O508 C481 1.289 . S
C509 O501 1.258 . S
C509 O502 1.266 . S
Co510 O513 1.970 . S
Co510 N527 1.989 . S
Co510 O535 1.967 . S
Co510 O542 1.920 . S
Co511 O514 1.966 . S
Co511 N520 2.022 . S
Co511 N528 1.993 . S
Co511 O536 1.941 . S
C512 O513 1.258 . S
C512 O514 1.263 . S
O513 Co510 1.970 . S
O513 C512 1.258 . S
O514 Co511 1.966 . S
O514 C512 1.263 . S
C515 O516 1.235 . S
C515 O542 1.289 . S
O516 C515 1.235 . S
C517 C519 1.400 . S
C517 N520 1.351 . S
C517 C522 1.501 . S
C518 C519 1.387 . S
C518 N521 1.341 . S
C519 C517 1.400 . S
C519 C518 1.387 . S
N520 Co511 2.022 . S
N520 C517 1.351 . S
N520 N521 1.365 . S
N521 C518 1.341 . S
N521 N520 1.365 . S
N521 H541 0.862 . S
C522 C517 1.501 . S
C522 H523 0.961 . S
C522 H524 0.961 . S
C522 H525 0.960 . S
H523 C522 0.961 . S
H524 C522 0.961 . S
H525 C522 0.960 . S
C526 N527 1.342 . S
C526 C530 1.401 . S
C526 C531 1.499 1_554 S
N527 Co510 1.989 . S
N527 C526 1.342 . S
N527 N528 1.388 . S
N528 Co511 1.993 . S
N528 N527 1.388 . S
N528 C529 1.346 . S
C529 N528 1.346 . S
C529 C530 1.396 . S
C529 C539 1.510 . S
C530 C526 1.401 . S
C530 C529 1.396 . S
C531 C526 1.499 1_556 S
C531 H532 0.959 . S
C531 H533 0.960 . S
C531 H534 0.961 . S
H532 C531 0.959 . S
H533 C531 0.960 . S
H534 C531 0.961 . S
O535 Co510 1.967 . S
O535 C543 1.258 . S
O536 Co511 1.941 . S
O536 C543 1.266 . S
H537 C539 0.959 . S
H538 C539 0.961 . S
C539 C529 1.510 . S
C539 H537 0.959 . S
C539 H538 0.961 . S
C539 H540 0.960 . S
H540 C539 0.960 . S
H541 N521 0.862 . S
O542 Co510 1.920 . S
O542 C515 1.289 . S
C543 O535 1.258 . S
C543 O536 1.266 . S
C9 C104 3.452 . S
C2 C43 3.452 . S
C77 C36 3.452 . S
C70 C111 3.452 . S
C172 C145 3.452 . S
C206 C179 3.452 . S
C240 C213 3.452 . S
C247 C138 3.452 . S
C281 C376 3.452 . S
C315 C274 3.452 . S
C349 C308 3.452 . S
C342 C383 3.452 . S
C444 C417 3.452 . S
C451 C478 3.452 . S
C485 C512 3.452 . S
C519 C410 3.452 . S
C5 C175 1.214 . S
C39 C209 1.214 . S
C243 C73 1.214 . S
C107 C141 1.214 . S
C277 C447 1.214 1_556 S
C311 C481 1.214 1_556 S
C345 C515 1.214 1_556 S
C379 C413 1.214 1_556 S
C33 C543 1.279 . S
C441 C67 1.279 . S
C101 C475 1.279 . S
C135 C509 1.279 . S
C339 C169 1.279 . S
C373 C203 1.279 . S
C407 C237 1.279 . S
C305 C271 1.279 . S
C20 C156 1.758 1_545 S
C54 C190 1.758 1_655 S
C88 C224 1.758 1_565 S
C258 C122 1.758 1_655 S
C292 C428 1.758 1_556 S
C326 C462 1.758 1_556 S
C496 C360 1.758 1_554 S
C394 C530 1.758 1_556 S
