# Generated by pormake.
# Topology cha, (4)-cn, num edge types: 1
# Building blocks:
#     Node 0, Type 0, BuildingBlock: QUQFOY_clean_sbu_1, # of connection points: 4
#     Node 1, Type 0, BuildingBlock: QUQFOY_clean_sbu_1, # of connection points: 4
#     Node 2, Type 0, BuildingBlock: QUQFOY_clean_sbu_1, # of connection points: 4
#     Node 3, Type 0, BuildingBlock: QUQFOY_clean_sbu_1, # of connection points: 4
#     Node 4, Type 0, BuildingBlock: QUQFOY_clean_sbu_1, # of connection points: 4
#     Node 5, Type 0, BuildingBlock: QUQFOY_clean_sbu_1, # of connection points: 4
#     Node 6, Type 0, BuildingBlock: QUQFOY_clean_sbu_1, # of connection points: 4
#     Node 7, Type 0, BuildingBlock: QUQFOY_clean_sbu_1, # of connection points: 4
#     Node 8, Type 0, BuildingBlock: QUQFOY_clean_sbu_1, # of connection points: 4
#     Node 9, Type 0, BuildingBlock: QUQFOY_clean_sbu_1, # of connection points: 4
#     Node 10, Type 0, BuildingBlock: QUQFOY_clean_sbu_1, # of connection points: 4
#     Node 11, Type 0, BuildingBlock: QUQFOY_clean_sbu_1, # of connection points: 4
#     Node 12, Type 0, BuildingBlock: QUQFOY_clean_sbu_1, # of connection points: 4
#     Node 13, Type 0, BuildingBlock: QUQFOY_clean_sbu_1, # of connection points: 4
#     Node 14, Type 0, BuildingBlock: QUQFOY_clean_sbu_1, # of connection points: 4
#     Node 15, Type 0, BuildingBlock: QUQFOY_clean_sbu_1, # of connection points: 4
#     Node 16, Type 0, BuildingBlock: QUQFOY_clean_sbu_1, # of connection points: 4
#     Node 17, Type 0, BuildingBlock: QUQFOY_clean_sbu_1, # of connection points: 4
#     Node 18, Type 0, BuildingBlock: QUQFOY_clean_sbu_1, # of connection points: 4
#     Node 19, Type 0, BuildingBlock: QUQFOY_clean_sbu_1, # of connection points: 4
#     Node 20, Type 0, BuildingBlock: QUQFOY_clean_sbu_1, # of connection points: 4
#     Node 21, Type 0, BuildingBlock: QUQFOY_clean_sbu_1, # of connection points: 4
#     Node 22, Type 0, BuildingBlock: QUQFOY_clean_sbu_1, # of connection points: 4
#     Node 23, Type 0, BuildingBlock: QUQFOY_clean_sbu_1, # of connection points: 4
#     Node 24, Type 0, BuildingBlock: QUQFOY_clean_sbu_1, # of connection points: 4
#     Node 25, Type 0, BuildingBlock: QUQFOY_clean_sbu_1, # of connection points: 4
#     Node 26, Type 0, BuildingBlock: QUQFOY_clean_sbu_1, # of connection points: 4
#     Node 27, Type 0, BuildingBlock: QUQFOY_clean_sbu_1, # of connection points: 4
#     Node 28, Type 0, BuildingBlock: QUQFOY_clean_sbu_1, # of connection points: 4
#     Node 29, Type 0, BuildingBlock: QUQFOY_clean_sbu_1, # of connection points: 4
#     Node 30, Type 0, BuildingBlock: QUQFOY_clean_sbu_1, # of connection points: 4
#     Node 31, Type 0, BuildingBlock: QUQFOY_clean_sbu_1, # of connection points: 4
#     Node 32, Type 0, BuildingBlock: QUQFOY_clean_sbu_1, # of connection points: 4
#     Node 33, Type 0, BuildingBlock: QUQFOY_clean_sbu_1, # of connection points: 4
#     Node 34, Type 0, BuildingBlock: QUQFOY_clean_sbu_1, # of connection points: 4
#     Node 35, Type 0, BuildingBlock: QUQFOY_clean_sbu_1, # of connection points: 4
#     Edge 36, Type (0, 0), BuildingBlock: OJICUG_clean_linker_0, # of connection points: 2
#     Edge 37, Type (0, 0), BuildingBlock: OJICUG_clean_linker_0, # of connection points: 2
#     Edge 38, Type (0, 0), BuildingBlock: OJICUG_clean_linker_0, # of connection points: 2
#     Edge 39, Type (0, 0), BuildingBlock: OJICUG_clean_linker_0, # of connection points: 2
#     Edge 40, Type (0, 0), BuildingBlock: OJICUG_clean_linker_0, # of connection points: 2
#     Edge 41, Type (0, 0), BuildingBlock: OJICUG_clean_linker_0, # of connection points: 2
#     Edge 42, Type (0, 0), BuildingBlock: OJICUG_clean_linker_0, # of connection points: 2
#     Edge 43, Type (0, 0), BuildingBlock: OJICUG_clean_linker_0, # of connection points: 2
#     Edge 44, Type (0, 0), BuildingBlock: OJICUG_clean_linker_0, # of connection points: 2
#     Edge 45, Type (0, 0), BuildingBlock: OJICUG_clean_linker_0, # of connection points: 2
#     Edge 46, Type (0, 0), BuildingBlock: OJICUG_clean_linker_0, # of connection points: 2
#     Edge 47, Type (0, 0), BuildingBlock: OJICUG_clean_linker_0, # of connection points: 2
#     Edge 48, Type (0, 0), BuildingBlock: OJICUG_clean_linker_0, # of connection points: 2
#     Edge 49, Type (0, 0), BuildingBlock: OJICUG_clean_linker_0, # of connection points: 2
#     Edge 50, Type (0, 0), BuildingBlock: OJICUG_clean_linker_0, # of connection points: 2
#     Edge 51, Type (0, 0), BuildingBlock: OJICUG_clean_linker_0, # of connection points: 2
#     Edge 52, Type (0, 0), BuildingBlock: OJICUG_clean_linker_0, # of connection points: 2
#     Edge 53, Type (0, 0), BuildingBlock: OJICUG_clean_linker_0, # of connection points: 2
#     Edge 54, Type (0, 0), BuildingBlock: OJICUG_clean_linker_0, # of connection points: 2
#     Edge 55, Type (0, 0), BuildingBlock: OJICUG_clean_linker_0, # of connection points: 2
#     Edge 56, Type (0, 0), BuildingBlock: OJICUG_clean_linker_0, # of connection points: 2
#     Edge 57, Type (0, 0), BuildingBlock: OJICUG_clean_linker_0, # of connection points: 2
#     Edge 58, Type (0, 0), BuildingBlock: OJICUG_clean_linker_0, # of connection points: 2
#     Edge 59, Type (0, 0), BuildingBlock: OJICUG_clean_linker_0, # of connection points: 2
#     Edge 60, Type (0, 0), BuildingBlock: OJICUG_clean_linker_0, # of connection points: 2
#     Edge 61, Type (0, 0), BuildingBlock: OJICUG_clean_linker_0, # of connection points: 2
#     Edge 62, Type (0, 0), BuildingBlock: OJICUG_clean_linker_0, # of connection points: 2
#     Edge 63, Type (0, 0), BuildingBlock: OJICUG_clean_linker_0, # of connection points: 2
#     Edge 64, Type (0, 0), BuildingBlock: OJICUG_clean_linker_0, # of connection points: 2
#     Edge 65, Type (0, 0), BuildingBlock: OJICUG_clean_linker_0, # of connection points: 2
#     Edge 66, Type (0, 0), BuildingBlock: OJICUG_clean_linker_0, # of connection points: 2
#     Edge 67, Type (0, 0), BuildingBlock: OJICUG_clean_linker_0, # of connection points: 2
#     Edge 68, Type (0, 0), BuildingBlock: OJICUG_clean_linker_0, # of connection points: 2
#     Edge 69, Type (0, 0), BuildingBlock: OJICUG_clean_linker_0, # of connection points: 2
#     Edge 70, Type (0, 0), BuildingBlock: OJICUG_clean_linker_0, # of connection points: 2
#     Edge 71, Type (0, 0), BuildingBlock: OJICUG_clean_linker_0, # of connection points: 2
#     Edge 72, Type (0, 0), BuildingBlock: OJICUG_clean_linker_0, # of connection points: 2
#     Edge 73, Type (0, 0), BuildingBlock: OJICUG_clean_linker_0, # of connection points: 2
#     Edge 74, Type (0, 0), BuildingBlock: OJICUG_clean_linker_0, # of connection points: 2
#     Edge 75, Type (0, 0), BuildingBlock: OJICUG_clean_linker_0, # of connection points: 2
#     Edge 76, Type (0, 0), BuildingBlock: OJICUG_clean_linker_0, # of connection points: 2
#     Edge 77, Type (0, 0), BuildingBlock: OJICUG_clean_linker_0, # of connection points: 2
#     Edge 78, Type (0, 0), BuildingBlock: OJICUG_clean_linker_0, # of connection points: 2
#     Edge 79, Type (0, 0), BuildingBlock: OJICUG_clean_linker_0, # of connection points: 2
#     Edge 80, Type (0, 0), BuildingBlock: OJICUG_clean_linker_0, # of connection points: 2
#     Edge 81, Type (0, 0), BuildingBlock: OJICUG_clean_linker_0, # of connection points: 2
#     Edge 82, Type (0, 0), BuildingBlock: OJICUG_clean_linker_0, # of connection points: 2
#     Edge 83, Type (0, 0), BuildingBlock: OJICUG_clean_linker_0, # of connection points: 2
#     Edge 84, Type (0, 0), BuildingBlock: OJICUG_clean_linker_0, # of connection points: 2
#     Edge 85, Type (0, 0), BuildingBlock: OJICUG_clean_linker_0, # of connection points: 2
#     Edge 86, Type (0, 0), BuildingBlock: OJICUG_clean_linker_0, # of connection points: 2
#     Edge 87, Type (0, 0), BuildingBlock: OJICUG_clean_linker_0, # of connection points: 2
#     Edge 88, Type (0, 0), BuildingBlock: OJICUG_clean_linker_0, # of connection points: 2
#     Edge 89, Type (0, 0), BuildingBlock: OJICUG_clean_linker_0, # of connection points: 2
#     Edge 90, Type (0, 0), BuildingBlock: OJICUG_clean_linker_0, # of connection points: 2
#     Edge 91, Type (0, 0), BuildingBlock: OJICUG_clean_linker_0, # of connection points: 2
#     Edge 92, Type (0, 0), BuildingBlock: OJICUG_clean_linker_0, # of connection points: 2
#     Edge 93, Type (0, 0), BuildingBlock: OJICUG_clean_linker_0, # of connection points: 2
#     Edge 94, Type (0, 0), BuildingBlock: OJICUG_clean_linker_0, # of connection points: 2
#     Edge 95, Type (0, 0), BuildingBlock: OJICUG_clean_linker_0, # of connection points: 2
#     Edge 96, Type (0, 0), BuildingBlock: OJICUG_clean_linker_0, # of connection points: 2
#     Edge 97, Type (0, 0), BuildingBlock: OJICUG_clean_linker_0, # of connection points: 2
#     Edge 98, Type (0, 0), BuildingBlock: OJICUG_clean_linker_0, # of connection points: 2
#     Edge 99, Type (0, 0), BuildingBlock: OJICUG_clean_linker_0, # of connection points: 2
#     Edge 100, Type (0, 0), BuildingBlock: OJICUG_clean_linker_0, # of connection points: 2
#     Edge 101, Type (0, 0), BuildingBlock: OJICUG_clean_linker_0, # of connection points: 2
#     Edge 102, Type (0, 0), BuildingBlock: OJICUG_clean_linker_0, # of connection points: 2
#     Edge 103, Type (0, 0), BuildingBlock: OJICUG_clean_linker_0, # of connection points: 2
#     Edge 104, Type (0, 0), BuildingBlock: OJICUG_clean_linker_0, # of connection points: 2
#     Edge 105, Type (0, 0), BuildingBlock: OJICUG_clean_linker_0, # of connection points: 2
#     Edge 106, Type (0, 0), BuildingBlock: OJICUG_clean_linker_0, # of connection points: 2
#     Edge 107, Type (0, 0), BuildingBlock: OJICUG_clean_linker_0, # of connection points: 2
# Relax obj value: 0.049
# Max RMSD: 0.075
# Mean RMSD: 0.075
data_MOF--net-cha--node1-QUQFOY_clean_sbu_1--edge1-OJICUG_clean_linker_0
_symmetry_space_group_name_H-M    P1
_symmetry_Int_Tables_number       1
_symmetry_cell_setting            triclinic
loop_
_symmetry_equiv_pos_as_xyz
'x, y, z'
_cell_length_a     47.031815
_cell_length_b     47.065493
_cell_length_c     60.733148
_cell_angle_alpha  89.984561
_cell_angle_beta   90.002377
_cell_angle_gamma 119.96995
loop_
_atom_site_label
_atom_site_type_symbol
_atom_site_fract_x
_atom_site_fract_y
_atom_site_fract_z
_atom_type_partial_charge
O0 O 0.03742 0.27116 0.07583 0.0
Cd1 Cd 0.03887 0.25993 0.10855 0.0
Cd2 Cd 0.00986 0.29656 0.11025 0.0
O3 O 0.0256 0.31084 0.07807 0.0
O4 O 0.06282 0.23501 0.10629 0.0
O5 O 0.08286 0.2815 0.12454 0.0
C6 C 0.08646 0.25759 0.11754 0.0
C7 C 0.02227 0.32916 0.14155 0.0
C8 C 0.03318 0.29301 0.06656 0.0
C9 C 0.96786 0.22535 0.1201 0.0
O10 O 0.96818 0.2512 0.11364 0.0
O11 O 0.99463 0.225 0.12192 0.0
O12 O 1.00221 0.32872 0.12682 0.0
O13 O 0.03751 0.31322 0.13746 0.0
O14 O 0.79824 0.79922 0.07582 0.0
Cd15 Cd 0.81026 0.81148 0.10852 0.0
Cd16 Cd 0.77376 0.74568 0.10989 0.0
O17 O 0.75931 0.74743 0.07782 0.0
O18 O 0.83538 0.86031 0.10642 0.0
O19 O 0.78919 0.83396 0.12504 0.0
C20 C 0.81308 0.86143 0.11799 0.0
C21 C 0.74134 0.72565 0.14129 0.0
C22 C 0.77656 0.77316 0.06646 0.0
C23 C 0.84507 0.77486 0.1194 0.0
O24 O 0.81914 0.74931 0.11306 0.0
O25 O 0.84542 0.80194 0.12129 0.0
O26 O 0.74159 0.70597 0.12654 0.0
O27 O 0.75739 0.7568 0.13718 0.0
O28 O 0.27071 0.03233 0.0758 0.0
Cd29 Cd 0.25847 0.03153 0.10857 0.0
Cd30 Cd 0.32412 0.06039 0.10999 0.0
O31 O 0.32232 0.04441 0.07784 0.0
O32 O 0.20959 0.00768 0.10661 0.0
O33 O 0.23625 0.98783 0.12487 0.0
C34 C 0.20867 0.9842 0.11798 0.0
C35 C 0.34413 0.04777 0.1413 0.0
C36 C 0.29673 0.03651 0.06644 0.0
C37 C 0.29521 0.10267 0.11983 0.0
O38 O 0.32068 0.1022 0.11335 0.0
O39 O 0.26806 0.076 0.12169 0.0
O40 O 0.36384 0.0677 0.12656 0.0
O41 O 0.31295 0.03277 0.13722 0.0
O42 O 0.27257 0.03606 0.96146 0.0
Cd43 Cd 0.26114 0.03689 0.92869 0.0
Cd44 Cd 0.29794 0.00802 0.92726 0.0
O45 O 0.3121 0.02398 0.95941 0.0
O46 O 0.23612 0.06075 0.93065 0.0
O47 O 0.28264 0.0806 0.9124 0.0
C48 C 0.25869 0.08424 0.91929 0.0
C49 C 0.3306 0.02061 0.89597 0.0
C50 C 0.29441 0.03187 0.97082 0.0
C51 C 0.22675 0.96576 0.91741 0.0
O52 O 0.25269 0.96622 0.92389 0.0
O53 O 0.22627 0.99244 0.91555 0.0
O54 O 0.33034 1.00067 0.91072 0.0
O55 O 0.31444 0.03564 0.90003 0.0
O56 O 0.03319 0.2692 0.9616 0.0
Cd57 Cd 0.03297 0.25693 0.9289 0.0
Cd58 Cd 0.06226 0.32274 0.92752 0.0
O59 O 0.04605 0.32099 0.95959 0.0
O60 O 0.00926 0.2081 0.93101 0.0
O61 O 0.98942 0.23444 0.91238 0.0
C62 C 0.98584 0.20698 0.91944 0.0
C63 C 0.04989 0.34276 0.89611 0.0
C64 C 0.03757 0.29527 0.97096 0.0
C65 C 0.1044 0.29355 0.91803 0.0
O66 O 0.104 0.3191 0.92436 0.0
O67 O 0.07767 0.26646 0.91615 0.0
O68 O 0.06981 0.36244 0.91086 0.0
O69 O 0.03478 0.3116 0.90022 0.0
O70 O 0.80052 0.79726 0.96158 0.0
Cd71 Cd 0.81317 0.80852 0.92885 0.0
Cd72 Cd 0.74754 0.77189 0.92717 0.0
O73 O 0.74903 0.75761 0.95935 0.0
O74 O 0.86203 0.83344 0.93109 0.0
O75 O 0.83558 0.78696 0.91283 0.0
C76 C 0.86308 0.81087 0.91982 0.0
C77 C 0.72741 0.7393 0.89587 0.0
C78 C 0.77444 0.77542 0.97085 0.0
C79 C 0.77671 0.84311 0.91735 0.0
O80 O 0.75118 0.81724 0.92381 0.0
O81 O 0.80382 0.84346 0.91552 0.0
O82 O 0.70776 0.73972 0.91059 0.0
O83 O 0.75859 0.75528 0.89997 0.0
O84 O 0.03477 0.79733 0.96158 0.0
Cd85 Cd 0.03337 0.80856 0.92884 0.0
Cd86 Cd 0.06238 0.77194 0.92719 0.0
O87 O 0.04661 0.75767 0.95937 0.0
O88 O 0.00943 0.83348 0.93107 0.0
O89 O 0.9894 0.78699 0.91283 0.0
C90 C 0.9858 0.8109 0.91981 0.0
C91 C 0.04994 0.73934 0.89589 0.0
C92 C 0.039 0.77549 0.97086 0.0
C93 C 0.1044 0.84313 0.91733 0.0
O94 O 0.10407 0.81728 0.92381 0.0
O95 O 0.07764 0.84348 0.91549 0.0
O96 O 0.06999 0.73975 0.91062 0.0
O97 O 0.03472 0.7553 0.89998 0.0
O98 O 0.27393 0.26918 0.9615 0.0
Cd99 Cd 0.26187 0.25692 0.9288 0.0
Cd100 Cd 0.29838 0.32271 0.92742 0.0
O101 O 0.31286 0.32097 0.95949 0.0
O102 O 0.23676 0.20808 0.93091 0.0
O103 O 0.28293 0.23444 0.91227 0.0
C104 C 0.25906 0.20697 0.91934 0.0
C105 C 0.33076 0.34272 0.896 0.0
C106 C 0.29562 0.29524 0.97085 0.0
C107 C 0.22705 0.29354 0.91796 0.0
O108 O 0.253 0.31908 0.92428 0.0
O109 O 0.22669 0.26645 0.91607 0.0
O110 O 0.33053 0.36241 0.91076 0.0
O111 O 0.31471 0.31157 0.90012 0.0
O112 O 0.80148 0.03609 0.9616 0.0
Cd113 Cd 0.81373 0.03689 0.92883 0.0
Cd114 Cd 0.74807 0.00801 0.92742 0.0
O115 O 0.74988 0.02399 0.95956 0.0
O116 O 0.86261 0.06076 0.93078 0.0
O117 O 0.83592 0.0806 0.91253 0.0
C118 C 0.86351 0.08424 0.91941 0.0
C119 C 0.72804 0.0206 0.8961 0.0
C120 C 0.77547 0.03191 0.97096 0.0
C121 C 0.77699 0.96575 0.91756 0.0
O122 O 0.75152 0.96621 0.92405 0.0
O123 O 0.80414 0.99243 0.9157 0.0
O124 O 0.70834 1.00067 0.91085 0.0
O125 O 0.75922 0.03562 0.90018 0.0
O126 O 0.79969 0.03242 0.07594 0.0
Cd127 Cd 0.81112 0.03158 0.1087 0.0
Cd128 Cd 0.77433 0.06045 0.11014 0.0
O129 O 0.76015 0.04448 0.078 0.0
O130 O 0.83612 0.0077 0.10673 0.0
O131 O 0.7896 0.98786 0.12498 0.0
C132 C 0.81354 0.98421 0.11809 0.0
C133 C 0.7417 0.04786 0.14145 0.0
C134 C 0.77784 0.0366 0.06658 0.0
C135 C 0.84552 0.1027 0.11999 0.0
O136 O 0.81959 0.10225 0.11351 0.0
O137 O 0.846 0.07603 0.12185 0.0
O138 O 0.74195 0.0678 0.1267 0.0
O139 O 0.75786 0.03283 0.13738 0.0
O140 O 0.03891 0.79931 0.07582 0.0
Cd141 Cd 0.03916 0.81156 0.10852 0.0
Cd142 Cd 0.00994 0.7458 0.10991 0.0
O143 O 0.02615 0.74754 0.07784 0.0
O144 O 0.06287 0.8604 0.10643 0.0
O145 O 0.08272 0.83403 0.12503 0.0
C146 C 0.0863 0.8615 0.11798 0.0
C147 C 0.02237 0.72584 0.14132 0.0
C148 C 0.03457 0.77325 0.06646 0.0
C149 C 0.96775 0.77491 0.1194 0.0
O150 O 0.96817 0.74939 0.11306 0.0
O151 O 0.99447 0.80201 0.1213 0.0
O152 O 1.00246 0.70613 0.12658 0.0
O153 O 0.03744 0.75699 0.1372 0.0
O154 O 0.27173 0.27116 0.07573 0.0
Cd155 Cd 0.25907 0.25992 0.10846 0.0
Cd156 Cd 0.32471 0.29654 0.11014 0.0
O157 O 0.32322 0.31083 0.07796 0.0
O158 O 0.21022 0.23501 0.10622 0.0
O159 O 0.23668 0.28149 0.12448 0.0
C160 C 0.20917 0.25759 0.11749 0.0
C161 C 0.34488 0.32911 0.14145 0.0
C162 C 0.29781 0.29301 0.06646 0.0
C163 C 0.29552 0.22533 0.11997 0.0
O164 O 0.32104 0.25118 0.1135 0.0
O165 O 0.26841 0.22499 0.12181 0.0
O166 O 0.36451 0.32869 0.12672 0.0
O167 O 0.31369 0.31316 0.13735 0.0
O168 O 0.70403 0.60447 0.409 0.0
Cd169 Cd 0.70552 0.59331 0.44173 0.0
Cd170 Cd 0.67652 0.62993 0.44341 0.0
O171 O 0.69225 0.64418 0.41122 0.0
O172 O 0.72951 0.56844 0.43951 0.0
O173 O 0.74952 0.61496 0.45771 0.0
C174 C 0.75314 0.59106 0.45074 0.0
C175 C 0.68898 0.66253 0.47471 0.0
C176 C 0.6998 0.62632 0.39972 0.0
C177 C 0.63452 0.55874 0.4533 0.0
O178 O 0.63484 0.58458 0.44681 0.0
O179 O 0.66129 0.5584 0.45513 0.0
O180 O 0.66891 0.66211 0.45999 0.0
O181 O 0.7042 0.64657 0.47061 0.0
O182 O 0.46462 0.1325 0.4092 0.0
Cd183 Cd 0.47681 0.14482 0.44188 0.0
Cd184 Cd 0.44041 0.07895 0.44326 0.0
O185 O 0.42587 0.08064 0.41121 0.0
O186 O 0.50193 0.19364 0.4397 0.0
O187 O 0.45584 0.16737 0.45843 0.0
C188 C 0.47969 0.19481 0.45131 0.0
C189 C 0.40805 0.05888 0.47468 0.0
C190 C 0.44299 0.10641 0.39985 0.0
C191 C 0.51177 0.10828 0.45268 0.0
O192 O 0.48584 0.08269 0.4464 0.0
O193 O 0.51207 0.13535 0.45455 0.0
O194 O 0.40832 0.03922 0.45993 0.0
O195 O 0.42404 0.09004 0.47057 0.0
O196 O 0.93742 0.36604 0.40924 0.0
Cd197 Cd 0.92517 0.36521 0.44201 0.0
Cd198 Cd 0.99079 0.394 0.44346 0.0
O199 O 0.98899 0.37802 0.41131 0.0
O200 O 0.87628 0.34134 0.44006 0.0
O201 O 0.90297 0.32151 0.45831 0.0
C202 C 0.87538 0.31786 0.45144 0.0
C203 C 0.0108 0.38135 0.47476 0.0
C204 C 0.96343 0.37018 0.39989 0.0
C205 C 0.96194 0.43633 0.45329 0.0
O206 O 0.9874 0.43583 0.44682 0.0
O207 O 0.93477 0.40967 0.45515 0.0
O208 O 0.0305 0.40128 0.46002 0.0
O209 O 0.97962 0.36636 0.47068 0.0
O210 O 0.93929 0.36963 0.2949 0.0
Cd211 Cd 0.92782 0.37037 0.26213 0.0
Cd212 Cd 0.9646 0.34148 0.26074 0.0
O213 O 0.97877 0.35749 0.29288 0.0
O214 O 0.90283 0.39426 0.26406 0.0
O215 O 0.94933 0.41406 0.2458 0.0
C216 C 0.9254 0.41772 0.25268 0.0
C217 C 0.99723 0.35405 0.22943 0.0
C218 C 0.96111 0.36544 0.30427 0.0
C219 C 0.89342 0.29922 0.2509 0.0
O220 O 0.91935 0.29968 0.25738 0.0
O221 O 0.89294 0.32589 0.24903 0.0
O222 O 0.99699 0.33413 0.24419 0.0
O223 O 0.98107 0.36908 0.2335 0.0
O224 O 0.69987 0.60246 0.29476 0.0
Cd225 Cd 0.6997 0.59021 0.26207 0.0
Cd226 Cd 0.72892 0.656 0.26068 0.0
O227 O 0.71267 0.65424 0.29275 0.0
O228 O 0.67601 0.54138 0.26416 0.0
O229 O 0.65617 0.56772 0.24551 0.0
C230 C 0.6526 0.54026 0.25258 0.0
C231 C 0.71651 0.67599 0.22927 0.0
C232 C 0.70421 0.62851 0.30412 0.0
C233 C 0.77114 0.6269 0.25123 0.0
O234 O 0.7707 0.65243 0.25755 0.0
O235 O 0.74443 0.5998 0.24934 0.0
O236 O 0.73641 0.69568 0.24403 0.0
O237 O 0.70144 0.64483 0.23338 0.0
O238 O 0.46695 0.13053 0.29501 0.0
Cd239 Cd 0.47973 0.14175 0.26229 0.0
Cd240 Cd 0.4141 0.10512 0.26053 0.0
O241 O 0.4155 0.0908 0.29271 0.0
O242 O 0.52858 0.16666 0.26463 0.0
O243 O 0.50221 0.12019 0.24636 0.0
C244 C 0.52968 0.1441 0.25338 0.0
C245 C 0.39395 0.07255 0.22921 0.0
C246 C 0.44086 0.10866 0.30425 0.0
C247 C 0.44335 0.17636 0.25071 0.0
O248 O 0.41781 0.1505 0.25716 0.0
O249 O 0.47045 0.17669 0.2489 0.0
O250 O 0.37431 0.073 0.24393 0.0
O251 O 0.42513 0.08848 0.23332 0.0
O252 O 0.70168 0.13081 0.2951 0.0
Cd253 Cd 0.70011 0.14197 0.26237 0.0
Cd254 Cd 0.72911 0.10534 0.26064 0.0
O255 O 0.71341 0.09107 0.29283 0.0
O256 O 0.67612 0.16683 0.26465 0.0
O257 O 0.65609 0.12032 0.24642 0.0
C258 C 0.65248 0.14422 0.25342 0.0
C259 C 0.71669 0.07273 0.22935 0.0
C260 C 0.70591 0.10895 0.30435 0.0
C261 C 0.77109 0.17656 0.25078 0.0
O262 O 0.77078 0.15071 0.25725 0.0
O263 O 0.74432 0.1769 0.24896 0.0
O264 O 0.73677 0.07319 0.24407 0.0
O265 O 0.70143 0.08867 0.23344 0.0
O266 O 0.9408 0.60276 0.29482 0.0
Cd267 Cd 0.92874 0.59048 0.26213 0.0
Cd268 Cd 0.9652 0.65629 0.26074 0.0
O269 O 0.97969 0.65457 0.29281 0.0
O270 O 0.90361 0.54165 0.26426 0.0
O271 O 0.94977 0.56796 0.24561 0.0
C272 C 0.92589 0.54051 0.25268 0.0
C273 C 0.99758 0.67628 0.22933 0.0
C274 C 0.96247 0.62884 0.30418 0.0
C275 C 0.89387 0.62706 0.25126 0.0
O276 O 0.9198 0.65262 0.25758 0.0
O277 O 0.89354 0.59998 0.24939 0.0
O278 O 0.99734 0.69598 0.24407 0.0
O279 O 0.98154 0.64513 0.23346 0.0
O280 O 0.46828 0.36959 0.29481 0.0
Cd281 Cd 0.48048 0.37023 0.26205 0.0
Cd282 Cd 0.41479 0.34132 0.26066 0.0
O283 O 0.41663 0.35736 0.2928 0.0
O284 O 0.52936 0.39408 0.26398 0.0
O285 O 0.50269 0.41388 0.24567 0.0
C286 C 0.53027 0.41753 0.25257 0.0
C287 C 0.39475 0.35391 0.22934 0.0
C288 C 0.44226 0.36539 0.30418 0.0
C289 C 0.44371 0.29905 0.25086 0.0
O290 O 0.41823 0.29951 0.25732 0.0
O291 O 0.47086 0.32571 0.249 0.0
O292 O 0.37506 0.33399 0.2441 0.0
O293 O 0.42593 0.36892 0.23342 0.0
O294 O 0.46649 0.36597 0.40915 0.0
Cd295 Cd 0.47784 0.36502 0.44192 0.0
Cd296 Cd 0.44101 0.39382 0.44338 0.0
O297 O 0.42686 0.37788 0.41122 0.0
O298 O 0.50282 0.34111 0.43996 0.0
O299 O 0.45626 0.32127 0.45817 0.0
C300 C 0.48021 0.31762 0.4513 0.0
C301 C 0.40835 0.3812 0.47468 0.0
C302 C 0.44462 0.37011 0.3998 0.0
C303 C 0.51219 0.4361 0.45325 0.0
O304 O 0.48626 0.43563 0.44676 0.0
O305 O 0.51268 0.40943 0.45511 0.0
O306 O 0.40861 0.40115 0.45994 0.0
O307 O 0.42452 0.36618 0.47061 0.0
O308 O 0.70592 0.13284 0.4093 0.0
Cd309 Cd 0.706 0.14512 0.44197 0.0
Cd310 Cd 0.67671 0.07929 0.44337 0.0
O311 O 0.69297 0.08103 0.41132 0.0
O312 O 0.72968 0.19395 0.43984 0.0
O313 O 0.7495 0.16766 0.45856 0.0
C314 C 0.75308 0.1951 0.45145 0.0
C315 C 0.68908 0.05927 0.47479 0.0
C316 C 0.70153 0.10677 0.39995 0.0
C317 C 0.63452 0.10846 0.45276 0.0
O318 O 0.63495 0.08291 0.44649 0.0
O319 O 0.66124 0.13557 0.45463 0.0
O320 O 0.66918 0.03959 0.46004 0.0
O321 O 0.70417 0.09043 0.47068 0.0
O322 O 0.93856 0.60481 0.40905 0.0
Cd323 Cd 0.92588 0.5936 0.44178 0.0
Cd324 Cd 0.99152 0.63021 0.44347 0.0
O325 O 0.99005 0.64449 0.41129 0.0
O326 O 0.87703 0.56866 0.43951 0.0
O327 O 0.90343 0.61515 0.45776 0.0
C328 C 0.87594 0.59123 0.45076 0.0
C329 C 0.01169 0.66279 0.47478 0.0
C330 C 0.96464 0.62665 0.39978 0.0
C331 C 0.96232 0.55902 0.45334 0.0
O332 O 0.98785 0.58485 0.44686 0.0
O333 O 0.93522 0.55869 0.45517 0.0
O334 O 0.03132 0.66237 0.46005 0.0
O335 O 0.9805 0.64686 0.47068 0.0
O336 O 0.37094 0.93777 0.74243 0.0
Cd337 Cd 0.3723 0.92653 0.77517 0.0
Cd338 Cd 0.34331 0.96318 0.7768 0.0
O339 O 0.3591 0.97743 0.74463 0.0
O340 O 0.39623 0.90159 0.77297 0.0
O341 O 0.41625 0.94809 0.7912 0.0
C342 C 0.41985 0.92417 0.78423 0.0
C343 C 0.35573 0.99579 0.80809 0.0
C344 C 0.36672 0.95961 0.73314 0.0
C345 C 0.30126 0.89199 0.78666 0.0
O346 O 0.3016 0.91785 0.78018 0.0
O347 O 0.32801 0.89163 0.7885 0.0
O348 O 0.33569 0.99538 0.79336 0.0
O349 O 0.37095 0.97981 0.80402 0.0
O350 O 0.13158 0.46593 0.74262 0.0
Cd351 Cd 0.14363 0.4782 0.77531 0.0
Cd352 Cd 0.10712 0.41241 0.7767 0.0
O353 O 0.09263 0.41415 0.74463 0.0
O354 O 0.16875 0.52703 0.77319 0.0
O355 O 0.12257 0.50071 0.79183 0.0
C356 C 0.14645 0.52816 0.78475 0.0
C357 C 0.07474 0.3924 0.80812 0.0
C358 C 0.10988 0.43987 0.73326 0.0
C359 C 0.17845 0.44159 0.78617 0.0
O360 O 0.1525 0.41604 0.77985 0.0
O361 O 0.1788 0.46868 0.78806 0.0
O362 O 0.07496 0.37272 0.79337 0.0
O363 O 0.09079 0.42356 0.804 0.0
O364 O 0.6041 0.69886 0.74249 0.0
Cd365 Cd 0.59187 0.69812 0.77526 0.0
Cd366 Cd 0.65755 0.72701 0.77665 0.0
O367 O 0.65572 0.71101 0.74451 0.0
O368 O 0.54299 0.67428 0.77331 0.0
O369 O 0.56965 0.65443 0.79159 0.0
C370 C 0.54207 0.65081 0.7847 0.0
C371 C 0.67758 0.71442 0.80796 0.0
C372 C 0.63011 0.70305 0.73312 0.0
C373 C 0.62863 0.76928 0.78649 0.0
O374 O 0.6541 0.76882 0.78001 0.0
O375 O 0.60148 0.74261 0.78836 0.0
O376 O 0.69727 0.73435 0.79321 0.0
O377 O 0.6464 0.69941 0.80389 0.0
O378 O 0.60589 0.70258 0.62816 0.0
Cd379 Cd 0.59449 0.70348 0.59539 0.0
Cd380 Cd 0.63126 0.67462 0.59393 0.0
O381 O 0.64545 0.69055 0.62608 0.0
O382 O 0.56952 0.7274 0.59737 0.0
O383 O 0.61605 0.74722 0.57913 0.0
C384 C 0.59212 0.75089 0.58602 0.0
C385 C 0.66391 0.68725 0.56262 0.0
C386 C 0.62774 0.6984 0.6375 0.0
C387 C 0.56008 0.63238 0.58408 0.0
O388 O 0.586 0.63282 0.59055 0.0
O389 O 0.55961 0.65906 0.58223 0.0
O390 O 0.66365 0.66729 0.57735 0.0
O391 O 0.64775 0.70227 0.56671 0.0
O392 O 0.36682 0.93577 0.62818 0.0
Cd393 Cd 0.36654 0.92351 0.59548 0.0
Cd394 Cd 0.39573 0.98926 0.59408 0.0
O395 O 0.37952 0.98751 0.62616 0.0
O396 O 0.3428 0.87468 0.59756 0.0
O397 O 0.32297 0.90108 0.57897 0.0
C398 C 0.31938 0.8736 0.58601 0.0
C399 C 0.3833 0.00924 0.56267 0.0
C400 C 0.37114 0.96182 0.63753 0.0
C401 C 0.43794 0.96016 0.58458 0.0
O402 O 0.4375 0.98569 0.59092 0.0
O403 O 0.41122 0.93306 0.58269 0.0
O404 O 0.40321 0.02894 0.57742 0.0
O405 O 0.36823 0.97808 0.56679 0.0
O406 O 0.13378 0.46396 0.62839 0.0
Cd407 Cd 0.14645 0.4752 0.59566 0.0
Cd408 Cd 0.0808 0.4386 0.59398 0.0
O409 O 0.08229 0.42431 0.62615 0.0
O410 O 0.19531 0.50011 0.59791 0.0
O411 O 0.16886 0.45363 0.57965 0.0
C412 C 0.19636 0.47754 0.58664 0.0
C413 C 0.06063 0.40603 0.56267 0.0
C414 C 0.1077 0.44212 0.63766 0.0
C415 C 0.11002 0.50981 0.58413 0.0
O416 O 0.08449 0.48397 0.59061 0.0
O417 O 0.13712 0.51014 0.5823 0.0
O418 O 0.041 0.40646 0.5774 0.0
O419 O 0.09182 0.42197 0.56677 0.0
O420 O 0.36814 0.46401 0.6283 0.0
Cd421 Cd 0.36668 0.47524 0.59557 0.0
Cd422 Cd 0.39567 0.43858 0.59387 0.0
O423 O 0.37992 0.42431 0.62606 0.0
O424 O 0.34274 0.50015 0.59783 0.0
O425 O 0.32269 0.45365 0.57959 0.0
C426 C 0.3191 0.47757 0.58658 0.0
C427 C 0.38325 0.40598 0.56257 0.0
C428 C 0.37236 0.44215 0.63757 0.0
C429 C 0.43769 0.50978 0.58401 0.0
O430 O 0.43736 0.48393 0.59049 0.0
O431 O 0.41093 0.51014 0.58219 0.0
O432 O 0.4033 0.40641 0.5773 0.0
O433 O 0.36801 0.42194 0.56666 0.0
O434 O 0.60742 0.93592 0.62822 0.0
Cd435 Cd 0.59544 0.92365 0.59552 0.0
Cd436 Cd 0.63193 0.98945 0.59416 0.0
O437 O 0.64638 0.9877 0.62623 0.0
O438 O 0.57031 0.87482 0.59764 0.0
O439 O 0.61652 0.90115 0.57903 0.0
C440 C 0.59262 0.87369 0.58608 0.0
C441 C 0.66433 0.00953 0.56276 0.0
C442 C 0.62911 0.96197 0.63759 0.0
C443 C 0.56062 0.96025 0.58463 0.0
O444 O 0.58655 0.98579 0.59099 0.0
O445 O 0.56029 0.93318 0.58273 0.0
O446 O 0.66408 0.02918 0.57752 0.0
O447 O 0.64831 0.97837 0.56686 0.0
O448 O 0.13491 0.70287 0.62818 0.0
Cd449 Cd 0.14715 0.70363 0.59541 0.0
Cd450 Cd 0.0815 0.67481 0.59399 0.0
O451 O 0.08331 0.69079 0.62613 0.0
O452 O 0.19603 0.72746 0.59737 0.0
O453 O 0.16939 0.74733 0.5791 0.0
C454 C 0.19697 0.75094 0.58599 0.0
C455 C 0.06151 0.68746 0.56268 0.0
C456 C 0.1089 0.6987 0.63754 0.0
C457 C 0.11037 0.63249 0.58417 0.0
O458 O 0.08491 0.63298 0.59063 0.0
O459 O 0.13753 0.65915 0.58231 0.0
O460 O 0.04179 0.66753 0.57742 0.0
O461 O 0.09269 0.70244 0.56677 0.0
O462 O 0.13303 0.69912 0.74252 0.0
Cd463 Cd 0.14445 0.69828 0.77529 0.0
Cd464 Cd 0.10768 0.72717 0.77671 0.0
O465 O 0.09352 0.71122 0.74456 0.0
O466 O 0.16944 0.67439 0.77334 0.0
O467 O 0.12292 0.65457 0.79159 0.0
C468 C 0.14686 0.65091 0.78471 0.0
C469 C 0.07502 0.71455 0.80801 0.0
C470 C 0.11121 0.70332 0.73316 0.0
C471 C 0.17886 0.7694 0.78657 0.0
O472 O 0.15294 0.76896 0.78009 0.0
O473 O 0.17933 0.74272 0.78843 0.0
O474 O 0.07528 0.73451 0.79326 0.0
O475 O 0.09118 0.69953 0.80393 0.0
O476 O 0.37231 0.46595 0.74253 0.0
Cd477 Cd 0.37253 0.4782 0.77523 0.0
Cd478 Cd 0.34324 0.41241 0.77661 0.0
O479 O 0.35946 0.41416 0.74454 0.0
O480 O 0.39626 0.52704 0.77313 0.0
O481 O 0.41608 0.50066 0.79176 0.0
C482 C 0.41968 0.52813 0.7847 0.0
C483 C 0.35561 0.39238 0.80802 0.0
C484 C 0.36794 0.43988 0.73317 0.0
C485 C 0.3011 0.44159 0.7861 0.0
O486 O 0.3015 0.41605 0.77977 0.0
O487 O 0.32783 0.46868 0.78799 0.0
O488 O 0.3357 0.3727 0.79326 0.0
O489 O 0.37072 0.42354 0.80391 0.0
O490 O 0.60512 0.93783 0.74247 0.0
Cd491 Cd 0.59247 0.92654 0.77519 0.0
Cd492 Cd 0.65811 0.96316 0.77687 0.0
O493 O 0.65663 0.97746 0.7447 0.0
O494 O 0.54361 0.90162 0.77295 0.0
O495 O 0.57006 0.94808 0.79123 0.0
C496 C 0.54256 0.92418 0.78424 0.0
C497 C 0.67823 0.99573 0.80819 0.0
C498 C 0.63121 0.95967 0.7332 0.0
C499 C 0.62893 0.89194 0.78668 0.0
O500 O 0.65446 0.9178 0.78023 0.0
O501 O 0.60182 0.89159 0.7885 0.0
O502 O 0.69788 0.99532 0.79347 0.0
O503 O 0.64705 0.97976 0.80408 0.0
C504 C 0.11855 0.22871 0.1142 0.0
C505 C 0.11726 0.25667 0.12074 0.0
H506 H 0.14828 0.207 0.10835 0.0
C507 C 0.14615 0.28414 0.12843 0.0
H508 H 0.09675 0.207 0.10837 0.0
C509 C 0.17603 0.28414 0.12842 0.0
C510 C 0.17745 0.25667 0.12071 0.0
H511 H 0.14596 0.30606 0.13359 0.0
H512 H 0.19816 0.30606 0.13357 0.0
C513 C 0.14819 0.22871 0.11419 0.0
C514 C 0.84241 0.95208 0.11501 0.0
C515 C 0.81442 0.95343 0.12145 0.0
H516 H 0.864 0.92224 0.10918 0.0
C517 C 0.78685 0.92459 0.1291 0.0
H518 H 0.8642 0.97384 0.10922 0.0
C519 C 0.78674 0.89468 0.12908 0.0
C520 C 0.8142 0.89318 0.12141 0.0
H521 H 0.76491 0.92485 0.13419 0.0
H522 H 0.76472 0.87259 0.13416 0.0
C523 C 0.8423 0.9224 0.11499 0.0
C524 C 0.1459 0.89471 0.12904 0.0
C525 C 0.11695 0.89324 0.12138 0.0
H526 H 0.19791 0.92484 0.13411 0.0
C527 C 0.11809 0.92246 0.11495 0.0
H528 H 0.14581 0.87261 0.13412 0.0
C529 C 0.14767 0.95213 0.11495 0.0
C530 C 0.17701 0.95345 0.12137 0.0
H531 H 0.09623 0.92233 0.10916 0.0
H532 H 0.14765 0.97389 0.10915 0.0
C533 C 0.17572 0.92461 0.12903 0.0
C534 C 0.22978 0.11634 0.92235 0.0
C535 C 0.25778 0.115 0.91591 0.0
H536 H 0.20816 0.14615 0.92816 0.0
C537 C 0.28533 0.14384 0.90825 0.0
H538 H 0.20801 0.09458 0.92815 0.0
C539 C 0.28542 0.17374 0.90825 0.0
C540 C 0.25796 0.17523 0.91592 0.0
H541 H 0.30728 0.1436 0.90316 0.0
H542 H 0.30743 0.19584 0.90317 0.0
C543 C 0.22987 0.146 0.92236 0.0
C544 C 0.92625 0.17374 0.90837 0.0
C545 C 0.9552 0.17523 0.91604 0.0
H546 H 0.87425 0.14359 0.90328 0.0
C547 C 0.95408 0.14602 0.92247 0.0
H548 H 0.92633 0.19584 0.90329 0.0
C549 C 0.92451 0.11634 0.92247 0.0
C550 C 0.89517 0.115 0.91603 0.0
H551 H 0.97594 0.14617 0.92827 0.0
H552 H 0.92454 0.09459 0.92827 0.0
C553 C 0.89644 0.14384 0.90837 0.0
C554 C 0.92406 0.83978 0.9231 0.0
C555 C 0.8948 0.8118 0.91659 0.0
H556 H 0.9755 0.8615 0.92893 0.0
C557 C 0.89623 0.78433 0.90891 0.0
H558 H 0.92397 0.86149 0.92893 0.0
C559 C 0.92611 0.78434 0.90891 0.0
C560 C 0.955 0.81181 0.91659 0.0
H561 H 0.8741 0.7624 0.90377 0.0
H562 H 0.92631 0.76241 0.90376 0.0
C563 C 0.95371 0.83979 0.9231 0.0
C564 C 0.81284 0.61769 0.46164 0.0
C565 C 0.78397 0.59019 0.45396 0.0
H566 H 0.86485 0.63968 0.46679 0.0
C567 C 0.7853 0.56224 0.44744 0.0
H568 H 0.81261 0.6396 0.46678 0.0
C569 C 0.81497 0.56228 0.44744 0.0
C570 C 0.8442 0.59028 0.45397 0.0
H571 H 0.76352 0.54051 0.44161 0.0
H572 H 0.81508 0.54059 0.44162 0.0
C573 C 0.84274 0.61773 0.46164 0.0
C574 C 0.50904 0.28545 0.44821 0.0
C575 C 0.48108 0.28684 0.45467 0.0
H576 H 0.5306 0.25559 0.4424 0.0
C577 C 0.45352 0.25803 0.46237 0.0
H578 H 0.53082 0.30719 0.44239 0.0
C579 C 0.4534 0.22811 0.46239 0.0
C580 C 0.48083 0.22658 0.45469 0.0
H581 H 0.4316 0.25831 0.46748 0.0
H582 H 0.43139 0.20603 0.4675 0.0
C583 C 0.50892 0.25577 0.44822 0.0
C584 C 0.84246 0.25829 0.46253 0.0
C585 C 0.84373 0.2871 0.45483 0.0
H586 H 0.81258 0.2063 0.46766 0.0
C587 C 0.81438 0.28574 0.44837 0.0
H588 H 0.86465 0.25855 0.46763 0.0
C589 C 0.78481 0.25606 0.44838 0.0
C590 C 0.7837 0.22686 0.45485 0.0
H591 H 0.81435 0.30748 0.44255 0.0
H592 H 0.76296 0.2559 0.44256 0.0
C593 C 0.81265 0.22838 0.46255 0.0
C594 C 0.89653 0.44986 0.25571 0.0
C595 C 0.92452 0.44849 0.24928 0.0
H596 H 0.87495 0.47971 0.26151 0.0
C597 C 0.95209 0.47732 0.24162 0.0
H598 H 0.87475 0.42811 0.26151 0.0
C599 C 0.95221 0.50723 0.24161 0.0
C600 C 0.92476 0.50875 0.24928 0.0
H601 H 0.97403 0.47705 0.23654 0.0
H602 H 0.97423 0.52932 0.23653 0.0
C603 C 0.89665 0.47954 0.25571 0.0
C604 C 0.62085 0.47929 0.2556 0.0
C605 C 0.62197 0.50851 0.24916 0.0
H606 H 0.5913 0.42787 0.2614 0.0
C607 C 0.59302 0.50701 0.24148 0.0
H608 H 0.6427 0.47944 0.2614 0.0
C609 C 0.56321 0.47711 0.24149 0.0
C610 C 0.56193 0.44828 0.24917 0.0
H611 H 0.5931 0.52911 0.23639 0.0
H612 H 0.54102 0.47687 0.2364 0.0
C613 C 0.59127 0.44962 0.2556 0.0
C614 C 0.59065 0.17299 0.25679 0.0
C615 C 0.56142 0.14503 0.25021 0.0
H616 H 0.64207 0.19472 0.26267 0.0
C617 C 0.56289 0.1176 0.24249 0.0
H618 H 0.59052 0.19467 0.26265 0.0
C619 C 0.59278 0.11763 0.2425 0.0
C620 C 0.62164 0.14509 0.25023 0.0
H621 H 0.54079 0.09568 0.2373 0.0
H622 H 0.59302 0.09574 0.23732 0.0
C623 C 0.62031 0.17303 0.2568 0.0
C624 C 0.47953 0.95072 0.79515 0.0
C625 C 0.45065 0.92325 0.78747 0.0
H626 H 0.53154 0.97266 0.80029 0.0
C627 C 0.45193 0.89527 0.78095 0.0
H628 H 0.47933 0.97265 0.80029 0.0
C629 C 0.48158 0.89527 0.78096 0.0
C630 C 0.51084 0.92325 0.78747 0.0
H631 H 0.43014 0.87356 0.77513 0.0
H632 H 0.48167 0.87356 0.77513 0.0
C633 C 0.50942 0.95072 0.79515 0.0
C634 C 0.17566 0.58913 0.7817 0.0
C635 C 0.14756 0.55992 0.78814 0.0
H636 H 0.19753 0.64055 0.77588 0.0
C637 C 0.1201 0.56142 0.7958 0.0
H638 H 0.19736 0.58897 0.77591 0.0
C639 C 0.12019 0.59133 0.79577 0.0
C640 C 0.14775 0.62015 0.7881 0.0
H641 H 0.09808 0.53933 0.80088 0.0
H642 H 0.09825 0.59158 0.80085 0.0
C643 C 0.17575 0.6188 0.78168 0.0
C644 C 0.45148 0.5891 0.78167 0.0
C645 C 0.45033 0.55987 0.7881 0.0
H646 H 0.48106 0.64052 0.77587 0.0
C647 C 0.47927 0.56133 0.79577 0.0
H648 H 0.42963 0.58897 0.77587 0.0
C649 C 0.5091 0.59122 0.79576 0.0
C650 C 0.5104 0.62007 0.78809 0.0
H651 H 0.47918 0.53923 0.80085 0.0
H652 H 0.53128 0.59144 0.80084 0.0
C653 C 0.48106 0.61875 0.78167 0.0
C654 C 0.61883 0.8105 0.57501 0.0
C655 C 0.59125 0.78167 0.58266 0.0
H656 H 0.64098 0.86251 0.56994 0.0
C657 C 0.56327 0.78304 0.58909 0.0
H658 H 0.64077 0.81024 0.56992 0.0
C659 C 0.56339 0.81272 0.58911 0.0
C660 C 0.5915 0.84193 0.58268 0.0
H661 H 0.54148 0.76129 0.59488 0.0
H662 H 0.54169 0.81289 0.5949 0.0
C663 C 0.61895 0.84042 0.57501 0.0
C664 C 0.22995 0.81054 0.57495 0.0
C665 C 0.22864 0.78168 0.5826 0.0
H666 H 0.25988 0.86253 0.56987 0.0
C667 C 0.25797 0.78298 0.58902 0.0
H668 H 0.20777 0.81032 0.56987 0.0
C669 C 0.28756 0.81263 0.58902 0.0
C670 C 0.28872 0.84187 0.5826 0.0
H671 H 0.25797 0.76121 0.59481 0.0
H672 H 0.30941 0.81275 0.59482 0.0
C673 C 0.25978 0.84042 0.57494 0.0
C674 C 0.28699 0.50644 0.58993 0.0
C675 C 0.28828 0.47848 0.58339 0.0
H676 H 0.25725 0.52813 0.59579 0.0
C677 C 0.2594 0.45101 0.5757 0.0
H678 H 0.30878 0.52814 0.59576 0.0
C679 C 0.22951 0.451 0.57571 0.0
C680 C 0.22809 0.47846 0.58342 0.0
H681 H 0.2596 0.42909 0.57053 0.0
H682 H 0.20739 0.42908 0.57056 0.0
C683 C 0.25734 0.50643 0.58995 0.0
C684 C 0.00777 0.36129 0.16764 0.0
C685 C 0.02359 0.3431 0.16371 0.0
H686 H 0.9877 0.37977 0.19161 0.0
C687 C 0.03586 0.33386 0.18178 0.0
H688 H 0.9982 0.36897 0.15409 0.0
C689 C 0.02956 0.33979 0.20334 0.0
C690 C 0.0112 0.35542 0.20727 0.0
H691 H 0.04821 0.31989 0.17937 0.0
H692 H 0.03735 0.33032 0.21689 0.0
C693 C 1.00181 0.36755 0.18919 0.0
C694 C 0.73679 0.73464 0.18152 0.0
C695 C 0.72748 0.71309 0.16348 0.0
H696 H 0.74038 0.73977 0.21661 0.0
C697 C 0.70926 0.67913 0.16746 0.0
H698 H 0.75079 0.76094 0.17906 0.0
C699 C 0.70301 0.66697 0.18903 0.0
C700 C 0.71519 0.68853 0.20707 0.0
H701 H 0.70152 0.66185 0.15394 0.0
H702 H 0.69076 0.64068 0.19149 0.0
C703 C 0.73088 0.72248 0.20309 0.0
C704 C 0.39068 0.06198 0.16743 0.0
C705 C 0.35669 0.04637 0.16348 0.0
H706 H 0.4292 0.08184 0.19142 0.0
C707 C 0.33515 0.03423 0.18154 0.0
H708 H 0.40795 0.07145 0.15388 0.0
C709 C 0.34735 0.04047 0.2031 0.0
C710 C 0.38134 0.05864 0.20705 0.0
H711 H 0.30884 0.02203 0.1791 0.0
H712 H 0.33008 0.03279 0.21664 0.0
C713 C 0.40288 0.06788 0.18899 0.0
C714 C 0.33523 0.03416 0.85573 0.0
C715 C 0.34459 0.022 0.87381 0.0
H716 H 0.33166 0.03561 0.82063 0.0
C717 C 0.36295 0.00637 0.86988 0.0
H718 H 0.32113 0.04637 0.85815 0.0
C719 C 0.36928 1.00046 0.84833 0.0
C720 C 0.35703 0.00972 0.83025 0.0
H721 H 0.37073 0.99689 0.88343 0.0
H722 H 0.38163 0.98648 0.84592 0.0
C723 C 0.34122 0.02791 0.83418 0.0
C724 C 0.07023 0.40142 0.84835 0.0
C725 C 0.06088 0.37986 0.83031 0.0
H726 H 0.07384 0.40655 0.88345 0.0
C727 C 0.04263 0.34591 0.8343 0.0
H728 H 0.08425 0.42771 0.84589 0.0
C729 C 0.03638 0.33375 0.85587 0.0
C730 C 0.04859 0.3553 0.87391 0.0
H731 H 0.03487 0.32862 0.82078 0.0
H732 H 0.0241 0.30746 0.85833 0.0
C733 C 0.06431 0.38926 0.86992 0.0
C734 C 0.72414 0.72869 0.83409 0.0
C735 C 0.69015 0.71305 0.83014 0.0
H736 H 0.76267 0.7486 0.85807 0.0
C737 C 0.66862 0.7009 0.8482 0.0
H738 H 0.74141 0.73816 0.82054 0.0
C739 C 0.68082 0.70717 0.86976 0.0
C740 C 0.71482 0.72536 0.87371 0.0
H741 H 0.6423 0.68868 0.84577 0.0
H742 H 0.66355 0.69947 0.8833 0.0
C743 C 0.73635 0.73462 0.85565 0.0
C744 C 0.03636 0.73468 0.85567 0.0
C745 C 0.04862 0.72541 0.87373 0.0
H746 H 0.03489 0.73827 0.82056 0.0
C747 C 0.06443 0.70722 0.86979 0.0
H748 H 0.02401 0.74865 0.85809 0.0
C749 C 0.0704 0.70098 0.84823 0.0
C750 C 0.06103 0.71314 0.83017 0.0
H751 H 0.07399 0.69951 0.88334 0.0
H752 H 0.08451 0.68876 0.84581 0.0
C753 C 0.04267 0.72878 0.83411 0.0
C754 C 0.36911 0.40138 0.84825 0.0
C755 C 0.35691 0.37983 0.83021 0.0
H756 H 0.37062 0.40651 0.88335 0.0
C757 C 0.34119 0.34587 0.8342 0.0
H758 H 0.3814 0.42768 0.8458 0.0
C759 C 0.33527 0.33372 0.85577 0.0
C760 C 0.34462 0.35527 0.87381 0.0
H761 H 0.33167 0.32859 0.82067 0.0
H762 H 0.32125 0.30742 0.85823 0.0
C763 C 0.36286 0.38922 0.86983 0.0
C764 C 0.68149 0.00633 0.86997 0.0
C765 C 0.71547 0.02198 0.87393 0.0
H766 H 0.64297 0.98642 0.84598 0.0
C767 C 0.73701 0.03412 0.85587 0.0
H768 H 0.66421 0.99685 0.88351 0.0
C769 C 0.72481 0.02786 0.83431 0.0
C770 C 0.69082 0.00966 0.83035 0.0
H771 H 0.76333 0.04635 0.8583 0.0
H772 H 0.74209 0.03556 0.82077 0.0
C773 C 0.66929 1.0004 0.84841 0.0
C774 C 0.73715 0.03436 0.18169 0.0
C775 C 0.72775 0.04648 0.16362 0.0
H776 H 0.74078 0.03294 0.21679 0.0
C777 C 0.70938 0.06211 0.16756 0.0
H778 H 0.75126 0.02215 0.17927 0.0
C779 C 0.70308 0.06803 0.18912 0.0
C780 C 0.71537 0.05879 0.20719 0.0
H781 H 0.70157 0.07157 0.15401 0.0
H782 H 0.69072 0.08199 0.19154 0.0
C783 C 0.73119 0.04062 0.20325 0.0
C784 C 0.00801 0.67937 0.16753 0.0
C785 C 0.0237 0.71333 0.16352 0.0
H786 H 0.98811 0.64094 0.19157 0.0
C787 C 0.0359 0.7349 0.18155 0.0
H788 H 0.9985 0.66207 0.15401 0.0
C789 C 0.02966 0.72276 0.20313 0.0
C790 C 0.01144 0.68881 0.20713 0.0
H791 H 0.04815 0.76119 0.17908 0.0
H792 H 0.03741 0.74006 0.21665 0.0
C793 C 1.00211 0.66724 0.1891 0.0
C794 C 0.33597 0.33377 0.18168 0.0
C795 C 0.35749 0.34303 0.16361 0.0
H796 H 0.33091 0.3302 0.21678 0.0
C797 C 0.39149 0.3612 0.16755 0.0
H798 H 0.30965 0.31981 0.17925 0.0
C799 C 0.4037 0.36744 0.18911 0.0
C800 C 0.38217 0.3553 0.20718 0.0
H801 H 0.40875 0.36889 0.15401 0.0
H802 H 0.43002 0.37965 0.19153 0.0
C803 C 0.34818 0.33968 0.20323 0.0
C804 C 0.69625 0.67305 0.5365 0.0
C805 C 0.67789 0.68867 0.54045 0.0
H806 H 0.71492 0.6532 0.5125 0.0
C807 C 0.66851 0.70084 0.52239 0.0
H808 H 0.70404 0.66356 0.55004 0.0
C809 C 0.67448 0.69462 0.50083 0.0
C810 C 0.6903 0.67644 0.49688 0.0
H811 H 0.6544 0.71305 0.52483 0.0
H812 H 0.66491 0.70232 0.48729 0.0
C813 C 0.70257 0.66717 0.51494 0.0
C814 C 0.40352 0.06787 0.51492 0.0
C815 C 0.39421 0.04633 0.49688 0.0
H816 H 0.40712 0.07301 0.55001 0.0
C817 C 0.37602 0.01236 0.50087 0.0
H818 H 0.41749 0.09417 0.51246 0.0
C819 C 0.36979 1.00021 0.52244 0.0
C820 C 0.38196 0.02177 0.54048 0.0
H821 H 0.36829 0.99508 0.48734 0.0
H822 H 0.35756 0.97392 0.5249 0.0
C823 C 0.39762 0.05572 0.53649 0.0
C824 C 1.00182 0.36778 0.51499 0.0
C825 C 0.02336 0.37992 0.49693 0.0
H826 H 0.99676 0.3663 0.55009 0.0
C827 C 0.05734 0.39551 0.50088 0.0
H828 H 0.97551 0.35559 0.51256 0.0
C829 C 0.06955 0.40139 0.52244 0.0
C830 C 0.04802 0.39213 0.5405 0.0
H831 H 0.07462 0.40498 0.48734 0.0
H832 H 0.09587 0.41533 0.52487 0.0
C833 C 0.01402 0.37399 0.53655 0.0
C834 C 0.36969 0.40133 0.52234 0.0
C835 C 0.38194 0.39206 0.54041 0.0
H836 H 0.36822 0.40491 0.48724 0.0
C837 C 0.39776 0.37389 0.53647 0.0
H838 H 0.35733 0.41529 0.52476 0.0
C839 C 0.40374 0.36765 0.51491 0.0
C840 C 0.39437 0.3798 0.49685 0.0
H841 H 0.40733 0.36619 0.55002 0.0
H842 H 0.41786 0.35544 0.51249 0.0
C843 C 0.376 0.39543 0.50078 0.0
C844 C 0.69638 0.05607 0.53659 0.0
C845 C 0.67818 0.02211 0.54056 0.0
H846 H 0.71484 0.09455 0.51258 0.0
C847 C 0.66885 1.00058 0.52251 0.0
H848 H 0.70412 0.07334 0.55013 0.0
C849 C 0.67473 0.01276 0.50095 0.0
C850 C 0.69041 0.04672 0.49698 0.0
H851 H 0.65486 0.97428 0.52496 0.0
H852 H 0.66523 0.99549 0.48742 0.0
C853 C 0.7026 0.06825 0.51503 0.0
C854 C 0.05829 0.69484 0.5009 0.0
C855 C 0.02429 0.6767 0.49695 0.0
H856 H 0.0968 0.71323 0.52488 0.0
C857 C 1.00276 0.66744 0.51501 0.0
H858 H 0.07556 0.70253 0.48735 0.0
C859 C 0.01497 0.67331 0.53657 0.0
C860 C 0.04895 0.6889 0.54051 0.0
H861 H 0.97644 0.6535 0.51257 0.0
H862 H 0.99769 0.66383 0.55011 0.0
C863 C 0.07049 0.70105 0.52246 0.0
C864 C 0.03625 0.32163 0.0304 0.0
C865 C 0.03443 0.29494 0.04211 0.0
H866 H 0.03895 0.34306 0.99855 0.0
C867 C 0.03277 0.26859 0.03017 0.0
H868 H 0.03741 0.34225 0.03912 0.0
C869 C 0.033 0.26875 1.00727 0.0
C870 C 0.03536 0.29547 0.99539 0.0
H871 H 0.03096 0.24739 0.0385 0.0
H872 H 0.03181 0.24786 0.9989 0.0
C873 C 0.03702 0.32204 1.0072 0.0
C874 C 0.79853 0.79978 1.00725 0.0
C875 C 0.77379 0.77348 0.9953 0.0
H876 H 0.81833 0.82048 0.03851 0.0
C877 C 0.74886 0.74683 1.00702 0.0
H878 H 0.81796 0.82094 0.99891 0.0
C879 C 0.74922 0.74642 0.03022 0.0
C880 C 0.77417 0.77295 0.04202 0.0
H881 H 0.72936 0.72625 0.99829 0.0
H882 H 0.73009 0.72544 0.03886 0.0
C883 C 0.79859 0.79962 0.03014 0.0
C884 C 0.32245 0.0338 1.00703 0.0
C885 C 0.29655 0.03365 0.99526 0.0
H886 H 0.34319 0.03507 0.03891 0.0
C887 C 0.2711 0.03398 1.00718 0.0
H888 H 0.34237 0.03344 0.99834 0.0
C889 C 0.27126 0.03428 0.03008 0.0
C890 C 0.29708 0.03471 0.04199 0.0
H891 H 0.25057 0.03361 0.99882 0.0
H892 H 0.25106 0.03458 0.03843 0.0
C893 C 0.32287 0.03463 0.03023 0.0
C894 C 0.03918 0.79983 1.00724 0.0
C895 C 0.0377 0.77356 0.99531 0.0
H896 H 0.04 0.82051 0.0385 0.0
C897 C 0.03603 0.74693 1.00703 0.0
H898 H 0.04087 0.82097 0.9989 0.0
C899 C 0.03525 0.74653 0.03023 0.0
C900 C 0.03675 0.77303 0.04203 0.0
H901 H 0.03501 0.72638 0.99832 0.0
H902 H 0.03345 0.72558 0.03889 0.0
C903 C 0.03894 0.79968 0.03014 0.0
C904 C 0.32335 0.32161 0.03029 0.0
C905 C 0.29846 0.29493 0.04201 0.0
H906 H 0.34207 0.34301 0.99844 0.0
C907 C 0.27375 0.2686 0.03007 0.0
H908 H 0.34282 0.34221 0.03901 0.0
C909 C 0.27367 0.26875 1.00717 0.0
C910 C 0.29805 0.29546 0.99529 0.0
H911 H 0.25435 0.24742 0.03841 0.0
H912 H 0.25395 0.24788 0.99881 0.0
C913 C 0.32297 0.32201 1.00709 0.0
C914 C 0.80097 0.03418 1.00732 0.0
C915 C 0.77513 0.03372 0.99541 0.0
H916 H 0.82169 0.03489 0.03857 0.0
C917 C 0.74934 0.03379 1.00718 0.0
H918 H 0.82118 0.03389 0.99896 0.0
C919 C 0.74977 0.03463 0.03038 0.0
C920 C 0.77569 0.03481 0.04214 0.0
H921 H 0.729 0.03332 0.9985 0.0
H922 H 0.72985 0.03499 0.03906 0.0
C923 C 0.80114 0.03449 0.03022 0.0
C924 C 0.69958 0.60199 0.34044 0.0
C925 C 0.70197 0.62873 0.32855 0.0
H926 H 0.69751 0.58065 0.37168 0.0
C927 C 0.70366 0.65531 0.34034 0.0
H928 H 0.69836 0.58109 0.33208 0.0
C929 C 0.70288 0.65492 0.36354 0.0
C930 C 0.70104 0.62822 0.37527 0.0
H931 H 0.70561 0.67633 0.33169 0.0
H932 H 0.70407 0.67555 0.37226 0.0
C933 C 0.69934 0.60185 0.36334 0.0
C934 C 0.41585 0.07947 0.3636 0.0
C935 C 0.44049 0.10622 0.37541 0.0
H936 H 0.39625 0.05909 0.33166 0.0
C937 C 0.46457 0.13316 0.36354 0.0
H938 H 0.39698 0.05828 0.37224 0.0
C939 C 0.46451 0.13333 0.34065 0.0
C940 C 0.44011 0.10677 0.3287 0.0
H941 H 0.48406 0.15422 0.37192 0.0
H942 H 0.48368 0.15469 0.33231 0.0
C943 C 0.41548 0.07988 0.3404 0.0
C944 C 0.93813 0.36827 0.36352 0.0
C945 C 0.96381 0.36841 0.37545 0.0
H946 H 0.91756 0.36778 0.33226 0.0
C947 C 0.98947 0.36807 0.3637 0.0
H948 H 0.91804 0.3688 0.37186 0.0
C949 C 0.98905 0.36721 0.3405 0.0
C950 C 0.96329 0.3673 0.32872 0.0
H951 H 0.00968 0.3683 0.37239 0.0
H952 H 0.00886 0.36661 0.33183 0.0
C953 C 0.93799 0.36794 0.34062 0.0
C954 C 0.70661 0.13347 0.36364 0.0
C955 C 0.70384 0.10657 0.37552 0.0
H956 H 0.70895 0.15494 0.3324 0.0
C957 C 0.70182 0.07984 0.36372 0.0
H958 H 0.70811 0.1545 0.372 0.0
C959 C 0.70259 0.08023 0.34052 0.0
C960 C 0.70477 0.10708 0.3288 0.0
H961 H 0.69958 0.0587 0.37237 0.0
H962 H 0.70112 0.05947 0.33179 0.0
C963 C 0.70683 0.13361 0.34074 0.0
C964 C 0.99016 0.65526 0.36361 0.0
C965 C 0.96531 0.62856 0.37533 0.0
H966 H 0.00885 0.67668 0.33176 0.0
C967 C 0.94065 0.60219 0.3634 0.0
H968 H 0.0096 0.6759 0.37233 0.0
C969 C 0.94057 0.60233 0.3405 0.0
C970 C 0.96491 0.62906 0.32861 0.0
H971 H 0.92128 0.58098 0.37174 0.0
H972 H 0.92089 0.58142 0.33214 0.0
C973 C 0.98978 0.65565 0.34041 0.0
C974 C 0.41639 0.36778 0.3636 0.0
C975 C 0.44254 0.36843 0.37535 0.0
H976 H 0.39542 0.36606 0.33173 0.0
C977 C 0.46824 0.36864 0.36343 0.0
H978 H 0.39626 0.36773 0.3723 0.0
C979 C 0.46807 0.36832 0.34053 0.0
C980 C 0.44197 0.36733 0.32863 0.0
H981 H 0.48899 0.36944 0.37178 0.0
H982 H 0.48848 0.36843 0.33217 0.0
C983 C 0.41596 0.36693 0.3404 0.0
C984 C 0.36961 0.98812 0.69696 0.0
C985 C 0.36805 0.96155 0.70869 0.0
H986 H 0.37208 0.00942 0.6651 0.0
C987 C 0.3667 0.93533 0.69676 0.0
H988 H 0.37054 0.00864 0.70567 0.0
C989 C 0.36693 0.93547 0.67387 0.0
C990 C 0.36899 0.96206 0.66197 0.0
H991 H 0.36511 0.91424 0.70511 0.0
H992 H 0.36597 0.91468 0.66551 0.0
C993 C 0.37039 0.98851 0.67376 0.0
C994 C 0.13186 0.46635 0.69694 0.0
C995 C 0.10746 0.43965 0.70883 0.0
H996 H 0.15118 0.48769 0.66571 0.0
C997 C 0.08253 0.41311 0.69703 0.0
H998 H 0.15158 0.48722 0.70531 0.0
C999 C 0.08215 0.41352 0.67382 0.0
C1000 C 0.10705 0.44019 0.66211 0.0
H1001 H 0.06342 0.39212 0.70568 0.0
H1002 H 0.06267 0.39293 0.6651 0.0
C1003 C 0.13177 0.46651 0.67405 0.0
C1004 C 0.65629 0.70129 0.6969 0.0
C1005 C 0.63043 0.7012 0.70867 0.0
H1006 H 0.67585 0.70024 0.66501 0.0
C1007 C 0.6045 0.70057 0.69677 0.0
H1008 H 0.67669 0.70188 0.70557 0.0
C1009 C 0.60433 0.70027 0.67387 0.0
C1010 C 0.62987 0.70013 0.66195 0.0
H1011 H 0.58423 0.70073 0.70513 0.0
H1012 H 0.58372 0.69975 0.66553 0.0
C1013 C 0.65586 0.70045 0.6737 0.0
C1014 C 0.37253 0.46641 0.69686 0.0
C1015 C 0.37016 0.43968 0.70874 0.0
H1016 H 0.37459 0.48778 0.66562 0.0
C1017 C 0.36849 0.41311 0.69693 0.0
H1018 H 0.37373 0.48731 0.70523 0.0
C1019 C 0.36927 0.41352 0.67373 0.0
C1020 C 0.3711 0.44023 0.66202 0.0
H1021 H 0.36655 0.39209 0.70558 0.0
H1022 H 0.3681 0.3929 0.66501 0.0
C1023 C 0.37277 0.46658 0.67396 0.0
C1024 C 0.60705 0.93539 0.6968 0.0
C1025 C 0.63185 0.96163 0.70875 0.0
H1026 H 0.5872 0.91474 0.66553 0.0
C1027 C 0.65684 0.98824 0.69704 0.0
H1028 H 0.58757 0.91426 0.70513 0.0
C1029 C 0.65648 0.98866 0.67384 0.0
C1030 C 0.63148 0.96219 0.66203 0.0
H1031 H 0.67638 0.00878 0.70577 0.0
H1032 H 0.67566 0.0096 0.66519 0.0
C1033 C 0.60699 0.93556 0.6739 0.0
C1034 C 0.08316 0.70136 0.69695 0.0
C1035 C 0.10908 0.70156 0.70871 0.0
H1036 H 0.0624 0.70006 0.66507 0.0
C1037 C 0.13455 0.70128 0.6968 0.0
H1038 H 0.06321 0.70169 0.70563 0.0
C1039 C 0.1344 0.70099 0.6739 0.0
C1040 C 0.10855 0.70051 0.66198 0.0
H1041 H 0.1551 0.70169 0.70515 0.0
H1042 H 0.15462 0.70073 0.66554 0.0
C1043 C 0.08274 0.70054 0.67375 0.0
C1044 C 0.90574 0.13539 0.12837 0.0
C1045 C 0.87612 0.13449 0.12329 0.0
H1046 H 0.95788 0.16476 0.13155 0.0
C1047 C 0.87664 0.16423 0.11953 0.0
H1048 H 0.90624 0.11298 0.13149 0.0
C1049 C 0.9063 0.19397 0.11957 0.0
C1050 C 0.93613 0.19465 0.12337 0.0
H1051 H 0.85427 0.16448 0.11571 0.0
H1052 H 0.90592 0.21626 0.11578 0.0
C1053 C 0.9354 0.16513 0.12841 0.0
C1054 C 0.90618 0.74467 0.11879 0.0
C1055 C 0.93596 0.77384 0.12256 0.0
H1056 H 0.85412 0.72201 0.11503 0.0
C1057 C 0.93511 0.80258 0.12755 0.0
H1058 H 0.90589 0.72203 0.11503 0.0
C1059 C 0.90538 0.80257 0.12755 0.0
C1060 C 0.8758 0.77381 0.12256 0.0
H1061 H 0.95755 0.82546 0.13066 0.0
H1062 H 0.90578 0.82543 0.13066 0.0
C1063 C 0.87645 0.74466 0.11879 0.0
C1064 C 0.2677 0.13537 0.12823 0.0
C1065 C 0.2964 0.13446 0.12313 0.0
H1066 H 0.24492 0.16474 0.13143 0.0
C1067 C 0.32562 0.16419 0.11936 0.0
H1068 H 0.24479 0.11296 0.13136 0.0
C1069 C 0.32569 0.19394 0.11941 0.0
C1070 C 0.29655 0.19463 0.12323 0.0
H1071 H 0.34823 0.16444 0.11553 0.0
H1072 H 0.34836 0.21623 0.11561 0.0
C1073 C 0.26777 0.16511 0.12828 0.0
C1074 C 0.19563 0.90424 0.91789 0.0
C1075 C 0.19615 0.93397 0.91411 0.0
H1076 H 0.16634 0.85221 0.92167 0.0
C1077 C 0.16654 0.93308 0.90902 0.0
H1078 H 0.21799 0.90398 0.92172 0.0
C1079 C 0.13687 0.90334 0.90899 0.0
C1080 C 0.13613 0.87382 0.91405 0.0
H1081 H 0.16604 0.95548 0.90589 0.0
H1082 H 0.11439 0.90371 0.90584 0.0
C1083 C 0.16596 0.8745 0.91786 0.0
C1084 C 0.16673 0.26584 0.90987 0.0
C1085 C 0.19632 0.29459 0.91483 0.0
H1086 H 0.11455 0.24297 0.9068 0.0
C1087 C 0.1957 0.32376 0.91859 0.0
H1088 H 0.1663 0.24297 0.90676 0.0
C1089 C 0.16597 0.32376 0.9186 0.0
C1090 C 0.13618 0.2946 0.91486 0.0
H1091 H 0.21804 0.34641 0.92233 0.0
H1092 H 0.16628 0.34642 0.92236 0.0
C1093 C 0.137 0.26584 0.90988 0.0
C1094 C 0.80445 0.90333 0.90907 0.0
C1095 C 0.77567 0.8738 0.91411 0.0
H1096 H 0.82742 0.95548 0.90602 0.0
C1097 C 0.74653 0.87449 0.91794 0.0
H1098 H 0.8273 0.9037 0.90591 0.0
C1099 C 0.7466 0.90423 0.918 0.0
C1100 C 0.77582 0.93397 0.91424 0.0
H1101 H 0.72386 0.85219 0.92173 0.0
H1102 H 0.72398 0.90397 0.92184 0.0
C1103 C 0.80452 0.93307 0.90913 0.0
C1104 C 0.5724 0.4688 0.46165 0.0
C1105 C 0.54279 0.46789 0.45656 0.0
H1106 H 0.62455 0.49818 0.46481 0.0
C1107 C 0.5433 0.49762 0.45277 0.0
H1108 H 0.57291 0.4464 0.46478 0.0
C1109 C 0.57296 0.52736 0.45279 0.0
C1110 C 0.6028 0.52806 0.4566 0.0
H1111 H 0.52093 0.49787 0.44895 0.0
H1112 H 0.57258 0.54965 0.44898 0.0
C1113 C 0.60207 0.49854 0.46167 0.0
C1114 C 0.57295 0.07818 0.45216 0.0
C1115 C 0.60272 0.10739 0.45587 0.0
H1116 H 0.52088 0.05546 0.44843 0.0
C1117 C 0.60185 0.13614 0.46078 0.0
H1118 H 0.57267 0.05553 0.44846 0.0
C1119 C 0.5721 0.1361 0.46076 0.0
C1120 C 0.54253 0.1073 0.45583 0.0
H1121 H 0.62428 0.15904 0.46384 0.0
H1122 H 0.57249 0.15897 0.4638 0.0
C1123 C 0.5432 0.07814 0.45214 0.0
C1124 C 0.99238 0.49785 0.45279 0.0
C1125 C 0.96315 0.46813 0.45658 0.0
H1126 H 0.01514 0.54988 0.449 0.0
C1127 C 0.93446 0.46906 0.46168 0.0
H1128 H 0.01498 0.49808 0.44896 0.0
C1129 C 0.93456 0.49882 0.4617 0.0
C1130 C 0.96334 0.52832 0.45663 0.0
H1131 H 0.91155 0.44668 0.46482 0.0
H1132 H 0.91172 0.49847 0.46486 0.0
C1133 C 0.99247 0.5276 0.45282 0.0
C1134 C 0.83265 0.20795 0.25131 0.0
C1135 C 0.80281 0.20726 0.24751 0.0
H1136 H 0.88468 0.23745 0.25517 0.0
C1137 C 0.80354 0.23678 0.24248 0.0
H1138 H 0.83304 0.18566 0.2551 0.0
C1139 C 0.8332 0.26652 0.24252 0.0
C1140 C 0.86281 0.26743 0.2476 0.0
H1141 H 0.78105 0.23715 0.23934 0.0
H1142 H 0.83269 0.28893 0.23941 0.0
C1143 C 0.86231 0.2377 0.25135 0.0
C1144 C 0.86246 0.65722 0.25186 0.0
C1145 C 0.86312 0.62808 0.24811 0.0
H1146 H 0.83299 0.67982 0.2556 0.0
C1147 C 0.83356 0.5993 0.24312 0.0
H1148 H 0.88478 0.67988 0.25561 0.0
C1149 C 0.80382 0.59926 0.24312 0.0
C1150 C 0.80294 0.628 0.24809 0.0
H1151 H 0.83317 0.57644 0.24003 0.0
H1152 H 0.78139 0.57638 0.24001 0.0
C1153 C 0.83271 0.65718 0.25185 0.0
C1154 C 0.47122 0.26633 0.24249 0.0
C1155 C 0.44252 0.26725 0.24756 0.0
H1156 H 0.49398 0.23694 0.2393 0.0
C1157 C 0.41329 0.23752 0.25131 0.0
H1158 H 0.49414 0.28873 0.23938 0.0
C1159 C 0.41319 0.20777 0.25126 0.0
C1160 C 0.44233 0.20706 0.24746 0.0
H1161 H 0.39067 0.23728 0.25512 0.0
H1162 H 0.39051 0.18548 0.25504 0.0
C1163 C 0.47113 0.23658 0.24243 0.0
C1164 C 0.26875 0.83179 0.795 0.0
C1165 C 0.26952 0.86132 0.78993 0.0
H1166 H 0.23956 0.77965 0.7981 0.0
C1167 C 0.2397 0.86065 0.78612 0.0
H1168 H 0.29122 0.8314 0.79815 0.0
C1169 C 0.21002 0.83093 0.78609 0.0
C1170 C 0.20948 0.80118 0.78987 0.0
H1171 H 0.23934 0.88295 0.78231 0.0
H1172 H 0.18766 0.8312 0.78225 0.0
C1173 C 0.23908 0.80206 0.79497 0.0
C1174 C 0.26849 0.4693 0.79425 0.0
C1175 C 0.26932 0.44054 0.78927 0.0
H1176 H 0.23919 0.49216 0.79737 0.0
C1177 C 0.23953 0.41137 0.78553 0.0
H1178 H 0.29094 0.49217 0.79733 0.0
C1179 C 0.2098 0.41137 0.78555 0.0
C1180 C 0.20918 0.44053 0.7893 0.0
H1181 H 0.23922 0.38872 0.78177 0.0
H1182 H 0.18746 0.38872 0.78181 0.0
C1183 C 0.23877 0.46929 0.79427 0.0
C1184 C 0.65903 0.8308 0.78603 0.0
C1185 C 0.62981 0.80107 0.7898 0.0
H1186 H 0.68177 0.88284 0.78229 0.0
C1187 C 0.60111 0.80197 0.7949 0.0
H1188 H 0.68164 0.83106 0.7822 0.0
C1189 C 0.60118 0.83171 0.79496 0.0
C1190 C 0.62997 0.86124 0.78992 0.0
H1191 H 0.5782 0.77957 0.79802 0.0
H1192 H 0.57833 0.83134 0.79812 0.0
C1193 C 0.6591 0.86055 0.78609 0.0
C1194 C 0.52893 0.57086 0.58455 0.0
C1195 C 0.52946 0.6006 0.58078 0.0
H1196 H 0.49962 0.51883 0.58832 0.0
C1197 C 0.49985 0.59972 0.5757 0.0
H1198 H 0.55129 0.57059 0.58836 0.0
C1199 C 0.47018 0.56999 0.57568 0.0
C1200 C 0.46943 0.54046 0.58073 0.0
H1201 H 0.49936 0.62213 0.57258 0.0
H1202 H 0.4477 0.57038 0.57255 0.0
C1203 C 0.49925 0.54113 0.58452 0.0
C1204 C 0.47059 0.93251 0.57644 0.0
C1205 C 0.46973 0.96125 0.58143 0.0
H1206 H 0.49993 0.90967 0.57335 0.0
C1207 C 0.4995 0.99042 0.5852 0.0
H1208 H 0.44816 0.90963 0.57333 0.0
C1209 C 0.52924 0.99044 0.58521 0.0
C1210 C 0.52989 0.96129 0.58145 0.0
H1211 H 0.49979 0.01306 0.58896 0.0
H1212 H 0.55156 0.01309 0.58898 0.0
C1213 C 0.50033 0.93253 0.57645 0.0
C1214 C 0.13787 0.59976 0.5758 0.0
C1215 C 0.10917 0.60069 0.58088 0.0
H1216 H 0.16063 0.57037 0.57264 0.0
C1217 C 0.07995 0.57097 0.58467 0.0
H1218 H 0.16078 0.62216 0.57266 0.0
C1219 C 0.07986 0.54122 0.58465 0.0
C1220 C 0.109 0.54051 0.58085 0.0
H1221 H 0.05734 0.57073 0.58849 0.0
H1222 H 0.05719 0.51894 0.58847 0.0
C1223 C 0.13778 0.57002 0.57578 0.0
loop_
_geom_bond_atom_site_label_1
_geom_bond_atom_site_label_2
_geom_bond_distance
_geom_bond_site_symmetry_2
_ccdc_geom_bond_type
O0 Cd1 2.223 . S
O0 C8 1.315 . S
Cd1 O0 2.223 . S
Cd1 O4 2.297 . S
Cd1 O5 2.439 . S
Cd1 O11 2.240 1_455 S
Cd2 O3 2.240 . S
Cd2 O10 2.223 1_455 S
Cd2 O12 2.297 1_455 S
Cd2 O13 2.439 . S
O3 Cd2 2.240 . S
O3 C8 1.279 . S
O4 Cd1 2.297 . S
O4 C6 1.247 . S
O5 Cd1 2.439 . S
O5 C6 1.208 . S
C6 O4 1.247 . S
C6 O5 1.208 . S
C7 O12 1.247 1_455 S
C7 O13 1.208 . S
C8 O0 1.315 . S
C8 O3 1.279 . S
C9 O10 1.315 . S
C9 O11 1.279 . S
O10 Cd2 2.223 1_655 S
O10 C9 1.315 . S
O11 Cd1 2.240 1_655 S
O11 C9 1.279 . S
O12 Cd2 2.297 1_655 S
O12 C7 1.247 1_655 S
O13 Cd2 2.439 . S
O13 C7 1.208 . S
O14 Cd15 2.223 . S
O14 C22 1.315 . S
Cd15 O14 2.223 . S
Cd15 O18 2.297 . S
Cd15 O19 2.439 . S
Cd15 O25 2.240 . S
Cd16 O17 2.240 . S
Cd16 O24 2.223 . S
Cd16 O26 2.297 . S
Cd16 O27 2.439 . S
O17 Cd16 2.240 . S
O17 C22 1.279 . S
O18 Cd15 2.297 . S
O18 C20 1.247 . S
O19 Cd15 2.439 . S
O19 C20 1.208 . S
C20 O18 1.247 . S
C20 O19 1.208 . S
C21 O26 1.247 . S
C21 O27 1.208 . S
C22 O14 1.315 . S
C22 O17 1.279 . S
C23 O24 1.315 . S
C23 O25 1.279 . S
O24 Cd16 2.223 . S
O24 C23 1.315 . S
O25 Cd15 2.240 . S
O25 C23 1.279 . S
O26 Cd16 2.297 . S
O26 C21 1.247 . S
O27 Cd16 2.439 . S
O27 C21 1.208 . S
O28 Cd29 2.223 . S
O28 C36 1.315 . S
Cd29 O28 2.223 . S
Cd29 O32 2.297 1_545 S
Cd29 O33 2.439 1_545 S
Cd29 O39 2.240 . S
Cd30 O31 2.240 . S
Cd30 O38 2.223 . S
Cd30 O40 2.297 . S
Cd30 O41 2.439 . S
O31 Cd30 2.240 . S
O31 C36 1.279 . S
O32 Cd29 2.297 1_565 S
O32 C34 1.247 . S
O33 Cd29 2.439 1_565 S
O33 C34 1.208 . S
C34 O32 1.247 . S
C34 O33 1.208 . S
C35 O40 1.247 . S
C35 O41 1.208 . S
C36 O28 1.315 . S
C36 O31 1.279 . S
C37 O38 1.315 . S
C37 O39 1.279 . S
O38 Cd30 2.223 . S
O38 C37 1.315 . S
O39 Cd29 2.240 . S
O39 C37 1.279 . S
O40 Cd30 2.297 . S
O40 C35 1.247 . S
O41 Cd30 2.439 . S
O41 C35 1.208 . S
O42 Cd43 2.223 . S
O42 C50 1.315 . S
Cd43 O42 2.223 . S
Cd43 O46 2.297 . S
Cd43 O47 2.439 . S
Cd43 O53 2.240 1_545 S
Cd44 O45 2.240 . S
Cd44 O52 2.223 1_545 S
Cd44 O54 2.297 1_545 S
Cd44 O55 2.439 . S
O45 Cd44 2.240 . S
O45 C50 1.279 . S
O46 Cd43 2.297 . S
O46 C48 1.247 . S
O47 Cd43 2.439 . S
O47 C48 1.208 . S
C48 O46 1.247 . S
C48 O47 1.208 . S
C49 O54 1.247 1_545 S
C49 O55 1.208 . S
C50 O42 1.315 . S
C50 O45 1.279 . S
C51 O52 1.315 . S
C51 O53 1.279 . S
O52 Cd44 2.223 1_565 S
O52 C51 1.315 . S
O53 Cd43 2.240 1_565 S
O53 C51 1.279 . S
O54 Cd44 2.297 1_565 S
O54 C49 1.247 1_565 S
O55 Cd44 2.439 . S
O55 C49 1.208 . S
O56 Cd57 2.223 . S
O56 C64 1.315 . S
Cd57 O56 2.223 . S
Cd57 O60 2.297 1_455 S
Cd57 O61 2.439 1_455 S
Cd57 O67 2.240 . S
Cd58 O59 2.240 . S
Cd58 O66 2.223 . S
Cd58 O68 2.297 . S
Cd58 O69 2.439 . S
O59 Cd58 2.240 . S
O59 C64 1.279 . S
O60 Cd57 2.297 1_655 S
O60 C62 1.247 . S
O61 Cd57 2.439 1_655 S
O61 C62 1.208 . S
C62 O60 1.247 . S
C62 O61 1.208 . S
C63 O68 1.247 . S
C63 O69 1.208 . S
C64 O56 1.315 . S
C64 O59 1.279 . S
C65 O66 1.315 . S
C65 O67 1.279 . S
O66 Cd58 2.223 . S
O66 C65 1.315 . S
O67 Cd57 2.240 . S
O67 C65 1.279 . S
O68 Cd58 2.297 . S
O68 C63 1.247 . S
O69 Cd58 2.439 . S
O69 C63 1.208 . S
O70 Cd71 2.223 . S
O70 C78 1.315 . S
Cd71 O70 2.223 . S
Cd71 O74 2.297 . S
Cd71 O75 2.439 . S
Cd71 O81 2.240 . S
Cd72 O73 2.240 . S
Cd72 O80 2.223 . S
Cd72 O82 2.297 . S
Cd72 O83 2.439 . S
O73 Cd72 2.240 . S
O73 C78 1.279 . S
O74 Cd71 2.297 . S
O74 C76 1.247 . S
O75 Cd71 2.439 . S
O75 C76 1.208 . S
C76 O74 1.247 . S
C76 O75 1.208 . S
C77 O82 1.247 . S
C77 O83 1.208 . S
C78 O70 1.315 . S
C78 O73 1.279 . S
C79 O80 1.315 . S
C79 O81 1.279 . S
O80 Cd72 2.223 . S
O80 C79 1.315 . S
O81 Cd71 2.240 . S
O81 C79 1.279 . S
O82 Cd72 2.297 . S
O82 C77 1.247 . S
O83 Cd72 2.439 . S
O83 C77 1.208 . S
O84 Cd85 2.223 . S
O84 C92 1.315 . S
Cd85 O84 2.223 . S
Cd85 O88 2.297 1_455 S
Cd85 O89 2.439 1_455 S
Cd85 O95 2.240 . S
Cd86 O87 2.240 . S
Cd86 O94 2.223 . S
Cd86 O96 2.297 . S
Cd86 O97 2.439 . S
O87 Cd86 2.240 . S
O87 C92 1.279 . S
O88 Cd85 2.297 1_655 S
O88 C90 1.247 . S
O89 Cd85 2.439 1_655 S
O89 C90 1.208 . S
C90 O88 1.247 . S
C90 O89 1.208 . S
C91 O96 1.247 . S
C91 O97 1.208 . S
C92 O84 1.315 . S
C92 O87 1.279 . S
C93 O94 1.315 . S
C93 O95 1.279 . S
O94 Cd86 2.223 . S
O94 C93 1.315 . S
O95 Cd85 2.240 . S
O95 C93 1.279 . S
O96 Cd86 2.297 . S
O96 C91 1.247 . S
O97 Cd86 2.439 . S
O97 C91 1.208 . S
O98 Cd99 2.223 . S
O98 C106 1.315 . S
Cd99 O98 2.223 . S
Cd99 O102 2.297 . S
Cd99 O103 2.439 . S
Cd99 O109 2.240 . S
Cd100 O101 2.240 . S
Cd100 O108 2.223 . S
Cd100 O110 2.297 . S
Cd100 O111 2.439 . S
O101 Cd100 2.240 . S
O101 C106 1.279 . S
O102 Cd99 2.297 . S
O102 C104 1.247 . S
O103 Cd99 2.439 . S
O103 C104 1.208 . S
C104 O102 1.247 . S
C104 O103 1.208 . S
C105 O110 1.247 . S
C105 O111 1.208 . S
C106 O98 1.315 . S
C106 O101 1.279 . S
C107 O108 1.315 . S
C107 O109 1.279 . S
O108 Cd100 2.223 . S
O108 C107 1.315 . S
O109 Cd99 2.240 . S
O109 C107 1.279 . S
O110 Cd100 2.297 . S
O110 C105 1.247 . S
O111 Cd100 2.439 . S
O111 C105 1.208 . S
O112 Cd113 2.223 . S
O112 C120 1.315 . S
Cd113 O112 2.223 . S
Cd113 O116 2.297 . S
Cd113 O117 2.439 . S
Cd113 O123 2.240 1_545 S
Cd114 O115 2.240 . S
Cd114 O122 2.223 1_545 S
Cd114 O124 2.297 1_545 S
Cd114 O125 2.439 . S
O115 Cd114 2.240 . S
O115 C120 1.279 . S
O116 Cd113 2.297 . S
O116 C118 1.247 . S
O117 Cd113 2.439 . S
O117 C118 1.208 . S
C118 O116 1.247 . S
C118 O117 1.208 . S
C119 O124 1.247 1_545 S
C119 O125 1.208 . S
C120 O112 1.315 . S
C120 O115 1.279 . S
C121 O122 1.315 . S
C121 O123 1.279 . S
O122 Cd114 2.223 1_565 S
O122 C121 1.315 . S
O123 Cd113 2.240 1_565 S
O123 C121 1.279 . S
O124 Cd114 2.297 1_565 S
O124 C119 1.247 1_565 S
O125 Cd114 2.439 . S
O125 C119 1.208 . S
O126 Cd127 2.223 . S
O126 C134 1.315 . S
Cd127 O126 2.223 . S
Cd127 O130 2.297 1_545 S
Cd127 O131 2.439 1_545 S
Cd127 O137 2.240 . S
Cd128 O129 2.240 . S
Cd128 O136 2.223 . S
Cd128 O138 2.297 . S
Cd128 O139 2.439 . S
O129 Cd128 2.240 . S
O129 C134 1.279 . S
O130 Cd127 2.297 1_565 S
O130 C132 1.247 . S
O131 Cd127 2.439 1_565 S
O131 C132 1.208 . S
C132 O130 1.247 . S
C132 O131 1.208 . S
C133 O138 1.247 . S
C133 O139 1.208 . S
C134 O126 1.315 . S
C134 O129 1.279 . S
C135 O136 1.315 . S
C135 O137 1.279 . S
O136 Cd128 2.223 . S
O136 C135 1.315 . S
O137 Cd127 2.240 . S
O137 C135 1.279 . S
O138 Cd128 2.297 . S
O138 C133 1.247 . S
O139 Cd128 2.439 . S
O139 C133 1.208 . S
O140 Cd141 2.223 . S
O140 C148 1.315 . S
Cd141 O140 2.223 . S
Cd141 O144 2.297 . S
Cd141 O145 2.439 . S
Cd141 O151 2.240 1_455 S
Cd142 O143 2.240 . S
Cd142 O150 2.223 1_455 S
Cd142 O152 2.297 1_455 S
Cd142 O153 2.439 . S
O143 Cd142 2.240 . S
O143 C148 1.279 . S
O144 Cd141 2.297 . S
O144 C146 1.247 . S
O145 Cd141 2.439 . S
O145 C146 1.208 . S
C146 O144 1.247 . S
C146 O145 1.208 . S
C147 O152 1.247 1_455 S
C147 O153 1.208 . S
C148 O140 1.315 . S
C148 O143 1.279 . S
C149 O150 1.315 . S
C149 O151 1.279 . S
O150 Cd142 2.223 1_655 S
O150 C149 1.315 . S
O151 Cd141 2.240 1_655 S
O151 C149 1.279 . S
O152 Cd142 2.297 1_655 S
O152 C147 1.247 1_655 S
O153 Cd142 2.439 . S
O153 C147 1.208 . S
O154 Cd155 2.223 . S
O154 C162 1.315 . S
Cd155 O154 2.223 . S
Cd155 O158 2.297 . S
Cd155 O159 2.439 . S
Cd155 O165 2.240 . S
Cd156 O157 2.240 . S
Cd156 O164 2.223 . S
Cd156 O166 2.297 . S
Cd156 O167 2.439 . S
O157 Cd156 2.240 . S
O157 C162 1.279 . S
O158 Cd155 2.297 . S
O158 C160 1.247 . S
O159 Cd155 2.439 . S
O159 C160 1.208 . S
C160 O158 1.247 . S
C160 O159 1.208 . S
C161 O166 1.247 . S
C161 O167 1.208 . S
C162 O154 1.315 . S
C162 O157 1.279 . S
C163 O164 1.315 . S
C163 O165 1.279 . S
O164 Cd156 2.223 . S
O164 C163 1.315 . S
O165 Cd155 2.240 . S
O165 C163 1.279 . S
O166 Cd156 2.297 . S
O166 C161 1.247 . S
O167 Cd156 2.439 . S
O167 C161 1.208 . S
O168 Cd169 2.223 . S
O168 C176 1.315 . S
Cd169 O168 2.223 . S
Cd169 O172 2.297 . S
Cd169 O173 2.439 . S
Cd169 O179 2.240 . S
Cd170 O171 2.240 . S
Cd170 O178 2.223 . S
Cd170 O180 2.297 . S
Cd170 O181 2.439 . S
O171 Cd170 2.240 . S
O171 C176 1.279 . S
O172 Cd169 2.297 . S
O172 C174 1.247 . S
O173 Cd169 2.439 . S
O173 C174 1.208 . S
C174 O172 1.247 . S
C174 O173 1.208 . S
C175 O180 1.247 . S
C175 O181 1.208 . S
C176 O168 1.315 . S
C176 O171 1.279 . S
C177 O178 1.315 . S
C177 O179 1.279 . S
O178 Cd170 2.223 . S
O178 C177 1.315 . S
O179 Cd169 2.240 . S
O179 C177 1.279 . S
O180 Cd170 2.297 . S
O180 C175 1.247 . S
O181 Cd170 2.439 . S
O181 C175 1.208 . S
O182 Cd183 2.223 . S
O182 C190 1.315 . S
Cd183 O182 2.223 . S
Cd183 O186 2.297 . S
Cd183 O187 2.439 . S
Cd183 O193 2.240 . S
Cd184 O185 2.240 . S
Cd184 O192 2.223 . S
Cd184 O194 2.297 . S
Cd184 O195 2.439 . S
O185 Cd184 2.240 . S
O185 C190 1.279 . S
O186 Cd183 2.297 . S
O186 C188 1.247 . S
O187 Cd183 2.439 . S
O187 C188 1.208 . S
C188 O186 1.247 . S
C188 O187 1.208 . S
C189 O194 1.247 . S
C189 O195 1.208 . S
C190 O182 1.315 . S
C190 O185 1.279 . S
C191 O192 1.315 . S
C191 O193 1.279 . S
O192 Cd184 2.223 . S
O192 C191 1.315 . S
O193 Cd183 2.240 . S
O193 C191 1.279 . S
O194 Cd184 2.297 . S
O194 C189 1.247 . S
O195 Cd184 2.439 . S
O195 C189 1.208 . S
O196 Cd197 2.223 . S
O196 C204 1.315 . S
Cd197 O196 2.223 . S
Cd197 O200 2.297 . S
Cd197 O201 2.439 . S
Cd197 O207 2.240 . S
Cd198 O199 2.240 1_455 S
Cd198 O206 2.205 1_455 S
Cd198 O208 2.297 . S
Cd198 O209 2.439 1_455 S
O199 Cd198 2.240 1_655 S
O199 C204 1.279 . S
O200 Cd197 2.297 . S
O200 C202 1.247 . S
O201 Cd197 2.439 . S
O201 C202 1.208 . S
C202 O200 1.247 . S
C202 O201 1.208 . S
C203 O208 1.247 . S
C203 O209 1.208 1_455 S
C204 O196 1.315 . S
C204 O199 1.279 . S
C205 O206 1.347 . S
C205 O207 1.279 . S
O206 Cd198 2.205 1_655 S
O206 C205 1.347 . S
O207 Cd197 2.240 . S
O207 C205 1.279 . S
O208 Cd198 2.297 . S
O208 C203 1.247 . S
O209 Cd198 2.439 1_655 S
O209 C203 1.208 1_655 S
O210 Cd211 2.223 . S
O210 C218 1.315 . S
Cd211 O210 2.223 . S
Cd211 O214 2.297 . S
Cd211 O215 2.439 . S
Cd211 O221 2.240 . S
Cd212 O213 2.240 . S
Cd212 O220 2.223 . S
Cd212 O222 2.297 . S
Cd212 O223 2.439 . S
O213 Cd212 2.240 . S
O213 C218 1.279 . S
O214 Cd211 2.297 . S
O214 C216 1.247 . S
O215 Cd211 2.439 . S
O215 C216 1.208 . S
C216 O214 1.247 . S
C216 O215 1.208 . S
C217 O222 1.247 . S
C217 O223 1.208 . S
C218 O210 1.315 . S
C218 O213 1.279 . S
C219 O220 1.315 . S
C219 O221 1.279 . S
O220 Cd212 2.223 . S
O220 C219 1.315 . S
O221 Cd211 2.240 . S
O221 C219 1.279 . S
O222 Cd212 2.297 . S
O222 C217 1.247 . S
O223 Cd212 2.439 . S
O223 C217 1.208 . S
O224 Cd225 2.223 . S
O224 C232 1.315 . S
Cd225 O224 2.223 . S
Cd225 O228 2.297 . S
Cd225 O229 2.439 . S
Cd225 O235 2.240 . S
Cd226 O227 2.240 . S
Cd226 O234 2.223 . S
Cd226 O236 2.297 . S
Cd226 O237 2.439 . S
O227 Cd226 2.240 . S
O227 C232 1.279 . S
O228 Cd225 2.297 . S
O228 C230 1.247 . S
O229 Cd225 2.439 . S
O229 C230 1.208 . S
C230 O228 1.247 . S
C230 O229 1.208 . S
C231 O236 1.247 . S
C231 O237 1.208 . S
C232 O224 1.315 . S
C232 O227 1.279 . S
C233 O234 1.315 . S
C233 O235 1.279 . S
O234 Cd226 2.223 . S
O234 C233 1.315 . S
O235 Cd225 2.240 . S
O235 C233 1.279 . S
O236 Cd226 2.297 . S
O236 C231 1.247 . S
O237 Cd226 2.439 . S
O237 C231 1.208 . S
O238 Cd239 2.223 . S
O238 C246 1.315 . S
Cd239 O238 2.223 . S
Cd239 O242 2.297 . S
Cd239 O243 2.439 . S
Cd239 O249 2.240 . S
Cd240 O241 2.240 . S
Cd240 O248 2.223 . S
Cd240 O250 2.297 . S
Cd240 O251 2.439 . S
O241 Cd240 2.240 . S
O241 C246 1.279 . S
O242 Cd239 2.297 . S
O242 C244 1.247 . S
O243 Cd239 2.439 . S
O243 C244 1.208 . S
C244 O242 1.247 . S
C244 O243 1.208 . S
C245 O250 1.247 . S
C245 O251 1.208 . S
C246 O238 1.315 . S
C246 O241 1.279 . S
C247 O248 1.315 . S
C247 O249 1.279 . S
O248 Cd240 2.223 . S
O248 C247 1.315 . S
O249 Cd239 2.240 . S
O249 C247 1.279 . S
O250 Cd240 2.297 . S
O250 C245 1.247 . S
O251 Cd240 2.439 . S
O251 C245 1.208 . S
O252 Cd253 2.223 . S
O252 C260 1.315 . S
Cd253 O252 2.223 . S
Cd253 O256 2.297 . S
Cd253 O257 2.439 . S
Cd253 O263 2.240 . S
Cd254 O255 2.240 . S
Cd254 O262 2.223 . S
Cd254 O264 2.297 . S
Cd254 O265 2.439 . S
O255 Cd254 2.240 . S
O255 C260 1.279 . S
O256 Cd253 2.297 . S
O256 C258 1.247 . S
O257 Cd253 2.439 . S
O257 C258 1.208 . S
C258 O256 1.247 . S
C258 O257 1.208 . S
C259 O264 1.247 . S
C259 O265 1.208 . S
C260 O252 1.315 . S
C260 O255 1.279 . S
C261 O262 1.315 . S
C261 O263 1.279 . S
O262 Cd254 2.223 . S
O262 C261 1.315 . S
O263 Cd253 2.240 . S
O263 C261 1.279 . S
O264 Cd254 2.297 . S
O264 C259 1.247 . S
O265 Cd254 2.439 . S
O265 C259 1.208 . S
O266 Cd267 2.223 . S
O266 C274 1.315 . S
Cd267 O266 2.223 . S
Cd267 O270 2.297 . S
Cd267 O271 2.439 . S
Cd267 O277 2.240 . S
Cd268 O269 2.240 . S
Cd268 O276 2.223 . S
Cd268 O278 2.297 . S
Cd268 O279 2.439 . S
O269 Cd268 2.240 . S
O269 C274 1.279 . S
O270 Cd267 2.297 . S
O270 C272 1.247 . S
O271 Cd267 2.439 . S
O271 C272 1.208 . S
C272 O270 1.247 . S
C272 O271 1.208 . S
C273 O278 1.247 . S
C273 O279 1.208 . S
C274 O266 1.315 . S
C274 O269 1.279 . S
C275 O276 1.315 . S
C275 O277 1.279 . S
O276 Cd268 2.223 . S
O276 C275 1.315 . S
O277 Cd267 2.240 . S
O277 C275 1.279 . S
O278 Cd268 2.297 . S
O278 C273 1.247 . S
O279 Cd268 2.439 . S
O279 C273 1.208 . S
O280 Cd281 2.223 . S
O280 C288 1.315 . S
Cd281 O280 2.223 . S
Cd281 O284 2.297 . S
Cd281 O285 2.439 . S
Cd281 O291 2.240 . S
Cd282 O283 2.240 . S
Cd282 O290 2.223 . S
Cd282 O292 2.297 . S
Cd282 O293 2.439 . S
O283 Cd282 2.240 . S
O283 C288 1.279 . S
O284 Cd281 2.297 . S
O284 C286 1.247 . S
O285 Cd281 2.439 . S
O285 C286 1.208 . S
C286 O284 1.247 . S
C286 O285 1.208 . S
C287 O292 1.247 . S
C287 O293 1.208 . S
C288 O280 1.315 . S
C288 O283 1.279 . S
C289 O290 1.315 . S
C289 O291 1.279 . S
O290 Cd282 2.223 . S
O290 C289 1.315 . S
O291 Cd281 2.240 . S
O291 C289 1.279 . S
O292 Cd282 2.297 . S
O292 C287 1.247 . S
O293 Cd282 2.439 . S
O293 C287 1.208 . S
O294 Cd295 2.223 . S
O294 C302 1.315 . S
Cd295 O294 2.223 . S
Cd295 O298 2.297 . S
Cd295 O299 2.439 . S
Cd295 O305 2.240 . S
Cd296 O297 2.240 . S
Cd296 O304 2.223 . S
Cd296 O306 2.297 . S
Cd296 O307 2.439 . S
O297 Cd296 2.240 . S
O297 C302 1.279 . S
O298 Cd295 2.297 . S
O298 C300 1.247 . S
O299 Cd295 2.439 . S
O299 C300 1.208 . S
C300 O298 1.247 . S
C300 O299 1.208 . S
C301 O306 1.247 . S
C301 O307 1.208 . S
C302 O294 1.315 . S
C302 O297 1.279 . S
C303 O304 1.315 . S
C303 O305 1.279 . S
O304 Cd296 2.223 . S
O304 C303 1.315 . S
O305 Cd295 2.240 . S
O305 C303 1.279 . S
O306 Cd296 2.297 . S
O306 C301 1.247 . S
O307 Cd296 2.439 . S
O307 C301 1.208 . S
O308 Cd309 2.223 . S
O308 C316 1.315 . S
Cd309 O308 2.223 . S
Cd309 O312 2.297 . S
Cd309 O313 2.439 . S
Cd309 O319 2.240 . S
Cd310 O311 2.240 . S
Cd310 O318 2.223 . S
Cd310 O320 2.297 . S
Cd310 O321 2.439 . S
O311 Cd310 2.240 . S
O311 C316 1.279 . S
O312 Cd309 2.297 . S
O312 C314 1.247 . S
O313 Cd309 2.439 . S
O313 C314 1.208 . S
C314 O312 1.247 . S
C314 O313 1.208 . S
C315 O320 1.247 . S
C315 O321 1.208 . S
C316 O308 1.315 . S
C316 O311 1.279 . S
C317 O318 1.315 . S
C317 O319 1.279 . S
O318 Cd310 2.223 . S
O318 C317 1.315 . S
O319 Cd309 2.240 . S
O319 C317 1.279 . S
O320 Cd310 2.297 . S
O320 C315 1.247 . S
O321 Cd310 2.439 . S
O321 C315 1.208 . S
O322 Cd323 2.223 . S
O322 C330 1.315 . S
Cd323 O322 2.223 . S
Cd323 O326 2.297 . S
Cd323 O327 2.439 . S
Cd323 O333 2.240 . S
Cd324 O325 2.240 1_455 S
Cd324 O332 2.237 1_455 S
Cd324 O334 2.297 . S
Cd324 O335 2.439 1_455 S
O325 Cd324 2.240 1_655 S
O325 C330 1.279 . S
O326 Cd323 2.297 . S
O326 C328 1.247 . S
O327 Cd323 2.439 . S
O327 C328 1.208 . S
C328 O326 1.247 . S
C328 O327 1.208 . S
C329 O334 1.247 . S
C329 O335 1.208 1_455 S
C330 O322 1.315 . S
C330 O325 1.279 . S
C331 O332 1.337 . S
C331 O333 1.279 . S
O332 Cd324 2.237 1_655 S
O332 C331 1.337 . S
O333 Cd323 2.240 . S
O333 C331 1.279 . S
O334 Cd324 2.297 . S
O334 C329 1.247 . S
O335 Cd324 2.439 1_655 S
O335 C329 1.208 1_655 S
O336 Cd337 2.223 . S
O336 C344 1.315 . S
Cd337 O336 2.223 . S
Cd337 O340 2.297 . S
Cd337 O341 2.439 . S
Cd337 O347 2.240 . S
Cd338 O339 2.240 . S
Cd338 O346 2.223 . S
Cd338 O348 2.297 . S
Cd338 O349 2.439 . S
O339 Cd338 2.240 . S
O339 C344 1.279 . S
O340 Cd337 2.297 . S
O340 C342 1.247 . S
O341 Cd337 2.439 . S
O341 C342 1.208 . S
C342 O340 1.247 . S
C342 O341 1.208 . S
C343 O348 1.247 . S
C343 O349 1.208 . S
C344 O336 1.315 . S
C344 O339 1.279 . S
C345 O346 1.315 . S
C345 O347 1.279 . S
O346 Cd338 2.223 . S
O346 C345 1.315 . S
O347 Cd337 2.240 . S
O347 C345 1.279 . S
O348 Cd338 2.297 . S
O348 C343 1.247 . S
O349 Cd338 2.439 . S
O349 C343 1.208 . S
O350 Cd351 2.223 . S
O350 C358 1.315 . S
Cd351 O350 2.223 . S
Cd351 O354 2.297 . S
Cd351 O355 2.439 . S
Cd351 O361 2.240 . S
Cd352 O353 2.240 . S
Cd352 O360 2.223 . S
Cd352 O362 2.297 . S
Cd352 O363 2.439 . S
O353 Cd352 2.240 . S
O353 C358 1.279 . S
O354 Cd351 2.297 . S
O354 C356 1.247 . S
O355 Cd351 2.439 . S
O355 C356 1.208 . S
C356 O354 1.247 . S
C356 O355 1.208 . S
C357 O362 1.247 . S
C357 O363 1.208 . S
C358 O350 1.315 . S
C358 O353 1.279 . S
C359 O360 1.315 . S
C359 O361 1.279 . S
O360 Cd352 2.223 . S
O360 C359 1.315 . S
O361 Cd351 2.240 . S
O361 C359 1.279 . S
O362 Cd352 2.297 . S
O362 C357 1.247 . S
O363 Cd352 2.439 . S
O363 C357 1.208 . S
O364 Cd365 2.223 . S
O364 C372 1.315 . S
Cd365 O364 2.223 . S
Cd365 O368 2.297 . S
Cd365 O369 2.439 . S
Cd365 O375 2.240 . S
Cd366 O367 2.240 . S
Cd366 O374 2.223 . S
Cd366 O376 2.297 . S
Cd366 O377 2.439 . S
O367 Cd366 2.240 . S
O367 C372 1.279 . S
O368 Cd365 2.297 . S
O368 C370 1.247 . S
O369 Cd365 2.439 . S
O369 C370 1.208 . S
C370 O368 1.247 . S
C370 O369 1.208 . S
C371 O376 1.247 . S
C371 O377 1.208 . S
C372 O364 1.315 . S
C372 O367 1.279 . S
C373 O374 1.315 . S
C373 O375 1.279 . S
O374 Cd366 2.223 . S
O374 C373 1.315 . S
O375 Cd365 2.240 . S
O375 C373 1.279 . S
O376 Cd366 2.297 . S
O376 C371 1.247 . S
O377 Cd366 2.439 . S
O377 C371 1.208 . S
O378 Cd379 2.223 . S
O378 C386 1.315 . S
Cd379 O378 2.223 . S
Cd379 O382 2.297 . S
Cd379 O383 2.439 . S
Cd379 O389 2.240 . S
Cd380 O381 2.240 . S
Cd380 O388 2.223 . S
Cd380 O390 2.297 . S
Cd380 O391 2.439 . S
O381 Cd380 2.240 . S
O381 C386 1.279 . S
O382 Cd379 2.297 . S
O382 C384 1.247 . S
O383 Cd379 2.439 . S
O383 C384 1.208 . S
C384 O382 1.247 . S
C384 O383 1.208 . S
C385 O390 1.247 . S
C385 O391 1.208 . S
C386 O378 1.315 . S
C386 O381 1.279 . S
C387 O388 1.315 . S
C387 O389 1.279 . S
O388 Cd380 2.223 . S
O388 C387 1.315 . S
O389 Cd379 2.240 . S
O389 C387 1.279 . S
O390 Cd380 2.297 . S
O390 C385 1.247 . S
O391 Cd380 2.439 . S
O391 C385 1.208 . S
O392 Cd393 2.223 . S
O392 C400 1.315 . S
Cd393 O392 2.223 . S
Cd393 O396 2.297 . S
Cd393 O397 2.439 . S
Cd393 O403 2.240 . S
Cd394 O395 2.240 1_545 S
Cd394 O402 2.205 1_545 S
Cd394 O404 2.297 . S
Cd394 O405 2.439 1_545 S
O395 Cd394 2.240 1_565 S
O395 C400 1.279 . S
O396 Cd393 2.297 . S
O396 C398 1.247 . S
O397 Cd393 2.439 . S
O397 C398 1.208 . S
C398 O396 1.247 . S
C398 O397 1.208 . S
C399 O404 1.247 . S
C399 O405 1.208 1_545 S
C400 O392 1.315 . S
C400 O395 1.279 . S
C401 O402 1.347 . S
C401 O403 1.279 . S
O402 Cd394 2.205 1_565 S
O402 C401 1.347 . S
O403 Cd393 2.240 . S
O403 C401 1.279 . S
O404 Cd394 2.297 . S
O404 C399 1.247 . S
O405 Cd394 2.439 1_565 S
O405 C399 1.208 1_565 S
O406 Cd407 2.223 . S
O406 C414 1.315 . S
Cd407 O406 2.223 . S
Cd407 O410 2.297 . S
Cd407 O411 2.439 . S
Cd407 O417 2.240 . S
Cd408 O409 2.240 . S
Cd408 O416 2.223 . S
Cd408 O418 2.297 . S
Cd408 O419 2.439 . S
O409 Cd408 2.240 . S
O409 C414 1.279 . S
O410 Cd407 2.297 . S
O410 C412 1.247 . S
O411 Cd407 2.439 . S
O411 C412 1.208 . S
C412 O410 1.247 . S
C412 O411 1.208 . S
C413 O418 1.247 . S
C413 O419 1.208 . S
C414 O406 1.315 . S
C414 O409 1.279 . S
C415 O416 1.315 . S
C415 O417 1.279 . S
O416 Cd408 2.223 . S
O416 C415 1.315 . S
O417 Cd407 2.240 . S
O417 C415 1.279 . S
O418 Cd408 2.297 . S
O418 C413 1.247 . S
O419 Cd408 2.439 . S
O419 C413 1.208 . S
O420 Cd421 2.223 . S
O420 C428 1.315 . S
Cd421 O420 2.223 . S
Cd421 O424 2.297 . S
Cd421 O425 2.439 . S
Cd421 O431 2.240 . S
Cd422 O423 2.240 . S
Cd422 O430 2.223 . S
Cd422 O432 2.297 . S
Cd422 O433 2.439 . S
O423 Cd422 2.240 . S
O423 C428 1.279 . S
O424 Cd421 2.297 . S
O424 C426 1.247 . S
O425 Cd421 2.439 . S
O425 C426 1.208 . S
C426 O424 1.247 . S
C426 O425 1.208 . S
C427 O432 1.247 . S
C427 O433 1.208 . S
C428 O420 1.315 . S
C428 O423 1.279 . S
C429 O430 1.315 . S
C429 O431 1.279 . S
O430 Cd422 2.223 . S
O430 C429 1.315 . S
O431 Cd421 2.240 . S
O431 C429 1.279 . S
O432 Cd422 2.297 . S
O432 C427 1.247 . S
O433 Cd422 2.439 . S
O433 C427 1.208 . S
O434 Cd435 2.223 . S
O434 C442 1.315 . S
Cd435 O434 2.223 . S
Cd435 O438 2.297 . S
Cd435 O439 2.439 . S
Cd435 O445 2.240 . S
Cd436 O437 2.240 1_545 S
Cd436 O444 2.237 1_545 S
Cd436 O446 2.297 . S
Cd436 O447 2.439 1_545 S
O437 Cd436 2.240 1_565 S
O437 C442 1.279 . S
O438 Cd435 2.297 . S
O438 C440 1.247 . S
O439 Cd435 2.439 . S
O439 C440 1.208 . S
C440 O438 1.247 . S
C440 O439 1.208 . S
C441 O446 1.247 . S
C441 O447 1.208 1_545 S
C442 O434 1.315 . S
C442 O437 1.279 . S
C443 O444 1.337 . S
C443 O445 1.279 . S
O444 Cd436 2.237 1_565 S
O444 C443 1.337 . S
O445 Cd435 2.240 . S
O445 C443 1.279 . S
O446 Cd436 2.297 . S
O446 C441 1.247 . S
O447 Cd436 2.439 1_565 S
O447 C441 1.208 1_565 S
O448 Cd449 2.223 . S
O448 C456 1.315 . S
Cd449 O448 2.223 . S
Cd449 O452 2.297 . S
Cd449 O453 2.439 . S
Cd449 O459 2.240 . S
Cd450 O451 2.240 . S
Cd450 O458 2.223 . S
Cd450 O460 2.297 . S
Cd450 O461 2.439 . S
O451 Cd450 2.240 . S
O451 C456 1.279 . S
O452 Cd449 2.297 . S
O452 C454 1.247 . S
O453 Cd449 2.439 . S
O453 C454 1.208 . S
C454 O452 1.247 . S
C454 O453 1.208 . S
C455 O460 1.247 . S
C455 O461 1.208 . S
C456 O448 1.315 . S
C456 O451 1.279 . S
C457 O458 1.315 . S
C457 O459 1.279 . S
O458 Cd450 2.223 . S
O458 C457 1.315 . S
O459 Cd449 2.240 . S
O459 C457 1.279 . S
O460 Cd450 2.297 . S
O460 C455 1.247 . S
O461 Cd450 2.439 . S
O461 C455 1.208 . S
O462 Cd463 2.223 . S
O462 C470 1.315 . S
Cd463 O462 2.223 . S
Cd463 O466 2.297 . S
Cd463 O467 2.439 . S
Cd463 O473 2.240 . S
Cd464 O465 2.240 . S
Cd464 O472 2.223 . S
Cd464 O474 2.297 . S
Cd464 O475 2.439 . S
O465 Cd464 2.240 . S
O465 C470 1.279 . S
O466 Cd463 2.297 . S
O466 C468 1.247 . S
O467 Cd463 2.439 . S
O467 C468 1.208 . S
C468 O466 1.247 . S
C468 O467 1.208 . S
C469 O474 1.247 . S
C469 O475 1.208 . S
C470 O462 1.315 . S
C470 O465 1.279 . S
C471 O472 1.315 . S
C471 O473 1.279 . S
O472 Cd464 2.223 . S
O472 C471 1.315 . S
O473 Cd463 2.240 . S
O473 C471 1.279 . S
O474 Cd464 2.297 . S
O474 C469 1.247 . S
O475 Cd464 2.439 . S
O475 C469 1.208 . S
O476 Cd477 2.223 . S
O476 C484 1.315 . S
Cd477 O476 2.223 . S
Cd477 O480 2.297 . S
Cd477 O481 2.439 . S
Cd477 O487 2.240 . S
Cd478 O479 2.240 . S
Cd478 O486 2.223 . S
Cd478 O488 2.297 . S
Cd478 O489 2.439 . S
O479 Cd478 2.240 . S
O479 C484 1.279 . S
O480 Cd477 2.297 . S
O480 C482 1.247 . S
O481 Cd477 2.439 . S
O481 C482 1.208 . S
C482 O480 1.247 . S
C482 O481 1.208 . S
C483 O488 1.247 . S
C483 O489 1.208 . S
C484 O476 1.315 . S
C484 O479 1.279 . S
C485 O486 1.315 . S
C485 O487 1.279 . S
O486 Cd478 2.223 . S
O486 C485 1.315 . S
O487 Cd477 2.240 . S
O487 C485 1.279 . S
O488 Cd478 2.297 . S
O488 C483 1.247 . S
O489 Cd478 2.439 . S
O489 C483 1.208 . S
O490 Cd491 2.223 . S
O490 C498 1.315 . S
Cd491 O490 2.223 . S
Cd491 O494 2.297 . S
Cd491 O495 2.439 . S
Cd491 O501 2.240 . S
Cd492 O493 2.240 . S
Cd492 O500 2.223 . S
Cd492 O502 2.297 . S
Cd492 O503 2.439 . S
O493 Cd492 2.240 . S
O493 C498 1.279 . S
O494 Cd491 2.297 . S
O494 C496 1.247 . S
O495 Cd491 2.439 . S
O495 C496 1.208 . S
C496 O494 1.247 . S
C496 O495 1.208 . S
C497 O502 1.247 . S
C497 O503 1.208 . S
C498 O490 1.315 . S
C498 O493 1.279 . S
C499 O500 1.315 . S
C499 O501 1.279 . S
O500 Cd492 2.223 . S
O500 C499 1.315 . S
O501 Cd491 2.240 . S
O501 C499 1.279 . S
O502 Cd492 2.297 . S
O502 C497 1.247 . S
O503 Cd492 2.439 . S
O503 C497 1.208 . S
C504 C505 1.387 . S
C504 H508 0.950 . S
C504 C513 1.390 . S
C505 C504 1.387 . S
C505 C507 1.387 . S
H506 C513 0.950 . S
C507 C505 1.387 . S
C507 C509 1.390 . S
C507 H511 0.950 . S
H508 C504 0.950 . S
C509 C507 1.390 . S
C509 C510 1.387 . S
C509 H512 0.950 . S
C510 C509 1.387 . S
C510 C513 1.387 . S
H511 C507 0.950 . S
H512 C509 0.950 . S
C513 C504 1.390 . S
C513 H506 0.950 . S
C513 C510 1.387 . S
C514 C515 1.387 . S
C514 H518 0.950 . S
C514 C523 1.390 . S
C515 C514 1.387 . S
C515 C517 1.387 . S
H516 C523 0.950 . S
C517 C515 1.387 . S
C517 C519 1.390 . S
C517 H521 0.950 . S
H518 C514 0.950 . S
C519 C517 1.390 . S
C519 C520 1.387 . S
C519 H522 0.950 . S
C520 C519 1.387 . S
C520 C523 1.387 . S
H521 C517 0.950 . S
H522 C519 0.950 . S
C523 C514 1.390 . S
C523 H516 0.950 . S
C523 C520 1.387 . S
C524 C525 1.387 . S
C524 H528 0.950 . S
C524 C533 1.390 . S
C525 C524 1.387 . S
C525 C527 1.387 . S
H526 C533 0.950 . S
C527 C525 1.387 . S
C527 C529 1.390 . S
C527 H531 0.950 . S
H528 C524 0.950 . S
C529 C527 1.390 . S
C529 C530 1.387 . S
C529 H532 0.950 . S
C530 C529 1.387 . S
C530 C533 1.387 . S
H531 C527 0.950 . S
H532 C529 0.950 . S
C533 C524 1.390 . S
C533 H526 0.950 . S
C533 C530 1.387 . S
C534 C535 1.387 . S
C534 H538 0.950 . S
C534 C543 1.390 . S
C535 C534 1.387 . S
C535 C537 1.387 . S
H536 C543 0.950 . S
C537 C535 1.387 . S
C537 C539 1.390 . S
C537 H541 0.950 . S
H538 C534 0.950 . S
C539 C537 1.390 . S
C539 C540 1.387 . S
C539 H542 0.950 . S
C540 C539 1.387 . S
C540 C543 1.387 . S
H541 C537 0.950 . S
H542 C539 0.950 . S
C543 C534 1.390 . S
C543 H536 0.950 . S
C543 C540 1.387 . S
C544 C545 1.387 . S
C544 H548 0.950 . S
C544 C553 1.390 . S
C545 C544 1.387 . S
C545 C547 1.387 . S
H546 C553 0.950 . S
C547 C545 1.387 . S
C547 C549 1.390 . S
C547 H551 0.950 . S
H548 C544 0.950 . S
C549 C547 1.390 . S
C549 C550 1.387 . S
C549 H552 0.950 . S
C550 C549 1.387 . S
C550 C553 1.387 . S
H551 C547 0.950 . S
H552 C549 0.950 . S
C553 C544 1.390 . S
C553 H546 0.950 . S
C553 C550 1.387 . S
C554 C555 1.387 . S
C554 H558 0.950 . S
C554 C563 1.390 . S
C555 C554 1.387 . S
C555 C557 1.387 . S
H556 C563 0.950 . S
C557 C555 1.387 . S
C557 C559 1.390 . S
C557 H561 0.950 . S
H558 C554 0.950 . S
C559 C557 1.390 . S
C559 C560 1.387 . S
C559 H562 0.950 . S
C560 C559 1.387 . S
C560 C563 1.387 . S
H561 C557 0.950 . S
H562 C559 0.950 . S
C563 C554 1.390 . S
C563 H556 0.950 . S
C563 C560 1.387 . S
C564 C565 1.387 . S
C564 H568 0.950 . S
C564 C573 1.390 . S
C565 C564 1.387 . S
C565 C567 1.387 . S
H566 C573 0.950 . S
C567 C565 1.387 . S
C567 C569 1.390 . S
C567 H571 0.950 . S
H568 C564 0.950 . S
C569 C567 1.390 . S
C569 C570 1.387 . S
C569 H572 0.950 . S
C570 C569 1.387 . S
C570 C573 1.387 . S
H571 C567 0.950 . S
H572 C569 0.950 . S
C573 C564 1.390 . S
C573 H566 0.950 . S
C573 C570 1.387 . S
C574 C575 1.387 . S
C574 H578 0.950 . S
C574 C583 1.390 . S
C575 C574 1.387 . S
C575 C577 1.387 . S
H576 C583 0.950 . S
C577 C575 1.387 . S
C577 C579 1.390 . S
C577 H581 0.950 . S
H578 C574 0.950 . S
C579 C577 1.390 . S
C579 C580 1.387 . S
C579 H582 0.950 . S
C580 C579 1.387 . S
C580 C583 1.387 . S
H581 C577 0.950 . S
H582 C579 0.950 . S
C583 C574 1.390 . S
C583 H576 0.950 . S
C583 C580 1.387 . S
C584 C585 1.387 . S
C584 H588 0.950 . S
C584 C593 1.390 . S
C585 C584 1.387 . S
C585 C587 1.387 . S
H586 C593 0.950 . S
C587 C585 1.387 . S
C587 C589 1.390 . S
C587 H591 0.950 . S
H588 C584 0.950 . S
C589 C587 1.390 . S
C589 C590 1.387 . S
C589 H592 0.950 . S
C590 C589 1.387 . S
C590 C593 1.387 . S
H591 C587 0.950 . S
H592 C589 0.950 . S
C593 C584 1.390 . S
C593 H586 0.950 . S
C593 C590 1.387 . S
C594 C595 1.387 . S
C594 H598 0.950 . S
C594 C603 1.390 . S
C595 C594 1.387 . S
C595 C597 1.387 . S
H596 C603 0.950 . S
C597 C595 1.387 . S
C597 C599 1.390 . S
C597 H601 0.950 . S
H598 C594 0.950 . S
C599 C597 1.390 . S
C599 C600 1.387 . S
C599 H602 0.950 . S
C600 C599 1.387 . S
C600 C603 1.387 . S
H601 C597 0.950 . S
H602 C599 0.950 . S
C603 C594 1.390 . S
C603 H596 0.950 . S
C603 C600 1.387 . S
C604 C605 1.387 . S
C604 H608 0.950 . S
C604 C613 1.390 . S
C605 C604 1.387 . S
C605 C607 1.387 . S
H606 C613 0.950 . S
C607 C605 1.387 . S
C607 C609 1.390 . S
C607 H611 0.950 . S
H608 C604 0.950 . S
C609 C607 1.390 . S
C609 C610 1.387 . S
C609 H612 0.950 . S
C610 C609 1.387 . S
C610 C613 1.387 . S
H611 C607 0.950 . S
H612 C609 0.950 . S
C613 C604 1.390 . S
C613 H606 0.950 . S
C613 C610 1.387 . S
C614 C615 1.387 . S
C614 H618 0.950 . S
C614 C623 1.390 . S
C615 C614 1.387 . S
C615 C617 1.387 . S
H616 C623 0.950 . S
C617 C615 1.387 . S
C617 C619 1.390 . S
C617 H621 0.950 . S
H618 C614 0.950 . S
C619 C617 1.390 . S
C619 C620 1.387 . S
C619 H622 0.950 . S
C620 C619 1.387 . S
C620 C623 1.387 . S
H621 C617 0.950 . S
H622 C619 0.950 . S
C623 C614 1.390 . S
C623 H616 0.950 . S
C623 C620 1.387 . S
C624 C625 1.387 . S
C624 H628 0.950 1_565 S
C624 C633 1.390 . S
C625 C624 1.387 . S
C625 C627 1.387 . S
H626 C633 0.950 1_545 S
C627 C625 1.387 . S
C627 C629 1.390 . S
C627 H631 0.950 . S
H628 C624 0.950 1_545 S
C629 C627 1.390 . S
C629 C630 1.387 . S
C629 H632 0.950 . S
C630 C629 1.387 . S
C630 C633 1.387 . S
H631 C627 0.950 . S
H632 C629 0.950 . S
C633 C624 1.390 . S
C633 H626 0.950 1_565 S
C633 C630 1.387 . S
C634 C635 1.387 . S
C634 H638 0.950 . S
C634 C643 1.390 . S
C635 C634 1.387 . S
C635 C637 1.387 . S
H636 C643 0.950 . S
C637 C635 1.387 . S
C637 C639 1.390 . S
C637 H641 0.950 . S
H638 C634 0.950 . S
C639 C637 1.390 . S
C639 C640 1.387 . S
C639 H642 0.950 . S
C640 C639 1.387 . S
C640 C643 1.387 . S
H641 C637 0.950 . S
H642 C639 0.950 . S
C643 C634 1.390 . S
C643 H636 0.950 . S
C643 C640 1.387 . S
C644 C645 1.387 . S
C644 H648 0.950 . S
C644 C653 1.390 . S
C645 C644 1.387 . S
C645 C647 1.387 . S
H646 C653 0.950 . S
C647 C645 1.387 . S
C647 C649 1.390 . S
C647 H651 0.950 . S
H648 C644 0.950 . S
C649 C647 1.390 . S
C649 C650 1.387 . S
C649 H652 0.950 . S
C650 C649 1.387 . S
C650 C653 1.387 . S
H651 C647 0.950 . S
H652 C649 0.950 . S
C653 C644 1.390 . S
C653 H646 0.950 . S
C653 C650 1.387 . S
C654 C655 1.387 . S
C654 H658 0.950 . S
C654 C663 1.390 . S
C655 C654 1.387 . S
C655 C657 1.387 . S
H656 C663 0.950 . S
C657 C655 1.387 . S
C657 C659 1.390 . S
C657 H661 0.950 . S
H658 C654 0.950 . S
C659 C657 1.390 . S
C659 C660 1.387 . S
C659 H662 0.950 . S
C660 C659 1.387 . S
C660 C663 1.387 . S
H661 C657 0.950 . S
H662 C659 0.950 . S
C663 C654 1.390 . S
C663 H656 0.950 . S
C663 C660 1.387 . S
C664 C665 1.387 . S
C664 H668 0.950 . S
C664 C673 1.390 . S
C665 C664 1.387 . S
C665 C667 1.387 . S
H666 C673 0.950 . S
C667 C665 1.387 . S
C667 C669 1.390 . S
C667 H671 0.950 . S
H668 C664 0.950 . S
C669 C667 1.390 . S
C669 C670 1.387 . S
C669 H672 0.950 . S
C670 C669 1.387 . S
C670 C673 1.387 . S
H671 C667 0.950 . S
H672 C669 0.950 . S
C673 C664 1.390 . S
C673 H666 0.950 . S
C673 C670 1.387 . S
C674 C675 1.387 . S
C674 H678 0.950 . S
C674 C683 1.390 . S
C675 C674 1.387 . S
C675 C677 1.387 . S
H676 C683 0.950 . S
C677 C675 1.387 . S
C677 C679 1.390 . S
C677 H681 0.950 . S
H678 C674 0.950 . S
C679 C677 1.390 . S
C679 C680 1.387 . S
C679 H682 0.950 . S
C680 C679 1.387 . S
C680 C683 1.387 . S
H681 C677 0.950 . S
H682 C679 0.950 . S
C683 C674 1.390 . S
C683 H676 0.950 . S
C683 C680 1.387 . S
C684 C685 1.409 . S
C684 H688 0.950 . S
C684 C693 1.390 . S
C685 C684 1.409 . S
C685 C687 1.377 . S
H686 C693 0.950 . S
C687 C685 1.377 . S
C687 C689 1.390 . S
C687 H691 0.950 1_655 S
H688 C684 0.950 . S
C689 C687 1.390 . S
C689 C690 1.387 . S
C689 H692 0.950 . S
C690 C689 1.387 . S
C690 C693 1.387 . S
H691 C687 0.950 1_455 S
H692 C689 0.950 . S
C693 C684 1.390 . S
C693 H686 0.950 . S
C693 C690 1.387 . S
C694 C695 1.387 . S
C694 H698 0.950 . S
C694 C703 1.390 . S
C695 C694 1.387 . S
C695 C697 1.387 . S
H696 C703 0.950 . S
C697 C695 1.387 . S
C697 C699 1.390 . S
C697 H701 0.950 . S
H698 C694 0.950 . S
C699 C697 1.390 . S
C699 C700 1.387 . S
C699 H702 0.950 . S
C700 C699 1.387 . S
C700 C703 1.387 . S
H701 C697 0.950 . S
H702 C699 0.950 . S
C703 C694 1.390 . S
C703 H696 0.950 . S
C703 C700 1.387 . S
C704 C705 1.387 . S
C704 H708 0.950 . S
C704 C713 1.390 . S
C705 C704 1.387 . S
C705 C707 1.387 . S
H706 C713 0.950 . S
C707 C705 1.387 . S
C707 C709 1.390 . S
C707 H711 0.950 . S
H708 C704 0.950 . S
C709 C707 1.390 . S
C709 C710 1.387 . S
C709 H712 0.950 . S
C710 C709 1.387 . S
C710 C713 1.387 . S
H711 C707 0.950 . S
H712 C709 0.950 . S
C713 C704 1.390 . S
C713 H706 0.950 . S
C713 C710 1.387 . S
C714 C715 1.387 1_545 S
C714 H718 0.950 . S
C714 C723 1.390 . S
C715 C714 1.387 1_565 S
C715 C717 1.387 . S
H716 C723 0.950 . S
C717 C715 1.387 . S
C717 C719 1.390 . S
C717 H721 0.950 . S
H718 C714 0.950 . S
C719 C717 1.390 . S
C719 C720 1.387 . S
C719 H722 0.950 . S
C720 C719 1.387 . S
C720 C723 1.387 1_565 S
H721 C717 0.950 . S
H722 C719 0.950 . S
C723 C714 1.390 . S
C723 H716 0.950 . S
C723 C720 1.387 1_545 S
C724 C725 1.387 . S
C724 H728 0.950 . S
C724 C733 1.390 . S
C725 C724 1.387 . S
C725 C727 1.387 . S
H726 C733 0.950 . S
C727 C725 1.387 . S
C727 C729 1.390 . S
C727 H731 0.950 . S
H728 C724 0.950 . S
C729 C727 1.390 . S
C729 C730 1.387 . S
C729 H732 0.950 . S
C730 C729 1.387 . S
C730 C733 1.387 . S
H731 C727 0.950 . S
H732 C729 0.950 . S
C733 C724 1.390 . S
C733 H726 0.950 . S
C733 C730 1.387 . S
C734 C735 1.387 . S
C734 H738 0.950 . S
C734 C743 1.390 . S
C735 C734 1.387 . S
C735 C737 1.387 . S
H736 C743 0.950 . S
C737 C735 1.387 . S
C737 C739 1.390 . S
C737 H741 0.950 . S
H738 C734 0.950 . S
C739 C737 1.390 . S
C739 C740 1.387 . S
C739 H742 0.950 . S
C740 C739 1.387 . S
C740 C743 1.387 . S
H741 C737 0.950 . S
H742 C739 0.950 . S
C743 C734 1.390 . S
C743 H736 0.950 . S
C743 C740 1.387 . S
C744 C745 1.387 . S
C744 H748 0.950 . S
C744 C753 1.390 . S
C745 C744 1.387 . S
C745 C747 1.387 . S
H746 C753 0.950 . S
C747 C745 1.387 . S
C747 C749 1.390 . S
C747 H751 0.950 . S
H748 C744 0.950 . S
C749 C747 1.390 . S
C749 C750 1.387 . S
C749 H752 0.950 . S
C750 C749 1.387 . S
C750 C753 1.387 . S
H751 C747 0.950 . S
H752 C749 0.950 . S
C753 C744 1.390 . S
C753 H746 0.950 . S
C753 C750 1.387 . S
C754 C755 1.387 . S
C754 H758 0.950 . S
C754 C763 1.390 . S
C755 C754 1.387 . S
C755 C757 1.387 . S
H756 C763 0.950 . S
C757 C755 1.387 . S
C757 C759 1.390 . S
C757 H761 0.950 . S
H758 C754 0.950 . S
C759 C757 1.390 . S
C759 C760 1.387 . S
C759 H762 0.950 . S
C760 C759 1.387 . S
C760 C763 1.387 . S
H761 C757 0.950 . S
H762 C759 0.950 . S
C763 C754 1.390 . S
C763 H756 0.950 . S
C763 C760 1.387 . S
C764 C765 1.387 . S
C764 H768 0.950 . S
C764 C773 1.390 . S
C765 C764 1.387 . S
C765 C767 1.387 1_565 S
H766 C773 0.950 . S
C767 C765 1.387 1_545 S
C767 C769 1.390 . S
C767 H771 0.950 . S
H768 C764 0.950 . S
C769 C767 1.390 . S
C769 C770 1.387 1_545 S
C769 H772 0.950 . S
C770 C769 1.387 1_565 S
C770 C773 1.387 . S
H771 C767 0.950 . S
H772 C769 0.950 . S
C773 C764 1.390 . S
C773 H766 0.950 . S
C773 C770 1.387 . S
C774 C775 1.387 . S
C774 H778 0.950 . S
C774 C783 1.390 . S
C775 C774 1.387 . S
C775 C777 1.387 . S
H776 C783 0.950 . S
C777 C775 1.387 . S
C777 C779 1.390 . S
C777 H781 0.950 . S
H778 C774 0.950 . S
C779 C777 1.390 . S
C779 C780 1.387 . S
C779 H782 0.950 . S
C780 C779 1.387 . S
C780 C783 1.387 . S
H781 C777 0.950 . S
H782 C779 0.950 . S
C783 C774 1.390 . S
C783 H776 0.950 . S
C783 C780 1.387 . S
C784 C785 1.387 1_455 S
C784 H788 0.950 . S
C784 C793 1.390 . S
C785 C784 1.387 1_655 S
C785 C787 1.387 . S
H786 C793 0.950 . S
C787 C785 1.387 . S
C787 C789 1.390 . S
C787 H791 0.950 . S
H788 C784 0.950 . S
C789 C787 1.390 . S
C789 C790 1.387 . S
C789 H792 0.950 . S
C790 C789 1.387 . S
C790 C793 1.387 1_655 S
H791 C787 0.950 . S
H792 C789 0.950 . S
C793 C784 1.390 . S
C793 H786 0.950 . S
C793 C790 1.387 1_455 S
C794 C795 1.387 . S
C794 H798 0.950 . S
C794 C803 1.390 . S
C795 C794 1.387 . S
C795 C797 1.387 . S
H796 C803 0.950 . S
C797 C795 1.387 . S
C797 C799 1.390 . S
C797 H801 0.950 . S
H798 C794 0.950 . S
C799 C797 1.390 . S
C799 C800 1.387 . S
C799 H802 0.950 . S
C800 C799 1.387 . S
C800 C803 1.387 . S
H801 C797 0.950 . S
H802 C799 0.950 . S
C803 C794 1.390 . S
C803 H796 0.950 . S
C803 C800 1.387 . S
C804 C805 1.387 . S
C804 H808 0.950 . S
C804 C813 1.390 . S
C805 C804 1.387 . S
C805 C807 1.387 . S
H806 C813 0.950 . S
C807 C805 1.387 . S
C807 C809 1.390 . S
C807 H811 0.950 . S
H808 C804 0.950 . S
C809 C807 1.390 . S
C809 C810 1.387 . S
C809 H812 0.950 . S
C810 C809 1.387 . S
C810 C813 1.387 . S
H811 C807 0.950 . S
H812 C809 0.950 . S
C813 C804 1.390 . S
C813 H806 0.950 . S
C813 C810 1.387 . S
C814 C815 1.387 . S
C814 H818 0.950 . S
C814 C823 1.390 . S
C815 C814 1.387 . S
C815 C817 1.387 . S
H816 C823 0.950 . S
C817 C815 1.387 . S
C817 C819 1.390 . S
C817 H821 0.950 . S
H818 C814 0.950 . S
C819 C817 1.390 . S
C819 C820 1.387 . S
C819 H822 0.950 . S
C820 C819 1.387 . S
C820 C823 1.387 . S
H821 C817 0.950 . S
H822 C819 0.950 . S
C823 C814 1.390 . S
C823 H816 0.950 . S
C823 C820 1.387 . S
C824 C825 1.387 . S
C824 H828 0.950 1_455 S
C824 C833 1.390 . S
C825 C824 1.387 . S
C825 C827 1.387 . S
H826 C833 0.950 . S
C827 C825 1.387 . S
C827 C829 1.390 . S
C827 H831 0.950 . S
H828 C824 0.950 1_655 S
C829 C827 1.390 . S
C829 C830 1.387 . S
C829 H832 0.950 . S
C830 C829 1.387 . S
C830 C833 1.387 . S
H831 C827 0.950 . S
H832 C829 0.950 . S
C833 C824 1.390 . S
C833 H826 0.950 . S
C833 C830 1.387 . S
C834 C835 1.387 . S
C834 H838 0.950 . S
C834 C843 1.390 . S
C835 C834 1.387 . S
C835 C837 1.387 . S
H836 C843 0.950 . S
C837 C835 1.387 . S
C837 C839 1.390 . S
C837 H841 0.950 . S
H838 C834 0.950 . S
C839 C837 1.390 . S
C839 C840 1.387 . S
C839 H842 0.950 . S
C840 C839 1.387 . S
C840 C843 1.387 . S
H841 C837 0.950 . S
H842 C839 0.950 . S
C843 C834 1.390 . S
C843 H836 0.950 . S
C843 C840 1.387 . S
C844 C845 1.387 . S
C844 H848 0.950 . S
C844 C853 1.390 . S
C845 C844 1.387 . S
C845 C847 1.387 . S
H846 C853 0.950 . S
C847 C845 1.387 . S
C847 C849 1.390 . S
C847 H851 0.950 . S
H848 C844 0.950 . S
C849 C847 1.390 . S
C849 C850 1.387 . S
C849 H852 0.950 . S
C850 C849 1.387 . S
C850 C853 1.387 . S
H851 C847 0.950 . S
H852 C849 0.950 . S
C853 C844 1.390 . S
C853 H846 0.950 . S
C853 C850 1.387 . S
C854 C855 1.387 . S
C854 H858 0.950 . S
C854 C863 1.390 . S
C855 C854 1.387 . S
C855 C857 1.387 . S
H856 C863 0.950 . S
C857 C855 1.387 . S
C857 C859 1.390 . S
C857 H861 0.950 . S
H858 C854 0.950 . S
C859 C857 1.390 . S
C859 C860 1.387 . S
C859 H862 0.950 . S
C860 C859 1.387 . S
C860 C863 1.387 . S
H861 C857 0.950 . S
H862 C859 0.950 . S
C863 C854 1.390 . S
C863 H856 0.950 . S
C863 C860 1.387 . S
C864 C865 1.387 . S
C864 H868 0.950 . S
C864 C873 1.390 1_554 S
C865 C864 1.387 . S
C865 C867 1.387 . S
H866 C873 0.950 . S
C867 C865 1.387 . S
C867 C869 1.390 1_554 S
C867 H871 0.950 1_455 S
H868 C864 0.950 . S
C869 C867 1.390 1_556 S
C869 C870 1.387 . S
C869 H872 0.950 . S
C870 C869 1.387 . S
C870 C873 1.387 . S
H871 C867 0.950 1_655 S
H872 C869 0.950 . S
C873 C864 1.390 1_556 S
C873 H866 0.950 . S
C873 C870 1.387 . S
C874 C875 1.387 . S
C874 H878 0.950 . S
C874 C883 1.390 1_556 S
C875 C874 1.387 . S
C875 C877 1.387 . S
H876 C883 0.950 . S
C877 C875 1.387 . S
C877 C879 1.390 1_556 S
C877 H881 0.950 . S
H878 C874 0.950 . S
C879 C877 1.390 1_554 S
C879 C880 1.387 . S
C879 H882 0.950 . S
C880 C879 1.387 . S
C880 C883 1.387 . S
H881 C877 0.950 . S
H882 C879 0.950 . S
C883 C874 1.390 1_554 S
C883 H876 0.950 . S
C883 C880 1.387 . S
C884 C885 1.387 . S
C884 H888 0.950 . S
C884 C893 1.390 1_556 S
C885 C884 1.387 . S
C885 C887 1.387 . S
H886 C893 0.950 . S
C887 C885 1.387 . S
C887 C889 1.390 1_556 S
C887 H891 0.950 . S
H888 C884 0.950 . S
C889 C887 1.390 1_554 S
C889 C890 1.387 . S
C889 H892 0.950 . S
C890 C889 1.387 . S
C890 C893 1.387 . S
H891 C887 0.950 . S
H892 C889 0.950 . S
C893 C884 1.390 1_554 S
C893 H886 0.950 . S
C893 C890 1.387 . S
C894 C895 1.387 . S
C894 H898 0.950 . S
C894 C903 1.390 1_556 S
C895 C894 1.387 . S
C895 C897 1.387 . S
H896 C903 0.950 . S
C897 C895 1.387 . S
C897 C899 1.390 1_556 S
C897 H901 0.950 . S
H898 C894 0.950 . S
C899 C897 1.390 1_554 S
C899 C900 1.387 . S
C899 H902 0.945 1_455 S
C900 C899 1.387 . S
C900 C903 1.387 . S
H901 C897 0.950 . S
H902 C899 0.945 1_655 S
C903 C894 1.390 1_554 S
C903 H896 0.950 . S
C903 C900 1.387 . S
C904 C905 1.387 . S
C904 H908 0.950 . S
C904 C913 1.390 1_554 S
C905 C904 1.387 . S
C905 C907 1.387 . S
H906 C913 0.950 . S
C907 C905 1.387 . S
C907 C909 1.390 1_554 S
C907 H911 0.950 . S
H908 C904 0.950 . S
C909 C907 1.390 1_556 S
C909 C910 1.387 . S
C909 H912 0.950 . S
C910 C909 1.387 . S
C910 C913 1.387 . S
H911 C907 0.950 . S
H912 C909 0.950 . S
C913 C904 1.390 1_556 S
C913 H906 0.950 . S
C913 C910 1.387 . S
C914 C915 1.387 . S
C914 H918 0.950 . S
C914 C923 1.390 1_556 S
C915 C914 1.387 . S
C915 C917 1.387 . S
H916 C923 0.950 . S
C917 C915 1.387 . S
C917 C919 1.390 1_556 S
C917 H921 0.950 . S
H918 C914 0.950 . S
C919 C917 1.390 1_554 S
C919 C920 1.387 . S
C919 H922 0.950 . S
C920 C919 1.387 . S
C920 C923 1.387 . S
H921 C917 0.950 . S
H922 C919 0.950 . S
C923 C914 1.390 1_554 S
C923 H916 0.950 . S
C923 C920 1.387 . S
C924 C925 1.387 . S
C924 H928 0.950 . S
C924 C933 1.390 . S
C925 C924 1.387 . S
C925 C927 1.387 . S
H926 C933 0.950 . S
C927 C925 1.387 . S
C927 C929 1.390 . S
C927 H931 0.950 . S
H928 C924 0.950 . S
C929 C927 1.390 . S
C929 C930 1.387 . S
C929 H932 0.950 . S
C930 C929 1.387 . S
C930 C933 1.387 . S
H931 C927 0.950 . S
H932 C929 0.950 . S
C933 C924 1.390 . S
C933 H926 0.950 . S
C933 C930 1.387 . S
C934 C935 1.387 . S
C934 H938 0.950 . S
C934 C943 1.390 . S
C935 C934 1.387 . S
C935 C937 1.387 . S
H936 C943 0.950 . S
C937 C935 1.387 . S
C937 C939 1.390 . S
C937 H941 0.950 . S
H938 C934 0.950 . S
C939 C937 1.390 . S
C939 C940 1.387 . S
C939 H942 0.950 . S
C940 C939 1.387 . S
C940 C943 1.387 . S
H941 C937 0.950 . S
H942 C939 0.950 . S
C943 C934 1.390 . S
C943 H936 0.950 . S
C943 C940 1.387 . S
C944 C945 1.387 . S
C944 H948 0.950 . S
C944 C953 1.390 . S
C945 C944 1.387 . S
C945 C947 1.387 . S
H946 C953 0.950 . S
C947 C945 1.387 . S
C947 C949 1.390 . S
C947 H951 0.950 1_655 S
H948 C944 0.950 . S
C949 C947 1.390 . S
C949 C950 1.387 . S
C949 H952 0.964 . S
C950 C949 1.387 . S
C950 C953 1.387 . S
H951 C947 0.950 1_455 S
H952 C949 0.964 . S
C953 C944 1.390 . S
C953 H946 0.950 . S
C953 C950 1.387 . S
C954 C955 1.387 . S
C954 H958 0.950 . S
C954 C963 1.390 . S
C955 C954 1.387 . S
C955 C957 1.387 . S
H956 C963 0.950 . S
C957 C955 1.387 . S
C957 C959 1.390 . S
C957 H961 0.950 . S
H958 C954 0.950 . S
C959 C957 1.390 . S
C959 C960 1.387 . S
C959 H962 0.950 . S
C960 C959 1.387 . S
C960 C963 1.387 . S
H961 C957 0.950 . S
H962 C959 0.950 . S
C963 C954 1.390 . S
C963 H956 0.950 . S
C963 C960 1.387 . S
C964 C965 1.387 . S
C964 H968 0.950 . S
C964 C973 1.390 . S
C965 C964 1.387 . S
C965 C967 1.387 . S
H966 C973 0.950 . S
C967 C965 1.387 . S
C967 C969 1.390 . S
C967 H971 0.950 . S
H968 C964 0.950 . S
C969 C967 1.390 . S
C969 C970 1.387 . S
C969 H972 0.950 . S
C970 C969 1.387 . S
C970 C973 1.387 . S
H971 C967 0.950 . S
H972 C969 0.950 . S
C973 C964 1.390 . S
C973 H966 0.950 . S
C973 C970 1.387 . S
C974 C975 1.387 . S
C974 H978 0.950 . S
C974 C983 1.390 . S
C975 C974 1.387 . S
C975 C977 1.387 . S
H976 C983 0.950 . S
C977 C975 1.387 . S
C977 C979 1.390 . S
C977 H981 0.950 . S
H978 C974 0.950 . S
C979 C977 1.390 . S
C979 C980 1.387 . S
C979 H982 0.950 . S
C980 C979 1.387 . S
C980 C983 1.387 . S
H981 C977 0.950 . S
H982 C979 0.950 . S
C983 C974 1.390 . S
C983 H976 0.950 . S
C983 C980 1.387 . S
C984 C985 1.387 . S
C984 H988 0.950 1_565 S
C984 C993 1.390 . S
C985 C984 1.387 . S
C985 C987 1.387 . S
H986 C993 0.950 1_545 S
C987 C985 1.387 . S
C987 C989 1.390 . S
C987 H991 0.950 . S
H988 C984 0.950 1_545 S
C989 C987 1.390 . S
C989 C990 1.387 . S
C989 H992 0.950 . S
C990 C989 1.387 . S
C990 C993 1.387 . S
H991 C987 0.950 . S
H992 C989 0.950 . S
C993 C984 1.390 . S
C993 H986 0.950 1_565 S
C993 C990 1.387 . S
C994 C995 1.387 . S
C994 H998 0.950 . S
C994 C1003 1.390 . S
C995 C994 1.387 . S
C995 C997 1.387 . S
H996 C1003 0.950 . S
C997 C995 1.387 . S
C997 C999 1.390 . S
C997 H1001 0.950 . S
H998 C994 0.950 . S
C999 C997 1.390 . S
C999 C1000 1.387 . S
C999 H1002 0.950 . S
C1000 C999 1.387 . S
C1000 C1003 1.387 . S
H1001 C997 0.950 . S
H1002 C999 0.950 . S
C1003 C994 1.390 . S
C1003 H996 0.950 . S
C1003 C1000 1.387 . S
C1004 C1005 1.387 . S
C1004 H1008 0.950 . S
C1004 C1013 1.390 . S
C1005 C1004 1.387 . S
C1005 C1007 1.387 . S
H1006 C1013 0.950 . S
C1007 C1005 1.387 . S
C1007 C1009 1.390 . S
C1007 H1011 0.950 . S
H1008 C1004 0.950 . S
C1009 C1007 1.390 . S
C1009 C1010 1.387 . S
C1009 H1012 0.950 . S
C1010 C1009 1.387 . S
C1010 C1013 1.387 . S
H1011 C1007 0.950 . S
H1012 C1009 0.950 . S
C1013 C1004 1.390 . S
C1013 H1006 0.950 . S
C1013 C1010 1.387 . S
C1014 C1015 1.387 . S
C1014 H1018 0.950 . S
C1014 C1023 1.390 . S
C1015 C1014 1.387 . S
C1015 C1017 1.387 . S
H1016 C1023 0.950 . S
C1017 C1015 1.387 . S
C1017 C1019 1.390 . S
C1017 H1021 0.950 . S
H1018 C1014 0.950 . S
C1019 C1017 1.390 . S
C1019 C1020 1.387 . S
C1019 H1022 0.950 . S
C1020 C1019 1.387 . S
C1020 C1023 1.387 . S
H1021 C1017 0.950 . S
H1022 C1019 0.950 . S
C1023 C1014 1.390 . S
C1023 H1016 0.950 . S
C1023 C1020 1.387 . S
C1024 C1025 1.387 . S
C1024 H1028 0.950 . S
C1024 C1033 1.390 . S
C1025 C1024 1.387 . S
C1025 C1027 1.387 . S
H1026 C1033 0.950 . S
C1027 C1025 1.387 . S
C1027 C1029 1.390 . S
C1027 H1031 0.950 . S
H1028 C1024 0.950 . S
C1029 C1027 1.390 . S
C1029 C1030 1.387 . S
C1029 H1032 0.950 1_565 S
C1030 C1029 1.387 . S
C1030 C1033 1.387 . S
H1031 C1027 0.950 . S
H1032 C1029 0.950 1_545 S
C1033 C1024 1.390 . S
C1033 H1026 0.950 . S
C1033 C1030 1.387 . S
C1034 C1035 1.387 . S
C1034 H1038 0.950 . S
C1034 C1043 1.390 . S
C1035 C1034 1.387 . S
C1035 C1037 1.387 . S
H1036 C1043 0.950 . S
C1037 C1035 1.387 . S
C1037 C1039 1.390 . S
C1037 H1041 0.950 . S
H1038 C1034 0.950 . S
C1039 C1037 1.390 . S
C1039 C1040 1.387 . S
C1039 H1042 0.950 . S
C1040 C1039 1.387 . S
C1040 C1043 1.387 . S
H1041 C1037 0.950 . S
H1042 C1039 0.950 . S
C1043 C1034 1.390 . S
C1043 H1036 0.950 . S
C1043 C1040 1.387 . S
C1044 C1045 1.387 . S
C1044 H1048 0.950 . S
C1044 C1053 1.390 . S
C1045 C1044 1.387 . S
C1045 C1047 1.387 . S
H1046 C1053 0.950 . S
C1047 C1045 1.387 . S
C1047 C1049 1.390 . S
C1047 H1051 0.950 . S
H1048 C1044 0.950 . S
C1049 C1047 1.390 . S
C1049 C1050 1.387 . S
C1049 H1052 0.950 . S
C1050 C1049 1.387 . S
C1050 C1053 1.387 . S
H1051 C1047 0.950 . S
H1052 C1049 0.950 . S
C1053 C1044 1.390 . S
C1053 H1046 0.950 . S
C1053 C1050 1.387 . S
C1054 C1055 1.387 . S
C1054 H1058 0.950 . S
C1054 C1063 1.390 . S
C1055 C1054 1.387 . S
C1055 C1057 1.387 . S
H1056 C1063 0.950 . S
C1057 C1055 1.387 . S
C1057 C1059 1.390 . S
C1057 H1061 0.950 . S
H1058 C1054 0.950 . S
C1059 C1057 1.390 . S
C1059 C1060 1.387 . S
C1059 H1062 0.950 . S
C1060 C1059 1.387 . S
C1060 C1063 1.387 . S
H1061 C1057 0.950 . S
H1062 C1059 0.950 . S
C1063 C1054 1.390 . S
C1063 H1056 0.950 . S
C1063 C1060 1.387 . S
C1064 C1065 1.387 . S
C1064 H1068 0.950 . S
C1064 C1073 1.390 . S
C1065 C1064 1.387 . S
C1065 C1067 1.387 . S
H1066 C1073 0.950 . S
C1067 C1065 1.387 . S
C1067 C1069 1.390 . S
C1067 H1071 0.950 . S
H1068 C1064 0.950 . S
C1069 C1067 1.390 . S
C1069 C1070 1.387 . S
C1069 H1072 0.950 . S
C1070 C1069 1.387 . S
C1070 C1073 1.387 . S
H1071 C1067 0.950 . S
H1072 C1069 0.950 . S
C1073 C1064 1.390 . S
C1073 H1066 0.950 . S
C1073 C1070 1.387 . S
C1074 C1075 1.387 . S
C1074 H1078 0.950 . S
C1074 C1083 1.390 . S
C1075 C1074 1.387 . S
C1075 C1077 1.387 . S
H1076 C1083 0.950 . S
C1077 C1075 1.387 . S
C1077 C1079 1.390 . S
C1077 H1081 0.950 . S
H1078 C1074 0.950 . S
C1079 C1077 1.390 . S
C1079 C1080 1.387 . S
C1079 H1082 0.950 . S
C1080 C1079 1.387 . S
C1080 C1083 1.387 . S
H1081 C1077 0.950 . S
H1082 C1079 0.950 . S
C1083 C1074 1.390 . S
C1083 H1076 0.950 . S
C1083 C1080 1.387 . S
C1084 C1085 1.387 . S
C1084 H1088 0.950 . S
C1084 C1093 1.390 . S
C1085 C1084 1.387 . S
C1085 C1087 1.387 . S
H1086 C1093 0.950 . S
C1087 C1085 1.387 . S
C1087 C1089 1.390 . S
C1087 H1091 0.950 . S
H1088 C1084 0.950 . S
C1089 C1087 1.390 . S
C1089 C1090 1.387 . S
C1089 H1092 0.950 . S
C1090 C1089 1.387 . S
C1090 C1093 1.387 . S
H1091 C1087 0.950 . S
H1092 C1089 0.950 . S
C1093 C1084 1.390 . S
C1093 H1086 0.950 . S
C1093 C1090 1.387 . S
C1094 C1095 1.387 . S
C1094 H1098 0.950 . S
C1094 C1103 1.390 . S
C1095 C1094 1.387 . S
C1095 C1097 1.387 . S
H1096 C1103 0.950 . S
C1097 C1095 1.387 . S
C1097 C1099 1.390 . S
C1097 H1101 0.950 . S
H1098 C1094 0.950 . S
C1099 C1097 1.390 . S
C1099 C1100 1.387 . S
C1099 H1102 0.950 . S
C1100 C1099 1.387 . S
C1100 C1103 1.387 . S
H1101 C1097 0.950 . S
H1102 C1099 0.950 . S
C1103 C1094 1.390 . S
C1103 H1096 0.950 . S
C1103 C1100 1.387 . S
C1104 C1105 1.387 . S
C1104 H1108 0.950 . S
C1104 C1113 1.390 . S
C1105 C1104 1.387 . S
C1105 C1107 1.387 . S
H1106 C1113 0.950 . S
C1107 C1105 1.387 . S
C1107 C1109 1.390 . S
C1107 H1111 0.950 . S
H1108 C1104 0.950 . S
C1109 C1107 1.390 . S
C1109 C1110 1.387 . S
C1109 H1112 0.950 . S
C1110 C1109 1.387 . S
C1110 C1113 1.387 . S
H1111 C1107 0.950 . S
H1112 C1109 0.950 . S
C1113 C1104 1.390 . S
C1113 H1106 0.950 . S
C1113 C1110 1.387 . S
C1114 C1115 1.387 . S
C1114 H1118 0.950 . S
C1114 C1123 1.390 . S
C1115 C1114 1.387 . S
C1115 C1117 1.387 . S
H1116 C1123 0.950 . S
C1117 C1115 1.387 . S
C1117 C1119 1.390 . S
C1117 H1121 0.950 . S
H1118 C1114 0.950 . S
C1119 C1117 1.390 . S
C1119 C1120 1.387 . S
C1119 H1122 0.950 . S
C1120 C1119 1.387 . S
C1120 C1123 1.387 . S
H1121 C1117 0.950 . S
H1122 C1119 0.950 . S
C1123 C1114 1.390 . S
C1123 H1116 0.950 . S
C1123 C1120 1.387 . S
C1124 C1125 1.387 . S
C1124 H1128 0.950 . S
C1124 C1133 1.390 . S
C1125 C1124 1.387 . S
C1125 C1127 1.387 . S
H1126 C1133 0.950 . S
C1127 C1125 1.387 . S
C1127 C1129 1.390 . S
C1127 H1131 0.950 . S
H1128 C1124 0.950 . S
C1129 C1127 1.390 . S
C1129 C1130 1.387 . S
C1129 H1132 0.950 . S
C1130 C1129 1.387 . S
C1130 C1133 1.387 . S
H1131 C1127 0.950 . S
H1132 C1129 0.950 . S
C1133 C1124 1.390 . S
C1133 H1126 0.950 . S
C1133 C1130 1.387 . S
C1134 C1135 1.387 . S
C1134 H1138 0.950 . S
C1134 C1143 1.390 . S
C1135 C1134 1.387 . S
C1135 C1137 1.387 . S
H1136 C1143 0.950 . S
C1137 C1135 1.387 . S
C1137 C1139 1.390 . S
C1137 H1141 0.950 . S
H1138 C1134 0.950 . S
C1139 C1137 1.390 . S
C1139 C1140 1.387 . S
C1139 H1142 0.950 . S
C1140 C1139 1.387 . S
C1140 C1143 1.387 . S
H1141 C1137 0.950 . S
H1142 C1139 0.950 . S
C1143 C1134 1.390 . S
C1143 H1136 0.950 . S
C1143 C1140 1.387 . S
C1144 C1145 1.387 . S
C1144 H1148 0.950 . S
C1144 C1153 1.390 . S
C1145 C1144 1.387 . S
C1145 C1147 1.387 . S
H1146 C1153 0.950 . S
C1147 C1145 1.387 . S
C1147 C1149 1.390 . S
C1147 H1151 0.950 . S
H1148 C1144 0.950 . S
C1149 C1147 1.390 . S
C1149 C1150 1.387 . S
C1149 H1152 0.950 . S
C1150 C1149 1.387 . S
C1150 C1153 1.387 . S
H1151 C1147 0.950 . S
H1152 C1149 0.950 . S
C1153 C1144 1.390 . S
C1153 H1146 0.950 . S
C1153 C1150 1.387 . S
C1154 C1155 1.387 . S
C1154 H1158 0.950 . S
C1154 C1163 1.390 . S
C1155 C1154 1.387 . S
C1155 C1157 1.387 . S
H1156 C1163 0.950 . S
C1157 C1155 1.387 . S
C1157 C1159 1.390 . S
C1157 H1161 0.950 . S
H1158 C1154 0.950 . S
C1159 C1157 1.390 . S
C1159 C1160 1.387 . S
C1159 H1162 0.950 . S
C1160 C1159 1.387 . S
C1160 C1163 1.387 . S
H1161 C1157 0.950 . S
H1162 C1159 0.950 . S
C1163 C1154 1.390 . S
C1163 H1156 0.950 . S
C1163 C1160 1.387 . S
C1164 C1165 1.387 . S
C1164 H1168 0.950 . S
C1164 C1173 1.390 . S
C1165 C1164 1.387 . S
C1165 C1167 1.387 . S
H1166 C1173 0.950 . S
C1167 C1165 1.387 . S
C1167 C1169 1.390 . S
C1167 H1171 0.950 . S
H1168 C1164 0.950 . S
C1169 C1167 1.390 . S
C1169 C1170 1.387 . S
C1169 H1172 0.950 . S
C1170 C1169 1.387 . S
C1170 C1173 1.387 . S
H1171 C1167 0.950 . S
H1172 C1169 0.950 . S
C1173 C1164 1.390 . S
C1173 H1166 0.950 . S
C1173 C1170 1.387 . S
C1174 C1175 1.387 . S
C1174 H1178 0.950 . S
C1174 C1183 1.390 . S
C1175 C1174 1.387 . S
C1175 C1177 1.387 . S
H1176 C1183 0.950 . S
C1177 C1175 1.387 . S
C1177 C1179 1.390 . S
C1177 H1181 0.950 . S
H1178 C1174 0.950 . S
C1179 C1177 1.390 . S
C1179 C1180 1.387 . S
C1179 H1182 0.950 . S
C1180 C1179 1.387 . S
C1180 C1183 1.387 . S
H1181 C1177 0.950 . S
H1182 C1179 0.950 . S
C1183 C1174 1.390 . S
C1183 H1176 0.950 . S
C1183 C1180 1.387 . S
C1184 C1185 1.387 . S
C1184 H1188 0.950 . S
C1184 C1193 1.390 . S
C1185 C1184 1.387 . S
C1185 C1187 1.387 . S
H1186 C1193 0.950 . S
C1187 C1185 1.387 . S
C1187 C1189 1.390 . S
C1187 H1191 0.950 . S
H1188 C1184 0.950 . S
C1189 C1187 1.390 . S
C1189 C1190 1.387 . S
C1189 H1192 0.950 . S
C1190 C1189 1.387 . S
C1190 C1193 1.387 . S
H1191 C1187 0.950 . S
H1192 C1189 0.950 . S
C1193 C1184 1.390 . S
C1193 H1186 0.950 . S
C1193 C1190 1.387 . S
C1194 C1195 1.387 . S
C1194 H1198 0.950 . S
C1194 C1203 1.390 . S
C1195 C1194 1.387 . S
C1195 C1197 1.387 . S
H1196 C1203 0.950 . S
C1197 C1195 1.387 . S
C1197 C1199 1.390 . S
C1197 H1201 0.950 . S
H1198 C1194 0.950 . S
C1199 C1197 1.390 . S
C1199 C1200 1.387 . S
C1199 H1202 0.950 . S
C1200 C1199 1.387 . S
C1200 C1203 1.387 . S
H1201 C1197 0.950 . S
H1202 C1199 0.950 . S
C1203 C1194 1.390 . S
C1203 H1196 0.950 . S
C1203 C1200 1.387 . S
C1204 C1205 1.387 . S
C1204 H1208 0.950 . S
C1204 C1213 1.390 . S
C1205 C1204 1.387 . S
C1205 C1207 1.387 . S
H1206 C1213 0.950 . S
C1207 C1205 1.387 . S
C1207 C1209 1.390 . S
C1207 H1211 0.950 1_565 S
H1208 C1204 0.950 . S
C1209 C1207 1.390 . S
C1209 C1210 1.387 . S
C1209 H1212 0.950 1_565 S
C1210 C1209 1.387 . S
C1210 C1213 1.387 . S
H1211 C1207 0.950 1_545 S
H1212 C1209 0.950 1_545 S
C1213 C1204 1.390 . S
C1213 H1206 0.950 . S
C1213 C1210 1.387 . S
C1214 C1215 1.387 . S
C1214 H1218 0.950 . S
C1214 C1223 1.390 . S
C1215 C1214 1.387 . S
C1215 C1217 1.387 . S
H1216 C1223 0.950 . S
C1217 C1215 1.387 . S
C1217 C1219 1.390 . S
C1217 H1221 0.950 . S
H1218 C1214 0.950 . S
C1219 C1217 1.390 . S
C1219 C1220 1.387 . S
C1219 H1222 0.950 . S
C1220 C1219 1.387 . S
C1220 C1223 1.387 . S
H1221 C1217 0.950 . S
H1222 C1219 0.950 . S
C1223 C1214 1.390 . S
C1223 H1216 0.950 . S
C1223 C1220 1.387 . S
C505 C6 1.420 . S
C510 C160 1.419 . S
C515 C132 1.421 . S
C520 C20 1.418 . S
C525 C146 1.418 . S
C530 C34 1.421 . S
C535 C48 1.418 . S
C540 C104 1.421 . S
C545 C62 1.421 . S
C550 C118 1.418 . S
C555 C76 1.420 . S
C560 C90 1.419 . S
C565 C174 1.418 . S
C570 C328 1.421 . S
C575 C300 1.421 . S
C580 C188 1.418 . S
C585 C202 1.421 . S
C590 C314 1.418 . S
C595 C216 1.418 . S
C600 C272 1.421 . S
C605 C230 1.418 . S
C610 C286 1.421 . S
C615 C244 1.420 . S
C620 C258 1.419 . S
C625 C342 1.419 . S
C630 C496 1.420 . S
C635 C356 1.418 . S
C640 C468 1.421 . S
C645 C482 1.421 . S
C650 C370 1.418 . S
C655 C384 1.421 . S
C660 C440 1.418 . S
C665 C454 1.418 . S
C670 C398 1.421 . S
C675 C426 1.420 . S
C680 C412 1.419 . S
C685 C7 1.420 1_655 S
C690 C217 1.426 . S
C695 C21 1.427 . S
C700 C231 1.427 . S
C705 C35 1.426 . S
C710 C245 1.426 . S
C715 C49 1.426 1_565 S
C720 C343 1.427 . S
C725 C357 1.426 . S
C730 C63 1.426 . S
C735 C371 1.427 . S
C740 C77 1.426 . S
C745 C91 1.427 . S
C750 C469 1.427 . S
C755 C483 1.426 . S
C760 C105 1.426 . S
C765 C119 1.426 1_565 S
C770 C497 1.427 . S
C775 C133 1.427 . S
C780 C259 1.427 . S
C785 C147 1.426 1_655 S
C790 C273 1.426 . S
C795 C161 1.427 . S
C800 C287 1.426 . S
C805 C385 1.426 . S
C810 C175 1.426 . S
C815 C189 1.427 . S
C820 C399 1.427 . S
C825 C203 1.426 . S
C830 C413 1.427 . S
C835 C427 1.427 . S
C840 C301 1.426 . S
C845 C441 1.426 . S
C850 C315 1.426 . S
C855 C329 1.427 . S
C860 C455 1.427 . S
C865 C8 1.330 . S
C870 C64 1.328 . S
C875 C78 1.326 . S
C880 C22 1.328 . S
C885 C50 1.329 . S
C890 C36 1.329 . S
C895 C92 1.330 . S
C900 C148 1.328 . S
C905 C162 1.326 . S
C910 C106 1.328 . S
C915 C120 1.329 . S
C920 C134 1.329 . S
C925 C232 1.328 . S
C930 C176 1.327 . S
C935 C190 1.327 . S
C940 C246 1.330 . S
C945 C204 1.327 . S
C950 C218 1.327 . S
C955 C316 1.327 . S
C960 C260 1.330 . S
C965 C330 1.326 . S
C970 C274 1.329 . S
C975 C302 1.327 . S
C980 C288 1.327 . S
C985 C344 1.329 . S
C990 C400 1.329 . S
C995 C358 1.328 . S
C1000 C414 1.326 . S
C1005 C372 1.329 . S
C1010 C386 1.329 . S
C1015 C484 1.328 . S
C1020 C428 1.330 . S
C1025 C498 1.330 . S
C1030 C442 1.328 . S
C1035 C470 1.327 . S
C1040 C456 1.327 . S
C1045 C135 1.901 . S
C1050 C9 1.902 . S
C1055 C149 1.902 . S
C1060 C23 1.901 . S
C1065 C37 1.902 . S
C1070 C163 1.901 . S
C1075 C51 1.901 . S
C1080 C93 1.902 . S
C1085 C107 1.901 . S
C1090 C65 1.901 . S
C1095 C79 1.902 . S
C1100 C121 1.901 . S
C1105 C303 1.901 . S
C1110 C177 1.902 . S
C1115 C317 1.902 . S
C1120 C191 1.901 . S
C1125 C205 1.900 . S
C1130 C331 1.901 . S
C1135 C261 1.902 . S
C1140 C219 1.901 . S
C1145 C275 1.901 . S
C1150 C233 1.901 . S
C1155 C289 1.901 . S
C1160 C247 1.902 . S
C1165 C345 1.902 . S
C1170 C471 1.901 . S
C1175 C485 1.901 . S
C1180 C359 1.901 . S
C1185 C373 1.901 . S
C1190 C499 1.902 . S
C1195 C387 1.901 . S
C1200 C429 1.902 . S
C1205 C401 1.901 . S
C1210 C443 1.901 . S
C1215 C457 1.901 . S
C1220 C415 1.902 . S
