# Generated by pormake.
# Topology xfs, (7)-cn, num edge types: 1
# Building blocks:
#     Node 0, Type 0, BuildingBlock: HICVOG_clean_sbu_0, # of connection points: 7
#     Node 1, Type 0, BuildingBlock: HICVOG_clean_sbu_0, # of connection points: 7
#     Node 2, Type 0, BuildingBlock: HICVOG_clean_sbu_0, # of connection points: 7
#     Node 3, Type 0, BuildingBlock: HICVOG_clean_sbu_0, # of connection points: 7
#     Node 4, Type 0, BuildingBlock: HICVOG_clean_sbu_0, # of connection points: 7
#     Node 5, Type 0, BuildingBlock: HICVOG_clean_sbu_0, # of connection points: 7
#     Node 6, Type 0, BuildingBlock: HICVOG_clean_sbu_0, # of connection points: 7
#     Node 7, Type 0, BuildingBlock: HICVOG_clean_sbu_0, # of connection points: 7
#     Node 8, Type 0, BuildingBlock: HICVOG_clean_sbu_0, # of connection points: 7
#     Node 9, Type 0, BuildingBlock: HICVOG_clean_sbu_0, # of connection points: 7
#     Node 10, Type 0, BuildingBlock: HICVOG_clean_sbu_0, # of connection points: 7
#     Node 11, Type 0, BuildingBlock: HICVOG_clean_sbu_0, # of connection points: 7
#     Node 12, Type 0, BuildingBlock: HICVOG_clean_sbu_0, # of connection points: 7
#     Node 13, Type 0, BuildingBlock: HICVOG_clean_sbu_0, # of connection points: 7
#     Node 14, Type 0, BuildingBlock: HICVOG_clean_sbu_0, # of connection points: 7
#     Node 15, Type 0, BuildingBlock: HICVOG_clean_sbu_0, # of connection points: 7
#     Node 16, Type 0, BuildingBlock: HICVOG_clean_sbu_0, # of connection points: 7
#     Node 17, Type 0, BuildingBlock: HICVOG_clean_sbu_0, # of connection points: 7
#     Node 18, Type 0, BuildingBlock: HICVOG_clean_sbu_0, # of connection points: 7
#     Node 19, Type 0, BuildingBlock: HICVOG_clean_sbu_0, # of connection points: 7
#     Node 20, Type 0, BuildingBlock: HICVOG_clean_sbu_0, # of connection points: 7
#     Node 21, Type 0, BuildingBlock: HICVOG_clean_sbu_0, # of connection points: 7
#     Node 22, Type 0, BuildingBlock: HICVOG_clean_sbu_0, # of connection points: 7
#     Node 23, Type 0, BuildingBlock: HICVOG_clean_sbu_0, # of connection points: 7
#     Node 24, Type 0, BuildingBlock: HICVOG_clean_sbu_0, # of connection points: 7
#     Node 25, Type 0, BuildingBlock: HICVOG_clean_sbu_0, # of connection points: 7
#     Node 26, Type 0, BuildingBlock: HICVOG_clean_sbu_0, # of connection points: 7
#     Node 27, Type 0, BuildingBlock: HICVOG_clean_sbu_0, # of connection points: 7
#     Node 28, Type 0, BuildingBlock: HICVOG_clean_sbu_0, # of connection points: 7
#     Node 29, Type 0, BuildingBlock: HICVOG_clean_sbu_0, # of connection points: 7
#     Node 30, Type 0, BuildingBlock: HICVOG_clean_sbu_0, # of connection points: 7
#     Node 31, Type 0, BuildingBlock: HICVOG_clean_sbu_0, # of connection points: 7
#     Edge 32, Type (0, 0), BuildingBlock: XIVTED_clean_linker_0, # of connection points: 2
#     Edge 33, Type (0, 0), BuildingBlock: XIVTED_clean_linker_0, # of connection points: 2
#     Edge 34, Type (0, 0), BuildingBlock: XIVTED_clean_linker_0, # of connection points: 2
#     Edge 35, Type (0, 0), BuildingBlock: XIVTED_clean_linker_0, # of connection points: 2
#     Edge 36, Type (0, 0), BuildingBlock: XIVTED_clean_linker_0, # of connection points: 2
#     Edge 37, Type (0, 0), BuildingBlock: XIVTED_clean_linker_0, # of connection points: 2
#     Edge 38, Type (0, 0), BuildingBlock: XIVTED_clean_linker_0, # of connection points: 2
#     Edge 39, Type (0, 0), BuildingBlock: XIVTED_clean_linker_0, # of connection points: 2
#     Edge 40, Type (0, 0), BuildingBlock: XIVTED_clean_linker_0, # of connection points: 2
#     Edge 41, Type (0, 0), BuildingBlock: XIVTED_clean_linker_0, # of connection points: 2
#     Edge 42, Type (0, 0), BuildingBlock: XIVTED_clean_linker_0, # of connection points: 2
#     Edge 43, Type (0, 0), BuildingBlock: XIVTED_clean_linker_0, # of connection points: 2
#     Edge 44, Type (0, 0), BuildingBlock: XIVTED_clean_linker_0, # of connection points: 2
#     Edge 45, Type (0, 0), BuildingBlock: XIVTED_clean_linker_0, # of connection points: 2
#     Edge 46, Type (0, 0), BuildingBlock: XIVTED_clean_linker_0, # of connection points: 2
#     Edge 47, Type (0, 0), BuildingBlock: XIVTED_clean_linker_0, # of connection points: 2
#     Edge 48, Type (0, 0), BuildingBlock: XIVTED_clean_linker_0, # of connection points: 2
#     Edge 49, Type (0, 0), BuildingBlock: XIVTED_clean_linker_0, # of connection points: 2
#     Edge 50, Type (0, 0), BuildingBlock: XIVTED_clean_linker_0, # of connection points: 2
#     Edge 51, Type (0, 0), BuildingBlock: XIVTED_clean_linker_0, # of connection points: 2
#     Edge 52, Type (0, 0), BuildingBlock: XIVTED_clean_linker_0, # of connection points: 2
#     Edge 53, Type (0, 0), BuildingBlock: XIVTED_clean_linker_0, # of connection points: 2
#     Edge 54, Type (0, 0), BuildingBlock: XIVTED_clean_linker_0, # of connection points: 2
#     Edge 55, Type (0, 0), BuildingBlock: XIVTED_clean_linker_0, # of connection points: 2
#     Edge 56, Type (0, 0), BuildingBlock: XIVTED_clean_linker_0, # of connection points: 2
#     Edge 57, Type (0, 0), BuildingBlock: XIVTED_clean_linker_0, # of connection points: 2
#     Edge 58, Type (0, 0), BuildingBlock: XIVTED_clean_linker_0, # of connection points: 2
#     Edge 59, Type (0, 0), BuildingBlock: XIVTED_clean_linker_0, # of connection points: 2
#     Edge 60, Type (0, 0), BuildingBlock: XIVTED_clean_linker_0, # of connection points: 2
#     Edge 61, Type (0, 0), BuildingBlock: XIVTED_clean_linker_0, # of connection points: 2
#     Edge 62, Type (0, 0), BuildingBlock: XIVTED_clean_linker_0, # of connection points: 2
#     Edge 63, Type (0, 0), BuildingBlock: XIVTED_clean_linker_0, # of connection points: 2
#     Edge 64, Type (0, 0), BuildingBlock: XIVTED_clean_linker_0, # of connection points: 2
#     Edge 65, Type (0, 0), BuildingBlock: XIVTED_clean_linker_0, # of connection points: 2
#     Edge 66, Type (0, 0), BuildingBlock: XIVTED_clean_linker_0, # of connection points: 2
#     Edge 67, Type (0, 0), BuildingBlock: XIVTED_clean_linker_0, # of connection points: 2
#     Edge 68, Type (0, 0), BuildingBlock: XIVTED_clean_linker_0, # of connection points: 2
#     Edge 69, Type (0, 0), BuildingBlock: XIVTED_clean_linker_0, # of connection points: 2
#     Edge 70, Type (0, 0), BuildingBlock: XIVTED_clean_linker_0, # of connection points: 2
#     Edge 71, Type (0, 0), BuildingBlock: XIVTED_clean_linker_0, # of connection points: 2
#     Edge 72, Type (0, 0), BuildingBlock: XIVTED_clean_linker_0, # of connection points: 2
#     Edge 73, Type (0, 0), BuildingBlock: XIVTED_clean_linker_0, # of connection points: 2
#     Edge 74, Type (0, 0), BuildingBlock: XIVTED_clean_linker_0, # of connection points: 2
#     Edge 75, Type (0, 0), BuildingBlock: XIVTED_clean_linker_0, # of connection points: 2
#     Edge 76, Type (0, 0), BuildingBlock: XIVTED_clean_linker_0, # of connection points: 2
#     Edge 77, Type (0, 0), BuildingBlock: XIVTED_clean_linker_0, # of connection points: 2
#     Edge 78, Type (0, 0), BuildingBlock: XIVTED_clean_linker_0, # of connection points: 2
#     Edge 79, Type (0, 0), BuildingBlock: XIVTED_clean_linker_0, # of connection points: 2
#     Edge 80, Type (0, 0), BuildingBlock: XIVTED_clean_linker_0, # of connection points: 2
#     Edge 81, Type (0, 0), BuildingBlock: XIVTED_clean_linker_0, # of connection points: 2
#     Edge 82, Type (0, 0), BuildingBlock: XIVTED_clean_linker_0, # of connection points: 2
#     Edge 83, Type (0, 0), BuildingBlock: XIVTED_clean_linker_0, # of connection points: 2
#     Edge 84, Type (0, 0), BuildingBlock: XIVTED_clean_linker_0, # of connection points: 2
#     Edge 85, Type (0, 0), BuildingBlock: XIVTED_clean_linker_0, # of connection points: 2
#     Edge 86, Type (0, 0), BuildingBlock: XIVTED_clean_linker_0, # of connection points: 2
#     Edge 87, Type (0, 0), BuildingBlock: XIVTED_clean_linker_0, # of connection points: 2
#     Edge 88, Type (0, 0), BuildingBlock: XIVTED_clean_linker_0, # of connection points: 2
#     Edge 89, Type (0, 0), BuildingBlock: XIVTED_clean_linker_0, # of connection points: 2
#     Edge 90, Type (0, 0), BuildingBlock: XIVTED_clean_linker_0, # of connection points: 2
#     Edge 91, Type (0, 0), BuildingBlock: XIVTED_clean_linker_0, # of connection points: 2
#     Edge 92, Type (0, 0), BuildingBlock: XIVTED_clean_linker_0, # of connection points: 2
#     Edge 93, Type (0, 0), BuildingBlock: XIVTED_clean_linker_0, # of connection points: 2
#     Edge 94, Type (0, 0), BuildingBlock: XIVTED_clean_linker_0, # of connection points: 2
#     Edge 95, Type (0, 0), BuildingBlock: XIVTED_clean_linker_0, # of connection points: 2
#     Edge 96, Type (0, 0), BuildingBlock: XIVTED_clean_linker_0, # of connection points: 2
#     Edge 97, Type (0, 0), BuildingBlock: XIVTED_clean_linker_0, # of connection points: 2
#     Edge 98, Type (0, 0), BuildingBlock: XIVTED_clean_linker_0, # of connection points: 2
#     Edge 99, Type (0, 0), BuildingBlock: XIVTED_clean_linker_0, # of connection points: 2
#     Edge 100, Type (0, 0), BuildingBlock: XIVTED_clean_linker_0, # of connection points: 2
#     Edge 101, Type (0, 0), BuildingBlock: XIVTED_clean_linker_0, # of connection points: 2
#     Edge 102, Type (0, 0), BuildingBlock: XIVTED_clean_linker_0, # of connection points: 2
#     Edge 103, Type (0, 0), BuildingBlock: XIVTED_clean_linker_0, # of connection points: 2
#     Edge 104, Type (0, 0), BuildingBlock: XIVTED_clean_linker_0, # of connection points: 2
#     Edge 105, Type (0, 0), BuildingBlock: XIVTED_clean_linker_0, # of connection points: 2
#     Edge 106, Type (0, 0), BuildingBlock: XIVTED_clean_linker_0, # of connection points: 2
#     Edge 107, Type (0, 0), BuildingBlock: XIVTED_clean_linker_0, # of connection points: 2
#     Edge 108, Type (0, 0), BuildingBlock: XIVTED_clean_linker_0, # of connection points: 2
#     Edge 109, Type (0, 0), BuildingBlock: XIVTED_clean_linker_0, # of connection points: 2
#     Edge 110, Type (0, 0), BuildingBlock: XIVTED_clean_linker_0, # of connection points: 2
#     Edge 111, Type (0, 0), BuildingBlock: XIVTED_clean_linker_0, # of connection points: 2
#     Edge 112, Type (0, 0), BuildingBlock: XIVTED_clean_linker_0, # of connection points: 2
#     Edge 113, Type (0, 0), BuildingBlock: XIVTED_clean_linker_0, # of connection points: 2
#     Edge 114, Type (0, 0), BuildingBlock: XIVTED_clean_linker_0, # of connection points: 2
#     Edge 115, Type (0, 0), BuildingBlock: XIVTED_clean_linker_0, # of connection points: 2
#     Edge 116, Type (0, 0), BuildingBlock: XIVTED_clean_linker_0, # of connection points: 2
#     Edge 117, Type (0, 0), BuildingBlock: XIVTED_clean_linker_0, # of connection points: 2
#     Edge 118, Type (0, 0), BuildingBlock: XIVTED_clean_linker_0, # of connection points: 2
#     Edge 119, Type (0, 0), BuildingBlock: XIVTED_clean_linker_0, # of connection points: 2
#     Edge 120, Type (0, 0), BuildingBlock: XIVTED_clean_linker_0, # of connection points: 2
#     Edge 121, Type (0, 0), BuildingBlock: XIVTED_clean_linker_0, # of connection points: 2
#     Edge 122, Type (0, 0), BuildingBlock: XIVTED_clean_linker_0, # of connection points: 2
#     Edge 123, Type (0, 0), BuildingBlock: XIVTED_clean_linker_0, # of connection points: 2
#     Edge 124, Type (0, 0), BuildingBlock: XIVTED_clean_linker_0, # of connection points: 2
#     Edge 125, Type (0, 0), BuildingBlock: XIVTED_clean_linker_0, # of connection points: 2
#     Edge 126, Type (0, 0), BuildingBlock: XIVTED_clean_linker_0, # of connection points: 2
#     Edge 127, Type (0, 0), BuildingBlock: XIVTED_clean_linker_0, # of connection points: 2
#     Edge 128, Type (0, 0), BuildingBlock: XIVTED_clean_linker_0, # of connection points: 2
#     Edge 129, Type (0, 0), BuildingBlock: XIVTED_clean_linker_0, # of connection points: 2
#     Edge 130, Type (0, 0), BuildingBlock: XIVTED_clean_linker_0, # of connection points: 2
#     Edge 131, Type (0, 0), BuildingBlock: XIVTED_clean_linker_0, # of connection points: 2
#     Edge 132, Type (0, 0), BuildingBlock: XIVTED_clean_linker_0, # of connection points: 2
#     Edge 133, Type (0, 0), BuildingBlock: XIVTED_clean_linker_0, # of connection points: 2
#     Edge 134, Type (0, 0), BuildingBlock: XIVTED_clean_linker_0, # of connection points: 2
#     Edge 135, Type (0, 0), BuildingBlock: XIVTED_clean_linker_0, # of connection points: 2
#     Edge 136, Type (0, 0), BuildingBlock: XIVTED_clean_linker_0, # of connection points: 2
#     Edge 137, Type (0, 0), BuildingBlock: XIVTED_clean_linker_0, # of connection points: 2
#     Edge 138, Type (0, 0), BuildingBlock: XIVTED_clean_linker_0, # of connection points: 2
#     Edge 139, Type (0, 0), BuildingBlock: XIVTED_clean_linker_0, # of connection points: 2
#     Edge 140, Type (0, 0), BuildingBlock: XIVTED_clean_linker_0, # of connection points: 2
#     Edge 141, Type (0, 0), BuildingBlock: XIVTED_clean_linker_0, # of connection points: 2
#     Edge 142, Type (0, 0), BuildingBlock: XIVTED_clean_linker_0, # of connection points: 2
#     Edge 143, Type (0, 0), BuildingBlock: XIVTED_clean_linker_0, # of connection points: 2
# Relax obj value: 0.238
# Max RMSD: 0.256
# Mean RMSD: 0.256
data_MOF--net-xfs--node1-HICVOG_clean_sbu_0--edge1-XIVTED_clean_linker_0
_symmetry_space_group_name_H-M    P1
_symmetry_Int_Tables_number       1
_symmetry_cell_setting            triclinic
loop_
_symmetry_equiv_pos_as_xyz
'x, y, z'
_cell_length_a     29.976688
_cell_length_b     29.985131
_cell_length_c     164.3588
_cell_angle_alpha  90.066128
_cell_angle_beta   90.015241
_cell_angle_gamma 89.997507
loop_
_atom_site_label
_atom_site_type_symbol
_atom_site_fract_x
_atom_site_fract_y
_atom_site_fract_z
_atom_type_partial_charge
Zn0 Zn 0.25325 0.15802 0.05162 0.0
C1 C 0.17386 0.22247 0.06782 0.0
N2 N 0.19596 0.25927 0.06563 0.0
C3 C 0.2283 0.2438 0.06074 0.0
N4 N 0.22599 0.19836 0.05988 0.0
N5 N 0.19168 0.18546 0.06444 0.0
C6 C 0.09929 0.09794 0.06228 0.0
O7 O 0.12441 0.10444 0.05584 0.0
O8 O 0.32017 0.16461 0.05124 0.0
Zn9 Zn 0.17941 0.12636 0.06894 0.0
N10 N 0.22329 0.17258 0.0415 0.0
C11 C 0.15392 0.19392 0.03567 0.0
C12 C 0.17979 0.18429 0.04244 0.0
C13 C 0.24205 0.16956 0.03396 0.0
N14 N 0.17234 0.19074 0.02817 0.0
C15 C 0.21569 0.17864 0.02701 0.0
O16 O 0.20567 0.07224 0.06339 0.0
C17 C 0.22995 0.05953 0.05751 0.0
O18 O 0.24808 0.08832 0.05283 0.0
H19 H 0.16503 0.18571 0.04843 0.0
H20 H 0.27672 0.16017 0.0335 0.0
C21 C 0.18395 0.13479 0.08672 0.0
C22 C 0.20862 0.13838 0.09399 0.0
C23 C 0.27551 0.12612 0.08657 0.0
C24 C 0.25102 0.12213 0.07943 0.0
N25 N 0.206 0.12704 0.07961 0.0
N26 N 0.25383 0.13417 0.09365 0.0
H27 H 0.14808 0.13891 0.08667 0.0
C28 C 0.33933 0.16174 0.05813 0.0
O29 O 0.31523 0.16772 0.06471 0.0
O30 O 0.11403 0.11021 0.0692 0.0
H31 H 0.2677 0.11571 0.07372 0.0
H32 H 0.11929 0.20338 0.03634 0.0
H33 H 0.31144 0.1228 0.0865 0.0
Zn34 Zn 0.17457 0.93978 0.31824 0.0
C35 C 0.05661 0.98722 0.31011 0.0
N36 N 0.04154 0.95442 0.31494 0.0
C37 C 0.07868 0.93294 0.31716 0.0
N38 N 0.11539 0.95157 0.31385 0.0
N39 N 0.1021 0.9857 0.30929 0.0
C40 C 0.14189 0.09762 0.30777 0.0
O41 O 0.13829 0.07226 0.31425 0.0
O42 O 0.18949 0.87427 0.31897 0.0
Zn43 Zn 0.14207 1.01293 0.30098 0.0
N44 N 0.17635 0.9694 0.32866 0.0
C45 C 0.18913 0.03868 0.3353 0.0
C46 C 0.1892 1.01279 0.32828 0.0
C47 C 0.1637 0.95043 0.33581 0.0
N48 N 0.17685 1.01992 0.34245 0.0
C49 C 0.16427 0.97636 0.34298 0.0
O50 O 0.21196 1.00699 0.30193 0.0
C51 C 0.24085 0.98771 0.30643 0.0
O52 O 0.22824 0.96345 0.3123 0.0
H53 H 0.199 0.02724 0.32254 0.0
H54 H 0.15286 0.91602 0.33585 0.0
C55 C 0.1281 1.00266 0.28333 0.0
C56 C 0.11798 0.97654 0.27639 0.0
C57 C 0.10378 0.91454 0.28504 0.0
C58 C 0.11444 0.94016 0.29179 0.0
N59 N 0.1261 0.98366 0.29085 0.0
N60 N 0.10594 0.93319 0.27755 0.0
H61 H 0.13755 0.0373 0.28287 0.0
C62 C 0.19957 0.85772 0.31207 0.0
O63 O 0.19154 0.88141 0.30551 0.0
O64 O 0.13622 0.07983 0.30081 0.0
H65 H 0.11386 0.92522 0.29776 0.0
H66 H 0.19894 0.07338 0.33508 0.0
H67 H 0.09433 0.87992 0.28571 0.0
Zn68 Zn 0.36468 0.91653 0.56907 0.0
C69 C 0.3211 0.80244 0.5588 0.0
N70 N 0.35433 0.78579 0.56332 0.0
C71 C 0.37574 0.82213 0.56594 0.0
N72 N 0.35661 0.86009 0.56321 0.0
N73 N 0.32208 0.84815 0.55861 0.0
C74 C 0.21218 0.90128 0.55749 0.0
O75 O 0.24028 0.90704 0.56352 0.0
O76 O 0.42855 0.9383 0.569 0.0
Zn77 Zn 0.29476 0.89101 0.5509 0.0
N78 N 0.34374 0.90294 0.57996 0.0
C79 C 0.28759 0.86323 0.58717 0.0
C80 C 0.30484 0.87965 0.57994 0.0
C81 C 0.3664 0.91062 0.58702 0.0
N82 N 0.3101 0.87047 0.59419 0.0
C83 C 0.34911 0.89371 0.59438 0.0
O84 O 0.30285 0.95939 0.5529 0.0
C85 C 0.31472 0.98667 0.55847 0.0
O86 O 0.33337 0.97258 0.56493 0.0
H87 H 0.28804 0.87263 0.57429 0.0
H88 H 0.39791 0.92822 0.58685 0.0
C89 C 0.30309 0.88158 0.53314 0.0
C90 C 0.32883 0.87496 0.52605 0.0
C91 C 0.39302 0.86345 0.53425 0.0
C92 C 0.36765 0.87032 0.54121 0.0
N93 N 0.3233 0.87916 0.54055 0.0
N94 N 0.37315 0.86609 0.52687 0.0
H95 H 0.268 0.88978 0.5328 0.0
C96 C 0.44045 0.95521 0.56223 0.0
O97 O 0.41378 0.95099 0.55593 0.0
O98 O 0.22745 0.88722 0.55073 0.0
H99 H 0.38341 0.8693 0.54712 0.0
H100 H 0.25684 0.84436 0.58721 0.0
H101 H 0.42835 0.85651 0.5347 0.0
Zn102 Zn 0.41596 0.05258 0.80115 0.0
C103 C 0.48347 0.13534 0.81612 0.0
N104 N 0.52017 0.11374 0.81372 0.0
C105 C 0.50404 0.07985 0.80928 0.0
N106 N 0.45836 0.08077 0.80889 0.0
N107 N 0.44594 0.11581 0.81331 0.0
C108 C 0.35588 0.20189 0.81241 0.0
O109 O 0.36042 0.17559 0.80606 0.0
O110 O 0.41929 0.98518 0.80132 0.0
Zn111 Zn 0.38975 0.12416 0.81913 0.0
N112 N 0.42903 0.07983 0.79072 0.0
C113 C 0.44745 0.14871 0.7844 0.0
C114 C 0.43854 0.12403 0.79135 0.0
C115 C 0.42748 0.05917 0.78333 0.0
N116 N 0.44579 0.12841 0.77705 0.0
C117 C 0.43587 0.0843 0.77621 0.0
O118 O 0.33322 0.09488 0.81466 0.0
C119 C 0.31959 0.07504 0.80828 0.0
O120 O 0.34738 0.06146 0.80292 0.0
H121 H 0.43883 0.14018 0.79722 0.0
H122 H 0.4199 1.02397 0.78309 0.0
C123 C 0.39208 0.12211 0.83715 0.0
C124 C 0.40781 0.10356 0.84451 0.0
C125 C 0.44203 0.04489 0.83708 0.0
C126 C 0.42678 0.06336 0.82986 0.0
N127 N 0.40223 0.10148 0.82998 0.0
N128 N 0.43237 0.0654 0.84419 0.0
H129 H 0.37337 0.15297 0.8371 0.0
C130 C 0.40379 0.97098 0.80805 0.0
O131 O 0.39657 1.00002 0.81388 0.0
O132 O 0.37096 0.18879 0.81925 0.0
H133 H 0.4356 0.04802 0.82415 0.0
H134 H 0.4552 0.18387 0.78483 0.0
H135 H 0.46185 1.01474 0.83703 0.0
Zn136 Zn 0.25442 0.8873 0.4436 0.0
C137 C 0.1743 0.81812 0.42843 0.0
N138 N 0.19586 0.78184 0.43103 0.0
C139 C 0.22885 0.79856 0.43561 0.0
N140 N 0.22752 0.84426 0.43586 0.0
N141 N 0.19309 0.85614 0.43123 0.0
C142 C 0.10968 0.95299 0.43199 0.0
O143 O 0.136 0.94908 0.43834 0.0
O144 O 0.32149 0.88264 0.44404 0.0
Zn145 Zn 0.18532 0.91252 0.42534 0.0
N146 N 0.22462 0.8764 0.45385 0.0
C147 C 0.15416 0.86177 0.45992 0.0
C148 C 0.1801 0.86903 0.45306 0.0
C149 C 0.24445 0.8773 0.46131 0.0
N150 N 0.17366 0.8628 0.46735 0.0
C151 C 0.21813 0.87055 0.46834 0.0
O152 O 0.21718 0.96833 0.4294 0.0
C153 C 0.23612 0.98269 0.43582 0.0
O154 O 0.24765 0.95569 0.44145 0.0
H155 H 0.16476 0.86906 0.44711 0.0
H156 H 0.27999 0.88299 0.46167 0.0
C157 C 0.18344 0.9073 0.40746 0.0
C158 C 0.20037 0.89088 0.40003 0.0
C159 C 0.26147 0.85868 0.4071 0.0
C160 C 0.24461 0.87475 0.4144 0.0
N161 N 0.2061 0.89865 0.41448 0.0
N162 N 0.239 0.867 0.40012 0.0
H163 H 0.15225 0.9254 0.40772 0.0
C164 C 0.33768 0.89463 0.43722 0.0
O165 O 0.31047 0.8983 0.43101 0.0
O166 O 0.12168 0.93522 0.42529 0.0
H167 H 0.26144 0.86707 0.42002 0.0
H168 H 0.11871 0.85573 0.45937 0.0
H169 H 0.29193 0.83934 0.40698 0.0
Zn170 Zn 0.37433 0.93623 0.67623 0.0
C171 C 0.49188 0.98144 0.68504 0.0
N172 N 0.50731 0.94873 0.68023 0.0
C173 C 0.47028 0.92773 0.67779 0.0
N174 N 0.43323 0.94663 0.68095 0.0
N175 N 0.44629 0.98038 0.68564 0.0
C176 C 0.40739 0.0932 0.68715 0.0
O177 O 0.41193 0.06836 0.68062 0.0
O178 O 0.35845 0.87102 0.67523 0.0
Zn179 Zn 0.40574 1.00808 0.69382 0.0
N180 N 0.374 0.96706 0.66591 0.0
C181 C 0.36303 0.03763 0.65964 0.0
C182 C 0.36204 1.01064 0.6665 0.0
C183 C 0.3864 0.9489 0.65866 0.0
N184 N 0.37521 1.01973 0.65241 0.0
C185 C 0.38675 0.97598 0.65164 0.0
O186 O 0.33597 1.00252 0.69266 0.0
C187 C 0.30731 0.98384 0.68802 0.0
O188 O 0.32023 0.95999 0.6821 0.0
H189 H 0.35216 1.02437 0.67231 0.0
H190 H 0.39632 0.91423 0.65842 0.0
C191 C 0.41822 0.99887 0.71148 0.0
C192 C 0.42664 0.97311 0.7185 0.0
C193 C 0.43921 0.9097 0.71014 0.0
C194 C 0.43058 0.9351 0.70325 0.0
N195 N 0.42033 0.97908 0.70402 0.0
N196 N 0.43687 0.92915 0.71757 0.0
H197 H 0.40888 0.03364 0.71191 0.0
C198 C 0.34674 0.85448 0.68203 0.0
O199 O 0.35375 0.87793 0.68867 0.0
O200 O 0.41215 0.07489 0.69408 0.0
H201 H 0.43133 0.9196 0.69732 0.0
H202 H 0.35398 0.07249 0.66004 0.0
H203 H 0.44727 0.87465 0.7096 0.0
Zn204 Zn 0.35832 0.11433 0.92675 0.0
C205 C 0.31263 0.23264 0.93523 0.0
N206 N 0.34526 0.24755 0.93035 0.0
C207 C 0.36575 0.21021 0.92792 0.0
N208 N 0.34666 0.17357 0.93116 0.0
N209 N 0.31329 0.18711 0.93589 0.0
C210 C 0.20193 0.14467 0.93701 0.0
O211 O 0.22824 0.14772 0.93065 0.0
O212 O 0.42394 0.09971 0.92605 0.0
Zn213 Zn 0.28571 0.1476 0.9442 0.0
N214 N 0.32875 0.11189 0.9163 0.0
C215 C 0.26011 0.09612 0.90964 0.0
C216 C 0.28603 0.0969 0.91664 0.0
C217 C 0.34705 0.12582 0.90915 0.0
N218 N 0.27818 0.10976 0.90251 0.0
C219 C 0.32108 0.12447 0.90198 0.0
O220 O 0.29339 0.07811 0.94344 0.0
C221 C 0.31205 0.04891 0.93892 0.0
O222 O 0.33521 0.06094 0.93286 0.0
H223 H 0.27207 0.08604 0.92237 0.0
H224 H 0.38091 0.13829 0.90912 0.0
C225 C 0.29384 0.16123 0.96188 0.0
C226 C 0.31909 0.17143 0.96889 0.0
C227 C 0.38116 0.189 0.96052 0.0
C228 C 0.35638 0.17842 0.95364 0.0
N229 N 0.31327 0.1649 0.95441 0.0
N230 N 0.3621 0.18506 0.96795 0.0
H231 H 0.25991 0.14919 0.96233 0.0
C232 C 0.44041 0.0888 0.93291 0.0
O233 O 0.4165 0.09563 0.93949 0.0
O234 O 0.21853 0.15174 0.94402 0.0
H235 H 0.37183 0.18018 0.94771 0.0
H236 H 0.22592 0.08461 0.90985 0.0
H237 H 0.41549 0.1997 0.95997 0.0
Zn238 Zn 0.14176 0.04323 0.19366 0.0
C239 C 0.08023 0.1218 0.17698 0.0
N240 N 0.04311 0.09977 0.17903 0.0
C241 C 0.05782 0.06796 0.18408 0.0
N242 N 0.10308 0.07048 0.18519 0.0
N243 N 0.1168 0.10433 0.18059 0.0
C244 C 0.20748 0.19524 0.18281 0.0
O245 O 0.20019 0.17093 0.18932 0.0
O246 O 0.13521 0.97639 0.19386 0.0
Zn247 Zn 0.17694 0.11531 0.17633 0.0
N248 N 0.12508 0.07239 0.20375 0.0
C249 C 0.10152 0.14077 0.20973 0.0
C250 C 0.11155 0.11543 0.20289 0.0
C251 C 0.12924 0.05357 0.21125 0.0
N252 N 0.1059 0.12227 0.2172 0.0
C253 C 0.11949 0.07931 0.21822 0.0
O254 O 0.22991 0.089 0.18223 0.0
C255 C 0.2413 0.06567 0.18832 0.0
O256 O 0.21153 0.04856 0.19291 0.0
H257 H 0.10932 0.13037 0.19693 0.0
H258 H 0.14127 1.01966 0.21175 0.0
C259 C 0.16739 0.10945 0.15865 0.0
C260 C 0.16517 0.08477 0.15137 0.0
C261 C 0.18375 1.01901 0.15866 0.0
C262 C 0.18636 0.04356 0.16582 0.0
N263 N 0.1777 0.08801 0.16571 0.0
N264 N 0.17322 0.04009 0.15163 0.0
H265 H 0.1602 0.14482 0.15876 0.0
C266 C 0.14108 0.95822 0.18694 0.0
O267 O 0.13821 0.98332 0.18043 0.0
O268 O 0.19487 0.18022 0.17593 0.0
H269 H 0.19465 0.02728 0.17148 0.0
H270 H 0.09084 0.17507 0.20913 0.0
H271 H 0.19007 0.98348 0.15868 0.0
Zn272 Zn 0.86038 0.90638 0.92608 0.0
C273 C 0.82124 0.7925 0.93665 0.0
N274 N 0.85608 0.77699 0.93237 0.0
C275 C 0.87592 0.81407 0.9297 0.0
N276 N 0.85463 0.85119 0.93222 0.0
N277 N 0.82001 0.83825 0.93669 0.0
C278 C 0.70987 0.89321 0.93766 0.0
O279 O 0.73846 0.90009 0.93175 0.0
O280 O 0.92501 0.92535 0.92521 0.0
Zn281 Zn 0.79184 0.88123 0.94433 0.0
N282 N 0.8327 0.89294 0.91567 0.0
C283 C 0.77364 0.85298 0.90929 0.0
C284 C 0.79623 0.86617 0.91625 0.0
C285 C 0.848 0.90675 0.90828 0.0
N286 N 0.78871 0.8666 0.90195 0.0
C287 C 0.8254 0.89302 0.90116 0.0
O288 O 0.7999 0.94991 0.94244 0.0
C289 C 0.81343 0.9773 0.93703 0.0
O290 O 0.83298 0.96315 0.93066 0.0
H291 H 0.78488 0.85462 0.9221 0.0
H292 H 0.87698 0.92814 0.90803 0.0
C293 C 0.8002 0.87403 0.96212 0.0
C294 C 0.82607 0.86845 0.96922 0.0
C295 C 0.88979 0.85415 0.96106 0.0
C296 C 0.86433 0.86007 0.95409 0.0
N297 N 0.82014 0.8698 0.95472 0.0
N298 N 0.87021 0.85867 0.96843 0.0
H299 H 0.76528 0.88297 0.96245 0.0
C300 C 0.93998 0.93824 0.93207 0.0
O301 O 0.91548 0.93128 0.93858 0.0
O302 O 0.72452 0.87757 0.94435 0.0
H303 H 0.88001 0.85777 0.94819 0.0
H304 H 0.74453 0.83177 0.9097 0.0
H305 H 0.925 0.84657 0.96063 0.0
Zn306 Zn 0.90596 0.04635 0.6934 0.0
C307 C 0.96961 0.12548 0.67711 0.0
N308 N 1.00669 0.10417 0.67944 0.0
C309 C 0.99147 0.07183 0.68434 0.0
N310 N 0.94596 0.07343 0.6851 0.0
N311 N 0.93273 0.10715 0.68044 0.0
C312 C 0.84712 0.19982 0.68211 0.0
O313 O 0.85534 0.17597 0.68865 0.0
O314 O 0.91193 0.97944 0.69366 0.0
Zn315 Zn 0.87337 0.11826 0.67597 0.0
N316 N 0.92154 0.07611 0.70348 0.0
C317 C 0.94211 0.14582 0.70933 0.0
C318 C 0.93288 0.11973 0.70254 0.0
C319 C 0.91886 0.05739 0.71101 0.0
N320 N 0.93915 0.12744 0.71683 0.0
C321 C 0.92779 0.0839 0.71792 0.0
O322 O 0.81967 0.09451 0.68194 0.0
C323 C 0.80719 0.0707 0.68788 0.0
O324 O 0.83618 0.05201 0.69244 0.0
H325 H 0.934 0.1345 0.69656 0.0
H326 H 0.90859 1.02295 0.71159 0.0
C327 C 0.8853 0.10588 0.65841 0.0
C328 C 0.88513 0.07905 0.65134 0.0
C329 C 0.85909 1.0179 0.65921 0.0
C330 C 0.8587 0.04463 0.66611 0.0
N331 N 0.87194 0.08787 0.66561 0.0
N332 N 0.87213 0.03568 0.65202 0.0
H333 H 0.89645 0.14017 0.65825 0.0
C334 C 0.9061 0.96141 0.68672 0.0
O335 O 0.90961 0.98653 0.68022 0.0
O336 O 0.85754 0.18365 0.6752 0.0
H337 H 0.84841 0.03089 0.67189 0.0
H338 H 0.95104 0.18057 0.70865 0.0
H339 H 0.84898 0.98331 0.65954 0.0
Zn340 Zn 0.68529 0.12013 0.42622 0.0
C341 C 0.73411 0.2392 0.43357 0.0
N342 N 0.70167 0.25357 0.4286 0.0
C343 C 0.67963 0.21626 0.42667 0.0
N344 N 0.69767 0.18008 0.43027 0.0
N345 N 0.73193 0.19401 0.43474 0.0
C346 C 0.84346 0.15372 0.43643 0.0
O347 O 0.81744 0.15454 0.43 0.0
O348 O 0.61989 0.10452 0.42603 0.0
Zn349 Zn 0.75916 0.15572 0.44328 0.0
N350 N 0.71174 0.11796 0.41553 0.0
C351 C 0.77993 0.10874 0.40835 0.0
C352 C 0.75572 0.10707 0.41555 0.0
C353 C 0.69042 0.1297 0.40853 0.0
N354 N 0.759 0.12072 0.40138 0.0
C355 C 0.71477 0.13107 0.40121 0.0
O356 O 0.75294 0.0859 0.44268 0.0
C357 C 0.73482 0.05601 0.43823 0.0
O358 O 0.71094 0.06725 0.4322 0.0
H359 H 0.77197 0.09783 0.42117 0.0
H360 H 0.65548 0.13874 0.40872 0.0
C361 C 0.74941 0.17094 0.46085 0.0
C362 C 0.72402 0.18261 0.46779 0.0
C363 C 0.66272 0.20002 0.45917 0.0
C364 C 0.68756 0.18773 0.45241 0.0
N365 N 0.73041 0.17377 0.45334 0.0
N366 N 0.68138 0.19703 0.46665 0.0
H367 H 0.78355 0.15973 0.46132 0.0
C368 C 0.60486 0.09317 0.43297 0.0
O369 O 0.62985 0.10011 0.43942 0.0
O370 O 0.82617 0.16153 0.44336 0.0
H371 H 0.67248 0.18891 0.44644 0.0
H372 H 0.8151 0.10064 0.40828 0.0
H373 H 0.62865 0.21134 0.4585 0.0
Zn374 Zn 0.6453 1.00371 0.19454 0.0
C375 C 0.57398 0.92298 0.17973 0.0
N376 N 0.53802 0.94407 0.1826 0.0
C377 C 0.55534 0.97679 0.18717 0.0
N378 N 0.60109 0.97583 0.18714 0.0
N379 N 0.61234 0.94172 0.18237 0.0
C380 C 0.70583 0.85655 0.1831 0.0
O381 O 0.70314 0.88363 0.18937 0.0
O382 O 0.64064 0.0709 0.19478 0.0
Zn383 Zn 0.66799 0.93287 0.17634 0.0
N384 N 0.63619 0.97492 0.20494 0.0
C385 C 0.6251 0.90453 0.21129 0.0
C386 C 0.62978 0.93017 0.20431 0.0
C387 C 0.63806 0.99536 0.21233 0.0
N388 N 0.62726 0.92463 0.21866 0.0
C389 C 0.63354 0.9694 0.21944 0.0
O390 O 0.72493 0.9637 0.18023 0.0
C391 C 0.73994 0.98384 0.18647 0.0
O392 O 0.71341 0.99673 0.19209 0.0
H393 H 0.62892 0.91437 0.1984 0.0
H394 H 0.64415 0.03088 0.21265 0.0
C395 C 0.66118 0.93114 0.15841 0.0
C396 C 0.64414 0.94848 0.15106 0.0
C397 C 0.61332 1.00967 0.15832 0.0
C398 C 0.62997 0.99242 0.16554 0.0
N399 N 0.65348 0.95366 0.16549 0.0
N400 N 0.62067 0.98734 0.15129 0.0
H401 H 0.67901 0.89978 0.15856 0.0
C402 C 0.65294 0.08632 0.18792 0.0
O403 O 0.65726 0.05833 0.18183 0.0
O404 O 0.68837 0.86858 0.17639 0.0
H405 H 0.62303 1.00916 0.1712 0.0
H406 H 0.62016 0.86886 0.21087 0.0
H407 H 0.59429 0.04032 0.1583 0.0
Zn408 Zn 0.86519 0.13222 0.56859 0.0
C409 C 0.81973 0.24666 0.55874 0.0
N410 N 0.85272 0.26321 0.56334 0.0
C411 C 0.87448 0.22684 0.56583 0.0
N412 N 0.85585 0.18898 0.56294 0.0
N413 N 0.82121 0.20099 0.55838 0.0
C414 C 0.71129 0.14839 0.55712 0.0
O415 O 0.73949 0.14211 0.56311 0.0
O416 O 0.92946 0.11174 0.56838 0.0
Zn417 Zn 0.79384 0.15845 0.55061 0.0
N418 N 0.84456 0.14473 0.57954 0.0
C419 C 0.78754 0.18235 0.58691 0.0
C420 C 0.80489 0.16665 0.57963 0.0
C421 C 0.86799 0.1378 0.58654 0.0
N422 N 0.81076 0.17582 0.59387 0.0
C423 C 0.85059 0.154 0.59395 0.0
O424 O 0.80137 0.09011 0.55261 0.0
C425 C 0.81434 0.06241 0.55801 0.0
O426 O 0.83438 0.07601 0.56437 0.0
H427 H 0.78755 0.17321 0.57402 0.0
H428 H 0.9001 0.12137 0.58628 0.0
C429 C 0.80298 0.1672 0.53285 0.0
C430 C 0.8291 0.17315 0.52579 0.0
C431 C 0.89299 0.18471 0.53407 0.0
C432 C 0.86723 0.17851 0.541 0.0
N433 N 0.82286 0.16992 0.54029 0.0
N434 N 0.87345 0.18172 0.52666 0.0
H435 H 0.76784 0.15924 0.53247 0.0
C436 C 0.94141 0.09545 0.56156 0.0
O437 O 0.91446 0.09961 0.5553 0.0
O438 O 0.72652 0.16273 0.55038 0.0
H439 H 0.88274 0.17979 0.54693 0.0
H440 H 0.75614 0.20013 0.58704 0.0
H441 H 0.92835 0.19141 0.53456 0.0
Zn442 Zn 0.67278 0.12443 0.31879 0.0
C443 C 0.55588 0.07652 0.31004 0.0
N444 N 0.54001 0.10907 0.31484 0.0
C445 C 0.57675 0.13064 0.31726 0.0
N446 N 0.61405 0.11229 0.3141 0.0
N447 N 0.60146 0.07817 0.30945 0.0
C448 C 0.63958 0.96444 0.30769 0.0
O449 O 0.63259 0.9879 0.31432 0.0
O450 O 0.68874 0.18978 0.31914 0.0
Zn451 Zn 0.64233 0.05097 0.3013 0.0
N452 N 0.67147 0.09758 0.32943 0.0
C453 C 0.67158 0.02782 0.33628 0.0
C454 C 0.67599 0.05255 0.32919 0.0
C455 C 0.66381 0.11942 0.33657 0.0
N456 N 0.66359 0.04929 0.34339 0.0
C457 C 0.65983 0.0945 0.3438 0.0
O458 O 0.71184 0.05679 0.30263 0.0
C459 C 0.74033 0.07469 0.3074 0.0
O460 O 0.72729 0.09851 0.31332 0.0
H461 H 0.68247 0.03606 0.32346 0.0
H462 H 0.6601 0.15533 0.33658 0.0
C463 C 0.62976 0.06082 0.28369 0.0
C464 C 0.6202 0.08647 0.27669 0.0
C465 C 0.60659 0.14938 0.28515 0.0
C466 C 0.6167 0.12418 0.29199 0.0
N467 N 0.62781 0.08045 0.29116 0.0
N468 N 0.60868 0.13007 0.27771 0.0
H469 H 0.63846 0.02592 0.28329 0.0
C470 C 0.70107 0.2045 0.31223 0.0
O471 O 0.69464 0.17935 0.30578 0.0
O472 O 0.63657 0.98399 0.30084 0.0
H473 H 0.61597 0.13952 0.29793 0.0
H474 H 0.67458 0.99187 0.33616 0.0
H475 H 0.59755 0.18416 0.28573 0.0
Zn476 Zn 0.75267 0.89297 0.05117 0.0
C477 C 0.67436 0.82908 0.06759 0.0
N478 N 0.69543 0.79221 0.06508 0.0
C479 C 0.72717 0.80774 0.0601 0.0
N480 N 0.72564 0.85329 0.0595 0.0
N481 N 0.69246 0.86641 0.06433 0.0
C482 C 0.60322 0.95812 0.06288 0.0
O483 O 0.62697 0.95013 0.05632 0.0
O484 O 0.81947 0.8861 0.05076 0.0
Zn485 Zn 0.6832 0.9264 0.06892 0.0
N486 N 0.72209 0.87773 0.04117 0.0
C487 C 0.65188 0.85775 0.0355 0.0
C488 C 0.67815 0.86803 0.0422 0.0
C489 C 0.74092 0.87816 0.03363 0.0
N490 N 0.67039 0.85833 0.02799 0.0
C491 C 0.71419 0.86846 0.02677 0.0
O492 O 0.70856 0.97982 0.063 0.0
C493 C 0.73146 0.99189 0.0569 0.0
O494 O 0.74822 0.96261 0.05216 0.0
H495 H 0.66344 0.86862 0.0482 0.0
H496 H 0.776 0.88583 0.03308 0.0
C497 C 0.69537 0.91443 0.08649 0.0
C498 C 0.72224 0.91401 0.09354 0.0
C499 C 0.78427 0.93735 0.08561 0.0
C500 C 0.75751 0.93835 0.07871 0.0
N501 N 0.71381 0.92673 0.07926 0.0
N502 N 0.76607 0.92537 0.09283 0.0
H503 H 0.66067 0.9046 0.08666 0.0
C504 C 0.8379 0.89107 0.05768 0.0
O505 O 0.81312 0.88678 0.06422 0.0
O506 O 0.61853 0.94553 0.06974 0.0
H507 H 0.77154 0.94793 0.07292 0.0
H508 H 0.61692 0.84981 0.03624 0.0
H509 H 0.8192 0.94619 0.08525 0.0
Zn510 Zn 0.89076 0.94645 0.81881 0.0
C511 C 1.00448 0.98693 0.80819 0.0
N512 N 1.02109 0.9537 0.81271 0.0
C513 C 0.98471 0.93263 0.8154 0.0
N514 N 0.94673 0.95203 0.81272 0.0
N515 N 0.95874 0.98627 0.80807 0.0
C516 C 0.90662 0.0957 0.80681 0.0
O517 O 0.90216 0.06786 0.81291 0.0
O518 O 0.86786 0.88278 0.81936 0.0
Zn519 Zn 0.91564 1.01303 0.80033 0.0
N520 N 0.90514 0.97122 0.8294 0.0
C521 C 0.94704 0.02754 0.83619 0.0
C522 C 0.9318 1.00786 0.82906 0.0
C523 C 0.89304 0.95319 0.83668 0.0
N524 N 0.93524 1.00966 0.84343 0.0
C525 C 0.9086 0.973 0.84394 0.0
O526 O 0.84717 1.00576 0.80237 0.0
C527 C 0.82023 0.99479 0.80804 0.0
O528 O 0.83474 0.97697 0.81455 0.0
H529 H 0.94207 1.02122 0.82328 0.0
H530 H 0.87274 0.92337 0.83677 0.0
C531 C 0.9267 1.00202 0.78261 0.0
C532 C 0.93369 0.97497 0.77567 0.0
C533 C 0.94135 0.91173 0.78427 0.0
C534 C 0.93385 0.93835 0.79105 0.0
N535 N 0.92694 0.98286 0.79012 0.0
N536 N 0.94099 0.93055 0.77679 0.0
H537 H 0.92131 0.03754 0.78213 0.0
C538 C 0.851 0.87004 0.81263 0.0
O539 O 0.8563 0.89547 0.80619 0.0
O540 O 0.9196 0.08023 0.79999 0.0
H541 H 0.93323 0.92352 0.79703 0.0
H542 H 0.96845 0.05656 0.83598 0.0
H543 H 0.94703 0.87629 0.78494 0.0
Zn544 Zn 0.75533 0.65876 0.55099 0.0
C545 C 0.67648 0.72648 0.56661 0.0
N546 N 0.69818 0.7629 0.56412 0.0
C547 C 0.7306 0.74647 0.55937 0.0
N548 N 0.72881 0.70086 0.55892 0.0
N549 N 0.69461 0.6887 0.56357 0.0
C550 C 0.60929 0.59482 0.56224 0.0
O551 O 0.63577 0.59927 0.55593 0.0
O552 O 0.82265 0.66278 0.55066 0.0
Zn553 Zn 0.68585 0.63163 0.56915 0.0
N554 N 0.726 0.67155 0.54076 0.0
C555 C 0.65641 0.68969 0.53463 0.0
C556 C 0.68211 0.68222 0.54153 0.0
C557 C 0.7454 0.66783 0.5333 0.0
N558 N 0.67548 0.68575 0.5272 0.0
C559 C 0.71933 0.67503 0.52627 0.0
O560 O 0.71647 0.57567 0.56475 0.0
C561 C 0.73543 0.56235 0.55826 0.0
O562 O 0.74754 0.5903 0.55283 0.0
H563 H 0.66689 0.68419 0.54748 0.0
H564 H 0.78009 0.65814 0.53287 0.0
C565 C 0.68411 0.63653 0.58711 0.0
C566 C 0.70207 0.65222 0.59452 0.0
C567 C 0.76501 0.68026 0.58741 0.0
C568 C 0.74707 0.66512 0.58013 0.0
N569 N 0.70721 0.64356 0.58008 0.0
N570 N 0.74212 0.67363 0.5944 0.0
H571 H 0.65182 0.62046 0.58689 0.0
C572 C 0.83814 0.64787 0.55734 0.0
O573 O 0.81017 0.64107 0.56335 0.0
O574 O 0.62166 0.61098 0.56905 0.0
H575 H 0.76411 0.67185 0.5745 0.0
H576 H 0.62143 0.69807 0.53516 0.0
H577 H 0.79658 0.69773 0.58751 0.0
Zn578 Zn 0.64784 0.5189 0.80145 0.0
C579 C 0.58811 0.43871 0.81806 0.0
N580 N 0.55066 0.46071 0.81621 0.0
C581 C 0.56477 0.49354 0.8113 0.0
N582 N 0.60996 0.4916 0.81008 0.0
N583 N 0.62413 0.45719 0.81447 0.0
C584 C 0.70961 0.36385 0.81184 0.0
O585 O 0.70174 0.38831 0.80537 0.0
O586 O 0.64286 0.58604 0.8016 0.0
Zn587 Zn 0.6843 0.44513 0.81842 0.0
N588 N 0.62878 0.49013 0.79142 0.0
C589 C 0.60266 0.42158 0.7859 0.0
C590 C 0.61561 0.44715 0.79252 0.0
C591 C 0.63027 0.50852 0.78384 0.0
N592 N 0.60424 0.43962 0.77837 0.0
C593 C 0.61788 0.48233 0.77703 0.0
O594 O 0.73666 0.46928 0.81213 0.0
C595 C 0.74772 0.49321 0.80611 0.0
O596 O 0.71771 0.51212 0.8018 0.0
H597 H 0.61567 0.43247 0.79851 0.0
H598 H 0.64107 0.5427 0.78322 0.0
C599 C 0.67437 0.45474 0.83604 0.0
C600 C 0.67631 0.4799 0.84329 0.0
C601 C 0.70533 0.54125 0.83583 0.0
C602 C 0.70387 0.51613 0.82873 0.0
N603 N 0.68833 0.47359 0.82894 0.0
N604 N 0.69165 0.52261 0.84291 0.0
H605 H 0.66132 0.42111 0.83595 0.0
C606 C 0.65177 0.60229 0.80858 0.0
O607 O 0.65173 0.57536 0.81487 0.0
O608 O 0.6995 0.37958 0.81881 0.0
H609 H 0.71452 0.53064 0.82304 0.0
H610 H 0.59196 0.38742 0.78671 0.0
H611 H 0.71729 0.57529 0.83573 0.0
Zn612 Zn 0.86418 0.42654 0.06826 0.0
C613 C 0.8194 0.30793 0.05971 0.0
N614 N 0.85183 0.29293 0.06462 0.0
C615 C 0.8727 0.33017 0.06699 0.0
N616 N 0.854 0.36699 0.06371 0.0
N617 N 0.82048 0.35346 0.059 0.0
C618 C 0.70799 0.39046 0.05745 0.0
O619 O 0.73329 0.3865 0.06393 0.0
O620 O 0.92932 0.44363 0.06911 0.0
Zn621 Zn 0.79273 0.3932 0.05074 0.0
N622 N 0.83399 0.4271 0.07865 0.0
C623 C 0.76378 0.43789 0.08508 0.0
C624 C 0.79028 0.43875 0.07815 0.0
C625 C 0.85269 0.41493 0.08587 0.0
N626 N 0.78224 0.42603 0.09228 0.0
C627 C 0.82609 0.41465 0.09296 0.0
O628 O 0.79729 0.46296 0.05183 0.0
C629 C 0.81531 0.49224 0.05642 0.0
O630 O 0.83934 0.48018 0.06237 0.0
H631 H 0.77604 0.44821 0.07237 0.0
H632 H 0.88739 0.40507 0.08601 0.0
C633 C 0.80326 0.38063 0.03309 0.0
C634 C 0.82968 0.37251 0.02614 0.0
C635 C 0.89249 0.36027 0.03465 0.0
C636 C 0.86645 0.36865 0.04147 0.0
N637 N 0.82245 0.37859 0.0406 0.0
N638 N 0.87364 0.36259 0.02717 0.0
H639 H 0.76846 0.38976 0.03256 0.0
C640 C 0.94543 0.45591 0.0623 0.0
O641 O 0.92179 0.44893 0.05568 0.0
O642 O 0.72601 0.38592 0.05049 0.0
H643 H 0.88151 0.36802 0.04744 0.0
H644 H 0.72884 0.44674 0.08476 0.0
H645 H 0.92756 0.35248 0.03527 0.0
Zn646 Zn 0.90772 0.54979 0.30074 0.0
C647 C 0.96969 0.63027 0.31704 0.0
N648 N 1.00712 0.60946 0.31474 0.0
C649 C 0.99245 0.57663 0.30987 0.0
N650 N 0.94696 0.57752 0.30909 0.0
N651 N 0.93317 0.61124 0.31371 0.0
C652 C 0.84837 0.70433 0.31225 0.0
O653 O 0.85715 0.68138 0.30562 0.0
O654 O 0.91379 0.48293 0.30064 0.0
Zn655 Zn 0.87366 0.62181 0.31813 0.0
N656 N 0.92435 0.57837 0.29062 0.0
C657 C 0.94784 0.64659 0.28463 0.0
C658 C 0.9365 0.62182 0.29145 0.0
C659 C 0.92246 0.55863 0.28315 0.0
N660 N 0.94582 0.62718 0.27719 0.0
C661 C 0.93322 0.58388 0.27616 0.0
O662 O 0.82029 0.59843 0.31199 0.0
C663 C 0.80847 0.57446 0.30601 0.0
O664 O 0.83793 0.55568 0.30156 0.0
H665 H 0.93699 0.63735 0.29738 0.0
H666 H 0.91278 0.52399 0.28276 0.0
C667 C 0.8842 0.60833 0.3357 0.0
C668 C 0.88357 0.58105 0.34269 0.0
C669 C 0.85898 0.52015 0.33458 0.0
C670 C 0.85902 0.54733 0.32774 0.0
N671 N 0.87179 0.59065 0.3284 0.0
N672 N 0.8711 0.53759 0.34186 0.0
H673 H 0.89494 0.64273 0.33598 0.0
C674 C 0.90863 0.46513 0.3076 0.0
O675 O 0.91296 0.4904 0.31409 0.0
O676 O 0.85799 0.68712 0.31911 0.0
H677 H 0.84938 0.53389 0.3219 0.0
H678 H 0.95772 0.68114 0.28521 0.0
H679 H 0.84925 0.48549 0.33413 0.0
Zn680 Zn 0.68018 0.4067 0.92571 0.0
C681 C 0.72517 0.29282 0.93557 0.0
N682 N 0.69125 0.27661 0.93113 0.0
C683 C 0.66977 0.31328 0.92869 0.0
N684 N 0.68931 0.35076 0.9315 0.0
N685 N 0.7243 0.33852 0.93594 0.0
C686 C 0.83384 0.3931 0.93712 0.0
O687 O 0.80566 0.39898 0.93111 0.0
O688 O 0.61537 0.42479 0.92561 0.0
Zn689 Zn 0.75147 0.38135 0.94372 0.0
N690 N 0.7026 0.39446 0.91486 0.0
C691 C 0.75919 0.35554 0.9076 0.0
C692 C 0.74109 0.37048 0.91488 0.0
C693 C 0.68129 0.4044 0.90776 0.0
N694 N 0.73801 0.36504 0.90054 0.0
C695 C 0.69951 0.3891 0.90035 0.0
O696 O 0.74294 0.44995 0.94182 0.0
C697 C 0.72921 0.47739 0.93643 0.0
O698 O 0.70916 0.46333 0.9301 0.0
H699 H 0.75701 0.36192 0.92054 0.0
H700 H 0.65018 0.42268 0.90792 0.0
C701 C 0.74287 0.37 0.96152 0.0
C702 C 0.71692 0.36177 0.96855 0.0
C703 C 0.65321 0.35101 0.96015 0.0
C704 C 0.67872 0.35967 0.95329 0.0
N705 N 0.72294 0.36874 0.95406 0.0
N706 N 0.67278 0.35235 0.96756 0.0
H707 H 0.77814 0.37714 0.96188 0.0
C708 C 0.60204 0.43938 0.93247 0.0
O709 O 0.62819 0.43448 0.93883 0.0
O710 O 0.81879 0.37819 0.94384 0.0
H711 H 0.6632 0.35948 0.94736 0.0
H712 H 0.78962 0.33614 0.90755 0.0
H713 H 0.61801 0.34362 0.9596 0.0
Zn714 Zn 0.88447 0.43171 0.17582 0.0
C715 C 0.99781 0.47598 0.18641 0.0
N716 N 1.01498 0.44323 0.18183 0.0
C717 C 0.97895 0.42196 0.17903 0.0
N718 N 0.94067 0.44071 0.18172 0.0
N719 N 0.95207 0.47487 0.18646 0.0
C720 C 0.89909 0.58518 0.18755 0.0
O721 O 0.89379 0.55747 0.18144 0.0
O722 O 0.86368 0.36756 0.17603 0.0
Zn723 Zn 0.90829 0.50226 0.19401 0.0
N724 N 0.89794 0.4525 0.16492 0.0
C725 C 0.93667 0.50936 0.15772 0.0
C726 C 0.92079 0.49165 0.16496 0.0
C727 C 0.89009 0.43007 0.15784 0.0
N728 N 0.92921 0.48713 0.15069 0.0
C729 C 0.90634 0.44791 0.15047 0.0
O730 O 0.83998 0.49512 0.19172 0.0
C731 C 0.81319 0.48252 0.18613 0.0
O732 O 0.82789 0.46271 0.17982 0.0
H733 H 0.92772 0.5084 0.17062 0.0
H734 H 0.87272 0.39845 0.15799 0.0
C735 C 0.91608 0.49351 0.21177 0.0
C736 C 0.92137 0.46755 0.21886 0.0
C737 C 0.93159 0.40311 0.21066 0.0
C738 C 0.92616 0.42875 0.2037 0.0
N739 N 0.91847 0.4733 0.20436 0.0
N740 N 0.92891 0.42298 0.21805 0.0
H741 H 0.90899 0.52884 0.21211 0.0
C742 C 0.8475 0.35614 0.18289 0.0
O743 O 0.85191 0.38352 0.18908 0.0
O744 O 0.91272 0.56948 0.19431 0.0
H745 H 0.92742 0.41308 0.19778 0.0
H746 H 0.95518 0.54033 0.15769 0.0
H747 H 0.93754 0.36761 0.21021 0.0
Zn748 Zn 0.8639 0.62904 0.42564 0.0
C749 C 0.82197 0.74194 0.43671 0.0
N750 N 0.85435 0.75921 0.43206 0.0
C751 C 0.87496 0.72325 0.42908 0.0
N752 N 0.85618 0.68491 0.43171 0.0
N753 N 0.82266 0.69621 0.4366 0.0
C754 C 0.71289 0.64441 0.43789 0.0
O755 O 0.74019 0.64061 0.43169 0.0
O756 O 0.9276 0.60645 0.42559 0.0
Zn757 Zn 0.79617 0.65222 0.44417 0.0
N758 N 0.84299 0.6439 0.41481 0.0
C759 C 0.78659 0.68392 0.40772 0.0
C760 C 0.804 0.66701 0.4149 0.0
C761 C 0.86562 0.63688 0.40773 0.0
N762 N 0.80902 0.67726 0.40068 0.0
C763 C 0.84813 0.65421 0.40041 0.0
O764 O 0.80308 0.58406 0.44174 0.0
C765 C 0.8139 0.55777 0.43594 0.0
O766 O 0.83203 0.57289 0.42951 0.0
H767 H 0.7872 0.67341 0.42058 0.0
H768 H 0.89719 0.61939 0.40785 0.0
C769 C 0.807 0.66326 0.46187 0.0
C770 C 0.83392 0.66973 0.46883 0.0
C771 C 0.89789 0.67418 0.46032 0.0
C772 C 0.87132 0.66735 0.45351 0.0
N773 N 0.82655 0.66215 0.45439 0.0
N774 N 0.87868 0.67513 0.46777 0.0
H775 H 0.77123 0.6595 0.4623 0.0
C776 C 0.93943 0.5883 0.43226 0.0
O777 O 0.9127 0.59135 0.43857 0.0
O778 O 0.72903 0.65664 0.4447 0.0
H779 H 0.8863 0.66608 0.44754 0.0
H780 H 0.75574 0.70264 0.40773 0.0
H781 H 0.93356 0.67847 0.4597 0.0
Zn782 Zn 0.64079 0.54513 0.69419 0.0
C783 C 0.57704 0.62499 0.67801 0.0
N784 N 0.53994 0.60376 0.68035 0.0
C785 C 0.55516 0.57116 0.68519 0.0
N786 N 0.60069 0.57251 0.68592 0.0
N787 N 0.61396 0.6063 0.68127 0.0
C788 C 0.70122 0.69816 0.68262 0.0
O789 O 0.694 0.67448 0.68921 0.0
O790 O 0.63472 0.47819 0.69445 0.0
Zn791 Zn 0.67324 0.61671 0.67666 0.0
N792 N 0.62623 0.5751 0.70432 0.0
C793 C 0.60651 0.64512 0.71015 0.0
C794 C 0.6146 0.61864 0.70337 0.0
C795 C 0.6303 0.55686 0.71188 0.0
N796 N 0.61089 0.62724 0.71767 0.0
C797 C 0.62257 0.58381 0.71879 0.0
O798 O 0.72719 0.59259 0.68254 0.0
C799 C 0.7395 0.5687 0.68849 0.0
O800 O 0.71041 0.55042 0.69307 0.0
H801 H 0.61249 0.6331 0.69737 0.0
H802 H 0.64079 0.52249 0.71248 0.0
C803 C 0.66211 0.6044 0.65905 0.0
C804 C 0.66193 0.57739 0.65201 0.0
C805 C 0.68428 0.51537 0.66003 0.0
C806 C 0.6851 0.54228 0.66692 0.0
N807 N 0.67381 0.58603 0.66632 0.0
N808 N 0.67288 0.53349 0.65278 0.0
H809 H 0.65261 0.63918 0.65883 0.0
C810 C 0.63895 0.45992 0.6875 0.0
O811 O 0.63335 0.4847 0.681 0.0
O812 O 0.68961 0.68192 0.67577 0.0
H813 H 0.6943 0.52835 0.67274 0.0
H814 H 0.59739 0.67982 0.70945 0.0
H815 H 0.69283 0.48039 0.66043 0.0
Zn816 Zn 0.36711 0.41416 0.42541 0.0
C817 C 0.32137 0.29902 0.43477 0.0
N818 N 0.35495 0.28308 0.43023 0.0
C819 C 0.37678 0.31984 0.42795 0.0
N820 N 0.35766 0.35721 0.43092 0.0
N821 N 0.32265 0.34464 0.43532 0.0
C822 C 0.21291 0.39816 0.4367 0.0
O823 O 0.24136 0.40585 0.4308 0.0
O824 O 0.43178 0.43293 0.42557 0.0
Zn825 Zn 0.29527 0.38644 0.44323 0.0
N826 N 0.34567 0.40282 0.41446 0.0
C827 C 0.28833 0.36563 0.40708 0.0
C828 C 0.30616 0.38059 0.41438 0.0
C829 C 0.3684 0.41087 0.40742 0.0
N830 N 0.31092 0.37318 0.40009 0.0
C831 C 0.35053 0.39537 0.39999 0.0
O832 O 0.30319 0.45513 0.4415 0.0
C833 C 0.31677 0.48338 0.43624 0.0
O834 O 0.3372 0.47035 0.42988 0.0
H835 H 0.28931 0.37319 0.42 0.0
H836 H 0.40036 0.42759 0.40765 0.0
C837 C 0.30408 0.37461 0.46097 0.0
C838 C 0.32988 0.36604 0.468 0.0
C839 C 0.39347 0.35443 0.45961 0.0
C840 C 0.36812 0.36353 0.45275 0.0
N841 N 0.32401 0.37315 0.45352 0.0
N842 N 0.37389 0.35601 0.46703 0.0
H843 H 0.2689 0.3822 0.46132 0.0
C844 C 0.44439 0.4481 0.43244 0.0
O845 O 0.41761 0.44378 0.43871 0.0
O846 O 0.22788 0.38242 0.44335 0.0
H847 H 0.38369 0.36328 0.44683 0.0
H848 H 0.25707 0.34761 0.40696 0.0
H849 H 0.42857 0.34659 0.45908 0.0
Zn850 Zn 0.41091 0.54271 0.19346 0.0
C851 C 0.47442 0.62251 0.17726 0.0
N852 N 0.51129 0.60025 0.17938 0.0
C853 C 0.49598 0.56777 0.18422 0.0
N854 N 0.45058 0.57009 0.18514 0.0
N855 N 0.4374 0.60449 0.18062 0.0
C856 C 0.34451 0.69429 0.18234 0.0
O857 O 0.35048 0.66981 0.18888 0.0
O858 O 0.4179 0.47596 0.19385 0.0
Zn859 Zn 0.3778 0.61497 0.17605 0.0
N860 N 0.42597 0.57252 0.20357 0.0
C861 C 0.44644 0.64188 0.20955 0.0
C862 C 0.43761 0.61611 0.20271 0.0
C863 C 0.42257 0.55355 0.21107 0.0
N864 N 0.44279 0.62323 0.21702 0.0
C865 C 0.4311 0.57972 0.21804 0.0
O866 O 0.3244 0.5882 0.18171 0.0
C867 C 0.31207 0.56477 0.18771 0.0
O868 O 0.34114 0.54758 0.19245 0.0
H869 H 0.43926 0.63109 0.19674 0.0
H870 H 0.41205 0.51915 0.21157 0.0
C871 C 0.38847 0.6091 0.15839 0.0
C872 C 0.39217 0.58429 0.15114 0.0
C873 C 0.37656 0.51796 0.1585 0.0
C874 C 0.37244 0.54263 0.16562 0.0
N875 N 0.37892 0.58744 0.16546 0.0
N876 N 0.38631 0.53928 0.15145 0.0
H877 H 0.39391 0.64478 0.15847 0.0
C878 C 0.41407 0.45687 0.18697 0.0
O879 O 0.41915 0.48103 0.18038 0.0
O880 O 0.35892 0.67969 0.17555 0.0
H881 H 0.36469 0.52622 0.17129 0.0
H882 H 0.4556 0.67662 0.20895 0.0
H883 H 0.37197 0.48218 0.15855 0.0
Zn884 Zn 0.18613 0.61467 0.92689 0.0
C885 C 0.23126 0.73276 0.93548 0.0
N886 N 0.19907 0.74778 0.93052 0.0
C887 C 0.17844 0.71054 0.92808 0.0
N888 N 0.19708 0.67384 0.93139 0.0
N889 N 0.23022 0.68727 0.93618 0.0
C890 C 0.34141 0.64653 0.9378 0.0
O891 O 0.31579 0.64948 0.93134 0.0
O892 O 0.12066 0.59959 0.92596 0.0
Zn893 Zn 0.25697 0.64783 0.94458 0.0
N894 N 0.21705 0.61262 0.91657 0.0
C895 C 0.28689 0.59769 0.91027 0.0
C896 C 0.25988 0.59811 0.91713 0.0
C897 C 0.19974 0.62647 0.90933 0.0
N898 N 0.26981 0.61125 0.90305 0.0
C899 C 0.22686 0.62552 0.9023 0.0
O900 O 0.25015 0.57818 0.94373 0.0
C901 C 0.23188 0.54909 0.93913 0.0
O902 O 0.20903 0.56132 0.93304 0.0
H903 H 0.27309 0.58738 0.92293 0.0
H904 H 0.16577 0.63858 0.90912 0.0
C905 C 0.24748 0.6646 0.96215 0.0
C906 C 0.2217 0.67588 0.96906 0.0
C907 C 0.15902 0.68784 0.96045 0.0
C908 C 0.18432 0.67602 0.95372 0.0
N909 N 0.22799 0.66493 0.95465 0.0
N910 N 0.17816 0.68736 0.96791 0.0
H911 H 0.28231 0.65575 0.96262 0.0
C912 C 0.10382 0.58844 0.93278 0.0
O913 O 0.1273 0.59524 0.93942 0.0
O914 O 0.32392 0.65311 0.94475 0.0
H915 H 0.16908 0.67535 0.94776 0.0
H916 H 0.32116 0.58656 0.91066 0.0
H917 H 0.12429 0.69691 0.95978 0.0
Zn918 Zn 0.14062 0.50793 0.69359 0.0
C919 C 0.07714 0.42795 0.67736 0.0
N920 N 0.04002 0.44901 0.67975 0.0
C921 C 0.05524 0.4816 0.68461 0.0
N922 N 0.10078 0.48041 0.68529 0.0
N923 N 0.11406 0.44672 0.68061 0.0
C924 C 0.20121 0.35468 0.68198 0.0
O925 O 0.19388 0.37821 0.68859 0.0
O926 O 0.13478 0.57481 0.69371 0.0
Zn927 Zn 0.17339 0.43622 0.67607 0.0
N928 N 0.12414 0.4797 0.70376 0.0
C929 C 0.09893 0.41252 0.7099 0.0
C930 C 0.11016 0.43676 0.70301 0.0
C931 C 0.128 0.49939 0.7112 0.0
N932 N 0.10294 0.43187 0.71731 0.0
C933 C 0.11742 0.47464 0.71826 0.0
O934 O 0.2269 0.46001 0.6821 0.0
C935 C 0.23942 0.48339 0.68811 0.0
O936 O 0.21047 0.50181 0.69272 0.0
H937 H 0.10814 0.42118 0.69709 0.0
H938 H 0.13912 0.53361 0.71152 0.0
C939 C 0.16241 0.4485 0.65849 0.0
C940 C 0.16307 0.47517 0.65142 0.0
C941 C 0.18755 0.53677 0.65936 0.0
C942 C 0.18758 0.51016 0.66627 0.0
N943 N 0.17478 0.4668 0.66574 0.0
N944 N 0.17547 0.51871 0.65213 0.0
H945 H 0.15179 0.41404 0.65831 0.0
C946 C 0.14051 0.59279 0.68678 0.0
O947 O 0.13676 0.56766 0.68027 0.0
O948 O 0.18959 0.37103 0.67515 0.0
H949 H 0.19741 0.52402 0.67207 0.0
H950 H 0.0876 0.37838 0.70939 0.0
H951 H 0.19729 0.57146 0.65972 0.0
Zn952 Zn 0.29484 0.65757 0.05138 0.0
C953 C 0.37392 0.72507 0.06726 0.0
N954 N 0.35187 0.7613 0.06476 0.0
C955 C 0.31986 0.74476 0.05994 0.0
N956 N 0.32216 0.69916 0.05942 0.0
N957 N 0.35621 0.68715 0.06416 0.0
C958 C 0.44537 0.59519 0.06233 0.0
O959 O 0.41964 0.60129 0.05596 0.0
O960 O 0.22802 0.66457 0.05069 0.0
Zn961 Zn 0.36736 0.62834 0.06905 0.0
N962 N 0.32544 0.66956 0.04123 0.0
C963 C 0.39595 0.68545 0.03525 0.0
C964 C 0.36959 0.67885 0.04209 0.0
C965 C 0.30638 0.66657 0.03372 0.0
N966 N 0.37721 0.68217 0.02777 0.0
C967 C 0.33308 0.67296 0.02675 0.0
O968 O 0.33948 0.57368 0.0639 0.0
C969 C 0.31583 0.56018 0.05799 0.0
O970 O 0.29908 0.58825 0.05301 0.0
H971 H 0.38446 0.68042 0.04807 0.0
H972 H 0.27141 0.65807 0.03322 0.0
C973 C 0.36455 0.63903 0.08681 0.0
C974 C 0.34056 0.6445 0.09412 0.0
C975 C 0.27269 0.63478 0.08688 0.0
C976 C 0.29648 0.62886 0.0797 0.0
N977 N 0.34168 0.63167 0.07977 0.0
N978 N 0.2952 0.64246 0.09389 0.0
H979 H 0.40058 0.64133 0.08668 0.0
C980 C 0.20815 0.6612 0.0575 0.0
O981 O 0.23151 0.66711 0.06417 0.0
O982 O 0.43206 0.60943 0.06922 0.0
H983 H 0.27917 0.62251 0.07406 0.0
H984 H 0.43114 0.69269 0.03586 0.0
H985 H 0.23664 0.63313 0.08689 0.0
Zn986 Zn 0.17438 0.62212 0.81912 0.0
C987 C 0.06152 0.5805 0.80794 0.0
N988 N 0.04424 0.61301 0.81256 0.0
C989 C 0.08021 0.63342 0.81559 0.0
N990 N 0.11858 0.61442 0.813 0.0
N991 N 0.10723 0.58092 0.8081 0.0
C992 C 0.15983 0.47066 0.80725 0.0
O993 O 0.16456 0.49859 0.81334 0.0
O994 O 0.19607 0.68609 0.81916 0.0
Zn995 Zn 0.15108 0.55328 0.80066 0.0
N996 N 0.15952 0.60054 0.82993 0.0
C997 C 0.11796 0.54448 0.83682 0.0
C998 C 0.135 0.56243 0.82969 0.0
C999 C 0.16795 0.62166 0.83713 0.0
N1000 N 0.12596 0.56544 0.84396 0.0
C1001 C 0.15049 0.60358 0.8444 0.0
O1002 O 0.21905 0.56071 0.80305 0.0
C1003 C 0.24575 0.57228 0.80873 0.0
O1004 O 0.23103 0.59094 0.81515 0.0
H1005 H 0.12763 0.54671 0.82395 0.0
H1006 H 0.1867 0.6525 0.83716 0.0
C1007 C 0.14228 0.56098 0.7829 0.0
C1008 C 0.1371 0.58662 0.77576 0.0
C1009 C 0.12986 0.65191 0.78385 0.0
C1010 C 0.13515 0.62657 0.79085 0.0
N1011 N 0.1413 0.58177 0.79027 0.0
N1012 N 0.13112 0.63147 0.7765 0.0
H1013 H 0.14812 0.52541 0.78262 0.0
C1014 C 0.21305 0.69787 0.81239 0.0
O1015 O 0.20898 0.67099 0.80611 0.0
O1016 O 0.14672 0.4861 0.80044 0.0
H1017 H 0.13491 0.64261 0.79674 0.0
H1018 H 0.09812 0.51435 0.83668 0.0
H1019 H 0.12511 0.68762 0.78423 0.0
Zn1020 Zn 0.25648 0.39047 0.55061 0.0
C1021 C 0.17569 0.32274 0.56585 0.0
N1022 N 0.1975 0.28625 0.56341 0.0
C1023 C 0.23062 0.3026 0.55883 0.0
N1024 N 0.22914 0.34824 0.55841 0.0
N1025 N 0.19447 0.3605 0.56295 0.0
C1026 C 0.1099 0.45561 0.56185 0.0
O1027 O 0.13647 0.45182 0.55553 0.0
O1028 O 0.32379 0.38625 0.5504 0.0
Zn1029 Zn 0.1861 0.41739 0.56866 0.0
N1030 N 0.22747 0.37845 0.54031 0.0
C1031 C 0.15733 0.36328 0.53411 0.0
C1032 C 0.18307 0.37004 0.54103 0.0
C1033 C 0.24738 0.38054 0.53287 0.0
N1034 N 0.17691 0.3656 0.5267 0.0
C1035 C 0.22128 0.37402 0.52582 0.0
O1036 O 0.21715 0.47336 0.5644 0.0
C1037 C 0.23655 0.48677 0.55797 0.0
O1038 O 0.24891 0.45891 0.55253 0.0
H1039 H 0.16753 0.36931 0.54696 0.0
H1040 H 0.28253 0.38842 0.53248 0.0
C1041 C 0.18418 0.41267 0.5866 0.0
C1042 C 0.20163 0.39669 0.59403 0.0
C1043 C 0.26379 0.36665 0.58695 0.0
C1044 C 0.24637 0.38212 0.57965 0.0
N1045 N 0.20711 0.40479 0.57958 0.0
N1046 N 0.24105 0.37413 0.59392 0.0
H1047 H 0.15239 0.4297 0.58636 0.0
C1048 C 0.339 0.4008 0.55713 0.0
O1049 O 0.31081 0.40715 0.56313 0.0
O1050 O 0.1221 0.43864 0.5686 0.0
H1051 H 0.26332 0.37484 0.57403 0.0
H1052 H 0.12196 0.35669 0.53461 0.0
H1053 H 0.29486 0.3483 0.58706 0.0
Zn1054 Zn 0.40755 0.51308 0.30069 0.0
C1055 C 0.47096 0.43336 0.3169 0.0
N1056 N 0.50813 0.45416 0.31448 0.0
C1057 C 0.49296 0.48671 0.30962 0.0
N1058 N 0.4474 0.48575 0.30897 0.0
N1059 N 0.43403 0.45223 0.31368 0.0
C1060 C 0.34635 0.36091 0.31225 0.0
O1061 O 0.35372 0.38473 0.30568 0.0
O1062 O 0.4137 0.57994 0.30042 0.0
Zn1063 Zn 0.37466 0.44209 0.31827 0.0
N1064 N 0.42292 0.48334 0.29059 0.0
C1065 C 0.44349 0.41365 0.28479 0.0
C1066 C 0.43321 0.4395 0.29154 0.0
C1067 C 0.42195 0.50249 0.28308 0.0
N1068 N 0.44235 0.43245 0.27731 0.0
C1069 C 0.43167 0.47616 0.27615 0.0
O1070 O 0.3209 0.46645 0.31236 0.0
C1071 C 0.30871 0.4899 0.30635 0.0
O1072 O 0.33788 0.50771 0.30171 0.0
H1073 H 0.43303 0.42452 0.29751 0.0
H1074 H 0.41373 0.53745 0.2826 0.0
C1075 C 0.38645 0.45403 0.33586 0.0
C1076 C 0.3869 0.48083 0.34293 0.0
C1077 C 0.36347 0.5429 0.33503 0.0
C1078 C 0.36243 0.51621 0.32812 0.0
N1079 N 0.37414 0.47254 0.32863 0.0
N1080 N 0.37553 0.52465 0.34223 0.0
H1081 H 0.39628 0.41934 0.33603 0.0
C1082 C 0.40873 0.59817 0.30736 0.0
O1083 O 0.41356 0.57334 0.31387 0.0
O1084 O 0.35796 0.37695 0.31912 0.0
H1085 H 0.35278 0.53026 0.32233 0.0
H1086 H 0.45187 0.37876 0.28547 0.0
H1087 H 0.3546 0.57782 0.33468 0.0
H1088 H 0.56116 0.98529 0.04904 0.0
H1089 H 0.38571 0.1423 0.07203 0.0
H1090 H 0.55399 0.99655 0.07519 0.0
H1091 H 0.39194 0.12765 0.04592 0.0
H1092 H 0.44988 0.09264 0.07331 0.0
H1093 H 0.5002 0.03857 0.04784 0.0
C1094 C 0.54651 0.99868 0.05455 0.0
C1095 C 0.5628 0.98636 0.06224 0.0
C1096 C 0.43748 0.1006 0.0673 0.0
C1097 C 0.49302 0.04814 0.06089 0.0
C1098 C 0.401 0.12929 0.06654 0.0
C1099 C 0.38316 0.13911 0.05884 0.0
C1100 C 0.45635 0.08144 0.0603 0.0
C1101 C 0.40445 0.12109 0.05198 0.0
C1102 C 0.51177 0.02936 0.05385 0.0
C1103 C 0.5424 1.00492 0.06915 0.0
N1104 N 0.43964 0.09288 0.05288 0.0
N1105 N 0.50868 0.03502 0.06831 0.0
H1106 H 0.1646 0.14206 0.32171 0.0
H1107 H 0.31904 0.31836 0.29846 0.0
H1108 H 0.17374 0.15145 0.29556 0.0
H1109 H 0.30915 0.3114 0.32462 0.0
H1110 H 0.26579 0.25728 0.29735 0.0
H1111 H 0.21488 0.20577 0.32293 0.0
C1112 C 0.17654 0.15797 0.31622 0.0
C1113 C 0.16496 0.14117 0.30851 0.0
C1114 C 0.27531 0.26893 0.30334 0.0
C1115 C 0.22336 0.2138 0.30989 0.0
C1116 C 0.30599 0.30371 0.30399 0.0
C1117 C 0.31861 0.32015 0.31165 0.0
C1118 C 0.25688 0.25028 0.31041 0.0
C1119 C 0.30051 0.29974 0.31859 0.0
C1120 C 0.20557 0.19418 0.31693 0.0
C1121 C 0.18164 0.16318 0.30162 0.0
N1122 N 0.27041 0.26598 0.3178 0.0
N1123 N 0.21027 0.19808 0.30247 0.0
H1124 H 0.16907 0.92666 0.5713 0.0
H1125 H 0.97589 0.05798 0.54776 0.0
H1126 H 0.15384 0.92378 0.5452 0.0
H1127 H 0.9985 0.06786 0.57364 0.0
H1128 H 0.03836 1.00605 0.54673 0.0
H1129 H 0.10263 0.97316 0.57232 0.0
C1130 C 0.15131 0.93522 0.56578 0.0
C1131 C 0.16724 0.92145 0.55814 0.0
C1132 C 0.02977 1.01964 0.55263 0.0
C1133 C 0.0913 0.97554 0.55926 0.0
C1134 C 0.99419 0.04951 0.55323 0.0
C1135 C 0.98191 0.06742 0.56081 0.0
C1136 C 0.05328 1.00735 0.55966 0.0
C1137 C 1.00685 0.05506 0.56767 0.0
C1138 C 0.11349 0.96208 0.56637 0.0
C1139 C 0.14272 0.93351 0.55121 0.0
N1140 N 0.04123 0.0257 0.56694 0.0
N1141 N 0.10619 0.96024 0.55193 0.0
H1142 H 0.37662 0.9299 0.82195 0.0
H1143 H 0.25174 0.73148 0.79866 0.0
H1144 H 0.38436 0.91014 0.79597 0.0
H1145 H 0.23927 0.756 0.82444 0.0
H1146 H 0.30292 0.79445 0.79762 0.0
H1147 H 0.33125 0.86274 0.82307 0.0
C1148 C 0.36936 0.91102 0.81648 0.0
C1149 C 0.38418 0.92586 0.80884 0.0
C1150 C 0.28897 0.78616 0.80351 0.0
C1151 C 0.3314 0.84905 0.81009 0.0
C1152 C 0.25952 0.75028 0.80411 0.0
C1153 C 0.24104 0.73841 0.81166 0.0
C1154 C 0.30026 0.81048 0.81051 0.0
C1155 C 0.25253 0.76401 0.8185 0.0
C1156 C 0.34316 0.87277 0.81713 0.0
C1157 C 0.37379 0.89991 0.80199 0.0
N1158 N 0.28146 0.79876 0.81776 0.0
N1159 N 0.34767 0.86299 0.80276 0.0
H1160 H 0.38318 0.91624 0.42346 0.0
H1161 H 0.56526 0.06324 0.44691 0.0
H1162 H 0.39254 0.92295 0.44963 0.0
H1163 H 0.5522 0.0592 0.42076 0.0
H1164 H 0.50354 1.01054 0.44806 0.0
H1165 H 0.44831 0.96456 0.4224 0.0
C1166 C 0.39942 0.92727 0.429 0.0
C1167 C 0.38222 0.91565 0.43665 0.0
C1168 C 0.51404 1.02127 0.44207 0.0
C1169 C 0.45651 0.97187 0.43548 0.0
C1170 C 0.54915 0.05162 0.4414 0.0
C1171 C 0.564 0.06572 0.43371 0.0
C1172 C 0.49357 1.00471 0.435 0.0
C1173 C 0.54183 0.0494 0.42681 0.0
C1174 C 0.43646 0.95518 0.42838 0.0
C1175 C 0.40472 0.93091 0.44361 0.0
N1176 N 0.50787 1.01964 0.42762 0.0
N1177 N 0.44047 0.95861 0.44285 0.0
H1178 H 0.37752 0.14765 0.69945 0.0
H1179 H 0.2365 0.30474 0.66946 0.0
H1180 H 0.38215 0.13677 0.67327 0.0
H1181 H 0.23125 0.31306 0.69567 0.0
H1182 H 0.29049 0.24371 0.67065 0.0
H1183 H 0.32691 0.21108 0.69811 0.0
C1184 C 0.36857 0.15905 0.69342 0.0
C1185 C 0.38405 0.13663 0.68647 0.0
C1186 C 0.27736 0.25881 0.67614 0.0
C1187 C 0.32527 0.20881 0.68489 0.0
C1188 C 0.24626 0.29343 0.67546 0.0
C1189 C 0.22931 0.31412 0.68247 0.0
C1190 C 0.29163 0.24484 0.68388 0.0
C1191 C 0.24342 0.29822 0.69009 0.0
C1192 C 0.3393 0.19507 0.69265 0.0
C1193 C 0.37104 0.1529 0.67881 0.0
N1194 N 0.27381 0.26473 0.69059 0.0
N1195 N 0.34216 0.18772 0.67822 0.0
H1196 H 0.15983 0.11981 0.92295 0.0
H1197 H 0.98021 0.9679 0.94594 0.0
H1198 H 0.14629 0.11403 0.94907 0.0
H1199 H 0.99082 0.97469 0.91978 0.0
H1200 H 0.04084 1.02159 0.94712 0.0
H1201 H 0.09633 0.06932 0.9216 0.0
C1202 C 0.14307 0.10855 0.92841 0.0
C1203 C 0.15862 0.12119 0.93615 0.0
C1204 C 0.03009 1.01131 0.94111 0.0
C1205 C 0.08619 0.06253 0.93463 0.0
C1206 C 0.99555 0.98038 0.94042 0.0
C1207 C 0.98029 0.96669 0.93274 0.0
C1208 C 0.04975 0.02893 0.93407 0.0
C1209 C 1.00157 0.98413 0.92583 0.0
C1210 C 0.10696 0.07941 0.92763 0.0
C1211 C 0.13553 0.10533 0.94299 0.0
N1212 N 0.03511 1.01446 0.92666 0.0
N1213 N 0.10076 0.07658 0.94207 0.0
H1214 H 0.31334 0.74677 0.16984 0.0
H1215 H 0.16784 0.90278 0.19933 0.0
H1216 H 0.30982 0.73299 0.19597 0.0
H1217 H 0.16759 0.91456 0.17315 0.0
H1218 H 0.21736 0.83834 0.19816 0.0
H1219 H 0.25976 0.80822 0.17088 0.0
C1220 C 0.30169 0.75693 0.1758 0.0
C1221 C 0.31613 0.73466 0.18283 0.0
C1222 C 0.20613 0.85477 0.19266 0.0
C1223 C 0.25432 0.80448 0.18406 0.0
C1224 C 0.17751 0.89138 0.19333 0.0
C1225 C 0.16362 0.91433 0.18634 0.0
C1226 C 0.22115 0.84103 0.18495 0.0
C1227 C 0.17749 0.89804 0.17872 0.0
C1228 C 0.27083 0.79179 0.17639 0.0
C1229 C 0.29965 0.74912 0.19038 0.0
N1230 N 0.20577 0.8627 0.17824 0.0
N1231 N 0.26961 0.78297 0.1908 0.0
H1232 H 0.65146 0.91475 0.94998 0.0
H1233 H 0.4936 0.05821 0.92046 0.0
H1234 H 0.66757 0.92093 0.92392 0.0
H1235 H 0.48044 0.05638 0.94661 0.0
H1236 H 0.55626 1.00624 0.92157 0.0
H1237 H 0.58538 0.96246 0.94881 0.0
C1238 C 0.64059 0.92533 0.944 0.0
C1239 C 0.66519 0.91396 0.93704 0.0
C1240 C 0.53974 1.01733 0.92707 0.0
C1241 C 0.59027 0.96933 0.93567 0.0
C1242 C 0.50415 0.04728 0.92644 0.0
C1243 C 0.48168 0.06173 0.93345 0.0
C1244 C 0.55293 1.00161 0.93477 0.0
C1245 C 0.49672 0.04619 0.94103 0.0
C1246 C 0.60315 0.95299 0.94334 0.0
C1247 C 0.64978 0.92907 0.92945 0.0
N1248 N 0.53123 1.0169 0.94149 0.0
N1249 N 0.61358 0.95618 0.92898 0.0
H1250 H 0.88318 0.91645 0.67285 0.0
H1251 H 0.72885 0.74104 0.69637 0.0
H1252 H 0.87428 0.90807 0.69902 0.0
H1253 H 0.73825 0.74735 0.67019 0.0
H1254 H 0.7822 0.80209 0.69739 0.0
H1255 H 0.83281 0.85276 0.67173 0.0
C1256 C 0.87127 0.90077 0.67837 0.0
C1257 C 0.88296 0.91785 0.68605 0.0
C1258 C 0.77254 0.79031 0.69141 0.0
C1259 C 0.82443 0.84524 0.68478 0.0
C1260 C 0.7418 0.75555 0.69082 0.0
C1261 C 0.72901 0.73893 0.68317 0.0
C1262 C 0.79086 0.80877 0.68432 0.0
C1263 C 0.74701 0.75916 0.67621 0.0
C1264 C 0.84218 0.86457 0.67772 0.0
C1265 C 0.8663 0.89612 0.69298 0.0
N1266 N 0.77716 0.79289 0.67695 0.0
N1267 N 0.83762 0.86122 0.69217 0.0
H1268 H 0.9013 0.13107 0.44875 0.0
H1269 H 0.0533 0.97911 0.41967 0.0
H1270 H 0.8856 0.1247 0.42266 0.0
H1271 H 0.07555 0.99371 0.44549 0.0
H1272 H 0.99148 0.03226 0.42065 0.0
H1273 H 0.9668 0.08278 0.44764 0.0
C1274 C 0.91204 0.12021 0.44278 0.0
C1275 C 0.8877 0.13186 0.4358 0.0
C1276 C 1.00988 1.02378 0.4261 0.0
C1277 C 0.96217 0.07575 0.43449 0.0
C1278 C 0.04498 0.99317 0.42555 0.0
C1279 C 0.06965 0.98186 0.43251 0.0
C1280 C 0.99928 0.04313 0.43366 0.0
C1281 C 0.05749 1.00139 0.43996 0.0
C1282 C 0.94927 0.09231 0.44215 0.0
C1283 C 0.90317 0.11652 0.42822 0.0
N1284 N 1.02326 0.03102 0.44034 0.0
N1285 N 0.93909 0.08897 0.42778 0.0
H1286 H 0.67603 0.12938 0.17398 0.0
H1287 H 0.81166 0.32218 0.19684 0.0
H1288 H 0.67775 0.14455 0.20009 0.0
H1289 H 0.81836 0.29876 0.17095 0.0
H1290 H 0.75965 0.25996 0.19813 0.0
H1291 H 0.7227 0.19556 0.17272 0.0
C1292 C 0.68562 0.14708 0.17946 0.0
C1293 C 0.67311 0.13119 0.18716 0.0
C1294 C 0.77256 0.26832 0.19217 0.0
C1295 C 0.72739 0.20683 0.18576 0.0
C1296 C 0.80246 0.30375 0.19142 0.0
C1297 C 0.8195 0.31574 0.18377 0.0
C1298 C 0.75932 0.24465 0.1852 0.0
C1299 C 0.80625 0.29063 0.17697 0.0
C1300 C 0.7126 0.18474 0.17873 0.0
C1301 C 0.68649 0.15562 0.19403 0.0
N1302 N 0.77685 0.25639 0.17785 0.0
N1303 N 0.71327 0.192 0.19317 0.0
H1304 H 0.49849 0.98049 0.57434 0.0
H1305 H 0.65161 0.12874 0.54486 0.0
H1306 H 0.47387 0.99514 0.5486 0.0
H1307 H 0.66917 0.12095 0.57089 0.0
H1308 H 0.58448 0.08252 0.5461 0.0
H1309 H 0.56117 0.03232 0.57315 0.0
C1310 C 0.50645 0.99431 0.56843 0.0
C1311 C 0.48088 0.98337 0.56156 0.0
C1312 C 0.6028 0.09136 0.55155 0.0
C1313 C 0.55231 0.04319 0.56016 0.0
C1314 C 0.64088 0.11811 0.55085 0.0
C1315 C 0.66621 0.12854 0.55777 0.0
C1316 C 0.59011 0.07488 0.55922 0.0
C1317 C 0.65089 0.11349 0.56537 0.0
C1318 C 0.54207 1.02417 0.56775 0.0
C1319 C 0.49264 1.00255 0.55406 0.0
N1320 N 0.61417 0.08715 0.56588 0.0
N1321 N 0.52743 0.03149 0.55356 0.0
H1322 H 0.65915 0.91728 0.32149 0.0
H1323 H 0.82411 0.74912 0.2985 0.0
H1324 H 0.6767 0.91427 0.29542 0.0
H1325 H 0.80729 0.75116 0.32458 0.0
H1326 H 0.77004 0.80947 0.29732 0.0
H1327 H 0.71065 0.85454 0.32273 0.0
C1328 C 0.67321 0.90298 0.31601 0.0
C1329 C 0.66359 0.9213 0.30834 0.0
C1330 C 0.77825 0.79692 0.30331 0.0
C1331 C 0.72341 0.84979 0.30974 0.0
C1332 C 0.8094 0.76256 0.304 0.0
C1333 C 0.82031 0.74492 0.31166 0.0
C1334 C 0.7576 0.81392 0.31032 0.0
C1335 C 0.80005 0.76378 0.31855 0.0
C1336 C 0.70295 0.86733 0.31673 0.0
C1337 C 0.68302 0.90133 0.30146 0.0
N1338 N 0.76952 0.79711 0.31772 0.0
N1339 N 0.71223 0.86694 0.30234 0.0
H1340 H 0.0591 0.06854 0.04837 0.0
H1341 H 0.88301 0.91337 0.07156 0.0
H1342 H 0.04811 0.06198 0.07452 0.0
H1343 H 0.89077 0.92406 0.0454 0.0
H1344 H 0.94621 0.96423 0.07275 0.0
H1345 H 0.99851 1.01465 0.04718 0.0
C1346 C 0.04365 0.05611 0.05387 0.0
C1347 C 0.0588 0.06986 0.06157 0.0
C1348 C 0.93438 0.95517 0.06675 0.0
C1349 C 0.98959 1.00741 0.06024 0.0
C1350 C 0.89846 0.92577 0.06605 0.0
C1351 C 0.88133 0.91445 0.05836 0.0
C1352 C 0.95344 0.97354 0.05971 0.0
C1353 C 0.90278 0.93176 0.05146 0.0
C1354 C 1.00916 1.02508 0.05319 0.0
C1355 C 0.03745 0.05249 0.06847 0.0
N1356 N 0.93746 0.96069 0.0523 0.0
N1357 N 1.00408 1.02202 0.06764 0.0
H1358 H 0.8855 0.14034 0.8207 0.0
H1359 H 0.73712 0.32321 0.79783 0.0
H1360 H 0.87808 0.15142 0.79456 0.0
H1361 H 0.7453 0.31171 0.82397 0.0
H1362 H 0.78934 0.26122 0.7965 0.0
H1363 H 0.83749 0.20561 0.82197 0.0
C1364 C 0.87438 0.157 0.81521 0.0
C1365 C 0.88575 0.14027 0.8075 0.0
C1366 C 0.77964 0.27212 0.80253 0.0
C1367 C 0.82985 0.21472 0.80893 0.0
C1368 C 0.74955 0.30739 0.8033 0.0
C1369 C 0.73675 0.32278 0.81104 0.0
C1370 C 0.79723 0.25196 0.80953 0.0
C1371 C 0.75409 0.30093 0.81789 0.0
C1372 C 0.84666 0.19413 0.81595 0.0
C1373 C 0.87036 0.16327 0.80062 0.0
N1374 N 0.78354 0.26675 0.81697 0.0
N1375 N 0.84281 0.19907 0.8015 0.0
H1376 H 0.89728 0.62892 0.54497 0.0
H1377 H 0.05207 0.47998 0.57403 0.0
H1378 H 0.88097 0.62003 0.571 0.0
H1379 H 0.07583 0.49588 0.5483 0.0
H1380 H 0.98913 0.53155 0.57298 0.0
H1381 H 0.96461 0.58284 0.54604 0.0
C1382 C 0.90832 0.61808 0.55092 0.0
C1383 C 0.8833 0.62815 0.5579 0.0
C1384 C 1.00809 0.52373 0.56756 0.0
C1385 C 0.95961 0.57467 0.55916 0.0
C1386 C 0.04386 0.49402 0.56815 0.0
C1387 C 0.06928 0.48353 0.56125 0.0
C1388 C 0.99754 0.54306 0.56 0.0
C1389 C 0.05718 0.50297 0.55379 0.0
C1390 C 0.94652 0.59141 0.55153 0.0
C1391 C 0.89901 0.61284 0.56545 0.0
N1392 N 1.02225 0.53177 0.55336 0.0
N1393 N 0.93583 0.5866 0.56587 0.0
H1394 H 0.81422 0.83406 0.79894 0.0
H1395 H 0.67875 0.64405 0.82253 0.0
H1396 H 0.82116 0.81524 0.82494 0.0
H1397 H 0.6763 0.6605 0.79644 0.0
H1398 H 0.72665 0.70958 0.82364 0.0
H1399 H 0.7617 0.77229 0.79801 0.0
C1400 C 0.80494 0.81675 0.80447 0.0
C1401 C 0.82226 0.82992 0.81204 0.0
C1402 C 0.71533 0.69914 0.81768 0.0
C1403 C 0.76142 0.75909 0.81101 0.0
C1404 C 0.68765 0.66185 0.81703 0.0
C1405 C 0.67352 0.64652 0.80937 0.0
C1406 C 0.72917 0.7214 0.81061 0.0
C1407 C 0.68628 0.67103 0.80248 0.0
C1408 C 0.77471 0.78151 0.80393 0.0
C1409 C 0.80884 0.80615 0.81897 0.0
N1410 N 0.71364 0.707 0.80326 0.0
N1411 N 0.77913 0.77196 0.81829 0.0
H1412 H 0.66405 0.4131 0.07143 0.0
H1413 H 0.48314 0.56329 0.0484 0.0
H1414 H 0.6531 0.42121 0.04528 0.0
H1415 H 0.4982 0.56089 0.07451 0.0
H1416 H 0.54375 0.5095 0.04718 0.0
H1417 H 0.6001 0.46297 0.07271 0.0
C1418 C 0.64774 0.4247 0.06595 0.0
C1419 C 0.66421 0.41302 0.05823 0.0
C1420 C 0.53397 0.5208 0.05318 0.0
C1421 C 0.59126 0.47093 0.05966 0.0
C1422 C 0.49946 0.55175 0.05389 0.0
C1423 C 0.48551 0.56669 0.06158 0.0
C1424 C 0.55478 0.5044 0.06022 0.0
C1425 C 0.50794 0.55046 0.06846 0.0
C1426 C 0.6114 0.45353 0.06669 0.0
C1427 C 0.64165 0.42926 0.05135 0.0
N1428 N 0.54135 0.52004 0.06762 0.0
N1429 N 0.60659 0.45765 0.05224 0.0
H1430 H 0.88495 0.42152 0.32156 0.0
H1431 H 0.73078 0.24439 0.29834 0.0
H1432 H 0.87664 0.41112 0.2954 0.0
H1433 H 0.73676 0.25586 0.3245 0.0
H1434 H 0.78481 0.30482 0.29718 0.0
H1435 H 0.83387 0.3585 0.32277 0.0
C1436 C 0.87303 0.40553 0.31606 0.0
C1437 C 0.88507 0.42186 0.30835 0.0
C1438 C 0.77423 0.29431 0.30318 0.0
C1439 C 0.82575 0.35001 0.30972 0.0
C1440 C 0.74311 0.25992 0.30385 0.0
C1441 C 0.72917 0.24495 0.31153 0.0
C1442 C 0.79178 0.31398 0.31024 0.0
C1443 C 0.74641 0.26639 0.31845 0.0
C1444 C 0.84351 0.36972 0.31677 0.0
C1445 C 0.86836 0.39975 0.30146 0.0
N1446 N 0.77696 0.29968 0.31764 0.0
N1447 N 0.8393 0.36523 0.30231 0.0
H1448 H 0.89181 0.4148 0.94951 0.0
H1449 H 0.05144 0.55766 0.92022 0.0
H1450 H 0.87652 0.42111 0.92343 0.0
H1451 H 0.06289 0.55624 0.9464 0.0
H1452 H 0.98856 0.50584 0.92122 0.0
H1453 H 0.95797 0.46239 0.94842 0.0
C1454 C 0.90285 0.42542 0.94355 0.0
C1455 C 0.87846 0.41408 0.93656 0.0
C1456 C 1.00476 0.517 0.92675 0.0
C1457 C 0.95354 0.4693 0.93527 0.0
C1458 C 0.04047 0.54685 0.92618 0.0
C1459 C 0.06252 0.56138 0.93323 0.0
C1460 C 0.99103 0.50145 0.93443 0.0
C1461 C 0.04696 0.54599 0.94079 0.0
C1462 C 0.94036 0.453 0.94293 0.0
C1463 C 0.89413 0.4292 0.92899 0.0
N1464 N 1.01235 0.51681 0.94119 0.0
N1465 N 0.93041 0.45624 0.92855 0.0
H1466 H 0.87956 0.6442 0.19992 0.0
H1467 H 0.72963 0.79844 0.17091 0.0
H1468 H 0.87045 0.62764 0.17388 0.0
H1469 H 0.74622 0.82238 0.19664 0.0
H1470 H 0.78113 0.73539 0.17194 0.0
H1471 H 0.833 0.71115 0.19885 0.0
C1472 C 0.86853 0.65508 0.19397 0.0
C1473 C 0.87875 0.6301 0.18699 0.0
C1474 C 0.77346 0.75441 0.17736 0.0
C1475 C 0.82469 0.70604 0.18574 0.0
C1476 C 0.74378 0.79023 0.17678 0.0
C1477 C 0.73353 0.81576 0.18369 0.0
C1478 C 0.79298 0.74391 0.18491 0.0
C1479 C 0.75312 0.80367 0.19114 0.0
C1480 C 0.8416 0.69308 0.19337 0.0
C1481 C 0.8632 0.64565 0.17944 0.0
N1482 N 0.78188 0.7687 0.19155 0.0
N1483 N 0.83669 0.68229 0.17903 0.0
H1484 H 0.50129 0.47572 0.42035 0.0
H1485 H 0.65565 0.62041 0.45026 0.0
H1486 H 0.47952 0.4847 0.44626 0.0
H1487 H 0.66931 0.6191 0.42411 0.0
H1488 H 0.58956 0.57277 0.44897 0.0
H1489 H 0.56359 0.52788 0.42169 0.0
C1490 C 0.50985 0.48831 0.42633 0.0
C1491 C 0.4851 0.47578 0.4332 0.0
C1492 C 0.60679 0.58333 0.44352 0.0
C1493 C 0.55607 0.53603 0.43477 0.0
C1494 C 0.64427 0.61089 0.44425 0.0
C1495 C 0.66822 0.62359 0.43729 0.0
C1496 C 0.59332 0.5683 0.43578 0.0
C1497 C 0.6521 0.6099 0.42965 0.0
C1498 C 0.54523 0.51838 0.42709 0.0
C1499 C 0.49763 0.49341 0.44079 0.0
N1500 N 0.61599 0.58273 0.42911 0.0
N1501 N 0.53214 0.52264 0.44137 0.0
H1502 H 0.82199 0.24271 0.69602 0.0
H1503 H 0.65972 0.41503 0.6735 0.0
H1504 H 0.80706 0.24847 0.66992 0.0
H1505 H 0.6746 0.40757 0.69959 0.0
H1506 H 0.71107 0.35231 0.67206 0.0
H1507 H 0.76805 0.30306 0.69738 0.0
C1508 C 0.80771 0.25697 0.69056 0.0
C1509 C 0.81912 0.24038 0.68284 0.0
C1510 C 0.7028 0.3641 0.67811 0.0
C1511 C 0.75656 0.3094 0.68438 0.0
C1512 C 0.67315 0.39974 0.67895 0.0
C1513 C 0.66282 0.4168 0.68669 0.0
C1514 C 0.72248 0.3453 0.68505 0.0
C1515 C 0.68146 0.39561 0.6935 0.0
C1516 C 0.77664 0.29133 0.69135 0.0
C1517 C 0.79942 0.26027 0.67599 0.0
N1518 N 0.71062 0.36125 0.69252 0.0
N1519 N 0.76895 0.29359 0.67692 0.0
H1520 H 0.99814 0.56574 0.42009 0.0
H1521 H 0.15218 0.41455 0.44894 0.0
H1522 H 0.97272 0.54618 0.44569 0.0
H1523 H 0.1713 0.42783 0.42302 0.0
H1524 H 0.08433 0.45986 0.44784 0.0
H1525 H 0.06155 0.51461 0.42107 0.0
C1526 C 1.00606 0.55097 0.42592 0.0
C1527 C 0.98008 0.56035 0.43281 0.0
C1528 C 0.10316 0.45243 0.44239 0.0
C1529 C 0.05235 0.50136 0.43398 0.0
C1530 C 0.14167 0.4262 0.443 0.0
C1531 C 0.16761 0.41757 0.43607 0.0
C1532 C 0.09066 0.47018 0.43479 0.0
C1533 C 0.15254 0.43389 0.42854 0.0
C1534 C 0.0421 0.52153 0.42648 0.0
C1535 C 0.99181 0.53999 0.44021 0.0
N1536 N 0.11538 0.45967 0.42812 0.0
N1537 N 0.02701 0.51151 0.4406 0.0
H1538 H 0.39243 0.41078 0.17315 0.0
H1539 H 0.23719 0.23601 0.19664 0.0
H1540 H 0.38127 0.40448 0.19931 0.0
H1541 H 0.24398 0.24524 0.17046 0.0
H1542 H 0.29126 0.29647 0.1977 0.0
H1543 H 0.34193 0.34722 0.17205 0.0
C1544 C 0.38001 0.39558 0.17868 0.0
C1545 C 0.39104 0.41325 0.18634 0.0
C1546 C 0.28086 0.28545 0.19172 0.0
C1547 C 0.3324 0.34076 0.1851 0.0
C1548 C 0.24973 0.25103 0.1911 0.0
C1549 C 0.23596 0.23546 0.18344 0.0
C1550 C 0.29861 0.30453 0.18463 0.0
C1551 C 0.25348 0.25625 0.17649 0.0
C1552 C 0.35083 0.35946 0.17803 0.0
C1553 C 0.37376 0.39209 0.19328 0.0
N1554 N 0.28404 0.28959 0.17725 0.0
N1555 N 0.34503 0.35723 0.19249 0.0
H1556 H 0.5477 0.47002 0.9202 0.0
H1557 H 0.39742 0.6191 0.95007 0.0
H1558 H 0.56582 0.47522 0.94625 0.0
H1559 H 0.38348 0.61899 0.92392 0.0
H1560 H 0.46097 0.56848 0.94876 0.0
H1561 H 0.4871 0.52435 0.92144 0.0
C1562 C 0.53864 0.48218 0.92619 0.0
C1563 C 0.56192 0.468 0.93313 0.0
C1564 C 0.44426 0.57987 0.9433 0.0
C1565 C 0.49303 0.53071 0.93458 0.0
C1566 C 0.40817 0.60912 0.94405 0.0
C1567 C 0.38487 0.62324 0.9371 0.0
C1568 C 0.45708 0.56446 0.93557 0.0
C1569 C 0.40028 0.60893 0.92946 0.0
C1570 C 0.50427 0.51348 0.92689 0.0
C1571 C 0.54887 0.48518 0.94072 0.0
N1572 N 0.43511 0.58007 0.9289 0.0
N1573 N 0.51543 0.51564 0.94124 0.0
H1574 H 0.16932 0.64751 0.69913 0.0
H1575 H 0.31215 0.8046 0.66944 0.0
H1576 H 0.16695 0.63603 0.67295 0.0
H1577 H 0.31609 0.81267 0.69566 0.0
H1578 H 0.25819 0.74348 0.67052 0.0
H1579 H 0.21996 0.71097 0.69789 0.0
C1580 C 0.17878 0.65878 0.69312 0.0
C1581 C 0.16392 0.6362 0.68614 0.0
C1582 C 0.27103 0.75855 0.67603 0.0
C1583 C 0.22273 0.70842 0.68468 0.0
C1584 C 0.30211 0.79321 0.67542 0.0
C1585 C 0.31869 0.81386 0.68247 0.0
C1586 C 0.25639 0.74449 0.68375 0.0
C1587 C 0.30422 0.79786 0.69005 0.0
C1588 C 0.20807 0.69482 0.69241 0.0
C1589 C 0.17757 0.6523 0.6785 0.0
N1590 N 0.27385 0.76433 0.69048 0.0
N1591 N 0.20645 0.68715 0.67798 0.0
H1592 H 0.15641 0.62863 0.04502 0.0
H1593 H 0.99497 0.49148 0.07484 0.0
H1594 H 0.16159 0.63861 0.07121 0.0
H1595 H 0.98772 0.48546 0.04863 0.0
H1596 H 0.05634 0.5451 0.07368 0.0
H1597 H 0.09272 0.57819 0.04624 0.0
C1598 C 0.14371 0.62089 0.05102 0.0
C1599 C 0.1646 0.63785 0.05802 0.0
C1600 C 0.04139 0.5319 0.06819 0.0
C1601 C 0.09213 0.57924 0.05947 0.0
C1602 C 1.00659 0.501 0.06885 0.0
C1603 C 0.98609 0.48392 0.06182 0.0
C1604 C 0.05583 0.54582 0.06045 0.0
C1605 C 1.0024 0.49774 0.05422 0.0
C1606 C 0.10753 0.59173 0.05172 0.0
C1607 C 0.14669 0.62634 0.06564 0.0
N1608 N 0.03612 0.5279 0.05374 0.0
N1609 N 0.1118 0.59751 0.06616 0.0
H1610 H 0.18163 0.41202 0.79496 0.0
H1611 H 0.32846 0.25836 0.82461 0.0
H1612 H 0.18698 0.42837 0.82104 0.0
H1613 H 0.31873 0.23727 0.79868 0.0
H1614 H 0.2762 0.32069 0.82339 0.0
H1615 H 0.22901 0.34578 0.79621 0.0
C1616 C 0.192 0.40121 0.80096 0.0
C1617 C 0.1805 0.42595 0.8079 0.0
C1618 C 0.28557 0.30247 0.81796 0.0
C1619 C 0.23549 0.35082 0.80936 0.0
C1620 C 0.31569 0.26708 0.81865 0.0
C1621 C 0.32806 0.24254 0.81174 0.0
C1622 C 0.2677 0.31348 0.81031 0.0
C1623 C 0.31018 0.25522 0.80418 0.0
C1624 C 0.21941 0.36363 0.80166 0.0
C1625 C 0.19523 0.41053 0.81551 0.0
N1626 N 0.2809 0.28971 0.80367 0.0
N1627 N 0.22222 0.37427 0.81603 0.0
H1628 H 0.55192 0.56877 0.57438 0.0
H1629 H 0.39832 0.42081 0.54485 0.0
H1630 H 0.57514 0.55574 0.54856 0.0
H1631 H 0.38132 0.42824 0.5709 0.0
H1632 H 0.46525 0.46734 0.54608 0.0
H1633 H 0.48939 0.51677 0.57318 0.0
C1634 C 0.54366 0.55529 0.56845 0.0
C1635 C 0.56881 0.56672 0.56156 0.0
C1636 C 0.44711 0.45836 0.55153 0.0
C1637 C 0.49757 0.50667 0.56015 0.0
C1638 C 0.40914 0.43142 0.55084 0.0
C1639 C 0.38402 0.4208 0.55778 0.0
C1640 C 0.4599 0.47481 0.55921 0.0
C1641 C 0.39944 0.43584 0.56537 0.0
C1642 C 0.50814 0.52532 0.56777 0.0
C1643 C 0.55669 0.54794 0.55404 0.0
N1644 N 0.43606 0.46235 0.56588 0.0
N1645 N 0.52201 0.51886 0.55353 0.0
H1646 H 0.38656 0.64308 0.32127 0.0
H1647 H 0.22576 0.8147 0.29823 0.0
H1648 H 0.37419 0.65037 0.29514 0.0
H1649 H 0.2386 0.80915 0.32437 0.0
H1650 H 0.27996 0.75445 0.29704 0.0
H1651 H 0.33488 0.70562 0.32254 0.0
C1652 C 0.37361 0.6583 0.31578 0.0
C1653 C 0.38473 0.64124 0.30808 0.0
C1654 C 0.27085 0.76621 0.30304 0.0
C1655 C 0.32469 0.71251 0.30951 0.0
C1656 C 0.23962 0.8005 0.30374 0.0
C1657 C 0.22757 0.81713 0.31142 0.0
C1658 C 0.29041 0.74828 0.31007 0.0
C1659 C 0.24675 0.79733 0.31833 0.0
C1660 C 0.34376 0.69384 0.31652 0.0
C1661 C 0.3667 0.66234 0.3012 0.0
N1662 N 0.27737 0.76409 0.31749 0.0
N1663 N 0.33732 0.69659 0.30208 0.0
H1664 H 0.23323 0.18631 0.97438 0.0
H1665 H 0.29431 0.13979 0.02102 0.0
H1666 H 0.36476 0.1482 0.98252 0.0
H1667 H 0.17479 0.20864 0.01323 0.0
H1668 H 0.31771 0.13487 0.00689 0.0
H1669 H 0.20776 0.18519 0.98853 0.0
C1670 C 0.25657 0.17702 0.97912 0.0
C1671 C 0.3012 0.16727 0.97726 0.0
C1672 C 0.28641 0.15113 0.00831 0.0
C1673 C 0.27245 0.16652 0.99346 0.0
C1674 C 0.273 0.15435 0.01644 0.0
C1675 C 0.23247 0.17525 0.01848 0.0
C1676 C 0.25903 0.16845 0.00214 0.0
C1677 C 0.20628 0.1922 0.01206 0.0
C1678 C 0.24213 0.17681 0.9872 0.0
C1679 C 0.33013 0.15627 0.98368 0.0
N1680 N 0.21996 0.18839 0.00422 0.0
N1681 N 0.3153 0.15621 0.99148 0.0
H1682 H 0.15551 0.05559 0.27031 0.0
H1683 H 0.10529 0.99367 0.22383 0.0
H1684 H 0.08663 0.93568 0.26269 0.0
H1685 H 0.1429 0.12571 0.23179 0.0
H1686 H 0.10762 0.96863 0.23799 0.0
H1687 H 0.15875 0.07911 0.25617 0.0
C1688 C 0.14062 0.03421 0.26577 0.0
C1689 C 0.12024 0.9935 0.26786 0.0
C1690 C 0.11561 1.00303 0.23662 0.0
C1691 C 0.12508 1.02024 0.25151 0.0
C1692 C 0.11471 1.01724 0.22852 0.0
C1693 C 0.12403 0.06186 0.22661 0.0
C1694 C 0.12613 0.03357 0.24283 0.0
C1695 C 0.13518 0.09107 0.23299 0.0
C1696 C 0.14285 0.0477 0.25764 0.0
C1697 C 0.10273 0.96729 0.26149 0.0
N1698 N 0.13592 0.07645 0.2408 0.0
N1699 N 0.10562 0.98104 0.25365 0.0
H1700 H 0.29667 0.9094 0.4741 0.0
H1701 H 0.24402 0.8531 0.52073 0.0
H1702 H 0.18035 0.83601 0.48203 0.0
H1703 H 0.37127 0.90235 0.51233 0.0
H1704 H 0.21709 0.85357 0.50668 0.0
H1705 H 0.32228 0.91233 0.48815 0.0
C1706 C 0.27668 0.89331 0.47872 0.0
C1707 C 0.23634 0.87187 0.47677 0.0
C1708 C 0.25085 0.86448 0.50793 0.0
C1709 C 0.26521 0.87637 0.49299 0.0
C1710 C 0.26609 0.86464 0.51597 0.0
C1711 C 0.30996 0.87787 0.51773 0.0
C1712 C 0.27957 0.87781 0.50162 0.0
C1713 C 0.33729 0.8916 0.51125 0.0
C1714 C 0.29124 0.89542 0.48679 0.0
C1715 C 0.21159 0.85299 0.48318 0.0
N1716 N 0.32168 0.89122 0.5035 0.0
N1717 N 0.22636 0.85573 0.49097 0.0
H1718 H 0.39598 1.00557 0.77063 0.0
H1719 H 0.44709 0.05819 0.72381 0.0
H1720 H 0.47018 0.12073 0.76238 0.0
H1721 H 0.40205 0.92965 0.73231 0.0
H1722 H 0.44776 0.08482 0.73787 0.0
H1723 H 0.39181 0.97954 0.75659 0.0
C1724 C 0.41194 0.02525 0.76595 0.0
C1725 C 0.43391 0.06546 0.76781 0.0
C1726 C 0.43752 0.05083 0.73665 0.0
C1727 C 0.42798 0.03608 0.75162 0.0
C1728 C 0.43669 0.03575 0.7286 0.0
C1729 C 0.42431 0.99163 0.72686 0.0
C1730 C 0.42568 1.02171 0.74299 0.0
C1731 C 0.41208 0.96385 0.73337 0.0
C1732 C 0.40914 1.01042 0.75789 0.0
C1733 C 0.45273 0.08966 0.76132 0.0
N1734 N 0.41304 0.97932 0.74114 0.0
N1735 N 0.44923 0.0747 0.75356 0.0
H1736 H 0.67677 0.82932 0.01344 0.0
H1737 H 0.86849 0.90088 0.98257 0.0
H1738 H 0.78971 0.91047 0.02047 0.0
H1739 H 0.7422 0.84612 0.97485 0.0
H1740 H 0.84131 0.90269 0.99655 0.0
H1741 H 0.70169 0.83269 -0.00062 0.0
C1742 C 0.70691 0.84777 0.01207 0.0
C1743 C 0.73126 0.86921 0.01826 0.0
C1744 C 0.81937 0.89065 0.9918 0.0
C1745 C 0.76001 0.87309 0.00205 0.0
C1746 C 0.83486 0.88952 0.98381 0.0
C1747 C 0.80754 0.87341 0.97752 0.0
C1748 C 0.77639 0.87496 0.99355 0.0
C1749 C 0.76422 0.85933 0.97948 0.0
C1750 C 0.72102 0.8497 0.00401 0.0
C1751 C 0.77013 0.89245 0.01603 0.0
N1752 N 0.75011 0.86008 0.98734 0.0
N1753 N 0.7833 0.89363 0.00811 0.0
H1754 H 0.90237 0.1296 0.73143 0.0
H1755 H 0.96878 0.93544 0.76218 0.0
H1756 H 0.94727 0.99956 0.72365 0.0
H1757 H 0.89597 0.05324 0.76958 0.0
H1758 H 0.96468 0.96035 0.74815 0.0
H1759 H 0.90281 0.10377 0.7455 0.0
C1760 C 0.91207 0.09548 0.73268 0.0
C1761 C 0.92464 0.06665 0.72634 0.0
C1762 C 0.94968 0.98077 0.75285 0.0
C1763 C 0.92563 0.03703 0.74247 0.0
C1764 C 0.95202 0.96666 0.7609 0.0
C1765 C 0.93302 0.99228 0.76718 0.0
C1766 C 0.92833 1.02104 0.75098 0.0
C1767 C 0.91199 0.03255 0.76505 0.0
C1768 C 0.91222 0.08077 0.74072 0.0
C1769 C 0.93672 1.02277 0.72831 0.0
N1770 N 0.9103 0.04566 0.75714 0.0
N1771 N 0.93722 1.00941 0.73622 0.0
H1772 H 0.79823 0.13663 0.47385 0.0
H1773 H 0.74538 0.19723 0.52029 0.0
H1774 H 0.68797 0.22015 0.48141 0.0
H1775 H 0.87128 0.143 0.51223 0.0
H1776 H 0.71941 0.19716 0.50618 0.0
H1777 H 0.82196 0.1317 0.48798 0.0
C1778 C 0.77915 0.15445 0.47839 0.0
C1779 C 0.7411 0.17942 0.4763 0.0
C1780 C 0.75263 0.18503 0.50752 0.0
C1781 C 0.76779 0.1726 0.49262 0.0
C1782 C 0.76731 0.18465 0.51559 0.0
C1783 C 0.81057 0.17 0.51746 0.0
C1784 C 0.7813 0.17044 0.50128 0.0
C1785 C 0.83778 0.15487 0.51106 0.0
C1786 C 0.79265 0.15121 0.48651 0.0
C1787 C 0.71746 0.20046 0.48264 0.0
N1788 N 0.82274 0.1555 0.50327 0.0
N1789 N 0.73112 0.19652 0.49047 0.0
H1790 H 0.58139 0.12098 0.26308 0.0
H1791 H 0.66559 0.9296 0.23309 0.0
H1792 H 0.66532 1.01164 0.27082 0.0
H1793 H 0.60533 0.05216 0.22479 0.0
H1794 H 0.66364 0.95781 0.24701 0.0
H1795 H 0.58732 0.09464 0.24913 0.0
C1796 C 0.60098 0.09133 0.26189 0.0
C1797 C 0.62248 0.06843 0.26825 0.0
C1798 C 0.65119 0.97871 0.24214 0.0
C1799 C 0.62931 0.03802 0.25216 0.0
C1800 C 0.65221 0.96262 0.23419 0.0
C1801 C 0.63576 0.9886 0.22774 0.0
C1802 C 0.63304 1.02095 0.24371 0.0
C1803 C 0.61897 0.03119 0.22953 0.0
C1804 C 0.60436 0.07638 0.25389 0.0
C1805 C 0.64722 0.0301 0.26624 0.0
N1806 N 0.61775 0.0459 0.23736 0.0
N1807 N 0.64985 1.01612 0.25838 0.0
H1808 H 0.67488 0.64763 0.51275 0.0
H1809 H 0.87345 0.70554 0.48227 0.0
H1810 H 0.80424 0.69376 0.52067 0.0
H1811 H 0.75415 0.63521 0.47488 0.0
H1812 H 0.84708 0.70452 0.49624 0.0
H1813 H 0.70209 0.64556 0.49877 0.0
C1814 C 0.70913 0.6571 0.51156 0.0
C1815 C 0.73736 0.6707 0.51792 0.0
C1816 C 0.82664 0.6894 0.49156 0.0
C1817 C 0.76861 0.66874 0.50188 0.0
C1818 C 0.84161 0.68997 0.48354 0.0
C1819 C 0.81597 0.67077 0.47728 0.0
C1820 C 0.78554 0.66962 0.4934 0.0
C1821 C 0.77489 0.65132 0.47939 0.0
C1822 C 0.72464 0.65581 0.50357 0.0
C1823 C 0.78145 0.68241 0.516 0.0
N1824 N 0.76098 0.65132 0.48727 0.0
N1825 N 0.79562 0.68143 0.50814 0.0
H1826 H 0.65138 0.63017 0.732 0.0
H1827 H 0.58037 0.44303 0.76371 0.0
H1828 H 0.60298 0.50029 0.72488 0.0
H1829 H 0.66003 0.55764 0.77045 0.0
H1830 H 0.58519 0.46564 0.74959 0.0
H1831 H 0.65227 0.60586 0.74617 0.0
C1832 C 0.64125 0.59637 0.73341 0.0
C1833 C 0.62718 0.56718 0.72723 0.0
C1834 C 0.60161 0.48583 0.75416 0.0
C1835 C 0.62763 0.53935 0.74348 0.0
C1836 C 0.59885 0.47305 0.76229 0.0
C1837 C 0.61957 0.49841 0.76844 0.0
C1838 C 0.62498 0.52457 0.75207 0.0
C1839 C 0.64275 0.5371 0.76607 0.0
C1840 C 0.64187 0.58254 0.74151 0.0
C1841 C 0.61461 0.52375 0.72942 0.0
N1842 N 0.64468 0.549 0.75808 0.0
N1843 N 0.61475 0.51129 0.73737 0.0
H1844 H 0.87398 0.39852 0.01251 0.0
H1845 H 0.67952 0.32616 0.98218 0.0
H1846 H 0.7455 0.35074 0.02054 0.0
H1847 H 0.79485 0.40169 0.97444 0.0
H1848 H 0.70537 0.33139 0.99614 0.0
H1849 H 0.84736 0.39694 -0.00153 0.0
C1850 C 0.84003 0.38795 0.01133 0.0
C1851 C 0.81189 0.37492 0.01773 0.0
C1852 C 0.72506 0.34676 0.99139 0.0
C1853 C 0.78137 0.37261 0.00164 0.0
C1854 C 0.71039 0.34378 0.98337 0.0
C1855 C 0.73499 0.36324 0.977 0.0
C1856 C 0.76489 0.3692 0.99314 0.0
C1857 C 0.7749 0.38534 0.97903 0.0
C1858 C 0.82487 0.38715 0.00331 0.0
C1859 C 0.7682 0.36169 0.01583 0.0
N1860 N 0.78858 0.38763 0.98692 0.0
N1861 N 0.75441 0.36058 0.00795 0.0
H1862 H 0.97231 0.61834 0.26258 0.0
H1863 H 0.89006 0.42686 0.23247 0.0
H1864 H 0.888 0.5091 0.27023 0.0
H1865 H 0.94785 0.55073 0.22425 0.0
H1866 H 0.89147 0.45489 0.24641 0.0
H1867 H 0.96654 0.59216 0.24863 0.0
C1868 C 0.95266 0.58874 0.26138 0.0
C1869 C 0.931 0.56585 0.26772 0.0
C1870 C 0.90348 0.4761 0.24156 0.0
C1871 C 0.92439 0.53561 0.25161 0.0
C1872 C 0.90278 0.46013 0.23359 0.0
C1873 C 0.9187 0.48654 0.22717 0.0
C1874 C 0.92084 0.51864 0.24315 0.0
C1875 C 0.93464 0.52942 0.22898 0.0
C1876 C 0.94937 0.5739 0.25337 0.0
C1877 C 0.9062 0.52759 0.26568 0.0
N1878 N 0.93562 0.54399 0.23682 0.0
N1879 N 0.9037 0.51368 0.25781 0.0
H1880 H 0.25285 0.40778 0.47381 0.0
H1881 H 0.30543 0.35062 0.52041 0.0
H1882 H 0.36634 0.32978 0.48167 0.0
H1883 H 0.17876 0.40206 0.51214 0.0
H1884 H 0.33174 0.35026 0.50632 0.0
H1885 H 0.22772 0.41169 0.48789 0.0
C1886 C 0.2723 0.39091 0.47841 0.0
C1887 C 0.31174 0.36792 0.47644 0.0
C1888 C 0.29825 0.36184 0.50761 0.0
C1889 C 0.28348 0.37353 0.49268 0.0
C1890 C 0.28337 0.36248 0.51566 0.0
C1891 C 0.23984 0.37655 0.51747 0.0
C1892 C 0.26951 0.37556 0.50132 0.0
C1893 C 0.21248 0.39067 0.51102 0.0
C1894 C 0.25803 0.39357 0.4865 0.0
C1895 C 0.33583 0.348 0.48283 0.0
N1896 N 0.22774 0.38983 0.50325 0.0
N1897 N 0.3214 0.35134 0.49063 0.0
H1898 H 0.44892 0.49479 0.22368 0.0
H1899 H 0.3923 0.55387 0.27002 0.0
H1900 H 0.40542 0.62511 0.23157 0.0
H1901 H 0.46684 0.43708 0.26261 0.0
H1902 H 0.38994 0.57776 0.25588 0.0
H1903 H 0.44703 0.46964 0.23783 0.0
C1904 C 0.43833 0.51793 0.22835 0.0
C1905 C 0.42717 0.56212 0.22643 0.0
C1906 C 0.40694 0.54698 0.25739 0.0
C1907 C 0.42555 0.53372 0.24264 0.0
C1908 C 0.40871 0.53336 0.26552 0.0
C1909 C 0.43034 0.4934 0.26765 0.0
C1910 C 0.42644 0.52036 0.25132 0.0
C1911 C 0.44969 0.46807 0.26135 0.0
C1912 C 0.43769 0.50368 0.23645 0.0
C1913 C 0.41456 0.59083 0.23279 0.0
N1914 N 0.4472 0.48189 0.2535 0.0
N1915 N 0.41408 0.57616 0.2406 0.0
H1916 H 0.18507 0.71537 0.98243 0.0
H1917 H 0.37687 0.64341 0.0133 0.0
H1918 H 0.29787 0.63427 0.9753 0.0
H1919 H 0.24955 0.69585 0.021 0.0
H1920 H 0.35038 0.643 -0.00074 0.0
H1921 H 0.21045 0.71211 0.99645 0.0
C1922 C 0.21528 0.69694 0.98376 0.0
C1923 C 0.23934 0.67536 0.97754 0.0
C1924 C 0.32811 0.65425 0.00402 0.0
C1925 C 0.26868 0.6717 0.99374 0.0
C1926 C 0.3432 0.65459 0.01205 0.0
C1927 C 0.31533 0.66949 0.01836 0.0
C1928 C 0.28498 0.66953 0.00225 0.0
C1929 C 0.272 0.68346 0.01637 0.0
C1930 C 0.22966 0.6951 0.99181 0.0
C1931 C 0.27838 0.65227 0.97975 0.0
N1932 N 0.25829 0.68343 0.00848 0.0
N1933 N 0.29181 0.65116 0.98766 0.0
H1934 H 0.10817 0.50361 0.77068 0.0
H1935 H 0.16621 0.54796 0.72386 0.0
H1936 H 0.16753 0.62565 0.76192 0.0
H1937 H 0.07998 0.44149 0.73211 0.0
H1938 H 0.17323 0.57339 0.73786 0.0
H1939 H 0.10545 0.4759 0.75668 0.0
C1940 C 0.12128 0.5243 0.76585 0.0
C1941 C 0.13825 0.567 0.76749 0.0
C1942 C 0.15264 0.54456 0.73658 0.0
C1943 C 0.1346 0.53576 0.75145 0.0
C1944 C 0.14818 0.53012 0.72853 0.0
C1945 C 0.12183 0.49264 0.72668 0.0
C1946 C 0.13106 0.52121 0.74285 0.0
C1947 C 0.10068 0.47049 0.73317 0.0
C1948 C 0.1193 0.50865 0.75784 0.0
C1949 C 0.15391 0.59264 0.76093 0.0
N1950 N 0.10578 0.48505 0.74093 0.0
N1951 N 0.15171 0.57666 0.75321 0.0
H1952 H 0.18745 0.99052 0.06529 0.0
H1953 H 0.3387 0.79491 0.04661 0.0
H1954 H 0.28754 1.0142 0.04696 0.0
H1955 H 0.23828 0.77424 0.06487 0.0
H1956 H 0.31279 0.87202 0.04494 0.0
H1957 H 0.19973 0.91046 0.06392 0.0
C1958 C 0.21203 0.97907 0.06094 0.0
C1959 C 0.23664 1.00995 0.05628 0.0
C1960 C 0.29531 0.85032 0.04913 0.0
C1961 C 0.25097 0.91655 0.05466 0.0
C1962 C 0.30938 0.80569 0.04993 0.0
C1963 C 0.28997 0.77713 0.05574 0.0
C1964 C 0.2616 0.86718 0.05423 0.0
C1965 C 0.25352 0.79421 0.06015 0.0
C1966 C 0.21893 0.93294 0.06014 0.0
C1967 C 0.26773 0.99215 0.05071 0.0
N1968 N 0.24114 0.83797 0.05941 0.0
N1969 N 0.27418 0.94693 0.0501 0.0
H1970 H 0.50611 0.09782 0.29679 0.0
H1971 H 0.30939 0.94204 0.31371 0.0
H1972 H 0.52512 0.99469 0.31459 0.0
H1973 H 0.28666 0.0475 0.29638 0.0
H1974 H 0.38952 0.95452 0.3126 0.0
H1975 H 0.4292 0.07206 0.2947 0.0
C1976 C 0.495 0.06804 0.29992 0.0
C1977 C 0.52301 0.04769 0.30572 0.0
C1978 C 0.36724 0.97484 0.30898 0.0
C1979 C 0.43325 1.0194 0.30371 0.0
C1980 C 0.32108 0.9678 0.30962 0.0
C1981 C 0.29045 0.9939 0.30517 0.0
C1982 C 0.38391 1.00851 0.30388 0.0
C1983 C 0.30852 0.02647 0.29994 0.0
C1984 C 0.45051 0.05401 0.29887 0.0
C1985 C 0.50556 1.01064 0.30988 0.0
N1986 N 0.35378 0.03304 0.2995 0.0
N1987 N 0.46195 0.99824 0.3089 0.0
H1988 H 0.34821 0.05485 0.5679 0.0
H1989 H 0.2183 0.25223 0.54524 0.0
H1990 H 0.26825 0.03292 0.54645 0.0
H1991 H 0.30902 0.27321 0.56513 0.0
H1992 H 0.24325 0.17445 0.54432 0.0
H1993 H 0.33881 0.13524 0.56619 0.0
C1994 C 0.32854 0.06676 0.56282 0.0
C1995 C 0.30875 0.03635 0.55736 0.0
C1996 C 0.25893 0.19633 0.54871 0.0
C1997 C 0.29794 0.12988 0.55533 0.0
C1998 C 0.24552 0.24132 0.5491 0.0
C1999 C 0.26228 0.27014 0.55514 0.0
C2000 C 0.28915 0.1794 0.55449 0.0
C2001 C 0.29595 0.25294 0.56022 0.0
C2002 C 0.32341 0.11302 0.56182 0.0
C2003 C 0.28408 0.05462 0.55086 0.0
N2004 N 0.30748 0.20882 0.5599 0.0
N2005 N 0.27915 0.09988 0.55007 0.0
H2006 H 0.25051 0.10958 0.81738 0.0
H2007 H 0.05575 0.97492 0.79473 0.0
H2008 H 0.27431 0.0268 0.79636 0.0
H2009 H 0.03261 0.06591 0.8145 0.0
H2010 H 0.13319 1.00097 0.7939 0.0
H2011 H 0.17025 0.09908 0.81557 0.0
C2012 C 0.23905 0.08913 0.81237 0.0
C2013 C 0.26995 0.06886 0.80706 0.0
C2014 C 0.11092 1.01646 0.79825 0.0
C2015 C 0.17657 0.05672 0.80491 0.0
C2016 C 0.06611 1.00241 0.79858 0.0
C2017 C 0.03675 1.01894 0.80456 0.0
C2018 C 0.12717 0.04713 0.80403 0.0
C2019 C 0.05327 0.053 0.80963 0.0
C2020 C 0.19286 0.08333 0.81131 0.0
C2021 C 0.25223 0.04308 0.80064 0.0
N2022 N 0.09726 0.06519 0.80937 0.0
N2023 N 0.20705 0.03755 0.79979 0.0
H2024 H 0.203 0.05031 0.42625 0.0
H2025 H 0.3343 0.24898 0.44837 0.0
H2026 H 0.28332 0.02959 0.44769 0.0
H2027 H 0.2433 0.26857 0.42848 0.0
H2028 H 0.30929 0.17127 0.44946 0.0
H2029 H 0.21301 0.13072 0.42776 0.0
C2030 C 0.22289 0.06249 0.43129 0.0
C2031 C 0.24258 0.0324 0.43681 0.0
C2032 C 0.29357 0.19284 0.44503 0.0
C2033 C 0.25412 0.12601 0.4386 0.0
C2034 C 0.30705 0.23778 0.44454 0.0
C2035 C 0.29012 0.2662 0.43846 0.0
C2036 C 0.26318 0.17555 0.43931 0.0
C2037 C 0.25645 0.24864 0.43342 0.0
C2038 C 0.22837 0.10877 0.43217 0.0
C2039 C 0.26755 0.05104 0.44324 0.0
N2040 N 0.24483 0.20458 0.43385 0.0
N2041 N 0.27283 0.09633 0.44392 0.0
H2042 H 0.23895 0.93886 0.68051 0.0
H2043 H 0.04175 0.09401 0.69751 0.0
H2044 H 0.26121 0.04313 0.69814 0.0
H2045 H 1.02284 0.99021 0.67979 0.0
H2046 H 0.11879 0.06857 0.69958 0.0
H2047 H 0.15879 0.95134 0.68157 0.0
C2048 C 0.22715 0.96437 0.68465 0.0
C2049 C 0.25766 0.99011 0.6892 0.0
C2050 C 0.09748 0.0503 0.69543 0.0
C2051 C 0.16416 1.00473 0.69044 0.0
C2052 C 0.05293 0.06417 0.69439 0.0
C2053 C 1.02488 0.04348 0.68863 0.0
C2054 C 0.11479 1.01557 0.6906 0.0
C2055 C 0.04242 1.0064 0.68447 0.0
C2056 C 0.18097 0.9714 0.68526 0.0
C2057 C 0.23944 1.02238 0.69449 0.0
N2058 N 0.08609 0.99417 0.68544 0.0
N2059 N 0.19417 0.02895 0.69491 0.0
H2060 H 0.25331 1.00474 0.94931 0.0
H2061 H 0.31453 0.76205 0.93157 0.0
H2062 H 0.35776 0.97954 0.93186 0.0
H2063 H 0.20643 0.78482 0.94824 0.0
H2064 H 0.33936 0.83916 0.93365 0.0
H2065 H 0.24224 0.92365 0.95064 0.0
C2066 C 0.27424 0.98236 0.94582 0.0
C2067 C 0.30635 0.99958 0.94041 0.0
C2068 C 0.311 0.82706 0.93708 0.0
C2069 C 0.29389 0.906 0.94193 0.0
C2070 C 0.29748 0.78244 0.93604 0.0
C2071 C 0.25894 0.7662 0.93989 0.0
C2072 C 0.28551 0.85627 0.94194 0.0
C2073 C 0.23701 0.79534 0.94531 0.0
C2074 C 0.26788 0.93589 0.94658 0.0
C2075 C 0.33229 0.96836 0.93606 0.0
N2076 N 0.25001 0.83889 0.94606 0.0
N2077 N 0.32537 0.92359 0.93688 0.0
H2078 H 0.28357 1.00993 0.1995 0.0
H2079 H 0.52962 0.0592 0.18205 0.0
H2080 H 0.31244 0.10601 0.18072 0.0
H2081 H 0.50295 0.96026 0.20031 0.0
H2082 H 0.45263 0.08599 0.18334 0.0
H2083 H 0.36431 0.99807 0.20129 0.0
C2084 C 0.30667 0.02878 0.19579 0.0
C2085 C 0.29053 0.05884 0.1899 0.0
C2086 C 0.46385 0.05933 0.18728 0.0
C2087 C 0.38384 0.04553 0.19197 0.0
C2088 C 0.50846 0.04483 0.1867 0.0
C2089 C 0.5236 1.00798 0.19121 0.0
C2090 C 0.43354 0.03667 0.19237 0.0
C2091 C 0.49338 0.98945 0.19685 0.0
C2092 C 0.35296 1.02202 0.19682 0.0
C2093 C 0.32271 0.08219 0.1853 0.0
N2094 N 0.4499 1.00326 0.19715 0.0
N2095 N 0.36731 0.07494 0.1864 0.0
H2096 H 0.71201 0.2428 0.94915 0.0
H2097 H 0.84887 0.04519 0.9278 0.0
H2098 H 0.80386 0.26284 0.92942 0.0
H2099 H 0.76435 1.02398 0.94867 0.0
H2100 H 0.838 0.12555 0.92922 0.0
H2101 H 0.73811 0.16553 0.95042 0.0
C2102 C 0.73963 0.23182 0.9454 0.0
C2103 C 0.75653 0.26024 0.93932 0.0
C2104 C 0.82194 0.10351 0.93354 0.0
C2105 C 0.7848 0.17003 0.94037 0.0
C2106 C 0.82798 0.05725 0.93271 0.0
C2107 C 0.80731 0.02703 0.93809 0.0
C2108 C 0.79469 0.12059 0.93977 0.0
C2109 C 0.78096 0.04553 0.94435 0.0
C2110 C 0.75376 0.18712 0.94599 0.0
C2111 C 0.79072 0.24294 0.93437 0.0
N2112 N 0.77519 0.09079 0.94497 0.0
N2113 N 0.80302 0.19908 0.93489 0.0
H2114 H 0.7382 0.11524 0.68049 0.0
H2115 H 0.54284 0.96039 0.69816 0.0
H2116 H 0.76198 1.01182 0.69818 0.0
H2117 H 0.52217 0.06321 0.68036 0.0
H2118 H 0.61985 0.9863 0.70003 0.0
H2119 H 0.65814 0.1027 0.68177 0.0
C2120 C 0.72676 0.08991 0.6847 0.0
C2121 C 0.75765 0.06441 0.68919 0.0
C2122 C 0.59817 1.00426 0.69591 0.0
C2123 C 0.66429 0.04974 0.6907 0.0
C2124 C 0.55363 0.99014 0.69499 0.0
C2125 C 0.52511 1.01035 0.68926 0.0
C2126 C 0.61498 0.0388 0.691 0.0
C2127 C 0.54215 0.04736 0.68503 0.0
C2128 C 0.68064 0.08285 0.68543 0.0
C2129 C 0.7399 0.03237 0.69457 0.0
N2130 N 0.58583 0.05983 0.68588 0.0
N2131 N 0.69469 0.02576 0.69511 0.0
H2132 H 0.79202 1.01369 0.44917 0.0
H2133 H 0.73883 0.76787 0.43199 0.0
H2134 H 0.69248 0.985 0.43095 0.0
H2135 H 0.84057 0.79413 0.44979 0.0
H2136 H 0.71247 0.8449 0.43344 0.0
H2137 H 0.80367 0.93294 0.45094 0.0
C2138 C 0.77234 0.99063 0.44558 0.0
C2139 C 0.74138 1.00682 0.43985 0.0
C2140 C 0.73968 0.83358 0.43725 0.0
C2141 C 0.75449 0.91351 0.44189 0.0
C2142 C 0.75397 0.78895 0.43658 0.0
C2143 C 0.79146 0.77369 0.4409 0.0
C2144 C 0.7632 0.86379 0.44224 0.0
C2145 C 0.8109 0.80381 0.44647 0.0
C2146 C 0.779 0.94433 0.4466 0.0
C2147 C 0.71701 0.97469 0.4354 0.0
N2148 N 0.79728 0.84732 0.44686 0.0
N2149 N 0.7242 0.93009 0.43648 0.0
H2150 H 0.80696 0.94874 0.17696 0.0
H2151 H 1.00744 0.0853 0.19752 0.0
H2152 H 0.78772 0.03379 0.19784 0.0
H2153 H 0.02559 0.98925 0.17837 0.0
H2154 H 0.92958 0.06101 0.19895 0.0
H2155 H 0.88749 0.95942 0.17815 0.0
C2156 C 0.81948 0.96978 0.18181 0.0
C2157 C 0.78976 0.99057 0.18727 0.0
C2158 C 0.95087 0.04409 0.19461 0.0
C2159 C 0.88354 1.00295 0.18869 0.0
C2160 C 0.99589 0.05721 0.19394 0.0
C2161 C 1.024 0.03847 0.18798 0.0
C2162 C 0.93315 1.01228 0.18919 0.0
C2163 C 1.00593 1.00381 0.18322 0.0
C2164 C 0.86585 0.97568 0.18251 0.0
C2165 C 0.80886 1.01709 0.19346 0.0
N2166 N 0.96184 0.99249 0.18383 0.0
N2167 N 0.8542 1.02272 0.19396 0.0
H2168 H 0.76456 1.01786 0.54627 0.0
H2169 H 0.81123 0.77407 0.56499 0.0
H2170 H 0.84926 0.99295 0.56698 0.0
H2171 H 0.71511 0.79832 0.5461 0.0
H2172 H 0.83643 0.85162 0.56387 0.0
H2173 H 0.75424 0.93692 0.54467 0.0
C2174 C 0.78114 0.99556 0.55047 0.0
C2175 C 0.80758 1.01288 0.55682 0.0
C2176 C 0.81078 0.83976 0.55977 0.0
C2177 C 0.79626 0.91927 0.55494 0.0
C2178 C 0.79723 0.79487 0.56024 0.0
C2179 C 0.76161 0.77885 0.5555 0.0
C2180 C 0.78849 0.86945 0.55451 0.0
C2181 C 0.74344 0.80857 0.54974 0.0
C2182 C 0.77528 0.94915 0.54954 0.0
C2183 C 0.8282 0.98171 0.56204 0.0
N2184 N 0.75639 0.85232 0.54951 0.0
N2185 N 0.82207 0.93688 0.56099 0.0
H2186 H 0.80888 0.11754 0.31528 0.0
H2187 H 1.00575 0.96676 0.29693 0.0
H2188 H 0.7862 1.01727 0.29691 0.0
H2189 H 0.02552 0.06815 0.31508 0.0
H2190 H 0.92844 0.99204 0.29518 0.0
H2191 H 0.88905 0.10553 0.31402 0.0
C2192 C 0.82058 0.09297 0.31094 0.0
C2193 C 0.78997 0.06823 0.30623 0.0
C2194 C 0.94997 1.00984 0.29936 0.0
C2195 C 0.88345 0.0542 0.30475 0.0
C2196 C 0.99468 0.9961 0.30021 0.0
C2197 C 1.02305 1.0161 0.306 0.0
C2198 C 0.93285 0.04374 0.3044 0.0
C2199 C 1.00565 0.05252 0.31037 0.0
C2200 C 0.86676 0.08623 0.31021 0.0
C2201 C 0.80805 0.03718 0.30069 0.0
N2202 N 0.96184 0.06459 0.30958 0.0
N2203 N 0.85331 0.03087 0.30015 0.0
H2204 H 0.78914 0.03516 0.04618 0.0
H2205 H 0.73662 0.27968 0.06423 0.0
H2206 H 0.69018 0.06229 0.06457 0.0
H2207 H 0.84131 0.25431 0.04697 0.0
H2208 H 0.71049 0.20271 0.06249 0.0
H2209 H 0.80203 0.11599 0.04486 0.0
C2210 C 0.76983 0.05791 0.0499 0.0
C2211 C 0.73866 0.04124 0.05554 0.0
C2212 C 0.73836 0.2142 0.05887 0.0
C2213 C 0.75318 0.13465 0.05402 0.0
C2214 C 0.75259 0.25877 0.0597 0.0
C2215 C 0.79055 0.27434 0.05557 0.0
C2216 C 0.76248 0.18431 0.05391 0.0
C2217 C 0.81115 0.24442 0.05011 0.0
C2218 C 0.77723 0.10425 0.04914 0.0
C2219 C 0.71483 0.07298 0.06017 0.0
N2220 N 0.79743 0.20098 0.04954 0.0
N2221 N 0.72266 0.11764 0.05933 0.0
H2222 H 0.75287 0.96189 0.81769 0.0
H2223 H 0.55364 0.09199 0.7956 0.0
H2224 H 0.77299 0.04084 0.79609 0.0
H2225 H 0.53452 1.00203 0.81563 0.0
H2226 H 0.63126 0.06673 0.79443 0.0
H2227 H 0.67238 0.97163 0.81624 0.0
C2228 C 0.74054 0.98139 0.81263 0.0
C2229 C 0.77047 1.00082 0.80705 0.0
C2230 C 0.6098 0.05129 0.79892 0.0
C2231 C 0.67679 1.01207 0.80531 0.0
C2232 C 0.56491 0.0649 0.79945 0.0
C2233 C 0.53667 0.04835 0.80559 0.0
C2234 C 0.62723 1.02114 0.80466 0.0
C2235 C 0.55432 1.01488 0.81065 0.0
C2236 C 0.69421 0.98673 0.81178 0.0
C2237 C 0.75165 0.02529 0.80058 0.0
N2238 N 0.59835 1.00313 0.81018 0.0
N2239 N 0.70633 0.03047 0.79993 0.0
H2240 H 0.78332 0.51836 0.54619 0.0
H2241 H 0.73977 0.27363 0.56475 0.0
H2242 H 0.70195 0.49245 0.5673 0.0
H2243 H 0.83304 0.29897 0.54545 0.0
H2244 H 0.71429 0.35119 0.56388 0.0
H2245 H 0.79342 0.43752 0.54442 0.0
C2246 C 0.76742 0.49586 0.55045 0.0
C2247 C 0.74198 0.51288 0.55696 0.0
C2248 C 0.73933 0.33957 0.55964 0.0
C2249 C 0.75306 0.41935 0.55488 0.0
C2250 C 0.75301 0.29467 0.55997 0.0
C2251 C 0.78798 0.27895 0.55504 0.0
C2252 C 0.7608 0.36956 0.55433 0.0
C2253 C 0.80522 0.30898 0.54924 0.0
C2254 C 0.77315 0.4495 0.54941 0.0
C2255 C 0.72222 0.48144 0.56223 0.0
N2256 N 0.79218 0.35272 0.54914 0.0
N2257 N 0.72821 0.43666 0.56108 0.0
H2258 H 0.03549 0.49717 0.81252 0.0
H2259 H 0.79009 0.55126 0.79533 0.0
H2260 H 1.00961 0.59959 0.79486 0.0
H2261 H 0.81861 0.44941 0.81309 0.0
H2262 H 0.87089 0.56299 0.7936 0.0
H2263 H 0.95862 0.47054 0.8109 0.0
C2264 C 1.01454 0.51242 0.80792 0.0
C2265 C 0.02983 0.55015 0.80369 0.0
C2266 C 0.85944 0.53777 0.79783 0.0
C2267 C 0.93992 0.5216 0.80217 0.0
C2268 C 0.81312 0.53105 0.79881 0.0
C2269 C 0.79688 0.49946 0.80441 0.0
C2270 C 0.89022 0.5127 0.80244 0.0
C2271 C 0.82897 0.47444 0.80874 0.0
C2272 C 0.97 0.49797 0.80716 0.0
C2273 C 0.99989 0.56974 0.79812 0.0
N2274 N 0.87358 0.48174 0.8077 0.0
N2275 N 0.95645 0.55596 0.79764 0.0
H2276 H 0.7557 0.53583 0.04608 0.0
H2277 H 0.8106 0.77953 0.06423 0.0
H2278 H 0.85824 0.56244 0.06384 0.0
H2279 H 0.70402 0.75503 0.0473 0.0
H2280 H 0.83671 0.70275 0.06222 0.0
H2281 H 0.74257 0.61671 0.04492 0.0
C2282 C 0.77576 0.55847 0.04968 0.0
C2283 C 0.80801 0.54164 0.05511 0.0
C2284 C 0.80841 0.7144 0.05873 0.0
C2285 C 0.79316 0.63511 0.05378 0.0
C2286 C 0.79417 0.75887 0.05972 0.0
C2287 C 0.7557 0.77462 0.05576 0.0
C2288 C 0.78377 0.68476 0.0538 0.0
C2289 C 0.73456 0.74501 0.05031 0.0
C2290 C 0.76821 0.60485 0.04902 0.0
C2291 C 0.83275 0.57325 0.05961 0.0
N2292 N 0.74828 0.70163 0.0496 0.0
N2293 N 0.82473 0.61793 0.05887 0.0
H2294 H 0.76502 0.51431 0.29575 0.0
H2295 H 0.5214 0.57013 0.31374 0.0
H2296 H 0.73827 0.61868 0.31315 0.0
H2297 H 0.54587 0.46313 0.2969 0.0
H2298 H 0.59811 0.59637 0.31168 0.0
H2299 H 0.68412 0.50123 0.29456 0.0
C2300 C 0.74234 0.53481 0.29926 0.0
C2301 C 0.75912 0.56754 0.3046 0.0
C2302 C 0.58645 0.56793 0.30822 0.0
C2303 C 0.66567 0.55271 0.30325 0.0
C2304 C 0.54204 0.5536 0.30924 0.0
C2305 C 0.52635 0.51501 0.30532 0.0
C2306 C 0.61606 0.54322 0.3033 0.0
C2307 C 0.5559 0.49375 0.29988 0.0
C2308 C 0.69596 0.52729 0.29858 0.0
C2309 C 0.72748 0.59283 0.30899 0.0
N2310 N 0.59922 0.50756 0.29914 0.0
N2311 N 0.68281 0.58477 0.30825 0.0
H2312 H 0.73675 0.77173 0.93162 0.0
H2313 H 0.69548 0.54538 0.92702 0.0
H2314 H 0.83845 0.73267 0.94861 0.0
H2315 H 0.77696 0.52398 0.94827 0.0
H2316 H 0.70615 0.62523 0.92845 0.0
H2317 H 0.70634 0.69612 0.93208 0.0
C2318 C 0.7514 0.74781 0.93577 0.0
C2319 C 0.78984 0.75924 0.9402 0.0
C2320 C 0.72121 0.60367 0.93294 0.0
C2321 C 0.7576 0.67013 0.94023 0.0
C2322 C 0.71547 0.5574 0.93205 0.0
C2323 C 0.73538 0.52712 0.93751 0.0
C2324 C 0.74727 0.62082 0.93936 0.0
C2325 C 0.76085 0.54557 0.94389 0.0
C2326 C 0.73499 0.70373 0.93582 0.0
C2327 C 0.80824 0.72585 0.94522 0.0
N2328 N 0.76628 0.59084 0.94459 0.0
N2329 N 0.79261 0.68302 0.94498 0.0
H2330 H 0.54628 0.58335 0.19773 0.0
H2331 H 0.74578 0.44794 0.17664 0.0
H2332 H 0.52734 0.48914 0.17831 0.0
H2333 H 0.76586 0.53175 0.19766 0.0
H2334 H 0.6653 0.45855 0.17794 0.0
H2335 H 0.62405 0.55861 0.19904 0.0
C2336 C 0.55764 0.55553 0.19406 0.0
C2337 C 0.52934 0.53751 0.18805 0.0
C2338 C 0.68712 0.47455 0.18231 0.0
C2339 C 0.62009 0.51082 0.18914 0.0
C2340 C 0.73345 0.4687 0.18154 0.0
C2341 C 0.7634 0.48917 0.187 0.0
C2342 C 0.66968 0.50146 0.18857 0.0
C2343 C 0.74454 0.51531 0.19327 0.0
C2344 C 0.60261 0.54218 0.19467 0.0
C2345 C 0.54714 0.50315 0.1832 0.0
N2346 N 0.69923 0.52091 0.19383 0.0
N2347 N 0.59121 0.49161 0.18374 0.0
H2348 H 0.84788 0.49139 0.42618 0.0
H2349 H 0.71685 0.28906 0.44708 0.0
H2350 H 0.76655 0.50937 0.44757 0.0
H2351 H 0.81203 0.27248 0.42776 0.0
H2352 H 0.74018 0.3672 0.44853 0.0
H2353 H 0.83849 0.4108 0.42738 0.0
C2354 C 0.82788 0.47857 0.43114 0.0
C2355 C 0.80774 0.50794 0.43675 0.0
C2356 C 0.75713 0.3462 0.44415 0.0
C2357 C 0.79689 0.41409 0.43818 0.0
C2358 C 0.74458 0.30104 0.44346 0.0
C2359 C 0.76335 0.27331 0.43744 0.0
C2360 C 0.78836 0.3644 0.43868 0.0
C2361 C 0.7975 0.29187 0.43265 0.0
C2362 C 0.82276 0.43217 0.43185 0.0
C2363 C 0.78266 0.48848 0.44308 0.0
N2364 N 0.80823 0.33608 0.43327 0.0
N2365 N 0.7777 0.44308 0.44358 0.0
H2366 H 0.0264 0.56466 0.6804 0.0
H2367 H 0.78355 0.50932 0.69878 0.0
H2368 H 1.00281 0.4585 0.69742 0.0
H2369 H 0.80928 0.61209 0.68106 0.0
H2370 H 0.86453 0.4965 0.69988 0.0
H2371 H 0.94962 0.59069 0.68248 0.0
C2372 C 1.00593 0.5483 0.68494 0.0
C2373 C 1.02189 0.50999 0.68891 0.0
C2374 C 0.85245 0.52214 0.6958 0.0
C2375 C 0.93211 0.53793 0.69096 0.0
C2376 C 0.80603 0.5295 0.69518 0.0
C2377 C 0.78894 0.56171 0.68978 0.0
C2378 C 0.88247 0.54721 0.69103 0.0
C2379 C 0.82031 0.58662 0.68527 0.0
C2380 C 0.96149 0.56249 0.68598 0.0
C2381 C 0.99257 0.48891 0.6944 0.0
N2382 N 0.86504 0.57875 0.68597 0.0
N2383 N 0.94921 0.50258 0.69516 0.0
H2384 H 0.26673 0.52688 0.44808 0.0
H2385 H 0.30935 0.77223 0.4297 0.0
H2386 H 0.35117 0.55377 0.42743 0.0
H2387 H 0.21533 0.74578 0.44883 0.0
H2388 H 0.33567 0.69494 0.43061 0.0
H2389 H 0.25552 0.6076 0.44981 0.0
C2390 C 0.28309 0.54956 0.44392 0.0
C2391 C 0.30974 0.53283 0.43755 0.0
C2392 C 0.31026 0.70626 0.43481 0.0
C2393 C 0.2973 0.62628 0.43957 0.0
C2394 C 0.29608 0.75103 0.43445 0.0
C2395 C 0.2607 0.76637 0.43933 0.0
C2396 C 0.28887 0.67601 0.44009 0.0
C2397 C 0.24345 0.7361 0.44509 0.0
C2398 C 0.27672 0.59587 0.44493 0.0
C2399 C 0.33002 0.56453 0.43239 0.0
N2400 N 0.257 0.69251 0.44521 0.0
N2401 N 0.32333 0.60925 0.4335 0.0
H2402 H 0.24272 0.60628 0.17985 0.0
H2403 H 0.04794 0.4597 0.19984 0.0
H2404 H 0.26728 0.50927 0.19868 0.0
H2405 H 0.0262 0.55717 0.18111 0.0
H2406 H 0.12519 0.48565 0.20122 0.0
H2407 H 0.1627 0.59497 0.18151 0.0
C2408 C 0.23148 0.58255 0.18437 0.0
C2409 C 0.26257 0.55849 0.18908 0.0
C2410 C 0.10324 0.50251 0.19699 0.0
C2411 C 0.16923 0.54536 0.19105 0.0
C2412 C 0.05853 0.48847 0.19636 0.0
C2413 C 0.02966 0.50689 0.19048 0.0
C2414 C 0.11984 0.53524 0.19167 0.0
C2415 C 0.04645 0.54268 0.18588 0.0
C2416 C 0.18537 0.57624 0.18533 0.0
C2417 C 0.24505 0.52858 0.19487 0.0
N2418 N 0.09031 0.555 0.18645 0.0
N2419 N 0.19984 0.52267 0.19564 0.0
H2420 H 0.22959 0.26255 0.93127 0.0
H2421 H 0.2906 0.5044 0.94947 0.0
H2422 H 0.33751 0.28438 0.94803 0.0
H2423 H 0.18636 0.48006 0.93193 0.0
H2424 H 0.30177 0.42322 0.95065 0.0
H2425 H 0.20487 0.33963 0.93346 0.0
C2426 C 0.24662 0.28272 0.93578 0.0
C2427 C 0.28505 0.2662 0.93963 0.0
C2428 C 0.27616 0.43567 0.9466 0.0
C2429 C 0.25863 0.35627 0.9418 0.0
C2430 C 0.26973 0.48219 0.94593 0.0
C2431 C 0.23765 0.49968 0.94055 0.0
C2432 C 0.25024 0.40601 0.94188 0.0
C2433 C 0.21181 0.46868 0.93611 0.0
C2434 C 0.23318 0.32732 0.93687 0.0
C2435 C 0.30699 0.2951 0.9451 0.0
N2436 N 0.21878 0.42386 0.93685 0.0
N2437 N 0.29406 0.33863 0.94591 0.0
H2438 H 0.30815 0.43844 0.68073 0.0
H2439 H 0.50438 0.59275 0.69832 0.0
H2440 H 0.28495 0.54211 0.69843 0.0
H2441 H 0.52431 0.48954 0.68052 0.0
H2442 H 0.42727 0.5672 0.70022 0.0
H2443 H 0.38827 0.45067 0.68199 0.0
C2444 C 0.31974 0.46375 0.68493 0.0
C2445 C 0.28899 0.48942 0.68944 0.0
C2446 C 0.44881 0.54908 0.69609 0.0
C2447 C 0.38242 0.50376 0.69092 0.0
C2448 C 0.4934 0.563 0.69515 0.0
C2449 C 0.52175 0.54255 0.68942 0.0
C2450 C 0.43178 0.51452 0.69119 0.0
C2451 C 0.50447 0.50556 0.68519 0.0
C2452 C 0.36589 0.47064 0.68566 0.0
C2453 C 0.30692 0.52143 0.69482 0.0
N2454 N 0.46076 0.49329 0.68606 0.0
N2455 N 0.35216 0.52788 0.69535 0.0
H2456 H 0.35648 0.49203 0.06634 0.0
H2457 H 0.20923 0.29403 0.04742 0.0
H2458 H 0.25985 0.51374 0.04731 0.0
H2459 H 0.30871 0.27507 0.06592 0.0
H2460 H 0.23431 0.37145 0.04574 0.0
H2461 H 0.34463 0.41182 0.06514 0.0
C2462 C 0.3327 0.48012 0.06188 0.0
C2463 C 0.30896 0.51048 0.05697 0.0
C2464 C 0.25177 0.35006 0.04999 0.0
C2465 C 0.29517 0.41692 0.05553 0.0
C2466 C 0.23817 0.30528 0.0508 0.0
C2467 C 0.25765 0.27709 0.05666 0.0
C2468 C 0.28498 0.36744 0.05515 0.0
C2469 C 0.29351 0.29476 0.06115 0.0
C2470 C 0.32607 0.4339 0.06118 0.0
C2471 C 0.27893 0.4921 0.05127 0.0
N2472 N 0.30541 0.33863 0.0604 0.0
N2473 N 0.27272 0.44682 0.05075 0.0
H2474 H 0.53337 0.5727 0.81693 0.0
H2475 H 0.29228 0.52343 0.79711 0.0
H2476 H 0.51269 0.47515 0.79813 0.0
H2477 H 0.31365 0.60661 0.81817 0.0
H2478 H 0.37353 0.51351 0.79593 0.0
H2479 H 0.45539 0.59622 0.81555 0.0
C2480 C 0.51319 0.55796 0.81217 0.0
C2481 C 0.53043 0.52269 0.80748 0.0
C2482 C 0.36045 0.53412 0.80078 0.0
C2483 C 0.43935 0.54761 0.80619 0.0
C2484 C 0.31387 0.53976 0.80148 0.0
C2485 C 0.29547 0.56567 0.8078 0.0
C2486 C 0.3894 0.55485 0.80639 0.0
C2487 C 0.32574 0.58597 0.81324 0.0
C2488 C 0.4681 0.57059 0.81153 0.0
C2489 C 0.50151 0.50338 0.8017 0.0
N2490 N 0.37074 0.58012 0.81241 0.0
N2491 N 0.45753 0.51552 0.8013 0.0
H2492 H 0.28488 0.53096 0.54601 0.0
H2493 H 0.24111 0.77539 0.56479 0.0
H2494 H 0.20288 0.55653 0.56705 0.0
H2495 H 0.3344 0.75035 0.54546 0.0
H2496 H 0.21561 0.69785 0.56384 0.0
H2497 H 0.29505 0.61183 0.54432 0.0
C2498 C 0.26887 0.55339 0.55027 0.0
C2499 C 0.24323 0.53627 0.55673 0.0
C2500 C 0.24066 0.70953 0.5596 0.0
C2501 C 0.25438 0.62982 0.55476 0.0
C2502 C 0.25436 0.75443 0.55999 0.0
C2503 C 0.28934 0.77021 0.55507 0.0
C2504 C 0.26214 0.67963 0.55427 0.0
C2505 C 0.30658 0.74028 0.54924 0.0
C2506 C 0.27463 0.59977 0.54929 0.0
C2507 C 0.22331 0.56761 0.56202 0.0
N2508 N 0.29352 0.69655 0.5491 0.0
N2509 N 0.22935 0.61241 0.56093 0.0
H2510 H 0.26485 0.54885 0.29594 0.0
H2511 H 1.02152 0.49375 0.31416 0.0
H2512 H 0.23879 0.44683 0.31379 0.0
H2513 H 0.04556 0.5999 0.29716 0.0
H2514 H 0.09841 0.46783 0.31217 0.0
H2515 H 0.1839 0.56164 0.29477 0.0
C2516 C 0.24231 0.52883 0.29956 0.0
C2517 C 0.2593 0.49685 0.30501 0.0
C2518 C 0.08663 0.496 0.30866 0.0
C2519 C 0.16579 0.51129 0.30368 0.0
C2520 C 0.04213 0.51014 0.30965 0.0
C2521 C 0.02624 0.54839 0.30565 0.0
C2522 C 0.11613 0.52056 0.30371 0.0
C2523 C 0.05573 0.56951 0.3002 0.0
C2524 C 0.1959 0.53618 0.29889 0.0
C2525 C 0.22783 0.47213 0.30954 0.0
N2526 N 0.09913 0.55589 0.29949 0.0
N2527 N 0.18312 0.47996 0.3088 0.0
H2528 H 0.1316 0.10034 0.09986 0.0
H2529 H 0.19444 0.16578 0.14558 0.0
H2530 H 0.23892 0.18897 0.10654 0.0
H2531 H 0.11732 0.05002 0.13883 0.0
H2532 H 0.19242 0.19066 0.13139 0.0
H2533 H 0.10801 0.09832 0.11414 0.0
C2534 C 0.14936 0.12043 0.10428 0.0
C2535 C 0.18755 0.1445 0.10205 0.0
C2536 C 0.17513 0.1603 0.13306 0.0
C2537 C 0.16113 0.14195 0.11835 0.0
C2538 C 0.17598 0.14627 0.14117 0.0
C2539 C 0.1564 0.10551 0.14336 0.0
C2540 C 0.15441 0.13348 0.12714 0.0
C2541 C 0.13339 0.08134 0.13737 0.0
C2542 C 0.13612 0.11899 0.11244 0.0
C2543 C 0.20964 0.16951 0.10804 0.0
N2544 N 0.13342 0.09541 0.12952 0.0
N2545 N 0.19643 0.16721 0.11593 0.0
H2546 H 0.15321 0.96487 0.39487 0.0
H2547 H 0.17334 0.88962 0.34854 0.0
H2548 H 0.19916 0.83544 0.38698 0.0
H2549 H 0.1326 1.02138 0.35618 0.0
H2550 H 0.16773 0.86455 0.36259 0.0
H2551 H 0.13049 0.98121 0.38089 0.0
C2552 C 0.15752 0.93947 0.39025 0.0
C2553 C 0.1786 0.89891 0.39208 0.0
C2554 C 0.15931 0.8988 0.36117 0.0
C2555 C 0.15345 0.91767 0.37605 0.0
C2556 C 0.16215 0.91311 0.35311 0.0
C2557 C 0.15382 0.95791 0.35114 0.0
C2558 C 0.14843 0.9295 0.36734 0.0
C2559 C 0.14009 0.98672 0.35742 0.0
C2560 C 0.14485 0.94893 0.38225 0.0
C2561 C 0.18374 0.86746 0.38581 0.0
N2562 N 0.13838 0.9722 0.36523 0.0
N2563 N 0.17178 0.87768 0.37807 0.0
H2564 H 0.35193 0.83525 0.60694 0.0
H2565 H 0.42179 1.02193 0.63886 0.0
H2566 H 0.39454 0.96746 0.60012 0.0
H2567 H 0.37381 0.89107 0.64545 0.0
H2568 H 0.42605 0.99801 0.62469 0.0
H2569 H 0.37422 0.85045 0.62093 0.0
C2570 C 0.36668 0.86731 0.60837 0.0
C2571 C 0.37093 0.90031 0.60237 0.0
C2572 C 0.41531 0.97429 0.62925 0.0
C2573 C 0.39596 0.91822 0.61844 0.0
C2574 C 0.41281 0.98791 0.63736 0.0
C2575 C 0.39703 0.95866 0.64338 0.0
C2576 C 0.40154 0.93116 0.62711 0.0
C2577 C 0.3864 0.91484 0.64107 0.0
C2578 C 0.3794 0.87596 0.61637 0.0
C2579 C 0.39073 0.94101 0.60454 0.0
N2580 N 0.38826 0.90266 0.6331 0.0
N2581 N 0.40185 0.9491 0.61244 0.0
H2582 H 0.40803 0.12031 0.89628 0.0
H2583 H 0.33168 0.14614 0.85 0.0
H2584 H 0.2741 0.15501 0.88892 0.0
H2585 H 0.46285 0.10403 0.8576 0.0
H2586 H 0.31399 0.16432 0.86418 0.0
H2587 H 0.43241 0.12906 0.88222 0.0
C2588 C 0.38386 0.13078 0.89178 0.0
C2589 C 0.33875 0.13657 0.89382 0.0
C2590 C 0.34691 0.15181 0.86272 0.0
C2591 C 0.36644 0.14565 0.87762 0.0
C2592 C 0.35712 0.14177 0.8546 0.0
C2593 C 0.39865 0.1231 0.85263 0.0
C2594 C 0.37845 0.14307 0.86886 0.0
C2595 C 0.43015 0.1177 0.85888 0.0
C2596 C 0.3978 0.13543 0.88371 0.0
C2597 C 0.30908 0.1495 0.88763 0.0
N2598 N 0.41927 0.12714 0.8667 0.0
N2599 N 0.3233 0.15309 0.87981 0.0
H2600 H 0.83153 0.93099 0.84905 0.0
H2601 H 0.90936 0.91858 0.89561 0.0
H2602 H 0.95994 0.97694 0.85754 0.0
H2603 H 0.77424 0.89455 0.8875 0.0
H2604 H 0.93048 0.93492 0.8816 0.0
H2605 H 0.8126 0.90997 0.86299 0.0
C2606 C 0.85604 0.93598 0.85381 0.0
C2607 C 0.89744 0.95569 0.85212 0.0
C2608 C 0.89617 0.92623 0.88291 0.0
C2609 C 0.87566 0.93252 0.8681 0.0
C2610 C 0.88391 0.91732 0.89095 0.0
C2611 C 0.8397 0.90559 0.89282 0.0
C2612 C 0.86416 0.92309 0.87669 0.0
C2613 C 0.80875 0.9033 0.88639 0.0
C2614 C 0.84504 0.92441 0.86179 0.0
C2615 C 0.92749 0.96215 0.85857 0.0
N2616 N 0.82155 0.91191 0.87864 0.0
N2617 N 0.91599 0.95069 0.86628 0.0
H2618 H 0.8768 0.16494 0.64534 0.0
H2619 H 0.89959 0.0821 0.59947 0.0
H2620 H 0.91815 0.0321 0.63849 0.0
H2621 H 0.85155 0.21204 0.60661 0.0
H2622 H 0.92246 0.06854 0.61356 0.0
H2623 H 0.88346 0.18781 0.63117 0.0
C2624 C 0.88835 0.14078 0.64092 0.0
C2625 C 0.89648 0.0963 0.64313 0.0
C2626 C 0.90766 0.10035 0.61201 0.0
C2627 C 0.90312 0.12216 0.62681 0.0
C2628 C 0.89492 0.10821 0.60395 0.0
C2629 C 0.87313 0.14804 0.60189 0.0
C2630 C 0.89843 0.13251 0.61802 0.0
C2631 C 0.86755 0.18053 0.60796 0.0
C2632 C 0.8918 0.15382 0.63279 0.0
C2633 C 0.91077 0.06654 0.63705 0.0
N2634 N 0.87957 0.17186 0.61576 0.0
N2635 N 0.91305 0.07982 0.62917 0.0
H2636 H 0.63252 0.10553 0.3954 0.0
H2637 H 0.69941 0.1703 0.34987 0.0
H2638 H 0.75089 0.17896 0.38884 0.0
H2639 H 0.60822 0.06466 0.35622 0.0
H2640 H 0.70195 0.19275 0.36421 0.0
H2641 H 0.60741 0.10978 0.38122 0.0
C2642 C 0.65257 0.12368 0.39103 0.0
C2643 C 0.69409 0.14151 0.39326 0.0
C2644 C 0.6806 0.16531 0.36243 0.0
C2645 C 0.66584 0.1461 0.37707 0.0
C2646 C 0.67886 0.15272 0.35424 0.0
C2647 C 0.65391 0.11528 0.35189 0.0
C2648 C 0.65705 0.14039 0.36826 0.0
C2649 C 0.62834 0.09337 0.35781 0.0
C2650 C 0.6384 0.12581 0.38294 0.0
C2651 C 0.71895 0.16422 0.38734 0.0
N2652 N 0.63093 0.10592 0.36574 0.0
N2653 N 0.7047 0.16546 0.3795 0.0
H2654 H 0.71723 0.90121 0.14549 0.0
H2655 H 0.63645 0.92478 0.09953 0.0
H2656 H 0.58698 0.94803 0.13827 0.0
H2657 H 0.76832 0.88095 0.10649 0.0
H2658 H 0.61314 0.91903 0.11368 0.0
H2659 H 0.73171 0.8793 0.13138 0.0
C2660 C 0.69126 0.90587 0.14099 0.0
C2661 C 0.65101 0.92696 0.14304 0.0
C2662 C 0.64701 0.90999 0.11209 0.0
C2663 C 0.66763 0.90276 0.12688 0.0
C2664 C 0.6603 0.91291 0.10396 0.0
C2665 C 0.70465 0.90371 0.10178 0.0
C2666 C 0.67828 0.89814 0.1181 0.0
C2667 C 0.734 0.88912 0.1079 0.0
C2668 C 0.69966 0.89367 0.13292 0.0
C2669 C 0.61878 0.93257 0.13693 0.0
N2670 N 0.72048 0.88733 0.11578 0.0
N2671 N 0.62797 0.92107 0.12912 0.0
H2672 H 0.6745 0.66275 0.64599 0.0
H2673 H 0.65165 0.58116 0.60001 0.0
H2674 H 0.62886 0.53149 0.63903 0.0
H2675 H 0.70304 0.7096 0.60728 0.0
H2676 H 0.62837 0.56781 0.61408 0.0
H2677 H 0.67019 0.68568 0.6318 0.0
C2678 C 0.66252 0.63898 0.64154 0.0
C2679 C 0.65239 0.59489 0.64374 0.0
C2680 C 0.64405 0.59924 0.61256 0.0
C2681 C 0.64847 0.62079 0.62739 0.0
C2682 C 0.65704 0.607 0.60451 0.0
C2683 C 0.67979 0.64634 0.60249 0.0
C2684 C 0.65399 0.63103 0.61861 0.0
C2685 C 0.68627 0.67846 0.6086 0.0
C2686 C 0.66043 0.65204 0.63339 0.0
C2687 C 0.63771 0.56561 0.63761 0.0
N2688 N 0.67394 0.6699 0.61639 0.0
N2689 N 0.63673 0.57888 0.62971 0.0
H2690 H 0.67996 0.39244 0.84867 0.0
H2691 H 0.65542 0.46487 0.89516 0.0
H2692 H 0.64591 0.52574 0.85649 0.0
H2693 H 0.69898 0.33492 0.88712 0.0
H2694 H 0.63606 0.4833 0.88108 0.0
H2695 H 0.67123 0.36672 0.86264 0.0
C2696 C 0.66961 0.41619 0.85326 0.0
C2697 C 0.66406 0.46152 0.85138 0.0
C2698 C 0.64913 0.45047 0.88242 0.0
C2699 C 0.655 0.4323 0.86747 0.0
C2700 C 0.65985 0.43982 0.89048 0.0
C2701 C 0.6793 0.39846 0.8923 0.0
C2702 C 0.65798 0.41954 0.87618 0.0
C2703 C 0.68473 0.36748 0.88596 0.0
C2704 C 0.66498 0.40149 0.86128 0.0
C2705 C 0.65126 0.49063 0.85767 0.0
N2706 N 0.67464 0.37881 0.87819 0.0
N2707 N 0.64769 0.47566 0.86544 0.0
H2708 H 0.83332 0.40029 0.14495 0.0
H2709 H 0.91207 0.42546 0.09886 0.0
H2710 H 0.96285 0.44837 0.13758 0.0
H2711 H 0.78044 0.38167 0.10596 0.0
H2712 H 0.93589 0.41961 0.113 0.0
H2713 H 0.81825 0.37896 0.13082 0.0
C2714 C 0.85902 0.40534 0.14041 0.0
C2715 C 0.89923 0.4266 0.14243 0.0
C2716 C 0.90196 0.4106 0.11144 0.0
C2717 C 0.88193 0.40306 0.12625 0.0
C2718 C 0.88837 0.41358 0.10333 0.0
C2719 C 0.84395 0.4044 0.10118 0.0
C2720 C 0.87091 0.39868 0.11748 0.0
C2721 C 0.81481 0.38981 0.10734 0.0
C2722 C 0.85027 0.39348 0.13233 0.0
C2723 C 0.93109 0.43273 0.13627 0.0
N2724 N 0.82862 0.38793 0.1152 0.0
N2725 N 0.92157 0.42153 0.12846 0.0
H2726 H 0.89607 0.58194 0.39467 0.0
H2727 H 0.87382 0.66647 0.34889 0.0
H2728 H 0.8482 0.71225 0.38776 0.0
H2729 H 0.9157 0.53357 0.35554 0.0
H2730 H 0.87932 0.6886 0.36313 0.0
H2731 H 0.91832 0.56866 0.38054 0.0
C2732 C 0.89125 0.60818 0.39024 0.0
C2733 C 0.86978 0.64808 0.39238 0.0
C2734 C 0.888 0.65476 0.36146 0.0
C2735 C 0.89438 0.63285 0.37619 0.0
C2736 C 0.88523 0.64215 0.35328 0.0
C2737 C 0.89393 0.59788 0.35099 0.0
C2738 C 0.89924 0.62288 0.36738 0.0
C2739 C 0.90794 0.56787 0.35704 0.0
C2740 C 0.90364 0.60047 0.38215 0.0
C2741 C 0.86397 0.68068 0.38635 0.0
N2742 N 0.90962 0.58074 0.36496 0.0
N2743 N 0.87569 0.67217 0.37852 0.0
H2744 H 0.42192 0.52622 0.3558 0.0
H2745 H 0.35297 0.33766 0.3873 0.0
H2746 H 0.37419 0.39558 0.34894 0.0
H2747 H 0.39642 0.46914 0.39445 0.0
H2748 H 0.37498 0.35366 0.37334 0.0
H2749 H 0.42664 0.50149 0.3699 0.0
C2750 C 0.41308 0.49208 0.35723 0.0
C2751 C 0.39725 0.46312 0.35115 0.0
C2752 C 0.38042 0.37884 0.37796 0.0
C2753 C 0.40232 0.43468 0.36735 0.0
C2754 C 0.36789 0.36971 0.38595 0.0
C2755 C 0.37244 0.4023 0.39203 0.0
C2756 C 0.39707 0.42118 0.37599 0.0
C2757 C 0.39239 0.44304 0.38995 0.0
C2758 C 0.41586 0.478 0.3653 0.0
C2759 C 0.38681 0.41914 0.35337 0.0
N2760 N 0.4033 0.45162 0.38207 0.0
N2761 N 0.38895 0.40651 0.3613 0.0
H2762 H 0.44144 0.55122 0.13864 0.0
H2763 H 0.31374 0.69752 0.10659 0.0
H2764 H 0.35956 0.66384 0.14527 0.0
H2765 H 0.41572 0.60276 0.09996 0.0
H2766 H 0.33885 0.69404 0.12069 0.0
H2767 H 0.44172 0.57707 0.12457 0.0
C2768 C 0.42424 0.58193 0.13716 0.0
C2769 C 0.4001 0.60517 0.14312 0.0
C2770 C 0.35646 0.67471 0.11614 0.0
C2771 C 0.39952 0.63455 0.12698 0.0
C2772 C 0.34211 0.67668 0.10809 0.0
C2773 C 0.36242 0.65008 0.10212 0.0
C2774 C 0.39075 0.6451 0.1183 0.0
C2775 C 0.39917 0.6239 0.10437 0.0
C2776 C 0.42446 0.59672 0.12912 0.0
C2777 C 0.37869 0.64492 0.14088 0.0
N2778 N 0.41158 0.62135 0.11232 0.0
N2779 N 0.37817 0.65788 0.13295 0.0
H2780 H 0.22533 0.64668 0.85033 0.0
H2781 H 0.14097 0.62044 0.89611 0.0
H2782 H 0.09291 0.60435 0.85712 0.0
H2783 H 0.27562 0.65698 0.88955 0.0
H2784 H 0.11891 0.62908 0.88192 0.0
H2785 H 0.24025 0.66526 0.8646 0.0
C2786 C 0.19903 0.64235 0.85477 0.0
C2787 C 0.15797 0.62348 0.85254 0.0
C2788 C 0.15316 0.63588 0.8836 0.0
C2789 C 0.17502 0.64388 0.86888 0.0
C2790 C 0.16575 0.6313 0.89175 0.0
C2791 C 0.21041 0.63761 0.89406 0.0
C2792 C 0.18543 0.64657 0.87771 0.0
C2793 C 0.24096 0.65104 0.88805 0.0
C2794 C 0.20766 0.65262 0.86293 0.0
C2795 C 0.1253 0.61816 0.85859 0.0
N2796 N 0.22806 0.65455 0.88015 0.0
N2797 N 0.13468 0.62779 0.86648 0.0
H2798 H 0.153 0.46927 0.59942 0.0
H2799 H 0.17309 0.38918 0.6455 0.0
H2800 H 0.20112 0.33994 0.60686 0.0
H2801 H 0.13141 0.52141 0.63838 0.0
H2802 H 0.16827 0.36573 0.63133 0.0
H2803 H 0.1299 0.48386 0.61347 0.0
C2804 C 0.15771 0.44352 0.60395 0.0
C2805 C 0.1795 0.40352 0.60199 0.0
C2806 C 0.15947 0.39971 0.63288 0.0
C2807 C 0.15388 0.42023 0.61808 0.0
C2808 C 0.16185 0.41309 0.64102 0.0
C2809 C 0.15302 0.45756 0.64317 0.0
C2810 C 0.14851 0.43102 0.62684 0.0
C2811 C 0.13926 0.48698 0.637 0.0
C2812 C 0.14482 0.45197 0.61199 0.0
C2813 C 0.18512 0.37155 0.60814 0.0
N2814 N 0.13798 0.47337 0.62912 0.0
N2815 N 0.1729 0.38078 0.61591 0.0
H2816 H 0.14764 0.26671 0.08145 0.0
H2817 H 0.94877 0.3619 0.06038 0.0
H2818 H 0.09753 0.19384 0.0608 0.0
H2819 H 0.89886 0.28482 0.0805 0.0
H2820 H 1.02344 0.33147 0.06286 0.0
H2821 H 0.07276 0.29884 0.08352 0.0
C2822 C 0.12033 0.25569 0.07763 0.0
C2823 C 0.12833 0.2265 0.07109 0.0
C2824 C 0.99638 0.32273 0.06692 0.0
C2825 C 0.04407 0.26448 0.07319 0.0
C2826 C 0.95408 0.3409 0.06564 0.0
C2827 C 0.91797 0.32708 0.07042 0.0
C2828 C 1.00242 0.29048 0.07299 0.0
C2829 C 0.92619 0.29703 0.07682 0.0
C2830 C 0.078 0.27444 0.07875 0.0
C2831 C 0.09235 0.2147 0.06609 0.0
N2832 N 0.96756 0.27908 0.07786 0.0
N2833 N 0.05195 0.23453 0.06713 0.0
H2834 H 1.00397 0.66043 0.33141 0.0
H2835 H 0.04383 0.9028 0.33148 0.0
H2836 H 0.94839 0.70399 0.30861 0.0
H2837 H 0.09944 0.85914 0.30868 0.0
H2838 H 1.0119 0.82767 0.33347 0.0
H2839 H 0.03561 0.73565 0.33345 0.0
C2840 C 0.99664 0.68645 0.32704 0.0
C2841 C 0.9724 0.67657 0.31995 0.0
C2842 C 0.03237 0.83435 0.32818 0.0
C2843 C 1.01076 0.76076 0.32197 0.0
C2844 C 0.05106 0.87678 0.3271 0.0
C2845 C 0.07541 0.8866 0.32002 0.0
C2846 C 0.03675 0.80253 0.32197 0.0
C2847 C 0.08221 0.85244 0.31433 0.0
C2848 C 1.01518 0.72894 0.32816 0.0
C2849 C 0.96551 0.71074 0.31428 0.0
N2850 N 0.06198 0.81227 0.31533 0.0
N2851 N 0.98561 0.75097 0.3153 0.0
H2852 H 0.45297 0.86485 0.56227 0.0
H2853 H 0.65555 0.78227 0.579 0.0
H2854 H 0.39772 0.76369 0.57784 0.0
H2855 H 0.59838 0.68643 0.5625 0.0
H2856 H 0.58032 0.81105 0.58184 0.0
H2857 H 0.52806 0.84014 0.56601 0.0
C2858 C 0.45662 0.83971 0.56692 0.0
C2859 C 0.41916 0.8179 0.57007 0.0
C2860 C 0.58434 0.78222 0.57793 0.0
C2861 C 0.50447 0.78669 0.57374 0.0
C2862 C 0.62697 0.76552 0.57635 0.0
C2863 C 0.63301 0.73081 0.5707 0.0
C2864 C 0.5477 0.76362 0.5739 0.0
C2865 C 0.59508 0.71132 0.56722 0.0
C2866 C 0.49941 0.82477 0.56888 0.0
C2867 C 0.42592 0.78201 0.57544 0.0
N2868 N 0.55394 0.72839 0.56879 0.0
N2869 N 0.46781 0.76659 0.57693 0.0
H2870 H 0.45027 0.21144 0.80974 0.0
H2871 H 0.54917 0.40786 0.83193 0.0
H2872 H 0.53049 0.16136 0.82946 0.0
H2873 H 0.61327 0.36514 0.80982 0.0
H2874 H 0.5181 0.33218 0.83358 0.0
H2875 H 0.48023 0.28637 0.81226 0.0
C2876 C 0.47207 0.21671 0.81491 0.0
C2877 C 0.48698 0.18055 0.81955 0.0
C2878 C 0.54034 0.33921 0.82855 0.0
C2879 C 0.52255 0.26529 0.82222 0.0
C2880 C 0.55852 0.38196 0.82766 0.0
C2881 C 0.58502 0.39223 0.82087 0.0
C2882 C 0.54788 0.30732 0.82248 0.0
C2883 C 0.59459 0.35811 0.8153 0.0
C2884 C 0.48984 0.25916 0.81622 0.0
C2885 C 0.51759 0.18874 0.82586 0.0
N2886 N 0.5752 0.31739 0.81613 0.0
N2887 N 0.53493 0.2303 0.82697 0.0
H2888 H 0.09733 0.86245 0.43171 0.0
H2889 H 0.95247 0.67892 0.43183 0.0
H2890 H 0.15223 0.75796 0.41681 0.0
H2891 H 0.89499 0.78441 0.41754 0.0
H2892 H 0.02688 0.70368 0.42776 0.0
H2893 H 1.02222 0.83809 0.42797 0.0
C2894 C 0.09366 0.83661 0.42718 0.0
C2895 C 0.13103 0.81373 0.42425 0.0
C2896 C 0.99785 0.72005 0.42521 0.0
C2897 C 0.04556 0.78268 0.42065 0.0
C2898 C 0.95535 0.70505 0.42734 0.0
C2899 C 0.91748 0.72804 0.42467 0.0
C2900 C 1.00228 0.75961 0.42074 0.0
C2901 C 0.92347 0.76523 0.41958 0.0
C2902 C 0.0508 0.82187 0.42522 0.0
C2903 C 0.12413 0.77701 0.41907 0.0
N2904 N 0.96515 0.78083 0.41798 0.0
N2905 N 0.08218 0.76164 0.41764 0.0
H2906 H 0.6068 0.69996 0.6853 0.0
H2907 H 0.51192 0.90017 0.66395 0.0
H2908 H 0.53305 0.65344 0.66447 0.0
H2909 H 0.44285 0.85227 0.68517 0.0
H2910 H 0.54334 0.82494 0.66189 0.0
H2911 H 0.57608 0.77481 0.68317 0.0
C2912 C 0.58642 0.70612 0.67998 0.0
C2913 C 0.57367 0.67087 0.67488 0.0
C2914 C 0.51993 0.83073 0.6668 0.0
C2915 C 0.53687 0.75557 0.67268 0.0
C2916 C 0.50156 0.87327 0.66792 0.0
C2917 C 0.4736 0.88197 0.67459 0.0
C2918 C 0.51109 0.79741 0.67253 0.0
C2919 C 0.46275 0.84652 0.67978 0.0
C2920 C 0.56809 0.74849 0.67889 0.0
C2921 C 0.54447 0.68011 0.6684 0.0
N2922 N 0.48237 0.80601 0.67875 0.0
N2923 N 0.52652 0.7216 0.66751 0.0
H2924 H 0.39602 0.24619 0.9137 0.0
H2925 H 0.64283 0.27225 0.91474 0.0
H2926 H 0.43936 0.18688 0.9362 0.0
H2927 H 0.59414 0.34087 0.93598 0.0
H2928 H 0.56718 0.24241 0.91236 0.0
H2929 H 0.47192 0.27635 0.9117 0.0
C2930 C 0.42207 0.23775 0.918 0.0
C2931 C 0.41201 0.2128 0.92499 0.0
C2932 C 0.57297 0.26526 0.91736 0.0
C2933 C 0.49698 0.24928 0.92302 0.0
C2934 C 0.61574 0.28265 0.91867 0.0
C2935 C 0.62422 0.30999 0.92544 0.0
C2936 C 0.53932 0.27416 0.92305 0.0
C2937 C 0.58857 0.32111 0.93056 0.0
C2938 C 0.46494 0.25541 0.91691 0.0
C2939 C 0.44625 0.20446 0.93059 0.0
N2940 N 0.54787 0.30218 0.92938 0.0
N2941 N 0.48695 0.22361 0.92959 0.0
H2942 H 0.93881 0.34365 0.18288 0.0
H2943 H 0.03035 0.14607 0.16395 0.0
H2944 H 0.03604 0.40168 0.1668 0.0
H2945 H 0.11532 0.19892 0.18274 0.0
H2946 H 1.00026 0.22142 0.16167 0.0
H2947 H 0.96622 0.2693 0.17921 0.0
C2948 C 0.9637 0.34065 0.17815 0.0
C2949 C 0.98375 0.37872 0.17485 0.0
C2950 C 0.02707 0.2166 0.166 0.0
C2951 C 1.01758 0.29439 0.17116 0.0
C2952 C 0.04459 0.17393 0.16725 0.0
C2953 C 0.07662 0.16656 0.17335 0.0
C2954 C 0.04195 0.25188 0.17087 0.0
C2955 C 0.09266 0.20347 0.17769 0.0
C2956 C 0.98012 0.29835 0.17622 0.0
C2957 C 1.01908 0.37296 0.16932 0.0
N2958 N 0.07465 0.24453 0.17646 0.0
N2959 N 0.03574 0.33156 0.16779 0.0
H2960 H 0.1487 0.74893 0.91404 0.0
H2961 H 0.90147 0.77571 0.91543 0.0
H2962 H 0.10453 0.68555 0.93611 0.0
H2963 H 0.95199 0.84128 0.93685 0.0
H2964 H 0.9768 0.74594 0.91274 0.0
H2965 H 0.07305 0.77994 0.91218 0.0
C2966 C 0.1225 0.73975 0.91826 0.0
C2967 C 0.1323 0.71347 0.9251 0.0
C2968 C 0.9715 0.76819 0.91784 0.0
C2969 C 0.04759 0.7508 0.92329 0.0
C2970 C 0.92892 0.7856 0.91932 0.0
C2971 C 0.92103 0.81198 0.92624 0.0
C2972 C 1.00558 0.77615 0.92349 0.0
C2973 C 0.9571 0.82232 0.93131 0.0
C2974 C 0.07978 0.75791 0.91725 0.0
C2975 C 0.09786 0.70417 0.9306 0.0
N2976 N 0.99762 0.80337 0.92996 0.0
N2977 N 0.05731 0.72376 0.92969 0.0
H2978 H 1.01025 0.15316 0.66318 0.0
H2979 H 0.10666 0.35316 0.68469 0.0
H2980 H 0.94355 0.20089 0.68469 0.0
H2981 H 0.03358 0.39928 0.66377 0.0
H2982 H 0.07581 0.27835 0.68258 0.0
H2983 H 0.04197 0.22827 0.66113 0.0
C2984 C 1.00047 0.18001 0.66722 0.0
C2985 C 0.97308 0.1713 0.67397 0.0
C2986 C 0.06801 0.30456 0.67828 0.0
C2987 C 1.01095 0.25566 0.67192 0.0
C2988 C 0.08642 0.3469 0.67935 0.0
C2989 C 0.07387 0.38203 0.67423 0.0
C2990 C 0.03693 0.29738 0.67204 0.0
C2991 C 0.04484 0.37269 0.66772 0.0
C2992 C 1.01901 0.22247 0.6661 0.0
C2993 C 0.96297 0.20666 0.67924 0.0
N2994 N 0.02682 0.33122 0.66684 0.0
N2995 N 0.98277 0.24705 0.67821 0.0
H2996 H 0.45301 0.35399 0.43415 0.0
H2997 H 0.65129 0.25778 0.41289 0.0
H2998 H 0.4025 0.27178 0.41473 0.0
H2999 H 0.60462 0.18865 0.43419 0.0
H3000 H 0.57576 0.28862 0.41093 0.0
H3001 H 0.52807 0.32465 0.43157 0.0
C3002 C 0.45818 0.33194 0.42902 0.0
C3003 C 0.42188 0.31632 0.42448 0.0
C3004 C 0.58191 0.26528 0.41583 0.0
C3005 C 0.50676 0.28125 0.42177 0.0
C3006 C 0.6246 0.24726 0.41689 0.0
C3007 C 0.63371 0.21946 0.42357 0.0
C3008 C 0.5488 0.25601 0.42158 0.0
C3009 C 0.59853 0.20832 0.42879 0.0
C3010 C 0.50072 0.3145 0.42767 0.0
C3011 C 0.42997 0.28523 0.41824 0.0
N3012 N 0.55778 0.22741 0.4278 0.0
N3013 N 0.47159 0.26806 0.41713 0.0
H3014 H 0.51797 0.90561 0.16721 0.0
H3015 H 0.43529 0.6984 0.18268 0.0
H3016 H 0.61309 0.84347 0.18322 0.0
H3017 H 0.52915 0.64899 0.16504 0.0
H3018 H 0.46128 0.77438 0.18002 0.0
H3019 H 0.48817 0.83152 0.16377 0.0
C3020 C 0.53427 0.87622 0.16964 0.0
C3021 C 0.56906 0.88049 0.17531 0.0
C3022 C 0.47472 0.74699 0.17648 0.0
C3023 C 0.53495 0.79647 0.17148 0.0
C3024 C 0.45897 0.70382 0.17783 0.0
C3025 C 0.47836 0.66761 0.17377 0.0
C3026 C 0.51114 0.75363 0.17127 0.0
C3027 C 0.51258 0.67626 0.16813 0.0
C3028 C 0.517 0.83423 0.16772 0.0
C3029 C 0.58797 0.84155 0.17851 0.0
N3030 N 0.52881 0.71834 0.1672 0.0
N3031 N 0.57021 0.80106 0.17664 0.0
H3032 H 0.89508 0.28202 0.57832 0.0
H3033 H 0.09877 0.36477 0.56173 0.0
H3034 H 0.95274 0.18732 0.56167 0.0
H3035 H 0.15251 0.26526 0.57783 0.0
H3036 H 1.02335 0.33982 0.56518 0.0
H3037 H 0.97019 0.31084 0.58127 0.0
C3038 C 0.92375 0.26555 0.57566 0.0
C3039 C 0.91791 0.23115 0.56994 0.0
C3040 C 0.0517 0.32487 0.56823 0.0
C3041 C 1.00305 0.26404 0.57324 0.0
C3042 C 0.09464 0.33995 0.56643 0.0
C3043 C 0.13181 0.31864 0.56981 0.0
C3044 C 0.04621 0.28721 0.57318 0.0
C3045 C 0.12454 0.28319 0.57525 0.0
C3046 C 0.96631 0.28226 0.5773 0.0
C3047 C 0.95593 0.212 0.56643 0.0
N3048 N 0.08255 0.26765 0.5766 0.0
N3049 N 0.99699 0.22913 0.56805 0.0
H3050 H 0.53278 0.15734 0.33091 0.0
H3051 H 0.44005 0.35812 0.30987 0.0
H3052 H 0.60536 0.20664 0.31019 0.0
H3053 H 0.51563 0.40556 0.3304 0.0
H3054 H 0.46998 0.28311 0.31215 0.0
H3055 H 0.50144 0.23254 0.33302 0.0
C3056 C 0.54389 0.18452 0.32708 0.0
C3057 C 0.57285 0.17623 0.32053 0.0
C3058 C 0.47851 0.30968 0.31634 0.0
C3059 C 0.53567 0.26086 0.32266 0.0
C3060 C 0.46061 0.35217 0.31517 0.0
C3061 C 0.47407 0.38769 0.32014 0.0
C3062 C 0.51013 0.30281 0.3225 0.0
C3063 C 0.50364 0.37869 0.32658 0.0
C3064 C 0.52561 0.22704 0.32823 0.0
C3065 C 0.58471 0.21205 0.3155 0.0
N3066 N 0.52127 0.33711 0.32753 0.0
N3067 N 0.56528 0.25263 0.31656 0.0
H3068 H 0.45217 0.68611 0.06285 0.0
H3069 H 0.59685 0.86821 0.06289 0.0
H3070 H 0.39603 0.7821 0.07941 0.0
H3071 H 0.65111 0.77377 0.0799 0.0
H3072 H 0.52182 0.8406 0.06593 0.0
H3073 H 0.52686 0.71419 0.06608 0.0
C3074 C 0.45574 0.71078 0.0676 0.0
C3075 C 0.418 0.73016 0.07117 0.0
C3076 C 0.55007 0.82738 0.06926 0.0
C3077 C 0.50267 0.7653 0.07429 0.0
C3078 C 0.59275 0.84409 0.0677 0.0
C3079 C 0.63009 0.82498 0.07145 0.0
C3080 C 0.54506 0.79019 0.07435 0.0
C3081 C 0.623 0.79016 0.07704 0.0
C3082 C 0.49824 0.7277 0.06927 0.0
C3083 C 0.42444 0.76554 0.07668 0.0
N3084 N 0.58143 0.77294 0.07815 0.0
N3085 N 0.46588 0.78288 0.07791 0.0
H3086 H 1.02131 0.65208 0.82758 0.0
H3087 H 0.94002 0.85566 0.81226 0.0
H3088 H 0.12231 0.71188 0.81253 0.0
H3089 H 0.04488 0.91094 0.82703 0.0
H3090 H 0.96415 0.78066 0.81612 0.0
H3091 H 0.99225 0.72682 0.8307 0.0
C3092 C 0.03906 0.68104 0.82534 0.0
C3093 C 0.07534 0.67591 0.82 0.0
C3094 C 0.9805 0.80933 0.81881 0.0
C3095 C 0.04227 0.76075 0.82352 0.0
C3096 C 0.9659 0.85214 0.81678 0.0
C3097 C 0.98891 0.88958 0.81965 0.0
C3098 C 1.01952 0.80418 0.82343 0.0
C3099 C 0.02567 0.8828 0.82483 0.0
C3100 C 1.02221 0.72342 0.82707 0.0
C3101 C 0.09617 0.71437 0.81703 0.0
N3102 N 0.04078 0.84087 0.82635 0.0
N3103 N 0.07901 0.75529 0.81875 0.0
loop_
_geom_bond_atom_site_label_1
_geom_bond_atom_site_label_2
_geom_bond_distance
_geom_bond_site_symmetry_2
_ccdc_geom_bond_type
Zn0 N4 2.020 . S
Zn0 O8 2.019 . S
Zn0 N10 2.119 . S
Zn0 O18 1.975 . S
C1 N2 1.334 . S
C1 N5 1.336 . S
N2 C1 1.334 . S
N2 C3 1.334 . S
C3 N2 1.334 . S
C3 N4 1.336 . S
N4 Zn0 2.020 . S
N4 C3 1.336 . S
N4 N5 1.354 . S
N5 C1 1.336 . S
N5 N4 1.354 . S
N5 Zn9 2.020 . S
C6 O7 1.244 . S
C6 O30 1.257 . S
O7 C6 1.244 . S
O8 Zn0 2.019 . S
O8 C28 1.257 . S
Zn9 N5 2.020 . S
Zn9 O16 1.975 . S
Zn9 N25 2.119 . S
Zn9 O30 2.019 . S
N10 Zn0 2.119 . S
N10 C12 1.334 . S
N10 C13 1.328 . S
C11 C12 1.391 . S
C11 N14 1.329 . S
C11 H32 0.930 . S
C12 N10 1.334 . S
C12 C11 1.391 . S
C12 H19 0.930 . S
C13 N10 1.328 . S
C13 C15 1.392 . S
C13 H20 0.930 . S
N14 C11 1.329 . S
N14 C15 1.331 . S
C15 C13 1.392 . S
C15 N14 1.331 . S
O16 Zn9 1.975 . S
O16 C17 1.252 . S
C17 O16 1.252 . S
C17 O18 1.252 . S
O18 Zn0 1.975 . S
O18 C17 1.252 . S
H19 C12 0.930 . S
H20 C13 0.930 . S
C21 C22 1.392 . S
C21 N25 1.328 . S
C21 H27 0.930 . S
C22 C21 1.392 . S
C22 N26 1.331 . S
C23 C24 1.391 . S
C23 N26 1.329 . S
C23 H33 0.930 . S
C24 C23 1.391 . S
C24 N25 1.334 . S
C24 H31 0.930 . S
N25 Zn9 2.119 . S
N25 C21 1.328 . S
N25 C24 1.334 . S
N26 C22 1.331 . S
N26 C23 1.329 . S
H27 C21 0.930 . S
C28 O8 1.257 . S
C28 O29 1.244 . S
O29 C28 1.244 . S
O30 C6 1.257 . S
O30 Zn9 2.019 . S
H31 C24 0.930 . S
H32 C11 0.930 . S
H33 C23 0.930 . S
Zn34 N38 2.020 . S
Zn34 O42 2.019 . S
Zn34 N44 2.119 . S
Zn34 O52 1.975 . S
C35 N36 1.334 . S
C35 N39 1.336 . S
N36 C35 1.334 . S
N36 C37 1.334 . S
C37 N36 1.334 . S
C37 N38 1.336 . S
N38 Zn34 2.020 . S
N38 C37 1.336 . S
N38 N39 1.354 . S
N39 C35 1.336 . S
N39 N38 1.354 . S
N39 Zn43 2.020 . S
C40 O41 1.244 . S
C40 O64 1.257 . S
O41 C40 1.244 . S
O42 Zn34 2.019 . S
O42 C62 1.257 . S
Zn43 N39 2.020 . S
Zn43 O50 1.975 . S
Zn43 N59 2.119 . S
Zn43 O64 2.019 1_565 S
N44 Zn34 2.119 . S
N44 C46 1.334 . S
N44 C47 1.328 . S
C45 C46 1.391 . S
C45 N48 1.329 . S
C45 H66 0.930 . S
C46 N44 1.334 . S
C46 C45 1.391 . S
C46 H53 0.930 . S
C47 N44 1.328 . S
C47 C49 1.392 . S
C47 H54 0.930 . S
N48 C45 1.329 . S
N48 C49 1.331 . S
C49 C47 1.392 . S
C49 N48 1.331 . S
O50 Zn43 1.975 . S
O50 C51 1.252 . S
C51 O50 1.252 . S
C51 O52 1.252 . S
O52 Zn34 1.975 . S
O52 C51 1.252 . S
H53 C46 0.930 . S
H54 C47 0.930 . S
C55 C56 1.392 . S
C55 N59 1.328 . S
C55 H61 0.930 1_565 S
C56 C55 1.392 . S
C56 N60 1.331 . S
C57 C58 1.391 . S
C57 N60 1.329 . S
C57 H67 0.930 . S
C58 C57 1.391 . S
C58 N59 1.334 . S
C58 H65 0.930 . S
N59 Zn43 2.119 . S
N59 C55 1.328 . S
N59 C58 1.334 . S
N60 C56 1.331 . S
N60 C57 1.329 . S
H61 C55 0.930 1_545 S
C62 O42 1.257 . S
C62 O63 1.244 . S
O63 C62 1.244 . S
O64 C40 1.257 . S
O64 Zn43 2.019 1_545 S
H65 C58 0.930 . S
H66 C45 0.930 . S
H67 C57 0.930 . S
Zn68 N72 2.020 . S
Zn68 O76 2.019 . S
Zn68 N78 2.119 . S
Zn68 O86 1.975 . S
C69 N70 1.334 . S
C69 N73 1.336 . S
N70 C69 1.334 . S
N70 C71 1.334 . S
C71 N70 1.334 . S
C71 N72 1.336 . S
N72 Zn68 2.020 . S
N72 C71 1.336 . S
N72 N73 1.354 . S
N73 C69 1.336 . S
N73 N72 1.354 . S
N73 Zn77 2.020 . S
C74 O75 1.244 . S
C74 O98 1.257 . S
O75 C74 1.244 . S
O76 Zn68 2.019 . S
O76 C96 1.257 . S
Zn77 N73 2.020 . S
Zn77 O84 1.975 . S
Zn77 N93 2.119 . S
Zn77 O98 2.019 . S
N78 Zn68 2.119 . S
N78 C80 1.334 . S
N78 C81 1.328 . S
C79 C80 1.391 . S
C79 N82 1.329 . S
C79 H100 0.930 . S
C80 N78 1.334 . S
C80 C79 1.391 . S
C80 H87 0.930 . S
C81 N78 1.328 . S
C81 C83 1.392 . S
C81 H88 0.930 . S
N82 C79 1.329 . S
N82 C83 1.331 . S
C83 C81 1.392 . S
C83 N82 1.331 . S
O84 Zn77 1.975 . S
O84 C85 1.252 . S
C85 O84 1.252 . S
C85 O86 1.252 . S
O86 Zn68 1.975 . S
O86 C85 1.252 . S
H87 C80 0.930 . S
H88 C81 0.930 . S
C89 C90 1.392 . S
C89 N93 1.328 . S
C89 H95 0.930 . S
C90 C89 1.392 . S
C90 N94 1.331 . S
C91 C92 1.391 . S
C91 N94 1.329 . S
C91 H101 0.930 . S
C92 C91 1.391 . S
C92 N93 1.334 . S
C92 H99 0.930 . S
N93 Zn77 2.119 . S
N93 C89 1.328 . S
N93 C92 1.334 . S
N94 C90 1.331 . S
N94 C91 1.329 . S
H95 C89 0.930 . S
C96 O76 1.257 . S
C96 O97 1.244 . S
O97 C96 1.244 . S
O98 C74 1.257 . S
O98 Zn77 2.019 . S
H99 C92 0.930 . S
H100 C79 0.930 . S
H101 C91 0.930 . S
Zn102 N106 2.020 . S
Zn102 O110 2.019 1_545 S
Zn102 N112 2.119 . S
Zn102 O120 1.975 . S
C103 N104 1.334 . S
C103 N107 1.336 . S
N104 C103 1.334 . S
N104 C105 1.334 . S
C105 N104 1.334 . S
C105 N106 1.336 . S
N106 Zn102 2.020 . S
N106 C105 1.336 . S
N106 N107 1.354 . S
N107 C103 1.336 . S
N107 N106 1.354 . S
N107 Zn111 2.020 . S
C108 O109 1.244 . S
C108 O132 1.257 . S
O109 C108 1.244 . S
O110 Zn102 2.019 1_565 S
O110 C130 1.257 . S
Zn111 N107 2.020 . S
Zn111 O118 1.975 . S
Zn111 N127 2.119 . S
Zn111 O132 2.019 . S
N112 Zn102 2.119 . S
N112 C114 1.334 . S
N112 C115 1.328 . S
C113 C114 1.391 . S
C113 N116 1.329 . S
C113 H134 0.930 . S
C114 N112 1.334 . S
C114 C113 1.391 . S
C114 H121 0.930 . S
C115 N112 1.328 . S
C115 C117 1.392 . S
C115 H122 0.930 1_545 S
N116 C113 1.329 . S
N116 C117 1.331 . S
C117 C115 1.392 . S
C117 N116 1.331 . S
O118 Zn111 1.975 . S
O118 C119 1.252 . S
C119 O118 1.252 . S
C119 O120 1.252 . S
O120 Zn102 1.975 . S
O120 C119 1.252 . S
H121 C114 0.930 . S
H122 C115 0.930 1_565 S
C123 C124 1.392 . S
C123 N127 1.328 . S
C123 H129 0.930 . S
C124 C123 1.392 . S
C124 N128 1.331 . S
C125 C126 1.391 . S
C125 N128 1.329 . S
C125 H135 0.930 . S
C126 C125 1.391 . S
C126 N127 1.334 . S
C126 H133 0.930 . S
N127 Zn111 2.119 . S
N127 C123 1.328 . S
N127 C126 1.334 . S
N128 C124 1.331 . S
N128 C125 1.329 . S
H129 C123 0.930 . S
C130 O110 1.257 . S
C130 O131 1.244 . S
O131 C130 1.244 . S
O132 C108 1.257 . S
O132 Zn111 2.019 . S
H133 C126 0.930 . S
H134 C113 0.930 . S
H135 C125 0.930 . S
Zn136 N140 2.020 . S
Zn136 O144 2.019 . S
Zn136 N146 2.119 . S
Zn136 O154 1.975 . S
C137 N138 1.334 . S
C137 N141 1.336 . S
N138 C137 1.334 . S
N138 C139 1.334 . S
C139 N138 1.334 . S
C139 N140 1.336 . S
N140 Zn136 2.020 . S
N140 C139 1.336 . S
N140 N141 1.354 . S
N141 C137 1.336 . S
N141 N140 1.354 . S
N141 Zn145 2.020 . S
C142 O143 1.244 . S
C142 O166 1.257 . S
O143 C142 1.244 . S
O144 Zn136 2.019 . S
O144 C164 1.257 . S
Zn145 N141 2.020 . S
Zn145 O152 1.975 . S
Zn145 N161 2.119 . S
Zn145 O166 2.019 . S
N146 Zn136 2.119 . S
N146 C148 1.334 . S
N146 C149 1.328 . S
C147 C148 1.391 . S
C147 N150 1.329 . S
C147 H168 0.930 . S
C148 N146 1.334 . S
C148 C147 1.391 . S
C148 H155 0.930 . S
C149 N146 1.328 . S
C149 C151 1.392 . S
C149 H156 0.930 . S
N150 C147 1.329 . S
N150 C151 1.331 . S
C151 C149 1.392 . S
C151 N150 1.331 . S
O152 Zn145 1.975 . S
O152 C153 1.252 . S
C153 O152 1.252 . S
C153 O154 1.252 . S
O154 Zn136 1.975 . S
O154 C153 1.252 . S
H155 C148 0.930 . S
H156 C149 0.930 . S
C157 C158 1.392 . S
C157 N161 1.328 . S
C157 H163 0.930 . S
C158 C157 1.392 . S
C158 N162 1.331 . S
C159 C160 1.391 . S
C159 N162 1.329 . S
C159 H169 0.930 . S
C160 C159 1.391 . S
C160 N161 1.334 . S
C160 H167 0.930 . S
N161 Zn145 2.119 . S
N161 C157 1.328 . S
N161 C160 1.334 . S
N162 C158 1.331 . S
N162 C159 1.329 . S
H163 C157 0.930 . S
C164 O144 1.257 . S
C164 O165 1.244 . S
O165 C164 1.244 . S
O166 C142 1.257 . S
O166 Zn145 2.019 . S
H167 C160 0.930 . S
H168 C147 0.930 . S
H169 C159 0.930 . S
Zn170 N174 2.020 . S
Zn170 O178 2.019 . S
Zn170 N180 2.119 . S
Zn170 O188 1.975 . S
C171 N172 1.334 . S
C171 N175 1.336 . S
N172 C171 1.334 . S
N172 C173 1.334 . S
C173 N172 1.334 . S
C173 N174 1.336 . S
N174 Zn170 2.020 . S
N174 C173 1.336 . S
N174 N175 1.354 . S
N175 C171 1.336 . S
N175 N174 1.354 . S
N175 Zn179 2.020 . S
C176 O177 1.244 . S
C176 O200 1.257 . S
O177 C176 1.244 . S
O178 Zn170 2.019 . S
O178 C198 1.257 . S
Zn179 N175 2.020 . S
Zn179 O186 1.975 . S
Zn179 N195 2.119 . S
Zn179 O200 2.019 1_565 S
N180 Zn170 2.119 . S
N180 C182 1.334 . S
N180 C183 1.328 . S
C181 C182 1.391 . S
C181 N184 1.329 . S
C181 H202 0.930 . S
C182 N180 1.334 . S
C182 C181 1.391 . S
C182 H189 0.930 . S
C183 N180 1.328 . S
C183 C185 1.392 . S
C183 H190 0.930 . S
N184 C181 1.329 . S
N184 C185 1.331 . S
C185 C183 1.392 . S
C185 N184 1.331 . S
O186 Zn179 1.975 . S
O186 C187 1.252 . S
C187 O186 1.252 . S
C187 O188 1.252 . S
O188 Zn170 1.975 . S
O188 C187 1.252 . S
H189 C182 0.930 . S
H190 C183 0.930 . S
C191 C192 1.392 . S
C191 N195 1.328 . S
C191 H197 0.930 1_565 S
C192 C191 1.392 . S
C192 N196 1.331 . S
C193 C194 1.391 . S
C193 N196 1.329 . S
C193 H203 0.930 . S
C194 C193 1.391 . S
C194 N195 1.334 . S
C194 H201 0.930 . S
N195 Zn179 2.119 . S
N195 C191 1.328 . S
N195 C194 1.334 . S
N196 C192 1.331 . S
N196 C193 1.329 . S
H197 C191 0.930 1_545 S
C198 O178 1.257 . S
C198 O199 1.244 . S
O199 C198 1.244 . S
O200 C176 1.257 . S
O200 Zn179 2.019 1_545 S
H201 C194 0.930 . S
H202 C181 0.930 . S
H203 C193 0.930 . S
Zn204 N208 2.020 . S
Zn204 O212 2.019 . S
Zn204 N214 2.119 . S
Zn204 O222 1.975 . S
C205 N206 1.334 . S
C205 N209 1.336 . S
N206 C205 1.334 . S
N206 C207 1.334 . S
C207 N206 1.334 . S
C207 N208 1.336 . S
N208 Zn204 2.020 . S
N208 C207 1.336 . S
N208 N209 1.354 . S
N209 C205 1.336 . S
N209 N208 1.354 . S
N209 Zn213 2.020 . S
C210 O211 1.244 . S
C210 O234 1.257 . S
O211 C210 1.244 . S
O212 Zn204 2.019 . S
O212 C232 1.257 . S
Zn213 N209 2.020 . S
Zn213 O220 1.975 . S
Zn213 N229 2.119 . S
Zn213 O234 2.019 . S
N214 Zn204 2.119 . S
N214 C216 1.334 . S
N214 C217 1.328 . S
C215 C216 1.391 . S
C215 N218 1.329 . S
C215 H236 0.930 . S
C216 N214 1.334 . S
C216 C215 1.391 . S
C216 H223 0.930 . S
C217 N214 1.328 . S
C217 C219 1.392 . S
C217 H224 0.930 . S
N218 C215 1.329 . S
N218 C219 1.331 . S
C219 C217 1.392 . S
C219 N218 1.331 . S
O220 Zn213 1.975 . S
O220 C221 1.252 . S
C221 O220 1.252 . S
C221 O222 1.252 . S
O222 Zn204 1.975 . S
O222 C221 1.252 . S
H223 C216 0.930 . S
H224 C217 0.930 . S
C225 C226 1.392 . S
C225 N229 1.328 . S
C225 H231 0.930 . S
C226 C225 1.392 . S
C226 N230 1.331 . S
C227 C228 1.391 . S
C227 N230 1.329 . S
C227 H237 0.930 . S
C228 C227 1.391 . S
C228 N229 1.334 . S
C228 H235 0.930 . S
N229 Zn213 2.119 . S
N229 C225 1.328 . S
N229 C228 1.334 . S
N230 C226 1.331 . S
N230 C227 1.329 . S
H231 C225 0.930 . S
C232 O212 1.257 . S
C232 O233 1.244 . S
O233 C232 1.244 . S
O234 C210 1.257 . S
O234 Zn213 2.019 . S
H235 C228 0.930 . S
H236 C215 0.930 . S
H237 C227 0.930 . S
Zn238 N242 2.020 . S
Zn238 O246 2.019 1_545 S
Zn238 N248 2.119 . S
Zn238 O256 1.975 . S
C239 N240 1.334 . S
C239 N243 1.336 . S
N240 C239 1.334 . S
N240 C241 1.334 . S
C241 N240 1.334 . S
C241 N242 1.336 . S
N242 Zn238 2.020 . S
N242 C241 1.336 . S
N242 N243 1.354 . S
N243 C239 1.336 . S
N243 N242 1.354 . S
N243 Zn247 2.020 . S
C244 O245 1.244 . S
C244 O268 1.257 . S
O245 C244 1.244 . S
O246 Zn238 2.019 1_565 S
O246 C266 1.257 . S
Zn247 N243 2.020 . S
Zn247 O254 1.975 . S
Zn247 N263 2.119 . S
Zn247 O268 2.019 . S
N248 Zn238 2.119 . S
N248 C250 1.334 . S
N248 C251 1.328 . S
C249 C250 1.391 . S
C249 N252 1.329 . S
C249 H270 0.930 . S
C250 N248 1.334 . S
C250 C249 1.391 . S
C250 H257 0.930 . S
C251 N248 1.328 . S
C251 C253 1.392 . S
C251 H258 0.930 1_545 S
N252 C249 1.329 . S
N252 C253 1.331 . S
C253 C251 1.392 . S
C253 N252 1.331 . S
O254 Zn247 1.975 . S
O254 C255 1.252 . S
C255 O254 1.252 . S
C255 O256 1.252 . S
O256 Zn238 1.975 . S
O256 C255 1.252 . S
H257 C250 0.930 . S
H258 C251 0.930 1_565 S
C259 C260 1.392 . S
C259 N263 1.328 . S
C259 H265 0.930 . S
C260 C259 1.392 . S
C260 N264 1.331 . S
C261 C262 1.391 . S
C261 N264 1.329 . S
C261 H271 0.930 . S
C262 C261 1.391 . S
C262 N263 1.334 . S
C262 H269 0.930 . S
N263 Zn247 2.119 . S
N263 C259 1.328 . S
N263 C262 1.334 . S
N264 C260 1.331 . S
N264 C261 1.329 . S
H265 C259 0.930 . S
C266 O246 1.257 . S
C266 O267 1.244 . S
O267 C266 1.244 . S
O268 C244 1.257 . S
O268 Zn247 2.019 . S
H269 C262 0.930 . S
H270 C249 0.930 . S
H271 C261 0.930 . S
Zn272 N276 2.020 . S
Zn272 O280 2.019 . S
Zn272 N282 2.119 . S
Zn272 O290 1.975 . S
C273 N274 1.334 . S
C273 N277 1.336 . S
N274 C273 1.334 . S
N274 C275 1.334 . S
C275 N274 1.334 . S
C275 N276 1.336 . S
N276 Zn272 2.020 . S
N276 C275 1.336 . S
N276 N277 1.354 . S
N277 C273 1.336 . S
N277 N276 1.354 . S
N277 Zn281 2.020 . S
C278 O279 1.244 . S
C278 O302 1.257 . S
O279 C278 1.244 . S
O280 Zn272 2.019 . S
O280 C300 1.257 . S
Zn281 N277 2.020 . S
Zn281 O288 1.975 . S
Zn281 N297 2.119 . S
Zn281 O302 2.019 . S
N282 Zn272 2.119 . S
N282 C284 1.334 . S
N282 C285 1.328 . S
C283 C284 1.391 . S
C283 N286 1.329 . S
C283 H304 0.930 . S
C284 N282 1.334 . S
C284 C283 1.391 . S
C284 H291 0.930 . S
C285 N282 1.328 . S
C285 C287 1.392 . S
C285 H292 0.930 . S
N286 C283 1.329 . S
N286 C287 1.331 . S
C287 C285 1.392 . S
C287 N286 1.331 . S
O288 Zn281 1.975 . S
O288 C289 1.252 . S
C289 O288 1.252 . S
C289 O290 1.252 . S
O290 Zn272 1.975 . S
O290 C289 1.252 . S
H291 C284 0.930 . S
H292 C285 0.930 . S
C293 C294 1.392 . S
C293 N297 1.328 . S
C293 H299 0.930 . S
C294 C293 1.392 . S
C294 N298 1.331 . S
C295 C296 1.391 . S
C295 N298 1.329 . S
C295 H305 0.930 . S
C296 C295 1.391 . S
C296 N297 1.334 . S
C296 H303 0.930 . S
N297 Zn281 2.119 . S
N297 C293 1.328 . S
N297 C296 1.334 . S
N298 C294 1.331 . S
N298 C295 1.329 . S
H299 C293 0.930 . S
C300 O280 1.257 . S
C300 O301 1.244 . S
O301 C300 1.244 . S
O302 C278 1.257 . S
O302 Zn281 2.019 . S
H303 C296 0.930 . S
H304 C283 0.930 . S
H305 C295 0.930 . S
Zn306 N310 2.020 . S
Zn306 O314 2.019 1_545 S
Zn306 N316 2.119 . S
Zn306 O324 1.975 . S
C307 N308 1.334 . S
C307 N311 1.336 . S
N308 C307 1.334 . S
N308 C309 1.334 . S
C309 N308 1.334 . S
C309 N310 1.336 . S
N310 Zn306 2.020 . S
N310 C309 1.336 . S
N310 N311 1.354 . S
N311 C307 1.336 . S
N311 N310 1.354 . S
N311 Zn315 2.020 . S
C312 O313 1.244 . S
C312 O336 1.257 . S
O313 C312 1.244 . S
O314 Zn306 2.019 1_565 S
O314 C334 1.257 . S
Zn315 N311 2.020 . S
Zn315 O322 1.975 . S
Zn315 N331 2.119 . S
Zn315 O336 2.019 . S
N316 Zn306 2.119 . S
N316 C318 1.334 . S
N316 C319 1.328 . S
C317 C318 1.391 . S
C317 N320 1.329 . S
C317 H338 0.930 . S
C318 N316 1.334 . S
C318 C317 1.391 . S
C318 H325 0.930 . S
C319 N316 1.328 . S
C319 C321 1.392 . S
C319 H326 0.930 1_545 S
N320 C317 1.329 . S
N320 C321 1.331 . S
C321 C319 1.392 . S
C321 N320 1.331 . S
O322 Zn315 1.975 . S
O322 C323 1.252 . S
C323 O322 1.252 . S
C323 O324 1.252 . S
O324 Zn306 1.975 . S
O324 C323 1.252 . S
H325 C318 0.930 . S
H326 C319 0.930 1_565 S
C327 C328 1.392 . S
C327 N331 1.328 . S
C327 H333 0.930 . S
C328 C327 1.392 . S
C328 N332 1.331 . S
C329 C330 1.391 . S
C329 N332 1.329 . S
C329 H339 0.930 . S
C330 C329 1.391 . S
C330 N331 1.334 . S
C330 H337 0.930 . S
N331 Zn315 2.119 . S
N331 C327 1.328 . S
N331 C330 1.334 . S
N332 C328 1.331 . S
N332 C329 1.329 . S
H333 C327 0.930 . S
C334 O314 1.257 . S
C334 O335 1.244 . S
O335 C334 1.244 . S
O336 C312 1.257 . S
O336 Zn315 2.019 . S
H337 C330 0.930 . S
H338 C317 0.930 . S
H339 C329 0.930 . S
Zn340 N344 2.020 . S
Zn340 O348 2.019 . S
Zn340 N350 2.119 . S
Zn340 O358 1.975 . S
C341 N342 1.334 . S
C341 N345 1.336 . S
N342 C341 1.334 . S
N342 C343 1.334 . S
C343 N342 1.334 . S
C343 N344 1.336 . S
N344 Zn340 2.020 . S
N344 C343 1.336 . S
N344 N345 1.354 . S
N345 C341 1.336 . S
N345 N344 1.354 . S
N345 Zn349 2.020 . S
C346 O347 1.244 . S
C346 O370 1.257 . S
O347 C346 1.244 . S
O348 Zn340 2.019 . S
O348 C368 1.257 . S
Zn349 N345 2.020 . S
Zn349 O356 1.975 . S
Zn349 N365 2.119 . S
Zn349 O370 2.019 . S
N350 Zn340 2.119 . S
N350 C352 1.334 . S
N350 C353 1.328 . S
C351 C352 1.391 . S
C351 N354 1.329 . S
C351 H372 0.930 . S
C352 N350 1.334 . S
C352 C351 1.391 . S
C352 H359 0.930 . S
C353 N350 1.328 . S
C353 C355 1.392 . S
C353 H360 0.930 . S
N354 C351 1.329 . S
N354 C355 1.331 . S
C355 C353 1.392 . S
C355 N354 1.331 . S
O356 Zn349 1.975 . S
O356 C357 1.252 . S
C357 O356 1.252 . S
C357 O358 1.252 . S
O358 Zn340 1.975 . S
O358 C357 1.252 . S
H359 C352 0.930 . S
H360 C353 0.930 . S
C361 C362 1.392 . S
C361 N365 1.328 . S
C361 H367 0.930 . S
C362 C361 1.392 . S
C362 N366 1.331 . S
C363 C364 1.391 . S
C363 N366 1.329 . S
C363 H373 0.930 . S
C364 C363 1.391 . S
C364 N365 1.334 . S
C364 H371 0.930 . S
N365 Zn349 2.119 . S
N365 C361 1.328 . S
N365 C364 1.334 . S
N366 C362 1.331 . S
N366 C363 1.329 . S
H367 C361 0.930 . S
C368 O348 1.257 . S
C368 O369 1.244 . S
O369 C368 1.244 . S
O370 C346 1.257 . S
O370 Zn349 2.019 . S
H371 C364 0.930 . S
H372 C351 0.930 . S
H373 C363 0.930 . S
Zn374 N378 2.020 . S
Zn374 O382 2.019 1_565 S
Zn374 N384 2.119 . S
Zn374 O392 1.975 . S
C375 N376 1.334 . S
C375 N379 1.336 . S
N376 C375 1.334 . S
N376 C377 1.334 . S
C377 N376 1.334 . S
C377 N378 1.336 . S
N378 Zn374 2.020 . S
N378 C377 1.336 . S
N378 N379 1.354 . S
N379 C375 1.336 . S
N379 N378 1.354 . S
N379 Zn383 2.020 . S
C380 O381 1.244 . S
C380 O404 1.257 . S
O381 C380 1.244 . S
O382 Zn374 2.019 1_545 S
O382 C402 1.257 . S
Zn383 N379 2.020 . S
Zn383 O390 1.975 . S
Zn383 N399 2.119 . S
Zn383 O404 2.019 . S
N384 Zn374 2.119 . S
N384 C386 1.334 . S
N384 C387 1.328 . S
C385 C386 1.391 . S
C385 N388 1.329 . S
C385 H406 0.930 . S
C386 N384 1.334 . S
C386 C385 1.391 . S
C386 H393 0.930 . S
C387 N384 1.328 . S
C387 C389 1.392 . S
C387 H394 0.930 1_565 S
N388 C385 1.329 . S
N388 C389 1.331 . S
C389 C387 1.392 . S
C389 N388 1.331 . S
O390 Zn383 1.975 . S
O390 C391 1.252 . S
C391 O390 1.252 . S
C391 O392 1.252 . S
O392 Zn374 1.975 . S
O392 C391 1.252 . S
H393 C386 0.930 . S
H394 C387 0.930 1_545 S
C395 C396 1.392 . S
C395 N399 1.328 . S
C395 H401 0.930 . S
C396 C395 1.392 . S
C396 N400 1.331 . S
C397 C398 1.391 . S
C397 N400 1.329 . S
C397 H407 0.930 . S
C398 C397 1.391 . S
C398 N399 1.334 . S
C398 H405 0.930 . S
N399 Zn383 2.119 . S
N399 C395 1.328 . S
N399 C398 1.334 . S
N400 C396 1.331 . S
N400 C397 1.329 . S
H401 C395 0.930 . S
C402 O382 1.257 . S
C402 O403 1.244 . S
O403 C402 1.244 . S
O404 C380 1.257 . S
O404 Zn383 2.019 . S
H405 C398 0.930 . S
H406 C385 0.930 . S
H407 C397 0.930 . S
Zn408 N412 2.020 . S
Zn408 O416 2.019 . S
Zn408 N418 2.119 . S
Zn408 O426 1.975 . S
C409 N410 1.334 . S
C409 N413 1.336 . S
N410 C409 1.334 . S
N410 C411 1.334 . S
C411 N410 1.334 . S
C411 N412 1.336 . S
N412 Zn408 2.020 . S
N412 C411 1.336 . S
N412 N413 1.354 . S
N413 C409 1.336 . S
N413 N412 1.354 . S
N413 Zn417 2.020 . S
C414 O415 1.244 . S
C414 O438 1.257 . S
O415 C414 1.244 . S
O416 Zn408 2.019 . S
O416 C436 1.257 . S
Zn417 N413 2.020 . S
Zn417 O424 1.975 . S
Zn417 N433 2.119 . S
Zn417 O438 2.019 . S
N418 Zn408 2.119 . S
N418 C420 1.334 . S
N418 C421 1.328 . S
C419 C420 1.391 . S
C419 N422 1.329 . S
C419 H440 0.930 . S
C420 N418 1.334 . S
C420 C419 1.391 . S
C420 H427 0.930 . S
C421 N418 1.328 . S
C421 C423 1.392 . S
C421 H428 0.930 . S
N422 C419 1.329 . S
N422 C423 1.331 . S
C423 C421 1.392 . S
C423 N422 1.331 . S
O424 Zn417 1.975 . S
O424 C425 1.252 . S
C425 O424 1.252 . S
C425 O426 1.252 . S
O426 Zn408 1.975 . S
O426 C425 1.252 . S
H427 C420 0.930 . S
H428 C421 0.930 . S
C429 C430 1.392 . S
C429 N433 1.328 . S
C429 H435 0.930 . S
C430 C429 1.392 . S
C430 N434 1.331 . S
C431 C432 1.391 . S
C431 N434 1.329 . S
C431 H441 0.930 . S
C432 C431 1.391 . S
C432 N433 1.334 . S
C432 H439 0.930 . S
N433 Zn417 2.119 . S
N433 C429 1.328 . S
N433 C432 1.334 . S
N434 C430 1.331 . S
N434 C431 1.329 . S
H435 C429 0.930 . S
C436 O416 1.257 . S
C436 O437 1.244 . S
O437 C436 1.244 . S
O438 C414 1.257 . S
O438 Zn417 2.019 . S
H439 C432 0.930 . S
H440 C419 0.930 . S
H441 C431 0.930 . S
Zn442 N446 2.020 . S
Zn442 O450 2.019 . S
Zn442 N452 2.119 . S
Zn442 O460 1.975 . S
C443 N444 1.334 . S
C443 N447 1.336 . S
N444 C443 1.334 . S
N444 C445 1.334 . S
C445 N444 1.334 . S
C445 N446 1.336 . S
N446 Zn442 2.020 . S
N446 C445 1.336 . S
N446 N447 1.354 . S
N447 C443 1.336 . S
N447 N446 1.354 . S
N447 Zn451 2.020 . S
C448 O449 1.244 . S
C448 O472 1.257 . S
O449 C448 1.244 . S
O450 Zn442 2.019 . S
O450 C470 1.257 . S
Zn451 N447 2.020 . S
Zn451 O458 1.975 . S
Zn451 N467 2.119 . S
Zn451 O472 2.019 1_545 S
N452 Zn442 2.119 . S
N452 C454 1.334 . S
N452 C455 1.328 . S
C453 C454 1.391 . S
C453 N456 1.329 . S
C453 H474 0.930 . S
C454 N452 1.334 . S
C454 C453 1.391 . S
C454 H461 0.930 . S
C455 N452 1.328 . S
C455 C457 1.392 . S
C455 H462 0.930 . S
N456 C453 1.329 . S
N456 C457 1.331 . S
C457 C455 1.392 . S
C457 N456 1.331 . S
O458 Zn451 1.975 . S
O458 C459 1.252 . S
C459 O458 1.252 . S
C459 O460 1.252 . S
O460 Zn442 1.975 . S
O460 C459 1.252 . S
H461 C454 0.930 . S
H462 C455 0.930 . S
C463 C464 1.392 . S
C463 N467 1.328 . S
C463 H469 0.930 1_545 S
C464 C463 1.392 . S
C464 N468 1.331 . S
C465 C466 1.391 . S
C465 N468 1.329 . S
C465 H475 0.930 . S
C466 C465 1.391 . S
C466 N467 1.334 . S
C466 H473 0.930 . S
N467 Zn451 2.119 . S
N467 C463 1.328 . S
N467 C466 1.334 . S
N468 C464 1.331 . S
N468 C465 1.329 . S
H469 C463 0.930 1_565 S
C470 O450 1.257 . S
C470 O471 1.244 . S
O471 C470 1.244 . S
O472 C448 1.257 . S
O472 Zn451 2.019 1_565 S
H473 C466 0.930 . S
H474 C453 0.930 . S
H475 C465 0.930 . S
Zn476 N480 2.020 . S
Zn476 O484 2.019 . S
Zn476 N486 2.119 . S
Zn476 O494 1.975 . S
C477 N478 1.334 . S
C477 N481 1.336 . S
N478 C477 1.334 . S
N478 C479 1.334 . S
C479 N478 1.334 . S
C479 N480 1.336 . S
N480 Zn476 2.020 . S
N480 C479 1.336 . S
N480 N481 1.354 . S
N481 C477 1.336 . S
N481 N480 1.354 . S
N481 Zn485 2.020 . S
C482 O483 1.244 . S
C482 O506 1.257 . S
O483 C482 1.244 . S
O484 Zn476 2.019 . S
O484 C504 1.257 . S
Zn485 N481 2.020 . S
Zn485 O492 1.975 . S
Zn485 N501 2.119 . S
Zn485 O506 2.019 . S
N486 Zn476 2.119 . S
N486 C488 1.334 . S
N486 C489 1.328 . S
C487 C488 1.391 . S
C487 N490 1.329 . S
C487 H508 0.930 . S
C488 N486 1.334 . S
C488 C487 1.391 . S
C488 H495 0.930 . S
C489 N486 1.328 . S
C489 C491 1.392 . S
C489 H496 0.930 . S
N490 C487 1.329 . S
N490 C491 1.331 . S
C491 C489 1.392 . S
C491 N490 1.331 . S
O492 Zn485 1.975 . S
O492 C493 1.252 . S
C493 O492 1.252 . S
C493 O494 1.252 . S
O494 Zn476 1.975 . S
O494 C493 1.252 . S
H495 C488 0.930 . S
H496 C489 0.930 . S
C497 C498 1.392 . S
C497 N501 1.328 . S
C497 H503 0.930 . S
C498 C497 1.392 . S
C498 N502 1.331 . S
C499 C500 1.391 . S
C499 N502 1.329 . S
C499 H509 0.930 . S
C500 C499 1.391 . S
C500 N501 1.334 . S
C500 H507 0.930 . S
N501 Zn485 2.119 . S
N501 C497 1.328 . S
N501 C500 1.334 . S
N502 C498 1.331 . S
N502 C499 1.329 . S
H503 C497 0.930 . S
C504 O484 1.257 . S
C504 O505 1.244 . S
O505 C504 1.244 . S
O506 C482 1.257 . S
O506 Zn485 2.019 . S
H507 C500 0.930 . S
H508 C487 0.930 . S
H509 C499 0.930 . S
Zn510 N514 2.020 . S
Zn510 O518 2.019 . S
Zn510 N520 2.119 . S
Zn510 O528 1.975 . S
C511 N512 1.334 . S
C511 N515 1.336 . S
N512 C511 1.334 . S
N512 C513 1.334 . S
C513 N512 1.334 . S
C513 N514 1.336 . S
N514 Zn510 2.020 . S
N514 C513 1.336 . S
N514 N515 1.354 . S
N515 C511 1.336 . S
N515 N514 1.354 . S
N515 Zn519 2.020 . S
C516 O517 1.244 . S
C516 O540 1.257 . S
O517 C516 1.244 . S
O518 Zn510 2.019 . S
O518 C538 1.257 . S
Zn519 N515 2.020 . S
Zn519 O526 1.975 . S
Zn519 N535 2.119 . S
Zn519 O540 2.019 1_565 S
N520 Zn510 2.119 . S
N520 C522 1.334 . S
N520 C523 1.328 . S
C521 C522 1.391 . S
C521 N524 1.329 . S
C521 H542 0.930 . S
C522 N520 1.334 . S
C522 C521 1.391 . S
C522 H529 0.930 . S
C523 N520 1.328 . S
C523 C525 1.392 . S
C523 H530 0.930 . S
N524 C521 1.329 . S
N524 C525 1.331 . S
C525 C523 1.392 . S
C525 N524 1.331 . S
O526 Zn519 1.975 . S
O526 C527 1.252 . S
C527 O526 1.252 . S
C527 O528 1.252 . S
O528 Zn510 1.975 . S
O528 C527 1.252 . S
H529 C522 0.930 . S
H530 C523 0.930 . S
C531 C532 1.392 . S
C531 N535 1.328 . S
C531 H537 0.930 1_565 S
C532 C531 1.392 . S
C532 N536 1.331 . S
C533 C534 1.391 . S
C533 N536 1.329 . S
C533 H543 0.930 . S
C534 C533 1.391 . S
C534 N535 1.334 . S
C534 H541 0.930 . S
N535 Zn519 2.119 . S
N535 C531 1.328 . S
N535 C534 1.334 . S
N536 C532 1.331 . S
N536 C533 1.329 . S
H537 C531 0.930 1_545 S
C538 O518 1.257 . S
C538 O539 1.244 . S
O539 C538 1.244 . S
O540 C516 1.257 . S
O540 Zn519 2.019 1_545 S
H541 C534 0.930 . S
H542 C521 0.930 . S
H543 C533 0.930 . S
Zn544 N548 2.020 . S
Zn544 O552 2.019 . S
Zn544 N554 2.119 . S
Zn544 O562 1.975 . S
C545 N546 1.334 . S
C545 N549 1.336 . S
N546 C545 1.334 . S
N546 C547 1.334 . S
C547 N546 1.334 . S
C547 N548 1.336 . S
N548 Zn544 2.020 . S
N548 C547 1.336 . S
N548 N549 1.354 . S
N549 C545 1.336 . S
N549 N548 1.354 . S
N549 Zn553 2.020 . S
C550 O551 1.244 . S
C550 O574 1.257 . S
O551 C550 1.244 . S
O552 Zn544 2.019 . S
O552 C572 1.257 . S
Zn553 N549 2.020 . S
Zn553 O560 1.975 . S
Zn553 N569 2.119 . S
Zn553 O574 2.019 . S
N554 Zn544 2.119 . S
N554 C556 1.334 . S
N554 C557 1.328 . S
C555 C556 1.391 . S
C555 N558 1.329 . S
C555 H576 0.930 . S
C556 N554 1.334 . S
C556 C555 1.391 . S
C556 H563 0.930 . S
C557 N554 1.328 . S
C557 C559 1.392 . S
C557 H564 0.930 . S
N558 C555 1.329 . S
N558 C559 1.331 . S
C559 C557 1.392 . S
C559 N558 1.331 . S
O560 Zn553 1.975 . S
O560 C561 1.252 . S
C561 O560 1.252 . S
C561 O562 1.252 . S
O562 Zn544 1.975 . S
O562 C561 1.252 . S
H563 C556 0.930 . S
H564 C557 0.930 . S
C565 C566 1.392 . S
C565 N569 1.328 . S
C565 H571 0.930 . S
C566 C565 1.392 . S
C566 N570 1.331 . S
C567 C568 1.391 . S
C567 N570 1.329 . S
C567 H577 0.930 . S
C568 C567 1.391 . S
C568 N569 1.334 . S
C568 H575 0.930 . S
N569 Zn553 2.119 . S
N569 C565 1.328 . S
N569 C568 1.334 . S
N570 C566 1.331 . S
N570 C567 1.329 . S
H571 C565 0.930 . S
C572 O552 1.257 . S
C572 O573 1.244 . S
O573 C572 1.244 . S
O574 C550 1.257 . S
O574 Zn553 2.019 . S
H575 C568 0.930 . S
H576 C555 0.930 . S
H577 C567 0.930 . S
Zn578 N582 2.020 . S
Zn578 O586 2.019 . S
Zn578 N588 2.119 . S
Zn578 O596 1.975 . S
C579 N580 1.334 . S
C579 N583 1.336 . S
N580 C579 1.334 . S
N580 C581 1.334 . S
C581 N580 1.334 . S
C581 N582 1.336 . S
N582 Zn578 2.020 . S
N582 C581 1.336 . S
N582 N583 1.354 . S
N583 C579 1.336 . S
N583 N582 1.354 . S
N583 Zn587 2.020 . S
C584 O585 1.244 . S
C584 O608 1.257 . S
O585 C584 1.244 . S
O586 Zn578 2.019 . S
O586 C606 1.257 . S
Zn587 N583 2.020 . S
Zn587 O594 1.975 . S
Zn587 N603 2.119 . S
Zn587 O608 2.019 . S
N588 Zn578 2.119 . S
N588 C590 1.334 . S
N588 C591 1.328 . S
C589 C590 1.391 . S
C589 N592 1.329 . S
C589 H610 0.930 . S
C590 N588 1.334 . S
C590 C589 1.391 . S
C590 H597 0.930 . S
C591 N588 1.328 . S
C591 C593 1.392 . S
C591 H598 0.930 . S
N592 C589 1.329 . S
N592 C593 1.331 . S
C593 C591 1.392 . S
C593 N592 1.331 . S
O594 Zn587 1.975 . S
O594 C595 1.252 . S
C595 O594 1.252 . S
C595 O596 1.252 . S
O596 Zn578 1.975 . S
O596 C595 1.252 . S
H597 C590 0.930 . S
H598 C591 0.930 . S
C599 C600 1.392 . S
C599 N603 1.328 . S
C599 H605 0.930 . S
C600 C599 1.392 . S
C600 N604 1.331 . S
C601 C602 1.391 . S
C601 N604 1.329 . S
C601 H611 0.930 . S
C602 C601 1.391 . S
C602 N603 1.334 . S
C602 H609 0.930 . S
N603 Zn587 2.119 . S
N603 C599 1.328 . S
N603 C602 1.334 . S
N604 C600 1.331 . S
N604 C601 1.329 . S
H605 C599 0.930 . S
C606 O586 1.257 . S
C606 O607 1.244 . S
O607 C606 1.244 . S
O608 C584 1.257 . S
O608 Zn587 2.019 . S
H609 C602 0.930 . S
H610 C589 0.930 . S
H611 C601 0.930 . S
Zn612 N616 2.020 . S
Zn612 O620 2.019 . S
Zn612 N622 2.119 . S
Zn612 O630 1.975 . S
C613 N614 1.334 . S
C613 N617 1.336 . S
N614 C613 1.334 . S
N614 C615 1.334 . S
C615 N614 1.334 . S
C615 N616 1.336 . S
N616 Zn612 2.020 . S
N616 C615 1.336 . S
N616 N617 1.354 . S
N617 C613 1.336 . S
N617 N616 1.354 . S
N617 Zn621 2.020 . S
C618 O619 1.244 . S
C618 O642 1.257 . S
O619 C618 1.244 . S
O620 Zn612 2.019 . S
O620 C640 1.257 . S
Zn621 N617 2.020 . S
Zn621 O628 1.975 . S
Zn621 N637 2.119 . S
Zn621 O642 2.019 . S
N622 Zn612 2.119 . S
N622 C624 1.334 . S
N622 C625 1.328 . S
C623 C624 1.391 . S
C623 N626 1.329 . S
C623 H644 0.930 . S
C624 N622 1.334 . S
C624 C623 1.391 . S
C624 H631 0.930 . S
C625 N622 1.328 . S
C625 C627 1.392 . S
C625 H632 0.930 . S
N626 C623 1.329 . S
N626 C627 1.331 . S
C627 C625 1.392 . S
C627 N626 1.331 . S
O628 Zn621 1.975 . S
O628 C629 1.252 . S
C629 O628 1.252 . S
C629 O630 1.252 . S
O630 Zn612 1.975 . S
O630 C629 1.252 . S
H631 C624 0.930 . S
H632 C625 0.930 . S
C633 C634 1.392 . S
C633 N637 1.328 . S
C633 H639 0.930 . S
C634 C633 1.392 . S
C634 N638 1.331 . S
C635 C636 1.391 . S
C635 N638 1.329 . S
C635 H645 0.930 . S
C636 C635 1.391 . S
C636 N637 1.334 . S
C636 H643 0.930 . S
N637 Zn621 2.119 . S
N637 C633 1.328 . S
N637 C636 1.334 . S
N638 C634 1.331 . S
N638 C635 1.329 . S
H639 C633 0.930 . S
C640 O620 1.257 . S
C640 O641 1.244 . S
O641 C640 1.244 . S
O642 C618 1.257 . S
O642 Zn621 2.019 . S
H643 C636 0.930 . S
H644 C623 0.930 . S
H645 C635 0.930 . S
Zn646 N650 2.020 . S
Zn646 O654 2.019 . S
Zn646 N656 2.119 . S
Zn646 O664 1.975 . S
C647 N648 1.334 . S
C647 N651 1.336 . S
N648 C647 1.334 . S
N648 C649 1.334 . S
C649 N648 1.334 . S
C649 N650 1.336 . S
N650 Zn646 2.020 . S
N650 C649 1.336 . S
N650 N651 1.354 . S
N651 C647 1.336 . S
N651 N650 1.354 . S
N651 Zn655 2.020 . S
C652 O653 1.244 . S
C652 O676 1.257 . S
O653 C652 1.244 . S
O654 Zn646 2.019 . S
O654 C674 1.257 . S
Zn655 N651 2.020 . S
Zn655 O662 1.975 . S
Zn655 N671 2.119 . S
Zn655 O676 2.019 . S
N656 Zn646 2.119 . S
N656 C658 1.334 . S
N656 C659 1.328 . S
C657 C658 1.391 . S
C657 N660 1.329 . S
C657 H678 0.930 . S
C658 N656 1.334 . S
C658 C657 1.391 . S
C658 H665 0.930 . S
C659 N656 1.328 . S
C659 C661 1.392 . S
C659 H666 0.930 . S
N660 C657 1.329 . S
N660 C661 1.331 . S
C661 C659 1.392 . S
C661 N660 1.331 . S
O662 Zn655 1.975 . S
O662 C663 1.252 . S
C663 O662 1.252 . S
C663 O664 1.252 . S
O664 Zn646 1.975 . S
O664 C663 1.252 . S
H665 C658 0.930 . S
H666 C659 0.930 . S
C667 C668 1.392 . S
C667 N671 1.328 . S
C667 H673 0.930 . S
C668 C667 1.392 . S
C668 N672 1.331 . S
C669 C670 1.391 . S
C669 N672 1.329 . S
C669 H679 0.930 . S
C670 C669 1.391 . S
C670 N671 1.334 . S
C670 H677 0.930 . S
N671 Zn655 2.119 . S
N671 C667 1.328 . S
N671 C670 1.334 . S
N672 C668 1.331 . S
N672 C669 1.329 . S
H673 C667 0.930 . S
C674 O654 1.257 . S
C674 O675 1.244 . S
O675 C674 1.244 . S
O676 C652 1.257 . S
O676 Zn655 2.019 . S
H677 C670 0.930 . S
H678 C657 0.930 . S
H679 C669 0.930 . S
Zn680 N684 2.020 . S
Zn680 O688 2.019 . S
Zn680 N690 2.119 . S
Zn680 O698 1.975 . S
C681 N682 1.334 . S
C681 N685 1.336 . S
N682 C681 1.334 . S
N682 C683 1.334 . S
C683 N682 1.334 . S
C683 N684 1.336 . S
N684 Zn680 2.020 . S
N684 C683 1.336 . S
N684 N685 1.354 . S
N685 C681 1.336 . S
N685 N684 1.354 . S
N685 Zn689 2.020 . S
C686 O687 1.244 . S
C686 O710 1.257 . S
O687 C686 1.244 . S
O688 Zn680 2.019 . S
O688 C708 1.257 . S
Zn689 N685 2.020 . S
Zn689 O696 1.975 . S
Zn689 N705 2.119 . S
Zn689 O710 2.019 . S
N690 Zn680 2.119 . S
N690 C692 1.334 . S
N690 C693 1.328 . S
C691 C692 1.391 . S
C691 N694 1.329 . S
C691 H712 0.930 . S
C692 N690 1.334 . S
C692 C691 1.391 . S
C692 H699 0.930 . S
C693 N690 1.328 . S
C693 C695 1.392 . S
C693 H700 0.930 . S
N694 C691 1.329 . S
N694 C695 1.331 . S
C695 C693 1.392 . S
C695 N694 1.331 . S
O696 Zn689 1.975 . S
O696 C697 1.252 . S
C697 O696 1.252 . S
C697 O698 1.252 . S
O698 Zn680 1.975 . S
O698 C697 1.252 . S
H699 C692 0.930 . S
H700 C693 0.930 . S
C701 C702 1.392 . S
C701 N705 1.328 . S
C701 H707 0.930 . S
C702 C701 1.392 . S
C702 N706 1.331 . S
C703 C704 1.391 . S
C703 N706 1.329 . S
C703 H713 0.930 . S
C704 C703 1.391 . S
C704 N705 1.334 . S
C704 H711 0.930 . S
N705 Zn689 2.119 . S
N705 C701 1.328 . S
N705 C704 1.334 . S
N706 C702 1.331 . S
N706 C703 1.329 . S
H707 C701 0.930 . S
C708 O688 1.257 . S
C708 O709 1.244 . S
O709 C708 1.244 . S
O710 C686 1.257 . S
O710 Zn689 2.019 . S
H711 C704 0.930 . S
H712 C691 0.930 . S
H713 C703 0.930 . S
Zn714 N718 2.020 . S
Zn714 O722 2.019 . S
Zn714 N724 2.119 . S
Zn714 O732 1.975 . S
C715 N716 1.334 . S
C715 N719 1.336 . S
N716 C715 1.334 . S
N716 C717 1.334 . S
C717 N716 1.334 . S
C717 N718 1.336 . S
N718 Zn714 2.020 . S
N718 C717 1.336 . S
N718 N719 1.354 . S
N719 C715 1.336 . S
N719 N718 1.354 . S
N719 Zn723 2.020 . S
C720 O721 1.244 . S
C720 O744 1.257 . S
O721 C720 1.244 . S
O722 Zn714 2.019 . S
O722 C742 1.257 . S
Zn723 N719 2.020 . S
Zn723 O730 1.975 . S
Zn723 N739 2.119 . S
Zn723 O744 2.019 . S
N724 Zn714 2.119 . S
N724 C726 1.334 . S
N724 C727 1.328 . S
C725 C726 1.391 . S
C725 N728 1.329 . S
C725 H746 0.930 . S
C726 N724 1.334 . S
C726 C725 1.391 . S
C726 H733 0.930 . S
C727 N724 1.328 . S
C727 C729 1.392 . S
C727 H734 0.930 . S
N728 C725 1.329 . S
N728 C729 1.331 . S
C729 C727 1.392 . S
C729 N728 1.331 . S
O730 Zn723 1.975 . S
O730 C731 1.252 . S
C731 O730 1.252 . S
C731 O732 1.252 . S
O732 Zn714 1.975 . S
O732 C731 1.252 . S
H733 C726 0.930 . S
H734 C727 0.930 . S
C735 C736 1.392 . S
C735 N739 1.328 . S
C735 H741 0.930 . S
C736 C735 1.392 . S
C736 N740 1.331 . S
C737 C738 1.391 . S
C737 N740 1.329 . S
C737 H747 0.930 . S
C738 C737 1.391 . S
C738 N739 1.334 . S
C738 H745 0.930 . S
N739 Zn723 2.119 . S
N739 C735 1.328 . S
N739 C738 1.334 . S
N740 C736 1.331 . S
N740 C737 1.329 . S
H741 C735 0.930 . S
C742 O722 1.257 . S
C742 O743 1.244 . S
O743 C742 1.244 . S
O744 C720 1.257 . S
O744 Zn723 2.019 . S
H745 C738 0.930 . S
H746 C725 0.930 . S
H747 C737 0.930 . S
Zn748 N752 2.020 . S
Zn748 O756 2.019 . S
Zn748 N758 2.119 . S
Zn748 O766 1.975 . S
C749 N750 1.334 . S
C749 N753 1.336 . S
N750 C749 1.334 . S
N750 C751 1.334 . S
C751 N750 1.334 . S
C751 N752 1.336 . S
N752 Zn748 2.020 . S
N752 C751 1.336 . S
N752 N753 1.354 . S
N753 C749 1.336 . S
N753 N752 1.354 . S
N753 Zn757 2.020 . S
C754 O755 1.244 . S
C754 O778 1.257 . S
O755 C754 1.244 . S
O756 Zn748 2.019 . S
O756 C776 1.257 . S
Zn757 N753 2.020 . S
Zn757 O764 1.975 . S
Zn757 N773 2.119 . S
Zn757 O778 2.019 . S
N758 Zn748 2.119 . S
N758 C760 1.334 . S
N758 C761 1.328 . S
C759 C760 1.391 . S
C759 N762 1.329 . S
C759 H780 0.930 . S
C760 N758 1.334 . S
C760 C759 1.391 . S
C760 H767 0.930 . S
C761 N758 1.328 . S
C761 C763 1.392 . S
C761 H768 0.930 . S
N762 C759 1.329 . S
N762 C763 1.331 . S
C763 C761 1.392 . S
C763 N762 1.331 . S
O764 Zn757 1.975 . S
O764 C765 1.252 . S
C765 O764 1.252 . S
C765 O766 1.252 . S
O766 Zn748 1.975 . S
O766 C765 1.252 . S
H767 C760 0.930 . S
H768 C761 0.930 . S
C769 C770 1.392 . S
C769 N773 1.328 . S
C769 H775 0.930 . S
C770 C769 1.392 . S
C770 N774 1.331 . S
C771 C772 1.391 . S
C771 N774 1.329 . S
C771 H781 0.930 . S
C772 C771 1.391 . S
C772 N773 1.334 . S
C772 H779 0.930 . S
N773 Zn757 2.119 . S
N773 C769 1.328 . S
N773 C772 1.334 . S
N774 C770 1.331 . S
N774 C771 1.329 . S
H775 C769 0.930 . S
C776 O756 1.257 . S
C776 O777 1.244 . S
O777 C776 1.244 . S
O778 C754 1.257 . S
O778 Zn757 2.019 . S
H779 C772 0.930 . S
H780 C759 0.930 . S
H781 C771 0.930 . S
Zn782 N786 2.020 . S
Zn782 O790 2.019 . S
Zn782 N792 2.119 . S
Zn782 O800 1.975 . S
C783 N784 1.334 . S
C783 N787 1.336 . S
N784 C783 1.334 . S
N784 C785 1.334 . S
C785 N784 1.334 . S
C785 N786 1.336 . S
N786 Zn782 2.020 . S
N786 C785 1.336 . S
N786 N787 1.354 . S
N787 C783 1.336 . S
N787 N786 1.354 . S
N787 Zn791 2.020 . S
C788 O789 1.244 . S
C788 O812 1.257 . S
O789 C788 1.244 . S
O790 Zn782 2.019 . S
O790 C810 1.257 . S
Zn791 N787 2.020 . S
Zn791 O798 1.975 . S
Zn791 N807 2.119 . S
Zn791 O812 2.019 . S
N792 Zn782 2.119 . S
N792 C794 1.334 . S
N792 C795 1.328 . S
C793 C794 1.391 . S
C793 N796 1.329 . S
C793 H814 0.930 . S
C794 N792 1.334 . S
C794 C793 1.391 . S
C794 H801 0.930 . S
C795 N792 1.328 . S
C795 C797 1.392 . S
C795 H802 0.930 . S
N796 C793 1.329 . S
N796 C797 1.331 . S
C797 C795 1.392 . S
C797 N796 1.331 . S
O798 Zn791 1.975 . S
O798 C799 1.252 . S
C799 O798 1.252 . S
C799 O800 1.252 . S
O800 Zn782 1.975 . S
O800 C799 1.252 . S
H801 C794 0.930 . S
H802 C795 0.930 . S
C803 C804 1.392 . S
C803 N807 1.328 . S
C803 H809 0.930 . S
C804 C803 1.392 . S
C804 N808 1.331 . S
C805 C806 1.391 . S
C805 N808 1.329 . S
C805 H815 0.930 . S
C806 C805 1.391 . S
C806 N807 1.334 . S
C806 H813 0.930 . S
N807 Zn791 2.119 . S
N807 C803 1.328 . S
N807 C806 1.334 . S
N808 C804 1.331 . S
N808 C805 1.329 . S
H809 C803 0.930 . S
C810 O790 1.257 . S
C810 O811 1.244 . S
O811 C810 1.244 . S
O812 C788 1.257 . S
O812 Zn791 2.019 . S
H813 C806 0.930 . S
H814 C793 0.930 . S
H815 C805 0.930 . S
Zn816 N820 2.020 . S
Zn816 O824 2.019 . S
Zn816 N826 2.119 . S
Zn816 O834 1.975 . S
C817 N818 1.334 . S
C817 N821 1.336 . S
N818 C817 1.334 . S
N818 C819 1.334 . S
C819 N818 1.334 . S
C819 N820 1.336 . S
N820 Zn816 2.020 . S
N820 C819 1.336 . S
N820 N821 1.354 . S
N821 C817 1.336 . S
N821 N820 1.354 . S
N821 Zn825 2.020 . S
C822 O823 1.244 . S
C822 O846 1.257 . S
O823 C822 1.244 . S
O824 Zn816 2.019 . S
O824 C844 1.257 . S
Zn825 N821 2.020 . S
Zn825 O832 1.975 . S
Zn825 N841 2.119 . S
Zn825 O846 2.019 . S
N826 Zn816 2.119 . S
N826 C828 1.334 . S
N826 C829 1.328 . S
C827 C828 1.391 . S
C827 N830 1.329 . S
C827 H848 0.930 . S
C828 N826 1.334 . S
C828 C827 1.391 . S
C828 H835 0.930 . S
C829 N826 1.328 . S
C829 C831 1.392 . S
C829 H836 0.930 . S
N830 C827 1.329 . S
N830 C831 1.331 . S
C831 C829 1.392 . S
C831 N830 1.331 . S
O832 Zn825 1.975 . S
O832 C833 1.252 . S
C833 O832 1.252 . S
C833 O834 1.252 . S
O834 Zn816 1.975 . S
O834 C833 1.252 . S
H835 C828 0.930 . S
H836 C829 0.930 . S
C837 C838 1.392 . S
C837 N841 1.328 . S
C837 H843 0.930 . S
C838 C837 1.392 . S
C838 N842 1.331 . S
C839 C840 1.391 . S
C839 N842 1.329 . S
C839 H849 0.930 . S
C840 C839 1.391 . S
C840 N841 1.334 . S
C840 H847 0.930 . S
N841 Zn825 2.119 . S
N841 C837 1.328 . S
N841 C840 1.334 . S
N842 C838 1.331 . S
N842 C839 1.329 . S
H843 C837 0.930 . S
C844 O824 1.257 . S
C844 O845 1.244 . S
O845 C844 1.244 . S
O846 C822 1.257 . S
O846 Zn825 2.019 . S
H847 C840 0.930 . S
H848 C827 0.930 . S
H849 C839 0.930 . S
Zn850 N854 2.020 . S
Zn850 O858 2.019 . S
Zn850 N860 2.119 . S
Zn850 O868 1.975 . S
C851 N852 1.334 . S
C851 N855 1.336 . S
N852 C851 1.334 . S
N852 C853 1.334 . S
C853 N852 1.334 . S
C853 N854 1.336 . S
N854 Zn850 2.020 . S
N854 C853 1.336 . S
N854 N855 1.354 . S
N855 C851 1.336 . S
N855 N854 1.354 . S
N855 Zn859 2.020 . S
C856 O857 1.244 . S
C856 O880 1.257 . S
O857 C856 1.244 . S
O858 Zn850 2.019 . S
O858 C878 1.257 . S
Zn859 N855 2.020 . S
Zn859 O866 1.975 . S
Zn859 N875 2.119 . S
Zn859 O880 2.019 . S
N860 Zn850 2.119 . S
N860 C862 1.334 . S
N860 C863 1.328 . S
C861 C862 1.391 . S
C861 N864 1.329 . S
C861 H882 0.930 . S
C862 N860 1.334 . S
C862 C861 1.391 . S
C862 H869 0.930 . S
C863 N860 1.328 . S
C863 C865 1.392 . S
C863 H870 0.930 . S
N864 C861 1.329 . S
N864 C865 1.331 . S
C865 C863 1.392 . S
C865 N864 1.331 . S
O866 Zn859 1.975 . S
O866 C867 1.252 . S
C867 O866 1.252 . S
C867 O868 1.252 . S
O868 Zn850 1.975 . S
O868 C867 1.252 . S
H869 C862 0.930 . S
H870 C863 0.930 . S
C871 C872 1.392 . S
C871 N875 1.328 . S
C871 H877 0.930 . S
C872 C871 1.392 . S
C872 N876 1.331 . S
C873 C874 1.391 . S
C873 N876 1.329 . S
C873 H883 0.930 . S
C874 C873 1.391 . S
C874 N875 1.334 . S
C874 H881 0.930 . S
N875 Zn859 2.119 . S
N875 C871 1.328 . S
N875 C874 1.334 . S
N876 C872 1.331 . S
N876 C873 1.329 . S
H877 C871 0.930 . S
C878 O858 1.257 . S
C878 O879 1.244 . S
O879 C878 1.244 . S
O880 C856 1.257 . S
O880 Zn859 2.019 . S
H881 C874 0.930 . S
H882 C861 0.930 . S
H883 C873 0.930 . S
Zn884 N888 2.020 . S
Zn884 O892 2.019 . S
Zn884 N894 2.119 . S
Zn884 O902 1.975 . S
C885 N886 1.334 . S
C885 N889 1.336 . S
N886 C885 1.334 . S
N886 C887 1.334 . S
C887 N886 1.334 . S
C887 N888 1.336 . S
N888 Zn884 2.020 . S
N888 C887 1.336 . S
N888 N889 1.354 . S
N889 C885 1.336 . S
N889 N888 1.354 . S
N889 Zn893 2.020 . S
C890 O891 1.244 . S
C890 O914 1.257 . S
O891 C890 1.244 . S
O892 Zn884 2.019 . S
O892 C912 1.257 . S
Zn893 N889 2.020 . S
Zn893 O900 1.975 . S
Zn893 N909 2.119 . S
Zn893 O914 2.019 . S
N894 Zn884 2.119 . S
N894 C896 1.334 . S
N894 C897 1.328 . S
C895 C896 1.391 . S
C895 N898 1.329 . S
C895 H916 0.930 . S
C896 N894 1.334 . S
C896 C895 1.391 . S
C896 H903 0.930 . S
C897 N894 1.328 . S
C897 C899 1.392 . S
C897 H904 0.930 . S
N898 C895 1.329 . S
N898 C899 1.331 . S
C899 C897 1.392 . S
C899 N898 1.331 . S
O900 Zn893 1.975 . S
O900 C901 1.252 . S
C901 O900 1.252 . S
C901 O902 1.252 . S
O902 Zn884 1.975 . S
O902 C901 1.252 . S
H903 C896 0.930 . S
H904 C897 0.930 . S
C905 C906 1.392 . S
C905 N909 1.328 . S
C905 H911 0.930 . S
C906 C905 1.392 . S
C906 N910 1.331 . S
C907 C908 1.391 . S
C907 N910 1.329 . S
C907 H917 0.930 . S
C908 C907 1.391 . S
C908 N909 1.334 . S
C908 H915 0.930 . S
N909 Zn893 2.119 . S
N909 C905 1.328 . S
N909 C908 1.334 . S
N910 C906 1.331 . S
N910 C907 1.329 . S
H911 C905 0.930 . S
C912 O892 1.257 . S
C912 O913 1.244 . S
O913 C912 1.244 . S
O914 C890 1.257 . S
O914 Zn893 2.019 . S
H915 C908 0.930 . S
H916 C895 0.930 . S
H917 C907 0.930 . S
Zn918 N922 2.020 . S
Zn918 O926 2.019 . S
Zn918 N928 2.119 . S
Zn918 O936 1.975 . S
C919 N920 1.334 . S
C919 N923 1.336 . S
N920 C919 1.334 . S
N920 C921 1.334 . S
C921 N920 1.334 . S
C921 N922 1.336 . S
N922 Zn918 2.020 . S
N922 C921 1.336 . S
N922 N923 1.354 . S
N923 C919 1.336 . S
N923 N922 1.354 . S
N923 Zn927 2.020 . S
C924 O925 1.244 . S
C924 O948 1.257 . S
O925 C924 1.244 . S
O926 Zn918 2.019 . S
O926 C946 1.257 . S
Zn927 N923 2.020 . S
Zn927 O934 1.975 . S
Zn927 N943 2.119 . S
Zn927 O948 2.019 . S
N928 Zn918 2.119 . S
N928 C930 1.334 . S
N928 C931 1.328 . S
C929 C930 1.391 . S
C929 N932 1.329 . S
C929 H950 0.930 . S
C930 N928 1.334 . S
C930 C929 1.391 . S
C930 H937 0.930 . S
C931 N928 1.328 . S
C931 C933 1.392 . S
C931 H938 0.930 . S
N932 C929 1.329 . S
N932 C933 1.331 . S
C933 C931 1.392 . S
C933 N932 1.331 . S
O934 Zn927 1.975 . S
O934 C935 1.252 . S
C935 O934 1.252 . S
C935 O936 1.252 . S
O936 Zn918 1.975 . S
O936 C935 1.252 . S
H937 C930 0.930 . S
H938 C931 0.930 . S
C939 C940 1.392 . S
C939 N943 1.328 . S
C939 H945 0.930 . S
C940 C939 1.392 . S
C940 N944 1.331 . S
C941 C942 1.391 . S
C941 N944 1.329 . S
C941 H951 0.930 . S
C942 C941 1.391 . S
C942 N943 1.334 . S
C942 H949 0.930 . S
N943 Zn927 2.119 . S
N943 C939 1.328 . S
N943 C942 1.334 . S
N944 C940 1.331 . S
N944 C941 1.329 . S
H945 C939 0.930 . S
C946 O926 1.257 . S
C946 O947 1.244 . S
O947 C946 1.244 . S
O948 C924 1.257 . S
O948 Zn927 2.019 . S
H949 C942 0.930 . S
H950 C929 0.930 . S
H951 C941 0.930 . S
Zn952 N956 2.020 . S
Zn952 O960 2.019 . S
Zn952 N962 2.119 . S
Zn952 O970 1.975 . S
C953 N954 1.334 . S
C953 N957 1.336 . S
N954 C953 1.334 . S
N954 C955 1.334 . S
C955 N954 1.334 . S
C955 N956 1.336 . S
N956 Zn952 2.020 . S
N956 C955 1.336 . S
N956 N957 1.354 . S
N957 C953 1.336 . S
N957 N956 1.354 . S
N957 Zn961 2.020 . S
C958 O959 1.244 . S
C958 O982 1.257 . S
O959 C958 1.244 . S
O960 Zn952 2.019 . S
O960 C980 1.257 . S
Zn961 N957 2.020 . S
Zn961 O968 1.975 . S
Zn961 N977 2.119 . S
Zn961 O982 2.019 . S
N962 Zn952 2.119 . S
N962 C964 1.334 . S
N962 C965 1.328 . S
C963 C964 1.391 . S
C963 N966 1.329 . S
C963 H984 0.930 . S
C964 N962 1.334 . S
C964 C963 1.391 . S
C964 H971 0.930 . S
C965 N962 1.328 . S
C965 C967 1.392 . S
C965 H972 0.930 . S
N966 C963 1.329 . S
N966 C967 1.331 . S
C967 C965 1.392 . S
C967 N966 1.331 . S
O968 Zn961 1.975 . S
O968 C969 1.252 . S
C969 O968 1.252 . S
C969 O970 1.252 . S
O970 Zn952 1.975 . S
O970 C969 1.252 . S
H971 C964 0.930 . S
H972 C965 0.930 . S
C973 C974 1.392 . S
C973 N977 1.328 . S
C973 H979 0.930 . S
C974 C973 1.392 . S
C974 N978 1.331 . S
C975 C976 1.391 . S
C975 N978 1.329 . S
C975 H985 0.930 . S
C976 C975 1.391 . S
C976 N977 1.334 . S
C976 H983 0.930 . S
N977 Zn961 2.119 . S
N977 C973 1.328 . S
N977 C976 1.334 . S
N978 C974 1.331 . S
N978 C975 1.329 . S
H979 C973 0.930 . S
C980 O960 1.257 . S
C980 O981 1.244 . S
O981 C980 1.244 . S
O982 C958 1.257 . S
O982 Zn961 2.019 . S
H983 C976 0.930 . S
H984 C963 0.930 . S
H985 C975 0.930 . S
Zn986 N990 2.020 . S
Zn986 O994 2.019 . S
Zn986 N996 2.119 . S
Zn986 O1004 1.975 . S
C987 N988 1.334 . S
C987 N991 1.336 . S
N988 C987 1.334 . S
N988 C989 1.334 . S
C989 N988 1.334 . S
C989 N990 1.336 . S
N990 Zn986 2.020 . S
N990 C989 1.336 . S
N990 N991 1.354 . S
N991 C987 1.336 . S
N991 N990 1.354 . S
N991 Zn995 2.020 . S
C992 O993 1.244 . S
C992 O1016 1.257 . S
O993 C992 1.244 . S
O994 Zn986 2.019 . S
O994 C1014 1.257 . S
Zn995 N991 2.020 . S
Zn995 O1002 1.975 . S
Zn995 N1011 2.119 . S
Zn995 O1016 2.019 . S
N996 Zn986 2.119 . S
N996 C998 1.334 . S
N996 C999 1.328 . S
C997 C998 1.391 . S
C997 N1000 1.329 . S
C997 H1018 0.930 . S
C998 N996 1.334 . S
C998 C997 1.391 . S
C998 H1005 0.930 . S
C999 N996 1.328 . S
C999 C1001 1.392 . S
C999 H1006 0.930 . S
N1000 C997 1.329 . S
N1000 C1001 1.331 . S
C1001 C999 1.392 . S
C1001 N1000 1.331 . S
O1002 Zn995 1.975 . S
O1002 C1003 1.252 . S
C1003 O1002 1.252 . S
C1003 O1004 1.252 . S
O1004 Zn986 1.975 . S
O1004 C1003 1.252 . S
H1005 C998 0.930 . S
H1006 C999 0.930 . S
C1007 C1008 1.392 . S
C1007 N1011 1.328 . S
C1007 H1013 0.930 . S
C1008 C1007 1.392 . S
C1008 N1012 1.331 . S
C1009 C1010 1.391 . S
C1009 N1012 1.329 . S
C1009 H1019 0.930 . S
C1010 C1009 1.391 . S
C1010 N1011 1.334 . S
C1010 H1017 0.930 . S
N1011 Zn995 2.119 . S
N1011 C1007 1.328 . S
N1011 C1010 1.334 . S
N1012 C1008 1.331 . S
N1012 C1009 1.329 . S
H1013 C1007 0.930 . S
C1014 O994 1.257 . S
C1014 O1015 1.244 . S
O1015 C1014 1.244 . S
O1016 C992 1.257 . S
O1016 Zn995 2.019 . S
H1017 C1010 0.930 . S
H1018 C997 0.930 . S
H1019 C1009 0.930 . S
Zn1020 N1024 2.020 . S
Zn1020 O1028 2.019 . S
Zn1020 N1030 2.119 . S
Zn1020 O1038 1.975 . S
C1021 N1022 1.334 . S
C1021 N1025 1.336 . S
N1022 C1021 1.334 . S
N1022 C1023 1.334 . S
C1023 N1022 1.334 . S
C1023 N1024 1.336 . S
N1024 Zn1020 2.020 . S
N1024 C1023 1.336 . S
N1024 N1025 1.354 . S
N1025 C1021 1.336 . S
N1025 N1024 1.354 . S
N1025 Zn1029 2.020 . S
C1026 O1027 1.244 . S
C1026 O1050 1.257 . S
O1027 C1026 1.244 . S
O1028 Zn1020 2.019 . S
O1028 C1048 1.257 . S
Zn1029 N1025 2.020 . S
Zn1029 O1036 1.975 . S
Zn1029 N1045 2.119 . S
Zn1029 O1050 2.019 . S
N1030 Zn1020 2.119 . S
N1030 C1032 1.334 . S
N1030 C1033 1.328 . S
C1031 C1032 1.391 . S
C1031 N1034 1.329 . S
C1031 H1052 0.930 . S
C1032 N1030 1.334 . S
C1032 C1031 1.391 . S
C1032 H1039 0.930 . S
C1033 N1030 1.328 . S
C1033 C1035 1.392 . S
C1033 H1040 0.930 . S
N1034 C1031 1.329 . S
N1034 C1035 1.331 . S
C1035 C1033 1.392 . S
C1035 N1034 1.331 . S
O1036 Zn1029 1.975 . S
O1036 C1037 1.252 . S
C1037 O1036 1.252 . S
C1037 O1038 1.252 . S
O1038 Zn1020 1.975 . S
O1038 C1037 1.252 . S
H1039 C1032 0.930 . S
H1040 C1033 0.930 . S
C1041 C1042 1.392 . S
C1041 N1045 1.328 . S
C1041 H1047 0.930 . S
C1042 C1041 1.392 . S
C1042 N1046 1.331 . S
C1043 C1044 1.391 . S
C1043 N1046 1.329 . S
C1043 H1053 0.930 . S
C1044 C1043 1.391 . S
C1044 N1045 1.334 . S
C1044 H1051 0.930 . S
N1045 Zn1029 2.119 . S
N1045 C1041 1.328 . S
N1045 C1044 1.334 . S
N1046 C1042 1.331 . S
N1046 C1043 1.329 . S
H1047 C1041 0.930 . S
C1048 O1028 1.257 . S
C1048 O1049 1.244 . S
O1049 C1048 1.244 . S
O1050 C1026 1.257 . S
O1050 Zn1029 2.019 . S
H1051 C1044 0.930 . S
H1052 C1031 0.930 . S
H1053 C1043 0.930 . S
Zn1054 N1058 2.020 . S
Zn1054 O1062 2.019 . S
Zn1054 N1064 2.119 . S
Zn1054 O1072 1.975 . S
C1055 N1056 1.334 . S
C1055 N1059 1.336 . S
N1056 C1055 1.334 . S
N1056 C1057 1.334 . S
C1057 N1056 1.334 . S
C1057 N1058 1.336 . S
N1058 Zn1054 2.020 . S
N1058 C1057 1.336 . S
N1058 N1059 1.354 . S
N1059 C1055 1.336 . S
N1059 N1058 1.354 . S
N1059 Zn1063 2.020 . S
C1060 O1061 1.244 . S
C1060 O1084 1.257 . S
O1061 C1060 1.244 . S
O1062 Zn1054 2.019 . S
O1062 C1082 1.257 . S
Zn1063 N1059 2.020 . S
Zn1063 O1070 1.975 . S
Zn1063 N1079 2.119 . S
Zn1063 O1084 2.019 . S
N1064 Zn1054 2.119 . S
N1064 C1066 1.334 . S
N1064 C1067 1.328 . S
C1065 C1066 1.391 . S
C1065 N1068 1.329 . S
C1065 H1086 0.930 . S
C1066 N1064 1.334 . S
C1066 C1065 1.391 . S
C1066 H1073 0.930 . S
C1067 N1064 1.328 . S
C1067 C1069 1.392 . S
C1067 H1074 0.930 . S
N1068 C1065 1.329 . S
N1068 C1069 1.331 . S
C1069 C1067 1.392 . S
C1069 N1068 1.331 . S
O1070 Zn1063 1.975 . S
O1070 C1071 1.252 . S
C1071 O1070 1.252 . S
C1071 O1072 1.252 . S
O1072 Zn1054 1.975 . S
O1072 C1071 1.252 . S
H1073 C1066 0.930 . S
H1074 C1067 0.930 . S
C1075 C1076 1.392 . S
C1075 N1079 1.328 . S
C1075 H1081 0.930 . S
C1076 C1075 1.392 . S
C1076 N1080 1.331 . S
C1077 C1078 1.391 . S
C1077 N1080 1.329 . S
C1077 H1087 0.930 . S
C1078 C1077 1.391 . S
C1078 N1079 1.334 . S
C1078 H1085 0.930 . S
N1079 Zn1063 2.119 . S
N1079 C1075 1.328 . S
N1079 C1078 1.334 . S
N1080 C1076 1.331 . S
N1080 C1077 1.329 . S
H1081 C1075 0.930 . S
C1082 O1062 1.257 . S
C1082 O1083 1.244 . S
O1083 C1082 1.244 . S
O1084 C1060 1.257 . S
O1084 Zn1063 2.019 . S
H1085 C1078 0.930 . S
H1086 C1065 0.930 . S
H1087 C1077 0.930 . S
H1088 C1094 0.930 . S
H1089 C1098 0.930 . S
H1090 C1103 0.929 . S
H1091 C1101 0.929 . S
H1092 C1096 0.929 . S
H1093 C1102 0.931 . S
C1094 H1088 0.930 . S
C1094 C1095 1.367 . S
C1094 C1102 1.378 . S
C1095 C1094 1.367 . S
C1095 C1103 1.433 . S
C1096 H1092 0.929 . S
C1096 C1098 1.378 . S
C1096 C1100 1.350 . S
C1097 C1100 1.463 . S
C1097 C1102 1.350 1_545 S
C1097 N1105 1.427 . S
C1098 H1089 0.930 . S
C1098 C1096 1.378 . S
C1098 C1099 1.367 . S
C1099 C1098 1.367 . S
C1099 C1101 1.433 . S
C1100 C1096 1.350 . S
C1100 C1097 1.463 . S
C1100 N1104 1.427 . S
C1101 H1091 0.929 . S
C1101 C1099 1.433 . S
C1101 N1104 1.384 . S
C1102 H1093 0.931 . S
C1102 C1094 1.378 . S
C1102 C1097 1.350 1_565 S
C1103 H1090 0.929 . S
C1103 C1095 1.433 . S
C1103 N1105 1.384 1_565 S
N1104 C1100 1.427 . S
N1104 C1101 1.384 . S
N1105 C1097 1.427 . S
N1105 C1103 1.384 1_545 S
H1106 C1112 0.930 . S
H1107 C1116 0.930 . S
H1108 C1121 0.929 . S
H1109 C1119 0.929 . S
H1110 C1114 0.929 . S
H1111 C1120 0.929 . S
C1112 H1106 0.930 . S
C1112 C1113 1.367 . S
C1112 C1120 1.378 . S
C1113 C1112 1.367 . S
C1113 C1121 1.433 . S
C1114 H1110 0.929 . S
C1114 C1116 1.378 . S
C1114 C1118 1.350 . S
C1115 C1118 1.463 . S
C1115 C1120 1.350 . S
C1115 N1123 1.427 . S
C1116 H1107 0.930 . S
C1116 C1114 1.378 . S
C1116 C1117 1.367 . S
C1117 C1116 1.367 . S
C1117 C1119 1.433 . S
C1118 C1114 1.350 . S
C1118 C1115 1.463 . S
C1118 N1122 1.427 . S
C1119 H1109 0.929 . S
C1119 C1117 1.433 . S
C1119 N1122 1.384 . S
C1120 H1111 0.929 . S
C1120 C1112 1.378 . S
C1120 C1115 1.350 . S
C1121 H1108 0.929 . S
C1121 C1113 1.433 . S
C1121 N1123 1.384 . S
N1122 C1118 1.427 . S
N1122 C1119 1.384 . S
N1123 C1115 1.427 . S
N1123 C1121 1.384 . S
H1124 C1130 0.930 . S
H1125 C1134 0.930 . S
H1126 C1139 0.929 . S
H1127 C1137 0.929 1_565 S
H1128 C1132 0.929 . S
H1129 C1138 0.929 . S
C1130 H1124 0.930 . S
C1130 C1131 1.367 . S
C1130 C1138 1.378 . S
C1131 C1130 1.367 . S
C1131 C1139 1.433 . S
C1132 H1128 0.929 . S
C1132 C1134 1.378 . S
C1132 C1136 1.350 1_545 S
C1133 C1136 1.463 . S
C1133 C1138 1.350 . S
C1133 N1141 1.427 . S
C1134 H1125 0.930 . S
C1134 C1132 1.378 . S
C1134 C1135 1.367 1_455 S
C1135 C1134 1.367 1_655 S
C1135 C1137 1.433 . S
C1136 C1132 1.350 1_565 S
C1136 C1133 1.463 . S
C1136 N1140 1.427 . S
C1137 H1127 0.929 1_545 S
C1137 C1135 1.433 . S
C1137 N1140 1.384 1_645 S
C1138 H1129 0.929 . S
C1138 C1130 1.378 . S
C1138 C1133 1.350 . S
C1139 H1126 0.929 . S
C1139 C1131 1.433 . S
C1139 N1141 1.384 . S
N1140 C1136 1.427 . S
N1140 C1137 1.384 1_465 S
N1141 C1133 1.427 . S
N1141 C1139 1.384 . S
H1142 C1148 0.930 . S
H1143 C1152 0.930 . S
H1144 C1157 0.929 . S
H1145 C1155 0.929 . S
H1146 C1150 0.929 . S
H1147 C1156 0.929 . S
C1148 H1142 0.930 . S
C1148 C1149 1.367 . S
C1148 C1156 1.378 . S
C1149 C1148 1.367 . S
C1149 C1157 1.433 . S
C1150 H1146 0.929 . S
C1150 C1152 1.378 . S
C1150 C1154 1.350 . S
C1151 C1154 1.463 . S
C1151 C1156 1.350 . S
C1151 N1159 1.427 . S
C1152 H1143 0.930 . S
C1152 C1150 1.378 . S
C1152 C1153 1.367 . S
C1153 C1152 1.367 . S
C1153 C1155 1.433 . S
C1154 C1150 1.350 . S
C1154 C1151 1.463 . S
C1154 N1158 1.427 . S
C1155 H1145 0.929 . S
C1155 C1153 1.433 . S
C1155 N1158 1.384 . S
C1156 H1147 0.929 . S
C1156 C1148 1.378 . S
C1156 C1151 1.350 . S
C1157 H1144 0.929 . S
C1157 C1149 1.433 . S
C1157 N1159 1.384 . S
N1158 C1154 1.427 . S
N1158 C1155 1.384 . S
N1159 C1151 1.427 . S
N1159 C1157 1.384 . S
H1160 C1166 0.930 . S
H1161 C1170 0.930 . S
H1162 C1175 0.929 . S
H1163 C1173 0.929 . S
H1164 C1168 0.929 . S
H1165 C1174 0.929 . S
C1166 H1160 0.930 . S
C1166 C1167 1.367 . S
C1166 C1174 1.378 . S
C1167 C1166 1.367 . S
C1167 C1175 1.433 . S
C1168 H1164 0.929 . S
C1168 C1170 1.378 . S
C1168 C1172 1.350 1_545 S
C1169 C1172 1.463 . S
C1169 C1174 1.350 . S
C1169 N1177 1.427 . S
C1170 H1161 0.930 . S
C1170 C1168 1.378 . S
C1170 C1171 1.367 . S
C1171 C1170 1.367 . S
C1171 C1173 1.433 1_545 S
C1172 C1168 1.350 1_565 S
C1172 C1169 1.463 . S
C1172 N1176 1.427 . S
C1173 H1163 0.929 . S
C1173 C1171 1.433 1_565 S
C1173 N1176 1.384 . S
C1174 H1165 0.929 . S
C1174 C1166 1.378 . S
C1174 C1169 1.350 . S
C1175 H1162 0.929 . S
C1175 C1167 1.433 . S
C1175 N1177 1.384 . S
N1176 C1172 1.427 . S
N1176 C1173 1.384 . S
N1177 C1169 1.427 . S
N1177 C1175 1.384 . S
H1178 C1184 0.930 . S
H1179 C1188 0.930 . S
H1180 C1193 0.929 . S
H1181 C1191 0.929 . S
H1182 C1186 0.929 . S
H1183 C1192 0.929 . S
C1184 H1178 0.930 . S
C1184 C1185 1.367 . S
C1184 C1192 1.378 . S
C1185 C1184 1.367 . S
C1185 C1193 1.433 . S
C1186 H1182 0.929 . S
C1186 C1188 1.378 . S
C1186 C1190 1.350 . S
C1187 C1190 1.463 . S
C1187 C1192 1.350 . S
C1187 N1195 1.427 . S
C1188 H1179 0.930 . S
C1188 C1186 1.378 . S
C1188 C1189 1.367 . S
C1189 C1188 1.367 . S
C1189 C1191 1.433 . S
C1190 C1186 1.350 . S
C1190 C1187 1.463 . S
C1190 N1194 1.427 . S
C1191 H1181 0.929 . S
C1191 C1189 1.433 . S
C1191 N1194 1.384 . S
C1192 H1183 0.929 . S
C1192 C1184 1.378 . S
C1192 C1187 1.350 . S
C1193 H1180 0.929 . S
C1193 C1185 1.433 . S
C1193 N1195 1.384 . S
N1194 C1190 1.427 . S
N1194 C1191 1.384 . S
N1195 C1187 1.427 . S
N1195 C1193 1.384 . S
H1196 C1202 0.930 . S
H1197 C1206 0.930 1_545 S
H1198 C1211 0.929 . S
H1199 C1209 0.929 . S
H1200 C1204 0.929 . S
H1201 C1210 0.929 . S
C1202 H1196 0.930 . S
C1202 C1203 1.367 . S
C1202 C1210 1.378 . S
C1203 C1202 1.367 . S
C1203 C1211 1.433 . S
C1204 H1200 0.929 . S
C1204 C1206 1.378 1_445 S
C1204 C1208 1.350 . S
C1205 C1208 1.463 . S
C1205 C1210 1.350 . S
C1205 N1213 1.427 . S
C1206 H1197 0.930 1_565 S
C1206 C1204 1.378 1_665 S
C1206 C1207 1.367 . S
C1207 C1206 1.367 . S
C1207 C1209 1.433 1_655 S
C1208 C1204 1.350 . S
C1208 C1205 1.463 . S
C1208 N1212 1.427 1_545 S
C1209 H1199 0.929 . S
C1209 C1207 1.433 1_455 S
C1209 N1212 1.384 . S
C1210 H1201 0.929 . S
C1210 C1202 1.378 . S
C1210 C1205 1.350 . S
C1211 H1198 0.929 . S
C1211 C1203 1.433 . S
C1211 N1213 1.384 . S
N1212 C1208 1.427 1_565 S
N1212 C1209 1.384 . S
N1213 C1205 1.427 . S
N1213 C1211 1.384 . S
H1214 C1220 0.930 . S
H1215 C1224 0.930 . S
H1216 C1229 0.929 . S
H1217 C1227 0.929 . S
H1218 C1222 0.929 . S
H1219 C1228 0.929 . S
C1220 H1214 0.930 . S
C1220 C1221 1.367 . S
C1220 C1228 1.378 . S
C1221 C1220 1.367 . S
C1221 C1229 1.433 . S
C1222 H1218 0.929 . S
C1222 C1224 1.378 . S
C1222 C1226 1.350 . S
C1223 C1226 1.463 . S
C1223 C1228 1.350 . S
C1223 N1231 1.427 . S
C1224 H1215 0.930 . S
C1224 C1222 1.378 . S
C1224 C1225 1.367 . S
C1225 C1224 1.367 . S
C1225 C1227 1.433 . S
C1226 C1222 1.350 . S
C1226 C1223 1.463 . S
C1226 N1230 1.427 . S
C1227 H1217 0.929 . S
C1227 C1225 1.433 . S
C1227 N1230 1.384 . S
C1228 H1219 0.929 . S
C1228 C1220 1.378 . S
C1228 C1223 1.350 . S
C1229 H1216 0.929 . S
C1229 C1221 1.433 . S
C1229 N1231 1.384 . S
N1230 C1226 1.427 . S
N1230 C1227 1.384 . S
N1231 C1223 1.427 . S
N1231 C1229 1.384 . S
H1232 C1238 0.930 . S
H1233 C1242 0.930 . S
H1234 C1247 0.929 . S
H1235 C1245 0.929 . S
H1236 C1240 0.929 . S
H1237 C1246 0.929 1_545 S
C1238 H1232 0.930 . S
C1238 C1239 1.367 . S
C1238 C1246 1.378 . S
C1239 C1238 1.367 . S
C1239 C1247 1.433 . S
C1240 H1236 0.929 . S
C1240 C1242 1.378 . S
C1240 C1244 1.350 . S
C1241 C1244 1.463 . S
C1241 C1246 1.350 . S
C1241 N1249 1.427 . S
C1242 H1233 0.930 . S
C1242 C1240 1.378 . S
C1242 C1243 1.367 1_565 S
C1243 C1242 1.367 1_545 S
C1243 C1245 1.433 . S
C1244 C1240 1.350 . S
C1244 C1241 1.463 . S
C1244 N1248 1.427 1_565 S
C1245 H1235 0.929 . S
C1245 C1243 1.433 . S
C1245 N1248 1.384 . S
C1246 H1237 0.929 1_565 S
C1246 C1238 1.378 . S
C1246 C1241 1.350 . S
C1247 H1234 0.929 . S
C1247 C1239 1.433 . S
C1247 N1249 1.384 . S
N1248 C1244 1.427 1_545 S
N1248 C1245 1.384 . S
N1249 C1241 1.427 . S
N1249 C1247 1.384 . S
H1250 C1256 0.930 . S
H1251 C1260 0.930 . S
H1252 C1265 0.929 . S
H1253 C1263 0.929 . S
H1254 C1258 0.929 . S
H1255 C1264 0.929 . S
C1256 H1250 0.930 . S
C1256 C1257 1.367 . S
C1256 C1264 1.378 . S
C1257 C1256 1.367 . S
C1257 C1265 1.433 . S
C1258 H1254 0.929 . S
C1258 C1260 1.378 . S
C1258 C1262 1.350 . S
C1259 C1262 1.463 . S
C1259 C1264 1.350 . S
C1259 N1267 1.427 . S
C1260 H1251 0.930 . S
C1260 C1258 1.378 . S
C1260 C1261 1.367 . S
C1261 C1260 1.367 . S
C1261 C1263 1.433 . S
C1262 C1258 1.350 . S
C1262 C1259 1.463 . S
C1262 N1266 1.427 . S
C1263 H1253 0.929 . S
C1263 C1261 1.433 . S
C1263 N1266 1.384 . S
C1264 H1255 0.929 . S
C1264 C1256 1.378 . S
C1264 C1259 1.350 . S
C1265 H1252 0.929 . S
C1265 C1257 1.433 . S
C1265 N1267 1.384 . S
N1266 C1262 1.427 . S
N1266 C1263 1.384 . S
N1267 C1259 1.427 . S
N1267 C1265 1.384 . S
H1268 C1274 0.930 . S
H1269 C1278 0.930 . S
H1270 C1283 0.929 . S
H1271 C1281 0.929 1_545 S
H1272 C1276 0.929 . S
H1273 C1282 0.929 . S
C1274 H1268 0.930 . S
C1274 C1275 1.367 . S
C1274 C1282 1.378 . S
C1275 C1274 1.367 . S
C1275 C1283 1.433 . S
C1276 H1272 0.929 . S
C1276 C1278 1.378 . S
C1276 C1280 1.350 1_565 S
C1277 C1280 1.463 . S
C1277 C1282 1.350 . S
C1277 N1285 1.427 . S
C1278 H1269 0.930 . S
C1278 C1276 1.378 . S
C1278 C1279 1.367 1_655 S
C1279 C1278 1.367 1_455 S
C1279 C1281 1.433 . S
C1280 C1276 1.350 1_545 S
C1280 C1277 1.463 . S
C1280 N1284 1.427 . S
C1281 H1271 0.929 1_565 S
C1281 C1279 1.433 . S
C1281 N1284 1.384 1_465 S
C1282 H1273 0.929 . S
C1282 C1274 1.378 . S
C1282 C1277 1.350 . S
C1283 H1270 0.929 . S
C1283 C1275 1.433 . S
C1283 N1285 1.384 . S
N1284 C1280 1.427 . S
N1284 C1281 1.384 1_645 S
N1285 C1277 1.427 . S
N1285 C1283 1.384 . S
H1286 C1292 0.930 . S
H1287 C1296 0.930 . S
H1288 C1301 0.929 . S
H1289 C1299 0.929 . S
H1290 C1294 0.929 . S
H1291 C1300 0.929 . S
C1292 H1286 0.930 . S
C1292 C1293 1.367 . S
C1292 C1300 1.378 . S
C1293 C1292 1.367 . S
C1293 C1301 1.433 . S
C1294 H1290 0.929 . S
C1294 C1296 1.378 . S
C1294 C1298 1.350 . S
C1295 C1298 1.463 . S
C1295 C1300 1.350 . S
C1295 N1303 1.427 . S
C1296 H1287 0.930 . S
C1296 C1294 1.378 . S
C1296 C1297 1.367 . S
C1297 C1296 1.367 . S
C1297 C1299 1.433 . S
C1298 C1294 1.350 . S
C1298 C1295 1.463 . S
C1298 N1302 1.427 . S
C1299 H1289 0.929 . S
C1299 C1297 1.433 . S
C1299 N1302 1.384 . S
C1300 H1291 0.929 . S
C1300 C1292 1.378 . S
C1300 C1295 1.350 . S
C1301 H1288 0.929 . S
C1301 C1293 1.433 . S
C1301 N1303 1.384 . S
N1302 C1298 1.427 . S
N1302 C1299 1.384 . S
N1303 C1295 1.427 . S
N1303 C1301 1.384 . S
H1304 C1310 0.930 . S
H1305 C1314 0.930 . S
H1306 C1319 0.929 . S
H1307 C1317 0.929 . S
H1308 C1312 0.929 . S
H1309 C1318 0.929 . S
C1310 H1304 0.930 . S
C1310 C1311 1.367 . S
C1310 C1318 1.378 1_565 S
C1311 C1310 1.367 . S
C1311 C1319 1.433 . S
C1312 H1308 0.929 . S
C1312 C1314 1.378 . S
C1312 C1316 1.350 . S
C1313 C1316 1.463 . S
C1313 C1318 1.350 . S
C1313 N1321 1.427 1_545 S
C1314 H1305 0.930 . S
C1314 C1312 1.378 . S
C1314 C1315 1.367 . S
C1315 C1314 1.367 . S
C1315 C1317 1.433 . S
C1316 C1312 1.350 . S
C1316 C1313 1.463 . S
C1316 N1320 1.427 . S
C1317 H1307 0.929 . S
C1317 C1315 1.433 . S
C1317 N1320 1.384 . S
C1318 H1309 0.929 . S
C1318 C1310 1.378 1_545 S
C1318 C1313 1.350 . S
C1319 H1306 0.929 . S
C1319 C1311 1.433 . S
C1319 N1321 1.384 . S
N1320 C1316 1.427 . S
N1320 C1317 1.384 . S
N1321 C1313 1.427 1_565 S
N1321 C1319 1.384 . S
H1322 C1328 0.930 . S
H1323 C1332 0.930 . S
H1324 C1337 0.929 . S
H1325 C1335 0.929 . S
H1326 C1330 0.929 . S
H1327 C1336 0.929 . S
C1328 H1322 0.930 . S
C1328 C1329 1.367 . S
C1328 C1336 1.378 . S
C1329 C1328 1.367 . S
C1329 C1337 1.433 . S
C1330 H1326 0.929 . S
C1330 C1332 1.378 . S
C1330 C1334 1.350 . S
C1331 C1334 1.463 . S
C1331 C1336 1.350 . S
C1331 N1339 1.427 . S
C1332 H1323 0.930 . S
C1332 C1330 1.378 . S
C1332 C1333 1.367 . S
C1333 C1332 1.367 . S
C1333 C1335 1.433 . S
C1334 C1330 1.350 . S
C1334 C1331 1.463 . S
C1334 N1338 1.427 . S
C1335 H1325 0.929 . S
C1335 C1333 1.433 . S
C1335 N1338 1.384 . S
C1336 H1327 0.929 . S
C1336 C1328 1.378 . S
C1336 C1331 1.350 . S
C1337 H1324 0.929 . S
C1337 C1329 1.433 . S
C1337 N1339 1.384 . S
N1338 C1334 1.427 . S
N1338 C1335 1.384 . S
N1339 C1331 1.427 . S
N1339 C1337 1.384 . S
H1340 C1346 0.930 . S
H1341 C1350 0.930 . S
H1342 C1355 0.929 . S
H1343 C1353 0.929 . S
H1344 C1348 0.929 . S
H1345 C1354 0.929 . S
C1346 H1340 0.930 . S
C1346 C1347 1.367 . S
C1346 C1354 1.378 1_445 S
C1347 C1346 1.367 . S
C1347 C1355 1.433 1_455 S
C1348 H1344 0.929 . S
C1348 C1350 1.378 . S
C1348 C1352 1.350 . S
C1349 C1352 1.463 . S
C1349 C1354 1.350 . S
C1349 N1357 1.427 1_565 S
C1350 H1341 0.930 . S
C1350 C1348 1.378 . S
C1350 C1351 1.367 . S
C1351 C1350 1.367 . S
C1351 C1353 1.433 . S
C1352 C1348 1.350 . S
C1352 C1349 1.463 . S
C1352 N1356 1.427 . S
C1353 H1343 0.929 . S
C1353 C1351 1.433 . S
C1353 N1356 1.384 . S
C1354 H1345 0.929 . S
C1354 C1346 1.378 1_665 S
C1354 C1349 1.350 . S
C1355 H1342 0.929 . S
C1355 C1347 1.433 1_655 S
C1355 N1357 1.384 . S
N1356 C1352 1.427 . S
N1356 C1353 1.384 . S
N1357 C1349 1.427 1_545 S
N1357 C1355 1.384 . S
H1358 C1364 0.930 . S
H1359 C1368 0.930 . S
H1360 C1373 0.929 . S
H1361 C1371 0.929 . S
H1362 C1366 0.929 . S
H1363 C1372 0.929 . S
C1364 H1358 0.930 . S
C1364 C1365 1.367 . S
C1364 C1372 1.378 . S
C1365 C1364 1.367 . S
C1365 C1373 1.433 . S
C1366 H1362 0.929 . S
C1366 C1368 1.378 . S
C1366 C1370 1.350 . S
C1367 C1370 1.463 . S
C1367 C1372 1.350 . S
C1367 N1375 1.427 . S
C1368 H1359 0.930 . S
C1368 C1366 1.378 . S
C1368 C1369 1.367 . S
C1369 C1368 1.367 . S
C1369 C1371 1.433 . S
C1370 C1366 1.350 . S
C1370 C1367 1.463 . S
C1370 N1374 1.427 . S
C1371 H1361 0.929 . S
C1371 C1369 1.433 . S
C1371 N1374 1.384 . S
C1372 H1363 0.929 . S
C1372 C1364 1.378 . S
C1372 C1367 1.350 . S
C1373 H1360 0.929 . S
C1373 C1365 1.433 . S
C1373 N1375 1.384 . S
N1374 C1370 1.427 . S
N1374 C1371 1.384 . S
N1375 C1367 1.427 . S
N1375 C1373 1.384 . S
H1376 C1382 0.930 . S
H1377 C1386 0.930 . S
H1378 C1391 0.929 . S
H1379 C1389 0.929 . S
H1380 C1384 0.929 . S
H1381 C1390 0.929 . S
C1382 H1376 0.930 . S
C1382 C1383 1.367 . S
C1382 C1390 1.378 . S
C1383 C1382 1.367 . S
C1383 C1391 1.433 . S
C1384 H1380 0.929 . S
C1384 C1386 1.378 1_655 S
C1384 C1388 1.350 . S
C1385 C1388 1.463 . S
C1385 C1390 1.350 . S
C1385 N1393 1.427 . S
C1386 H1377 0.930 . S
C1386 C1384 1.378 1_455 S
C1386 C1387 1.367 . S
C1387 C1386 1.367 . S
C1387 C1389 1.433 1_455 S
C1388 C1384 1.350 . S
C1388 C1385 1.463 . S
C1388 N1392 1.427 . S
C1389 H1379 0.929 . S
C1389 C1387 1.433 1_655 S
C1389 N1392 1.384 . S
C1390 H1381 0.929 . S
C1390 C1382 1.378 . S
C1390 C1385 1.350 . S
C1391 H1378 0.929 . S
C1391 C1383 1.433 . S
C1391 N1393 1.384 . S
N1392 C1388 1.427 . S
N1392 C1389 1.384 . S
N1393 C1385 1.427 . S
N1393 C1391 1.384 . S
H1394 C1400 0.930 . S
H1395 C1404 0.930 . S
H1396 C1409 0.929 . S
H1397 C1407 0.929 . S
H1398 C1402 0.929 . S
H1399 C1408 0.929 . S
C1400 H1394 0.930 . S
C1400 C1401 1.367 . S
C1400 C1408 1.378 . S
C1401 C1400 1.367 . S
C1401 C1409 1.433 . S
C1402 H1398 0.929 . S
C1402 C1404 1.378 . S
C1402 C1406 1.350 . S
C1403 C1406 1.463 . S
C1403 C1408 1.350 . S
C1403 N1411 1.427 . S
C1404 H1395 0.930 . S
C1404 C1402 1.378 . S
C1404 C1405 1.367 . S
C1405 C1404 1.367 . S
C1405 C1407 1.433 . S
C1406 C1402 1.350 . S
C1406 C1403 1.463 . S
C1406 N1410 1.427 . S
C1407 H1397 0.929 . S
C1407 C1405 1.433 . S
C1407 N1410 1.384 . S
C1408 H1399 0.929 . S
C1408 C1400 1.378 . S
C1408 C1403 1.350 . S
C1409 H1396 0.929 . S
C1409 C1401 1.433 . S
C1409 N1411 1.384 . S
N1410 C1406 1.427 . S
N1410 C1407 1.384 . S
N1411 C1403 1.427 . S
N1411 C1409 1.384 . S
H1412 C1418 0.930 . S
H1413 C1422 0.930 . S
H1414 C1427 0.929 . S
H1415 C1425 0.929 . S
H1416 C1420 0.929 . S
H1417 C1426 0.929 . S
C1418 H1412 0.930 . S
C1418 C1419 1.367 . S
C1418 C1426 1.378 . S
C1419 C1418 1.367 . S
C1419 C1427 1.433 . S
C1420 H1416 0.929 . S
C1420 C1422 1.378 . S
C1420 C1424 1.350 . S
C1421 C1424 1.463 . S
C1421 C1426 1.350 . S
C1421 N1429 1.427 . S
C1422 H1413 0.930 . S
C1422 C1420 1.378 . S
C1422 C1423 1.367 . S
C1423 C1422 1.367 . S
C1423 C1425 1.433 . S
C1424 C1420 1.350 . S
C1424 C1421 1.463 . S
C1424 N1428 1.427 . S
C1425 H1415 0.929 . S
C1425 C1423 1.433 . S
C1425 N1428 1.384 . S
C1426 H1417 0.929 . S
C1426 C1418 1.378 . S
C1426 C1421 1.350 . S
C1427 H1414 0.929 . S
C1427 C1419 1.433 . S
C1427 N1429 1.384 . S
N1428 C1424 1.427 . S
N1428 C1425 1.384 . S
N1429 C1421 1.427 . S
N1429 C1427 1.384 . S
H1430 C1436 0.930 . S
H1431 C1440 0.930 . S
H1432 C1445 0.929 . S
H1433 C1443 0.929 . S
H1434 C1438 0.929 . S
H1435 C1444 0.929 . S
C1436 H1430 0.930 . S
C1436 C1437 1.367 . S
C1436 C1444 1.378 . S
C1437 C1436 1.367 . S
C1437 C1445 1.433 . S
C1438 H1434 0.929 . S
C1438 C1440 1.378 . S
C1438 C1442 1.350 . S
C1439 C1442 1.463 . S
C1439 C1444 1.350 . S
C1439 N1447 1.427 . S
C1440 H1431 0.930 . S
C1440 C1438 1.378 . S
C1440 C1441 1.367 . S
C1441 C1440 1.367 . S
C1441 C1443 1.433 . S
C1442 C1438 1.350 . S
C1442 C1439 1.463 . S
C1442 N1446 1.427 . S
C1443 H1433 0.929 . S
C1443 C1441 1.433 . S
C1443 N1446 1.384 . S
C1444 H1435 0.929 . S
C1444 C1436 1.378 . S
C1444 C1439 1.350 . S
C1445 H1432 0.929 . S
C1445 C1437 1.433 . S
C1445 N1447 1.384 . S
N1446 C1442 1.427 . S
N1446 C1443 1.384 . S
N1447 C1439 1.427 . S
N1447 C1445 1.384 . S
H1448 C1454 0.930 . S
H1449 C1458 0.930 . S
H1450 C1463 0.929 . S
H1451 C1461 0.936 . S
H1452 C1456 0.929 . S
H1453 C1462 0.929 . S
C1454 H1448 0.930 . S
C1454 C1455 1.367 . S
C1454 C1462 1.378 . S
C1455 C1454 1.367 . S
C1455 C1463 1.433 . S
C1456 H1452 0.929 . S
C1456 C1458 1.378 1_655 S
C1456 C1460 1.350 . S
C1457 C1460 1.463 . S
C1457 C1462 1.350 . S
C1457 N1465 1.427 . S
C1458 H1449 0.930 . S
C1458 C1456 1.378 1_455 S
C1458 C1459 1.367 . S
C1459 C1458 1.367 . S
C1459 C1461 1.433 1_455 S
C1460 C1456 1.350 . S
C1460 C1457 1.463 . S
C1460 N1464 1.427 . S
C1461 H1451 0.936 . S
C1461 C1459 1.433 1_655 S
C1461 N1464 1.384 . S
C1462 H1453 0.929 . S
C1462 C1454 1.378 . S
C1462 C1457 1.350 . S
C1463 H1450 0.929 . S
C1463 C1455 1.433 . S
C1463 N1465 1.384 . S
N1464 C1460 1.427 . S
N1464 C1461 1.384 . S
N1465 C1457 1.427 . S
N1465 C1463 1.384 . S
H1466 C1472 0.930 . S
H1467 C1476 0.930 . S
H1468 C1481 0.929 . S
H1469 C1479 0.929 . S
H1470 C1474 0.929 . S
H1471 C1480 0.929 . S
C1472 H1466 0.930 . S
C1472 C1473 1.367 . S
C1472 C1480 1.378 . S
C1473 C1472 1.367 . S
C1473 C1481 1.433 . S
C1474 H1470 0.929 . S
C1474 C1476 1.378 . S
C1474 C1478 1.350 . S
C1475 C1478 1.463 . S
C1475 C1480 1.350 . S
C1475 N1483 1.427 . S
C1476 H1467 0.930 . S
C1476 C1474 1.378 . S
C1476 C1477 1.367 . S
C1477 C1476 1.367 . S
C1477 C1479 1.433 . S
C1478 C1474 1.350 . S
C1478 C1475 1.463 . S
C1478 N1482 1.427 . S
C1479 H1469 0.929 . S
C1479 C1477 1.433 . S
C1479 N1482 1.384 . S
C1480 H1471 0.929 . S
C1480 C1472 1.378 . S
C1480 C1475 1.350 . S
C1481 H1468 0.929 . S
C1481 C1473 1.433 . S
C1481 N1483 1.384 . S
N1482 C1478 1.427 . S
N1482 C1479 1.384 . S
N1483 C1475 1.427 . S
N1483 C1481 1.384 . S
H1484 C1490 0.930 . S
H1485 C1494 0.930 . S
H1486 C1499 0.929 . S
H1487 C1497 0.929 . S
H1488 C1492 0.929 . S
H1489 C1498 0.929 . S
C1490 H1484 0.930 . S
C1490 C1491 1.367 . S
C1490 C1498 1.378 . S
C1491 C1490 1.367 . S
C1491 C1499 1.433 . S
C1492 H1488 0.929 . S
C1492 C1494 1.378 . S
C1492 C1496 1.350 . S
C1493 C1496 1.463 . S
C1493 C1498 1.350 . S
C1493 N1501 1.427 . S
C1494 H1485 0.930 . S
C1494 C1492 1.378 . S
C1494 C1495 1.367 . S
C1495 C1494 1.367 . S
C1495 C1497 1.433 . S
C1496 C1492 1.350 . S
C1496 C1493 1.463 . S
C1496 N1500 1.427 . S
C1497 H1487 0.929 . S
C1497 C1495 1.433 . S
C1497 N1500 1.384 . S
C1498 H1489 0.929 . S
C1498 C1490 1.378 . S
C1498 C1493 1.350 . S
C1499 H1486 0.929 . S
C1499 C1491 1.433 . S
C1499 N1501 1.384 . S
N1500 C1496 1.427 . S
N1500 C1497 1.384 . S
N1501 C1493 1.427 . S
N1501 C1499 1.384 . S
H1502 C1508 0.930 . S
H1503 C1512 0.930 . S
H1504 C1517 0.929 . S
H1505 C1515 0.929 . S
H1506 C1510 0.929 . S
H1507 C1516 0.929 . S
C1508 H1502 0.930 . S
C1508 C1509 1.367 . S
C1508 C1516 1.378 . S
C1509 C1508 1.367 . S
C1509 C1517 1.433 . S
C1510 H1506 0.929 . S
C1510 C1512 1.378 . S
C1510 C1514 1.350 . S
C1511 C1514 1.463 . S
C1511 C1516 1.350 . S
C1511 N1519 1.427 . S
C1512 H1503 0.930 . S
C1512 C1510 1.378 . S
C1512 C1513 1.367 . S
C1513 C1512 1.367 . S
C1513 C1515 1.433 . S
C1514 C1510 1.350 . S
C1514 C1511 1.463 . S
C1514 N1518 1.427 . S
C1515 H1505 0.929 . S
C1515 C1513 1.433 . S
C1515 N1518 1.384 . S
C1516 H1507 0.929 . S
C1516 C1508 1.378 . S
C1516 C1511 1.350 . S
C1517 H1504 0.929 . S
C1517 C1509 1.433 . S
C1517 N1519 1.384 . S
N1518 C1514 1.427 . S
N1518 C1515 1.384 . S
N1519 C1511 1.427 . S
N1519 C1517 1.384 . S
H1520 C1526 0.930 . S
H1521 C1530 0.930 . S
H1522 C1535 0.929 . S
H1523 C1533 0.929 . S
H1524 C1528 0.929 . S
H1525 C1534 0.929 . S
C1526 H1520 0.930 . S
C1526 C1527 1.367 . S
C1526 C1534 1.378 1_655 S
C1527 C1526 1.367 . S
C1527 C1535 1.433 1_655 S
C1528 H1524 0.929 . S
C1528 C1530 1.378 . S
C1528 C1532 1.350 . S
C1529 C1532 1.463 . S
C1529 C1534 1.350 . S
C1529 N1537 1.427 . S
C1530 H1521 0.930 . S
C1530 C1528 1.378 . S
C1530 C1531 1.367 . S
C1531 C1530 1.367 . S
C1531 C1533 1.433 . S
C1532 C1528 1.350 . S
C1532 C1529 1.463 . S
C1532 N1536 1.427 . S
C1533 H1523 0.929 . S
C1533 C1531 1.433 . S
C1533 N1536 1.384 . S
C1534 H1525 0.929 . S
C1534 C1526 1.378 1_455 S
C1534 C1529 1.350 . S
C1535 H1522 0.929 . S
C1535 C1527 1.433 1_455 S
C1535 N1537 1.384 . S
N1536 C1532 1.427 . S
N1536 C1533 1.384 . S
N1537 C1529 1.427 . S
N1537 C1535 1.384 . S
H1538 C1544 0.930 . S
H1539 C1548 0.930 . S
H1540 C1553 0.929 . S
H1541 C1551 0.929 . S
H1542 C1546 0.929 . S
H1543 C1552 0.929 . S
C1544 H1538 0.930 . S
C1544 C1545 1.367 . S
C1544 C1552 1.378 . S
C1545 C1544 1.367 . S
C1545 C1553 1.433 . S
C1546 H1542 0.929 . S
C1546 C1548 1.378 . S
C1546 C1550 1.350 . S
C1547 C1550 1.463 . S
C1547 C1552 1.350 . S
C1547 N1555 1.427 . S
C1548 H1539 0.930 . S
C1548 C1546 1.378 . S
C1548 C1549 1.367 . S
C1549 C1548 1.367 . S
C1549 C1551 1.433 . S
C1550 C1546 1.350 . S
C1550 C1547 1.463 . S
C1550 N1554 1.427 . S
C1551 H1541 0.929 . S
C1551 C1549 1.433 . S
C1551 N1554 1.384 . S
C1552 H1543 0.929 . S
C1552 C1544 1.378 . S
C1552 C1547 1.350 . S
C1553 H1540 0.929 . S
C1553 C1545 1.433 . S
C1553 N1555 1.384 . S
N1554 C1550 1.427 . S
N1554 C1551 1.384 . S
N1555 C1547 1.427 . S
N1555 C1553 1.384 . S
H1556 C1562 0.930 . S
H1557 C1566 0.930 . S
H1558 C1571 0.929 . S
H1559 C1569 0.929 . S
H1560 C1564 0.929 . S
H1561 C1570 0.929 . S
C1562 H1556 0.930 . S
C1562 C1563 1.367 . S
C1562 C1570 1.378 . S
C1563 C1562 1.367 . S
C1563 C1571 1.433 . S
C1564 H1560 0.929 . S
C1564 C1566 1.378 . S
C1564 C1568 1.350 . S
C1565 C1568 1.463 . S
C1565 C1570 1.350 . S
C1565 N1573 1.427 . S
C1566 H1557 0.930 . S
C1566 C1564 1.378 . S
C1566 C1567 1.367 . S
C1567 C1566 1.367 . S
C1567 C1569 1.433 . S
C1568 C1564 1.350 . S
C1568 C1565 1.463 . S
C1568 N1572 1.427 . S
C1569 H1559 0.929 . S
C1569 C1567 1.433 . S
C1569 N1572 1.384 . S
C1570 H1561 0.929 . S
C1570 C1562 1.378 . S
C1570 C1565 1.350 . S
C1571 H1558 0.929 . S
C1571 C1563 1.433 . S
C1571 N1573 1.384 . S
N1572 C1568 1.427 . S
N1572 C1569 1.384 . S
N1573 C1565 1.427 . S
N1573 C1571 1.384 . S
H1574 C1580 0.930 . S
H1575 C1584 0.930 . S
H1576 C1589 0.929 . S
H1577 C1587 0.929 . S
H1578 C1582 0.929 . S
H1579 C1588 0.929 . S
C1580 H1574 0.930 . S
C1580 C1581 1.367 . S
C1580 C1588 1.378 . S
C1581 C1580 1.367 . S
C1581 C1589 1.433 . S
C1582 H1578 0.929 . S
C1582 C1584 1.378 . S
C1582 C1586 1.350 . S
C1583 C1586 1.463 . S
C1583 C1588 1.350 . S
C1583 N1591 1.427 . S
C1584 H1575 0.930 . S
C1584 C1582 1.378 . S
C1584 C1585 1.367 . S
C1585 C1584 1.367 . S
C1585 C1587 1.433 . S
C1586 C1582 1.350 . S
C1586 C1583 1.463 . S
C1586 N1590 1.427 . S
C1587 H1577 0.929 . S
C1587 C1585 1.433 . S
C1587 N1590 1.384 . S
C1588 H1579 0.929 . S
C1588 C1580 1.378 . S
C1588 C1583 1.350 . S
C1589 H1576 0.929 . S
C1589 C1581 1.433 . S
C1589 N1591 1.384 . S
N1590 C1586 1.427 . S
N1590 C1587 1.384 . S
N1591 C1583 1.427 . S
N1591 C1589 1.384 . S
H1592 C1598 0.930 . S
H1593 C1602 0.930 . S
H1594 C1607 0.929 . S
H1595 C1605 0.929 . S
H1596 C1600 0.929 . S
H1597 C1606 0.929 . S
C1598 H1592 0.930 . S
C1598 C1599 1.367 . S
C1598 C1606 1.378 . S
C1599 C1598 1.367 . S
C1599 C1607 1.433 . S
C1600 H1596 0.929 . S
C1600 C1602 1.378 . S
C1600 C1604 1.350 . S
C1601 C1604 1.463 . S
C1601 C1606 1.350 . S
C1601 N1609 1.427 . S
C1602 H1593 0.930 . S
C1602 C1600 1.378 . S
C1602 C1603 1.367 1_455 S
C1603 C1602 1.367 1_655 S
C1603 C1605 1.433 . S
C1604 C1600 1.350 . S
C1604 C1601 1.463 . S
C1604 N1608 1.427 . S
C1605 H1595 0.929 . S
C1605 C1603 1.433 . S
C1605 N1608 1.384 1_655 S
C1606 H1597 0.929 . S
C1606 C1598 1.378 . S
C1606 C1601 1.350 . S
C1607 H1594 0.929 . S
C1607 C1599 1.433 . S
C1607 N1609 1.384 . S
N1608 C1604 1.427 . S
N1608 C1605 1.384 1_455 S
N1609 C1601 1.427 . S
N1609 C1607 1.384 . S
H1610 C1616 0.930 . S
H1611 C1620 0.930 . S
H1612 C1625 0.929 . S
H1613 C1623 0.929 . S
H1614 C1618 0.929 . S
H1615 C1624 0.929 . S
C1616 H1610 0.930 . S
C1616 C1617 1.367 . S
C1616 C1624 1.378 . S
C1617 C1616 1.367 . S
C1617 C1625 1.433 . S
C1618 H1614 0.929 . S
C1618 C1620 1.378 . S
C1618 C1622 1.350 . S
C1619 C1622 1.463 . S
C1619 C1624 1.350 . S
C1619 N1627 1.427 . S
C1620 H1611 0.930 . S
C1620 C1618 1.378 . S
C1620 C1621 1.367 . S
C1621 C1620 1.367 . S
C1621 C1623 1.433 . S
C1622 C1618 1.350 . S
C1622 C1619 1.463 . S
C1622 N1626 1.427 . S
C1623 H1613 0.929 . S
C1623 C1621 1.433 . S
C1623 N1626 1.384 . S
C1624 H1615 0.929 . S
C1624 C1616 1.378 . S
C1624 C1619 1.350 . S
C1625 H1612 0.929 . S
C1625 C1617 1.433 . S
C1625 N1627 1.384 . S
N1626 C1622 1.427 . S
N1626 C1623 1.384 . S
N1627 C1619 1.427 . S
N1627 C1625 1.384 . S
H1628 C1634 0.930 . S
H1629 C1638 0.930 . S
H1630 C1643 0.929 . S
H1631 C1641 0.929 . S
H1632 C1636 0.929 . S
H1633 C1642 0.929 . S
C1634 H1628 0.930 . S
C1634 C1635 1.367 . S
C1634 C1642 1.378 . S
C1635 C1634 1.367 . S
C1635 C1643 1.433 . S
C1636 H1632 0.929 . S
C1636 C1638 1.378 . S
C1636 C1640 1.350 . S
C1637 C1640 1.463 . S
C1637 C1642 1.350 . S
C1637 N1645 1.427 . S
C1638 H1629 0.930 . S
C1638 C1636 1.378 . S
C1638 C1639 1.367 . S
C1639 C1638 1.367 . S
C1639 C1641 1.433 . S
C1640 C1636 1.350 . S
C1640 C1637 1.463 . S
C1640 N1644 1.427 . S
C1641 H1631 0.929 . S
C1641 C1639 1.433 . S
C1641 N1644 1.384 . S
C1642 H1633 0.929 . S
C1642 C1634 1.378 . S
C1642 C1637 1.350 . S
C1643 H1630 0.929 . S
C1643 C1635 1.433 . S
C1643 N1645 1.384 . S
N1644 C1640 1.427 . S
N1644 C1641 1.384 . S
N1645 C1637 1.427 . S
N1645 C1643 1.384 . S
H1646 C1652 0.930 . S
H1647 C1656 0.930 . S
H1648 C1661 0.929 . S
H1649 C1659 0.929 . S
H1650 C1654 0.929 . S
H1651 C1660 0.929 . S
C1652 H1646 0.930 . S
C1652 C1653 1.367 . S
C1652 C1660 1.378 . S
C1653 C1652 1.367 . S
C1653 C1661 1.433 . S
C1654 H1650 0.929 . S
C1654 C1656 1.378 . S
C1654 C1658 1.350 . S
C1655 C1658 1.463 . S
C1655 C1660 1.350 . S
C1655 N1663 1.427 . S
C1656 H1647 0.930 . S
C1656 C1654 1.378 . S
C1656 C1657 1.367 . S
C1657 C1656 1.367 . S
C1657 C1659 1.433 . S
C1658 C1654 1.350 . S
C1658 C1655 1.463 . S
C1658 N1662 1.427 . S
C1659 H1649 0.929 . S
C1659 C1657 1.433 . S
C1659 N1662 1.384 . S
C1660 H1651 0.929 . S
C1660 C1652 1.378 . S
C1660 C1655 1.350 . S
C1661 H1648 0.929 . S
C1661 C1653 1.433 . S
C1661 N1663 1.384 . S
N1662 C1658 1.427 . S
N1662 C1659 1.384 . S
N1663 C1655 1.427 . S
N1663 C1661 1.384 . S
H1664 C1670 0.930 . S
H1665 C1674 0.930 . S
H1666 C1679 0.929 . S
H1667 C1677 0.929 . S
H1668 C1672 0.929 . S
H1669 C1678 0.929 . S
C1670 H1664 0.930 . S
C1670 C1671 1.367 . S
C1670 C1678 1.378 . S
C1671 C1670 1.367 . S
C1671 C1679 1.433 . S
C1672 H1668 0.929 . S
C1672 C1674 1.378 . S
C1672 C1676 1.350 . S
C1673 C1676 1.463 1_556 S
C1673 C1678 1.350 . S
C1673 N1681 1.427 . S
C1674 H1665 0.930 . S
C1674 C1672 1.378 . S
C1674 C1675 1.367 . S
C1675 C1674 1.367 . S
C1675 C1677 1.433 . S
C1676 C1672 1.350 . S
C1676 C1673 1.463 1_554 S
C1676 N1680 1.427 . S
C1677 H1667 0.929 . S
C1677 C1675 1.433 . S
C1677 N1680 1.384 . S
C1678 H1669 0.929 . S
C1678 C1670 1.378 . S
C1678 C1673 1.350 . S
C1679 H1666 0.929 . S
C1679 C1671 1.433 . S
C1679 N1681 1.384 . S
N1680 C1676 1.427 . S
N1680 C1677 1.384 . S
N1681 C1673 1.427 . S
N1681 C1679 1.384 . S
H1682 C1688 0.930 . S
H1683 C1692 0.930 . S
H1684 C1697 0.929 . S
H1685 C1695 0.929 . S
H1686 C1690 0.929 . S
H1687 C1696 0.929 . S
C1688 H1682 0.930 . S
C1688 C1689 1.367 1_545 S
C1688 C1696 1.378 . S
C1689 C1688 1.367 1_565 S
C1689 C1697 1.433 . S
C1690 H1686 0.929 . S
C1690 C1692 1.378 . S
C1690 C1694 1.348 1_565 S
C1691 C1694 1.462 1_565 S
C1691 C1696 1.348 1_565 S
C1691 N1699 1.429 . S
C1692 H1683 0.930 . S
C1692 C1690 1.378 . S
C1692 C1693 1.367 1_565 S
C1693 C1692 1.367 1_545 S
C1693 C1695 1.433 . S
C1694 C1690 1.348 1_545 S
C1694 C1691 1.462 1_545 S
C1694 N1698 1.429 . S
C1695 H1685 0.929 . S
C1695 C1693 1.433 . S
C1695 N1698 1.384 . S
C1696 H1687 0.929 . S
C1696 C1688 1.378 . S
C1696 C1691 1.348 1_545 S
C1697 H1684 0.929 . S
C1697 C1689 1.433 . S
C1697 N1699 1.384 . S
N1698 C1694 1.429 . S
N1698 C1695 1.384 . S
N1699 C1691 1.429 . S
N1699 C1697 1.384 . S
H1700 C1706 0.930 . S
H1701 C1710 0.930 . S
H1702 C1715 0.929 . S
H1703 C1713 0.929 . S
H1704 C1708 0.929 . S
H1705 C1714 0.929 . S
C1706 H1700 0.930 . S
C1706 C1707 1.367 . S
C1706 C1714 1.378 . S
C1707 C1706 1.367 . S
C1707 C1715 1.433 . S
C1708 H1704 0.929 . S
C1708 C1710 1.378 . S
C1708 C1712 1.350 . S
C1709 C1712 1.463 . S
C1709 C1714 1.350 . S
C1709 N1717 1.427 . S
C1710 H1701 0.930 . S
C1710 C1708 1.378 . S
C1710 C1711 1.367 . S
C1711 C1710 1.367 . S
C1711 C1713 1.433 . S
C1712 C1708 1.350 . S
C1712 C1709 1.463 . S
C1712 N1716 1.427 . S
C1713 H1703 0.929 . S
C1713 C1711 1.433 . S
C1713 N1716 1.384 . S
C1714 H1705 0.929 . S
C1714 C1706 1.378 . S
C1714 C1709 1.350 . S
C1715 H1702 0.929 . S
C1715 C1707 1.433 . S
C1715 N1717 1.384 . S
N1716 C1712 1.427 . S
N1716 C1713 1.384 . S
N1717 C1709 1.427 . S
N1717 C1715 1.384 . S
H1718 C1724 0.930 . S
H1719 C1728 0.930 . S
H1720 C1733 0.929 . S
H1721 C1731 0.929 . S
H1722 C1726 0.929 . S
H1723 C1732 0.929 . S
C1724 H1718 0.930 . S
C1724 C1725 1.367 1_565 S
C1724 C1732 1.378 . S
C1725 C1724 1.367 1_545 S
C1725 C1733 1.433 . S
C1726 H1722 0.929 . S
C1726 C1728 1.378 . S
C1726 C1730 1.349 1_545 S
C1727 C1730 1.462 1_545 S
C1727 C1732 1.349 1_545 S
C1727 N1735 1.428 . S
C1728 H1719 0.930 . S
C1728 C1726 1.378 . S
C1728 C1729 1.367 1_545 S
C1729 C1728 1.367 1_565 S
C1729 C1731 1.433 . S
C1730 C1726 1.349 1_565 S
C1730 C1727 1.462 1_565 S
C1730 N1734 1.428 . S
C1731 H1721 0.929 . S
C1731 C1729 1.433 . S
C1731 N1734 1.384 . S
C1732 H1723 0.929 . S
C1732 C1724 1.378 . S
C1732 C1727 1.349 1_565 S
C1733 H1720 0.929 . S
C1733 C1725 1.433 . S
C1733 N1735 1.384 . S
N1734 C1730 1.428 . S
N1734 C1731 1.384 . S
N1735 C1727 1.428 . S
N1735 C1733 1.384 . S
H1736 C1742 0.930 . S
H1737 C1746 0.930 . S
H1738 C1751 0.929 . S
H1739 C1749 0.929 . S
H1740 C1744 0.929 . S
H1741 C1750 0.929 . S
C1742 H1736 0.930 . S
C1742 C1743 1.367 . S
C1742 C1750 1.378 . S
C1743 C1742 1.367 . S
C1743 C1751 1.433 . S
C1744 H1740 0.929 . S
C1744 C1746 1.378 . S
C1744 C1748 1.350 . S
C1745 C1748 1.463 1_554 S
C1745 C1750 1.350 . S
C1745 N1753 1.427 . S
C1746 H1737 0.930 . S
C1746 C1744 1.378 . S
C1746 C1747 1.367 . S
C1747 C1746 1.367 . S
C1747 C1749 1.433 . S
C1748 C1744 1.350 . S
C1748 C1745 1.463 1_556 S
C1748 N1752 1.427 . S
C1749 H1739 0.929 . S
C1749 C1747 1.433 . S
C1749 N1752 1.384 . S
C1750 H1741 0.929 . S
C1750 C1742 1.378 . S
C1750 C1745 1.350 . S
C1751 H1738 0.929 . S
C1751 C1743 1.433 . S
C1751 N1753 1.384 . S
N1752 C1748 1.427 . S
N1752 C1749 1.384 . S
N1753 C1745 1.427 . S
N1753 C1751 1.384 . S
H1754 C1760 0.930 . S
H1755 C1764 0.930 . S
H1756 C1769 0.929 . S
H1757 C1767 0.929 . S
H1758 C1762 0.929 . S
H1759 C1768 0.929 . S
C1760 H1754 0.930 . S
C1760 C1761 1.367 . S
C1760 C1768 1.378 . S
C1761 C1760 1.367 . S
C1761 C1769 1.433 1_545 S
C1762 H1758 0.929 . S
C1762 C1764 1.378 . S
C1762 C1766 1.350 . S
C1763 C1766 1.463 1_545 S
C1763 C1768 1.350 . S
C1763 N1771 1.427 1_545 S
C1764 H1755 0.930 . S
C1764 C1762 1.378 . S
C1764 C1765 1.367 . S
C1765 C1764 1.367 . S
C1765 C1767 1.433 1_565 S
C1766 C1762 1.350 . S
C1766 C1763 1.463 1_565 S
C1766 N1770 1.427 1_565 S
C1767 H1757 0.929 . S
C1767 C1765 1.433 1_545 S
C1767 N1770 1.384 . S
C1768 H1759 0.929 . S
C1768 C1760 1.378 . S
C1768 C1763 1.350 . S
C1769 H1756 0.929 . S
C1769 C1761 1.433 1_565 S
C1769 N1771 1.384 . S
N1770 C1766 1.427 1_545 S
N1770 C1767 1.384 . S
N1771 C1763 1.427 1_565 S
N1771 C1769 1.384 . S
H1772 C1778 0.930 . S
H1773 C1782 0.930 . S
H1774 C1787 0.929 . S
H1775 C1785 0.929 . S
H1776 C1780 0.929 . S
H1777 C1786 0.929 . S
C1778 H1772 0.930 . S
C1778 C1779 1.367 . S
C1778 C1786 1.378 . S
C1779 C1778 1.367 . S
C1779 C1787 1.433 . S
C1780 H1776 0.929 . S
C1780 C1782 1.378 . S
C1780 C1784 1.350 . S
C1781 C1784 1.463 . S
C1781 C1786 1.350 . S
C1781 N1789 1.427 . S
C1782 H1773 0.930 . S
C1782 C1780 1.378 . S
C1782 C1783 1.367 . S
C1783 C1782 1.367 . S
C1783 C1785 1.433 . S
C1784 C1780 1.350 . S
C1784 C1781 1.463 . S
C1784 N1788 1.427 . S
C1785 H1775 0.929 . S
C1785 C1783 1.433 . S
C1785 N1788 1.384 . S
C1786 H1777 0.929 . S
C1786 C1778 1.378 . S
C1786 C1781 1.350 . S
C1787 H1774 0.929 . S
C1787 C1779 1.433 . S
C1787 N1789 1.384 . S
N1788 C1784 1.427 . S
N1788 C1785 1.384 . S
N1789 C1781 1.427 . S
N1789 C1787 1.384 . S
H1790 C1796 0.930 . S
H1791 C1800 0.930 . S
H1792 C1805 0.929 . S
H1793 C1803 0.929 . S
H1794 C1798 0.929 . S
H1795 C1804 0.929 . S
C1796 H1790 0.930 . S
C1796 C1797 1.367 . S
C1796 C1804 1.378 . S
C1797 C1796 1.367 . S
C1797 C1805 1.433 1_545 S
C1798 H1794 0.929 . S
C1798 C1800 1.378 . S
C1798 C1802 1.350 . S
C1799 C1802 1.463 1_545 S
C1799 C1804 1.350 . S
C1799 N1807 1.427 1_545 S
C1800 H1791 0.930 . S
C1800 C1798 1.378 . S
C1800 C1801 1.367 . S
C1801 C1800 1.367 . S
C1801 C1803 1.433 1_565 S
C1802 C1798 1.350 . S
C1802 C1799 1.463 1_565 S
C1802 N1806 1.427 1_565 S
C1803 H1793 0.929 . S
C1803 C1801 1.433 1_545 S
C1803 N1806 1.384 . S
C1804 H1795 0.929 . S
C1804 C1796 1.378 . S
C1804 C1799 1.350 . S
C1805 H1792 0.929 . S
C1805 C1797 1.433 1_565 S
C1805 N1807 1.384 . S
N1806 C1802 1.427 1_545 S
N1806 C1803 1.384 . S
N1807 C1799 1.427 1_565 S
N1807 C1805 1.384 . S
H1808 C1814 0.930 . S
H1809 C1818 0.930 . S
H1810 C1823 0.929 . S
H1811 C1821 0.929 . S
H1812 C1816 0.929 . S
H1813 C1822 0.929 . S
C1814 H1808 0.930 . S
C1814 C1815 1.367 . S
C1814 C1822 1.378 . S
C1815 C1814 1.367 . S
C1815 C1823 1.433 . S
C1816 H1812 0.929 . S
C1816 C1818 1.378 . S
C1816 C1820 1.350 . S
C1817 C1820 1.463 . S
C1817 C1822 1.350 . S
C1817 N1825 1.427 . S
C1818 H1809 0.930 . S
C1818 C1816 1.378 . S
C1818 C1819 1.367 . S
C1819 C1818 1.367 . S
C1819 C1821 1.433 . S
C1820 C1816 1.350 . S
C1820 C1817 1.463 . S
C1820 N1824 1.427 . S
C1821 H1811 0.929 . S
C1821 C1819 1.433 . S
C1821 N1824 1.384 . S
C1822 H1813 0.929 . S
C1822 C1814 1.378 . S
C1822 C1817 1.350 . S
C1823 H1810 0.929 . S
C1823 C1815 1.433 . S
C1823 N1825 1.384 . S
N1824 C1820 1.427 . S
N1824 C1821 1.384 . S
N1825 C1817 1.427 . S
N1825 C1823 1.384 . S
H1826 C1832 0.930 . S
H1827 C1836 0.930 . S
H1828 C1841 0.929 . S
H1829 C1839 0.929 . S
H1830 C1834 0.929 . S
H1831 C1840 0.929 . S
C1832 H1826 0.930 . S
C1832 C1833 1.367 . S
C1832 C1840 1.378 . S
C1833 C1832 1.367 . S
C1833 C1841 1.433 . S
C1834 H1830 0.929 . S
C1834 C1836 1.378 . S
C1834 C1838 1.350 . S
C1835 C1838 1.463 . S
C1835 C1840 1.350 . S
C1835 N1843 1.427 . S
C1836 H1827 0.930 . S
C1836 C1834 1.378 . S
C1836 C1837 1.367 . S
C1837 C1836 1.367 . S
C1837 C1839 1.433 . S
C1838 C1834 1.350 . S
C1838 C1835 1.463 . S
C1838 N1842 1.427 . S
C1839 H1829 0.929 . S
C1839 C1837 1.433 . S
C1839 N1842 1.384 . S
C1840 H1831 0.929 . S
C1840 C1832 1.378 . S
C1840 C1835 1.350 . S
C1841 H1828 0.929 . S
C1841 C1833 1.433 . S
C1841 N1843 1.384 . S
N1842 C1838 1.427 . S
N1842 C1839 1.384 . S
N1843 C1835 1.427 . S
N1843 C1841 1.384 . S
H1844 C1850 0.930 . S
H1845 C1854 0.930 . S
H1846 C1859 0.929 . S
H1847 C1857 0.929 . S
H1848 C1852 0.929 . S
H1849 C1858 0.929 . S
C1850 H1844 0.930 . S
C1850 C1851 1.367 . S
C1850 C1858 1.378 . S
C1851 C1850 1.367 . S
C1851 C1859 1.433 . S
C1852 H1848 0.929 . S
C1852 C1854 1.378 . S
C1852 C1856 1.350 . S
C1853 C1856 1.463 1_554 S
C1853 C1858 1.350 . S
C1853 N1861 1.427 . S
C1854 H1845 0.930 . S
C1854 C1852 1.378 . S
C1854 C1855 1.367 . S
C1855 C1854 1.367 . S
C1855 C1857 1.433 . S
C1856 C1852 1.350 . S
C1856 C1853 1.463 1_556 S
C1856 N1860 1.427 . S
C1857 H1847 0.929 . S
C1857 C1855 1.433 . S
C1857 N1860 1.384 . S
C1858 H1849 0.929 . S
C1858 C1850 1.378 . S
C1858 C1853 1.350 . S
C1859 H1846 0.929 . S
C1859 C1851 1.433 . S
C1859 N1861 1.384 . S
N1860 C1856 1.427 . S
N1860 C1857 1.384 . S
N1861 C1853 1.427 . S
N1861 C1859 1.384 . S
H1862 C1868 0.930 . S
H1863 C1872 0.930 . S
H1864 C1877 0.929 . S
H1865 C1875 0.929 . S
H1866 C1870 0.929 . S
H1867 C1876 0.929 . S
C1868 H1862 0.930 . S
C1868 C1869 1.367 . S
C1868 C1876 1.378 . S
C1869 C1868 1.367 . S
C1869 C1877 1.433 . S
C1870 H1866 0.929 . S
C1870 C1872 1.378 . S
C1870 C1874 1.350 . S
C1871 C1874 1.463 . S
C1871 C1876 1.350 . S
C1871 N1879 1.427 . S
C1872 H1863 0.930 . S
C1872 C1870 1.378 . S
C1872 C1873 1.367 . S
C1873 C1872 1.367 . S
C1873 C1875 1.433 . S
C1874 C1870 1.350 . S
C1874 C1871 1.463 . S
C1874 N1878 1.427 . S
C1875 H1865 0.929 . S
C1875 C1873 1.433 . S
C1875 N1878 1.384 . S
C1876 H1867 0.929 . S
C1876 C1868 1.378 . S
C1876 C1871 1.350 . S
C1877 H1864 0.929 . S
C1877 C1869 1.433 . S
C1877 N1879 1.384 . S
N1878 C1874 1.427 . S
N1878 C1875 1.384 . S
N1879 C1871 1.427 . S
N1879 C1877 1.384 . S
H1880 C1886 0.930 . S
H1881 C1890 0.930 . S
H1882 C1895 0.929 . S
H1883 C1893 0.929 . S
H1884 C1888 0.929 . S
H1885 C1894 0.929 . S
C1886 H1880 0.930 . S
C1886 C1887 1.367 . S
C1886 C1894 1.378 . S
C1887 C1886 1.367 . S
C1887 C1895 1.433 . S
C1888 H1884 0.929 . S
C1888 C1890 1.378 . S
C1888 C1892 1.350 . S
C1889 C1892 1.463 . S
C1889 C1894 1.350 . S
C1889 N1897 1.427 . S
C1890 H1881 0.930 . S
C1890 C1888 1.378 . S
C1890 C1891 1.367 . S
C1891 C1890 1.367 . S
C1891 C1893 1.433 . S
C1892 C1888 1.350 . S
C1892 C1889 1.463 . S
C1892 N1896 1.427 . S
C1893 H1883 0.929 . S
C1893 C1891 1.433 . S
C1893 N1896 1.384 . S
C1894 H1885 0.929 . S
C1894 C1886 1.378 . S
C1894 C1889 1.350 . S
C1895 H1882 0.929 . S
C1895 C1887 1.433 . S
C1895 N1897 1.384 . S
N1896 C1892 1.427 . S
N1896 C1893 1.384 . S
N1897 C1889 1.427 . S
N1897 C1895 1.384 . S
H1898 C1904 0.930 . S
H1899 C1908 0.930 . S
H1900 C1913 0.929 . S
H1901 C1911 0.929 . S
H1902 C1906 0.929 . S
H1903 C1912 0.929 . S
C1904 H1898 0.930 . S
C1904 C1905 1.367 . S
C1904 C1912 1.378 . S
C1905 C1904 1.367 . S
C1905 C1913 1.433 . S
C1906 H1902 0.929 . S
C1906 C1908 1.378 . S
C1906 C1910 1.350 . S
C1907 C1910 1.463 . S
C1907 C1912 1.350 . S
C1907 N1915 1.427 . S
C1908 H1899 0.930 . S
C1908 C1906 1.378 . S
C1908 C1909 1.367 . S
C1909 C1908 1.367 . S
C1909 C1911 1.433 . S
C1910 C1906 1.350 . S
C1910 C1907 1.463 . S
C1910 N1914 1.427 . S
C1911 H1901 0.929 . S
C1911 C1909 1.433 . S
C1911 N1914 1.384 . S
C1912 H1903 0.929 . S
C1912 C1904 1.378 . S
C1912 C1907 1.350 . S
C1913 H1900 0.929 . S
C1913 C1905 1.433 . S
C1913 N1915 1.384 . S
N1914 C1910 1.427 . S
N1914 C1911 1.384 . S
N1915 C1907 1.427 . S
N1915 C1913 1.384 . S
H1916 C1922 0.930 . S
H1917 C1926 0.930 . S
H1918 C1931 0.929 . S
H1919 C1929 0.929 . S
H1920 C1924 0.929 . S
H1921 C1930 0.929 . S
C1922 H1916 0.930 . S
C1922 C1923 1.367 . S
C1922 C1930 1.378 . S
C1923 C1922 1.367 . S
C1923 C1931 1.433 . S
C1924 H1920 0.929 . S
C1924 C1926 1.378 . S
C1924 C1928 1.350 . S
C1925 C1928 1.463 1_556 S
C1925 C1930 1.350 . S
C1925 N1933 1.427 . S
C1926 H1917 0.930 . S
C1926 C1924 1.378 . S
C1926 C1927 1.367 . S
C1927 C1926 1.367 . S
C1927 C1929 1.433 . S
C1928 C1924 1.350 . S
C1928 C1925 1.463 1_554 S
C1928 N1932 1.427 . S
C1929 H1919 0.929 . S
C1929 C1927 1.433 . S
C1929 N1932 1.384 . S
C1930 H1921 0.929 . S
C1930 C1922 1.378 . S
C1930 C1925 1.350 . S
C1931 H1918 0.929 . S
C1931 C1923 1.433 . S
C1931 N1933 1.384 . S
N1932 C1928 1.427 . S
N1932 C1929 1.384 . S
N1933 C1925 1.427 . S
N1933 C1931 1.384 . S
H1934 C1940 0.930 . S
H1935 C1944 0.930 . S
H1936 C1949 0.929 . S
H1937 C1947 0.929 . S
H1938 C1942 0.929 . S
H1939 C1948 0.929 . S
C1940 H1934 0.930 . S
C1940 C1941 1.367 . S
C1940 C1948 1.378 . S
C1941 C1940 1.367 . S
C1941 C1949 1.433 . S
C1942 H1938 0.929 . S
C1942 C1944 1.378 . S
C1942 C1946 1.350 . S
C1943 C1946 1.463 . S
C1943 C1948 1.350 . S
C1943 N1951 1.427 . S
C1944 H1935 0.930 . S
C1944 C1942 1.378 . S
C1944 C1945 1.367 . S
C1945 C1944 1.367 . S
C1945 C1947 1.433 . S
C1946 C1942 1.350 . S
C1946 C1943 1.463 . S
C1946 N1950 1.427 . S
C1947 H1937 0.929 . S
C1947 C1945 1.433 . S
C1947 N1950 1.384 . S
C1948 H1939 0.929 . S
C1948 C1940 1.378 . S
C1948 C1943 1.350 . S
C1949 H1936 0.929 . S
C1949 C1941 1.433 . S
C1949 N1951 1.384 . S
N1950 C1946 1.427 . S
N1950 C1947 1.384 . S
N1951 C1943 1.427 . S
N1951 C1949 1.384 . S
H1952 C1958 0.930 . S
H1953 C1962 0.930 . S
H1954 C1967 0.929 . S
H1955 C1965 0.929 . S
H1956 C1960 0.929 . S
H1957 C1966 0.929 . S
C1958 H1952 0.930 . S
C1958 C1959 1.367 . S
C1958 C1966 1.378 . S
C1959 C1958 1.367 . S
C1959 C1967 1.433 . S
C1960 H1956 0.929 . S
C1960 C1962 1.378 . S
C1960 C1964 1.350 . S
C1961 C1964 1.463 . S
C1961 C1966 1.350 . S
C1961 N1969 1.427 . S
C1962 H1953 0.930 . S
C1962 C1960 1.378 . S
C1962 C1963 1.367 . S
C1963 C1962 1.367 . S
C1963 C1965 1.433 . S
C1964 C1960 1.350 . S
C1964 C1961 1.463 . S
C1964 N1968 1.427 . S
C1965 H1955 0.929 . S
C1965 C1963 1.433 . S
C1965 N1968 1.384 . S
C1966 H1957 0.929 . S
C1966 C1958 1.378 . S
C1966 C1961 1.350 . S
C1967 H1954 0.929 . S
C1967 C1959 1.433 . S
C1967 N1969 1.384 . S
N1968 C1964 1.427 . S
N1968 C1965 1.384 . S
N1969 C1961 1.427 . S
N1969 C1967 1.384 . S
H1970 C1976 0.930 . S
H1971 C1980 0.930 . S
H1972 C1985 0.929 . S
H1973 C1983 0.929 . S
H1974 C1978 0.929 . S
H1975 C1984 0.929 . S
C1976 H1970 0.930 . S
C1976 C1977 1.367 . S
C1976 C1984 1.378 . S
C1977 C1976 1.367 . S
C1977 C1985 1.433 1_545 S
C1978 H1974 0.929 . S
C1978 C1980 1.378 . S
C1978 C1982 1.350 . S
C1979 C1982 1.461 1_545 S
C1979 C1984 1.355 . S
C1979 N1987 1.424 1_545 S
C1980 H1971 0.930 . S
C1980 C1978 1.378 . S
C1980 C1981 1.367 . S
C1981 C1980 1.367 . S
C1981 C1983 1.433 1_565 S
C1982 C1978 1.350 . S
C1982 C1979 1.461 1_565 S
C1982 N1986 1.427 1_565 S
C1983 H1973 0.929 . S
C1983 C1981 1.433 1_545 S
C1983 N1986 1.384 . S
C1984 H1975 0.929 . S
C1984 C1976 1.378 . S
C1984 C1979 1.355 . S
C1985 H1972 0.929 . S
C1985 C1977 1.433 1_565 S
C1985 N1987 1.384 . S
N1986 C1982 1.427 1_545 S
N1986 C1983 1.384 . S
N1987 C1979 1.424 1_565 S
N1987 C1985 1.384 . S
H1988 C1994 0.930 . S
H1989 C1998 0.930 . S
H1990 C2003 0.929 . S
H1991 C2001 0.929 . S
H1992 C1996 0.929 . S
H1993 C2002 0.929 . S
C1994 H1988 0.930 . S
C1994 C1995 1.367 . S
C1994 C2002 1.378 . S
C1995 C1994 1.367 . S
C1995 C2003 1.433 . S
C1996 H1992 0.929 . S
C1996 C1998 1.378 . S
C1996 C2000 1.350 . S
C1997 C2000 1.463 . S
C1997 C2002 1.350 . S
C1997 N2005 1.427 . S
C1998 H1989 0.930 . S
C1998 C1996 1.378 . S
C1998 C1999 1.367 . S
C1999 C1998 1.367 . S
C1999 C2001 1.433 . S
C2000 C1996 1.350 . S
C2000 C1997 1.463 . S
C2000 N2004 1.427 . S
C2001 H1991 0.929 . S
C2001 C1999 1.433 . S
C2001 N2004 1.384 . S
C2002 H1993 0.929 . S
C2002 C1994 1.378 . S
C2002 C1997 1.350 . S
C2003 H1990 0.929 . S
C2003 C1995 1.433 . S
C2003 N2005 1.384 . S
N2004 C2000 1.427 . S
N2004 C2001 1.384 . S
N2005 C1997 1.427 . S
N2005 C2003 1.384 . S
H2006 C2012 0.930 . S
H2007 C2016 0.930 . S
H2008 C2021 0.929 . S
H2009 C2019 0.929 1_655 S
H2010 C2014 0.929 . S
H2011 C2020 0.929 . S
C2012 H2006 0.930 . S
C2012 C2013 1.367 . S
C2012 C2020 1.378 . S
C2013 C2012 1.367 . S
C2013 C2021 1.433 . S
C2014 H2010 0.929 . S
C2014 C2016 1.378 . S
C2014 C2018 1.344 1_565 S
C2015 C2018 1.469 . S
C2015 C2020 1.350 . S
C2015 N2023 1.427 . S
C2016 H2007 0.930 . S
C2016 C2014 1.378 . S
C2016 C2017 1.367 1_455 S
C2017 C2016 1.367 1_655 S
C2017 C2019 1.433 1_655 S
C2018 C2014 1.344 1_545 S
C2018 C2015 1.469 . S
C2018 N2022 1.427 1_545 S
C2019 H2009 0.929 1_455 S
C2019 C2017 1.433 1_455 S
C2019 N2022 1.388 . S
C2020 H2011 0.929 . S
C2020 C2012 1.378 . S
C2020 C2015 1.350 . S
C2021 H2008 0.929 . S
C2021 C2013 1.433 . S
C2021 N2023 1.384 . S
N2022 C2018 1.427 1_565 S
N2022 C2019 1.388 . S
N2023 C2015 1.427 . S
N2023 C2021 1.384 . S
H2024 C2030 0.930 . S
H2025 C2034 0.930 . S
H2026 C2039 0.929 . S
H2027 C2037 0.929 . S
H2028 C2032 0.929 . S
H2029 C2038 0.929 . S
C2030 H2024 0.930 . S
C2030 C2031 1.367 . S
C2030 C2038 1.378 . S
C2031 C2030 1.367 . S
C2031 C2039 1.433 . S
C2032 H2028 0.929 . S
C2032 C2034 1.378 . S
C2032 C2036 1.350 . S
C2033 C2036 1.463 . S
C2033 C2038 1.350 . S
C2033 N2041 1.427 . S
C2034 H2025 0.930 . S
C2034 C2032 1.378 . S
C2034 C2035 1.367 . S
C2035 C2034 1.367 . S
C2035 C2037 1.433 . S
C2036 C2032 1.350 . S
C2036 C2033 1.463 . S
C2036 N2040 1.427 . S
C2037 H2027 0.929 . S
C2037 C2035 1.433 . S
C2037 N2040 1.384 . S
C2038 H2029 0.929 . S
C2038 C2030 1.378 . S
C2038 C2033 1.350 . S
C2039 H2026 0.929 . S
C2039 C2031 1.433 . S
C2039 N2041 1.384 . S
N2040 C2036 1.427 . S
N2040 C2037 1.384 . S
N2041 C2033 1.427 . S
N2041 C2039 1.384 . S
H2042 C2048 0.930 . S
H2043 C2052 0.930 . S
H2044 C2057 0.929 . S
H2045 C2055 0.915 1_655 S
H2046 C2050 0.929 . S
H2047 C2056 0.929 . S
C2048 H2042 0.930 . S
C2048 C2049 1.367 . S
C2048 C2056 1.378 . S
C2049 C2048 1.367 . S
C2049 C2057 1.433 . S
C2050 H2046 0.929 . S
C2050 C2052 1.378 . S
C2050 C2054 1.344 1_545 S
C2051 C2054 1.467 . S
C2051 C2056 1.350 . S
C2051 N2059 1.427 . S
C2052 H2043 0.930 . S
C2052 C2050 1.378 . S
C2052 C2053 1.367 1_455 S
C2053 C2052 1.367 1_655 S
C2053 C2055 1.427 1_655 S
C2054 C2050 1.344 1_565 S
C2054 C2051 1.467 . S
C2054 N2058 1.429 . S
C2055 H2045 0.915 1_455 S
C2055 C2053 1.427 1_455 S
C2055 N2058 1.405 1_545 S
C2056 H2047 0.929 . S
C2056 C2048 1.378 . S
C2056 C2051 1.350 . S
C2057 H2044 0.929 . S
C2057 C2049 1.433 . S
C2057 N2059 1.384 . S
N2058 C2054 1.429 . S
N2058 C2055 1.405 1_565 S
N2059 C2051 1.427 . S
N2059 C2057 1.384 . S
H2060 C2066 0.930 . S
H2061 C2070 0.930 . S
H2062 C2075 0.929 . S
H2063 C2073 0.929 . S
H2064 C2068 0.929 . S
H2065 C2074 0.929 . S
C2066 H2060 0.930 . S
C2066 C2067 1.367 . S
C2066 C2074 1.378 . S
C2067 C2066 1.367 . S
C2067 C2075 1.433 . S
C2068 H2064 0.929 . S
C2068 C2070 1.378 . S
C2068 C2072 1.350 . S
C2069 C2072 1.463 . S
C2069 C2074 1.350 . S
C2069 N2077 1.427 . S
C2070 H2061 0.930 . S
C2070 C2068 1.378 . S
C2070 C2071 1.367 . S
C2071 C2070 1.367 . S
C2071 C2073 1.433 . S
C2072 C2068 1.350 . S
C2072 C2069 1.463 . S
C2072 N2076 1.427 . S
C2073 H2063 0.929 . S
C2073 C2071 1.433 . S
C2073 N2076 1.384 . S
C2074 H2065 0.929 . S
C2074 C2066 1.378 . S
C2074 C2069 1.350 . S
C2075 H2062 0.929 . S
C2075 C2067 1.433 . S
C2075 N2077 1.384 . S
N2076 C2072 1.427 . S
N2076 C2073 1.384 . S
N2077 C2069 1.427 . S
N2077 C2075 1.384 . S
H2078 C2084 0.930 1_565 S
H2079 C2088 0.930 . S
H2080 C2093 0.929 . S
H2081 C2091 0.929 . S
H2082 C2086 0.929 . S
H2083 C2092 0.929 . S
C2084 H2078 0.930 1_545 S
C2084 C2085 1.367 . S
C2084 C2092 1.378 1_545 S
C2085 C2084 1.367 . S
C2085 C2093 1.433 . S
C2086 H2082 0.929 . S
C2086 C2088 1.378 . S
C2086 C2090 1.350 . S
C2087 C2090 1.463 . S
C2087 C2092 1.350 1_545 S
C2087 N2095 1.427 . S
C2088 H2079 0.930 . S
C2088 C2086 1.378 . S
C2088 C2089 1.367 1_545 S
C2089 C2088 1.367 1_565 S
C2089 C2091 1.433 . S
C2090 C2086 1.350 . S
C2090 C2087 1.463 . S
C2090 N2094 1.427 1_545 S
C2091 H2081 0.929 . S
C2091 C2089 1.433 . S
C2091 N2094 1.384 . S
C2092 H2083 0.929 . S
C2092 C2084 1.378 1_565 S
C2092 C2087 1.350 1_565 S
C2093 H2080 0.929 . S
C2093 C2085 1.433 . S
C2093 N2095 1.384 . S
N2094 C2090 1.427 1_565 S
N2094 C2091 1.384 . S
N2095 C2087 1.427 . S
N2095 C2093 1.384 . S
H2096 C2102 0.930 . S
H2097 C2106 0.930 . S
H2098 C2111 0.929 . S
H2099 C2109 0.929 . S
H2100 C2104 0.929 . S
H2101 C2110 0.929 . S
C2102 H2096 0.930 . S
C2102 C2103 1.367 . S
C2102 C2110 1.378 . S
C2103 C2102 1.367 . S
C2103 C2111 1.433 . S
C2104 H2100 0.929 . S
C2104 C2106 1.378 . S
C2104 C2108 1.350 . S
C2105 C2108 1.463 . S
C2105 C2110 1.350 . S
C2105 N2113 1.427 . S
C2106 H2097 0.930 . S
C2106 C2104 1.378 . S
C2106 C2107 1.367 . S
C2107 C2106 1.367 . S
C2107 C2109 1.433 . S
C2108 C2104 1.350 . S
C2108 C2105 1.463 . S
C2108 N2112 1.427 . S
C2109 H2099 0.929 . S
C2109 C2107 1.433 . S
C2109 N2112 1.384 . S
C2110 H2101 0.929 . S
C2110 C2102 1.378 . S
C2110 C2105 1.350 . S
C2111 H2098 0.929 . S
C2111 C2103 1.433 . S
C2111 N2113 1.384 . S
N2112 C2108 1.427 . S
N2112 C2109 1.384 . S
N2113 C2105 1.427 . S
N2113 C2111 1.384 . S
H2114 C2120 0.936 . S
H2115 C2124 0.930 . S
H2116 C2129 0.929 . S
H2117 C2127 0.929 . S
H2118 C2122 0.929 . S
H2119 C2128 0.929 . S
C2120 H2114 0.936 . S
C2120 C2121 1.367 . S
C2120 C2128 1.378 1_545 S
C2121 C2120 1.367 . S
C2121 C2129 1.433 . S
C2122 H2118 0.929 . S
C2122 C2124 1.378 . S
C2122 C2126 1.350 . S
C2123 C2126 1.463 . S
C2123 C2128 1.350 1_545 S
C2123 N2131 1.427 . S
C2124 H2115 0.930 . S
C2124 C2122 1.378 . S
C2124 C2125 1.367 1_545 S
C2125 C2124 1.367 1_565 S
C2125 C2127 1.433 . S
C2126 C2122 1.350 . S
C2126 C2123 1.463 . S
C2126 N2130 1.427 1_545 S
C2127 H2117 0.929 . S
C2127 C2125 1.433 . S
C2127 N2130 1.384 . S
C2128 H2119 0.929 . S
C2128 C2120 1.378 1_565 S
C2128 C2123 1.350 1_565 S
C2129 H2116 0.929 . S
C2129 C2121 1.433 . S
C2129 N2131 1.384 . S
N2130 C2126 1.427 1_565 S
N2130 C2127 1.384 . S
N2131 C2123 1.427 . S
N2131 C2129 1.384 . S
H2132 C2138 0.930 . S
H2133 C2142 0.930 . S
H2134 C2147 0.929 . S
H2135 C2145 0.929 . S
H2136 C2140 0.929 . S
H2137 C2146 0.929 . S
C2138 H2132 0.930 . S
C2138 C2139 1.367 . S
C2138 C2146 1.378 . S
C2139 C2138 1.367 . S
C2139 C2147 1.433 . S
C2140 H2136 0.929 . S
C2140 C2142 1.378 . S
C2140 C2144 1.350 . S
C2141 C2144 1.463 . S
C2141 C2146 1.350 . S
C2141 N2149 1.427 . S
C2142 H2133 0.930 . S
C2142 C2140 1.378 . S
C2142 C2143 1.367 . S
C2143 C2142 1.367 . S
C2143 C2145 1.433 . S
C2144 C2140 1.350 . S
C2144 C2141 1.463 . S
C2144 N2148 1.427 . S
C2145 H2135 0.929 . S
C2145 C2143 1.433 . S
C2145 N2148 1.384 . S
C2146 H2137 0.929 . S
C2146 C2138 1.378 . S
C2146 C2141 1.350 . S
C2147 H2134 0.929 . S
C2147 C2139 1.433 . S
C2147 N2149 1.384 . S
N2148 C2144 1.427 . S
N2148 C2145 1.384 . S
N2149 C2141 1.427 . S
N2149 C2147 1.384 . S
H2150 C2156 0.930 . S
H2151 C2160 0.930 1_455 S
H2152 C2165 0.929 . S
H2153 C2163 0.929 1_455 S
H2154 C2158 0.929 1_565 S
H2155 C2164 0.929 . S
C2156 H2150 0.930 . S
C2156 C2157 1.367 . S
C2156 C2164 1.378 . S
C2157 C2156 1.367 . S
C2157 C2165 1.433 . S
C2158 H2154 0.929 1_545 S
C2158 C2160 1.378 . S
C2158 C2162 1.350 1_545 S
C2159 C2162 1.463 . S
C2159 C2164 1.350 . S
C2159 N2167 1.427 . S
C2160 H2151 0.930 1_655 S
C2160 C2158 1.378 . S
C2160 C2161 1.367 1_655 S
C2161 C2160 1.367 1_455 S
C2161 C2163 1.433 1_455 S
C2162 C2158 1.350 1_565 S
C2162 C2159 1.463 . S
C2162 N2166 1.427 1_565 S
C2163 H2153 0.929 1_655 S
C2163 C2161 1.433 1_655 S
C2163 N2166 1.384 . S
C2164 H2155 0.929 . S
C2164 C2156 1.378 . S
C2164 C2159 1.350 . S
C2165 H2152 0.929 . S
C2165 C2157 1.433 . S
C2165 N2167 1.384 . S
N2166 C2162 1.427 1_545 S
N2166 C2163 1.384 . S
N2167 C2159 1.427 . S
N2167 C2165 1.384 . S
H2168 C2174 0.930 . S
H2169 C2178 0.930 . S
H2170 C2183 0.929 . S
H2171 C2181 0.929 . S
H2172 C2176 0.929 . S
H2173 C2182 0.929 . S
C2174 H2168 0.930 . S
C2174 C2175 1.367 . S
C2174 C2182 1.378 . S
C2175 C2174 1.367 . S
C2175 C2183 1.433 . S
C2176 H2172 0.929 . S
C2176 C2178 1.378 . S
C2176 C2180 1.350 . S
C2177 C2180 1.463 . S
C2177 C2182 1.350 . S
C2177 N2185 1.427 . S
C2178 H2169 0.930 . S
C2178 C2176 1.378 . S
C2178 C2179 1.367 . S
C2179 C2178 1.367 . S
C2179 C2181 1.433 . S
C2180 C2176 1.350 . S
C2180 C2177 1.463 . S
C2180 N2184 1.427 . S
C2181 H2171 0.929 . S
C2181 C2179 1.433 . S
C2181 N2184 1.384 . S
C2182 H2173 0.929 . S
C2182 C2174 1.378 . S
C2182 C2177 1.350 . S
C2183 H2170 0.929 . S
C2183 C2175 1.433 . S
C2183 N2185 1.384 . S
N2184 C2180 1.427 . S
N2184 C2181 1.384 . S
N2185 C2177 1.427 . S
N2185 C2183 1.384 . S
H2186 C2192 0.930 . S
H2187 C2196 0.930 1_455 S
H2188 C2201 0.929 . S
H2189 C2199 0.929 . S
H2190 C2194 0.929 . S
H2191 C2200 0.946 . S
C2192 H2186 0.930 . S
C2192 C2193 1.367 . S
C2192 C2200 1.370 1_545 S
C2193 C2192 1.367 . S
C2193 C2201 1.433 . S
C2194 H2190 0.929 . S
C2194 C2196 1.378 . S
C2194 C2198 1.350 . S
C2195 C2198 1.463 . S
C2195 C2200 1.341 1_545 S
C2195 N2203 1.427 . S
C2196 H2187 0.930 1_655 S
C2196 C2194 1.378 . S
C2196 C2197 1.367 1_645 S
C2197 C2196 1.367 1_465 S
C2197 C2199 1.433 1_455 S
C2198 C2194 1.350 . S
C2198 C2195 1.463 . S
C2198 N2202 1.427 1_545 S
C2199 H2189 0.929 . S
C2199 C2197 1.433 1_655 S
C2199 N2202 1.384 . S
C2200 H2191 0.946 . S
C2200 C2192 1.370 1_565 S
C2200 C2195 1.341 1_565 S
C2201 H2188 0.929 . S
C2201 C2193 1.433 . S
C2201 N2203 1.384 . S
N2202 C2198 1.427 1_565 S
N2202 C2199 1.384 . S
N2203 C2195 1.427 . S
N2203 C2201 1.384 . S
H2204 C2210 0.930 . S
H2205 C2214 0.930 . S
H2206 C2219 0.929 . S
H2207 C2217 0.929 . S
H2208 C2212 0.929 . S
H2209 C2218 0.929 . S
C2210 H2204 0.930 . S
C2210 C2211 1.367 . S
C2210 C2218 1.378 . S
C2211 C2210 1.367 . S
C2211 C2219 1.433 . S
C2212 H2208 0.929 . S
C2212 C2214 1.378 . S
C2212 C2216 1.350 . S
C2213 C2216 1.463 . S
C2213 C2218 1.350 . S
C2213 N2221 1.427 . S
C2214 H2205 0.930 . S
C2214 C2212 1.378 . S
C2214 C2215 1.367 . S
C2215 C2214 1.367 . S
C2215 C2217 1.433 . S
C2216 C2212 1.350 . S
C2216 C2213 1.463 . S
C2216 N2220 1.427 . S
C2217 H2207 0.929 . S
C2217 C2215 1.433 . S
C2217 N2220 1.384 . S
C2218 H2209 0.929 . S
C2218 C2210 1.378 . S
C2218 C2213 1.350 . S
C2219 H2206 0.929 . S
C2219 C2211 1.433 . S
C2219 N2221 1.384 . S
N2220 C2216 1.427 . S
N2220 C2217 1.384 . S
N2221 C2213 1.427 . S
N2221 C2219 1.384 . S
H2222 C2228 0.930 . S
H2223 C2232 0.930 . S
H2224 C2237 0.929 . S
H2225 C2235 0.929 . S
H2226 C2230 0.935 . S
H2227 C2236 0.929 . S
C2228 H2222 0.930 . S
C2228 C2229 1.367 . S
C2228 C2236 1.378 . S
C2229 C2228 1.367 . S
C2229 C2237 1.433 . S
C2230 H2226 0.935 . S
C2230 C2232 1.372 1_565 S
C2230 C2234 1.350 . S
C2231 C2234 1.463 . S
C2231 C2236 1.350 . S
C2231 N2239 1.427 . S
C2232 H2223 0.930 . S
C2232 C2230 1.372 1_545 S
C2232 C2233 1.367 . S
C2233 C2232 1.367 . S
C2233 C2235 1.433 . S
C2234 C2230 1.350 . S
C2234 C2231 1.463 . S
C2234 N2238 1.427 1_565 S
C2235 H2225 0.929 . S
C2235 C2233 1.433 . S
C2235 N2238 1.384 . S
C2236 H2227 0.929 . S
C2236 C2228 1.378 . S
C2236 C2231 1.350 . S
C2237 H2224 0.929 . S
C2237 C2229 1.433 . S
C2237 N2239 1.384 . S
N2238 C2234 1.427 1_545 S
N2238 C2235 1.384 . S
N2239 C2231 1.427 . S
N2239 C2237 1.384 . S
H2240 C2246 0.930 . S
H2241 C2250 0.930 . S
H2242 C2255 0.929 . S
H2243 C2253 0.929 . S
H2244 C2248 0.929 . S
H2245 C2254 0.929 . S
C2246 H2240 0.930 . S
C2246 C2247 1.367 . S
C2246 C2254 1.378 . S
C2247 C2246 1.367 . S
C2247 C2255 1.433 . S
C2248 H2244 0.929 . S
C2248 C2250 1.378 . S
C2248 C2252 1.350 . S
C2249 C2252 1.463 . S
C2249 C2254 1.350 . S
C2249 N2257 1.427 . S
C2250 H2241 0.930 . S
C2250 C2248 1.378 . S
C2250 C2251 1.367 . S
C2251 C2250 1.367 . S
C2251 C2253 1.433 . S
C2252 C2248 1.350 . S
C2252 C2249 1.463 . S
C2252 N2256 1.427 . S
C2253 H2243 0.929 . S
C2253 C2251 1.433 . S
C2253 N2256 1.384 . S
C2254 H2245 0.929 . S
C2254 C2246 1.378 . S
C2254 C2249 1.350 . S
C2255 H2242 0.929 . S
C2255 C2247 1.433 . S
C2255 N2257 1.384 . S
N2256 C2252 1.427 . S
N2256 C2253 1.384 . S
N2257 C2249 1.427 . S
N2257 C2255 1.384 . S
H2258 C2264 0.930 1_455 S
H2259 C2268 0.930 . S
H2260 C2273 0.929 1_455 S
H2261 C2271 0.929 . S
H2262 C2266 0.929 . S
H2263 C2272 0.929 . S
C2264 H2258 0.930 1_655 S
C2264 C2265 1.367 1_655 S
C2264 C2272 1.378 . S
C2265 C2264 1.367 1_455 S
C2265 C2273 1.433 1_455 S
C2266 H2262 0.929 . S
C2266 C2268 1.378 . S
C2266 C2270 1.350 . S
C2267 C2270 1.463 . S
C2267 C2272 1.350 . S
C2267 N2275 1.427 . S
C2268 H2259 0.930 . S
C2268 C2266 1.378 . S
C2268 C2269 1.367 . S
C2269 C2268 1.367 . S
C2269 C2271 1.433 . S
C2270 C2266 1.350 . S
C2270 C2267 1.463 . S
C2270 N2274 1.427 . S
C2271 H2261 0.929 . S
C2271 C2269 1.433 . S
C2271 N2274 1.384 . S
C2272 H2263 0.929 . S
C2272 C2264 1.378 . S
C2272 C2267 1.350 . S
C2273 H2260 0.929 1_655 S
C2273 C2265 1.433 1_655 S
C2273 N2275 1.384 . S
N2274 C2270 1.427 . S
N2274 C2271 1.384 . S
N2275 C2267 1.427 . S
N2275 C2273 1.384 . S
H2276 C2282 0.930 . S
H2277 C2286 0.930 . S
H2278 C2291 0.929 . S
H2279 C2289 0.929 . S
H2280 C2284 0.929 . S
H2281 C2290 0.929 . S
C2282 H2276 0.930 . S
C2282 C2283 1.367 . S
C2282 C2290 1.378 . S
C2283 C2282 1.367 . S
C2283 C2291 1.433 . S
C2284 H2280 0.929 . S
C2284 C2286 1.378 . S
C2284 C2288 1.350 . S
C2285 C2288 1.463 . S
C2285 C2290 1.350 . S
C2285 N2293 1.427 . S
C2286 H2277 0.930 . S
C2286 C2284 1.378 . S
C2286 C2287 1.367 . S
C2287 C2286 1.367 . S
C2287 C2289 1.433 . S
C2288 C2284 1.350 . S
C2288 C2285 1.463 . S
C2288 N2292 1.427 . S
C2289 H2279 0.929 . S
C2289 C2287 1.433 . S
C2289 N2292 1.384 . S
C2290 H2281 0.929 . S
C2290 C2282 1.378 . S
C2290 C2285 1.350 . S
C2291 H2278 0.929 . S
C2291 C2283 1.433 . S
C2291 N2293 1.384 . S
N2292 C2288 1.427 . S
N2292 C2289 1.384 . S
N2293 C2285 1.427 . S
N2293 C2291 1.384 . S
H2294 C2300 0.930 . S
H2295 C2304 0.930 . S
H2296 C2309 0.929 . S
H2297 C2307 0.929 . S
H2298 C2302 0.929 . S
H2299 C2308 0.929 . S
C2300 H2294 0.930 . S
C2300 C2301 1.367 . S
C2300 C2308 1.378 . S
C2301 C2300 1.367 . S
C2301 C2309 1.433 . S
C2302 H2298 0.929 . S
C2302 C2304 1.378 . S
C2302 C2306 1.350 . S
C2303 C2306 1.463 . S
C2303 C2308 1.350 . S
C2303 N2311 1.427 . S
C2304 H2295 0.930 . S
C2304 C2302 1.378 . S
C2304 C2305 1.367 . S
C2305 C2304 1.367 . S
C2305 C2307 1.433 . S
C2306 C2302 1.350 . S
C2306 C2303 1.463 . S
C2306 N2310 1.427 . S
C2307 H2297 0.929 . S
C2307 C2305 1.433 . S
C2307 N2310 1.384 . S
C2308 H2299 0.929 . S
C2308 C2300 1.378 . S
C2308 C2303 1.350 . S
C2309 H2296 0.929 . S
C2309 C2301 1.433 . S
C2309 N2311 1.384 . S
N2310 C2306 1.427 . S
N2310 C2307 1.384 . S
N2311 C2303 1.427 . S
N2311 C2309 1.384 . S
H2312 C2318 0.930 . S
H2313 C2322 0.930 . S
H2314 C2327 0.929 . S
H2315 C2325 0.929 . S
H2316 C2320 0.929 . S
H2317 C2326 0.929 . S
C2318 H2312 0.930 . S
C2318 C2319 1.367 . S
C2318 C2326 1.378 . S
C2319 C2318 1.367 . S
C2319 C2327 1.433 . S
C2320 H2316 0.929 . S
C2320 C2322 1.378 . S
C2320 C2324 1.350 . S
C2321 C2324 1.463 . S
C2321 C2326 1.350 . S
C2321 N2329 1.427 . S
C2322 H2313 0.930 . S
C2322 C2320 1.378 . S
C2322 C2323 1.367 . S
C2323 C2322 1.367 . S
C2323 C2325 1.433 . S
C2324 C2320 1.350 . S
C2324 C2321 1.463 . S
C2324 N2328 1.427 . S
C2325 H2315 0.929 . S
C2325 C2323 1.433 . S
C2325 N2328 1.384 . S
C2326 H2317 0.929 . S
C2326 C2318 1.378 . S
C2326 C2321 1.350 . S
C2327 H2314 0.929 . S
C2327 C2319 1.433 . S
C2327 N2329 1.384 . S
N2328 C2324 1.427 . S
N2328 C2325 1.384 . S
N2329 C2321 1.427 . S
N2329 C2327 1.384 . S
H2330 C2336 0.930 . S
H2331 C2340 0.930 . S
H2332 C2345 0.929 . S
H2333 C2343 0.929 . S
H2334 C2338 0.929 . S
H2335 C2344 0.929 . S
C2336 H2330 0.930 . S
C2336 C2337 1.367 . S
C2336 C2344 1.378 . S
C2337 C2336 1.367 . S
C2337 C2345 1.433 . S
C2338 H2334 0.929 . S
C2338 C2340 1.378 . S
C2338 C2342 1.350 . S
C2339 C2342 1.463 . S
C2339 C2344 1.350 . S
C2339 N2347 1.427 . S
C2340 H2331 0.930 . S
C2340 C2338 1.378 . S
C2340 C2341 1.367 . S
C2341 C2340 1.367 . S
C2341 C2343 1.433 . S
C2342 C2338 1.350 . S
C2342 C2339 1.463 . S
C2342 N2346 1.427 . S
C2343 H2333 0.929 . S
C2343 C2341 1.433 . S
C2343 N2346 1.384 . S
C2344 H2335 0.929 . S
C2344 C2336 1.378 . S
C2344 C2339 1.350 . S
C2345 H2332 0.929 . S
C2345 C2337 1.433 . S
C2345 N2347 1.384 . S
N2346 C2342 1.427 . S
N2346 C2343 1.384 . S
N2347 C2339 1.427 . S
N2347 C2345 1.384 . S
H2348 C2354 0.930 . S
H2349 C2358 0.930 . S
H2350 C2363 0.929 . S
H2351 C2361 0.929 . S
H2352 C2356 0.929 . S
H2353 C2362 0.929 . S
C2354 H2348 0.930 . S
C2354 C2355 1.367 . S
C2354 C2362 1.378 . S
C2355 C2354 1.367 . S
C2355 C2363 1.433 . S
C2356 H2352 0.929 . S
C2356 C2358 1.378 . S
C2356 C2360 1.350 . S
C2357 C2360 1.463 . S
C2357 C2362 1.350 . S
C2357 N2365 1.427 . S
C2358 H2349 0.930 . S
C2358 C2356 1.378 . S
C2358 C2359 1.367 . S
C2359 C2358 1.367 . S
C2359 C2361 1.433 . S
C2360 C2356 1.350 . S
C2360 C2357 1.463 . S
C2360 N2364 1.427 . S
C2361 H2351 0.929 . S
C2361 C2359 1.433 . S
C2361 N2364 1.384 . S
C2362 H2353 0.929 . S
C2362 C2354 1.378 . S
C2362 C2357 1.350 . S
C2363 H2350 0.929 . S
C2363 C2355 1.433 . S
C2363 N2365 1.384 . S
N2364 C2360 1.427 . S
N2364 C2361 1.384 . S
N2365 C2357 1.427 . S
N2365 C2363 1.384 . S
H2366 C2372 0.930 . S
H2367 C2376 0.930 . S
H2368 C2381 0.929 . S
H2369 C2379 0.929 . S
H2370 C2374 0.929 . S
H2371 C2380 0.929 . S
C2372 H2366 0.930 . S
C2372 C2373 1.367 . S
C2372 C2380 1.378 1_455 S
C2373 C2372 1.367 . S
C2373 C2381 1.433 1_455 S
C2374 H2370 0.929 . S
C2374 C2376 1.378 . S
C2374 C2378 1.350 . S
C2375 C2378 1.463 . S
C2375 C2380 1.350 . S
C2375 N2383 1.427 . S
C2376 H2367 0.930 . S
C2376 C2374 1.378 . S
C2376 C2377 1.367 . S
C2377 C2376 1.367 . S
C2377 C2379 1.433 . S
C2378 C2374 1.350 . S
C2378 C2375 1.463 . S
C2378 N2382 1.427 . S
C2379 H2369 0.929 . S
C2379 C2377 1.433 . S
C2379 N2382 1.384 . S
C2380 H2371 0.929 . S
C2380 C2372 1.378 1_655 S
C2380 C2375 1.350 . S
C2381 H2368 0.929 . S
C2381 C2373 1.433 1_655 S
C2381 N2383 1.384 . S
N2382 C2378 1.427 . S
N2382 C2379 1.384 . S
N2383 C2375 1.427 . S
N2383 C2381 1.384 . S
H2384 C2390 0.930 . S
H2385 C2394 0.930 . S
H2386 C2399 0.929 . S
H2387 C2397 0.929 . S
H2388 C2392 0.929 . S
H2389 C2398 0.929 . S
C2390 H2384 0.930 . S
C2390 C2391 1.367 . S
C2390 C2398 1.378 . S
C2391 C2390 1.367 . S
C2391 C2399 1.433 . S
C2392 H2388 0.929 . S
C2392 C2394 1.378 . S
C2392 C2396 1.350 . S
C2393 C2396 1.463 . S
C2393 C2398 1.350 . S
C2393 N2401 1.427 . S
C2394 H2385 0.930 . S
C2394 C2392 1.378 . S
C2394 C2395 1.367 . S
C2395 C2394 1.367 . S
C2395 C2397 1.433 . S
C2396 C2392 1.350 . S
C2396 C2393 1.463 . S
C2396 N2400 1.427 . S
C2397 H2387 0.929 . S
C2397 C2395 1.433 . S
C2397 N2400 1.384 . S
C2398 H2389 0.929 . S
C2398 C2390 1.378 . S
C2398 C2393 1.350 . S
C2399 H2386 0.929 . S
C2399 C2391 1.433 . S
C2399 N2401 1.384 . S
N2400 C2396 1.427 . S
N2400 C2397 1.384 . S
N2401 C2393 1.427 . S
N2401 C2399 1.384 . S
H2402 C2408 0.930 . S
H2403 C2412 0.930 . S
H2404 C2417 0.929 . S
H2405 C2415 0.929 1_655 S
H2406 C2410 0.929 . S
H2407 C2416 0.929 . S
C2408 H2402 0.930 . S
C2408 C2409 1.367 . S
C2408 C2416 1.378 . S
C2409 C2408 1.367 . S
C2409 C2417 1.433 . S
C2410 H2406 0.929 . S
C2410 C2412 1.378 . S
C2410 C2414 1.350 . S
C2411 C2414 1.463 . S
C2411 C2416 1.350 . S
C2411 N2419 1.427 . S
C2412 H2403 0.930 . S
C2412 C2410 1.378 . S
C2412 C2413 1.367 1_455 S
C2413 C2412 1.367 1_655 S
C2413 C2415 1.433 1_655 S
C2414 C2410 1.350 . S
C2414 C2411 1.463 . S
C2414 N2418 1.427 . S
C2415 H2405 0.929 1_455 S
C2415 C2413 1.433 1_455 S
C2415 N2418 1.384 . S
C2416 H2407 0.929 . S
C2416 C2408 1.378 . S
C2416 C2411 1.350 . S
C2417 H2404 0.929 . S
C2417 C2409 1.433 . S
C2417 N2419 1.384 . S
N2418 C2414 1.427 . S
N2418 C2415 1.384 . S
N2419 C2411 1.427 . S
N2419 C2417 1.384 . S
H2420 C2426 0.930 . S
H2421 C2430 0.930 . S
H2422 C2435 0.929 . S
H2423 C2433 0.929 . S
H2424 C2428 0.929 . S
H2425 C2434 0.929 . S
C2426 H2420 0.930 . S
C2426 C2427 1.367 . S
C2426 C2434 1.378 . S
C2427 C2426 1.367 . S
C2427 C2435 1.433 . S
C2428 H2424 0.929 . S
C2428 C2430 1.378 . S
C2428 C2432 1.350 . S
C2429 C2432 1.463 . S
C2429 C2434 1.350 . S
C2429 N2437 1.427 . S
C2430 H2421 0.930 . S
C2430 C2428 1.378 . S
C2430 C2431 1.367 . S
C2431 C2430 1.367 . S
C2431 C2433 1.433 . S
C2432 C2428 1.350 . S
C2432 C2429 1.463 . S
C2432 N2436 1.427 . S
C2433 H2423 0.929 . S
C2433 C2431 1.433 . S
C2433 N2436 1.384 . S
C2434 H2425 0.929 . S
C2434 C2426 1.378 . S
C2434 C2429 1.350 . S
C2435 H2422 0.929 . S
C2435 C2427 1.433 . S
C2435 N2437 1.384 . S
N2436 C2432 1.427 . S
N2436 C2433 1.384 . S
N2437 C2429 1.427 . S
N2437 C2435 1.384 . S
H2438 C2444 0.930 . S
H2439 C2448 0.930 . S
H2440 C2453 0.929 . S
H2441 C2451 0.929 . S
H2442 C2446 0.929 . S
H2443 C2452 0.929 . S
C2444 H2438 0.930 . S
C2444 C2445 1.367 . S
C2444 C2452 1.378 . S
C2445 C2444 1.367 . S
C2445 C2453 1.433 . S
C2446 H2442 0.929 . S
C2446 C2448 1.378 . S
C2446 C2450 1.350 . S
C2447 C2450 1.463 . S
C2447 C2452 1.350 . S
C2447 N2455 1.427 . S
C2448 H2439 0.930 . S
C2448 C2446 1.378 . S
C2448 C2449 1.367 . S
C2449 C2448 1.367 . S
C2449 C2451 1.433 . S
C2450 C2446 1.350 . S
C2450 C2447 1.463 . S
C2450 N2454 1.427 . S
C2451 H2441 0.929 . S
C2451 C2449 1.433 . S
C2451 N2454 1.384 . S
C2452 H2443 0.929 . S
C2452 C2444 1.378 . S
C2452 C2447 1.350 . S
C2453 H2440 0.929 . S
C2453 C2445 1.433 . S
C2453 N2455 1.384 . S
N2454 C2450 1.427 . S
N2454 C2451 1.384 . S
N2455 C2447 1.427 . S
N2455 C2453 1.384 . S
H2456 C2462 0.930 . S
H2457 C2466 0.930 . S
H2458 C2471 0.929 . S
H2459 C2469 0.929 . S
H2460 C2464 0.929 . S
H2461 C2470 0.929 . S
C2462 H2456 0.930 . S
C2462 C2463 1.367 . S
C2462 C2470 1.378 . S
C2463 C2462 1.367 . S
C2463 C2471 1.433 . S
C2464 H2460 0.929 . S
C2464 C2466 1.378 . S
C2464 C2468 1.350 . S
C2465 C2468 1.463 . S
C2465 C2470 1.350 . S
C2465 N2473 1.427 . S
C2466 H2457 0.930 . S
C2466 C2464 1.378 . S
C2466 C2467 1.367 . S
C2467 C2466 1.367 . S
C2467 C2469 1.433 . S
C2468 C2464 1.350 . S
C2468 C2465 1.463 . S
C2468 N2472 1.427 . S
C2469 H2459 0.929 . S
C2469 C2467 1.433 . S
C2469 N2472 1.384 . S
C2470 H2461 0.929 . S
C2470 C2462 1.378 . S
C2470 C2465 1.350 . S
C2471 H2458 0.929 . S
C2471 C2463 1.433 . S
C2471 N2473 1.384 . S
N2472 C2468 1.427 . S
N2472 C2469 1.384 . S
N2473 C2465 1.427 . S
N2473 C2471 1.384 . S
H2474 C2480 0.930 . S
H2475 C2484 0.930 . S
H2476 C2489 0.929 . S
H2477 C2487 0.929 . S
H2478 C2482 0.929 . S
H2479 C2488 0.929 . S
C2480 H2474 0.930 . S
C2480 C2481 1.367 . S
C2480 C2488 1.378 . S
C2481 C2480 1.367 . S
C2481 C2489 1.433 . S
C2482 H2478 0.929 . S
C2482 C2484 1.378 . S
C2482 C2486 1.350 . S
C2483 C2486 1.463 . S
C2483 C2488 1.350 . S
C2483 N2491 1.427 . S
C2484 H2475 0.930 . S
C2484 C2482 1.378 . S
C2484 C2485 1.367 . S
C2485 C2484 1.367 . S
C2485 C2487 1.433 . S
C2486 C2482 1.350 . S
C2486 C2483 1.463 . S
C2486 N2490 1.427 . S
C2487 H2477 0.929 . S
C2487 C2485 1.433 . S
C2487 N2490 1.384 . S
C2488 H2479 0.929 . S
C2488 C2480 1.378 . S
C2488 C2483 1.350 . S
C2489 H2476 0.929 . S
C2489 C2481 1.433 . S
C2489 N2491 1.384 . S
N2490 C2486 1.427 . S
N2490 C2487 1.384 . S
N2491 C2483 1.427 . S
N2491 C2489 1.384 . S
H2492 C2498 0.930 . S
H2493 C2502 0.930 . S
H2494 C2507 0.929 . S
H2495 C2505 0.929 . S
H2496 C2500 0.929 . S
H2497 C2506 0.929 . S
C2498 H2492 0.930 . S
C2498 C2499 1.367 . S
C2498 C2506 1.378 . S
C2499 C2498 1.367 . S
C2499 C2507 1.433 . S
C2500 H2496 0.929 . S
C2500 C2502 1.378 . S
C2500 C2504 1.350 . S
C2501 C2504 1.463 . S
C2501 C2506 1.350 . S
C2501 N2509 1.427 . S
C2502 H2493 0.930 . S
C2502 C2500 1.378 . S
C2502 C2503 1.367 . S
C2503 C2502 1.367 . S
C2503 C2505 1.433 . S
C2504 C2500 1.350 . S
C2504 C2501 1.463 . S
C2504 N2508 1.427 . S
C2505 H2495 0.929 . S
C2505 C2503 1.433 . S
C2505 N2508 1.384 . S
C2506 H2497 0.929 . S
C2506 C2498 1.378 . S
C2506 C2501 1.350 . S
C2507 H2494 0.929 . S
C2507 C2499 1.433 . S
C2507 N2509 1.384 . S
N2508 C2504 1.427 . S
N2508 C2505 1.384 . S
N2509 C2501 1.427 . S
N2509 C2507 1.384 . S
H2510 C2516 0.930 . S
H2511 C2520 0.930 . S
H2512 C2525 0.929 . S
H2513 C2523 0.929 1_655 S
H2514 C2518 0.929 . S
H2515 C2524 0.929 . S
C2516 H2510 0.930 . S
C2516 C2517 1.367 . S
C2516 C2524 1.378 . S
C2517 C2516 1.367 . S
C2517 C2525 1.433 . S
C2518 H2514 0.929 . S
C2518 C2520 1.378 . S
C2518 C2522 1.350 . S
C2519 C2522 1.463 . S
C2519 C2524 1.350 . S
C2519 N2527 1.427 . S
C2520 H2511 0.930 . S
C2520 C2518 1.378 . S
C2520 C2521 1.367 1_455 S
C2521 C2520 1.367 1_655 S
C2521 C2523 1.433 1_655 S
C2522 C2518 1.350 . S
C2522 C2519 1.463 . S
C2522 N2526 1.427 . S
C2523 H2513 0.929 1_455 S
C2523 C2521 1.433 1_455 S
C2523 N2526 1.384 . S
C2524 H2515 0.929 . S
C2524 C2516 1.378 . S
C2524 C2519 1.350 . S
C2525 H2512 0.929 . S
C2525 C2517 1.433 . S
C2525 N2527 1.384 . S
N2526 C2522 1.427 . S
N2526 C2523 1.384 . S
N2527 C2519 1.427 . S
N2527 C2525 1.384 . S
H2528 C2534 0.930 . S
H2529 C2538 0.930 . S
H2530 C2543 0.929 . S
H2531 C2541 0.929 . S
H2532 C2536 0.929 . S
H2533 C2542 0.929 . S
C2534 H2528 0.930 . S
C2534 C2535 1.367 . S
C2534 C2542 1.378 . S
C2535 C2534 1.367 . S
C2535 C2543 1.433 . S
C2536 H2532 0.929 . S
C2536 C2538 1.378 . S
C2536 C2540 1.350 . S
C2537 C2540 1.463 . S
C2537 C2542 1.350 . S
C2537 N2545 1.427 . S
C2538 H2529 0.930 . S
C2538 C2536 1.378 . S
C2538 C2539 1.367 . S
C2539 C2538 1.367 . S
C2539 C2541 1.433 . S
C2540 C2536 1.350 . S
C2540 C2537 1.463 . S
C2540 N2544 1.427 . S
C2541 H2531 0.929 . S
C2541 C2539 1.433 . S
C2541 N2544 1.384 . S
C2542 H2533 0.929 . S
C2542 C2534 1.378 . S
C2542 C2537 1.350 . S
C2543 H2530 0.929 . S
C2543 C2535 1.433 . S
C2543 N2545 1.384 . S
N2544 C2540 1.427 . S
N2544 C2541 1.384 . S
N2545 C2537 1.427 . S
N2545 C2543 1.384 . S
H2546 C2552 0.930 . S
H2547 C2556 0.930 . S
H2548 C2561 0.929 . S
H2549 C2559 0.929 . S
H2550 C2554 0.929 . S
H2551 C2560 0.929 . S
C2552 H2546 0.930 . S
C2552 C2553 1.367 . S
C2552 C2560 1.378 . S
C2553 C2552 1.367 . S
C2553 C2561 1.433 . S
C2554 H2550 0.929 . S
C2554 C2556 1.378 . S
C2554 C2558 1.350 . S
C2555 C2558 1.463 . S
C2555 C2560 1.350 . S
C2555 N2563 1.427 . S
C2556 H2547 0.930 . S
C2556 C2554 1.378 . S
C2556 C2557 1.367 . S
C2557 C2556 1.367 . S
C2557 C2559 1.433 . S
C2558 C2554 1.350 . S
C2558 C2555 1.463 . S
C2558 N2562 1.427 . S
C2559 H2549 0.929 . S
C2559 C2557 1.433 . S
C2559 N2562 1.384 . S
C2560 H2551 0.929 . S
C2560 C2552 1.378 . S
C2560 C2555 1.350 . S
C2561 H2548 0.929 . S
C2561 C2553 1.433 . S
C2561 N2563 1.384 . S
N2562 C2558 1.427 . S
N2562 C2559 1.384 . S
N2563 C2555 1.427 . S
N2563 C2561 1.384 . S
H2564 C2570 0.930 . S
H2565 C2574 0.930 . S
H2566 C2579 0.929 . S
H2567 C2577 0.929 . S
H2568 C2572 0.929 . S
H2569 C2578 0.929 . S
C2570 H2564 0.930 . S
C2570 C2571 1.367 . S
C2570 C2578 1.378 . S
C2571 C2570 1.367 . S
C2571 C2579 1.433 . S
C2572 H2568 0.929 . S
C2572 C2574 1.378 . S
C2572 C2576 1.350 . S
C2573 C2576 1.463 . S
C2573 C2578 1.350 . S
C2573 N2581 1.427 . S
C2574 H2565 0.930 . S
C2574 C2572 1.378 . S
C2574 C2575 1.367 . S
C2575 C2574 1.367 . S
C2575 C2577 1.433 . S
C2576 C2572 1.350 . S
C2576 C2573 1.463 . S
C2576 N2580 1.427 . S
C2577 H2567 0.929 . S
C2577 C2575 1.433 . S
C2577 N2580 1.384 . S
C2578 H2569 0.929 . S
C2578 C2570 1.378 . S
C2578 C2573 1.350 . S
C2579 H2566 0.929 . S
C2579 C2571 1.433 . S
C2579 N2581 1.384 . S
N2580 C2576 1.427 . S
N2580 C2577 1.384 . S
N2581 C2573 1.427 . S
N2581 C2579 1.384 . S
H2582 C2588 0.930 . S
H2583 C2592 0.930 . S
H2584 C2597 0.929 . S
H2585 C2595 0.929 . S
H2586 C2590 0.929 . S
H2587 C2596 0.929 . S
C2588 H2582 0.930 . S
C2588 C2589 1.367 . S
C2588 C2596 1.378 . S
C2589 C2588 1.367 . S
C2589 C2597 1.433 . S
C2590 H2586 0.929 . S
C2590 C2592 1.378 . S
C2590 C2594 1.350 . S
C2591 C2594 1.463 . S
C2591 C2596 1.350 . S
C2591 N2599 1.427 . S
C2592 H2583 0.930 . S
C2592 C2590 1.378 . S
C2592 C2593 1.367 . S
C2593 C2592 1.367 . S
C2593 C2595 1.433 . S
C2594 C2590 1.350 . S
C2594 C2591 1.463 . S
C2594 N2598 1.427 . S
C2595 H2585 0.929 . S
C2595 C2593 1.433 . S
C2595 N2598 1.384 . S
C2596 H2587 0.929 . S
C2596 C2588 1.378 . S
C2596 C2591 1.350 . S
C2597 H2584 0.929 . S
C2597 C2589 1.433 . S
C2597 N2599 1.384 . S
N2598 C2594 1.427 . S
N2598 C2595 1.384 . S
N2599 C2591 1.427 . S
N2599 C2597 1.384 . S
H2600 C2606 0.930 . S
H2601 C2610 0.930 . S
H2602 C2615 0.929 . S
H2603 C2613 0.929 . S
H2604 C2608 0.929 . S
H2605 C2614 0.929 . S
C2606 H2600 0.930 . S
C2606 C2607 1.367 . S
C2606 C2614 1.378 . S
C2607 C2606 1.367 . S
C2607 C2615 1.433 . S
C2608 H2604 0.929 . S
C2608 C2610 1.378 . S
C2608 C2612 1.350 . S
C2609 C2612 1.463 . S
C2609 C2614 1.350 . S
C2609 N2617 1.427 . S
C2610 H2601 0.930 . S
C2610 C2608 1.378 . S
C2610 C2611 1.367 . S
C2611 C2610 1.367 . S
C2611 C2613 1.433 . S
C2612 C2608 1.350 . S
C2612 C2609 1.463 . S
C2612 N2616 1.427 . S
C2613 H2603 0.929 . S
C2613 C2611 1.433 . S
C2613 N2616 1.384 . S
C2614 H2605 0.929 . S
C2614 C2606 1.378 . S
C2614 C2609 1.350 . S
C2615 H2602 0.929 . S
C2615 C2607 1.433 . S
C2615 N2617 1.384 . S
N2616 C2612 1.427 . S
N2616 C2613 1.384 . S
N2617 C2609 1.427 . S
N2617 C2615 1.384 . S
H2618 C2624 0.930 . S
H2619 C2628 0.930 . S
H2620 C2633 0.929 . S
H2621 C2631 0.929 . S
H2622 C2626 0.929 . S
H2623 C2632 0.929 . S
C2624 H2618 0.930 . S
C2624 C2625 1.367 . S
C2624 C2632 1.378 . S
C2625 C2624 1.367 . S
C2625 C2633 1.433 . S
C2626 H2622 0.929 . S
C2626 C2628 1.378 . S
C2626 C2630 1.350 . S
C2627 C2630 1.463 . S
C2627 C2632 1.350 . S
C2627 N2635 1.427 . S
C2628 H2619 0.930 . S
C2628 C2626 1.378 . S
C2628 C2629 1.367 . S
C2629 C2628 1.367 . S
C2629 C2631 1.433 . S
C2630 C2626 1.350 . S
C2630 C2627 1.463 . S
C2630 N2634 1.427 . S
C2631 H2621 0.929 . S
C2631 C2629 1.433 . S
C2631 N2634 1.384 . S
C2632 H2623 0.929 . S
C2632 C2624 1.378 . S
C2632 C2627 1.350 . S
C2633 H2620 0.929 . S
C2633 C2625 1.433 . S
C2633 N2635 1.384 . S
N2634 C2630 1.427 . S
N2634 C2631 1.384 . S
N2635 C2627 1.427 . S
N2635 C2633 1.384 . S
H2636 C2642 0.930 . S
H2637 C2646 0.930 . S
H2638 C2651 0.929 . S
H2639 C2649 0.929 . S
H2640 C2644 0.929 . S
H2641 C2650 0.929 . S
C2642 H2636 0.930 . S
C2642 C2643 1.367 . S
C2642 C2650 1.378 . S
C2643 C2642 1.367 . S
C2643 C2651 1.433 . S
C2644 H2640 0.929 . S
C2644 C2646 1.378 . S
C2644 C2648 1.350 . S
C2645 C2648 1.463 . S
C2645 C2650 1.350 . S
C2645 N2653 1.427 . S
C2646 H2637 0.930 . S
C2646 C2644 1.378 . S
C2646 C2647 1.367 . S
C2647 C2646 1.367 . S
C2647 C2649 1.433 . S
C2648 C2644 1.350 . S
C2648 C2645 1.463 . S
C2648 N2652 1.427 . S
C2649 H2639 0.929 . S
C2649 C2647 1.433 . S
C2649 N2652 1.384 . S
C2650 H2641 0.929 . S
C2650 C2642 1.378 . S
C2650 C2645 1.350 . S
C2651 H2638 0.929 . S
C2651 C2643 1.433 . S
C2651 N2653 1.384 . S
N2652 C2648 1.427 . S
N2652 C2649 1.384 . S
N2653 C2645 1.427 . S
N2653 C2651 1.384 . S
H2654 C2660 0.930 . S
H2655 C2664 0.930 . S
H2656 C2669 0.929 . S
H2657 C2667 0.929 . S
H2658 C2662 0.929 . S
H2659 C2668 0.929 . S
C2660 H2654 0.930 . S
C2660 C2661 1.367 . S
C2660 C2668 1.378 . S
C2661 C2660 1.367 . S
C2661 C2669 1.433 . S
C2662 H2658 0.929 . S
C2662 C2664 1.378 . S
C2662 C2666 1.350 . S
C2663 C2666 1.463 . S
C2663 C2668 1.350 . S
C2663 N2671 1.427 . S
C2664 H2655 0.930 . S
C2664 C2662 1.378 . S
C2664 C2665 1.367 . S
C2665 C2664 1.367 . S
C2665 C2667 1.433 . S
C2666 C2662 1.350 . S
C2666 C2663 1.463 . S
C2666 N2670 1.427 . S
C2667 H2657 0.929 . S
C2667 C2665 1.433 . S
C2667 N2670 1.384 . S
C2668 H2659 0.929 . S
C2668 C2660 1.378 . S
C2668 C2663 1.350 . S
C2669 H2656 0.929 . S
C2669 C2661 1.433 . S
C2669 N2671 1.384 . S
N2670 C2666 1.427 . S
N2670 C2667 1.384 . S
N2671 C2663 1.427 . S
N2671 C2669 1.384 . S
H2672 C2678 0.930 . S
H2673 C2682 0.930 . S
H2674 C2687 0.929 . S
H2675 C2685 0.929 . S
H2676 C2680 0.929 . S
H2677 C2686 0.929 . S
C2678 H2672 0.930 . S
C2678 C2679 1.367 . S
C2678 C2686 1.378 . S
C2679 C2678 1.367 . S
C2679 C2687 1.433 . S
C2680 H2676 0.929 . S
C2680 C2682 1.378 . S
C2680 C2684 1.350 . S
C2681 C2684 1.463 . S
C2681 C2686 1.350 . S
C2681 N2689 1.427 . S
C2682 H2673 0.930 . S
C2682 C2680 1.378 . S
C2682 C2683 1.367 . S
C2683 C2682 1.367 . S
C2683 C2685 1.433 . S
C2684 C2680 1.350 . S
C2684 C2681 1.463 . S
C2684 N2688 1.427 . S
C2685 H2675 0.929 . S
C2685 C2683 1.433 . S
C2685 N2688 1.384 . S
C2686 H2677 0.929 . S
C2686 C2678 1.378 . S
C2686 C2681 1.350 . S
C2687 H2674 0.929 . S
C2687 C2679 1.433 . S
C2687 N2689 1.384 . S
N2688 C2684 1.427 . S
N2688 C2685 1.384 . S
N2689 C2681 1.427 . S
N2689 C2687 1.384 . S
H2690 C2696 0.930 . S
H2691 C2700 0.930 . S
H2692 C2705 0.929 . S
H2693 C2703 0.929 . S
H2694 C2698 0.929 . S
H2695 C2704 0.929 . S
C2696 H2690 0.930 . S
C2696 C2697 1.367 . S
C2696 C2704 1.378 . S
C2697 C2696 1.367 . S
C2697 C2705 1.433 . S
C2698 H2694 0.929 . S
C2698 C2700 1.378 . S
C2698 C2702 1.350 . S
C2699 C2702 1.463 . S
C2699 C2704 1.350 . S
C2699 N2707 1.427 . S
C2700 H2691 0.930 . S
C2700 C2698 1.378 . S
C2700 C2701 1.367 . S
C2701 C2700 1.367 . S
C2701 C2703 1.433 . S
C2702 C2698 1.350 . S
C2702 C2699 1.463 . S
C2702 N2706 1.427 . S
C2703 H2693 0.929 . S
C2703 C2701 1.433 . S
C2703 N2706 1.384 . S
C2704 H2695 0.929 . S
C2704 C2696 1.378 . S
C2704 C2699 1.350 . S
C2705 H2692 0.929 . S
C2705 C2697 1.433 . S
C2705 N2707 1.384 . S
N2706 C2702 1.427 . S
N2706 C2703 1.384 . S
N2707 C2699 1.427 . S
N2707 C2705 1.384 . S
H2708 C2714 0.930 . S
H2709 C2718 0.930 . S
H2710 C2723 0.929 . S
H2711 C2721 0.929 . S
H2712 C2716 0.929 . S
H2713 C2722 0.929 . S
C2714 H2708 0.930 . S
C2714 C2715 1.367 . S
C2714 C2722 1.378 . S
C2715 C2714 1.367 . S
C2715 C2723 1.433 . S
C2716 H2712 0.929 . S
C2716 C2718 1.378 . S
C2716 C2720 1.350 . S
C2717 C2720 1.463 . S
C2717 C2722 1.350 . S
C2717 N2725 1.427 . S
C2718 H2709 0.930 . S
C2718 C2716 1.378 . S
C2718 C2719 1.367 . S
C2719 C2718 1.367 . S
C2719 C2721 1.433 . S
C2720 C2716 1.350 . S
C2720 C2717 1.463 . S
C2720 N2724 1.427 . S
C2721 H2711 0.929 . S
C2721 C2719 1.433 . S
C2721 N2724 1.384 . S
C2722 H2713 0.929 . S
C2722 C2714 1.378 . S
C2722 C2717 1.350 . S
C2723 H2710 0.929 . S
C2723 C2715 1.433 . S
C2723 N2725 1.384 . S
N2724 C2720 1.427 . S
N2724 C2721 1.384 . S
N2725 C2717 1.427 . S
N2725 C2723 1.384 . S
H2726 C2732 0.930 . S
H2727 C2736 0.930 . S
H2728 C2741 0.929 . S
H2729 C2739 0.929 . S
H2730 C2734 0.929 . S
H2731 C2740 0.929 . S
C2732 H2726 0.930 . S
C2732 C2733 1.367 . S
C2732 C2740 1.378 . S
C2733 C2732 1.367 . S
C2733 C2741 1.433 . S
C2734 H2730 0.929 . S
C2734 C2736 1.378 . S
C2734 C2738 1.350 . S
C2735 C2738 1.463 . S
C2735 C2740 1.350 . S
C2735 N2743 1.427 . S
C2736 H2727 0.930 . S
C2736 C2734 1.378 . S
C2736 C2737 1.367 . S
C2737 C2736 1.367 . S
C2737 C2739 1.433 . S
C2738 C2734 1.350 . S
C2738 C2735 1.463 . S
C2738 N2742 1.427 . S
C2739 H2729 0.929 . S
C2739 C2737 1.433 . S
C2739 N2742 1.384 . S
C2740 H2731 0.929 . S
C2740 C2732 1.378 . S
C2740 C2735 1.350 . S
C2741 H2728 0.929 . S
C2741 C2733 1.433 . S
C2741 N2743 1.384 . S
N2742 C2738 1.427 . S
N2742 C2739 1.384 . S
N2743 C2735 1.427 . S
N2743 C2741 1.384 . S
H2744 C2750 0.930 . S
H2745 C2754 0.930 . S
H2746 C2759 0.929 . S
H2747 C2757 0.929 . S
H2748 C2752 0.929 . S
H2749 C2758 0.929 . S
C2750 H2744 0.930 . S
C2750 C2751 1.367 . S
C2750 C2758 1.378 . S
C2751 C2750 1.367 . S
C2751 C2759 1.433 . S
C2752 H2748 0.929 . S
C2752 C2754 1.378 . S
C2752 C2756 1.350 . S
C2753 C2756 1.463 . S
C2753 C2758 1.350 . S
C2753 N2761 1.427 . S
C2754 H2745 0.930 . S
C2754 C2752 1.378 . S
C2754 C2755 1.367 . S
C2755 C2754 1.367 . S
C2755 C2757 1.433 . S
C2756 C2752 1.350 . S
C2756 C2753 1.463 . S
C2756 N2760 1.427 . S
C2757 H2747 0.929 . S
C2757 C2755 1.433 . S
C2757 N2760 1.384 . S
C2758 H2749 0.929 . S
C2758 C2750 1.378 . S
C2758 C2753 1.350 . S
C2759 H2746 0.929 . S
C2759 C2751 1.433 . S
C2759 N2761 1.384 . S
N2760 C2756 1.427 . S
N2760 C2757 1.384 . S
N2761 C2753 1.427 . S
N2761 C2759 1.384 . S
H2762 C2768 0.930 . S
H2763 C2772 0.930 . S
H2764 C2777 0.929 . S
H2765 C2775 0.929 . S
H2766 C2770 0.929 . S
H2767 C2776 0.929 . S
C2768 H2762 0.930 . S
C2768 C2769 1.367 . S
C2768 C2776 1.378 . S
C2769 C2768 1.367 . S
C2769 C2777 1.433 . S
C2770 H2766 0.929 . S
C2770 C2772 1.378 . S
C2770 C2774 1.350 . S
C2771 C2774 1.463 . S
C2771 C2776 1.350 . S
C2771 N2779 1.427 . S
C2772 H2763 0.930 . S
C2772 C2770 1.378 . S
C2772 C2773 1.367 . S
C2773 C2772 1.367 . S
C2773 C2775 1.433 . S
C2774 C2770 1.350 . S
C2774 C2771 1.463 . S
C2774 N2778 1.427 . S
C2775 H2765 0.929 . S
C2775 C2773 1.433 . S
C2775 N2778 1.384 . S
C2776 H2767 0.929 . S
C2776 C2768 1.378 . S
C2776 C2771 1.350 . S
C2777 H2764 0.929 . S
C2777 C2769 1.433 . S
C2777 N2779 1.384 . S
N2778 C2774 1.427 . S
N2778 C2775 1.384 . S
N2779 C2771 1.427 . S
N2779 C2777 1.384 . S
H2780 C2786 0.930 . S
H2781 C2790 0.930 . S
H2782 C2795 0.929 . S
H2783 C2793 0.929 . S
H2784 C2788 0.929 . S
H2785 C2794 0.929 . S
C2786 H2780 0.930 . S
C2786 C2787 1.367 . S
C2786 C2794 1.378 . S
C2787 C2786 1.367 . S
C2787 C2795 1.433 . S
C2788 H2784 0.929 . S
C2788 C2790 1.378 . S
C2788 C2792 1.350 . S
C2789 C2792 1.463 . S
C2789 C2794 1.350 . S
C2789 N2797 1.427 . S
C2790 H2781 0.930 . S
C2790 C2788 1.378 . S
C2790 C2791 1.367 . S
C2791 C2790 1.367 . S
C2791 C2793 1.433 . S
C2792 C2788 1.350 . S
C2792 C2789 1.463 . S
C2792 N2796 1.427 . S
C2793 H2783 0.929 . S
C2793 C2791 1.433 . S
C2793 N2796 1.384 . S
C2794 H2785 0.929 . S
C2794 C2786 1.378 . S
C2794 C2789 1.350 . S
C2795 H2782 0.929 . S
C2795 C2787 1.433 . S
C2795 N2797 1.384 . S
N2796 C2792 1.427 . S
N2796 C2793 1.384 . S
N2797 C2789 1.427 . S
N2797 C2795 1.384 . S
H2798 C2804 0.930 . S
H2799 C2808 0.930 . S
H2800 C2813 0.929 . S
H2801 C2811 0.929 . S
H2802 C2806 0.929 . S
H2803 C2812 0.929 . S
C2804 H2798 0.930 . S
C2804 C2805 1.367 . S
C2804 C2812 1.378 . S
C2805 C2804 1.367 . S
C2805 C2813 1.433 . S
C2806 H2802 0.929 . S
C2806 C2808 1.378 . S
C2806 C2810 1.350 . S
C2807 C2810 1.463 . S
C2807 C2812 1.350 . S
C2807 N2815 1.427 . S
C2808 H2799 0.930 . S
C2808 C2806 1.378 . S
C2808 C2809 1.367 . S
C2809 C2808 1.367 . S
C2809 C2811 1.433 . S
C2810 C2806 1.350 . S
C2810 C2807 1.463 . S
C2810 N2814 1.427 . S
C2811 H2801 0.929 . S
C2811 C2809 1.433 . S
C2811 N2814 1.384 . S
C2812 H2803 0.929 . S
C2812 C2804 1.378 . S
C2812 C2807 1.350 . S
C2813 H2800 0.929 . S
C2813 C2805 1.433 . S
C2813 N2815 1.384 . S
N2814 C2810 1.427 . S
N2814 C2811 1.384 . S
N2815 C2807 1.427 . S
N2815 C2813 1.384 . S
H2816 C2822 0.930 . S
H2817 C2826 0.930 . S
H2818 C2831 0.929 . S
H2819 C2829 0.929 . S
H2820 C2824 0.929 . S
H2821 C2830 0.929 . S
C2822 H2816 0.930 . S
C2822 C2823 1.367 . S
C2822 C2830 1.378 . S
C2823 C2822 1.367 . S
C2823 C2831 1.433 . S
C2824 H2820 0.929 . S
C2824 C2826 1.378 . S
C2824 C2828 1.350 . S
C2825 C2828 1.463 1_455 S
C2825 C2830 1.350 . S
C2825 N2833 1.427 . S
C2826 H2817 0.930 . S
C2826 C2824 1.378 . S
C2826 C2827 1.367 . S
C2827 C2826 1.367 . S
C2827 C2829 1.433 . S
C2828 C2824 1.350 . S
C2828 C2825 1.463 1_655 S
C2828 N2832 1.427 . S
C2829 H2819 0.929 . S
C2829 C2827 1.433 . S
C2829 N2832 1.384 . S
C2830 H2821 0.929 . S
C2830 C2822 1.378 . S
C2830 C2825 1.350 . S
C2831 H2818 0.929 . S
C2831 C2823 1.433 . S
C2831 N2833 1.384 . S
N2832 C2828 1.427 . S
N2832 C2829 1.384 . S
N2833 C2825 1.427 . S
N2833 C2831 1.384 . S
H2834 C2840 0.930 . S
H2835 C2844 0.930 . S
H2836 C2849 0.929 . S
H2837 C2847 0.929 . S
H2838 C2842 0.929 . S
H2839 C2848 0.929 . S
C2840 H2834 0.930 . S
C2840 C2841 1.367 . S
C2840 C2848 1.378 1_655 S
C2841 C2840 1.367 . S
C2841 C2849 1.433 . S
C2842 H2838 0.929 . S
C2842 C2844 1.378 1_655 S
C2842 C2846 1.350 1_655 S
C2843 C2846 1.463 1_655 S
C2843 C2848 1.350 1_655 S
C2843 N2851 1.427 . S
C2844 H2835 0.930 . S
C2844 C2842 1.378 1_455 S
C2844 C2845 1.367 . S
C2845 C2844 1.367 . S
C2845 C2847 1.433 . S
C2846 C2842 1.350 1_455 S
C2846 C2843 1.463 1_455 S
C2846 N2850 1.427 . S
C2847 H2837 0.929 . S
C2847 C2845 1.433 . S
C2847 N2850 1.384 . S
C2848 H2839 0.929 . S
C2848 C2840 1.378 1_455 S
C2848 C2843 1.350 1_455 S
C2849 H2836 0.929 . S
C2849 C2841 1.433 . S
C2849 N2851 1.384 . S
N2850 C2846 1.427 . S
N2850 C2847 1.384 . S
N2851 C2843 1.427 . S
N2851 C2849 1.384 . S
H2852 C2858 0.930 . S
H2853 C2862 0.930 . S
H2854 C2867 0.929 . S
H2855 C2865 0.929 . S
H2856 C2860 0.929 . S
H2857 C2866 0.929 . S
C2858 H2852 0.930 . S
C2858 C2859 1.367 . S
C2858 C2866 1.378 . S
C2859 C2858 1.367 . S
C2859 C2867 1.433 . S
C2860 H2856 0.929 . S
C2860 C2862 1.378 . S
C2860 C2864 1.350 . S
C2861 C2864 1.463 . S
C2861 C2866 1.350 . S
C2861 N2869 1.427 . S
C2862 H2853 0.930 . S
C2862 C2860 1.378 . S
C2862 C2863 1.367 . S
C2863 C2862 1.367 . S
C2863 C2865 1.433 . S
C2864 C2860 1.350 . S
C2864 C2861 1.463 . S
C2864 N2868 1.427 . S
C2865 H2855 0.929 . S
C2865 C2863 1.433 . S
C2865 N2868 1.384 . S
C2866 H2857 0.929 . S
C2866 C2858 1.378 . S
C2866 C2861 1.350 . S
C2867 H2854 0.929 . S
C2867 C2859 1.433 . S
C2867 N2869 1.384 . S
N2868 C2864 1.427 . S
N2868 C2865 1.384 . S
N2869 C2861 1.427 . S
N2869 C2867 1.384 . S
H2870 C2876 0.930 . S
H2871 C2880 0.930 . S
H2872 C2885 0.929 . S
H2873 C2883 0.929 . S
H2874 C2878 0.929 . S
H2875 C2884 0.929 . S
C2876 H2870 0.930 . S
C2876 C2877 1.367 . S
C2876 C2884 1.378 . S
C2877 C2876 1.367 . S
C2877 C2885 1.433 . S
C2878 H2874 0.929 . S
C2878 C2880 1.378 . S
C2878 C2882 1.350 . S
C2879 C2882 1.463 . S
C2879 C2884 1.350 . S
C2879 N2887 1.427 . S
C2880 H2871 0.930 . S
C2880 C2878 1.378 . S
C2880 C2881 1.367 . S
C2881 C2880 1.367 . S
C2881 C2883 1.433 . S
C2882 C2878 1.350 . S
C2882 C2879 1.463 . S
C2882 N2886 1.427 . S
C2883 H2873 0.929 . S
C2883 C2881 1.433 . S
C2883 N2886 1.384 . S
C2884 H2875 0.929 . S
C2884 C2876 1.378 . S
C2884 C2879 1.350 . S
C2885 H2872 0.929 . S
C2885 C2877 1.433 . S
C2885 N2887 1.384 . S
N2886 C2882 1.427 . S
N2886 C2883 1.384 . S
N2887 C2879 1.427 . S
N2887 C2885 1.384 . S
H2888 C2894 0.930 . S
H2889 C2898 0.930 . S
H2890 C2903 0.929 . S
H2891 C2901 0.929 . S
H2892 C2896 0.929 1_455 S
H2893 C2902 0.929 1_655 S
C2894 H2888 0.930 . S
C2894 C2895 1.367 . S
C2894 C2902 1.378 . S
C2895 C2894 1.367 . S
C2895 C2903 1.433 . S
C2896 H2892 0.929 1_655 S
C2896 C2898 1.378 . S
C2896 C2900 1.350 . S
C2897 C2900 1.463 1_455 S
C2897 C2902 1.350 . S
C2897 N2905 1.427 . S
C2898 H2889 0.930 . S
C2898 C2896 1.378 . S
C2898 C2899 1.367 . S
C2899 C2898 1.367 . S
C2899 C2901 1.433 . S
C2900 C2896 1.350 . S
C2900 C2897 1.463 1_655 S
C2900 N2904 1.427 . S
C2901 H2891 0.929 . S
C2901 C2899 1.433 . S
C2901 N2904 1.384 . S
C2902 H2893 0.929 1_455 S
C2902 C2894 1.378 . S
C2902 C2897 1.350 . S
C2903 H2890 0.929 . S
C2903 C2895 1.433 . S
C2903 N2905 1.384 . S
N2904 C2900 1.427 . S
N2904 C2901 1.384 . S
N2905 C2897 1.427 . S
N2905 C2903 1.384 . S
H2906 C2912 0.930 . S
H2907 C2916 0.930 . S
H2908 C2921 0.929 . S
H2909 C2919 0.929 . S
H2910 C2914 0.929 . S
H2911 C2920 0.929 . S
C2912 H2906 0.930 . S
C2912 C2913 1.367 . S
C2912 C2920 1.378 . S
C2913 C2912 1.367 . S
C2913 C2921 1.433 . S
C2914 H2910 0.929 . S
C2914 C2916 1.378 . S
C2914 C2918 1.350 . S
C2915 C2918 1.463 . S
C2915 C2920 1.350 . S
C2915 N2923 1.427 . S
C2916 H2907 0.930 . S
C2916 C2914 1.378 . S
C2916 C2917 1.367 . S
C2917 C2916 1.367 . S
C2917 C2919 1.433 . S
C2918 C2914 1.350 . S
C2918 C2915 1.463 . S
C2918 N2922 1.427 . S
C2919 H2909 0.929 . S
C2919 C2917 1.433 . S
C2919 N2922 1.384 . S
C2920 H2911 0.929 . S
C2920 C2912 1.378 . S
C2920 C2915 1.350 . S
C2921 H2908 0.929 . S
C2921 C2913 1.433 . S
C2921 N2923 1.384 . S
N2922 C2918 1.427 . S
N2922 C2919 1.384 . S
N2923 C2915 1.427 . S
N2923 C2921 1.384 . S
H2924 C2930 0.930 . S
H2925 C2934 0.930 . S
H2926 C2939 0.929 . S
H2927 C2937 0.929 . S
H2928 C2932 0.929 . S
H2929 C2938 0.929 . S
C2930 H2924 0.930 . S
C2930 C2931 1.367 . S
C2930 C2938 1.378 . S
C2931 C2930 1.367 . S
C2931 C2939 1.433 . S
C2932 H2928 0.929 . S
C2932 C2934 1.378 . S
C2932 C2936 1.350 . S
C2933 C2936 1.463 . S
C2933 C2938 1.350 . S
C2933 N2941 1.427 . S
C2934 H2925 0.930 . S
C2934 C2932 1.378 . S
C2934 C2935 1.367 . S
C2935 C2934 1.367 . S
C2935 C2937 1.433 . S
C2936 C2932 1.350 . S
C2936 C2933 1.463 . S
C2936 N2940 1.427 . S
C2937 H2927 0.929 . S
C2937 C2935 1.433 . S
C2937 N2940 1.384 . S
C2938 H2929 0.929 . S
C2938 C2930 1.378 . S
C2938 C2933 1.350 . S
C2939 H2926 0.929 . S
C2939 C2931 1.433 . S
C2939 N2941 1.384 . S
N2940 C2936 1.427 . S
N2940 C2937 1.384 . S
N2941 C2933 1.427 . S
N2941 C2939 1.384 . S
H2942 C2948 0.930 . S
H2943 C2952 0.930 . S
H2944 C2957 0.929 . S
H2945 C2955 0.929 . S
H2946 C2950 0.929 . S
H2947 C2956 0.929 . S
C2948 H2942 0.930 . S
C2948 C2949 1.367 . S
C2948 C2956 1.378 . S
C2949 C2948 1.367 . S
C2949 C2957 1.433 . S
C2950 H2946 0.929 . S
C2950 C2952 1.378 . S
C2950 C2954 1.350 . S
C2951 C2954 1.463 1_655 S
C2951 C2956 1.350 . S
C2951 N2959 1.427 . S
C2952 H2943 0.930 . S
C2952 C2950 1.378 . S
C2952 C2953 1.367 . S
C2953 C2952 1.367 . S
C2953 C2955 1.433 . S
C2954 C2950 1.350 . S
C2954 C2951 1.463 1_455 S
C2954 N2958 1.427 . S
C2955 H2945 0.929 . S
C2955 C2953 1.433 . S
C2955 N2958 1.384 . S
C2956 H2947 0.929 . S
C2956 C2948 1.378 . S
C2956 C2951 1.350 . S
C2957 H2944 0.929 . S
C2957 C2949 1.433 . S
C2957 N2959 1.384 . S
N2958 C2954 1.427 . S
N2958 C2955 1.384 . S
N2959 C2951 1.427 . S
N2959 C2957 1.384 . S
H2960 C2966 0.930 . S
H2961 C2970 0.930 . S
H2962 C2975 0.929 . S
H2963 C2973 0.929 . S
H2964 C2968 0.929 . S
H2965 C2974 0.929 . S
C2966 H2960 0.930 . S
C2966 C2967 1.367 . S
C2966 C2974 1.378 . S
C2967 C2966 1.367 . S
C2967 C2975 1.433 . S
C2968 H2964 0.929 . S
C2968 C2970 1.378 . S
C2968 C2972 1.350 . S
C2969 C2972 1.463 1_455 S
C2969 C2974 1.350 . S
C2969 N2977 1.427 . S
C2970 H2961 0.930 . S
C2970 C2968 1.378 . S
C2970 C2971 1.367 . S
C2971 C2970 1.367 . S
C2971 C2973 1.433 . S
C2972 C2968 1.350 . S
C2972 C2969 1.463 1_655 S
C2972 N2976 1.427 . S
C2973 H2963 0.929 . S
C2973 C2971 1.433 . S
C2973 N2976 1.384 . S
C2974 H2965 0.929 . S
C2974 C2966 1.378 . S
C2974 C2969 1.350 . S
C2975 H2962 0.929 . S
C2975 C2967 1.433 . S
C2975 N2977 1.384 . S
N2976 C2972 1.427 . S
N2976 C2973 1.384 . S
N2977 C2969 1.427 . S
N2977 C2975 1.384 . S
H2978 C2984 0.930 . S
H2979 C2988 0.930 . S
H2980 C2993 0.929 . S
H2981 C2991 0.929 . S
H2982 C2986 0.929 . S
H2983 C2992 0.929 . S
C2984 H2978 0.930 . S
C2984 C2985 1.367 . S
C2984 C2992 1.378 1_655 S
C2985 C2984 1.367 . S
C2985 C2993 1.433 . S
C2986 H2982 0.929 . S
C2986 C2988 1.378 1_655 S
C2986 C2990 1.350 1_655 S
C2987 C2990 1.463 1_655 S
C2987 C2992 1.350 1_655 S
C2987 N2995 1.427 . S
C2988 H2979 0.930 . S
C2988 C2986 1.378 1_455 S
C2988 C2989 1.367 . S
C2989 C2988 1.367 . S
C2989 C2991 1.433 . S
C2990 C2986 1.350 1_455 S
C2990 C2987 1.463 1_455 S
C2990 N2994 1.427 . S
C2991 H2981 0.929 . S
C2991 C2989 1.433 . S
C2991 N2994 1.384 . S
C2992 H2983 0.929 . S
C2992 C2984 1.378 1_455 S
C2992 C2987 1.350 1_455 S
C2993 H2980 0.929 . S
C2993 C2985 1.433 . S
C2993 N2995 1.384 . S
N2994 C2990 1.427 . S
N2994 C2991 1.384 . S
N2995 C2987 1.427 . S
N2995 C2993 1.384 . S
H2996 C3002 0.930 . S
H2997 C3006 0.930 . S
H2998 C3011 0.929 . S
H2999 C3009 0.929 . S
H3000 C3004 0.929 . S
H3001 C3010 0.929 . S
C3002 H2996 0.930 . S
C3002 C3003 1.367 . S
C3002 C3010 1.378 . S
C3003 C3002 1.367 . S
C3003 C3011 1.433 . S
C3004 H3000 0.929 . S
C3004 C3006 1.378 . S
C3004 C3008 1.350 . S
C3005 C3008 1.463 . S
C3005 C3010 1.350 . S
C3005 N3013 1.427 . S
C3006 H2997 0.930 . S
C3006 C3004 1.378 . S
C3006 C3007 1.367 . S
C3007 C3006 1.367 . S
C3007 C3009 1.433 . S
C3008 C3004 1.350 . S
C3008 C3005 1.463 . S
C3008 N3012 1.427 . S
C3009 H2999 0.929 . S
C3009 C3007 1.433 . S
C3009 N3012 1.384 . S
C3010 H3001 0.929 . S
C3010 C3002 1.378 . S
C3010 C3005 1.350 . S
C3011 H2998 0.929 . S
C3011 C3003 1.433 . S
C3011 N3013 1.384 . S
N3012 C3008 1.427 . S
N3012 C3009 1.384 . S
N3013 C3005 1.427 . S
N3013 C3011 1.384 . S
H3014 C3020 0.930 . S
H3015 C3024 0.930 . S
H3016 C3029 0.929 . S
H3017 C3027 0.929 . S
H3018 C3022 0.929 . S
H3019 C3028 0.929 . S
C3020 H3014 0.930 . S
C3020 C3021 1.367 . S
C3020 C3028 1.378 . S
C3021 C3020 1.367 . S
C3021 C3029 1.433 . S
C3022 H3018 0.929 . S
C3022 C3024 1.378 . S
C3022 C3026 1.350 . S
C3023 C3026 1.463 . S
C3023 C3028 1.350 . S
C3023 N3031 1.427 . S
C3024 H3015 0.930 . S
C3024 C3022 1.378 . S
C3024 C3025 1.367 . S
C3025 C3024 1.367 . S
C3025 C3027 1.433 . S
C3026 C3022 1.350 . S
C3026 C3023 1.463 . S
C3026 N3030 1.427 . S
C3027 H3017 0.929 . S
C3027 C3025 1.433 . S
C3027 N3030 1.384 . S
C3028 H3019 0.929 . S
C3028 C3020 1.378 . S
C3028 C3023 1.350 . S
C3029 H3016 0.929 . S
C3029 C3021 1.433 . S
C3029 N3031 1.384 . S
N3030 C3026 1.427 . S
N3030 C3027 1.384 . S
N3031 C3023 1.427 . S
N3031 C3029 1.384 . S
H3032 C3038 0.930 . S
H3033 C3042 0.930 . S
H3034 C3047 0.929 . S
H3035 C3045 0.929 . S
H3036 C3040 0.929 1_655 S
H3037 C3046 0.929 1_455 S
C3038 H3032 0.930 . S
C3038 C3039 1.367 . S
C3038 C3046 1.378 . S
C3039 C3038 1.367 . S
C3039 C3047 1.433 . S
C3040 H3036 0.929 1_455 S
C3040 C3042 1.378 . S
C3040 C3044 1.350 . S
C3041 C3044 1.463 1_655 S
C3041 C3046 1.350 . S
C3041 N3049 1.427 . S
C3042 H3033 0.930 . S
C3042 C3040 1.378 . S
C3042 C3043 1.367 . S
C3043 C3042 1.367 . S
C3043 C3045 1.433 . S
C3044 C3040 1.350 . S
C3044 C3041 1.463 1_455 S
C3044 N3048 1.427 . S
C3045 H3035 0.929 . S
C3045 C3043 1.433 . S
C3045 N3048 1.384 . S
C3046 H3037 0.929 1_655 S
C3046 C3038 1.378 . S
C3046 C3041 1.350 . S
C3047 H3034 0.929 . S
C3047 C3039 1.433 . S
C3047 N3049 1.384 . S
N3048 C3044 1.427 . S
N3048 C3045 1.384 . S
N3049 C3041 1.427 . S
N3049 C3047 1.384 . S
H3050 C3056 0.930 . S
H3051 C3060 0.930 . S
H3052 C3065 0.929 . S
H3053 C3063 0.929 . S
H3054 C3058 0.929 . S
H3055 C3064 0.929 . S
C3056 H3050 0.930 . S
C3056 C3057 1.367 . S
C3056 C3064 1.378 . S
C3057 C3056 1.367 . S
C3057 C3065 1.433 . S
C3058 H3054 0.929 . S
C3058 C3060 1.378 . S
C3058 C3062 1.350 . S
C3059 C3062 1.463 . S
C3059 C3064 1.350 . S
C3059 N3067 1.427 . S
C3060 H3051 0.930 . S
C3060 C3058 1.378 . S
C3060 C3061 1.367 . S
C3061 C3060 1.367 . S
C3061 C3063 1.433 . S
C3062 C3058 1.350 . S
C3062 C3059 1.463 . S
C3062 N3066 1.427 . S
C3063 H3053 0.929 . S
C3063 C3061 1.433 . S
C3063 N3066 1.384 . S
C3064 H3055 0.929 . S
C3064 C3056 1.378 . S
C3064 C3059 1.350 . S
C3065 H3052 0.929 . S
C3065 C3057 1.433 . S
C3065 N3067 1.384 . S
N3066 C3062 1.427 . S
N3066 C3063 1.384 . S
N3067 C3059 1.427 . S
N3067 C3065 1.384 . S
H3068 C3074 0.930 . S
H3069 C3078 0.930 . S
H3070 C3083 0.929 . S
H3071 C3081 0.929 . S
H3072 C3076 0.929 . S
H3073 C3082 0.929 . S
C3074 H3068 0.930 . S
C3074 C3075 1.367 . S
C3074 C3082 1.378 . S
C3075 C3074 1.367 . S
C3075 C3083 1.433 . S
C3076 H3072 0.929 . S
C3076 C3078 1.378 . S
C3076 C3080 1.350 . S
C3077 C3080 1.463 . S
C3077 C3082 1.350 . S
C3077 N3085 1.427 . S
C3078 H3069 0.930 . S
C3078 C3076 1.378 . S
C3078 C3079 1.367 . S
C3079 C3078 1.367 . S
C3079 C3081 1.433 . S
C3080 C3076 1.350 . S
C3080 C3077 1.463 . S
C3080 N3084 1.427 . S
C3081 H3071 0.929 . S
C3081 C3079 1.433 . S
C3081 N3084 1.384 . S
C3082 H3073 0.929 . S
C3082 C3074 1.378 . S
C3082 C3077 1.350 . S
C3083 H3070 0.929 . S
C3083 C3075 1.433 . S
C3083 N3085 1.384 . S
N3084 C3080 1.427 . S
N3084 C3081 1.384 . S
N3085 C3077 1.427 . S
N3085 C3083 1.384 . S
H3086 C3092 0.930 . S
H3087 C3096 0.930 . S
H3088 C3101 0.929 . S
H3089 C3099 0.929 . S
H3090 C3094 0.929 . S
H3091 C3100 0.929 . S
C3092 H3086 0.930 . S
C3092 C3093 1.367 . S
C3092 C3100 1.378 . S
C3093 C3092 1.367 . S
C3093 C3101 1.433 . S
C3094 H3090 0.929 . S
C3094 C3096 1.378 . S
C3094 C3098 1.350 . S
C3095 C3098 1.463 1_455 S
C3095 C3100 1.350 . S
C3095 N3103 1.427 . S
C3096 H3087 0.930 . S
C3096 C3094 1.378 . S
C3096 C3097 1.367 . S
C3097 C3096 1.367 . S
C3097 C3099 1.433 . S
C3098 C3094 1.350 . S
C3098 C3095 1.463 1_655 S
C3098 N3102 1.427 . S
C3099 H3089 0.929 . S
C3099 C3097 1.433 . S
C3099 N3102 1.384 . S
C3100 H3091 0.929 . S
C3100 C3092 1.378 . S
C3100 C3095 1.350 . S
C3101 H3088 0.929 . S
C3101 C3093 1.433 . S
C3101 N3103 1.384 . S
N3102 C3098 1.427 . S
N3102 C3099 1.384 . S
N3103 C3095 1.427 . S
N3103 C3101 1.384 . S
C1095 C482 1.096 . S
C1099 C28 1.051 . S
C1113 C40 1.056 . S
C1117 C1060 1.098 . S
C1131 C74 1.060 . S
C1135 C436 1.101 . S
C1149 C130 1.046 . S
C1153 C1014 1.093 . S
C1167 C164 1.064 . S
C1171 C368 1.104 . S
C1185 C176 1.062 . S
C1189 C924 1.103 . S
C1203 C210 1.040 . S
C1207 C300 1.090 . S
C1221 C856 1.099 . S
C1225 C266 1.053 . S
C1239 C278 1.039 . S
C1243 C232 1.091 . S
C1257 C334 1.038 . S
C1261 C788 1.090 . S
C1275 C346 1.064 . S
C1279 C142 1.104 . S
C1293 C402 1.064 . S
C1297 C742 1.104 . S
C1311 C96 1.097 . S
C1315 C414 1.050 . S
C1329 C448 1.055 . S
C1333 C652 1.098 . S
C1347 C6 1.091 . S
C1351 C504 1.042 . S
C1365 C516 1.047 . S
C1369 C584 1.093 . S
C1383 C572 1.048 . S
C1387 C1026 1.096 . S
C1401 C538 1.097 . S
C1405 C606 1.054 . S
C1419 C618 1.047 . S
C1423 C958 1.094 . S
C1437 C674 1.050 . S
C1441 C470 1.095 . S
C1455 C686 1.048 . S
C1459 C912 1.096 . S
C1473 C720 1.039 . S
C1477 C380 1.091 . S
C1491 C844 1.101 . S
C1495 C754 1.056 . S
C1509 C312 1.099 . S
C1513 C810 1.057 . S
C1527 C776 1.093 . S
C1531 C822 1.043 . S
C1545 C878 1.051 . S
C1549 C244 1.096 . S
C1563 C708 1.102 . S
C1567 C890 1.059 . S
C1581 C946 1.055 . S
C1585 C198 1.100 . S
C1599 C980 1.063 . S
C1603 C640 1.104 . S
C1617 C992 1.049 . S
C1621 C108 1.097 . S
C1635 C550 1.103 . S
C1639 C1048 1.060 . S
C1653 C1082 1.064 . S
C1657 C62 1.103 . S
C1671 C226 1.523 . S
C1675 C15 1.522 . S
C1689 C56 1.522 . S
C1693 C253 1.523 . S
C1707 C151 1.521 . S
C1711 C90 1.523 . S
C1725 C117 1.522 . S
C1729 C192 1.524 . S
C1743 C491 1.510 . S
C1747 C294 1.508 . S
C1761 C321 1.508 . S
C1765 C532 1.510 . S
C1779 C362 1.513 . S
C1783 C430 1.515 . S
C1797 C464 1.508 . S
C1801 C389 1.507 . S
C1815 C559 1.510 . S
C1819 C770 1.512 . S
C1833 C797 1.507 . S
C1837 C593 1.508 . S
C1851 C634 1.508 . S
C1855 C702 1.509 . S
C1869 C661 1.508 . S
C1873 C736 1.507 . S
C1887 C838 1.516 . S
C1891 C1035 1.519 . S
C1905 C865 1.525 . S
C1909 C1069 1.525 . S
C1923 C906 1.509 . S
C1927 C967 1.507 . S
C1941 C1008 1.520 . S
C1945 C933 1.518 . S
C1959 C17 2.352 1_565 S
C1963 C955 2.154 . S
C1977 C443 2.141 . S
C1981 C51 2.353 . S
C1995 C85 2.353 1_545 S
C1999 C1023 2.141 . S
C2013 C119 2.353 . S
C2017 C511 2.152 . S
C2031 C153 2.352 1_545 S
C2035 C817 2.155 . S
C2049 C187 2.353 . S
C2053 C309 2.151 . S
C2067 C221 2.351 1_565 S
C2071 C885 2.142 . S
C2085 C255 2.351 . S
C2089 C377 2.156 . S
C2103 C681 2.148 . S
C2107 C289 2.353 1_545 S
C2121 C323 2.352 . S
C2125 C171 2.156 . S
C2139 C357 2.351 1_565 S
C2143 C749 2.143 . S
C2157 C391 2.353 . S
C2161 C241 2.153 . S
C2175 C425 2.350 1_565 S
C2179 C547 2.148 . S
C2193 C459 2.352 . S
C2197 C35 2.156 . S
C2211 C493 2.351 1_545 S
C2215 C613 2.156 . S
C2229 C527 2.352 . S
C2233 C105 2.154 . S
C2247 C561 2.351 . S
C2251 C409 2.146 . S
C2265 C987 2.142 . S
C2269 C595 2.351 . S
C2283 C629 2.351 . S
C2287 C479 2.146 . S
C2301 C663 2.352 . S
C2305 C1057 2.140 . S
C2319 C273 2.140 . S
C2323 C697 2.353 . S
C2337 C853 2.154 . S
C2341 C731 2.353 . S
C2355 C765 2.353 . S
C2359 C341 2.152 . S
C2373 C921 2.155 . S
C2377 C799 2.351 . S
C2391 C833 2.351 . S
C2395 C139 2.143 . S
C2409 C867 2.353 . S
C2413 C715 2.151 . S
C2427 C205 2.144 . S
C2431 C901 2.351 . S
C2445 C935 2.353 . S
C2449 C785 2.152 . S
C2463 C969 2.353 . S
C2467 C3 2.150 . S
C2481 C581 2.141 . S
C2485 C1003 2.352 . S
C2499 C1037 2.352 . S
C2503 C69 2.141 . S
C2517 C1071 2.352 . S
C2521 C649 2.140 . S
C2535 C22 1.903 . S
C2539 C260 1.904 . S
C2553 C158 1.896 . S
C2557 C49 1.903 . S
C2571 C83 1.893 . S
C2575 C185 1.886 . S
C2589 C219 1.901 . S
C2593 C124 1.892 . S
C2607 C525 1.891 . S
C2611 C287 1.900 . S
C2625 C328 1.902 . S
C2629 C423 1.894 . S
C2643 C355 1.903 . S
C2647 C457 1.904 . S
C2661 C396 1.896 . S
C2665 C498 1.903 . S
C2679 C804 1.904 . S
C2683 C566 1.898 . S
C2697 C600 1.898 . S
C2701 C695 1.890 . S
C2715 C729 1.897 . S
C2719 C627 1.904 . S
C2733 C763 1.894 . S
C2737 C668 1.902 . S
C2751 C1076 1.889 . S
C2755 C831 1.897 . S
C2769 C872 1.885 . S
C2773 C974 1.889 . S
C2787 C1001 1.890 . S
C2791 C899 1.899 . S
C2805 C1042 1.889 . S
C2809 C940 1.898 . S
C2823 C1 1.502 . S
C2827 C615 1.494 . S
C2841 C647 1.495 . S
C2845 C37 1.499 . S
C2859 C71 1.495 . S
C2863 C545 1.507 . S
C2877 C103 1.494 . S
C2881 C579 1.504 . S
C2895 C137 1.509 . S
C2899 C751 1.506 . S
C2913 C783 1.500 . S
C2917 C173 1.511 . S
C2931 C207 1.497 . S
C2935 C683 1.497 . S
C2949 C717 1.500 . S
C2953 C239 1.511 . S
C2967 C887 1.498 . S
C2971 C275 1.496 . S
C2985 C307 1.501 . S
C2989 C919 1.494 . S
C3003 C819 1.505 . S
C3007 C343 1.510 . S
C3021 C375 1.510 . S
C3025 C851 1.497 . S
C3039 C411 1.510 . S
C3043 C1021 1.504 . S
C3057 C445 1.509 . S
C3061 C1055 1.497 . S
C3075 C953 1.509 . S
C3079 C477 1.507 . S
C3093 C989 1.510 . S
C3097 C513 1.498 . S
