# Generated by pormake.
# Topology kag, (6)-cn, num edge types: 1
# Building blocks:
#     Node 0, Type 0, BuildingBlock: PAMTUU_clean_sbu_0, # of connection points: 6
#     Node 1, Type 0, BuildingBlock: PAMTUU_clean_sbu_0, # of connection points: 6
#     Node 2, Type 0, BuildingBlock: PAMTUU_clean_sbu_0, # of connection points: 6
#     Edge 3, Type (0, 0), BuildingBlock: XUDNAN_clean_linker_2, # of connection points: 2
#     Edge 4, Type (0, 0), BuildingBlock: XUDNAN_clean_linker_2, # of connection points: 2
#     Edge 5, Type (0, 0), BuildingBlock: XUDNAN_clean_linker_2, # of connection points: 2
#     Edge 6, Type (0, 0), BuildingBlock: XUDNAN_clean_linker_2, # of connection points: 2
#     Edge 7, Type (0, 0), BuildingBlock: XUDNAN_clean_linker_2, # of connection points: 2
#     Edge 8, Type (0, 0), BuildingBlock: XUDNAN_clean_linker_2, # of connection points: 2
#     Edge 9, Type (0, 0), BuildingBlock: XUDNAN_clean_linker_2, # of connection points: 2
#     Edge 10, Type (0, 0), BuildingBlock: XUDNAN_clean_linker_2, # of connection points: 2
#     Edge 11, Type (0, 0), BuildingBlock: XUDNAN_clean_linker_2, # of connection points: 2
# Relax obj value: 0.092
# Max RMSD: 0.162
# Mean RMSD: 0.117
data_MOF--net-kag--node1-PAMTUU_clean_sbu_0--edge1-XUDNAN_clean_linker_2
_symmetry_space_group_name_H-M    P1
_symmetry_Int_Tables_number       1
_symmetry_cell_setting            triclinic
loop_
_symmetry_equiv_pos_as_xyz
'x, y, z'
_cell_length_a     49.459101
_cell_length_b     30.788593
_cell_length_c     15.059694
_cell_angle_alpha  87.74713
_cell_angle_beta   98.442827
_cell_angle_gamma 122.57794
loop_
_atom_site_label
_atom_site_type_symbol
_atom_site_fract_x
_atom_site_fract_y
_atom_site_fract_z
_atom_type_partial_charge
Tb0 Tb 1.02304 0.59497 0.95878 0.0
Tb1 Tb 0.04606 0.51276 0.97064 0.0
C2 C 1.02844 0.54723 0.79069 0.0
C3 C 0.97067 0.64604 0.94738 0.0
C4 C 0.90866 0.62831 0.94762 0.0
C5 C 0.91235 0.58701 0.93451 0.0
C6 C 0.94305 0.59587 0.9342 0.0
C7 C 0.96731 0.68739 0.96241 0.0
C8 C 0.93646 0.6786 0.96263 0.0
C9 C 1.00266 0.65486 0.94281 0.0
O10 O 0.97811 0.51852 0.93951 0.0
O11 O 0.99656 0.46765 0.00107 0.0
O12 O 0.05866 0.54875 0.10339 0.0
O13 O 1.01991 0.56845 0.09567 0.0
O14 O 0.05225 0.46212 0.90028 0.0
O15 O 0.06466 0.47237 0.04412 0.0
O16 O 0.08829 0.58662 0.94254 0.0
O17 O 0.07556 0.64126 -0.00353 0.0
O18 O 0.03717 0.59097 0.83005 0.0
O19 O 1.02041 0.50679 0.8382 0.0
C20 C 0.97273 0.47471 0.97269 0.0
O21 O 1.0179 0.65063 0.01755 0.0
O22 O 1.00366 0.63072 0.87551 0.0
C23 C 0.04023 0.55814 0.14253 0.0
C24 C 0.09803 0.46129 0.96362 0.0
C25 C 0.15787 0.47569 0.94147 0.0
C26 C 0.13415 0.43014 0.97707 0.0
C27 C 0.10446 0.42304 0.988 0.0
C28 C 0.1217 0.507 0.92907 0.0
C29 C 0.15133 0.51413 0.91796 0.0
C30 C 0.06634 0.45284 0.97158 0.0
C31 C 0.09684 0.63264 0.97214 0.0
H32 H 0.89147 0.54783 0.92431 0.0
H33 H 0.94524 0.56363 0.92207 0.0
H34 H 0.98843 0.7264 0.9726 0.0
H35 H 0.93429 0.71121 0.97236 0.0
H36 H 0.13825 0.39948 -0.0053 0.0
H37 H 0.08637 0.38743 0.01439 0.0
H38 H 0.11709 0.53691 0.90959 0.0
H39 H 0.16913 0.54977 0.89111 0.0
Tb40 Tb 0.4983 1.0149 0.01496 0.0
Tb41 Tb 0.5796 0.08054 0.03762 0.0
C42 C 0.53726 1.04971 0.85225 0.0
C43 C 0.40167 0.93434 -0.00062 0.0
C44 C 0.33357 0.87621 -0.00268 0.0
C45 C 0.34674 0.8802 0.91843 0.0
C46 C 0.3805 0.90948 0.91927 0.0
C47 C 0.3885 0.92967 0.07833 0.0
C48 C 0.35486 0.90136 0.07715 0.0
C49 C 0.43736 0.96381 0.00215 0.0
O50 O 0.51004 0.95689 0.04004 0.0
O51 O 0.56269 0.9988 0.01081 0.0
O52 O 0.56506 1.04625 0.1637 0.0
O53 O 0.51798 1.04489 0.15422 0.0
O54 O 0.62011 0.08941 0.99138 0.0
O55 O 0.62634 0.13678 0.10438 0.0
O56 O 0.56828 0.13943 0.06038 0.0
O57 O 0.51353 0.09508 0.0025 0.0
O58 O 0.51253 1.01105 0.8857 0.0
O59 O 0.56105 0.08875 0.9037 0.0
C60 C 0.53516 0.95618 0.02374 0.0
O61 O 0.45649 0.9658 0.07344 0.0
O62 O 0.45252 0.9912 0.93704 0.0
C63 C 0.54263 1.04534 0.20203 0.0
C64 C 0.67237 0.16769 0.02444 0.0
C65 C 0.73834 0.23436 -1e-05 0.0
C66 C 0.72551 0.24737 0.0641 0.0
C67 C 0.69291 0.21411 0.07681 0.0
C68 C 0.68484 0.15677 0.95634 0.0
C69 C 0.71734 0.18955 0.94448 0.0
C70 C 0.64083 0.12616 0.05107 0.0
C71 C 0.54085 0.1377 0.03535 0.0
H72 H 0.3309 0.86148 0.85586 0.0
H73 H 0.39007 0.9122 0.8576 0.0
H74 H 0.40424 0.94831 0.14108 0.0
H75 H 0.34546 0.89878 0.13906 0.0
H76 H 0.74117 0.2815 0.10826 0.0
H77 H 0.68433 0.22338 0.13081 0.0
H78 H 0.67001 0.12118 0.91541 0.0
H79 H 0.72646 0.17864 0.89417 0.0
Tb80 Tb 0.5748 0.58048 0.0579 0.0
Tb81 Tb 0.49544 0.50679 0.03356 0.0
C82 C 0.53791 0.55154 0.21972 0.0
C83 C 0.66103 0.62774 0.05539 0.0
C84 C 0.70972 0.61449 0.01326 0.0
C85 C 0.71708 0.66368 0.03838 0.0
C86 C 0.69289 0.67019 0.05936 0.0
C87 C 0.65341 0.57859 0.0301 0.0
C88 C 0.67761 0.57197 0.00936 0.0
C89 C 0.63584 0.63526 0.07637 0.0
O90 O 0.56459 0.50229 0.08499 0.0
O91 O 0.51088 0.45377 0.02102 0.0
O92 O 0.50876 0.53707 0.90247 0.0
O93 O 0.55782 0.54466 0.92441 0.0
O94 O 0.45309 0.47766 0.09095 0.0
O95 O 0.45088 0.45259 0.95681 0.0
O96 O 0.50564 0.58448 0.04677 0.0
O97 O 0.55902 0.6345 0.02305 0.0
O98 O 0.55924 0.58998 0.17784 0.0
O99 O 0.51455 0.5089 0.17492 0.0
C100 C 0.53803 0.45749 0.05607 0.0
O101 O 0.617 0.63626 0.00707 0.0
O102 O 0.61951 0.60697 0.13902 0.0
C103 C 0.53364 0.54216 0.87084 0.0
C104 C 0.40713 0.4571 0.98829 0.0
C105 C 0.35514 0.47133 0.94722 0.0
C106 C 0.38642 0.51012 0.93083 0.0
C107 C 0.41228 0.50307 0.95143 0.0
C108 C 0.37591 0.41788 0.00244 0.0
C109 C 0.35009 0.42485 0.98196 0.0
C110 C 0.43429 0.45078 0.01816 0.0
C111 C 0.53119 0.62923 0.03132 0.0
H112 H 0.74146 0.6973 0.04059 0.0
H113 H 0.69901 0.70842 0.0782 0.0
H114 H 0.62879 0.54542 0.02651 0.0
H115 H 0.67126 0.53354 0.9912 0.0
H116 H 0.39109 0.54646 0.90475 0.0
H117 H 0.43637 0.53379 0.94049 0.0
H118 H 0.3716 0.3822 0.03096 0.0
H119 H 0.32618 0.39395 -0.00606 0.0
H120 H 1.0188 0.59876 0.64678 0.0
H121 H 0.04649 0.48877 0.72129 0.0
H122 H 0.05361 0.4822 0.56534 0.0
H123 H 0.97206 0.53402 0.4319 0.0
H124 H 0.98375 0.59268 0.37426 0.0
H125 H 0.98216 0.59126 0.49316 0.0
H126 H 0.04197 0.66818 0.52215 0.0
H127 H 0.04375 0.6698 0.40331 0.0
H128 H 0.07279 0.66355 0.48082 0.0
H129 H 0.05918 0.48829 0.40541 0.0
H130 H 0.0586 0.50103 0.24332 0.0
H131 H 1.02358 0.60236 0.26367 0.0
C132 C 1.02648 0.57355 0.62988 0.0
C133 C 1.03215 0.54429 0.69603 0.0
C134 C 0.0418 0.51123 0.67161 0.0
C135 C 0.04608 0.50741 0.58327 0.0
C136 C 0.04016 0.53635 0.51952 0.0
C137 C 1.0302 0.56832 0.54087 0.0
C138 C 1.02413 0.59312 0.45741 0.0
C139 C 0.9884 0.57678 0.43805 0.0
C140 C 0.04703 0.65217 0.46649 0.0
C141 C 1.03242 0.57014 0.38646 0.0
C142 C 0.04199 0.53805 0.42462 0.0
C143 C 0.05161 0.51311 0.37443 0.0
C144 C 0.05131 0.52082 0.28236 0.0
C145 C 0.04104 0.55266 0.24075 0.0
C146 C 1.03137 0.57757 0.29361 0.0
H147 H 0.49678 1.02279 0.31263 0.0
H148 H 0.59723 0.0705 0.317 0.0
H149 H 0.60508 0.07307 0.48175 0.0
H150 H 0.51054 0.10098 0.50606 0.0
H151 H 0.47401 0.0532 0.54885 0.0
H152 H 0.47551 0.05415 0.42995 0.0
H153 H 0.45889 0.95874 0.42877 0.0
H154 H 0.45741 0.95753 0.54777 0.0
H155 H 0.48257 0.94029 0.50383 0.0
H156 H 0.60382 0.07512 0.64317 0.0
H157 H 0.59283 0.07379 0.79759 0.0
H158 H 0.49254 1.02052 0.69624 0.0
C159 C 0.52038 1.03374 0.34844 0.0
C160 C 0.54638 1.04642 0.30155 0.0
C161 C 0.57685 0.06034 0.35092 0.0
C162 C 0.58163 0.06199 0.44476 0.0
C163 C 0.55565 1.04919 0.48884 0.0
C164 C 0.52555 1.03505 0.44293 0.0
C165 C 0.50194 1.02327 0.50826 0.0
C166 C 0.48979 0.06011 0.49763 0.0
C167 C 0.47352 0.96658 0.49643 0.0
C168 C 0.52373 1.03369 0.59768 0.0
C169 C 0.55462 1.04876 0.58409 0.0
C170 C 0.57969 0.06294 0.65493 0.0
C171 C 0.57322 0.0622 0.74232 0.0
C172 C 0.54186 1.04684 0.75859 0.0
C173 C 0.5166 1.03169 0.68542 0.0
H174 H 0.48927 0.49035 0.71818 0.0
H175 H 0.58756 0.61728 0.81069 0.0
H176 H 0.59788 0.63434 0.65428 0.0
H177 H 0.51043 0.44411 0.54311 0.0
H178 H 0.47454 0.42598 0.46389 0.0
H179 H 0.47315 0.42578 0.58278 0.0
H180 H 0.45237 0.48739 0.5641 0.0
H181 H 0.45349 0.48751 0.44499 0.0
H182 H 0.47522 0.54759 0.51079 0.0
H183 H 0.59889 0.6369 0.4927 0.0
H184 H 0.59126 0.62408 0.32927 0.0
H185 H 0.49305 0.49253 0.33428 0.0
C186 C 0.51268 0.52217 0.7048 0.0
C187 C 0.53763 0.55285 0.77597 0.0
C188 C 0.56823 0.59346 0.7568 0.0
C189 C 0.57429 0.60352 0.66831 0.0
C190 C 0.54959 0.57221 0.59956 0.0
C191 C 0.51942 0.53222 0.61609 0.0
C192 C 0.49809 0.50286 0.52888 0.0
C193 C 0.48849 0.44633 0.52975 0.0
C194 C 0.46801 0.50657 0.51116 0.0
C195 C 0.52116 0.53261 0.46147 0.0
C196 C 0.55056 0.57266 0.50437 0.0
C197 C 0.57597 0.6058 0.45803 0.0
C198 C 0.57132 0.59811 0.36496 0.0
C199 C 0.54153 0.55731 0.31865 0.0
C200 C 0.51611 0.52393 0.36781 0.0
H201 H 0.19542 0.44964 0.05367 0.0
H202 H 0.19079 0.51724 0.79787 0.0
H203 H 0.2421 0.52706 0.77378 0.0
H204 H 0.28264 0.52866 0.11628 0.0
H205 H 0.2851 0.47651 0.16634 0.0
H206 H 0.24892 0.47739 0.16522 0.0
H207 H 0.21439 0.38642 0.08521 0.0
H208 H 0.25043 0.38528 0.08598 0.0
H209 H 0.22446 0.37559 0.98142 0.0
H210 H 0.29305 0.52639 0.77532 0.0
H211 H 0.33926 0.51463 0.80235 0.0
H212 H 0.30971 0.44684 0.0562 0.0
C213 C 0.2051 0.46637 0.99241 0.0
C214 C 0.18909 0.48272 0.92774 0.0
C215 C 0.20285 0.50507 0.84901 0.0
C216 C 0.2319 0.51059 0.83449 0.0
C217 C 0.2469 0.49365 0.89937 0.0
C218 C 0.23398 0.47208 0.97681 0.0
C219 C 0.25436 0.45583 0.0351 0.0
C220 C 0.2686 0.48644 0.12611 0.0
C221 C 0.23473 0.39731 0.04761 0.0
C222 C 0.28051 0.47089 0.97771 0.0
C223 C 0.27597 0.49297 0.89998 0.0
C224 C 0.29694 0.50936 0.83619 0.0
C225 C 0.32315 0.50272 0.85222 0.0
C226 C 0.32797 0.47962 0.93111 0.0
C227 C 0.30641 0.46396 -0.00534 0.0
H228 H 0.78118 0.33949 0.9839 0.0
H229 H 0.776 0.19452 0.01101 0.0
H230 H 0.83488 0.24003 0.00786 0.0
H231 H 0.83937 0.39077 0.82793 0.0
H232 H 0.86117 0.4564 0.87234 0.0
H233 H 0.81868 0.41395 0.88049 0.0
H234 H 0.8304 0.43072 0.05258 0.0
H235 H 0.87293 0.47417 0.04601 0.0
H236 H 0.85988 0.42055 0.11844 0.0
H237 H 0.89441 0.30086 0.00525 0.0
H238 H 0.95042 0.3727 -0.00449 0.0
H239 H 0.9177 0.4787 0.96326 0.0
C240 C 0.79257 0.31754 0.98951 0.0
C241 C 0.77398 0.26336 -0.00241 0.0
C242 C 0.78969 0.23589 0.00397 0.0
C243 C 0.82316 0.26144 0.00263 0.0
C244 C 0.84078 0.31465 -0.006 0.0
C245 C 0.8261 0.34248 0.98682 0.0
C246 C 0.85071 0.39921 0.97498 0.0
C247 C 0.84195 0.41607 0.88352 0.0
C248 C 0.85365 0.43316 0.05265 0.0
C249 C 0.88148 0.39885 0.97813 0.0
C250 C 0.87514 0.34965 0.98947 0.0
C251 C 0.89965 0.33955 -0.00408 0.0
C252 C 0.93147 0.38073 0.99049 0.0
C253 C 0.93869 0.43159 0.97796 0.0
C254 C 0.91314 0.44043 0.97166 0.0
H255 H 0.58146 0.92842 0.03275 0.0
H256 H 0.47766 0.86428 -0.00079 0.0
H257 H 0.46692 0.77714 -0.00665 0.0
H258 H 0.57619 0.83056 0.8847 0.0
H259 H 0.60775 0.82693 0.95442 0.0
H260 H 0.60845 0.88611 0.95316 0.0
H261 H 0.61058 0.88581 0.12583 0.0
H262 H 0.60987 0.82664 0.12759 0.0
H263 H 0.57973 0.83007 0.17564 0.0
H264 H 0.4658 0.69688 -0.00405 0.0
H265 H 0.47452 0.62573 0.00602 0.0
H266 H 0.57884 0.73559 0.03701 0.0
C267 C 0.55652 0.896 0.02345 0.0
C268 C 0.53048 0.90395 0.01698 0.0
C269 C 0.49822 0.86006 0.00535 0.0
C270 C 0.49171 0.80996 0.00151 0.0
C271 C 0.51761 0.80338 0.00924 0.0
C272 C 0.54941 0.84482 0.01979 0.0
C273 C 0.57235 0.82544 0.02836 0.0
C274 C 0.59238 0.84333 0.95052 0.0
C275 C 0.59444 0.84305 0.1198 0.0
C276 C 0.54832 0.76696 0.02169 0.0
C277 C 0.51694 0.75568 0.01044 0.0
C278 C 0.49026 0.70515 0.00441 0.0
C279 C 0.49557 0.66479 0.01048 0.0
C280 C 0.52738 0.67444 0.02236 0.0
C281 C 0.55419 0.7266 0.02735 0.0
H282 H 0.88832 0.66951 0.05986 0.0
H283 H 0.85482 0.56545 0.82624 0.0
H284 H 0.79981 0.54866 0.81984 0.0
H285 H 0.81553 0.5964 0.16149 0.0
H286 H 0.8177 0.65278 0.20141 0.0
H287 H 0.85434 0.65594 0.18845 0.0
H288 H 0.87004 0.73266 0.08452 0.0
H289 H 0.83348 0.72977 0.09722 0.0
H290 H 0.84194 0.72553 0.98658 0.0
H291 H 0.7489 0.54481 0.83671 0.0
H292 H 0.7055 0.55432 0.87581 0.0
H293 H 0.77223 0.65989 0.09958 0.0
C294 C 0.86946 0.64346 0.00705 0.0
C295 C 0.87578 0.61873 0.94365 0.0
C296 C 0.85037 0.58434 0.87617 0.0
C297 C 0.81911 0.57472 0.87174 0.0
C298 C 0.81369 0.59969 0.93537 0.0
C299 C 0.83811 0.63329 0.00179 0.0
C300 C 0.8259 0.65526 0.06177 0.0
C301 C 0.82852 0.63911 0.15903 0.0
C302 C 0.84391 0.7143 0.05719 0.0
C303 C 0.79089 0.62924 0.01799 0.0
C304 C 0.78429 0.59721 0.9454 0.0
C305 C 0.75369 0.56953 0.89376 0.0
C306 C 0.72917 0.57496 0.91678 0.0
C307 C 0.73548 0.60781 0.99075 0.0
C308 C 0.76675 0.63496 0.04205 0.0
H309 H 0.14885 0.63356 0.92118 0.0
H310 H 0.12361 0.73073 0.04105 0.0
H311 H 0.18073 0.80285 0.05754 0.0
H312 H 0.22637 0.6837 0.06242 0.0
H313 H 0.24583 0.67989 0.97341 0.0
H314 H 0.20281 0.63591 0.97143 0.0
H315 H 0.19268 0.66493 0.81267 0.0
H316 H 0.23569 0.70964 0.81541 0.0
H317 H 0.2086 0.73239 0.79603 0.0
H318 H 0.24069 0.86394 0.06635 0.0
H319 H 0.29963 0.91099 0.06199 0.0
H320 H 0.28688 0.77645 0.93261 0.0
C321 C 0.15527 0.66999 0.95074 0.0
C322 C 0.13146 0.67616 0.97976 0.0
C323 C 0.14114 0.72472 0.01802 0.0
C324 C 0.17363 0.76607 0.02784 0.0
C325 C 0.1964 0.75865 -0.00113 0.0
C326 C 0.18772 0.71194 0.96083 0.0
C327 C 0.21719 0.71445 0.93568 0.0
C328 C 0.22342 0.67622 0.9889 0.0
C329 C 0.2133 0.70479 0.83388 0.0
C330 C 0.24369 0.76994 0.96511 0.0
C331 C 0.23111 0.79449 0.00207 0.0
C332 C 0.2508 0.84522 0.03709 0.0
C333 C 0.28426 0.87159 0.0346 0.0
C334 C 0.29782 0.84752 -0.00332 0.0
C335 C 0.27712 0.79605 0.96091 0.0
H336 H 0.58593 0.43468 0.04721 0.0
H337 H 0.486 0.36652 0.08917 0.0
H338 H 0.47847 0.28119 0.0961 0.0
H339 H 0.57047 0.33117 0.90385 0.0
H340 H 0.60678 0.33232 0.94782 0.0
H341 H 0.60634 0.3903 0.95298 0.0
H342 H 0.62432 0.39955 0.12483 0.0
H343 H 0.62493 0.34164 0.12027 0.0
H344 H 0.60093 0.34669 0.19358 0.0
H345 H 0.47908 0.2032 0.08986 0.0
H346 H 0.48787 0.13339 0.07198 0.0
H347 H 0.58756 0.24515 0.03358 0.0
C348 C 0.56272 0.40182 0.05942 0.0
C349 C 0.5365 0.4077 0.0676 0.0
C350 C 0.50639 0.36342 0.08207 0.0
C351 C 0.50184 0.31454 0.08649 0.0
C352 C 0.5276 0.30968 0.07636 0.0
C353 C 0.55755 0.35174 0.06343 0.0
C354 C 0.58032 0.33383 0.0509 0.0
C355 C 0.59164 0.34774 0.95837 0.0
C356 C 0.60936 0.35681 0.12693 0.0
C357 C 0.55812 0.27532 0.05717 0.0
C358 C 0.52795 0.26301 0.0725 0.0
C359 C 0.50264 0.21228 0.0783 0.0
C360 C 0.50792 0.1727 0.06747 0.0
C361 C 0.53835 0.18319 0.05081 0.0
C362 C 0.56408 0.23563 0.04685 0.0
loop_
_geom_bond_atom_site_label_1
_geom_bond_atom_site_label_2
_geom_bond_distance
_geom_bond_site_symmetry_2
_ccdc_geom_bond_type
Tb0 C9 2.764 . S
Tb0 O10 2.325 . S
Tb0 O13 2.290 1_656 S
Tb0 O17 2.322 1_655 S
Tb0 O18 2.349 . S
Tb0 O21 2.415 1_556 S
Tb0 O22 2.399 . S
Tb1 O11 2.322 1_455 S
Tb1 O12 2.349 . S
Tb1 O14 2.415 1_554 S
Tb1 O15 2.399 . S
Tb1 O16 2.325 . S
Tb1 O19 2.303 1_554 S
Tb1 C30 2.764 . S
C2 O18 1.261 . S
C2 O19 1.257 1_655 S
C3 C6 1.358 . S
C3 C7 1.332 1_556 S
C3 C9 1.504 . S
C4 C5 1.373 1_554 S
C4 C8 1.308 . S
C5 C4 1.373 1_556 S
C5 C6 1.429 . S
C5 H32 0.932 . S
C6 C3 1.358 . S
C6 C5 1.429 . S
C6 H33 0.930 . S
C7 C3 1.332 1_554 S
C7 C8 1.394 . S
C7 H34 0.932 . S
C8 C4 1.308 . S
C8 C7 1.394 . S
C8 H35 0.929 . S
C9 Tb0 2.764 . S
C9 C3 1.504 . S
C9 O21 1.239 1_556 S
C9 O22 1.263 . S
O10 Tb0 2.325 . S
O10 C20 1.236 . S
O11 Tb1 2.322 1_655 S
O11 C20 1.257 1_554 S
O12 Tb1 2.349 . S
O12 C23 1.261 . S
O13 Tb0 2.290 1_454 S
O13 C23 1.268 . S
O14 Tb1 2.415 1_556 S
O14 C30 1.239 1_556 S
O15 Tb1 2.399 . S
O15 C30 1.263 . S
O16 Tb1 2.325 . S
O16 C31 1.236 . S
O17 Tb0 2.322 1_455 S
O17 C31 1.257 1_556 S
O18 Tb0 2.349 . S
O18 C2 1.261 . S
O19 Tb1 2.303 1_556 S
O19 C2 1.257 1_455 S
C20 O10 1.236 . S
C20 O11 1.257 1_556 S
O21 Tb0 2.415 1_554 S
O21 C9 1.239 1_554 S
O22 Tb0 2.399 . S
O22 C9 1.263 . S
C23 O12 1.261 . S
C23 O13 1.268 . S
C24 C27 1.358 . S
C24 C28 1.332 1_554 S
C24 C30 1.504 . S
C25 C26 1.373 1_556 S
C25 C29 1.308 . S
C26 C25 1.373 1_554 S
C26 C27 1.429 . S
C26 H36 0.932 . S
C27 C24 1.358 . S
C27 C26 1.429 . S
C27 H37 0.930 . S
C28 C24 1.332 1_556 S
C28 C29 1.394 . S
C28 H38 0.932 . S
C29 C25 1.308 . S
C29 C28 1.394 . S
C29 H39 0.929 . S
C30 Tb1 2.764 . S
C30 O14 1.239 1_554 S
C30 O15 1.263 . S
C30 C24 1.504 . S
C31 O16 1.236 . S
C31 O17 1.257 1_554 S
H32 C5 0.932 . S
H33 C6 0.930 . S
H34 C7 0.932 . S
H35 C8 0.929 . S
H36 C26 0.932 . S
H37 C27 0.930 . S
H38 C28 0.932 . S
H39 C29 0.929 . S
Tb40 C49 2.764 . S
Tb40 O50 2.325 . S
Tb40 O53 2.303 1_556 S
Tb40 O57 2.322 1_565 S
Tb40 O58 2.349 . S
Tb40 O61 2.415 1_556 S
Tb40 O62 2.399 . S
Tb41 O51 2.322 1_545 S
Tb41 O52 2.349 . S
Tb41 O54 2.415 1_554 S
Tb41 O55 2.399 . S
Tb41 O56 2.325 . S
Tb41 O59 2.303 1_554 S
Tb41 C70 2.764 . S
C42 O58 1.261 . S
C42 O59 1.257 1_565 S
C43 C46 1.358 . S
C43 C47 1.332 1_556 S
C43 C49 1.504 . S
C44 C45 1.373 . S
C44 C48 1.308 1_556 S
C45 C44 1.373 . S
C45 C46 1.429 . S
C45 H72 0.932 . S
C46 C43 1.358 . S
C46 C45 1.429 . S
C46 H73 0.930 . S
C47 C43 1.332 1_554 S
C47 C48 1.394 . S
C47 H74 0.932 . S
C48 C44 1.308 1_554 S
C48 C47 1.394 . S
C48 H75 0.929 . S
C49 Tb40 2.764 . S
C49 C43 1.504 . S
C49 O61 1.239 1_556 S
C49 O62 1.263 . S
O50 Tb40 2.325 . S
O50 C60 1.236 1_556 S
O51 Tb41 2.322 1_565 S
O51 C60 1.257 . S
O52 Tb41 2.349 . S
O52 C63 1.261 . S
O53 Tb40 2.303 1_554 S
O53 C63 1.257 1_565 S
O54 Tb41 2.415 1_556 S
O54 C70 1.239 1_556 S
O55 Tb41 2.399 . S
O55 C70 1.263 . S
O56 Tb41 2.325 . S
O56 C71 1.236 1_554 S
O57 Tb40 2.322 1_545 S
O57 C71 1.257 . S
O58 Tb40 2.349 . S
O58 C42 1.261 . S
O59 Tb41 2.303 1_556 S
O59 C42 1.257 1_545 S
C60 O50 1.236 1_554 S
C60 O51 1.257 . S
O61 Tb40 2.415 1_554 S
O61 C49 1.239 1_554 S
O62 Tb40 2.399 . S
O62 C49 1.263 . S
C63 O52 1.261 . S
C63 O53 1.257 1_545 S
C64 C67 1.358 . S
C64 C68 1.332 1_554 S
C64 C70 1.504 . S
C65 C66 1.373 . S
C65 C69 1.308 1_554 S
C66 C65 1.373 . S
C66 C67 1.429 . S
C66 H76 0.932 . S
C67 C64 1.358 . S
C67 C66 1.429 . S
C67 H77 0.930 . S
C68 C64 1.332 1_556 S
C68 C69 1.394 . S
C68 H78 0.932 . S
C69 C65 1.308 1_556 S
C69 C68 1.394 . S
C69 H79 0.929 . S
C70 Tb41 2.764 . S
C70 O54 1.239 1_554 S
C70 O55 1.263 . S
C70 C64 1.504 . S
C71 O56 1.236 1_556 S
C71 O57 1.257 . S
H72 C45 0.932 . S
H73 C46 0.930 . S
H74 C47 0.932 . S
H75 C48 0.929 . S
H76 C66 0.932 . S
H77 C67 0.930 . S
H78 C68 0.932 . S
H79 C69 0.929 . S
Tb80 C89 2.764 . S
Tb80 O90 2.325 . S
Tb80 O93 2.303 1_554 S
Tb80 O97 2.322 . S
Tb80 O98 2.349 . S
Tb80 O101 2.415 1_554 S
Tb80 O102 2.399 . S
Tb81 O91 2.322 . S
Tb81 O92 2.349 . S
Tb81 O94 2.415 1_556 S
Tb81 O95 2.399 . S
Tb81 O96 2.325 . S
Tb81 O99 2.303 1_556 S
Tb81 C110 2.764 . S
C82 O98 1.261 . S
C82 O99 1.257 . S
C83 C86 1.358 . S
C83 C87 1.332 1_554 S
C83 C89 1.504 . S
C84 C85 1.373 . S
C84 C88 1.308 1_554 S
C85 C84 1.373 . S
C85 C86 1.429 . S
C85 H112 0.932 . S
C86 C83 1.358 . S
C86 C85 1.429 . S
C86 H113 0.930 . S
C87 C83 1.332 1_556 S
C87 C88 1.394 . S
C87 H114 0.932 . S
C88 C84 1.308 1_556 S
C88 C87 1.394 . S
C88 H115 0.929 . S
C89 Tb80 2.764 . S
C89 C83 1.504 . S
C89 O101 1.239 1_554 S
C89 O102 1.263 . S
O90 Tb80 2.325 . S
O90 C100 1.236 1_554 S
O91 Tb81 2.322 . S
O91 C100 1.257 . S
O92 Tb81 2.349 . S
O92 C103 1.261 . S
O93 Tb80 2.303 1_556 S
O93 C103 1.257 . S
O94 Tb81 2.415 1_554 S
O94 C110 1.239 1_554 S
O95 Tb81 2.399 . S
O95 C110 1.263 . S
O96 Tb81 2.325 . S
O96 C111 1.236 1_556 S
O97 Tb80 2.322 . S
O97 C111 1.257 . S
O98 Tb80 2.349 . S
O98 C82 1.261 . S
O99 Tb81 2.303 1_554 S
O99 C82 1.257 . S
C100 O90 1.236 1_556 S
C100 O91 1.257 . S
O101 Tb80 2.415 1_556 S
O101 C89 1.239 1_556 S
O102 Tb80 2.399 . S
O102 C89 1.263 . S
C103 O92 1.261 . S
C103 O93 1.257 . S
C104 C107 1.358 . S
C104 C108 1.332 1_556 S
C104 C110 1.504 . S
C105 C106 1.373 . S
C105 C109 1.308 1_556 S
C106 C105 1.373 . S
C106 C107 1.429 . S
C106 H116 0.932 . S
C107 C104 1.358 . S
C107 C106 1.429 . S
C107 H117 0.930 . S
C108 C104 1.332 1_554 S
C108 C109 1.394 . S
C108 H118 0.932 . S
C109 C105 1.308 1_554 S
C109 C108 1.394 . S
C109 H119 0.929 . S
C110 Tb81 2.764 . S
C110 O94 1.239 1_556 S
C110 O95 1.263 . S
C110 C104 1.504 . S
C111 O96 1.236 1_554 S
C111 O97 1.257 . S
H112 C85 0.932 . S
H113 C86 0.930 . S
H114 C87 0.932 . S
H115 C88 0.929 . S
H116 C106 0.932 . S
H117 C107 0.930 . S
H118 C108 0.932 . S
H119 C109 0.929 . S
H120 C132 0.930 . S
H121 C134 0.930 . S
H122 C135 0.930 . S
H123 C139 0.959 1_655 S
H124 C139 0.959 . S
H125 C139 0.961 . S
H126 C140 0.960 . S
H127 C140 0.961 . S
H128 C140 0.959 . S
H129 C143 0.929 . S
H130 C144 0.931 . S
H131 C146 0.930 . S
C132 H120 0.930 . S
C132 C133 1.399 . S
C132 C137 1.399 . S
C133 C132 1.399 . S
C133 C134 1.376 1_455 S
C134 H121 0.930 . S
C134 C133 1.376 1_655 S
C134 C135 1.388 . S
C135 H122 0.930 . S
C135 C134 1.388 . S
C135 C136 1.390 . S
C136 C135 1.390 . S
C136 C137 1.394 1_655 S
C136 C142 1.465 . S
C137 C132 1.399 . S
C137 C136 1.394 1_455 S
C137 C138 1.516 . S
C138 C137 1.516 . S
C138 C139 1.502 . S
C138 C140 1.561 . S
C138 C141 1.526 . S
C139 H123 0.959 1_455 S
C139 H124 0.959 . S
C139 H125 0.961 . S
C139 C138 1.502 . S
C140 H126 0.960 . S
C140 H127 0.961 . S
C140 H128 0.959 . S
C140 C138 1.561 . S
C141 C138 1.526 . S
C141 C142 1.396 1_455 S
C141 C146 1.390 . S
C142 C136 1.465 . S
C142 C141 1.396 1_655 S
C142 C143 1.399 . S
C143 H129 0.929 . S
C143 C142 1.399 . S
C143 C144 1.385 . S
C144 H130 0.931 . S
C144 C143 1.385 . S
C144 C145 1.389 1_655 S
C145 C144 1.389 1_455 S
C145 C146 1.387 . S
C146 H131 0.930 . S
C146 C141 1.390 . S
C146 C145 1.387 . S
H147 C159 0.930 . S
H148 C161 0.930 . S
H149 C162 0.930 . S
H150 C166 0.959 . S
H151 C166 0.959 . S
H152 C166 0.961 . S
H153 C167 0.960 . S
H154 C167 0.961 . S
H155 C167 0.959 . S
H156 C170 0.929 . S
H157 C171 0.931 . S
H158 C173 0.930 . S
C159 H147 0.930 . S
C159 C160 1.406 . S
C159 C164 1.399 . S
C160 C159 1.406 . S
C160 C161 1.367 1_565 S
C161 H148 0.930 . S
C161 C160 1.367 1_545 S
C161 C162 1.388 . S
C162 H149 0.930 . S
C162 C161 1.388 . S
C162 C163 1.390 . S
C163 C162 1.390 . S
C163 C164 1.394 1_545 S
C163 C169 1.465 . S
C164 C159 1.399 . S
C164 C163 1.394 1_565 S
C164 C165 1.516 . S
C165 C164 1.516 . S
C165 C166 1.502 . S
C165 C167 1.561 . S
C165 C168 1.526 . S
C166 H150 0.959 . S
C166 H151 0.959 . S
C166 H152 0.961 . S
C166 C165 1.502 . S
C167 H153 0.960 . S
C167 H154 0.961 . S
C167 H155 0.959 . S
C167 C165 1.561 . S
C168 C165 1.526 . S
C168 C169 1.396 1_565 S
C168 C173 1.390 . S
C169 C163 1.465 . S
C169 C168 1.396 1_545 S
C169 C170 1.399 . S
C170 H156 0.929 . S
C170 C169 1.399 . S
C170 C171 1.385 . S
C171 H157 0.931 . S
C171 C170 1.385 . S
C171 C172 1.389 . S
C172 C171 1.389 . S
C172 C173 1.387 1_545 S
C173 H158 0.930 . S
C173 C168 1.390 . S
C173 C172 1.387 1_565 S
H174 C186 0.930 . S
H175 C188 0.930 . S
H176 C189 0.930 . S
H177 C193 0.959 . S
H178 C193 0.959 . S
H179 C193 0.961 . S
H180 C194 0.960 . S
H181 C194 0.961 . S
H182 C194 0.959 . S
H183 C197 0.929 . S
H184 C198 0.931 . S
H185 C200 0.930 . S
C186 H174 0.930 . S
C186 C187 1.399 . S
C186 C191 1.399 . S
C187 C186 1.399 . S
C187 C188 1.376 . S
C188 H175 0.930 . S
C188 C187 1.376 . S
C188 C189 1.388 . S
C189 H176 0.930 . S
C189 C188 1.388 . S
C189 C190 1.390 . S
C190 C189 1.390 . S
C190 C191 1.394 . S
C190 C196 1.465 . S
C191 C186 1.399 . S
C191 C190 1.394 . S
C191 C192 1.516 . S
C192 C191 1.516 . S
C192 C193 1.502 . S
C192 C194 1.561 . S
C192 C195 1.526 . S
C193 H177 0.959 . S
C193 H178 0.959 . S
C193 H179 0.961 . S
C193 C192 1.502 . S
C194 H180 0.960 . S
C194 H181 0.961 . S
C194 H182 0.959 . S
C194 C192 1.561 . S
C195 C192 1.526 . S
C195 C196 1.396 . S
C195 C200 1.390 . S
C196 C190 1.465 . S
C196 C195 1.396 . S
C196 C197 1.399 . S
C197 H183 0.929 . S
C197 C196 1.399 . S
C197 C198 1.385 . S
C198 H184 0.931 . S
C198 C197 1.385 . S
C198 C199 1.389 . S
C199 C198 1.389 . S
C199 C200 1.387 . S
C200 H185 0.930 . S
C200 C195 1.390 . S
C200 C199 1.387 . S
H201 C213 0.930 . S
H202 C215 0.930 . S
H203 C216 0.930 . S
H204 C220 0.959 . S
H205 C220 0.959 . S
H206 C220 0.961 . S
H207 C221 0.960 . S
H208 C221 0.961 . S
H209 C221 0.959 . S
H210 C224 0.929 . S
H211 C225 0.931 . S
H212 C227 0.930 . S
C213 H201 0.930 . S
C213 C214 1.399 1_554 S
C213 C218 1.399 . S
C214 C213 1.399 1_556 S
C214 C215 1.376 . S
C215 H202 0.930 . S
C215 C214 1.376 . S
C215 C216 1.388 . S
C216 H203 0.930 . S
C216 C215 1.388 . S
C216 C217 1.390 . S
C217 C216 1.390 . S
C217 C218 1.394 1_556 S
C217 C223 1.465 . S
C218 C213 1.399 . S
C218 C217 1.394 1_554 S
C218 C219 1.516 . S
C219 C218 1.516 . S
C219 C220 1.502 . S
C219 C221 1.561 . S
C219 C222 1.526 . S
C220 H204 0.959 . S
C220 H205 0.959 . S
C220 H206 0.961 . S
C220 C219 1.502 . S
C221 H207 0.960 . S
C221 H208 0.961 . S
C221 H209 0.959 . S
C221 C219 1.561 . S
C222 C219 1.526 . S
C222 C223 1.396 1_554 S
C222 C227 1.390 . S
C223 C217 1.465 . S
C223 C222 1.396 1_556 S
C223 C224 1.399 . S
C224 H210 0.929 . S
C224 C223 1.399 . S
C224 C225 1.385 . S
C225 H211 0.931 . S
C225 C224 1.385 . S
C225 C226 1.389 . S
C226 C225 1.389 . S
C226 C227 1.387 1_556 S
C227 H212 0.930 . S
C227 C222 1.390 . S
C227 C226 1.387 1_554 S
H228 C240 0.930 . S
H229 C242 0.930 . S
H230 C243 0.930 . S
H231 C247 0.959 . S
H232 C247 0.959 . S
H233 C247 0.961 . S
H234 C248 0.960 . S
H235 C248 0.961 . S
H236 C248 0.959 . S
H237 C251 0.929 . S
H238 C252 0.931 . S
H239 C254 0.930 . S
C240 H228 0.930 . S
C240 C241 1.399 1_554 S
C240 C245 1.399 . S
C241 C240 1.399 1_556 S
C241 C242 1.376 . S
C242 H229 0.930 . S
C242 C241 1.376 . S
C242 C243 1.388 . S
C243 H230 0.930 . S
C243 C242 1.388 . S
C243 C244 1.390 . S
C244 C243 1.390 . S
C244 C245 1.394 1_556 S
C244 C250 1.465 . S
C245 C240 1.399 . S
C245 C244 1.394 1_554 S
C245 C246 1.516 . S
C246 C245 1.516 . S
C246 C247 1.502 . S
C246 C248 1.561 . S
C246 C249 1.526 . S
C247 H231 0.959 . S
C247 H232 0.959 . S
C247 H233 0.961 . S
C247 C246 1.502 . S
C248 H234 0.960 . S
C248 H235 0.961 . S
C248 H236 0.959 . S
C248 C246 1.561 . S
C249 C246 1.526 . S
C249 C250 1.396 1_554 S
C249 C254 1.390 . S
C250 C244 1.465 . S
C250 C249 1.396 1_556 S
C250 C251 1.399 . S
C251 H237 0.929 . S
C251 C250 1.399 . S
C251 C252 1.385 . S
C252 H238 0.931 . S
C252 C251 1.385 . S
C252 C253 1.389 . S
C253 C252 1.389 . S
C253 C254 1.387 1_556 S
C254 H239 0.930 . S
C254 C249 1.390 . S
C254 C253 1.387 1_554 S
H255 C267 0.930 . S
H256 C269 0.930 . S
H257 C270 0.930 . S
H258 C274 0.959 . S
H259 C274 0.959 . S
H260 C274 0.961 . S
H261 C275 0.960 . S
H262 C275 0.961 . S
H263 C275 0.959 . S
H264 C278 0.929 . S
H265 C279 0.931 . S
H266 C281 0.930 . S
C267 H255 0.930 . S
C267 C268 1.399 . S
C267 C272 1.399 . S
C268 C267 1.399 . S
C268 C269 1.376 1_554 S
C269 H256 0.930 . S
C269 C268 1.376 1_556 S
C269 C270 1.388 . S
C270 H257 0.930 . S
C270 C269 1.388 . S
C270 C271 1.390 . S
C271 C270 1.390 . S
C271 C272 1.394 1_556 S
C271 C277 1.465 . S
C272 C267 1.399 . S
C272 C271 1.394 1_554 S
C272 C273 1.516 . S
C273 C272 1.516 . S
C273 C274 1.502 . S
C273 C275 1.561 . S
C273 C276 1.526 . S
C274 H258 0.959 . S
C274 H259 0.959 . S
C274 H260 0.961 . S
C274 C273 1.502 . S
C275 H261 0.960 . S
C275 H262 0.961 . S
C275 H263 0.959 . S
C275 C273 1.561 . S
C276 C273 1.526 . S
C276 C277 1.396 1_554 S
C276 C281 1.390 . S
C277 C271 1.465 . S
C277 C276 1.396 1_556 S
C277 C278 1.399 . S
C278 H264 0.929 . S
C278 C277 1.399 . S
C278 C279 1.385 . S
C279 H265 0.931 . S
C279 C278 1.385 . S
C279 C280 1.389 1_556 S
C280 C279 1.389 1_554 S
C280 C281 1.387 . S
C281 H266 0.930 . S
C281 C276 1.390 . S
C281 C280 1.387 . S
H282 C294 0.930 . S
H283 C296 0.930 . S
H284 C297 0.930 . S
H285 C301 0.959 . S
H286 C301 0.959 . S
H287 C301 0.961 . S
H288 C302 0.960 . S
H289 C302 0.961 . S
H290 C302 0.959 . S
H291 C305 0.929 . S
H292 C306 0.931 . S
H293 C308 0.930 . S
C294 H282 0.930 . S
C294 C295 1.399 . S
C294 C299 1.399 . S
C295 C294 1.399 . S
C295 C296 1.376 1_554 S
C296 H283 0.930 . S
C296 C295 1.376 1_556 S
C296 C297 1.388 . S
C297 H284 0.930 . S
C297 C296 1.388 . S
C297 C298 1.390 . S
C298 C297 1.390 . S
C298 C299 1.394 1_556 S
C298 C304 1.465 . S
C299 C294 1.399 . S
C299 C298 1.394 1_554 S
C299 C300 1.516 . S
C300 C299 1.516 . S
C300 C301 1.502 . S
C300 C302 1.561 . S
C300 C303 1.526 . S
C301 H285 0.959 . S
C301 H286 0.959 . S
C301 H287 0.961 . S
C301 C300 1.502 . S
C302 H288 0.960 . S
C302 H289 0.961 . S
C302 H290 0.959 . S
C302 C300 1.561 . S
C303 C300 1.526 . S
C303 C304 1.396 1_554 S
C303 C308 1.390 . S
C304 C298 1.465 . S
C304 C303 1.396 1_556 S
C304 C305 1.399 . S
C305 H291 0.929 . S
C305 C304 1.399 . S
C305 C306 1.385 . S
C306 H292 0.931 . S
C306 C305 1.385 . S
C306 C307 1.389 1_556 S
C307 C306 1.389 1_554 S
C307 C308 1.387 . S
C308 H293 0.930 . S
C308 C303 1.390 . S
C308 C307 1.387 . S
H309 C321 0.930 . S
H310 C323 0.930 . S
H311 C324 0.930 . S
H312 C328 0.959 . S
H313 C328 0.959 . S
H314 C328 0.961 . S
H315 C329 0.960 . S
H316 C329 0.961 . S
H317 C329 0.959 . S
H318 C332 0.929 . S
H319 C333 0.931 . S
H320 C335 0.930 . S
C321 H309 0.930 . S
C321 C322 1.399 1_556 S
C321 C326 1.399 . S
C322 C321 1.399 1_554 S
C322 C323 1.376 . S
C323 H310 0.930 . S
C323 C322 1.376 . S
C323 C324 1.388 . S
C324 H311 0.930 . S
C324 C323 1.388 . S
C324 C325 1.390 . S
C325 C324 1.390 . S
C325 C326 1.394 1_554 S
C325 C331 1.465 . S
C326 C321 1.399 . S
C326 C325 1.394 1_556 S
C326 C327 1.516 . S
C327 C326 1.516 . S
C327 C328 1.502 . S
C327 C329 1.561 . S
C327 C330 1.526 . S
C328 H312 0.959 . S
C328 H313 0.959 . S
C328 H314 0.961 . S
C328 C327 1.502 . S
C329 H315 0.960 . S
C329 H316 0.961 . S
C329 H317 0.959 . S
C329 C327 1.561 . S
C330 C327 1.526 . S
C330 C331 1.396 1_556 S
C330 C335 1.390 . S
C331 C325 1.465 . S
C331 C330 1.396 1_554 S
C331 C332 1.399 . S
C332 H318 0.929 . S
C332 C331 1.399 . S
C332 C333 1.385 . S
C333 H319 0.931 . S
C333 C332 1.385 . S
C333 C334 1.389 . S
C334 C333 1.389 . S
C334 C335 1.387 1_554 S
C335 H320 0.930 . S
C335 C330 1.390 . S
C335 C334 1.387 1_556 S
H336 C348 0.930 . S
H337 C350 0.930 . S
H338 C351 0.930 . S
H339 C355 0.959 . S
H340 C355 0.959 . S
H341 C355 0.961 . S
H342 C356 0.960 . S
H343 C356 0.961 . S
H344 C356 0.959 . S
H345 C359 0.929 . S
H346 C360 0.931 . S
H347 C362 0.930 . S
C348 H336 0.930 . S
C348 C349 1.399 1_554 S
C348 C353 1.399 . S
C349 C348 1.399 1_556 S
C349 C350 1.376 . S
C350 H337 0.930 . S
C350 C349 1.376 . S
C350 C351 1.388 . S
C351 H338 0.930 . S
C351 C350 1.388 . S
C351 C352 1.390 . S
C352 C351 1.390 . S
C352 C353 1.394 1_556 S
C352 C358 1.465 . S
C353 C348 1.399 . S
C353 C352 1.394 1_554 S
C353 C354 1.516 . S
C354 C353 1.516 . S
C354 C355 1.502 . S
C354 C356 1.561 . S
C354 C357 1.526 . S
C355 H339 0.959 . S
C355 H340 0.959 . S
C355 H341 0.961 . S
C355 C354 1.502 . S
C356 H342 0.960 . S
C356 H343 0.961 . S
C356 H344 0.959 . S
C356 C354 1.561 . S
C357 C354 1.526 . S
C357 C358 1.396 1_554 S
C357 C362 1.390 . S
C358 C352 1.465 . S
C358 C357 1.396 1_556 S
C358 C359 1.399 . S
C359 H345 0.929 . S
C359 C358 1.399 . S
C359 C360 1.385 . S
C360 H346 0.931 . S
C360 C359 1.385 . S
C360 C361 1.389 . S
C361 C360 1.389 . S
C361 C362 1.387 1_556 S
C362 H347 0.930 . S
C362 C357 1.390 . S
C362 C361 1.387 1_554 S
C133 C2 1.485 1_455 S
C145 C23 1.437 . S
C160 C63 1.438 1_565 S
C172 C42 1.499 1_545 S
C187 C103 1.445 . S
C199 C82 1.475 . S
C214 C25 0.802 . S
C226 C105 0.752 . S
C241 C65 1.781 1_556 S
C253 C20 1.813 . S
C268 C60 2.503 . S
C280 C111 2.513 . S
C295 C4 0.800 . S
C307 C84 0.743 . S
C322 C31 1.813 . S
C334 C44 1.791 1_554 S
C349 C100 2.527 . S
C361 C71 2.498 . S
