# Generated by pormake.
# Topology smu, (6)-cn, num edge types: 1
# Building blocks:
#     Node 0, Type 0, BuildingBlock: MIFKUJ_clean_sbu_0, # of connection points: 6
#     Node 1, Type 0, BuildingBlock: MIFKUJ_clean_sbu_0, # of connection points: 6
#     Node 2, Type 0, BuildingBlock: MIFKUJ_clean_sbu_0, # of connection points: 6
#     Node 3, Type 0, BuildingBlock: MIFKUJ_clean_sbu_0, # of connection points: 6
#     Node 4, Type 0, BuildingBlock: MIFKUJ_clean_sbu_0, # of connection points: 6
#     Node 5, Type 0, BuildingBlock: MIFKUJ_clean_sbu_0, # of connection points: 6
#     Edge 6, Type (0, 0), BuildingBlock: CIFDUS_clean_linker_0, # of connection points: 2
#     Edge 7, Type (0, 0), BuildingBlock: CIFDUS_clean_linker_0, # of connection points: 2
#     Edge 8, Type (0, 0), BuildingBlock: CIFDUS_clean_linker_0, # of connection points: 2
#     Edge 9, Type (0, 0), BuildingBlock: CIFDUS_clean_linker_0, # of connection points: 2
#     Edge 10, Type (0, 0), BuildingBlock: CIFDUS_clean_linker_0, # of connection points: 2
#     Edge 11, Type (0, 0), BuildingBlock: CIFDUS_clean_linker_0, # of connection points: 2
#     Edge 12, Type (0, 0), BuildingBlock: CIFDUS_clean_linker_0, # of connection points: 2
#     Edge 13, Type (0, 0), BuildingBlock: CIFDUS_clean_linker_0, # of connection points: 2
#     Edge 14, Type (0, 0), BuildingBlock: CIFDUS_clean_linker_0, # of connection points: 2
#     Edge 15, Type (0, 0), BuildingBlock: CIFDUS_clean_linker_0, # of connection points: 2
#     Edge 16, Type (0, 0), BuildingBlock: CIFDUS_clean_linker_0, # of connection points: 2
#     Edge 17, Type (0, 0), BuildingBlock: CIFDUS_clean_linker_0, # of connection points: 2
#     Edge 18, Type (0, 0), BuildingBlock: CIFDUS_clean_linker_0, # of connection points: 2
#     Edge 19, Type (0, 0), BuildingBlock: CIFDUS_clean_linker_0, # of connection points: 2
#     Edge 20, Type (0, 0), BuildingBlock: CIFDUS_clean_linker_0, # of connection points: 2
#     Edge 21, Type (0, 0), BuildingBlock: CIFDUS_clean_linker_0, # of connection points: 2
#     Edge 22, Type (0, 0), BuildingBlock: CIFDUS_clean_linker_0, # of connection points: 2
#     Edge 23, Type (0, 0), BuildingBlock: CIFDUS_clean_linker_0, # of connection points: 2
# Relax obj value: 0.236
# Max RMSD: 0.300
# Mean RMSD: 0.300
data_MOF--net-smu--node1-MIFKUJ_clean_sbu_0--edge1-CIFDUS_clean_linker_0
_symmetry_space_group_name_H-M    P1
_symmetry_Int_Tables_number       1
_symmetry_cell_setting            triclinic
loop_
_symmetry_equiv_pos_as_xyz
'x, y, z'
_cell_length_a     29.276938
_cell_length_b     30.20836
_cell_length_c     23.953581
_cell_angle_alpha  89.796421
_cell_angle_beta   89.925994
_cell_angle_gamma 118.43736
loop_
_atom_site_label
_atom_site_type_symbol
_atom_site_fract_x
_atom_site_fract_y
_atom_site_fract_z
_atom_type_partial_charge
Zn0 Zn 0.31443 0.01792 0.24438 0.0
Zn1 Zn 0.40453 0.1266 0.23725 0.0
C2 C 0.25659 0.06728 0.28255 0.0
O3 O 0.24844 0.03716 0.32546 0.0
C4 C 0.49787 0.13306 0.19184 0.0
O5 O 0.48289 0.14996 0.14879 0.0
O6 O 0.25071 0.94968 0.24826 0.0
O7 O 0.3524 0.02199 0.175 0.0
O8 O 0.3648 0.09908 0.16452 0.0
C9 C 0.22408 0.9316 0.20426 0.0
O10 O 0.24115 0.95614 0.15689 0.0
O11 O 0.28538 0.06719 0.24276 0.0
C12 C 0.45741 0.22876 0.27312 0.0
O13 O 0.45823 0.20721 0.32058 0.0
O14 O 0.43388 0.20132 0.23167 0.0
O15 O 0.37356 0.10567 0.31575 0.0
O16 O 0.35727 0.02689 0.31102 0.0
O17 O 0.46878 0.11791 0.23482 0.0
C18 C 0.35842 0.05799 0.14337 0.0
C19 C 0.36892 0.06599 0.33952 0.0
Zn20 Zn 0.83191 0.73844 0.23979 0.0
Zn21 Zn 0.74577 0.60117 0.22456 0.0
C22 C 0.92936 0.75045 0.27649 0.0
O23 O 0.90863 0.75119 0.32494 0.0
C24 C 0.65981 0.50764 0.18222 0.0
O25 O 0.6753 0.52707 0.1322 0.0
O26 O 0.84904 0.81067 0.24916 0.0
O27 O 0.79043 0.71839 0.16879 0.0
O28 O 0.73643 0.63706 0.15778 0.0
C29 C 0.86354 0.84045 0.20755 0.0
O30 O 0.86907 0.82388 0.15872 0.0
O31 O 0.90148 0.74058 0.23292 0.0
C32 C 0.81301 0.56114 0.25282 0.0
O33 O 0.78445 0.54984 0.29833 0.0
O34 O 0.80673 0.5878 0.21547 0.0
O35 O 0.74012 0.62574 0.30099 0.0
O36 O 0.79392 0.70714 0.31069 0.0
O37 O 0.684 0.53257 0.22486 0.0
C38 C 0.75632 0.68231 0.14051 0.0
C39 C 0.75974 0.66536 0.3304 0.0
Zn40 Zn 1.00301 0.21948 0.24098 0.0
Zn41 Zn 0.89595 0.25533 0.22948 0.0
C42 C 0.94232 0.12228 0.28929 0.0
O43 O 0.97041 0.14452 0.33343 0.0
C44 C 0.90565 0.35526 0.21747 0.0
O45 O 0.90795 0.34674 0.16406 0.0
O46 O 0.06808 0.21208 0.24856 0.0
O47 O 1.00015 0.24469 0.16552 0.0
O48 O 0.9356 0.2639 0.15674 0.0
C49 C 0.08893 0.20347 0.20624 0.0
O50 O 0.07063 0.20394 0.15633 0.0
O51 O 0.94588 0.14861 0.24644 0.0
C52 C 0.78907 0.1974 0.25884 0.0
O53 O 0.80999 0.20706 0.3088 0.0
O54 O 0.81879 0.21252 0.21631 0.0
O55 O 0.91639 0.2266 0.29498 0.0
O56 O 1.001 0.26311 0.30165 0.0
O57 O 0.90309 0.32265 0.25287 0.0
C58 C 0.97377 0.25976 0.13675 0.0
C59 C 0.95768 0.25657 0.32012 0.0
Zn60 Zn 0.10054 0.41394 0.72336 0.0
Zn61 Zn 0.03067 0.26376 0.72 0.0
C62 C 0.20454 0.43955 0.75912 0.0
O63 O 0.18413 0.43707 0.80868 0.0
C64 C 0.9499 0.16578 0.68428 0.0
O65 O 0.97208 0.18206 0.63535 0.0
O66 O 0.10508 0.48278 0.72672 0.0
O67 O 0.06072 0.38104 0.65326 0.0
O68 O 0.02183 0.29712 0.65212 0.0
C69 C 0.11297 0.51014 0.68356 0.0
O70 O 0.11717 0.49274 0.6347 0.0
O71 O 0.17536 0.4282 0.71644 0.0
C72 C 0.10287 0.2323 0.75582 0.0
O73 O 0.08157 0.23302 0.80386 0.0
O74 O 0.09021 0.24828 0.71247 0.0
O75 O 0.03299 0.29849 0.79097 0.0
O76 O 0.06841 0.38174 0.79722 0.0
O77 O 0.96731 0.19477 0.72624 0.0
C78 C 0.03272 0.33911 0.62946 0.0
C79 C 0.04471 0.33806 0.81889 0.0
Zn80 Zn 0.29499 0.88424 0.73907 0.0
Zn81 Zn 0.23661 0.9665 0.73478 0.0
C82 C 0.20798 0.79304 0.77034 0.0
O83 O 0.22945 0.80913 0.81939 0.0
C84 C 0.2103 0.04083 0.6883 0.0
O85 O 0.21256 0.02101 0.64031 0.0
O86 O 0.34266 0.85407 0.75007 0.0
O87 O 0.31946 0.92774 0.67031 0.0
O88 O 0.2833 0.97783 0.66947 0.0
C89 C 0.38928 0.87114 0.73332 0.0
O90 O 0.41114 0.91297 0.70387 0.0
O91 O 0.22565 0.82269 0.72868 0.0
C92 C 0.13606 0.89675 0.76822 0.0
O93 O 0.15198 0.92787 0.81071 0.0
O94 O 0.16812 0.90314 0.72917 0.0
O95 O 0.27038 0.97351 0.80849 0.0
O96 O 0.30288 0.92058 0.811 0.0
O97 O 0.21907 0.02352 0.73312 0.0
C98 C 0.31292 0.96254 0.64793 0.0
C99 C 0.294 0.95355 0.83388 0.0
Zn100 Zn 0.6068 0.67364 0.72628 0.0
Zn101 Zn 0.73118 0.77975 0.7474 0.0
C102 C 0.56283 0.73367 0.76157 0.0
O103 O 0.54126 0.69552 0.79654 0.0
C104 C 0.83005 0.7758 0.74355 0.0
O105 O 0.81265 0.75124 0.69656 0.0
O106 O 0.53373 0.61469 0.7257 0.0
O107 O 0.64333 0.67295 0.65611 0.0
O108 O 0.71592 0.74288 0.67368 0.0
C109 C 0.50465 0.60501 0.68313 0.0
O110 O 0.52377 0.63173 0.6374 0.0
O111 O 0.5971 0.73536 0.72772 0.0
C112 C 0.76221 0.88167 0.77558 0.0
O113 O 0.76309 0.86344 0.82523 0.0
O114 O 0.7453 0.85151 0.73454 0.0
O115 O 0.68538 0.74781 0.81538 0.0
O116 O 0.6413 0.66676 0.79581 0.0
O117 O 0.80173 0.78948 0.77106 0.0
C118 C 0.68803 0.70693 0.64111 0.0
C119 C 0.66688 0.70193 0.83011 0.0
H120 H 0.3026 0.03595 0.88807 0.0
H121 H 0.3241 0.90499 0.90949 0.0
H122 H 0.3488 0.92773 0.00654 0.0
H123 H 0.36037 0.9823 0.08598 0.0
H124 H 0.33984 0.11376 0.06531 0.0
H125 H 0.31922 0.09353 0.96668 0.0
C126 C 0.31276 0.01242 0.91396 0.0
C127 C 0.31107 0.96862 0.89179 0.0
C128 C 0.32716 0.02579 0.96962 0.0
C129 C 0.32501 0.93887 0.92558 0.0
C130 C 0.33907 0.95177 0.98108 0.0
C131 C 0.35165 0.00671 0.05985 0.0
C132 C 0.3511 0.04914 0.08289 0.0
C133 C 0.33971 0.9948 0.00359 0.0
C134 C 0.34044 0.08082 0.04845 0.0
C135 C 0.32843 0.06915 -0.0078 0.0
H136 H 0.648 0.63049 0.56498 0.0
H137 H 0.77485 0.78023 0.591 0.0
H138 H 0.80862 0.7798 0.4983 0.0
H139 H 0.80147 0.7383 0.40906 0.0
H140 H 0.67588 0.58819 0.38218 0.0
H141 H 0.6427 0.58742 0.47606 0.0
C142 C 0.68305 0.66299 0.55039 0.0
C143 C 0.70862 0.70536 0.585 0.0
C144 C 0.70262 0.66252 0.49685 0.0
C145 C 0.75426 0.74703 0.56545 0.0
C146 C 0.77367 0.74691 0.51231 0.0
C147 C 0.76687 0.70529 0.42364 0.0
C148 C 0.74109 0.66352 0.38837 0.0
C149 C 0.74804 0.70504 0.47757 0.0
C150 C 0.69657 0.62093 0.40836 0.0
C151 C 0.67744 0.62049 0.46203 0.0
H152 H 0.98119 0.33707 0.07156 0.0
H153 H 0.99283 0.19999 0.06893 0.0
H154 H 1.01469 0.21188 0.96993 0.0
H155 H 0.03178 0.26127 0.88518 0.0
H156 H 0.02735 0.40194 0.88636 0.0
H157 H 1.00185 0.38907 0.98521 0.0
C158 C 0.98829 0.3099 0.04892 0.0
C159 C 0.98535 0.26771 0.07692 0.0
C160 C 1.00242 0.31777 -0.0078 0.0
C161 C 0.99519 0.23285 0.0479 0.0
C162 C 1.00762 0.23957 -0.00856 0.0
C163 C 0.02511 0.28912 0.90693 0.0
C164 C 0.031 0.33223 0.87862 0.0
C165 C 1.0116 0.28195 0.96337 0.0
C166 C 0.02307 0.36841 0.90752 0.0
C167 C 1.00834 0.36098 0.96384 0.0
H168 H 0.3894 0.00214 0.39952 0.0
H169 H 0.34653 0.11974 0.41625 0.0
H170 H 0.33058 0.10127 0.51615 0.0
H171 H 0.3189 0.04494 0.59526 0.0
H172 H 0.36066 0.92643 0.57734 0.0
H173 H 0.38773 0.95259 0.48117 0.0
C174 C 0.37723 0.02416 0.42525 0.0
C175 C 0.36829 0.06162 0.4007 0.0
C176 C 0.36762 0.01295 0.48212 0.0
C177 C 0.3535 0.0906 0.43439 0.0
C178 C 0.34408 0.07983 0.49132 0.0
C179 C 0.33444 0.02514 0.57055 0.0
C180 C 0.33675 0.98314 0.59307 0.0
C181 C 0.34943 0.04001 0.51514 0.0
C182 C 0.35798 0.95856 0.56088 0.0
C183 C 0.37332 0.97337 0.50582 0.0
H184 H 0.7211 0.76729 0.91284 0.0
H185 H 0.63204 0.60853 0.87735 0.0
H186 H 0.65021 0.58834 0.97077 0.0
H187 H 0.69417 0.61578 0.06144 0.0
H188 H 0.78317 0.77481 0.09583 0.0
H189 H 0.76211 0.79458 0.00407 0.0
C190 C 0.70531 0.72822 0.92552 0.0
C191 C 0.67532 0.68956 0.8879 0.0
C192 C 0.71612 0.71681 0.97915 0.0
C193 C 0.6553 0.63915 0.9053 0.0
C194 C 0.66572 0.62751 0.95876 0.0
C195 C 0.70873 0.65476 0.04905 0.0
C196 C 0.74068 0.69366 0.08558 0.0
C197 C 0.69651 0.66605 -0.00411 0.0
C198 C 0.75904 0.74398 0.0686 0.0
C199 C 0.7469 0.75543 0.01604 0.0
H200 H 0.02445 0.34305 0.36968 0.0
H201 H 0.88633 0.20198 0.39975 0.0
H202 H 0.89364 0.21868 0.50009 0.0
H203 H 0.94696 0.26745 0.57917 0.0
H204 H 0.08425 0.40937 0.549 0.0
H205 H 0.06905 0.39896 0.44847 0.0
C206 C 0.99546 0.31658 0.39829 0.0
C207 C 0.95555 0.27108 0.37802 0.0
C208 C 0.99995 0.32645 0.45563 0.0
C209 C 0.91751 0.2372 0.4148 0.0
C210 C 0.92186 0.24659 0.47207 0.0
C211 C 0.97288 0.29654 0.55053 0.0
C212 C 0.01713 0.33859 0.57105 0.0
C213 C 0.96405 0.29017 0.49299 0.0
C214 C 0.05002 0.37657 0.53396 0.0
C215 C 0.04158 0.37046 0.47653 0.0
H216 H 0.54826 0.11966 0.28056 0.0
H217 H 0.56705 0.15919 0.10556 0.0
H218 H 0.65789 0.17825 0.10955 0.0
H219 H 0.73397 0.19081 0.16454 0.0
H220 H 0.71566 0.15423 0.34033 0.0
H221 H 0.62283 0.12659 0.33399 0.0
C222 C 0.57199 0.13176 0.24308 0.0
C223 C 0.55086 0.13831 0.19295 0.0
C224 C 0.62454 0.14357 0.24586 0.0
C225 C 0.5823 0.15409 0.14483 0.0
C226 C 0.63436 0.16511 0.14706 0.0
C227 C 0.70957 0.17612 0.2013 0.0
C228 C 0.73193 0.17498 0.2529 0.0
C229 C 0.65621 0.16107 0.19763 0.0
C230 C 0.69964 0.15589 0.30012 0.0
C231 C 0.64647 0.1401 0.29659 0.0
H232 H 0.61987 0.45865 0.2798 0.0
H233 H 0.60174 0.44092 0.10107 0.0
H234 H 0.53366 0.35392 0.11384 0.0
H235 H 0.48385 0.28151 0.17558 0.0
H236 H 0.50469 0.29909 0.35408 0.0
H237 H 0.56691 0.38798 0.34144 0.0
C238 C 0.60089 0.43595 0.24353 0.0
C239 C 0.61623 0.45615 0.18952 0.0
C240 C 0.56231 0.38597 0.25114 0.0
C241 C 0.59089 0.42623 0.14309 0.0
C242 C 0.55198 0.37648 0.15036 0.0
C243 C 0.50145 0.30493 0.21178 0.0
C244 C 0.48988 0.28365 0.2657 0.0
C245 C 0.53798 0.35576 0.20417 0.0
C246 C 0.51314 0.31448 0.31213 0.0
C247 C 0.54881 0.36527 0.30494 0.0
H248 H 0.91003 0.43201 0.15343 0.0
H249 H 0.88367 0.37501 0.32253 0.0
H250 H 0.85828 0.43794 0.34983 0.0
H251 H 0.8343 0.50273 0.32347 0.0
H252 H 0.85955 0.55922 0.15424 0.0
H253 H 0.89537 0.50354 0.12961 0.0
C254 C 0.89941 0.43374 0.19644 0.0
C255 C 0.89805 0.39825 0.23561 0.0
C256 C 0.88435 0.46983 0.21185 0.0
C257 C 0.88474 0.40153 0.29132 0.0
C258 C 0.87004 0.43747 0.307 0.0
C259 C 0.84837 0.50349 0.28139 0.0
C260 C 0.84351 0.53467 0.24062 0.0
C261 C 0.86829 0.47085 0.26727 0.0
C262 C 0.86252 0.53548 0.18645 0.0
C263 C 0.88279 0.50341 0.17222 0.0
H264 H 0.10852 0.55784 0.77817 0.0
H265 H 0.13805 0.58069 0.60097 0.0
H266 H 0.16266 0.66959 0.61114 0.0
H267 H 0.18517 0.74246 0.67164 0.0
H268 H 0.15902 0.72017 0.8493 0.0
H269 H 0.12263 0.6294 0.83737 0.0
C270 C 0.11977 0.5821 0.74163 0.0
C271 C 0.12211 0.56264 0.689 0.0
C272 C 0.13451 0.6334 0.74783 0.0
C273 C 0.13632 0.59463 0.64209 0.0
C274 C 0.15043 0.64557 0.64784 0.0
C275 C 0.17041 0.71771 0.70764 0.0
C276 C 0.17533 0.73822 0.76138 0.0
C277 C 0.15095 0.66563 0.7007 0.0
C278 C 0.15604 0.70547 0.80751 0.0
C279 C 0.13549 0.65353 0.80077 0.0
H280 H 0.48413 0.88824 0.694 0.0
H281 H 0.35919 0.79171 0.80459 0.0
H282 H 0.40418 0.74377 0.82638 0.0
H283 H 0.47634 0.72634 0.81096 0.0
H284 H 0.60026 0.81969 0.69791 0.0
H285 H 0.55865 0.87212 0.68083 0.0
C286 C 0.46691 0.85689 0.72308 0.0
C287 C 0.41817 0.84352 0.74733 0.0
C288 C 0.49281 0.82891 0.73512 0.0
C289 C 0.39643 0.80272 0.78494 0.0
C290 C 0.42219 0.77526 0.79759 0.0
C291 C 0.49471 0.75849 0.78306 0.0
C292 C 0.54132 0.76898 0.7557 0.0
C293 C 0.47006 0.78767 0.77251 0.0
C294 C 0.56432 0.8107 0.71946 0.0
C295 C 0.54045 0.8406 0.70953 0.0
H296 H 0.26151 0.4713 0.66308 0.0
H297 H 0.27644 0.4599 0.8411 0.0
H298 H 0.37089 0.50666 0.8327 0.0
H299 H 0.44895 0.55667 0.77603 0.0
H300 H 0.43381 0.57086 0.59852 0.0
H301 H 0.34001 0.51699 0.60556 0.0
C302 C 0.2854 0.47839 0.69997 0.0
C303 C 0.26176 0.46227 0.75269 0.0
C304 C 0.33979 0.50622 0.69502 0.0
C305 C 0.29347 0.47203 0.80002 0.0
C306 C 0.34757 0.4989 0.79529 0.0
C307 C 0.42526 0.54751 0.73873 0.0
C308 C 0.44851 0.56811 0.68686 0.0
C309 C 0.37112 0.51711 0.74318 0.0
C310 C 0.41704 0.55583 0.63905 0.0
C311 C 0.3633 0.52501 0.64302 0.0
H312 H 0.2456 0.11552 0.19123 0.0
H313 H 0.20558 0.08713 0.36595 0.0
H314 H 0.15387 0.13076 0.35892 0.0
H315 H 0.11485 0.17161 0.30179 0.0
H316 H 0.15138 0.19635 0.12607 0.0
H317 H 0.20979 0.15999 0.13502 0.0
C318 C 0.22606 0.11938 0.22793 0.0
C319 C 0.22929 0.09782 0.27897 0.0
C320 C 0.1955 0.14373 0.22338 0.0
C321 C 0.20351 0.10304 0.32604 0.0
C322 C 0.17389 0.12801 0.32208 0.0
C323 C 0.13616 0.16974 0.2656 0.0
C324 C 0.12864 0.18665 0.21331 0.0
C325 C 0.16884 0.14773 0.27076 0.0
C326 C 0.15627 0.18349 0.16678 0.0
C327 C 0.18965 0.16261 0.17183 0.0
H328 H 0.98738 0.77596 0.18118 0.0
H329 H 1.00002 0.77521 0.36068 0.0
H330 H 0.09412 0.8268 0.3537 0.0
H331 H 0.17102 0.88123 0.29754 0.0
H332 H 0.15757 0.88464 0.11829 0.0
H333 H 0.06585 0.82265 0.12437 0.0
C334 C 1.01076 0.78616 0.21876 0.0
C335 C 0.98651 0.77228 0.27142 0.0
C336 C 0.06477 0.81695 0.21456 0.0
C337 C 0.01755 0.78575 0.31961 0.0
C338 C 0.07142 0.81546 0.3157 0.0
C339 C 0.14828 0.86781 0.2597 0.0
C340 C 0.17105 0.88818 0.20762 0.0
C341 C 0.09521 0.83278 0.26353 0.0
C342 C 0.14099 0.87007 0.15902 0.0
C343 C 0.08843 0.83462 0.16242 0.0
H344 H 0.91681 0.06809 0.19391 0.0
H345 H 0.91478 0.0526 0.37321 0.0
H346 H 0.88731 0.96275 0.36371 0.0
H347 H 0.87076 0.89046 0.3042 0.0
H348 H 0.87856 0.90826 0.12491 0.0
H349 H 0.8973 0.99563 0.13477 0.0
C350 C 0.90945 0.04495 0.23102 0.0
C351 C 0.91772 0.06695 0.28424 0.0
C352 C 0.89555 0.99395 0.2252 0.0
C353 C 0.90863 0.0365 0.3318 0.0
C354 C 0.89321 0.98524 0.32637 0.0
C355 C 0.87627 0.91338 0.26728 0.0
C356 C 0.8736 0.89297 0.2139 0.0
C357 C 0.88776 0.96385 0.27324 0.0
C358 C 0.88087 0.92316 0.16649 0.0
C359 C 0.8914 0.97308 0.17206 0.0
H360 H 0.12695 0.19781 0.66115 0.0
H361 H 0.14528 0.20339 0.84019 0.0
H362 H 0.18294 0.14679 0.83468 0.0
H363 H 0.20389 0.09034 0.78013 0.0
H364 H 0.18342 0.08262 0.60132 0.0
H365 H 0.15347 0.14543 0.60573 0.0
C366 C 0.14002 0.18736 0.69887 0.0
C367 C 0.13304 0.20465 0.75104 0.0
C368 C 0.16064 0.15387 0.69555 0.0
C369 C 0.14995 0.19047 0.79952 0.0
C370 C 0.17133 0.15793 0.79644 0.0
C371 C 0.19321 0.10258 0.74202 0.0
C372 C 0.19544 0.08135 0.69055 0.0
C373 C 0.17567 0.13844 0.74486 0.0
C374 C 0.18179 0.09803 0.64158 0.0
C375 C 0.16466 0.134 0.64404 0.0
H376 H 0.05758 0.88417 0.83779 0.0
H377 H 0.08814 0.8313 0.6822 0.0
H378 H 0.99497 0.78475 0.66342 0.0
H379 H 0.90583 0.76689 0.68637 0.0
H380 H 0.87647 0.82308 0.84037 0.0
H381 H 0.96818 0.86026 0.86458 0.0
C382 C 0.04395 0.86189 0.80011 0.0
C383 C 0.07991 0.86179 0.76114 0.0
C384 C 0.99049 0.83622 0.78897 0.0
C385 C 0.06138 0.83237 0.71275 0.0
C386 C 1.00808 0.80589 0.70186 0.0
C387 C 0.91933 0.78668 0.72559 0.0
C388 C 0.88434 0.79268 0.76114 0.0
C389 C 0.9724 0.80878 0.73889 0.0
C390 C 0.90256 0.81829 0.81191 0.0
C391 C 0.95506 0.83962 0.82583 0.0
H392 H 0.90274 0.1173 0.78093 0.0
H393 H 0.90389 0.09481 0.60317 0.0
H394 H 0.84172 0.0058 0.61503 0.0
H395 H 0.79236 0.93285 0.67656 0.0
H396 H 0.79361 0.95506 0.85457 0.0
H397 H 0.84876 0.04547 0.84173 0.0
C398 C 0.88902 0.0931 0.74466 0.0
C399 C 0.90841 0.11283 0.69128 0.0
C400 C 0.85365 0.04168 0.75181 0.0
C401 C 0.88998 0.08075 0.64482 0.0
C402 C 0.85437 0.02972 0.65154 0.0
C403 C 0.80395 0.95754 0.71249 0.0
C404 C 0.78899 0.93701 0.76649 0.0
C405 C 0.83666 0.00954 0.70494 0.0
C406 C 0.80468 0.96968 0.81254 0.0
C407 C 0.83641 0.02147 0.80527 0.0
loop_
_geom_bond_atom_site_label_1
_geom_bond_atom_site_label_2
_geom_bond_distance
_geom_bond_site_symmetry_2
_ccdc_geom_bond_type
Zn0 O6 1.969 1_545 S
Zn0 O7 1.965 . S
Zn0 O11 2.024 . S
Zn0 O16 1.969 . S
Zn1 O8 1.969 . S
Zn1 O14 1.969 . S
Zn1 O15 1.965 . S
Zn1 O17 2.024 . S
C2 O3 1.229 . S
C2 O11 1.058 . S
O3 C2 1.229 . S
C4 O5 1.229 . S
C4 O17 1.058 . S
O5 C4 1.229 . S
O6 Zn0 1.969 1_565 S
O6 C9 1.267 . S
O7 Zn0 1.965 . S
O7 C18 1.260 . S
O8 Zn1 1.969 . S
O8 C18 1.258 . S
C9 O6 1.267 . S
C9 O10 1.228 . S
O10 C9 1.228 . S
O11 Zn0 2.024 . S
O11 C2 1.058 . S
C12 O13 1.228 . S
C12 O14 1.267 . S
O13 C12 1.228 . S
O14 Zn1 1.969 . S
O14 C12 1.267 . S
O15 Zn1 1.965 . S
O15 C19 1.260 . S
O16 Zn0 1.969 . S
O16 C19 1.258 . S
O17 Zn1 2.024 . S
O17 C4 1.058 . S
C18 O7 1.260 . S
C18 O8 1.258 . S
C19 O15 1.260 . S
C19 O16 1.258 . S
Zn20 O26 1.969 . S
Zn20 O27 1.965 . S
Zn20 O31 2.024 . S
Zn20 O36 1.969 . S
Zn21 O28 1.969 . S
Zn21 O34 1.969 . S
Zn21 O35 1.965 . S
Zn21 O37 2.024 . S
C22 O23 1.229 . S
C22 O31 1.058 . S
O23 C22 1.229 . S
C24 O25 1.229 . S
C24 O37 1.058 . S
O25 C24 1.229 . S
O26 Zn20 1.969 . S
O26 C29 1.267 . S
O27 Zn20 1.965 . S
O27 C38 1.260 . S
O28 Zn21 1.969 . S
O28 C38 1.258 . S
C29 O26 1.267 . S
C29 O30 1.228 . S
O30 C29 1.228 . S
O31 Zn20 2.024 . S
O31 C22 1.058 . S
C32 O33 1.228 . S
C32 O34 1.267 . S
O33 C32 1.228 . S
O34 Zn21 1.969 . S
O34 C32 1.267 . S
O35 Zn21 1.965 . S
O35 C39 1.260 . S
O36 Zn20 1.969 . S
O36 C39 1.258 . S
O37 Zn21 2.024 . S
O37 C24 1.058 . S
C38 O27 1.260 . S
C38 O28 1.258 . S
C39 O35 1.260 . S
C39 O36 1.258 . S
Zn40 O46 1.969 1_655 S
Zn40 O47 1.965 . S
Zn40 O51 2.024 . S
Zn40 O56 1.969 . S
Zn41 O48 1.969 . S
Zn41 O54 1.969 . S
Zn41 O55 1.965 . S
Zn41 O57 2.024 . S
C42 O43 1.229 . S
C42 O51 1.058 . S
O43 C42 1.229 . S
C44 O45 1.229 . S
C44 O57 1.058 . S
O45 C44 1.229 . S
O46 Zn40 1.969 1_455 S
O46 C49 1.267 . S
O47 Zn40 1.965 . S
O47 C58 1.260 . S
O48 Zn41 1.969 . S
O48 C58 1.258 . S
C49 O46 1.267 . S
C49 O50 1.228 . S
O50 C49 1.228 . S
O51 Zn40 2.024 . S
O51 C42 1.058 . S
C52 O53 1.228 . S
C52 O54 1.267 . S
O53 C52 1.228 . S
O54 Zn41 1.969 . S
O54 C52 1.267 . S
O55 Zn41 1.965 . S
O55 C59 1.260 . S
O56 Zn40 1.969 . S
O56 C59 1.258 . S
O57 Zn41 2.024 . S
O57 C44 1.058 . S
C58 O47 1.260 . S
C58 O48 1.258 . S
C59 O55 1.260 . S
C59 O56 1.258 . S
Zn60 O66 1.969 . S
Zn60 O67 1.965 . S
Zn60 O71 2.024 . S
Zn60 O76 1.969 . S
Zn61 O68 1.969 . S
Zn61 O74 1.969 . S
Zn61 O75 1.965 . S
Zn61 O77 2.024 1_455 S
C62 O63 1.229 . S
C62 O71 1.058 . S
O63 C62 1.229 . S
C64 O65 1.229 . S
C64 O77 1.058 . S
O65 C64 1.229 . S
O66 Zn60 1.969 . S
O66 C69 1.267 . S
O67 Zn60 1.965 . S
O67 C78 1.260 . S
O68 Zn61 1.969 . S
O68 C78 1.258 . S
C69 O66 1.267 . S
C69 O70 1.228 . S
O70 C69 1.228 . S
O71 Zn60 2.024 . S
O71 C62 1.058 . S
C72 O73 1.228 . S
C72 O74 1.267 . S
O73 C72 1.228 . S
O74 Zn61 1.969 . S
O74 C72 1.267 . S
O75 Zn61 1.965 . S
O75 C79 1.260 . S
O76 Zn60 1.969 . S
O76 C79 1.258 . S
O77 Zn61 2.024 1_655 S
O77 C64 1.058 . S
C78 O67 1.260 . S
C78 O68 1.258 . S
C79 O75 1.260 . S
C79 O76 1.258 . S
Zn80 O86 1.969 . S
Zn80 O87 1.965 . S
Zn80 O91 2.024 . S
Zn80 O96 1.969 . S
Zn81 O88 1.969 . S
Zn81 O94 1.969 . S
Zn81 O95 1.965 . S
Zn81 O97 2.024 1_565 S
C82 O83 1.229 . S
C82 O91 1.058 . S
O83 C82 1.229 . S
C84 O85 1.229 . S
C84 O97 1.058 . S
O85 C84 1.229 . S
O86 Zn80 1.969 . S
O86 C89 1.267 . S
O87 Zn80 1.965 . S
O87 C98 1.260 . S
O88 Zn81 1.969 . S
O88 C98 1.258 . S
C89 O86 1.267 . S
C89 O90 1.228 . S
O90 C89 1.228 . S
O91 Zn80 2.024 . S
O91 C82 1.058 . S
C92 O93 1.228 . S
C92 O94 1.267 . S
O93 C92 1.228 . S
O94 Zn81 1.969 . S
O94 C92 1.267 . S
O95 Zn81 1.965 . S
O95 C99 1.260 . S
O96 Zn80 1.969 . S
O96 C99 1.258 . S
O97 Zn81 2.024 1_545 S
O97 C84 1.058 . S
C98 O87 1.260 . S
C98 O88 1.258 . S
C99 O95 1.260 . S
C99 O96 1.258 . S
Zn100 O106 1.969 . S
Zn100 O107 1.965 . S
Zn100 O111 2.024 . S
Zn100 O116 1.969 . S
Zn101 O108 1.969 . S
Zn101 O114 1.969 . S
Zn101 O115 1.965 . S
Zn101 O117 2.024 . S
C102 O103 1.229 . S
C102 O111 1.058 . S
O103 C102 1.229 . S
C104 O105 1.229 . S
C104 O117 1.058 . S
O105 C104 1.229 . S
O106 Zn100 1.969 . S
O106 C109 1.267 . S
O107 Zn100 1.965 . S
O107 C118 1.260 . S
O108 Zn101 1.969 . S
O108 C118 1.258 . S
C109 O106 1.267 . S
C109 O110 1.228 . S
O110 C109 1.228 . S
O111 Zn100 2.024 . S
O111 C102 1.058 . S
C112 O113 1.228 . S
C112 O114 1.267 . S
O113 C112 1.228 . S
O114 Zn101 1.969 . S
O114 C112 1.267 . S
O115 Zn101 1.965 . S
O115 C119 1.260 . S
O116 Zn100 1.969 . S
O116 C119 1.258 . S
O117 Zn101 2.024 . S
O117 C104 1.058 . S
C118 O107 1.260 . S
C118 O108 1.258 . S
C119 O115 1.260 . S
C119 O116 1.258 . S
H120 C126 0.930 . S
H121 C129 0.930 . S
H122 C130 0.930 . S
H123 C131 0.930 . S
H124 C134 0.930 . S
H125 C135 0.929 . S
C126 H120 0.930 . S
C126 C127 1.355 . S
C126 C128 1.415 . S
C127 C126 1.355 . S
C127 C129 1.419 . S
C128 C126 1.415 . S
C128 C133 1.430 1_566 S
C128 C135 1.409 1_566 S
C129 H121 0.930 . S
C129 C127 1.419 . S
C129 C130 1.362 . S
C130 H122 0.930 . S
C130 C129 1.362 . S
C130 C133 1.396 1_566 S
C131 H123 0.930 . S
C131 C132 1.355 . S
C131 C133 1.423 . S
C132 C131 1.355 . S
C132 C134 1.419 . S
C133 C128 1.430 1_544 S
C133 C130 1.396 1_544 S
C133 C131 1.423 . S
C134 H124 0.930 . S
C134 C132 1.419 . S
C134 C135 1.362 . S
C135 H125 0.929 . S
C135 C128 1.409 1_544 S
C135 C134 1.362 . S
H136 C142 0.930 . S
H137 C145 0.930 . S
H138 C146 0.930 . S
H139 C147 0.930 . S
H140 C150 0.930 . S
H141 C151 0.930 . S
C142 H136 0.930 . S
C142 C143 1.355 . S
C142 C144 1.415 . S
C143 C142 1.355 . S
C143 C145 1.419 . S
C144 C142 1.415 . S
C144 C149 1.425 . S
C144 C151 1.409 . S
C145 H137 0.930 . S
C145 C143 1.419 . S
C145 C146 1.362 . S
C146 H138 0.930 . S
C146 C145 1.362 . S
C146 C149 1.409 . S
C147 H139 0.930 . S
C147 C148 1.355 . S
C147 C149 1.415 . S
C148 C147 1.355 . S
C148 C150 1.419 . S
C149 C144 1.425 . S
C149 C146 1.409 . S
C149 C147 1.415 . S
C150 H140 0.930 . S
C150 C148 1.419 . S
C150 C151 1.362 . S
C151 H141 0.930 . S
C151 C144 1.409 . S
C151 C150 1.362 . S
H152 C158 0.930 . S
H153 C161 0.930 . S
H154 C162 0.930 . S
H155 C163 0.930 . S
H156 C166 0.930 . S
H157 C167 0.930 . S
C158 H152 0.930 . S
C158 C159 1.355 . S
C158 C160 1.415 1_554 S
C159 C158 1.355 . S
C159 C161 1.419 . S
C160 C158 1.415 1_556 S
C160 C165 1.425 1_656 S
C160 C167 1.409 . S
C161 H153 0.930 . S
C161 C159 1.419 . S
C161 C162 1.362 1_655 S
C162 H154 0.930 . S
C162 C161 1.362 1_455 S
C162 C165 1.409 . S
C163 H155 0.930 . S
C163 C164 1.355 . S
C163 C165 1.415 1_556 S
C164 C163 1.355 . S
C164 C166 1.419 . S
C165 C160 1.425 1_454 S
C165 C162 1.409 . S
C165 C163 1.415 1_554 S
C166 H156 0.930 . S
C166 C164 1.419 . S
C166 C167 1.362 1_455 S
C167 H157 0.930 . S
C167 C160 1.409 . S
C167 C166 1.362 1_655 S
H168 C174 0.930 . S
H169 C177 0.930 . S
H170 C178 0.930 . S
H171 C179 0.930 . S
H172 C182 0.930 . S
H173 C183 0.930 . S
C174 H168 0.930 . S
C174 C175 1.355 . S
C174 C176 1.415 . S
C175 C174 1.355 . S
C175 C177 1.419 . S
C176 C174 1.415 . S
C176 C181 1.425 . S
C176 C183 1.409 1_545 S
C177 H169 0.930 . S
C177 C175 1.419 . S
C177 C178 1.362 . S
C178 H170 0.930 . S
C178 C177 1.362 . S
C178 C181 1.409 . S
C179 H171 0.930 . S
C179 C180 1.355 . S
C179 C181 1.415 1_565 S
C180 C179 1.355 . S
C180 C182 1.419 . S
C181 C176 1.425 . S
C181 C178 1.409 . S
C181 C179 1.415 1_545 S
C182 H172 0.930 . S
C182 C180 1.419 . S
C182 C183 1.362 . S
C183 H173 0.930 . S
C183 C176 1.409 1_565 S
C183 C182 1.362 . S
H184 C190 0.930 . S
H185 C193 0.930 . S
H186 C194 0.930 . S
H187 C195 0.930 . S
H188 C198 0.930 . S
H189 C199 0.930 . S
C190 H184 0.930 . S
C190 C191 1.355 . S
C190 C192 1.415 1_556 S
C191 C190 1.355 . S
C191 C193 1.419 . S
C192 C190 1.415 1_554 S
C192 C197 1.425 1_554 S
C192 C199 1.409 . S
C193 H185 0.930 . S
C193 C191 1.419 . S
C193 C194 1.362 . S
C194 H186 0.930 . S
C194 C193 1.362 . S
C194 C197 1.409 . S
C195 H187 0.930 . S
C195 C196 1.355 . S
C195 C197 1.415 1_554 S
C196 C195 1.355 . S
C196 C198 1.419 . S
C197 C192 1.425 1_556 S
C197 C194 1.409 . S
C197 C195 1.415 1_556 S
C198 H188 0.930 . S
C198 C196 1.419 . S
C198 C199 1.362 . S
C199 H189 0.930 . S
C199 C192 1.409 . S
C199 C198 1.362 . S
H200 C206 0.930 . S
H201 C209 0.930 . S
H202 C210 0.930 . S
H203 C211 0.930 1_655 S
H204 C214 0.930 . S
H205 C215 0.930 . S
C206 H200 0.930 . S
C206 C207 1.355 . S
C206 C208 1.415 1_655 S
C207 C206 1.355 . S
C207 C209 1.419 . S
C208 C206 1.415 1_455 S
C208 C213 1.425 1_455 S
C208 C215 1.409 . S
C209 H201 0.930 . S
C209 C207 1.419 . S
C209 C210 1.362 . S
C210 H202 0.930 . S
C210 C209 1.362 . S
C210 C213 1.409 . S
C211 H203 0.930 1_455 S
C211 C212 1.355 . S
C211 C213 1.415 1_455 S
C212 C211 1.355 . S
C212 C214 1.419 . S
C213 C208 1.425 1_655 S
C213 C210 1.409 . S
C213 C211 1.415 1_655 S
C214 H204 0.930 . S
C214 C212 1.419 . S
C214 C215 1.362 . S
C215 H205 0.930 . S
C215 C208 1.409 . S
C215 C214 1.362 . S
H216 C222 0.930 . S
H217 C225 0.930 . S
H218 C226 0.930 . S
H219 C227 0.930 . S
H220 C230 0.930 . S
H221 C231 0.930 . S
C222 H216 0.930 . S
C222 C223 1.355 . S
C222 C224 1.415 . S
C223 C222 1.355 . S
C223 C225 1.419 . S
C224 C222 1.415 . S
C224 C229 1.425 . S
C224 C231 1.409 . S
C225 H217 0.930 . S
C225 C223 1.419 . S
C225 C226 1.362 . S
C226 H218 0.930 . S
C226 C225 1.362 . S
C226 C229 1.409 . S
C227 H219 0.930 . S
C227 C228 1.355 . S
C227 C229 1.415 . S
C228 C227 1.355 . S
C228 C230 1.419 . S
C229 C224 1.425 . S
C229 C226 1.409 . S
C229 C227 1.415 . S
C230 H220 0.930 . S
C230 C228 1.419 . S
C230 C231 1.362 . S
C231 H221 0.930 . S
C231 C224 1.409 . S
C231 C230 1.362 . S
H232 C238 0.930 . S
H233 C241 0.930 . S
H234 C242 0.930 . S
H235 C243 0.930 . S
H236 C246 0.930 . S
H237 C247 0.930 . S
C238 H232 0.930 . S
C238 C239 1.355 . S
C238 C240 1.415 . S
C239 C238 1.355 . S
C239 C241 1.419 . S
C240 C238 1.415 . S
C240 C245 1.425 . S
C240 C247 1.409 . S
C241 H233 0.930 . S
C241 C239 1.419 . S
C241 C242 1.362 . S
C242 H234 0.930 . S
C242 C241 1.362 . S
C242 C245 1.409 . S
C243 H235 0.930 . S
C243 C244 1.355 . S
C243 C245 1.415 . S
C244 C243 1.355 . S
C244 C246 1.419 . S
C245 C240 1.425 . S
C245 C242 1.409 . S
C245 C243 1.415 . S
C246 H236 0.930 . S
C246 C244 1.419 . S
C246 C247 1.362 . S
C247 H237 0.930 . S
C247 C240 1.409 . S
C247 C246 1.362 . S
H248 C254 0.930 . S
H249 C257 0.930 . S
H250 C258 0.930 . S
H251 C259 0.930 . S
H252 C262 0.930 . S
H253 C263 0.930 . S
C254 H248 0.930 . S
C254 C255 1.355 . S
C254 C256 1.415 . S
C255 C254 1.355 . S
C255 C257 1.419 . S
C256 C254 1.415 . S
C256 C261 1.425 . S
C256 C263 1.409 . S
C257 H249 0.930 . S
C257 C255 1.419 . S
C257 C258 1.362 . S
C258 H250 0.930 . S
C258 C257 1.362 . S
C258 C261 1.409 . S
C259 H251 0.930 . S
C259 C260 1.355 . S
C259 C261 1.415 . S
C260 C259 1.355 . S
C260 C262 1.419 . S
C261 C256 1.425 . S
C261 C258 1.409 . S
C261 C259 1.415 . S
C262 H252 0.930 . S
C262 C260 1.419 . S
C262 C263 1.362 . S
C263 H253 0.930 . S
C263 C256 1.409 . S
C263 C262 1.362 . S
H264 C270 0.930 . S
H265 C273 0.930 . S
H266 C274 0.930 . S
H267 C275 0.930 . S
H268 C278 0.930 . S
H269 C279 0.930 . S
C270 H264 0.930 . S
C270 C271 1.355 . S
C270 C272 1.415 . S
C271 C270 1.355 . S
C271 C273 1.419 . S
C272 C270 1.415 . S
C272 C277 1.425 . S
C272 C279 1.409 . S
C273 H265 0.930 . S
C273 C271 1.419 . S
C273 C274 1.362 . S
C274 H266 0.930 . S
C274 C273 1.362 . S
C274 C277 1.409 . S
C275 H267 0.930 . S
C275 C276 1.355 . S
C275 C277 1.415 . S
C276 C275 1.355 . S
C276 C278 1.419 . S
C277 C272 1.425 . S
C277 C274 1.409 . S
C277 C275 1.415 . S
C278 H268 0.930 . S
C278 C276 1.419 . S
C278 C279 1.362 . S
C279 H269 0.930 . S
C279 C272 1.409 . S
C279 C278 1.362 . S
H280 C286 0.930 . S
H281 C289 0.930 . S
H282 C290 0.930 . S
H283 C291 0.930 . S
H284 C294 0.930 . S
H285 C295 0.930 . S
C286 H280 0.930 . S
C286 C287 1.355 . S
C286 C288 1.415 . S
C287 C286 1.355 . S
C287 C289 1.419 . S
C288 C286 1.415 . S
C288 C293 1.425 . S
C288 C295 1.409 . S
C289 H281 0.930 . S
C289 C287 1.419 . S
C289 C290 1.362 . S
C290 H282 0.930 . S
C290 C289 1.362 . S
C290 C293 1.409 . S
C291 H283 0.930 . S
C291 C292 1.355 . S
C291 C293 1.415 . S
C292 C291 1.355 . S
C292 C294 1.419 . S
C293 C288 1.425 . S
C293 C290 1.409 . S
C293 C291 1.415 . S
C294 H284 0.930 . S
C294 C292 1.419 . S
C294 C295 1.362 . S
C295 H285 0.930 . S
C295 C288 1.409 . S
C295 C294 1.362 . S
H296 C302 0.930 . S
H297 C305 0.930 . S
H298 C306 0.930 . S
H299 C307 0.930 . S
H300 C310 0.930 . S
H301 C311 0.930 . S
C302 H296 0.930 . S
C302 C303 1.355 . S
C302 C304 1.415 . S
C303 C302 1.355 . S
C303 C305 1.419 . S
C304 C302 1.415 . S
C304 C309 1.425 . S
C304 C311 1.409 . S
C305 H297 0.930 . S
C305 C303 1.419 . S
C305 C306 1.362 . S
C306 H298 0.930 . S
C306 C305 1.362 . S
C306 C309 1.409 . S
C307 H299 0.930 . S
C307 C308 1.355 . S
C307 C309 1.415 . S
C308 C307 1.355 . S
C308 C310 1.419 . S
C309 C304 1.425 . S
C309 C306 1.409 . S
C309 C307 1.415 . S
C310 H300 0.930 . S
C310 C308 1.419 . S
C310 C311 1.362 . S
C311 H301 0.930 . S
C311 C304 1.409 . S
C311 C310 1.362 . S
H312 C318 0.930 . S
H313 C321 0.930 . S
H314 C322 0.930 . S
H315 C323 0.930 . S
H316 C326 0.930 . S
H317 C327 0.930 . S
C318 H312 0.930 . S
C318 C319 1.355 . S
C318 C320 1.415 . S
C319 C318 1.355 . S
C319 C321 1.419 . S
C320 C318 1.415 . S
C320 C325 1.425 . S
C320 C327 1.409 . S
C321 H313 0.930 . S
C321 C319 1.419 . S
C321 C322 1.362 . S
C322 H314 0.930 . S
C322 C321 1.362 . S
C322 C325 1.409 . S
C323 H315 0.930 . S
C323 C324 1.355 . S
C323 C325 1.415 . S
C324 C323 1.355 . S
C324 C326 1.419 . S
C325 C320 1.425 . S
C325 C322 1.409 . S
C325 C323 1.415 . S
C326 H316 0.930 . S
C326 C324 1.419 . S
C326 C327 1.362 . S
C327 H317 0.930 . S
C327 C320 1.409 . S
C327 C326 1.362 . S
H328 C334 0.930 . S
H329 C337 0.930 . S
H330 C338 0.930 . S
H331 C339 0.930 . S
H332 C342 0.930 . S
H333 C343 0.930 . S
C334 H328 0.930 . S
C334 C335 1.355 . S
C334 C336 1.415 1_655 S
C335 C334 1.355 . S
C335 C337 1.419 . S
C336 C334 1.415 1_455 S
C336 C341 1.425 . S
C336 C343 1.409 . S
C337 H329 0.930 . S
C337 C335 1.419 . S
C337 C338 1.362 1_655 S
C338 H330 0.930 . S
C338 C337 1.362 1_455 S
C338 C341 1.409 . S
C339 H331 0.930 . S
C339 C340 1.355 . S
C339 C341 1.415 . S
C340 C339 1.355 . S
C340 C342 1.419 . S
C341 C336 1.425 . S
C341 C338 1.409 . S
C341 C339 1.415 . S
C342 H332 0.930 . S
C342 C340 1.419 . S
C342 C343 1.362 . S
C343 H333 0.930 . S
C343 C336 1.409 . S
C343 C342 1.362 . S
H344 C350 0.930 . S
H345 C353 0.930 . S
H346 C354 0.930 . S
H347 C355 0.930 . S
H348 C358 0.930 . S
H349 C359 0.930 . S
C350 H344 0.930 . S
C350 C351 1.355 . S
C350 C352 1.415 1_545 S
C351 C350 1.355 . S
C351 C353 1.419 . S
C352 C350 1.415 1_565 S
C352 C357 1.425 . S
C352 C359 1.409 . S
C353 H345 0.930 . S
C353 C351 1.419 . S
C353 C354 1.362 1_545 S
C354 H346 0.930 . S
C354 C353 1.362 1_565 S
C354 C357 1.409 . S
C355 H347 0.930 . S
C355 C356 1.355 . S
C355 C357 1.415 . S
C356 C355 1.355 . S
C356 C358 1.419 . S
C357 C352 1.425 . S
C357 C354 1.409 . S
C357 C355 1.415 . S
C358 H348 0.930 . S
C358 C356 1.419 . S
C358 C359 1.362 . S
C359 H349 0.930 . S
C359 C352 1.409 . S
C359 C358 1.362 . S
H360 C366 0.930 . S
H361 C369 0.930 . S
H362 C370 0.930 . S
H363 C371 0.930 . S
H364 C374 0.930 . S
H365 C375 0.930 . S
C366 H360 0.930 . S
C366 C367 1.355 . S
C366 C368 1.415 . S
C367 C366 1.355 . S
C367 C369 1.419 . S
C368 C366 1.415 . S
C368 C373 1.425 . S
C368 C375 1.409 . S
C369 H361 0.930 . S
C369 C367 1.419 . S
C369 C370 1.362 . S
C370 H362 0.930 . S
C370 C369 1.362 . S
C370 C373 1.409 . S
C371 H363 0.930 . S
C371 C372 1.355 . S
C371 C373 1.415 . S
C372 C371 1.355 . S
C372 C374 1.419 . S
C373 C368 1.425 . S
C373 C370 1.409 . S
C373 C371 1.415 . S
C374 H364 0.930 . S
C374 C372 1.419 . S
C374 C375 1.362 . S
C375 H365 0.930 . S
C375 C368 1.409 . S
C375 C374 1.362 . S
H376 C382 0.930 1_455 S
H377 C385 0.930 . S
H378 C386 0.930 . S
H379 C387 0.930 . S
H380 C390 0.930 . S
H381 C391 0.930 . S
C382 H376 0.930 1_655 S
C382 C383 1.355 1_655 S
C382 C384 1.415 . S
C383 C382 1.355 1_455 S
C383 C385 1.419 . S
C384 C382 1.415 . S
C384 C389 1.425 . S
C384 C391 1.409 . S
C385 H377 0.930 . S
C385 C383 1.419 . S
C385 C386 1.362 1_455 S
C386 H378 0.930 . S
C386 C385 1.362 1_655 S
C386 C389 1.409 . S
C387 H379 0.930 . S
C387 C388 1.355 . S
C387 C389 1.415 . S
C388 C387 1.355 . S
C388 C390 1.419 . S
C389 C384 1.425 . S
C389 C386 1.409 . S
C389 C387 1.415 . S
C390 H380 0.930 . S
C390 C388 1.419 . S
C390 C391 1.362 . S
C391 H381 0.930 . S
C391 C384 1.409 . S
C391 C390 1.362 . S
H392 C398 0.930 . S
H393 C401 0.930 1_455 S
H394 C402 0.930 . S
H395 C403 0.938 . S
H396 C406 0.930 . S
H397 C407 0.930 . S
C398 H392 0.930 . S
C398 C399 1.355 . S
C398 C400 1.415 . S
C399 C398 1.355 . S
C399 C401 1.419 . S
C400 C398 1.415 . S
C400 C405 1.425 . S
C400 C407 1.409 . S
C401 H393 0.930 1_655 S
C401 C399 1.419 . S
C401 C402 1.362 . S
C402 H394 0.930 . S
C402 C401 1.362 . S
C402 C405 1.409 . S
C403 H395 0.938 . S
C403 C404 1.357 . S
C403 C405 1.404 1_565 S
C404 C403 1.357 . S
C404 C406 1.419 . S
C405 C400 1.425 . S
C405 C402 1.409 . S
C405 C403 1.404 1_545 S
C406 H396 0.930 . S
C406 C404 1.419 . S
C406 C407 1.362 1_565 S
C407 H397 0.930 . S
C407 C400 1.409 . S
C407 C406 1.362 1_545 S
C127 C99 2.169 . S
C132 C18 2.122 . S
C143 C118 2.052 . S
C148 C39 2.150 . S
C159 C58 2.126 . S
C164 C79 2.171 . S
C175 C19 2.173 . S
C180 C98 2.111 . S
C191 C119 2.171 . S
C196 C38 2.087 . S
C207 C59 2.202 . S
C212 C78 2.132 . S
C223 C4 1.400 . S
C228 C52 1.707 . S
C239 C24 1.361 . S
C244 C12 1.706 . S
C255 C44 1.477 . S
C260 C32 1.707 . S
C271 C69 1.571 . S
C276 C82 1.696 . S
C287 C89 1.466 . S
C292 C102 1.720 . S
C303 C62 1.697 . S
C308 C109 1.562 . S
C319 C2 1.104 . S
C324 C49 1.084 . S
C335 C22 1.112 . S
C340 C9 1.042 . S
C351 C42 1.111 . S
C356 C29 1.050 . S
C367 C72 1.116 . S
C372 C84 0.970 . S
C383 C92 1.108 . S
C388 C104 0.850 . S
C399 C64 0.834 . S
C404 C112 1.109 . S
