# Generated by pormake.
# Topology whw, (6)-cn, num edge types: 1
# Building blocks:
#     Node 0, Type 0, BuildingBlock: JUFBIX_clean_sbu_0, # of connection points: 6
#     Node 1, Type 0, BuildingBlock: JUFBIX_clean_sbu_0, # of connection points: 6
#     Node 2, Type 0, BuildingBlock: JUFBIX_clean_sbu_0, # of connection points: 6
#     Node 3, Type 0, BuildingBlock: JUFBIX_clean_sbu_0, # of connection points: 6
#     Node 4, Type 0, BuildingBlock: JUFBIX_clean_sbu_0, # of connection points: 6
#     Node 5, Type 0, BuildingBlock: JUFBIX_clean_sbu_0, # of connection points: 6
#     Node 6, Type 0, BuildingBlock: JUFBIX_clean_sbu_0, # of connection points: 6
#     Node 7, Type 0, BuildingBlock: JUFBIX_clean_sbu_0, # of connection points: 6
#     Node 8, Type 0, BuildingBlock: JUFBIX_clean_sbu_0, # of connection points: 6
#     Node 9, Type 0, BuildingBlock: JUFBIX_clean_sbu_0, # of connection points: 6
#     Node 10, Type 0, BuildingBlock: JUFBIX_clean_sbu_0, # of connection points: 6
#     Node 11, Type 0, BuildingBlock: JUFBIX_clean_sbu_0, # of connection points: 6
#     Node 12, Type 0, BuildingBlock: JUFBIX_clean_sbu_0, # of connection points: 6
#     Node 13, Type 0, BuildingBlock: JUFBIX_clean_sbu_0, # of connection points: 6
#     Node 14, Type 0, BuildingBlock: JUFBIX_clean_sbu_0, # of connection points: 6
#     Node 15, Type 0, BuildingBlock: JUFBIX_clean_sbu_0, # of connection points: 6
#     Edge 16, Type (0, 0), None
#     Edge 17, Type (0, 0), None
#     Edge 18, Type (0, 0), None
#     Edge 19, Type (0, 0), None
#     Edge 20, Type (0, 0), None
#     Edge 21, Type (0, 0), None
#     Edge 22, Type (0, 0), None
#     Edge 23, Type (0, 0), None
#     Edge 24, Type (0, 0), None
#     Edge 25, Type (0, 0), None
#     Edge 26, Type (0, 0), None
#     Edge 27, Type (0, 0), None
#     Edge 28, Type (0, 0), None
#     Edge 29, Type (0, 0), None
#     Edge 30, Type (0, 0), None
#     Edge 31, Type (0, 0), None
#     Edge 32, Type (0, 0), None
#     Edge 33, Type (0, 0), None
#     Edge 34, Type (0, 0), None
#     Edge 35, Type (0, 0), None
#     Edge 36, Type (0, 0), None
#     Edge 37, Type (0, 0), None
#     Edge 38, Type (0, 0), None
#     Edge 39, Type (0, 0), None
#     Edge 40, Type (0, 0), None
#     Edge 41, Type (0, 0), None
#     Edge 42, Type (0, 0), None
#     Edge 43, Type (0, 0), None
#     Edge 44, Type (0, 0), None
#     Edge 45, Type (0, 0), None
#     Edge 46, Type (0, 0), None
#     Edge 47, Type (0, 0), None
#     Edge 48, Type (0, 0), None
#     Edge 49, Type (0, 0), None
#     Edge 50, Type (0, 0), None
#     Edge 51, Type (0, 0), None
#     Edge 52, Type (0, 0), None
#     Edge 53, Type (0, 0), None
#     Edge 54, Type (0, 0), None
#     Edge 55, Type (0, 0), None
#     Edge 56, Type (0, 0), None
#     Edge 57, Type (0, 0), None
#     Edge 58, Type (0, 0), None
#     Edge 59, Type (0, 0), None
#     Edge 60, Type (0, 0), None
#     Edge 61, Type (0, 0), None
#     Edge 62, Type (0, 0), None
#     Edge 63, Type (0, 0), None
# Relax obj value: 1.218
# Max RMSD: 0.294
# Mean RMSD: 0.278
data_MOF--net-whw--node1-JUFBIX_clean_sbu_0--edge1-none
_symmetry_space_group_name_H-M    P1
_symmetry_Int_Tables_number       1
_symmetry_cell_setting            triclinic
loop_
_symmetry_equiv_pos_as_xyz
'x, y, z'
_cell_length_a     24.263744
_cell_length_b     23.647031
_cell_length_c     12.383415
_cell_angle_alpha  77.145832
_cell_angle_beta   89.462459
_cell_angle_gamma 85.172541
loop_
_atom_site_label
_atom_site_type_symbol
_atom_site_fract_x
_atom_site_fract_y
_atom_site_fract_z
_atom_type_partial_charge
Co0 Co 0.02274 0.06853 0.25173 0.0
C1 C -0.0223 -0.00497 0.12767 0.0
Co2 Co 0.94872 0.10271 0.18194 0.0
C3 C 0.12282 0.0605 0.37315 0.0
C4 C 0.08584 -0.02018 0.40059 0.0
N5 N 0.08569 0.03223 0.32992 0.0
N6 N 0.14012 0.03138 0.47473 0.0
C7 C 0.11933 -0.02073 0.48965 0.0
H8 H 0.1291 0.1059 0.34154 0.0
H9 H 0.0558 0.94869 0.39917 0.0
C10 C -0.00247 0.1751 0.29118 0.0
N11 N 0.88222 0.13094 0.12813 0.0
C12 C 0.85385 0.10838 1.05789 0.0
C13 C 0.85494 0.18235 0.12891 0.0
N14 N 0.82619 0.15034 0.98641 0.0
C15 C 0.81749 0.19273 1.04495 0.0
C16 C 0.92345 0.05965 0.39295 0.0
O17 O 0.03782 0.1393 0.28446 0.0
O18 O 0.95049 0.16505 0.26013 0.0
O19 O 0.90545 0.06064 0.29764 0.0
O20 O -0.0234 0.05531 0.40033 0.0
O21 O 0.94872 0.04223 0.09738 0.0
H22 H 0.86626 0.21377 0.17437 0.0
H23 H 0.86271 0.06599 1.03968 0.0
O24 O 0.00957 -0.00803 0.21077 0.0
O25 O 0.06445 0.0937 0.10804 0.0
O26 O -0.01095 0.15067 1.0574 0.0
C27 C 0.04012 0.13771 1.03889 0.0
H28 H 0.11922 0.94808 0.56773 0.0
H29 H 0.79731 0.23559 1.01458 0.0
Co30 Co 0.10971 0.75058 0.50454 0.0
C31 C 0.20242 0.71576 0.38615 0.0
Co32 Co 0.10432 0.67143 0.4353 0.0
C33 C 0.05626 0.83657 0.63817 0.0
C34 C 0.1435 0.82104 0.66665 0.0
N35 N 0.10395 0.80955 0.60107 0.0
N36 N 0.06466 0.86274 0.72477 0.0
C37 C 0.1202 0.85257 0.74066 0.0
H38 H 0.01513 0.83309 0.60875 0.0
H39 H 0.18627 0.80391 0.66673 0.0
C40 C 0.00962 0.70336 0.52692 0.0
N41 N 0.08668 0.62156 0.34455 0.0
C42 C 0.03951 0.62876 0.28246 0.0
C43 C 0.1211 0.58502 0.30094 0.0
N44 N 0.04357 0.59923 0.20083 0.0
C45 C 0.09511 0.572 0.21202 0.0
C46 C 0.1339 0.63296 0.63402 0.0
O47 O 0.03261 0.74903 0.52913 0.0
O48 O 0.03691 0.66144 0.4993 0.0
O49 O 0.13532 0.61523 0.54397 0.0
O50 O 0.12466 0.68771 0.63109 0.0
O51 O 0.17122 0.6785 0.37104 0.0
H52 H 0.16387 0.57283 0.32565 0.0
H53 H 0.00523 0.66017 0.28925 0.0
O54 O 0.18937 0.74756 0.45847 0.0
O55 O 0.09957 0.80855 0.37683 0.0
O56 O 0.07446 0.73103 0.32818 0.0
C57 C 0.09731 0.77818 0.30457 0.0
H58 H 0.14276 0.864 0.80672 0.0
H59 H 0.11358 0.54602 0.15711 0.0
Co60 Co 0.46923 0.84813 0.79021 0.0
C61 C 0.48797 0.94759 0.64705 0.0
Co62 Co 0.54368 0.83595 0.7017 0.0
C63 C 0.36526 0.82723 0.89311 0.0
C64 C 0.39946 0.90277 0.92227 0.0
N65 N 0.40866 0.85898 0.86985 0.0
N66 N 0.33212 0.84607 0.96829 0.0
C67 C 0.35043 0.89744 0.97627 0.0
H68 H 0.36372 0.78549 0.87116 0.0
H69 H 0.42924 0.93321 0.92967 0.0
C70 C 0.50799 0.7334 0.79939 0.0
N71 N 0.60902 0.83897 0.62455 0.0
C72 C 0.63051 0.88935 0.5745 0.0
C73 C 0.64012 0.79893 0.58609 0.0
N74 N 0.65383 0.88582 0.47791 0.0
C75 C 0.67189 0.82885 0.50446 0.0
C76 C 0.57076 0.82959 0.92498 0.0
O77 O 0.46926 0.76597 0.8296 0.0
O78 O 0.54979 0.75531 0.74894 0.0
O79 O 0.59191 0.83638 0.8293 0.0
O80 O 0.5181 0.84187 0.92657 0.0
O81 O 0.53272 0.91847 0.64046 0.0
H82 H 0.63558 0.75265 0.60607 0.0
H83 H 0.61906 0.93155 0.59157 0.0
O84 O 0.46244 0.93138 0.73628 0.0
O85 O 0.42358 0.84921 0.66941 0.0
O86 O 0.49617 0.82861 0.57418 0.0
C87 C 0.44344 0.83892 0.58035 0.0
H88 H 0.3368 0.92237 1.03671 0.0
H89 H 0.69542 0.80979 0.44928 0.0
Co90 Co 0.3615 0.16695 0.93605 0.0
C91 C 0.45079 0.20401 1.01882 0.0
Co92 Co 0.34548 0.24917 0.98124 0.0
C93 C 0.32534 0.06465 0.8953 0.0
C94 C 0.41023 0.06917 0.85648 0.0
N95 N 0.36932 0.09509 0.90363 0.0
N96 N 0.3314 0.03581 0.81334 0.0
C97 C 0.38739 0.0318 0.80416 0.0
H98 H 0.28484 0.07508 0.92648 0.0
H99 H 0.45142 0.08211 0.84773 0.0
C100 C 0.25328 0.21624 0.87869 0.0
N101 N 0.32587 0.31772 1.02613 0.0
C102 C 0.32798 0.32778 0.1286 0.0
C103 C 0.30063 0.36722 0.96349 0.0
N104 N 0.30477 0.38127 0.13244 0.0
C105 C 0.2883 0.40679 1.0285 0.0
C106 C 0.38317 0.2686 0.75922 0.0
O107 O 0.28787 0.17457 0.87451 0.0
O108 O 0.26785 0.25004 0.93762 0.0
O109 O 0.36041 0.29473 0.83005 0.0
O110 O 0.38745 0.2123 0.78597 0.0
O111 O 0.42002 0.25035 1.01767 0.0
H112 H 0.29112 0.37405 0.87617 0.0
H113 H 0.34796 0.29725 0.1981 0.0
O114 O 0.43226 0.16141 0.98817 0.0
O115 O 0.34449 0.12113 1.08181 0.0
O116 O 0.33886 0.2006 0.1402 0.0
C117 C 0.34776 0.14468 0.16348 0.0
H118 H 0.40904 0.01502 0.74237 0.0
H119 H 0.27005 0.45103 1.00145 0.0
Co120 Co 0.00272 0.83836 1.01235 0.0
C121 C 0.9539 0.76594 0.90319 0.0
Co122 Co 0.92866 0.87251 0.94262 0.0
C123 C 0.09753 0.83262 0.13662 0.0
C124 C 0.09645 0.75868 1.06537 0.0
N125 N 0.06924 0.81014 1.06613 0.0
N126 N 0.12509 0.79055 0.20797 0.0
C127 C 0.13379 0.74812 0.14956 0.0
H128 H 0.08864 0.87496 0.15505 0.0
H129 H 0.08511 0.7273 1.01983 0.0
C130 C -0.02628 0.94604 1.06663 0.0
N131 N 0.8657 0.90879 0.86447 0.0
C132 C 0.82858 0.88052 0.82122 0.0
C133 C 0.86555 0.96121 0.79379 0.0
N134 N 0.8113 0.90963 0.71962 0.0
C135 C 0.83208 0.96175 0.70471 0.0
C136 C 0.91133 0.80331 0.15549 0.0
O137 O 0.00274 0.89886 1.09685 0.0
O138 O 0.94181 0.94908 0.98358 0.0
O139 O 0.88697 0.8473 1.08635 0.0
O140 O 0.96241 0.7904 0.13696 0.0
O141 O 0.91359 0.80173 0.9099 0.0
H142 H 0.89558 -0.00766 0.79523 0.0
H143 H 0.8223 0.83512 0.85282 0.0
O144 O 0.00093 0.77601 0.93421 0.0
O145 O 0.04597 0.88041 0.89662 0.0
O146 O -0.02522 0.88575 0.79398 0.0
C147 C 0.02793 0.88138 0.80135 0.0
H148 H 0.1538 0.70519 0.18006 0.0
H149 H 0.83219 -0.00706 0.62663 0.0
Co150 Co 0.34724 0.76962 0.25903 0.0
C151 C 0.44194 0.73767 0.16739 0.0
Co152 Co 0.34184 0.69047 0.18975 0.0
C153 C 0.41203 0.81224 0.41198 0.0
C154 C 0.33047 0.85603 0.39341 0.0
N155 N 0.36489 0.81947 0.34982 0.0
N156 N 0.40795 0.84173 0.49367 0.0
C157 C 0.35643 0.86902 0.48239 0.0
H158 H 0.44631 0.78083 0.4052 0.0
H159 H 0.28771 0.86826 0.36862 0.0
C160 C 0.24914 0.72531 0.30813 0.0
N161 N 0.34759 0.6315 1.09325 0.0
C162 C 0.39528 0.60448 1.05613 0.0
C163 C 0.30803 0.61999 1.02771 0.0
N164 N 0.38686 0.57829 0.96956 0.0
C165 C 0.33132 0.58845 0.95371 0.0
C166 C 0.35422 0.66287 0.38974 0.0
O167 O 0.28034 0.76256 0.32325 0.0
O168 O 0.26218 0.69351 0.23581 0.0
O169 O 0.35196 0.6325 0.31748 0.0
O170 O 0.37709 0.71001 0.36614 0.0
O171 O 0.41895 0.692 0.16517 0.0
H172 H 0.26525 0.63711 1.02766 0.0
H173 H 0.4364 0.60798 1.08551 0.0
O174 O 0.41467 0.7796 0.19504 0.0
O175 O 0.31626 0.82583 0.15037 0.0
O176 O 0.32689 0.75335 1.0632 0.0
C177 C 0.31764 0.80809 1.06033 0.0
H178 H 0.33797 0.89501 0.53726 0.0
H179 H 0.30875 0.57701 0.88768 0.0
Co180 Co 0.40784 0.10503 0.49266 0.0
C181 C 0.44349 0.2076 0.39491 0.0
Co182 Co 0.4823 0.09289 0.40417 0.0
C183 C 0.32098 0.05165 0.61976 0.0
C184 C 0.31141 0.14212 0.60811 0.0
N185 N 0.34247 0.10202 0.5697 0.0
N186 N 0.2976 0.0553 0.71622 0.0
C187 C 0.27961 0.11228 0.6898 0.0
H188 H 0.33247 0.00942 0.60286 0.0
H189 H 0.316 0.18839 0.58812 0.0
C190 C 0.46359 -0.00657 0.54742 0.0
N191 N 0.5429 0.08204 0.3246 0.0
C192 C 0.58628 0.11381 0.30136 0.0
C193 C 0.55215 0.03823 0.27226 0.0
N194 N 0.61946 0.09497 0.22622 0.0
C195 C 0.60119 0.04357 0.21831 0.0
C196 C 0.50805 0.10209 0.61408 0.0
O197 O 0.41881 0.02252 0.55397 0.0
O198 O 0.4891 0.00964 0.45816 0.0
O199 O 0.52792 0.09183 0.52501 0.0
O200 O 0.4553 0.11238 0.62023 0.0
O201 O 0.48224 0.17505 0.36475 0.0
H202 H 0.52239 0.00777 0.26484 0.0
H203 H 0.5878 0.15557 0.32325 0.0
O204 O 0.40171 0.18567 0.44536 0.0
O205 O 0.35963 0.10456 0.36506 0.0
O206 O 0.43345 0.09913 0.26776 0.0
C207 C 0.38079 0.1114 0.26938 0.0
H208 H 0.25613 0.13136 0.74498 0.0
H209 H 0.61486 0.01862 0.15792 0.0
Co210 Co 0.10589 0.19173 0.71325 0.0
C211 C 0.19811 0.22472 0.8157 0.0
Co212 Co 0.0899 0.27397 0.75835 0.0
C213 C 0.12325 0.11309 0.56595 0.0
C214 C 0.15085 0.07372 0.73095 0.0
N215 N 0.1255 0.12319 0.66838 0.0
N216 N 0.14644 0.0596 0.56212 0.0
C217 C 0.16313 0.03414 0.66594 0.0
H218 H 0.10321 0.14361 0.4965 0.0
H219 H 0.16051 0.06695 0.8182 0.0
C220 C 0.00056 0.23682 0.6758 0.0
N221 N 0.08202 0.34582 0.79073 0.0
C222 C 0.12597 0.37631 0.79905 0.0
C223 C 0.04111 0.37167 0.83798 0.0
N224 N 0.11991 0.40512 0.88105 0.0
C225 C 0.06392 0.40905 0.89033 0.0
C226 C 0.10364 0.29623 0.53096 0.0
O227 O 0.03135 0.1905 0.67693 0.0
O228 O 0.01912 0.27946 0.70628 0.0
O229 O 0.10691 0.31978 0.61263 0.0
O230 O 0.11249 0.2403 0.55427 0.0
O231 O 0.16353 0.26639 0.81986 0.0
H232 H -6e-05 0.35865 0.84681 0.0
H233 H 0.16648 0.36591 0.76784 0.0
O234 O 0.18353 0.1909 0.7568 0.0
O235 O 0.09102 0.14618 0.86445 0.0
O236 O 0.06397 0.22864 0.90843 0.0
C237 C 0.06825 0.17235 0.93523 0.0
H238 H 0.18152 -0.01006 0.6929 0.0
H239 H 0.04226 0.42576 0.95218 0.0
Co240 Co 0.84712 0.26953 0.75927 0.0
C241 C 0.94182 0.23757 0.66766 0.0
Co242 Co 0.8417 0.19043 0.68987 0.0
C243 C 0.91193 0.31216 0.91218 0.0
C244 C 0.83036 0.35593 0.89363 0.0
N245 N 0.86477 0.31935 0.85009 0.0
N246 N 0.90789 0.34174 0.99373 0.0
C247 C 0.85636 0.36899 0.9825 0.0
H248 H 0.9462 0.28073 0.90543 0.0
H249 H 0.7876 0.36814 0.86888 0.0
C250 C 0.74898 0.2253 0.80818 0.0
N251 N 0.84743 0.13151 0.59324 0.0
C252 C 0.89512 0.10449 0.55613 0.0
C253 C 0.80788 0.12007 0.52759 0.0
N254 N 0.88672 0.07844 0.46937 0.0
C255 C 0.83118 0.08858 0.45352 0.0
C256 C 0.85402 0.16272 0.88988 0.0
O257 O 0.78021 0.2625 0.82341 0.0
O258 O 0.76202 0.19353 0.73582 0.0
O259 O 0.85174 0.13241 0.81752 0.0
O260 O 0.87691 0.20986 0.8664 0.0
O261 O 0.91883 0.19191 0.66539 0.0
H262 H 0.76511 0.13719 0.52755 0.0
H263 H 0.93624 0.1079 0.58564 0.0
O264 O 0.91456 0.27948 0.69538 0.0
O265 O 0.8162 0.32578 0.65061 0.0
O266 O 0.82683 0.25335 0.56338 0.0
C267 C 0.81762 0.30809 0.56052 0.0
H268 H 0.8379 0.39501 1.03734 0.0
H269 H 0.80862 0.07715 0.38745 0.0
Co270 Co 0.60599 0.69179 0.21313 0.0
C271 C 0.69819 0.72477 0.31573 0.0
Co272 Co 0.58998 0.77402 0.25829 0.0
C273 C 0.62351 0.61319 1.06578 0.0
C274 C 0.65089 0.57374 0.23087 0.0
N275 N 0.62564 0.62325 0.16825 0.0
N276 N 0.64672 0.55971 1.06191 0.0
C277 C 0.6632 0.53419 0.16584 0.0
H278 H 0.60351 0.64373 0.9963 0.0
H279 H 0.6604 0.56691 0.31819 0.0
C280 C 0.50068 0.73691 0.17555 0.0
N281 N 0.58209 0.84588 0.29062 0.0
C282 C 0.62605 0.87635 0.29895 0.0
C283 C 0.54115 0.87174 0.33786 0.0
N284 N 0.61992 0.90515 0.38093 0.0
C285 C 0.56395 0.90911 0.39029 0.0
C286 C 0.60374 0.79628 1.0309 0.0
O287 O 0.53145 0.69057 0.17674 0.0
O288 O 0.51923 0.77954 0.2061 0.0
O289 O 0.60704 0.81984 0.11256 0.0
O290 O 0.61261 0.74035 1.05416 0.0
O291 O 0.66359 0.76643 0.31995 0.0
H292 H 0.49999 0.85873 0.34665 0.0
H293 H 0.66657 0.86593 0.26783 0.0
O294 O 0.68362 0.69099 0.25674 0.0
O295 O 0.59109 0.64624 0.36434 0.0
O296 O 0.56399 0.72867 0.40834 0.0
C297 C 0.5683 0.67238 0.43513 0.0
H298 H 0.68146 0.48994 0.19288 0.0
H299 H 0.54231 0.92581 0.45216 0.0
Co300 Co 0.60957 0.25053 1.00464 0.0
C301 C 0.70224 0.21577 0.88616 0.0
Co302 Co 0.60419 0.17134 0.93548 0.0
C303 C 0.55613 0.33655 0.13819 0.0
C304 C 0.64339 0.32106 0.16656 0.0
N305 N 0.60382 0.30953 0.10106 0.0
N306 N 0.56455 0.36275 0.22474 0.0
C307 C 0.6201 0.3526 0.24056 0.0
H308 H 0.515 0.33302 0.10885 0.0
H309 H 0.68616 0.30395 0.1666 0.0
C310 C 0.50953 0.20322 1.02721 0.0
N311 N 0.58656 0.12145 0.84474 0.0
C312 C 0.5394 0.12867 0.7826 0.0
C313 C 0.621 0.08495 0.80107 0.0
N314 N 0.54352 0.09925 0.70081 0.0
C315 C 0.59505 0.07199 0.71204 0.0
C316 C 0.6339 0.13295 0.13413 0.0
O317 O 0.53249 0.24892 1.02935 0.0
O318 O 0.5368 0.16128 0.99961 0.0
O319 O 0.63527 0.11517 1.04412 0.0
O320 O 0.62461 0.18769 0.13121 0.0
O321 O 0.67107 0.17848 0.87112 0.0
H322 H 0.66376 0.07276 0.82582 0.0
H323 H 0.50511 0.16005 0.78944 0.0
O324 O 0.6892 0.24757 0.95847 0.0
O325 O 0.59936 0.30846 0.87688 0.0
O326 O 0.57423 0.23091 0.8284 0.0
C327 C 0.59706 0.27807 0.80466 0.0
H328 H 0.64268 0.36406 0.30657 0.0
H329 H 0.61354 0.04606 0.65709 0.0
Co330 Co 0.86158 0.66702 0.43604 0.0
C331 C 0.95088 0.70412 0.5187 0.0
Co332 Co 0.84557 0.74925 0.48119 0.0
C333 C 0.82545 0.5647 0.39534 0.0
C334 C 0.91032 0.56927 0.35647 0.0
N335 N 0.86941 0.59516 0.40366 0.0
N336 N 0.8315 0.53587 0.31337 0.0
C337 C 0.88749 0.53189 0.30413 0.0
H338 H 0.78494 0.57512 0.42653 0.0
H339 H 0.9515 0.58224 0.34767 0.0
C340 C 0.75335 0.71629 0.37873 0.0
N341 N 0.82598 0.8178 0.52603 0.0
C342 C 0.82819 0.8279 0.62846 0.0
C343 C 0.80066 0.86727 0.46341 0.0
N344 N 0.805 0.88141 0.63224 0.0
C345 C 0.78837 0.90687 0.52838 0.0
C346 C 0.88323 0.76865 0.25917 0.0
O347 O 0.78794 0.67463 0.37452 0.0
O348 O 0.76792 0.75008 0.43767 0.0
O349 O 0.86045 0.79479 0.32996 0.0
O350 O 0.88752 0.71236 0.28595 0.0
O351 O 0.92011 0.75045 0.51751 0.0
H352 H 0.79104 0.87404 0.37614 0.0
H353 H 0.84819 0.79738 0.69795 0.0
O354 O 0.93235 0.66149 0.48814 0.0
O355 O 0.84457 0.62121 0.5818 0.0
O356 O 0.83898 0.70069 0.64017 0.0
C357 C 0.84785 0.64476 0.66347 0.0
H358 H 0.90914 0.51516 0.2423 0.0
H359 H 0.77 0.95107 0.50138 0.0
Co360 Co 0.52284 0.56852 0.75166 0.0
C361 C 0.47774 0.49499 0.62769 0.0
Co362 Co 0.44878 0.60268 0.68195 0.0
C363 C 0.62292 0.56054 0.87302 0.0
C364 C 0.58593 0.47984 0.90061 0.0
N365 N 0.58582 0.53223 0.82981 0.0
N366 N 0.64013 0.53146 0.97467 0.0
C367 C 0.61937 0.47933 0.98974 0.0
H368 H 0.62924 0.60592 0.84134 0.0
H369 H 0.55589 0.44871 0.89919 0.0
C370 C 0.49764 0.67509 0.79108 0.0
N371 N 0.38227 0.63092 0.62818 0.0
C372 C 0.35396 0.60844 0.5577 0.0
C373 C 0.35507 0.68239 0.62892 0.0
N374 N 0.32643 0.65052 0.48632 0.0
C375 C 0.31774 0.69295 0.54472 0.0
C376 C 0.42358 0.55966 0.89296 0.0
O377 O 0.53794 0.6393 0.78437 0.0
O378 O 0.4506 0.66504 0.76009 0.0
O379 O 0.40553 0.56065 0.79769 0.0
O380 O 0.47673 0.55529 0.9003 0.0
O381 O 0.44874 0.54218 0.59747 0.0
H382 H 0.36642 0.71377 0.67446 0.0
H383 H 0.36283 0.5661 0.53929 0.0
O384 O 0.50967 0.49195 0.7107 0.0
O385 O 0.56453 0.59371 0.60793 0.0
O386 O 0.4891 0.65063 0.55732 0.0
C387 C 0.54017 0.63771 0.53878 0.0
H388 H 0.61926 0.44818 1.06785 0.0
H389 H 0.29773 0.73589 0.51422 0.0
Co390 Co -0.03086 0.34813 0.29026 0.0
C391 C -0.01208 0.44759 0.14708 0.0
Co392 Co 0.0436 0.33593 0.20181 0.0
C393 C 0.86521 0.32724 0.39326 0.0
C394 C 0.89939 0.40282 0.42232 0.0
N395 N 0.90857 0.35902 0.36987 0.0
N396 N 0.83216 0.34607 0.46855 0.0
C397 C 0.85041 0.39746 0.47654 0.0
H398 H 0.86366 0.28547 0.37138 0.0
H399 H 0.92918 0.43326 0.42968 0.0
C400 C 0.00789 0.2334 0.29953 0.0
N401 N 0.10895 0.33892 0.12471 0.0
C402 C 0.13043 0.3893 1.07459 0.0
C403 C 0.14001 0.29883 1.08625 0.0
N404 N 0.15376 0.38566 0.9781 0.0
C405 C 0.17177 0.32869 1.00452 0.0
C406 C 0.07065 0.32953 0.42505 0.0
O407 O -0.03086 0.26598 0.32967 0.0
O408 O 0.04969 0.25529 0.24909 0.0
O409 O 0.09182 0.33636 0.32938 0.0
O410 O 0.018 0.34186 0.42664 0.0
O411 O 0.03267 0.41844 0.14054 0.0
H412 H 0.13543 0.25256 0.10627 0.0
H413 H 0.11897 0.43153 1.09153 0.0
O414 O 0.96238 0.43139 0.23629 0.0
O415 O 0.9235 0.34922 0.16947 0.0
O416 O -0.0039 0.32859 1.07429 0.0
C417 C 0.94336 0.33891 1.08044 0.0
H418 H 0.83683 0.42234 0.53708 0.0
H419 H 0.19526 0.30962 0.94932 0.0
Co420 Co 0.50268 0.33833 0.51234 0.0
C421 C 0.45381 0.26593 0.40321 0.0
Co422 Co 0.42859 0.37247 0.4427 0.0
C423 C 0.59748 0.33248 0.63667 0.0
C424 C 0.59632 0.25855 0.5654 0.0
N425 N 0.5692 0.31007 0.56607 0.0
N426 N 0.6249 0.29035 0.70813 0.0
C427 C 0.63356 0.2479 0.64975 0.0
H428 H 0.58864 0.37483 0.65509 0.0
H429 H 0.58494 0.2272 0.51984 0.0
C430 C 0.47372 0.446 0.56667 0.0
N431 N 0.36562 0.40877 0.36457 0.0
C432 C 0.32852 0.38046 0.32135 0.0
C433 C 0.36551 0.46116 0.29377 0.0
N434 N 0.31133 0.40953 0.21968 0.0
C435 C 0.33209 0.46166 0.20462 0.0
C436 C 0.41129 0.30327 0.65555 0.0
O437 O 0.50274 0.39882 0.59686 0.0
O438 O 0.44177 0.44904 0.48368 0.0
O439 O 0.38692 0.34727 0.58643 0.0
O440 O 0.46236 0.29036 0.63698 0.0
O441 O 0.4135 0.30169 0.40998 0.0
H442 H 0.39555 0.49228 0.2952 0.0
H443 H 0.3222 0.33508 0.35303 0.0
O444 O 0.50085 0.27601 0.43415 0.0
O445 O 0.54591 0.38039 0.39661 0.0
O446 O 0.47469 0.38572 0.29404 0.0
C447 C 0.52785 0.38137 0.30135 0.0
H448 H 0.65346 0.20492 0.68032 0.0
H449 H 0.33222 0.49281 0.1265 0.0
Co450 Co 0.90789 0.60507 0.99265 0.0
C451 C 0.94357 0.70762 0.8949 0.0
Co452 Co -0.01764 0.5929 0.9042 0.0
C453 C 0.82103 0.5517 0.1198 0.0
C454 C 0.81146 0.64217 0.10815 0.0
N455 N 0.84252 0.60207 1.06971 0.0
N456 N 0.79768 0.55534 0.21628 0.0
C457 C 0.77968 0.61231 0.18985 0.0
H458 H 0.8325 0.50946 0.10289 0.0
H459 H 0.81605 0.68843 1.08814 0.0
C460 C 0.9636 0.49345 1.04743 0.0
N461 N 0.04295 0.58203 0.82464 0.0
C462 C 0.0863 0.61384 0.80125 0.0
C463 C 0.05219 0.5382 0.77228 0.0
N464 N 0.11939 0.59499 0.72604 0.0
C465 C 0.10119 0.54358 0.71813 0.0
C466 C 0.00811 0.6021 0.11408 0.0
O467 O 0.91882 0.52255 1.05392 0.0
O468 O -0.01085 0.50964 0.95821 0.0
O469 O 0.02798 0.59183 1.02502 0.0
O470 O 0.95536 0.6124 0.12022 0.0
O471 O -0.01768 0.67506 0.86477 0.0
H472 H 0.02242 0.50774 0.76492 0.0
H473 H 0.0878 0.65562 0.82307 0.0
O474 O 0.90178 0.68571 0.94538 0.0
O475 O 0.85968 0.60463 0.86505 0.0
O476 O 0.93351 0.59914 0.7678 0.0
C477 C 0.88085 0.61146 0.76938 0.0
H478 H 0.7562 0.63139 0.24505 0.0
H479 H 0.11481 0.51867 0.65765 0.0
loop_
_geom_bond_atom_site_label_1
_geom_bond_atom_site_label_2
_geom_bond_distance
_geom_bond_site_symmetry_2
_ccdc_geom_bond_type
Co0 N5 2.057 . S
Co0 O17 2.021 . S
Co0 O20 2.062 1_455 S
Co0 O24 2.117 . S
Co0 O25 2.020 . S
C1 O21 1.259 1_465 S
C1 O24 1.258 1_565 S
Co2 N11 2.057 1_554 S
Co2 O18 2.117 . S
Co2 O19 2.020 . S
Co2 O21 2.021 . S
Co2 O26 2.062 1_654 S
C3 N5 1.316 . S
C3 N6 1.347 . S
C3 H8 0.931 . S
C4 N5 1.375 . S
C4 C7 1.350 1_545 S
C4 H9 0.930 1_545 S
N5 Co0 2.057 . S
N5 C3 1.316 . S
N5 C4 1.375 . S
N6 C3 1.347 . S
N6 C7 1.373 1_545 S
C7 C4 1.350 1_565 S
C7 N6 1.373 1_565 S
C7 H28 0.931 . S
H8 C3 0.931 . S
H9 C4 0.930 1_565 S
C10 O17 1.259 . S
C10 O18 1.258 1_455 S
N11 Co2 2.057 1_556 S
N11 C12 1.316 . S
N11 C13 1.375 . S
C12 N11 1.316 . S
C12 N14 1.347 . S
C12 H23 0.931 . S
C13 N11 1.375 . S
C13 C15 1.350 . S
C13 H22 0.930 . S
N14 C12 1.347 . S
N14 C15 1.373 . S
C15 C13 1.350 . S
C15 N14 1.373 . S
C15 H29 0.931 . S
C16 O19 1.256 . S
C16 O20 1.255 . S
O17 Co0 2.021 . S
O17 C10 1.259 . S
O18 Co2 2.117 . S
O18 C10 1.258 1_655 S
O19 Co2 2.020 . S
O19 C16 1.256 . S
O20 Co0 2.062 1_655 S
O20 C16 1.255 . S
O21 C1 1.259 1_645 S
O21 Co2 2.021 . S
H22 C13 0.930 . S
H23 C12 0.931 . S
O24 Co0 2.117 . S
O24 C1 1.258 1_545 S
O25 Co0 2.020 . S
O25 C27 1.256 1_554 S
O26 Co2 2.062 1_456 S
O26 C27 1.255 . S
C27 O25 1.256 1_556 S
C27 O26 1.255 . S
H28 C7 0.931 . S
H29 C15 0.931 . S
Co30 N35 2.057 . S
Co30 O47 2.021 . S
Co30 O50 2.062 . S
Co30 O54 2.117 . S
Co30 O55 2.020 . S
C31 O51 1.259 . S
C31 O54 1.258 . S
Co32 N41 2.057 . S
Co32 O48 2.117 . S
Co32 O49 2.020 . S
Co32 O51 2.021 . S
Co32 O56 2.062 . S
C33 N35 1.316 . S
C33 N36 1.347 . S
C33 H38 0.931 . S
C34 N35 1.375 . S
C34 C37 1.350 . S
C34 H39 0.930 . S
N35 Co30 2.057 . S
N35 C33 1.316 . S
N35 C34 1.375 . S
N36 C33 1.347 . S
N36 C37 1.373 . S
C37 C34 1.350 . S
C37 N36 1.373 . S
C37 H58 0.931 . S
H38 C33 0.931 . S
H39 C34 0.930 . S
C40 O47 1.259 . S
C40 O48 1.258 . S
N41 Co32 2.057 . S
N41 C42 1.316 . S
N41 C43 1.375 . S
C42 N41 1.316 . S
C42 N44 1.347 . S
C42 H53 0.931 . S
C43 N41 1.375 . S
C43 C45 1.350 . S
C43 H52 0.930 . S
N44 C42 1.347 . S
N44 C45 1.373 . S
C45 C43 1.350 . S
C45 N44 1.373 . S
C45 H59 0.931 . S
C46 O49 1.256 . S
C46 O50 1.255 . S
O47 Co30 2.021 . S
O47 C40 1.259 . S
O48 Co32 2.117 . S
O48 C40 1.258 . S
O49 Co32 2.020 . S
O49 C46 1.256 . S
O50 Co30 2.062 . S
O50 C46 1.255 . S
O51 C31 1.259 . S
O51 Co32 2.021 . S
H52 C43 0.930 . S
H53 C42 0.931 . S
O54 Co30 2.117 . S
O54 C31 1.258 . S
O55 Co30 2.020 . S
O55 C57 1.256 . S
O56 Co32 2.062 . S
O56 C57 1.255 . S
C57 O55 1.256 . S
C57 O56 1.255 . S
H58 C37 0.931 . S
H59 C45 0.931 . S
Co60 N65 2.057 . S
Co60 O77 2.021 . S
Co60 O80 2.062 . S
Co60 O84 2.117 . S
Co60 O85 2.020 . S
C61 O81 1.259 1_545 S
C61 O84 1.258 1_545 S
Co62 N71 2.057 . S
Co62 O78 2.117 . S
Co62 O79 2.020 . S
Co62 O81 2.021 . S
Co62 O86 2.062 . S
C63 N65 1.316 . S
C63 N66 1.347 . S
C63 H68 0.931 . S
C64 N65 1.375 . S
C64 C67 1.350 . S
C64 H69 0.930 1_565 S
N65 Co60 2.057 . S
N65 C63 1.316 . S
N65 C64 1.375 . S
N66 C63 1.347 . S
N66 C67 1.373 . S
C67 C64 1.350 . S
C67 N66 1.373 . S
C67 H88 0.931 1_565 S
H68 C63 0.931 . S
H69 C64 0.930 1_545 S
C70 O77 1.259 . S
C70 O78 1.258 . S
N71 Co62 2.057 . S
N71 C72 1.316 . S
N71 C73 1.375 . S
C72 N71 1.316 . S
C72 N74 1.347 . S
C72 H83 0.931 . S
C73 N71 1.375 . S
C73 C75 1.350 . S
C73 H82 0.930 . S
N74 C72 1.347 . S
N74 C75 1.373 . S
C75 C73 1.350 . S
C75 N74 1.373 . S
C75 H89 0.931 . S
C76 O79 1.256 . S
C76 O80 1.255 . S
O77 Co60 2.021 . S
O77 C70 1.259 . S
O78 Co62 2.117 . S
O78 C70 1.258 . S
O79 Co62 2.020 . S
O79 C76 1.256 . S
O80 Co60 2.062 . S
O80 C76 1.255 . S
O81 C61 1.259 1_565 S
O81 Co62 2.021 . S
H82 C73 0.930 . S
H83 C72 0.931 . S
O84 Co60 2.117 . S
O84 C61 1.258 1_565 S
O85 Co60 2.020 . S
O85 C87 1.256 . S
O86 Co62 2.062 . S
O86 C87 1.255 . S
C87 O85 1.256 . S
C87 O86 1.255 . S
H88 C67 0.931 1_545 S
H89 C75 0.931 . S
Co90 N95 2.057 . S
Co90 O107 2.021 . S
Co90 O110 2.062 . S
Co90 O114 2.117 . S
Co90 O115 2.020 . S
C91 O111 1.259 . S
C91 O114 1.258 . S
Co92 N101 2.057 . S
Co92 O108 2.117 . S
Co92 O109 2.020 . S
Co92 O111 2.021 . S
Co92 O116 2.062 1_556 S
C93 N95 1.316 . S
C93 N96 1.347 . S
C93 H98 0.931 . S
C94 N95 1.375 . S
C94 C97 1.350 . S
C94 H99 0.930 . S
N95 Co90 2.057 . S
N95 C93 1.316 . S
N95 C94 1.375 . S
N96 C93 1.347 . S
N96 C97 1.373 . S
C97 C94 1.350 . S
C97 N96 1.373 . S
C97 H118 0.931 . S
H98 C93 0.931 . S
H99 C94 0.930 . S
C100 O107 1.259 . S
C100 O108 1.258 . S
N101 Co92 2.057 . S
N101 C102 1.316 1_556 S
N101 C103 1.375 1_556 S
C102 N101 1.316 1_554 S
C102 N104 1.347 . S
C102 H113 0.931 . S
C103 N101 1.375 1_554 S
C103 C105 1.350 . S
C103 H112 0.930 1_554 S
N104 C102 1.347 . S
N104 C105 1.373 . S
C105 C103 1.350 . S
C105 N104 1.373 . S
C105 H119 0.931 . S
C106 O109 1.256 . S
C106 O110 1.255 . S
O107 Co90 2.021 . S
O107 C100 1.259 . S
O108 Co92 2.117 . S
O108 C100 1.258 . S
O109 Co92 2.020 . S
O109 C106 1.256 . S
O110 Co90 2.062 . S
O110 C106 1.255 . S
O111 C91 1.259 . S
O111 Co92 2.021 . S
H112 C103 0.930 1_556 S
H113 C102 0.931 . S
O114 Co90 2.117 . S
O114 C91 1.258 . S
O115 Co90 2.020 . S
O115 C117 1.256 1_556 S
O116 Co92 2.062 1_554 S
O116 C117 1.255 . S
C117 O115 1.256 1_554 S
C117 O116 1.255 . S
H118 C97 0.931 . S
H119 C105 0.931 . S
Co120 N125 2.057 1_556 S
Co120 O137 2.021 . S
Co120 O140 2.062 1_456 S
Co120 O144 2.117 . S
Co120 O145 2.020 . S
C121 O141 1.259 1_455 S
C121 O144 1.258 . S
Co122 N131 2.057 . S
Co122 O138 2.117 . S
Co122 O139 2.020 . S
Co122 O141 2.021 . S
Co122 O146 2.062 1_655 S
C123 N125 1.316 . S
C123 N126 1.347 . S
C123 H128 0.931 . S
C124 N125 1.375 . S
C124 C127 1.350 . S
C124 H129 0.930 . S
N125 Co120 2.057 1_554 S
N125 C123 1.316 . S
N125 C124 1.375 . S
N126 C123 1.347 . S
N126 C127 1.373 . S
C127 C124 1.350 . S
C127 N126 1.373 . S
C127 H148 0.931 . S
H128 C123 0.931 . S
H129 C124 0.930 . S
C130 O137 1.259 1_545 S
C130 O138 1.258 1_445 S
N131 Co122 2.057 . S
N131 C132 1.316 . S
N131 C133 1.375 . S
C132 N131 1.316 . S
C132 N134 1.347 . S
C132 H143 0.931 . S
C133 N131 1.375 . S
C133 C135 1.350 1_565 S
C133 H142 0.930 1_565 S
N134 C132 1.347 . S
N134 C135 1.373 1_565 S
C135 C133 1.350 1_545 S
C135 N134 1.373 1_545 S
C135 H149 0.931 . S
C136 O139 1.256 1_554 S
C136 O140 1.255 . S
O137 Co120 2.021 . S
O137 C130 1.259 1_565 S
O138 Co122 2.117 . S
O138 C130 1.258 1_665 S
O139 Co122 2.020 . S
O139 C136 1.256 1_556 S
O140 Co120 2.062 1_654 S
O140 C136 1.255 . S
O141 C121 1.259 1_655 S
O141 Co122 2.021 . S
H142 C133 0.930 1_545 S
H143 C132 0.931 . S
O144 Co120 2.117 . S
O144 C121 1.258 . S
O145 Co120 2.020 . S
O145 C147 1.256 . S
O146 Co122 2.062 1_455 S
O146 C147 1.255 . S
C147 O145 1.256 . S
C147 O146 1.255 . S
H148 C127 0.931 . S
H149 C135 0.931 . S
Co150 N155 2.057 . S
Co150 O167 2.021 . S
Co150 O170 2.062 . S
Co150 O174 2.117 . S
Co150 O175 2.020 . S
C151 O171 1.259 . S
C151 O174 1.258 . S
Co152 N161 2.048 1_554 S
Co152 O168 2.117 . S
Co152 O169 2.020 . S
Co152 O171 2.021 . S
Co152 O176 2.062 1_554 S
C153 N155 1.316 . S
C153 N156 1.347 . S
C153 H158 0.931 . S
C154 N155 1.375 . S
C154 C157 1.350 . S
C154 H159 0.930 . S
N155 Co150 2.057 . S
N155 C153 1.316 . S
N155 C154 1.375 . S
N156 C153 1.347 . S
N156 C157 1.373 . S
C157 C154 1.350 . S
C157 N156 1.373 . S
C157 H178 0.931 . S
H158 C153 0.931 . S
H159 C154 0.930 . S
C160 O167 1.259 . S
C160 O168 1.258 . S
N161 Co152 2.048 1_556 S
N161 C162 1.326 . S
N161 C163 1.377 . S
C162 N161 1.326 . S
C162 N164 1.347 . S
C162 H173 0.931 . S
C163 N161 1.377 . S
C163 C165 1.350 . S
C163 H172 0.930 1_556 S
N164 C162 1.347 . S
N164 C165 1.373 . S
C165 C163 1.350 . S
C165 N164 1.373 . S
C165 H179 0.931 . S
C166 O169 1.256 . S
C166 O170 1.255 . S
O167 Co150 2.021 . S
O167 C160 1.259 . S
O168 Co152 2.117 . S
O168 C160 1.258 . S
O169 Co152 2.020 . S
O169 C166 1.256 . S
O170 Co150 2.062 . S
O170 C166 1.255 . S
O171 C151 1.259 . S
O171 Co152 2.021 . S
H172 C163 0.930 1_554 S
H173 C162 0.931 . S
O174 Co150 2.117 . S
O174 C151 1.258 . S
O175 Co150 2.020 . S
O175 C177 1.256 1_554 S
O176 Co152 2.062 1_556 S
O176 C177 1.255 . S
C177 O175 1.256 1_556 S
C177 O176 1.255 . S
H178 C157 0.931 . S
H179 C165 0.931 . S
Co180 N185 2.057 . S
Co180 O197 2.021 . S
Co180 O200 2.062 . S
Co180 O204 2.117 . S
Co180 O205 2.020 . S
C181 O201 1.259 . S
C181 O204 1.258 . S
Co182 N191 2.057 . S
Co182 O198 2.117 . S
Co182 O199 2.020 . S
Co182 O201 2.021 . S
Co182 O206 2.062 . S
C183 N185 1.316 . S
C183 N186 1.347 . S
C183 H188 0.931 . S
C184 N185 1.375 . S
C184 C187 1.350 . S
C184 H189 0.930 . S
N185 Co180 2.057 . S
N185 C183 1.316 . S
N185 C184 1.375 . S
N186 C183 1.347 . S
N186 C187 1.373 . S
C187 C184 1.350 . S
C187 N186 1.373 . S
C187 H208 0.931 . S
H188 C183 0.931 . S
H189 C184 0.930 . S
C190 O197 1.259 1_565 S
C190 O198 1.258 1_565 S
N191 Co182 2.057 . S
N191 C192 1.316 . S
N191 C193 1.375 . S
C192 N191 1.316 . S
C192 N194 1.347 . S
C192 H203 0.931 . S
C193 N191 1.375 . S
C193 C195 1.350 . S
C193 H202 0.930 1_545 S
N194 C192 1.347 . S
N194 C195 1.373 . S
C195 C193 1.350 . S
C195 N194 1.373 . S
C195 H209 0.931 1_545 S
C196 O199 1.256 . S
C196 O200 1.255 . S
O197 Co180 2.021 . S
O197 C190 1.259 1_545 S
O198 Co182 2.117 . S
O198 C190 1.258 1_545 S
O199 Co182 2.020 . S
O199 C196 1.256 . S
O200 Co180 2.062 . S
O200 C196 1.255 . S
O201 C181 1.259 . S
O201 Co182 2.021 . S
H202 C193 0.930 1_565 S
H203 C192 0.931 . S
O204 Co180 2.117 . S
O204 C181 1.258 . S
O205 Co180 2.020 . S
O205 C207 1.256 . S
O206 Co182 2.062 . S
O206 C207 1.255 . S
C207 O205 1.256 . S
C207 O206 1.255 . S
H208 C187 0.931 . S
H209 C195 0.931 1_565 S
Co210 N215 2.057 . S
Co210 O227 2.021 . S
Co210 O230 2.062 . S
Co210 O234 2.117 . S
Co210 O235 2.020 . S
C211 O231 1.259 . S
C211 O234 1.258 . S
Co212 N221 2.057 . S
Co212 O228 2.117 . S
Co212 O229 2.020 . S
Co212 O231 2.021 . S
Co212 O236 2.062 . S
C213 N215 1.316 . S
C213 N216 1.347 . S
C213 H218 0.931 . S
C214 N215 1.375 . S
C214 C217 1.350 . S
C214 H219 0.930 . S
N215 Co210 2.057 . S
N215 C213 1.316 . S
N215 C214 1.375 . S
N216 C213 1.347 . S
N216 C217 1.373 . S
C217 C214 1.350 . S
C217 N216 1.373 . S
C217 H238 0.931 . S
H218 C213 0.931 . S
H219 C214 0.930 . S
C220 O227 1.259 . S
C220 O228 1.258 . S
N221 Co212 2.057 . S
N221 C222 1.316 . S
N221 C223 1.375 . S
C222 N221 1.316 . S
C222 N224 1.347 . S
C222 H233 0.931 . S
C223 N221 1.375 . S
C223 C225 1.350 . S
C223 H232 0.930 . S
N224 C222 1.347 . S
N224 C225 1.373 . S
C225 C223 1.350 . S
C225 N224 1.373 . S
C225 H239 0.931 . S
C226 O229 1.256 . S
C226 O230 1.255 . S
O227 Co210 2.021 . S
O227 C220 1.259 . S
O228 Co212 2.117 . S
O228 C220 1.258 . S
O229 Co212 2.020 . S
O229 C226 1.256 . S
O230 Co210 2.062 . S
O230 C226 1.255 . S
O231 C211 1.259 . S
O231 Co212 2.021 . S
H232 C223 0.930 . S
H233 C222 0.931 . S
O234 Co210 2.117 . S
O234 C211 1.258 . S
O235 Co210 2.020 . S
O235 C237 1.256 . S
O236 Co212 2.062 . S
O236 C237 1.255 . S
C237 O235 1.256 . S
C237 O236 1.255 . S
H238 C217 0.931 . S
H239 C225 0.931 . S
Co240 N245 2.057 . S
Co240 O257 2.021 . S
Co240 O260 2.062 . S
Co240 O264 2.117 . S
Co240 O265 2.020 . S
C241 O261 1.259 . S
C241 O264 1.258 . S
Co242 N251 2.057 . S
Co242 O258 2.117 . S
Co242 O259 2.020 . S
Co242 O261 2.021 . S
Co242 O266 2.062 . S
C243 N245 1.316 . S
C243 N246 1.347 . S
C243 H248 0.931 . S
C244 N245 1.375 . S
C244 C247 1.350 . S
C244 H249 0.930 . S
N245 Co240 2.057 . S
N245 C243 1.316 . S
N245 C244 1.375 . S
N246 C243 1.347 . S
N246 C247 1.373 . S
C247 C244 1.350 . S
C247 N246 1.373 . S
C247 H268 0.931 . S
H248 C243 0.931 . S
H249 C244 0.930 . S
C250 O257 1.259 . S
C250 O258 1.258 . S
N251 Co242 2.057 . S
N251 C252 1.316 . S
N251 C253 1.375 . S
C252 N251 1.316 . S
C252 N254 1.347 . S
C252 H263 0.931 . S
C253 N251 1.375 . S
C253 C255 1.350 . S
C253 H262 0.930 . S
N254 C252 1.347 . S
N254 C255 1.373 . S
C255 C253 1.350 . S
C255 N254 1.373 . S
C255 H269 0.931 . S
C256 O259 1.256 . S
C256 O260 1.255 . S
O257 Co240 2.021 . S
O257 C250 1.259 . S
O258 Co242 2.117 . S
O258 C250 1.258 . S
O259 Co242 2.020 . S
O259 C256 1.256 . S
O260 Co240 2.062 . S
O260 C256 1.255 . S
O261 C241 1.259 . S
O261 Co242 2.021 . S
H262 C253 0.930 . S
H263 C252 0.931 . S
O264 Co240 2.117 . S
O264 C241 1.258 . S
O265 Co240 2.020 . S
O265 C267 1.256 . S
O266 Co242 2.062 . S
O266 C267 1.255 . S
C267 O265 1.256 . S
C267 O266 1.255 . S
H268 C247 0.931 . S
H269 C255 0.931 . S
Co270 N275 2.057 . S
Co270 O287 2.021 . S
Co270 O290 2.062 1_554 S
Co270 O294 2.117 . S
Co270 O295 2.020 . S
C271 O291 1.259 . S
C271 O294 1.258 . S
Co272 N281 2.057 . S
Co272 O288 2.117 . S
Co272 O289 2.020 . S
Co272 O291 2.021 . S
Co272 O296 2.062 . S
C273 N275 1.316 1_556 S
C273 N276 1.347 . S
C273 H278 0.931 . S
C274 N275 1.375 1_556 S
C274 C277 1.350 . S
C274 H279 0.930 1_556 S
N275 Co270 2.057 . S
N275 C273 1.316 1_554 S
N275 C274 1.375 1_554 S
N276 C273 1.347 . S
N276 C277 1.373 . S
C277 C274 1.350 . S
C277 N276 1.373 . S
C277 H298 0.931 . S
H278 C273 0.931 . S
H279 C274 0.930 1_554 S
C280 O287 1.259 . S
C280 O288 1.258 . S
N281 Co272 2.057 . S
N281 C282 1.316 . S
N281 C283 1.375 . S
C282 N281 1.316 . S
C282 N284 1.347 . S
C282 H293 0.931 . S
C283 N281 1.375 . S
C283 C285 1.350 . S
C283 H292 0.930 . S
N284 C282 1.347 . S
N284 C285 1.373 . S
C285 C283 1.350 . S
C285 N284 1.373 . S
C285 H299 0.931 . S
C286 O289 1.256 1_556 S
C286 O290 1.255 . S
O287 Co270 2.021 . S
O287 C280 1.259 . S
O288 Co272 2.117 . S
O288 C280 1.258 . S
O289 Co272 2.020 . S
O289 C286 1.256 1_554 S
O290 Co270 2.062 1_556 S
O290 C286 1.255 . S
O291 C271 1.259 . S
O291 Co272 2.021 . S
H292 C283 0.930 . S
H293 C282 0.931 . S
O294 Co270 2.117 . S
O294 C271 1.258 . S
O295 Co270 2.020 . S
O295 C297 1.256 . S
O296 Co272 2.062 . S
O296 C297 1.255 . S
C297 O295 1.256 . S
C297 O296 1.255 . S
H298 C277 0.931 . S
H299 C285 0.931 . S
Co300 N305 2.048 1_556 S
Co300 O317 2.021 . S
Co300 O320 2.062 1_556 S
Co300 O324 2.117 . S
Co300 O325 2.020 . S
C301 O321 1.259 . S
C301 O324 1.258 . S
Co302 N311 2.057 . S
Co302 O318 2.117 . S
Co302 O319 2.020 . S
Co302 O321 2.021 . S
Co302 O326 2.062 . S
C303 N305 1.326 . S
C303 N306 1.347 . S
C303 H308 0.931 . S
C304 N305 1.377 . S
C304 C307 1.350 . S
C304 H309 0.930 1_554 S
N305 Co300 2.048 1_554 S
N305 C303 1.326 . S
N305 C304 1.377 . S
N306 C303 1.347 . S
N306 C307 1.373 . S
C307 C304 1.350 . S
C307 N306 1.373 . S
C307 H328 0.931 . S
H308 C303 0.931 . S
H309 C304 0.930 1_556 S
C310 O317 1.259 . S
C310 O318 1.258 . S
N311 Co302 2.057 . S
N311 C312 1.316 . S
N311 C313 1.375 . S
C312 N311 1.316 . S
C312 N314 1.347 . S
C312 H323 0.931 . S
C313 N311 1.375 . S
C313 C315 1.350 . S
C313 H322 0.930 . S
N314 C312 1.347 . S
N314 C315 1.373 . S
C315 C313 1.350 . S
C315 N314 1.373 . S
C315 H329 0.931 . S
C316 O319 1.256 1_554 S
C316 O320 1.255 . S
O317 Co300 2.021 . S
O317 C310 1.259 . S
O318 Co302 2.117 . S
O318 C310 1.258 . S
O319 Co302 2.020 . S
O319 C316 1.256 1_556 S
O320 Co300 2.062 1_554 S
O320 C316 1.255 . S
O321 C301 1.259 . S
O321 Co302 2.021 . S
H322 C313 0.930 . S
H323 C312 0.931 . S
O324 Co300 2.117 . S
O324 C301 1.258 . S
O325 Co300 2.020 . S
O325 C327 1.256 . S
O326 Co302 2.062 . S
O326 C327 1.255 . S
C327 O325 1.256 . S
C327 O326 1.255 . S
H328 C307 0.931 . S
H329 C315 0.931 . S
Co330 N335 2.057 . S
Co330 O347 2.021 . S
Co330 O350 2.062 . S
Co330 O354 2.117 . S
Co330 O355 2.020 . S
C331 O351 1.259 . S
C331 O354 1.258 . S
Co332 N341 2.057 . S
Co332 O348 2.117 . S
Co332 O349 2.020 . S
Co332 O351 2.021 . S
Co332 O356 2.062 . S
C333 N335 1.316 . S
C333 N336 1.347 . S
C333 H338 0.931 . S
C334 N335 1.375 . S
C334 C337 1.350 . S
C334 H339 0.930 . S
N335 Co330 2.057 . S
N335 C333 1.316 . S
N335 C334 1.375 . S
N336 C333 1.347 . S
N336 C337 1.373 . S
C337 C334 1.350 . S
C337 N336 1.373 . S
C337 H358 0.931 . S
H338 C333 0.931 . S
H339 C334 0.930 . S
C340 O347 1.259 . S
C340 O348 1.258 . S
N341 Co332 2.057 . S
N341 C342 1.316 . S
N341 C343 1.375 . S
C342 N341 1.316 . S
C342 N344 1.347 . S
C342 H353 0.931 . S
C343 N341 1.375 . S
C343 C345 1.350 . S
C343 H352 0.930 . S
N344 C342 1.347 . S
N344 C345 1.373 . S
C345 C343 1.350 . S
C345 N344 1.373 . S
C345 H359 0.931 . S
C346 O349 1.256 . S
C346 O350 1.255 . S
O347 Co330 2.021 . S
O347 C340 1.259 . S
O348 Co332 2.117 . S
O348 C340 1.258 . S
O349 Co332 2.020 . S
O349 C346 1.256 . S
O350 Co330 2.062 . S
O350 C346 1.255 . S
O351 C331 1.259 . S
O351 Co332 2.021 . S
H352 C343 0.930 . S
H353 C342 0.931 . S
O354 Co330 2.117 . S
O354 C331 1.258 . S
O355 Co330 2.020 . S
O355 C357 1.256 . S
O356 Co332 2.062 . S
O356 C357 1.255 . S
C357 O355 1.256 . S
C357 O356 1.255 . S
H358 C337 0.931 . S
H359 C345 0.931 . S
Co360 N365 2.057 . S
Co360 O377 2.021 . S
Co360 O380 2.062 . S
Co360 O384 2.117 . S
Co360 O385 2.020 . S
C361 O381 1.259 . S
C361 O384 1.258 . S
Co362 N371 2.057 . S
Co362 O378 2.117 . S
Co362 O379 2.020 . S
Co362 O381 2.021 . S
Co362 O386 2.062 . S
C363 N365 1.316 . S
C363 N366 1.347 . S
C363 H368 0.931 . S
C364 N365 1.375 . S
C364 C367 1.350 . S
C364 H369 0.930 . S
N365 Co360 2.057 . S
N365 C363 1.316 . S
N365 C364 1.375 . S
N366 C363 1.347 . S
N366 C367 1.373 . S
C367 C364 1.350 . S
C367 N366 1.373 . S
C367 H388 0.931 . S
H368 C363 0.931 . S
H369 C364 0.930 . S
C370 O377 1.259 . S
C370 O378 1.258 . S
N371 Co362 2.057 . S
N371 C372 1.316 . S
N371 C373 1.375 . S
C372 N371 1.316 . S
C372 N374 1.347 . S
C372 H383 0.931 . S
C373 N371 1.375 . S
C373 C375 1.350 . S
C373 H382 0.930 . S
N374 C372 1.347 . S
N374 C375 1.373 . S
C375 C373 1.350 . S
C375 N374 1.373 . S
C375 H389 0.931 . S
C376 O379 1.256 . S
C376 O380 1.255 . S
O377 Co360 2.021 . S
O377 C370 1.259 . S
O378 Co362 2.117 . S
O378 C370 1.258 . S
O379 Co362 2.020 . S
O379 C376 1.256 . S
O380 Co360 2.062 . S
O380 C376 1.255 . S
O381 C361 1.259 . S
O381 Co362 2.021 . S
H382 C373 0.930 . S
H383 C372 0.931 . S
O384 Co360 2.117 . S
O384 C361 1.258 . S
O385 Co360 2.020 . S
O385 C387 1.256 . S
O386 Co362 2.062 . S
O386 C387 1.255 . S
C387 O385 1.256 . S
C387 O386 1.255 . S
H388 C367 0.931 . S
H389 C375 0.931 . S
Co390 N395 2.057 . S
Co390 O407 2.021 . S
Co390 O410 2.062 1_655 S
Co390 O414 2.117 . S
Co390 O415 2.020 . S
C391 O411 1.259 . S
C391 O414 1.258 1_455 S
Co392 N401 2.057 . S
Co392 O408 2.117 . S
Co392 O409 2.020 . S
Co392 O411 2.021 . S
Co392 O416 2.056 1_454 S
C393 N395 1.316 . S
C393 N396 1.347 . S
C393 H398 0.931 . S
C394 N395 1.375 . S
C394 C397 1.350 . S
C394 H399 0.930 . S
N395 Co390 2.057 . S
N395 C393 1.316 . S
N395 C394 1.375 . S
N396 C393 1.347 . S
N396 C397 1.373 . S
C397 C394 1.350 . S
C397 N396 1.373 . S
C397 H418 0.931 . S
H398 C393 0.931 . S
H399 C394 0.930 . S
C400 O407 1.270 . S
C400 O408 1.249 1_655 S
N401 Co392 2.057 . S
N401 C402 1.316 1_554 S
N401 C403 1.375 1_554 S
C402 N401 1.316 1_556 S
C402 N404 1.347 . S
C402 H413 0.931 . S
C403 N401 1.375 1_556 S
C403 C405 1.350 . S
C403 H412 0.930 1_556 S
N404 C402 1.347 . S
N404 C405 1.373 . S
C405 C403 1.350 . S
C405 N404 1.373 . S
C405 H419 0.931 . S
C406 O409 1.256 . S
C406 O410 1.255 . S
O407 Co390 2.021 . S
O407 C400 1.270 . S
O408 Co392 2.117 . S
O408 C400 1.249 1_455 S
O409 Co392 2.020 . S
O409 C406 1.256 . S
O410 Co390 2.062 1_455 S
O410 C406 1.255 . S
O411 C391 1.259 . S
O411 Co392 2.021 . S
H412 C403 0.930 1_554 S
H413 C402 0.931 . S
O414 Co390 2.117 . S
O414 C391 1.258 1_655 S
O415 Co390 2.020 . S
O415 C417 1.256 . S
O416 Co392 2.056 1_656 S
O416 C417 1.253 1_556 S
C417 O415 1.256 . S
C417 O416 1.253 1_554 S
H418 C397 0.931 . S
H419 C405 0.931 . S
Co420 N425 2.057 . S
Co420 O437 2.021 . S
Co420 O440 2.062 . S
Co420 O444 2.117 . S
Co420 O445 2.020 . S
C421 O441 1.259 . S
C421 O444 1.258 . S
Co422 N431 2.057 . S
Co422 O438 2.117 . S
Co422 O439 2.020 . S
Co422 O441 2.021 . S
Co422 O446 2.062 . S
C423 N425 1.316 . S
C423 N426 1.347 . S
C423 H428 0.931 . S
C424 N425 1.375 . S
C424 C427 1.350 . S
C424 H429 0.930 . S
N425 Co420 2.057 . S
N425 C423 1.316 . S
N425 C424 1.375 . S
N426 C423 1.347 . S
N426 C427 1.373 . S
C427 C424 1.350 . S
C427 N426 1.373 . S
C427 H448 0.931 . S
H428 C423 0.931 . S
H429 C424 0.930 . S
C430 O437 1.259 . S
C430 O438 1.258 . S
N431 Co422 2.057 . S
N431 C432 1.316 . S
N431 C433 1.375 . S
C432 N431 1.316 . S
C432 N434 1.347 . S
C432 H443 0.931 . S
C433 N431 1.375 . S
C433 C435 1.350 . S
C433 H442 0.930 . S
N434 C432 1.347 . S
N434 C435 1.373 . S
C435 C433 1.350 . S
C435 N434 1.373 . S
C435 H449 0.931 . S
C436 O439 1.256 . S
C436 O440 1.255 . S
O437 Co420 2.021 . S
O437 C430 1.259 . S
O438 Co422 2.117 . S
O438 C430 1.258 . S
O439 Co422 2.020 . S
O439 C436 1.256 . S
O440 Co420 2.062 . S
O440 C436 1.255 . S
O441 C421 1.259 . S
O441 Co422 2.021 . S
H442 C433 0.930 . S
H443 C432 0.931 . S
O444 Co420 2.117 . S
O444 C421 1.258 . S
O445 Co420 2.020 . S
O445 C447 1.256 . S
O446 Co422 2.062 . S
O446 C447 1.255 . S
C447 O445 1.256 . S
C447 O446 1.255 . S
H448 C427 0.931 . S
H449 C435 0.931 . S
Co450 N455 2.057 . S
Co450 O467 2.021 . S
Co450 O470 2.056 1_656 S
Co450 O474 2.117 . S
Co450 O475 2.020 . S
C451 O471 1.259 . S
C451 O474 1.258 1_455 S
Co452 N461 2.057 . S
Co452 O468 2.117 . S
Co452 O469 2.020 . S
Co452 O471 2.021 . S
Co452 O476 2.062 1_455 S
C453 N455 1.316 1_554 S
C453 N456 1.347 . S
C453 H458 0.931 . S
C454 N455 1.375 1_554 S
C454 C457 1.350 . S
C454 H459 0.930 1_554 S
N455 Co450 2.057 . S
N455 C453 1.316 1_556 S
N455 C454 1.375 1_556 S
N456 C453 1.347 . S
N456 C457 1.373 . S
C457 C454 1.350 . S
C457 N456 1.373 . S
C457 H478 0.931 . S
H458 C453 0.931 . S
H459 C454 0.930 1_556 S
C460 O467 1.259 1_455 S
C460 O468 1.258 . S
N461 Co452 2.057 . S
N461 C462 1.316 . S
N461 C463 1.375 . S
C462 N461 1.316 . S
C462 N464 1.347 . S
C462 H473 0.931 . S
C463 N461 1.375 . S
C463 C465 1.350 . S
C463 H472 0.930 . S
N464 C462 1.347 . S
N464 C465 1.373 . S
C465 C463 1.350 . S
C465 N464 1.373 . S
C465 H479 0.931 . S
C466 O469 1.256 . S
C466 O470 1.253 1_556 S
O467 Co450 2.021 . S
O467 C460 1.259 1_655 S
O468 Co452 2.117 . S
O468 C460 1.258 . S
O469 Co452 2.020 . S
O469 C466 1.256 . S
O470 Co450 2.056 1_454 S
O470 C466 1.253 1_554 S
O471 C451 1.259 . S
O471 Co452 2.021 . S
H472 C463 0.930 . S
H473 C462 0.931 . S
O474 Co450 2.117 . S
O474 C451 1.258 1_655 S
O475 Co450 2.020 . S
O475 C477 1.256 . S
O476 Co452 2.062 1_655 S
O476 C477 1.255 . S
C477 O475 1.256 . S
C477 O476 1.255 . S
H478 C457 0.931 . S
H479 C465 0.931 . S
C27 C237 3.001 . S
C57 N126 0.857 . S
N156 C87 2.224 . S
N96 N186 1.110 . S
C346 C136 3.001 . S
C256 N14 0.856 . S
N314 C196 2.224 . S
N74 N284 1.110 . S
C297 C387 3.001 . S
C327 N426 0.858 . S
C417 N246 2.224 1_554 S
N336 N456 1.110 . S
C436 C106 3.001 . S
N374 C166 0.858 . S
N44 C466 2.224 1_554 S
N224 N404 1.110 . S
C400 C10 2.394 1_655 S
C331 C40 1.674 1_655 S
C370 C70 2.395 . S
C310 C91 1.674 . S
C121 C451 2.394 . S
C280 C151 1.674 . S
C181 C421 2.394 . S
C220 C241 1.674 1_455 S
C1 C130 2.104 1_564 S
C31 C160 2.677 . S
C190 C61 3.137 1_565 S
C100 C211 2.752 . S
C301 C250 2.677 . S
C340 C271 2.752 . S
C361 C430 2.105 . S
C460 C391 3.137 1_556 S
N6 N216 1.006 . S
N36 C147 3.349 . S
C177 N66 1.854 . S
C207 C117 3.548 . S
N344 N134 1.006 . S
N254 C16 3.350 . S
C316 N194 1.854 . S
C76 C286 3.548 . S
N366 N276 1.006 . S
C447 N306 3.349 . S
N396 C267 1.853 . S
C477 C357 3.548 . S
N434 N104 1.005 . S
N164 C376 3.349 . S
C46 N464 1.853 . S
C406 C226 3.548 . S
