# Generated by pormake.
# Topology wlk, (5)-cn, num edge types: 1
# Building blocks:
#     Node 0, Type 0, BuildingBlock: XOMCOT_clean_sbu_0, # of connection points: 5
#     Node 1, Type 0, BuildingBlock: XOMCOT_clean_sbu_0, # of connection points: 5
#     Node 2, Type 0, BuildingBlock: XOMCOT_clean_sbu_0, # of connection points: 5
#     Node 3, Type 0, BuildingBlock: XOMCOT_clean_sbu_0, # of connection points: 5
#     Node 4, Type 0, BuildingBlock: XOMCOT_clean_sbu_0, # of connection points: 5
#     Node 5, Type 0, BuildingBlock: XOMCOT_clean_sbu_0, # of connection points: 5
#     Node 6, Type 0, BuildingBlock: XOMCOT_clean_sbu_0, # of connection points: 5
#     Node 7, Type 0, BuildingBlock: XOMCOT_clean_sbu_0, # of connection points: 5
#     Node 8, Type 0, BuildingBlock: XOMCOT_clean_sbu_0, # of connection points: 5
#     Node 9, Type 0, BuildingBlock: XOMCOT_clean_sbu_0, # of connection points: 5
#     Node 10, Type 0, BuildingBlock: XOMCOT_clean_sbu_0, # of connection points: 5
#     Node 11, Type 0, BuildingBlock: XOMCOT_clean_sbu_0, # of connection points: 5
#     Node 12, Type 0, BuildingBlock: XOMCOT_clean_sbu_0, # of connection points: 5
#     Node 13, Type 0, BuildingBlock: XOMCOT_clean_sbu_0, # of connection points: 5
#     Node 14, Type 0, BuildingBlock: XOMCOT_clean_sbu_0, # of connection points: 5
#     Node 15, Type 0, BuildingBlock: XOMCOT_clean_sbu_0, # of connection points: 5
#     Node 16, Type 0, BuildingBlock: XOMCOT_clean_sbu_0, # of connection points: 5
#     Node 17, Type 0, BuildingBlock: XOMCOT_clean_sbu_0, # of connection points: 5
#     Edge 18, Type (0, 0), BuildingBlock: UVAHIK_clean_linker_0, # of connection points: 2
#     Edge 19, Type (0, 0), BuildingBlock: UVAHIK_clean_linker_0, # of connection points: 2
#     Edge 20, Type (0, 0), BuildingBlock: UVAHIK_clean_linker_0, # of connection points: 2
#     Edge 21, Type (0, 0), BuildingBlock: UVAHIK_clean_linker_0, # of connection points: 2
#     Edge 22, Type (0, 0), BuildingBlock: UVAHIK_clean_linker_0, # of connection points: 2
#     Edge 23, Type (0, 0), BuildingBlock: UVAHIK_clean_linker_0, # of connection points: 2
#     Edge 24, Type (0, 0), BuildingBlock: UVAHIK_clean_linker_0, # of connection points: 2
#     Edge 25, Type (0, 0), BuildingBlock: UVAHIK_clean_linker_0, # of connection points: 2
#     Edge 26, Type (0, 0), BuildingBlock: UVAHIK_clean_linker_0, # of connection points: 2
#     Edge 27, Type (0, 0), BuildingBlock: UVAHIK_clean_linker_0, # of connection points: 2
#     Edge 28, Type (0, 0), BuildingBlock: UVAHIK_clean_linker_0, # of connection points: 2
#     Edge 29, Type (0, 0), BuildingBlock: UVAHIK_clean_linker_0, # of connection points: 2
#     Edge 30, Type (0, 0), BuildingBlock: UVAHIK_clean_linker_0, # of connection points: 2
#     Edge 31, Type (0, 0), BuildingBlock: UVAHIK_clean_linker_0, # of connection points: 2
#     Edge 32, Type (0, 0), BuildingBlock: UVAHIK_clean_linker_0, # of connection points: 2
#     Edge 33, Type (0, 0), BuildingBlock: UVAHIK_clean_linker_0, # of connection points: 2
#     Edge 34, Type (0, 0), BuildingBlock: UVAHIK_clean_linker_0, # of connection points: 2
#     Edge 35, Type (0, 0), BuildingBlock: UVAHIK_clean_linker_0, # of connection points: 2
#     Edge 36, Type (0, 0), BuildingBlock: UVAHIK_clean_linker_0, # of connection points: 2
#     Edge 37, Type (0, 0), BuildingBlock: UVAHIK_clean_linker_0, # of connection points: 2
#     Edge 38, Type (0, 0), BuildingBlock: UVAHIK_clean_linker_0, # of connection points: 2
#     Edge 39, Type (0, 0), BuildingBlock: UVAHIK_clean_linker_0, # of connection points: 2
#     Edge 40, Type (0, 0), BuildingBlock: UVAHIK_clean_linker_0, # of connection points: 2
#     Edge 41, Type (0, 0), BuildingBlock: UVAHIK_clean_linker_0, # of connection points: 2
#     Edge 42, Type (0, 0), BuildingBlock: UVAHIK_clean_linker_0, # of connection points: 2
#     Edge 43, Type (0, 0), BuildingBlock: UVAHIK_clean_linker_0, # of connection points: 2
#     Edge 44, Type (0, 0), BuildingBlock: UVAHIK_clean_linker_0, # of connection points: 2
#     Edge 45, Type (0, 0), BuildingBlock: UVAHIK_clean_linker_0, # of connection points: 2
#     Edge 46, Type (0, 0), BuildingBlock: UVAHIK_clean_linker_0, # of connection points: 2
#     Edge 47, Type (0, 0), BuildingBlock: UVAHIK_clean_linker_0, # of connection points: 2
#     Edge 48, Type (0, 0), BuildingBlock: UVAHIK_clean_linker_0, # of connection points: 2
#     Edge 49, Type (0, 0), BuildingBlock: UVAHIK_clean_linker_0, # of connection points: 2
#     Edge 50, Type (0, 0), BuildingBlock: UVAHIK_clean_linker_0, # of connection points: 2
#     Edge 51, Type (0, 0), BuildingBlock: UVAHIK_clean_linker_0, # of connection points: 2
#     Edge 52, Type (0, 0), BuildingBlock: UVAHIK_clean_linker_0, # of connection points: 2
#     Edge 53, Type (0, 0), BuildingBlock: UVAHIK_clean_linker_0, # of connection points: 2
#     Edge 54, Type (0, 0), BuildingBlock: UVAHIK_clean_linker_0, # of connection points: 2
#     Edge 55, Type (0, 0), BuildingBlock: UVAHIK_clean_linker_0, # of connection points: 2
#     Edge 56, Type (0, 0), BuildingBlock: UVAHIK_clean_linker_0, # of connection points: 2
#     Edge 57, Type (0, 0), BuildingBlock: UVAHIK_clean_linker_0, # of connection points: 2
#     Edge 58, Type (0, 0), BuildingBlock: UVAHIK_clean_linker_0, # of connection points: 2
#     Edge 59, Type (0, 0), BuildingBlock: UVAHIK_clean_linker_0, # of connection points: 2
#     Edge 60, Type (0, 0), BuildingBlock: UVAHIK_clean_linker_0, # of connection points: 2
#     Edge 61, Type (0, 0), BuildingBlock: UVAHIK_clean_linker_0, # of connection points: 2
#     Edge 62, Type (0, 0), BuildingBlock: UVAHIK_clean_linker_0, # of connection points: 2
# Relax obj value: 0.217
# Max RMSD: 0.252
# Mean RMSD: 0.252
data_MOF--net-wlk--node1-XOMCOT_clean_sbu_0--edge1-UVAHIK_clean_linker_0
_symmetry_space_group_name_H-M    P1
_symmetry_Int_Tables_number       1
_symmetry_cell_setting            triclinic
loop_
_symmetry_equiv_pos_as_xyz
'x, y, z'
_cell_length_a     82.387572
_cell_length_b     82.362821
_cell_length_c     35.468998
_cell_angle_alpha  89.976754
_cell_angle_beta   89.974884
_cell_angle_gamma 119.98434
loop_
_atom_site_label
_atom_site_type_symbol
_atom_site_fract_x
_atom_site_fract_y
_atom_site_fract_z
_atom_type_partial_charge
Co0 Co 0.20387 0.27075 0.09891 0.0
C1 C 0.21144 0.24779 0.04478 0.0
C2 C 0.18263 0.24071 0.04309 0.0
C3 C 0.18489 0.2285 0.02015 0.0
N4 N 0.19929 0.25282 0.05871 0.0
N5 N 0.20298 0.2328 0.02153 0.0
H6 H 0.22595 0.25422 0.05325 0.0
H7 H 0.16949 0.24013 0.04895 0.0
C8 C 0.1721 0.27834 0.08502 0.0
O9 O 0.1841 0.29645 0.08491 0.0
N10 N 0.20845 0.28829 0.14045 0.0
C11 C 0.22506 0.29916 0.15785 0.0
C12 C 0.22263 0.30858 0.18715 0.0
C13 C 0.19593 0.2905 0.16151 0.0
N14 N 0.20435 0.30322 0.18941 0.0
C15 C 0.23265 0.30525 0.06808 0.0
C16 C 0.21429 0.30551 0.00319 0.0
C17 C 0.23205 0.32086 0.01103 0.0
C18 C 0.24132 0.3204 0.0436 0.0
C19 C 0.20592 0.29062 0.02906 0.0
N20 N 0.21477 0.29109 0.06206 0.0
H21 H 0.2407 0.30478 0.09131 0.0
H22 H 0.1923 0.2788 0.02263 0.0
H23 H 0.2381 0.29968 0.15136 0.0
H24 H 0.18095 0.28276 0.15732 0.0
O25 O 0.22637 0.27056 0.11183 0.0
O26 O 0.19838 0.25124 0.13603 0.0
O27 O 0.17771 0.26665 0.09146 0.0
C28 C 0.2162 0.25669 0.1343 0.0
H29 H 0.17383 0.21696 0.00466 0.0
H30 H 0.23341 0.31805 0.20642 0.0
H31 H 0.20692 0.30509 0.97761 0.0
H32 H 0.25547 0.33146 0.04965 0.0
Co33 Co 0.74121 0.93021 0.09718 0.0
C34 C 0.76991 0.96602 0.06118 0.0
C35 C 0.76578 0.94188 0.03031 0.0
C36 C 0.77845 0.95771 0.01105 0.0
N37 N 0.76047 0.94704 0.06196 0.0
N38 N 0.78103 0.97292 0.03042 0.0
H39 H 0.76811 0.9747 0.08164 0.0
H40 H 0.76036 0.9276 0.02102 0.0
C41 C 0.73975 0.89239 0.08993 0.0
O42 O 0.72407 0.88373 0.10909 0.0
N43 N 0.72175 0.91398 0.13258 0.0
C44 C 0.7039 0.91042 0.13228 0.0
C45 C 0.69453 0.89923 0.16252 0.0
C46 C 0.72324 0.90578 0.1645 0.0
N47 N 0.70658 0.89606 0.18254 0.0
C48 C 0.72031 0.93783 0.04418 0.0
C49 C 0.69552 0.90143 0.0226 0.0
C50 C 0.69214 0.91579 0.01108 0.0
C51 C 0.70516 0.93426 0.02133 0.0
C52 C 0.71091 0.90563 0.04569 0.0
N53 N 0.72268 0.92359 0.05737 0.0
H54 H 0.7297 0.95208 0.05295 0.0
H55 H 0.71257 0.89425 0.05559 0.0
H56 H 0.69805 0.91577 0.11179 0.0
H57 H 0.73603 0.90618 0.17319 0.0
O58 O 0.73931 0.95064 0.1186 0.0
O59 O 0.75883 0.94122 0.13866 0.0
O60 O 0.74722 0.90987 0.08198 0.0
C61 C 0.75219 0.95256 0.14221 0.0
H62 H 0.78509 0.95794 0.98457 0.0
H63 H 0.67992 0.89395 0.16931 0.0
H64 H 0.68606 0.88699 0.01481 0.0
H65 H 0.70318 0.94588 0.01358 0.0
Co66 Co 0.07633 0.80931 0.09928 0.0
C67 C 0.04315 0.80193 0.05221 0.0
C68 C 0.06225 0.83121 0.05961 0.0
C69 C 0.04674 0.82914 0.04091 0.0
N70 N 0.06044 0.81418 0.06562 0.0
N71 N 0.03468 0.81071 0.03641 0.0
H72 H 0.03624 0.78696 0.05616 0.0
H73 H 0.07347 0.8443 0.0704 0.0
C74 C 0.10365 0.84133 0.05275 0.0
O75 O 0.09442 0.83105 0.02351 0.0
N76 N 0.09155 0.80455 0.13397 0.0
C77 C 0.09023 0.78777 0.13974 0.0
C78 C 0.10266 0.78962 0.16749 0.0
C79 C 0.10458 0.81638 0.15863 0.0
N80 N 0.11169 0.80759 0.17941 0.0
C81 C 0.06872 0.78029 0.04565 0.0
C82 C 0.10566 0.79053 0.03196 0.0
C83 C 0.09143 0.77344 0.01776 0.0
C84 C 0.07277 0.76859 0.02415 0.0
C85 C 0.101 0.80181 0.05359 0.0
N86 N 0.08267 0.79672 0.06014 0.0
H87 H 0.05435 0.77528 0.05294 0.0
H88 H 0.11218 0.81404 0.06712 0.0
H89 H 0.08068 0.775 0.12508 0.0
H90 H 0.10867 0.83103 0.16134 0.0
O91 O 0.05451 0.78769 0.11895 0.0
O92 O 0.06618 0.81669 0.14105 0.0
O93 O 0.09864 0.83468 0.0861 0.0
C94 C 0.0534 0.79901 0.14286 0.0
H95 H 0.04397 0.8403 0.03363 0.0
H96 H 0.10449 0.77843 0.1788 0.0
H97 H 0.12027 0.79459 0.02842 0.0
H98 H 0.06134 0.75544 0.0139 0.0
Co99 Co 0.80829 0.73109 0.90035 0.0
C100 C 0.80598 0.76255 0.93772 0.0
C101 C 0.82266 0.75397 0.9691 0.0
C102 C 0.82148 0.76765 0.98927 0.0
N103 N 0.81282 0.75063 0.93683 0.0
N104 N 0.81104 0.77303 0.96938 0.0
H105 H 0.79684 0.76316 0.91669 0.0
H106 H 0.82972 0.74652 0.97797 0.0
C107 C 0.84609 0.73203 0.89596 0.0
O108 O 0.83921 0.71669 0.87572 0.0
N109 N 0.80331 0.71156 0.86377 0.0
C110 C 0.78888 0.69383 0.86533 0.0
C111 C 0.78894 0.68449 0.83333 0.0
C112 C 0.81132 0.71303 0.82968 0.0
N113 N 0.80324 0.69644 0.81098 0.0
C114 C 0.78612 0.71123 0.9634 0.0
C115 C 0.7983 0.68562 0.97072 0.0
C116 C 0.78284 0.6831 0.99196 0.0
C117 C 0.77718 0.6965 0.98894 0.0
C118 C 0.80705 0.70078 0.94579 0.0
N119 N 0.80052 0.713 0.94143 0.0
H120 H 0.78085 0.7208 0.95988 0.0
H121 H 0.81813 0.70175 0.92834 0.0
H122 H 0.77873 0.68811 0.88795 0.0
H123 H 0.82321 0.72585 0.81954 0.0
O124 O 0.78408 0.72761 0.88879 0.0
O125 O 0.81024 0.74768 0.8592 0.0
O126 O 0.83571 0.73865 0.9067 0.0
C127 C 0.79211 0.74023 0.86272 0.0
H128 H 0.82764 0.77307 0.01661 0.0
H129 H 0.77897 0.67 0.82706 0.0
H130 H 0.80314 0.67561 0.97235 0.0
H131 H 0.76518 0.69501 0.00445 0.0
Co132 Co 0.27357 0.07607 0.90427 0.0
C133 C 0.24662 0.04338 0.95117 0.0
C134 C 0.23655 0.06223 0.93926 0.0
C135 C 0.22253 0.04669 0.95694 0.0
N136 N 0.25199 0.06055 0.93653 0.0
N137 N 0.22881 0.03473 0.96439 0.0
H138 H 0.25491 0.03663 0.94952 0.0
H139 H 0.23494 0.07328 0.9266 0.0
C140 C 0.26765 0.10431 0.94455 0.0
O141 O 0.26794 0.09576 0.97564 0.0
N142 N 0.29431 0.09097 0.87086 0.0
C143 C 0.31013 0.0901 0.86747 0.0
C144 C 0.32095 0.10219 0.83933 0.0
C145 C 0.29555 0.10338 0.84454 0.0
N146 N 0.31178 0.11054 0.82486 0.0
C147 C 0.29314 0.06989 0.96443 0.0
C148 C 0.31935 0.10711 0.9767 0.0
C149 C 0.32123 0.09325 0.9959 0.0
C150 C 0.30772 0.07445 0.98972 0.0
C151 C 0.30445 0.10192 0.95159 0.0
N152 N 0.29136 0.08346 0.94598 0.0
H153 H 0.28415 0.05538 0.95782 0.0
H154 H 0.30398 0.11275 0.93526 0.0
H155 H 0.31343 0.08108 0.88397 0.0
H156 H 0.28476 0.10698 0.83988 0.0
O157 O 0.27422 0.05405 0.88909 0.0
O158 O 0.25749 0.06485 0.86064 0.0
O159 O 0.26981 0.09837 0.91259 0.0
C160 C 0.2625 0.05215 0.86271 0.0
H161 H 0.20835 0.04386 0.96121 0.0
H162 H 0.33429 0.10424 0.82959 0.0
H163 H 0.32955 0.12182 0.98024 0.0
H164 H 0.30898 0.0632 0.00262 0.0
Co165 Co 0.93827 0.19735 0.89832 0.0
C166 C 0.97127 0.20742 0.94687 0.0
C167 C 0.95328 0.17765 0.94219 0.0
C168 C 0.96894 0.18113 0.96235 0.0
N169 N 0.95469 0.19411 0.9326 0.0
N170 N 0.98035 0.19986 0.96523 0.0
H171 H 0.97679 0.22229 0.94274 0.0
H172 H 0.94218 0.16403 0.9334 0.0
C173 C 0.89945 0.16573 0.91805 0.0
O174 O 0.89269 0.17707 0.91377 0.0
N175 N 0.92197 0.20052 0.86286 0.0
C176 C 0.92186 0.21648 0.85463 0.0
C177 C 0.90874 0.21287 0.82727 0.0
C178 C 0.90935 0.18757 0.83884 0.0
N179 N 0.90078 0.19469 0.81745 0.0
C180 C 0.94125 0.22959 0.93495 0.0
C181 C 0.91682 0.2117 0.9938 0.0
C182 C 0.92323 0.23076 0.98729 0.0
C183 C 0.93622 0.23983 0.95848 0.0
C184 C 0.92214 0.20187 0.96903 0.0
N185 N 0.93293 0.21056 0.93801 0.0
H186 H 0.95142 0.23712 0.91326 0.0
H187 H 0.91741 0.18733 0.97484 0.0
H188 H 0.93103 0.23012 0.86626 0.0
H189 H 0.90634 0.1732 0.83743 0.0
O190 O 0.95959 0.21862 0.87611 0.0
O191 O 0.94805 0.18925 0.85689 0.0
O192 O 0.91699 0.17185 0.91382 0.0
C193 C 0.96055 0.2069 0.85318 0.0
H194 H 0.9721 0.17057 0.97218 0.0
H195 H 0.90566 0.22301 0.81473 0.0
H196 H 0.90743 0.2044 0.01704 0.0
H197 H 0.94231 0.25476 0.95384 0.0
Co198 Co 0.87024 0.6045 0.41162 0.0
C199 C 0.87644 0.57906 0.36059 0.0
C200 C 0.84742 0.56864 0.37218 0.0
C201 C 0.84906 0.55528 0.35214 0.0
N202 N 0.86452 0.58397 0.37653 0.0
N203 N 0.86733 0.56177 0.3449 0.0
H204 H 0.8915 0.58726 0.3628 0.0
H205 H 0.83467 0.56651 0.38529 0.0
C206 C 0.8357 0.59908 0.37423 0.0
O207 O 0.84465 0.60069 0.34251 0.0
N208 N 0.8757 0.62414 0.44785 0.0
C209 C 0.89232 0.63989 0.45278 0.0
C210 C 0.89041 0.65042 0.48071 0.0
C211 C 0.86396 0.62512 0.47309 0.0
N212 N 0.87258 0.64115 0.49346 0.0
C213 C 0.89422 0.62577 0.35007 0.0
C214 C 0.88348 0.65265 0.34834 0.0
C215 C 0.89879 0.65535 0.32646 0.0
C216 C 0.90382 0.64142 0.32683 0.0
C217 C 0.87411 0.63667 0.37093 0.0
N218 N 0.87956 0.62346 0.37186 0.0
H219 H 0.89956 0.61632 0.35241 0.0
H220 H 0.86312 0.63548 0.38936 0.0
H221 H 0.9049 0.64352 0.43692 0.0
H222 H 0.84937 0.61449 0.47604 0.0
O223 O 0.89356 0.60585 0.42373 0.0
O224 O 0.86665 0.58745 0.453 0.0
O225 O 0.84375 0.60003 0.40576 0.0
C226 C 0.88451 0.59329 0.44939 0.0
H227 H 0.83776 0.54126 0.34614 0.0
H228 H 0.90139 0.66378 0.49113 0.0
H229 H 0.8792 0.66312 0.34906 0.0
H230 H 0.91591 0.64319 0.31126 0.0
Co231 Co 0.40609 0.27242 0.42722 0.0
C232 C 0.43032 0.30485 0.37686 0.0
C233 C 0.44202 0.28724 0.38706 0.0
C234 C 0.45505 0.30293 0.36818 0.0
N235 N 0.42612 0.28798 0.39163 0.0
N236 N 0.44776 0.31413 0.36186 0.0
H237 H 0.42152 0.31102 0.37981 0.0
H238 H 0.44476 0.27689 0.39958 0.0
C239 C 0.41286 0.24479 0.3875 0.0
O240 O 0.41069 0.25224 0.35647 0.0
N241 N 0.38695 0.25767 0.46393 0.0
C242 C 0.37107 0.25819 0.46968 0.0
C243 C 0.36112 0.24596 0.49827 0.0
C244 C 0.38662 0.2453 0.48934 0.0
N245 N 0.37086 0.23781 0.51065 0.0
C246 C 0.38356 0.2749 0.36844 0.0
C247 C 0.35747 0.23706 0.36576 0.0
C248 C 0.35372 0.24972 0.34662 0.0
C249 C 0.36734 0.26877 0.34712 0.0
C250 C 0.374 0.24381 0.3867 0.0
N251 N 0.38675 0.2626 0.3883 0.0
H252 H 0.39274 0.28972 0.3711 0.0
H253 H 0.3759 0.23401 0.40374 0.0
H254 H 0.36702 0.2669 0.45411 0.0
H255 H 0.39757 0.24176 0.49191 0.0
O256 O 0.40406 0.2938 0.4408 0.0
O257 O 0.42352 0.28605 0.46791 0.0
O258 O 0.41136 0.25104 0.41963 0.0
C259 C 0.41723 0.29776 0.46525 0.0
H260 H 0.46937 0.3065 0.36252 0.0
H261 H 0.34788 0.24353 0.50953 0.0
H262 H 0.34722 0.22225 0.36657 0.0
H263 H 0.3651 0.27904 0.33254 0.0
Co264 Co 0.74328 0.13598 0.42312 0.0
C265 C 0.71059 0.13202 0.37894 0.0
C266 C 0.73198 0.16071 0.38535 0.0
C267 C 0.71675 0.16019 0.36833 0.0
N268 N 0.72835 0.14304 0.39164 0.0
N269 N 0.7033 0.14215 0.36438 0.0
H270 H 0.70249 0.11702 0.38302 0.0
H271 H 0.74417 0.17327 0.39507 0.0
C272 C 0.78271 0.17143 0.42514 0.0
O273 O 0.79032 0.16306 0.44342 0.0
N274 N 0.75745 0.12863 0.45576 0.0
C275 C 0.75957 0.11352 0.45163 0.0
C276 C 0.76929 0.11242 0.48212 0.0
C277 C 0.765 0.13586 0.48977 0.0
N278 N 0.77291 0.1266 0.50599 0.0
C279 C 0.73647 0.11159 0.36091 0.0
C280 C 0.77326 0.12136 0.34749 0.0
C281 C 0.75889 0.10476 0.33171 0.0
C282 C 0.74036 0.10063 0.33685 0.0
C283 C 0.76874 0.13221 0.37095 0.0
N284 N 0.75046 0.1267 0.37911 0.0
H285 H 0.72202 0.10681 0.3673 0.0
H286 H 0.78001 0.14388 0.38512 0.0
H287 H 0.75415 0.10373 0.42842 0.0
H288 H 0.76526 0.14809 0.50158 0.0
O289 O 0.7212 0.113 0.43646 0.0
O290 O 0.73155 0.13975 0.46747 0.0
O291 O 0.76536 0.16246 0.41577 0.0
C292 C 0.71886 0.12209 0.46376 0.0
H293 H 0.71536 0.1722 0.36102 0.0
H294 H 0.77315 0.10178 0.48643 0.0
H295 H 0.78781 0.12516 0.34432 0.0
H296 H 0.72878 0.08824 0.3244 0.0
Co297 Co 0.47695 0.07486 0.24445 0.0
C298 C 0.47127 0.10118 0.29377 0.0
C299 C 0.49997 0.11197 0.27861 0.0
C300 C 0.49849 0.12572 0.29747 0.0
N301 N 0.48301 0.09624 0.27721 0.0
N302 N 0.4804 0.11899 0.30695 0.0
H303 H 0.45623 0.0926 0.2936 0.0
H304 H 0.51241 0.11389 0.26439 0.0
C305 C 0.5113 0.08151 0.28427 0.0
O306 O 0.50244 0.0813 0.31526 0.0
N307 N 0.47106 0.05429 0.21054 0.0
C308 C 0.45422 0.0387 0.20668 0.0
C309 C 0.45559 0.02752 0.17954 0.0
C310 C 0.48243 0.05254 0.18549 0.0
N311 N 0.47332 0.0362 0.1662 0.0
C312 C 0.45133 0.05428 0.30443 0.0
C313 C 0.46301 0.02838 0.31371 0.0
C314 C 0.44695 0.02564 0.33279 0.0
C315 C 0.44138 0.03906 0.32853 0.0
C316 C 0.47269 0.04393 0.29015 0.0
N317 N 0.46687 0.05675 0.2857 0.0
H318 H 0.44552 0.06314 0.29871 0.0
H319 H 0.48418 0.04497 0.27361 0.0
H320 H 0.4418 0.03571 0.2225 0.0
H321 H 0.49705 0.06294 0.1817 0.0
O322 O 0.45418 0.07422 0.22992 0.0
O323 O 0.48168 0.09123 0.20139 0.0
O324 O 0.50309 0.07876 0.25231 0.0
C325 C 0.46398 0.08615 0.20377 0.0
H326 H 0.50967 0.14003 0.30118 0.0
H327 H 0.44426 0.01419 0.16986 0.0
H328 H 0.46768 0.01823 0.31587 0.0
H329 H 0.42867 0.03716 0.34167 0.0
Co330 Co 0.93765 0.40389 0.23484 0.0
C331 C 0.91157 0.37133 0.28318 0.0
C332 C 0.90021 0.38882 0.2685 0.0
C333 C 0.88645 0.37304 0.28593 0.0
N334 N 0.91629 0.38819 0.26759 0.0
N335 N 0.89355 0.36196 0.29495 0.0
H336 H 0.92031 0.365 0.28228 0.0
H337 H 0.89799 0.39921 0.25456 0.0
C338 C 0.92921 0.43126 0.27046 0.0
O339 O 0.93008 0.42358 0.30235 0.0
N340 N 0.9581 0.41877 0.20069 0.0
C341 C 0.97422 0.41844 0.19795 0.0
C342 C 0.98482 0.43033 0.16938 0.0
C343 C 0.959 0.43075 0.17369 0.0
N344 N 0.97525 0.43805 0.15405 0.0
C345 C 0.95742 0.40183 0.29979 0.0
C346 C 0.98333 0.43972 0.30284 0.0
C347 C 0.98573 0.42738 0.32621 0.0
C348 C 0.9723 0.40829 0.32513 0.0
C349 C 0.96802 0.43271 0.27833 0.0
N350 N 0.95534 0.41391 0.27669 0.0
H351 H 0.94841 0.38697 0.29712 0.0
H352 H 0.96697 0.44232 0.25907 0.0
H353 H 0.97799 0.4101 0.21554 0.0
H354 H 0.94783 0.43371 0.16806 0.0
O355 O 0.94044 0.38263 0.22406 0.0
O356 O 0.92202 0.39016 0.19198 0.0
O357 O 0.93195 0.42517 0.23919 0.0
C358 C 0.92839 0.37863 0.19711 0.0
H359 H 0.87202 0.36954 0.28969 0.0
H360 H 0.99861 0.43317 0.16085 0.0
H361 H 0.99351 0.45457 0.30266 0.0
H362 H 0.97393 0.39823 0.342 0.0
Co363 Co 0.60397 0.53608 0.22516 0.0
C364 C 0.63623 0.54366 0.27403 0.0
C365 C 0.61433 0.51494 0.27776 0.0
C366 C 0.62927 0.51722 0.29909 0.0
N367 N 0.61869 0.53151 0.26193 0.0
N368 N 0.64313 0.53525 0.29652 0.0
H369 H 0.64411 0.55813 0.2651 0.0
H370 H 0.60147 0.50186 0.27332 0.0
C371 C 0.56416 0.50556 0.24167 0.0
O372 O 0.5583 0.51772 0.23888 0.0
N373 N 0.5894 0.54061 0.18755 0.0
C374 C 0.59155 0.55732 0.17701 0.0
C375 C 0.57934 0.55465 0.14828 0.0
C376 C 0.57637 0.52806 0.16357 0.0
N377 N 0.5697 0.53626 0.13991 0.0
C378 C 0.60664 0.56829 0.26147 0.0
C379 C 0.58283 0.55033 0.32114 0.0
C380 C 0.58979 0.56959 0.31594 0.0
C381 C 0.60231 0.57861 0.28632 0.0
C382 C 0.58747 0.54044 0.29513 0.0
N383 N 0.59813 0.54923 0.26405 0.0
H384 H 0.61702 0.57586 0.24018 0.0
H385 H 0.58254 0.5258 0.30031 0.0
H386 H 0.60179 0.57081 0.18775 0.0
H387 H 0.57184 0.51326 0.16348 0.0
O388 O 0.62645 0.55713 0.20561 0.0
O389 O 0.61441 0.52786 0.18529 0.0
O390 O 0.58152 0.51086 0.2376 0.0
C391 C 0.62754 0.54535 0.183 0.0
H392 H 0.62995 0.50628 0.31467 0.0
H393 H 0.57814 0.56555 0.13371 0.0
H394 H 0.57376 0.54297 0.34474 0.0
H395 H 0.60899 0.59366 0.28265 0.0
Co396 Co 0.53865 0.93668 0.77495 0.0
C397 C 0.54583 0.91267 0.72362 0.0
C398 C 0.51643 0.90172 0.73289 0.0
C399 C 0.51871 0.88906 0.71152 0.0
N400 N 0.53341 0.91656 0.74024 0.0
N401 N 0.5372 0.89588 0.70588 0.0
H402 H 0.56087 0.92161 0.72576 0.0
H403 H 0.50336 0.89963 0.74423 0.0
C404 C 0.50733 0.94541 0.76094 0.0
O405 O 0.51874 0.96335 0.76703 0.0
N406 N 0.54393 0.95664 0.81075 0.0
C407 C 0.56051 0.97234 0.81688 0.0
C408 C 0.55858 0.98218 0.84606 0.0
C409 C 0.53233 0.95685 0.83753 0.0
N410 N 0.54084 0.97253 0.85898 0.0
C411 C 0.57086 0.96397 0.73492 0.0
C412 C 0.55301 0.97392 0.68168 0.0
C413 C 0.57252 0.98485 0.68558 0.0
C414 C 0.58145 0.97916 0.71144 0.0
C415 C 0.54284 0.95873 0.70624 0.0
N416 N 0.55173 0.95492 0.73458 0.0
H417 H 0.57832 0.96022 0.75477 0.0
H418 H 0.52793 0.9503 0.70232 0.0
H419 H 0.57347 0.9763 0.80253 0.0
H420 H 0.51791 0.94584 0.84094 0.0
O421 O 0.55958 0.93505 0.79422 0.0
O422 O 0.53068 0.91894 0.81677 0.0
O423 O 0.51339 0.93384 0.76229 0.0
C424 C 0.54805 0.92282 0.81806 0.0
H425 H 0.50763 0.87536 0.70292 0.0
H426 H 0.56963 0.99519 0.85765 0.0
H427 H 0.54567 0.97739 0.66073 0.0
H428 H 0.59658 0.98666 0.71404 0.0
Co429 Co 0.07275 0.6042 0.76457 0.0
C430 C 0.09792 0.63644 0.71617 0.0
C431 C 0.10771 0.61686 0.72253 0.0
C432 C 0.12094 0.63216 0.70286 0.0
N433 N 0.09324 0.61948 0.73075 0.0
N434 N 0.11489 0.64458 0.69898 0.0
H435 H 0.08943 0.64298 0.71952 0.0
H436 H 0.10918 0.60523 0.73224 0.0
C437 C 0.06353 0.56419 0.74973 0.0
O438 O 0.04565 0.55809 0.75557 0.0
N439 N 0.05252 0.58909 0.79956 0.0
C440 C 0.0361 0.58876 0.80421 0.0
C441 C 0.02669 0.5774 0.83427 0.0
C442 C 0.05297 0.57817 0.8276 0.0
N443 N 0.03727 0.57072 0.84904 0.0
C444 C 0.04636 0.61029 0.72401 0.0
C445 C 0.03793 0.5844 0.66724 0.0
C446 C 0.02794 0.59407 0.66928 0.0
C447 C 0.03267 0.60742 0.69778 0.0
C448 C 0.05175 0.58781 0.69427 0.0
N449 N 0.055 0.59981 0.7237 0.0
H450 H 0.04938 0.6206 0.74558 0.0
H451 H 0.05981 0.58088 0.69095 0.0
H452 H 0.03122 0.59651 0.78797 0.0
H453 H 0.06472 0.57603 0.83256 0.0
O454 O 0.07432 0.62653 0.78525 0.0
O455 O 0.09018 0.61327 0.80686 0.0
O456 O 0.07541 0.58175 0.75102 0.0
C457 C 0.0863 0.62674 0.80911 0.0
H458 H 0.13453 0.63443 0.69435 0.0
H459 H 0.01305 0.57431 0.84441 0.0
H460 H 0.03525 0.57446 0.64479 0.0
H461 H 0.02545 0.61532 0.70066 0.0
Co462 Co 0.40528 0.47368 0.75285 0.0
C463 C 0.37338 0.46866 0.70397 0.0
C464 C 0.39105 0.49708 0.72132 0.0
C465 C 0.37553 0.49574 0.70413 0.0
N466 N 0.39016 0.48025 0.72048 0.0
N467 N 0.36432 0.47783 0.6935 0.0
H468 H 0.36685 0.45357 0.70346 0.0
H469 H 0.40134 0.50925 0.73656 0.0
C470 C 0.43319 0.51005 0.71989 0.0
O471 O 0.42578 0.50225 0.68733 0.0
N472 N 0.4196 0.46722 0.7866 0.0
C473 C 0.4188 0.45051 0.78856 0.0
C474 C 0.43073 0.45129 0.81652 0.0
C475 C 0.43186 0.47791 0.81354 0.0
N476 N 0.43898 0.46852 0.83225 0.0
C477 C 0.40372 0.45266 0.68689 0.0
C478 C 0.44156 0.46428 0.6858 0.0
C479 C 0.42942 0.44955 0.66226 0.0
C480 C 0.41037 0.44415 0.66214 0.0
C481 C 0.43437 0.47263 0.70972 0.0
N482 N 0.41558 0.46659 0.71062 0.0
H483 H 0.38884 0.44701 0.68879 0.0
H484 H 0.4438 0.4831 0.72943 0.0
H485 H 0.41009 0.43857 0.7709 0.0
H486 H 0.43553 0.49227 0.81906 0.0
O487 O 0.38369 0.44961 0.76204 0.0
O488 O 0.39129 0.4751 0.79574 0.0
O489 O 0.42683 0.50061 0.75044 0.0
C490 C 0.37966 0.45733 0.78963 0.0
H491 H 0.37216 0.50684 0.70198 0.0
H492 H 0.43286 0.43987 0.82501 0.0
H493 H 0.45636 0.46881 0.68682 0.0
H494 H 0.40046 0.43252 0.64499 0.0
Co495 Co 0.13664 0.40333 0.57391 0.0
C496 C 0.12969 0.42898 0.62239 0.0
C497 C 0.15886 0.43971 0.6123 0.0
C498 C 0.15674 0.45325 0.63039 0.0
N499 N 0.14197 0.4241 0.60818 0.0
N500 N 0.13833 0.44664 0.63641 0.0
H501 H 0.11468 0.42061 0.61911 0.0
H502 H 0.17184 0.4419 0.60023 0.0
C503 C 0.17157 0.41013 0.61154 0.0
O504 O 0.16264 0.40868 0.6432 0.0
N505 N 0.13126 0.3834 0.53853 0.0
C506 C 0.11447 0.36787 0.53377 0.0
C507 C 0.1159 0.35732 0.50537 0.0
C508 C 0.14271 0.3822 0.51283 0.0
N509 N 0.13366 0.36627 0.49214 0.0
C510 C 0.11301 0.3824 0.63616 0.0
C511 C 0.12442 0.35603 0.63887 0.0
C512 C 0.10899 0.35315 0.66057 0.0
C513 C 0.10363 0.36684 0.65975 0.0
C514 C 0.13351 0.37186 0.61585 0.0
N515 N 0.12769 0.38478 0.61436 0.0
H516 H 0.10754 0.39176 0.63362 0.0
H517 H 0.14458 0.37317 0.59753 0.0
H518 H 0.10199 0.36453 0.54974 0.0
H519 H 0.1573 0.39274 0.50952 0.0
O520 O 0.11316 0.40144 0.56131 0.0
O521 O 0.14 0.42002 0.53205 0.0
O522 O 0.16329 0.40831 0.57994 0.0
C523 C 0.12209 0.41398 0.53551 0.0
H524 H 0.16795 0.46727 0.63662 0.0
H525 H 0.10452 0.34425 0.49481 0.0
H526 H 0.12901 0.34579 0.63861 0.0
H527 H 0.09149 0.36496 0.6753 0.0
Co528 Co 0.60902 0.74191 0.58228 0.0
C529 C 0.58041 0.70927 0.62687 0.0
C530 C 0.57273 0.73038 0.61968 0.0
C531 C 0.55823 0.7152 0.63738 0.0
N532 N 0.58683 0.72685 0.61328 0.0
N533 N 0.56304 0.70192 0.64179 0.0
H534 H 0.58766 0.70145 0.62373 0.0
H535 H 0.57224 0.74255 0.61014 0.0
C536 C 0.6109 0.78028 0.57401 0.0
O537 O 0.62687 0.78802 0.55577 0.0
N538 N 0.63087 0.75616 0.55044 0.0
C539 C 0.64841 0.75962 0.55717 0.0
C540 C 0.65968 0.76947 0.52726 0.0
C541 C 0.6315 0.76294 0.51541 0.0
N542 N 0.64911 0.77182 0.50116 0.0
C543 C 0.62613 0.73783 0.64856 0.0
C544 C 0.65092 0.77546 0.66053 0.0
C545 C 0.65327 0.76216 0.68068 0.0
C546 C 0.64019 0.74315 0.67551 0.0
C547 C 0.63642 0.76952 0.63417 0.0
N548 N 0.62469 0.75086 0.62729 0.0
H549 H 0.61732 0.7231 0.64294 0.0
H550 H 0.63587 0.78003 0.61734 0.0
H551 H 0.65278 0.75521 0.58201 0.0
H552 H 0.61944 0.76222 0.50163 0.0
O553 O 0.61147 0.72032 0.57293 0.0
O554 O 0.59452 0.7286 0.53785 0.0
O555 O 0.60319 0.76324 0.58537 0.0
C556 C 0.60033 0.71674 0.54443 0.0
H557 H 0.54489 0.71381 0.64518 0.0
H558 H 0.67454 0.77448 0.52504 0.0
H559 H 0.66071 0.7903 0.66381 0.0
H560 H 0.64162 0.73237 0.6901 0.0
Co561 Co 0.27434 0.86952 0.57186 0.0
C562 C 0.30814 0.87705 0.61691 0.0
C563 C 0.28947 0.84777 0.60824 0.0
C564 C 0.30537 0.85001 0.6256 0.0
N565 N 0.29082 0.86467 0.60373 0.0
N566 N 0.31721 0.86847 0.63089 0.0
H567 H 0.3148 0.89201 0.61317 0.0
H568 H 0.27822 0.83467 0.59753 0.0
C569 C 0.24768 0.83678 0.61808 0.0
O570 O 0.25744 0.84645 0.64747 0.0
N571 N 0.25853 0.87434 0.53897 0.0
C572 C 0.2594 0.891 0.53458 0.0
C573 C 0.24684 0.88925 0.50723 0.0
C574 C 0.24563 0.8627 0.51391 0.0
N575 N 0.23816 0.87148 0.49416 0.0
C576 C 0.28257 0.89839 0.62606 0.0
C577 C 0.24591 0.88724 0.64475 0.0
C578 C 0.26025 0.90448 0.65841 0.0
C579 C 0.2788 0.90981 0.64907 0.0
C580 C 0.25031 0.8763 0.62134 0.0
N581 N 0.26851 0.88179 0.61251 0.0
H582 H 0.29675 0.9038 0.61677 0.0
H583 H 0.23893 0.86396 0.60856 0.0
H584 H 0.26883 0.90365 0.54974 0.0
H585 H 0.24194 0.84823 0.51006 0.0
O586 O 0.29584 0.8913 0.55172 0.0
O587 O 0.28392 0.86248 0.52856 0.0
O588 O 0.25223 0.844 0.58507 0.0
C589 C 0.29665 0.88017 0.52691 0.0
H590 H 0.30819 0.83885 0.6324 0.0
H591 H 0.24474 0.90043 0.49688 0.0
H592 H 0.23135 0.88247 0.65094 0.0
H593 H 0.29037 0.9233 0.65741 0.0
C594 C 0.21639 0.2369 0.18828 0.0
C595 C 0.22498 0.24787 0.15619 0.0
C596 C 0.22601 0.23031 0.21046 0.0
C597 C 0.26826 0.22456 0.21084 0.0
H598 H 0.27059 0.23651 0.31705 0.0
C599 C 0.32615 0.22721 0.307 0.0
C600 C 0.33518 0.24355 0.32902 0.0
C601 C 0.30906 0.22217 0.28928 0.0
C602 C 0.27004 0.233 0.28747 0.0
H603 H 0.24982 0.25965 0.12091 0.0
H604 H 0.26646 0.24842 0.15924 0.0
H605 H 0.24687 0.23732 0.2774 0.0
H606 H 0.33278 0.26674 0.35165 0.0
H607 H 0.30353 0.25835 0.32017 0.0
H608 H 0.2923 0.22163 0.22026 0.0
C609 C 0.25235 0.2447 0.16747 0.0
C610 C 0.25627 0.23322 0.26483 0.0
C611 C 0.24287 0.25135 0.14567 0.0
C612 C 0.32641 0.25429 0.33418 0.0
C613 C 0.30942 0.24926 0.31663 0.0
C614 C 0.28209 0.22444 0.23343 0.0
C615 C 0.24424 0.2344 0.20053 0.0
C616 C 0.25575 0.22981 0.22592 0.0
C617 C 0.30062 0.23329 0.29354 0.0
C618 C 0.28365 0.22946 0.27167 0.0
H619 H 0.20258 0.23397 0.19695 0.0
H620 H 0.21935 0.22233 0.23569 0.0
H621 H 0.26799 0.2215 0.18108 0.0
H622 H 0.33253 0.21862 0.30263 0.0
H623 H 0.30258 0.2097 0.2719 0.0
C624 C 0.77711 0.98308 0.1678 0.0
C625 C 0.75901 0.96748 0.17053 0.0
C626 C 0.78205 0.99912 0.18947 0.0
C627 C 0.76888 0.01669 0.27257 0.0
H628 H 0.78165 0.06095 0.21281 0.0
C629 C 0.751 0.07151 0.32268 0.0
C630 C 0.76281 0.09061 0.3144 0.0
C631 C 0.75453 0.05794 0.30781 0.0
C632 C 0.77853 0.04891 0.23015 0.0
H633 H 0.73214 0.95583 0.19838 0.0
H634 H 0.74096 0.98344 0.23747 0.0
H635 H 0.78153 0.03403 0.1835 0.0
H636 H 0.78788 0.11039 0.28421 0.0
H637 H 0.79426 0.08653 0.25838 0.0
H638 H 0.76553 0.03125 0.31903 0.0
C639 C 0.75132 0.98343 0.21867 0.0
C640 C 0.77846 0.0335 0.21333 0.0
C641 C 0.74627 0.96765 0.19642 0.0
C642 C 0.77849 0.09581 0.29111 0.0
C643 C 0.78208 0.08213 0.27616 0.0
C644 C 0.76917 0.03213 0.28947 0.0
C645 C 0.76906 0.99951 0.21464 0.0
C646 C 0.77297 0.01701 0.23409 0.0
C647 C 0.77014 0.06302 0.28448 0.0
C648 C 0.77324 0.04814 0.26811 0.0
H649 H 0.78699 0.98329 0.14736 0.0
H650 H 0.79578 0.01137 0.18581 0.0
H651 H 0.7648 1.00421 0.28926 0.0
H652 H 0.73904 0.06696 0.34122 0.0
H653 H 0.74481 0.04338 0.31429 0.0
C654 C 0.0214 0.79207 0.15975 0.0
C655 C 0.03773 0.79174 0.1694 0.0
C656 C 1.00478 0.78109 0.17978 0.0
C657 C 0.98485 0.75202 0.26587 0.0
H658 H 0.94325 0.72017 0.20038 0.0
C659 C 0.91653 0.69049 0.32492 0.0
C660 C 0.91078 0.67333 0.30655 0.0
C661 C 0.92993 0.70737 0.30847 0.0
C662 C 0.95469 0.72903 0.21905 0.0
H663 H 0.04996 0.78034 0.20746 0.0
H664 H 0.02108 0.76138 0.24305 0.0
H665 H 0.97146 0.74643 0.17361 0.0
H666 H 0.91375 0.6605 0.25567 0.0
H667 H 0.93717 0.68991 0.22699 0.0
H668 H 0.96842 0.73409 0.31104 0.0
C669 C 0.02103 0.77024 0.22053 0.0
C670 C 0.97078 0.7442 0.20381 0.0
C671 C 0.03756 0.78107 0.20028 0.0
C672 C 0.91801 0.67349 0.27059 0.0
C673 C 0.9313 0.69036 0.25405 0.0
C674 C 0.96871 0.73692 0.28115 0.0
C675 C 1.00431 0.76965 0.20972 0.0
C676 C 0.98623 0.75556 0.2269 0.0
C677 C 0.93775 0.70744 0.27321 0.0
C678 C 0.95366 0.72496 0.25775 0.0
H679 H 0.02122 0.79992 0.13536 0.0
H680 H 0.99215 0.78098 0.17091 0.0
H681 H 0.99647 0.76061 0.28439 0.0
H682 H 0.91136 0.69083 0.35282 0.0
H683 H 0.9345 0.72032 0.32377 0.0
C684 C 0.6691 0.75892 0.73812 0.0
C685 C 0.67035 0.76764 0.70338 0.0
C686 C 0.68526 0.76161 0.75642 0.0
C687 C 0.72197 0.77403 0.79649 0.0
H688 H 0.75535 0.76572 0.73245 0.0
C689 C 0.76207 0.73957 0.85124 0.0
C690 C 0.78105 0.74695 0.84184 0.0
C691 C 0.75147 0.74641 0.83438 0.0
C692 C 0.74642 0.76846 0.75061 0.0
H693 H 0.68956 0.78665 0.6613 0.0
H694 H 0.71787 0.79147 0.69351 0.0
H695 H 0.73121 0.77077 0.70393 0.0
H696 H 0.80371 0.76711 0.80667 0.0
H697 H 0.78478 0.77892 0.77613 0.0
H698 H 0.73658 0.77081 0.84315 0.0
C699 C 0.70436 0.78248 0.70646 0.0
C700 C 0.73259 0.77137 0.73433 0.0
C701 C 0.68817 0.77989 0.68825 0.0
C702 C 0.78911 0.76114 0.8144 0.0
C703 C 0.77832 0.76791 0.79705 0.0
C704 C 0.73573 0.77109 0.8127 0.0
C705 C 0.70305 0.77301 0.74029 0.0
C706 C 0.71979 0.7735 0.75716 0.0
C707 C 0.75946 0.76076 0.8074 0.0
C708 C 0.74761 0.76758 0.78996 0.0
H709 H 0.65556 0.74947 0.75047 0.0
H710 H 0.68371 0.75394 0.78225 0.0
H711 H 0.71258 0.77601 0.8148 0.0
H712 H 0.75535 0.7286 0.87218 0.0
H713 H 0.73687 0.74033 0.84232 0.0
C714 C 0.25534 0.03805 0.79815 0.0
C715 C 0.2552 0.03589 0.83739 0.0
C716 C 0.25175 0.023 0.77443 0.0
C717 C 0.23193 0.9719 0.76938 0.0
H718 H 0.2752 0.98287 0.7079 0.0
C719 C 0.24019 0.9192 0.67045 0.0
C720 C 0.25605 0.91767 0.67938 0.0
C721 C 0.23737 0.93293 0.68746 0.0
C722 C 0.26295 0.97968 0.72463 0.0
H723 H 0.25001 0.01635 0.88289 0.0
H724 H 0.24305 0.98994 0.84159 0.0
H725 H 0.27364 0.00845 0.7396 0.0
H726 H 0.28077 0.9289 0.71503 0.0
H727 H 0.2762 0.95329 0.74323 0.0
H728 H 0.22145 0.94302 0.75476 0.0
C729 C 0.24613 1.00317 0.82905 0.0
C730 C 0.26198 0.99429 0.74245 0.0
C731 C 0.25019 0.01828 0.85263 0.0
C732 C 0.26867 0.92989 0.70663 0.0
C733 C 0.26604 0.94382 0.72297 0.0
C734 C 0.23273 0.95731 0.75085 0.0
C735 C 0.24747 0.00554 0.78978 0.0
C736 C 0.24669 0.99048 0.76575 0.0
C737 C 0.25052 0.94561 0.71316 0.0
C738 C 0.2485 0.96106 0.72921 0.0
H739 H 0.25936 0.0516 0.78592 0.0
H740 H 0.2529 0.02514 0.74419 0.0
H741 H 0.22004 0.96864 0.78733 0.0
H742 H 0.23028 0.91029 0.64926 0.0
H743 H 0.2253 0.9341 0.67952 0.0
C744 C 0.97456 0.22315 0.79325 0.0
C745 C 0.97566 0.21386 0.82535 0.0
C746 C 0.9906 0.23438 0.77192 0.0
C747 C 0.04076 0.26407 0.78711 0.0
H748 H 0.04161 0.27242 0.67938 0.0
C749 C 0.08994 0.33504 0.71671 0.0
C750 C 0.09733 0.33521 0.68092 0.0
C751 C 0.07725 0.3181 0.73391 0.0
C752 C 0.04174 0.27011 0.70941 0.0
H753 H 0.99392 0.2084 0.86026 0.0
H754 H 0.0221 0.22792 0.8227 0.0
H755 H 0.01492 0.24503 0.70755 0.0
H756 H 0.09755 0.31767 0.63552 0.0
H757 H 0.07551 0.28808 0.66575 0.0
H758 H 0.06734 0.2894 0.78914 0.0
C759 C 0.00887 0.22649 0.81379 0.0
C760 C 0.02638 0.2545 0.72557 0.0
C761 C 0.99276 0.21515 0.83497 0.0
C762 C 0.09226 0.31802 0.66329 0.0
C763 C 0.07948 0.30107 0.6804 0.0
C764 C 0.05607 0.27972 0.77099 0.0
C765 C 0.00808 0.23674 0.78279 0.0
C766 C 0.02552 0.25153 0.76471 0.0
C767 C 0.07158 0.30093 0.71561 0.0
C768 C 0.05653 0.28315 0.73209 0.0
H769 H 0.96154 0.22267 0.78605 0.0
H770 H 0.98953 0.24227 0.74856 0.0
H771 H 0.04046 0.26232 0.81742 0.0
H772 H 0.09368 0.34805 0.73109 0.0
H773 H 0.0713 0.31849 0.7609 0.0
C774 C 0.88986 0.58111 0.51038 0.0
C775 C 0.89455 0.58621 0.47248 0.0
C776 C 0.90147 0.57725 0.53309 0.0
C777 C 0.94053 0.56687 0.5309 0.0
H778 H 0.95791 0.59791 0.62044 0.0
C779 C 0.99884 0.57185 0.63306 0.0
C780 C 0.01239 0.59029 0.64289 0.0
C781 C 0.98282 0.56835 0.61268 0.0
C782 C 0.95312 0.58908 0.59562 0.0
H783 H 0.91409 0.58996 0.42782 0.0
H784 H 0.93405 0.58297 0.46703 0.0
H785 H 0.93139 0.59555 0.58518 0.0
H786 H 0.02038 0.61956 0.63642 0.0
H787 H 0.99244 0.61343 0.60162 0.0
H788 H 0.96274 0.56091 0.54087 0.0
C789 C 0.9216 0.58205 0.47947 0.0
C790 C 0.93779 0.58755 0.57569 0.0
C791 C 0.91025 0.58621 0.45708 0.0
C792 C 0.01001 0.60516 0.63022 0.0
C793 C 0.99399 0.60166 0.61031 0.0
C794 C 0.95575 0.56822 0.55114 0.0
C795 C 0.91768 0.57806 0.51797 0.0
C796 C 0.93165 0.57685 0.54252 0.0
C797 C 0.98002 0.58322 0.60207 0.0
C798 C 0.96254 0.5798 0.58306 0.0
H799 H 0.87784 0.58107 0.52287 0.0
H800 H 0.89808 0.57414 0.56268 0.0
H801 H 0.93603 0.55844 0.50552 0.0
H802 H 1.00019 0.56008 0.64254 0.0
H803 H 0.97228 0.554 0.60651 0.0
C804 C 0.43031 0.43305 0.60368 0.0
C805 C 0.43602 0.43845 0.64106 0.0
C806 C 0.43457 0.42065 0.5853 0.0
C807 C 0.45166 0.39953 0.54784 0.0
H808 H 0.4355 0.35299 0.60207 0.0
C809 C 0.42178 0.32963 0.47318 0.0
C810 C 0.4252 0.31554 0.48638 0.0
C811 C 0.42847 0.34641 0.49267 0.0
C812 C 0.44054 0.36604 0.5868 0.0
H813 H 0.45106 0.43548 0.68828 0.0
H814 H 0.4584 0.41364 0.65613 0.0
H815 H 0.43778 0.38007 0.63513 0.0
H816 H 0.43877 0.30814 0.52994 0.0
H817 H 0.45038 0.33774 0.56491 0.0
H818 H 0.45374 0.38535 0.4992 0.0
C819 C 0.45071 0.4191 0.64105 0.0
C820 C 0.4418 0.38154 0.60571 0.0
C821 C 0.44665 0.4317 0.65929 0.0
C822 C 0.43588 0.31876 0.51926 0.0
C823 C 0.44248 0.33564 0.53921 0.0
C824 C 0.4505 0.38411 0.52903 0.0
C825 C 0.44445 0.41321 0.60408 0.0
C826 C 0.44666 0.39819 0.58602 0.0
C827 C 0.43875 0.3496 0.52609 0.0
C828 C 0.44414 0.36695 0.54791 0.0
H829 H 0.42214 0.43807 0.58898 0.0
H830 H 0.42937 0.41621 0.55694 0.0
H831 H 0.45578 0.4123 0.53215 0.0
H832 H 0.41375 0.32768 0.4477 0.0
H833 H 0.42504 0.35667 0.4821 0.0
C834 C 0.59686 0.01868 0.68296 0.0
C835 C 0.58392 1.00234 0.66387 0.0
C836 C 0.60955 0.03463 0.663 0.0
C837 C 0.62137 0.05648 0.56756 0.0
H838 H 0.67231 0.0797 0.60538 0.0
C839 C 0.68619 0.09649 0.47393 0.0
C840 C 0.70207 0.11249 0.48793 0.0
C841 C 0.67058 0.08612 0.49676 0.0
C842 C 0.65813 0.07367 0.59481 0.0
H843 H 0.57345 0.99009 0.60903 0.0
H844 H 0.59594 0.0179 0.57377 0.0
H845 H 0.64686 0.05545 0.64234 0.0
H846 H 0.71391 0.1306 0.53643 0.0
H847 H 0.68649 0.11212 0.57709 0.0
H848 H 0.63291 0.07424 0.5192 0.0
C849 C 0.59612 0.01851 0.60427 0.0
C850 C 0.64348 0.05972 0.61599 0.0
C851 C 0.58325 1.00254 0.62437 0.0
C852 C 0.70183 0.11831 0.52501 0.0
C853 C 0.68621 0.10771 0.54821 0.0
C854 C 0.63605 0.07038 0.54629 0.0
C855 C 0.60975 0.03459 0.62339 0.0
C856 C 0.62495 0.05068 0.60232 0.0
C857 C 0.6705 0.09137 0.53436 0.0
C858 C 0.65464 0.07883 0.55933 0.0
H859 H 0.59746 0.01896 0.71349 0.0
H860 H 0.6195 0.04687 0.67868 0.0
H861 H 0.60725 0.05009 0.55649 0.0
H862 H 0.68591 0.09174 0.44532 0.0
H863 H 0.65886 0.07352 0.48534 0.0
C864 C 0.44773 0.10431 0.19669 0.0
C865 C 0.4552 0.09411 0.17983 0.0
C866 C 0.43623 0.10902 0.1761 0.0
C867 C 0.41731 0.10812 0.07953 0.0
H868 H 0.37443 0.10174 0.1369 0.0
C869 C 0.35594 0.11178 0.00849 0.0
C870 C 0.33786 0.09799 0.01983 0.0
C871 C 0.37173 0.11465 0.02882 0.0
C872 C 0.38625 0.10349 0.12035 0.0
H873 H 0.45715 0.08113 0.12841 0.0
H874 H 0.43643 0.08866 0.09241 0.0
H875 H 0.39978 0.10062 0.16898 0.0
H876 H 0.32219 0.07707 0.06254 0.0
H877 H 0.34955 0.08162 0.09716 0.0
H878 H 0.40305 0.10976 0.0305 0.0
C879 C 0.43985 0.09365 0.12114 0.0
C880 C 0.40102 0.10317 0.13889 0.0
C881 C 0.4517 0.08928 0.14166 0.0
C882 C 0.33591 0.08765 0.05273 0.0
C883 C 0.35165 0.09044 0.07289 0.0
C884 C 0.40239 0.10824 0.06088 0.0
C885 C 0.43151 0.1031 0.13846 0.0
C886 C 0.41667 0.10522 0.11873 0.0
C887 C 0.36979 0.10378 0.06092 0.0
C888 C 0.38651 0.10559 0.081 0.0
H889 H 0.4503 0.10814 0.22622 0.0
H890 H 0.43054 0.11675 0.19016 0.0
H891 H 0.42921 0.11 0.06309 0.0
H892 H 0.35798 0.11989 0.98309 0.0
H893 H 0.38546 0.12523 0.01907 0.0
C894 C 0.91357 0.35871 0.13956 0.0
C895 C 0.92196 0.36125 0.17514 0.0
C896 C 0.90885 0.3425 0.11853 0.0
C897 C 0.90129 0.29418 0.1266 0.0
H898 H 0.92065 0.30237 0.0246 0.0
C899 C 0.91827 0.2427 0.04891 0.0
C900 C 0.9166 0.24153 0.00953 0.0
C901 C 0.9147 0.2553 0.06878 0.0
C902 C 0.91477 0.29967 0.05275 0.0
H903 H 0.93114 0.34852 0.21741 0.0
H904 H 0.92293 0.32052 0.1811 0.0
H905 H 0.92142 0.32818 0.0594 0.0
H906 H 0.90854 0.25137 0.96025 0.0
H907 H 0.90181 0.27289 0.9948 0.0
H908 H 0.89504 0.26576 0.12028 0.0
C909 C 0.91995 0.33088 0.16924 0.0
C910 C 0.91522 0.31452 0.07268 0.0
C911 C 0.92485 0.34706 0.18989 0.0
C912 C 0.91018 0.25223 0.99062 0.0
C913 C 0.90644 0.26463 0.0104 0.0
C914 C 0.90076 0.27928 0.1066 0.0
C915 C 0.91216 0.3285 0.13311 0.0
C916 C 0.90892 0.31207 0.11013 0.0
C917 C 0.90923 0.26679 0.04957 0.0
C918 C 0.90787 0.28195 0.06969 0.0
H919 H 0.91115 0.36942 0.1276 0.0
H920 H 0.90278 0.34099 0.09077 0.0
H921 H 0.89611 0.2918 0.1553 0.0
H922 H 0.92329 0.23465 0.06405 0.0
H923 H 0.91713 0.25667 0.0989 0.0
C924 C 0.65958 0.55163 0.16849 0.0
C925 C 0.64344 0.55195 0.15717 0.0
C926 C 0.67635 0.56191 0.14852 0.0
C927 C 0.69706 0.58856 0.06011 0.0
H928 H 0.73857 0.62168 0.12457 0.0
C929 C 0.76573 0.6481 0.99796 0.0
C930 C 0.77135 0.66572 0.01406 0.0
C931 C 0.75238 0.63167 0.01592 0.0
C932 C 0.72716 0.61244 0.10619 0.0
H933 H 0.63171 0.56263 0.11621 0.0
H934 H 0.66088 0.58039 0.08076 0.0
H935 H 0.71001 0.59641 0.15258 0.0
H936 H 0.76832 0.67991 0.06268 0.0
H937 H 0.74503 0.65129 0.09404 0.0
H938 H 0.71386 0.60515 0.01387 0.0
C939 C 0.66066 0.57205 0.10459 0.0
C940 C 0.71087 0.59785 0.12218 0.0
C941 C 0.64397 0.5619 0.12477 0.0
C942 C 0.76416 0.66652 0.0495 0.0
C943 C 0.75093 0.65012 0.06758 0.0
C944 C 0.7134 0.60309 0.04409 0.0
C945 C 0.67719 0.57266 0.11694 0.0
C946 C 0.69544 0.58607 0.0994 0.0
C947 C 0.74449 0.63254 0.05048 0.0
C948 C 0.72843 0.61551 0.06705 0.0
H949 H 0.65947 0.54431 0.19399 0.0
H950 H 0.68883 0.56205 0.15859 0.0
H951 H 0.68546 0.57963 0.04182 0.0
H952 H 0.77089 0.64703 0.97052 0.0
H953 H 0.74783 0.61833 0.00224 0.0
C954 C 0.56464 0.90532 0.82932 0.0
C955 C 0.55486 0.91375 0.84411 0.0
C956 C 0.57519 0.9006 0.8529 0.0
C957 C 0.60424 0.91974 0.93424 0.0
H958 H 0.61135 0.87671 0.92611 0.0
C959 C 0.67465 0.92442 0.96461 0.0
C960 C 0.67457 0.91167 0.99114 0.0
C961 C 0.65789 0.92203 0.94989 0.0
C962 C 0.60939 0.88872 0.92889 0.0
H963 H 0.54765 0.92326 0.89487 0.0
H964 H 0.56661 0.91539 0.93648 0.0
H965 H 0.5838 0.8757 0.89711 0.0
H966 H 0.65662 0.88586 0.02153 0.0
H967 H 0.62737 0.88137 0.9944 0.0
H968 H 0.63026 0.93313 0.96427 0.0
C969 C 0.5658 0.91211 0.90673 0.0
C970 C 0.59368 0.88815 0.91237 0.0
C971 C 0.55488 0.91648 0.88311 0.0
C972 C 0.65729 0.89587 0.00088 0.0
C973 C 0.64051 0.89333 0.98562 0.0
C974 C 0.62005 0.92042 0.95015 0.0
C975 C 0.57651 0.90468 0.89159 0.0
C976 C 0.59114 0.90379 0.91433 0.0
C977 C 0.64066 0.90667 0.96079 0.0
C978 C 0.62297 0.90508 0.94694 0.0
H979 H 0.56491 0.9033 0.79917 0.0
H980 H 0.58345 0.8951 0.84038 0.0
H981 H 0.60278 0.93209 0.93578 0.0
H982 H 0.68767 0.93649 0.95569 0.0
H983 H 0.65838 0.93232 0.93017 0.0
C984 C 0.08801 0.63964 0.87304 0.0
C985 C 0.09513 0.64207 0.83635 0.0
C986 C 0.09271 0.65526 0.89579 0.0
C987 C 0.10682 0.70508 0.88382 0.0
H988 H 0.10669 0.70481 0.99309 0.0
C989 C 0.10968 0.76581 0.97116 0.0
C990 C 0.09585 0.75996 0.99926 0.0
C991 C 0.11331 0.7528 0.95325 0.0
C992 C 0.10679 0.70509 0.96256 0.0
H993 H 0.11328 0.66223 0.79486 0.0
H994 H 0.12227 0.68951 0.83504 0.0
H995 H 0.10749 0.6795 0.95883 0.0
H996 H 0.0756 0.7361 0.03187 0.0
H997 H 0.08183 0.71345 0.00059 0.0
H998 H 0.10579 0.73049 0.88758 0.0
C999 C 0.11277 0.67571 0.84622 0.0
C1000 C 0.1072 0.69057 0.94292 0.0
C1001 C 0.10786 0.66012 0.82339 0.0
C1002 C 0.08613 0.74097 0.00987 0.0
C1003 C 0.08988 0.72804 0.99231 0.0
C1004 C 0.10656 0.71965 0.90345 0.0
C1005 C 0.10462 0.67354 0.88212 0.0
C1006 C 0.10678 0.69015 0.90327 0.0
C1007 C 0.10336 0.73375 0.96354 0.0
C1008 C 0.10609 0.71958 0.94301 0.0
H1009 H 0.07781 0.6258 0.88309 0.0
H1010 H 0.08596 0.653 0.92302 0.0
H1011 H 0.10612 0.70512 0.85334 0.0
H1012 H 0.11739 0.78036 0.96248 0.0
H1013 H 0.12384 0.75761 0.93128 0.0
C1014 C 0.24434 0.33439 0.94699 0.0
C1015 C 0.24175 0.33706 0.98511 0.0
C1016 C 0.25665 0.34964 0.92461 0.0
C1017 C 0.29875 0.39606 0.93604 0.0
H1018 H 0.29346 0.39988 0.82836 0.0
C1019 C 0.35854 0.45309 0.84471 0.0
C1020 C 0.36228 0.44617 0.81163 0.0
C1021 C 0.34217 0.44186 0.86547 0.0
C1022 C 0.29514 0.399 0.85844 0.0
H1023 H 0.24866 0.3578 0.02894 0.0
H1024 H 0.26976 0.38444 0.9898 0.0
H1025 H 0.26702 0.37623 0.86479 0.0
H1026 H 0.35156 0.42229 0.7738 0.0
H1027 H 0.32335 0.40287 0.80982 0.0
H1028 H 0.32701 0.41846 0.92955 0.0
C1029 C 0.26278 0.37058 0.97736 0.0
C1030 C 0.28 0.38543 0.87929 0.0
C1031 C 0.25061 0.35536 0.9997 0.0
C1032 C 0.34917 0.42804 0.79928 0.0
C1033 C 0.33286 0.41694 0.81974 0.0
C1034 C 0.31387 0.40964 0.91521 0.0
C1035 C 0.26649 0.36785 0.93994 0.0
C1036 C 0.28174 0.38354 0.91823 0.0
C1037 C 0.32919 0.42361 0.85323 0.0
C1038 C 0.31238 0.41098 0.87604 0.0
H1039 H 0.23779 0.3204 0.93516 0.0
H1040 H 0.25926 0.34699 0.89597 0.0
H1041 H 0.30072 0.39485 0.96588 0.0
H1042 H 0.36836 0.46703 0.85481 0.0
H1043 H 0.33967 0.44742 0.8911 0.0
C1044 C 0.02071 0.44465 0.33232 0.0
C1045 C 1.00296 0.43385 0.34896 0.0
C1046 C 0.03692 0.44838 0.35201 0.0
C1047 C 0.05511 0.4476 0.44703 0.0
H1048 H 0.08677 0.4324 0.39491 0.0
C1049 C 0.09411 0.41722 0.52461 0.0
C1050 C 0.11211 0.42141 0.51315 0.0
C1051 C 0.08409 0.42369 0.50411 0.0
C1052 C 0.07837 0.43713 0.40966 0.0
H1053 H 0.98827 0.41934 0.39975 0.0
H1054 H 0.01652 0.42595 0.43428 0.0
H1055 H 0.06284 0.43534 0.35988 0.0
H1056 H 0.1339 0.43591 0.47141 0.0
H1057 H 0.11607 0.44714 0.43478 0.0
H1058 H 0.07011 0.4487 0.49705 0.0
C1059 C 0.01796 0.43156 0.40607 0.0
C1060 C 0.06465 0.4388 0.38961 0.0
C1061 C 1.00178 0.42766 0.38626 0.0
C1062 C 0.12002 0.43245 0.48081 0.0
C1063 C 0.10983 0.43883 0.45989 0.0
C1064 C 0.06884 0.44601 0.467 0.0
C1065 C 0.03568 0.44158 0.38886 0.0
C1066 C 0.05242 0.44336 0.40841 0.0
C1067 C 0.09174 0.43449 0.47143 0.0
C1068 C 0.0801 0.44002 0.44883 0.0
H1069 H 0.022 0.44944 0.30344 0.0
H1070 H 0.05039 0.45619 0.33814 0.0
H1071 H 0.04611 0.45148 0.46211 0.0
H1072 H 0.08762 0.40883 0.54951 0.0
H1073 H 0.07007 0.41977 0.51339 0.0
C1074 C 0.59555 0.68465 0.53872 0.0
C1075 C 0.59441 0.69953 0.52217 0.0
C1076 C 0.59161 0.66878 0.51786 0.0
C1077 C 0.57059 0.64287 0.42911 0.0
H1078 H 0.6053 0.6247 0.446 0.0
C1079 C 0.58084 0.59413 0.32645 0.0
C1080 C 0.58488 0.58075 0.34154 0.0
C1081 C 0.5788 0.60659 0.34997 0.0
C1082 C 0.59526 0.62934 0.44137 0.0
H1083 H 0.58751 0.70921 0.47117 0.0
H1084 H 0.58105 0.68147 0.4339 0.0
H1085 H 0.60811 0.65074 0.48303 0.0
H1086 H 0.58892 0.56924 0.39326 0.0
H1087 H 0.58521 0.59096 0.43461 0.0
H1088 H 0.55812 0.62165 0.38651 0.0
C1089 C 0.58476 0.68202 0.46334 0.0
C1090 C 0.59687 0.64433 0.4626 0.0
C1091 C 0.58851 0.69792 0.48455 0.0
C1092 C 0.5858 0.57938 0.38085 0.0
C1093 C 0.58385 0.59193 0.40445 0.0
C1094 C 0.56902 0.62787 0.40766 0.0
C1095 C 0.58668 0.66744 0.47962 0.0
C1096 C 0.58458 0.65132 0.45681 0.0
C1097 C 0.58081 0.60599 0.38918 0.0
C1098 C 0.58138 0.62097 0.41352 0.0
H1099 H 0.5997 0.68531 0.56792 0.0
H1100 H 0.5927 0.65763 0.53167 0.0
H1101 H 0.56078 0.64777 0.42418 0.0
H1102 H 0.57983 0.59535 0.29623 0.0
H1103 H 0.57658 0.61727 0.33725 0.0
C1104 C 0.32951 0.89002 0.51128 0.0
C1105 C 0.31215 0.88761 0.49993 0.0
C1106 C 0.34565 0.90146 0.49037 0.0
C1107 C 0.36334 0.92792 0.40049 0.0
H1108 H 0.40326 0.96443 0.46396 0.0
C1109 C 0.43016 0.99058 0.33807 0.0
C1110 C 0.43488 0.00806 0.35386 0.0
C1111 C 0.41701 0.97394 0.35566 0.0
C1112 C 0.39228 0.95431 0.44585 0.0
H1113 H 0.29763 0.89456 0.45789 0.0
H1114 H 0.32581 0.91453 0.42096 0.0
H1115 H 0.37629 0.9377 0.49273 0.0
H1116 H 0.43017 0.02178 0.40127 0.0
H1117 H 0.40722 0.99277 0.43197 0.0
H1118 H 0.37903 0.94505 0.35371 0.0
C1119 C 0.32702 0.90737 0.44549 0.0
C1120 C 0.37691 0.93885 0.46228 0.0
C1121 C 0.31089 0.89594 0.46649 0.0
C1122 C 0.42674 0.00853 0.38835 0.0
C1123 C 0.41371 0.9919 0.40606 0.0
C1124 C 0.37878 0.94335 0.38403 0.0
C1125 C 0.34469 0.9108 0.45797 0.0
C1126 C 0.36207 0.92569 0.43987 0.0
C1127 C 0.40843 0.97443 0.38955 0.0
C1128 C 0.39321 0.95694 0.40662 0.0
H1129 H 0.33074 0.88394 0.53748 0.0
H1130 H 0.35901 0.90367 0.50049 0.0
H1131 H 0.3522 0.91796 0.38246 0.0
H1132 H 0.43604 0.98976 0.31129 0.0
H1133 H 0.41333 0.96069 0.34242 0.0
C1134 C 0.15739 0.37275 0.44227 0.0
C1135 C 0.141 0.36005 0.46177 0.0
C1136 C 0.16406 0.36668 0.41219 0.0
C1137 C 0.14877 0.32905 0.34125 0.0
H1138 H 0.20166 0.34535 0.33372 0.0
C1139 C 0.17823 0.29762 0.23223 0.0
C1140 C 0.19601 0.3097 0.21697 0.0
C1141 C 0.17103 0.30377 0.26127 0.0
C1142 C 0.18687 0.34086 0.33497 0.0
H1143 H 0.11924 0.33077 0.46523 0.0
H1144 H 0.13068 0.32041 0.4127 0.0
H1145 H 0.19041 0.35636 0.38576 0.0
H1146 H 0.21969 0.33796 0.21849 0.0
H1147 H 0.20709 0.34884 0.26811 0.0
H1148 H 0.14522 0.31372 0.29024 0.0
C1149 C 0.13821 0.3351 0.42036 0.0
C1150 C 0.18044 0.34717 0.36494 0.0
C1151 C 0.13163 0.34111 0.45056 0.0
C1152 C 0.20611 0.32822 0.23027 0.0
C1153 C 0.1989 0.33442 0.25888 0.0
C1154 C 0.15522 0.32285 0.31107 0.0
C1155 C 0.15444 0.34781 0.40071 0.0
C1156 C 0.16131 0.34132 0.36848 0.0
C1157 C 0.18142 0.32221 0.27533 0.0
C1158 C 0.17438 0.32868 0.30749 0.0
H1159 H 0.16492 0.38744 0.44968 0.0
H1160 H 0.17655 0.37685 0.39741 0.0
H1161 H 0.13396 0.32445 0.34297 0.0
H1162 H 0.1702 0.28324 0.22269 0.0
H1163 H 0.15759 0.29391 0.27341 0.0
C1164 C 0.64337 0.78083 0.4378 0.0
C1165 C 0.6557 0.78326 0.4675 0.0
C1166 C 0.64964 0.79264 0.40623 0.0
C1167 C 0.68739 0.83955 0.37572 0.0
H1168 H 0.66968 0.82016 0.2754 0.0
C1169 C 0.71545 0.88583 0.24114 0.0
C1170 C 0.7019 0.88347 0.21426 0.0
C1171 C 0.71065 0.87345 0.27174 0.0
C1172 C 0.67466 0.82583 0.30327 0.0
H1173 H 0.68443 0.80019 0.48681 0.0
H1174 H 0.69535 0.82032 0.43169 0.0
H1175 H 0.65952 0.79871 0.32893 0.0
H1176 H 0.67277 0.86585 0.19813 0.0
H1177 H 0.66441 0.84469 0.25139 0.0
H1178 H 0.70244 0.86669 0.35002 0.0
C1179 C 0.68077 0.80943 0.43297 0.0
C1180 C 0.6688 0.81352 0.33399 0.0
C1181 C 0.67451 0.79765 0.46446 0.0
C1182 C 0.68353 0.86835 0.21853 0.0
C1183 C 0.67877 0.856 0.24888 0.0
C1184 C 0.69327 0.85186 0.34497 0.0
C1185 C 0.66839 0.8072 0.40357 0.0
C1186 C 0.67498 0.82023 0.37066 0.0
C1187 C 0.69223 0.85836 0.2759 0.0
C1188 C 0.68684 0.84517 0.3084 0.0
H1189 H 0.62884 0.76984 0.43891 0.0
H1190 H 0.63967 0.79059 0.38426 0.0
H1191 H 0.69223 0.84526 0.40361 0.0
H1192 H 0.72969 0.89735 0.23877 0.0
H1193 H 0.7214 0.8756 0.29193 0.0
C1194 C 0.1273 0.83011 0.23171 0.0
C1195 C 0.12537 0.81516 0.20933 0.0
C1196 C 0.13967 0.83643 0.2624 0.0
C1197 C 0.16427 0.82076 0.32769 0.0
H1198 H 0.19412 0.87361 0.35164 0.0
C1199 C 0.22282 0.84936 0.44112 0.0
C1200 C 0.2246 0.86411 0.46398 0.0
C1201 C 0.21049 0.84315 0.41039 0.0
C1202 C 0.18572 0.85877 0.3456 0.0
H1203 H 0.13565 0.79582 0.20056 0.0
H1204 H 0.15718 0.80685 0.25366 0.0
H1205 H 0.17342 0.86376 0.29696 0.0
H1206 H 0.21411 0.88325 0.47336 0.0
H1207 H 0.1927 0.87245 0.42006 0.0
H1208 H 0.17659 0.81577 0.37629 0.0
C1209 C 0.14882 0.8134 0.24821 0.0
C1210 C 0.17385 0.85313 0.31422 0.0
C1211 C 0.13648 0.80708 0.21768 0.0
C1212 C 0.21341 0.87214 0.45592 0.0
C1213 C 0.20112 0.86595 0.42528 0.0
C1214 C 0.17615 0.8264 0.35903 0.0
C1215 C 0.1504 0.82797 0.27131 0.0
C1216 C 0.16299 0.83405 0.30483 0.0
C1217 C 0.19965 0.85153 0.40185 0.0
C1218 C 0.18702 0.84548 0.36841 0.0
H1219 H 0.11884 0.83653 0.22627 0.0
H1220 H 0.14041 0.8476 0.27977 0.0
H1221 H 0.15587 0.80592 0.32169 0.0
H1222 H 0.23134 0.84298 0.44626 0.0
H1223 H 0.20982 0.83211 0.39273 0.0
C1224 C 0.80296 0.67299 0.76663 0.0
C1225 C 0.80929 0.69184 0.77618 0.0
C1226 C 0.80917 0.66838 0.73389 0.0
C1227 C 0.8482 0.687 0.66642 0.0
H1228 H 0.81354 0.64469 0.60543 0.0
C1229 C 0.87196 0.66648 0.52987 0.0
C1230 C 0.86463 0.64726 0.52271 0.0
C1231 C 0.86472 0.67248 0.5589 0.0
C1232 C 0.82346 0.65641 0.62234 0.0
H1233 H 0.82716 0.72057 0.75766 0.0
H1234 H 0.83818 0.71245 0.7007 0.0
H1235 H 0.80186 0.6544 0.65899 0.0
H1236 H 0.84385 0.61931 0.54059 0.0
H1237 H 0.83134 0.62972 0.59156 0.0
H1238 H 0.86988 0.6888 0.63036 0.0
C1239 C 0.82839 0.70128 0.71895 0.0
C1240 C 0.81674 0.66202 0.65301 0.0
C1241 C 0.82205 0.70593 0.7517 0.0
C1242 C 0.84968 0.6342 0.54504 0.0
C1243 C 0.84249 0.6402 0.57426 0.0
C1244 C 0.85495 0.68133 0.63586 0.0
C1245 C 0.82203 0.68243 0.70971 0.0
C1246 C 0.82905 0.67728 0.67563 0.0
C1247 C 0.84998 0.65944 0.58174 0.0
C1248 C 0.84269 0.66586 0.61356 0.0
H1249 H 0.7935 0.66165 0.78479 0.0
H1250 H 0.80425 0.65374 0.72803 0.0
H1251 H 0.85809 0.69864 0.68356 0.0
H1252 H 0.88323 0.67693 0.51278 0.0
H1253 H 0.87061 0.6874 0.56324 0.0
C1254 C 0.30487 0.1254 0.77106 0.0
C1255 C 0.31791 0.12373 0.7939 0.0
C1256 C 0.31086 0.13766 0.7402 0.0
C1257 C 0.35257 0.17923 0.70016 0.0
H1258 H 0.32459 0.16286 0.60669 0.0
C1259 C 0.3789 0.22266 0.5622 0.0
C1260 C 0.3654 0.22421 0.54071 0.0
C1261 C 0.37348 0.21007 0.59251 0.0
C1262 C 0.33248 0.16773 0.63267 0.0
H1263 H 0.34756 0.13414 0.8026 0.0
H1264 H 0.35794 0.1552 0.74863 0.0
H1265 H 0.31424 0.14199 0.66113 0.0
H1266 H 0.33555 0.21319 0.53355 0.0
H1267 H 0.32617 0.1916 0.58645 0.0
H1268 H 0.37078 0.205 0.6717 0.0
C1269 C 0.34308 0.14712 0.75464 0.0
C1270 C 0.32652 0.15577 0.66394 0.0
C1271 C 0.33709 0.13485 0.78541 0.0
C1272 C 0.34636 0.21259 0.54977 0.0
C1273 C 0.34095 0.20001 0.5799 0.0
C1274 C 0.35854 0.1912 0.66887 0.0
C1275 C 0.33004 0.14861 0.73147 0.0
C1276 C 0.33643 0.16138 0.69815 0.0
C1277 C 0.35442 0.19866 0.60187 0.0
C1278 C 0.34852 0.18564 0.63477 0.0
H1279 H 0.28999 0.11698 0.77651 0.0
H1280 H 0.30043 0.13862 0.72325 0.0
H1281 H 0.36042 0.18412 0.72618 0.0
H1282 H 0.39368 0.23145 0.55617 0.0
H1283 H 0.38422 0.20925 0.60858 0.0
C1284 C 0.78292 0.14335 0.56729 0.0
C1285 C 0.78409 0.13156 0.54002 0.0
C1286 C 0.79449 0.14892 0.59914 0.0
C1287 C 0.82456 0.13717 0.65757 0.0
H1288 H 0.84868 0.18959 0.6857 0.0
C1289 C 0.88548 0.17119 0.76656 0.0
C1290 C 0.88618 0.18535 0.78975 0.0
C1291 C 0.8722 0.16348 0.73749 0.0
C1292 C 0.84187 0.17484 0.67868 0.0
H1293 H 0.79852 0.11641 0.5255 0.0
H1294 H 0.81843 0.12595 0.58097 0.0
H1295 H 0.82679 0.17828 0.63322 0.0
H1296 H 0.87277 0.20161 0.80234 0.0
H1297 H 0.84952 0.18802 0.75253 0.0
H1298 H 0.83968 0.13375 0.70316 0.0
C1299 C 0.80841 0.13072 0.57788 0.0
C1300 C 0.8293 0.16836 0.64849 0.0
C1301 C 0.79691 0.12523 0.54597 0.0
C1302 C 0.87286 0.19103 0.78436 0.0
C1303 C 0.85955 0.18327 0.75568 0.0
C1304 C 0.8371 0.14364 0.68796 0.0
C1305 C 0.80749 0.14279 0.60467 0.0
C1306 C 0.82049 0.14946 0.63752 0.0
C1307 C 0.85927 0.16968 0.73129 0.0
C1308 C 0.8459 0.16257 0.69895 0.0
H1309 H 0.77306 0.1483 0.56413 0.0
H1310 H 0.79324 0.15801 0.61954 0.0
H1311 H 0.81787 0.12248 0.65005 0.0
H1312 H 0.89563 0.16661 0.76997 0.0
H1313 H 0.87248 0.15311 0.71914 0.0
C1314 C 0.4724 0.01008 0.12995 0.0
C1315 C 0.48062 0.02942 0.13693 0.0
C1316 C 0.4789 1.00344 0.1007 0.0
C1317 C 0.51959 0.01708 0.03763 0.0
H1318 H 0.48333 0.97632 0.97541 0.0
C1319 C 0.54066 0.99728 0.89794 0.0
C1320 C 0.53309 0.97816 0.88943 0.0
C1321 C 0.53396 1.00295 0.92839 0.0
C1322 C 0.49365 0.98754 0.99279 0.0
H1323 H 0.50225 0.05693 0.11851 0.0
H1324 H 0.51358 0.04538 0.06739 0.0
H1325 H 0.47257 0.98747 0.02823 0.0
H1326 H 0.51223 0.95001 0.90607 0.0
H1327 H 0.50044 0.95992 0.95953 0.0
H1328 H 0.54065 0.01723 0.0021 0.0
C1329 C 0.50222 0.03531 0.08491 0.0
C1330 C 0.48749 0.99396 0.0231 0.0
C1331 C 0.49573 0.04195 0.11425 0.0
C1332 C 0.51828 0.96484 0.91169 0.0
C1333 C 0.51155 0.97053 0.94233 0.0
C1334 C 0.52574 0.01068 0.00734 0.0
C1335 C 0.4938 0.01597 0.07759 0.0
C1336 C 0.50037 0.00888 0.04578 0.0
C1337 C 0.51947 0.98967 0.95128 0.0
C1338 C 0.51284 0.99593 0.98435 0.0
H1339 H 0.46099 1.0 0.14729 0.0
H1340 H 0.47232 0.98845 0.09639 0.0
H1341 H 0.52993 0.02835 0.05489 0.0
H1342 H 0.55175 0.00795 0.88087 0.0
H1343 H 0.54008 0.01781 0.93384 0.0
C1344 C 0.03957 0.54593 0.88438 0.0
C1345 C 0.03254 0.5583 0.88105 0.0
C1346 C 0.03403 0.53319 0.91442 0.0
C1347 C 0.0124 0.5236 0.00986 0.0
H1348 H 1.0003 0.47253 0.98933 0.0
C1349 C 0.97471 0.46392 0.11923 0.0
C1350 C 0.98127 0.45118 0.12302 0.0
C1351 C 0.9811 0.47702 0.08977 0.0
C1352 C 1.0038 0.48678 0.99566 0.0
H1353 H 0.01469 0.56737 0.90762 0.0
H1354 H 1.00483 0.54506 0.9593 0.0
H1355 H 0.01198 0.49562 0.93861 0.0
H1356 H 0.99934 0.44198 0.09798 0.0
H1357 H 0.01063 0.4649 0.04721 0.0
H1358 H 1.00414 0.51473 0.06687 0.0
C1359 C 0.01469 0.54522 0.93891 0.0
C1360 C 0.01055 0.50004 0.96656 0.0
C1361 C 0.02019 0.55789 0.90893 0.0
C1362 C 0.99416 0.45171 0.0963 0.0
C1363 C 1.00049 0.46474 0.06685 0.0
C1364 C 1.00564 0.51033 0.03894 0.0
C1365 C 0.02141 0.53258 0.94193 0.0
C1366 C 0.01488 0.51862 0.97324 0.0
C1367 C 0.99412 0.47763 0.06328 0.0
C1368 C 1.00121 0.49174 0.03222 0.0
H1369 H 0.049 0.54579 0.8633 0.0
H1370 H 0.03965 0.5238 0.91609 0.0
H1371 H 0.01586 0.53783 0.01619 0.0
H1372 H 0.96489 0.464 0.1394 0.0
H1373 H 0.97573 0.48661 0.08763 0.0
C1374 C 0.45468 0.49014 0.88587 0.0
C1375 C 0.45233 0.47519 0.86292 0.0
C1376 C 0.46734 0.49627 0.91601 0.0
C1377 C 0.49287 0.48112 0.97974 0.0
H1378 H 0.52404 0.53438 0.99833 0.0
C1379 C 0.553 0.51197 0.09091 0.0
C1380 C 0.55551 0.52774 0.11113 0.0
C1381 C 0.54018 0.50482 0.06098 0.0
C1382 C 0.51529 0.51944 0.99387 0.0
H1383 H 0.46197 0.45534 0.85341 0.0
H1384 H 0.48387 0.46595 0.90592 0.0
H1385 H 0.5023 0.52366 0.94551 0.0
H1386 H 0.54571 0.54759 0.11734 0.0
H1387 H 0.52334 0.53511 0.06586 0.0
H1388 H 0.50583 0.47694 0.02832 0.0
C1389 C 0.47569 0.47273 0.90097 0.0
C1390 C 0.50282 0.5133 0.96352 0.0
C1391 C 0.46309 0.46664 0.8708 0.0
C1392 C 0.54444 0.53572 0.10174 0.0
C1393 C 0.53163 0.52857 0.07211 0.0
C1394 C 0.50533 0.48728 0.01024 0.0
C1395 C 0.47795 0.48759 0.92401 0.0
C1396 C 0.49138 0.49407 0.95615 0.0
C1397 C 0.52955 0.51326 0.05084 0.0
C1398 C 0.51661 0.50653 0.01785 0.0
H1399 H 0.4465 0.49691 0.88107 0.0
H1400 H 0.46856 0.50761 0.93348 0.0
H1401 H 0.48412 0.4662 0.9751 0.0
H1402 H 0.5614 0.50558 0.09737 0.0
H1403 H 0.539 0.49306 0.04509 0.0
C1404 C 0.1994 0.20291 0.99727 0.0
C1405 C 0.21094 0.222 0.00623 0.0
C1406 C 0.20714 0.19208 0.98517 0.0
C1407 C 0.25065 0.18997 0.99102 0.0
H1408 H 0.22581 0.15021 0.91739 0.0
C1409 C 0.25989 0.12743 0.91478 0.0
C1410 C 0.26379 0.12006 0.94707 0.0
C1411 C 0.25515 0.14154 0.91809 0.0
C1412 C 0.23308 0.1614 0.93765 0.0
H1413 H 0.23978 0.24472 0.00771 0.0
H1414 H 0.25327 0.22578 0.98682 0.0
H1415 H 0.21427 0.17192 0.92881 0.0
H1416 H 0.26623 0.12212 0.00804 0.0
H1417 H 0.25799 0.14649 0.01371 0.0
H1418 H 0.26936 0.17938 8e-05 0.0
C1419 C 0.2382 0.21916 0.98971 0.0
C1420 C 0.22633 0.17372 0.94451 0.0
C1421 C 0.23044 0.23004 0.00174 0.0
C1422 C 0.26329 0.12742 0.98254 0.0
C1423 C 0.25869 0.14154 0.9858 0.0
C1424 C 0.25735 0.17762 0.98425 0.0
C1425 C 0.22665 0.19998 0.9817 0.0
C1426 C 0.23484 0.18797 0.97175 0.0
C1427 C 0.2544 0.14868 0.95371 0.0
C1428 C 0.24845 0.16297 0.95798 0.0
H1429 H 0.18437 0.19606 0.00084 0.0
H1430 H 0.19782 0.1773 0.97986 0.0
H1431 H 0.25748 0.20067 0.01239 0.0
H1432 H 0.26017 0.12208 0.88704 0.0
H1433 H 0.25207 0.14684 0.89278 0.0
C1434 C 0.89409 0.13373 0.93435 0.0
C1435 C 0.88694 0.14596 0.92985 0.0
C1436 C 0.88242 0.11514 0.94558 0.0
C1437 C 0.85284 0.07389 0.94764 0.0
H1438 H 0.81497 0.06166 0.02452 0.0
C1439 C 0.79713 0.99734 0.98148 0.0
C1440 C 0.79251 0.99237 0.01956 0.0
C1441 C 0.80835 0.0161 0.97087 0.0
C1442 C 0.82556 0.06484 0.0032 0.0
H1443 H 0.86179 0.14808 0.93366 0.0
H1444 H 0.84138 0.11556 0.95293 0.0
H1445 H 0.83523 0.09429 0.00578 0.0
H1446 H 0.79626 1.00346 0.07633 0.0
H1447 H 0.81585 0.0362 0.05782 0.0
H1448 H 0.84346 0.04455 0.94548 0.0
C1449 C 0.8561 0.12046 0.9482 0.0
C1450 C 0.83704 0.08354 0.99213 0.0
C1451 C 0.86779 0.13909 0.9369 0.0
C1452 C 0.79932 0.00674 0.04672 0.0
C1453 C 0.81056 0.02554 0.03609 0.0
C1454 C 0.84136 0.05522 0.95864 0.0
C1455 C 0.86326 0.10822 0.95261 0.0
C1456 C 0.85086 0.08831 0.96424 0.0
C1457 C 0.8153 0.03046 0.99802 0.0
C1458 C 0.82756 0.05043 0.98655 0.0
H1459 H 0.90874 0.13849 0.92922 0.0
H1460 H 0.8885 0.10623 0.94918 0.0
H1461 H 0.86318 0.07699 0.9258 0.0
H1462 H 0.79188 0.98676 0.95965 0.0
H1463 H 0.8114 0.01937 0.94123 0.0
C1464 C 0.01163 0.81168 0.99335 0.0
C1465 C 0.0159 0.8024 0.02152 0.0
C1466 C 0.99335 0.80409 0.97965 0.0
C1467 C 0.94784 0.75978 0.97372 0.0
H1468 H 0.92866 0.7932 0.95154 0.0
C1469 C 0.87296 0.75573 0.93517 0.0
C1470 C 0.86579 0.74087 0.90914 0.0
C1471 C 0.89128 0.7634 0.94882 0.0
C1472 C 0.93372 0.78364 0.95787 0.0
H1473 H 1.0042 0.7779 0.05768 0.0
H1474 H 0.97227 0.76466 0.03394 0.0
H1475 H 0.96028 0.80595 0.97636 0.0
H1476 H 0.87252 0.72273 0.87644 0.0
H1477 H 0.90446 0.73628 0.89967 0.0
H1478 H 0.92113 0.73742 0.95608 0.0
C1479 C 0.98314 0.77767 0.02191 0.0
C1480 C 0.95196 0.79099 0.97167 0.0
C1481 C 1.00146 0.78524 0.03552 0.0
C1482 C 0.8775 0.73408 0.89665 0.0
C1483 C 0.89582 0.74177 0.91019 0.0
C1484 C 0.92959 0.75244 0.95997 0.0
C1485 C 0.97883 0.78704 0.9939 0.0
C1486 C 0.95929 0.77916 0.97966 0.0
C1487 C 0.90291 0.75643 0.93668 0.0
C1488 C 0.9223 0.76427 0.95173 0.0
H1489 H 0.02248 0.82478 0.98164 0.0
H1490 H 0.99066 0.81152 0.95758 0.0
H1491 H 0.95305 0.75027 0.97922 0.0
H1492 H 0.86433 0.76127 0.94551 0.0
H1493 H 0.8962 0.77453 0.96949 0.0
C1494 C 0.75956 0.88635 0.0442 0.0
C1495 C 0.74843 0.88139 0.07685 0.0
C1496 C 0.76685 0.87517 0.03141 0.0
C1497 C 0.76069 0.82715 0.04438 0.0
H1498 H 0.80827 0.84864 0.99182 0.0
C1499 C 0.80068 0.7871 0.01855 0.0
C1500 C 0.80521 0.78614 0.98073 0.0
C1501 C 0.79416 0.79918 0.02931 0.0
C1502 C 0.79493 0.84248 0.00634 0.0
H1503 H 0.73693 0.86135 0.12262 0.0
H1504 H 0.75032 0.84252 0.10178 0.0
H1505 H 0.79643 0.86902 0.01307 0.0
H1506 H 0.80697 0.79739 0.92475 0.0
H1507 H 0.79605 0.81899 0.94383 0.0
H1508 H 0.75968 0.80074 0.03886 0.0
C1509 C 0.7528 0.85447 0.08477 0.0
C1510 C 0.78804 0.85412 0.01836 0.0
C1511 C 0.74521 0.86538 0.09701 0.0
C1512 C 0.80348 0.79781 0.95403 0.0
C1513 C 0.79735 0.81021 0.96495 0.0
C1514 C 0.76777 0.81564 0.03308 0.0
C1515 C 0.76348 0.85896 0.05142 0.0
C1516 C 0.77083 0.84664 0.03774 0.0
C1517 C 0.79242 0.81083 0.00262 0.0
C1518 C 0.78496 0.82318 0.01404 0.0
H1519 H 0.7622 0.89857 0.02796 0.0
H1520 H 0.77478 0.87905 0.0054 0.0
H1521 H 0.74715 0.82065 0.05813 0.0
H1522 H 0.80171 0.77815 0.03961 0.0
H1523 H 0.79049 0.79944 0.05855 0.0
C1524 C 0.20117 0.01035 0.99899 0.0
C1525 C 0.21784 0.0158 0.97881 0.0
C1526 C 0.18979 0.9918 0.01069 0.0
C1527 C 0.18867 0.94737 0.03037 0.0
H1528 H 0.13612 0.92462 0.00375 0.0
C1529 C 0.13009 0.87219 0.0762 0.0
C1530 C 0.11832 0.86115 0.04672 0.0
C1531 C 0.14318 0.89119 0.07024 0.0
C1532 C 0.15075 0.93079 0.01143 0.0
H1533 H 0.23571 0.00565 0.95633 0.0
H1534 H 0.21602 0.97346 0.97751 0.0
H1535 H 0.15735 0.95771 0.99004 0.0
H1536 H 0.1113 0.86142 0.98779 0.0
H1537 H 0.1338 0.89442 0.97781 0.0
H1538 H 0.18193 0.92027 0.0517 0.0
C1539 C 0.21183 0.98368 0.98412 0.0
C1540 C 0.16287 0.94976 0.00383 0.0
C1541 C 0.22315 1.00222 0.972 0.0
C1542 C 0.12012 0.86946 0.01117 0.0
C1543 C 0.13294 0.88841 0.00543 0.0
C1544 C 0.17644 0.92839 0.03854 0.0
C1545 C 0.19487 0.97821 0.003 0.0
C1546 C 0.182 0.95823 0.01286 0.0
C1547 C 0.14449 0.89954 0.03492 0.0
C1548 C 0.1574 0.91988 0.02866 0.0
H1549 H 0.19678 0.02039 0.00563 0.0
H1550 H 0.17692 0.98805 0.02568 0.0
H1551 H 0.20333 0.95356 0.03781 0.0
H1552 H 0.12907 0.86619 0.10388 0.0
H1553 H 0.15191 0.89949 0.09348 0.0
C1554 C 0.14637 0.28308 0.05911 0.0
C1555 C 0.15207 0.27132 0.07609 0.0
C1556 C 0.12765 0.27609 0.04857 0.0
C1557 C 0.08379 0.23093 0.02926 0.0
H1558 H 0.0605 0.2618 0.03327 0.0
C1559 C 1.00458 0.20004 0.00685 0.0
C1560 C 0.99908 0.20933 0.98095 0.0
C1561 C 0.02307 0.20834 0.01959 0.0
C1562 C 0.06688 0.25307 0.03178 0.0
H1563 H 0.14241 0.24313 0.0965 0.0
H1564 H 0.10978 0.23113 0.0795 0.0
H1565 H 0.09291 0.27468 0.05418 0.0
H1566 H 0.00892 0.23516 0.9493 0.0
H1567 H 0.04114 0.24981 0.97234 0.0
H1568 H 0.05762 0.20922 0.00762 0.0
C1569 C 0.1198 0.24562 0.0731 0.0
C1570 C 0.08549 0.26045 0.04364 0.0
C1571 C 0.13854 0.25254 0.08317 0.0
C1572 C 0.0125 0.22757 0.9694 0.0
C1573 C 0.03102 0.23598 0.98252 0.0
C1574 C 0.06517 0.22351 0.01789 0.0
C1575 C 0.11409 0.2572 0.05513 0.0
C1576 C 0.09422 0.24946 0.04262 0.0
C1577 C 0.03657 0.22629 0.00719 0.0
C1578 C 0.05647 0.23446 0.01908 0.0
H1579 H 0.15647 0.29759 0.05302 0.0
H1580 H 0.12394 0.28542 0.03439 0.0
H1581 H 0.09007 0.22214 0.02705 0.0
H1582 H 0.99464 0.18621 0.01718 0.0
H1583 H 0.02684 0.20066 0.03915 0.0
C1584 C 0.89319 0.55461 0.33885 0.0
C1585 C 0.87519 0.55109 0.32873 0.0
C1586 C 0.89986 0.54292 0.32591 0.0
C1587 C 0.8819 0.49434 0.29701 0.0
H1588 H 0.93292 0.51099 0.26524 0.0
C1589 C 0.91431 0.44707 0.30379 0.0
C1590 C 0.92348 0.44568 0.27156 0.0
C1591 C 0.90868 0.46043 0.30588 0.0
C1592 C 0.91859 0.50618 0.27369 0.0
H1593 H 0.8507 0.53325 0.295 0.0
H1594 H 0.86218 0.5128 0.27306 0.0
H1595 H 0.92303 0.53416 0.27721 0.0
H1596 H 0.93415 0.45744 0.21632 0.0
H1597 H 0.92456 0.48134 0.2204 0.0
H1598 H 0.87756 0.46647 0.29469 0.0
C1599 C 0.87103 0.52442 0.29138 0.0
C1600 C 0.91297 0.51941 0.28084 0.0
C1601 C 0.86442 0.53613 0.30407 0.0
C1602 C 0.92705 0.45814 0.24144 0.0
C1603 C 0.92166 0.47183 0.24384 0.0
C1604 C 0.88756 0.4812 0.2904 0.0
C1605 C 0.88865 0.52743 0.30276 0.0
C1606 C 0.89459 0.51361 0.29288 0.0
C1607 C 0.91227 0.47296 0.27603 0.0
C1608 C 0.906 0.48696 0.27911 0.0
H1609 H 0.90184 0.56586 0.35801 0.0
H1610 H 0.91344 0.54552 0.33542 0.0
H1611 H 0.8677 0.48941 0.30661 0.0
H1612 H 0.91128 0.43767 0.32749 0.0
H1613 H 0.90164 0.46109 0.33115 0.0
C1614 C 0.55624 0.47211 0.24761 0.0
C1615 C 0.55091 0.48576 0.2519 0.0
C1616 C 0.54421 0.45355 0.25846 0.0
C1617 C 0.49453 0.4195 0.28368 0.0
H1618 H 0.51703 0.39224 0.32733 0.0
C1619 C 0.45233 0.34632 0.35651 0.0
C1620 C 0.45774 0.33307 0.34717 0.0
C1621 C 0.46283 0.36492 0.344 0.0
C1622 C 0.51054 0.39961 0.31493 0.0
H1623 H 0.52861 0.49054 0.27071 0.0
H1624 H 0.50776 0.45822 0.29068 0.0
H1625 H 0.53691 0.42467 0.30805 0.0
H1626 H 0.47806 0.32904 0.31572 0.0
H1627 H 0.49647 0.36141 0.29476 0.0
H1628 H 0.46806 0.39433 0.2916 0.0
C1629 C 0.52112 0.46176 0.27818 0.0
C1630 C 0.52195 0.41823 0.30368 0.0
C1631 C 0.53312 0.48035 0.26689 0.0
C1632 C 0.47366 0.33886 0.32425 0.0
C1633 C 0.48422 0.35743 0.31211 0.0
C1634 C 0.48308 0.40088 0.29538 0.0
C1635 C 0.52657 0.44813 0.27441 0.0
C1636 C 0.51416 0.42841 0.28746 0.0
C1637 C 0.47907 0.37073 0.32218 0.0
C1638 C 0.49099 0.39068 0.31075 0.0
H1639 H 0.56976 0.47574 0.23576 0.0
H1640 H 0.54877 0.44343 0.25416 0.0
H1641 H 0.488 0.42676 0.27097 0.0
H1642 H 0.44033 0.34256 0.3744 0.0
H1643 H 0.45858 0.37489 0.3524 0.0
C1644 C 0.53982 0.08126 0.2592 0.0
C1645 C 0.53127 0.08678 0.28676 0.0
C1646 C 0.55876 0.08636 0.2626 0.0
C1647 C 0.60297 0.12255 0.29647 0.0
H1648 H 0.61772 0.08593 0.32153 0.0
C1649 C 0.67527 0.14554 0.35982 0.0
C1650 C 0.68432 0.13532 0.35196 0.0
C1651 C 0.65689 0.13907 0.34792 0.0
C1652 C 0.61399 0.09635 0.31378 0.0
H1653 H 0.53591 0.10226 0.33892 0.0
H1654 H 0.56897 0.11161 0.34399 0.0
H1655 H 0.58504 0.07549 0.30574 0.0
H1656 H 0.68127 0.11033 0.32535 0.0
H1657 H 0.64926 0.09919 0.30324 0.0
H1658 H 0.63166 0.14346 0.30382 0.0
C1659 C 0.56096 0.10309 0.32026 0.0
C1660 C 0.59524 0.09032 0.30484 0.0
C1661 C 0.54204 0.09766 0.31737 0.0
C1662 C 0.67455 0.11842 0.33193 0.0
C1663 C 0.6562 0.11204 0.31942 0.0
C1664 C 0.62172 0.12857 0.30468 0.0
C1665 C 0.56947 0.09745 0.29305 0.0
C1666 C 0.58955 0.10342 0.29698 0.0
C1667 C 0.6471 0.12231 0.3272 0.0
C1668 C 0.62744 0.11562 0.31453 0.0
H1669 H 0.53182 0.07284 0.23537 0.0
H1670 H 0.56512 0.0819 0.24129 0.0
H1671 H 0.59886 0.13289 0.29033 0.0
H1672 H 0.68229 0.15842 0.37591 0.0
H1673 H 0.65029 0.14713 0.35559 0.0
C1674 C 0.4838 0.14594 0.34411 0.0
C1675 C 0.47249 0.12968 0.3229 0.0
C1676 C 0.47685 0.15737 0.35666 0.0
C1677 C 0.43395 0.15966 0.37495 0.0
H1678 H 0.46527 0.21226 0.34968 0.0
C1679 C 0.41784 0.21939 0.41527 0.0
C1680 C 0.41881 0.23058 0.38442 0.0
C1681 C 0.4239 0.20627 0.41157 0.0
C1682 C 0.45642 0.19763 0.35711 0.0
H1683 H 0.44458 0.11243 0.29973 0.0
H1684 H 0.43242 0.13228 0.32219 0.0
H1685 H 0.47655 0.19046 0.33723 0.0
H1686 H 0.42691 0.23677 0.32559 0.0
H1687 H 0.43772 0.21432 0.31956 0.0
H1688 H 0.41372 0.16699 0.39444 0.0
C1689 C 0.44671 0.1361 0.32902 0.0
C1690 C 0.46291 0.18517 0.3502 0.0
C1691 C 0.45372 0.12471 0.31615 0.0
C1692 C 0.42591 0.22837 0.34994 0.0
C1693 C 0.43221 0.21557 0.34647 0.0
C1694 C 0.42754 0.17224 0.3824 0.0
C1695 C 0.45834 0.15277 0.3487 0.0
C1696 C 0.45167 0.166 0.35855 0.0
C1697 C 0.43136 0.20445 0.3772 0.0
C1698 C 0.43862 0.19129 0.37293 0.0
H1699 H 0.49816 0.15001 0.35067 0.0
H1700 H 0.48605 0.16998 0.37227 0.0
H1701 H 0.42503 0.14498 0.38185 0.0
H1702 H 0.41238 0.22074 0.44215 0.0
H1703 H 0.42313 0.19786 0.4357 0.0
C1704 C 0.78811 0.1995 0.38714 0.0
C1705 C 0.79476 0.19123 0.41296 0.0
C1706 C 0.79939 0.21816 0.37592 0.0
C1707 C 0.84838 0.256 0.36734 0.0
H1708 H 0.82644 0.28806 0.36336 0.0
C1709 C 0.89206 0.33543 0.33095 0.0
C1710 C 0.88322 0.34297 0.30893 0.0
C1711 C 0.88185 0.31709 0.34502 0.0
C1712 C 0.83277 0.27928 0.36381 0.0
H1713 H 0.81882 0.19613 0.44654 0.0
H1714 H 0.83858 0.22868 0.42656 0.0
H1715 H 0.80761 0.25581 0.38487 0.0
H1716 H 0.8569 0.3368 0.28311 0.0
H1717 H 0.83927 0.30497 0.30691 0.0
H1718 H 0.87345 0.27936 0.34551 0.0
C1719 C 0.82454 0.22068 0.41518 0.0
C1720 C 0.82195 0.26078 0.37627 0.0
C1721 C 0.81318 0.20203 0.42669 0.0
C1722 C 0.86406 0.33164 0.30072 0.0
C1723 C 0.85392 0.31333 0.31448 0.0
C1724 C 0.85919 0.27451 0.35454 0.0
C1725 C 0.81772 0.22899 0.38987 0.0
C1726 C 0.82956 0.24887 0.37791 0.0
C1727 C 0.86259 0.30583 0.33713 0.0
C1728 C 0.85147 0.28635 0.35226 0.0
H1729 H 0.77428 0.19155 0.37505 0.0
H1730 H 0.79384 0.22403 0.35582 0.0
H1731 H 0.8546 0.24712 0.368 0.0
H1732 H 0.90677 0.34386 0.3379 0.0
H1733 H 0.88898 0.31188 0.36263 0.0
C1734 C 0.6732 0.56269 0.31682 0.0
C1735 C 0.66196 0.54325 0.31126 0.0
C1736 C 0.69172 0.57043 0.32946 0.0
C1737 C 0.72507 0.55796 0.37414 0.0
H1738 H 0.76281 0.60259 0.32313 0.0
C1739 C 0.80841 0.59593 0.33759 0.0
C1740 C 0.8161 0.59526 0.37254 0.0
C1741 C 0.78975 0.59152 0.33477 0.0
C1742 C 0.75245 0.59012 0.3377 0.0
H1743 H 0.66162 0.51676 0.31475 0.0
H1744 H 0.69367 0.53016 0.33655 0.0
H1745 H 0.72979 0.59081 0.30976 0.0
H1746 H 0.81021 0.58978 0.43222 0.0
H1747 H 0.77741 0.58202 0.42728 0.0
H1748 H 0.74782 0.55684 0.40081 0.0
C1749 C 0.68811 0.53945 0.33189 0.0
C1750 C 0.73347 0.58348 0.33033 0.0
C1751 C 0.66965 0.53174 0.31928 0.0
C1752 C 0.80471 0.59039 0.40486 0.0
C1753 C 0.78591 0.58587 0.40199 0.0
C1754 C 0.74406 0.56462 0.38151 0.0
C1755 C 0.69946 0.5589 0.33687 0.0
C1756 C 0.71954 0.56708 0.34784 0.0
C1757 C 0.77819 0.58629 0.36681 0.0
C1758 C 0.75801 0.58054 0.36271 0.0
H1759 H 0.6677 0.57197 0.31146 0.0
H1760 H 0.69998 0.58545 0.33344 0.0
H1761 H 0.7147 0.54546 0.38859 0.0
H1762 H 0.81673 0.59965 0.31206 0.0
H1763 H 0.78426 0.59171 0.30714 0.0
C1764 C 0.58952 0.78662 0.61422 0.0
C1765 C 0.60285 0.79218 0.58514 0.0
C1766 C 0.58253 0.79823 0.62558 0.0
C1767 C 0.56248 0.82077 0.62964 0.0
H1768 H 0.59664 0.87421 0.63973 0.0
C1769 C 0.53582 0.87205 0.66154 0.0
C1770 C 0.54566 0.88596 0.6888 0.0
C1771 C 0.54318 0.86127 0.6472 0.0
C1772 C 0.58694 0.85931 0.63722 0.0
H1773 H 0.61928 0.81439 0.5452 0.0
H1774 H 0.60701 0.83458 0.56489 0.0
H1775 H 0.6085 0.85384 0.61865 0.0
H1776 H 0.57121 0.89962 0.72179 0.0
H1777 H 0.58411 0.88085 0.69664 0.0
H1778 H 0.54099 0.82614 0.6489 0.0
C1779 C 0.60207 0.82129 0.57914 0.0
C1780 C 0.59369 0.84766 0.62475 0.0
C1781 C 0.60903 0.80966 0.56772 0.0
C1782 C 0.56335 0.8892 0.70051 0.0
C1783 C 0.57073 0.87841 0.68611 0.0
C1784 C 0.55572 0.83242 0.64197 0.0
C1785 C 0.58876 0.81574 0.60829 0.0
C1786 C 0.58155 0.82822 0.62092 0.0
C1787 C 0.5606 0.86411 0.65968 0.0
C1788 C 0.56786 0.85183 0.64599 0.0
H1789 H 0.5848 0.77353 0.62898 0.0
H1790 H 0.57254 0.79365 0.64857 0.0
H1791 H 0.55271 0.8059 0.62669 0.0
H1792 H 0.52232 0.86941 0.6514 0.0
H1793 H 0.53517 0.85065 0.62631 0.0
C1794 C 0.23126 0.80773 0.65725 0.0
C1795 C 0.2324 0.81714 0.62341 0.0
C1796 C 0.21748 0.789 0.66229 0.0
C1797 C 0.17098 0.75243 0.63332 0.0
H1798 H 0.18759 0.71848 0.66833 0.0
C1799 C 0.12221 0.67778 0.69609 0.0
C1800 C 0.1257 0.66346 0.6843 0.0
C1801 C 0.13403 0.6964 0.68478 0.0
C1802 C 0.18272 0.72775 0.65834 0.0
H1803 H 0.21959 0.81434 0.56862 0.0
H1804 H 0.1951 0.78149 0.57789 0.0
H1805 H 0.21058 0.75131 0.65636 0.0
H1806 H 0.14373 0.65757 0.64919 0.0
H1807 H 0.16447 0.68997 0.63045 0.0
H1808 H 0.14301 0.72881 0.63622 0.0
C1809 C 0.20507 0.78871 0.60031 0.0
C1810 C 0.19588 0.74656 0.65173 0.0
C1811 C 0.21912 0.80745 0.59497 0.0
C1812 C 0.14083 0.6682 0.65966 0.0
C1813 C 0.15271 0.68678 0.64874 0.0
C1814 C 0.15773 0.7336 0.64059 0.0
C1815 C 0.20429 0.77925 0.63388 0.0
C1816 C 0.19017 0.75912 0.63928 0.0
C1817 C 0.14967 0.70114 0.66173 0.0
C1818 C 0.16349 0.72107 0.65316 0.0
H1819 H 0.24126 0.81472 0.67974 0.0
H1820 H 0.21712 0.78211 0.68857 0.0
H1821 H 0.1662 0.76184 0.62391 0.0
H1822 H 0.11084 0.67479 0.71525 0.0
H1823 H 0.1314 0.70721 0.6954 0.0
C1824 C 0.20212 0.42537 0.64538 0.0
C1825 C 0.19172 0.41595 0.6132 0.0
C1826 C 0.22119 0.43138 0.6476 0.0
C1827 C 0.25747 0.42226 0.62422 0.0
H1828 H 0.291 0.47564 0.63717 0.0
C1829 C 0.33753 0.45476 0.65499 0.0
C1830 C 0.34524 0.46982 0.68052 0.0
C1831 C 0.31917 0.44762 0.6415 0.0
C1832 C 0.28186 0.46067 0.63394 0.0
H1833 H 0.19311 0.40515 0.55831 0.0
H1834 H 0.22675 0.4153 0.56286 0.0
H1835 H 0.25806 0.46391 0.62291 0.0
H1836 H 0.3394 0.48843 0.71357 0.0
H1837 H 0.3076 0.47588 0.69111 0.0
H1838 H 0.28099 0.41885 0.63753 0.0
C1839 C 0.21995 0.41813 0.58601 0.0
C1840 C 0.26305 0.45402 0.62535 0.0
C1841 C 0.20081 0.41243 0.58338 0.0
C1842 C 0.33408 0.47719 0.69311 0.0
C1843 C 0.3158 0.46999 0.68004 0.0
C1844 C 0.27633 0.4289 0.63341 0.0
C1845 C 0.23028 0.42782 0.61805 0.0
C1846 C 0.25062 0.43475 0.62117 0.0
C1847 C 0.30813 0.45531 0.65359 0.0
C1848 C 0.28865 0.44818 0.63941 0.0
H1849 H 0.1956 0.42842 0.66875 0.0
H1850 H 0.22888 0.4388 0.6726 0.0
H1851 H 0.24805 0.40731 0.62138 0.0
H1852 H 0.34585 0.44883 0.64485 0.0
H1853 H 0.31377 0.43634 0.6211 0.0
C1854 C 0.05761 0.53134 0.73981 0.0
C1855 C 0.07002 0.55083 0.73971 0.0
C1856 C 0.06396 0.51888 0.73067 0.0
C1857 C 0.10779 0.51649 0.72361 0.0
H1858 H 0.07804 0.47293 0.66097 0.0
C1859 C 0.13981 0.47692 0.65005 0.0
C1860 C 0.12971 0.45717 0.64993 0.0
C1861 C 0.13161 0.48717 0.66298 0.0
C1862 C 0.08641 0.4849 0.67888 0.0
H1863 H 0.09884 0.57237 0.72944 0.0
H1864 H 0.10974 0.55086 0.71302 0.0
H1865 H 0.0654 0.49301 0.67969 0.0
H1866 H 0.10283 0.43288 0.66357 0.0
H1867 H 0.08844 0.45091 0.68568 0.0
H1868 H 0.12893 0.50863 0.72223 0.0
C1869 C 0.09518 0.5451 0.72087 0.0
C1870 C 0.07917 0.49642 0.68966 0.0
C1871 C 0.08887 0.5575 0.73006 0.0
C1872 C 0.11103 0.44802 0.66285 0.0
C1873 C 0.10276 0.45835 0.67558 0.0
C1874 C 0.11504 0.50506 0.71272 0.0
C1875 C 0.08287 0.52561 0.72124 0.0
C1876 C 0.0899 0.51254 0.71169 0.0
C1877 C 0.11303 0.47806 0.67601 0.0
C1878 C 0.10458 0.48929 0.68975 0.0
H1879 H 0.04301 0.52568 0.7472 0.0
H1880 H 0.0541 0.50396 0.73157 0.0
H1881 H 0.11629 0.52849 0.74136 0.0
H1882 H 0.15402 0.48462 0.63962 0.0
H1883 H 0.1398 0.50234 0.66218 0.0
C1884 C 0.44611 0.54208 0.69342 0.0
C1885 C 0.44724 0.53025 0.72053 0.0
C1886 C 0.45949 0.56109 0.69221 0.0
C1887 C 0.50749 0.59423 0.70481 0.0
H1888 H 0.49159 0.63124 0.71005 0.0
C1889 C 0.55867 0.67343 0.67473 0.0
C1890 C 0.55115 0.68306 0.65542 0.0
C1891 C 0.54693 0.6552 0.68833 0.0
C1892 C 0.4963 0.62113 0.70808 0.0
H1893 H 0.46326 0.52897 0.76769 0.0
H1894 H 0.48735 0.56251 0.76461 0.0
H1895 H 0.4693 0.59851 0.72411 0.0
H1896 H 0.52552 0.68086 0.63394 0.0
H1897 H 0.50522 0.64916 0.65634 0.0
H1898 H 0.53414 0.61651 0.68636 0.0
C1899 C 0.47581 0.55692 0.74478 0.0
C1900 C 0.48355 0.60241 0.71661 0.0
C1901 C 0.46206 0.53785 0.74664 0.0
C1902 C 0.53171 0.67399 0.64945 0.0
C1903 C 0.52004 0.65578 0.66254 0.0
C1904 C 0.52022 0.61295 0.6956 0.0
C1905 C 0.47456 0.56866 0.71755 0.0
C1906 C 0.48891 0.58875 0.71437 0.0
C1907 C 0.52741 0.64613 0.68251 0.0
C1908 C 0.51466 0.62659 0.69621 0.0
H1909 H 0.43479 0.53663 0.67309 0.0
H1910 H 0.45827 0.56985 0.67089 0.0
H1911 H 0.51187 0.58386 0.70253 0.0
H1912 H 0.5736 0.68013 0.6799 0.0
H1913 H 0.55315 0.64834 0.70381 0.0
C1914 C 0.34618 0.86743 0.64484 0.0
C1915 C 0.33623 0.8772 0.645 0.0
C1916 C 0.36442 0.87567 0.659 0.0
C1917 C 0.40631 0.92108 0.68066 0.0
H1918 H 0.41952 0.8905 0.74222 0.0
C1919 C 0.47989 0.95043 0.74982 0.0
C1920 C 0.48757 0.93854 0.74954 0.0
C1921 C 0.46124 0.94373 0.73881 0.0
C1922 C 0.41617 0.89921 0.72476 0.0
H1923 H 0.33797 0.90353 0.66027 0.0
H1924 H 0.36995 0.918 0.68463 0.0
H1925 H 0.38756 0.87748 0.71942 0.0
H1926 H 0.48158 0.9103 0.73693 0.0
H1927 H 0.44952 0.89883 0.7173 0.0
H1928 H 0.43506 0.94271 0.68549 0.0
C1929 C 0.36355 0.90393 0.67331 0.0
C1930 C 0.3978 0.89173 0.71173 0.0
C1931 C 0.34521 0.89562 0.6593 0.0
C1932 C 0.47619 0.91986 0.73788 0.0
C1933 C 0.45766 0.91321 0.72678 0.0
C1934 C 0.42477 0.92856 0.69357 0.0
C1935 C 0.37332 0.89398 0.6736 0.0
C1936 C 0.39268 0.90247 0.6891 0.0
C1937 C 0.44987 0.925 0.72723 0.0
C1938 C 0.43 0.91762 0.71537 0.0
H1939 H 0.34003 0.85342 0.63338 0.0
H1940 H 0.37167 0.86774 0.65807 0.0
H1941 H 0.40286 0.92968 0.66308 0.0
H1942 H 0.48823 0.96489 0.75872 0.0
H1943 H 0.45568 0.95317 0.73985 0.0
loop_
_geom_bond_atom_site_label_1
_geom_bond_atom_site_label_2
_geom_bond_distance
_geom_bond_site_symmetry_2
_ccdc_geom_bond_type
Co0 N4 2.148 . S
Co0 N10 2.128 . S
Co0 N20 2.194 . S
Co0 O25 2.351 . S
Co0 O26 2.155 . S
Co0 O27 2.096 . S
C1 N4 1.301 . S
C1 N5 1.328 . S
C1 H6 0.930 . S
C2 C3 1.333 . S
C2 N4 1.317 . S
C2 H7 0.930 . S
C3 C2 1.333 . S
C3 N5 1.350 . S
C3 H29 0.931 . S
N4 Co0 2.148 . S
N4 C1 1.301 . S
N4 C2 1.317 . S
N5 C1 1.328 . S
N5 C3 1.350 . S
H6 C1 0.930 . S
H7 C2 0.930 . S
C8 O9 1.224 . S
C8 O27 1.247 . S
O9 C8 1.224 . S
N10 Co0 2.128 . S
N10 C11 1.355 . S
N10 C13 1.311 . S
C11 N10 1.355 . S
C11 C12 1.363 . S
C11 H23 0.929 . S
C12 C11 1.363 . S
C12 N14 1.375 . S
C12 H30 0.931 . S
C13 N10 1.311 . S
C13 N14 1.347 . S
C13 H24 0.929 . S
N14 C12 1.375 . S
N14 C13 1.347 . S
C15 C18 1.365 . S
C15 N20 1.328 . S
C15 H21 0.929 . S
C16 C17 1.362 . S
C16 C19 1.378 . S
C16 H31 0.929 . S
C17 C16 1.362 . S
C17 C18 1.366 . S
C18 C15 1.365 . S
C18 C17 1.366 . S
C18 H32 0.930 . S
C19 C16 1.378 . S
C19 N20 1.315 . S
C19 H22 0.930 . S
N20 Co0 2.194 . S
N20 C15 1.328 . S
N20 C19 1.315 . S
H21 C15 0.929 . S
H22 C19 0.930 . S
H23 C11 0.929 . S
H24 C13 0.929 . S
O25 Co0 2.351 . S
O25 C28 1.244 . S
O26 Co0 2.155 . S
O26 C28 1.240 . S
O27 Co0 2.096 . S
O27 C8 1.247 . S
C28 O25 1.244 . S
C28 O26 1.240 . S
H29 C3 0.931 . S
H30 C12 0.931 . S
H31 C16 0.929 . S
H32 C18 0.930 . S
Co33 N37 2.148 . S
Co33 N43 2.128 . S
Co33 N53 2.194 . S
Co33 O58 2.351 . S
Co33 O59 2.155 . S
Co33 O60 2.096 . S
C34 N37 1.301 . S
C34 N38 1.328 . S
C34 H39 0.930 . S
C35 C36 1.333 . S
C35 N37 1.317 . S
C35 H40 0.930 . S
C36 C35 1.333 . S
C36 N38 1.350 . S
C36 H62 0.931 . S
N37 Co33 2.148 . S
N37 C34 1.301 . S
N37 C35 1.317 . S
N38 C34 1.328 . S
N38 C36 1.350 . S
H39 C34 0.930 . S
H40 C35 0.930 . S
C41 O42 1.224 . S
C41 O60 1.247 . S
O42 C41 1.224 . S
N43 Co33 2.128 . S
N43 C44 1.355 . S
N43 C46 1.311 . S
C44 N43 1.355 . S
C44 C45 1.363 . S
C44 H56 0.929 . S
C45 C44 1.363 . S
C45 N47 1.375 . S
C45 H63 0.931 . S
C46 N43 1.311 . S
C46 N47 1.347 . S
C46 H57 0.929 . S
N47 C45 1.375 . S
N47 C46 1.347 . S
C48 C51 1.365 . S
C48 N53 1.328 . S
C48 H54 0.929 . S
C49 C50 1.362 . S
C49 C52 1.378 . S
C49 H64 0.929 . S
C50 C49 1.362 . S
C50 C51 1.366 . S
C51 C48 1.365 . S
C51 C50 1.366 . S
C51 H65 0.930 . S
C52 C49 1.378 . S
C52 N53 1.315 . S
C52 H55 0.930 . S
N53 Co33 2.194 . S
N53 C48 1.328 . S
N53 C52 1.315 . S
H54 C48 0.929 . S
H55 C52 0.930 . S
H56 C44 0.929 . S
H57 C46 0.929 . S
O58 Co33 2.351 . S
O58 C61 1.244 . S
O59 Co33 2.155 . S
O59 C61 1.240 . S
O60 Co33 2.096 . S
O60 C41 1.247 . S
C61 O58 1.244 . S
C61 O59 1.240 . S
H62 C36 0.931 . S
H63 C45 0.931 . S
H64 C49 0.929 . S
H65 C51 0.930 . S
Co66 N70 2.148 . S
Co66 N76 2.128 . S
Co66 N86 2.194 . S
Co66 O91 2.351 . S
Co66 O92 2.155 . S
Co66 O93 2.096 . S
C67 N70 1.301 . S
C67 N71 1.328 . S
C67 H72 0.930 . S
C68 C69 1.333 . S
C68 N70 1.317 . S
C68 H73 0.930 . S
C69 C68 1.333 . S
C69 N71 1.350 . S
C69 H95 0.931 . S
N70 Co66 2.148 . S
N70 C67 1.301 . S
N70 C68 1.317 . S
N71 C67 1.328 . S
N71 C69 1.350 . S
H72 C67 0.930 . S
H73 C68 0.930 . S
C74 O75 1.224 . S
C74 O93 1.247 . S
O75 C74 1.224 . S
N76 Co66 2.128 . S
N76 C77 1.355 . S
N76 C79 1.311 . S
C77 N76 1.355 . S
C77 C78 1.363 . S
C77 H89 0.929 . S
C78 C77 1.363 . S
C78 N80 1.375 . S
C78 H96 0.931 . S
C79 N76 1.311 . S
C79 N80 1.347 . S
C79 H90 0.929 . S
N80 C78 1.375 . S
N80 C79 1.347 . S
C81 C84 1.365 . S
C81 N86 1.328 . S
C81 H87 0.929 . S
C82 C83 1.362 . S
C82 C85 1.378 . S
C82 H97 0.929 . S
C83 C82 1.362 . S
C83 C84 1.366 . S
C84 C81 1.365 . S
C84 C83 1.366 . S
C84 H98 0.930 . S
C85 C82 1.378 . S
C85 N86 1.315 . S
C85 H88 0.930 . S
N86 Co66 2.194 . S
N86 C81 1.328 . S
N86 C85 1.315 . S
H87 C81 0.929 . S
H88 C85 0.930 . S
H89 C77 0.929 . S
H90 C79 0.929 . S
O91 Co66 2.351 . S
O91 C94 1.244 . S
O92 Co66 2.155 . S
O92 C94 1.240 . S
O93 Co66 2.096 . S
O93 C74 1.247 . S
C94 O91 1.244 . S
C94 O92 1.240 . S
H95 C69 0.931 . S
H96 C78 0.931 . S
H97 C82 0.929 . S
H98 C84 0.930 . S
Co99 N103 2.148 . S
Co99 N109 2.128 . S
Co99 N119 2.194 . S
Co99 O124 2.351 . S
Co99 O125 2.155 . S
Co99 O126 2.096 . S
C100 N103 1.301 . S
C100 N104 1.328 . S
C100 H105 0.930 . S
C101 C102 1.333 . S
C101 N103 1.317 . S
C101 H106 0.930 . S
C102 C101 1.333 . S
C102 N104 1.350 . S
C102 H128 0.931 . S
N103 Co99 2.148 . S
N103 C100 1.301 . S
N103 C101 1.317 . S
N104 C100 1.328 . S
N104 C102 1.350 . S
H105 C100 0.930 . S
H106 C101 0.930 . S
C107 O108 1.224 . S
C107 O126 1.247 . S
O108 C107 1.224 . S
N109 Co99 2.128 . S
N109 C110 1.355 . S
N109 C112 1.311 . S
C110 N109 1.355 . S
C110 C111 1.363 . S
C110 H122 0.929 . S
C111 C110 1.363 . S
C111 N113 1.375 . S
C111 H129 0.931 . S
C112 N109 1.311 . S
C112 N113 1.347 . S
C112 H123 0.929 . S
N113 C111 1.375 . S
N113 C112 1.347 . S
C114 C117 1.365 . S
C114 N119 1.328 . S
C114 H120 0.929 . S
C115 C116 1.362 . S
C115 C118 1.378 . S
C115 H130 0.929 . S
C116 C115 1.362 . S
C116 C117 1.366 . S
C117 C114 1.365 . S
C117 C116 1.366 . S
C117 H131 0.930 . S
C118 C115 1.378 . S
C118 N119 1.315 . S
C118 H121 0.930 . S
N119 Co99 2.194 . S
N119 C114 1.328 . S
N119 C118 1.315 . S
H120 C114 0.929 . S
H121 C118 0.930 . S
H122 C110 0.929 . S
H123 C112 0.929 . S
O124 Co99 2.351 . S
O124 C127 1.244 . S
O125 Co99 2.155 . S
O125 C127 1.240 . S
O126 Co99 2.096 . S
O126 C107 1.247 . S
C127 O124 1.244 . S
C127 O125 1.240 . S
H128 C102 0.931 . S
H129 C111 0.931 . S
H130 C115 0.929 . S
H131 C117 0.930 . S
Co132 N136 2.148 . S
Co132 N142 2.128 . S
Co132 N152 2.194 . S
Co132 O157 2.351 . S
Co132 O158 2.155 . S
Co132 O159 2.096 . S
C133 N136 1.301 . S
C133 N137 1.328 . S
C133 H138 0.930 . S
C134 C135 1.333 . S
C134 N136 1.317 . S
C134 H139 0.930 . S
C135 C134 1.333 . S
C135 N137 1.350 . S
C135 H161 0.931 . S
N136 Co132 2.148 . S
N136 C133 1.301 . S
N136 C134 1.317 . S
N137 C133 1.328 . S
N137 C135 1.350 . S
H138 C133 0.930 . S
H139 C134 0.930 . S
C140 O141 1.224 . S
C140 O159 1.247 . S
O141 C140 1.224 . S
N142 Co132 2.128 . S
N142 C143 1.355 . S
N142 C145 1.311 . S
C143 N142 1.355 . S
C143 C144 1.363 . S
C143 H155 0.929 . S
C144 C143 1.363 . S
C144 N146 1.375 . S
C144 H162 0.931 . S
C145 N142 1.311 . S
C145 N146 1.347 . S
C145 H156 0.929 . S
N146 C144 1.375 . S
N146 C145 1.347 . S
C147 C150 1.365 . S
C147 N152 1.328 . S
C147 H153 0.929 . S
C148 C149 1.362 . S
C148 C151 1.378 . S
C148 H163 0.929 . S
C149 C148 1.362 . S
C149 C150 1.366 . S
C150 C147 1.365 . S
C150 C149 1.366 . S
C150 H164 0.930 . S
C151 C148 1.378 . S
C151 N152 1.315 . S
C151 H154 0.930 . S
N152 Co132 2.194 . S
N152 C147 1.328 . S
N152 C151 1.315 . S
H153 C147 0.929 . S
H154 C151 0.930 . S
H155 C143 0.929 . S
H156 C145 0.929 . S
O157 Co132 2.351 . S
O157 C160 1.244 . S
O158 Co132 2.155 . S
O158 C160 1.240 . S
O159 Co132 2.096 . S
O159 C140 1.247 . S
C160 O157 1.244 . S
C160 O158 1.240 . S
H161 C135 0.931 . S
H162 C144 0.931 . S
H163 C148 0.929 . S
H164 C150 0.930 . S
Co165 N169 2.148 . S
Co165 N175 2.128 . S
Co165 N185 2.194 . S
Co165 O190 2.351 . S
Co165 O191 2.155 . S
Co165 O192 2.096 . S
C166 N169 1.301 . S
C166 N170 1.328 . S
C166 H171 0.930 . S
C167 C168 1.333 . S
C167 N169 1.317 . S
C167 H172 0.930 . S
C168 C167 1.333 . S
C168 N170 1.350 . S
C168 H194 0.931 . S
N169 Co165 2.148 . S
N169 C166 1.301 . S
N169 C167 1.317 . S
N170 C166 1.328 . S
N170 C168 1.350 . S
H171 C166 0.930 . S
H172 C167 0.930 . S
C173 O174 1.224 . S
C173 O192 1.247 . S
O174 C173 1.224 . S
N175 Co165 2.128 . S
N175 C176 1.355 . S
N175 C178 1.311 . S
C176 N175 1.355 . S
C176 C177 1.363 . S
C176 H188 0.929 . S
C177 C176 1.363 . S
C177 N179 1.375 . S
C177 H195 0.931 . S
C178 N175 1.311 . S
C178 N179 1.347 . S
C178 H189 0.929 . S
N179 C177 1.375 . S
N179 C178 1.347 . S
C180 C183 1.365 . S
C180 N185 1.328 . S
C180 H186 0.929 . S
C181 C182 1.362 . S
C181 C184 1.378 . S
C181 H196 0.929 . S
C182 C181 1.362 . S
C182 C183 1.366 . S
C183 C180 1.365 . S
C183 C182 1.366 . S
C183 H197 0.930 . S
C184 C181 1.378 . S
C184 N185 1.315 . S
C184 H187 0.930 . S
N185 Co165 2.194 . S
N185 C180 1.328 . S
N185 C184 1.315 . S
H186 C180 0.929 . S
H187 C184 0.930 . S
H188 C176 0.929 . S
H189 C178 0.929 . S
O190 Co165 2.351 . S
O190 C193 1.244 . S
O191 Co165 2.155 . S
O191 C193 1.240 . S
O192 Co165 2.096 . S
O192 C173 1.247 . S
C193 O190 1.244 . S
C193 O191 1.240 . S
H194 C168 0.931 . S
H195 C177 0.931 . S
H196 C181 0.929 . S
H197 C183 0.930 . S
Co198 N202 2.148 . S
Co198 N208 2.128 . S
Co198 N218 2.194 . S
Co198 O223 2.351 . S
Co198 O224 2.155 . S
Co198 O225 2.096 . S
C199 N202 1.301 . S
C199 N203 1.328 . S
C199 H204 0.930 . S
C200 C201 1.333 . S
C200 N202 1.317 . S
C200 H205 0.930 . S
C201 C200 1.333 . S
C201 N203 1.350 . S
C201 H227 0.931 . S
N202 Co198 2.148 . S
N202 C199 1.301 . S
N202 C200 1.317 . S
N203 C199 1.328 . S
N203 C201 1.350 . S
H204 C199 0.930 . S
H205 C200 0.930 . S
C206 O207 1.224 . S
C206 O225 1.247 . S
O207 C206 1.224 . S
N208 Co198 2.128 . S
N208 C209 1.355 . S
N208 C211 1.311 . S
C209 N208 1.355 . S
C209 C210 1.363 . S
C209 H221 0.929 . S
C210 C209 1.363 . S
C210 N212 1.375 . S
C210 H228 0.931 . S
C211 N208 1.311 . S
C211 N212 1.347 . S
C211 H222 0.929 . S
N212 C210 1.375 . S
N212 C211 1.347 . S
C213 C216 1.365 . S
C213 N218 1.328 . S
C213 H219 0.929 . S
C214 C215 1.362 . S
C214 C217 1.378 . S
C214 H229 0.929 . S
C215 C214 1.362 . S
C215 C216 1.366 . S
C216 C213 1.365 . S
C216 C215 1.366 . S
C216 H230 0.930 . S
C217 C214 1.378 . S
C217 N218 1.315 . S
C217 H220 0.930 . S
N218 Co198 2.194 . S
N218 C213 1.328 . S
N218 C217 1.315 . S
H219 C213 0.929 . S
H220 C217 0.930 . S
H221 C209 0.929 . S
H222 C211 0.929 . S
O223 Co198 2.351 . S
O223 C226 1.244 . S
O224 Co198 2.155 . S
O224 C226 1.240 . S
O225 Co198 2.096 . S
O225 C206 1.247 . S
C226 O223 1.244 . S
C226 O224 1.240 . S
H227 C201 0.931 . S
H228 C210 0.931 . S
H229 C214 0.929 . S
H230 C216 0.930 . S
Co231 N235 2.148 . S
Co231 N241 2.128 . S
Co231 N251 2.194 . S
Co231 O256 2.351 . S
Co231 O257 2.155 . S
Co231 O258 2.096 . S
C232 N235 1.301 . S
C232 N236 1.328 . S
C232 H237 0.930 . S
C233 C234 1.333 . S
C233 N235 1.317 . S
C233 H238 0.930 . S
C234 C233 1.333 . S
C234 N236 1.350 . S
C234 H260 0.931 . S
N235 Co231 2.148 . S
N235 C232 1.301 . S
N235 C233 1.317 . S
N236 C232 1.328 . S
N236 C234 1.350 . S
H237 C232 0.930 . S
H238 C233 0.930 . S
C239 O240 1.224 . S
C239 O258 1.247 . S
O240 C239 1.224 . S
N241 Co231 2.128 . S
N241 C242 1.355 . S
N241 C244 1.311 . S
C242 N241 1.355 . S
C242 C243 1.363 . S
C242 H254 0.929 . S
C243 C242 1.363 . S
C243 N245 1.375 . S
C243 H261 0.931 . S
C244 N241 1.311 . S
C244 N245 1.347 . S
C244 H255 0.929 . S
N245 C243 1.375 . S
N245 C244 1.347 . S
C246 C249 1.365 . S
C246 N251 1.328 . S
C246 H252 0.929 . S
C247 C248 1.362 . S
C247 C250 1.378 . S
C247 H262 0.929 . S
C248 C247 1.362 . S
C248 C249 1.366 . S
C249 C246 1.365 . S
C249 C248 1.366 . S
C249 H263 0.930 . S
C250 C247 1.378 . S
C250 N251 1.315 . S
C250 H253 0.930 . S
N251 Co231 2.194 . S
N251 C246 1.328 . S
N251 C250 1.315 . S
H252 C246 0.929 . S
H253 C250 0.930 . S
H254 C242 0.929 . S
H255 C244 0.929 . S
O256 Co231 2.351 . S
O256 C259 1.244 . S
O257 Co231 2.155 . S
O257 C259 1.240 . S
O258 Co231 2.096 . S
O258 C239 1.247 . S
C259 O256 1.244 . S
C259 O257 1.240 . S
H260 C234 0.931 . S
H261 C243 0.931 . S
H262 C247 0.929 . S
H263 C249 0.930 . S
Co264 N268 2.148 . S
Co264 N274 2.128 . S
Co264 N284 2.194 . S
Co264 O289 2.351 . S
Co264 O290 2.155 . S
Co264 O291 2.096 . S
C265 N268 1.301 . S
C265 N269 1.328 . S
C265 H270 0.930 . S
C266 C267 1.333 . S
C266 N268 1.317 . S
C266 H271 0.930 . S
C267 C266 1.333 . S
C267 N269 1.350 . S
C267 H293 0.931 . S
N268 Co264 2.148 . S
N268 C265 1.301 . S
N268 C266 1.317 . S
N269 C265 1.328 . S
N269 C267 1.350 . S
H270 C265 0.930 . S
H271 C266 0.930 . S
C272 O273 1.224 . S
C272 O291 1.247 . S
O273 C272 1.224 . S
N274 Co264 2.128 . S
N274 C275 1.355 . S
N274 C277 1.311 . S
C275 N274 1.355 . S
C275 C276 1.363 . S
C275 H287 0.929 . S
C276 C275 1.363 . S
C276 N278 1.375 . S
C276 H294 0.931 . S
C277 N274 1.311 . S
C277 N278 1.347 . S
C277 H288 0.929 . S
N278 C276 1.375 . S
N278 C277 1.347 . S
C279 C282 1.365 . S
C279 N284 1.328 . S
C279 H285 0.929 . S
C280 C281 1.362 . S
C280 C283 1.378 . S
C280 H295 0.929 . S
C281 C280 1.362 . S
C281 C282 1.366 . S
C282 C279 1.365 . S
C282 C281 1.366 . S
C282 H296 0.930 . S
C283 C280 1.378 . S
C283 N284 1.315 . S
C283 H286 0.930 . S
N284 Co264 2.194 . S
N284 C279 1.328 . S
N284 C283 1.315 . S
H285 C279 0.929 . S
H286 C283 0.930 . S
H287 C275 0.929 . S
H288 C277 0.929 . S
O289 Co264 2.351 . S
O289 C292 1.244 . S
O290 Co264 2.155 . S
O290 C292 1.240 . S
O291 Co264 2.096 . S
O291 C272 1.247 . S
C292 O289 1.244 . S
C292 O290 1.240 . S
H293 C267 0.931 . S
H294 C276 0.931 . S
H295 C280 0.929 . S
H296 C282 0.930 . S
Co297 N301 2.148 . S
Co297 N307 2.128 . S
Co297 N317 2.194 . S
Co297 O322 2.351 . S
Co297 O323 2.155 . S
Co297 O324 2.096 . S
C298 N301 1.301 . S
C298 N302 1.328 . S
C298 H303 0.930 . S
C299 C300 1.333 . S
C299 N301 1.317 . S
C299 H304 0.930 . S
C300 C299 1.333 . S
C300 N302 1.350 . S
C300 H326 0.931 . S
N301 Co297 2.148 . S
N301 C298 1.301 . S
N301 C299 1.317 . S
N302 C298 1.328 . S
N302 C300 1.350 . S
H303 C298 0.930 . S
H304 C299 0.930 . S
C305 O306 1.224 . S
C305 O324 1.247 . S
O306 C305 1.224 . S
N307 Co297 2.128 . S
N307 C308 1.355 . S
N307 C310 1.311 . S
C308 N307 1.355 . S
C308 C309 1.363 . S
C308 H320 0.929 . S
C309 C308 1.363 . S
C309 N311 1.375 . S
C309 H327 0.931 . S
C310 N307 1.311 . S
C310 N311 1.347 . S
C310 H321 0.929 . S
N311 C309 1.375 . S
N311 C310 1.347 . S
C312 C315 1.365 . S
C312 N317 1.328 . S
C312 H318 0.929 . S
C313 C314 1.362 . S
C313 C316 1.378 . S
C313 H328 0.929 . S
C314 C313 1.362 . S
C314 C315 1.366 . S
C315 C312 1.365 . S
C315 C314 1.366 . S
C315 H329 0.930 . S
C316 C313 1.378 . S
C316 N317 1.315 . S
C316 H319 0.930 . S
N317 Co297 2.194 . S
N317 C312 1.328 . S
N317 C316 1.315 . S
H318 C312 0.929 . S
H319 C316 0.930 . S
H320 C308 0.929 . S
H321 C310 0.929 . S
O322 Co297 2.351 . S
O322 C325 1.244 . S
O323 Co297 2.155 . S
O323 C325 1.240 . S
O324 Co297 2.096 . S
O324 C305 1.247 . S
C325 O322 1.244 . S
C325 O323 1.240 . S
H326 C300 0.931 . S
H327 C309 0.931 . S
H328 C313 0.929 . S
H329 C315 0.930 . S
Co330 N334 2.148 . S
Co330 N340 2.128 . S
Co330 N350 2.194 . S
Co330 O355 2.351 . S
Co330 O356 2.155 . S
Co330 O357 2.096 . S
C331 N334 1.301 . S
C331 N335 1.328 . S
C331 H336 0.930 . S
C332 C333 1.333 . S
C332 N334 1.317 . S
C332 H337 0.930 . S
C333 C332 1.333 . S
C333 N335 1.350 . S
C333 H359 0.931 . S
N334 Co330 2.148 . S
N334 C331 1.301 . S
N334 C332 1.317 . S
N335 C331 1.328 . S
N335 C333 1.350 . S
H336 C331 0.930 . S
H337 C332 0.930 . S
C338 O339 1.224 . S
C338 O357 1.247 . S
O339 C338 1.224 . S
N340 Co330 2.128 . S
N340 C341 1.355 . S
N340 C343 1.311 . S
C341 N340 1.355 . S
C341 C342 1.363 . S
C341 H353 0.929 . S
C342 C341 1.363 . S
C342 N344 1.375 . S
C342 H360 0.931 . S
C343 N340 1.311 . S
C343 N344 1.347 . S
C343 H354 0.929 . S
N344 C342 1.375 . S
N344 C343 1.347 . S
C345 C348 1.365 . S
C345 N350 1.328 . S
C345 H351 0.929 . S
C346 C347 1.362 . S
C346 C349 1.378 . S
C346 H361 0.929 . S
C347 C346 1.362 . S
C347 C348 1.366 . S
C348 C345 1.365 . S
C348 C347 1.366 . S
C348 H362 0.930 . S
C349 C346 1.378 . S
C349 N350 1.315 . S
C349 H352 0.930 . S
N350 Co330 2.194 . S
N350 C345 1.328 . S
N350 C349 1.315 . S
H351 C345 0.929 . S
H352 C349 0.930 . S
H353 C341 0.929 . S
H354 C343 0.929 . S
O355 Co330 2.351 . S
O355 C358 1.244 . S
O356 Co330 2.155 . S
O356 C358 1.240 . S
O357 Co330 2.096 . S
O357 C338 1.247 . S
C358 O355 1.244 . S
C358 O356 1.240 . S
H359 C333 0.931 . S
H360 C342 0.931 . S
H361 C346 0.929 . S
H362 C348 0.930 . S
Co363 N367 2.148 . S
Co363 N373 2.128 . S
Co363 N383 2.194 . S
Co363 O388 2.351 . S
Co363 O389 2.155 . S
Co363 O390 2.096 . S
C364 N367 1.301 . S
C364 N368 1.328 . S
C364 H369 0.930 . S
C365 C366 1.333 . S
C365 N367 1.317 . S
C365 H370 0.930 . S
C366 C365 1.333 . S
C366 N368 1.350 . S
C366 H392 0.931 . S
N367 Co363 2.148 . S
N367 C364 1.301 . S
N367 C365 1.317 . S
N368 C364 1.328 . S
N368 C366 1.350 . S
H369 C364 0.930 . S
H370 C365 0.930 . S
C371 O372 1.224 . S
C371 O390 1.247 . S
O372 C371 1.224 . S
N373 Co363 2.128 . S
N373 C374 1.355 . S
N373 C376 1.311 . S
C374 N373 1.355 . S
C374 C375 1.363 . S
C374 H386 0.929 . S
C375 C374 1.363 . S
C375 N377 1.375 . S
C375 H393 0.931 . S
C376 N373 1.311 . S
C376 N377 1.347 . S
C376 H387 0.929 . S
N377 C375 1.375 . S
N377 C376 1.347 . S
C378 C381 1.365 . S
C378 N383 1.328 . S
C378 H384 0.929 . S
C379 C380 1.362 . S
C379 C382 1.378 . S
C379 H394 0.929 . S
C380 C379 1.362 . S
C380 C381 1.366 . S
C381 C378 1.365 . S
C381 C380 1.366 . S
C381 H395 0.930 . S
C382 C379 1.378 . S
C382 N383 1.315 . S
C382 H385 0.930 . S
N383 Co363 2.194 . S
N383 C378 1.328 . S
N383 C382 1.315 . S
H384 C378 0.929 . S
H385 C382 0.930 . S
H386 C374 0.929 . S
H387 C376 0.929 . S
O388 Co363 2.351 . S
O388 C391 1.244 . S
O389 Co363 2.155 . S
O389 C391 1.240 . S
O390 Co363 2.096 . S
O390 C371 1.247 . S
C391 O388 1.244 . S
C391 O389 1.240 . S
H392 C366 0.931 . S
H393 C375 0.931 . S
H394 C379 0.929 . S
H395 C381 0.930 . S
Co396 N400 2.148 . S
Co396 N406 2.128 . S
Co396 N416 2.194 . S
Co396 O421 2.351 . S
Co396 O422 2.155 . S
Co396 O423 2.096 . S
C397 N400 1.301 . S
C397 N401 1.328 . S
C397 H402 0.930 . S
C398 C399 1.333 . S
C398 N400 1.317 . S
C398 H403 0.930 . S
C399 C398 1.333 . S
C399 N401 1.350 . S
C399 H425 0.931 . S
N400 Co396 2.148 . S
N400 C397 1.301 . S
N400 C398 1.317 . S
N401 C397 1.328 . S
N401 C399 1.350 . S
H402 C397 0.930 . S
H403 C398 0.930 . S
C404 O405 1.224 . S
C404 O423 1.247 . S
O405 C404 1.224 . S
N406 Co396 2.128 . S
N406 C407 1.355 . S
N406 C409 1.311 . S
C407 N406 1.355 . S
C407 C408 1.363 . S
C407 H419 0.929 . S
C408 C407 1.363 . S
C408 N410 1.375 . S
C408 H426 0.931 . S
C409 N406 1.311 . S
C409 N410 1.347 . S
C409 H420 0.929 . S
N410 C408 1.375 . S
N410 C409 1.347 . S
C411 C414 1.365 . S
C411 N416 1.328 . S
C411 H417 0.929 . S
C412 C413 1.362 . S
C412 C415 1.378 . S
C412 H427 0.929 . S
C413 C412 1.362 . S
C413 C414 1.366 . S
C414 C411 1.365 . S
C414 C413 1.366 . S
C414 H428 0.930 . S
C415 C412 1.378 . S
C415 N416 1.315 . S
C415 H418 0.930 . S
N416 Co396 2.194 . S
N416 C411 1.328 . S
N416 C415 1.315 . S
H417 C411 0.929 . S
H418 C415 0.930 . S
H419 C407 0.929 . S
H420 C409 0.929 . S
O421 Co396 2.351 . S
O421 C424 1.244 . S
O422 Co396 2.155 . S
O422 C424 1.240 . S
O423 Co396 2.096 . S
O423 C404 1.247 . S
C424 O421 1.244 . S
C424 O422 1.240 . S
H425 C399 0.931 . S
H426 C408 0.931 . S
H427 C412 0.929 . S
H428 C414 0.930 . S
Co429 N433 2.148 . S
Co429 N439 2.128 . S
Co429 N449 2.194 . S
Co429 O454 2.351 . S
Co429 O455 2.155 . S
Co429 O456 2.096 . S
C430 N433 1.301 . S
C430 N434 1.328 . S
C430 H435 0.930 . S
C431 C432 1.333 . S
C431 N433 1.317 . S
C431 H436 0.930 . S
C432 C431 1.333 . S
C432 N434 1.350 . S
C432 H458 0.931 . S
N433 Co429 2.148 . S
N433 C430 1.301 . S
N433 C431 1.317 . S
N434 C430 1.328 . S
N434 C432 1.350 . S
H435 C430 0.930 . S
H436 C431 0.930 . S
C437 O438 1.224 . S
C437 O456 1.247 . S
O438 C437 1.224 . S
N439 Co429 2.128 . S
N439 C440 1.355 . S
N439 C442 1.311 . S
C440 N439 1.355 . S
C440 C441 1.363 . S
C440 H452 0.929 . S
C441 C440 1.363 . S
C441 N443 1.375 . S
C441 H459 0.931 . S
C442 N439 1.311 . S
C442 N443 1.347 . S
C442 H453 0.929 . S
N443 C441 1.375 . S
N443 C442 1.347 . S
C444 C447 1.365 . S
C444 N449 1.328 . S
C444 H450 0.929 . S
C445 C446 1.362 . S
C445 C448 1.378 . S
C445 H460 0.929 . S
C446 C445 1.362 . S
C446 C447 1.366 . S
C447 C444 1.365 . S
C447 C446 1.366 . S
C447 H461 0.930 . S
C448 C445 1.378 . S
C448 N449 1.315 . S
C448 H451 0.930 . S
N449 Co429 2.194 . S
N449 C444 1.328 . S
N449 C448 1.315 . S
H450 C444 0.929 . S
H451 C448 0.930 . S
H452 C440 0.929 . S
H453 C442 0.929 . S
O454 Co429 2.351 . S
O454 C457 1.244 . S
O455 Co429 2.155 . S
O455 C457 1.240 . S
O456 Co429 2.096 . S
O456 C437 1.247 . S
C457 O454 1.244 . S
C457 O455 1.240 . S
H458 C432 0.931 . S
H459 C441 0.931 . S
H460 C445 0.929 . S
H461 C447 0.930 . S
Co462 N466 2.148 . S
Co462 N472 2.128 . S
Co462 N482 2.194 . S
Co462 O487 2.351 . S
Co462 O488 2.155 . S
Co462 O489 2.096 . S
C463 N466 1.301 . S
C463 N467 1.328 . S
C463 H468 0.930 . S
C464 C465 1.333 . S
C464 N466 1.317 . S
C464 H469 0.930 . S
C465 C464 1.333 . S
C465 N467 1.350 . S
C465 H491 0.931 . S
N466 Co462 2.148 . S
N466 C463 1.301 . S
N466 C464 1.317 . S
N467 C463 1.328 . S
N467 C465 1.350 . S
H468 C463 0.930 . S
H469 C464 0.930 . S
C470 O471 1.224 . S
C470 O489 1.247 . S
O471 C470 1.224 . S
N472 Co462 2.128 . S
N472 C473 1.355 . S
N472 C475 1.311 . S
C473 N472 1.355 . S
C473 C474 1.363 . S
C473 H485 0.929 . S
C474 C473 1.363 . S
C474 N476 1.375 . S
C474 H492 0.931 . S
C475 N472 1.311 . S
C475 N476 1.347 . S
C475 H486 0.929 . S
N476 C474 1.375 . S
N476 C475 1.347 . S
C477 C480 1.365 . S
C477 N482 1.328 . S
C477 H483 0.929 . S
C478 C479 1.362 . S
C478 C481 1.378 . S
C478 H493 0.929 . S
C479 C478 1.362 . S
C479 C480 1.366 . S
C480 C477 1.365 . S
C480 C479 1.366 . S
C480 H494 0.930 . S
C481 C478 1.378 . S
C481 N482 1.315 . S
C481 H484 0.930 . S
N482 Co462 2.194 . S
N482 C477 1.328 . S
N482 C481 1.315 . S
H483 C477 0.929 . S
H484 C481 0.930 . S
H485 C473 0.929 . S
H486 C475 0.929 . S
O487 Co462 2.351 . S
O487 C490 1.244 . S
O488 Co462 2.155 . S
O488 C490 1.240 . S
O489 Co462 2.096 . S
O489 C470 1.247 . S
C490 O487 1.244 . S
C490 O488 1.240 . S
H491 C465 0.931 . S
H492 C474 0.931 . S
H493 C478 0.929 . S
H494 C480 0.930 . S
Co495 N499 2.148 . S
Co495 N505 2.128 . S
Co495 N515 2.194 . S
Co495 O520 2.351 . S
Co495 O521 2.155 . S
Co495 O522 2.096 . S
C496 N499 1.301 . S
C496 N500 1.328 . S
C496 H501 0.930 . S
C497 C498 1.333 . S
C497 N499 1.317 . S
C497 H502 0.930 . S
C498 C497 1.333 . S
C498 N500 1.350 . S
C498 H524 0.931 . S
N499 Co495 2.148 . S
N499 C496 1.301 . S
N499 C497 1.317 . S
N500 C496 1.328 . S
N500 C498 1.350 . S
H501 C496 0.930 . S
H502 C497 0.930 . S
C503 O504 1.224 . S
C503 O522 1.247 . S
O504 C503 1.224 . S
N505 Co495 2.128 . S
N505 C506 1.355 . S
N505 C508 1.311 . S
C506 N505 1.355 . S
C506 C507 1.363 . S
C506 H518 0.929 . S
C507 C506 1.363 . S
C507 N509 1.375 . S
C507 H525 0.931 . S
C508 N505 1.311 . S
C508 N509 1.347 . S
C508 H519 0.929 . S
N509 C507 1.375 . S
N509 C508 1.347 . S
C510 C513 1.365 . S
C510 N515 1.328 . S
C510 H516 0.929 . S
C511 C512 1.362 . S
C511 C514 1.378 . S
C511 H526 0.929 . S
C512 C511 1.362 . S
C512 C513 1.366 . S
C513 C510 1.365 . S
C513 C512 1.366 . S
C513 H527 0.930 . S
C514 C511 1.378 . S
C514 N515 1.315 . S
C514 H517 0.930 . S
N515 Co495 2.194 . S
N515 C510 1.328 . S
N515 C514 1.315 . S
H516 C510 0.929 . S
H517 C514 0.930 . S
H518 C506 0.929 . S
H519 C508 0.929 . S
O520 Co495 2.351 . S
O520 C523 1.244 . S
O521 Co495 2.155 . S
O521 C523 1.240 . S
O522 Co495 2.096 . S
O522 C503 1.247 . S
C523 O520 1.244 . S
C523 O521 1.240 . S
H524 C498 0.931 . S
H525 C507 0.931 . S
H526 C511 0.929 . S
H527 C513 0.930 . S
Co528 N532 2.148 . S
Co528 N538 2.128 . S
Co528 N548 2.194 . S
Co528 O553 2.351 . S
Co528 O554 2.155 . S
Co528 O555 2.096 . S
C529 N532 1.301 . S
C529 N533 1.328 . S
C529 H534 0.930 . S
C530 C531 1.333 . S
C530 N532 1.317 . S
C530 H535 0.930 . S
C531 C530 1.333 . S
C531 N533 1.350 . S
C531 H557 0.931 . S
N532 Co528 2.148 . S
N532 C529 1.301 . S
N532 C530 1.317 . S
N533 C529 1.328 . S
N533 C531 1.350 . S
H534 C529 0.930 . S
H535 C530 0.930 . S
C536 O537 1.224 . S
C536 O555 1.247 . S
O537 C536 1.224 . S
N538 Co528 2.128 . S
N538 C539 1.355 . S
N538 C541 1.311 . S
C539 N538 1.355 . S
C539 C540 1.363 . S
C539 H551 0.929 . S
C540 C539 1.363 . S
C540 N542 1.375 . S
C540 H558 0.931 . S
C541 N538 1.311 . S
C541 N542 1.347 . S
C541 H552 0.929 . S
N542 C540 1.375 . S
N542 C541 1.347 . S
C543 C546 1.365 . S
C543 N548 1.328 . S
C543 H549 0.929 . S
C544 C545 1.362 . S
C544 C547 1.378 . S
C544 H559 0.929 . S
C545 C544 1.362 . S
C545 C546 1.366 . S
C546 C543 1.365 . S
C546 C545 1.366 . S
C546 H560 0.930 . S
C547 C544 1.378 . S
C547 N548 1.315 . S
C547 H550 0.930 . S
N548 Co528 2.194 . S
N548 C543 1.328 . S
N548 C547 1.315 . S
H549 C543 0.929 . S
H550 C547 0.930 . S
H551 C539 0.929 . S
H552 C541 0.929 . S
O553 Co528 2.351 . S
O553 C556 1.244 . S
O554 Co528 2.155 . S
O554 C556 1.240 . S
O555 Co528 2.096 . S
O555 C536 1.247 . S
C556 O553 1.244 . S
C556 O554 1.240 . S
H557 C531 0.931 . S
H558 C540 0.931 . S
H559 C544 0.929 . S
H560 C546 0.930 . S
Co561 N565 2.148 . S
Co561 N571 2.128 . S
Co561 N581 2.194 . S
Co561 O586 2.351 . S
Co561 O587 2.155 . S
Co561 O588 2.096 . S
C562 N565 1.301 . S
C562 N566 1.328 . S
C562 H567 0.930 . S
C563 C564 1.333 . S
C563 N565 1.317 . S
C563 H568 0.930 . S
C564 C563 1.333 . S
C564 N566 1.350 . S
C564 H590 0.931 . S
N565 Co561 2.148 . S
N565 C562 1.301 . S
N565 C563 1.317 . S
N566 C562 1.328 . S
N566 C564 1.350 . S
H567 C562 0.930 . S
H568 C563 0.930 . S
C569 O570 1.224 . S
C569 O588 1.247 . S
O570 C569 1.224 . S
N571 Co561 2.128 . S
N571 C572 1.355 . S
N571 C574 1.311 . S
C572 N571 1.355 . S
C572 C573 1.363 . S
C572 H584 0.929 . S
C573 C572 1.363 . S
C573 N575 1.375 . S
C573 H591 0.931 . S
C574 N571 1.311 . S
C574 N575 1.347 . S
C574 H585 0.929 . S
N575 C573 1.375 . S
N575 C574 1.347 . S
C576 C579 1.365 . S
C576 N581 1.328 . S
C576 H582 0.929 . S
C577 C578 1.362 . S
C577 C580 1.378 . S
C577 H592 0.929 . S
C578 C577 1.362 . S
C578 C579 1.366 . S
C579 C576 1.365 . S
C579 C578 1.366 . S
C579 H593 0.930 . S
C580 C577 1.378 . S
C580 N581 1.315 . S
C580 H583 0.930 . S
N581 Co561 2.194 . S
N581 C576 1.328 . S
N581 C580 1.315 . S
H582 C576 0.929 . S
H583 C580 0.930 . S
H584 C572 0.929 . S
H585 C574 0.929 . S
O586 Co561 2.351 . S
O586 C589 1.244 . S
O587 Co561 2.155 . S
O587 C589 1.240 . S
O588 Co561 2.096 . S
O588 C569 1.247 . S
C589 O586 1.244 . S
C589 O587 1.240 . S
H590 C564 0.931 . S
H591 C573 0.931 . S
H592 C577 0.929 . S
H593 C579 0.930 . S
C594 C595 1.349 . S
C594 C596 1.327 . S
C594 H619 0.950 . S
C595 C594 1.349 . S
C595 C611 1.349 . S
C596 C594 1.327 . S
C596 C615 1.429 . S
C596 H620 0.950 . S
C597 C614 1.574 . S
C597 C616 1.368 . S
C597 H621 0.949 . S
H598 C602 0.949 . S
C599 C600 1.349 . S
C599 C601 1.327 . S
C599 H622 0.950 . S
C600 C599 1.349 . S
C600 C612 1.349 . S
C601 C599 1.327 . S
C601 C617 1.429 . S
C601 H623 0.950 . S
C602 H598 0.949 . S
C602 C610 1.574 . S
C602 C618 1.368 . S
H603 C611 0.950 . S
H604 C609 0.950 . S
H605 C610 0.949 . S
H606 C612 0.950 . S
H607 C613 0.950 . S
H608 C614 0.949 . S
C609 H604 0.950 . S
C609 C611 1.327 . S
C609 C615 1.429 . S
C610 C602 1.574 . S
C610 H605 0.949 . S
C610 C616 1.368 . S
C611 C595 1.349 . S
C611 H603 0.950 . S
C611 C609 1.327 . S
C612 C600 1.349 . S
C612 H606 0.950 . S
C612 C613 1.327 . S
C613 H607 0.950 . S
C613 C612 1.327 . S
C613 C617 1.429 . S
C614 C597 1.574 . S
C614 H608 0.949 . S
C614 C618 1.368 . S
C615 C596 1.429 . S
C615 C609 1.429 . S
C615 C616 1.523 . S
C616 C597 1.368 . S
C616 C610 1.368 . S
C616 C615 1.523 . S
C617 C601 1.429 . S
C617 C613 1.429 . S
C617 C618 1.523 . S
C618 C602 1.368 . S
C618 C614 1.368 . S
C618 C617 1.523 . S
H619 C594 0.950 . S
H620 C596 0.950 . S
H621 C597 0.949 . S
H622 C599 0.950 . S
H623 C601 0.950 . S
C624 C625 1.349 . S
C624 C626 1.368 . S
C624 H649 0.950 . S
C625 C624 1.349 . S
C625 C641 1.349 . S
C626 C624 1.368 . S
C626 C645 1.423 1_565 S
C626 H650 0.915 1_565 S
C627 C644 1.574 . S
C627 C646 1.368 . S
C627 H651 0.949 . S
H628 C632 0.949 . S
C629 C630 1.349 . S
C629 C631 1.327 . S
C629 H652 0.950 . S
C630 C629 1.349 . S
C630 C642 1.349 . S
C631 C629 1.327 . S
C631 C647 1.429 . S
C631 H653 0.950 . S
C632 H628 0.949 . S
C632 C640 1.574 . S
C632 C648 1.368 . S
H633 C641 0.950 . S
H634 C639 0.951 . S
H635 C640 0.949 . S
H636 C642 0.950 . S
H637 C643 0.950 . S
H638 C644 0.949 . S
C639 H634 0.951 . S
C639 C641 1.327 . S
C639 C645 1.429 1_565 S
C640 C632 1.574 . S
C640 H635 0.949 . S
C640 C646 1.368 . S
C641 C625 1.349 . S
C641 H633 0.950 . S
C641 C639 1.327 . S
C642 C630 1.349 . S
C642 H636 0.950 . S
C642 C643 1.327 . S
C643 H637 0.950 . S
C643 C642 1.327 . S
C643 C647 1.429 . S
C644 C627 1.574 . S
C644 H638 0.949 . S
C644 C648 1.368 . S
C645 C626 1.423 1_545 S
C645 C639 1.429 1_545 S
C645 C646 1.523 . S
C646 C627 1.368 . S
C646 C640 1.368 . S
C646 C645 1.523 . S
C647 C631 1.429 . S
C647 C643 1.429 . S
C647 C648 1.523 . S
C648 C632 1.368 . S
C648 C644 1.368 . S
C648 C647 1.523 . S
H649 C624 0.950 . S
H650 C626 0.915 1_545 S
H651 C627 0.949 . S
H652 C629 0.950 . S
H653 C631 0.950 . S
C654 C655 1.349 . S
C654 C656 1.327 1_455 S
C654 H679 0.950 . S
C655 C654 1.349 . S
C655 C671 1.349 . S
C656 C654 1.327 1_655 S
C656 C675 1.429 . S
C656 H680 0.950 . S
C657 C674 1.574 . S
C657 C676 1.368 . S
C657 H681 0.949 . S
H658 C662 0.949 . S
C659 C660 1.349 . S
C659 C661 1.327 . S
C659 H682 0.950 . S
C660 C659 1.349 . S
C660 C672 1.349 . S
C661 C659 1.327 . S
C661 C677 1.429 . S
C661 H683 0.950 . S
C662 H658 0.949 . S
C662 C670 1.574 . S
C662 C678 1.368 . S
H663 C671 0.950 . S
H664 C669 0.950 . S
H665 C670 0.949 . S
H666 C672 0.950 . S
H667 C673 0.950 . S
H668 C674 0.949 . S
C669 H664 0.950 . S
C669 C671 1.327 . S
C669 C675 1.429 1_455 S
C670 C662 1.574 . S
C670 H665 0.949 . S
C670 C676 1.368 . S
C671 C655 1.349 . S
C671 H663 0.950 . S
C671 C669 1.327 . S
C672 C660 1.349 . S
C672 H666 0.950 . S
C672 C673 1.327 . S
C673 H667 0.950 . S
C673 C672 1.327 . S
C673 C677 1.429 . S
C674 C657 1.574 . S
C674 H668 0.949 . S
C674 C678 1.368 . S
C675 C656 1.429 . S
C675 C669 1.429 1_655 S
C675 C676 1.523 . S
C676 C657 1.368 . S
C676 C670 1.368 . S
C676 C675 1.523 . S
C677 C661 1.429 . S
C677 C673 1.429 . S
C677 C678 1.523 . S
C678 C662 1.368 . S
C678 C674 1.368 . S
C678 C677 1.523 . S
H679 C654 0.950 . S
H680 C656 0.950 . S
H681 C657 0.949 . S
H682 C659 0.950 . S
H683 C661 0.950 . S
C684 C685 1.349 . S
C684 C686 1.327 . S
C684 H709 0.950 . S
C685 C684 1.349 . S
C685 C701 1.349 . S
C686 C684 1.327 . S
C686 C705 1.429 . S
C686 H710 0.950 . S
C687 C704 1.574 . S
C687 C706 1.368 . S
C687 H711 0.949 . S
H688 C692 0.949 . S
C689 C690 1.349 . S
C689 C691 1.327 . S
C689 H712 0.950 . S
C690 C689 1.349 . S
C690 C702 1.349 . S
C691 C689 1.327 . S
C691 C707 1.429 . S
C691 H713 0.950 . S
C692 H688 0.949 . S
C692 C700 1.574 . S
C692 C708 1.368 . S
H693 C701 0.950 . S
H694 C699 0.950 . S
H695 C700 0.949 . S
H696 C702 0.950 . S
H697 C703 0.950 . S
H698 C704 0.949 . S
C699 H694 0.950 . S
C699 C701 1.327 . S
C699 C705 1.429 . S
C700 C692 1.574 . S
C700 H695 0.949 . S
C700 C706 1.368 . S
C701 C685 1.349 . S
C701 H693 0.950 . S
C701 C699 1.327 . S
C702 C690 1.349 . S
C702 H696 0.950 . S
C702 C703 1.327 . S
C703 H697 0.950 . S
C703 C702 1.327 . S
C703 C707 1.429 . S
C704 C687 1.574 . S
C704 H698 0.949 . S
C704 C708 1.368 . S
C705 C686 1.429 . S
C705 C699 1.429 . S
C705 C706 1.523 . S
C706 C687 1.368 . S
C706 C700 1.368 . S
C706 C705 1.523 . S
C707 C691 1.429 . S
C707 C703 1.429 . S
C707 C708 1.523 . S
C708 C692 1.368 . S
C708 C704 1.368 . S
C708 C707 1.523 . S
H709 C684 0.950 . S
H710 C686 0.950 . S
H711 C687 0.949 . S
H712 C689 0.950 . S
H713 C691 0.950 . S
C714 C715 1.349 . S
C714 C716 1.327 . S
C714 H739 0.950 . S
C715 C714 1.349 . S
C715 C731 1.349 . S
C716 C714 1.327 . S
C716 C735 1.429 1_545 S
C716 H740 0.950 . S
C717 C734 1.574 . S
C717 C736 1.368 . S
C717 H741 0.949 . S
H718 C722 0.949 . S
C719 C720 1.349 . S
C719 C721 1.327 . S
C719 H742 0.950 . S
C720 C719 1.349 . S
C720 C732 1.349 . S
C721 C719 1.327 . S
C721 C737 1.429 . S
C721 H743 0.950 . S
C722 H718 0.949 . S
C722 C730 1.574 . S
C722 C738 1.368 . S
H723 C731 0.950 . S
H724 C729 0.950 . S
H725 C730 0.949 . S
H726 C732 0.950 . S
H727 C733 0.950 . S
H728 C734 0.949 . S
C729 H724 0.950 . S
C729 C731 1.327 1_565 S
C729 C735 1.429 . S
C730 C722 1.574 . S
C730 H725 0.949 . S
C730 C736 1.368 . S
C731 C715 1.349 . S
C731 H723 0.950 . S
C731 C729 1.327 1_545 S
C732 C720 1.349 . S
C732 H726 0.950 . S
C732 C733 1.327 . S
C733 H727 0.950 . S
C733 C732 1.327 . S
C733 C737 1.429 . S
C734 C717 1.574 . S
C734 H728 0.949 . S
C734 C738 1.368 . S
C735 C716 1.429 1_565 S
C735 C729 1.429 . S
C735 C736 1.523 . S
C736 C717 1.368 . S
C736 C730 1.368 . S
C736 C735 1.523 . S
C737 C721 1.429 . S
C737 C733 1.429 . S
C737 C738 1.523 . S
C738 C722 1.368 . S
C738 C734 1.368 . S
C738 C737 1.523 . S
H739 C714 0.950 . S
H740 C716 0.950 . S
H741 C717 0.949 . S
H742 C719 0.950 . S
H743 C721 0.950 . S
C744 C745 1.349 . S
C744 C746 1.327 . S
C744 H769 0.950 . S
C745 C744 1.349 . S
C745 C761 1.349 . S
C746 C744 1.327 . S
C746 C765 1.429 1_655 S
C746 H770 0.950 . S
C747 C764 1.574 . S
C747 C766 1.368 . S
C747 H771 0.949 . S
H748 C752 0.949 . S
C749 C750 1.349 . S
C749 C751 1.327 . S
C749 H772 0.950 . S
C750 C749 1.349 . S
C750 C762 1.349 . S
C751 C749 1.327 . S
C751 C767 1.429 . S
C751 H773 0.950 . S
C752 H748 0.949 . S
C752 C760 1.574 . S
C752 C768 1.368 . S
H753 C761 0.950 . S
H754 C759 0.950 . S
H755 C760 0.949 . S
H756 C762 0.950 . S
H757 C763 0.950 . S
H758 C764 0.949 . S
C759 H754 0.950 . S
C759 C761 1.327 1_455 S
C759 C765 1.429 . S
C760 C752 1.574 . S
C760 H755 0.949 . S
C760 C766 1.368 . S
C761 C745 1.349 . S
C761 H753 0.950 . S
C761 C759 1.327 1_655 S
C762 C750 1.349 . S
C762 H756 0.950 . S
C762 C763 1.327 . S
C763 H757 0.950 . S
C763 C762 1.327 . S
C763 C767 1.429 . S
C764 C747 1.574 . S
C764 H758 0.949 . S
C764 C768 1.368 . S
C765 C746 1.429 1_455 S
C765 C759 1.429 . S
C765 C766 1.523 . S
C766 C747 1.368 . S
C766 C760 1.368 . S
C766 C765 1.523 . S
C767 C751 1.429 . S
C767 C763 1.429 . S
C767 C768 1.523 . S
C768 C752 1.368 . S
C768 C764 1.368 . S
C768 C767 1.523 . S
H769 C744 0.950 . S
H770 C746 0.950 . S
H771 C747 0.949 . S
H772 C749 0.950 . S
H773 C751 0.950 . S
C774 C775 1.349 . S
C774 C776 1.327 . S
C774 H799 0.950 . S
C775 C774 1.349 . S
C775 C791 1.349 . S
C776 C774 1.327 . S
C776 C795 1.429 . S
C776 H800 0.950 . S
C777 C794 1.574 . S
C777 C796 1.368 . S
C777 H801 0.949 . S
H778 C782 0.949 . S
C779 C780 1.349 . S
C779 C781 1.327 1_455 S
C779 H802 0.950 . S
C780 C779 1.349 . S
C780 C792 1.349 . S
C781 C779 1.327 1_655 S
C781 C797 1.429 . S
C781 H803 0.950 . S
C782 H778 0.949 . S
C782 C790 1.574 . S
C782 C798 1.368 . S
H783 C791 0.950 . S
H784 C789 0.950 . S
H785 C790 0.949 . S
H786 C792 0.950 . S
H787 C793 0.950 . S
H788 C794 0.949 . S
C789 H784 0.950 . S
C789 C791 1.327 . S
C789 C795 1.429 . S
C790 C782 1.574 . S
C790 H785 0.949 . S
C790 C796 1.368 . S
C791 C775 1.349 . S
C791 H783 0.950 . S
C791 C789 1.327 . S
C792 C780 1.349 . S
C792 H786 0.950 . S
C792 C793 1.327 1_455 S
C793 H787 0.950 . S
C793 C792 1.327 1_655 S
C793 C797 1.429 . S
C794 C777 1.574 . S
C794 H788 0.949 . S
C794 C798 1.368 . S
C795 C776 1.429 . S
C795 C789 1.429 . S
C795 C796 1.523 . S
C796 C777 1.368 . S
C796 C790 1.368 . S
C796 C795 1.523 . S
C797 C781 1.429 . S
C797 C793 1.429 . S
C797 C798 1.523 . S
C798 C782 1.368 . S
C798 C794 1.368 . S
C798 C797 1.523 . S
H799 C774 0.950 . S
H800 C776 0.950 . S
H801 C777 0.949 . S
H802 C779 0.950 . S
H803 C781 0.950 . S
C804 C805 1.349 . S
C804 C806 1.327 . S
C804 H829 0.950 . S
C805 C804 1.349 . S
C805 C821 1.349 . S
C806 C804 1.327 . S
C806 C825 1.429 . S
C806 H830 0.950 . S
C807 C824 1.574 . S
C807 C826 1.368 . S
C807 H831 0.949 . S
H808 C812 0.949 . S
C809 C810 1.349 . S
C809 C811 1.327 . S
C809 H832 0.950 . S
C810 C809 1.349 . S
C810 C822 1.349 . S
C811 C809 1.327 . S
C811 C827 1.429 . S
C811 H833 0.950 . S
C812 H808 0.949 . S
C812 C820 1.574 . S
C812 C828 1.368 . S
H813 C821 0.950 . S
H814 C819 0.950 . S
H815 C820 0.949 . S
H816 C822 0.950 . S
H817 C823 0.950 . S
H818 C824 0.949 . S
C819 H814 0.950 . S
C819 C821 1.327 . S
C819 C825 1.429 . S
C820 C812 1.574 . S
C820 H815 0.949 . S
C820 C826 1.368 . S
C821 C805 1.349 . S
C821 H813 0.950 . S
C821 C819 1.327 . S
C822 C810 1.349 . S
C822 H816 0.950 . S
C822 C823 1.327 . S
C823 H817 0.950 . S
C823 C822 1.327 . S
C823 C827 1.429 . S
C824 C807 1.574 . S
C824 H818 0.949 . S
C824 C828 1.368 . S
C825 C806 1.429 . S
C825 C819 1.429 . S
C825 C826 1.523 . S
C826 C807 1.368 . S
C826 C820 1.368 . S
C826 C825 1.523 . S
C827 C811 1.429 . S
C827 C823 1.429 . S
C827 C828 1.523 . S
C828 C812 1.368 . S
C828 C824 1.368 . S
C828 C827 1.523 . S
H829 C804 0.950 . S
H830 C806 0.950 . S
H831 C807 0.949 . S
H832 C809 0.950 . S
H833 C811 0.950 . S
C834 C835 1.349 . S
C834 C836 1.327 1_565 S
C834 H859 0.950 . S
C835 C834 1.349 . S
C835 C851 1.349 . S
C836 C834 1.327 1_545 S
C836 C855 1.429 . S
C836 H860 0.950 . S
C837 C854 1.574 . S
C837 C856 1.368 . S
C837 H861 0.949 . S
H838 C842 0.949 . S
C839 C840 1.349 . S
C839 C841 1.327 . S
C839 H862 0.950 . S
C840 C839 1.349 . S
C840 C852 1.349 . S
C841 C839 1.327 . S
C841 C857 1.429 . S
C841 H863 0.950 . S
C842 H838 0.949 . S
C842 C850 1.574 . S
C842 C858 1.368 . S
H843 C851 0.950 . S
H844 C849 0.950 . S
H845 C850 0.949 . S
H846 C852 0.950 . S
H847 C853 0.950 . S
H848 C854 0.949 . S
C849 H844 0.950 . S
C849 C851 1.327 1_545 S
C849 C855 1.429 . S
C850 C842 1.574 . S
C850 H845 0.949 . S
C850 C856 1.368 . S
C851 C835 1.349 . S
C851 H843 0.950 . S
C851 C849 1.327 1_565 S
C852 C840 1.349 . S
C852 H846 0.950 . S
C852 C853 1.327 . S
C853 H847 0.950 . S
C853 C852 1.327 . S
C853 C857 1.429 . S
C854 C837 1.574 . S
C854 H848 0.949 . S
C854 C858 1.368 . S
C855 C836 1.429 . S
C855 C849 1.429 . S
C855 C856 1.523 . S
C856 C837 1.368 . S
C856 C850 1.368 . S
C856 C855 1.523 . S
C857 C841 1.429 . S
C857 C853 1.429 . S
C857 C858 1.523 . S
C858 C842 1.368 . S
C858 C854 1.368 . S
C858 C857 1.523 . S
H859 C834 0.950 . S
H860 C836 0.950 . S
H861 C837 0.949 . S
H862 C839 0.950 . S
H863 C841 0.950 . S
C864 C865 1.349 . S
C864 C866 1.327 . S
C864 H889 0.950 . S
C865 C864 1.349 . S
C865 C881 1.349 . S
C866 C864 1.327 . S
C866 C885 1.429 . S
C866 H890 0.950 . S
C867 C884 1.574 . S
C867 C886 1.368 . S
C867 H891 0.949 . S
H868 C872 0.949 . S
C869 C870 1.349 . S
C869 C871 1.327 . S
C869 H892 0.950 . S
C870 C869 1.349 . S
C870 C882 1.349 1_556 S
C871 C869 1.327 . S
C871 C887 1.429 1_556 S
C871 H893 0.950 . S
C872 H868 0.949 . S
C872 C880 1.574 . S
C872 C888 1.368 . S
H873 C881 0.950 . S
H874 C879 0.950 . S
H875 C880 0.949 . S
H876 C882 0.950 . S
H877 C883 0.950 . S
H878 C884 0.949 . S
C879 H874 0.950 . S
C879 C881 1.327 . S
C879 C885 1.429 . S
C880 C872 1.574 . S
C880 H875 0.949 . S
C880 C886 1.368 . S
C881 C865 1.349 . S
C881 H873 0.950 . S
C881 C879 1.327 . S
C882 C870 1.349 1_554 S
C882 H876 0.950 . S
C882 C883 1.327 . S
C883 H877 0.950 . S
C883 C882 1.327 . S
C883 C887 1.429 . S
C884 C867 1.574 . S
C884 H878 0.949 . S
C884 C888 1.368 . S
C885 C866 1.429 . S
C885 C879 1.429 . S
C885 C886 1.523 . S
C886 C867 1.368 . S
C886 C880 1.368 . S
C886 C885 1.523 . S
C887 C871 1.429 1_554 S
C887 C883 1.429 . S
C887 C888 1.523 . S
C888 C872 1.368 . S
C888 C884 1.368 . S
C888 C887 1.523 . S
H889 C864 0.950 . S
H890 C866 0.950 . S
H891 C867 0.949 . S
H892 C869 0.950 . S
H893 C871 0.950 . S
C894 C895 1.349 . S
C894 C896 1.327 . S
C894 H919 0.950 . S
C895 C894 1.349 . S
C895 C911 1.349 . S
C896 C894 1.327 . S
C896 C915 1.429 . S
C896 H920 0.950 . S
C897 C914 1.574 . S
C897 C916 1.368 . S
C897 H921 0.949 . S
H898 C902 0.949 . S
C899 C900 1.349 1_554 S
C899 C901 1.327 . S
C899 H922 0.950 . S
C900 C899 1.349 1_556 S
C900 C912 1.349 . S
C901 C899 1.327 . S
C901 C917 1.429 . S
C901 H923 0.950 . S
C902 H898 0.949 . S
C902 C910 1.574 . S
C902 C918 1.368 . S
H903 C911 0.950 . S
H904 C909 0.950 . S
H905 C910 0.949 . S
H906 C912 0.950 . S
H907 C913 0.950 1_556 S
H908 C914 0.949 . S
C909 H904 0.950 . S
C909 C911 1.327 . S
C909 C915 1.429 . S
C910 C902 1.574 . S
C910 H905 0.949 . S
C910 C916 1.368 . S
C911 C895 1.349 . S
C911 H903 0.950 . S
C911 C909 1.327 . S
C912 C900 1.349 . S
C912 H906 0.950 . S
C912 C913 1.327 1_556 S
C913 H907 0.950 1_554 S
C913 C912 1.327 1_554 S
C913 C917 1.429 . S
C914 C897 1.574 . S
C914 H908 0.949 . S
C914 C918 1.368 . S
C915 C896 1.429 . S
C915 C909 1.429 . S
C915 C916 1.523 . S
C916 C897 1.368 . S
C916 C910 1.368 . S
C916 C915 1.523 . S
C917 C901 1.429 . S
C917 C913 1.429 . S
C917 C918 1.523 . S
C918 C902 1.368 . S
C918 C914 1.368 . S
C918 C917 1.523 . S
H919 C894 0.950 . S
H920 C896 0.950 . S
H921 C897 0.949 . S
H922 C899 0.950 . S
H923 C901 0.950 . S
C924 C925 1.349 . S
C924 C926 1.327 . S
C924 H949 0.950 . S
C925 C924 1.349 . S
C925 C941 1.349 . S
C926 C924 1.327 . S
C926 C945 1.429 . S
C926 H950 0.950 . S
C927 C944 1.574 . S
C927 C946 1.368 . S
C927 H951 0.949 . S
H928 C932 0.949 . S
C929 C930 1.349 . S
C929 C931 1.327 . S
C929 H952 0.950 . S
C930 C929 1.349 . S
C930 C942 1.349 1_556 S
C931 C929 1.327 . S
C931 C947 1.429 1_556 S
C931 H953 0.950 . S
C932 H928 0.949 . S
C932 C940 1.574 . S
C932 C948 1.368 . S
H933 C941 0.950 . S
H934 C939 0.950 . S
H935 C940 0.949 . S
H936 C942 0.950 . S
H937 C943 0.950 . S
H938 C944 0.949 . S
C939 H934 0.950 . S
C939 C941 1.327 . S
C939 C945 1.429 . S
C940 C932 1.574 . S
C940 H935 0.949 . S
C940 C946 1.368 . S
C941 C925 1.349 . S
C941 H933 0.950 . S
C941 C939 1.327 . S
C942 C930 1.349 1_554 S
C942 H936 0.950 . S
C942 C943 1.327 . S
C943 H937 0.950 . S
C943 C942 1.327 . S
C943 C947 1.429 . S
C944 C927 1.574 . S
C944 H938 0.949 . S
C944 C948 1.368 . S
C945 C926 1.429 . S
C945 C939 1.429 . S
C945 C946 1.523 . S
C946 C927 1.368 . S
C946 C940 1.368 . S
C946 C945 1.523 . S
C947 C931 1.429 1_554 S
C947 C943 1.429 . S
C947 C948 1.523 . S
C948 C932 1.368 . S
C948 C944 1.368 . S
C948 C947 1.523 . S
H949 C924 0.950 . S
H950 C926 0.950 . S
H951 C927 0.949 . S
H952 C929 0.950 . S
H953 C931 0.950 . S
C954 C955 1.349 . S
C954 C956 1.327 . S
C954 H979 0.950 . S
C955 C954 1.349 . S
C955 C971 1.349 . S
C956 C954 1.327 . S
C956 C975 1.429 . S
C956 H980 0.950 . S
C957 C974 1.574 . S
C957 C976 1.368 . S
C957 H981 0.949 . S
H958 C962 0.949 . S
C959 C960 1.349 . S
C959 C961 1.327 1_554 S
C959 H982 0.950 . S
C960 C959 1.349 . S
C960 C972 1.349 1_554 S
C961 C959 1.327 1_556 S
C961 C977 1.429 . S
C961 H983 0.950 . S
C962 H958 0.949 . S
C962 C970 1.574 . S
C962 C978 1.368 . S
H963 C971 0.950 . S
H964 C969 0.950 . S
H965 C970 0.949 . S
H966 C972 0.950 . S
H967 C973 0.950 . S
H968 C974 0.949 . S
C969 H964 0.950 . S
C969 C971 1.327 . S
C969 C975 1.429 . S
C970 C962 1.574 . S
C970 H965 0.949 . S
C970 C976 1.368 . S
C971 C955 1.349 . S
C971 H963 0.950 . S
C971 C969 1.327 . S
C972 C960 1.349 1_556 S
C972 H966 0.950 . S
C972 C973 1.327 . S
C973 H967 0.950 . S
C973 C972 1.327 . S
C973 C977 1.429 . S
C974 C957 1.574 . S
C974 H968 0.949 . S
C974 C978 1.368 . S
C975 C956 1.429 . S
C975 C969 1.429 . S
C975 C976 1.523 . S
C976 C957 1.368 . S
C976 C970 1.368 . S
C976 C975 1.523 . S
C977 C961 1.429 . S
C977 C973 1.429 . S
C977 C978 1.523 . S
C978 C962 1.368 . S
C978 C974 1.368 . S
C978 C977 1.523 . S
H979 C954 0.950 . S
H980 C956 0.950 . S
H981 C957 0.949 . S
H982 C959 0.950 . S
H983 C961 0.950 . S
C984 C985 1.349 . S
C984 C986 1.327 . S
C984 H1009 0.950 . S
C985 C984 1.349 . S
C985 C1001 1.349 . S
C986 C984 1.327 . S
C986 C1005 1.429 . S
C986 H1010 0.950 . S
C987 C1004 1.574 . S
C987 C1006 1.368 . S
C987 H1011 0.949 . S
H988 C992 0.949 . S
C989 C990 1.349 1_556 S
C989 C991 1.327 . S
C989 H1012 0.950 . S
C990 C989 1.349 1_554 S
C990 C1002 1.349 . S
C991 C989 1.327 . S
C991 C1007 1.429 . S
C991 H1013 0.950 . S
C992 H988 0.949 . S
C992 C1000 1.574 . S
C992 C1008 1.368 . S
H993 C1001 0.950 . S
H994 C999 0.950 . S
H995 C1000 0.949 . S
H996 C1002 0.950 . S
H997 C1003 0.950 . S
H998 C1004 0.949 . S
C999 H994 0.950 . S
C999 C1001 1.327 . S
C999 C1005 1.429 . S
C1000 C992 1.574 . S
C1000 H995 0.949 . S
C1000 C1006 1.368 . S
C1001 C985 1.349 . S
C1001 H993 0.950 . S
C1001 C999 1.327 . S
C1002 C990 1.349 . S
C1002 H996 0.950 . S
C1002 C1003 1.327 . S
C1003 H997 0.950 . S
C1003 C1002 1.327 . S
C1003 C1007 1.429 1_554 S
C1004 C987 1.574 . S
C1004 H998 0.949 . S
C1004 C1008 1.368 . S
C1005 C986 1.429 . S
C1005 C999 1.429 . S
C1005 C1006 1.523 . S
C1006 C987 1.368 . S
C1006 C1000 1.368 . S
C1006 C1005 1.523 . S
C1007 C991 1.429 . S
C1007 C1003 1.429 1_556 S
C1007 C1008 1.523 . S
C1008 C992 1.368 . S
C1008 C1004 1.368 . S
C1008 C1007 1.523 . S
H1009 C984 0.950 . S
H1010 C986 0.950 . S
H1011 C987 0.949 . S
H1012 C989 0.950 . S
H1013 C991 0.950 . S
C1014 C1015 1.349 1_556 S
C1014 C1016 1.327 . S
C1014 H1039 0.950 . S
C1015 C1014 1.349 1_554 S
C1015 C1031 1.349 . S
C1016 C1014 1.327 . S
C1016 C1035 1.429 . S
C1016 H1040 0.950 . S
C1017 C1034 1.574 . S
C1017 C1036 1.368 . S
C1017 H1041 0.949 . S
H1018 C1022 0.949 . S
C1019 C1020 1.349 . S
C1019 C1021 1.327 . S
C1019 H1042 0.950 . S
C1020 C1019 1.349 . S
C1020 C1032 1.349 . S
C1021 C1019 1.327 . S
C1021 C1037 1.429 . S
C1021 H1043 0.950 . S
C1022 H1018 0.949 . S
C1022 C1030 1.574 . S
C1022 C1038 1.368 . S
H1023 C1031 0.950 . S
H1024 C1029 0.949 1_554 S
H1025 C1030 0.949 . S
H1026 C1032 0.950 . S
H1027 C1033 0.950 . S
H1028 C1034 0.949 . S
C1029 H1024 0.949 1_556 S
C1029 C1031 1.327 1_556 S
C1029 C1035 1.429 . S
C1030 C1022 1.574 . S
C1030 H1025 0.949 . S
C1030 C1036 1.368 . S
C1031 C1015 1.349 . S
C1031 H1023 0.950 . S
C1031 C1029 1.327 1_554 S
C1032 C1020 1.349 . S
C1032 H1026 0.950 . S
C1032 C1033 1.327 . S
C1033 H1027 0.950 . S
C1033 C1032 1.327 . S
C1033 C1037 1.429 . S
C1034 C1017 1.574 . S
C1034 H1028 0.949 . S
C1034 C1038 1.368 . S
C1035 C1016 1.429 . S
C1035 C1029 1.429 . S
C1035 C1036 1.523 . S
C1036 C1017 1.368 . S
C1036 C1030 1.368 . S
C1036 C1035 1.523 . S
C1037 C1021 1.429 . S
C1037 C1033 1.429 . S
C1037 C1038 1.523 . S
C1038 C1022 1.368 . S
C1038 C1034 1.368 . S
C1038 C1037 1.523 . S
H1039 C1014 0.950 . S
H1040 C1016 0.950 . S
H1041 C1017 0.949 . S
H1042 C1019 0.950 . S
H1043 C1021 0.950 . S
C1044 C1045 1.349 . S
C1044 C1046 1.327 1_655 S
C1044 H1069 0.950 . S
C1045 C1044 1.349 . S
C1045 C1061 1.349 . S
C1046 C1044 1.327 1_455 S
C1046 C1065 1.429 . S
C1046 H1070 0.950 . S
C1047 C1064 1.574 . S
C1047 C1066 1.368 . S
C1047 H1071 0.949 . S
H1048 C1052 0.949 . S
C1049 C1050 1.349 . S
C1049 C1051 1.327 . S
C1049 H1072 0.950 . S
C1050 C1049 1.349 . S
C1050 C1062 1.349 . S
C1051 C1049 1.327 . S
C1051 C1067 1.429 . S
C1051 H1073 0.950 . S
C1052 H1048 0.949 . S
C1052 C1060 1.574 . S
C1052 C1068 1.368 . S
H1053 C1061 0.950 . S
H1054 C1059 0.950 . S
H1055 C1060 0.949 . S
H1056 C1062 0.950 . S
H1057 C1063 0.950 . S
H1058 C1064 0.949 . S
C1059 H1054 0.950 . S
C1059 C1061 1.327 1_455 S
C1059 C1065 1.429 . S
C1060 C1052 1.574 . S
C1060 H1055 0.949 . S
C1060 C1066 1.368 . S
C1061 C1045 1.349 . S
C1061 H1053 0.950 . S
C1061 C1059 1.327 1_655 S
C1062 C1050 1.349 . S
C1062 H1056 0.950 . S
C1062 C1063 1.327 . S
C1063 H1057 0.950 . S
C1063 C1062 1.327 . S
C1063 C1067 1.429 . S
C1064 C1047 1.574 . S
C1064 H1058 0.949 . S
C1064 C1068 1.368 . S
C1065 C1046 1.429 . S
C1065 C1059 1.429 . S
C1065 C1066 1.523 . S
C1066 C1047 1.368 . S
C1066 C1060 1.368 . S
C1066 C1065 1.523 . S
C1067 C1051 1.429 . S
C1067 C1063 1.429 . S
C1067 C1068 1.523 . S
C1068 C1052 1.368 . S
C1068 C1064 1.368 . S
C1068 C1067 1.523 . S
H1069 C1044 0.950 . S
H1070 C1046 0.950 . S
H1071 C1047 0.949 . S
H1072 C1049 0.950 . S
H1073 C1051 0.950 . S
C1074 C1075 1.349 . S
C1074 C1076 1.327 . S
C1074 H1099 0.950 . S
C1075 C1074 1.349 . S
C1075 C1091 1.349 . S
C1076 C1074 1.327 . S
C1076 C1095 1.429 . S
C1076 H1100 0.950 . S
C1077 C1094 1.574 . S
C1077 C1096 1.368 . S
C1077 H1101 0.949 . S
H1078 C1082 0.949 . S
C1079 C1080 1.349 . S
C1079 C1081 1.327 . S
C1079 H1102 0.950 . S
C1080 C1079 1.349 . S
C1080 C1092 1.349 . S
C1081 C1079 1.327 . S
C1081 C1097 1.429 . S
C1081 H1103 0.950 . S
C1082 H1078 0.949 . S
C1082 C1090 1.574 . S
C1082 C1098 1.368 . S
H1083 C1091 0.950 . S
H1084 C1089 0.950 . S
H1085 C1090 0.949 . S
H1086 C1092 0.950 . S
H1087 C1093 0.950 . S
H1088 C1094 0.949 . S
C1089 H1084 0.950 . S
C1089 C1091 1.327 . S
C1089 C1095 1.429 . S
C1090 C1082 1.574 . S
C1090 H1085 0.949 . S
C1090 C1096 1.368 . S
C1091 C1075 1.349 . S
C1091 H1083 0.950 . S
C1091 C1089 1.327 . S
C1092 C1080 1.349 . S
C1092 H1086 0.950 . S
C1092 C1093 1.327 . S
C1093 H1087 0.950 . S
C1093 C1092 1.327 . S
C1093 C1097 1.429 . S
C1094 C1077 1.574 . S
C1094 H1088 0.949 . S
C1094 C1098 1.368 . S
C1095 C1076 1.429 . S
C1095 C1089 1.429 . S
C1095 C1096 1.523 . S
C1096 C1077 1.368 . S
C1096 C1090 1.368 . S
C1096 C1095 1.523 . S
C1097 C1081 1.429 . S
C1097 C1093 1.429 . S
C1097 C1098 1.523 . S
C1098 C1082 1.368 . S
C1098 C1094 1.368 . S
C1098 C1097 1.523 . S
H1099 C1074 0.950 . S
H1100 C1076 0.950 . S
H1101 C1077 0.949 . S
H1102 C1079 0.950 . S
H1103 C1081 0.950 . S
C1104 C1105 1.349 . S
C1104 C1106 1.327 . S
C1104 H1129 0.950 . S
C1105 C1104 1.349 . S
C1105 C1121 1.349 . S
C1106 C1104 1.327 . S
C1106 C1125 1.429 . S
C1106 H1130 0.950 . S
C1107 C1124 1.574 . S
C1107 C1126 1.368 . S
C1107 H1131 0.949 . S
H1108 C1112 0.949 . S
C1109 C1110 1.349 . S
C1109 C1111 1.327 1_545 S
C1109 H1132 0.950 . S
C1110 C1109 1.349 . S
C1110 C1122 1.349 . S
C1111 C1109 1.327 1_565 S
C1111 C1127 1.429 . S
C1111 H1133 0.950 . S
C1112 H1108 0.949 . S
C1112 C1120 1.574 . S
C1112 C1128 1.368 . S
H1113 C1121 0.950 . S
H1114 C1119 0.950 . S
H1115 C1120 0.949 . S
H1116 C1122 0.950 . S
H1117 C1123 0.950 . S
H1118 C1124 0.949 . S
C1119 H1114 0.950 . S
C1119 C1121 1.327 . S
C1119 C1125 1.429 . S
C1120 C1112 1.574 . S
C1120 H1115 0.949 . S
C1120 C1126 1.368 . S
C1121 C1105 1.349 . S
C1121 H1113 0.950 . S
C1121 C1119 1.327 . S
C1122 C1110 1.349 . S
C1122 H1116 0.950 . S
C1122 C1123 1.327 . S
C1123 H1117 0.950 . S
C1123 C1122 1.327 . S
C1123 C1127 1.429 1_545 S
C1124 C1107 1.574 . S
C1124 H1118 0.949 . S
C1124 C1128 1.368 . S
C1125 C1106 1.429 . S
C1125 C1119 1.429 . S
C1125 C1126 1.523 . S
C1126 C1107 1.368 . S
C1126 C1120 1.368 . S
C1126 C1125 1.523 . S
C1127 C1111 1.429 . S
C1127 C1123 1.429 1_565 S
C1127 C1128 1.523 . S
C1128 C1112 1.368 . S
C1128 C1124 1.368 . S
C1128 C1127 1.523 . S
H1129 C1104 0.950 . S
H1130 C1106 0.950 . S
H1131 C1107 0.949 . S
H1132 C1109 0.950 . S
H1133 C1111 0.950 . S
C1134 C1135 1.349 . S
C1134 C1136 1.327 . S
C1134 H1159 0.950 . S
C1135 C1134 1.349 . S
C1135 C1151 1.349 . S
C1136 C1134 1.327 . S
C1136 C1155 1.429 . S
C1136 H1160 0.950 . S
C1137 C1154 1.574 . S
C1137 C1156 1.368 . S
C1137 H1161 0.949 . S
H1138 C1142 0.949 . S
C1139 C1140 1.349 . S
C1139 C1141 1.327 . S
C1139 H1162 0.950 . S
C1140 C1139 1.349 . S
C1140 C1152 1.349 . S
C1141 C1139 1.327 . S
C1141 C1157 1.429 . S
C1141 H1163 0.950 . S
C1142 H1138 0.949 . S
C1142 C1150 1.574 . S
C1142 C1158 1.368 . S
H1143 C1151 0.950 . S
H1144 C1149 0.950 . S
H1145 C1150 0.949 . S
H1146 C1152 0.950 . S
H1147 C1153 0.950 . S
H1148 C1154 0.949 . S
C1149 H1144 0.950 . S
C1149 C1151 1.327 . S
C1149 C1155 1.429 . S
C1150 C1142 1.574 . S
C1150 H1145 0.949 . S
C1150 C1156 1.368 . S
C1151 C1135 1.349 . S
C1151 H1143 0.950 . S
C1151 C1149 1.327 . S
C1152 C1140 1.349 . S
C1152 H1146 0.950 . S
C1152 C1153 1.327 . S
C1153 H1147 0.950 . S
C1153 C1152 1.327 . S
C1153 C1157 1.429 . S
C1154 C1137 1.574 . S
C1154 H1148 0.949 . S
C1154 C1158 1.368 . S
C1155 C1136 1.429 . S
C1155 C1149 1.429 . S
C1155 C1156 1.523 . S
C1156 C1137 1.368 . S
C1156 C1150 1.368 . S
C1156 C1155 1.523 . S
C1157 C1141 1.429 . S
C1157 C1153 1.429 . S
C1157 C1158 1.523 . S
C1158 C1142 1.368 . S
C1158 C1154 1.368 . S
C1158 C1157 1.523 . S
H1159 C1134 0.950 . S
H1160 C1136 0.950 . S
H1161 C1137 0.949 . S
H1162 C1139 0.950 . S
H1163 C1141 0.950 . S
C1164 C1165 1.349 . S
C1164 C1166 1.327 . S
C1164 H1189 0.950 . S
C1165 C1164 1.349 . S
C1165 C1181 1.349 . S
C1166 C1164 1.327 . S
C1166 C1185 1.429 . S
C1166 H1190 0.950 . S
C1167 C1184 1.574 . S
C1167 C1186 1.368 . S
C1167 H1191 0.949 . S
H1168 C1172 0.949 . S
C1169 C1170 1.349 . S
C1169 C1171 1.327 . S
C1169 H1192 0.950 . S
C1170 C1169 1.349 . S
C1170 C1182 1.349 . S
C1171 C1169 1.327 . S
C1171 C1187 1.429 . S
C1171 H1193 0.950 . S
C1172 H1168 0.949 . S
C1172 C1180 1.574 . S
C1172 C1188 1.368 . S
H1173 C1181 0.950 . S
H1174 C1179 0.950 . S
H1175 C1180 0.949 . S
H1176 C1182 0.950 . S
H1177 C1183 0.950 . S
H1178 C1184 0.949 . S
C1179 H1174 0.950 . S
C1179 C1181 1.327 . S
C1179 C1185 1.429 . S
C1180 C1172 1.574 . S
C1180 H1175 0.949 . S
C1180 C1186 1.368 . S
C1181 C1165 1.349 . S
C1181 H1173 0.950 . S
C1181 C1179 1.327 . S
C1182 C1170 1.349 . S
C1182 H1176 0.950 . S
C1182 C1183 1.327 . S
C1183 H1177 0.950 . S
C1183 C1182 1.327 . S
C1183 C1187 1.429 . S
C1184 C1167 1.574 . S
C1184 H1178 0.949 . S
C1184 C1188 1.368 . S
C1185 C1166 1.429 . S
C1185 C1179 1.429 . S
C1185 C1186 1.523 . S
C1186 C1167 1.368 . S
C1186 C1180 1.368 . S
C1186 C1185 1.523 . S
C1187 C1171 1.429 . S
C1187 C1183 1.429 . S
C1187 C1188 1.523 . S
C1188 C1172 1.368 . S
C1188 C1184 1.368 . S
C1188 C1187 1.523 . S
H1189 C1164 0.950 . S
H1190 C1166 0.950 . S
H1191 C1167 0.949 . S
H1192 C1169 0.950 . S
H1193 C1171 0.950 . S
C1194 C1195 1.349 . S
C1194 C1196 1.327 . S
C1194 H1219 0.950 . S
C1195 C1194 1.349 . S
C1195 C1211 1.349 . S
C1196 C1194 1.327 . S
C1196 C1215 1.429 . S
C1196 H1220 0.950 . S
C1197 C1214 1.574 . S
C1197 C1216 1.368 . S
C1197 H1221 0.949 . S
H1198 C1202 0.949 . S
C1199 C1200 1.349 . S
C1199 C1201 1.327 . S
C1199 H1222 0.950 . S
C1200 C1199 1.349 . S
C1200 C1212 1.349 . S
C1201 C1199 1.327 . S
C1201 C1217 1.429 . S
C1201 H1223 0.950 . S
C1202 H1198 0.949 . S
C1202 C1210 1.574 . S
C1202 C1218 1.368 . S
H1203 C1211 0.950 . S
H1204 C1209 0.950 . S
H1205 C1210 0.949 . S
H1206 C1212 0.950 . S
H1207 C1213 0.950 . S
H1208 C1214 0.949 . S
C1209 H1204 0.950 . S
C1209 C1211 1.327 . S
C1209 C1215 1.429 . S
C1210 C1202 1.574 . S
C1210 H1205 0.949 . S
C1210 C1216 1.368 . S
C1211 C1195 1.349 . S
C1211 H1203 0.950 . S
C1211 C1209 1.327 . S
C1212 C1200 1.349 . S
C1212 H1206 0.950 . S
C1212 C1213 1.327 . S
C1213 H1207 0.950 . S
C1213 C1212 1.327 . S
C1213 C1217 1.429 . S
C1214 C1197 1.574 . S
C1214 H1208 0.949 . S
C1214 C1218 1.368 . S
C1215 C1196 1.429 . S
C1215 C1209 1.429 . S
C1215 C1216 1.523 . S
C1216 C1197 1.368 . S
C1216 C1210 1.368 . S
C1216 C1215 1.523 . S
C1217 C1201 1.429 . S
C1217 C1213 1.429 . S
C1217 C1218 1.523 . S
C1218 C1202 1.368 . S
C1218 C1214 1.368 . S
C1218 C1217 1.523 . S
H1219 C1194 0.950 . S
H1220 C1196 0.950 . S
H1221 C1197 0.949 . S
H1222 C1199 0.950 . S
H1223 C1201 0.950 . S
C1224 C1225 1.349 . S
C1224 C1226 1.327 . S
C1224 H1249 0.950 . S
C1225 C1224 1.349 . S
C1225 C1241 1.349 . S
C1226 C1224 1.327 . S
C1226 C1245 1.429 . S
C1226 H1250 0.950 . S
C1227 C1244 1.574 . S
C1227 C1246 1.368 . S
C1227 H1251 0.949 . S
H1228 C1232 0.949 . S
C1229 C1230 1.349 . S
C1229 C1231 1.327 . S
C1229 H1252 0.950 . S
C1230 C1229 1.349 . S
C1230 C1242 1.349 . S
C1231 C1229 1.327 . S
C1231 C1247 1.429 . S
C1231 H1253 0.950 . S
C1232 H1228 0.949 . S
C1232 C1240 1.574 . S
C1232 C1248 1.368 . S
H1233 C1241 0.950 . S
H1234 C1239 0.950 . S
H1235 C1240 0.949 . S
H1236 C1242 0.950 . S
H1237 C1243 0.950 . S
H1238 C1244 0.949 . S
C1239 H1234 0.950 . S
C1239 C1241 1.327 . S
C1239 C1245 1.429 . S
C1240 C1232 1.574 . S
C1240 H1235 0.949 . S
C1240 C1246 1.368 . S
C1241 C1225 1.349 . S
C1241 H1233 0.950 . S
C1241 C1239 1.327 . S
C1242 C1230 1.349 . S
C1242 H1236 0.950 . S
C1242 C1243 1.327 . S
C1243 H1237 0.950 . S
C1243 C1242 1.327 . S
C1243 C1247 1.429 . S
C1244 C1227 1.574 . S
C1244 H1238 0.949 . S
C1244 C1248 1.368 . S
C1245 C1226 1.429 . S
C1245 C1239 1.429 . S
C1245 C1246 1.523 . S
C1246 C1227 1.368 . S
C1246 C1240 1.368 . S
C1246 C1245 1.523 . S
C1247 C1231 1.429 . S
C1247 C1243 1.429 . S
C1247 C1248 1.523 . S
C1248 C1232 1.368 . S
C1248 C1244 1.368 . S
C1248 C1247 1.523 . S
H1249 C1224 0.950 . S
H1250 C1226 0.950 . S
H1251 C1227 0.949 . S
H1252 C1229 0.950 . S
H1253 C1231 0.950 . S
C1254 C1255 1.349 . S
C1254 C1256 1.327 . S
C1254 H1279 0.950 . S
C1255 C1254 1.349 . S
C1255 C1271 1.349 . S
C1256 C1254 1.327 . S
C1256 C1275 1.429 . S
C1256 H1280 0.950 . S
C1257 C1274 1.574 . S
C1257 C1276 1.368 . S
C1257 H1281 0.949 . S
H1258 C1262 0.949 . S
C1259 C1260 1.349 . S
C1259 C1261 1.327 . S
C1259 H1282 0.950 . S
C1260 C1259 1.349 . S
C1260 C1272 1.349 . S
C1261 C1259 1.327 . S
C1261 C1277 1.429 . S
C1261 H1283 0.950 . S
C1262 H1258 0.949 . S
C1262 C1270 1.574 . S
C1262 C1278 1.368 . S
H1263 C1271 0.950 . S
H1264 C1269 0.950 . S
H1265 C1270 0.949 . S
H1266 C1272 0.950 . S
H1267 C1273 0.950 . S
H1268 C1274 0.949 . S
C1269 H1264 0.950 . S
C1269 C1271 1.327 . S
C1269 C1275 1.429 . S
C1270 C1262 1.574 . S
C1270 H1265 0.949 . S
C1270 C1276 1.368 . S
C1271 C1255 1.349 . S
C1271 H1263 0.950 . S
C1271 C1269 1.327 . S
C1272 C1260 1.349 . S
C1272 H1266 0.950 . S
C1272 C1273 1.327 . S
C1273 H1267 0.950 . S
C1273 C1272 1.327 . S
C1273 C1277 1.429 . S
C1274 C1257 1.574 . S
C1274 H1268 0.949 . S
C1274 C1278 1.368 . S
C1275 C1256 1.429 . S
C1275 C1269 1.429 . S
C1275 C1276 1.523 . S
C1276 C1257 1.368 . S
C1276 C1270 1.368 . S
C1276 C1275 1.523 . S
C1277 C1261 1.429 . S
C1277 C1273 1.429 . S
C1277 C1278 1.523 . S
C1278 C1262 1.368 . S
C1278 C1274 1.368 . S
C1278 C1277 1.523 . S
H1279 C1254 0.950 . S
H1280 C1256 0.950 . S
H1281 C1257 0.949 . S
H1282 C1259 0.950 . S
H1283 C1261 0.950 . S
C1284 C1285 1.349 . S
C1284 C1286 1.327 . S
C1284 H1309 0.950 . S
C1285 C1284 1.349 . S
C1285 C1301 1.349 . S
C1286 C1284 1.327 . S
C1286 C1305 1.429 . S
C1286 H1310 0.950 . S
C1287 C1304 1.574 . S
C1287 C1306 1.368 . S
C1287 H1311 0.949 . S
H1288 C1292 0.949 . S
C1289 C1290 1.349 . S
C1289 C1291 1.327 . S
C1289 H1312 0.950 . S
C1290 C1289 1.349 . S
C1290 C1302 1.349 . S
C1291 C1289 1.327 . S
C1291 C1307 1.429 . S
C1291 H1313 0.950 . S
C1292 H1288 0.949 . S
C1292 C1300 1.574 . S
C1292 C1308 1.368 . S
H1293 C1301 0.950 . S
H1294 C1299 0.950 . S
H1295 C1300 0.949 . S
H1296 C1302 0.950 . S
H1297 C1303 0.950 . S
H1298 C1304 0.949 . S
C1299 H1294 0.950 . S
C1299 C1301 1.327 . S
C1299 C1305 1.429 . S
C1300 C1292 1.574 . S
C1300 H1295 0.949 . S
C1300 C1306 1.368 . S
C1301 C1285 1.349 . S
C1301 H1293 0.950 . S
C1301 C1299 1.327 . S
C1302 C1290 1.349 . S
C1302 H1296 0.950 . S
C1302 C1303 1.327 . S
C1303 H1297 0.950 . S
C1303 C1302 1.327 . S
C1303 C1307 1.429 . S
C1304 C1287 1.574 . S
C1304 H1298 0.949 . S
C1304 C1308 1.368 . S
C1305 C1286 1.429 . S
C1305 C1299 1.429 . S
C1305 C1306 1.523 . S
C1306 C1287 1.368 . S
C1306 C1300 1.368 . S
C1306 C1305 1.523 . S
C1307 C1291 1.429 . S
C1307 C1303 1.429 . S
C1307 C1308 1.523 . S
C1308 C1292 1.368 . S
C1308 C1304 1.368 . S
C1308 C1307 1.523 . S
H1309 C1284 0.950 . S
H1310 C1286 0.950 . S
H1311 C1287 0.949 . S
H1312 C1289 0.950 . S
H1313 C1291 0.950 . S
C1314 C1315 1.349 . S
C1314 C1316 1.327 . S
C1314 H1339 0.950 . S
C1315 C1314 1.349 . S
C1315 C1331 1.349 . S
C1316 C1314 1.327 . S
C1316 C1335 1.429 . S
C1316 H1340 0.950 1_545 S
C1317 C1334 1.574 1_554 S
C1317 C1336 1.368 . S
C1317 H1341 0.949 . S
H1318 C1322 0.949 . S
C1319 C1320 1.349 . S
C1319 C1321 1.327 . S
C1319 H1342 0.950 . S
C1320 C1319 1.349 . S
C1320 C1332 1.349 . S
C1321 C1319 1.327 . S
C1321 C1337 1.429 . S
C1321 H1343 0.950 1_565 S
C1322 H1318 0.949 . S
C1322 C1330 1.574 1_556 S
C1322 C1338 1.368 . S
H1323 C1331 0.950 . S
H1324 C1329 0.950 . S
H1325 C1330 0.949 . S
H1326 C1332 0.950 . S
H1327 C1333 0.950 . S
H1328 C1334 0.949 . S
C1329 H1324 0.950 . S
C1329 C1331 1.327 . S
C1329 C1335 1.429 . S
C1330 C1322 1.574 1_554 S
C1330 H1325 0.949 . S
C1330 C1336 1.368 1_565 S
C1331 C1315 1.349 . S
C1331 H1323 0.950 . S
C1331 C1329 1.327 . S
C1332 C1320 1.349 . S
C1332 H1326 0.950 . S
C1332 C1333 1.327 . S
C1333 H1327 0.950 . S
C1333 C1332 1.327 . S
C1333 C1337 1.429 . S
C1334 C1317 1.574 1_556 S
C1334 H1328 0.949 . S
C1334 C1338 1.368 1_545 S
C1335 C1316 1.429 . S
C1335 C1329 1.429 . S
C1335 C1336 1.523 . S
C1336 C1317 1.368 . S
C1336 C1330 1.368 1_545 S
C1336 C1335 1.523 . S
C1337 C1321 1.429 . S
C1337 C1333 1.429 . S
C1337 C1338 1.523 . S
C1338 C1322 1.368 . S
C1338 C1334 1.368 1_565 S
C1338 C1337 1.523 . S
H1339 C1314 0.950 . S
H1340 C1316 0.950 1_565 S
H1341 C1317 0.949 . S
H1342 C1319 0.950 . S
H1343 C1321 0.950 1_545 S
C1344 C1345 1.349 . S
C1344 C1346 1.327 . S
C1344 H1369 0.950 . S
C1345 C1344 1.349 . S
C1345 C1361 1.349 . S
C1346 C1344 1.327 . S
C1346 C1365 1.429 . S
C1346 H1370 0.950 . S
C1347 C1364 1.574 1_556 S
C1347 C1366 1.368 1_655 S
C1347 H1371 0.949 . S
H1348 C1352 0.949 . S
C1349 C1350 1.349 . S
C1349 C1351 1.327 . S
C1349 H1372 0.950 . S
C1350 C1349 1.349 . S
C1350 C1362 1.349 . S
C1351 C1349 1.327 . S
C1351 C1367 1.429 . S
C1351 H1373 0.950 . S
C1352 H1348 0.949 . S
C1352 C1360 1.574 1_554 S
C1352 C1368 1.368 1_455 S
H1353 C1361 0.950 . S
H1354 C1359 0.950 . S
H1355 C1360 0.949 . S
H1356 C1362 0.950 . S
H1357 C1363 0.950 . S
H1358 C1364 0.949 . S
C1359 H1354 0.950 . S
C1359 C1361 1.327 . S
C1359 C1365 1.429 . S
C1360 C1352 1.574 1_556 S
C1360 H1355 0.949 . S
C1360 C1366 1.368 . S
C1361 C1345 1.349 . S
C1361 H1353 0.950 . S
C1361 C1359 1.327 . S
C1362 C1350 1.349 . S
C1362 H1356 0.950 . S
C1362 C1363 1.327 . S
C1363 H1357 0.950 . S
C1363 C1362 1.327 . S
C1363 C1367 1.429 . S
C1364 C1347 1.574 1_554 S
C1364 H1358 0.949 . S
C1364 C1368 1.368 . S
C1365 C1346 1.429 . S
C1365 C1359 1.429 . S
C1365 C1366 1.523 . S
C1366 C1347 1.368 1_455 S
C1366 C1360 1.368 . S
C1366 C1365 1.523 . S
C1367 C1351 1.429 . S
C1367 C1363 1.429 . S
C1367 C1368 1.523 . S
C1368 C1352 1.368 1_655 S
C1368 C1364 1.368 . S
C1368 C1367 1.523 . S
H1369 C1344 0.950 . S
H1370 C1346 0.950 . S
H1371 C1347 0.949 . S
H1372 C1349 0.950 . S
H1373 C1351 0.950 . S
C1374 C1375 1.349 . S
C1374 C1376 1.327 . S
C1374 H1399 0.950 . S
C1375 C1374 1.349 . S
C1375 C1391 1.349 . S
C1376 C1374 1.327 . S
C1376 C1395 1.429 . S
C1376 H1400 0.950 . S
C1377 C1394 1.574 1_556 S
C1377 C1396 1.368 . S
C1377 H1401 0.949 . S
H1378 C1382 0.949 . S
C1379 C1380 1.349 . S
C1379 C1381 1.327 . S
C1379 H1402 0.950 . S
C1380 C1379 1.349 . S
C1380 C1392 1.349 . S
C1381 C1379 1.327 . S
C1381 C1397 1.429 . S
C1381 H1403 0.950 . S
C1382 H1378 0.949 . S
C1382 C1390 1.574 1_554 S
C1382 C1398 1.368 . S
H1383 C1391 0.950 . S
H1384 C1389 0.950 . S
H1385 C1390 0.949 . S
H1386 C1392 0.950 . S
H1387 C1393 0.950 . S
H1388 C1394 0.949 . S
C1389 H1384 0.950 . S
C1389 C1391 1.327 . S
C1389 C1395 1.429 . S
C1390 C1382 1.574 1_556 S
C1390 H1385 0.949 . S
C1390 C1396 1.368 . S
C1391 C1375 1.349 . S
C1391 H1383 0.950 . S
C1391 C1389 1.327 . S
C1392 C1380 1.349 . S
C1392 H1386 0.950 . S
C1392 C1393 1.327 . S
C1393 H1387 0.950 . S
C1393 C1392 1.327 . S
C1393 C1397 1.429 . S
C1394 C1377 1.574 1_554 S
C1394 H1388 0.949 . S
C1394 C1398 1.368 . S
C1395 C1376 1.429 . S
C1395 C1389 1.429 . S
C1395 C1396 1.523 . S
C1396 C1377 1.368 . S
C1396 C1390 1.368 . S
C1396 C1395 1.523 . S
C1397 C1381 1.429 . S
C1397 C1393 1.429 . S
C1397 C1398 1.523 . S
C1398 C1382 1.368 . S
C1398 C1394 1.368 . S
C1398 C1397 1.523 . S
H1399 C1374 0.950 . S
H1400 C1376 0.950 . S
H1401 C1377 0.949 . S
H1402 C1379 0.950 . S
H1403 C1381 0.950 . S
C1404 C1405 1.349 . S
C1404 C1406 1.327 . S
C1404 H1429 0.950 . S
C1405 C1404 1.349 . S
C1405 C1421 1.349 . S
C1406 C1404 1.327 . S
C1406 C1425 1.429 . S
C1406 H1430 0.950 . S
C1407 C1424 1.574 . S
C1407 C1426 1.368 . S
C1407 H1431 0.949 . S
H1408 C1412 0.949 . S
C1409 C1410 1.349 . S
C1409 C1411 1.327 . S
C1409 H1432 0.950 . S
C1410 C1409 1.349 . S
C1410 C1422 1.349 . S
C1411 C1409 1.327 . S
C1411 C1427 1.429 . S
C1411 H1433 0.950 . S
C1412 H1408 0.949 . S
C1412 C1420 1.574 . S
C1412 C1428 1.368 . S
H1413 C1421 0.950 . S
H1414 C1419 0.950 . S
H1415 C1420 0.949 1_554 S
H1416 C1422 0.950 . S
H1417 C1423 0.950 . S
H1418 C1424 0.949 . S
C1419 H1414 0.950 . S
C1419 C1421 1.327 1_556 S
C1419 C1425 1.429 1_556 S
C1420 C1412 1.574 . S
C1420 H1415 0.949 1_556 S
C1420 C1426 1.368 . S
C1421 C1405 1.349 . S
C1421 H1413 0.950 . S
C1421 C1419 1.327 1_554 S
C1422 C1410 1.349 . S
C1422 H1416 0.950 . S
C1422 C1423 1.327 . S
C1423 H1417 0.950 . S
C1423 C1422 1.327 . S
C1423 C1427 1.429 . S
C1424 C1407 1.574 . S
C1424 H1418 0.949 . S
C1424 C1428 1.368 . S
C1425 C1406 1.429 . S
C1425 C1419 1.429 1_554 S
C1425 C1426 1.523 1_554 S
C1426 C1407 1.368 . S
C1426 C1420 1.368 . S
C1426 C1425 1.523 1_556 S
C1427 C1411 1.429 . S
C1427 C1423 1.429 . S
C1427 C1428 1.523 . S
C1428 C1412 1.368 . S
C1428 C1424 1.368 . S
C1428 C1427 1.523 . S
H1429 C1404 0.950 . S
H1430 C1406 0.950 . S
H1431 C1407 0.949 . S
H1432 C1409 0.950 . S
H1433 C1411 0.950 . S
C1434 C1435 1.349 . S
C1434 C1436 1.327 . S
C1434 H1459 0.950 . S
C1435 C1434 1.349 . S
C1435 C1451 1.349 . S
C1436 C1434 1.327 . S
C1436 C1455 1.429 . S
C1436 H1460 0.950 . S
C1437 C1454 1.574 . S
C1437 C1456 1.368 . S
C1437 H1461 0.949 . S
H1438 C1442 0.949 . S
C1439 C1440 1.349 1_556 S
C1439 C1441 1.327 . S
C1439 H1462 0.962 . S
C1440 C1439 1.349 1_554 S
C1440 C1452 1.349 . S
C1441 C1439 1.327 . S
C1441 C1457 1.429 1_556 S
C1441 H1463 0.950 . S
C1442 H1438 0.949 . S
C1442 C1450 1.574 1_554 S
C1442 C1458 1.368 1_554 S
H1443 C1451 0.950 . S
H1444 C1449 0.950 . S
H1445 C1450 0.949 1_554 S
H1446 C1452 0.950 . S
H1447 C1453 0.950 . S
H1448 C1454 0.949 . S
C1449 H1444 0.950 . S
C1449 C1451 1.327 . S
C1449 C1455 1.429 . S
C1450 C1442 1.574 1_556 S
C1450 H1445 0.949 1_556 S
C1450 C1456 1.368 . S
C1451 C1435 1.349 . S
C1451 H1443 0.950 . S
C1451 C1449 1.327 . S
C1452 C1440 1.349 . S
C1452 H1446 0.950 . S
C1452 C1453 1.327 . S
C1453 H1447 0.950 . S
C1453 C1452 1.327 . S
C1453 C1457 1.429 . S
C1454 C1437 1.574 . S
C1454 H1448 0.949 . S
C1454 C1458 1.368 . S
C1455 C1436 1.429 . S
C1455 C1449 1.429 . S
C1455 C1456 1.523 . S
C1456 C1437 1.368 . S
C1456 C1450 1.368 . S
C1456 C1455 1.523 . S
C1457 C1441 1.429 1_554 S
C1457 C1453 1.429 . S
C1457 C1458 1.523 1_554 S
C1458 C1442 1.368 1_556 S
C1458 C1454 1.368 . S
C1458 C1457 1.523 1_556 S
H1459 C1434 0.950 . S
H1460 C1436 0.950 . S
H1461 C1437 0.949 . S
H1462 C1439 0.962 . S
H1463 C1441 0.950 . S
C1464 C1465 1.349 1_556 S
C1464 C1466 1.327 . S
C1464 H1489 0.963 . S
C1465 C1464 1.349 1_554 S
C1465 C1481 1.349 . S
C1466 C1464 1.327 . S
C1466 C1485 1.429 1_556 S
C1466 H1490 0.950 . S
C1467 C1484 1.574 1_554 S
C1467 C1486 1.368 1_554 S
C1467 H1491 0.949 . S
H1468 C1472 0.949 . S
C1469 C1470 1.349 . S
C1469 C1471 1.327 . S
C1469 H1492 0.950 . S
C1470 C1469 1.349 . S
C1470 C1482 1.349 . S
C1471 C1469 1.327 . S
C1471 C1487 1.429 . S
C1471 H1493 0.950 . S
C1472 H1468 0.949 . S
C1472 C1480 1.574 . S
C1472 C1488 1.368 . S
H1473 C1481 0.950 . S
H1474 C1479 0.950 . S
H1475 C1480 0.949 . S
H1476 C1482 0.950 . S
H1477 C1483 0.950 . S
H1478 C1484 0.949 1_554 S
C1479 H1474 0.950 . S
C1479 C1481 1.327 . S
C1479 C1485 1.429 . S
C1480 C1472 1.574 . S
C1480 H1475 0.949 . S
C1480 C1486 1.368 . S
C1481 C1465 1.349 . S
C1481 H1473 0.950 . S
C1481 C1479 1.327 . S
C1482 C1470 1.349 . S
C1482 H1476 0.950 . S
C1482 C1483 1.327 . S
C1483 H1477 0.950 . S
C1483 C1482 1.327 . S
C1483 C1487 1.429 . S
C1484 C1467 1.574 1_556 S
C1484 H1478 0.949 1_556 S
C1484 C1488 1.368 . S
C1485 C1466 1.429 1_554 S
C1485 C1479 1.429 . S
C1485 C1486 1.523 1_554 S
C1486 C1467 1.368 1_556 S
C1486 C1480 1.368 . S
C1486 C1485 1.523 1_556 S
C1487 C1471 1.429 . S
C1487 C1483 1.429 . S
C1487 C1488 1.523 . S
C1488 C1472 1.368 . S
C1488 C1484 1.368 . S
C1488 C1487 1.523 . S
H1489 C1464 0.963 . S
H1490 C1466 0.950 . S
H1491 C1467 0.949 . S
H1492 C1469 0.950 . S
H1493 C1471 0.950 . S
C1494 C1495 1.349 . S
C1494 C1496 1.327 . S
C1494 H1519 0.950 . S
C1495 C1494 1.349 . S
C1495 C1511 1.349 . S
C1496 C1494 1.327 . S
C1496 C1515 1.429 . S
C1496 H1520 0.950 . S
C1497 C1514 1.574 . S
C1497 C1516 1.368 . S
C1497 H1521 0.949 . S
H1498 C1502 0.949 . S
C1499 C1500 1.349 1_554 S
C1499 C1501 1.327 . S
C1499 H1522 0.950 . S
C1500 C1499 1.349 1_556 S
C1500 C1512 1.349 . S
C1501 C1499 1.327 . S
C1501 C1517 1.429 1_554 S
C1501 H1523 0.950 . S
C1502 H1498 0.949 . S
C1502 C1510 1.574 1_556 S
C1502 C1518 1.368 1_556 S
H1503 C1511 0.950 . S
H1504 C1509 0.950 . S
H1505 C1510 0.949 1_556 S
H1506 C1512 0.950 . S
H1507 C1513 0.950 . S
H1508 C1514 0.949 . S
C1509 H1504 0.950 . S
C1509 C1511 1.327 . S
C1509 C1515 1.429 . S
C1510 C1502 1.574 1_554 S
C1510 H1505 0.949 1_554 S
C1510 C1516 1.368 . S
C1511 C1495 1.349 . S
C1511 H1503 0.950 . S
C1511 C1509 1.327 . S
C1512 C1500 1.349 . S
C1512 H1506 0.950 . S
C1512 C1513 1.327 . S
C1513 H1507 0.950 . S
C1513 C1512 1.327 . S
C1513 C1517 1.429 . S
C1514 C1497 1.574 . S
C1514 H1508 0.949 . S
C1514 C1518 1.368 . S
C1515 C1496 1.429 . S
C1515 C1509 1.429 . S
C1515 C1516 1.523 . S
C1516 C1497 1.368 . S
C1516 C1510 1.368 . S
C1516 C1515 1.523 . S
C1517 C1501 1.429 1_556 S
C1517 C1513 1.429 . S
C1517 C1518 1.523 1_556 S
C1518 C1502 1.368 1_554 S
C1518 C1514 1.368 . S
C1518 C1517 1.523 1_554 S
H1519 C1494 0.950 . S
H1520 C1496 0.950 . S
H1521 C1497 0.949 . S
H1522 C1499 0.950 . S
H1523 C1501 0.950 . S
C1524 C1525 1.349 . S
C1524 C1526 1.324 1_556 S
C1524 H1549 1.014 . S
C1525 C1524 1.349 . S
C1525 C1541 1.349 . S
C1526 C1524 1.324 1_554 S
C1526 C1545 1.428 1_554 S
C1526 H1550 0.953 . S
C1527 C1544 1.574 . S
C1527 C1546 1.368 . S
C1527 H1551 0.949 1_554 S
H1528 C1532 0.949 . S
C1529 C1530 1.349 . S
C1529 C1531 1.327 . S
C1529 H1552 0.950 . S
C1530 C1529 1.349 . S
C1530 C1542 1.349 . S
C1531 C1529 1.327 . S
C1531 C1547 1.429 . S
C1531 H1553 0.950 . S
C1532 H1528 0.949 . S
C1532 C1540 1.574 . S
C1532 C1548 1.368 . S
H1533 C1541 0.950 . S
H1534 C1539 0.950 . S
H1535 C1540 0.949 . S
H1536 C1542 0.950 . S
H1537 C1543 0.950 . S
H1538 C1544 0.949 . S
C1539 H1534 0.950 . S
C1539 C1541 1.327 . S
C1539 C1545 1.429 . S
C1540 C1532 1.574 . S
C1540 H1535 0.949 . S
C1540 C1546 1.368 . S
C1541 C1525 1.349 . S
C1541 H1533 0.950 . S
C1541 C1539 1.327 . S
C1542 C1530 1.349 . S
C1542 H1536 0.950 . S
C1542 C1543 1.327 . S
C1543 H1537 0.950 . S
C1543 C1542 1.327 . S
C1543 C1547 1.429 . S
C1544 C1527 1.574 . S
C1544 H1538 0.949 . S
C1544 C1548 1.368 . S
C1545 C1526 1.428 1_556 S
C1545 C1539 1.429 . S
C1545 C1546 1.523 1_556 S
C1546 C1527 1.368 . S
C1546 C1540 1.368 . S
C1546 C1545 1.523 1_554 S
C1547 C1531 1.429 . S
C1547 C1543 1.429 . S
C1547 C1548 1.523 . S
C1548 C1532 1.368 . S
C1548 C1544 1.368 . S
C1548 C1547 1.523 . S
H1549 C1524 1.014 . S
H1550 C1526 0.953 . S
H1551 C1527 0.949 1_556 S
H1552 C1529 0.950 . S
H1553 C1531 0.950 . S
C1554 C1555 1.349 . S
C1554 C1556 1.327 . S
C1554 H1579 0.950 . S
C1555 C1554 1.349 . S
C1555 C1571 1.349 . S
C1556 C1554 1.327 . S
C1556 C1575 1.429 . S
C1556 H1580 0.950 . S
C1557 C1574 1.574 . S
C1557 C1576 1.368 . S
C1557 H1581 0.949 . S
H1558 C1562 0.949 . S
C1559 C1560 1.349 1_554 S
C1559 C1561 1.327 . S
C1559 H1582 0.985 . S
C1560 C1559 1.349 1_556 S
C1560 C1572 1.349 . S
C1561 C1559 1.327 . S
C1561 C1577 1.429 1_554 S
C1561 H1583 0.950 . S
C1562 H1558 0.949 . S
C1562 C1570 1.574 1_556 S
C1562 C1578 1.368 1_556 S
H1563 C1571 0.950 . S
H1564 C1569 0.950 . S
H1565 C1570 0.949 1_556 S
H1566 C1572 0.950 . S
H1567 C1573 0.950 . S
H1568 C1574 0.949 . S
C1569 H1564 0.950 . S
C1569 C1571 1.327 . S
C1569 C1575 1.429 . S
C1570 C1562 1.574 1_554 S
C1570 H1565 0.949 1_554 S
C1570 C1576 1.368 . S
C1571 C1555 1.349 . S
C1571 H1563 0.950 . S
C1571 C1569 1.327 . S
C1572 C1560 1.349 . S
C1572 H1566 0.950 . S
C1572 C1573 1.327 . S
C1573 H1567 0.950 . S
C1573 C1572 1.327 . S
C1573 C1577 1.429 . S
C1574 C1557 1.574 . S
C1574 H1568 0.949 . S
C1574 C1578 1.368 . S
C1575 C1556 1.429 . S
C1575 C1569 1.429 . S
C1575 C1576 1.523 . S
C1576 C1557 1.368 . S
C1576 C1570 1.368 . S
C1576 C1575 1.523 . S
C1577 C1561 1.429 1_556 S
C1577 C1573 1.429 . S
C1577 C1578 1.523 1_556 S
C1578 C1562 1.368 1_554 S
C1578 C1574 1.368 . S
C1578 C1577 1.523 1_554 S
H1579 C1554 0.950 . S
H1580 C1556 0.950 . S
H1581 C1557 0.949 . S
H1582 C1559 0.985 . S
H1583 C1561 0.950 . S
C1584 C1585 1.349 . S
C1584 C1586 1.327 . S
C1584 H1609 0.950 . S
C1585 C1584 1.349 . S
C1585 C1601 1.349 . S
C1586 C1584 1.327 . S
C1586 C1605 1.429 . S
C1586 H1610 0.950 . S
C1587 C1604 1.574 . S
C1587 C1606 1.368 . S
C1587 H1611 0.949 . S
H1588 C1592 0.949 . S
C1589 C1590 1.349 . S
C1589 C1591 1.327 . S
C1589 H1612 0.950 . S
C1590 C1589 1.349 . S
C1590 C1602 1.349 . S
C1591 C1589 1.327 . S
C1591 C1607 1.429 . S
C1591 H1613 0.950 . S
C1592 H1588 0.949 . S
C1592 C1600 1.574 . S
C1592 C1608 1.368 . S
H1593 C1601 0.950 . S
H1594 C1599 0.950 . S
H1595 C1600 0.949 . S
H1596 C1602 0.950 . S
H1597 C1603 0.950 . S
H1598 C1604 0.949 . S
C1599 H1594 0.950 . S
C1599 C1601 1.327 . S
C1599 C1605 1.429 . S
C1600 C1592 1.574 . S
C1600 H1595 0.949 . S
C1600 C1606 1.368 . S
C1601 C1585 1.349 . S
C1601 H1593 0.950 . S
C1601 C1599 1.327 . S
C1602 C1590 1.349 . S
C1602 H1596 0.950 . S
C1602 C1603 1.327 . S
C1603 H1597 0.950 . S
C1603 C1602 1.327 . S
C1603 C1607 1.429 . S
C1604 C1587 1.574 . S
C1604 H1598 0.949 . S
C1604 C1608 1.368 . S
C1605 C1586 1.429 . S
C1605 C1599 1.429 . S
C1605 C1606 1.523 . S
C1606 C1587 1.368 . S
C1606 C1600 1.368 . S
C1606 C1605 1.523 . S
C1607 C1591 1.429 . S
C1607 C1603 1.429 . S
C1607 C1608 1.523 . S
C1608 C1592 1.368 . S
C1608 C1604 1.368 . S
C1608 C1607 1.523 . S
H1609 C1584 0.950 . S
H1610 C1586 0.950 . S
H1611 C1587 0.949 . S
H1612 C1589 0.950 . S
H1613 C1591 0.950 . S
C1614 C1615 1.349 . S
C1614 C1616 1.327 . S
C1614 H1639 0.950 . S
C1615 C1614 1.349 . S
C1615 C1631 1.349 . S
C1616 C1614 1.327 . S
C1616 C1635 1.429 . S
C1616 H1640 0.950 . S
C1617 C1634 1.574 . S
C1617 C1636 1.368 . S
C1617 H1641 0.949 . S
H1618 C1622 0.949 . S
C1619 C1620 1.349 . S
C1619 C1621 1.327 . S
C1619 H1642 0.950 . S
C1620 C1619 1.349 . S
C1620 C1632 1.349 . S
C1621 C1619 1.327 . S
C1621 C1637 1.429 . S
C1621 H1643 0.950 . S
C1622 H1618 0.949 . S
C1622 C1630 1.574 . S
C1622 C1638 1.368 . S
H1623 C1631 0.950 . S
H1624 C1629 0.950 . S
H1625 C1630 0.949 . S
H1626 C1632 0.950 . S
H1627 C1633 0.950 . S
H1628 C1634 0.949 . S
C1629 H1624 0.950 . S
C1629 C1631 1.327 . S
C1629 C1635 1.429 . S
C1630 C1622 1.574 . S
C1630 H1625 0.949 . S
C1630 C1636 1.368 . S
C1631 C1615 1.349 . S
C1631 H1623 0.950 . S
C1631 C1629 1.327 . S
C1632 C1620 1.349 . S
C1632 H1626 0.950 . S
C1632 C1633 1.327 . S
C1633 H1627 0.950 . S
C1633 C1632 1.327 . S
C1633 C1637 1.429 . S
C1634 C1617 1.574 . S
C1634 H1628 0.949 . S
C1634 C1638 1.368 . S
C1635 C1616 1.429 . S
C1635 C1629 1.429 . S
C1635 C1636 1.523 . S
C1636 C1617 1.368 . S
C1636 C1630 1.368 . S
C1636 C1635 1.523 . S
C1637 C1621 1.429 . S
C1637 C1633 1.429 . S
C1637 C1638 1.523 . S
C1638 C1622 1.368 . S
C1638 C1634 1.368 . S
C1638 C1637 1.523 . S
H1639 C1614 0.950 . S
H1640 C1616 0.950 . S
H1641 C1617 0.949 . S
H1642 C1619 0.950 . S
H1643 C1621 0.950 . S
C1644 C1645 1.349 . S
C1644 C1646 1.327 . S
C1644 H1669 0.950 . S
C1645 C1644 1.349 . S
C1645 C1661 1.349 . S
C1646 C1644 1.327 . S
C1646 C1665 1.429 . S
C1646 H1670 0.950 . S
C1647 C1664 1.574 . S
C1647 C1666 1.368 . S
C1647 H1671 0.949 . S
H1648 C1652 0.949 . S
C1649 C1650 1.349 . S
C1649 C1651 1.327 . S
C1649 H1672 0.950 . S
C1650 C1649 1.349 . S
C1650 C1662 1.349 . S
C1651 C1649 1.327 . S
C1651 C1667 1.429 . S
C1651 H1673 0.950 . S
C1652 H1648 0.949 . S
C1652 C1660 1.574 . S
C1652 C1668 1.368 . S
H1653 C1661 0.950 . S
H1654 C1659 0.950 . S
H1655 C1660 0.949 . S
H1656 C1662 0.950 . S
H1657 C1663 0.950 . S
H1658 C1664 0.949 . S
C1659 H1654 0.950 . S
C1659 C1661 1.327 . S
C1659 C1665 1.429 . S
C1660 C1652 1.574 . S
C1660 H1655 0.949 . S
C1660 C1666 1.368 . S
C1661 C1645 1.349 . S
C1661 H1653 0.950 . S
C1661 C1659 1.327 . S
C1662 C1650 1.349 . S
C1662 H1656 0.950 . S
C1662 C1663 1.327 . S
C1663 H1657 0.950 . S
C1663 C1662 1.327 . S
C1663 C1667 1.429 . S
C1664 C1647 1.574 . S
C1664 H1658 0.949 . S
C1664 C1668 1.368 . S
C1665 C1646 1.429 . S
C1665 C1659 1.429 . S
C1665 C1666 1.523 . S
C1666 C1647 1.368 . S
C1666 C1660 1.368 . S
C1666 C1665 1.523 . S
C1667 C1651 1.429 . S
C1667 C1663 1.429 . S
C1667 C1668 1.523 . S
C1668 C1652 1.368 . S
C1668 C1664 1.368 . S
C1668 C1667 1.523 . S
H1669 C1644 0.950 . S
H1670 C1646 0.950 . S
H1671 C1647 0.949 . S
H1672 C1649 0.950 . S
H1673 C1651 0.950 . S
C1674 C1675 1.349 . S
C1674 C1676 1.327 . S
C1674 H1699 0.950 . S
C1675 C1674 1.349 . S
C1675 C1691 1.349 . S
C1676 C1674 1.327 . S
C1676 C1695 1.429 . S
C1676 H1700 0.950 . S
C1677 C1694 1.574 . S
C1677 C1696 1.368 . S
C1677 H1701 0.949 . S
H1678 C1682 0.949 . S
C1679 C1680 1.349 . S
C1679 C1681 1.327 . S
C1679 H1702 0.950 . S
C1680 C1679 1.349 . S
C1680 C1692 1.349 . S
C1681 C1679 1.327 . S
C1681 C1697 1.429 . S
C1681 H1703 0.950 . S
C1682 H1678 0.949 . S
C1682 C1690 1.574 . S
C1682 C1698 1.368 . S
H1683 C1691 0.950 . S
H1684 C1689 0.950 . S
H1685 C1690 0.949 . S
H1686 C1692 0.950 . S
H1687 C1693 0.950 . S
H1688 C1694 0.949 . S
C1689 H1684 0.950 . S
C1689 C1691 1.327 . S
C1689 C1695 1.429 . S
C1690 C1682 1.574 . S
C1690 H1685 0.949 . S
C1690 C1696 1.368 . S
C1691 C1675 1.349 . S
C1691 H1683 0.950 . S
C1691 C1689 1.327 . S
C1692 C1680 1.349 . S
C1692 H1686 0.950 . S
C1692 C1693 1.327 . S
C1693 H1687 0.950 . S
C1693 C1692 1.327 . S
C1693 C1697 1.429 . S
C1694 C1677 1.574 . S
C1694 H1688 0.949 . S
C1694 C1698 1.368 . S
C1695 C1676 1.429 . S
C1695 C1689 1.429 . S
C1695 C1696 1.523 . S
C1696 C1677 1.368 . S
C1696 C1690 1.368 . S
C1696 C1695 1.523 . S
C1697 C1681 1.429 . S
C1697 C1693 1.429 . S
C1697 C1698 1.523 . S
C1698 C1682 1.368 . S
C1698 C1694 1.368 . S
C1698 C1697 1.523 . S
H1699 C1674 0.950 . S
H1700 C1676 0.950 . S
H1701 C1677 0.949 . S
H1702 C1679 0.950 . S
H1703 C1681 0.950 . S
C1704 C1705 1.349 . S
C1704 C1706 1.327 . S
C1704 H1729 0.950 . S
C1705 C1704 1.349 . S
C1705 C1721 1.349 . S
C1706 C1704 1.327 . S
C1706 C1725 1.429 . S
C1706 H1730 0.950 . S
C1707 C1724 1.574 . S
C1707 C1726 1.368 . S
C1707 H1731 0.949 . S
H1708 C1712 0.949 . S
C1709 C1710 1.349 . S
C1709 C1711 1.327 . S
C1709 H1732 0.950 . S
C1710 C1709 1.349 . S
C1710 C1722 1.349 . S
C1711 C1709 1.327 . S
C1711 C1727 1.429 . S
C1711 H1733 0.950 . S
C1712 H1708 0.949 . S
C1712 C1720 1.574 . S
C1712 C1728 1.368 . S
H1713 C1721 0.950 . S
H1714 C1719 0.950 . S
H1715 C1720 0.949 . S
H1716 C1722 0.950 . S
H1717 C1723 0.950 . S
H1718 C1724 0.949 . S
C1719 H1714 0.950 . S
C1719 C1721 1.327 . S
C1719 C1725 1.429 . S
C1720 C1712 1.574 . S
C1720 H1715 0.949 . S
C1720 C1726 1.368 . S
C1721 C1705 1.349 . S
C1721 H1713 0.950 . S
C1721 C1719 1.327 . S
C1722 C1710 1.349 . S
C1722 H1716 0.950 . S
C1722 C1723 1.327 . S
C1723 H1717 0.950 . S
C1723 C1722 1.327 . S
C1723 C1727 1.429 . S
C1724 C1707 1.574 . S
C1724 H1718 0.949 . S
C1724 C1728 1.368 . S
C1725 C1706 1.429 . S
C1725 C1719 1.429 . S
C1725 C1726 1.523 . S
C1726 C1707 1.368 . S
C1726 C1720 1.368 . S
C1726 C1725 1.523 . S
C1727 C1711 1.429 . S
C1727 C1723 1.429 . S
C1727 C1728 1.523 . S
C1728 C1712 1.368 . S
C1728 C1724 1.368 . S
C1728 C1727 1.523 . S
H1729 C1704 0.950 . S
H1730 C1706 0.950 . S
H1731 C1707 0.949 . S
H1732 C1709 0.950 . S
H1733 C1711 0.950 . S
C1734 C1735 1.349 . S
C1734 C1736 1.327 . S
C1734 H1759 0.950 . S
C1735 C1734 1.349 . S
C1735 C1751 1.349 . S
C1736 C1734 1.327 . S
C1736 C1755 1.429 . S
C1736 H1760 0.950 . S
C1737 C1754 1.574 . S
C1737 C1756 1.368 . S
C1737 H1761 0.949 . S
H1738 C1742 0.949 . S
C1739 C1740 1.349 . S
C1739 C1741 1.327 . S
C1739 H1762 0.950 . S
C1740 C1739 1.349 . S
C1740 C1752 1.349 . S
C1741 C1739 1.327 . S
C1741 C1757 1.429 . S
C1741 H1763 0.950 . S
C1742 H1738 0.949 . S
C1742 C1750 1.574 . S
C1742 C1758 1.368 . S
H1743 C1751 0.950 . S
H1744 C1749 0.950 . S
H1745 C1750 0.949 . S
H1746 C1752 0.950 . S
H1747 C1753 0.950 . S
H1748 C1754 0.949 . S
C1749 H1744 0.950 . S
C1749 C1751 1.327 . S
C1749 C1755 1.429 . S
C1750 C1742 1.574 . S
C1750 H1745 0.949 . S
C1750 C1756 1.368 . S
C1751 C1735 1.349 . S
C1751 H1743 0.950 . S
C1751 C1749 1.327 . S
C1752 C1740 1.349 . S
C1752 H1746 0.950 . S
C1752 C1753 1.327 . S
C1753 H1747 0.950 . S
C1753 C1752 1.327 . S
C1753 C1757 1.429 . S
C1754 C1737 1.574 . S
C1754 H1748 0.949 . S
C1754 C1758 1.368 . S
C1755 C1736 1.429 . S
C1755 C1749 1.429 . S
C1755 C1756 1.523 . S
C1756 C1737 1.368 . S
C1756 C1750 1.368 . S
C1756 C1755 1.523 . S
C1757 C1741 1.429 . S
C1757 C1753 1.429 . S
C1757 C1758 1.523 . S
C1758 C1742 1.368 . S
C1758 C1754 1.368 . S
C1758 C1757 1.523 . S
H1759 C1734 0.950 . S
H1760 C1736 0.950 . S
H1761 C1737 0.949 . S
H1762 C1739 0.950 . S
H1763 C1741 0.950 . S
C1764 C1765 1.349 . S
C1764 C1766 1.327 . S
C1764 H1789 0.950 . S
C1765 C1764 1.349 . S
C1765 C1781 1.349 . S
C1766 C1764 1.327 . S
C1766 C1785 1.429 . S
C1766 H1790 0.950 . S
C1767 C1784 1.574 . S
C1767 C1786 1.368 . S
C1767 H1791 0.949 . S
H1768 C1772 0.949 . S
C1769 C1770 1.349 . S
C1769 C1771 1.327 . S
C1769 H1792 0.950 . S
C1770 C1769 1.349 . S
C1770 C1782 1.349 . S
C1771 C1769 1.327 . S
C1771 C1787 1.429 . S
C1771 H1793 0.950 . S
C1772 H1768 0.949 . S
C1772 C1780 1.574 . S
C1772 C1788 1.368 . S
H1773 C1781 0.950 . S
H1774 C1779 0.950 . S
H1775 C1780 0.949 . S
H1776 C1782 0.950 . S
H1777 C1783 0.950 . S
H1778 C1784 0.949 . S
C1779 H1774 0.950 . S
C1779 C1781 1.327 . S
C1779 C1785 1.429 . S
C1780 C1772 1.574 . S
C1780 H1775 0.949 . S
C1780 C1786 1.368 . S
C1781 C1765 1.349 . S
C1781 H1773 0.950 . S
C1781 C1779 1.327 . S
C1782 C1770 1.349 . S
C1782 H1776 0.950 . S
C1782 C1783 1.327 . S
C1783 H1777 0.950 . S
C1783 C1782 1.327 . S
C1783 C1787 1.429 . S
C1784 C1767 1.574 . S
C1784 H1778 0.949 . S
C1784 C1788 1.368 . S
C1785 C1766 1.429 . S
C1785 C1779 1.429 . S
C1785 C1786 1.523 . S
C1786 C1767 1.368 . S
C1786 C1780 1.368 . S
C1786 C1785 1.523 . S
C1787 C1771 1.429 . S
C1787 C1783 1.429 . S
C1787 C1788 1.523 . S
C1788 C1772 1.368 . S
C1788 C1784 1.368 . S
C1788 C1787 1.523 . S
H1789 C1764 0.950 . S
H1790 C1766 0.950 . S
H1791 C1767 0.949 . S
H1792 C1769 0.950 . S
H1793 C1771 0.950 . S
C1794 C1795 1.349 . S
C1794 C1796 1.327 . S
C1794 H1819 0.950 . S
C1795 C1794 1.349 . S
C1795 C1811 1.349 . S
C1796 C1794 1.327 . S
C1796 C1815 1.429 . S
C1796 H1820 0.950 . S
C1797 C1814 1.574 . S
C1797 C1816 1.368 . S
C1797 H1821 0.949 . S
H1798 C1802 0.949 . S
C1799 C1800 1.349 . S
C1799 C1801 1.327 . S
C1799 H1822 0.950 . S
C1800 C1799 1.349 . S
C1800 C1812 1.349 . S
C1801 C1799 1.327 . S
C1801 C1817 1.429 . S
C1801 H1823 0.950 . S
C1802 H1798 0.949 . S
C1802 C1810 1.574 . S
C1802 C1818 1.368 . S
H1803 C1811 0.950 . S
H1804 C1809 0.950 . S
H1805 C1810 0.949 . S
H1806 C1812 0.950 . S
H1807 C1813 0.950 . S
H1808 C1814 0.949 . S
C1809 H1804 0.950 . S
C1809 C1811 1.327 . S
C1809 C1815 1.429 . S
C1810 C1802 1.574 . S
C1810 H1805 0.949 . S
C1810 C1816 1.368 . S
C1811 C1795 1.349 . S
C1811 H1803 0.950 . S
C1811 C1809 1.327 . S
C1812 C1800 1.349 . S
C1812 H1806 0.950 . S
C1812 C1813 1.327 . S
C1813 H1807 0.950 . S
C1813 C1812 1.327 . S
C1813 C1817 1.429 . S
C1814 C1797 1.574 . S
C1814 H1808 0.949 . S
C1814 C1818 1.368 . S
C1815 C1796 1.429 . S
C1815 C1809 1.429 . S
C1815 C1816 1.523 . S
C1816 C1797 1.368 . S
C1816 C1810 1.368 . S
C1816 C1815 1.523 . S
C1817 C1801 1.429 . S
C1817 C1813 1.429 . S
C1817 C1818 1.523 . S
C1818 C1802 1.368 . S
C1818 C1814 1.368 . S
C1818 C1817 1.523 . S
H1819 C1794 0.950 . S
H1820 C1796 0.950 . S
H1821 C1797 0.949 . S
H1822 C1799 0.950 . S
H1823 C1801 0.950 . S
C1824 C1825 1.349 . S
C1824 C1826 1.327 . S
C1824 H1849 0.950 . S
C1825 C1824 1.349 . S
C1825 C1841 1.349 . S
C1826 C1824 1.327 . S
C1826 C1845 1.429 . S
C1826 H1850 0.950 . S
C1827 C1844 1.574 . S
C1827 C1846 1.368 . S
C1827 H1851 0.949 . S
H1828 C1832 0.949 . S
C1829 C1830 1.349 . S
C1829 C1831 1.327 . S
C1829 H1852 0.950 . S
C1830 C1829 1.349 . S
C1830 C1842 1.349 . S
C1831 C1829 1.327 . S
C1831 C1847 1.429 . S
C1831 H1853 0.950 . S
C1832 H1828 0.949 . S
C1832 C1840 1.574 . S
C1832 C1848 1.368 . S
H1833 C1841 0.950 . S
H1834 C1839 0.950 . S
H1835 C1840 0.949 . S
H1836 C1842 0.950 . S
H1837 C1843 0.950 . S
H1838 C1844 0.949 . S
C1839 H1834 0.950 . S
C1839 C1841 1.327 . S
C1839 C1845 1.429 . S
C1840 C1832 1.574 . S
C1840 H1835 0.949 . S
C1840 C1846 1.368 . S
C1841 C1825 1.349 . S
C1841 H1833 0.950 . S
C1841 C1839 1.327 . S
C1842 C1830 1.349 . S
C1842 H1836 0.950 . S
C1842 C1843 1.327 . S
C1843 H1837 0.950 . S
C1843 C1842 1.327 . S
C1843 C1847 1.429 . S
C1844 C1827 1.574 . S
C1844 H1838 0.949 . S
C1844 C1848 1.368 . S
C1845 C1826 1.429 . S
C1845 C1839 1.429 . S
C1845 C1846 1.523 . S
C1846 C1827 1.368 . S
C1846 C1840 1.368 . S
C1846 C1845 1.523 . S
C1847 C1831 1.429 . S
C1847 C1843 1.429 . S
C1847 C1848 1.523 . S
C1848 C1832 1.368 . S
C1848 C1844 1.368 . S
C1848 C1847 1.523 . S
H1849 C1824 0.950 . S
H1850 C1826 0.950 . S
H1851 C1827 0.949 . S
H1852 C1829 0.950 . S
H1853 C1831 0.950 . S
C1854 C1855 1.349 . S
C1854 C1856 1.327 . S
C1854 H1879 0.950 . S
C1855 C1854 1.349 . S
C1855 C1871 1.349 . S
C1856 C1854 1.327 . S
C1856 C1875 1.429 . S
C1856 H1880 0.950 . S
C1857 C1874 1.574 . S
C1857 C1876 1.368 . S
C1857 H1881 0.949 . S
H1858 C1862 0.949 . S
C1859 C1860 1.349 . S
C1859 C1861 1.327 . S
C1859 H1882 0.950 . S
C1860 C1859 1.349 . S
C1860 C1872 1.349 . S
C1861 C1859 1.327 . S
C1861 C1877 1.429 . S
C1861 H1883 0.950 . S
C1862 H1858 0.949 . S
C1862 C1870 1.574 . S
C1862 C1878 1.368 . S
H1863 C1871 0.950 . S
H1864 C1869 0.950 . S
H1865 C1870 0.949 . S
H1866 C1872 0.950 . S
H1867 C1873 0.950 . S
H1868 C1874 0.949 . S
C1869 H1864 0.950 . S
C1869 C1871 1.327 . S
C1869 C1875 1.429 . S
C1870 C1862 1.574 . S
C1870 H1865 0.949 . S
C1870 C1876 1.368 . S
C1871 C1855 1.349 . S
C1871 H1863 0.950 . S
C1871 C1869 1.327 . S
C1872 C1860 1.349 . S
C1872 H1866 0.950 . S
C1872 C1873 1.327 . S
C1873 H1867 0.950 . S
C1873 C1872 1.327 . S
C1873 C1877 1.429 . S
C1874 C1857 1.574 . S
C1874 H1868 0.949 . S
C1874 C1878 1.368 . S
C1875 C1856 1.429 . S
C1875 C1869 1.429 . S
C1875 C1876 1.523 . S
C1876 C1857 1.368 . S
C1876 C1870 1.368 . S
C1876 C1875 1.523 . S
C1877 C1861 1.429 . S
C1877 C1873 1.429 . S
C1877 C1878 1.523 . S
C1878 C1862 1.368 . S
C1878 C1874 1.368 . S
C1878 C1877 1.523 . S
H1879 C1854 0.950 . S
H1880 C1856 0.950 . S
H1881 C1857 0.949 . S
H1882 C1859 0.950 . S
H1883 C1861 0.950 . S
C1884 C1885 1.349 . S
C1884 C1886 1.327 . S
C1884 H1909 0.950 . S
C1885 C1884 1.349 . S
C1885 C1901 1.349 . S
C1886 C1884 1.327 . S
C1886 C1905 1.429 . S
C1886 H1910 0.950 . S
C1887 C1904 1.574 . S
C1887 C1906 1.368 . S
C1887 H1911 0.949 . S
H1888 C1892 0.949 . S
C1889 C1890 1.349 . S
C1889 C1891 1.327 . S
C1889 H1912 0.950 . S
C1890 C1889 1.349 . S
C1890 C1902 1.349 . S
C1891 C1889 1.327 . S
C1891 C1907 1.429 . S
C1891 H1913 0.950 . S
C1892 H1888 0.949 . S
C1892 C1900 1.574 . S
C1892 C1908 1.368 . S
H1893 C1901 0.950 . S
H1894 C1899 0.950 . S
H1895 C1900 0.949 . S
H1896 C1902 0.950 . S
H1897 C1903 0.950 . S
H1898 C1904 0.949 . S
C1899 H1894 0.950 . S
C1899 C1901 1.327 . S
C1899 C1905 1.429 . S
C1900 C1892 1.574 . S
C1900 H1895 0.949 . S
C1900 C1906 1.368 . S
C1901 C1885 1.349 . S
C1901 H1893 0.950 . S
C1901 C1899 1.327 . S
C1902 C1890 1.349 . S
C1902 H1896 0.950 . S
C1902 C1903 1.327 . S
C1903 H1897 0.950 . S
C1903 C1902 1.327 . S
C1903 C1907 1.429 . S
C1904 C1887 1.574 . S
C1904 H1898 0.949 . S
C1904 C1908 1.368 . S
C1905 C1886 1.429 . S
C1905 C1899 1.429 . S
C1905 C1906 1.523 . S
C1906 C1887 1.368 . S
C1906 C1900 1.368 . S
C1906 C1905 1.523 . S
C1907 C1891 1.429 . S
C1907 C1903 1.429 . S
C1907 C1908 1.523 . S
C1908 C1892 1.368 . S
C1908 C1904 1.368 . S
C1908 C1907 1.523 . S
H1909 C1884 0.950 . S
H1910 C1886 0.950 . S
H1911 C1887 0.949 . S
H1912 C1889 0.950 . S
H1913 C1891 0.950 . S
C1914 C1915 1.349 . S
C1914 C1916 1.327 . S
C1914 H1939 0.950 . S
C1915 C1914 1.349 . S
C1915 C1931 1.349 . S
C1916 C1914 1.327 . S
C1916 C1935 1.429 . S
C1916 H1940 0.950 . S
C1917 C1934 1.574 . S
C1917 C1936 1.368 . S
C1917 H1941 0.949 . S
H1918 C1922 0.949 . S
C1919 C1920 1.349 . S
C1919 C1921 1.327 . S
C1919 H1942 0.950 . S
C1920 C1919 1.349 . S
C1920 C1932 1.349 . S
C1921 C1919 1.327 . S
C1921 C1937 1.429 . S
C1921 H1943 0.950 . S
C1922 H1918 0.949 . S
C1922 C1930 1.574 . S
C1922 C1938 1.368 . S
H1923 C1931 0.950 . S
H1924 C1929 0.950 . S
H1925 C1930 0.949 . S
H1926 C1932 0.950 . S
H1927 C1933 0.950 . S
H1928 C1934 0.949 . S
C1929 H1924 0.950 . S
C1929 C1931 1.327 . S
C1929 C1935 1.429 . S
C1930 C1922 1.574 . S
C1930 H1925 0.949 . S
C1930 C1936 1.368 . S
C1931 C1915 1.349 . S
C1931 H1923 0.950 . S
C1931 C1929 1.327 . S
C1932 C1920 1.349 . S
C1932 H1926 0.950 . S
C1932 C1933 1.327 . S
C1933 H1927 0.950 . S
C1933 C1932 1.327 . S
C1933 C1937 1.429 . S
C1934 C1917 1.574 . S
C1934 H1928 0.949 . S
C1934 C1938 1.368 . S
C1935 C1916 1.429 . S
C1935 C1929 1.429 . S
C1935 C1936 1.523 . S
C1936 C1917 1.368 . S
C1936 C1930 1.368 . S
C1936 C1935 1.523 . S
C1937 C1921 1.429 . S
C1937 C1933 1.429 . S
C1937 C1938 1.523 . S
C1938 C1922 1.368 . S
C1938 C1934 1.368 . S
C1938 C1937 1.523 . S
H1939 C1914 0.950 . S
H1940 C1916 0.950 . S
H1941 C1917 0.949 . S
H1942 C1919 0.950 . S
H1943 C1921 0.950 . S
C595 C28 0.820 . S
C600 C248 0.826 . S
C625 C61 0.820 . S
C630 C281 0.826 . S
C655 C94 0.820 . S
C660 C215 0.826 . S
C685 C545 0.826 . S
C690 C127 0.820 . S
C715 C160 0.820 . S
C720 C578 0.826 . S
C745 C193 0.820 . S
C750 C512 0.826 . S
C775 C226 0.820 . S
C780 C446 0.826 . S
C805 C479 0.826 . S
C810 C259 0.820 . S
C835 C413 0.826 . S
C840 C292 0.820 . S
C865 C325 0.820 . S
C870 C149 0.826 . S
C895 C358 0.820 . S
C900 C182 0.826 . S
C925 C391 0.820 . S
C930 C116 0.826 . S
C955 C424 0.820 . S
C960 C50 0.826 . S
C985 C457 0.820 . S
C990 C83 0.826 . S
C1015 C17 0.826 . S
C1020 C490 0.820 . S
C1045 C347 0.826 . S
C1050 C523 0.820 . S
C1075 C556 0.820 . S
C1080 C380 0.826 . S
C1105 C589 0.820 . S
C1110 C314 0.826 . S
C1135 N509 1.802 . S
C1140 N14 1.802 . S
C1165 N542 1.802 . S
C1170 N47 1.802 . S
C1195 N80 1.802 . S
C1200 N575 1.802 . S
C1225 N113 1.802 . S
C1230 N212 1.802 . S
C1255 N146 1.802 . S
C1260 N245 1.802 . S
C1285 N278 1.802 . S
C1290 N179 1.802 . S
C1315 N311 1.802 . S
C1320 N410 1.802 . S
C1345 N443 1.802 . S
C1350 N344 1.802 . S
C1375 N476 1.802 . S
C1380 N377 1.802 . S
C1405 N5 1.475 . S
C1410 C140 1.476 . S
C1435 C173 1.476 . S
C1440 N38 1.475 1_545 S
C1465 N71 1.476 1_655 S
C1470 C107 1.476 . S
C1495 C41 1.476 . S
C1500 N104 1.475 . S
C1525 N137 1.475 1_565 S
C1530 C74 1.476 . S
C1555 C8 1.476 . S
C1560 N170 1.476 1_455 S
C1585 N203 1.475 . S
C1590 C338 1.476 . S
C1615 C371 1.476 . S
C1620 N236 1.475 . S
C1645 C305 1.476 . S
C1650 N269 1.476 . S
C1675 N302 1.475 . S
C1680 C239 1.476 . S
C1705 C272 1.476 . S
C1710 N335 1.475 . S
C1735 N368 1.476 . S
C1740 C206 1.476 . S
C1765 C536 1.476 . S
C1770 N401 1.475 . S
C1795 C569 1.476 . S
C1800 N434 1.475 . S
C1825 C503 1.476 . S
C1830 N467 1.476 . S
C1855 C437 1.476 . S
C1860 N500 1.475 . S
C1885 C470 1.476 . S
C1890 N533 1.475 . S
C1915 N566 1.476 . S
C1920 C404 1.476 . S
