# Generated by pormake.
# Topology rob, (6)-cn, num edge types: 1
# Building blocks:
#     Node 0, Type 0, BuildingBlock: LEVNOQ01_clean_sbu_1, # of connection points: 6
#     Node 1, Type 0, BuildingBlock: LEVNOQ01_clean_sbu_1, # of connection points: 6
#     Node 2, Type 0, BuildingBlock: LEVNOQ01_clean_sbu_1, # of connection points: 6
#     Node 3, Type 0, BuildingBlock: LEVNOQ01_clean_sbu_1, # of connection points: 6
#     Edge 4, Type (0, 0), BuildingBlock: UVAHIK_clean_linker_0, # of connection points: 2
#     Edge 5, Type (0, 0), BuildingBlock: UVAHIK_clean_linker_0, # of connection points: 2
#     Edge 6, Type (0, 0), BuildingBlock: UVAHIK_clean_linker_0, # of connection points: 2
#     Edge 7, Type (0, 0), BuildingBlock: UVAHIK_clean_linker_0, # of connection points: 2
#     Edge 8, Type (0, 0), BuildingBlock: UVAHIK_clean_linker_0, # of connection points: 2
#     Edge 9, Type (0, 0), BuildingBlock: UVAHIK_clean_linker_0, # of connection points: 2
#     Edge 10, Type (0, 0), BuildingBlock: UVAHIK_clean_linker_0, # of connection points: 2
#     Edge 11, Type (0, 0), BuildingBlock: UVAHIK_clean_linker_0, # of connection points: 2
#     Edge 12, Type (0, 0), BuildingBlock: UVAHIK_clean_linker_0, # of connection points: 2
#     Edge 13, Type (0, 0), BuildingBlock: UVAHIK_clean_linker_0, # of connection points: 2
#     Edge 14, Type (0, 0), BuildingBlock: UVAHIK_clean_linker_0, # of connection points: 2
#     Edge 15, Type (0, 0), BuildingBlock: UVAHIK_clean_linker_0, # of connection points: 2
# Relax obj value: 0.200
# Max RMSD: 0.225
# Mean RMSD: 0.225
data_MOF--net-rob--node1-LEVNOQ01_clean_sbu_1--edge1-UVAHIK_clean_linker_0
_symmetry_space_group_name_H-M    P1
_symmetry_Int_Tables_number       1
_symmetry_cell_setting            triclinic
loop_
_symmetry_equiv_pos_as_xyz
'x, y, z'
_cell_length_a     19.017336
_cell_length_b     34.715129
_cell_length_c     34.267592
_cell_angle_alpha  105.22416
_cell_angle_beta   90.378546
_cell_angle_gamma 90.372439
loop_
_atom_site_label
_atom_site_type_symbol
_atom_site_fract_x
_atom_site_fract_y
_atom_site_fract_z
_atom_type_partial_charge
O0 O 0.11018 0.28905 0.00932 0.0
Mg1 Mg 0.21715 0.28832 0.02669 0.0
O2 O 0.14796 0.23135 0.01137 0.0
Mg3 Mg 0.24635 0.23344 0.96944 0.0
O4 O 0.28729 0.30228 -0.0109 0.0
O5 O 0.25145 0.34433 0.04748 0.0
O6 O 0.34294 0.22865 0.92728 0.0
O7 O 0.17119 0.25262 0.92463 0.0
Mg8 Mg 0.22688 0.16427 0.88939 0.0
O9 O 0.21692 0.16669 0.94849 0.0
O10 O 0.33188 0.17301 0.87779 0.0
O11 O 0.14762 0.19963 0.87371 0.0
O12 O 0.20101 0.1108 0.89883 0.0
C13 C 0.30312 0.22704 0.05227 0.0
C14 C 0.10022 0.25757 0.02015 0.0
C15 C 0.2889 0.33732 0.01517 0.0
C16 C 0.3677 0.2029 0.89694 0.0
C17 C 0.13721 0.23575 0.89248 0.0
C18 C 0.2003 0.12912 0.93683 0.0
O19 O 0.25569 0.25271 0.06493 0.0
O20 O 0.31907 0.21695 0.01514 0.0
O21 O 0.68165 0.77937 0.07725 0.0
Mg22 Mg 0.77745 0.80372 0.06439 0.0
O23 O 0.6573 0.73783 0.01699 0.0
Mg24 Mg 0.75182 0.74223 -0.02297 0.0
O25 O 0.76952 0.80805 0.0075 0.0
O26 O 0.78431 0.8614 0.05944 0.0
O27 O 0.85004 0.74616 0.93771 0.0
O28 O 0.67667 0.76666 0.93566 0.0
Mg29 Mg 0.73628 0.68141 0.88888 0.0
O30 O 0.72831 0.67647 0.94595 0.0
O31 O 0.84 0.69718 0.88107 0.0
O32 O 0.65456 0.71866 0.87973 0.0
O33 O 0.71493 0.62457 0.89209 0.0
C34 C 0.86952 0.7338 0.04873 0.0
C35 C 0.64207 0.75383 0.05373 0.0
C36 C 0.77973 0.84605 0.02091 0.0
C37 C 0.87478 0.72528 0.9044 0.0
C38 C 0.64319 0.75317 0.90254 0.0
C39 C 0.71424 0.63895 0.93084 0.0
O40 O 0.86912 0.77084 0.06597 0.0
O41 O 0.82577 0.71831 0.02041 0.0
O42 O 0.10678 0.69061 0.43063 0.0
Mg43 Mg 0.21619 0.69276 0.42173 0.0
O44 O 0.14535 0.75082 0.43831 0.0
Mg45 Mg 0.24175 0.74898 0.48294 0.0
O46 O 0.27901 0.68089 0.46484 0.0
O47 O 0.25467 0.63723 0.40466 0.0
O48 O 0.33572 0.75345 0.52824 0.0
O49 O 0.1651 0.73104 0.5267 0.0
Mg50 Mg 0.2276 0.82261 0.56322 0.0
O51 O 0.21394 0.81452 0.50361 0.0
O52 O 0.33412 0.81315 0.57227 0.0
O53 O 0.15161 0.78437 0.57887 0.0
O54 O 0.19811 0.87341 0.54746 0.0
C55 C 0.30515 0.75679 0.40207 0.0
C56 C 0.09687 0.72492 0.42597 0.0
C57 C 0.28461 0.64568 0.43976 0.0
C58 C 0.36461 0.78052 0.55648 0.0
C59 C 0.1362 0.7486 0.55995 0.0
C60 C 0.196 0.85145 0.51073 0.0
O61 O 0.25962 0.73013 0.38686 0.0
O62 O 0.31782 0.7663 0.43973 0.0
O63 O 0.5948 0.19244 0.42097 0.0
Mg64 Mg 0.6984 0.17337 0.40658 0.0
O65 O 0.64909 0.24998 0.43515 0.0
Mg66 Mg 0.74793 0.24462 0.47323 0.0
O67 O 0.75491 0.17655 0.45745 0.0
O68 O 0.72484 0.11866 0.41417 0.0
O69 O 0.84664 0.24273 0.51344 0.0
O70 O 0.67984 0.24117 0.52569 0.0
Mg71 Mg 0.78094 0.32557 0.54594 0.0
O72 O 0.73986 0.31139 0.49036 0.0
O73 O 0.885 0.30464 0.53743 0.0
O74 O 0.70786 0.29504 0.57559 0.0
O75 O 0.74829 0.37429 0.52528 0.0
C76 C 0.80828 0.22951 0.38259 0.0
C77 C 0.59416 0.22917 0.42276 0.0
C78 C 0.75665 0.13799 0.44688 0.0
C79 C 0.89348 0.26746 0.53201 0.0
C80 C 0.67312 0.26268 0.56168 0.0
C81 C 0.72629 0.34825 0.49337 0.0
O82 O 0.7622 0.202 0.37055 0.0
O83 O 0.8165 0.24733 0.41991 0.0
C84 C 0.64012 0.62504 -0.01471 0.0
C85 C 0.69176 0.61273 0.95564 0.0
C86 C 0.60184 0.59646 -0.00127 0.0
C87 C 0.54028 0.49606 0.95381 0.0
H88 H 0.48109 0.49266 0.06081 0.0
C89 C 0.38779 0.36177 -0.02017 0.0
C90 C 0.33447 0.36961 0.00886 0.0
C91 C 0.43275 0.39246 -0.02418 0.0
C92 C 0.49655 0.49351 0.03069 0.0
H93 H 0.75002 0.56233 0.92024 0.0
H94 H 0.6847 0.51275 0.94433 0.0
H95 H 0.56101 0.54581 0.05325 0.0
H96 H 0.28514 0.41585 0.05574 0.0
H97 H 0.36212 0.46929 0.04795 0.0
H98 H 0.47515 0.44472 0.93087 0.0
C99 C 0.67241 0.54403 0.95649 0.0
C100 C 0.5424 0.5238 0.0265 0.0
C101 C 0.71005 0.57235 0.94299 0.0
C102 C 0.32615 0.40875 0.03326 0.0
C103 C 0.37061 0.4394 0.02904 0.0
C104 C 0.49418 0.46614 0.95792 0.0
C105 C 0.61544 0.55561 -0.0174 0.0
C106 C 0.56545 0.52483 -0.01197 0.0
C107 C 0.42475 0.43158 0.00051 0.0
C108 C 0.47244 0.46418 -0.00361 0.0
H109 H 0.6248 0.65606 -0.00493 0.0
H110 H 0.55814 0.60602 0.019 0.0
H111 H 0.55595 0.49688 0.92369 0.0
H112 H 0.39571 0.33186 0.9608 0.0
H113 H 0.47457 0.38536 0.95385 0.0
C114 C 0.29396 0.58436 0.46334 0.0
C115 C 0.32694 0.61484 0.45017 0.0
C116 C 0.33127 0.55016 0.46465 0.0
C117 C 0.48008 0.49145 0.4143 0.0
H118 H 0.47377 0.44019 0.50199 0.0
C119 C 0.69405 0.39173 0.45 0.0
C120 C 0.67555 0.36068 0.46705 0.0
C121 C 0.642 0.4147 0.43851 0.0
C122 C 0.47461 0.4536 0.4768 0.0
H123 H 0.42395 0.63485 0.4291 0.0
H124 H 0.48994 0.57531 0.43185 0.0
H125 H 0.40405 0.49997 0.50604 0.0
H126 H 0.58927 0.32713 0.48328 0.0
H127 H 0.49753 0.36776 0.46354 0.0
H128 H 0.55247 0.44594 0.38571 0.0
C129 C 0.43535 0.57752 0.44093 0.0
C130 C 0.43517 0.48799 0.4793 0.0
C131 C 0.39813 0.61173 0.43988 0.0
C132 C 0.60443 0.35054 0.46934 0.0
C133 C 0.55214 0.37405 0.45858 0.0
C134 C 0.51946 0.45716 0.41182 0.0
C135 C 0.40168 0.54587 0.45212 0.0
C136 C 0.43908 0.50783 0.44855 0.0
C137 C 0.57073 0.40748 0.44488 0.0
C138 C 0.51852 0.4385 0.44348 0.0
H139 H 0.23857 0.58618 0.47075 0.0
H140 H 0.30401 0.52625 0.47335 0.0
H141 H 0.48262 0.50554 0.38964 0.0
H142 H 0.74869 0.40036 0.44878 0.0
H143 H 0.65792 0.44043 0.42831 0.0
C144 C 0.19336 0.06744 0.95849 0.0
C145 C 0.17304 0.10729 0.96452 0.0
C146 C 0.14768 0.04007 0.9683 0.0
C147 C 0.97992 0.02412 0.01382 0.0
H148 H 0.95256 0.94274 0.91254 0.0
C149 C 0.76632 0.9107 0.00533 0.0
C150 C 0.7928 0.8718 -0.00578 0.0
C151 C 0.80159 0.94128 -0.00593 0.0
C152 C 0.95957 0.96519 0.94098 0.0
H153 H 0.09464 0.1513 -0.00989 0.0
H154 H 0.01469 0.10346 0.0082 0.0
H155 H 0.04678 0.99198 0.91877 0.0
H156 H 0.86937 0.83265 0.95796 0.0
H157 H 0.93239 0.88606 0.93887 0.0
H158 H 0.89427 -0.00314 0.03657 0.0
C159 C 0.06557 0.0933 -0.00425 0.0
C160 C 0.01379 -0.00687 0.9447 0.0
C161 C 0.11159 0.12078 -0.01406 0.0
C162 C 0.84817 0.86256 0.9667 0.0
C163 C 0.88442 0.89331 0.956 0.0
C164 C 0.92605 -0.00404 0.01024 0.0
C165 C 0.08125 0.05239 -0.0159 0.0
C166 C 0.02491 0.02247 -0.01869 0.0
C167 C 0.86456 0.93329 0.97238 0.0
C168 C 0.91561 0.96599 0.97385 0.0
H169 H 0.24077 0.0566 0.94193 0.0
H170 H 0.1614 0.00874 0.95995 0.0
H171 H 0.9874 0.04661 0.04221 0.0
H172 H 0.72304 0.9182 0.02632 0.0
H173 H 0.78363 0.97165 0.00581 0.0
C174 C 0.8711 0.12616 0.47633 0.0
C175 C 0.80004 0.11579 0.46861 0.0
C176 C 0.91813 0.098 0.4835 0.0
C177 C 0.93266 -0.00258 0.50093 0.0
H178 H 0.08116 0.98362 0.42132 0.0
C179 C 0.0948 0.85784 0.46866 0.0
C180 C 0.16469 0.8682 0.48006 0.0
C181 C 0.05062 0.88595 0.45893 0.0
C182 C 0.03976 0.98714 0.44351 0.0
H183 H 0.71999 0.07096 0.46748 0.0
H184 H 0.80136 0.02223 0.4812 0.0
H185 H 0.00627 0.04246 0.43354 0.0
H186 H 0.24667 0.9126 0.4846 0.0
H187 H 0.17055 0.96113 0.46599 0.0
H188 H 0.96593 0.94203 0.51077 0.0
C189 C 0.82148 0.05146 0.48107 0.0
C190 C -0.00228 0.02102 0.45102 0.0
C191 C 0.77488 0.07925 0.47317 0.0
C192 C 0.19291 0.90406 0.4754 0.0
C193 C 0.14915 0.93191 0.46509 0.0
C194 C 0.9745 0.96351 0.49332 0.0
C195 C 0.894 0.05966 0.48366 0.0
C196 C 0.94368 0.02641 0.47973 0.0
C197 C 0.07668 0.9242 0.46001 0.0
C198 C 0.02815 0.95798 0.46438 0.0
H199 H 0.89134 0.1543 0.47281 0.0
H200 H 0.97378 0.10518 0.48611 0.0
H201 H 0.89152 0.00095 0.52329 0.0
H202 H 0.07204 0.83042 0.47264 0.0
H203 H -0.00503 0.87921 0.45449 0.0
C204 C 0.48499 0.21916 0.38128 0.0
C205 C 0.54529 0.24221 0.39546 0.0
C206 C 0.45576 0.21918 0.34393 0.0
C207 C 0.46946 0.26358 0.25648 0.0
H208 H 0.43397 0.1537 0.19608 0.0
C209 C 0.41576 0.22222 0.08679 0.0
C210 C 0.34387 0.2129 0.08176 0.0
C211 C 0.45032 0.21992 0.12214 0.0
C212 C 0.44471 0.18436 0.21262 0.0
H213 H 0.61464 0.2886 0.38545 0.0
H214 H 0.56481 0.28801 0.32014 0.0
H215 H 0.46297 0.16882 0.268 0.0
H216 H 0.25299 0.19016 0.10646 0.0
H217 H 0.31436 0.18426 0.16753 0.0
H218 H 0.45202 0.27871 0.20055 0.0
C219 C 0.54022 0.26957 0.33733 0.0
C220 C 0.45986 0.19324 0.25385 0.0
C221 C 0.56873 0.27002 0.375 0.0
C222 C 0.30864 0.19727 0.11 0.0
C223 C 0.34366 0.19386 0.14468 0.0
C224 C 0.45549 0.25457 0.21508 0.0
C225 C 0.48692 0.24197 0.32021 0.0
C226 C 0.47065 0.23307 0.27645 0.0
C227 C 0.41346 0.20724 0.15191 0.0
C228 C 0.44173 0.21502 0.19315 0.0
H229 H 0.46494 0.1981 0.39697 0.0
H230 H 0.41244 0.19894 0.33224 0.0
H231 H 0.47752 0.2945 0.27295 0.0
H232 H 0.4433 0.23471 0.0653 0.0
H233 H 0.50419 0.23046 0.12743 0.0
C234 C 0.5231 0.7645 0.08074 0.0
C235 C 0.58198 0.73991 0.07214 0.0
C236 C 0.48312 0.76511 0.11481 0.0
C237 C 0.47006 0.7224 0.20381 0.0
H238 H 0.44363 0.83375 0.26102 0.0
C239 C 0.41875 0.76571 0.37125 0.0
C240 C 0.34664 0.77365 0.37503 0.0
C241 C 0.45387 0.76949 0.33685 0.0
C242 C 0.45166 0.80269 0.24532 0.0
H243 H 0.64106 0.69325 0.08816 0.0
H244 H 0.57289 0.69467 0.14802 0.0
H245 H 0.47763 0.8163 0.18999 0.0
H246 H 0.2562 0.79644 0.34992 0.0
H247 H 0.31849 0.80462 0.29036 0.0
H248 H 0.44625 0.70924 0.25985 0.0
C249 C 0.55602 0.71316 0.12876 0.0
C250 C 0.46953 0.79247 0.20454 0.0
C251 C 0.59496 0.71205 0.09427 0.0
C252 C 0.31199 0.79019 0.34717 0.0
C253 C 0.34753 0.79499 0.31339 0.0
C254 C 0.45372 0.73273 0.24474 0.0
C255 C 0.50314 0.74187 0.14096 0.0
C256 C 0.47835 0.75214 0.18323 0.0
C257 C 0.41716 0.78213 0.30684 0.0
C258 C 0.44421 0.77285 0.26559 0.0
H259 H 0.51297 0.78641 0.06399 0.0
H260 H 0.44094 0.7865 0.12269 0.0
H261 H 0.47589 0.69112 0.18832 0.0
H262 H 0.4459 0.75272 0.39256 0.0
H263 H 0.50769 0.75938 0.33202 0.0
C264 C 0.62624 0.81069 0.87421 0.0
C265 C 0.59657 0.77888 0.88678 0.0
C266 C 0.59712 0.82144 0.84107 0.0
C267 C 0.54284 0.75753 0.75119 0.0
H268 H 0.49169 0.84581 0.70775 0.0
C269 C 0.4242 0.7391 0.59452 0.0
C270 C 0.42668 0.77193 0.57801 0.0
C271 C 0.46053 0.74064 0.6304 0.0
C272 C 0.50778 0.82104 0.71935 0.0
H273 H 0.50714 0.73893 0.88102 0.0
H274 H 0.45552 0.75829 0.82379 0.0
H275 H 0.50557 0.85687 0.78096 0.0
H276 H 0.47799 0.82843 0.58082 0.0
H277 H 0.54475 0.83016 0.64224 0.0
H278 H 0.54674 0.72169 0.69024 0.0
C279 C 0.50148 0.77437 0.8387 0.0
C280 C 0.51444 0.82739 0.76121 0.0
C281 C 0.53084 0.76338 0.87143 0.0
C282 C 0.47505 0.80295 0.59349 0.0
C283 C 0.51222 0.80424 0.62897 0.0
C284 C 0.53732 0.75131 0.70952 0.0
C285 C 0.53839 0.80045 0.82099 0.0
C286 C 0.53025 0.79537 0.77729 0.0
C287 C 0.50048 0.77478 0.64954 0.0
C288 C 0.51827 0.78274 0.69309 0.0
H289 H 0.67709 0.82295 0.8858 0.0
H290 H 0.626 0.84184 0.82787 0.0
H291 H 0.55719 0.73266 0.76314 0.0
H292 H 0.3869 0.71496 0.58311 0.0
H293 H 0.45063 0.7172 0.64523 0.0
C294 C 0.63754 0.20864 0.59254 0.0
C295 C 0.62918 0.24787 0.58934 0.0
C296 C 0.61066 0.19782 0.62598 0.0
C297 C 0.59431 0.24956 0.72961 0.0
H298 H 0.49271 0.15822 0.74611 0.0
C299 C 0.44792 0.24691 0.87187 0.0
C300 C 0.43458 0.20975 0.87919 0.0
C301 C 0.49206 0.24924 0.84027 0.0
C302 C 0.52292 0.18335 0.74187 0.0
H303 H 0.57843 0.30453 0.61396 0.0
H304 H 0.52951 0.28527 0.67188 0.0
H305 H 0.51214 0.16364 0.67724 0.0
H306 H 0.4652 0.14766 0.86525 0.0
H307 H 0.54395 0.15197 0.81071 0.0
H308 H 0.60444 0.26978 0.79386 0.0
C309 C 0.55865 0.26344 0.64952 0.0
C310 C 0.53304 0.18658 0.70257 0.0
C311 C 0.58649 0.27446 0.61665 0.0
C312 C 0.47432 0.1765 0.85945 0.0
C313 C 0.51878 0.17887 0.82813 0.0
C314 C 0.58471 0.24623 0.7687 0.0
C315 C 0.57493 0.22616 0.65583 0.0
C316 C 0.56678 0.22042 0.69643 0.0
C317 C 0.5234 0.21447 0.81627 0.0
C318 C 0.54718 0.21374 0.77529 0.0
H319 H 0.67021 0.18769 0.5714 0.0
H320 H 0.62332 0.16883 0.63031 0.0
H321 H 0.6224 0.27536 0.72527 0.0
H322 H 0.41763 0.27287 0.88682 0.0
H323 H 0.49491 0.27718 0.83187 0.0
C324 C 0.97305 0.72111 0.0869 0.0
C325 C 0.90585 0.70901 0.07098 0.0
C326 C -0.00566 0.71388 0.12335 0.0
C327 C 0.93361 0.73535 0.21432 0.0
H328 H 0.03216 0.65706 0.25601 0.0
C329 C 0.05632 0.76041 0.37514 0.0
C330 C 0.04821 0.72875 0.39335 0.0
C331 C 0.0291 0.75708 0.33635 0.0
C332 C 0.00379 0.67891 0.2447 0.0
H333 H 0.8121 0.67548 0.0773 0.0
H334 H 0.84956 0.66289 0.14122 0.0
H335 H 0.01365 0.64497 0.18272 0.0
H336 H -0.00283 0.67134 0.38749 0.0
H337 H 0.95049 0.66562 0.31985 0.0
H338 H 0.92512 0.76983 0.27599 0.0
C339 C 0.88564 0.67768 0.12541 0.0
C340 C 0.99362 0.672 0.20298 0.0
C341 C 0.86464 0.68451 0.08866 0.0
C342 C 0.0053 0.69601 0.37409 0.0
C343 C 0.97898 0.6925 0.33524 0.0
C344 C 0.94429 0.74244 0.25595 0.0
C345 C 0.9486 0.69447 0.144 0.0
C346 C 0.95851 0.70024 0.18769 0.0
C347 C 0.99373 0.72204 0.31531 0.0
C348 C 0.97937 0.71423 0.27149 0.0
H349 H 0.00529 0.74032 0.07388 0.0
H350 H 0.04308 0.72707 0.13743 0.0
H351 H 0.90639 0.75745 0.20277 0.0
H352 H 0.08879 0.78614 0.38919 0.0
H353 H 0.0406 0.78044 0.32162 0.0
C354 C 0.91702 0.26019 0.36204 0.0
C355 C 0.85033 0.24225 0.35233 0.0
C356 C 0.95626 0.27169 0.33248 0.0
C357 C 0.02339 0.25134 0.24319 0.0
H358 H 0.93574 0.32254 0.18728 0.0
C359 C 0.05345 0.22723 0.07316 0.0
C360 C 0.06081 0.26067 0.05773 0.0
C361 C 0.03618 0.23203 0.11365 0.0
C362 C 0.96205 0.30316 0.20276 0.0
H363 H 0.77148 0.22343 0.30498 0.0
H364 H 0.83916 0.24426 0.254 0.0
H365 H 0.89679 0.32243 0.25478 0.0
H366 H 0.05164 0.32532 0.07223 0.0
H367 H 0.02285 0.33356 0.14259 0.0
H368 H 0.08636 0.2305 0.19047 0.0
C369 C 0.86122 0.24902 0.28416 0.0
C370 C 0.93988 0.3033 0.24142 0.0
C371 C 0.82292 0.23682 0.31317 0.0
C372 C 0.04574 0.29875 0.0829 0.0
C373 C 0.02975 0.3036 0.12348 0.0
C374 C 0.0457 0.25117 0.20444 0.0
C375 C 0.92804 0.26632 0.29352 0.0
C376 C 0.96798 0.27603 0.26092 0.0
C377 C 0.02676 0.27042 0.13957 0.0
C378 C 0.01257 0.27561 0.18305 0.0
H379 H 0.93919 0.26463 0.39211 0.0
H380 H 0.00815 0.28472 0.33994 0.0
H381 H 0.04529 0.22992 0.25782 0.0
H382 H 0.06477 0.19758 0.05458 0.0
H383 H 0.03177 0.20571 0.12484 0.0
C384 C -0.0029 0.28178 0.57779 0.0
C385 C 0.94136 0.25587 0.56078 0.0
C386 C 0.021 0.28385 0.61684 0.0
C387 C 0.06818 0.27559 0.70009 0.0
H388 H 0.9061 0.28399 0.77011 0.0
C389 C 0.11704 0.29369 0.86457 0.0
C390 C 0.09107 0.259 0.87324 0.0
C391 C 0.08762 0.30645 0.8327 0.0
C392 C 0.95168 0.28218 0.75093 0.0
H393 H 0.8752 0.20719 0.56833 0.0
H394 H 0.91772 0.21056 0.6364 0.0
H395 H 0.88898 0.2704 0.69694 0.0
H396 H 0.00775 0.21463 0.86132 0.0
H397 H 0.95556 0.23713 0.8064 0.0
H398 H 0.13112 0.2858 0.75365 0.0
C399 C 0.94124 0.23006 0.61999 0.0
C400 C 0.94204 0.27383 0.70915 0.0
C401 C 0.91786 0.22769 0.58074 0.0
C402 C 0.0289 0.24121 0.85456 0.0
C403 C -0.00109 0.25427 0.82322 0.0
C404 C 0.07787 0.28378 0.74183 0.0
C405 C 0.98951 0.25994 0.63918 0.0
C406 C 0.00033 0.26944 0.68336 0.0
C407 C 0.0318 0.28475 0.8098 0.0
C408 C 0.0198 0.28619 0.76758 0.0
H409 H 0.01643 0.30361 0.56285 0.0
H410 H 0.05899 0.30678 0.63085 0.0
H411 H 0.11382 0.27259 0.6808 0.0
H412 H 0.16489 0.30792 0.87891 0.0
H413 H 0.11297 0.33056 0.82334 0.0
C414 C 0.12103 0.69246 0.59078 0.0
C415 C 0.09241 0.72596 0.58101 0.0
C416 C 0.09921 0.68255 0.62579 0.0
C417 C 0.073 0.74569 0.72007 0.0
H418 H 0.00137 0.66103 0.76347 0.0
C419 C 0.94529 0.76768 0.87265 0.0
C420 C 0.94219 0.73488 0.88916 0.0
C421 C 0.98647 0.76566 0.83864 0.0
C422 C 0.02344 0.68455 0.75178 0.0
H423 H 0.01052 0.77033 0.59438 0.0
H424 H 0.97122 0.75238 0.6549 0.0
H425 H 0.00887 0.65038 0.69005 0.0
H426 H 0.98785 0.67788 0.88875 0.0
H427 H 0.06165 0.67486 0.83016 0.0
H428 H 0.08646 0.7803 0.78123 0.0
C429 C 0.01121 0.73443 0.63636 0.0
C430 C 0.02669 0.6785 0.70988 0.0
C431 C 0.03352 0.74464 0.60182 0.0
C432 C 0.9898 0.70349 0.87625 0.0
C433 C 0.03109 0.70148 0.84239 0.0
C434 C 0.07026 0.75166 0.76176 0.0
C435 C 0.04841 0.70593 0.6504 0.0
C436 C 0.04922 0.7096 0.69399 0.0
C437 C 0.02483 0.73088 0.82129 0.0
C438 C 0.04343 0.72164 0.77806 0.0
H439 H 0.1666 0.6777 0.57491 0.0
H440 H 0.12816 0.66032 0.63622 0.0
H441 H 0.09218 0.7697 0.70808 0.0
H442 H 0.90837 0.79197 0.882 0.0
H443 H 0.98087 0.78896 0.82315 0.0
loop_
_geom_bond_atom_site_label_1
_geom_bond_atom_site_label_2
_geom_bond_distance
_geom_bond_site_symmetry_2
_ccdc_geom_bond_type
O0 Mg1 1.990 . S
O0 C14 1.253 . S
Mg1 O0 1.990 . S
Mg1 O4 2.180 . S
Mg1 O5 2.117 . S
Mg1 O19 2.030 . S
O2 Mg3 2.084 . S
O2 C14 1.260 . S
Mg3 O2 2.084 . S
Mg3 O4 2.101 . S
Mg3 O6 2.067 1_554 S
Mg3 O7 2.060 1_554 S
Mg3 O9 2.096 1_554 S
Mg3 O20 2.091 . S
O4 Mg1 2.180 . S
O4 Mg3 2.101 . S
O4 C15 1.279 . S
O5 Mg1 2.117 . S
O5 C15 1.250 . S
O6 Mg3 2.067 1_556 S
O6 C16 1.264 . S
O7 Mg3 2.060 1_556 S
O7 C17 1.260 . S
Mg8 O9 2.180 . S
Mg8 O10 2.030 . S
Mg8 O11 1.990 . S
Mg8 O12 2.117 . S
O9 Mg3 2.096 1_556 S
O9 Mg8 2.180 . S
O9 C18 1.279 . S
O10 Mg8 2.030 . S
O10 C16 1.248 . S
O11 Mg8 1.990 . S
O11 C17 1.253 . S
O12 Mg8 2.117 . S
O12 C18 1.250 . S
C13 O19 1.248 . S
C13 O20 1.264 . S
C14 O0 1.253 . S
C14 O2 1.260 . S
C15 O4 1.279 . S
C15 O5 1.250 . S
C16 O6 1.264 . S
C16 O10 1.248 . S
C17 O7 1.260 . S
C17 O11 1.253 . S
C18 O9 1.279 . S
C18 O12 1.250 . S
O19 Mg1 2.030 . S
O19 C13 1.248 . S
O20 Mg3 2.091 . S
O20 C13 1.264 . S
O21 Mg22 1.990 . S
O21 C35 1.253 . S
Mg22 O21 1.990 . S
Mg22 O25 2.180 . S
Mg22 O26 2.117 . S
Mg22 O40 2.030 . S
O23 Mg24 2.084 . S
O23 C35 1.260 . S
Mg24 O23 2.084 . S
Mg24 O25 2.101 . S
Mg24 O27 2.067 1_554 S
Mg24 O28 2.060 1_554 S
Mg24 O30 2.096 1_554 S
Mg24 O41 2.091 . S
O25 Mg22 2.180 . S
O25 Mg24 2.101 . S
O25 C36 1.279 . S
O26 Mg22 2.117 . S
O26 C36 1.250 . S
O27 Mg24 2.067 1_556 S
O27 C37 1.264 . S
O28 Mg24 2.060 1_556 S
O28 C38 1.260 . S
Mg29 O30 2.180 . S
Mg29 O31 2.030 . S
Mg29 O32 1.990 . S
Mg29 O33 2.117 . S
O30 Mg24 2.096 1_556 S
O30 Mg29 2.180 . S
O30 C39 1.279 . S
O31 Mg29 2.030 . S
O31 C37 1.248 . S
O32 Mg29 1.990 . S
O32 C38 1.253 . S
O33 Mg29 2.117 . S
O33 C39 1.250 . S
C34 O40 1.248 . S
C34 O41 1.264 . S
C35 O21 1.253 . S
C35 O23 1.260 . S
C36 O25 1.279 . S
C36 O26 1.250 . S
C37 O27 1.264 . S
C37 O31 1.248 . S
C38 O28 1.260 . S
C38 O32 1.253 . S
C39 O30 1.279 . S
C39 O33 1.250 . S
O40 Mg22 2.030 . S
O40 C34 1.248 . S
O41 Mg24 2.091 . S
O41 C34 1.264 . S
O42 Mg43 1.990 . S
O42 C56 1.253 . S
Mg43 O42 1.990 . S
Mg43 O46 2.180 . S
Mg43 O47 2.117 . S
Mg43 O61 2.030 . S
O44 Mg45 2.072 . S
O44 C56 1.260 . S
Mg45 O44 2.072 . S
Mg45 O46 2.099 . S
Mg45 O48 2.079 . S
Mg45 O49 2.072 . S
Mg45 O51 2.099 . S
Mg45 O62 2.079 . S
O46 Mg43 2.180 . S
O46 Mg45 2.099 . S
O46 C57 1.279 . S
O47 Mg43 2.117 . S
O47 C57 1.250 . S
O48 Mg45 2.079 . S
O48 C58 1.264 . S
O49 Mg45 2.072 . S
O49 C59 1.260 . S
Mg50 O51 2.180 . S
Mg50 O52 2.030 . S
Mg50 O53 1.990 . S
Mg50 O54 2.117 . S
O51 Mg45 2.099 . S
O51 Mg50 2.180 . S
O51 C60 1.279 . S
O52 Mg50 2.030 . S
O52 C58 1.248 . S
O53 Mg50 1.990 . S
O53 C59 1.253 . S
O54 Mg50 2.117 . S
O54 C60 1.250 . S
C55 O61 1.248 . S
C55 O62 1.264 . S
C56 O42 1.253 . S
C56 O44 1.260 . S
C57 O46 1.279 . S
C57 O47 1.250 . S
C58 O48 1.264 . S
C58 O52 1.248 . S
C59 O49 1.260 . S
C59 O53 1.253 . S
C60 O51 1.279 . S
C60 O54 1.250 . S
O61 Mg43 2.030 . S
O61 C55 1.248 . S
O62 Mg45 2.079 . S
O62 C55 1.264 . S
O63 Mg64 1.990 . S
O63 C77 1.253 . S
Mg64 O63 1.990 . S
Mg64 O67 2.180 . S
Mg64 O68 2.117 . S
Mg64 O82 2.030 . S
O65 Mg66 2.072 . S
O65 C77 1.260 . S
Mg66 O65 2.072 . S
Mg66 O67 2.099 . S
Mg66 O69 2.079 . S
Mg66 O70 2.072 . S
Mg66 O72 2.099 . S
Mg66 O83 2.079 . S
O67 Mg64 2.180 . S
O67 Mg66 2.099 . S
O67 C78 1.279 . S
O68 Mg64 2.117 . S
O68 C78 1.250 . S
O69 Mg66 2.079 . S
O69 C79 1.264 . S
O70 Mg66 2.072 . S
O70 C80 1.260 . S
Mg71 O72 2.180 . S
Mg71 O73 2.030 . S
Mg71 O74 1.990 . S
Mg71 O75 2.117 . S
O72 Mg66 2.099 . S
O72 Mg71 2.180 . S
O72 C81 1.279 . S
O73 Mg71 2.030 . S
O73 C79 1.248 . S
O74 Mg71 1.990 . S
O74 C80 1.253 . S
O75 Mg71 2.117 . S
O75 C81 1.250 . S
C76 O82 1.248 . S
C76 O83 1.264 . S
C77 O63 1.253 . S
C77 O65 1.260 . S
C78 O67 1.279 . S
C78 O68 1.250 . S
C79 O69 1.264 . S
C79 O73 1.248 . S
C80 O70 1.260 . S
C80 O74 1.253 . S
C81 O72 1.279 . S
C81 O75 1.250 . S
O82 Mg64 2.030 . S
O82 C76 1.248 . S
O83 Mg66 2.079 . S
O83 C76 1.264 . S
C84 C85 1.357 . S
C84 C86 1.327 . S
C84 H109 0.950 . S
C85 C84 1.357 . S
C85 C101 1.343 1_554 S
C86 C84 1.327 . S
C86 C105 1.445 . S
C86 H110 0.950 . S
C87 C104 1.574 . S
C87 C106 1.368 1_556 S
C87 H111 0.949 . S
H88 C92 0.949 . S
C89 C90 1.349 1_556 S
C89 C91 1.327 . S
C89 H112 0.950 . S
C90 C89 1.349 1_554 S
C90 C102 1.349 . S
C91 C89 1.327 . S
C91 C107 1.429 1_556 S
C91 H113 0.950 . S
C92 H88 0.949 . S
C92 C100 1.574 . S
C92 C108 1.368 . S
H93 C101 0.950 . S
H94 C99 0.950 . S
H95 C100 0.949 . S
H96 C102 0.950 . S
H97 C103 0.950 . S
H98 C104 0.949 . S
C99 H94 0.950 . S
C99 C101 1.327 . S
C99 C105 1.407 1_556 S
C100 C92 1.574 . S
C100 H95 0.949 . S
C100 C106 1.368 . S
C101 C85 1.343 1_556 S
C101 H93 0.950 . S
C101 C99 1.327 . S
C102 C90 1.349 . S
C102 H96 0.950 . S
C102 C103 1.327 . S
C103 H97 0.950 . S
C103 C102 1.327 . S
C103 C107 1.429 . S
C104 C87 1.574 . S
C104 H98 0.949 . S
C104 C108 1.368 1_556 S
C105 C86 1.445 . S
C105 C99 1.407 1_554 S
C105 C106 1.528 . S
C106 C87 1.368 1_554 S
C106 C100 1.368 . S
C106 C105 1.528 . S
C107 C91 1.429 1_554 S
C107 C103 1.429 . S
C107 C108 1.523 . S
C108 C92 1.368 . S
C108 C104 1.368 1_554 S
C108 C107 1.523 . S
H109 C84 0.950 . S
H110 C86 0.950 . S
H111 C87 0.949 . S
H112 C89 0.950 . S
H113 C91 0.950 . S
C114 C115 1.349 . S
C114 C116 1.327 . S
C114 H139 0.950 . S
C115 C114 1.349 . S
C115 C131 1.349 . S
C116 C114 1.327 . S
C116 C135 1.429 . S
C116 H140 0.950 . S
C117 C134 1.574 . S
C117 C136 1.368 . S
C117 H141 0.949 . S
H118 C122 0.949 . S
C119 C120 1.349 . S
C119 C121 1.327 . S
C119 H142 0.950 . S
C120 C119 1.349 . S
C120 C132 1.349 . S
C121 C119 1.327 . S
C121 C137 1.429 . S
C121 H143 0.950 . S
C122 H118 0.949 . S
C122 C130 1.574 . S
C122 C138 1.368 . S
H123 C131 0.950 . S
H124 C129 0.950 . S
H125 C130 0.949 . S
H126 C132 0.950 . S
H127 C133 0.950 . S
H128 C134 0.949 . S
C129 H124 0.950 . S
C129 C131 1.327 . S
C129 C135 1.429 . S
C130 C122 1.574 . S
C130 H125 0.949 . S
C130 C136 1.368 . S
C131 C115 1.349 . S
C131 H123 0.950 . S
C131 C129 1.327 . S
C132 C120 1.349 . S
C132 H126 0.950 . S
C132 C133 1.327 . S
C133 H127 0.950 . S
C133 C132 1.327 . S
C133 C137 1.429 . S
C134 C117 1.574 . S
C134 H128 0.949 . S
C134 C138 1.368 . S
C135 C116 1.429 . S
C135 C129 1.429 . S
C135 C136 1.523 . S
C136 C117 1.368 . S
C136 C130 1.368 . S
C136 C135 1.523 . S
C137 C121 1.429 . S
C137 C133 1.429 . S
C137 C138 1.523 . S
C138 C122 1.368 . S
C138 C134 1.368 . S
C138 C137 1.523 . S
H139 C114 0.950 . S
H140 C116 0.950 . S
H141 C117 0.949 . S
H142 C119 0.950 . S
H143 C121 0.950 . S
C144 C145 1.343 1_556 S
C144 C146 1.327 . S
C144 H169 0.950 . S
C145 C144 1.343 1_554 S
C145 C161 1.357 . S
C146 C144 1.327 . S
C146 C165 1.408 1_556 S
C146 H170 0.950 . S
C147 C164 1.574 . S
C147 C166 1.368 1_655 S
C147 H171 0.949 . S
H148 C152 0.949 . S
C149 C150 1.349 . S
C149 C151 1.327 . S
C149 H172 0.950 . S
C150 C149 1.349 . S
C150 C162 1.349 1_554 S
C151 C149 1.327 . S
C151 C167 1.429 . S
C151 H173 0.950 . S
C152 H148 0.949 . S
C152 C160 1.574 1_665 S
C152 C168 1.368 1_556 S
H153 C161 0.950 . S
H154 C159 0.950 . S
H155 C160 0.949 . S
H156 C162 0.950 . S
H157 C163 0.950 . S
H158 C164 0.948 1_565 S
C159 H154 0.950 . S
C159 C161 1.327 . S
C159 C165 1.444 . S
C160 C152 1.574 1_445 S
C160 H155 0.949 . S
C160 C166 1.368 1_556 S
C161 C145 1.357 . S
C161 H153 0.950 . S
C161 C159 1.327 . S
C162 C150 1.349 1_556 S
C162 H156 0.950 . S
C162 C163 1.327 . S
C163 H157 0.950 . S
C163 C162 1.327 . S
C163 C167 1.429 1_556 S
C164 C147 1.574 . S
C164 H158 0.948 1_545 S
C164 C168 1.368 1_545 S
C165 C146 1.408 1_554 S
C165 C159 1.444 . S
C165 C166 1.528 . S
C166 C147 1.368 1_455 S
C166 C160 1.368 1_554 S
C166 C165 1.528 . S
C167 C151 1.429 . S
C167 C163 1.429 1_554 S
C167 C168 1.523 . S
C168 C152 1.368 1_554 S
C168 C164 1.368 1_565 S
C168 C167 1.523 . S
H169 C144 0.950 . S
H170 C146 0.950 . S
H171 C147 0.949 . S
H172 C149 0.950 . S
H173 C151 0.950 . S
C174 C175 1.349 . S
C174 C176 1.327 . S
C174 H199 0.950 . S
C175 C174 1.349 . S
C175 C191 1.349 . S
C176 C174 1.327 . S
C176 C195 1.429 . S
C176 H200 0.950 . S
C177 C194 1.574 1_545 S
C177 C196 1.368 . S
C177 H201 0.949 . S
H178 C182 0.949 . S
C179 C180 1.349 . S
C179 C181 1.327 . S
C179 H202 0.950 . S
C180 C179 1.349 . S
C180 C192 1.349 . S
C181 C179 1.327 . S
C181 C197 1.429 . S
C181 H203 0.950 . S
C182 H178 0.949 . S
C182 C190 1.574 1_465 S
C182 C198 1.368 . S
H183 C191 0.950 . S
H184 C189 0.950 . S
H185 C190 0.949 1_455 S
H186 C192 0.950 . S
H187 C193 0.950 . S
H188 C194 0.949 . S
C189 H184 0.950 . S
C189 C191 1.327 . S
C189 C195 1.429 . S
C190 C182 1.574 1_645 S
C190 H185 0.949 1_655 S
C190 C196 1.368 . S
C191 C175 1.349 . S
C191 H183 0.950 . S
C191 C189 1.327 . S
C192 C180 1.349 . S
C192 H186 0.950 . S
C192 C193 1.327 . S
C193 H187 0.950 . S
C193 C192 1.327 . S
C193 C197 1.429 . S
C194 C177 1.574 1_565 S
C194 H188 0.949 . S
C194 C198 1.368 1_655 S
C195 C176 1.429 . S
C195 C189 1.429 . S
C195 C196 1.523 . S
C196 C177 1.368 . S
C196 C190 1.368 . S
C196 C195 1.523 . S
C197 C181 1.429 . S
C197 C193 1.429 . S
C197 C198 1.523 . S
C198 C182 1.368 . S
C198 C194 1.368 1_455 S
C198 C197 1.523 . S
H199 C174 0.950 . S
H200 C176 0.950 . S
H201 C177 0.949 . S
H202 C179 0.950 . S
H203 C181 0.950 . S
C204 C205 1.349 . S
C204 C206 1.327 . S
C204 H229 0.950 . S
C205 C204 1.349 . S
C205 C221 1.349 . S
C206 C204 1.327 . S
C206 C225 1.429 . S
C206 H230 0.950 . S
C207 C224 1.574 . S
C207 C226 1.368 . S
C207 H231 0.949 . S
H208 C212 0.949 . S
C209 C210 1.349 . S
C209 C211 1.327 . S
C209 H232 0.950 . S
C210 C209 1.349 . S
C210 C222 1.349 . S
C211 C209 1.327 . S
C211 C227 1.429 . S
C211 H233 0.950 . S
C212 H208 0.949 . S
C212 C220 1.574 . S
C212 C228 1.368 . S
H213 C221 0.950 . S
H214 C219 0.950 . S
H215 C220 0.949 . S
H216 C222 0.950 . S
H217 C223 0.950 . S
H218 C224 0.949 . S
C219 H214 0.950 . S
C219 C221 1.327 . S
C219 C225 1.429 . S
C220 C212 1.574 . S
C220 H215 0.949 . S
C220 C226 1.368 . S
C221 C205 1.349 . S
C221 H213 0.950 . S
C221 C219 1.327 . S
C222 C210 1.349 . S
C222 H216 0.950 . S
C222 C223 1.327 . S
C223 H217 0.950 . S
C223 C222 1.327 . S
C223 C227 1.429 . S
C224 C207 1.574 . S
C224 H218 0.949 . S
C224 C228 1.368 . S
C225 C206 1.429 . S
C225 C219 1.429 . S
C225 C226 1.523 . S
C226 C207 1.368 . S
C226 C220 1.368 . S
C226 C225 1.523 . S
C227 C211 1.429 . S
C227 C223 1.429 . S
C227 C228 1.523 . S
C228 C212 1.368 . S
C228 C224 1.368 . S
C228 C227 1.523 . S
H229 C204 0.950 . S
H230 C206 0.950 . S
H231 C207 0.949 . S
H232 C209 0.950 . S
H233 C211 0.950 . S
C234 C235 1.349 . S
C234 C236 1.327 . S
C234 H259 0.950 . S
C235 C234 1.349 . S
C235 C251 1.349 . S
C236 C234 1.327 . S
C236 C255 1.429 . S
C236 H260 0.950 . S
C237 C254 1.574 . S
C237 C256 1.368 . S
C237 H261 0.949 . S
H238 C242 0.949 . S
C239 C240 1.349 . S
C239 C241 1.327 . S
C239 H262 0.950 . S
C240 C239 1.349 . S
C240 C252 1.349 . S
C241 C239 1.327 . S
C241 C257 1.429 . S
C241 H263 0.950 . S
C242 H238 0.949 . S
C242 C250 1.574 . S
C242 C258 1.368 . S
H243 C251 0.950 . S
H244 C249 0.950 . S
H245 C250 0.949 . S
H246 C252 0.950 . S
H247 C253 0.950 . S
H248 C254 0.949 . S
C249 H244 0.950 . S
C249 C251 1.327 . S
C249 C255 1.429 . S
C250 C242 1.574 . S
C250 H245 0.949 . S
C250 C256 1.368 . S
C251 C235 1.349 . S
C251 H243 0.950 . S
C251 C249 1.327 . S
C252 C240 1.349 . S
C252 H246 0.950 . S
C252 C253 1.327 . S
C253 H247 0.950 . S
C253 C252 1.327 . S
C253 C257 1.429 . S
C254 C237 1.574 . S
C254 H248 0.949 . S
C254 C258 1.368 . S
C255 C236 1.429 . S
C255 C249 1.429 . S
C255 C256 1.523 . S
C256 C237 1.368 . S
C256 C250 1.368 . S
C256 C255 1.523 . S
C257 C241 1.429 . S
C257 C253 1.429 . S
C257 C258 1.523 . S
C258 C242 1.368 . S
C258 C254 1.368 . S
C258 C257 1.523 . S
H259 C234 0.950 . S
H260 C236 0.950 . S
H261 C237 0.949 . S
H262 C239 0.950 . S
H263 C241 0.950 . S
C264 C265 1.349 . S
C264 C266 1.327 . S
C264 H289 0.950 . S
C265 C264 1.349 . S
C265 C281 1.349 . S
C266 C264 1.327 . S
C266 C285 1.429 . S
C266 H290 0.950 . S
C267 C284 1.574 . S
C267 C286 1.368 . S
C267 H291 0.949 . S
H268 C272 0.949 . S
C269 C270 1.349 . S
C269 C271 1.327 . S
C269 H292 0.950 . S
C270 C269 1.349 . S
C270 C282 1.349 . S
C271 C269 1.327 . S
C271 C287 1.429 . S
C271 H293 0.950 . S
C272 H268 0.949 . S
C272 C280 1.574 . S
C272 C288 1.368 . S
H273 C281 0.950 . S
H274 C279 0.950 . S
H275 C280 0.949 . S
H276 C282 0.950 . S
H277 C283 0.950 . S
H278 C284 0.949 . S
C279 H274 0.950 . S
C279 C281 1.327 . S
C279 C285 1.429 . S
C280 C272 1.574 . S
C280 H275 0.949 . S
C280 C286 1.368 . S
C281 C265 1.349 . S
C281 H273 0.950 . S
C281 C279 1.327 . S
C282 C270 1.349 . S
C282 H276 0.950 . S
C282 C283 1.327 . S
C283 H277 0.950 . S
C283 C282 1.327 . S
C283 C287 1.429 . S
C284 C267 1.574 . S
C284 H278 0.949 . S
C284 C288 1.368 . S
C285 C266 1.429 . S
C285 C279 1.429 . S
C285 C286 1.523 . S
C286 C267 1.368 . S
C286 C280 1.368 . S
C286 C285 1.523 . S
C287 C271 1.429 . S
C287 C283 1.429 . S
C287 C288 1.523 . S
C288 C272 1.368 . S
C288 C284 1.368 . S
C288 C287 1.523 . S
H289 C264 0.950 . S
H290 C266 0.950 . S
H291 C267 0.949 . S
H292 C269 0.950 . S
H293 C271 0.950 . S
C294 C295 1.349 . S
C294 C296 1.327 . S
C294 H319 0.950 . S
C295 C294 1.349 . S
C295 C311 1.349 . S
C296 C294 1.327 . S
C296 C315 1.429 . S
C296 H320 0.950 . S
C297 C314 1.574 . S
C297 C316 1.368 . S
C297 H321 0.949 . S
H298 C302 0.949 . S
C299 C300 1.349 . S
C299 C301 1.327 . S
C299 H322 0.950 . S
C300 C299 1.349 . S
C300 C312 1.349 . S
C301 C299 1.327 . S
C301 C317 1.429 . S
C301 H323 0.950 . S
C302 H298 0.949 . S
C302 C310 1.574 . S
C302 C318 1.368 . S
H303 C311 0.950 . S
H304 C309 0.950 . S
H305 C310 0.949 . S
H306 C312 0.950 . S
H307 C313 0.950 . S
H308 C314 0.949 . S
C309 H304 0.950 . S
C309 C311 1.327 . S
C309 C315 1.429 . S
C310 C302 1.574 . S
C310 H305 0.949 . S
C310 C316 1.368 . S
C311 C295 1.349 . S
C311 H303 0.950 . S
C311 C309 1.327 . S
C312 C300 1.349 . S
C312 H306 0.950 . S
C312 C313 1.327 . S
C313 H307 0.950 . S
C313 C312 1.327 . S
C313 C317 1.429 . S
C314 C297 1.574 . S
C314 H308 0.949 . S
C314 C318 1.368 . S
C315 C296 1.429 . S
C315 C309 1.429 . S
C315 C316 1.523 . S
C316 C297 1.368 . S
C316 C310 1.368 . S
C316 C315 1.523 . S
C317 C301 1.429 . S
C317 C313 1.429 . S
C317 C318 1.523 . S
C318 C302 1.368 . S
C318 C314 1.368 . S
C318 C317 1.523 . S
H319 C294 0.950 . S
H320 C296 0.950 . S
H321 C297 0.949 . S
H322 C299 0.950 . S
H323 C301 0.950 . S
C324 C325 1.349 . S
C324 C326 1.327 . S
C324 H349 0.950 . S
C325 C324 1.349 . S
C325 C341 1.349 . S
C326 C324 1.327 . S
C326 C345 1.429 . S
C326 H350 0.950 . S
C327 C344 1.574 . S
C327 C346 1.368 . S
C327 H351 0.949 . S
H328 C332 0.949 . S
C329 C330 1.349 . S
C329 C331 1.327 . S
C329 H352 0.950 . S
C330 C329 1.349 . S
C330 C342 1.349 . S
C331 C329 1.327 . S
C331 C347 1.429 . S
C331 H353 0.950 . S
C332 H328 0.949 . S
C332 C340 1.574 . S
C332 C348 1.368 . S
H333 C341 0.950 . S
H334 C339 0.950 . S
H335 C340 0.949 . S
H336 C342 0.950 . S
H337 C343 0.950 . S
H338 C344 0.949 . S
C339 H334 0.950 . S
C339 C341 1.327 . S
C339 C345 1.429 . S
C340 C332 1.574 . S
C340 H335 0.949 . S
C340 C346 1.368 1_455 S
C341 C325 1.349 . S
C341 H333 0.950 . S
C341 C339 1.327 . S
C342 C330 1.349 . S
C342 H336 0.950 . S
C342 C343 1.327 . S
C343 H337 0.950 . S
C343 C342 1.327 . S
C343 C347 1.429 . S
C344 C327 1.574 . S
C344 H338 0.949 . S
C344 C348 1.368 1_655 S
C345 C326 1.429 . S
C345 C339 1.429 . S
C345 C346 1.523 . S
C346 C327 1.368 . S
C346 C340 1.368 1_655 S
C346 C345 1.523 . S
C347 C331 1.429 . S
C347 C343 1.429 . S
C347 C348 1.523 . S
C348 C332 1.368 . S
C348 C344 1.368 1_455 S
C348 C347 1.523 . S
H349 C324 0.950 . S
H350 C326 0.950 . S
H351 C327 0.949 . S
H352 C329 0.950 . S
H353 C331 0.950 . S
C354 C355 1.349 . S
C354 C356 1.327 . S
C354 H379 0.950 . S
C355 C354 1.349 . S
C355 C371 1.349 . S
C356 C354 1.327 . S
C356 C375 1.429 . S
C356 H380 0.950 . S
C357 C374 1.574 . S
C357 C376 1.368 . S
C357 H381 0.949 . S
H358 C362 0.949 . S
C359 C360 1.349 . S
C359 C361 1.327 . S
C359 H382 0.950 . S
C360 C359 1.349 . S
C360 C372 1.349 . S
C361 C359 1.327 . S
C361 C377 1.429 . S
C361 H383 0.950 . S
C362 H358 0.949 . S
C362 C370 1.574 . S
C362 C378 1.368 . S
H363 C371 0.950 . S
H364 C369 0.950 . S
H365 C370 0.949 . S
H366 C372 0.950 . S
H367 C373 0.950 . S
H368 C374 0.949 . S
C369 H364 0.950 . S
C369 C371 1.327 . S
C369 C375 1.429 . S
C370 C362 1.574 . S
C370 H365 0.949 . S
C370 C376 1.368 1_455 S
C371 C355 1.349 . S
C371 H363 0.950 . S
C371 C369 1.327 . S
C372 C360 1.349 . S
C372 H366 0.950 . S
C372 C373 1.327 . S
C373 H367 0.950 . S
C373 C372 1.327 . S
C373 C377 1.429 . S
C374 C357 1.574 . S
C374 H368 0.949 . S
C374 C378 1.368 1_655 S
C375 C356 1.429 . S
C375 C369 1.429 . S
C375 C376 1.523 . S
C376 C357 1.368 . S
C376 C370 1.368 1_655 S
C376 C375 1.523 . S
C377 C361 1.429 . S
C377 C373 1.429 . S
C377 C378 1.523 . S
C378 C362 1.368 . S
C378 C374 1.368 1_455 S
C378 C377 1.523 . S
H379 C354 0.950 . S
H380 C356 0.950 . S
H381 C357 0.949 . S
H382 C359 0.950 . S
H383 C361 0.950 . S
C384 C385 1.349 . S
C384 C386 1.327 . S
C384 H409 0.950 . S
C385 C384 1.349 . S
C385 C401 1.349 . S
C386 C384 1.327 . S
C386 C405 1.429 . S
C386 H410 0.950 . S
C387 C404 1.574 . S
C387 C406 1.368 1_455 S
C387 H411 0.949 . S
H388 C392 0.949 . S
C389 C390 1.349 . S
C389 C391 1.327 . S
C389 H412 0.950 . S
C390 C389 1.349 . S
C390 C402 1.349 . S
C391 C389 1.327 . S
C391 C407 1.429 . S
C391 H413 0.950 . S
C392 H388 0.949 . S
C392 C400 1.574 . S
C392 C408 1.368 1_655 S
H393 C401 0.950 . S
H394 C399 0.950 1_455 S
H395 C400 0.949 . S
H396 C402 0.950 . S
H397 C403 0.963 . S
H398 C404 0.949 . S
C399 H394 0.950 1_655 S
C399 C401 1.327 . S
C399 C405 1.429 . S
C400 C392 1.574 . S
C400 H395 0.949 . S
C400 C406 1.368 . S
C401 C385 1.349 . S
C401 H393 0.950 . S
C401 C399 1.327 . S
C402 C390 1.349 . S
C402 H396 0.950 . S
C402 C403 1.327 . S
C403 H397 0.963 . S
C403 C402 1.327 . S
C403 C407 1.429 . S
C404 C387 1.574 . S
C404 H398 0.949 . S
C404 C408 1.368 . S
C405 C386 1.429 . S
C405 C399 1.429 . S
C405 C406 1.523 . S
C406 C387 1.368 1_655 S
C406 C400 1.368 . S
C406 C405 1.523 . S
C407 C391 1.429 . S
C407 C403 1.429 . S
C407 C408 1.523 . S
C408 C392 1.368 1_455 S
C408 C404 1.368 . S
C408 C407 1.523 . S
H409 C384 0.950 . S
H410 C386 0.950 . S
H411 C387 0.949 . S
H412 C389 0.950 . S
H413 C391 0.950 . S
C414 C415 1.349 . S
C414 C416 1.327 . S
C414 H439 0.950 . S
C415 C414 1.349 . S
C415 C431 1.349 . S
C416 C414 1.327 . S
C416 C435 1.429 . S
C416 H440 0.950 . S
C417 C434 1.574 . S
C417 C436 1.368 1_655 S
C417 H441 0.949 . S
H418 C422 0.949 . S
C419 C420 1.349 . S
C419 C421 1.327 . S
C419 H442 0.950 . S
C420 C419 1.349 . S
C420 C432 1.349 . S
C421 C419 1.327 . S
C421 C437 1.429 . S
C421 H443 0.950 . S
C422 H418 0.949 . S
C422 C430 1.574 . S
C422 C438 1.368 1_455 S
H423 C431 0.950 . S
H424 C429 0.950 . S
H425 C430 0.949 . S
H426 C432 0.950 . S
H427 C433 0.946 1_455 S
H428 C434 0.949 . S
C429 H424 0.950 . S
C429 C431 1.327 . S
C429 C435 1.429 . S
C430 C422 1.574 . S
C430 H425 0.949 . S
C430 C436 1.368 . S
C431 C415 1.349 . S
C431 H423 0.950 . S
C431 C429 1.327 . S
C432 C420 1.349 . S
C432 H426 0.950 . S
C432 C433 1.327 . S
C433 H427 0.946 1_655 S
C433 C432 1.327 . S
C433 C437 1.429 . S
C434 C417 1.574 . S
C434 H428 0.949 . S
C434 C438 1.368 . S
C435 C416 1.429 . S
C435 C429 1.429 . S
C435 C436 1.523 . S
C436 C417 1.368 1_455 S
C436 C430 1.368 . S
C436 C435 1.523 . S
C437 C421 1.429 . S
C437 C433 1.429 . S
C437 C438 1.523 . S
C438 C422 1.368 1_655 S
C438 C434 1.368 . S
C438 C437 1.523 . S
H439 C414 0.950 . S
H440 C416 0.950 . S
H441 C417 0.949 . S
H442 C419 0.950 . S
H443 C421 0.950 . S
C85 C39 1.371 1_554 S
C90 C15 1.377 . S
C115 C57 1.377 . S
C120 C81 1.378 . S
C145 C18 1.372 1_554 S
C150 C36 1.377 . S
C175 C78 1.377 . S
C180 C60 1.378 . S
C205 C77 0.842 . S
C210 C13 0.829 . S
C235 C35 0.841 . S
C240 C55 0.829 . S
C265 C38 0.846 . S
C270 C58 0.853 . S
C295 C80 0.846 . S
C300 C16 0.853 . S
C325 C34 0.829 . S
C330 C56 0.841 . S
C355 C76 0.829 . S
C360 C14 0.842 . S
C385 C79 0.853 . S
C390 C17 0.846 . S
C415 C59 0.846 . S
C420 C37 0.853 . S
