# Generated by pormake.
# Topology ooa, (5)-cn, num edge types: 1
# Building blocks:
#     Node 0, Type 0, BuildingBlock: BEQFEK_clean_sbu_0, # of connection points: 5
#     Node 1, Type 0, BuildingBlock: BEQFEK_clean_sbu_0, # of connection points: 5
#     Node 2, Type 0, BuildingBlock: BEQFEK_clean_sbu_0, # of connection points: 5
#     Node 3, Type 0, BuildingBlock: BEQFEK_clean_sbu_0, # of connection points: 5
#     Node 4, Type 0, BuildingBlock: BEQFEK_clean_sbu_0, # of connection points: 5
#     Node 5, Type 0, BuildingBlock: BEQFEK_clean_sbu_0, # of connection points: 5
#     Node 6, Type 0, BuildingBlock: BEQFEK_clean_sbu_0, # of connection points: 5
#     Node 7, Type 0, BuildingBlock: BEQFEK_clean_sbu_0, # of connection points: 5
#     Edge 8, Type (0, 0), BuildingBlock: TEMPAE_clean_linker_10, # of connection points: 2
#     Edge 9, Type (0, 0), BuildingBlock: TEMPAE_clean_linker_10, # of connection points: 2
#     Edge 10, Type (0, 0), BuildingBlock: TEMPAE_clean_linker_10, # of connection points: 2
#     Edge 11, Type (0, 0), BuildingBlock: TEMPAE_clean_linker_10, # of connection points: 2
#     Edge 12, Type (0, 0), BuildingBlock: TEMPAE_clean_linker_10, # of connection points: 2
#     Edge 13, Type (0, 0), BuildingBlock: TEMPAE_clean_linker_10, # of connection points: 2
#     Edge 14, Type (0, 0), BuildingBlock: TEMPAE_clean_linker_10, # of connection points: 2
#     Edge 15, Type (0, 0), BuildingBlock: TEMPAE_clean_linker_10, # of connection points: 2
#     Edge 16, Type (0, 0), BuildingBlock: TEMPAE_clean_linker_10, # of connection points: 2
#     Edge 17, Type (0, 0), BuildingBlock: TEMPAE_clean_linker_10, # of connection points: 2
#     Edge 18, Type (0, 0), BuildingBlock: TEMPAE_clean_linker_10, # of connection points: 2
#     Edge 19, Type (0, 0), BuildingBlock: TEMPAE_clean_linker_10, # of connection points: 2
#     Edge 20, Type (0, 0), BuildingBlock: TEMPAE_clean_linker_10, # of connection points: 2
#     Edge 21, Type (0, 0), BuildingBlock: TEMPAE_clean_linker_10, # of connection points: 2
#     Edge 22, Type (0, 0), BuildingBlock: TEMPAE_clean_linker_10, # of connection points: 2
#     Edge 23, Type (0, 0), BuildingBlock: TEMPAE_clean_linker_10, # of connection points: 2
#     Edge 24, Type (0, 0), BuildingBlock: TEMPAE_clean_linker_10, # of connection points: 2
#     Edge 25, Type (0, 0), BuildingBlock: TEMPAE_clean_linker_10, # of connection points: 2
#     Edge 26, Type (0, 0), BuildingBlock: TEMPAE_clean_linker_10, # of connection points: 2
#     Edge 27, Type (0, 0), BuildingBlock: TEMPAE_clean_linker_10, # of connection points: 2
# Relax obj value: 0.506
# Max RMSD: 0.273
# Mean RMSD: 0.273
data_MOF--net-ooa--node1-BEQFEK_clean_sbu_0--edge1-TEMPAE_clean_linker_10
_symmetry_space_group_name_H-M    P1
_symmetry_Int_Tables_number       1
_symmetry_cell_setting            triclinic
loop_
_symmetry_equiv_pos_as_xyz
'x, y, z'
_cell_length_a     27.740321
_cell_length_b     47.435604
_cell_length_c     48.916902
_cell_angle_alpha  89.967565
_cell_angle_beta   89.977073
_cell_angle_gamma 90.010513
loop_
_atom_site_label
_atom_site_type_symbol
_atom_site_fract_x
_atom_site_fract_y
_atom_site_fract_z
_atom_type_partial_charge
Co0 Co 0.15922 0.1221 0.03796 0.0
Co1 Co 0.19074 0.15688 0.08947 0.0
C2 C 0.20032 0.09581 0.09058 0.0
O3 O 0.18638 0.09671 0.06589 0.0
O4 O 0.2021 0.1182 0.10485 0.0
C5 C 0.08793 0.08501 0.03198 0.0
O6 O 0.0898 0.09149 0.05808 0.0
C7 C 0.20945 0.18257 0.14395 0.0
C8 C 0.19878 0.22768 0.13455 0.0
C9 C 0.20792 0.20923 0.15591 0.0
N10 N 0.20055 0.18526 0.11699 0.0
N11 N 0.19476 0.21233 0.11153 0.0
C12 C 0.22192 0.15516 0.15738 0.0
H13 H 0.24526 0.14255 0.14365 0.0
H14 H 0.18836 0.14305 0.16123 0.0
H15 H 0.24131 0.15848 0.17693 0.0
C16 C 0.07389 0.15675 0.04342 0.0
N17 N 0.11769 0.1492 0.05232 0.0
N18 N 0.12616 0.16086 0.07616 0.0
C19 C 0.08583 0.1748 0.08405 0.0
C20 C 0.05163 0.1726 0.06332 0.0
C21 C 0.05301 0.14884 0.01623 0.0
H22 H 0.08194 0.14322 1.00156 0.0
H23 H 0.02806 0.13075 0.01877 0.0
H24 H 0.03167 0.16665 0.00784 0.0
O25 O 0.21181 0.14177 0.02018 0.0
O26 O 0.23799 0.16393 0.05779 0.0
H27 H 0.09128 0.21119 0.10937 0.0
H28 H 0.04089 0.1888 0.11726 0.0
C29 C 0.07941 0.18893 0.1111 0.0
H30 H 0.10166 0.17833 0.1269 0.0
H31 H 0.1868 0.22027 0.09215 0.0
O32 O 0.11867 0.09612 0.01584 0.0
C33 C 0.24175 0.15793 0.03225 0.0
Co34 Co 0.33017 0.88872 0.04752 0.0
Co35 Co 0.3067 0.84233 0.09152 0.0
C36 C 0.29966 0.90426 0.10419 0.0
O37 O 0.31428 0.90972 0.08025 0.0
O38 O 0.29267 0.87893 0.11205 0.0
C39 C 0.34833 0.94243 0.02508 0.0
O40 O 0.31168 0.94952 0.04058 0.0
C41 C 0.31461 0.80861 0.14255 0.0
C42 C 0.27777 0.76936 0.13022 0.0
C43 C 0.30013 0.78226 0.15227 0.0
N44 N 0.30123 0.81094 0.11616 0.0
N45 N 0.27961 0.78728 0.10893 0.0
C46 C 0.33872 0.83175 0.15821 0.0
H47 H 0.33626 0.85204 0.1472 0.0
H48 H 0.37752 0.82667 0.1606 0.0
H49 H 0.32239 0.83385 0.17883 0.0
C50 C 0.42064 0.85795 0.04466 0.0
N51 N 0.3772 0.8619 0.05604 0.0
N52 N 0.36896 0.8421 0.07431 0.0
C53 C 0.40716 0.82431 0.07453 0.0
C54 C 0.44088 0.83378 0.05552 0.0
C55 C 0.44261 0.87742 0.02395 0.0
H56 H 0.44262 0.89922 0.03214 0.0
H57 H 0.48031 0.87167 0.01899 0.0
H58 H 0.42066 0.8771 0.005 0.0
O59 O 0.27218 0.87086 0.03203 0.0
O60 O 0.25682 0.83685 0.06228 0.0
H61 H 0.37789 0.78444 0.08628 0.0
H62 H 0.4432 0.78588 0.0867 0.0
C63 C 0.40962 0.79781 0.09099 0.0
H64 H 0.40814 0.80318 0.11304 0.0
H65 H 0.26529 0.78355 0.08954 0.0
O66 O 0.35848 0.91652 0.0222 0.0
C67 C 0.24728 0.84986 0.04008 0.0
Co68 Co 0.16998 0.38691 0.45301 0.0
Co69 Co 0.20142 0.34079 0.41029 0.0
C70 C 0.20531 0.40118 0.39595 0.0
O71 O 0.19108 0.40651 0.41996 0.0
O72 O 0.21149 0.37598 0.38789 0.0
C73 C 0.0989 0.42521 0.45532 0.0
O74 O 0.09659 0.41401 0.43079 0.0
C75 C 0.19779 0.30508 0.36083 0.0
C76 C 0.24435 0.26934 0.37255 0.0
C77 C 0.21731 0.27995 0.35101 0.0
N78 N 0.21267 0.30894 0.38679 0.0
N79 N 0.24017 0.28735 0.3937 0.0
C80 C 0.16797 0.32605 0.34538 0.0
H81 H 0.1655 0.34629 0.35645 0.0
H82 H 0.13076 0.31788 0.34308 0.0
H83 H 0.18329 0.32952 0.32468 0.0
C84 C 0.08731 0.34963 0.45848 0.0
N85 N 0.12834 0.35673 0.44564 0.0
N86 N 0.13824 0.33805 0.42659 0.0
C87 C 0.10213 0.31875 0.4262 0.0
C88 C 0.06882 0.32561 0.44646 0.0
C89 C 0.06714 0.36506 0.48269 0.0
H90 H 0.04088 0.38107 0.47553 0.0
H91 H 0.04796 0.35075 0.49684 0.0
H92 H 0.09637 0.37549 0.49431 0.0
O93 O 0.22679 0.37203 0.47238 0.0
O94 O 0.25119 0.34098 0.44079 0.0
H95 H 0.13521 0.28121 0.41094 0.0
H96 H 0.07005 0.27945 0.41325 0.0
C97 C 0.10122 0.29323 0.40833 0.0
H98 H 0.09887 0.29992 0.38667 0.0
H99 H 0.25697 0.2852 0.41267 0.0
O100 O 0.13178 0.41675 0.47158 0.0
C101 C 0.25656 0.35345 0.46386 0.0
Co102 Co 0.33611 0.61793 0.46325 0.0
Co103 Co 0.3091 0.65453 0.41197 0.0
C104 C 0.29125 0.59378 0.41111 0.0
O105 O 0.3049 0.5938 0.43587 0.0
O106 O 0.29306 0.61622 0.39683 0.0
C107 C 0.39136 0.57146 0.47561 0.0
O108 O 0.38795 0.56991 0.44888 0.0
C109 C 0.30002 0.68151 0.35725 0.0
C110 C 0.30009 0.72652 0.36885 0.0
C111 C 0.29934 0.7087 0.34642 0.0
N112 N 0.3021 0.68338 0.38471 0.0
N113 N 0.3017 0.71036 0.39143 0.0
C114 C 0.29598 0.6542 0.3421 0.0
H115 H 0.27076 0.63996 0.35296 0.0
H116 H 0.33186 0.64388 0.34142 0.0
H117 H 0.28237 0.65733 0.32101 0.0
C118 C 0.42822 0.6459 0.45586 0.0
N119 N 0.3828 0.64123 0.44771 0.0
N120 N 0.37402 0.65565 0.42531 0.0
C121 C 0.4149 0.6694 0.41801 0.0
C122 C 0.45045 0.66338 0.43718 0.0
C123 C 0.44938 0.63532 0.4821 0.0
H124 H 0.42103 0.63338 0.49796 0.0
H125 H 0.46608 0.61442 0.4785 0.0
H126 H 0.47782 0.6498 0.48968 0.0
O127 O 0.28688 0.64106 0.48055 0.0
O128 O 0.26229 0.66349 0.4429 0.0
H129 H 0.40263 0.70814 0.39704 0.0
H130 H 0.45865 0.69114 0.38823 0.0
C131 C 0.42009 0.68749 0.39318 0.0
H132 H 0.40175 0.67742 0.37556 0.0
H133 H 0.30348 0.71774 0.4115 0.0
O134 O 0.36967 0.59127 0.48815 0.0
C135 C 0.2583 0.65799 0.46847 0.0
Co136 Co 0.82869 0.88842 0.95169 0.0
Co137 Co 0.80647 0.84158 0.90825 0.0
C138 C 0.79734 0.90339 0.89515 0.0
O139 O 0.81173 0.90933 0.91903 0.0
O140 O 0.7916 0.87789 0.88749 0.0
C141 C 0.84018 0.94172 0.97691 0.0
O142 O 0.80068 0.94764 0.96332 0.0
C143 C 0.80777 0.81033 0.85626 0.0
C144 C 0.79404 0.76665 0.86991 0.0
C145 C 0.80242 0.7829 0.84687 0.0
N146 N 0.80248 0.81034 0.88359 0.0
N147 N 0.79412 0.78416 0.8916 0.0
C148 C 0.82084 0.83584 0.83987 0.0
H149 H 0.84535 0.84959 0.85185 0.0
H150 H 0.83847 0.82989 0.82034 0.0
H151 H 0.78759 0.84795 0.83527 0.0
C152 C 0.92021 0.85868 0.95466 0.0
N153 N 0.87662 0.8621 0.94331 0.0
N154 N 0.86893 0.84212 0.9252 0.0
C155 C 0.90784 0.82485 0.92491 0.0
C156 C 0.94125 0.83474 0.94386 0.0
C157 C 0.94149 0.87838 0.97535 0.0
H158 H 0.94085 0.90015 0.96709 0.0
H159 H 0.97934 0.87301 0.98036 0.0
H160 H 0.91945 0.87785 0.99427 0.0
O161 O 0.77131 0.86998 0.96733 0.0
O162 O 0.75671 0.83554 0.93747 0.0
H163 H 0.88532 0.78275 0.91648 0.0
H164 H 0.94827 0.78931 0.90948 0.0
C165 C 0.91145 0.7984 0.90846 0.0
H166 H 0.90196 0.8029 0.88687 0.0
H167 H 0.78881 0.77822 0.91192 0.0
O168 O 0.85566 0.91655 0.97694 0.0
C169 C 0.74691 0.84869 0.95956 0.0
Co170 Co 0.66184 0.1205 0.96632 0.0
Co171 Co 0.69105 0.15542 0.91442 0.0
C172 C 0.69915 0.09368 0.91348 0.0
O173 O 0.6854 0.09402 0.93828 0.0
O174 O 0.70217 0.11644 0.89976 0.0
C175 C 0.63125 0.07092 0.99617 0.0
O176 O 0.67214 0.0592 0.98888 0.0
C177 C 0.70124 0.18084 0.85893 0.0
C178 C 0.70399 0.2261 0.86945 0.0
C179 C 0.70358 0.20772 0.84744 0.0
N180 N 0.69949 0.18344 0.88636 0.0
N181 N 0.70149 0.21055 0.89243 0.0
C182 C 0.70338 0.1531 0.84442 0.0
H183 H 0.72803 0.13866 0.85544 0.0
H184 H 0.66693 0.14346 0.84427 0.0
H185 H 0.71662 0.15544 0.82315 0.0
C186 C 0.57396 0.15288 0.96055 0.0
N187 N 0.61838 0.14638 0.95183 0.0
N188 N 0.62687 0.15901 0.92842 0.0
C189 C 0.58631 0.17284 0.92076 0.0
C190 C 0.55162 0.16927 0.94105 0.0
C191 C 0.55311 0.14409 0.98751 0.0
H192 H 0.53486 0.12347 0.98523 0.0
H193 H 0.52589 0.1596 0.99462 0.0
H194 H 0.58194 0.1423 0.00311 0.0
O195 O 0.71511 0.14088 0.98255 0.0
O196 O 0.73975 0.1635 0.94496 0.0
H197 H 0.59826 0.20899 0.89577 0.0
H198 H 0.54161 0.19149 0.88951 0.0
C199 C 0.58031 0.18815 0.89428 0.0
H200 H 0.59786 0.17613 0.87756 0.0
H201 H 0.70027 0.21848 0.91231 0.0
O202 O 0.62424 0.09693 0.99161 0.0
C203 C 0.74426 0.15741 0.97039 0.0
Co204 Co 0.82392 0.61514 0.53932 0.0
Co205 Co 0.80613 0.65644 0.58838 0.0
C206 C 0.78299 0.5962 0.59412 0.0
O207 O 0.79463 0.59342 0.56917 0.0
O208 O 0.7873 0.61982 0.60626 0.0
C209 C 0.84079 0.56079 0.51511 0.0
O210 O 0.80601 0.55227 0.53136 0.0
C211 C 0.80515 0.68481 0.64214 0.0
C212 C 0.80645 0.72968 0.62998 0.0
C213 C 0.8061 0.71204 0.65254 0.0
N214 N 0.80475 0.68632 0.61467 0.0
N215 N 0.80528 0.71322 0.60757 0.0
C216 C 0.8086 0.65782 0.65785 0.0
H217 H 0.83376 0.6432 0.64736 0.0
H218 H 0.82127 0.66147 0.67907 0.0
H219 H 0.77255 0.6477 0.6585 0.0
C220 C 0.92065 0.63866 0.54293 0.0
N221 N 0.87523 0.63698 0.55219 0.0
N222 N 0.8697 0.65394 0.57321 0.0
C223 C 0.91247 0.66668 0.5783 0.0
C224 C 0.94614 0.65713 0.55933 0.0
C225 C 0.93826 0.62438 0.5175 0.0
H226 H 0.94665 0.60205 0.52227 0.0
H227 H 0.97111 0.63465 0.50923 0.0
H228 H 0.90985 0.62499 0.50157 0.0
O229 O 0.77627 0.63966 0.52244 0.0
O230 O 0.75787 0.6663 0.55855 0.0
H231 H 0.90451 0.7076 0.59574 0.0
H232 H 0.96032 0.69029 0.60455 0.0
C233 C 0.92117 0.68707 0.60105 0.0
H234 H 0.90402 0.67923 0.62007 0.0
H235 H 0.80565 0.72032 0.58738 0.0
O236 O 0.85053 0.58693 0.51363 0.0
C237 C 0.75156 0.6591 0.53359 0.0
Co238 Co 0.69802 0.39507 0.5535 0.0
Co239 Co 0.70685 0.34561 0.59623 0.0
C240 C 0.73457 0.40365 0.61117 0.0
O241 O 0.72548 0.41071 0.58679 0.0
O242 O 0.72763 0.37861 0.61954 0.0
C243 C 0.64242 0.44114 0.55163 0.0
O244 O 0.63741 0.43076 0.57637 0.0
C245 C 0.69243 0.30933 0.64527 0.0
C246 C 0.72005 0.26852 0.63031 0.0
C247 C 0.70178 0.28168 0.6534 0.0
N248 N 0.70482 0.31221 0.61873 0.0
N249 N 0.72074 0.28759 0.60991 0.0
C250 C 0.67497 0.33307 0.66286 0.0
H251 H 0.67845 0.35356 0.65235 0.0
H252 H 0.63622 0.33 0.66752 0.0
H253 H 0.69513 0.33345 0.68246 0.0
C254 C 0.60197 0.37105 0.5475 0.0
N255 N 0.64507 0.37109 0.55994 0.0
N256 N 0.64543 0.35207 0.57949 0.0
C257 C 0.60118 0.34001 0.58073 0.0
C258 C 0.57195 0.35212 0.56066 0.0
C259 C 0.59145 0.38628 0.52129 0.0
H260 H 0.62529 0.39071 0.51 0.0
H261 H 0.57285 0.40643 0.52576 0.0
H262 H 0.56724 0.3735 0.50814 0.0
O263 O 0.74922 0.3742 0.53518 0.0
O264 O 0.75646 0.3393 0.56578 0.0
H265 H 0.6081 0.29823 0.59645 0.0
H266 H 0.54821 0.31304 0.60006 0.0
C267 C 0.58736 0.31771 0.60085 0.0
H268 H 0.59707 0.32475 0.62172 0.0
H269 H 0.73346 0.28401 0.59014 0.0
O270 O 0.67169 0.42918 0.5352 0.0
C271 C 0.76918 0.35153 0.54349 0.0
C272 C 0.00925 0.06143 0.03967 0.0
C273 C 0.04841 0.06678 0.02223 0.0
C274 C 0.97242 0.0429 0.03211 0.0
C275 C 0.97476 0.02931 0.00647 0.0
C276 C 0.01311 0.03545 0.98824 0.0
C277 C 0.04959 0.05426 0.99634 0.0
C278 C 0.93195 0.03711 0.05203 0.0
C279 C 0.01644 0.02144 0.96061 0.0
C280 C 0.91444 0.95793 1.00093 0.0
C281 C 0.87174 0.96456 0.98701 0.0
C282 C 0.94821 0.97884 0.00733 0.0
C283 C 0.93899 0.00712 0.99973 0.0
C284 C 0.89534 0.01415 0.9864 0.0
C285 C 0.86212 0.99276 0.98026 0.0
C286 C 0.99414 0.97058 0.02188 0.0
C287 C 0.88424 0.04413 0.97811 0.0
H288 H 0.00757 0.07148 0.05955 0.0
H289 H 0.07959 0.05853 0.98275 0.0
H290 H 0.89652 0.04011 0.04195 0.0
H291 H 0.93376 0.01486 0.05895 0.0
H292 H 0.93361 0.051 0.07029 0.0
H293 H 0.04631 0.03012 0.94803 0.0
H294 H 0.02238 0.99847 0.96331 0.0
H295 H 0.9821 0.02407 0.94927 0.0
H296 H 0.92204 0.93622 0.00635 0.0
H297 H 0.82929 0.99807 0.96944 0.0
H298 H 0.99717 0.98225 0.04145 0.0
H299 H 0.02582 0.9764 0.00922 0.0
H300 H 0.99584 0.94762 0.02628 0.0
H301 H 0.88541 0.05816 0.99623 0.0
H302 H 0.84827 0.04614 0.96831 0.0
H303 H 0.91202 0.05179 0.96358 0.0
C304 C 0.54606 0.05885 0.98702 0.0
C305 C 0.58879 0.05311 1.00127 0.0
C306 C 0.50545 0.04166 0.98993 0.0
C307 C 0.50752 0.01822 0.00774 0.0
C308 C 0.55056 0.01233 0.02233 0.0
C309 C 0.59112 0.0297 0.01859 0.0
C310 C 0.46073 0.04826 0.97349 0.0
C311 C 0.55369 0.98774 0.04184 0.0
C312 C 0.38903 0.98838 0.03335 0.0
C313 C 0.38508 0.96362 0.01785 0.0
C314 C 0.42877 0.00635 0.03028 0.0
C315 C 0.46471 0.99973 0.01078 0.0
C316 C 0.45973 0.97547 0.99416 0.0
C317 C 0.42019 0.9575 0.99813 0.0
C318 C 0.43324 0.0318 0.04867 0.0
C319 C 0.49667 0.96816 0.97261 0.0
H320 H 0.54493 0.0763 0.97274 0.0
H321 H 0.62441 0.02516 0.02932 0.0
H322 H 0.45159 0.03008 0.96019 0.0
H323 H 0.42964 0.05176 0.98733 0.0
H324 H 0.46527 0.06726 0.96045 0.0
H325 H 0.58902 0.98678 0.05249 0.0
H326 H 0.52466 0.98925 0.05739 0.0
H327 H 0.54823 0.9677 0.03059 0.0
H328 H 0.36236 0.99301 0.04892 0.0
H329 H 0.41724 0.93833 0.98619 0.0
H330 H 0.43669 0.05126 0.03625 0.0
H331 H 0.4664 0.02998 0.06123 0.0
H332 H 0.40182 0.03415 0.06257 0.0
H333 H 0.50233 0.98637 0.95872 0.0
H334 H 0.48579 0.9496 0.96022 0.0
H335 H 0.53178 0.96348 0.98246 0.0
C336 C 0.8704 0.51133 0.50956 0.0
C337 C 0.87476 0.54009 0.50328 0.0
C338 C 0.90621 0.49205 0.50178 0.0
C339 C 0.94736 0.50184 0.48754 0.0
C340 C 0.95124 0.53066 0.48039 0.0
C341 C 0.91468 0.54938 0.48814 0.0
C342 C 0.90055 0.46134 0.50934 0.0
C343 C 0.99457 0.54184 0.46512 0.0
C344 C 0.06229 0.45829 0.48956 0.0
C345 C 0.06081 0.44504 0.46399 0.0
C346 C 0.0254 0.47682 0.49761 0.0
C347 C 0.98618 0.48192 0.47972 0.0
C348 C 0.98439 0.46841 0.45401 0.0
C349 C 0.02178 0.45026 0.44643 0.0
C350 C 0.02847 0.49106 0.52514 0.0
C351 C 0.943 0.47317 0.43447 0.0
H352 H 0.83966 0.50395 0.52124 0.0
H353 H 0.91812 0.5715 0.48296 0.0
H354 H 0.90271 0.44801 0.49074 0.0
H355 H 0.9304 0.4548 0.52303 0.0
H356 H 0.86577 0.45702 0.5198 0.0
H357 H 0.99203 0.56486 0.46115 0.0
H358 H 0.02782 0.53771 0.47706 0.0
H359 H 0.99844 0.53076 0.44528 0.0
H360 H 0.09229 0.45428 0.50321 0.0
H361 H 0.02012 0.43999 0.42667 0.0
H362 H 0.99617 0.48582 0.53752 0.0
H363 H 0.02894 0.51429 0.52244 0.0
H364 H 0.06116 0.48471 0.53672 0.0
H365 H 0.90841 0.46757 0.44448 0.0
H366 H 0.94661 0.46055 0.41545 0.0
H367 H 0.94095 0.49579 0.42882 0.0
C368 C 0.45171 0.56185 0.51232 0.0
C369 C 0.4251 0.55249 0.48975 0.0
C370 C 0.48894 0.54525 0.52321 0.0
C371 C 0.49844 0.5184 0.51176 0.0
C372 C 0.4702 0.50842 0.48972 0.0
C373 C 0.4343 0.52578 0.47874 0.0
C374 C 0.51888 0.55669 0.54647 0.0
C375 C 0.47814 0.47951 0.47757 0.0
C376 C 0.61843 0.48096 0.52082 0.0
C377 C 0.60751 0.46236 0.54214 0.0
C378 C 0.58379 0.5003 0.51144 0.0
C379 C 0.53702 0.50025 0.52317 0.0
C380 C 0.52609 0.48154 0.54478 0.0
C381 C 0.56168 0.46311 0.55424 0.0
C382 C 0.59686 0.52041 0.48869 0.0
C383 C 0.47629 0.48023 0.55726 0.0
H384 H 0.44485 0.58263 0.52068 0.0
H385 H 0.4135 0.51851 0.46134 0.0
H386 H 0.51635 0.54247 0.56441 0.0
H387 H 0.55737 0.55751 0.54033 0.0
H388 H 0.50733 0.57816 0.55275 0.0
H389 H 0.45202 0.47464 0.46102 0.0
H390 H 0.51515 0.47799 0.46911 0.0
H391 H 0.47478 0.46315 0.4937 0.0
H392 H 0.65396 0.48043 0.5116 0.0
H393 H 0.5529 0.44846 0.57052 0.0
H394 H 0.5878 0.54235 0.49464 0.0
H395 H 0.57552 0.51533 0.47016 0.0
H396 H 0.63577 0.5194 0.48338 0.0
H397 H 0.46579 0.50123 0.56522 0.0
H398 H 0.47398 0.46468 0.57421 0.0
H399 H 0.44956 0.47433 0.54139 0.0
C400 C 0.32239 0.95064 0.12263 0.0
C401 C 0.28825 0.9289 0.12139 0.0
C402 C 0.30826 0.97871 0.12672 0.0
C403 C 0.25864 0.98513 0.12952 0.0
C404 C 0.22508 0.96274 0.13252 0.0
C405 C 0.2403 0.93472 0.12828 0.0
C406 C 0.34562 0.00162 0.12353 0.0
C407 C 0.17204 0.96853 0.13617 0.0
C408 C 0.22283 0.06325 0.1298 0.0
C409 C 0.21458 0.06786 0.10181 0.0
C410 C 0.23605 0.03627 0.13956 0.0
C411 C 0.24141 0.01362 0.12086 0.0
C412 C 0.23284 0.01835 0.0927 0.0
C413 C 0.2195 0.04515 0.08365 0.0
C414 C 0.2441 0.03195 0.16976 0.0
C415 C 0.23916 0.99523 0.07176 0.0
H416 H 0.35954 0.94613 0.11723 0.0
H417 H 0.21374 0.91799 0.12714 0.0
H418 H 0.34472 0.00965 0.10221 0.0
H419 H 0.33811 0.0196 0.13736 0.0
H420 H 0.38253 0.99362 0.1277 0.0
H421 H 0.15297 0.94994 0.14481 0.0
H422 H 0.16613 0.98693 0.14974 0.0
H423 H 0.15582 0.97346 0.11599 0.0
H424 H 0.21876 0.0806 0.14402 0.0
H425 H 0.21352 0.04832 0.06197 0.0
H426 H 0.28003 0.02243 0.17346 0.0
H427 H 0.21682 0.017 0.17783 0.0
H428 H 0.24149 0.05199 0.18141 0.0
H429 H 0.27699 0.9878 0.07216 0.0
H430 H 0.23067 0.00232 0.05065 0.0
H431 H 0.21565 0.97703 0.07676 0.0
C432 C 0.2645 0.43362 0.37495 0.0
C433 C 0.21638 0.42565 0.37859 0.0
C434 C 0.27669 0.46212 0.37097 0.0
C435 C 0.23973 0.48281 0.37072 0.0
C436 C 0.19094 0.47405 0.37 0.0
C437 C 0.17985 0.44553 0.37423 0.0
C438 C 0.32918 0.47037 0.37143 0.0
C439 C 0.15023 0.49512 0.36927 0.0
C440 C 0.2636 0.54449 0.41773 0.0
C441 C 0.27475 0.56646 0.39957 0.0
C442 C 0.25196 0.51753 0.4084 0.0
C443 C 0.25107 0.51205 0.37995 0.0
C444 C 0.26092 0.53422 0.36128 0.0
C445 C 0.27267 0.56129 0.37133 0.0
C446 C 0.24123 0.49478 0.42925 0.0
C447 C 0.2599 0.52921 0.33085 0.0
H448 H 0.29277 0.41828 0.37859 0.0
H449 H 0.14256 0.43932 0.3772 0.0
H450 H 0.33608 0.48871 0.35792 0.0
H451 H 0.33936 0.47648 0.39257 0.0
H452 H 0.35268 0.4526 0.36502 0.0
H453 H 0.11639 0.48534 0.36168 0.0
H454 H 0.14352 0.50305 0.39028 0.0
H455 H 0.15929 0.51345 0.35616 0.0
H456 H 0.26449 0.54824 0.43958 0.0
H457 H 0.28132 0.57813 0.35717 0.0
H458 H 0.267 0.47706 0.42688 0.0
H459 H 0.20442 0.48627 0.42602 0.0
H460 H 0.24368 0.50261 0.45061 0.0
H461 H 0.28854 0.51398 0.32517 0.0
H462 H 0.26545 0.54896 0.31904 0.0
H463 H 0.22496 0.51973 0.32477 0.0
C464 C 0.73553 0.93349 0.87302 0.0
C465 C 0.78425 0.92762 0.87781 0.0
C466 C 0.71986 0.9615 0.86941 0.0
C467 C 0.75381 0.98384 0.87089 0.0
C468 C 0.80364 0.97735 0.87131 0.0
C469 C 0.81822 0.94928 0.8749 0.0
C470 C 0.66651 0.96736 0.86817 0.0
C471 C 0.84137 1.00024 0.87259 0.0
C472 C 0.71717 0.06179 0.87311 0.0
C473 C 0.71272 0.06601 0.90144 0.0
C474 C 0.72957 0.03505 0.86248 0.0
C475 C 0.73792 0.01223 0.88063 0.0
C476 C 0.73343 0.01661 0.90915 0.0
C477 C 0.72091 0.04321 0.91907 0.0
C478 C 0.73317 0.03115 0.83196 0.0
C479 C 0.74297 0.99328 0.92947 0.0
H480 H 0.70914 0.91681 0.87546 0.0
H481 H 0.85596 0.94472 0.8787 0.0
H482 H 0.65319 0.97237 0.88901 0.0
H483 H 0.65881 0.98574 0.85485 0.0
H484 H 0.64621 0.94878 0.8605 0.0
H485 H 0.87739 0.99222 0.86642 0.0
H486 H 0.83165 0.01829 0.85928 0.0
H487 H 0.84401 0.00812 0.89391 0.0
H488 H 0.71056 0.07925 0.85931 0.0
H489 H 0.71822 0.04618 0.94097 0.0
H490 H 0.70301 0.01765 0.82488 0.0
H491 H 0.76718 0.02024 0.82646 0.0
H492 H 0.73149 0.05155 0.82082 0.0
H493 H 0.71832 0.97529 0.92568 0.0
H494 H 0.73826 1.00023 0.95099 0.0
H495 H 0.78041 0.98558 0.92688 0.0
C496 C 0.71419 0.44151 0.64357 0.0
C497 C 0.74982 0.42661 0.62933 0.0
C498 C 0.71878 0.47071 0.64794 0.0
C499 C 0.75958 0.48505 0.63741 0.0
C500 C 0.7988 0.46917 0.62703 0.0
C501 C 0.79338 0.44005 0.62312 0.0
C502 C 0.67704 0.48662 0.66022 0.0
C503 C 0.84342 0.48336 0.61594 0.0
C504 C 0.74251 0.54977 0.59365 0.0
C505 C 0.767 0.57046 0.60862 0.0
C506 C 0.73679 0.52241 0.60382 0.0
C507 C 0.75596 0.51546 0.62983 0.0
C508 C 0.77672 0.53696 0.64618 0.0
C509 C 0.78215 0.56435 0.63532 0.0
C510 C 0.71354 0.50047 0.58564 0.0
C511 C 0.79629 0.53074 0.67429 0.0
H512 H 0.68022 0.4312 0.64816 0.0
H513 H 0.82074 0.42855 0.61187 0.0
H514 H 0.68974 0.5052 0.67197 0.0
H515 H 0.65319 0.49431 0.6436 0.0
H516 H 0.65531 0.47286 0.67388 0.0
H517 H 0.87349 0.46817 0.61312 0.0
H518 H 0.83503 0.49296 0.59578 0.0
H519 H 0.85555 0.50045 0.62977 0.0
H520 H 0.73 0.55461 0.57317 0.0
H521 H 0.80106 0.58033 0.64699 0.0
H522 H 0.68423 0.48945 0.59675 0.0
H523 H 0.74066 0.48441 0.57967 0.0
H524 H 0.69816 0.50976 0.56669 0.0
H525 H 0.77474 0.51427 0.6848 0.0
H526 H 0.79688 0.55003 0.68716 0.0
H527 H 0.83384 0.52293 0.67244 0.0
C528 C 0.32961 0.16783 0.02761 0.0
C529 C 0.2833 0.16837 0.01632 0.0
C530 C 0.37036 0.17273 0.01122 0.0
C531 C 0.36438 0.17924 0.9831 0.0
C532 C 0.3174 0.18204 0.9722 0.0
C533 C 0.2774 0.17601 0.98882 0.0
C534 C 0.41981 0.16883 0.02357 0.0
C535 C 0.30943 0.18992 0.94265 0.0
C536 C 0.48292 0.20133 0.95082 0.0
C537 C 0.49955 0.17531 0.94123 0.0
C538 C 0.4365 0.20376 0.96222 0.0
C539 C 0.40722 0.17938 0.96472 0.0
C540 C 0.42246 0.15375 0.95265 0.0
C541 C 0.46822 0.1522 0.94068 0.0
C542 C 0.42079 0.23172 0.97385 0.0
C543 C 0.39309 0.12704 0.95518 0.0
H544 H 0.33416 0.16173 0.04882 0.0
H545 H 0.24145 0.17666 0.98013 0.0
H546 H 0.4373 0.15006 0.01434 0.0
H547 H 0.44298 0.1873 0.01905 0.0
H548 H 0.41834 0.16583 0.04608 0.0
H549 H 0.27147 0.19616 0.93868 0.0
H550 H 0.33352 0.20754 0.93663 0.0
H551 H 0.31822 0.17166 0.92939 0.0
H552 H 0.50753 0.21907 0.9516 0.0
H553 H 0.48166 0.13197 0.93366 0.0
H554 H 0.42617 0.23163 0.99632 0.0
H555 H 0.38192 0.23547 0.96991 0.0
H556 H 0.44197 0.24944 0.96511 0.0
H557 H 0.39373 0.11973 0.97674 0.0
H558 H 0.40735 0.10985 0.94206 0.0
H559 H 0.35494 0.1309 0.94959 0.0
C560 C 0.02804 0.82263 0.9379 0.0
C561 C 0.98633 0.82193 0.95394 0.0
C562 C 0.07378 0.82047 0.95015 0.0
C563 C 0.0773 0.81842 0.97902 0.0
C564 C 0.03497 0.81456 0.99476 0.0
C565 C 0.98995 0.8159 0.98189 0.0
C566 C 0.11811 0.8234 0.93253 0.0
C567 C 0.03661 0.81281 0.02557 0.0
C568 C 0.19515 0.81287 0.01864 0.0
C569 C 0.20509 0.84136 0.02375 0.0
C570 C 0.15496 0.80495 0.00285 0.0
C571 C 0.12308 0.826 0.9931 0.0
C572 C 0.13316 0.85481 0.99837 0.0
C573 C 0.17453 0.86211 0.01317 0.0
C574 C 0.14647 0.77417 0.99675 0.0
C575 C 0.0993 0.87796 0.98932 0.0
H576 H 0.02512 0.82729 0.91626 0.0
H577 H 0.95741 0.81537 0.99419 0.0
H578 H 0.13135 0.84545 0.9335 0.0
H579 H 0.14744 0.80946 0.93996 0.0
H580 H 0.1103 0.81827 0.91082 0.0
H581 H 0.00176 0.80556 0.0343 0.0
H582 H 0.06549 0.79834 0.03249 0.0
H583 H 0.04473 0.83401 0.03401 0.0
H584 H 0.21924 0.79686 0.02662 0.0
H585 H 0.18218 0.88412 0.0173 0.0
H586 H 0.14026 0.77114 0.97453 0.0
H587 H 0.11364 0.76677 0.00752 0.0
H588 H 0.17731 0.76079 0.00319 0.0
H589 H 0.09325 0.87686 0.96694 0.0
H590 H 0.11316 0.8993 0.9944 0.0
H591 H 0.06383 0.87517 0.99946 0.0
C592 C 0.5013 0.32138 0.5481 0.0
C593 C 0.52018 0.34803 0.55418 0.0
C594 C 0.45514 0.31868 0.53632 0.0
C595 C 0.42834 0.34325 0.52973 0.0
C596 C 0.44643 0.37004 0.53729 0.0
C597 C 0.49152 0.37197 0.54998 0.0
C598 C 0.43623 0.28968 0.52964 0.0
C599 C 0.4199 0.39691 0.53024 0.0
C600 C 0.34483 0.34442 0.46816 0.0
C601 C 0.29965 0.3473 0.48062 0.0
C602 C 0.38697 0.3421 0.48394 0.0
C603 C 0.3836 0.34156 0.51287 0.0
C604 C 0.33764 0.34258 0.52546 0.0
C605 C 0.29627 0.34607 0.5092 0.0
C606 C 0.43525 0.34196 0.46967 0.0
C607 C 0.33227 0.34094 0.55612 0.0
H608 H 0.52344 0.30283 0.55121 0.0
H609 H 0.50575 0.39257 0.55522 0.0
H610 H 0.39755 0.28791 0.53519 0.0
H611 H 0.43928 0.28591 0.50734 0.0
H612 H 0.4567 0.27293 0.54046 0.0
H613 H 0.43853 0.41599 0.53811 0.0
H614 H 0.41666 0.39884 0.50769 0.0
H615 H 0.38287 0.39643 0.53873 0.0
H616 H 0.34748 0.34554 0.44607 0.0
H617 H 0.26123 0.348 0.51884 0.0
H618 H 0.45666 0.32339 0.47615 0.0
H619 H 0.45594 0.36106 0.47552 0.0
H620 H 0.43164 0.34156 0.44706 0.0
H621 H 0.35476 0.32362 0.56449 0.0
H622 H 0.29422 0.33746 0.56237 0.0
H623 H 0.34499 0.36087 0.56551 0.0
C624 C 0.03063 0.64192 0.55366 0.0
C625 C 0.99768 0.6641 0.55601 0.0
C626 C 0.07618 0.64621 0.54213 0.0
C627 C 0.08964 0.67363 0.53354 0.0
C628 C 0.05846 0.69669 0.53878 0.0
C629 C 0.01232 0.6916 0.54973 0.0
C630 C 0.1079 0.6209 0.53681 0.0
C631 C 0.07226 0.72638 0.53099 0.0
C632 C 0.22061 0.67399 0.51214 0.0
C633 C 0.21652 0.66872 0.48402 0.0
C634 C 0.17952 0.6787 0.52828 0.0
C635 C 0.13333 0.67698 0.51615 0.0
C636 C 0.12929 0.6736 0.48743 0.0
C637 C 0.17109 0.66994 0.47164 0.0
C638 C 0.18548 0.68351 0.55858 0.0
C639 C 0.08072 0.67119 0.47368 0.0
H640 H 0.01913 0.62069 0.55875 0.0
H641 H 0.9867 0.70875 0.55157 0.0
H642 H 0.1114 0.61756 0.51444 0.0
H643 H 0.1446 0.62449 0.54505 0.0
H644 H 0.09318 0.60132 0.54609 0.0
H645 H 0.05023 0.74218 0.54216 0.0
H646 H 0.11097 0.73038 0.53521 0.0
H647 H 0.06629 0.72945 0.50877 0.0
H648 H 0.25585 0.67339 0.5217 0.0
H649 H 0.16786 0.66578 0.44992 0.0
H650 H 0.17816 0.66359 0.56973 0.0
H651 H 0.15946 0.69953 0.56604 0.0
H652 H 0.22262 0.69049 0.56372 0.0
H653 H 0.06274 0.65145 0.48039 0.0
H654 H 0.08373 0.67089 0.45103 0.0
H655 H 0.05716 0.68901 0.47971 0.0
C656 C 0.52735 0.82108 0.0617 0.0
C657 C 0.48577 0.82062 0.04556 0.0
C658 C 0.57317 0.81888 0.04953 0.0
C659 C 0.57691 0.81705 0.02066 0.0
C660 C 0.53468 0.81336 0.00482 0.0
C661 C 0.48957 0.81469 0.01761 0.0
C662 C 0.61738 0.82159 0.06726 0.0
C663 C 0.53655 0.81185 0.974 0.0
C664 C 0.67442 0.86082 0.98677 0.0
C665 C 0.70485 0.84009 0.97601 0.0
C666 C 0.63308 0.85349 1.0016 0.0
C667 C 0.62284 0.82466 0.00671 0.0
C668 C 0.65464 0.80363 0.99682 0.0
C669 C 0.69481 0.81159 0.981 0.0
C670 C 0.59934 0.87664 0.01078 0.0
C671 C 0.646 0.77282 0.00273 0.0
H672 H 0.52429 0.82564 0.08335 0.0
H673 H 0.45713 0.81433 0.00524 0.0
H674 H 0.64667 0.80763 0.05981 0.0
H675 H 0.63079 0.84361 0.06643 0.0
H676 H 0.60937 0.81634 0.08893 0.0
H677 H 0.50166 0.80486 0.96514 0.0
H678 H 0.5451 0.83307 0.96572 0.0
H679 H 0.56525 0.79727 0.96707 0.0
H680 H 0.6821 0.88285 0.98273 0.0
H681 H 0.71878 0.79559 0.9729 0.0
H682 H 0.5927 0.87519 0.03309 0.0
H683 H 0.5641 0.8742 1.00033 0.0
H684 H 0.61361 0.898 0.00613 0.0
H685 H 0.63837 0.76966 0.0248 0.0
H686 H 0.67736 0.75956 0.99689 0.0
H687 H 0.61401 0.76536 0.99124 0.0
C688 C 0.83208 0.16726 0.97543 0.0
C689 C 0.78546 0.1683 0.98627 0.0
C690 C 0.87237 0.17245 0.9921 0.0
C691 C 0.86558 0.17974 0.01998 0.0
C692 C 0.81831 0.18289 0.03038 0.0
C693 C 0.7788 0.17659 0.01353 0.0
C694 C 0.92219 0.16818 0.98034 0.0
C695 C 0.8095 0.19153 0.05965 0.0
C696 C 0.96866 0.15505 0.06439 0.0
C697 C 0.99951 0.17837 0.06323 0.0
C698 C 0.92332 0.15575 0.05182 0.0
C699 C 0.90791 0.1808 0.03869 0.0
C700 C 0.93652 0.20549 0.0406 0.0
C701 C 0.98259 0.20386 0.05251 0.0
C702 C 0.89475 0.1287 0.04984 0.0
C703 C 0.92059 0.23287 0.02779 0.0
H704 H 0.83718 0.16058 0.95443 0.0
H705 H 0.7426 0.17753 0.02186 0.0
H706 H 0.94489 0.18703 0.98409 0.0
H707 H 0.93983 0.15006 0.99064 0.0
H708 H 0.92136 0.164 0.958 0.0
H709 H 0.77131 0.19754 0.06323 0.0
H710 H 0.81854 0.17377 0.07347 0.0
H711 H 0.833 0.20955 0.06529 0.0
H712 H 0.98239 0.1352 0.07221 0.0
H713 H 0.00688 0.22172 0.05121 0.0
H714 H 0.89568 0.12091 0.02845 0.0
H715 H 0.85648 0.13235 0.0553 0.0
H716 H 0.90942 0.11192 0.06335 0.0
H717 H 0.92645 0.23191 0.00538 0.0
H718 H 0.94125 0.25107 0.03597 0.0
H719 H 0.88157 0.23653 0.03134 0.0
C720 C 0.71955 0.67918 0.49024 0.0
C721 C 0.71189 0.67138 0.51754 0.0
C722 C 0.68058 0.68522 0.47288 0.0
C723 C 0.63298 0.68201 0.48281 0.0
C724 C 0.62531 0.67588 0.51089 0.0
C725 C 0.66504 0.6711 0.52805 0.0
C726 C 0.69038 0.69296 0.44348 0.0
C727 C 0.57525 0.6715 0.52227 0.0
C728 C 0.51484 0.69842 0.44721 0.0
C729 C 0.50169 0.6714 0.4385 0.0
C730 C 0.56014 0.7031 0.45935 0.0
C731 C 0.59179 0.68 0.4634 0.0
C732 C 0.58025 0.65339 0.45203 0.0
C733 C 0.53558 0.64959 0.43931 0.0
C734 C 0.57207 0.73206 0.47009 0.0
C735 C 0.61241 0.62801 0.45606 0.0
H736 H 0.75598 0.67954 0.48219 0.0
H737 H 0.65924 0.66478 0.54911 0.0
H738 H 0.68603 0.67404 0.4304 0.0
H739 H 0.66447 0.70913 0.43622 0.0
H740 H 0.72764 0.70107 0.44071 0.0
H741 H 0.57517 0.67031 0.54496 0.0
H742 H 0.55083 0.68877 0.51584 0.0
H743 H 0.5603 0.65148 0.51413 0.0
H744 H 0.48832 0.71521 0.44677 0.0
H745 H 0.52494 0.62867 0.4327 0.0
H746 H 0.61087 0.73692 0.46716 0.0
H747 H 0.56439 0.73287 0.49233 0.0
H748 H 0.55018 0.74859 0.45986 0.0
H749 H 0.64993 0.63289 0.44989 0.0
H750 H 0.59987 0.60944 0.44419 0.0
H751 H 0.613 0.6222 0.47804 0.0
C752 C 0.01811 0.30122 0.48067 0.0
C753 C 0.02266 0.31229 0.45426 0.0
C754 C 0.97344 0.30142 0.49417 0.0
C755 C 0.93219 0.31173 0.48032 0.0
C756 C 0.93555 0.31837 0.45212 0.0
C757 C 0.98108 0.31903 0.43948 0.0
C758 C 0.97218 0.29457 0.5243 0.0
C759 C 0.89211 0.3281 0.43617 0.0
C760 C 0.81278 0.31238 0.5194 0.0
C761 C 0.81054 0.3406 0.52777 0.0
C762 C 0.85149 0.30264 0.50328 0.0
C763 C 0.8895 0.32135 0.49641 0.0
C764 C 0.88752 0.34976 0.50542 0.0
C765 C 0.84767 0.3591 0.52051 0.0
C766 C 0.8512 0.27263 0.49307 0.0
C767 C 0.92791 0.3703 0.49957 0.0
H768 H 0.0505 0.29609 0.49206 0.0
H769 H 0.98461 0.32756 0.419 0.0
H770 H 0.97231 0.31454 0.53613 0.0
H771 H 0.93897 0.28289 0.52982 0.0
H772 H 0.00398 0.28191 0.53063 0.0
H773 H 0.8979 0.32593 0.41379 0.0
H774 H 0.85955 0.31594 0.44208 0.0
H775 H 0.8851 0.35064 0.4407 0.0
H776 H 0.78362 0.29821 0.52479 0.0
H777 H 0.84592 0.38089 0.52716 0.0
H778 H 0.88482 0.26166 0.49913 0.0
H779 H 0.84989 0.2726 0.4704 0.0
H780 H 0.81988 0.2605 0.50096 0.0
H781 H 0.92087 0.39155 0.50825 0.0
H782 H 0.93332 0.37253 0.47721 0.0
H783 H 0.96202 0.36219 0.50839 0.0
C784 C 0.25462 0.25256 0.31273 0.0
C785 C 0.21506 0.26768 0.32301 0.0
C786 C 0.25437 0.24153 0.28607 0.0
C787 C 0.21369 0.24586 0.26912 0.0
C788 C 0.17317 0.26047 0.27957 0.0
C789 C 0.17409 0.2708 0.30648 0.0
C790 C 0.29794 0.22561 0.27589 0.0
C791 C 0.12904 0.26555 0.26218 0.0
C792 C 0.23056 0.24408 0.19197 0.0
C793 C 0.21175 0.21754 0.18514 0.0
C794 C 0.23176 0.25342 0.2192 0.0
C795 C 0.21391 0.23576 0.24024 0.0
C796 C 0.19519 0.20886 0.23355 0.0
C797 C 0.19366 0.20026 0.20606 0.0
C798 C 0.25135 0.28243 0.22539 0.0
C799 C 0.17601 0.18933 0.25538 0.0
H800 H 0.2863 0.24973 0.3254 0.0
H801 H 0.14235 0.28103 0.31451 0.0
H802 H 0.287 0.20453 0.26827 0.0
H803 H 0.31446 0.23708 0.25847 0.0
H804 H 0.32567 0.22281 0.29204 0.0
H805 H 0.10059 0.2774 0.2733 0.0
H806 H 0.13913 0.27765 0.24361 0.0
H807 H 0.11375 0.24517 0.25525 0.0
H808 H 0.2441 0.2577 0.17591 0.0
H809 H 0.17694 0.18032 0.20098 0.0
H810 H 0.28172 0.28086 0.24006 0.0
H811 H 0.22296 0.29545 0.23519 0.0
H812 H 0.26419 0.29349 0.20674 0.0
H813 H 0.20348 0.18625 0.27159 0.0
H814 H 0.16576 0.16839 0.24705 0.0
H815 H 0.14387 0.19887 0.26519 0.0
C816 C 0.2664 0.75167 0.18923 0.0
C817 C 0.30244 0.77039 0.18043 0.0
C818 C 0.26655 0.74053 0.21583 0.0
C819 C 0.30345 0.74843 0.23425 0.0
C820 C 0.34053 0.7668 0.22539 0.0
C821 C 0.33996 0.77722 0.19848 0.0
C822 C 0.2268 0.7206 0.22432 0.0
C823 C 0.38051 0.77577 0.24444 0.0
C824 C 0.27582 0.74309 0.31018 0.0
C825 C 0.29964 0.71811 0.31747 0.0
C826 C 0.27701 0.75324 0.28323 0.0
C827 C 0.3025 0.73799 0.26298 0.0
C828 C 0.32688 0.71284 0.27022 0.0
C829 C 0.32574 0.70344 0.29746 0.0
C830 C 0.25112 0.78036 0.27644 0.0
C831 C 0.3543 0.69593 0.24921 0.0
H832 H 0.23744 0.746 0.17542 0.0
H833 H 0.36931 0.79043 0.19168 0.0
H834 H 0.24246 0.70068 0.23224 0.0
H835 H 0.20544 0.73012 0.24112 0.0
H836 H 0.20206 0.7155 0.20717 0.0
H837 H 0.40657 0.79027 0.23444 0.0
H838 H 0.36503 0.78652 0.26257 0.0
H839 H 0.40034 0.75701 0.25196 0.0
H840 H 0.2561 0.75473 0.32563 0.0
H841 H 0.34618 0.68489 0.30313 0.0
H842 H 0.22308 0.77638 0.26075 0.0
H843 H 0.27691 0.7958 0.26768 0.0
H844 H 0.23367 0.78995 0.29464 0.0
H845 H 0.33009 0.69013 0.23206 0.0
H846 H 0.36994 0.67634 0.25795 0.0
H847 H 0.38394 0.70882 0.24052 0.0
C848 C 0.77428 0.71017 0.7003 0.0
C849 C 0.8071 0.72124 0.68138 0.0
C850 C 0.77341 0.71986 0.72743 0.0
C851 C 0.80676 0.74076 0.73585 0.0
C852 C 0.84048 0.75166 0.71684 0.0
C853 C 0.83975 0.74205 0.6897 0.0
C854 C 0.73616 0.7082 0.7469 0.0
C855 C 0.87726 0.7735 0.72514 0.0
C856 C 0.77819 0.78618 0.7978 0.0
C857 C 0.80417 0.77247 0.81843 0.0
C858 C 0.7783 0.77591 0.77089 0.0
C859 C 0.80579 0.75164 0.76441 0.0
C860 C 0.83236 0.73783 0.78521 0.0
C861 C 0.83065 0.7482 0.81209 0.0
C862 C 0.74857 0.79083 0.74946 0.0
C863 C 0.86287 0.71227 0.77902 0.0
H864 H 0.74844 0.69444 0.69368 0.0
H865 H 0.8651 0.75059 0.67499 0.0
H866 H 0.75411 0.69857 0.76488 0.0
H867 H 0.71301 0.72555 0.75459 0.0
H868 H 0.71282 0.69206 0.73714 0.0
H869 H 0.90236 0.77886 0.70822 0.0
H870 H 0.85876 0.79305 0.73182 0.0
H871 H 0.89861 0.7657 0.74277 0.0
H872 H 0.75689 0.80461 0.80286 0.0
H873 H 0.85066 0.7376 0.82811 0.0
H874 H 0.72249 0.77587 0.74021 0.0
H875 H 0.77224 0.79855 0.73278 0.0
H876 H 0.72832 0.80902 0.75797 0.0
H877 H 0.83993 0.69504 0.77093 0.0
H878 H 0.88227 0.70439 0.79737 0.0
H879 H 0.88974 0.71747 0.76298 0.0
C880 C 0.6635 0.27657 0.69997 0.0
C881 C 0.69949 0.26897 0.68122 0.0
C882 C 0.66325 0.2657 0.72671 0.0
C883 C 0.69918 0.24618 0.73475 0.0
C884 C 0.73437 0.23747 0.71558 0.0
C885 C 0.73413 0.24898 0.6891 0.0
C886 C 0.62498 0.2755 0.74651 0.0
C887 C 0.7729 0.21641 0.7232 0.0
C888 C 0.72942 0.24063 0.8104 0.0
C889 C 0.70378 0.21647 0.81827 0.0
C890 C 0.72837 0.25042 0.7833 0.0
C891 C 0.70101 0.23568 0.76349 0.0
C892 C 0.67502 0.21124 0.77128 0.0
C893 C 0.67623 0.20214 0.79864 0.0
C894 C 0.75616 0.27673 0.77595 0.0
C895 C 0.64547 0.19491 0.75078 0.0
H896 H 0.63514 0.29082 0.69382 0.0
H897 H 0.76185 0.24274 0.6747 0.0
H898 H 0.60452 0.25717 0.75449 0.0
H899 H 0.64219 0.28599 0.76427 0.0
H900 H 0.5992 0.29048 0.73698 0.0
H901 H 0.79604 0.21065 0.70552 0.0
H902 H 0.79612 0.22528 0.73952 0.0
H903 H 0.75614 0.19694 0.73146 0.0
H904 H 0.75035 0.25199 0.82552 0.0
H905 H 0.65457 0.18422 0.80475 0.0
H906 H 0.73117 0.29295 0.7678 0.0
H907 H 0.78269 0.27197 0.75961 0.0
H908 H 0.77569 0.28574 0.79374 0.0
H909 H 0.61607 0.2084 0.74272 0.0
H910 H 0.62927 0.17561 0.7598 0.0
H911 H 0.66829 0.18871 0.73315 0.0
loop_
_geom_bond_atom_site_label_1
_geom_bond_atom_site_label_2
_geom_bond_distance
_geom_bond_site_symmetry_2
_ccdc_geom_bond_type
Co0 O3 1.970 . S
Co0 N17 1.989 . S
Co0 O25 1.967 . S
Co0 O32 1.920 . S
Co1 O4 1.966 . S
Co1 N10 2.022 . S
Co1 N18 1.993 . S
Co1 O26 1.941 . S
C2 O3 1.258 . S
C2 O4 1.263 . S
O3 Co0 1.970 . S
O3 C2 1.258 . S
O4 Co1 1.966 . S
O4 C2 1.263 . S
C5 O6 1.235 . S
C5 O32 1.289 . S
O6 C5 1.235 . S
C7 C9 1.400 . S
C7 N10 1.351 . S
C7 C12 1.501 . S
C8 C9 1.387 . S
C8 N11 1.341 . S
C9 C7 1.400 . S
C9 C8 1.387 . S
N10 Co1 2.022 . S
N10 C7 1.351 . S
N10 N11 1.365 . S
N11 C8 1.341 . S
N11 N10 1.365 . S
N11 H31 0.862 . S
C12 C7 1.501 . S
C12 H13 0.961 . S
C12 H14 0.961 . S
C12 H15 0.960 . S
H13 C12 0.961 . S
H14 C12 0.961 . S
H15 C12 0.960 . S
C16 N17 1.342 . S
C16 C20 1.401 1_455 S
C16 C21 1.499 1_455 S
N17 Co0 1.989 . S
N17 C16 1.342 . S
N17 N18 1.388 . S
N18 Co1 1.993 . S
N18 N17 1.388 . S
N18 C19 1.346 . S
C19 N18 1.346 . S
C19 C20 1.396 1_455 S
C19 C29 1.510 . S
C20 C16 1.401 1_655 S
C20 C19 1.396 1_655 S
C21 C16 1.499 1_655 S
C21 H22 0.959 1_655 S
C21 H23 0.960 . S
C21 H24 0.961 . S
H22 C21 0.959 1_455 S
H23 C21 0.960 . S
H24 C21 0.961 . S
O25 Co0 1.967 . S
O25 C33 1.258 . S
O26 Co1 1.941 . S
O26 C33 1.266 . S
H27 C29 0.959 . S
H28 C29 0.961 1_655 S
C29 C19 1.510 . S
C29 H27 0.959 . S
C29 H28 0.961 1_455 S
C29 H30 0.960 . S
H30 C29 0.960 . S
H31 N11 0.862 . S
O32 Co0 1.920 . S
O32 C5 1.289 . S
C33 O25 1.258 . S
C33 O26 1.266 . S
Co34 O37 1.970 . S
Co34 N51 1.989 . S
Co34 O59 1.967 . S
Co34 O66 1.920 . S
Co35 O38 1.966 . S
Co35 N44 2.022 . S
Co35 N52 1.993 . S
Co35 O60 1.941 . S
C36 O37 1.258 . S
C36 O38 1.263 . S
O37 Co34 1.970 . S
O37 C36 1.258 . S
O38 Co35 1.966 . S
O38 C36 1.263 . S
C39 O40 1.235 . S
C39 O66 1.289 . S
O40 C39 1.235 . S
C41 C43 1.400 . S
C41 N44 1.351 . S
C41 C46 1.501 . S
C42 C43 1.387 . S
C42 N45 1.341 . S
C43 C41 1.400 . S
C43 C42 1.387 . S
N44 Co35 2.022 . S
N44 C41 1.351 . S
N44 N45 1.365 . S
N45 C42 1.341 . S
N45 N44 1.365 . S
N45 H65 0.862 . S
C46 C41 1.501 . S
C46 H47 0.961 . S
C46 H48 0.961 . S
C46 H49 0.960 . S
H47 C46 0.961 . S
H48 C46 0.961 . S
H49 C46 0.960 . S
C50 N51 1.342 . S
C50 C54 1.401 . S
C50 C55 1.499 . S
N51 Co34 1.989 . S
N51 C50 1.342 . S
N51 N52 1.388 . S
N52 Co35 1.993 . S
N52 N51 1.388 . S
N52 C53 1.346 . S
C53 N52 1.346 . S
C53 C54 1.396 . S
C53 C63 1.510 . S
C54 C50 1.401 . S
C54 C53 1.396 . S
C55 C50 1.499 . S
C55 H56 0.959 . S
C55 H57 0.960 . S
C55 H58 0.961 . S
H56 C55 0.959 . S
H57 C55 0.960 . S
H58 C55 0.961 . S
O59 Co34 1.967 . S
O59 C67 1.258 . S
O60 Co35 1.941 . S
O60 C67 1.266 . S
H61 C63 0.959 . S
H62 C63 0.961 . S
C63 C53 1.510 . S
C63 H61 0.959 . S
C63 H62 0.961 . S
C63 H64 0.960 . S
H64 C63 0.960 . S
H65 N45 0.862 . S
O66 Co34 1.920 . S
O66 C39 1.289 . S
C67 O59 1.258 . S
C67 O60 1.266 . S
Co68 O71 1.970 . S
Co68 N85 1.989 . S
Co68 O93 1.967 . S
Co68 O100 1.920 . S
Co69 O72 1.966 . S
Co69 N78 2.022 . S
Co69 N86 1.993 . S
Co69 O94 1.941 . S
C70 O71 1.258 . S
C70 O72 1.263 . S
O71 Co68 1.970 . S
O71 C70 1.258 . S
O72 Co69 1.966 . S
O72 C70 1.263 . S
C73 O74 1.235 . S
C73 O100 1.289 . S
O74 C73 1.235 . S
C75 C77 1.400 . S
C75 N78 1.351 . S
C75 C80 1.501 . S
C76 C77 1.387 . S
C76 N79 1.341 . S
C77 C75 1.400 . S
C77 C76 1.387 . S
N78 Co69 2.022 . S
N78 C75 1.351 . S
N78 N79 1.365 . S
N79 C76 1.341 . S
N79 N78 1.365 . S
N79 H99 0.862 . S
C80 C75 1.501 . S
C80 H81 0.961 . S
C80 H82 0.961 . S
C80 H83 0.960 . S
H81 C80 0.961 . S
H82 C80 0.961 . S
H83 C80 0.960 . S
C84 N85 1.342 . S
C84 C88 1.401 1_455 S
C84 C89 1.499 1_455 S
N85 Co68 1.989 . S
N85 C84 1.342 . S
N85 N86 1.388 . S
N86 Co69 1.993 . S
N86 N85 1.388 . S
N86 C87 1.346 . S
C87 N86 1.346 . S
C87 C88 1.396 1_455 S
C87 C97 1.510 . S
C88 C84 1.401 1_655 S
C88 C87 1.396 1_655 S
C89 C84 1.499 1_655 S
C89 H90 0.959 1_655 S
C89 H91 0.960 . S
C89 H92 0.961 . S
H90 C89 0.959 1_455 S
H91 C89 0.960 . S
H92 C89 0.961 . S
O93 Co68 1.967 . S
O93 C101 1.258 . S
O94 Co69 1.941 . S
O94 C101 1.266 . S
H95 C97 0.959 . S
H96 C97 0.961 1_655 S
C97 C87 1.510 . S
C97 H95 0.959 . S
C97 H96 0.961 1_455 S
C97 H98 0.960 . S
H98 C97 0.960 . S
H99 N79 0.862 . S
O100 Co68 1.920 . S
O100 C73 1.289 . S
C101 O93 1.258 . S
C101 O94 1.266 . S
Co102 O105 1.970 . S
Co102 N119 1.989 . S
Co102 O127 1.967 . S
Co102 O134 1.920 . S
Co103 O106 1.966 . S
Co103 N112 2.022 . S
Co103 N120 1.993 . S
Co103 O128 1.941 . S
C104 O105 1.258 . S
C104 O106 1.263 . S
O105 Co102 1.970 . S
O105 C104 1.258 . S
O106 Co103 1.966 . S
O106 C104 1.263 . S
C107 O108 1.235 . S
C107 O134 1.289 . S
O108 C107 1.235 . S
C109 C111 1.400 . S
C109 N112 1.351 . S
C109 C114 1.501 . S
C110 C111 1.387 . S
C110 N113 1.341 . S
C111 C109 1.400 . S
C111 C110 1.387 . S
N112 Co103 2.022 . S
N112 C109 1.351 . S
N112 N113 1.365 . S
N113 C110 1.341 . S
N113 N112 1.365 . S
N113 H133 0.862 . S
C114 C109 1.501 . S
C114 H115 0.961 . S
C114 H116 0.961 . S
C114 H117 0.960 . S
H115 C114 0.961 . S
H116 C114 0.961 . S
H117 C114 0.960 . S
C118 N119 1.342 . S
C118 C122 1.401 . S
C118 C123 1.499 . S
N119 Co102 1.989 . S
N119 C118 1.342 . S
N119 N120 1.388 . S
N120 Co103 1.993 . S
N120 N119 1.388 . S
N120 C121 1.346 . S
C121 N120 1.346 . S
C121 C122 1.396 . S
C121 C131 1.510 . S
C122 C118 1.401 . S
C122 C121 1.396 . S
C123 C118 1.499 . S
C123 H124 0.959 . S
C123 H125 0.960 . S
C123 H126 0.961 . S
H124 C123 0.959 . S
H125 C123 0.960 . S
H126 C123 0.961 . S
O127 Co102 1.967 . S
O127 C135 1.258 . S
O128 Co103 1.941 . S
O128 C135 1.266 . S
H129 C131 0.959 . S
H130 C131 0.961 . S
C131 C121 1.510 . S
C131 H129 0.959 . S
C131 H130 0.961 . S
C131 H132 0.960 . S
H132 C131 0.960 . S
H133 N113 0.862 . S
O134 Co102 1.920 . S
O134 C107 1.289 . S
C135 O127 1.258 . S
C135 O128 1.266 . S
Co136 O139 1.970 . S
Co136 N153 1.989 . S
Co136 O161 1.967 . S
Co136 O168 1.920 . S
Co137 O140 1.966 . S
Co137 N146 2.022 . S
Co137 N154 1.993 . S
Co137 O162 1.941 . S
C138 O139 1.258 . S
C138 O140 1.263 . S
O139 Co136 1.970 . S
O139 C138 1.258 . S
O140 Co137 1.966 . S
O140 C138 1.263 . S
C141 O142 1.235 . S
C141 O168 1.289 . S
O142 C141 1.235 . S
C143 C145 1.400 . S
C143 N146 1.351 . S
C143 C148 1.501 . S
C144 C145 1.387 . S
C144 N147 1.341 . S
C145 C143 1.400 . S
C145 C144 1.387 . S
N146 Co137 2.022 . S
N146 C143 1.351 . S
N146 N147 1.365 . S
N147 C144 1.341 . S
N147 N146 1.365 . S
N147 H167 0.862 . S
C148 C143 1.501 . S
C148 H149 0.961 . S
C148 H150 0.961 . S
C148 H151 0.960 . S
H149 C148 0.961 . S
H150 C148 0.961 . S
H151 C148 0.960 . S
C152 N153 1.342 . S
C152 C156 1.401 1_655 S
C152 C157 1.499 1_655 S
N153 Co136 1.989 . S
N153 C152 1.342 . S
N153 N154 1.388 . S
N154 Co137 1.993 . S
N154 N153 1.388 . S
N154 C155 1.346 . S
C155 N154 1.346 . S
C155 C156 1.396 1_655 S
C155 C165 1.510 . S
C156 C152 1.401 1_455 S
C156 C155 1.396 1_455 S
C157 C152 1.499 1_455 S
C157 H158 0.959 1_455 S
C157 H159 0.960 . S
C157 H160 0.961 . S
H158 C157 0.959 1_655 S
H159 C157 0.960 . S
H160 C157 0.961 . S
O161 Co136 1.967 . S
O161 C169 1.258 . S
O162 Co137 1.941 . S
O162 C169 1.266 . S
H163 C165 0.959 . S
H164 C165 0.961 1_455 S
C165 C155 1.510 . S
C165 H163 0.959 . S
C165 H164 0.961 1_655 S
C165 H166 0.960 . S
H166 C165 0.960 . S
H167 N147 0.862 . S
O168 Co136 1.920 . S
O168 C141 1.289 . S
C169 O161 1.258 . S
C169 O162 1.266 . S
Co170 O173 1.970 . S
Co170 N187 1.989 . S
Co170 O195 1.967 . S
Co170 O202 1.920 . S
Co171 O174 1.966 . S
Co171 N180 2.022 . S
Co171 N188 1.993 . S
Co171 O196 1.941 . S
C172 O173 1.258 . S
C172 O174 1.263 . S
O173 Co170 1.970 . S
O173 C172 1.258 . S
O174 Co171 1.966 . S
O174 C172 1.263 . S
C175 O176 1.235 . S
C175 O202 1.289 . S
O176 C175 1.235 . S
C177 C179 1.400 . S
C177 N180 1.351 . S
C177 C182 1.501 . S
C178 C179 1.387 . S
C178 N181 1.341 . S
C179 C177 1.400 . S
C179 C178 1.387 . S
N180 Co171 2.022 . S
N180 C177 1.351 . S
N180 N181 1.365 . S
N181 C178 1.341 . S
N181 N180 1.365 . S
N181 H201 0.862 . S
C182 C177 1.501 . S
C182 H183 0.961 . S
C182 H184 0.961 . S
C182 H185 0.960 . S
H183 C182 0.961 . S
H184 C182 0.961 . S
H185 C182 0.960 . S
C186 N187 1.342 . S
C186 C190 1.401 . S
C186 C191 1.499 . S
N187 Co170 1.989 . S
N187 C186 1.342 . S
N187 N188 1.388 . S
N188 Co171 1.993 . S
N188 N187 1.388 . S
N188 C189 1.346 . S
C189 N188 1.346 . S
C189 C190 1.396 . S
C189 C199 1.510 . S
C190 C186 1.401 . S
C190 C189 1.396 . S
C191 C186 1.499 . S
C191 H192 0.959 . S
C191 H193 0.960 . S
C191 H194 0.961 . S
H192 C191 0.959 . S
H193 C191 0.960 . S
H194 C191 0.961 . S
O195 Co170 1.967 . S
O195 C203 1.258 . S
O196 Co171 1.941 . S
O196 C203 1.266 . S
H197 C199 0.959 . S
H198 C199 0.961 . S
C199 C189 1.510 . S
C199 H197 0.959 . S
C199 H198 0.961 . S
C199 H200 0.960 . S
H200 C199 0.960 . S
H201 N181 0.862 . S
O202 Co170 1.920 . S
O202 C175 1.289 . S
C203 O195 1.258 . S
C203 O196 1.266 . S
Co204 O207 1.970 . S
Co204 N221 1.989 . S
Co204 O229 1.967 . S
Co204 O236 1.920 . S
Co205 O208 1.966 . S
Co205 N214 2.022 . S
Co205 N222 1.993 . S
Co205 O230 1.941 . S
C206 O207 1.258 . S
C206 O208 1.263 . S
O207 Co204 1.970 . S
O207 C206 1.258 . S
O208 Co205 1.966 . S
O208 C206 1.263 . S
C209 O210 1.235 . S
C209 O236 1.289 . S
O210 C209 1.235 . S
C211 C213 1.400 . S
C211 N214 1.351 . S
C211 C216 1.501 . S
C212 C213 1.387 . S
C212 N215 1.341 . S
C213 C211 1.400 . S
C213 C212 1.387 . S
N214 Co205 2.022 . S
N214 C211 1.351 . S
N214 N215 1.365 . S
N215 C212 1.341 . S
N215 N214 1.365 . S
N215 H235 0.862 . S
C216 C211 1.501 . S
C216 H217 0.961 . S
C216 H218 0.961 . S
C216 H219 0.960 . S
H217 C216 0.961 . S
H218 C216 0.961 . S
H219 C216 0.960 . S
C220 N221 1.342 . S
C220 C224 1.401 1_655 S
C220 C225 1.499 1_655 S
N221 Co204 1.989 . S
N221 C220 1.342 . S
N221 N222 1.388 . S
N222 Co205 1.993 . S
N222 N221 1.388 . S
N222 C223 1.346 . S
C223 N222 1.346 . S
C223 C224 1.396 1_655 S
C223 C233 1.510 . S
C224 C220 1.401 1_455 S
C224 C223 1.396 1_455 S
C225 C220 1.499 1_455 S
C225 H226 0.959 1_455 S
C225 H227 0.960 . S
C225 H228 0.961 . S
H226 C225 0.959 1_655 S
H227 C225 0.960 . S
H228 C225 0.961 . S
O229 Co204 1.967 . S
O229 C237 1.258 . S
O230 Co205 1.941 . S
O230 C237 1.266 . S
H231 C233 0.959 . S
H232 C233 0.961 1_455 S
C233 C223 1.510 . S
C233 H231 0.959 . S
C233 H232 0.961 1_655 S
C233 H234 0.960 . S
H234 C233 0.960 . S
H235 N215 0.862 . S
O236 Co204 1.920 . S
O236 C209 1.289 . S
C237 O229 1.258 . S
C237 O230 1.266 . S
Co238 O241 1.970 . S
Co238 N255 1.989 . S
Co238 O263 1.967 . S
Co238 O270 1.920 . S
Co239 O242 1.966 . S
Co239 N248 2.022 . S
Co239 N256 1.993 . S
Co239 O264 1.941 . S
C240 O241 1.258 . S
C240 O242 1.263 . S
O241 Co238 1.970 . S
O241 C240 1.258 . S
O242 Co239 1.966 . S
O242 C240 1.263 . S
C243 O244 1.235 . S
C243 O270 1.289 . S
O244 C243 1.235 . S
C245 C247 1.400 . S
C245 N248 1.351 . S
C245 C250 1.501 . S
C246 C247 1.387 . S
C246 N249 1.341 . S
C247 C245 1.400 . S
C247 C246 1.387 . S
N248 Co239 2.022 . S
N248 C245 1.351 . S
N248 N249 1.365 . S
N249 C246 1.341 . S
N249 N248 1.365 . S
N249 H269 0.862 . S
C250 C245 1.501 . S
C250 H251 0.961 . S
C250 H252 0.961 . S
C250 H253 0.960 . S
H251 C250 0.961 . S
H252 C250 0.961 . S
H253 C250 0.960 . S
C254 N255 1.342 . S
C254 C258 1.401 . S
C254 C259 1.499 . S
N255 Co238 1.989 . S
N255 C254 1.342 . S
N255 N256 1.388 . S
N256 Co239 1.993 . S
N256 N255 1.388 . S
N256 C257 1.346 . S
C257 N256 1.346 . S
C257 C258 1.396 . S
C257 C267 1.510 . S
C258 C254 1.401 . S
C258 C257 1.396 . S
C259 C254 1.499 . S
C259 H260 0.959 . S
C259 H261 0.960 . S
C259 H262 0.961 . S
H260 C259 0.959 . S
H261 C259 0.960 . S
H262 C259 0.961 . S
O263 Co238 1.967 . S
O263 C271 1.258 . S
O264 Co239 1.941 . S
O264 C271 1.266 . S
H265 C267 0.959 . S
H266 C267 0.961 . S
C267 C257 1.510 . S
C267 H265 0.959 . S
C267 H266 0.961 . S
C267 H268 0.960 . S
H268 C267 0.960 . S
H269 N249 0.862 . S
O270 Co238 1.920 . S
O270 C243 1.289 . S
C271 O263 1.258 . S
C271 O264 1.266 . S
C272 C273 1.391 . S
C272 C274 1.394 . S
C272 H288 0.931 . S
C273 C272 1.391 . S
C273 C277 1.376 1_554 S
C274 C272 1.394 . S
C274 C275 1.369 . S
C274 C278 1.531 1_545 S
C275 C274 1.369 . S
C275 C276 1.410 1_454 S
C275 C283 1.503 1_445 S
C276 C275 1.410 1_656 S
C276 C277 1.392 1_655 S
C276 C279 1.511 . S
C277 C273 1.376 1_556 S
C277 C276 1.392 1_455 S
C277 H289 0.929 . S
C278 C274 1.531 1_565 S
C278 H290 0.960 . S
C278 H291 0.962 . S
C278 H292 0.960 . S
C279 C276 1.511 . S
C279 H293 0.961 . S
C279 H294 0.961 . S
C279 H295 0.961 . S
C280 C281 1.370 . S
C280 C282 1.363 . S
C280 H296 0.931 . S
C281 C280 1.370 . S
C281 C285 1.408 1_556 S
C282 C280 1.363 . S
C282 C283 1.370 1_556 S
C282 C286 1.524 1_655 S
C283 C275 1.503 1_665 S
C283 C282 1.370 1_554 S
C283 C284 1.403 . S
C284 C283 1.403 . S
C284 C285 1.404 . S
C284 C287 1.539 1_565 S
C285 C281 1.408 1_554 S
C285 C284 1.404 . S
C285 H297 0.930 . S
C286 C282 1.524 1_455 S
C286 H298 0.956 . S
C286 H299 0.961 . S
C286 H300 0.961 . S
C287 C284 1.539 1_545 S
C287 H301 0.958 1_545 S
C287 H302 0.958 1_545 S
C287 H303 0.960 . S
H288 C272 0.931 . S
H289 C277 0.929 . S
H290 C278 0.960 . S
H291 C278 0.962 . S
H292 C278 0.960 . S
H293 C279 0.961 . S
H294 C279 0.961 . S
H295 C279 0.961 . S
H296 C280 0.931 . S
H297 C285 0.930 . S
H298 C286 0.956 . S
H299 C286 0.961 . S
H300 C286 0.961 . S
H301 C287 0.958 1_565 S
H302 C287 0.958 1_565 S
H303 C287 0.960 . S
C304 C305 1.391 . S
C304 C306 1.394 . S
C304 H320 0.931 . S
C305 C304 1.391 . S
C305 C309 1.376 1_556 S
C306 C304 1.394 . S
C306 C307 1.369 . S
C306 C310 1.531 . S
C307 C306 1.369 . S
C307 C308 1.410 1_556 S
C307 C315 1.503 1_545 S
C308 C307 1.410 1_554 S
C308 C309 1.392 . S
C308 C311 1.511 1_545 S
C309 C305 1.376 1_554 S
C309 C308 1.392 . S
C309 H321 0.929 . S
C310 C306 1.531 . S
C310 H322 0.960 . S
C310 H323 0.962 . S
C310 H324 0.960 . S
C311 C308 1.511 1_565 S
C311 H325 0.961 . S
C311 H326 0.961 . S
C311 H327 0.961 . S
C312 C313 1.370 . S
C312 C314 1.363 . S
C312 H328 0.931 . S
C313 C312 1.370 . S
C313 C317 1.408 1_554 S
C314 C312 1.363 . S
C314 C315 1.370 1_554 S
C314 C318 1.524 1_565 S
C315 C307 1.503 1_565 S
C315 C314 1.370 1_556 S
C315 C316 1.403 . S
C316 C315 1.403 . S
C316 C317 1.404 . S
C316 C319 1.539 . S
C317 C313 1.408 1_556 S
C317 C316 1.404 . S
C317 H329 0.930 . S
C318 C314 1.524 1_545 S
C318 H330 0.956 . S
C318 H331 0.961 . S
C318 H332 0.948 1_545 S
C319 C316 1.539 . S
C319 H333 0.958 . S
C319 H334 0.961 . S
C319 H335 0.960 . S
H320 C304 0.931 . S
H321 C309 0.929 . S
H322 C310 0.960 . S
H323 C310 0.962 . S
H324 C310 0.960 . S
H325 C311 0.961 . S
H326 C311 0.961 . S
H327 C311 0.961 . S
H328 C312 0.931 . S
H329 C317 0.930 . S
H330 C318 0.956 . S
H331 C318 0.961 . S
H332 C318 0.948 1_565 S
H333 C319 0.958 . S
H334 C319 0.961 . S
H335 C319 0.960 . S
C336 C337 1.391 . S
C336 C338 1.394 . S
C336 H352 0.931 . S
C337 C336 1.391 . S
C337 C341 1.376 . S
C338 C336 1.394 . S
C338 C339 1.369 . S
C338 C342 1.531 . S
C339 C338 1.369 . S
C339 C340 1.410 1_655 S
C339 C347 1.503 1_655 S
C340 C339 1.410 1_455 S
C340 C341 1.392 1_455 S
C340 C343 1.511 . S
C341 C337 1.376 . S
C341 C340 1.392 1_655 S
C341 H353 0.929 . S
C342 C338 1.531 . S
C342 H354 0.960 . S
C342 H355 0.962 . S
C342 H356 0.960 . S
C343 C340 1.511 . S
C343 H357 0.961 . S
C343 H358 0.961 . S
C343 H359 0.961 . S
C344 C345 1.370 . S
C344 C346 1.363 . S
C344 H360 0.931 . S
C345 C344 1.370 . S
C345 C349 1.408 . S
C346 C344 1.363 . S
C346 C347 1.370 . S
C346 C350 1.524 . S
C347 C339 1.503 1_455 S
C347 C346 1.370 . S
C347 C348 1.403 . S
C348 C347 1.403 . S
C348 C349 1.404 . S
C348 C351 1.539 1_455 S
C349 C345 1.408 . S
C349 C348 1.404 . S
C349 H361 0.930 . S
C350 C346 1.524 . S
C350 H362 0.956 . S
C350 H363 0.961 . S
C350 H364 0.961 . S
C351 C348 1.539 1_655 S
C351 H365 0.958 . S
C351 H366 0.961 1_655 S
C351 H367 0.960 . S
H352 C336 0.931 . S
H353 C341 0.929 . S
H354 C342 0.960 . S
H355 C342 0.962 . S
H356 C342 0.960 . S
H357 C343 0.961 . S
H358 C343 0.961 . S
H359 C343 0.961 . S
H360 C344 0.931 . S
H361 C349 0.930 . S
H362 C350 0.956 . S
H363 C350 0.961 . S
H364 C350 0.961 . S
H365 C351 0.958 . S
H366 C351 0.961 1_455 S
H367 C351 0.960 . S
C368 C369 1.391 . S
C368 C370 1.394 . S
C368 H384 0.931 . S
C369 C368 1.391 . S
C369 C373 1.376 . S
C370 C368 1.394 . S
C370 C371 1.369 . S
C370 C374 1.531 . S
C371 C370 1.369 . S
C371 C372 1.410 . S
C371 C379 1.503 . S
C372 C371 1.410 . S
C372 C373 1.392 . S
C372 C375 1.511 . S
C373 C369 1.376 . S
C373 C372 1.392 . S
C373 H385 0.929 . S
C374 C370 1.531 . S
C374 H386 0.960 . S
C374 H387 0.962 . S
C374 H388 0.960 . S
C375 C372 1.511 . S
C375 H389 0.961 . S
C375 H390 0.961 . S
C375 H391 0.961 . S
C376 C377 1.370 . S
C376 C378 1.363 . S
C376 H392 0.931 . S
C377 C376 1.370 . S
C377 C381 1.408 . S
C378 C376 1.363 . S
C378 C379 1.370 . S
C378 C382 1.524 . S
C379 C371 1.503 . S
C379 C378 1.370 . S
C379 C380 1.403 . S
C380 C379 1.403 . S
C380 C381 1.404 . S
C380 C383 1.539 . S
C381 C377 1.408 . S
C381 C380 1.404 . S
C381 H393 0.930 . S
C382 C378 1.524 . S
C382 H394 0.956 . S
C382 H395 0.961 . S
C382 H396 0.961 . S
C383 C380 1.539 . S
C383 H397 0.958 . S
C383 H398 0.961 . S
C383 H399 0.960 . S
H384 C368 0.931 . S
H385 C373 0.929 . S
H386 C374 0.960 . S
H387 C374 0.962 . S
H388 C374 0.960 . S
H389 C375 0.961 . S
H390 C375 0.961 . S
H391 C375 0.961 . S
H392 C376 0.931 . S
H393 C381 0.930 . S
H394 C382 0.956 . S
H395 C382 0.961 . S
H396 C382 0.961 . S
H397 C383 0.958 . S
H398 C383 0.961 . S
H399 C383 0.960 . S
C400 C401 1.391 . S
C400 C402 1.394 . S
C400 H416 0.931 . S
C401 C400 1.391 . S
C401 C405 1.376 . S
C402 C400 1.394 . S
C402 C403 1.369 . S
C402 C406 1.531 1_565 S
C403 C402 1.369 . S
C403 C404 1.410 . S
C403 C411 1.503 1_565 S
C404 C403 1.410 . S
C404 C405 1.392 . S
C404 C407 1.511 . S
C405 C401 1.376 . S
C405 C404 1.392 . S
C405 H417 0.929 . S
C406 C402 1.531 1_545 S
C406 H418 0.960 . S
C406 H419 0.962 . S
C406 H420 0.960 . S
C407 C404 1.511 . S
C407 H421 0.961 . S
C407 H422 0.961 . S
C407 H423 0.961 . S
C408 C409 1.370 . S
C408 C410 1.363 . S
C408 H424 0.931 . S
C409 C408 1.370 . S
C409 C413 1.408 . S
C410 C408 1.363 . S
C410 C411 1.370 . S
C410 C414 1.524 . S
C411 C403 1.503 1_545 S
C411 C410 1.370 . S
C411 C412 1.403 . S
C412 C411 1.403 . S
C412 C413 1.404 . S
C412 C415 1.539 . S
C413 C409 1.408 . S
C413 C412 1.404 . S
C413 H425 0.930 . S
C414 C410 1.524 . S
C414 H426 0.956 . S
C414 H427 0.961 1_545 S
C414 H428 0.961 . S
C415 C412 1.539 . S
C415 H429 0.958 . S
C415 H430 0.961 . S
C415 H431 0.960 . S
H416 C400 0.931 . S
H417 C405 0.929 . S
H418 C406 0.960 . S
H419 C406 0.962 . S
H420 C406 0.960 . S
H421 C407 0.961 . S
H422 C407 0.961 . S
H423 C407 0.961 . S
H424 C408 0.931 . S
H425 C413 0.930 . S
H426 C414 0.956 . S
H427 C414 0.961 1_565 S
H428 C414 0.961 . S
H429 C415 0.958 . S
H430 C415 0.961 . S
H431 C415 0.960 . S
C432 C433 1.391 . S
C432 C434 1.394 . S
C432 H448 0.931 . S
C433 C432 1.391 . S
C433 C437 1.376 . S
C434 C432 1.394 . S
C434 C435 1.369 . S
C434 C438 1.531 . S
C435 C434 1.369 . S
C435 C436 1.410 . S
C435 C443 1.503 . S
C436 C435 1.410 . S
C436 C437 1.392 . S
C436 C439 1.511 . S
C437 C433 1.376 . S
C437 C436 1.392 . S
C437 H449 0.929 . S
C438 C434 1.531 . S
C438 H450 0.960 . S
C438 H451 0.962 . S
C438 H452 0.960 . S
C439 C436 1.511 . S
C439 H453 0.961 . S
C439 H454 0.961 . S
C439 H455 0.961 . S
C440 C441 1.370 . S
C440 C442 1.363 . S
C440 H456 0.931 . S
C441 C440 1.370 . S
C441 C445 1.408 . S
C442 C440 1.363 . S
C442 C443 1.370 . S
C442 C446 1.524 . S
C443 C435 1.503 . S
C443 C442 1.370 . S
C443 C444 1.403 . S
C444 C443 1.403 . S
C444 C445 1.404 . S
C444 C447 1.539 . S
C445 C441 1.408 . S
C445 C444 1.404 . S
C445 H457 0.930 . S
C446 C442 1.524 . S
C446 H458 0.956 . S
C446 H459 0.961 . S
C446 H460 0.961 . S
C447 C444 1.539 . S
C447 H461 0.958 . S
C447 H462 0.961 . S
C447 H463 0.960 . S
H448 C432 0.931 . S
H449 C437 0.929 . S
H450 C438 0.960 . S
H451 C438 0.962 . S
H452 C438 0.960 . S
H453 C439 0.961 . S
H454 C439 0.961 . S
H455 C439 0.961 . S
H456 C440 0.931 . S
H457 C445 0.930 . S
H458 C446 0.956 . S
H459 C446 0.961 . S
H460 C446 0.961 . S
H461 C447 0.958 . S
H462 C447 0.961 . S
H463 C447 0.960 . S
C464 C465 1.391 . S
C464 C466 1.394 . S
C464 H480 0.931 . S
C465 C464 1.391 . S
C465 C469 1.376 . S
C466 C464 1.394 . S
C466 C467 1.369 . S
C466 C470 1.531 . S
C467 C466 1.369 . S
C467 C468 1.410 . S
C467 C475 1.503 1_565 S
C468 C467 1.410 . S
C468 C469 1.392 . S
C468 C471 1.511 1_565 S
C469 C465 1.376 . S
C469 C468 1.392 . S
C469 H481 0.929 . S
C470 C466 1.531 . S
C470 H482 0.960 . S
C470 H483 0.962 . S
C470 H484 0.960 . S
C471 C468 1.511 1_545 S
C471 H485 0.961 . S
C471 H486 0.961 . S
C471 H487 0.961 . S
C472 C473 1.370 . S
C472 C474 1.363 . S
C472 H488 0.931 . S
C473 C472 1.370 . S
C473 C477 1.408 . S
C474 C472 1.363 . S
C474 C475 1.370 . S
C474 C478 1.524 . S
C475 C467 1.503 1_545 S
C475 C474 1.370 . S
C475 C476 1.403 . S
C476 C475 1.403 . S
C476 C477 1.404 . S
C476 C479 1.539 . S
C477 C473 1.408 . S
C477 C476 1.404 . S
C477 H489 0.930 . S
C478 C474 1.524 . S
C478 H490 0.956 1_545 S
C478 H491 0.961 1_545 S
C478 H492 0.961 . S
C479 C476 1.539 . S
C479 H493 0.958 . S
C479 H494 0.961 . S
C479 H495 0.960 . S
H480 C464 0.931 . S
H481 C469 0.929 . S
H482 C470 0.960 . S
H483 C470 0.962 . S
H484 C470 0.960 . S
H485 C471 0.961 . S
H486 C471 0.961 . S
H487 C471 0.961 . S
H488 C472 0.931 . S
H489 C477 0.930 . S
H490 C478 0.956 1_565 S
H491 C478 0.961 1_565 S
H492 C478 0.961 . S
H493 C479 0.958 . S
H494 C479 0.961 . S
H495 C479 0.960 . S
C496 C497 1.391 . S
C496 C498 1.394 . S
C496 H512 0.931 . S
C497 C496 1.391 . S
C497 C501 1.376 . S
C498 C496 1.394 . S
C498 C499 1.369 . S
C498 C502 1.531 . S
C499 C498 1.369 . S
C499 C500 1.410 . S
C499 C507 1.503 . S
C500 C499 1.410 . S
C500 C501 1.392 . S
C500 C503 1.511 . S
C501 C497 1.376 . S
C501 C500 1.392 . S
C501 H513 0.929 . S
C502 C498 1.531 . S
C502 H514 0.960 . S
C502 H515 0.962 . S
C502 H516 0.960 . S
C503 C500 1.511 . S
C503 H517 0.961 . S
C503 H518 0.961 . S
C503 H519 0.961 . S
C504 C505 1.370 . S
C504 C506 1.363 . S
C504 H520 0.931 . S
C505 C504 1.370 . S
C505 C509 1.408 . S
C506 C504 1.363 . S
C506 C507 1.370 . S
C506 C510 1.524 . S
C507 C499 1.503 . S
C507 C506 1.370 . S
C507 C508 1.403 . S
C508 C507 1.403 . S
C508 C509 1.404 . S
C508 C511 1.539 . S
C509 C505 1.408 . S
C509 C508 1.404 . S
C509 H521 0.930 . S
C510 C506 1.524 . S
C510 H522 0.956 . S
C510 H523 0.961 . S
C510 H524 0.961 . S
C511 C508 1.539 . S
C511 H525 0.958 . S
C511 H526 0.961 . S
C511 H527 0.960 . S
H512 C496 0.931 . S
H513 C501 0.929 . S
H514 C502 0.960 . S
H515 C502 0.962 . S
H516 C502 0.960 . S
H517 C503 0.961 . S
H518 C503 0.961 . S
H519 C503 0.961 . S
H520 C504 0.931 . S
H521 C509 0.930 . S
H522 C510 0.956 . S
H523 C510 0.961 . S
H524 C510 0.961 . S
H525 C511 0.958 . S
H526 C511 0.961 . S
H527 C511 0.960 . S
C528 C529 1.391 . S
C528 C530 1.394 . S
C528 H544 0.931 . S
C529 C528 1.391 . S
C529 C533 1.376 . S
C530 C528 1.394 . S
C530 C531 1.369 1_554 S
C530 C534 1.531 . S
C531 C530 1.369 1_556 S
C531 C532 1.410 . S
C531 C539 1.503 . S
C532 C531 1.410 . S
C532 C533 1.392 1_556 S
C532 C535 1.511 . S
C533 C529 1.376 . S
C533 C532 1.392 1_554 S
C533 H545 0.929 . S
C534 C530 1.531 . S
C534 H546 0.960 1_554 S
C534 H547 0.962 . S
C534 H548 0.960 . S
C535 C532 1.511 . S
C535 H549 0.961 . S
C535 H550 0.961 . S
C535 H551 0.961 . S
C536 C537 1.370 . S
C536 C538 1.363 . S
C536 H552 0.931 . S
C537 C536 1.370 . S
C537 C541 1.408 . S
C538 C536 1.363 . S
C538 C539 1.370 . S
C538 C542 1.524 1_556 S
C539 C531 1.503 . S
C539 C538 1.370 . S
C539 C540 1.403 . S
C540 C539 1.403 . S
C540 C541 1.404 . S
C540 C543 1.539 . S
C541 C537 1.408 . S
C541 C540 1.404 . S
C541 H553 0.930 . S
C542 C538 1.524 1_554 S
C542 H554 0.956 . S
C542 H555 0.961 . S
C542 H556 0.961 . S
C543 C540 1.539 . S
C543 H557 0.958 . S
C543 H558 0.961 . S
C543 H559 0.960 . S
H544 C528 0.931 . S
H545 C533 0.929 . S
H546 C534 0.960 1_556 S
H547 C534 0.962 . S
H548 C534 0.960 . S
H549 C535 0.961 . S
H550 C535 0.961 . S
H551 C535 0.961 . S
H552 C536 0.931 . S
H553 C541 0.930 . S
H554 C542 0.956 . S
H555 C542 0.961 . S
H556 C542 0.961 . S
H557 C543 0.958 . S
H558 C543 0.961 . S
H559 C543 0.960 . S
C560 C561 1.391 . S
C560 C562 1.394 . S
C560 H576 0.931 . S
C561 C560 1.391 . S
C561 C565 1.376 . S
C562 C560 1.394 . S
C562 C563 1.369 . S
C562 C566 1.531 . S
C563 C562 1.369 . S
C563 C564 1.410 . S
C563 C571 1.503 . S
C564 C563 1.410 . S
C564 C565 1.392 . S
C564 C567 1.511 1_556 S
C565 C561 1.376 . S
C565 C564 1.392 . S
C565 H577 0.929 . S
C566 C562 1.531 . S
C566 H578 0.960 . S
C566 H579 0.962 . S
C566 H580 0.960 . S
C567 C564 1.511 1_554 S
C567 H581 0.961 . S
C567 H582 0.961 . S
C567 H583 0.961 . S
C568 C569 1.370 . S
C568 C570 1.363 . S
C568 H584 0.931 . S
C569 C568 1.370 . S
C569 C573 1.408 . S
C570 C568 1.363 . S
C570 C571 1.370 1_554 S
C570 C574 1.524 1_554 S
C571 C563 1.503 . S
C571 C570 1.370 1_556 S
C571 C572 1.407 . S
C572 C571 1.407 . S
C572 C573 1.393 1_556 S
C572 C575 1.545 . S
C573 C569 1.408 . S
C573 C572 1.393 1_554 S
C573 H585 0.930 . S
C574 C570 1.524 1_556 S
C574 H586 0.956 . S
C574 H587 0.961 1_556 S
C574 H588 0.961 1_556 S
C575 C572 1.545 . S
C575 H589 0.958 . S
C575 H590 0.961 1_556 S
C575 H591 0.960 . S
H576 C560 0.931 . S
H577 C565 0.929 . S
H578 C566 0.960 . S
H579 C566 0.962 . S
H580 C566 0.960 . S
H581 C567 0.961 . S
H582 C567 0.961 . S
H583 C567 0.961 . S
H584 C568 0.931 . S
H585 C573 0.930 . S
H586 C574 0.956 . S
H587 C574 0.961 1_554 S
H588 C574 0.961 1_554 S
H589 C575 0.958 . S
H590 C575 0.961 1_554 S
H591 C575 0.960 . S
C592 C593 1.391 . S
C592 C594 1.394 . S
C592 H608 0.931 . S
C593 C592 1.391 . S
C593 C597 1.376 . S
C594 C592 1.394 . S
C594 C595 1.369 . S
C594 C598 1.531 . S
C595 C594 1.369 . S
C595 C596 1.410 . S
C595 C603 1.503 . S
C596 C595 1.410 . S
C596 C597 1.392 . S
C596 C599 1.511 . S
C597 C593 1.376 . S
C597 C596 1.392 . S
C597 H609 0.929 . S
C598 C594 1.531 . S
C598 H610 0.960 . S
C598 H611 0.962 . S
C598 H612 0.960 . S
C599 C596 1.511 . S
C599 H613 0.961 . S
C599 H614 0.961 . S
C599 H615 0.961 . S
C600 C601 1.370 . S
C600 C602 1.363 . S
C600 H616 0.931 . S
C601 C600 1.370 . S
C601 C605 1.408 . S
C602 C600 1.363 . S
C602 C603 1.370 . S
C602 C606 1.524 . S
C603 C595 1.503 . S
C603 C602 1.370 . S
C603 C604 1.403 . S
C604 C603 1.403 . S
C604 C605 1.404 . S
C604 C607 1.539 . S
C605 C601 1.408 . S
C605 C604 1.404 . S
C605 H617 0.930 . S
C606 C602 1.524 . S
C606 H618 0.956 . S
C606 H619 0.961 . S
C606 H620 0.961 . S
C607 C604 1.539 . S
C607 H621 0.958 . S
C607 H622 0.961 . S
C607 H623 0.960 . S
H608 C592 0.931 . S
H609 C597 0.929 . S
H610 C598 0.960 . S
H611 C598 0.962 . S
H612 C598 0.960 . S
H613 C599 0.961 . S
H614 C599 0.961 . S
H615 C599 0.961 . S
H616 C600 0.931 . S
H617 C605 0.930 . S
H618 C606 0.956 . S
H619 C606 0.961 . S
H620 C606 0.961 . S
H621 C607 0.958 . S
H622 C607 0.961 . S
H623 C607 0.960 . S
C624 C625 1.391 . S
C624 C626 1.394 . S
C624 H640 0.931 . S
C625 C624 1.391 . S
C625 C629 1.376 . S
C626 C624 1.394 . S
C626 C627 1.369 . S
C626 C630 1.531 . S
C627 C626 1.369 . S
C627 C628 1.410 . S
C627 C635 1.503 . S
C628 C627 1.410 . S
C628 C629 1.392 . S
C628 C631 1.511 . S
C629 C625 1.376 . S
C629 C628 1.392 . S
C629 H641 0.929 . S
C630 C626 1.531 . S
C630 H642 0.960 . S
C630 H643 0.962 . S
C630 H644 0.960 . S
C631 C628 1.511 . S
C631 H645 0.961 . S
C631 H646 0.961 . S
C631 H647 0.961 . S
C632 C633 1.370 . S
C632 C634 1.363 . S
C632 H648 0.931 . S
C633 C632 1.370 . S
C633 C637 1.408 . S
C634 C632 1.363 . S
C634 C635 1.370 . S
C634 C638 1.524 . S
C635 C627 1.503 . S
C635 C634 1.370 . S
C635 C636 1.403 . S
C636 C635 1.403 . S
C636 C637 1.404 . S
C636 C639 1.539 . S
C637 C633 1.408 . S
C637 C636 1.404 . S
C637 H649 0.930 . S
C638 C634 1.524 . S
C638 H650 0.956 . S
C638 H651 0.961 . S
C638 H652 0.961 . S
C639 C636 1.539 . S
C639 H653 0.958 . S
C639 H654 0.961 . S
C639 H655 0.960 . S
H640 C624 0.931 . S
H641 C629 0.929 . S
H642 C630 0.960 . S
H643 C630 0.962 . S
H644 C630 0.960 . S
H645 C631 0.961 . S
H646 C631 0.961 . S
H647 C631 0.961 . S
H648 C632 0.931 . S
H649 C637 0.930 . S
H650 C638 0.956 . S
H651 C638 0.961 . S
H652 C638 0.961 . S
H653 C639 0.958 . S
H654 C639 0.961 . S
H655 C639 0.960 . S
C656 C657 1.391 . S
C656 C658 1.394 . S
C656 H672 0.931 . S
C657 C656 1.391 . S
C657 C661 1.376 . S
C658 C656 1.394 . S
C658 C659 1.369 . S
C658 C662 1.531 . S
C659 C658 1.369 . S
C659 C660 1.410 . S
C659 C667 1.503 . S
C660 C659 1.410 . S
C660 C661 1.392 . S
C660 C663 1.511 1_554 S
C661 C657 1.376 . S
C661 C660 1.392 . S
C661 H673 0.929 . S
C662 C658 1.531 . S
C662 H674 0.960 . S
C662 H675 0.962 . S
C662 H676 0.960 . S
C663 C660 1.511 1_556 S
C663 H677 0.961 . S
C663 H678 0.961 . S
C663 H679 0.961 . S
C664 C665 1.370 . S
C664 C666 1.363 1_556 S
C664 H680 0.931 . S
C665 C664 1.370 . S
C665 C669 1.408 . S
C666 C664 1.363 1_554 S
C666 C667 1.370 . S
C666 C670 1.524 . S
C667 C659 1.503 . S
C667 C666 1.370 . S
C667 C668 1.403 1_554 S
C668 C667 1.403 1_556 S
C668 C669 1.404 . S
C668 C671 1.539 . S
C669 C665 1.408 . S
C669 C668 1.404 . S
C669 H681 0.930 . S
C670 C666 1.524 . S
C670 H682 0.956 . S
C670 H683 0.961 . S
C670 H684 0.961 . S
C671 C668 1.539 . S
C671 H685 0.958 1_556 S
C671 H686 0.961 . S
C671 H687 0.960 . S
H672 C656 0.931 . S
H673 C661 0.929 . S
H674 C662 0.960 . S
H675 C662 0.962 . S
H676 C662 0.960 . S
H677 C663 0.961 . S
H678 C663 0.961 . S
H679 C663 0.961 . S
H680 C664 0.931 . S
H681 C669 0.930 . S
H682 C670 0.956 . S
H683 C670 0.961 . S
H684 C670 0.961 . S
H685 C671 0.958 1_554 S
H686 C671 0.961 . S
H687 C671 0.960 . S
C688 C689 1.391 . S
C688 C690 1.394 . S
C688 H704 0.931 . S
C689 C688 1.391 . S
C689 C693 1.376 1_556 S
C690 C688 1.394 . S
C690 C691 1.369 1_556 S
C690 C694 1.531 . S
C691 C690 1.369 1_554 S
C691 C692 1.410 . S
C691 C699 1.503 . S
C692 C691 1.410 . S
C692 C693 1.392 . S
C692 C695 1.511 . S
C693 C689 1.376 1_554 S
C693 C692 1.392 . S
C693 H705 0.929 . S
C694 C690 1.531 . S
C694 H706 0.960 . S
C694 H707 0.962 . S
C694 H708 0.960 . S
C695 C692 1.511 . S
C695 H709 0.961 . S
C695 H710 0.961 . S
C695 H711 0.961 . S
C696 C697 1.370 . S
C696 C698 1.363 . S
C696 H712 0.931 . S
C697 C696 1.370 . S
C697 C701 1.408 . S
C698 C696 1.363 . S
C698 C699 1.370 . S
C698 C702 1.502 1_554 S
C699 C691 1.503 . S
C699 C698 1.370 . S
C699 C700 1.403 . S
C700 C699 1.403 . S
C700 C701 1.404 . S
C700 C703 1.539 . S
C701 C697 1.408 . S
C701 C700 1.404 . S
C701 H713 0.930 . S
C702 C698 1.502 1_556 S
C702 H714 0.988 . S
C702 H715 0.953 1_556 S
C702 H716 0.959 1_556 S
C703 C700 1.539 . S
C703 H717 0.958 . S
C703 H718 0.961 . S
C703 H719 0.960 . S
H704 C688 0.931 . S
H705 C693 0.929 . S
H706 C694 0.960 . S
H707 C694 0.962 . S
H708 C694 0.960 . S
H709 C695 0.961 . S
H710 C695 0.961 . S
H711 C695 0.961 . S
H712 C696 0.931 . S
H713 C701 0.930 . S
H714 C702 0.988 . S
H715 C702 0.953 1_554 S
H716 C702 0.959 1_554 S
H717 C703 0.958 . S
H718 C703 0.961 . S
H719 C703 0.960 . S
C720 C721 1.391 . S
C720 C722 1.394 . S
C720 H736 0.931 . S
C721 C720 1.391 . S
C721 C725 1.376 . S
C722 C720 1.394 . S
C722 C723 1.369 . S
C722 C726 1.531 . S
C723 C722 1.369 . S
C723 C724 1.410 . S
C723 C731 1.503 . S
C724 C723 1.410 . S
C724 C725 1.392 . S
C724 C727 1.511 . S
C725 C721 1.376 . S
C725 C724 1.392 . S
C725 H737 0.929 . S
C726 C722 1.531 . S
C726 H738 0.960 . S
C726 H739 0.962 . S
C726 H740 0.960 . S
C727 C724 1.511 . S
C727 H741 0.961 . S
C727 H742 0.961 . S
C727 H743 0.961 . S
C728 C729 1.370 . S
C728 C730 1.363 . S
C728 H744 0.931 . S
C729 C728 1.370 . S
C729 C733 1.408 . S
C730 C728 1.363 . S
C730 C731 1.370 . S
C730 C734 1.524 . S
C731 C723 1.503 . S
C731 C730 1.370 . S
C731 C732 1.403 . S
C732 C731 1.403 . S
C732 C733 1.404 . S
C732 C735 1.539 . S
C733 C729 1.408 . S
C733 C732 1.404 . S
C733 H745 0.930 . S
C734 C730 1.524 . S
C734 H746 0.956 . S
C734 H747 0.961 . S
C734 H748 0.961 . S
C735 C732 1.539 . S
C735 H749 0.958 . S
C735 H750 0.961 . S
C735 H751 0.960 . S
H736 C720 0.931 . S
H737 C725 0.929 . S
H738 C726 0.960 . S
H739 C726 0.962 . S
H740 C726 0.960 . S
H741 C727 0.961 . S
H742 C727 0.961 . S
H743 C727 0.961 . S
H744 C728 0.931 . S
H745 C733 0.930 . S
H746 C734 0.956 . S
H747 C734 0.961 . S
H748 C734 0.961 . S
H749 C735 0.958 . S
H750 C735 0.961 . S
H751 C735 0.960 . S
C752 C753 1.391 . S
C752 C754 1.394 . S
C752 H768 0.931 . S
C753 C752 1.391 . S
C753 C757 1.376 . S
C754 C752 1.394 . S
C754 C755 1.369 . S
C754 C758 1.531 . S
C755 C754 1.369 . S
C755 C756 1.410 . S
C755 C763 1.503 . S
C756 C755 1.410 . S
C756 C757 1.392 . S
C756 C759 1.511 . S
C757 C753 1.376 . S
C757 C756 1.392 . S
C757 H769 0.929 . S
C758 C754 1.531 . S
C758 H770 0.960 . S
C758 H771 0.962 . S
C758 H772 0.960 . S
C759 C756 1.511 . S
C759 H773 0.961 . S
C759 H774 0.961 . S
C759 H775 0.961 . S
C760 C761 1.370 . S
C760 C762 1.363 . S
C760 H776 0.931 . S
C761 C760 1.370 . S
C761 C765 1.408 . S
C762 C760 1.363 . S
C762 C763 1.370 . S
C762 C766 1.524 . S
C763 C755 1.503 . S
C763 C762 1.370 . S
C763 C764 1.403 . S
C764 C763 1.403 . S
C764 C765 1.404 . S
C764 C767 1.539 . S
C765 C761 1.408 . S
C765 C764 1.404 . S
C765 H777 0.930 . S
C766 C762 1.524 . S
C766 H778 0.956 . S
C766 H779 0.961 . S
C766 H780 0.961 . S
C767 C764 1.539 . S
C767 H781 0.958 . S
C767 H782 0.961 . S
C767 H783 0.960 . S
H768 C752 0.931 . S
H769 C757 0.929 . S
H770 C758 0.960 . S
H771 C758 0.962 . S
H772 C758 0.960 . S
H773 C759 0.961 . S
H774 C759 0.961 . S
H775 C759 0.961 . S
H776 C760 0.931 . S
H777 C765 0.930 . S
H778 C766 0.956 . S
H779 C766 0.961 . S
H780 C766 0.961 . S
H781 C767 0.958 . S
H782 C767 0.961 . S
H783 C767 0.960 . S
C784 C785 1.391 . S
C784 C786 1.394 . S
C784 H800 0.931 . S
C785 C784 1.391 . S
C785 C789 1.376 . S
C786 C784 1.394 . S
C786 C787 1.369 . S
C786 C790 1.531 . S
C787 C786 1.369 . S
C787 C788 1.410 . S
C787 C795 1.503 . S
C788 C787 1.410 . S
C788 C789 1.392 . S
C788 C791 1.511 . S
C789 C785 1.376 . S
C789 C788 1.392 . S
C789 H801 0.929 . S
C790 C786 1.531 . S
C790 H802 0.960 . S
C790 H803 0.962 . S
C790 H804 0.960 . S
C791 C788 1.511 . S
C791 H805 0.961 . S
C791 H806 0.961 . S
C791 H807 0.961 . S
C792 C793 1.370 . S
C792 C794 1.363 . S
C792 H808 0.931 . S
C793 C792 1.370 . S
C793 C797 1.408 . S
C794 C792 1.363 . S
C794 C795 1.370 . S
C794 C798 1.524 . S
C795 C787 1.503 . S
C795 C794 1.370 . S
C795 C796 1.403 . S
C796 C795 1.403 . S
C796 C797 1.404 . S
C796 C799 1.539 . S
C797 C793 1.408 . S
C797 C796 1.404 . S
C797 H809 0.930 . S
C798 C794 1.524 . S
C798 H810 0.956 . S
C798 H811 0.961 . S
C798 H812 0.961 . S
C799 C796 1.539 . S
C799 H813 0.958 . S
C799 H814 0.961 1_455 S
C799 H815 0.960 . S
H800 C784 0.931 . S
H801 C789 0.929 . S
H802 C790 0.960 . S
H803 C790 0.962 . S
H804 C790 0.960 . S
H805 C791 0.961 . S
H806 C791 0.961 . S
H807 C791 0.961 . S
H808 C792 0.931 . S
H809 C797 0.930 . S
H810 C798 0.956 . S
H811 C798 0.961 . S
H812 C798 0.961 . S
H813 C799 0.958 . S
H814 C799 0.961 1_655 S
H815 C799 0.960 . S
C816 C817 1.391 . S
C816 C818 1.394 . S
C816 H832 0.931 . S
C817 C816 1.391 . S
C817 C821 1.376 . S
C818 C816 1.394 . S
C818 C819 1.369 . S
C818 C822 1.531 . S
C819 C818 1.369 . S
C819 C820 1.410 . S
C819 C827 1.503 . S
C820 C819 1.410 . S
C820 C821 1.392 . S
C820 C823 1.511 . S
C821 C817 1.376 . S
C821 C820 1.392 . S
C821 H833 0.929 . S
C822 C818 1.531 . S
C822 H834 0.960 . S
C822 H835 0.962 . S
C822 H836 0.960 . S
C823 C820 1.511 . S
C823 H837 0.961 . S
C823 H838 0.961 . S
C823 H839 0.961 . S
C824 C825 1.370 . S
C824 C826 1.363 . S
C824 H840 0.931 . S
C825 C824 1.370 . S
C825 C829 1.408 . S
C826 C824 1.363 . S
C826 C827 1.370 . S
C826 C830 1.524 . S
C827 C819 1.503 . S
C827 C826 1.370 . S
C827 C828 1.403 . S
C828 C827 1.403 . S
C828 C829 1.404 . S
C828 C831 1.539 . S
C829 C825 1.408 . S
C829 C828 1.404 . S
C829 H841 0.930 . S
C830 C826 1.524 . S
C830 H842 0.956 . S
C830 H843 0.961 . S
C830 H844 0.961 . S
C831 C828 1.539 . S
C831 H845 0.958 . S
C831 H846 0.961 . S
C831 H847 0.960 . S
H832 C816 0.931 . S
H833 C821 0.929 . S
H834 C822 0.960 . S
H835 C822 0.962 . S
H836 C822 0.960 . S
H837 C823 0.961 . S
H838 C823 0.961 . S
H839 C823 0.961 . S
H840 C824 0.931 . S
H841 C829 0.930 . S
H842 C830 0.956 . S
H843 C830 0.961 . S
H844 C830 0.961 . S
H845 C831 0.958 . S
H846 C831 0.961 . S
H847 C831 0.960 . S
C848 C849 1.391 . S
C848 C850 1.394 . S
C848 H864 0.931 . S
C849 C848 1.391 . S
C849 C853 1.376 . S
C850 C848 1.394 . S
C850 C851 1.369 . S
C850 C854 1.531 . S
C851 C850 1.369 . S
C851 C852 1.410 . S
C851 C859 1.503 . S
C852 C851 1.410 . S
C852 C853 1.392 . S
C852 C855 1.511 . S
C853 C849 1.376 . S
C853 C852 1.392 . S
C853 H865 0.929 . S
C854 C850 1.531 . S
C854 H866 0.960 . S
C854 H867 0.962 . S
C854 H868 0.960 . S
C855 C852 1.511 . S
C855 H869 0.961 . S
C855 H870 0.961 . S
C855 H871 0.976 . S
C856 C857 1.370 . S
C856 C858 1.363 . S
C856 H872 0.931 . S
C857 C856 1.370 . S
C857 C861 1.408 . S
C858 C856 1.363 . S
C858 C859 1.370 . S
C858 C862 1.524 . S
C859 C851 1.503 . S
C859 C858 1.370 . S
C859 C860 1.403 . S
C860 C859 1.403 . S
C860 C861 1.404 . S
C860 C863 1.539 . S
C861 C857 1.408 . S
C861 C860 1.404 . S
C861 H873 0.930 . S
C862 C858 1.524 . S
C862 H874 0.956 . S
C862 H875 0.961 . S
C862 H876 0.961 . S
C863 C860 1.539 . S
C863 H877 0.958 . S
C863 H878 0.961 . S
C863 H879 0.960 . S
H864 C848 0.931 . S
H865 C853 0.929 . S
H866 C854 0.960 . S
H867 C854 0.962 . S
H868 C854 0.960 . S
H869 C855 0.961 . S
H870 C855 0.961 . S
H871 C855 0.976 . S
H872 C856 0.931 . S
H873 C861 0.930 . S
H874 C862 0.956 . S
H875 C862 0.961 . S
H876 C862 0.961 . S
H877 C863 0.958 . S
H878 C863 0.961 . S
H879 C863 0.960 . S
C880 C881 1.391 . S
C880 C882 1.394 . S
C880 H896 0.931 . S
C881 C880 1.391 . S
C881 C885 1.376 . S
C882 C880 1.394 . S
C882 C883 1.369 . S
C882 C886 1.531 . S
C883 C882 1.369 . S
C883 C884 1.410 . S
C883 C891 1.503 . S
C884 C883 1.410 . S
C884 C885 1.392 . S
C884 C887 1.511 . S
C885 C881 1.376 . S
C885 C884 1.392 . S
C885 H897 0.929 . S
C886 C882 1.531 . S
C886 H898 0.960 . S
C886 H899 0.962 . S
C886 H900 0.960 . S
C887 C884 1.511 . S
C887 H901 0.961 . S
C887 H902 0.961 . S
C887 H903 0.961 . S
C888 C889 1.370 . S
C888 C890 1.363 . S
C888 H904 0.931 . S
C889 C888 1.370 . S
C889 C893 1.408 . S
C890 C888 1.363 . S
C890 C891 1.370 . S
C890 C894 1.524 . S
C891 C883 1.503 . S
C891 C890 1.370 . S
C891 C892 1.403 . S
C892 C891 1.403 . S
C892 C893 1.404 . S
C892 C895 1.539 . S
C893 C889 1.408 . S
C893 C892 1.404 . S
C893 H905 0.930 . S
C894 C890 1.524 . S
C894 H906 0.956 . S
C894 H907 0.961 . S
C894 H908 0.961 . S
C895 C892 1.539 . S
C895 H909 0.958 . S
C895 H910 0.961 . S
C895 H911 0.960 . S
H896 C880 0.931 . S
H897 C885 0.929 . S
H898 C886 0.960 . S
H899 C886 0.962 . S
H900 C886 0.960 . S
H901 C887 0.961 . S
H902 C887 0.961 . S
H903 C887 0.961 . S
H904 C888 0.931 . S
H905 C893 0.930 . S
H906 C894 0.956 . S
H907 C894 0.961 . S
H908 C894 0.961 . S
H909 C895 0.958 . S
H910 C895 0.961 . S
H911 C895 0.960 . S
C273 C5 0.513 . S
C281 C141 0.659 . S
C305 C175 0.542 . S
C313 C39 0.647 . S
C337 C209 0.735 . S
C345 C73 0.569 . S
C369 C107 0.734 . S
C377 C243 0.569 . S
C401 C36 1.863 . S
C409 C2 1.884 . S
C433 C70 1.911 . S
C441 C104 1.905 . S
C465 C138 1.863 . S
C473 C172 1.886 . S
C497 C240 1.916 . S
C505 C206 1.906 . S
C529 C33 1.481 . S
C537 C190 1.417 . S
C561 C156 1.379 . S
C569 C67 1.479 . S
C593 C258 1.404 . S
C601 C101 1.483 . S
C625 C224 1.376 . S
C633 C135 1.479 . S
C657 C54 1.440 . S
C665 C169 1.489 . S
C689 C203 1.497 . S
C697 C20 1.431 . S
C721 C237 1.472 . S
C729 C122 1.403 . S
C753 C88 1.383 . S
C761 C271 1.481 . S
C785 C77 1.344 . S
C793 C9 1.355 . S
C817 C43 1.341 . S
C825 C111 1.357 . S
C849 C213 1.369 . S
C857 C145 1.343 . S
C881 C247 1.325 . S
C889 C179 1.358 . S
