# Generated by pormake.
# Topology wmi, (6)-cn, num edge types: 1
# Building blocks:
#     Node 0, Type 0, BuildingBlock: FUNLAD_clean_sbu_0, # of connection points: 6
#     Node 1, Type 0, BuildingBlock: FUNLAD_clean_sbu_0, # of connection points: 6
#     Node 2, Type 0, BuildingBlock: FUNLAD_clean_sbu_0, # of connection points: 6
#     Node 3, Type 0, BuildingBlock: FUNLAD_clean_sbu_0, # of connection points: 6
#     Node 4, Type 0, BuildingBlock: FUNLAD_clean_sbu_0, # of connection points: 6
#     Node 5, Type 0, BuildingBlock: FUNLAD_clean_sbu_0, # of connection points: 6
#     Node 6, Type 0, BuildingBlock: FUNLAD_clean_sbu_0, # of connection points: 6
#     Node 7, Type 0, BuildingBlock: FUNLAD_clean_sbu_0, # of connection points: 6
#     Node 8, Type 0, BuildingBlock: FUNLAD_clean_sbu_0, # of connection points: 6
#     Node 9, Type 0, BuildingBlock: FUNLAD_clean_sbu_0, # of connection points: 6
#     Node 10, Type 0, BuildingBlock: FUNLAD_clean_sbu_0, # of connection points: 6
#     Node 11, Type 0, BuildingBlock: FUNLAD_clean_sbu_0, # of connection points: 6
#     Node 12, Type 0, BuildingBlock: FUNLAD_clean_sbu_0, # of connection points: 6
#     Node 13, Type 0, BuildingBlock: FUNLAD_clean_sbu_0, # of connection points: 6
#     Node 14, Type 0, BuildingBlock: FUNLAD_clean_sbu_0, # of connection points: 6
#     Node 15, Type 0, BuildingBlock: FUNLAD_clean_sbu_0, # of connection points: 6
#     Node 16, Type 0, BuildingBlock: FUNLAD_clean_sbu_0, # of connection points: 6
#     Node 17, Type 0, BuildingBlock: FUNLAD_clean_sbu_0, # of connection points: 6
#     Edge 18, Type (0, 0), BuildingBlock: UVAHIK_clean_linker_0, # of connection points: 2
#     Edge 19, Type (0, 0), BuildingBlock: UVAHIK_clean_linker_0, # of connection points: 2
#     Edge 20, Type (0, 0), BuildingBlock: UVAHIK_clean_linker_0, # of connection points: 2
#     Edge 21, Type (0, 0), BuildingBlock: UVAHIK_clean_linker_0, # of connection points: 2
#     Edge 22, Type (0, 0), BuildingBlock: UVAHIK_clean_linker_0, # of connection points: 2
#     Edge 23, Type (0, 0), BuildingBlock: UVAHIK_clean_linker_0, # of connection points: 2
#     Edge 24, Type (0, 0), BuildingBlock: UVAHIK_clean_linker_0, # of connection points: 2
#     Edge 25, Type (0, 0), BuildingBlock: UVAHIK_clean_linker_0, # of connection points: 2
#     Edge 26, Type (0, 0), BuildingBlock: UVAHIK_clean_linker_0, # of connection points: 2
#     Edge 27, Type (0, 0), BuildingBlock: UVAHIK_clean_linker_0, # of connection points: 2
#     Edge 28, Type (0, 0), BuildingBlock: UVAHIK_clean_linker_0, # of connection points: 2
#     Edge 29, Type (0, 0), BuildingBlock: UVAHIK_clean_linker_0, # of connection points: 2
#     Edge 30, Type (0, 0), BuildingBlock: UVAHIK_clean_linker_0, # of connection points: 2
#     Edge 31, Type (0, 0), BuildingBlock: UVAHIK_clean_linker_0, # of connection points: 2
#     Edge 32, Type (0, 0), BuildingBlock: UVAHIK_clean_linker_0, # of connection points: 2
#     Edge 33, Type (0, 0), BuildingBlock: UVAHIK_clean_linker_0, # of connection points: 2
#     Edge 34, Type (0, 0), BuildingBlock: UVAHIK_clean_linker_0, # of connection points: 2
#     Edge 35, Type (0, 0), BuildingBlock: UVAHIK_clean_linker_0, # of connection points: 2
#     Edge 36, Type (0, 0), BuildingBlock: UVAHIK_clean_linker_0, # of connection points: 2
#     Edge 37, Type (0, 0), BuildingBlock: UVAHIK_clean_linker_0, # of connection points: 2
#     Edge 38, Type (0, 0), BuildingBlock: UVAHIK_clean_linker_0, # of connection points: 2
#     Edge 39, Type (0, 0), BuildingBlock: UVAHIK_clean_linker_0, # of connection points: 2
#     Edge 40, Type (0, 0), BuildingBlock: UVAHIK_clean_linker_0, # of connection points: 2
#     Edge 41, Type (0, 0), BuildingBlock: UVAHIK_clean_linker_0, # of connection points: 2
#     Edge 42, Type (0, 0), BuildingBlock: UVAHIK_clean_linker_0, # of connection points: 2
#     Edge 43, Type (0, 0), BuildingBlock: UVAHIK_clean_linker_0, # of connection points: 2
#     Edge 44, Type (0, 0), BuildingBlock: UVAHIK_clean_linker_0, # of connection points: 2
#     Edge 45, Type (0, 0), BuildingBlock: UVAHIK_clean_linker_0, # of connection points: 2
#     Edge 46, Type (0, 0), BuildingBlock: UVAHIK_clean_linker_0, # of connection points: 2
#     Edge 47, Type (0, 0), BuildingBlock: UVAHIK_clean_linker_0, # of connection points: 2
#     Edge 48, Type (0, 0), BuildingBlock: UVAHIK_clean_linker_0, # of connection points: 2
#     Edge 49, Type (0, 0), BuildingBlock: UVAHIK_clean_linker_0, # of connection points: 2
#     Edge 50, Type (0, 0), BuildingBlock: UVAHIK_clean_linker_0, # of connection points: 2
#     Edge 51, Type (0, 0), BuildingBlock: UVAHIK_clean_linker_0, # of connection points: 2
#     Edge 52, Type (0, 0), BuildingBlock: UVAHIK_clean_linker_0, # of connection points: 2
#     Edge 53, Type (0, 0), BuildingBlock: UVAHIK_clean_linker_0, # of connection points: 2
#     Edge 54, Type (0, 0), BuildingBlock: UVAHIK_clean_linker_0, # of connection points: 2
#     Edge 55, Type (0, 0), BuildingBlock: UVAHIK_clean_linker_0, # of connection points: 2
#     Edge 56, Type (0, 0), BuildingBlock: UVAHIK_clean_linker_0, # of connection points: 2
#     Edge 57, Type (0, 0), BuildingBlock: UVAHIK_clean_linker_0, # of connection points: 2
#     Edge 58, Type (0, 0), BuildingBlock: UVAHIK_clean_linker_0, # of connection points: 2
#     Edge 59, Type (0, 0), BuildingBlock: UVAHIK_clean_linker_0, # of connection points: 2
#     Edge 60, Type (0, 0), BuildingBlock: UVAHIK_clean_linker_0, # of connection points: 2
#     Edge 61, Type (0, 0), BuildingBlock: UVAHIK_clean_linker_0, # of connection points: 2
#     Edge 62, Type (0, 0), BuildingBlock: UVAHIK_clean_linker_0, # of connection points: 2
#     Edge 63, Type (0, 0), BuildingBlock: UVAHIK_clean_linker_0, # of connection points: 2
#     Edge 64, Type (0, 0), BuildingBlock: UVAHIK_clean_linker_0, # of connection points: 2
#     Edge 65, Type (0, 0), BuildingBlock: UVAHIK_clean_linker_0, # of connection points: 2
#     Edge 66, Type (0, 0), BuildingBlock: UVAHIK_clean_linker_0, # of connection points: 2
#     Edge 67, Type (0, 0), BuildingBlock: UVAHIK_clean_linker_0, # of connection points: 2
#     Edge 68, Type (0, 0), BuildingBlock: UVAHIK_clean_linker_0, # of connection points: 2
#     Edge 69, Type (0, 0), BuildingBlock: UVAHIK_clean_linker_0, # of connection points: 2
#     Edge 70, Type (0, 0), BuildingBlock: UVAHIK_clean_linker_0, # of connection points: 2
#     Edge 71, Type (0, 0), BuildingBlock: UVAHIK_clean_linker_0, # of connection points: 2
# Relax obj value: 0.186
# Max RMSD: 0.215
# Mean RMSD: 0.215
data_MOF--net-wmi--node1-FUNLAD_clean_sbu_0--edge1-UVAHIK_clean_linker_0
_symmetry_space_group_name_H-M    P1
_symmetry_Int_Tables_number       1
_symmetry_cell_setting            triclinic
loop_
_symmetry_equiv_pos_as_xyz
'x, y, z'
_cell_length_a     35.775748
_cell_length_b     35.782182
_cell_length_c     156.82387
_cell_angle_alpha  89.997196
_cell_angle_beta   90.001724
_cell_angle_gamma 119.99379
loop_
_atom_site_label
_atom_site_type_symbol
_atom_site_fract_x
_atom_site_fract_y
_atom_site_fract_z
_atom_type_partial_charge
C0 C 0.33084 0.95821 0.08479 0.0
N1 N 0.40725 0.01403 0.10636 0.0
C2 C 0.36994 0.00874 0.10979 0.0
C3 C 0.36278 0.00327 0.11855 0.0
C4 C 0.39469 0.00426 0.12388 0.0
C5 C 0.43337 0.01082 0.12025 0.0
C6 C 0.43884 0.0152 0.11139 0.0
Zn7 Zn 0.41365 0.01918 0.09335 0.0
C8 C 0.44041 0.96053 0.08589 0.0
N9 N 0.42261 0.02912 0.06618 0.0
C10 C 0.39038 0.02965 0.06168 0.0
C11 C 0.45668 0.02983 0.06216 0.0
C12 C 0.45883 0.03038 0.05326 0.0
C13 C 0.42556 0.03012 0.04845 0.0
C14 C 0.39122 0.03017 0.05278 0.0
Zn15 Zn 0.4179 0.02473 0.07918 0.0
O16 O 0.34821 0.97193 0.09203 0.0
C17 C 0.3955 0.08659 0.08666 0.0
O18 O 0.35273 0.97538 0.0781 0.0
H19 H 0.4819 0.02926 0.06586 0.0
H20 H 0.34546 0.00853 0.10572 0.0
H21 H 0.36362 0.02914 0.06499 0.0
O22 O 0.39852 0.06932 0.09351 0.0
O23 O 0.40029 0.07254 0.07954 0.0
H24 H 0.46819 0.01928 0.10855 0.0
O25 O 0.48366 0.07303 0.08044 0.0
O26 O 0.47956 0.06487 0.09438 0.0
O27 O 0.43684 0.97775 0.07908 0.0
O28 O 0.43071 0.97057 0.093 0.0
C29 C 0.50174 0.08224 0.08772 0.0
H30 H 0.33275 -0.00125 0.12116 0.0
H31 H 0.45863 0.01168 0.1242 0.0
H32 H 0.48569 0.0299 0.05019 0.0
H33 H 0.36522 0.03062 0.04933 0.0
C34 C 0.08622 0.39709 0.0849 0.0
N35 N 0.02867 0.4179 0.10619 0.0
C36 C 0.03305 0.3853 0.10957 0.0
C37 C 0.03699 0.38236 0.11834 0.0
C38 C 0.03543 0.41268 0.12381 0.0
C39 C 0.03029 0.44578 0.12015 0.0
C40 C 0.02725 0.44796 0.11128 0.0
Zn41 Zn 0.0248 0.41985 0.09317 0.0
C42 C 0.08534 0.50491 0.0859 0.0
N43 N 0.0177 0.41945 0.06596 0.0
C44 C 0.01599 0.38619 0.06144 0.0
C45 C 0.01822 0.45347 0.06197 0.0
C46 C 0.01748 0.45513 0.05307 0.0
C47 C 0.01613 0.42143 0.04823 0.0
C48 C 0.01515 0.38651 0.05254 0.0
Zn49 Zn 0.02113 0.41867 0.07898 0.0
O50 O 0.07248 0.40197 0.09204 0.0
C51 C 0.95726 0.33483 0.08641 0.0
O52 O 0.06922 0.40092 0.07809 0.0
H53 H 0.01949 0.47955 0.06568 0.0
H54 H 0.03379 0.36148 0.10544 0.0
H55 H 0.01578 0.35955 0.06474 0.0
O56 O 0.97524 0.35519 0.09321 0.0
O57 O 0.97118 0.35319 0.07925 0.0
H58 H 0.02371 0.47362 0.10847 0.0
O59 O 0.97447 0.43828 0.08003 0.0
O60 O 0.97835 0.4395 0.09402 0.0
O61 O 0.06981 0.48435 0.07899 0.0
O62 O 0.07308 0.48513 0.09298 0.0
C63 C 0.96314 0.44598 0.08721 0.0
H64 H 0.04185 0.35679 0.12077 0.0
H65 H 0.02825 0.46958 0.12407 0.0
H66 H 0.01774 0.48241 0.05002 0.0
H67 H 0.01467 0.36011 0.04907 0.0
C68 C 0.64498 0.71078 0.08565 0.0
N69 N 0.62908 0.63183 0.10663 0.0
C70 C 0.66077 0.66925 0.11006 0.0
C71 C 0.66389 0.67538 0.11886 0.0
C72 C 0.63472 0.64238 0.12429 0.0
C73 C 0.60262 0.60373 0.12057 0.0
C74 C 0.60021 0.59924 0.11169 0.0
Zn75 Zn 0.6264 0.62709 0.09359 0.0
C76 C 0.53963 0.59962 0.08669 0.0
N77 N 0.62449 0.62237 0.06636 0.0
C78 C 0.65689 0.65491 0.06184 0.0
C79 C 0.59097 0.58844 0.06235 0.0
C80 C 0.58901 0.58654 0.05345 0.0
C81 C 0.62181 0.61992 0.04862 0.0
C82 C 0.65619 0.65433 0.05294 0.0
Zn83 Zn 0.62613 0.62558 0.07939 0.0
O84 O 0.64078 0.69196 0.09274 0.0
C85 C 0.71181 0.64841 0.08635 0.0
O86 O 0.64212 0.69069 0.07879 0.0
H87 H 0.56547 0.56296 0.06605 0.0
H88 H 0.68362 0.69472 0.10596 0.0
H89 H 0.6833 0.68152 0.06515 0.0
O90 O 0.69244 0.64568 0.09331 0.0
O91 O 0.69181 0.64275 0.07934 0.0
H92 H 0.57527 0.56971 0.10884 0.0
O93 O 0.60862 0.56019 0.08015 0.0
O94 O 0.61003 0.56162 0.09415 0.0
O95 O 0.55997 0.60669 0.07969 0.0
O96 O 0.56001 0.60668 0.09369 0.0
C97 C 0.60301 0.54071 0.08722 0.0
H98 H 0.68863 0.70612 0.12135 0.0
H99 H 0.57975 0.57706 0.12446 0.0
H100 H 0.56166 0.55963 0.05039 0.0
H101 H 0.68248 0.68043 0.04949 0.0
C102 C 0.9576 0.33525 0.91965 0.0
N103 N 0.01701 0.4126 0.89831 0.0
C104 C 0.01014 0.37475 0.89487 0.0
C105 C 0.00497 0.36794 0.88609 0.0
C106 C 0.00788 0.40073 0.88077 0.0
C107 C 0.01613 0.43995 0.88441 0.0
C108 C 0.02018 0.4451 0.89328 0.0
Zn109 Zn 0.02129 0.4183 0.91132 0.0
C110 C 0.96303 0.44619 0.91866 0.0
N111 N 0.02839 0.42521 0.93852 0.0
C112 C 0.0287 0.39291 0.94304 0.0
C113 C 0.02934 0.45943 0.94253 0.0
C114 C 0.03016 0.4618 0.95142 0.0
C115 C 0.03005 0.42867 0.95626 0.0
C116 C 0.02955 0.39401 0.95194 0.0
Zn117 Zn 0.02477 0.42102 0.92551 0.0
O118 O 0.97141 0.35344 0.91248 0.0
C119 C 0.08637 0.39749 0.9182 0.0
O120 O 0.97547 0.35599 0.92641 0.0
H121 H 0.02915 0.48481 0.93882 0.0
H122 H 0.00838 0.34954 0.89894 0.0
H123 H 0.02776 0.36593 0.93974 0.0
O124 O 0.06928 0.40019 0.91129 0.0
O125 O 0.07262 0.40335 0.92525 0.0
H126 H 0.02553 0.47488 0.89613 0.0
O127 O 0.07292 0.48664 0.92443 0.0
O128 O 0.06979 0.4836 0.91045 0.0
O129 O 0.97794 0.44002 0.92553 0.0
O130 O 0.97477 0.43835 0.91155 0.0
C131 C 0.08516 0.50533 0.91725 0.0
H132 H -0.0009 0.33745 0.88347 0.0
H133 H 0.01848 0.46589 0.88047 0.0
H134 H 0.03108 0.48939 0.95448 0.0
H135 H 0.02887 0.36749 0.9554 0.0
C136 C 0.71151 0.64808 0.91965 0.0
N137 N 0.63249 0.63083 0.89861 0.0
C138 C 0.66968 0.6631 0.89523 0.0
C139 C 0.67612 0.66644 0.88643 0.0
C140 C 0.64363 0.63687 0.88096 0.0
C141 C 0.60517 0.60418 0.88464 0.0
C142 C 0.60038 0.60159 0.89352 0.0
Zn143 Zn 0.6274 0.62783 0.91165 0.0
C144 C 0.60155 0.54141 0.9185 0.0
N145 N 0.62205 0.6254 0.93888 0.0
C146 C 0.65391 0.6582 0.94344 0.0
C147 C 0.58833 0.59144 0.94284 0.0
C148 C 0.58586 0.58952 0.95173 0.0
C149 C 0.61838 0.6229 0.95661 0.0
C150 C 0.65271 0.6576 0.95234 0.0
Zn151 Zn 0.62566 0.6273 0.92585 0.0
O152 O 0.69267 0.6436 0.91255 0.0
C153 C 0.64705 0.7126 0.91892 0.0
O154 O 0.69113 0.64457 0.92651 0.0
H155 H 0.56328 0.56574 0.9391 0.0
H156 H 0.69477 0.68624 0.89936 0.0
H157 H 0.68051 0.68482 0.94017 0.0
O158 O 0.6447 0.69344 0.91196 0.0
O159 O 0.64163 0.69262 0.92592 0.0
H160 H 0.57102 0.57618 0.89633 0.0
O161 O 0.55993 0.60856 0.92503 0.0
O162 O 0.56149 0.6101 0.91103 0.0
O163 O 0.60804 0.56151 0.92552 0.0
O164 O 0.60839 0.56185 0.91151 0.0
C165 C 0.54042 0.60264 0.91795 0.0
H166 H 0.70671 0.69166 0.88399 0.0
H167 H 0.57888 0.58097 0.88072 0.0
H168 H 0.55855 0.56241 0.95475 0.0
H169 H 0.67877 0.68374 0.95583 0.0
C170 C 0.39735 0.08748 0.91974 0.0
N171 N 0.41669 0.02848 0.8985 0.0
C172 C 0.38544 0.03485 0.89502 0.0
C173 C 0.3839 0.03997 0.88624 0.0
C174 C 0.41416 0.03754 0.88096 0.0
C175 C 0.4454 0.02978 0.88464 0.0
C176 C 0.44638 0.02577 0.89351 0.0
Zn177 Zn 0.41799 0.02439 0.91154 0.0
C178 C 0.50369 0.08358 0.9189 0.0
N179 N 0.41747 0.01776 0.93875 0.0
C180 C 0.38472 0.01707 0.94329 0.0
C181 C 0.45106 0.01734 0.94273 0.0
C182 C 0.45281 0.01668 0.95162 0.0
C183 C 0.41966 0.01639 0.95648 0.0
C184 C 0.38516 0.01635 0.95219 0.0
Zn185 Zn 0.41683 0.02115 0.92573 0.0
O186 O 0.4021 0.07351 0.91262 0.0
C187 C 0.33221 0.95867 0.91836 0.0
O188 O 0.40039 0.07012 0.92657 0.0
H189 H 0.47673 0.01782 0.93901 0.0
H190 H 0.36171 0.03626 0.89907 0.0
H191 H 0.35841 0.01758 0.94 0.0
O192 O 0.35226 0.97605 0.91149 0.0
O193 O 0.35137 0.97248 0.92546 0.0
H194 H 0.47102 0.02081 0.89639 0.0
O195 O 0.43504 0.9735 0.92473 0.0
O196 O 0.4356 0.97644 0.91074 0.0
O197 O 0.48253 0.0686 0.92577 0.0
O198 O 0.48429 0.07147 0.91178 0.0
C199 C 0.44189 0.96129 0.91758 0.0
H200 H 0.35906 0.04543 0.8836 0.0
H201 H 0.46927 0.02778 0.88072 0.0
H202 H 0.47974 0.01616 0.95466 0.0
H203 H 0.35918 0.01668 0.95567 0.0
C204 C 0.99459 0.29296 0.4191 0.0
N205 N 0.07744 0.35303 0.43971 0.0
C206 C 0.04098 0.34936 0.44324 0.0
C207 C 0.03457 0.34483 0.45203 0.0
C208 C 0.06639 0.34508 0.45727 0.0
C209 C 0.10441 0.35042 0.45354 0.0
C210 C 0.10913 0.35391 0.44467 0.0
Zn211 Zn 0.08131 0.35433 0.42665 0.0
C212 C 0.10049 0.28828 0.41988 0.0
N213 N 0.08319 0.35283 0.3994 0.0
C214 C 0.05217 0.35573 0.39492 0.0
C215 C 0.11534 0.35 0.39535 0.0
C216 C 0.11711 0.35001 0.38645 0.0
C217 C 0.08536 0.35272 0.38166 0.0
C218 C 0.05259 0.35564 0.38601 0.0
Zn219 Zn 0.08086 0.35236 0.41245 0.0
O220 O 0.01515 0.30729 0.42604 0.0
C221 C 0.0659 0.42137 0.41926 0.0
O222 O 0.01404 0.30804 0.41209 0.0
H223 H 0.1396 0.34754 0.39903 0.0
H224 H 0.01639 0.34928 0.43922 0.0
H225 H 0.02699 0.35811 0.39826 0.0
O226 O 0.06708 0.4045 0.42631 0.0
O227 O 0.07023 0.40547 0.41234 0.0
H228 H 0.13776 0.35665 0.44174 0.0
O229 O 0.148 0.3949 0.41301 0.0
O230 O 0.14813 0.40037 0.42698 0.0
O231 O 0.09303 0.30071 0.41281 0.0
O232 O 0.09712 0.30495 0.42679 0.0
C233 C 0.16849 0.40991 0.41994 0.0
H234 H 0.00504 0.3412 0.45472 0.0
H235 H 0.12956 0.35068 0.45743 0.0
H236 H 0.14268 0.34724 0.38336 0.0
H237 H 0.02779 0.35833 0.38257 0.0
C238 C 0.75289 0.73659 0.41867 0.0
N239 N 0.68942 0.74959 0.4399 0.0
C240 C 0.69477 0.71734 0.44316 0.0
C241 C 0.69788 0.71342 0.45194 0.0
C242 C 0.69454 0.74238 0.45752 0.0
C243 C 0.6882 0.77495 0.45397 0.0
C244 C 0.68605 0.77817 0.44511 0.0
Zn245 Zn 0.68791 0.75428 0.4269 0.0
C246 C 0.74853 0.84258 0.42059 0.0
N247 N 0.68676 0.76204 0.39972 0.0
C248 C 0.68596 0.72958 0.39506 0.0
C249 C 0.68691 0.7962 0.39587 0.0
C250 C 0.68625 0.79856 0.38697 0.0
C251 C 0.68531 0.7654 0.38201 0.0
C252 C 0.68522 0.73061 0.38618 0.0
Zn253 Zn 0.68789 0.75847 0.41273 0.0
O254 O 0.73783 0.73914 0.42584 0.0
C255 C 0.6234 0.67138 0.41901 0.0
O256 O 0.7364 0.74154 0.4119 0.0
H257 H 0.68747 0.82163 0.39969 0.0
H258 H 0.69714 0.69476 0.43893 0.0
H259 H 0.68602 0.70281 0.39825 0.0
O260 O 0.6395 0.68825 0.42619 0.0
O261 O 0.6388 0.69349 0.41227 0.0
H262 H 0.68181 0.80361 0.4424 0.0
O263 O 0.64072 0.77704 0.41375 0.0
O264 O 0.63961 0.77159 0.42771 0.0
O265 O 0.73563 0.82389 0.41342 0.0
O266 O 0.73465 0.82066 0.42741 0.0
C267 C 0.62664 0.78107 0.42093 0.0
H268 H 0.70366 0.68831 0.45428 0.0
H269 H 0.68471 0.79766 0.45797 0.0
H270 H 0.68592 0.82576 0.38403 0.0
H271 H 0.68516 0.70467 0.38261 0.0
C272 C 0.31091 0.04449 0.41845 0.0
N273 N 0.29472 0.96746 0.43972 0.0
C274 C 0.32504 0.00564 0.44317 0.0
C275 C 0.32652 0.01237 0.45194 0.0
C276 C 0.29717 0.97919 0.45726 0.0
C277 C 0.26689 0.93966 0.45361 0.0
C278 C 0.26593 0.93458 0.44475 0.0
Zn279 Zn 0.29362 0.96197 0.42669 0.0
C280 C 0.20719 0.93194 0.41931 0.0
N281 N 0.29479 0.95592 0.39949 0.0
C282 C 0.32675 0.98878 0.39495 0.0
C283 C 0.26213 0.92113 0.3955 0.0
C284 C 0.26047 0.91875 0.3866 0.0
C285 C 0.2927 0.95251 0.38176 0.0
C286 C 0.32634 0.98773 0.38605 0.0
Zn287 Zn 0.29513 0.95993 0.4125 0.0
O288 O 0.30683 0.02606 0.42558 0.0
C289 C 0.3806 0.98591 0.41992 0.0
O290 O 0.30868 0.02436 0.41163 0.0
H291 H 0.23697 0.89539 0.39922 0.0
H292 H 0.34811 0.03117 0.4391 0.0
H293 H 0.35246 0.01609 0.39825 0.0
O294 O 0.36 0.98214 0.42677 0.0
O295 O 0.36139 0.9797 0.4128 0.0
H296 H 0.24203 0.90453 0.44189 0.0
O297 O 0.28001 0.89511 0.41353 0.0
O298 O 0.27881 0.89728 0.42751 0.0
O299 O 0.22858 0.93876 0.41245 0.0
O300 O 0.22668 0.94011 0.42644 0.0
C301 C 0.27379 0.87618 0.42068 0.0
H302 H 0.35065 0.0431 0.45456 0.0
H303 H 0.24374 0.91339 0.45756 0.0
H304 H 0.23367 0.89122 0.38356 0.0
H305 H 0.3522 0.01418 0.38258 0.0
C306 C 0.6223 0.66565 0.25348 0.0
N307 N 0.68342 0.74206 0.23215 0.0
C308 C 0.67687 0.70413 0.22881 0.0
C309 C 0.6719 0.69688 0.22004 0.0
C310 C 0.67463 0.7293 0.21463 0.0
C311 C 0.68263 0.76863 0.21817 0.0
C312 C 0.68651 0.77422 0.22703 0.0
Zn313 Zn 0.68667 0.74833 0.24517 0.0
C314 C 0.62753 0.77645 0.25195 0.0
N315 N 0.6911 0.75663 0.27237 0.0
C316 C 0.691 0.72463 0.27707 0.0
C317 C 0.69193 0.7912 0.27618 0.0
C318 C 0.69226 0.79432 0.28506 0.0
C319 C 0.69166 0.76149 0.29008 0.0
C320 C 0.69126 0.72641 0.28596 0.0
Zn321 Zn 0.68861 0.7517 0.25936 0.0
O322 O 0.637 0.68363 0.24633 0.0
C323 C 0.75094 0.72781 0.25249 0.0
O324 O 0.63913 0.68664 0.26028 0.0
H325 H 0.69188 0.81624 0.27232 0.0
H326 H 0.67509 0.67915 0.23296 0.0
H327 H 0.69045 0.69748 0.27392 0.0
O328 O 0.73427 0.73015 0.2455 0.0
O329 O 0.73683 0.7341 0.25946 0.0
H330 H 0.69155 0.80405 0.2298 0.0
O331 O 0.73686 0.81709 0.25827 0.0
O332 O 0.73527 0.81368 0.24428 0.0
O333 O 0.64158 0.77079 0.25899 0.0
O334 O 0.64025 0.7682 0.245 0.0
C335 C 0.74996 0.83555 0.25108 0.0
H336 H 0.66624 0.66632 0.2175 0.0
H337 H 0.68482 0.79429 0.21416 0.0
H338 H 0.69208 0.82169 0.28796 0.0
H339 H 0.6914 0.70069 0.28958 0.0
C340 C 0.3746 0.97764 0.2528 0.0
N341 N 0.29585 0.96158 0.23181 0.0
C342 C 0.3331 0.99364 0.2284 0.0
C343 C 0.3395 -0.00328 0.2196 0.0
C344 C 0.30691 0.9671 0.21415 0.0
C345 C 0.26835 0.93471 0.21785 0.0
C346 C 0.26362 0.93235 0.22673 0.0
Zn347 Zn 0.29081 0.95846 0.24484 0.0
C348 C 0.26423 0.87144 0.25167 0.0
N349 N 0.28521 0.95489 0.27207 0.0
C350 C 0.31727 0.98763 0.2766 0.0
C351 C 0.25151 0.92101 0.27605 0.0
C352 C 0.24932 0.91909 0.28495 0.0
C353 C 0.28204 0.95242 0.2898 0.0
C354 C 0.3163 0.98705 0.2855 0.0
Zn355 Zn 0.28872 0.95697 0.25904 0.0
O356 O 0.35589 0.97406 0.24572 0.0
C357 C 0.31066 0.04283 0.25231 0.0
O358 O 0.35419 0.97354 0.25968 0.0
H359 H 0.2263 0.89536 0.27232 0.0
H360 H 0.35829 0.01678 0.23251 0.0
H361 H 0.34385 0.01417 0.27332 0.0
O362 O 0.30836 0.02452 0.24523 0.0
O363 O 0.30513 0.02203 0.2592 0.0
H364 H 0.23422 0.90709 0.22956 0.0
O365 O 0.22285 0.93868 0.25822 0.0
O366 O 0.22525 0.941 0.24423 0.0
O367 O 0.27075 0.89161 0.25867 0.0
O368 O 0.27134 0.89188 0.24467 0.0
C369 C 0.20379 0.93322 0.2511 0.0
H370 H 0.37016 0.02173 0.21714 0.0
H371 H 0.24195 0.9115 0.21396 0.0
H372 H 0.22207 0.89202 0.288 0.0
H373 H 0.34252 0.01314 0.28898 0.0
C374 C 0.05944 0.41871 0.25239 0.0
N375 N 0.08137 0.35905 0.23158 0.0
C376 C 0.04944 0.36406 0.22802 0.0
C377 C 0.04821 0.36926 0.21924 0.0
C378 C 0.07953 0.3683 0.21403 0.0
C379 C 0.11132 0.36163 0.21779 0.0
C380 C 0.11193 0.3575 0.22665 0.0
Zn381 Zn 0.08319 0.3566 0.24462 0.0
C382 C 0.16879 0.42068 0.2516 0.0
N383 N 0.08543 0.35566 0.27186 0.0
C384 C 0.05154 0.3529 0.27633 0.0
C385 C 0.11996 0.35757 0.27592 0.0
C386 C 0.12126 0.35668 0.28482 0.0
C387 C 0.08674 0.35393 0.28961 0.0
C388 C 0.05156 0.35206 0.28523 0.0
Zn389 Zn 0.08419 0.35728 0.25882 0.0
O390 O 0.06571 0.40496 0.24538 0.0
C391 C -0.00015 0.28996 0.25178 0.0
O392 O 0.06272 0.40226 0.25933 0.0
H393 H 0.14658 0.35973 0.27226 0.0
H394 H 0.02512 0.36467 0.23201 0.0
H395 H 0.02445 0.35152 0.27298 0.0
O396 O 0.01821 0.30736 0.24479 0.0
O397 O 0.02006 0.30492 0.25875 0.0
H398 H 0.13715 0.3537 0.22961 0.0
O399 O 0.10779 0.31411 0.25812 0.0
O400 O 0.10257 0.30949 0.24414 0.0
O401 O 0.14854 0.40823 0.25863 0.0
O402 O 0.14882 0.4048 0.24465 0.0
C403 C 0.11309 0.29934 0.25114 0.0
H404 H 0.02298 0.37392 0.21652 0.0
H405 H 0.13601 0.36081 0.21393 0.0
H406 H 0.14879 0.35763 0.28791 0.0
H407 H 0.02453 0.35056 0.28864 0.0
C408 C 0.66792 0.6246 0.75209 0.0
N409 N 0.74563 0.68661 0.77322 0.0
C410 C 0.70781 0.68011 0.77661 0.0
C411 C 0.70081 0.67515 0.78538 0.0
C412 C 0.73337 0.67788 0.79075 0.0
C413 C 0.77263 0.6859 0.78716 0.0
C414 C 0.77797 0.68975 0.7783 0.0
Zn415 Zn 0.75116 0.68965 0.76019 0.0
C416 C 0.77911 0.63049 0.75319 0.0
N417 N 0.75735 0.69331 0.73297 0.0
C418 C 0.72468 0.69282 0.72844 0.0
C419 C 0.79177 0.69463 0.72898 0.0
C420 C 0.79405 0.69517 0.72008 0.0
C421 C 0.76051 0.69421 0.71524 0.0
C422 C 0.7256 0.69323 0.71954 0.0
Zn423 Zn 0.75348 0.69098 0.74599 0.0
O424 O 0.68639 0.63964 0.75919 0.0
C425 C 0.73015 0.75365 0.75288 0.0
O426 O 0.68837 0.64135 0.74523 0.0
H427 H 0.81735 0.69488 0.7327 0.0
H428 H 0.68271 0.67832 0.7725 0.0
H429 H 0.69769 0.69192 0.73173 0.0
O430 O 0.73274 0.73756 0.75993 0.0
O431 O 0.73595 0.73881 0.74596 0.0
H432 H 0.80773 0.69479 0.77547 0.0
O433 O 0.81902 0.73931 0.74692 0.0
O434 O 0.81641 0.73832 0.76092 0.0
O435 O 0.77254 0.64439 0.74622 0.0
O436 O 0.77153 0.64315 0.76022 0.0
C437 C 0.83791 0.75268 0.75407 0.0
H438 H 0.6703 0.66948 0.78796 0.0
H439 H 0.79841 0.68812 0.79114 0.0
H440 H 0.82136 0.6955 0.71702 0.0
H441 H 0.69936 0.69309 0.71607 0.0
C442 C 0.41962 0.06372 0.75185 0.0
N443 N 0.3583 0.08036 0.773 0.0
C444 C 0.36352 0.04826 0.77638 0.0
C445 C 0.36712 0.0452 0.78517 0.0
C446 C 0.36442 0.07489 0.79064 0.0
C447 C 0.35828 0.10736 0.78697 0.0
C448 C 0.35559 0.10968 0.7781 0.0
Zn449 Zn 0.35575 0.08335 0.75997 0.0
C450 C 0.41584 0.17009 0.75313 0.0
N451 N 0.352 0.08632 0.73275 0.0
C452 C 0.35116 0.05371 0.72814 0.0
C453 C 0.35185 0.12021 0.72884 0.0
C454 C 0.35105 0.12228 0.71996 0.0
C455 C 0.35029 0.08911 0.71503 0.0
C456 C 0.35026 0.05444 0.71924 0.0
Zn457 Zn 0.35415 0.08429 0.74577 0.0
O458 O 0.4049 0.06747 0.75896 0.0
C459 C 0.29095 -0.00137 0.75269 0.0
O460 O 0.4031 0.0679 0.745 0.0
H461 H 0.35242 0.14576 0.73263 0.0
H462 H 0.36534 0.02505 0.77225 0.0
H463 H 0.35145 0.02715 0.73137 0.0
O464 O 0.30758 0.01782 0.75967 0.0
O465 O 0.30539 0.01871 0.7457 0.0
H466 H 0.35142 0.13497 0.77529 0.0
O467 O 0.30641 0.10222 0.74671 0.0
O468 O 0.30769 0.10097 0.7607 0.0
O469 O 0.40176 0.15022 0.7461 0.0
O470 O 0.40276 0.1494 0.7601 0.0
C471 C 0.29331 0.10808 0.75385 0.0
H472 H 0.37273 0.02012 0.78761 0.0
H473 H 0.3553 0.13063 0.79089 0.0
H474 H 0.35059 0.14936 0.71698 0.0
H475 H 0.35027 0.02846 0.7157 0.0
C476 C 0.9818 0.3801 0.75205 0.0
N477 N 0.96202 0.29961 0.77295 0.0
C478 C 0.99454 0.33661 0.77637 0.0
C479 C -0.00317 0.34353 0.78514 0.0
C480 C 0.96594 0.3117 0.79048 0.0
C481 C 0.93352 0.27317 0.78687 0.0
C482 C 0.93188 0.26792 0.778 0.0
Zn483 Zn 0.95883 0.29465 0.75992 0.0
C484 C 0.87265 0.27269 0.75326 0.0
N485 N 0.95411 0.29009 0.7327 0.0
C486 C 0.98746 0.32104 0.7281 0.0
C487 C 0.91918 0.25721 0.72879 0.0
C488 C 0.91689 0.25461 0.7199 0.0
C489 C 0.95076 0.28627 0.71498 0.0
C490 C 0.9864 0.3198 0.7192 0.0
Zn491 Zn 0.95669 0.29364 0.74574 0.0
O492 O 0.97612 0.36041 0.75909 0.0
C493 C 0.04162 0.31103 0.75246 0.0
O494 O 0.97806 0.36008 0.74514 0.0
H495 H 0.8929 0.23302 0.73256 0.0
H496 H 0.0185 0.36121 0.77227 0.0
H497 H 0.01499 0.34681 0.73133 0.0
O498 O 0.02381 0.31043 0.75951 0.0
O499 O 0.02084 0.30539 0.74556 0.0
H500 H 0.90621 0.23884 0.77516 0.0
O501 O 0.93315 0.22691 0.74653 0.0
O502 O 0.93955 0.22819 0.76049 0.0
O503 O 0.89235 0.28023 0.74617 0.0
O504 O 0.89318 0.27713 0.76015 0.0
C505 C 0.92841 0.20718 0.75353 0.0
H506 H 0.02254 0.37346 0.78774 0.0
H507 H 0.9091 0.248 0.79083 0.0
H508 H 0.8886 0.22847 0.7169 0.0
H509 H 0.01345 0.34457 0.71566 0.0
C510 C 0.28963 0.00351 0.58597 0.0
N511 N 0.35518 0.08121 0.56507 0.0
C512 C 0.34985 0.04376 0.56173 0.0
C513 C 0.34668 0.03708 0.55294 0.0
C514 C 0.34985 0.06954 0.54743 0.0
C515 C 0.35626 0.10833 0.55106 0.0
C516 C 0.35855 0.11339 0.55993 0.0
Zn517 Zn 0.35613 0.08641 0.57809 0.0
C518 C 0.29634 0.11509 0.58444 0.0
N519 N 0.35576 0.09259 0.6053 0.0
C520 C 0.35544 0.06008 0.60986 0.0
C521 C 0.3564 0.12674 0.60927 0.0
C522 C 0.35674 0.12904 0.61817 0.0
C523 C 0.35655 0.09596 0.62303 0.0
C524 C 0.35584 0.06113 0.61875 0.0
Zn525 Zn 0.35527 0.08907 0.59228 0.0
O526 O 0.30575 0.02171 0.5789 0.0
C527 C 0.41862 0.06509 0.58593 0.0
O528 O 0.30541 0.02415 0.59285 0.0
H529 H 0.35675 0.1523 0.60552 0.0
H530 H 0.34743 0.0186 0.5659 0.0
H531 H 0.35476 0.03315 0.60659 0.0
O532 O 0.40352 0.06764 0.57876 0.0
O533 O 0.40303 0.0712 0.59271 0.0
H534 H 0.36278 0.14293 0.5627 0.0
O535 O 0.40392 0.1543 0.59152 0.0
O536 O 0.40522 0.15173 0.57754 0.0
O537 O 0.30884 0.10869 0.5916 0.0
O538 O 0.31012 0.107 0.57761 0.0
C539 C 0.41857 0.17315 0.58443 0.0
H540 H 0.34087 0.00628 0.55054 0.0
H541 H 0.3596 0.13463 0.5471 0.0
H542 H 0.35771 0.1567 0.6212 0.0
H543 H 0.35503 0.0346 0.62224 0.0
C544 C 0.04554 0.31626 0.58552 0.0
N545 N 0.96344 0.29876 0.56503 0.0
C546 C -0.00011 0.33215 0.56165 0.0
C547 C 0.00635 0.33585 0.55286 0.0
C548 C 0.97463 0.30543 0.54738 0.0
C549 C 0.93671 0.27184 0.55104 0.0
C550 C 0.93191 0.26892 0.55991 0.0
Zn551 Zn 0.9593 0.29382 0.57806 0.0
C552 C 0.93853 0.2066 0.58411 0.0
N553 N 0.95655 0.28499 0.60525 0.0
C554 C 0.9874 0.31845 0.60984 0.0
C555 C 0.92398 0.24986 0.60917 0.0
C556 C 0.92136 0.24768 0.61807 0.0
C557 C 0.95259 0.28196 0.62298 0.0
C558 C 0.98608 0.31757 0.61874 0.0
Zn559 Zn 0.95925 0.28893 0.59221 0.0
O560 O 0.02538 0.31185 0.57859 0.0
C561 C 0.97496 0.37466 0.58621 0.0
O562 O 0.02586 0.31082 0.59255 0.0
H563 H 0.89973 0.22362 0.6054 0.0
H564 H 0.02455 0.35569 0.56581 0.0
H565 H 0.01305 0.34605 0.60661 0.0
O566 O 0.97436 0.35873 0.57894 0.0
O567 O 0.97012 0.35246 0.59287 0.0
H568 H 0.90318 0.24258 0.56272 0.0
O569 O 0.89245 0.26496 0.59167 0.0
O570 O 0.89257 0.27378 0.57779 0.0
O571 O 0.94649 0.22516 0.59133 0.0
O572 O 0.94239 0.22818 0.5774 0.0
C573 C 0.87209 0.26122 0.5848 0.0
H574 H 0.03653 0.36184 0.55044 0.0
H575 H 0.91093 0.24797 0.54711 0.0
H576 H 0.8947 0.2198 0.62105 0.0
H577 H 0.01125 0.34442 0.62225 0.0
C578 C 0.72684 0.75543 0.58583 0.0
N579 N 0.74581 0.69238 0.56527 0.0
C580 C 0.71343 0.69695 0.5618 0.0
C581 C 0.7112 0.70124 0.55301 0.0
C582 C 0.742 0.69987 0.54771 0.0
C583 C 0.77423 0.6936 0.55138 0.0
C584 C 0.77582 0.69034 0.56026 0.0
Zn585 Zn 0.74911 0.69166 0.57831 0.0
C586 C 0.83551 0.75602 0.58484 0.0
N587 N 0.75386 0.69437 0.60553 0.0
C588 C 0.72043 0.6919 0.61012 0.0
C589 C 0.78892 0.69679 0.60946 0.0
C590 C 0.79122 0.6967 0.61835 0.0
C591 C 0.75712 0.69408 0.62326 0.0
C592 C 0.72139 0.69171 0.61902 0.0
Zn593 Zn 0.75114 0.69429 0.5925 0.0
O594 O 0.73212 0.74032 0.5789 0.0
C595 C 0.66593 0.62688 0.58589 0.0
O596 O 0.73086 0.74022 0.59286 0.0
H597 H 0.81513 0.69863 0.6057 0.0
H598 H 0.68955 0.69796 0.56586 0.0
H599 H 0.69293 0.69014 0.60686 0.0
O600 O 0.68411 0.64301 0.57882 0.0
O601 O 0.68656 0.64263 0.59279 0.0
H602 H 0.80139 0.68689 0.56314 0.0
O603 O 0.77341 0.65007 0.59197 0.0
O604 O 0.76787 0.64403 0.57801 0.0
O605 O 0.81588 0.74449 0.59195 0.0
O606 O 0.81485 0.73949 0.57798 0.0
C607 C 0.77822 0.63429 0.58508 0.0
H608 H 0.68564 0.70559 0.55037 0.0
H609 H 0.79854 0.69248 0.54745 0.0
H610 H 0.81915 0.69804 0.62134 0.0
H611 H 0.69465 0.69025 0.62253 0.0
C612 C 0.47283 0.92117 0.09316 0.0
C613 C 0.46108 0.93371 0.08559 0.0
C614 C 0.49806 0.90146 0.09287 0.0
C615 C 0.53319 0.84299 0.07864 0.0
H616 H 0.62745 0.88048 0.09478 0.0
C617 C 0.6413 0.7688 0.07749 0.0
C618 C 0.64419 0.75163 0.08536 0.0
C619 C 0.62801 0.79941 0.07716 0.0
C620 C 0.60127 0.86973 0.09024 0.0
H621 H 0.46526 0.93399 0.07178 0.0
H622 H 0.5091 0.89957 0.07129 0.0
H623 H 0.58193 0.91348 0.09506 0.0
H624 H 0.64049 0.75685 0.09909 0.0
H625 H 0.61697 0.80978 0.0985 0.0
H626 H 0.5517 0.79864 0.07393 0.0
C627 C 0.49875 0.90484 0.07744 0.0
C628 C 0.57507 0.8884 0.09043 0.0
C629 C 0.47362 0.92458 0.07773 0.0
C630 C 0.6382 0.76913 0.09292 0.0
C631 C 0.6248 0.79965 0.09258 0.0
C632 C 0.55932 0.82435 0.07846 0.0
C633 C 0.51191 0.89379 0.08501 0.0
C634 C 0.54044 0.87484 0.08469 0.0
C635 C 0.61741 0.81338 0.08469 0.0
C636 C 0.59338 0.83716 0.08431 0.0
H637 H 0.46376 0.92784 0.09932 0.0
H638 H 0.50705 0.89256 0.0988 0.0
H639 H 0.50648 0.83152 0.07421 0.0
H640 H 0.64624 0.7564 0.07156 0.0
H641 H 0.62365 0.81028 0.07099 0.0
C642 C 0.26728 0.89699 0.09181 0.0
C643 C 0.28961 0.9171 0.08428 0.0
C644 C 0.23709 0.85302 0.09186 0.0
C645 C 0.17629 0.75489 0.07868 0.0
H646 H 0.21202 0.70281 0.09623 0.0
C647 C 0.12517 0.57462 0.07795 0.0
C648 C 0.11256 0.55234 0.08575 0.0
C649 C 0.14504 0.61957 0.07776 0.0
C650 C 0.20113 0.71669 0.09137 0.0
H651 H 0.29366 0.90833 0.07068 0.0
H652 H 0.24095 0.8315 0.07079 0.0
H653 H 0.24261 0.78056 0.09596 0.0
H654 H 0.11224 0.55978 0.09948 0.0
H655 H 0.14634 0.63791 0.09914 0.0
H656 H 0.13488 0.69081 0.07407 0.0
C657 C 0.247 0.84962 0.07666 0.0
C658 C 0.21854 0.76127 0.09123 0.0
C659 C 0.27725 0.89368 0.0766 0.0
C660 C 0.1218 0.57598 0.09337 0.0
C661 C 0.1414 0.62084 0.09317 0.0
C662 C 0.15856 0.71011 0.07885 0.0
C663 C 0.22864 0.82849 0.08438 0.0
C664 C 0.20649 0.78086 0.08487 0.0
C665 C 0.15251 0.6431 0.08536 0.0
C666 C 0.17105 0.69057 0.08517 0.0
H667 H 0.27559 0.91434 0.09781 0.0
H668 H 0.22254 0.83762 0.09786 0.0
H669 H 0.16649 0.76922 0.07371 0.0
H670 H 0.11857 0.55731 0.07197 0.0
H671 H 0.15408 0.63583 0.07165 0.0
C672 C 0.15134 0.40723 0.07703 0.0
C673 C 0.12708 0.39633 0.0846 0.0
C674 C 0.19515 0.41992 0.07728 0.0
C675 C 0.28311 0.47578 0.09231 0.0
H676 H 0.35261 0.46282 0.07489 0.0
C677 C 0.4688 0.56221 0.0943 0.0
C678 C 0.49204 0.57814 0.08667 0.0
C679 C 0.4239 0.53661 0.09417 0.0
C680 C 0.33359 0.46706 0.07976 0.0
H681 H 0.12806 0.38446 0.09815 0.0
H682 H 0.20424 0.4059 0.09853 0.0
H683 H 0.27402 0.41789 0.07438 0.0
H684 H 0.48627 0.5811 0.07294 0.0
H685 H 0.40781 0.53745 0.07274 0.0
H686 H 0.3422 0.52572 0.09756 0.0
C687 C 0.18978 0.40592 0.09247 0.0
C688 C 0.28867 0.44112 0.0795 0.0
C689 C 0.14608 0.39336 0.09223 0.0
C690 C 0.46931 0.56927 0.07894 0.0
C691 C 0.42438 0.54382 0.07881 0.0
C692 C 0.32789 0.50178 0.09255 0.0
C693 C 0.21525 0.42166 0.08509 0.0
C694 C 0.26296 0.44545 0.08575 0.0
C695 C 0.40123 0.52658 0.08641 0.0
C696 C 0.35365 0.49803 0.08624 0.0
H697 H 0.13758 0.40964 0.07105 0.0
H698 H 0.21391 0.43177 0.07148 0.0
H699 H 0.26418 0.48066 0.09711 0.0
H700 H 0.48534 0.56816 0.10036 0.0
H701 H 0.40711 0.52358 0.10013 0.0
C702 C 0.92653 0.47862 0.92688 0.0
C703 C 0.93673 0.46743 0.91897 0.0
C704 C 0.90701 0.50392 0.92725 0.0
C705 C 0.89198 0.58235 0.91464 0.0
H706 H 0.80047 0.55607 0.9309 0.0
C707 C 0.77117 0.64368 0.91236 0.0
C708 C 0.75292 0.64838 0.91994 0.0
C709 C 0.80228 0.63105 0.91265 0.0
C710 C 0.82666 0.5645 0.92645 0.0
H711 H 0.93308 0.47279 0.90525 0.0
H712 H 0.89804 0.5163 0.90592 0.0
H713 H 0.83363 0.51118 0.93041 0.0
H714 H 0.757 0.64913 0.93375 0.0
H715 H 0.81185 0.6278 0.93423 0.0
H716 H 0.88408 0.63515 0.91055 0.0
C717 C 0.906 0.50616 0.91182 0.0
C718 C 0.84549 0.53856 0.92614 0.0
C719 C 0.92558 0.48081 0.91144 0.0
C720 C 0.76997 0.64515 0.9278 0.0
C721 C 0.80115 0.63261 0.92808 0.0
C722 C 0.87306 0.60834 0.91495 0.0
C723 C 0.89715 0.51855 0.91973 0.0
C724 C 0.878 0.54689 0.92017 0.0
C725 C 0.81582 0.62314 0.92051 0.0
C726 C 0.83989 0.59939 0.9208 0.0
H727 H 0.93488 0.46902 0.9328 0.0
H728 H 0.90088 0.51315 0.93344 0.0
H729 H 0.91755 0.59004 0.91008 0.0
H730 H 0.75902 0.64632 0.9062 0.0
H731 H 0.81299 0.62411 0.9067 0.0
C732 C 0.39571 0.14834 0.91237 0.0
C733 C 0.39749 0.12878 0.92001 0.0
C734 C 0.40892 0.19219 0.91218 0.0
C735 C 0.44353 0.29049 0.92526 0.0
H736 H 0.53029 0.34432 0.90757 0.0
C737 C 0.57155 0.47101 0.9262 0.0
C738 C 0.58081 0.4939 0.91848 0.0
C739 C 0.54643 0.42606 0.92627 0.0
C740 C 0.50578 0.32991 0.91247 0.0
H741 H 0.4094 0.1385 0.93362 0.0
H742 H 0.43264 0.21509 0.93327 0.0
H743 H 0.4848 0.26632 0.90787 0.0
H744 H 0.57211 0.48749 0.90475 0.0
H745 H 0.52812 0.40922 0.90489 0.0
H746 H 0.46502 0.35431 0.92991 0.0
C747 C 0.42123 0.19664 0.92742 0.0
C748 C 0.47954 0.28518 0.91263 0.0
C749 C 0.40791 0.15269 0.92762 0.0
C750 C 0.5658 0.47082 0.91081 0.0
C751 C 0.54055 0.42591 0.91089 0.0
C752 C 0.4697 0.33538 0.92508 0.0
C753 C 0.4241 0.21723 0.91962 0.0
C754 C 0.44838 0.26494 0.91905 0.0
C755 C 0.52996 0.40308 0.91863 0.0
C756 C 0.50143 0.35553 0.91873 0.0
H757 H 0.3872 0.1306 0.90642 0.0
H758 H 0.40978 0.20706 0.90611 0.0
H759 H 0.41966 0.27576 0.93026 0.0
H760 H 0.5827 0.48784 0.93222 0.0
H761 H 0.53962 0.40935 0.93233 0.0
C762 C 0.57245 0.12134 0.92716 0.0
C763 C 0.55117 0.11038 0.91924 0.0
C764 C 0.61731 0.14125 0.92757 0.0
C765 C 0.71084 0.15526 0.91516 0.0
H766 H 0.77614 0.24861 0.93105 0.0
C767 C 0.89295 0.27515 0.9126 0.0
C768 C 0.91615 0.29427 0.92011 0.0
C769 C 0.84914 0.2444 0.91298 0.0
C770 C 0.75835 0.22192 0.92671 0.0
H771 H 0.56039 0.11318 0.90553 0.0
H772 H 0.63894 0.14877 0.90626 0.0
H773 H 0.69803 0.21532 0.93055 0.0
H774 H 0.91304 0.29222 0.93394 0.0
H775 H 0.83669 0.23797 0.93459 0.0
H776 H 0.77148 0.16265 0.91119 0.0
C777 C 0.62076 0.14114 0.91214 0.0
C778 C 0.71357 0.20303 0.92639 0.0
C779 C 0.57582 0.12124 0.91173 0.0
C780 C 0.89593 0.27852 0.92803 0.0
C781 C 0.85211 0.2477 0.92841 0.0
C782 C 0.75573 0.1742 0.91548 0.0
C783 C 0.64189 0.15066 0.92007 0.0
C784 C 0.68937 0.16987 0.92054 0.0
C785 C 0.82781 0.23208 0.92088 0.0
C786 C 0.77999 0.20807 0.92119 0.0
H787 H 0.5544 0.11327 0.93307 0.0
H788 H 0.63263 0.14795 0.93377 0.0
H789 H 0.69294 0.12918 0.9107 0.0
H790 H 0.90769 0.2863 0.9064 0.0
H791 H 0.83138 0.23297 0.90706 0.0
C792 C 0.31054 0.10602 0.42578 0.0
C793 C 0.3092 0.08479 0.41815 0.0
C794 C 0.29588 0.13551 0.42597 0.0
C795 C 0.2574 0.19588 0.41289 0.0
H796 H 0.17139 0.16129 0.43078 0.0
C797 C 0.12694 0.2447 0.41224 0.0
C798 C 0.11933 0.25985 0.41995 0.0
C799 C 0.15171 0.22452 0.41213 0.0
C800 C 0.19561 0.17174 0.42582 0.0
H801 H 0.29655 0.08167 0.40456 0.0
H802 H 0.27072 0.13296 0.40492 0.0
H803 H 0.21883 0.13092 0.43041 0.0
H804 H 0.12988 0.26378 0.43363 0.0
H805 H 0.17316 0.22871 0.43342 0.0
H806 H 0.23367 0.23637 0.40825 0.0
C807 C 0.28292 0.12676 0.41075 0.0
C808 C 0.22298 0.15454 0.42562 0.0
C809 C 0.29772 0.09731 0.41055 0.0
C810 C 0.13503 0.25235 0.42759 0.0
C811 C 0.15987 0.23226 0.42747 0.0
C812 C 0.23005 0.21323 0.4131 0.0
C813 C 0.27964 0.14425 0.41855 0.0
C814 C 0.25397 0.1662 0.41913 0.0
C815 C 0.16935 0.21911 0.41972 0.0
C816 C 0.19862 0.20102 0.41953 0.0
H817 H 0.31986 0.09753 0.43172 0.0
H818 H 0.29472 0.14943 0.43203 0.0
H819 H 0.28109 0.20553 0.40784 0.0
H820 H 0.11518 0.24987 0.40625 0.0
H821 H 0.15767 0.21383 0.40608 0.0
C822 C 0.93577 0.22836 0.41179 0.0
C823 C 0.95203 0.25317 0.41924 0.0
C824 C 0.90389 0.18495 0.41233 0.0
C825 C 0.87502 0.09832 0.42755 0.0
H826 H 0.79078 0.02814 0.41044 0.0
C827 C 0.78059 0.91181 0.42876 0.0
C828 C 0.77414 0.89013 0.42095 0.0
C829 C 0.79842 0.95656 0.42895 0.0
C830 C 0.81445 0.04737 0.41524 0.0
H831 H 0.94334 0.25391 0.43293 0.0
H832 H 0.88715 0.17839 0.43382 0.0
H833 H 0.82266 0.10651 0.41009 0.0
H834 H 0.78322 0.89861 0.40726 0.0
H835 H 0.81531 0.97671 0.40762 0.0
H836 H 0.86796 0.03954 0.43254 0.0
C837 C 0.90002 0.19205 0.42761 0.0
C838 C 0.83244 0.09216 0.41506 0.0
C839 C 0.932 0.23538 0.42709 0.0
C840 C 0.78766 0.91431 0.41338 0.0
C841 C 0.80554 0.95902 0.41357 0.0
C842 C 0.85711 0.05363 0.42771 0.0
C843 C 0.88758 0.1658 0.42031 0.0
C844 C 0.86345 0.11816 0.42114 0.0
C845 C 0.81025 0.98051 0.42134 0.0
C846 C 0.82724 0.02773 0.42147 0.0
H847 H 0.95033 0.24121 0.40564 0.0
H848 H 0.89492 0.16563 0.40658 0.0
H849 H 0.89953 0.11745 0.43221 0.0
H850 H 0.77024 0.89409 0.4347 0.0
H851 H 0.80152 0.97218 0.43503 0.0
C852 C 0.13822 0.89919 0.41106 0.0
C853 C 0.15961 0.91038 0.41897 0.0
C854 C 0.09331 0.87457 0.41069 0.0
C855 C -0.0013 0.79825 0.42333 0.0
H856 H 0.93549 0.8277 0.40717 0.0
C857 C 0.81726 0.74078 0.42581 0.0
C858 C 0.79421 0.73668 0.41827 0.0
C859 C 0.86092 0.75307 0.42547 0.0
C860 C 0.95264 0.81838 0.4116 0.0
H861 H 0.15051 0.90539 0.43269 0.0
H862 H 0.0719 0.863 0.43202 0.0
H863 H 0.01379 0.87018 0.40756 0.0
H864 H 0.79745 0.73712 0.40445 0.0
H865 H 0.87343 0.75771 0.40386 0.0
H866 H 0.93725 0.74692 0.42748 0.0
C867 C 0.09003 0.87267 0.42612 0.0
C868 C -0.00244 0.84293 0.41185 0.0
C869 C 0.13501 0.89737 0.42649 0.0
C870 C 0.81444 0.74056 0.41038 0.0
C871 C 0.85807 0.75272 0.41004 0.0
C872 C 0.95366 0.77362 0.42307 0.0
C873 C 0.06874 0.86058 0.41821 0.0
C874 C 0.02107 0.83348 0.41778 0.0
C875 C 0.88227 0.76123 0.41758 0.0
C876 C 0.93011 0.78373 0.41726 0.0
H877 H 0.15621 0.90848 0.40514 0.0
H878 H 0.0779 0.86552 0.40449 0.0
H879 H 0.016 0.78971 0.42787 0.0
H880 H 0.80257 0.73775 0.432 0.0
H881 H 0.87858 0.75933 0.4314 0.0
C882 C 0.4364 0.97866 0.24523 0.0
C883 C 0.41582 0.97753 0.25294 0.0
C884 C 0.46737 0.96587 0.24499 0.0
C885 C 0.53367 0.9343 0.25804 0.0
H886 H 0.50066 0.84585 0.24071 0.0
C887 C 0.5879 0.80771 0.25951 0.0
C888 C 0.60104 0.7975 0.25183 0.0
C889 C 0.56795 0.83272 0.25946 0.0
C890 C 0.5108 0.87086 0.2455 0.0
H891 H 0.41522 0.96709 0.26658 0.0
H892 H 0.46913 0.94461 0.26614 0.0
H893 H 0.46702 0.89036 0.24089 0.0
H894 H 0.60249 0.80454 0.23807 0.0
H895 H 0.56797 0.84836 0.238 0.0
H896 H 0.5771 0.91425 0.26271 0.0
C897 C 0.46125 0.95519 0.26028 0.0
C898 C 0.49164 0.89653 0.24559 0.0
C899 C 0.43028 0.96805 0.26053 0.0
C900 C 0.5925 0.81159 0.24409 0.0
C901 C 0.57271 0.83673 0.24405 0.0
C902 C 0.55302 0.90869 0.25793 0.0
C903 C 0.47836 0.95179 0.25244 0.0
C904 C 0.50254 0.92824 0.2519 0.0
C905 C 0.56083 0.84815 0.25174 0.0
C906 C 0.54139 0.87633 0.25172 0.0
H907 H 0.42641 0.98641 0.23928 0.0
H908 H 0.48085 0.96456 0.23888 0.0
H909 H 0.54283 0.95863 0.26295 0.0
H910 H 0.59395 0.79728 0.26558 0.0
H911 H 0.55834 0.84018 0.26548 0.0
C912 C 0.23232 0.80173 0.25958 0.0
C913 C 0.24311 0.82389 0.25176 0.0
C914 C 0.20675 0.75694 0.2598 0.0
C915 C 0.1271 0.66486 0.24701 0.0
H916 H 0.15172 0.59804 0.26318 0.0
C917 C 0.06313 0.48197 0.2449 0.0
C918 C 0.05812 0.4593 0.25253 0.0
C919 C 0.07597 0.52576 0.24509 0.0
C920 C 0.14379 0.61628 0.25875 0.0
H921 H 0.23688 0.81625 0.23802 0.0
H922 H 0.19303 0.73765 0.23841 0.0
H923 H 0.19809 0.67584 0.26268 0.0
H924 H 0.05658 0.46311 0.26633 0.0
H925 H 0.07838 0.5394 0.26664 0.0
H926 H 0.07339 0.60472 0.24293 0.0
C927 C 0.20362 0.75515 0.24437 0.0
C928 C 0.17056 0.6609 0.25843 0.0
C929 C 0.22918 0.80011 0.24414 0.0
C930 C 0.06083 0.47983 0.26034 0.0
C931 C 0.07363 0.52361 0.26052 0.0
C932 C 0.10034 0.62004 0.2473 0.0
C933 C 0.19153 0.73317 0.25221 0.0
C934 C 0.16274 0.6857 0.25253 0.0
C935 C 0.0838 0.54751 0.25292 0.0
C936 C 0.10859 0.59529 0.25315 0.0
H937 H 0.24232 0.81906 0.26557 0.0
H938 H 0.19774 0.74107 0.26595 0.0
H939 H 0.11979 0.68318 0.24249 0.0
H940 H 0.06082 0.46695 0.23877 0.0
H941 H 0.08338 0.54326 0.23912 0.0
C942 C 0.55653 0.61193 0.26134 0.0
C943 C 0.58084 0.62469 0.25377 0.0
C944 C 0.5125 0.58169 0.26109 0.0
C945 C 0.42522 0.55214 0.24604 0.0
H946 H 0.35405 0.47065 0.26345 0.0
C947 C 0.23951 0.45528 0.24398 0.0
C948 C 0.21622 0.44812 0.2516 0.0
C949 C 0.28438 0.47466 0.24413 0.0
C950 C 0.37357 0.49367 0.25859 0.0
H951 H 0.57964 0.61153 0.24024 0.0
H952 H 0.50299 0.55829 0.23984 0.0
H953 H 0.4324 0.50209 0.26397 0.0
H954 H 0.22187 0.45768 0.26531 0.0
H955 H 0.30034 0.49261 0.26553 0.0
H956 H 0.36687 0.54488 0.24079 0.0
C957 C 0.51764 0.57261 0.24591 0.0
C958 C 0.41832 0.51136 0.25885 0.0
C959 C 0.56158 0.60288 0.24615 0.0
C960 C 0.23887 0.46267 0.25932 0.0
C961 C 0.28379 0.48219 0.25947 0.0
C962 C 0.38062 0.53465 0.2458 0.0
C963 C 0.49224 0.56363 0.25328 0.0
C964 C 0.4446 0.54099 0.25261 0.0
C965 C 0.30693 0.48748 0.2519 0.0
C966 C 0.35431 0.50552 0.25211 0.0
H967 H 0.57051 0.62796 0.26733 0.0
H968 H 0.49377 0.57531 0.26688 0.0
H969 H 0.44468 0.57571 0.24125 0.0
H970 H 0.22302 0.44422 0.23792 0.0
H971 H 0.30123 0.47805 0.23819 0.0
C972 C 0.81445 0.59417 0.76061 0.0
C973 C 0.8005 0.6043 0.75303 0.0
C974 C 0.83988 0.57463 0.76032 0.0
C975 C 0.87187 0.51301 0.74614 0.0
H976 H 0.9692 0.55275 0.76158 0.0
C977 C 0.97992 0.43956 0.74409 0.0
C978 C 0.98305 0.42199 0.7519 0.0
C979 C 0.96732 0.47071 0.74393 0.0
C980 C 0.94219 0.54145 0.75722 0.0
H981 H 0.80128 0.60076 0.73921 0.0
H982 H 0.8456 0.56704 0.73872 0.0
H983 H 0.92357 0.58568 0.7621 0.0
H984 H 0.98113 0.42741 0.76566 0.0
H985 H 0.9589 0.48141 0.76535 0.0
H986 H 0.88983 0.4684 0.74135 0.0
C987 C 0.83669 0.57379 0.74489 0.0
C988 C 0.91588 0.56002 0.75756 0.0
C989 C 0.81128 0.5932 0.74517 0.0
C990 C 0.97852 0.43994 0.75953 0.0
C991 C 0.96586 0.47104 0.75936 0.0
C992 C 0.89817 0.49461 0.74579 0.0
C993 C 0.85181 0.56484 0.75245 0.0
C994 C 0.8802 0.5457 0.75207 0.0
C995 C 0.95774 0.48485 0.75155 0.0
C996 C 0.93341 0.50834 0.75136 0.0
H997 H 0.80677 0.60241 0.76676 0.0
H998 H 0.85042 0.56742 0.76626 0.0
H999 H 0.84429 0.50079 0.74191 0.0
H1000 H 0.98377 0.42685 0.7381 0.0
H1001 H 0.96236 0.48165 0.73781 0.0
C1002 C 0.61315 0.55907 0.74429 0.0
C1003 C 0.62704 0.58299 0.75189 0.0
C1004 C 0.58258 0.51512 0.74451 0.0
C1005 C 0.55251 0.42615 0.75921 0.0
H1006 H 0.46747 0.35795 0.74206 0.0
C1007 C 0.45141 0.24049 0.7609 0.0
C1008 C 0.44278 0.21758 0.75319 0.0
C1009 C 0.47149 0.28543 0.76087 0.0
C1010 C 0.49145 0.3766 0.74685 0.0
H1011 H 0.61585 0.58103 0.76553 0.0
H1012 H 0.56211 0.50453 0.76588 0.0
H1013 H 0.50143 0.43656 0.74177 0.0
H1014 H 0.45008 0.22394 0.73944 0.0
H1015 H 0.48618 0.30247 0.73943 0.0
H1016 H 0.54366 0.36662 0.76415 0.0
C1017 C 0.57573 0.51945 0.75979 0.0
C1018 C 0.51062 0.42154 0.74671 0.0
C1019 C 0.60629 0.56333 0.75958 0.0
C1020 C 0.45619 0.24065 0.74549 0.0
C1021 C 0.47643 0.28562 0.74547 0.0
C1022 C 0.53354 0.38135 0.75932 0.0
C1023 C 0.56532 0.49448 0.75233 0.0
C1024 C 0.54154 0.44676 0.75286 0.0
C1025 C 0.48357 0.30845 0.75315 0.0
C1026 C 0.50306 0.35606 0.7531 0.0
H1027 H 0.62836 0.57334 0.73826 0.0
H1028 H 0.57513 0.49673 0.73865 0.0
H1029 H 0.57698 0.44474 0.76392 0.0
H1030 H 0.44123 0.22367 0.76694 0.0
H1031 H 0.47624 0.30202 0.7669 0.0
C1032 C 0.47999 0.06151 0.7593 0.0
C1033 C 0.46086 0.06374 0.75163 0.0
C1034 C 0.52387 0.07488 0.75957 0.0
C1035 C 0.62317 0.11193 0.74663 0.0
H1036 H 0.67491 0.19786 0.76452 0.0
C1037 C 0.80198 0.24379 0.74573 0.0
C1038 C 0.8252 0.25245 0.7534 0.0
C1039 C 0.75711 0.21803 0.7457 0.0
C1040 C 0.66107 0.17361 0.75957 0.0
H1041 H 0.47129 0.07639 0.73805 0.0
H1042 H 0.54789 0.09999 0.73856 0.0
H1043 H 0.59711 0.15069 0.76416 0.0
H1044 H 0.81941 0.2424 0.7671 0.0
H1045 H 0.74121 0.19741 0.76704 0.0
H1046 H 0.68734 0.13551 0.74197 0.0
C1047 C 0.52914 0.08811 0.74436 0.0
C1048 C 0.61647 0.14638 0.75938 0.0
C1049 C 0.48517 0.07461 0.74407 0.0
C1050 C 0.80247 0.23653 0.76108 0.0
C1051 C 0.75762 0.21068 0.76105 0.0
C1052 C 0.6679 0.13914 0.74684 0.0
C1053 C 0.54933 0.09068 0.7522 0.0
C1054 C 0.59698 0.11556 0.75287 0.0
C1055 C 0.73456 0.20037 0.75334 0.0
C1056 C 0.68725 0.17064 0.75325 0.0
H1057 H 0.46191 0.05261 0.76521 0.0
H1058 H 0.53845 0.07549 0.76567 0.0
H1059 H 0.60903 0.08834 0.74157 0.0
H1060 H 0.81854 0.25563 0.7397 0.0
H1061 H 0.74013 0.21144 0.73968 0.0
C1062 C 0.10439 0.31027 0.59279 0.0
C1063 C 0.08774 0.31818 0.58532 0.0
C1064 C 0.13614 0.29854 0.5923 0.0
C1065 C 0.16528 0.23975 0.57733 0.0
H1066 H 0.25135 0.25753 0.59431 0.0
C1067 C 0.26336 0.1514 0.57626 0.0
C1068 C 0.27073 0.13707 0.58409 0.0
C1069 C 0.24471 0.17759 0.57604 0.0
C1070 C 0.22717 0.25204 0.58956 0.0
H1071 H 0.0954 0.32578 0.57159 0.0
H1072 H 0.15133 0.30602 0.57076 0.0
H1073 H 0.21788 0.30261 0.59452 0.0
H1074 H 0.26271 0.13756 0.5978 0.0
H1075 H 0.22926 0.18239 0.59738 0.0
H1076 H 0.17351 0.18845 0.57251 0.0
C1077 C 0.13889 0.30758 0.57697 0.0
C1078 C 0.20824 0.27802 0.58965 0.0
C1079 C 0.10708 0.31921 0.57746 0.0
C1080 C 0.25755 0.14812 0.59166 0.0
C1081 C 0.23885 0.17424 0.59144 0.0
C1082 C 0.18413 0.21378 0.57725 0.0
C1083 C 0.15194 0.29476 0.58433 0.0
C1084 C 0.17661 0.27172 0.58361 0.0
C1085 C 0.23297 0.18993 0.58363 0.0
C1086 C 0.21475 0.21915 0.58344 0.0
H1087 H 0.0904 0.30949 0.59896 0.0
H1088 H 0.14555 0.28894 0.59809 0.0
H1089 H 0.14034 0.23339 0.5727 0.0
H1090 H 0.2734 0.1437 0.57032 0.0
H1091 H 0.24076 0.18931 0.56993 0.0
C1092 C 0.73515 0.82113 0.59309 0.0
C1093 C 0.72569 0.79608 0.58566 0.0
C1094 C 0.74822 0.86491 0.59254 0.0
C1095 C 0.8077 0.95083 0.57722 0.0
H1096 H 0.79745 0.02286 0.59445 0.0
C1097 C 0.90169 0.13749 0.57591 0.0
C1098 C 0.91793 0.15916 0.58369 0.0
C1099 C 0.87492 0.09273 0.57575 0.0
C1100 C 0.80081 0.00308 0.58962 0.0
H1101 H 0.71631 0.79549 0.57198 0.0
H1102 H 0.73823 0.87169 0.57105 0.0
H1103 H 0.74896 0.94483 0.59484 0.0
H1104 H 0.9209 0.15063 0.59733 0.0
H1105 H 0.87494 0.0725 0.59701 0.0
H1106 H 0.86016 0.00882 0.57213 0.0
C1107 C 0.73701 0.8579 0.57726 0.0
C1108 C 0.77289 0.9585 0.58982 0.0
C1109 C 0.72415 0.81419 0.57781 0.0
C1110 C 0.90883 0.13494 0.59124 0.0
C1111 C 0.88206 0.09024 0.59107 0.0
C1112 C 0.83554 0.99535 0.57703 0.0
C1113 C 0.75168 0.8842 0.58455 0.0
C1114 C 0.77652 0.93182 0.5837 0.0
C1115 C 0.86391 0.06883 0.58336 0.0
C1116 C 0.83291 0.02184 0.58331 0.0
H1117 H 0.73635 0.80806 0.59925 0.0
H1118 H 0.75919 0.88425 0.59828 0.0
H1119 H 0.81201 0.93115 0.57252 0.0
H1120 H 0.90795 0.15523 0.56999 0.0
H1121 H 0.8614 0.07709 0.56972 0.0
C1122 C 0.22858 0.94227 0.57834 0.0
C1123 C 0.24792 0.96274 0.58607 0.0
C1124 C 0.18464 0.91192 0.57805 0.0
C1125 C 0.08591 0.84782 0.59104 0.0
H1126 H 0.03247 0.88161 0.57343 0.0
C1127 C 0.90637 0.79804 0.5923 0.0
C1128 C 0.88294 0.78341 0.58465 0.0
C1129 C 0.9513 0.81776 0.59226 0.0
C1130 C 0.04681 0.87133 0.57831 0.0
H1131 H 0.23766 0.96367 0.59969 0.0
H1132 H 0.16101 0.91097 0.59915 0.0
H1133 H 0.11048 0.9135 0.57368 0.0
H1134 H 0.88839 0.7796 0.57093 0.0
H1135 H 0.96672 0.81393 0.57088 0.0
H1136 H 0.02206 0.80614 0.59575 0.0
C1137 C 0.17964 0.91841 0.59332 0.0
C1138 C 0.09152 0.88942 0.57844 0.0
C1139 C 0.22364 0.94872 0.59363 0.0
C1140 C 0.90549 0.79068 0.57693 0.0
C1141 C 0.95041 0.81034 0.5769 0.0
C1142 C 0.04109 0.82962 0.59091 0.0
C1143 C 0.15932 0.90149 0.58546 0.0
C1144 C 0.11161 0.87821 0.58485 0.0
C1145 C 0.97371 0.82325 0.58458 0.0
C1146 C 0.02114 0.84161 0.5846 0.0
H1147 H 0.24658 0.95192 0.57242 0.0
H1148 H 0.16997 0.89854 0.57193 0.0
H1149 H 0.1005 0.83839 0.59603 0.0
H1150 H 0.88997 0.79298 0.59836 0.0
H1151 H 0.96846 0.82823 0.59826 0.0
C1152 C 0.3879 0.00233 0.03442 0.0
C1153 C 0.42607 0.02876 0.03897 0.0
C1154 C 0.38822 0.00071 0.02553 0.0
C1155 C 0.45057 0.06158 0.00666 0.0
H1156 H 0.38369 0.95162 0.99517 0.0
C1157 C 0.46043 0.04285 0.97026 0.0
C1158 C 0.42135 0.0168 0.96595 0.0
C1159 C 0.46187 0.04394 0.97917 0.0
C1160 C 0.40219 0.98264 0.99828 0.0
H1161 H 0.49449 0.07449 0.03771 0.0
H1162 H 0.49517 0.07117 0.02217 0.0
H1163 H 0.38476 0.95438 0.01071 0.0
H1164 H 0.35324 0.97089 0.96765 0.0
H1165 H 0.3556 0.97332 0.98319 0.0
H1166 H 0.46785 0.08985 0.99423 0.0
C1167 C 0.4649 0.05197 0.0255 0.0
C1168 C 0.40281 0.98422 0.00719 0.0
C1169 C 0.4646 0.05353 0.03441 0.0
C1170 C 0.38379 0.99163 0.97077 0.0
C1171 C 0.38524 0.99266 0.97967 0.0
C1172 C 0.44995 0.05999 0.99775 0.0
C1173 C 0.42671 0.02549 0.02095 0.0
C1174 C 0.42685 0.02374 0.01148 0.0
C1175 C 0.42427 0.01893 0.98398 0.0
C1176 C 0.42561 0.02052 0.99346 0.0
H1177 H 0.35776 0.98243 0.03774 0.0
H1178 H 0.35814 0.98034 0.02223 0.0
H1179 H 0.46893 0.09261 0.00977 0.0
H1180 H 0.48987 0.06299 0.96675 0.0
H1181 H 0.49253 0.06419 0.98229 0.0
C1182 C 0.00408 0.44326 0.97007 0.0
C1183 C 0.0297 0.42979 0.96573 0.0
C1184 C 0.00282 0.44318 0.97898 0.0
C1185 C 0.02323 0.39389 0.99778 0.0
H1186 H 0.02229 0.48757 0.01003 0.0
C1187 C 0.99067 0.3855 0.03397 0.0
C1188 C 0.01652 0.42296 0.03876 0.0
C1189 C 0.99188 0.38672 0.02506 0.0
C1190 C 0.02281 0.46129 0.00671 0.0
H1191 H 0.07493 0.40671 0.96738 0.0
H1192 H 0.07275 0.40659 0.98292 0.0
H1193 H 0.02663 0.48976 0.9945 0.0
H1194 H 0.06411 0.49106 0.03792 0.0
H1195 H 0.06619 0.49318 0.02238 0.0
H1196 H 0.02019 0.36578 0.00999 0.0
C1197 C 0.05306 0.41653 0.97942 0.0
C1198 C 0.02483 0.46233 0.9978 0.0
C1199 C 0.05433 0.41662 0.97052 0.0
C1200 C 0.04331 0.46176 0.03442 0.0
C1201 C 0.04452 0.46298 0.02552 0.0
C1202 C 0.02114 0.39282 0.00668 0.0
C1203 C 0.02713 0.42961 0.98376 0.0
C1204 C 0.0251 0.42865 0.99323 0.0
C1205 C 0.01897 0.42543 0.02073 0.0
C1206 C 0.02091 0.42651 0.01125 0.0
H1207 H 0.9842 0.45298 0.96658 0.0
H1208 H 0.98204 0.45288 0.98212 0.0
H1209 H 0.0229 0.3672 0.99446 0.0
H1210 H 0.96917 0.35525 0.0371 0.0
H1211 H 0.97125 0.35738 0.02156 0.0
C1212 C 0.6038 0.58259 0.97047 0.0
C1213 C 0.61672 0.62147 0.96609 0.0
C1214 C 0.60296 0.58145 0.97938 0.0
C1215 C 0.59969 0.64152 0.99829 0.0
H1216 H 0.64292 0.57576 0.01017 0.0
C1217 C 0.63172 0.65713 0.03453 0.0
C1218 C 0.62003 0.61915 0.03915 0.0
C1219 C 0.63016 0.65655 0.02563 0.0
C1220 C 0.63024 0.59385 0.00695 0.0
H1221 H 0.63818 0.68948 0.96766 0.0
H1222 H 0.63748 0.68764 0.98319 0.0
H1223 H 0.64211 0.57626 0.99463 0.0
H1224 H 0.5978 0.55078 0.03799 0.0
H1225 H 0.59445 0.54964 0.02245 0.0
H1226 H 0.58801 0.65928 0.01062 0.0
C1227 C 0.62762 0.65794 0.97974 0.0
C1228 C 0.62977 0.59414 0.99804 0.0
C1229 C 0.62851 0.6591 0.97083 0.0
C1230 C 0.60665 0.58053 0.03464 0.0
C1231 C 0.60518 0.57997 0.02573 0.0
C1232 C 0.60017 0.64125 0.0072 0.0
C1233 C 0.61495 0.61913 0.98412 0.0
C1234 C 0.61464 0.61811 0.9936 0.0
C1235 C 0.61692 0.61798 0.02112 0.0
C1236 C 0.61561 0.61755 0.01164 0.0
H1237 H 0.59492 0.5531 0.96701 0.0
H1238 H 0.59263 0.55094 0.98255 0.0
H1239 H 0.58717 0.65975 0.99507 0.0
H1240 H 0.6417 0.68733 0.03781 0.0
H1241 H 0.63986 0.68649 0.02228 0.0
C1242 C 0.12535 0.37642 0.36775 0.0
C1243 C 0.08629 0.35237 0.37219 0.0
C1244 C 0.12609 0.37634 0.35883 0.0
C1245 C 0.06431 0.3134 0.34012 0.0
H1246 H 0.13168 0.42118 0.32794 0.0
C1247 C 0.04955 0.32662 0.30373 0.0
C1248 C 0.08743 0.35315 0.2991 0.0
C1249 C 0.05004 0.32625 0.31264 0.0
C1250 C 0.11316 0.3907 0.33123 0.0
H1251 H 0.01748 0.30886 0.37075 0.0
H1252 H 0.01873 0.30901 0.3552 0.0
H1253 H 0.1316 0.42096 0.34349 0.0
H1254 H 0.15555 0.40029 0.30027 0.0
H1255 H 0.15664 0.39876 0.31579 0.0
H1256 H 0.04601 0.28305 0.32789 0.0
C1257 C 0.04881 0.32778 0.35861 0.0
C1258 C 0.11308 0.39061 0.34015 0.0
C1259 C 0.04803 0.32806 0.36752 0.0
C1260 C 0.12587 0.37911 0.30361 0.0
C1261 C 0.12638 0.37865 0.31253 0.0
C1262 C 0.06453 0.31345 0.3312 0.0
C1263 C 0.08783 0.35199 0.35416 0.0
C1264 C 0.08852 0.35199 0.34469 0.0
C1265 C 0.08844 0.35229 0.31715 0.0
C1266 C 0.08882 0.35213 0.32665 0.0
H1267 H 0.15532 0.39577 0.37116 0.0
H1268 H 0.15672 0.39504 0.3556 0.0
H1269 H 0.04557 0.28301 0.34343 0.0
H1270 H 0.01947 0.30581 0.30047 0.0
H1271 H 0.02011 0.30591 0.31598 0.0
C1272 C 0.71048 0.8058 0.36815 0.0
C1273 C 0.68458 0.76696 0.37254 0.0
C1274 C 0.71066 0.80684 0.35923 0.0
C1275 C 0.64737 0.74626 0.34033 0.0
H1276 H 0.75669 0.81024 0.32849 0.0
C1277 C 0.66431 0.72612 0.30431 0.0
C1278 C 0.69079 0.76346 0.29954 0.0
C1279 C 0.66325 0.72787 0.3132 0.0
C1280 C 0.72584 0.79266 0.33169 0.0
H1281 H 0.63775 0.699 0.371 0.0
H1282 H 0.63863 0.70066 0.35548 0.0
H1283 H 0.75507 0.81119 0.34403 0.0
H1284 H 0.73722 0.83187 0.30039 0.0
H1285 H 0.73488 0.83505 0.31592 0.0
H1286 H 0.61817 0.72748 0.32801 0.0
C1287 C 0.65858 0.7304 0.35891 0.0
C1288 C 0.7249 0.79322 0.34061 0.0
C1289 C 0.65846 0.72935 0.36782 0.0
C1290 C 0.71619 0.8026 0.30388 0.0
C1291 C 0.71519 0.80434 0.31278 0.0
C1292 C 0.64831 0.74569 0.33143 0.0
C1293 C 0.68483 0.7691 0.35451 0.0
C1294 C 0.68568 0.7698 0.34503 0.0
C1295 C 0.68866 0.76699 0.31754 0.0
C1296 C 0.68758 0.76865 0.32701 0.0
H1297 H 0.73124 0.83527 0.37159 0.0
H1298 H 0.73093 0.83726 0.35603 0.0
H1299 H 0.61653 0.72845 0.34354 0.0
H1300 H 0.64398 0.69555 0.30117 0.0
H1301 H 0.64283 0.69841 0.31668 0.0
C1302 C 0.26839 0.91228 0.30365 0.0
C1303 C 0.28075 0.95104 0.29927 0.0
C1304 C 0.26824 0.91129 0.31256 0.0
C1305 C 0.26576 0.97125 0.33154 0.0
H1306 H 0.31229 0.90775 0.34317 0.0
C1307 C 0.30129 0.98902 0.36763 0.0
C1308 C 0.29082 0.95144 0.37228 0.0
C1309 C 0.29908 0.98805 0.35874 0.0
C1310 C 0.2987 0.92519 0.34002 0.0
H1311 H 0.30175 0.01895 0.30083 0.0
H1312 H 0.3021 0.01736 0.31637 0.0
H1313 H 0.30964 0.90748 0.32763 0.0
H1314 H 0.27026 0.88342 0.3712 0.0
H1315 H 0.2657 0.88155 0.35566 0.0
H1316 H 0.25493 0.98908 0.34393 0.0
C1317 C 0.29225 0.98766 0.31291 0.0
C1318 C 0.29717 0.92503 0.33112 0.0
C1319 C 0.29251 0.98867 0.30401 0.0
C1320 C 0.27816 0.91285 0.36781 0.0
C1321 C 0.276 0.91189 0.35891 0.0
C1322 C 0.26726 0.97138 0.34045 0.0
C1323 C 0.28028 0.949 0.3173 0.0
C1324 C 0.28088 0.94823 0.32677 0.0
C1325 C 0.28634 0.94946 0.35426 0.0
C1326 C 0.28395 0.94854 0.34479 0.0
H1327 H 0.25953 0.88281 0.30018 0.0
H1328 H 0.25845 0.88091 0.31574 0.0
H1329 H 0.25237 0.98887 0.3284 0.0
H1330 H 0.31068 0.01918 0.37087 0.0
H1331 H 0.30776 0.01768 0.35535 0.0
C1332 C 0.72397 0.66698 0.7011 0.0
C1333 C 0.76161 0.69377 0.70577 0.0
C1334 C 0.72477 0.66667 0.6922 0.0
C1335 C 0.78623 0.73205 0.6737 0.0
H1336 H 0.72347 0.62369 0.66149 0.0
C1337 C 0.79736 0.72071 0.6371 0.0
C1338 C 0.75873 0.69373 0.63273 0.0
C1339 C 0.79876 0.72049 0.64601 0.0
C1340 C 0.7408 0.65427 0.6648 0.0
H1341 H 0.82959 0.74141 0.70472 0.0
H1342 H 0.8311 0.74047 0.68916 0.0
H1343 H 0.72415 0.62369 0.67703 0.0
H1344 H 0.69143 0.6449 0.63431 0.0
H1345 H 0.69365 0.64516 0.64984 0.0
H1346 H 0.80263 0.76266 0.66147 0.0
C1347 C 0.80089 0.71994 0.6924 0.0
C1348 C 0.74121 0.65426 0.67371 0.0
C1349 C 0.80013 0.72015 0.70132 0.0
C1350 C 0.72159 0.66643 0.63748 0.0
C1351 C 0.723 0.6662 0.64638 0.0
C1352 C 0.78578 0.73207 0.66479 0.0
C1353 C 0.7632 0.6932 0.68774 0.0
C1354 C 0.76375 0.69316 0.67827 0.0
C1355 C 0.76158 0.69325 0.65075 0.0
C1356 C 0.76289 0.69319 0.66023 0.0
H1357 H 0.69388 0.64591 0.70434 0.0
H1358 H 0.69507 0.64603 0.68881 0.0
H1359 H 0.80342 0.76262 0.67702 0.0
H1360 H 0.82645 0.74243 0.63364 0.0
H1361 H 0.8291 0.74142 0.64917 0.0
C1362 C 0.38213 0.08472 0.6372 0.0
C1363 C 0.3569 0.09747 0.63251 0.0
C1364 C 0.38155 0.08485 0.6461 0.0
C1365 C 0.35396 0.13015 0.66466 0.0
H1366 H 0.35164 0.0342 0.67664 0.0
C1367 C 0.37581 0.12972 0.70121 0.0
C1368 C 0.34991 0.09075 0.70556 0.0
C1369 C 0.37616 0.13103 0.6923 0.0
C1370 C 0.35193 0.06107 0.6734 0.0
H1371 H 0.31128 0.12043 0.63351 0.0
H1372 H 0.31023 0.12062 0.64907 0.0
H1373 H 0.35292 0.0356 0.66112 0.0
H1374 H 0.3032 0.02282 0.70395 0.0
H1375 H 0.30375 0.02511 0.68841 0.0
H1376 H 0.35216 0.1552 0.67696 0.0
C1377 C 0.3309 0.11103 0.64585 0.0
C1378 C 0.35321 0.06214 0.6645 0.0
C1379 C 0.3315 0.11092 0.63693 0.0
C1380 C 0.32406 0.05321 0.70079 0.0
C1381 C 0.32439 0.05453 0.69189 0.0
C1382 C 0.35272 0.1291 0.67358 0.0
C1383 C 0.35571 0.09772 0.65054 0.0
C1384 C 0.35429 0.09671 0.66002 0.0
C1385 C 0.3506 0.0934 0.68753 0.0
C1386 C 0.35169 0.09453 0.67805 0.0
H1387 H 0.40265 0.07491 0.63399 0.0
H1388 H 0.40167 0.07518 0.64952 0.0
H1389 H 0.35515 0.15743 0.66141 0.0
H1390 H 0.39656 0.15909 0.70468 0.0
H1391 H 0.39718 0.16138 0.68914 0.0
C1392 C 0.93769 0.24242 0.63696 0.0
C1393 C 0.95016 0.28089 0.63246 0.0
C1394 C 0.93588 0.24168 0.64587 0.0
C1395 C 0.9301 0.30274 0.66446 0.0
H1396 H 0.97217 0.23771 0.67698 0.0
C1397 C 0.96192 0.3222 0.70072 0.0
C1398 C 0.94891 0.28448 0.70552 0.0
C1399 C 0.96044 0.32063 0.69181 0.0
C1400 C 0.95985 0.25563 0.67357 0.0
H1401 H 0.9697 0.34858 0.63384 0.0
H1402 H 0.9677 0.34755 0.64934 0.0
H1403 H 0.97255 0.23701 0.66143 0.0
H1404 H 0.92442 0.21558 0.70472 0.0
H1405 H 0.92154 0.2128 0.68916 0.0
H1406 H 0.91796 0.32178 0.67661 0.0
C1407 C 0.9588 0.31778 0.64599 0.0
C1408 C 0.96001 0.25519 0.66466 0.0
C1409 C 0.96052 0.31851 0.63709 0.0
C1410 C 0.93432 0.24514 0.7012 0.0
C1411 C 0.93307 0.24361 0.69229 0.0
C1412 C 0.93012 0.30331 0.67337 0.0
C1413 C 0.94653 0.27939 0.6505 0.0
C1414 C 0.94531 0.2789 0.65999 0.0
C1415 C 0.94611 0.28135 0.6875 0.0
C1416 C 0.94516 0.27991 0.67803 0.0
H1417 H 0.92987 0.21294 0.63361 0.0
H1418 H 0.92585 0.21144 0.64913 0.0
H1419 H 0.91783 0.32075 0.66107 0.0
H1420 H 0.97292 0.35293 0.70385 0.0
H1421 H 0.97109 0.35034 0.6883 0.0
C1422 C 0.3392 0.01007 0.20072 0.0
C1423 C 0.31369 0.96982 0.20472 0.0
C1424 C 0.34786 0.01259 0.19199 0.0
C1425 C 0.30705 0.96014 0.17176 0.0
H1426 H 0.42651 0.01735 0.16441 0.0
C1427 C 0.35064 0.96165 0.13634 0.0
C1428 C 0.38722 -0.00165 0.13317 0.0
C1429 C 0.34228 0.95677 0.1451 0.0
C1430 C 0.39296 0.0019 0.1663 0.0
H1431 H 0.27673 0.90065 0.20248 0.0
H1432 H 0.29028 0.90555 0.18715 0.0
H1433 H 0.40963 0.01251 0.17957 0.0
H1434 H 0.44371 0.05883 0.13655 0.0
H1435 H 0.42831 0.05161 0.1518 0.0
H1436 H 0.28995 0.95111 0.15858 0.0
C1437 C 0.3039 0.93495 0.19088 0.0
C1438 C 0.38339 -0.00109 0.17501 0.0
C1439 C 0.29594 0.93228 0.19966 0.0
C1440 C 0.41551 0.03004 0.13888 0.0
C1441 C 0.40669 0.02566 0.14763 0.0
C1442 C 0.31655 0.96391 0.16305 0.0
C1443 C 0.33043 0.97508 0.18701 0.0
C1444 C 0.34038 0.97793 0.1778 0.0
C1445 C 0.36981 0.98901 0.15087 0.0
C1446 C 0.35968 0.98476 0.16018 0.0
H1447 H 0.35253 0.03985 0.20431 0.0
H1448 H 0.36793 0.04396 0.18911 0.0
H1449 H 0.27362 0.94416 0.17378 0.0
H1450 H 0.32857 0.93662 0.13204 0.0
H1451 H 0.3142 0.92759 0.14731 0.0
C1452 C 0.06054 0.44712 0.13831 0.0
C1453 C 0.0396 0.4097 0.13323 0.0
C1454 C 0.06574 0.44408 0.14708 0.0
C1455 C 0.07833 0.37803 0.16291 0.0
H1456 H 0.03407 0.42707 0.17936 0.0
C1457 C 0.07524 0.34346 0.19897 0.0
C1458 C 0.07912 0.37507 0.20475 0.0
C1459 C 0.07191 0.34883 0.19022 0.0
C1460 C 0.0475 0.4139 0.17489 0.0
H1461 H 0.00626 0.33956 0.13361 0.0
H1462 H 0.01735 0.33472 0.14879 0.0
H1463 H 0.02605 0.43546 0.16416 0.0
H1464 H 0.08428 0.43768 0.20602 0.0
H1465 H 0.0809 0.4484 0.19076 0.0
H1466 H 0.10124 0.35768 0.17351 0.0
C1467 C 0.02966 0.36629 0.14593 0.0
C1468 C 0.04256 0.41852 0.16617 0.0
C1469 C 0.02362 0.36921 0.13721 0.0
C1470 C 0.08091 0.41269 0.20166 0.0
C1471 C 0.07854 0.41855 0.19291 0.0
C1472 C 0.08414 0.37417 0.17162 0.0
C1473 C 0.05086 0.40366 0.15092 0.0
C1474 C 0.05756 0.40027 0.16013 0.0
C1475 C 0.0733 0.38641 0.18706 0.0
C1476 C 0.06845 0.39171 0.17775 0.0
H1477 H 0.07388 0.47889 0.1355 0.0
H1478 H 0.08235 0.47336 0.15083 0.0
H1479 H 0.09051 0.36401 0.15834 0.0
H1480 H 0.07344 0.31401 0.20125 0.0
H1481 H 0.06715 0.32295 0.18598 0.0
C1482 C 0.70049 0.74956 0.1996 0.0
C1483 C 0.66871 0.72158 0.20534 0.0
C1484 C 0.69585 0.7407 0.19085 0.0
C1485 C 0.63295 0.65095 0.17543 0.0
H1486 H 0.68159 0.74419 0.15895 0.0
C1487 C 0.60033 0.63064 0.13885 0.0
C1488 C 0.6377 0.64882 0.13373 0.0
C1489 C 0.60326 0.63839 0.14764 0.0
C1490 C 0.66797 0.71789 0.16351 0.0
H1491 H 0.60656 0.66342 0.20649 0.0
H1492 H 0.59718 0.64896 0.19123 0.0
H1493 H 0.68712 0.7609 0.17413 0.0
H1494 H 0.7077 0.68808 0.13405 0.0
H1495 H 0.71227 0.70304 0.14928 0.0
H1496 H 0.61254 0.60813 0.16468 0.0
C1497 C 0.62659 0.67682 0.19343 0.0
C1498 C 0.67136 0.72737 0.17221 0.0
C1499 C 0.6317 0.68523 0.20218 0.0
C1500 C 0.67805 0.67444 0.13769 0.0
C1501 C 0.68082 0.68286 0.14643 0.0
C1502 C 0.62881 0.64154 0.16672 0.0
C1503 C 0.65886 0.7041 0.18764 0.0
C1504 C 0.65421 0.69404 0.17832 0.0
C1505 C 0.64348 0.66508 0.15147 0.0
C1506 C 0.64662 0.67492 0.16069 0.0
H1507 H 0.7295 0.77759 0.20191 0.0
H1508 H 0.72182 0.76211 0.18666 0.0
H1509 H 0.62009 0.62431 0.17989 0.0
H1510 H 0.56863 0.6113 0.13606 0.0
H1511 H 0.57398 0.62449 0.15141 0.0
C1512 C 0.96437 0.35787 0.86829 0.0
C1513 C 0.00192 0.39347 0.87148 0.0
C1514 C 0.9593 0.34962 0.85953 0.0
C1515 C 0.00526 0.39952 0.83836 0.0
H1516 H 0.94221 0.28032 0.83093 0.0
C1517 C 0.96782 0.35655 0.80283 0.0
C1518 C 0.96732 0.31949 0.79976 0.0
C1519 C 0.97061 0.36501 0.81157 0.0
C1520 C 0.96044 0.31381 0.83286 0.0
H1521 H 0.06368 0.44834 0.86813 0.0
H1522 H 0.056 0.43308 0.85286 0.0
H1523 H 0.95159 0.29659 0.84603 0.0
H1524 H 0.9695 0.26223 0.80333 0.0
H1525 H 0.97641 0.27775 0.81859 0.0
H1526 H 0.01642 0.41664 0.8252 0.0
C1527 C 0.02964 0.41218 0.85703 0.0
C1528 C 0.96515 0.32325 0.84157 0.0
C1529 C 0.03426 0.42091 0.86578 0.0
C1530 C 0.96947 0.29085 0.80557 0.0
C1531 C 0.97318 0.29973 0.81432 0.0
C1532 C 0.00126 0.39005 0.82965 0.0
C1533 C 0.99212 0.37626 0.85378 0.0
C1534 C 0.98741 0.36626 0.84446 0.0
C1535 C 0.97393 0.33705 0.81745 0.0
C1536 C 0.97856 0.34706 0.82676 0.0
H1537 H 0.93883 0.33649 0.87258 0.0
H1538 H 0.92948 0.32235 0.85731 0.0
H1539 H 0.02213 0.43306 0.84029 0.0
H1540 H 0.96575 0.37887 0.79845 0.0
H1541 H 0.96993 0.39344 0.81369 0.0
C1542 C 0.67556 0.6805 0.8676 0.0
C1543 C 0.65045 0.64002 0.87154 0.0
C1544 C 0.68438 0.68348 0.85887 0.0
C1545 C 0.64464 0.63112 0.83855 0.0
H1546 H 0.76432 0.69146 0.83131 0.0
C1547 C 0.68984 0.63447 0.80319 0.0
C1548 C 0.72579 0.67184 0.80004 0.0
C1549 C 0.68129 0.62934 0.81193 0.0
C1550 C 0.73069 0.67512 0.83318 0.0
H1551 H 0.61427 0.57092 0.8692 0.0
H1552 H 0.62814 0.57657 0.85387 0.0
H1553 H 0.74696 0.68576 0.84646 0.0
H1554 H 0.781 0.73322 0.80346 0.0
H1555 H 0.76524 0.72547 0.81871 0.0
H1556 H 0.62791 0.62197 0.82535 0.0
C1557 C 0.64133 0.60581 0.85764 0.0
C1558 C 0.72085 0.67165 0.84187 0.0
C1559 C 0.63319 0.60269 0.86642 0.0
C1560 C 0.75329 0.70394 0.80577 0.0
C1561 C 0.74427 0.69926 0.81451 0.0
C1562 C 0.6544 0.63534 0.82985 0.0
C1563 C 0.66752 0.64619 0.85383 0.0
C1564 C 0.67777 0.64955 0.84463 0.0
C1565 C 0.70799 0.66194 0.81773 0.0
C1566 C 0.6976 0.6573 0.82703 0.0
H1567 H 0.68849 0.7101 0.87124 0.0
H1568 H 0.70416 0.71504 0.85604 0.0
H1569 H 0.61115 0.61428 0.84054 0.0
H1570 H 0.6684 0.6091 0.79888 0.0
H1571 H 0.65372 0.59966 0.81413 0.0
C1572 C 0.38874 0.10965 0.80513 0.0
C1573 C 0.36867 0.07212 0.80006 0.0
C1574 C 0.39409 0.10692 0.8139 0.0
C1575 C 0.40845 0.04204 0.82981 0.0
H1576 H 0.36474 0.09192 0.84618 0.0
C1577 C 0.40865 0.01119 0.86598 0.0
C1578 C 0.41291 0.04336 0.87165 0.0
C1579 C 0.40442 0.01556 0.85722 0.0
C1580 C 0.378 0.07851 0.84172 0.0
H1581 H 0.33711 0.00208 0.80047 0.0
H1582 H 0.34841 -0.00217 0.81566 0.0
H1583 H 0.35554 0.0989 0.83097 0.0
H1584 H 0.4178 0.10594 0.8727 0.0
H1585 H 0.41278 0.11487 0.85742 0.0
H1586 H 0.43236 0.0229 0.84043 0.0
C1587 C 0.35992 0.02924 0.81278 0.0
C1588 C 0.37238 0.08231 0.83301 0.0
C1589 C 0.35375 0.03183 0.80406 0.0
C1590 C 0.41415 0.08053 0.86843 0.0
C1591 C 0.41085 0.08536 0.85967 0.0
C1592 C 0.4149 0.03899 0.83851 0.0
C1593 C 0.38024 0.06674 0.81777 0.0
C1594 C 0.38724 0.06381 0.82699 0.0
C1595 C 0.40524 0.05265 0.85393 0.0
C1596 C 0.39947 0.05689 0.84461 0.0
H1597 H 0.40131 0.14131 0.80231 0.0
H1598 H 0.41006 0.13631 0.81763 0.0
H1599 H 0.42056 0.02786 0.82526 0.0
H1600 H 0.40722 0.98206 0.86835 0.0
H1601 H 0.3994 0.98927 0.85307 0.0
C1602 C 0.00636 0.34881 0.53396 0.0
C1603 C 0.98186 0.30838 0.53796 0.0
C1604 C 0.01567 0.3516 0.52525 0.0
C1605 C 0.97745 0.29874 0.50501 0.0
H1606 H 0.09732 0.35873 0.49789 0.0
C1607 C 0.02301 0.30167 0.4697 0.0
C1608 C 0.05909 0.33892 0.46656 0.0
C1609 C 0.01449 0.29652 0.47844 0.0
C1610 C 0.06364 0.34249 0.49972 0.0
H1611 H 0.9474 0.23913 0.53573 0.0
H1612 H 0.96194 0.24443 0.52044 0.0
H1613 H 0.07953 0.35347 0.51302 0.0
H1614 H 0.11463 0.40004 0.46997 0.0
H1615 H 0.09888 0.39236 0.48522 0.0
H1616 H 0.96105 0.28934 0.4918 0.0
C1617 C 0.97431 0.27378 0.52416 0.0
C1618 C 0.05356 0.33926 0.5084 0.0
C1619 C 0.96574 0.27087 0.53291 0.0
C1620 C 0.0868 0.37087 0.47228 0.0
C1621 C 0.07779 0.36622 0.48103 0.0
C1622 C 0.98743 0.30275 0.49632 0.0
C1623 C -0.00014 0.31413 0.52029 0.0
C1624 C 0.01041 0.31728 0.51111 0.0
C1625 C 0.04131 0.32905 0.48424 0.0
C1626 C 0.03072 0.32458 0.49353 0.0
H1627 H 0.01843 0.37852 0.53753 0.0
H1628 H 0.03496 0.38311 0.52237 0.0
H1629 H 0.94391 0.28198 0.50696 0.0
H1630 H 0.00141 0.27646 0.46538 0.0
H1631 H 0.98678 0.26695 0.48063 0.0
C1632 C 0.68374 0.69826 0.47078 0.0
C1633 C 0.69841 0.73883 0.46692 0.0
C1634 C 0.68953 0.695 0.4795 0.0
C1635 C 0.70002 0.74592 0.49989 0.0
H1636 H 0.76167 0.68798 0.50716 0.0
C1637 C 0.74115 0.74287 0.53528 0.0
C1638 C 0.74065 0.70593 0.53842 0.0
C1639 C 0.73791 0.74805 0.52654 0.0
C1640 C 0.74373 0.70362 0.50528 0.0
H1641 H 0.73025 0.80778 0.46941 0.0
H1642 H 0.73829 0.80157 0.48471 0.0
H1643 H 0.75034 0.69381 0.492 0.0
H1644 H 0.73639 0.6454 0.53499 0.0
H1645 H 0.72866 0.65317 0.51973 0.0
H1646 H 0.69146 0.75421 0.51308 0.0
C1647 C 0.72281 0.77251 0.48088 0.0
C1648 C 0.73755 0.70718 0.49659 0.0
C1649 C 0.71786 0.77592 0.47212 0.0
C1650 C 0.7372 0.67433 0.53268 0.0
C1651 C 0.73302 0.67902 0.52394 0.0
C1652 C 0.70537 0.7416 0.50859 0.0
C1653 C 0.7092 0.73207 0.48461 0.0
C1654 C 0.71577 0.72847 0.49382 0.0
C1655 C 0.7331 0.7159 0.52073 0.0
C1656 C 0.72747 0.72052 0.51143 0.0
H1657 H 0.66759 0.66881 0.46709 0.0
H1658 H 0.67824 0.66341 0.48227 0.0
H1659 H 0.68274 0.76211 0.49789 0.0
H1660 H 0.7442 0.76787 0.53961 0.0
H1661 H 0.73928 0.7774 0.52435 0.0
C1662 C 0.29638 0.02181 0.46979 0.0
C1663 C 0.29846 0.98632 0.46657 0.0
C1664 C 0.29998 0.0302 0.47854 0.0
C1665 C 0.29844 0.98122 0.49972 0.0
H1666 H 0.35664 0.10079 0.50704 0.0
C1667 C 0.36028 0.03669 0.53406 0.0
C1668 C 0.34557 0.06231 0.53802 0.0
C1669 C 0.35389 0.02758 0.52535 0.0
C1670 C 0.34013 0.06728 0.50507 0.0
H1671 H 0.30587 0.93171 0.46988 0.0
H1672 H 0.31413 0.94719 0.48514 0.0
H1673 H 0.34662 0.08389 0.49187 0.0
H1674 H 0.31308 0.09897 0.53573 0.0
H1675 H 0.30385 0.08456 0.52043 0.0
H1676 H 0.29384 0.96508 0.51299 0.0
C1677 C 0.30828 0.96791 0.48099 0.0
C1678 C 0.33404 0.05744 0.49637 0.0
C1679 C 0.30377 0.95905 0.47224 0.0
C1680 C 0.3255 0.0797 0.53294 0.0
C1681 C 0.31988 0.07124 0.52418 0.0
C1682 C 0.30532 0.99114 0.5084 0.0
C1683 C 0.30672 0.00381 0.48427 0.0
C1684 C 0.31297 0.01424 0.49356 0.0
C1685 C 0.3335 0.04462 0.52034 0.0
C1686 C 0.32613 0.03423 0.51115 0.0
H1687 H 0.29189 0.04306 0.46552 0.0
H1688 H 0.29745 0.05744 0.48079 0.0
H1689 H 0.28133 0.94758 0.49786 0.0
H1690 H 0.37689 0.0236 0.53768 0.0
H1691 H 0.36523 0.00747 0.5225 0.0
C1692 C 0.57073 0.47022 0.07959 0.0
C1693 C 0.58282 0.49325 0.08731 0.0
C1694 C 0.54572 0.42536 0.07959 0.0
C1695 C 0.46965 0.33432 0.09307 0.0
H1696 H 0.49017 0.26656 0.07641 0.0
C1697 C 0.40358 0.15037 0.09473 0.0
C1698 C 0.39586 0.12801 0.08696 0.0
C1699 C 0.41759 0.19447 0.09476 0.0
C1700 C 0.48346 0.28508 0.081 0.0
H1701 H 0.57967 0.48712 0.10109 0.0
H1702 H 0.5369 0.40844 0.10109 0.0
H1703 H 0.53694 0.34434 0.0767 0.0
H1704 H 0.39085 0.13281 0.07326 0.0
H1705 H 0.41474 0.20958 0.07335 0.0
H1706 H 0.41676 0.27442 0.09751 0.0
C1707 C 0.54595 0.42528 0.09504 0.0
C1708 C 0.51042 0.32968 0.08119 0.0
C1709 C 0.5709 0.4703 0.09504 0.0
C1710 C 0.39724 0.14929 0.07934 0.0
C1711 C 0.41119 0.19331 0.07938 0.0
C1712 C 0.44275 0.2895 0.09291 0.0
C1713 C 0.53243 0.4024 0.08731 0.0
C1714 C 0.50393 0.35485 0.08723 0.0
C1715 C 0.42388 0.21676 0.08704 0.0
C1716 C 0.44943 0.26448 0.08687 0.0
H1717 H 0.57915 0.48689 0.07352 0.0
H1718 H 0.53554 0.40882 0.07353 0.0
H1719 H 0.46338 0.35291 0.09772 0.0
H1720 H 0.40247 0.13481 0.10072 0.0
H1721 H 0.42697 0.21168 0.10077 0.0
C1722 C 0.5736 0.14079 0.08269 0.0
C1723 C 0.54903 0.10663 0.08828 0.0
C1724 C 0.61859 0.16034 0.08266 0.0
C1725 C 0.711 0.1647 0.09491 0.0
H1726 H 0.77188 0.21848 0.07402 0.0
C1727 C 0.89218 0.28393 0.09465 0.0
C1728 C 0.91545 0.29432 0.08697 0.0
C1729 C 0.84848 0.25309 0.09481 0.0
C1730 C 0.75561 0.2027 0.07987 0.0
H1731 H 0.5515 0.06528 0.09808 0.0
H1732 H 0.62917 0.09701 0.09766 0.0
H1733 H 0.69408 0.18163 0.07422 0.0
H1734 H 0.91256 0.277 0.07365 0.0
H1735 H 0.83681 0.22075 0.07404 0.0
H1736 H 0.77227 0.18298 0.10039 0.0
C1737 C 0.61468 0.11074 0.0936 0.0
C1738 C 0.71063 0.18242 0.08005 0.0
C1739 C 0.56994 0.09231 0.09384 0.0
C1740 C 0.89526 0.27001 0.07965 0.0
C1741 C 0.85162 0.23819 0.07986 0.0
C1742 C 0.75583 0.18366 0.09465 0.0
C1743 C 0.6398 0.14497 0.08798 0.0
C1744 C 0.68766 0.16418 0.08764 0.0
C1745 C 0.82707 0.23089 0.08734 0.0
C1746 C 0.77899 0.20424 0.08721 0.0
H1747 H 0.558 0.15221 0.07833 0.0
H1748 H 0.63654 0.18737 0.07841 0.0
H1749 H 0.695 0.15152 0.10093 0.0
H1750 H 0.90671 0.30207 0.10042 0.0
H1751 H 0.83115 0.24915 0.1007 0.0
C1752 C 0.77248 0.64908 0.09436 0.0
C1753 C 0.7533 0.64875 0.08651 0.0
C1754 C 0.80366 0.63655 0.0948 0.0
C1755 C 0.87227 0.60666 0.08195 0.0
H1756 H 0.83885 0.51768 0.09918 0.0
C1757 C 0.92992 0.48212 0.09538 0.0
C1758 C 0.93711 0.46754 0.08756 0.0
C1759 C 0.9107 0.50781 0.09559 0.0
C1760 C 0.84907 0.54283 0.09441 0.0
H1761 H 0.75544 0.64 0.07286 0.0
H1762 H 0.80949 0.61794 0.07364 0.0
H1763 H 0.8052 0.56223 0.09902 0.0
H1764 H 0.92825 0.46714 0.07386 0.0
H1765 H 0.89391 0.51117 0.07426 0.0
H1766 H 0.91548 0.58641 0.07723 0.0
C1767 C 0.80046 0.6277 0.07946 0.0
C1768 C 0.82994 0.56857 0.09434 0.0
C1769 C 0.76934 0.64031 0.07902 0.0
C1770 C 0.92323 0.47787 0.07999 0.0
C1771 C 0.90401 0.50354 0.08021 0.0
C1772 C 0.89145 0.58089 0.08202 0.0
C1773 C 0.81625 0.62353 0.0874 0.0
C1774 C 0.84086 0.60037 0.08804 0.0
C1775 C 0.89825 0.51943 0.088 0.0
C1776 C 0.87953 0.54824 0.08817 0.0
H1777 H 0.76124 0.65595 0.10025 0.0
H1778 H 0.81609 0.63469 0.10098 0.0
H1779 H 0.88163 0.63114 0.07707 0.0
H1780 H 0.94048 0.47496 0.10132 0.0
H1781 H 0.90688 0.51971 0.10169 0.0
C1782 C 0.46996 0.56985 0.91012 0.0
C1783 C 0.49289 0.58191 0.91785 0.0
C1784 C 0.42493 0.54483 0.91012 0.0
C1785 C 0.32935 0.50993 0.92394 0.0
H1786 H 0.27354 0.41635 0.90762 0.0
C1787 C 0.14849 0.39861 0.92565 0.0
C1788 C 0.12748 0.39716 0.91798 0.0
C1789 C 0.19242 0.41207 0.92567 0.0
C1790 C 0.28876 0.44232 0.91222 0.0
H1791 H 0.48647 0.57821 0.93164 0.0
H1792 H 0.40838 0.53449 0.93162 0.0
H1793 H 0.35213 0.46235 0.90745 0.0
H1794 H 0.13465 0.40318 0.90422 0.0
H1795 H 0.21134 0.42686 0.90428 0.0
H1796 H 0.26629 0.49034 0.92867 0.0
C1797 C 0.42496 0.54464 0.92556 0.0
C1798 C 0.33366 0.46886 0.91208 0.0
C1799 C 0.46982 0.56971 0.92556 0.0
C1800 C 0.14998 0.40432 0.91025 0.0
C1801 C 0.194 0.41788 0.91027 0.0
C1802 C 0.28467 0.48334 0.9241 0.0
C1803 C 0.402 0.53136 0.91784 0.0
C1804 C 0.35439 0.50311 0.91791 0.0
C1805 C 0.21607 0.42425 0.91802 0.0
C1806 C 0.26385 0.44936 0.91824 0.0
H1807 H 0.48681 0.57868 0.90407 0.0
H1808 H 0.4081 0.53576 0.90407 0.0
H1809 H 0.34416 0.53644 0.92842 0.0
H1810 H 0.1319 0.39265 0.93171 0.0
H1811 H 0.20849 0.41566 0.93172 0.0
C1812 C 0.47732 0.92714 0.90949 0.0
C1813 C 0.46267 0.93455 0.91728 0.0
C1814 C 0.50289 0.90778 0.90934 0.0
C1815 C 0.57599 0.88953 0.92308 0.0
H1816 H 0.55906 0.80361 0.90614 0.0
C1817 C 0.63767 0.76934 0.92624 0.0
C1818 C 0.64679 0.75375 0.91876 0.0
C1819 C 0.62449 0.8 0.92578 0.0
C1820 C 0.56489 0.82826 0.9108 0.0
H1821 H 0.46168 0.92564 0.93098 0.0
H1822 H 0.50548 0.89105 0.9307 0.0
H1823 H 0.51356 0.83623 0.90588 0.0
H1824 H 0.65467 0.76212 0.90505 0.0
H1825 H 0.63237 0.81616 0.90427 0.0
H1826 H 0.62669 0.88067 0.92812 0.0
C1827 C 0.49806 0.90113 0.92472 0.0
C1828 C 0.53862 0.84678 0.91068 0.0
C1829 C 0.47253 0.92049 0.92488 0.0
C1830 C 0.64725 0.773 0.91092 0.0
C1831 C 0.63415 0.80371 0.91046 0.0
C1832 C 0.60229 0.87095 0.92321 0.0
C1833 C 0.51428 0.89541 0.91698 0.0
C1834 C 0.54344 0.87713 0.91689 0.0
C1835 C 0.62043 0.81577 0.91783 0.0
C1836 C 0.59663 0.83971 0.91713 0.0
H1837 H 0.47048 0.93779 0.90352 0.0
H1838 H 0.51502 0.90395 0.90327 0.0
H1839 H 0.58107 0.91351 0.92785 0.0
H1840 H 0.63726 0.75537 0.9324 0.0
H1841 H 0.6142 0.80866 0.93158 0.0
C1842 C 0.2731 0.89868 0.91006 0.0
C1843 C 0.29097 0.91739 0.91799 0.0
C1844 C 0.24238 0.85489 0.90951 0.0
C1845 C 0.17313 0.75573 0.92213 0.0
H1846 H 0.21074 0.7018 0.90534 0.0
C1847 C 0.11991 0.57442 0.909 0.0
C1848 C 0.11197 0.55282 0.91685 0.0
C1849 C 0.13902 0.6193 0.90873 0.0
C1850 C 0.1994 0.71629 0.90998 0.0
H1851 H 0.28681 0.90616 0.93165 0.0
H1852 H 0.2336 0.82991 0.93068 0.0
H1853 H 0.24287 0.77987 0.90547 0.0
H1854 H 0.11979 0.56154 0.93057 0.0
H1855 H 0.1539 0.63986 0.93008 0.0
H1856 H 0.13038 0.69201 0.92676 0.0
C1857 C 0.24331 0.84886 0.92487 0.0
C1858 C 0.21762 0.76105 0.91003 0.0
C1859 C 0.27396 0.89266 0.92543 0.0
C1860 C 0.12535 0.57717 0.92441 0.0
C1861 C 0.14443 0.62201 0.92414 0.0
C1862 C 0.1549 0.71092 0.92208 0.0
C1863 C 0.22895 0.82907 0.91687 0.0
C1864 C 0.20517 0.78134 0.91618 0.0
C1865 C 0.15058 0.64346 0.91632 0.0
C1866 C 0.16839 0.69081 0.9161 0.0
H1867 H 0.28509 0.91699 0.90421 0.0
H1868 H 0.23103 0.84071 0.90327 0.0
H1869 H 0.16259 0.77039 0.92689 0.0
H1870 H 0.1098 0.55659 0.90306 0.0
H1871 H 0.14325 0.63491 0.90261 0.0
C1872 C 0.24672 0.80537 0.41334 0.0
C1873 C 0.2548 0.8289 0.42096 0.0
C1874 C 0.22205 0.76044 0.41341 0.0
C1875 C 0.17971 0.66489 0.42732 0.0
H1876 H 0.09334 0.61185 0.40953 0.0
C1877 C 0.0676 0.48303 0.42703 0.0
C1878 C 0.06825 0.46374 0.41926 0.0
C1879 C 0.08201 0.52712 0.42741 0.0
C1880 C 0.11729 0.62623 0.41453 0.0
H1881 H 0.24516 0.82366 0.43466 0.0
H1882 H 0.20207 0.74518 0.43477 0.0
H1883 H 0.13964 0.69019 0.40989 0.0
H1884 H 0.07974 0.47444 0.40566 0.0
H1885 H 0.10507 0.55135 0.40634 0.0
H1886 H 0.15799 0.60104 0.43188 0.0
C1887 C 0.21489 0.76149 0.42875 0.0
C1888 C 0.14397 0.671 0.41471 0.0
C1889 C 0.23963 0.80646 0.42869 0.0
C1890 C 0.07911 0.4884 0.41175 0.0
C1891 C 0.0936 0.53254 0.41214 0.0
C1892 C 0.15303 0.62018 0.42714 0.0
C1893 C 0.20494 0.73811 0.42108 0.0
C1894 C 0.17583 0.69073 0.42105 0.0
C1895 C 0.09724 0.55267 0.42003 0.0
C1896 C 0.12185 0.60033 0.4207 0.0
H1897 H 0.25811 0.82168 0.40728 0.0
H1898 H 0.21575 0.74321 0.40742 0.0
H1899 H 0.20422 0.67909 0.43222 0.0
H1900 H 0.05884 0.46476 0.43292 0.0
H1901 H 0.08348 0.54165 0.43355 0.0
C1902 C 0.5565 0.62028 0.41124 0.0
C1903 C 0.58196 0.63031 0.41862 0.0
C1904 C 0.51312 0.58838 0.41141 0.0
C1905 C 0.42435 0.53333 0.42712 0.0
H1906 H 0.35992 0.481 0.40648 0.0
C1907 C 0.24043 0.46598 0.4256 0.0
C1908 C 0.21591 0.43261 0.41985 0.0
C1909 C 0.2855 0.48573 0.42559 0.0
C1910 C 0.37704 0.49444 0.41239 0.0
H1911 H 0.58325 0.6116 0.43171 0.0
H1912 H 0.50806 0.55387 0.43188 0.0
H1913 H 0.43755 0.51605 0.40623 0.0
H1914 H 0.21851 0.3921 0.40987 0.0
H1915 H 0.29621 0.42409 0.41022 0.0
H1916 H 0.3637 0.50935 0.4334 0.0
C1917 C 0.52095 0.57217 0.42607 0.0
C1918 C 0.42202 0.51545 0.4122 0.0
C1919 C 0.56426 0.60487 0.42594 0.0
C1920 C 0.23689 0.41859 0.41423 0.0
C1921 C 0.28163 0.4372 0.41442 0.0
C1922 C 0.37926 0.51114 0.42737 0.0
C1923 C 0.49424 0.56487 0.41892 0.0
C1924 C 0.44643 0.53643 0.41948 0.0
C1925 C 0.3068 0.4714 0.42003 0.0
C1926 C 0.35489 0.49234 0.41996 0.0
H1927 H 0.56905 0.63929 0.40548 0.0
H1928 H 0.49397 0.58444 0.40579 0.0
H1929 H 0.44168 0.54934 0.43287 0.0
H1930 H 0.2248 0.47715 0.43001 0.0
H1931 H 0.30347 0.5125 0.42989 0.0
C1932 C 0.59292 0.81596 0.42933 0.0
C1933 C 0.60077 0.80272 0.42142 0.0
C1934 C 0.57495 0.84275 0.42971 0.0
C1935 C 0.5615 0.92097 0.4166 0.0
H1936 H 0.47291 0.90167 0.43308 0.0
C1937 C 0.44072 0.98102 0.41295 0.0
C1938 C 0.42287 0.98804 0.42035 0.0
C1939 C 0.47241 0.96928 0.4136 0.0
C1940 C 0.49838 0.90821 0.42856 0.0
H1941 H 0.59397 0.80546 0.40772 0.0
H1942 H 0.56171 0.85128 0.40839 0.0
H1943 H 0.50461 0.85538 0.43318 0.0
H1944 H 0.42848 0.99425 0.43412 0.0
H1945 H 0.48426 0.9744 0.43522 0.0
H1946 H 0.5542 0.97305 0.41181 0.0
C1947 C 0.57047 0.84189 0.41429 0.0
C1948 C 0.51636 0.88147 0.4286 0.0
C1949 C 0.58845 0.81518 0.41392 0.0
C1950 C 0.44107 0.98834 0.42831 0.0
C1951 C 0.47281 0.97667 0.42895 0.0
C1952 C 0.54346 0.94773 0.41655 0.0
C1953 C 0.56442 0.85675 0.42218 0.0
C1954 C 0.54747 0.88699 0.42251 0.0
C1955 C 0.48694 0.96461 0.42164 0.0
C1956 C 0.51113 0.94112 0.42244 0.0
H1957 H 0.6023 0.80716 0.43523 0.0
H1958 H 0.57077 0.85374 0.43588 0.0
H1959 H 0.58613 0.9266 0.41194 0.0
H1960 H 0.42768 0.9809 0.40671 0.0
H1961 H 0.48268 0.9603 0.40784 0.0
C1962 C 0.81044 0.72608 0.24452 0.0
C1963 C 0.79189 0.72715 0.25236 0.0
C1964 C 0.85414 0.73874 0.24406 0.0
C1965 C 0.95347 0.77089 0.25674 0.0
H1966 H 0.0068 0.86009 0.23948 0.0
C1967 C 0.13417 0.89784 0.24304 0.0
C1968 C 0.15626 0.91215 0.25083 0.0
C1969 C 0.08931 0.87183 0.2429 0.0
C1970 C 0.99251 0.83489 0.24425 0.0
H1971 H 0.8032 0.737 0.26598 0.0
H1972 H 0.87937 0.75925 0.26515 0.0
H1973 H 0.92879 0.81407 0.23973 0.0
H1974 H 0.14842 0.91214 0.26456 0.0
H1975 H 0.07009 0.86769 0.26428 0.0
H1976 H 0.01735 0.79244 0.26135 0.0
C1977 C 0.86033 0.74889 0.25936 0.0
C1978 C 0.94777 0.80832 0.24438 0.0
C1979 C 0.8166 0.73618 0.25984 0.0
C1980 C 0.13239 0.90155 0.25845 0.0
C1981 C 0.08755 0.87564 0.2583 0.0
C1982 C -0.0017 0.79744 0.2566 0.0
C1983 C 0.88001 0.75257 0.25141 0.0
C1984 C 0.9277 0.77644 0.25069 0.0
C1985 C 0.0656 0.85972 0.25054 0.0
C1986 C 0.01823 0.83019 0.25044 0.0
H1987 H 0.79211 0.71867 0.23865 0.0
H1988 H 0.86828 0.74024 0.23787 0.0
H1989 H 0.93892 0.74639 0.26164 0.0
H1990 H 0.15163 0.90522 0.23706 0.0
H1991 H 0.07337 0.85995 0.23682 0.0
C1992 C 0.29698 0.09584 0.25989 0.0
C1993 C 0.31073 0.08412 0.25249 0.0
C1994 C 0.2855 0.1277 0.25959 0.0
C1995 C 0.2477 0.17839 0.24374 0.0
H1996 H 0.23926 0.23485 0.2641 0.0
C1997 C 0.12894 0.24303 0.24562 0.0
C1998 C 0.13847 0.27738 0.25115 0.0
C1999 C 0.155 0.22409 0.24554 0.0
C2000 C 0.24189 0.22025 0.25826 0.0
H2001 H 0.32803 0.09999 0.2392 0.0
H2002 H 0.31054 0.15768 0.23878 0.0
H2003 H 0.28293 0.20099 0.26431 0.0
H2004 H 0.18352 0.32061 0.26059 0.0
H2005 H 0.23042 0.29006 0.26007 0.0
H2006 H 0.20881 0.19998 0.23754 0.0
C2007 C 0.30641 0.14068 0.24473 0.0
C2008 C 0.2665 0.19993 0.25844 0.0
C2009 C 0.31703 0.10801 0.24499 0.0
C2010 C 0.17489 0.2933 0.25643 0.0
C2011 C 0.20171 0.27552 0.25614 0.0
C2012 C 0.22414 0.1999 0.24348 0.0
C2013 C 0.28846 0.14948 0.25192 0.0
C2014 C 0.26861 0.17744 0.25128 0.0
C2015 C 0.19199 0.24026 0.25078 0.0
C2016 C 0.21986 0.22014 0.25081 0.0
H2017 H 0.29172 0.07808 0.26579 0.0
H2018 H 0.27147 0.13287 0.26526 0.0
H2019 H 0.24798 0.16116 0.23809 0.0
H2020 H 0.10107 0.23049 0.24145 0.0
H2021 H 0.14572 0.19651 0.24144 0.0
C2022 C 0.78478 0.90471 0.24286 0.0
C2023 C 0.77724 0.88297 0.25069 0.0
C2024 C 0.80454 0.94965 0.24264 0.0
C2025 C 0.82355 0.04164 0.25623 0.0
H2026 H 0.90949 0.10976 0.23923 0.0
C2027 C 0.94421 0.22345 0.25918 0.0
C2028 C 0.9593 0.248 0.25167 0.0
C2029 C 0.91375 0.17954 0.25877 0.0
C2030 C 0.88484 0.09117 0.24391 0.0
H2031 H 0.78646 0.89142 0.26438 0.0
H2032 H 0.82176 0.9698 0.26396 0.0
H2033 H 0.87644 0.03158 0.23906 0.0
H2034 H 0.95047 0.24707 0.23796 0.0
H2035 H 0.89684 0.17058 0.23728 0.0
H2036 H 0.83284 0.10147 0.2612 0.0
C2037 C 0.81143 0.95206 0.25802 0.0
C2038 C 0.86608 0.04636 0.24384 0.0
C2039 C 0.79165 0.90718 0.25825 0.0
C2040 C 0.93995 0.2289 0.24386 0.0
C2041 C 0.90946 0.18502 0.24345 0.0
C2042 C 0.84237 0.08651 0.25631 0.0
C2043 C 0.8172 0.97371 0.25023 0.0
C2044 C 0.83572 0.02116 0.25007 0.0
C2045 C 0.89772 0.15949 0.25085 0.0
C2046 C 0.87363 0.11178 0.25022 0.0
H2047 H 0.77385 0.88698 0.23693 0.0
H2048 H 0.80842 0.9654 0.23654 0.0
H2049 H 0.79955 0.02298 0.26102 0.0
H2050 H 0.95829 0.23726 0.26531 0.0
H2051 H 0.90534 0.16076 0.26459 0.0
C2052 C 0.72407 0.81235 0.76032 0.0
C2053 C 0.72956 0.79463 0.75276 0.0
C2054 C 0.73452 0.8556 0.7606 0.0
C2055 C 0.77258 0.95437 0.74684 0.0
H2056 H 0.83333 0.01267 0.76747 0.0
C2057 C 0.86557 0.13939 0.74855 0.0
C2058 C 0.90274 0.15987 0.75363 0.0
C2059 C 0.83849 0.09486 0.74895 0.0
C2060 C 0.81712 -0.00291 0.7616 0.0
H2061 H 0.74672 0.80723 0.73937 0.0
H2062 H 0.76666 0.88216 0.73991 0.0
H2063 H 0.7938 0.93467 0.76703 0.0
H2064 H 0.9412 0.15043 0.76309 0.0
H2065 H 0.89604 0.07187 0.76328 0.0
H2066 H 0.79928 0.01633 0.74112 0.0
C2067 C 0.75345 0.86313 0.74563 0.0
C2068 C 0.79337 0.95203 0.76141 0.0
C2069 C 0.74216 0.81984 0.74532 0.0
C2070 C 0.91275 0.13511 0.75908 0.0
C2071 C 0.8864 0.09016 0.75926 0.0
C2072 C 0.79738 -0.00072 0.74694 0.0
C2073 C 0.75146 0.88215 0.75335 0.0
C2074 C 0.77139 0.92996 0.75397 0.0
C2075 C 0.84868 0.06935 0.75422 0.0
C2076 C 0.82052 0.0214 0.75429 0.0
H2077 H 0.71395 0.79354 0.76614 0.0
H2078 H 0.73113 0.8686 0.76659 0.0
H2079 H 0.75532 0.93884 0.74105 0.0
H2080 H 0.85658 0.15806 0.74447 0.0
H2081 H 0.80925 0.08073 0.74518 0.0
C2082 C 0.23113 0.93791 0.76069 0.0
C2083 C 0.24977 0.95728 0.75285 0.0
C2084 C 0.18734 0.90719 0.76117 0.0
C2085 C 0.08788 0.8405 0.74849 0.0
H2086 H 0.03501 0.877 0.76573 0.0
C2087 C 0.90741 0.78723 0.76217 0.0
C2088 C 0.88539 0.77956 0.75437 0.0
C2089 C 0.95229 0.80621 0.76232 0.0
C2090 C 0.04919 0.86594 0.76096 0.0
H2091 H 0.23849 0.9557 0.73922 0.0
H2092 H 0.16217 0.90237 0.74006 0.0
H2093 H 0.113 0.90853 0.76548 0.0
H2094 H 0.89334 0.78787 0.74065 0.0
H2095 H 0.97168 0.82191 0.74095 0.0
H2096 H 0.02393 0.79853 0.74388 0.0
C2097 C 0.1812 0.91097 0.74585 0.0
C2098 C 0.09389 0.88383 0.76084 0.0
C2099 C 0.22503 0.94166 0.74537 0.0
C2100 C 0.90932 0.79319 0.74676 0.0
C2101 C 0.95416 0.81222 0.74692 0.0
C2102 C 0.0431 0.82254 0.74863 0.0
C2103 C 0.16148 0.89524 0.75381 0.0
C2104 C 0.11379 0.87176 0.75454 0.0
C2105 C 0.97603 0.818 0.75468 0.0
C2106 C 0.02336 0.83561 0.75478 0.0
H2107 H 0.24949 0.94879 0.76656 0.0
H2108 H 0.17316 0.89475 0.76736 0.0
H2109 H 0.10229 0.83036 0.7436 0.0
H2110 H 0.8899 0.7769 0.76813 0.0
H2111 H 0.9682 0.81013 0.7684 0.0
C2112 C 0.25901 0.14354 0.76187 0.0
C2113 C 0.26621 0.12845 0.75412 0.0
C2114 C 0.23914 0.16865 0.76196 0.0
C2115 C 0.21837 0.23936 0.74799 0.0
H2116 H 0.13378 0.22329 0.76518 0.0
C2117 C 0.09644 0.29915 0.74498 0.0
C2118 C 0.08222 0.30969 0.75248 0.0
C2119 C 0.12706 0.28588 0.74538 0.0
C2120 C 0.15803 0.22884 0.76043 0.0
H2121 H 0.2564 0.12613 0.74043 0.0
H2122 H 0.22084 0.16901 0.74062 0.0
H2123 H 0.16736 0.17867 0.76552 0.0
H2124 H 0.09271 0.31965 0.76612 0.0
H2125 H 0.14657 0.29707 0.76678 0.0
H2126 H 0.20806 0.28885 0.74278 0.0
C2127 C 0.23153 0.16238 0.7466 0.0
C2128 C 0.17712 0.2031 0.76061 0.0
C2129 C 0.25146 0.13739 0.74651 0.0
C2130 C 0.10254 0.31114 0.76024 0.0
C2131 C 0.13317 0.29792 0.76064 0.0
C2132 C 0.19918 0.26508 0.7478 0.0
C2133 C 0.22598 0.17905 0.75431 0.0
C2134 C 0.20705 0.20765 0.75433 0.0
C2135 C 0.14409 0.28309 0.75328 0.0
C2136 C 0.16843 0.25973 0.75397 0.0
H2137 H 0.27024 0.13745 0.76784 0.0
H2138 H 0.23549 0.18116 0.768 0.0
H2139 H 0.242 0.24423 0.74315 0.0
H2140 H 0.08159 0.29792 0.73889 0.0
H2141 H 0.13483 0.27468 0.73959 0.0
C2142 C 0.48483 0.07873 0.5937 0.0
C2143 C 0.45944 0.06429 0.5863 0.0
C2144 C 0.52812 0.0899 0.59347 0.0
C2145 C 0.61641 0.12601 0.57765 0.0
H2146 H 0.6817 0.13639 0.59808 0.0
C2147 C 0.79972 0.24519 0.57934 0.0
C2148 C 0.82472 0.23582 0.58486 0.0
C2149 C 0.75471 0.21915 0.57933 0.0
C2150 C 0.66432 0.13321 0.59223 0.0
H2151 H 0.45795 0.04525 0.57313 0.0
H2152 H 0.53297 0.06223 0.57286 0.0
H2153 H 0.6041 0.09278 0.59836 0.0
H2154 H 0.82309 0.19107 0.59437 0.0
H2155 H 0.7456 0.14434 0.59397 0.0
H2156 H 0.67681 0.16445 0.57139 0.0
C2157 C 0.52014 0.06715 0.57873 0.0
C2158 C 0.61939 0.10862 0.59244 0.0
C2159 C 0.47693 0.05683 0.57891 0.0
C2160 C 0.80433 0.19961 0.5902 0.0
C2161 C 0.75971 0.17286 0.58999 0.0
C2162 C 0.66146 0.14961 0.57737 0.0
C2163 C 0.5469 0.08595 0.58589 0.0
C2164 C 0.59469 0.10578 0.58524 0.0
C2165 C 0.73406 0.1824 0.58463 0.0
C2166 C 0.68609 0.15455 0.58471 0.0
H2167 H 0.47239 0.08488 0.59951 0.0
H2168 H 0.54736 0.10455 0.59912 0.0
H2169 H 0.5988 0.12518 0.57198 0.0
H2170 H 0.8149 0.27289 0.57514 0.0
H2171 H 0.73627 0.22824 0.57522 0.0
C2172 C 0.98122 0.44139 0.57969 0.0
C2173 C 0.97256 0.41455 0.58682 0.0
C2174 C 0.96926 0.47309 0.57966 0.0
C2175 C 0.92193 0.52482 0.59351 0.0
H2176 H 0.87414 0.53459 0.57201 0.0
C2177 C 0.83602 0.62356 0.59112 0.0
C2178 C 0.80206 0.61072 0.58528 0.0
C2179 C 0.86149 0.60426 0.59107 0.0
C2180 C 0.88667 0.53174 0.57811 0.0
H2181 H 0.94726 0.40172 0.59971 0.0
H2182 H 0.92472 0.45496 0.59955 0.0
H2183 H 0.91256 0.49499 0.57262 0.0
H2184 H 0.7676 0.56755 0.57486 0.0
H2185 H 0.80988 0.53103 0.57518 0.0
H2186 H 0.89272 0.55792 0.59918 0.0
C2187 C 0.94174 0.4529 0.59403 0.0
C2188 C 0.90978 0.50979 0.57842 0.0
C2189 C 0.95457 0.422 0.59412 0.0
C2190 C 0.79358 0.57779 0.57944 0.0
C2191 C 0.81827 0.55737 0.57957 0.0
C2192 C 0.8978 0.54562 0.59325 0.0
C2193 C 0.94753 0.4779 0.58669 0.0
C2194 C 0.92731 0.50554 0.58615 0.0
C2195 C 0.85283 0.57055 0.58536 0.0
C2196 C 0.8795 0.54917 0.58556 0.0
H2197 H -0.00457 0.43661 0.57399 0.0
H2198 H 0.97557 0.49262 0.57399 0.0
H2199 H 0.93562 0.52318 0.59956 0.0
H2200 H 0.8439 0.64969 0.59556 0.0
H2201 H 0.88845 0.61649 0.59545 0.0
C2202 C 0.45335 0.24298 0.57645 0.0
C2203 C 0.44588 0.22057 0.58419 0.0
C2204 C 0.47276 0.2879 0.5764 0.0
C2205 C 0.49118 0.37842 0.59043 0.0
H2206 H 0.57538 0.44838 0.5733 0.0
C2207 C 0.61115 0.56055 0.59347 0.0
C2208 C 0.62508 0.58523 0.58596 0.0
C2209 C 0.58066 0.51662 0.59308 0.0
C2210 C 0.55121 0.42925 0.57802 0.0
H2211 H 0.455 0.22778 0.5979 0.0
H2212 H 0.48987 0.30616 0.59777 0.0
H2213 H 0.54343 0.37037 0.57293 0.0
H2214 H 0.61397 0.58467 0.57234 0.0
H2215 H 0.56038 0.50817 0.57171 0.0
H2216 H 0.50004 0.43766 0.59565 0.0
C2217 C 0.47965 0.28897 0.59177 0.0
C2218 C 0.53307 0.38453 0.57783 0.0
C2219 C 0.46014 0.24409 0.59183 0.0
C2220 C 0.6044 0.56635 0.57822 0.0
C2221 C 0.57391 0.52249 0.57785 0.0
C2222 C 0.50946 0.42323 0.59064 0.0
C2223 C 0.48523 0.31127 0.58408 0.0
C2224 C 0.50329 0.35867 0.58409 0.0
C2225 C 0.56352 0.49677 0.5852 0.0
C2226 C 0.54002 0.44912 0.58449 0.0
H2227 H 0.44249 0.22577 0.57046 0.0
H2228 H 0.47645 0.30413 0.57036 0.0
H2229 H 0.46762 0.35926 0.59524 0.0
H2230 H 0.62628 0.5742 0.59954 0.0
H2231 H 0.57324 0.49765 0.59887 0.0
loop_
_geom_bond_atom_site_label_1
_geom_bond_atom_site_label_2
_geom_bond_distance
_geom_bond_site_symmetry_2
_ccdc_geom_bond_type
C0 O16 1.251 . S
C0 O18 1.254 . S
N1 C2 1.331 . S
N1 C6 1.307 . S
N1 Zn7 2.020 . S
C2 N1 1.331 . S
C2 C3 1.380 1_545 S
C2 H20 0.953 1_545 S
C3 C2 1.380 1_565 S
C3 C4 1.390 1_565 S
C3 H30 0.949 . S
C4 C3 1.390 1_545 S
C4 C5 1.357 . S
C5 C4 1.357 . S
C5 C6 1.370 . S
C5 H31 0.950 . S
C6 N1 1.307 . S
C6 C5 1.370 . S
C6 H24 0.948 . S
Zn7 N1 2.020 . S
Zn7 O16 2.039 1_545 S
Zn7 O22 2.034 . S
Zn7 O26 2.025 . S
Zn7 O28 2.024 1_545 S
C8 O27 1.246 . S
C8 O28 1.249 . S
N9 C10 1.307 . S
N9 C11 1.333 . S
N9 Zn15 2.020 . S
C10 N9 1.307 . S
C10 C14 1.370 . S
C10 H21 0.948 . S
C11 N9 1.333 . S
C11 C12 1.379 . S
C11 H19 0.952 . S
C12 C11 1.379 . S
C12 C13 1.390 . S
C12 H32 0.949 . S
C13 C12 1.390 . S
C13 C14 1.357 . S
C14 C10 1.370 . S
C14 C13 1.357 . S
C14 H33 0.950 . S
Zn15 N9 2.020 . S
Zn15 O18 2.025 1_545 S
Zn15 O23 2.024 . S
Zn15 O25 2.039 . S
Zn15 O27 2.034 1_545 S
O16 C0 1.251 . S
O16 Zn7 2.039 1_565 S
C17 O22 1.246 . S
C17 O23 1.249 . S
O18 C0 1.254 . S
O18 Zn15 2.025 1_565 S
H19 C11 0.952 . S
H20 C2 0.953 1_565 S
H21 C10 0.948 . S
O22 Zn7 2.034 . S
O22 C17 1.246 . S
O23 Zn15 2.024 . S
O23 C17 1.249 . S
H24 C6 0.948 . S
O25 Zn15 2.039 . S
O25 C29 1.251 . S
O26 Zn7 2.025 . S
O26 C29 1.254 . S
O27 C8 1.246 . S
O27 Zn15 2.034 1_565 S
O28 Zn7 2.024 1_565 S
O28 C8 1.249 . S
C29 O25 1.251 . S
C29 O26 1.254 . S
H30 C3 0.949 . S
H31 C5 0.950 . S
H32 C12 0.949 . S
H33 C14 0.950 . S
C34 O50 1.251 . S
C34 O52 1.254 . S
N35 C36 1.333 . S
N35 C40 1.307 . S
N35 Zn41 2.020 . S
C36 N35 1.333 . S
C36 C37 1.379 . S
C36 H54 0.952 . S
C37 C36 1.379 . S
C37 C38 1.390 . S
C37 H64 0.949 . S
C38 C37 1.390 . S
C38 C39 1.357 . S
C39 C38 1.357 . S
C39 C40 1.370 . S
C39 H65 0.950 . S
C40 N35 1.307 . S
C40 C39 1.370 . S
C40 H58 0.948 . S
Zn41 N35 2.020 . S
Zn41 O50 2.039 . S
Zn41 O56 2.034 1_455 S
Zn41 O60 2.025 1_455 S
Zn41 O62 2.024 . S
C42 O61 1.246 . S
C42 O62 1.249 . S
N43 C44 1.307 . S
N43 C45 1.333 . S
N43 Zn49 2.020 . S
C44 N43 1.307 . S
C44 C48 1.370 . S
C44 H55 0.948 . S
C45 N43 1.333 . S
C45 C46 1.379 . S
C45 H53 0.952 . S
C46 C45 1.379 . S
C46 C47 1.390 . S
C46 H66 0.949 . S
C47 C46 1.390 . S
C47 C48 1.357 . S
C48 C44 1.370 . S
C48 C47 1.357 . S
C48 H67 0.950 . S
Zn49 N43 2.020 . S
Zn49 O52 2.025 . S
Zn49 O57 2.024 1_455 S
Zn49 O59 2.039 1_455 S
Zn49 O61 2.034 . S
O50 C34 1.251 . S
O50 Zn41 2.039 . S
C51 O56 1.246 . S
C51 O57 1.249 . S
O52 C34 1.254 . S
O52 Zn49 2.025 . S
H53 C45 0.952 . S
H54 C36 0.952 . S
H55 C44 0.948 . S
O56 Zn41 2.034 1_655 S
O56 C51 1.246 . S
O57 Zn49 2.024 1_655 S
O57 C51 1.249 . S
H58 C40 0.948 . S
O59 Zn49 2.039 1_655 S
O59 C63 1.251 . S
O60 Zn41 2.025 1_655 S
O60 C63 1.254 . S
O61 C42 1.246 . S
O61 Zn49 2.034 . S
O62 Zn41 2.024 . S
O62 C42 1.249 . S
C63 O59 1.251 . S
C63 O60 1.254 . S
H64 C37 0.949 . S
H65 C39 0.950 . S
H66 C46 0.949 . S
H67 C48 0.950 . S
C68 O84 1.251 . S
C68 O86 1.254 . S
N69 C70 1.333 . S
N69 C74 1.307 . S
N69 Zn75 2.020 . S
C70 N69 1.333 . S
C70 C71 1.379 . S
C70 H88 0.952 . S
C71 C70 1.379 . S
C71 C72 1.390 . S
C71 H98 0.949 . S
C72 C71 1.390 . S
C72 C73 1.357 . S
C73 C72 1.357 . S
C73 C74 1.370 . S
C73 H99 0.950 . S
C74 N69 1.307 . S
C74 C73 1.370 . S
C74 H92 0.948 . S
Zn75 N69 2.020 . S
Zn75 O84 2.039 . S
Zn75 O90 2.034 . S
Zn75 O94 2.025 . S
Zn75 O96 2.024 . S
C76 O95 1.246 . S
C76 O96 1.249 . S
N77 C78 1.307 . S
N77 C79 1.333 . S
N77 Zn83 2.020 . S
C78 N77 1.307 . S
C78 C82 1.370 . S
C78 H89 0.948 . S
C79 N77 1.333 . S
C79 C80 1.379 . S
C79 H87 0.952 . S
C80 C79 1.379 . S
C80 C81 1.390 . S
C80 H100 0.949 . S
C81 C80 1.390 . S
C81 C82 1.357 . S
C82 C78 1.370 . S
C82 C81 1.357 . S
C82 H101 0.950 . S
Zn83 N77 2.020 . S
Zn83 O86 2.025 . S
Zn83 O91 2.024 . S
Zn83 O93 2.039 . S
Zn83 O95 2.034 . S
O84 C68 1.251 . S
O84 Zn75 2.039 . S
C85 O90 1.246 . S
C85 O91 1.249 . S
O86 C68 1.254 . S
O86 Zn83 2.025 . S
H87 C79 0.952 . S
H88 C70 0.952 . S
H89 C78 0.948 . S
O90 Zn75 2.034 . S
O90 C85 1.246 . S
O91 Zn83 2.024 . S
O91 C85 1.249 . S
H92 C74 0.948 . S
O93 Zn83 2.039 . S
O93 C97 1.251 . S
O94 Zn75 2.025 . S
O94 C97 1.254 . S
O95 C76 1.246 . S
O95 Zn83 2.034 . S
O96 Zn75 2.024 . S
O96 C76 1.249 . S
C97 O93 1.251 . S
C97 O94 1.254 . S
H98 C71 0.949 . S
H99 C73 0.950 . S
H100 C80 0.949 . S
H101 C82 0.950 . S
C102 O118 1.251 . S
C102 O120 1.254 . S
N103 C104 1.331 . S
N103 C108 1.307 . S
N103 Zn109 2.020 . S
C104 N103 1.331 . S
C104 C105 1.380 1_455 S
C104 H122 0.953 1_455 S
C105 C104 1.380 1_655 S
C105 C106 1.390 1_655 S
C105 H132 0.949 . S
C106 C105 1.390 1_455 S
C106 C107 1.357 . S
C107 C106 1.357 . S
C107 C108 1.370 . S
C107 H133 0.950 . S
C108 N103 1.307 . S
C108 C107 1.370 . S
C108 H126 0.948 . S
Zn109 N103 2.020 . S
Zn109 O118 2.039 1_455 S
Zn109 O124 2.034 . S
Zn109 O128 2.025 . S
Zn109 O130 2.024 1_455 S
C110 O129 1.246 . S
C110 O130 1.249 . S
N111 C112 1.307 . S
N111 C113 1.333 . S
N111 Zn117 2.020 . S
C112 N111 1.307 . S
C112 C116 1.370 . S
C112 H123 0.948 . S
C113 N111 1.333 . S
C113 C114 1.379 . S
C113 H121 0.952 . S
C114 C113 1.379 . S
C114 C115 1.390 . S
C114 H134 0.949 . S
C115 C114 1.390 . S
C115 C116 1.357 . S
C116 C112 1.370 . S
C116 C115 1.357 . S
C116 H135 0.950 . S
Zn117 N111 2.020 . S
Zn117 O120 2.025 1_455 S
Zn117 O125 2.024 . S
Zn117 O127 2.039 . S
Zn117 O129 2.034 1_455 S
O118 C102 1.251 . S
O118 Zn109 2.039 1_655 S
C119 O124 1.246 . S
C119 O125 1.249 . S
O120 C102 1.254 . S
O120 Zn117 2.025 1_655 S
H121 C113 0.952 . S
H122 C104 0.953 1_655 S
H123 C112 0.948 . S
O124 Zn109 2.034 . S
O124 C119 1.246 . S
O125 Zn117 2.024 . S
O125 C119 1.249 . S
H126 C108 0.948 . S
O127 Zn117 2.039 . S
O127 C131 1.251 . S
O128 Zn109 2.025 . S
O128 C131 1.254 . S
O129 C110 1.246 . S
O129 Zn117 2.034 1_655 S
O130 Zn109 2.024 1_655 S
O130 C110 1.249 . S
C131 O127 1.251 . S
C131 O128 1.254 . S
H132 C105 0.949 . S
H133 C107 0.950 . S
H134 C114 0.949 . S
H135 C116 0.950 . S
C136 O152 1.251 . S
C136 O154 1.254 . S
N137 C138 1.333 . S
N137 C142 1.307 . S
N137 Zn143 2.020 . S
C138 N137 1.333 . S
C138 C139 1.379 . S
C138 H156 0.952 . S
C139 C138 1.379 . S
C139 C140 1.390 . S
C139 H166 0.949 . S
C140 C139 1.390 . S
C140 C141 1.357 . S
C141 C140 1.357 . S
C141 C142 1.370 . S
C141 H167 0.950 . S
C142 N137 1.307 . S
C142 C141 1.370 . S
C142 H160 0.948 . S
Zn143 N137 2.020 . S
Zn143 O152 2.039 . S
Zn143 O158 2.034 . S
Zn143 O162 2.025 . S
Zn143 O164 2.024 . S
C144 O163 1.246 . S
C144 O164 1.249 . S
N145 C146 1.307 . S
N145 C147 1.333 . S
N145 Zn151 2.020 . S
C146 N145 1.307 . S
C146 C150 1.370 . S
C146 H157 0.948 . S
C147 N145 1.333 . S
C147 C148 1.379 . S
C147 H155 0.952 . S
C148 C147 1.379 . S
C148 C149 1.390 . S
C148 H168 0.949 . S
C149 C148 1.390 . S
C149 C150 1.357 . S
C150 C146 1.370 . S
C150 C149 1.357 . S
C150 H169 0.950 . S
Zn151 N145 2.020 . S
Zn151 O154 2.025 . S
Zn151 O159 2.024 . S
Zn151 O161 2.039 . S
Zn151 O163 2.034 . S
O152 C136 1.251 . S
O152 Zn143 2.039 . S
C153 O158 1.246 . S
C153 O159 1.249 . S
O154 C136 1.254 . S
O154 Zn151 2.025 . S
H155 C147 0.952 . S
H156 C138 0.952 . S
H157 C146 0.948 . S
O158 Zn143 2.034 . S
O158 C153 1.246 . S
O159 Zn151 2.024 . S
O159 C153 1.249 . S
H160 C142 0.948 . S
O161 Zn151 2.039 . S
O161 C165 1.251 . S
O162 Zn143 2.025 . S
O162 C165 1.254 . S
O163 C144 1.246 . S
O163 Zn151 2.034 . S
O164 Zn143 2.024 . S
O164 C144 1.249 . S
C165 O161 1.251 . S
C165 O162 1.254 . S
H166 C139 0.949 . S
H167 C141 0.950 . S
H168 C148 0.949 . S
H169 C150 0.950 . S
C170 O186 1.251 . S
C170 O188 1.254 . S
N171 C172 1.333 . S
N171 C176 1.307 . S
N171 Zn177 2.020 . S
C172 N171 1.333 . S
C172 C173 1.379 . S
C172 H190 0.952 . S
C173 C172 1.379 . S
C173 C174 1.390 . S
C173 H200 0.949 . S
C174 C173 1.390 . S
C174 C175 1.357 . S
C175 C174 1.357 . S
C175 C176 1.370 . S
C175 H201 0.950 . S
C176 N171 1.307 . S
C176 C175 1.370 . S
C176 H194 0.948 . S
Zn177 N171 2.020 . S
Zn177 O186 2.039 . S
Zn177 O192 2.034 1_545 S
Zn177 O196 2.025 1_545 S
Zn177 O198 2.024 . S
C178 O197 1.246 . S
C178 O198 1.249 . S
N179 C180 1.307 . S
N179 C181 1.333 . S
N179 Zn185 2.020 . S
C180 N179 1.307 . S
C180 C184 1.370 . S
C180 H191 0.948 . S
C181 N179 1.333 . S
C181 C182 1.379 . S
C181 H189 0.952 . S
C182 C181 1.379 . S
C182 C183 1.390 . S
C182 H202 0.949 . S
C183 C182 1.390 . S
C183 C184 1.357 . S
C184 C180 1.370 . S
C184 C183 1.357 . S
C184 H203 0.950 . S
Zn185 N179 2.020 . S
Zn185 O188 2.025 . S
Zn185 O193 2.024 1_545 S
Zn185 O195 2.039 1_545 S
Zn185 O197 2.034 . S
O186 C170 1.251 . S
O186 Zn177 2.039 . S
C187 O192 1.246 . S
C187 O193 1.249 . S
O188 C170 1.254 . S
O188 Zn185 2.025 . S
H189 C181 0.952 . S
H190 C172 0.952 . S
H191 C180 0.948 . S
O192 Zn177 2.034 1_565 S
O192 C187 1.246 . S
O193 Zn185 2.024 1_565 S
O193 C187 1.249 . S
H194 C176 0.948 . S
O195 Zn185 2.039 1_565 S
O195 C199 1.251 . S
O196 Zn177 2.025 1_565 S
O196 C199 1.254 . S
O197 C178 1.246 . S
O197 Zn185 2.034 . S
O198 Zn177 2.024 . S
O198 C178 1.249 . S
C199 O195 1.251 . S
C199 O196 1.254 . S
H200 C173 0.949 . S
H201 C175 0.950 . S
H202 C182 0.949 . S
H203 C184 0.950 . S
C204 O220 1.251 . S
C204 O222 1.254 . S
N205 C206 1.333 . S
N205 C210 1.307 . S
N205 Zn211 2.020 . S
C206 N205 1.333 . S
C206 C207 1.379 . S
C206 H224 0.952 . S
C207 C206 1.379 . S
C207 C208 1.390 . S
C207 H234 0.949 . S
C208 C207 1.390 . S
C208 C209 1.357 . S
C209 C208 1.357 . S
C209 C210 1.370 . S
C209 H235 0.950 . S
C210 N205 1.307 . S
C210 C209 1.370 . S
C210 H228 0.948 . S
Zn211 N205 2.020 . S
Zn211 O220 2.039 . S
Zn211 O226 2.034 . S
Zn211 O230 2.025 . S
Zn211 O232 2.024 . S
C212 O231 1.246 . S
C212 O232 1.249 . S
N213 C214 1.307 . S
N213 C215 1.333 . S
N213 Zn219 2.020 . S
C214 N213 1.307 . S
C214 C218 1.370 . S
C214 H225 0.948 . S
C215 N213 1.333 . S
C215 C216 1.379 . S
C215 H223 0.952 . S
C216 C215 1.379 . S
C216 C217 1.390 . S
C216 H236 0.949 . S
C217 C216 1.390 . S
C217 C218 1.357 . S
C218 C214 1.370 . S
C218 C217 1.357 . S
C218 H237 0.950 . S
Zn219 N213 2.020 . S
Zn219 O222 2.025 . S
Zn219 O227 2.024 . S
Zn219 O229 2.039 . S
Zn219 O231 2.034 . S
O220 C204 1.251 . S
O220 Zn211 2.039 . S
C221 O226 1.246 . S
C221 O227 1.249 . S
O222 C204 1.254 . S
O222 Zn219 2.025 . S
H223 C215 0.952 . S
H224 C206 0.952 . S
H225 C214 0.948 . S
O226 Zn211 2.034 . S
O226 C221 1.246 . S
O227 Zn219 2.024 . S
O227 C221 1.249 . S
H228 C210 0.948 . S
O229 Zn219 2.039 . S
O229 C233 1.251 . S
O230 Zn211 2.025 . S
O230 C233 1.254 . S
O231 C212 1.246 . S
O231 Zn219 2.034 . S
O232 Zn211 2.024 . S
O232 C212 1.249 . S
C233 O229 1.251 . S
C233 O230 1.254 . S
H234 C207 0.949 . S
H235 C209 0.950 . S
H236 C216 0.949 . S
H237 C218 0.950 . S
C238 O254 1.251 . S
C238 O256 1.254 . S
N239 C240 1.333 . S
N239 C244 1.307 . S
N239 Zn245 2.020 . S
C240 N239 1.333 . S
C240 C241 1.379 . S
C240 H258 0.952 . S
C241 C240 1.379 . S
C241 C242 1.390 . S
C241 H268 0.949 . S
C242 C241 1.390 . S
C242 C243 1.357 . S
C243 C242 1.357 . S
C243 C244 1.370 . S
C243 H269 0.950 . S
C244 N239 1.307 . S
C244 C243 1.370 . S
C244 H262 0.948 . S
Zn245 N239 2.020 . S
Zn245 O254 2.039 . S
Zn245 O260 2.034 . S
Zn245 O264 2.025 . S
Zn245 O266 2.024 . S
C246 O265 1.246 . S
C246 O266 1.249 . S
N247 C248 1.307 . S
N247 C249 1.333 . S
N247 Zn253 2.020 . S
C248 N247 1.307 . S
C248 C252 1.370 . S
C248 H259 0.948 . S
C249 N247 1.333 . S
C249 C250 1.379 . S
C249 H257 0.952 . S
C250 C249 1.379 . S
C250 C251 1.390 . S
C250 H270 0.949 . S
C251 C250 1.390 . S
C251 C252 1.357 . S
C252 C248 1.370 . S
C252 C251 1.357 . S
C252 H271 0.950 . S
Zn253 N247 2.020 . S
Zn253 O256 2.025 . S
Zn253 O261 2.024 . S
Zn253 O263 2.039 . S
Zn253 O265 2.034 . S
O254 C238 1.251 . S
O254 Zn245 2.039 . S
C255 O260 1.246 . S
C255 O261 1.249 . S
O256 C238 1.254 . S
O256 Zn253 2.025 . S
H257 C249 0.952 . S
H258 C240 0.952 . S
H259 C248 0.948 . S
O260 Zn245 2.034 . S
O260 C255 1.246 . S
O261 Zn253 2.024 . S
O261 C255 1.249 . S
H262 C244 0.948 . S
O263 Zn253 2.039 . S
O263 C267 1.251 . S
O264 Zn245 2.025 . S
O264 C267 1.254 . S
O265 C246 1.246 . S
O265 Zn253 2.034 . S
O266 Zn245 2.024 . S
O266 C246 1.249 . S
C267 O263 1.251 . S
C267 O264 1.254 . S
H268 C241 0.949 . S
H269 C243 0.950 . S
H270 C250 0.949 . S
H271 C252 0.950 . S
C272 O288 1.251 . S
C272 O290 1.254 . S
N273 C274 1.333 . S
N273 C278 1.307 . S
N273 Zn279 2.020 . S
C274 N273 1.333 . S
C274 C275 1.379 . S
C274 H292 0.952 . S
C275 C274 1.379 . S
C275 C276 1.390 . S
C275 H302 0.949 . S
C276 C275 1.390 . S
C276 C277 1.357 . S
C277 C276 1.357 . S
C277 C278 1.370 . S
C277 H303 0.950 . S
C278 N273 1.307 . S
C278 C277 1.370 . S
C278 H296 0.948 . S
Zn279 N273 2.020 . S
Zn279 O288 2.039 . S
Zn279 O294 2.034 . S
Zn279 O298 2.025 . S
Zn279 O300 2.024 . S
C280 O299 1.246 . S
C280 O300 1.249 . S
N281 C282 1.307 . S
N281 C283 1.333 . S
N281 Zn287 2.020 . S
C282 N281 1.307 . S
C282 C286 1.370 . S
C282 H293 0.948 . S
C283 N281 1.333 . S
C283 C284 1.379 . S
C283 H291 0.952 . S
C284 C283 1.379 . S
C284 C285 1.390 . S
C284 H304 0.949 . S
C285 C284 1.390 . S
C285 C286 1.357 . S
C286 C282 1.370 . S
C286 C285 1.357 . S
C286 H305 0.950 . S
Zn287 N281 2.020 . S
Zn287 O290 2.025 . S
Zn287 O295 2.024 . S
Zn287 O297 2.039 . S
Zn287 O299 2.034 . S
O288 C272 1.251 . S
O288 Zn279 2.039 . S
C289 O294 1.246 . S
C289 O295 1.249 . S
O290 C272 1.254 . S
O290 Zn287 2.025 . S
H291 C283 0.952 . S
H292 C274 0.952 . S
H293 C282 0.948 . S
O294 Zn279 2.034 . S
O294 C289 1.246 . S
O295 Zn287 2.024 . S
O295 C289 1.249 . S
H296 C278 0.948 . S
O297 Zn287 2.039 . S
O297 C301 1.251 . S
O298 Zn279 2.025 . S
O298 C301 1.254 . S
O299 C280 1.246 . S
O299 Zn287 2.034 . S
O300 Zn279 2.024 . S
O300 C280 1.249 . S
C301 O297 1.251 . S
C301 O298 1.254 . S
H302 C275 0.949 . S
H303 C277 0.950 . S
H304 C284 0.949 . S
H305 C286 0.950 . S
C306 O322 1.251 . S
C306 O324 1.254 . S
N307 C308 1.333 . S
N307 C312 1.307 . S
N307 Zn313 2.020 . S
C308 N307 1.333 . S
C308 C309 1.379 . S
C308 H326 0.952 . S
C309 C308 1.379 . S
C309 C310 1.390 . S
C309 H336 0.949 . S
C310 C309 1.390 . S
C310 C311 1.357 . S
C311 C310 1.357 . S
C311 C312 1.370 . S
C311 H337 0.950 . S
C312 N307 1.307 . S
C312 C311 1.370 . S
C312 H330 0.948 . S
Zn313 N307 2.020 . S
Zn313 O322 2.039 . S
Zn313 O328 2.034 . S
Zn313 O332 2.025 . S
Zn313 O334 2.024 . S
C314 O333 1.246 . S
C314 O334 1.249 . S
N315 C316 1.307 . S
N315 C317 1.333 . S
N315 Zn321 2.020 . S
C316 N315 1.307 . S
C316 C320 1.370 . S
C316 H327 0.948 . S
C317 N315 1.333 . S
C317 C318 1.379 . S
C317 H325 0.952 . S
C318 C317 1.379 . S
C318 C319 1.390 . S
C318 H338 0.949 . S
C319 C318 1.390 . S
C319 C320 1.357 . S
C320 C316 1.370 . S
C320 C319 1.357 . S
C320 H339 0.950 . S
Zn321 N315 2.020 . S
Zn321 O324 2.025 . S
Zn321 O329 2.024 . S
Zn321 O331 2.039 . S
Zn321 O333 2.034 . S
O322 C306 1.251 . S
O322 Zn313 2.039 . S
C323 O328 1.246 . S
C323 O329 1.249 . S
O324 C306 1.254 . S
O324 Zn321 2.025 . S
H325 C317 0.952 . S
H326 C308 0.952 . S
H327 C316 0.948 . S
O328 Zn313 2.034 . S
O328 C323 1.246 . S
O329 Zn321 2.024 . S
O329 C323 1.249 . S
H330 C312 0.948 . S
O331 Zn321 2.039 . S
O331 C335 1.251 . S
O332 Zn313 2.025 . S
O332 C335 1.254 . S
O333 C314 1.246 . S
O333 Zn321 2.034 . S
O334 Zn313 2.024 . S
O334 C314 1.249 . S
C335 O331 1.251 . S
C335 O332 1.254 . S
H336 C309 0.949 . S
H337 C311 0.950 . S
H338 C318 0.949 . S
H339 C320 0.950 . S
C340 O356 1.251 . S
C340 O358 1.254 . S
N341 C342 1.333 . S
N341 C346 1.307 . S
N341 Zn347 2.020 . S
C342 N341 1.333 . S
C342 C343 1.379 . S
C342 H360 0.952 . S
C343 C342 1.379 . S
C343 C344 1.390 . S
C343 H370 0.949 . S
C344 C343 1.390 . S
C344 C345 1.357 . S
C345 C344 1.357 . S
C345 C346 1.370 . S
C345 H371 0.950 . S
C346 N341 1.307 . S
C346 C345 1.370 . S
C346 H364 0.948 . S
Zn347 N341 2.020 . S
Zn347 O356 2.039 . S
Zn347 O362 2.034 . S
Zn347 O366 2.025 . S
Zn347 O368 2.024 . S
C348 O367 1.246 . S
C348 O368 1.249 . S
N349 C350 1.307 . S
N349 C351 1.333 . S
N349 Zn355 2.020 . S
C350 N349 1.307 . S
C350 C354 1.370 . S
C350 H361 0.948 . S
C351 N349 1.333 . S
C351 C352 1.379 . S
C351 H359 0.952 . S
C352 C351 1.379 . S
C352 C353 1.390 . S
C352 H372 0.949 . S
C353 C352 1.390 . S
C353 C354 1.357 . S
C354 C350 1.370 . S
C354 C353 1.357 . S
C354 H373 0.950 . S
Zn355 N349 2.020 . S
Zn355 O358 2.025 . S
Zn355 O363 2.024 . S
Zn355 O365 2.039 . S
Zn355 O367 2.034 . S
O356 C340 1.251 . S
O356 Zn347 2.039 . S
C357 O362 1.246 . S
C357 O363 1.249 . S
O358 C340 1.254 . S
O358 Zn355 2.025 . S
H359 C351 0.952 . S
H360 C342 0.952 . S
H361 C350 0.948 . S
O362 Zn347 2.034 . S
O362 C357 1.246 . S
O363 Zn355 2.024 . S
O363 C357 1.249 . S
H364 C346 0.948 . S
O365 Zn355 2.039 . S
O365 C369 1.251 . S
O366 Zn347 2.025 . S
O366 C369 1.254 . S
O367 C348 1.246 . S
O367 Zn355 2.034 . S
O368 Zn347 2.024 . S
O368 C348 1.249 . S
C369 O365 1.251 . S
C369 O366 1.254 . S
H370 C343 0.949 . S
H371 C345 0.950 . S
H372 C352 0.949 . S
H373 C354 0.950 . S
C374 O390 1.251 . S
C374 O392 1.254 . S
N375 C376 1.333 . S
N375 C380 1.307 . S
N375 Zn381 2.020 . S
C376 N375 1.333 . S
C376 C377 1.379 . S
C376 H394 0.952 . S
C377 C376 1.379 . S
C377 C378 1.390 . S
C377 H404 0.949 . S
C378 C377 1.390 . S
C378 C379 1.357 . S
C379 C378 1.357 . S
C379 C380 1.370 . S
C379 H405 0.950 . S
C380 N375 1.307 . S
C380 C379 1.370 . S
C380 H398 0.948 . S
Zn381 N375 2.020 . S
Zn381 O390 2.039 . S
Zn381 O396 2.034 . S
Zn381 O400 2.025 . S
Zn381 O402 2.024 . S
C382 O401 1.246 . S
C382 O402 1.249 . S
N383 C384 1.307 . S
N383 C385 1.333 . S
N383 Zn389 2.020 . S
C384 N383 1.307 . S
C384 C388 1.370 . S
C384 H395 0.948 . S
C385 N383 1.333 . S
C385 C386 1.379 . S
C385 H393 0.952 . S
C386 C385 1.379 . S
C386 C387 1.390 . S
C386 H406 0.949 . S
C387 C386 1.390 . S
C387 C388 1.357 . S
C388 C384 1.370 . S
C388 C387 1.357 . S
C388 H407 0.950 . S
Zn389 N383 2.020 . S
Zn389 O392 2.025 . S
Zn389 O397 2.024 . S
Zn389 O399 2.039 . S
Zn389 O401 2.034 . S
O390 C374 1.251 . S
O390 Zn381 2.039 . S
C391 O396 1.246 . S
C391 O397 1.249 . S
O392 C374 1.254 . S
O392 Zn389 2.025 . S
H393 C385 0.952 . S
H394 C376 0.952 . S
H395 C384 0.948 . S
O396 Zn381 2.034 . S
O396 C391 1.246 . S
O397 Zn389 2.024 . S
O397 C391 1.249 . S
H398 C380 0.948 . S
O399 Zn389 2.039 . S
O399 C403 1.251 . S
O400 Zn381 2.025 . S
O400 C403 1.254 . S
O401 C382 1.246 . S
O401 Zn389 2.034 . S
O402 Zn381 2.024 . S
O402 C382 1.249 . S
C403 O399 1.251 . S
C403 O400 1.254 . S
H404 C377 0.949 . S
H405 C379 0.950 . S
H406 C386 0.949 . S
H407 C388 0.950 . S
C408 O424 1.251 . S
C408 O426 1.254 . S
N409 C410 1.333 . S
N409 C414 1.307 . S
N409 Zn415 2.020 . S
C410 N409 1.333 . S
C410 C411 1.379 . S
C410 H428 0.952 . S
C411 C410 1.379 . S
C411 C412 1.390 . S
C411 H438 0.949 . S
C412 C411 1.390 . S
C412 C413 1.357 . S
C413 C412 1.357 . S
C413 C414 1.370 . S
C413 H439 0.950 . S
C414 N409 1.307 . S
C414 C413 1.370 . S
C414 H432 0.948 . S
Zn415 N409 2.020 . S
Zn415 O424 2.039 . S
Zn415 O430 2.034 . S
Zn415 O434 2.025 . S
Zn415 O436 2.024 . S
C416 O435 1.246 . S
C416 O436 1.249 . S
N417 C418 1.307 . S
N417 C419 1.333 . S
N417 Zn423 2.020 . S
C418 N417 1.307 . S
C418 C422 1.370 . S
C418 H429 0.948 . S
C419 N417 1.333 . S
C419 C420 1.379 . S
C419 H427 0.952 . S
C420 C419 1.379 . S
C420 C421 1.390 . S
C420 H440 0.949 . S
C421 C420 1.390 . S
C421 C422 1.357 . S
C422 C418 1.370 . S
C422 C421 1.357 . S
C422 H441 0.950 . S
Zn423 N417 2.020 . S
Zn423 O426 2.025 . S
Zn423 O431 2.024 . S
Zn423 O433 2.039 . S
Zn423 O435 2.034 . S
O424 C408 1.251 . S
O424 Zn415 2.039 . S
C425 O430 1.246 . S
C425 O431 1.249 . S
O426 C408 1.254 . S
O426 Zn423 2.025 . S
H427 C419 0.952 . S
H428 C410 0.952 . S
H429 C418 0.948 . S
O430 Zn415 2.034 . S
O430 C425 1.246 . S
O431 Zn423 2.024 . S
O431 C425 1.249 . S
H432 C414 0.948 . S
O433 Zn423 2.039 . S
O433 C437 1.251 . S
O434 Zn415 2.025 . S
O434 C437 1.254 . S
O435 C416 1.246 . S
O435 Zn423 2.034 . S
O436 Zn415 2.024 . S
O436 C416 1.249 . S
C437 O433 1.251 . S
C437 O434 1.254 . S
H438 C411 0.949 . S
H439 C413 0.950 . S
H440 C420 0.949 . S
H441 C422 0.950 . S
C442 O458 1.251 . S
C442 O460 1.254 . S
N443 C444 1.333 . S
N443 C448 1.307 . S
N443 Zn449 2.020 . S
C444 N443 1.333 . S
C444 C445 1.379 . S
C444 H462 0.952 . S
C445 C444 1.379 . S
C445 C446 1.390 . S
C445 H472 0.949 . S
C446 C445 1.390 . S
C446 C447 1.357 . S
C447 C446 1.357 . S
C447 C448 1.370 . S
C447 H473 0.950 . S
C448 N443 1.307 . S
C448 C447 1.370 . S
C448 H466 0.948 . S
Zn449 N443 2.020 . S
Zn449 O458 2.039 . S
Zn449 O464 2.034 . S
Zn449 O468 2.025 . S
Zn449 O470 2.024 . S
C450 O469 1.246 . S
C450 O470 1.249 . S
N451 C452 1.307 . S
N451 C453 1.333 . S
N451 Zn457 2.020 . S
C452 N451 1.307 . S
C452 C456 1.370 . S
C452 H463 0.948 . S
C453 N451 1.333 . S
C453 C454 1.379 . S
C453 H461 0.952 . S
C454 C453 1.379 . S
C454 C455 1.390 . S
C454 H474 0.949 . S
C455 C454 1.390 . S
C455 C456 1.357 . S
C456 C452 1.370 . S
C456 C455 1.357 . S
C456 H475 0.950 . S
Zn457 N451 2.020 . S
Zn457 O460 2.025 . S
Zn457 O465 2.024 . S
Zn457 O467 2.039 . S
Zn457 O469 2.034 . S
O458 C442 1.251 . S
O458 Zn449 2.039 . S
C459 O464 1.246 . S
C459 O465 1.249 . S
O460 C442 1.254 . S
O460 Zn457 2.025 . S
H461 C453 0.952 . S
H462 C444 0.952 . S
H463 C452 0.948 . S
O464 Zn449 2.034 . S
O464 C459 1.246 . S
O465 Zn457 2.024 . S
O465 C459 1.249 . S
H466 C448 0.948 . S
O467 Zn457 2.039 . S
O467 C471 1.251 . S
O468 Zn449 2.025 . S
O468 C471 1.254 . S
O469 C450 1.246 . S
O469 Zn457 2.034 . S
O470 Zn449 2.024 . S
O470 C450 1.249 . S
C471 O467 1.251 . S
C471 O468 1.254 . S
H472 C445 0.949 . S
H473 C447 0.950 . S
H474 C454 0.949 . S
H475 C456 0.950 . S
C476 O492 1.251 . S
C476 O494 1.254 . S
N477 C478 1.333 . S
N477 C482 1.307 . S
N477 Zn483 2.020 . S
C478 N477 1.333 . S
C478 C479 1.379 . S
C478 H496 0.952 . S
C479 C478 1.379 . S
C479 C480 1.390 . S
C479 H506 0.949 . S
C480 C479 1.390 . S
C480 C481 1.357 . S
C481 C480 1.357 . S
C481 C482 1.370 . S
C481 H507 0.950 . S
C482 N477 1.307 . S
C482 C481 1.370 . S
C482 H500 0.948 . S
Zn483 N477 2.020 . S
Zn483 O492 2.039 . S
Zn483 O498 2.034 . S
Zn483 O502 2.025 . S
Zn483 O504 2.024 . S
C484 O503 1.246 . S
C484 O504 1.249 . S
N485 C486 1.307 . S
N485 C487 1.333 . S
N485 Zn491 2.020 . S
C486 N485 1.307 . S
C486 C490 1.370 . S
C486 H497 0.948 . S
C487 N485 1.333 . S
C487 C488 1.379 . S
C487 H495 0.952 . S
C488 C487 1.379 . S
C488 C489 1.390 . S
C488 H508 0.949 . S
C489 C488 1.390 . S
C489 C490 1.357 . S
C490 C486 1.370 . S
C490 C489 1.357 . S
C490 H509 0.950 . S
Zn491 N485 2.020 . S
Zn491 O494 2.025 . S
Zn491 O499 2.024 . S
Zn491 O501 2.039 . S
Zn491 O503 2.034 . S
O492 C476 1.251 . S
O492 Zn483 2.039 . S
C493 O498 1.246 . S
C493 O499 1.249 . S
O494 C476 1.254 . S
O494 Zn491 2.025 . S
H495 C487 0.952 . S
H496 C478 0.952 . S
H497 C486 0.948 . S
O498 Zn483 2.034 . S
O498 C493 1.246 . S
O499 Zn491 2.024 . S
O499 C493 1.249 . S
H500 C482 0.948 . S
O501 Zn491 2.039 . S
O501 C505 1.251 . S
O502 Zn483 2.025 . S
O502 C505 1.254 . S
O503 C484 1.246 . S
O503 Zn491 2.034 . S
O504 Zn483 2.024 . S
O504 C484 1.249 . S
C505 O501 1.251 . S
C505 O502 1.254 . S
H506 C479 0.949 . S
H507 C481 0.950 . S
H508 C488 0.949 . S
H509 C490 0.950 . S
C510 O526 1.251 . S
C510 O528 1.254 . S
N511 C512 1.333 . S
N511 C516 1.307 . S
N511 Zn517 2.020 . S
C512 N511 1.333 . S
C512 C513 1.379 . S
C512 H530 0.952 . S
C513 C512 1.379 . S
C513 C514 1.390 . S
C513 H540 0.949 . S
C514 C513 1.390 . S
C514 C515 1.357 . S
C515 C514 1.357 . S
C515 C516 1.370 . S
C515 H541 0.950 . S
C516 N511 1.307 . S
C516 C515 1.370 . S
C516 H534 0.948 . S
Zn517 N511 2.020 . S
Zn517 O526 2.039 . S
Zn517 O532 2.034 . S
Zn517 O536 2.025 . S
Zn517 O538 2.024 . S
C518 O537 1.246 . S
C518 O538 1.249 . S
N519 C520 1.307 . S
N519 C521 1.333 . S
N519 Zn525 2.020 . S
C520 N519 1.307 . S
C520 C524 1.370 . S
C520 H531 0.948 . S
C521 N519 1.333 . S
C521 C522 1.379 . S
C521 H529 0.952 . S
C522 C521 1.379 . S
C522 C523 1.390 . S
C522 H542 0.949 . S
C523 C522 1.390 . S
C523 C524 1.357 . S
C524 C520 1.370 . S
C524 C523 1.357 . S
C524 H543 0.950 . S
Zn525 N519 2.020 . S
Zn525 O528 2.025 . S
Zn525 O533 2.024 . S
Zn525 O535 2.039 . S
Zn525 O537 2.034 . S
O526 C510 1.251 . S
O526 Zn517 2.039 . S
C527 O532 1.246 . S
C527 O533 1.249 . S
O528 C510 1.254 . S
O528 Zn525 2.025 . S
H529 C521 0.952 . S
H530 C512 0.952 . S
H531 C520 0.948 . S
O532 Zn517 2.034 . S
O532 C527 1.246 . S
O533 Zn525 2.024 . S
O533 C527 1.249 . S
H534 C516 0.948 . S
O535 Zn525 2.039 . S
O535 C539 1.251 . S
O536 Zn517 2.025 . S
O536 C539 1.254 . S
O537 C518 1.246 . S
O537 Zn525 2.034 . S
O538 Zn517 2.024 . S
O538 C518 1.249 . S
C539 O535 1.251 . S
C539 O536 1.254 . S
H540 C513 0.949 . S
H541 C515 0.950 . S
H542 C522 0.949 . S
H543 C524 0.950 . S
C544 O560 1.251 . S
C544 O562 1.254 . S
N545 C546 1.333 . S
N545 C550 1.307 . S
N545 Zn551 2.020 . S
C546 N545 1.333 . S
C546 C547 1.379 . S
C546 H564 0.952 . S
C547 C546 1.379 . S
C547 C548 1.390 . S
C547 H574 0.949 . S
C548 C547 1.390 . S
C548 C549 1.357 . S
C549 C548 1.357 . S
C549 C550 1.370 . S
C549 H575 0.950 . S
C550 N545 1.307 . S
C550 C549 1.370 . S
C550 H568 0.948 . S
Zn551 N545 2.020 . S
Zn551 O560 2.039 . S
Zn551 O566 2.034 . S
Zn551 O570 2.025 . S
Zn551 O572 2.024 . S
C552 O571 1.246 . S
C552 O572 1.249 . S
N553 C554 1.307 . S
N553 C555 1.333 . S
N553 Zn559 2.020 . S
C554 N553 1.307 . S
C554 C558 1.370 . S
C554 H565 0.948 . S
C555 N553 1.333 . S
C555 C556 1.379 . S
C555 H563 0.952 . S
C556 C555 1.379 . S
C556 C557 1.390 . S
C556 H576 0.949 . S
C557 C556 1.390 . S
C557 C558 1.357 . S
C558 C554 1.370 . S
C558 C557 1.357 . S
C558 H577 0.950 . S
Zn559 N553 2.020 . S
Zn559 O562 2.025 . S
Zn559 O567 2.024 . S
Zn559 O569 2.039 . S
Zn559 O571 2.034 . S
O560 C544 1.251 . S
O560 Zn551 2.039 . S
C561 O566 1.246 . S
C561 O567 1.249 . S
O562 C544 1.254 . S
O562 Zn559 2.025 . S
H563 C555 0.952 . S
H564 C546 0.952 . S
H565 C554 0.948 . S
O566 Zn551 2.034 . S
O566 C561 1.246 . S
O567 Zn559 2.024 . S
O567 C561 1.249 . S
H568 C550 0.948 . S
O569 Zn559 2.039 . S
O569 C573 1.251 . S
O570 Zn551 2.025 . S
O570 C573 1.254 . S
O571 C552 1.246 . S
O571 Zn559 2.034 . S
O572 Zn551 2.024 . S
O572 C552 1.249 . S
C573 O569 1.251 . S
C573 O570 1.254 . S
H574 C547 0.949 . S
H575 C549 0.950 . S
H576 C556 0.949 . S
H577 C558 0.950 . S
C578 O594 1.251 . S
C578 O596 1.254 . S
N579 C580 1.333 . S
N579 C584 1.307 . S
N579 Zn585 2.020 . S
C580 N579 1.333 . S
C580 C581 1.379 . S
C580 H598 0.952 . S
C581 C580 1.379 . S
C581 C582 1.390 . S
C581 H608 0.949 . S
C582 C581 1.390 . S
C582 C583 1.357 . S
C583 C582 1.357 . S
C583 C584 1.370 . S
C583 H609 0.950 . S
C584 N579 1.307 . S
C584 C583 1.370 . S
C584 H602 0.948 . S
Zn585 N579 2.020 . S
Zn585 O594 2.039 . S
Zn585 O600 2.034 . S
Zn585 O604 2.025 . S
Zn585 O606 2.024 . S
C586 O605 1.246 . S
C586 O606 1.249 . S
N587 C588 1.307 . S
N587 C589 1.333 . S
N587 Zn593 2.020 . S
C588 N587 1.307 . S
C588 C592 1.370 . S
C588 H599 0.948 . S
C589 N587 1.333 . S
C589 C590 1.379 . S
C589 H597 0.952 . S
C590 C589 1.379 . S
C590 C591 1.390 . S
C590 H610 0.949 . S
C591 C590 1.390 . S
C591 C592 1.357 . S
C592 C588 1.370 . S
C592 C591 1.357 . S
C592 H611 0.950 . S
Zn593 N587 2.020 . S
Zn593 O596 2.025 . S
Zn593 O601 2.024 . S
Zn593 O603 2.039 . S
Zn593 O605 2.034 . S
O594 C578 1.251 . S
O594 Zn585 2.039 . S
C595 O600 1.246 . S
C595 O601 1.249 . S
O596 C578 1.254 . S
O596 Zn593 2.025 . S
H597 C589 0.952 . S
H598 C580 0.952 . S
H599 C588 0.948 . S
O600 Zn585 2.034 . S
O600 C595 1.246 . S
O601 Zn593 2.024 . S
O601 C595 1.249 . S
H602 C584 0.948 . S
O603 Zn593 2.039 . S
O603 C607 1.251 . S
O604 Zn585 2.025 . S
O604 C607 1.254 . S
O605 C586 1.246 . S
O605 Zn593 2.034 . S
O606 Zn585 2.024 . S
O606 C586 1.249 . S
C607 O603 1.251 . S
C607 O604 1.254 . S
H608 C581 0.949 . S
H609 C583 0.950 . S
H610 C590 0.949 . S
H611 C592 0.950 . S
C612 C613 1.349 . S
C612 C614 1.327 . S
C612 H637 0.950 . S
C613 C612 1.349 . S
C613 C629 1.349 . S
C614 C612 1.327 . S
C614 C633 1.429 . S
C614 H638 0.950 . S
C615 C632 1.574 . S
C615 C634 1.368 . S
C615 H639 0.949 . S
H616 C620 0.949 . S
C617 C618 1.349 . S
C617 C619 1.327 . S
C617 H640 0.950 . S
C618 C617 1.349 . S
C618 C630 1.349 . S
C619 C617 1.327 . S
C619 C635 1.429 . S
C619 H641 0.950 . S
C620 H616 0.949 . S
C620 C628 1.574 . S
C620 C636 1.368 . S
H621 C629 0.950 . S
H622 C627 0.950 . S
H623 C628 0.949 . S
H624 C630 0.950 . S
H625 C631 0.950 . S
H626 C632 0.949 . S
C627 H622 0.950 . S
C627 C629 1.327 . S
C627 C633 1.429 . S
C628 C620 1.574 . S
C628 H623 0.949 . S
C628 C634 1.368 . S
C629 C613 1.349 . S
C629 H621 0.950 . S
C629 C627 1.327 . S
C630 C618 1.349 . S
C630 H624 0.950 . S
C630 C631 1.327 . S
C631 H625 0.950 . S
C631 C630 1.327 . S
C631 C635 1.429 . S
C632 C615 1.574 . S
C632 H626 0.949 . S
C632 C636 1.368 . S
C633 C614 1.429 . S
C633 C627 1.429 . S
C633 C634 1.523 . S
C634 C615 1.368 . S
C634 C628 1.368 . S
C634 C633 1.523 . S
C635 C619 1.429 . S
C635 C631 1.429 . S
C635 C636 1.523 . S
C636 C620 1.368 . S
C636 C632 1.368 . S
C636 C635 1.523 . S
H637 C612 0.950 . S
H638 C614 0.950 . S
H639 C615 0.949 . S
H640 C617 0.950 . S
H641 C619 0.950 . S
C642 C643 1.349 . S
C642 C644 1.327 . S
C642 H667 0.950 . S
C643 C642 1.349 . S
C643 C659 1.349 . S
C644 C642 1.327 . S
C644 C663 1.429 . S
C644 H668 0.950 . S
C645 C662 1.574 . S
C645 C664 1.368 . S
C645 H669 0.949 . S
H646 C650 0.949 . S
C647 C648 1.349 . S
C647 C649 1.327 . S
C647 H670 0.950 . S
C648 C647 1.349 . S
C648 C660 1.349 . S
C649 C647 1.327 . S
C649 C665 1.429 . S
C649 H671 0.950 . S
C650 H646 0.949 . S
C650 C658 1.574 . S
C650 C666 1.368 . S
H651 C659 0.950 . S
H652 C657 0.950 . S
H653 C658 0.949 . S
H654 C660 0.950 . S
H655 C661 0.950 . S
H656 C662 0.949 . S
C657 H652 0.950 . S
C657 C659 1.327 . S
C657 C663 1.429 . S
C658 C650 1.574 . S
C658 H653 0.949 . S
C658 C664 1.368 . S
C659 C643 1.349 . S
C659 H651 0.950 . S
C659 C657 1.327 . S
C660 C648 1.349 . S
C660 H654 0.950 . S
C660 C661 1.327 . S
C661 H655 0.950 . S
C661 C660 1.327 . S
C661 C665 1.429 . S
C662 C645 1.574 . S
C662 H656 0.949 . S
C662 C666 1.368 . S
C663 C644 1.429 . S
C663 C657 1.429 . S
C663 C664 1.523 . S
C664 C645 1.368 . S
C664 C658 1.368 . S
C664 C663 1.523 . S
C665 C649 1.429 . S
C665 C661 1.429 . S
C665 C666 1.523 . S
C666 C650 1.368 . S
C666 C662 1.368 . S
C666 C665 1.523 . S
H667 C642 0.950 . S
H668 C644 0.950 . S
H669 C645 0.949 . S
H670 C647 0.950 . S
H671 C649 0.950 . S
C672 C673 1.349 . S
C672 C674 1.327 . S
C672 H697 0.950 . S
C673 C672 1.349 . S
C673 C689 1.349 . S
C674 C672 1.327 . S
C674 C693 1.429 . S
C674 H698 0.950 . S
C675 C692 1.574 . S
C675 C694 1.368 . S
C675 H699 0.949 . S
H676 C680 0.949 . S
C677 C678 1.349 . S
C677 C679 1.327 . S
C677 H700 0.950 . S
C678 C677 1.349 . S
C678 C690 1.349 . S
C679 C677 1.327 . S
C679 C695 1.429 . S
C679 H701 0.950 . S
C680 H676 0.949 . S
C680 C688 1.574 . S
C680 C696 1.368 . S
H681 C689 0.950 . S
H682 C687 0.950 . S
H683 C688 0.949 . S
H684 C690 0.950 . S
H685 C691 0.950 . S
H686 C692 0.949 . S
C687 H682 0.950 . S
C687 C689 1.327 . S
C687 C693 1.429 . S
C688 C680 1.574 . S
C688 H683 0.949 . S
C688 C694 1.368 . S
C689 C673 1.349 . S
C689 H681 0.950 . S
C689 C687 1.327 . S
C690 C678 1.349 . S
C690 H684 0.950 . S
C690 C691 1.327 . S
C691 H685 0.950 . S
C691 C690 1.327 . S
C691 C695 1.429 . S
C692 C675 1.574 . S
C692 H686 0.949 . S
C692 C696 1.368 . S
C693 C674 1.429 . S
C693 C687 1.429 . S
C693 C694 1.523 . S
C694 C675 1.368 . S
C694 C688 1.368 . S
C694 C693 1.523 . S
C695 C679 1.429 . S
C695 C691 1.429 . S
C695 C696 1.523 . S
C696 C680 1.368 . S
C696 C692 1.368 . S
C696 C695 1.523 . S
H697 C672 0.950 . S
H698 C674 0.950 . S
H699 C675 0.949 . S
H700 C677 0.950 . S
H701 C679 0.950 . S
C702 C703 1.349 . S
C702 C704 1.327 . S
C702 H727 0.950 . S
C703 C702 1.349 . S
C703 C719 1.349 . S
C704 C702 1.327 . S
C704 C723 1.429 . S
C704 H728 0.950 . S
C705 C722 1.574 . S
C705 C724 1.368 . S
C705 H729 0.949 . S
H706 C710 0.949 . S
C707 C708 1.349 . S
C707 C709 1.327 . S
C707 H730 0.950 . S
C708 C707 1.349 . S
C708 C720 1.349 . S
C709 C707 1.327 . S
C709 C725 1.429 . S
C709 H731 0.950 . S
C710 H706 0.949 . S
C710 C718 1.574 . S
C710 C726 1.368 . S
H711 C719 0.950 . S
H712 C717 0.950 . S
H713 C718 0.949 . S
H714 C720 0.950 . S
H715 C721 0.950 . S
H716 C722 0.949 . S
C717 H712 0.950 . S
C717 C719 1.327 . S
C717 C723 1.429 . S
C718 C710 1.574 . S
C718 H713 0.949 . S
C718 C724 1.368 . S
C719 C703 1.349 . S
C719 H711 0.950 . S
C719 C717 1.327 . S
C720 C708 1.349 . S
C720 H714 0.950 . S
C720 C721 1.327 . S
C721 H715 0.950 . S
C721 C720 1.327 . S
C721 C725 1.429 . S
C722 C705 1.574 . S
C722 H716 0.949 . S
C722 C726 1.368 . S
C723 C704 1.429 . S
C723 C717 1.429 . S
C723 C724 1.523 . S
C724 C705 1.368 . S
C724 C718 1.368 . S
C724 C723 1.523 . S
C725 C709 1.429 . S
C725 C721 1.429 . S
C725 C726 1.523 . S
C726 C710 1.368 . S
C726 C722 1.368 . S
C726 C725 1.523 . S
H727 C702 0.950 . S
H728 C704 0.950 . S
H729 C705 0.949 . S
H730 C707 0.950 . S
H731 C709 0.950 . S
C732 C733 1.349 . S
C732 C734 1.327 . S
C732 H757 0.950 . S
C733 C732 1.349 . S
C733 C749 1.349 . S
C734 C732 1.327 . S
C734 C753 1.429 . S
C734 H758 0.950 . S
C735 C752 1.574 . S
C735 C754 1.368 . S
C735 H759 0.949 . S
H736 C740 0.949 . S
C737 C738 1.349 . S
C737 C739 1.327 . S
C737 H760 0.950 . S
C738 C737 1.349 . S
C738 C750 1.349 . S
C739 C737 1.327 . S
C739 C755 1.429 . S
C739 H761 0.950 . S
C740 H736 0.949 . S
C740 C748 1.574 . S
C740 C756 1.368 . S
H741 C749 0.950 . S
H742 C747 0.950 . S
H743 C748 0.949 . S
H744 C750 0.950 . S
H745 C751 0.950 . S
H746 C752 0.949 . S
C747 H742 0.950 . S
C747 C749 1.327 . S
C747 C753 1.429 . S
C748 C740 1.574 . S
C748 H743 0.949 . S
C748 C754 1.368 . S
C749 C733 1.349 . S
C749 H741 0.950 . S
C749 C747 1.327 . S
C750 C738 1.349 . S
C750 H744 0.950 . S
C750 C751 1.327 . S
C751 H745 0.950 . S
C751 C750 1.327 . S
C751 C755 1.429 . S
C752 C735 1.574 . S
C752 H746 0.949 . S
C752 C756 1.368 . S
C753 C734 1.429 . S
C753 C747 1.429 . S
C753 C754 1.523 . S
C754 C735 1.368 . S
C754 C748 1.368 . S
C754 C753 1.523 . S
C755 C739 1.429 . S
C755 C751 1.429 . S
C755 C756 1.523 . S
C756 C740 1.368 . S
C756 C752 1.368 . S
C756 C755 1.523 . S
H757 C732 0.950 . S
H758 C734 0.950 . S
H759 C735 0.949 . S
H760 C737 0.950 . S
H761 C739 0.950 . S
C762 C763 1.349 . S
C762 C764 1.327 . S
C762 H787 0.950 . S
C763 C762 1.349 . S
C763 C779 1.349 . S
C764 C762 1.327 . S
C764 C783 1.429 . S
C764 H788 0.950 . S
C765 C782 1.574 . S
C765 C784 1.368 . S
C765 H789 0.949 . S
H766 C770 0.949 . S
C767 C768 1.349 . S
C767 C769 1.327 . S
C767 H790 0.950 . S
C768 C767 1.349 . S
C768 C780 1.349 . S
C769 C767 1.327 . S
C769 C785 1.429 . S
C769 H791 0.950 . S
C770 H766 0.949 . S
C770 C778 1.574 . S
C770 C786 1.368 . S
H771 C779 0.950 . S
H772 C777 0.950 . S
H773 C778 0.949 . S
H774 C780 0.950 . S
H775 C781 0.950 . S
H776 C782 0.949 . S
C777 H772 0.950 . S
C777 C779 1.327 . S
C777 C783 1.429 . S
C778 C770 1.574 . S
C778 H773 0.949 . S
C778 C784 1.368 . S
C779 C763 1.349 . S
C779 H771 0.950 . S
C779 C777 1.327 . S
C780 C768 1.349 . S
C780 H774 0.950 . S
C780 C781 1.327 . S
C781 H775 0.950 . S
C781 C780 1.327 . S
C781 C785 1.429 . S
C782 C765 1.574 . S
C782 H776 0.949 . S
C782 C786 1.368 . S
C783 C764 1.429 . S
C783 C777 1.429 . S
C783 C784 1.523 . S
C784 C765 1.368 . S
C784 C778 1.368 . S
C784 C783 1.523 . S
C785 C769 1.429 . S
C785 C781 1.429 . S
C785 C786 1.523 . S
C786 C770 1.368 . S
C786 C782 1.368 . S
C786 C785 1.523 . S
H787 C762 0.950 . S
H788 C764 0.950 . S
H789 C765 0.949 . S
H790 C767 0.950 . S
H791 C769 0.950 . S
C792 C793 1.349 1_545 S
C792 C794 1.327 . S
C792 H817 0.950 . S
C793 C792 1.349 1_565 S
C793 C809 1.349 . S
C794 C792 1.327 . S
C794 C813 1.429 . S
C794 H818 0.950 . S
C795 C812 1.574 . S
C795 C814 1.368 . S
C795 H819 0.949 . S
H796 C800 0.949 . S
C797 C798 1.349 . S
C797 C799 1.327 . S
C797 H820 0.950 . S
C798 C797 1.349 . S
C798 C810 1.349 . S
C799 C797 1.327 . S
C799 C815 1.429 . S
C799 H821 0.950 . S
C800 H796 0.949 . S
C800 C808 1.574 . S
C800 C816 1.368 . S
H801 C809 0.950 . S
H802 C807 0.950 . S
H803 C808 0.949 . S
H804 C810 0.950 . S
H805 C811 0.950 . S
H806 C812 0.949 . S
C807 H802 0.950 . S
C807 C809 1.327 1_545 S
C807 C813 1.429 . S
C808 C800 1.574 . S
C808 H803 0.949 . S
C808 C814 1.368 . S
C809 C793 1.349 . S
C809 H801 0.950 . S
C809 C807 1.327 1_565 S
C810 C798 1.349 . S
C810 H804 0.950 . S
C810 C811 1.327 . S
C811 H805 0.950 . S
C811 C810 1.327 . S
C811 C815 1.429 . S
C812 C795 1.574 . S
C812 H806 0.949 . S
C812 C816 1.368 . S
C813 C794 1.429 . S
C813 C807 1.429 . S
C813 C814 1.523 . S
C814 C795 1.368 . S
C814 C808 1.368 . S
C814 C813 1.523 . S
C815 C799 1.429 . S
C815 C811 1.429 . S
C815 C816 1.523 . S
C816 C800 1.368 . S
C816 C812 1.368 . S
C816 C815 1.523 . S
H817 C792 0.950 . S
H818 C794 0.950 . S
H819 C795 0.949 . S
H820 C797 0.950 . S
H821 C799 0.950 . S
C822 C823 1.349 . S
C822 C824 1.327 . S
C822 H847 0.950 . S
C823 C822 1.349 . S
C823 C839 1.349 . S
C824 C822 1.327 . S
C824 C843 1.429 1_455 S
C824 H848 0.950 . S
C825 C842 1.574 . S
C825 C844 1.368 . S
C825 H849 0.949 . S
H826 C830 0.949 . S
C827 C828 1.349 . S
C827 C829 1.327 1_565 S
C827 H850 0.950 . S
C828 C827 1.349 . S
C828 C840 1.349 . S
C829 C827 1.327 1_545 S
C829 C845 1.429 . S
C829 H851 0.950 . S
C830 H826 0.949 . S
C830 C838 1.574 . S
C830 C846 1.368 . S
H831 C839 0.950 . S
H832 C837 0.950 . S
H833 C838 0.949 . S
H834 C840 0.950 . S
H835 C841 0.950 . S
H836 C842 0.949 . S
C837 H832 0.950 . S
C837 C839 1.327 1_655 S
C837 C843 1.429 . S
C838 C830 1.574 . S
C838 H833 0.949 . S
C838 C844 1.368 . S
C839 C823 1.349 . S
C839 H831 0.950 . S
C839 C837 1.327 1_455 S
C840 C828 1.349 . S
C840 H834 0.950 . S
C840 C841 1.327 . S
C841 H835 0.950 . S
C841 C840 1.327 . S
C841 C845 1.429 1_565 S
C842 C825 1.574 . S
C842 H836 0.949 . S
C842 C846 1.368 . S
C843 C824 1.429 1_655 S
C843 C837 1.429 . S
C843 C844 1.523 . S
C844 C825 1.368 . S
C844 C838 1.368 . S
C844 C843 1.523 . S
C845 C829 1.429 . S
C845 C841 1.429 1_545 S
C845 C846 1.523 . S
C846 C830 1.368 . S
C846 C842 1.368 . S
C846 C845 1.523 . S
H847 C822 0.950 . S
H848 C824 0.950 . S
H849 C825 0.949 . S
H850 C827 0.950 . S
H851 C829 0.950 . S
C852 C853 1.349 . S
C852 C854 1.327 . S
C852 H877 0.950 . S
C853 C852 1.349 . S
C853 C869 1.349 . S
C854 C852 1.327 . S
C854 C873 1.429 . S
C854 H878 0.950 . S
C855 C872 1.574 . S
C855 C874 1.368 . S
C855 H879 0.936 1_655 S
H856 C860 0.949 . S
C857 C858 1.349 . S
C857 C859 1.327 . S
C857 H880 0.950 . S
C858 C857 1.349 . S
C858 C870 1.349 . S
C859 C857 1.327 . S
C859 C875 1.429 . S
C859 H881 0.950 . S
C860 H856 0.949 . S
C860 C868 1.574 . S
C860 C876 1.368 . S
H861 C869 0.950 . S
H862 C867 0.950 . S
H863 C868 0.949 . S
H864 C870 0.950 . S
H865 C871 0.950 . S
H866 C872 0.949 . S
C867 H862 0.950 . S
C867 C869 1.327 . S
C867 C873 1.429 . S
C868 C860 1.574 . S
C868 H863 0.949 . S
C868 C874 1.368 . S
C869 C853 1.349 . S
C869 H861 0.950 . S
C869 C867 1.327 . S
C870 C858 1.349 . S
C870 H864 0.950 . S
C870 C871 1.327 . S
C871 H865 0.950 . S
C871 C870 1.327 . S
C871 C875 1.429 . S
C872 C855 1.574 . S
C872 H866 0.949 . S
C872 C876 1.368 . S
C873 C854 1.429 . S
C873 C867 1.429 . S
C873 C874 1.523 1_455 S
C874 C855 1.368 . S
C874 C868 1.368 . S
C874 C873 1.523 1_655 S
C875 C859 1.429 . S
C875 C871 1.429 . S
C875 C876 1.523 . S
C876 C860 1.368 . S
C876 C872 1.368 . S
C876 C875 1.523 . S
H877 C852 0.950 . S
H878 C854 0.950 . S
H879 C855 0.936 1_455 S
H880 C857 0.950 . S
H881 C859 0.950 . S
C882 C883 1.349 . S
C882 C884 1.327 . S
C882 H907 0.950 . S
C883 C882 1.349 . S
C883 C899 1.349 . S
C884 C882 1.327 . S
C884 C903 1.429 . S
C884 H908 0.950 . S
C885 C902 1.574 . S
C885 C904 1.368 . S
C885 H909 0.949 . S
H886 C890 0.949 . S
C887 C888 1.349 . S
C887 C889 1.327 . S
C887 H910 0.950 . S
C888 C887 1.349 . S
C888 C900 1.349 . S
C889 C887 1.327 . S
C889 C905 1.429 . S
C889 H911 0.950 . S
C890 H886 0.949 . S
C890 C898 1.574 . S
C890 C906 1.368 . S
H891 C899 0.950 . S
H892 C897 0.950 . S
H893 C898 0.949 . S
H894 C900 0.950 . S
H895 C901 0.950 . S
H896 C902 0.949 . S
C897 H892 0.950 . S
C897 C899 1.327 . S
C897 C903 1.429 . S
C898 C890 1.574 . S
C898 H893 0.949 . S
C898 C904 1.368 . S
C899 C883 1.349 . S
C899 H891 0.950 . S
C899 C897 1.327 . S
C900 C888 1.349 . S
C900 H894 0.950 . S
C900 C901 1.327 . S
C901 H895 0.950 . S
C901 C900 1.327 . S
C901 C905 1.429 . S
C902 C885 1.574 . S
C902 H896 0.949 . S
C902 C906 1.368 . S
C903 C884 1.429 . S
C903 C897 1.429 . S
C903 C904 1.523 . S
C904 C885 1.368 . S
C904 C898 1.368 . S
C904 C903 1.523 . S
C905 C889 1.429 . S
C905 C901 1.429 . S
C905 C906 1.523 . S
C906 C890 1.368 . S
C906 C902 1.368 . S
C906 C905 1.523 . S
H907 C882 0.950 . S
H908 C884 0.950 . S
H909 C885 0.949 . S
H910 C887 0.950 . S
H911 C889 0.950 . S
C912 C913 1.349 . S
C912 C914 1.327 . S
C912 H937 0.950 . S
C913 C912 1.349 . S
C913 C929 1.349 . S
C914 C912 1.327 . S
C914 C933 1.429 . S
C914 H938 0.950 . S
C915 C932 1.574 . S
C915 C934 1.368 . S
C915 H939 0.949 . S
H916 C920 0.949 . S
C917 C918 1.349 . S
C917 C919 1.327 . S
C917 H940 0.950 . S
C918 C917 1.349 . S
C918 C930 1.349 . S
C919 C917 1.327 . S
C919 C935 1.429 . S
C919 H941 0.950 . S
C920 H916 0.949 . S
C920 C928 1.574 . S
C920 C936 1.368 . S
H921 C929 0.950 . S
H922 C927 0.950 . S
H923 C928 0.949 . S
H924 C930 0.950 . S
H925 C931 0.950 . S
H926 C932 0.949 . S
C927 H922 0.950 . S
C927 C929 1.327 . S
C927 C933 1.429 . S
C928 C920 1.574 . S
C928 H923 0.949 . S
C928 C934 1.368 . S
C929 C913 1.349 . S
C929 H921 0.950 . S
C929 C927 1.327 . S
C930 C918 1.349 . S
C930 H924 0.950 . S
C930 C931 1.327 . S
C931 H925 0.950 . S
C931 C930 1.327 . S
C931 C935 1.429 . S
C932 C915 1.574 . S
C932 H926 0.949 . S
C932 C936 1.368 . S
C933 C914 1.429 . S
C933 C927 1.429 . S
C933 C934 1.523 . S
C934 C915 1.368 . S
C934 C928 1.368 . S
C934 C933 1.523 . S
C935 C919 1.429 . S
C935 C931 1.429 . S
C935 C936 1.523 . S
C936 C920 1.368 . S
C936 C932 1.368 . S
C936 C935 1.523 . S
H937 C912 0.950 . S
H938 C914 0.950 . S
H939 C915 0.949 . S
H940 C917 0.950 . S
H941 C919 0.950 . S
C942 C943 1.349 . S
C942 C944 1.327 . S
C942 H967 0.950 . S
C943 C942 1.349 . S
C943 C959 1.349 . S
C944 C942 1.327 . S
C944 C963 1.429 . S
C944 H968 0.950 . S
C945 C962 1.574 . S
C945 C964 1.368 . S
C945 H969 0.949 . S
H946 C950 0.949 . S
C947 C948 1.349 . S
C947 C949 1.327 . S
C947 H970 0.950 . S
C948 C947 1.349 . S
C948 C960 1.349 . S
C949 C947 1.327 . S
C949 C965 1.429 . S
C949 H971 0.950 . S
C950 H946 0.949 . S
C950 C958 1.574 . S
C950 C966 1.368 . S
H951 C959 0.950 . S
H952 C957 0.950 . S
H953 C958 0.949 . S
H954 C960 0.950 . S
H955 C961 0.950 . S
H956 C962 0.949 . S
C957 H952 0.950 . S
C957 C959 1.327 . S
C957 C963 1.429 . S
C958 C950 1.574 . S
C958 H953 0.949 . S
C958 C964 1.368 . S
C959 C943 1.349 . S
C959 H951 0.950 . S
C959 C957 1.327 . S
C960 C948 1.349 . S
C960 H954 0.950 . S
C960 C961 1.327 . S
C961 H955 0.950 . S
C961 C960 1.327 . S
C961 C965 1.429 . S
C962 C945 1.574 . S
C962 H956 0.949 . S
C962 C966 1.368 . S
C963 C944 1.429 . S
C963 C957 1.429 . S
C963 C964 1.523 . S
C964 C945 1.368 . S
C964 C958 1.368 . S
C964 C963 1.523 . S
C965 C949 1.429 . S
C965 C961 1.429 . S
C965 C966 1.523 . S
C966 C950 1.368 . S
C966 C962 1.368 . S
C966 C965 1.523 . S
H967 C942 0.950 . S
H968 C944 0.950 . S
H969 C945 0.949 . S
H970 C947 0.950 . S
H971 C949 0.950 . S
C972 C973 1.349 . S
C972 C974 1.327 . S
C972 H997 0.950 . S
C973 C972 1.349 . S
C973 C989 1.349 . S
C974 C972 1.327 . S
C974 C993 1.429 . S
C974 H998 0.950 . S
C975 C992 1.574 . S
C975 C994 1.368 . S
C975 H999 0.949 . S
H976 C980 0.949 . S
C977 C978 1.349 . S
C977 C979 1.327 . S
C977 H1000 0.950 . S
C978 C977 1.349 . S
C978 C990 1.349 . S
C979 C977 1.327 . S
C979 C995 1.429 . S
C979 H1001 0.950 . S
C980 H976 0.949 . S
C980 C988 1.574 . S
C980 C996 1.368 . S
H981 C989 0.950 . S
H982 C987 0.950 . S
H983 C988 0.949 . S
H984 C990 0.950 . S
H985 C991 0.950 . S
H986 C992 0.949 . S
C987 H982 0.950 . S
C987 C989 1.327 . S
C987 C993 1.429 . S
C988 C980 1.574 . S
C988 H983 0.949 . S
C988 C994 1.368 . S
C989 C973 1.349 . S
C989 H981 0.950 . S
C989 C987 1.327 . S
C990 C978 1.349 . S
C990 H984 0.950 . S
C990 C991 1.327 . S
C991 H985 0.950 . S
C991 C990 1.327 . S
C991 C995 1.429 . S
C992 C975 1.574 . S
C992 H986 0.949 . S
C992 C996 1.368 . S
C993 C974 1.429 . S
C993 C987 1.429 . S
C993 C994 1.523 . S
C994 C975 1.368 . S
C994 C988 1.368 . S
C994 C993 1.523 . S
C995 C979 1.429 . S
C995 C991 1.429 . S
C995 C996 1.523 . S
C996 C980 1.368 . S
C996 C992 1.368 . S
C996 C995 1.523 . S
H997 C972 0.950 . S
H998 C974 0.950 . S
H999 C975 0.949 . S
H1000 C977 0.950 . S
H1001 C979 0.950 . S
C1002 C1003 1.349 . S
C1002 C1004 1.327 . S
C1002 H1027 0.950 . S
C1003 C1002 1.349 . S
C1003 C1019 1.349 . S
C1004 C1002 1.327 . S
C1004 C1023 1.429 . S
C1004 H1028 0.950 . S
C1005 C1022 1.574 . S
C1005 C1024 1.368 . S
C1005 H1029 0.949 . S
H1006 C1010 0.949 . S
C1007 C1008 1.349 . S
C1007 C1009 1.327 . S
C1007 H1030 0.950 . S
C1008 C1007 1.349 . S
C1008 C1020 1.349 . S
C1009 C1007 1.327 . S
C1009 C1025 1.429 . S
C1009 H1031 0.950 . S
C1010 H1006 0.949 . S
C1010 C1018 1.574 . S
C1010 C1026 1.368 . S
H1011 C1019 0.950 . S
H1012 C1017 0.950 . S
H1013 C1018 0.949 . S
H1014 C1020 0.950 . S
H1015 C1021 0.950 . S
H1016 C1022 0.949 . S
C1017 H1012 0.950 . S
C1017 C1019 1.327 . S
C1017 C1023 1.429 . S
C1018 C1010 1.574 . S
C1018 H1013 0.949 . S
C1018 C1024 1.368 . S
C1019 C1003 1.349 . S
C1019 H1011 0.950 . S
C1019 C1017 1.327 . S
C1020 C1008 1.349 . S
C1020 H1014 0.950 . S
C1020 C1021 1.327 . S
C1021 H1015 0.950 . S
C1021 C1020 1.327 . S
C1021 C1025 1.429 . S
C1022 C1005 1.574 . S
C1022 H1016 0.949 . S
C1022 C1026 1.368 . S
C1023 C1004 1.429 . S
C1023 C1017 1.429 . S
C1023 C1024 1.523 . S
C1024 C1005 1.368 . S
C1024 C1018 1.368 . S
C1024 C1023 1.523 . S
C1025 C1009 1.429 . S
C1025 C1021 1.429 . S
C1025 C1026 1.523 . S
C1026 C1010 1.368 . S
C1026 C1022 1.368 . S
C1026 C1025 1.523 . S
H1027 C1002 0.950 . S
H1028 C1004 0.950 . S
H1029 C1005 0.949 . S
H1030 C1007 0.950 . S
H1031 C1009 0.950 . S
C1032 C1033 1.349 . S
C1032 C1034 1.327 . S
C1032 H1057 0.950 . S
C1033 C1032 1.349 . S
C1033 C1049 1.349 . S
C1034 C1032 1.327 . S
C1034 C1053 1.429 . S
C1034 H1058 0.950 . S
C1035 C1052 1.574 . S
C1035 C1054 1.368 . S
C1035 H1059 0.949 . S
H1036 C1040 0.949 . S
C1037 C1038 1.349 . S
C1037 C1039 1.327 . S
C1037 H1060 0.950 . S
C1038 C1037 1.349 . S
C1038 C1050 1.349 . S
C1039 C1037 1.327 . S
C1039 C1055 1.429 . S
C1039 H1061 0.950 . S
C1040 H1036 0.949 . S
C1040 C1048 1.574 . S
C1040 C1056 1.368 . S
H1041 C1049 0.950 . S
H1042 C1047 0.950 . S
H1043 C1048 0.949 . S
H1044 C1050 0.950 . S
H1045 C1051 0.950 . S
H1046 C1052 0.949 . S
C1047 H1042 0.950 . S
C1047 C1049 1.327 . S
C1047 C1053 1.429 . S
C1048 C1040 1.574 . S
C1048 H1043 0.949 . S
C1048 C1054 1.368 . S
C1049 C1033 1.349 . S
C1049 H1041 0.950 . S
C1049 C1047 1.327 . S
C1050 C1038 1.349 . S
C1050 H1044 0.950 . S
C1050 C1051 1.327 . S
C1051 H1045 0.950 . S
C1051 C1050 1.327 . S
C1051 C1055 1.429 . S
C1052 C1035 1.574 . S
C1052 H1046 0.949 . S
C1052 C1056 1.368 . S
C1053 C1034 1.429 . S
C1053 C1047 1.429 . S
C1053 C1054 1.523 . S
C1054 C1035 1.368 . S
C1054 C1048 1.368 . S
C1054 C1053 1.523 . S
C1055 C1039 1.429 . S
C1055 C1051 1.429 . S
C1055 C1056 1.523 . S
C1056 C1040 1.368 . S
C1056 C1052 1.368 . S
C1056 C1055 1.523 . S
H1057 C1032 0.950 . S
H1058 C1034 0.950 . S
H1059 C1035 0.949 . S
H1060 C1037 0.950 . S
H1061 C1039 0.950 . S
C1062 C1063 1.349 . S
C1062 C1064 1.327 1_655 S
C1062 H1087 0.950 . S
C1063 C1062 1.349 . S
C1063 C1079 1.349 1_655 S
C1064 C1062 1.327 1_455 S
C1064 C1083 1.429 . S
C1064 H1088 0.950 . S
C1065 C1082 1.574 . S
C1065 C1084 1.368 . S
C1065 H1089 0.949 . S
H1066 C1070 0.949 . S
C1067 C1068 1.349 . S
C1067 C1069 1.327 . S
C1067 H1090 0.950 . S
C1068 C1067 1.349 . S
C1068 C1080 1.349 . S
C1069 C1067 1.327 . S
C1069 C1085 1.429 . S
C1069 H1091 0.950 . S
C1070 H1066 0.949 . S
C1070 C1078 1.574 . S
C1070 C1086 1.368 . S
H1071 C1079 0.950 . S
H1072 C1077 0.950 . S
H1073 C1078 0.949 . S
H1074 C1080 0.950 . S
H1075 C1081 0.950 . S
H1076 C1082 0.949 . S
C1077 H1072 0.950 . S
C1077 C1079 1.327 . S
C1077 C1083 1.429 . S
C1078 C1070 1.574 . S
C1078 H1073 0.949 . S
C1078 C1084 1.368 . S
C1079 C1063 1.349 1_455 S
C1079 H1071 0.950 . S
C1079 C1077 1.327 . S
C1080 C1068 1.349 . S
C1080 H1074 0.950 . S
C1080 C1081 1.327 . S
C1081 H1075 0.950 . S
C1081 C1080 1.327 . S
C1081 C1085 1.429 . S
C1082 C1065 1.574 . S
C1082 H1076 0.949 . S
C1082 C1086 1.368 . S
C1083 C1064 1.429 . S
C1083 C1077 1.429 . S
C1083 C1084 1.523 . S
C1084 C1065 1.368 . S
C1084 C1078 1.368 . S
C1084 C1083 1.523 . S
C1085 C1069 1.429 . S
C1085 C1081 1.429 . S
C1085 C1086 1.523 . S
C1086 C1070 1.368 . S
C1086 C1082 1.368 . S
C1086 C1085 1.523 . S
H1087 C1062 0.950 . S
H1088 C1064 0.950 . S
H1089 C1065 0.949 . S
H1090 C1067 0.950 . S
H1091 C1069 0.950 . S
C1092 C1093 1.349 . S
C1092 C1094 1.327 . S
C1092 H1117 0.950 . S
C1093 C1092 1.349 . S
C1093 C1109 1.349 . S
C1094 C1092 1.327 . S
C1094 C1113 1.429 . S
C1094 H1118 0.950 . S
C1095 C1112 1.574 . S
C1095 C1114 1.368 . S
C1095 H1119 0.949 . S
H1096 C1100 0.936 1_545 S
C1097 C1098 1.349 . S
C1097 C1099 1.327 . S
C1097 H1120 0.950 . S
C1098 C1097 1.349 . S
C1098 C1110 1.349 . S
C1099 C1097 1.327 . S
C1099 C1115 1.429 . S
C1099 H1121 0.950 . S
C1100 H1096 0.936 1_565 S
C1100 C1108 1.574 . S
C1100 C1116 1.368 . S
H1101 C1109 0.950 . S
H1102 C1107 0.950 . S
H1103 C1108 0.949 . S
H1104 C1110 0.950 . S
H1105 C1111 0.950 . S
H1106 C1112 0.949 . S
C1107 H1102 0.950 . S
C1107 C1109 1.327 . S
C1107 C1113 1.429 . S
C1108 C1100 1.574 . S
C1108 H1103 0.949 . S
C1108 C1114 1.368 . S
C1109 C1093 1.349 . S
C1109 H1101 0.950 . S
C1109 C1107 1.327 . S
C1110 C1098 1.349 . S
C1110 H1104 0.950 . S
C1110 C1111 1.327 . S
C1111 H1105 0.950 . S
C1111 C1110 1.327 . S
C1111 C1115 1.429 . S
C1112 C1095 1.574 . S
C1112 H1106 0.949 . S
C1112 C1116 1.368 . S
C1113 C1094 1.429 . S
C1113 C1107 1.429 . S
C1113 C1114 1.523 . S
C1114 C1095 1.368 . S
C1114 C1108 1.368 . S
C1114 C1113 1.523 . S
C1115 C1099 1.429 . S
C1115 C1111 1.429 . S
C1115 C1116 1.523 1_545 S
C1116 C1100 1.368 . S
C1116 C1112 1.368 . S
C1116 C1115 1.523 1_565 S
H1117 C1092 0.950 . S
H1118 C1094 0.950 . S
H1119 C1095 0.949 . S
H1120 C1097 0.950 . S
H1121 C1099 0.950 . S
C1122 C1123 1.349 . S
C1122 C1124 1.327 1_545 S
C1122 H1147 0.950 . S
C1123 C1122 1.349 . S
C1123 C1139 1.349 . S
C1124 C1122 1.327 1_565 S
C1124 C1143 1.429 . S
C1124 H1148 0.950 . S
C1125 C1142 1.574 . S
C1125 C1144 1.368 . S
C1125 H1149 0.949 . S
H1126 C1130 0.949 . S
C1127 C1128 1.349 . S
C1127 C1129 1.327 . S
C1127 H1150 0.950 . S
C1128 C1127 1.349 . S
C1128 C1140 1.349 . S
C1129 C1127 1.327 . S
C1129 C1145 1.429 1_655 S
C1129 H1151 0.950 . S
C1130 H1126 0.949 . S
C1130 C1138 1.574 . S
C1130 C1146 1.368 . S
H1131 C1139 0.950 . S
H1132 C1137 0.950 . S
H1133 C1138 0.949 . S
H1134 C1140 0.950 . S
H1135 C1141 0.950 . S
H1136 C1142 0.949 . S
C1137 H1132 0.950 . S
C1137 C1139 1.327 . S
C1137 C1143 1.429 1_545 S
C1138 C1130 1.574 . S
C1138 H1133 0.949 . S
C1138 C1144 1.368 . S
C1139 C1123 1.349 . S
C1139 H1131 0.950 . S
C1139 C1137 1.327 . S
C1140 C1128 1.349 . S
C1140 H1134 0.950 . S
C1140 C1141 1.327 1_655 S
C1141 H1135 0.950 . S
C1141 C1140 1.327 1_455 S
C1141 C1145 1.429 . S
C1142 C1125 1.574 . S
C1142 H1136 0.949 . S
C1142 C1146 1.368 . S
C1143 C1124 1.429 . S
C1143 C1137 1.429 1_565 S
C1143 C1144 1.523 . S
C1144 C1125 1.368 . S
C1144 C1138 1.368 . S
C1144 C1143 1.523 . S
C1145 C1129 1.429 1_455 S
C1145 C1141 1.429 . S
C1145 C1146 1.523 . S
C1146 C1130 1.368 . S
C1146 C1142 1.368 . S
C1146 C1145 1.523 . S
H1147 C1122 0.950 . S
H1148 C1124 0.950 . S
H1149 C1125 0.949 . S
H1150 C1127 0.950 . S
H1151 C1129 0.950 . S
C1152 C1153 1.340 1_565 S
C1152 C1154 1.328 . S
C1152 H1177 0.959 . S
C1153 C1152 1.340 1_545 S
C1153 C1169 1.349 . S
C1154 C1152 1.328 . S
C1154 C1173 1.429 1_565 S
C1154 H1178 0.950 . S
C1155 C1172 1.574 1_554 S
C1155 C1174 1.368 . S
C1155 H1179 0.949 . S
H1156 C1160 0.949 . S
C1157 C1158 1.349 . S
C1157 C1159 1.327 . S
C1157 H1180 0.950 . S
C1158 C1157 1.349 . S
C1158 C1170 1.349 1_545 S
C1159 C1157 1.327 . S
C1159 C1175 1.429 . S
C1159 H1181 0.950 . S
C1160 H1156 0.949 . S
C1160 C1168 1.574 1_556 S
C1160 C1176 1.368 1_565 S
H1161 C1169 0.950 . S
H1162 C1167 0.950 . S
H1163 C1168 0.949 . S
H1164 C1170 0.950 . S
H1165 C1171 0.950 . S
H1166 C1172 0.949 . S
C1167 H1162 0.950 . S
C1167 C1169 1.327 . S
C1167 C1173 1.429 . S
C1168 C1160 1.574 1_554 S
C1168 H1163 0.949 . S
C1168 C1174 1.368 1_565 S
C1169 C1153 1.349 . S
C1169 H1161 0.950 . S
C1169 C1167 1.327 . S
C1170 C1158 1.349 1_565 S
C1170 H1164 0.950 . S
C1170 C1171 1.327 . S
C1171 H1165 0.950 . S
C1171 C1170 1.327 . S
C1171 C1175 1.429 1_565 S
C1172 C1155 1.574 1_556 S
C1172 H1166 0.949 . S
C1172 C1176 1.368 . S
C1173 C1154 1.429 1_545 S
C1173 C1167 1.429 . S
C1173 C1174 1.523 . S
C1174 C1155 1.368 . S
C1174 C1168 1.368 1_545 S
C1174 C1173 1.523 . S
C1175 C1159 1.429 . S
C1175 C1171 1.429 1_545 S
C1175 C1176 1.523 . S
C1176 C1160 1.368 1_545 S
C1176 C1172 1.368 . S
C1176 C1175 1.523 . S
H1177 C1152 0.959 . S
H1178 C1154 0.950 . S
H1179 C1155 0.949 . S
H1180 C1157 0.950 . S
H1181 C1159 0.950 . S
C1182 C1183 1.349 . S
C1182 C1184 1.327 . S
C1182 H1207 0.950 . S
C1183 C1182 1.349 . S
C1183 C1199 1.349 . S
C1184 C1182 1.327 . S
C1184 C1203 1.429 . S
C1184 H1208 0.950 . S
C1185 C1202 1.574 1_556 S
C1185 C1204 1.368 . S
C1185 H1209 0.949 . S
H1186 C1190 0.949 . S
C1187 C1188 1.349 . S
C1187 C1189 1.327 . S
C1187 H1210 0.950 . S
C1188 C1187 1.349 . S
C1188 C1200 1.349 . S
C1189 C1187 1.327 . S
C1189 C1205 1.429 . S
C1189 H1211 0.950 . S
C1190 H1186 0.949 . S
C1190 C1198 1.574 1_554 S
C1190 C1206 1.368 . S
H1191 C1199 0.950 . S
H1192 C1197 0.950 . S
H1193 C1198 0.949 . S
H1194 C1200 0.950 . S
H1195 C1201 0.950 . S
H1196 C1202 0.949 . S
C1197 H1192 0.950 . S
C1197 C1199 1.327 . S
C1197 C1203 1.429 . S
C1198 C1190 1.574 1_556 S
C1198 H1193 0.949 . S
C1198 C1204 1.368 . S
C1199 C1183 1.349 . S
C1199 H1191 0.950 . S
C1199 C1197 1.327 . S
C1200 C1188 1.349 . S
C1200 H1194 0.950 . S
C1200 C1201 1.327 . S
C1201 H1195 0.950 . S
C1201 C1200 1.327 . S
C1201 C1205 1.429 . S
C1202 C1185 1.574 1_554 S
C1202 H1196 0.949 . S
C1202 C1206 1.368 . S
C1203 C1184 1.429 . S
C1203 C1197 1.429 . S
C1203 C1204 1.523 . S
C1204 C1185 1.368 . S
C1204 C1198 1.368 . S
C1204 C1203 1.523 . S
C1205 C1189 1.429 . S
C1205 C1201 1.429 . S
C1205 C1206 1.523 . S
C1206 C1190 1.368 . S
C1206 C1202 1.368 . S
C1206 C1205 1.523 . S
H1207 C1182 0.950 . S
H1208 C1184 0.950 . S
H1209 C1185 0.949 . S
H1210 C1187 0.950 . S
H1211 C1189 0.950 . S
C1212 C1213 1.349 . S
C1212 C1214 1.327 . S
C1212 H1237 0.950 . S
C1213 C1212 1.349 . S
C1213 C1229 1.349 . S
C1214 C1212 1.327 . S
C1214 C1233 1.429 . S
C1214 H1238 0.950 . S
C1215 C1232 1.574 1_556 S
C1215 C1234 1.368 . S
C1215 H1239 0.949 . S
H1216 C1220 0.949 . S
C1217 C1218 1.349 . S
C1217 C1219 1.327 . S
C1217 H1240 0.950 . S
C1218 C1217 1.349 . S
C1218 C1230 1.349 . S
C1219 C1217 1.327 . S
C1219 C1235 1.429 . S
C1219 H1241 0.950 . S
C1220 H1216 0.949 . S
C1220 C1228 1.574 1_554 S
C1220 C1236 1.368 . S
H1221 C1229 0.950 . S
H1222 C1227 0.950 . S
H1223 C1228 0.949 . S
H1224 C1230 0.950 . S
H1225 C1231 0.950 . S
H1226 C1232 0.949 . S
C1227 H1222 0.950 . S
C1227 C1229 1.327 . S
C1227 C1233 1.429 . S
C1228 C1220 1.574 1_556 S
C1228 H1223 0.949 . S
C1228 C1234 1.368 . S
C1229 C1213 1.349 . S
C1229 H1221 0.950 . S
C1229 C1227 1.327 . S
C1230 C1218 1.349 . S
C1230 H1224 0.950 . S
C1230 C1231 1.327 . S
C1231 H1225 0.950 . S
C1231 C1230 1.327 . S
C1231 C1235 1.429 . S
C1232 C1215 1.574 1_554 S
C1232 H1226 0.949 . S
C1232 C1236 1.368 . S
C1233 C1214 1.429 . S
C1233 C1227 1.429 . S
C1233 C1234 1.523 . S
C1234 C1215 1.368 . S
C1234 C1228 1.368 . S
C1234 C1233 1.523 . S
C1235 C1219 1.429 . S
C1235 C1231 1.429 . S
C1235 C1236 1.523 . S
C1236 C1220 1.368 . S
C1236 C1232 1.368 . S
C1236 C1235 1.523 . S
H1237 C1212 0.950 . S
H1238 C1214 0.950 . S
H1239 C1215 0.949 . S
H1240 C1217 0.950 . S
H1241 C1219 0.950 . S
C1242 C1243 1.349 . S
C1242 C1244 1.327 . S
C1242 H1267 0.950 . S
C1243 C1242 1.349 . S
C1243 C1259 1.349 . S
C1244 C1242 1.327 . S
C1244 C1263 1.429 . S
C1244 H1268 0.950 . S
C1245 C1262 1.574 . S
C1245 C1264 1.368 . S
C1245 H1269 0.949 . S
H1246 C1250 0.949 . S
C1247 C1248 1.349 . S
C1247 C1249 1.327 . S
C1247 H1270 0.950 . S
C1248 C1247 1.349 . S
C1248 C1260 1.349 . S
C1249 C1247 1.327 . S
C1249 C1265 1.429 . S
C1249 H1271 0.950 . S
C1250 H1246 0.949 . S
C1250 C1258 1.574 . S
C1250 C1266 1.368 . S
H1251 C1259 0.950 . S
H1252 C1257 0.950 . S
H1253 C1258 0.949 . S
H1254 C1260 0.950 . S
H1255 C1261 0.950 . S
H1256 C1262 0.949 . S
C1257 H1252 0.950 . S
C1257 C1259 1.327 . S
C1257 C1263 1.429 . S
C1258 C1250 1.574 . S
C1258 H1253 0.949 . S
C1258 C1264 1.368 . S
C1259 C1243 1.349 . S
C1259 H1251 0.950 . S
C1259 C1257 1.327 . S
C1260 C1248 1.349 . S
C1260 H1254 0.950 . S
C1260 C1261 1.327 . S
C1261 H1255 0.950 . S
C1261 C1260 1.327 . S
C1261 C1265 1.429 . S
C1262 C1245 1.574 . S
C1262 H1256 0.949 . S
C1262 C1266 1.368 . S
C1263 C1244 1.429 . S
C1263 C1257 1.429 . S
C1263 C1264 1.523 . S
C1264 C1245 1.368 . S
C1264 C1258 1.368 . S
C1264 C1263 1.523 . S
C1265 C1249 1.429 . S
C1265 C1261 1.429 . S
C1265 C1266 1.523 . S
C1266 C1250 1.368 . S
C1266 C1262 1.368 . S
C1266 C1265 1.523 . S
H1267 C1242 0.950 . S
H1268 C1244 0.950 . S
H1269 C1245 0.949 . S
H1270 C1247 0.950 . S
H1271 C1249 0.950 . S
C1272 C1273 1.349 . S
C1272 C1274 1.327 . S
C1272 H1297 0.950 . S
C1273 C1272 1.349 . S
C1273 C1289 1.349 . S
C1274 C1272 1.327 . S
C1274 C1293 1.429 . S
C1274 H1298 0.950 . S
C1275 C1292 1.574 . S
C1275 C1294 1.368 . S
C1275 H1299 0.949 . S
H1276 C1280 0.949 . S
C1277 C1278 1.349 . S
C1277 C1279 1.327 . S
C1277 H1300 0.950 . S
C1278 C1277 1.349 . S
C1278 C1290 1.349 . S
C1279 C1277 1.327 . S
C1279 C1295 1.429 . S
C1279 H1301 0.950 . S
C1280 H1276 0.949 . S
C1280 C1288 1.574 . S
C1280 C1296 1.368 . S
H1281 C1289 0.950 . S
H1282 C1287 0.950 . S
H1283 C1288 0.949 . S
H1284 C1290 0.950 . S
H1285 C1291 0.950 . S
H1286 C1292 0.949 . S
C1287 H1282 0.950 . S
C1287 C1289 1.327 . S
C1287 C1293 1.429 . S
C1288 C1280 1.574 . S
C1288 H1283 0.949 . S
C1288 C1294 1.368 . S
C1289 C1273 1.349 . S
C1289 H1281 0.950 . S
C1289 C1287 1.327 . S
C1290 C1278 1.349 . S
C1290 H1284 0.950 . S
C1290 C1291 1.327 . S
C1291 H1285 0.950 . S
C1291 C1290 1.327 . S
C1291 C1295 1.429 . S
C1292 C1275 1.574 . S
C1292 H1286 0.949 . S
C1292 C1296 1.368 . S
C1293 C1274 1.429 . S
C1293 C1287 1.429 . S
C1293 C1294 1.523 . S
C1294 C1275 1.368 . S
C1294 C1288 1.368 . S
C1294 C1293 1.523 . S
C1295 C1279 1.429 . S
C1295 C1291 1.429 . S
C1295 C1296 1.523 . S
C1296 C1280 1.368 . S
C1296 C1292 1.368 . S
C1296 C1295 1.523 . S
H1297 C1272 0.950 . S
H1298 C1274 0.950 . S
H1299 C1275 0.949 . S
H1300 C1277 0.950 . S
H1301 C1279 0.950 . S
C1302 C1303 1.349 . S
C1302 C1304 1.327 . S
C1302 H1327 0.950 . S
C1303 C1302 1.349 . S
C1303 C1319 1.349 . S
C1304 C1302 1.327 . S
C1304 C1323 1.429 . S
C1304 H1328 0.950 . S
C1305 C1322 1.574 . S
C1305 C1324 1.368 . S
C1305 H1329 0.949 . S
H1306 C1310 0.949 . S
C1307 C1308 1.349 . S
C1307 C1309 1.327 . S
C1307 H1330 0.950 . S
C1308 C1307 1.349 . S
C1308 C1320 1.349 . S
C1309 C1307 1.327 . S
C1309 C1325 1.429 . S
C1309 H1331 0.950 . S
C1310 H1306 0.949 . S
C1310 C1318 1.574 . S
C1310 C1326 1.368 . S
H1311 C1319 0.950 . S
H1312 C1317 0.950 . S
H1313 C1318 0.949 . S
H1314 C1320 0.950 . S
H1315 C1321 0.950 . S
H1316 C1322 0.949 . S
C1317 H1312 0.950 . S
C1317 C1319 1.327 . S
C1317 C1323 1.429 . S
C1318 C1310 1.574 . S
C1318 H1313 0.949 . S
C1318 C1324 1.368 . S
C1319 C1303 1.349 . S
C1319 H1311 0.950 . S
C1319 C1317 1.327 . S
C1320 C1308 1.349 . S
C1320 H1314 0.950 . S
C1320 C1321 1.327 . S
C1321 H1315 0.950 . S
C1321 C1320 1.327 . S
C1321 C1325 1.429 . S
C1322 C1305 1.574 . S
C1322 H1316 0.949 . S
C1322 C1326 1.368 . S
C1323 C1304 1.429 . S
C1323 C1317 1.429 . S
C1323 C1324 1.523 . S
C1324 C1305 1.368 . S
C1324 C1318 1.368 . S
C1324 C1323 1.523 . S
C1325 C1309 1.429 . S
C1325 C1321 1.429 . S
C1325 C1326 1.523 . S
C1326 C1310 1.368 . S
C1326 C1322 1.368 . S
C1326 C1325 1.523 . S
H1327 C1302 0.950 . S
H1328 C1304 0.950 . S
H1329 C1305 0.949 . S
H1330 C1307 0.950 . S
H1331 C1309 0.950 . S
C1332 C1333 1.349 . S
C1332 C1334 1.327 . S
C1332 H1357 0.950 . S
C1333 C1332 1.349 . S
C1333 C1349 1.349 . S
C1334 C1332 1.327 . S
C1334 C1353 1.429 . S
C1334 H1358 0.950 . S
C1335 C1352 1.574 . S
C1335 C1354 1.368 . S
C1335 H1359 0.949 . S
H1336 C1340 0.949 . S
C1337 C1338 1.349 . S
C1337 C1339 1.327 . S
C1337 H1360 0.950 . S
C1338 C1337 1.349 . S
C1338 C1350 1.349 . S
C1339 C1337 1.327 . S
C1339 C1355 1.429 . S
C1339 H1361 0.950 . S
C1340 H1336 0.949 . S
C1340 C1348 1.574 . S
C1340 C1356 1.368 . S
H1341 C1349 0.950 . S
H1342 C1347 0.950 . S
H1343 C1348 0.949 . S
H1344 C1350 0.950 . S
H1345 C1351 0.950 . S
H1346 C1352 0.949 . S
C1347 H1342 0.950 . S
C1347 C1349 1.327 . S
C1347 C1353 1.429 . S
C1348 C1340 1.574 . S
C1348 H1343 0.949 . S
C1348 C1354 1.368 . S
C1349 C1333 1.349 . S
C1349 H1341 0.950 . S
C1349 C1347 1.327 . S
C1350 C1338 1.349 . S
C1350 H1344 0.950 . S
C1350 C1351 1.327 . S
C1351 H1345 0.950 . S
C1351 C1350 1.327 . S
C1351 C1355 1.429 . S
C1352 C1335 1.574 . S
C1352 H1346 0.949 . S
C1352 C1356 1.368 . S
C1353 C1334 1.429 . S
C1353 C1347 1.429 . S
C1353 C1354 1.523 . S
C1354 C1335 1.368 . S
C1354 C1348 1.368 . S
C1354 C1353 1.523 . S
C1355 C1339 1.429 . S
C1355 C1351 1.429 . S
C1355 C1356 1.523 . S
C1356 C1340 1.368 . S
C1356 C1352 1.368 . S
C1356 C1355 1.523 . S
H1357 C1332 0.950 . S
H1358 C1334 0.950 . S
H1359 C1335 0.949 . S
H1360 C1337 0.950 . S
H1361 C1339 0.950 . S
C1362 C1363 1.349 . S
C1362 C1364 1.327 . S
C1362 H1387 0.950 . S
C1363 C1362 1.349 . S
C1363 C1379 1.349 . S
C1364 C1362 1.327 . S
C1364 C1383 1.429 . S
C1364 H1388 0.950 . S
C1365 C1382 1.574 . S
C1365 C1384 1.368 . S
C1365 H1389 0.949 . S
H1366 C1370 0.949 . S
C1367 C1368 1.349 . S
C1367 C1369 1.327 . S
C1367 H1390 0.950 . S
C1368 C1367 1.349 . S
C1368 C1380 1.349 . S
C1369 C1367 1.327 . S
C1369 C1385 1.429 . S
C1369 H1391 0.950 . S
C1370 H1366 0.949 . S
C1370 C1378 1.574 . S
C1370 C1386 1.368 . S
H1371 C1379 0.950 . S
H1372 C1377 0.950 . S
H1373 C1378 0.949 . S
H1374 C1380 0.950 . S
H1375 C1381 0.950 . S
H1376 C1382 0.949 . S
C1377 H1372 0.950 . S
C1377 C1379 1.327 . S
C1377 C1383 1.429 . S
C1378 C1370 1.574 . S
C1378 H1373 0.949 . S
C1378 C1384 1.368 . S
C1379 C1363 1.349 . S
C1379 H1371 0.950 . S
C1379 C1377 1.327 . S
C1380 C1368 1.349 . S
C1380 H1374 0.950 . S
C1380 C1381 1.327 . S
C1381 H1375 0.950 . S
C1381 C1380 1.327 . S
C1381 C1385 1.429 . S
C1382 C1365 1.574 . S
C1382 H1376 0.949 . S
C1382 C1386 1.368 . S
C1383 C1364 1.429 . S
C1383 C1377 1.429 . S
C1383 C1384 1.523 . S
C1384 C1365 1.368 . S
C1384 C1378 1.368 . S
C1384 C1383 1.523 . S
C1385 C1369 1.429 . S
C1385 C1381 1.429 . S
C1385 C1386 1.523 . S
C1386 C1370 1.368 . S
C1386 C1382 1.368 . S
C1386 C1385 1.523 . S
H1387 C1362 0.950 . S
H1388 C1364 0.950 . S
H1389 C1365 0.949 . S
H1390 C1367 0.950 . S
H1391 C1369 0.950 . S
C1392 C1393 1.349 . S
C1392 C1394 1.327 . S
C1392 H1417 0.950 . S
C1393 C1392 1.349 . S
C1393 C1409 1.349 . S
C1394 C1392 1.327 . S
C1394 C1413 1.429 . S
C1394 H1418 0.950 . S
C1395 C1412 1.574 . S
C1395 C1414 1.368 . S
C1395 H1419 0.949 . S
H1396 C1400 0.949 . S
C1397 C1398 1.349 . S
C1397 C1399 1.327 . S
C1397 H1420 0.950 . S
C1398 C1397 1.349 . S
C1398 C1410 1.349 . S
C1399 C1397 1.327 . S
C1399 C1415 1.429 . S
C1399 H1421 0.950 . S
C1400 H1396 0.949 . S
C1400 C1408 1.574 . S
C1400 C1416 1.368 . S
H1401 C1409 0.950 . S
H1402 C1407 0.950 . S
H1403 C1408 0.949 . S
H1404 C1410 0.950 . S
H1405 C1411 0.950 . S
H1406 C1412 0.949 . S
C1407 H1402 0.950 . S
C1407 C1409 1.327 . S
C1407 C1413 1.429 . S
C1408 C1400 1.574 . S
C1408 H1403 0.949 . S
C1408 C1414 1.368 . S
C1409 C1393 1.349 . S
C1409 H1401 0.950 . S
C1409 C1407 1.327 . S
C1410 C1398 1.349 . S
C1410 H1404 0.950 . S
C1410 C1411 1.327 . S
C1411 H1405 0.950 . S
C1411 C1410 1.327 . S
C1411 C1415 1.429 . S
C1412 C1395 1.574 . S
C1412 H1406 0.949 . S
C1412 C1416 1.368 . S
C1413 C1394 1.429 . S
C1413 C1407 1.429 . S
C1413 C1414 1.523 . S
C1414 C1395 1.368 . S
C1414 C1408 1.368 . S
C1414 C1413 1.523 . S
C1415 C1399 1.429 . S
C1415 C1411 1.429 . S
C1415 C1416 1.523 . S
C1416 C1400 1.368 . S
C1416 C1412 1.368 . S
C1416 C1415 1.523 . S
H1417 C1392 0.950 . S
H1418 C1394 0.950 . S
H1419 C1395 0.949 . S
H1420 C1397 0.950 . S
H1421 C1399 0.950 . S
C1422 C1423 1.349 . S
C1422 C1424 1.327 . S
C1422 H1447 0.950 . S
C1423 C1422 1.349 . S
C1423 C1439 1.349 . S
C1424 C1422 1.327 . S
C1424 C1443 1.429 . S
C1424 H1448 0.950 . S
C1425 C1442 1.574 . S
C1425 C1444 1.368 . S
C1425 H1449 0.949 . S
H1426 C1430 0.949 1_545 S
C1427 C1428 1.349 . S
C1427 C1429 1.327 . S
C1427 H1450 0.950 . S
C1428 C1427 1.349 . S
C1428 C1440 1.349 1_565 S
C1429 C1427 1.327 . S
C1429 C1445 1.429 . S
C1429 H1451 0.950 . S
C1430 H1426 0.949 1_565 S
C1430 C1438 1.574 . S
C1430 C1446 1.368 . S
H1431 C1439 0.950 . S
H1432 C1437 0.950 . S
H1433 C1438 0.949 1_545 S
H1434 C1440 0.950 . S
H1435 C1441 0.950 . S
H1436 C1442 0.949 . S
C1437 H1432 0.950 . S
C1437 C1439 1.327 . S
C1437 C1443 1.429 . S
C1438 C1430 1.574 . S
C1438 H1433 0.949 1_565 S
C1438 C1444 1.368 . S
C1439 C1423 1.349 . S
C1439 H1431 0.950 . S
C1439 C1437 1.327 . S
C1440 C1428 1.349 1_545 S
C1440 H1434 0.950 . S
C1440 C1441 1.327 . S
C1441 H1435 0.950 . S
C1441 C1440 1.327 . S
C1441 C1445 1.429 1_545 S
C1442 C1425 1.574 . S
C1442 H1436 0.949 . S
C1442 C1446 1.368 . S
C1443 C1424 1.429 . S
C1443 C1437 1.429 . S
C1443 C1444 1.523 . S
C1444 C1425 1.368 . S
C1444 C1438 1.368 . S
C1444 C1443 1.523 . S
C1445 C1429 1.429 . S
C1445 C1441 1.429 1_565 S
C1445 C1446 1.523 . S
C1446 C1430 1.368 . S
C1446 C1442 1.368 . S
C1446 C1445 1.523 . S
H1447 C1422 0.950 . S
H1448 C1424 0.950 . S
H1449 C1425 0.949 . S
H1450 C1427 0.950 . S
H1451 C1429 0.950 . S
C1452 C1453 1.349 . S
C1452 C1454 1.327 . S
C1452 H1477 0.950 . S
C1453 C1452 1.349 . S
C1453 C1469 1.349 . S
C1454 C1452 1.327 . S
C1454 C1473 1.429 . S
C1454 H1478 0.950 . S
C1455 C1472 1.574 . S
C1455 C1474 1.368 . S
C1455 H1479 0.949 . S
H1456 C1460 0.949 . S
C1457 C1458 1.349 . S
C1457 C1459 1.327 . S
C1457 H1480 0.950 . S
C1458 C1457 1.349 . S
C1458 C1470 1.349 . S
C1459 C1457 1.327 . S
C1459 C1475 1.429 . S
C1459 H1481 0.950 . S
C1460 H1456 0.949 . S
C1460 C1468 1.574 . S
C1460 C1476 1.368 . S
H1461 C1469 0.950 . S
H1462 C1467 0.950 . S
H1463 C1468 0.949 . S
H1464 C1470 0.950 . S
H1465 C1471 0.950 . S
H1466 C1472 0.949 . S
C1467 H1462 0.950 . S
C1467 C1469 1.327 . S
C1467 C1473 1.429 . S
C1468 C1460 1.574 . S
C1468 H1463 0.949 . S
C1468 C1474 1.368 . S
C1469 C1453 1.349 . S
C1469 H1461 0.950 . S
C1469 C1467 1.327 . S
C1470 C1458 1.349 . S
C1470 H1464 0.950 . S
C1470 C1471 1.327 . S
C1471 H1465 0.950 . S
C1471 C1470 1.327 . S
C1471 C1475 1.429 . S
C1472 C1455 1.574 . S
C1472 H1466 0.949 . S
C1472 C1476 1.368 . S
C1473 C1454 1.429 . S
C1473 C1467 1.429 . S
C1473 C1474 1.523 . S
C1474 C1455 1.368 . S
C1474 C1468 1.368 . S
C1474 C1473 1.523 . S
C1475 C1459 1.429 . S
C1475 C1471 1.429 . S
C1475 C1476 1.523 . S
C1476 C1460 1.368 . S
C1476 C1472 1.368 . S
C1476 C1475 1.523 . S
H1477 C1452 0.950 . S
H1478 C1454 0.950 . S
H1479 C1455 0.949 . S
H1480 C1457 0.950 . S
H1481 C1459 0.950 . S
C1482 C1483 1.349 . S
C1482 C1484 1.327 . S
C1482 H1507 0.950 . S
C1483 C1482 1.349 . S
C1483 C1499 1.349 . S
C1484 C1482 1.327 . S
C1484 C1503 1.429 . S
C1484 H1508 0.950 . S
C1485 C1502 1.574 . S
C1485 C1504 1.368 . S
C1485 H1509 0.949 . S
H1486 C1490 0.949 . S
C1487 C1488 1.349 . S
C1487 C1489 1.327 . S
C1487 H1510 0.950 . S
C1488 C1487 1.349 . S
C1488 C1500 1.349 . S
C1489 C1487 1.327 . S
C1489 C1505 1.429 . S
C1489 H1511 0.950 . S
C1490 H1486 0.949 . S
C1490 C1498 1.574 . S
C1490 C1506 1.368 . S
H1491 C1499 0.950 . S
H1492 C1497 0.950 . S
H1493 C1498 0.949 . S
H1494 C1500 0.950 . S
H1495 C1501 0.950 . S
H1496 C1502 0.949 . S
C1497 H1492 0.950 . S
C1497 C1499 1.327 . S
C1497 C1503 1.429 . S
C1498 C1490 1.574 . S
C1498 H1493 0.949 . S
C1498 C1504 1.368 . S
C1499 C1483 1.349 . S
C1499 H1491 0.950 . S
C1499 C1497 1.327 . S
C1500 C1488 1.349 . S
C1500 H1494 0.950 . S
C1500 C1501 1.327 . S
C1501 H1495 0.950 . S
C1501 C1500 1.327 . S
C1501 C1505 1.429 . S
C1502 C1485 1.574 . S
C1502 H1496 0.949 . S
C1502 C1506 1.368 . S
C1503 C1484 1.429 . S
C1503 C1497 1.429 . S
C1503 C1504 1.523 . S
C1504 C1485 1.368 . S
C1504 C1498 1.368 . S
C1504 C1503 1.523 . S
C1505 C1489 1.429 . S
C1505 C1501 1.429 . S
C1505 C1506 1.523 . S
C1506 C1490 1.368 . S
C1506 C1502 1.368 . S
C1506 C1505 1.523 . S
H1507 C1482 0.950 . S
H1508 C1484 0.950 . S
H1509 C1485 0.949 . S
H1510 C1487 0.950 . S
H1511 C1489 0.950 . S
C1512 C1513 1.349 . S
C1512 C1514 1.327 . S
C1512 H1537 0.950 . S
C1513 C1512 1.349 . S
C1513 C1529 1.349 1_655 S
C1514 C1512 1.327 . S
C1514 C1533 1.429 . S
C1514 H1538 0.950 . S
C1515 C1532 1.574 . S
C1515 C1534 1.368 . S
C1515 H1539 0.949 . S
H1516 C1520 0.949 . S
C1517 C1518 1.349 . S
C1517 C1519 1.327 . S
C1517 H1540 0.950 . S
C1518 C1517 1.349 . S
C1518 C1530 1.349 . S
C1519 C1517 1.327 . S
C1519 C1535 1.429 . S
C1519 H1541 0.950 . S
C1520 H1516 0.949 . S
C1520 C1528 1.574 . S
C1520 C1536 1.368 . S
H1521 C1529 0.950 . S
H1522 C1527 0.949 . S
H1523 C1528 0.949 . S
H1524 C1530 0.950 . S
H1525 C1531 0.950 . S
H1526 C1532 0.949 . S
C1527 H1522 0.949 . S
C1527 C1529 1.327 1_655 S
C1527 C1533 1.429 . S
C1528 C1520 1.574 . S
C1528 H1523 0.949 . S
C1528 C1534 1.368 . S
C1529 C1513 1.349 1_455 S
C1529 H1521 0.950 . S
C1529 C1527 1.327 1_455 S
C1530 C1518 1.349 . S
C1530 H1524 0.950 . S
C1530 C1531 1.327 . S
C1531 H1525 0.950 . S
C1531 C1530 1.327 . S
C1531 C1535 1.429 . S
C1532 C1515 1.574 . S
C1532 H1526 0.949 . S
C1532 C1536 1.368 . S
C1533 C1514 1.429 . S
C1533 C1527 1.429 . S
C1533 C1534 1.523 . S
C1534 C1515 1.368 . S
C1534 C1528 1.368 . S
C1534 C1533 1.523 . S
C1535 C1519 1.429 . S
C1535 C1531 1.429 . S
C1535 C1536 1.523 . S
C1536 C1520 1.368 . S
C1536 C1532 1.368 . S
C1536 C1535 1.523 . S
H1537 C1512 0.950 . S
H1538 C1514 0.950 . S
H1539 C1515 0.949 . S
H1540 C1517 0.950 . S
H1541 C1519 0.950 . S
C1542 C1543 1.349 . S
C1542 C1544 1.327 . S
C1542 H1567 0.950 . S
C1543 C1542 1.349 . S
C1543 C1559 1.349 . S
C1544 C1542 1.327 . S
C1544 C1563 1.429 . S
C1544 H1568 0.950 . S
C1545 C1562 1.574 . S
C1545 C1564 1.368 . S
C1545 H1569 0.949 . S
H1546 C1550 0.949 . S
C1547 C1548 1.349 . S
C1547 C1549 1.327 . S
C1547 H1570 0.950 . S
C1548 C1547 1.349 . S
C1548 C1560 1.349 . S
C1549 C1547 1.327 . S
C1549 C1565 1.429 . S
C1549 H1571 0.950 . S
C1550 H1546 0.949 . S
C1550 C1558 1.574 . S
C1550 C1566 1.368 . S
H1551 C1559 0.950 . S
H1552 C1557 0.950 . S
H1553 C1558 0.949 . S
H1554 C1560 0.950 . S
H1555 C1561 0.950 . S
H1556 C1562 0.949 . S
C1557 H1552 0.950 . S
C1557 C1559 1.327 . S
C1557 C1563 1.429 . S
C1558 C1550 1.574 . S
C1558 H1553 0.949 . S
C1558 C1564 1.368 . S
C1559 C1543 1.349 . S
C1559 H1551 0.950 . S
C1559 C1557 1.327 . S
C1560 C1548 1.349 . S
C1560 H1554 0.950 . S
C1560 C1561 1.327 . S
C1561 H1555 0.950 . S
C1561 C1560 1.327 . S
C1561 C1565 1.429 . S
C1562 C1545 1.574 . S
C1562 H1556 0.949 . S
C1562 C1566 1.368 . S
C1563 C1544 1.429 . S
C1563 C1557 1.429 . S
C1563 C1564 1.523 . S
C1564 C1545 1.368 . S
C1564 C1558 1.368 . S
C1564 C1563 1.523 . S
C1565 C1549 1.429 . S
C1565 C1561 1.429 . S
C1565 C1566 1.523 . S
C1566 C1550 1.368 . S
C1566 C1562 1.368 . S
C1566 C1565 1.523 . S
H1567 C1542 0.950 . S
H1568 C1544 0.950 . S
H1569 C1545 0.949 . S
H1570 C1547 0.950 . S
H1571 C1549 0.950 . S
C1572 C1573 1.349 . S
C1572 C1574 1.327 . S
C1572 H1597 0.950 . S
C1573 C1572 1.349 . S
C1573 C1589 1.349 . S
C1574 C1572 1.327 . S
C1574 C1593 1.429 . S
C1574 H1598 0.950 . S
C1575 C1592 1.574 . S
C1575 C1594 1.368 . S
C1575 H1599 0.949 . S
H1576 C1580 0.949 . S
C1577 C1578 1.349 . S
C1577 C1579 1.327 . S
C1577 H1600 0.950 . S
C1578 C1577 1.349 . S
C1578 C1590 1.349 . S
C1579 C1577 1.327 . S
C1579 C1595 1.429 . S
C1579 H1601 0.950 . S
C1580 H1576 0.949 . S
C1580 C1588 1.574 . S
C1580 C1596 1.368 . S
H1581 C1589 0.950 . S
H1582 C1587 0.950 . S
H1583 C1588 0.949 . S
H1584 C1590 0.950 . S
H1585 C1591 0.950 . S
H1586 C1592 0.949 . S
C1587 H1582 0.950 . S
C1587 C1589 1.327 . S
C1587 C1593 1.429 . S
C1588 C1580 1.574 . S
C1588 H1583 0.949 . S
C1588 C1594 1.368 . S
C1589 C1573 1.349 . S
C1589 H1581 0.950 . S
C1589 C1587 1.327 . S
C1590 C1578 1.349 . S
C1590 H1584 0.950 . S
C1590 C1591 1.327 . S
C1591 H1585 0.950 . S
C1591 C1590 1.327 . S
C1591 C1595 1.429 . S
C1592 C1575 1.574 . S
C1592 H1586 0.949 . S
C1592 C1596 1.368 . S
C1593 C1574 1.429 . S
C1593 C1587 1.429 . S
C1593 C1594 1.523 . S
C1594 C1575 1.368 . S
C1594 C1588 1.368 . S
C1594 C1593 1.523 . S
C1595 C1579 1.429 . S
C1595 C1591 1.429 . S
C1595 C1596 1.523 . S
C1596 C1580 1.368 . S
C1596 C1592 1.368 . S
C1596 C1595 1.523 . S
H1597 C1572 0.950 . S
H1598 C1574 0.950 . S
H1599 C1575 0.949 . S
H1600 C1577 0.950 . S
H1601 C1579 0.950 . S
C1602 C1603 1.349 . S
C1602 C1604 1.322 1_655 S
C1602 H1627 0.950 . S
C1603 C1602 1.349 . S
C1603 C1619 1.349 . S
C1604 C1602 1.322 1_455 S
C1604 C1623 1.426 1_455 S
C1604 H1628 0.957 . S
C1605 C1622 1.574 1_655 S
C1605 C1624 1.368 1_655 S
C1605 H1629 0.949 . S
H1606 C1610 0.949 . S
C1607 C1608 1.349 . S
C1607 C1609 1.327 . S
C1607 H1630 0.950 . S
C1608 C1607 1.349 . S
C1608 C1620 1.349 . S
C1609 C1607 1.327 . S
C1609 C1625 1.429 . S
C1609 H1631 0.950 . S
C1610 H1606 0.949 . S
C1610 C1618 1.574 . S
C1610 C1626 1.368 . S
H1611 C1619 0.950 . S
H1612 C1617 0.950 . S
H1613 C1618 0.949 . S
H1614 C1620 0.950 . S
H1615 C1621 0.950 . S
H1616 C1622 0.949 1_655 S
C1617 H1612 0.950 . S
C1617 C1619 1.327 . S
C1617 C1623 1.429 . S
C1618 C1610 1.574 . S
C1618 H1613 0.949 . S
C1618 C1624 1.368 . S
C1619 C1603 1.349 . S
C1619 H1611 0.950 . S
C1619 C1617 1.327 . S
C1620 C1608 1.349 . S
C1620 H1614 0.950 . S
C1620 C1621 1.327 . S
C1621 H1615 0.950 . S
C1621 C1620 1.327 . S
C1621 C1625 1.429 . S
C1622 C1605 1.574 1_455 S
C1622 H1616 0.949 1_455 S
C1622 C1626 1.368 . S
C1623 C1604 1.426 1_655 S
C1623 C1617 1.429 . S
C1623 C1624 1.523 1_655 S
C1624 C1605 1.368 1_455 S
C1624 C1618 1.368 . S
C1624 C1623 1.523 1_455 S
C1625 C1609 1.429 . S
C1625 C1621 1.429 . S
C1625 C1626 1.523 . S
C1626 C1610 1.368 . S
C1626 C1622 1.368 . S
C1626 C1625 1.523 . S
H1627 C1602 0.950 . S
H1628 C1604 0.957 . S
H1629 C1605 0.949 . S
H1630 C1607 0.950 . S
H1631 C1609 0.950 . S
C1632 C1633 1.349 . S
C1632 C1634 1.327 . S
C1632 H1657 0.950 . S
C1633 C1632 1.349 . S
C1633 C1649 1.349 . S
C1634 C1632 1.327 . S
C1634 C1653 1.429 . S
C1634 H1658 0.950 . S
C1635 C1652 1.574 . S
C1635 C1654 1.368 . S
C1635 H1659 0.949 . S
H1636 C1640 0.949 . S
C1637 C1638 1.349 . S
C1637 C1639 1.327 . S
C1637 H1660 0.950 . S
C1638 C1637 1.349 . S
C1638 C1650 1.349 . S
C1639 C1637 1.327 . S
C1639 C1655 1.429 . S
C1639 H1661 0.950 . S
C1640 H1636 0.949 . S
C1640 C1648 1.574 . S
C1640 C1656 1.368 . S
H1641 C1649 0.950 . S
H1642 C1647 0.950 . S
H1643 C1648 0.949 . S
H1644 C1650 0.950 . S
H1645 C1651 0.950 . S
H1646 C1652 0.949 . S
C1647 H1642 0.950 . S
C1647 C1649 1.327 . S
C1647 C1653 1.429 . S
C1648 C1640 1.574 . S
C1648 H1643 0.949 . S
C1648 C1654 1.368 . S
C1649 C1633 1.349 . S
C1649 H1641 0.950 . S
C1649 C1647 1.327 . S
C1650 C1638 1.349 . S
C1650 H1644 0.950 . S
C1650 C1651 1.327 . S
C1651 H1645 0.950 . S
C1651 C1650 1.327 . S
C1651 C1655 1.429 . S
C1652 C1635 1.574 . S
C1652 H1646 0.949 . S
C1652 C1656 1.368 . S
C1653 C1634 1.429 . S
C1653 C1647 1.429 . S
C1653 C1654 1.523 . S
C1654 C1635 1.368 . S
C1654 C1648 1.368 . S
C1654 C1653 1.523 . S
C1655 C1639 1.429 . S
C1655 C1651 1.429 . S
C1655 C1656 1.523 . S
C1656 C1640 1.368 . S
C1656 C1652 1.368 . S
C1656 C1655 1.523 . S
H1657 C1632 0.950 . S
H1658 C1634 0.950 . S
H1659 C1635 0.949 . S
H1660 C1637 0.950 . S
H1661 C1639 0.950 . S
C1662 C1663 1.349 . S
C1662 C1664 1.327 . S
C1662 H1687 0.950 . S
C1663 C1662 1.349 . S
C1663 C1679 1.349 . S
C1664 C1662 1.327 . S
C1664 C1683 1.429 . S
C1664 H1688 0.950 1_565 S
C1665 C1682 1.574 1_565 S
C1665 C1684 1.368 1_565 S
C1665 H1689 0.949 . S
H1666 C1670 0.949 . S
C1667 C1668 1.349 . S
C1667 C1669 1.327 . S
C1667 H1690 0.950 . S
C1668 C1667 1.349 . S
C1668 C1680 1.349 . S
C1669 C1667 1.327 . S
C1669 C1685 1.429 . S
C1669 H1691 0.950 . S
C1670 H1666 0.949 . S
C1670 C1678 1.574 . S
C1670 C1686 1.368 . S
H1671 C1679 0.950 . S
H1672 C1677 0.950 . S
H1673 C1678 0.949 . S
H1674 C1680 0.950 . S
H1675 C1681 0.950 . S
H1676 C1682 0.949 . S
C1677 H1672 0.950 . S
C1677 C1679 1.327 . S
C1677 C1683 1.429 . S
C1678 C1670 1.574 . S
C1678 H1673 0.949 . S
C1678 C1684 1.368 . S
C1679 C1663 1.349 . S
C1679 H1671 0.950 . S
C1679 C1677 1.327 . S
C1680 C1668 1.349 . S
C1680 H1674 0.950 . S
C1680 C1681 1.327 . S
C1681 H1675 0.950 . S
C1681 C1680 1.327 . S
C1681 C1685 1.429 . S
C1682 C1665 1.574 1_545 S
C1682 H1676 0.949 . S
C1682 C1686 1.368 . S
C1683 C1664 1.429 . S
C1683 C1677 1.429 . S
C1683 C1684 1.523 1_565 S
C1684 C1665 1.368 1_545 S
C1684 C1678 1.368 . S
C1684 C1683 1.523 1_545 S
C1685 C1669 1.429 . S
C1685 C1681 1.429 . S
C1685 C1686 1.523 . S
C1686 C1670 1.368 . S
C1686 C1682 1.368 . S
C1686 C1685 1.523 . S
H1687 C1662 0.950 . S
H1688 C1664 0.950 1_545 S
H1689 C1665 0.949 . S
H1690 C1667 0.950 . S
H1691 C1669 0.950 . S
C1692 C1693 1.349 . S
C1692 C1694 1.327 . S
C1692 H1717 0.950 . S
C1693 C1692 1.349 . S
C1693 C1709 1.349 . S
C1694 C1692 1.327 . S
C1694 C1713 1.429 . S
C1694 H1718 0.950 . S
C1695 C1712 1.574 . S
C1695 C1714 1.368 . S
C1695 H1719 0.949 . S
H1696 C1700 0.949 . S
C1697 C1698 1.349 . S
C1697 C1699 1.327 . S
C1697 H1720 0.950 . S
C1698 C1697 1.349 . S
C1698 C1710 1.349 . S
C1699 C1697 1.327 . S
C1699 C1715 1.429 . S
C1699 H1721 0.950 . S
C1700 H1696 0.949 . S
C1700 C1708 1.574 . S
C1700 C1716 1.368 . S
H1701 C1709 0.950 . S
H1702 C1707 0.950 . S
H1703 C1708 0.949 . S
H1704 C1710 0.950 . S
H1705 C1711 0.950 . S
H1706 C1712 0.949 . S
C1707 H1702 0.950 . S
C1707 C1709 1.327 . S
C1707 C1713 1.429 . S
C1708 C1700 1.574 . S
C1708 H1703 0.949 . S
C1708 C1714 1.368 . S
C1709 C1693 1.349 . S
C1709 H1701 0.950 . S
C1709 C1707 1.327 . S
C1710 C1698 1.349 . S
C1710 H1704 0.950 . S
C1710 C1711 1.327 . S
C1711 H1705 0.950 . S
C1711 C1710 1.327 . S
C1711 C1715 1.429 . S
C1712 C1695 1.574 . S
C1712 H1706 0.949 . S
C1712 C1716 1.368 . S
C1713 C1694 1.429 . S
C1713 C1707 1.429 . S
C1713 C1714 1.523 . S
C1714 C1695 1.368 . S
C1714 C1708 1.368 . S
C1714 C1713 1.523 . S
C1715 C1699 1.429 . S
C1715 C1711 1.429 . S
C1715 C1716 1.523 . S
C1716 C1700 1.368 . S
C1716 C1712 1.368 . S
C1716 C1715 1.523 . S
H1717 C1692 0.950 . S
H1718 C1694 0.950 . S
H1719 C1695 0.949 . S
H1720 C1697 0.950 . S
H1721 C1699 0.950 . S
C1722 C1723 1.349 . S
C1722 C1724 1.327 . S
C1722 H1747 0.950 . S
C1723 C1722 1.349 . S
C1723 C1739 1.349 . S
C1724 C1722 1.327 . S
C1724 C1743 1.429 . S
C1724 H1748 0.950 . S
C1725 C1742 1.574 . S
C1725 C1744 1.368 . S
C1725 H1749 0.949 . S
H1726 C1730 0.949 . S
C1727 C1728 1.349 . S
C1727 C1729 1.327 . S
C1727 H1750 0.950 . S
C1728 C1727 1.349 . S
C1728 C1740 1.349 . S
C1729 C1727 1.327 . S
C1729 C1745 1.429 . S
C1729 H1751 0.950 . S
C1730 H1726 0.949 . S
C1730 C1738 1.574 . S
C1730 C1746 1.368 . S
H1731 C1739 0.950 . S
H1732 C1737 0.950 . S
H1733 C1738 0.949 . S
H1734 C1740 0.950 . S
H1735 C1741 0.950 . S
H1736 C1742 0.949 . S
C1737 H1732 0.950 . S
C1737 C1739 1.327 . S
C1737 C1743 1.429 . S
C1738 C1730 1.574 . S
C1738 H1733 0.949 . S
C1738 C1744 1.368 . S
C1739 C1723 1.349 . S
C1739 H1731 0.950 . S
C1739 C1737 1.327 . S
C1740 C1728 1.349 . S
C1740 H1734 0.950 . S
C1740 C1741 1.327 . S
C1741 H1735 0.950 . S
C1741 C1740 1.327 . S
C1741 C1745 1.429 . S
C1742 C1725 1.574 . S
C1742 H1736 0.949 . S
C1742 C1746 1.368 . S
C1743 C1724 1.429 . S
C1743 C1737 1.429 . S
C1743 C1744 1.523 . S
C1744 C1725 1.368 . S
C1744 C1738 1.368 . S
C1744 C1743 1.523 . S
C1745 C1729 1.429 . S
C1745 C1741 1.429 . S
C1745 C1746 1.523 . S
C1746 C1730 1.368 . S
C1746 C1742 1.368 . S
C1746 C1745 1.523 . S
H1747 C1722 0.950 . S
H1748 C1724 0.950 . S
H1749 C1725 0.949 . S
H1750 C1727 0.950 . S
H1751 C1729 0.950 . S
C1752 C1753 1.349 . S
C1752 C1754 1.327 . S
C1752 H1777 0.950 . S
C1753 C1752 1.349 . S
C1753 C1769 1.349 . S
C1754 C1752 1.327 . S
C1754 C1773 1.429 . S
C1754 H1778 0.950 . S
C1755 C1772 1.574 . S
C1755 C1774 1.368 . S
C1755 H1779 0.949 . S
H1756 C1760 0.949 . S
C1757 C1758 1.349 . S
C1757 C1759 1.327 . S
C1757 H1780 0.950 . S
C1758 C1757 1.349 . S
C1758 C1770 1.349 . S
C1759 C1757 1.327 . S
C1759 C1775 1.429 . S
C1759 H1781 0.950 . S
C1760 H1756 0.949 . S
C1760 C1768 1.574 . S
C1760 C1776 1.368 . S
H1761 C1769 0.950 . S
H1762 C1767 0.950 . S
H1763 C1768 0.949 . S
H1764 C1770 0.950 . S
H1765 C1771 0.950 . S
H1766 C1772 0.949 . S
C1767 H1762 0.950 . S
C1767 C1769 1.327 . S
C1767 C1773 1.429 . S
C1768 C1760 1.574 . S
C1768 H1763 0.949 . S
C1768 C1774 1.368 . S
C1769 C1753 1.349 . S
C1769 H1761 0.950 . S
C1769 C1767 1.327 . S
C1770 C1758 1.349 . S
C1770 H1764 0.950 . S
C1770 C1771 1.327 . S
C1771 H1765 0.950 . S
C1771 C1770 1.327 . S
C1771 C1775 1.429 . S
C1772 C1755 1.574 . S
C1772 H1766 0.949 . S
C1772 C1776 1.368 . S
C1773 C1754 1.429 . S
C1773 C1767 1.429 . S
C1773 C1774 1.523 . S
C1774 C1755 1.368 . S
C1774 C1768 1.368 . S
C1774 C1773 1.523 . S
C1775 C1759 1.429 . S
C1775 C1771 1.429 . S
C1775 C1776 1.523 . S
C1776 C1760 1.368 . S
C1776 C1772 1.368 . S
C1776 C1775 1.523 . S
H1777 C1752 0.950 . S
H1778 C1754 0.950 . S
H1779 C1755 0.949 . S
H1780 C1757 0.950 . S
H1781 C1759 0.950 . S
C1782 C1783 1.349 . S
C1782 C1784 1.327 . S
C1782 H1807 0.950 . S
C1783 C1782 1.349 . S
C1783 C1799 1.349 . S
C1784 C1782 1.327 . S
C1784 C1803 1.429 . S
C1784 H1808 0.950 . S
C1785 C1802 1.574 . S
C1785 C1804 1.368 . S
C1785 H1809 0.949 . S
H1786 C1790 0.949 . S
C1787 C1788 1.349 . S
C1787 C1789 1.327 . S
C1787 H1810 0.950 . S
C1788 C1787 1.349 . S
C1788 C1800 1.349 . S
C1789 C1787 1.327 . S
C1789 C1805 1.429 . S
C1789 H1811 0.950 . S
C1790 H1786 0.949 . S
C1790 C1798 1.574 . S
C1790 C1806 1.368 . S
H1791 C1799 0.950 . S
H1792 C1797 0.950 . S
H1793 C1798 0.949 . S
H1794 C1800 0.950 . S
H1795 C1801 0.950 . S
H1796 C1802 0.949 . S
C1797 H1792 0.950 . S
C1797 C1799 1.327 . S
C1797 C1803 1.429 . S
C1798 C1790 1.574 . S
C1798 H1793 0.949 . S
C1798 C1804 1.368 . S
C1799 C1783 1.349 . S
C1799 H1791 0.950 . S
C1799 C1797 1.327 . S
C1800 C1788 1.349 . S
C1800 H1794 0.950 . S
C1800 C1801 1.327 . S
C1801 H1795 0.950 . S
C1801 C1800 1.327 . S
C1801 C1805 1.429 . S
C1802 C1785 1.574 . S
C1802 H1796 0.949 . S
C1802 C1806 1.368 . S
C1803 C1784 1.429 . S
C1803 C1797 1.429 . S
C1803 C1804 1.523 . S
C1804 C1785 1.368 . S
C1804 C1798 1.368 . S
C1804 C1803 1.523 . S
C1805 C1789 1.429 . S
C1805 C1801 1.429 . S
C1805 C1806 1.523 . S
C1806 C1790 1.368 . S
C1806 C1802 1.368 . S
C1806 C1805 1.523 . S
H1807 C1782 0.950 . S
H1808 C1784 0.950 . S
H1809 C1785 0.949 . S
H1810 C1787 0.950 . S
H1811 C1789 0.950 . S
C1812 C1813 1.349 . S
C1812 C1814 1.327 . S
C1812 H1837 0.950 . S
C1813 C1812 1.349 . S
C1813 C1829 1.349 . S
C1814 C1812 1.327 . S
C1814 C1833 1.429 . S
C1814 H1838 0.950 . S
C1815 C1832 1.574 . S
C1815 C1834 1.368 . S
C1815 H1839 0.949 . S
H1816 C1820 0.949 . S
C1817 C1818 1.349 . S
C1817 C1819 1.327 . S
C1817 H1840 0.950 . S
C1818 C1817 1.349 . S
C1818 C1830 1.349 . S
C1819 C1817 1.327 . S
C1819 C1835 1.429 . S
C1819 H1841 0.950 . S
C1820 H1816 0.949 . S
C1820 C1828 1.574 . S
C1820 C1836 1.368 . S
H1821 C1829 0.950 . S
H1822 C1827 0.950 . S
H1823 C1828 0.949 . S
H1824 C1830 0.950 . S
H1825 C1831 0.950 . S
H1826 C1832 0.949 . S
C1827 H1822 0.950 . S
C1827 C1829 1.327 . S
C1827 C1833 1.429 . S
C1828 C1820 1.574 . S
C1828 H1823 0.949 . S
C1828 C1834 1.368 . S
C1829 C1813 1.349 . S
C1829 H1821 0.950 . S
C1829 C1827 1.327 . S
C1830 C1818 1.349 . S
C1830 H1824 0.950 . S
C1830 C1831 1.327 . S
C1831 H1825 0.950 . S
C1831 C1830 1.327 . S
C1831 C1835 1.429 . S
C1832 C1815 1.574 . S
C1832 H1826 0.949 . S
C1832 C1836 1.368 . S
C1833 C1814 1.429 . S
C1833 C1827 1.429 . S
C1833 C1834 1.523 . S
C1834 C1815 1.368 . S
C1834 C1828 1.368 . S
C1834 C1833 1.523 . S
C1835 C1819 1.429 . S
C1835 C1831 1.429 . S
C1835 C1836 1.523 . S
C1836 C1820 1.368 . S
C1836 C1832 1.368 . S
C1836 C1835 1.523 . S
H1837 C1812 0.950 . S
H1838 C1814 0.950 . S
H1839 C1815 0.949 . S
H1840 C1817 0.950 . S
H1841 C1819 0.950 . S
C1842 C1843 1.349 . S
C1842 C1844 1.327 . S
C1842 H1867 0.950 . S
C1843 C1842 1.349 . S
C1843 C1859 1.349 . S
C1844 C1842 1.327 . S
C1844 C1863 1.429 . S
C1844 H1868 0.950 . S
C1845 C1862 1.574 . S
C1845 C1864 1.368 . S
C1845 H1869 0.949 . S
H1846 C1850 0.949 . S
C1847 C1848 1.349 . S
C1847 C1849 1.327 . S
C1847 H1870 0.950 . S
C1848 C1847 1.349 . S
C1848 C1860 1.349 . S
C1849 C1847 1.327 . S
C1849 C1865 1.429 . S
C1849 H1871 0.950 . S
C1850 H1846 0.949 . S
C1850 C1858 1.574 . S
C1850 C1866 1.368 . S
H1851 C1859 0.950 . S
H1852 C1857 0.950 . S
H1853 C1858 0.949 . S
H1854 C1860 0.950 . S
H1855 C1861 0.950 . S
H1856 C1862 0.949 . S
C1857 H1852 0.950 . S
C1857 C1859 1.327 . S
C1857 C1863 1.429 . S
C1858 C1850 1.574 . S
C1858 H1853 0.949 . S
C1858 C1864 1.368 . S
C1859 C1843 1.349 . S
C1859 H1851 0.950 . S
C1859 C1857 1.327 . S
C1860 C1848 1.349 . S
C1860 H1854 0.950 . S
C1860 C1861 1.327 . S
C1861 H1855 0.950 . S
C1861 C1860 1.327 . S
C1861 C1865 1.429 . S
C1862 C1845 1.574 . S
C1862 H1856 0.949 . S
C1862 C1866 1.368 . S
C1863 C1844 1.429 . S
C1863 C1857 1.429 . S
C1863 C1864 1.523 . S
C1864 C1845 1.368 . S
C1864 C1858 1.368 . S
C1864 C1863 1.523 . S
C1865 C1849 1.429 . S
C1865 C1861 1.429 . S
C1865 C1866 1.523 . S
C1866 C1850 1.368 . S
C1866 C1862 1.368 . S
C1866 C1865 1.523 . S
H1867 C1842 0.950 . S
H1868 C1844 0.950 . S
H1869 C1845 0.949 . S
H1870 C1847 0.950 . S
H1871 C1849 0.950 . S
C1872 C1873 1.349 . S
C1872 C1874 1.327 . S
C1872 H1897 0.950 . S
C1873 C1872 1.349 . S
C1873 C1889 1.349 . S
C1874 C1872 1.327 . S
C1874 C1893 1.429 . S
C1874 H1898 0.950 . S
C1875 C1892 1.574 . S
C1875 C1894 1.368 . S
C1875 H1899 0.949 . S
H1876 C1880 0.949 . S
C1877 C1878 1.349 . S
C1877 C1879 1.327 . S
C1877 H1900 0.950 . S
C1878 C1877 1.349 . S
C1878 C1890 1.349 . S
C1879 C1877 1.327 . S
C1879 C1895 1.429 . S
C1879 H1901 0.950 . S
C1880 H1876 0.949 . S
C1880 C1888 1.574 . S
C1880 C1896 1.368 . S
H1881 C1889 0.950 . S
H1882 C1887 0.950 . S
H1883 C1888 0.949 . S
H1884 C1890 0.950 . S
H1885 C1891 0.950 . S
H1886 C1892 0.949 . S
C1887 H1882 0.950 . S
C1887 C1889 1.327 . S
C1887 C1893 1.429 . S
C1888 C1880 1.574 . S
C1888 H1883 0.949 . S
C1888 C1894 1.368 . S
C1889 C1873 1.349 . S
C1889 H1881 0.950 . S
C1889 C1887 1.327 . S
C1890 C1878 1.349 . S
C1890 H1884 0.950 . S
C1890 C1891 1.327 . S
C1891 H1885 0.950 . S
C1891 C1890 1.327 . S
C1891 C1895 1.429 . S
C1892 C1875 1.574 . S
C1892 H1886 0.949 . S
C1892 C1896 1.368 . S
C1893 C1874 1.429 . S
C1893 C1887 1.429 . S
C1893 C1894 1.523 . S
C1894 C1875 1.368 . S
C1894 C1888 1.368 . S
C1894 C1893 1.523 . S
C1895 C1879 1.429 . S
C1895 C1891 1.429 . S
C1895 C1896 1.523 . S
C1896 C1880 1.368 . S
C1896 C1892 1.368 . S
C1896 C1895 1.523 . S
H1897 C1872 0.950 . S
H1898 C1874 0.950 . S
H1899 C1875 0.949 . S
H1900 C1877 0.950 . S
H1901 C1879 0.950 . S
C1902 C1903 1.349 . S
C1902 C1904 1.327 . S
C1902 H1927 0.950 . S
C1903 C1902 1.349 . S
C1903 C1919 1.349 . S
C1904 C1902 1.327 . S
C1904 C1923 1.429 . S
C1904 H1928 0.950 . S
C1905 C1922 1.574 . S
C1905 C1924 1.368 . S
C1905 H1929 0.949 . S
H1906 C1910 0.949 . S
C1907 C1908 1.349 . S
C1907 C1909 1.327 . S
C1907 H1930 0.950 . S
C1908 C1907 1.349 . S
C1908 C1920 1.349 . S
C1909 C1907 1.327 . S
C1909 C1925 1.429 . S
C1909 H1931 0.950 . S
C1910 H1906 0.949 . S
C1910 C1918 1.574 . S
C1910 C1926 1.368 . S
H1911 C1919 0.950 . S
H1912 C1917 0.950 . S
H1913 C1918 0.949 . S
H1914 C1920 0.950 . S
H1915 C1921 0.950 . S
H1916 C1922 0.949 . S
C1917 H1912 0.950 . S
C1917 C1919 1.327 . S
C1917 C1923 1.429 . S
C1918 C1910 1.574 . S
C1918 H1913 0.949 . S
C1918 C1924 1.368 . S
C1919 C1903 1.349 . S
C1919 H1911 0.950 . S
C1919 C1917 1.327 . S
C1920 C1908 1.349 . S
C1920 H1914 0.950 . S
C1920 C1921 1.327 . S
C1921 H1915 0.950 . S
C1921 C1920 1.327 . S
C1921 C1925 1.429 . S
C1922 C1905 1.574 . S
C1922 H1916 0.949 . S
C1922 C1926 1.368 . S
C1923 C1904 1.429 . S
C1923 C1917 1.429 . S
C1923 C1924 1.523 . S
C1924 C1905 1.368 . S
C1924 C1918 1.368 . S
C1924 C1923 1.523 . S
C1925 C1909 1.429 . S
C1925 C1921 1.429 . S
C1925 C1926 1.523 . S
C1926 C1910 1.368 . S
C1926 C1922 1.368 . S
C1926 C1925 1.523 . S
H1927 C1902 0.950 . S
H1928 C1904 0.950 . S
H1929 C1905 0.949 . S
H1930 C1907 0.950 . S
H1931 C1909 0.950 . S
C1932 C1933 1.349 . S
C1932 C1934 1.327 . S
C1932 H1957 0.950 . S
C1933 C1932 1.349 . S
C1933 C1949 1.349 . S
C1934 C1932 1.327 . S
C1934 C1953 1.429 . S
C1934 H1958 0.950 . S
C1935 C1952 1.574 . S
C1935 C1954 1.368 . S
C1935 H1959 0.949 . S
H1936 C1940 0.949 . S
C1937 C1938 1.349 . S
C1937 C1939 1.327 . S
C1937 H1960 0.950 . S
C1938 C1937 1.349 . S
C1938 C1950 1.349 . S
C1939 C1937 1.327 . S
C1939 C1955 1.429 . S
C1939 H1961 0.950 . S
C1940 H1936 0.949 . S
C1940 C1948 1.574 . S
C1940 C1956 1.368 . S
H1941 C1949 0.950 . S
H1942 C1947 0.950 . S
H1943 C1948 0.949 . S
H1944 C1950 0.950 . S
H1945 C1951 0.950 . S
H1946 C1952 0.949 . S
C1947 H1942 0.950 . S
C1947 C1949 1.327 . S
C1947 C1953 1.429 . S
C1948 C1940 1.574 . S
C1948 H1943 0.949 . S
C1948 C1954 1.368 . S
C1949 C1933 1.349 . S
C1949 H1941 0.950 . S
C1949 C1947 1.327 . S
C1950 C1938 1.349 . S
C1950 H1944 0.950 . S
C1950 C1951 1.327 . S
C1951 H1945 0.950 . S
C1951 C1950 1.327 . S
C1951 C1955 1.429 . S
C1952 C1935 1.574 . S
C1952 H1946 0.949 . S
C1952 C1956 1.368 . S
C1953 C1934 1.429 . S
C1953 C1947 1.429 . S
C1953 C1954 1.523 . S
C1954 C1935 1.368 . S
C1954 C1948 1.368 . S
C1954 C1953 1.523 . S
C1955 C1939 1.429 . S
C1955 C1951 1.429 . S
C1955 C1956 1.523 . S
C1956 C1940 1.368 . S
C1956 C1952 1.368 . S
C1956 C1955 1.523 . S
H1957 C1932 0.950 . S
H1958 C1934 0.950 . S
H1959 C1935 0.949 . S
H1960 C1937 0.950 . S
H1961 C1939 0.950 . S
C1962 C1963 1.349 . S
C1962 C1964 1.327 . S
C1962 H1987 0.950 . S
C1963 C1962 1.349 . S
C1963 C1979 1.349 . S
C1964 C1962 1.327 . S
C1964 C1983 1.429 . S
C1964 H1988 0.950 . S
C1965 C1982 1.574 . S
C1965 C1984 1.368 . S
C1965 H1989 0.949 . S
H1966 C1970 0.949 . S
C1967 C1968 1.349 . S
C1967 C1969 1.327 . S
C1967 H1990 0.950 . S
C1968 C1967 1.349 . S
C1968 C1980 1.349 . S
C1969 C1967 1.327 . S
C1969 C1985 1.429 . S
C1969 H1991 0.950 . S
C1970 H1966 0.949 . S
C1970 C1978 1.574 . S
C1970 C1986 1.368 . S
H1971 C1979 0.950 . S
H1972 C1977 0.950 . S
H1973 C1978 0.949 . S
H1974 C1980 0.950 . S
H1975 C1981 0.950 . S
H1976 C1982 0.949 . S
C1977 H1972 0.950 . S
C1977 C1979 1.327 . S
C1977 C1983 1.429 . S
C1978 C1970 1.574 . S
C1978 H1973 0.949 . S
C1978 C1984 1.368 . S
C1979 C1963 1.349 . S
C1979 H1971 0.950 . S
C1979 C1977 1.327 . S
C1980 C1968 1.349 . S
C1980 H1974 0.950 . S
C1980 C1981 1.327 . S
C1981 H1975 0.950 . S
C1981 C1980 1.327 . S
C1981 C1985 1.429 . S
C1982 C1965 1.574 . S
C1982 H1976 0.949 . S
C1982 C1986 1.368 . S
C1983 C1964 1.429 . S
C1983 C1977 1.429 . S
C1983 C1984 1.523 . S
C1984 C1965 1.368 . S
C1984 C1978 1.368 . S
C1984 C1983 1.523 . S
C1985 C1969 1.429 . S
C1985 C1981 1.429 . S
C1985 C1986 1.523 1_455 S
C1986 C1970 1.368 . S
C1986 C1982 1.368 . S
C1986 C1985 1.523 1_655 S
H1987 C1962 0.950 . S
H1988 C1964 0.950 . S
H1989 C1965 0.949 . S
H1990 C1967 0.950 . S
H1991 C1969 0.950 . S
C1992 C1993 1.349 1_545 S
C1992 C1994 1.327 . S
C1992 H2017 0.950 . S
C1993 C1992 1.349 1_565 S
C1993 C2009 1.349 . S
C1994 C1992 1.327 . S
C1994 C2013 1.429 . S
C1994 H2018 0.950 . S
C1995 C2012 1.574 . S
C1995 C2014 1.368 . S
C1995 H2019 0.949 . S
H1996 C2000 0.949 . S
C1997 C1998 1.349 . S
C1997 C1999 1.327 . S
C1997 H2020 0.950 . S
C1998 C1997 1.349 . S
C1998 C2010 1.349 . S
C1999 C1997 1.327 . S
C1999 C2015 1.429 . S
C1999 H2021 0.950 . S
C2000 H1996 0.949 . S
C2000 C2008 1.574 . S
C2000 C2016 1.368 . S
H2001 C2009 0.950 . S
H2002 C2007 0.950 . S
H2003 C2008 0.949 . S
H2004 C2010 0.950 . S
H2005 C2011 0.950 . S
H2006 C2012 0.949 . S
C2007 H2002 0.950 . S
C2007 C2009 1.327 1_545 S
C2007 C2013 1.429 . S
C2008 C2000 1.574 . S
C2008 H2003 0.949 . S
C2008 C2014 1.368 . S
C2009 C1993 1.349 . S
C2009 H2001 0.950 . S
C2009 C2007 1.327 1_565 S
C2010 C1998 1.349 . S
C2010 H2004 0.950 . S
C2010 C2011 1.327 . S
C2011 H2005 0.950 . S
C2011 C2010 1.327 . S
C2011 C2015 1.429 . S
C2012 C1995 1.574 . S
C2012 H2006 0.949 . S
C2012 C2016 1.368 . S
C2013 C1994 1.429 . S
C2013 C2007 1.429 . S
C2013 C2014 1.523 . S
C2014 C1995 1.368 . S
C2014 C2008 1.368 . S
C2014 C2013 1.523 . S
C2015 C1999 1.429 . S
C2015 C2011 1.429 . S
C2015 C2016 1.523 . S
C2016 C2000 1.368 . S
C2016 C2012 1.368 . S
C2016 C2015 1.523 . S
H2017 C1992 0.950 . S
H2018 C1994 0.950 . S
H2019 C1995 0.949 . S
H2020 C1997 0.950 . S
H2021 C1999 0.950 . S
C2022 C2023 1.349 . S
C2022 C2024 1.327 1_565 S
C2022 H2047 0.950 . S
C2023 C2022 1.349 . S
C2023 C2039 1.349 . S
C2024 C2022 1.327 1_545 S
C2024 C2043 1.429 . S
C2024 H2048 0.950 . S
C2025 C2042 1.574 . S
C2025 C2044 1.368 . S
C2025 H2049 0.949 . S
H2026 C2030 0.949 . S
C2027 C2028 1.349 . S
C2027 C2029 1.327 . S
C2027 H2050 0.950 . S
C2028 C2027 1.349 . S
C2028 C2040 1.349 . S
C2029 C2027 1.327 . S
C2029 C2045 1.429 1_455 S
C2029 H2051 0.950 . S
C2030 H2026 0.949 . S
C2030 C2038 1.574 . S
C2030 C2046 1.368 . S
H2031 C2039 0.950 . S
H2032 C2037 0.951 1_545 S
H2033 C2038 0.949 . S
H2034 C2040 0.950 . S
H2035 C2041 0.950 . S
H2036 C2042 0.949 . S
C2037 H2032 0.951 1_565 S
C2037 C2039 1.327 . S
C2037 C2043 1.429 1_565 S
C2038 C2030 1.574 . S
C2038 H2033 0.949 . S
C2038 C2044 1.368 . S
C2039 C2023 1.349 . S
C2039 H2031 0.950 . S
C2039 C2037 1.327 . S
C2040 C2028 1.349 . S
C2040 H2034 0.950 . S
C2040 C2041 1.327 1_455 S
C2041 H2035 0.950 . S
C2041 C2040 1.327 1_655 S
C2041 C2045 1.429 . S
C2042 C2025 1.574 . S
C2042 H2036 0.949 . S
C2042 C2046 1.368 . S
C2043 C2024 1.429 . S
C2043 C2037 1.429 1_545 S
C2043 C2044 1.523 . S
C2044 C2025 1.368 . S
C2044 C2038 1.368 . S
C2044 C2043 1.523 . S
C2045 C2029 1.429 1_655 S
C2045 C2041 1.429 . S
C2045 C2046 1.523 . S
C2046 C2030 1.368 . S
C2046 C2042 1.368 . S
C2046 C2045 1.523 . S
H2047 C2022 0.950 . S
H2048 C2024 0.950 . S
H2049 C2025 0.949 . S
H2050 C2027 0.950 . S
H2051 C2029 0.950 . S
C2052 C2053 1.349 . S
C2052 C2054 1.327 . S
C2052 H2077 0.950 . S
C2053 C2052 1.349 . S
C2053 C2069 1.349 . S
C2054 C2052 1.327 . S
C2054 C2073 1.429 . S
C2054 H2078 0.950 . S
C2055 C2072 1.574 . S
C2055 C2074 1.368 . S
C2055 H2079 0.949 . S
H2056 C2060 0.949 . S
C2057 C2058 1.349 . S
C2057 C2059 1.327 . S
C2057 H2080 0.950 . S
C2058 C2057 1.349 . S
C2058 C2070 1.349 . S
C2059 C2057 1.327 . S
C2059 C2075 1.429 . S
C2059 H2081 0.950 . S
C2060 H2056 0.949 . S
C2060 C2068 1.574 . S
C2060 C2076 1.368 . S
H2061 C2069 0.950 . S
H2062 C2067 0.950 . S
H2063 C2068 0.949 . S
H2064 C2070 0.950 . S
H2065 C2071 0.950 . S
H2066 C2072 0.949 . S
C2067 H2062 0.950 . S
C2067 C2069 1.327 . S
C2067 C2073 1.429 . S
C2068 C2060 1.574 . S
C2068 H2063 0.949 . S
C2068 C2074 1.368 . S
C2069 C2053 1.349 . S
C2069 H2061 0.950 . S
C2069 C2067 1.327 . S
C2070 C2058 1.349 . S
C2070 H2064 0.950 . S
C2070 C2071 1.327 . S
C2071 H2065 0.950 . S
C2071 C2070 1.327 . S
C2071 C2075 1.429 . S
C2072 C2055 1.574 . S
C2072 H2066 0.949 . S
C2072 C2076 1.368 . S
C2073 C2054 1.429 . S
C2073 C2067 1.429 . S
C2073 C2074 1.523 . S
C2074 C2055 1.368 . S
C2074 C2068 1.368 . S
C2074 C2073 1.523 . S
C2075 C2059 1.429 . S
C2075 C2071 1.429 . S
C2075 C2076 1.523 1_545 S
C2076 C2060 1.368 . S
C2076 C2072 1.368 . S
C2076 C2075 1.523 1_565 S
H2077 C2052 0.950 . S
H2078 C2054 0.950 . S
H2079 C2055 0.949 . S
H2080 C2057 0.950 . S
H2081 C2059 0.950 . S
C2082 C2083 1.349 . S
C2082 C2084 1.327 . S
C2082 H2107 0.950 . S
C2083 C2082 1.349 . S
C2083 C2099 1.349 . S
C2084 C2082 1.327 . S
C2084 C2103 1.429 1_545 S
C2084 H2108 0.950 . S
C2085 C2102 1.574 . S
C2085 C2104 1.368 . S
C2085 H2109 0.949 . S
H2086 C2090 0.949 . S
C2087 C2088 1.349 . S
C2087 C2089 1.327 1_655 S
C2087 H2110 0.950 . S
C2088 C2087 1.349 . S
C2088 C2100 1.349 . S
C2089 C2087 1.327 1_455 S
C2089 C2105 1.429 . S
C2089 H2111 0.950 . S
C2090 H2086 0.949 . S
C2090 C2098 1.574 . S
C2090 C2106 1.368 . S
H2091 C2099 0.950 . S
H2092 C2097 0.950 . S
H2093 C2098 0.949 . S
H2094 C2100 0.950 . S
H2095 C2101 0.950 1_455 S
H2096 C2102 0.949 . S
C2097 H2092 0.950 . S
C2097 C2099 1.327 1_565 S
C2097 C2103 1.429 . S
C2098 C2090 1.574 . S
C2098 H2093 0.949 . S
C2098 C2104 1.368 . S
C2099 C2083 1.349 . S
C2099 H2091 0.950 . S
C2099 C2097 1.327 1_545 S
C2100 C2088 1.349 . S
C2100 H2094 0.950 . S
C2100 C2101 1.327 . S
C2101 H2095 0.950 1_655 S
C2101 C2100 1.327 . S
C2101 C2105 1.429 1_655 S
C2102 C2085 1.574 . S
C2102 H2096 0.949 . S
C2102 C2106 1.368 . S
C2103 C2084 1.429 1_565 S
C2103 C2097 1.429 . S
C2103 C2104 1.523 . S
C2104 C2085 1.368 . S
C2104 C2098 1.368 . S
C2104 C2103 1.523 . S
C2105 C2089 1.429 . S
C2105 C2101 1.429 1_455 S
C2105 C2106 1.523 . S
C2106 C2090 1.368 . S
C2106 C2102 1.368 . S
C2106 C2105 1.523 . S
H2107 C2082 0.950 . S
H2108 C2084 0.950 . S
H2109 C2085 0.949 . S
H2110 C2087 0.950 . S
H2111 C2089 0.950 . S
C2112 C2113 1.349 . S
C2112 C2114 1.327 . S
C2112 H2137 0.950 . S
C2113 C2112 1.349 . S
C2113 C2129 1.349 . S
C2114 C2112 1.327 . S
C2114 C2133 1.429 . S
C2114 H2138 0.950 . S
C2115 C2132 1.574 . S
C2115 C2134 1.368 . S
C2115 H2139 0.949 . S
H2116 C2120 0.949 . S
C2117 C2118 1.349 . S
C2117 C2119 1.327 1_655 S
C2117 H2140 0.950 . S
C2118 C2117 1.349 . S
C2118 C2130 1.349 1_655 S
C2119 C2117 1.327 1_455 S
C2119 C2135 1.429 . S
C2119 H2141 0.950 . S
C2120 H2116 0.949 . S
C2120 C2128 1.574 . S
C2120 C2136 1.368 . S
H2121 C2129 0.950 . S
H2122 C2127 0.950 . S
H2123 C2128 0.949 . S
H2124 C2130 0.950 . S
H2125 C2131 0.950 . S
H2126 C2132 0.949 . S
C2127 H2122 0.950 . S
C2127 C2129 1.327 . S
C2127 C2133 1.429 . S
C2128 C2120 1.574 . S
C2128 H2123 0.949 . S
C2128 C2134 1.368 . S
C2129 C2113 1.349 . S
C2129 H2121 0.950 . S
C2129 C2127 1.327 . S
C2130 C2118 1.349 1_455 S
C2130 H2124 0.950 . S
C2130 C2131 1.327 . S
C2131 H2125 0.950 . S
C2131 C2130 1.327 . S
C2131 C2135 1.429 . S
C2132 C2115 1.574 . S
C2132 H2126 0.949 . S
C2132 C2136 1.368 . S
C2133 C2114 1.429 . S
C2133 C2127 1.429 . S
C2133 C2134 1.523 . S
C2134 C2115 1.368 . S
C2134 C2128 1.368 . S
C2134 C2133 1.523 . S
C2135 C2119 1.429 . S
C2135 C2131 1.429 . S
C2135 C2136 1.523 . S
C2136 C2120 1.368 . S
C2136 C2132 1.368 . S
C2136 C2135 1.523 . S
H2137 C2112 0.950 . S
H2138 C2114 0.950 . S
H2139 C2115 0.949 . S
H2140 C2117 0.950 . S
H2141 C2119 0.950 . S
C2142 C2143 1.349 . S
C2142 C2144 1.327 . S
C2142 H2167 0.950 . S
C2143 C2142 1.349 . S
C2143 C2159 1.349 . S
C2144 C2142 1.327 . S
C2144 C2163 1.429 . S
C2144 H2168 0.950 . S
C2145 C2162 1.574 . S
C2145 C2164 1.368 . S
C2145 H2169 0.949 . S
H2146 C2150 0.949 . S
C2147 C2148 1.349 . S
C2147 C2149 1.327 . S
C2147 H2170 0.950 . S
C2148 C2147 1.349 . S
C2148 C2160 1.349 . S
C2149 C2147 1.327 . S
C2149 C2165 1.429 . S
C2149 H2171 0.950 . S
C2150 H2146 0.949 . S
C2150 C2158 1.574 . S
C2150 C2166 1.368 . S
H2151 C2159 0.950 . S
H2152 C2157 0.950 . S
H2153 C2158 0.949 . S
H2154 C2160 0.950 . S
H2155 C2161 0.950 . S
H2156 C2162 0.949 . S
C2157 H2152 0.950 . S
C2157 C2159 1.327 . S
C2157 C2163 1.429 . S
C2158 C2150 1.574 . S
C2158 H2153 0.949 . S
C2158 C2164 1.368 . S
C2159 C2143 1.349 . S
C2159 H2151 0.950 . S
C2159 C2157 1.327 . S
C2160 C2148 1.349 . S
C2160 H2154 0.950 . S
C2160 C2161 1.327 . S
C2161 H2155 0.950 . S
C2161 C2160 1.327 . S
C2161 C2165 1.429 . S
C2162 C2145 1.574 . S
C2162 H2156 0.949 . S
C2162 C2166 1.368 . S
C2163 C2144 1.429 . S
C2163 C2157 1.429 . S
C2163 C2164 1.523 . S
C2164 C2145 1.368 . S
C2164 C2158 1.368 . S
C2164 C2163 1.523 . S
C2165 C2149 1.429 . S
C2165 C2161 1.429 . S
C2165 C2166 1.523 . S
C2166 C2150 1.368 . S
C2166 C2162 1.368 . S
C2166 C2165 1.523 . S
H2167 C2142 0.950 . S
H2168 C2144 0.950 . S
H2169 C2145 0.949 . S
H2170 C2147 0.950 . S
H2171 C2149 0.950 . S
C2172 C2173 1.349 . S
C2172 C2174 1.327 . S
C2172 H2197 0.950 . S
C2173 C2172 1.349 . S
C2173 C2189 1.349 . S
C2174 C2172 1.327 . S
C2174 C2193 1.429 . S
C2174 H2198 0.950 . S
C2175 C2192 1.574 . S
C2175 C2194 1.368 . S
C2175 H2199 0.949 . S
H2176 C2180 0.949 . S
C2177 C2178 1.349 . S
C2177 C2179 1.327 . S
C2177 H2200 0.950 . S
C2178 C2177 1.349 . S
C2178 C2190 1.349 . S
C2179 C2177 1.327 . S
C2179 C2195 1.429 . S
C2179 H2201 0.950 . S
C2180 H2176 0.949 . S
C2180 C2188 1.574 . S
C2180 C2196 1.368 . S
H2181 C2189 0.950 . S
H2182 C2187 0.950 . S
H2183 C2188 0.949 . S
H2184 C2190 0.950 . S
H2185 C2191 0.950 . S
H2186 C2192 0.949 . S
C2187 H2182 0.950 . S
C2187 C2189 1.327 . S
C2187 C2193 1.429 . S
C2188 C2180 1.574 . S
C2188 H2183 0.949 . S
C2188 C2194 1.368 . S
C2189 C2173 1.349 . S
C2189 H2181 0.950 . S
C2189 C2187 1.327 . S
C2190 C2178 1.349 . S
C2190 H2184 0.950 . S
C2190 C2191 1.327 . S
C2191 H2185 0.950 . S
C2191 C2190 1.327 . S
C2191 C2195 1.429 . S
C2192 C2175 1.574 . S
C2192 H2186 0.949 . S
C2192 C2196 1.368 . S
C2193 C2174 1.429 . S
C2193 C2187 1.429 . S
C2193 C2194 1.523 . S
C2194 C2175 1.368 . S
C2194 C2188 1.368 . S
C2194 C2193 1.523 . S
C2195 C2179 1.429 . S
C2195 C2191 1.429 . S
C2195 C2196 1.523 . S
C2196 C2180 1.368 . S
C2196 C2192 1.368 . S
C2196 C2195 1.523 . S
H2197 C2172 0.950 . S
H2198 C2174 0.950 . S
H2199 C2175 0.949 . S
H2200 C2177 0.950 . S
H2201 C2179 0.950 . S
C2202 C2203 1.349 . S
C2202 C2204 1.327 . S
C2202 H2227 0.950 . S
C2203 C2202 1.349 . S
C2203 C2219 1.349 . S
C2204 C2202 1.327 . S
C2204 C2223 1.429 . S
C2204 H2228 0.950 . S
C2205 C2222 1.574 . S
C2205 C2224 1.368 . S
C2205 H2229 0.949 . S
H2206 C2210 0.949 . S
C2207 C2208 1.349 . S
C2207 C2209 1.327 . S
C2207 H2230 0.950 . S
C2208 C2207 1.349 . S
C2208 C2220 1.349 . S
C2209 C2207 1.327 . S
C2209 C2225 1.429 . S
C2209 H2231 0.950 . S
C2210 H2206 0.949 . S
C2210 C2218 1.574 . S
C2210 C2226 1.368 . S
H2211 C2219 0.950 . S
H2212 C2217 0.950 . S
H2213 C2218 0.949 . S
H2214 C2220 0.950 . S
H2215 C2221 0.950 . S
H2216 C2222 0.949 . S
C2217 H2212 0.950 . S
C2217 C2219 1.327 . S
C2217 C2223 1.429 . S
C2218 C2210 1.574 . S
C2218 H2213 0.949 . S
C2218 C2224 1.368 . S
C2219 C2203 1.349 . S
C2219 H2211 0.950 . S
C2219 C2217 1.327 . S
C2220 C2208 1.349 . S
C2220 H2214 0.950 . S
C2220 C2221 1.327 . S
C2221 H2215 0.950 . S
C2221 C2220 1.327 . S
C2221 C2225 1.429 . S
C2222 C2205 1.574 . S
C2222 H2216 0.949 . S
C2222 C2226 1.368 . S
C2223 C2204 1.429 . S
C2223 C2217 1.429 . S
C2223 C2224 1.523 . S
C2224 C2205 1.368 . S
C2224 C2218 1.368 . S
C2224 C2223 1.523 . S
C2225 C2209 1.429 . S
C2225 C2221 1.429 . S
C2225 C2226 1.523 . S
C2226 C2210 1.368 . S
C2226 C2222 1.368 . S
C2226 C2225 1.523 . S
H2227 C2202 0.950 . S
H2228 C2204 0.950 . S
H2229 C2205 0.949 . S
H2230 C2207 0.950 . S
H2231 C2209 0.950 . S
C613 C8 0.658 . S
C618 C68 0.664 . S
C643 C0 0.664 . S
C648 C42 0.658 . S
C673 C34 0.664 . S
C678 C76 0.658 . S
C703 C110 0.658 . S
C708 C136 0.664 . S
C733 C170 0.664 . S
C738 C144 0.658 . S
C763 C178 0.658 . S
C768 C102 0.664 . S
C793 C272 0.663 . S
C798 C212 0.657 . S
C823 C204 0.664 . S
C828 C246 0.658 . S
C853 C280 0.658 . S
C858 C238 0.664 . S
C883 C340 0.664 . S
C888 C314 0.658 . S
C913 C348 0.658 . S
C918 C374 0.664 . S
C943 C306 0.664 . S
C948 C382 0.658 . S
C973 C416 0.658 . S
C978 C476 0.664 . S
C1003 C408 0.664 . S
C1008 C450 0.658 . S
C1033 C442 0.664 . S
C1038 C484 0.658 . S
C1063 C544 0.663 . S
C1068 C518 0.657 . S
C1093 C578 0.664 . S
C1098 C552 0.658 . S
C1123 C510 0.664 . S
C1128 C586 0.658 . S
C1153 C13 1.640 . S
C1158 C183 1.640 . S
C1183 C115 1.640 . S
C1188 C47 1.640 . S
C1213 C149 1.640 . S
C1218 C81 1.640 . S
C1243 C217 1.640 . S
C1248 C387 1.640 . S
C1273 C251 1.640 . S
C1278 C319 1.640 . S
C1303 C353 1.640 . S
C1308 C285 1.640 . S
C1333 C421 1.640 . S
C1338 C591 1.640 . S
C1363 C523 1.640 . S
C1368 C455 1.640 . S
C1393 C557 1.640 . S
C1398 C489 1.640 . S
C1423 C344 1.862 . S
C1428 C4 1.862 1_565 S
C1453 C38 1.861 . S
C1458 C378 1.861 . S
C1483 C310 1.862 . S
C1488 C72 1.862 . S
C1513 C106 1.861 1_655 S
C1518 C480 1.861 . S
C1543 C140 1.862 . S
C1548 C412 1.862 . S
C1573 C446 1.861 . S
C1578 C174 1.861 . S
C1603 C548 1.861 . S
C1608 C208 1.861 . S
C1633 C242 1.862 . S
C1638 C582 1.862 . S
C1663 C276 1.861 . S
C1668 C514 1.861 . S
C1693 C97 1.043 . S
C1698 C17 1.036 . S
C1723 C29 1.043 . S
C1728 C51 1.036 . S
C1753 C85 1.036 . S
C1758 C63 1.042 . S
C1783 C165 1.043 . S
C1788 C119 1.036 . S
C1813 C199 1.042 . S
C1818 C153 1.036 . S
C1843 C187 1.036 . S
C1848 C131 1.043 . S
C1873 C301 1.043 . S
C1878 C221 1.036 . S
C1903 C255 1.036 . S
C1908 C233 1.043 . S
C1933 C267 1.043 . S
C1938 C289 1.036 . S
C1963 C323 1.035 . S
C1968 C369 1.042 . S
C1993 C357 1.036 . S
C1998 C403 1.042 . S
C2023 C335 1.043 . S
C2028 C391 1.036 . S
C2053 C425 1.035 . S
C2058 C505 1.042 . S
C2083 C459 1.036 . S
C2088 C437 1.043 . S
C2113 C471 1.042 . S
C2118 C493 1.036 . S
C2143 C527 1.036 . S
C2148 C573 1.043 . S
C2173 C561 1.036 . S
C2178 C607 1.043 . S
C2203 C539 1.043 . S
C2208 C595 1.036 . S
