# Generated by pormake.
# Topology umm, (4)-cn, num edge types: 1
# Building blocks:
#     Node 0, Type 0, BuildingBlock: NAWXER_clean_sbu_0, # of connection points: 4
#     Node 1, Type 0, BuildingBlock: NAWXER_clean_sbu_0, # of connection points: 4
#     Node 2, Type 0, BuildingBlock: NAWXER_clean_sbu_0, # of connection points: 4
#     Node 3, Type 0, BuildingBlock: NAWXER_clean_sbu_0, # of connection points: 4
#     Node 4, Type 0, BuildingBlock: NAWXER_clean_sbu_0, # of connection points: 4
#     Node 5, Type 0, BuildingBlock: NAWXER_clean_sbu_0, # of connection points: 4
#     Node 6, Type 0, BuildingBlock: NAWXER_clean_sbu_0, # of connection points: 4
#     Node 7, Type 0, BuildingBlock: NAWXER_clean_sbu_0, # of connection points: 4
#     Node 8, Type 0, BuildingBlock: NAWXER_clean_sbu_0, # of connection points: 4
#     Node 9, Type 0, BuildingBlock: NAWXER_clean_sbu_0, # of connection points: 4
#     Node 10, Type 0, BuildingBlock: NAWXER_clean_sbu_0, # of connection points: 4
#     Node 11, Type 0, BuildingBlock: NAWXER_clean_sbu_0, # of connection points: 4
#     Edge 12, Type (0, 0), BuildingBlock: OJICUG_clean_linker_0, # of connection points: 2
#     Edge 13, Type (0, 0), BuildingBlock: OJICUG_clean_linker_0, # of connection points: 2
#     Edge 14, Type (0, 0), BuildingBlock: OJICUG_clean_linker_0, # of connection points: 2
#     Edge 15, Type (0, 0), BuildingBlock: OJICUG_clean_linker_0, # of connection points: 2
#     Edge 16, Type (0, 0), BuildingBlock: OJICUG_clean_linker_0, # of connection points: 2
#     Edge 17, Type (0, 0), BuildingBlock: OJICUG_clean_linker_0, # of connection points: 2
#     Edge 18, Type (0, 0), BuildingBlock: OJICUG_clean_linker_0, # of connection points: 2
#     Edge 19, Type (0, 0), BuildingBlock: OJICUG_clean_linker_0, # of connection points: 2
#     Edge 20, Type (0, 0), BuildingBlock: OJICUG_clean_linker_0, # of connection points: 2
#     Edge 21, Type (0, 0), BuildingBlock: OJICUG_clean_linker_0, # of connection points: 2
#     Edge 22, Type (0, 0), BuildingBlock: OJICUG_clean_linker_0, # of connection points: 2
#     Edge 23, Type (0, 0), BuildingBlock: OJICUG_clean_linker_0, # of connection points: 2
#     Edge 24, Type (0, 0), BuildingBlock: OJICUG_clean_linker_0, # of connection points: 2
#     Edge 25, Type (0, 0), BuildingBlock: OJICUG_clean_linker_0, # of connection points: 2
#     Edge 26, Type (0, 0), BuildingBlock: OJICUG_clean_linker_0, # of connection points: 2
#     Edge 27, Type (0, 0), BuildingBlock: OJICUG_clean_linker_0, # of connection points: 2
#     Edge 28, Type (0, 0), BuildingBlock: OJICUG_clean_linker_0, # of connection points: 2
#     Edge 29, Type (0, 0), BuildingBlock: OJICUG_clean_linker_0, # of connection points: 2
#     Edge 30, Type (0, 0), BuildingBlock: OJICUG_clean_linker_0, # of connection points: 2
#     Edge 31, Type (0, 0), BuildingBlock: OJICUG_clean_linker_0, # of connection points: 2
#     Edge 32, Type (0, 0), BuildingBlock: OJICUG_clean_linker_0, # of connection points: 2
#     Edge 33, Type (0, 0), BuildingBlock: OJICUG_clean_linker_0, # of connection points: 2
#     Edge 34, Type (0, 0), BuildingBlock: OJICUG_clean_linker_0, # of connection points: 2
#     Edge 35, Type (0, 0), BuildingBlock: OJICUG_clean_linker_0, # of connection points: 2
# Relax obj value: 0.044
# Max RMSD: 0.161
# Mean RMSD: 0.161
data_MOF--net-umm--node1-NAWXER_clean_sbu_0--edge1-OJICUG_clean_linker_0
_symmetry_space_group_name_H-M    P1
_symmetry_Int_Tables_number       1
_symmetry_cell_setting            triclinic
loop_
_symmetry_equiv_pos_as_xyz
'x, y, z'
_cell_length_a     41.192898
_cell_length_b     41.195572
_cell_length_c     21.097456
_cell_angle_alpha  90.002096
_cell_angle_beta   90.002498
_cell_angle_gamma 120.00041
loop_
_atom_site_label
_atom_site_type_symbol
_atom_site_fract_x
_atom_site_fract_y
_atom_site_fract_z
_atom_type_partial_charge
C0 C 0.3276 0.52341 0.06598 0.0
C1 C 0.44042 0.51517 0.10882 0.0
O2 O 0.35778 0.55528 0.07053 0.0
Zn3 Zn 0.41628 0.57733 0.08993 0.0
O4 O 0.32842 0.49365 0.07909 0.0
Zn5 Zn 0.38229 0.51789 0.09465 0.0
O6 O 0.39045 0.54603 0.18406 0.0
O7 O 0.42639 0.6066 0.16622 0.0
O8 O 0.40672 0.48825 0.10689 0.0
O9 O 0.44695 0.54886 0.10345 0.0
O10 O 0.43732 0.60257 0.01079 0.0
O11 O 0.40192 0.54102 1.00193 0.0
C12 C 0.40819 0.57985 0.20478 0.0
C13 C 0.4221 0.57326 0.97638 0.0
C14 C 0.85093 0.42069 0.30977 0.0
C15 C 0.83043 0.40677 0.53817 0.0
O16 O 0.863 0.40052 0.33533 0.0
Zn17 Zn 0.8665 0.38088 0.42804 0.0
O18 O 0.83683 0.4359 0.34417 0.0
Zn19 Zn 0.84102 0.41486 0.42332 0.0
O20 O 0.90016 0.44554 0.43688 0.0
O21 O 0.92058 0.40534 0.4403 0.0
O22 O 0.82186 0.42496 0.49962 0.0
O23 O 0.84651 0.38903 0.51745 0.0
O24 O 0.83685 0.327 0.41245 0.0
O25 O 0.80459 0.35637 0.40392 0.0
C26 C 0.92733 0.43903 0.44225 0.0
C27 C 0.80627 0.32619 0.39935 0.0
C28 C 0.42556 0.82937 0.87118 0.0
C29 C 0.43217 0.8499 0.64279 0.0
O30 O 0.45939 0.84549 0.85049 0.0
Zn31 Zn 0.48755 0.86551 0.7611 0.0
O32 O 0.39882 0.8208 0.83259 0.0
Zn33 Zn 0.4281 0.84 0.75633 0.0
O34 O 0.45023 0.80362 0.73691 0.0
O35 O 0.51186 0.83595 0.74554 0.0
O36 O 0.40286 0.83578 0.67719 0.0
O37 O 0.46442 0.862 0.66836 0.0
O38 O 0.51714 0.91958 0.7734 0.0
O39 O 0.4565 0.89913 0.76992 0.0
C40 C 0.48213 0.80536 0.73238 0.0
C41 C 0.49018 0.92632 0.77533 0.0
C42 C 0.58469 0.43128 0.97632 0.0
C43 C 0.59859 0.42466 0.20472 0.0
O44 O 0.60487 0.46352 1.00189 0.0
Zn45 Zn 0.62452 0.48664 0.09462 0.0
O46 O 0.56946 0.40197 0.01072 0.0
Zn47 Zn 0.59051 0.4272 0.08987 0.0
O48 O 0.55986 0.45568 0.10342 0.0
O49 O 0.60011 0.5163 0.10688 0.0
O50 O 0.58039 0.39792 0.16615 0.0
O51 O 0.61635 0.45848 0.18402 0.0
O52 O 0.67839 0.51085 0.07905 0.0
O53 O 0.649 0.44923 0.07047 0.0
C54 C 0.5664 0.48937 0.1088 0.0
C55 C 0.67919 0.48109 0.06591 0.0
C56 C 0.17601 0.59752 0.53834 0.0
C57 C 0.15548 0.58353 0.30994 0.0
O58 O 0.15989 0.61522 0.51762 0.0
Zn59 Zn 0.13985 0.62331 0.42819 0.0
O60 O 0.18457 0.57934 0.49978 0.0
Zn61 Zn 0.16537 0.58938 0.42349 0.0
O62 O 0.20175 0.64787 0.40402 0.0
O63 O 0.16944 0.67719 0.41255 0.0
O64 O 0.16959 0.56834 0.34436 0.0
O65 O 0.14337 0.60367 0.33549 0.0
O66 O 0.08577 0.59882 0.44045 0.0
O67 O 0.10623 0.55865 0.43702 0.0
C68 C 0.20002 0.67803 0.39941 0.0
C69 C 0.07904 0.56513 0.44238 0.0
C70 C 0.58053 0.17493 0.87173 0.0
C71 C 0.57397 0.15444 0.64331 0.0
O72 O 0.54672 0.15886 0.851 0.0
Zn73 Zn 0.51858 0.1389 0.76156 0.0
O74 O 0.60728 0.18348 0.83317 0.0
Zn75 Zn 0.57803 0.16434 0.75686 0.0
O76 O 0.556 0.20079 0.73741 0.0
O77 O 0.49437 0.16856 0.74594 0.0
O78 O 0.60328 0.16852 0.67773 0.0
O79 O 0.54173 0.14238 0.66886 0.0
O80 O 0.48892 0.08481 0.77377 0.0
O81 O 0.54955 0.10521 0.77036 0.0
C82 C 0.52414 0.19912 0.73282 0.0
C83 C 0.51586 0.07804 0.7757 0.0
C84 C 0.43254 0.5837 0.70413 0.0
C85 C 0.42596 0.59762 0.47572 0.0
O86 O 0.46478 0.60388 0.67857 0.0
Zn87 Zn 0.48792 0.62352 0.58588 0.0
O88 O 0.40323 0.56848 0.66971 0.0
Zn89 Zn 0.42847 0.58952 0.59057 0.0
O90 O 0.45694 0.55886 0.57703 0.0
O91 O 0.51756 0.59907 0.57364 0.0
O92 O 0.39921 0.57941 0.51427 0.0
O93 O 0.45978 0.61536 0.49646 0.0
O94 O 0.51213 0.6774 0.60147 0.0
O95 O 0.4505 0.648 0.60995 0.0
C96 C 0.49062 0.56537 0.57168 0.0
C97 C 0.48236 0.67819 0.61454 0.0
C98 C 0.83052 0.42459 0.80912 0.0
C99 C 0.85102 0.43117 0.03752 0.0
O100 O 0.8466 0.45841 0.82983 0.0
Zn101 Zn 0.8666 0.48655 0.91924 0.0
O102 O 0.82198 0.39785 0.84768 0.0
Zn103 Zn 0.84114 0.42711 0.92396 0.0
O104 O 0.8047 0.44918 0.94336 0.0
O105 O 0.83698 0.5108 0.93481 0.0
O106 O 0.83693 0.40187 1.0031 0.0
O107 O 0.8631 0.46341 0.01197 0.0
O108 O 0.92068 0.51619 0.907 0.0
O109 O 0.90029 0.45557 0.91045 0.0
C110 C 0.80641 0.48105 0.94792 0.0
C111 C 0.92745 0.48926 0.90509 0.0
C112 C 0.43998 0.92624 0.23814 0.0
C113 C 0.32715 0.80521 0.28105 0.0
O114 O 0.4465 0.89908 0.24349 0.0
Zn115 Zn 0.41582 0.83994 0.25699 0.0
O116 O 0.40628 0.91948 0.24006 0.0
Zn117 Zn 0.38183 0.8654 0.25228 0.0
O118 O 0.4015 0.86191 0.34499 0.0
O119 O 0.43688 0.83575 0.33612 0.0
O120 O 0.32796 0.83577 0.26791 0.0
O121 O 0.35733 0.80351 0.27645 0.0
O122 O 0.42591 0.82078 0.18068 0.0
O123 O 0.38998 0.84542 0.16285 0.0
C124 C 0.42167 0.84985 0.37053 0.0
C125 C 0.40772 0.82934 0.14212 0.0
C126 C 0.52428 0.32637 0.61455 0.0
C127 C 0.51623 0.43928 0.5716 0.0
O128 O 0.55617 0.35651 0.60997 0.0
Zn129 Zn 0.5783 0.41501 0.59052 0.0
O130 O 0.49455 0.32722 0.60141 0.0
Zn131 Zn 0.51885 0.38109 0.58579 0.0
O132 O 0.54698 0.38919 0.49638 0.0
O133 O 0.60755 0.42507 0.51423 0.0
O134 O 0.48927 0.40559 0.57352 0.0
O135 O 0.54991 0.44576 0.57698 0.0
O136 O 0.60356 0.43605 0.66965 0.0
O137 O 0.542 0.40073 0.6785 0.0
C138 C 0.5808 0.40689 0.47566 0.0
C139 C 0.57425 0.42087 0.70406 0.0
C140 C 0.17612 0.57979 0.80928 0.0
C141 C 0.1556 0.57315 0.03769 0.0
O142 O 0.16006 0.54598 0.82999 0.0
Zn143 Zn 0.14009 0.51781 0.91938 0.0
O144 O 0.18466 0.60653 0.84786 0.0
Zn145 Zn 0.16552 0.57725 0.92414 0.0
O146 O 0.20199 0.55523 0.94354 0.0
O147 O 0.16975 0.49361 0.93494 0.0
O148 O 0.16968 0.60247 1.0033 0.0
O149 O 0.14355 0.54092 0.01211 0.0
O150 O 0.08601 0.48814 0.90711 0.0
O151 O 0.10638 0.54876 0.91058 0.0
C152 C 0.20031 0.52337 0.94807 0.0
C153 C 0.07923 0.51506 0.90518 0.0
C154 C 0.58441 0.15437 0.37106 0.0
C155 C 0.59834 0.1749 0.14267 0.0
O156 O 0.60457 0.14228 0.3455 0.0
Zn157 Zn 0.6242 0.13878 0.25278 0.0
O158 O 0.56921 0.16848 0.33665 0.0
Zn159 Zn 0.59025 0.16428 0.25752 0.0
O160 O 0.55954 0.10515 0.24393 0.0
O161 O 0.59973 0.08471 0.24048 0.0
O162 O 0.58016 0.18347 0.18125 0.0
O163 O 0.61606 0.1588 0.16337 0.0
O164 O 0.67808 0.16838 0.26836 0.0
O165 O 0.64876 0.20068 0.27695 0.0
C166 C 0.56604 0.07797 0.23853 0.0
C167 C 0.67892 0.19896 0.2815 0.0
C168 C 0.44088 0.6189 0.30003 0.0
C169 C 0.41007 0.587 0.27382 0.0
H170 H 0.47024 0.64711 0.38466 0.0
C171 C 0.38279 0.56041 0.31469 0.0
H172 H 0.46243 0.63981 0.26976 0.0
C173 C 0.3869 0.56495 0.38047 0.0
C174 C 0.41882 0.59575 0.40668 0.0
H175 H 0.35868 0.53561 0.29584 0.0
H176 H 0.36598 0.54341 0.41074 0.0
C177 C 0.44542 0.62302 0.36581 0.0
C178 C 0.82408 0.43946 0.63342 0.0
C179 C 0.82516 0.40865 0.60721 0.0
H180 H 0.82525 0.46883 0.71804 0.0
C181 C 0.82451 0.38139 0.6481 0.0
H182 H 0.8247 0.461 0.60315 0.0
C183 C 0.8241 0.38552 0.71388 0.0
C184 C 0.82522 0.41743 0.74008 0.0
H185 H 0.8252 0.35728 0.62925 0.0
H186 H 0.82474 0.3646 0.74414 0.0
C187 C 0.82454 0.44402 0.6992 0.0
C188 C 0.38648 0.82299 0.96639 0.0
C189 C 0.41839 0.82409 0.94022 0.0
H190 H 0.35824 0.82412 0.05099 0.0
C191 C 0.44498 0.82341 0.98112 0.0
H192 H 0.36558 0.82363 0.9361 0.0
C193 C 0.44041 0.82297 0.0469 0.0
C194 C 0.4096 0.82407 0.07308 0.0
H195 H 0.46979 0.82411 0.9623 0.0
H196 H 0.46196 0.8236 0.07719 0.0
C197 C 0.38235 0.82342 0.03217 0.0
C198 C 0.624 0.44408 0.31465 0.0
C199 C 0.59671 0.4175 0.27376 0.0
H200 H 0.64082 0.46106 0.4107 0.0
C201 C 0.56588 0.38562 0.29995 0.0
H202 H 0.64813 0.46887 0.29581 0.0
C203 C 0.56133 0.3815 0.36573 0.0
C204 C 0.58795 0.40875 0.40662 0.0
H205 H 0.54432 0.36472 0.26968 0.0
H206 H 0.5365 0.35742 0.38457 0.0
C207 C 0.61988 0.43953 0.38043 0.0
C208 C 0.1825 0.56491 0.63357 0.0
C209 C 0.18131 0.59568 0.60738 0.0
H210 H 0.18145 0.5356 0.71819 0.0
C211 C 0.18194 0.62292 0.64827 0.0
H212 H 0.1819 0.54338 0.6033 0.0
C213 C 0.1824 0.61882 0.71405 0.0
C214 C 0.18138 0.58695 0.74024 0.0
H215 H 0.18117 0.64699 0.62943 0.0
H216 H 0.18173 0.63971 0.74432 0.0
C217 C 0.1821 0.56038 0.69935 0.0
C218 C 0.56565 0.18129 0.04745 0.0
C219 C 0.59646 0.18018 0.07364 0.0
H220 H 0.53628 0.18016 0.96284 0.0
C221 C 0.62372 0.18085 0.03273 0.0
H222 H 0.5441 0.18065 0.07774 0.0
C223 C 0.6196 0.18129 0.96696 0.0
C224 C 0.58769 0.1802 0.94077 0.0
H225 H 0.64783 0.18015 0.05156 0.0
H226 H 0.64051 0.18066 0.93668 0.0
C227 C 0.56109 0.18086 0.98167 0.0
C228 C 0.29512 0.5559 0.02253 0.0
C229 C 0.29378 0.5221 0.03836 0.0
H230 H 0.26762 0.58268 0.98072 0.0
C231 C 0.26144 0.48809 0.02248 0.0
H232 H 0.31955 0.5827 0.03345 0.0
C233 C 0.23119 0.48808 0.99152 0.0
C234 C 0.23284 0.52209 0.9757 0.0
H235 H 0.25965 0.46155 0.03339 0.0
H236 H 0.20646 0.46154 0.98056 0.0
C237 C 0.26527 0.55589 0.9916 0.0
C238 C 0.77538 0.26003 0.35584 0.0
C239 C 0.77373 0.29238 0.37176 0.0
H240 H 0.7469 0.20506 0.31391 0.0
C241 C 0.74129 0.29374 0.35598 0.0
H242 H 0.80012 0.25822 0.36671 0.0
C243 C 0.71141 0.2639 0.32506 0.0
C244 C 0.71276 0.23147 0.30912 0.0
H245 H 0.73893 0.31817 0.36693 0.0
H246 H 0.68697 0.26627 0.31423 0.0
C247 C 0.74511 0.22979 0.3249 0.0
C248 C 0.51753 0.77456 0.68905 0.0
C249 C 0.48348 0.77287 0.70474 0.0
H250 H 0.54415 0.74616 0.64732 0.0
C251 C 0.44972 0.74044 0.68871 0.0
H252 H 0.54405 0.79929 0.70012 0.0
C253 C 0.44978 0.71062 0.65779 0.0
C254 C 0.48361 0.712 0.64211 0.0
H255 H 0.4229 0.73806 0.69947 0.0
H256 H 0.423 0.68619 0.64677 0.0
C257 C 0.51759 0.74434 0.65811 0.0
C258 C 0.74534 0.51638 0.02243 0.0
C259 C 0.71299 0.48237 0.03827 0.0
H260 H 0.80032 0.54291 0.98052 0.0
C261 C 0.71161 0.44857 0.02237 0.0
H262 H 0.74717 0.54293 0.03339 0.0
C263 C 0.74145 0.44856 0.99142 0.0
C264 C 0.77389 0.48235 0.97556 0.0
H265 H 0.68717 0.42178 0.03327 0.0
H266 H 0.73907 0.42176 0.98049 0.0
C267 C 0.77558 0.51637 0.99144 0.0
C268 C 0.2308 0.74414 0.35575 0.0
C269 C 0.23251 0.71183 0.37168 0.0
H270 H 0.25919 0.79908 0.31368 0.0
C271 C 0.26494 0.71047 0.35577 0.0
H272 H 0.20607 0.74595 0.36671 0.0
C273 C 0.29476 0.7403 0.32472 0.0
C274 C 0.29336 0.7727 0.30877 0.0
H275 H 0.26734 0.68607 0.36673 0.0
H276 H 0.31919 0.73793 0.31379 0.0
C277 C 0.26102 0.77437 0.32467 0.0
C278 C 0.48888 0.22999 0.6892 0.0
C279 C 0.52287 0.23164 0.70512 0.0
H280 H 0.46238 0.25844 0.64716 0.0
C281 C 0.55669 0.26404 0.68922 0.0
H282 H 0.46232 0.20528 0.70015 0.0
C283 C 0.55672 0.29389 0.6582 0.0
C284 C 0.52294 0.29255 0.64226 0.0
H285 H 0.58348 0.2664 0.70017 0.0
H286 H 0.58354 0.3183 0.64728 0.0
C287 C 0.48891 0.26023 0.65815 0.0
C288 C 0.50953 0.53877 0.1148 0.0
C289 C 0.47248 0.50836 0.11386 0.0
H290 H 0.56818 0.55678 0.11419 0.0
C291 C 0.46674 0.47179 0.11481 0.0
H292 H 0.51504 0.56738 0.1143 0.0
C293 C 0.4973 0.46578 0.11481 0.0
C294 C 0.53435 0.49619 0.11385 0.0
H295 H 0.43865 0.44777 0.11423 0.0
H296 H 0.49178 0.43717 0.11433 0.0
C297 C 0.54009 0.53276 0.11479 0.0
C298 C 0.99705 0.46542 0.44827 0.0
C299 C 0.96618 0.47111 0.44733 0.0
H300 H 0.05672 0.49054 0.4478 0.0
C301 C 0.97278 0.50814 0.44833 0.0
H302 H 0.99302 0.43735 0.44764 0.0
C303 C 0.00933 0.53873 0.44837 0.0
C304 C 0.04019 0.53304 0.44741 0.0
H305 H 0.94966 0.51362 0.44786 0.0
H306 H 0.01335 0.5668 0.44781 0.0
C307 C 0.0336 0.49601 0.44831 0.0
C308 C 0.53948 0.03257 0.78168 0.0
C309 C 0.50906 0.03918 0.78067 0.0
H310 H 0.55755 0.99198 0.78104 0.0
C311 C 0.4725 0.00833 0.78145 0.0
H312 H 0.56809 0.05568 0.78131 0.0
C313 C 0.46652 0.97177 0.78135 0.0
C314 C 0.49695 0.96516 0.78046 0.0
H315 H 0.44846 0.01237 0.7808 0.0
H316 H 0.43791 0.94866 0.78073 0.0
C317 C 0.5335 0.99601 0.78157 0.0
C318 C 0.53395 0.53899 0.56573 0.0
C319 C 0.4974 0.5333 0.56661 0.0
H320 H 0.56852 0.51388 0.56625 0.0
C321 C 0.46696 0.49627 0.56558 0.0
H322 H 0.558 0.56706 0.56639 0.0
C323 C 0.47293 0.46568 0.56556 0.0
C324 C 0.50948 0.47137 0.56657 0.0
H325 H 0.43836 0.49079 0.56601 0.0
H326 H 0.44888 0.43761 0.56608 0.0
C327 C 0.53992 0.5084 0.5657 0.0
C328 C 0.00953 0.47167 0.89918 0.0
C329 C 0.04036 0.50824 0.90011 0.0
H330 H 0.94986 0.43705 0.89965 0.0
C331 C 0.03372 0.53865 0.89913 0.0
H332 H 0.01359 0.44765 0.8998 0.0
C333 C 0.99714 0.53264 0.89911 0.0
C334 C 0.96631 0.49607 0.90006 0.0
H335 H 0.05681 0.56726 0.89961 0.0
H336 H 0.99308 0.55666 0.89967 0.0
C337 C 0.97295 0.46566 0.89915 0.0
C338 C 0.50909 0.97171 0.23222 0.0
C339 C 0.47205 0.9651 0.23318 0.0
H340 H 0.56775 0.01231 0.23291 0.0
C341 C 0.46634 0.99595 0.23234 0.0
H342 H 0.51458 0.9486 0.23263 0.0
C343 C 0.49693 0.03251 0.23245 0.0
C344 C 0.53396 0.03912 0.23339 0.0
H345 H 0.43827 0.99192 0.23295 0.0
H346 H 0.49143 0.05563 0.23302 0.0
C347 C 0.53967 0.00827 0.23233 0.0
C348 C 0.45825 0.60852 0.81145 0.0
C349 C 0.42997 0.58046 0.77369 0.0
H350 H 0.47769 0.62858 0.90548 0.0
C351 C 0.39935 0.55006 0.80303 0.0
H352 H 0.48205 0.6325 0.78996 0.0
C353 C 0.39727 0.54755 0.86905 0.0
C354 C 0.42534 0.57583 0.90681 0.0
H355 H 0.37721 0.52811 0.77503 0.0
H356 H 0.37329 0.52375 0.89054 0.0
C357 C 0.45574 0.60644 0.87747 0.0
C358 C 0.85185 0.39588 0.20245 0.0
C359 C 0.85162 0.42394 0.24021 0.0
H360 H 0.85127 0.37585 0.10842 0.0
C361 C 0.85142 0.45435 0.21086 0.0
H362 H 0.85166 0.3719 0.22394 0.0
C363 C 0.85187 0.45687 0.14484 0.0
C364 C 0.85167 0.4286 0.10708 0.0
H365 H 0.85122 0.47629 0.23887 0.0
H366 H 0.8517 0.48067 0.12335 0.0
C367 C 0.85145 0.39798 0.13643 0.0
C368 C 0.39896 0.85031 0.54388 0.0
C369 C 0.4296 0.85057 0.57322 0.0
H370 H 0.37286 0.8505 0.45638 0.0
C371 C 0.45789 0.85082 0.53545 0.0
H372 H 0.37681 0.85009 0.57189 0.0
C373 C 0.45536 0.85037 0.46943 0.0
C374 C 0.42493 0.85053 0.4401 0.0
H375 H 0.48171 0.85067 0.55694 0.0
H376 H 0.47732 0.8502 0.44142 0.0
C377 C 0.39686 0.85072 0.47787 0.0
C378 C 0.60745 0.45449 0.80298 0.0
C379 C 0.57682 0.4241 0.77363 0.0
H380 H 0.63352 0.48077 0.8905 0.0
C381 C 0.54852 0.39605 0.81138 0.0
H382 H 0.6296 0.47642 0.77499 0.0
C383 C 0.55103 0.39813 0.8774 0.0
C384 C 0.58145 0.42872 0.90675 0.0
H385 H 0.52471 0.37209 0.78988 0.0
H386 H 0.52907 0.376 0.90539 0.0
C387 C 0.60953 0.45699 0.869 0.0
C388 C 0.15506 0.60629 0.1366 0.0
C389 C 0.1549 0.5757 0.10725 0.0
H390 H 0.15474 0.63231 0.22412 0.0
C391 C 0.1547 0.54743 0.14501 0.0
H392 H 0.15523 0.62842 0.1086 0.0
C393 C 0.15509 0.54992 0.21102 0.0
C394 C 0.15482 0.5803 0.24038 0.0
H395 H 0.15491 0.52365 0.12351 0.0
H396 H 0.15529 0.52798 0.23903 0.0
C397 C 0.15459 0.60835 0.20262 0.0
C398 C 0.60714 0.15391 0.54442 0.0
C399 C 0.57654 0.15374 0.57375 0.0
H400 H 0.63318 0.1536 0.45692 0.0
C401 C 0.54828 0.15355 0.53598 0.0
H402 H 0.62926 0.15408 0.57244 0.0
C403 C 0.55078 0.15396 0.46996 0.0
C404 C 0.58117 0.1537 0.44063 0.0
H405 H 0.52449 0.15377 0.55746 0.0
H406 H 0.52885 0.15417 0.44195 0.0
C407 C 0.60922 0.15346 0.4784 0.0
loop_
_geom_bond_atom_site_label_1
_geom_bond_atom_site_label_2
_geom_bond_distance
_geom_bond_site_symmetry_2
_ccdc_geom_bond_type
C0 O2 1.247 . S
C0 O4 1.258 . S
C1 O8 1.247 . S
C1 O9 1.258 . S
O2 C0 1.247 . S
O2 Zn3 2.028 . S
Zn3 O2 2.028 . S
Zn3 O7 2.035 . S
Zn3 O9 2.035 . S
Zn3 O10 2.028 1_554 S
O4 C0 1.258 . S
O4 Zn5 2.035 . S
Zn5 O4 2.035 . S
Zn5 O6 2.028 . S
Zn5 O8 2.028 . S
Zn5 O11 2.035 1_554 S
O6 Zn5 2.028 . S
O6 C12 1.247 . S
O7 Zn3 2.035 . S
O7 C12 1.258 . S
O8 C1 1.247 . S
O8 Zn5 2.028 . S
O9 C1 1.258 . S
O9 Zn3 2.035 . S
O10 Zn3 2.028 1_556 S
O10 C13 1.247 . S
O11 Zn5 2.035 1_556 S
O11 C13 1.258 . S
C12 O6 1.247 . S
C12 O7 1.258 . S
C13 O10 1.247 . S
C13 O11 1.258 . S
C14 O16 1.247 . S
C14 O18 1.258 . S
C15 O22 1.247 . S
C15 O23 1.258 . S
O16 C14 1.247 . S
O16 Zn17 2.028 . S
Zn17 O16 2.028 . S
Zn17 O21 2.035 . S
Zn17 O23 2.035 . S
Zn17 O24 2.028 . S
O18 C14 1.258 . S
O18 Zn19 2.035 . S
Zn19 O18 2.035 . S
Zn19 O20 2.028 . S
Zn19 O22 2.028 . S
Zn19 O25 2.035 . S
O20 Zn19 2.028 . S
O20 C26 1.247 . S
O21 Zn17 2.035 . S
O21 C26 1.258 . S
O22 C15 1.247 . S
O22 Zn19 2.028 . S
O23 C15 1.258 . S
O23 Zn17 2.035 . S
O24 Zn17 2.028 . S
O24 C27 1.247 . S
O25 Zn19 2.035 . S
O25 C27 1.258 . S
C26 O20 1.247 . S
C26 O21 1.258 . S
C27 O24 1.247 . S
C27 O25 1.258 . S
C28 O30 1.247 . S
C28 O32 1.258 . S
C29 O36 1.247 . S
C29 O37 1.258 . S
O30 C28 1.247 . S
O30 Zn31 2.028 . S
Zn31 O30 2.028 . S
Zn31 O35 2.035 . S
Zn31 O37 2.035 . S
Zn31 O38 2.028 . S
O32 C28 1.258 . S
O32 Zn33 2.035 . S
Zn33 O32 2.035 . S
Zn33 O34 2.028 . S
Zn33 O36 2.028 . S
Zn33 O39 2.035 . S
O34 Zn33 2.028 . S
O34 C40 1.247 . S
O35 Zn31 2.035 . S
O35 C40 1.258 . S
O36 C29 1.247 . S
O36 Zn33 2.028 . S
O37 C29 1.258 . S
O37 Zn31 2.035 . S
O38 Zn31 2.028 . S
O38 C41 1.247 . S
O39 Zn33 2.035 . S
O39 C41 1.258 . S
C40 O34 1.247 . S
C40 O35 1.258 . S
C41 O38 1.247 . S
C41 O39 1.258 . S
C42 O44 1.247 . S
C42 O46 1.258 . S
C43 O50 1.247 . S
C43 O51 1.258 . S
O44 C42 1.247 . S
O44 Zn45 2.028 1_556 S
Zn45 O44 2.028 1_554 S
Zn45 O49 2.035 . S
Zn45 O51 2.035 . S
Zn45 O52 2.028 . S
O46 C42 1.258 . S
O46 Zn47 2.035 1_556 S
Zn47 O46 2.035 1_554 S
Zn47 O48 2.028 . S
Zn47 O50 2.028 . S
Zn47 O53 2.035 . S
O48 Zn47 2.028 . S
O48 C54 1.247 . S
O49 Zn45 2.035 . S
O49 C54 1.258 . S
O50 C43 1.247 . S
O50 Zn47 2.028 . S
O51 C43 1.258 . S
O51 Zn45 2.035 . S
O52 Zn45 2.028 . S
O52 C55 1.247 . S
O53 Zn47 2.035 . S
O53 C55 1.258 . S
C54 O48 1.247 . S
C54 O49 1.258 . S
C55 O52 1.247 . S
C55 O53 1.258 . S
C56 O58 1.247 . S
C56 O60 1.258 . S
C57 O64 1.247 . S
C57 O65 1.258 . S
O58 C56 1.247 . S
O58 Zn59 2.028 . S
Zn59 O58 2.028 . S
Zn59 O63 2.035 . S
Zn59 O65 2.035 . S
Zn59 O66 2.028 . S
O60 C56 1.258 . S
O60 Zn61 2.035 . S
Zn61 O60 2.035 . S
Zn61 O62 2.028 . S
Zn61 O64 2.028 . S
Zn61 O67 2.035 . S
O62 Zn61 2.028 . S
O62 C68 1.247 . S
O63 Zn59 2.035 . S
O63 C68 1.258 . S
O64 C57 1.247 . S
O64 Zn61 2.028 . S
O65 C57 1.258 . S
O65 Zn59 2.035 . S
O66 Zn59 2.028 . S
O66 C69 1.247 . S
O67 Zn61 2.035 . S
O67 C69 1.258 . S
C68 O62 1.247 . S
C68 O63 1.258 . S
C69 O66 1.247 . S
C69 O67 1.258 . S
C70 O72 1.247 . S
C70 O74 1.258 . S
C71 O78 1.247 . S
C71 O79 1.258 . S
O72 C70 1.247 . S
O72 Zn73 2.028 . S
Zn73 O72 2.028 . S
Zn73 O77 2.035 . S
Zn73 O79 2.035 . S
Zn73 O80 2.028 . S
O74 C70 1.258 . S
O74 Zn75 2.035 . S
Zn75 O74 2.035 . S
Zn75 O76 2.028 . S
Zn75 O78 2.028 . S
Zn75 O81 2.035 . S
O76 Zn75 2.028 . S
O76 C82 1.247 . S
O77 Zn73 2.035 . S
O77 C82 1.258 . S
O78 C71 1.247 . S
O78 Zn75 2.028 . S
O79 C71 1.258 . S
O79 Zn73 2.035 . S
O80 Zn73 2.028 . S
O80 C83 1.247 . S
O81 Zn75 2.035 . S
O81 C83 1.258 . S
C82 O76 1.247 . S
C82 O77 1.258 . S
C83 O80 1.247 . S
C83 O81 1.258 . S
C84 O86 1.247 . S
C84 O88 1.258 . S
C85 O92 1.247 . S
C85 O93 1.258 . S
O86 C84 1.247 . S
O86 Zn87 2.028 . S
Zn87 O86 2.028 . S
Zn87 O91 2.035 . S
Zn87 O93 2.035 . S
Zn87 O94 2.028 . S
O88 C84 1.258 . S
O88 Zn89 2.035 . S
Zn89 O88 2.035 . S
Zn89 O90 2.028 . S
Zn89 O92 2.028 . S
Zn89 O95 2.035 . S
O90 Zn89 2.028 . S
O90 C96 1.247 . S
O91 Zn87 2.035 . S
O91 C96 1.258 . S
O92 C85 1.247 . S
O92 Zn89 2.028 . S
O93 C85 1.258 . S
O93 Zn87 2.035 . S
O94 Zn87 2.028 . S
O94 C97 1.247 . S
O95 Zn89 2.035 . S
O95 C97 1.258 . S
C96 O90 1.247 . S
C96 O91 1.258 . S
C97 O94 1.247 . S
C97 O95 1.258 . S
C98 O100 1.247 . S
C98 O102 1.258 . S
C99 O106 1.247 . S
C99 O107 1.258 . S
O100 C98 1.247 . S
O100 Zn101 2.028 . S
Zn101 O100 2.028 . S
Zn101 O105 2.035 . S
Zn101 O107 2.035 1_556 S
Zn101 O108 2.028 . S
O102 C98 1.258 . S
O102 Zn103 2.035 . S
Zn103 O102 2.035 . S
Zn103 O104 2.028 . S
Zn103 O106 2.028 1_556 S
Zn103 O109 2.035 . S
O104 Zn103 2.028 . S
O104 C110 1.247 . S
O105 Zn101 2.035 . S
O105 C110 1.258 . S
O106 C99 1.247 . S
O106 Zn103 2.028 1_554 S
O107 C99 1.258 . S
O107 Zn101 2.035 1_554 S
O108 Zn101 2.028 . S
O108 C111 1.247 . S
O109 Zn103 2.035 . S
O109 C111 1.258 . S
C110 O104 1.247 . S
C110 O105 1.258 . S
C111 O108 1.247 . S
C111 O109 1.258 . S
C112 O114 1.247 . S
C112 O116 1.258 . S
C113 O120 1.247 . S
C113 O121 1.258 . S
O114 C112 1.247 . S
O114 Zn115 2.028 . S
Zn115 O114 2.028 . S
Zn115 O119 2.035 . S
Zn115 O121 2.035 . S
Zn115 O122 2.028 . S
O116 C112 1.258 . S
O116 Zn117 2.035 . S
Zn117 O116 2.035 . S
Zn117 O118 2.028 . S
Zn117 O120 2.028 . S
Zn117 O123 2.035 . S
O118 Zn117 2.028 . S
O118 C124 1.247 . S
O119 Zn115 2.035 . S
O119 C124 1.258 . S
O120 C113 1.247 . S
O120 Zn117 2.028 . S
O121 C113 1.258 . S
O121 Zn115 2.035 . S
O122 Zn115 2.028 . S
O122 C125 1.247 . S
O123 Zn117 2.035 . S
O123 C125 1.258 . S
C124 O118 1.247 . S
C124 O119 1.258 . S
C125 O122 1.247 . S
C125 O123 1.258 . S
C126 O128 1.247 . S
C126 O130 1.258 . S
C127 O134 1.247 . S
C127 O135 1.258 . S
O128 C126 1.247 . S
O128 Zn129 2.028 . S
Zn129 O128 2.028 . S
Zn129 O133 2.035 . S
Zn129 O135 2.035 . S
Zn129 O136 2.028 . S
O130 C126 1.258 . S
O130 Zn131 2.035 . S
Zn131 O130 2.035 . S
Zn131 O132 2.028 . S
Zn131 O134 2.028 . S
Zn131 O137 2.035 . S
O132 Zn131 2.028 . S
O132 C138 1.247 . S
O133 Zn129 2.035 . S
O133 C138 1.258 . S
O134 C127 1.247 . S
O134 Zn131 2.028 . S
O135 C127 1.258 . S
O135 Zn129 2.035 . S
O136 Zn129 2.028 . S
O136 C139 1.247 . S
O137 Zn131 2.035 . S
O137 C139 1.258 . S
C138 O132 1.247 . S
C138 O133 1.258 . S
C139 O136 1.247 . S
C139 O137 1.258 . S
C140 O142 1.247 . S
C140 O144 1.258 . S
C141 O148 1.247 . S
C141 O149 1.258 . S
O142 C140 1.247 . S
O142 Zn143 2.028 . S
Zn143 O142 2.028 . S
Zn143 O147 2.035 . S
Zn143 O149 2.035 1_556 S
Zn143 O150 2.028 . S
O144 C140 1.258 . S
O144 Zn145 2.035 . S
Zn145 O144 2.035 . S
Zn145 O146 2.028 . S
Zn145 O148 2.028 1_556 S
Zn145 O151 2.035 . S
O146 Zn145 2.028 . S
O146 C152 1.247 . S
O147 Zn143 2.035 . S
O147 C152 1.258 . S
O148 C141 1.247 . S
O148 Zn145 2.028 1_554 S
O149 C141 1.258 . S
O149 Zn143 2.035 1_554 S
O150 Zn143 2.028 . S
O150 C153 1.247 . S
O151 Zn145 2.035 . S
O151 C153 1.258 . S
C152 O146 1.247 . S
C152 O147 1.258 . S
C153 O150 1.247 . S
C153 O151 1.258 . S
C154 O156 1.247 . S
C154 O158 1.258 . S
C155 O162 1.247 . S
C155 O163 1.258 . S
O156 C154 1.247 . S
O156 Zn157 2.028 . S
Zn157 O156 2.028 . S
Zn157 O161 2.035 . S
Zn157 O163 2.035 . S
Zn157 O164 2.028 . S
O158 C154 1.258 . S
O158 Zn159 2.035 . S
Zn159 O158 2.035 . S
Zn159 O160 2.028 . S
Zn159 O162 2.028 . S
Zn159 O165 2.035 . S
O160 Zn159 2.028 . S
O160 C166 1.247 . S
O161 Zn157 2.035 . S
O161 C166 1.258 . S
O162 C155 1.247 . S
O162 Zn159 2.028 . S
O163 C155 1.258 . S
O163 Zn157 2.035 . S
O164 Zn157 2.028 . S
O164 C167 1.247 . S
O165 Zn159 2.035 . S
O165 C167 1.258 . S
C166 O160 1.247 . S
C166 O161 1.258 . S
C167 O164 1.247 . S
C167 O165 1.258 . S
C168 C169 1.387 . S
C168 H172 0.950 . S
C168 C177 1.390 . S
C169 C168 1.387 . S
C169 C171 1.387 . S
H170 C177 0.950 . S
C171 C169 1.387 . S
C171 C173 1.390 . S
C171 H175 0.950 . S
H172 C168 0.950 . S
C173 C171 1.390 . S
C173 C174 1.387 . S
C173 H176 0.950 . S
C174 C173 1.387 . S
C174 C177 1.387 . S
H175 C171 0.950 . S
H176 C173 0.950 . S
C177 C168 1.390 . S
C177 H170 0.950 . S
C177 C174 1.387 . S
C178 C179 1.387 . S
C178 H182 0.950 . S
C178 C187 1.390 . S
C179 C178 1.387 . S
C179 C181 1.387 . S
H180 C187 0.950 . S
C181 C179 1.387 . S
C181 C183 1.390 . S
C181 H185 0.950 . S
H182 C178 0.950 . S
C183 C181 1.390 . S
C183 C184 1.387 . S
C183 H186 0.950 . S
C184 C183 1.387 . S
C184 C187 1.387 . S
H185 C181 0.950 . S
H186 C183 0.950 . S
C187 C178 1.390 . S
C187 H180 0.950 . S
C187 C184 1.387 . S
C188 C189 1.387 . S
C188 H192 0.950 . S
C188 C197 1.390 1_556 S
C189 C188 1.387 . S
C189 C191 1.387 . S
H190 C197 0.950 . S
C191 C189 1.387 . S
C191 C193 1.390 1_556 S
C191 H195 0.950 . S
H192 C188 0.950 . S
C193 C191 1.390 1_554 S
C193 C194 1.387 . S
C193 H196 0.950 . S
C194 C193 1.387 . S
C194 C197 1.387 . S
H195 C191 0.950 . S
H196 C193 0.950 . S
C197 C188 1.390 1_554 S
C197 H190 0.950 . S
C197 C194 1.387 . S
C198 C199 1.387 . S
C198 H202 0.950 . S
C198 C207 1.390 . S
C199 C198 1.387 . S
C199 C201 1.387 . S
H200 C207 0.950 . S
C201 C199 1.387 . S
C201 C203 1.390 . S
C201 H205 0.950 . S
H202 C198 0.950 . S
C203 C201 1.390 . S
C203 C204 1.387 . S
C203 H206 0.950 . S
C204 C203 1.387 . S
C204 C207 1.387 . S
H205 C201 0.950 . S
H206 C203 0.950 . S
C207 C198 1.390 . S
C207 H200 0.950 . S
C207 C204 1.387 . S
C208 C209 1.387 . S
C208 H212 0.950 . S
C208 C217 1.390 . S
C209 C208 1.387 . S
C209 C211 1.387 . S
H210 C217 0.950 . S
C211 C209 1.387 . S
C211 C213 1.390 . S
C211 H215 0.950 . S
H212 C208 0.950 . S
C213 C211 1.390 . S
C213 C214 1.387 . S
C213 H216 0.950 . S
C214 C213 1.387 . S
C214 C217 1.387 . S
H215 C211 0.950 . S
H216 C213 0.950 . S
C217 C208 1.390 . S
C217 H210 0.950 . S
C217 C214 1.387 . S
C218 C219 1.387 . S
C218 H222 0.950 . S
C218 C227 1.390 1_554 S
C219 C218 1.387 . S
C219 C221 1.387 . S
H220 C227 0.950 . S
C221 C219 1.387 . S
C221 C223 1.390 1_554 S
C221 H225 0.950 . S
H222 C218 0.950 . S
C223 C221 1.390 1_556 S
C223 C224 1.387 . S
C223 H226 0.950 . S
C224 C223 1.387 . S
C224 C227 1.387 . S
H225 C221 0.950 . S
H226 C223 0.950 . S
C227 C218 1.390 1_556 S
C227 H220 0.950 . S
C227 C224 1.387 . S
C228 C229 1.387 . S
C228 H232 0.950 . S
C228 C237 1.390 1_554 S
C229 C228 1.387 . S
C229 C231 1.387 . S
H230 C237 0.950 . S
C231 C229 1.387 . S
C231 C233 1.390 1_554 S
C231 H235 0.950 . S
H232 C228 0.950 . S
C233 C231 1.390 1_556 S
C233 C234 1.387 . S
C233 H236 0.950 . S
C234 C233 1.387 . S
C234 C237 1.387 . S
H235 C231 0.950 . S
H236 C233 0.950 . S
C237 C228 1.390 1_556 S
C237 H230 0.950 . S
C237 C234 1.387 . S
C238 C239 1.387 . S
C238 H242 0.950 . S
C238 C247 1.390 . S
C239 C238 1.387 . S
C239 C241 1.387 . S
H240 C247 0.950 . S
C241 C239 1.387 . S
C241 C243 1.390 . S
C241 H245 0.950 . S
H242 C238 0.950 . S
C243 C241 1.390 . S
C243 C244 1.387 . S
C243 H246 0.950 . S
C244 C243 1.387 . S
C244 C247 1.387 . S
H245 C241 0.950 . S
H246 C243 0.950 . S
C247 C238 1.390 . S
C247 H240 0.950 . S
C247 C244 1.387 . S
C248 C249 1.387 . S
C248 H252 0.950 . S
C248 C257 1.390 . S
C249 C248 1.387 . S
C249 C251 1.387 . S
H250 C257 0.950 . S
C251 C249 1.387 . S
C251 C253 1.390 . S
C251 H255 0.950 . S
H252 C248 0.950 . S
C253 C251 1.390 . S
C253 C254 1.387 . S
C253 H256 0.950 . S
C254 C253 1.387 . S
C254 C257 1.387 . S
H255 C251 0.950 . S
H256 C253 0.950 . S
C257 C248 1.390 . S
C257 H250 0.950 . S
C257 C254 1.387 . S
C258 C259 1.387 . S
C258 H262 0.950 . S
C258 C267 1.390 1_554 S
C259 C258 1.387 . S
C259 C261 1.387 . S
H260 C267 0.950 . S
C261 C259 1.387 . S
C261 C263 1.390 1_554 S
C261 H265 0.950 . S
H262 C258 0.950 . S
C263 C261 1.390 1_556 S
C263 C264 1.387 . S
C263 H266 0.950 . S
C264 C263 1.387 . S
C264 C267 1.387 . S
H265 C261 0.950 . S
H266 C263 0.950 . S
C267 C258 1.390 1_556 S
C267 H260 0.950 . S
C267 C264 1.387 . S
C268 C269 1.387 . S
C268 H272 0.950 . S
C268 C277 1.390 . S
C269 C268 1.387 . S
C269 C271 1.387 . S
H270 C277 0.950 . S
C271 C269 1.387 . S
C271 C273 1.390 . S
C271 H275 0.950 . S
H272 C268 0.950 . S
C273 C271 1.390 . S
C273 C274 1.387 . S
C273 H276 0.950 . S
C274 C273 1.387 . S
C274 C277 1.387 . S
H275 C271 0.950 . S
H276 C273 0.950 . S
C277 C268 1.390 . S
C277 H270 0.950 . S
C277 C274 1.387 . S
C278 C279 1.387 . S
C278 H282 0.950 . S
C278 C287 1.390 . S
C279 C278 1.387 . S
C279 C281 1.387 . S
H280 C287 0.950 . S
C281 C279 1.387 . S
C281 C283 1.390 . S
C281 H285 0.950 . S
H282 C278 0.950 . S
C283 C281 1.390 . S
C283 C284 1.387 . S
C283 H286 0.950 . S
C284 C283 1.387 . S
C284 C287 1.387 . S
H285 C281 0.950 . S
H286 C283 0.950 . S
C287 C278 1.390 . S
C287 H280 0.950 . S
C287 C284 1.387 . S
C288 C289 1.387 . S
C288 H292 0.950 . S
C288 C297 1.390 . S
C289 C288 1.387 . S
C289 C291 1.387 . S
H290 C297 0.950 . S
C291 C289 1.387 . S
C291 C293 1.390 . S
C291 H295 0.955 . S
H292 C288 0.950 . S
C293 C291 1.390 . S
C293 C294 1.387 . S
C293 H296 0.955 . S
C294 C293 1.387 . S
C294 C297 1.387 . S
H295 C291 0.955 . S
H296 C293 0.955 . S
C297 C288 1.390 . S
C297 H290 0.950 . S
C297 C294 1.387 . S
C298 C299 1.387 . S
C298 H302 0.950 . S
C298 C307 1.390 1_655 S
C299 C298 1.387 . S
C299 C301 1.387 . S
H300 C307 0.950 . S
C301 C299 1.387 . S
C301 C303 1.390 1_655 S
C301 H305 0.950 . S
H302 C298 0.950 . S
C303 C301 1.390 1_455 S
C303 C304 1.387 . S
C303 H306 0.950 . S
C304 C303 1.387 . S
C304 C307 1.387 . S
H305 C301 0.950 . S
H306 C303 0.950 . S
C307 C298 1.390 1_455 S
C307 H300 0.950 . S
C307 C304 1.387 . S
C308 C309 1.387 . S
C308 H312 0.950 . S
C308 C317 1.390 1_545 S
C309 C308 1.387 . S
C309 C311 1.387 . S
H310 C317 0.950 . S
C311 C309 1.387 . S
C311 C313 1.390 1_545 S
C311 H315 0.950 . S
H312 C308 0.950 . S
C313 C311 1.390 1_565 S
C313 C314 1.387 . S
C313 H316 0.950 . S
C314 C313 1.387 . S
C314 C317 1.387 . S
H315 C311 0.950 . S
H316 C313 0.950 . S
C317 C308 1.390 1_565 S
C317 H310 0.950 . S
C317 C314 1.387 . S
C318 C319 1.387 . S
C318 H322 0.950 . S
C318 C327 1.390 . S
C319 C318 1.387 . S
C319 C321 1.387 . S
H320 C327 0.950 . S
C321 C319 1.387 . S
C321 C323 1.390 . S
C321 H325 0.950 . S
H322 C318 0.950 . S
C323 C321 1.390 . S
C323 C324 1.387 . S
C323 H326 0.950 . S
C324 C323 1.387 . S
C324 C327 1.387 . S
H325 C321 0.950 . S
H326 C323 0.950 . S
C327 C318 1.390 . S
C327 H320 0.950 . S
C327 C324 1.387 . S
C328 C329 1.387 . S
C328 H332 0.955 . S
C328 C337 1.390 1_455 S
C329 C328 1.387 . S
C329 C331 1.387 . S
H330 C337 0.955 . S
C331 C329 1.387 . S
C331 C333 1.390 1_455 S
C331 H335 0.950 . S
H332 C328 0.955 . S
C333 C331 1.390 1_655 S
C333 C334 1.387 . S
C333 H336 0.950 . S
C334 C333 1.387 . S
C334 C337 1.387 . S
H335 C331 0.950 . S
H336 C333 0.950 . S
C337 C328 1.390 1_655 S
C337 H330 0.955 . S
C337 C334 1.387 . S
C338 C339 1.387 . S
C338 H342 0.950 . S
C338 C347 1.390 1_565 S
C339 C338 1.387 . S
C339 C341 1.387 . S
H340 C347 0.950 . S
C341 C339 1.387 . S
C341 C343 1.390 1_565 S
C341 H345 0.950 . S
H342 C338 0.950 . S
C343 C341 1.390 1_545 S
C343 C344 1.387 . S
C343 H346 0.950 . S
C344 C343 1.387 . S
C344 C347 1.387 . S
H345 C341 0.950 . S
H346 C343 0.950 . S
C347 C338 1.390 1_545 S
C347 H340 0.950 . S
C347 C344 1.387 . S
C348 C349 1.387 . S
C348 H352 0.950 . S
C348 C357 1.390 . S
C349 C348 1.387 . S
C349 C351 1.387 . S
H350 C357 0.950 . S
C351 C349 1.387 . S
C351 C353 1.390 . S
C351 H355 0.950 . S
H352 C348 0.950 . S
C353 C351 1.390 . S
C353 C354 1.387 . S
C353 H356 0.950 . S
C354 C353 1.387 . S
C354 C357 1.387 . S
H355 C351 0.950 . S
H356 C353 0.950 . S
C357 C348 1.390 . S
C357 H350 0.950 . S
C357 C354 1.387 . S
C358 C359 1.387 . S
C358 H362 0.950 . S
C358 C367 1.390 . S
C359 C358 1.387 . S
C359 C361 1.387 . S
H360 C367 0.950 . S
C361 C359 1.387 . S
C361 C363 1.390 . S
C361 H365 0.950 . S
H362 C358 0.950 . S
C363 C361 1.390 . S
C363 C364 1.387 . S
C363 H366 0.950 . S
C364 C363 1.387 . S
C364 C367 1.387 . S
H365 C361 0.950 . S
H366 C363 0.950 . S
C367 C358 1.390 . S
C367 H360 0.950 . S
C367 C364 1.387 . S
C368 C369 1.387 . S
C368 H372 0.950 . S
C368 C377 1.390 . S
C369 C368 1.387 . S
C369 C371 1.387 . S
H370 C377 0.950 . S
C371 C369 1.387 . S
C371 C373 1.390 . S
C371 H375 0.950 . S
H372 C368 0.950 . S
C373 C371 1.390 . S
C373 C374 1.387 . S
C373 H376 0.950 . S
C374 C373 1.387 . S
C374 C377 1.387 . S
H375 C371 0.950 . S
H376 C373 0.950 . S
C377 C368 1.390 . S
C377 H370 0.950 . S
C377 C374 1.387 . S
C378 C379 1.387 . S
C378 H382 0.950 . S
C378 C387 1.390 . S
C379 C378 1.387 . S
C379 C381 1.387 . S
H380 C387 0.950 . S
C381 C379 1.387 . S
C381 C383 1.390 . S
C381 H385 0.950 . S
H382 C378 0.950 . S
C383 C381 1.390 . S
C383 C384 1.387 . S
C383 H386 0.950 . S
C384 C383 1.387 . S
C384 C387 1.387 . S
H385 C381 0.950 . S
H386 C383 0.950 . S
C387 C378 1.390 . S
C387 H380 0.950 . S
C387 C384 1.387 . S
C388 C389 1.387 . S
C388 H392 0.950 . S
C388 C397 1.390 . S
C389 C388 1.387 . S
C389 C391 1.387 . S
H390 C397 0.950 . S
C391 C389 1.387 . S
C391 C393 1.390 . S
C391 H395 0.950 . S
H392 C388 0.950 . S
C393 C391 1.390 . S
C393 C394 1.387 . S
C393 H396 0.950 . S
C394 C393 1.387 . S
C394 C397 1.387 . S
H395 C391 0.950 . S
H396 C393 0.950 . S
C397 C388 1.390 . S
C397 H390 0.950 . S
C397 C394 1.387 . S
C398 C399 1.387 . S
C398 H402 0.950 . S
C398 C407 1.390 . S
C399 C398 1.387 . S
C399 C401 1.387 . S
H400 C407 0.950 . S
C401 C399 1.387 . S
C401 C403 1.390 . S
C401 H405 0.950 . S
H402 C398 0.950 . S
C403 C401 1.390 . S
C403 C404 1.387 . S
C403 H406 0.950 . S
C404 C403 1.387 . S
C404 C407 1.387 . S
H405 C401 0.950 . S
H406 C403 0.950 . S
C407 C398 1.390 . S
C407 H400 0.950 . S
C407 C404 1.387 . S
C169 C12 1.642 . S
C174 C85 1.641 . S
C179 C15 1.642 . S
C184 C98 1.643 . S
C189 C28 1.643 . S
C194 C125 1.642 . S
C199 C43 1.642 . S
C204 C138 1.643 . S
C209 C56 1.643 . S
C214 C140 1.643 . S
C219 C155 1.642 . S
C224 C70 1.643 . S
C229 C0 1.765 . S
C234 C152 1.765 . S
C239 C27 1.763 . S
C244 C167 1.762 . S
C249 C40 1.763 . S
C254 C97 1.763 . S
C259 C55 1.762 . S
C264 C110 1.763 . S
C269 C68 1.763 . S
C274 C113 1.762 . S
C279 C82 1.764 . S
C284 C126 1.763 . S
C289 C1 1.763 . S
C294 C54 1.766 . S
C299 C26 1.763 . S
C304 C69 1.760 . S
C309 C83 1.763 . S
C314 C41 1.763 . S
C319 C96 1.763 . S
C324 C127 1.760 . S
C329 C153 1.760 . S
C334 C111 1.760 . S
C339 C112 1.766 . S
C344 C166 1.766 . S
C349 C84 1.210 . S
C354 C13 1.210 . S
C359 C14 1.210 . S
C364 C99 1.210 . S
C369 C29 1.211 . S
C374 C124 1.212 . S
C379 C139 1.210 . S
C384 C42 1.210 . S
C389 C141 1.210 . S
C394 C57 1.209 . S
C399 C71 1.210 . S
C404 C154 1.210 . S
