# Generated by pormake.
# Topology sne, (6)-cn, num edge types: 1
# Building blocks:
#     Node 0, Type 0, BuildingBlock: OJICUG_clean_sbu_0, # of connection points: 6
#     Node 1, Type 0, BuildingBlock: OJICUG_clean_sbu_0, # of connection points: 6
#     Node 2, Type 0, BuildingBlock: OJICUG_clean_sbu_0, # of connection points: 6
#     Node 3, Type 0, BuildingBlock: OJICUG_clean_sbu_0, # of connection points: 6
#     Node 4, Type 0, BuildingBlock: OJICUG_clean_sbu_0, # of connection points: 6
#     Node 5, Type 0, BuildingBlock: OJICUG_clean_sbu_0, # of connection points: 6
#     Node 6, Type 0, BuildingBlock: OJICUG_clean_sbu_0, # of connection points: 6
#     Node 7, Type 0, BuildingBlock: OJICUG_clean_sbu_0, # of connection points: 6
#     Edge 8, Type (0, 0), BuildingBlock: UVAHIK_clean_linker_0, # of connection points: 2
#     Edge 9, Type (0, 0), BuildingBlock: UVAHIK_clean_linker_0, # of connection points: 2
#     Edge 10, Type (0, 0), BuildingBlock: UVAHIK_clean_linker_0, # of connection points: 2
#     Edge 11, Type (0, 0), BuildingBlock: UVAHIK_clean_linker_0, # of connection points: 2
#     Edge 12, Type (0, 0), BuildingBlock: UVAHIK_clean_linker_0, # of connection points: 2
#     Edge 13, Type (0, 0), BuildingBlock: UVAHIK_clean_linker_0, # of connection points: 2
#     Edge 14, Type (0, 0), BuildingBlock: UVAHIK_clean_linker_0, # of connection points: 2
#     Edge 15, Type (0, 0), BuildingBlock: UVAHIK_clean_linker_0, # of connection points: 2
#     Edge 16, Type (0, 0), BuildingBlock: UVAHIK_clean_linker_0, # of connection points: 2
#     Edge 17, Type (0, 0), BuildingBlock: UVAHIK_clean_linker_0, # of connection points: 2
#     Edge 18, Type (0, 0), BuildingBlock: UVAHIK_clean_linker_0, # of connection points: 2
#     Edge 19, Type (0, 0), BuildingBlock: UVAHIK_clean_linker_0, # of connection points: 2
#     Edge 20, Type (0, 0), BuildingBlock: UVAHIK_clean_linker_0, # of connection points: 2
#     Edge 21, Type (0, 0), BuildingBlock: UVAHIK_clean_linker_0, # of connection points: 2
#     Edge 22, Type (0, 0), BuildingBlock: UVAHIK_clean_linker_0, # of connection points: 2
#     Edge 23, Type (0, 0), BuildingBlock: UVAHIK_clean_linker_0, # of connection points: 2
#     Edge 24, Type (0, 0), BuildingBlock: UVAHIK_clean_linker_0, # of connection points: 2
#     Edge 25, Type (0, 0), BuildingBlock: UVAHIK_clean_linker_0, # of connection points: 2
#     Edge 26, Type (0, 0), BuildingBlock: UVAHIK_clean_linker_0, # of connection points: 2
#     Edge 27, Type (0, 0), BuildingBlock: UVAHIK_clean_linker_0, # of connection points: 2
#     Edge 28, Type (0, 0), BuildingBlock: UVAHIK_clean_linker_0, # of connection points: 2
#     Edge 29, Type (0, 0), BuildingBlock: UVAHIK_clean_linker_0, # of connection points: 2
#     Edge 30, Type (0, 0), BuildingBlock: UVAHIK_clean_linker_0, # of connection points: 2
#     Edge 31, Type (0, 0), BuildingBlock: UVAHIK_clean_linker_0, # of connection points: 2
# Relax obj value: 0.189
# Max RMSD: 0.224
# Mean RMSD: 0.224
data_MOF--net-sne--node1-OJICUG_clean_sbu_0--edge1-UVAHIK_clean_linker_0
_symmetry_space_group_name_H-M    P1
_symmetry_Int_Tables_number       1
_symmetry_cell_setting            triclinic
loop_
_symmetry_equiv_pos_as_xyz
'x, y, z'
_cell_length_a     43.946294
_cell_length_b     43.966363
_cell_length_c     35.686913
_cell_angle_alpha  90.012138
_cell_angle_beta   89.988724
_cell_angle_gamma 89.950301
loop_
_atom_site_label
_atom_site_type_symbol
_atom_site_fract_x
_atom_site_fract_y
_atom_site_fract_z
_atom_type_partial_charge
Sc0 Sc 0.33477 0.13251 0.47859 0.0
Sc1 Sc 0.25996 0.13757 0.4451 0.0
Sc2 Sc 0.30289 0.20454 0.45719 0.0
O3 O 0.29927 0.15822 0.46009 0.0
C4 C 0.33503 0.18881 0.53512 0.0
C5 C 0.27969 0.0957 0.51399 0.0
C6 C 0.23602 0.19503 0.49026 0.0
C7 C 0.30981 0.09347 0.40956 0.0
C8 C 0.36838 0.18318 0.42942 0.0
C9 C 0.26366 0.19102 0.38419 0.0
O10 O 0.34014 0.16091 0.52778 0.0
O11 O 0.25993 0.10678 0.49193 0.0
O12 O 0.25907 0.21179 0.48392 0.0
O13 O 0.33134 0.10129 0.43154 0.0
O14 O 0.3469 0.2026 0.42997 0.0
O15 O 0.25404 0.16547 0.3959 0.0
O16 O 0.36706 0.15794 0.44653 0.0
O17 O 0.28328 0.10494 0.4112 0.0
O18 O 0.28207 0.20741 0.40277 0.0
O19 O 0.30756 0.10293 0.51252 0.0
O20 O 0.32331 0.20715 0.51169 0.0
O21 O 0.23359 0.16793 0.47845 0.0
Sc22 Sc 0.11756 0.77299 0.66685 0.0
Sc23 Sc 0.13154 0.70599 0.61673 0.0
Sc24 Sc 0.18969 0.73844 0.67116 0.0
O25 O 0.14639 0.73922 0.65153 0.0
C26 C 0.17873 0.80896 0.65174 0.0
C27 C 0.10068 0.76241 0.57985 0.0
C28 C 0.20056 0.7138 0.58897 0.0
C29 C 0.07259 0.71819 0.66798 0.0
C30 C 0.15454 0.76252 0.74281 0.0
C31 C 0.16776 0.66901 0.67827 0.0
O32 O 0.14991 0.80671 0.65138 0.0
O33 O 0.116 0.73809 0.57625 0.0
O34 O 0.20916 0.72879 0.61741 0.0
O35 O 0.08311 0.74174 0.68388 0.0
O36 O 0.17571 0.74753 0.72731 0.0
O37 O 0.14591 0.67162 0.65517 0.0
O38 O 0.13286 0.77463 0.72456 0.0
O39 O 0.08646 0.70444 0.64161 0.0
O40 O 0.1865 0.69047 0.68515 0.0
O41 O 0.09764 0.77607 0.61116 0.0
O42 O 0.19631 0.7867 0.65959 0.0
O43 O 0.17382 0.70309 0.58589 0.0
Sc44 Sc 0.8026 0.79492 0.27694 0.0
Sc45 Sc 0.83965 0.86439 0.25758 0.0
Sc46 Sc 0.76416 0.86452 0.28962 0.0
O47 O 0.80213 0.84129 0.27487 0.0
C48 C 0.73725 0.80979 0.2421 0.0
C49 C 0.83611 0.80967 0.19949 0.0
C50 C 0.7881 0.90706 0.22352 0.0
C51 C 0.86923 0.8104 0.30531 0.0
C52 C 0.76302 0.80977 0.3492 0.0
C53 C 0.81726 0.90278 0.3284 0.0
O54 O 0.75907 0.79142 0.24857 0.0
O55 O 0.84225 0.83733 0.20697 0.0
O56 O 0.76684 0.89663 0.24388 0.0
O57 O 0.84573 0.79356 0.30611 0.0
O58 O 0.7553 0.83614 0.33801 0.0
O59 O 0.83856 0.89374 0.30669 0.0
O60 O 0.78057 0.79258 0.3305 0.0
O61 O 0.8702 0.83518 0.2872 0.0
O62 O 0.78976 0.89417 0.32502 0.0
O63 O 0.82411 0.79163 0.22307 0.0
O64 O 0.73627 0.83677 0.25471 0.0
O65 O 0.81521 0.89752 0.22578 0.0
Sc66 Sc 0.86859 0.20556 0.62406 0.0
Sc67 Sc 0.87028 0.27367 0.57326 0.0
Sc68 Sc 0.80395 0.22897 0.57429 0.0
O69 O 0.8475 0.23618 0.59052 0.0
C70 C 0.83578 0.16345 0.56538 0.0
C71 C 0.92357 0.22697 0.57063 0.0
C72 C 0.83187 0.25686 0.49982 0.0
C73 C 0.89131 0.26626 0.65953 0.0
C74 C 0.80073 0.20402 0.65699 0.0
C75 C 0.80501 0.30064 0.59059 0.0
O76 O 0.85873 0.16971 0.58559 0.0
O77 O 0.90875 0.24815 0.55489 0.0
O78 O 0.81376 0.2392 0.51695 0.0
O79 O 0.87997 0.23992 0.66388 0.0
O80 O 0.78911 0.21853 0.62986 0.0
O81 O 0.8338 0.30285 0.58928 0.0
O82 O 0.8284 0.19555 0.65724 0.0
O83 O 0.89129 0.28014 0.62808 0.0
O84 O 0.79068 0.27583 0.58513 0.0
O85 O 0.91259 0.2112 0.59731 0.0
O86 O 0.81315 0.18141 0.56137 0.0
O87 O 0.85266 0.27176 0.51652 0.0
Sc88 Sc 0.19373 0.2925 0.95524 0.0
Sc89 Sc 0.23348 0.36133 0.94378 0.0
Sc90 Sc 0.15868 0.3627 0.97807 0.0
O91 O 0.19526 0.33883 0.9589 0.0
C92 C 0.12706 0.31104 0.92847 0.0
C93 C 0.23262 0.3077 0.88272 0.0
C94 C 0.18119 0.40209 0.908 0.0
C95 C 0.26012 0.30505 0.98865 0.0
C96 C 0.16151 0.30621 0.03392 0.0
C97 C 0.21181 0.40265 0.01262 0.0
O98 O 0.14971 0.29298 0.9279 0.0
O99 O 0.24149 0.33328 0.89515 0.0
O100 O 0.16055 0.39425 0.93125 0.0
O101 O 0.23807 0.28717 0.98145 0.0
O102 O 0.15495 0.33383 0.02682 0.0
O103 O 0.23184 0.39301 0.98989 0.0
O104 O 0.17385 0.28856 0.01011 0.0
O105 O 0.26108 0.33256 0.97786 0.0
O106 O 0.18458 0.3933 0.01206 0.0
O107 O 0.21425 0.29078 0.90058 0.0
O108 O 0.12721 0.33589 0.94651 0.0
O109 O 0.2082 0.39171 0.90894 0.0
Sc110 Sc 0.37562 0.71892 0.16235 0.0
Sc111 Sc 0.3652 0.78885 0.11763 0.0
Sc112 Sc 0.30613 0.75759 0.17122 0.0
O113 O 0.34887 0.75504 0.15029 0.0
C114 C 0.31254 0.68705 0.14822 0.0
C115 C 0.39225 0.73279 0.07583 0.0
C116 C 0.29546 0.78477 0.09082 0.0
C117 C 0.42405 0.77042 0.16624 0.0
C118 C 0.34118 0.72994 0.24032 0.0
C119 C 0.33161 0.82557 0.18108 0.0
O120 O 0.34128 0.68801 0.14485 0.0
O121 O 0.37795 0.75786 0.07439 0.0
O122 O 0.28682 0.76832 0.11799 0.0
O123 O 0.41193 0.74712 0.18088 0.0
O124 O 0.32138 0.74763 0.22648 0.0
O125 O 0.35405 0.82206 0.15908 0.0
O126 O 0.36061 0.71573 0.22043 0.0
O127 O 0.41076 0.78632 0.14125 0.0
O128 O 0.31099 0.80548 0.18556 0.0
O129 O 0.39501 0.71748 0.10604 0.0
O130 O 0.2968 0.70966 0.15968 0.0
O131 O 0.3223 0.79553 0.08848 0.0
Sc132 Sc 0.7193 0.62578 0.80946 0.0
Sc133 Sc 0.65228 0.63145 0.75641 0.0
Sc134 Sc 0.69291 0.69774 0.78184 0.0
O135 O 0.68817 0.65167 0.78256 0.0
C136 C 0.72066 0.68398 0.86264 0.0
C137 C 0.65828 0.5931 0.83277 0.0
C138 C 0.6225 0.68814 0.79958 0.0
C139 C 0.70373 0.58377 0.73825 0.0
C140 C 0.75972 0.67311 0.76345 0.0
C141 C 0.66636 0.68557 0.69981 0.0
O142 O 0.72475 0.65584 0.85665 0.0
O143 O 0.64399 0.60069 0.80309 0.0
O144 O 0.64699 0.70348 0.80309 0.0
O145 O 0.71942 0.5912 0.76671 0.0
O146 O 0.7395 0.69398 0.76121 0.0
O147 O 0.65708 0.65869 0.70614 0.0
O148 O 0.75532 0.64797 0.78024 0.0
O149 O 0.67943 0.59748 0.72917 0.0
O150 O 0.67807 0.70218 0.72496 0.0
O151 O 0.6851 0.60204 0.84016 0.0
O152 O 0.7091 0.7015 0.83833 0.0
O153 O 0.62119 0.66309 0.78176 0.0
Sc154 Sc 0.62834 0.28778 0.12157 0.0
Sc155 Sc 0.62737 0.21391 0.08633 0.0
Sc156 Sc 0.68817 0.26217 0.06543 0.0
O157 O 0.64793 0.25473 0.09104 0.0
C158 C 0.65338 0.3256 0.0534 0.0
C159 C 0.57194 0.25741 0.07748 0.0
C160 C 0.65665 0.22284 0.00467 0.0
C161 C 0.60988 0.23254 0.17075 0.0
C162 C 0.69877 0.29366 0.14379 0.0
C163 C 0.69453 0.19431 0.0978 0.0
O164 O 0.63283 0.31992 0.07731 0.0
O165 O 0.5865 0.23439 0.06528 0.0
O166 O 0.67042 0.2473 0.01283 0.0
O167 O 0.62167 0.25878 0.16874 0.0
O168 O 0.70856 0.27752 0.11678 0.0
O169 O 0.66695 0.19203 0.10804 0.0
O170 O 0.67096 0.3015 0.14689 0.0
O171 O 0.60823 0.21488 0.14254 0.0
O172 O 0.70464 0.21642 0.07824 0.0
O173 O 0.58358 0.2768 0.09992 0.0
O174 O 0.6763 0.30827 0.04843 0.0
O175 O 0.64331 0.20645 0.0291 0.0
C176 C 0.34388 0.05704 0.37455 0.0
C177 C 0.3147 0.06855 0.38226 0.0
C178 C 0.34756 0.03232 0.35017 0.0
C179 C 0.30573 0.98674 0.27829 0.0
H180 H 0.36438 0.92423 0.30404 0.0
C181 C 0.30263 0.86457 0.21814 0.0
C182 C 0.33022 0.85403 0.20306 0.0
C183 C 0.30175 0.89171 0.23858 0.0
C184 C 0.34803 0.94163 0.29646 0.0
H185 H 0.26652 0.06301 0.37023 0.0
H186 H 0.27282 0.01987 0.32925 0.0
H187 H 0.36182 0.97066 0.34144 0.0
H188 H 0.37862 0.86331 0.19827 0.0
H189 H 0.37703 0.91026 0.23455 0.0
H190 H 0.29126 0.957 0.23419 0.0
C191 C 0.29304 0.03027 0.34089 0.0
C192 C 0.3467 0.96833 0.31766 0.0
C193 C 0.28942 0.05504 0.36475 0.0
C194 C 0.35693 0.87093 0.20927 0.0
C195 C 0.35613 0.8977 0.23021 0.0
C196 C 0.30676 0.95986 0.25753 0.0
C197 C 0.3221 0.01846 0.33332 0.0
C198 C 0.3253 0.99111 0.30908 0.0
C199 C 0.32853 0.9084 0.24487 0.0
C200 C 0.32776 0.93701 0.2666 0.0
H201 H 0.36383 0.06701 0.38746 0.0
H202 H 0.37033 0.02406 0.34459 0.0
H203 H 0.28945 0.00404 0.27026 0.0
H204 H 0.2817 0.85206 0.2138 0.0
H205 H 0.28022 0.89949 0.24986 0.0
C206 C 0.02253 0.69486 0.65124 0.0
C207 C 0.04142 0.70878 0.67799 0.0
C208 C 0.99163 0.69045 0.65873 0.0
C209 C 0.92469 0.70677 0.67501 0.0
H210 H 0.89853 0.66979 0.76822 0.0
C211 C 0.80016 0.70644 0.7344 0.0
C212 C 0.79038 0.67782 0.74722 0.0
C213 C 0.83039 0.71063 0.72284 0.0
C214 C 0.90555 0.68019 0.74209 0.0
H215 H 0.04318 0.72769 0.7341 0.0
H216 H 0.98942 0.71919 0.7475 0.0
H217 H 0.95278 0.67458 0.75487 0.0
H218 H 0.80428 0.63073 0.75546 0.0
H219 H 0.85641 0.63829 0.7359 0.0
H220 H 0.87721 0.71248 0.66248 0.0
C221 C -0.00157 0.71205 0.72064 0.0
C222 C 0.93652 0.683 0.73454 0.0
C223 C 0.02916 0.7169 0.71296 0.0
C224 C 0.811 0.65328 0.74648 0.0
C225 C 0.84097 0.65752 0.73528 0.0
C226 C 0.89359 0.70432 0.68282 0.0
C227 C 0.97928 0.69939 0.69332 0.0
C228 C 0.94638 0.69613 0.70086 0.0
C229 C 0.85115 0.6863 0.72422 0.0
C230 C 0.88382 0.69073 0.71629 0.0
H231 H 0.0313 0.68863 0.62392 0.0
H232 H 0.97732 0.68034 0.63739 0.0
H233 H 0.93182 0.7173 0.649 0.0
H234 H 0.78483 0.72574 0.73444 0.0
H235 H 0.83783 0.73306 0.71429 0.0
C236 C 0.80659 0.95083 0.18508 0.0
C237 C 0.78207 0.93368 0.19916 0.0
C238 C 0.80151 0.97858 0.16721 0.0
C239 C 0.78136 0.0453 0.16631 0.0
H240 H 0.72275 0.06057 0.08726 0.0
C241 C 0.7146 0.15643 0.14288 0.0
C242 C 0.71454 0.16855 0.10653 0.0
C243 C 0.72887 0.12871 0.15011 0.0
C244 C 0.73949 0.05651 0.10897 0.0
H245 H 0.73286 0.93129 0.20302 0.0
H246 H 0.72402 0.97972 0.17095 0.0
H247 H 0.73451 0.008 0.10553 0.0
H248 H 0.72957 0.1619 0.04933 0.0
H249 H 0.75381 0.11247 0.06182 0.0
H250 H 0.78496 0.09377 0.17133 0.0
C251 C 0.74715 0.97161 0.17424 0.0
C252 C 0.74601 0.02658 0.11955 0.0
C253 C 0.75223 0.94399 0.1927 0.0
C254 C 0.72983 0.15311 0.07769 0.0
C255 C 0.74342 0.12488 0.08472 0.0
C256 C 0.77437 0.07517 0.15628 0.0
C257 C 0.77181 0.98952 0.16242 0.0
C258 C 0.76674 0.02079 0.1486 0.0
C259 C 0.74253 0.1123 0.12087 0.0
C260 C 0.75313 0.08099 0.12786 0.0
H261 H 0.8299 0.94362 0.18942 0.0
H262 H 0.82084 0.99195 0.1581 0.0
H263 H 0.79724 0.04136 0.18903 0.0
H264 H 0.70267 0.16791 0.16539 0.0
H265 H 0.72773 0.11927 0.17812 0.0
C266 C 0.0733 0.32188 0.90997 0.0
C267 C 0.09989 0.30444 0.90528 0.0
C268 C 0.04876 0.31859 0.88557 0.0
C269 C 0.03115 0.29437 0.78968 0.0
H270 H 0.94748 0.29803 0.82405 0.0
C271 C 0.93228 0.30019 0.68478 0.0
C272 C 0.9091 0.2788 0.69117 0.0
C273 C 0.95356 0.30665 0.71281 0.0
C274 C 0.97072 0.29698 0.81403 0.0
H275 H 0.12099 0.26893 0.87199 0.0
H276 H 0.0778 0.26293 0.82943 0.0
H277 H 0.98885 0.2989 0.86963 0.0
H278 H 0.8885 0.24951 0.73304 0.0
H279 H 0.92548 0.26076 0.78166 0.0
H280 H 0.01305 0.29172 0.73415 0.0
C281 C 0.07625 0.27949 0.85182 0.0
C282 C 0.99442 0.29763 0.8401 0.0
C283 C 0.10087 0.28271 0.87641 0.0
C284 C 0.90621 0.26593 0.72708 0.0
C285 C 0.92737 0.27247 0.75507 0.0
C286 C 0.00746 0.29378 0.76361 0.0
C287 C 0.05015 0.29778 0.8558 0.0
C288 C 0.0249 0.29621 0.82823 0.0
C289 C 0.95193 0.29202 0.7478 0.0
C290 C 0.97697 0.29496 0.77548 0.0
H291 H 0.07165 0.33877 0.932 0.0
H292 H 0.02912 0.33319 0.88926 0.0
H293 H 0.05439 0.2937 0.77959 0.0
H294 H 0.93515 0.31054 0.65746 0.0
H295 H 0.97193 0.32228 0.70664 0.0
C296 C 0.31531 0.63339 0.12592 0.0
C297 C 0.29761 0.65759 0.1398 0.0
C298 C 0.30258 0.60488 0.11998 0.0
C299 C 0.23173 0.56524 0.10083 0.0
H300 H 0.28053 0.49464 0.12663 0.0
C301 C 0.19666 0.44377 0.05762 0.0
C302 C 0.2197 0.42782 0.03845 0.0
C303 C 0.20347 0.4701 0.07785 0.0
C304 C 0.26661 0.51411 0.11936 0.0
H305 H 0.25222 0.67074 0.15746 0.0
H306 H 0.22971 0.62039 0.14654 0.0
H307 H 0.2965 0.54504 0.14726 0.0
H308 H 0.26824 0.42611 0.02746 0.0
H309 H 0.28009 0.47192 0.06287 0.0
H310 H 0.20236 0.53431 0.07187 0.0
C311 C 0.25362 0.62384 0.14058 0.0
C312 C 0.27572 0.54294 0.13114 0.0
C313 C 0.26649 0.65262 0.14676 0.0
C314 C 0.24992 0.43788 0.04172 0.0
C315 C 0.25674 0.46406 0.06221 0.0
C316 C 0.22254 0.53631 0.08911 0.0
C317 C 0.27174 0.59962 0.12763 0.0
C318 C 0.25897 0.56891 0.12086 0.0
C319 C 0.23349 0.48084 0.07972 0.0
C320 C 0.24045 0.5106 0.09723 0.0
H321 H 0.33928 0.63626 0.11982 0.0
H322 H 0.31695 0.58693 0.10902 0.0
H323 H 0.21846 0.58484 0.09236 0.0
H324 H 0.17311 0.43666 0.05582 0.0
H325 H 0.18516 0.48242 0.0914 0.0
C326 C 0.56747 0.68141 0.81547 0.0
C327 C 0.59486 0.69748 0.82055 0.0
C328 C 0.54288 0.68598 0.83952 0.0
C329 C 0.50693 0.68232 0.91188 0.0
H330 H 0.47971 0.76122 0.94693 0.0
C331 C 0.43203 0.70076 0.04395 0.0
C332 C 0.40963 0.72358 0.04202 0.0
C333 C 0.45217 0.69621 0.01407 0.0
C334 C 0.48689 0.73902 0.93715 0.0
H335 H 0.61702 0.73246 0.85363 0.0
H336 H 0.57378 0.74062 0.89555 0.0
H337 H 0.51951 0.75817 0.89924 0.0
H338 H 0.38948 0.75791 0.00588 0.0
H339 H 0.42445 0.74982 0.95405 0.0
H340 H 0.4745 0.66316 0.95002 0.0
C341 C 0.57154 0.72437 0.8729 0.0
C342 C 0.50985 0.73731 0.91013 0.0
C343 C 0.59631 0.71971 0.84885 0.0
C344 C 0.40664 0.74036 0.00861 0.0
C345 C 0.42681 0.7359 0.97892 0.0
C346 C 0.48415 0.68403 0.93914 0.0
C347 C 0.54495 0.70685 0.86915 0.0
C348 C 0.5201 0.70894 0.8972 0.0
C349 C 0.45034 0.71443 0.98175 0.0
C350 C 0.47389 0.7124 0.95205 0.0
H351 H 0.56533 0.66434 0.79374 0.0
H352 H 0.52245 0.67262 0.83546 0.0
H353 H 0.51464 0.66011 0.9028 0.0
H354 H 0.43502 0.68744 0.06921 0.0
H355 H 0.47012 0.67949 0.01704 0.0
C356 C 0.67046 0.36064 0.00163 0.0
C357 C 0.64978 0.35343 0.03034 0.0
C358 C 0.66628 0.38678 0.97982 0.0
C359 C 0.64196 0.43449 0.92521 0.0
H360 H 0.62045 0.50949 0.97609 0.0
C361 C 0.62716 0.54629 0.84361 0.0
C362 C 0.64527 0.56989 0.85796 0.0
C363 C 0.62132 0.52043 0.86531 0.0
C364 C 0.62627 0.48869 0.96146 0.0
H365 H 0.60828 0.3681 0.05828 0.0
H366 H 0.60113 0.41325 0.02034 0.0
H367 H 0.62534 0.46256 0.01196 0.0
H368 H 0.66908 0.5863 0.90718 0.0
H369 H 0.65861 0.54157 0.94503 0.0
H370 H 0.644 0.46092 0.87491 0.0
C371 C 0.62073 0.39894 0.01491 0.0
C372 C 0.62893 0.46178 0.98195 0.0
C373 C 0.62484 0.37291 0.03659 0.0
C374 C 0.65517 0.56837 0.89534 0.0
C375 C 0.64907 0.54277 0.91708 0.0
C376 C 0.6392 0.46142 0.90467 0.0
C377 C 0.6414 0.40625 0.98637 0.0
C378 C 0.63726 0.43447 0.96414 0.0
C379 C 0.63312 0.51802 0.90183 0.0
C380 C 0.63182 0.48889 0.92271 0.0
H381 H 0.68986 0.34612 -0.00402 0.0
H382 H 0.6828 0.39201 0.95823 0.0
H383 H 0.64802 0.41373 0.91064 0.0
H384 H 0.61936 0.54681 0.81483 0.0
H385 H 0.60862 0.50182 0.85304 0.0
C386 C 0.52416 0.23791 0.04724 0.0
C387 C 0.53946 0.26084 0.06728 0.0
C388 C 0.49295 0.24024 0.04025 0.0
C389 C 0.43097 0.29631 0.03506 0.0
H390 H 0.37771 0.22711 0.05081 0.0
C391 C 0.30351 0.3132 0.03165 0.0
C392 C 0.28731 0.29353 0.00802 0.0
C393 C 0.3329 0.30593 0.04303 0.0
C394 C 0.39237 0.24653 0.04612 0.0
H395 H 0.53391 0.30442 0.09516 0.0
H396 H 0.47971 0.30837 0.08303 0.0
H397 H 0.43272 0.22143 0.05989 0.0
H398 H 0.28791 0.24979 0.98011 0.0
H399 H 0.3399 0.23714 -0.00038 0.0
H400 H 0.39103 0.32144 0.02116 0.0
C401 C 0.49185 0.2887 0.07249 0.0
C402 C 0.4238 0.24328 0.05117 0.0
C403 C 0.52295 0.28636 0.07955 0.0
C404 C 0.29998 0.26524 -0.00151 0.0
C405 C 0.3297 0.25807 0.00959 0.0
C406 C 0.39974 0.29955 0.03007 0.0
C407 C 0.47648 0.26561 0.05297 0.0
C408 C 0.44335 0.26827 0.04603 0.0
C409 C 0.34688 0.27904 0.03054 0.0
C410 C 0.38003 0.27484 0.03598 0.0
H411 H 0.53615 0.21789 0.03744 0.0
H412 H 0.48173 0.22227 0.02476 0.0
H413 H 0.44549 0.3158 0.03009 0.0
H414 H 0.29402 0.335 0.03973 0.0
H415 H 0.34528 0.32213 0.06007 0.0
C416 C 0.73994 0.54101 0.72589 0.0
C417 C 0.71312 0.55668 0.71647 0.0
C418 C 0.7476 0.51401 0.70773 0.0
C419 C 0.76705 0.46661 0.65186 0.0
H420 H 0.70512 0.40521 0.63532 0.0
C421 C 0.79844 0.35579 0.58009 0.0
C422 C 0.78805 0.32898 0.59708 0.0
C423 C 0.78569 0.38373 0.58943 0.0
C424 C 0.72264 0.42212 0.63986 0.0
H425 H 0.67367 0.55649 0.67979 0.0
H426 H 0.68741 0.5094 0.64771 0.0
H427 H 0.6909 0.45443 0.66223 0.0
H428 H 0.75511 0.30983 0.63547 0.0
H429 H 0.73324 0.35922 0.65311 0.0
H430 H 0.79901 0.43428 0.63115 0.0
C431 C 0.70221 0.51792 0.66959 0.0
C432 C 0.71446 0.4504 0.65486 0.0
C433 C 0.69451 0.54503 0.68777 0.0
C434 C 0.76345 0.33031 0.62208 0.0
C435 C 0.75094 0.35852 0.63201 0.0
C436 C 0.7752 0.43848 0.63704 0.0
C437 C 0.72872 0.50202 0.67961 0.0
C438 C 0.7367 0.47279 0.66138 0.0
C439 C 0.76267 0.3856 0.61662 0.0
C440 C 0.75316 0.41583 0.63099 0.0
H441 H 0.75479 0.54922 0.74789 0.0
H442 H 0.768 0.50211 0.71643 0.0
H443 H 0.78465 0.4835 0.65614 0.0
H444 H 0.81704 0.35522 0.56014 0.0
H445 H 0.79461 0.40402 0.5762 0.0
C446 C 0.58869 0.2469 0.23331 0.0
C447 C 0.5934 0.22455 0.20563 0.0
C448 C 0.56804 0.24202 0.26235 0.0
C449 C 0.52543 0.18638 0.31616 0.0
H450 H 0.45992 0.24558 0.31405 0.0
C451 C 0.41236 0.16451 0.39195 0.0
C452 C 0.39584 0.18912 0.40673 0.0
C453 C 0.43832 0.16942 0.37039 0.0
C454 C 0.47825 0.22917 0.31575 0.0
H455 H 0.58202 0.1785 0.1888 0.0
H456 H 0.54638 0.16977 0.24041 0.0
H457 H 0.50379 0.25215 0.27323 0.0
H458 H 0.39374 0.2382 0.41093 0.0
H459 H 0.43999 0.24694 0.37448 0.0
H460 H 0.5005 0.16367 0.35921 0.0
C461 C 0.55848 0.1912 0.23901 0.0
C462 C 0.5033 0.23289 0.29216 0.0
C463 C 0.57883 0.19624 0.20949 0.0
C464 C 0.40595 0.21884 0.39966 0.0
C465 C 0.43239 0.22377 0.37862 0.0
C466 C 0.50066 0.18295 0.34035 0.0
C467 C 0.55211 0.2145 0.26478 0.0
C468 C 0.52687 0.21132 0.29181 0.0
C469 C 0.44887 0.19908 0.36358 0.0
C470 C 0.47643 0.20402 0.34 0.0
H471 H 0.59959 0.26894 0.23147 0.0
H472 H 0.56369 0.26017 0.28219 0.0
H473 H 0.5435 0.1696 0.31651 0.0
H474 H 0.40488 0.14132 0.39646 0.0
H475 H 0.44974 0.14984 0.35852 0.0
C476 C 0.19013 0.63738 0.73005 0.0
C477 C 0.17022 0.64014 0.69941 0.0
C478 C 0.19042 0.61084 0.75161 0.0
C479 C 0.19774 0.54572 0.77894 0.0
H480 H 0.12068 0.50768 0.80393 0.0
C481 C 0.19404 0.42904 0.84874 0.0
C482 C 0.17475 0.42591 0.87992 0.0
C483 C 0.19151 0.4541 0.82512 0.0
C484 C 0.14233 0.51813 0.79732 0.0
H485 H 0.13565 0.6167 0.6668 0.0
H486 H 0.13656 0.57051 0.70403 0.0
H487 H 0.12122 0.55438 0.76686 0.0
H488 H 0.13647 0.44572 0.90952 0.0
H489 H 0.13214 0.48989 0.86815 0.0
H490 H 0.21885 0.5099 0.80993 0.0
C491 C 0.15148 0.58905 0.71184 0.0
C492 C 0.14269 0.54468 0.77582 0.0
C493 C 0.15116 0.61551 0.69034 0.0
C494 C 0.15162 0.4475 0.88569 0.0
C495 C 0.14917 0.47278 0.86202 0.0
C496 C 0.19738 0.51919 0.80035 0.0
C497 C 0.17083 0.58655 0.74296 0.0
C498 C 0.17041 0.55868 0.7663 0.0
C499 C 0.16971 0.47673 0.83217 0.0
C500 C 0.1697 0.50501 0.80959 0.0
H501 H 0.20497 0.65595 0.73795 0.0
H502 H 0.20545 0.60964 0.77562 0.0
H503 H 0.21945 0.55583 0.77185 0.0
H504 H 0.21179 0.41253 0.84315 0.0
H505 H 0.20713 0.45611 0.80176 0.0
C506 C 0.69743 0.77072 0.22987 0.0
C507 C 0.7102 0.7992 0.22178 0.0
C508 C 0.66773 0.76417 0.21846 0.0
C509 C 0.6035 0.78857 0.15916 0.0
H510 H 0.55469 0.77131 0.24715 0.0
C511 C 0.4727 0.79946 0.15684 0.0
C512 C 0.4563 0.77655 0.17545 0.0
C513 C 0.50422 0.80182 0.16151 0.0
C514 C 0.56791 0.77565 0.22212 0.0
H515 H 0.70366 0.84182 0.19237 0.0
H516 H 0.65212 0.83008 0.1717 0.0
H517 H 0.60984 0.7714 0.25202 0.0
H518 H 0.4601 0.73906 0.21491 0.0
H519 H 0.51458 0.74274 0.22221 0.0
H520 H 0.56157 0.79264 0.12913 0.0
C521 C 0.66474 0.813 0.18712 0.0
C522 C 0.59953 0.77558 0.22493 0.0
C523 C 0.69414 0.81975 0.19905 0.0
C524 C 0.4719 0.75702 0.20007 0.0
C525 C 0.50328 0.7592 0.20443 0.0
C526 C 0.5718 0.78823 0.15619 0.0
C527 C 0.65078 0.78579 0.19826 0.0
C528 C 0.6176 0.78226 0.19358 0.0
C529 C 0.51994 0.78125 0.18473 0.0
C530 C 0.55362 0.782 0.18774 0.0
H531 H 0.70938 0.75461 0.24752 0.0
H532 H 0.65741 0.74292 0.2271 0.0
H533 H 0.61702 0.79389 0.13463 0.0
H534 H 0.46141 0.81494 0.13776 0.0
H535 H 0.5163 0.81951 0.14654 0.0
C536 C 0.80916 0.12091 0.53191 0.0
C537 C 0.83622 0.13435 0.54465 0.0
C538 C 0.81004 0.09348 0.5121 0.0
C539 C 0.82077 0.02615 0.49257 0.0
H540 H 0.87011 0.02199 0.40255 0.0
C541 C 0.79963 0.93672 0.38002 0.0
C542 C 0.82375 0.92546 0.35808 0.0
C543 C 0.80446 0.95967 0.40613 0.0
C544 C 0.85676 0.02245 0.42804 0.0
H545 H 0.88545 0.12986 0.54616 0.0
H546 H 0.88686 0.08237 0.51084 0.0
H547 H 0.87177 0.06748 0.44177 0.0
H548 H 0.87224 0.92892 0.34759 0.0
H549 H 0.88086 0.96888 0.39419 0.0
H550 H 0.80594 0.98118 0.47945 0.0
C551 C 0.86505 0.09289 0.5166 0.0
C552 C 0.85755 0.04859 0.4503 0.0
C553 C 0.86416 0.11996 0.53696 0.0
C554 C 0.85314 0.93716 0.36388 0.0
C555 C 0.85803 0.96016 0.39042 0.0
C556 C 0.82034 -0.00015 0.47072 0.0
C557 C 0.83802 0.07939 0.5041 0.0
C558 C 0.83901 0.0509 0.48222 0.0
C559 C 0.83361 0.97191 0.41153 0.0
C560 C 0.83765 -0.00201 0.43758 0.0
H561 H 0.78733 0.13145 0.53744 0.0
H562 H 0.78891 0.08353 0.50245 0.0
H563 H 0.8067 0.02725 0.51747 0.0
H564 H 0.77662 0.92842 0.37645 0.0
H565 H 0.78495 0.9685 0.42116 0.0
C566 C 0.19671 0.23528 0.49933 0.0
C567 C 0.20952 0.20741 0.51015 0.0
C568 C 0.1672 0.24285 0.51077 0.0
C569 C 0.104 0.22165 0.57429 0.0
H570 H 0.05317 0.23494 0.48698 0.0
C571 C 0.97462 0.2023 0.5794 0.0
C572 C 0.95613 0.22356 0.56076 0.0
C573 C 0.00615 0.20249 0.57421 0.0
C574 C 0.06698 0.23173 0.5118 0.0
H575 H 0.20326 0.16698 0.54393 0.0
H576 H 0.1522 0.18045 0.5646 0.0
H577 H 0.10827 0.23602 0.48053 0.0
H578 H 0.95631 0.26086 0.52078 0.0
H579 H 0.01098 0.26142 0.51232 0.0
H580 H 0.06273 0.21709 0.60555 0.0
C581 C 0.16457 0.19638 0.54717 0.0
C582 C 0.09858 0.23251 0.50811 0.0
C583 C 0.19373 0.18862 0.53527 0.0
C584 C 0.96976 0.24408 0.5356 0.0
C585 C 0.00122 0.24439 0.53065 0.0
C586 C 0.07237 0.22114 0.57807 0.0
C587 C 0.15049 0.22285 0.53365 0.0
C588 C 0.11738 0.22695 0.53917 0.0
C589 C 0.01987 0.22401 0.55042 0.0
C590 C 0.05349 0.22563 0.54672 0.0
H591 H 0.20845 0.24997 0.47971 0.0
H592 H 0.15685 0.26351 0.50021 0.0
H593 H 0.11803 0.21739 0.59869 0.0
H594 H 0.9649 0.1861 0.59887 0.0
H595 H 0.01981 0.18598 0.5892 0.0
C596 C 0.17183 0.86379 0.63626 0.0
C597 C 0.19166 0.83922 0.64283 0.0
C598 C 0.18308 0.8923 0.62689 0.0
C599 C 0.21135 0.94155 0.58067 0.0
H600 H 0.27618 0.98281 0.63397 0.0
C601 C 0.23953 0.06429 0.54506 0.0
C602 C 0.27047 0.07075 0.53934 0.0
C603 C 0.23078 0.03761 0.56323 0.0
C604 C 0.25817 0.97145 0.61872 0.0
H605 H 0.23914 0.8258 0.64573 0.0
H606 H 0.25894 0.8762 0.62889 0.0
H607 H 0.26055 0.93166 0.65353 0.0
H608 H 0.31653 0.05539 0.55076 0.0
H609 H 0.30119 0.00855 0.58176 0.0
H610 H 0.20898 0.98068 0.54556 0.0
C611 C 0.23458 0.873 0.63125 0.0
C612 C 0.24934 0.94221 0.62983 0.0
C613 C 0.22325 0.84418 0.64066 0.0
C614 C 0.29247 0.05105 0.55459 0.0
C615 C 0.2837 0.02421 0.57249 0.0
C616 C 0.22016 0.97055 0.56955 0.0
C617 C 0.21448 0.89714 0.62371 0.0
C618 C 0.22559 0.92719 0.61111 0.0
C619 C 0.25276 0.01668 0.57574 0.0
C620 C 0.24342 0.98602 0.58865 0.0
H621 H 0.14737 0.86112 0.63809 0.0
H622 H 0.16709 0.91063 0.62193 0.0
H623 H 0.19337 0.93025 0.56526 0.0
H624 H 0.22201 0.07924 0.5342 0.0
H625 H 0.20673 0.03283 0.56624 0.0
C626 C 0.05958 0.79464 0.55134 0.0
C627 C 0.0826 0.77266 0.54718 0.0
C628 C 0.03891 0.80004 0.52231 0.0
C629 C 0.00449 0.76002 0.44315 0.0
H630 H 0.97377 0.83958 0.41554 0.0
C631 C 0.92272 0.82022 0.32553 0.0
C632 C 0.89609 0.8026 0.32846 0.0
C633 C 0.94688 0.81582 0.35017 0.0
C634 C 0.98229 0.81721 0.42279 0.0
H635 H 0.10336 0.74089 0.50809 0.0
H636 H 0.06745 0.75051 0.45766 0.0
H637 H 0.01462 0.83548 0.46166 0.0
H638 H 0.87469 0.76549 0.35862 0.0
H639 H 0.91725 0.75772 0.40178 0.0
H640 H 0.9721 0.74176 0.40434 0.0
C641 C 0.06501 0.76304 0.48363 0.0
C642 C 0.00547 0.81489 0.44938 0.0
C643 C 0.0857 0.75771 0.51251 0.0
C644 C 0.89485 0.77943 0.35557 0.0
C645 C 0.9192 0.77498 0.38026 0.0
C646 C 0.98115 0.76234 0.41676 0.0
C647 C 0.04088 0.78354 0.48865 0.0
C648 C 0.01684 0.78627 0.45976 0.0
C649 C 0.94513 0.79364 0.3783 0.0
C650 C 0.96987 0.79096 0.40627 0.0
H651 H 0.05653 0.80657 0.57763 0.0
H652 H 0.02049 0.81598 0.52695 0.0
H653 H 0.01253 0.73762 0.45104 0.0
H654 H 0.9247 0.83805 0.30473 0.0
H655 H 0.96684 0.83011 0.34751 0.0
C656 C 0.16147 0.31586 0.10299 0.0
C657 C 0.15938 0.2952 0.07302 0.0
C658 C 0.16732 0.30543 0.13929 0.0
C659 C 0.1695 0.23836 0.20118 0.0
H660 H 0.24281 0.27547 0.24067 0.0
C661 C 0.23709 0.18379 0.32258 0.0
C662 C 0.25124 0.20314 0.34863 0.0
C663 C 0.22371 0.19563 0.29015 0.0
C664 C 0.222 0.26516 0.2306 0.0
H665 H 0.15884 0.24735 0.0582 0.0
H666 H 0.16841 0.2292 0.12172 0.0
H667 H 0.21966 0.2958 0.18413 0.0
H668 H 0.26216 0.25016 0.36118 0.0
H669 H 0.23813 0.27086 0.30547 0.0
H670 H 0.1716 0.20783 0.24777 0.0
C671 C 0.16589 0.25342 0.11705 0.0
C672 C 0.20874 0.27685 0.19811 0.0
C673 C 0.16049 0.26383 0.08067 0.0
C674 C 0.25182 0.23456 0.34144 0.0
C675 C 0.23806 0.24644 0.30935 0.0
C676 C 0.1825 0.22689 0.23406 0.0
C677 C 0.17066 0.27417 0.14637 0.0
C678 C 0.18256 0.2634 0.18286 0.0
C679 C 0.22376 0.22716 0.28326 0.0
C680 C 0.20916 0.23992 0.24898 0.0
H681 H 0.16083 0.34016 0.09805 0.0
H682 H 0.17058 0.32187 0.16154 0.0
H683 H 0.14926 0.22763 0.19001 0.0
H684 H 0.23637 0.15946 0.32722 0.0
H685 H 0.21352 0.17998 0.27039 0.0
C686 C 0.24283 0.78197 0.06424 0.0
C687 C 0.27353 0.79042 0.06007 0.0
C688 C 0.22262 0.78431 0.03424 0.0
C689 C 0.1948 0.767 0.95992 0.0
H690 H 0.19871 0.8295 0.88342 0.0
C691 C 0.17102 0.74465 0.80562 0.0
C692 C 0.15659 0.76689 0.7837 0.0
C693 C 0.17735 0.75011 0.84324 0.0
C694 C 0.19686 0.81216 0.90487 0.0
H695 H 0.30661 0.80943 0.02152 0.0
H696 H 0.27141 0.813 0.96891 0.0
H697 H 0.22565 0.83677 0.94268 0.0
H698 H 0.13617 0.81177 0.78421 0.0
H699 H 0.14778 0.82162 0.85044 0.0
H700 H 0.16686 0.74198 0.92171 0.0
C701 C 0.26291 0.8049 -0.00441 0.0
C702 C 0.21258 0.81616 0.93858 0.0
C703 C 0.28316 0.80267 0.02569 0.0
C704 C 0.14723 0.79422 0.80059 0.0
C705 C 0.15403 0.79991 0.8383 0.0
C706 C 0.1792 0.76298 0.92625 0.0
C707 C 0.2326 0.79505 -0.0007 0.0
C708 C 0.21244 0.79321 0.966 0.0
C709 C 0.16969 0.77809 0.85973 0.0
C710 C 0.18088 0.78507 0.89792 0.0
H711 H 0.23448 0.77284 0.09049 0.0
H712 H 0.1993 0.77702 0.03818 0.0
H713 H 0.19436 0.74875 0.98029 0.0
H714 H 0.17834 0.72331 0.79334 0.0
H715 H 0.18973 0.73299 0.85887 0.0
C716 C 0.83316 0.81913 0.13049 0.0
C717 C 0.83792 0.79882 0.16033 0.0
C718 C 0.82593 0.8081 0.0948 0.0
C719 C 0.82161 0.7388 0.0355 0.0
H720 H 0.74645 0.77503 5e-05 0.0
C721 C 0.74615 0.67931 0.92545 0.0
C722 C 0.73274 0.6976 0.89765 0.0
C723 C 0.76074 0.69254 0.95622 0.0
C724 C 0.76767 0.76489 0.00912 0.0
H725 H 0.84209 0.75121 0.17534 0.0
H726 H 0.82991 0.73206 0.11316 0.0
H727 H 0.77294 0.79755 0.05304 0.0
H728 H 0.72359 0.74427 0.88111 0.0
H729 H 0.74926 0.76717 0.93427 0.0
H730 H 0.81619 0.70596 0.99172 0.0
C731 C 0.83144 0.75643 0.11725 0.0
C732 C 0.78293 0.7779 0.03945 0.0
C733 C 0.83836 0.76741 0.15293 0.0
C734 C 0.73349 0.7294 0.90201 0.0
C735 C 0.74821 0.7426 0.93262 0.0
C736 C 0.80643 0.72588 0.00495 0.0
C737 C 0.82373 0.77662 0.08828 0.0
C738 C 0.80987 0.7648 0.05327 0.0
C739 C 0.76239 0.72436 0.95986 0.0
C740 C 0.77905 0.73854 0.99169 0.0
H741 H 0.83257 0.84345 0.13531 0.0
H742 H 0.82054 0.82419 0.07279 0.0
H743 H 0.84241 0.72831 0.04542 0.0
H744 H 0.74594 0.65475 0.9231 0.0
H745 H 0.77085 0.67779 0.9771 0.0
C746 C 0.75511 0.21545 0.69631 0.0
C747 C 0.78132 0.19784 0.69005 0.0
C748 C 0.73727 0.21089 0.72814 0.0
C749 C 0.74111 0.17803 0.82373 0.0
H750 H 0.65544 0.19941 0.82334 0.0
C751 C 0.66926 0.18169 0.9591 0.0
C752 C 0.65982 0.21171 0.96596 0.0
C753 C 0.67916 0.17314 0.92332 0.0
C754 C 0.67926 0.19301 0.82371 0.0
H755 H 0.80878 0.16086 0.71174 0.0
H756 H 0.77698 0.15206 0.76679 0.0
H757 H 0.6831 0.19608 0.76417 0.0
H758 H 0.65123 0.25568 0.94077 0.0
H759 H 0.66727 0.24038 0.87793 0.0
H760 H 0.73697 0.175 0.88345 0.0
C761 C 0.77067 0.17005 0.74761 0.0
C762 C 0.69526 0.19142 0.78992 0.0
C763 C 0.78886 0.17498 0.71596 0.0
C764 C 0.65826 0.23237 0.93604 0.0
C765 C 0.66738 0.22361 0.90016 0.0
C766 C 0.72493 0.17901 0.85743 0.0
C767 C 0.7448 0.18821 0.75438 0.0
C768 C 0.7267 0.18503 0.78956 0.0
C769 C 0.67895 0.19428 0.8938 0.0
C770 C 0.69413 0.18746 0.85779 0.0
H771 H 0.74878 0.23346 0.67711 0.0
H772 H 0.71809 0.22591 0.73262 0.0
H773 H 0.76529 0.17338 0.82486 0.0
H774 H 0.67104 0.16551 0.9819 0.0
H775 H 0.68808 0.15043 0.91901 0.0
C776 C 0.75186 0.76662 0.39302 0.0
C777 C 0.75005 0.79787 0.38469 0.0
C778 C 0.73878 0.75499 0.42567 0.0
C779 C 0.71631 0.77635 0.52053 0.0
H780 H 0.66857 0.7022 0.51785 0.0
C781 C 0.66413 0.72926 0.65546 0.0
C782 C 0.66626 0.69773 0.66121 0.0
C783 C 0.66953 0.74175 0.62014 0.0
C784 C 0.68206 0.72276 0.51918 0.0
H785 H 0.73316 0.84138 0.40451 0.0
H786 H 0.71073 0.82101 0.46199 0.0
H787 H 0.68842 0.72362 0.4596 0.0
H788 H 0.67429 0.65437 0.63416 0.0
H789 H 0.68468 0.67618 0.57253 0.0
H790 H 0.71116 0.77513 0.57995 0.0
C791 C 0.72222 0.80559 0.44299 0.0
C792 C 0.69335 0.73506 0.48579 0.0
C793 C 0.73501 0.81722 0.41005 0.0
C794 C 0.67227 0.67875 0.63044 0.0
C795 C 0.67821 0.69131 0.5951 0.0
C796 C 0.70533 0.76392 0.55391 0.0
C797 C 0.72386 0.77432 0.45103 0.0
C798 C 0.71071 0.76191 0.48617 0.0
C799 C 0.67782 0.72308 0.58979 0.0
C800 C 0.68812 0.7369 0.55377 0.0
H801 H 0.76313 0.75098 0.37409 0.0
H802 H 0.74073 0.73086 0.43135 0.0
H803 H 0.72999 0.79682 0.52176 0.0
H804 H 0.6592 0.74442 0.67862 0.0
H805 H 0.66806 0.7662 0.61694 0.0
C806 C 0.8051 0.24379 0.44025 0.0
C807 C 0.82638 0.26199 0.4593 0.0
C808 C 0.79598 0.2511 0.40399 0.0
C809 C 0.81346 0.29321 0.31851 0.0
H810 H 0.72556 0.29414 0.30832 0.0
C811 C 0.70986 0.31885 0.20531 0.0
C812 C 0.71967 0.30058 0.17529 0.0
C813 C 0.72692 0.32054 0.23824 0.0
C814 C 0.75013 0.29452 0.31071 0.0
H815 H 0.85633 0.30099 0.45399 0.0
H816 H 0.84032 0.31364 0.39003 0.0
H817 H 0.74826 0.2828 0.36874 0.0
H818 H 0.75653 0.27193 0.15525 0.0
H819 H 0.78599 0.27459 0.21292 0.0
H820 H 0.81513 0.30439 0.25995 0.0
C821 C 0.8307 0.29382 0.4036 0.0
C822 C 0.76313 0.28761 0.34526 0.0
C823 C 0.83982 0.28656 0.44017 0.0
C824 C 0.74817 0.28609 0.17787 0.0
C825 C 0.76519 0.28772 0.21091 0.0
C826 C 0.80038 0.29992 0.28363 0.0
C827 C 0.80795 0.2767 0.38574 0.0
C828 C 0.79487 0.28632 0.34938 0.0
C829 C 0.75411 0.30395 0.24197 0.0
C830 C 0.76854 0.30028 0.27932 0.0
H831 H 0.79459 0.22442 0.45379 0.0
H832 H 0.77887 0.23714 0.39053 0.0
H833 H 0.838 0.29241 0.32103 0.0
H834 H 0.68827 0.3307 0.20413 0.0
H835 H 0.71811 0.33377 0.26145 0.0
C836 C 0.26239 0.31584 0.82351 0.0
C837 C 0.2458 0.29632 0.84711 0.0
C838 C 0.27644 0.30465 0.79117 0.0
C839 C 0.30633 0.23451 0.74878 0.0
H840 H 0.29558 0.2773 0.65481 0.0
C841 C 0.33092 0.18055 0.60416 0.0
C842 C 0.3381 0.19981 0.57405 0.0
C843 C 0.32542 0.19266 0.63979 0.0
C844 C 0.2995 0.26535 0.68089 0.0
H845 H 0.23091 0.24967 0.85499 0.0
H846 H 0.25549 0.23024 0.79855 0.0
H847 H 0.27347 0.29801 0.71177 0.0
H848 H 0.34834 0.24627 0.55831 0.0
H849 H 0.34029 0.26721 0.62072 0.0
H850 H 0.33239 0.2018 0.71795 0.0
C851 C 0.25772 0.25417 0.80528 0.0
C852 C 0.2866 0.27719 0.71353 0.0
C853 C 0.24339 0.2654 0.8374 0.0
C854 C 0.34254 0.23093 0.58098 0.0
C855 C 0.33755 0.24296 0.61666 0.0
C856 C 0.31954 0.22277 0.71615 0.0
C857 C 0.27449 0.27365 0.78192 0.0
C858 C 0.28953 0.26172 0.74771 0.0
C859 C 0.32742 0.22423 0.64608 0.0
C860 C 0.31599 0.23787 0.68166 0.0
H861 H 0.26473 0.33977 0.83013 0.0
H862 H 0.28931 0.32017 0.77373 0.0
H863 H 0.30929 0.22231 0.7749 0.0
H864 H 0.32707 0.15649 0.59958 0.0
H865 H 0.31756 0.17749 0.66163 0.0
C866 C 0.34698 0.69708 0.29754 0.0
C867 C 0.34021 0.72538 0.28128 0.0
C868 C 0.34073 0.69191 0.33555 0.0
C869 C 0.29908 0.68313 0.40366 0.0
H870 H 0.30546 0.74694 0.47824 0.0
C871 C 0.2129 0.69708 0.52342 0.0
C872 C 0.22251 0.70915 0.55792 0.0
C873 C 0.23327 0.69437 0.49353 0.0
C874 C 0.3039 0.72855 0.45815 0.0
H875 H 0.32392 0.77108 0.29238 0.0
H876 H 0.31325 0.76222 0.35809 0.0
H877 H 0.33373 0.75121 0.41991 0.0
H878 H 0.26154 0.72653 0.58847 0.0
H879 H 0.29705 0.72142 0.53651 0.0
H880 H 0.26876 0.66073 0.44165 0.0
C881 C 0.32327 0.74392 0.34192 0.0
C882 C 0.31994 0.73115 0.42455 0.0
C883 C 0.32914 0.74894 0.3041 0.0
C884 C 0.25323 0.71746 0.56218 0.0
C885 C 0.27363 0.71459 0.53235 0.0
C886 C 0.28308 0.68047 0.43737 0.0
C887 C 0.32813 0.71513 0.35788 0.0
C888 C 0.3168 0.70905 0.39635 0.0
C889 C 0.26379 0.7035 0.49746 0.0
C890 C 0.28445 0.70368 0.46445 0.0
H891 H 0.35548 0.67853 0.28051 0.0
H892 H 0.34489 0.66954 0.3472 0.0
H893 H 0.29605 0.66576 0.38245 0.0
H894 H 0.18943 0.69046 0.51911 0.0
H895 H 0.22475 0.68618 0.46691 0.0
loop_
_geom_bond_atom_site_label_1
_geom_bond_atom_site_label_2
_geom_bond_distance
_geom_bond_site_symmetry_2
_ccdc_geom_bond_type
Sc0 O3 2.025 . S
Sc0 O10 2.105 . S
Sc0 O13 2.105 . S
Sc0 O16 2.105 . S
Sc0 O19 2.105 . S
Sc1 O3 2.025 . S
Sc1 O11 2.105 . S
Sc1 O15 2.105 . S
Sc1 O17 2.105 . S
Sc1 O21 2.105 . S
Sc2 O3 2.025 . S
Sc2 O12 2.105 . S
Sc2 O14 2.105 . S
Sc2 O18 2.105 . S
Sc2 O20 2.105 . S
O3 Sc0 2.025 . S
O3 Sc1 2.025 . S
O3 Sc2 2.025 . S
C4 O10 1.268 . S
C4 O20 1.268 . S
C5 O11 1.268 . S
C5 O19 1.268 . S
C6 O12 1.268 . S
C6 O21 1.268 . S
C7 O13 1.268 . S
C7 O17 1.268 . S
C8 O14 1.268 . S
C8 O16 1.268 . S
C9 O15 1.268 . S
C9 O18 1.268 . S
O10 Sc0 2.105 . S
O10 C4 1.268 . S
O11 Sc1 2.105 . S
O11 C5 1.268 . S
O12 Sc2 2.105 . S
O12 C6 1.268 . S
O13 Sc0 2.105 . S
O13 C7 1.268 . S
O14 Sc2 2.105 . S
O14 C8 1.268 . S
O15 Sc1 2.105 . S
O15 C9 1.268 . S
O16 Sc0 2.105 . S
O16 C8 1.268 . S
O17 Sc1 2.105 . S
O17 C7 1.268 . S
O18 Sc2 2.105 . S
O18 C9 1.268 . S
O19 Sc0 2.105 . S
O19 C5 1.268 . S
O20 Sc2 2.105 . S
O20 C4 1.268 . S
O21 Sc1 2.105 . S
O21 C6 1.268 . S
Sc22 O25 2.025 . S
Sc22 O32 2.105 . S
Sc22 O35 2.105 . S
Sc22 O38 2.105 . S
Sc22 O41 2.105 . S
Sc23 O25 2.025 . S
Sc23 O33 2.105 . S
Sc23 O37 2.105 . S
Sc23 O39 2.105 . S
Sc23 O43 2.105 . S
Sc24 O25 2.025 . S
Sc24 O34 2.105 . S
Sc24 O36 2.105 . S
Sc24 O40 2.105 . S
Sc24 O42 2.105 . S
O25 Sc22 2.025 . S
O25 Sc23 2.025 . S
O25 Sc24 2.025 . S
C26 O32 1.268 . S
C26 O42 1.268 . S
C27 O33 1.268 . S
C27 O41 1.268 . S
C28 O34 1.268 . S
C28 O43 1.268 . S
C29 O35 1.268 . S
C29 O39 1.268 . S
C30 O36 1.268 . S
C30 O38 1.268 . S
C31 O37 1.268 . S
C31 O40 1.268 . S
O32 Sc22 2.105 . S
O32 C26 1.268 . S
O33 Sc23 2.105 . S
O33 C27 1.268 . S
O34 Sc24 2.105 . S
O34 C28 1.268 . S
O35 Sc22 2.105 . S
O35 C29 1.268 . S
O36 Sc24 2.105 . S
O36 C30 1.268 . S
O37 Sc23 2.105 . S
O37 C31 1.268 . S
O38 Sc22 2.105 . S
O38 C30 1.268 . S
O39 Sc23 2.105 . S
O39 C29 1.268 . S
O40 Sc24 2.105 . S
O40 C31 1.268 . S
O41 Sc22 2.105 . S
O41 C27 1.268 . S
O42 Sc24 2.105 . S
O42 C26 1.268 . S
O43 Sc23 2.105 . S
O43 C28 1.268 . S
Sc44 O47 2.025 . S
Sc44 O54 2.105 . S
Sc44 O57 2.105 . S
Sc44 O60 2.105 . S
Sc44 O63 2.105 . S
Sc45 O47 2.025 . S
Sc45 O55 2.105 . S
Sc45 O59 2.105 . S
Sc45 O61 2.105 . S
Sc45 O65 2.105 . S
Sc46 O47 2.025 . S
Sc46 O56 2.105 . S
Sc46 O58 2.105 . S
Sc46 O62 2.105 . S
Sc46 O64 2.105 . S
O47 Sc44 2.025 . S
O47 Sc45 2.025 . S
O47 Sc46 2.025 . S
C48 O54 1.268 . S
C48 O64 1.268 . S
C49 O55 1.268 . S
C49 O63 1.268 . S
C50 O56 1.268 . S
C50 O65 1.268 . S
C51 O57 1.268 . S
C51 O61 1.268 . S
C52 O58 1.268 . S
C52 O60 1.268 . S
C53 O59 1.268 . S
C53 O62 1.268 . S
O54 Sc44 2.105 . S
O54 C48 1.268 . S
O55 Sc45 2.105 . S
O55 C49 1.268 . S
O56 Sc46 2.105 . S
O56 C50 1.268 . S
O57 Sc44 2.105 . S
O57 C51 1.268 . S
O58 Sc46 2.105 . S
O58 C52 1.268 . S
O59 Sc45 2.105 . S
O59 C53 1.268 . S
O60 Sc44 2.105 . S
O60 C52 1.268 . S
O61 Sc45 2.105 . S
O61 C51 1.268 . S
O62 Sc46 2.105 . S
O62 C53 1.268 . S
O63 Sc44 2.105 . S
O63 C49 1.268 . S
O64 Sc46 2.105 . S
O64 C48 1.268 . S
O65 Sc45 2.105 . S
O65 C50 1.268 . S
Sc66 O69 2.025 . S
Sc66 O76 2.105 . S
Sc66 O79 2.105 . S
Sc66 O82 2.105 . S
Sc66 O85 2.105 . S
Sc67 O69 2.025 . S
Sc67 O77 2.105 . S
Sc67 O81 2.105 . S
Sc67 O83 2.105 . S
Sc67 O87 2.105 . S
Sc68 O69 2.025 . S
Sc68 O78 2.105 . S
Sc68 O80 2.105 . S
Sc68 O84 2.105 . S
Sc68 O86 2.105 . S
O69 Sc66 2.025 . S
O69 Sc67 2.025 . S
O69 Sc68 2.025 . S
C70 O76 1.268 . S
C70 O86 1.268 . S
C71 O77 1.268 . S
C71 O85 1.268 . S
C72 O78 1.268 . S
C72 O87 1.268 . S
C73 O79 1.268 . S
C73 O83 1.268 . S
C74 O80 1.268 . S
C74 O82 1.268 . S
C75 O81 1.268 . S
C75 O84 1.268 . S
O76 Sc66 2.105 . S
O76 C70 1.268 . S
O77 Sc67 2.105 . S
O77 C71 1.268 . S
O78 Sc68 2.105 . S
O78 C72 1.268 . S
O79 Sc66 2.105 . S
O79 C73 1.268 . S
O80 Sc68 2.105 . S
O80 C74 1.268 . S
O81 Sc67 2.105 . S
O81 C75 1.268 . S
O82 Sc66 2.105 . S
O82 C74 1.268 . S
O83 Sc67 2.105 . S
O83 C73 1.268 . S
O84 Sc68 2.105 . S
O84 C75 1.268 . S
O85 Sc66 2.105 . S
O85 C71 1.268 . S
O86 Sc68 2.105 . S
O86 C70 1.268 . S
O87 Sc67 2.105 . S
O87 C72 1.268 . S
Sc88 O91 2.025 . S
Sc88 O98 2.105 . S
Sc88 O101 2.105 . S
Sc88 O104 2.105 . S
Sc88 O107 2.105 . S
Sc89 O91 2.025 . S
Sc89 O99 2.105 . S
Sc89 O103 2.105 . S
Sc89 O105 2.105 . S
Sc89 O109 2.105 . S
Sc90 O91 2.025 . S
Sc90 O100 2.105 . S
Sc90 O102 2.105 . S
Sc90 O106 2.105 . S
Sc90 O108 2.105 . S
O91 Sc88 2.025 . S
O91 Sc89 2.025 . S
O91 Sc90 2.025 . S
C92 O98 1.268 . S
C92 O108 1.268 . S
C93 O99 1.268 . S
C93 O107 1.268 . S
C94 O100 1.268 . S
C94 O109 1.268 . S
C95 O101 1.268 . S
C95 O105 1.268 . S
C96 O102 1.268 . S
C96 O104 1.268 . S
C97 O103 1.268 . S
C97 O106 1.268 . S
O98 Sc88 2.105 . S
O98 C92 1.268 . S
O99 Sc89 2.105 . S
O99 C93 1.268 . S
O100 Sc90 2.105 . S
O100 C94 1.268 . S
O101 Sc88 2.105 . S
O101 C95 1.268 . S
O102 Sc90 2.105 . S
O102 C96 1.268 . S
O103 Sc89 2.105 . S
O103 C97 1.268 . S
O104 Sc88 2.105 . S
O104 C96 1.268 . S
O105 Sc89 2.105 . S
O105 C95 1.268 . S
O106 Sc90 2.105 . S
O106 C97 1.268 . S
O107 Sc88 2.105 . S
O107 C93 1.268 . S
O108 Sc90 2.105 . S
O108 C92 1.268 . S
O109 Sc89 2.105 . S
O109 C94 1.268 . S
Sc110 O113 2.025 . S
Sc110 O120 2.105 . S
Sc110 O123 2.105 . S
Sc110 O126 2.105 . S
Sc110 O129 2.105 . S
Sc111 O113 2.025 . S
Sc111 O121 2.105 . S
Sc111 O125 2.105 . S
Sc111 O127 2.105 . S
Sc111 O131 2.105 . S
Sc112 O113 2.025 . S
Sc112 O122 2.105 . S
Sc112 O124 2.105 . S
Sc112 O128 2.105 . S
Sc112 O130 2.105 . S
O113 Sc110 2.025 . S
O113 Sc111 2.025 . S
O113 Sc112 2.025 . S
C114 O120 1.268 . S
C114 O130 1.268 . S
C115 O121 1.268 . S
C115 O129 1.268 . S
C116 O122 1.268 . S
C116 O131 1.268 . S
C117 O123 1.268 . S
C117 O127 1.268 . S
C118 O124 1.268 . S
C118 O126 1.268 . S
C119 O125 1.268 . S
C119 O128 1.268 . S
O120 Sc110 2.105 . S
O120 C114 1.268 . S
O121 Sc111 2.105 . S
O121 C115 1.268 . S
O122 Sc112 2.105 . S
O122 C116 1.268 . S
O123 Sc110 2.105 . S
O123 C117 1.268 . S
O124 Sc112 2.105 . S
O124 C118 1.268 . S
O125 Sc111 2.105 . S
O125 C119 1.268 . S
O126 Sc110 2.105 . S
O126 C118 1.268 . S
O127 Sc111 2.105 . S
O127 C117 1.268 . S
O128 Sc112 2.105 . S
O128 C119 1.268 . S
O129 Sc110 2.105 . S
O129 C115 1.268 . S
O130 Sc112 2.105 . S
O130 C114 1.268 . S
O131 Sc111 2.105 . S
O131 C116 1.268 . S
Sc132 O135 2.025 . S
Sc132 O142 2.105 . S
Sc132 O145 2.105 . S
Sc132 O148 2.105 . S
Sc132 O151 2.105 . S
Sc133 O135 2.025 . S
Sc133 O143 2.105 . S
Sc133 O147 2.105 . S
Sc133 O149 2.105 . S
Sc133 O153 2.105 . S
Sc134 O135 2.025 . S
Sc134 O144 2.105 . S
Sc134 O146 2.105 . S
Sc134 O150 2.105 . S
Sc134 O152 2.105 . S
O135 Sc132 2.025 . S
O135 Sc133 2.025 . S
O135 Sc134 2.025 . S
C136 O142 1.268 . S
C136 O152 1.268 . S
C137 O143 1.268 . S
C137 O151 1.268 . S
C138 O144 1.268 . S
C138 O153 1.268 . S
C139 O145 1.268 . S
C139 O149 1.268 . S
C140 O146 1.268 . S
C140 O148 1.268 . S
C141 O147 1.268 . S
C141 O150 1.268 . S
O142 Sc132 2.105 . S
O142 C136 1.268 . S
O143 Sc133 2.105 . S
O143 C137 1.268 . S
O144 Sc134 2.105 . S
O144 C138 1.268 . S
O145 Sc132 2.105 . S
O145 C139 1.268 . S
O146 Sc134 2.105 . S
O146 C140 1.268 . S
O147 Sc133 2.105 . S
O147 C141 1.268 . S
O148 Sc132 2.105 . S
O148 C140 1.268 . S
O149 Sc133 2.105 . S
O149 C139 1.268 . S
O150 Sc134 2.105 . S
O150 C141 1.268 . S
O151 Sc132 2.105 . S
O151 C137 1.268 . S
O152 Sc134 2.105 . S
O152 C136 1.268 . S
O153 Sc133 2.105 . S
O153 C138 1.268 . S
Sc154 O157 2.025 . S
Sc154 O164 2.105 . S
Sc154 O167 2.105 . S
Sc154 O170 2.105 . S
Sc154 O173 2.105 . S
Sc155 O157 2.025 . S
Sc155 O165 2.105 . S
Sc155 O169 2.105 . S
Sc155 O171 2.105 . S
Sc155 O175 2.105 . S
Sc156 O157 2.025 . S
Sc156 O166 2.105 . S
Sc156 O168 2.105 . S
Sc156 O172 2.105 . S
Sc156 O174 2.105 . S
O157 Sc154 2.025 . S
O157 Sc155 2.025 . S
O157 Sc156 2.025 . S
C158 O164 1.268 . S
C158 O174 1.268 . S
C159 O165 1.268 . S
C159 O173 1.268 . S
C160 O166 1.268 . S
C160 O175 1.268 . S
C161 O167 1.268 . S
C161 O171 1.268 . S
C162 O168 1.268 . S
C162 O170 1.268 . S
C163 O169 1.268 . S
C163 O172 1.268 . S
O164 Sc154 2.105 . S
O164 C158 1.268 . S
O165 Sc155 2.105 . S
O165 C159 1.268 . S
O166 Sc156 2.105 . S
O166 C160 1.268 . S
O167 Sc154 2.105 . S
O167 C161 1.268 . S
O168 Sc156 2.105 . S
O168 C162 1.268 . S
O169 Sc155 2.105 . S
O169 C163 1.268 . S
O170 Sc154 2.105 . S
O170 C162 1.268 . S
O171 Sc155 2.105 . S
O171 C161 1.268 . S
O172 Sc156 2.105 . S
O172 C163 1.268 . S
O173 Sc154 2.105 . S
O173 C159 1.268 . S
O174 Sc156 2.105 . S
O174 C158 1.268 . S
O175 Sc155 2.105 . S
O175 C160 1.268 . S
C176 C177 1.349 . S
C176 C178 1.327 . S
C176 H201 0.950 . S
C177 C176 1.349 . S
C177 C193 1.349 . S
C178 C176 1.327 . S
C178 C197 1.429 . S
C178 H202 0.950 . S
C179 C196 1.574 . S
C179 C198 1.368 . S
C179 H203 0.949 . S
H180 C184 0.949 . S
C181 C182 1.349 . S
C181 C183 1.327 . S
C181 H204 0.950 . S
C182 C181 1.349 . S
C182 C194 1.349 . S
C183 C181 1.327 . S
C183 C199 1.429 . S
C183 H205 0.950 . S
C184 H180 0.949 . S
C184 C192 1.574 . S
C184 C200 1.368 . S
H185 C193 0.950 . S
H186 C191 0.950 1_565 S
H187 C192 0.949 . S
H188 C194 0.950 . S
H189 C195 0.950 . S
H190 C196 0.949 . S
C191 H186 0.950 1_545 S
C191 C193 1.327 . S
C191 C197 1.429 . S
C192 C184 1.574 . S
C192 H187 0.949 . S
C192 C198 1.368 . S
C193 C177 1.349 . S
C193 H185 0.950 . S
C193 C191 1.327 . S
C194 C182 1.349 . S
C194 H188 0.950 . S
C194 C195 1.327 . S
C195 H189 0.950 . S
C195 C194 1.327 . S
C195 C199 1.429 . S
C196 C179 1.574 . S
C196 H190 0.949 . S
C196 C200 1.368 . S
C197 C178 1.429 . S
C197 C191 1.429 . S
C197 C198 1.523 1_545 S
C198 C179 1.368 . S
C198 C192 1.368 . S
C198 C197 1.523 1_565 S
C199 C183 1.429 . S
C199 C195 1.429 . S
C199 C200 1.523 . S
C200 C184 1.368 . S
C200 C196 1.368 . S
C200 C199 1.523 . S
H201 C176 0.950 . S
H202 C178 0.950 . S
H203 C179 0.949 . S
H204 C181 0.950 . S
H205 C183 0.950 . S
C206 C207 1.349 . S
C206 C208 1.327 . S
C206 H231 0.950 . S
C207 C206 1.349 . S
C207 C223 1.349 . S
C208 C206 1.327 . S
C208 C227 1.429 . S
C208 H232 0.950 . S
C209 C226 1.574 . S
C209 C228 1.368 . S
C209 H233 0.949 . S
H210 C214 0.949 . S
C211 C212 1.349 . S
C211 C213 1.327 . S
C211 H234 0.950 . S
C212 C211 1.349 . S
C212 C224 1.349 . S
C213 C211 1.327 . S
C213 C229 1.429 . S
C213 H235 0.950 . S
C214 H210 0.949 . S
C214 C222 1.574 . S
C214 C230 1.368 . S
H215 C223 0.950 . S
H216 C221 0.950 . S
H217 C222 0.949 . S
H218 C224 0.950 . S
H219 C225 0.950 . S
H220 C226 0.949 . S
C221 H216 0.950 . S
C221 C223 1.327 . S
C221 C227 1.429 . S
C222 C214 1.574 . S
C222 H217 0.949 . S
C222 C228 1.368 . S
C223 C207 1.349 . S
C223 H215 0.950 . S
C223 C221 1.327 . S
C224 C212 1.349 . S
C224 H218 0.950 . S
C224 C225 1.327 . S
C225 H219 0.950 . S
C225 C224 1.327 . S
C225 C229 1.429 . S
C226 C209 1.574 . S
C226 H220 0.949 . S
C226 C230 1.368 . S
C227 C208 1.429 . S
C227 C221 1.429 . S
C227 C228 1.523 1_455 S
C228 C209 1.368 . S
C228 C222 1.368 . S
C228 C227 1.523 1_655 S
C229 C213 1.429 . S
C229 C225 1.429 . S
C229 C230 1.523 . S
C230 C214 1.368 . S
C230 C226 1.368 . S
C230 C229 1.523 . S
H231 C206 0.950 . S
H232 C208 0.950 . S
H233 C209 0.949 . S
H234 C211 0.950 . S
H235 C213 0.950 . S
C236 C237 1.349 . S
C236 C238 1.327 . S
C236 H261 0.950 . S
C237 C236 1.349 . S
C237 C253 1.349 . S
C238 C236 1.327 . S
C238 C257 1.429 . S
C238 H262 0.950 . S
C239 C256 1.574 . S
C239 C258 1.368 . S
C239 H263 0.949 . S
H240 C244 0.949 . S
C241 C242 1.349 . S
C241 C243 1.327 . S
C241 H264 0.950 . S
C242 C241 1.349 . S
C242 C254 1.349 . S
C243 C241 1.327 . S
C243 C259 1.429 . S
C243 H265 0.950 . S
C244 H240 0.949 . S
C244 C252 1.574 . S
C244 C260 1.368 . S
H245 C253 0.950 . S
H246 C251 0.950 1_545 S
H247 C252 0.949 . S
H248 C254 0.950 . S
H249 C255 0.950 . S
H250 C256 0.949 . S
C251 H246 0.950 1_565 S
C251 C253 1.327 . S
C251 C257 1.429 . S
C252 C244 1.574 . S
C252 H247 0.949 . S
C252 C258 1.368 . S
C253 C237 1.349 . S
C253 H245 0.950 . S
C253 C251 1.327 . S
C254 C242 1.349 . S
C254 H248 0.950 . S
C254 C255 1.327 . S
C255 H249 0.950 . S
C255 C254 1.327 . S
C255 C259 1.429 . S
C256 C239 1.574 . S
C256 H250 0.949 . S
C256 C260 1.368 . S
C257 C238 1.429 . S
C257 C251 1.429 . S
C257 C258 1.523 1_565 S
C258 C239 1.368 . S
C258 C252 1.368 . S
C258 C257 1.523 1_545 S
C259 C243 1.429 . S
C259 C255 1.429 . S
C259 C260 1.523 . S
C260 C244 1.368 . S
C260 C256 1.368 . S
C260 C259 1.523 . S
H261 C236 0.950 . S
H262 C238 0.950 . S
H263 C239 0.949 . S
H264 C241 0.950 . S
H265 C243 0.950 . S
C266 C267 1.349 . S
C266 C268 1.327 . S
C266 H291 0.950 . S
C267 C266 1.349 . S
C267 C283 1.349 . S
C268 C266 1.327 . S
C268 C287 1.429 . S
C268 H292 0.950 . S
C269 C286 1.574 . S
C269 C288 1.368 . S
C269 H293 0.949 . S
H270 C274 0.949 . S
C271 C272 1.349 . S
C271 C273 1.327 . S
C271 H294 0.950 . S
C272 C271 1.349 . S
C272 C284 1.349 . S
C273 C271 1.327 . S
C273 C289 1.429 . S
C273 H295 0.950 1_655 S
C274 H270 0.949 . S
C274 C282 1.574 . S
C274 C290 1.368 . S
H275 C283 0.950 . S
H276 C281 0.950 . S
H277 C282 0.949 . S
H278 C284 0.950 . S
H279 C285 0.950 . S
H280 C286 0.949 . S
C281 H276 0.950 . S
C281 C283 1.327 . S
C281 C287 1.429 . S
C282 C274 1.574 . S
C282 H277 0.949 . S
C282 C288 1.368 . S
C283 C267 1.349 . S
C283 H275 0.950 . S
C283 C281 1.327 . S
C284 C272 1.349 . S
C284 H278 0.950 . S
C284 C285 1.327 . S
C285 H279 0.950 . S
C285 C284 1.327 . S
C285 C289 1.429 . S
C286 C269 1.574 . S
C286 H280 0.949 . S
C286 C290 1.368 . S
C287 C268 1.429 . S
C287 C281 1.429 . S
C287 C288 1.523 . S
C288 C269 1.368 . S
C288 C282 1.368 . S
C288 C287 1.523 . S
C289 C273 1.429 . S
C289 C285 1.429 . S
C289 C290 1.523 1_655 S
C290 C274 1.368 . S
C290 C286 1.368 . S
C290 C289 1.523 1_455 S
H291 C266 0.950 . S
H292 C268 0.950 . S
H293 C269 0.949 . S
H294 C271 0.950 . S
H295 C273 0.950 1_455 S
C296 C297 1.349 . S
C296 C298 1.327 . S
C296 H321 0.950 . S
C297 C296 1.349 . S
C297 C313 1.349 . S
C298 C296 1.327 . S
C298 C317 1.429 . S
C298 H322 0.950 . S
C299 C316 1.574 . S
C299 C318 1.368 . S
C299 H323 0.949 . S
H300 C304 0.949 . S
C301 C302 1.349 . S
C301 C303 1.327 . S
C301 H324 0.950 . S
C302 C301 1.349 . S
C302 C314 1.349 . S
C303 C301 1.327 . S
C303 C319 1.429 . S
C303 H325 0.950 . S
C304 H300 0.949 . S
C304 C312 1.574 . S
C304 C320 1.368 . S
H305 C313 0.950 . S
H306 C311 0.950 . S
H307 C312 0.949 . S
H308 C314 0.950 . S
H309 C315 0.950 . S
H310 C316 0.949 . S
C311 H306 0.950 . S
C311 C313 1.327 . S
C311 C317 1.429 . S
C312 C304 1.574 . S
C312 H307 0.949 . S
C312 C318 1.368 . S
C313 C297 1.349 . S
C313 H305 0.950 . S
C313 C311 1.327 . S
C314 C302 1.349 . S
C314 H308 0.950 . S
C314 C315 1.327 . S
C315 H309 0.950 . S
C315 C314 1.327 . S
C315 C319 1.429 . S
C316 C299 1.574 . S
C316 H310 0.949 . S
C316 C320 1.368 . S
C317 C298 1.429 . S
C317 C311 1.429 . S
C317 C318 1.523 . S
C318 C299 1.368 . S
C318 C312 1.368 . S
C318 C317 1.523 . S
C319 C303 1.429 . S
C319 C315 1.429 . S
C319 C320 1.523 1_556 S
C320 C304 1.368 . S
C320 C316 1.368 . S
C320 C319 1.523 1_554 S
H321 C296 0.950 . S
H322 C298 0.950 . S
H323 C299 0.949 . S
H324 C301 0.950 . S
H325 C303 0.950 . S
C326 C327 1.349 . S
C326 C328 1.327 . S
C326 H351 0.950 . S
C327 C326 1.349 . S
C327 C343 1.349 . S
C328 C326 1.327 . S
C328 C347 1.429 . S
C328 H352 0.950 . S
C329 C346 1.574 1_556 S
C329 C348 1.368 . S
C329 H353 0.949 1_556 S
H330 C334 0.949 . S
C331 C332 1.349 . S
C331 C333 1.327 . S
C331 H354 0.950 . S
C332 C331 1.349 . S
C332 C344 1.349 . S
C333 C331 1.327 . S
C333 C349 1.429 . S
C333 H355 0.950 . S
C334 H330 0.949 . S
C334 C342 1.574 . S
C334 C350 1.368 . S
H335 C343 0.950 . S
H336 C341 0.950 . S
H337 C342 0.949 . S
H338 C344 0.950 . S
H339 C345 0.950 1_556 S
H340 C346 0.949 . S
C341 H336 0.950 . S
C341 C343 1.327 . S
C341 C347 1.429 . S
C342 C334 1.574 . S
C342 H337 0.949 . S
C342 C348 1.368 . S
C343 C327 1.349 . S
C343 H335 0.950 . S
C343 C341 1.327 . S
C344 C332 1.349 . S
C344 H338 0.950 . S
C344 C345 1.327 . S
C345 H339 0.950 1_554 S
C345 C344 1.327 . S
C345 C349 1.429 . S
C346 C329 1.574 1_554 S
C346 H340 0.949 . S
C346 C350 1.368 1_554 S
C347 C328 1.429 . S
C347 C341 1.429 . S
C347 C348 1.523 . S
C348 C329 1.368 . S
C348 C342 1.368 . S
C348 C347 1.523 . S
C349 C333 1.429 . S
C349 C345 1.429 . S
C349 C350 1.523 1_554 S
C350 C334 1.368 . S
C350 C346 1.368 1_556 S
C350 C349 1.523 1_556 S
H351 C326 0.950 . S
H352 C328 0.950 . S
H353 C329 0.949 1_554 S
H354 C331 0.950 . S
H355 C333 0.950 . S
C356 C357 1.349 . S
C356 C358 1.327 . S
C356 H381 0.950 . S
C357 C356 1.349 . S
C357 C373 1.349 . S
C358 C356 1.327 . S
C358 C377 1.429 . S
C358 H382 0.950 . S
C359 C376 1.574 1_554 S
C359 C378 1.368 . S
C359 H383 0.949 1_554 S
H360 C364 0.949 . S
C361 C362 1.349 . S
C361 C363 1.327 . S
C361 H384 0.950 . S
C362 C361 1.349 . S
C362 C374 1.349 . S
C363 C361 1.327 . S
C363 C379 1.429 . S
C363 H385 0.950 . S
C364 H360 0.949 . S
C364 C372 1.574 . S
C364 C380 1.368 . S
H365 C373 0.950 . S
H366 C371 0.950 . S
H367 C372 0.949 . S
H368 C374 0.950 . S
H369 C375 0.950 1_554 S
H370 C376 0.949 . S
C371 H366 0.950 . S
C371 C373 1.327 . S
C371 C377 1.429 . S
C372 C364 1.574 . S
C372 H367 0.949 . S
C372 C378 1.368 . S
C373 C357 1.349 . S
C373 H365 0.950 . S
C373 C371 1.327 . S
C374 C362 1.349 . S
C374 H368 0.950 . S
C374 C375 1.327 . S
C375 H369 0.950 1_556 S
C375 C374 1.327 . S
C375 C379 1.429 . S
C376 C359 1.574 1_556 S
C376 H370 0.949 . S
C376 C380 1.368 1_556 S
C377 C358 1.429 . S
C377 C371 1.429 . S
C377 C378 1.523 . S
C378 C359 1.368 . S
C378 C372 1.368 . S
C378 C377 1.523 . S
C379 C363 1.429 . S
C379 C375 1.429 . S
C379 C380 1.523 1_556 S
C380 C364 1.368 . S
C380 C376 1.368 1_554 S
C380 C379 1.523 1_554 S
H381 C356 0.950 . S
H382 C358 0.950 . S
H383 C359 0.949 1_556 S
H384 C361 0.950 . S
H385 C363 0.950 . S
C386 C387 1.349 . S
C386 C388 1.327 . S
C386 H411 0.950 . S
C387 C386 1.349 . S
C387 C403 1.349 . S
C388 C386 1.327 . S
C388 C407 1.429 . S
C388 H412 0.950 . S
C389 C406 1.574 . S
C389 C408 1.368 . S
C389 H413 0.949 . S
H390 C394 0.949 . S
C391 C392 1.349 . S
C391 C393 1.327 . S
C391 H414 0.950 . S
C392 C391 1.349 . S
C392 C404 1.349 . S
C393 C391 1.327 . S
C393 C409 1.429 . S
C393 H415 0.950 . S
C394 H390 0.949 . S
C394 C402 1.574 . S
C394 C410 1.368 . S
H395 C403 0.950 . S
H396 C401 0.950 . S
H397 C402 0.949 1_554 S
H398 C404 0.950 . S
H399 C405 0.950 . S
H400 C406 0.949 . S
C401 H396 0.950 . S
C401 C403 1.327 . S
C401 C407 1.429 . S
C402 C394 1.574 . S
C402 H397 0.949 1_556 S
C402 C408 1.368 . S
C403 C387 1.349 . S
C403 H395 0.950 . S
C403 C401 1.327 . S
C404 C392 1.349 . S
C404 H398 0.950 . S
C404 C405 1.327 . S
C405 H399 0.950 . S
C405 C404 1.327 . S
C405 C409 1.429 . S
C406 C389 1.574 . S
C406 H400 0.949 . S
C406 C410 1.368 . S
C407 C388 1.429 . S
C407 C401 1.429 . S
C407 C408 1.523 1_554 S
C408 C389 1.368 . S
C408 C402 1.368 . S
C408 C407 1.523 1_556 S
C409 C393 1.429 . S
C409 C405 1.429 . S
C409 C410 1.523 . S
C410 C394 1.368 . S
C410 C406 1.368 . S
C410 C409 1.523 . S
H411 C386 0.950 . S
H412 C388 0.950 . S
H413 C389 0.949 . S
H414 C391 0.950 . S
H415 C393 0.950 . S
C416 C417 1.349 . S
C416 C418 1.327 . S
C416 H441 0.950 . S
C417 C416 1.349 . S
C417 C433 1.349 . S
C418 C416 1.327 . S
C418 C437 1.429 . S
C418 H442 0.950 . S
C419 C436 1.574 . S
C419 C438 1.368 . S
C419 H443 0.949 . S
H420 C424 0.949 . S
C421 C422 1.349 . S
C421 C423 1.327 . S
C421 H444 0.950 . S
C422 C421 1.349 . S
C422 C434 1.349 . S
C423 C421 1.327 . S
C423 C439 1.429 . S
C423 H445 0.950 . S
C424 H420 0.949 . S
C424 C432 1.574 . S
C424 C440 1.368 . S
H425 C433 0.950 . S
H426 C431 0.950 . S
H427 C432 0.949 . S
H428 C434 0.950 . S
H429 C435 0.950 . S
H430 C436 0.949 . S
C431 H426 0.950 . S
C431 C433 1.327 . S
C431 C437 1.429 . S
C432 C424 1.574 . S
C432 H427 0.949 . S
C432 C438 1.368 . S
C433 C417 1.349 . S
C433 H425 0.950 . S
C433 C431 1.327 . S
C434 C422 1.349 . S
C434 H428 0.950 . S
C434 C435 1.327 . S
C435 H429 0.950 . S
C435 C434 1.327 . S
C435 C439 1.429 . S
C436 C419 1.574 . S
C436 H430 0.949 . S
C436 C440 1.368 . S
C437 C418 1.429 . S
C437 C431 1.429 . S
C437 C438 1.523 . S
C438 C419 1.368 . S
C438 C432 1.368 . S
C438 C437 1.523 . S
C439 C423 1.429 . S
C439 C435 1.429 . S
C439 C440 1.523 . S
C440 C424 1.368 . S
C440 C436 1.368 . S
C440 C439 1.523 . S
H441 C416 0.950 . S
H442 C418 0.950 . S
H443 C419 0.949 . S
H444 C421 0.950 . S
H445 C423 0.950 . S
C446 C447 1.349 . S
C446 C448 1.327 . S
C446 H471 0.950 . S
C447 C446 1.349 . S
C447 C463 1.349 . S
C448 C446 1.327 . S
C448 C467 1.429 . S
C448 H472 0.950 . S
C449 C466 1.574 . S
C449 C468 1.368 . S
C449 H473 0.949 . S
H450 C454 0.949 . S
C451 C452 1.349 . S
C451 C453 1.327 . S
C451 H474 0.950 . S
C452 C451 1.349 . S
C452 C464 1.349 . S
C453 C451 1.327 . S
C453 C469 1.429 . S
C453 H475 0.950 . S
C454 H450 0.949 . S
C454 C462 1.574 . S
C454 C470 1.368 . S
H455 C463 0.950 . S
H456 C461 0.950 . S
H457 C462 0.949 . S
H458 C464 0.950 . S
H459 C465 0.950 . S
H460 C466 0.949 . S
C461 H456 0.950 . S
C461 C463 1.327 . S
C461 C467 1.429 . S
C462 C454 1.574 . S
C462 H457 0.949 . S
C462 C468 1.368 . S
C463 C447 1.349 . S
C463 H455 0.950 . S
C463 C461 1.327 . S
C464 C452 1.349 . S
C464 H458 0.950 . S
C464 C465 1.327 . S
C465 H459 0.950 . S
C465 C464 1.327 . S
C465 C469 1.429 . S
C466 C449 1.574 . S
C466 H460 0.949 . S
C466 C470 1.368 . S
C467 C448 1.429 . S
C467 C461 1.429 . S
C467 C468 1.523 . S
C468 C449 1.368 . S
C468 C462 1.368 . S
C468 C467 1.523 . S
C469 C453 1.429 . S
C469 C465 1.429 . S
C469 C470 1.523 . S
C470 C454 1.368 . S
C470 C466 1.368 . S
C470 C469 1.523 . S
H471 C446 0.950 . S
H472 C448 0.950 . S
H473 C449 0.949 . S
H474 C451 0.950 . S
H475 C453 0.950 . S
C476 C477 1.349 . S
C476 C478 1.327 . S
C476 H501 0.950 . S
C477 C476 1.349 . S
C477 C493 1.349 . S
C478 C476 1.327 . S
C478 C497 1.429 . S
C478 H502 0.950 . S
C479 C496 1.574 . S
C479 C498 1.368 . S
C479 H503 0.949 . S
H480 C484 0.949 . S
C481 C482 1.349 . S
C481 C483 1.327 . S
C481 H504 0.950 . S
C482 C481 1.349 . S
C482 C494 1.349 . S
C483 C481 1.327 . S
C483 C499 1.429 . S
C483 H505 0.950 . S
C484 H480 0.949 . S
C484 C492 1.574 . S
C484 C500 1.368 . S
H485 C493 0.950 . S
H486 C491 0.950 . S
H487 C492 0.949 . S
H488 C494 0.950 . S
H489 C495 0.950 . S
H490 C496 0.949 . S
C491 H486 0.950 . S
C491 C493 1.327 . S
C491 C497 1.429 . S
C492 C484 1.574 . S
C492 H487 0.949 . S
C492 C498 1.368 . S
C493 C477 1.349 . S
C493 H485 0.950 . S
C493 C491 1.327 . S
C494 C482 1.349 . S
C494 H488 0.950 . S
C494 C495 1.327 . S
C495 H489 0.950 . S
C495 C494 1.327 . S
C495 C499 1.429 . S
C496 C479 1.574 . S
C496 H490 0.949 . S
C496 C500 1.368 . S
C497 C478 1.429 . S
C497 C491 1.429 . S
C497 C498 1.523 . S
C498 C479 1.368 . S
C498 C492 1.368 . S
C498 C497 1.523 . S
C499 C483 1.429 . S
C499 C495 1.429 . S
C499 C500 1.523 . S
C500 C484 1.368 . S
C500 C496 1.368 . S
C500 C499 1.523 . S
H501 C476 0.950 . S
H502 C478 0.950 . S
H503 C479 0.949 . S
H504 C481 0.950 . S
H505 C483 0.950 . S
C506 C507 1.349 . S
C506 C508 1.327 . S
C506 H531 0.950 . S
C507 C506 1.349 . S
C507 C523 1.349 . S
C508 C506 1.327 . S
C508 C527 1.429 . S
C508 H532 0.950 . S
C509 C526 1.574 . S
C509 C528 1.368 . S
C509 H533 0.949 . S
H510 C514 0.949 . S
C511 C512 1.349 . S
C511 C513 1.327 . S
C511 H534 0.950 . S
C512 C511 1.349 . S
C512 C524 1.349 . S
C513 C511 1.327 . S
C513 C529 1.429 . S
C513 H535 0.950 . S
C514 H510 0.949 . S
C514 C522 1.574 . S
C514 C530 1.368 . S
H515 C523 0.950 . S
H516 C521 0.950 . S
H517 C522 0.949 . S
H518 C524 0.950 . S
H519 C525 0.950 . S
H520 C526 0.949 . S
C521 H516 0.950 . S
C521 C523 1.327 . S
C521 C527 1.429 . S
C522 C514 1.574 . S
C522 H517 0.949 . S
C522 C528 1.368 . S
C523 C507 1.349 . S
C523 H515 0.950 . S
C523 C521 1.327 . S
C524 C512 1.349 . S
C524 H518 0.950 . S
C524 C525 1.327 . S
C525 H519 0.950 . S
C525 C524 1.327 . S
C525 C529 1.429 . S
C526 C509 1.574 . S
C526 H520 0.949 . S
C526 C530 1.368 . S
C527 C508 1.429 . S
C527 C521 1.429 . S
C527 C528 1.523 . S
C528 C509 1.368 . S
C528 C522 1.368 . S
C528 C527 1.523 . S
C529 C513 1.429 . S
C529 C525 1.429 . S
C529 C530 1.523 . S
C530 C514 1.368 . S
C530 C526 1.368 . S
C530 C529 1.523 . S
H531 C506 0.950 . S
H532 C508 0.950 . S
H533 C509 0.949 . S
H534 C511 0.950 . S
H535 C513 0.950 . S
C536 C537 1.349 . S
C536 C538 1.327 . S
C536 H561 0.950 . S
C537 C536 1.349 . S
C537 C553 1.349 . S
C538 C536 1.327 . S
C538 C557 1.429 . S
C538 H562 0.950 . S
C539 C556 1.574 . S
C539 C558 1.368 . S
C539 H563 0.949 . S
H540 C544 0.949 . S
C541 C542 1.349 . S
C541 C543 1.327 . S
C541 H564 0.950 . S
C542 C541 1.349 . S
C542 C554 1.349 . S
C543 C541 1.327 . S
C543 C559 1.429 . S
C543 H565 0.950 . S
C544 H540 0.949 . S
C544 C552 1.574 . S
C544 C560 1.368 . S
H545 C553 0.950 . S
H546 C551 0.950 . S
H547 C552 0.949 . S
H548 C554 0.950 . S
H549 C555 0.950 1_545 S
H550 C556 0.949 . S
C551 H546 0.950 . S
C551 C553 1.327 . S
C551 C557 1.429 . S
C552 C544 1.574 . S
C552 H547 0.949 . S
C552 C558 1.368 . S
C553 C537 1.349 . S
C553 H545 0.950 . S
C553 C551 1.327 . S
C554 C542 1.349 . S
C554 H548 0.950 . S
C554 C555 1.327 . S
C555 H549 0.950 1_565 S
C555 C554 1.327 . S
C555 C559 1.429 . S
C556 C539 1.574 . S
C556 H550 0.949 . S
C556 C560 1.368 . S
C557 C538 1.429 . S
C557 C551 1.429 . S
C557 C558 1.523 . S
C558 C539 1.368 . S
C558 C552 1.368 . S
C558 C557 1.523 . S
C559 C543 1.429 . S
C559 C555 1.429 . S
C559 C560 1.523 1_565 S
C560 C544 1.368 . S
C560 C556 1.368 . S
C560 C559 1.523 1_545 S
H561 C536 0.950 . S
H562 C538 0.950 . S
H563 C539 0.949 . S
H564 C541 0.950 . S
H565 C543 0.950 . S
C566 C567 1.349 . S
C566 C568 1.327 . S
C566 H591 0.950 . S
C567 C566 1.349 . S
C567 C583 1.349 . S
C568 C566 1.327 . S
C568 C587 1.429 . S
C568 H592 0.950 . S
C569 C586 1.574 . S
C569 C588 1.368 . S
C569 H593 0.949 . S
H570 C574 0.949 . S
C571 C572 1.349 . S
C571 C573 1.327 . S
C571 H594 0.950 . S
C572 C571 1.349 . S
C572 C584 1.349 . S
C573 C571 1.327 . S
C573 C589 1.429 . S
C573 H595 0.950 1_655 S
C574 H570 0.949 . S
C574 C582 1.574 . S
C574 C590 1.368 . S
H575 C583 0.950 . S
H576 C581 0.950 . S
H577 C582 0.949 . S
H578 C584 0.950 . S
H579 C585 0.950 . S
H580 C586 0.949 . S
C581 H576 0.950 . S
C581 C583 1.327 . S
C581 C587 1.429 . S
C582 C574 1.574 . S
C582 H577 0.949 . S
C582 C588 1.368 . S
C583 C567 1.349 . S
C583 H575 0.950 . S
C583 C581 1.327 . S
C584 C572 1.349 . S
C584 H578 0.950 . S
C584 C585 1.327 . S
C585 H579 0.950 . S
C585 C584 1.327 . S
C585 C589 1.429 . S
C586 C569 1.574 . S
C586 H580 0.949 . S
C586 C590 1.368 . S
C587 C568 1.429 . S
C587 C581 1.429 . S
C587 C588 1.523 . S
C588 C569 1.368 . S
C588 C582 1.368 . S
C588 C587 1.523 . S
C589 C573 1.429 . S
C589 C585 1.429 . S
C589 C590 1.523 1_655 S
C590 C574 1.368 . S
C590 C586 1.368 . S
C590 C589 1.523 1_455 S
H591 C566 0.950 . S
H592 C568 0.950 . S
H593 C569 0.949 . S
H594 C571 0.950 . S
H595 C573 0.950 1_455 S
C596 C597 1.349 . S
C596 C598 1.327 . S
C596 H621 0.950 . S
C597 C596 1.349 . S
C597 C613 1.349 . S
C598 C596 1.327 . S
C598 C617 1.429 . S
C598 H622 0.950 . S
C599 C616 1.574 . S
C599 C618 1.368 . S
C599 H623 0.949 . S
H600 C604 0.949 . S
C601 C602 1.349 . S
C601 C603 1.327 . S
C601 H624 0.950 . S
C602 C601 1.349 . S
C602 C614 1.349 . S
C603 C601 1.327 . S
C603 C619 1.429 . S
C603 H625 0.950 1_545 S
C604 H600 0.949 . S
C604 C612 1.574 . S
C604 C620 1.368 . S
H605 C613 0.950 . S
H606 C611 0.950 . S
H607 C612 0.949 . S
H608 C614 0.950 . S
H609 C615 0.950 . S
H610 C616 0.949 . S
C611 H606 0.950 . S
C611 C613 1.327 . S
C611 C617 1.429 . S
C612 C604 1.574 . S
C612 H607 0.949 . S
C612 C618 1.368 . S
C613 C597 1.349 . S
C613 H605 0.950 . S
C613 C611 1.327 . S
C614 C602 1.349 . S
C614 H608 0.950 . S
C614 C615 1.327 . S
C615 H609 0.950 . S
C615 C614 1.327 . S
C615 C619 1.429 . S
C616 C599 1.574 . S
C616 H610 0.949 . S
C616 C620 1.368 . S
C617 C598 1.429 . S
C617 C611 1.429 . S
C617 C618 1.523 . S
C618 C599 1.368 . S
C618 C612 1.368 . S
C618 C617 1.523 . S
C619 C603 1.429 . S
C619 C615 1.429 . S
C619 C620 1.523 1_545 S
C620 C604 1.368 . S
C620 C616 1.368 . S
C620 C619 1.523 1_565 S
H621 C596 0.950 . S
H622 C598 0.950 . S
H623 C599 0.949 . S
H624 C601 0.950 . S
H625 C603 0.950 1_565 S
C626 C627 1.349 . S
C626 C628 1.327 . S
C626 H651 0.950 . S
C627 C626 1.349 . S
C627 C643 1.349 . S
C628 C626 1.327 . S
C628 C647 1.429 . S
C628 H652 0.925 1_455 S
C629 C646 1.574 . S
C629 C648 1.368 . S
C629 H653 0.949 . S
H630 C634 0.949 . S
C631 C632 1.349 . S
C631 C633 1.327 . S
C631 H654 0.950 . S
C632 C631 1.349 . S
C632 C644 1.349 . S
C633 C631 1.327 . S
C633 C649 1.429 . S
C633 H655 0.950 . S
C634 H630 0.949 . S
C634 C642 1.574 . S
C634 C650 1.368 . S
H635 C643 0.950 . S
H636 C641 0.950 . S
H637 C642 0.949 . S
H638 C644 0.950 . S
H639 C645 0.950 . S
H640 C646 0.949 . S
C641 H636 0.950 . S
C641 C643 1.327 . S
C641 C647 1.429 . S
C642 C634 1.574 . S
C642 H637 0.949 . S
C642 C648 1.368 . S
C643 C627 1.349 . S
C643 H635 0.950 . S
C643 C641 1.327 . S
C644 C632 1.349 . S
C644 H638 0.950 . S
C644 C645 1.327 . S
C645 H639 0.950 . S
C645 C644 1.327 . S
C645 C649 1.429 . S
C646 C629 1.574 . S
C646 H640 0.949 . S
C646 C650 1.368 . S
C647 C628 1.429 . S
C647 C641 1.429 . S
C647 C648 1.523 1_455 S
C648 C629 1.368 . S
C648 C642 1.368 . S
C648 C647 1.523 1_655 S
C649 C633 1.429 . S
C649 C645 1.429 . S
C649 C650 1.523 . S
C650 C634 1.368 . S
C650 C646 1.368 . S
C650 C649 1.523 . S
H651 C626 0.950 . S
H652 C628 0.925 1_655 S
H653 C629 0.949 . S
H654 C631 0.950 . S
H655 C633 0.950 . S
C656 C657 1.349 1_554 S
C656 C658 1.327 . S
C656 H681 0.950 . S
C657 C656 1.349 1_556 S
C657 C673 1.349 . S
C658 C656 1.327 . S
C658 C677 1.429 . S
C658 H682 0.950 . S
C659 C676 1.574 . S
C659 C678 1.368 . S
C659 H683 0.949 . S
H660 C664 0.949 . S
C661 C662 1.349 . S
C661 C663 1.327 . S
C661 H684 0.950 . S
C662 C661 1.349 . S
C662 C674 1.349 . S
C663 C661 1.327 . S
C663 C679 1.429 . S
C663 H685 0.950 . S
C664 H660 0.949 . S
C664 C672 1.574 . S
C664 C680 1.368 . S
H665 C673 0.950 . S
H666 C671 0.950 . S
H667 C672 0.949 . S
H668 C674 0.950 . S
H669 C675 0.950 . S
H670 C676 0.949 . S
C671 H666 0.950 . S
C671 C673 1.327 1_554 S
C671 C677 1.429 . S
C672 C664 1.574 . S
C672 H667 0.949 . S
C672 C678 1.368 . S
C673 C657 1.349 . S
C673 H665 0.950 . S
C673 C671 1.327 1_556 S
C674 C662 1.349 . S
C674 H668 0.950 . S
C674 C675 1.327 . S
C675 H669 0.950 . S
C675 C674 1.327 . S
C675 C679 1.429 . S
C676 C659 1.574 . S
C676 H670 0.949 . S
C676 C680 1.368 . S
C677 C658 1.429 . S
C677 C671 1.429 . S
C677 C678 1.523 . S
C678 C659 1.368 . S
C678 C672 1.368 . S
C678 C677 1.523 . S
C679 C663 1.429 . S
C679 C675 1.429 . S
C679 C680 1.523 . S
C680 C664 1.368 . S
C680 C676 1.368 . S
C680 C679 1.523 . S
H681 C656 0.950 . S
H682 C658 0.950 . S
H683 C659 0.949 . S
H684 C661 0.950 . S
H685 C663 0.950 . S
C686 C687 1.349 . S
C686 C688 1.327 1_554 S
C686 H711 0.950 . S
C687 C686 1.349 . S
C687 C703 1.349 1_554 S
C688 C686 1.327 1_556 S
C688 C707 1.429 . S
C688 H712 0.950 . S
C689 C706 1.574 . S
C689 C708 1.368 . S
C689 H713 0.949 . S
H690 C694 0.949 . S
C691 C692 1.349 . S
C691 C693 1.327 . S
C691 H714 0.950 . S
C692 C691 1.349 . S
C692 C704 1.349 . S
C693 C691 1.327 . S
C693 C709 1.429 . S
C693 H715 0.950 . S
C694 H690 0.949 . S
C694 C702 1.574 . S
C694 C710 1.368 . S
H695 C703 0.950 . S
H696 C701 0.950 . S
H697 C702 0.949 . S
H698 C704 0.950 . S
H699 C705 0.950 . S
H700 C706 0.949 . S
C701 H696 0.950 . S
C701 C703 1.327 . S
C701 C707 1.429 . S
C702 C694 1.574 . S
C702 H697 0.949 . S
C702 C708 1.368 . S
C703 C687 1.349 1_556 S
C703 H695 0.950 . S
C703 C701 1.327 . S
C704 C692 1.349 . S
C704 H698 0.950 . S
C704 C705 1.327 . S
C705 H699 0.950 . S
C705 C704 1.327 . S
C705 C709 1.429 . S
C706 C689 1.574 . S
C706 H700 0.949 . S
C706 C710 1.368 . S
C707 C688 1.429 . S
C707 C701 1.429 . S
C707 C708 1.523 . S
C708 C689 1.368 . S
C708 C702 1.368 . S
C708 C707 1.523 . S
C709 C693 1.429 . S
C709 C705 1.429 . S
C709 C710 1.523 . S
C710 C694 1.368 . S
C710 C706 1.368 . S
C710 C709 1.523 . S
H711 C686 0.950 . S
H712 C688 0.950 . S
H713 C689 0.949 . S
H714 C691 0.950 . S
H715 C693 0.950 . S
C716 C717 1.349 . S
C716 C718 1.327 . S
C716 H741 0.950 . S
C717 C716 1.349 . S
C717 C733 1.349 . S
C718 C716 1.327 . S
C718 C737 1.429 . S
C718 H742 0.950 . S
C719 C736 1.574 . S
C719 C738 1.368 . S
C719 H743 0.949 . S
H720 C724 0.949 . S
C721 C722 1.349 1_554 S
C721 C723 1.327 . S
C721 H744 0.950 1_554 S
C722 C721 1.349 1_556 S
C722 C734 1.349 1_556 S
C723 C721 1.327 . S
C723 C739 1.429 . S
C723 H745 0.950 . S
C724 H720 0.949 . S
C724 C732 1.574 . S
C724 C740 1.368 . S
H725 C733 0.950 . S
H726 C731 0.950 . S
H727 C732 0.949 . S
H728 C734 0.950 1_556 S
H729 C735 0.950 . S
H730 C736 0.949 . S
C731 H726 0.950 . S
C731 C733 1.327 . S
C731 C737 1.429 . S
C732 C724 1.574 . S
C732 H727 0.949 . S
C732 C738 1.368 . S
C733 C717 1.349 . S
C733 H725 0.950 . S
C733 C731 1.327 . S
C734 C722 1.349 1_554 S
C734 H728 0.950 1_554 S
C734 C735 1.327 . S
C735 H729 0.950 . S
C735 C734 1.327 . S
C735 C739 1.429 . S
C736 C719 1.574 . S
C736 H730 0.949 . S
C736 C740 1.368 . S
C737 C718 1.429 . S
C737 C731 1.429 . S
C737 C738 1.523 . S
C738 C719 1.368 . S
C738 C732 1.368 . S
C738 C737 1.523 . S
C739 C723 1.429 . S
C739 C735 1.429 . S
C739 C740 1.523 . S
C740 C724 1.368 . S
C740 C736 1.368 . S
C740 C739 1.523 . S
H741 C716 0.950 . S
H742 C718 0.950 . S
H743 C719 0.949 . S
H744 C721 0.950 1_556 S
H745 C723 0.950 . S
C746 C747 1.349 . S
C746 C748 1.327 . S
C746 H771 0.950 . S
C747 C746 1.349 . S
C747 C763 1.349 . S
C748 C746 1.327 . S
C748 C767 1.429 . S
C748 H772 0.950 . S
C749 C766 1.574 . S
C749 C768 1.368 . S
C749 H773 0.949 . S
H750 C754 0.949 . S
C751 C752 1.349 . S
C751 C753 1.327 1_554 S
C751 H774 0.950 . S
C752 C751 1.349 . S
C752 C764 1.349 1_554 S
C753 C751 1.327 1_556 S
C753 C769 1.429 . S
C753 H775 0.950 . S
C754 H750 0.949 . S
C754 C762 1.574 . S
C754 C770 1.368 . S
H755 C763 0.950 . S
H756 C761 0.950 . S
H757 C762 0.949 . S
H758 C764 0.950 . S
H759 C765 0.950 . S
H760 C766 0.949 . S
C761 H756 0.950 . S
C761 C763 1.327 . S
C761 C767 1.429 . S
C762 C754 1.574 . S
C762 H757 0.949 . S
C762 C768 1.368 . S
C763 C747 1.349 . S
C763 H755 0.950 . S
C763 C761 1.327 . S
C764 C752 1.349 1_556 S
C764 H758 0.950 . S
C764 C765 1.327 . S
C765 H759 0.950 . S
C765 C764 1.327 . S
C765 C769 1.429 . S
C766 C749 1.574 . S
C766 H760 0.949 . S
C766 C770 1.368 . S
C767 C748 1.429 . S
C767 C761 1.429 . S
C767 C768 1.523 . S
C768 C749 1.368 . S
C768 C762 1.368 . S
C768 C767 1.523 . S
C769 C753 1.429 . S
C769 C765 1.429 . S
C769 C770 1.523 . S
C770 C754 1.368 . S
C770 C766 1.368 . S
C770 C769 1.523 . S
H771 C746 0.950 . S
H772 C748 0.950 . S
H773 C749 0.949 . S
H774 C751 0.950 . S
H775 C753 0.950 . S
C776 C777 1.349 . S
C776 C778 1.327 . S
C776 H801 0.950 . S
C777 C776 1.349 . S
C777 C793 1.349 . S
C778 C776 1.327 . S
C778 C797 1.429 . S
C778 H802 0.950 . S
C779 C796 1.574 . S
C779 C798 1.368 . S
C779 H803 0.949 . S
H780 C784 0.949 . S
C781 C782 1.349 . S
C781 C783 1.327 . S
C781 H804 0.950 . S
C782 C781 1.349 . S
C782 C794 1.349 . S
C783 C781 1.327 . S
C783 C799 1.429 . S
C783 H805 0.950 . S
C784 H780 0.949 . S
C784 C792 1.574 . S
C784 C800 1.368 . S
H785 C793 0.950 . S
H786 C791 0.950 . S
H787 C792 0.949 . S
H788 C794 0.950 . S
H789 C795 0.950 . S
H790 C796 0.949 . S
C791 H786 0.950 . S
C791 C793 1.327 . S
C791 C797 1.429 . S
C792 C784 1.574 . S
C792 H787 0.949 . S
C792 C798 1.368 . S
C793 C777 1.349 . S
C793 H785 0.950 . S
C793 C791 1.327 . S
C794 C782 1.349 . S
C794 H788 0.950 . S
C794 C795 1.327 . S
C795 H789 0.950 . S
C795 C794 1.327 . S
C795 C799 1.429 . S
C796 C779 1.574 . S
C796 H790 0.949 . S
C796 C800 1.368 . S
C797 C778 1.429 . S
C797 C791 1.429 . S
C797 C798 1.523 . S
C798 C779 1.368 . S
C798 C792 1.368 . S
C798 C797 1.523 . S
C799 C783 1.429 . S
C799 C795 1.429 . S
C799 C800 1.523 . S
C800 C784 1.368 . S
C800 C796 1.368 . S
C800 C799 1.523 . S
H801 C776 0.950 . S
H802 C778 0.950 . S
H803 C779 0.949 . S
H804 C781 0.950 . S
H805 C783 0.950 . S
C806 C807 1.349 . S
C806 C808 1.327 . S
C806 H831 0.950 . S
C807 C806 1.349 . S
C807 C823 1.349 . S
C808 C806 1.327 . S
C808 C827 1.429 . S
C808 H832 0.950 . S
C809 C826 1.574 . S
C809 C828 1.368 . S
C809 H833 0.949 . S
H810 C814 0.949 . S
C811 C812 1.349 . S
C811 C813 1.327 . S
C811 H834 0.950 . S
C812 C811 1.349 . S
C812 C824 1.349 . S
C813 C811 1.327 . S
C813 C829 1.429 . S
C813 H835 0.950 . S
C814 H810 0.949 . S
C814 C822 1.574 . S
C814 C830 1.368 . S
H815 C823 0.950 . S
H816 C821 0.950 . S
H817 C822 0.949 . S
H818 C824 0.950 . S
H819 C825 0.950 . S
H820 C826 0.949 . S
C821 H816 0.950 . S
C821 C823 1.327 . S
C821 C827 1.429 . S
C822 C814 1.574 . S
C822 H817 0.949 . S
C822 C828 1.368 . S
C823 C807 1.349 . S
C823 H815 0.950 . S
C823 C821 1.327 . S
C824 C812 1.349 . S
C824 H818 0.950 . S
C824 C825 1.327 . S
C825 H819 0.950 . S
C825 C824 1.327 . S
C825 C829 1.429 . S
C826 C809 1.574 . S
C826 H820 0.949 . S
C826 C830 1.368 . S
C827 C808 1.429 . S
C827 C821 1.429 . S
C827 C828 1.523 . S
C828 C809 1.368 . S
C828 C822 1.368 . S
C828 C827 1.523 . S
C829 C813 1.429 . S
C829 C825 1.429 . S
C829 C830 1.523 . S
C830 C814 1.368 . S
C830 C826 1.368 . S
C830 C829 1.523 . S
H831 C806 0.950 . S
H832 C808 0.950 . S
H833 C809 0.949 . S
H834 C811 0.950 . S
H835 C813 0.950 . S
C836 C837 1.349 . S
C836 C838 1.327 . S
C836 H861 0.950 . S
C837 C836 1.349 . S
C837 C853 1.349 . S
C838 C836 1.327 . S
C838 C857 1.429 . S
C838 H862 0.950 . S
C839 C856 1.574 . S
C839 C858 1.368 . S
C839 H863 0.949 . S
H840 C844 0.949 . S
C841 C842 1.349 . S
C841 C843 1.327 . S
C841 H864 0.950 . S
C842 C841 1.349 . S
C842 C854 1.349 . S
C843 C841 1.327 . S
C843 C859 1.429 . S
C843 H865 0.950 . S
C844 H840 0.949 . S
C844 C852 1.574 . S
C844 C860 1.368 . S
H845 C853 0.950 . S
H846 C851 0.950 . S
H847 C852 0.949 . S
H848 C854 0.950 . S
H849 C855 0.950 . S
H850 C856 0.949 . S
C851 H846 0.950 . S
C851 C853 1.327 . S
C851 C857 1.429 . S
C852 C844 1.574 . S
C852 H847 0.949 . S
C852 C858 1.368 . S
C853 C837 1.349 . S
C853 H845 0.950 . S
C853 C851 1.327 . S
C854 C842 1.349 . S
C854 H848 0.950 . S
C854 C855 1.327 . S
C855 H849 0.950 . S
C855 C854 1.327 . S
C855 C859 1.429 . S
C856 C839 1.574 . S
C856 H850 0.949 . S
C856 C860 1.368 . S
C857 C838 1.429 . S
C857 C851 1.429 . S
C857 C858 1.523 . S
C858 C839 1.368 . S
C858 C852 1.368 . S
C858 C857 1.523 . S
C859 C843 1.429 . S
C859 C855 1.429 . S
C859 C860 1.523 . S
C860 C844 1.368 . S
C860 C856 1.368 . S
C860 C859 1.523 . S
H861 C836 0.950 . S
H862 C838 0.950 . S
H863 C839 0.949 . S
H864 C841 0.950 . S
H865 C843 0.950 . S
C866 C867 1.349 . S
C866 C868 1.327 . S
C866 H891 0.950 . S
C867 C866 1.349 . S
C867 C883 1.349 . S
C868 C866 1.327 . S
C868 C887 1.429 . S
C868 H892 0.950 . S
C869 C886 1.574 . S
C869 C888 1.368 . S
C869 H893 0.949 . S
H870 C874 0.949 . S
C871 C872 1.349 . S
C871 C873 1.327 . S
C871 H894 0.950 . S
C872 C871 1.349 . S
C872 C884 1.349 . S
C873 C871 1.327 . S
C873 C889 1.429 . S
C873 H895 0.950 . S
C874 H870 0.949 . S
C874 C882 1.574 . S
C874 C890 1.368 . S
H875 C883 0.950 . S
H876 C881 0.950 . S
H877 C882 0.949 . S
H878 C884 0.950 . S
H879 C885 0.950 . S
H880 C886 0.949 . S
C881 H876 0.950 . S
C881 C883 1.327 . S
C881 C887 1.429 . S
C882 C874 1.574 . S
C882 H877 0.949 . S
C882 C888 1.368 . S
C883 C867 1.349 . S
C883 H875 0.950 . S
C883 C881 1.327 . S
C884 C872 1.349 . S
C884 H878 0.950 . S
C884 C885 1.327 . S
C885 H879 0.950 . S
C885 C884 1.327 . S
C885 C889 1.429 . S
C886 C869 1.574 . S
C886 H880 0.949 . S
C886 C890 1.368 . S
C887 C868 1.429 . S
C887 C881 1.429 . S
C887 C888 1.523 . S
C888 C869 1.368 . S
C888 C882 1.368 . S
C888 C887 1.523 . S
C889 C873 1.429 . S
C889 C885 1.429 . S
C889 C890 1.523 . S
C890 C874 1.368 . S
C890 C886 1.368 . S
C890 C889 1.523 . S
H891 C866 0.950 . S
H892 C868 0.950 . S
H893 C869 0.949 . S
H894 C871 0.950 . S
H895 C873 0.950 . S
C177 C7 1.039 . S
C182 C119 1.069 . S
C207 C29 1.039 . S
C212 C140 1.069 . S
C237 C50 1.039 . S
C242 C163 1.069 . S
C267 C92 1.069 . S
C272 C73 1.039 . S
C297 C114 1.069 . S
C302 C97 1.039 . S
C327 C138 1.069 . S
C332 C115 1.039 . S
C357 C158 1.069 . S
C362 C137 1.039 . S
C387 C159 1.039 . S
C392 C95 1.069 . S
C417 C139 1.039 . S
C422 C75 1.069 . S
C447 C161 1.039 . S
C452 C8 1.069 . S
C477 C31 1.069 . S
C482 C94 1.039 . S
C507 C48 1.069 . S
C512 C117 1.039 . S
C537 C70 1.069 . S
C542 C53 1.039 . S
C567 C6 1.069 . S
C572 C71 1.039 . S
C597 C26 1.069 . S
C602 C5 1.039 . S
C627 C27 1.039 . S
C632 C51 1.069 . S
C657 C96 1.386 . S
C662 C9 1.386 . S
C687 C116 1.386 . S
C692 C30 1.386 . S
C717 C49 1.386 . S
C722 C136 1.386 . S
C747 C74 1.386 . S
C752 C160 1.386 . S
C777 C52 1.386 . S
C782 C141 1.386 . S
C807 C72 1.386 . S
C812 C162 1.386 . S
C837 C93 1.386 . S
C842 C4 1.386 . S
C867 C118 1.386 . S
C872 C28 1.386 . S
