# Generated by pormake.
# Topology wno, (7)-cn, num edge types: 1
# Building blocks:
#     Node 0, Type 0, BuildingBlock: OLANEW_clean_sbu_3, # of connection points: 7
#     Node 1, Type 0, BuildingBlock: OLANEW_clean_sbu_3, # of connection points: 7
#     Node 2, Type 0, BuildingBlock: OLANEW_clean_sbu_3, # of connection points: 7
#     Node 3, Type 0, BuildingBlock: OLANEW_clean_sbu_3, # of connection points: 7
#     Node 4, Type 0, BuildingBlock: OLANEW_clean_sbu_3, # of connection points: 7
#     Node 5, Type 0, BuildingBlock: OLANEW_clean_sbu_3, # of connection points: 7
#     Node 6, Type 0, BuildingBlock: OLANEW_clean_sbu_3, # of connection points: 7
#     Node 7, Type 0, BuildingBlock: OLANEW_clean_sbu_3, # of connection points: 7
#     Node 8, Type 0, BuildingBlock: OLANEW_clean_sbu_3, # of connection points: 7
#     Node 9, Type 0, BuildingBlock: OLANEW_clean_sbu_3, # of connection points: 7
#     Node 10, Type 0, BuildingBlock: OLANEW_clean_sbu_3, # of connection points: 7
#     Node 11, Type 0, BuildingBlock: OLANEW_clean_sbu_3, # of connection points: 7
#     Node 12, Type 0, BuildingBlock: OLANEW_clean_sbu_3, # of connection points: 7
#     Node 13, Type 0, BuildingBlock: OLANEW_clean_sbu_3, # of connection points: 7
#     Node 14, Type 0, BuildingBlock: OLANEW_clean_sbu_3, # of connection points: 7
#     Node 15, Type 0, BuildingBlock: OLANEW_clean_sbu_3, # of connection points: 7
#     Node 16, Type 0, BuildingBlock: OLANEW_clean_sbu_3, # of connection points: 7
#     Node 17, Type 0, BuildingBlock: OLANEW_clean_sbu_3, # of connection points: 7
#     Edge 18, Type (0, 0), BuildingBlock: ZUJKAS_clean_linker_0, # of connection points: 2
#     Edge 19, Type (0, 0), BuildingBlock: ZUJKAS_clean_linker_0, # of connection points: 2
#     Edge 20, Type (0, 0), BuildingBlock: ZUJKAS_clean_linker_0, # of connection points: 2
#     Edge 21, Type (0, 0), BuildingBlock: ZUJKAS_clean_linker_0, # of connection points: 2
#     Edge 22, Type (0, 0), BuildingBlock: ZUJKAS_clean_linker_0, # of connection points: 2
#     Edge 23, Type (0, 0), BuildingBlock: ZUJKAS_clean_linker_0, # of connection points: 2
#     Edge 24, Type (0, 0), BuildingBlock: ZUJKAS_clean_linker_0, # of connection points: 2
#     Edge 25, Type (0, 0), BuildingBlock: ZUJKAS_clean_linker_0, # of connection points: 2
#     Edge 26, Type (0, 0), BuildingBlock: ZUJKAS_clean_linker_0, # of connection points: 2
#     Edge 27, Type (0, 0), BuildingBlock: ZUJKAS_clean_linker_0, # of connection points: 2
#     Edge 28, Type (0, 0), BuildingBlock: ZUJKAS_clean_linker_0, # of connection points: 2
#     Edge 29, Type (0, 0), BuildingBlock: ZUJKAS_clean_linker_0, # of connection points: 2
#     Edge 30, Type (0, 0), BuildingBlock: ZUJKAS_clean_linker_0, # of connection points: 2
#     Edge 31, Type (0, 0), BuildingBlock: ZUJKAS_clean_linker_0, # of connection points: 2
#     Edge 32, Type (0, 0), BuildingBlock: ZUJKAS_clean_linker_0, # of connection points: 2
#     Edge 33, Type (0, 0), BuildingBlock: ZUJKAS_clean_linker_0, # of connection points: 2
#     Edge 34, Type (0, 0), BuildingBlock: ZUJKAS_clean_linker_0, # of connection points: 2
#     Edge 35, Type (0, 0), BuildingBlock: ZUJKAS_clean_linker_0, # of connection points: 2
#     Edge 36, Type (0, 0), BuildingBlock: ZUJKAS_clean_linker_0, # of connection points: 2
#     Edge 37, Type (0, 0), BuildingBlock: ZUJKAS_clean_linker_0, # of connection points: 2
#     Edge 38, Type (0, 0), BuildingBlock: ZUJKAS_clean_linker_0, # of connection points: 2
#     Edge 39, Type (0, 0), BuildingBlock: ZUJKAS_clean_linker_0, # of connection points: 2
#     Edge 40, Type (0, 0), BuildingBlock: ZUJKAS_clean_linker_0, # of connection points: 2
#     Edge 41, Type (0, 0), BuildingBlock: ZUJKAS_clean_linker_0, # of connection points: 2
#     Edge 42, Type (0, 0), BuildingBlock: ZUJKAS_clean_linker_0, # of connection points: 2
#     Edge 43, Type (0, 0), BuildingBlock: ZUJKAS_clean_linker_0, # of connection points: 2
#     Edge 44, Type (0, 0), BuildingBlock: ZUJKAS_clean_linker_0, # of connection points: 2
#     Edge 45, Type (0, 0), BuildingBlock: ZUJKAS_clean_linker_0, # of connection points: 2
#     Edge 46, Type (0, 0), BuildingBlock: ZUJKAS_clean_linker_0, # of connection points: 2
#     Edge 47, Type (0, 0), BuildingBlock: ZUJKAS_clean_linker_0, # of connection points: 2
#     Edge 48, Type (0, 0), BuildingBlock: ZUJKAS_clean_linker_0, # of connection points: 2
#     Edge 49, Type (0, 0), BuildingBlock: ZUJKAS_clean_linker_0, # of connection points: 2
#     Edge 50, Type (0, 0), BuildingBlock: ZUJKAS_clean_linker_0, # of connection points: 2
#     Edge 51, Type (0, 0), BuildingBlock: ZUJKAS_clean_linker_0, # of connection points: 2
#     Edge 52, Type (0, 0), BuildingBlock: ZUJKAS_clean_linker_0, # of connection points: 2
#     Edge 53, Type (0, 0), BuildingBlock: ZUJKAS_clean_linker_0, # of connection points: 2
#     Edge 54, Type (0, 0), BuildingBlock: ZUJKAS_clean_linker_0, # of connection points: 2
#     Edge 55, Type (0, 0), BuildingBlock: ZUJKAS_clean_linker_0, # of connection points: 2
#     Edge 56, Type (0, 0), BuildingBlock: ZUJKAS_clean_linker_0, # of connection points: 2
#     Edge 57, Type (0, 0), BuildingBlock: ZUJKAS_clean_linker_0, # of connection points: 2
#     Edge 58, Type (0, 0), BuildingBlock: ZUJKAS_clean_linker_0, # of connection points: 2
#     Edge 59, Type (0, 0), BuildingBlock: ZUJKAS_clean_linker_0, # of connection points: 2
#     Edge 60, Type (0, 0), BuildingBlock: ZUJKAS_clean_linker_0, # of connection points: 2
#     Edge 61, Type (0, 0), BuildingBlock: ZUJKAS_clean_linker_0, # of connection points: 2
#     Edge 62, Type (0, 0), BuildingBlock: ZUJKAS_clean_linker_0, # of connection points: 2
#     Edge 63, Type (0, 0), BuildingBlock: ZUJKAS_clean_linker_0, # of connection points: 2
#     Edge 64, Type (0, 0), BuildingBlock: ZUJKAS_clean_linker_0, # of connection points: 2
#     Edge 65, Type (0, 0), BuildingBlock: ZUJKAS_clean_linker_0, # of connection points: 2
#     Edge 66, Type (0, 0), BuildingBlock: ZUJKAS_clean_linker_0, # of connection points: 2
#     Edge 67, Type (0, 0), BuildingBlock: ZUJKAS_clean_linker_0, # of connection points: 2
#     Edge 68, Type (0, 0), BuildingBlock: ZUJKAS_clean_linker_0, # of connection points: 2
#     Edge 69, Type (0, 0), BuildingBlock: ZUJKAS_clean_linker_0, # of connection points: 2
#     Edge 70, Type (0, 0), BuildingBlock: ZUJKAS_clean_linker_0, # of connection points: 2
#     Edge 71, Type (0, 0), BuildingBlock: ZUJKAS_clean_linker_0, # of connection points: 2
#     Edge 72, Type (0, 0), BuildingBlock: ZUJKAS_clean_linker_0, # of connection points: 2
#     Edge 73, Type (0, 0), BuildingBlock: ZUJKAS_clean_linker_0, # of connection points: 2
#     Edge 74, Type (0, 0), BuildingBlock: ZUJKAS_clean_linker_0, # of connection points: 2
#     Edge 75, Type (0, 0), BuildingBlock: ZUJKAS_clean_linker_0, # of connection points: 2
#     Edge 76, Type (0, 0), BuildingBlock: ZUJKAS_clean_linker_0, # of connection points: 2
#     Edge 77, Type (0, 0), BuildingBlock: ZUJKAS_clean_linker_0, # of connection points: 2
#     Edge 78, Type (0, 0), BuildingBlock: ZUJKAS_clean_linker_0, # of connection points: 2
#     Edge 79, Type (0, 0), BuildingBlock: ZUJKAS_clean_linker_0, # of connection points: 2
#     Edge 80, Type (0, 0), BuildingBlock: ZUJKAS_clean_linker_0, # of connection points: 2
# Relax obj value: 0.247
# Max RMSD: 0.259
# Mean RMSD: 0.259
data_MOF--net-wno--node1-OLANEW_clean_sbu_3--edge1-ZUJKAS_clean_linker_0
_symmetry_space_group_name_H-M    P1
_symmetry_Int_Tables_number       1
_symmetry_cell_setting            triclinic
loop_
_symmetry_equiv_pos_as_xyz
'x, y, z'
_cell_length_a     80.714826
_cell_length_b     80.704334
_cell_length_c     56.475412
_cell_angle_alpha  89.968944
_cell_angle_beta   90.042724
_cell_angle_gamma 119.99919
loop_
_atom_site_label
_atom_site_type_symbol
_atom_site_fract_x
_atom_site_fract_y
_atom_site_fract_z
_atom_type_partial_charge
C0 C 0.16537 0.29239 0.12774 0.0
C1 C 0.15636 0.27388 0.11828 0.0
C2 C 0.16789 0.26771 0.1067 0.0
C3 C 0.18793 0.27992 0.10484 0.0
C4 C 0.19595 0.2982 0.11476 0.0
N5 N 0.18435 0.3031 0.12569 0.0
C6 C 0.21608 0.3138 0.11432 0.0
C7 C 0.23755 0.34741 0.12695 0.0
C8 C 0.25129 0.34604 0.14077 0.0
C9 C 0.26912 0.36223 0.14489 0.0
C10 C 0.27344 0.37982 0.13503 0.0
C11 C 0.25997 0.38119 0.12089 0.0
C12 C 0.24209 0.36504 0.11682 0.0
Cd13 Cd 0.25028 0.31287 0.07208 0.0
Cd14 Cd 0.2296 0.29407 0.0379 0.0
C15 C 0.16518 0.32965 0.16738 0.0
C16 C 0.15238 0.35033 0.17803 0.0
C17 C 0.15789 0.35019 0.20155 0.0
C18 C 0.16617 0.33931 0.20838 0.0
C19 C 0.16912 0.32845 0.19135 0.0
C20 C 0.1563 0.34016 0.16081 0.0
Co21 Co 0.19515 0.32755 0.13741 0.0
N22 N 0.20305 0.32186 0.16768 0.0
N23 N 0.20558 0.35219 0.14872 0.0
C24 C 0.21234 0.3552 0.17075 0.0
C25 C 0.21778 0.37284 0.18143 0.0
C26 C 0.21551 0.38649 0.16829 0.0
C27 C 0.20764 0.38221 0.14523 0.0
C28 C 0.20241 0.36422 0.13583 0.0
N29 N 0.18849 0.33739 0.10952 0.0
N30 N 0.21897 0.33102 0.12336 0.0
N31 N 0.16982 0.31978 0.14981 0.0
O32 O 0.2497 0.31228 0.00656 0.0
O33 O 0.26836 0.32917 0.03582 0.0
C34 C 0.28289 0.34193 0.09663 0.0
O35 O 0.27432 0.34581 0.08058 0.0
O36 O 0.276 0.32435 0.10183 0.0
C37 C 0.24428 0.26801 0.04965 0.0
O38 O 0.25373 0.28302 0.06245 0.0
O39 O 0.22959 0.26557 0.03859 0.0
C40 C 0.21137 0.33815 0.18135 0.0
O41 O 0.21664 0.33816 0.20341 0.0
O42 O 0.22098 0.31431 0.0608 0.0
O43 O 0.20076 0.29409 0.0346 0.0
C44 C 0.19288 0.35587 0.11319 0.0
O45 O 0.19041 0.36598 0.09676 0.0
C46 C 0.18328 0.32846 0.08682 0.0
C47 C 0.19706 0.32696 0.07423 0.0
C48 C 0.19197 0.31422 0.05543 0.0
C49 C 0.17349 0.30619 0.04588 0.0
C50 C 0.16 0.31042 0.05592 0.0
C51 C 0.16476 0.32085 0.07742 0.0
C52 C 0.26534 0.32616 0.01373 0.0
O53 O 0.23061 0.31042 0.1088 0.0
C54 C 0.20546 0.30779 0.04892 0.0
C55 C 0.20352 0.30491 0.17464 0.0
C56 C 0.18688 0.28691 0.17474 0.0
C57 C 0.18714 0.27103 0.18409 0.0
C58 C 0.20376 0.27307 0.19447 0.0
C59 C 0.22021 0.29123 0.19598 0.0
C60 C 0.22026 0.30677 0.18484 0.0
C61 C 0.15701 0.30186 0.14172 0.0
O62 O 0.13895 0.29293 0.14821 0.0
H63 H 0.14107 0.2645 0.11988 0.0
H64 H 0.1613 0.25349 0.09916 0.0
H65 H 0.19671 0.2753 0.09572 0.0
H66 H 0.24822 0.33253 0.14843 0.0
H67 H 0.28726 0.39232 0.13819 0.0
H68 H 0.23192 0.3663 0.10561 0.0
H69 H 0.15457 0.35763 0.21506 0.0
H70 H 0.17468 0.31928 0.19668 0.0
H71 H 0.15238 0.34029 0.14248 0.0
H72 H 0.22313 0.37582 0.19941 0.0
H73 H 0.21946 0.4002 0.17616 0.0
H74 H 0.20538 0.39243 0.13539 0.0
H75 H 0.21163 0.33464 0.08055 0.0
H76 H 0.16958 0.29653 0.03094 0.0
H77 H 0.15446 0.32337 0.08661 0.0
H78 H 0.17339 0.28515 0.16908 0.0
H79 H 0.20324 0.26072 0.20275 0.0
H80 H 0.23306 0.3207 0.18557 0.0
C81 C 0.71066 0.87703 0.12567 0.0
C82 C 0.72853 0.88618 0.11452 0.0
C83 C 0.7338 0.90327 0.10187 0.0
C84 C 0.72134 0.91085 0.10064 0.0
C85 C 0.70374 0.90095 0.11228 0.0
N86 N 0.69969 0.88504 0.12414 0.0
C87 C 0.68792 0.90514 0.11266 0.0
C88 C 0.65474 0.89301 0.12676 0.0
C89 C 0.65617 0.90883 0.13902 0.0
C90 C 0.64005 0.91079 0.14199 0.0
C91 C 0.62244 0.89708 0.13266 0.0
C92 C 0.62097 0.88146 0.12018 0.0
C93 C 0.63705 0.87943 0.11719 0.0
Cd94 Cd 0.6865 0.93644 0.06777 0.0
Cd95 Cd 0.71204 0.93246 0.00386 0.0
C96 C 0.67584 0.84056 0.16847 0.0
C97 C 0.65904 0.80711 0.18049 0.0
C98 C 0.65957 0.81274 0.20403 0.0
C99 C 0.66889 0.83209 0.21017 0.0
C100 C 0.67753 0.84601 0.19244 0.0
C101 C 0.66698 0.82103 0.16262 0.0
Co102 Co 0.67589 0.87161 0.13771 0.0
N103 N 0.68286 0.88634 0.16716 0.0
N104 N 0.6519 0.85758 0.15082 0.0
C105 C 0.64989 0.86197 0.17294 0.0
C106 C 0.63278 0.85007 0.18487 0.0
C107 C 0.61862 0.83371 0.17286 0.0
C108 C 0.62191 0.8294 0.14966 0.0
C109 C 0.63942 0.84193 0.13896 0.0
N110 N 0.66502 0.85422 0.11082 0.0
N111 N 0.67131 0.89111 0.12321 0.0
N112 N 0.68468 0.85484 0.15028 0.0
O113 O 0.68605 0.93519 0.98698 0.0
O114 O 0.68458 0.93581 0.02526 0.0
C115 C 0.65497 0.94095 0.08284 0.0
O116 O 0.65207 0.92615 0.07141 0.0
O117 O 0.67229 0.95354 0.08654 0.0
C118 C 0.72905 0.97299 0.04472 0.0
O119 O 0.71689 0.96754 0.06162 0.0
O120 O 0.72695 0.96182 0.02762 0.0
C121 C 0.66731 0.87853 0.1821 0.0
O122 O 0.66828 0.8846 0.20395 0.0
O123 O 0.68705 0.90768 0.05605 0.0
O124 O 0.69992 0.90221 0.02448 0.0
C125 C 0.6468 0.84011 0.1159 0.0
O126 O 0.6361 0.82689 0.1004 0.0
C127 C 0.67315 0.85702 0.08767 0.0
C128 C 0.67434 0.87183 0.0741 0.0
C129 C 0.68528 0.87766 0.05353 0.0
C130 C 0.69227 0.8662 0.04421 0.0
C131 C 0.689 0.84945 0.05615 0.0
C132 C 0.68004 0.84538 0.0786 0.0
C133 C 0.67878 0.93801 0.00531 0.0
O134 O 0.6906 0.92255 0.10607 0.0
C135 C 0.69059 0.8966 0.04372 0.0
C136 C 0.69933 0.90491 0.1715 0.0
C137 C 0.71795 0.90814 0.16865 0.0
C138 C 0.73368 0.92609 0.17343 0.0
C139 C 0.73105 0.94066 0.18257 0.0
C140 C 0.71254 0.93717 0.18789 0.0
C141 C 0.69682 0.91963 0.18091 0.0
C142 C 0.70218 0.85984 0.14083 0.0
O143 O 0.7116 0.85107 0.14678 0.0
H144 H 0.7381 0.88045 0.11558 0.0
H145 H 0.7475 0.91061 0.09299 0.0
H146 H 0.72523 0.92375 0.09068 0.0
H147 H 0.66972 0.91965 0.1462 0.0
H148 H 0.60999 0.89863 0.13494 0.0
H149 H 0.63575 0.86751 0.107 0.0
H150 H 0.6535 0.80196 0.21785 0.0
H151 H 0.68579 0.86093 0.19733 0.0
H152 H 0.66666 0.81678 0.14435 0.0
H153 H 0.63056 0.85302 0.20292 0.0
H154 H 0.60529 0.82418 0.18169 0.0
H155 H 0.61132 0.81661 0.14068 0.0
H156 H 0.66733 0.87943 0.0803 0.0
H157 H 0.70049 0.87046 0.02796 0.0
H158 H 0.67811 0.83317 0.0888 0.0
H159 H 0.72052 0.89676 0.16377 0.0
H160 H 0.74358 0.95427 0.18665 0.0
H161 H 0.68246 0.91678 0.18433 0.0
C162 C 0.1293 0.83732 0.12302 0.0
C163 C 0.11983 0.84643 0.11376 0.0
C164 C 0.10214 0.83502 0.10209 0.0
C165 C 0.09424 0.81498 0.10004 0.0
C166 C 0.10447 0.80687 0.10981 0.0
N167 N 0.12104 0.81838 0.12065 0.0
C168 C 0.09975 0.78669 0.10951 0.0
C169 C 0.11187 0.76489 0.12081 0.0
C170 C 0.09595 0.75008 0.13246 0.0
C171 C 0.094 0.73193 0.13448 0.0
C172 C 0.10777 0.72834 0.12469 0.0
C173 C 0.12341 0.74285 0.11264 0.0
C174 C 0.12544 0.76104 0.11065 0.0
Cd175 Cd 0.06512 0.75331 0.06723 0.0
Cd176 Cd 0.06727 0.78289 0.00478 0.0
C177 C 0.16505 0.83688 0.16482 0.0
C178 C 0.19746 0.8492 0.18006 0.0
C179 C 0.18993 0.84458 0.20304 0.0
C180 C 0.17043 0.83702 0.20729 0.0
C181 C 0.15808 0.83381 0.18821 0.0
C182 C 0.18485 0.84507 0.16083 0.0
Co183 Co 0.13439 0.80736 0.13262 0.0
N184 N 0.12061 0.79971 0.16257 0.0
N185 N 0.14831 0.79678 0.14429 0.0
C186 C 0.14438 0.79016 0.16639 0.0
C187 C 0.15651 0.7848 0.17744 0.0
C188 C 0.17258 0.78707 0.16462 0.0
C189 C 0.17638 0.79489 0.14151 0.0
C190 C 0.16367 0.80005 0.13172 0.0
N191 N 0.15082 0.81369 0.10479 0.0
N192 N 0.11393 0.78357 0.11855 0.0
N193 N 0.1521 0.83267 0.14526 0.0
O194 O 0.06203 0.75377 0.987 0.0
O195 O 0.06203 0.74819 0.02477 0.0
C196 C 0.05987 0.71767 0.08502 0.0
O197 O 0.07321 0.72751 0.07038 0.0
O198 O 0.04912 0.72429 0.0908 0.0
C199 C 0.02827 0.75985 0.04731 0.0
O200 O 0.03397 0.75314 0.06394 0.0
O201 O 0.03916 0.76867 0.02996 0.0
C202 C 0.1282 0.7912 0.17655 0.0
O203 O 0.12198 0.78517 0.19813 0.0
O204 O 0.09434 0.78176 0.05436 0.0
O205 O 0.09852 0.79982 0.02284 0.0
C206 C 0.165 0.80949 0.10892 0.0
O207 O 0.17762 0.81178 0.09265 0.0
C208 C 0.14699 0.81848 0.0818 0.0
C209 C 0.1314 0.80464 0.06939 0.0
C210 C 0.12459 0.80945 0.04943 0.0
C211 C 0.13577 0.82759 0.03922 0.0
C212 C 0.15329 0.84109 0.04963 0.0
C213 C 0.15841 0.83668 0.07173 0.0
C214 C 0.05914 0.74208 0.00364 0.0
O215 O 0.08184 0.77231 0.10399 0.0
C216 C 0.10501 0.79603 0.04127 0.0
C217 C 0.10267 0.79853 0.16802 0.0
C218 C 0.10094 0.81495 0.16859 0.0
C219 C 0.0837 0.81366 0.17529 0.0
C220 C 0.06825 0.79613 0.1823 0.0
C221 C 0.07009 0.7797 0.18309 0.0
C222 C 0.08711 0.78097 0.17507 0.0
C223 C 0.14702 0.84553 0.13724 0.0
O224 O 0.15579 0.86342 0.14442 0.0
H225 H 0.12574 0.86171 0.1156 0.0
H226 H 0.09453 0.84169 0.09471 0.0
H227 H 0.08078 0.80627 0.09099 0.0
H228 H 0.085 0.75247 0.13989 0.0
H229 H 0.10622 0.71427 0.12622 0.0
H230 H 0.13734 0.77189 0.1007 0.0
H231 H 0.19946 0.84794 0.21808 0.0
H232 H 0.1431 0.82878 0.19154 0.0
H233 H 0.19034 0.84838 0.14291 0.0
H234 H 0.154 0.77951 0.19546 0.0
H235 H 0.18229 0.78317 0.17278 0.0
H236 H 0.18895 0.79715 0.13194 0.0
H237 H 0.124 0.79017 0.07597 0.0
H238 H 0.13072 0.83131 0.02343 0.0
H239 H 0.17124 0.84704 0.08088 0.0
H240 H 0.11302 0.82886 0.1649 0.0
H241 H 0.05537 0.79576 0.18842 0.0
H242 H 0.08863 0.76839 0.17532 0.0
C243 C 0.83553 0.70992 0.87801 0.0
C244 C 0.8444 0.72833 0.88773 0.0
C245 C 0.83271 0.73441 0.89909 0.0
C246 C 0.81265 0.72219 0.90049 0.0
C247 C 0.80478 0.70402 0.89026 0.0
N248 N 0.81652 0.69924 0.8795 0.0
C249 C 0.78474 0.68831 0.89053 0.0
C250 C 0.7634 0.65455 0.87874 0.0
C251 C 0.7492 0.65552 0.86543 0.0
C252 C 0.73097 0.63945 0.8633 0.0
C253 C 0.72677 0.62236 0.87451 0.0
C254 C 0.74077 0.62135 0.88795 0.0
C255 C 0.75903 0.63738 0.89009 0.0
Cd256 Cd 0.75149 0.68854 0.93336 0.0
Cd257 Cd 0.7798 0.7139 1.00074 0.0
C258 C 0.83622 0.67363 0.83743 0.0
C259 C 0.8494 0.65389 0.82385 0.0
C260 C 0.84441 0.65568 0.80062 0.0
C261 C 0.83643 0.66711 0.79545 0.0
C262 C 0.83296 0.67662 0.81377 0.0
C263 C 0.84507 0.66275 0.84242 0.0
Co264 Co 0.80593 0.67473 0.86807 0.0
N265 N 0.79827 0.68014 0.83745 0.0
N266 N 0.79578 0.65005 0.8571 0.0
C267 C 0.78944 0.64689 0.83486 0.0
C268 C 0.78442 0.62927 0.82444 0.0
C269 C 0.78667 0.6158 0.83804 0.0
C270 C 0.79413 0.62026 0.8613 0.0
C271 C 0.79895 0.63823 0.87044 0.0
N272 N 0.81218 0.66523 0.8965 0.0
N273 N 0.78196 0.67115 0.88155 0.0
N274 N 0.83149 0.68255 0.8562 0.0
O275 O 0.75055 0.6869 0.01463 0.0
O276 O 0.74896 0.68544 0.97618 0.0
C277 C 0.71609 0.65666 0.91701 0.0
O278 O 0.72649 0.65416 0.93188 0.0
O279 O 0.722 0.67374 0.91042 0.0
C280 C 0.75512 0.72807 0.95706 0.0
O281 O 0.74929 0.71851 0.93786 0.0
O282 O 0.76359 0.72325 0.9721 0.0
C283 C 0.79035 0.6638 0.82387 0.0
O284 O 0.78529 0.66361 0.80168 0.0
O285 O 0.7811 0.69041 0.94825 0.0
O286 O 0.79865 0.7023 0.98073 0.0
C287 C 0.80809 0.6468 0.89318 0.0
O288 O 0.81061 0.63694 0.90992 0.0
C289 C 0.81757 0.67459 0.91899 0.0
C290 C 0.80407 0.67671 0.93165 0.0
C291 C 0.80926 0.68838 0.9516 0.0
C292 C 0.8277 0.69559 0.96113 0.0
C293 C 0.84109 0.69177 0.94998 0.0
C294 C 0.83602 0.68166 0.92832 0.0
C295 C 0.74071 0.67969 0.99603 0.0
O296 O 0.77013 0.69141 0.89621 0.0
C297 C 0.79552 0.69371 0.96097 0.0
C298 C 0.79718 0.69676 0.83052 0.0
C299 C 0.81331 0.71512 0.83138 0.0
C300 C 0.81236 0.73091 0.82301 0.0
C301 C 0.7956 0.72845 0.81264 0.0
C302 C 0.77976 0.71001 0.81001 0.0
C303 C 0.78033 0.69443 0.82002 0.0
C304 C 0.84412 0.70051 0.86439 0.0
O305 O 0.86218 0.70966 0.85788 0.0
H306 H 0.85973 0.7377 0.88656 0.0
H307 H 0.8392 0.74854 0.90687 0.0
H308 H 0.80374 0.72668 0.90955 0.0
H309 H 0.75217 0.66869 0.85681 0.0
H310 H 0.71264 0.60995 0.87291 0.0
H311 H 0.76954 0.63648 0.90102 0.0
H312 H 0.84783 0.64903 0.78616 0.0
H313 H 0.82762 0.6862 0.80963 0.0
H314 H 0.84871 0.6614 0.86051 0.0
H315 H 0.77939 0.62616 0.80633 0.0
H316 H 0.78305 0.60211 0.83038 0.0
H317 H 0.79639 0.6102 0.87149 0.0
H318 H 0.78947 0.66958 0.92545 0.0
H319 H 0.83152 0.70397 0.97725 0.0
H320 H 0.84633 0.67943 0.91864 0.0
H321 H 0.82693 0.71731 0.83718 0.0
H322 H 0.79552 0.74079 0.80521 0.0
H323 H 0.76791 0.68027 0.81845 0.0
C324 C 0.2927 0.12791 0.87663 0.0
C325 C 0.27496 0.11871 0.88809 0.0
C326 C 0.26962 0.10131 0.90001 0.0
C327 C 0.28187 0.09347 0.9002 0.0
C328 C 0.29937 0.10346 0.88834 0.0
N329 N 0.30352 0.1197 0.87725 0.0
C330 C 0.31485 0.09884 0.88669 0.0
C331 C 0.34752 0.11056 0.87076 0.0
C332 C 0.34526 0.09486 0.85743 0.0
C333 C 0.36106 0.09279 0.85229 0.0
C334 C 0.37917 0.10623 0.86063 0.0
C335 C 0.38148 0.12169 0.87423 0.0
C336 C 0.36573 0.12386 0.8793 0.0
Cd337 Cd 0.31569 0.0645 0.92794 0.0
Cd338 Cd 0.29573 0.06587 0.9609 0.0
C339 C 0.32671 0.16437 0.83339 0.0
C340 C 0.34358 0.19773 0.82098 0.0
C341 C 0.34117 0.19183 0.79735 0.0
C342 C 0.33113 0.17244 0.79146 0.0
C343 C 0.32362 0.15872 0.80949 0.0
C344 C 0.33642 0.18398 0.83912 0.0
Co345 Co 0.32698 0.13292 0.86278 0.0
N346 N 0.31898 0.11846 0.83309 0.0
N347 N 0.35064 0.14674 0.84872 0.0
C348 C 0.35194 0.14244 0.82631 0.0
C349 C 0.36881 0.15416 0.81383 0.0
C350 C 0.3835 0.17029 0.82563 0.0
C351 C 0.38097 0.17454 0.84918 0.0
C352 C 0.36366 0.16219 0.86043 0.0
N353 N 0.33891 0.15011 0.88968 0.0
N354 N 0.3314 0.11288 0.87596 0.0
N355 N 0.31835 0.15021 0.85173 0.0
O356 O 0.31162 0.06164 0.99337 0.0
O357 O 0.32776 0.0576 0.9649 0.0
C358 C 0.34567 0.06251 0.90359 0.0
O359 O 0.34897 0.07379 0.92089 0.0
O360 O 0.3283 0.05225 0.89725 0.0
C361 C 0.26905 0.02602 0.94471 0.0
O362 O 0.28498 0.03174 0.93395 0.0
O363 O 0.26635 0.03804 0.95597 0.0
C364 C 0.33413 0.12616 0.81753 0.0
O365 O 0.33251 0.12016 0.79554 0.0
O366 O 0.31919 0.0959 0.94033 0.0
O367 O 0.29785 0.09563 0.96479 0.0
C368 C 0.35708 0.164 0.88404 0.0
O369 O 0.36841 0.17696 0.89942 0.0
C370 C 0.33163 0.14709 0.91328 0.0
C371 C 0.33099 0.13216 0.92591 0.0
C372 C 0.31935 0.12493 0.94578 0.0
C373 C 0.31189 0.13561 0.95615 0.0
C374 C 0.3153 0.15294 0.94574 0.0
C375 C 0.32437 0.15809 0.92336 0.0
C376 C 0.32417 0.05763 0.98681 0.0
O377 O 0.31164 0.08095 0.89182 0.0
C378 C 0.31255 0.10486 0.95201 0.0
C379 C 0.30217 0.10013 0.82875 0.0
C380 C 0.28377 0.0974 0.83199 0.0
C381 C 0.26769 0.07993 0.82628 0.0
C382 C 0.26976 0.06532 0.81611 0.0
C383 C 0.28808 0.06825 0.81098 0.0
C384 C 0.30412 0.08529 0.81852 0.0
C385 C 0.3011 0.14532 0.86187 0.0
O386 O 0.29174 0.1543 0.85674 0.0
H387 H 0.26552 0.12461 0.88774 0.0
H388 H 0.256 0.0939 0.90906 0.0
H389 H 0.27789 0.08027 0.90951 0.0
H390 H 0.33132 0.08421 0.85106 0.0
H391 H 0.39137 0.10455 0.85673 0.0
H392 H 0.36772 0.13572 0.8902 0.0
H393 H 0.34669 0.20249 0.78336 0.0
H394 H 0.31487 0.14377 0.80491 0.0
H395 H 0.33802 0.18841 0.85748 0.0
H396 H 0.37048 0.15124 0.79556 0.0
H397 H 0.39666 0.17968 0.81638 0.0
H398 H 0.39197 0.18716 0.85802 0.0
H399 H 0.3381 0.12498 0.91864 0.0
H400 H 0.30311 0.13025 0.97191 0.0
H401 H 0.32601 0.17051 0.91396 0.0
H402 H 0.28166 0.1089 0.83775 0.0
H403 H 0.25703 0.05214 0.8112 0.0
H404 H 0.31828 0.08767 0.81479 0.0
C405 C 0.87405 0.16438 0.87341 0.0
C406 C 0.88416 0.15611 0.88314 0.0
C407 C 0.90151 0.16823 0.89513 0.0
C408 C 0.90844 0.18812 0.897 0.0
C409 C 0.89757 0.19537 0.88681 0.0
N410 N 0.88133 0.18322 0.87578 0.0
C411 C 0.90133 0.21524 0.88671 0.0
C412 C 0.88769 0.23558 0.87442 0.0
C413 C 0.90298 0.25062 0.86221 0.0
C414 C 0.90358 0.2681 0.85917 0.0
C415 C 0.88913 0.27081 0.8686 0.0
C416 C 0.87414 0.25609 0.88127 0.0
C417 C 0.87343 0.23856 0.88421 0.0
Cd418 Cd 0.93553 0.24991 0.92869 0.0
Cd419 Cd 0.93374 0.22891 0.96231 0.0
C420 C 0.83688 0.16242 0.83174 0.0
C421 C 0.80354 0.14694 0.81967 0.0
C422 C 0.80929 0.15218 0.79618 0.0
C423 C 0.82869 0.16168 0.79011 0.0
C424 C 0.84245 0.16628 0.80787 0.0
C425 C 0.81736 0.15232 0.83755 0.0
Co426 Co 0.86739 0.19321 0.86266 0.0
N427 N 0.88202 0.2014 0.83326 0.0
N428 N 0.85297 0.20283 0.84979 0.0
C429 C 0.85753 0.20983 0.82791 0.0
C430 C 0.84547 0.21496 0.81619 0.0
C431 C 0.82886 0.21212 0.82815 0.0
C432 C 0.82447 0.20403 0.85111 0.0
C433 C 0.83715 0.19914 0.86161 0.0
N434 N 0.8499 0.18612 0.88956 0.0
N435 N 0.8867 0.21741 0.87715 0.0
N436 N 0.85105 0.16771 0.84994 0.0
O437 O 0.93451 0.24849 0.99369 0.0
O438 O 0.93677 0.26771 0.96487 0.0
C439 C 0.93999 0.28254 0.90288 0.0
O440 O 0.92731 0.27438 0.91878 0.0
O441 O 0.95046 0.27525 0.89847 0.0
C442 C 0.97473 0.2445 0.95132 0.0
O443 O 0.96883 0.25362 0.93846 0.0
O444 O 0.96278 0.22989 0.96276 0.0
C445 C 0.87443 0.20958 0.81873 0.0
O446 O 0.88127 0.21599 0.79746 0.0
O447 O 0.90456 0.22012 0.93959 0.0
O448 O 0.90518 0.19973 0.96504 0.0
C449 C 0.83545 0.18974 0.88454 0.0
O450 O 0.82219 0.18692 0.90012 0.0
C451 C 0.85321 0.18131 0.91275 0.0
C452 C 0.86822 0.19532 0.92555 0.0
C453 C 0.87602 0.19051 0.94451 0.0
C454 C 0.86586 0.17193 0.95399 0.0
C455 C 0.84839 0.15823 0.94362 0.0
C456 C 0.84257 0.16278 0.92215 0.0
C457 C 0.93635 0.26424 0.98688 0.0
O458 O 0.91896 0.23021 0.89213 0.0
C459 C 0.89586 0.20437 0.95115 0.0
C460 C 0.90028 0.20299 0.82865 0.0
C461 C 0.90239 0.1868 0.82864 0.0
C462 C 0.92014 0.18854 0.82377 0.0
C463 C 0.93579 0.20634 0.81808 0.0
C464 C 0.93364 0.22255 0.81658 0.0
C465 C 0.91594 0.22078 0.82236 0.0
C466 C 0.85666 0.15544 0.8586 0.0
O467 O 0.84841 0.13743 0.85198 0.0
H468 H 0.87903 0.14096 0.88135 0.0
H469 H 0.90963 0.16222 0.90285 0.0
H470 H 0.92167 0.19738 0.90623 0.0
H471 H 0.91444 0.24892 0.85509 0.0
H472 H 0.88965 0.28437 0.86631 0.0
H473 H 0.86193 0.2275 0.89447 0.0
H474 H 0.79856 0.14788 0.78237 0.0
H475 H 0.85741 0.17279 0.80313 0.0
H476 H 0.81302 0.14834 0.85579 0.0
H477 H 0.8485 0.22054 0.79832 0.0
H478 H 0.81921 0.21586 0.81948 0.0
H479 H 0.81153 0.20142 0.86006 0.0
H480 H 0.87489 0.20987 0.91925 0.0
H481 H 0.87137 0.16825 0.9694 0.0
H482 H 0.83012 0.15202 0.91273 0.0
H483 H 0.89029 0.17273 0.8315 0.0
H484 H 0.94921 0.20716 0.8136 0.0
H485 H 0.91417 0.23319 0.8213 0.0
C486 C 0.83202 0.62459 0.45878 0.0
C487 C 0.82374 0.60678 0.44751 0.0
C488 C 0.83601 0.60166 0.43571 0.0
C489 C 0.85605 0.61421 0.43543 0.0
C490 C 0.8633 0.63175 0.44713 0.0
N491 N 0.85103 0.63564 0.45818 0.0
C492 C 0.88324 0.64764 0.44839 0.0
C493 C 0.90358 0.68068 0.46357 0.0
C494 C 0.91706 0.67921 0.47779 0.0
C495 C 0.93465 0.69545 0.48278 0.0
C496 C 0.939 0.71318 0.47338 0.0
C497 C 0.92574 0.7147 0.45898 0.0
C498 C 0.90808 0.69851 0.45407 0.0
Cd499 Cd 0.91808 0.64751 0.40712 0.0
Cd500 Cd 0.89634 0.62612 0.37545 0.0
C501 C 0.82938 0.65805 0.50258 0.0
C502 C 0.81342 0.6749 0.51685 0.0
C503 C 0.8181 0.67282 0.54007 0.0
C504 C 0.8277 0.66284 0.54482 0.0
C505 C 0.83269 0.65482 0.52614 0.0
C506 C 0.81939 0.66783 0.49796 0.0
Co507 Co 0.86089 0.65927 0.4721 0.0
N508 N 0.86808 0.65211 0.50194 0.0
N509 N 0.87036 0.6831 0.48556 0.0
C510 C 0.87653 0.68503 0.50779 0.0
C511 C 0.88161 0.70209 0.51977 0.0
C512 C 0.87959 0.71633 0.50766 0.0
C513 C 0.87234 0.71317 0.48428 0.0
C514 C 0.86747 0.6957 0.47354 0.0
N515 N 0.85493 0.67043 0.44494 0.0
N516 N 0.88537 0.66416 0.45871 0.0
N517 N 0.835 0.65019 0.48347 0.0
O518 O 0.91677 0.63965 0.34236 0.0
O519 O 0.93562 0.65976 0.36936 0.0
C520 C 0.95135 0.67715 0.43025 0.0
O521 O 0.94494 0.68005 0.41111 0.0
O522 O 0.94206 0.66048 0.43914 0.0
C523 C 0.90899 0.59998 0.39299 0.0
O524 O 0.91987 0.61664 0.40175 0.0
O525 O 0.8934 0.5964 0.38327 0.0
C526 C 0.87565 0.66761 0.51698 0.0
O527 O 0.88017 0.66649 0.53908 0.0
O528 O 0.8902 0.65115 0.39491 0.0
O529 O 0.86926 0.62934 0.37078 0.0
C530 C 0.85885 0.68857 0.45014 0.0
O531 O 0.85683 0.69948 0.43447 0.0
C532 C 0.85076 0.66286 0.42145 0.0
C533 C 0.86524 0.66252 0.40887 0.0
C534 C 0.86104 0.65079 0.3891 0.0
C535 C 0.84286 0.643 0.37866 0.0
C536 C 0.8287 0.64607 0.38904 0.0
C537 C 0.83247 0.65518 0.41137 0.0
C538 C 0.93249 0.65422 0.34792 0.0
O539 O 0.89821 0.6449 0.44332 0.0
C540 C 0.87456 0.64419 0.3832 0.0
C541 C 0.86906 0.63512 0.50725 0.0
C542 C 0.85305 0.61685 0.50454 0.0
C543 C 0.85387 0.60062 0.5111 0.0
C544 C 0.8703 0.60244 0.52173 0.0
C545 C 0.88595 0.62067 0.52662 0.0
C546 C 0.88556 0.63681 0.51805 0.0
C547 C 0.8228 0.63282 0.47346 0.0
O548 O 0.80455 0.62308 0.47902 0.0
H549 H 0.80844 0.59712 0.44791 0.0
H550 H 0.83 0.588 0.42677 0.0
H551 H 0.86542 0.61044 0.42611 0.0
H552 H 0.91399 0.66557 0.48505 0.0
H553 H 0.95266 0.72572 0.47718 0.0
H554 H 0.89808 0.69987 0.44266 0.0
H555 H 0.81365 0.67846 0.55466 0.0
H556 H 0.83897 0.64601 0.52997 0.0
H557 H 0.81588 0.66944 0.47989 0.0
H558 H 0.8866 0.70425 0.53791 0.0
H559 H 0.88331 0.72963 0.51651 0.0
H560 H 0.87036 0.72385 0.47517 0.0
H561 H 0.87954 0.66997 0.41604 0.0
H562 H 0.83958 0.63425 0.36289 0.0
H563 H 0.82149 0.65656 0.42069 0.0
H564 H 0.83957 0.61497 0.49863 0.0
H565 H 0.8703 0.58958 0.52718 0.0
H566 H 0.89758 0.65092 0.52136 0.0
C567 C 0.3785 0.20861 0.45668 0.0
C568 C 0.39644 0.21765 0.4457 0.0
C569 C 0.40233 0.23528 0.43407 0.0
C570 C 0.39039 0.24348 0.43362 0.0
C571 C 0.37269 0.23366 0.44506 0.0
N572 N 0.36808 0.21726 0.45604 0.0
C573 C 0.35721 0.23834 0.44586 0.0
C574 C 0.32421 0.22681 0.46014 0.0
C575 C 0.32613 0.24223 0.47378 0.0
C576 C 0.31042 0.24477 0.47737 0.0
C577 C 0.29274 0.23205 0.46726 0.0
C578 C 0.29079 0.21681 0.45346 0.0
C579 C 0.30646 0.21419 0.44988 0.0
Cd580 Cd 0.35615 0.27119 0.40286 0.0
Cd581 Cd 0.38045 0.26733 0.33557 0.0
C582 C 0.34329 0.17226 0.49884 0.0
C583 C 0.32364 0.13936 0.51245 0.0
C584 C 0.3273 0.14589 0.53587 0.0
C585 C 0.33923 0.16523 0.541 0.0
C586 C 0.34749 0.17839 0.5225 0.0
C587 C 0.33169 0.15262 0.4938 0.0
Co588 Co 0.34404 0.20386 0.46898 0.0
N589 N 0.35097 0.21731 0.49939 0.0
N590 N 0.3198 0.18986 0.48145 0.0
C591 C 0.31773 0.1933 0.50398 0.0
C592 C 0.30046 0.1811 0.51541 0.0
C593 C 0.28619 0.16546 0.50247 0.0
C594 C 0.28953 0.16213 0.47883 0.0
C595 C 0.3072 0.1749 0.46866 0.0
N596 N 0.33315 0.18782 0.44105 0.0
N597 N 0.34038 0.22436 0.45599 0.0
N598 N 0.35184 0.18592 0.48 0.0
O599 O 0.35137 0.26543 0.32201 0.0
O600 O 0.35042 0.26857 0.36025 0.0
C601 C 0.32457 0.27424 0.42134 0.0
O602 O 0.32195 0.26246 0.40483 0.0
O603 O 0.3416 0.28449 0.42866 0.0
C604 C 0.39442 0.30724 0.37752 0.0
O605 O 0.38522 0.30358 0.39695 0.0
O606 O 0.38985 0.29375 0.36283 0.0
C607 C 0.33526 0.20913 0.51406 0.0
O608 O 0.3361 0.2143 0.53632 0.0
O609 O 0.35826 0.24348 0.38855 0.0
O610 O 0.37034 0.2376 0.35646 0.0
C611 C 0.31472 0.17386 0.44533 0.0
O612 O 0.30408 0.16135 0.42912 0.0
C613 C 0.3419 0.19117 0.41825 0.0
C614 C 0.34424 0.20684 0.40549 0.0
C615 C 0.35605 0.21319 0.38567 0.0
C616 C 0.36295 0.20169 0.37622 0.0
C617 C 0.35862 0.18426 0.38724 0.0
C618 C 0.34862 0.17947 0.40899 0.0
C619 C 0.34341 0.26796 0.33992 0.0
O620 O 0.36031 0.25598 0.43983 0.0
C621 C 0.3617 0.2323 0.3762 0.0
C622 C 0.3678 0.23527 0.50513 0.0
C623 C 0.38618 0.23781 0.50241 0.0
C624 C 0.40224 0.25493 0.50915 0.0
C625 C 0.40015 0.2693 0.51998 0.0
C626 C 0.38181 0.26642 0.52488 0.0
C627 C 0.36583 0.24983 0.51613 0.0
C628 C 0.36937 0.19081 0.47072 0.0
O629 O 0.3784 0.18157 0.47631 0.0
H630 H 0.40559 0.21141 0.4461 0.0
H631 H 0.41609 0.24254 0.42531 0.0
H632 H 0.39471 0.25676 0.42434 0.0
H633 H 0.33976 0.25231 0.48152 0.0
H634 H 0.28062 0.23409 0.46997 0.0
H635 H 0.30481 0.20259 0.43873 0.0
H636 H 0.3213 0.13573 0.55035 0.0
H637 H 0.35735 0.19327 0.52648 0.0
H638 H 0.3291 0.14777 0.47558 0.0
H639 H 0.2982 0.18326 0.53377 0.0
H640 H 0.27274 0.1557 0.5109 0.0
H641 H 0.27887 0.14983 0.46912 0.0
H642 H 0.33739 0.21457 0.41173 0.0
H643 H 0.37187 0.20641 0.36055 0.0
H644 H 0.3458 0.1667 0.41858 0.0
H645 H 0.38826 0.2264 0.49623 0.0
H646 H 0.41289 0.28223 0.52552 0.0
H647 H 0.35163 0.24752 0.51934 0.0
C648 C 0.79342 0.16934 0.45548 0.0
C649 C 0.78305 0.1775 0.44618 0.0
C650 C 0.76594 0.16543 0.43373 0.0
C651 C 0.75949 0.14569 0.43097 0.0
C652 C 0.77057 0.13855 0.44079 0.0
N653 N 0.78655 0.15064 0.45233 0.0
C654 C 0.76718 0.11881 0.44029 0.0
C655 C 0.78069 0.09837 0.45227 0.0
C656 C 0.7647 0.08269 0.46266 0.0
C657 C 0.76364 0.06491 0.46416 0.0
C658 C 0.77841 0.06254 0.45511 0.0
C659 C 0.79417 0.07792 0.44435 0.0
C660 C 0.7953 0.09575 0.44288 0.0
Cd661 Cd 0.73525 0.0849 0.39681 0.0
Cd662 Cd 0.74055 0.11065 0.3293 0.0
C663 C 0.83077 0.17117 0.49673 0.0
C664 C 0.86402 0.18515 0.50883 0.0
C665 C 0.85801 0.17929 0.53214 0.0
C666 C 0.83864 0.1704 0.5382 0.0
C667 C 0.82507 0.16693 0.52053 0.0
C668 C 0.85032 0.18086 0.49102 0.0
Co669 Co 0.80068 0.14072 0.4651 0.0
N670 N 0.78608 0.13214 0.49431 0.0
N671 N 0.81533 0.13124 0.47765 0.0
C672 C 0.81099 0.1243 0.49958 0.0
C673 C 0.82345 0.11974 0.51135 0.0
C674 C 0.84026 0.12312 0.49941 0.0
C675 C 0.84443 0.13122 0.47644 0.0
C676 C 0.83134 0.13552 0.46591 0.0
N677 N 0.8181 0.14827 0.43825 0.0
N678 N 0.78167 0.1166 0.45015 0.0
N679 N 0.81671 0.1661 0.47842 0.0
O680 O 0.73856 0.08115 0.31663 0.0
O681 O 0.7373 0.0823 0.35485 0.0
C682 C 0.72994 0.04933 0.41501 0.0
O683 O 0.74316 0.05899 0.40016 0.0
O684 O 0.71923 0.05602 0.42071 0.0
C685 C 0.69967 0.0898 0.37043 0.0
O686 O 0.70452 0.08438 0.38916 0.0
O687 O 0.71144 0.09746 0.35341 0.0
C688 C 0.79398 0.12425 0.50883 0.0
O689 O 0.78725 0.11774 0.53011 0.0
O690 O 0.76423 0.11405 0.38468 0.0
O691 O 0.76993 0.13019 0.35095 0.0
C692 C 0.83284 0.14505 0.44314 0.0
O693 O 0.84621 0.1483 0.42753 0.0
C694 C 0.81454 0.15284 0.41507 0.0
C695 C 0.80022 0.13844 0.40173 0.0
C696 C 0.79382 0.14261 0.38093 0.0
C697 C 0.80429 0.16103 0.37116 0.0
C698 C 0.82038 0.17554 0.38319 0.0
C699 C 0.82497 0.17141 0.40578 0.0
C700 C 0.73511 0.07258 0.33635 0.0
O701 O 0.74987 0.10383 0.43402 0.0
C702 C 0.77525 0.12798 0.3713 0.0
C703 C 0.76739 0.12949 0.49861 0.0
C704 C 0.7643 0.14507 0.49966 0.0
C705 C 0.74647 0.14233 0.50645 0.0
C706 C 0.73188 0.1242 0.51322 0.0
C707 C 0.73518 0.10866 0.51351 0.0
C708 C 0.75255 0.11129 0.50479 0.0
C709 C 0.81069 0.17824 0.47049 0.0
O710 O 0.81851 0.19604 0.47786 0.0
H711 H 0.78782 0.19252 0.44863 0.0
H712 H 0.75762 0.17134 0.42636 0.0
H713 H 0.74641 0.13645 0.42144 0.0
H714 H 0.75295 0.08409 0.46942 0.0
H715 H 0.77754 0.04875 0.45622 0.0
H716 H 0.8073 0.10724 0.43381 0.0
H717 H 0.86858 0.18274 0.54598 0.0
H718 H 0.81013 0.16074 0.52523 0.0
H719 H 0.85478 0.18507 0.47287 0.0
H720 H 0.82061 0.11427 0.52928 0.0
H721 H 0.85024 0.11988 0.50814 0.0
H722 H 0.85756 0.13434 0.46756 0.0
H723 H 0.79348 0.12391 0.40812 0.0
H724 H 0.79991 0.16394 0.35428 0.0
H725 H 0.83641 0.18247 0.41622 0.0
H726 H 0.77577 0.15944 0.49648 0.0
H727 H 0.71865 0.12278 0.51982 0.0
H728 H 0.75517 0.0994 0.50462 0.0
C729 C 0.50275 0.04299 0.21339 0.0
C730 C 0.51138 0.06159 0.2225 0.0
C731 C 0.49968 0.06721 0.23475 0.0
C732 C 0.47983 0.05438 0.23753 0.0
C733 C 0.47221 0.03604 0.2279 0.0
N734 N 0.48396 0.03161 0.2165 0.0
C735 C 0.4523 0.02004 0.22868 0.0
C736 C 0.4312 0.98599 0.21748 0.0
C737 C 0.41568 0.98654 0.20697 0.0
C738 C 0.39773 0.97 0.20565 0.0
C739 C 0.39504 0.95282 0.21504 0.0
C740 C 0.41025 0.95223 0.22598 0.0
C741 C 0.42824 0.96874 0.22725 0.0
Cd742 Cd 0.41899 0.01964 0.27215 0.0
Cd743 Cd 0.44674 0.04316 0.33792 0.0
C744 C 0.50339 0.00673 0.17253 0.0
C745 C 0.51594 0.98642 0.15933 0.0
C746 C 0.51015 0.98733 0.13624 0.0
C747 C 0.50205 0.99864 0.13082 0.0
C748 C 0.49935 0.00893 0.1489 0.0
C749 C 0.51233 0.99599 0.17765 0.0
Co750 Co 0.47352 0.0073 0.20443 0.0
N751 N 0.46507 0.01309 0.17484 0.0
N752 N 0.46355 0.98289 0.19259 0.0
C753 C 0.45685 0.98013 0.17053 0.0
C754 C 0.45226 0.96297 0.15914 0.0
C755 C 0.4554 0.94956 0.17156 0.0
C756 C 0.46333 0.95366 0.19462 0.0
C757 C 0.46767 0.97119 0.20476 0.0
N758 N 0.48079 0.9976 0.23173 0.0
N759 N 0.44963 0.00303 0.21926 0.0
N760 N 0.49883 0.01585 0.19121 0.0
O761 O 0.41781 0.0161 0.35269 0.0
O762 O 0.4175 0.01679 0.31436 0.0
C763 C 0.38324 0.989 0.2547 0.0
O764 O 0.39291 0.98572 0.26988 0.0
O765 O 0.38996 0.0063 0.24845 0.0
C766 C 0.42432 0.06129 0.29667 0.0
O767 O 0.41822 0.04992 0.27893 0.0
O768 O 0.43277 0.05837 0.31385 0.0
C769 C 0.45713 0.99709 0.16067 0.0
O770 O 0.45076 0.99711 0.13923 0.0
O771 O 0.44825 0.01992 0.28409 0.0
O772 O 0.46545 0.03208 0.31679 0.0
C773 C 0.47727 0.97947 0.22741 0.0
O774 O 0.48044 0.9695 0.24335 0.0
C775 C 0.48584 0.0063 0.25458 0.0
C776 C 0.47187 0.00714 0.2678 0.0
C777 C 0.47663 0.01855 0.28794 0.0
C778 C 0.49517 0.0264 0.29733 0.0
C779 C 0.50908 0.02368 0.28566 0.0
C780 C 0.50447 0.0142 0.26358 0.0
C781 C 0.40859 0.00987 0.33353 0.0
O782 O 0.43763 0.02291 0.23485 0.0
C783 C 0.46253 0.02339 0.29715 0.0
C784 C 0.46203 0.02888 0.1703 0.0
C785 C 0.47729 0.04775 0.16984 0.0
C786 C 0.47412 0.06269 0.16357 0.0
C787 C 0.45588 0.05885 0.15685 0.0
C788 C 0.44065 0.03987 0.156 0.0
C789 C 0.44373 0.02519 0.16386 0.0
C790 C 0.51128 0.03405 0.19876 0.0
O791 O 0.52906 0.04362 0.19125 0.0
H792 H 0.5265 0.07147 0.2201 0.0
H793 H 0.50597 0.0815 0.24201 0.0
H794 H 0.47089 0.05863 0.24697 0.0
H795 H 0.41733 0.99973 0.19994 0.0
H796 H 0.38112 0.94005 0.21408 0.0
H797 H 0.43962 0.96809 0.23644 0.0
H798 H 0.51308 0.98011 0.12202 0.0
H799 H 0.49379 0.01831 0.14466 0.0
H800 H 0.51649 0.99519 0.19567 0.0
H801 H 0.44697 0.96021 0.14112 0.0
H802 H 0.45216 0.93624 0.16312 0.0
H803 H 0.46635 0.94371 0.20384 0.0
H804 H 0.45724 0.99946 0.26173 0.0
H805 H 0.49891 0.03493 0.31333 0.0
H806 H 0.51509 0.01267 0.25362 0.0
H807 H 0.49173 0.05095 0.17323 0.0
H808 H 0.45407 0.0706 0.15089 0.0
H809 H 0.43204 0.01056 0.16359 0.0
C810 C 0.95916 0.46202 0.20997 0.0
C811 C 0.94048 0.45199 0.21881 0.0
C812 C 0.93469 0.4345 0.23077 0.0
C813 C 0.94743 0.42736 0.23351 0.0
C814 C 0.96586 0.43814 0.22415 0.0
N815 N 0.97043 0.45448 0.21304 0.0
C816 C 0.9818 0.43413 0.22488 0.0
C817 C 0.01593 0.44717 0.21399 0.0
C818 C 0.01545 0.43132 0.20294 0.0
C819 C 0.03204 0.43003 0.20133 0.0
C820 C 0.04917 0.44436 0.21098 0.0
C821 C 0.04968 0.45992 0.22248 0.0
C822 C 0.03313 0.46131 0.22404 0.0
Cd823 Cd 0.98226 0.40062 0.26737 0.0
Cd824 Cd 0.95914 0.40455 0.33442 0.0
C825 C 0.99572 0.49911 0.16938 0.0
C826 C 0.01528 0.53229 0.15687 0.0
C827 C 0.01445 0.52604 0.13354 0.0
C828 C 0.00383 0.50663 0.12758 0.0
C829 C 0.9939 0.49322 0.14556 0.0
C830 C 0.006 0.51872 0.17489 0.0
Co831 Co 0.99479 0.46835 0.2012 0.0
N832 N 0.98915 0.45433 0.17152 0.0
N833 N 0.01924 0.48277 0.18964 0.0
C834 C 0.02223 0.47873 0.16774 0.0
C835 C 0.03963 0.49114 0.15671 0.0
C836 C 0.053 0.50759 0.16934 0.0
C837 C 0.04867 0.51146 0.19224 0.0
C838 C 0.03092 0.49844 0.20203 0.0
N839 N 0.00433 0.48509 0.22883 0.0
N840 N 0.9989 0.44857 0.21582 0.0
N841 N 0.98642 0.48523 0.18789 0.0
O842 O 0.98593 0.40218 0.34831 0.0
O843 O 0.98735 0.40063 0.30989 0.0
C844 C 0.01234 0.39553 0.24832 0.0
O845 O 0.01612 0.40907 0.26275 0.0
O846 O 0.99484 0.38451 0.24334 0.0
C847 C 0.94249 0.36512 0.29132 0.0
O848 O 0.95191 0.36926 0.27202 0.0
O849 O 0.94737 0.37789 0.30712 0.0
C850 C 0.00531 0.46209 0.15769 0.0
O851 O 0.00545 0.45559 0.13639 0.0
O852 O 0.98185 0.42924 0.28095 0.0
O853 O 0.97065 0.43474 0.31413 0.0
C854 C 0.02252 0.49968 0.22464 0.0
O855 O 0.03253 0.51259 0.24079 0.0
C856 C 0.99577 0.48112 0.25186 0.0
C857 C 0.99473 0.4659 0.26452 0.0
C858 C 0.98377 0.45929 0.28502 0.0
C859 C 0.97658 0.47023 0.29526 0.0
C860 C 0.97975 0.48733 0.28445 0.0
C861 C 0.9887 0.49227 0.262 0.0
C862 C 0.99316 0.39899 0.33017 0.0
O863 O 0.97887 0.4165 0.23067 0.0
C864 C 0.97888 0.44029 0.29418 0.0
C865 C 0.97281 0.43598 0.16654 0.0
C866 C 0.95437 0.43351 0.1657 0.0
C867 C 0.93873 0.41568 0.16016 0.0
C868 C 0.94144 0.40037 0.15452 0.0
C869 C 0.96001 0.40295 0.15384 0.0
C870 C 0.97547 0.42061 0.16069 0.0
C871 C 0.96825 0.4796 0.19547 0.0
O872 O 0.95878 0.48793 0.18798 0.0
H873 H 0.93065 0.45729 0.21638 0.0
H874 H 0.92033 0.42645 0.2378 0.0
H875 H 0.94305 0.41403 0.24271 0.0
H876 H 0.0023 0.41991 0.19569 0.0
H877 H 0.06198 0.4433 0.20978 0.0
H878 H 0.03372 0.47316 0.2336 0.0
H879 H 0.0212 0.53653 0.11955 0.0
H880 H 0.98495 0.47827 0.14108 0.0
H881 H 0.00659 0.52333 0.19304 0.0
H882 H 0.04261 0.48855 0.13884 0.0
H883 H 0.06652 0.51753 0.16119 0.0
H884 H 0.05866 0.5243 0.20165 0.0
H885 H 0.00212 0.45882 0.25802 0.0
H886 H 0.96836 0.46537 0.31148 0.0
H887 H 0.99058 0.50484 0.2527 0.0
H888 H 0.95204 0.44541 0.16838 0.0
H889 H 0.92915 0.38697 0.14921 0.0
H890 H 0.9898 0.42273 0.16042 0.0
C891 C 0.54219 0.49778 0.20596 0.0
C892 C 0.55155 0.48914 0.2168 0.0
C893 C 0.56891 0.50105 0.2289 0.0
C894 C 0.57654 0.52111 0.2299 0.0
C895 C 0.56644 0.52875 0.2186 0.0
N896 N 0.55027 0.51679 0.20723 0.0
C897 C 0.57072 0.54882 0.21805 0.0
C898 C 0.55866 0.5697 0.20284 0.0
C899 C 0.57397 0.58307 0.18895 0.0
C900 C 0.57545 0.60062 0.18328 0.0
C901 C 0.5618 0.605 0.19161 0.0
C902 C 0.54679 0.59194 0.20587 0.0
C903 C 0.54524 0.57436 0.21152 0.0
Cd904 Cd 0.60472 0.58361 0.26089 0.0
Cd905 Cd 0.6015 0.56366 0.29716 0.0
C906 C 0.50547 0.49633 0.16373 0.0
C907 C 0.47216 0.48316 0.15221 0.0
C908 C 0.478 0.48845 0.12872 0.0
C909 C 0.49725 0.49666 0.12236 0.0
C910 C 0.51091 0.5 0.13981 0.0
C911 C 0.486 0.48734 0.16983 0.0
Co912 Co 0.5367 0.52708 0.19381 0.0
N913 N 0.551 0.53449 0.16406 0.0
N914 N 0.5226 0.53705 0.18082 0.0
C915 C 0.52696 0.54359 0.15874 0.0
C916 C 0.5151 0.54896 0.14701 0.0
C917 C 0.49888 0.54691 0.15921 0.0
C918 C 0.49468 0.53932 0.18242 0.0
C919 C 0.50714 0.53413 0.1929 0.0
N920 N 0.51951 0.5208 0.2209 0.0
N921 N 0.55652 0.5513 0.20776 0.0
N922 N 0.51972 0.50149 0.18181 0.0
O923 O 0.60132 0.58381 0.32696 0.0
O924 O 0.60611 0.60238 0.29633 0.0
C925 C 0.60961 0.61654 0.2355 0.0
O926 O 0.59567 0.60721 0.24953 0.0
O927 O 0.62106 0.61018 0.23254 0.0
C928 C 0.64271 0.57725 0.28574 0.0
O929 O 0.63752 0.58607 0.27123 0.0
O930 O 0.63023 0.56403 0.29853 0.0
C931 C 0.54336 0.54255 0.14935 0.0
O932 O 0.54917 0.54747 0.12738 0.0
O933 O 0.57371 0.5542 0.27167 0.0
O934 O 0.57288 0.53459 0.29943 0.0
C935 C 0.50547 0.52505 0.21602 0.0
O936 O 0.4925 0.52282 0.23174 0.0
C937 C 0.52265 0.51589 0.24409 0.0
C938 C 0.5375 0.5299 0.25702 0.0
C939 C 0.54472 0.52513 0.27658 0.0
C940 C 0.53419 0.5067 0.28629 0.0
C941 C 0.51687 0.49291 0.27562 0.0
C942 C 0.5117 0.49739 0.25356 0.0
C943 C 0.60444 0.59963 0.31857 0.0
O944 O 0.58841 0.56362 0.22391 0.0
C945 C 0.56437 0.53889 0.28387 0.0
C946 C 0.56841 0.53456 0.15823 0.0
C947 C 0.56951 0.51779 0.15935 0.0
C948 C 0.58593 0.51776 0.15173 0.0
C949 C 0.60105 0.53418 0.14176 0.0
C950 C 0.59964 0.55072 0.13875 0.0
C951 C 0.58371 0.55102 0.14818 0.0
C952 C 0.52469 0.48896 0.19126 0.0
O953 O 0.5158 0.47075 0.18546 0.0
H954 H 0.54579 0.47383 0.21589 0.0
H955 H 0.57641 0.49475 0.23752 0.0
H956 H 0.58966 0.53018 0.23944 0.0
H957 H 0.58464 0.57989 0.18236 0.0
H958 H 0.56298 0.61859 0.18724 0.0
H959 H 0.53366 0.56449 0.22277 0.0
H960 H 0.46738 0.48513 0.11498 0.0
H961 H 0.52571 0.50561 0.13483 0.0
H962 H 0.48172 0.48362 0.18813 0.0
H963 H 0.51798 0.55416 0.12896 0.0
H964 H 0.48939 0.55084 0.15054 0.0
H965 H 0.48203 0.53729 0.19158 0.0
H966 H 0.54447 0.5444 0.25043 0.0
H967 H 0.53959 0.50303 0.30181 0.0
H968 H 0.49924 0.48689 0.24395 0.0
H969 H 0.55745 0.50443 0.16471 0.0
H970 H 0.61338 0.53358 0.1354 0.0
H971 H 0.5824 0.56364 0.14602 0.0
C972 C 0.49585 0.95422 0.79472 0.0
C973 C 0.48739 0.93671 0.78272 0.0
C974 C 0.49943 0.93206 0.76952 0.0
C975 C 0.51943 0.94477 0.7686 0.0
C976 C 0.52688 0.96202 0.78103 0.0
N977 N 0.51481 0.96549 0.79334 0.0
C978 C 0.54687 0.97786 0.78224 0.0
C979 C 0.56757 0.01007 0.79966 0.0
C980 C 0.58113 0.00757 0.81238 0.0
C981 C 0.59846 0.02343 0.81919 0.0
C982 C 0.60249 0.04184 0.81307 0.0
C983 C 0.58934 0.0444 0.79978 0.0
C984 C 0.57197 0.02857 0.79301 0.0
Cd985 Cd 0.58107 0.98062 0.73827 0.0
Cd986 Cd 0.56231 0.96719 0.69936 0.0
C987 C 0.49377 0.98843 0.8382 0.0
C988 C 0.48221 0.01015 0.84841 0.0
C989 C 0.48708 0.00957 0.8721 0.0
C990 C 0.49445 0.99792 0.87918 0.0
C991 C 0.49711 0.98679 0.86226 0.0
C992 C 0.48575 0.99964 0.83137 0.0
Co993 Co 0.52492 0.9887 0.80844 0.0
N994 N 0.53227 0.98051 0.83735 0.0
N995 N 0.53463 0.01213 0.82317 0.0
C996 C 0.5404 0.01309 0.84547 0.0
C997 C 0.54499 0.0295 0.85871 0.0
C998 C 0.54287 0.0441 0.84779 0.0
C999 C 0.53593 0.04192 0.82434 0.0
C1000 C 0.53155 0.02507 0.81229 0.0
N1001 N 0.51861 1.00068 0.78261 0.0
N1002 N 0.54923 0.99399 0.79394 0.0
N1003 N 0.49926 0.97931 0.82062 0.0
O1004 O 0.58356 0.98903 0.67178 0.0
O1005 O 0.60164 0.99704 0.70349 0.0
C1006 C 0.61337 0.00858 0.76415 0.0
O1007 O 0.60391 0.01323 0.75035 0.0
O1008 O 0.60738 0.99079 0.7666 0.0
C1009 C 0.57467 0.93769 0.71161 0.0
O1010 O 0.5824 0.9501 0.72819 0.0
O1011 O 0.5635 0.93911 0.69706 0.0
C1012 C 0.53931 0.99528 0.85345 0.0
O1013 O 0.54374 0.99331 0.8753 0.0
O1014 O 0.55177 0.98242 0.72814 0.0
O1015 O 0.53311 0.96665 0.69807 0.0
C1016 C 0.52271 0.01868 0.78885 0.0
O1017 O 0.52022 0.02994 0.77424 0.0
C1018 C 0.51354 0.99353 0.75906 0.0
C1019 C 0.52758 0.9936 0.74515 0.0
C1020 C 0.52284 0.98269 0.72458 0.0
C1021 C 0.50424 0.97477 0.71539 0.0
C1022 C 0.49022 0.97694 0.72771 0.0
C1023 C 0.49484 0.98576 0.75025 0.0
C1024 C 0.59981 0.99858 0.68137 0.0
O1025 O 0.56172 0.97528 0.77583 0.0
C1026 C 0.53685 0.97771 0.71562 0.0
C1027 C 0.53492 0.96424 0.84056 0.0
C1028 C 0.52003 0.94554 0.83646 0.0
C1029 C 0.52271 0.92999 0.84061 0.0
C1030 C 0.53989 0.93281 0.85014 0.0
C1031 C 0.55444 0.95132 0.85636 0.0
C1032 C 0.55211 0.96691 0.85037 0.0
C1033 C 0.4869 0.96203 0.81057 0.0
O1034 O 0.46863 0.95251 0.816 0.0
H1035 H 0.47212 0.92693 0.78359 0.0
H1036 H 0.49327 0.91863 0.76003 0.0
H1037 H 0.52861 0.94132 0.75832 0.0
H1038 H 0.57828 0.99343 0.8172 0.0
H1039 H 0.61592 0.0541 0.81833 0.0
H1040 H 0.56205 0.03078 0.7825 0.0
H1041 H 0.4842 0.01748 0.88542 0.0
H1042 H 0.50234 0.97735 0.86765 0.0
H1043 H 0.4825 1.0003 0.81289 0.0
H1044 H 0.54955 0.0308 0.87698 0.0
H1045 H 0.54613 0.05686 0.85767 0.0
H1046 H 0.53367 0.05277 0.81622 0.0
H1047 H 0.54214 0.00102 0.75161 0.0
H1048 H 0.50077 0.96701 0.6988 0.0
H1049 H 0.48403 0.98636 0.76097 0.0
H1050 H 0.50607 0.94271 0.83116 0.0
H1051 H 0.54134 0.92042 0.85362 0.0
H1052 H 0.56321 0.98125 0.85479 0.0
C1053 C 0.04301 0.54178 0.7925 0.0
C1054 C 0.06106 0.5507 0.78181 0.0
C1055 C 0.06714 0.56828 0.76993 0.0
C1056 C 0.05526 0.57654 0.76894 0.0
C1057 C 0.03743 0.56685 0.78011 0.0
N1058 N 0.03266 0.55048 0.79134 0.0
C1059 C 0.02199 0.57162 0.78033 0.0
C1060 C 0.98891 0.56026 0.79424 0.0
C1061 C 0.99087 0.57572 0.80783 0.0
C1062 C 0.9751 0.5781 0.81177 0.0
C1063 C 0.95732 0.56516 0.80208 0.0
C1064 C 0.95535 0.54996 0.7882 0.0
C1065 C 0.9711 0.54753 0.78423 0.0
Cd1066 Cd 0.02108 0.60361 0.73587 0.0
Cd1067 Cd 0.04451 0.59868 0.66859 0.0
C1068 C 0.00631 0.50445 0.83304 0.0
C1069 C 0.98731 0.4706 0.84296 0.0
C1070 C 0.98719 0.47558 0.86671 0.0
C1071 C 0.99711 0.49469 0.87414 0.0
C1072 C 0.0072 0.50907 0.85724 0.0
C1073 C 0.99678 0.48513 0.82605 0.0
Co1074 Co 0.00848 0.53722 0.80389 0.0
N1075 N 0.01514 0.55087 0.83406 0.0
N1076 N 0.98413 0.52346 0.816 0.0
C1077 C 0.98165 0.52756 0.83807 0.0
C1078 C 0.96401 0.51593 0.84906 0.0
C1079 C 0.9498 0.50022 0.83613 0.0
C1080 C 0.95351 0.4963 0.81293 0.0
C1081 C 0.97154 0.50851 0.80321 0.0
N1082 N 0.99784 0.52093 0.77606 0.0
N1083 N 0.00503 0.55769 0.79025 0.0
N1084 N 0.01609 0.51932 0.81573 0.0
O1085 O 0.01625 0.5986 0.65494 0.0
O1086 O 0.01639 0.60132 0.69326 0.0
C1087 C 0.98972 0.60844 0.7511 0.0
O1088 O 0.9867 0.59271 0.74216 0.0
O1089 O 0.00704 0.6217 0.75249 0.0
C1090 C 0.06111 0.63921 0.7104 0.0
O1091 O 0.05124 0.63511 0.7294 0.0
O1092 O 0.05669 0.62644 0.69465 0.0
C1093 C 0.99914 0.54348 0.84819 0.0
O1094 O 0.99972 0.54914 0.87017 0.0
O1095 O 0.02276 0.57581 0.72159 0.0
O1096 O 0.03411 0.56897 0.68964 0.0
C1097 C 0.9793 0.50714 0.78018 0.0
O1098 O 0.96872 0.49462 0.76395 0.0
C1099 C 0.00669 0.52409 0.75331 0.0
C1100 C 0.00898 0.53958 0.74014 0.0
C1101 C 0.02034 0.54539 0.71989 0.0
C1102 C 0.02719 0.53375 0.71082 0.0
C1103 C 0.02333 0.51676 0.7226 0.0
C1104 C 0.01337 0.51224 0.74436 0.0
C1105 C 0.00926 0.6017 0.67337 0.0
O1106 O 0.02515 0.58927 0.77395 0.0
C1107 C 0.02574 0.56418 0.70957 0.0
C1108 C 0.03267 0.56791 0.84034 0.0
C1109 C 0.05027 0.56842 0.83953 0.0
C1110 C 0.06697 0.58469 0.84691 0.0
C1111 C 0.06619 0.60025 0.85633 0.0
C1112 C 0.04848 0.59942 0.85911 0.0
C1113 C 0.03197 0.58357 0.85001 0.0
C1114 C 0.03361 0.52398 0.80661 0.0
O1115 O 0.0423 0.5144 0.81212 0.0
H1116 H 0.07016 0.54441 0.7826 0.0
H1117 H 0.08099 0.57544 0.76139 0.0
H1118 H 0.05973 0.58977 0.75946 0.0
H1119 H 0.00455 0.58589 0.81539 0.0
H1120 H 0.94513 0.56703 0.80513 0.0
H1121 H 0.96942 0.53591 0.77308 0.0
H1122 H 0.98025 0.46434 0.87983 0.0
H1123 H 0.01575 0.52378 0.86289 0.0
H1124 H 0.99692 0.4815 0.80762 0.0
H1125 H 0.9614 0.5186 0.86707 0.0
H1126 H 0.93605 0.49092 0.84422 0.0
H1127 H 0.94281 0.48406 0.8032 0.0
H1128 H 0.00228 0.5475 0.74621 0.0
H1129 H 0.03539 0.53782 0.69454 0.0
H1130 H 0.01107 0.49983 0.75442 0.0
H1131 H 0.05114 0.55606 0.83444 0.0
H1132 H 0.07932 0.61249 0.86243 0.0
H1133 H 0.01823 0.58269 0.85194 0.0
C1134 C 0.4621 0.50379 0.7865 0.0
C1135 C 0.45222 0.51248 0.77724 0.0
C1136 C 0.43462 0.50071 0.76555 0.0
C1137 C 0.42722 0.48075 0.76346 0.0
C1138 C 0.43783 0.47306 0.77325 0.0
N1139 N 0.45427 0.48489 0.78415 0.0
C1140 C 0.43369 0.45305 0.77286 0.0
C1141 C 0.44655 0.43199 0.78465 0.0
C1142 C 0.43099 0.41717 0.79678 0.0
C1143 C 0.42972 0.39937 0.79958 0.0
C1144 C 0.44383 0.39615 0.7901 0.0
C1145 C 0.45907 0.41064 0.77749 0.0
C1146 C 0.46041 0.42847 0.7747 0.0
Cd1147 Cd 0.40082 0.42013 0.72914 0.0
Cd1148 Cd 0.40549 0.44707 0.66186 0.0
C1149 C 0.49822 0.50429 0.82848 0.0
C1150 C 0.53048 0.51637 0.84401 0.0
C1151 C 0.52283 0.51169 0.86691 0.0
C1152 C 0.50333 0.50423 0.87095 0.0
C1153 C 0.4911 0.50111 0.85179 0.0
C1154 C 0.51803 0.51246 0.82465 0.0
Co1155 Co 0.46811 0.47443 0.79621 0.0
N1156 N 0.45432 0.46652 0.8261 0.0
N1157 N 0.48249 0.46439 0.80798 0.0
C1158 C 0.47861 0.45769 0.83004 0.0
C1159 C 0.49099 0.45267 0.84113 0.0
C1160 C 0.50721 0.45531 0.82836 0.0
C1161 C 0.51091 0.46314 0.80525 0.0
C1162 C 0.49795 0.46795 0.79542 0.0
N1163 N 0.48461 0.4811 0.7685 0.0
N1164 N 0.44814 0.45043 0.78204 0.0
N1165 N 0.48532 0.49987 0.80882 0.0
O1166 O 0.40548 0.41871 0.64859 0.0
O1167 O 0.40307 0.4176 0.68688 0.0
C1168 C 0.39499 0.38384 0.74535 0.0
O1169 O 0.41046 0.39566 0.73503 0.0
O1170 O 0.38242 0.38879 0.74753 0.0
C1171 C 0.36485 0.42452 0.70352 0.0
O1172 O 0.36964 0.41933 0.7225 0.0
O1173 O 0.37697 0.4325 0.68695 0.0
C1174 C 0.46216 0.45829 0.84013 0.0
O1175 O 0.45604 0.45226 0.86174 0.0
O1176 O 0.42906 0.44959 0.7157 0.0
O1177 O 0.43506 0.46688 0.68297 0.0
C1178 C 0.49907 0.4773 0.77262 0.0
O1179 O 0.5119 0.48006 0.75643 0.0
C1180 C 0.48094 0.48636 0.74576 0.0
C1181 C 0.46556 0.47275 0.73283 0.0
C1182 C 0.45913 0.47785 0.71275 0.0
C1183 C 0.4702 0.49634 0.70338 0.0
C1184 C 0.48717 0.50988 0.71483 0.0
C1185 C 0.49216 0.5049 0.73659 0.0
C1186 C 0.40243 0.40928 0.6676 0.0
O1187 O 0.41607 0.43834 0.76693 0.0
C1188 C 0.44027 0.46396 0.70303 0.0
C1189 C 0.43642 0.46537 0.83173 0.0
C1190 C 0.43471 0.48179 0.83238 0.0
C1191 C 0.41754 0.48055 0.83936 0.0
C1192 C 0.4022 0.46306 0.84663 0.0
C1193 C 0.40409 0.44667 0.84745 0.0
C1194 C 0.42096 0.44785 0.83903 0.0
C1195 C 0.47982 0.5124 0.80076 0.0
O1196 O 0.48816 0.53027 0.808 0.0
H1197 H 0.45775 0.5277 0.77909 0.0
H1198 H 0.4267 0.50706 0.75817 0.0
H1199 H 0.41384 0.47177 0.75437 0.0
H1200 H 0.41985 0.41934 0.80408 0.0
H1201 H 0.44282 0.38236 0.79226 0.0
H1202 H 0.47204 0.43933 0.7644 0.0
H1203 H 0.53228 0.51483 0.882 0.0
H1204 H 0.47609 0.49601 0.85499 0.0
H1205 H 0.52367 0.51582 0.8068 0.0
H1206 H 0.48852 0.44736 0.85913 0.0
H1207 H 0.51711 0.45169 0.83654 0.0
H1208 H 0.52359 0.46567 0.79571 0.0
H1209 H 0.45821 0.45811 0.73892 0.0
H1210 H 0.46569 0.5001 0.68716 0.0
H1211 H 0.5045 0.51534 0.74648 0.0
H1212 H 0.44676 0.4957 0.82866 0.0
H1213 H 0.3894 0.46273 0.85305 0.0
H1214 H 0.42249 0.43527 0.83934 0.0
C1215 C 0.17124 0.37667 0.5438 0.0
C1216 C 0.18019 0.39493 0.55393 0.0
C1217 C 0.16852 0.40108 0.56521 0.0
C1218 C 0.1484 0.38908 0.56611 0.0
C1219 C 0.14045 0.37102 0.55557 0.0
N1220 N 0.1522 0.36617 0.54492 0.0
C1221 C 0.12024 0.35556 0.55512 0.0
C1222 C 0.09883 0.32238 0.54102 0.0
C1223 C 0.08568 0.32436 0.52671 0.0
C1224 C 0.06796 0.30842 0.52135 0.0
C1225 C 0.06317 0.29047 0.53043 0.0
C1226 C 0.07601 0.28848 0.54511 0.0
C1227 C 0.09377 0.30439 0.55044 0.0
Cd1228 Cd 0.08474 0.35535 0.59592 0.0
Cd1229 Cd 0.10719 0.37959 0.62477 0.0
C1230 C 0.17173 0.34104 0.50178 0.0
C1231 C 0.18373 0.32048 0.48731 0.0
C1232 C 0.17919 0.32322 0.46419 0.0
C1233 C 0.17159 0.33509 0.45955 0.0
C1234 C 0.16872 0.3447 0.4783 0.0
C1235 C 0.17966 0.32926 0.50626 0.0
Co1236 Co 0.14148 0.34197 0.53247 0.0
N1237 N 0.13449 0.34844 0.50212 0.0
N1238 N 0.13111 0.31758 0.52044 0.0
C1239 C 0.12481 0.31506 0.49821 0.0
C1240 C 0.11931 0.29755 0.48717 0.0
C1241 C 0.121 0.28348 0.5002 0.0
C1242 C 0.12834 0.28724 0.52354 0.0
C1243 C 0.13368 0.30515 0.53331 0.0
N1244 N 0.14714 0.33145 0.56045 0.0
N1245 N 0.1174 0.33849 0.54568 0.0
N1246 N 0.16707 0.34967 0.52098 0.0
O1247 O 0.0869 0.3655 0.65834 0.0
O1248 O 0.06919 0.34184 0.63427 0.0
C1249 C 0.05199 0.32608 0.57152 0.0
O1250 O 0.06085 0.32209 0.58705 0.0
O1251 O 0.05861 0.3437 0.56693 0.0
C1252 C 0.09064 0.40218 0.60953 0.0
O1253 O 0.0804 0.38467 0.6031 0.0
O1254 O 0.10779 0.40828 0.61593 0.0
C1255 C 0.12621 0.33242 0.48796 0.0
O1256 O 0.12137 0.33294 0.46584 0.0
O1257 O 0.1135 0.35362 0.60837 0.0
O1258 O 0.13518 0.37758 0.62941 0.0
C1259 C 0.1426 0.31296 0.55642 0.0
O1260 O 0.14446 0.30245 0.57283 0.0
C1261 C 0.15203 0.34015 0.58331 0.0
C1262 C 0.13809 0.34155 0.59575 0.0
C1263 C 0.14308 0.35488 0.61394 0.0
C1264 C 0.16171 0.36351 0.62333 0.0
C1265 C 0.17542 0.3595 0.61343 0.0
C1266 C 0.17068 0.34854 0.59239 0.0
C1267 C 0.07243 0.34914 0.65489 0.0
O1268 O 0.10569 0.35902 0.56014 0.0
C1269 C 0.12964 0.36177 0.61901 0.0
C1270 C 0.13482 0.36584 0.49549 0.0
C1271 C 0.15185 0.38351 0.4961 0.0
C1272 C 0.15233 0.39998 0.48763 0.0
C1273 C 0.13608 0.39888 0.47743 0.0
C1274 C 0.11923 0.3811 0.47517 0.0
C1275 C 0.11849 0.36487 0.48525 0.0
C1276 C 0.1798 0.36732 0.52991 0.0
O1277 O 0.19794 0.37639 0.52375 0.0
H1278 H 0.19555 0.40416 0.55309 0.0
H1279 H 0.17507 0.41511 0.57327 0.0
H1280 H 0.13951 0.39366 0.57503 0.0
H1281 H 0.08915 0.33815 0.51957 0.0
H1282 H 0.04945 0.27815 0.52629 0.0
H1283 H 0.10344 0.30265 0.56204 0.0
H1284 H 0.18251 0.31686 0.44935 0.0
H1285 H 0.16376 0.35465 0.47466 0.0
H1286 H 0.18269 0.32708 0.52431 0.0
H1287 H 0.11431 0.29493 0.46903 0.0
H1288 H 0.11696 0.26984 0.49206 0.0
H1289 H 0.13009 0.27668 0.53334 0.0
H1290 H 0.12356 0.33371 0.58924 0.0
H1291 H 0.16562 0.37355 0.63785 0.0
H1292 H 0.18119 0.34634 0.58321 0.0
H1293 H 0.16506 0.38458 0.50172 0.0
H1294 H 0.13699 0.41176 0.47029 0.0
H1295 H 0.10561 0.3511 0.48345 0.0
C1296 C 0.6271 0.79495 0.54729 0.0
C1297 C 0.60859 0.78487 0.55666 0.0
C1298 C 0.60304 0.76733 0.56836 0.0
C1299 C 0.61581 0.76017 0.57029 0.0
C1300 C 0.63404 0.77098 0.56042 0.0
N1301 N 0.63842 0.78741 0.54964 0.0
C1302 C 0.65001 0.76699 0.56043 0.0
C1303 C 0.68393 0.7802 0.54828 0.0
C1304 C 0.68326 0.76455 0.53648 0.0
C1305 C 0.69994 0.76363 0.53325 0.0
C1306 C 0.71736 0.77818 0.54199 0.0
C1307 C 0.71805 0.79349 0.55437 0.0
C1308 C 0.7014 0.79446 0.5576 0.0
Cd1309 Cd 0.64925 0.73405 0.60432 0.0
Cd1310 Cd 0.61556 0.73372 0.66082 0.0
C1311 C 0.6619 0.83084 0.5045 0.0
C1312 C 0.68171 0.86303 0.48862 0.0
C1313 C 0.67812 0.85532 0.46571 0.0
C1314 C 0.66606 0.83578 0.46187 0.0
C1315 C 0.65748 0.82359 0.48124 0.0
C1316 C 0.67366 0.85065 0.50811 0.0
Co1317 Co 0.6625 0.80129 0.53698 0.0
N1318 N 0.65618 0.78722 0.5073 0.0
N1319 N 0.68669 0.81573 0.52456 0.0
C1320 C 0.68911 0.81174 0.50239 0.0
C1321 C 0.70621 0.82416 0.49078 0.0
C1322 C 0.71992 0.84058 0.50315 0.0
C1323 C 0.71618 0.84443 0.52637 0.0
C1324 C 0.69869 0.8314 0.53673 0.0
N1325 N 0.67273 0.81814 0.56439 0.0
N1326 N 0.66695 0.78155 0.55112 0.0
N1327 N 0.65381 0.81814 0.52438 0.0
O1328 O 0.6377 0.72864 0.68361 0.0
O1329 O 0.64674 0.73004 0.64707 0.0
C1330 C 0.68098 0.72917 0.59157 0.0
O1331 O 0.68388 0.74485 0.60055 0.0
O1332 O 0.66369 0.71609 0.58923 0.0
C1333 C 0.60413 0.69616 0.61763 0.0
O1334 O 0.61855 0.70295 0.60375 0.0
O1335 O 0.60351 0.70587 0.63499 0.0
C1336 C 0.67195 0.79512 0.49278 0.0
O1337 O 0.67151 0.78878 0.4712 0.0
O1338 O 0.64903 0.76279 0.61624 0.0
O1339 O 0.63174 0.76573 0.64456 0.0
C1340 C 0.69083 0.8327 0.55972 0.0
O1341 O 0.70111 0.84578 0.57557 0.0
C1342 C 0.66421 0.8147 0.58737 0.0
C1343 C 0.66254 0.79936 0.60029 0.0
C1344 C 0.65068 0.79266 0.62008 0.0
C1345 C 0.64347 0.80383 0.62965 0.0
C1346 C 0.64729 0.82104 0.61859 0.0
C1347 C 0.65701 0.82598 0.59667 0.0
C1348 C 0.64836 0.72674 0.66868 0.0
O1349 O 0.64722 0.74937 0.56612 0.0
C1350 C 0.6441 0.77298 0.62819 0.0
C1351 C 0.63975 0.76887 0.50252 0.0
C1352 C 0.62125 0.76629 0.50242 0.0
C1353 C 0.60565 0.74861 0.49619 0.0
C1354 C 0.60845 0.73363 0.48906 0.0
C1355 C 0.62707 0.73643 0.48767 0.0
C1356 C 0.64244 0.75375 0.49552 0.0
C1357 C 0.63583 0.8125 0.53272 0.0
O1358 O 0.62603 0.82056 0.52551 0.0
H1359 H 0.59871 0.79017 0.55481 0.0
H1360 H 0.58882 0.75925 0.5758 0.0
H1361 H 0.6116 0.7468 0.5793 0.0
H1362 H 0.66991 0.75306 0.52974 0.0
H1363 H 0.73026 0.77745 0.53948 0.0
H1364 H 0.70215 0.80615 0.56774 0.0
H1365 H 0.68403 0.86471 0.45051 0.0
H1366 H 0.64758 0.80854 0.47824 0.0
H1367 H 0.67636 0.85633 0.52596 0.0
H1368 H 0.70873 0.82159 0.47269 0.0
H1369 H 0.73322 0.85053 0.49456 0.0
H1370 H 0.7264 0.85728 0.53559 0.0
H1371 H 0.66967 0.79192 0.59399 0.0
H1372 H 0.63456 0.79896 0.64533 0.0
H1373 H 0.65917 0.83852 0.58703 0.0
H1374 H 0.61885 0.77802 0.50603 0.0
H1375 H 0.59622 0.72043 0.48311 0.0
H1376 H 0.6568 0.75596 0.49474 0.0
C1377 C 0.21142 0.83373 0.54197 0.0
C1378 C 0.22095 0.82519 0.55262 0.0
C1379 C 0.23819 0.83716 0.56493 0.0
C1380 C 0.24551 0.85715 0.56635 0.0
C1381 C 0.23525 0.86468 0.55516 0.0
N1382 N 0.21927 0.85269 0.54354 0.0
C1383 C 0.23902 0.88456 0.55519 0.0
C1384 C 0.22636 0.90524 0.54137 0.0
C1385 C 0.24164 0.91934 0.52813 0.0
C1386 C 0.24304 0.93709 0.52416 0.0
C1387 C 0.22928 0.94091 0.5335 0.0
C1388 C 0.21424 0.92708 0.54706 0.0
C1389 C 0.2128 0.90931 0.55105 0.0
Cd1390 Cd 0.26906 0.91726 0.60015 0.0
Cd1391 Cd 0.26401 0.88978 0.66854 0.0
C1392 C 0.17411 0.8319 0.50044 0.0
C1393 C 0.14057 0.81538 0.48896 0.0
C1394 C 0.14591 0.82127 0.46555 0.0
C1395 C 0.16519 0.83158 0.4591 0.0
C1396 C 0.17929 0.83622 0.47646 0.0
C1397 C 0.15466 0.8211 0.50657 0.0
Co1398 Co 0.20527 0.86278 0.53089 0.0
N1399 N 0.21938 0.87088 0.50108 0.0
N1400 N 0.19071 0.87247 0.5187 0.0
C1401 C 0.19484 0.87939 0.49677 0.0
C1402 C 0.18265 0.88462 0.48561 0.0
C1403 C 0.16637 0.88201 0.49822 0.0
C1404 C 0.16246 0.87404 0.52125 0.0
C1405 C 0.17525 0.86904 0.53115 0.0
N1406 N 0.18844 0.85593 0.55836 0.0
N1407 N 0.22468 0.88689 0.54519 0.0
N1408 N 0.18857 0.83725 0.51834 0.0
O1409 O 0.2633 0.91786 0.68108 0.0
O1410 O 0.26618 0.92001 0.64273 0.0
C1411 C 0.27333 0.95315 0.58475 0.0
O1412 O 0.25722 0.93972 0.59185 0.0
O1413 O 0.28718 0.94991 0.58535 0.0
C1414 C 0.30424 0.91422 0.62619 0.0
O1415 O 0.30071 0.91913 0.60619 0.0
O1416 O 0.2908 0.90587 0.64111 0.0
C1417 C 0.21143 0.87896 0.48691 0.0
O1418 O 0.21718 0.88443 0.46504 0.0
O1419 O 0.24191 0.8874 0.61524 0.0
O1420 O 0.23449 0.86944 0.64745 0.0
C1421 C 0.17403 0.85975 0.55401 0.0
O1422 O 0.16102 0.8569 0.56997 0.0
C1423 C 0.19167 0.85037 0.5812 0.0
C1424 C 0.20656 0.86393 0.59485 0.0
C1425 C 0.21183 0.85884 0.61593 0.0
C1426 C 0.20011 0.84041 0.62521 0.0
C1427 C 0.18366 0.82693 0.61282 0.0
C1428 C 0.1799 0.83185 0.59023 0.0
C1429 C 0.26669 0.92781 0.66243 0.0
O1430 O 0.25628 0.89947 0.56177 0.0
C1431 C 0.23014 0.87269 0.62702 0.0
C1432 C 0.23719 0.8718 0.49521 0.0
C1433 C 0.2391 0.85549 0.49618 0.0
C1434 C 0.25604 0.85636 0.48899 0.0
C1435 C 0.27087 0.87321 0.47948 0.0
C1436 C 0.2686 0.88926 0.47641 0.0
C1437 C 0.2522 0.88872 0.4856 0.0
C1438 C 0.19389 0.82484 0.52735 0.0
O1439 O 0.18524 0.8067 0.52124 0.0
H1440 H 0.21539 0.80992 0.55147 0.0
H1441 H 0.24581 0.83094 0.57344 0.0
H1442 H 0.25849 0.86626 0.57612 0.0
H1443 H 0.25242 0.91662 0.52082 0.0
H1444 H 0.23038 0.95466 0.53042 0.0
H1445 H 0.20128 0.8989 0.56193 0.0
H1446 H 0.13496 0.8168 0.45199 0.0
H1447 H 0.19416 0.84301 0.47128 0.0
H1448 H 0.15062 0.81664 0.52476 0.0
H1449 H 0.18532 0.89013 0.4677 0.0
H1450 H 0.15663 0.88583 0.48999 0.0
H1451 H 0.14979 0.87162 0.53071 0.0
H1452 H 0.21429 0.87855 0.58875 0.0
H1453 H 0.20386 0.83647 0.64187 0.0
H1454 H 0.16773 0.8216 0.57996 0.0
H1455 H 0.22731 0.84181 0.50117 0.0
H1456 H 0.28361 0.8733 0.47332 0.0
H1457 H 0.25032 0.901 0.48356 0.0
H1458 H 0.18509 0.36815 0.43391 0.0
H1459 H 0.18328 0.37055 0.39065 0.0
H1460 H 0.14742 0.30921 0.38628 0.0
H1461 H 0.14893 0.30686 0.42923 0.0
H1462 H 0.19738 0.35387 0.36036 0.0
H1463 H 0.12094 0.3268 0.34043 0.0
H1464 H 0.13082 0.3344 0.36974 0.0
H1465 H 0.12436 0.31086 0.35926 0.0
C1466 C 0.1763 0.35532 0.4237 0.0
C1467 C 0.16719 0.33732 0.43474 0.0
C1468 C 0.17537 0.35666 0.39905 0.0
C1469 C 0.16514 0.34006 0.38525 0.0
C1470 C 0.15511 0.32223 0.39653 0.0
H1471 H 0.15403 0.3081 0.23711 0.0
H1472 H 0.15565 0.30827 0.28059 0.0
C1473 C 0.15606 0.32089 0.42104 0.0
C1474 C 0.1667 0.34091 0.35907 0.0
H1475 H 0.14025 0.32661 0.30827 0.0
C1476 C 0.18491 0.34814 0.34893 0.0
C1477 C 0.1504 0.33325 0.34423 0.0
C1478 C 0.13055 0.32606 0.35396 0.0
C1479 C 0.18723 0.34743 0.32439 0.0
C1480 C 0.17091 0.33947 0.30961 0.0
C1481 C 0.15272 0.33247 0.3197 0.0
C1482 C 0.17237 0.33912 0.2835 0.0
C1483 C 0.20707 0.35476 0.31454 0.0
C1484 C 0.18169 0.35634 0.27082 0.0
C1485 C 0.18084 0.35624 0.24615 0.0
C1486 C 0.17058 0.33892 0.23372 0.0
C1487 C 0.16218 0.3216 0.2463 0.0
C1488 C 0.16297 0.32171 0.27107 0.0
H1489 H 0.2172 0.35548 0.32838 0.0
H1490 H 0.20692 0.34555 0.29985 0.0
H1491 H 0.21252 0.36942 0.30748 0.0
H1492 H 0.18878 0.36993 0.28003 0.0
H1493 H 0.18742 0.36978 0.23678 0.0
H1494 H 0.69736 0.83852 0.24084 0.0
H1495 H 0.69582 0.83894 0.28427 0.0
H1496 H 0.64112 0.83614 0.27981 0.0
H1497 H 0.64257 0.83543 0.23637 0.0
H1498 H 0.69101 0.86213 0.31794 0.0
H1499 H 0.62928 0.78787 0.31749 0.0
H1500 H 0.64383 0.79884 0.29163 0.0
H1501 H 0.62597 0.80473 0.30028 0.0
C1502 C 0.68531 0.83856 0.24922 0.0
C1503 C 0.67016 0.83711 0.23547 0.0
C1504 C 0.68436 0.83866 0.27396 0.0
C1505 C 0.66816 0.83714 0.28527 0.0
C1506 C 0.65356 0.83693 0.27145 0.0
H1507 H 0.63622 0.82963 0.43368 0.0
H1508 H 0.63572 0.82824 0.39017 0.0
C1509 C 0.65449 0.83677 0.24671 0.0
C1510 C 0.66611 0.8347 0.31139 0.0
H1511 H 0.63887 0.80318 0.35476 0.0
C1512 C 0.67963 0.84924 0.32599 0.0
C1513 C 0.65127 0.81782 0.32187 0.0
C1514 C 0.63683 0.80132 0.30706 0.0
C1515 C 0.67858 0.84748 0.35077 0.0
C1516 C 0.66381 0.83058 0.36123 0.0
C1517 C 0.6502 0.81608 0.34668 0.0
C1518 C 0.6623 0.82793 0.38732 0.0
C1519 C 0.69312 0.86387 0.36563 0.0
C1520 C 0.67684 0.82716 0.40007 0.0
C1521 C 0.67703 0.82778 0.42482 0.0
C1522 C 0.66257 0.82896 0.43716 0.0
C1523 C 0.64728 0.8283 0.42449 0.0
C1524 C 0.6471 0.82769 0.3997 0.0
H1525 H 0.70083 0.87733 0.35525 0.0
H1526 H 0.68615 0.86642 0.38106 0.0
H1527 H 0.70382 0.86026 0.37248 0.0
H1528 H 0.68856 0.82708 0.39085 0.0
H1529 H 0.6891 0.82859 0.43428 0.0
H1530 H 0.159 0.85571 0.43206 0.0
H1531 H 0.1596 0.8575 0.38862 0.0
H1532 H 0.18109 0.81821 0.38564 0.0
H1533 H 0.18067 0.81655 0.42916 0.0
H1534 H 0.19061 0.86547 0.35268 0.0
H1535 H 0.12715 0.79216 0.35027 0.0
H1536 H 0.13415 0.80685 0.37658 0.0
H1537 H 0.14719 0.79527 0.36768 0.0
C1538 C 0.16438 0.84792 0.42207 0.0
C1539 C 0.1699 0.83609 0.43378 0.0
C1540 C 0.16464 0.84888 0.39734 0.0
C1541 C 0.17012 0.83778 0.38398 0.0
C1542 C 0.17667 0.82677 0.39569 0.0
H1543 H 0.17035 0.81077 0.23707 0.0
H1544 H 0.16816 0.81059 0.28034 0.0
C1545 C 0.17661 0.82597 0.42047 0.0
C1546 C 0.16765 0.83664 0.3579 0.0
H1547 H 0.14051 0.80653 0.31346 0.0
C1548 C 0.17963 0.85264 0.34405 0.0
C1549 C 0.15321 0.8199 0.3468 0.0
C1550 C 0.13955 0.80256 0.36102 0.0
C1551 C 0.17793 0.85214 0.31925 0.0
C1552 C 0.16353 0.83534 0.3081 0.0
C1553 C 0.15143 0.81943 0.32203 0.0
C1554 C 0.16176 0.8336 0.28191 0.0
C1555 C 0.19198 0.86937 0.30513 0.0
C1556 C 0.15785 0.84588 0.26837 0.0
C1557 C 0.15891 0.84584 0.2436 0.0
C1558 C 0.16383 0.83348 0.23213 0.0
C1559 C 0.16637 0.8203 0.2456 0.0
C1560 C 0.16524 0.82028 0.27028 0.0
H1561 H 0.2046 0.87935 0.31588 0.0
H1562 H 0.19704 0.86495 0.28936 0.0
H1563 H 0.18482 0.87726 0.29887 0.0
H1564 H 0.15478 0.85603 0.27699 0.0
H1565 H 0.15714 0.85629 0.23353 0.0
H1566 H 0.80562 0.63413 0.57513 0.0
H1567 H 0.80843 0.63524 0.61853 0.0
H1568 H 0.86131 0.68901 0.61365 0.0
H1569 H 0.85845 0.6879 0.57029 0.0
H1570 H 0.84001 0.64141 0.65192 0.0
H1571 H 0.82216 0.69972 0.65067 0.0
H1572 H 0.81768 0.68405 0.6257 0.0
H1573 H 0.84157 0.70284 0.63201 0.0
C1574 C 0.81815 0.64579 0.58339 0.0
C1575 C 0.83194 0.66084 0.56963 0.0
C1576 C 0.81969 0.64649 0.60808 0.0
C1577 C 0.83492 0.66235 0.61919 0.0
C1578 C 0.84937 0.67676 0.60534 0.0
H1579 H 0.85747 0.69753 0.76673 0.0
H1580 H 0.85652 0.69725 0.7232 0.0
C1581 C 0.84784 0.67605 0.58067 0.0
C1582 C 0.83476 0.66461 0.64516 0.0
H1583 H 0.82801 0.69054 0.68801 0.0
C1584 C 0.83741 0.65213 0.65985 0.0
C1585 C 0.83136 0.67865 0.65534 0.0
C1586 C 0.82788 0.69204 0.64021 0.0
C1587 C 0.8369 0.65344 0.6846 0.0
C1588 C 0.83317 0.66728 0.6948 0.0
C1589 C 0.83074 0.67989 0.68009 0.0
C1590 C 0.83184 0.66879 0.72077 0.0
C1591 C 0.84066 0.6402 0.69964 0.0
C1592 C 0.81767 0.65334 0.73368 0.0
C1593 C 0.81818 0.65353 0.75839 0.0
C1594 C 0.8327 0.66929 0.77048 0.0
C1595 C 0.84599 0.68538 0.75766 0.0
C1596 C 0.84553 0.68515 0.73288 0.0
H1597 H 0.84785 0.63382 0.6894 0.0
H1598 H 0.84971 0.64789 0.71517 0.0
H1599 H 0.82686 0.62835 0.70628 0.0
H1600 H 0.80678 0.64075 0.72463 0.0
H1601 H 0.80793 0.64094 0.76805 0.0
H1602 H 0.31144 0.18054 0.7592 0.0
H1603 H 0.31257 0.17815 0.71607 0.0
H1604 H 0.34703 0.15135 0.72363 0.0
H1605 H 0.34584 0.15371 0.76697 0.0
H1606 H 0.363 0.18534 0.69446 0.0
H1607 H 0.28834 0.13274 0.66888 0.0
H1608 H 0.29062 0.15086 0.68927 0.0
H1609 H 0.29756 0.13385 0.69836 0.0
C1610 C 0.31873 0.1736 0.7516 0.0
C1611 C 0.32839 0.16711 0.76621 0.0
C1612 C 0.31938 0.17224 0.72703 0.0
C1613 C 0.32979 0.16448 0.71671 0.0
C1614 C 0.33882 0.15727 0.73132 0.0
H1615 H 0.3609 0.15862 0.57182 0.0
H1616 H 0.36044 0.16063 0.61508 0.0
C1617 C 0.33801 0.15846 0.75598 0.0
C1618 C 0.33277 0.16575 0.69078 0.0
H1619 H 0.30917 0.1518 0.63799 0.0
C1620 C 0.35129 0.17788 0.68206 0.0
C1621 C 0.31741 0.15617 0.67475 0.0
C1622 C 0.29737 0.14254 0.68321 0.0
C1623 C 0.35479 0.18096 0.65766 0.0
C1624 C 0.33941 0.17145 0.64163 0.0
C1625 C 0.32091 0.15923 0.65036 0.0
C1626 C 0.34222 0.1732 0.61565 0.0
C1627 C 0.37481 0.19469 0.64924 0.0
C1628 C 0.3324 0.17991 0.60165 0.0
C1629 C 0.33278 0.17888 0.57695 0.0
C1630 C 0.34288 0.17102 0.56603 0.0
C1631 C 0.35337 0.16511 0.57997 0.0
C1632 C 0.35308 0.16623 0.60462 0.0
H1633 H 0.3838 0.20448 0.6636 0.0
H1634 H 0.38165 0.18646 0.64316 0.0
H1635 H 0.3746 0.2034 0.63413 0.0
H1636 H 0.32381 0.18519 0.60987 0.0
H1637 H 0.32419 0.18303 0.56648 0.0
H1638 H 0.84474 0.1459 0.76241 0.0
H1639 H 0.84742 0.14758 0.71897 0.0
H1640 H 0.82621 0.18716 0.71778 0.0
H1641 H 0.82338 0.18534 0.76107 0.0
H1642 H 0.81441 0.13692 0.68915 0.0
H1643 H 0.87288 0.21119 0.67209 0.0
H1644 H 0.87003 0.19926 0.70013 0.0
H1645 H 0.85508 0.20916 0.69286 0.0
C1646 C 0.8412 0.15535 0.75283 0.0
C1647 C 0.83399 0.1656 0.76489 0.0
C1648 C 0.8426 0.15621 0.7281 0.0
C1649 C 0.8371 0.16757 0.7152 0.0
C1650 C 0.83076 0.17851 0.72741 0.0
H1651 H 0.82177 0.18492 0.56672 0.0
H1652 H 0.81948 0.18276 0.61017 0.0
C1653 C 0.82914 0.17747 0.75206 0.0
C1654 C 0.83623 0.16667 0.68899 0.0
H1655 H 0.85369 0.19391 0.63911 0.0
C1656 C 0.8231 0.14933 0.67817 0.0
C1657 C 0.84748 0.18292 0.67478 0.0
C1658 C 0.8623 0.20167 0.68547 0.0
C1659 C 0.82068 0.1479 0.65348 0.0
C1660 C 0.83182 0.16418 0.63928 0.0
C1661 C 0.84503 0.1815 0.65009 0.0
C1662 C 0.83064 0.16341 0.61309 0.0
C1663 C 0.80597 0.12912 0.64274 0.0
C1664 C 0.83725 0.15292 0.60042 0.0
C1665 C 0.83862 0.1542 0.57575 0.0
C1666 C 0.83328 0.1659 0.56337 0.0
C1667 C 0.8257 0.1756 0.57592 0.0
C1668 C 0.82454 0.17449 0.60066 0.0
H1669 H 0.79575 0.11928 0.6562 0.0
H1670 H 0.79781 0.13149 0.62859 0.0
H1671 H 0.81333 0.12204 0.63461 0.0
H1672 H 0.84223 0.14447 0.60968 0.0
H1673 H 0.84464 0.14673 0.56639 0.0
H1674 H 0.51762 0.02807 0.90701 0.0
H1675 H 0.51989 0.02845 0.95026 0.0
H1676 H 0.4823 0.96725 0.95173 0.0
H1677 H 0.48033 0.96683 0.90835 0.0
H1678 H 0.4891 0.01787 0.97889 0.0
H1679 H 0.52295 0.9743 0.99933 0.0
H1680 H 0.52363 0.98374 0.97013 0.0
H1681 H 0.50258 0.96247 0.98011 0.0
C1682 C 0.51025 0.01466 0.91661 0.0
C1683 C 0.49877 0.99742 0.90451 0.0
C1684 C 0.5115 0.01489 0.94125 0.0
C1685 C 0.50129 0.99789 0.95423 0.0
C1686 C 0.49057 0.9805 0.94207 0.0
H1687 H 0.478 0.96958 0.10228 0.0
H1688 H 0.47627 0.97026 0.05903 0.0
C1689 C 0.48944 0.98024 0.91733 0.0
C1690 C 0.50042 0.9987 0.9804 0.0
H1691 H 0.50843 0.98129 0.03153 0.0
C1692 C 0.49345 0.00997 0.99043 0.0
C1693 C 0.50604 0.98835 0.99539 0.0
C1694 C 0.51439 0.97667 0.98574 0.0
C1695 C 0.4916 0.01089 0.01504 0.0
C1696 C 0.49706 1.0004 0.03 0.0
C1697 C 0.50413 0.98922 0.01999 0.0
C1698 C 0.49568 1.00076 0.05614 0.0
C1699 C 0.48342 0.02269 0.02477 0.0
C1700 C 0.50661 0.01781 0.06889 0.0
C1701 C 0.50742 0.01746 0.09364 0.0
C1702 C 0.4975 1.00002 0.10584 0.0
C1703 C 0.48572 0.98319 0.09316 0.0
C1704 C 0.48482 0.98356 0.06852 0.0
H1705 H 0.47546 0.02576 0.01103 0.0
H1706 H 0.47367 0.01532 0.03987 0.0
H1707 H 0.49528 0.03656 0.03124 0.0
H1708 H 0.51534 0.03119 0.05968 0.0
H1709 H 0.51681 0.03054 0.10308 0.0
H1710 H 0.9719 0.48331 0.10114 0.0
H1711 H 0.97019 0.47972 0.05784 0.0
H1712 H 0.03154 0.51532 0.05358 0.0
H1713 H 0.03334 0.51834 0.09657 0.0
H1714 H 0.98088 0.50902 0.02662 0.0
H1715 H 0.02302 0.47351 0.00841 0.0
H1716 H 0.01453 0.47434 0.03769 0.0
H1717 H 0.03598 0.49451 0.02628 0.0
C1718 C 0.98504 0.48981 0.09098 0.0
C1719 C 0.00275 0.50116 0.10223 0.0
C1720 C 0.98405 0.48792 0.06623 0.0
C1721 C 1.00075 0.49715 0.05238 0.0
C1722 C 0.01848 0.50773 0.06378 0.0
H1723 H 0.02812 0.51781 0.90201 0.0
H1724 H 0.02886 0.52004 0.94543 0.0
C1725 C 0.01948 0.50958 0.08839 0.0
C1726 C 0.99967 0.49727 0.02605 0.0
H1727 H 0.01775 0.48903 0.97555 0.0
C1728 C 0.98878 0.50446 0.01545 0.0
C1729 C 0.01013 0.49151 0.01142 0.0
C1730 C 0.02142 0.48286 0.02153 0.0
C1731 C 0.9884 0.50642 0.99074 0.0
C1732 C 0.99899 0.50081 0.97615 0.0
C1733 C 0.0098 0.49354 0.98673 0.0
C1734 C 0.99834 0.50143 0.94983 0.0
C1735 C 0.977 0.51491 0.98054 0.0
C1736 C 0.98093 0.49057 0.93786 0.0
C1737 C 0.98047 0.48942 0.91316 0.0
C1738 C 0.99745 0.49892 0.89985 0.0
C1739 C 0.0148 0.51047 0.91175 0.0
C1740 C 0.01525 0.51161 0.93655 0.0
H1741 H 0.97463 0.52365 0.99385 0.0
H1742 H 0.98426 0.52399 0.96489 0.0
H1743 H 0.96277 0.50316 0.97486 0.0
H1744 H 0.96775 0.48233 0.94764 0.0
H1745 H 0.96687 0.48049 0.90448 0.0
H1746 H 0.49546 0.52338 0.09519 0.0
H1747 H 0.49657 0.52521 0.05176 0.0
H1748 H 0.5101 0.47987 0.04923 0.0
H1749 H 0.50917 0.47816 0.09275 0.0
H1750 H 0.52636 0.52887 0.01625 0.0
H1751 H 0.45697 0.46041 0.01344 0.0
H1752 H 0.4655 0.47501 0.03976 0.0
H1753 H 0.4757 0.46066 0.03102 0.0
C1754 C 0.49922 0.51423 0.0853 0.0
C1755 C 0.50234 0.50071 0.09711 0.0
C1756 C 0.49977 0.51521 0.06059 0.0
C1757 C 0.50314 0.50249 0.04736 0.0
C1758 C 0.50733 0.4897 0.05919 0.0
H1759 H 0.49972 0.47562 0.89928 0.0
H1760 H 0.49774 0.47477 0.94265 0.0
C1761 C 0.50698 0.48885 0.08395 0.0
C1762 C 0.50084 0.50166 0.0213 0.0
H1763 H 0.47138 0.47394 0.97671 0.0
C1764 C 0.51434 0.51691 0.00756 0.0
C1765 C 0.48507 0.48605 0.01013 0.0
C1766 C 0.46985 0.46962 0.02426 0.0
C1767 C 0.51272 0.51677 0.98277 0.0
C1768 C 0.49692 0.50115 0.97156 0.0
C1769 C 0.48338 0.48594 0.98537 0.0
C1770 C 0.49484 0.49995 0.94542 0.0
C1771 C 0.52822 0.53306 0.96873 0.0
C1772 C 0.49281 0.51376 0.93261 0.0
C1773 C 0.49371 0.5141 0.90784 0.0
C1774 C 0.49658 0.50059 0.89566 0.0
C1775 C 0.49724 0.486 0.9084 0.0
C1776 C 0.49626 0.48561 0.93311 0.0
H1777 H 0.54134 0.54165 0.97946 0.0
H1778 H 0.53207 0.52763 0.95282 0.0
H1779 H 0.52294 0.54268 0.9627 0.0
H1780 H 0.4914 0.52477 0.94179 0.0
H1781 H 0.49348 0.52565 0.89832 0.0
H1782 H 0.31185 0.24687 0.31369 0.0
H1783 H 0.29069 0.25768 0.29778 0.0
H1784 H 0.31922 0.30882 0.34029 0.0
H1785 H 0.34012 0.29764 0.35698 0.0
H1786 H 0.26838 0.27881 0.32302 0.0
H1787 H 0.32989 0.31788 0.26121 0.0
H1788 H 0.32637 0.29632 0.27538 0.0
H1789 H 0.33339 0.31738 0.29274 0.0
C1790 C 0.31301 0.25999 0.3204 0.0
C1791 C 0.32748 0.27148 0.33643 0.0
C1792 C 0.30098 0.26615 0.31133 0.0
C1793 C 0.30359 0.28406 0.31779 0.0
C1794 C 0.317 0.2949 0.33529 0.0
H1795 H 0.2378 0.31991 0.22827 0.0
H1796 H 0.26051 0.32307 0.25906 0.0
C1797 C 0.32882 0.28849 0.34482 0.0
C1798 C 0.29453 0.29231 0.30301 0.0
H1799 H 0.29962 0.31201 0.24814 0.0
C1800 C 0.27531 0.28665 0.30702 0.0
C1801 C 0.30374 0.30245 0.28217 0.0
C1802 C 0.32451 0.30898 0.27746 0.0
C1803 C 0.26464 0.28976 0.28979 0.0
C1804 C 0.27345 0.29843 0.26811 0.0
C1805 C 0.29299 0.30528 0.2648 0.0
C1806 C 0.26196 0.29825 0.24779 0.0
C1807 C 0.2437 0.28264 0.29407 0.0
C1808 C 0.2558 0.28354 0.23098 0.0
C1809 C 0.24285 0.28166 0.21334 0.0
C1810 C 0.23601 0.29458 0.21221 0.0
C1811 C 0.24301 0.30988 0.22845 0.0
C1812 C 0.25588 0.31167 0.24614 0.0
H1813 H 0.23904 0.2763 0.31199 0.0
H1814 H 0.24081 0.29466 0.29214 0.0
H1815 H 0.23497 0.27169 0.28061 0.0
H1816 H 0.26046 0.27309 0.23211 0.0
H1817 H 0.23779 0.26985 0.20099 0.0
H1818 H 0.69746 0.04793 0.34047 0.0
H1819 H 0.68113 0.01542 0.32413 0.0
H1820 H 0.73564 0.01846 0.31503 0.0
H1821 H 0.75193 0.05111 0.33052 0.0
H1822 H 0.69476 0.01699 0.27603 0.0
H1823 H 0.6967 0.96029 0.32881 0.0
H1824 H 0.69589 0.9803 0.34206 0.0
H1825 H 0.71818 0.98314 0.3315 0.0
C1826 C 0.70579 0.04116 0.33619 0.0
C1827 C 0.72585 0.05176 0.33671 0.0
C1828 C 0.69647 0.02266 0.32686 0.0
C1829 C 0.70719 0.01457 0.31849 0.0
C1830 C 0.72711 0.02435 0.3218 0.0
H1831 H 0.73552 0.95844 0.22443 0.0
H1832 H 0.72849 0.97489 0.25508 0.0
C1833 C 0.73644 0.04298 0.33061 0.0
C1834 C 0.69901 0.99913 0.30074 0.0
H1835 H 0.69955 0.95855 0.28618 0.0
C1836 C 0.69513 0.00383 0.27826 0.0
C1837 C 0.69939 0.98203 0.30391 0.0
C1838 C 0.70258 0.97601 0.32795 0.0
C1839 C 0.6942 0.99316 0.25821 0.0
C1840 C 0.69664 0.9771 0.26105 0.0
C1841 C 0.69808 0.97111 0.28398 0.0
C1842 C 0.70097 0.96827 0.24077 0.0
C1843 C 0.69248 1.00027 0.23411 0.0
C1844 C 0.68821 0.95981 0.22182 0.0
C1845 C 0.69262 0.95103 0.20345 0.0
C1846 C 0.70957 0.95001 0.20412 0.0
C1847 C 0.72252 0.95914 0.22281 0.0
C1848 C 0.71832 0.96825 0.24075 0.0
H1849 H 0.69404 0.01474 0.23492 0.0
H1850 H 0.70348 0.00081 0.22184 0.0
H1851 H 0.67818 0.99033 0.22657 0.0
H1852 H 0.67467 0.95953 0.22151 0.0
H1853 H 0.68242 0.94452 0.18916 0.0
H1854 H 0.92908 0.64949 0.29991 0.0
H1855 H 0.9536 0.66718 0.27008 0.0
H1856 H 0.99409 0.69927 0.32521 0.0
H1857 H 0.96957 0.682 0.35514 0.0
H1858 H 0.99219 0.72194 0.29176 0.0
H1859 H 1.00047 0.66467 0.24913 0.0
H1860 H 0.97605 0.65929 0.25031 0.0
H1861 H 0.98878 0.66154 0.27738 0.0
C1862 C 0.94325 0.66021 0.30569 0.0
C1863 C 0.94736 0.66445 0.32985 0.0
C1864 C 0.95729 0.67014 0.28864 0.0
C1865 C 0.97572 0.68427 0.29548 0.0
C1866 C 0.97996 0.68831 0.3196 0.0
H1867 H 0.07622 0.75692 0.21334 0.0
H1868 H 0.05274 0.73112 0.23806 0.0
C1869 C 0.96591 0.6785 0.33665 0.0
C1870 C 0.98998 0.69617 0.27746 0.0
H1871 H 0.01366 0.69451 0.22821 0.0
C1872 C 0.99695 0.71594 0.27797 0.0
C1873 C 0.99632 0.6883 0.25966 0.0
C1874 C 0.99018 0.66731 0.25917 0.0
C1875 C 0.00973 0.72803 0.26078 0.0
C1876 C 0.01534 0.72007 0.24235 0.0
C1877 C 0.00888 0.7004 0.24213 0.0
C1878 C 0.02856 0.73242 0.22385 0.0
C1879 C 0.01727 0.7493 0.26246 0.0
C1880 C 0.02251 0.74111 0.2071 0.0
C1881 C 0.03587 0.75584 0.19276 0.0
C1882 C 0.05546 0.76205 0.19506 0.0
C1883 C 0.06124 0.75236 0.21084 0.0
C1884 C 0.04787 0.73762 0.22506 0.0
H1885 H 0.014 0.75344 0.27986 0.0
H1886 H 0.033 0.75736 0.25975 0.0
H1887 H 0.01064 0.75366 0.24836 0.0
H1888 H 0.00757 0.73715 0.20599 0.0
H1889 H 0.03097 0.76281 0.18053 0.0
H1890 H 0.76591 0.68483 0.77351 0.0
H1891 H 0.7437 0.68272 0.74258 0.0
H1892 H 0.7359 0.72535 0.7789 0.0
H1893 H 0.75862 0.72795 0.80954 0.0
H1894 H 0.70683 0.67437 0.74045 0.0
H1895 H 0.75489 0.74966 0.71468 0.0
H1896 H 0.76224 0.73712 0.73475 0.0
H1897 H 0.74872 0.74786 0.74543 0.0
C1898 C 0.75919 0.69352 0.77508 0.0
C1899 C 0.76406 0.7067 0.79375 0.0
C1900 C 0.74659 0.69234 0.75737 0.0
C1901 C 0.73863 0.70428 0.75812 0.0
C1902 C 0.74242 0.71647 0.77763 0.0
H1903 H 0.64535 0.70701 0.70867 0.0
H1904 H 0.66757 0.69746 0.7236 0.0
C1905 C 0.75525 0.71787 0.79517 0.0
C1906 C 0.72696 0.70463 0.73816 0.0
H1907 H 0.72208 0.73563 0.70184 0.0
C1908 C 0.7103 0.68769 0.73171 0.0
C1909 C 0.73192 0.72182 0.72599 0.0
C1910 C 0.75055 0.74008 0.73037 0.0
C1911 C 0.69757 0.68793 0.71498 0.0
C1912 C 0.70147 0.70559 0.70499 0.0
C1913 C 0.71897 0.72212 0.70977 0.0
C1914 C 0.68648 0.70805 0.69329 0.0
C1915 C 0.67976 0.66943 0.70872 0.0
C1916 C 0.68974 0.71722 0.67123 0.0
C1917 C 0.67701 0.72283 0.66266 0.0
C1918 C 0.66116 0.71969 0.67633 0.0
C1919 C 0.65761 0.70988 0.69792 0.0
C1920 C 0.67013 0.70409 0.7063 0.0
H1921 H 0.68235 0.65717 0.70994 0.0
H1922 H 0.66824 0.66681 0.72148 0.0
H1923 H 0.6747 0.66992 0.69058 0.0
H1924 H 0.70244 0.72061 0.66109 0.0
H1925 H 0.67999 0.7303 0.64591 0.0
H1926 H 0.30293 0.95626 0.65543 0.0
H1927 H 0.31731 0.98777 0.67468 0.0
H1928 H 0.26116 0.97631 0.69551 0.0
H1929 H 0.24691 0.94469 0.67707 0.0
H1930 H 0.29985 0.02086 0.67961 0.0
H1931 H 0.30248 0.97669 0.75379 0.0
H1932 H 0.30778 0.97363 0.72357 0.0
H1933 H 0.2835 0.96509 0.73238 0.0
C1934 C 0.29366 0.96097 0.66305 0.0
C1935 C 0.27386 0.94831 0.66474 0.0
C1936 C 0.30188 0.97887 0.6741 0.0
C1937 C 0.29023 0.98419 0.68652 0.0
C1938 C 0.27029 0.97238 0.68586 0.0
H1939 H 0.26687 0.05042 0.77189 0.0
H1940 H 0.27327 0.0329 0.74183 0.0
C1941 C 0.26215 0.95442 0.67526 0.0
C1942 C 0.2984 0.99974 0.70408 0.0
H1943 H 0.30179 0.00477 0.76408 0.0
C1944 C 0.30088 0.01765 0.69802 0.0
C1945 C 0.30021 0.99561 0.72795 0.0
C1946 C 0.29848 0.97676 0.73498 0.0
C1947 C 0.30335 0.03092 0.71566 0.0
C1948 C 0.30245 0.02568 0.73978 0.0
C1949 C 0.30209 0.00862 0.74561 0.0
C1950 C 0.29876 0.03605 0.75876 0.0
C1951 C 0.30603 0.05008 0.70835 0.0
C1952 C 0.31021 0.0425 0.77915 0.0
C1953 C 0.30622 0.0521 0.79691 0.0
C1954 C 0.29067 0.05533 0.79455 0.0
C1955 C 0.27881 0.04804 0.77455 0.0
C1956 C 0.28273 0.0384 0.75699 0.0
H1957 H 0.31393 0.05484 0.69131 0.0
H1958 H 0.29182 0.0488 0.70565 0.0
H1959 H 0.31396 0.06119 0.722 0.0
H1960 H 0.32239 0.0404 0.78113 0.0
H1961 H 0.31551 0.05729 0.81225 0.0
H1962 H 0.97194 0.24067 0.82676 0.0
H1963 H 0.9977 0.26777 0.80549 0.0
H1964 H 0.95591 0.27189 0.76204 0.0
H1965 H 0.93025 0.24508 0.78327 0.0
H1966 H 0.00301 0.26478 0.75934 0.0
H1967 H 0.99408 0.3278 0.77269 0.0
H1968 H 0.98285 0.30702 0.79169 0.0
H1969 H 0.97225 0.30707 0.76366 0.0
C1970 C 0.96829 0.24764 0.81299 0.0
C1971 C 0.94912 0.2407 0.80658 0.0
C1972 C 0.98297 0.26317 0.80097 0.0
C1973 C 0.97872 0.27197 0.78234 0.0
C1974 C 0.95954 0.26568 0.77674 0.0
H1975 H 0.03902 0.31502 0.65254 0.0
H1976 H 0.01688 0.29783 0.68478 0.0
C1977 C 0.94487 0.25026 0.78884 0.0
C1978 C 0.99409 0.28541 0.76632 0.0
H1979 H 0.01208 0.32846 0.73813 0.0
C1980 C 0.00521 0.27885 0.75505 0.0
C1981 C 0.99693 0.30374 0.7607 0.0
C1982 C 0.98601 0.3119 0.77301 0.0
C1983 C 0.01861 0.28978 0.7377 0.0
C1984 C 0.02073 0.30764 0.73117 0.0
C1985 C 0.01021 0.31463 0.74304 0.0
C1986 C 0.03348 0.31885 0.71152 0.0
C1987 C 0.03024 0.28202 0.72628 0.0
C1988 C 0.04984 0.3366 0.71586 0.0
C1989 C 0.06255 0.3465 0.69745 0.0
C1990 C 0.05902 0.3388 0.67443 0.0
C1991 C 0.04231 0.32124 0.67011 0.0
C1992 C 0.02962 0.3114 0.68848 0.0
H1993 H 0.03055 0.2708 0.73736 0.0
H1994 H 0.02373 0.2755 0.70897 0.0
H1995 H 0.04517 0.2936 0.72306 0.0
H1996 H 0.05297 0.34257 0.73356 0.0
H1997 H 0.07521 0.36009 0.7013 0.0
H1998 H 0.97363 0.5803 0.65599 0.0
H1999 H 0.95439 0.59286 0.63852 0.0
H2000 H 0.99443 0.64919 0.66459 0.0
H2001 H 0.01344 0.63643 0.68289 0.0
H2002 H 0.94443 0.6289 0.65868 0.0
H2003 H 0.99289 0.63806 0.58352 0.0
H2004 H 0.98623 0.61795 0.60291 0.0
H2005 H 1.00078 0.64181 0.61399 0.0
C2006 C 0.97773 0.59512 0.65905 0.0
C2007 C 0.9948 0.60742 0.67082 0.0
C2008 C 0.96682 0.60229 0.64904 0.0
C2009 C 0.97314 0.62192 0.65021 0.0
C2010 C 0.98931 0.63398 0.66375 0.0
H2011 H 0.92441 0.64813 0.52662 0.0
H2012 H 0.94761 0.65452 0.55822 0.0
C2013 C 1.00006 0.62668 0.67423 0.0
C2014 C 0.96483 0.62977 0.6335 0.0
H2015 H 0.96304 0.63532 0.57395 0.0
C2016 C 0.94874 0.63087 0.64024 0.0
C2017 C 0.97086 0.63286 0.60963 0.0
C2018 C 0.98872 0.63276 0.60194 0.0
C2019 C 0.93748 0.6333 0.62317 0.0
C2020 C 0.94205 0.63371 0.59886 0.0
C2021 C 0.95928 0.63461 0.5925 0.0
C2022 C 0.92805 0.63051 0.5799 0.0
C2023 C 0.92047 0.63476 0.63134 0.0
C2024 C 0.90962 0.6145 0.58112 0.0
C2025 C 0.89627 0.61097 0.56337 0.0
C2026 C 0.90115 0.62311 0.54358 0.0
C2027 C 0.91999 0.63865 0.54179 0.0
C2028 C 0.9333 0.64234 0.55983 0.0
H2029 H 0.92346 0.64224 0.64866 0.0
H2030 H 0.91653 0.64252 0.61832 0.0
H2031 H 0.90806 0.62016 0.63388 0.0
H2032 H 0.90546 0.60468 0.59591 0.0
H2033 H 0.88192 0.59903 0.56568 0.0
H2034 H 0.4228 0.39384 0.65048 0.0
H2035 H 0.40921 0.36132 0.63503 0.0
H2036 H 0.35409 0.34699 0.66355 0.0
H2037 H 0.36793 0.37951 0.6799 0.0
H2038 H 0.37436 0.31654 0.65723 0.0
H2039 H 0.36139 0.3537 0.58254 0.0
H2040 H 0.38197 0.36784 0.60098 0.0
H2041 H 0.3584 0.35815 0.61315 0.0
C2042 C 0.40807 0.38343 0.65455 0.0
C2043 C 0.39638 0.38895 0.66638 0.0
C2044 C 0.4003 0.36492 0.6457 0.0
C2045 C 0.38068 0.35193 0.64807 0.0
C2046 C 0.3693 0.35684 0.66179 0.0
H2047 H 0.35367 0.27654 0.52536 0.0
H2048 H 0.34683 0.29272 0.55725 0.0
C2049 C 0.37721 0.37532 0.67114 0.0
C2050 C 0.37205 0.33532 0.63209 0.0
H2051 H 0.36474 0.32697 0.57288 0.0
C2052 C 0.37163 0.31845 0.63891 0.0
C2053 C 0.36796 0.33769 0.60841 0.0
C2054 C 0.36729 0.35525 0.6007 0.0
C2055 C 0.36901 0.30462 0.62199 0.0
C2056 C 0.36782 0.30837 0.5977 0.0
C2057 C 0.36609 0.32425 0.59139 0.0
C2058 C 0.37121 0.29779 0.57864 0.0
C2059 C 0.36829 0.2865 0.63026 0.0
C2060 C 0.38756 0.29591 0.57956 0.0
C2061 C 0.39131 0.28639 0.56168 0.0
C2062 C 0.37909 0.27891 0.54199 0.0
C2063 C 0.36321 0.28171 0.54045 0.0
C2064 C 0.35927 0.29099 0.55867 0.0
H2065 H 0.36104 0.28197 0.64772 0.0
H2066 H 0.36065 0.27462 0.61743 0.0
H2067 H 0.38309 0.28918 0.6326 0.0
H2068 H 0.39749 0.3018 0.59422 0.0
H2069 H 0.40352 0.28438 0.56381 0.0
H2070 H 0.60086 0.01261 0.63741 0.0
H2071 H 0.62824 0.02729 0.61061 0.0
H2072 H 0.66427 0.02401 0.66463 0.0
H2073 H 0.63688 0.00931 0.69181 0.0
H2074 H 0.67765 0.06153 0.63619 0.0
H2075 H 0.65403 0.9956 0.58294 0.0
H2076 H 0.63532 1.00018 0.592 0.0
H2077 H 0.64835 0.99524 0.61399 0.0
C2078 C 0.61463 0.01513 0.64366 0.0
C2079 C 0.61676 0.00974 0.66656 0.0
C2080 C 0.63017 0.02339 0.62834 0.0
C2081 C 0.64798 0.02621 0.63563 0.0
C2082 C 0.65048 0.02167 0.65878 0.0
H2083 H 0.74572 0.08864 0.54283 0.0
H2084 H 0.72577 0.06423 0.57128 0.0
C2085 C 0.6349 0.01345 0.67424 0.0
C2086 C 0.66383 0.03421 0.61869 0.0
H2087 H 0.67541 0.02538 0.56391 0.0
C2088 C 0.67759 0.05358 0.62067 0.0
C2089 C 0.6636 0.02359 0.59869 0.0
C2090 C 0.64965 0.00243 0.59675 0.0
C2091 C 0.69023 0.06308 0.60205 0.0
C2092 C 0.6889 0.05282 0.58118 0.0
C2093 C 0.6761 0.03313 0.5799 0.0
C2094 C 0.69962 0.06301 0.56002 0.0
C2095 C 0.70413 0.08429 0.60409 0.0
C2096 C 0.69116 0.06956 0.54359 0.0
C2097 C 0.70249 0.08348 0.52702 0.0
C2098 C 0.72238 0.09099 0.52685 0.0
C2099 C 0.73043 0.08306 0.54213 0.0
C2100 C 0.7191 0.06912 0.55854 0.0
H2101 H 0.70305 0.0902 0.62141 0.0
H2102 H 0.71898 0.08708 0.60194 0.0
H2103 H 0.70143 0.09205 0.58973 0.0
H2104 H 0.67605 0.06489 0.54469 0.0
H2105 H 0.69586 0.08909 0.51527 0.0
H2106 H 0.33327 0.07038 0.03201 0.0
H2107 H 0.34884 0.06064 0.06162 0.0
H2108 H 0.35081 0.02133 0.0114 0.0
H2109 H 0.33631 0.03195 0.9813 0.0
H2110 H 0.33803 0.02713 0.0819 0.0
H2111 H 0.40521 0.04964 0.03143 0.0
H2112 H 0.38763 0.05575 0.02189 0.0
H2113 H 0.3839 0.03211 0.01675 0.0
C2114 C 0.33722 0.05981 0.02729 0.0
C2115 C 0.33387 0.05207 0.0044 0.0
C2116 C 0.34599 0.05417 0.04419 0.0
C2117 C 0.35121 0.04044 0.03862 0.0
C2118 C 0.34741 0.03233 0.01589 0.0
H2119 H 0.42089 0.01046 0.12522 0.0
H2120 H 0.39463 0.00537 0.09949 0.0
C2121 C 0.3391 0.03836 0.99876 0.0
C2122 C 0.36085 0.035 0.0567 0.0
H2123 H 0.40277 0.03616 0.06888 0.0
C2124 C 0.35214 0.02899 0.07902 0.0
C2125 C 0.37917 0.03722 0.05279 0.0
C2126 C 0.38962 0.04418 0.02951 0.0
C2127 C 0.36163 0.02594 0.09784 0.0
C2128 C 0.38021 0.02898 0.09412 0.0
C2129 C 0.38847 0.0339 0.07154 0.0
C2130 C 0.39229 0.02898 0.11365 0.0
C2131 C 0.35194 0.01987 0.12161 0.0
C2132 C 0.39922 0.04363 0.13063 0.0
C2133 C 0.41428 0.0466 0.14555 0.0
C2134 C 0.42258 0.03497 0.14358 0.0
C2135 C 0.41468 0.01953 0.12754 0.0
C2136 C 0.39968 0.01659 0.11271 0.0
H2137 H 0.33617 0.01333 0.12003 0.0
H2138 H 0.35522 0.00949 0.13028 0.0
H2139 H 0.3573 0.03262 0.13324 0.0
H2140 H 0.39384 0.05352 0.1313 0.0
H2141 H 0.41994 0.05847 0.15788 0.0
H2142 H 0.93935 0.36394 0.15882 0.0
H2143 H 0.94085 0.34048 0.13273 0.0
H2144 H 0.99003 0.38572 0.09745 0.0
H2145 H 0.98846 0.40926 0.12283 0.0
H2146 H 0.94087 0.35303 0.07871 0.0
H2147 H 0.99595 0.33401 0.10483 0.0
H2148 H 0.98294 0.33904 0.12704 0.0
H2149 H 1.00018 0.35802 0.10888 0.0
C2150 C 0.95076 0.36883 0.1459 0.0
C2151 C 0.96356 0.38844 0.14264 0.0
C2152 C 0.95172 0.35543 0.13123 0.0
C2153 C 0.96557 0.36151 0.11335 0.0
C2154 C 0.97943 0.38085 0.11144 0.0
H2155 H 0.95096 0.30239 0.97877 0.0
H2156 H 0.95976 0.32754 0.00845 0.0
C2157 C 0.97847 0.39425 0.12601 0.0
C2158 C 0.96285 0.34855 0.09367 0.0
H2159 H 0.97725 0.31873 0.07097 0.0
C2160 C 0.94883 0.34554 0.07689 0.0
C2161 C 0.97359 0.33924 0.0914 0.0
C2162 C 0.98906 0.34264 0.10892 0.0
C2163 C 0.94472 0.3328 0.05811 0.0
C2164 C 0.95499 0.32295 0.05621 0.0
C2165 C 0.96942 0.32636 0.07266 0.0
C2166 C 0.94995 0.30804 0.03821 0.0
C2167 C 0.92904 0.32951 0.04091 0.0
C2168 C 0.94155 0.28889 0.0453 0.0
C2169 C 0.93654 0.27454 0.02849 0.0
C2170 C 0.93987 0.27917 0.00434 0.0
C2171 C 0.94803 0.29839 0.99725 0.0
C2172 C 0.95315 0.31276 0.01413 0.0
H2173 H 0.92069 0.33626 0.04692 0.0
H2174 H 0.93545 0.33571 0.02345 0.0
H2175 H 0.91911 0.31395 0.0384 0.0
H2176 H 0.93886 0.28506 0.06386 0.0
H2177 H 0.93026 0.25985 0.03444 0.0
H2178 H 0.61545 0.5475 0.0976 0.0
H2179 H 0.63435 0.57251 0.06913 0.0
H2180 H 0.63098 0.61418 0.11358 0.0
H2181 H 0.61321 0.58945 0.14316 0.0
H2182 H 0.62506 0.59519 0.04364 0.0
H2183 H 0.68742 0.63932 0.10223 0.0
H2184 H 0.6689 0.61563 0.11042 0.0
H2185 H 0.66487 0.63556 0.11291 0.0
C2186 C 0.61921 0.56206 0.10178 0.0
C2187 C 0.61297 0.56645 0.12288 0.0
C2188 C 0.62971 0.57629 0.08522 0.0
C2189 C 0.63409 0.59519 0.08924 0.0
C2190 C 0.62796 0.59972 0.11026 0.0
H2191 H 0.71685 0.69201 0.00896 0.0
H2192 H 0.68497 0.6722 0.02589 0.0
C2193 C 0.6177 0.58552 0.12708 0.0
C2194 C 0.64552 0.61003 0.07151 0.0
H2195 H 0.6892 0.64959 0.06319 0.0
C2196 C 0.63902 0.60723 0.04792 0.0
C2197 C 0.66363 0.62579 0.07721 0.0
C2198 C 0.67173 0.62924 0.102 0.0
C2199 C 0.65062 0.61926 0.0297 0.0
C2200 C 0.66899 0.6344 0.03536 0.0
C2201 C 0.67499 0.63792 0.05905 0.0
C2202 C 0.68348 0.64539 0.01723 0.0
C2203 C 0.64348 0.61551 0.00452 0.0
C2204 C 0.69259 0.63676 0.00554 0.0
C2205 C 0.71086 0.64808 0.99595 0.0
C2206 C 0.71995 0.66801 0.99805 0.0
C2207 C 0.70993 0.67659 0.00723 0.0
C2208 C 0.69173 0.66533 0.01676 0.0
H2209 H 0.62771 0.60604 0.00364 0.0
H2210 H 0.64749 0.62917 0.9953 0.0
H2211 H 0.65027 0.60846 0.99489 0.0
H2212 H 0.68653 0.62138 0.0061 0.0
H2213 H 0.71852 0.64128 0.98906 0.0
H2214 H 0.68962 0.97518 1.00078 0.0
H2215 H 0.67041 0.9877 0.98288 0.0
H2216 H 0.62085 0.93106 0.98449 0.0
H2217 H 0.64012 0.91858 0.00216 0.0
H2218 H 0.65575 0.97118 0.93848 0.0
H2219 H 0.59813 0.96653 0.99581 0.0
H2220 H 0.62007 0.96881 0.00745 0.0
H2221 H 0.60086 0.94583 0.99827 0.0
C2222 C 0.67439 0.96566 0.99834 0.0
C2223 C 0.66617 0.94601 0.00283 0.0
C2224 C 0.66348 0.9728 0.98814 0.0
C2225 C 0.64422 0.96033 0.9825 0.0
C2226 C 0.63559 0.94099 0.98916 0.0
H2227 H 0.55369 0.9279 0.89183 0.0
H2228 H 0.57799 0.93463 0.92143 0.0
C2229 C 0.64656 0.93383 0.99918 0.0
C2230 C 0.63448 0.96603 0.9649 0.0
H2231 H 0.59144 0.96255 0.95367 0.0
C2232 C 0.64188 0.96983 0.9418 0.0
C2233 C 0.61656 0.96439 0.96944 0.0
C2234 C 0.60851 0.96136 0.99416 0.0
C2235 C 0.63089 0.96991 0.92262 0.0
C2236 C 0.6122 0.96658 0.9269 0.0
C2237 C 0.60563 0.96473 0.95036 0.0
C2238 C 0.59835 0.96249 0.90747 0.0
C2239 C 0.63884 0.97199 0.89791 0.0
C2240 C 0.60197 0.97563 0.88917 0.0
C2241 C 0.58832 0.97145 0.87144 0.0
C2242 C 0.57053 0.95431 0.87213 0.0
C2243 C 0.56726 0.94105 0.89025 0.0
C2244 C 0.58104 0.94505 0.90757 0.0
H2245 H 0.65177 0.97045 0.89753 0.0
H2246 H 0.62798 0.96118 0.8858 0.0
H2247 H 0.64296 0.98641 0.891 0.0
H2248 H 0.61512 0.98929 0.88884 0.0
H2249 H 0.59155 0.98191 0.85759 0.0
H2250 H 0.02408 0.6138 0.85366 0.0
H2251 H 0.0179 0.63272 0.88232 0.0
H2252 H 0.06271 0.63607 0.92726 0.0
H2253 H 0.06803 0.61605 0.89975 0.0
H2254 H 0.03068 0.62759 0.95245 0.0
H2255 H 0.0502 0.68937 0.89234 0.0
H2256 H 0.03121 0.66685 0.88185 0.0
H2257 H 0.05498 0.67044 0.8849 0.0
C2258 C 0.03261 0.61853 0.86966 0.0
C2259 C 0.04663 0.61343 0.8743 0.0
C2260 C 0.02914 0.62946 0.88593 0.0
C2261 C 0.03994 0.63588 0.90682 0.0
C2262 C 0.05419 0.6312 0.91125 0.0
H2263 H 0.0735 0.71847 0.01253 0.0
H2264 H 0.06281 0.68744 0.99329 0.0
C2265 C 0.05746 0.62004 0.89523 0.0
C2266 C 0.03679 0.64777 0.92409 0.0
H2267 H 0.04101 0.69161 0.93088 0.0
C2268 C 0.03276 0.64153 0.94775 0.0
C2269 C 0.03937 0.66586 0.91782 0.0
C2270 C 0.04433 0.67364 0.89291 0.0
C2271 C 0.03197 0.65329 0.96548 0.0
C2272 C 0.03532 0.67163 0.95928 0.0
C2273 C 0.03837 0.67744 0.93549 0.0
C2274 C 0.03785 0.68611 0.97701 0.0
C2275 C 0.02788 0.6462 0.99068 0.0
C2276 C 0.02694 0.69515 0.97494 0.0
C2277 C 0.03329 0.71294 0.98535 0.0
C2278 C 0.05042 0.72172 0.99825 0.0
C2279 C 0.06023 0.7118 0.00261 0.0
C2280 C 0.05402 0.69405 0.99183 0.0
H2281 H 0.02059 0.63033 0.99153 0.0
H2282 H 0.04157 0.65206 1.00052 0.0
H2283 H 0.01885 0.65108 0.99969 0.0
H2284 H 0.01447 0.68926 0.96354 0.0
H2285 H 0.02548 0.72041 0.98206 0.0
H2286 H 0.26215 0.32695 0.96578 0.0
H2287 H 0.28781 0.34449 0.93727 0.0
H2288 H 0.32862 0.36863 0.99433 0.0
H2289 H 0.30296 0.35137 0.02312 0.0
H2290 H 0.33168 0.39518 0.96142 0.0
H2291 H 0.32977 0.33305 0.91702 0.0
H2292 H 0.30663 0.33102 0.91899 0.0
H2293 H 0.31903 0.33137 0.94563 0.0
C2294 C 0.27658 0.33599 0.97228 0.0
C2295 C 0.28056 0.33775 0.99665 0.0
C2296 C 0.29123 0.34582 0.95597 0.0
C2297 C 0.31011 0.35739 0.96374 0.0
C2298 C 0.31412 0.35954 0.98806 0.0
H2299 H 0.41124 0.42501 0.87833 0.0
H2300 H 0.38859 0.40037 0.90503 0.0
C2301 C 0.29944 0.34979 0.00443 0.0
C2302 C 0.3254 0.36813 0.94637 0.0
H2303 H 0.34575 0.36298 0.89598 0.0
C2304 C 0.33493 0.38815 0.94729 0.0
C2305 C 0.32977 0.35885 0.92821 0.0
C2306 C 0.32092 0.33739 0.92749 0.0
C2307 C 0.34804 0.39918 0.92974 0.0
C2308 C 0.35142 0.38989 0.91075 0.0
C2309 C 0.34267 0.36992 0.91038 0.0
C2310 C 0.364 0.40108 0.89119 0.0
C2311 C 0.35797 0.42072 0.93126 0.0
C2312 C 0.35736 0.40894 0.87405 0.0
C2313 C 0.37023 0.42298 0.85861 0.0
C2314 C 0.38987 0.42932 0.86023 0.0
C2315 C 0.39618 0.42031 0.87637 0.0
C2316 C 0.3833 0.40626 0.89172 0.0
H2317 H 0.35553 0.42568 0.94857 0.0
H2318 H 0.37361 0.427 0.92859 0.0
H2319 H 0.35256 0.42624 0.91699 0.0
H2320 H 0.34241 0.405 0.87355 0.0
H2321 H 0.36494 0.42945 0.84614 0.0
H2322 H 0.98267 0.36193 0.3349 0.0
H2323 H 0.00157 0.34992 0.35494 0.0
H2324 H 0.05064 0.40683 0.35449 0.0
H2325 H 0.03167 0.41889 0.33478 0.0
H2326 H 0.04885 0.36098 0.3501 0.0
H2327 H 0.02095 0.38417 0.42578 0.0
H2328 H 0.00766 0.37493 0.39861 0.0
H2329 H 0.02795 0.39866 0.39938 0.0
C2330 C 0.99777 0.37162 0.33802 0.0
C2331 C 0.0059 0.39125 0.33334 0.0
C2332 C 0.00849 0.36477 0.34944 0.0
C2333 C 0.02738 0.37756 0.35616 0.0
C2334 C 0.03608 0.3968 0.34919 0.0
H2335 H 0.12285 0.39719 0.43189 0.0
H2336 H 0.09764 0.39125 0.40373 0.0
C2337 C 0.02532 0.40367 0.33794 0.0
C2338 C 0.03657 0.37216 0.37473 0.0
H2339 H 0.04668 0.37893 0.43369 0.0
C2340 C 0.04817 0.36454 0.36846 0.0
C2341 C 0.03513 0.37634 0.39868 0.0
C2342 C 0.02218 0.38388 0.40621 0.0
C2343 C 0.05955 0.3623 0.38552 0.0
C2344 C 0.05959 0.36838 0.40905 0.0
C2345 C 0.04676 0.37448 0.41558 0.0
C2346 C 0.07458 0.37116 0.42618 0.0
C2347 C 0.07183 0.35399 0.37813 0.0
C2348 C 0.06985 0.36251 0.4486 0.0
C2349 C 0.08428 0.3662 0.46502 0.0
C2350 C 0.10359 0.37878 0.4593 0.0
C2351 C 0.10812 0.38771 0.43702 0.0
C2352 C 0.09376 0.38399 0.42068 0.0
H2353 H 0.0654 0.34408 0.36289 0.0
H2354 H 0.08607 0.36575 0.37251 0.0
H2355 H 0.0739 0.34616 0.39297 0.0
H2356 H 0.05506 0.35285 0.4533 0.0
H2357 H 0.08036 0.35914 0.48209 0.0
H2358 H 0.60725 0.69717 0.48927 0.0
H2359 H 0.60994 0.67558 0.46097 0.0
H2360 H 0.65786 0.72368 0.42759 0.0
H2361 H 0.65521 0.74531 0.45528 0.0
H2362 H 0.61661 0.69637 0.40238 0.0
H2363 H 0.65808 0.66427 0.43979 0.0
H2364 H 0.64258 0.66812 0.45927 0.0
H2365 H 0.66339 0.68826 0.44706 0.0
C2366 C 0.61862 0.70306 0.47627 0.0
C2367 C 0.63089 0.72291 0.4744 0.0
C2368 C 0.62026 0.69075 0.46032 0.0
C2369 C 0.63415 0.69819 0.44244 0.0
C2370 C 0.64724 0.71778 0.44155 0.0
H2371 H 0.62445 0.63789 0.30926 0.0
H2372 H 0.63378 0.66398 0.33773 0.0
C2373 C 0.64568 0.73007 0.45746 0.0
C2374 C 0.63249 0.68614 0.42218 0.0
H2375 H 0.64087 0.65077 0.40429 0.0
C2376 C 0.62209 0.68653 0.40253 0.0
C2377 C 0.63989 0.67364 0.42268 0.0
C2378 C 0.65172 0.67348 0.44324 0.0
C2379 C 0.61791 0.67382 0.38368 0.0
C2380 C 0.62452 0.66062 0.38464 0.0
C2381 C 0.63575 0.66089 0.40382 0.0
C2382 C 0.61849 0.64526 0.36705 0.0
C2383 C 0.60565 0.67391 0.36355 0.0
C2384 C 0.60679 0.62625 0.37424 0.0
C2385 C 0.6016 0.61138 0.35818 0.0
C2386 C 0.60797 0.61535 0.33465 0.0
C2387 C 0.61919 0.63447 0.32726 0.0
C2388 C 0.62456 0.64936 0.34345 0.0
H2389 H 0.59961 0.68337 0.36717 0.0
H2390 H 0.61439 0.67906 0.3472 0.0
H2391 H 0.59368 0.65919 0.36014 0.0
H2392 H 0.60188 0.62292 0.39239 0.0
H2393 H 0.59287 0.59677 0.36427 0.0
H2394 H 0.28078 0.92781 0.48014 0.0
H2395 H 0.29678 0.9522 0.44945 0.0
H2396 H 0.30152 0.9109 0.40581 0.0
H2397 H 0.28461 0.88635 0.43535 0.0
H2398 H 0.33094 0.96716 0.43112 0.0
H2399 H 0.28015 0.93195 0.35838 0.0
H2400 H 0.27415 0.92425 0.38876 0.0
H2401 H 0.28619 0.91515 0.37052 0.0
C2402 C 0.28512 0.92391 0.46391 0.0
C2403 C 0.28128 0.90504 0.4602 0.0
C2404 C 0.2942 0.93784 0.4464 0.0
C2405 C 0.29961 0.93314 0.42495 0.0
C2406 C 0.29672 0.91465 0.42179 0.0
H2407 H 0.38962 0.97216 0.34364 0.0
H2408 H 0.35726 0.95483 0.36006 0.0
C2409 C 0.2875 0.90072 0.43907 0.0
C2410 C 0.3098 0.9477 0.40643 0.0
H2411 H 0.31434 0.95139 0.34629 0.0
C2412 C 0.32696 0.96414 0.41261 0.0
C2413 C 0.30438 0.94405 0.38229 0.0
C2414 C 0.28506 0.92799 0.3747 0.0
C2415 C 0.33994 0.97562 0.39517 0.0
C2416 C 0.33567 0.97026 0.37114 0.0
C2417 C 0.31765 0.95517 0.36481 0.0
C2418 C 0.35122 0.97772 0.35365 0.0
C2419 C 0.35895 0.99234 0.40255 0.0
C2420 C 0.3578 0.9957 0.34325 0.0
C2421 C 0.37613 0.00541 0.33344 0.0
C2422 C 0.38793 0.99724 0.33434 0.0
C2423 C 0.38057 0.9785 0.34253 0.0
C2424 C 0.36216 0.96867 0.3519 0.0
H2425 H 0.35939 0.99556 0.42174 0.0
H2426 H 0.37055 0.98915 0.39863 0.0
H2427 H 0.36192 0.00529 0.39232 0.0
H2428 H 0.34956 0.0029 0.34472 0.0
H2429 H 0.38181 0.02004 0.32752 0.0
H2430 H 0.29869 0.17269 0.92691 0.0
H2431 H 0.28818 0.19229 0.9482 0.0
H2432 H 0.30675 0.17997 0.01415 0.0
H2433 H 0.31776 0.16086 0.99303 0.0
H2434 H 0.26061 0.17936 0.98522 0.0
H2435 H 0.33089 0.23847 0.01616 0.0
H2436 H 0.32883 0.2223 0.99275 0.0
H2437 H 0.32583 0.21465 0.02308 0.0
C2438 C 0.30081 0.17439 0.94589 0.0
C2439 C 0.30907 0.16518 0.95824 0.0
C2440 C 0.29471 0.18552 0.95805 0.0
C2441 C 0.29692 0.18781 0.98274 0.0
C2442 C 0.30521 0.17871 0.99508 0.0
H2443 H 0.26525 0.25593 0.07652 0.0
H2444 H 0.27789 0.23525 0.06292 0.0
C2445 C 0.31128 0.16758 0.98297 0.0
C2446 C 0.28962 0.19891 0.99567 0.0
H2447 H 0.30334 0.2391 0.02901 0.0
C2448 C 0.26996 0.19241 0.99481 0.0
C2449 C 0.30177 0.2157 0.00865 0.0
C2450 C 0.32303 0.22333 0.01016 0.0
C2451 C 0.26211 0.20236 0.00621 0.0
C2452 C 0.27434 0.21972 0.0182 0.0
C2453 C 0.29396 0.22588 0.01978 0.0
C2454 C 0.2672 0.23242 0.02706 0.0
C2455 C 0.24069 0.19401 0.00531 0.0
C2456 C 0.25753 0.23813 0.01141 0.0
C2457 C 0.24996 0.24931 0.01923 0.0
C2458 C 0.25234 0.25571 0.04283 0.0
C2459 C 0.26291 0.25092 0.05838 0.0
C2460 C 0.27017 0.23919 0.05058 0.0
H2461 H 0.23317 0.17816 0.00381 0.0
H2462 H 0.23531 0.19785 0.02126 0.0
H2463 H 0.23694 0.19953 0.9894 0.0
H2464 H 0.2558 0.23393 0.99295 0.0
H2465 H 0.24251 0.2533 0.00651 0.0
H2466 H 0.81048 0.14129 0.95414 0.0
H2467 H 0.79095 0.1116 0.97619 0.0
H2468 H 0.83937 0.10279 0.98088 0.0
H2469 H 0.85911 0.13293 0.95978 0.0
H2470 H 0.77964 0.07625 0.96735 0.0
H2471 H 0.82391 0.0947 0.04831 0.0
H2472 H 0.82815 0.11213 0.02565 0.0
H2473 H 0.83748 0.09608 0.02255 0.0
C2474 C 0.81691 0.13297 0.95987 0.0
C2475 C 0.83632 0.13944 0.95535 0.0
C2476 C 0.80577 0.11604 0.97257 0.0
C2477 C 0.81373 0.10509 0.98083 0.0
C2478 C 0.833 0.11125 0.97557 0.0
H2479 H 0.76225 0.9875 0.01979 0.0
H2480 H 0.78288 0.02064 0.00726 0.0
C2481 C 0.84424 0.12838 0.96326 0.0
C2482 C 0.80167 0.08688 0.99406 0.0
H2483 H 0.80035 0.06146 0.04335 0.0
C2484 C 0.78411 0.0732 0.98411 0.0
C2485 C 0.80728 0.08282 0.01616 0.0
C2486 C 0.82513 0.09731 0.0289 0.0
C2487 C 0.77247 0.05544 0.99511 0.0
C2488 C 0.77857 0.05109 0.01649 0.0
C2489 C 0.7958 0.06484 0.02686 0.0
C2490 C 0.76773 0.03175 0.0272 0.0
C2491 C 0.75385 0.04117 0.98362 0.0
C2492 C 0.75275 0.02714 0.04327 0.0
C2493 C 0.74096 0.00813 0.05069 0.0
C2494 C 0.7439 0.99346 0.04194 0.0
C2495 C 0.7596 0.99843 0.02689 0.0
C2496 C 0.77139 0.01736 0.01966 0.0
H2497 H 0.75067 0.04705 0.96756 0.0
H2498 H 0.75445 0.02818 0.97856 0.0
H2499 H 0.74193 0.0367 0.99642 0.0
H2500 H 0.74968 0.03808 0.04921 0.0
H2501 H 0.72885 0.00477 0.06201 0.0
H2502 H 0.86491 0.72614 0.97156 0.0
H2503 H 0.89543 0.73605 0.99132 0.0
H2504 H 0.8909 0.68195 0.97369 0.0
H2505 H 0.86033 0.67194 0.95385 0.0
H2506 H 0.904 0.71967 0.02944 0.0
H2507 H 0.94383 0.72023 0.94893 0.0
H2508 H 0.92084 0.71883 0.9474 0.0
H2509 H 0.92237 0.69795 0.95466 0.0
C2510 C 0.87036 0.71632 0.97191 0.0
C2511 C 0.86016 0.69825 0.96103 0.0
C2512 C 0.88784 0.72201 0.98321 0.0
C2513 C 0.89559 0.70984 0.98384 0.0
C2514 C 0.88542 0.69176 0.97307 0.0
H2515 H 0.99656 0.72861 0.06638 0.0
H2516 H 0.96321 0.71559 0.05346 0.0
C2517 C 0.86796 0.68607 0.96168 0.0
C2518 C 0.91431 0.71618 0.99571 0.0
H2519 H 0.9603 0.72676 0.98535 0.0
C2520 C 0.91629 0.72113 0.01984 0.0
C2521 C 0.93038 0.71815 0.98315 0.0
C2522 C 0.92939 0.71368 0.95707 0.0
C2523 C 0.93393 0.72815 0.03165 0.0
C2524 C 0.94997 0.73024 0.01903 0.0
C2525 C 0.94793 0.72506 0.99502 0.0
C2526 C 0.96938 0.73907 0.02977 0.0
C2527 C 0.93551 0.73387 0.05731 0.0
C2528 C 0.98377 0.7568 0.02131 0.0
C2529 C 0.00269 0.76431 0.02876 0.0
C2530 C 0.00776 0.75419 0.04476 0.0
C2531 C 0.99313 0.73692 0.05434 0.0
C2532 C 0.97408 0.72939 0.04684 0.0
H2533 H 0.92232 0.73345 0.06385 0.0
H2534 H 0.93814 0.72398 0.06824 0.0
H2535 H 0.94783 0.74853 0.05986 0.0
H2536 H 0.98047 0.76454 0.0082 0.0
H2537 H 0.01354 0.77762 0.02098 0.0
H2538 H 0.70556 0.83044 0.07729 0.0
H2539 H 0.71592 0.80985 0.05817 0.0
H2540 H 0.69626 0.81849 0.99077 0.0
H2541 H 0.68583 0.83893 0.00966 0.0
H2542 H 0.6951 0.77608 0.03209 0.0
H2543 H 0.75129 0.83291 0.97589 0.0
H2544 H 0.74097 0.8382 0.00109 0.0
H2545 H 0.72808 0.8307 0.97359 0.0
C2546 C 0.70334 0.82787 0.05843 0.0
C2547 C 0.69505 0.83654 0.04499 0.0
C2548 C 0.70935 0.81617 0.04749 0.0
C2549 C 0.70725 0.81294 0.02293 0.0
C2550 C 0.69855 0.82118 0.00961 0.0
H2551 H 0.73424 0.74072 0.93162 0.0
H2552 H 0.72169 0.7611 0.9461 0.0
C2553 C 0.69258 0.83288 0.02048 0.0
C2554 C 0.71392 0.80076 0.01126 0.0
H2555 H 0.74492 0.80131 0.96951 0.0
C2556 C 0.70599 0.78161 0.01842 0.0
C2557 C 0.72809 0.80794 0.9933 0.0
C2558 C 0.73776 0.8286 0.98559 0.0
C2559 C 0.71186 0.7695 0.00817 0.0
C2560 C 0.72615 0.77674 0.99043 0.0
C2561 C 0.73386 0.79577 0.98297 0.0
C2562 C 0.73431 0.76518 0.98093 0.0
C2563 C 0.70281 0.74902 0.01642 0.0
C2564 C 0.74595 0.76119 0.99547 0.0
C2565 C 0.75332 0.74987 0.98721 0.0
C2566 C 0.74914 0.7421 0.96418 0.0
C2567 C 0.73783 0.74652 0.94937 0.0
C2568 C 0.73058 0.75808 0.95765 0.0
H2569 H 0.68938 0.74454 0.02645 0.0
H2570 H 0.69961 0.73924 0.00112 0.0
H2571 H 0.71296 0.74745 0.02818 0.0
H2572 H 0.74917 0.76669 0.0134 0.0
H2573 H 0.7619 0.74679 0.99922 0.0
H2574 H 0.23452 0.0101 0.96704 0.0
H2575 H 0.21536 0.9774 0.98109 0.0
H2576 H 0.2526 0.9618 0.94491 0.0
H2577 H 0.27248 0.99496 0.93139 0.0
H2578 H 0.19512 0.94303 0.96158 0.0
H2579 H 0.25591 0.94613 0.0117 0.0
H2580 H 0.25733 0.96698 0.99796 0.0
H2581 H 0.25972 0.94972 0.98037 0.0
C2582 C 0.23857 0.99972 0.96169 0.0
C2583 C 0.25523 0.0053 0.94824 0.0
C2584 C 0.22755 0.98095 0.96982 0.0
C2585 C 0.23278 0.96719 0.96465 0.0
C2586 C 0.24859 0.97229 0.94976 0.0
H2587 H 0.16042 0.84677 0.00216 0.0
H2588 H 0.17972 0.87689 0.98117 0.0
C2589 C 0.25979 0.99121 0.94173 0.0
C2590 C 0.22196 0.94788 0.97576 0.0
H2591 H 0.22633 0.91737 0.01404 0.0
C2592 C 0.20199 0.93739 0.97291 0.0
C2593 C 0.23085 0.94059 0.9909 0.0
C2594 C 0.2521 0.95147 0.99565 0.0
C2595 C 0.19071 0.91999 0.98483 0.0
C2596 C 0.19963 0.91268 0.99975 0.0
C2597 C 0.21957 0.92302 0.00252 0.0
C2598 C 0.18839 0.89436 0.01274 0.0
C2599 C 0.16926 0.90979 0.98192 0.0
C2600 C 0.18717 0.89413 0.03757 0.0
C2601 C 0.17596 0.87688 0.04971 0.0
C2602 C 0.16585 0.85954 0.03721 0.0
C2603 C 0.1676 0.85987 0.01236 0.0
C2604 C 0.17871 0.87707 1.00029 0.0
H2605 H 0.16438 0.91913 0.97371 0.0
H2606 H 0.16466 0.89711 0.97037 0.0
H2607 H 0.16205 0.9047 0.99931 0.0
H2608 H 0.1946 0.90735 0.04751 0.0
H2609 H 0.17486 0.87721 0.06879 0.0
H2610 H 0.98798 0.2509 0.99566 0.0
H2611 H 0.02063 0.26349 0.00952 0.0
H2612 H 0.04023 0.26991 0.93723 0.0
H2613 H 0.00716 0.25791 0.92315 0.0
H2614 H 0.042 0.24728 0.00331 0.0
H2615 H 0.07982 0.32061 0.96509 0.0
H2616 H 0.05406 0.30631 0.96576 0.0
H2617 H 0.06748 0.30149 0.94423 0.0
C2618 C 0.99926 0.25512 0.98265 0.0
C2619 C 0.99505 0.25325 0.95833 0.0
C2620 C 0.01795 0.26235 0.99062 0.0
C2621 C 0.03298 0.26769 0.97451 0.0
C2622 C 0.02894 0.2662 0.95004 0.0
H2623 H 0.15314 0.30853 0.00824 0.0
H2624 H 0.12275 0.29751 0.98794 0.0
C2625 C 0.01008 0.25924 0.94198 0.0
C2626 C 0.05243 0.27366 0.98397 0.0
H2627 H 0.09828 0.31111 0.9876 0.0
C2628 C 0.05431 0.26124 0.99979 0.0
C2629 C 0.06858 0.2918 0.97927 0.0
C2630 C 0.06746 0.30593 0.96281 0.0
C2631 C 0.07165 0.26651 0.01136 0.0
C2632 C 0.08761 0.2849 0.00734 0.0
C2633 C 0.08598 0.2971 0.99089 0.0
C2634 C 0.1061 0.29167 0.01999 0.0
C2635 C 0.07268 0.25222 0.02766 0.0
C2636 C 0.10698 0.29228 0.04487 0.0
C2637 C 0.12435 0.29823 0.05665 0.0
C2638 C 0.14129 0.30396 0.04377 0.0
C2639 C 0.14037 0.30377 0.01883 0.0
C2640 C 0.123 0.29767 0.00712 0.0
H2641 H 0.06146 0.23733 0.02337 0.0
H2642 H 0.08687 0.25319 0.02665 0.0
H2643 H 0.07032 0.25519 0.04616 0.0
H2644 H 0.09421 0.28815 0.05523 0.0
H2645 H 0.1244 0.2981 0.07581 0.0
H2646 H 0.96286 0.50697 0.26597 0.0
H2647 H 0.95216 0.52628 0.2877 0.0
H2648 H 0.97218 0.51476 0.35303 0.0
H2649 H 0.98321 0.49585 0.33156 0.0
H2650 H 0.93374 0.50805 0.35446 0.0
H2651 H 0.98587 0.57989 0.31922 0.0
H2652 H 0.97369 0.56141 0.29743 0.0
H2653 H 0.98984 0.55977 0.31789 0.0
C2654 C 0.96524 0.50878 0.2849 0.0
C2655 C 0.97379 0.49975 0.29702 0.0
C2656 C 0.95909 0.51979 0.2973 0.0
C2657 C 0.96146 0.52201 0.32197 0.0
C2658 C 0.97016 0.51318 0.33403 0.0
H2659 H 0.94471 0.60514 0.40264 0.0
H2660 H 0.95779 0.58527 0.38857 0.0
C2661 C 0.97635 0.50229 0.3217 0.0
C2662 C 0.95439 0.53302 0.33546 0.0
H2663 H 0.96059 0.57777 0.34273 0.0
C2664 C 0.93964 0.52331 0.35198 0.0
C2665 C 0.96237 0.55297 0.33255 0.0
C2666 C 0.97893 0.56424 0.31598 0.0
C2667 C 0.93227 0.53293 0.3652 0.0
C2668 C 0.93968 0.55277 0.36156 0.0
C2669 C 0.95483 0.56257 0.34551 0.0
C2670 C 0.93123 0.56345 0.3731 0.0
C2671 C 0.91672 0.52171 0.38306 0.0
C2672 C 0.91185 0.55758 0.36967 0.0
C2673 C 0.90429 0.56874 0.37795 0.0
C2674 C 0.916 0.58625 0.38955 0.0
C2675 C 0.93523 0.59169 0.39397 0.0
C2676 C 0.94277 0.58042 0.38575 0.0
H2677 H 0.91734 0.50901 0.38948 0.0
H2678 H 0.91777 0.53067 0.39853 0.0
H2679 H 0.90257 0.51648 0.37454 0.0
H2680 H 0.90271 0.54482 0.35953 0.0
H2681 H 0.88946 0.56411 0.37405 0.0
H2682 H 0.41083 0.34021 0.40461 0.0
H2683 H 0.43199 0.37322 0.39076 0.0
H2684 H 0.42975 0.35238 0.31995 0.0
H2685 H 0.40907 0.31964 0.33345 0.0
H2686 H 0.47047 0.3861 0.35694 0.0
H2687 H 0.41135 0.39634 0.32332 0.0
H2688 H 0.4083 0.38081 0.34803 0.0
H2689 H 0.40951 0.3734 0.31848 0.0
C2690 C 0.41501 0.34266 0.38615 0.0
C2691 C 0.40831 0.32721 0.37021 0.0
C2692 C 0.42705 0.36151 0.37828 0.0
C2693 C 0.43232 0.36518 0.35431 0.0
C2694 C 0.42582 0.34983 0.3385 0.0
H2695 H 0.49498 0.45709 0.25557 0.0
H2696 H 0.47444 0.42678 0.27599 0.0
C2697 C 0.41405 0.33108 0.34634 0.0
C2698 C 0.44453 0.38495 0.34534 0.0
H2699 H 0.44283 0.4194 0.31191 0.0
C2700 C 0.46447 0.39355 0.34741 0.0
C2701 C 0.43662 0.3945 0.33275 0.0
C2702 C 0.41526 0.38594 0.33051 0.0
C2703 C 0.47673 0.41126 0.33659 0.0
C2704 C 0.46881 0.42058 0.32348 0.0
C2705 C 0.44886 0.41216 0.32185 0.0
C2706 C 0.48107 0.43901 0.31114 0.0
C2707 C 0.49808 0.41964 0.33853 0.0
C2708 C 0.49141 0.45593 0.32414 0.0
C2709 C 0.50294 0.47331 0.31256 0.0
C2710 C 0.50452 0.47417 0.28766 0.0
C2711 C 0.49402 0.45711 0.27469 0.0
C2712 C 0.48234 0.43973 0.28633 0.0
H2713 H 0.50194 0.40946 0.34658 0.0
H2714 H 0.5048 0.42389 0.32075 0.0
H2715 H 0.50418 0.43271 0.34967 0.0
H2716 H 0.49043 0.45573 0.34328 0.0
H2717 H 0.51042 0.48615 0.32318 0.0
H2718 H 0.51714 0.02067 0.33185 0.0
H2719 H 0.54858 0.03249 0.35019 0.0
H2720 H 0.57568 0.05421 0.28264 0.0
H2721 H 0.54427 0.04262 0.26418 0.0
H2722 H 0.57812 0.02325 0.33665 0.0
H2723 H 0.60191 0.10061 0.32944 0.0
H2724 H 0.57707 0.08216 0.32744 0.0
H2725 H 0.59274 0.08705 0.3026 0.0
C2726 C 0.52981 0.02811 0.32093 0.0
C2727 C 0.52823 0.03081 0.29658 0.0
C2728 C 0.54774 0.03474 0.33142 0.0
C2729 C 0.56444 0.04438 0.31782 0.0
C2730 C 0.56295 0.04698 0.29348 0.0
H2731 H 0.68505 0.09776 0.33141 0.0
H2732 H 0.65178 0.08638 0.32181 0.0
C2733 C 0.545 0.04023 0.28293 0.0
C2734 C 0.58346 0.05161 0.32903 0.0
H2735 H 0.62536 0.09264 0.34073 0.0
C2736 C 0.58845 0.03841 0.33778 0.0
C2737 C 0.59677 0.07139 0.33057 0.0
C2738 C 0.59188 0.08619 0.32221 0.0
C2739 C 0.60681 0.04445 0.34697 0.0
C2740 C 0.62035 0.06428 0.348 0.0
C2741 C 0.61503 0.07746 0.33998 0.0
C2742 C 0.64064 0.07168 0.35508 0.0
C2743 C 0.61178 0.02949 0.3544 0.0
C2744 C 0.64566 0.06761 0.37731 0.0
C2745 C 0.66491 0.07402 0.38288 0.0
C2746 C 0.67946 0.08482 0.36641 0.0
C2747 C 0.67433 0.08949 0.34461 0.0
C2748 C 0.65522 0.08297 0.33903 0.0
H2749 H 0.60136 0.0151 0.34743 0.0
H2750 H 0.6263 0.03329 0.34816 0.0
H2751 H 0.6116 0.0286 0.374 0.0
H2752 H 0.63472 0.05933 0.39026 0.0
H2753 H 0.66832 0.07017 0.39983 0.0
H2754 H 0.39571 0.06473 0.27451 0.0
H2755 H 0.38399 0.08657 0.2854 0.0
H2756 H 0.42855 0.11287 0.33789 0.0
H2757 H 0.44041 0.09149 0.32702 0.0
H2758 H 0.3706 0.08907 0.33057 0.0
H2759 H 0.43191 0.15913 0.30439 0.0
H2760 H 0.42885 0.13672 0.29354 0.0
H2761 H 0.43889 0.14534 0.32243 0.0
C2762 C 0.40332 0.07553 0.28789 0.0
C2763 C 0.41908 0.07641 0.29977 0.0
C2764 C 0.39651 0.08789 0.29424 0.0
C2765 C 0.4055 0.10149 0.31232 0.0
C2766 C 0.42158 0.10277 0.32359 0.0
H2767 H 0.37198 0.16242 0.4086 0.0
H2768 H 0.38184 0.1415 0.38932 0.0
C2769 C 0.42832 0.09045 0.31737 0.0
C2770 C 0.39752 0.11356 0.32073 0.0
H2771 H 0.40967 0.15994 0.33186 0.0
C2772 C 0.37906 0.10456 0.33059 0.0
C2773 C 0.40851 0.1338 0.32072 0.0
C2774 C 0.42807 0.14434 0.30949 0.0
C2775 C 0.37165 0.11527 0.34121 0.0
C2776 C 0.38298 0.13541 0.34203 0.0
C2777 C 0.40113 0.14445 0.33146 0.0
C2778 C 0.37622 0.14738 0.35377 0.0
C2779 C 0.35182 0.10507 0.35168 0.0
C2780 C 0.36977 0.15753 0.34014 0.0
C2781 C 0.3639 0.16929 0.35106 0.0
C2782 C 0.36459 0.17135 0.37589 0.0
C2783 C 0.37101 0.16104 0.38951 0.0
C2784 C 0.37675 0.14914 0.37852 0.0
H2785 H 0.34407 0.08953 0.34755 0.0
H2786 H 0.3528 0.10687 0.37121 0.0
H2787 H 0.34336 0.11149 0.3449 0.0
H2788 H 0.36922 0.15631 0.32101 0.0
H2789 H 0.35869 0.17667 0.34 0.0
H2790 H 0.80836 0.19561 0.3554 0.0
H2791 H 0.82797 0.22597 0.33526 0.0
H2792 H 0.87865 0.23053 0.36717 0.0
H2793 H 0.8593 0.19941 0.38597 0.0
H2794 H 0.84877 0.25995 0.35154 0.0
H2795 H 0.89666 0.2428 0.3005 0.0
H2796 H 0.87567 0.22467 0.31555 0.0
H2797 H 0.8977 0.2388 0.33154 0.0
C2798 C 0.82372 0.20279 0.35777 0.0
C2799 C 0.8322 0.1948 0.37214 0.0
C2800 C 0.83493 0.22031 0.34635 0.0
C2801 C 0.85489 0.23042 0.34917 0.0
C2802 C 0.86337 0.22278 0.36404 0.0
H2803 H 0.92726 0.3513 0.33468 0.0
H2804 H 0.9057 0.31844 0.34629 0.0
C2805 C 0.85219 0.2051 0.37521 0.0
C2806 C 0.86661 0.24942 0.3376 0.0
H2807 H 0.90677 0.27623 0.30439 0.0
C2808 C 0.86132 0.26338 0.34101 0.0
C2809 C 0.88279 0.2539 0.32339 0.0
C2810 C 0.88841 0.23917 0.3173 0.0
C2811 C 0.87205 0.2818 0.33139 0.0
C2812 C 0.88901 0.28674 0.31865 0.0
C2813 C 0.89393 0.27258 0.31441 0.0
C2814 C 0.90234 0.30677 0.31098 0.0
C2815 C 0.86498 0.29576 0.33495 0.0
C2816 C 0.90835 0.31124 0.28729 0.0
C2817 C 0.92111 0.33023 0.28054 0.0
C2818 C 0.92799 0.34506 0.29738 0.0
C2819 C 0.92197 0.3404 0.32105 0.0
C2820 C 0.90953 0.32153 0.32778 0.0
H2821 H 0.84918 0.28818 0.33709 0.0
H2822 H 0.87137 0.30409 0.35137 0.0
H2823 H 0.86894 0.30587 0.31986 0.0
H2824 H 0.90316 0.30005 0.27404 0.0
H2825 H 0.92565 0.33327 0.26224 0.0
H2826 H 0.65669 0.56445 0.32059 0.0
H2827 H 0.68936 0.57771 0.33381 0.0
H2828 H 0.70872 0.61825 0.2762 0.0
H2829 H 0.67536 0.60557 0.26346 0.0
H2830 H 0.71949 0.57974 0.31642 0.0
H2831 H 0.73476 0.65437 0.32924 0.0
H2832 H 0.71111 0.63503 0.3224 0.0
H2833 H 0.72878 0.64582 0.29939 0.0
C2834 C 0.66779 0.57612 0.31047 0.0
C2835 C 0.66324 0.58395 0.2909 0.0
C2836 C 0.68662 0.58374 0.31816 0.0
C2837 C 0.70166 0.59928 0.30639 0.0
C2838 C 0.69738 0.60664 0.2861 0.0
H2839 H 0.82329 0.65 0.34217 0.0
H2840 H 0.79305 0.63923 0.32112 0.0
C2841 C 0.67831 0.59919 0.27858 0.0
C2842 C 0.72153 0.60742 0.31592 0.0
H2843 H 0.75966 0.6481 0.33831 0.0
C2844 C 0.72823 0.59472 0.3211 0.0
C2845 C 0.73307 0.62699 0.32218 0.0
C2846 C 0.72654 0.64133 0.31824 0.0
C2847 C 0.74574 0.60087 0.33273 0.0
C2848 C 0.75707 0.62028 0.33916 0.0
C2849 C 0.75083 0.63318 0.33338 0.0
C2850 C 0.77535 0.62729 0.35216 0.0
C2851 C 0.752 0.58657 0.33845 0.0
C2852 C 0.77538 0.6242 0.37664 0.0
C2853 C 0.79266 0.63036 0.38877 0.0
C2854 C 0.81019 0.63958 0.37656 0.0
C2855 C 0.81003 0.64272 0.35204 0.0
C2856 C 0.79279 0.63671 0.34 0.0
H2857 H 0.74256 0.5724 0.33019 0.0
H2858 H 0.76691 0.59198 0.33232 0.0
H2859 H 0.7518 0.58465 0.35793 0.0
H2860 H 0.76202 0.61691 0.38631 0.0
H2861 H 0.79227 0.62761 0.40759 0.0
H2862 H 0.62987 0.83918 0.59776 0.0
H2863 H 0.61809 0.85844 0.61735 0.0
H2864 H 0.63769 0.84959 0.68467 0.0
H2865 H 0.64976 0.83065 0.66525 0.0
H2866 H 0.5903 0.84474 0.65626 0.0
H2867 H 0.65964 0.90852 0.68109 0.0
H2868 H 0.65784 0.892 0.65828 0.0
H2869 H 0.65645 0.88549 0.6889 0.0
C2870 C 0.63192 0.84158 0.61667 0.0
C2871 C 0.64073 0.83338 0.62996 0.0
C2872 C 0.6251 0.85249 0.62785 0.0
C2873 C 0.62719 0.85558 0.65242 0.0
C2874 C 0.63616 0.84759 0.66567 0.0
H2875 H 0.59591 0.92675 0.73941 0.0
H2876 H 0.6078 0.90509 0.72798 0.0
C2877 C 0.64288 0.83663 0.65455 0.0
C2878 C 0.61919 0.8664 0.66435 0.0
H2879 H 0.63154 0.90805 0.69358 0.0
C2880 C 0.59929 0.85857 0.66447 0.0
C2881 C 0.63095 0.88422 0.6755 0.0
C2882 C 0.65243 0.8932 0.67591 0.0
C2883 C 0.5908 0.86819 0.67513 0.0
C2884 C 0.60257 0.88652 0.68526 0.0
C2885 C 0.62248 0.89406 0.68581 0.0
C2886 C 0.59463 0.89874 0.69325 0.0
C2887 C 0.56924 0.85846 0.67552 0.0
C2888 C 0.58342 0.90248 0.6776 0.0
C2889 C 0.5763 0.91434 0.68425 0.0
C2890 C 0.58065 0.92336 0.70655 0.0
C2891 C 0.59208 0.91984 0.72226 0.0
C2892 C 0.59896 0.90756 0.71568 0.0
H2893 H 0.56271 0.84264 0.6759 0.0
H2894 H 0.564 0.86292 0.69107 0.0
H2895 H 0.56421 0.86216 0.65913 0.0
H2896 H 0.58049 0.89657 0.65987 0.0
H2897 H 0.56794 0.91699 0.67137 0.0
H2898 H 0.08441 0.65159 0.67173 0.0
H2899 H 0.10493 0.68434 0.65827 0.0
H2900 H 0.0915 0.70556 0.72108 0.0
H2901 H 0.07057 0.67253 0.7348 0.0
H2902 H 0.09053 0.71175 0.65162 0.0
H2903 H 0.1522 0.73699 0.71364 0.0
H2904 H 0.13644 0.71187 0.70755 0.0
H2905 H 0.12834 0.72462 0.7257 0.0
C2906 C 0.08595 0.66314 0.68297 0.0
C2907 C 0.07576 0.65931 0.70443 0.0
C2908 C 0.09768 0.68191 0.67514 0.0
C2909 C 0.09975 0.69739 0.68862 0.0
C2910 C 0.0902 0.6938 0.71047 0.0
H2911 H 0.17081 0.81965 0.65845 0.0
H2912 H 0.14972 0.7887 0.67695 0.0
C2913 C 0.0783 0.67491 0.71832 0.0
C2914 C 0.1112 0.71712 0.67897 0.0
H2915 H 0.154 0.75859 0.68442 0.0
C2916 C 0.10437 0.72206 0.65885 0.0
C2917 C 0.12915 0.73056 0.68852 0.0
C2918 C 0.13714 0.72586 0.70999 0.0
C2919 C 0.11507 0.74004 0.64792 0.0
C2920 C 0.13342 0.75327 0.65688 0.0
C2921 C 0.14003 0.74845 0.67737 0.0
C2922 C 0.14601 0.77212 0.64527 0.0
C2923 C 0.10641 0.74475 0.62712 0.0
C2924 C 0.15116 0.77322 0.62127 0.0
C2925 C 0.16315 0.79097 0.61057 0.0
C2926 C 0.17055 0.80797 0.62377 0.0
C2927 C 0.16552 0.80681 0.64783 0.0
C2928 C 0.15341 0.78911 0.65843 0.0
H2929 H 0.09054 0.73607 0.62733 0.0
H2930 H 0.11065 0.76013 0.62698 0.0
H2931 H 0.11145 0.74146 0.61044 0.0
H2932 H 0.14612 0.76032 0.61085 0.0
H2933 H 0.16697 0.79135 0.59212 0.0
H2934 H 0.33295 0.40463 0.73217 0.0
H2935 H 0.29929 0.39263 0.72112 0.0
H2936 H 0.3172 0.41906 0.65255 0.0
H2937 H 0.35049 0.43126 0.66329 0.0
H2938 H 0.28224 0.41807 0.69687 0.0
H2939 H 0.27751 0.3569 0.64587 0.0
H2940 H 0.29369 0.36762 0.67058 0.0
H2941 H 0.29906 0.3797 0.64257 0.0
C2942 C 0.32973 0.40814 0.71489 0.0
C2943 C 0.34454 0.41896 0.69868 0.0
C2944 C 0.3105 0.40121 0.70859 0.0
C2945 C 0.3058 0.40485 0.68594 0.0
C2946 C 0.32052 0.41603 0.67006 0.0
H2947 H 0.2108 0.37413 0.5923 0.0
H2948 H 0.24162 0.38458 0.61163 0.0
C2949 C 0.33961 0.42305 0.67634 0.0
C2950 C 0.28562 0.39676 0.67819 0.0
H2951 H 0.25255 0.36385 0.64027 0.0
C2952 C 0.27556 0.40603 0.6848 0.0
C2953 C 0.2771 0.38119 0.66225 0.0
C2954 C 0.28727 0.37062 0.65492 0.0
C2955 C 0.25743 0.40056 0.67519 0.0
C2956 C 0.24904 0.38521 0.65881 0.0
C2957 C 0.25897 0.37565 0.65272 0.0
C2958 C 0.23025 0.37914 0.64727 0.0
C2959 C 0.24779 0.4118 0.68186 0.0
C2960 C 0.21353 0.37249 0.6608 0.0
C2961 C 0.19588 0.36648 0.64979 0.0
C2962 C 0.19448 0.36681 0.62495 0.0
C2963 C 0.21126 0.37347 0.61143 0.0
C2964 C 0.22893 0.37952 0.62247 0.0
H2965 H 0.25803 0.42587 0.6898 0.0
H2966 H 0.24098 0.41425 0.66619 0.0
H2967 H 0.23646 0.40358 0.69512 0.0
H2968 H 0.21407 0.37162 0.6799 0.0
H2969 H 0.18322 0.3611 0.66076 0.0
H2970 H 0.00307 0.4777 0.71818 0.0
H2971 H 0.01287 0.45716 0.69761 0.0
H2972 H 0.06754 0.50658 0.68174 0.0
H2973 H 0.058 0.52707 0.70248 0.0
H2974 H 0.02533 0.46065 0.64832 0.0
H2975 H 0.08097 0.46796 0.71204 0.0
H2976 H 0.06258 0.47353 0.71976 0.0
H2977 H 0.08301 0.49022 0.70281 0.0
C2978 C 0.01729 0.48412 0.71063 0.0
C2979 C 0.02975 0.50402 0.71197 0.0
C2980 C 0.0228 0.4724 0.69871 0.0
C2981 C 0.04097 0.48032 0.68823 0.0
C2982 C 0.05352 0.50012 0.68987 0.0
H2983 H 0.10869 0.44097 0.61519 0.0
H2984 H 0.09523 0.45962 0.63183 0.0
C2985 C 0.048 0.51183 0.70163 0.0
C2986 C 0.04684 0.46808 0.67518 0.0
H2987 H 0.08022 0.4539 0.67495 0.0
C2988 C 0.03725 0.45903 0.65417 0.0
C2989 C 0.06238 0.46601 0.68283 0.0
C2990 C 0.07276 0.47479 0.7057 0.0
C2991 C 0.04321 0.4485 0.6402 0.0
C2992 C 0.05897 0.44666 0.6477 0.0
C2993 C 0.06827 0.45543 0.66899 0.0
C2994 C 0.06626 0.43579 0.63399 0.0
C2995 C 0.03296 0.44002 0.61719 0.0
C2996 C 0.05439 0.41626 0.6288 0.0
C2997 C 0.06204 0.4056 0.61884 0.0
C2998 C 0.08179 0.41417 0.61429 0.0
C2999 C 0.09343 0.43391 0.61842 0.0
C3000 C 0.08575 0.44458 0.62808 0.0
H3001 H 0.02531 0.44736 0.61066 0.0
H3002 H 0.04307 0.44087 0.60328 0.0
H3003 H 0.02218 0.42473 0.62003 0.0
H3004 H 0.0394 0.40899 0.6336 0.0
H3005 H 0.05269 0.39038 0.61624 0.0
H3006 H 0.52626 0.52978 0.71127 0.0
H3007 H 0.54637 0.56052 0.6913 0.0
H3008 H 0.49618 0.56375 0.67338 0.0
H3009 H 0.47599 0.53325 0.69352 0.0
H3010 H 0.5342 0.5696 0.63548 0.0
H3011 H 0.54342 0.61531 0.71396 0.0
H3012 H 0.54167 0.59221 0.71712 0.0
H3013 H 0.52092 0.5936 0.70917 0.0
C3014 C 0.51952 0.53713 0.7033 0.0
C3015 C 0.4995 0.52903 0.70394 0.0
C3016 C 0.53101 0.55458 0.69172 0.0
C3017 C 0.5227 0.56424 0.68072 0.0
C3018 C 0.5028 0.55637 0.68159 0.0
H3019 H 0.56671 0.6791 0.63032 0.0
H3020 H 0.54644 0.64582 0.64243 0.0
C3021 C 0.49131 0.53894 0.69308 0.0
C3022 C 0.53474 0.58282 0.66874 0.0
H3023 H 0.55651 0.63095 0.67793 0.0
C3024 C 0.53919 0.58307 0.64469 0.0
C3025 C 0.5411 0.60024 0.68086 0.0
C3026 C 0.53665 0.60054 0.70674 0.0
C3027 C 0.54961 0.60043 0.63225 0.0
C3028 C 0.5559 0.61795 0.64434 0.0
C3029 C 0.5516 0.61757 0.66855 0.0
C3030 C 0.56674 0.63696 0.6325 0.0
C3031 C 0.55328 0.59979 0.60618 0.0
C3032 C 0.58459 0.64295 0.6218 0.0
C3033 C 0.59606 0.66197 0.61431 0.0
C3034 C 0.59003 0.6754 0.61786 0.0
C3035 C 0.57168 0.66906 0.62718 0.0
C3036 C 0.56015 0.65006 0.63431 0.0
H3037 H 0.5431 0.58568 0.5983 0.0
H3038 H 0.55218 0.61112 0.59636 0.0
H3039 H 0.56796 0.60217 0.60374 0.0
H3040 H 0.59021 0.63329 0.6206 0.0
H3041 H 0.6103 0.6665 0.6077 0.0
H3042 H 0.31925 0.92907 0.66886 0.0
H3043 H 0.35166 0.9405 0.68314 0.0
H3044 H 0.36653 0.92555 0.61623 0.0
H3045 H 0.33411 0.91514 0.60131 0.0
H3046 H 0.36889 0.9217 0.69125 0.0
H3047 H 0.41207 0.97705 0.62436 0.0
H3048 H 0.3864 0.96616 0.62591 0.0
H3049 H 0.39712 0.95379 0.61186 0.0
C3050 C 0.32946 0.9283 0.65712 0.0
C3051 C 0.32414 0.92107 0.63403 0.0
C3052 C 0.34803 0.93487 0.6653 0.0
C3053 C 0.36174 0.93408 0.65081 0.0
C3054 C 0.35646 0.92683 0.62763 0.0
H3055 H 0.46792 0.94339 0.70359 0.0
H3056 H 0.43719 0.93307 0.68399 0.0
C3057 C 0.33788 0.92069 0.61916 0.0
C3058 C 0.38107 0.93996 0.66078 0.0
H3059 H 0.4292 0.96964 0.65266 0.0
C3060 C 0.38202 0.9322 0.68273 0.0
C3061 C 0.39834 0.95374 0.64981 0.0
C3062 C 0.39849 0.96332 0.6268 0.0
C3063 C 0.39956 0.93789 0.69401 0.0
C3064 C 0.41671 0.95145 0.68297 0.0
C3065 C 0.41595 0.95915 0.66099 0.0
C3066 C 0.43551 0.95796 0.69439 0.0
C3067 C 0.39974 0.92969 0.71796 0.0
C3068 C 0.44462 0.9753 0.70687 0.0
C3069 C 0.46215 0.98123 0.71817 0.0
C3070 C 0.47097 0.96997 0.71703 0.0
C3071 C 0.46167 0.95252 0.70459 0.0
C3072 C 0.4441 0.94658 0.69341 0.0
H3073 H 0.3851 0.92025 0.72496 0.0
H3074 H 0.40718 0.92129 0.71664 0.0
H3075 H 0.40782 0.94146 0.73079 0.0
H3076 H 0.43813 0.98422 0.7079 0.0
H3077 H 0.46902 0.99483 0.72736 0.0
H3078 H 0.30657 0.33801 0.12815 0.0
H3079 H 0.33717 0.3633 0.14371 0.0
H3080 H 0.32964 0.40564 0.1062 0.0
H3081 H 0.29936 0.38046 0.0901 0.0
H3082 H 0.36416 0.40928 0.09791 0.0
H3083 H 0.35082 0.40334 0.19466 0.0
H3084 H 0.34579 0.38122 0.18104 0.0
H3085 H 0.33174 0.39206 0.17323 0.0
C3086 C 0.31132 0.35273 0.12346 0.0
C3087 C 0.30055 0.35722 0.10784 0.0
C3088 C 0.32875 0.3672 0.13253 0.0
C3089 C 0.33559 0.38642 0.1264 0.0
C3090 C 0.32462 0.39093 0.11125 0.0
H3091 H 0.44441 0.49174 0.14153 0.0
H3092 H 0.41006 0.46891 0.13858 0.0
C3093 C 0.30732 0.3765 0.10204 0.0
C3094 C 0.3549 0.40165 0.13401 0.0
H3095 H 0.38331 0.42275 0.18234 0.0
C3096 C 0.36827 0.41234 0.11638 0.0
C3097 C 0.3603 0.40555 0.15812 0.0
C3098 C 0.34636 0.39507 0.17787 0.0
C3099 C 0.38695 0.42655 0.12212 0.0
C3100 C 0.39237 0.43045 0.14622 0.0
C3101 C 0.37906 0.41979 0.16391 0.0
C3102 C 0.41207 0.44514 0.15305 0.0
C3103 C 0.4009 0.4369 0.10227 0.0
C3104 C 0.4243 0.43966 0.16376 0.0
C3105 C 0.44389 0.45278 0.16581 0.0
C3106 C 0.45143 0.47147 0.15706 0.0
C3107 C 0.43889 0.47737 0.14834 0.0
C3108 C 0.41933 0.46432 0.14649 0.0
H3109 H 0.39587 0.42919 0.08515 0.0
H3110 H 0.40257 0.45131 0.10004 0.0
H3111 H 0.41519 0.43873 0.10634 0.0
H3112 H 0.41894 0.42494 0.16902 0.0
H3113 H 0.45331 0.44786 0.17236 0.0
H3114 H 0.50571 0.94948 0.15008 0.0
H3115 H 0.52772 0.93748 0.14253 0.0
H3116 H 0.57499 0.99148 0.16559 0.0
H3117 H 0.5529 0.00325 0.17367 0.0
H3118 H 0.55448 0.95359 0.10891 0.0
H3119 H 0.59016 0.95504 0.19315 0.0
H3120 H 0.56838 0.95616 0.19216 0.0
H3121 H 0.59117 0.97735 0.18719 0.0
C3122 C 0.52069 0.95839 0.1546 0.0
C3123 C 0.52763 0.97719 0.16271 0.0
C3124 C 0.53328 0.95162 0.15006 0.0
C3125 C 0.55304 0.96353 0.15352 0.0
C3126 C 0.5598 0.98184 0.16326 0.0
H3127 H 0.6577 0.97217 0.1051 0.0
H3128 H 0.63196 0.97597 0.12196 0.0
C3129 C 0.54716 0.98856 0.16799 0.0
C3130 C 0.56668 0.95791 0.14386 0.0
H3131 H 0.60619 0.95466 0.15747 0.0
C3132 C 0.5656 0.95352 0.11962 0.0
C3133 C 0.58128 0.95795 0.15777 0.0
C3134 C 0.58272 0.9617 0.18406 0.0
C3135 C 0.57911 0.94987 0.10874 0.0
C3136 C 0.59397 0.95036 0.12254 0.0
C3137 C 0.59481 0.95433 0.14688 0.0
C3138 C 0.60937 0.94777 0.11188 0.0
C3139 C 0.5778 0.94634 0.08238 0.0
C3140 C 0.60525 0.93062 0.10055 0.0
C3141 C 0.61998 0.92845 0.09068 0.0
C3142 C 0.63911 0.94332 0.09219 0.0
C3143 C 0.64314 0.96043 0.10359 0.0
C3144 C 0.62844 0.96262 0.11332 0.0
H3145 H 0.56827 0.95072 0.07358 0.0
H3146 H 0.59216 0.95419 0.07404 0.0
H3147 H 0.57189 0.93083 0.07908 0.0
H3148 H 0.59067 0.91884 0.0996 0.0
H3149 H 0.61643 0.91502 0.08223 0.0
H3150 H 0.03144 0.69362 0.11484 0.0
H3151 H 0.02652 0.66384 0.13236 0.0
H3152 H 0.0766 0.6706 0.09631 0.0
H3153 H 0.08171 0.70061 0.07864 0.0
H3154 H 0.02102 0.63106 0.10722 0.0
H3155 H 0.08462 0.66004 0.16622 0.0
H3156 H 0.07586 0.67486 0.15382 0.0
H3157 H 0.0893 0.66747 0.13576 0.0
C3158 C 0.04148 0.68884 0.11064 0.0
C3159 C 0.05698 0.6995 0.09531 0.0
C3160 C 0.03864 0.67182 0.12072 0.0
C3161 C 0.05133 0.66514 0.11591 0.0
C3162 C 0.06683 0.67568 0.10059 0.0
H3163 H 0.05079 0.56037 0.14366 0.0
H3164 H 0.06052 0.59404 0.13753 0.0
C3165 C 0.06963 0.69273 0.09035 0.0
C3166 C 0.04764 0.64664 0.12608 0.0
H3167 H 0.06568 0.62622 0.16347 0.0
C3168 C 0.03071 0.63 0.11965 0.0
C3169 C 0.06037 0.64534 0.14218 0.0
C3170 C 0.07851 0.66287 0.15012 0.0
C3171 C 0.02631 0.61202 0.12852 0.0
C3172 C 0.03894 0.61068 0.14482 0.0
C3173 C 0.05591 0.62733 0.15126 0.0
C3174 C 0.03526 0.59186 0.15383 0.0
C3175 C 0.00848 0.59452 0.11969 0.0
C3176 C 0.01848 0.57981 0.16651 0.0
C3177 C 0.01289 0.56053 0.17002 0.0
C3178 C 0.02406 0.55313 0.16097 0.0
C3179 C 0.04189 0.56574 0.1507 0.0
C3180 C 0.04744 0.58496 0.14714 0.0
H3181 H 0.00276 0.59755 0.10337 0.0
H3182 H 0.01135 0.58268 0.1159 0.0
H3183 H 0.99723 0.58957 0.13351 0.0
H3184 H 0.00907 0.58498 0.17223 0.0
H3185 H 0.99905 0.55111 0.17788 0.0
H3186 H 0.69442 0.65796 0.88084 0.0
H3187 H 0.66453 0.63189 0.86504 0.0
H3188 H 0.6671 0.59287 0.91507 0.0
H3189 H 0.69713 0.61901 0.93114 0.0
H3190 H 0.65638 0.59638 0.8449 0.0
H3191 H 0.61387 0.58713 0.9263 0.0
H3192 H 0.63701 0.60797 0.92127 0.0
H3193 H 0.63528 0.58589 0.93064 0.0
C3194 C 0.68864 0.64385 0.88857 0.0
C3195 C 0.69807 0.6406 0.90742 0.0
C3196 C 0.67158 0.62894 0.87942 0.0
C3197 C 0.66347 0.61049 0.88902 0.0
C3198 C 0.67298 0.60708 0.90761 0.0
H3199 H 0.55579 0.50683 0.86235 0.0
H3200 H 0.58967 0.52895 0.8704 0.0
C3201 C 0.69015 0.622 0.91672 0.0
C3202 C 0.6449 0.59501 0.87974 0.0
H3203 H 0.59816 0.56548 0.895 0.0
C3204 C 0.64365 0.58959 0.85585 0.0
C3205 C 0.62828 0.58626 0.89401 0.0
C3206 C 0.62852 0.59216 0.91943 0.0
C3207 C 0.62623 0.57555 0.84594 0.0
C3208 C 0.60968 0.56684 0.86024 0.0
C3209 C 0.61095 0.57214 0.88413 0.0
C3210 C 0.59068 0.55247 0.85084 0.0
C3211 C 0.62555 0.56993 0.82036 0.0
C3212 C 0.58027 0.55813 0.83628 0.0
C3213 C 0.56085 0.5455 0.83168 0.0
C3214 C 0.55162 0.52709 0.84168 0.0
C3215 C 0.56257 0.52095 0.85443 0.0
C3216 C 0.58188 0.53358 0.85913 0.0
H3217 H 0.64007 0.57597 0.81258 0.0
H3218 H 0.61795 0.55411 0.81865 0.0
H3219 H 0.61744 0.57521 0.80998 0.0
H3220 H 0.58678 0.57272 0.82989 0.0
H3221 H 0.55271 0.55068 0.8221 0.0
H3222 H 0.38353 0.08136 0.91533 0.0
H3223 H 0.40882 0.07656 0.89887 0.0
H3224 H 0.36847 0.03492 0.84992 0.0
H3225 H 0.34306 0.03972 0.86618 0.0
H3226 H 0.40731 0.04124 0.90005 0.0
H3227 H 0.41541 0.06821 0.80788 0.0
H3228 H 0.40397 0.07449 0.83086 0.0
H3229 H 0.39123 0.05159 0.81654 0.0
C3230 C 0.38007 0.07136 0.90085 0.0
C3231 C 0.36126 0.06081 0.89217 0.0
C3232 C 0.39455 0.06867 0.89144 0.0
C3233 C 0.39056 0.05552 0.87304 0.0
C3234 C 0.37193 0.04539 0.86383 0.0
H3235 H 0.44818 0.99622 0.82538 0.0
H3236 H 0.42667 0.00945 0.82746 0.0
C3237 C 0.3574 0.04803 0.87327 0.0
C3238 C 0.40541 0.05104 0.86523 0.0
H3239 H 0.43105 0.05057 0.8173 0.0
C3240 C 0.41261 0.04343 0.88201 0.0
C3241 C 0.41222 0.05384 0.84165 0.0
C3242 C 0.40546 0.06263 0.82319 0.0
C3243 C 0.42619 0.03824 0.87577 0.0
C3244 C 0.43292 0.04092 0.85219 0.0
C3245 C 0.42582 0.04857 0.83535 0.0
C3246 C 0.44718 0.0355 0.84512 0.0
C3247 C 0.43308 0.02961 0.89436 0.0
C3248 C 0.46608 0.04631 0.85319 0.0
C3249 C 0.47836 0.03884 0.85195 0.0
C3250 C 0.47185 0.02044 0.84268 0.0
C3251 C 0.45356 0.01049 0.83242 0.0
C3252 C 0.44126 0.01798 0.8337 0.0
H3253 H 0.42438 0.02587 0.9108 0.0
H3254 H 0.43264 0.01652 0.88743 0.0
H3255 H 0.44815 0.04002 0.89899 0.0
H3256 H 0.47088 0.05988 0.86201 0.0
H3257 H 0.49244 0.0468 0.85986 0.0
H3258 H 0.9677 0.30487 0.87062 0.0
H3259 H 0.97407 0.3356 0.854 0.0
H3260 H 0.92507 0.33057 0.89104 0.0
H3261 H 0.91888 0.30019 0.90811 0.0
H3262 H 0.95276 0.34748 0.82661 0.0
H3263 H 0.96874 0.38112 0.91552 0.0
H3264 H 0.96661 0.3581 0.91014 0.0
H3265 H 0.94553 0.36011 0.91367 0.0
C3266 C 0.95823 0.31027 0.87513 0.0
C3267 C 0.94295 0.30021 0.89097 0.0
C3268 C 0.96186 0.32781 0.86555 0.0
C3269 C 0.95028 0.33558 0.87166 0.0
C3270 C 0.93446 0.32508 0.88651 0.0
H3271 H 0.95144 0.44167 0.85282 0.0
H3272 H 0.94136 0.40765 0.8553 0.0
C3273 C 0.93091 0.30767 0.89621 0.0
C3274 C 0.95519 0.35504 0.86354 0.0
H3275 H 0.96595 0.39908 0.88413 0.0
C3276 C 0.95573 0.35881 0.83915 0.0
C3277 C 0.95929 0.36988 0.87992 0.0
C3278 C 0.96022 0.36721 0.90626 0.0
C3279 C 0.95967 0.37688 0.83079 0.0
C3280 C 0.9632 0.39146 0.84725 0.0
C3281 C 0.96297 0.38776 0.87156 0.0
C3282 C 0.96737 0.41085 0.84004 0.0
C3283 C 0.95965 0.3802 0.80454 0.0
C3284 C 0.98499 0.42379 0.82964 0.0
C3285 C 0.99076 0.44328 0.82813 0.0
C3286 C 0.97902 0.45004 0.83719 0.0
C3287 C 0.96072 0.4368 0.84567 0.0
C3288 C 0.95498 0.41739 0.84716 0.0
H3289 H 0.95361 0.36665 0.79431 0.0
H3290 H 0.95129 0.38738 0.80052 0.0
H3291 H 0.97456 0.38979 0.7985 0.0
H3292 H 0.99487 0.41909 0.82435 0.0
H3293 H 0.00503 0.45324 0.82185 0.0
H3294 H 0.96211 0.68131 0.4768 0.0
H3295 H 0.99182 0.7066 0.49431 0.0
H3296 H 0.01152 0.73092 0.42485 0.0
H3297 H 0.98122 0.70678 0.40779 0.0
H3298 H 0.02559 0.71459 0.49137 0.0
H3299 H 0.02607 0.77874 0.45739 0.0
H3300 H 0.00534 0.75526 0.45443 0.0
H3301 H 0.02441 0.76398 0.43288 0.0
C3302 C 0.97266 0.69233 0.46541 0.0
C3303 C 0.96923 0.69231 0.44103 0.0
C3304 C 0.98968 0.70676 0.47539 0.0
C3305 C 0.00386 0.72113 0.46108 0.0
C3306 C 1.00058 0.72067 0.43656 0.0
H3307 H 0.12365 0.77787 0.47973 0.0
H3308 H 0.08942 0.75517 0.47772 0.0
C3309 C 0.98331 0.70669 0.42674 0.0
C3310 C 0.02256 0.73574 0.47141 0.0
H3311 H 0.05711 0.78285 0.46784 0.0
C3312 C 0.03224 0.72958 0.48655 0.0
C3313 C 0.03127 0.75549 0.46583 0.0
C3314 C 0.02108 0.76374 0.45198 0.0
C3315 C 0.05068 0.74229 0.49507 0.0
C3316 C 0.06013 0.76157 0.48741 0.0
C3317 C 0.05007 0.76801 0.47344 0.0
C3318 C 0.08087 0.77477 0.49174 0.0
C3319 C 0.05981 0.73483 0.51213 0.0
C3320 C 0.08765 0.79353 0.50007 0.0
C3321 C 0.10734 0.80664 0.50091 0.0
C3322 C 0.12044 0.80109 0.49354 0.0
C3323 C 0.11373 0.78223 0.48607 0.0
C3324 C 0.09416 0.76925 0.48501 0.0
H3325 H 0.04881 0.72323 0.52335 0.0
H3326 H 0.06721 0.72865 0.502 0.0
H3327 H 0.07035 0.74631 0.52386 0.0
H3328 H 0.0777 0.79821 0.5051 0.0
H3329 H 0.11229 0.82129 0.50616 0.0
H3330 H 0.28809 0.26031 0.40423 0.0
H3331 H 0.26272 0.26508 0.4211 0.0
H3332 H 0.2998 0.29655 0.47927 0.0
H3333 H 0.32522 0.29225 0.46234 0.0
H3334 H 0.24444 0.25552 0.46622 0.0
H3335 H 0.28487 0.33419 0.45224 0.0
H3336 H 0.29169 0.31834 0.43838 0.0
H3337 H 0.29742 0.32497 0.46895 0.0
C3338 C 0.29079 0.26822 0.42063 0.0
C3339 C 0.30875 0.27614 0.43177 0.0
C3340 C 0.27629 0.2709 0.43027 0.0
C3341 C 0.27949 0.28147 0.45122 0.0
C3342 C 0.29715 0.28874 0.4628 0.0
H3343 H 0.21516 0.33016 0.51507 0.0
H3344 H 0.23733 0.31792 0.51118 0.0
C3345 C 0.31167 0.28624 0.4531 0.0
C3346 C 0.2646 0.28538 0.46072 0.0
H3347 H 0.25577 0.32166 0.47287 0.0
C3348 C 0.24689 0.26997 0.46774 0.0
C3349 C 0.26788 0.30425 0.46288 0.0
C3350 C 0.28642 0.3214 0.45504 0.0
C3351 C 0.23238 0.27292 0.47699 0.0
C3352 C 0.23549 0.29181 0.47867 0.0
C3353 C 0.25334 0.30719 0.47188 0.0
C3354 C 0.22015 0.29609 0.48544 0.0
C3355 C 0.21403 0.25574 0.48515 0.0
C3356 C 0.20261 0.2873 0.47332 0.0
C3357 C 0.18968 0.29386 0.47616 0.0
C3358 C 0.19428 0.30988 0.49046 0.0
C3359 C 0.21113 0.31776 0.50401 0.0
C3360 C 0.22393 0.31089 0.50155 0.0
H3361 H 0.21663 0.24422 0.49155 0.0
H3362 H 0.2071 0.25945 0.49955 0.0
H3363 H 0.20398 0.24987 0.46997 0.0
H3364 H 0.1994 0.2762 0.46038 0.0
H3365 H 0.17668 0.28728 0.46572 0.0
H3366 H 0.74733 0.0287 0.4028 0.0
H3367 H 0.74176 0.99843 0.4202 0.0
H3368 H 0.7013 0.99948 0.46912 0.0
H3369 H 0.70644 0.02933 0.45161 0.0
H3370 H 0.74599 0.98874 0.46673 0.0
H3371 H 0.67017 0.94736 0.43802 0.0
H3372 H 0.68656 0.97083 0.42652 0.0
H3373 H 0.67564 0.96825 0.45506 0.0
C3374 C 0.73721 0.02243 0.41722 0.0
C3375 C 0.72712 0.03127 0.42559 0.0
C3376 C 0.73409 0.00518 0.42719 0.0
C3377 C 0.72085 0.99651 0.44568 0.0
C3378 C 0.71123 0.00565 0.4545 0.0
H3379 H 0.67093 0.88508 0.51348 0.0
H3380 H 0.68287 0.91928 0.5074 0.0
C3381 C 0.71423 0.02276 0.44448 0.0
C3382 C 0.71682 0.9778 0.45561 0.0
H3383 H 0.68089 0.93182 0.46414 0.0
C3384 C 0.73177 0.97627 0.46616 0.0
C3385 C 0.69825 0.96154 0.4549 0.0
C3386 C 0.68176 0.96196 0.44283 0.0
C3387 C 0.72858 0.95898 0.4763 0.0
C3388 C 0.71 0.94273 0.47554 0.0
C3389 C 0.69507 0.94433 0.46505 0.0
C3390 C 0.70577 0.92349 0.48377 0.0
C3391 C 0.7451 0.95839 0.48794 0.0
C3392 C 0.71521 0.91468 0.47344 0.0
C3393 C 0.7086 0.89526 0.47722 0.0
C3394 C 0.6922 0.88417 0.49105 0.0
C3395 C 0.6837 0.8933 0.50295 0.0
C3396 C 0.6904 0.9128 0.49927 0.0
H3397 H 0.75611 0.97279 0.49424 0.0
H3398 H 0.74025 0.94834 0.50317 0.0
H3399 H 0.75199 0.95354 0.47481 0.0
H3400 H 0.72682 0.92242 0.46107 0.0
H3401 H 0.71544 0.88857 0.46786 0.0
H3402 H 0.22375 0.84186 0.20063 0.0
H3403 H 0.25736 0.86518 0.20775 0.0
H3404 H 0.25305 0.90496 0.16068 0.0
H3405 H 0.21901 0.88199 0.15454 0.0
H3406 H 0.29049 0.88643 0.18469 0.0
H3407 H 0.26557 0.93377 0.22227 0.0
H3408 H 0.24922 0.90947 0.21349 0.0
H3409 H 0.25973 0.92814 0.1916 0.0
C3410 C 0.23008 0.85544 0.19138 0.0
C3411 C 0.21863 0.86028 0.17748 0.0
C3412 C 0.24932 0.86876 0.19546 0.0
C3413 C 0.25757 0.88711 0.18548 0.0
C3414 C 0.2468 0.89112 0.16924 0.0
H3415 H 0.36271 0.99221 0.21849 0.0
H3416 H 0.33323 0.96715 0.20068 0.0
C3417 C 0.22742 0.87785 0.16539 0.0
C3418 C 0.27661 0.9024 0.19401 0.0
H3419 H 0.29874 0.94558 0.22242 0.0
C3420 C 0.29232 0.89941 0.19283 0.0
C3421 C 0.27897 0.91922 0.20503 0.0
C3422 C 0.26246 0.92282 0.20843 0.0
C3423 C 0.31033 0.91287 0.20204 0.0
C3424 C 0.31264 0.9297 0.21293 0.0
C3425 C 0.29698 0.93272 0.21398 0.0
C3426 C 0.33115 0.94453 0.22325 0.0
C3427 C 0.32675 0.90907 0.19977 0.0
C3428 C 0.33983 0.94022 0.24202 0.0
C3429 C 0.35681 0.95459 0.25229 0.0
C3430 C 0.36528 0.97357 0.24413 0.0
C3431 C 0.35652 0.97778 0.22534 0.0
C3432 C 0.33967 0.96345 0.21506 0.0
H3433 H 0.32405 0.89834 0.18576 0.0
H3434 H 0.3403 0.92243 0.19567 0.0
H3435 H 0.32864 0.90335 0.2168 0.0
H3436 H 0.33331 0.92581 0.24902 0.0
H3437 H 0.36318 0.95087 0.26673 0.0
H3438 H 0.15954 0.38577 0.19135 0.0
H3439 H 0.13549 0.39537 0.19645 0.0
H3440 H 0.09442 0.34501 0.1586 0.0
H3441 H 0.11824 0.33483 0.15453 0.0
H3442 H 0.11097 0.40242 0.17192 0.0
H3443 H 0.07074 0.33522 0.22366 0.0
H3444 H 0.09457 0.34343 0.21273 0.0
H3445 H 0.07432 0.33155 0.1932 0.0
C3446 C 0.14552 0.37701 0.18355 0.0
C3447 C 0.14061 0.35933 0.17305 0.0
C3448 C 0.13178 0.38251 0.18648 0.0
C3449 C 0.11295 0.37054 0.17871 0.0
C3450 C 0.10871 0.35414 0.16544 0.0
H3451 H 0.00768 0.36888 0.2154 0.0
H3452 H 0.03224 0.36389 0.19716 0.0
C3453 C 0.12242 0.34849 0.16275 0.0
C3454 C 0.09755 0.37413 0.18701 0.0
H3455 H 0.05702 0.35487 0.22081 0.0
C3456 C 0.09911 0.39199 0.18249 0.0
C3457 C 0.08224 0.36063 0.2012 0.0
C3458 C 0.0804 0.34172 0.20822 0.0
C3459 C 0.08568 0.3966 0.19153 0.0
C3460 C 0.07038 0.38306 0.20558 0.0
C3461 C 0.06873 0.36518 0.20994 0.0
C3462 C 0.05581 0.38698 0.21599 0.0
C3463 C 0.08788 0.41586 0.18583 0.0
C3464 C 0.06089 0.40156 0.23282 0.0
C3465 C 0.04682 0.40445 0.24339 0.0
C3466 C 0.02744 0.39271 0.23738 0.0
C3467 C 0.02246 0.37815 0.2205 0.0
C3468 C 0.03648 0.37529 0.20999 0.0
H3469 H 0.09744 0.42267 0.1704 0.0
H3470 H 0.07377 0.41457 0.18206 0.0
H3471 H 0.09422 0.42547 0.20132 0.0
H3472 H 0.07568 0.41051 0.23807 0.0
H3473 H 0.05111 0.41577 0.25633 0.0
H3474 H 0.58445 0.62971 0.23189 0.0
H3475 H 0.59027 0.66017 0.21542 0.0
H3476 H 0.64851 0.67541 0.19971 0.0
H3477 H 0.64234 0.64443 0.21471 0.0
H3478 H 0.61279 0.69415 0.23044 0.0
H3479 H 0.63622 0.69143 0.13933 0.0
H3480 H 0.62566 0.67069 0.15835 0.0
H3481 H 0.65074 0.6882 0.16074 0.0
C3482 C 0.59837 0.63938 0.22441 0.0
C3483 C 0.61285 0.63453 0.22428 0.0
C3484 C 0.60172 0.65684 0.21507 0.0
C3485 C 0.61974 0.67006 0.20582 0.0
C3486 C 0.63427 0.66527 0.20587 0.0
H3487 H 0.68031 0.79012 0.17508 0.0
H3488 H 0.66907 0.75581 0.17848 0.0
C3489 C 0.63078 0.64758 0.21466 0.0
C3490 C 0.62371 0.68935 0.19793 0.0
H3491 H 0.64378 0.72249 0.15362 0.0
C3492 C 0.61929 0.70019 0.21346 0.0
C3493 C 0.63223 0.69736 0.17578 0.0
C3494 C 0.63629 0.68621 0.15752 0.0
C3495 C 0.62373 0.71893 0.20791 0.0
C3496 C 0.63273 0.72709 0.18607 0.0
C3497 C 0.63687 0.71621 0.17033 0.0
C3498 C 0.63906 0.74733 0.18008 0.0
C3499 C 0.61942 0.73008 0.22593 0.0
C3500 C 0.62588 0.75387 0.17876 0.0
C3501 C 0.63232 0.77346 0.17693 0.0
C3502 C 0.65198 0.7867 0.1758 0.0
C3503 C 0.66507 0.78007 0.1754 0.0
C3504 C 0.65866 0.76052 0.1775 0.0
H3505 H 0.61637 0.72329 0.24371 0.0
H3506 H 0.63156 0.74496 0.22752 0.0
H3507 H 0.60662 0.73075 0.22018 0.0
H3508 H 0.61068 0.74391 0.18026 0.0
H3509 H 0.62205 0.77837 0.17762 0.0
H3510 H 0.78561 0.1085 0.82082 0.0
H3511 H 0.75105 0.0864 0.81837 0.0
H3512 H 0.74098 0.13391 0.82504 0.0
H3513 H 0.77573 0.15611 0.82689 0.0
H3514 H 0.7188 0.07851 0.84704 0.0
H3515 H 0.71813 0.11086 0.76014 0.0
H3516 H 0.7401 0.11568 0.77446 0.0
H3517 H 0.72702 0.1268 0.78504 0.0
C3518 C 0.77593 0.11409 0.82252 0.0
C3519 C 0.78312 0.13385 0.82431 0.0
C3520 C 0.75625 0.10152 0.82101 0.0
C3521 C 0.74348 0.10855 0.82118 0.0
C3522 C 0.75062 0.12824 0.82452 0.0
H3523 H 0.62558 0.04659 0.76961 0.0
H3524 H 0.65562 0.07117 0.78706 0.0
C3525 C 0.77037 0.14086 0.82584 0.0
C3526 C 0.72301 0.09538 0.81574 0.0
H3527 H 0.68961 0.08415 0.77238 0.0
C3528 C 0.71229 0.07982 0.83086 0.0
C3529 C 0.71457 0.09717 0.79465 0.0
C3530 C 0.72552 0.11343 0.77749 0.0
C3531 C 0.6934 0.06585 0.82534 0.0
C3532 C 0.68522 0.06714 0.80368 0.0
C3533 C 0.6958 0.08306 0.78894 0.0
C3534 C 0.66613 0.05182 0.79528 0.0
C3535 C 0.68244 0.04999 0.84294 0.0
C3536 C 0.66187 0.03268 0.79411 0.0
C3537 C 0.64441 0.01851 0.78482 0.0
C3538 C 0.63112 0.02328 0.77576 0.0
C3539 C 0.63547 0.04244 0.77665 0.0
C3540 C 0.65268 0.05652 0.78656 0.0
H3541 H 0.68757 0.0548 0.86129 0.0
H3542 H 0.66686 0.04481 0.84224 0.0
H3543 H 0.6848 0.03786 0.83897 0.0
H3544 H 0.67223 0.02873 0.79976 0.0
H3545 H 0.64164 0.00394 0.78396 0.0
H3546 H 0.99237 0.64154 0.76722 0.0
H3547 H 0.96694 0.64621 0.78342 0.0
H3548 H 0.92611 0.5866 0.77184 0.0
H3549 H 0.95154 0.58179 0.7553 0.0
H3550 H 0.93124 0.63782 0.75999 0.0
H3551 H 0.92025 0.59709 0.84366 0.0
H3552 H 0.94184 0.6061 0.82627 0.0
H3553 H 0.92028 0.58541 0.81652 0.0
C3554 C 0.97799 0.62939 0.76806 0.0
C3555 C 0.97401 0.61125 0.76008 0.0
C3556 C 0.96347 0.6321 0.77735 0.0
C3557 C 0.94471 0.61671 0.77913 0.0
C3558 C 0.94057 0.59861 0.77093 0.0
H3559 H 0.84038 0.61785 0.81099 0.0
H3560 H 0.86338 0.60709 0.80315 0.0
C3561 C 0.95509 0.59591 0.76138 0.0
C3562 C 0.92951 0.61987 0.78917 0.0
H3563 H 0.90007 0.61011 0.83705 0.0
C3564 C 0.92442 0.63175 0.77681 0.0
C3565 C 0.92066 0.61194 0.81115 0.0
C3566 C 0.92604 0.59951 0.82536 0.0
C3567 C 0.91066 0.63586 0.78581 0.0
C3568 C 0.90194 0.62807 0.80786 0.0
C3569 C 0.90688 0.61609 0.8202 0.0
C3570 C 0.88752 0.63233 0.8179 0.0
C3571 C 0.90541 0.64848 0.77173 0.0
C3572 C 0.89336 0.64963 0.82988 0.0
C3573 C 0.88021 0.65572 0.83459 0.0
C3574 C 0.86111 0.64463 0.82718 0.0
C3575 C 0.855 0.62655 0.81709 0.0
C3576 C 0.86812 0.62044 0.81249 0.0
H3577 H 0.91286 0.65269 0.75437 0.0
H3578 H 0.88973 0.64092 0.7686 0.0
H3579 H 0.90919 0.66163 0.78198 0.0
H3580 H 0.90833 0.65902 0.83405 0.0
H3581 H 0.88534 0.66985 0.84197 0.0
H3582 H 0.32472 0.21702 0.82791 0.0
H3583 H 0.33759 0.25119 0.82041 0.0
H3584 H 0.39436 0.25902 0.81449 0.0
H3585 H 0.3813 0.22463 0.82124 0.0
H3586 H 0.36537 0.28614 0.83832 0.0
H3587 H 0.38544 0.27338 0.74877 0.0
H3588 H 0.37098 0.25409 0.76883 0.0
H3589 H 0.39644 0.2681 0.77302 0.0
C3590 C 0.34004 0.22623 0.82602 0.0
C3591 C 0.3521 0.21838 0.82544 0.0
C3592 C 0.34737 0.2457 0.82151 0.0
C3593 C 0.36687 0.25757 0.81629 0.0
C3594 C 0.37921 0.25004 0.81794 0.0
H3595 H 0.42064 0.37099 0.74884 0.0
H3596 H 0.41556 0.3414 0.76769 0.0
C3597 C 0.37183 0.23051 0.8222 0.0
C3598 C 0.37369 0.27713 0.80685 0.0
H3599 H 0.39119 0.30434 0.75684 0.0
C3600 C 0.37117 0.29018 0.82059 0.0
C3601 C 0.38122 0.28239 0.78364 0.0
C3602 C 0.38356 0.26874 0.76758 0.0
C3603 C 0.3758 0.30827 0.81171 0.0
C3604 C 0.38277 0.31331 0.78826 0.0
C3605 C 0.38584 0.30048 0.77479 0.0
C3606 C 0.386 0.33134 0.77693 0.0
C3607 C 0.37318 0.3218 0.82763 0.0
C3608 C 0.37098 0.33531 0.77529 0.0
C3609 C 0.3739 0.35224 0.76477 0.0
C3610 C 0.39183 0.36545 0.75526 0.0
C3611 C 0.4067 0.36116 0.75612 0.0
C3612 C 0.40382 0.34427 0.76692 0.0
H3613 H 0.37395 0.31864 0.84661 0.0
H3614 H 0.38416 0.33693 0.8241 0.0
H3615 H 0.35884 0.3201 0.82442 0.0
H3616 H 0.35693 0.32528 0.78212 0.0
H3617 H 0.36206 0.35497 0.76415 0.0
H3618 H 0.02642 0.33056 0.54435 0.0
H3619 H 0.99588 0.30543 0.52848 0.0
H3620 H 0.00745 0.26242 0.55624 0.0
H3621 H 0.03753 0.28743 0.57311 0.0
H3622 H 0.98561 0.27673 0.49722 0.0
H3623 H 0.95649 0.24619 0.58567 0.0
H3624 H 0.97842 0.26863 0.58206 0.0
H3625 H 0.97827 0.24634 0.579 0.0
C3626 C 0.02247 0.31574 0.54704 0.0
C3627 C 0.03429 0.31097 0.5602 0.0
C3628 C 0.00503 0.30139 0.53791 0.0
C3629 C 0.99914 0.28201 0.54162 0.0
C3630 C 0.01138 0.27724 0.55377 0.0
H3631 H 0.89225 0.17693 0.51756 0.0
H3632 H 0.92645 0.20012 0.52124 0.0
C3633 C 0.02864 0.29157 0.56327 0.0
C3634 C 0.98 0.26684 0.53335 0.0
H3635 H 0.93799 0.229 0.55259 0.0
C3636 C 0.97519 0.26628 0.50931 0.0
C3637 C 0.96634 0.25327 0.54916 0.0
C3638 C 0.97004 0.25371 0.57543 0.0
C3639 C 0.9572 0.25235 0.50062 0.0
C3640 C 0.94365 0.23874 0.51643 0.0
C3641 C 0.94849 0.23929 0.54041 0.0
C3642 C 0.92398 0.22423 0.50905 0.0
C3643 C 0.95297 0.25223 0.47459 0.0
C3644 C 0.91135 0.22992 0.50003 0.0
C3645 C 0.89186 0.2166 0.49755 0.0
C3646 C 0.88471 0.19749 0.50442 0.0
C3647 C 0.89751 0.19157 0.51196 0.0
C3648 C 0.91699 0.20482 0.51419 0.0
H3649 H 0.96633 0.25946 0.46396 0.0
H3650 H 0.94396 0.23741 0.4679 0.0
H3651 H 0.9451 0.26008 0.47179 0.0
H3652 H 0.91628 0.24485 0.49646 0.0
H3653 H 0.88218 0.22155 0.49218 0.0
H3654 H 0.7184 0.75634 0.5829 0.0
H3655 H 0.74294 0.75135 0.56388 0.0
H3656 H 0.70376 0.69047 0.56321 0.0
H3657 H 0.67907 0.69542 0.58099 0.0
H3658 H 0.76058 0.7319 0.57617 0.0
H3659 H 0.71881 0.69922 0.49489 0.0
H3660 H 0.71183 0.7112 0.51627 0.0
H3661 H 0.70566 0.68664 0.52072 0.0
C3662 C 0.71506 0.74192 0.57862 0.0
C3663 C 0.69669 0.72632 0.58295 0.0
C3664 C 0.72907 0.73908 0.56775 0.0
C3665 C 0.72498 0.72058 0.56133 0.0
C3666 C 0.70702 0.70494 0.56706 0.0
H3667 H 0.77521 0.65586 0.5214 0.0
H3668 H 0.75492 0.66993 0.52819 0.0
C3669 C 0.69297 0.70778 0.57747 0.0
C3670 C 0.73942 0.71735 0.54906 0.0
H3671 H 0.74469 0.69316 0.50273 0.0
C3672 C 0.75728 0.72376 0.55986 0.0
C3673 C 0.7352 0.7069 0.52761 0.0
C3674 C 0.7169 0.70079 0.51408 0.0
C3675 C 0.77045 0.71883 0.55073 0.0
C3676 C 0.76569 0.7074 0.53007 0.0
C3677 C 0.74828 0.70186 0.5186 0.0
C3678 C 0.77744 0.69907 0.52186 0.0
C3679 C 0.78884 0.72497 0.56406 0.0
C3680 C 0.79661 0.71068 0.51491 0.0
C3681 C 0.80822 0.70259 0.51098 0.0
C3682 C 0.80065 0.68281 0.51357 0.0
C3683 C 0.78117 0.67111 0.51881 0.0
C3684 C 0.76965 0.67916 0.52286 0.0
H3685 H 0.78885 0.73097 0.58176 0.0
H3686 H 0.79132 0.71272 0.56642 0.0
H3687 H 0.801 0.73618 0.55377 0.0
H3688 H 0.80281 0.72604 0.51362 0.0
H3689 H 0.82331 0.71185 0.50737 0.0
H3690 H 0.28746 0.11451 0.52683 0.0
H3691 H 0.27451 0.08031 0.53429 0.0
H3692 H 0.3232 0.08296 0.49925 0.0
H3693 H 0.33623 0.11726 0.49178 0.0
H3694 H 0.28175 0.04547 0.4947 0.0
H3695 H 0.31064 0.07249 0.58496 0.0
H3696 H 0.29589 0.08079 0.57147 0.0
H3697 H 0.31892 0.08773 0.55915 0.0
C3698 C 0.29492 0.10757 0.51975 0.0
C3699 C 0.3128 0.11843 0.5087 0.0
C3700 C 0.28758 0.08809 0.52414 0.0
C3701 C 0.29802 0.07922 0.51754 0.0
C3702 C 0.31493 0.08958 0.5044 0.0
H3703 H 0.30656 0.98418 0.57012 0.0
H3704 H 0.31102 0.01413 0.55355 0.0
C3705 C 0.32228 0.10911 0.49997 0.0
C3706 C 0.29297 0.06032 0.52762 0.0
H3707 H 0.29574 0.03926 0.57884 0.0
C3708 C 0.28466 0.04404 0.51311 0.0
C3709 C 0.29695 0.05861 0.55162 0.0
C3710 C 0.30619 0.07579 0.5678 0.0
C3711 C 0.28021 0.026 0.5221 0.0
C3712 C 0.28428 0.02435 0.54605 0.0
C3713 C 0.29253 0.04062 0.56053 0.0
C3714 C 0.2812 0.00606 0.55604 0.0
C3715 C 0.27157 0.00883 0.50595 0.0
C3716 C 0.26295 0.99173 0.56326 0.0
C3717 C 0.26036 0.97461 0.57303 0.0
C3718 C 0.27595 0.97152 0.57551 0.0
C3719 C 0.29422 0.98605 0.56841 0.0
C3720 C 0.29681 0.00316 0.55888 0.0
H3721 H 0.26999 0.01262 0.48749 0.0
H3722 H 0.28065 0.00208 0.50586 0.0
H3723 H 0.25726 0.99805 0.51272 0.0
H3724 H 0.25076 0.99381 0.56137 0.0
H3725 H 0.24614 0.96376 0.57842 0.0
loop_
_geom_bond_atom_site_label_1
_geom_bond_atom_site_label_2
_geom_bond_distance
_geom_bond_site_symmetry_2
_ccdc_geom_bond_type
C0 C1 1.359 . S
C0 N5 1.330 . S
C0 C61 1.504 . S
C1 C0 1.359 . S
C1 C2 1.366 . S
C1 H63 0.929 . S
C2 C1 1.366 . S
C2 C3 1.415 . S
C2 H64 0.932 . S
C3 C2 1.415 . S
C3 C4 1.366 . S
C3 H65 0.931 . S
C4 C3 1.366 . S
C4 N5 1.325 . S
C4 C6 1.516 . S
N5 C0 1.330 . S
N5 C4 1.325 . S
N5 Co21 1.869 . S
C6 C4 1.516 . S
C6 N30 1.316 . S
C6 O53 1.263 . S
C7 C8 1.421 . S
C7 C12 1.360 . S
C7 N30 1.436 . S
C8 C7 1.421 . S
C8 C9 1.379 . S
C8 H66 0.929 . S
C9 C8 1.379 . S
C9 C10 1.417 . S
C10 C9 1.417 . S
C10 C11 1.352 . S
C10 H67 0.929 . S
C11 C10 1.352 . S
C11 C12 1.393 . S
C12 C7 1.360 . S
C12 C11 1.393 . S
C12 H68 0.931 . S
Cd13 O33 2.329 . S
Cd13 O35 2.350 . S
Cd13 O36 2.277 . S
Cd13 O38 2.173 . S
Cd13 O42 2.263 . S
Cd13 O53 2.366 . S
Cd14 O32 2.352 . S
Cd14 O39 2.250 . S
Cd14 O43 2.308 . S
C15 C19 1.403 . S
C15 C20 1.370 . S
C15 N31 1.423 . S
C16 C17 1.389 . S
C16 C20 1.389 . S
C17 C16 1.389 . S
C17 C18 1.379 . S
C17 H69 0.929 . S
C18 C17 1.379 . S
C18 C19 1.405 . S
C19 C15 1.403 . S
C19 C18 1.405 . S
C19 H70 0.932 . S
C20 C15 1.370 . S
C20 C16 1.389 . S
C20 H71 0.931 . S
Co21 N5 1.869 . S
Co21 N22 1.955 . S
Co21 N23 1.864 . S
Co21 N29 1.958 . S
Co21 N30 1.953 . S
Co21 N31 1.974 . S
N22 Co21 1.955 . S
N22 C40 1.329 . S
N22 C55 1.432 . S
N23 Co21 1.864 . S
N23 C24 1.327 . S
N23 C28 1.342 . S
C24 N23 1.327 . S
C24 C25 1.407 . S
C24 C40 1.481 . S
C25 C24 1.407 . S
C25 C26 1.364 . S
C25 H72 0.930 . S
C26 C25 1.364 . S
C26 C27 1.390 . S
C26 H73 0.931 . S
C27 C26 1.390 . S
C27 C28 1.346 . S
C27 H74 0.930 . S
C28 N23 1.342 . S
C28 C27 1.346 . S
C28 C44 1.516 . S
N29 Co21 1.958 . S
N29 C44 1.324 . S
N29 C46 1.427 . S
N30 C6 1.316 . S
N30 C7 1.436 . S
N30 Co21 1.953 . S
N31 C15 1.423 . S
N31 Co21 1.974 . S
N31 C61 1.309 . S
O32 Cd14 2.352 . S
O32 C52 1.235 . S
O33 Cd13 2.329 . S
O33 C52 1.270 . S
C34 O35 1.270 . S
C34 O36 1.248 . S
O35 Cd13 2.350 . S
O35 C34 1.270 . S
O36 Cd13 2.277 . S
O36 C34 1.248 . S
C37 O38 1.277 . S
C37 O39 1.230 . S
O38 Cd13 2.173 . S
O38 C37 1.277 . S
O39 Cd14 2.250 . S
O39 C37 1.230 . S
C40 N22 1.329 . S
C40 C24 1.481 . S
C40 O41 1.246 . S
O41 C40 1.246 . S
O42 Cd13 2.263 . S
O42 C54 1.258 . S
O43 Cd14 2.308 . S
O43 C54 1.274 . S
C44 C28 1.516 . S
C44 N29 1.324 . S
C44 O45 1.238 . S
O45 C44 1.238 . S
C46 N29 1.427 . S
C46 C47 1.394 . S
C46 C51 1.395 . S
C47 C46 1.394 . S
C47 C48 1.380 . S
C47 H75 0.929 . S
C48 C47 1.380 . S
C48 C49 1.384 . S
C48 C54 1.495 . S
C49 C48 1.384 . S
C49 C50 1.382 . S
C49 H76 0.930 . S
C50 C49 1.382 . S
C50 C51 1.398 . S
C51 C46 1.395 . S
C51 C50 1.398 . S
C51 H77 0.930 . S
C52 O32 1.235 . S
C52 O33 1.270 . S
O53 C6 1.263 . S
O53 Cd13 2.366 . S
C54 O42 1.258 . S
C54 O43 1.274 . S
C54 C48 1.495 . S
C55 N22 1.432 . S
C55 C56 1.381 . S
C55 C60 1.385 . S
C56 C55 1.381 . S
C56 C57 1.371 . S
C56 H78 0.932 . S
C57 C56 1.371 . S
C57 C58 1.400 . S
C58 C57 1.400 . S
C58 C59 1.351 . S
C58 H79 0.930 . S
C59 C58 1.351 . S
C59 C60 1.388 . S
C60 C55 1.385 . S
C60 C59 1.388 . S
C60 H80 0.929 . S
C61 C0 1.504 . S
C61 N31 1.309 . S
C61 O62 1.258 . S
O62 C61 1.258 . S
H63 C1 0.929 . S
H64 C2 0.932 . S
H65 C3 0.931 . S
H66 C8 0.929 . S
H67 C10 0.929 . S
H68 C12 0.931 . S
H69 C17 0.929 . S
H70 C19 0.932 . S
H71 C20 0.931 . S
H72 C25 0.930 . S
H73 C26 0.931 . S
H74 C27 0.930 . S
H75 C47 0.929 . S
H76 C49 0.930 . S
H77 C51 0.930 . S
H78 C56 0.932 . S
H79 C58 0.930 . S
H80 C60 0.929 . S
C81 C82 1.359 . S
C81 N86 1.330 . S
C81 C142 1.504 . S
C82 C81 1.359 . S
C82 C83 1.366 . S
C82 H144 0.929 . S
C83 C82 1.366 . S
C83 C84 1.415 . S
C83 H145 0.932 . S
C84 C83 1.415 . S
C84 C85 1.366 . S
C84 H146 0.931 . S
C85 C84 1.366 . S
C85 N86 1.325 . S
C85 C87 1.516 . S
N86 C81 1.330 . S
N86 C85 1.325 . S
N86 Co102 1.869 . S
C87 C85 1.516 . S
C87 N111 1.316 . S
C87 O134 1.263 . S
C88 C89 1.421 . S
C88 C93 1.360 . S
C88 N111 1.436 . S
C89 C88 1.421 . S
C89 C90 1.379 . S
C89 H147 0.929 . S
C90 C89 1.379 . S
C90 C91 1.417 . S
C91 C90 1.417 . S
C91 C92 1.352 . S
C91 H148 0.929 . S
C92 C91 1.352 . S
C92 C93 1.393 . S
C93 C88 1.360 . S
C93 C92 1.393 . S
C93 H149 0.931 . S
Cd94 O114 2.329 . S
Cd94 O116 2.350 . S
Cd94 O117 2.277 . S
Cd94 O119 2.173 . S
Cd94 O123 2.263 . S
Cd94 O134 2.366 . S
Cd95 O113 2.352 . S
Cd95 O120 2.250 . S
Cd95 O124 2.308 . S
C96 C100 1.403 . S
C96 C101 1.370 . S
C96 N112 1.423 . S
C97 C98 1.389 . S
C97 C101 1.389 . S
C98 C97 1.389 . S
C98 C99 1.379 . S
C98 H150 0.929 . S
C99 C98 1.379 . S
C99 C100 1.405 . S
C100 C96 1.403 . S
C100 C99 1.405 . S
C100 H151 0.932 . S
C101 C96 1.370 . S
C101 C97 1.389 . S
C101 H152 0.931 . S
Co102 N86 1.869 . S
Co102 N103 1.955 . S
Co102 N104 1.864 . S
Co102 N110 1.958 . S
Co102 N111 1.953 . S
Co102 N112 1.974 . S
N103 Co102 1.955 . S
N103 C121 1.329 . S
N103 C136 1.432 . S
N104 Co102 1.864 . S
N104 C105 1.327 . S
N104 C109 1.342 . S
C105 N104 1.327 . S
C105 C106 1.407 . S
C105 C121 1.481 . S
C106 C105 1.407 . S
C106 C107 1.364 . S
C106 H153 0.930 . S
C107 C106 1.364 . S
C107 C108 1.390 . S
C107 H154 0.931 . S
C108 C107 1.390 . S
C108 C109 1.346 . S
C108 H155 0.930 . S
C109 N104 1.342 . S
C109 C108 1.346 . S
C109 C125 1.516 . S
N110 Co102 1.958 . S
N110 C125 1.324 . S
N110 C127 1.427 . S
N111 C87 1.316 . S
N111 C88 1.436 . S
N111 Co102 1.953 . S
N112 C96 1.423 . S
N112 Co102 1.974 . S
N112 C142 1.309 . S
O113 Cd95 2.352 . S
O113 C133 1.235 . S
O114 Cd94 2.329 . S
O114 C133 1.270 . S
C115 O116 1.270 . S
C115 O117 1.248 . S
O116 Cd94 2.350 . S
O116 C115 1.270 . S
O117 Cd94 2.277 . S
O117 C115 1.248 . S
C118 O119 1.277 . S
C118 O120 1.230 . S
O119 Cd94 2.173 . S
O119 C118 1.277 . S
O120 Cd95 2.250 . S
O120 C118 1.230 . S
C121 N103 1.329 . S
C121 C105 1.481 . S
C121 O122 1.246 . S
O122 C121 1.246 . S
O123 Cd94 2.263 . S
O123 C135 1.258 . S
O124 Cd95 2.308 . S
O124 C135 1.274 . S
C125 C109 1.516 . S
C125 N110 1.324 . S
C125 O126 1.238 . S
O126 C125 1.238 . S
C127 N110 1.427 . S
C127 C128 1.394 . S
C127 C132 1.395 . S
C128 C127 1.394 . S
C128 C129 1.380 . S
C128 H156 0.929 . S
C129 C128 1.380 . S
C129 C130 1.384 . S
C129 C135 1.495 . S
C130 C129 1.384 . S
C130 C131 1.382 . S
C130 H157 0.930 . S
C131 C130 1.382 . S
C131 C132 1.398 . S
C132 C127 1.395 . S
C132 C131 1.398 . S
C132 H158 0.930 . S
C133 O113 1.235 . S
C133 O114 1.270 . S
O134 C87 1.263 . S
O134 Cd94 2.366 . S
C135 O123 1.258 . S
C135 O124 1.274 . S
C135 C129 1.495 . S
C136 N103 1.432 . S
C136 C137 1.381 . S
C136 C141 1.385 . S
C137 C136 1.381 . S
C137 C138 1.371 . S
C137 H159 0.932 . S
C138 C137 1.371 . S
C138 C139 1.400 . S
C139 C138 1.400 . S
C139 C140 1.351 . S
C139 H160 0.930 . S
C140 C139 1.351 . S
C140 C141 1.388 . S
C141 C136 1.385 . S
C141 C140 1.388 . S
C141 H161 0.929 . S
C142 C81 1.504 . S
C142 N112 1.309 . S
C142 O143 1.258 . S
O143 C142 1.258 . S
H144 C82 0.929 . S
H145 C83 0.932 . S
H146 C84 0.931 . S
H147 C89 0.929 . S
H148 C91 0.929 . S
H149 C93 0.931 . S
H150 C98 0.929 . S
H151 C100 0.932 . S
H152 C101 0.931 . S
H153 C106 0.930 . S
H154 C107 0.931 . S
H155 C108 0.930 . S
H156 C128 0.929 . S
H157 C130 0.930 . S
H158 C132 0.930 . S
H159 C137 0.932 . S
H160 C139 0.930 . S
H161 C141 0.929 . S
C162 C163 1.359 . S
C162 N167 1.330 . S
C162 C223 1.504 . S
C163 C162 1.359 . S
C163 C164 1.366 . S
C163 H225 0.929 . S
C164 C163 1.366 . S
C164 C165 1.415 . S
C164 H226 0.932 . S
C165 C164 1.415 . S
C165 C166 1.366 . S
C165 H227 0.931 . S
C166 C165 1.366 . S
C166 N167 1.325 . S
C166 C168 1.516 . S
N167 C162 1.330 . S
N167 C166 1.325 . S
N167 Co183 1.869 . S
C168 C166 1.516 . S
C168 N192 1.316 . S
C168 O215 1.263 . S
C169 C170 1.421 . S
C169 C174 1.360 . S
C169 N192 1.436 . S
C170 C169 1.421 . S
C170 C171 1.379 . S
C170 H228 0.929 . S
C171 C170 1.379 . S
C171 C172 1.417 . S
C172 C171 1.417 . S
C172 C173 1.352 . S
C172 H229 0.929 . S
C173 C172 1.352 . S
C173 C174 1.393 . S
C174 C169 1.360 . S
C174 C173 1.393 . S
C174 H230 0.931 . S
Cd175 O195 2.329 . S
Cd175 O197 2.350 . S
Cd175 O198 2.277 . S
Cd175 O200 2.173 . S
Cd175 O204 2.263 . S
Cd175 O215 2.366 . S
Cd176 O194 2.352 . S
Cd176 O201 2.250 . S
Cd176 O205 2.308 . S
C177 C181 1.403 . S
C177 C182 1.370 . S
C177 N193 1.423 . S
C178 C179 1.389 . S
C178 C182 1.389 . S
C179 C178 1.389 . S
C179 C180 1.379 . S
C179 H231 0.929 . S
C180 C179 1.379 . S
C180 C181 1.405 . S
C181 C177 1.403 . S
C181 C180 1.405 . S
C181 H232 0.932 . S
C182 C177 1.370 . S
C182 C178 1.389 . S
C182 H233 0.931 . S
Co183 N167 1.869 . S
Co183 N184 1.955 . S
Co183 N185 1.864 . S
Co183 N191 1.958 . S
Co183 N192 1.953 . S
Co183 N193 1.974 . S
N184 Co183 1.955 . S
N184 C202 1.329 . S
N184 C217 1.432 . S
N185 Co183 1.864 . S
N185 C186 1.327 . S
N185 C190 1.342 . S
C186 N185 1.327 . S
C186 C187 1.407 . S
C186 C202 1.481 . S
C187 C186 1.407 . S
C187 C188 1.364 . S
C187 H234 0.930 . S
C188 C187 1.364 . S
C188 C189 1.390 . S
C188 H235 0.931 . S
C189 C188 1.390 . S
C189 C190 1.346 . S
C189 H236 0.930 . S
C190 N185 1.342 . S
C190 C189 1.346 . S
C190 C206 1.516 . S
N191 Co183 1.958 . S
N191 C206 1.324 . S
N191 C208 1.427 . S
N192 C168 1.316 . S
N192 C169 1.436 . S
N192 Co183 1.953 . S
N193 C177 1.423 . S
N193 Co183 1.974 . S
N193 C223 1.309 . S
O194 Cd176 2.352 . S
O194 C214 1.235 . S
O195 Cd175 2.329 . S
O195 C214 1.270 . S
C196 O197 1.270 . S
C196 O198 1.248 . S
O197 Cd175 2.350 . S
O197 C196 1.270 . S
O198 Cd175 2.277 . S
O198 C196 1.248 . S
C199 O200 1.277 . S
C199 O201 1.230 . S
O200 Cd175 2.173 . S
O200 C199 1.277 . S
O201 Cd176 2.250 . S
O201 C199 1.230 . S
C202 N184 1.329 . S
C202 C186 1.481 . S
C202 O203 1.246 . S
O203 C202 1.246 . S
O204 Cd175 2.263 . S
O204 C216 1.258 . S
O205 Cd176 2.308 . S
O205 C216 1.274 . S
C206 C190 1.516 . S
C206 N191 1.324 . S
C206 O207 1.238 . S
O207 C206 1.238 . S
C208 N191 1.427 . S
C208 C209 1.394 . S
C208 C213 1.395 . S
C209 C208 1.394 . S
C209 C210 1.380 . S
C209 H237 0.929 . S
C210 C209 1.380 . S
C210 C211 1.384 . S
C210 C216 1.495 . S
C211 C210 1.384 . S
C211 C212 1.382 . S
C211 H238 0.930 . S
C212 C211 1.382 . S
C212 C213 1.398 . S
C213 C208 1.395 . S
C213 C212 1.398 . S
C213 H239 0.930 . S
C214 O194 1.235 . S
C214 O195 1.270 . S
O215 C168 1.263 . S
O215 Cd175 2.366 . S
C216 O204 1.258 . S
C216 O205 1.274 . S
C216 C210 1.495 . S
C217 N184 1.432 . S
C217 C218 1.381 . S
C217 C222 1.385 . S
C218 C217 1.381 . S
C218 C219 1.371 . S
C218 H240 0.932 . S
C219 C218 1.371 . S
C219 C220 1.400 . S
C220 C219 1.400 . S
C220 C221 1.351 . S
C220 H241 0.930 . S
C221 C220 1.351 . S
C221 C222 1.388 . S
C222 C217 1.385 . S
C222 C221 1.388 . S
C222 H242 0.929 . S
C223 C162 1.504 . S
C223 N193 1.309 . S
C223 O224 1.258 . S
O224 C223 1.258 . S
H225 C163 0.929 . S
H226 C164 0.932 . S
H227 C165 0.931 . S
H228 C170 0.929 . S
H229 C172 0.929 . S
H230 C174 0.931 . S
H231 C179 0.929 . S
H232 C181 0.932 . S
H233 C182 0.931 . S
H234 C187 0.930 . S
H235 C188 0.931 . S
H236 C189 0.930 . S
H237 C209 0.929 . S
H238 C211 0.930 . S
H239 C213 0.930 . S
H240 C218 0.932 . S
H241 C220 0.930 . S
H242 C222 0.929 . S
C243 C244 1.359 . S
C243 N248 1.330 . S
C243 C304 1.504 . S
C244 C243 1.359 . S
C244 C245 1.366 . S
C244 H306 0.929 . S
C245 C244 1.366 . S
C245 C246 1.415 . S
C245 H307 0.932 . S
C246 C245 1.415 . S
C246 C247 1.366 . S
C246 H308 0.931 . S
C247 C246 1.366 . S
C247 N248 1.325 . S
C247 C249 1.516 . S
N248 C243 1.330 . S
N248 C247 1.325 . S
N248 Co264 1.869 . S
C249 C247 1.516 . S
C249 N273 1.316 . S
C249 O296 1.263 . S
C250 C251 1.421 . S
C250 C255 1.360 . S
C250 N273 1.436 . S
C251 C250 1.421 . S
C251 C252 1.379 . S
C251 H309 0.929 . S
C252 C251 1.379 . S
C252 C253 1.417 . S
C253 C252 1.417 . S
C253 C254 1.352 . S
C253 H310 0.929 . S
C254 C253 1.352 . S
C254 C255 1.393 . S
C255 C250 1.360 . S
C255 C254 1.393 . S
C255 H311 0.931 . S
Cd256 O276 2.329 . S
Cd256 O278 2.350 . S
Cd256 O279 2.277 . S
Cd256 O281 2.173 . S
Cd256 O285 2.263 . S
Cd256 O296 2.366 . S
Cd257 O275 2.352 . S
Cd257 O282 2.250 . S
Cd257 O286 2.308 . S
C258 C262 1.403 . S
C258 C263 1.370 . S
C258 N274 1.423 . S
C259 C260 1.389 . S
C259 C263 1.389 . S
C260 C259 1.389 . S
C260 C261 1.379 . S
C260 H312 0.929 . S
C261 C260 1.379 . S
C261 C262 1.405 . S
C262 C258 1.403 . S
C262 C261 1.405 . S
C262 H313 0.932 . S
C263 C258 1.370 . S
C263 C259 1.389 . S
C263 H314 0.931 . S
Co264 N248 1.869 . S
Co264 N265 1.955 . S
Co264 N266 1.864 . S
Co264 N272 1.958 . S
Co264 N273 1.953 . S
Co264 N274 1.974 . S
N265 Co264 1.955 . S
N265 C283 1.329 . S
N265 C298 1.432 . S
N266 Co264 1.864 . S
N266 C267 1.327 . S
N266 C271 1.342 . S
C267 N266 1.327 . S
C267 C268 1.407 . S
C267 C283 1.481 . S
C268 C267 1.407 . S
C268 C269 1.364 . S
C268 H315 0.930 . S
C269 C268 1.364 . S
C269 C270 1.390 . S
C269 H316 0.931 . S
C270 C269 1.390 . S
C270 C271 1.346 . S
C270 H317 0.930 . S
C271 N266 1.342 . S
C271 C270 1.346 . S
C271 C287 1.516 . S
N272 Co264 1.958 . S
N272 C287 1.324 . S
N272 C289 1.427 . S
N273 C249 1.316 . S
N273 C250 1.436 . S
N273 Co264 1.953 . S
N274 C258 1.423 . S
N274 Co264 1.974 . S
N274 C304 1.309 . S
O275 Cd257 2.352 . S
O275 C295 1.235 . S
O276 Cd256 2.329 . S
O276 C295 1.270 . S
C277 O278 1.270 . S
C277 O279 1.248 . S
O278 Cd256 2.350 . S
O278 C277 1.270 . S
O279 Cd256 2.277 . S
O279 C277 1.248 . S
C280 O281 1.277 . S
C280 O282 1.230 . S
O281 Cd256 2.173 . S
O281 C280 1.277 . S
O282 Cd257 2.250 . S
O282 C280 1.230 . S
C283 N265 1.329 . S
C283 C267 1.481 . S
C283 O284 1.246 . S
O284 C283 1.246 . S
O285 Cd256 2.263 . S
O285 C297 1.258 . S
O286 Cd257 2.308 . S
O286 C297 1.274 . S
C287 C271 1.516 . S
C287 N272 1.324 . S
C287 O288 1.238 . S
O288 C287 1.238 . S
C289 N272 1.427 . S
C289 C290 1.394 . S
C289 C294 1.395 . S
C290 C289 1.394 . S
C290 C291 1.380 . S
C290 H318 0.929 . S
C291 C290 1.380 . S
C291 C292 1.384 . S
C291 C297 1.495 . S
C292 C291 1.384 . S
C292 C293 1.382 . S
C292 H319 0.930 . S
C293 C292 1.382 . S
C293 C294 1.398 . S
C294 C289 1.395 . S
C294 C293 1.398 . S
C294 H320 0.930 . S
C295 O275 1.235 . S
C295 O276 1.270 . S
O296 C249 1.263 . S
O296 Cd256 2.366 . S
C297 O285 1.258 . S
C297 O286 1.274 . S
C297 C291 1.495 . S
C298 N265 1.432 . S
C298 C299 1.381 . S
C298 C303 1.385 . S
C299 C298 1.381 . S
C299 C300 1.371 . S
C299 H321 0.932 . S
C300 C299 1.371 . S
C300 C301 1.400 . S
C301 C300 1.400 . S
C301 C302 1.351 . S
C301 H322 0.930 . S
C302 C301 1.351 . S
C302 C303 1.388 . S
C303 C298 1.385 . S
C303 C302 1.388 . S
C303 H323 0.929 . S
C304 C243 1.504 . S
C304 N274 1.309 . S
C304 O305 1.258 . S
O305 C304 1.258 . S
H306 C244 0.929 . S
H307 C245 0.932 . S
H308 C246 0.931 . S
H309 C251 0.929 . S
H310 C253 0.929 . S
H311 C255 0.931 . S
H312 C260 0.929 . S
H313 C262 0.932 . S
H314 C263 0.931 . S
H315 C268 0.930 . S
H316 C269 0.931 . S
H317 C270 0.930 . S
H318 C290 0.929 . S
H319 C292 0.930 . S
H320 C294 0.930 . S
H321 C299 0.932 . S
H322 C301 0.930 . S
H323 C303 0.929 . S
C324 C325 1.359 . S
C324 N329 1.330 . S
C324 C385 1.504 . S
C325 C324 1.359 . S
C325 C326 1.366 . S
C325 H387 0.929 . S
C326 C325 1.366 . S
C326 C327 1.415 . S
C326 H388 0.932 . S
C327 C326 1.415 . S
C327 C328 1.366 . S
C327 H389 0.931 . S
C328 C327 1.366 . S
C328 N329 1.325 . S
C328 C330 1.516 . S
N329 C324 1.330 . S
N329 C328 1.325 . S
N329 Co345 1.869 . S
C330 C328 1.516 . S
C330 N354 1.316 . S
C330 O377 1.263 . S
C331 C332 1.421 . S
C331 C336 1.360 . S
C331 N354 1.436 . S
C332 C331 1.421 . S
C332 C333 1.379 . S
C332 H390 0.929 . S
C333 C332 1.379 . S
C333 C334 1.417 . S
C334 C333 1.417 . S
C334 C335 1.352 . S
C334 H391 0.929 . S
C335 C334 1.352 . S
C335 C336 1.393 . S
C336 C331 1.360 . S
C336 C335 1.393 . S
C336 H392 0.931 . S
Cd337 O357 2.329 . S
Cd337 O359 2.350 . S
Cd337 O360 2.277 . S
Cd337 O362 2.173 . S
Cd337 O366 2.263 . S
Cd337 O377 2.366 . S
Cd338 O356 2.352 . S
Cd338 O363 2.250 . S
Cd338 O367 2.308 . S
C339 C343 1.403 . S
C339 C344 1.370 . S
C339 N355 1.423 . S
C340 C341 1.389 . S
C340 C344 1.389 . S
C341 C340 1.389 . S
C341 C342 1.379 . S
C341 H393 0.929 . S
C342 C341 1.379 . S
C342 C343 1.405 . S
C343 C339 1.403 . S
C343 C342 1.405 . S
C343 H394 0.932 . S
C344 C339 1.370 . S
C344 C340 1.389 . S
C344 H395 0.931 . S
Co345 N329 1.869 . S
Co345 N346 1.955 . S
Co345 N347 1.864 . S
Co345 N353 1.958 . S
Co345 N354 1.953 . S
Co345 N355 1.974 . S
N346 Co345 1.955 . S
N346 C364 1.329 . S
N346 C379 1.432 . S
N347 Co345 1.864 . S
N347 C348 1.327 . S
N347 C352 1.342 . S
C348 N347 1.327 . S
C348 C349 1.407 . S
C348 C364 1.481 . S
C349 C348 1.407 . S
C349 C350 1.364 . S
C349 H396 0.930 . S
C350 C349 1.364 . S
C350 C351 1.390 . S
C350 H397 0.931 . S
C351 C350 1.390 . S
C351 C352 1.346 . S
C351 H398 0.930 . S
C352 N347 1.342 . S
C352 C351 1.346 . S
C352 C368 1.516 . S
N353 Co345 1.958 . S
N353 C368 1.324 . S
N353 C370 1.427 . S
N354 C330 1.316 . S
N354 C331 1.436 . S
N354 Co345 1.953 . S
N355 C339 1.423 . S
N355 Co345 1.974 . S
N355 C385 1.309 . S
O356 Cd338 2.352 . S
O356 C376 1.235 . S
O357 Cd337 2.329 . S
O357 C376 1.270 . S
C358 O359 1.270 . S
C358 O360 1.248 . S
O359 Cd337 2.350 . S
O359 C358 1.270 . S
O360 Cd337 2.277 . S
O360 C358 1.248 . S
C361 O362 1.277 . S
C361 O363 1.230 . S
O362 Cd337 2.173 . S
O362 C361 1.277 . S
O363 Cd338 2.250 . S
O363 C361 1.230 . S
C364 N346 1.329 . S
C364 C348 1.481 . S
C364 O365 1.246 . S
O365 C364 1.246 . S
O366 Cd337 2.263 . S
O366 C378 1.258 . S
O367 Cd338 2.308 . S
O367 C378 1.274 . S
C368 C352 1.516 . S
C368 N353 1.324 . S
C368 O369 1.238 . S
O369 C368 1.238 . S
C370 N353 1.427 . S
C370 C371 1.394 . S
C370 C375 1.395 . S
C371 C370 1.394 . S
C371 C372 1.380 . S
C371 H399 0.929 . S
C372 C371 1.380 . S
C372 C373 1.384 . S
C372 C378 1.495 . S
C373 C372 1.384 . S
C373 C374 1.382 . S
C373 H400 0.930 . S
C374 C373 1.382 . S
C374 C375 1.398 . S
C375 C370 1.395 . S
C375 C374 1.398 . S
C375 H401 0.930 . S
C376 O356 1.235 . S
C376 O357 1.270 . S
O377 C330 1.263 . S
O377 Cd337 2.366 . S
C378 O366 1.258 . S
C378 O367 1.274 . S
C378 C372 1.495 . S
C379 N346 1.432 . S
C379 C380 1.381 . S
C379 C384 1.385 . S
C380 C379 1.381 . S
C380 C381 1.371 . S
C380 H402 0.932 . S
C381 C380 1.371 . S
C381 C382 1.400 . S
C382 C381 1.400 . S
C382 C383 1.351 . S
C382 H403 0.930 . S
C383 C382 1.351 . S
C383 C384 1.388 . S
C384 C379 1.385 . S
C384 C383 1.388 . S
C384 H404 0.929 . S
C385 C324 1.504 . S
C385 N355 1.309 . S
C385 O386 1.258 . S
O386 C385 1.258 . S
H387 C325 0.929 . S
H388 C326 0.932 . S
H389 C327 0.931 . S
H390 C332 0.929 . S
H391 C334 0.929 . S
H392 C336 0.931 . S
H393 C341 0.929 . S
H394 C343 0.932 . S
H395 C344 0.931 . S
H396 C349 0.930 . S
H397 C350 0.931 . S
H398 C351 0.930 . S
H399 C371 0.929 . S
H400 C373 0.930 . S
H401 C375 0.930 . S
H402 C380 0.932 . S
H403 C382 0.930 . S
H404 C384 0.929 . S
C405 C406 1.359 . S
C405 N410 1.330 . S
C405 C466 1.504 . S
C406 C405 1.359 . S
C406 C407 1.366 . S
C406 H468 0.929 . S
C407 C406 1.366 . S
C407 C408 1.415 . S
C407 H469 0.932 . S
C408 C407 1.415 . S
C408 C409 1.366 . S
C408 H470 0.931 . S
C409 C408 1.366 . S
C409 N410 1.325 . S
C409 C411 1.516 . S
N410 C405 1.330 . S
N410 C409 1.325 . S
N410 Co426 1.869 . S
C411 C409 1.516 . S
C411 N435 1.316 . S
C411 O458 1.263 . S
C412 C413 1.421 . S
C412 C417 1.360 . S
C412 N435 1.436 . S
C413 C412 1.421 . S
C413 C414 1.379 . S
C413 H471 0.929 . S
C414 C413 1.379 . S
C414 C415 1.417 . S
C415 C414 1.417 . S
C415 C416 1.352 . S
C415 H472 0.929 . S
C416 C415 1.352 . S
C416 C417 1.393 . S
C417 C412 1.360 . S
C417 C416 1.393 . S
C417 H473 0.931 . S
Cd418 O438 2.329 . S
Cd418 O440 2.350 . S
Cd418 O441 2.277 . S
Cd418 O443 2.173 . S
Cd418 O447 2.263 . S
Cd418 O458 2.366 . S
Cd419 O437 2.352 . S
Cd419 O444 2.250 . S
Cd419 O448 2.308 . S
C420 C424 1.403 . S
C420 C425 1.370 . S
C420 N436 1.423 . S
C421 C422 1.389 . S
C421 C425 1.389 . S
C422 C421 1.389 . S
C422 C423 1.379 . S
C422 H474 0.929 . S
C423 C422 1.379 . S
C423 C424 1.405 . S
C424 C420 1.403 . S
C424 C423 1.405 . S
C424 H475 0.932 . S
C425 C420 1.370 . S
C425 C421 1.389 . S
C425 H476 0.931 . S
Co426 N410 1.869 . S
Co426 N427 1.955 . S
Co426 N428 1.864 . S
Co426 N434 1.958 . S
Co426 N435 1.953 . S
Co426 N436 1.974 . S
N427 Co426 1.955 . S
N427 C445 1.329 . S
N427 C460 1.432 . S
N428 Co426 1.864 . S
N428 C429 1.327 . S
N428 C433 1.342 . S
C429 N428 1.327 . S
C429 C430 1.407 . S
C429 C445 1.481 . S
C430 C429 1.407 . S
C430 C431 1.364 . S
C430 H477 0.930 . S
C431 C430 1.364 . S
C431 C432 1.390 . S
C431 H478 0.931 . S
C432 C431 1.390 . S
C432 C433 1.346 . S
C432 H479 0.930 . S
C433 N428 1.342 . S
C433 C432 1.346 . S
C433 C449 1.516 . S
N434 Co426 1.958 . S
N434 C449 1.324 . S
N434 C451 1.427 . S
N435 C411 1.316 . S
N435 C412 1.436 . S
N435 Co426 1.953 . S
N436 C420 1.423 . S
N436 Co426 1.974 . S
N436 C466 1.309 . S
O437 Cd419 2.352 . S
O437 C457 1.235 . S
O438 Cd418 2.329 . S
O438 C457 1.270 . S
C439 O440 1.270 . S
C439 O441 1.248 . S
O440 Cd418 2.350 . S
O440 C439 1.270 . S
O441 Cd418 2.277 . S
O441 C439 1.248 . S
C442 O443 1.277 . S
C442 O444 1.230 . S
O443 Cd418 2.173 . S
O443 C442 1.277 . S
O444 Cd419 2.250 . S
O444 C442 1.230 . S
C445 N427 1.329 . S
C445 C429 1.481 . S
C445 O446 1.246 . S
O446 C445 1.246 . S
O447 Cd418 2.263 . S
O447 C459 1.258 . S
O448 Cd419 2.308 . S
O448 C459 1.274 . S
C449 C433 1.516 . S
C449 N434 1.324 . S
C449 O450 1.238 . S
O450 C449 1.238 . S
C451 N434 1.427 . S
C451 C452 1.394 . S
C451 C456 1.395 . S
C452 C451 1.394 . S
C452 C453 1.380 . S
C452 H480 0.929 . S
C453 C452 1.380 . S
C453 C454 1.384 . S
C453 C459 1.495 . S
C454 C453 1.384 . S
C454 C455 1.382 . S
C454 H481 0.930 . S
C455 C454 1.382 . S
C455 C456 1.398 . S
C456 C451 1.395 . S
C456 C455 1.398 . S
C456 H482 0.930 . S
C457 O437 1.235 . S
C457 O438 1.270 . S
O458 C411 1.263 . S
O458 Cd418 2.366 . S
C459 O447 1.258 . S
C459 O448 1.274 . S
C459 C453 1.495 . S
C460 N427 1.432 . S
C460 C461 1.381 . S
C460 C465 1.385 . S
C461 C460 1.381 . S
C461 C462 1.371 . S
C461 H483 0.932 . S
C462 C461 1.371 . S
C462 C463 1.400 . S
C463 C462 1.400 . S
C463 C464 1.351 . S
C463 H484 0.930 . S
C464 C463 1.351 . S
C464 C465 1.388 . S
C465 C460 1.385 . S
C465 C464 1.388 . S
C465 H485 0.929 . S
C466 C405 1.504 . S
C466 N436 1.309 . S
C466 O467 1.258 . S
O467 C466 1.258 . S
H468 C406 0.929 . S
H469 C407 0.932 . S
H470 C408 0.931 . S
H471 C413 0.929 . S
H472 C415 0.929 . S
H473 C417 0.931 . S
H474 C422 0.929 . S
H475 C424 0.932 . S
H476 C425 0.931 . S
H477 C430 0.930 . S
H478 C431 0.931 . S
H479 C432 0.930 . S
H480 C452 0.929 . S
H481 C454 0.930 . S
H482 C456 0.930 . S
H483 C461 0.932 . S
H484 C463 0.930 . S
H485 C465 0.929 . S
C486 C487 1.359 . S
C486 N491 1.330 . S
C486 C547 1.504 . S
C487 C486 1.359 . S
C487 C488 1.366 . S
C487 H549 0.929 . S
C488 C487 1.366 . S
C488 C489 1.415 . S
C488 H550 0.932 . S
C489 C488 1.415 . S
C489 C490 1.366 . S
C489 H551 0.931 . S
C490 C489 1.366 . S
C490 N491 1.325 . S
C490 C492 1.516 . S
N491 C486 1.330 . S
N491 C490 1.325 . S
N491 Co507 1.869 . S
C492 C490 1.516 . S
C492 N516 1.316 . S
C492 O539 1.263 . S
C493 C494 1.421 . S
C493 C498 1.360 . S
C493 N516 1.436 . S
C494 C493 1.421 . S
C494 C495 1.379 . S
C494 H552 0.929 . S
C495 C494 1.379 . S
C495 C496 1.417 . S
C496 C495 1.417 . S
C496 C497 1.352 . S
C496 H553 0.929 . S
C497 C496 1.352 . S
C497 C498 1.393 . S
C498 C493 1.360 . S
C498 C497 1.393 . S
C498 H554 0.931 . S
Cd499 O519 2.329 . S
Cd499 O521 2.350 . S
Cd499 O522 2.277 . S
Cd499 O524 2.173 . S
Cd499 O528 2.263 . S
Cd499 O539 2.366 . S
Cd500 O518 2.352 . S
Cd500 O525 2.250 . S
Cd500 O529 2.308 . S
C501 C505 1.403 . S
C501 C506 1.370 . S
C501 N517 1.423 . S
C502 C503 1.389 . S
C502 C506 1.389 . S
C503 C502 1.389 . S
C503 C504 1.379 . S
C503 H555 0.929 . S
C504 C503 1.379 . S
C504 C505 1.405 . S
C505 C501 1.403 . S
C505 C504 1.405 . S
C505 H556 0.932 . S
C506 C501 1.370 . S
C506 C502 1.389 . S
C506 H557 0.931 . S
Co507 N491 1.869 . S
Co507 N508 1.955 . S
Co507 N509 1.864 . S
Co507 N515 1.958 . S
Co507 N516 1.953 . S
Co507 N517 1.974 . S
N508 Co507 1.955 . S
N508 C526 1.329 . S
N508 C541 1.432 . S
N509 Co507 1.864 . S
N509 C510 1.327 . S
N509 C514 1.342 . S
C510 N509 1.327 . S
C510 C511 1.407 . S
C510 C526 1.481 . S
C511 C510 1.407 . S
C511 C512 1.364 . S
C511 H558 0.930 . S
C512 C511 1.364 . S
C512 C513 1.390 . S
C512 H559 0.931 . S
C513 C512 1.390 . S
C513 C514 1.346 . S
C513 H560 0.930 . S
C514 N509 1.342 . S
C514 C513 1.346 . S
C514 C530 1.516 . S
N515 Co507 1.958 . S
N515 C530 1.324 . S
N515 C532 1.427 . S
N516 C492 1.316 . S
N516 C493 1.436 . S
N516 Co507 1.953 . S
N517 C501 1.423 . S
N517 Co507 1.974 . S
N517 C547 1.309 . S
O518 Cd500 2.352 . S
O518 C538 1.235 . S
O519 Cd499 2.329 . S
O519 C538 1.270 . S
C520 O521 1.270 . S
C520 O522 1.248 . S
O521 Cd499 2.350 . S
O521 C520 1.270 . S
O522 Cd499 2.277 . S
O522 C520 1.248 . S
C523 O524 1.277 . S
C523 O525 1.230 . S
O524 Cd499 2.173 . S
O524 C523 1.277 . S
O525 Cd500 2.250 . S
O525 C523 1.230 . S
C526 N508 1.329 . S
C526 C510 1.481 . S
C526 O527 1.246 . S
O527 C526 1.246 . S
O528 Cd499 2.263 . S
O528 C540 1.258 . S
O529 Cd500 2.308 . S
O529 C540 1.274 . S
C530 C514 1.516 . S
C530 N515 1.324 . S
C530 O531 1.238 . S
O531 C530 1.238 . S
C532 N515 1.427 . S
C532 C533 1.394 . S
C532 C537 1.395 . S
C533 C532 1.394 . S
C533 C534 1.380 . S
C533 H561 0.929 . S
C534 C533 1.380 . S
C534 C535 1.384 . S
C534 C540 1.495 . S
C535 C534 1.384 . S
C535 C536 1.382 . S
C535 H562 0.930 . S
C536 C535 1.382 . S
C536 C537 1.398 . S
C537 C532 1.395 . S
C537 C536 1.398 . S
C537 H563 0.930 . S
C538 O518 1.235 . S
C538 O519 1.270 . S
O539 C492 1.263 . S
O539 Cd499 2.366 . S
C540 O528 1.258 . S
C540 O529 1.274 . S
C540 C534 1.495 . S
C541 N508 1.432 . S
C541 C542 1.381 . S
C541 C546 1.385 . S
C542 C541 1.381 . S
C542 C543 1.371 . S
C542 H564 0.932 . S
C543 C542 1.371 . S
C543 C544 1.400 . S
C544 C543 1.400 . S
C544 C545 1.351 . S
C544 H565 0.930 . S
C545 C544 1.351 . S
C545 C546 1.388 . S
C546 C541 1.385 . S
C546 C545 1.388 . S
C546 H566 0.929 . S
C547 C486 1.504 . S
C547 N517 1.309 . S
C547 O548 1.258 . S
O548 C547 1.258 . S
H549 C487 0.929 . S
H550 C488 0.932 . S
H551 C489 0.931 . S
H552 C494 0.929 . S
H553 C496 0.929 . S
H554 C498 0.931 . S
H555 C503 0.929 . S
H556 C505 0.932 . S
H557 C506 0.931 . S
H558 C511 0.930 . S
H559 C512 0.931 . S
H560 C513 0.930 . S
H561 C533 0.929 . S
H562 C535 0.930 . S
H563 C537 0.930 . S
H564 C542 0.932 . S
H565 C544 0.930 . S
H566 C546 0.929 . S
C567 C568 1.359 . S
C567 N572 1.330 . S
C567 C628 1.504 . S
C568 C567 1.359 . S
C568 C569 1.366 . S
C568 H630 0.929 . S
C569 C568 1.366 . S
C569 C570 1.415 . S
C569 H631 0.932 . S
C570 C569 1.415 . S
C570 C571 1.366 . S
C570 H632 0.931 . S
C571 C570 1.366 . S
C571 N572 1.325 . S
C571 C573 1.516 . S
N572 C567 1.330 . S
N572 C571 1.325 . S
N572 Co588 1.869 . S
C573 C571 1.516 . S
C573 N597 1.316 . S
C573 O620 1.263 . S
C574 C575 1.421 . S
C574 C579 1.360 . S
C574 N597 1.436 . S
C575 C574 1.421 . S
C575 C576 1.379 . S
C575 H633 0.929 . S
C576 C575 1.379 . S
C576 C577 1.417 . S
C577 C576 1.417 . S
C577 C578 1.352 . S
C577 H634 0.929 . S
C578 C577 1.352 . S
C578 C579 1.393 . S
C579 C574 1.360 . S
C579 C578 1.393 . S
C579 H635 0.931 . S
Cd580 O600 2.329 . S
Cd580 O602 2.350 . S
Cd580 O603 2.277 . S
Cd580 O605 2.173 . S
Cd580 O609 2.263 . S
Cd580 O620 2.366 . S
Cd581 O599 2.352 . S
Cd581 O606 2.250 . S
Cd581 O610 2.308 . S
C582 C586 1.403 . S
C582 C587 1.370 . S
C582 N598 1.423 . S
C583 C584 1.389 . S
C583 C587 1.389 . S
C584 C583 1.389 . S
C584 C585 1.379 . S
C584 H636 0.929 . S
C585 C584 1.379 . S
C585 C586 1.405 . S
C586 C582 1.403 . S
C586 C585 1.405 . S
C586 H637 0.932 . S
C587 C582 1.370 . S
C587 C583 1.389 . S
C587 H638 0.931 . S
Co588 N572 1.869 . S
Co588 N589 1.955 . S
Co588 N590 1.864 . S
Co588 N596 1.958 . S
Co588 N597 1.953 . S
Co588 N598 1.974 . S
N589 Co588 1.955 . S
N589 C607 1.329 . S
N589 C622 1.432 . S
N590 Co588 1.864 . S
N590 C591 1.327 . S
N590 C595 1.342 . S
C591 N590 1.327 . S
C591 C592 1.407 . S
C591 C607 1.481 . S
C592 C591 1.407 . S
C592 C593 1.364 . S
C592 H639 0.930 . S
C593 C592 1.364 . S
C593 C594 1.390 . S
C593 H640 0.931 . S
C594 C593 1.390 . S
C594 C595 1.346 . S
C594 H641 0.930 . S
C595 N590 1.342 . S
C595 C594 1.346 . S
C595 C611 1.516 . S
N596 Co588 1.958 . S
N596 C611 1.324 . S
N596 C613 1.427 . S
N597 C573 1.316 . S
N597 C574 1.436 . S
N597 Co588 1.953 . S
N598 C582 1.423 . S
N598 Co588 1.974 . S
N598 C628 1.309 . S
O599 Cd581 2.352 . S
O599 C619 1.235 . S
O600 Cd580 2.329 . S
O600 C619 1.270 . S
C601 O602 1.270 . S
C601 O603 1.248 . S
O602 Cd580 2.350 . S
O602 C601 1.270 . S
O603 Cd580 2.277 . S
O603 C601 1.248 . S
C604 O605 1.277 . S
C604 O606 1.230 . S
O605 Cd580 2.173 . S
O605 C604 1.277 . S
O606 Cd581 2.250 . S
O606 C604 1.230 . S
C607 N589 1.329 . S
C607 C591 1.481 . S
C607 O608 1.246 . S
O608 C607 1.246 . S
O609 Cd580 2.263 . S
O609 C621 1.258 . S
O610 Cd581 2.308 . S
O610 C621 1.274 . S
C611 C595 1.516 . S
C611 N596 1.324 . S
C611 O612 1.238 . S
O612 C611 1.238 . S
C613 N596 1.427 . S
C613 C614 1.394 . S
C613 C618 1.395 . S
C614 C613 1.394 . S
C614 C615 1.380 . S
C614 H642 0.929 . S
C615 C614 1.380 . S
C615 C616 1.384 . S
C615 C621 1.495 . S
C616 C615 1.384 . S
C616 C617 1.382 . S
C616 H643 0.930 . S
C617 C616 1.382 . S
C617 C618 1.398 . S
C618 C613 1.395 . S
C618 C617 1.398 . S
C618 H644 0.930 . S
C619 O599 1.235 . S
C619 O600 1.270 . S
O620 C573 1.263 . S
O620 Cd580 2.366 . S
C621 O609 1.258 . S
C621 O610 1.274 . S
C621 C615 1.495 . S
C622 N589 1.432 . S
C622 C623 1.381 . S
C622 C627 1.385 . S
C623 C622 1.381 . S
C623 C624 1.371 . S
C623 H645 0.932 . S
C624 C623 1.371 . S
C624 C625 1.400 . S
C625 C624 1.400 . S
C625 C626 1.351 . S
C625 H646 0.930 . S
C626 C625 1.351 . S
C626 C627 1.388 . S
C627 C622 1.385 . S
C627 C626 1.388 . S
C627 H647 0.929 . S
C628 C567 1.504 . S
C628 N598 1.309 . S
C628 O629 1.258 . S
O629 C628 1.258 . S
H630 C568 0.929 . S
H631 C569 0.932 . S
H632 C570 0.931 . S
H633 C575 0.929 . S
H634 C577 0.929 . S
H635 C579 0.931 . S
H636 C584 0.929 . S
H637 C586 0.932 . S
H638 C587 0.931 . S
H639 C592 0.930 . S
H640 C593 0.931 . S
H641 C594 0.930 . S
H642 C614 0.929 . S
H643 C616 0.930 . S
H644 C618 0.930 . S
H645 C623 0.932 . S
H646 C625 0.930 . S
H647 C627 0.929 . S
C648 C649 1.359 . S
C648 N653 1.330 . S
C648 C709 1.504 . S
C649 C648 1.359 . S
C649 C650 1.366 . S
C649 H711 0.929 . S
C650 C649 1.366 . S
C650 C651 1.415 . S
C650 H712 0.932 . S
C651 C650 1.415 . S
C651 C652 1.366 . S
C651 H713 0.931 . S
C652 C651 1.366 . S
C652 N653 1.325 . S
C652 C654 1.516 . S
N653 C648 1.330 . S
N653 C652 1.325 . S
N653 Co669 1.869 . S
C654 C652 1.516 . S
C654 N678 1.316 . S
C654 O701 1.263 . S
C655 C656 1.421 . S
C655 C660 1.360 . S
C655 N678 1.436 . S
C656 C655 1.421 . S
C656 C657 1.379 . S
C656 H714 0.929 . S
C657 C656 1.379 . S
C657 C658 1.417 . S
C658 C657 1.417 . S
C658 C659 1.352 . S
C658 H715 0.929 . S
C659 C658 1.352 . S
C659 C660 1.393 . S
C660 C655 1.360 . S
C660 C659 1.393 . S
C660 H716 0.931 . S
Cd661 O681 2.329 . S
Cd661 O683 2.350 . S
Cd661 O684 2.277 . S
Cd661 O686 2.173 . S
Cd661 O690 2.263 . S
Cd661 O701 2.366 . S
Cd662 O680 2.352 . S
Cd662 O687 2.250 . S
Cd662 O691 2.308 . S
C663 C667 1.403 . S
C663 C668 1.370 . S
C663 N679 1.423 . S
C664 C665 1.389 . S
C664 C668 1.389 . S
C665 C664 1.389 . S
C665 C666 1.379 . S
C665 H717 0.929 . S
C666 C665 1.379 . S
C666 C667 1.405 . S
C667 C663 1.403 . S
C667 C666 1.405 . S
C667 H718 0.932 . S
C668 C663 1.370 . S
C668 C664 1.389 . S
C668 H719 0.931 . S
Co669 N653 1.869 . S
Co669 N670 1.955 . S
Co669 N671 1.864 . S
Co669 N677 1.958 . S
Co669 N678 1.953 . S
Co669 N679 1.974 . S
N670 Co669 1.955 . S
N670 C688 1.329 . S
N670 C703 1.432 . S
N671 Co669 1.864 . S
N671 C672 1.327 . S
N671 C676 1.342 . S
C672 N671 1.327 . S
C672 C673 1.407 . S
C672 C688 1.481 . S
C673 C672 1.407 . S
C673 C674 1.364 . S
C673 H720 0.930 . S
C674 C673 1.364 . S
C674 C675 1.390 . S
C674 H721 0.931 . S
C675 C674 1.390 . S
C675 C676 1.346 . S
C675 H722 0.930 . S
C676 N671 1.342 . S
C676 C675 1.346 . S
C676 C692 1.516 . S
N677 Co669 1.958 . S
N677 C692 1.324 . S
N677 C694 1.427 . S
N678 C654 1.316 . S
N678 C655 1.436 . S
N678 Co669 1.953 . S
N679 C663 1.423 . S
N679 Co669 1.974 . S
N679 C709 1.309 . S
O680 Cd662 2.352 . S
O680 C700 1.235 . S
O681 Cd661 2.329 . S
O681 C700 1.270 . S
C682 O683 1.270 . S
C682 O684 1.248 . S
O683 Cd661 2.350 . S
O683 C682 1.270 . S
O684 Cd661 2.277 . S
O684 C682 1.248 . S
C685 O686 1.277 . S
C685 O687 1.230 . S
O686 Cd661 2.173 . S
O686 C685 1.277 . S
O687 Cd662 2.250 . S
O687 C685 1.230 . S
C688 N670 1.329 . S
C688 C672 1.481 . S
C688 O689 1.246 . S
O689 C688 1.246 . S
O690 Cd661 2.263 . S
O690 C702 1.258 . S
O691 Cd662 2.308 . S
O691 C702 1.274 . S
C692 C676 1.516 . S
C692 N677 1.324 . S
C692 O693 1.238 . S
O693 C692 1.238 . S
C694 N677 1.427 . S
C694 C695 1.394 . S
C694 C699 1.395 . S
C695 C694 1.394 . S
C695 C696 1.380 . S
C695 H723 0.929 . S
C696 C695 1.380 . S
C696 C697 1.384 . S
C696 C702 1.495 . S
C697 C696 1.384 . S
C697 C698 1.382 . S
C697 H724 0.930 . S
C698 C697 1.382 . S
C698 C699 1.398 . S
C699 C694 1.395 . S
C699 C698 1.398 . S
C699 H725 0.930 . S
C700 O680 1.235 . S
C700 O681 1.270 . S
O701 C654 1.263 . S
O701 Cd661 2.366 . S
C702 O690 1.258 . S
C702 O691 1.274 . S
C702 C696 1.495 . S
C703 N670 1.432 . S
C703 C704 1.381 . S
C703 C708 1.385 . S
C704 C703 1.381 . S
C704 C705 1.371 . S
C704 H726 0.932 . S
C705 C704 1.371 . S
C705 C706 1.400 . S
C706 C705 1.400 . S
C706 C707 1.351 . S
C706 H727 0.930 . S
C707 C706 1.351 . S
C707 C708 1.388 . S
C708 C703 1.385 . S
C708 C707 1.388 . S
C708 H728 0.929 . S
C709 C648 1.504 . S
C709 N679 1.309 . S
C709 O710 1.258 . S
O710 C709 1.258 . S
H711 C649 0.929 . S
H712 C650 0.932 . S
H713 C651 0.931 . S
H714 C656 0.929 . S
H715 C658 0.929 . S
H716 C660 0.931 . S
H717 C665 0.929 . S
H718 C667 0.932 . S
H719 C668 0.931 . S
H720 C673 0.930 . S
H721 C674 0.931 . S
H722 C675 0.930 . S
H723 C695 0.929 . S
H724 C697 0.930 . S
H725 C699 0.930 . S
H726 C704 0.932 . S
H727 C706 0.930 . S
H728 C708 0.929 . S
C729 C730 1.359 . S
C729 N734 1.330 . S
C729 C790 1.504 . S
C730 C729 1.359 . S
C730 C731 1.366 . S
C730 H792 0.929 . S
C731 C730 1.366 . S
C731 C732 1.415 . S
C731 H793 0.932 . S
C732 C731 1.415 . S
C732 C733 1.366 . S
C732 H794 0.931 . S
C733 C732 1.366 . S
C733 N734 1.325 . S
C733 C735 1.558 . S
N734 C729 1.330 . S
N734 C733 1.325 . S
N734 Co750 1.845 1_545 S
C735 C733 1.558 . S
C735 N759 1.256 1_545 S
C735 O782 1.286 1_545 S
C736 C737 1.421 . S
C736 C741 1.360 . S
C736 N759 1.436 . S
C737 C736 1.421 . S
C737 C738 1.379 . S
C737 H795 0.929 . S
C738 C737 1.379 . S
C738 C739 1.417 . S
C739 C738 1.417 . S
C739 C740 1.352 . S
C739 H796 0.929 . S
C740 C739 1.352 . S
C740 C741 1.393 . S
C741 C736 1.360 . S
C741 C740 1.393 . S
C741 H797 0.931 . S
Cd742 O762 2.329 . S
Cd742 O764 2.350 . S
Cd742 O765 2.277 . S
Cd742 O767 2.173 1_565 S
Cd742 O771 2.263 . S
Cd742 O782 2.366 . S
Cd743 O761 2.352 . S
Cd743 O768 2.250 . S
Cd743 O772 2.308 . S
C744 C748 1.403 . S
C744 C749 1.368 . S
C744 N760 1.423 . S
C745 C746 1.389 1_565 S
C745 C749 1.390 1_565 S
C746 C745 1.389 1_545 S
C746 C747 1.379 . S
C746 H798 0.929 1_545 S
C747 C746 1.379 . S
C747 C748 1.405 . S
C748 C744 1.403 . S
C748 C747 1.405 . S
C748 H799 0.932 . S
C749 C744 1.368 . S
C749 C745 1.390 1_545 S
C749 H800 0.931 1_545 S
Co750 N734 1.845 1_565 S
Co750 N751 1.946 1_565 S
Co750 N752 1.889 . S
Co750 N758 1.974 . S
Co750 N759 1.950 . S
Co750 N760 1.969 1_565 S
N751 Co750 1.946 1_545 S
N751 C769 1.329 1_545 S
N751 C784 1.432 . S
N752 Co750 1.889 . S
N752 C753 1.327 . S
N752 C757 1.342 . S
C753 N752 1.327 . S
C753 C754 1.407 . S
C753 C769 1.481 . S
C754 C753 1.407 . S
C754 C755 1.364 . S
C754 H801 0.930 . S
C755 C754 1.364 . S
C755 C756 1.390 . S
C755 H802 0.931 . S
C756 C755 1.390 . S
C756 C757 1.346 . S
C756 H803 0.930 . S
C757 N752 1.342 . S
C757 C756 1.346 . S
C757 C773 1.516 . S
N758 Co750 1.974 . S
N758 C773 1.324 . S
N758 C775 1.427 . S
N759 C735 1.256 1_565 S
N759 C736 1.436 . S
N759 Co750 1.950 . S
N760 C744 1.423 . S
N760 Co750 1.969 1_545 S
N760 C790 1.309 . S
O761 Cd743 2.352 . S
O761 C781 1.235 1_545 S
O762 Cd742 2.329 . S
O762 C781 1.270 . S
C763 O764 1.270 . S
C763 O765 1.248 . S
O764 Cd742 2.350 . S
O764 C763 1.270 . S
O765 Cd742 2.277 . S
O765 C763 1.248 . S
C766 O767 1.277 . S
C766 O768 1.230 . S
O767 Cd742 2.173 1_545 S
O767 C766 1.277 . S
O768 Cd743 2.250 . S
O768 C766 1.230 . S
C769 N751 1.329 1_565 S
C769 C753 1.481 . S
C769 O770 1.246 . S
O770 C769 1.246 . S
O771 Cd742 2.263 . S
O771 C783 1.258 1_565 S
O772 Cd743 2.308 . S
O772 C783 1.274 . S
C773 C757 1.516 . S
C773 N758 1.324 . S
C773 O774 1.238 . S
O774 C773 1.238 . S
C775 N758 1.427 . S
C775 C776 1.394 . S
C775 C780 1.395 1_565 S
C776 C775 1.394 . S
C776 C777 1.380 1_565 S
C776 H804 0.929 . S
C777 C776 1.380 1_545 S
C777 C778 1.384 . S
C777 C783 1.495 . S
C778 C777 1.384 . S
C778 C779 1.382 . S
C778 H805 0.930 . S
C779 C778 1.382 . S
C779 C780 1.398 . S
C780 C775 1.395 1_545 S
C780 C779 1.398 . S
C780 H806 0.930 . S
C781 O761 1.235 1_565 S
C781 O762 1.270 . S
O782 C735 1.286 1_565 S
O782 Cd742 2.366 . S
C783 O771 1.258 1_545 S
C783 O772 1.274 . S
C783 C777 1.495 . S
C784 N751 1.432 . S
C784 C785 1.381 . S
C784 C789 1.385 . S
C785 C784 1.381 . S
C785 C786 1.371 . S
C785 H807 0.932 . S
C786 C785 1.371 . S
C786 C787 1.400 . S
C787 C786 1.400 . S
C787 C788 1.351 . S
C787 H808 0.930 . S
C788 C787 1.351 . S
C788 C789 1.388 . S
C789 C784 1.385 . S
C789 C788 1.388 . S
C789 H809 0.929 . S
C790 C729 1.504 . S
C790 N760 1.309 . S
C790 O791 1.258 . S
O791 C790 1.258 . S
H792 C730 0.929 . S
H793 C731 0.932 . S
H794 C732 0.931 . S
H795 C737 0.929 . S
H796 C739 0.929 . S
H797 C741 0.931 . S
H798 C746 0.929 1_565 S
H799 C748 0.932 . S
H800 C749 0.931 1_565 S
H801 C754 0.930 . S
H802 C755 0.931 . S
H803 C756 0.930 . S
H804 C776 0.929 . S
H805 C778 0.930 . S
H806 C780 0.930 . S
H807 C785 0.932 . S
H808 C787 0.930 . S
H809 C789 0.929 . S
C810 C811 1.359 . S
C810 N815 1.330 . S
C810 C871 1.504 . S
C811 C810 1.359 . S
C811 C812 1.366 . S
C811 H873 0.929 . S
C812 C811 1.366 . S
C812 C813 1.415 . S
C812 H874 0.932 . S
C813 C812 1.415 . S
C813 C814 1.366 . S
C813 H875 0.931 . S
C814 C813 1.366 . S
C814 N815 1.325 . S
C814 C816 1.586 . S
N815 C810 1.330 . S
N815 C814 1.325 . S
N815 Co831 1.855 1_655 S
C816 C814 1.586 . S
C816 N840 1.300 1_655 S
C816 O863 1.222 1_655 S
C817 C818 1.421 . S
C817 C822 1.360 . S
C817 N840 1.436 . S
C818 C817 1.421 . S
C818 C819 1.379 . S
C818 H876 0.929 . S
C819 C818 1.379 . S
C819 C820 1.417 . S
C820 C819 1.417 . S
C820 C821 1.352 . S
C820 H877 0.929 . S
C821 C820 1.352 . S
C821 C822 1.393 . S
C822 C817 1.360 . S
C822 C821 1.393 . S
C822 H878 0.931 . S
Cd823 O843 2.329 . S
Cd823 O845 2.350 . S
Cd823 O846 2.277 . S
Cd823 O848 2.173 1_455 S
Cd823 O852 2.263 . S
Cd823 O863 2.366 . S
Cd824 O842 2.352 . S
Cd824 O849 2.250 . S
Cd824 O853 2.308 . S
C825 C829 1.403 . S
C825 C830 1.369 . S
C825 N841 1.423 . S
C826 C827 1.389 1_455 S
C826 C830 1.389 1_455 S
C827 C826 1.389 1_655 S
C827 C828 1.379 . S
C827 H879 0.929 1_655 S
C828 C827 1.379 . S
C828 C829 1.405 . S
C829 C825 1.403 . S
C829 C828 1.405 . S
C829 H880 0.932 . S
C830 C825 1.369 . S
C830 C826 1.389 1_655 S
C830 H881 0.931 1_655 S
Co831 N815 1.855 1_455 S
Co831 N832 1.958 1_455 S
Co831 N833 1.879 . S
Co831 N839 1.960 . S
Co831 N840 1.974 . S
Co831 N841 1.948 1_455 S
N832 Co831 1.958 1_655 S
N832 C850 1.329 1_655 S
N832 C865 1.432 . S
N833 Co831 1.879 . S
N833 C834 1.327 . S
N833 C838 1.342 . S
C834 N833 1.327 . S
C834 C835 1.407 . S
C834 C850 1.481 . S
C835 C834 1.407 . S
C835 C836 1.364 . S
C835 H882 0.930 . S
C836 C835 1.364 . S
C836 C837 1.390 . S
C836 H883 0.931 . S
C837 C836 1.390 . S
C837 C838 1.346 . S
C837 H884 0.930 . S
C838 N833 1.342 . S
C838 C837 1.346 . S
C838 C854 1.516 . S
N839 Co831 1.960 . S
N839 C854 1.324 . S
N839 C856 1.427 . S
N840 C816 1.300 1_455 S
N840 C817 1.436 . S
N840 Co831 1.974 . S
N841 C825 1.423 . S
N841 Co831 1.948 1_655 S
N841 C871 1.309 . S
O842 Cd824 2.352 . S
O842 C862 1.235 1_655 S
O843 Cd823 2.329 . S
O843 C862 1.270 . S
C844 O845 1.270 . S
C844 O846 1.248 . S
O845 Cd823 2.350 . S
O845 C844 1.270 . S
O846 Cd823 2.277 . S
O846 C844 1.248 . S
C847 O848 1.277 . S
C847 O849 1.230 . S
O848 Cd823 2.173 1_655 S
O848 C847 1.277 . S
O849 Cd824 2.250 . S
O849 C847 1.230 . S
C850 N832 1.329 1_455 S
C850 C834 1.481 . S
C850 O851 1.246 . S
O851 C850 1.246 . S
O852 Cd823 2.263 . S
O852 C864 1.258 1_455 S
O853 Cd824 2.308 . S
O853 C864 1.274 . S
C854 C838 1.516 . S
C854 N839 1.324 . S
C854 O855 1.238 . S
O855 C854 1.238 . S
C856 N839 1.427 . S
C856 C857 1.394 . S
C856 C861 1.395 1_455 S
C857 C856 1.394 . S
C857 C858 1.380 1_455 S
C857 H885 0.929 . S
C858 C857 1.380 1_655 S
C858 C859 1.384 . S
C858 C864 1.495 . S
C859 C858 1.384 . S
C859 C860 1.382 . S
C859 H886 0.930 . S
C860 C859 1.382 . S
C860 C861 1.398 . S
C861 C856 1.395 1_655 S
C861 C860 1.398 . S
C861 H887 0.930 . S
C862 O842 1.235 1_455 S
C862 O843 1.270 . S
O863 C816 1.222 1_455 S
O863 Cd823 2.366 . S
C864 O852 1.258 1_655 S
C864 O853 1.274 . S
C864 C858 1.495 . S
C865 N832 1.432 . S
C865 C866 1.381 . S
C865 C870 1.385 . S
C866 C865 1.381 . S
C866 C867 1.371 . S
C866 H888 0.932 . S
C867 C866 1.371 . S
C867 C868 1.400 . S
C868 C867 1.400 . S
C868 C869 1.351 . S
C868 H889 0.930 . S
C869 C868 1.351 . S
C869 C870 1.388 . S
C870 C865 1.385 . S
C870 C869 1.388 . S
C870 H890 0.929 . S
C871 C810 1.504 . S
C871 N841 1.309 . S
C871 O872 1.258 . S
O872 C871 1.258 . S
H873 C811 0.929 . S
H874 C812 0.932 . S
H875 C813 0.931 . S
H876 C818 0.929 . S
H877 C820 0.929 . S
H878 C822 0.931 . S
H879 C827 0.929 1_455 S
H880 C829 0.932 . S
H881 C830 0.931 1_455 S
H882 C835 0.930 . S
H883 C836 0.931 . S
H884 C837 0.930 . S
H885 C857 0.929 . S
H886 C859 0.930 . S
H887 C861 0.930 . S
H888 C866 0.932 . S
H889 C868 0.930 . S
H890 C870 0.929 . S
C891 C892 1.359 . S
C891 N896 1.330 . S
C891 C952 1.504 . S
C892 C891 1.359 . S
C892 C893 1.366 . S
C892 H954 0.929 . S
C893 C892 1.366 . S
C893 C894 1.415 . S
C893 H955 0.932 . S
C894 C893 1.415 . S
C894 C895 1.366 . S
C894 H956 0.931 . S
C895 C894 1.366 . S
C895 N896 1.325 . S
C895 C897 1.516 . S
N896 C891 1.330 . S
N896 C895 1.325 . S
N896 Co912 1.869 . S
C897 C895 1.516 . S
C897 N921 1.316 . S
C897 O944 1.263 . S
C898 C899 1.421 . S
C898 C903 1.360 . S
C898 N921 1.436 . S
C899 C898 1.421 . S
C899 C900 1.379 . S
C899 H957 0.929 . S
C900 C899 1.379 . S
C900 C901 1.417 . S
C901 C900 1.417 . S
C901 C902 1.352 . S
C901 H958 0.929 . S
C902 C901 1.352 . S
C902 C903 1.393 . S
C903 C898 1.360 . S
C903 C902 1.393 . S
C903 H959 0.931 . S
Cd904 O924 2.329 . S
Cd904 O926 2.350 . S
Cd904 O927 2.277 . S
Cd904 O929 2.173 . S
Cd904 O933 2.263 . S
Cd904 O944 2.366 . S
Cd905 O923 2.352 . S
Cd905 O930 2.250 . S
Cd905 O934 2.308 . S
C906 C910 1.403 . S
C906 C911 1.370 . S
C906 N922 1.423 . S
C907 C908 1.389 . S
C907 C911 1.389 . S
C908 C907 1.389 . S
C908 C909 1.379 . S
C908 H960 0.929 . S
C909 C908 1.379 . S
C909 C910 1.405 . S
C910 C906 1.403 . S
C910 C909 1.405 . S
C910 H961 0.932 . S
C911 C906 1.370 . S
C911 C907 1.389 . S
C911 H962 0.931 . S
Co912 N896 1.869 . S
Co912 N913 1.955 . S
Co912 N914 1.864 . S
Co912 N920 1.958 . S
Co912 N921 1.953 . S
Co912 N922 1.974 . S
N913 Co912 1.955 . S
N913 C931 1.329 . S
N913 C946 1.432 . S
N914 Co912 1.864 . S
N914 C915 1.327 . S
N914 C919 1.342 . S
C915 N914 1.327 . S
C915 C916 1.407 . S
C915 C931 1.481 . S
C916 C915 1.407 . S
C916 C917 1.364 . S
C916 H963 0.930 . S
C917 C916 1.364 . S
C917 C918 1.390 . S
C917 H964 0.931 . S
C918 C917 1.390 . S
C918 C919 1.346 . S
C918 H965 0.930 . S
C919 N914 1.342 . S
C919 C918 1.346 . S
C919 C935 1.516 . S
N920 Co912 1.958 . S
N920 C935 1.324 . S
N920 C937 1.427 . S
N921 C897 1.316 . S
N921 C898 1.436 . S
N921 Co912 1.953 . S
N922 C906 1.423 . S
N922 Co912 1.974 . S
N922 C952 1.309 . S
O923 Cd905 2.352 . S
O923 C943 1.235 . S
O924 Cd904 2.329 . S
O924 C943 1.270 . S
C925 O926 1.270 . S
C925 O927 1.248 . S
O926 Cd904 2.350 . S
O926 C925 1.270 . S
O927 Cd904 2.277 . S
O927 C925 1.248 . S
C928 O929 1.277 . S
C928 O930 1.230 . S
O929 Cd904 2.173 . S
O929 C928 1.277 . S
O930 Cd905 2.250 . S
O930 C928 1.230 . S
C931 N913 1.329 . S
C931 C915 1.481 . S
C931 O932 1.246 . S
O932 C931 1.246 . S
O933 Cd904 2.263 . S
O933 C945 1.258 . S
O934 Cd905 2.308 . S
O934 C945 1.274 . S
C935 C919 1.516 . S
C935 N920 1.324 . S
C935 O936 1.238 . S
O936 C935 1.238 . S
C937 N920 1.427 . S
C937 C938 1.394 . S
C937 C942 1.395 . S
C938 C937 1.394 . S
C938 C939 1.380 . S
C938 H966 0.929 . S
C939 C938 1.380 . S
C939 C940 1.384 . S
C939 C945 1.495 . S
C940 C939 1.384 . S
C940 C941 1.382 . S
C940 H967 0.930 . S
C941 C940 1.382 . S
C941 C942 1.398 . S
C942 C937 1.395 . S
C942 C941 1.398 . S
C942 H968 0.930 . S
C943 O923 1.235 . S
C943 O924 1.270 . S
O944 C897 1.263 . S
O944 Cd904 2.366 . S
C945 O933 1.258 . S
C945 O934 1.274 . S
C945 C939 1.495 . S
C946 N913 1.432 . S
C946 C947 1.381 . S
C946 C951 1.385 . S
C947 C946 1.381 . S
C947 C948 1.371 . S
C947 H969 0.932 . S
C948 C947 1.371 . S
C948 C949 1.400 . S
C949 C948 1.400 . S
C949 C950 1.351 . S
C949 H970 0.930 . S
C950 C949 1.351 . S
C950 C951 1.388 . S
C951 C946 1.385 . S
C951 C950 1.388 . S
C951 H971 0.929 . S
C952 C891 1.504 . S
C952 N922 1.309 . S
C952 O953 1.258 . S
O953 C952 1.258 . S
H954 C892 0.929 . S
H955 C893 0.932 . S
H956 C894 0.931 . S
H957 C899 0.929 . S
H958 C901 0.929 . S
H959 C903 0.931 . S
H960 C908 0.929 . S
H961 C910 0.932 . S
H962 C911 0.931 . S
H963 C916 0.930 . S
H964 C917 0.931 . S
H965 C918 0.930 . S
H966 C938 0.929 . S
H967 C940 0.930 . S
H968 C942 0.930 . S
H969 C947 0.932 . S
H970 C949 0.930 . S
H971 C951 0.929 . S
C972 C973 1.359 . S
C972 N977 1.330 . S
C972 C1033 1.504 . S
C973 C972 1.359 . S
C973 C974 1.366 . S
C973 H1035 0.929 . S
C974 C973 1.366 . S
C974 C975 1.415 . S
C974 H1036 0.932 . S
C975 C974 1.415 . S
C975 C976 1.366 . S
C975 H1037 0.931 . S
C976 C975 1.366 . S
C976 N977 1.325 . S
C976 C978 1.558 . S
N977 C972 1.330 . S
N977 C976 1.325 . S
N977 Co993 1.845 1_565 S
C978 C976 1.558 . S
C978 N1002 1.256 1_565 S
C978 O1025 1.286 1_565 S
C979 C980 1.421 . S
C979 C984 1.360 . S
C979 N1002 1.436 . S
C980 C979 1.421 . S
C980 C981 1.379 . S
C980 H1038 0.929 . S
C981 C980 1.379 . S
C981 C982 1.417 . S
C982 C981 1.417 . S
C982 C983 1.352 . S
C982 H1039 0.929 . S
C983 C982 1.352 . S
C983 C984 1.393 . S
C984 C979 1.360 . S
C984 C983 1.393 . S
C984 H1040 0.931 . S
Cd985 O1005 2.329 . S
Cd985 O1007 2.350 . S
Cd985 O1008 2.277 . S
Cd985 O1010 2.173 1_545 S
Cd985 O1014 2.263 . S
Cd985 O1025 2.366 . S
Cd986 O1004 2.352 . S
Cd986 O1011 2.250 . S
Cd986 O1015 2.308 . S
C987 C991 1.403 . S
C987 C992 1.368 . S
C987 N1003 1.423 . S
C988 C989 1.389 1_545 S
C988 C992 1.390 1_545 S
C989 C988 1.389 1_565 S
C989 C990 1.379 . S
C989 H1041 0.929 1_565 S
C990 C989 1.379 . S
C990 C991 1.405 . S
C991 C987 1.403 . S
C991 C990 1.405 . S
C991 H1042 0.932 . S
C992 C987 1.368 . S
C992 C988 1.390 1_565 S
C992 H1043 0.931 1_565 S
Co993 N977 1.845 1_545 S
Co993 N994 1.946 1_545 S
Co993 N995 1.889 . S
Co993 N1001 1.974 . S
Co993 N1002 1.950 . S
Co993 N1003 1.969 1_545 S
N994 Co993 1.946 1_565 S
N994 C1012 1.329 1_565 S
N994 C1027 1.432 . S
N995 Co993 1.889 . S
N995 C996 1.327 . S
N995 C1000 1.342 . S
C996 N995 1.327 . S
C996 C997 1.407 . S
C996 C1012 1.481 . S
C997 C996 1.407 . S
C997 C998 1.364 . S
C997 H1044 0.930 . S
C998 C997 1.364 . S
C998 C999 1.390 . S
C998 H1045 0.931 . S
C999 C998 1.390 . S
C999 C1000 1.346 . S
C999 H1046 0.930 . S
C1000 N995 1.342 . S
C1000 C999 1.346 . S
C1000 C1016 1.516 . S
N1001 Co993 1.974 . S
N1001 C1016 1.324 . S
N1001 C1018 1.427 . S
N1002 C978 1.256 1_545 S
N1002 C979 1.436 . S
N1002 Co993 1.950 . S
N1003 C987 1.423 . S
N1003 Co993 1.969 1_565 S
N1003 C1033 1.309 . S
O1004 Cd986 2.352 . S
O1004 C1024 1.235 1_565 S
O1005 Cd985 2.329 . S
O1005 C1024 1.270 . S
C1006 O1007 1.270 . S
C1006 O1008 1.248 . S
O1007 Cd985 2.350 . S
O1007 C1006 1.270 . S
O1008 Cd985 2.277 . S
O1008 C1006 1.248 . S
C1009 O1010 1.277 . S
C1009 O1011 1.230 . S
O1010 Cd985 2.173 1_565 S
O1010 C1009 1.277 . S
O1011 Cd986 2.250 . S
O1011 C1009 1.230 . S
C1012 N994 1.329 1_545 S
C1012 C996 1.481 . S
C1012 O1013 1.246 . S
O1013 C1012 1.246 . S
O1014 Cd985 2.263 . S
O1014 C1026 1.258 1_545 S
O1015 Cd986 2.308 . S
O1015 C1026 1.274 . S
C1016 C1000 1.516 . S
C1016 N1001 1.324 . S
C1016 O1017 1.238 . S
O1017 C1016 1.238 . S
C1018 N1001 1.427 . S
C1018 C1019 1.394 . S
C1018 C1023 1.395 1_545 S
C1019 C1018 1.394 . S
C1019 C1020 1.380 1_545 S
C1019 H1047 0.929 . S
C1020 C1019 1.380 1_565 S
C1020 C1021 1.384 . S
C1020 C1026 1.495 . S
C1021 C1020 1.384 . S
C1021 C1022 1.382 . S
C1021 H1048 0.930 . S
C1022 C1021 1.382 . S
C1022 C1023 1.398 . S
C1023 C1018 1.395 1_565 S
C1023 C1022 1.398 . S
C1023 H1049 0.930 . S
C1024 O1004 1.235 1_545 S
C1024 O1005 1.270 . S
O1025 C978 1.286 1_545 S
O1025 Cd985 2.366 . S
C1026 O1014 1.258 1_565 S
C1026 O1015 1.274 . S
C1026 C1020 1.495 . S
C1027 N994 1.432 . S
C1027 C1028 1.381 . S
C1027 C1032 1.385 . S
C1028 C1027 1.381 . S
C1028 C1029 1.371 . S
C1028 H1050 0.932 . S
C1029 C1028 1.371 . S
C1029 C1030 1.400 . S
C1030 C1029 1.400 . S
C1030 C1031 1.351 . S
C1030 H1051 0.930 . S
C1031 C1030 1.351 . S
C1031 C1032 1.388 . S
C1032 C1027 1.385 . S
C1032 C1031 1.388 . S
C1032 H1052 0.929 . S
C1033 C972 1.504 . S
C1033 N1003 1.309 . S
C1033 O1034 1.258 . S
O1034 C1033 1.258 . S
H1035 C973 0.929 . S
H1036 C974 0.932 . S
H1037 C975 0.931 . S
H1038 C980 0.929 . S
H1039 C982 0.929 . S
H1040 C984 0.931 . S
H1041 C989 0.929 1_545 S
H1042 C991 0.932 . S
H1043 C992 0.931 1_545 S
H1044 C997 0.930 . S
H1045 C998 0.931 . S
H1046 C999 0.930 . S
H1047 C1019 0.929 . S
H1048 C1021 0.930 . S
H1049 C1023 0.930 . S
H1050 C1028 0.932 . S
H1051 C1030 0.930 . S
H1052 C1032 0.929 . S
C1053 C1054 1.359 . S
C1053 N1058 1.330 . S
C1053 C1114 1.504 . S
C1054 C1053 1.359 . S
C1054 C1055 1.366 . S
C1054 H1116 0.929 . S
C1055 C1054 1.366 . S
C1055 C1056 1.415 . S
C1055 H1117 0.932 . S
C1056 C1055 1.415 . S
C1056 C1057 1.366 . S
C1056 H1118 0.931 . S
C1057 C1056 1.366 . S
C1057 N1058 1.325 . S
C1057 C1059 1.586 . S
N1058 C1053 1.330 . S
N1058 C1057 1.325 . S
N1058 Co1074 1.855 1_455 S
C1059 C1057 1.586 . S
C1059 N1083 1.300 1_455 S
C1059 O1106 1.222 1_455 S
C1060 C1061 1.421 . S
C1060 C1065 1.360 . S
C1060 N1083 1.436 . S
C1061 C1060 1.421 . S
C1061 C1062 1.379 . S
C1061 H1119 0.929 . S
C1062 C1061 1.379 . S
C1062 C1063 1.417 . S
C1063 C1062 1.417 . S
C1063 C1064 1.352 . S
C1063 H1120 0.929 . S
C1064 C1063 1.352 . S
C1064 C1065 1.393 . S
C1065 C1060 1.360 . S
C1065 C1064 1.393 . S
C1065 H1121 0.931 . S
Cd1066 O1086 2.329 . S
Cd1066 O1088 2.350 . S
Cd1066 O1089 2.277 . S
Cd1066 O1091 2.173 1_655 S
Cd1066 O1095 2.263 . S
Cd1066 O1106 2.366 . S
Cd1067 O1085 2.352 . S
Cd1067 O1092 2.250 . S
Cd1067 O1096 2.308 . S
C1068 C1072 1.403 . S
C1068 C1073 1.369 . S
C1068 N1084 1.423 . S
C1069 C1070 1.389 1_655 S
C1069 C1073 1.389 1_655 S
C1070 C1069 1.389 1_455 S
C1070 C1071 1.379 . S
C1070 H1122 0.929 1_455 S
C1071 C1070 1.379 . S
C1071 C1072 1.405 . S
C1072 C1068 1.403 . S
C1072 C1071 1.405 . S
C1072 H1123 0.932 . S
C1073 C1068 1.369 . S
C1073 C1069 1.389 1_455 S
C1073 H1124 0.931 1_455 S
Co1074 N1058 1.855 1_655 S
Co1074 N1075 1.958 1_655 S
Co1074 N1076 1.879 . S
Co1074 N1082 1.960 . S
Co1074 N1083 1.974 . S
Co1074 N1084 1.948 1_655 S
N1075 Co1074 1.958 1_455 S
N1075 C1093 1.329 1_455 S
N1075 C1108 1.432 . S
N1076 Co1074 1.879 . S
N1076 C1077 1.327 . S
N1076 C1081 1.342 . S
C1077 N1076 1.327 . S
C1077 C1078 1.407 . S
C1077 C1093 1.481 . S
C1078 C1077 1.407 . S
C1078 C1079 1.364 . S
C1078 H1125 0.930 . S
C1079 C1078 1.364 . S
C1079 C1080 1.390 . S
C1079 H1126 0.931 . S
C1080 C1079 1.390 . S
C1080 C1081 1.346 . S
C1080 H1127 0.930 . S
C1081 N1076 1.342 . S
C1081 C1080 1.346 . S
C1081 C1097 1.516 . S
N1082 Co1074 1.960 . S
N1082 C1097 1.324 . S
N1082 C1099 1.427 . S
N1083 C1059 1.300 1_655 S
N1083 C1060 1.436 . S
N1083 Co1074 1.974 . S
N1084 C1068 1.423 . S
N1084 Co1074 1.948 1_455 S
N1084 C1114 1.309 . S
O1085 Cd1067 2.352 . S
O1085 C1105 1.235 1_455 S
O1086 Cd1066 2.329 . S
O1086 C1105 1.270 . S
C1087 O1088 1.270 . S
C1087 O1089 1.248 . S
O1088 Cd1066 2.350 . S
O1088 C1087 1.270 . S
O1089 Cd1066 2.277 . S
O1089 C1087 1.248 . S
C1090 O1091 1.277 . S
C1090 O1092 1.230 . S
O1091 Cd1066 2.173 1_455 S
O1091 C1090 1.277 . S
O1092 Cd1067 2.250 . S
O1092 C1090 1.230 . S
C1093 N1075 1.329 1_655 S
C1093 C1077 1.481 . S
C1093 O1094 1.246 . S
O1094 C1093 1.246 . S
O1095 Cd1066 2.263 . S
O1095 C1107 1.258 1_655 S
O1096 Cd1067 2.308 . S
O1096 C1107 1.274 . S
C1097 C1081 1.516 . S
C1097 N1082 1.324 . S
C1097 O1098 1.238 . S
O1098 C1097 1.238 . S
C1099 N1082 1.427 . S
C1099 C1100 1.394 . S
C1099 C1104 1.395 1_655 S
C1100 C1099 1.394 . S
C1100 C1101 1.380 1_655 S
C1100 H1128 0.929 . S
C1101 C1100 1.380 1_455 S
C1101 C1102 1.384 . S
C1101 C1107 1.495 . S
C1102 C1101 1.384 . S
C1102 C1103 1.382 . S
C1102 H1129 0.930 . S
C1103 C1102 1.382 . S
C1103 C1104 1.398 . S
C1104 C1099 1.395 1_455 S
C1104 C1103 1.398 . S
C1104 H1130 0.930 . S
C1105 O1085 1.235 1_655 S
C1105 O1086 1.270 . S
O1106 C1059 1.222 1_655 S
O1106 Cd1066 2.366 . S
C1107 O1095 1.258 1_455 S
C1107 O1096 1.274 . S
C1107 C1101 1.495 . S
C1108 N1075 1.432 . S
C1108 C1109 1.381 . S
C1108 C1113 1.385 . S
C1109 C1108 1.381 . S
C1109 C1110 1.371 . S
C1109 H1131 0.932 . S
C1110 C1109 1.371 . S
C1110 C1111 1.400 . S
C1111 C1110 1.400 . S
C1111 C1112 1.351 . S
C1111 H1132 0.930 . S
C1112 C1111 1.351 . S
C1112 C1113 1.388 . S
C1113 C1108 1.385 . S
C1113 C1112 1.388 . S
C1113 H1133 0.929 . S
C1114 C1053 1.504 . S
C1114 N1084 1.309 . S
C1114 O1115 1.258 . S
O1115 C1114 1.258 . S
H1116 C1054 0.929 . S
H1117 C1055 0.932 . S
H1118 C1056 0.931 . S
H1119 C1061 0.929 . S
H1120 C1063 0.929 . S
H1121 C1065 0.931 . S
H1122 C1070 0.929 1_655 S
H1123 C1072 0.932 . S
H1124 C1073 0.931 1_655 S
H1125 C1078 0.930 . S
H1126 C1079 0.931 . S
H1127 C1080 0.930 . S
H1128 C1100 0.929 . S
H1129 C1102 0.930 . S
H1130 C1104 0.930 . S
H1131 C1109 0.932 . S
H1132 C1111 0.930 . S
H1133 C1113 0.929 . S
C1134 C1135 1.359 . S
C1134 N1139 1.330 . S
C1134 C1195 1.504 . S
C1135 C1134 1.359 . S
C1135 C1136 1.366 . S
C1135 H1197 0.929 . S
C1136 C1135 1.366 . S
C1136 C1137 1.415 . S
C1136 H1198 0.932 . S
C1137 C1136 1.415 . S
C1137 C1138 1.366 . S
C1137 H1199 0.931 . S
C1138 C1137 1.366 . S
C1138 N1139 1.325 . S
C1138 C1140 1.516 . S
N1139 C1134 1.330 . S
N1139 C1138 1.325 . S
N1139 Co1155 1.869 . S
C1140 C1138 1.516 . S
C1140 N1164 1.316 . S
C1140 O1187 1.263 . S
C1141 C1142 1.421 . S
C1141 C1146 1.360 . S
C1141 N1164 1.436 . S
C1142 C1141 1.421 . S
C1142 C1143 1.379 . S
C1142 H1200 0.929 . S
C1143 C1142 1.379 . S
C1143 C1144 1.417 . S
C1144 C1143 1.417 . S
C1144 C1145 1.352 . S
C1144 H1201 0.929 . S
C1145 C1144 1.352 . S
C1145 C1146 1.393 . S
C1146 C1141 1.360 . S
C1146 C1145 1.393 . S
C1146 H1202 0.931 . S
Cd1147 O1167 2.329 . S
Cd1147 O1169 2.350 . S
Cd1147 O1170 2.277 . S
Cd1147 O1172 2.173 . S
Cd1147 O1176 2.263 . S
Cd1147 O1187 2.366 . S
Cd1148 O1166 2.352 . S
Cd1148 O1173 2.250 . S
Cd1148 O1177 2.308 . S
C1149 C1153 1.403 . S
C1149 C1154 1.370 . S
C1149 N1165 1.423 . S
C1150 C1151 1.389 . S
C1150 C1154 1.389 . S
C1151 C1150 1.389 . S
C1151 C1152 1.379 . S
C1151 H1203 0.929 . S
C1152 C1151 1.379 . S
C1152 C1153 1.405 . S
C1153 C1149 1.403 . S
C1153 C1152 1.405 . S
C1153 H1204 0.932 . S
C1154 C1149 1.370 . S
C1154 C1150 1.389 . S
C1154 H1205 0.931 . S
Co1155 N1139 1.869 . S
Co1155 N1156 1.955 . S
Co1155 N1157 1.864 . S
Co1155 N1163 1.958 . S
Co1155 N1164 1.953 . S
Co1155 N1165 1.974 . S
N1156 Co1155 1.955 . S
N1156 C1174 1.329 . S
N1156 C1189 1.432 . S
N1157 Co1155 1.864 . S
N1157 C1158 1.327 . S
N1157 C1162 1.342 . S
C1158 N1157 1.327 . S
C1158 C1159 1.407 . S
C1158 C1174 1.481 . S
C1159 C1158 1.407 . S
C1159 C1160 1.364 . S
C1159 H1206 0.930 . S
C1160 C1159 1.364 . S
C1160 C1161 1.390 . S
C1160 H1207 0.931 . S
C1161 C1160 1.390 . S
C1161 C1162 1.346 . S
C1161 H1208 0.930 . S
C1162 N1157 1.342 . S
C1162 C1161 1.346 . S
C1162 C1178 1.516 . S
N1163 Co1155 1.958 . S
N1163 C1178 1.324 . S
N1163 C1180 1.427 . S
N1164 C1140 1.316 . S
N1164 C1141 1.436 . S
N1164 Co1155 1.953 . S
N1165 C1149 1.423 . S
N1165 Co1155 1.974 . S
N1165 C1195 1.309 . S
O1166 Cd1148 2.352 . S
O1166 C1186 1.235 . S
O1167 Cd1147 2.329 . S
O1167 C1186 1.270 . S
C1168 O1169 1.270 . S
C1168 O1170 1.248 . S
O1169 Cd1147 2.350 . S
O1169 C1168 1.270 . S
O1170 Cd1147 2.277 . S
O1170 C1168 1.248 . S
C1171 O1172 1.277 . S
C1171 O1173 1.230 . S
O1172 Cd1147 2.173 . S
O1172 C1171 1.277 . S
O1173 Cd1148 2.250 . S
O1173 C1171 1.230 . S
C1174 N1156 1.329 . S
C1174 C1158 1.481 . S
C1174 O1175 1.246 . S
O1175 C1174 1.246 . S
O1176 Cd1147 2.263 . S
O1176 C1188 1.258 . S
O1177 Cd1148 2.308 . S
O1177 C1188 1.274 . S
C1178 C1162 1.516 . S
C1178 N1163 1.324 . S
C1178 O1179 1.238 . S
O1179 C1178 1.238 . S
C1180 N1163 1.427 . S
C1180 C1181 1.394 . S
C1180 C1185 1.395 . S
C1181 C1180 1.394 . S
C1181 C1182 1.380 . S
C1181 H1209 0.929 . S
C1182 C1181 1.380 . S
C1182 C1183 1.384 . S
C1182 C1188 1.495 . S
C1183 C1182 1.384 . S
C1183 C1184 1.382 . S
C1183 H1210 0.930 . S
C1184 C1183 1.382 . S
C1184 C1185 1.398 . S
C1185 C1180 1.395 . S
C1185 C1184 1.398 . S
C1185 H1211 0.930 . S
C1186 O1166 1.235 . S
C1186 O1167 1.270 . S
O1187 C1140 1.263 . S
O1187 Cd1147 2.366 . S
C1188 O1176 1.258 . S
C1188 O1177 1.274 . S
C1188 C1182 1.495 . S
C1189 N1156 1.432 . S
C1189 C1190 1.381 . S
C1189 C1194 1.385 . S
C1190 C1189 1.381 . S
C1190 C1191 1.371 . S
C1190 H1212 0.932 . S
C1191 C1190 1.371 . S
C1191 C1192 1.400 . S
C1192 C1191 1.400 . S
C1192 C1193 1.351 . S
C1192 H1213 0.930 . S
C1193 C1192 1.351 . S
C1193 C1194 1.388 . S
C1194 C1189 1.385 . S
C1194 C1193 1.388 . S
C1194 H1214 0.929 . S
C1195 C1134 1.504 . S
C1195 N1165 1.309 . S
C1195 O1196 1.258 . S
O1196 C1195 1.258 . S
H1197 C1135 0.929 . S
H1198 C1136 0.932 . S
H1199 C1137 0.931 . S
H1200 C1142 0.929 . S
H1201 C1144 0.929 . S
H1202 C1146 0.931 . S
H1203 C1151 0.929 . S
H1204 C1153 0.932 . S
H1205 C1154 0.931 . S
H1206 C1159 0.930 . S
H1207 C1160 0.931 . S
H1208 C1161 0.930 . S
H1209 C1181 0.929 . S
H1210 C1183 0.930 . S
H1211 C1185 0.930 . S
H1212 C1190 0.932 . S
H1213 C1192 0.930 . S
H1214 C1194 0.929 . S
C1215 C1216 1.359 . S
C1215 N1220 1.330 . S
C1215 C1276 1.504 . S
C1216 C1215 1.359 . S
C1216 C1217 1.366 . S
C1216 H1278 0.929 . S
C1217 C1216 1.366 . S
C1217 C1218 1.415 . S
C1217 H1279 0.932 . S
C1218 C1217 1.415 . S
C1218 C1219 1.366 . S
C1218 H1280 0.931 . S
C1219 C1218 1.366 . S
C1219 N1220 1.325 . S
C1219 C1221 1.516 . S
N1220 C1215 1.330 . S
N1220 C1219 1.325 . S
N1220 Co1236 1.869 . S
C1221 C1219 1.516 . S
C1221 N1245 1.316 . S
C1221 O1268 1.263 . S
C1222 C1223 1.421 . S
C1222 C1227 1.360 . S
C1222 N1245 1.436 . S
C1223 C1222 1.421 . S
C1223 C1224 1.379 . S
C1223 H1281 0.929 . S
C1224 C1223 1.379 . S
C1224 C1225 1.417 . S
C1225 C1224 1.417 . S
C1225 C1226 1.352 . S
C1225 H1282 0.929 . S
C1226 C1225 1.352 . S
C1226 C1227 1.393 . S
C1227 C1222 1.360 . S
C1227 C1226 1.393 . S
C1227 H1283 0.931 . S
Cd1228 O1248 2.329 . S
Cd1228 O1250 2.350 . S
Cd1228 O1251 2.277 . S
Cd1228 O1253 2.173 . S
Cd1228 O1257 2.263 . S
Cd1228 O1268 2.366 . S
Cd1229 O1247 2.352 . S
Cd1229 O1254 2.250 . S
Cd1229 O1258 2.308 . S
C1230 C1234 1.403 . S
C1230 C1235 1.370 . S
C1230 N1246 1.423 . S
C1231 C1232 1.389 . S
C1231 C1235 1.389 . S
C1232 C1231 1.389 . S
C1232 C1233 1.379 . S
C1232 H1284 0.929 . S
C1233 C1232 1.379 . S
C1233 C1234 1.405 . S
C1234 C1230 1.403 . S
C1234 C1233 1.405 . S
C1234 H1285 0.932 . S
C1235 C1230 1.370 . S
C1235 C1231 1.389 . S
C1235 H1286 0.931 . S
Co1236 N1220 1.869 . S
Co1236 N1237 1.955 . S
Co1236 N1238 1.864 . S
Co1236 N1244 1.958 . S
Co1236 N1245 1.953 . S
Co1236 N1246 1.974 . S
N1237 Co1236 1.955 . S
N1237 C1255 1.329 . S
N1237 C1270 1.432 . S
N1238 Co1236 1.864 . S
N1238 C1239 1.327 . S
N1238 C1243 1.342 . S
C1239 N1238 1.327 . S
C1239 C1240 1.407 . S
C1239 C1255 1.481 . S
C1240 C1239 1.407 . S
C1240 C1241 1.364 . S
C1240 H1287 0.930 . S
C1241 C1240 1.364 . S
C1241 C1242 1.390 . S
C1241 H1288 0.931 . S
C1242 C1241 1.390 . S
C1242 C1243 1.346 . S
C1242 H1289 0.930 . S
C1243 N1238 1.342 . S
C1243 C1242 1.346 . S
C1243 C1259 1.516 . S
N1244 Co1236 1.958 . S
N1244 C1259 1.324 . S
N1244 C1261 1.427 . S
N1245 C1221 1.316 . S
N1245 C1222 1.436 . S
N1245 Co1236 1.953 . S
N1246 C1230 1.423 . S
N1246 Co1236 1.974 . S
N1246 C1276 1.309 . S
O1247 Cd1229 2.352 . S
O1247 C1267 1.235 . S
O1248 Cd1228 2.329 . S
O1248 C1267 1.270 . S
C1249 O1250 1.270 . S
C1249 O1251 1.248 . S
O1250 Cd1228 2.350 . S
O1250 C1249 1.270 . S
O1251 Cd1228 2.277 . S
O1251 C1249 1.248 . S
C1252 O1253 1.277 . S
C1252 O1254 1.230 . S
O1253 Cd1228 2.173 . S
O1253 C1252 1.277 . S
O1254 Cd1229 2.250 . S
O1254 C1252 1.230 . S
C1255 N1237 1.329 . S
C1255 C1239 1.481 . S
C1255 O1256 1.246 . S
O1256 C1255 1.246 . S
O1257 Cd1228 2.263 . S
O1257 C1269 1.258 . S
O1258 Cd1229 2.308 . S
O1258 C1269 1.274 . S
C1259 C1243 1.516 . S
C1259 N1244 1.324 . S
C1259 O1260 1.238 . S
O1260 C1259 1.238 . S
C1261 N1244 1.427 . S
C1261 C1262 1.394 . S
C1261 C1266 1.395 . S
C1262 C1261 1.394 . S
C1262 C1263 1.380 . S
C1262 H1290 0.929 . S
C1263 C1262 1.380 . S
C1263 C1264 1.384 . S
C1263 C1269 1.495 . S
C1264 C1263 1.384 . S
C1264 C1265 1.382 . S
C1264 H1291 0.930 . S
C1265 C1264 1.382 . S
C1265 C1266 1.398 . S
C1266 C1261 1.395 . S
C1266 C1265 1.398 . S
C1266 H1292 0.930 . S
C1267 O1247 1.235 . S
C1267 O1248 1.270 . S
O1268 C1221 1.263 . S
O1268 Cd1228 2.366 . S
C1269 O1257 1.258 . S
C1269 O1258 1.274 . S
C1269 C1263 1.495 . S
C1270 N1237 1.432 . S
C1270 C1271 1.381 . S
C1270 C1275 1.385 . S
C1271 C1270 1.381 . S
C1271 C1272 1.371 . S
C1271 H1293 0.932 . S
C1272 C1271 1.371 . S
C1272 C1273 1.400 . S
C1273 C1272 1.400 . S
C1273 C1274 1.351 . S
C1273 H1294 0.930 . S
C1274 C1273 1.351 . S
C1274 C1275 1.388 . S
C1275 C1270 1.385 . S
C1275 C1274 1.388 . S
C1275 H1295 0.929 . S
C1276 C1215 1.504 . S
C1276 N1246 1.309 . S
C1276 O1277 1.258 . S
O1277 C1276 1.258 . S
H1278 C1216 0.929 . S
H1279 C1217 0.932 . S
H1280 C1218 0.931 . S
H1281 C1223 0.929 . S
H1282 C1225 0.929 . S
H1283 C1227 0.931 . S
H1284 C1232 0.929 . S
H1285 C1234 0.932 . S
H1286 C1235 0.931 . S
H1287 C1240 0.930 . S
H1288 C1241 0.931 . S
H1289 C1242 0.930 . S
H1290 C1262 0.929 . S
H1291 C1264 0.930 . S
H1292 C1266 0.930 . S
H1293 C1271 0.932 . S
H1294 C1273 0.930 . S
H1295 C1275 0.929 . S
C1296 C1297 1.359 . S
C1296 N1301 1.330 . S
C1296 C1357 1.504 . S
C1297 C1296 1.359 . S
C1297 C1298 1.366 . S
C1297 H1359 0.929 . S
C1298 C1297 1.366 . S
C1298 C1299 1.415 . S
C1298 H1360 0.932 . S
C1299 C1298 1.415 . S
C1299 C1300 1.366 . S
C1299 H1361 0.931 . S
C1300 C1299 1.366 . S
C1300 N1301 1.325 . S
C1300 C1302 1.516 . S
N1301 C1296 1.330 . S
N1301 C1300 1.325 . S
N1301 Co1317 1.869 . S
C1302 C1300 1.516 . S
C1302 N1326 1.316 . S
C1302 O1349 1.263 . S
C1303 C1304 1.421 . S
C1303 C1308 1.360 . S
C1303 N1326 1.436 . S
C1304 C1303 1.421 . S
C1304 C1305 1.379 . S
C1304 H1362 0.929 . S
C1305 C1304 1.379 . S
C1305 C1306 1.417 . S
C1306 C1305 1.417 . S
C1306 C1307 1.352 . S
C1306 H1363 0.929 . S
C1307 C1306 1.352 . S
C1307 C1308 1.393 . S
C1308 C1303 1.360 . S
C1308 C1307 1.393 . S
C1308 H1364 0.931 . S
Cd1309 O1329 2.329 . S
Cd1309 O1331 2.350 . S
Cd1309 O1332 2.277 . S
Cd1309 O1334 2.173 . S
Cd1309 O1338 2.263 . S
Cd1309 O1349 2.366 . S
Cd1310 O1328 2.352 . S
Cd1310 O1335 2.250 . S
Cd1310 O1339 2.308 . S
C1311 C1315 1.403 . S
C1311 C1316 1.370 . S
C1311 N1327 1.423 . S
C1312 C1313 1.389 . S
C1312 C1316 1.389 . S
C1313 C1312 1.389 . S
C1313 C1314 1.379 . S
C1313 H1365 0.929 . S
C1314 C1313 1.379 . S
C1314 C1315 1.405 . S
C1315 C1311 1.403 . S
C1315 C1314 1.405 . S
C1315 H1366 0.932 . S
C1316 C1311 1.370 . S
C1316 C1312 1.389 . S
C1316 H1367 0.931 . S
Co1317 N1301 1.869 . S
Co1317 N1318 1.955 . S
Co1317 N1319 1.864 . S
Co1317 N1325 1.958 . S
Co1317 N1326 1.953 . S
Co1317 N1327 1.974 . S
N1318 Co1317 1.955 . S
N1318 C1336 1.329 . S
N1318 C1351 1.432 . S
N1319 Co1317 1.864 . S
N1319 C1320 1.327 . S
N1319 C1324 1.342 . S
C1320 N1319 1.327 . S
C1320 C1321 1.407 . S
C1320 C1336 1.481 . S
C1321 C1320 1.407 . S
C1321 C1322 1.364 . S
C1321 H1368 0.930 . S
C1322 C1321 1.364 . S
C1322 C1323 1.390 . S
C1322 H1369 0.931 . S
C1323 C1322 1.390 . S
C1323 C1324 1.346 . S
C1323 H1370 0.930 . S
C1324 N1319 1.342 . S
C1324 C1323 1.346 . S
C1324 C1340 1.516 . S
N1325 Co1317 1.958 . S
N1325 C1340 1.324 . S
N1325 C1342 1.427 . S
N1326 C1302 1.316 . S
N1326 C1303 1.436 . S
N1326 Co1317 1.953 . S
N1327 C1311 1.423 . S
N1327 Co1317 1.974 . S
N1327 C1357 1.309 . S
O1328 Cd1310 2.352 . S
O1328 C1348 1.235 . S
O1329 Cd1309 2.329 . S
O1329 C1348 1.270 . S
C1330 O1331 1.270 . S
C1330 O1332 1.248 . S
O1331 Cd1309 2.350 . S
O1331 C1330 1.270 . S
O1332 Cd1309 2.277 . S
O1332 C1330 1.248 . S
C1333 O1334 1.277 . S
C1333 O1335 1.230 . S
O1334 Cd1309 2.173 . S
O1334 C1333 1.277 . S
O1335 Cd1310 2.250 . S
O1335 C1333 1.230 . S
C1336 N1318 1.329 . S
C1336 C1320 1.481 . S
C1336 O1337 1.246 . S
O1337 C1336 1.246 . S
O1338 Cd1309 2.263 . S
O1338 C1350 1.258 . S
O1339 Cd1310 2.308 . S
O1339 C1350 1.274 . S
C1340 C1324 1.516 . S
C1340 N1325 1.324 . S
C1340 O1341 1.238 . S
O1341 C1340 1.238 . S
C1342 N1325 1.427 . S
C1342 C1343 1.394 . S
C1342 C1347 1.395 . S
C1343 C1342 1.394 . S
C1343 C1344 1.380 . S
C1343 H1371 0.929 . S
C1344 C1343 1.380 . S
C1344 C1345 1.384 . S
C1344 C1350 1.495 . S
C1345 C1344 1.384 . S
C1345 C1346 1.382 . S
C1345 H1372 0.930 . S
C1346 C1345 1.382 . S
C1346 C1347 1.398 . S
C1347 C1342 1.395 . S
C1347 C1346 1.398 . S
C1347 H1373 0.930 . S
C1348 O1328 1.235 . S
C1348 O1329 1.270 . S
O1349 C1302 1.263 . S
O1349 Cd1309 2.366 . S
C1350 O1338 1.258 . S
C1350 O1339 1.274 . S
C1350 C1344 1.495 . S
C1351 N1318 1.432 . S
C1351 C1352 1.381 . S
C1351 C1356 1.385 . S
C1352 C1351 1.381 . S
C1352 C1353 1.371 . S
C1352 H1374 0.932 . S
C1353 C1352 1.371 . S
C1353 C1354 1.400 . S
C1354 C1353 1.400 . S
C1354 C1355 1.351 . S
C1354 H1375 0.930 . S
C1355 C1354 1.351 . S
C1355 C1356 1.388 . S
C1356 C1351 1.385 . S
C1356 C1355 1.388 . S
C1356 H1376 0.929 . S
C1357 C1296 1.504 . S
C1357 N1327 1.309 . S
C1357 O1358 1.258 . S
O1358 C1357 1.258 . S
H1359 C1297 0.929 . S
H1360 C1298 0.932 . S
H1361 C1299 0.931 . S
H1362 C1304 0.929 . S
H1363 C1306 0.929 . S
H1364 C1308 0.931 . S
H1365 C1313 0.929 . S
H1366 C1315 0.932 . S
H1367 C1316 0.931 . S
H1368 C1321 0.930 . S
H1369 C1322 0.931 . S
H1370 C1323 0.930 . S
H1371 C1343 0.929 . S
H1372 C1345 0.930 . S
H1373 C1347 0.930 . S
H1374 C1352 0.932 . S
H1375 C1354 0.930 . S
H1376 C1356 0.929 . S
C1377 C1378 1.359 . S
C1377 N1382 1.330 . S
C1377 C1438 1.504 . S
C1378 C1377 1.359 . S
C1378 C1379 1.366 . S
C1378 H1440 0.929 . S
C1379 C1378 1.366 . S
C1379 C1380 1.415 . S
C1379 H1441 0.932 . S
C1380 C1379 1.415 . S
C1380 C1381 1.366 . S
C1380 H1442 0.931 . S
C1381 C1380 1.366 . S
C1381 N1382 1.325 . S
C1381 C1383 1.516 . S
N1382 C1377 1.330 . S
N1382 C1381 1.325 . S
N1382 Co1398 1.869 . S
C1383 C1381 1.516 . S
C1383 N1407 1.316 . S
C1383 O1430 1.263 . S
C1384 C1385 1.421 . S
C1384 C1389 1.360 . S
C1384 N1407 1.436 . S
C1385 C1384 1.421 . S
C1385 C1386 1.379 . S
C1385 H1443 0.929 . S
C1386 C1385 1.379 . S
C1386 C1387 1.417 . S
C1387 C1386 1.417 . S
C1387 C1388 1.352 . S
C1387 H1444 0.929 . S
C1388 C1387 1.352 . S
C1388 C1389 1.393 . S
C1389 C1384 1.360 . S
C1389 C1388 1.393 . S
C1389 H1445 0.931 . S
Cd1390 O1410 2.329 . S
Cd1390 O1412 2.350 . S
Cd1390 O1413 2.277 . S
Cd1390 O1415 2.173 . S
Cd1390 O1419 2.263 . S
Cd1390 O1430 2.366 . S
Cd1391 O1409 2.352 . S
Cd1391 O1416 2.250 . S
Cd1391 O1420 2.308 . S
C1392 C1396 1.403 . S
C1392 C1397 1.370 . S
C1392 N1408 1.423 . S
C1393 C1394 1.389 . S
C1393 C1397 1.389 . S
C1394 C1393 1.389 . S
C1394 C1395 1.379 . S
C1394 H1446 0.929 . S
C1395 C1394 1.379 . S
C1395 C1396 1.405 . S
C1396 C1392 1.403 . S
C1396 C1395 1.405 . S
C1396 H1447 0.932 . S
C1397 C1392 1.370 . S
C1397 C1393 1.389 . S
C1397 H1448 0.931 . S
Co1398 N1382 1.869 . S
Co1398 N1399 1.955 . S
Co1398 N1400 1.864 . S
Co1398 N1406 1.958 . S
Co1398 N1407 1.953 . S
Co1398 N1408 1.974 . S
N1399 Co1398 1.955 . S
N1399 C1417 1.329 . S
N1399 C1432 1.432 . S
N1400 Co1398 1.864 . S
N1400 C1401 1.327 . S
N1400 C1405 1.342 . S
C1401 N1400 1.327 . S
C1401 C1402 1.407 . S
C1401 C1417 1.481 . S
C1402 C1401 1.407 . S
C1402 C1403 1.364 . S
C1402 H1449 0.930 . S
C1403 C1402 1.364 . S
C1403 C1404 1.390 . S
C1403 H1450 0.931 . S
C1404 C1403 1.390 . S
C1404 C1405 1.346 . S
C1404 H1451 0.930 . S
C1405 N1400 1.342 . S
C1405 C1404 1.346 . S
C1405 C1421 1.516 . S
N1406 Co1398 1.958 . S
N1406 C1421 1.324 . S
N1406 C1423 1.427 . S
N1407 C1383 1.316 . S
N1407 C1384 1.436 . S
N1407 Co1398 1.953 . S
N1408 C1392 1.423 . S
N1408 Co1398 1.974 . S
N1408 C1438 1.309 . S
O1409 Cd1391 2.352 . S
O1409 C1429 1.235 . S
O1410 Cd1390 2.329 . S
O1410 C1429 1.270 . S
C1411 O1412 1.270 . S
C1411 O1413 1.248 . S
O1412 Cd1390 2.350 . S
O1412 C1411 1.270 . S
O1413 Cd1390 2.277 . S
O1413 C1411 1.248 . S
C1414 O1415 1.277 . S
C1414 O1416 1.230 . S
O1415 Cd1390 2.173 . S
O1415 C1414 1.277 . S
O1416 Cd1391 2.250 . S
O1416 C1414 1.230 . S
C1417 N1399 1.329 . S
C1417 C1401 1.481 . S
C1417 O1418 1.246 . S
O1418 C1417 1.246 . S
O1419 Cd1390 2.263 . S
O1419 C1431 1.258 . S
O1420 Cd1391 2.308 . S
O1420 C1431 1.274 . S
C1421 C1405 1.516 . S
C1421 N1406 1.324 . S
C1421 O1422 1.238 . S
O1422 C1421 1.238 . S
C1423 N1406 1.427 . S
C1423 C1424 1.394 . S
C1423 C1428 1.395 . S
C1424 C1423 1.394 . S
C1424 C1425 1.380 . S
C1424 H1452 0.929 . S
C1425 C1424 1.380 . S
C1425 C1426 1.384 . S
C1425 C1431 1.495 . S
C1426 C1425 1.384 . S
C1426 C1427 1.382 . S
C1426 H1453 0.930 . S
C1427 C1426 1.382 . S
C1427 C1428 1.398 . S
C1428 C1423 1.395 . S
C1428 C1427 1.398 . S
C1428 H1454 0.930 . S
C1429 O1409 1.235 . S
C1429 O1410 1.270 . S
O1430 C1383 1.263 . S
O1430 Cd1390 2.366 . S
C1431 O1419 1.258 . S
C1431 O1420 1.274 . S
C1431 C1425 1.495 . S
C1432 N1399 1.432 . S
C1432 C1433 1.381 . S
C1432 C1437 1.385 . S
C1433 C1432 1.381 . S
C1433 C1434 1.371 . S
C1433 H1455 0.932 . S
C1434 C1433 1.371 . S
C1434 C1435 1.400 . S
C1435 C1434 1.400 . S
C1435 C1436 1.351 . S
C1435 H1456 0.930 . S
C1436 C1435 1.351 . S
C1436 C1437 1.388 . S
C1437 C1432 1.385 . S
C1437 C1436 1.388 . S
C1437 H1457 0.929 . S
C1438 C1377 1.504 . S
C1438 N1408 1.309 . S
C1438 O1439 1.258 . S
O1439 C1438 1.258 . S
H1440 C1378 0.929 . S
H1441 C1379 0.932 . S
H1442 C1380 0.931 . S
H1443 C1385 0.929 . S
H1444 C1387 0.929 . S
H1445 C1389 0.931 . S
H1446 C1394 0.929 . S
H1447 C1396 0.932 . S
H1448 C1397 0.931 . S
H1449 C1402 0.930 . S
H1450 C1403 0.931 . S
H1451 C1404 0.930 . S
H1452 C1424 0.929 . S
H1453 C1426 0.930 . S
H1454 C1428 0.930 . S
H1455 C1433 0.932 . S
H1456 C1435 0.930 . S
H1457 C1437 0.929 . S
H1458 C1466 0.929 . S
H1459 C1468 0.930 . S
H1460 C1470 0.930 . S
H1461 C1473 0.929 . S
H1462 C1476 0.930 . S
H1463 C1478 0.960 . S
H1464 C1478 0.960 . S
H1465 C1478 0.960 . S
C1466 H1458 0.929 . S
C1466 C1467 1.377 . S
C1466 C1468 1.384 . S
C1467 C1466 1.377 . S
C1467 C1473 1.390 . S
C1468 H1459 0.930 . S
C1468 C1466 1.384 . S
C1468 C1469 1.372 . S
C1469 C1468 1.372 . S
C1469 C1470 1.400 . S
C1469 C1474 1.490 . S
C1470 H1460 0.930 . S
C1470 C1469 1.400 . S
C1470 C1473 1.386 . S
H1471 C1487 0.930 . S
H1472 C1488 0.931 . S
C1473 H1461 0.929 . S
C1473 C1467 1.390 . S
C1473 C1470 1.386 . S
C1474 C1469 1.490 . S
C1474 C1476 1.395 . S
C1474 C1477 1.403 . S
H1475 C1481 0.930 . S
C1476 H1462 0.930 . S
C1476 C1474 1.395 . S
C1476 C1479 1.403 . S
C1477 C1474 1.403 . S
C1477 C1478 1.524 . S
C1477 C1481 1.400 . S
C1478 H1463 0.960 . S
C1478 H1464 0.960 . S
C1478 H1465 0.960 . S
C1478 C1477 1.524 . S
C1479 C1476 1.403 . S
C1479 C1480 1.392 . S
C1479 C1483 1.495 . S
C1480 C1479 1.392 . S
C1480 C1481 1.385 . S
C1480 C1482 1.478 . S
C1481 H1475 0.930 . S
C1481 C1477 1.400 . S
C1481 C1480 1.385 . S
C1482 C1480 1.478 . S
C1482 C1484 1.381 . S
C1482 C1488 1.383 . S
C1483 C1479 1.495 . S
C1483 H1489 0.959 . S
C1483 H1490 0.961 . S
C1483 H1491 0.960 . S
C1484 C1482 1.381 . S
C1484 C1485 1.394 . S
C1484 H1492 0.930 . S
C1485 C1484 1.394 . S
C1485 C1486 1.383 . S
C1485 H1493 0.929 . S
C1486 C1485 1.383 . S
C1486 C1487 1.377 . S
C1487 H1471 0.930 . S
C1487 C1486 1.377 . S
C1487 C1488 1.379 . S
C1488 H1472 0.931 . S
C1488 C1482 1.383 . S
C1488 C1487 1.379 . S
H1489 C1483 0.959 . S
H1490 C1483 0.961 . S
H1491 C1483 0.960 . S
H1492 C1484 0.930 . S
H1493 C1485 0.929 . S
H1494 C1502 0.929 . S
H1495 C1504 0.930 . S
H1496 C1506 0.930 . S
H1497 C1509 0.929 . S
H1498 C1512 0.930 . S
H1499 C1514 0.960 . S
H1500 C1514 0.960 . S
H1501 C1514 0.960 . S
C1502 H1494 0.929 . S
C1502 C1503 1.377 . S
C1502 C1504 1.384 . S
C1503 C1502 1.377 . S
C1503 C1509 1.390 . S
C1504 H1495 0.930 . S
C1504 C1502 1.384 . S
C1504 C1505 1.372 . S
C1505 C1504 1.372 . S
C1505 C1506 1.400 . S
C1505 C1510 1.490 . S
C1506 H1496 0.930 . S
C1506 C1505 1.400 . S
C1506 C1509 1.386 . S
H1507 C1523 0.930 . S
H1508 C1524 0.931 . S
C1509 H1497 0.929 . S
C1509 C1503 1.390 . S
C1509 C1506 1.386 . S
C1510 C1505 1.490 . S
C1510 C1512 1.395 . S
C1510 C1513 1.403 . S
H1511 C1517 0.930 . S
C1512 H1498 0.930 . S
C1512 C1510 1.395 . S
C1512 C1515 1.403 . S
C1513 C1510 1.403 . S
C1513 C1514 1.524 . S
C1513 C1517 1.400 . S
C1514 H1499 0.960 . S
C1514 H1500 0.960 . S
C1514 H1501 0.960 . S
C1514 C1513 1.524 . S
C1515 C1512 1.403 . S
C1515 C1516 1.392 . S
C1515 C1519 1.495 . S
C1516 C1515 1.392 . S
C1516 C1517 1.385 . S
C1516 C1518 1.478 . S
C1517 H1511 0.930 . S
C1517 C1513 1.400 . S
C1517 C1516 1.385 . S
C1518 C1516 1.478 . S
C1518 C1520 1.381 . S
C1518 C1524 1.383 . S
C1519 C1515 1.495 . S
C1519 H1525 0.959 . S
C1519 H1526 0.961 . S
C1519 H1527 0.960 . S
C1520 C1518 1.381 . S
C1520 C1521 1.394 . S
C1520 H1528 0.930 . S
C1521 C1520 1.394 . S
C1521 C1522 1.383 . S
C1521 H1529 0.929 . S
C1522 C1521 1.383 . S
C1522 C1523 1.377 . S
C1523 H1507 0.930 . S
C1523 C1522 1.377 . S
C1523 C1524 1.379 . S
C1524 H1508 0.931 . S
C1524 C1518 1.383 . S
C1524 C1523 1.379 . S
H1525 C1519 0.959 . S
H1526 C1519 0.961 . S
H1527 C1519 0.960 . S
H1528 C1520 0.930 . S
H1529 C1521 0.929 . S
H1530 C1538 0.929 . S
H1531 C1540 0.930 . S
H1532 C1542 0.930 . S
H1533 C1545 0.929 . S
H1534 C1548 0.930 . S
H1535 C1550 0.960 . S
H1536 C1550 0.960 . S
H1537 C1550 0.960 . S
C1538 H1530 0.929 . S
C1538 C1539 1.377 . S
C1538 C1540 1.384 . S
C1539 C1538 1.377 . S
C1539 C1545 1.390 . S
C1540 H1531 0.930 . S
C1540 C1538 1.384 . S
C1540 C1541 1.372 . S
C1541 C1540 1.372 . S
C1541 C1542 1.400 . S
C1541 C1546 1.490 . S
C1542 H1532 0.930 . S
C1542 C1541 1.400 . S
C1542 C1545 1.386 . S
H1543 C1559 0.930 . S
H1544 C1560 0.931 . S
C1545 H1533 0.929 . S
C1545 C1539 1.390 . S
C1545 C1542 1.386 . S
C1546 C1541 1.490 . S
C1546 C1548 1.395 . S
C1546 C1549 1.403 . S
H1547 C1553 0.930 . S
C1548 H1534 0.930 . S
C1548 C1546 1.395 . S
C1548 C1551 1.403 . S
C1549 C1546 1.403 . S
C1549 C1550 1.524 . S
C1549 C1553 1.400 . S
C1550 H1535 0.960 . S
C1550 H1536 0.960 . S
C1550 H1537 0.960 . S
C1550 C1549 1.524 . S
C1551 C1548 1.403 . S
C1551 C1552 1.392 . S
C1551 C1555 1.495 . S
C1552 C1551 1.392 . S
C1552 C1553 1.385 . S
C1552 C1554 1.478 . S
C1553 H1547 0.930 . S
C1553 C1549 1.400 . S
C1553 C1552 1.385 . S
C1554 C1552 1.478 . S
C1554 C1556 1.381 . S
C1554 C1560 1.383 . S
C1555 C1551 1.495 . S
C1555 H1561 0.959 . S
C1555 H1562 0.961 . S
C1555 H1563 0.960 . S
C1556 C1554 1.381 . S
C1556 C1557 1.394 . S
C1556 H1564 0.930 . S
C1557 C1556 1.394 . S
C1557 C1558 1.383 . S
C1557 H1565 0.929 . S
C1558 C1557 1.383 . S
C1558 C1559 1.377 . S
C1559 H1543 0.930 . S
C1559 C1558 1.377 . S
C1559 C1560 1.379 . S
C1560 H1544 0.931 . S
C1560 C1554 1.383 . S
C1560 C1559 1.379 . S
H1561 C1555 0.959 . S
H1562 C1555 0.961 . S
H1563 C1555 0.960 . S
H1564 C1556 0.930 . S
H1565 C1557 0.929 . S
H1566 C1574 0.929 . S
H1567 C1576 0.930 . S
H1568 C1578 0.930 . S
H1569 C1581 0.929 . S
H1570 C1584 0.930 . S
H1571 C1586 0.960 . S
H1572 C1586 0.960 . S
H1573 C1586 0.960 . S
C1574 H1566 0.929 . S
C1574 C1575 1.377 . S
C1574 C1576 1.384 . S
C1575 C1574 1.377 . S
C1575 C1581 1.390 . S
C1576 H1567 0.930 . S
C1576 C1574 1.384 . S
C1576 C1577 1.372 . S
C1577 C1576 1.372 . S
C1577 C1578 1.400 . S
C1577 C1582 1.490 . S
C1578 H1568 0.930 . S
C1578 C1577 1.400 . S
C1578 C1581 1.386 . S
H1579 C1595 0.930 . S
H1580 C1596 0.931 . S
C1581 H1569 0.929 . S
C1581 C1575 1.390 . S
C1581 C1578 1.386 . S
C1582 C1577 1.490 . S
C1582 C1584 1.395 . S
C1582 C1585 1.403 . S
H1583 C1589 0.930 . S
C1584 H1570 0.930 . S
C1584 C1582 1.395 . S
C1584 C1587 1.403 . S
C1585 C1582 1.403 . S
C1585 C1586 1.524 . S
C1585 C1589 1.400 . S
C1586 H1571 0.960 . S
C1586 H1572 0.960 . S
C1586 H1573 0.960 . S
C1586 C1585 1.524 . S
C1587 C1584 1.403 . S
C1587 C1588 1.392 . S
C1587 C1591 1.495 . S
C1588 C1587 1.392 . S
C1588 C1589 1.385 . S
C1588 C1590 1.478 . S
C1589 H1583 0.930 . S
C1589 C1585 1.400 . S
C1589 C1588 1.385 . S
C1590 C1588 1.478 . S
C1590 C1592 1.381 . S
C1590 C1596 1.383 . S
C1591 C1587 1.495 . S
C1591 H1597 0.959 . S
C1591 H1598 0.961 . S
C1591 H1599 0.960 . S
C1592 C1590 1.381 . S
C1592 C1593 1.394 . S
C1592 H1600 0.930 . S
C1593 C1592 1.394 . S
C1593 C1594 1.383 . S
C1593 H1601 0.929 . S
C1594 C1593 1.383 . S
C1594 C1595 1.377 . S
C1595 H1579 0.930 . S
C1595 C1594 1.377 . S
C1595 C1596 1.379 . S
C1596 H1580 0.931 . S
C1596 C1590 1.383 . S
C1596 C1595 1.379 . S
H1597 C1591 0.959 . S
H1598 C1591 0.961 . S
H1599 C1591 0.960 . S
H1600 C1592 0.930 . S
H1601 C1593 0.929 . S
H1602 C1610 0.929 . S
H1603 C1612 0.930 . S
H1604 C1614 0.930 . S
H1605 C1617 0.929 . S
H1606 C1620 0.930 . S
H1607 C1622 0.960 . S
H1608 C1622 0.960 . S
H1609 C1622 0.960 . S
C1610 H1602 0.929 . S
C1610 C1611 1.377 . S
C1610 C1612 1.384 . S
C1611 C1610 1.377 . S
C1611 C1617 1.390 . S
C1612 H1603 0.930 . S
C1612 C1610 1.384 . S
C1612 C1613 1.372 . S
C1613 C1612 1.372 . S
C1613 C1614 1.400 . S
C1613 C1618 1.490 . S
C1614 H1604 0.930 . S
C1614 C1613 1.400 . S
C1614 C1617 1.386 . S
H1615 C1631 0.930 . S
H1616 C1632 0.931 . S
C1617 H1605 0.929 . S
C1617 C1611 1.390 . S
C1617 C1614 1.386 . S
C1618 C1613 1.490 . S
C1618 C1620 1.395 . S
C1618 C1621 1.403 . S
H1619 C1625 0.930 . S
C1620 H1606 0.930 . S
C1620 C1618 1.395 . S
C1620 C1623 1.403 . S
C1621 C1618 1.403 . S
C1621 C1622 1.524 . S
C1621 C1625 1.400 . S
C1622 H1607 0.960 . S
C1622 H1608 0.960 . S
C1622 H1609 0.960 . S
C1622 C1621 1.524 . S
C1623 C1620 1.403 . S
C1623 C1624 1.392 . S
C1623 C1627 1.495 . S
C1624 C1623 1.392 . S
C1624 C1625 1.385 . S
C1624 C1626 1.478 . S
C1625 H1619 0.930 . S
C1625 C1621 1.400 . S
C1625 C1624 1.385 . S
C1626 C1624 1.478 . S
C1626 C1628 1.381 . S
C1626 C1632 1.383 . S
C1627 C1623 1.495 . S
C1627 H1633 0.959 . S
C1627 H1634 0.961 . S
C1627 H1635 0.960 . S
C1628 C1626 1.381 . S
C1628 C1629 1.394 . S
C1628 H1636 0.930 . S
C1629 C1628 1.394 . S
C1629 C1630 1.383 . S
C1629 H1637 0.929 . S
C1630 C1629 1.383 . S
C1630 C1631 1.377 . S
C1631 H1615 0.930 . S
C1631 C1630 1.377 . S
C1631 C1632 1.379 . S
C1632 H1616 0.931 . S
C1632 C1626 1.383 . S
C1632 C1631 1.379 . S
H1633 C1627 0.959 . S
H1634 C1627 0.961 . S
H1635 C1627 0.960 . S
H1636 C1628 0.930 . S
H1637 C1629 0.929 . S
H1638 C1646 0.929 . S
H1639 C1648 0.930 . S
H1640 C1650 0.930 . S
H1641 C1653 0.929 . S
H1642 C1656 0.930 . S
H1643 C1658 0.960 . S
H1644 C1658 0.960 . S
H1645 C1658 0.960 . S
C1646 H1638 0.929 . S
C1646 C1647 1.377 . S
C1646 C1648 1.384 . S
C1647 C1646 1.377 . S
C1647 C1653 1.390 . S
C1648 H1639 0.930 . S
C1648 C1646 1.384 . S
C1648 C1649 1.372 . S
C1649 C1648 1.372 . S
C1649 C1650 1.400 . S
C1649 C1654 1.490 . S
C1650 H1640 0.930 . S
C1650 C1649 1.400 . S
C1650 C1653 1.386 . S
H1651 C1667 0.930 . S
H1652 C1668 0.931 . S
C1653 H1641 0.929 . S
C1653 C1647 1.390 . S
C1653 C1650 1.386 . S
C1654 C1649 1.490 . S
C1654 C1656 1.395 . S
C1654 C1657 1.403 . S
H1655 C1661 0.930 . S
C1656 H1642 0.930 . S
C1656 C1654 1.395 . S
C1656 C1659 1.403 . S
C1657 C1654 1.403 . S
C1657 C1658 1.524 . S
C1657 C1661 1.400 . S
C1658 H1643 0.960 . S
C1658 H1644 0.960 . S
C1658 H1645 0.960 . S
C1658 C1657 1.524 . S
C1659 C1656 1.403 . S
C1659 C1660 1.392 . S
C1659 C1663 1.495 . S
C1660 C1659 1.392 . S
C1660 C1661 1.385 . S
C1660 C1662 1.478 . S
C1661 H1655 0.930 . S
C1661 C1657 1.400 . S
C1661 C1660 1.385 . S
C1662 C1660 1.478 . S
C1662 C1664 1.381 . S
C1662 C1668 1.383 . S
C1663 C1659 1.495 . S
C1663 H1669 0.959 . S
C1663 H1670 0.961 . S
C1663 H1671 0.960 . S
C1664 C1662 1.381 . S
C1664 C1665 1.394 . S
C1664 H1672 0.930 . S
C1665 C1664 1.394 . S
C1665 C1666 1.383 . S
C1665 H1673 0.929 . S
C1666 C1665 1.383 . S
C1666 C1667 1.377 . S
C1667 H1651 0.930 . S
C1667 C1666 1.377 . S
C1667 C1668 1.379 . S
C1668 H1652 0.931 . S
C1668 C1662 1.383 . S
C1668 C1667 1.379 . S
H1669 C1663 0.959 . S
H1670 C1663 0.961 . S
H1671 C1663 0.960 . S
H1672 C1664 0.930 . S
H1673 C1665 0.929 . S
H1674 C1682 0.955 . S
H1675 C1684 0.930 . S
H1676 C1686 0.930 . S
H1677 C1689 0.929 . S
H1678 C1692 0.930 . S
H1679 C1694 0.963 . S
H1680 C1694 0.960 . S
H1681 C1694 0.960 . S
C1682 H1674 0.955 . S
C1682 C1683 1.342 1_545 S
C1682 C1684 1.395 . S
C1683 C1682 1.342 1_565 S
C1683 C1689 1.390 . S
C1684 H1675 0.930 . S
C1684 C1682 1.395 . S
C1684 C1685 1.372 1_545 S
C1685 C1684 1.372 1_565 S
C1685 C1686 1.400 . S
C1685 C1690 1.490 . S
C1686 H1676 0.930 . S
C1686 C1685 1.400 . S
C1686 C1689 1.386 . S
H1687 C1703 0.911 1_565 S
H1688 C1704 0.931 . S
C1689 H1677 0.929 . S
C1689 C1683 1.390 . S
C1689 C1686 1.386 . S
C1690 C1685 1.490 . S
C1690 C1692 1.395 1_565 S
C1690 C1693 1.403 . S
H1691 C1697 0.930 . S
C1692 H1678 0.930 . S
C1692 C1690 1.395 1_545 S
C1692 C1695 1.403 1_556 S
C1693 C1690 1.403 . S
C1693 C1694 1.524 . S
C1693 C1697 1.400 1_556 S
C1694 H1679 0.963 . S
C1694 H1680 0.960 . S
C1694 H1681 0.960 . S
C1694 C1693 1.524 . S
C1695 C1692 1.403 1_554 S
C1695 C1696 1.392 . S
C1695 C1699 1.495 . S
C1696 C1695 1.392 . S
C1696 C1697 1.385 1_545 S
C1696 C1698 1.478 . S
C1697 H1691 0.930 . S
C1697 C1693 1.400 1_554 S
C1697 C1696 1.385 1_565 S
C1698 C1696 1.478 . S
C1698 C1700 1.381 . S
C1698 C1704 1.383 1_545 S
C1699 C1695 1.495 . S
C1699 H1705 0.952 1_554 S
C1699 H1706 0.961 . S
C1699 H1707 0.960 . S
C1700 C1698 1.381 . S
C1700 C1701 1.394 . S
C1700 H1708 0.930 . S
C1701 C1700 1.394 . S
C1701 C1702 1.383 . S
C1701 H1709 0.929 . S
C1702 C1701 1.383 . S
C1702 C1703 1.401 . S
C1703 H1687 0.911 1_545 S
C1703 C1702 1.401 . S
C1703 C1704 1.374 1_545 S
C1704 H1688 0.931 . S
C1704 C1698 1.383 1_565 S
C1704 C1703 1.374 1_565 S
H1705 C1699 0.952 1_556 S
H1706 C1699 0.961 . S
H1707 C1699 0.960 . S
H1708 C1700 0.930 . S
H1709 C1701 0.929 . S
H1710 C1718 0.929 . S
H1711 C1720 0.930 . S
H1712 C1722 0.924 1_455 S
H1713 C1725 0.929 1_455 S
H1714 C1728 0.930 . S
H1715 C1730 0.960 . S
H1716 C1730 0.960 . S
H1717 C1730 0.960 . S
C1718 H1710 0.929 . S
C1718 C1719 1.377 . S
C1718 C1720 1.384 . S
C1719 C1718 1.377 . S
C1719 C1725 1.390 . S
C1720 H1711 0.930 . S
C1720 C1718 1.384 . S
C1720 C1721 1.372 . S
C1721 C1720 1.372 . S
C1721 C1722 1.402 . S
C1721 C1726 1.490 . S
C1722 H1712 0.924 1_655 S
C1722 C1721 1.402 . S
C1722 C1725 1.389 . S
H1723 C1739 0.930 . S
H1724 C1740 0.931 . S
C1725 H1713 0.929 1_655 S
C1725 C1719 1.390 . S
C1725 C1722 1.389 . S
C1726 C1721 1.490 . S
C1726 C1728 1.395 . S
C1726 C1729 1.403 1_655 S
H1727 C1733 0.930 . S
C1728 H1714 0.930 . S
C1728 C1726 1.395 . S
C1728 C1731 1.403 1_554 S
C1729 C1726 1.403 1_455 S
C1729 C1730 1.524 . S
C1729 C1733 1.400 1_554 S
C1730 H1715 0.960 . S
C1730 H1716 0.960 . S
C1730 H1717 0.960 . S
C1730 C1729 1.524 . S
C1731 C1728 1.403 1_556 S
C1731 C1732 1.342 1_655 S
C1731 C1735 1.495 . S
C1732 C1731 1.342 1_455 S
C1732 C1733 1.430 . S
C1732 C1734 1.487 . S
C1733 H1727 0.930 . S
C1733 C1729 1.400 1_556 S
C1733 C1732 1.430 . S
C1734 C1732 1.487 . S
C1734 C1736 1.381 1_455 S
C1734 C1740 1.383 . S
C1735 C1731 1.495 . S
C1735 H1741 0.959 . S
C1735 H1742 0.961 . S
C1735 H1743 0.960 . S
C1736 C1734 1.381 1_655 S
C1736 C1737 1.394 1_655 S
C1736 H1744 0.930 . S
C1737 C1736 1.394 1_455 S
C1737 C1738 1.383 . S
C1737 H1745 0.930 1_455 S
C1738 C1737 1.383 . S
C1738 C1739 1.377 . S
C1739 H1723 0.930 . S
C1739 C1738 1.377 . S
C1739 C1740 1.379 . S
C1740 H1724 0.931 . S
C1740 C1734 1.383 . S
C1740 C1739 1.379 . S
H1741 C1735 0.959 . S
H1742 C1735 0.961 . S
H1743 C1735 0.960 . S
H1744 C1736 0.930 . S
H1745 C1737 0.930 1_655 S
H1746 C1754 0.929 . S
H1747 C1756 0.930 . S
H1748 C1758 0.930 . S
H1749 C1761 0.929 . S
H1750 C1764 0.930 . S
H1751 C1766 0.960 . S
H1752 C1766 0.960 . S
H1753 C1766 0.960 . S
C1754 H1746 0.929 . S
C1754 C1755 1.377 . S
C1754 C1756 1.384 . S
C1755 C1754 1.377 . S
C1755 C1761 1.390 . S
C1756 H1747 0.930 . S
C1756 C1754 1.384 . S
C1756 C1757 1.372 . S
C1757 C1756 1.372 . S
C1757 C1758 1.400 . S
C1757 C1762 1.490 . S
C1758 H1748 0.930 . S
C1758 C1757 1.400 . S
C1758 C1761 1.386 . S
H1759 C1775 0.930 . S
H1760 C1776 0.931 . S
C1761 H1749 0.929 . S
C1761 C1755 1.390 . S
C1761 C1758 1.386 . S
C1762 C1757 1.490 . S
C1762 C1764 1.395 . S
C1762 C1765 1.403 . S
H1763 C1769 0.930 . S
C1764 H1750 0.930 . S
C1764 C1762 1.395 . S
C1764 C1767 1.403 1_554 S
C1765 C1762 1.403 . S
C1765 C1766 1.524 . S
C1765 C1769 1.400 1_554 S
C1766 H1751 0.960 . S
C1766 H1752 0.960 . S
C1766 H1753 0.960 . S
C1766 C1765 1.524 . S
C1767 C1764 1.403 1_556 S
C1767 C1768 1.392 . S
C1767 C1771 1.495 . S
C1768 C1767 1.392 . S
C1768 C1769 1.385 . S
C1768 C1770 1.478 . S
C1769 H1763 0.930 . S
C1769 C1765 1.400 1_556 S
C1769 C1768 1.385 . S
C1770 C1768 1.478 . S
C1770 C1772 1.381 . S
C1770 C1776 1.383 . S
C1771 C1767 1.495 . S
C1771 H1777 0.959 . S
C1771 H1778 0.961 . S
C1771 H1779 0.960 . S
C1772 C1770 1.381 . S
C1772 C1773 1.394 . S
C1772 H1780 0.930 . S
C1773 C1772 1.394 . S
C1773 C1774 1.383 . S
C1773 H1781 0.929 . S
C1774 C1773 1.383 . S
C1774 C1775 1.377 . S
C1775 H1759 0.930 . S
C1775 C1774 1.377 . S
C1775 C1776 1.379 . S
C1776 H1760 0.931 . S
C1776 C1770 1.383 . S
C1776 C1775 1.379 . S
H1777 C1771 0.959 . S
H1778 C1771 0.961 . S
H1779 C1771 0.960 . S
H1780 C1772 0.930 . S
H1781 C1773 0.929 . S
H1782 C1790 0.929 . S
H1783 C1792 0.930 . S
H1784 C1794 0.930 . S
H1785 C1797 0.929 . S
H1786 C1800 0.930 . S
H1787 C1802 0.960 . S
H1788 C1802 0.960 . S
H1789 C1802 0.960 . S
C1790 H1782 0.929 . S
C1790 C1791 1.377 . S
C1790 C1792 1.384 . S
C1791 C1790 1.377 . S
C1791 C1797 1.390 . S
C1792 H1783 0.930 . S
C1792 C1790 1.384 . S
C1792 C1793 1.372 . S
C1793 C1792 1.372 . S
C1793 C1794 1.400 . S
C1793 C1798 1.490 . S
C1794 H1784 0.930 . S
C1794 C1793 1.400 . S
C1794 C1797 1.386 . S
H1795 C1811 0.930 . S
H1796 C1812 0.931 . S
C1797 H1785 0.929 . S
C1797 C1791 1.390 . S
C1797 C1794 1.386 . S
C1798 C1793 1.490 . S
C1798 C1800 1.395 . S
C1798 C1801 1.403 . S
H1799 C1805 0.930 . S
C1800 H1786 0.930 . S
C1800 C1798 1.395 . S
C1800 C1803 1.403 . S
C1801 C1798 1.403 . S
C1801 C1802 1.524 . S
C1801 C1805 1.400 . S
C1802 H1787 0.960 . S
C1802 H1788 0.960 . S
C1802 H1789 0.960 . S
C1802 C1801 1.524 . S
C1803 C1800 1.403 . S
C1803 C1804 1.392 . S
C1803 C1807 1.495 . S
C1804 C1803 1.392 . S
C1804 C1805 1.385 . S
C1804 C1806 1.478 . S
C1805 H1799 0.930 . S
C1805 C1801 1.400 . S
C1805 C1804 1.385 . S
C1806 C1804 1.478 . S
C1806 C1808 1.381 . S
C1806 C1812 1.383 . S
C1807 C1803 1.495 . S
C1807 H1813 0.959 . S
C1807 H1814 0.961 . S
C1807 H1815 0.960 . S
C1808 C1806 1.381 . S
C1808 C1809 1.394 . S
C1808 H1816 0.930 . S
C1809 C1808 1.394 . S
C1809 C1810 1.383 . S
C1809 H1817 0.929 . S
C1810 C1809 1.383 . S
C1810 C1811 1.377 . S
C1811 H1795 0.930 . S
C1811 C1810 1.377 . S
C1811 C1812 1.379 . S
C1812 H1796 0.931 . S
C1812 C1806 1.383 . S
C1812 C1811 1.379 . S
H1813 C1807 0.959 . S
H1814 C1807 0.961 . S
H1815 C1807 0.960 . S
H1816 C1808 0.930 . S
H1817 C1809 0.929 . S
H1818 C1826 0.929 . S
H1819 C1828 0.930 . S
H1820 C1830 0.930 . S
H1821 C1833 0.929 . S
H1822 C1836 0.930 . S
H1823 C1838 0.960 . S
H1824 C1838 0.960 . S
H1825 C1838 0.960 . S
C1826 H1818 0.929 . S
C1826 C1827 1.377 . S
C1826 C1828 1.384 . S
C1827 C1826 1.377 . S
C1827 C1833 1.390 . S
C1828 H1819 0.930 . S
C1828 C1826 1.384 . S
C1828 C1829 1.372 . S
C1829 C1828 1.372 . S
C1829 C1830 1.400 . S
C1829 C1834 1.492 . S
C1830 H1820 0.930 . S
C1830 C1829 1.400 . S
C1830 C1833 1.386 . S
H1831 C1847 0.930 . S
H1832 C1848 0.931 . S
C1833 H1821 0.929 . S
C1833 C1827 1.390 . S
C1833 C1830 1.386 . S
C1834 C1829 1.492 . S
C1834 C1836 1.397 . S
C1834 C1837 1.398 1_545 S
H1835 C1841 0.930 . S
C1836 H1822 0.930 . S
C1836 C1834 1.397 . S
C1836 C1839 1.420 . S
C1837 C1834 1.398 1_565 S
C1837 C1838 1.524 . S
C1837 C1841 1.400 . S
C1838 H1823 0.960 . S
C1838 H1824 0.960 . S
C1838 H1825 0.960 . S
C1838 C1837 1.524 . S
C1839 C1836 1.420 . S
C1839 C1840 1.356 1_545 S
C1839 C1843 1.516 . S
C1840 C1839 1.356 1_565 S
C1840 C1841 1.385 . S
C1840 C1842 1.478 . S
C1841 H1835 0.930 . S
C1841 C1837 1.400 . S
C1841 C1840 1.385 . S
C1842 C1840 1.478 . S
C1842 C1844 1.381 . S
C1842 C1848 1.383 . S
C1843 C1839 1.516 . S
C1843 H1849 0.959 . S
C1843 H1850 0.961 . S
C1843 H1851 0.960 . S
C1844 C1842 1.381 . S
C1844 C1845 1.394 . S
C1844 H1852 0.930 . S
C1845 C1844 1.394 . S
C1845 C1846 1.383 . S
C1845 H1853 0.929 . S
C1846 C1845 1.383 . S
C1846 C1847 1.377 . S
C1847 H1831 0.930 . S
C1847 C1846 1.377 . S
C1847 C1848 1.379 . S
C1848 H1832 0.931 . S
C1848 C1842 1.383 . S
C1848 C1847 1.379 . S
H1849 C1843 0.959 . S
H1850 C1843 0.961 . S
H1851 C1843 0.960 . S
H1852 C1844 0.930 . S
H1853 C1845 0.929 . S
H1854 C1862 0.929 . S
H1855 C1864 0.930 . S
H1856 C1866 0.930 1_455 S
H1857 C1869 0.929 . S
H1858 C1872 0.930 1_655 S
H1859 C1874 0.960 . S
H1860 C1874 0.960 1_655 S
H1861 C1874 0.960 . S
C1862 H1854 0.929 . S
C1862 C1863 1.377 . S
C1862 C1864 1.384 . S
C1863 C1862 1.377 . S
C1863 C1869 1.390 . S
C1864 H1855 0.930 . S
C1864 C1862 1.384 . S
C1864 C1865 1.372 . S
C1865 C1864 1.372 . S
C1865 C1866 1.400 . S
C1865 C1870 1.510 . S
C1866 H1856 0.930 1_655 S
C1866 C1865 1.400 . S
C1866 C1869 1.386 . S
H1867 C1883 0.930 . S
H1868 C1884 0.931 . S
C1869 H1857 0.929 . S
C1869 C1863 1.390 . S
C1869 C1866 1.386 . S
C1870 C1865 1.510 . S
C1870 C1872 1.421 1_655 S
C1870 C1873 1.361 1_655 S
H1871 C1877 0.930 . S
C1872 H1858 0.930 1_455 S
C1872 C1870 1.421 1_455 S
C1872 C1875 1.403 . S
C1873 C1870 1.361 1_455 S
C1873 C1874 1.524 . S
C1873 C1877 1.400 . S
C1874 H1859 0.960 . S
C1874 H1860 0.960 1_455 S
C1874 H1861 0.960 . S
C1874 C1873 1.524 . S
C1875 C1872 1.403 . S
C1875 C1876 1.392 . S
C1875 C1879 1.495 . S
C1876 C1875 1.392 . S
C1876 C1877 1.385 . S
C1876 C1878 1.478 . S
C1877 H1871 0.930 . S
C1877 C1873 1.400 . S
C1877 C1876 1.385 . S
C1878 C1876 1.478 . S
C1878 C1880 1.381 . S
C1878 C1884 1.383 . S
C1879 C1875 1.495 . S
C1879 H1885 0.959 . S
C1879 H1886 0.961 . S
C1879 H1887 0.960 . S
C1880 C1878 1.381 . S
C1880 C1881 1.394 . S
C1880 H1888 0.930 . S
C1881 C1880 1.394 . S
C1881 C1882 1.383 . S
C1881 H1889 0.929 . S
C1882 C1881 1.383 . S
C1882 C1883 1.377 . S
C1883 H1867 0.930 . S
C1883 C1882 1.377 . S
C1883 C1884 1.379 . S
C1884 H1868 0.931 . S
C1884 C1878 1.383 . S
C1884 C1883 1.379 . S
H1885 C1879 0.959 . S
H1886 C1879 0.961 . S
H1887 C1879 0.960 . S
H1888 C1880 0.930 . S
H1889 C1881 0.929 . S
H1890 C1898 0.929 . S
H1891 C1900 0.930 . S
H1892 C1902 0.930 . S
H1893 C1905 0.929 . S
H1894 C1908 0.930 . S
H1895 C1910 0.960 . S
H1896 C1910 0.960 . S
H1897 C1910 0.960 . S
C1898 H1890 0.929 . S
C1898 C1899 1.377 . S
C1898 C1900 1.384 . S
C1899 C1898 1.377 . S
C1899 C1905 1.390 . S
C1900 H1891 0.930 . S
C1900 C1898 1.384 . S
C1900 C1901 1.372 . S
C1901 C1900 1.372 . S
C1901 C1902 1.400 . S
C1901 C1906 1.490 . S
C1902 H1892 0.930 . S
C1902 C1901 1.400 . S
C1902 C1905 1.386 . S
H1903 C1919 0.930 . S
H1904 C1920 0.931 . S
C1905 H1893 0.929 . S
C1905 C1899 1.390 . S
C1905 C1902 1.386 . S
C1906 C1901 1.490 . S
C1906 C1908 1.395 . S
C1906 C1909 1.403 . S
H1907 C1913 0.930 . S
C1908 H1894 0.930 . S
C1908 C1906 1.395 . S
C1908 C1911 1.403 . S
C1909 C1906 1.403 . S
C1909 C1910 1.524 . S
C1909 C1913 1.400 . S
C1910 H1895 0.960 . S
C1910 H1896 0.960 . S
C1910 H1897 0.960 . S
C1910 C1909 1.524 . S
C1911 C1908 1.403 . S
C1911 C1912 1.392 . S
C1911 C1915 1.495 . S
C1912 C1911 1.392 . S
C1912 C1913 1.385 . S
C1912 C1914 1.478 . S
C1913 H1907 0.930 . S
C1913 C1909 1.400 . S
C1913 C1912 1.385 . S
C1914 C1912 1.478 . S
C1914 C1916 1.381 . S
C1914 C1920 1.383 . S
C1915 C1911 1.495 . S
C1915 H1921 0.959 . S
C1915 H1922 0.961 . S
C1915 H1923 0.960 . S
C1916 C1914 1.381 . S
C1916 C1917 1.394 . S
C1916 H1924 0.930 . S
C1917 C1916 1.394 . S
C1917 C1918 1.383 . S
C1917 H1925 0.929 . S
C1918 C1917 1.383 . S
C1918 C1919 1.377 . S
C1919 H1903 0.930 . S
C1919 C1918 1.377 . S
C1919 C1920 1.379 . S
C1920 H1904 0.931 . S
C1920 C1914 1.383 . S
C1920 C1919 1.379 . S
H1921 C1915 0.959 . S
H1922 C1915 0.961 . S
H1923 C1915 0.960 . S
H1924 C1916 0.930 . S
H1925 C1917 0.929 . S
H1926 C1934 0.929 . S
H1927 C1936 0.923 1_545 S
H1928 C1938 0.930 . S
H1929 C1941 0.929 . S
H1930 C1944 0.930 . S
H1931 C1946 0.960 . S
H1932 C1946 0.960 . S
H1933 C1946 0.960 . S
C1934 H1926 0.929 . S
C1934 C1935 1.377 . S
C1934 C1936 1.384 . S
C1935 C1934 1.377 . S
C1935 C1941 1.390 . S
C1936 H1927 0.923 1_565 S
C1936 C1934 1.384 . S
C1936 C1937 1.372 . S
C1937 C1936 1.372 . S
C1937 C1938 1.400 . S
C1937 C1942 1.490 1_565 S
C1938 H1928 0.930 . S
C1938 C1937 1.400 . S
C1938 C1941 1.386 . S
H1939 C1955 0.930 . S
H1940 C1956 0.931 . S
C1941 H1929 0.929 . S
C1941 C1935 1.390 . S
C1941 C1938 1.386 . S
C1942 C1937 1.490 1_545 S
C1942 C1944 1.395 . S
C1942 C1945 1.403 1_545 S
H1943 C1949 0.930 1_565 S
C1944 H1930 0.930 . S
C1944 C1942 1.395 . S
C1944 C1947 1.403 . S
C1945 C1942 1.403 1_565 S
C1945 C1946 1.524 . S
C1945 C1949 1.400 1_565 S
C1946 H1931 0.960 . S
C1946 H1932 0.960 . S
C1946 H1933 0.960 . S
C1946 C1945 1.524 . S
C1947 C1944 1.403 . S
C1947 C1948 1.392 . S
C1947 C1951 1.495 . S
C1948 C1947 1.392 . S
C1948 C1949 1.385 . S
C1948 C1950 1.478 . S
C1949 H1943 0.930 1_545 S
C1949 C1945 1.400 1_545 S
C1949 C1948 1.385 . S
C1950 C1948 1.478 . S
C1950 C1952 1.381 . S
C1950 C1956 1.383 . S
C1951 C1947 1.495 . S
C1951 H1957 0.959 . S
C1951 H1958 0.961 . S
C1951 H1959 0.960 . S
C1952 C1950 1.381 . S
C1952 C1953 1.394 . S
C1952 H1960 0.930 . S
C1953 C1952 1.394 . S
C1953 C1954 1.383 . S
C1953 H1961 0.929 . S
C1954 C1953 1.383 . S
C1954 C1955 1.377 . S
C1955 H1939 0.930 . S
C1955 C1954 1.377 . S
C1955 C1956 1.379 . S
C1956 H1940 0.931 . S
C1956 C1950 1.383 . S
C1956 C1955 1.379 . S
H1957 C1951 0.959 . S
H1958 C1951 0.961 . S
H1959 C1951 0.960 . S
H1960 C1952 0.930 . S
H1961 C1953 0.929 . S
H1962 C1970 0.929 . S
H1963 C1972 0.930 . S
H1964 C1974 0.930 . S
H1965 C1977 0.929 . S
H1966 C1980 0.930 . S
H1967 C1982 0.960 . S
H1968 C1982 0.960 . S
H1969 C1982 0.960 . S
C1970 H1962 0.929 . S
C1970 C1971 1.377 . S
C1970 C1972 1.384 . S
C1971 C1970 1.377 . S
C1971 C1977 1.390 . S
C1972 H1963 0.930 . S
C1972 C1970 1.384 . S
C1972 C1973 1.372 . S
C1973 C1972 1.372 . S
C1973 C1974 1.400 . S
C1973 C1978 1.490 . S
C1974 H1964 0.930 . S
C1974 C1973 1.400 . S
C1974 C1977 1.386 . S
H1975 C1991 0.930 . S
H1976 C1992 0.931 1_655 S
C1977 H1965 0.929 . S
C1977 C1971 1.390 . S
C1977 C1974 1.386 . S
C1978 C1973 1.490 . S
C1978 C1980 1.395 . S
C1978 C1981 1.403 . S
H1979 C1985 0.930 . S
C1980 H1966 0.930 . S
C1980 C1978 1.395 . S
C1980 C1983 1.403 1_655 S
C1981 C1978 1.403 . S
C1981 C1982 1.524 . S
C1981 C1985 1.400 . S
C1982 H1967 0.960 . S
C1982 H1968 0.960 . S
C1982 H1969 0.960 . S
C1982 C1981 1.524 . S
C1983 C1980 1.403 1_455 S
C1983 C1984 1.392 . S
C1983 C1987 1.495 . S
C1984 C1983 1.392 . S
C1984 C1985 1.385 1_455 S
C1984 C1986 1.478 . S
C1985 H1979 0.930 . S
C1985 C1981 1.400 . S
C1985 C1984 1.385 1_655 S
C1986 C1984 1.478 . S
C1986 C1988 1.381 . S
C1986 C1992 1.383 . S
C1987 C1983 1.495 . S
C1987 H1993 0.959 . S
C1987 H1994 0.961 . S
C1987 H1995 0.960 . S
C1988 C1986 1.381 . S
C1988 C1989 1.394 . S
C1988 H1996 0.930 . S
C1989 C1988 1.394 . S
C1989 C1990 1.383 . S
C1989 H1997 0.929 . S
C1990 C1989 1.383 . S
C1990 C1991 1.377 . S
C1991 H1975 0.930 . S
C1991 C1990 1.377 . S
C1991 C1992 1.379 . S
C1992 H1976 0.931 1_455 S
C1992 C1986 1.383 . S
C1992 C1991 1.379 . S
H1993 C1987 0.959 . S
H1994 C1987 0.961 . S
H1995 C1987 0.960 . S
H1996 C1988 0.930 . S
H1997 C1989 0.929 . S
H1998 C2006 0.929 . S
H1999 C2008 0.930 . S
H2000 C2010 0.930 1_455 S
H2001 C2013 0.929 . S
H2002 C2016 0.930 . S
H2003 C2018 0.960 . S
H2004 C2018 0.960 . S
H2005 C2018 0.960 1_455 S
C2006 H1998 0.929 . S
C2006 C2007 1.377 . S
C2006 C2008 1.384 . S
C2007 C2006 1.377 . S
C2007 C2013 1.390 1_655 S
C2008 H1999 0.930 . S
C2008 C2006 1.384 . S
C2008 C2009 1.372 . S
C2009 C2008 1.372 . S
C2009 C2010 1.400 . S
C2009 C2014 1.490 . S
C2010 H2000 0.930 1_655 S
C2010 C2009 1.400 . S
C2010 C2013 1.386 1_655 S
H2011 C2027 0.930 . S
H2012 C2028 0.931 . S
C2013 H2001 0.929 . S
C2013 C2007 1.390 1_455 S
C2013 C2010 1.386 1_455 S
C2014 C2009 1.490 . S
C2014 C2016 1.395 . S
C2014 C2017 1.403 . S
H2015 C2021 0.930 . S
C2016 H2002 0.930 . S
C2016 C2014 1.395 . S
C2016 C2019 1.403 . S
C2017 C2014 1.403 . S
C2017 C2018 1.524 . S
C2017 C2021 1.400 . S
C2018 H2003 0.960 . S
C2018 H2004 0.960 . S
C2018 H2005 0.960 1_655 S
C2018 C2017 1.524 . S
C2019 C2016 1.403 . S
C2019 C2020 1.392 . S
C2019 C2023 1.495 . S
C2020 C2019 1.392 . S
C2020 C2021 1.385 . S
C2020 C2022 1.478 . S
C2021 H2015 0.930 . S
C2021 C2017 1.400 . S
C2021 C2020 1.385 . S
C2022 C2020 1.478 . S
C2022 C2024 1.381 . S
C2022 C2028 1.383 . S
C2023 C2019 1.495 . S
C2023 H2029 0.959 . S
C2023 H2030 0.961 . S
C2023 H2031 0.960 . S
C2024 C2022 1.381 . S
C2024 C2025 1.394 . S
C2024 H2032 0.930 . S
C2025 C2024 1.394 . S
C2025 C2026 1.383 . S
C2025 H2033 0.929 . S
C2026 C2025 1.383 . S
C2026 C2027 1.377 . S
C2027 H2011 0.930 . S
C2027 C2026 1.377 . S
C2027 C2028 1.379 . S
C2028 H2012 0.931 . S
C2028 C2022 1.383 . S
C2028 C2027 1.379 . S
H2029 C2023 0.959 . S
H2030 C2023 0.961 . S
H2031 C2023 0.960 . S
H2032 C2024 0.930 . S
H2033 C2025 0.929 . S
H2034 C2042 0.929 . S
H2035 C2044 0.930 . S
H2036 C2046 0.930 . S
H2037 C2049 0.929 . S
H2038 C2052 0.930 . S
H2039 C2054 0.960 . S
H2040 C2054 0.960 . S
H2041 C2054 0.960 . S
C2042 H2034 0.929 . S
C2042 C2043 1.377 . S
C2042 C2044 1.384 . S
C2043 C2042 1.377 . S
C2043 C2049 1.390 . S
C2044 H2035 0.930 . S
C2044 C2042 1.384 . S
C2044 C2045 1.372 . S
C2045 C2044 1.372 . S
C2045 C2046 1.400 . S
C2045 C2050 1.490 . S
C2046 H2036 0.930 . S
C2046 C2045 1.400 . S
C2046 C2049 1.386 . S
H2047 C2063 0.930 . S
H2048 C2064 0.931 . S
C2049 H2037 0.929 . S
C2049 C2043 1.390 . S
C2049 C2046 1.386 . S
C2050 C2045 1.490 . S
C2050 C2052 1.395 . S
C2050 C2053 1.403 . S
H2051 C2057 0.930 . S
C2052 H2038 0.930 . S
C2052 C2050 1.395 . S
C2052 C2055 1.403 . S
C2053 C2050 1.403 . S
C2053 C2054 1.524 . S
C2053 C2057 1.400 . S
C2054 H2039 0.960 . S
C2054 H2040 0.960 . S
C2054 H2041 0.960 . S
C2054 C2053 1.524 . S
C2055 C2052 1.403 . S
C2055 C2056 1.392 . S
C2055 C2059 1.495 . S
C2056 C2055 1.392 . S
C2056 C2057 1.385 . S
C2056 C2058 1.478 . S
C2057 H2051 0.930 . S
C2057 C2053 1.400 . S
C2057 C2056 1.385 . S
C2058 C2056 1.478 . S
C2058 C2060 1.381 . S
C2058 C2064 1.383 . S
C2059 C2055 1.495 . S
C2059 H2065 0.959 . S
C2059 H2066 0.961 . S
C2059 H2067 0.960 . S
C2060 C2058 1.381 . S
C2060 C2061 1.394 . S
C2060 H2068 0.930 . S
C2061 C2060 1.394 . S
C2061 C2062 1.383 . S
C2061 H2069 0.929 . S
C2062 C2061 1.383 . S
C2062 C2063 1.377 . S
C2063 H2047 0.930 . S
C2063 C2062 1.377 . S
C2063 C2064 1.379 . S
C2064 H2048 0.931 . S
C2064 C2058 1.383 . S
C2064 C2063 1.379 . S
H2065 C2059 0.959 . S
H2066 C2059 0.961 . S
H2067 C2059 0.960 . S
H2068 C2060 0.930 . S
H2069 C2061 0.929 . S
H2070 C2078 0.929 . S
H2071 C2080 0.930 . S
H2072 C2082 0.930 . S
H2073 C2085 0.919 1_565 S
H2074 C2088 0.930 . S
H2075 C2090 0.949 1_565 S
H2076 C2090 0.961 1_565 S
H2077 C2090 0.950 1_565 S
C2078 H2070 0.929 . S
C2078 C2079 1.377 . S
C2078 C2080 1.384 . S
C2079 C2078 1.377 . S
C2079 C2085 1.390 . S
C2080 H2071 0.930 . S
C2080 C2078 1.384 . S
C2080 C2081 1.372 . S
C2081 C2080 1.372 . S
C2081 C2082 1.400 . S
C2081 C2086 1.490 . S
C2082 H2072 0.930 . S
C2082 C2081 1.400 . S
C2082 C2085 1.386 . S
H2083 C2099 0.930 . S
H2084 C2100 0.931 . S
C2085 H2073 0.919 1_545 S
C2085 C2079 1.390 . S
C2085 C2082 1.386 . S
C2086 C2081 1.490 . S
C2086 C2088 1.395 . S
C2086 C2089 1.403 . S
H2087 C2093 0.930 . S
C2088 H2074 0.930 . S
C2088 C2086 1.395 . S
C2088 C2091 1.403 . S
C2089 C2086 1.403 . S
C2089 C2090 1.545 . S
C2089 C2093 1.400 . S
C2090 H2075 0.949 1_545 S
C2090 H2076 0.961 1_545 S
C2090 H2077 0.950 1_545 S
C2090 C2089 1.545 . S
C2091 C2088 1.403 . S
C2091 C2092 1.392 . S
C2091 C2095 1.495 . S
C2092 C2091 1.392 . S
C2092 C2093 1.385 . S
C2092 C2094 1.478 . S
C2093 H2087 0.930 . S
C2093 C2089 1.400 . S
C2093 C2092 1.385 . S
C2094 C2092 1.478 . S
C2094 C2096 1.381 . S
C2094 C2100 1.383 . S
C2095 C2091 1.495 . S
C2095 H2101 0.959 . S
C2095 H2102 0.961 . S
C2095 H2103 0.960 . S
C2096 C2094 1.381 . S
C2096 C2097 1.394 . S
C2096 H2104 0.930 . S
C2097 C2096 1.394 . S
C2097 C2098 1.383 . S
C2097 H2105 0.929 . S
C2098 C2097 1.383 . S
C2098 C2099 1.377 . S
C2099 H2083 0.930 . S
C2099 C2098 1.377 . S
C2099 C2100 1.379 . S
C2100 H2084 0.931 . S
C2100 C2094 1.383 . S
C2100 C2099 1.379 . S
H2101 C2095 0.959 . S
H2102 C2095 0.961 . S
H2103 C2095 0.960 . S
H2104 C2096 0.930 . S
H2105 C2097 0.929 . S
H2106 C2114 0.929 . S
H2107 C2116 0.930 . S
H2108 C2118 0.930 . S
H2109 C2121 0.929 . S
H2110 C2124 0.930 . S
H2111 C2126 0.960 . S
H2112 C2126 0.960 . S
H2113 C2126 0.960 . S
C2114 H2106 0.929 . S
C2114 C2115 1.377 . S
C2114 C2116 1.384 1_556 S
C2115 C2114 1.377 . S
C2115 C2121 1.390 . S
C2116 H2107 0.930 . S
C2116 C2114 1.384 1_554 S
C2116 C2117 1.372 . S
C2117 C2116 1.372 . S
C2117 C2118 1.400 1_554 S
C2117 C2122 1.490 . S
C2118 H2108 0.930 . S
C2118 C2117 1.400 1_556 S
C2118 C2121 1.386 . S
H2119 C2135 0.930 . S
H2120 C2136 0.931 . S
C2121 H2109 0.929 . S
C2121 C2115 1.390 . S
C2121 C2118 1.386 . S
C2122 C2117 1.490 . S
C2122 C2124 1.395 . S
C2122 C2125 1.403 . S
H2123 C2129 0.930 . S
C2124 H2110 0.930 . S
C2124 C2122 1.395 . S
C2124 C2127 1.403 . S
C2125 C2122 1.403 . S
C2125 C2126 1.524 . S
C2125 C2129 1.400 . S
C2126 H2111 0.960 . S
C2126 H2112 0.960 . S
C2126 H2113 0.960 . S
C2126 C2125 1.524 . S
C2127 C2124 1.403 . S
C2127 C2128 1.392 . S
C2127 C2131 1.495 . S
C2128 C2127 1.392 . S
C2128 C2129 1.385 . S
C2128 C2130 1.478 . S
C2129 H2123 0.930 . S
C2129 C2125 1.400 . S
C2129 C2128 1.385 . S
C2130 C2128 1.478 . S
C2130 C2132 1.381 . S
C2130 C2136 1.383 . S
C2131 C2127 1.495 . S
C2131 H2137 0.959 . S
C2131 H2138 0.961 . S
C2131 H2139 0.960 . S
C2132 C2130 1.381 . S
C2132 C2133 1.394 . S
C2132 H2140 0.930 . S
C2133 C2132 1.394 . S
C2133 C2134 1.383 . S
C2133 H2141 0.929 . S
C2134 C2133 1.383 . S
C2134 C2135 1.377 . S
C2135 H2119 0.930 . S
C2135 C2134 1.377 . S
C2135 C2136 1.379 . S
C2136 H2120 0.931 . S
C2136 C2130 1.383 . S
C2136 C2135 1.379 . S
H2137 C2131 0.959 . S
H2138 C2131 0.961 . S
H2139 C2131 0.960 . S
H2140 C2132 0.930 . S
H2141 C2133 0.929 . S
H2142 C2150 0.929 . S
H2143 C2152 0.930 . S
H2144 C2154 0.930 . S
H2145 C2157 0.929 . S
H2146 C2160 0.930 . S
H2147 C2162 0.960 . S
H2148 C2162 0.961 1_655 S
H2149 C2162 0.960 . S
C2150 H2142 0.929 . S
C2150 C2151 1.377 . S
C2150 C2152 1.384 . S
C2151 C2150 1.377 . S
C2151 C2157 1.390 . S
C2152 H2143 0.930 . S
C2152 C2150 1.384 . S
C2152 C2153 1.372 . S
C2153 C2152 1.372 . S
C2153 C2154 1.400 . S
C2153 C2158 1.490 . S
C2154 H2144 0.930 . S
C2154 C2153 1.400 . S
C2154 C2157 1.386 . S
H2155 C2171 0.930 . S
H2156 C2172 0.931 . S
C2157 H2145 0.929 . S
C2157 C2151 1.390 . S
C2157 C2154 1.386 . S
C2158 C2153 1.490 . S
C2158 C2160 1.395 . S
C2158 C2161 1.403 . S
H2159 C2165 0.930 . S
C2160 H2146 0.930 . S
C2160 C2158 1.395 . S
C2160 C2163 1.403 . S
C2161 C2158 1.403 . S
C2161 C2162 1.524 1_655 S
C2161 C2165 1.400 . S
C2162 H2147 0.960 . S
C2162 H2148 0.961 1_455 S
C2162 H2149 0.960 . S
C2162 C2161 1.524 1_455 S
C2163 C2160 1.403 . S
C2163 C2164 1.392 . S
C2163 C2167 1.495 . S
C2164 C2163 1.392 . S
C2164 C2165 1.385 . S
C2164 C2166 1.478 . S
C2165 H2159 0.930 . S
C2165 C2161 1.400 . S
C2165 C2164 1.385 . S
C2166 C2164 1.478 . S
C2166 C2168 1.381 . S
C2166 C2172 1.383 1_554 S
C2167 C2163 1.495 . S
C2167 H2173 0.959 . S
C2167 H2174 0.961 . S
C2167 H2175 0.960 . S
C2168 C2166 1.381 . S
C2168 C2169 1.394 1_554 S
C2168 H2176 0.930 . S
C2169 C2168 1.394 1_556 S
C2169 C2170 1.383 . S
C2169 H2177 0.929 . S
C2170 C2169 1.383 . S
C2170 C2171 1.377 . S
C2171 H2155 0.930 . S
C2171 C2170 1.377 . S
C2171 C2172 1.379 . S
C2172 H2156 0.931 . S
C2172 C2166 1.383 1_556 S
C2172 C2171 1.379 . S
H2173 C2167 0.959 . S
H2174 C2167 0.961 . S
H2175 C2167 0.960 . S
H2176 C2168 0.930 . S
H2177 C2169 0.929 . S
H2178 C2186 0.929 . S
H2179 C2188 0.930 . S
H2180 C2190 0.930 . S
H2181 C2193 0.929 . S
H2182 C2196 0.930 . S
H2183 C2198 0.960 . S
H2184 C2198 0.960 . S
H2185 C2198 0.960 . S
C2186 H2178 0.929 . S
C2186 C2187 1.377 . S
C2186 C2188 1.384 . S
C2187 C2186 1.377 . S
C2187 C2193 1.390 . S
C2188 H2179 0.930 . S
C2188 C2186 1.384 . S
C2188 C2189 1.372 . S
C2189 C2188 1.372 . S
C2189 C2190 1.400 . S
C2189 C2194 1.490 . S
C2190 H2180 0.930 . S
C2190 C2189 1.400 . S
C2190 C2193 1.386 . S
H2191 C2207 0.930 . S
H2192 C2208 0.931 . S
C2193 H2181 0.929 . S
C2193 C2187 1.390 . S
C2193 C2190 1.386 . S
C2194 C2189 1.490 . S
C2194 C2196 1.395 . S
C2194 C2197 1.403 . S
H2195 C2201 0.930 . S
C2196 H2182 0.930 . S
C2196 C2194 1.395 . S
C2196 C2199 1.403 . S
C2197 C2194 1.403 . S
C2197 C2198 1.524 . S
C2197 C2201 1.400 . S
C2198 H2183 0.960 . S
C2198 H2184 0.960 . S
C2198 H2185 0.960 . S
C2198 C2197 1.524 . S
C2199 C2196 1.403 . S
C2199 C2200 1.392 . S
C2199 C2203 1.495 . S
C2200 C2199 1.392 . S
C2200 C2201 1.385 . S
C2200 C2202 1.478 . S
C2201 H2195 0.930 . S
C2201 C2197 1.400 . S
C2201 C2200 1.385 . S
C2202 C2200 1.478 . S
C2202 C2204 1.381 1_554 S
C2202 C2208 1.383 . S
C2203 C2199 1.495 . S
C2203 H2209 0.959 . S
C2203 H2210 0.961 . S
C2203 H2211 0.960 . S
C2204 C2202 1.381 1_556 S
C2204 C2205 1.394 . S
C2204 H2212 0.930 . S
C2205 C2204 1.394 . S
C2205 C2206 1.383 . S
C2205 H2213 0.929 . S
C2206 C2205 1.383 . S
C2206 C2207 1.377 . S
C2207 H2191 0.930 . S
C2207 C2206 1.377 . S
C2207 C2208 1.379 1_556 S
C2208 H2192 0.931 . S
C2208 C2202 1.383 . S
C2208 C2207 1.379 1_554 S
H2209 C2203 0.959 . S
H2210 C2203 0.961 . S
H2211 C2203 0.960 . S
H2212 C2204 0.930 . S
H2213 C2205 0.929 . S
H2214 C2222 0.929 . S
H2215 C2224 0.930 . S
H2216 C2226 0.930 1_556 S
H2217 C2229 0.929 . S
H2218 C2232 0.930 . S
H2219 C2234 0.960 . S
H2220 C2234 0.960 . S
H2221 C2234 0.960 . S
C2222 H2214 0.929 . S
C2222 C2223 1.377 . S
C2222 C2224 1.384 1_554 S
C2223 C2222 1.377 . S
C2223 C2229 1.390 . S
C2224 H2215 0.930 . S
C2224 C2222 1.384 1_556 S
C2224 C2225 1.372 . S
C2225 C2224 1.372 . S
C2225 C2226 1.400 1_556 S
C2225 C2230 1.490 . S
C2226 H2216 0.930 1_554 S
C2226 C2225 1.400 1_554 S
C2226 C2229 1.386 . S
H2227 C2243 0.930 . S
H2228 C2244 0.931 . S
C2229 H2217 0.929 . S
C2229 C2223 1.390 . S
C2229 C2226 1.386 . S
C2230 C2225 1.490 . S
C2230 C2232 1.395 . S
C2230 C2233 1.403 . S
H2231 C2237 0.930 . S
C2232 H2218 0.930 . S
C2232 C2230 1.395 . S
C2232 C2235 1.403 . S
C2233 C2230 1.403 . S
C2233 C2234 1.524 . S
C2233 C2237 1.400 . S
C2234 H2219 0.960 . S
C2234 H2220 0.960 . S
C2234 H2221 0.960 . S
C2234 C2233 1.524 . S
C2235 C2232 1.403 . S
C2235 C2236 1.392 . S
C2235 C2239 1.495 . S
C2236 C2235 1.392 . S
C2236 C2237 1.385 . S
C2236 C2238 1.478 . S
C2237 H2231 0.930 . S
C2237 C2233 1.400 . S
C2237 C2236 1.385 . S
C2238 C2236 1.478 . S
C2238 C2240 1.381 . S
C2238 C2244 1.383 . S
C2239 C2235 1.495 . S
C2239 H2245 0.959 . S
C2239 H2246 0.961 . S
C2239 H2247 0.960 . S
C2240 C2238 1.381 . S
C2240 C2241 1.394 . S
C2240 H2248 0.937 . S
C2241 C2240 1.394 . S
C2241 C2242 1.383 . S
C2241 H2249 0.929 1_565 S
C2242 C2241 1.383 . S
C2242 C2243 1.377 . S
C2243 H2227 0.930 . S
C2243 C2242 1.377 . S
C2243 C2244 1.379 . S
C2244 H2228 0.931 . S
C2244 C2238 1.383 . S
C2244 C2243 1.379 . S
H2245 C2239 0.959 . S
H2246 C2239 0.961 . S
H2247 C2239 0.960 . S
H2248 C2240 0.937 . S
H2249 C2241 0.929 1_545 S
H2250 C2258 0.929 1_655 S
H2251 C2260 0.930 1_655 S
H2252 C2262 0.930 . S
H2253 C2265 0.929 . S
H2254 C2268 0.930 . S
H2255 C2270 0.960 . S
H2256 C2270 0.960 . S
H2257 C2270 0.960 . S
C2258 H2250 0.929 1_455 S
C2258 C2259 1.377 . S
C2258 C2260 1.384 . S
C2259 C2258 1.377 . S
C2259 C2265 1.390 . S
C2260 H2251 0.930 1_455 S
C2260 C2258 1.384 . S
C2260 C2261 1.372 . S
C2261 C2260 1.372 . S
C2261 C2262 1.400 . S
C2261 C2266 1.490 . S
C2262 H2252 0.930 . S
C2262 C2261 1.400 . S
C2262 C2265 1.386 . S
H2263 C2279 0.930 . S
H2264 C2280 0.934 . S
C2265 H2253 0.929 . S
C2265 C2259 1.390 . S
C2265 C2262 1.386 . S
C2266 C2261 1.490 . S
C2266 C2268 1.395 . S
C2266 C2269 1.403 . S
H2267 C2273 0.930 . S
C2268 H2254 0.930 . S
C2268 C2266 1.395 . S
C2268 C2271 1.403 . S
C2269 C2266 1.403 . S
C2269 C2270 1.524 . S
C2269 C2273 1.400 . S
C2270 H2255 0.960 . S
C2270 H2256 0.960 . S
C2270 H2257 0.960 . S
C2270 C2269 1.524 . S
C2271 C2268 1.403 . S
C2271 C2272 1.392 . S
C2271 C2275 1.495 . S
C2272 C2271 1.392 . S
C2272 C2273 1.385 . S
C2272 C2274 1.478 . S
C2273 H2267 0.930 . S
C2273 C2269 1.400 . S
C2273 C2272 1.385 . S
C2274 C2272 1.478 . S
C2274 C2276 1.381 . S
C2274 C2280 1.383 1_556 S
C2275 C2271 1.495 . S
C2275 H2281 0.959 1_455 S
C2275 H2282 0.961 . S
C2275 H2283 0.960 1_455 S
C2276 C2274 1.381 . S
C2276 C2277 1.394 1_556 S
C2276 H2284 0.930 . S
C2277 C2276 1.394 1_554 S
C2277 C2278 1.383 . S
C2277 H2285 0.929 . S
C2278 C2277 1.383 . S
C2278 C2279 1.377 . S
C2279 H2263 0.930 . S
C2279 C2278 1.377 . S
C2279 C2280 1.379 . S
C2280 H2264 0.934 . S
C2280 C2274 1.383 1_554 S
C2280 C2279 1.379 . S
H2281 C2275 0.959 1_655 S
H2282 C2275 0.961 . S
H2283 C2275 0.960 1_655 S
H2284 C2276 0.930 . S
H2285 C2277 0.929 . S
H2286 C2294 0.929 . S
H2287 C2296 0.930 . S
H2288 C2298 0.930 . S
H2289 C2301 0.929 . S
H2290 C2304 0.930 . S
H2291 C2306 0.960 . S
H2292 C2306 0.960 . S
H2293 C2306 0.960 . S
C2294 H2286 0.929 . S
C2294 C2295 1.377 . S
C2294 C2296 1.384 1_554 S
C2295 C2294 1.377 . S
C2295 C2301 1.390 . S
C2296 H2287 0.930 . S
C2296 C2294 1.384 1_556 S
C2296 C2297 1.372 . S
C2297 C2296 1.372 . S
C2297 C2298 1.400 1_556 S
C2297 C2302 1.490 . S
C2298 H2288 0.930 . S
C2298 C2297 1.400 1_554 S
C2298 C2301 1.386 . S
H2299 C2315 0.930 . S
H2300 C2316 0.931 . S
C2301 H2289 0.929 . S
C2301 C2295 1.390 . S
C2301 C2298 1.386 . S
C2302 C2297 1.490 . S
C2302 C2304 1.395 . S
C2302 C2305 1.403 . S
H2303 C2309 0.930 . S
C2304 H2290 0.930 . S
C2304 C2302 1.395 . S
C2304 C2307 1.403 . S
C2305 C2302 1.403 . S
C2305 C2306 1.524 . S
C2305 C2309 1.400 . S
C2306 H2291 0.960 . S
C2306 H2292 0.960 . S
C2306 H2293 0.960 . S
C2306 C2305 1.524 . S
C2307 C2304 1.403 . S
C2307 C2308 1.392 . S
C2307 C2311 1.495 . S
C2308 C2307 1.392 . S
C2308 C2309 1.385 . S
C2308 C2310 1.478 . S
C2309 H2303 0.930 . S
C2309 C2305 1.400 . S
C2309 C2308 1.385 . S
C2310 C2308 1.478 . S
C2310 C2312 1.381 . S
C2310 C2316 1.383 . S
C2311 C2307 1.495 . S
C2311 H2317 0.959 . S
C2311 H2318 0.961 . S
C2311 H2319 0.960 . S
C2312 C2310 1.381 . S
C2312 C2313 1.394 . S
C2312 H2320 0.930 . S
C2313 C2312 1.394 . S
C2313 C2314 1.383 . S
C2313 H2321 0.929 . S
C2314 C2313 1.383 . S
C2314 C2315 1.377 . S
C2315 H2299 0.930 . S
C2315 C2314 1.377 . S
C2315 C2316 1.379 . S
C2316 H2300 0.931 . S
C2316 C2310 1.383 . S
C2316 C2315 1.379 . S
H2317 C2311 0.959 . S
H2318 C2311 0.961 . S
H2319 C2311 0.960 . S
H2320 C2312 0.930 . S
H2321 C2313 0.929 . S
H2322 C2330 0.929 . S
H2323 C2332 0.930 1_655 S
H2324 C2334 0.930 . S
H2325 C2337 0.929 . S
H2326 C2340 0.930 . S
H2327 C2342 0.960 . S
H2328 C2342 0.960 . S
H2329 C2342 0.960 . S
C2330 H2322 0.929 . S
C2330 C2331 1.377 1_655 S
C2330 C2332 1.384 1_655 S
C2331 C2330 1.377 1_455 S
C2331 C2337 1.390 . S
C2332 H2323 0.930 1_455 S
C2332 C2330 1.384 1_455 S
C2332 C2333 1.372 . S
C2333 C2332 1.372 . S
C2333 C2334 1.400 . S
C2333 C2338 1.490 . S
C2334 H2324 0.930 . S
C2334 C2333 1.400 . S
C2334 C2337 1.386 . S
H2335 C2351 0.930 . S
H2336 C2352 0.931 . S
C2337 H2325 0.929 . S
C2337 C2331 1.390 . S
C2337 C2334 1.386 . S
C2338 C2333 1.490 . S
C2338 C2340 1.395 . S
C2338 C2341 1.403 . S
H2339 C2345 0.930 . S
C2340 H2326 0.930 . S
C2340 C2338 1.395 . S
C2340 C2343 1.403 . S
C2341 C2338 1.403 . S
C2341 C2342 1.524 . S
C2341 C2345 1.400 . S
C2342 H2327 0.960 . S
C2342 H2328 0.960 . S
C2342 H2329 0.960 . S
C2342 C2341 1.524 . S
C2343 C2340 1.403 . S
C2343 C2344 1.392 . S
C2343 C2347 1.495 . S
C2344 C2343 1.392 . S
C2344 C2345 1.385 . S
C2344 C2346 1.478 . S
C2345 H2339 0.930 . S
C2345 C2341 1.400 . S
C2345 C2344 1.385 . S
C2346 C2344 1.478 . S
C2346 C2348 1.381 . S
C2346 C2352 1.383 . S
C2347 C2343 1.495 . S
C2347 H2353 0.959 . S
C2347 H2354 0.961 . S
C2347 H2355 0.960 . S
C2348 C2346 1.381 . S
C2348 C2349 1.394 . S
C2348 H2356 0.930 . S
C2349 C2348 1.394 . S
C2349 C2350 1.383 . S
C2349 H2357 0.929 . S
C2350 C2349 1.383 . S
C2350 C2351 1.377 . S
C2351 H2335 0.930 . S
C2351 C2350 1.377 . S
C2351 C2352 1.379 . S
C2352 H2336 0.931 . S
C2352 C2346 1.383 . S
C2352 C2351 1.379 . S
H2353 C2347 0.959 . S
H2354 C2347 0.961 . S
H2355 C2347 0.960 . S
H2356 C2348 0.930 . S
H2357 C2349 0.929 . S
H2358 C2366 0.929 . S
H2359 C2368 0.930 . S
H2360 C2370 0.930 . S
H2361 C2373 0.929 . S
H2362 C2376 0.930 . S
H2363 C2378 0.960 . S
H2364 C2378 0.960 . S
H2365 C2378 0.960 . S
C2366 H2358 0.929 . S
C2366 C2367 1.377 . S
C2366 C2368 1.384 . S
C2367 C2366 1.377 . S
C2367 C2373 1.390 . S
C2368 H2359 0.930 . S
C2368 C2366 1.384 . S
C2368 C2369 1.372 . S
C2369 C2368 1.372 . S
C2369 C2370 1.400 . S
C2369 C2374 1.490 . S
C2370 H2360 0.930 . S
C2370 C2369 1.400 . S
C2370 C2373 1.386 . S
H2371 C2387 0.930 . S
H2372 C2388 0.931 . S
C2373 H2361 0.929 . S
C2373 C2367 1.390 . S
C2373 C2370 1.386 . S
C2374 C2369 1.490 . S
C2374 C2376 1.395 . S
C2374 C2377 1.403 . S
H2375 C2381 0.930 . S
C2376 H2362 0.930 . S
C2376 C2374 1.395 . S
C2376 C2379 1.403 . S
C2377 C2374 1.403 . S
C2377 C2378 1.524 . S
C2377 C2381 1.400 . S
C2378 H2363 0.960 . S
C2378 H2364 0.960 . S
C2378 H2365 0.960 . S
C2378 C2377 1.524 . S
C2379 C2376 1.403 . S
C2379 C2380 1.392 . S
C2379 C2383 1.495 . S
C2380 C2379 1.392 . S
C2380 C2381 1.385 . S
C2380 C2382 1.478 . S
C2381 H2375 0.930 . S
C2381 C2377 1.400 . S
C2381 C2380 1.385 . S
C2382 C2380 1.478 . S
C2382 C2384 1.381 . S
C2382 C2388 1.383 . S
C2383 C2379 1.495 . S
C2383 H2389 0.959 . S
C2383 H2390 0.961 . S
C2383 H2391 0.960 . S
C2384 C2382 1.381 . S
C2384 C2385 1.394 . S
C2384 H2392 0.930 . S
C2385 C2384 1.394 . S
C2385 C2386 1.383 . S
C2385 H2393 0.929 . S
C2386 C2385 1.383 . S
C2386 C2387 1.377 . S
C2387 H2371 0.930 . S
C2387 C2386 1.377 . S
C2387 C2388 1.379 . S
C2388 H2372 0.931 . S
C2388 C2382 1.383 . S
C2388 C2387 1.379 . S
H2389 C2383 0.959 . S
H2390 C2383 0.961 . S
H2391 C2383 0.960 . S
H2392 C2384 0.930 . S
H2393 C2385 0.929 . S
H2394 C2402 0.929 . S
H2395 C2404 0.930 . S
H2396 C2406 0.930 . S
H2397 C2409 0.929 . S
H2398 C2412 0.930 . S
H2399 C2414 0.960 . S
H2400 C2414 0.960 . S
H2401 C2414 0.960 . S
C2402 H2394 0.929 . S
C2402 C2403 1.377 . S
C2402 C2404 1.384 . S
C2403 C2402 1.377 . S
C2403 C2409 1.390 . S
C2404 H2395 0.930 . S
C2404 C2402 1.384 . S
C2404 C2405 1.372 . S
C2405 C2404 1.372 . S
C2405 C2406 1.400 . S
C2405 C2410 1.490 . S
C2406 H2396 0.930 . S
C2406 C2405 1.400 . S
C2406 C2409 1.386 . S
H2407 C2423 0.930 . S
H2408 C2424 0.931 . S
C2409 H2397 0.929 . S
C2409 C2403 1.390 . S
C2409 C2406 1.386 . S
C2410 C2405 1.490 . S
C2410 C2412 1.395 . S
C2410 C2413 1.403 . S
H2411 C2417 0.930 . S
C2412 H2398 0.930 . S
C2412 C2410 1.395 . S
C2412 C2415 1.403 . S
C2413 C2410 1.403 . S
C2413 C2414 1.524 . S
C2413 C2417 1.400 . S
C2414 H2399 0.960 . S
C2414 H2400 0.960 . S
C2414 H2401 0.960 . S
C2414 C2413 1.524 . S
C2415 C2412 1.403 . S
C2415 C2416 1.392 . S
C2415 C2419 1.495 . S
C2416 C2415 1.392 . S
C2416 C2417 1.385 . S
C2416 C2418 1.478 . S
C2417 H2411 0.930 . S
C2417 C2413 1.400 . S
C2417 C2416 1.385 . S
C2418 C2416 1.478 . S
C2418 C2420 1.446 . S
C2418 C2424 1.383 . S
C2419 C2415 1.495 . S
C2419 H2425 0.959 . S
C2419 H2426 0.961 . S
C2419 H2427 0.960 . S
C2420 C2418 1.446 . S
C2420 C2421 1.380 1_565 S
C2420 H2428 0.882 1_565 S
C2421 C2420 1.380 1_545 S
C2421 C2422 1.383 1_545 S
C2421 H2429 0.929 . S
C2422 C2421 1.383 1_565 S
C2422 C2423 1.377 . S
C2423 H2407 0.930 . S
C2423 C2422 1.377 . S
C2423 C2424 1.379 . S
C2424 H2408 0.931 . S
C2424 C2418 1.383 . S
C2424 C2423 1.379 . S
H2425 C2419 0.959 . S
H2426 C2419 0.961 . S
H2427 C2419 0.960 . S
H2428 C2420 0.882 1_545 S
H2429 C2421 0.929 . S
H2430 C2438 0.929 . S
H2431 C2440 0.930 . S
H2432 C2442 0.930 1_554 S
H2433 C2445 0.929 . S
H2434 C2448 0.930 . S
H2435 C2450 0.960 . S
H2436 C2450 0.960 1_556 S
H2437 C2450 0.960 . S
C2438 H2430 0.929 . S
C2438 C2439 1.377 . S
C2438 C2440 1.384 . S
C2439 C2438 1.377 . S
C2439 C2445 1.390 . S
C2440 H2431 0.930 . S
C2440 C2438 1.384 . S
C2440 C2441 1.372 . S
C2441 C2440 1.372 . S
C2441 C2442 1.400 . S
C2441 C2446 1.490 . S
C2442 H2432 0.930 1_556 S
C2442 C2441 1.400 . S
C2442 C2445 1.386 . S
H2443 C2459 0.930 . S
H2444 C2460 0.931 . S
C2445 H2433 0.929 . S
C2445 C2439 1.390 . S
C2445 C2442 1.386 . S
C2446 C2441 1.490 . S
C2446 C2448 1.395 . S
C2446 C2449 1.403 1_556 S
H2447 C2453 0.930 . S
C2448 H2434 0.930 . S
C2448 C2446 1.395 . S
C2448 C2451 1.403 . S
C2449 C2446 1.403 1_554 S
C2449 C2450 1.524 . S
C2449 C2453 1.400 . S
C2450 H2435 0.960 . S
C2450 H2436 0.960 1_554 S
C2450 H2437 0.960 . S
C2450 C2449 1.524 . S
C2451 C2448 1.403 . S
C2451 C2452 1.392 1_556 S
C2451 C2455 1.495 . S
C2452 C2451 1.392 1_554 S
C2452 C2453 1.385 . S
C2452 C2454 1.478 . S
C2453 H2447 0.930 . S
C2453 C2449 1.400 . S
C2453 C2452 1.385 . S
C2454 C2452 1.478 . S
C2454 C2456 1.381 . S
C2454 C2460 1.383 . S
C2455 C2451 1.495 . S
C2455 H2461 0.959 . S
C2455 H2462 0.961 . S
C2455 H2463 0.960 . S
C2456 C2454 1.381 . S
C2456 C2457 1.394 . S
C2456 H2464 0.930 1_554 S
C2457 C2456 1.394 . S
C2457 C2458 1.383 . S
C2457 H2465 0.929 . S
C2458 C2457 1.383 . S
C2458 C2459 1.377 . S
C2459 H2443 0.930 . S
C2459 C2458 1.377 . S
C2459 C2460 1.379 . S
C2460 H2444 0.931 . S
C2460 C2454 1.383 . S
C2460 C2459 1.379 . S
H2461 C2455 0.959 . S
H2462 C2455 0.961 . S
H2463 C2455 0.960 . S
H2464 C2456 0.930 1_556 S
H2465 C2457 0.929 . S
H2466 C2474 0.929 . S
H2467 C2476 0.930 . S
H2468 C2478 0.930 . S
H2469 C2481 0.929 . S
H2470 C2484 0.930 . S
H2471 C2486 0.960 . S
H2472 C2486 0.960 . S
H2473 C2486 0.960 . S
C2474 H2466 0.929 . S
C2474 C2475 1.377 . S
C2474 C2476 1.384 . S
C2475 C2474 1.377 . S
C2475 C2481 1.390 . S
C2476 H2467 0.930 . S
C2476 C2474 1.384 . S
C2476 C2477 1.372 . S
C2477 C2476 1.372 . S
C2477 C2478 1.400 . S
C2477 C2482 1.490 . S
C2478 H2468 0.930 . S
C2478 C2477 1.400 . S
C2478 C2481 1.386 . S
H2479 C2495 0.961 . S
H2480 C2496 0.931 . S
C2481 H2469 0.929 . S
C2481 C2475 1.390 . S
C2481 C2478 1.386 . S
C2482 C2477 1.490 . S
C2482 C2484 1.395 . S
C2482 C2485 1.403 1_556 S
H2483 C2489 0.930 . S
C2484 H2470 0.930 . S
C2484 C2482 1.395 . S
C2484 C2487 1.403 . S
C2485 C2482 1.403 1_554 S
C2485 C2486 1.524 . S
C2485 C2489 1.400 . S
C2486 H2471 0.960 . S
C2486 H2472 0.960 . S
C2486 H2473 0.960 . S
C2486 C2485 1.524 . S
C2487 C2484 1.403 . S
C2487 C2488 1.392 1_556 S
C2487 C2491 1.495 . S
C2488 C2487 1.392 1_554 S
C2488 C2489 1.385 . S
C2488 C2490 1.478 . S
C2489 H2483 0.930 . S
C2489 C2485 1.400 . S
C2489 C2488 1.385 . S
C2490 C2488 1.478 . S
C2490 C2492 1.381 . S
C2490 C2496 1.383 . S
C2491 C2487 1.495 . S
C2491 H2497 0.959 . S
C2491 H2498 0.961 . S
C2491 H2499 0.960 . S
C2492 C2490 1.381 . S
C2492 C2493 1.394 . S
C2492 H2500 0.930 . S
C2493 C2492 1.394 . S
C2493 C2494 1.383 1_545 S
C2493 H2501 0.929 . S
C2494 C2493 1.383 1_565 S
C2494 C2495 1.368 . S
C2495 H2479 0.961 . S
C2495 C2494 1.368 . S
C2495 C2496 1.357 1_565 S
C2496 H2480 0.931 . S
C2496 C2490 1.383 . S
C2496 C2495 1.357 1_545 S
H2497 C2491 0.959 . S
H2498 C2491 0.961 . S
H2499 C2491 0.960 . S
H2500 C2492 0.930 . S
H2501 C2493 0.929 . S
H2502 C2510 0.929 . S
H2503 C2512 0.930 . S
H2504 C2514 0.930 . S
H2505 C2517 0.929 . S
H2506 C2520 0.930 . S
H2507 C2522 0.960 . S
H2508 C2522 0.960 . S
H2509 C2522 0.960 . S
C2510 H2502 0.929 . S
C2510 C2511 1.377 . S
C2510 C2512 1.384 . S
C2511 C2510 1.377 . S
C2511 C2517 1.390 . S
C2512 H2503 0.930 . S
C2512 C2510 1.384 . S
C2512 C2513 1.372 . S
C2513 C2512 1.372 . S
C2513 C2514 1.400 . S
C2513 C2518 1.490 . S
C2514 H2504 0.930 . S
C2514 C2513 1.400 . S
C2514 C2517 1.386 . S
H2515 C2531 0.930 . S
H2516 C2532 0.931 . S
C2517 H2505 0.929 . S
C2517 C2511 1.390 . S
C2517 C2514 1.386 . S
C2518 C2513 1.490 . S
C2518 C2520 1.395 1_556 S
C2518 C2521 1.403 . S
H2519 C2525 0.930 . S
C2520 H2506 0.930 . S
C2520 C2518 1.395 1_554 S
C2520 C2523 1.403 . S
C2521 C2518 1.403 . S
C2521 C2522 1.524 . S
C2521 C2525 1.400 . S
C2522 H2507 0.960 . S
C2522 H2508 0.960 . S
C2522 H2509 0.960 . S
C2522 C2521 1.524 . S
C2523 C2520 1.403 . S
C2523 C2524 1.392 . S
C2523 C2527 1.495 . S
C2524 C2523 1.392 . S
C2524 C2525 1.385 1_554 S
C2524 C2526 1.478 . S
C2525 H2519 0.930 . S
C2525 C2521 1.400 . S
C2525 C2524 1.385 1_556 S
C2526 C2524 1.478 . S
C2526 C2528 1.381 . S
C2526 C2532 1.383 . S
C2527 C2523 1.495 . S
C2527 H2533 0.959 . S
C2527 H2534 0.961 . S
C2527 H2535 0.960 . S
C2528 C2526 1.381 . S
C2528 C2529 1.394 . S
C2528 H2536 0.930 . S
C2529 C2528 1.394 . S
C2529 C2530 1.383 1_655 S
C2529 H2537 0.929 1_655 S
C2530 C2529 1.383 1_455 S
C2530 C2531 1.377 1_455 S
C2531 H2515 0.930 . S
C2531 C2530 1.377 1_655 S
C2531 C2532 1.379 . S
C2532 H2516 0.931 . S
C2532 C2526 1.383 . S
C2532 C2531 1.379 . S
H2533 C2527 0.959 . S
H2534 C2527 0.961 . S
H2535 C2527 0.960 . S
H2536 C2528 0.930 . S
H2537 C2529 0.929 1_455 S
H2538 C2546 0.929 . S
H2539 C2548 0.930 . S
H2540 C2550 0.930 1_556 S
H2541 C2553 0.929 . S
H2542 C2556 0.930 . S
H2543 C2558 0.960 . S
H2544 C2558 0.960 1_554 S
H2545 C2558 0.960 . S
C2546 H2538 0.929 . S
C2546 C2547 1.377 . S
C2546 C2548 1.384 . S
C2547 C2546 1.377 . S
C2547 C2553 1.390 . S
C2548 H2539 0.930 . S
C2548 C2546 1.384 . S
C2548 C2549 1.372 . S
C2549 C2548 1.372 . S
C2549 C2550 1.400 . S
C2549 C2554 1.490 . S
C2550 H2540 0.930 1_554 S
C2550 C2549 1.400 . S
C2550 C2553 1.386 . S
H2551 C2567 0.930 . S
H2552 C2568 0.931 . S
C2553 H2541 0.929 . S
C2553 C2547 1.390 . S
C2553 C2550 1.386 . S
C2554 C2549 1.490 . S
C2554 C2556 1.395 . S
C2554 C2557 1.403 1_554 S
H2555 C2561 0.930 . S
C2556 H2542 0.930 . S
C2556 C2554 1.395 . S
C2556 C2559 1.403 . S
C2557 C2554 1.403 1_556 S
C2557 C2558 1.524 . S
C2557 C2561 1.400 . S
C2558 H2543 0.960 . S
C2558 H2544 0.960 1_556 S
C2558 H2545 0.960 . S
C2558 C2557 1.524 . S
C2559 C2556 1.403 . S
C2559 C2560 1.392 1_554 S
C2559 C2563 1.495 . S
C2560 C2559 1.392 1_556 S
C2560 C2561 1.385 . S
C2560 C2562 1.478 . S
C2561 H2555 0.930 . S
C2561 C2557 1.400 . S
C2561 C2560 1.385 . S
C2562 C2560 1.478 . S
C2562 C2564 1.381 . S
C2562 C2568 1.383 . S
C2563 C2559 1.495 . S
C2563 H2569 0.959 . S
C2563 H2570 0.961 1_554 S
C2563 H2571 0.960 . S
C2564 C2562 1.381 . S
C2564 C2565 1.394 . S
C2564 H2572 0.930 1_556 S
C2565 C2564 1.394 . S
C2565 C2566 1.383 . S
C2565 H2573 0.929 . S
C2566 C2565 1.383 . S
C2566 C2567 1.377 . S
C2567 H2551 0.930 . S
C2567 C2566 1.377 . S
C2567 C2568 1.379 . S
C2568 H2552 0.931 . S
C2568 C2562 1.383 . S
C2568 C2567 1.379 . S
H2569 C2563 0.959 . S
H2570 C2563 0.961 1_556 S
H2571 C2563 0.960 . S
H2572 C2564 0.930 1_554 S
H2573 C2565 0.929 . S
H2574 C2582 0.929 . S
H2575 C2584 0.930 . S
H2576 C2586 0.930 . S
H2577 C2589 0.929 . S
H2578 C2592 0.930 . S
H2579 C2594 0.960 . S
H2580 C2594 0.960 . S
H2581 C2594 0.960 1_556 S
C2582 H2574 0.929 . S
C2582 C2583 1.377 . S
C2582 C2584 1.384 1_545 S
C2583 C2582 1.377 . S
C2583 C2589 1.390 1_545 S
C2584 H2575 0.930 . S
C2584 C2582 1.384 1_565 S
C2584 C2585 1.372 . S
C2585 C2584 1.372 . S
C2585 C2586 1.400 . S
C2585 C2590 1.490 . S
C2586 H2576 0.930 . S
C2586 C2585 1.400 . S
C2586 C2589 1.386 . S
H2587 C2603 0.930 . S
H2588 C2604 0.931 1_556 S
C2589 H2577 0.929 . S
C2589 C2583 1.390 1_565 S
C2589 C2586 1.386 . S
C2590 C2585 1.490 . S
C2590 C2592 1.395 . S
C2590 C2593 1.403 1_556 S
H2591 C2597 0.930 . S
C2592 H2578 0.930 . S
C2592 C2590 1.395 . S
C2592 C2595 1.403 . S
C2593 C2590 1.403 1_554 S
C2593 C2594 1.524 . S
C2593 C2597 1.400 . S
C2594 H2579 0.960 . S
C2594 H2580 0.960 . S
C2594 H2581 0.960 1_554 S
C2594 C2593 1.524 . S
C2595 C2592 1.403 . S
C2595 C2596 1.392 1_556 S
C2595 C2599 1.495 . S
C2596 C2595 1.392 1_554 S
C2596 C2597 1.385 . S
C2596 C2598 1.478 . S
C2597 H2591 0.930 . S
C2597 C2593 1.400 . S
C2597 C2596 1.385 . S
C2598 C2596 1.478 . S
C2598 C2600 1.381 . S
C2598 C2604 1.383 . S
C2599 C2595 1.495 . S
C2599 H2605 0.959 . S
C2599 H2606 0.961 . S
C2599 H2607 0.960 1_556 S
C2600 C2598 1.381 . S
C2600 C2601 1.394 . S
C2600 H2608 0.930 . S
C2601 C2600 1.394 . S
C2601 C2602 1.383 . S
C2601 H2609 0.929 . S
C2602 C2601 1.383 . S
C2602 C2603 1.377 . S
C2603 H2587 0.930 . S
C2603 C2602 1.377 . S
C2603 C2604 1.379 . S
C2604 H2588 0.931 1_554 S
C2604 C2598 1.383 . S
C2604 C2603 1.379 . S
H2605 C2599 0.959 . S
H2606 C2599 0.961 . S
H2607 C2599 0.960 1_554 S
H2608 C2600 0.930 . S
H2609 C2601 0.929 . S
H2610 C2618 0.922 1_655 S
H2611 C2620 0.930 1_554 S
H2612 C2622 0.930 . S
H2613 C2625 0.929 . S
H2614 C2628 0.930 . S
H2615 C2630 0.960 . S
H2616 C2630 0.960 . S
H2617 C2630 0.960 . S
C2618 H2610 0.922 1_455 S
C2618 C2619 1.377 1_455 S
C2618 C2620 1.391 . S
C2619 C2618 1.377 1_655 S
C2619 C2625 1.390 1_655 S
C2620 H2611 0.930 1_556 S
C2620 C2618 1.391 . S
C2620 C2621 1.372 . S
C2621 C2620 1.372 . S
C2621 C2622 1.400 . S
C2621 C2626 1.490 . S
C2622 H2612 0.930 . S
C2622 C2621 1.400 . S
C2622 C2625 1.386 . S
H2623 C2639 0.930 . S
H2624 C2640 0.888 1_556 S
C2625 H2613 0.929 . S
C2625 C2619 1.390 1_455 S
C2625 C2622 1.386 . S
C2626 C2621 1.490 . S
C2626 C2628 1.395 1_556 S
C2626 C2629 1.403 . S
H2627 C2633 0.930 . S
C2628 H2614 0.930 . S
C2628 C2626 1.395 1_554 S
C2628 C2631 1.403 . S
C2629 C2626 1.403 . S
C2629 C2630 1.524 . S
C2629 C2633 1.400 . S
C2630 H2615 0.960 . S
C2630 H2616 0.960 . S
C2630 H2617 0.960 . S
C2630 C2629 1.524 . S
C2631 C2628 1.403 . S
C2631 C2632 1.392 . S
C2631 C2635 1.495 . S
C2632 C2631 1.392 . S
C2632 C2633 1.385 1_554 S
C2632 C2634 1.478 . S
C2633 H2627 0.930 . S
C2633 C2629 1.400 . S
C2633 C2632 1.385 1_556 S
C2634 C2632 1.478 . S
C2634 C2636 1.381 . S
C2634 C2640 1.383 . S
C2635 C2631 1.495 . S
C2635 H2641 0.959 . S
C2635 H2642 0.961 . S
C2635 H2643 0.960 . S
C2636 C2634 1.381 . S
C2636 C2637 1.394 . S
C2636 H2644 0.930 . S
C2637 C2636 1.394 . S
C2637 C2638 1.383 . S
C2637 H2645 0.929 . S
C2638 C2637 1.383 . S
C2638 C2639 1.377 . S
C2639 H2623 0.930 . S
C2639 C2638 1.377 . S
C2639 C2640 1.379 . S
C2640 H2624 0.888 1_554 S
C2640 C2634 1.383 . S
C2640 C2639 1.379 . S
H2641 C2635 0.959 . S
H2642 C2635 0.961 . S
H2643 C2635 0.960 . S
H2644 C2636 0.930 . S
H2645 C2637 0.929 . S
H2646 C2654 0.929 . S
H2647 C2656 0.930 . S
H2648 C2658 0.930 . S
H2649 C2661 0.929 . S
H2650 C2664 0.930 . S
H2651 C2666 0.960 . S
H2652 C2666 0.960 . S
H2653 C2666 0.960 . S
C2654 H2646 0.929 . S
C2654 C2655 1.377 . S
C2654 C2656 1.384 . S
C2655 C2654 1.377 . S
C2655 C2661 1.390 . S
C2656 H2647 0.930 . S
C2656 C2654 1.384 . S
C2656 C2657 1.372 . S
C2657 C2656 1.372 . S
C2657 C2658 1.400 . S
C2657 C2662 1.490 . S
C2658 H2648 0.930 . S
C2658 C2657 1.400 . S
C2658 C2661 1.386 . S
H2659 C2675 0.930 . S
H2660 C2676 0.931 . S
C2661 H2649 0.929 . S
C2661 C2655 1.390 . S
C2661 C2658 1.386 . S
C2662 C2657 1.490 . S
C2662 C2664 1.395 . S
C2662 C2665 1.403 . S
H2663 C2669 0.930 . S
C2664 H2650 0.930 . S
C2664 C2662 1.395 . S
C2664 C2667 1.403 . S
C2665 C2662 1.403 . S
C2665 C2666 1.524 . S
C2665 C2669 1.400 . S
C2666 H2651 0.960 . S
C2666 H2652 0.960 . S
C2666 H2653 0.960 . S
C2666 C2665 1.524 . S
C2667 C2664 1.403 . S
C2667 C2668 1.392 . S
C2667 C2671 1.495 . S
C2668 C2667 1.392 . S
C2668 C2669 1.385 . S
C2668 C2670 1.478 . S
C2669 H2663 0.930 . S
C2669 C2665 1.400 . S
C2669 C2668 1.385 . S
C2670 C2668 1.478 . S
C2670 C2672 1.381 . S
C2670 C2676 1.383 . S
C2671 C2667 1.495 . S
C2671 H2677 0.959 . S
C2671 H2678 0.961 . S
C2671 H2679 0.960 . S
C2672 C2670 1.381 . S
C2672 C2673 1.394 . S
C2672 H2680 0.930 . S
C2673 C2672 1.394 . S
C2673 C2674 1.383 . S
C2673 H2681 0.929 . S
C2674 C2673 1.383 . S
C2674 C2675 1.377 . S
C2675 H2659 0.930 . S
C2675 C2674 1.377 . S
C2675 C2676 1.379 . S
C2676 H2660 0.931 . S
C2676 C2670 1.383 . S
C2676 C2675 1.379 . S
H2677 C2671 0.959 . S
H2678 C2671 0.961 . S
H2679 C2671 0.960 . S
H2680 C2672 0.930 . S
H2681 C2673 0.929 . S
H2682 C2690 0.929 . S
H2683 C2692 0.930 . S
H2684 C2694 0.930 . S
H2685 C2697 0.929 . S
H2686 C2700 0.930 . S
H2687 C2702 0.960 . S
H2688 C2702 0.960 . S
H2689 C2702 0.960 . S
C2690 H2682 0.929 . S
C2690 C2691 1.377 . S
C2690 C2692 1.384 . S
C2691 C2690 1.377 . S
C2691 C2697 1.390 . S
C2692 H2683 0.930 . S
C2692 C2690 1.384 . S
C2692 C2693 1.372 . S
C2693 C2692 1.372 . S
C2693 C2694 1.400 . S
C2693 C2698 1.490 . S
C2694 H2684 0.930 . S
C2694 C2693 1.400 . S
C2694 C2697 1.386 . S
H2695 C2711 0.930 . S
H2696 C2712 0.931 . S
C2697 H2685 0.929 . S
C2697 C2691 1.390 . S
C2697 C2694 1.386 . S
C2698 C2693 1.490 . S
C2698 C2700 1.395 . S
C2698 C2701 1.403 . S
H2699 C2705 0.930 . S
C2700 H2686 0.930 . S
C2700 C2698 1.395 . S
C2700 C2703 1.403 . S
C2701 C2698 1.403 . S
C2701 C2702 1.524 . S
C2701 C2705 1.400 . S
C2702 H2687 0.960 . S
C2702 H2688 0.960 . S
C2702 H2689 0.960 . S
C2702 C2701 1.524 . S
C2703 C2700 1.403 . S
C2703 C2704 1.392 . S
C2703 C2707 1.495 . S
C2704 C2703 1.392 . S
C2704 C2705 1.385 . S
C2704 C2706 1.478 . S
C2705 H2699 0.930 . S
C2705 C2701 1.400 . S
C2705 C2704 1.385 . S
C2706 C2704 1.478 . S
C2706 C2708 1.381 . S
C2706 C2712 1.383 . S
C2707 C2703 1.495 . S
C2707 H2713 0.959 . S
C2707 H2714 0.961 . S
C2707 H2715 0.960 . S
C2708 C2706 1.381 . S
C2708 C2709 1.394 . S
C2708 H2716 0.930 . S
C2709 C2708 1.394 . S
C2709 C2710 1.383 . S
C2709 H2717 0.929 . S
C2710 C2709 1.383 . S
C2710 C2711 1.377 . S
C2711 H2695 0.930 . S
C2711 C2710 1.377 . S
C2711 C2712 1.379 . S
C2712 H2696 0.931 . S
C2712 C2706 1.383 . S
C2712 C2711 1.379 . S
H2713 C2707 0.959 . S
H2714 C2707 0.961 . S
H2715 C2707 0.960 . S
H2716 C2708 0.930 . S
H2717 C2709 0.929 . S
H2718 C2726 0.929 . S
H2719 C2728 0.930 . S
H2720 C2730 0.930 . S
H2721 C2733 0.929 . S
H2722 C2736 0.930 . S
H2723 C2738 0.960 . S
H2724 C2738 0.960 . S
H2725 C2738 0.960 . S
C2726 H2718 0.929 . S
C2726 C2727 1.377 . S
C2726 C2728 1.384 . S
C2727 C2726 1.377 . S
C2727 C2733 1.390 . S
C2728 H2719 0.930 . S
C2728 C2726 1.384 . S
C2728 C2729 1.372 . S
C2729 C2728 1.372 . S
C2729 C2730 1.400 . S
C2729 C2734 1.490 . S
C2730 H2720 0.930 . S
C2730 C2729 1.400 . S
C2730 C2733 1.386 . S
H2731 C2747 0.930 . S
H2732 C2748 0.931 . S
C2733 H2721 0.929 . S
C2733 C2727 1.390 . S
C2733 C2730 1.386 . S
C2734 C2729 1.490 . S
C2734 C2736 1.395 . S
C2734 C2737 1.403 . S
H2735 C2741 0.930 . S
C2736 H2722 0.930 . S
C2736 C2734 1.395 . S
C2736 C2739 1.403 . S
C2737 C2734 1.403 . S
C2737 C2738 1.524 . S
C2737 C2741 1.400 . S
C2738 H2723 0.960 . S
C2738 H2724 0.960 . S
C2738 H2725 0.960 . S
C2738 C2737 1.524 . S
C2739 C2736 1.403 . S
C2739 C2740 1.392 . S
C2739 C2743 1.495 . S
C2740 C2739 1.392 . S
C2740 C2741 1.385 . S
C2740 C2742 1.478 . S
C2741 H2735 0.930 . S
C2741 C2737 1.400 . S
C2741 C2740 1.385 . S
C2742 C2740 1.478 . S
C2742 C2744 1.381 . S
C2742 C2748 1.383 . S
C2743 C2739 1.495 . S
C2743 H2749 0.959 . S
C2743 H2750 0.961 . S
C2743 H2751 0.960 . S
C2744 C2742 1.381 . S
C2744 C2745 1.394 . S
C2744 H2752 0.930 . S
C2745 C2744 1.394 . S
C2745 C2746 1.383 . S
C2745 H2753 0.929 . S
C2746 C2745 1.383 . S
C2746 C2747 1.377 . S
C2747 H2731 0.930 . S
C2747 C2746 1.377 . S
C2747 C2748 1.379 . S
C2748 H2732 0.931 . S
C2748 C2742 1.383 . S
C2748 C2747 1.379 . S
H2749 C2743 0.959 . S
H2750 C2743 0.961 . S
H2751 C2743 0.960 . S
H2752 C2744 0.930 . S
H2753 C2745 0.929 . S
H2754 C2762 0.929 . S
H2755 C2764 0.930 . S
H2756 C2766 0.930 . S
H2757 C2769 0.929 . S
H2758 C2772 0.930 . S
H2759 C2774 0.960 . S
H2760 C2774 0.960 . S
H2761 C2774 0.960 . S
C2762 H2754 0.929 . S
C2762 C2763 1.377 . S
C2762 C2764 1.384 . S
C2763 C2762 1.377 . S
C2763 C2769 1.390 . S
C2764 H2755 0.930 . S
C2764 C2762 1.384 . S
C2764 C2765 1.372 . S
C2765 C2764 1.372 . S
C2765 C2766 1.400 . S
C2765 C2770 1.490 . S
C2766 H2756 0.930 . S
C2766 C2765 1.400 . S
C2766 C2769 1.386 . S
H2767 C2783 0.930 . S
H2768 C2784 0.931 . S
C2769 H2757 0.929 . S
C2769 C2763 1.390 . S
C2769 C2766 1.386 . S
C2770 C2765 1.490 . S
C2770 C2772 1.395 . S
C2770 C2773 1.403 . S
H2771 C2777 0.930 . S
C2772 H2758 0.930 . S
C2772 C2770 1.395 . S
C2772 C2775 1.403 . S
C2773 C2770 1.403 . S
C2773 C2774 1.524 . S
C2773 C2777 1.400 . S
C2774 H2759 0.960 . S
C2774 H2760 0.960 . S
C2774 H2761 0.960 . S
C2774 C2773 1.524 . S
C2775 C2772 1.403 . S
C2775 C2776 1.392 . S
C2775 C2779 1.495 . S
C2776 C2775 1.392 . S
C2776 C2777 1.385 . S
C2776 C2778 1.478 . S
C2777 H2771 0.930 . S
C2777 C2773 1.400 . S
C2777 C2776 1.385 . S
C2778 C2776 1.478 . S
C2778 C2780 1.381 . S
C2778 C2784 1.383 . S
C2779 C2775 1.495 . S
C2779 H2785 0.959 . S
C2779 H2786 0.961 . S
C2779 H2787 0.960 . S
C2780 C2778 1.381 . S
C2780 C2781 1.394 . S
C2780 H2788 0.930 . S
C2781 C2780 1.394 . S
C2781 C2782 1.383 . S
C2781 H2789 0.929 . S
C2782 C2781 1.383 . S
C2782 C2783 1.377 . S
C2783 H2767 0.930 . S
C2783 C2782 1.377 . S
C2783 C2784 1.379 . S
C2784 H2768 0.931 . S
C2784 C2778 1.383 . S
C2784 C2783 1.379 . S
H2785 C2779 0.959 . S
H2786 C2779 0.961 . S
H2787 C2779 0.960 . S
H2788 C2780 0.930 . S
H2789 C2781 0.929 . S
H2790 C2798 0.929 . S
H2791 C2800 0.930 . S
H2792 C2802 0.930 . S
H2793 C2805 0.929 . S
H2794 C2808 0.930 . S
H2795 C2810 0.960 . S
H2796 C2810 0.960 . S
H2797 C2810 0.960 . S
C2798 H2790 0.929 . S
C2798 C2799 1.377 . S
C2798 C2800 1.384 . S
C2799 C2798 1.377 . S
C2799 C2805 1.390 . S
C2800 H2791 0.930 . S
C2800 C2798 1.384 . S
C2800 C2801 1.372 . S
C2801 C2800 1.372 . S
C2801 C2802 1.400 . S
C2801 C2806 1.490 . S
C2802 H2792 0.930 . S
C2802 C2801 1.400 . S
C2802 C2805 1.386 . S
H2803 C2819 0.930 . S
H2804 C2820 0.931 . S
C2805 H2793 0.929 . S
C2805 C2799 1.390 . S
C2805 C2802 1.386 . S
C2806 C2801 1.490 . S
C2806 C2808 1.395 . S
C2806 C2809 1.403 . S
H2807 C2813 0.930 . S
C2808 H2794 0.930 . S
C2808 C2806 1.395 . S
C2808 C2811 1.403 . S
C2809 C2806 1.403 . S
C2809 C2810 1.524 . S
C2809 C2813 1.400 . S
C2810 H2795 0.960 . S
C2810 H2796 0.960 . S
C2810 H2797 0.960 . S
C2810 C2809 1.524 . S
C2811 C2808 1.403 . S
C2811 C2812 1.392 . S
C2811 C2815 1.495 . S
C2812 C2811 1.392 . S
C2812 C2813 1.385 . S
C2812 C2814 1.478 . S
C2813 H2807 0.930 . S
C2813 C2809 1.400 . S
C2813 C2812 1.385 . S
C2814 C2812 1.478 . S
C2814 C2816 1.381 . S
C2814 C2820 1.383 . S
C2815 C2811 1.495 . S
C2815 H2821 0.959 . S
C2815 H2822 0.961 . S
C2815 H2823 0.960 . S
C2816 C2814 1.381 . S
C2816 C2817 1.394 . S
C2816 H2824 0.930 . S
C2817 C2816 1.394 . S
C2817 C2818 1.383 . S
C2817 H2825 0.929 . S
C2818 C2817 1.383 . S
C2818 C2819 1.377 . S
C2819 H2803 0.930 . S
C2819 C2818 1.377 . S
C2819 C2820 1.379 . S
C2820 H2804 0.931 . S
C2820 C2814 1.383 . S
C2820 C2819 1.379 . S
H2821 C2815 0.959 . S
H2822 C2815 0.961 . S
H2823 C2815 0.960 . S
H2824 C2816 0.930 . S
H2825 C2817 0.929 . S
H2826 C2834 0.929 . S
H2827 C2836 0.930 . S
H2828 C2838 0.930 . S
H2829 C2841 0.929 . S
H2830 C2844 0.930 . S
H2831 C2846 0.960 . S
H2832 C2846 0.960 . S
H2833 C2846 0.960 . S
C2834 H2826 0.929 . S
C2834 C2835 1.377 . S
C2834 C2836 1.384 . S
C2835 C2834 1.377 . S
C2835 C2841 1.390 . S
C2836 H2827 0.930 . S
C2836 C2834 1.384 . S
C2836 C2837 1.372 . S
C2837 C2836 1.372 . S
C2837 C2838 1.400 . S
C2837 C2842 1.490 . S
C2838 H2828 0.930 . S
C2838 C2837 1.400 . S
C2838 C2841 1.386 . S
H2839 C2855 0.930 . S
H2840 C2856 0.931 . S
C2841 H2829 0.929 . S
C2841 C2835 1.390 . S
C2841 C2838 1.386 . S
C2842 C2837 1.490 . S
C2842 C2844 1.395 . S
C2842 C2845 1.403 . S
H2843 C2849 0.930 . S
C2844 H2830 0.930 . S
C2844 C2842 1.395 . S
C2844 C2847 1.403 . S
C2845 C2842 1.403 . S
C2845 C2846 1.524 . S
C2845 C2849 1.400 . S
C2846 H2831 0.960 . S
C2846 H2832 0.960 . S
C2846 H2833 0.960 . S
C2846 C2845 1.524 . S
C2847 C2844 1.403 . S
C2847 C2848 1.392 . S
C2847 C2851 1.495 . S
C2848 C2847 1.392 . S
C2848 C2849 1.385 . S
C2848 C2850 1.478 . S
C2849 H2843 0.930 . S
C2849 C2845 1.400 . S
C2849 C2848 1.385 . S
C2850 C2848 1.478 . S
C2850 C2852 1.381 . S
C2850 C2856 1.383 . S
C2851 C2847 1.495 . S
C2851 H2857 0.959 . S
C2851 H2858 0.961 . S
C2851 H2859 0.960 . S
C2852 C2850 1.381 . S
C2852 C2853 1.394 . S
C2852 H2860 0.930 . S
C2853 C2852 1.394 . S
C2853 C2854 1.383 . S
C2853 H2861 0.929 . S
C2854 C2853 1.383 . S
C2854 C2855 1.377 . S
C2855 H2839 0.930 . S
C2855 C2854 1.377 . S
C2855 C2856 1.379 . S
C2856 H2840 0.931 . S
C2856 C2850 1.383 . S
C2856 C2855 1.379 . S
H2857 C2851 0.959 . S
H2858 C2851 0.961 . S
H2859 C2851 0.960 . S
H2860 C2852 0.930 . S
H2861 C2853 0.929 . S
H2862 C2870 0.929 . S
H2863 C2872 0.930 . S
H2864 C2874 0.930 . S
H2865 C2877 0.929 . S
H2866 C2880 0.930 . S
H2867 C2882 0.960 . S
H2868 C2882 0.960 . S
H2869 C2882 0.960 . S
C2870 H2862 0.929 . S
C2870 C2871 1.377 . S
C2870 C2872 1.384 . S
C2871 C2870 1.377 . S
C2871 C2877 1.390 . S
C2872 H2863 0.930 . S
C2872 C2870 1.384 . S
C2872 C2873 1.372 . S
C2873 C2872 1.372 . S
C2873 C2874 1.400 . S
C2873 C2878 1.490 . S
C2874 H2864 0.930 . S
C2874 C2873 1.400 . S
C2874 C2877 1.386 . S
H2875 C2891 0.930 . S
H2876 C2892 0.931 . S
C2877 H2865 0.929 . S
C2877 C2871 1.390 . S
C2877 C2874 1.386 . S
C2878 C2873 1.490 . S
C2878 C2880 1.395 . S
C2878 C2881 1.403 . S
H2879 C2885 0.930 . S
C2880 H2866 0.930 . S
C2880 C2878 1.395 . S
C2880 C2883 1.403 . S
C2881 C2878 1.403 . S
C2881 C2882 1.524 . S
C2881 C2885 1.400 . S
C2882 H2867 0.960 . S
C2882 H2868 0.960 . S
C2882 H2869 0.960 . S
C2882 C2881 1.524 . S
C2883 C2880 1.403 . S
C2883 C2884 1.392 . S
C2883 C2887 1.495 . S
C2884 C2883 1.392 . S
C2884 C2885 1.385 . S
C2884 C2886 1.478 . S
C2885 H2879 0.930 . S
C2885 C2881 1.400 . S
C2885 C2884 1.385 . S
C2886 C2884 1.478 . S
C2886 C2888 1.381 . S
C2886 C2892 1.383 . S
C2887 C2883 1.495 . S
C2887 H2893 0.959 . S
C2887 H2894 0.961 . S
C2887 H2895 0.960 . S
C2888 C2886 1.381 . S
C2888 C2889 1.394 . S
C2888 H2896 0.930 . S
C2889 C2888 1.394 . S
C2889 C2890 1.383 . S
C2889 H2897 0.929 . S
C2890 C2889 1.383 . S
C2890 C2891 1.377 . S
C2891 H2875 0.930 . S
C2891 C2890 1.377 . S
C2891 C2892 1.379 . S
C2892 H2876 0.931 . S
C2892 C2886 1.383 . S
C2892 C2891 1.379 . S
H2893 C2887 0.959 . S
H2894 C2887 0.961 . S
H2895 C2887 0.960 . S
H2896 C2888 0.930 . S
H2897 C2889 0.929 . S
H2898 C2906 0.929 . S
H2899 C2908 0.930 . S
H2900 C2910 0.930 . S
H2901 C2913 0.929 . S
H2902 C2916 0.930 . S
H2903 C2918 0.960 . S
H2904 C2918 0.960 . S
H2905 C2918 0.960 . S
C2906 H2898 0.929 . S
C2906 C2907 1.377 . S
C2906 C2908 1.384 . S
C2907 C2906 1.377 . S
C2907 C2913 1.390 . S
C2908 H2899 0.930 . S
C2908 C2906 1.384 . S
C2908 C2909 1.372 . S
C2909 C2908 1.372 . S
C2909 C2910 1.400 . S
C2909 C2914 1.490 . S
C2910 H2900 0.930 . S
C2910 C2909 1.400 . S
C2910 C2913 1.386 . S
H2911 C2927 0.930 . S
H2912 C2928 0.931 . S
C2913 H2901 0.929 . S
C2913 C2907 1.390 . S
C2913 C2910 1.386 . S
C2914 C2909 1.490 . S
C2914 C2916 1.395 . S
C2914 C2917 1.403 . S
H2915 C2921 0.930 . S
C2916 H2902 0.930 . S
C2916 C2914 1.395 . S
C2916 C2919 1.403 . S
C2917 C2914 1.403 . S
C2917 C2918 1.524 . S
C2917 C2921 1.400 . S
C2918 H2903 0.960 . S
C2918 H2904 0.960 . S
C2918 H2905 0.960 . S
C2918 C2917 1.524 . S
C2919 C2916 1.403 . S
C2919 C2920 1.392 . S
C2919 C2923 1.495 . S
C2920 C2919 1.392 . S
C2920 C2921 1.385 . S
C2920 C2922 1.478 . S
C2921 H2915 0.930 . S
C2921 C2917 1.400 . S
C2921 C2920 1.385 . S
C2922 C2920 1.478 . S
C2922 C2924 1.381 . S
C2922 C2928 1.383 . S
C2923 C2919 1.495 . S
C2923 H2929 0.959 . S
C2923 H2930 0.961 . S
C2923 H2931 0.960 . S
C2924 C2922 1.381 . S
C2924 C2925 1.394 . S
C2924 H2932 0.930 . S
C2925 C2924 1.394 . S
C2925 C2926 1.383 . S
C2925 H2933 0.929 . S
C2926 C2925 1.383 . S
C2926 C2927 1.377 . S
C2927 H2911 0.930 . S
C2927 C2926 1.377 . S
C2927 C2928 1.379 . S
C2928 H2912 0.931 . S
C2928 C2922 1.383 . S
C2928 C2927 1.379 . S
H2929 C2923 0.959 . S
H2930 C2923 0.961 . S
H2931 C2923 0.960 . S
H2932 C2924 0.930 . S
H2933 C2925 0.929 . S
H2934 C2942 0.929 . S
H2935 C2944 0.930 . S
H2936 C2946 0.930 . S
H2937 C2949 0.929 . S
H2938 C2952 0.930 . S
H2939 C2954 0.960 . S
H2940 C2954 0.960 . S
H2941 C2954 0.960 . S
C2942 H2934 0.929 . S
C2942 C2943 1.377 . S
C2942 C2944 1.384 . S
C2943 C2942 1.377 . S
C2943 C2949 1.390 . S
C2944 H2935 0.930 . S
C2944 C2942 1.384 . S
C2944 C2945 1.372 . S
C2945 C2944 1.372 . S
C2945 C2946 1.400 . S
C2945 C2950 1.490 . S
C2946 H2936 0.930 . S
C2946 C2945 1.400 . S
C2946 C2949 1.386 . S
H2947 C2963 0.930 . S
H2948 C2964 0.931 . S
C2949 H2937 0.929 . S
C2949 C2943 1.390 . S
C2949 C2946 1.386 . S
C2950 C2945 1.490 . S
C2950 C2952 1.395 . S
C2950 C2953 1.403 . S
H2951 C2957 0.930 . S
C2952 H2938 0.930 . S
C2952 C2950 1.395 . S
C2952 C2955 1.403 . S
C2953 C2950 1.403 . S
C2953 C2954 1.524 . S
C2953 C2957 1.400 . S
C2954 H2939 0.960 . S
C2954 H2940 0.960 . S
C2954 H2941 0.960 . S
C2954 C2953 1.524 . S
C2955 C2952 1.403 . S
C2955 C2956 1.392 . S
C2955 C2959 1.495 . S
C2956 C2955 1.392 . S
C2956 C2957 1.385 . S
C2956 C2958 1.478 . S
C2957 H2951 0.930 . S
C2957 C2953 1.400 . S
C2957 C2956 1.385 . S
C2958 C2956 1.478 . S
C2958 C2960 1.381 . S
C2958 C2964 1.383 . S
C2959 C2955 1.495 . S
C2959 H2965 0.959 . S
C2959 H2966 0.961 . S
C2959 H2967 0.960 . S
C2960 C2958 1.381 . S
C2960 C2961 1.394 . S
C2960 H2968 0.930 . S
C2961 C2960 1.394 . S
C2961 C2962 1.383 . S
C2961 H2969 0.929 . S
C2962 C2961 1.383 . S
C2962 C2963 1.377 . S
C2963 H2947 0.930 . S
C2963 C2962 1.377 . S
C2963 C2964 1.379 . S
C2964 H2948 0.931 . S
C2964 C2958 1.383 . S
C2964 C2963 1.379 . S
H2965 C2959 0.959 . S
H2966 C2959 0.961 . S
H2967 C2959 0.960 . S
H2968 C2960 0.930 . S
H2969 C2961 0.929 . S
H2970 C2978 0.929 . S
H2971 C2980 0.930 . S
H2972 C2982 0.930 . S
H2973 C2985 0.929 . S
H2974 C2988 0.930 . S
H2975 C2990 0.960 . S
H2976 C2990 0.960 . S
H2977 C2990 0.960 . S
C2978 H2970 0.929 . S
C2978 C2979 1.377 . S
C2978 C2980 1.384 . S
C2979 C2978 1.377 . S
C2979 C2985 1.390 . S
C2980 H2971 0.930 . S
C2980 C2978 1.384 . S
C2980 C2981 1.372 . S
C2981 C2980 1.372 . S
C2981 C2982 1.400 . S
C2981 C2986 1.490 . S
C2982 H2972 0.930 . S
C2982 C2981 1.400 . S
C2982 C2985 1.386 . S
H2983 C2999 0.930 . S
H2984 C3000 0.931 . S
C2985 H2973 0.929 . S
C2985 C2979 1.390 . S
C2985 C2982 1.386 . S
C2986 C2981 1.490 . S
C2986 C2988 1.395 . S
C2986 C2989 1.403 . S
H2987 C2993 0.930 . S
C2988 H2974 0.930 . S
C2988 C2986 1.395 . S
C2988 C2991 1.403 . S
C2989 C2986 1.403 . S
C2989 C2990 1.524 . S
C2989 C2993 1.400 . S
C2990 H2975 0.960 . S
C2990 H2976 0.960 . S
C2990 H2977 0.960 . S
C2990 C2989 1.524 . S
C2991 C2988 1.403 . S
C2991 C2992 1.392 . S
C2991 C2995 1.495 . S
C2992 C2991 1.392 . S
C2992 C2993 1.385 . S
C2992 C2994 1.478 . S
C2993 H2987 0.930 . S
C2993 C2989 1.400 . S
C2993 C2992 1.385 . S
C2994 C2992 1.478 . S
C2994 C2996 1.381 . S
C2994 C3000 1.383 . S
C2995 C2991 1.495 . S
C2995 H3001 0.959 . S
C2995 H3002 0.961 . S
C2995 H3003 0.960 . S
C2996 C2994 1.381 . S
C2996 C2997 1.394 . S
C2996 H3004 0.930 . S
C2997 C2996 1.394 . S
C2997 C2998 1.383 . S
C2997 H3005 0.929 . S
C2998 C2997 1.383 . S
C2998 C2999 1.377 . S
C2999 H2983 0.930 . S
C2999 C2998 1.377 . S
C2999 C3000 1.379 . S
C3000 H2984 0.931 . S
C3000 C2994 1.383 . S
C3000 C2999 1.379 . S
H3001 C2995 0.959 . S
H3002 C2995 0.961 . S
H3003 C2995 0.960 . S
H3004 C2996 0.930 . S
H3005 C2997 0.929 . S
H3006 C3014 0.929 . S
H3007 C3016 0.930 . S
H3008 C3018 0.930 . S
H3009 C3021 0.929 . S
H3010 C3024 0.930 . S
H3011 C3026 0.960 . S
H3012 C3026 0.960 . S
H3013 C3026 0.960 . S
C3014 H3006 0.929 . S
C3014 C3015 1.377 . S
C3014 C3016 1.384 . S
C3015 C3014 1.377 . S
C3015 C3021 1.390 . S
C3016 H3007 0.930 . S
C3016 C3014 1.384 . S
C3016 C3017 1.372 . S
C3017 C3016 1.372 . S
C3017 C3018 1.400 . S
C3017 C3022 1.490 . S
C3018 H3008 0.930 . S
C3018 C3017 1.400 . S
C3018 C3021 1.386 . S
H3019 C3035 0.930 . S
H3020 C3036 0.931 . S
C3021 H3009 0.929 . S
C3021 C3015 1.390 . S
C3021 C3018 1.386 . S
C3022 C3017 1.490 . S
C3022 C3024 1.395 . S
C3022 C3025 1.403 . S
H3023 C3029 0.930 . S
C3024 H3010 0.930 . S
C3024 C3022 1.395 . S
C3024 C3027 1.403 . S
C3025 C3022 1.403 . S
C3025 C3026 1.524 . S
C3025 C3029 1.400 . S
C3026 H3011 0.960 . S
C3026 H3012 0.960 . S
C3026 H3013 0.960 . S
C3026 C3025 1.524 . S
C3027 C3024 1.403 . S
C3027 C3028 1.392 . S
C3027 C3031 1.495 . S
C3028 C3027 1.392 . S
C3028 C3029 1.385 . S
C3028 C3030 1.478 . S
C3029 H3023 0.930 . S
C3029 C3025 1.400 . S
C3029 C3028 1.385 . S
C3030 C3028 1.478 . S
C3030 C3032 1.381 . S
C3030 C3036 1.383 . S
C3031 C3027 1.495 . S
C3031 H3037 0.959 . S
C3031 H3038 0.961 . S
C3031 H3039 0.960 . S
C3032 C3030 1.381 . S
C3032 C3033 1.394 . S
C3032 H3040 0.930 . S
C3033 C3032 1.394 . S
C3033 C3034 1.383 . S
C3033 H3041 0.929 . S
C3034 C3033 1.383 . S
C3034 C3035 1.377 . S
C3035 H3019 0.930 . S
C3035 C3034 1.377 . S
C3035 C3036 1.379 . S
C3036 H3020 0.931 . S
C3036 C3030 1.383 . S
C3036 C3035 1.379 . S
H3037 C3031 0.959 . S
H3038 C3031 0.961 . S
H3039 C3031 0.960 . S
H3040 C3032 0.930 . S
H3041 C3033 0.929 . S
H3042 C3050 0.929 . S
H3043 C3052 0.930 . S
H3044 C3054 0.930 . S
H3045 C3057 0.929 . S
H3046 C3060 0.930 . S
H3047 C3062 0.960 . S
H3048 C3062 0.960 . S
H3049 C3062 0.960 . S
C3050 H3042 0.929 . S
C3050 C3051 1.377 . S
C3050 C3052 1.384 . S
C3051 C3050 1.377 . S
C3051 C3057 1.390 . S
C3052 H3043 0.930 . S
C3052 C3050 1.384 . S
C3052 C3053 1.372 . S
C3053 C3052 1.372 . S
C3053 C3054 1.400 . S
C3053 C3058 1.490 . S
C3054 H3044 0.930 . S
C3054 C3053 1.400 . S
C3054 C3057 1.386 . S
H3055 C3071 0.930 . S
H3056 C3072 0.931 . S
C3057 H3045 0.929 . S
C3057 C3051 1.390 . S
C3057 C3054 1.386 . S
C3058 C3053 1.490 . S
C3058 C3060 1.395 . S
C3058 C3061 1.403 . S
H3059 C3065 0.930 . S
C3060 H3046 0.930 . S
C3060 C3058 1.395 . S
C3060 C3063 1.403 . S
C3061 C3058 1.403 . S
C3061 C3062 1.524 . S
C3061 C3065 1.400 . S
C3062 H3047 0.960 . S
C3062 H3048 0.960 . S
C3062 H3049 0.960 . S
C3062 C3061 1.524 . S
C3063 C3060 1.403 . S
C3063 C3064 1.392 . S
C3063 C3067 1.495 . S
C3064 C3063 1.392 . S
C3064 C3065 1.385 . S
C3064 C3066 1.478 . S
C3065 H3059 0.930 . S
C3065 C3061 1.400 . S
C3065 C3064 1.385 . S
C3066 C3064 1.478 . S
C3066 C3068 1.381 . S
C3066 C3072 1.383 . S
C3067 C3063 1.495 . S
C3067 H3073 0.959 . S
C3067 H3074 0.961 . S
C3067 H3075 0.960 . S
C3068 C3066 1.381 . S
C3068 C3069 1.394 . S
C3068 H3076 0.930 . S
C3069 C3068 1.394 . S
C3069 C3070 1.383 . S
C3069 H3077 0.929 . S
C3070 C3069 1.383 . S
C3070 C3071 1.377 . S
C3071 H3055 0.930 . S
C3071 C3070 1.377 . S
C3071 C3072 1.379 . S
C3072 H3056 0.931 . S
C3072 C3066 1.383 . S
C3072 C3071 1.379 . S
H3073 C3067 0.959 . S
H3074 C3067 0.961 . S
H3075 C3067 0.960 . S
H3076 C3068 0.930 . S
H3077 C3069 0.929 . S
H3078 C3086 0.929 . S
H3079 C3088 0.930 . S
H3080 C3090 0.930 . S
H3081 C3093 0.929 . S
H3082 C3096 0.930 . S
H3083 C3098 0.960 . S
H3084 C3098 0.960 . S
H3085 C3098 0.960 . S
C3086 H3078 0.929 . S
C3086 C3087 1.377 . S
C3086 C3088 1.384 . S
C3087 C3086 1.377 . S
C3087 C3093 1.390 . S
C3088 H3079 0.930 . S
C3088 C3086 1.384 . S
C3088 C3089 1.372 . S
C3089 C3088 1.372 . S
C3089 C3090 1.400 . S
C3089 C3094 1.490 . S
C3090 H3080 0.930 . S
C3090 C3089 1.400 . S
C3090 C3093 1.386 . S
H3091 C3107 0.930 . S
H3092 C3108 0.931 . S
C3093 H3081 0.929 . S
C3093 C3087 1.390 . S
C3093 C3090 1.386 . S
C3094 C3089 1.490 . S
C3094 C3096 1.395 . S
C3094 C3097 1.403 . S
H3095 C3101 0.930 . S
C3096 H3082 0.930 . S
C3096 C3094 1.395 . S
C3096 C3099 1.403 . S
C3097 C3094 1.403 . S
C3097 C3098 1.524 . S
C3097 C3101 1.400 . S
C3098 H3083 0.960 . S
C3098 H3084 0.960 . S
C3098 H3085 0.960 . S
C3098 C3097 1.524 . S
C3099 C3096 1.403 . S
C3099 C3100 1.392 . S
C3099 C3103 1.495 . S
C3100 C3099 1.392 . S
C3100 C3101 1.385 . S
C3100 C3102 1.478 . S
C3101 H3095 0.930 . S
C3101 C3097 1.400 . S
C3101 C3100 1.385 . S
C3102 C3100 1.478 . S
C3102 C3104 1.381 . S
C3102 C3108 1.383 . S
C3103 C3099 1.495 . S
C3103 H3109 0.959 . S
C3103 H3110 0.961 . S
C3103 H3111 0.960 . S
C3104 C3102 1.381 . S
C3104 C3105 1.394 . S
C3104 H3112 0.930 . S
C3105 C3104 1.394 . S
C3105 C3106 1.383 . S
C3105 H3113 0.929 . S
C3106 C3105 1.383 . S
C3106 C3107 1.377 . S
C3107 H3091 0.930 . S
C3107 C3106 1.377 . S
C3107 C3108 1.379 . S
C3108 H3092 0.931 . S
C3108 C3102 1.383 . S
C3108 C3107 1.379 . S
H3109 C3103 0.959 . S
H3110 C3103 0.961 . S
H3111 C3103 0.960 . S
H3112 C3104 0.930 . S
H3113 C3105 0.929 . S
H3114 C3122 0.929 . S
H3115 C3124 0.930 . S
H3116 C3126 0.930 . S
H3117 C3129 0.929 1_545 S
H3118 C3132 0.930 . S
H3119 C3134 0.960 . S
H3120 C3134 0.960 . S
H3121 C3134 0.960 . S
C3122 H3114 0.929 . S
C3122 C3123 1.377 . S
C3122 C3124 1.384 . S
C3123 C3122 1.377 . S
C3123 C3129 1.390 . S
C3124 H3115 0.930 . S
C3124 C3122 1.384 . S
C3124 C3125 1.372 . S
C3125 C3124 1.372 . S
C3125 C3126 1.400 . S
C3125 C3130 1.490 . S
C3126 H3116 0.930 . S
C3126 C3125 1.400 . S
C3126 C3129 1.386 . S
H3127 C3143 0.930 . S
H3128 C3144 0.931 . S
C3129 H3117 0.929 1_565 S
C3129 C3123 1.390 . S
C3129 C3126 1.386 . S
C3130 C3125 1.490 . S
C3130 C3132 1.395 . S
C3130 C3133 1.403 . S
H3131 C3137 0.930 . S
C3132 H3118 0.930 . S
C3132 C3130 1.395 . S
C3132 C3135 1.403 . S
C3133 C3130 1.403 . S
C3133 C3134 1.524 . S
C3133 C3137 1.400 . S
C3134 H3119 0.960 . S
C3134 H3120 0.960 . S
C3134 H3121 0.960 . S
C3134 C3133 1.524 . S
C3135 C3132 1.403 . S
C3135 C3136 1.392 . S
C3135 C3139 1.495 . S
C3136 C3135 1.392 . S
C3136 C3137 1.385 . S
C3136 C3138 1.478 . S
C3137 H3131 0.930 . S
C3137 C3133 1.400 . S
C3137 C3136 1.385 . S
C3138 C3136 1.478 . S
C3138 C3140 1.381 . S
C3138 C3144 1.383 . S
C3139 C3135 1.495 . S
C3139 H3145 0.959 . S
C3139 H3146 0.961 . S
C3139 H3147 0.960 . S
C3140 C3138 1.381 . S
C3140 C3141 1.394 . S
C3140 H3148 0.930 . S
C3141 C3140 1.394 . S
C3141 C3142 1.383 . S
C3141 H3149 0.929 . S
C3142 C3141 1.383 . S
C3142 C3143 1.377 . S
C3143 H3127 0.930 . S
C3143 C3142 1.377 . S
C3143 C3144 1.379 . S
C3144 H3128 0.931 . S
C3144 C3138 1.383 . S
C3144 C3143 1.379 . S
H3145 C3139 0.959 . S
H3146 C3139 0.961 . S
H3147 C3139 0.960 . S
H3148 C3140 0.930 . S
H3149 C3141 0.929 . S
H3150 C3158 0.929 . S
H3151 C3160 0.930 . S
H3152 C3162 0.930 . S
H3153 C3165 0.929 . S
H3154 C3168 0.930 . S
H3155 C3170 0.960 . S
H3156 C3170 0.960 . S
H3157 C3170 0.960 . S
C3158 H3150 0.929 . S
C3158 C3159 1.377 . S
C3158 C3160 1.384 . S
C3159 C3158 1.377 . S
C3159 C3165 1.390 . S
C3160 H3151 0.930 . S
C3160 C3158 1.384 . S
C3160 C3161 1.372 . S
C3161 C3160 1.372 . S
C3161 C3162 1.400 . S
C3161 C3166 1.490 . S
C3162 H3152 0.930 . S
C3162 C3161 1.400 . S
C3162 C3165 1.386 . S
H3163 C3179 0.930 . S
H3164 C3180 0.931 . S
C3165 H3153 0.929 . S
C3165 C3159 1.390 . S
C3165 C3162 1.386 . S
C3166 C3161 1.490 . S
C3166 C3168 1.395 . S
C3166 C3169 1.403 . S
H3167 C3173 0.930 . S
C3168 H3154 0.930 . S
C3168 C3166 1.395 . S
C3168 C3171 1.403 . S
C3169 C3166 1.403 . S
C3169 C3170 1.524 . S
C3169 C3173 1.400 . S
C3170 H3155 0.960 . S
C3170 H3156 0.960 . S
C3170 H3157 0.960 . S
C3170 C3169 1.524 . S
C3171 C3168 1.403 . S
C3171 C3172 1.392 . S
C3171 C3175 1.495 . S
C3172 C3171 1.392 . S
C3172 C3173 1.385 . S
C3172 C3174 1.478 . S
C3173 H3167 0.930 . S
C3173 C3169 1.400 . S
C3173 C3172 1.385 . S
C3174 C3172 1.478 . S
C3174 C3176 1.381 . S
C3174 C3180 1.383 . S
C3175 C3171 1.495 . S
C3175 H3181 0.915 1_455 S
C3175 H3182 0.961 . S
C3175 H3183 0.960 1_455 S
C3176 C3174 1.381 . S
C3176 C3177 1.394 . S
C3176 H3184 0.930 . S
C3177 C3176 1.394 . S
C3177 C3178 1.383 . S
C3177 H3185 0.929 1_455 S
C3178 C3177 1.383 . S
C3178 C3179 1.377 . S
C3179 H3163 0.930 . S
C3179 C3178 1.377 . S
C3179 C3180 1.379 . S
C3180 H3164 0.931 . S
C3180 C3174 1.383 . S
C3180 C3179 1.379 . S
H3181 C3175 0.915 1_655 S
H3182 C3175 0.961 . S
H3183 C3175 0.960 1_655 S
H3184 C3176 0.930 . S
H3185 C3177 0.929 1_655 S
H3186 C3194 0.929 . S
H3187 C3196 0.930 . S
H3188 C3198 0.930 . S
H3189 C3201 0.929 . S
H3190 C3204 0.930 . S
H3191 C3206 0.960 . S
H3192 C3206 0.960 . S
H3193 C3206 0.960 . S
C3194 H3186 0.929 . S
C3194 C3195 1.377 . S
C3194 C3196 1.384 . S
C3195 C3194 1.377 . S
C3195 C3201 1.390 . S
C3196 H3187 0.930 . S
C3196 C3194 1.384 . S
C3196 C3197 1.372 . S
C3197 C3196 1.372 . S
C3197 C3198 1.400 . S
C3197 C3202 1.490 . S
C3198 H3188 0.930 . S
C3198 C3197 1.400 . S
C3198 C3201 1.386 . S
H3199 C3215 0.930 . S
H3200 C3216 0.931 . S
C3201 H3189 0.929 . S
C3201 C3195 1.390 . S
C3201 C3198 1.386 . S
C3202 C3197 1.490 . S
C3202 C3204 1.395 . S
C3202 C3205 1.403 . S
H3203 C3209 0.930 . S
C3204 H3190 0.930 . S
C3204 C3202 1.395 . S
C3204 C3207 1.403 . S
C3205 C3202 1.403 . S
C3205 C3206 1.524 . S
C3205 C3209 1.400 . S
C3206 H3191 0.960 . S
C3206 H3192 0.960 . S
C3206 H3193 0.960 . S
C3206 C3205 1.524 . S
C3207 C3204 1.403 . S
C3207 C3208 1.392 . S
C3207 C3211 1.495 . S
C3208 C3207 1.392 . S
C3208 C3209 1.385 . S
C3208 C3210 1.478 . S
C3209 H3203 0.930 . S
C3209 C3205 1.400 . S
C3209 C3208 1.385 . S
C3210 C3208 1.478 . S
C3210 C3212 1.381 . S
C3210 C3216 1.383 . S
C3211 C3207 1.495 . S
C3211 H3217 0.959 . S
C3211 H3218 0.961 . S
C3211 H3219 0.960 . S
C3212 C3210 1.381 . S
C3212 C3213 1.394 . S
C3212 H3220 0.930 . S
C3213 C3212 1.394 . S
C3213 C3214 1.383 . S
C3213 H3221 0.929 . S
C3214 C3213 1.383 . S
C3214 C3215 1.377 . S
C3215 H3199 0.930 . S
C3215 C3214 1.377 . S
C3215 C3216 1.379 . S
C3216 H3200 0.931 . S
C3216 C3210 1.383 . S
C3216 C3215 1.379 . S
H3217 C3211 0.959 . S
H3218 C3211 0.961 . S
H3219 C3211 0.960 . S
H3220 C3212 0.930 . S
H3221 C3213 0.929 . S
H3222 C3230 0.929 . S
H3223 C3232 0.930 . S
H3224 C3234 0.930 . S
H3225 C3237 0.929 . S
H3226 C3240 0.930 . S
H3227 C3242 0.960 . S
H3228 C3242 0.960 . S
H3229 C3242 0.960 . S
C3230 H3222 0.929 . S
C3230 C3231 1.377 . S
C3230 C3232 1.384 . S
C3231 C3230 1.377 . S
C3231 C3237 1.390 . S
C3232 H3223 0.930 . S
C3232 C3230 1.384 . S
C3232 C3233 1.372 . S
C3233 C3232 1.372 . S
C3233 C3234 1.400 . S
C3233 C3238 1.490 . S
C3234 H3224 0.930 . S
C3234 C3233 1.400 . S
C3234 C3237 1.386 . S
H3235 C3251 0.934 1_565 S
H3236 C3252 0.931 . S
C3237 H3225 0.929 . S
C3237 C3231 1.390 . S
C3237 C3234 1.386 . S
C3238 C3233 1.490 . S
C3238 C3240 1.395 . S
C3238 C3241 1.403 . S
H3239 C3245 0.930 . S
C3240 H3226 0.930 . S
C3240 C3238 1.395 . S
C3240 C3243 1.403 . S
C3241 C3238 1.403 . S
C3241 C3242 1.524 . S
C3241 C3245 1.400 . S
C3242 H3227 0.960 . S
C3242 H3228 0.960 . S
C3242 H3229 0.960 . S
C3242 C3241 1.524 . S
C3243 C3240 1.403 . S
C3243 C3244 1.392 . S
C3243 C3247 1.495 . S
C3244 C3243 1.392 . S
C3244 C3245 1.385 . S
C3244 C3246 1.478 . S
C3245 H3239 0.930 . S
C3245 C3241 1.400 . S
C3245 C3244 1.385 . S
C3246 C3244 1.478 . S
C3246 C3248 1.381 . S
C3246 C3252 1.383 . S
C3247 C3243 1.495 . S
C3247 H3253 0.959 . S
C3247 H3254 0.961 . S
C3247 H3255 0.960 . S
C3248 C3246 1.381 . S
C3248 C3249 1.394 . S
C3248 H3256 0.930 . S
C3249 C3248 1.394 . S
C3249 C3250 1.383 . S
C3249 H3257 0.929 . S
C3250 C3249 1.383 . S
C3250 C3251 1.377 . S
C3251 H3235 0.934 1_545 S
C3251 C3250 1.377 . S
C3251 C3252 1.379 . S
C3252 H3236 0.931 . S
C3252 C3246 1.383 . S
C3252 C3251 1.379 . S
H3253 C3247 0.959 . S
H3254 C3247 0.961 . S
H3255 C3247 0.960 . S
H3256 C3248 0.930 . S
H3257 C3249 0.929 . S
H3258 C3266 0.929 . S
H3259 C3268 0.930 . S
H3260 C3270 0.930 . S
H3261 C3273 0.929 . S
H3262 C3276 0.930 . S
H3263 C3278 0.960 . S
H3264 C3278 0.960 . S
H3265 C3278 0.960 . S
C3266 H3258 0.929 . S
C3266 C3267 1.377 . S
C3266 C3268 1.384 . S
C3267 C3266 1.377 . S
C3267 C3273 1.390 . S
C3268 H3259 0.930 . S
C3268 C3266 1.384 . S
C3268 C3269 1.372 . S
C3269 C3268 1.372 . S
C3269 C3270 1.400 . S
C3269 C3274 1.490 . S
C3270 H3260 0.930 . S
C3270 C3269 1.400 . S
C3270 C3273 1.386 . S
H3271 C3287 0.930 . S
H3272 C3288 0.931 . S
C3273 H3261 0.929 . S
C3273 C3267 1.390 . S
C3273 C3270 1.386 . S
C3274 C3269 1.490 . S
C3274 C3276 1.395 . S
C3274 C3277 1.403 . S
H3275 C3281 0.930 . S
C3276 H3262 0.930 . S
C3276 C3274 1.395 . S
C3276 C3279 1.403 . S
C3277 C3274 1.403 . S
C3277 C3278 1.524 . S
C3277 C3281 1.400 . S
C3278 H3263 0.960 . S
C3278 H3264 0.960 . S
C3278 H3265 0.960 . S
C3278 C3277 1.524 . S
C3279 C3276 1.403 . S
C3279 C3280 1.392 . S
C3279 C3283 1.495 . S
C3280 C3279 1.392 . S
C3280 C3281 1.385 . S
C3280 C3282 1.478 . S
C3281 H3275 0.930 . S
C3281 C3277 1.400 . S
C3281 C3280 1.385 . S
C3282 C3280 1.478 . S
C3282 C3284 1.381 . S
C3282 C3288 1.383 . S
C3283 C3279 1.495 . S
C3283 H3289 0.959 . S
C3283 H3290 0.961 . S
C3283 H3291 0.960 . S
C3284 C3282 1.381 . S
C3284 C3285 1.394 . S
C3284 H3292 0.930 . S
C3285 C3284 1.394 . S
C3285 C3286 1.383 . S
C3285 H3293 0.929 1_655 S
C3286 C3285 1.383 . S
C3286 C3287 1.377 . S
C3287 H3271 0.930 . S
C3287 C3286 1.377 . S
C3287 C3288 1.379 . S
C3288 H3272 0.931 . S
C3288 C3282 1.383 . S
C3288 C3287 1.379 . S
H3289 C3283 0.959 . S
H3290 C3283 0.961 . S
H3291 C3283 0.960 . S
H3292 C3284 0.930 . S
H3293 C3285 0.929 1_455 S
H3294 C3302 0.929 . S
H3295 C3304 0.930 . S
H3296 C3306 0.930 . S
H3297 C3309 0.929 . S
H3298 C3312 0.930 . S
H3299 C3314 0.960 . S
H3300 C3314 0.960 . S
H3301 C3314 0.960 . S
C3302 H3294 0.929 . S
C3302 C3303 1.377 . S
C3302 C3304 1.384 1_655 S
C3303 C3302 1.377 . S
C3303 C3309 1.390 . S
C3304 H3295 0.930 . S
C3304 C3302 1.384 1_455 S
C3304 C3305 1.372 . S
C3305 C3304 1.372 . S
C3305 C3306 1.400 . S
C3305 C3310 1.490 . S
C3306 H3296 0.930 . S
C3306 C3305 1.400 . S
C3306 C3309 1.386 1_455 S
H3307 C3323 0.930 . S
H3308 C3324 0.931 . S
C3309 H3297 0.929 . S
C3309 C3303 1.390 . S
C3309 C3306 1.386 1_655 S
C3310 C3305 1.490 . S
C3310 C3312 1.395 . S
C3310 C3313 1.403 . S
H3311 C3317 0.930 . S
C3312 H3298 0.930 . S
C3312 C3310 1.395 . S
C3312 C3315 1.403 . S
C3313 C3310 1.403 . S
C3313 C3314 1.524 . S
C3313 C3317 1.400 . S
C3314 H3299 0.960 . S
C3314 H3300 0.960 . S
C3314 H3301 0.960 . S
C3314 C3313 1.524 . S
C3315 C3312 1.403 . S
C3315 C3316 1.392 . S
C3315 C3319 1.495 . S
C3316 C3315 1.392 . S
C3316 C3317 1.385 . S
C3316 C3318 1.478 . S
C3317 H3311 0.930 . S
C3317 C3313 1.400 . S
C3317 C3316 1.385 . S
C3318 C3316 1.478 . S
C3318 C3320 1.381 . S
C3318 C3324 1.383 . S
C3319 C3315 1.495 . S
C3319 H3325 0.959 . S
C3319 H3326 0.961 . S
C3319 H3327 0.960 . S
C3320 C3318 1.381 . S
C3320 C3321 1.394 . S
C3320 H3328 0.930 . S
C3321 C3320 1.394 . S
C3321 C3322 1.383 . S
C3321 H3329 0.929 . S
C3322 C3321 1.383 . S
C3322 C3323 1.377 . S
C3323 H3307 0.930 . S
C3323 C3322 1.377 . S
C3323 C3324 1.379 . S
C3324 H3308 0.931 . S
C3324 C3318 1.383 . S
C3324 C3323 1.379 . S
H3325 C3319 0.959 . S
H3326 C3319 0.961 . S
H3327 C3319 0.960 . S
H3328 C3320 0.930 . S
H3329 C3321 0.929 . S
H3330 C3338 0.929 . S
H3331 C3340 0.930 . S
H3332 C3342 0.930 . S
H3333 C3345 0.929 . S
H3334 C3348 0.930 . S
H3335 C3350 0.960 . S
H3336 C3350 0.960 . S
H3337 C3350 0.960 . S
C3338 H3330 0.929 . S
C3338 C3339 1.377 . S
C3338 C3340 1.384 . S
C3339 C3338 1.377 . S
C3339 C3345 1.390 . S
C3340 H3331 0.930 . S
C3340 C3338 1.384 . S
C3340 C3341 1.372 . S
C3341 C3340 1.372 . S
C3341 C3342 1.400 . S
C3341 C3346 1.490 . S
C3342 H3332 0.930 . S
C3342 C3341 1.400 . S
C3342 C3345 1.386 . S
H3343 C3359 0.930 . S
H3344 C3360 0.931 . S
C3345 H3333 0.929 . S
C3345 C3339 1.390 . S
C3345 C3342 1.386 . S
C3346 C3341 1.490 . S
C3346 C3348 1.395 . S
C3346 C3349 1.403 . S
H3347 C3353 0.930 . S
C3348 H3334 0.930 . S
C3348 C3346 1.395 . S
C3348 C3351 1.403 . S
C3349 C3346 1.403 . S
C3349 C3350 1.524 . S
C3349 C3353 1.400 . S
C3350 H3335 0.960 . S
C3350 H3336 0.960 . S
C3350 H3337 0.960 . S
C3350 C3349 1.524 . S
C3351 C3348 1.403 . S
C3351 C3352 1.392 . S
C3351 C3355 1.495 . S
C3352 C3351 1.392 . S
C3352 C3353 1.385 . S
C3352 C3354 1.478 . S
C3353 H3347 0.930 . S
C3353 C3349 1.400 . S
C3353 C3352 1.385 . S
C3354 C3352 1.478 . S
C3354 C3356 1.381 . S
C3354 C3360 1.383 . S
C3355 C3351 1.495 . S
C3355 H3361 0.959 . S
C3355 H3362 0.961 . S
C3355 H3363 0.960 . S
C3356 C3354 1.381 . S
C3356 C3357 1.394 . S
C3356 H3364 0.930 . S
C3357 C3356 1.394 . S
C3357 C3358 1.383 . S
C3357 H3365 0.929 . S
C3358 C3357 1.383 . S
C3358 C3359 1.377 . S
C3359 H3343 0.930 . S
C3359 C3358 1.377 . S
C3359 C3360 1.379 . S
C3360 H3344 0.931 . S
C3360 C3354 1.383 . S
C3360 C3359 1.379 . S
H3361 C3355 0.959 . S
H3362 C3355 0.961 . S
H3363 C3355 0.960 . S
H3364 C3356 0.930 . S
H3365 C3357 0.929 . S
H3366 C3374 0.929 . S
H3367 C3376 0.930 . S
H3368 C3378 0.930 . S
H3369 C3381 0.929 . S
H3370 C3384 0.930 . S
H3371 C3386 0.960 . S
H3372 C3386 0.960 . S
H3373 C3386 0.960 . S
C3374 H3366 0.929 . S
C3374 C3375 1.377 . S
C3374 C3376 1.384 1_545 S
C3375 C3374 1.377 . S
C3375 C3381 1.390 . S
C3376 H3367 0.930 . S
C3376 C3374 1.384 1_565 S
C3376 C3377 1.372 . S
C3377 C3376 1.372 . S
C3377 C3378 1.400 . S
C3377 C3382 1.490 . S
C3378 H3368 0.930 . S
C3378 C3377 1.400 . S
C3378 C3381 1.386 1_565 S
H3379 C3395 0.930 . S
H3380 C3396 0.931 . S
C3381 H3369 0.929 . S
C3381 C3375 1.390 . S
C3381 C3378 1.386 1_545 S
C3382 C3377 1.490 . S
C3382 C3384 1.395 . S
C3382 C3385 1.403 . S
H3383 C3389 0.930 . S
C3384 H3370 0.930 . S
C3384 C3382 1.395 . S
C3384 C3387 1.403 . S
C3385 C3382 1.403 . S
C3385 C3386 1.524 . S
C3385 C3389 1.400 . S
C3386 H3371 0.960 . S
C3386 H3372 0.960 . S
C3386 H3373 0.960 . S
C3386 C3385 1.524 . S
C3387 C3384 1.403 . S
C3387 C3388 1.392 . S
C3387 C3391 1.495 . S
C3388 C3387 1.392 . S
C3388 C3389 1.385 . S
C3388 C3390 1.478 . S
C3389 H3383 0.930 . S
C3389 C3385 1.400 . S
C3389 C3388 1.385 . S
C3390 C3388 1.478 . S
C3390 C3392 1.381 . S
C3390 C3396 1.383 . S
C3391 C3387 1.495 . S
C3391 H3397 0.959 . S
C3391 H3398 0.961 . S
C3391 H3399 0.960 . S
C3392 C3390 1.381 . S
C3392 C3393 1.394 . S
C3392 H3400 0.930 . S
C3393 C3392 1.394 . S
C3393 C3394 1.383 . S
C3393 H3401 0.929 . S
C3394 C3393 1.383 . S
C3394 C3395 1.377 . S
C3395 H3379 0.930 . S
C3395 C3394 1.377 . S
C3395 C3396 1.379 . S
C3396 H3380 0.931 . S
C3396 C3390 1.383 . S
C3396 C3395 1.379 . S
H3397 C3391 0.959 . S
H3398 C3391 0.961 . S
H3399 C3391 0.960 . S
H3400 C3392 0.930 . S
H3401 C3393 0.929 . S
H3402 C3410 0.929 . S
H3403 C3412 0.930 . S
H3404 C3414 0.930 . S
H3405 C3417 0.929 . S
H3406 C3420 0.930 . S
H3407 C3422 0.960 . S
H3408 C3422 0.960 . S
H3409 C3422 0.960 . S
C3410 H3402 0.929 . S
C3410 C3411 1.377 . S
C3410 C3412 1.384 . S
C3411 C3410 1.377 . S
C3411 C3417 1.390 . S
C3412 H3403 0.930 . S
C3412 C3410 1.384 . S
C3412 C3413 1.372 . S
C3413 C3412 1.372 . S
C3413 C3414 1.400 . S
C3413 C3418 1.490 . S
C3414 H3404 0.930 . S
C3414 C3413 1.400 . S
C3414 C3417 1.386 . S
H3415 C3431 0.930 . S
H3416 C3432 0.931 . S
C3417 H3405 0.929 . S
C3417 C3411 1.390 . S
C3417 C3414 1.386 . S
C3418 C3413 1.490 . S
C3418 C3420 1.395 . S
C3418 C3421 1.403 . S
H3419 C3425 0.930 . S
C3420 H3406 0.930 . S
C3420 C3418 1.395 . S
C3420 C3423 1.403 . S
C3421 C3418 1.403 . S
C3421 C3422 1.524 . S
C3421 C3425 1.400 . S
C3422 H3407 0.960 . S
C3422 H3408 0.960 . S
C3422 H3409 0.960 . S
C3422 C3421 1.524 . S
C3423 C3420 1.403 . S
C3423 C3424 1.392 . S
C3423 C3427 1.495 . S
C3424 C3423 1.392 . S
C3424 C3425 1.385 . S
C3424 C3426 1.478 . S
C3425 H3419 0.930 . S
C3425 C3421 1.400 . S
C3425 C3424 1.385 . S
C3426 C3424 1.478 . S
C3426 C3428 1.381 . S
C3426 C3432 1.383 . S
C3427 C3423 1.495 . S
C3427 H3433 0.959 . S
C3427 H3434 0.961 . S
C3427 H3435 0.960 . S
C3428 C3426 1.381 . S
C3428 C3429 1.394 . S
C3428 H3436 0.930 . S
C3429 C3428 1.394 . S
C3429 C3430 1.383 . S
C3429 H3437 0.929 . S
C3430 C3429 1.383 . S
C3430 C3431 1.377 . S
C3431 H3415 0.930 . S
C3431 C3430 1.377 . S
C3431 C3432 1.379 . S
C3432 H3416 0.931 . S
C3432 C3426 1.383 . S
C3432 C3431 1.379 . S
H3433 C3427 0.959 . S
H3434 C3427 0.961 . S
H3435 C3427 0.960 . S
H3436 C3428 0.930 . S
H3437 C3429 0.929 . S
H3438 C3446 0.929 . S
H3439 C3448 0.930 . S
H3440 C3450 0.930 . S
H3441 C3453 0.929 . S
H3442 C3456 0.930 . S
H3443 C3458 0.960 . S
H3444 C3458 0.960 . S
H3445 C3458 0.960 . S
C3446 H3438 0.929 . S
C3446 C3447 1.377 . S
C3446 C3448 1.384 . S
C3447 C3446 1.377 . S
C3447 C3453 1.390 . S
C3448 H3439 0.930 . S
C3448 C3446 1.384 . S
C3448 C3449 1.372 . S
C3449 C3448 1.372 . S
C3449 C3450 1.400 . S
C3449 C3454 1.490 . S
C3450 H3440 0.930 . S
C3450 C3449 1.400 . S
C3450 C3453 1.386 . S
H3451 C3467 0.930 . S
H3452 C3468 0.931 . S
C3453 H3441 0.929 . S
C3453 C3447 1.390 . S
C3453 C3450 1.386 . S
C3454 C3449 1.490 . S
C3454 C3456 1.395 . S
C3454 C3457 1.403 . S
H3455 C3461 0.930 . S
C3456 H3442 0.930 . S
C3456 C3454 1.395 . S
C3456 C3459 1.403 . S
C3457 C3454 1.403 . S
C3457 C3458 1.524 . S
C3457 C3461 1.400 . S
C3458 H3443 0.960 . S
C3458 H3444 0.960 . S
C3458 H3445 0.960 . S
C3458 C3457 1.524 . S
C3459 C3456 1.403 . S
C3459 C3460 1.392 . S
C3459 C3463 1.495 . S
C3460 C3459 1.392 . S
C3460 C3461 1.385 . S
C3460 C3462 1.478 . S
C3461 H3455 0.930 . S
C3461 C3457 1.400 . S
C3461 C3460 1.385 . S
C3462 C3460 1.478 . S
C3462 C3464 1.381 . S
C3462 C3468 1.383 . S
C3463 C3459 1.495 . S
C3463 H3469 0.959 . S
C3463 H3470 0.961 . S
C3463 H3471 0.960 . S
C3464 C3462 1.381 . S
C3464 C3465 1.394 . S
C3464 H3472 0.930 . S
C3465 C3464 1.394 . S
C3465 C3466 1.383 . S
C3465 H3473 0.929 . S
C3466 C3465 1.383 . S
C3466 C3467 1.377 . S
C3467 H3451 0.930 . S
C3467 C3466 1.377 . S
C3467 C3468 1.379 . S
C3468 H3452 0.931 . S
C3468 C3462 1.383 . S
C3468 C3467 1.379 . S
H3469 C3463 0.959 . S
H3470 C3463 0.961 . S
H3471 C3463 0.960 . S
H3472 C3464 0.930 . S
H3473 C3465 0.929 . S
H3474 C3482 0.929 . S
H3475 C3484 0.930 . S
H3476 C3486 0.930 . S
H3477 C3489 0.929 . S
H3478 C3492 0.930 . S
H3479 C3494 0.960 . S
H3480 C3494 0.960 . S
H3481 C3494 0.960 . S
C3482 H3474 0.929 . S
C3482 C3483 1.377 . S
C3482 C3484 1.384 . S
C3483 C3482 1.377 . S
C3483 C3489 1.390 . S
C3484 H3475 0.930 . S
C3484 C3482 1.384 . S
C3484 C3485 1.372 . S
C3485 C3484 1.372 . S
C3485 C3486 1.400 . S
C3485 C3490 1.490 . S
C3486 H3476 0.930 . S
C3486 C3485 1.400 . S
C3486 C3489 1.386 . S
H3487 C3503 0.930 . S
H3488 C3504 0.931 . S
C3489 H3477 0.929 . S
C3489 C3483 1.390 . S
C3489 C3486 1.386 . S
C3490 C3485 1.490 . S
C3490 C3492 1.395 . S
C3490 C3493 1.403 . S
H3491 C3497 0.930 . S
C3492 H3478 0.930 . S
C3492 C3490 1.395 . S
C3492 C3495 1.403 . S
C3493 C3490 1.403 . S
C3493 C3494 1.524 . S
C3493 C3497 1.400 . S
C3494 H3479 0.960 . S
C3494 H3480 0.960 . S
C3494 H3481 0.960 . S
C3494 C3493 1.524 . S
C3495 C3492 1.403 . S
C3495 C3496 1.392 . S
C3495 C3499 1.495 . S
C3496 C3495 1.392 . S
C3496 C3497 1.385 . S
C3496 C3498 1.478 . S
C3497 H3491 0.930 . S
C3497 C3493 1.400 . S
C3497 C3496 1.385 . S
C3498 C3496 1.478 . S
C3498 C3500 1.381 . S
C3498 C3504 1.383 . S
C3499 C3495 1.495 . S
C3499 H3505 0.959 . S
C3499 H3506 0.961 . S
C3499 H3507 0.960 . S
C3500 C3498 1.381 . S
C3500 C3501 1.394 . S
C3500 H3508 0.930 . S
C3501 C3500 1.394 . S
C3501 C3502 1.383 . S
C3501 H3509 0.929 . S
C3502 C3501 1.383 . S
C3502 C3503 1.377 . S
C3503 H3487 0.930 . S
C3503 C3502 1.377 . S
C3503 C3504 1.379 . S
C3504 H3488 0.931 . S
C3504 C3498 1.383 . S
C3504 C3503 1.379 . S
H3505 C3499 0.959 . S
H3506 C3499 0.961 . S
H3507 C3499 0.960 . S
H3508 C3500 0.930 . S
H3509 C3501 0.929 . S
H3510 C3518 0.929 . S
H3511 C3520 0.930 . S
H3512 C3522 0.930 . S
H3513 C3525 0.929 . S
H3514 C3528 0.930 . S
H3515 C3530 0.960 . S
H3516 C3530 0.960 . S
H3517 C3530 0.960 . S
C3518 H3510 0.929 . S
C3518 C3519 1.377 . S
C3518 C3520 1.384 . S
C3519 C3518 1.377 . S
C3519 C3525 1.390 . S
C3520 H3511 0.930 . S
C3520 C3518 1.384 . S
C3520 C3521 1.372 . S
C3521 C3520 1.372 . S
C3521 C3522 1.400 . S
C3521 C3526 1.490 . S
C3522 H3512 0.930 . S
C3522 C3521 1.400 . S
C3522 C3525 1.386 . S
H3523 C3539 0.930 . S
H3524 C3540 0.931 . S
C3525 H3513 0.929 . S
C3525 C3519 1.390 . S
C3525 C3522 1.386 . S
C3526 C3521 1.490 . S
C3526 C3528 1.395 . S
C3526 C3529 1.403 . S
H3527 C3533 0.930 . S
C3528 H3514 0.930 . S
C3528 C3526 1.395 . S
C3528 C3531 1.403 . S
C3529 C3526 1.403 . S
C3529 C3530 1.524 . S
C3529 C3533 1.400 . S
C3530 H3515 0.960 . S
C3530 H3516 0.960 . S
C3530 H3517 0.960 . S
C3530 C3529 1.524 . S
C3531 C3528 1.403 . S
C3531 C3532 1.392 . S
C3531 C3535 1.495 . S
C3532 C3531 1.392 . S
C3532 C3533 1.385 . S
C3532 C3534 1.478 . S
C3533 H3527 0.930 . S
C3533 C3529 1.400 . S
C3533 C3532 1.385 . S
C3534 C3532 1.478 . S
C3534 C3536 1.381 . S
C3534 C3540 1.383 . S
C3535 C3531 1.495 . S
C3535 H3541 0.959 . S
C3535 H3542 0.961 . S
C3535 H3543 0.960 . S
C3536 C3534 1.381 . S
C3536 C3537 1.394 . S
C3536 H3544 0.930 . S
C3537 C3536 1.394 . S
C3537 C3538 1.383 . S
C3537 H3545 0.929 . S
C3538 C3537 1.383 . S
C3538 C3539 1.377 . S
C3539 H3523 0.930 . S
C3539 C3538 1.377 . S
C3539 C3540 1.379 . S
C3540 H3524 0.931 . S
C3540 C3534 1.383 . S
C3540 C3539 1.379 . S
H3541 C3535 0.959 . S
H3542 C3535 0.961 . S
H3543 C3535 0.960 . S
H3544 C3536 0.930 . S
H3545 C3537 0.929 . S
H3546 C3554 0.929 . S
H3547 C3556 0.930 . S
H3548 C3558 0.930 . S
H3549 C3561 0.929 . S
H3550 C3564 0.930 . S
H3551 C3566 0.960 . S
H3552 C3566 0.960 . S
H3553 C3566 0.960 . S
C3554 H3546 0.929 . S
C3554 C3555 1.377 . S
C3554 C3556 1.384 . S
C3555 C3554 1.377 . S
C3555 C3561 1.390 . S
C3556 H3547 0.930 . S
C3556 C3554 1.384 . S
C3556 C3557 1.372 . S
C3557 C3556 1.372 . S
C3557 C3558 1.400 . S
C3557 C3562 1.490 . S
C3558 H3548 0.930 . S
C3558 C3557 1.400 . S
C3558 C3561 1.386 . S
H3559 C3575 0.930 . S
H3560 C3576 0.931 . S
C3561 H3549 0.929 . S
C3561 C3555 1.390 . S
C3561 C3558 1.386 . S
C3562 C3557 1.490 . S
C3562 C3564 1.395 . S
C3562 C3565 1.403 . S
H3563 C3569 0.930 . S
C3564 H3550 0.930 . S
C3564 C3562 1.395 . S
C3564 C3567 1.403 . S
C3565 C3562 1.403 . S
C3565 C3566 1.524 . S
C3565 C3569 1.400 . S
C3566 H3551 0.960 . S
C3566 H3552 0.960 . S
C3566 H3553 0.960 . S
C3566 C3565 1.524 . S
C3567 C3564 1.403 . S
C3567 C3568 1.392 . S
C3567 C3571 1.495 . S
C3568 C3567 1.392 . S
C3568 C3569 1.385 . S
C3568 C3570 1.478 . S
C3569 H3563 0.930 . S
C3569 C3565 1.400 . S
C3569 C3568 1.385 . S
C3570 C3568 1.478 . S
C3570 C3572 1.381 . S
C3570 C3576 1.383 . S
C3571 C3567 1.495 . S
C3571 H3577 0.959 . S
C3571 H3578 0.961 . S
C3571 H3579 0.960 . S
C3572 C3570 1.381 . S
C3572 C3573 1.394 . S
C3572 H3580 0.930 . S
C3573 C3572 1.394 . S
C3573 C3574 1.383 . S
C3573 H3581 0.929 . S
C3574 C3573 1.383 . S
C3574 C3575 1.377 . S
C3575 H3559 0.930 . S
C3575 C3574 1.377 . S
C3575 C3576 1.379 . S
C3576 H3560 0.931 . S
C3576 C3570 1.383 . S
C3576 C3575 1.379 . S
H3577 C3571 0.959 . S
H3578 C3571 0.961 . S
H3579 C3571 0.960 . S
H3580 C3572 0.930 . S
H3581 C3573 0.929 . S
H3582 C3590 0.929 . S
H3583 C3592 0.930 . S
H3584 C3594 0.930 . S
H3585 C3597 0.929 . S
H3586 C3600 0.930 . S
H3587 C3602 0.960 . S
H3588 C3602 0.960 . S
H3589 C3602 0.960 . S
C3590 H3582 0.929 . S
C3590 C3591 1.377 . S
C3590 C3592 1.384 . S
C3591 C3590 1.377 . S
C3591 C3597 1.390 . S
C3592 H3583 0.930 . S
C3592 C3590 1.384 . S
C3592 C3593 1.372 . S
C3593 C3592 1.372 . S
C3593 C3594 1.400 . S
C3593 C3598 1.490 . S
C3594 H3584 0.930 . S
C3594 C3593 1.400 . S
C3594 C3597 1.386 . S
H3595 C3611 0.930 . S
H3596 C3612 0.931 . S
C3597 H3585 0.929 . S
C3597 C3591 1.390 . S
C3597 C3594 1.386 . S
C3598 C3593 1.490 . S
C3598 C3600 1.395 . S
C3598 C3601 1.403 . S
H3599 C3605 0.930 . S
C3600 H3586 0.930 . S
C3600 C3598 1.395 . S
C3600 C3603 1.403 . S
C3601 C3598 1.403 . S
C3601 C3602 1.524 . S
C3601 C3605 1.400 . S
C3602 H3587 0.960 . S
C3602 H3588 0.960 . S
C3602 H3589 0.960 . S
C3602 C3601 1.524 . S
C3603 C3600 1.403 . S
C3603 C3604 1.392 . S
C3603 C3607 1.495 . S
C3604 C3603 1.392 . S
C3604 C3605 1.385 . S
C3604 C3606 1.478 . S
C3605 H3599 0.930 . S
C3605 C3601 1.400 . S
C3605 C3604 1.385 . S
C3606 C3604 1.478 . S
C3606 C3608 1.381 . S
C3606 C3612 1.383 . S
C3607 C3603 1.495 . S
C3607 H3613 0.959 . S
C3607 H3614 0.961 . S
C3607 H3615 0.960 . S
C3608 C3606 1.381 . S
C3608 C3609 1.394 . S
C3608 H3616 0.930 . S
C3609 C3608 1.394 . S
C3609 C3610 1.383 . S
C3609 H3617 0.929 . S
C3610 C3609 1.383 . S
C3610 C3611 1.377 . S
C3611 H3595 0.930 . S
C3611 C3610 1.377 . S
C3611 C3612 1.379 . S
C3612 H3596 0.931 . S
C3612 C3606 1.383 . S
C3612 C3611 1.379 . S
H3613 C3607 0.959 . S
H3614 C3607 0.961 . S
H3615 C3607 0.960 . S
H3616 C3608 0.930 . S
H3617 C3609 0.929 . S
H3618 C3626 0.929 . S
H3619 C3628 0.930 . S
H3620 C3630 0.930 . S
H3621 C3633 0.929 . S
H3622 C3636 0.930 . S
H3623 C3638 0.960 . S
H3624 C3638 0.960 . S
H3625 C3638 0.960 . S
C3626 H3618 0.929 . S
C3626 C3627 1.377 . S
C3626 C3628 1.384 1_455 S
C3627 C3626 1.377 . S
C3627 C3633 1.390 . S
C3628 H3619 0.930 . S
C3628 C3626 1.384 1_655 S
C3628 C3629 1.372 . S
C3629 C3628 1.372 . S
C3629 C3630 1.400 . S
C3629 C3634 1.490 . S
C3630 H3620 0.930 . S
C3630 C3629 1.400 . S
C3630 C3633 1.386 1_655 S
H3631 C3647 0.930 . S
H3632 C3648 0.931 . S
C3633 H3621 0.929 . S
C3633 C3627 1.390 . S
C3633 C3630 1.386 1_455 S
C3634 C3629 1.490 . S
C3634 C3636 1.395 . S
C3634 C3637 1.403 . S
H3635 C3641 0.930 . S
C3636 H3622 0.930 . S
C3636 C3634 1.395 . S
C3636 C3639 1.403 . S
C3637 C3634 1.403 . S
C3637 C3638 1.524 . S
C3637 C3641 1.400 . S
C3638 H3623 0.960 . S
C3638 H3624 0.960 . S
C3638 H3625 0.960 . S
C3638 C3637 1.524 . S
C3639 C3636 1.403 . S
C3639 C3640 1.392 . S
C3639 C3643 1.495 . S
C3640 C3639 1.392 . S
C3640 C3641 1.385 . S
C3640 C3642 1.478 . S
C3641 H3635 0.930 . S
C3641 C3637 1.400 . S
C3641 C3640 1.385 . S
C3642 C3640 1.478 . S
C3642 C3644 1.381 . S
C3642 C3648 1.383 . S
C3643 C3639 1.495 . S
C3643 H3649 0.959 . S
C3643 H3650 0.961 . S
C3643 H3651 0.960 . S
C3644 C3642 1.381 . S
C3644 C3645 1.394 . S
C3644 H3652 0.930 . S
C3645 C3644 1.394 . S
C3645 C3646 1.383 . S
C3645 H3653 0.929 . S
C3646 C3645 1.383 . S
C3646 C3647 1.377 . S
C3647 H3631 0.930 . S
C3647 C3646 1.377 . S
C3647 C3648 1.379 . S
C3648 H3632 0.931 . S
C3648 C3642 1.383 . S
C3648 C3647 1.379 . S
H3649 C3643 0.959 . S
H3650 C3643 0.961 . S
H3651 C3643 0.960 . S
H3652 C3644 0.930 . S
H3653 C3645 0.929 . S
H3654 C3662 0.929 . S
H3655 C3664 0.930 . S
H3656 C3666 0.930 . S
H3657 C3669 0.929 . S
H3658 C3672 0.930 . S
H3659 C3674 0.960 . S
H3660 C3674 0.960 . S
H3661 C3674 0.960 . S
C3662 H3654 0.929 . S
C3662 C3663 1.377 . S
C3662 C3664 1.384 . S
C3663 C3662 1.377 . S
C3663 C3669 1.390 . S
C3664 H3655 0.930 . S
C3664 C3662 1.384 . S
C3664 C3665 1.372 . S
C3665 C3664 1.372 . S
C3665 C3666 1.400 . S
C3665 C3670 1.490 . S
C3666 H3656 0.930 . S
C3666 C3665 1.400 . S
C3666 C3669 1.386 . S
H3667 C3683 0.930 . S
H3668 C3684 0.931 . S
C3669 H3657 0.929 . S
C3669 C3663 1.390 . S
C3669 C3666 1.386 . S
C3670 C3665 1.490 . S
C3670 C3672 1.395 . S
C3670 C3673 1.403 . S
H3671 C3677 0.930 . S
C3672 H3658 0.930 . S
C3672 C3670 1.395 . S
C3672 C3675 1.403 . S
C3673 C3670 1.403 . S
C3673 C3674 1.524 . S
C3673 C3677 1.400 . S
C3674 H3659 0.960 . S
C3674 H3660 0.960 . S
C3674 H3661 0.960 . S
C3674 C3673 1.524 . S
C3675 C3672 1.403 . S
C3675 C3676 1.392 . S
C3675 C3679 1.495 . S
C3676 C3675 1.392 . S
C3676 C3677 1.385 . S
C3676 C3678 1.478 . S
C3677 H3671 0.930 . S
C3677 C3673 1.400 . S
C3677 C3676 1.385 . S
C3678 C3676 1.478 . S
C3678 C3680 1.381 . S
C3678 C3684 1.383 . S
C3679 C3675 1.495 . S
C3679 H3685 0.959 . S
C3679 H3686 0.961 . S
C3679 H3687 0.960 . S
C3680 C3678 1.381 . S
C3680 C3681 1.394 . S
C3680 H3688 0.930 . S
C3681 C3680 1.394 . S
C3681 C3682 1.383 . S
C3681 H3689 0.929 . S
C3682 C3681 1.383 . S
C3682 C3683 1.377 . S
C3683 H3667 0.930 . S
C3683 C3682 1.377 . S
C3683 C3684 1.379 . S
C3684 H3668 0.931 . S
C3684 C3678 1.383 . S
C3684 C3683 1.379 . S
H3685 C3679 0.959 . S
H3686 C3679 0.961 . S
H3687 C3679 0.960 . S
H3688 C3680 0.930 . S
H3689 C3681 0.929 . S
H3690 C3698 0.929 . S
H3691 C3700 0.930 . S
H3692 C3702 0.930 . S
H3693 C3705 0.929 . S
H3694 C3708 0.930 . S
H3695 C3710 0.960 . S
H3696 C3710 0.960 . S
H3697 C3710 0.960 . S
C3698 H3690 0.929 . S
C3698 C3699 1.377 . S
C3698 C3700 1.384 . S
C3699 C3698 1.377 . S
C3699 C3705 1.390 . S
C3700 H3691 0.930 . S
C3700 C3698 1.384 . S
C3700 C3701 1.372 . S
C3701 C3700 1.372 . S
C3701 C3702 1.400 . S
C3701 C3706 1.490 . S
C3702 H3692 0.930 . S
C3702 C3701 1.400 . S
C3702 C3705 1.386 . S
H3703 C3719 0.930 . S
H3704 C3720 0.931 . S
C3705 H3693 0.929 . S
C3705 C3699 1.390 . S
C3705 C3702 1.386 . S
C3706 C3701 1.490 . S
C3706 C3708 1.395 . S
C3706 C3709 1.403 . S
H3707 C3713 0.930 . S
C3708 H3694 0.930 . S
C3708 C3706 1.395 . S
C3708 C3711 1.403 . S
C3709 C3706 1.403 . S
C3709 C3710 1.524 . S
C3709 C3713 1.400 . S
C3710 H3695 0.960 . S
C3710 H3696 0.960 . S
C3710 H3697 0.960 . S
C3710 C3709 1.524 . S
C3711 C3708 1.403 . S
C3711 C3712 1.392 . S
C3711 C3715 1.495 . S
C3712 C3711 1.392 . S
C3712 C3713 1.385 . S
C3712 C3714 1.478 . S
C3713 H3707 0.930 . S
C3713 C3709 1.400 . S
C3713 C3712 1.385 . S
C3714 C3712 1.478 . S
C3714 C3716 1.381 . S
C3714 C3720 1.383 . S
C3715 C3711 1.495 . S
C3715 H3721 0.959 . S
C3715 H3722 0.961 . S
C3715 H3723 0.960 . S
C3716 C3714 1.381 . S
C3716 C3717 1.394 1_545 S
C3716 H3724 0.930 . S
C3717 C3716 1.394 1_565 S
C3717 C3718 1.383 . S
C3717 H3725 0.929 . S
C3718 C3717 1.383 . S
C3718 C3719 1.377 . S
C3719 H3703 0.930 . S
C3719 C3718 1.377 . S
C3719 C3720 1.379 1_565 S
C3720 H3704 0.931 . S
C3720 C3714 1.383 . S
C3720 C3719 1.379 1_545 S
H3721 C3715 0.959 . S
H3722 C3715 0.961 . S
H3723 C3715 0.960 . S
H3724 C3716 0.930 . S
H3725 C3717 0.929 . S
C1467 C1233 1.548 . S
C1486 C18 1.516 . S
C1503 C99 1.551 . S
C1522 C1314 1.524 . S
C1539 C1395 1.544 . S
C1558 C180 1.553 . S
C1575 C504 1.552 . S
C1594 C261 1.525 . S
C1611 C342 1.554 . S
C1630 C585 1.577 . S
C1647 C423 1.554 . S
C1666 C666 1.540 . S
C1683 C990 1.545 . S
C1702 C747 1.559 . S
C1719 C828 1.548 . S
C1738 C1071 1.516 . S
C1755 C909 1.543 . S
C1774 C1152 1.545 . S
C1791 C619 0.703 . S
C1810 C59 0.523 . S
C1827 C700 0.744 . S
C1846 C140 0.692 . S
C1863 C538 0.709 . S
C1882 C221 0.544 . S
C1899 C302 0.595 . S
C1918 C1348 0.804 . S
C1935 C1429 0.721 . S
C1954 C383 0.559 . S
C1971 C464 0.632 . S
C1990 C1267 0.659 . S
C2007 C1105 0.705 . S
C2026 C545 0.542 . S
C2043 C1186 0.704 . S
C2062 C626 0.538 . S
C2079 C1024 0.705 . S
C2098 C707 0.530 . S
C2115 C376 0.711 . S
C2134 C788 0.701 . S
C2151 C869 0.630 . S
C2170 C457 0.699 . S
C2187 C950 0.601 . S
C2206 C295 0.825 . S
C2223 C133 0.744 . S
C2242 C1031 0.695 . S
C2259 C1112 0.632 . S
C2278 C214 0.824 . S
C2295 C52 0.708 . S
C2314 C1193 0.541 . S
C2331 C862 0.711 . S
C2350 C1274 0.603 . S
C2367 C1355 0.628 . S
C2386 C943 0.723 . S
C2403 C1436 0.621 . S
C2422 C781 0.628 . S
C2439 C374 3.361 . S
C2458 C37 3.144 . S
C2475 C455 3.360 . S
C2494 C118 3.118 . S
C2511 C293 3.362 . S
C2530 C199 3.153 . S
C2547 C131 3.363 . S
C2566 C280 3.119 . S
C2583 C361 3.139 . S
C2602 C212 3.360 . S
C2619 C442 3.138 . S
C2638 C50 3.360 . S
C2655 C860 3.362 . S
C2674 C523 3.156 . S
C2691 C604 3.143 . S
C2710 C941 3.361 . S
C2727 C779 3.361 . S
C2746 C685 3.124 . S
C2763 C766 3.145 . S
C2782 C617 3.352 . S
C2799 C698 3.361 . S
C2818 C847 3.145 . S
C2835 C928 3.137 . S
C2854 C536 3.361 . S
C2871 C1346 3.361 . S
C2890 C1009 3.146 . S
C2907 C1090 3.144 . S
C2926 C1427 3.355 . S
C2943 C1171 3.141 . S
C2962 C1265 3.359 . S
C2979 C1103 3.361 . S
C2998 C1252 3.141 . S
C3015 C1184 3.361 . S
C3034 C1333 3.146 . S
C3051 C1414 3.138 . S
C3070 C1022 3.360 . S
C3087 C34 1.471 . S
C3106 C907 1.431 . S
C3123 C745 1.460 . S
C3142 C115 1.465 . S
C3159 C196 1.477 . S
C3178 C826 1.418 . S
C3195 C277 1.470 . S
C3214 C1150 1.483 . S
C3231 C358 1.480 . S
C3250 C988 1.418 . S
C3267 C439 1.469 . S
C3286 C1069 1.479 . S
C3303 C520 1.480 . S
C3322 C1393 1.455 . S
C3339 C601 1.469 . S
C3358 C1231 1.452 . S
C3375 C682 1.470 . S
C3394 C1312 1.476 . S
C3411 C178 1.446 . S
C3430 C763 1.495 . S
C3447 C16 1.447 . S
C3466 C844 1.498 . S
C3483 C925 1.478 . S
C3502 C97 1.458 . S
C3519 C421 1.448 . S
C3538 C1006 1.457 . S
C3555 C1087 1.473 . S
C3574 C259 1.420 . S
C3591 C340 1.448 . S
C3610 C1168 1.464 . S
C3627 C1249 1.469 . S
C3646 C664 1.459 . S
C3663 C1330 1.477 . S
C3682 C502 1.463 . S
C3699 C583 1.454 . S
C3718 C1411 1.491 . S
