# Generated by pormake.
# Topology und, (4)-cn, num edge types: 1
# Building blocks:
#     Node 0, Type 0, BuildingBlock: QUQFOY_clean_sbu_1, # of connection points: 4
#     Node 1, Type 0, BuildingBlock: QUQFOY_clean_sbu_1, # of connection points: 4
#     Node 2, Type 0, BuildingBlock: QUQFOY_clean_sbu_1, # of connection points: 4
#     Node 3, Type 0, BuildingBlock: QUQFOY_clean_sbu_1, # of connection points: 4
#     Node 4, Type 0, BuildingBlock: QUQFOY_clean_sbu_1, # of connection points: 4
#     Node 5, Type 0, BuildingBlock: QUQFOY_clean_sbu_1, # of connection points: 4
#     Node 6, Type 0, BuildingBlock: QUQFOY_clean_sbu_1, # of connection points: 4
#     Node 7, Type 0, BuildingBlock: QUQFOY_clean_sbu_1, # of connection points: 4
#     Node 8, Type 0, BuildingBlock: QUQFOY_clean_sbu_1, # of connection points: 4
#     Node 9, Type 0, BuildingBlock: QUQFOY_clean_sbu_1, # of connection points: 4
#     Node 10, Type 0, BuildingBlock: QUQFOY_clean_sbu_1, # of connection points: 4
#     Node 11, Type 0, BuildingBlock: QUQFOY_clean_sbu_1, # of connection points: 4
#     Node 12, Type 0, BuildingBlock: QUQFOY_clean_sbu_1, # of connection points: 4
#     Node 13, Type 0, BuildingBlock: QUQFOY_clean_sbu_1, # of connection points: 4
#     Node 14, Type 0, BuildingBlock: QUQFOY_clean_sbu_1, # of connection points: 4
#     Node 15, Type 0, BuildingBlock: QUQFOY_clean_sbu_1, # of connection points: 4
#     Edge 16, Type (0, 0), BuildingBlock: XIVTED_clean_linker_0, # of connection points: 2
#     Edge 17, Type (0, 0), BuildingBlock: XIVTED_clean_linker_0, # of connection points: 2
#     Edge 18, Type (0, 0), BuildingBlock: XIVTED_clean_linker_0, # of connection points: 2
#     Edge 19, Type (0, 0), BuildingBlock: XIVTED_clean_linker_0, # of connection points: 2
#     Edge 20, Type (0, 0), BuildingBlock: XIVTED_clean_linker_0, # of connection points: 2
#     Edge 21, Type (0, 0), BuildingBlock: XIVTED_clean_linker_0, # of connection points: 2
#     Edge 22, Type (0, 0), BuildingBlock: XIVTED_clean_linker_0, # of connection points: 2
#     Edge 23, Type (0, 0), BuildingBlock: XIVTED_clean_linker_0, # of connection points: 2
#     Edge 24, Type (0, 0), BuildingBlock: XIVTED_clean_linker_0, # of connection points: 2
#     Edge 25, Type (0, 0), BuildingBlock: XIVTED_clean_linker_0, # of connection points: 2
#     Edge 26, Type (0, 0), BuildingBlock: XIVTED_clean_linker_0, # of connection points: 2
#     Edge 27, Type (0, 0), BuildingBlock: XIVTED_clean_linker_0, # of connection points: 2
#     Edge 28, Type (0, 0), BuildingBlock: XIVTED_clean_linker_0, # of connection points: 2
#     Edge 29, Type (0, 0), BuildingBlock: XIVTED_clean_linker_0, # of connection points: 2
#     Edge 30, Type (0, 0), BuildingBlock: XIVTED_clean_linker_0, # of connection points: 2
#     Edge 31, Type (0, 0), BuildingBlock: XIVTED_clean_linker_0, # of connection points: 2
#     Edge 32, Type (0, 0), BuildingBlock: XIVTED_clean_linker_0, # of connection points: 2
#     Edge 33, Type (0, 0), BuildingBlock: XIVTED_clean_linker_0, # of connection points: 2
#     Edge 34, Type (0, 0), BuildingBlock: XIVTED_clean_linker_0, # of connection points: 2
#     Edge 35, Type (0, 0), BuildingBlock: XIVTED_clean_linker_0, # of connection points: 2
#     Edge 36, Type (0, 0), BuildingBlock: XIVTED_clean_linker_0, # of connection points: 2
#     Edge 37, Type (0, 0), BuildingBlock: XIVTED_clean_linker_0, # of connection points: 2
#     Edge 38, Type (0, 0), BuildingBlock: XIVTED_clean_linker_0, # of connection points: 2
#     Edge 39, Type (0, 0), BuildingBlock: XIVTED_clean_linker_0, # of connection points: 2
#     Edge 40, Type (0, 0), BuildingBlock: XIVTED_clean_linker_0, # of connection points: 2
#     Edge 41, Type (0, 0), BuildingBlock: XIVTED_clean_linker_0, # of connection points: 2
#     Edge 42, Type (0, 0), BuildingBlock: XIVTED_clean_linker_0, # of connection points: 2
#     Edge 43, Type (0, 0), BuildingBlock: XIVTED_clean_linker_0, # of connection points: 2
#     Edge 44, Type (0, 0), BuildingBlock: XIVTED_clean_linker_0, # of connection points: 2
#     Edge 45, Type (0, 0), BuildingBlock: XIVTED_clean_linker_0, # of connection points: 2
#     Edge 46, Type (0, 0), BuildingBlock: XIVTED_clean_linker_0, # of connection points: 2
#     Edge 47, Type (0, 0), BuildingBlock: XIVTED_clean_linker_0, # of connection points: 2
# Relax obj value: 0.048
# Max RMSD: 0.109
# Mean RMSD: 0.091
data_MOF--net-und--node1-QUQFOY_clean_sbu_1--edge1-XIVTED_clean_linker_0
_symmetry_space_group_name_H-M    P1
_symmetry_Int_Tables_number       1
_symmetry_cell_setting            triclinic
loop_
_symmetry_equiv_pos_as_xyz
'x, y, z'
_cell_length_a     61.907326
_cell_length_b     61.921255
_cell_length_c     23.174737
_cell_angle_alpha  90.041852
_cell_angle_beta   90.028715
_cell_angle_gamma 94.338706
loop_
_atom_site_label
_atom_site_type_symbol
_atom_site_fract_x
_atom_site_fract_y
_atom_site_fract_z
_atom_type_partial_charge
O0 O 0.2732 0.36619 0.93512 0.0
Cd1 Cd 0.27339 0.38726 0.00378 0.0
Cd2 Cd 0.2397 0.40011 0.9485 0.0
O3 O 0.2399 0.37062 0.90641 0.0
O4 O 0.29143 0.3738 0.0631 0.0
O5 O 0.25622 0.37677 0.07295 0.0
C6 C 0.27388 0.36958 0.09227 0.0
C7 C 0.21081 0.41116 0.00278 0.0
C8 C 0.257 0.36047 0.90353 0.0
C9 C 0.27983 0.42995 0.94804 0.0
O10 O 0.26232 0.42422 0.92166 0.0
O11 O 0.2862 0.4186 0.98956 0.0
O12 O 0.21053 0.41201 0.94707 0.0
O13 O 0.22712 0.4031 0.02734 0.0
O14 O 0.89558 0.05546 0.30675 0.0
Cd15 Cd 0.91991 0.07894 0.2861 0.0
Cd16 Cd 0.93566 0.04616 0.23046 0.0
O17 O 0.90594 0.03037 0.24731 0.0
O18 O 0.90717 0.10762 0.2901 0.0
O19 O 0.91811 0.09314 0.20879 0.0
C20 C 0.90907 0.10861 0.23464 0.0
C21 C 0.95293 0.04615 0.1414 0.0
C22 C 0.89253 0.0368 0.28386 0.0
C23 C 0.96067 0.0634 0.33298 0.0
O24 O 0.95709 0.04788 0.29768 0.0
O25 O 0.94858 0.07916 0.33308 0.0
O26 O 0.95014 0.02875 0.17186 0.0
O27 O 0.94448 0.06332 0.15973 0.0
O28 O 0.25591 0.74655 0.43574 0.0
Cd29 Cd 0.25564 0.72522 0.50374 0.0
Cd30 Cd 0.28943 0.71261 0.44849 0.0
O31 O 0.28926 0.74225 0.40734 0.0
O32 O 0.23787 0.73863 0.56376 0.0
O33 O 0.27305 0.7353 0.57297 0.0
C34 C 0.25552 0.74262 0.59274 0.0
C35 C 0.31849 0.70125 0.50171 0.0
C36 C 0.27216 0.7524 0.40453 0.0
C37 C 0.24922 0.6828 0.44653 0.0
O38 O 0.26681 0.68863 0.42072 0.0
O39 O 0.24275 0.69397 0.48833 0.0
O40 O 0.31861 0.70073 0.44597 0.0
O41 O 0.30223 0.70915 0.52696 0.0
O42 O 0.63298 0.05664 0.80494 0.0
Cd43 Cd 0.60865 0.03312 0.78449 0.0
Cd44 Cd 0.5928 0.06589 0.72886 0.0
O45 O 0.6225 0.08178 0.74588 0.0
O46 O 0.62145 1.00444 0.78774 0.0
O47 O 0.6102 0.01905 0.70695 0.0
C48 C 0.61935 1.00355 0.7323 0.0
C49 C 0.57551 0.06568 0.63975 0.0
C50 C 0.63597 0.07532 0.78225 0.0
C51 C 0.56789 0.04859 0.83143 0.0
O52 O 0.57139 0.06407 0.79602 0.0
O53 O 0.58004 0.03288 0.83165 0.0
O54 O 0.57815 0.08312 0.67016 0.0
O55 O 0.58414 0.04863 0.65814 0.0
O56 O 0.7857 0.75093 0.93334 0.0
Cd57 Cd 0.79039 0.72947 -0.00086 0.0
Cd58 Cd 0.74827 0.72475 -0.00786 0.0
O59 O 0.7518 0.74014 0.9134 0.0
O60 O 0.82086 0.72185 0.98952 0.0
O61 O 0.79254 0.69826 0.97715 0.0
C62 C 0.81326 0.7027 0.97428 0.0
C63 C 0.72486 0.69444 0.0117 0.0
C64 C 0.769 0.75186 0.90178 0.0
C65 C 0.76756 0.74832 0.09524 0.0
O66 O 0.75131 0.74486 0.06225 0.0
O67 O 0.78562 0.74114 0.08177 0.0
O68 O 0.71771 0.71282 -0.00162 0.0
O69 O 0.74551 0.69272 0.00887 0.0
O70 O 0.06893 0.03485 0.80594 0.0
Cd71 Cd 0.09036 0.03003 0.74011 0.0
Cd72 Cd 0.09518 0.07212 0.7469 0.0
O73 O 0.07976 0.06876 0.82566 0.0
O74 O 0.09804 0.99959 0.74999 0.0
O75 O 0.1216 0.02795 0.76199 0.0
C76 C 0.1172 1.00724 0.76505 0.0
C77 C 0.12567 0.09519 0.72675 0.0
C78 C 0.06802 0.05158 0.83738 0.0
C79 C 0.07155 0.05282 0.64389 0.0
O80 O 0.07506 0.06908 0.67683 0.0
O81 O 0.07868 0.03475 0.65744 0.0
O82 O 0.10739 0.10256 0.73999 0.0
O83 O 0.12721 0.07453 0.73017 0.0
O84 O 0.74268 0.36058 0.43408 0.0
Cd85 Cd 0.73786 0.38205 0.49983 0.0
Cd86 Cd 0.78002 0.38698 0.49298 0.0
O87 O 0.77654 0.37151 0.41425 0.0
O88 O 0.70725 0.38929 0.49046 0.0
O89 O 0.73527 0.41319 0.47769 0.0
C90 C 0.71458 0.40849 0.47509 0.0
C91 C 0.80344 0.4173 0.51256 0.0
C92 C 0.75939 0.3597 0.40259 0.0
C93 C 0.76081 0.36341 0.59604 0.0
O94 O 0.77706 0.36691 0.5631 0.0
O95 O 0.74272 0.3705 0.5825 0.0
O96 O 0.81058 0.39892 0.49924 0.0
O97 O 0.78279 0.41903 0.50971 0.0
O98 O 0.45948 0.07827 0.30337 0.0
Cd99 Cd 0.43801 0.08268 0.23731 0.0
Cd100 Cd 0.43349 0.04058 0.24527 0.0
O101 O 0.44893 0.04438 0.32398 0.0
O102 O 0.43055 0.11325 0.24589 0.0
O103 O 0.40683 0.08513 0.25932 0.0
C104 C 0.41139 0.10584 0.26146 0.0
C105 C 0.40298 0.0175 0.22538 0.0
C106 C 0.46053 0.0617 0.33527 0.0
C107 C 0.45697 0.05952 0.14184 0.0
O108 O 0.45362 0.0434 0.17526 0.0
O109 O 0.44967 0.07758 0.15482 0.0
O110 O 0.42124 1.01013 0.23897 0.0
O111 O 0.40147 0.03817 0.22836 0.0
O112 O 0.77295 0.86286 0.44129 0.0
Cd113 Cd 0.77476 0.88421 0.50871 0.0
Cd114 Cd 0.74226 0.90032 0.45264 0.0
O115 O 0.74189 0.87174 0.40529 0.0
O116 O 0.79214 0.86955 0.56704 0.0
O117 O 0.75762 0.87538 0.57949 0.0
C118 C 0.77476 0.86683 0.59762 0.0
C119 C 0.7127 0.91102 0.5048 0.0
C120 C 0.75751 0.85949 0.40564 0.0
C121 C 0.78455 0.92739 0.45582 0.0
O122 O 0.76594 0.92453 0.43257 0.0
O123 O 0.79077 0.91386 0.49235 0.0
O124 O 0.71364 0.91322 0.44941 0.0
O125 O 0.72817 0.90181 0.53014 0.0
O126 O 0.39626 0.55699 0.81611 0.0
Cd127 Cd 0.42055 0.57943 0.78936 0.0
Cd128 Cd 0.43275 0.54581 0.7327 0.0
O129 O 0.4013 0.53336 0.74717 0.0
O130 O 0.40907 0.60878 0.79226 0.0
O131 O 0.41739 0.59244 0.71109 0.0
C132 C 0.40966 0.60875 0.73652 0.0
C133 C 0.45023 0.54559 0.64388 0.0
C134 C 0.3902 0.53967 0.78926 0.0
C135 C 0.46004 0.56137 0.83277 0.0
O136 O 0.45397 0.54535 0.8009 0.0
O137 O 0.45016 0.57865 0.83059 0.0
O138 O 0.44582 0.52792 0.67236 0.0
O139 O 0.44332 0.56324 0.66405 0.0
O140 O 0.75585 0.24891 0.94171 0.0
Cd141 Cd 0.75412 0.22747 0.00882 0.0
Cd142 Cd 0.78655 0.21144 0.95241 0.0
O143 O 0.78689 0.2401 0.90555 0.0
O144 O 0.73674 0.24202 0.06733 0.0
O145 O 0.77127 0.23625 0.07972 0.0
C146 C 0.75412 0.24474 0.09795 0.0
C147 C 0.81624 0.20054 0.00372 0.0
C148 C 0.77127 0.25235 0.90608 0.0
C149 C 0.74424 0.18439 0.95524 0.0
O150 O 0.76283 0.18729 0.93196 0.0
O151 O 0.73807 0.19785 -0.00793 0.0
O152 O 0.81515 0.19854 0.94829 0.0
O153 O 0.80084 0.20966 0.02964 0.0
O154 O 0.13221 0.55527 0.31702 0.0
Cd155 Cd 0.108 0.53289 0.28933 0.0
Cd156 Cd 0.09582 0.56681 0.23361 0.0
O157 O 0.12721 0.57931 0.24913 0.0
O158 O 0.11957 0.50354 0.29096 0.0
O159 O 0.11117 0.52031 0.21056 0.0
C160 C 0.11893 0.50387 0.23524 0.0
C161 C 0.07846 0.56713 0.14457 0.0
C162 C 0.13826 0.57277 0.29107 0.0
C163 C 0.0684 0.5507 0.33286 0.0
O164 O 0.07446 0.56684 0.3015 0.0
O165 O 0.07835 0.53347 0.33035 0.0
O166 O 0.08272 0.58477 0.17343 0.0
O167 O 0.0855 0.5495 0.16447 0.0
O168 O 0.28894 0.25435 0.42877 0.0
Cd169 Cd 0.29417 0.23264 0.49365 0.0
Cd170 Cd 0.2519 0.22763 0.48952 0.0
O171 O 0.25482 0.24361 0.41137 0.0
O172 O 0.32418 0.22409 0.48114 0.0
O173 O 0.29505 0.20136 0.47096 0.0
C174 C 0.3158 0.20515 0.46639 0.0
C175 C 0.22796 0.19761 0.50846 0.0
C176 C 0.27189 0.25536 0.39863 0.0
C177 C 0.27227 0.2506 0.59267 0.0
O178 O 0.25567 0.24703 0.56095 0.0
O179 O 0.29034 0.24396 0.57708 0.0
O180 O 0.22117 0.21629 0.49681 0.0
O181 O 0.2485 0.19545 0.50429 0.0
O182 O 0.56569 0.53069 0.30776 0.0
Cd183 Cd 0.58745 0.52541 0.24305 0.0
Cd184 Cd 0.59276 0.56766 0.24768 0.0
O185 O 0.57652 0.56476 0.3255 0.0
O186 O 0.59604 0.49541 0.25551 0.0
O187 O 0.61872 0.52457 0.26592 0.0
C188 C 0.61496 0.50381 0.27036 0.0
C189 C 0.62303 0.59128 0.22905 0.0
C190 C 0.56467 0.54772 0.33797 0.0
C191 C 0.5699 0.54756 0.14394 0.0
O192 O 0.57357 0.5641 0.1758 0.0
O193 O 0.57627 0.52939 0.15955 0.0
O194 O 0.60441 0.59828 0.24042 0.0
O195 O 0.62499 0.57073 0.23354 0.0
O196 O 0.23919 0.85799 0.93011 0.0
Cd197 Cd 0.23438 0.87985 -0.00497 0.0
Cd198 Cd 0.27668 0.88451 0.98976 0.0
O199 O 0.27335 0.86831 0.91191 0.0
O200 O 0.2042 0.88814 0.98386 0.0
O201 O 0.23307 0.91106 0.97202 0.0
C202 C 0.2123 0.90709 0.96854 0.0
C203 C 0.30059 0.91462 0.00799 0.0
C204 C 0.25611 0.85671 0.89964 0.0
C205 C 0.25664 0.86197 0.09369 0.0
O206 O 0.27313 0.8653 0.06151 0.0
O207 O 0.23858 0.8687 0.07845 0.0
O208 O 0.30741 0.89594 -0.0037 0.0
O209 O 0.28003 0.91671 0.00417 0.0
O210 O 0.96291 0.58117 0.80793 0.0
Cd211 Cd 0.94109 0.58626 0.74317 0.0
Cd212 Cd 0.93592 0.54402 0.74817 0.0
O213 O 0.95217 0.54711 0.826 0.0
O214 O 0.93279 0.61641 0.75483 0.0
O215 O 0.90988 0.58749 0.76621 0.0
C216 C 0.91383 0.60825 0.77 0.0
C217 C 0.90556 0.52049 0.72969 0.0
C218 C 0.96398 0.56421 0.83832 0.0
C219 C 0.95864 0.56392 0.64426 0.0
O220 O 0.9551 0.54743 0.67631 0.0
O221 O 0.95218 0.58207 0.6597 0.0
O222 O 0.92414 0.51342 0.74121 0.0
O223 O 0.90369 0.54107 0.73398 0.0
H224 H 0.30863 0.35475 0.14839 0.0
H225 H 0.23699 0.26826 0.33765 0.0
H226 H 0.23871 0.35061 0.14976 0.0
H227 H 0.30642 0.27973 0.35349 0.0
H228 H 0.23717 0.29734 0.26598 0.0
H229 H 0.30801 0.32692 0.22294 0.0
C230 C 0.29313 0.34816 0.16486 0.0
C231 C 0.27369 0.35499 0.14275 0.0
C232 C 0.25235 0.29344 0.28514 0.0
C233 C 0.27285 0.32281 0.22752 0.0
C234 C 0.25228 0.27674 0.32573 0.0
C235 C 0.27172 0.27153 0.35165 0.0
C236 C 0.27201 0.30491 0.27018 0.0
C237 C 0.29103 0.28318 0.33478 0.0
C238 C 0.29279 0.3322 0.20731 0.0
C239 C 0.25409 0.34586 0.1657 0.0
N240 N 0.29067 0.29929 0.29519 0.0
N241 N 0.25416 0.33009 0.20652 0.0
H242 H 0.98667 0.03022 0.34953 0.0
H243 H 0.05486 0.08951 0.60416 0.0
H244 H 0.97579 0.09428 0.4116 0.0
H245 H 0.05668 0.02136 0.56617 0.0
H246 H 0.0294 0.09274 0.52526 0.0
H247 H 0.01546 0.02804 0.42052 0.0
C248 C 0.99037 0.0439 0.37792 0.0
C249 C 0.97867 0.06246 0.37472 0.0
C250 C 0.03541 0.0771 0.53396 0.0
C251 C 1.01177 0.05999 0.45615 0.0
C252 C 0.05004 0.0752 0.57897 0.0
C253 C 0.05782 0.05504 0.59224 0.0
C254 C 0.02848 0.05874 0.5016 0.0
C255 C 0.05105 0.03719 0.55767 0.0
C256 C 1.00683 0.04259 0.41853 0.0
C257 C 0.98428 0.07964 0.41266 0.0
N258 N 0.03667 0.03943 0.51405 0.0
N259 N 1.00042 0.07797 0.45186 0.0
H260 H 0.29098 0.76032 0.65169 0.0
H261 H 0.22108 0.83319 0.85421 0.0
H262 H 0.22115 0.75853 0.64817 0.0
H263 H 0.29067 0.84266 0.83942 0.0
H264 H 0.22104 0.80418 0.78315 0.0
H265 H 0.29141 0.78819 0.72677 0.0
C266 C 0.27572 0.76555 0.66726 0.0
C267 C 0.25599 0.75712 0.6435 0.0
C268 C 0.23633 0.81264 0.79522 0.0
C269 C 0.2564 0.78916 0.72881 0.0
C270 C 0.23637 0.82927 0.83575 0.0
C271 C 0.25592 0.84043 0.85282 0.0
C272 C 0.256 0.80694 0.77165 0.0
C273 C 0.27521 0.83458 0.82734 0.0
C274 C 0.276 0.78159 0.70977 0.0
C275 C 0.23674 0.7646 0.66511 0.0
N276 N 0.27478 0.81816 0.78819 0.0
N277 N 0.23744 0.78023 0.70635 0.0
H278 H 0.47401 0.02282 0.10325 0.0
H279 H 0.54162 0.08161 0.84726 0.0
H280 H 0.47152 0.09071 0.06322 0.0
H281 H 0.55301 0.01787 0.91064 0.0
H282 H 0.51283 0.08382 0.91812 0.0
H283 H 0.49948 0.01946 0.02449 0.0
C284 C 0.47868 0.03704 0.07764 0.0
C285 C 0.47071 0.05717 0.09029 0.0
C286 C 0.52158 0.06933 0.91645 0.0
C287 C 0.50006 0.05333 -0.00018 0.0
C288 C 0.53803 0.068 0.87592 0.0
C289 C 0.54987 0.04952 0.87311 0.0
C290 C 0.51677 0.05203 0.95443 0.0
C291 C 0.5444 0.03245 0.91138 0.0
C292 C 0.49331 0.03507 0.03271 0.0
C293 C 0.47729 0.07492 0.05521 0.0
N294 N 0.52825 0.03413 0.95053 0.0
N295 N 0.49169 0.0726 0.01169 0.0
H296 H 0.22449 0.84589 0.16784 0.0
H297 H 0.3041 0.77157 0.33544 0.0
H298 H 0.29359 0.84803 0.13987 0.0
H299 H 0.23675 0.77476 0.3806 0.0
H300 H 0.30057 0.80052 0.26534 0.0
H301 H 0.22858 0.82097 0.24866 0.0
C302 C 0.24051 0.84133 0.17903 0.0
C303 C 0.25867 0.8489 0.14662 0.0
C304 C 0.28658 0.79498 0.29083 0.0
C305 C 0.26345 0.82031 0.23847 0.0
C306 C 0.2886 0.7784 0.3308 0.0
C307 C 0.27068 0.77062 0.36375 0.0
C308 C 0.26646 0.80375 0.28337 0.0
C309 C 0.251 0.78019 0.35602 0.0
C310 C 0.24285 0.82707 0.22505 0.0
C311 C 0.27907 0.84246 0.16314 0.0
N312 N 0.24937 0.79614 0.31638 0.0
N313 N 0.28086 0.82844 0.20749 0.0
H314 H 0.48308 0.0973 0.38052 0.0
H315 H 0.55912 0.02982 0.58019 0.0
H316 H 0.47539 0.02765 0.39592 0.0
H317 H 0.5582 0.09943 0.58535 0.0
H318 H 0.53089 0.02852 0.50589 0.0
H319 H 0.51234 0.09816 0.45092 0.0
C320 C 0.48744 0.08217 0.39904 0.0
C321 C 0.47673 0.06236 0.38229 0.0
C322 C 0.53698 0.04407 0.52308 0.0
C323 C 0.51052 0.06323 0.46263 0.0
C324 C 0.55323 0.04485 0.56508 0.0
C325 C 0.56097 0.06477 0.58911 0.0
C326 C 0.52855 0.06336 0.50482 0.0
C327 C 0.55265 0.08371 0.56819 0.0
C328 C 0.50422 0.08268 0.43917 0.0
C329 C 0.48312 0.04329 0.40782 0.0
N330 N 0.53686 0.08253 0.52744 0.0
N331 N 0.4997 0.04419 0.44653 0.0
H332 H 0.30459 0.26707 0.66599 0.0
H333 H 0.22508 0.34138 0.83407 0.0
H334 H 0.23539 0.26451 0.63925 0.0
H335 H 0.29246 0.33824 0.87915 0.0
H336 H 0.22861 0.31247 0.76374 0.0
H337 H 0.30061 0.29219 0.74653 0.0
C338 C 0.28857 0.27158 0.67738 0.0
C339 C 0.27035 0.26382 0.64542 0.0
C340 C 0.24261 0.31802 0.78925 0.0
C341 C 0.2657 0.29263 0.73692 0.0
C342 C 0.24059 0.33458 0.82935 0.0
C343 C 0.25851 0.34235 0.86238 0.0
C344 C 0.26273 0.30926 0.78176 0.0
C345 C 0.27821 0.33281 0.85453 0.0
C346 C 0.28631 0.28595 0.72324 0.0
C347 C 0.24996 0.27022 0.66218 0.0
N348 N 0.27983 0.31688 0.81478 0.0
N349 N 0.24823 0.28434 0.70635 0.0
H350 H 0.05431 0.08597 0.89899 0.0
H351 H 0.96883 0.01202 0.08524 0.0
H352 H 0.04439 0.01649 0.88174 0.0
H353 H 0.97071 0.08184 0.0838 0.0
H354 H 0.99691 0.01352 0.01134 0.0
H355 H 0.02488 0.08498 0.96988 0.0
C356 C 0.04611 0.0705 0.9105 0.0
C357 C 0.05183 0.05129 0.88437 0.0
C358 C 0.99108 0.02853 0.02676 0.0
C359 C 0.01806 0.05007 0.96481 0.0
C360 C 0.97497 0.02768 0.06882 0.0
C361 C 0.96744 0.04684 0.09077 0.0
C362 C 0.99994 0.04871 0.00682 0.0
C363 C 0.976 0.06667 0.06792 0.0
C364 C 0.0292 0.06997 0.95057 0.0
C365 C 0.04053 0.03172 0.90062 0.0
N366 N 0.99196 0.06711 0.02752 0.0
N367 N 0.02421 0.03164 0.93971 0.0
H368 H 0.73467 0.7656 0.84002 0.0
H369 H 0.80886 0.85074 0.65345 0.0
H370 H 0.80417 0.77539 0.85749 0.0
H371 H 0.73904 0.84922 0.65543 0.0
H372 H 0.80729 0.82267 0.72736 0.0
H373 H 0.73576 0.79499 0.76905 0.0
C374 C 0.75016 0.77376 0.82854 0.0
C375 C 0.76936 0.76802 0.85475 0.0
C376 C 0.7923 0.82858 0.71205 0.0
C377 C 0.77068 0.80174 0.77421 0.0
C378 C 0.79319 0.84468 0.66998 0.0
C379 C 0.77405 0.8523 0.64819 0.0
C380 C 0.7721 0.81982 0.73216 0.0
C381 C 0.7542 0.84385 0.67119 0.0
C382 C 0.75075 0.79064 0.78841 0.0
C383 C 0.78895 0.77927 0.83853 0.0
N384 N 0.75372 0.8279 0.71159 0.0
N385 N 0.7891 0.79556 0.79939 0.0
H386 H 0.7938 0.34613 0.34084 0.0
H387 H 0.71997 0.26053 0.15421 0.0
H388 H 0.72434 0.33592 0.35835 0.0
H389 H 0.78981 0.26255 0.1557 0.0
H390 H 0.72143 0.28856 0.22832 0.0
H391 H 0.79285 0.31672 0.26984 0.0
C392 C 0.77834 0.33787 0.32937 0.0
C393 C 0.75912 0.34351 0.35559 0.0
C394 C 0.73646 0.28277 0.21287 0.0
C395 C 0.75796 0.30975 0.27502 0.0
C396 C 0.73562 0.26669 0.17068 0.0
C397 C 0.7548 0.25922 0.14869 0.0
C398 C 0.75663 0.29166 0.23289 0.0
C399 C 0.77463 0.2678 0.17162 0.0
C400 C 0.77784 0.32097 0.28923 0.0
C401 C 0.73957 0.33212 0.33939 0.0
N402 N 0.77505 0.28373 0.21214 0.0
N403 N 0.73951 0.31582 0.30023 0.0
H404 H 0.73824 0.2786 0.89014 0.0
H405 H 0.7975 0.3466 0.63556 0.0
H406 H 0.80208 0.26728 0.82721 0.0
H407 H 0.72941 0.34865 0.67386 0.0
H408 H 0.80073 0.3211 0.71429 0.0
H409 H 0.73613 0.30746 0.81942 0.0
C410 C 0.75189 0.28222 0.86161 0.0
C411 C 0.77037 0.27038 0.86449 0.0
C412 C 0.7851 0.32718 0.7057 0.0
C413 C 0.76797 0.30355 0.78338 0.0
C414 C 0.78321 0.34183 0.66079 0.0
C415 C 0.76306 0.34969 0.64765 0.0
C416 C 0.76675 0.3203 0.73809 0.0
C417 C 0.74522 0.34297 0.68226 0.0
C418 C 0.75062 0.29871 0.82116 0.0
C419 C 0.7875 0.27589 0.8264 0.0
N420 N 0.74746 0.32856 0.72578 0.0
N421 N 0.78587 0.29207 0.78735 0.0
H422 H 0.73096 0.76532 0.13461 0.0
H423 H 0.79048 0.83319 0.38943 0.0
H424 H 0.79902 0.763 0.17313 0.0
H425 H 0.72665 0.84466 0.32663 0.0
H426 H 0.7925 0.80434 0.31856 0.0
H427 H 0.72784 0.79089 0.21333 0.0
C428 C 0.74527 0.77005 0.15988 0.0
C429 C 0.76537 0.7621 0.14682 0.0
C430 C 0.77804 0.81312 0.32036 0.0
C431 C 0.76181 0.79155 0.23724 0.0
C432 C 0.77682 0.82961 0.3609 0.0
C433 C 0.75837 0.84148 0.36387 0.0
C434 C 0.76065 0.80832 0.28258 0.0
C435 C 0.74121 0.83602 0.32575 0.0
C436 C 0.74344 0.78473 0.20479 0.0
C437 C 0.78324 0.76876 0.18148 0.0
N438 N 0.74279 0.81984 0.28662 0.0
N439 N 0.78106 0.7832 0.22499 0.0
H440 H 0.55772 0.5848 0.09542 0.0
H441 H 0.48183 0.52547 0.85553 0.0
H442 H 0.55218 0.51541 0.07188 0.0
H443 H 0.47984 0.59278 0.9026 0.0
H444 H 0.51085 0.52206 0.92559 0.0
H445 H 0.53293 0.58844 0.01529 0.0
C446 C 0.55142 0.57028 0.07313 0.0
C447 C 0.55689 0.5497 0.09093 0.0
C448 C 0.50412 0.53759 0.92041 0.0
C449 C 0.52826 0.55385 -0.00114 0.0
C450 C 0.48755 0.53959 0.88037 0.0
C451 C 0.47826 0.55945 0.87337 0.0
C452 C 0.51157 0.55559 0.95355 0.0
C453 C 0.4864 0.57714 0.90672 0.0
C454 C 0.53719 0.57241 0.02735 0.0
C455 C 0.54835 0.53156 0.05982 0.0
N456 N 0.50255 0.57478 0.94541 0.0
N457 N 0.53431 0.53405 0.01548 0.0
H458 H 0.04623 0.58636 0.3555 0.0
H459 H 0.97124 0.5267 0.59633 0.0
H460 H 0.04886 0.51914 0.40256 0.0
H461 H 0.97587 0.59602 0.57155 0.0
H462 H 0.99595 0.52313 0.51602 0.0
H463 H 0.0172 0.58953 0.42554 0.0
C464 C 0.04065 0.57221 0.38033 0.0
C465 C 0.05013 0.55245 0.37335 0.0
C466 C 0.99151 0.53913 0.52785 0.0
C467 C 0.01681 0.55604 0.45355 0.0
C468 C 0.97732 0.54122 0.57373 0.0
C469 C 0.97162 0.56176 0.59123 0.0
C470 C 1.00015 0.5577 0.49897 0.0
C471 C 0.97989 0.57989 0.55974 0.0
C472 C 0.02407 0.57408 0.42036 0.0
C473 C 0.04215 0.53471 0.40667 0.0
N474 N 0.99389 0.57745 0.51533 0.0
N475 N 0.026 0.53695 0.4454 0.0
H476 H 0.06371 0.60172 0.08755 0.0
H477 H 0.97702 0.5295 0.89979 0.0
H478 H 0.05954 0.53181 0.08749 0.0
H479 H 0.98846 0.59885 0.88258 0.0
H480 H 1.00622 0.52991 0.97125 0.0
H481 H 0.03587 0.60087 0.01285 0.0
C482 C 0.05712 0.58618 0.07132 0.0
C483 C 0.06394 0.56681 0.09387 0.0
C484 C 1.0023 0.54502 0.95182 0.0
C485 C 0.03174 0.5657 0.00897 0.0
C486 C 0.98552 0.54482 0.91136 0.0
C487 C 0.98026 0.56417 0.88513 0.0
C488 C 1.01379 0.56472 0.96636 0.0
C489 C 0.99195 0.58353 0.90154 0.0
C490 C 0.04115 0.5857 0.02879 0.0
C491 C 0.0548 0.54715 0.07123 0.0
N492 N 1.00813 0.5833 0.94103 0.0
N493 N 0.03903 0.54709 0.03035 0.0
H494 H 0.46456 0.51095 0.58618 0.0
H495 H 0.55189 0.58258 0.39941 0.0
H496 H 0.46959 0.58086 0.58765 0.0
H497 H 0.53997 0.51326 0.38219 0.0
H498 H 0.52271 0.58242 0.47081 0.0
H499 H 0.49238 0.51164 0.51159 0.0
C500 C 0.47134 0.52647 0.57031 0.0
C501 C 0.46476 0.54588 0.59326 0.0
C502 C 0.52653 0.56726 0.45139 0.0
C503 C 0.49695 0.54679 0.50845 0.0
C504 C 0.54329 0.56732 0.41096 0.0
C505 C 0.54841 0.5479 0.38475 0.0
C506 C 0.5149 0.54764 0.46589 0.0
C507 C 0.5366 0.52863 0.40114 0.0
C508 C 0.48731 0.52685 0.52784 0.0
C509 C 0.47414 0.5655 0.57106 0.0
N510 N 0.52043 0.529 0.44057 0.0
N511 N 0.48991 0.56546 0.53021 0.0
H512 H 0.1184 0.49891 0.11773 0.0
H513 H 0.20594 0.41069 0.12034 0.0
H514 H 0.14141 0.47019 0.27361 0.0
H515 H 0.17726 0.43385 0.96457 0.0
H516 H 0.18055 0.43032 0.17722 0.0
H517 H 0.13781 0.47332 0.06095 0.0
C518 C 0.12734 0.48706 0.14006 0.0
C519 C 0.12839 0.48682 0.20057 0.0
C520 C 0.17964 0.43093 0.13059 0.0
C521 C 0.15088 0.45757 0.13571 0.0
C522 C 0.19415 0.4197 0.09805 0.0
C523 C 0.19385 0.42074 0.03755 0.0
C524 C 0.16484 0.44348 0.10251 0.0
C525 C 0.17815 0.43264 0.0111 0.0
C526 C 0.13844 0.47245 0.10758 0.0
C527 C 0.14018 0.47104 0.22708 0.0
N528 N 0.16444 0.44371 0.04371 0.0
N529 N 0.15114 0.45722 0.19451 0.0
H530 H 0.82859 0.92898 0.45881 0.0
H531 H 0.85389 0.04624 0.33239 0.0
H532 H 0.7756 0.96579 0.40509 0.0
H533 H 0.89113 0.9928 0.28483 0.0
H534 H 0.82652 0.02033 0.37607 0.0
H535 H 0.85402 0.95628 0.41478 0.0
C536 C 0.82232 0.94298 0.43857 0.0
C537 C 0.79995 0.94512 0.43544 0.0
C538 C 0.84063 0.0144 0.35557 0.0
C539 C 0.82895 0.97634 0.38533 0.0
C540 C 0.8562 0.02908 0.33072 0.0
C541 C 0.87474 0.02161 0.30483 0.0
C542 C 0.84407 0.99227 0.35595 0.0
C543 C 0.877 0.99924 0.30393 0.0
C544 C 0.83682 0.9584 0.41305 0.0
C545 C 0.79273 0.96352 0.40818 0.0
N546 N 0.86201 0.98538 0.3299 0.0
N547 N 0.80723 0.97855 0.38429 0.0
H548 H 0.35231 0.67938 0.46164 0.0
H549 H 0.38805 0.64272 0.77682 0.0
H550 H 0.3234 0.7006 0.61927 0.0
H551 H 0.40929 0.61392 0.61905 0.0
H552 H 0.36874 0.66834 0.71982 0.0
H553 H 0.37764 0.65973 0.51875 0.0
C554 C 0.35145 0.68014 0.50827 0.0
C555 C 0.33557 0.69152 0.53568 0.0
C556 C 0.37779 0.65655 0.69767 0.0
C557 C 0.36449 0.66895 0.60136 0.0
C558 C 0.38889 0.64195 0.7302 0.0
C559 C 0.40017 0.62601 0.7027 0.0
C560 C 0.37798 0.65526 0.63714 0.0
C561 C 0.40069 0.62583 0.64212 0.0
C562 C 0.36588 0.66885 0.54086 0.0
C563 C 0.33527 0.69193 0.59626 0.0
N564 N 0.38963 0.64012 0.61141 0.0
N565 N 0.3494 0.68069 0.62703 0.0
H566 H 0.7002 0.18286 0.95839 0.0
H567 H 0.67471 0.06584 0.83008 0.0
H568 H 0.75309 0.14609 0.90371 0.0
H569 H 0.63734 0.11933 0.78397 0.0
H570 H 0.70216 0.09168 0.87389 0.0
H571 H 0.6747 0.15567 0.91399 0.0
C572 C 0.70644 0.16889 0.93785 0.0
C573 C 0.72879 0.16672 0.93458 0.0
C574 C 0.68799 0.09764 0.85368 0.0
C575 C 0.69971 0.13565 0.88403 0.0
C576 C 0.67239 0.08299 0.82875 0.0
C577 C 0.65379 0.0905 0.80323 0.0
C578 C 0.68454 0.11977 0.85451 0.0
C579 C 0.65151 0.11287 0.80277 0.0
C580 C 0.69189 0.15353 0.91212 0.0
C581 C 0.73596 0.14837 0.90693 0.0
N582 N 0.66655 0.12669 0.8288 0.0
N583 N 0.72142 0.13341 0.88284 0.0
H584 H 0.15572 0.5727 0.39921 0.0
H585 H 0.24923 0.66522 0.33851 0.0
H586 H 0.16332 0.60422 0.23361 0.0
H587 H 0.21743 0.65814 0.50388 0.0
H588 H 0.2239 0.63653 0.2997 0.0
H589 H 0.18461 0.59779 0.43804 0.0
C590 C 0.16367 0.5847 0.37079 0.0
C591 C 0.15706 0.58646 0.31311 0.0
C592 C 0.22263 0.64118 0.34457 0.0
C593 C 0.19015 0.61497 0.35722 0.0
C594 C 0.23712 0.65742 0.36689 0.0
C595 C 0.23535 0.66412 0.4245 0.0
C596 C 0.20657 0.63126 0.38041 0.0
C597 C 0.21926 0.65355 0.45917 0.0
C598 C 0.18003 0.59905 0.39311 0.0
C599 C 0.16784 0.6024 0.27838 0.0
N600 N 0.2055 0.63757 0.43661 0.0
N601 N 0.18392 0.61603 0.30095 0.0
H602 H 0.61803 0.99726 0.61519 0.0
H603 H 0.70634 0.90959 0.62188 0.0
H604 H 0.64259 0.97068 0.77212 0.0
H605 H 0.67975 0.93415 0.46495 0.0
H606 H 0.6804 0.92897 0.67753 0.0
H607 H 0.63766 0.97151 0.5595 0.0
C608 C 0.62734 0.98584 0.63801 0.0
C609 C 0.6288 0.98627 0.69845 0.0
C610 C 0.68007 0.92995 0.6309 0.0
C611 C 0.65152 0.95685 0.63484 0.0
C612 C 0.69488 0.91884 0.59905 0.0
C613 C 0.69536 0.92038 0.53863 0.0
C614 C 0.6657 0.94282 0.60219 0.0
C615 C 0.68006 0.93258 0.51146 0.0
C616 C 0.63858 0.97115 0.60614 0.0
C617 C 0.64107 0.97102 0.72561 0.0
N618 N 0.66602 0.94349 0.54343 0.0
N619 N 0.65212 0.9571 0.69362 0.0
H620 H 0.36529 0.50858 0.73002 0.0
H621 H 0.31143 0.45428 0.007 0.0
H622 H 0.37254 0.53908 0.89716 0.0
H623 H 0.28023 0.44798 0.84058 0.0
H624 H 0.33641 0.48324 0.96779 0.0
H625 H 0.3362 0.48377 0.7693 0.0
C626 C 0.36064 0.51016 0.7748 0.0
C627 C 0.37133 0.52588 0.8104 0.0
C628 C 0.32392 0.47564 0.94016 0.0
C629 C 0.33849 0.49739 0.85566 0.0
C630 C 0.30973 0.45911 0.9624 0.0
C631 C 0.29376 0.44873 0.92697 0.0
C632 C 0.32244 0.48142 0.88179 0.0
C633 C 0.29226 0.45563 0.86947 0.0
C634 C 0.34404 0.49607 0.79709 0.0
C635 C 0.36466 0.52725 0.86814 0.0
N636 N 0.30663 0.47133 0.8484 0.0
N637 N 0.34887 0.51297 0.88923 0.0
H638 H 0.8495 0.17821 0.96221 0.0
H639 H 0.88681 0.14194 0.27601 0.0
H640 H 0.82256 0.20089 0.1209 0.0
H641 H 0.90916 0.11465 0.11739 0.0
H642 H 0.86724 0.16756 0.21987 0.0
H643 H 0.87536 0.15889 0.01825 0.0
C644 C 0.84918 0.17936 0.00884 0.0
C645 C 0.83369 0.19106 0.03688 0.0
C646 C 0.87659 0.15611 0.19733 0.0
C647 C 0.86321 0.1688 0.1014 0.0
C648 C 0.88784 0.1415 0.22938 0.0
C649 C 0.89951 0.12597 0.20139 0.0
C650 C 0.87697 0.15522 0.13676 0.0
C651 C 0.90027 0.12624 0.14083 0.0
C652 C 0.86393 0.16826 0.04083 0.0
C653 C 0.83412 0.19198 0.09742 0.0
N654 N 0.88901 0.1405 0.11057 0.0
N655 N 0.8485 0.18086 0.12763 0.0
H656 H 0.80296 0.66098 0.93661 0.0
H657 H 0.91922 0.65164 0.79192 0.0
H658 H 0.85657 0.7094 0.95259 0.0
H659 H 0.87246 0.59664 0.80838 0.0
H660 H 0.89469 0.6738 0.84346 0.0
H661 H 0.82679 0.63755 0.88506 0.0
C662 C 0.81977 0.66659 0.92987 0.0
C663 C 0.82776 0.68721 0.94901 0.0
C664 C 0.88972 0.6569 0.83574 0.0
C665 C 0.85494 0.66068 0.8892 0.0
C666 C 0.90369 0.64424 0.80588 0.0
C667 C 0.89793 0.6222 0.79581 0.0
C668 C 0.86971 0.64758 0.85563 0.0
C669 C 0.87757 0.61356 0.81517 0.0
C670 C 0.83332 0.65325 0.90026 0.0
C671 C 0.84966 0.69366 0.93878 0.0
N672 N 0.86418 0.62627 0.84423 0.0
N673 N 0.86238 0.68053 0.90931 0.0
H674 H 0.18451 0.19864 0.52461 0.0
H675 H 0.16556 0.08514 0.68594 0.0
H676 H 0.23706 0.15763 0.55052 0.0
H677 H 0.12509 0.13843 0.70661 0.0
H678 H 0.19111 0.10891 0.62919 0.0
H679 H 0.16082 0.17331 0.57988 0.0
C680 C 0.19103 0.18414 0.54125 0.0
C681 C 0.21288 0.18035 0.53317 0.0
C682 C 0.17671 0.11536 0.64673 0.0
C683 C 0.18576 0.1513 0.59746 0.0
C684 C 0.1622 0.10188 0.67937 0.0
C685 C 0.1431 0.10978 0.70097 0.0
C686 C 0.17186 0.13672 0.63507 0.0
C687 C 0.13953 0.13156 0.69081 0.0
C688 C 0.17751 0.16976 0.57333 0.0
C689 C 0.22033 0.1612 0.55577 0.0
N690 N 0.15362 0.14415 0.65819 0.0
N691 N 0.20679 0.14737 0.5872 0.0
H692 H 0.67103 0.40163 0.45698 0.0
H693 H 0.65661 0.51585 0.30593 0.0
H694 H 0.7244 0.44992 0.4347 0.0
H695 H 0.60969 0.46074 0.29627 0.0
H696 H 0.68119 0.49345 0.35821 0.0
H697 H 0.64749 0.42498 0.406 0.0
C698 C 0.67779 0.41726 0.4419 0.0
C699 C 0.69978 0.42377 0.45011 0.0
C700 C 0.66556 0.48627 0.34428 0.0
C701 C 0.67281 0.45063 0.39089 0.0
C702 C 0.65155 0.49902 0.31427 0.0
C703 C 0.63103 0.49017 0.2966 0.0
C704 C 0.6589 0.46462 0.35723 0.0
C705 C 0.62533 0.46828 0.30887 0.0
C706 C 0.66433 0.43055 0.41236 0.0
C707 C 0.70755 0.44424 0.42937 0.0
N708 N 0.63909 0.45635 0.33866 0.0
N709 N 0.69408 0.45694 0.40059 0.0
H710 H 0.36308 0.02745 0.18441 0.0
H711 H 0.34408 0.91368 0.02391 0.0
H712 H 0.40357 0.97422 0.20554 0.0
H713 H 0.2915 0.95466 0.04981 0.0
H714 H 0.3678 0.93913 0.07892 0.0
H715 H 0.33751 1.00357 0.12782 0.0
C716 C 0.36644 1.01071 0.17797 0.0
C717 C 0.38555 1.00285 0.19967 0.0
C718 C 0.3511 0.94265 0.07241 0.0
C719 C 0.35678 0.97579 0.13395 0.0
C720 C 0.33755 0.9282 0.04048 0.0
C721 C 0.31569 0.93194 0.03247 0.0
C722 C 0.34285 0.96114 0.09647 0.0
C723 C 0.30825 0.95112 0.05499 0.0
C724 C 0.35192 0.99716 0.14543 0.0
C725 C 0.38912 0.98105 0.18968 0.0
N726 N 0.3218 0.96501 0.08627 0.0
N727 N 0.37502 0.9684 0.15714 0.0
H728 H 0.84705 0.41703 0.52677 0.0
H729 H 0.86512 0.52996 0.69155 0.0
H730 H 0.79381 0.45677 0.55718 0.0
H731 H 0.90664 0.47735 0.70854 0.0
H732 H 0.8395 0.50596 0.63546 0.0
H733 H 0.87063 0.44247 0.58217 0.0
C734 C 0.84034 0.43128 0.54444 0.0
C735 C 0.81835 0.43467 0.53755 0.0
C736 C 0.85414 0.4997 0.65208 0.0
C737 C 0.84536 0.46385 0.60199 0.0
C738 C 0.86869 0.51331 0.68434 0.0
C739 C 0.88811 0.50568 0.70465 0.0
C740 C 0.85927 0.4785 0.6395 0.0
C741 C 0.89195 0.48401 0.69372 0.0
C742 C 0.85381 0.44572 0.57659 0.0
C743 C 0.81066 0.45351 0.56148 0.0
N744 N 0.87781 0.4713 0.66146 0.0
N745 N 0.82416 0.4674 0.59292 0.0
H746 H 0.30385 0.16347 0.43096 0.0
H747 H 0.41799 0.14944 0.27884 0.0
H748 H 0.35885 0.21054 0.44018 0.0
H749 H 0.37004 0.09585 0.30224 0.0
H750 H 0.39455 0.17291 0.3298 0.0
H751 H 0.32629 0.13896 0.37851 0.0
C752 C 0.32067 0.16858 0.42249 0.0
C753 C 0.32947 0.18911 0.44009 0.0
C754 C 0.38907 0.15604 0.32369 0.0
C755 C 0.35506 0.16133 0.37926 0.0
C756 C 0.40241 0.14262 0.29415 0.0
C757 C 0.39602 0.12058 0.28628 0.0
C758 C 0.36907 0.14748 0.3455 0.0
C759 C 0.37562 0.11273 0.30731 0.0
C760 C 0.33343 0.15461 0.39238 0.0
C761 C 0.35134 0.19488 0.42765 0.0
N762 N 0.36288 0.12616 0.33608 0.0
N763 N 0.36329 0.18116 0.39777 0.0
H764 H 0.6635 0.5819 0.19109 0.0
H765 H 0.68125 0.69469 0.02592 0.0
H766 H 0.62177 0.63437 0.20756 0.0
H767 H 0.73455 0.65502 0.05629 0.0
H768 H 0.65772 0.66926 0.08134 0.0
H769 H 0.68903 0.6059 0.1349 0.0
C770 C 0.65986 0.59851 0.18374 0.0
C771 C 0.64042 0.60611 0.20394 0.0
C772 C 0.67454 0.66603 0.07574 0.0
C773 C 0.66916 0.63329 0.13867 0.0
C774 C 0.68798 0.68046 0.04358 0.0
C775 C 0.70998 0.67708 0.03668 0.0
C776 C 0.68302 0.64792 0.10114 0.0
C777 C 0.71769 0.65827 0.06059 0.0
C778 C 0.67437 0.61212 0.15142 0.0
C779 C 0.63649 0.62774 0.19283 0.0
N780 N 0.70423 0.64438 0.09205 0.0
N781 N 0.65058 0.64044 0.16052 0.0
H782 H 0.16884 0.90166 0.94757 0.0
H783 H 0.159 0.01764 0.80202 0.0
H784 H 0.22377 0.94842 0.92964 0.0
H785 H 0.11059 0.96397 0.78736 0.0
H786 H 0.18259 0.99395 0.85341 0.0
H787 H 0.14651 0.92609 0.89628 0.0
C788 C 0.1762 0.91717 0.93334 0.0
C789 C 0.19827 0.92295 0.94293 0.0
C790 C 0.16686 0.98737 0.83854 0.0
C791 C 0.17268 0.95106 0.88339 0.0
C792 C 0.15341 1.00085 0.80902 0.0
C793 C 0.13276 0.9928 0.79029 0.0
C794 C 0.15948 0.96577 0.84993 0.0
C795 C 0.12636 0.97092 0.80085 0.0
C796 C 0.16343 0.93108 0.90363 0.0
C797 C 0.20683 0.94329 0.92324 0.0
N798 N 0.13958 0.95827 0.83023 0.0
N799 N 0.19403 0.95662 0.89432 0.0
loop_
_geom_bond_atom_site_label_1
_geom_bond_atom_site_label_2
_geom_bond_distance
_geom_bond_site_symmetry_2
_ccdc_geom_bond_type
O0 Cd1 2.223 1_556 S
O0 C8 1.315 . S
Cd1 O0 2.223 1_554 S
Cd1 O4 2.297 . S
Cd1 O5 2.439 . S
Cd1 O11 2.240 . S
Cd2 O3 2.240 . S
Cd2 O10 2.223 . S
Cd2 O12 2.297 . S
Cd2 O13 2.439 1_556 S
O3 Cd2 2.240 . S
O3 C8 1.279 . S
O4 Cd1 2.297 . S
O4 C6 1.247 . S
O5 Cd1 2.439 . S
O5 C6 1.208 . S
C6 O4 1.247 . S
C6 O5 1.208 . S
C7 O12 1.247 1_554 S
C7 O13 1.208 . S
C8 O0 1.315 . S
C8 O3 1.279 . S
C9 O10 1.315 . S
C9 O11 1.279 1_556 S
O10 Cd2 2.223 . S
O10 C9 1.315 . S
O11 Cd1 2.240 . S
O11 C9 1.279 1_554 S
O12 Cd2 2.297 . S
O12 C7 1.247 1_556 S
O13 Cd2 2.439 1_554 S
O13 C7 1.208 . S
O14 Cd15 2.223 . S
O14 C22 1.315 . S
Cd15 O14 2.223 . S
Cd15 O18 2.297 . S
Cd15 O19 2.439 . S
Cd15 O25 2.240 . S
Cd16 O17 2.240 . S
Cd16 O24 2.223 . S
Cd16 O26 2.297 . S
Cd16 O27 2.439 . S
O17 Cd16 2.240 . S
O17 C22 1.279 . S
O18 Cd15 2.297 . S
O18 C20 1.247 . S
O19 Cd15 2.439 . S
O19 C20 1.208 . S
C20 O18 1.247 . S
C20 O19 1.208 . S
C21 O26 1.247 . S
C21 O27 1.208 . S
C22 O14 1.315 . S
C22 O17 1.279 . S
C23 O24 1.315 . S
C23 O25 1.279 . S
O24 Cd16 2.223 . S
O24 C23 1.315 . S
O25 Cd15 2.240 . S
O25 C23 1.279 . S
O26 Cd16 2.297 . S
O26 C21 1.247 . S
O27 Cd16 2.439 . S
O27 C21 1.208 . S
O28 Cd29 2.223 . S
O28 C36 1.315 . S
Cd29 O28 2.223 . S
Cd29 O32 2.297 . S
Cd29 O33 2.439 . S
Cd29 O39 2.240 . S
Cd30 O31 2.240 . S
Cd30 O38 2.223 . S
Cd30 O40 2.297 . S
Cd30 O41 2.439 . S
O31 Cd30 2.240 . S
O31 C36 1.279 . S
O32 Cd29 2.297 . S
O32 C34 1.247 . S
O33 Cd29 2.439 . S
O33 C34 1.208 . S
C34 O32 1.247 . S
C34 O33 1.208 . S
C35 O40 1.247 . S
C35 O41 1.208 . S
C36 O28 1.315 . S
C36 O31 1.279 . S
C37 O38 1.315 . S
C37 O39 1.279 . S
O38 Cd30 2.223 . S
O38 C37 1.315 . S
O39 Cd29 2.240 . S
O39 C37 1.279 . S
O40 Cd30 2.297 . S
O40 C35 1.247 . S
O41 Cd30 2.439 . S
O41 C35 1.208 . S
O42 Cd43 2.223 . S
O42 C50 1.315 . S
Cd43 O42 2.223 . S
Cd43 O46 2.297 . S
Cd43 O47 2.439 . S
Cd43 O53 2.240 . S
Cd44 O45 2.240 . S
Cd44 O52 2.223 . S
Cd44 O54 2.297 . S
Cd44 O55 2.439 . S
O45 Cd44 2.240 . S
O45 C50 1.279 . S
O46 Cd43 2.297 . S
O46 C48 1.247 . S
O47 Cd43 2.439 . S
O47 C48 1.208 . S
C48 O46 1.247 . S
C48 O47 1.208 . S
C49 O54 1.247 . S
C49 O55 1.208 . S
C50 O42 1.315 . S
C50 O45 1.279 . S
C51 O52 1.315 . S
C51 O53 1.279 . S
O52 Cd44 2.223 . S
O52 C51 1.315 . S
O53 Cd43 2.240 . S
O53 C51 1.279 . S
O54 Cd44 2.297 . S
O54 C49 1.247 . S
O55 Cd44 2.439 . S
O55 C49 1.208 . S
O56 Cd57 2.223 1_556 S
O56 C64 1.315 . S
Cd57 O56 2.223 1_554 S
Cd57 O60 2.297 1_554 S
Cd57 O61 2.439 1_554 S
Cd57 O67 2.240 . S
Cd58 O59 2.240 1_554 S
Cd58 O66 2.223 . S
Cd58 O68 2.297 . S
Cd58 O69 2.439 . S
O59 Cd58 2.240 1_556 S
O59 C64 1.279 . S
O60 Cd57 2.297 1_556 S
O60 C62 1.247 . S
O61 Cd57 2.439 1_556 S
O61 C62 1.208 . S
C62 O60 1.247 . S
C62 O61 1.208 . S
C63 O68 1.247 . S
C63 O69 1.208 . S
C64 O56 1.315 . S
C64 O59 1.279 . S
C65 O66 1.315 . S
C65 O67 1.279 . S
O66 Cd58 2.223 . S
O66 C65 1.315 . S
O67 Cd57 2.240 . S
O67 C65 1.279 . S
O68 Cd58 2.297 . S
O68 C63 1.247 . S
O69 Cd58 2.439 . S
O69 C63 1.208 . S
O70 Cd71 2.223 1_545 S
O70 C78 1.315 . S
Cd71 O70 2.223 1_565 S
Cd71 O74 2.297 . S
Cd71 O75 2.439 1_565 S
Cd71 O81 2.240 1_565 S
Cd72 O73 2.240 . S
Cd72 O80 2.223 . S
Cd72 O82 2.297 . S
Cd72 O83 2.439 . S
O73 Cd72 2.240 . S
O73 C78 1.279 . S
O74 Cd71 2.297 . S
O74 C76 1.247 . S
O75 Cd71 2.439 1_545 S
O75 C76 1.208 1_545 S
C76 O74 1.247 . S
C76 O75 1.208 1_565 S
C77 O82 1.247 . S
C77 O83 1.208 . S
C78 O70 1.315 . S
C78 O73 1.279 . S
C79 O80 1.315 . S
C79 O81 1.279 . S
O80 Cd72 2.223 . S
O80 C79 1.315 . S
O81 Cd71 2.240 1_545 S
O81 C79 1.279 . S
O82 Cd72 2.297 . S
O82 C77 1.247 . S
O83 Cd72 2.439 . S
O83 C77 1.208 . S
O84 Cd85 2.223 . S
O84 C92 1.315 . S
Cd85 O84 2.223 . S
Cd85 O88 2.297 . S
Cd85 O89 2.439 . S
Cd85 O95 2.240 . S
Cd86 O87 2.240 . S
Cd86 O94 2.223 . S
Cd86 O96 2.297 . S
Cd86 O97 2.439 . S
O87 Cd86 2.240 . S
O87 C92 1.279 . S
O88 Cd85 2.297 . S
O88 C90 1.247 . S
O89 Cd85 2.439 . S
O89 C90 1.208 . S
C90 O88 1.247 . S
C90 O89 1.208 . S
C91 O96 1.247 . S
C91 O97 1.208 . S
C92 O84 1.315 . S
C92 O87 1.279 . S
C93 O94 1.315 . S
C93 O95 1.279 . S
O94 Cd86 2.223 . S
O94 C93 1.315 . S
O95 Cd85 2.240 . S
O95 C93 1.279 . S
O96 Cd86 2.297 . S
O96 C91 1.247 . S
O97 Cd86 2.439 . S
O97 C91 1.208 . S
O98 Cd99 2.223 . S
O98 C106 1.315 . S
Cd99 O98 2.223 . S
Cd99 O102 2.297 . S
Cd99 O103 2.439 . S
Cd99 O109 2.240 . S
Cd100 O101 2.240 . S
Cd100 O108 2.223 . S
Cd100 O110 2.297 . S
Cd100 O111 2.439 . S
O101 Cd100 2.240 . S
O101 C106 1.279 . S
O102 Cd99 2.297 . S
O102 C104 1.247 . S
O103 Cd99 2.439 . S
O103 C104 1.208 . S
C104 O102 1.247 . S
C104 O103 1.208 . S
C105 O110 1.247 . S
C105 O111 1.208 . S
C106 O98 1.315 . S
C106 O101 1.279 . S
C107 O108 1.315 . S
C107 O109 1.279 . S
O108 Cd100 2.223 . S
O108 C107 1.315 . S
O109 Cd99 2.240 . S
O109 C107 1.279 . S
O110 Cd100 2.297 . S
O110 C105 1.247 . S
O111 Cd100 2.439 . S
O111 C105 1.208 . S
O112 Cd113 2.223 . S
O112 C120 1.315 . S
Cd113 O112 2.223 . S
Cd113 O116 2.297 . S
Cd113 O117 2.439 . S
Cd113 O123 2.240 . S
Cd114 O115 2.240 . S
Cd114 O122 2.223 . S
Cd114 O124 2.297 . S
Cd114 O125 2.439 . S
O115 Cd114 2.240 . S
O115 C120 1.279 . S
O116 Cd113 2.297 . S
O116 C118 1.247 . S
O117 Cd113 2.439 . S
O117 C118 1.208 . S
C118 O116 1.247 . S
C118 O117 1.208 . S
C119 O124 1.247 . S
C119 O125 1.208 . S
C120 O112 1.315 . S
C120 O115 1.279 . S
C121 O122 1.315 . S
C121 O123 1.279 . S
O122 Cd114 2.223 . S
O122 C121 1.315 . S
O123 Cd113 2.240 . S
O123 C121 1.279 . S
O124 Cd114 2.297 . S
O124 C119 1.247 . S
O125 Cd114 2.439 . S
O125 C119 1.208 . S
O126 Cd127 2.223 . S
O126 C134 1.315 . S
Cd127 O126 2.223 . S
Cd127 O130 2.297 . S
Cd127 O131 2.439 . S
Cd127 O137 2.240 . S
Cd128 O129 2.240 . S
Cd128 O136 2.223 . S
Cd128 O138 2.297 . S
Cd128 O139 2.439 . S
O129 Cd128 2.240 . S
O129 C134 1.279 . S
O130 Cd127 2.297 . S
O130 C132 1.247 . S
O131 Cd127 2.439 . S
O131 C132 1.208 . S
C132 O130 1.247 . S
C132 O131 1.208 . S
C133 O138 1.247 . S
C133 O139 1.208 . S
C134 O126 1.315 . S
C134 O129 1.279 . S
C135 O136 1.315 . S
C135 O137 1.279 . S
O136 Cd128 2.223 . S
O136 C135 1.315 . S
O137 Cd127 2.240 . S
O137 C135 1.279 . S
O138 Cd128 2.297 . S
O138 C133 1.247 . S
O139 Cd128 2.439 . S
O139 C133 1.208 . S
O140 Cd141 2.223 1_556 S
O140 C148 1.315 . S
Cd141 O140 2.223 1_554 S
Cd141 O144 2.297 . S
Cd141 O145 2.439 . S
Cd141 O151 2.240 . S
Cd142 O143 2.240 . S
Cd142 O150 2.223 . S
Cd142 O152 2.297 . S
Cd142 O153 2.439 1_556 S
O143 Cd142 2.240 . S
O143 C148 1.279 . S
O144 Cd141 2.297 . S
O144 C146 1.247 . S
O145 Cd141 2.439 . S
O145 C146 1.208 . S
C146 O144 1.247 . S
C146 O145 1.208 . S
C147 O152 1.247 1_554 S
C147 O153 1.208 . S
C148 O140 1.315 . S
C148 O143 1.279 . S
C149 O150 1.315 . S
C149 O151 1.279 1_556 S
O150 Cd142 2.223 . S
O150 C149 1.315 . S
O151 Cd141 2.240 . S
O151 C149 1.279 1_554 S
O152 Cd142 2.297 . S
O152 C147 1.247 1_556 S
O153 Cd142 2.439 1_554 S
O153 C147 1.208 . S
O154 Cd155 2.223 . S
O154 C162 1.315 . S
Cd155 O154 2.223 . S
Cd155 O158 2.297 . S
Cd155 O159 2.439 . S
Cd155 O165 2.240 . S
Cd156 O157 2.240 . S
Cd156 O164 2.223 . S
Cd156 O166 2.297 . S
Cd156 O167 2.439 . S
O157 Cd156 2.240 . S
O157 C162 1.279 . S
O158 Cd155 2.297 . S
O158 C160 1.247 . S
O159 Cd155 2.439 . S
O159 C160 1.208 . S
C160 O158 1.247 . S
C160 O159 1.208 . S
C161 O166 1.247 . S
C161 O167 1.208 . S
C162 O154 1.315 . S
C162 O157 1.279 . S
C163 O164 1.315 . S
C163 O165 1.279 . S
O164 Cd156 2.223 . S
O164 C163 1.315 . S
O165 Cd155 2.240 . S
O165 C163 1.279 . S
O166 Cd156 2.297 . S
O166 C161 1.247 . S
O167 Cd156 2.439 . S
O167 C161 1.208 . S
O168 Cd169 2.223 . S
O168 C176 1.315 . S
Cd169 O168 2.223 . S
Cd169 O172 2.297 . S
Cd169 O173 2.439 . S
Cd169 O179 2.240 . S
Cd170 O171 2.240 . S
Cd170 O178 2.223 . S
Cd170 O180 2.297 . S
Cd170 O181 2.439 . S
O171 Cd170 2.240 . S
O171 C176 1.279 . S
O172 Cd169 2.297 . S
O172 C174 1.247 . S
O173 Cd169 2.439 . S
O173 C174 1.208 . S
C174 O172 1.247 . S
C174 O173 1.208 . S
C175 O180 1.247 . S
C175 O181 1.208 . S
C176 O168 1.315 . S
C176 O171 1.279 . S
C177 O178 1.315 . S
C177 O179 1.279 . S
O178 Cd170 2.223 . S
O178 C177 1.315 . S
O179 Cd169 2.240 . S
O179 C177 1.279 . S
O180 Cd170 2.297 . S
O180 C175 1.247 . S
O181 Cd170 2.439 . S
O181 C175 1.208 . S
O182 Cd183 2.223 . S
O182 C190 1.315 . S
Cd183 O182 2.223 . S
Cd183 O186 2.297 . S
Cd183 O187 2.439 . S
Cd183 O193 2.240 . S
Cd184 O185 2.240 . S
Cd184 O192 2.223 . S
Cd184 O194 2.297 . S
Cd184 O195 2.439 . S
O185 Cd184 2.240 . S
O185 C190 1.279 . S
O186 Cd183 2.297 . S
O186 C188 1.247 . S
O187 Cd183 2.439 . S
O187 C188 1.208 . S
C188 O186 1.247 . S
C188 O187 1.208 . S
C189 O194 1.247 . S
C189 O195 1.208 . S
C190 O182 1.315 . S
C190 O185 1.279 . S
C191 O192 1.315 . S
C191 O193 1.279 . S
O192 Cd184 2.223 . S
O192 C191 1.315 . S
O193 Cd183 2.240 . S
O193 C191 1.279 . S
O194 Cd184 2.297 . S
O194 C189 1.247 . S
O195 Cd184 2.439 . S
O195 C189 1.208 . S
O196 Cd197 2.223 1_556 S
O196 C204 1.315 . S
Cd197 O196 2.223 1_554 S
Cd197 O200 2.297 1_554 S
Cd197 O201 2.439 1_554 S
Cd197 O207 2.240 . S
Cd198 O199 2.240 1_554 S
Cd198 O206 2.223 . S
Cd198 O208 2.297 . S
Cd198 O209 2.439 . S
O199 Cd198 2.240 1_556 S
O199 C204 1.279 . S
O200 Cd197 2.297 1_556 S
O200 C202 1.247 . S
O201 Cd197 2.439 1_556 S
O201 C202 1.208 . S
C202 O200 1.247 . S
C202 O201 1.208 . S
C203 O208 1.247 . S
C203 O209 1.208 . S
C204 O196 1.315 . S
C204 O199 1.279 . S
C205 O206 1.315 . S
C205 O207 1.279 . S
O206 Cd198 2.223 . S
O206 C205 1.315 . S
O207 Cd197 2.240 . S
O207 C205 1.279 . S
O208 Cd198 2.297 . S
O208 C203 1.247 . S
O209 Cd198 2.439 . S
O209 C203 1.208 . S
O210 Cd211 2.223 . S
O210 C218 1.315 . S
Cd211 O210 2.223 . S
Cd211 O214 2.297 . S
Cd211 O215 2.439 . S
Cd211 O221 2.240 . S
Cd212 O213 2.240 . S
Cd212 O220 2.223 . S
Cd212 O222 2.297 . S
Cd212 O223 2.439 . S
O213 Cd212 2.240 . S
O213 C218 1.279 . S
O214 Cd211 2.297 . S
O214 C216 1.247 . S
O215 Cd211 2.439 . S
O215 C216 1.208 . S
C216 O214 1.247 . S
C216 O215 1.208 . S
C217 O222 1.247 . S
C217 O223 1.208 . S
C218 O210 1.315 . S
C218 O213 1.279 . S
C219 O220 1.315 . S
C219 O221 1.279 . S
O220 Cd212 2.223 . S
O220 C219 1.315 . S
O221 Cd211 2.240 . S
O221 C219 1.279 . S
O222 Cd212 2.297 . S
O222 C217 1.247 . S
O223 Cd212 2.439 . S
O223 C217 1.208 . S
H224 C230 0.930 . S
H225 C234 0.930 . S
H226 C239 0.929 . S
H227 C237 0.929 . S
H228 C232 0.929 . S
H229 C238 0.929 . S
C230 H224 0.930 . S
C230 C231 1.367 . S
C230 C238 1.378 . S
C231 C230 1.367 . S
C231 C239 1.433 . S
C232 H228 0.929 . S
C232 C234 1.378 . S
C232 C236 1.350 . S
C233 C236 1.463 . S
C233 C238 1.350 . S
C233 N241 1.427 . S
C234 H225 0.930 . S
C234 C232 1.378 . S
C234 C235 1.367 . S
C235 C234 1.367 . S
C235 C237 1.433 . S
C236 C232 1.350 . S
C236 C233 1.463 . S
C236 N240 1.427 . S
C237 H227 0.929 . S
C237 C235 1.433 . S
C237 N240 1.384 . S
C238 H229 0.929 . S
C238 C230 1.378 . S
C238 C233 1.350 . S
C239 H226 0.929 . S
C239 C231 1.433 . S
C239 N241 1.384 . S
N240 C236 1.427 . S
N240 C237 1.384 . S
N241 C233 1.427 . S
N241 C239 1.384 . S
H242 C248 0.930 . S
H243 C252 0.930 . S
H244 C257 0.929 . S
H245 C255 0.929 . S
H246 C250 0.929 . S
H247 C256 0.914 1_455 S
C248 H242 0.930 . S
C248 C249 1.367 . S
C248 C256 1.378 . S
C249 C248 1.367 . S
C249 C257 1.433 . S
C250 H246 0.929 . S
C250 C252 1.378 1_655 S
C250 C254 1.350 . S
C251 C254 1.463 . S
C251 C256 1.350 . S
C251 N259 1.427 . S
C252 H243 0.930 . S
C252 C250 1.378 1_455 S
C252 C253 1.367 . S
C253 C252 1.367 . S
C253 C255 1.433 . S
C254 C250 1.350 . S
C254 C251 1.463 . S
C254 N258 1.427 1_655 S
C255 H245 0.929 . S
C255 C253 1.433 . S
C255 N258 1.384 . S
C256 H247 0.914 1_655 S
C256 C248 1.378 . S
C256 C251 1.350 . S
C257 H244 0.929 . S
C257 C249 1.433 . S
C257 N259 1.384 . S
N258 C254 1.427 1_455 S
N258 C255 1.384 . S
N259 C251 1.427 . S
N259 C257 1.384 . S
H260 C266 0.930 . S
H261 C270 0.930 . S
H262 C275 0.929 . S
H263 C273 0.929 . S
H264 C268 0.929 . S
H265 C274 0.929 . S
C266 H260 0.930 . S
C266 C267 1.367 . S
C266 C274 1.378 . S
C267 C266 1.367 . S
C267 C275 1.433 . S
C268 H264 0.929 . S
C268 C270 1.378 . S
C268 C272 1.350 . S
C269 C272 1.463 . S
C269 C274 1.350 . S
C269 N277 1.427 . S
C270 H261 0.930 . S
C270 C268 1.378 . S
C270 C271 1.367 . S
C271 C270 1.367 . S
C271 C273 1.433 . S
C272 C268 1.350 . S
C272 C269 1.463 . S
C272 N276 1.427 . S
C273 H263 0.929 . S
C273 C271 1.433 . S
C273 N276 1.384 . S
C274 H265 0.929 . S
C274 C266 1.378 . S
C274 C269 1.350 . S
C275 H262 0.929 . S
C275 C267 1.433 . S
C275 N277 1.384 . S
N276 C272 1.427 . S
N276 C273 1.384 . S
N277 C269 1.427 . S
N277 C275 1.384 . S
H278 C284 0.930 . S
H279 C288 0.930 . S
H280 C293 0.929 . S
H281 C291 0.929 . S
H282 C286 0.929 . S
H283 C292 0.929 . S
C284 H278 0.930 . S
C284 C285 1.367 . S
C284 C292 1.378 . S
C285 C284 1.367 . S
C285 C293 1.433 . S
C286 H282 0.929 . S
C286 C288 1.378 . S
C286 C290 1.350 . S
C287 C290 1.463 1_554 S
C287 C292 1.350 . S
C287 N295 1.427 . S
C288 H279 0.930 . S
C288 C286 1.378 . S
C288 C289 1.367 . S
C289 C288 1.367 . S
C289 C291 1.433 . S
C290 C286 1.350 . S
C290 C287 1.463 1_556 S
C290 N294 1.427 . S
C291 H281 0.929 . S
C291 C289 1.433 . S
C291 N294 1.384 . S
C292 H283 0.929 . S
C292 C284 1.378 . S
C292 C287 1.350 . S
C293 H280 0.929 . S
C293 C285 1.433 . S
C293 N295 1.384 . S
N294 C290 1.427 . S
N294 C291 1.384 . S
N295 C287 1.427 . S
N295 C293 1.384 . S
H296 C302 0.930 . S
H297 C306 0.930 . S
H298 C311 0.929 . S
H299 C309 0.929 . S
H300 C304 0.929 . S
H301 C310 0.929 . S
C302 H296 0.930 . S
C302 C303 1.367 . S
C302 C310 1.378 . S
C303 C302 1.367 . S
C303 C311 1.433 . S
C304 H300 0.929 . S
C304 C306 1.378 . S
C304 C308 1.350 . S
C305 C308 1.463 . S
C305 C310 1.350 . S
C305 N313 1.427 . S
C306 H297 0.930 . S
C306 C304 1.378 . S
C306 C307 1.367 . S
C307 C306 1.367 . S
C307 C309 1.433 . S
C308 C304 1.350 . S
C308 C305 1.463 . S
C308 N312 1.427 . S
C309 H299 0.929 . S
C309 C307 1.433 . S
C309 N312 1.384 . S
C310 H301 0.929 . S
C310 C302 1.378 . S
C310 C305 1.350 . S
C311 H298 0.929 . S
C311 C303 1.433 . S
C311 N313 1.384 . S
N312 C308 1.427 . S
N312 C309 1.384 . S
N313 C305 1.427 . S
N313 C311 1.384 . S
H314 C320 0.930 . S
H315 C324 0.930 . S
H316 C329 0.929 . S
H317 C327 0.929 . S
H318 C322 0.929 . S
H319 C328 0.929 . S
C320 H314 0.930 . S
C320 C321 1.367 . S
C320 C328 1.378 . S
C321 C320 1.367 . S
C321 C329 1.433 . S
C322 H318 0.929 . S
C322 C324 1.378 . S
C322 C326 1.350 . S
C323 C326 1.463 . S
C323 C328 1.350 . S
C323 N331 1.427 . S
C324 H315 0.930 . S
C324 C322 1.378 . S
C324 C325 1.367 . S
C325 C324 1.367 . S
C325 C327 1.433 . S
C326 C322 1.350 . S
C326 C323 1.463 . S
C326 N330 1.427 . S
C327 H317 0.929 . S
C327 C325 1.433 . S
C327 N330 1.384 . S
C328 H319 0.929 . S
C328 C320 1.378 . S
C328 C323 1.350 . S
C329 H316 0.929 . S
C329 C321 1.433 . S
C329 N331 1.384 . S
N330 C326 1.427 . S
N330 C327 1.384 . S
N331 C323 1.427 . S
N331 C329 1.384 . S
H332 C338 0.930 . S
H333 C342 0.930 . S
H334 C347 0.929 . S
H335 C345 0.929 . S
H336 C340 0.929 . S
H337 C346 0.929 . S
C338 H332 0.930 . S
C338 C339 1.367 . S
C338 C346 1.378 . S
C339 C338 1.367 . S
C339 C347 1.433 . S
C340 H336 0.929 . S
C340 C342 1.378 . S
C340 C344 1.350 . S
C341 C344 1.463 . S
C341 C346 1.350 . S
C341 N349 1.427 . S
C342 H333 0.930 . S
C342 C340 1.378 . S
C342 C343 1.367 . S
C343 C342 1.367 . S
C343 C345 1.433 . S
C344 C340 1.350 . S
C344 C341 1.463 . S
C344 N348 1.427 . S
C345 H335 0.929 . S
C345 C343 1.433 . S
C345 N348 1.384 . S
C346 H337 0.929 . S
C346 C338 1.378 . S
C346 C341 1.350 . S
C347 H334 0.929 . S
C347 C339 1.433 . S
C347 N349 1.384 . S
N348 C344 1.427 . S
N348 C345 1.384 . S
N349 C341 1.427 . S
N349 C347 1.384 . S
H350 C356 0.930 . S
H351 C360 0.930 . S
H352 C365 0.929 1_565 S
H353 C363 0.929 . S
H354 C358 0.929 . S
H355 C364 0.916 1_655 S
C356 H350 0.930 . S
C356 C357 1.367 . S
C356 C364 1.378 . S
C357 C356 1.367 . S
C357 C365 1.433 . S
C358 H354 0.929 . S
C358 C360 1.378 . S
C358 C362 1.350 1_554 S
C359 C362 1.463 1_455 S
C359 C364 1.350 . S
C359 N367 1.427 . S
C360 H351 0.930 . S
C360 C358 1.378 . S
C360 C361 1.367 . S
C361 C360 1.367 . S
C361 C363 1.433 . S
C362 C358 1.350 1_556 S
C362 C359 1.463 1_655 S
C362 N366 1.427 . S
C363 H353 0.929 . S
C363 C361 1.433 . S
C363 N366 1.384 1_554 S
C364 H355 0.916 1_455 S
C364 C356 1.378 . S
C364 C359 1.350 . S
C365 H352 0.929 1_545 S
C365 C357 1.433 . S
C365 N367 1.384 . S
N366 C362 1.427 . S
N366 C363 1.384 1_556 S
N367 C359 1.427 . S
N367 C365 1.384 . S
H368 C374 0.930 . S
H369 C378 0.930 . S
H370 C383 0.929 . S
H371 C381 0.929 . S
H372 C376 0.929 . S
H373 C382 0.929 . S
C374 H368 0.930 . S
C374 C375 1.367 . S
C374 C382 1.378 . S
C375 C374 1.367 . S
C375 C383 1.433 . S
C376 H372 0.929 . S
C376 C378 1.378 . S
C376 C380 1.350 . S
C377 C380 1.463 . S
C377 C382 1.350 . S
C377 N385 1.427 . S
C378 H369 0.930 . S
C378 C376 1.378 . S
C378 C379 1.367 . S
C379 C378 1.367 . S
C379 C381 1.433 . S
C380 C376 1.350 . S
C380 C377 1.463 . S
C380 N384 1.427 . S
C381 H371 0.929 . S
C381 C379 1.433 . S
C381 N384 1.384 . S
C382 H373 0.929 . S
C382 C374 1.378 . S
C382 C377 1.350 . S
C383 H370 0.929 . S
C383 C375 1.433 . S
C383 N385 1.384 . S
N384 C380 1.427 . S
N384 C381 1.384 . S
N385 C377 1.427 . S
N385 C383 1.384 . S
H386 C392 0.930 . S
H387 C396 0.930 . S
H388 C401 0.929 . S
H389 C399 0.929 . S
H390 C394 0.929 . S
H391 C400 0.929 . S
C392 H386 0.930 . S
C392 C393 1.367 . S
C392 C400 1.378 . S
C393 C392 1.367 . S
C393 C401 1.433 . S
C394 H390 0.929 . S
C394 C396 1.378 . S
C394 C398 1.350 . S
C395 C398 1.463 . S
C395 C400 1.350 . S
C395 N403 1.427 . S
C396 H387 0.930 . S
C396 C394 1.378 . S
C396 C397 1.367 . S
C397 C396 1.367 . S
C397 C399 1.433 . S
C398 C394 1.350 . S
C398 C395 1.463 . S
C398 N402 1.427 . S
C399 H389 0.929 . S
C399 C397 1.433 . S
C399 N402 1.384 . S
C400 H391 0.929 . S
C400 C392 1.378 . S
C400 C395 1.350 . S
C401 H388 0.929 . S
C401 C393 1.433 . S
C401 N403 1.384 . S
N402 C398 1.427 . S
N402 C399 1.384 . S
N403 C395 1.427 . S
N403 C401 1.384 . S
H404 C410 0.930 . S
H405 C414 0.930 . S
H406 C419 0.929 . S
H407 C417 0.929 . S
H408 C412 0.929 . S
H409 C418 0.929 . S
C410 H404 0.930 . S
C410 C411 1.367 . S
C410 C418 1.378 . S
C411 C410 1.367 . S
C411 C419 1.433 . S
C412 H408 0.929 . S
C412 C414 1.378 . S
C412 C416 1.350 . S
C413 C416 1.463 . S
C413 C418 1.350 . S
C413 N421 1.427 . S
C414 H405 0.930 . S
C414 C412 1.378 . S
C414 C415 1.367 . S
C415 C414 1.367 . S
C415 C417 1.433 . S
C416 C412 1.350 . S
C416 C413 1.463 . S
C416 N420 1.427 . S
C417 H407 0.929 . S
C417 C415 1.433 . S
C417 N420 1.384 . S
C418 H409 0.929 . S
C418 C410 1.378 . S
C418 C413 1.350 . S
C419 H406 0.929 . S
C419 C411 1.433 . S
C419 N421 1.384 . S
N420 C416 1.427 . S
N420 C417 1.384 . S
N421 C413 1.427 . S
N421 C419 1.384 . S
H422 C428 0.930 . S
H423 C432 0.930 . S
H424 C437 0.929 . S
H425 C435 0.929 . S
H426 C430 0.929 . S
H427 C436 0.929 . S
C428 H422 0.930 . S
C428 C429 1.367 . S
C428 C436 1.378 . S
C429 C428 1.367 . S
C429 C437 1.433 . S
C430 H426 0.929 . S
C430 C432 1.378 . S
C430 C434 1.350 . S
C431 C434 1.463 . S
C431 C436 1.350 . S
C431 N439 1.427 . S
C432 H423 0.930 . S
C432 C430 1.378 . S
C432 C433 1.367 . S
C433 C432 1.367 . S
C433 C435 1.433 . S
C434 C430 1.350 . S
C434 C431 1.463 . S
C434 N438 1.427 . S
C435 H425 0.929 . S
C435 C433 1.433 . S
C435 N438 1.384 . S
C436 H427 0.929 . S
C436 C428 1.378 . S
C436 C431 1.350 . S
C437 H424 0.929 . S
C437 C429 1.433 . S
C437 N439 1.384 . S
N438 C434 1.427 . S
N438 C435 1.384 . S
N439 C431 1.427 . S
N439 C437 1.384 . S
H440 C446 0.930 . S
H441 C450 0.930 . S
H442 C455 0.929 . S
H443 C453 0.929 . S
H444 C448 0.929 . S
H445 C454 0.929 1_556 S
C446 H440 0.930 . S
C446 C447 1.367 . S
C446 C454 1.378 . S
C447 C446 1.367 . S
C447 C455 1.433 . S
C448 H444 0.929 . S
C448 C450 1.378 . S
C448 C452 1.350 . S
C449 C452 1.463 1_554 S
C449 C454 1.350 . S
C449 N457 1.427 . S
C450 H441 0.930 . S
C450 C448 1.378 . S
C450 C451 1.367 . S
C451 C450 1.367 . S
C451 C453 1.433 . S
C452 C448 1.350 . S
C452 C449 1.463 1_556 S
C452 N456 1.427 . S
C453 H443 0.929 . S
C453 C451 1.433 . S
C453 N456 1.384 . S
C454 H445 0.929 1_554 S
C454 C446 1.378 . S
C454 C449 1.350 . S
C455 H442 0.929 . S
C455 C447 1.433 . S
C455 N457 1.384 . S
N456 C452 1.427 . S
N456 C453 1.384 . S
N457 C449 1.427 . S
N457 C455 1.384 . S
H458 C464 0.930 . S
H459 C468 0.930 . S
H460 C473 0.929 . S
H461 C471 0.929 . S
H462 C466 0.929 . S
H463 C472 0.929 . S
C464 H458 0.930 . S
C464 C465 1.367 . S
C464 C472 1.378 . S
C465 C464 1.367 . S
C465 C473 1.433 . S
C466 H462 0.929 . S
C466 C468 1.378 . S
C466 C470 1.353 . S
C467 C470 1.454 1_455 S
C467 C472 1.350 . S
C467 N475 1.427 . S
C468 H459 0.930 . S
C468 C466 1.378 . S
C468 C469 1.367 . S
C469 C468 1.367 . S
C469 C471 1.433 . S
C470 C466 1.353 . S
C470 C467 1.454 1_655 S
C470 N474 1.432 . S
C471 H461 0.929 . S
C471 C469 1.433 . S
C471 N474 1.384 . S
C472 H463 0.929 . S
C472 C464 1.378 . S
C472 C467 1.350 . S
C473 H460 0.929 . S
C473 C465 1.433 . S
C473 N475 1.384 . S
N474 C470 1.432 . S
N474 C471 1.384 . S
N475 C467 1.427 . S
N475 C473 1.384 . S
H476 C482 0.930 . S
H477 C486 0.930 . S
H478 C491 0.929 . S
H479 C489 0.929 . S
H480 C484 0.929 . S
H481 C490 0.929 1_556 S
C482 H476 0.930 . S
C482 C483 1.367 . S
C482 C490 1.378 . S
C483 C482 1.367 . S
C483 C491 1.433 . S
C484 H480 0.929 . S
C484 C486 1.378 . S
C484 C488 1.350 . S
C485 C488 1.463 1_455 S
C485 C490 1.350 1_556 S
C485 N493 1.427 1_556 S
C486 H477 0.930 . S
C486 C484 1.378 . S
C486 C487 1.367 . S
C487 C486 1.367 . S
C487 C489 1.433 . S
C488 C484 1.350 . S
C488 C485 1.463 1_655 S
C488 N492 1.427 . S
C489 H479 0.929 . S
C489 C487 1.433 . S
C489 N492 1.384 . S
C490 H481 0.929 1_554 S
C490 C482 1.378 . S
C490 C485 1.350 1_554 S
C491 H478 0.929 . S
C491 C483 1.433 . S
C491 N493 1.384 . S
N492 C488 1.427 . S
N492 C489 1.384 . S
N493 C485 1.427 1_554 S
N493 C491 1.384 . S
H494 C500 0.930 . S
H495 C504 0.930 . S
H496 C509 0.929 . S
H497 C507 0.929 . S
H498 C502 0.929 . S
H499 C508 0.929 . S
C500 H494 0.930 . S
C500 C501 1.367 . S
C500 C508 1.378 . S
C501 C500 1.367 . S
C501 C509 1.433 . S
C502 H498 0.929 . S
C502 C504 1.378 . S
C502 C506 1.350 . S
C503 C506 1.463 . S
C503 C508 1.350 . S
C503 N511 1.427 . S
C504 H495 0.930 . S
C504 C502 1.378 . S
C504 C505 1.367 . S
C505 C504 1.367 . S
C505 C507 1.433 . S
C506 C502 1.350 . S
C506 C503 1.463 . S
C506 N510 1.427 . S
C507 H497 0.929 . S
C507 C505 1.433 . S
C507 N510 1.384 . S
C508 H499 0.929 . S
C508 C500 1.378 . S
C508 C503 1.350 . S
C509 H496 0.929 . S
C509 C501 1.433 . S
C509 N511 1.384 . S
N510 C506 1.427 . S
N510 C507 1.384 . S
N511 C503 1.427 . S
N511 C509 1.384 . S
H512 C518 0.930 . S
H513 C522 0.930 . S
H514 C527 0.929 . S
H515 C525 0.929 . S
H516 C520 0.929 . S
H517 C526 0.929 . S
C518 H512 0.930 . S
C518 C519 1.367 . S
C518 C526 1.378 . S
C519 C518 1.367 . S
C519 C527 1.433 . S
C520 H516 0.929 . S
C520 C522 1.378 . S
C520 C524 1.350 . S
C521 C524 1.463 . S
C521 C526 1.350 . S
C521 N529 1.427 . S
C522 H513 0.930 . S
C522 C520 1.378 . S
C522 C523 1.367 . S
C523 C522 1.367 . S
C523 C525 1.433 . S
C524 C520 1.350 . S
C524 C521 1.463 . S
C524 N528 1.427 . S
C525 H515 0.929 . S
C525 C523 1.433 . S
C525 N528 1.384 . S
C526 H517 0.929 . S
C526 C518 1.378 . S
C526 C521 1.350 . S
C527 H514 0.929 . S
C527 C519 1.433 . S
C527 N529 1.384 . S
N528 C524 1.427 . S
N528 C525 1.384 . S
N529 C521 1.427 . S
N529 C527 1.384 . S
H530 C536 0.930 . S
H531 C540 0.930 1_545 S
H532 C545 0.929 . S
H533 C543 0.929 . S
H534 C538 0.929 . S
H535 C544 0.929 . S
C536 H530 0.930 . S
C536 C537 1.367 . S
C536 C544 1.378 . S
C537 C536 1.367 . S
C537 C545 1.433 . S
C538 H534 0.929 . S
C538 C540 1.378 . S
C538 C542 1.350 . S
C539 C542 1.463 . S
C539 C544 1.350 . S
C539 N547 1.427 . S
C540 H531 0.930 1_565 S
C540 C538 1.378 . S
C540 C541 1.367 . S
C541 C540 1.367 . S
C541 C543 1.433 . S
C542 C538 1.350 . S
C542 C539 1.463 . S
C542 N546 1.427 . S
C543 H533 0.929 . S
C543 C541 1.433 . S
C543 N546 1.384 . S
C544 H535 0.929 . S
C544 C536 1.378 . S
C544 C539 1.350 . S
C545 H532 0.929 . S
C545 C537 1.433 . S
C545 N547 1.384 . S
N546 C542 1.427 . S
N546 C543 1.384 . S
N547 C539 1.427 . S
N547 C545 1.384 . S
H548 C554 0.930 . S
H549 C558 0.930 . S
H550 C563 0.929 . S
H551 C561 0.929 . S
H552 C556 0.929 . S
H553 C562 0.929 . S
C554 H548 0.930 . S
C554 C555 1.367 . S
C554 C562 1.378 . S
C555 C554 1.367 . S
C555 C563 1.433 . S
C556 H552 0.929 . S
C556 C558 1.378 . S
C556 C560 1.350 . S
C557 C560 1.463 . S
C557 C562 1.350 . S
C557 N565 1.427 . S
C558 H549 0.930 . S
C558 C556 1.378 . S
C558 C559 1.367 . S
C559 C558 1.367 . S
C559 C561 1.433 . S
C560 C556 1.350 . S
C560 C557 1.463 . S
C560 N564 1.427 . S
C561 H551 0.929 . S
C561 C559 1.433 . S
C561 N564 1.384 . S
C562 H553 0.929 . S
C562 C554 1.378 . S
C562 C557 1.350 . S
C563 H550 0.929 . S
C563 C555 1.433 . S
C563 N565 1.384 . S
N564 C560 1.427 . S
N564 C561 1.384 . S
N565 C557 1.427 . S
N565 C563 1.384 . S
H566 C572 0.930 . S
H567 C576 0.930 . S
H568 C581 0.929 . S
H569 C579 0.929 . S
H570 C574 0.929 . S
H571 C580 0.929 . S
C572 H566 0.930 . S
C572 C573 1.367 . S
C572 C580 1.378 . S
C573 C572 1.367 . S
C573 C581 1.433 . S
C574 H570 0.929 . S
C574 C576 1.378 . S
C574 C578 1.350 . S
C575 C578 1.463 . S
C575 C580 1.350 . S
C575 N583 1.427 . S
C576 H567 0.930 . S
C576 C574 1.378 . S
C576 C577 1.367 . S
C577 C576 1.367 . S
C577 C579 1.433 . S
C578 C574 1.350 . S
C578 C575 1.463 . S
C578 N582 1.427 . S
C579 H569 0.929 . S
C579 C577 1.433 . S
C579 N582 1.384 . S
C580 H571 0.929 . S
C580 C572 1.378 . S
C580 C575 1.350 . S
C581 H568 0.929 . S
C581 C573 1.433 . S
C581 N583 1.384 . S
N582 C578 1.427 . S
N582 C579 1.384 . S
N583 C575 1.427 . S
N583 C581 1.384 . S
H584 C590 0.930 . S
H585 C594 0.930 . S
H586 C599 0.929 . S
H587 C597 0.929 . S
H588 C592 0.929 . S
H589 C598 0.929 . S
C590 H584 0.930 . S
C590 C591 1.367 . S
C590 C598 1.378 . S
C591 C590 1.367 . S
C591 C599 1.433 . S
C592 H588 0.929 . S
C592 C594 1.378 . S
C592 C596 1.350 . S
C593 C596 1.463 . S
C593 C598 1.350 . S
C593 N601 1.427 . S
C594 H585 0.930 . S
C594 C592 1.378 . S
C594 C595 1.367 . S
C595 C594 1.367 . S
C595 C597 1.433 . S
C596 C592 1.350 . S
C596 C593 1.463 . S
C596 N600 1.427 . S
C597 H587 0.929 . S
C597 C595 1.433 . S
C597 N600 1.384 . S
C598 H589 0.929 . S
C598 C590 1.378 . S
C598 C593 1.350 . S
C599 H586 0.929 . S
C599 C591 1.433 . S
C599 N601 1.384 . S
N600 C596 1.427 . S
N600 C597 1.384 . S
N601 C593 1.427 . S
N601 C599 1.384 . S
H602 C608 0.930 . S
H603 C612 0.930 . S
H604 C617 0.929 . S
H605 C615 0.929 . S
H606 C610 0.929 . S
H607 C616 0.918 1_545 S
C608 H602 0.930 . S
C608 C609 1.367 . S
C608 C616 1.346 1_545 S
C609 C608 1.367 . S
C609 C617 1.433 1_545 S
C610 H606 0.929 . S
C610 C612 1.378 . S
C610 C614 1.350 . S
C611 C614 1.463 . S
C611 C616 1.394 . S
C611 N619 1.427 . S
C612 H603 0.930 . S
C612 C610 1.378 . S
C612 C613 1.367 . S
C613 C612 1.367 . S
C613 C615 1.433 . S
C614 C610 1.350 . S
C614 C611 1.463 . S
C614 N618 1.427 . S
C615 H605 0.929 . S
C615 C613 1.433 . S
C615 N618 1.384 . S
C616 H607 0.918 1_565 S
C616 C608 1.346 1_565 S
C616 C611 1.394 . S
C617 H604 0.929 . S
C617 C609 1.433 1_565 S
C617 N619 1.384 . S
N618 C614 1.427 . S
N618 C615 1.384 . S
N619 C611 1.427 . S
N619 C617 1.384 . S
H620 C626 0.930 . S
H621 C630 0.930 1_554 S
H622 C635 0.929 . S
H623 C633 0.929 . S
H624 C628 0.929 . S
H625 C634 0.929 . S
C626 H620 0.930 . S
C626 C627 1.367 . S
C626 C634 1.378 . S
C627 C626 1.367 . S
C627 C635 1.433 . S
C628 H624 0.929 . S
C628 C630 1.378 . S
C628 C632 1.350 . S
C629 C632 1.463 . S
C629 C634 1.350 . S
C629 N637 1.427 . S
C630 H621 0.930 1_556 S
C630 C628 1.378 . S
C630 C631 1.367 . S
C631 C630 1.367 . S
C631 C633 1.433 . S
C632 C628 1.350 . S
C632 C629 1.463 . S
C632 N636 1.427 . S
C633 H623 0.929 . S
C633 C631 1.433 . S
C633 N636 1.384 . S
C634 H625 0.929 . S
C634 C626 1.378 . S
C634 C629 1.350 . S
C635 H622 0.929 . S
C635 C627 1.433 . S
C635 N637 1.384 . S
N636 C632 1.427 . S
N636 C633 1.384 . S
N637 C629 1.427 . S
N637 C635 1.384 . S
H638 C644 0.930 . S
H639 C648 0.930 . S
H640 C653 0.929 . S
H641 C651 0.929 . S
H642 C646 0.929 . S
H643 C652 0.929 . S
C644 H638 0.930 . S
C644 C645 1.367 . S
C644 C652 1.378 . S
C645 C644 1.367 . S
C645 C653 1.433 . S
C646 H642 0.929 . S
C646 C648 1.378 . S
C646 C650 1.350 . S
C647 C650 1.463 . S
C647 C652 1.350 . S
C647 N655 1.427 . S
C648 H639 0.930 . S
C648 C646 1.378 . S
C648 C649 1.367 . S
C649 C648 1.367 . S
C649 C651 1.433 . S
C650 C646 1.350 . S
C650 C647 1.463 . S
C650 N654 1.427 . S
C651 H641 0.929 . S
C651 C649 1.433 . S
C651 N654 1.384 . S
C652 H643 0.929 . S
C652 C644 1.378 . S
C652 C647 1.350 . S
C653 H640 0.929 . S
C653 C645 1.433 . S
C653 N655 1.384 . S
N654 C650 1.427 . S
N654 C651 1.384 . S
N655 C647 1.427 . S
N655 C653 1.384 . S
H656 C662 0.930 . S
H657 C666 0.930 . S
H658 C671 0.929 . S
H659 C669 0.929 . S
H660 C664 0.929 . S
H661 C670 0.929 . S
C662 H656 0.930 . S
C662 C663 1.367 . S
C662 C670 1.378 . S
C663 C662 1.367 . S
C663 C671 1.433 . S
C664 H660 0.929 . S
C664 C666 1.378 . S
C664 C668 1.350 . S
C665 C668 1.463 . S
C665 C670 1.350 . S
C665 N673 1.427 . S
C666 H657 0.930 . S
C666 C664 1.378 . S
C666 C667 1.367 . S
C667 C666 1.367 . S
C667 C669 1.433 . S
C668 C664 1.350 . S
C668 C665 1.463 . S
C668 N672 1.427 . S
C669 H659 0.929 . S
C669 C667 1.433 . S
C669 N672 1.384 . S
C670 H661 0.929 . S
C670 C662 1.378 . S
C670 C665 1.350 . S
C671 H658 0.929 . S
C671 C663 1.433 . S
C671 N673 1.384 . S
N672 C668 1.427 . S
N672 C669 1.384 . S
N673 C665 1.427 . S
N673 C671 1.384 . S
H674 C680 0.930 . S
H675 C684 0.930 . S
H676 C689 0.929 . S
H677 C687 0.929 . S
H678 C682 0.929 . S
H679 C688 0.929 . S
C680 H674 0.930 . S
C680 C681 1.367 . S
C680 C688 1.378 . S
C681 C680 1.367 . S
C681 C689 1.433 . S
C682 H678 0.929 . S
C682 C684 1.378 . S
C682 C686 1.350 . S
C683 C686 1.463 . S
C683 C688 1.350 . S
C683 N691 1.427 . S
C684 H675 0.930 . S
C684 C682 1.378 . S
C684 C685 1.367 . S
C685 C684 1.367 . S
C685 C687 1.433 . S
C686 C682 1.350 . S
C686 C683 1.463 . S
C686 N690 1.427 . S
C687 H677 0.929 . S
C687 C685 1.433 . S
C687 N690 1.384 . S
C688 H679 0.929 . S
C688 C680 1.378 . S
C688 C683 1.350 . S
C689 H676 0.929 . S
C689 C681 1.433 . S
C689 N691 1.384 . S
N690 C686 1.427 . S
N690 C687 1.384 . S
N691 C683 1.427 . S
N691 C689 1.384 . S
H692 C698 0.930 . S
H693 C702 0.930 . S
H694 C707 0.929 . S
H695 C705 0.929 . S
H696 C700 0.929 . S
H697 C706 0.929 . S
C698 H692 0.930 . S
C698 C699 1.367 . S
C698 C706 1.378 . S
C699 C698 1.367 . S
C699 C707 1.433 . S
C700 H696 0.929 . S
C700 C702 1.378 . S
C700 C704 1.350 . S
C701 C704 1.463 . S
C701 C706 1.350 . S
C701 N709 1.427 . S
C702 H693 0.930 . S
C702 C700 1.378 . S
C702 C703 1.367 . S
C703 C702 1.367 . S
C703 C705 1.433 . S
C704 C700 1.350 . S
C704 C701 1.463 . S
C704 N708 1.427 . S
C705 H695 0.929 . S
C705 C703 1.433 . S
C705 N708 1.384 . S
C706 H697 0.929 . S
C706 C698 1.378 . S
C706 C701 1.350 . S
C707 H694 0.929 . S
C707 C699 1.433 . S
C707 N709 1.384 . S
N708 C704 1.427 . S
N708 C705 1.384 . S
N709 C701 1.427 . S
N709 C707 1.384 . S
H710 C716 0.930 . S
H711 C720 0.930 . S
H712 C725 0.929 . S
H713 C723 0.929 . S
H714 C718 0.929 . S
H715 C724 0.929 . S
C716 H710 0.930 . S
C716 C717 1.367 . S
C716 C724 1.378 1_545 S
C717 C716 1.367 . S
C717 C725 1.433 1_545 S
C718 H714 0.929 . S
C718 C720 1.378 . S
C718 C722 1.350 . S
C719 C722 1.463 . S
C719 C724 1.350 . S
C719 N727 1.427 . S
C720 H711 0.930 . S
C720 C718 1.378 . S
C720 C721 1.367 . S
C721 C720 1.367 . S
C721 C723 1.433 . S
C722 C718 1.350 . S
C722 C719 1.463 . S
C722 N726 1.427 . S
C723 H713 0.929 . S
C723 C721 1.433 . S
C723 N726 1.384 . S
C724 H715 0.929 . S
C724 C716 1.378 1_565 S
C724 C719 1.350 . S
C725 H712 0.929 . S
C725 C717 1.433 1_565 S
C725 N727 1.384 . S
N726 C722 1.427 . S
N726 C723 1.384 . S
N727 C719 1.427 . S
N727 C725 1.384 . S
H728 C734 0.930 . S
H729 C738 0.930 . S
H730 C743 0.929 . S
H731 C741 0.929 . S
H732 C736 0.929 . S
H733 C742 0.929 . S
C734 H728 0.930 . S
C734 C735 1.367 . S
C734 C742 1.378 . S
C735 C734 1.367 . S
C735 C743 1.433 . S
C736 H732 0.929 . S
C736 C738 1.378 . S
C736 C740 1.350 . S
C737 C740 1.463 . S
C737 C742 1.350 . S
C737 N745 1.427 . S
C738 H729 0.930 . S
C738 C736 1.378 . S
C738 C739 1.367 . S
C739 C738 1.367 . S
C739 C741 1.433 . S
C740 C736 1.350 . S
C740 C737 1.463 . S
C740 N744 1.427 . S
C741 H731 0.929 . S
C741 C739 1.433 . S
C741 N744 1.384 . S
C742 H733 0.929 . S
C742 C734 1.378 . S
C742 C737 1.350 . S
C743 H730 0.929 . S
C743 C735 1.433 . S
C743 N745 1.384 . S
N744 C740 1.427 . S
N744 C741 1.384 . S
N745 C737 1.427 . S
N745 C743 1.384 . S
H746 C752 0.930 . S
H747 C756 0.930 . S
H748 C761 0.929 . S
H749 C759 0.929 . S
H750 C754 0.929 . S
H751 C760 0.929 . S
C752 H746 0.930 . S
C752 C753 1.367 . S
C752 C760 1.378 . S
C753 C752 1.367 . S
C753 C761 1.433 . S
C754 H750 0.929 . S
C754 C756 1.378 . S
C754 C758 1.350 . S
C755 C758 1.463 . S
C755 C760 1.350 . S
C755 N763 1.427 . S
C756 H747 0.930 . S
C756 C754 1.378 . S
C756 C757 1.367 . S
C757 C756 1.367 . S
C757 C759 1.433 . S
C758 C754 1.350 . S
C758 C755 1.463 . S
C758 N762 1.427 . S
C759 H749 0.929 . S
C759 C757 1.433 . S
C759 N762 1.384 . S
C760 H751 0.929 . S
C760 C752 1.378 . S
C760 C755 1.350 . S
C761 H748 0.929 . S
C761 C753 1.433 . S
C761 N763 1.384 . S
N762 C758 1.427 . S
N762 C759 1.384 . S
N763 C755 1.427 . S
N763 C761 1.384 . S
H764 C770 0.930 . S
H765 C774 0.930 . S
H766 C779 0.929 . S
H767 C777 0.929 . S
H768 C772 0.929 . S
H769 C778 0.929 . S
C770 H764 0.930 . S
C770 C771 1.367 . S
C770 C778 1.378 . S
C771 C770 1.367 . S
C771 C779 1.433 . S
C772 H768 0.929 . S
C772 C774 1.378 . S
C772 C776 1.350 . S
C773 C776 1.463 . S
C773 C778 1.350 . S
C773 N781 1.427 . S
C774 H765 0.930 . S
C774 C772 1.378 . S
C774 C775 1.367 . S
C775 C774 1.367 . S
C775 C777 1.433 . S
C776 C772 1.350 . S
C776 C773 1.463 . S
C776 N780 1.427 . S
C777 H767 0.929 . S
C777 C775 1.433 . S
C777 N780 1.384 . S
C778 H769 0.929 . S
C778 C770 1.378 . S
C778 C773 1.350 . S
C779 H766 0.929 . S
C779 C771 1.433 . S
C779 N781 1.384 . S
N780 C776 1.427 . S
N780 C777 1.384 . S
N781 C773 1.427 . S
N781 C779 1.384 . S
H782 C788 0.930 . S
H783 C792 0.930 . S
H784 C797 0.929 1_554 S
H785 C795 0.929 . S
H786 C790 0.929 . S
H787 C796 0.929 . S
C788 H782 0.930 . S
C788 C789 1.367 . S
C788 C796 1.378 . S
C789 C788 1.367 . S
C789 C797 1.433 . S
C790 H786 0.929 . S
C790 C792 1.378 . S
C790 C794 1.350 . S
C791 C794 1.463 . S
C791 C796 1.350 . S
C791 N799 1.427 . S
C792 H783 0.930 . S
C792 C790 1.378 . S
C792 C793 1.367 . S
C793 C792 1.367 . S
C793 C795 1.433 . S
C794 C790 1.350 . S
C794 C791 1.463 . S
C794 N798 1.427 . S
C795 H785 0.929 . S
C795 C793 1.433 . S
C795 N798 1.384 . S
C796 H787 0.929 . S
C796 C788 1.378 . S
C796 C791 1.350 . S
C797 H784 0.929 1_556 S
C797 C789 1.433 . S
C797 N799 1.384 . S
N798 C794 1.427 . S
N798 C795 1.384 . S
N799 C791 1.427 . S
N799 C797 1.384 . S
C231 C6 1.338 . S
C235 C176 1.354 . S
C249 C23 1.820 . S
C253 C79 1.820 . S
C267 C34 1.340 . S
C271 C204 1.347 . S
C285 C107 1.818 . S
C289 C51 1.822 . S
C303 C205 1.825 . S
C307 C36 1.827 . S
C321 C106 1.345 . S
C325 C49 1.344 . S
C339 C177 1.822 . S
C343 C8 1.828 . S
C357 C78 1.354 . S
C361 C21 1.333 . S
C375 C64 1.353 . S
C379 C118 1.335 . S
C393 C92 1.350 . S
C397 C146 1.334 . S
C411 C148 1.825 . S
C415 C93 1.819 . S
C429 C65 1.818 . S
C433 C120 1.821 . S
C447 C191 1.817 . S
C451 C135 1.823 . S
C465 C163 1.821 . S
C469 C219 1.817 . S
C483 C161 1.332 . S
C487 C218 1.353 . S
C501 C133 1.333 . S
C505 C190 1.352 . S
C519 C160 1.564 . S
C523 C7 1.561 . S
C537 C121 1.423 . S
C541 C22 1.415 1_565 S
C555 C35 1.555 . S
C559 C132 1.557 . S
C573 C149 1.421 . S
C577 C50 1.413 . S
C591 C162 1.415 . S
C595 C37 1.418 . S
C609 C48 1.563 . S
C613 C119 1.560 . S
C627 C134 1.421 . S
C631 C9 1.418 . S
C645 C147 1.555 . S
C649 C20 1.556 . S
C663 C62 1.380 . S
C667 C216 1.373 . S
C681 C175 1.543 . S
C685 C77 1.551 . S
C699 C90 1.377 . S
C703 C188 1.379 . S
C717 C105 1.553 . S
C721 C203 1.548 . S
C735 C91 1.543 . S
C739 C217 1.551 . S
C753 C174 1.376 . S
C757 C104 1.371 . S
C771 C189 1.553 . S
C775 C63 1.551 . S
C789 C202 1.378 . S
C793 C76 1.380 . S
