# Generated by pormake.
# Topology yfy, (5)-cn, num edge types: 1
# Building blocks:
#     Node 0, Type 0, BuildingBlock: BEQFEK_clean_sbu_0, # of connection points: 5
#     Node 1, Type 0, BuildingBlock: BEQFEK_clean_sbu_0, # of connection points: 5
#     Node 2, Type 0, BuildingBlock: BEQFEK_clean_sbu_0, # of connection points: 5
#     Node 3, Type 0, BuildingBlock: BEQFEK_clean_sbu_0, # of connection points: 5
#     Node 4, Type 0, BuildingBlock: BEQFEK_clean_sbu_0, # of connection points: 5
#     Node 5, Type 0, BuildingBlock: BEQFEK_clean_sbu_0, # of connection points: 5
#     Node 6, Type 0, BuildingBlock: BEQFEK_clean_sbu_0, # of connection points: 5
#     Node 7, Type 0, BuildingBlock: BEQFEK_clean_sbu_0, # of connection points: 5
#     Node 8, Type 0, BuildingBlock: BEQFEK_clean_sbu_0, # of connection points: 5
#     Node 9, Type 0, BuildingBlock: BEQFEK_clean_sbu_0, # of connection points: 5
#     Node 10, Type 0, BuildingBlock: BEQFEK_clean_sbu_0, # of connection points: 5
#     Node 11, Type 0, BuildingBlock: BEQFEK_clean_sbu_0, # of connection points: 5
#     Node 12, Type 0, BuildingBlock: BEQFEK_clean_sbu_0, # of connection points: 5
#     Node 13, Type 0, BuildingBlock: BEQFEK_clean_sbu_0, # of connection points: 5
#     Node 14, Type 0, BuildingBlock: BEQFEK_clean_sbu_0, # of connection points: 5
#     Node 15, Type 0, BuildingBlock: BEQFEK_clean_sbu_0, # of connection points: 5
#     Edge 16, Type (0, 0), BuildingBlock: KIFKEQ_clean_linker_1, # of connection points: 2
#     Edge 17, Type (0, 0), BuildingBlock: KIFKEQ_clean_linker_1, # of connection points: 2
#     Edge 18, Type (0, 0), BuildingBlock: KIFKEQ_clean_linker_1, # of connection points: 2
#     Edge 19, Type (0, 0), BuildingBlock: KIFKEQ_clean_linker_1, # of connection points: 2
#     Edge 20, Type (0, 0), BuildingBlock: KIFKEQ_clean_linker_1, # of connection points: 2
#     Edge 21, Type (0, 0), BuildingBlock: KIFKEQ_clean_linker_1, # of connection points: 2
#     Edge 22, Type (0, 0), BuildingBlock: KIFKEQ_clean_linker_1, # of connection points: 2
#     Edge 23, Type (0, 0), BuildingBlock: KIFKEQ_clean_linker_1, # of connection points: 2
#     Edge 24, Type (0, 0), BuildingBlock: KIFKEQ_clean_linker_1, # of connection points: 2
#     Edge 25, Type (0, 0), BuildingBlock: KIFKEQ_clean_linker_1, # of connection points: 2
#     Edge 26, Type (0, 0), BuildingBlock: KIFKEQ_clean_linker_1, # of connection points: 2
#     Edge 27, Type (0, 0), BuildingBlock: KIFKEQ_clean_linker_1, # of connection points: 2
#     Edge 28, Type (0, 0), BuildingBlock: KIFKEQ_clean_linker_1, # of connection points: 2
#     Edge 29, Type (0, 0), BuildingBlock: KIFKEQ_clean_linker_1, # of connection points: 2
#     Edge 30, Type (0, 0), BuildingBlock: KIFKEQ_clean_linker_1, # of connection points: 2
#     Edge 31, Type (0, 0), BuildingBlock: KIFKEQ_clean_linker_1, # of connection points: 2
#     Edge 32, Type (0, 0), BuildingBlock: KIFKEQ_clean_linker_1, # of connection points: 2
#     Edge 33, Type (0, 0), BuildingBlock: KIFKEQ_clean_linker_1, # of connection points: 2
#     Edge 34, Type (0, 0), BuildingBlock: KIFKEQ_clean_linker_1, # of connection points: 2
#     Edge 35, Type (0, 0), BuildingBlock: KIFKEQ_clean_linker_1, # of connection points: 2
#     Edge 36, Type (0, 0), BuildingBlock: KIFKEQ_clean_linker_1, # of connection points: 2
#     Edge 37, Type (0, 0), BuildingBlock: KIFKEQ_clean_linker_1, # of connection points: 2
#     Edge 38, Type (0, 0), BuildingBlock: KIFKEQ_clean_linker_1, # of connection points: 2
#     Edge 39, Type (0, 0), BuildingBlock: KIFKEQ_clean_linker_1, # of connection points: 2
#     Edge 40, Type (0, 0), BuildingBlock: KIFKEQ_clean_linker_1, # of connection points: 2
#     Edge 41, Type (0, 0), BuildingBlock: KIFKEQ_clean_linker_1, # of connection points: 2
#     Edge 42, Type (0, 0), BuildingBlock: KIFKEQ_clean_linker_1, # of connection points: 2
#     Edge 43, Type (0, 0), BuildingBlock: KIFKEQ_clean_linker_1, # of connection points: 2
#     Edge 44, Type (0, 0), BuildingBlock: KIFKEQ_clean_linker_1, # of connection points: 2
#     Edge 45, Type (0, 0), BuildingBlock: KIFKEQ_clean_linker_1, # of connection points: 2
#     Edge 46, Type (0, 0), BuildingBlock: KIFKEQ_clean_linker_1, # of connection points: 2
#     Edge 47, Type (0, 0), BuildingBlock: KIFKEQ_clean_linker_1, # of connection points: 2
#     Edge 48, Type (0, 0), BuildingBlock: KIFKEQ_clean_linker_1, # of connection points: 2
#     Edge 49, Type (0, 0), BuildingBlock: KIFKEQ_clean_linker_1, # of connection points: 2
#     Edge 50, Type (0, 0), BuildingBlock: KIFKEQ_clean_linker_1, # of connection points: 2
#     Edge 51, Type (0, 0), BuildingBlock: KIFKEQ_clean_linker_1, # of connection points: 2
#     Edge 52, Type (0, 0), BuildingBlock: KIFKEQ_clean_linker_1, # of connection points: 2
#     Edge 53, Type (0, 0), BuildingBlock: KIFKEQ_clean_linker_1, # of connection points: 2
#     Edge 54, Type (0, 0), BuildingBlock: KIFKEQ_clean_linker_1, # of connection points: 2
#     Edge 55, Type (0, 0), BuildingBlock: KIFKEQ_clean_linker_1, # of connection points: 2
# Relax obj value: 0.038
# Max RMSD: 0.075
# Mean RMSD: 0.075
data_MOF--net-yfy--node1-BEQFEK_clean_sbu_0--edge1-KIFKEQ_clean_linker_1
_symmetry_space_group_name_H-M    P1
_symmetry_Int_Tables_number       1
_symmetry_cell_setting            triclinic
loop_
_symmetry_equiv_pos_as_xyz
'x, y, z'
_cell_length_a     48.417195
_cell_length_b     48.425574
_cell_length_c     44.503412
_cell_angle_alpha  90.03372
_cell_angle_beta   89.979734
_cell_angle_gamma 90.021767
loop_
_atom_site_label
_atom_site_type_symbol
_atom_site_fract_x
_atom_site_fract_y
_atom_site_fract_z
_atom_type_partial_charge
Co0 Co 0.12628 0.29433 0.3394 0.0
Co1 Co 0.08498 0.34351 0.33081 0.0
C2 C 0.06835 0.28714 0.31363 0.0
O3 O 0.09169 0.2778 0.32219 0.0
O4 O 0.06312 0.31284 0.31454 0.0
C5 C 0.16199 0.25453 0.31253 0.0
O6 O 0.152 0.26519 0.28767 0.0
C7 C 0.04755 0.38396 0.30366 0.0
C8 C 0.04821 0.41762 0.33726 0.0
C9 C 0.03671 0.40979 0.31009 0.0
N10 N 0.06487 0.37694 0.32595 0.0
N11 N 0.06519 0.39712 0.34596 0.0
C12 C 0.04012 0.3651 0.27824 0.0
H13 H 0.05869 0.35361 0.27064 0.0
H14 H 0.03083 0.37638 0.25912 0.0
H15 H 0.02485 0.34976 0.28642 0.0
C16 C 0.16369 0.3347 0.30834 0.0
N17 N 0.13863 0.32643 0.31824 0.0
N18 N 0.12063 0.34624 0.31317 0.0
C19 C 0.13338 0.36726 0.29897 0.0
C20 C 0.16125 0.36091 0.29572 0.0
C21 C 0.18995 0.31932 0.31416 0.0
H22 H 0.188 0.30656 0.33473 0.0
H23 H 0.19435 0.30555 0.29481 0.0
H24 H 0.20757 0.33379 0.3168 0.0
O25 O 0.11832 0.30385 0.38204 0.0
O26 O 0.08773 0.33739 0.37468 0.0
H27 H 0.11437 0.40632 0.30767 0.0
H28 H 0.13138 0.40419 0.27151 0.0
C29 C 0.11887 0.3927 0.28822 0.0
H30 H 0.09907 0.38688 0.27754 0.0
H31 H 0.07681 0.39678 0.36569 0.0
O32 O 0.15436 0.26439 0.33771 0.0
C33 C 0.10124 0.3216 0.39221 0.0
Co34 Co 0.86299 0.1261 0.33881 0.0
Co35 Co 0.8127 0.08527 0.33366 0.0
C36 C 0.86905 0.06726 0.31632 0.0
O37 O 0.87881 0.09091 0.32298 0.0
O38 O 0.84336 0.06225 0.31867 0.0
C39 C 0.90936 0.15341 0.31297 0.0
O40 O 0.90641 0.13373 0.2929 0.0
C41 C 0.77201 0.04747 0.30766 0.0
C42 C 0.73825 0.04904 0.34109 0.0
C43 C 0.74601 0.03701 0.31415 0.0
N44 N 0.77914 0.06512 0.32962 0.0
N45 N 0.75892 0.06594 0.34958 0.0
C46 C 0.7909 0.03954 0.28244 0.0
H47 H 0.80738 0.02595 0.29143 0.0
H48 H 0.80104 0.05826 0.2732 0.0
H49 H 0.78003 0.02824 0.26433 0.0
C50 C 0.82304 0.1624 0.30647 0.0
N51 N 0.83078 0.13761 0.31749 0.0
N52 N 0.81034 0.12 0.31406 0.0
C53 C 0.7892 0.13278 0.30013 0.0
C54 C 0.79629 0.16026 0.29513 0.0
C55 C 0.83982 0.18816 0.30996 0.0
H56 H 0.85053 0.18804 0.33199 0.0
H57 H 0.85576 0.18879 0.29205 0.0
H58 H 0.82682 0.20695 0.30834 0.0
O59 O 0.8541 0.11952 0.382 0.0
O60 O 0.81852 0.09078 0.37721 0.0
H61 H 0.75029 0.1151 0.31233 0.0
H62 H 0.75048 0.13131 0.27568 0.0
C63 C 0.7627 0.11881 0.29176 0.0
H64 H 0.76724 0.09864 0.28117 0.0
H65 H 0.75931 0.07794 0.36904 0.0
O66 O 0.89263 0.15455 0.33503 0.0
C67 C 0.83538 0.10429 0.39356 0.0
Co68 Co 0.03307 0.86394 0.33735 0.0
Co69 Co 0.07271 0.81284 0.33205 0.0
C70 C 0.09169 0.86905 0.31459 0.0
O71 O 0.06826 0.87932 0.32126 0.0
O72 O 0.09619 0.84326 0.31702 0.0
C73 C 1.00545 0.9107 0.31275 0.0
O74 O 0.02497 0.90834 0.2924 0.0
C75 C 0.10875 0.77141 0.30472 0.0
C76 C 0.10897 0.73857 0.33917 0.0
C77 C 0.11974 0.74556 0.3113 0.0
N78 N 0.09249 0.77918 0.32766 0.0
N79 N 0.09275 0.75953 0.34823 0.0
C80 C 0.11189 0.78794 0.27653 0.0
H81 H 0.09402 0.80206 0.27367 0.0
H82 H 0.11359 0.77418 0.25667 0.0
H83 H 0.13088 0.8007 0.27812 0.0
C84 C 0.99639 0.82565 0.3033 0.0
N85 N 0.02099 0.83221 0.31564 0.0
N86 N 0.0379 0.81111 0.31259 0.0
C87 C 0.02469 0.79062 0.29791 0.0
C88 C 0.99801 0.79918 0.29147 0.0
C89 C 0.97161 0.84408 0.30379 0.0
H90 H 0.97562 0.86231 0.28936 0.0
H91 H 0.9529 0.83327 0.29546 0.0
H92 H 0.968 0.8516 0.32702 0.0
O93 O 0.03981 0.8548 0.38046 0.0
O94 O 0.06772 0.81864 0.37558 0.0
H95 H 0.02129 0.7484 0.28201 0.0
H96 H 0.0548 0.76426 0.27768 0.0
C97 C 0.03653 0.7625 0.29256 0.0
H98 H 0.04339 0.75354 0.31423 0.0
H99 H 0.08184 0.76043 0.36842 0.0
O100 O 1.00471 0.89359 0.33444 0.0
C101 C 0.05473 0.83584 0.39197 0.0
Co102 Co 0.2957 0.03169 0.33855 0.0
Co103 Co 0.34583 0.07242 0.33249 0.0
C104 C 0.28922 0.09042 0.31607 0.0
O105 O 0.27961 0.06691 0.32353 0.0
O106 O 0.31501 0.0954 0.31727 0.0
C107 C 0.24966 1.00373 0.31322 0.0
O108 O 0.25249 0.02319 0.2929 0.0
C109 C 0.38709 0.10849 0.30488 0.0
C110 C 0.41891 0.11102 0.34044 0.0
C111 C 0.41231 0.12045 0.31196 0.0
N112 N 0.37927 0.09259 0.32809 0.0
N113 N 0.39837 0.09412 0.34923 0.0
C114 C 0.36915 0.11396 0.27815 0.0
H115 H 0.35446 0.13074 0.28385 0.0
H116 H 0.35693 0.09524 0.2726 0.0
H117 H 0.38129 0.12057 0.25834 0.0
C118 C 0.33442 0.99576 0.30419 0.0
N119 N 0.3274 0.02031 0.31632 0.0
N120 N 0.34813 0.03763 0.31304 0.0
C121 C 0.36886 0.02475 0.2984 0.0
C122 C 0.36086 0.99779 0.29226 0.0
C123 C 0.31637 0.97068 0.30489 0.0
H124 H 0.3094 0.96681 0.32827 0.0
H125 H 0.29778 0.97452 0.29097 0.0
H126 H 0.32718 0.95218 0.29607 0.0
O127 O 0.3052 0.03807 0.38154 0.0
O128 O 0.34024 0.06734 0.37617 0.0
H129 H 0.40536 0.0445 0.31491 0.0
H130 H 0.4114 0.02206 0.2832 0.0
C131 C 0.39681 0.03711 0.29324 0.0
H132 H 0.39482 0.05511 0.27801 0.0
H133 H 0.39721 0.08391 0.36983 0.0
O134 O 0.2663 1.00306 0.33535 0.0
C135 C 0.32376 0.05367 0.3928 0.0
Co136 Co 0.12543 0.86395 0.66671 0.0
Co137 Co 0.08614 0.81265 0.67282 0.0
C138 C 0.06744 0.86897 0.69079 0.0
O139 O 0.09084 0.87937 0.68422 0.0
O140 O 0.06297 0.84324 0.68785 0.0
C141 C 0.15836 0.90584 0.6936 0.0
O142 O 0.14638 0.89662 0.71813 0.0
C143 C 0.05166 0.77006 0.70163 0.0
C144 C 0.04599 0.74052 0.66426 0.0
C145 C 0.03862 0.74555 0.69382 0.0
N146 N 0.06617 0.779 0.67776 0.0
N147 N 0.0628 0.76116 0.65557 0.0
C148 C 0.04873 0.7858 0.73042 0.0
H149 H 0.05737 0.80689 0.72827 0.0
H150 H 0.06015 0.77501 0.74852 0.0
H151 H 0.02666 0.78684 0.73708 0.0
C152 C 0.16348 0.82503 0.6988 0.0
N153 N 0.13847 0.83199 0.68765 0.0
N154 N 0.12148 0.81099 0.69127 0.0
C155 C 0.13498 0.79031 0.70527 0.0
C156 C 0.16194 0.79857 0.71065 0.0
C157 C 0.18865 0.8429 0.69712 0.0
H158 H 0.18815 0.85801 0.71583 0.0
H159 H 0.20783 0.83055 0.69927 0.0
H160 H 0.18895 0.85437 0.67556 0.0
O161 O 0.1174 0.85497 0.62381 0.0
O162 O 0.09021 0.8183 0.62915 0.0
H163 H 0.13897 0.74753 0.71906 0.0
H164 H 0.10635 0.76373 0.72749 0.0
C165 C 0.12315 0.76219 0.71068 0.0
H166 H 0.11428 0.75402 0.6895 0.0
H167 H 0.07151 0.76338 0.63426 0.0
O168 O 0.15289 0.8944 0.66856 0.0
C169 C 0.10254 0.83581 0.61255 0.0
Co170 Co 0.29476 0.12652 0.66588 0.0
Co171 Co 0.34432 0.08534 0.6743 0.0
C172 C 0.28788 0.06798 0.69021 0.0
O173 O 0.2788 0.0914 0.68166 0.0
O174 O 0.31361 0.0626 0.68993 0.0
C175 C 0.24924 0.15478 0.69159 0.0
O176 O 0.2529 0.13599 0.71248 0.0
C177 C 0.3855 0.04609 0.69786 0.0
C178 C 0.4225 0.05792 0.67172 0.0
C179 C 0.41329 0.04023 0.69399 0.0
N180 N 0.37857 0.0664 0.67871 0.0
N181 N 0.4007 0.07311 0.66289 0.0
C182 C 0.36641 0.03438 0.72102 0.0
H183 H 0.35279 0.05088 0.72996 0.0
H184 H 0.37803 0.02472 0.73975 0.0
H185 H 0.35316 0.01848 0.71031 0.0
C186 C 0.33409 0.16344 0.69818 0.0
N187 N 0.32642 0.13843 0.68768 0.0
N188 N 0.34629 0.12059 0.69294 0.0
C189 C 0.36683 0.13342 0.70787 0.0
C190 C 0.36012 0.1612 0.71128 0.0
C191 C 0.31801 0.18936 0.69278 0.0
H192 H 0.30729 0.1882 0.6708 0.0
H193 H 0.30216 0.19157 0.71064 0.0
H194 H 0.33158 0.20781 0.69309 0.0
O195 O 0.30434 0.11928 0.62326 0.0
O196 O 0.33864 0.08945 0.63031 0.0
H197 H 0.40748 0.11739 0.70097 0.0
H198 H 0.40158 0.13083 0.73823 0.0
C199 C 0.39214 0.11917 0.71937 0.0
H200 H 0.38677 0.09817 0.72733 0.0
H201 H 0.40106 0.08859 0.64661 0.0
O202 O 0.26516 0.15494 0.66883 0.0
C203 C 0.32267 0.10292 0.6129 0.0
Co204 Co 0.03242 0.29407 0.66619 0.0
Co205 Co 0.07206 0.34479 0.67463 0.0
C206 C 0.09081 0.28887 0.69112 0.0
O207 O 0.06762 0.2789 0.68294 0.0
O208 O 0.09542 0.31472 0.6901 0.0
C209 C 0.99984 0.2521 0.69323 0.0
O210 O 0.01137 0.26199 0.7177 0.0
C211 C 0.1101 0.38637 0.69941 0.0
C212 C 0.09883 0.4233 0.67292 0.0
C213 C 0.11593 0.41416 0.69574 0.0
N214 N 0.09036 0.37932 0.67961 0.0
N215 N 0.08398 0.4014 0.66358 0.0
C216 C 0.12147 0.36733 0.72277 0.0
H217 H 0.10479 0.35382 0.73154 0.0
H218 H 0.13102 0.37898 0.74158 0.0
H219 H 0.13742 0.35397 0.71231 0.0
C220 C 0.99424 0.33215 0.69905 0.0
N221 N 0.01931 0.32534 0.68798 0.0
N222 N 0.03661 0.34576 0.69322 0.0
C223 C 0.02338 0.36564 0.70887 0.0
C224 C 0.99611 0.35774 0.71295 0.0
C225 C 0.96871 0.31509 0.6953 0.0
H226 H 0.96934 0.30381 0.67362 0.0
H227 H 0.96757 0.29982 0.71383 0.0
H228 H 0.94987 0.32809 0.69629 0.0
O229 O 0.03963 0.30412 0.6236 0.0
O230 O 0.06894 0.33886 0.63069 0.0
H231 H 0.03788 0.40598 0.69778 0.0
H232 H 0.02312 0.40352 0.73476 0.0
C233 C 0.03598 0.39261 0.71789 0.0
H234 H 0.05686 0.38909 0.72733 0.0
H235 H 0.06899 0.40166 0.64676 0.0
O236 O 1.0054 0.2632 0.66803 0.0
C237 C 0.05588 0.32256 0.61328 0.0
Co238 Co 0.86343 0.03086 0.66627 0.0
Co239 Co 0.81464 0.07292 0.67554 0.0
C240 C 0.87149 0.08897 0.69142 0.0
O241 O 0.88019 0.06559 0.68227 0.0
O242 O 0.84584 0.09464 0.69162 0.0
C243 C 0.90785 1.0015 0.69225 0.0
O244 O 0.90359 0.01972 0.71363 0.0
C245 C 0.77443 0.11488 0.69652 0.0
C246 C 0.73604 0.09931 0.67568 0.0
C247 C 0.74613 0.11969 0.69459 0.0
N248 N 0.78045 0.09224 0.68024 0.0
N249 N 0.75748 0.08337 0.66744 0.0
C250 C 0.79585 0.1326 0.71125 0.0
H251 H 0.81381 0.1349 0.69605 0.0
H252 H 0.80299 0.1225 0.73223 0.0
H253 H 0.78787 0.15353 0.71637 0.0
C254 C 0.8235 0.99438 0.69838 0.0
N255 N 0.83158 0.01932 0.68804 0.0
N256 N 0.81219 0.03755 0.69389 0.0
C257 C 0.79173 0.02508 0.70932 0.0
C258 C 0.7978 0.9971 0.71219 0.0
C259 C 0.83889 0.96816 0.69234 0.0
H260 H 0.84995 0.96958 0.67056 0.0
H261 H 0.85438 0.96496 0.71037 0.0
H262 H 0.82474 0.95015 0.69182 0.0
O263 O 0.85391 0.0386 0.62383 0.0
O264 O 0.82033 0.06914 0.63142 0.0
H265 H 0.75061 0.04085 0.70561 0.0
H266 H 0.75957 0.02898 0.74262 0.0
C267 C 0.76743 0.03993 0.72245 0.0
H268 H 0.77331 0.06126 0.72885 0.0
H269 H 0.75637 0.06605 0.65355 0.0
O270 O 0.8926 1.00201 0.66896 0.0
C271 C 0.83596 0.0555 0.61376 0.0
Co272 Co 0.62527 0.79436 0.83856 0.0
Co273 Co 0.58335 0.84294 0.82883 0.0
C274 C 0.5671 0.78667 0.81254 0.0
O275 O 0.5903 0.77799 0.8223 0.0
O276 O 0.56152 0.81233 0.81193 0.0
C277 C 0.65445 0.7494 0.813 0.0
O278 O 0.63611 0.75323 0.79166 0.0
C279 C 0.54406 0.88409 0.80521 0.0
C280 C 0.55634 0.92123 0.83085 0.0
C281 C 0.53853 0.91196 0.80874 0.0
N282 N 0.56433 0.87715 0.8244 0.0
N283 N 0.57128 0.89935 0.83996 0.0
C284 C 0.53204 0.86488 0.78235 0.0
H285 H 0.54872 0.85235 0.77203 0.0
H286 H 0.52073 0.8763 0.76458 0.0
H287 H 0.51755 0.85054 0.79374 0.0
C288 C 0.66226 0.83414 0.80709 0.0
N289 N 0.63716 0.82607 0.817 0.0
N290 N 0.61909 0.8456 0.81124 0.0
C291 C 0.63185 0.86625 0.79641 0.0
C292 C 0.65983 0.86005 0.79373 0.0
C293 C 0.68833 0.81856 0.81328 0.0
H294 H 0.68669 0.8075 0.83502 0.0
H295 H 0.69153 0.80305 0.79525 0.0
H296 H 0.70646 0.83257 0.81395 0.0
O297 O 0.61776 0.80415 0.88101 0.0
O298 O 0.58591 0.83638 0.8729 0.0
H299 H 0.61516 0.90682 0.80193 0.0
H300 H 0.62899 0.90016 0.76502 0.0
C301 C 0.6173 0.89103 0.78403 0.0
H302 H 0.59643 0.88517 0.77603 0.0
H303 H 0.58685 0.89974 0.85615 0.0
O304 O 0.65398 0.76502 0.836 0.0
C305 C 0.59987 0.82128 0.89077 0.0
Co306 Co 0.36334 0.62409 0.83712 0.0
Co307 Co 0.31253 0.58421 0.83089 0.0
C308 C 0.36844 0.56548 0.81334 0.0
O309 O 0.37845 0.58901 0.82017 0.0
O310 O 0.34271 0.56063 0.81579 0.0
C311 C 0.40401 0.65826 0.80925 0.0
O312 O 0.39319 0.64793 0.78461 0.0
C313 C 0.27074 0.54543 0.80779 0.0
C314 C 0.23402 0.55771 0.83416 0.0
C315 C 0.2429 0.53993 0.81182 0.0
N316 N 0.27802 0.56566 0.82692 0.0
N317 N 0.25607 0.57262 0.8429 0.0
C318 C 0.28954 0.53349 0.7845 0.0
H319 H 0.3032 0.54986 0.77535 0.0
H320 H 0.27769 0.52379 0.76594 0.0
H321 H 0.30276 0.51755 0.79515 0.0
C322 C 0.32371 0.66184 0.80562 0.0
N323 N 0.33138 0.63681 0.81611 0.0
N324 N 0.31113 0.61918 0.81152 0.0
C325 C 0.29047 0.63211 0.79691 0.0
C326 C 0.29745 0.65973 0.79308 0.0
C327 C 0.33973 0.68785 0.81078 0.0
H328 H 0.35259 0.68598 0.83129 0.0
H329 H 0.35345 0.69158 0.79124 0.0
H330 H 0.32569 0.70583 0.81316 0.0
O331 O 0.35443 0.61689 0.88002 0.0
O332 O 0.31835 0.58895 0.87463 0.0
H333 H 0.24978 0.61666 0.80512 0.0
H334 H 0.25491 0.62985 0.76766 0.0
C335 C 0.26468 0.61814 0.78626 0.0
H336 H 0.26954 0.59704 0.77821 0.0
H337 H 0.25599 0.58812 0.85919 0.0
O338 O 0.39394 0.65139 0.83459 0.0
C339 C 0.33545 0.60183 0.89127 0.0
Co340 Co 0.53308 0.36336 0.83794 0.0
Co341 Co 0.57318 0.31275 0.8311 0.0
C342 C 0.59168 0.3691 0.81443 0.0
O343 O 0.56817 0.37902 0.82146 0.0
O344 O 0.59649 0.34334 0.81642 0.0
C345 C 0.50434 0.40863 0.81217 0.0
O346 O 0.52279 0.40483 0.7909 0.0
C347 C 0.6118 0.272 0.80608 0.0
C348 C 0.60185 0.23491 0.83293 0.0
C349 C 0.61841 0.24437 0.80975 0.0
N350 N 0.59219 0.27861 0.82622 0.0
N351 N 0.58656 0.25644 0.84242 0.0
C352 C 0.62194 0.29117 0.78213 0.0
H353 H 0.60507 0.30519 0.77498 0.0
H354 H 0.62979 0.27957 0.76239 0.0
H355 H 0.63897 0.30393 0.79139 0.0
C356 C 0.49565 0.32423 0.80587 0.0
N357 N 0.52071 0.3316 0.8165 0.0
N358 N 0.53818 0.31125 0.81191 0.0
C359 C 0.52507 0.29067 0.79734 0.0
C360 C 0.49749 0.29789 0.79342 0.0
C361 C 0.46999 0.34089 0.81063 0.0
H362 H 0.47085 0.35145 0.83273 0.0
H363 H 0.46863 0.3569 0.79286 0.0
H364 H 0.45121 0.32779 0.80969 0.0
O365 O 0.54036 0.35402 0.88078 0.0
O366 O 0.56851 0.31814 0.87492 0.0
H367 H 0.54077 0.25018 0.80592 0.0
H368 H 0.52688 0.25466 0.76861 0.0
C369 C 0.53886 0.26474 0.78682 0.0
H370 H 0.55979 0.26954 0.77823 0.0
H371 H 0.5718 0.25586 0.85948 0.0
O372 O 0.50469 0.39298 0.83513 0.0
C373 C 0.55559 0.33504 0.89177 0.0
Co374 Co 0.79496 0.53304 0.83749 0.0
Co375 Co 0.8456 0.57336 0.83219 0.0
C376 C 0.78931 0.59157 0.8144 0.0
O377 O 0.77925 0.56805 0.82111 0.0
O378 O 0.81505 0.59634 0.81687 0.0
C379 C 0.74926 0.50449 0.81179 0.0
O380 O 0.75241 0.52342 0.79093 0.0
C381 C 0.88668 0.61061 0.80593 0.0
C382 C 0.91991 0.60972 0.84 0.0
C383 C 0.91254 0.62128 0.81271 0.0
N384 N 0.87926 0.59332 0.82811 0.0
N385 N 0.89917 0.59289 0.84842 0.0
C386 C 0.86813 0.6181 0.78029 0.0
H387 H 0.85805 0.59922 0.77133 0.0
H388 H 0.87928 0.629 0.7621 0.0
H389 H 0.85159 0.63191 0.78875 0.0
C390 C 0.83453 0.49621 0.80529 0.0
N391 N 0.82712 0.5211 0.81635 0.0
N392 N 0.84787 0.53839 0.81312 0.0
C393 C 0.86897 0.52523 0.7995 0.0
C394 C 0.86141 0.49793 0.79428 0.0
C395 C 0.81728 0.47072 0.8084 0.0
H396 H 0.8072 0.47043 0.83078 0.0
H397 H 0.80083 0.47101 0.79105 0.0
H398 H 0.82978 0.4517 0.80565 0.0
O399 O 0.8037 0.54014 0.88064 0.0
O400 O 0.83951 0.56853 0.8757 0.0
H401 H 0.90772 0.54258 0.81276 0.0
H402 H 0.90849 0.52562 0.7765 0.0
C403 C 0.89594 0.53862 0.79182 0.0
H404 H 0.89205 0.55866 0.78065 0.0
H405 H 0.8985 0.58125 0.86812 0.0
O406 O 0.76549 0.50444 0.83428 0.0
C407 C 0.82243 0.55541 0.89212 0.0
Co408 Co 0.62566 0.36334 0.16624 0.0
Co409 Co 0.58504 0.31302 0.1728 0.0
C410 C 0.56703 0.36988 0.18874 0.0
O411 O 0.59054 0.37949 0.18133 0.0
O412 O 0.56207 0.34411 0.18752 0.0
C413 C 0.65321 0.40969 0.19119 0.0
O414 O 0.63366 0.4069 0.21143 0.0
C415 C 0.54987 0.27062 0.20106 0.0
C416 C 0.5453 0.24071 0.16385 0.0
C417 C 0.53728 0.24588 0.19319 0.0
N418 N 0.56477 0.27953 0.17746 0.0
N419 N 0.56202 0.26148 0.15536 0.0
C420 C 0.5463 0.28651 0.22968 0.0
H421 H 0.52426 0.28649 0.23655 0.0
H422 H 0.55382 0.30798 0.22721 0.0
H423 H 0.55843 0.27655 0.2478 0.0
C424 C 0.66182 0.32506 0.20072 0.0
N425 N 0.63719 0.33181 0.1886 0.0
N426 N 0.62003 0.31095 0.19197 0.0
C427 C 0.63317 0.29035 0.20654 0.0
C428 C 0.66001 0.29867 0.2127 0.0
C429 C 0.68681 0.34321 0.19984 0.0
H430 H 0.68311 0.36162 0.21412 0.0
H431 H 0.70546 0.3323 0.20812 0.0
H432 H 0.69033 0.35047 0.17651 0.0
O433 O 0.61911 0.35356 0.12336 0.0
O434 O 0.59002 0.3184 0.12904 0.0
H435 H 0.61273 0.25406 0.1904 0.0
H436 H 0.63692 0.24761 0.22049 0.0
C437 C 0.62124 0.26225 0.21174 0.0
H438 H 0.60416 0.26381 0.2282 0.0
H439 H 0.57121 0.26358 0.13428 0.0
O440 O 0.65414 0.39286 0.16922 0.0
C441 C 0.60355 0.33489 0.11226 0.0
Co442 Co 0.79506 0.62549 0.16722 0.0
Co443 Co 0.84524 0.58455 0.173 0.0
C444 C 0.78844 0.56715 0.19024 0.0
O445 O 0.77873 0.59081 0.18363 0.0
O446 O 0.81409 0.56205 0.18772 0.0
C447 C 0.74964 0.65432 0.19278 0.0
O448 O 0.7528 0.63544 0.21369 0.0
C449 C 0.88702 0.54789 0.20019 0.0
C450 C 0.91765 0.545 0.16349 0.0
C451 C 0.91189 0.53571 0.19223 0.0
N452 N 0.87858 0.5639 0.17727 0.0
N453 N 0.89703 0.5621 0.15545 0.0
C454 C 0.87083 0.54318 0.22842 0.0
H455 H 0.84958 0.55133 0.22636 0.0
H456 H 0.88098 0.55398 0.24739 0.0
H457 H 0.87027 0.5208 0.2338 0.0
C458 C 0.83507 0.66209 0.19898 0.0
N459 N 0.82732 0.63713 0.18839 0.0
N460 N 0.84785 0.61963 0.19186 0.0
C461 C 0.86914 0.63274 0.2052 0.0
C462 C 0.86194 0.66021 0.20997 0.0
C463 C 0.8182 0.68776 0.19531 0.0
H464 H 0.80799 0.68768 0.173 0.0
H465 H 0.80185 0.68813 0.21279 0.0
H466 H 0.83101 0.70665 0.19741 0.0
O467 O 0.8039 0.61809 0.12418 0.0
O468 O 0.83945 0.58943 0.1294 0.0
H469 H 0.90733 0.61412 0.19202 0.0
H470 H 0.90898 0.63229 0.22759 0.0
C471 C 0.89594 0.61912 0.21296 0.0
H472 H 0.89174 0.59963 0.22505 0.0
H473 H 0.89535 0.57225 0.13486 0.0
O474 O 0.76586 0.65433 0.17026 0.0
C475 C 0.82254 0.60263 0.11285 0.0
Co476 Co 0.53298 0.79521 0.1665 0.0
Co477 Co 0.57378 0.8455 0.17254 0.0
C478 C 0.59154 0.78888 0.18946 0.0
O479 O 0.56808 0.77903 0.18216 0.0
O480 O 0.59636 0.81464 0.18777 0.0
C481 C 0.50532 0.74851 0.1911 0.0
O482 O 0.52505 0.75091 0.21118 0.0
C483 C 0.6084 0.88787 0.20132 0.0
C484 C 0.61563 0.91662 0.16356 0.0
C485 C 0.62206 0.91202 0.19347 0.0
N486 N 0.59443 0.87874 0.17716 0.0
N487 N 0.59875 0.89609 0.15473 0.0
C488 C 0.61024 0.87257 0.23047 0.0
H489 H 0.6017 0.85144 0.22827 0.0
H490 H 0.59813 0.8836 0.24787 0.0
H491 H 0.63203 0.87165 0.23814 0.0
C492 C 0.49685 0.83402 0.20042 0.0
N493 N 0.52149 0.82703 0.18848 0.0
N494 N 0.53859 0.84803 0.19125 0.0
C495 C 0.52535 0.86901 0.20509 0.0
C496 C 0.49851 0.86079 0.21152 0.0
C497 C 0.47206 0.81556 0.2004 0.0
H498 H 0.46751 0.80893 0.17705 0.0
H499 H 0.47669 0.7968 0.21374 0.0
H500 H 0.45369 0.8259 0.21016 0.0
O501 O 0.53959 0.80487 0.12337 0.0
O502 O 0.56957 0.8393 0.129 0.0
H503 H 0.54686 0.9042 0.18763 0.0
H504 H 0.52101 0.9126 0.21536 0.0
C505 C 0.53709 0.8974 0.2089 0.0
H506 H 0.55313 0.89695 0.22663 0.0
H507 H 0.59059 0.89362 0.1332 0.0
O508 O 0.50429 0.7657 0.16948 0.0
C509 C 0.55584 0.82297 0.11226 0.0
Co510 Co 0.36324 0.53277 0.1661 0.0
Co511 Co 0.31316 0.57336 0.17293 0.0
C512 C 0.36961 0.59104 0.1902 0.0
O513 O 0.37929 0.56744 0.18314 0.0
O514 O 0.34392 0.59613 0.18805 0.0
C515 C 0.40327 0.49745 0.19326 0.0
O516 O 0.39266 0.50752 0.21813 0.0
C517 C 0.27249 0.61114 0.19938 0.0
C518 C 0.23826 0.60864 0.1666 0.0
C519 C 0.24627 0.62118 0.19317 0.0
N520 N 0.27951 0.59326 0.17758 0.0
N521 N 0.25901 0.5919 0.15803 0.0
C522 C 0.29162 0.6197 0.22412 0.0
H523 H 0.30186 0.60122 0.23376 0.0
H524 H 0.2809 0.63142 0.24203 0.0
H525 H 0.308 0.63308 0.21454 0.0
C526 C 0.32306 0.4954 0.19751 0.0
N527 N 0.33107 0.52038 0.18716 0.0
N528 N 0.31099 0.5382 0.19175 0.0
C529 C 0.29006 0.52544 0.2061 0.0
C530 C 0.29676 0.49772 0.20995 0.0
C531 C 0.33877 0.46923 0.19222 0.0
H532 H 0.35158 0.471 0.17166 0.0
H533 H 0.35251 0.46529 0.21169 0.0
H534 H 0.32452 0.45141 0.18983 0.0
O535 O 0.35423 0.54049 0.12333 0.0
O536 O 0.31863 0.56897 0.1291 0.0
H537 H 0.25068 0.54346 0.19669 0.0
H538 H 0.25299 0.52749 0.23336 0.0
C539 C 0.26431 0.53976 0.21631 0.0
H540 H 0.26972 0.55995 0.22639 0.0
H541 H 0.25924 0.57962 0.13877 0.0
O542 O 0.39332 0.50492 0.16808 0.0
C543 C 0.33547 0.55594 0.11228 0.0
H544 H 0.13332 0.30319 0.43893 0.0
H545 H 0.05527 0.34246 0.41912 0.0
H546 H 0.12197 0.30412 0.49264 0.0
H547 H 0.04387 0.34278 0.47252 0.0
H548 H 0.0242 0.30272 0.56693 0.0
H549 H 0.0355 0.30305 0.51321 0.0
H550 H 0.11241 0.34443 0.53249 0.0
H551 H 0.10104 0.34471 0.58592 0.0
C552 C 0.11382 0.31201 0.44601 0.0
C553 C 0.09526 0.32283 0.4248 0.0
C554 C 0.10737 0.31258 0.47667 0.0
C555 C 0.082 0.32341 0.48656 0.0
C556 C 0.06346 0.33414 0.4654 0.0
C557 C 0.07012 0.33411 0.43488 0.0
C558 C 0.0434 0.31205 0.55966 0.0
C559 C 0.06165 0.32379 0.58065 0.0
C560 C 0.04984 0.31226 0.52899 0.0
C561 C 0.07488 0.32363 0.51888 0.0
C562 C 0.09309 0.33535 0.5398 0.0
C563 C 0.08643 0.33568 0.57032 0.0
H564 H 0.8744 0.04323 0.5706 0.0
H565 H 0.79464 0.08162 0.58318 0.0
H566 H 0.8738 0.05682 0.51771 0.0
H567 H 0.79413 0.09509 0.53037 0.0
H568 H 0.79239 0.08403 0.42645 0.0
H569 H 0.79207 0.07198 0.47962 0.0
H570 H 0.8756 0.10212 0.48841 0.0
H571 H 0.87601 0.11431 0.43505 0.0
C572 C 0.85662 0.05429 0.56204 0.0
C573 C 0.83455 0.06131 0.58112 0.0
C574 C 0.85643 0.06232 0.53185 0.0
C575 C 0.83403 0.07721 0.52003 0.0
C576 C 0.81164 0.08357 0.53887 0.0
C577 C 0.81197 0.07586 0.56911 0.0
C578 C 0.81062 0.08838 0.43975 0.0
C579 C 0.83426 0.1001 0.4265 0.0
C580 C 0.81038 0.08151 0.47022 0.0
C581 C 0.83389 0.0859 0.48806 0.0
C582 C 0.85732 0.09821 0.47505 0.0
C583 C 0.85744 0.10543 0.4446 0.0
H584 H 0.07965 0.79371 0.58032 0.0
H585 H 0.11301 0.87605 0.57066 0.0
H586 H 0.0667 0.79363 0.52749 0.0
H587 H 0.10012 0.8758 0.51751 0.0
H588 H 0.04373 0.87606 0.43375 0.0
H589 H 0.05609 0.87583 0.48706 0.0
H590 H 0.08918 0.79349 0.47748 0.0
H591 H 0.07676 0.79357 0.42451 0.0
C592 C 0.08447 0.81172 0.56687 0.0
C593 C 0.09739 0.8349 0.57975 0.0
C594 C 0.07707 0.81163 0.53656 0.0
C595 C 0.08222 0.83478 0.51842 0.0
C596 C 0.09556 0.85781 0.53109 0.0
C597 C 0.10321 0.85782 0.56142 0.0
C598 C 0.0533 0.85779 0.44313 0.0
C599 C 0.05925 0.83485 0.42487 0.0
C600 C 0.06065 0.85778 0.47356 0.0
C601 C 0.0738 0.83472 0.48636 0.0
C602 C 0.07896 0.81151 0.4683 0.0
C603 C 0.07187 0.8116 0.43791 0.0
H604 H 0.36475 0.07844 0.58195 0.0
H605 H 0.28375 0.11429 0.57 0.0
H606 H 0.36547 0.06511 0.52909 0.0
H607 H 0.28456 0.10086 0.51703 0.0
H608 H 0.28368 0.04281 0.43466 0.0
H609 H 0.28399 0.05544 0.48789 0.0
H610 H 0.36652 0.08802 0.47826 0.0
H611 H 0.3663 0.07551 0.42519 0.0
C612 C 0.34719 0.08369 0.56799 0.0
C613 C 0.32418 0.09744 0.5802 0.0
C614 C 0.34764 0.07607 0.53772 0.0
C615 C 0.32498 0.08173 0.51904 0.0
C616 C 0.30216 0.0959 0.53105 0.0
C617 C 0.30184 0.10385 0.56128 0.0
C618 C 0.30202 0.05232 0.444 0.0
C619 C 0.32495 0.05817 0.42569 0.0
C620 C 0.30208 0.05981 0.47437 0.0
C621 C 0.32519 0.07292 0.48711 0.0
C622 C 0.34846 0.07787 0.46907 0.0
C623 C 0.34829 0.07072 0.43867 0.0
H624 H 0.63249 0.80464 0.93773 0.0
H625 H 0.55282 0.84024 0.91733 0.0
H626 H 0.62099 0.80544 0.99135 0.0
H627 H 0.54129 0.84046 0.97077 0.0
H628 H 0.52399 0.80149 0.0667 0.0
H629 H 0.53452 0.80153 0.01273 0.0
H630 H 0.61032 0.84557 0.03015 0.0
H631 H 0.59977 0.84611 0.08365 0.0
C632 C 0.61259 0.81263 0.94466 0.0
C633 C 0.59364 0.8225 0.92332 0.0
C634 C 0.60604 0.8131 0.97529 0.0
C635 C 0.58022 0.8229 0.98505 0.0
C636 C 0.56123 0.83262 0.96375 0.0
C637 C 0.56797 0.83268 0.93323 0.0
C638 C 0.54278 0.81133 0.05895 0.0
C639 C 0.56097 0.82385 0.07945 0.0
C640 C 0.54876 0.81138 0.02814 0.0
C641 C 0.57331 0.82341 0.01744 0.0
C642 C 0.59139 0.83596 0.03789 0.0
C643 C 0.58519 0.83641 0.06849 0.0
H644 H 0.37548 0.61288 0.93312 0.0
H645 H 0.29304 0.57967 0.9237 0.0
H646 H 0.375 0.60089 0.98648 0.0
H647 H 0.29269 0.56773 0.9769 0.0
H648 H 0.29343 0.57917 0.08022 0.0
H649 H 0.29308 0.59129 0.02707 0.0
H650 H 0.37463 0.55651 0.01683 0.0
H651 H 0.3751 0.54433 0.07014 0.0
C652 C 0.35716 0.60333 0.94247 0.0
C653 C 0.33431 0.59722 0.92414 0.0
C654 C 0.35702 0.59621 0.97294 0.0
C655 C 0.3339 0.58318 0.98576 0.0
C656 C 0.31075 0.57784 0.96766 0.0
C657 C 0.31101 0.58465 0.93717 0.0
C658 C 0.31122 0.57388 0.06662 0.0
C659 C 0.33431 0.56078 0.07944 0.0
C660 C 0.31097 0.5808 0.03617 0.0
C661 C 0.33391 0.57504 0.01789 0.0
C662 C 0.35681 0.56152 0.03052 0.0
C663 C 0.35696 0.5543 0.06095 0.0
H664 H 0.57803 0.29253 0.92372 0.0
H665 H 0.54501 0.37492 0.93398 0.0
H666 H 0.59079 0.29208 0.97669 0.0
H667 H 0.55782 0.37435 0.98713 0.0
H668 H 0.61518 0.37442 0.07004 0.0
H669 H 0.60258 0.37396 0.01683 0.0
H670 H 0.56805 0.29231 0.02721 0.0
H671 H 0.5806 0.29265 0.08023 0.0
C672 C 0.57325 0.31045 0.93734 0.0
C673 C 0.5605 0.33378 0.9246 0.0
C674 C 0.58054 0.31015 0.96769 0.0
C675 C 0.57552 0.33326 0.98596 0.0
C676 C 0.56228 0.35639 0.97345 0.0
C677 C 0.55468 0.35659 0.94311 0.0
C678 C 0.60523 0.35623 0.06088 0.0
C679 C 0.59889 0.33358 0.07939 0.0
C680 C 0.59775 0.35611 0.03051 0.0
C681 C 0.58412 0.3332 0.01796 0.0
C682 C 0.57862 0.31021 0.03623 0.0
C683 C 0.58579 0.31045 0.06662 0.0
H684 H 0.78253 0.61392 0.07097 0.0
H685 H 0.86448 0.57964 0.08053 0.0
H686 H 0.78271 0.60131 0.01771 0.0
H687 H 0.86451 0.56703 0.02758 0.0
H688 H 0.86469 0.5775 0.92464 0.0
H689 H 0.8648 0.58994 0.97763 0.0
H690 H 0.78235 0.55707 0.98717 0.0
H691 H 0.7821 0.54464 0.93385 0.0
C692 C 0.80067 0.604 0.06168 0.0
C693 C 0.82349 0.59781 0.08 0.0
C694 C 0.80064 0.59652 0.03128 0.0
C695 C 0.82354 0.583 0.01857 0.0
C696 C 0.84662 0.57753 0.0367 0.0
C697 C 0.84656 0.58474 0.06707 0.0
C698 C 0.84664 0.57267 0.93804 0.0
C699 C 0.82337 0.56006 0.925 0.0
C700 C 0.84675 0.57978 0.96843 0.0
C701 C 0.82352 0.57467 0.98648 0.0
C702 C 0.80041 0.56159 0.97366 0.0
C703 C 0.80039 0.55419 0.94324 0.0
H704 H 0.17451 0.21833 0.35746 0.0
H705 H 0.19273 0.23699 0.26461 0.0
H706 H 0.20468 0.17798 0.35477 0.0
H707 H 0.22331 0.19674 0.26217 0.0
H708 H 0.30066 0.14126 0.29176 0.0
H709 H 0.26963 0.18109 0.2888 0.0
H710 H 0.20317 0.13167 0.32457 0.0
H711 H 0.23379 0.0918 0.32716 0.0
C712 C 0.18508 0.21392 0.33654 0.0
C713 C 0.18119 0.23079 0.31123 0.0
C714 C 0.20219 0.19073 0.33496 0.0
C715 C 0.21614 0.18419 0.3082 0.0
C716 C 0.21278 0.20136 0.28305 0.0
C717 C 0.19524 0.22431 0.28446 0.0
C718 C 0.2793 0.13875 0.29848 0.0
C719 C 0.26977 0.11336 0.30983 0.0
C720 C 0.26158 0.16155 0.29676 0.0
C721 C 0.23415 0.15947 0.30681 0.0
C722 C 0.22433 0.13387 0.31702 0.0
C723 C 0.24186 0.111 0.31827 0.0
H724 H 0.91631 0.20205 0.34339 0.0
H725 H 0.95442 0.15004 0.27624 0.0
H726 H 0.9548 0.23449 0.33933 0.0
H727 H 0.99289 0.18249 0.27228 0.0
H728 H 0.07081 0.23065 0.3086 0.0
H729 H 0.03194 0.19855 0.30584 0.0
H730 H 0.97531 0.26724 0.30131 0.0
H731 H 0.01393 0.29935 0.304 0.0
C732 C 0.93285 0.19757 0.32773 0.0
C733 C 0.93232 0.17346 0.31018 0.0
C734 C 0.9548 0.21624 0.32525 0.0
C735 C 0.97683 0.21104 0.30542 0.0
C736 C 0.97629 0.18695 0.28786 0.0
C737 C 0.95418 0.16846 0.29006 0.0
C738 C 0.05012 0.23893 0.30645 0.0
C739 C 0.04556 0.26762 0.30672 0.0
C740 C 0.02786 0.22052 0.30485 0.0
C741 C 1.00058 0.23041 0.30377 0.0
C742 C 0.99609 0.25903 0.30261 0.0
C743 C 0.01831 0.27742 0.3039 0.0
H744 H 0.8569 0.01228 0.31073 0.0
H745 H 0.92496 0.07004 0.30713 0.0
H746 H 0.88933 0.97395 0.30707 0.0
H747 H 0.95732 0.03158 0.30367 0.0
H748 H 1.00598 0.9549 0.27463 0.0
H749 H 0.97234 0.99231 0.27132 0.0
H750 H 0.92447 0.95459 0.34218 0.0
H751 H 0.958 0.91708 0.34543 0.0
C752 C 0.87872 0.01687 0.30868 0.0
C753 C 0.88831 0.0443 0.30941 0.0
C754 C 0.8973 0.99485 0.30685 0.0
C755 C 0.92588 0.99974 0.30544 0.0
C756 C 0.93541 0.02715 0.3046 0.0
C757 C 0.91684 0.04919 0.30666 0.0
C758 C 0.98821 0.95451 0.28942 0.0
C759 C 0.98471 0.93305 0.31038 0.0
C760 C 0.96902 0.97601 0.28759 0.0
C761 C 0.94574 0.97638 0.30644 0.0
C762 C 0.94202 0.95471 0.32708 0.0
C763 C 0.96134 0.93334 0.32911 0.0
H764 H 0.20644 1.00415 0.27381 0.0
H765 H 0.24231 0.95645 0.34595 0.0
H766 H 0.16889 0.97072 0.26972 0.0
H767 H 0.20465 0.92311 0.34189 0.0
H768 H 0.14653 0.85597 0.30969 0.0
H769 H 0.18544 0.88783 0.30646 0.0
H770 H 0.12889 0.95659 0.30155 0.0
H771 H 0.0899 0.92484 0.30467 0.0
C772 C 0.20639 0.98648 0.28872 0.0
C773 C 0.22731 0.98301 0.31031 0.0
C774 C 0.18481 0.9674 0.28642 0.0
C775 C 0.18383 0.94428 0.30544 0.0
C776 C 0.20501 0.94055 0.32667 0.0
C777 C 0.22647 0.95976 0.32916 0.0
C778 C 0.14233 0.87783 0.30741 0.0
C779 C 0.11504 0.88784 0.30768 0.0
C780 C 0.16466 0.89609 0.3058 0.0
C781 C 0.16022 0.92472 0.30411 0.0
C782 C 0.13297 0.93463 0.30272 0.0
C783 C 0.11062 0.91641 0.30458 0.0
H784 H 0.29772 0.0178 0.71687 0.0
H785 H 0.23289 0.06703 0.677 0.0
H786 H 0.26598 0.97847 0.71993 0.0
H787 H 0.20162 0.02765 0.67964 0.0
H788 H 0.17407 0.9399 0.64792 0.0
H789 H 0.20473 0.97993 0.65073 0.0
H790 H 0.21742 0.96496 0.74529 0.0
H791 H 0.18626 0.9251 0.74272 0.0
C792 C 0.27665 0.02037 0.70918 0.0
C793 C 0.2679 0.04553 0.69656 0.0
C794 C 0.25853 0.99789 0.71096 0.0
C795 C 0.23153 1.00003 0.69968 0.0
C796 C 0.22245 0.02543 0.68819 0.0
C797 C 0.24035 0.04801 0.68689 0.0
C798 C 0.18342 0.94509 0.6693 0.0
C799 C 0.1777 0.92943 0.69512 0.0
C800 C 0.20082 0.96807 0.67093 0.0
C801 C 0.21325 0.97555 0.69827 0.0
C802 C 0.20806 0.95958 0.72397 0.0
C803 C 0.1902 0.93688 0.72249 0.0
H804 H 0.08872 0.23278 0.69917 0.0
H805 H 0.14555 0.30166 0.6975 0.0
H806 H 0.12766 0.20088 0.70197 0.0
H807 H 0.18433 0.2697 0.70029 0.0
H808 H 0.24153 0.20214 0.65915 0.0
H809 H 0.20351 0.23508 0.66336 0.0
H810 H 0.16768 0.18637 0.73465 0.0
H811 H 0.20567 0.15341 0.73053 0.0
C812 C 0.10945 0.24117 0.69993 0.0
C813 C 0.11396 0.26981 0.69792 0.0
C814 C 0.13176 0.22287 0.70158 0.0
C815 C 0.15903 0.2328 0.70099 0.0
C816 C 0.16353 0.26145 0.70035 0.0
C817 C 0.14126 0.27976 0.69901 0.0
C818 C 0.22558 0.19849 0.67577 0.0
C819 C 0.22657 0.17513 0.69444 0.0
C820 C 0.20393 0.21746 0.67833 0.0
C821 C 0.18266 0.21332 0.69939 0.0
C822 C 0.1837 0.19001 0.71812 0.0
C823 C 0.20552 0.17122 0.71581 0.0
H824 H 0.92607 0.09016 0.67623 0.0
H825 H 0.86262 0.13847 0.71992 0.0
H826 H 0.95737 0.12955 0.67852 0.0
H827 H 0.89429 0.17783 0.72248 0.0
H828 H 0.9728 0.23241 0.74272 0.0
H829 H 0.9424 0.19205 0.74576 0.0
H830 H 0.95428 0.17711 0.65103 0.0
H831 H 0.98427 0.21759 0.64778 0.0
C832 C 0.91895 0.10897 0.68689 0.0
C833 C 0.89173 0.11121 0.69771 0.0
C834 C 0.93684 0.13158 0.68796 0.0
C835 C 0.9281 0.15677 0.70034 0.0
C836 C 0.9015 0.15861 0.71279 0.0
C837 C 0.8834 0.13609 0.71129 0.0
C838 C 0.96887 0.22053 0.72254 0.0
C839 C 0.98095 0.22814 0.69501 0.0
C840 C 0.95144 0.19752 0.7243 0.0
C841 C 0.94621 0.1814 0.69869 0.0
C842 C 0.95825 0.18903 0.67118 0.0
C843 C 0.97525 0.21229 0.6693 0.0
H844 H 0.06877 0.92476 0.70139 0.0
H845 H 0.01276 0.8554 0.69538 0.0
H846 H 0.02942 0.95613 0.70453 0.0
H847 H 0.97357 0.88686 0.69847 0.0
H848 H 0.91683 0.95528 0.65822 0.0
H849 H 0.95502 0.92254 0.66229 0.0
H850 H 0.98837 0.96905 0.73671 0.0
H851 H 0.9502 1.0018 0.73273 0.0
C852 C 0.04812 0.91614 0.70127 0.0
C853 C 0.04397 0.88755 0.6979 0.0
C854 C 0.02558 0.93413 0.70312 0.0
C855 C 0.99844 0.92395 0.70136 0.0
C856 C 0.99427 0.89531 0.69942 0.0
C857 C 0.01677 0.87729 0.69789 0.0
C858 C 0.93225 0.95847 0.67551 0.0
C859 C 0.93053 0.98117 0.69509 0.0
C860 C 0.95401 0.93962 0.67798 0.0
C861 C 0.97464 0.94323 0.69987 0.0
C862 C 0.97285 0.96584 0.71953 0.0
C863 C 0.95092 0.98451 0.7173 0.0
H864 H 0.70079 0.7412 0.84702 0.0
H865 H 0.65454 0.70664 0.77296 0.0
H866 H 0.73402 0.70341 0.84316 0.0
H867 H 0.6878 0.66889 0.76917 0.0
H868 H 0.73352 0.58941 0.80405 0.0
H869 H 0.70151 0.62824 0.80113 0.0
H870 H 0.7699 0.68518 0.8073 0.0
H871 H 0.80197 0.6465 0.81025 0.0
C872 C 0.69776 0.7256 0.82988 0.0
C873 C 0.675 0.72688 0.81036 0.0
C874 C 0.71689 0.70407 0.82752 0.0
C875 C 0.71353 0.68323 0.8058 0.0
C876 C 0.69083 0.68457 0.78622 0.0
C877 C 0.67187 0.70626 0.78835 0.0
C878 C 0.74181 0.61019 0.80426 0.0
C879 C 0.77033 0.61478 0.80758 0.0
C880 C 0.72345 0.63244 0.80254 0.0
C881 C 0.73319 0.65974 0.80435 0.0
C882 C 0.76177 0.66435 0.8063 0.0
C883 C 0.78016 0.64214 0.80773 0.0
H884 H 0.56626 0.73171 0.8262 0.0
H885 H 0.51739 0.79591 0.78468 0.0
H886 H 0.52698 0.70031 0.82334 0.0
H887 H 0.47816 0.76417 0.78159 0.0
H888 H 0.4228 0.68686 0.76034 0.0
H889 H 0.46324 0.71717 0.75747 0.0
H890 H 0.48008 0.7021 0.85126 0.0
H891 H 0.4396 0.67216 0.85432 0.0
C892 C 0.54735 0.739 0.8159 0.0
C893 C 0.54493 0.76643 0.80587 0.0
C894 C 0.5248 0.72104 0.8145 0.0
C895 C 0.49948 0.72994 0.80259 0.0
C896 C 0.49748 0.7568 0.79087 0.0
C897 C 0.51993 0.77495 0.79269 0.0
C898 C 0.43512 0.69006 0.78034 0.0
C899 C 0.42803 0.6771 0.80756 0.0
C900 C 0.45819 0.70744 0.77869 0.0
C901 C 0.47487 0.71176 0.80407 0.0
C902 C 0.46776 0.69883 0.83126 0.0
C903 C 0.44448 0.68186 0.83305 0.0
H904 H 0.50411 0.45132 0.77209 0.0
H905 H 0.45776 0.41649 0.8459 0.0
H906 H 0.47053 0.48876 0.76805 0.0
H907 H 0.42422 0.45396 0.84182 0.0
H908 H 0.35604 0.51047 0.80901 0.0
H909 H 0.38834 0.47196 0.80596 0.0
H910 H 0.45641 0.52929 0.79988 0.0
H911 H 0.42418 0.56793 0.80288 0.0
C912 C 0.4867 0.45158 0.78737 0.0
C913 C 0.48364 0.43098 0.80939 0.0
C914 C 0.46754 0.47308 0.7851 0.0
C915 C 0.44472 0.47425 0.80456 0.0
C916 C 0.44143 0.45342 0.82628 0.0
C917 C 0.46075 0.43209 0.82877 0.0
C918 C 0.37783 0.51494 0.80648 0.0
C919 C 0.3875 0.54235 0.8064 0.0
C920 C 0.39634 0.49284 0.80499 0.0
C921 C 0.4249 0.49762 0.80305 0.0
C922 C 0.43449 0.52497 0.80127 0.0
C923 C 0.41601 0.5471 0.80305 0.0
H924 H 0.70571 0.50478 0.77278 0.0
H925 H 0.742 0.4575 0.845 0.0
H926 H 0.66803 0.47139 0.76929 0.0
H927 H 0.70426 0.42417 0.84148 0.0
H928 H 0.64659 0.35659 0.80916 0.0
H929 H 0.68521 0.38876 0.80583 0.0
H930 H 0.62812 0.45711 0.8018 0.0
H931 H 0.58936 0.42501 0.80508 0.0
C932 C 0.70573 0.48721 0.78782 0.0
C933 C 0.72681 0.48383 0.80924 0.0
C934 C 0.68407 0.46816 0.78588 0.0
C935 C 0.68321 0.44515 0.80506 0.0
C936 C 0.70453 0.44154 0.82615 0.0
C937 C 0.72603 0.46074 0.82832 0.0
C938 C 0.64219 0.37843 0.80705 0.0
C939 C 0.61482 0.3882 0.80759 0.0
C940 C 0.66436 0.39686 0.8054 0.0
C941 C 0.6597 0.42546 0.80391 0.0
C942 C 0.63236 0.43517 0.80283 0.0
C943 C 0.61015 0.41676 0.80477 0.0
H944 H 0.70106 0.41662 0.15934 0.0
H945 H 0.65171 0.45373 0.22948 0.0
H946 H 0.73423 0.45443 0.16342 0.0
H947 H 0.68496 0.49146 0.23357 0.0
H948 H 0.73234 0.56966 0.19828 0.0
H949 H 0.70017 0.53097 0.2012 0.0
H950 H 0.76858 0.47383 0.19989 0.0
H951 H 0.80084 0.51238 0.1969 0.0
C952 C 0.69733 0.43278 0.17567 0.0
C953 C 0.67371 0.43222 0.19401 0.0
C954 C 0.71644 0.45432 0.17818 0.0
C955 C 0.71221 0.47587 0.19888 0.0
C956 C 0.68866 0.47523 0.2173 0.0
C957 C 0.6697 0.45356 0.21501 0.0
C958 C 0.74058 0.54888 0.19913 0.0
C959 C 0.76919 0.54416 0.19709 0.0
C960 C 0.72213 0.52671 0.20086 0.0
C961 C 0.73186 0.49937 0.20039 0.0
C962 C 0.76048 0.49468 0.1998 0.0
C963 C 0.77895 0.51681 0.19832 0.0
H964 H 0.7425 0.70145 0.15982 0.0
H965 H 0.70572 0.65352 0.23128 0.0
H966 H 0.70452 0.73451 0.16312 0.0
H967 H 0.66778 0.68661 0.23451 0.0
H968 H 0.58929 0.73282 0.1978 0.0
H969 H 0.62814 0.70086 0.20124 0.0
H970 H 0.68499 0.76953 0.19924 0.0
H971 H 0.64629 0.80156 0.19582 0.0
C972 C 0.72637 0.69802 0.17628 0.0
C973 C 0.72708 0.67483 0.19522 0.0
C974 C 0.70473 0.71705 0.17832 0.0
C975 C 0.68321 0.71316 0.19912 0.0
C976 C 0.68399 0.69005 0.21815 0.0
C977 C 0.70579 0.67118 0.21636 0.0
C978 C 0.61004 0.74116 0.19859 0.0
C979 C 0.61463 0.76977 0.19631 0.0
C980 C 0.63229 0.72283 0.20062 0.0
C981 C 0.6596 0.7327 0.20016 0.0
C982 C 0.66417 0.76132 0.19919 0.0
C983 C 0.64195 0.77966 0.19746 0.0
H984 H 0.50672 0.70423 0.22902 0.0
H985 H 0.4574 0.74176 0.15922 0.0
H986 H 0.47343 0.66655 0.23292 0.0
H987 H 0.42416 0.70396 0.16309 0.0
H988 H 0.35742 0.64594 0.19634 0.0
H989 H 0.38974 0.68442 0.19911 0.0
H990 H 0.45801 0.62712 0.20092 0.0
H991 H 0.42572 0.58849 0.19829 0.0
C992 C 0.48873 0.7045 0.21457 0.0
C993 C 0.48475 0.72597 0.19373 0.0
C994 C 0.46973 0.68284 0.21674 0.0
C995 C 0.44616 0.6823 0.19837 0.0
C996 C 0.44197 0.70397 0.17782 0.0
C997 C 0.46111 0.72551 0.17543 0.0
C998 C 0.37928 0.64144 0.19788 0.0
C999 C 0.38894 0.61404 0.19693 0.0
C1000 C 0.39781 0.66356 0.19918 0.0
C1001 C 0.42642 0.65882 0.19985 0.0
C1002 C 0.43606 0.63144 0.20052 0.0
C1003 C 0.41754 0.60929 0.19898 0.0
H1004 H 0.5658 0.42536 0.17811 0.0
H1005 H 0.51613 0.35839 0.21292 0.0
H1006 H 0.52602 0.45608 0.18104 0.0
H1007 H 0.47638 0.38953 0.21622 0.0
H1008 H 0.42082 0.46668 0.24111 0.0
H1009 H 0.46099 0.43594 0.24335 0.0
H1010 H 0.47966 0.45464 0.15075 0.0
H1011 H 0.43941 0.48494 0.14826 0.0
C1012 C 0.54657 0.41729 0.18693 0.0
C1013 C 0.54412 0.38933 0.19511 0.0
C1014 C 0.52376 0.43487 0.18839 0.0
C1015 C 0.49813 0.42506 0.19854 0.0
C1016 C 0.49596 0.39757 0.20832 0.0
C1017 C 0.51869 0.37979 0.20639 0.0
C1018 C 0.43347 0.46415 0.22122 0.0
C1019 C 0.427 0.47824 0.19451 0.0
C1020 C 0.45636 0.44653 0.22251 0.0
C1021 C 0.47347 0.44314 0.1973 0.0
C1022 C 0.46694 0.45715 0.1706 0.0
C1023 C 0.44382 0.47433 0.16914 0.0
H1024 H 0.24234 0.48887 0.19724 0.0
H1025 H 0.31034 0.45559 0.24844 0.0
H1026 H 0.21142 0.45447 0.21928 0.0
H1027 H 0.27944 0.42006 0.26923 0.0
H1028 H 0.2041 0.34769 0.25797 0.0
H1029 H 0.23936 0.37902 0.23735 0.0
H1030 H 0.20335 0.44679 0.28645 0.0
H1031 H 0.16919 0.41548 0.3083 0.0
C1032 C 0.25069 0.47424 0.21321 0.0
C1033 C 0.27865 0.47533 0.22161 0.0
C1034 C 0.23305 0.45442 0.22555 0.0
C1035 C 0.24315 0.4348 0.24592 0.0
C1036 C 0.2713 0.43501 0.25346 0.0
C1037 C 0.28891 0.45524 0.24152 0.0
C1038 C 0.20405 0.36917 0.26475 0.0
C1039 C 0.18358 0.37924 0.28433 0.0
C1040 C 0.22413 0.38702 0.25292 0.0
C1041 C 0.22379 0.41522 0.26025 0.0
C1042 C 0.20381 0.42513 0.28034 0.0
C1043 C 0.18415 0.40726 0.29257 0.0
H1044 H 0.80789 0.20076 0.254 0.0
H1045 H 0.74337 0.17079 0.3123 0.0
H1046 H 0.77705 0.23705 0.23574 0.0
H1047 H 0.7119 0.20527 0.29261 0.0
H1048 H 0.66468 0.28181 0.27051 0.0
H1049 H 0.69952 0.25118 0.29195 0.0
H1050 H 0.73887 0.24499 0.20486 0.0
H1051 H 0.70474 0.277 0.18427 0.0
C1052 C 0.78706 0.20192 0.26282 0.0
C1053 C 0.77793 0.18275 0.28429 0.0
C1054 C 0.76923 0.2225 0.25212 0.0
C1055 C 0.74174 0.22421 0.26248 0.0
C1056 C 0.73291 0.2051 0.28431 0.0
C1057 C 0.75084 0.1849 0.29528 0.0
C1058 C 0.6811 0.27413 0.25624 0.0
C1059 C 0.68227 0.28171 0.22591 0.0
C1060 C 0.70094 0.25633 0.26834 0.0
C1061 C 0.72204 0.24518 0.25016 0.0
C1062 C 0.72331 0.25334 0.21978 0.0
C1063 C 0.7037 0.27155 0.20785 0.0
H1064 H 0.9143 0.67173 0.19151 0.0
H1065 H 0.85056 0.70022 0.25167 0.0
H1066 H 0.94567 0.70657 0.21084 0.0
H1067 H 0.88123 0.73679 0.26966 0.0
H1068 H 0.95411 0.77658 0.32039 0.0
H1069 H 0.91994 0.74453 0.29989 0.0
H1070 H 0.95741 0.75278 0.21203 0.0
H1071 H 0.99233 0.78349 0.23334 0.0
C1072 C 0.90698 0.68561 0.20885 0.0
C1073 C 0.88017 0.68293 0.2205 0.0
C1074 C 0.92483 0.706 0.21963 0.0
C1075 C 0.91617 0.72473 0.24194 0.0
C1076 C 0.88892 0.72252 0.25291 0.0
C1077 C 0.87118 0.70177 0.24238 0.0
C1078 C 0.95471 0.77159 0.29666 0.0
C1079 C 0.97565 0.78233 0.27833 0.0
C1080 C 0.93508 0.75336 0.28479 0.0
C1081 C 0.93583 0.74576 0.25421 0.0
C1082 C 0.95641 0.75751 0.23578 0.0
C1083 C 0.97627 0.77535 0.24781 0.0
H1084 H 0.3827 0.99446 0.23612 0.0
H1085 H 0.3788 0.95155 0.32084 0.0
H1086 H 0.41437 0.95921 0.21657 0.0
H1087 H 0.41066 0.91634 0.30154 0.0
H1088 H 0.49679 0.88518 0.26643 0.0
H1089 H 0.46145 0.91668 0.286 0.0
H1090 H 0.41517 0.90773 0.20363 0.0
H1091 H 0.45052 0.87604 0.18429 0.0
C1092 C 0.38846 0.97726 0.25037 0.0
C1093 C 0.37832 0.97548 0.27982 0.0
C1094 C 0.40646 0.9571 0.23922 0.0
C1095 C 0.41499 0.93502 0.25754 0.0
C1096 C 0.40456 0.93318 0.28698 0.0
C1097 C 0.38625 0.95316 0.29795 0.0
C1098 C 0.47885 0.88974 0.25277 0.0
C1099 C 0.47614 0.87814 0.22404 0.0
C1100 C 0.45862 0.90766 0.26394 0.0
C1101 C 0.43554 0.91465 0.24634 0.0
C1102 C 0.43279 0.90281 0.21763 0.0
C1103 C 0.45284 0.88457 0.20665 0.0
H1104 H 0.31019 0.70196 0.75443 0.0
H1105 H 0.24363 0.6687 0.80774 0.0
H1106 H 0.27946 0.73836 0.73604 0.0
H1107 H 0.21254 0.70356 0.78811 0.0
H1108 H 0.16606 0.78109 0.76822 0.0
H1109 H 0.20072 0.75022 0.78967 0.0
H1110 H 0.24149 0.7457 0.70328 0.0
H1111 H 0.20731 0.77765 0.68254 0.0
C1112 C 0.28898 0.70243 0.76215 0.0
C1113 C 0.27922 0.68229 0.78221 0.0
C1114 C 0.27126 0.72309 0.7514 0.0
C1115 C 0.24336 0.72399 0.76044 0.0
C1116 C 0.23388 0.70394 0.78088 0.0
C1117 C 0.25162 0.68356 0.79178 0.0
C1118 C 0.18275 0.77374 0.7541 0.0
C1119 C 0.18427 0.78174 0.72391 0.0
C1120 C 0.20247 0.75585 0.76621 0.0
C1121 C 0.22389 0.74512 0.7482 0.0
C1122 C 0.22561 0.75375 0.71801 0.0
C1123 C 0.20602 0.77195 0.70603 0.0
H1124 H 0.34686 0.20426 0.74887 0.0
H1125 H 0.41459 0.16914 0.69861 0.0
H1126 H 0.37812 0.24002 0.76868 0.0
H1127 H 0.44578 0.20379 0.71959 0.0
H1128 H 0.48805 0.24408 0.80792 0.0
H1129 H 0.45325 0.21295 0.7871 0.0
H1130 H 0.4195 0.27979 0.7348 0.0
H1131 H 0.45542 0.31094 0.75451 0.0
C1132 C 0.3683 0.20426 0.74195 0.0
C1133 C 0.37837 0.18364 0.72255 0.0
C1134 C 0.38611 0.22463 0.75329 0.0
C1135 C 0.41424 0.22442 0.74565 0.0
C1136 C 0.42416 0.2042 0.72587 0.0
C1137 C 0.40636 0.18423 0.71417 0.0
C1138 C 0.47344 0.25214 0.79174 0.0
C1139 C 0.4748 0.27983 0.78239 0.0
C1140 C 0.45339 0.23438 0.78011 0.0
C1141 C 0.43385 0.24408 0.75944 0.0
C1142 C 0.43436 0.27198 0.75087 0.0
C1143 C 0.45481 0.28972 0.76216 0.0
H1144 H 0.98782 0.37074 0.77155 0.0
H1145 H 0.95463 0.38341 0.68285 0.0
H1146 H 0.95318 0.40208 0.79245 0.0
H1147 H 0.92055 0.41569 0.7032 0.0
H1148 H 0.84994 0.45918 0.75125 0.0
H1149 H 0.88025 0.42239 0.73283 0.0
H1150 H 0.94408 0.44969 0.79397 0.0
H1151 H 0.91324 0.48513 0.81329 0.0
C1152 C 0.97288 0.38019 0.75663 0.0
C1153 C 0.97364 0.37471 0.72574 0.0
C1154 C 0.95321 0.39834 0.76846 0.0
C1155 C 0.9341 0.41173 0.74953 0.0
C1156 C 0.93459 0.40557 0.71858 0.0
C1157 C 0.95414 0.38719 0.70684 0.0
C1158 C 0.87036 0.45698 0.76089 0.0
C1159 C 0.87937 0.47515 0.78344 0.0
C1160 C 0.88785 0.4361 0.75018 0.0
C1161 C 0.91476 0.43301 0.76177 0.0
C1162 C 0.92345 0.45105 0.78471 0.0
C1163 C 0.90592 0.4717 0.79552 0.0
H1164 H 0.70444 0.847 0.75815 0.0
H1165 H 0.6661 0.91501 0.80505 0.0
H1166 H 0.74016 0.87858 0.73899 0.0
H1167 H 0.70063 0.9465 0.78454 0.0
H1168 H 0.74264 0.99137 0.70182 0.0
H1169 H 0.71106 0.95722 0.7228 0.0
H1170 H 0.77912 0.91706 0.76735 0.0
H1171 H 0.81083 0.95247 0.74775 0.0
C1172 C 0.70369 0.86858 0.76447 0.0
C1173 C 0.68217 0.87858 0.78272 0.0
C1174 C 0.72406 0.88658 0.75348 0.0
C1175 C 0.72292 0.91491 0.76019 0.0
C1176 C 0.70176 0.92477 0.77884 0.0
C1177 C 0.68184 0.90677 0.79029 0.0
C1178 C 0.7509 0.97563 0.71652 0.0
C1179 C 0.77918 0.97501 0.72364 0.0
C1180 C 0.73284 0.95591 0.72823 0.0
C1181 C 0.74271 0.93466 0.74671 0.0
C1182 C 0.7711 0.93325 0.75302 0.0
C1183 C 0.78918 0.95343 0.74177 0.0
H1184 H 0.99097 0.7219 0.67491 0.0
H1185 H 0.04348 0.73005 0.75274 0.0
H1186 H 0.95925 0.69306 0.70371 0.0
H1187 H 0.01213 0.70092 0.78152 0.0
H1188 H 0.93769 0.66786 0.83256 0.0
H1189 H 0.96726 0.69925 0.80398 0.0
H1190 H 0.95687 0.64796 0.7252 0.0
H1191 H 0.92692 0.6171 0.75378 0.0
C1192 C 0.99567 0.71753 0.69823 0.0
C1193 C 0.01937 0.72862 0.71178 0.0
C1194 C 0.9776 0.70091 0.7147 0.0
C1195 C 0.98308 0.6947 0.74498 0.0
C1196 C 1.00692 0.70579 0.75846 0.0
C1197 C 0.02488 0.72259 0.74201 0.0
C1198 C 0.94163 0.66355 0.80905 0.0
C1199 C 0.9296 0.64054 0.79509 0.0
C1200 C 0.95867 0.68137 0.79273 0.0
C1201 C 0.96436 0.67622 0.76222 0.0
C1202 C 0.95242 0.65294 0.74843 0.0
C1203 C 0.93524 0.63527 0.76472 0.0
H1204 H 0.46115 0.05199 0.72237 0.0
H1205 H 0.40455 0.98541 0.70391 0.0
H1206 H 0.49058 0.02072 0.75064 0.0
H1207 H 0.43487 0.95325 0.73032 0.0
H1208 H 0.48285 0.90696 0.80276 0.0
H1209 H 0.4517 0.93797 0.77582 0.0
H1210 H 0.52211 0.986 0.74621 0.0
H1211 H 0.55253 0.95612 0.77509 0.0
C1212 C 0.45526 0.03046 0.72419 0.0
C1213 C 0.43068 0.021 0.7112 0.0
C1214 C 0.47222 0.01239 0.74013 0.0
C1215 C 0.46543 0.98418 0.74265 0.0
C1216 C 0.44068 0.97481 0.72942 0.0
C1217 C 0.42334 0.99313 0.71411 0.0
C1218 C 0.49141 0.92424 0.79042 0.0
C1219 C 0.51987 0.92942 0.79097 0.0
C1220 C 0.47368 0.94194 0.77479 0.0
C1221 C 0.48421 0.9648 0.75885 0.0
C1222 C 0.51298 0.96924 0.75885 0.0
C1223 C 0.53053 0.95199 0.77512 0.0
H1224 H 0.10282 0.46006 0.72711 0.0
H1225 H 0.17113 0.40716 0.70394 0.0
H1226 H 0.13354 0.48943 0.75627 0.0
H1227 H 0.2027 0.4376 0.73108 0.0
H1228 H 0.2496 0.48467 0.80338 0.0
H1229 H 0.21875 0.45326 0.77658 0.0
H1230 H 0.16668 0.52258 0.75269 0.0
H1231 H 0.19649 0.55314 0.78148 0.0
C1232 C 0.1246 0.455 0.72809 0.0
C1233 C 0.13476 0.43151 0.71348 0.0
C1234 C 0.14235 0.47195 0.74453 0.0
C1235 C 0.17088 0.46626 0.74591 0.0
C1236 C 0.1809 0.44254 0.7311 0.0
C1237 C 0.16293 0.42516 0.71534 0.0
C1238 C 0.23145 0.49294 0.79236 0.0
C1239 C 0.2252 0.52112 0.79444 0.0
C1240 C 0.21383 0.47506 0.77679 0.0
C1241 C 0.18994 0.48518 0.76241 0.0
C1242 C 0.18429 0.51369 0.76409 0.0
C1243 C 0.2015 0.53135 0.78032 0.0
H1244 H 0.67173 0.25624 0.79487 0.0
H1245 H 0.60825 0.19432 0.78492 0.0
H1246 H 0.70379 0.22724 0.76594 0.0
H1247 H 0.64004 0.16569 0.75544 0.0
H1248 H 0.69826 0.14262 0.67486 0.0
H1249 H 0.66743 0.1739 0.70207 0.0
H1250 H 0.72362 0.17439 0.77722 0.0
H1251 H 0.7536 0.14182 0.75104 0.0
C1252 C 0.66463 0.23658 0.78619 0.0
C1253 C 0.6376 0.22746 0.79185 0.0
C1254 C 0.68292 0.22002 0.76985 0.0
C1255 C 0.6742 0.19443 0.75844 0.0
C1256 C 0.64708 0.18548 0.76385 0.0
C1257 C 0.62902 0.20172 0.78076 0.0
C1258 C 0.70415 0.14953 0.69711 0.0
C1259 C 0.72888 0.14041 0.71034 0.0
C1260 C 0.68652 0.16739 0.7126 0.0
C1261 C 0.69345 0.17669 0.74148 0.0
C1262 C 0.71821 0.16788 0.75468 0.0
C1263 C 0.73556 0.14954 0.73946 0.0
H1264 H 0.98923 0.4334 0.32944 0.0
H1265 H 0.04122 0.42457 0.25134 0.0
H1266 H 0.95762 0.46259 0.3008 0.0
H1267 H 0.01018 0.45427 0.22271 0.0
H1268 H 0.9366 0.489 0.17202 0.0
H1269 H 0.96549 0.45693 0.20034 0.0
H1270 H 0.9558 0.50771 0.2796 0.0
H1271 H 0.92665 0.5393 0.25133 0.0
C1272 C 0.99375 0.43769 0.30606 0.0
C1273 C 0.01721 0.42639 0.29231 0.0
C1274 C 0.97581 0.45452 0.2897 0.0
C1275 C 0.9813 0.46076 0.2594 0.0
C1276 C 1.00496 0.44942 0.24577 0.0
C1277 C 0.02273 0.43239 0.26209 0.0
C1278 C 0.94058 0.49312 0.19556 0.0
C1279 C 0.92893 0.51625 0.20969 0.0
C1280 C 0.95722 0.47486 0.21175 0.0
C1281 C 0.96288 0.47964 0.24232 0.0
C1282 C 0.95132 0.50299 0.25632 0.0
C1283 C 0.93451 0.52109 0.24016 0.0
H1284 H 0.61573 0.92831 0.252 0.0
H1285 H 0.67034 0.93516 0.17571 0.0
H1286 H 0.64646 0.95765 0.28132 0.0
H1287 H 0.70141 0.96423 0.20506 0.0
H1288 H 0.73274 0.04071 0.25491 0.0
H1289 H 0.70325 0.00969 0.22597 0.0
H1290 H 0.69087 0.95934 0.30507 0.0
H1291 H 0.72003 0.99088 0.334 0.0
C1292 C 0.63465 0.93553 0.24175 0.0
C1293 C 0.64092 0.92906 0.21178 0.0
C1294 C 0.65224 0.95246 0.2585 0.0
C1295 C 0.67649 0.96325 0.2456 0.0
C1296 C 0.68274 0.95661 0.21559 0.0
C1297 C 0.66504 0.93986 0.19881 0.0
C1298 C 0.72409 0.0227 0.26587 0.0
C1299 C 0.72908 0.01771 0.29641 0.0
C1300 C 0.70716 1.00495 0.24936 0.0
C1301 C 0.69483 0.98187 0.26312 0.0
C1302 C 0.6998 0.97705 0.29383 0.0
C1303 C 0.7166 0.99495 0.31036 0.0
H1304 H 0.12194 0.68959 0.31053 0.0
H1305 H 0.16142 0.76172 0.27282 0.0
H1306 H 0.15341 0.66003 0.28231 0.0
H1307 H 0.19229 0.73211 0.24399 0.0
H1308 H 0.21928 0.66653 0.17288 0.0
H1309 H 0.18899 0.69738 0.2015 0.0
H1310 H 0.20398 0.64922 0.28152 0.0
H1311 H 0.2339 0.61825 0.25274 0.0
C1312 C 0.13719 0.69916 0.29608 0.0
C1313 C 0.13863 0.72803 0.29335 0.0
C1314 C 0.15526 0.68222 0.28002 0.0
C1315 C 0.17518 0.69379 0.26085 0.0
C1316 C 0.17678 0.72264 0.2582 0.0
C1317 C 0.15885 0.73961 0.27449 0.0
C1318 C 0.2162 0.66278 0.19665 0.0
C1319 C 0.22928 0.64048 0.21085 0.0
C1320 C 0.19902 0.68043 0.21302 0.0
C1321 C 0.19423 0.67573 0.24374 0.0
C1322 C 0.20725 0.65328 0.25785 0.0
C1323 C 0.22462 0.6358 0.24153 0.0
H1324 H 0.42933 0.11445 0.25395 0.0
H1325 H 0.43437 0.16898 0.33042 0.0
H1326 H 0.45883 0.14561 0.22518 0.0
H1327 H 0.46368 0.20047 0.30169 0.0
H1328 H 0.5409 0.23193 0.25271 0.0
H1329 H 0.50971 0.20248 0.28125 0.0
H1330 H 0.45972 0.19049 0.20184 0.0
H1331 H 0.49118 0.21986 0.1733 0.0
C1332 C 0.43622 0.13349 0.26429 0.0
C1333 C 0.4291 0.13975 0.29407 0.0
C1334 C 0.45321 0.15129 0.24791 0.0
C1335 C 0.4635 0.17564 0.26107 0.0
C1336 C 0.45634 0.18177 0.29097 0.0
C1337 C 0.43946 0.16388 0.30736 0.0
C1338 C 0.52293 0.22354 0.24154 0.0
C1339 C 0.51814 0.22864 0.21095 0.0
C1340 C 0.50509 0.20653 0.25785 0.0
C1341 C 0.48211 0.19422 0.24388 0.0
C1342 C 0.47739 0.19937 0.21322 0.0
C1343 C 0.49531 0.21627 0.1969 0.0
loop_
_geom_bond_atom_site_label_1
_geom_bond_atom_site_label_2
_geom_bond_distance
_geom_bond_site_symmetry_2
_ccdc_geom_bond_type
Co0 O3 1.970 . S
Co0 N17 1.989 . S
Co0 O25 1.967 . S
Co0 O32 1.920 . S
Co1 O4 1.966 . S
Co1 N10 2.022 . S
Co1 N18 1.993 . S
Co1 O26 1.941 . S
C2 O3 1.258 . S
C2 O4 1.263 . S
O3 Co0 1.970 . S
O3 C2 1.258 . S
O4 Co1 1.966 . S
O4 C2 1.263 . S
C5 O6 1.235 . S
C5 O32 1.289 . S
O6 C5 1.235 . S
C7 C9 1.400 . S
C7 N10 1.351 . S
C7 C12 1.501 . S
C8 C9 1.387 . S
C8 N11 1.341 . S
C9 C7 1.400 . S
C9 C8 1.387 . S
N10 Co1 2.022 . S
N10 C7 1.351 . S
N10 N11 1.365 . S
N11 C8 1.341 . S
N11 N10 1.365 . S
N11 H31 0.862 . S
C12 C7 1.501 . S
C12 H13 0.961 . S
C12 H14 0.961 . S
C12 H15 0.960 1_455 S
H13 C12 0.961 . S
H14 C12 0.961 . S
H15 C12 0.960 1_655 S
C16 N17 1.342 . S
C16 C20 1.401 . S
C16 C21 1.499 . S
N17 Co0 1.989 . S
N17 C16 1.342 . S
N17 N18 1.388 . S
N18 Co1 1.993 . S
N18 N17 1.388 . S
N18 C19 1.346 . S
C19 N18 1.346 . S
C19 C20 1.396 . S
C19 C29 1.510 . S
C20 C16 1.401 . S
C20 C19 1.396 . S
C21 C16 1.499 . S
C21 H22 0.959 . S
C21 H23 0.960 . S
C21 H24 0.961 . S
H22 C21 0.959 . S
H23 C21 0.960 . S
H24 C21 0.961 . S
O25 Co0 1.967 . S
O25 C33 1.258 . S
O26 Co1 1.941 . S
O26 C33 1.266 . S
H27 C29 0.959 . S
H28 C29 0.961 . S
C29 C19 1.510 . S
C29 H27 0.959 . S
C29 H28 0.961 . S
C29 H30 0.960 . S
H30 C29 0.960 . S
H31 N11 0.862 . S
O32 Co0 1.920 . S
O32 C5 1.289 . S
C33 O25 1.258 . S
C33 O26 1.266 . S
Co34 O37 1.970 . S
Co34 N51 1.989 . S
Co34 O59 1.967 . S
Co34 O66 1.920 . S
Co35 O38 1.966 . S
Co35 N44 2.022 . S
Co35 N52 1.993 . S
Co35 O60 1.941 . S
C36 O37 1.258 . S
C36 O38 1.263 . S
O37 Co34 1.970 . S
O37 C36 1.258 . S
O38 Co35 1.966 . S
O38 C36 1.263 . S
C39 O40 1.235 . S
C39 O66 1.289 . S
O40 C39 1.235 . S
C41 C43 1.400 . S
C41 N44 1.351 . S
C41 C46 1.501 . S
C42 C43 1.387 . S
C42 N45 1.341 . S
C43 C41 1.400 . S
C43 C42 1.387 . S
N44 Co35 2.022 . S
N44 C41 1.351 . S
N44 N45 1.365 . S
N45 C42 1.341 . S
N45 N44 1.365 . S
N45 H65 0.862 . S
C46 C41 1.501 . S
C46 H47 0.961 . S
C46 H48 0.961 . S
C46 H49 0.960 1_545 S
H47 C46 0.961 . S
H48 C46 0.961 . S
H49 C46 0.960 1_565 S
C50 N51 1.342 . S
C50 C54 1.401 . S
C50 C55 1.499 . S
N51 Co34 1.989 . S
N51 C50 1.342 . S
N51 N52 1.388 . S
N52 Co35 1.993 . S
N52 N51 1.388 . S
N52 C53 1.346 . S
C53 N52 1.346 . S
C53 C54 1.396 . S
C53 C63 1.510 . S
C54 C50 1.401 . S
C54 C53 1.396 . S
C55 C50 1.499 . S
C55 H56 0.959 . S
C55 H57 0.960 . S
C55 H58 0.961 . S
H56 C55 0.959 . S
H57 C55 0.960 . S
H58 C55 0.961 . S
O59 Co34 1.967 . S
O59 C67 1.258 . S
O60 Co35 1.941 . S
O60 C67 1.266 . S
H61 C63 0.959 . S
H62 C63 0.961 . S
C63 C53 1.510 . S
C63 H61 0.959 . S
C63 H62 0.961 . S
C63 H64 0.960 . S
H64 C63 0.960 . S
H65 N45 0.862 . S
O66 Co34 1.920 . S
O66 C39 1.289 . S
C67 O59 1.258 . S
C67 O60 1.266 . S
Co68 O71 1.970 . S
Co68 N85 1.989 . S
Co68 O93 1.967 . S
Co68 O100 1.939 . S
Co69 O72 1.966 . S
Co69 N78 2.022 . S
Co69 N86 1.993 . S
Co69 O94 1.941 . S
C70 O71 1.258 . S
C70 O72 1.263 . S
O71 Co68 1.970 . S
O71 C70 1.258 . S
O72 Co69 1.966 . S
O72 C70 1.263 . S
C73 O74 1.240 . S
C73 O100 1.280 1_655 S
O74 C73 1.240 . S
C75 C77 1.400 . S
C75 N78 1.351 . S
C75 C80 1.501 . S
C76 C77 1.387 . S
C76 N79 1.341 . S
C77 C75 1.400 . S
C77 C76 1.387 . S
N78 Co69 2.022 . S
N78 C75 1.351 . S
N78 N79 1.365 . S
N79 C76 1.341 . S
N79 N78 1.365 . S
N79 H99 0.862 . S
C80 C75 1.501 . S
C80 H81 0.961 . S
C80 H82 0.961 . S
C80 H83 0.960 . S
H81 C80 0.961 . S
H82 C80 0.961 . S
H83 C80 0.960 . S
C84 N85 1.342 1_655 S
C84 C88 1.399 1_655 S
C84 C89 1.499 . S
N85 Co68 1.989 . S
N85 C84 1.342 1_455 S
N85 N86 1.388 . S
N86 Co69 1.993 . S
N86 N85 1.388 . S
N86 C87 1.346 . S
C87 N86 1.346 . S
C87 C88 1.411 . S
C87 C97 1.510 . S
C88 C84 1.399 1_455 S
C88 C87 1.411 . S
C89 C84 1.499 . S
C89 H90 0.959 . S
C89 H91 0.960 . S
C89 H92 0.961 . S
H90 C89 0.959 . S
H91 C89 0.960 . S
H92 C89 0.961 . S
O93 Co68 1.967 . S
O93 C101 1.258 . S
O94 Co69 1.941 . S
O94 C101 1.266 . S
H95 C97 0.959 . S
H96 C97 0.961 . S
C97 C87 1.510 . S
C97 H95 0.959 . S
C97 H96 0.961 . S
C97 H98 0.960 . S
H98 C97 0.960 . S
H99 N79 0.862 . S
O100 Co68 1.939 . S
O100 C73 1.280 1_455 S
C101 O93 1.258 . S
C101 O94 1.266 . S
Co102 O105 1.970 . S
Co102 N119 1.989 . S
Co102 O127 1.967 . S
Co102 O134 1.939 . S
Co103 O106 1.966 . S
Co103 N112 2.022 . S
Co103 N120 1.993 . S
Co103 O128 1.941 . S
C104 O105 1.258 . S
C104 O106 1.263 . S
O105 Co102 1.970 . S
O105 C104 1.258 . S
O106 Co103 1.966 . S
O106 C104 1.263 . S
C107 O108 1.240 . S
C107 O134 1.280 1_565 S
O108 C107 1.240 . S
C109 C111 1.400 . S
C109 N112 1.351 . S
C109 C114 1.501 . S
C110 C111 1.387 . S
C110 N113 1.341 . S
C111 C109 1.400 . S
C111 C110 1.387 . S
N112 Co103 2.022 . S
N112 C109 1.351 . S
N112 N113 1.365 . S
N113 C110 1.341 . S
N113 N112 1.365 . S
N113 H133 0.862 . S
C114 C109 1.501 . S
C114 H115 0.961 . S
C114 H116 0.961 . S
C114 H117 0.960 . S
H115 C114 0.961 . S
H116 C114 0.961 . S
H117 C114 0.960 . S
C118 N119 1.342 1_565 S
C118 C122 1.399 1_565 S
C118 C123 1.499 . S
N119 Co102 1.989 . S
N119 C118 1.342 1_545 S
N119 N120 1.388 . S
N120 Co103 1.993 . S
N120 N119 1.388 . S
N120 C121 1.346 . S
C121 N120 1.346 . S
C121 C122 1.411 . S
C121 C131 1.510 . S
C122 C118 1.399 1_545 S
C122 C121 1.411 . S
C123 C118 1.499 . S
C123 H124 0.959 . S
C123 H125 0.960 . S
C123 H126 0.961 . S
H124 C123 0.959 . S
H125 C123 0.960 . S
H126 C123 0.961 . S
O127 Co102 1.967 . S
O127 C135 1.258 . S
O128 Co103 1.941 . S
O128 C135 1.266 . S
H129 C131 0.959 . S
H130 C131 0.961 . S
C131 C121 1.510 . S
C131 H129 0.959 . S
C131 H130 0.961 . S
C131 H132 0.960 . S
H132 C131 0.960 . S
H133 N113 0.862 . S
O134 Co102 1.939 . S
O134 C107 1.280 1_545 S
C135 O127 1.258 . S
C135 O128 1.266 . S
Co136 O139 1.970 . S
Co136 N153 1.989 . S
Co136 O161 1.967 . S
Co136 O168 1.920 . S
Co137 O140 1.966 . S
Co137 N146 2.022 . S
Co137 N154 1.993 . S
Co137 O162 1.941 . S
C138 O139 1.258 . S
C138 O140 1.263 . S
O139 Co136 1.970 . S
O139 C138 1.258 . S
O140 Co137 1.966 . S
O140 C138 1.263 . S
C141 O142 1.235 . S
C141 O168 1.289 . S
O142 C141 1.235 . S
C143 C145 1.400 . S
C143 N146 1.351 . S
C143 C148 1.501 . S
C144 C145 1.387 . S
C144 N147 1.341 . S
C145 C143 1.400 . S
C145 C144 1.387 . S
N146 Co137 2.022 . S
N146 C143 1.351 . S
N146 N147 1.365 . S
N147 C144 1.341 . S
N147 N146 1.365 . S
N147 H167 0.862 . S
C148 C143 1.501 . S
C148 H149 0.961 . S
C148 H150 0.961 . S
C148 H151 0.960 1_455 S
H149 C148 0.961 . S
H150 C148 0.961 . S
H151 C148 0.960 1_655 S
C152 N153 1.342 . S
C152 C156 1.401 . S
C152 C157 1.499 . S
N153 Co136 1.989 . S
N153 C152 1.342 . S
N153 N154 1.388 . S
N154 Co137 1.993 . S
N154 N153 1.388 . S
N154 C155 1.346 . S
C155 N154 1.346 . S
C155 C156 1.396 . S
C155 C165 1.510 . S
C156 C152 1.401 . S
C156 C155 1.396 . S
C157 C152 1.499 . S
C157 H158 0.959 . S
C157 H159 0.960 . S
C157 H160 0.961 . S
H158 C157 0.959 . S
H159 C157 0.960 . S
H160 C157 0.961 . S
O161 Co136 1.967 . S
O161 C169 1.258 . S
O162 Co137 1.941 . S
O162 C169 1.266 . S
H163 C165 0.959 . S
H164 C165 0.961 . S
C165 C155 1.510 . S
C165 H163 0.959 . S
C165 H164 0.961 . S
C165 H166 0.960 . S
H166 C165 0.960 . S
H167 N147 0.862 . S
O168 Co136 1.920 . S
O168 C141 1.289 . S
C169 O161 1.258 . S
C169 O162 1.266 . S
Co170 O173 1.970 . S
Co170 N187 1.989 . S
Co170 O195 1.967 . S
Co170 O202 1.920 . S
Co171 O174 1.966 . S
Co171 N180 2.022 . S
Co171 N188 1.993 . S
Co171 O196 1.941 . S
C172 O173 1.258 . S
C172 O174 1.263 . S
O173 Co170 1.970 . S
O173 C172 1.258 . S
O174 Co171 1.966 . S
O174 C172 1.263 . S
C175 O176 1.235 . S
C175 O202 1.289 . S
O176 C175 1.235 . S
C177 C179 1.400 . S
C177 N180 1.351 . S
C177 C182 1.501 . S
C178 C179 1.387 . S
C178 N181 1.341 . S
C179 C177 1.400 . S
C179 C178 1.387 . S
N180 Co171 2.022 . S
N180 C177 1.351 . S
N180 N181 1.365 . S
N181 C178 1.341 . S
N181 N180 1.365 . S
N181 H201 0.862 . S
C182 C177 1.501 . S
C182 H183 0.961 . S
C182 H184 0.961 . S
C182 H185 0.960 1_545 S
H183 C182 0.961 . S
H184 C182 0.961 . S
H185 C182 0.960 1_565 S
C186 N187 1.342 . S
C186 C190 1.401 . S
C186 C191 1.499 . S
N187 Co170 1.989 . S
N187 C186 1.342 . S
N187 N188 1.388 . S
N188 Co171 1.993 . S
N188 N187 1.388 . S
N188 C189 1.346 . S
C189 N188 1.346 . S
C189 C190 1.396 . S
C189 C199 1.510 . S
C190 C186 1.401 . S
C190 C189 1.396 . S
C191 C186 1.499 . S
C191 H192 0.959 . S
C191 H193 0.960 . S
C191 H194 0.961 . S
H192 C191 0.959 . S
H193 C191 0.960 . S
H194 C191 0.961 . S
O195 Co170 1.967 . S
O195 C203 1.258 . S
O196 Co171 1.941 . S
O196 C203 1.266 . S
H197 C199 0.959 . S
H198 C199 0.961 . S
C199 C189 1.510 . S
C199 H197 0.959 . S
C199 H198 0.961 . S
C199 H200 0.960 . S
H200 C199 0.960 . S
H201 N181 0.862 . S
O202 Co170 1.920 . S
O202 C175 1.289 . S
C203 O195 1.258 . S
C203 O196 1.266 . S
Co204 O207 1.970 . S
Co204 N221 1.989 . S
Co204 O229 1.967 . S
Co204 O236 1.939 . S
Co205 O208 1.966 . S
Co205 N214 2.022 . S
Co205 N222 1.993 . S
Co205 O230 1.941 . S
C206 O207 1.258 . S
C206 O208 1.263 . S
O207 Co204 1.970 . S
O207 C206 1.258 . S
O208 Co205 1.966 . S
O208 C206 1.263 . S
C209 O210 1.240 . S
C209 O236 1.280 1_655 S
O210 C209 1.240 . S
C211 C213 1.400 . S
C211 N214 1.351 . S
C211 C216 1.501 . S
C212 C213 1.387 . S
C212 N215 1.341 . S
C213 C211 1.400 . S
C213 C212 1.387 . S
N214 Co205 2.022 . S
N214 C211 1.351 . S
N214 N215 1.365 . S
N215 C212 1.341 . S
N215 N214 1.365 . S
N215 H235 0.862 . S
C216 C211 1.501 . S
C216 H217 0.961 . S
C216 H218 0.961 . S
C216 H219 0.960 . S
H217 C216 0.961 . S
H218 C216 0.961 . S
H219 C216 0.960 . S
C220 N221 1.342 1_655 S
C220 C224 1.399 1_655 S
C220 C225 1.499 . S
N221 Co204 1.989 . S
N221 C220 1.342 1_455 S
N221 N222 1.388 . S
N222 Co205 1.993 . S
N222 N221 1.388 . S
N222 C223 1.346 . S
C223 N222 1.346 . S
C223 C224 1.411 . S
C223 C233 1.510 . S
C224 C220 1.399 1_455 S
C224 C223 1.411 . S
C225 C220 1.499 . S
C225 H226 0.959 . S
C225 H227 0.960 . S
C225 H228 0.961 . S
H226 C225 0.959 . S
H227 C225 0.960 . S
H228 C225 0.961 . S
O229 Co204 1.967 . S
O229 C237 1.258 . S
O230 Co205 1.941 . S
O230 C237 1.266 . S
H231 C233 0.959 . S
H232 C233 0.961 . S
C233 C223 1.510 . S
C233 H231 0.959 . S
C233 H232 0.961 . S
C233 H234 0.960 . S
H234 C233 0.960 . S
H235 N215 0.862 . S
O236 Co204 1.939 . S
O236 C209 1.280 1_455 S
C237 O229 1.258 . S
C237 O230 1.266 . S
Co238 O241 1.970 . S
Co238 N255 1.989 . S
Co238 O263 1.967 . S
Co238 O270 1.939 . S
Co239 O242 1.966 . S
Co239 N248 2.022 . S
Co239 N256 1.993 . S
Co239 O264 1.941 . S
C240 O241 1.258 . S
C240 O242 1.263 . S
O241 Co238 1.970 . S
O241 C240 1.258 . S
O242 Co239 1.966 . S
O242 C240 1.263 . S
C243 O244 1.240 . S
C243 O270 1.280 1_565 S
O244 C243 1.240 . S
C245 C247 1.400 . S
C245 N248 1.351 . S
C245 C250 1.501 . S
C246 C247 1.387 . S
C246 N249 1.341 . S
C247 C245 1.400 . S
C247 C246 1.387 . S
N248 Co239 2.022 . S
N248 C245 1.351 . S
N248 N249 1.365 . S
N249 C246 1.341 . S
N249 N248 1.365 . S
N249 H269 0.862 . S
C250 C245 1.501 . S
C250 H251 0.961 . S
C250 H252 0.961 . S
C250 H253 0.960 . S
H251 C250 0.961 . S
H252 C250 0.961 . S
H253 C250 0.960 . S
C254 N255 1.342 1_565 S
C254 C258 1.399 1_565 S
C254 C259 1.499 . S
N255 Co238 1.989 . S
N255 C254 1.342 1_545 S
N255 N256 1.388 . S
N256 Co239 1.993 . S
N256 N255 1.388 . S
N256 C257 1.346 . S
C257 N256 1.346 . S
C257 C258 1.411 . S
C257 C267 1.510 . S
C258 C254 1.399 1_545 S
C258 C257 1.411 . S
C259 C254 1.499 . S
C259 H260 0.959 . S
C259 H261 0.960 . S
C259 H262 0.961 . S
H260 C259 0.959 . S
H261 C259 0.960 . S
H262 C259 0.961 . S
O263 Co238 1.967 . S
O263 C271 1.258 . S
O264 Co239 1.941 . S
O264 C271 1.266 . S
H265 C267 0.959 . S
H266 C267 0.961 . S
C267 C257 1.510 . S
C267 H265 0.959 . S
C267 H266 0.961 . S
C267 H268 0.960 . S
H268 C267 0.960 . S
H269 N249 0.862 . S
O270 Co238 1.939 . S
O270 C243 1.280 1_545 S
C271 O263 1.258 . S
C271 O264 1.266 . S
Co272 O275 1.970 . S
Co272 N289 1.989 . S
Co272 O297 1.967 . S
Co272 O304 1.920 . S
Co273 O276 1.966 . S
Co273 N282 2.022 . S
Co273 N290 1.993 . S
Co273 O298 1.941 . S
C274 O275 1.258 . S
C274 O276 1.263 . S
O275 Co272 1.970 . S
O275 C274 1.258 . S
O276 Co273 1.966 . S
O276 C274 1.263 . S
C277 O278 1.235 . S
C277 O304 1.289 . S
O278 C277 1.235 . S
C279 C281 1.400 . S
C279 N282 1.351 . S
C279 C284 1.501 . S
C280 C281 1.387 . S
C280 N283 1.341 . S
C281 C279 1.400 . S
C281 C280 1.387 . S
N282 Co273 2.022 . S
N282 C279 1.351 . S
N282 N283 1.365 . S
N283 C280 1.341 . S
N283 N282 1.365 . S
N283 H303 0.862 . S
C284 C279 1.501 . S
C284 H285 0.961 . S
C284 H286 0.961 . S
C284 H287 0.960 . S
H285 C284 0.961 . S
H286 C284 0.961 . S
H287 C284 0.960 . S
C288 N289 1.342 . S
C288 C292 1.401 . S
C288 C293 1.499 . S
N289 Co272 1.989 . S
N289 C288 1.342 . S
N289 N290 1.388 . S
N290 Co273 1.993 . S
N290 N289 1.388 . S
N290 C291 1.346 . S
C291 N290 1.346 . S
C291 C292 1.396 . S
C291 C301 1.510 . S
C292 C288 1.401 . S
C292 C291 1.396 . S
C293 C288 1.499 . S
C293 H294 0.959 . S
C293 H295 0.960 . S
C293 H296 0.961 . S
H294 C293 0.959 . S
H295 C293 0.960 . S
H296 C293 0.961 . S
O297 Co272 1.967 . S
O297 C305 1.258 . S
O298 Co273 1.941 . S
O298 C305 1.266 . S
H299 C301 0.959 . S
H300 C301 0.961 . S
C301 C291 1.510 . S
C301 H299 0.959 . S
C301 H300 0.961 . S
C301 H302 0.960 . S
H302 C301 0.960 . S
H303 N283 0.862 . S
O304 Co272 1.920 . S
O304 C277 1.289 . S
C305 O297 1.258 . S
C305 O298 1.266 . S
Co306 O309 1.970 . S
Co306 N323 1.989 . S
Co306 O331 1.967 . S
Co306 O338 1.920 . S
Co307 O310 1.966 . S
Co307 N316 2.022 . S
Co307 N324 1.993 . S
Co307 O332 1.941 . S
C308 O309 1.258 . S
C308 O310 1.263 . S
O309 Co306 1.970 . S
O309 C308 1.258 . S
O310 Co307 1.966 . S
O310 C308 1.263 . S
C311 O312 1.235 . S
C311 O338 1.289 . S
O312 C311 1.235 . S
C313 C315 1.400 . S
C313 N316 1.351 . S
C313 C318 1.501 . S
C314 C315 1.387 . S
C314 N317 1.341 . S
C315 C313 1.400 . S
C315 C314 1.387 . S
N316 Co307 2.022 . S
N316 C313 1.351 . S
N316 N317 1.365 . S
N317 C314 1.341 . S
N317 N316 1.365 . S
N317 H337 0.862 . S
C318 C313 1.501 . S
C318 H319 0.961 . S
C318 H320 0.961 . S
C318 H321 0.960 . S
H319 C318 0.961 . S
H320 C318 0.961 . S
H321 C318 0.960 . S
C322 N323 1.342 . S
C322 C326 1.401 . S
C322 C327 1.499 . S
N323 Co306 1.989 . S
N323 C322 1.342 . S
N323 N324 1.388 . S
N324 Co307 1.993 . S
N324 N323 1.388 . S
N324 C325 1.346 . S
C325 N324 1.346 . S
C325 C326 1.396 . S
C325 C335 1.510 . S
C326 C322 1.401 . S
C326 C325 1.396 . S
C327 C322 1.499 . S
C327 H328 0.959 . S
C327 H329 0.960 . S
C327 H330 0.961 . S
H328 C327 0.959 . S
H329 C327 0.960 . S
H330 C327 0.961 . S
O331 Co306 1.967 . S
O331 C339 1.258 . S
O332 Co307 1.941 . S
O332 C339 1.266 . S
H333 C335 0.959 . S
H334 C335 0.961 . S
C335 C325 1.510 . S
C335 H333 0.959 . S
C335 H334 0.961 . S
C335 H336 0.960 . S
H336 C335 0.960 . S
H337 N317 0.862 . S
O338 Co306 1.920 . S
O338 C311 1.289 . S
C339 O331 1.258 . S
C339 O332 1.266 . S
Co340 O343 1.970 . S
Co340 N357 1.989 . S
Co340 O365 1.967 . S
Co340 O372 1.920 . S
Co341 O344 1.966 . S
Co341 N350 2.022 . S
Co341 N358 1.993 . S
Co341 O366 1.941 . S
C342 O343 1.258 . S
C342 O344 1.263 . S
O343 Co340 1.970 . S
O343 C342 1.258 . S
O344 Co341 1.966 . S
O344 C342 1.263 . S
C345 O346 1.235 . S
C345 O372 1.289 . S
O346 C345 1.235 . S
C347 C349 1.400 . S
C347 N350 1.351 . S
C347 C352 1.501 . S
C348 C349 1.387 . S
C348 N351 1.341 . S
C349 C347 1.400 . S
C349 C348 1.387 . S
N350 Co341 2.022 . S
N350 C347 1.351 . S
N350 N351 1.365 . S
N351 C348 1.341 . S
N351 N350 1.365 . S
N351 H371 0.862 . S
C352 C347 1.501 . S
C352 H353 0.961 . S
C352 H354 0.961 . S
C352 H355 0.960 . S
H353 C352 0.961 . S
H354 C352 0.961 . S
H355 C352 0.960 . S
C356 N357 1.342 . S
C356 C360 1.401 . S
C356 C361 1.499 . S
N357 Co340 1.989 . S
N357 C356 1.342 . S
N357 N358 1.388 . S
N358 Co341 1.993 . S
N358 N357 1.388 . S
N358 C359 1.346 . S
C359 N358 1.346 . S
C359 C360 1.396 . S
C359 C369 1.510 . S
C360 C356 1.401 . S
C360 C359 1.396 . S
C361 C356 1.499 . S
C361 H362 0.959 . S
C361 H363 0.960 . S
C361 H364 0.961 . S
H362 C361 0.959 . S
H363 C361 0.960 . S
H364 C361 0.961 . S
O365 Co340 1.967 . S
O365 C373 1.258 . S
O366 Co341 1.941 . S
O366 C373 1.266 . S
H367 C369 0.959 . S
H368 C369 0.961 . S
C369 C359 1.510 . S
C369 H367 0.959 . S
C369 H368 0.961 . S
C369 H370 0.960 . S
H370 C369 0.960 . S
H371 N351 0.862 . S
O372 Co340 1.920 . S
O372 C345 1.289 . S
C373 O365 1.258 . S
C373 O366 1.266 . S
Co374 O377 1.970 . S
Co374 N391 1.989 . S
Co374 O399 1.967 . S
Co374 O406 1.920 . S
Co375 O378 1.966 . S
Co375 N384 2.022 . S
Co375 N392 1.993 . S
Co375 O400 1.941 . S
C376 O377 1.258 . S
C376 O378 1.263 . S
O377 Co374 1.970 . S
O377 C376 1.258 . S
O378 Co375 1.966 . S
O378 C376 1.263 . S
C379 O380 1.235 . S
C379 O406 1.289 . S
O380 C379 1.235 . S
C381 C383 1.400 . S
C381 N384 1.351 . S
C381 C386 1.501 . S
C382 C383 1.387 . S
C382 N385 1.341 . S
C383 C381 1.400 . S
C383 C382 1.387 . S
N384 Co375 2.022 . S
N384 C381 1.351 . S
N384 N385 1.365 . S
N385 C382 1.341 . S
N385 N384 1.365 . S
N385 H405 0.862 . S
C386 C381 1.501 . S
C386 H387 0.961 . S
C386 H388 0.961 . S
C386 H389 0.960 . S
H387 C386 0.961 . S
H388 C386 0.961 . S
H389 C386 0.960 . S
C390 N391 1.342 . S
C390 C394 1.401 . S
C390 C395 1.499 . S
N391 Co374 1.989 . S
N391 C390 1.342 . S
N391 N392 1.388 . S
N392 Co375 1.993 . S
N392 N391 1.388 . S
N392 C393 1.346 . S
C393 N392 1.346 . S
C393 C394 1.396 . S
C393 C403 1.510 . S
C394 C390 1.401 . S
C394 C393 1.396 . S
C395 C390 1.499 . S
C395 H396 0.959 . S
C395 H397 0.960 . S
C395 H398 0.961 . S
H396 C395 0.959 . S
H397 C395 0.960 . S
H398 C395 0.961 . S
O399 Co374 1.967 . S
O399 C407 1.258 . S
O400 Co375 1.941 . S
O400 C407 1.266 . S
H401 C403 0.959 . S
H402 C403 0.961 . S
C403 C393 1.510 . S
C403 H401 0.959 . S
C403 H402 0.961 . S
C403 H404 0.960 . S
H404 C403 0.960 . S
H405 N385 0.862 . S
O406 Co374 1.920 . S
O406 C379 1.289 . S
C407 O399 1.258 . S
C407 O400 1.266 . S
Co408 O411 1.970 . S
Co408 N425 1.989 . S
Co408 O433 1.967 . S
Co408 O440 1.920 . S
Co409 O412 1.966 . S
Co409 N418 2.022 . S
Co409 N426 1.993 . S
Co409 O434 1.941 . S
C410 O411 1.258 . S
C410 O412 1.263 . S
O411 Co408 1.970 . S
O411 C410 1.258 . S
O412 Co409 1.966 . S
O412 C410 1.263 . S
C413 O414 1.235 . S
C413 O440 1.289 . S
O414 C413 1.235 . S
C415 C417 1.400 . S
C415 N418 1.351 . S
C415 C420 1.501 . S
C416 C417 1.387 . S
C416 N419 1.341 . S
C417 C415 1.400 . S
C417 C416 1.387 . S
N418 Co409 2.022 . S
N418 C415 1.351 . S
N418 N419 1.365 . S
N419 C416 1.341 . S
N419 N418 1.365 . S
N419 H439 0.862 . S
C420 C415 1.501 . S
C420 H421 0.961 . S
C420 H422 0.961 . S
C420 H423 0.960 . S
H421 C420 0.961 . S
H422 C420 0.961 . S
H423 C420 0.960 . S
C424 N425 1.342 . S
C424 C428 1.401 . S
C424 C429 1.499 . S
N425 Co408 1.989 . S
N425 C424 1.342 . S
N425 N426 1.388 . S
N426 Co409 1.993 . S
N426 N425 1.388 . S
N426 C427 1.346 . S
C427 N426 1.346 . S
C427 C428 1.396 . S
C427 C437 1.510 . S
C428 C424 1.401 . S
C428 C427 1.396 . S
C429 C424 1.499 . S
C429 H430 0.959 . S
C429 H431 0.960 . S
C429 H432 0.961 . S
H430 C429 0.959 . S
H431 C429 0.960 . S
H432 C429 0.961 . S
O433 Co408 1.967 . S
O433 C441 1.258 . S
O434 Co409 1.941 . S
O434 C441 1.266 . S
H435 C437 0.959 . S
H436 C437 0.961 . S
C437 C427 1.510 . S
C437 H435 0.959 . S
C437 H436 0.961 . S
C437 H438 0.960 . S
H438 C437 0.960 . S
H439 N419 0.862 . S
O440 Co408 1.920 . S
O440 C413 1.289 . S
C441 O433 1.258 . S
C441 O434 1.266 . S
Co442 O445 1.970 . S
Co442 N459 1.989 . S
Co442 O467 1.967 . S
Co442 O474 1.920 . S
Co443 O446 1.966 . S
Co443 N452 2.022 . S
Co443 N460 1.993 . S
Co443 O468 1.941 . S
C444 O445 1.258 . S
C444 O446 1.263 . S
O445 Co442 1.970 . S
O445 C444 1.258 . S
O446 Co443 1.966 . S
O446 C444 1.263 . S
C447 O448 1.235 . S
C447 O474 1.289 . S
O448 C447 1.235 . S
C449 C451 1.400 . S
C449 N452 1.351 . S
C449 C454 1.501 . S
C450 C451 1.387 . S
C450 N453 1.341 . S
C451 C449 1.400 . S
C451 C450 1.387 . S
N452 Co443 2.022 . S
N452 C449 1.351 . S
N452 N453 1.365 . S
N453 C450 1.341 . S
N453 N452 1.365 . S
N453 H473 0.862 . S
C454 C449 1.501 . S
C454 H455 0.961 . S
C454 H456 0.961 . S
C454 H457 0.960 . S
H455 C454 0.961 . S
H456 C454 0.961 . S
H457 C454 0.960 . S
C458 N459 1.342 . S
C458 C462 1.401 . S
C458 C463 1.499 . S
N459 Co442 1.989 . S
N459 C458 1.342 . S
N459 N460 1.388 . S
N460 Co443 1.993 . S
N460 N459 1.388 . S
N460 C461 1.346 . S
C461 N460 1.346 . S
C461 C462 1.396 . S
C461 C471 1.510 . S
C462 C458 1.401 . S
C462 C461 1.396 . S
C463 C458 1.499 . S
C463 H464 0.959 . S
C463 H465 0.960 . S
C463 H466 0.961 . S
H464 C463 0.959 . S
H465 C463 0.960 . S
H466 C463 0.961 . S
O467 Co442 1.967 . S
O467 C475 1.258 . S
O468 Co443 1.941 . S
O468 C475 1.266 . S
H469 C471 0.959 . S
H470 C471 0.961 . S
C471 C461 1.510 . S
C471 H469 0.959 . S
C471 H470 0.961 . S
C471 H472 0.960 . S
H472 C471 0.960 . S
H473 N453 0.862 . S
O474 Co442 1.920 . S
O474 C447 1.289 . S
C475 O467 1.258 . S
C475 O468 1.266 . S
Co476 O479 1.970 . S
Co476 N493 1.989 . S
Co476 O501 1.967 . S
Co476 O508 1.920 . S
Co477 O480 1.966 . S
Co477 N486 2.022 . S
Co477 N494 1.993 . S
Co477 O502 1.941 . S
C478 O479 1.258 . S
C478 O480 1.263 . S
O479 Co476 1.970 . S
O479 C478 1.258 . S
O480 Co477 1.966 . S
O480 C478 1.263 . S
C481 O482 1.235 . S
C481 O508 1.289 . S
O482 C481 1.235 . S
C483 C485 1.400 . S
C483 N486 1.351 . S
C483 C488 1.501 . S
C484 C485 1.387 . S
C484 N487 1.341 . S
C485 C483 1.400 . S
C485 C484 1.387 . S
N486 Co477 2.022 . S
N486 C483 1.351 . S
N486 N487 1.365 . S
N487 C484 1.341 . S
N487 N486 1.365 . S
N487 H507 0.862 . S
C488 C483 1.501 . S
C488 H489 0.961 . S
C488 H490 0.961 . S
C488 H491 0.960 . S
H489 C488 0.961 . S
H490 C488 0.961 . S
H491 C488 0.960 . S
C492 N493 1.342 . S
C492 C496 1.401 . S
C492 C497 1.499 . S
N493 Co476 1.989 . S
N493 C492 1.342 . S
N493 N494 1.388 . S
N494 Co477 1.993 . S
N494 N493 1.388 . S
N494 C495 1.346 . S
C495 N494 1.346 . S
C495 C496 1.396 . S
C495 C505 1.510 . S
C496 C492 1.401 . S
C496 C495 1.396 . S
C497 C492 1.499 . S
C497 H498 0.959 . S
C497 H499 0.960 . S
C497 H500 0.961 . S
H498 C497 0.959 . S
H499 C497 0.960 . S
H500 C497 0.961 . S
O501 Co476 1.967 . S
O501 C509 1.258 . S
O502 Co477 1.941 . S
O502 C509 1.266 . S
H503 C505 0.959 . S
H504 C505 0.961 . S
C505 C495 1.510 . S
C505 H503 0.959 . S
C505 H504 0.961 . S
C505 H506 0.960 . S
H506 C505 0.960 . S
H507 N487 0.862 . S
O508 Co476 1.920 . S
O508 C481 1.289 . S
C509 O501 1.258 . S
C509 O502 1.266 . S
Co510 O513 1.970 . S
Co510 N527 1.989 . S
Co510 O535 1.967 . S
Co510 O542 1.920 . S
Co511 O514 1.966 . S
Co511 N520 2.022 . S
Co511 N528 1.993 . S
Co511 O536 1.941 . S
C512 O513 1.258 . S
C512 O514 1.263 . S
O513 Co510 1.970 . S
O513 C512 1.258 . S
O514 Co511 1.966 . S
O514 C512 1.263 . S
C515 O516 1.235 . S
C515 O542 1.289 . S
O516 C515 1.235 . S
C517 C519 1.400 . S
C517 N520 1.351 . S
C517 C522 1.501 . S
C518 C519 1.387 . S
C518 N521 1.341 . S
C519 C517 1.400 . S
C519 C518 1.387 . S
N520 Co511 2.022 . S
N520 C517 1.351 . S
N520 N521 1.365 . S
N521 C518 1.341 . S
N521 N520 1.365 . S
N521 H541 0.862 . S
C522 C517 1.501 . S
C522 H523 0.961 . S
C522 H524 0.961 . S
C522 H525 0.960 . S
H523 C522 0.961 . S
H524 C522 0.961 . S
H525 C522 0.960 . S
C526 N527 1.342 . S
C526 C530 1.401 . S
C526 C531 1.499 . S
N527 Co510 1.989 . S
N527 C526 1.342 . S
N527 N528 1.388 . S
N528 Co511 1.993 . S
N528 N527 1.388 . S
N528 C529 1.346 . S
C529 N528 1.346 . S
C529 C530 1.396 . S
C529 C539 1.510 . S
C530 C526 1.401 . S
C530 C529 1.396 . S
C531 C526 1.499 . S
C531 H532 0.959 . S
C531 H533 0.960 . S
C531 H534 0.961 . S
H532 C531 0.959 . S
H533 C531 0.960 . S
H534 C531 0.961 . S
O535 Co510 1.967 . S
O535 C543 1.258 . S
O536 Co511 1.941 . S
O536 C543 1.266 . S
H537 C539 0.959 . S
H538 C539 0.961 . S
C539 C529 1.510 . S
C539 H537 0.959 . S
C539 H538 0.961 . S
C539 H540 0.960 . S
H540 C539 0.960 . S
H541 N521 0.862 . S
O542 Co510 1.920 . S
O542 C515 1.289 . S
C543 O535 1.258 . S
C543 O536 1.266 . S
H544 C552 0.950 . S
H545 C557 0.950 . S
H546 C554 0.950 . S
H547 C556 0.950 . S
H548 C558 0.950 . S
H549 C560 0.950 . S
H550 C562 0.950 . S
H551 C563 0.950 . S
C552 H544 0.950 . S
C552 C553 1.386 . S
C552 C554 1.391 . S
C553 C552 1.386 . S
C553 C557 1.393 . S
C554 H546 0.950 . S
C554 C552 1.391 . S
C554 C555 1.400 . S
C555 C554 1.400 . S
C555 C556 1.398 . S
C555 C561 1.491 . S
C556 H547 0.950 . S
C556 C555 1.398 . S
C556 C557 1.391 . S
C557 H545 0.950 . S
C557 C553 1.393 . S
C557 C556 1.391 . S
C558 H548 0.950 . S
C558 C559 1.386 . S
C558 C560 1.391 . S
C559 C558 1.386 . S
C559 C563 1.393 . S
C560 H549 0.950 . S
C560 C558 1.391 . S
C560 C561 1.400 . S
C561 C555 1.491 . S
C561 C560 1.400 . S
C561 C562 1.398 . S
C562 H550 0.950 . S
C562 C561 1.398 . S
C562 C563 1.391 . S
C563 H551 0.950 . S
C563 C559 1.393 . S
C563 C562 1.391 . S
H564 C572 0.950 . S
H565 C577 0.950 . S
H566 C574 0.950 . S
H567 C576 0.950 . S
H568 C578 0.950 . S
H569 C580 0.950 . S
H570 C582 0.950 . S
H571 C583 0.950 . S
C572 H564 0.950 . S
C572 C573 1.386 . S
C572 C574 1.391 . S
C573 C572 1.386 . S
C573 C577 1.393 . S
C574 H566 0.950 . S
C574 C572 1.391 . S
C574 C575 1.400 . S
C575 C574 1.400 . S
C575 C576 1.398 . S
C575 C581 1.491 . S
C576 H567 0.950 . S
C576 C575 1.398 . S
C576 C577 1.391 . S
C577 H565 0.950 . S
C577 C573 1.393 . S
C577 C576 1.391 . S
C578 H568 0.950 . S
C578 C579 1.386 . S
C578 C580 1.391 . S
C579 C578 1.386 . S
C579 C583 1.393 . S
C580 H569 0.950 . S
C580 C578 1.391 . S
C580 C581 1.400 . S
C581 C575 1.491 . S
C581 C580 1.400 . S
C581 C582 1.398 . S
C582 H570 0.950 . S
C582 C581 1.398 . S
C582 C583 1.391 . S
C583 H571 0.950 . S
C583 C579 1.393 . S
C583 C582 1.391 . S
H584 C592 0.950 . S
H585 C597 0.950 . S
H586 C594 0.950 . S
H587 C596 0.950 . S
H588 C598 0.950 . S
H589 C600 0.950 . S
H590 C602 0.950 . S
H591 C603 0.950 . S
C592 H584 0.950 . S
C592 C593 1.386 . S
C592 C594 1.391 . S
C593 C592 1.386 . S
C593 C597 1.393 . S
C594 H586 0.950 . S
C594 C592 1.391 . S
C594 C595 1.400 . S
C595 C594 1.400 . S
C595 C596 1.398 . S
C595 C601 1.491 . S
C596 H587 0.950 . S
C596 C595 1.398 . S
C596 C597 1.391 . S
C597 H585 0.950 . S
C597 C593 1.393 . S
C597 C596 1.391 . S
C598 H588 0.950 . S
C598 C599 1.386 . S
C598 C600 1.391 . S
C599 C598 1.386 . S
C599 C603 1.393 . S
C600 H589 0.950 . S
C600 C598 1.391 . S
C600 C601 1.400 . S
C601 C595 1.491 . S
C601 C600 1.400 . S
C601 C602 1.398 . S
C602 H590 0.950 . S
C602 C601 1.398 . S
C602 C603 1.391 . S
C603 H591 0.950 . S
C603 C599 1.393 . S
C603 C602 1.391 . S
H604 C612 0.950 . S
H605 C617 0.950 . S
H606 C614 0.950 . S
H607 C616 0.950 . S
H608 C618 0.950 . S
H609 C620 0.950 . S
H610 C622 0.950 . S
H611 C623 0.950 . S
C612 H604 0.950 . S
C612 C613 1.386 . S
C612 C614 1.391 . S
C613 C612 1.386 . S
C613 C617 1.393 . S
C614 H606 0.950 . S
C614 C612 1.391 . S
C614 C615 1.400 . S
C615 C614 1.400 . S
C615 C616 1.398 . S
C615 C621 1.491 . S
C616 H607 0.950 . S
C616 C615 1.398 . S
C616 C617 1.391 . S
C617 H605 0.950 . S
C617 C613 1.393 . S
C617 C616 1.391 . S
C618 H608 0.950 . S
C618 C619 1.386 . S
C618 C620 1.391 . S
C619 C618 1.386 . S
C619 C623 1.393 . S
C620 H609 0.950 . S
C620 C618 1.391 . S
C620 C621 1.400 . S
C621 C615 1.491 . S
C621 C620 1.400 . S
C621 C622 1.398 . S
C622 H610 0.950 . S
C622 C621 1.398 . S
C622 C623 1.391 . S
C623 H611 0.950 . S
C623 C619 1.393 . S
C623 C622 1.391 . S
H624 C632 0.950 . S
H625 C637 0.950 . S
H626 C634 0.950 . S
H627 C636 0.950 . S
H628 C638 0.950 . S
H629 C640 0.950 . S
H630 C642 0.950 . S
H631 C643 0.950 . S
C632 H624 0.950 . S
C632 C633 1.386 . S
C632 C634 1.391 . S
C633 C632 1.386 . S
C633 C637 1.393 . S
C634 H626 0.950 . S
C634 C632 1.391 . S
C634 C635 1.400 . S
C635 C634 1.400 . S
C635 C636 1.398 . S
C635 C641 1.491 1_556 S
C636 H627 0.950 . S
C636 C635 1.398 . S
C636 C637 1.391 . S
C637 H625 0.950 . S
C637 C633 1.393 . S
C637 C636 1.391 . S
C638 H628 0.950 . S
C638 C639 1.386 . S
C638 C640 1.391 . S
C639 C638 1.386 . S
C639 C643 1.393 . S
C640 H629 0.950 . S
C640 C638 1.391 . S
C640 C641 1.400 . S
C641 C635 1.491 1_554 S
C641 C640 1.400 . S
C641 C642 1.398 . S
C642 H630 0.950 . S
C642 C641 1.398 . S
C642 C643 1.391 . S
C643 H631 0.950 . S
C643 C639 1.393 . S
C643 C642 1.391 . S
H644 C652 0.950 . S
H645 C657 0.950 . S
H646 C654 0.950 . S
H647 C656 0.950 . S
H648 C658 0.950 . S
H649 C660 0.950 . S
H650 C662 0.950 . S
H651 C663 0.950 . S
C652 H644 0.950 . S
C652 C653 1.386 . S
C652 C654 1.391 . S
C653 C652 1.386 . S
C653 C657 1.393 . S
C654 H646 0.950 . S
C654 C652 1.391 . S
C654 C655 1.400 . S
C655 C654 1.400 . S
C655 C656 1.398 . S
C655 C661 1.491 1_556 S
C656 H647 0.950 . S
C656 C655 1.398 . S
C656 C657 1.391 . S
C657 H645 0.950 . S
C657 C653 1.393 . S
C657 C656 1.391 . S
C658 H648 0.950 . S
C658 C659 1.386 . S
C658 C660 1.391 . S
C659 C658 1.386 . S
C659 C663 1.393 . S
C660 H649 0.950 . S
C660 C658 1.391 . S
C660 C661 1.400 . S
C661 C655 1.491 1_554 S
C661 C660 1.400 . S
C661 C662 1.398 . S
C662 H650 0.950 . S
C662 C661 1.398 . S
C662 C663 1.391 . S
C663 H651 0.950 . S
C663 C659 1.393 . S
C663 C662 1.391 . S
H664 C672 0.950 . S
H665 C677 0.950 . S
H666 C674 0.950 . S
H667 C676 0.950 . S
H668 C678 0.950 . S
H669 C680 0.950 . S
H670 C682 0.950 . S
H671 C683 0.950 . S
C672 H664 0.950 . S
C672 C673 1.386 . S
C672 C674 1.391 . S
C673 C672 1.386 . S
C673 C677 1.393 . S
C674 H666 0.950 . S
C674 C672 1.391 . S
C674 C675 1.400 . S
C675 C674 1.400 . S
C675 C676 1.398 . S
C675 C681 1.491 1_556 S
C676 H667 0.950 . S
C676 C675 1.398 . S
C676 C677 1.391 . S
C677 H665 0.950 . S
C677 C673 1.393 . S
C677 C676 1.391 . S
C678 H668 0.950 . S
C678 C679 1.386 . S
C678 C680 1.391 . S
C679 C678 1.386 . S
C679 C683 1.393 . S
C680 H669 0.950 . S
C680 C678 1.391 . S
C680 C681 1.400 . S
C681 C675 1.491 1_554 S
C681 C680 1.400 . S
C681 C682 1.398 . S
C682 H670 0.950 . S
C682 C681 1.398 . S
C682 C683 1.391 . S
C683 H671 0.950 . S
C683 C679 1.393 . S
C683 C682 1.391 . S
H684 C692 0.950 . S
H685 C697 0.950 . S
H686 C694 0.950 . S
H687 C696 0.950 . S
H688 C698 0.950 . S
H689 C700 0.950 . S
H690 C702 0.950 . S
H691 C703 0.950 . S
C692 H684 0.950 . S
C692 C693 1.386 . S
C692 C694 1.391 . S
C693 C692 1.386 . S
C693 C697 1.393 . S
C694 H686 0.950 . S
C694 C692 1.391 . S
C694 C695 1.400 . S
C695 C694 1.400 . S
C695 C696 1.398 . S
C695 C701 1.491 1_554 S
C696 H687 0.950 . S
C696 C695 1.398 . S
C696 C697 1.391 . S
C697 H685 0.950 . S
C697 C693 1.393 . S
C697 C696 1.391 . S
C698 H688 0.950 . S
C698 C699 1.386 . S
C698 C700 1.391 . S
C699 C698 1.386 . S
C699 C703 1.393 . S
C700 H689 0.950 . S
C700 C698 1.391 . S
C700 C701 1.400 . S
C701 C695 1.491 1_556 S
C701 C700 1.400 . S
C701 C702 1.398 . S
C702 H690 0.950 . S
C702 C701 1.398 . S
C702 C703 1.391 . S
C703 H691 0.950 . S
C703 C699 1.393 . S
C703 C702 1.391 . S
H704 C712 0.950 . S
H705 C717 0.950 . S
H706 C714 0.950 . S
H707 C716 0.950 . S
H708 C718 0.950 . S
H709 C720 0.950 . S
H710 C722 0.950 . S
H711 C723 0.950 . S
C712 H704 0.950 . S
C712 C713 1.386 . S
C712 C714 1.391 . S
C713 C712 1.386 . S
C713 C717 1.393 . S
C714 H706 0.950 . S
C714 C712 1.391 . S
C714 C715 1.400 . S
C715 C714 1.400 . S
C715 C716 1.398 . S
C715 C721 1.491 . S
C716 H707 0.950 . S
C716 C715 1.398 . S
C716 C717 1.391 . S
C717 H705 0.950 . S
C717 C713 1.393 . S
C717 C716 1.391 . S
C718 H708 0.950 . S
C718 C719 1.386 . S
C718 C720 1.391 . S
C719 C718 1.386 . S
C719 C723 1.393 . S
C720 H709 0.950 . S
C720 C718 1.391 . S
C720 C721 1.400 . S
C721 C715 1.491 . S
C721 C720 1.400 . S
C721 C722 1.398 . S
C722 H710 0.950 . S
C722 C721 1.398 . S
C722 C723 1.391 . S
C723 H711 0.950 . S
C723 C719 1.393 . S
C723 C722 1.391 . S
H724 C732 0.950 . S
H725 C737 0.950 . S
H726 C734 0.950 . S
H727 C736 0.950 . S
H728 C738 0.950 . S
H729 C740 0.950 . S
H730 C742 0.950 . S
H731 C743 0.950 . S
C732 H724 0.950 . S
C732 C733 1.386 . S
C732 C734 1.391 . S
C733 C732 1.386 . S
C733 C737 1.393 . S
C734 H726 0.950 . S
C734 C732 1.391 . S
C734 C735 1.400 . S
C735 C734 1.400 . S
C735 C736 1.398 . S
C735 C741 1.491 . S
C736 H727 0.950 . S
C736 C735 1.398 . S
C736 C737 1.391 . S
C737 H725 0.950 . S
C737 C733 1.393 . S
C737 C736 1.391 . S
C738 H728 0.950 . S
C738 C739 1.386 . S
C738 C740 1.391 . S
C739 C738 1.386 . S
C739 C743 1.393 . S
C740 H729 0.950 . S
C740 C738 1.391 . S
C740 C741 1.400 1_455 S
C741 C735 1.491 . S
C741 C740 1.400 1_655 S
C741 C742 1.398 . S
C742 H730 0.950 . S
C742 C741 1.398 . S
C742 C743 1.391 1_655 S
C743 H731 0.950 . S
C743 C739 1.393 . S
C743 C742 1.391 1_455 S
H744 C752 0.950 . S
H745 C757 0.950 . S
H746 C754 0.950 . S
H747 C756 0.950 . S
H748 C758 0.950 . S
H749 C760 0.950 . S
H750 C762 0.950 . S
H751 C763 0.950 . S
C752 H744 0.950 . S
C752 C753 1.386 . S
C752 C754 1.391 1_545 S
C753 C752 1.386 . S
C753 C757 1.393 . S
C754 H746 0.950 . S
C754 C752 1.391 1_565 S
C754 C755 1.400 . S
C755 C754 1.400 . S
C755 C756 1.398 1_565 S
C755 C761 1.491 . S
C756 H747 0.950 . S
C756 C755 1.398 1_545 S
C756 C757 1.391 . S
C757 H745 0.950 . S
C757 C753 1.393 . S
C757 C756 1.391 . S
C758 H748 0.950 . S
C758 C759 1.386 . S
C758 C760 1.391 . S
C759 C758 1.386 . S
C759 C763 1.393 . S
C760 H749 0.950 . S
C760 C758 1.391 . S
C760 C761 1.400 . S
C761 C755 1.491 . S
C761 C760 1.400 . S
C761 C762 1.398 . S
C762 H750 0.950 . S
C762 C761 1.398 . S
C762 C763 1.391 . S
C763 H751 0.950 . S
C763 C759 1.393 . S
C763 C762 1.391 . S
H764 C772 0.950 . S
H765 C777 0.950 . S
H766 C774 0.950 . S
H767 C776 0.950 . S
H768 C778 0.950 . S
H769 C780 0.950 . S
H770 C782 0.950 . S
H771 C783 0.950 . S
C772 H764 0.950 . S
C772 C773 1.386 . S
C772 C774 1.391 . S
C773 C772 1.386 . S
C773 C777 1.393 . S
C774 H766 0.950 . S
C774 C772 1.391 . S
C774 C775 1.400 . S
C775 C774 1.400 . S
C775 C776 1.398 . S
C775 C781 1.491 . S
C776 H767 0.950 . S
C776 C775 1.398 . S
C776 C777 1.391 . S
C777 H765 0.950 . S
C777 C773 1.393 . S
C777 C776 1.391 . S
C778 H768 0.950 . S
C778 C779 1.386 . S
C778 C780 1.391 . S
C779 C778 1.386 . S
C779 C783 1.393 . S
C780 H769 0.950 . S
C780 C778 1.391 . S
C780 C781 1.400 . S
C781 C775 1.491 . S
C781 C780 1.400 . S
C781 C782 1.398 . S
C782 H770 0.950 . S
C782 C781 1.398 . S
C782 C783 1.391 . S
C783 H771 0.950 . S
C783 C779 1.393 . S
C783 C782 1.391 . S
H784 C792 0.950 . S
H785 C797 0.950 . S
H786 C794 0.950 . S
H787 C796 0.950 . S
H788 C798 0.950 . S
H789 C800 0.950 . S
H790 C802 0.950 . S
H791 C803 0.950 . S
C792 H784 0.950 . S
C792 C793 1.386 . S
C792 C794 1.391 1_545 S
C793 C792 1.386 . S
C793 C797 1.393 . S
C794 H786 0.950 . S
C794 C792 1.391 1_565 S
C794 C795 1.400 . S
C795 C794 1.400 . S
C795 C796 1.398 1_565 S
C795 C801 1.491 . S
C796 H787 0.950 . S
C796 C795 1.398 1_545 S
C796 C797 1.391 . S
C797 H785 0.950 . S
C797 C793 1.393 . S
C797 C796 1.391 . S
C798 H788 0.950 . S
C798 C799 1.386 . S
C798 C800 1.391 . S
C799 C798 1.386 . S
C799 C803 1.393 . S
C800 H789 0.950 . S
C800 C798 1.391 . S
C800 C801 1.400 . S
C801 C795 1.491 . S
C801 C800 1.400 . S
C801 C802 1.398 . S
C802 H790 0.950 . S
C802 C801 1.398 . S
C802 C803 1.391 . S
C803 H791 0.950 . S
C803 C799 1.393 . S
C803 C802 1.391 . S
H804 C812 0.950 . S
H805 C817 0.950 . S
H806 C814 0.950 . S
H807 C816 0.950 . S
H808 C818 0.950 . S
H809 C820 0.950 . S
H810 C822 0.950 . S
H811 C823 0.950 . S
C812 H804 0.950 . S
C812 C813 1.386 . S
C812 C814 1.391 . S
C813 C812 1.386 . S
C813 C817 1.393 . S
C814 H806 0.950 . S
C814 C812 1.391 . S
C814 C815 1.400 . S
C815 C814 1.400 . S
C815 C816 1.398 . S
C815 C821 1.491 . S
C816 H807 0.950 . S
C816 C815 1.398 . S
C816 C817 1.391 . S
C817 H805 0.950 . S
C817 C813 1.393 . S
C817 C816 1.391 . S
C818 H808 0.950 . S
C818 C819 1.386 . S
C818 C820 1.391 . S
C819 C818 1.386 . S
C819 C823 1.393 . S
C820 H809 0.950 . S
C820 C818 1.391 . S
C820 C821 1.400 . S
C821 C815 1.491 . S
C821 C820 1.400 . S
C821 C822 1.398 . S
C822 H810 0.950 . S
C822 C821 1.398 . S
C822 C823 1.391 . S
C823 H811 0.950 . S
C823 C819 1.393 . S
C823 C822 1.391 . S
H824 C832 0.950 . S
H825 C837 0.950 . S
H826 C834 0.950 . S
H827 C836 0.950 . S
H828 C838 0.950 . S
H829 C840 0.950 . S
H830 C842 0.950 . S
H831 C843 0.950 . S
C832 H824 0.950 . S
C832 C833 1.386 . S
C832 C834 1.391 . S
C833 C832 1.386 . S
C833 C837 1.393 . S
C834 H826 0.950 . S
C834 C832 1.391 . S
C834 C835 1.400 . S
C835 C834 1.400 . S
C835 C836 1.398 . S
C835 C841 1.491 . S
C836 H827 0.950 . S
C836 C835 1.398 . S
C836 C837 1.391 . S
C837 H825 0.950 . S
C837 C833 1.393 . S
C837 C836 1.391 . S
C838 H828 0.950 . S
C838 C839 1.386 . S
C838 C840 1.391 . S
C839 C838 1.386 . S
C839 C843 1.393 . S
C840 H829 0.950 . S
C840 C838 1.391 . S
C840 C841 1.400 . S
C841 C835 1.491 . S
C841 C840 1.400 . S
C841 C842 1.398 . S
C842 H830 0.950 . S
C842 C841 1.398 . S
C842 C843 1.391 . S
C843 H831 0.950 . S
C843 C839 1.393 . S
C843 C842 1.391 . S
H844 C852 0.950 . S
H845 C857 0.950 . S
H846 C854 0.954 . S
H847 C856 0.950 . S
H848 C858 0.950 . S
H849 C860 0.950 . S
H850 C862 0.950 . S
H851 C863 0.950 . S
C852 H844 0.950 . S
C852 C853 1.386 . S
C852 C854 1.381 1_455 S
C853 C852 1.386 . S
C853 C857 1.393 . S
C854 H846 0.954 . S
C854 C852 1.381 1_655 S
C854 C855 1.406 . S
C855 C854 1.406 . S
C855 C856 1.398 . S
C855 C861 1.491 . S
C856 H847 0.950 . S
C856 C855 1.398 . S
C856 C857 1.391 1_655 S
C857 H845 0.950 . S
C857 C853 1.393 . S
C857 C856 1.391 1_455 S
C858 H848 0.950 . S
C858 C859 1.386 . S
C858 C860 1.391 . S
C859 C858 1.386 . S
C859 C863 1.393 . S
C860 H849 0.950 . S
C860 C858 1.391 . S
C860 C861 1.400 . S
C861 C855 1.491 . S
C861 C860 1.400 . S
C861 C862 1.398 . S
C862 H850 0.950 . S
C862 C861 1.398 . S
C862 C863 1.391 . S
C863 H851 0.950 . S
C863 C859 1.393 . S
C863 C862 1.391 . S
H864 C872 0.950 . S
H865 C877 0.950 . S
H866 C874 0.950 . S
H867 C876 0.950 . S
H868 C878 0.950 . S
H869 C880 0.950 . S
H870 C882 0.950 . S
H871 C883 0.950 . S
C872 H864 0.950 . S
C872 C873 1.386 . S
C872 C874 1.391 . S
C873 C872 1.386 . S
C873 C877 1.393 . S
C874 H866 0.950 . S
C874 C872 1.391 . S
C874 C875 1.400 . S
C875 C874 1.400 . S
C875 C876 1.398 . S
C875 C881 1.491 . S
C876 H867 0.950 . S
C876 C875 1.398 . S
C876 C877 1.391 . S
C877 H865 0.950 . S
C877 C873 1.393 . S
C877 C876 1.391 . S
C878 H868 0.950 . S
C878 C879 1.386 . S
C878 C880 1.391 . S
C879 C878 1.386 . S
C879 C883 1.393 . S
C880 H869 0.950 . S
C880 C878 1.391 . S
C880 C881 1.400 . S
C881 C875 1.491 . S
C881 C880 1.400 . S
C881 C882 1.398 . S
C882 H870 0.950 . S
C882 C881 1.398 . S
C882 C883 1.391 . S
C883 H871 0.950 . S
C883 C879 1.393 . S
C883 C882 1.391 . S
H884 C892 0.950 . S
H885 C897 0.950 . S
H886 C894 0.950 . S
H887 C896 0.950 . S
H888 C898 0.950 . S
H889 C900 0.950 . S
H890 C902 0.950 . S
H891 C903 0.950 . S
C892 H884 0.950 . S
C892 C893 1.386 . S
C892 C894 1.391 . S
C893 C892 1.386 . S
C893 C897 1.393 . S
C894 H886 0.950 . S
C894 C892 1.391 . S
C894 C895 1.400 . S
C895 C894 1.400 . S
C895 C896 1.398 . S
C895 C901 1.491 . S
C896 H887 0.950 . S
C896 C895 1.398 . S
C896 C897 1.391 . S
C897 H885 0.950 . S
C897 C893 1.393 . S
C897 C896 1.391 . S
C898 H888 0.950 . S
C898 C899 1.386 . S
C898 C900 1.391 . S
C899 C898 1.386 . S
C899 C903 1.393 . S
C900 H889 0.950 . S
C900 C898 1.391 . S
C900 C901 1.400 . S
C901 C895 1.491 . S
C901 C900 1.400 . S
C901 C902 1.398 . S
C902 H890 0.950 . S
C902 C901 1.398 . S
C902 C903 1.391 . S
C903 H891 0.950 . S
C903 C899 1.393 . S
C903 C902 1.391 . S
H904 C912 0.950 . S
H905 C917 0.950 . S
H906 C914 0.950 . S
H907 C916 0.950 . S
H908 C918 0.950 . S
H909 C920 0.950 . S
H910 C922 0.950 . S
H911 C923 0.950 . S
C912 H904 0.950 . S
C912 C913 1.386 . S
C912 C914 1.391 . S
C913 C912 1.386 . S
C913 C917 1.393 . S
C914 H906 0.950 . S
C914 C912 1.391 . S
C914 C915 1.400 . S
C915 C914 1.400 . S
C915 C916 1.398 . S
C915 C921 1.491 . S
C916 H907 0.950 . S
C916 C915 1.398 . S
C916 C917 1.391 . S
C917 H905 0.950 . S
C917 C913 1.393 . S
C917 C916 1.391 . S
C918 H908 0.950 . S
C918 C919 1.386 . S
C918 C920 1.391 . S
C919 C918 1.386 . S
C919 C923 1.393 . S
C920 H909 0.950 . S
C920 C918 1.391 . S
C920 C921 1.400 . S
C921 C915 1.491 . S
C921 C920 1.400 . S
C921 C922 1.398 . S
C922 H910 0.950 . S
C922 C921 1.398 . S
C922 C923 1.391 . S
C923 H911 0.950 . S
C923 C919 1.393 . S
C923 C922 1.391 . S
H924 C932 0.950 . S
H925 C937 0.950 . S
H926 C934 0.950 . S
H927 C936 0.950 . S
H928 C938 0.950 . S
H929 C940 0.950 . S
H930 C942 0.950 . S
H931 C943 0.950 . S
C932 H924 0.950 . S
C932 C933 1.386 . S
C932 C934 1.391 . S
C933 C932 1.386 . S
C933 C937 1.393 . S
C934 H926 0.950 . S
C934 C932 1.391 . S
C934 C935 1.400 . S
C935 C934 1.400 . S
C935 C936 1.398 . S
C935 C941 1.491 . S
C936 H927 0.950 . S
C936 C935 1.398 . S
C936 C937 1.391 . S
C937 H925 0.950 . S
C937 C933 1.393 . S
C937 C936 1.391 . S
C938 H928 0.950 . S
C938 C939 1.386 . S
C938 C940 1.391 . S
C939 C938 1.386 . S
C939 C943 1.393 . S
C940 H929 0.950 . S
C940 C938 1.391 . S
C940 C941 1.400 . S
C941 C935 1.491 . S
C941 C940 1.400 . S
C941 C942 1.398 . S
C942 H930 0.950 . S
C942 C941 1.398 . S
C942 C943 1.391 . S
C943 H931 0.950 . S
C943 C939 1.393 . S
C943 C942 1.391 . S
H944 C952 0.950 . S
H945 C957 0.950 . S
H946 C954 0.950 . S
H947 C956 0.950 . S
H948 C958 0.950 . S
H949 C960 0.950 . S
H950 C962 0.950 . S
H951 C963 0.950 . S
C952 H944 0.950 . S
C952 C953 1.386 . S
C952 C954 1.391 . S
C953 C952 1.386 . S
C953 C957 1.393 . S
C954 H946 0.950 . S
C954 C952 1.391 . S
C954 C955 1.400 . S
C955 C954 1.400 . S
C955 C956 1.398 . S
C955 C961 1.491 . S
C956 H947 0.950 . S
C956 C955 1.398 . S
C956 C957 1.391 . S
C957 H945 0.950 . S
C957 C953 1.393 . S
C957 C956 1.391 . S
C958 H948 0.950 . S
C958 C959 1.386 . S
C958 C960 1.391 . S
C959 C958 1.386 . S
C959 C963 1.393 . S
C960 H949 0.950 . S
C960 C958 1.391 . S
C960 C961 1.400 . S
C961 C955 1.491 . S
C961 C960 1.400 . S
C961 C962 1.398 . S
C962 H950 0.950 . S
C962 C961 1.398 . S
C962 C963 1.391 . S
C963 H951 0.950 . S
C963 C959 1.393 . S
C963 C962 1.391 . S
H964 C972 0.950 . S
H965 C977 0.950 . S
H966 C974 0.950 . S
H967 C976 0.950 . S
H968 C978 0.950 . S
H969 C980 0.950 . S
H970 C982 0.950 . S
H971 C983 0.950 . S
C972 H964 0.950 . S
C972 C973 1.386 . S
C972 C974 1.391 . S
C973 C972 1.386 . S
C973 C977 1.393 . S
C974 H966 0.950 . S
C974 C972 1.391 . S
C974 C975 1.400 . S
C975 C974 1.400 . S
C975 C976 1.398 . S
C975 C981 1.491 . S
C976 H967 0.950 . S
C976 C975 1.398 . S
C976 C977 1.391 . S
C977 H965 0.950 . S
C977 C973 1.393 . S
C977 C976 1.391 . S
C978 H968 0.950 . S
C978 C979 1.386 . S
C978 C980 1.391 . S
C979 C978 1.386 . S
C979 C983 1.393 . S
C980 H969 0.950 . S
C980 C978 1.391 . S
C980 C981 1.400 . S
C981 C975 1.491 . S
C981 C980 1.400 . S
C981 C982 1.398 . S
C982 H970 0.950 . S
C982 C981 1.398 . S
C982 C983 1.391 . S
C983 H971 0.950 . S
C983 C979 1.393 . S
C983 C982 1.391 . S
H984 C992 0.950 . S
H985 C997 0.950 . S
H986 C994 0.950 . S
H987 C996 0.950 . S
H988 C998 0.950 . S
H989 C1000 0.950 . S
H990 C1002 0.950 . S
H991 C1003 0.950 . S
C992 H984 0.950 . S
C992 C993 1.386 . S
C992 C994 1.391 . S
C993 C992 1.386 . S
C993 C997 1.393 . S
C994 H986 0.950 . S
C994 C992 1.391 . S
C994 C995 1.400 . S
C995 C994 1.400 . S
C995 C996 1.398 . S
C995 C1001 1.491 . S
C996 H987 0.950 . S
C996 C995 1.398 . S
C996 C997 1.391 . S
C997 H985 0.950 . S
C997 C993 1.393 . S
C997 C996 1.391 . S
C998 H988 0.950 . S
C998 C999 1.386 . S
C998 C1000 1.391 . S
C999 C998 1.386 . S
C999 C1003 1.393 . S
C1000 H989 0.950 . S
C1000 C998 1.391 . S
C1000 C1001 1.400 . S
C1001 C995 1.491 . S
C1001 C1000 1.400 . S
C1001 C1002 1.398 . S
C1002 H990 0.950 . S
C1002 C1001 1.398 . S
C1002 C1003 1.391 . S
C1003 H991 0.950 . S
C1003 C999 1.393 . S
C1003 C1002 1.391 . S
H1004 C1012 0.950 . S
H1005 C1017 0.950 . S
H1006 C1014 0.950 . S
H1007 C1016 0.950 . S
H1008 C1018 0.950 . S
H1009 C1020 0.950 . S
H1010 C1022 0.950 . S
H1011 C1023 0.950 . S
C1012 H1004 0.950 . S
C1012 C1013 1.386 . S
C1012 C1014 1.391 . S
C1013 C1012 1.386 . S
C1013 C1017 1.393 . S
C1014 H1006 0.950 . S
C1014 C1012 1.391 . S
C1014 C1015 1.400 . S
C1015 C1014 1.400 . S
C1015 C1016 1.398 . S
C1015 C1021 1.491 . S
C1016 H1007 0.950 . S
C1016 C1015 1.398 . S
C1016 C1017 1.391 . S
C1017 H1005 0.950 . S
C1017 C1013 1.393 . S
C1017 C1016 1.391 . S
C1018 H1008 0.950 . S
C1018 C1019 1.386 . S
C1018 C1020 1.391 . S
C1019 C1018 1.386 . S
C1019 C1023 1.393 . S
C1020 H1009 0.950 . S
C1020 C1018 1.391 . S
C1020 C1021 1.400 . S
C1021 C1015 1.491 . S
C1021 C1020 1.400 . S
C1021 C1022 1.398 . S
C1022 H1010 0.950 . S
C1022 C1021 1.398 . S
C1022 C1023 1.391 . S
C1023 H1011 0.950 . S
C1023 C1019 1.393 . S
C1023 C1022 1.391 . S
H1024 C1032 0.950 . S
H1025 C1037 0.950 . S
H1026 C1034 0.950 . S
H1027 C1036 0.950 . S
H1028 C1038 0.950 . S
H1029 C1040 0.950 . S
H1030 C1042 0.950 . S
H1031 C1043 0.950 . S
C1032 H1024 0.950 . S
C1032 C1033 1.386 . S
C1032 C1034 1.391 . S
C1033 C1032 1.386 . S
C1033 C1037 1.393 . S
C1034 H1026 0.950 . S
C1034 C1032 1.391 . S
C1034 C1035 1.400 . S
C1035 C1034 1.400 . S
C1035 C1036 1.398 . S
C1035 C1041 1.491 . S
C1036 H1027 0.950 . S
C1036 C1035 1.398 . S
C1036 C1037 1.391 . S
C1037 H1025 0.950 . S
C1037 C1033 1.393 . S
C1037 C1036 1.391 . S
C1038 H1028 0.950 . S
C1038 C1039 1.386 . S
C1038 C1040 1.391 . S
C1039 C1038 1.386 . S
C1039 C1043 1.393 . S
C1040 H1029 0.950 . S
C1040 C1038 1.391 . S
C1040 C1041 1.400 . S
C1041 C1035 1.491 . S
C1041 C1040 1.400 . S
C1041 C1042 1.398 . S
C1042 H1030 0.950 . S
C1042 C1041 1.398 . S
C1042 C1043 1.391 . S
C1043 H1031 0.950 . S
C1043 C1039 1.393 . S
C1043 C1042 1.391 . S
H1044 C1052 0.950 . S
H1045 C1057 0.950 . S
H1046 C1054 0.950 . S
H1047 C1056 0.950 . S
H1048 C1058 0.950 . S
H1049 C1060 0.950 . S
H1050 C1062 0.950 . S
H1051 C1063 0.950 . S
C1052 H1044 0.950 . S
C1052 C1053 1.386 . S
C1052 C1054 1.391 . S
C1053 C1052 1.386 . S
C1053 C1057 1.393 . S
C1054 H1046 0.950 . S
C1054 C1052 1.391 . S
C1054 C1055 1.400 . S
C1055 C1054 1.400 . S
C1055 C1056 1.398 . S
C1055 C1061 1.491 . S
C1056 H1047 0.950 . S
C1056 C1055 1.398 . S
C1056 C1057 1.391 . S
C1057 H1045 0.950 . S
C1057 C1053 1.393 . S
C1057 C1056 1.391 . S
C1058 H1048 0.950 . S
C1058 C1059 1.386 . S
C1058 C1060 1.391 . S
C1059 C1058 1.386 . S
C1059 C1063 1.393 . S
C1060 H1049 0.950 . S
C1060 C1058 1.391 . S
C1060 C1061 1.400 . S
C1061 C1055 1.491 . S
C1061 C1060 1.400 . S
C1061 C1062 1.398 . S
C1062 H1050 0.950 . S
C1062 C1061 1.398 . S
C1062 C1063 1.391 . S
C1063 H1051 0.950 . S
C1063 C1059 1.393 . S
C1063 C1062 1.391 . S
H1064 C1072 0.950 . S
H1065 C1077 0.950 . S
H1066 C1074 0.950 . S
H1067 C1076 0.950 . S
H1068 C1078 0.950 . S
H1069 C1080 0.950 . S
H1070 C1082 0.950 . S
H1071 C1083 0.936 1_455 S
C1072 H1064 0.950 . S
C1072 C1073 1.386 . S
C1072 C1074 1.391 . S
C1073 C1072 1.386 . S
C1073 C1077 1.393 . S
C1074 H1066 0.950 . S
C1074 C1072 1.391 . S
C1074 C1075 1.400 . S
C1075 C1074 1.400 . S
C1075 C1076 1.398 . S
C1075 C1081 1.491 . S
C1076 H1067 0.950 . S
C1076 C1075 1.398 . S
C1076 C1077 1.391 . S
C1077 H1065 0.950 . S
C1077 C1073 1.393 . S
C1077 C1076 1.391 . S
C1078 H1068 0.950 . S
C1078 C1079 1.386 . S
C1078 C1080 1.391 . S
C1079 C1078 1.386 . S
C1079 C1083 1.393 . S
C1080 H1069 0.950 . S
C1080 C1078 1.391 . S
C1080 C1081 1.400 . S
C1081 C1075 1.491 . S
C1081 C1080 1.400 . S
C1081 C1082 1.398 . S
C1082 H1070 0.950 . S
C1082 C1081 1.398 . S
C1082 C1083 1.391 . S
C1083 H1071 0.936 1_655 S
C1083 C1079 1.393 . S
C1083 C1082 1.391 . S
H1084 C1092 0.950 . S
H1085 C1097 0.950 . S
H1086 C1094 0.950 . S
H1087 C1096 0.950 . S
H1088 C1098 0.950 . S
H1089 C1100 0.950 . S
H1090 C1102 0.950 . S
H1091 C1103 0.950 . S
C1092 H1084 0.950 . S
C1092 C1093 1.386 . S
C1092 C1094 1.391 . S
C1093 C1092 1.386 . S
C1093 C1097 1.393 . S
C1094 H1086 0.950 . S
C1094 C1092 1.391 . S
C1094 C1095 1.400 . S
C1095 C1094 1.400 . S
C1095 C1096 1.398 . S
C1095 C1101 1.491 . S
C1096 H1087 0.950 . S
C1096 C1095 1.398 . S
C1096 C1097 1.391 . S
C1097 H1085 0.950 . S
C1097 C1093 1.393 . S
C1097 C1096 1.391 . S
C1098 H1088 0.950 . S
C1098 C1099 1.386 . S
C1098 C1100 1.391 . S
C1099 C1098 1.386 . S
C1099 C1103 1.393 . S
C1100 H1089 0.950 . S
C1100 C1098 1.391 . S
C1100 C1101 1.400 . S
C1101 C1095 1.491 . S
C1101 C1100 1.400 . S
C1101 C1102 1.398 . S
C1102 H1090 0.950 . S
C1102 C1101 1.398 . S
C1102 C1103 1.391 . S
C1103 H1091 0.950 . S
C1103 C1099 1.393 . S
C1103 C1102 1.391 . S
H1104 C1112 0.950 . S
H1105 C1117 0.950 . S
H1106 C1114 0.950 . S
H1107 C1116 0.950 . S
H1108 C1118 0.950 . S
H1109 C1120 0.950 . S
H1110 C1122 0.950 . S
H1111 C1123 0.950 . S
C1112 H1104 0.950 . S
C1112 C1113 1.386 . S
C1112 C1114 1.391 . S
C1113 C1112 1.386 . S
C1113 C1117 1.393 . S
C1114 H1106 0.950 . S
C1114 C1112 1.391 . S
C1114 C1115 1.400 . S
C1115 C1114 1.400 . S
C1115 C1116 1.398 . S
C1115 C1121 1.491 . S
C1116 H1107 0.950 . S
C1116 C1115 1.398 . S
C1116 C1117 1.391 . S
C1117 H1105 0.950 . S
C1117 C1113 1.393 . S
C1117 C1116 1.391 . S
C1118 H1108 0.950 . S
C1118 C1119 1.386 . S
C1118 C1120 1.391 . S
C1119 C1118 1.386 . S
C1119 C1123 1.393 . S
C1120 H1109 0.950 . S
C1120 C1118 1.391 . S
C1120 C1121 1.400 . S
C1121 C1115 1.491 . S
C1121 C1120 1.400 . S
C1121 C1122 1.398 . S
C1122 H1110 0.950 . S
C1122 C1121 1.398 . S
C1122 C1123 1.391 . S
C1123 H1111 0.950 . S
C1123 C1119 1.393 . S
C1123 C1122 1.391 . S
H1124 C1132 0.950 . S
H1125 C1137 0.950 . S
H1126 C1134 0.950 . S
H1127 C1136 0.950 . S
H1128 C1138 0.950 . S
H1129 C1140 0.950 . S
H1130 C1142 0.950 . S
H1131 C1143 0.950 . S
C1132 H1124 0.950 . S
C1132 C1133 1.386 . S
C1132 C1134 1.391 . S
C1133 C1132 1.386 . S
C1133 C1137 1.393 . S
C1134 H1126 0.950 . S
C1134 C1132 1.391 . S
C1134 C1135 1.400 . S
C1135 C1134 1.400 . S
C1135 C1136 1.398 . S
C1135 C1141 1.491 . S
C1136 H1127 0.950 . S
C1136 C1135 1.398 . S
C1136 C1137 1.391 . S
C1137 H1125 0.950 . S
C1137 C1133 1.393 . S
C1137 C1136 1.391 . S
C1138 H1128 0.950 . S
C1138 C1139 1.386 . S
C1138 C1140 1.391 . S
C1139 C1138 1.386 . S
C1139 C1143 1.393 . S
C1140 H1129 0.950 . S
C1140 C1138 1.391 . S
C1140 C1141 1.400 . S
C1141 C1135 1.491 . S
C1141 C1140 1.400 . S
C1141 C1142 1.398 . S
C1142 H1130 0.950 . S
C1142 C1141 1.398 . S
C1142 C1143 1.391 . S
C1143 H1131 0.950 . S
C1143 C1139 1.393 . S
C1143 C1142 1.391 . S
H1144 C1152 0.950 . S
H1145 C1157 0.950 . S
H1146 C1154 0.950 . S
H1147 C1156 0.950 . S
H1148 C1158 0.950 . S
H1149 C1160 0.950 . S
H1150 C1162 0.950 . S
H1151 C1163 0.950 . S
C1152 H1144 0.950 . S
C1152 C1153 1.386 . S
C1152 C1154 1.391 . S
C1153 C1152 1.386 . S
C1153 C1157 1.393 . S
C1154 H1146 0.950 . S
C1154 C1152 1.391 . S
C1154 C1155 1.400 . S
C1155 C1154 1.400 . S
C1155 C1156 1.398 . S
C1155 C1161 1.491 . S
C1156 H1147 0.950 . S
C1156 C1155 1.398 . S
C1156 C1157 1.391 . S
C1157 H1145 0.950 . S
C1157 C1153 1.393 . S
C1157 C1156 1.391 . S
C1158 H1148 0.950 . S
C1158 C1159 1.386 . S
C1158 C1160 1.391 . S
C1159 C1158 1.386 . S
C1159 C1163 1.393 . S
C1160 H1149 0.950 . S
C1160 C1158 1.391 . S
C1160 C1161 1.400 . S
C1161 C1155 1.491 . S
C1161 C1160 1.400 . S
C1161 C1162 1.398 . S
C1162 H1150 0.950 . S
C1162 C1161 1.398 . S
C1162 C1163 1.391 . S
C1163 H1151 0.950 . S
C1163 C1159 1.393 . S
C1163 C1162 1.391 . S
H1164 C1172 0.950 . S
H1165 C1177 0.950 . S
H1166 C1174 0.950 . S
H1167 C1176 0.950 . S
H1168 C1178 0.950 1_545 S
H1169 C1180 0.950 . S
H1170 C1182 0.950 . S
H1171 C1183 0.950 . S
C1172 H1164 0.950 . S
C1172 C1173 1.386 . S
C1172 C1174 1.391 . S
C1173 C1172 1.386 . S
C1173 C1177 1.393 . S
C1174 H1166 0.950 . S
C1174 C1172 1.391 . S
C1174 C1175 1.400 . S
C1175 C1174 1.400 . S
C1175 C1176 1.398 . S
C1175 C1181 1.491 . S
C1176 H1167 0.950 . S
C1176 C1175 1.398 . S
C1176 C1177 1.391 . S
C1177 H1165 0.950 . S
C1177 C1173 1.393 . S
C1177 C1176 1.391 . S
C1178 H1168 0.950 1_565 S
C1178 C1179 1.386 . S
C1178 C1180 1.391 . S
C1179 C1178 1.386 . S
C1179 C1183 1.393 . S
C1180 H1169 0.950 . S
C1180 C1178 1.391 . S
C1180 C1181 1.400 . S
C1181 C1175 1.491 . S
C1181 C1180 1.400 . S
C1181 C1182 1.398 . S
C1182 H1170 0.950 . S
C1182 C1181 1.398 . S
C1182 C1183 1.391 . S
C1183 H1171 0.950 . S
C1183 C1179 1.393 . S
C1183 C1182 1.391 . S
H1184 C1192 0.950 . S
H1185 C1197 0.950 1_455 S
H1186 C1194 0.950 . S
H1187 C1196 0.950 . S
H1188 C1198 0.950 . S
H1189 C1200 0.950 . S
H1190 C1202 0.950 . S
H1191 C1203 0.950 . S
C1192 H1184 0.950 . S
C1192 C1193 1.386 1_655 S
C1192 C1194 1.391 . S
C1193 C1192 1.386 1_455 S
C1193 C1197 1.393 1_455 S
C1194 H1186 0.950 . S
C1194 C1192 1.391 . S
C1194 C1195 1.400 . S
C1195 C1194 1.400 . S
C1195 C1196 1.398 . S
C1195 C1201 1.491 . S
C1196 H1187 0.950 . S
C1196 C1195 1.398 . S
C1196 C1197 1.391 . S
C1197 H1185 0.950 1_655 S
C1197 C1193 1.393 1_655 S
C1197 C1196 1.391 . S
C1198 H1188 0.950 . S
C1198 C1199 1.386 . S
C1198 C1200 1.391 . S
C1199 C1198 1.386 . S
C1199 C1203 1.393 . S
C1200 H1189 0.950 . S
C1200 C1198 1.391 . S
C1200 C1201 1.400 . S
C1201 C1195 1.491 . S
C1201 C1200 1.400 . S
C1201 C1202 1.398 . S
C1202 H1190 0.950 . S
C1202 C1201 1.398 . S
C1202 C1203 1.391 . S
C1203 H1191 0.950 . S
C1203 C1199 1.393 . S
C1203 C1202 1.391 . S
H1204 C1212 0.950 . S
H1205 C1217 0.950 . S
H1206 C1214 0.950 . S
H1207 C1216 0.950 . S
H1208 C1218 0.950 . S
H1209 C1220 0.950 . S
H1210 C1222 0.950 . S
H1211 C1223 0.950 . S
C1212 H1204 0.950 . S
C1212 C1213 1.386 . S
C1212 C1214 1.391 1_545 S
C1213 C1212 1.386 . S
C1213 C1217 1.393 1_545 S
C1214 H1206 0.950 . S
C1214 C1212 1.391 1_565 S
C1214 C1215 1.400 . S
C1215 C1214 1.400 . S
C1215 C1216 1.398 . S
C1215 C1221 1.491 . S
C1216 H1207 0.950 . S
C1216 C1215 1.398 . S
C1216 C1217 1.391 . S
C1217 H1205 0.950 . S
C1217 C1213 1.393 1_565 S
C1217 C1216 1.391 . S
C1218 H1208 0.950 . S
C1218 C1219 1.386 . S
C1218 C1220 1.391 . S
C1219 C1218 1.386 . S
C1219 C1223 1.393 . S
C1220 H1209 0.950 . S
C1220 C1218 1.391 . S
C1220 C1221 1.400 . S
C1221 C1215 1.491 . S
C1221 C1220 1.400 . S
C1221 C1222 1.398 . S
C1222 H1210 0.950 . S
C1222 C1221 1.398 . S
C1222 C1223 1.391 . S
C1223 H1211 0.950 . S
C1223 C1219 1.393 . S
C1223 C1222 1.391 . S
H1224 C1232 0.950 . S
H1225 C1237 0.950 . S
H1226 C1234 0.950 . S
H1227 C1236 0.950 . S
H1228 C1238 0.950 . S
H1229 C1240 0.950 . S
H1230 C1242 0.950 . S
H1231 C1243 0.950 . S
C1232 H1224 0.950 . S
C1232 C1233 1.386 . S
C1232 C1234 1.391 . S
C1233 C1232 1.386 . S
C1233 C1237 1.393 . S
C1234 H1226 0.950 . S
C1234 C1232 1.391 . S
C1234 C1235 1.400 . S
C1235 C1234 1.400 . S
C1235 C1236 1.398 . S
C1235 C1241 1.491 . S
C1236 H1227 0.950 . S
C1236 C1235 1.398 . S
C1236 C1237 1.391 . S
C1237 H1225 0.950 . S
C1237 C1233 1.393 . S
C1237 C1236 1.391 . S
C1238 H1228 0.950 . S
C1238 C1239 1.386 . S
C1238 C1240 1.391 . S
C1239 C1238 1.386 . S
C1239 C1243 1.393 . S
C1240 H1229 0.950 . S
C1240 C1238 1.391 . S
C1240 C1241 1.400 . S
C1241 C1235 1.491 . S
C1241 C1240 1.400 . S
C1241 C1242 1.398 . S
C1242 H1230 0.950 . S
C1242 C1241 1.398 . S
C1242 C1243 1.391 . S
C1243 H1231 0.950 . S
C1243 C1239 1.393 . S
C1243 C1242 1.391 . S
H1244 C1252 0.950 . S
H1245 C1257 0.950 . S
H1246 C1254 0.950 . S
H1247 C1256 0.950 . S
H1248 C1258 0.950 . S
H1249 C1260 0.950 . S
H1250 C1262 0.950 . S
H1251 C1263 0.950 . S
C1252 H1244 0.950 . S
C1252 C1253 1.386 . S
C1252 C1254 1.391 . S
C1253 C1252 1.386 . S
C1253 C1257 1.393 . S
C1254 H1246 0.950 . S
C1254 C1252 1.391 . S
C1254 C1255 1.400 . S
C1255 C1254 1.400 . S
C1255 C1256 1.398 . S
C1255 C1261 1.491 . S
C1256 H1247 0.950 . S
C1256 C1255 1.398 . S
C1256 C1257 1.391 . S
C1257 H1245 0.950 . S
C1257 C1253 1.393 . S
C1257 C1256 1.391 . S
C1258 H1248 0.950 . S
C1258 C1259 1.386 . S
C1258 C1260 1.391 . S
C1259 C1258 1.386 . S
C1259 C1263 1.393 . S
C1260 H1249 0.950 . S
C1260 C1258 1.391 . S
C1260 C1261 1.400 . S
C1261 C1255 1.491 . S
C1261 C1260 1.400 . S
C1261 C1262 1.398 . S
C1262 H1250 0.950 . S
C1262 C1261 1.398 . S
C1262 C1263 1.391 . S
C1263 H1251 0.950 . S
C1263 C1259 1.393 . S
C1263 C1262 1.391 . S
H1264 C1272 0.950 . S
H1265 C1277 0.950 . S
H1266 C1274 0.950 . S
H1267 C1276 0.950 . S
H1268 C1278 0.950 . S
H1269 C1280 0.950 . S
H1270 C1282 0.950 . S
H1271 C1283 0.950 . S
C1272 H1264 0.950 . S
C1272 C1273 1.386 1_655 S
C1272 C1274 1.391 . S
C1273 C1272 1.386 1_455 S
C1273 C1277 1.393 . S
C1274 H1266 0.950 . S
C1274 C1272 1.391 . S
C1274 C1275 1.400 . S
C1275 C1274 1.400 . S
C1275 C1276 1.398 . S
C1275 C1281 1.491 . S
C1276 H1267 0.950 . S
C1276 C1275 1.398 . S
C1276 C1277 1.391 1_655 S
C1277 H1265 0.950 . S
C1277 C1273 1.393 . S
C1277 C1276 1.391 1_455 S
C1278 H1268 0.950 . S
C1278 C1279 1.386 . S
C1278 C1280 1.391 . S
C1279 C1278 1.386 . S
C1279 C1283 1.393 . S
C1280 H1269 0.950 . S
C1280 C1278 1.391 . S
C1280 C1281 1.400 . S
C1281 C1275 1.491 . S
C1281 C1280 1.400 . S
C1281 C1282 1.398 . S
C1282 H1270 0.950 . S
C1282 C1281 1.398 . S
C1282 C1283 1.391 . S
C1283 H1271 0.950 . S
C1283 C1279 1.393 . S
C1283 C1282 1.391 . S
H1284 C1292 0.950 . S
H1285 C1297 0.950 . S
H1286 C1294 0.950 . S
H1287 C1296 0.950 . S
H1288 C1298 0.950 . S
H1289 C1300 0.950 . S
H1290 C1302 0.950 . S
H1291 C1303 0.950 1_545 S
C1292 H1284 0.950 . S
C1292 C1293 1.386 . S
C1292 C1294 1.391 . S
C1293 C1292 1.386 . S
C1293 C1297 1.393 . S
C1294 H1286 0.950 . S
C1294 C1292 1.391 . S
C1294 C1295 1.400 . S
C1295 C1294 1.400 . S
C1295 C1296 1.398 . S
C1295 C1301 1.491 . S
C1296 H1287 0.950 . S
C1296 C1295 1.398 . S
C1296 C1297 1.391 . S
C1297 H1285 0.950 . S
C1297 C1293 1.393 . S
C1297 C1296 1.391 . S
C1298 H1288 0.950 . S
C1298 C1299 1.386 1_565 S
C1298 C1300 1.391 . S
C1299 C1298 1.386 1_545 S
C1299 C1303 1.393 1_545 S
C1300 H1289 0.950 . S
C1300 C1298 1.391 . S
C1300 C1301 1.400 . S
C1301 C1295 1.491 . S
C1301 C1300 1.400 . S
C1301 C1302 1.398 . S
C1302 H1290 0.950 . S
C1302 C1301 1.398 . S
C1302 C1303 1.391 . S
C1303 H1291 0.950 1_565 S
C1303 C1299 1.393 1_565 S
C1303 C1302 1.391 . S
H1304 C1312 0.950 . S
H1305 C1317 0.950 . S
H1306 C1314 0.950 . S
H1307 C1316 0.950 . S
H1308 C1318 0.950 . S
H1309 C1320 0.950 . S
H1310 C1322 0.950 . S
H1311 C1323 0.950 . S
C1312 H1304 0.950 . S
C1312 C1313 1.386 . S
C1312 C1314 1.391 . S
C1313 C1312 1.386 . S
C1313 C1317 1.393 . S
C1314 H1306 0.950 . S
C1314 C1312 1.391 . S
C1314 C1315 1.400 . S
C1315 C1314 1.400 . S
C1315 C1316 1.398 . S
C1315 C1321 1.491 . S
C1316 H1307 0.950 . S
C1316 C1315 1.398 . S
C1316 C1317 1.391 . S
C1317 H1305 0.950 . S
C1317 C1313 1.393 . S
C1317 C1316 1.391 . S
C1318 H1308 0.950 . S
C1318 C1319 1.386 . S
C1318 C1320 1.391 . S
C1319 C1318 1.386 . S
C1319 C1323 1.393 . S
C1320 H1309 0.950 . S
C1320 C1318 1.391 . S
C1320 C1321 1.400 . S
C1321 C1315 1.491 . S
C1321 C1320 1.400 . S
C1321 C1322 1.398 . S
C1322 H1310 0.950 . S
C1322 C1321 1.398 . S
C1322 C1323 1.391 . S
C1323 H1311 0.950 . S
C1323 C1319 1.393 . S
C1323 C1322 1.391 . S
H1324 C1332 0.950 . S
H1325 C1337 0.950 . S
H1326 C1334 0.950 . S
H1327 C1336 0.950 . S
H1328 C1338 0.950 . S
H1329 C1340 0.950 . S
H1330 C1342 0.950 . S
H1331 C1343 0.950 . S
C1332 H1324 0.950 . S
C1332 C1333 1.386 . S
C1332 C1334 1.391 . S
C1333 C1332 1.386 . S
C1333 C1337 1.393 . S
C1334 H1326 0.950 . S
C1334 C1332 1.391 . S
C1334 C1335 1.400 . S
C1335 C1334 1.400 . S
C1335 C1336 1.398 . S
C1335 C1341 1.491 . S
C1336 H1327 0.950 . S
C1336 C1335 1.398 . S
C1336 C1337 1.391 . S
C1337 H1325 0.950 . S
C1337 C1333 1.393 . S
C1337 C1336 1.391 . S
C1338 H1328 0.950 . S
C1338 C1339 1.386 . S
C1338 C1340 1.391 . S
C1339 C1338 1.386 . S
C1339 C1343 1.393 . S
C1340 H1329 0.950 . S
C1340 C1338 1.391 . S
C1340 C1341 1.400 . S
C1341 C1335 1.491 . S
C1341 C1340 1.400 . S
C1341 C1342 1.398 . S
C1342 H1330 0.950 . S
C1342 C1341 1.398 . S
C1342 C1343 1.391 . S
C1343 H1331 0.950 . S
C1343 C1339 1.393 . S
C1343 C1342 1.391 . S
C553 C33 1.571 . S
C559 C237 1.571 . S
C573 C271 1.576 . S
C579 C67 1.576 . S
C593 C169 1.568 . S
C599 C101 1.568 . S
C613 C203 1.568 . S
C619 C135 1.568 . S
C633 C305 1.572 . S
C639 C509 1.572 . S
C653 C339 1.576 . S
C659 C543 1.576 . S
C673 C373 1.568 . S
C679 C441 1.568 . S
C693 C475 1.575 . S
C699 C407 1.575 . S
C713 C5 1.447 . S
C719 C104 1.467 . S
C733 C39 1.454 . S
C739 C2 1.471 . S
C753 C36 1.476 . S
C759 C73 1.463 . S
C773 C107 1.456 . S
C779 C70 1.471 . S
C793 C172 1.475 . S
C799 C141 1.463 . S
C813 C206 1.464 . S
C819 C175 1.444 . S
C833 C240 1.466 . S
C839 C209 1.446 . S
C853 C138 1.470 . S
C859 C243 1.455 . S
C873 C277 1.462 . S
C879 C376 1.476 . S
C893 C274 1.467 . S
C899 C311 1.446 . S
C913 C345 1.448 . S
C919 C308 1.466 . S
C933 C379 1.452 . S
C939 C342 1.468 . S
C953 C413 1.461 . S
C959 C444 1.476 . S
C973 C447 1.456 . S
C979 C478 1.473 . S
C993 C481 1.447 . S
C999 C512 1.466 . S
C1013 C410 1.469 . S
C1019 C515 1.449 . S
C1033 C530 1.805 . S
C1039 C20 1.805 . S
C1053 C54 1.808 . S
C1059 C428 1.809 . S
C1073 C462 1.806 . S
C1079 C88 1.795 1_655 S
C1093 C122 1.797 1_565 S
C1099 C496 1.808 . S
C1113 C326 1.809 . S
C1119 C156 1.809 . S
C1133 C190 1.810 . S
C1139 C360 1.810 . S
C1153 C224 1.795 1_655 S
C1159 C394 1.806 . S
C1173 C292 1.810 . S
C1179 C258 1.799 1_565 S
C1193 C145 1.184 . S
C1199 C383 1.198 . S
C1213 C179 1.200 . S
C1219 C281 1.201 . S
C1233 C213 1.202 . S
C1239 C315 1.199 . S
C1253 C349 1.176 . S
C1259 C247 1.187 . S
C1273 C9 1.177 . S
C1279 C451 1.190 . S
C1293 C485 1.200 . S
C1299 C43 1.187 . S
C1313 C77 1.193 . S
C1319 C519 1.202 . S
C1333 C111 1.188 . S
C1339 C417 1.176 . S
