# Generated by pormake.
# Topology vba, (4)-cn, num edge types: 1
# Building blocks:
#     Node 0, Type 0, BuildingBlock: QUQFOY_clean_sbu_1, # of connection points: 4
#     Node 1, Type 0, BuildingBlock: QUQFOY_clean_sbu_1, # of connection points: 4
#     Node 2, Type 0, BuildingBlock: QUQFOY_clean_sbu_1, # of connection points: 4
#     Node 3, Type 0, BuildingBlock: QUQFOY_clean_sbu_1, # of connection points: 4
#     Node 4, Type 0, BuildingBlock: QUQFOY_clean_sbu_1, # of connection points: 4
#     Node 5, Type 0, BuildingBlock: QUQFOY_clean_sbu_1, # of connection points: 4
#     Node 6, Type 0, BuildingBlock: QUQFOY_clean_sbu_1, # of connection points: 4
#     Node 7, Type 0, BuildingBlock: QUQFOY_clean_sbu_1, # of connection points: 4
#     Node 8, Type 0, BuildingBlock: QUQFOY_clean_sbu_1, # of connection points: 4
#     Node 9, Type 0, BuildingBlock: QUQFOY_clean_sbu_1, # of connection points: 4
#     Node 10, Type 0, BuildingBlock: QUQFOY_clean_sbu_1, # of connection points: 4
#     Node 11, Type 0, BuildingBlock: QUQFOY_clean_sbu_1, # of connection points: 4
#     Node 12, Type 0, BuildingBlock: QUQFOY_clean_sbu_1, # of connection points: 4
#     Node 13, Type 0, BuildingBlock: QUQFOY_clean_sbu_1, # of connection points: 4
#     Node 14, Type 0, BuildingBlock: QUQFOY_clean_sbu_1, # of connection points: 4
#     Node 15, Type 0, BuildingBlock: QUQFOY_clean_sbu_1, # of connection points: 4
#     Node 16, Type 0, BuildingBlock: QUQFOY_clean_sbu_1, # of connection points: 4
#     Node 17, Type 0, BuildingBlock: QUQFOY_clean_sbu_1, # of connection points: 4
#     Node 18, Type 0, BuildingBlock: QUQFOY_clean_sbu_1, # of connection points: 4
#     Node 19, Type 0, BuildingBlock: QUQFOY_clean_sbu_1, # of connection points: 4
#     Node 20, Type 0, BuildingBlock: QUQFOY_clean_sbu_1, # of connection points: 4
#     Node 21, Type 0, BuildingBlock: QUQFOY_clean_sbu_1, # of connection points: 4
#     Node 22, Type 0, BuildingBlock: QUQFOY_clean_sbu_1, # of connection points: 4
#     Node 23, Type 0, BuildingBlock: QUQFOY_clean_sbu_1, # of connection points: 4
#     Node 24, Type 0, BuildingBlock: QUQFOY_clean_sbu_1, # of connection points: 4
#     Node 25, Type 0, BuildingBlock: QUQFOY_clean_sbu_1, # of connection points: 4
#     Node 26, Type 0, BuildingBlock: QUQFOY_clean_sbu_1, # of connection points: 4
#     Node 27, Type 0, BuildingBlock: QUQFOY_clean_sbu_1, # of connection points: 4
#     Node 28, Type 0, BuildingBlock: QUQFOY_clean_sbu_1, # of connection points: 4
#     Node 29, Type 0, BuildingBlock: QUQFOY_clean_sbu_1, # of connection points: 4
#     Node 30, Type 0, BuildingBlock: QUQFOY_clean_sbu_1, # of connection points: 4
#     Node 31, Type 0, BuildingBlock: QUQFOY_clean_sbu_1, # of connection points: 4
#     Edge 32, Type (0, 0), BuildingBlock: XIVTED_clean_linker_0, # of connection points: 2
#     Edge 33, Type (0, 0), BuildingBlock: XIVTED_clean_linker_0, # of connection points: 2
#     Edge 34, Type (0, 0), BuildingBlock: XIVTED_clean_linker_0, # of connection points: 2
#     Edge 35, Type (0, 0), BuildingBlock: XIVTED_clean_linker_0, # of connection points: 2
#     Edge 36, Type (0, 0), BuildingBlock: XIVTED_clean_linker_0, # of connection points: 2
#     Edge 37, Type (0, 0), BuildingBlock: XIVTED_clean_linker_0, # of connection points: 2
#     Edge 38, Type (0, 0), BuildingBlock: XIVTED_clean_linker_0, # of connection points: 2
#     Edge 39, Type (0, 0), BuildingBlock: XIVTED_clean_linker_0, # of connection points: 2
#     Edge 40, Type (0, 0), BuildingBlock: XIVTED_clean_linker_0, # of connection points: 2
#     Edge 41, Type (0, 0), BuildingBlock: XIVTED_clean_linker_0, # of connection points: 2
#     Edge 42, Type (0, 0), BuildingBlock: XIVTED_clean_linker_0, # of connection points: 2
#     Edge 43, Type (0, 0), BuildingBlock: XIVTED_clean_linker_0, # of connection points: 2
#     Edge 44, Type (0, 0), BuildingBlock: XIVTED_clean_linker_0, # of connection points: 2
#     Edge 45, Type (0, 0), BuildingBlock: XIVTED_clean_linker_0, # of connection points: 2
#     Edge 46, Type (0, 0), BuildingBlock: XIVTED_clean_linker_0, # of connection points: 2
#     Edge 47, Type (0, 0), BuildingBlock: XIVTED_clean_linker_0, # of connection points: 2
#     Edge 48, Type (0, 0), BuildingBlock: XIVTED_clean_linker_0, # of connection points: 2
#     Edge 49, Type (0, 0), BuildingBlock: XIVTED_clean_linker_0, # of connection points: 2
#     Edge 50, Type (0, 0), BuildingBlock: XIVTED_clean_linker_0, # of connection points: 2
#     Edge 51, Type (0, 0), BuildingBlock: XIVTED_clean_linker_0, # of connection points: 2
#     Edge 52, Type (0, 0), BuildingBlock: XIVTED_clean_linker_0, # of connection points: 2
#     Edge 53, Type (0, 0), BuildingBlock: XIVTED_clean_linker_0, # of connection points: 2
#     Edge 54, Type (0, 0), BuildingBlock: XIVTED_clean_linker_0, # of connection points: 2
#     Edge 55, Type (0, 0), BuildingBlock: XIVTED_clean_linker_0, # of connection points: 2
#     Edge 56, Type (0, 0), BuildingBlock: XIVTED_clean_linker_0, # of connection points: 2
#     Edge 57, Type (0, 0), BuildingBlock: XIVTED_clean_linker_0, # of connection points: 2
#     Edge 58, Type (0, 0), BuildingBlock: XIVTED_clean_linker_0, # of connection points: 2
#     Edge 59, Type (0, 0), BuildingBlock: XIVTED_clean_linker_0, # of connection points: 2
#     Edge 60, Type (0, 0), BuildingBlock: XIVTED_clean_linker_0, # of connection points: 2
#     Edge 61, Type (0, 0), BuildingBlock: XIVTED_clean_linker_0, # of connection points: 2
#     Edge 62, Type (0, 0), BuildingBlock: XIVTED_clean_linker_0, # of connection points: 2
#     Edge 63, Type (0, 0), BuildingBlock: XIVTED_clean_linker_0, # of connection points: 2
#     Edge 64, Type (0, 0), BuildingBlock: XIVTED_clean_linker_0, # of connection points: 2
#     Edge 65, Type (0, 0), BuildingBlock: XIVTED_clean_linker_0, # of connection points: 2
#     Edge 66, Type (0, 0), BuildingBlock: XIVTED_clean_linker_0, # of connection points: 2
#     Edge 67, Type (0, 0), BuildingBlock: XIVTED_clean_linker_0, # of connection points: 2
#     Edge 68, Type (0, 0), BuildingBlock: XIVTED_clean_linker_0, # of connection points: 2
#     Edge 69, Type (0, 0), BuildingBlock: XIVTED_clean_linker_0, # of connection points: 2
#     Edge 70, Type (0, 0), BuildingBlock: XIVTED_clean_linker_0, # of connection points: 2
#     Edge 71, Type (0, 0), BuildingBlock: XIVTED_clean_linker_0, # of connection points: 2
#     Edge 72, Type (0, 0), BuildingBlock: XIVTED_clean_linker_0, # of connection points: 2
#     Edge 73, Type (0, 0), BuildingBlock: XIVTED_clean_linker_0, # of connection points: 2
#     Edge 74, Type (0, 0), BuildingBlock: XIVTED_clean_linker_0, # of connection points: 2
#     Edge 75, Type (0, 0), BuildingBlock: XIVTED_clean_linker_0, # of connection points: 2
#     Edge 76, Type (0, 0), BuildingBlock: XIVTED_clean_linker_0, # of connection points: 2
#     Edge 77, Type (0, 0), BuildingBlock: XIVTED_clean_linker_0, # of connection points: 2
#     Edge 78, Type (0, 0), BuildingBlock: XIVTED_clean_linker_0, # of connection points: 2
#     Edge 79, Type (0, 0), BuildingBlock: XIVTED_clean_linker_0, # of connection points: 2
#     Edge 80, Type (0, 0), BuildingBlock: XIVTED_clean_linker_0, # of connection points: 2
#     Edge 81, Type (0, 0), BuildingBlock: XIVTED_clean_linker_0, # of connection points: 2
#     Edge 82, Type (0, 0), BuildingBlock: XIVTED_clean_linker_0, # of connection points: 2
#     Edge 83, Type (0, 0), BuildingBlock: XIVTED_clean_linker_0, # of connection points: 2
#     Edge 84, Type (0, 0), BuildingBlock: XIVTED_clean_linker_0, # of connection points: 2
#     Edge 85, Type (0, 0), BuildingBlock: XIVTED_clean_linker_0, # of connection points: 2
#     Edge 86, Type (0, 0), BuildingBlock: XIVTED_clean_linker_0, # of connection points: 2
#     Edge 87, Type (0, 0), BuildingBlock: XIVTED_clean_linker_0, # of connection points: 2
#     Edge 88, Type (0, 0), BuildingBlock: XIVTED_clean_linker_0, # of connection points: 2
#     Edge 89, Type (0, 0), BuildingBlock: XIVTED_clean_linker_0, # of connection points: 2
#     Edge 90, Type (0, 0), BuildingBlock: XIVTED_clean_linker_0, # of connection points: 2
#     Edge 91, Type (0, 0), BuildingBlock: XIVTED_clean_linker_0, # of connection points: 2
#     Edge 92, Type (0, 0), BuildingBlock: XIVTED_clean_linker_0, # of connection points: 2
#     Edge 93, Type (0, 0), BuildingBlock: XIVTED_clean_linker_0, # of connection points: 2
#     Edge 94, Type (0, 0), BuildingBlock: XIVTED_clean_linker_0, # of connection points: 2
#     Edge 95, Type (0, 0), BuildingBlock: XIVTED_clean_linker_0, # of connection points: 2
# Relax obj value: 0.116
# Max RMSD: 0.329
# Mean RMSD: 0.329
data_MOF--net-vba--node1-QUQFOY_clean_sbu_1--edge1-XIVTED_clean_linker_0
_symmetry_space_group_name_H-M    P1
_symmetry_Int_Tables_number       1
_symmetry_cell_setting            triclinic
loop_
_symmetry_equiv_pos_as_xyz
'x, y, z'
_cell_length_a     16.370115
_cell_length_b     108.47684
_cell_length_c     56.821119
_cell_angle_alpha  90.03549
_cell_angle_beta   90.025912
_cell_angle_gamma 89.990832
loop_
_atom_site_label
_atom_site_type_symbol
_atom_site_fract_x
_atom_site_fract_y
_atom_site_fract_z
_atom_type_partial_charge
O0 O 0.33507 0.06897 0.97279 0.0
Cd1 Cd 0.33876 0.06732 0.00779 0.0
Cd2 Cd 0.18563 0.06202 0.00698 0.0
O3 O 0.23256 0.05572 0.97371 0.0
O4 O 0.44176 0.05824 0.01822 0.0
O5 O 0.32253 0.04923 0.01221 0.0
C6 C 0.39872 0.04823 0.01706 0.0
C7 C 0.16509 0.05232 0.04393 0.0
C8 C 0.29055 0.06108 0.96245 0.0
C9 C 0.21396 0.08677 0.0207 0.0
O10 O 0.16401 0.08029 0.00883 0.0
O11 O 0.28478 0.08246 0.02582 0.0
O12 O 0.11072 0.05135 0.02748 0.0
O13 O 0.22999 0.05848 0.03932 0.0
O14 O 0.92672 0.19245 0.97761 0.0
Cd15 Cd 0.9159 0.19376 0.01253 0.0
Cd16 Cd 0.06941 0.19915 0.01342 0.0
O17 O 0.02689 0.20603 0.98024 0.0
O18 O 0.80939 0.20255 0.02047 0.0
O19 O 0.92977 0.21173 0.01854 0.0
C20 C 0.85211 0.21261 0.02093 0.0
C21 C 0.09115 0.20849 0.05055 0.0
C22 C 0.97124 0.20062 0.96814 0.0
C23 C 0.03689 0.17411 0.02569 0.0
O24 O 0.08815 0.18075 0.01466 0.0
O25 O 0.96575 0.17838 0.03053 0.0
O26 O 0.14633 0.20921 0.03429 0.0
O27 O 0.02459 0.20282 0.04556 0.0
O28 O 0.3384 0.19085 0.29195 0.0
Cd29 Cd 0.34017 0.19264 0.25698 0.0
Cd30 Cd 0.18712 0.19772 0.25836 0.0
O31 O 0.23464 0.2039 0.29159 0.0
O32 O 0.44162 0.20201 0.24618 0.0
O33 O 0.32209 0.21075 0.25304 0.0
C34 C 0.39783 0.21194 0.2478 0.0
C35 C 0.16511 0.20747 0.22156 0.0
C36 C 0.29345 0.19858 0.30258 0.0
C37 C 0.21547 0.17305 0.24437 0.0
O38 O 0.16578 0.17946 0.25644 0.0
O39 O 0.28594 0.17743 0.23906 0.0
O40 O 0.11143 0.20842 0.23819 0.0
O41 O 0.23027 0.20131 0.22593 0.0
O42 O 0.95657 0.06908 0.29214 0.0
Cd43 Cd 0.92203 0.06725 0.2584 0.0
Cd44 Cd 0.07222 0.06033 0.25191 0.0
O45 O 0.04262 0.05369 0.28641 0.0
O46 O 0.81064 0.05882 0.25614 0.0
O47 O 0.92904 0.04935 0.25187 0.0
C48 C 0.85111 0.04864 0.25349 0.0
C49 C 0.09018 0.05047 0.21516 0.0
C50 C 4e-05 0.06042 0.30033 0.0
C51 C 0.03729 0.08575 0.23986 0.0
O52 O 0.09067 0.07885 0.24939 0.0
O53 O 0.96393 0.08187 0.23732 0.0
O54 O 0.14885 0.05065 0.23045 0.0
O55 O 0.02174 0.05534 0.2211 0.0
O56 O 0.66547 0.94154 0.04175 0.0
Cd57 Cd 0.66054 0.94306 0.00675 0.0
Cd58 Cd 0.81373 0.94837 0.00713 0.0
O59 O 0.7679 0.95479 0.04041 0.0
O60 O 0.5571 0.95209 0.99653 0.0
O61 O 0.67653 0.96113 1.00203 0.0
C62 C 0.60013 0.96211 0.99743 0.0
C63 C 0.83347 0.95791 0.97002 0.0
C64 C 0.71031 0.94946 0.05188 0.0
C65 C 0.78485 0.92357 0.99383 0.0
O66 O 0.83512 0.93009 1.00549 0.0
O67 O 0.71389 0.92785 0.9888 0.0
O68 O 0.88831 0.95892 0.98633 0.0
O69 O 0.76855 0.9518 0.97486 0.0
O70 O 0.07574 0.81817 0.0401 0.0
Cd71 Cd 0.08432 0.8167 1.00517 0.0
Cd72 Cd 0.93097 0.81137 1.00454 0.0
O73 O 0.97407 0.80481 0.03795 0.0
O74 O 0.18927 0.80775 0.99612 0.0
O75 O 0.06921 0.79867 1.00002 0.0
C76 C 0.14628 0.79771 0.99646 0.0
C77 C 0.91192 0.80185 0.96741 0.0
C78 C 0.0305 0.81017 0.04984 0.0
C79 C 0.96181 0.83625 0.99176 0.0
O80 O 0.91066 0.82968 1.00297 0.0
O81 O 0.03302 0.83198 0.98704 0.0
O82 O 0.85626 0.80099 0.98351 0.0
O83 O 0.97734 0.80779 0.9725 0.0
O84 O 0.67721 0.81819 0.72376 0.0
Cd85 Cd 0.66953 0.81679 0.75871 0.0
Cd86 Cd 0.82255 0.81142 0.75905 0.0
O87 O 0.7786 0.80477 0.72579 0.0
O88 O 0.5645 0.80786 0.76779 0.0
O89 O 0.6845 0.79874 0.76398 0.0
C90 C 0.60739 0.79782 0.7675 0.0
C91 C 0.84144 0.80202 0.79628 0.0
C92 C 0.72203 0.81015 0.71399 0.0
C93 C 0.79273 0.8364 0.77145 0.0
O94 O 0.84341 0.82973 0.76026 0.0
O95 O 0.72162 0.83217 0.77648 0.0
O96 O 0.89685 0.80102 0.78014 0.0
O97 O 0.77646 0.80808 0.7912 0.0
O98 O 0.04107 0.94303 0.71915 0.0
Cd99 Cd 0.07679 0.94348 0.75297 0.0
Cd100 Cd 0.92422 0.94989 0.76138 0.0
O101 O 0.94977 0.95742 0.72746 0.0
O102 O 0.18809 0.95184 0.75523 0.0
O103 O 0.07006 0.96103 0.76205 0.0
C104 C 0.14769 0.96187 0.75953 0.0
C105 C 0.90546 0.95934 0.79848 0.0
C106 C 0.99445 0.95169 0.71252 0.0
C107 C 0.96435 0.92427 0.77104 0.0
O108 O 0.90893 0.93129 0.76286 0.0
O109 O 0.0379 0.92819 0.77276 0.0
O110 O 0.84615 0.95893 0.78342 0.0
O111 O 0.9747 0.95488 0.79215 0.0
O112 O 0.34401 0.56921 0.47543 0.0
Cd113 Cd 0.34998 0.56732 0.51036 0.0
Cd114 Cd 0.19621 0.56236 0.5098 0.0
O115 O 0.24118 0.55603 0.47646 0.0
O116 O 0.4532 0.55793 0.51959 0.0
O117 O 0.33239 0.54924 0.51458 0.0
C118 C 0.40908 0.54802 0.51852 0.0
C119 C 0.17331 0.55248 0.54634 0.0
C120 C 0.29893 0.56139 0.46511 0.0
C121 C 0.22837 0.58702 0.52391 0.0
O122 O 0.17745 0.58069 0.51209 0.0
O123 O 0.29892 0.58255 0.52882 0.0
O124 O 0.11883 0.55193 0.52984 0.0
O125 O 0.23974 0.55831 0.54195 0.0
O126 O 0.91801 0.689 0.47539 0.0
Cd127 Cd 0.91705 0.69251 0.50985 0.0
Cd128 Cd 0.06725 0.69822 0.50628 0.0
O129 O 0.01303 0.70332 0.47292 0.0
O130 O 0.81509 0.70215 0.5198 0.0
O131 O 0.93325 0.71081 0.5111 0.0
C132 C 0.85791 0.71207 0.51667 0.0
C133 C 0.09071 0.70864 0.54251 0.0
C134 C 0.95693 0.6968 0.46315 0.0
C135 C 0.04506 0.67383 0.52305 0.0
O136 O 0.09149 0.68005 0.50961 0.0
O137 O 0.97519 0.67817 0.52909 0.0
O138 O 0.14276 0.70954 0.52544 0.0
O139 O 0.0261 0.70224 0.53886 0.0
O140 O 0.33402 0.69223 0.78524 0.0
Cd141 Cd 0.33865 0.69362 0.75025 0.0
Cd142 Cd 0.18642 0.6993 0.75055 0.0
O143 O 0.23297 0.70573 0.7838 0.0
O144 O 0.4429 0.70252 0.74029 0.0
O145 O 0.32357 0.7117 0.74519 0.0
C146 C 0.40025 0.71259 0.74097 0.0
C147 C 0.16673 0.70872 0.71326 0.0
C148 C 0.29007 0.70029 0.7953 0.0
C149 C 0.21235 0.67429 0.73801 0.0
O150 O 0.16274 0.68108 0.74934 0.0
O151 O 0.28382 0.67833 0.73284 0.0
O152 O 0.11275 0.70999 0.72974 0.0
O153 O 0.23101 0.70243 0.71805 0.0
O154 O 0.91846 0.56883 0.7877 0.0
Cd155 Cd 0.91313 0.56723 0.75272 0.0
Cd156 Cd 0.06623 0.56181 0.75337 0.0
O157 O 0.01957 0.55535 0.78644 0.0
O158 O 0.80905 0.55816 0.74306 0.0
O159 O 0.92885 0.54915 0.74798 0.0
C160 C 0.85212 0.54814 0.74391 0.0
C161 C 0.08776 0.55217 0.71649 0.0
C162 C 0.96224 0.56078 0.79784 0.0
C163 C 0.03782 0.58667 0.74004 0.0
O164 O 0.08763 0.58009 0.75175 0.0
O165 O 0.96682 0.58244 0.73484 0.0
O166 O 0.14193 0.55124 0.73301 0.0
O167 O 0.02246 0.55826 0.72102 0.0
O168 O 0.66308 0.44102 0.53872 0.0
Cd169 Cd 0.66245 0.44261 0.50373 0.0
Cd170 Cd 0.815 0.44797 0.50559 0.0
O171 O 0.76522 0.45434 0.5384 0.0
O172 O 0.56052 0.45184 0.49273 0.0
O173 O 0.67969 0.46072 0.49942 0.0
C174 C 0.60384 0.46181 0.49423 0.0
C175 C 0.83734 0.45753 0.46861 0.0
C176 C 0.70648 0.44897 0.5493 0.0
C177 C 0.789 0.42311 0.49233 0.0
O178 O 0.83766 0.42973 0.50435 0.0
O179 O 0.71854 0.42733 0.48651 0.0
O180 O 0.89028 0.45871 0.48539 0.0
O181 O 0.77289 0.45119 0.47288 0.0
O182 O 0.03602 0.31668 0.54114 0.0
Cd183 Cd 0.07871 0.31648 0.50795 0.0
Cd184 Cd 0.92757 0.30954 0.49758 0.0
O185 O 0.94948 0.30185 0.53155 0.0
O186 O 0.19061 0.30822 0.50761 0.0
O187 O 0.07489 0.29911 0.49778 0.0
C188 C 0.15162 0.29824 0.50203 0.0
C189 C 0.90725 0.30001 0.46063 0.0
C190 C 0.99032 0.30778 0.5471 0.0
C191 C 0.96858 0.33551 0.48894 0.0
O192 O 0.91284 0.32824 0.49604 0.0
O193 O 0.04281 0.33184 0.48808 0.0
O194 O 0.84786 0.30084 0.47558 0.0
O195 O 0.97757 0.30405 0.46706 0.0
O196 O 0.65409 0.31931 0.21975 0.0
Cd197 Cd 0.65542 0.3176 0.25473 0.0
Cd198 Cd 0.8079 0.31212 0.2525 0.0
O199 O 0.75632 0.306 0.21963 0.0
O200 O 0.55456 0.30839 0.26658 0.0
O201 O 0.67252 0.29945 0.25857 0.0
C202 C 0.59748 0.2984 0.26465 0.0
C203 C 0.82917 0.30242 0.28945 0.0
C204 C 0.6971 0.31139 0.20895 0.0
C205 C 0.78397 0.33687 0.26643 0.0
O206 O 0.83217 0.3303 0.25415 0.0
O207 O 0.71324 0.33271 0.27208 0.0
O208 O 0.88201 0.30112 0.27268 0.0
O209 O 0.7655 0.30894 0.2852 0.0
O210 O 0.07915 0.44262 0.22559 0.0
Cd211 Cd 0.08492 0.4439 0.26058 0.0
Cd212 Cd 0.93195 0.44933 0.26042 0.0
O213 O 0.97732 0.45597 0.22731 0.0
O214 O 0.18921 0.45287 0.27029 0.0
O215 O 0.0692 0.46193 0.26599 0.0
C216 C 0.14606 0.46289 0.2699 0.0
C217 C 0.91084 0.45863 0.29766 0.0
C218 C 0.03453 0.45064 0.21569 0.0
C219 C 0.96059 0.4243 0.27265 0.0
O220 O 0.91032 0.43105 0.26147 0.0
O221 O 0.03184 0.42844 0.27782 0.0
O222 O 0.8566 0.45972 0.2812 0.0
O223 O 0.97614 0.45259 0.29286 0.0
O224 O 0.8213 0.07112 0.47441 0.0
Cd225 Cd 0.82949 0.06744 0.50878 0.0
Cd226 Cd 0.67938 0.06146 0.50694 0.0
O227 O 0.72794 0.05648 0.47286 0.0
O228 O 0.93389 0.05797 0.5171 0.0
O229 O 0.81495 0.04914 0.51007 0.0
C230 C 0.89129 0.04799 0.5145 0.0
C231 C 0.65778 0.05089 0.54298 0.0
C232 C 0.7807 0.06335 0.46251 0.0
C233 C 0.7034 0.08587 0.52384 0.0
O234 O 0.65559 0.07964 0.51081 0.0
O235 O 0.77413 0.08158 0.52912 0.0
O236 O 0.60411 0.05028 0.52626 0.0
O237 O 0.72329 0.05703 0.53898 0.0
O238 O 0.40257 0.19174 0.48184 0.0
Cd239 Cd 0.40458 0.19317 0.51685 0.0
Cd240 Cd 0.55766 0.19811 0.51463 0.0
O241 O 0.50814 0.20445 0.48177 0.0
O242 O 0.30423 0.20239 0.52888 0.0
O243 O 0.42306 0.21125 0.52152 0.0
C244 C 0.34792 0.21233 0.52753 0.0
C245 C 0.58195 0.20773 0.55143 0.0
C246 C 0.44789 0.19935 0.47105 0.0
C247 C 0.53 0.17331 0.52787 0.0
O248 O 0.57949 0.17987 0.51603 0.0
O249 O 0.45967 0.17763 0.53355 0.0
O250 O 0.63427 0.20882 0.53448 0.0
O251 O 0.51704 0.20144 0.54742 0.0
O252 O 0.84211 0.19117 0.79129 0.0
Cd253 Cd 0.84241 0.19289 0.7563 0.0
Cd254 Cd 0.68925 0.19807 0.75829 0.0
O255 O 0.73932 0.20438 0.79114 0.0
O256 O 0.9433 0.20235 0.7452 0.0
O257 O 0.82353 0.21097 0.75223 0.0
C258 C 0.89903 0.21223 0.74682 0.0
C259 C 0.66514 0.2078 0.72158 0.0
C260 C 0.79849 0.19906 0.80196 0.0
C261 C 0.71652 0.17336 0.74432 0.0
O262 O 0.66754 0.17982 0.75655 0.0
O263 O 0.78691 0.17768 0.73873 0.0
O264 O 0.61263 0.20881 0.73851 0.0
O265 O 0.73024 0.20156 0.72558 0.0
O266 O 0.40558 0.06762 0.78373 0.0
Cd267 Cd 0.40923 0.06647 0.74872 0.0
Cd268 Cd 0.56107 0.06088 0.7509 0.0
O269 O 0.50958 0.05461 0.7837 0.0
O270 O 0.30882 0.0576 0.73578 0.0
O271 O 0.42592 0.04837 0.74381 0.0
C272 C 0.35126 0.04754 0.73719 0.0
C273 C 0.58214 0.05151 0.71358 0.0
C274 C 0.44972 0.05982 0.79443 0.0
C275 C 0.53892 0.0859 0.73869 0.0
O276 O 0.58728 0.07899 0.75021 0.0
O277 O 0.46783 0.08194 0.73282 0.0
O278 O 0.6341 0.04985 0.73048 0.0
O279 O 0.51941 0.05823 0.71789 0.0
O280 O 0.14959 0.93984 0.5365 0.0
Cd281 Cd 0.15579 0.94264 0.50185 0.0
Cd282 Cd 0.30606 0.94824 0.50671 0.0
O283 O 0.24787 0.95368 0.53926 0.0
O284 O 0.05659 0.95215 0.48949 0.0
O285 O 0.17263 0.96094 0.49997 0.0
C286 C 0.09873 0.9621 0.49289 0.0
C287 C 0.33175 0.95846 0.47044 0.0
C288 C 0.18854 0.94769 0.54868 0.0
C289 C 0.28641 0.92372 0.49077 0.0
O290 O 0.33182 0.9301 0.50424 0.0
O291 O 0.21682 0.92795 0.48417 0.0
O292 O 0.38196 0.95965 0.48791 0.0
O293 O 0.26803 0.9518 0.47364 0.0
O294 O 0.59928 0.81926 0.53658 0.0
Cd295 Cd 0.60136 0.81747 0.5016 0.0
Cd296 Cd 0.44804 0.8124 0.50314 0.0
O297 O 0.49622 0.80611 0.53615 0.0
O298 O 0.70331 0.80809 0.49112 0.0
O299 O 0.58345 0.79937 0.49747 0.0
C300 C 0.65949 0.79816 0.4926 0.0
C301 C 0.42386 0.80253 0.46662 0.0
C302 C 0.555 0.81143 0.54715 0.0
C303 C 0.47731 0.83712 0.48918 0.0
O304 O 0.42751 0.83069 0.50116 0.0
O305 O 0.54776 0.83275 0.48382 0.0
O306 O 0.37064 0.80179 0.48341 0.0
O307 O 0.48968 0.80859 0.47067 0.0
O308 O 0.15192 0.81847 0.2276 0.0
Cd309 Cd 0.15453 0.81721 0.26265 0.0
Cd310 Cd 0.3073 0.81193 0.26021 0.0
O311 O 0.25603 0.8055 0.22763 0.0
O312 O 0.05395 0.80824 0.27519 0.0
O313 O 0.17165 0.79912 0.26747 0.0
C314 C 0.09679 0.79821 0.27385 0.0
C315 C 0.33138 0.80235 0.29703 0.0
C316 C 0.19605 0.81066 0.21691 0.0
C317 C 0.28214 0.8368 0.27331 0.0
O318 O 0.3307 0.83014 0.26135 0.0
O319 O 0.21165 0.83263 0.27918 0.0
O320 O 0.38338 0.80112 0.28003 0.0
O321 O 0.26708 0.80879 0.29309 0.0
O322 O 0.58916 0.94266 0.22979 0.0
Cd323 Cd 0.58738 0.94391 0.26482 0.0
Cd324 Cd 0.43548 0.94938 0.26304 0.0
O325 O 0.48533 0.95569 0.23012 0.0
O326 O 0.68844 0.95283 0.27717 0.0
O327 O 0.57084 0.96202 0.26964 0.0
C328 C 0.64598 0.9629 0.27579 0.0
C329 C 0.41412 0.9588 0.30027 0.0
C330 C 0.54469 0.95046 0.21921 0.0
C331 C 0.45924 0.92441 0.27551 0.0
O332 O 0.4104 0.93122 0.26396 0.0
O333 O 0.53026 0.92846 0.2812 0.0
O334 O 0.36163 0.96026 0.28344 0.0
O335 O 0.47772 0.95227 0.2959 0.0
O336 O 0.83661 0.56813 0.97456 0.0
Cd337 Cd 0.84059 0.56661 0.00954 0.0
Cd338 Cd 0.68711 0.56145 0.00867 0.0
O339 O 0.73382 0.55494 0.97561 0.0
O340 O 0.94345 0.5574 0.01972 0.0
O341 O 0.82327 0.54857 0.01431 0.0
C342 C 0.89962 0.54746 0.01884 0.0
C343 C 0.66501 0.55192 0.04563 0.0
C344 C 0.79197 0.56022 0.96432 0.0
C345 C 0.71677 0.58627 0.02187 0.0
O346 O 0.66662 0.57975 0.01017 0.0
O347 O 0.78743 0.58195 0.02716 0.0
O348 O 0.61094 0.55099 0.02909 0.0
O349 O 0.73046 0.55798 0.04111 0.0
O350 O 0.40814 0.69112 0.97337 0.0
Cd351 Cd 0.4069 0.69269 0.00839 0.0
Cd352 Cd 0.55961 0.69816 0.0069 0.0
O353 O 0.51018 0.70446 0.97394 0.0
O354 O 0.30443 0.7017 0.01947 0.0
O355 O 0.42301 0.71079 0.01288 0.0
C356 C 0.34716 0.71174 0.01817 0.0
C357 C 0.5809 0.70778 0.04393 0.0
C358 C 0.45169 0.69908 0.9629 0.0
C359 C 0.53369 0.67334 0.02037 0.0
O360 O 0.58269 0.67992 0.00841 0.0
O361 O 0.46289 0.67753 0.02585 0.0
O362 O 0.63421 0.70897 0.02726 0.0
O363 O 0.51665 0.70142 0.0395 0.0
O364 O 0.7903 0.69284 0.29337 0.0
Cd365 Cd 0.82284 0.69381 0.25933 0.0
Cd366 Cd 0.6706 0.70025 0.25228 0.0
O367 O 0.69891 0.70741 0.28639 0.0
O368 O 0.93335 0.70238 0.25618 0.0
O369 O 0.81399 0.71151 0.25137 0.0
C370 C 0.89189 0.71241 0.25283 0.0
C371 C 0.65037 0.70983 0.21538 0.0
C372 C 0.74423 0.7014 0.30076 0.0
C373 C 0.70826 0.67478 0.24145 0.0
O374 O 0.65386 0.6817 0.25043 0.0
O375 O 0.78156 0.67873 0.23918 0.0
O376 O 0.59219 0.70957 0.2308 0.0
O377 O 0.7195 0.70516 0.22126 0.0
O378 O 0.41652 0.56893 0.28783 0.0
Cd379 Cd 0.41062 0.56744 0.25286 0.0
Cd380 Cd 0.56376 0.56216 0.25313 0.0
O381 O 0.51855 0.55561 0.28629 0.0
O382 O 0.30651 0.55836 0.24331 0.0
O383 O 0.42665 0.54938 0.24783 0.0
C384 C 0.34983 0.54836 0.24389 0.0
C385 C 0.58446 0.5526 0.21612 0.0
C386 C 0.46125 0.56096 0.29785 0.0
C387 C 0.53412 0.58708 0.24036 0.0
O388 O 0.58453 0.58046 0.25177 0.0
O389 O 0.46322 0.58281 0.23518 0.0
O390 O 0.63908 0.55167 0.23252 0.0
O391 O 0.51926 0.55869 0.22082 0.0
O392 O 0.16092 0.44079 0.03887 0.0
Cd393 Cd 0.15739 0.44246 1.00387 0.0
Cd394 Cd 0.31079 0.4477 1.0051 0.0
O395 O 0.26279 0.45414 0.03806 0.0
O396 O 0.05449 0.45166 0.99363 0.0
O397 O 0.17438 0.46052 0.99933 0.0
C398 C 0.09813 0.46162 0.99466 0.0
C399 C 0.33379 0.45743 0.96837 0.0
C400 C 0.20468 0.44878 0.04923 0.0
C401 C 0.28203 0.42296 0.99123 0.0
O402 O 0.33157 0.4294 1.00333 0.0
O403 O 0.2115 0.42731 0.98588 0.0
O404 O 0.38737 0.4583 0.98506 0.0
O405 O 0.26836 0.45132 0.97262 0.0
O406 O 0.57749 0.31744 0.03232 0.0
Cd407 Cd 0.58725 0.31631 0.99735 0.0
Cd408 Cd 0.43448 0.31064 0.99641 0.0
O409 O 0.47765 0.3038 0.02963 0.0
O410 O 0.69374 0.30762 0.98894 0.0
O411 O 0.57376 0.29835 0.99118 0.0
C412 C 0.65133 0.29753 0.9885 0.0
C413 C 0.41341 0.30138 0.95907 0.0
C414 C 0.53318 0.30923 0.04175 0.0
C415 C 0.46411 0.3358 0.98466 0.0
O416 O 0.41339 0.32898 0.99548 0.0
O417 O 0.53568 0.33171 0.97976 0.0
O418 O 0.35875 0.30041 0.97543 0.0
O419 O 0.47924 0.30726 0.96405 0.0
O420 O 0.1426 0.32097 0.72355 0.0
Cd421 Cd 0.15069 0.31804 0.75812 0.0
Cd422 Cd 0.30107 0.31255 0.75246 0.0
O423 O 0.24079 0.30717 0.72011 0.0
O424 O 0.05295 0.30832 0.77085 0.0
O425 O 0.16908 0.29979 0.75967 0.0
C426 C 0.09591 0.29847 0.76721 0.0
C427 C 0.32856 0.30231 0.78867 0.0
C428 C 0.18076 0.31317 0.71108 0.0
C429 C 0.28168 0.33696 0.76892 0.0
O430 O 0.32631 0.3307 0.75504 0.0
O431 O 0.21263 0.33265 0.77578 0.0
O432 O 0.37788 0.30111 0.77101 0.0
O433 O 0.26481 0.30899 0.78571 0.0
O434 O 0.5893 0.44154 0.72666 0.0
Cd435 Cd 0.59548 0.44311 0.76162 0.0
Cd436 Cd 0.44198 0.44832 0.76129 0.0
O437 O 0.48719 0.45485 0.72811 0.0
O438 O 0.69954 0.45225 0.77095 0.0
O439 O 0.57915 0.46116 0.76651 0.0
C440 C 0.65605 0.46223 0.77027 0.0
C441 C 0.41994 0.45792 0.79818 0.0
C442 C 0.5446 0.4495 0.71661 0.0
C443 C 0.47279 0.42345 0.77441 0.0
O444 O 0.4221 0.43 0.76296 0.0
O445 O 0.54371 0.42775 0.77945 0.0
O446 O 0.36545 0.45871 0.78172 0.0
O447 O 0.4859 0.45201 0.79357 0.0
H448 H 0.28347 0.04699 0.0758 0.0
H449 H 0.97147 0.04533 0.18299 0.0
H450 H 0.02174 0.04677 0.06714 0.0
H451 H 0.23342 0.0459 0.19125 0.0
H452 H 0.98872 0.04212 0.1408 0.0
H453 H 0.26621 0.04284 0.11765 0.0
C454 C 0.22218 0.04588 0.08267 0.0
C455 C 0.1538 0.0474 0.06801 0.0
C456 C 0.04253 0.04275 0.15183 0.0
C457 C 0.13356 0.04279 0.11617 0.0
C458 C 0.0328 0.04457 0.17598 0.0
C459 C 0.10123 0.04605 0.19067 0.0
C460 C 0.12132 0.04251 0.14214 0.0
C461 C 0.17901 0.04486 0.1806 0.0
C462 C 0.21242 0.04352 0.10662 0.0
C463 C 0.07605 0.04571 0.07782 0.0
N464 N 0.18694 0.04335 0.15691 0.0
N465 N 0.06798 0.04369 0.10139 0.0
H466 H 0.02079 0.21368 0.19952 0.0
H467 H 0.23554 0.21425 0.07297 0.0
H468 H 0.28137 0.21212 0.18867 0.0
H469 H 0.97482 0.21283 0.08367 0.0
H470 H 0.25353 0.21787 0.11531 0.0
H471 H 0.00277 0.21777 0.15733 0.0
C472 C 0.07419 0.21447 0.18838 0.0
C473 C 0.15249 0.21237 0.19752 0.0
C474 C 0.19229 0.21695 0.10831 0.0
C475 C 0.13262 0.2169 0.14932 0.0
C476 C 0.1821 0.21496 0.08413 0.0
C477 C 0.10376 0.21304 0.07486 0.0
C478 C 0.12362 0.21703 0.12325 0.0
C479 C 0.03653 0.21404 0.09014 0.0
C480 C 0.06399 0.21673 0.16427 0.0
C481 C 0.21969 0.21347 0.18227 0.0
N482 N 0.04803 0.21582 0.11357 0.0
N483 N 0.20819 0.21551 0.15893 0.0
H484 H 0.02449 0.96458 0.8305 0.0
H485 H 0.71446 0.96308 0.93826 0.0
H486 H 0.76241 0.96357 0.82271 0.0
H487 H 0.97638 0.96335 0.94649 0.0
H488 H 0.73091 0.96701 0.89631 0.0
H489 H 0.0079 0.96784 0.8727 0.0
C490 C 0.96326 0.96523 0.83762 0.0
C491 C 0.89462 0.96363 0.82306 0.0
C492 C 0.78492 0.96639 0.90726 0.0
C493 C 0.87531 0.96725 0.87158 0.0
C494 C 0.77562 0.96416 0.93126 0.0
C495 C 0.8443 0.96271 0.94584 0.0
C496 C 0.86358 0.96707 0.89757 0.0
C497 C 0.92186 0.96435 0.93587 0.0
C498 C 0.95391 0.96708 0.86177 0.0
C499 C 0.81697 0.96469 0.83326 0.0
N500 N 0.92946 0.96625 0.91226 0.0
N501 N 0.80944 0.96626 0.85695 0.0
H502 H 0.72185 0.79704 0.82798 0.0
H503 H 0.03118 0.79665 0.9357 0.0
H504 H 0.98381 0.79651 0.81998 0.0
H505 H 0.76919 0.7966 0.94368 0.0
H506 H 0.01489 0.79291 0.89366 0.0
H507 H 0.73786 0.79319 0.86999 0.0
C508 C 0.78291 0.79592 0.83504 0.0
C509 C 0.85176 0.79728 0.82051 0.0
C510 C 0.96085 0.79352 0.90458 0.0
C511 C 0.87053 0.79301 0.86882 0.0
C512 C 0.97004 0.79565 0.92863 0.0
C513 C 0.90129 0.79712 0.94316 0.0
C514 C 0.88223 0.79297 0.89482 0.0
C515 C 0.82377 0.79558 0.93311 0.0
C516 C 0.79195 0.79373 0.85907 0.0
C517 C 0.92917 0.79558 0.83055 0.0
N518 N 0.81629 0.79379 0.90946 0.0
N519 N 0.93652 0.79374 0.85418 0.0
H520 H 0.28936 0.54669 0.57866 0.0
H521 H 0.97078 0.54708 0.68401 0.0
H522 H 0.02814 0.54733 0.56882 0.0
H523 H 0.232 0.54656 0.69388 0.0
H524 H 0.99028 0.54322 0.64213 0.0
H525 H 0.26916 0.54268 0.62046 0.0
C526 C 0.22756 0.54579 0.58526 0.0
C527 C 0.1602 0.54753 0.5703 0.0
C528 C 0.04343 0.54375 0.65343 0.0
C529 C 0.13666 0.54309 0.61835 0.0
C530 C 0.0324 0.54595 0.6774 0.0
C531 C 0.10004 0.54733 0.6924 0.0
C532 C 0.1228 0.54305 0.64425 0.0
C533 C 0.17825 0.54562 0.68292 0.0
C534 C 0.21613 0.5435 0.60917 0.0
C535 C 0.0817 0.5461 0.57974 0.0
N536 N 0.18756 0.54377 0.65935 0.0
N537 N 0.07206 0.54416 0.60327 0.0
H538 H 0.23679 0.71424 0.5642 0.0
H539 H 0.02418 0.71573 0.69111 0.0
H540 H 0.97623 0.7142 0.57538 0.0
H541 H 0.28376 0.71216 0.67998 0.0
H542 H 0.00685 0.71972 0.64887 0.0
H543 H 0.25652 0.7181 0.60644 0.0
C544 C 0.18381 0.71535 0.57542 0.0
C545 C 0.1049 0.71372 0.56636 0.0
C546 C 0.06776 0.71825 0.65575 0.0
C547 C 0.12668 0.71796 0.61463 0.0
C548 C 0.0776 0.71603 0.67989 0.0
C549 C 0.15527 0.71342 0.689 0.0
C550 C 0.13612 0.71786 0.6407 0.0
C551 C 0.22249 0.71393 0.67363 0.0
C552 C 0.19497 0.71746 0.59955 0.0
C553 C 0.03828 0.7152 0.58172 0.0
N554 N 0.21129 0.71594 0.65025 0.0
N555 N 0.05066 0.71708 0.60508 0.0
H556 H 0.76691 0.46471 0.31998 0.0
H557 H 0.98148 0.4639 0.44668 0.0
H558 H 0.02741 0.46272 0.33083 0.0
H559 H 0.72107 0.46202 0.43563 0.0
H560 H -0.00049 0.46805 0.40451 0.0
H561 H 0.74907 0.46832 0.36233 0.0
C562 C 0.82035 0.46529 0.33117 0.0
C563 C 0.89855 0.46321 0.32195 0.0
C564 C 0.93832 0.46692 0.4114 0.0
C565 C 0.87886 0.4672 0.37035 0.0
C566 C 0.92811 0.46463 0.4355 0.0
C567 C 0.84988 0.46242 0.44457 0.0
C568 C 0.86975 0.46703 0.3964 0.0
C569 C 0.7827 0.46345 0.42928 0.0
C570 C 0.81024 0.46728 0.35537 0.0
C571 C 0.9658 0.46406 0.33727 0.0
N572 N 0.79421 0.46554 0.40595 0.0
N573 N 0.95438 0.46584 0.3607 0.0
H574 H 0.71115 0.29721 0.32139 0.0
H575 H 0.02489 0.2946 0.42826 0.0
H576 H 0.97267 0.29656 0.31237 0.0
H577 H 0.76317 0.29619 0.43668 0.0
H578 H 0.00662 0.29154 0.38605 0.0
H579 H 0.72892 0.293 0.36319 0.0
C580 C 0.77249 0.29599 0.32818 0.0
C581 C 0.84069 0.29741 0.31344 0.0
C582 C 0.95308 0.29238 0.39712 0.0
C583 C 0.86153 0.29274 0.36154 0.0
C584 C 0.96338 0.29411 0.42128 0.0
C585 C 0.89537 0.29583 0.43603 0.0
C586 C 0.87416 0.29243 0.3875 0.0
C587 C 0.8173 0.29498 0.42599 0.0
C588 C 0.78255 0.2936 0.3521 0.0
C589 C 0.91851 0.29557 0.32313 0.0
N590 N 0.80888 0.29351 0.4023 0.0
N591 N 0.92691 0.29353 0.34668 0.0
H592 H 0.51218 0.04524 0.56477 0.0
H593 H 0.72481 0.04429 0.69173 0.0
H594 H 0.77281 0.04552 0.57592 0.0
H595 H 0.46538 0.04788 0.68034 0.0
H596 H 0.74235 0.04009 0.64953 0.0
H597 H 0.49277 0.04148 0.60701 0.0
C598 C 0.56527 0.04421 0.57598 0.0
C599 C 0.64408 0.04588 0.5669 0.0
C600 C 0.68143 0.04161 0.65636 0.0
C601 C 0.62262 0.04175 0.6152 0.0
C602 C 0.67147 0.04394 0.68046 0.0
C603 C 0.59379 0.04664 0.68946 0.0
C604 C 0.61314 0.04195 0.64126 0.0
C605 C 0.52666 0.04607 0.67405 0.0
C606 C 0.55427 0.04215 0.60012 0.0
C607 C 0.71082 0.04449 0.58226 0.0
N608 N 0.53795 0.04394 0.65073 0.0
N609 N 0.69859 0.04267 0.60564 0.0
H610 H 0.72727 0.21405 0.57278 0.0
H611 H 0.51966 0.21403 0.70024 0.0
H612 H 0.46736 0.21235 0.58482 0.0
H613 H 0.77962 0.21249 0.68821 0.0
H614 H 0.49929 0.21806 0.65813 0.0
H615 H 0.74753 0.21812 0.61489 0.0
C616 C 0.67448 0.2148 0.58417 0.0
C617 C 0.59575 0.21265 0.5754 0.0
C618 C 0.5609 0.21704 0.66479 0.0
C619 C 0.61816 0.21716 0.62351 0.0
C620 C 0.57244 0.21482 0.68885 0.0
C621 C 0.65123 0.21272 0.69763 0.0
C622 C 0.62869 0.21718 0.64951 0.0
C623 C 0.71759 0.21383 0.68208 0.0
C624 C 0.68596 0.21705 0.60823 0.0
C625 C 0.52935 0.21373 0.59095 0.0
N626 N 0.7048 0.21582 0.65878 0.0
N627 N 0.54209 0.21575 0.61424 0.0
H628 H 0.47844 0.96434 0.44944 0.0
H629 H 0.2709 0.96597 0.32182 0.0
H630 H 0.21842 0.96397 0.43725 0.0
H631 H 0.52992 0.96227 0.3339 0.0
H632 H 0.25195 0.96999 0.36401 0.0
H633 H 0.49976 0.96839 0.40734 0.0
C634 C 0.4259 0.96542 0.43803 0.0
C635 C 0.34671 0.96363 0.44674 0.0
C636 C 0.3131 0.96849 0.35734 0.0
C637 C 0.3703 0.9681 0.39866 0.0
C638 C 0.32386 0.96626 0.33324 0.0
C639 C 0.40182 0.96358 0.32443 0.0
C640 C 0.38084 0.96806 0.37264 0.0
C641 C 0.46844 0.96408 0.34003 0.0
C642 C 0.43797 0.96764 0.41398 0.0
C643 C 0.28067 0.96508 0.43116 0.0
N644 N 0.45635 0.9661 0.36336 0.0
N645 N 0.29393 0.96707 0.40789 0.0
H646 H 0.53882 0.79684 0.43395 0.0
H647 H 0.21587 0.79712 0.32975 0.0
H648 H 0.27803 0.79712 0.44469 0.0
H649 H 0.47659 0.79658 0.31897 0.0
H650 H 0.23719 0.79312 0.37152 0.0
H651 H 0.51703 0.79275 0.39223 0.0
C652 C 0.47679 0.79584 0.42756 0.0
C653 C 0.40998 0.79751 0.44274 0.0
C654 C 0.28985 0.79368 0.36004 0.0
C655 C 0.38461 0.79298 0.39478 0.0
C656 C 0.27777 0.79596 0.33615 0.0
C657 C 0.34474 0.79738 0.32095 0.0
C658 C 0.36962 0.79295 0.36894 0.0
C659 C 0.42335 0.79561 0.33011 0.0
C660 C 0.46445 0.7935 0.40369 0.0
C661 C 0.33118 0.79595 0.43358 0.0
N662 N 0.43372 0.7937 0.35362 0.0
N663 N 0.32061 0.79398 0.41009 0.0
H664 H 0.78199 0.54646 0.07785 0.0
H665 H 0.46646 0.54755 0.18393 0.0
H666 H 0.52053 0.54683 0.06853 0.0
H667 H 0.72792 0.54685 0.19322 0.0
H668 H 0.48468 0.54348 0.14206 0.0
H669 H 0.76299 0.54275 0.1198 0.0
C670 C 0.72038 0.54556 0.0846 0.0
C671 C 0.65259 0.54714 0.06974 0.0
C672 C 0.53816 0.54402 0.15324 0.0
C673 C 0.63042 0.54305 0.11797 0.0
C674 C 0.52786 0.54635 0.17719 0.0
C675 C 0.59595 0.54773 0.19202 0.0
C676 C 0.61725 0.54319 0.14389 0.0
C677 C 0.67384 0.54591 0.1824 0.0
C678 C 0.70964 0.54345 0.1086 0.0
C679 C 0.57439 0.54572 0.07938 0.0
N680 N 0.68244 0.54394 0.15884 0.0
N681 N 0.5654 0.54397 0.10299 0.0
H682 H 0.50606 0.71474 0.19228 0.0
H683 H 0.72433 0.71427 0.06623 0.0
H684 H 0.7674 0.71445 0.18245 0.0
H685 H 0.4637 0.71219 0.07663 0.0
H686 H 0.74104 0.71849 0.10845 0.0
H687 H 0.48901 0.71798 0.14986 0.0
C688 C 0.55982 0.71561 0.1813 0.0
C689 C 0.63814 0.71414 0.19088 0.0
C690 C 0.6801 0.7173 0.1014 0.0
C691 C 0.61931 0.71769 0.14231 0.0
C692 C 0.67063 0.71496 0.07728 0.0
C693 C 0.59272 0.71269 0.068 0.0
C694 C 0.6111 0.71738 0.11623 0.0
C695 C 0.52511 0.71368 0.08313 0.0
C696 C 0.55015 0.71739 0.15705 0.0
C697 C 0.70573 0.71534 0.17578 0.0
N698 N 0.53591 0.7158 0.10647 0.0
N699 N 0.69476 0.71689 0.15226 0.0
H700 H 0.53651 0.46313 0.83073 0.0
H701 H 0.21752 0.46295 0.93598 0.0
H702 H 0.27529 0.46328 0.82079 0.0
H703 H 0.4787 0.46285 0.94597 0.0
H704 H 0.2376 0.46698 0.89418 0.0
H705 H 0.51661 0.46693 0.87262 0.0
C706 C 0.47479 0.46416 0.83733 0.0
C707 C 0.4073 0.4627 0.8223 0.0
C708 C 0.29064 0.46628 0.9055 0.0
C709 C 0.38409 0.46691 0.87047 0.0
C710 C 0.27928 0.46398 0.92941 0.0
C711 C 0.34669 0.46238 0.94441 0.0
C712 C 0.37012 0.46685 0.89635 0.0
C713 C 0.42511 0.46397 0.935 0.0
C714 C 0.46353 0.46633 0.8613 0.0
C715 C 0.32895 0.46429 0.83176 0.0
N716 N 0.43472 0.46591 0.91147 0.0
N717 N 0.31943 0.4661 0.85534 0.0
H718 H 0.47611 0.29672 0.80953 0.0
H719 H 0.26987 0.29457 0.93725 0.0
H720 H 0.21621 0.29647 0.82186 0.0
H721 H 0.529 0.29813 0.92523 0.0
H722 H 0.25064 0.29079 0.89502 0.0
H723 H 0.49825 0.29267 0.85162 0.0
C724 C 0.42381 0.2955 0.82097 0.0
C725 C 0.34436 0.29711 0.81231 0.0
C726 C 0.31187 0.29222 0.90169 0.0
C727 C 0.36885 0.29266 0.86037 0.0
C728 C 0.3228 0.29432 0.92582 0.0
C729 C 0.4009 0.29686 0.93471 0.0
C730 C 0.37955 0.29266 0.8864 0.0
C731 C 0.46743 0.29641 0.91908 0.0
C732 C 0.43633 0.29329 0.84501 0.0
C733 C 0.27863 0.2955 0.82791 0.0
N734 N 0.45516 0.29451 0.89571 0.0
N735 N 0.29231 0.29352 0.85118 0.0
H736 H 0.55753 0.04114 0.00897 0.0
H737 H 0.44139 0.96918 1.00574 0.0
H738 H 0.31913 0.02688 0.02644 0.0
H739 H 0.67933 0.98348 0.98786 0.0
H740 H 0.39381 0.99035 0.01233 0.0
H741 H 0.60504 0.01996 1.0024 0.0
C742 C 0.51584 0.03354 0.01196 0.0
C743 C 0.43437 0.03575 0.01819 0.0
C744 C 0.45625 0.98885 0.00675 0.0
C745 C 0.48717 0.01159 0.01009 0.0
C746 C 0.48295 0.97678 1.00268 0.0
C747 C 0.56433 0.97458 0.99632 0.0
C748 C 0.51146 0.99874 1.00445 0.0
C749 C 0.6161 0.98476 0.99291 0.0
C750 C 0.54251 0.02147 0.00789 0.0
C751 C 0.38244 0.02558 0.02149 0.0
N752 N 0.58903 0.99637 0.99718 0.0
N753 N 0.40949 0.01397 0.01724 0.0
H754 H 0.58024 0.27612 0.97479 0.0
H755 H 0.92374 0.23405 0.0343 0.0
H756 H 0.80346 0.29064 1.0041 0.0
H757 H 0.70027 0.21953 1.00512 0.0
H758 H 0.879 0.25484 0.02438 0.0
H759 H 0.62532 0.25532 0.98453 0.0
C760 C 0.63975 0.27489 0.98283 0.0
C761 C 0.68832 0.28513 0.98864 0.0
C762 C 0.8392 0.24715 0.02036 0.0
C763 C 0.7393 0.26131 1.00046 0.0
C764 C 0.86428 0.23527 0.02625 0.0
C765 C 0.81551 0.22505 0.02054 0.0
C766 C 0.76489 0.24886 0.00852 0.0
C767 C 0.73932 0.22717 0.01005 0.0
C768 C 0.66501 0.26301 0.98861 0.0
C769 C 0.76457 0.28301 0.9991 0.0
N770 N 0.71667 0.23884 1.00414 0.0
N771 N 0.78738 0.27133 1.00491 0.0
H772 H 0.55733 0.21929 0.25397 0.0
H773 H 0.43762 0.29111 0.25905 0.0
H774 H 0.31512 0.23324 0.24022 0.0
H775 H 0.67964 0.27714 0.27297 0.0
H776 H 0.38997 0.26986 0.25343 0.0
H777 H 0.60455 0.24052 0.26006 0.0
C778 C 0.51461 0.22682 0.25173 0.0
C779 C 0.43229 0.2245 0.24665 0.0
C780 C 0.45336 0.27145 0.25793 0.0
C781 C 0.48492 0.24874 0.25418 0.0
C782 C 0.48017 0.28357 0.26146 0.0
C783 C 0.5626 0.28588 0.2664 0.0
C784 C 0.50952 0.26164 0.25937 0.0
C785 C 0.61556 0.27577 0.269 0.0
C786 C 0.54119 0.23893 0.25551 0.0
C787 C 0.37914 0.23461 0.24427 0.0
N788 N 0.58831 0.26412 0.26529 0.0
N789 N 0.40618 0.24625 0.2482 0.0
H790 H 0.80542 0.96995 0.26928 0.0
H791 H 0.69761 0.04223 0.26946 0.0
H792 H 0.56637 0.98418 0.28613 0.0
H793 H 0.92134 0.0268 0.24209 0.0
H794 H 0.6497 0.02124 0.27814 0.0
H795 H 0.85389 0.99115 0.26385 0.0
C796 C 0.76379 0.97754 0.27242 0.0
C797 C 0.68184 0.97532 0.27804 0.0
C798 C 0.70907 0.02248 0.27009 0.0
C799 C 0.73584 0.99953 0.27129 0.0
C800 C 0.73591 0.03444 0.2649 0.0
C801 C 0.81348 0.03627 0.25505 0.0
C802 C 0.76047 0.01235 0.2655 0.0
C803 C 0.86116 0.02585 0.24978 0.0
C804 C 0.79101 0.98963 0.269 0.0
C805 C 0.63004 0.9855 0.28161 0.0
N806 N 0.83418 0.01438 0.25521 0.0
N807 N 0.65768 0.99714 0.278 0.0
H808 H 0.18841 0.7188 0.01 0.0
H809 H 0.30401 0.79077 0.00667 0.0
H810 H 0.42631 0.73308 0.02801 0.0
H811 H 0.06879 0.77624 0.98651 0.0
H812 H 0.35116 0.76966 0.01418 0.0
H813 H 0.14104 0.73996 1.00325 0.0
C814 C 0.22996 0.72639 0.0131 0.0
C815 C 0.31131 0.7242 0.01949 0.0
C816 C 0.28943 0.7711 0.0079 0.0
C817 C 0.25872 0.74834 0.01117 0.0
C818 C 0.26301 0.78313 1.0033 0.0
C819 C 0.18247 0.78525 0.996 0.0
C820 C 0.23476 0.76117 1.00519 0.0
C821 C 0.13137 0.77502 0.99226 0.0
C822 C 0.20341 0.73846 0.00891 0.0
C823 C 0.36311 0.73438 0.02293 0.0
N824 N 0.15812 0.76345 0.99705 0.0
N825 N 0.33618 0.74598 0.01856 0.0
H826 H 0.68252 0.77645 0.77956 0.0
H827 H 0.32478 0.7339 0.72885 0.0
H828 H 0.45226 0.79076 0.75473 0.0
H829 H 0.55592 0.71965 0.75309 0.0
H830 H 0.37191 0.75479 0.73708 0.0
H831 H 0.63562 0.75559 0.77106 0.0
C832 C 0.62127 0.77517 0.77273 0.0
C833 C 0.5711 0.78536 0.76783 0.0
C834 C 0.41281 0.74713 0.74038 0.0
C835 C 0.51777 0.76146 0.75748 0.0
C836 C 0.38629 0.7352 0.73546 0.0
C837 C 0.43663 0.72503 0.7403 0.0
C838 C 0.49021 0.74894 0.75037 0.0
C839 C 0.51551 0.72724 0.7489 0.0
C840 C 0.59488 0.76325 0.76767 0.0
C841 C 0.49254 0.78317 0.75897 0.0
N842 N 0.53962 0.73897 0.7539 0.0
N843 N 0.46854 0.77144 0.75386 0.0
H844 H 0.08104 0.98326 0.77514 0.0
H845 H 0.42968 0.02674 0.72339 0.0
H846 H 0.29526 0.96891 0.74037 0.0
H847 H 0.19465 0.04002 0.74642 0.0
H848 H 0.38282 0.00556 0.729 0.0
H849 H 0.1262 1.00411 0.76639 0.0
C850 C 0.13844 0.9845 0.76595 0.0
C851 C 0.18452 0.9743 0.75847 0.0
C852 C 0.34098 0.01308 0.73248 0.0
C853 C 0.23591 0.99828 0.74798 0.0
C854 C 0.36739 0.02517 0.72911 0.0
C855 C 0.31582 0.03513 0.73448 0.0
C856 C 0.26273 0.01093 0.74162 0.0
C857 C 0.23602 0.0326 0.74189 0.0
C858 C 0.1637 0.99644 0.76074 0.0
C859 C 0.25826 0.9765 0.74664 0.0
N860 N 0.21226 0.02073 0.74558 0.0
N861 N 0.28156 0.98828 0.74165 0.0
H862 H 0.44533 0.46905 0.50245 0.0
H863 H 0.56687 0.54076 0.50918 0.0
H864 H 0.6844 0.48314 0.48529 0.0
H865 H 0.3282 0.52661 0.52669 0.0
H866 H 0.61241 0.51962 0.5011 0.0
H867 H 0.39921 0.49022 0.50987 0.0
C868 C 0.48742 0.47661 0.49968 0.0
C869 C 0.56872 0.47434 0.49331 0.0
C870 C 0.55024 0.52115 0.50692 0.0
C871 C 0.51752 0.4985 0.5024 0.0
C872 C 0.52471 0.53319 0.51184 0.0
C873 C 0.44374 0.53544 0.51858 0.0
C874 C 0.4943 0.51132 0.50875 0.0
C875 C 0.39117 0.5253 0.52141 0.0
C876 C 0.46156 0.48868 0.50424 0.0
C877 C 0.6212 0.48448 0.49032 0.0
N878 N 0.41713 0.51372 0.51634 0.0
N879 N 0.59495 0.49608 0.49507 0.0
H880 H 0.81879 0.79093 0.4996 0.0
H881 H 0.69847 0.71924 0.50932 0.0
H882 H 0.5775 0.77675 0.48538 0.0
H883 H 0.93992 0.7335 0.52295 0.0
H884 H 0.65146 0.74035 0.50145 0.0
H885 H 0.86577 0.7698 0.50696 0.0
C886 C 0.77626 0.78336 0.4975 0.0
C887 C 0.6942 0.78559 0.49195 0.0
C888 C 0.71459 0.73885 0.50637 0.0
C889 C 0.74653 0.76148 0.50096 0.0
C890 C 0.74101 0.72683 0.51117 0.0
C891 C 0.82309 0.72463 0.51675 0.0
C892 C 0.77078 0.74869 0.50719 0.0
C893 C 0.87609 0.73478 0.51856 0.0
C894 C 0.80269 0.77131 0.50201 0.0
C895 C 0.6413 0.77544 0.48978 0.0
N896 N 0.84921 0.74633 0.51366 0.0
N897 N 0.66816 0.76386 0.49446 0.0
H898 H 0.69477 0.54114 0.75435 0.0
H899 H 0.81319 0.46928 0.75971 0.0
H900 H 0.92998 0.52668 0.73409 0.0
H901 H 0.57765 0.4837 0.77978 0.0
H902 H 0.85891 0.49037 0.75135 0.0
H903 H 0.64875 0.52005 0.76257 0.0
C904 C 0.73595 0.53351 0.75107 0.0
C905 C 0.81622 0.53565 0.74358 0.0
C906 C 0.79744 0.48892 0.75781 0.0
C907 C 0.76524 0.51159 0.75358 0.0
C908 C 0.77185 0.4769 0.7629 0.0
C909 C 0.69161 0.47475 0.77041 0.0
C910 C 0.74227 0.49881 0.76025 0.0
C911 C 0.64003 0.48495 0.7739 0.0
C912 C 0.71019 0.52149 0.75609 0.0
C913 C 0.8676 0.52544 0.73997 0.0
N914 N 0.66598 0.4965 0.76863 0.0
N915 N 0.84151 0.51388 0.74517 0.0
H916 H 0.08771 0.27685 0.48542 0.0
H917 H 0.42736 0.2331 0.54113 0.0
H918 H 0.29554 0.29114 0.52341 0.0
H919 H 0.19279 0.22013 0.51706 0.0
H920 H 0.38256 0.25434 0.53479 0.0
H921 H 0.1311 0.25598 0.49484 0.0
C922 C 0.14338 0.2756 0.49547 0.0
C923 C 0.18811 0.28579 0.50365 0.0
C924 C 0.34037 0.24688 0.53123 0.0
C925 C 0.23742 0.26178 0.51487 0.0
C926 C 0.3656 0.23476 0.53501 0.0
C927 C 0.31355 0.22486 0.5296 0.0
C928 C 0.26289 0.24912 0.52162 0.0
C929 C 0.23448 0.22749 0.52165 0.0
C930 C 0.16758 0.26365 0.50105 0.0
C931 C 0.25962 0.28356 0.51658 0.0
N932 N 0.21194 0.23938 0.51757 0.0
N933 N 0.28195 0.27178 0.52189 0.0
H934 H 0.06992 0.48416 0.28207 0.0
H935 H 0.4265 0.52709 0.23201 0.0
H936 H 0.30132 0.4701 0.25764 0.0
H937 H 0.19461 0.54112 0.25611 0.0
H938 H 0.38038 0.50617 0.24028 0.0
H939 H 0.11623 0.50508 0.27388 0.0
C940 C 0.1313 0.48551 0.27541 0.0
C941 C 0.18195 0.47537 0.27052 0.0
C942 C 0.33911 0.51378 0.24355 0.0
C943 C 0.23461 0.49934 0.26051 0.0
C944 C 0.36507 0.52573 0.23862 0.0
C945 C 0.3142 0.53586 0.24339 0.0
C946 C 0.26174 0.51189 0.25349 0.0
C947 C 0.23543 0.53357 0.25198 0.0
C948 C 0.15735 0.49746 0.27052 0.0
C949 C 0.26066 0.47765 0.26187 0.0
N950 N 0.21186 0.52182 0.25698 0.0
N951 N 0.28432 0.48941 0.25691 0.0
H952 H 0.9378 0.96924 0.49622 0.0
H953 H 0.05193 0.04111 0.50786 0.0
H954 H 0.18186 0.98355 0.48769 0.0
H955 H 0.8104 0.02633 0.5192 0.0
H956 H 0.10156 0.0201 0.50026 0.0
H957 H 0.88834 0.99036 0.5024 0.0
C958 C 0.98055 0.97684 0.49512 0.0
C959 C 0.06393 0.97465 0.49153 0.0
C960 C 0.03779 0.02147 0.50457 0.0
C961 C 0.00864 0.99875 0.49916 0.0
C962 C 0.0098 0.03344 0.50918 0.0
C963 C 0.92703 0.03547 0.51411 0.0
C964 C 0.98246 0.01152 0.50489 0.0
C965 C 0.87473 0.0252 0.51531 0.0
C966 C 0.95264 0.98888 0.49895 0.0
C967 C 0.11702 0.98483 0.49058 0.0
N968 N 0.90315 0.01372 0.51061 0.0
N969 N 0.08864 0.9964 0.49454 0.0
H970 H 0.8162 0.23321 0.73686 0.0
H971 H 0.18091 0.27761 0.77628 0.0
H972 H 0.05618 0.22 0.7555 0.0
H973 H 0.93804 0.29057 0.7604 0.0
H974 H 0.1358 0.25647 0.76958 0.0
H975 H 0.8614 0.25429 0.74398 0.0
C976 C 0.87907 0.23478 0.74205 0.0
C977 C 0.93262 0.22484 0.74563 0.0
C978 C 0.09198 0.26389 0.7678 0.0
C979 C 0.98423 0.24899 0.75436 0.0
C980 C 0.11744 0.27596 0.77183 0.0
C981 C 0.06298 0.28585 0.76887 0.0
C982 C 0.01146 0.26165 0.76056 0.0
C983 C 0.98169 0.28321 0.76307 0.0
C984 C 0.90455 0.24683 0.74632 0.0
C985 C 0.01321 0.2274 0.75234 0.0
N986 N 0.95854 0.27135 0.75885 0.0
N987 N 0.03641 0.23924 0.75671 0.0
H988 H 0.17635 0.77737 0.28688 0.0
H989 H 0.82205 0.73377 0.23834 0.0
H990 H 0.93972 0.79064 0.26518 0.0
H991 H 0.04208 0.71955 0.27018 0.0
H992 H 0.86797 0.75465 0.24657 0.0
H993 H 0.12918 0.7562 0.28147 0.0
C994 C 0.11372 0.7758 0.28146 0.0
C995 C 0.06174 0.78576 0.27643 0.0
C996 C 0.90658 0.747 0.25168 0.0
C997 C 0.00817 0.76155 0.26956 0.0
C998 C 0.88082 0.73505 0.24678 0.0
C999 C 0.92837 0.72487 0.2536 0.0
C1000 C 0.98073 0.74889 0.26348 0.0
C1001 C 0.00387 0.72712 0.26445 0.0
C1002 C 0.0871 0.76371 0.27821 0.0
C1003 C 0.98146 0.78323 0.26943 0.0
N1004 N 0.0276 0.73891 0.26917 0.0
N1005 N 0.95743 0.77136 0.26589 0.0
H1006 H 0.17676 0.48268 0.98274 0.0
H1007 H 0.82084 0.5264 0.03072 0.0
H1008 H 0.94269 0.46913 1.00602 0.0
H1009 H 0.05499 0.53993 0.00747 0.0
H1010 H 0.86582 0.50537 0.02289 0.0
H1011 H 0.1317 0.50371 0.99055 0.0
C1012 C 0.11509 0.48417 0.98907 0.0
C1013 C 0.06327 0.47415 0.99376 0.0
C1014 C 0.90782 0.51289 0.01971 0.0
C1015 C 0.01202 0.49823 1.00333 0.0
C1016 C 0.88252 0.52491 0.0244 0.0
C1017 C 0.93438 0.53492 0.01972 0.0
C1018 C 0.98554 0.51084 0.01012 0.0
C1019 C 0.01342 0.53247 0.01152 0.0
C1020 C 0.08973 0.49618 0.99373 0.0
C1021 C 0.98422 0.47659 1.00196 0.0
N1022 N 0.03636 0.52066 0.00675 0.0
N1023 N 0.96123 0.4884 0.00672 0.0
H1024 H 0.44308 0.06012 0.94431 0.0
H1025 H 0.29664 0.05913 0.81237 0.0
H1026 H 0.19108 0.05404 0.92547 0.0
H1027 H 0.54816 0.05307 0.83176 0.0
H1028 H 0.25643 0.05641 0.85334 0.0
H1029 H 0.48273 0.05672 0.9035 0.0
C1030 C 0.396 0.05798 0.93153 0.0
C1031 C 0.31341 0.05754 0.93819 0.0
C1032 C 0.32028 0.05549 0.84867 0.0
C1033 C 0.35863 0.05373 0.89125 0.0
C1034 C 0.34346 0.05711 0.82529 0.0
C1035 C 0.42611 0.05648 0.81873 0.0
C1036 C 0.38029 0.05348 0.86584 0.0
C1037 C 0.4839 0.05366 0.8361 0.0
C1038 C 0.41887 0.05596 0.90824 0.0
C1039 C 0.25529 0.05452 0.92102 0.0
N1040 N 0.46004 0.05248 0.85898 0.0
N1041 N 0.27887 0.05295 0.8982 0.0
H1042 H 0.07383 0.20609 0.93108 0.0
H1043 H 0.70349 0.20818 0.83817 0.0
H1044 H 0.81972 0.2036 0.95042 0.0
H1045 H 0.95099 0.19817 0.8204 0.0
H1046 H 0.74815 0.21198 0.87895 0.0
H1047 H 0.03223 0.20882 0.88971 0.0
C1048 C 0.00949 0.20638 0.92666 0.0
C1049 C 0.95012 0.20443 0.94398 0.0
C1050 C 0.79264 0.20907 0.86598 0.0
C1051 C 0.90215 0.20756 0.89714 0.0
C1052 C 0.76715 0.20693 0.84278 0.0
C1053 C 0.82321 0.20262 0.82606 0.0
C1054 C 0.87487 0.20708 0.87226 0.0
C1055 C 0.9053 0.20123 0.83288 0.0
C1056 C 0.9857 0.20786 0.90313 0.0
C1057 C 0.86739 0.20487 0.93743 0.0
N1058 N 0.92853 0.20338 0.85543 0.0
N1059 N 0.84584 0.2063 0.91454 0.0
H1060 H 0.29542 0.20015 0.45266 0.0
H1061 H 0.44562 0.19904 0.32116 0.0
H1062 H 0.54789 0.20591 0.43401 0.0
H1063 H 0.19373 0.20573 0.33936 0.0
H1064 H 0.48437 0.20226 0.3621 0.0
H1065 H 0.2567 0.20295 0.41158 0.0
C1066 C 0.34277 0.20211 0.43987 0.0
C1067 C 0.42524 0.20263 0.44666 0.0
C1068 C 0.42075 0.20318 0.35718 0.0
C1069 C 0.38112 0.20572 0.39946 0.0
C1070 C 0.39838 0.20127 0.33382 0.0
C1071 C 0.31606 0.20194 0.32695 0.0
C1072 C 0.36024 0.20555 0.37402 0.0
C1073 C 0.25774 0.20506 0.34397 0.0
C1074 C 0.32044 0.20377 0.41643 0.0
C1075 C 0.48375 0.20538 0.42947 0.0
N1076 N 0.2808 0.20654 0.36686 0.0
N1077 N 0.4607 0.20661 0.40653 0.0
H1078 H 0.83341 0.08131 0.43368 0.0
H1079 H 0.93558 0.03996 0.3217 0.0
H1080 H 0.7833 0.04228 0.43464 0.0
H1081 H 0.03605 0.0759 0.3357 0.0
H1082 H 0.87789 0.03964 0.36184 0.0
H1083 H 0.89763 0.07907 0.39553 0.0
C1084 C 0.83501 0.07224 0.42565 0.0
C1085 C 0.80314 0.06196 0.43741 0.0
C1086 C 0.91448 0.04743 0.3563 0.0
C1087 C 0.87894 0.05924 0.39353 0.0
C1088 C 0.94853 0.04752 0.3336 0.0
C1089 C 0.99171 0.0579 0.32564 0.0
C1090 C 0.92306 0.05788 0.37077 0.0
C1091 C 0.00415 0.06767 0.34131 0.0
C1092 C 0.8726 0.07094 0.4039 0.0
C1093 C 0.8066 0.05046 0.42605 0.0
N1094 N 0.96933 0.06747 0.36295 0.0
N1095 N 0.84446 0.04937 0.40469 0.0
H1096 H 0.81137 0.95675 0.08826 0.0
H1097 H 0.44516 0.95777 0.18254 0.0
H1098 H 0.55866 0.9503 0.07065 0.0
H1099 H 0.69687 0.95073 0.20056 0.0
H1100 H 0.48669 0.96055 0.14121 0.0
H1101 H 0.77056 0.96004 0.12955 0.0
C1102 C 0.74741 0.95622 0.09302 0.0
C1103 C 0.68851 0.95304 0.07619 0.0
C1104 C 0.53278 0.95855 0.15434 0.0
C1105 C 0.64137 0.9569 0.12297 0.0
C1106 C 0.5091 0.95701 0.17786 0.0
C1107 C 0.56742 0.95381 0.19485 0.0
C1108 C 0.6154 0.95707 0.14798 0.0
C1109 C 0.64967 0.95296 0.1879 0.0
C1110 C 0.72412 0.95805 0.11651 0.0
C1111 C 0.60625 0.95249 0.08321 0.0
N1112 N 0.67115 0.95451 0.16503 0.0
N1113 N 0.58517 0.95434 0.10603 0.0
H1114 H 0.92717 0.80406 0.08639 0.0
H1115 H 0.29321 0.80213 0.1807 0.0
H1116 H 0.18166 0.80806 0.06839 0.0
H1117 H 0.04389 0.81124 0.19811 0.0
H1118 H 0.25069 0.79877 0.13962 0.0
H1119 H 0.96709 0.8011 0.12786 0.0
C1120 C 0.99128 0.80409 0.09112 0.0
C1121 C 0.05113 0.80651 0.07414 0.0
C1122 C 0.20531 0.80138 0.15257 0.0
C1123 C 0.09718 0.80307 0.12108 0.0
C1124 C 0.22956 0.80326 0.17595 0.0
C1125 C 0.17234 0.80719 0.19267 0.0
C1126 C 0.12318 0.80326 0.14608 0.0
C1127 C 0.09038 0.80846 0.18564 0.0
C1128 C 0.01407 0.80246 0.1147 0.0
C1129 C 0.13352 0.80645 0.08109 0.0
N1130 N 0.06835 0.80656 0.1629 0.0
N1131 N 0.1541 0.80484 0.10401 0.0
H1132 H 0.82478 0.80417 0.67723 0.0
H1133 H 0.4577 0.80277 0.58323 0.0
H1134 H 0.57055 0.80797 0.6957 0.0
H1135 H 0.70691 0.81202 0.56599 0.0
H1136 H 0.50043 0.79916 0.62423 0.0
H1137 H 0.78421 0.80142 0.63578 0.0
C1138 C 0.76059 0.80418 0.67261 0.0
C1139 C 0.70099 0.8065 0.68971 0.0
C1140 C 0.54571 0.80185 0.61133 0.0
C1141 C 0.65419 0.80331 0.64277 0.0
C1142 C 0.52133 0.80389 0.588 0.0
C1143 C 0.57849 0.80793 0.57137 0.0
C1144 C 0.6279 0.80368 0.61782 0.0
C1145 C 0.66045 0.80917 0.57841 0.0
C1146 C 0.73741 0.80268 0.64903 0.0
C1147 C 0.61847 0.80643 0.68289 0.0
N1148 N 0.6826 0.80712 0.60107 0.0
N1149 N 0.59751 0.80495 0.65997 0.0
H1150 H 0.25305 0.96319 0.58293 0.0
H1151 H 0.89889 0.94592 0.67494 0.0
H1152 H 0.05075 0.93868 0.56902 0.0
H1153 H 0.11665 0.96557 0.69486 0.0
H1154 H 0.94147 0.94707 0.63366 0.0
H1155 H 0.19509 0.96732 0.62219 0.0
C1156 C 0.19677 0.95869 0.58806 0.0
C1157 C 0.15748 0.95047 0.57268 0.0
C1158 C 0.97918 0.95141 0.64696 0.0
C1159 C 0.09016 0.95531 0.6172 0.0
C1160 C 0.95403 0.95091 0.67044 0.0
C1161 C 0.00369 0.95585 0.68809 0.0
C1162 C 0.0552 0.95671 0.64122 0.0
C1163 C 0.07618 0.96185 0.68155 0.0
C1164 C 0.1635 0.96109 0.61039 0.0
C1165 C 0.08409 0.94499 0.58024 0.0
N1166 N 0.10037 0.962 0.65864 0.0
N1167 N 0.05318 0.94749 0.60184 0.0
H1168 H 0.1983 0.55373 0.42893 0.0
H1169 H 0.56295 0.55394 0.3342 0.0
H1170 H 0.45036 0.56106 0.44612 0.0
H1171 H 0.3097 0.55989 0.31657 0.0
H1172 H 0.52267 0.55092 0.37558 0.0
H1173 H 0.23892 0.55041 0.38765 0.0
C1174 C 0.26208 0.55446 0.42408 0.0
C1175 C 0.32078 0.5579 0.44078 0.0
C1176 C 0.47599 0.55274 0.36252 0.0
C1177 C 0.36774 0.55401 0.39403 0.0
C1178 C 0.49898 0.5544 0.33898 0.0
C1179 C 0.43975 0.55739 0.32214 0.0
C1180 C 0.39324 0.55387 0.369 0.0
C1181 C 0.35749 0.55785 0.32917 0.0
C1182 C 0.28526 0.55261 0.40059 0.0
C1183 C 0.40285 0.55868 0.43365 0.0
N1184 N 0.33671 0.55619 0.35205 0.0
N1185 N 0.42383 0.55682 0.41083 0.0
H1186 H 0.66857 0.69079 0.33776 0.0
H1187 H 0.99336 0.71594 0.43222 0.0
H1188 H 0.84649 0.71842 0.31974 0.0
H1189 H 0.85186 0.6825 0.4384 0.0
H1190 H 0.92953 0.7196 0.39343 0.0
H1191 H 0.71787 0.6911 0.37836 0.0
C1192 C 0.71583 0.69729 0.34267 0.0
C1193 C 0.75235 0.70478 0.32566 0.0
C1194 C 0.91283 0.71148 0.40342 0.0
C1195 C 0.81267 0.70473 0.3717 0.0
C1196 C 0.94972 0.70934 0.42541 0.0
C1197 C 0.92806 0.69891 0.43867 0.0
C1198 C 0.85356 0.70319 0.3949 0.0
C1199 C 0.87046 0.69072 0.42903 0.0
C1200 C 0.74514 0.69733 0.36572 0.0
C1201 C 0.81565 0.71273 0.33262 0.0
N1202 N 0.83529 0.69307 0.40794 0.0
N1203 N 0.84465 0.71241 0.35511 0.0
H1204 H 0.29859 0.69928 0.94494 0.0
H1205 H 0.4427 0.70218 0.81297 0.0
H1206 H 0.54857 0.70694 0.926 0.0
H1207 H 0.1899 0.70631 0.83269 0.0
H1208 H 0.48269 0.70499 0.85396 0.0
H1209 H 0.25733 0.70281 0.90431 0.0
C1210 C 0.34488 0.70179 0.93218 0.0
C1211 C 0.42746 0.70263 0.93876 0.0
C1212 C 0.41855 0.70548 0.84938 0.0
C1213 C 0.38035 0.70661 0.89201 0.0
C1214 C 0.39556 0.70382 0.82599 0.0
C1215 C 0.31272 0.70386 0.81953 0.0
C1216 C 0.35822 0.70693 0.86664 0.0
C1217 C 0.25433 0.70618 0.83699 0.0
C1218 C 0.32106 0.70388 0.909 0.0
C1219 C 0.48443 0.70612 0.92162 0.0
N1220 N 0.27813 0.7074 0.85988 0.0
N1221 N 0.46 0.70777 0.89889 0.0
H1222 H 0.06108 0.55298 0.8343 0.0
H1223 H 0.69188 0.55321 0.92756 0.0
H1224 H 0.80985 0.56028 0.81611 0.0
H1225 H 0.94435 0.5591 0.94617 0.0
H1226 H 0.73406 0.55013 0.88634 0.0
H1227 H 0.01841 0.54958 0.87538 0.0
C1228 C 0.99704 0.55368 0.83889 0.0
C1229 C 0.93915 0.55714 0.82199 0.0
C1230 C 0.78014 0.55194 0.89958 0.0
C1231 C 0.88989 0.55316 0.8685 0.0
C1232 C 0.75607 0.55365 0.92303 0.0
C1233 C 0.81453 0.55664 0.9401 0.0
C1234 C 0.8632 0.55304 0.89342 0.0
C1235 C 0.89712 0.55706 0.93339 0.0
C1236 C 0.97269 0.55178 0.86226 0.0
C1237 C 0.85671 0.55788 0.82876 0.0
N1238 N 0.91895 0.55537 0.91059 0.0
N1239 N 0.83461 0.55598 0.85147 0.0
H1240 H 0.5532 0.44912 0.56707 0.0
H1241 H 0.6971 0.45164 0.69905 0.0
H1242 H 0.80293 0.45684 0.58628 0.0
H1243 H 0.44407 0.45553 0.67932 0.0
H1244 H 0.73696 0.45472 0.65815 0.0
H1245 H 0.51163 0.45254 0.6077 0.0
C1246 C 0.59936 0.45162 0.57989 0.0
C1247 C 0.68197 0.4525 0.57341 0.0
C1248 C 0.67278 0.45509 0.66271 0.0
C1249 C 0.63454 0.45636 0.62012 0.0
C1250 C 0.64987 0.45327 0.68604 0.0
C1251 C 0.56702 0.45316 0.69245 0.0
C1252 C 0.61237 0.45655 0.64547 0.0
C1253 C 0.5085 0.4555 0.67504 0.0
C1254 C 0.57537 0.45365 0.60307 0.0
C1255 C 0.73878 0.45599 0.5906 0.0
N1256 N 0.53224 0.45688 0.6522 0.0
N1257 N 0.71419 0.45758 0.61332 0.0
H1258 H 0.10009 0.29179 0.56537 0.0
H1259 H 0.04311 0.32262 0.69143 0.0
H1260 H 0.90208 0.31593 0.58432 0.0
H1261 H 0.24058 0.2974 0.67643 0.0
H1262 H 0.98459 0.31828 0.65331 0.0
H1263 H 0.14304 0.29115 0.60678 0.0
C1264 C 0.06351 0.29649 0.5785 0.0
C1265 C 0.99637 0.3037 0.57165 0.0
C1266 C 0.04059 0.31363 0.65822 0.0
C1267 C 0.04715 0.30351 0.61868 0.0
C1268 C 0.07472 0.31616 0.68008 0.0
C1269 C 0.14781 0.31046 0.68723 0.0
C1270 C 0.07966 0.30539 0.64292 0.0
C1271 C 0.18465 0.30209 0.67163 0.0
C1272 C 0.08878 0.29629 0.60203 0.0
C1273 C 0.95295 0.31004 0.58903 0.0
N1274 N 0.15048 0.29987 0.65009 0.0
N1275 N 0.97958 0.3099 0.61169 0.0
H1276 H 0.68454 0.30547 0.05901 0.0
H1277 H 0.54406 0.31242 0.1909 0.0
H1278 H 0.43103 0.30474 0.07939 0.0
H1279 H 0.79057 0.30231 0.17228 0.0
H1280 H 0.50102 0.30854 0.15057 0.0
H1281 H 0.72416 0.30294 0.10013 0.0
C1282 C 0.63713 0.30458 0.07222 0.0
C1283 C 0.55438 0.30543 0.06591 0.0
C1284 C 0.56435 0.30703 0.15526 0.0
C1285 C 0.59939 0.30277 0.11312 0.0
C1286 C 0.58927 0.30933 0.17828 0.0
C1287 C 0.67148 0.30789 0.18486 0.0
C1288 C 0.62219 0.30345 0.13843 0.0
C1289 C 0.72681 0.30362 0.16789 0.0
C1290 C 0.65984 0.30312 0.09568 0.0
C1291 C 0.49542 0.30413 0.08357 0.0
N1292 N 0.70141 0.30175 0.14531 0.0
N1293 N 0.51913 0.3031 0.1065 0.0
H1294 H 0.93275 0.45665 0.17871 0.0
H1295 H 0.30169 0.45752 0.08536 0.0
H1296 H 0.18649 0.45272 0.19769 0.0
H1297 H 0.05245 0.44844 0.06778 0.0
H1298 H 0.25834 0.46131 0.12626 0.0
H1299 H 0.97425 0.45931 0.13733 0.0
C1300 C 0.99704 0.45659 0.17422 0.0
C1301 C 0.05621 0.45426 0.19145 0.0
C1302 C 0.2132 0.45862 0.11331 0.0
C1303 C 0.10407 0.45734 0.14458 0.0
C1304 C 0.23793 0.45648 0.09004 0.0
C1305 C 0.18092 0.45242 0.07335 0.0
C1306 C 0.13082 0.45688 0.11967 0.0
C1307 C 0.09878 0.45129 0.08025 0.0
C1308 C 0.02074 0.45804 0.15068 0.0
C1309 C 0.13888 0.45427 0.18479 0.0
N1310 N 0.07629 0.45344 0.10286 0.0
N1311 N 0.16035 0.4557 0.1619 0.0
H1312 H 0.93748 0.15423 0.03514 0.0
H1313 H 0.31103 0.10625 0.03437 0.0
H1314 H 0.19082 0.16483 0.02964 0.0
H1315 H 0.05934 0.09601 0.02299 0.0
H1316 H 0.26696 0.12759 0.04118 0.0
H1317 H 0.98049 0.13265 0.03931 0.0
C1318 C 0.00205 0.15205 0.0352 0.0
C1319 C 0.06054 0.16131 0.03172 0.0
C1320 C 0.2214 0.12062 0.03743 0.0
C1321 C 0.11017 0.13672 0.03643 0.0
C1322 C 0.24654 0.10844 0.03363 0.0
C1323 C 0.18898 0.09937 0.02778 0.0
C1324 C 0.13811 0.1237 0.03556 0.0
C1325 C 0.10605 0.10274 0.0271 0.0
C1326 C 0.0266 0.13974 0.03746 0.0
C1327 C 0.14351 0.15796 0.03193 0.0
N1328 N 0.08321 0.11462 0.03077 0.0
N1329 N 0.16578 0.14596 0.03406 0.0
H1330 H 0.31221 0.15354 0.23047 0.0
H1331 H 0.93766 0.10577 0.23171 0.0
H1332 H 0.06089 0.16384 0.24226 0.0
H1333 H 0.19115 0.0949 0.23403 0.0
H1334 H 0.98084 0.1273 0.22735 0.0
H1335 H 0.26772 0.1322 0.22371 0.0
C1336 C 0.24771 0.15136 0.2313 0.0
C1337 C 0.19039 0.16045 0.23726 0.0
C1338 C 0.02695 0.12017 0.22854 0.0
C1339 C 0.13903 0.13613 0.22956 0.0
C1340 C 0.00227 0.10787 0.23091 0.0
C1341 C 0.06079 0.09853 0.23356 0.0
C1342 C 0.1107 0.12312 0.2287 0.0
C1343 C 0.14381 0.10182 0.23239 0.0
C1344 C 0.22233 0.13919 0.22753 0.0
C1345 C 0.10745 0.1571 0.23807 0.0
N1346 N 0.16624 0.11382 0.23024 0.0
N1347 N 0.08441 0.14523 0.23444 0.0
H1348 H 0.06084 0.85602 0.98121 0.0
H1349 H 0.68724 0.90398 0.9811 0.0
H1350 H 0.80771 0.84549 0.98784 0.0
H1351 H 0.93937 0.91435 0.99115 0.0
H1352 H 0.7311 0.88258 0.97491 0.0
H1353 H 0.01765 0.87754 0.97615 0.0
C1354 C 0.99627 0.8582 0.98122 0.0
C1355 C 0.93791 0.84898 0.98529 0.0
C1356 C 0.77679 0.88958 0.97822 0.0
C1357 C 0.88808 0.8735 0.97955 0.0
C1358 C 0.75177 0.9018 0.98166 0.0
C1359 C 0.80956 0.91093 0.98698 0.0
C1360 C 0.86017 0.88653 0.97993 0.0
C1361 C 0.89252 0.90757 0.98746 0.0
C1362 C 0.97162 0.87047 0.97845 0.0
C1363 C 0.85493 0.85233 0.98512 0.0
N1364 N 0.91524 0.89566 0.98416 0.0
N1365 N 0.83257 0.8643 0.98249 0.0
H1366 H 0.69486 0.85608 0.78375 0.0
H1367 H 0.06606 0.90438 0.77831 0.0
H1368 H 0.94685 0.84584 0.7729 0.0
H1369 H 0.81162 0.91482 0.77757 0.0
H1370 H 0.02482 0.88281 0.78354 0.0
H1371 H 0.73806 0.87759 0.78872 0.0
C1372 C 0.75924 0.85831 0.78275 0.0
C1373 C 0.81712 0.84917 0.7776 0.0
C1374 C 0.9781 0.88986 0.78245 0.0
C1375 C 0.86701 0.87372 0.78319 0.0
C1376 C 0.00168 0.90217 0.77957 0.0
C1377 C 0.94229 0.91141 0.77719 0.0
C1378 C 0.89457 0.88678 0.78308 0.0
C1379 C 0.85962 0.90799 0.77898 0.0
C1380 C 0.7839 0.8706 0.78549 0.0
C1381 C 0.89986 0.85261 0.77651 0.0
N1382 N 0.83827 0.89597 0.78164 0.0
N1383 N 0.92219 0.86459 0.77911 0.0
H1384 H 0.95155 0.6543 0.53827 0.0
H1385 H 0.32767 0.60682 0.53421 0.0
H1386 H 0.20079 0.66498 0.52434 0.0
H1387 H 0.0745 0.59606 0.52937 0.0
H1388 H 0.28401 0.62829 0.54 0.0
H1389 H 0.99802 0.63303 0.54449 0.0
C1390 C 0.0161 0.65222 0.53692 0.0
C1391 C 0.07216 0.66139 0.53044 0.0
C1392 C 0.23812 0.62118 0.53797 0.0
C1393 C 0.12573 0.63713 0.5375 0.0
C1394 C 0.26304 0.60894 0.53478 0.0
C1395 C 0.20471 0.59968 0.53098 0.0
C1396 C 0.15436 0.62413 0.53758 0.0
C1397 C 0.12164 0.60294 0.53187 0.0
C1398 C 0.04258 0.64008 0.54036 0.0
C1399 C 0.15521 0.65816 0.52895 0.0
N1400 N 0.09901 0.61488 0.53492 0.0
N1401 N 0.17936 0.64631 0.53227 0.0
H1402 H 0.05676 0.66554 0.73479 0.0
H1403 H 0.19305 0.5954 0.73601 0.0
H1404 H 0.3079 0.65408 0.72757 0.0
H1405 H 0.94152 0.60673 0.72913 0.0
H1406 H 0.23607 0.61669 0.73018 0.0
H1407 H 0.01334 0.6442 0.72997 0.0
C1408 C 0.10288 0.65854 0.73195 0.0
C1409 C 0.1863 0.6616 0.73185 0.0
C1410 C 0.17151 0.61454 0.72964 0.0
C1411 C 0.13668 0.63703 0.72653 0.0
C1412 C 0.14675 0.60237 0.73304 0.0
C1413 C 0.06337 0.59929 0.73332 0.0
C1414 C 0.11254 0.6238 0.72684 0.0
C1415 C 0.00636 0.60869 0.72911 0.0
C1416 C 0.07789 0.64633 0.72914 0.0
C1417 C 0.24305 0.65214 0.72783 0.0
N1418 N 0.03195 0.62056 0.72639 0.0
N1419 N 0.21725 0.64025 0.72568 0.0
H1420 H 0.69453 0.40346 0.47776 0.0
H1421 H 0.06909 0.35575 0.48422 0.0
H1422 H 0.94379 0.41388 0.49253 0.0
H1423 H 0.81586 0.34477 0.48121 0.0
H1424 H 0.02642 0.37731 0.48016 0.0
H1425 H 0.74018 0.38211 0.47196 0.0
C1426 C 0.75885 0.4013 0.47947 0.0
C1427 C 0.81516 0.41045 0.48593 0.0
C1428 C 0.98029 0.37016 0.48016 0.0
C1429 C 0.86785 0.38608 0.47936 0.0
C1430 C 0.00472 0.35784 0.48237 0.0
C1431 C 0.94601 0.34844 0.48336 0.0
C1432 C 0.89662 0.37308 0.47881 0.0
C1433 C 0.86331 0.35172 0.48086 0.0
C1434 C 0.78489 0.38911 0.47626 0.0
C1435 C 0.89791 0.40711 0.4879 0.0
N1436 N 0.8411 0.36375 0.47888 0.0
N1437 N 0.92158 0.39522 0.48478 0.0
H1438 H 0.94002 0.34553 0.26849 0.0
H1439 H 0.80574 0.41557 0.27756 0.0
H1440 H 0.6904 0.35674 0.28021 0.0
H1441 H 0.05756 0.40396 0.28065 0.0
H1442 H 0.76278 0.39415 0.28131 0.0
H1443 H 0.98456 0.36666 0.2755 0.0
C1444 C 0.89449 0.35243 0.27274 0.0
C1445 C 0.81109 0.34938 0.27348 0.0
C1446 C 0.82743 0.39626 0.28149 0.0
C1447 C 0.86201 0.3737 0.28138 0.0
C1448 C 0.85213 0.4085 0.2793 0.0
C1449 C 0.93551 0.41155 0.27853 0.0
C1450 C 0.88644 0.3869 0.28256 0.0
C1451 C 0.99272 0.40202 0.28112 0.0
C1452 C 0.92014 0.3645 0.27682 0.0
C1453 C 0.75518 0.35868 0.27936 0.0
N1454 N 0.96712 0.3901 0.28265 0.0
N1455 N 0.78154 0.37046 0.28275 0.0
H1456 H 0.5476 0.0945 0.52735 0.0
H1457 H 0.68487 0.16444 0.53193 0.0
H1458 H 0.79822 0.10563 0.53732 0.0
H1459 H 0.43293 0.1532 0.53776 0.0
H1460 H 0.7272 0.14305 0.53676 0.0
H1461 H 0.50405 0.11572 0.53404 0.0
C1462 C 0.59352 0.1014 0.53123 0.0
C1463 C 0.67688 0.09831 0.53151 0.0
C1464 C 0.66269 0.14524 0.53731 0.0
C1465 C 0.62721 0.12273 0.53893 0.0
C1466 C 0.63834 0.15747 0.53448 0.0
C1467 C 0.55507 0.16061 0.53418 0.0
C1468 C 0.60341 0.13598 0.53947 0.0
C1469 C 0.49771 0.15119 0.53783 0.0
C1470 C 0.56848 0.11353 0.53511 0.0
C1471 C 0.73341 0.10761 0.53688 0.0
N1472 N 0.5229 0.13927 0.53995 0.0
N1473 N 0.70764 0.11944 0.54001 0.0
H1474 H 0.69498 0.09456 0.73662 0.0
H1475 H 0.56105 0.16471 0.7405 0.0
H1476 H 0.44465 0.10624 0.72842 0.0
H1477 H 0.81211 0.15338 0.73237 0.0
H1478 H 0.51747 0.14351 0.73383 0.0
H1479 H 0.73925 0.11592 0.73276 0.0
C1480 C 0.64925 0.10162 0.73376 0.0
C1481 C 0.56577 0.09861 0.7331 0.0
C1482 C 0.58204 0.14564 0.7332 0.0
C1483 C 0.61633 0.12319 0.7289 0.0
C1484 C 0.60712 0.15776 0.73709 0.0
C1485 C 0.69054 0.16081 0.73726 0.0
C1486 C 0.64076 0.1364 0.7298 0.0
C1487 C 0.74725 0.15144 0.73246 0.0
C1488 C 0.67472 0.11383 0.7315 0.0
C1489 C 0.50953 0.10814 0.7291 0.0
N1490 N 0.72138 0.13962 0.72928 0.0
N1491 N 0.53574 0.12003 0.7275 0.0
H1492 H 0.19507 0.90401 0.47519 0.0
H1493 H 0.57483 0.85716 0.47917 0.0
H1494 H 0.44269 0.91504 0.49053 0.0
H1495 H 0.32264 0.84591 0.4841 0.0
H1496 H 0.52933 0.87858 0.47388 0.0
H1497 H 0.2434 0.88282 0.46899 0.0
C1498 C 0.25965 0.90202 0.47688 0.0
C1499 C 0.31469 0.91126 0.48371 0.0
C1500 C 0.48406 0.87137 0.47583 0.0
C1501 C 0.37039 0.88711 0.47663 0.0
C1502 C 0.51002 0.85915 0.47872 0.0
C1503 C 0.4525 0.84977 0.4824 0.0
C1504 C 0.40008 0.87416 0.47635 0.0
C1505 C 0.36917 0.85289 0.48168 0.0
C1506 C 0.28718 0.88993 0.47345 0.0
C1507 C 0.39785 0.90816 0.48564 0.0
N1508 N 0.34552 0.8648 0.47889 0.0
N1509 N 0.42304 0.89636 0.48227 0.0
H1510 H 0.30347 0.9157 0.27821 0.0
H1511 H 0.43784 0.84553 0.27593 0.0
H1512 H 0.5543 0.90416 0.28587 0.0
H1513 H 0.18722 0.8569 0.28492 0.0
H1514 H 0.48163 0.8668 0.2816 0.0
H1515 H 0.2597 0.89435 0.28275 0.0
C1516 C 0.34943 0.90867 0.28109 0.0
C1517 C 0.43287 0.91171 0.28142 0.0
C1518 C 0.41712 0.86466 0.28263 0.0
C1519 C 0.38288 0.88714 0.2864 0.0
C1520 C 0.39193 0.8525 0.27931 0.0
C1521 C 0.30853 0.84944 0.2797 0.0
C1522 C 0.35855 0.87393 0.28601 0.0
C1523 C 0.25204 0.85884 0.28442 0.0
C1524 C 0.32425 0.89647 0.28374 0.0
C1525 C 0.48943 0.90223 0.28545 0.0
N1526 N 0.278 0.8707 0.28705 0.0
N1527 N 0.46347 0.89034 0.28744 0.0
H1528 H 0.43812 0.65361 0.03349 0.0
H1529 H 0.81469 0.60616 0.0326 0.0
H1530 H 0.68897 0.66433 0.02233 0.0
H1531 H 0.56223 0.59531 0.02567 0.0
H1532 H 0.77022 0.62763 0.03772 0.0
H1533 H 0.48368 0.63227 0.03947 0.0
C1534 C 0.50275 0.65152 0.03264 0.0
C1535 C 0.55964 0.66073 0.02707 0.0
C1536 C 0.72463 0.6205 0.03535 0.0
C1537 C 0.61219 0.63641 0.03391 0.0
C1538 C 0.75 0.60825 0.03255 0.0
C1539 C 0.69219 0.59897 0.02838 0.0
C1540 C 0.64092 0.62342 0.0342 0.0
C1541 C 0.60903 0.60221 0.02847 0.0
C1542 C 0.52873 0.63934 0.03596 0.0
C1543 C 0.64278 0.65749 0.02622 0.0
N1544 N 0.58596 0.61415 0.03116 0.0
N1545 N 0.66645 0.64561 0.02944 0.0
H1546 H 0.80895 0.6549 0.23292 0.0
H1547 H 0.43632 0.6068 0.22832 0.0
H1548 H 0.55489 0.66545 0.23552 0.0
H1549 H 0.68838 0.59643 0.2385 0.0
H1550 H 0.47987 0.62831 0.22337 0.0
H1551 H 0.76683 0.63338 0.22739 0.0
C1552 C 0.74445 0.65273 0.23199 0.0
C1553 C 0.68547 0.66198 0.235 0.0
C1554 C 0.52564 0.62128 0.22644 0.0
C1555 C 0.63674 0.63741 0.22875 0.0
C1556 C 0.50078 0.60901 0.22916 0.0
C1557 C 0.5586 0.59983 0.23414 0.0
C1558 C 0.60889 0.62436 0.22856 0.0
C1559 C 0.64146 0.60322 0.23503 0.0
C1560 C 0.72037 0.64044 0.22893 0.0
C1561 C 0.6026 0.65861 0.23362 0.0
N1562 N 0.66398 0.61519 0.23245 0.0
N1563 N 0.58077 0.64662 0.23077 0.0
H1564 H 0.18562 0.4034 0.97751 0.0
H1565 H 0.56193 0.35589 0.97545 0.0
H1566 H 0.43692 0.41388 0.9888 0.0
H1567 H 0.30943 0.34489 0.98125 0.0
H1568 H 0.51744 0.37742 0.9718 0.0
H1569 H 0.23068 0.38212 0.97046 0.0
C1570 C 0.25022 0.40127 0.97818 0.0
C1571 C 0.30741 0.41039 0.98407 0.0
C1572 C 0.47183 0.37026 0.97361 0.0
C1573 C 0.35939 0.38614 0.976 0.0
C1574 C 0.49722 0.35797 0.97557 0.0
C1575 C 0.43943 0.3486 0.97897 0.0
C1576 C 0.3881 0.37315 0.97486 0.0
C1577 C 0.35624 0.35184 0.979 0.0
C1578 C 0.27592 0.38912 0.97425 0.0
C1579 C 0.39049 0.40711 0.98467 0.0
N1580 N 0.33314 0.36382 0.97716 0.0
N1581 N 0.41387 0.39526 0.98084 0.0
H1582 H 0.5711 0.40328 0.78253 0.0
H1583 H 0.19165 0.35641 0.78623 0.0
H1584 H 0.31863 0.41464 0.78036 0.0
H1585 H 0.43781 0.34568 0.76837 0.0
H1586 H 0.24052 0.37748 0.79347 0.0
H1587 H 0.52597 0.38179 0.78681 0.0
C1588 C 0.50635 0.40128 0.7834 0.0
C1589 C 0.44857 0.41073 0.78077 0.0
C1590 C 0.28388 0.37045 0.78821 0.0
C1591 C 0.39656 0.38626 0.78563 0.0
C1592 C 0.25604 0.35843 0.78418 0.0
C1593 C 0.31047 0.34932 0.77636 0.0
C1594 C 0.3668 0.37333 0.78465 0.0
C1595 C 0.39341 0.35246 0.77402 0.0
C1596 C 0.48058 0.38903 0.7857 0.0
C1597 C 0.36531 0.40762 0.78197 0.0
N1598 N 0.4189 0.3642 0.778 0.0
N1599 N 0.34184 0.39567 0.78415 0.0
loop_
_geom_bond_atom_site_label_1
_geom_bond_atom_site_label_2
_geom_bond_distance
_geom_bond_site_symmetry_2
_ccdc_geom_bond_type
O0 Cd1 2.223 . S
O0 C8 1.315 . S
Cd1 O0 2.223 . S
Cd1 O4 2.297 . S
Cd1 O5 2.439 1_556 S
Cd1 O11 2.240 1_556 S
Cd2 O3 2.240 1_554 S
Cd2 O10 2.223 1_554 S
Cd2 O12 2.297 . S
Cd2 O13 2.439 . S
O3 Cd2 2.240 1_556 S
O3 C8 1.279 . S
O4 Cd1 2.297 . S
O4 C6 1.278 . S
O5 Cd1 2.439 1_554 S
O5 C6 1.185 1_554 S
C6 O4 1.278 . S
C6 O5 1.185 1_556 S
C7 O12 1.247 . S
C7 O13 1.208 . S
C8 O0 1.315 . S
C8 O3 1.279 . S
C9 O10 1.316 1_554 S
C9 O11 1.277 . S
O10 Cd2 2.223 1_556 S
O10 C9 1.316 1_556 S
O11 Cd1 2.240 1_554 S
O11 C9 1.277 . S
O12 Cd2 2.297 . S
O12 C7 1.247 . S
O13 Cd2 2.439 . S
O13 C7 1.208 . S
O14 Cd15 2.223 . S
O14 C22 1.315 . S
Cd15 O14 2.223 . S
Cd15 O18 2.297 . S
Cd15 O19 2.439 1_556 S
Cd15 O25 2.240 1_556 S
Cd16 O17 2.240 1_454 S
Cd16 O24 2.223 1_454 S
Cd16 O26 2.297 . S
Cd16 O27 2.439 1_455 S
O17 Cd16 2.240 1_656 S
O17 C22 1.279 . S
O18 Cd15 2.297 . S
O18 C20 1.280 . S
O19 Cd15 2.439 1_554 S
O19 C20 1.184 1_554 S
C20 O18 1.280 . S
C20 O19 1.184 1_556 S
C21 O26 1.247 . S
C21 O27 1.208 1_455 S
C22 O14 1.315 . S
C22 O17 1.279 . S
C23 O24 1.317 1_554 S
C23 O25 1.277 . S
O24 Cd16 2.223 1_656 S
O24 C23 1.317 1_556 S
O25 Cd15 2.240 1_554 S
O25 C23 1.277 . S
O26 Cd16 2.297 . S
O26 C21 1.247 . S
O27 Cd16 2.439 1_655 S
O27 C21 1.208 1_655 S
O28 Cd29 2.223 . S
O28 C36 1.315 . S
Cd29 O28 2.223 . S
Cd29 O32 2.297 . S
Cd29 O33 2.439 . S
Cd29 O39 2.240 . S
Cd30 O31 2.240 . S
Cd30 O38 2.223 . S
Cd30 O40 2.297 . S
Cd30 O41 2.439 . S
O31 Cd30 2.240 . S
O31 C36 1.279 . S
O32 Cd29 2.297 . S
O32 C34 1.247 . S
O33 Cd29 2.439 . S
O33 C34 1.208 . S
C34 O32 1.247 . S
C34 O33 1.208 . S
C35 O40 1.247 . S
C35 O41 1.208 . S
C36 O28 1.315 . S
C36 O31 1.279 . S
C37 O38 1.315 . S
C37 O39 1.279 . S
O38 Cd30 2.223 . S
O38 C37 1.315 . S
O39 Cd29 2.240 . S
O39 C37 1.279 . S
O40 Cd30 2.297 . S
O40 C35 1.247 . S
O41 Cd30 2.439 . S
O41 C35 1.208 . S
O42 Cd43 2.223 . S
O42 C50 1.315 . S
Cd43 O42 2.223 . S
Cd43 O46 2.297 . S
Cd43 O47 2.439 . S
Cd43 O53 2.240 . S
Cd44 O45 2.240 1_455 S
Cd44 O52 2.223 1_455 S
Cd44 O54 2.297 . S
Cd44 O55 2.439 1_455 S
O45 Cd44 2.240 1_655 S
O45 C50 1.279 . S
O46 Cd43 2.297 . S
O46 C48 1.247 . S
O47 Cd43 2.439 . S
O47 C48 1.208 . S
C48 O46 1.247 . S
C48 O47 1.208 . S
C49 O54 1.247 . S
C49 O55 1.208 1_455 S
C50 O42 1.315 . S
C50 O45 1.279 . S
C51 O52 1.315 . S
C51 O53 1.279 . S
O52 Cd44 2.223 1_655 S
O52 C51 1.315 . S
O53 Cd43 2.240 . S
O53 C51 1.279 . S
O54 Cd44 2.297 . S
O54 C49 1.247 . S
O55 Cd44 2.439 1_655 S
O55 C49 1.208 1_655 S
O56 Cd57 2.223 . S
O56 C64 1.315 . S
Cd57 O56 2.223 . S
Cd57 O60 2.297 . S
Cd57 O61 2.439 1_554 S
Cd57 O67 2.240 1_554 S
Cd58 O59 2.240 1_556 S
Cd58 O66 2.223 1_556 S
Cd58 O68 2.297 . S
Cd58 O69 2.439 . S
O59 Cd58 2.240 1_554 S
O59 C64 1.279 . S
O60 Cd57 2.297 . S
O60 C62 1.278 . S
O61 Cd57 2.439 1_556 S
O61 C62 1.185 1_556 S
C62 O60 1.278 . S
C62 O61 1.185 1_554 S
C63 O68 1.247 . S
C63 O69 1.208 . S
C64 O56 1.315 . S
C64 O59 1.279 . S
C65 O66 1.316 1_556 S
C65 O67 1.277 . S
O66 Cd58 2.223 1_554 S
O66 C65 1.316 1_554 S
O67 Cd57 2.240 1_556 S
O67 C65 1.277 . S
O68 Cd58 2.297 . S
O68 C63 1.247 . S
O69 Cd58 2.439 . S
O69 C63 1.208 . S
O70 Cd71 2.223 . S
O70 C78 1.315 . S
Cd71 O70 2.223 . S
Cd71 O74 2.297 . S
Cd71 O75 2.439 1_554 S
Cd71 O81 2.240 1_554 S
Cd72 O73 2.240 1_656 S
Cd72 O80 2.223 1_656 S
Cd72 O82 2.297 . S
Cd72 O83 2.439 1_655 S
O73 Cd72 2.240 1_454 S
O73 C78 1.279 . S
O74 Cd71 2.297 . S
O74 C76 1.280 . S
O75 Cd71 2.439 1_556 S
O75 C76 1.184 1_556 S
C76 O74 1.280 . S
C76 O75 1.184 1_554 S
C77 O82 1.247 . S
C77 O83 1.208 1_655 S
C78 O70 1.315 . S
C78 O73 1.279 . S
C79 O80 1.317 1_556 S
C79 O81 1.277 . S
O80 Cd72 2.223 1_454 S
O80 C79 1.317 1_554 S
O81 Cd71 2.240 1_556 S
O81 C79 1.277 . S
O82 Cd72 2.297 . S
O82 C77 1.247 . S
O83 Cd72 2.439 1_455 S
O83 C77 1.208 1_455 S
O84 Cd85 2.223 . S
O84 C92 1.315 . S
Cd85 O84 2.223 . S
Cd85 O88 2.297 . S
Cd85 O89 2.439 . S
Cd85 O95 2.240 . S
Cd86 O87 2.240 . S
Cd86 O94 2.223 . S
Cd86 O96 2.297 . S
Cd86 O97 2.439 . S
O87 Cd86 2.240 . S
O87 C92 1.279 . S
O88 Cd85 2.297 . S
O88 C90 1.247 . S
O89 Cd85 2.439 . S
O89 C90 1.208 . S
C90 O88 1.247 . S
C90 O89 1.208 . S
C91 O96 1.247 . S
C91 O97 1.208 . S
C92 O84 1.315 . S
C92 O87 1.279 . S
C93 O94 1.315 . S
C93 O95 1.279 . S
O94 Cd86 2.223 . S
O94 C93 1.315 . S
O95 Cd85 2.240 . S
O95 C93 1.279 . S
O96 Cd86 2.297 . S
O96 C91 1.247 . S
O97 Cd86 2.439 . S
O97 C91 1.208 . S
O98 Cd99 2.223 . S
O98 C106 1.315 . S
Cd99 O98 2.223 . S
Cd99 O102 2.297 . S
Cd99 O103 2.439 . S
Cd99 O109 2.240 . S
Cd100 O101 2.240 1_655 S
Cd100 O108 2.223 1_655 S
Cd100 O110 2.297 . S
Cd100 O111 2.439 1_655 S
O101 Cd100 2.240 1_455 S
O101 C106 1.279 . S
O102 Cd99 2.297 . S
O102 C104 1.247 . S
O103 Cd99 2.439 . S
O103 C104 1.208 . S
C104 O102 1.247 . S
C104 O103 1.208 . S
C105 O110 1.247 . S
C105 O111 1.208 1_655 S
C106 O98 1.315 . S
C106 O101 1.279 . S
C107 O108 1.315 . S
C107 O109 1.279 . S
O108 Cd100 2.223 1_455 S
O108 C107 1.315 . S
O109 Cd99 2.240 . S
O109 C107 1.279 . S
O110 Cd100 2.297 . S
O110 C105 1.247 . S
O111 Cd100 2.439 1_455 S
O111 C105 1.208 1_455 S
O112 Cd113 2.223 . S
O112 C120 1.315 . S
Cd113 O112 2.223 . S
Cd113 O116 2.297 . S
Cd113 O117 2.439 . S
Cd113 O123 2.240 . S
Cd114 O115 2.240 . S
Cd114 O122 2.223 . S
Cd114 O124 2.297 . S
Cd114 O125 2.439 . S
O115 Cd114 2.240 . S
O115 C120 1.279 . S
O116 Cd113 2.297 . S
O116 C118 1.247 . S
O117 Cd113 2.439 . S
O117 C118 1.208 . S
C118 O116 1.247 . S
C118 O117 1.208 . S
C119 O124 1.247 . S
C119 O125 1.208 . S
C120 O112 1.315 . S
C120 O115 1.279 . S
C121 O122 1.315 . S
C121 O123 1.279 . S
O122 Cd114 2.223 . S
O122 C121 1.315 . S
O123 Cd113 2.240 . S
O123 C121 1.279 . S
O124 Cd114 2.297 . S
O124 C119 1.247 . S
O125 Cd114 2.439 . S
O125 C119 1.208 . S
O126 Cd127 2.223 . S
O126 C134 1.315 . S
Cd127 O126 2.223 . S
Cd127 O130 2.297 . S
Cd127 O131 2.439 . S
Cd127 O137 2.240 . S
Cd128 O129 2.240 1_455 S
Cd128 O136 2.223 1_455 S
Cd128 O138 2.297 . S
Cd128 O139 2.439 1_455 S
O129 Cd128 2.240 1_655 S
O129 C134 1.279 . S
O130 Cd127 2.297 . S
O130 C132 1.247 . S
O131 Cd127 2.439 . S
O131 C132 1.208 . S
C132 O130 1.247 . S
C132 O131 1.208 . S
C133 O138 1.247 . S
C133 O139 1.208 1_455 S
C134 O126 1.315 . S
C134 O129 1.279 . S
C135 O136 1.315 . S
C135 O137 1.279 . S
O136 Cd128 2.223 1_655 S
O136 C135 1.315 . S
O137 Cd127 2.240 . S
O137 C135 1.279 . S
O138 Cd128 2.297 . S
O138 C133 1.247 . S
O139 Cd128 2.439 1_655 S
O139 C133 1.208 1_655 S
O140 Cd141 2.223 . S
O140 C148 1.315 . S
Cd141 O140 2.223 . S
Cd141 O144 2.297 . S
Cd141 O145 2.439 . S
Cd141 O151 2.240 . S
Cd142 O143 2.240 . S
Cd142 O150 2.223 . S
Cd142 O152 2.297 . S
Cd142 O153 2.439 . S
O143 Cd142 2.240 . S
O143 C148 1.279 . S
O144 Cd141 2.297 . S
O144 C146 1.247 . S
O145 Cd141 2.439 . S
O145 C146 1.208 . S
C146 O144 1.247 . S
C146 O145 1.208 . S
C147 O152 1.247 . S
C147 O153 1.208 . S
C148 O140 1.315 . S
C148 O143 1.279 . S
C149 O150 1.315 . S
C149 O151 1.279 . S
O150 Cd142 2.223 . S
O150 C149 1.315 . S
O151 Cd141 2.240 . S
O151 C149 1.279 . S
O152 Cd142 2.297 . S
O152 C147 1.247 . S
O153 Cd142 2.439 . S
O153 C147 1.208 . S
O154 Cd155 2.223 . S
O154 C162 1.315 . S
Cd155 O154 2.223 . S
Cd155 O158 2.297 . S
Cd155 O159 2.439 . S
Cd155 O165 2.240 . S
Cd156 O157 2.240 1_455 S
Cd156 O164 2.223 1_455 S
Cd156 O166 2.297 . S
Cd156 O167 2.439 1_455 S
O157 Cd156 2.240 1_655 S
O157 C162 1.279 . S
O158 Cd155 2.297 . S
O158 C160 1.247 . S
O159 Cd155 2.439 . S
O159 C160 1.208 . S
C160 O158 1.247 . S
C160 O159 1.208 . S
C161 O166 1.247 . S
C161 O167 1.208 1_455 S
C162 O154 1.315 . S
C162 O157 1.279 . S
C163 O164 1.315 . S
C163 O165 1.279 . S
O164 Cd156 2.223 1_655 S
O164 C163 1.315 . S
O165 Cd155 2.240 . S
O165 C163 1.279 . S
O166 Cd156 2.297 . S
O166 C161 1.247 . S
O167 Cd156 2.439 1_655 S
O167 C161 1.208 1_655 S
O168 Cd169 2.223 . S
O168 C176 1.315 . S
Cd169 O168 2.223 . S
Cd169 O172 2.297 . S
Cd169 O173 2.439 . S
Cd169 O179 2.240 . S
Cd170 O171 2.240 . S
Cd170 O178 2.223 . S
Cd170 O180 2.297 . S
Cd170 O181 2.439 . S
O171 Cd170 2.240 . S
O171 C176 1.279 . S
O172 Cd169 2.297 . S
O172 C174 1.247 . S
O173 Cd169 2.439 . S
O173 C174 1.208 . S
C174 O172 1.247 . S
C174 O173 1.208 . S
C175 O180 1.247 . S
C175 O181 1.208 . S
C176 O168 1.315 . S
C176 O171 1.279 . S
C177 O178 1.315 . S
C177 O179 1.279 . S
O178 Cd170 2.223 . S
O178 C177 1.315 . S
O179 Cd169 2.240 . S
O179 C177 1.279 . S
O180 Cd170 2.297 . S
O180 C175 1.247 . S
O181 Cd170 2.439 . S
O181 C175 1.208 . S
O182 Cd183 2.223 . S
O182 C190 1.315 . S
Cd183 O182 2.223 . S
Cd183 O186 2.297 . S
Cd183 O187 2.439 . S
Cd183 O193 2.240 . S
Cd184 O185 2.240 1_655 S
Cd184 O192 2.223 1_655 S
Cd184 O194 2.297 . S
Cd184 O195 2.439 1_655 S
O185 Cd184 2.240 1_455 S
O185 C190 1.279 . S
O186 Cd183 2.297 . S
O186 C188 1.247 . S
O187 Cd183 2.439 . S
O187 C188 1.208 . S
C188 O186 1.247 . S
C188 O187 1.208 . S
C189 O194 1.247 . S
C189 O195 1.208 1_655 S
C190 O182 1.315 . S
C190 O185 1.279 . S
C191 O192 1.315 . S
C191 O193 1.279 . S
O192 Cd184 2.223 1_455 S
O192 C191 1.315 . S
O193 Cd183 2.240 . S
O193 C191 1.279 . S
O194 Cd184 2.297 . S
O194 C189 1.247 . S
O195 Cd184 2.439 1_455 S
O195 C189 1.208 1_455 S
O196 Cd197 2.223 . S
O196 C204 1.315 . S
Cd197 O196 2.223 . S
Cd197 O200 2.297 . S
Cd197 O201 2.439 . S
Cd197 O207 2.240 . S
Cd198 O199 2.240 . S
Cd198 O206 2.223 . S
Cd198 O208 2.297 . S
Cd198 O209 2.439 . S
O199 Cd198 2.240 . S
O199 C204 1.279 . S
O200 Cd197 2.297 . S
O200 C202 1.247 . S
O201 Cd197 2.439 . S
O201 C202 1.208 . S
C202 O200 1.247 . S
C202 O201 1.208 . S
C203 O208 1.247 . S
C203 O209 1.208 . S
C204 O196 1.315 . S
C204 O199 1.279 . S
C205 O206 1.315 . S
C205 O207 1.279 . S
O206 Cd198 2.223 . S
O206 C205 1.315 . S
O207 Cd197 2.240 . S
O207 C205 1.279 . S
O208 Cd198 2.297 . S
O208 C203 1.247 . S
O209 Cd198 2.439 . S
O209 C203 1.208 . S
O210 Cd211 2.223 . S
O210 C218 1.315 . S
Cd211 O210 2.223 . S
Cd211 O214 2.297 . S
Cd211 O215 2.439 . S
Cd211 O221 2.240 . S
Cd212 O213 2.240 1_655 S
Cd212 O220 2.223 1_655 S
Cd212 O222 2.297 . S
Cd212 O223 2.439 1_655 S
O213 Cd212 2.240 1_455 S
O213 C218 1.279 . S
O214 Cd211 2.297 . S
O214 C216 1.247 . S
O215 Cd211 2.439 . S
O215 C216 1.208 . S
C216 O214 1.247 . S
C216 O215 1.208 . S
C217 O222 1.247 . S
C217 O223 1.208 1_655 S
C218 O210 1.315 . S
C218 O213 1.279 . S
C219 O220 1.315 . S
C219 O221 1.279 . S
O220 Cd212 2.223 1_455 S
O220 C219 1.315 . S
O221 Cd211 2.240 . S
O221 C219 1.279 . S
O222 Cd212 2.297 . S
O222 C217 1.247 . S
O223 Cd212 2.439 1_455 S
O223 C217 1.208 1_455 S
O224 Cd225 2.223 . S
O224 C232 1.315 . S
Cd225 O224 2.223 . S
Cd225 O228 2.297 1_655 S
Cd225 O229 2.439 . S
Cd225 O235 2.240 . S
Cd226 O227 2.240 . S
Cd226 O234 2.223 . S
Cd226 O236 2.297 . S
Cd226 O237 2.439 . S
O227 Cd226 2.240 . S
O227 C232 1.279 . S
O228 Cd225 2.297 1_455 S
O228 C230 1.247 . S
O229 Cd225 2.439 . S
O229 C230 1.208 1_655 S
C230 O228 1.247 . S
C230 O229 1.208 1_455 S
C231 O236 1.247 . S
C231 O237 1.208 . S
C232 O224 1.315 . S
C232 O227 1.279 . S
C233 O234 1.315 . S
C233 O235 1.279 . S
O234 Cd226 2.223 . S
O234 C233 1.315 . S
O235 Cd225 2.240 . S
O235 C233 1.279 . S
O236 Cd226 2.297 . S
O236 C231 1.247 . S
O237 Cd226 2.439 . S
O237 C231 1.208 . S
O238 Cd239 2.223 . S
O238 C246 1.315 . S
Cd239 O238 2.223 . S
Cd239 O242 2.297 . S
Cd239 O243 2.439 . S
Cd239 O249 2.240 . S
Cd240 O241 2.240 . S
Cd240 O248 2.223 . S
Cd240 O250 2.297 . S
Cd240 O251 2.439 . S
O241 Cd240 2.240 . S
O241 C246 1.279 . S
O242 Cd239 2.297 . S
O242 C244 1.247 . S
O243 Cd239 2.439 . S
O243 C244 1.208 . S
C244 O242 1.247 . S
C244 O243 1.208 . S
C245 O250 1.247 . S
C245 O251 1.208 . S
C246 O238 1.315 . S
C246 O241 1.279 . S
C247 O248 1.315 . S
C247 O249 1.279 . S
O248 Cd240 2.223 . S
O248 C247 1.315 . S
O249 Cd239 2.240 . S
O249 C247 1.279 . S
O250 Cd240 2.297 . S
O250 C245 1.247 . S
O251 Cd240 2.439 . S
O251 C245 1.208 . S
O252 Cd253 2.223 . S
O252 C260 1.315 . S
Cd253 O252 2.223 . S
Cd253 O256 2.297 1_655 S
Cd253 O257 2.439 . S
Cd253 O263 2.240 . S
Cd254 O255 2.240 . S
Cd254 O262 2.223 . S
Cd254 O264 2.297 . S
Cd254 O265 2.439 . S
O255 Cd254 2.240 . S
O255 C260 1.279 . S
O256 Cd253 2.297 1_455 S
O256 C258 1.247 . S
O257 Cd253 2.439 . S
O257 C258 1.208 1_655 S
C258 O256 1.247 . S
C258 O257 1.208 1_455 S
C259 O264 1.247 . S
C259 O265 1.208 . S
C260 O252 1.315 . S
C260 O255 1.279 . S
C261 O262 1.315 . S
C261 O263 1.279 . S
O262 Cd254 2.223 . S
O262 C261 1.315 . S
O263 Cd253 2.240 . S
O263 C261 1.279 . S
O264 Cd254 2.297 . S
O264 C259 1.247 . S
O265 Cd254 2.439 . S
O265 C259 1.208 . S
O266 Cd267 2.223 . S
O266 C274 1.315 . S
Cd267 O266 2.223 . S
Cd267 O270 2.297 . S
Cd267 O271 2.439 . S
Cd267 O277 2.240 . S
Cd268 O269 2.240 . S
Cd268 O276 2.223 . S
Cd268 O278 2.297 . S
Cd268 O279 2.439 . S
O269 Cd268 2.240 . S
O269 C274 1.279 . S
O270 Cd267 2.297 . S
O270 C272 1.247 . S
O271 Cd267 2.439 . S
O271 C272 1.208 . S
C272 O270 1.247 . S
C272 O271 1.208 . S
C273 O278 1.247 . S
C273 O279 1.208 . S
C274 O266 1.315 . S
C274 O269 1.279 . S
C275 O276 1.315 . S
C275 O277 1.279 . S
O276 Cd268 2.223 . S
O276 C275 1.315 . S
O277 Cd267 2.240 . S
O277 C275 1.279 . S
O278 Cd268 2.297 . S
O278 C273 1.247 . S
O279 Cd268 2.439 . S
O279 C273 1.208 . S
O280 Cd281 2.223 . S
O280 C288 1.315 . S
Cd281 O280 2.223 . S
Cd281 O284 2.297 1_455 S
Cd281 O285 2.439 . S
Cd281 O291 2.240 . S
Cd282 O283 2.240 . S
Cd282 O290 2.223 . S
Cd282 O292 2.297 . S
Cd282 O293 2.439 . S
O283 Cd282 2.240 . S
O283 C288 1.279 . S
O284 Cd281 2.297 1_655 S
O284 C286 1.247 . S
O285 Cd281 2.439 . S
O285 C286 1.208 1_455 S
C286 O284 1.247 . S
C286 O285 1.208 1_655 S
C287 O292 1.247 . S
C287 O293 1.208 . S
C288 O280 1.315 . S
C288 O283 1.279 . S
C289 O290 1.315 . S
C289 O291 1.279 . S
O290 Cd282 2.223 . S
O290 C289 1.315 . S
O291 Cd281 2.240 . S
O291 C289 1.279 . S
O292 Cd282 2.297 . S
O292 C287 1.247 . S
O293 Cd282 2.439 . S
O293 C287 1.208 . S
O294 Cd295 2.223 . S
O294 C302 1.315 . S
Cd295 O294 2.223 . S
Cd295 O298 2.297 . S
Cd295 O299 2.439 . S
Cd295 O305 2.240 . S
Cd296 O297 2.240 . S
Cd296 O304 2.223 . S
Cd296 O306 2.297 . S
Cd296 O307 2.439 . S
O297 Cd296 2.240 . S
O297 C302 1.279 . S
O298 Cd295 2.297 . S
O298 C300 1.247 . S
O299 Cd295 2.439 . S
O299 C300 1.208 . S
C300 O298 1.247 . S
C300 O299 1.208 . S
C301 O306 1.247 . S
C301 O307 1.208 . S
C302 O294 1.315 . S
C302 O297 1.279 . S
C303 O304 1.315 . S
C303 O305 1.279 . S
O304 Cd296 2.223 . S
O304 C303 1.315 . S
O305 Cd295 2.240 . S
O305 C303 1.279 . S
O306 Cd296 2.297 . S
O306 C301 1.247 . S
O307 Cd296 2.439 . S
O307 C301 1.208 . S
O308 Cd309 2.223 . S
O308 C316 1.315 . S
Cd309 O308 2.223 . S
Cd309 O312 2.297 1_455 S
Cd309 O313 2.439 . S
Cd309 O319 2.240 . S
Cd310 O311 2.240 . S
Cd310 O318 2.223 . S
Cd310 O320 2.297 . S
Cd310 O321 2.439 . S
O311 Cd310 2.240 . S
O311 C316 1.279 . S
O312 Cd309 2.297 1_655 S
O312 C314 1.247 . S
O313 Cd309 2.439 . S
O313 C314 1.208 1_455 S
C314 O312 1.247 . S
C314 O313 1.208 1_655 S
C315 O320 1.247 . S
C315 O321 1.208 . S
C316 O308 1.315 . S
C316 O311 1.279 . S
C317 O318 1.315 . S
C317 O319 1.279 . S
O318 Cd310 2.223 . S
O318 C317 1.315 . S
O319 Cd309 2.240 . S
O319 C317 1.279 . S
O320 Cd310 2.297 . S
O320 C315 1.247 . S
O321 Cd310 2.439 . S
O321 C315 1.208 . S
O322 Cd323 2.223 . S
O322 C330 1.315 . S
Cd323 O322 2.223 . S
Cd323 O326 2.297 . S
Cd323 O327 2.439 . S
Cd323 O333 2.240 . S
Cd324 O325 2.240 . S
Cd324 O332 2.223 . S
Cd324 O334 2.297 . S
Cd324 O335 2.439 . S
O325 Cd324 2.240 . S
O325 C330 1.279 . S
O326 Cd323 2.297 . S
O326 C328 1.247 . S
O327 Cd323 2.439 . S
O327 C328 1.208 . S
C328 O326 1.247 . S
C328 O327 1.208 . S
C329 O334 1.247 . S
C329 O335 1.208 . S
C330 O322 1.315 . S
C330 O325 1.279 . S
C331 O332 1.315 . S
C331 O333 1.279 . S
O332 Cd324 2.223 . S
O332 C331 1.315 . S
O333 Cd323 2.240 . S
O333 C331 1.279 . S
O334 Cd324 2.297 . S
O334 C329 1.247 . S
O335 Cd324 2.439 . S
O335 C329 1.208 . S
O336 Cd337 2.223 . S
O336 C344 1.315 . S
Cd337 O336 2.223 . S
Cd337 O340 2.297 1_655 S
Cd337 O341 2.439 1_556 S
Cd337 O347 2.240 1_556 S
Cd338 O339 2.240 1_554 S
Cd338 O346 2.223 1_554 S
Cd338 O348 2.297 . S
Cd338 O349 2.439 . S
O339 Cd338 2.240 1_556 S
O339 C344 1.279 . S
O340 Cd337 2.297 1_455 S
O340 C342 1.278 . S
O341 Cd337 2.439 1_554 S
O341 C342 1.185 1_654 S
C342 O340 1.278 . S
C342 O341 1.185 1_456 S
C343 O348 1.247 . S
C343 O349 1.208 . S
C344 O336 1.315 . S
C344 O339 1.279 . S
C345 O346 1.316 1_554 S
C345 O347 1.278 . S
O346 Cd338 2.223 1_556 S
O346 C345 1.316 1_556 S
O347 Cd337 2.240 1_554 S
O347 C345 1.278 . S
O348 Cd338 2.297 . S
O348 C343 1.247 . S
O349 Cd338 2.439 . S
O349 C343 1.208 . S
O350 Cd351 2.223 . S
O350 C358 1.315 . S
Cd351 O350 2.223 . S
Cd351 O354 2.297 . S
Cd351 O355 2.439 1_556 S
Cd351 O361 2.240 1_556 S
Cd352 O353 2.240 1_554 S
Cd352 O360 2.223 1_554 S
Cd352 O362 2.297 . S
Cd352 O363 2.439 . S
O353 Cd352 2.240 1_556 S
O353 C358 1.279 . S
O354 Cd351 2.297 . S
O354 C356 1.277 . S
O355 Cd351 2.439 1_554 S
O355 C356 1.185 1_554 S
C356 O354 1.277 . S
C356 O355 1.185 1_556 S
C357 O362 1.247 . S
C357 O363 1.208 . S
C358 O350 1.315 . S
C358 O353 1.279 . S
C359 O360 1.316 1_554 S
C359 O361 1.278 . S
O360 Cd352 2.223 1_556 S
O360 C359 1.316 1_556 S
O361 Cd351 2.240 1_554 S
O361 C359 1.278 . S
O362 Cd352 2.297 . S
O362 C357 1.247 . S
O363 Cd352 2.439 . S
O363 C357 1.208 . S
O364 Cd365 2.223 . S
O364 C372 1.315 . S
Cd365 O364 2.223 . S
Cd365 O368 2.297 1_655 S
Cd365 O369 2.439 . S
Cd365 O375 2.240 . S
Cd366 O367 2.240 . S
Cd366 O374 2.223 . S
Cd366 O376 2.297 . S
Cd366 O377 2.439 . S
O367 Cd366 2.240 . S
O367 C372 1.279 . S
O368 Cd365 2.297 1_455 S
O368 C370 1.247 . S
O369 Cd365 2.439 . S
O369 C370 1.208 1_655 S
C370 O368 1.247 . S
C370 O369 1.208 1_455 S
C371 O376 1.247 . S
C371 O377 1.208 . S
C372 O364 1.315 . S
C372 O367 1.279 . S
C373 O374 1.315 . S
C373 O375 1.279 . S
O374 Cd366 2.223 . S
O374 C373 1.315 . S
O375 Cd365 2.240 . S
O375 C373 1.279 . S
O376 Cd366 2.297 . S
O376 C371 1.247 . S
O377 Cd366 2.439 . S
O377 C371 1.208 . S
O378 Cd379 2.223 . S
O378 C386 1.315 . S
Cd379 O378 2.223 . S
Cd379 O382 2.297 . S
Cd379 O383 2.439 . S
Cd379 O389 2.240 . S
Cd380 O381 2.240 . S
Cd380 O388 2.223 . S
Cd380 O390 2.297 . S
Cd380 O391 2.439 . S
O381 Cd380 2.240 . S
O381 C386 1.279 . S
O382 Cd379 2.297 . S
O382 C384 1.247 . S
O383 Cd379 2.439 . S
O383 C384 1.208 . S
C384 O382 1.247 . S
C384 O383 1.208 . S
C385 O390 1.247 . S
C385 O391 1.208 . S
C386 O378 1.315 . S
C386 O381 1.279 . S
C387 O388 1.315 . S
C387 O389 1.279 . S
O388 Cd380 2.223 . S
O388 C387 1.315 . S
O389 Cd379 2.240 . S
O389 C387 1.279 . S
O390 Cd380 2.297 . S
O390 C385 1.247 . S
O391 Cd380 2.439 . S
O391 C385 1.208 . S
O392 Cd393 2.223 . S
O392 C400 1.315 . S
Cd393 O392 2.223 . S
Cd393 O396 2.297 1_455 S
Cd393 O397 2.439 1_554 S
Cd393 O403 2.240 1_554 S
Cd394 O395 2.240 1_556 S
Cd394 O402 2.223 1_556 S
Cd394 O404 2.297 . S
Cd394 O405 2.439 . S
O395 Cd394 2.240 1_554 S
O395 C400 1.279 . S
O396 Cd393 2.297 1_655 S
O396 C398 1.278 . S
O397 Cd393 2.439 1_556 S
O397 C398 1.185 1_456 S
C398 O396 1.278 . S
C398 O397 1.185 1_654 S
C399 O404 1.247 . S
C399 O405 1.208 . S
C400 O392 1.315 . S
C400 O395 1.279 . S
C401 O402 1.316 1_556 S
C401 O403 1.278 . S
O402 Cd394 2.223 1_554 S
O402 C401 1.316 1_554 S
O403 Cd393 2.240 1_556 S
O403 C401 1.278 . S
O404 Cd394 2.297 . S
O404 C399 1.247 . S
O405 Cd394 2.439 . S
O405 C399 1.208 . S
O406 Cd407 2.223 . S
O406 C414 1.315 . S
Cd407 O406 2.223 . S
Cd407 O410 2.297 . S
Cd407 O411 2.439 1_554 S
Cd407 O417 2.240 1_554 S
Cd408 O409 2.240 1_556 S
Cd408 O416 2.223 1_556 S
Cd408 O418 2.297 . S
Cd408 O419 2.439 . S
O409 Cd408 2.240 1_554 S
O409 C414 1.279 . S
O410 Cd407 2.297 . S
O410 C412 1.277 . S
O411 Cd407 2.439 1_556 S
O411 C412 1.185 1_556 S
C412 O410 1.277 . S
C412 O411 1.185 1_554 S
C413 O418 1.247 . S
C413 O419 1.208 . S
C414 O406 1.315 . S
C414 O409 1.279 . S
C415 O416 1.316 1_556 S
C415 O417 1.278 . S
O416 Cd408 2.223 1_554 S
O416 C415 1.316 1_554 S
O417 Cd407 2.240 1_556 S
O417 C415 1.278 . S
O418 Cd408 2.297 . S
O418 C413 1.247 . S
O419 Cd408 2.439 . S
O419 C413 1.208 . S
O420 Cd421 2.223 . S
O420 C428 1.315 . S
Cd421 O420 2.223 . S
Cd421 O424 2.297 1_455 S
Cd421 O425 2.439 . S
Cd421 O431 2.240 . S
Cd422 O423 2.240 . S
Cd422 O430 2.223 . S
Cd422 O432 2.297 . S
Cd422 O433 2.439 . S
O423 Cd422 2.240 . S
O423 C428 1.279 . S
O424 Cd421 2.297 1_655 S
O424 C426 1.247 . S
O425 Cd421 2.439 . S
O425 C426 1.208 1_455 S
C426 O424 1.247 . S
C426 O425 1.208 1_655 S
C427 O432 1.247 . S
C427 O433 1.208 . S
C428 O420 1.315 . S
C428 O423 1.279 . S
C429 O430 1.315 . S
C429 O431 1.279 . S
O430 Cd422 2.223 . S
O430 C429 1.315 . S
O431 Cd421 2.240 . S
O431 C429 1.279 . S
O432 Cd422 2.297 . S
O432 C427 1.247 . S
O433 Cd422 2.439 . S
O433 C427 1.208 . S
O434 Cd435 2.223 . S
O434 C442 1.315 . S
Cd435 O434 2.223 . S
Cd435 O438 2.297 . S
Cd435 O439 2.439 . S
Cd435 O445 2.240 . S
Cd436 O437 2.240 . S
Cd436 O444 2.223 . S
Cd436 O446 2.297 . S
Cd436 O447 2.439 . S
O437 Cd436 2.240 . S
O437 C442 1.279 . S
O438 Cd435 2.297 . S
O438 C440 1.247 . S
O439 Cd435 2.439 . S
O439 C440 1.208 . S
C440 O438 1.247 . S
C440 O439 1.208 . S
C441 O446 1.247 . S
C441 O447 1.208 . S
C442 O434 1.315 . S
C442 O437 1.279 . S
C443 O444 1.315 . S
C443 O445 1.279 . S
O444 Cd436 2.223 . S
O444 C443 1.315 . S
O445 Cd435 2.240 . S
O445 C443 1.279 . S
O446 Cd436 2.297 . S
O446 C441 1.247 . S
O447 Cd436 2.439 . S
O447 C441 1.208 . S
H448 C454 0.930 . S
H449 C458 0.930 1_655 S
H450 C463 0.929 . S
H451 C461 0.929 . S
H452 C456 0.929 . S
H453 C462 0.929 . S
C454 H448 0.930 . S
C454 C455 1.367 . S
C454 C462 1.378 . S
C455 C454 1.367 . S
C455 C463 1.433 . S
C456 H452 0.929 . S
C456 C458 1.378 . S
C456 C460 1.350 . S
C457 C460 1.463 . S
C457 C462 1.350 . S
C457 N465 1.427 . S
C458 H449 0.930 1_455 S
C458 C456 1.378 . S
C458 C459 1.367 . S
C459 C458 1.367 . S
C459 C461 1.433 . S
C460 C456 1.350 . S
C460 C457 1.463 . S
C460 N464 1.427 . S
C461 H451 0.929 . S
C461 C459 1.433 . S
C461 N464 1.384 . S
C462 H453 0.929 . S
C462 C454 1.378 . S
C462 C457 1.350 . S
C463 H450 0.929 . S
C463 C455 1.433 . S
C463 N465 1.384 . S
N464 C460 1.427 . S
N464 C461 1.384 . S
N465 C457 1.427 . S
N465 C463 1.384 . S
H466 C472 0.930 . S
H467 C476 0.930 . S
H468 C481 0.929 . S
H469 C479 0.929 1_655 S
H470 C474 0.929 . S
H471 C480 0.929 . S
C472 H466 0.930 . S
C472 C473 1.367 . S
C472 C480 1.378 . S
C473 C472 1.367 . S
C473 C481 1.433 . S
C474 H470 0.929 . S
C474 C476 1.378 . S
C474 C478 1.350 . S
C475 C478 1.463 . S
C475 C480 1.350 . S
C475 N483 1.427 . S
C476 H467 0.930 . S
C476 C474 1.378 . S
C476 C477 1.367 . S
C477 C476 1.367 . S
C477 C479 1.433 . S
C478 C474 1.350 . S
C478 C475 1.463 . S
C478 N482 1.427 . S
C479 H469 0.929 1_455 S
C479 C477 1.433 . S
C479 N482 1.384 . S
C480 H471 0.929 . S
C480 C472 1.378 . S
C480 C475 1.350 . S
C481 H468 0.929 . S
C481 C473 1.433 . S
C481 N483 1.384 . S
N482 C478 1.427 . S
N482 C479 1.384 . S
N483 C475 1.427 . S
N483 C481 1.384 . S
H484 C490 0.930 1_455 S
H485 C494 0.930 . S
H486 C499 0.929 . S
H487 C497 0.929 . S
H488 C492 0.929 . S
H489 C498 0.929 . S
C490 H484 0.930 1_655 S
C490 C491 1.367 . S
C490 C498 1.378 . S
C491 C490 1.367 . S
C491 C499 1.433 . S
C492 H488 0.929 . S
C492 C494 1.378 . S
C492 C496 1.350 . S
C493 C496 1.463 . S
C493 C498 1.350 . S
C493 N501 1.427 . S
C494 H485 0.930 . S
C494 C492 1.378 . S
C494 C495 1.367 . S
C495 C494 1.367 . S
C495 C497 1.433 . S
C496 C492 1.350 . S
C496 C493 1.463 . S
C496 N500 1.427 . S
C497 H487 0.929 . S
C497 C495 1.433 . S
C497 N500 1.384 . S
C498 H489 0.929 . S
C498 C490 1.378 . S
C498 C493 1.350 . S
C499 H486 0.929 . S
C499 C491 1.433 . S
C499 N501 1.384 . S
N500 C496 1.427 . S
N500 C497 1.384 . S
N501 C493 1.427 . S
N501 C499 1.384 . S
H502 C508 0.930 . S
H503 C512 0.930 1_455 S
H504 C517 0.929 . S
H505 C515 0.929 . S
H506 C510 0.929 . S
H507 C516 0.929 . S
C508 H502 0.930 . S
C508 C509 1.367 . S
C508 C516 1.378 . S
C509 C508 1.367 . S
C509 C517 1.433 . S
C510 H506 0.929 . S
C510 C512 1.378 . S
C510 C514 1.350 . S
C511 C514 1.463 . S
C511 C516 1.350 . S
C511 N519 1.427 . S
C512 H503 0.930 1_655 S
C512 C510 1.378 . S
C512 C513 1.367 . S
C513 C512 1.367 . S
C513 C515 1.433 . S
C514 C510 1.350 . S
C514 C511 1.463 . S
C514 N518 1.427 . S
C515 H505 0.929 . S
C515 C513 1.433 . S
C515 N518 1.384 . S
C516 H507 0.929 . S
C516 C508 1.378 . S
C516 C511 1.350 . S
C517 H504 0.929 . S
C517 C509 1.433 . S
C517 N519 1.384 . S
N518 C514 1.427 . S
N518 C515 1.384 . S
N519 C511 1.427 . S
N519 C517 1.384 . S
H520 C526 0.930 . S
H521 C530 0.930 . S
H522 C535 0.929 . S
H523 C533 0.929 . S
H524 C528 0.929 . S
H525 C534 0.929 . S
C526 H520 0.930 . S
C526 C527 1.367 . S
C526 C534 1.378 . S
C527 C526 1.367 . S
C527 C535 1.433 . S
C528 H524 0.929 . S
C528 C530 1.378 . S
C528 C532 1.350 . S
C529 C532 1.463 . S
C529 C534 1.350 . S
C529 N537 1.427 . S
C530 H521 0.930 . S
C530 C528 1.378 . S
C530 C531 1.367 . S
C531 C530 1.367 . S
C531 C533 1.433 . S
C532 C528 1.350 . S
C532 C529 1.463 . S
C532 N536 1.427 . S
C533 H523 0.929 . S
C533 C531 1.433 . S
C533 N536 1.384 . S
C534 H525 0.929 . S
C534 C526 1.378 . S
C534 C529 1.350 . S
C535 H522 0.929 . S
C535 C527 1.433 . S
C535 N537 1.384 . S
N536 C532 1.427 . S
N536 C533 1.384 . S
N537 C529 1.427 . S
N537 C535 1.384 . S
H538 C544 0.930 . S
H539 C548 0.930 . S
H540 C553 0.929 . S
H541 C551 0.929 . S
H542 C546 0.929 . S
H543 C552 0.929 . S
C544 H538 0.930 . S
C544 C545 1.367 . S
C544 C552 1.378 . S
C545 C544 1.367 . S
C545 C553 1.433 . S
C546 H542 0.929 . S
C546 C548 1.378 . S
C546 C550 1.350 . S
C547 C550 1.463 . S
C547 C552 1.350 . S
C547 N555 1.427 . S
C548 H539 0.930 . S
C548 C546 1.378 . S
C548 C549 1.367 . S
C549 C548 1.367 . S
C549 C551 1.433 . S
C550 C546 1.350 . S
C550 C547 1.463 . S
C550 N554 1.427 . S
C551 H541 0.929 . S
C551 C549 1.433 . S
C551 N554 1.384 . S
C552 H543 0.929 . S
C552 C544 1.378 . S
C552 C547 1.350 . S
C553 H540 0.929 . S
C553 C545 1.433 . S
C553 N555 1.384 . S
N554 C550 1.427 . S
N554 C551 1.384 . S
N555 C547 1.427 . S
N555 C553 1.384 . S
H556 C562 0.930 . S
H557 C566 0.930 . S
H558 C571 0.926 1_455 S
H559 C569 0.929 . S
H560 C564 0.929 . S
H561 C570 0.929 . S
C562 H556 0.930 . S
C562 C563 1.367 . S
C562 C570 1.378 . S
C563 C562 1.367 . S
C563 C571 1.433 . S
C564 H560 0.929 . S
C564 C566 1.378 . S
C564 C568 1.350 . S
C565 C568 1.463 . S
C565 C570 1.350 . S
C565 N573 1.427 . S
C566 H557 0.930 . S
C566 C564 1.378 . S
C566 C567 1.367 . S
C567 C566 1.367 . S
C567 C569 1.433 . S
C568 C564 1.350 . S
C568 C565 1.463 . S
C568 N572 1.427 . S
C569 H559 0.929 . S
C569 C567 1.433 . S
C569 N572 1.384 . S
C570 H561 0.929 . S
C570 C562 1.378 . S
C570 C565 1.350 . S
C571 H558 0.926 1_655 S
C571 C563 1.433 . S
C571 N573 1.384 . S
N572 C568 1.427 . S
N572 C569 1.384 . S
N573 C565 1.427 . S
N573 C571 1.384 . S
H574 C580 0.930 . S
H575 C584 0.930 1_455 S
H576 C589 0.929 . S
H577 C587 0.929 . S
H578 C582 0.929 . S
H579 C588 0.929 . S
C580 H574 0.930 . S
C580 C581 1.367 . S
C580 C588 1.378 . S
C581 C580 1.367 . S
C581 C589 1.433 . S
C582 H578 0.929 . S
C582 C584 1.378 . S
C582 C586 1.350 . S
C583 C586 1.463 . S
C583 C588 1.350 . S
C583 N591 1.427 . S
C584 H575 0.930 1_655 S
C584 C582 1.378 . S
C584 C585 1.367 . S
C585 C584 1.367 . S
C585 C587 1.433 . S
C586 C582 1.350 . S
C586 C583 1.463 . S
C586 N590 1.427 . S
C587 H577 0.929 . S
C587 C585 1.433 . S
C587 N590 1.384 . S
C588 H579 0.929 . S
C588 C580 1.378 . S
C588 C583 1.350 . S
C589 H576 0.929 . S
C589 C581 1.433 . S
C589 N591 1.384 . S
N590 C586 1.427 . S
N590 C587 1.384 . S
N591 C583 1.427 . S
N591 C589 1.384 . S
H592 C598 0.930 . S
H593 C602 0.930 . S
H594 C607 0.929 . S
H595 C605 0.929 . S
H596 C600 0.929 . S
H597 C606 0.929 . S
C598 H592 0.930 . S
C598 C599 1.367 . S
C598 C606 1.378 . S
C599 C598 1.367 . S
C599 C607 1.433 . S
C600 H596 0.929 . S
C600 C602 1.378 . S
C600 C604 1.350 . S
C601 C604 1.463 . S
C601 C606 1.350 . S
C601 N609 1.427 . S
C602 H593 0.930 . S
C602 C600 1.378 . S
C602 C603 1.367 . S
C603 C602 1.367 . S
C603 C605 1.433 . S
C604 C600 1.350 . S
C604 C601 1.463 . S
C604 N608 1.427 . S
C605 H595 0.929 . S
C605 C603 1.433 . S
C605 N608 1.384 . S
C606 H597 0.929 . S
C606 C598 1.378 . S
C606 C601 1.350 . S
C607 H594 0.929 . S
C607 C599 1.433 . S
C607 N609 1.384 . S
N608 C604 1.427 . S
N608 C605 1.384 . S
N609 C601 1.427 . S
N609 C607 1.384 . S
H610 C616 0.930 . S
H611 C620 0.930 . S
H612 C625 0.929 . S
H613 C623 0.929 . S
H614 C618 0.929 . S
H615 C624 0.929 . S
C616 H610 0.930 . S
C616 C617 1.367 . S
C616 C624 1.378 . S
C617 C616 1.367 . S
C617 C625 1.433 . S
C618 H614 0.929 . S
C618 C620 1.378 . S
C618 C622 1.350 . S
C619 C622 1.463 . S
C619 C624 1.350 . S
C619 N627 1.427 . S
C620 H611 0.930 . S
C620 C618 1.378 . S
C620 C621 1.367 . S
C621 C620 1.367 . S
C621 C623 1.433 . S
C622 C618 1.350 . S
C622 C619 1.463 . S
C622 N626 1.427 . S
C623 H613 0.929 . S
C623 C621 1.433 . S
C623 N626 1.384 . S
C624 H615 0.929 . S
C624 C616 1.378 . S
C624 C619 1.350 . S
C625 H612 0.929 . S
C625 C617 1.433 . S
C625 N627 1.384 . S
N626 C622 1.427 . S
N626 C623 1.384 . S
N627 C619 1.427 . S
N627 C625 1.384 . S
H628 C634 0.930 . S
H629 C638 0.930 . S
H630 C643 0.929 . S
H631 C641 0.929 . S
H632 C636 0.929 . S
H633 C642 0.929 . S
C634 H628 0.930 . S
C634 C635 1.367 . S
C634 C642 1.378 . S
C635 C634 1.367 . S
C635 C643 1.433 . S
C636 H632 0.929 . S
C636 C638 1.378 . S
C636 C640 1.350 . S
C637 C640 1.463 . S
C637 C642 1.350 . S
C637 N645 1.427 . S
C638 H629 0.930 . S
C638 C636 1.378 . S
C638 C639 1.367 . S
C639 C638 1.367 . S
C639 C641 1.433 . S
C640 C636 1.350 . S
C640 C637 1.463 . S
C640 N644 1.427 . S
C641 H631 0.929 . S
C641 C639 1.433 . S
C641 N644 1.384 . S
C642 H633 0.929 . S
C642 C634 1.378 . S
C642 C637 1.350 . S
C643 H630 0.929 . S
C643 C635 1.433 . S
C643 N645 1.384 . S
N644 C640 1.427 . S
N644 C641 1.384 . S
N645 C637 1.427 . S
N645 C643 1.384 . S
H646 C652 0.930 . S
H647 C656 0.930 . S
H648 C661 0.929 . S
H649 C659 0.929 . S
H650 C654 0.929 . S
H651 C660 0.929 . S
C652 H646 0.930 . S
C652 C653 1.367 . S
C652 C660 1.378 . S
C653 C652 1.367 . S
C653 C661 1.433 . S
C654 H650 0.929 . S
C654 C656 1.378 . S
C654 C658 1.350 . S
C655 C658 1.463 . S
C655 C660 1.350 . S
C655 N663 1.427 . S
C656 H647 0.930 . S
C656 C654 1.378 . S
C656 C657 1.367 . S
C657 C656 1.367 . S
C657 C659 1.433 . S
C658 C654 1.350 . S
C658 C655 1.463 . S
C658 N662 1.427 . S
C659 H649 0.929 . S
C659 C657 1.433 . S
C659 N662 1.384 . S
C660 H651 0.929 . S
C660 C652 1.378 . S
C660 C655 1.350 . S
C661 H648 0.929 . S
C661 C653 1.433 . S
C661 N663 1.384 . S
N662 C658 1.427 . S
N662 C659 1.384 . S
N663 C655 1.427 . S
N663 C661 1.384 . S
H664 C670 0.930 . S
H665 C674 0.930 . S
H666 C679 0.929 . S
H667 C677 0.929 . S
H668 C672 0.929 . S
H669 C678 0.929 . S
C670 H664 0.930 . S
C670 C671 1.367 . S
C670 C678 1.378 . S
C671 C670 1.367 . S
C671 C679 1.433 . S
C672 H668 0.929 . S
C672 C674 1.378 . S
C672 C676 1.350 . S
C673 C676 1.463 . S
C673 C678 1.350 . S
C673 N681 1.427 . S
C674 H665 0.930 . S
C674 C672 1.378 . S
C674 C675 1.367 . S
C675 C674 1.367 . S
C675 C677 1.433 . S
C676 C672 1.350 . S
C676 C673 1.463 . S
C676 N680 1.427 . S
C677 H667 0.929 . S
C677 C675 1.433 . S
C677 N680 1.384 . S
C678 H669 0.929 . S
C678 C670 1.378 . S
C678 C673 1.350 . S
C679 H666 0.929 . S
C679 C671 1.433 . S
C679 N681 1.384 . S
N680 C676 1.427 . S
N680 C677 1.384 . S
N681 C673 1.427 . S
N681 C679 1.384 . S
H682 C688 0.930 . S
H683 C692 0.930 . S
H684 C697 0.929 . S
H685 C695 0.929 . S
H686 C690 0.929 . S
H687 C696 0.929 . S
C688 H682 0.930 . S
C688 C689 1.367 . S
C688 C696 1.378 . S
C689 C688 1.367 . S
C689 C697 1.433 . S
C690 H686 0.929 . S
C690 C692 1.378 . S
C690 C694 1.350 . S
C691 C694 1.463 . S
C691 C696 1.350 . S
C691 N699 1.427 . S
C692 H683 0.930 . S
C692 C690 1.378 . S
C692 C693 1.367 . S
C693 C692 1.367 . S
C693 C695 1.433 . S
C694 C690 1.350 . S
C694 C691 1.463 . S
C694 N698 1.427 . S
C695 H685 0.929 . S
C695 C693 1.433 . S
C695 N698 1.384 . S
C696 H687 0.929 . S
C696 C688 1.378 . S
C696 C691 1.350 . S
C697 H684 0.929 . S
C697 C689 1.433 . S
C697 N699 1.384 . S
N698 C694 1.427 . S
N698 C695 1.384 . S
N699 C691 1.427 . S
N699 C697 1.384 . S
H700 C706 0.930 . S
H701 C710 0.930 . S
H702 C715 0.929 . S
H703 C713 0.929 . S
H704 C708 0.929 . S
H705 C714 0.929 . S
C706 H700 0.930 . S
C706 C707 1.367 . S
C706 C714 1.378 . S
C707 C706 1.367 . S
C707 C715 1.433 . S
C708 H704 0.929 . S
C708 C710 1.378 . S
C708 C712 1.350 . S
C709 C712 1.463 . S
C709 C714 1.350 . S
C709 N717 1.427 . S
C710 H701 0.930 . S
C710 C708 1.378 . S
C710 C711 1.367 . S
C711 C710 1.367 . S
C711 C713 1.433 . S
C712 C708 1.350 . S
C712 C709 1.463 . S
C712 N716 1.427 . S
C713 H703 0.929 . S
C713 C711 1.433 . S
C713 N716 1.384 . S
C714 H705 0.929 . S
C714 C706 1.378 . S
C714 C709 1.350 . S
C715 H702 0.929 . S
C715 C707 1.433 . S
C715 N717 1.384 . S
N716 C712 1.427 . S
N716 C713 1.384 . S
N717 C709 1.427 . S
N717 C715 1.384 . S
H718 C724 0.930 . S
H719 C728 0.930 . S
H720 C733 0.929 . S
H721 C731 0.929 . S
H722 C726 0.929 . S
H723 C732 0.929 . S
C724 H718 0.930 . S
C724 C725 1.367 . S
C724 C732 1.378 . S
C725 C724 1.367 . S
C725 C733 1.433 . S
C726 H722 0.929 . S
C726 C728 1.378 . S
C726 C730 1.350 . S
C727 C730 1.463 . S
C727 C732 1.350 . S
C727 N735 1.427 . S
C728 H719 0.930 . S
C728 C726 1.378 . S
C728 C729 1.367 . S
C729 C728 1.367 . S
C729 C731 1.433 . S
C730 C726 1.350 . S
C730 C727 1.463 . S
C730 N734 1.427 . S
C731 H721 0.929 . S
C731 C729 1.433 . S
C731 N734 1.384 . S
C732 H723 0.929 . S
C732 C724 1.378 . S
C732 C727 1.350 . S
C733 H720 0.929 . S
C733 C725 1.433 . S
C733 N735 1.384 . S
N734 C730 1.427 . S
N734 C731 1.384 . S
N735 C727 1.427 . S
N735 C733 1.384 . S
H736 C742 0.930 . S
H737 C746 0.930 . S
H738 C751 0.929 . S
H739 C749 0.929 . S
H740 C744 0.929 . S
H741 C750 0.929 . S
C742 H736 0.930 . S
C742 C743 1.363 1_556 S
C742 C750 1.378 . S
C743 C742 1.363 1_554 S
C743 C751 1.437 . S
C744 H740 0.929 . S
C744 C746 1.378 . S
C744 C748 1.372 . S
C745 C748 1.461 1_546 S
C745 C750 1.372 . S
C745 N753 1.405 1_556 S
C746 H737 0.930 . S
C746 C744 1.378 . S
C746 C747 1.363 1_554 S
C747 C746 1.363 1_556 S
C747 C749 1.437 . S
C748 C744 1.372 . S
C748 C745 1.461 1_564 S
C748 N752 1.405 1_554 S
C749 H739 0.929 . S
C749 C747 1.437 . S
C749 N752 1.384 . S
C750 H741 0.929 . S
C750 C742 1.378 . S
C750 C745 1.372 . S
C751 H738 0.929 . S
C751 C743 1.437 . S
C751 N753 1.384 . S
N752 C748 1.405 1_556 S
N752 C749 1.384 . S
N753 C745 1.405 1_554 S
N753 C751 1.384 . S
H754 C760 0.930 . S
H755 C764 0.930 . S
H756 C769 0.929 . S
H757 C767 0.929 . S
H758 C762 0.929 . S
H759 C768 0.929 . S
C760 H754 0.930 . S
C760 C761 1.358 1_554 S
C760 C768 1.378 . S
C761 C760 1.358 1_556 S
C761 C769 1.442 . S
C762 H758 0.929 . S
C762 C764 1.378 . S
C762 C766 1.358 . S
C763 C766 1.462 1_554 S
C763 C768 1.357 . S
C763 N771 1.421 1_554 S
C764 H755 0.930 . S
C764 C762 1.378 . S
C764 C765 1.360 1_556 S
C765 C764 1.360 1_554 S
C765 C767 1.440 . S
C766 C762 1.358 . S
C766 C763 1.462 1_556 S
C766 N770 1.419 1_556 S
C767 H757 0.929 . S
C767 C765 1.440 . S
C767 N770 1.384 . S
C768 H759 0.929 . S
C768 C760 1.378 . S
C768 C763 1.357 . S
C769 H756 0.929 . S
C769 C761 1.442 . S
C769 N771 1.384 . S
N770 C766 1.419 1_554 S
N770 C767 1.384 . S
N771 C763 1.421 1_556 S
N771 C769 1.384 . S
H772 C778 0.930 . S
H773 C782 0.930 . S
H774 C787 0.929 . S
H775 C785 0.929 . S
H776 C780 0.929 . S
H777 C786 0.929 . S
C778 H772 0.930 . S
C778 C779 1.367 . S
C778 C786 1.378 . S
C779 C778 1.367 . S
C779 C787 1.433 . S
C780 H776 0.929 . S
C780 C782 1.378 . S
C780 C784 1.350 . S
C781 C784 1.463 . S
C781 C786 1.350 . S
C781 N789 1.427 . S
C782 H773 0.930 . S
C782 C780 1.378 . S
C782 C783 1.367 . S
C783 C782 1.367 . S
C783 C785 1.433 . S
C784 C780 1.350 . S
C784 C781 1.463 . S
C784 N788 1.427 . S
C785 H775 0.929 . S
C785 C783 1.433 . S
C785 N788 1.384 . S
C786 H777 0.929 . S
C786 C778 1.378 . S
C786 C781 1.350 . S
C787 H774 0.929 . S
C787 C779 1.433 . S
C787 N789 1.384 . S
N788 C784 1.427 . S
N788 C785 1.384 . S
N789 C781 1.427 . S
N789 C787 1.384 . S
H790 C796 0.930 . S
H791 C800 0.930 . S
H792 C805 0.929 . S
H793 C803 0.929 . S
H794 C798 0.929 . S
H795 C804 0.929 . S
C796 H790 0.930 . S
C796 C797 1.367 . S
C796 C804 1.378 . S
C797 C796 1.367 . S
C797 C805 1.433 . S
C798 H794 0.929 . S
C798 C800 1.378 . S
C798 C802 1.350 . S
C799 C802 1.463 1_565 S
C799 C804 1.350 . S
C799 N807 1.427 . S
C800 H791 0.930 . S
C800 C798 1.378 . S
C800 C801 1.367 . S
C801 C800 1.367 . S
C801 C803 1.433 . S
C802 C798 1.350 . S
C802 C799 1.463 1_545 S
C802 N806 1.427 . S
C803 H793 0.929 . S
C803 C801 1.433 . S
C803 N806 1.384 . S
C804 H795 0.929 . S
C804 C796 1.378 . S
C804 C799 1.350 . S
C805 H792 0.929 . S
C805 C797 1.433 . S
C805 N807 1.384 . S
N806 C802 1.427 . S
N806 C803 1.384 . S
N807 C799 1.427 . S
N807 C805 1.384 . S
H808 C814 0.930 . S
H809 C818 0.930 . S
H810 C823 0.929 . S
H811 C821 0.929 . S
H812 C816 0.929 . S
H813 C822 0.929 . S
C814 H808 0.930 . S
C814 C815 1.360 1_556 S
C814 C822 1.378 . S
C815 C814 1.360 1_554 S
C815 C823 1.440 . S
C816 H812 0.929 . S
C816 C818 1.378 . S
C816 C820 1.368 . S
C817 C820 1.462 1_556 S
C817 C822 1.365 . S
C817 N825 1.412 1_556 S
C818 H809 0.930 . S
C818 C816 1.378 . S
C818 C819 1.363 1_554 S
C819 C818 1.363 1_556 S
C819 C821 1.437 . S
C820 C816 1.368 . S
C820 C817 1.462 1_554 S
C820 N824 1.409 1_554 S
C821 H811 0.929 . S
C821 C819 1.437 . S
C821 N824 1.384 . S
C822 H813 0.929 . S
C822 C814 1.378 . S
C822 C817 1.365 . S
C823 H810 0.929 . S
C823 C815 1.440 . S
C823 N825 1.384 . S
N824 C820 1.409 1_556 S
N824 C821 1.384 . S
N825 C817 1.412 1_554 S
N825 C823 1.384 . S
H826 C832 0.930 . S
H827 C836 0.930 . S
H828 C841 0.929 . S
H829 C839 0.929 . S
H830 C834 0.929 . S
H831 C840 0.929 . S
C832 H826 0.930 . S
C832 C833 1.367 . S
C832 C840 1.378 . S
C833 C832 1.367 . S
C833 C841 1.433 . S
C834 H830 0.929 . S
C834 C836 1.378 . S
C834 C838 1.350 . S
C835 C838 1.463 . S
C835 C840 1.350 . S
C835 N843 1.427 . S
C836 H827 0.930 . S
C836 C834 1.378 . S
C836 C837 1.367 . S
C837 C836 1.367 . S
C837 C839 1.433 . S
C838 C834 1.350 . S
C838 C835 1.463 . S
C838 N842 1.427 . S
C839 H829 0.929 . S
C839 C837 1.433 . S
C839 N842 1.384 . S
C840 H831 0.929 . S
C840 C832 1.378 . S
C840 C835 1.350 . S
C841 H828 0.929 . S
C841 C833 1.433 . S
C841 N843 1.384 . S
N842 C838 1.427 . S
N842 C839 1.384 . S
N843 C835 1.427 . S
N843 C841 1.384 . S
H844 C850 0.930 . S
H845 C854 0.930 . S
H846 C859 0.929 . S
H847 C857 0.929 . S
H848 C852 0.929 . S
H849 C858 0.929 . S
C850 H844 0.930 . S
C850 C851 1.367 . S
C850 C858 1.378 . S
C851 C850 1.367 . S
C851 C859 1.433 . S
C852 H848 0.929 . S
C852 C854 1.378 . S
C852 C856 1.350 . S
C853 C856 1.463 1_565 S
C853 C858 1.350 . S
C853 N861 1.427 . S
C854 H845 0.930 . S
C854 C852 1.378 . S
C854 C855 1.367 . S
C855 C854 1.367 . S
C855 C857 1.433 . S
C856 C852 1.350 . S
C856 C853 1.463 1_545 S
C856 N860 1.427 . S
C857 H847 0.929 . S
C857 C855 1.433 . S
C857 N860 1.384 . S
C858 H849 0.929 . S
C858 C850 1.378 . S
C858 C853 1.350 . S
C859 H846 0.929 . S
C859 C851 1.433 . S
C859 N861 1.384 . S
N860 C856 1.427 . S
N860 C857 1.384 . S
N861 C853 1.427 . S
N861 C859 1.384 . S
H862 C868 0.930 . S
H863 C872 0.930 . S
H864 C877 0.929 . S
H865 C875 0.929 . S
H866 C870 0.929 . S
H867 C876 0.929 . S
C868 H862 0.930 . S
C868 C869 1.367 . S
C868 C876 1.378 . S
C869 C868 1.367 . S
C869 C877 1.433 . S
C870 H866 0.929 . S
C870 C872 1.378 . S
C870 C874 1.350 . S
C871 C874 1.463 . S
C871 C876 1.350 . S
C871 N879 1.427 . S
C872 H863 0.930 . S
C872 C870 1.378 . S
C872 C873 1.367 . S
C873 C872 1.367 . S
C873 C875 1.433 . S
C874 C870 1.350 . S
C874 C871 1.463 . S
C874 N878 1.427 . S
C875 H865 0.929 . S
C875 C873 1.433 . S
C875 N878 1.384 . S
C876 H867 0.929 . S
C876 C868 1.378 . S
C876 C871 1.350 . S
C877 H864 0.929 . S
C877 C869 1.433 . S
C877 N879 1.384 . S
N878 C874 1.427 . S
N878 C875 1.384 . S
N879 C871 1.427 . S
N879 C877 1.384 . S
H880 C886 0.930 . S
H881 C890 0.930 . S
H882 C895 0.929 . S
H883 C893 0.929 . S
H884 C888 0.929 . S
H885 C894 0.929 . S
C886 H880 0.930 . S
C886 C887 1.367 . S
C886 C894 1.378 . S
C887 C886 1.367 . S
C887 C895 1.433 . S
C888 H884 0.929 . S
C888 C890 1.378 . S
C888 C892 1.350 . S
C889 C892 1.463 . S
C889 C894 1.350 . S
C889 N897 1.427 . S
C890 H881 0.930 . S
C890 C888 1.378 . S
C890 C891 1.367 . S
C891 C890 1.367 . S
C891 C893 1.433 . S
C892 C888 1.350 . S
C892 C889 1.463 . S
C892 N896 1.427 . S
C893 H883 0.929 . S
C893 C891 1.433 . S
C893 N896 1.384 . S
C894 H885 0.929 . S
C894 C886 1.378 . S
C894 C889 1.350 . S
C895 H882 0.929 . S
C895 C887 1.433 . S
C895 N897 1.384 . S
N896 C892 1.427 . S
N896 C893 1.384 . S
N897 C889 1.427 . S
N897 C895 1.384 . S
H898 C904 0.930 . S
H899 C908 0.930 . S
H900 C913 0.929 . S
H901 C911 0.929 . S
H902 C906 0.929 . S
H903 C912 0.929 . S
C904 H898 0.930 . S
C904 C905 1.367 . S
C904 C912 1.378 . S
C905 C904 1.367 . S
C905 C913 1.433 . S
C906 H902 0.929 . S
C906 C908 1.378 . S
C906 C910 1.350 . S
C907 C910 1.463 . S
C907 C912 1.350 . S
C907 N915 1.427 . S
C908 H899 0.930 . S
C908 C906 1.378 . S
C908 C909 1.367 . S
C909 C908 1.367 . S
C909 C911 1.433 . S
C910 C906 1.350 . S
C910 C907 1.463 . S
C910 N914 1.427 . S
C911 H901 0.929 . S
C911 C909 1.433 . S
C911 N914 1.384 . S
C912 H903 0.929 . S
C912 C904 1.378 . S
C912 C907 1.350 . S
C913 H900 0.929 . S
C913 C905 1.433 . S
C913 N915 1.384 . S
N914 C910 1.427 . S
N914 C911 1.384 . S
N915 C907 1.427 . S
N915 C913 1.384 . S
H916 C922 0.930 . S
H917 C926 0.930 . S
H918 C931 0.929 . S
H919 C929 0.929 . S
H920 C924 0.929 . S
H921 C930 0.929 . S
C922 H916 0.930 . S
C922 C923 1.367 . S
C922 C930 1.378 . S
C923 C922 1.367 . S
C923 C931 1.433 . S
C924 H920 0.929 . S
C924 C926 1.378 . S
C924 C928 1.350 . S
C925 C928 1.463 . S
C925 C930 1.350 . S
C925 N933 1.427 . S
C926 H917 0.930 . S
C926 C924 1.378 . S
C926 C927 1.367 . S
C927 C926 1.367 . S
C927 C929 1.433 . S
C928 C924 1.350 . S
C928 C925 1.463 . S
C928 N932 1.427 . S
C929 H919 0.929 . S
C929 C927 1.433 . S
C929 N932 1.384 . S
C930 H921 0.929 . S
C930 C922 1.378 . S
C930 C925 1.350 . S
C931 H918 0.929 . S
C931 C923 1.433 . S
C931 N933 1.384 . S
N932 C928 1.427 . S
N932 C929 1.384 . S
N933 C925 1.427 . S
N933 C931 1.384 . S
H934 C940 0.930 . S
H935 C944 0.930 . S
H936 C949 0.929 . S
H937 C947 0.929 . S
H938 C942 0.929 . S
H939 C948 0.929 . S
C940 H934 0.930 . S
C940 C941 1.367 . S
C940 C948 1.378 . S
C941 C940 1.367 . S
C941 C949 1.433 . S
C942 H938 0.929 . S
C942 C944 1.378 . S
C942 C946 1.350 . S
C943 C946 1.463 . S
C943 C948 1.350 . S
C943 N951 1.427 . S
C944 H935 0.930 . S
C944 C942 1.378 . S
C944 C945 1.367 . S
C945 C944 1.367 . S
C945 C947 1.433 . S
C946 C942 1.350 . S
C946 C943 1.463 . S
C946 N950 1.427 . S
C947 H937 0.929 . S
C947 C945 1.433 . S
C947 N950 1.384 . S
C948 H939 0.929 . S
C948 C940 1.378 . S
C948 C943 1.350 . S
C949 H936 0.929 . S
C949 C941 1.433 . S
C949 N951 1.384 . S
N950 C946 1.427 . S
N950 C947 1.384 . S
N951 C943 1.427 . S
N951 C949 1.384 . S
H952 C958 0.930 . S
H953 C962 0.930 . S
H954 C967 0.929 . S
H955 C965 0.929 . S
H956 C960 0.929 . S
H957 C966 0.929 . S
C958 H952 0.930 . S
C958 C959 1.367 . S
C958 C966 1.378 . S
C959 C958 1.367 . S
C959 C967 1.433 1_655 S
C960 H956 0.929 . S
C960 C962 1.378 . S
C960 C964 1.350 . S
C961 C964 1.463 1_665 S
C961 C966 1.350 . S
C961 N969 1.427 1_655 S
C962 H953 0.930 . S
C962 C960 1.378 . S
C962 C963 1.367 . S
C963 C962 1.367 . S
C963 C965 1.433 1_455 S
C964 C960 1.350 . S
C964 C961 1.463 1_445 S
C964 N968 1.427 1_455 S
C965 H955 0.929 . S
C965 C963 1.433 1_655 S
C965 N968 1.384 . S
C966 H957 0.929 . S
C966 C958 1.378 . S
C966 C961 1.350 . S
C967 H954 0.929 . S
C967 C959 1.433 1_455 S
C967 N969 1.384 . S
N968 C964 1.427 1_655 S
N968 C965 1.384 . S
N969 C961 1.427 1_455 S
N969 C967 1.384 . S
H970 C976 0.930 . S
H971 C980 0.930 . S
H972 C985 0.929 . S
H973 C983 0.929 . S
H974 C978 0.929 . S
H975 C984 0.929 . S
C976 H970 0.930 . S
C976 C977 1.367 1_655 S
C976 C984 1.378 . S
C977 C976 1.367 1_455 S
C977 C985 1.433 . S
C978 H974 0.929 . S
C978 C980 1.378 . S
C978 C982 1.350 1_455 S
C979 C982 1.463 1_455 S
C979 C984 1.350 1_455 S
C979 N987 1.427 . S
C980 H971 0.930 . S
C980 C978 1.378 . S
C980 C981 1.367 1_455 S
C981 C980 1.367 1_655 S
C981 C983 1.433 . S
C982 C978 1.350 1_655 S
C982 C979 1.463 1_655 S
C982 N986 1.427 . S
C983 H973 0.929 . S
C983 C981 1.433 . S
C983 N986 1.384 . S
C984 H975 0.929 . S
C984 C976 1.378 . S
C984 C979 1.350 1_655 S
C985 H972 0.929 . S
C985 C977 1.433 . S
C985 N987 1.384 . S
N986 C982 1.427 . S
N986 C983 1.384 . S
N987 C979 1.427 . S
N987 C985 1.384 . S
H988 C994 0.930 . S
H989 C998 0.930 . S
H990 C1003 0.929 . S
H991 C1001 0.929 . S
H992 C996 0.929 . S
H993 C1002 0.929 . S
C994 H988 0.930 . S
C994 C995 1.367 1_455 S
C994 C1002 1.378 . S
C995 C994 1.367 1_655 S
C995 C1003 1.433 . S
C996 H992 0.929 . S
C996 C998 1.378 . S
C996 C1000 1.350 1_655 S
C997 C1000 1.463 1_655 S
C997 C1002 1.350 1_655 S
C997 N1005 1.427 . S
C998 H989 0.930 . S
C998 C996 1.378 . S
C998 C999 1.367 1_655 S
C999 C998 1.367 1_455 S
C999 C1001 1.433 . S
C1000 C996 1.350 1_455 S
C1000 C997 1.463 1_455 S
C1000 N1004 1.427 . S
C1001 H991 0.929 . S
C1001 C999 1.433 . S
C1001 N1004 1.384 . S
C1002 H993 0.929 . S
C1002 C994 1.378 . S
C1002 C997 1.350 1_455 S
C1003 H990 0.929 . S
C1003 C995 1.433 . S
C1003 N1005 1.384 . S
N1004 C1000 1.427 . S
N1004 C1001 1.384 . S
N1005 C997 1.427 . S
N1005 C1003 1.384 . S
H1006 C1012 0.930 . S
H1007 C1016 0.930 . S
H1008 C1021 0.929 . S
H1009 C1019 0.929 . S
H1010 C1014 0.929 . S
H1011 C1020 0.929 . S
C1012 H1006 0.930 . S
C1012 C1013 1.359 1_454 S
C1012 C1020 1.378 . S
C1013 C1012 1.359 1_656 S
C1013 C1021 1.441 . S
C1014 H1010 0.929 . S
C1014 C1016 1.378 . S
C1014 C1018 1.354 1_655 S
C1015 C1018 1.462 1_654 S
C1015 C1020 1.354 1_655 S
C1015 N1023 1.423 1_554 S
C1016 H1007 0.930 . S
C1016 C1014 1.378 . S
C1016 C1017 1.359 1_656 S
C1017 C1016 1.359 1_454 S
C1017 C1019 1.441 . S
C1018 C1014 1.354 1_455 S
C1018 C1015 1.462 1_456 S
C1018 N1022 1.423 1_556 S
C1019 H1009 0.929 . S
C1019 C1017 1.441 . S
C1019 N1022 1.384 . S
C1020 H1011 0.929 . S
C1020 C1012 1.378 . S
C1020 C1015 1.354 1_455 S
C1021 H1008 0.929 . S
C1021 C1013 1.441 . S
C1021 N1023 1.384 . S
N1022 C1018 1.423 1_554 S
N1022 C1019 1.384 . S
N1023 C1015 1.423 1_556 S
N1023 C1021 1.384 . S
H1024 C1030 0.930 . S
H1025 C1034 0.930 . S
H1026 C1039 0.929 . S
H1027 C1037 0.929 . S
H1028 C1032 0.929 . S
H1029 C1038 0.929 . S
C1030 H1024 0.930 . S
C1030 C1031 1.367 . S
C1030 C1038 1.378 . S
C1031 C1030 1.367 . S
C1031 C1039 1.433 . S
C1032 H1028 0.929 . S
C1032 C1034 1.378 . S
C1032 C1036 1.350 . S
C1033 C1036 1.463 . S
C1033 C1038 1.350 . S
C1033 N1041 1.427 . S
C1034 H1025 0.930 . S
C1034 C1032 1.378 . S
C1034 C1035 1.367 . S
C1035 C1034 1.367 . S
C1035 C1037 1.433 . S
C1036 C1032 1.350 . S
C1036 C1033 1.463 . S
C1036 N1040 1.427 . S
C1037 H1027 0.929 . S
C1037 C1035 1.433 . S
C1037 N1040 1.384 . S
C1038 H1029 0.929 . S
C1038 C1030 1.378 . S
C1038 C1033 1.350 . S
C1039 H1026 0.929 . S
C1039 C1031 1.433 . S
C1039 N1041 1.384 . S
N1040 C1036 1.427 . S
N1040 C1037 1.384 . S
N1041 C1033 1.427 . S
N1041 C1039 1.384 . S
H1042 C1048 0.930 . S
H1043 C1052 0.930 . S
H1044 C1057 0.929 . S
H1045 C1055 0.929 . S
H1046 C1050 0.929 . S
H1047 C1056 0.929 . S
C1048 H1042 0.930 . S
C1048 C1049 1.367 . S
C1048 C1056 1.378 . S
C1049 C1048 1.367 . S
C1049 C1057 1.433 . S
C1050 H1046 0.929 . S
C1050 C1052 1.378 . S
C1050 C1054 1.350 . S
C1051 C1054 1.463 . S
C1051 C1056 1.350 . S
C1051 N1059 1.427 . S
C1052 H1043 0.930 . S
C1052 C1050 1.378 . S
C1052 C1053 1.367 . S
C1053 C1052 1.367 . S
C1053 C1055 1.433 . S
C1054 C1050 1.350 . S
C1054 C1051 1.463 . S
C1054 N1058 1.427 . S
C1055 H1045 0.929 . S
C1055 C1053 1.433 . S
C1055 N1058 1.384 . S
C1056 H1047 0.929 . S
C1056 C1048 1.378 . S
C1056 C1051 1.350 . S
C1057 H1044 0.929 . S
C1057 C1049 1.433 . S
C1057 N1059 1.384 . S
N1058 C1054 1.427 . S
N1058 C1055 1.384 . S
N1059 C1051 1.427 . S
N1059 C1057 1.384 . S
H1060 C1066 0.930 . S
H1061 C1070 0.930 . S
H1062 C1075 0.929 . S
H1063 C1073 0.929 . S
H1064 C1068 0.929 . S
H1065 C1074 0.929 . S
C1066 H1060 0.930 . S
C1066 C1067 1.367 . S
C1066 C1074 1.378 . S
C1067 C1066 1.367 . S
C1067 C1075 1.433 . S
C1068 H1064 0.929 . S
C1068 C1070 1.378 . S
C1068 C1072 1.350 . S
C1069 C1072 1.463 . S
C1069 C1074 1.350 . S
C1069 N1077 1.427 . S
C1070 H1061 0.930 . S
C1070 C1068 1.378 . S
C1070 C1071 1.367 . S
C1071 C1070 1.367 . S
C1071 C1073 1.433 . S
C1072 C1068 1.350 . S
C1072 C1069 1.463 . S
C1072 N1076 1.427 . S
C1073 H1063 0.929 . S
C1073 C1071 1.433 . S
C1073 N1076 1.384 . S
C1074 H1065 0.929 . S
C1074 C1066 1.378 . S
C1074 C1069 1.350 . S
C1075 H1062 0.929 . S
C1075 C1067 1.433 . S
C1075 N1077 1.384 . S
N1076 C1072 1.427 . S
N1076 C1073 1.384 . S
N1077 C1069 1.427 . S
N1077 C1075 1.384 . S
H1078 C1084 0.930 . S
H1079 C1088 0.930 . S
H1080 C1093 0.929 . S
H1081 C1091 0.929 . S
H1082 C1086 0.929 . S
H1083 C1092 0.929 . S
C1084 H1078 0.930 . S
C1084 C1085 1.367 . S
C1084 C1092 1.378 . S
C1085 C1084 1.367 . S
C1085 C1093 1.433 . S
C1086 H1082 0.929 . S
C1086 C1088 1.378 . S
C1086 C1090 1.350 . S
C1087 C1090 1.463 . S
C1087 C1092 1.350 . S
C1087 N1095 1.427 . S
C1088 H1079 0.930 . S
C1088 C1086 1.378 . S
C1088 C1089 1.367 . S
C1089 C1088 1.367 . S
C1089 C1091 1.433 . S
C1090 C1086 1.350 . S
C1090 C1087 1.463 . S
C1090 N1094 1.427 . S
C1091 H1081 0.929 . S
C1091 C1089 1.433 . S
C1091 N1094 1.384 . S
C1092 H1083 0.929 . S
C1092 C1084 1.378 . S
C1092 C1087 1.350 . S
C1093 H1080 0.929 . S
C1093 C1085 1.433 . S
C1093 N1095 1.384 . S
N1094 C1090 1.427 . S
N1094 C1091 1.384 . S
N1095 C1087 1.427 . S
N1095 C1093 1.384 . S
H1096 C1102 0.930 . S
H1097 C1106 0.930 . S
H1098 C1111 0.929 . S
H1099 C1109 0.929 . S
H1100 C1104 0.929 . S
H1101 C1110 0.929 . S
C1102 H1096 0.930 . S
C1102 C1103 1.367 . S
C1102 C1110 1.378 . S
C1103 C1102 1.367 . S
C1103 C1111 1.433 . S
C1104 H1100 0.929 . S
C1104 C1106 1.378 . S
C1104 C1108 1.350 . S
C1105 C1108 1.463 . S
C1105 C1110 1.350 . S
C1105 N1113 1.427 . S
C1106 H1097 0.930 . S
C1106 C1104 1.378 . S
C1106 C1107 1.367 . S
C1107 C1106 1.367 . S
C1107 C1109 1.433 . S
C1108 C1104 1.350 . S
C1108 C1105 1.463 . S
C1108 N1112 1.427 . S
C1109 H1099 0.929 . S
C1109 C1107 1.433 . S
C1109 N1112 1.384 . S
C1110 H1101 0.929 . S
C1110 C1102 1.378 . S
C1110 C1105 1.350 . S
C1111 H1098 0.929 . S
C1111 C1103 1.433 . S
C1111 N1113 1.384 . S
N1112 C1108 1.427 . S
N1112 C1109 1.384 . S
N1113 C1105 1.427 . S
N1113 C1111 1.384 . S
H1114 C1120 0.930 . S
H1115 C1124 0.930 . S
H1116 C1129 0.929 . S
H1117 C1127 0.929 . S
H1118 C1122 0.929 . S
H1119 C1128 0.929 . S
C1120 H1114 0.930 . S
C1120 C1121 1.367 . S
C1120 C1128 1.378 . S
C1121 C1120 1.367 . S
C1121 C1129 1.433 . S
C1122 H1118 0.929 . S
C1122 C1124 1.378 . S
C1122 C1126 1.350 . S
C1123 C1126 1.463 . S
C1123 C1128 1.350 . S
C1123 N1131 1.427 . S
C1124 H1115 0.930 . S
C1124 C1122 1.378 . S
C1124 C1125 1.367 . S
C1125 C1124 1.367 . S
C1125 C1127 1.433 . S
C1126 C1122 1.350 . S
C1126 C1123 1.463 . S
C1126 N1130 1.427 . S
C1127 H1117 0.929 . S
C1127 C1125 1.433 . S
C1127 N1130 1.384 . S
C1128 H1119 0.929 . S
C1128 C1120 1.378 . S
C1128 C1123 1.350 . S
C1129 H1116 0.929 . S
C1129 C1121 1.433 . S
C1129 N1131 1.384 . S
N1130 C1126 1.427 . S
N1130 C1127 1.384 . S
N1131 C1123 1.427 . S
N1131 C1129 1.384 . S
H1132 C1138 0.930 . S
H1133 C1142 0.930 . S
H1134 C1147 0.929 . S
H1135 C1145 0.929 . S
H1136 C1140 0.929 . S
H1137 C1146 0.929 . S
C1138 H1132 0.930 . S
C1138 C1139 1.367 . S
C1138 C1146 1.378 . S
C1139 C1138 1.367 . S
C1139 C1147 1.433 . S
C1140 H1136 0.929 . S
C1140 C1142 1.378 . S
C1140 C1144 1.350 . S
C1141 C1144 1.463 . S
C1141 C1146 1.350 . S
C1141 N1149 1.427 . S
C1142 H1133 0.930 . S
C1142 C1140 1.378 . S
C1142 C1143 1.367 . S
C1143 C1142 1.367 . S
C1143 C1145 1.433 . S
C1144 C1140 1.350 . S
C1144 C1141 1.463 . S
C1144 N1148 1.427 . S
C1145 H1135 0.929 . S
C1145 C1143 1.433 . S
C1145 N1148 1.384 . S
C1146 H1137 0.929 . S
C1146 C1138 1.378 . S
C1146 C1141 1.350 . S
C1147 H1134 0.929 . S
C1147 C1139 1.433 . S
C1147 N1149 1.384 . S
N1148 C1144 1.427 . S
N1148 C1145 1.384 . S
N1149 C1141 1.427 . S
N1149 C1147 1.384 . S
H1150 C1156 0.930 . S
H1151 C1160 0.930 . S
H1152 C1165 0.929 . S
H1153 C1163 0.929 . S
H1154 C1158 0.929 . S
H1155 C1164 0.929 . S
C1156 H1150 0.930 . S
C1156 C1157 1.367 . S
C1156 C1164 1.378 . S
C1157 C1156 1.367 . S
C1157 C1165 1.433 . S
C1158 H1154 0.929 . S
C1158 C1160 1.378 . S
C1158 C1162 1.350 . S
C1159 C1162 1.463 . S
C1159 C1164 1.350 . S
C1159 N1167 1.427 . S
C1160 H1151 0.930 . S
C1160 C1158 1.378 . S
C1160 C1161 1.367 . S
C1161 C1160 1.367 . S
C1161 C1163 1.433 . S
C1162 C1158 1.350 . S
C1162 C1159 1.463 . S
C1162 N1166 1.427 . S
C1163 H1153 0.929 . S
C1163 C1161 1.433 . S
C1163 N1166 1.384 . S
C1164 H1155 0.929 . S
C1164 C1156 1.378 . S
C1164 C1159 1.350 . S
C1165 H1152 0.929 . S
C1165 C1157 1.433 . S
C1165 N1167 1.384 . S
N1166 C1162 1.427 . S
N1166 C1163 1.384 . S
N1167 C1159 1.427 . S
N1167 C1165 1.384 . S
H1168 C1174 0.930 . S
H1169 C1178 0.930 . S
H1170 C1183 0.929 . S
H1171 C1181 0.929 . S
H1172 C1176 0.929 . S
H1173 C1182 0.929 . S
C1174 H1168 0.930 . S
C1174 C1175 1.367 . S
C1174 C1182 1.378 . S
C1175 C1174 1.367 . S
C1175 C1183 1.433 . S
C1176 H1172 0.929 . S
C1176 C1178 1.378 . S
C1176 C1180 1.350 . S
C1177 C1180 1.463 . S
C1177 C1182 1.350 . S
C1177 N1185 1.427 . S
C1178 H1169 0.930 . S
C1178 C1176 1.378 . S
C1178 C1179 1.367 . S
C1179 C1178 1.367 . S
C1179 C1181 1.433 . S
C1180 C1176 1.350 . S
C1180 C1177 1.463 . S
C1180 N1184 1.427 . S
C1181 H1171 0.929 . S
C1181 C1179 1.433 . S
C1181 N1184 1.384 . S
C1182 H1173 0.929 . S
C1182 C1174 1.378 . S
C1182 C1177 1.350 . S
C1183 H1170 0.929 . S
C1183 C1175 1.433 . S
C1183 N1185 1.384 . S
N1184 C1180 1.427 . S
N1184 C1181 1.384 . S
N1185 C1177 1.427 . S
N1185 C1183 1.384 . S
H1186 C1192 0.930 . S
H1187 C1196 0.930 . S
H1188 C1201 0.929 . S
H1189 C1199 0.929 . S
H1190 C1194 0.929 . S
H1191 C1200 0.929 . S
C1192 H1186 0.930 . S
C1192 C1193 1.367 . S
C1192 C1200 1.378 . S
C1193 C1192 1.367 . S
C1193 C1201 1.433 . S
C1194 H1190 0.929 . S
C1194 C1196 1.378 . S
C1194 C1198 1.350 . S
C1195 C1198 1.463 . S
C1195 C1200 1.350 . S
C1195 N1203 1.427 . S
C1196 H1187 0.930 . S
C1196 C1194 1.378 . S
C1196 C1197 1.367 . S
C1197 C1196 1.367 . S
C1197 C1199 1.433 . S
C1198 C1194 1.350 . S
C1198 C1195 1.463 . S
C1198 N1202 1.427 . S
C1199 H1189 0.929 . S
C1199 C1197 1.433 . S
C1199 N1202 1.384 . S
C1200 H1191 0.929 . S
C1200 C1192 1.378 . S
C1200 C1195 1.350 . S
C1201 H1188 0.929 . S
C1201 C1193 1.433 . S
C1201 N1203 1.384 . S
N1202 C1198 1.427 . S
N1202 C1199 1.384 . S
N1203 C1195 1.427 . S
N1203 C1201 1.384 . S
H1204 C1210 0.930 . S
H1205 C1214 0.930 . S
H1206 C1219 0.929 . S
H1207 C1217 0.929 . S
H1208 C1212 0.929 . S
H1209 C1218 0.929 . S
C1210 H1204 0.930 . S
C1210 C1211 1.367 . S
C1210 C1218 1.378 . S
C1211 C1210 1.367 . S
C1211 C1219 1.433 . S
C1212 H1208 0.929 . S
C1212 C1214 1.378 . S
C1212 C1216 1.350 . S
C1213 C1216 1.463 . S
C1213 C1218 1.350 . S
C1213 N1221 1.427 . S
C1214 H1205 0.930 . S
C1214 C1212 1.378 . S
C1214 C1215 1.367 . S
C1215 C1214 1.367 . S
C1215 C1217 1.433 . S
C1216 C1212 1.350 . S
C1216 C1213 1.463 . S
C1216 N1220 1.427 . S
C1217 H1207 0.929 . S
C1217 C1215 1.433 . S
C1217 N1220 1.384 . S
C1218 H1209 0.929 . S
C1218 C1210 1.378 . S
C1218 C1213 1.350 . S
C1219 H1206 0.929 . S
C1219 C1211 1.433 . S
C1219 N1221 1.384 . S
N1220 C1216 1.427 . S
N1220 C1217 1.384 . S
N1221 C1213 1.427 . S
N1221 C1219 1.384 . S
H1222 C1228 0.932 . S
H1223 C1232 0.930 . S
H1224 C1237 0.929 . S
H1225 C1235 0.929 . S
H1226 C1230 0.929 . S
H1227 C1236 0.929 . S
C1228 H1222 0.932 . S
C1228 C1229 1.367 . S
C1228 C1236 1.378 . S
C1229 C1228 1.367 . S
C1229 C1237 1.433 . S
C1230 H1226 0.929 . S
C1230 C1232 1.378 . S
C1230 C1234 1.350 . S
C1231 C1234 1.463 . S
C1231 C1236 1.350 . S
C1231 N1239 1.427 . S
C1232 H1223 0.930 . S
C1232 C1230 1.378 . S
C1232 C1233 1.367 . S
C1233 C1232 1.367 . S
C1233 C1235 1.433 . S
C1234 C1230 1.350 . S
C1234 C1231 1.463 . S
C1234 N1238 1.427 . S
C1235 H1225 0.929 . S
C1235 C1233 1.433 . S
C1235 N1238 1.384 . S
C1236 H1227 0.929 . S
C1236 C1228 1.378 . S
C1236 C1231 1.350 . S
C1237 H1224 0.929 . S
C1237 C1229 1.433 . S
C1237 N1239 1.384 . S
N1238 C1234 1.427 . S
N1238 C1235 1.384 . S
N1239 C1231 1.427 . S
N1239 C1237 1.384 . S
H1240 C1246 0.930 . S
H1241 C1250 0.930 . S
H1242 C1255 0.929 . S
H1243 C1253 0.929 . S
H1244 C1248 0.929 . S
H1245 C1254 0.929 . S
C1246 H1240 0.930 . S
C1246 C1247 1.367 . S
C1246 C1254 1.378 . S
C1247 C1246 1.367 . S
C1247 C1255 1.433 . S
C1248 H1244 0.929 . S
C1248 C1250 1.378 . S
C1248 C1252 1.350 . S
C1249 C1252 1.463 . S
C1249 C1254 1.350 . S
C1249 N1257 1.427 . S
C1250 H1241 0.930 . S
C1250 C1248 1.378 . S
C1250 C1251 1.367 . S
C1251 C1250 1.367 . S
C1251 C1253 1.433 . S
C1252 C1248 1.350 . S
C1252 C1249 1.463 . S
C1252 N1256 1.427 . S
C1253 H1243 0.929 . S
C1253 C1251 1.433 . S
C1253 N1256 1.384 . S
C1254 H1245 0.929 . S
C1254 C1246 1.378 . S
C1254 C1249 1.350 . S
C1255 H1242 0.929 . S
C1255 C1247 1.433 . S
C1255 N1257 1.384 . S
N1256 C1252 1.427 . S
N1256 C1253 1.384 . S
N1257 C1249 1.427 . S
N1257 C1255 1.384 . S
H1258 C1264 0.930 . S
H1259 C1268 0.930 . S
H1260 C1273 0.929 . S
H1261 C1271 0.929 . S
H1262 C1266 0.929 . S
H1263 C1272 0.929 . S
C1264 H1258 0.930 . S
C1264 C1265 1.367 . S
C1264 C1272 1.378 . S
C1265 C1264 1.367 . S
C1265 C1273 1.433 . S
C1266 H1262 0.929 . S
C1266 C1268 1.378 . S
C1266 C1270 1.350 . S
C1267 C1270 1.463 . S
C1267 C1272 1.350 . S
C1267 N1275 1.427 . S
C1268 H1259 0.930 . S
C1268 C1266 1.378 . S
C1268 C1269 1.367 . S
C1269 C1268 1.367 . S
C1269 C1271 1.433 . S
C1270 C1266 1.350 . S
C1270 C1267 1.463 . S
C1270 N1274 1.427 . S
C1271 H1261 0.929 . S
C1271 C1269 1.433 . S
C1271 N1274 1.384 . S
C1272 H1263 0.929 . S
C1272 C1264 1.378 . S
C1272 C1267 1.350 . S
C1273 H1260 0.929 . S
C1273 C1265 1.433 . S
C1273 N1275 1.384 . S
N1274 C1270 1.427 . S
N1274 C1271 1.384 . S
N1275 C1267 1.427 . S
N1275 C1273 1.384 . S
H1276 C1282 0.930 . S
H1277 C1286 0.930 . S
H1278 C1291 0.929 . S
H1279 C1289 0.929 . S
H1280 C1284 0.929 . S
H1281 C1290 0.929 . S
C1282 H1276 0.930 . S
C1282 C1283 1.367 . S
C1282 C1290 1.378 . S
C1283 C1282 1.367 . S
C1283 C1291 1.433 . S
C1284 H1280 0.929 . S
C1284 C1286 1.378 . S
C1284 C1288 1.350 . S
C1285 C1288 1.463 . S
C1285 C1290 1.350 . S
C1285 N1293 1.427 . S
C1286 H1277 0.930 . S
C1286 C1284 1.378 . S
C1286 C1287 1.367 . S
C1287 C1286 1.367 . S
C1287 C1289 1.433 . S
C1288 C1284 1.350 . S
C1288 C1285 1.463 . S
C1288 N1292 1.427 . S
C1289 H1279 0.929 . S
C1289 C1287 1.433 . S
C1289 N1292 1.384 . S
C1290 H1281 0.929 . S
C1290 C1282 1.378 . S
C1290 C1285 1.350 . S
C1291 H1278 0.929 . S
C1291 C1283 1.433 . S
C1291 N1293 1.384 . S
N1292 C1288 1.427 . S
N1292 C1289 1.384 . S
N1293 C1285 1.427 . S
N1293 C1291 1.384 . S
H1294 C1300 0.930 . S
H1295 C1304 0.930 . S
H1296 C1309 0.929 . S
H1297 C1307 0.929 . S
H1298 C1302 0.929 . S
H1299 C1308 0.929 . S
C1300 H1294 0.930 . S
C1300 C1301 1.367 . S
C1300 C1308 1.378 . S
C1301 C1300 1.367 . S
C1301 C1309 1.433 . S
C1302 H1298 0.929 . S
C1302 C1304 1.378 . S
C1302 C1306 1.350 . S
C1303 C1306 1.463 . S
C1303 C1308 1.350 . S
C1303 N1311 1.427 . S
C1304 H1295 0.930 . S
C1304 C1302 1.378 . S
C1304 C1305 1.367 . S
C1305 C1304 1.367 . S
C1305 C1307 1.433 . S
C1306 C1302 1.350 . S
C1306 C1303 1.463 . S
C1306 N1310 1.427 . S
C1307 H1297 0.929 . S
C1307 C1305 1.433 . S
C1307 N1310 1.384 . S
C1308 H1299 0.929 . S
C1308 C1300 1.378 . S
C1308 C1303 1.350 . S
C1309 H1296 0.929 . S
C1309 C1301 1.433 . S
C1309 N1311 1.384 . S
N1310 C1306 1.427 . S
N1310 C1307 1.384 . S
N1311 C1303 1.427 . S
N1311 C1309 1.384 . S
H1312 C1318 0.930 . S
H1313 C1322 0.930 . S
H1314 C1327 0.929 . S
H1315 C1325 0.929 . S
H1316 C1320 0.929 . S
H1317 C1326 0.929 . S
C1318 H1312 0.930 . S
C1318 C1319 1.343 1_554 S
C1318 C1326 1.378 1_655 S
C1319 C1318 1.343 1_556 S
C1319 C1327 1.459 1_655 S
C1320 H1316 0.929 . S
C1320 C1322 1.378 . S
C1320 C1324 1.350 . S
C1321 C1324 1.464 . S
C1321 C1326 1.330 1_556 S
C1321 N1329 1.448 . S
C1322 H1313 0.930 . S
C1322 C1320 1.378 . S
C1322 C1323 1.367 . S
C1323 C1322 1.367 . S
C1323 C1325 1.433 1_556 S
C1324 C1320 1.350 . S
C1324 C1321 1.464 . S
C1324 N1328 1.427 1_556 S
C1325 H1315 0.929 . S
C1325 C1323 1.433 1_554 S
C1325 N1328 1.384 . S
C1326 H1317 0.929 . S
C1326 C1318 1.378 1_455 S
C1326 C1321 1.330 1_554 S
C1327 H1314 0.929 . S
C1327 C1319 1.459 1_455 S
C1327 N1329 1.384 . S
N1328 C1324 1.427 1_554 S
N1328 C1325 1.384 . S
N1329 C1321 1.448 . S
N1329 C1327 1.384 . S
H1330 C1336 0.930 . S
H1331 C1340 0.930 . S
H1332 C1345 0.929 . S
H1333 C1343 0.929 1_655 S
H1334 C1338 0.929 . S
H1335 C1344 0.929 . S
C1336 H1330 0.930 . S
C1336 C1337 1.367 . S
C1336 C1344 1.378 . S
C1337 C1336 1.367 . S
C1337 C1345 1.433 . S
C1338 H1334 0.929 . S
C1338 C1340 1.378 1_455 S
C1338 C1342 1.350 . S
C1339 C1342 1.463 . S
C1339 C1344 1.350 . S
C1339 N1347 1.427 . S
C1340 H1331 0.930 . S
C1340 C1338 1.378 1_655 S
C1340 C1341 1.367 . S
C1341 C1340 1.367 . S
C1341 C1343 1.433 1_655 S
C1342 C1338 1.350 . S
C1342 C1339 1.463 . S
C1342 N1346 1.427 . S
C1343 H1333 0.929 1_455 S
C1343 C1341 1.433 1_455 S
C1343 N1346 1.384 . S
C1344 H1335 0.929 . S
C1344 C1336 1.378 . S
C1344 C1339 1.350 . S
C1345 H1332 0.929 . S
C1345 C1337 1.433 . S
C1345 N1347 1.384 . S
N1346 C1342 1.427 . S
N1346 C1343 1.384 . S
N1347 C1339 1.427 . S
N1347 C1345 1.384 . S
H1348 C1354 0.930 . S
H1349 C1358 0.930 . S
H1350 C1363 0.929 . S
H1351 C1361 0.929 . S
H1352 C1356 0.929 . S
H1353 C1362 0.929 . S
C1354 H1348 0.930 . S
C1354 C1355 1.367 . S
C1354 C1362 1.378 1_455 S
C1355 C1354 1.367 . S
C1355 C1363 1.433 1_454 S
C1356 H1352 0.929 . S
C1356 C1358 1.378 . S
C1356 C1360 1.331 1_556 S
C1357 C1360 1.464 . S
C1357 C1362 1.350 . S
C1357 N1365 1.427 1_554 S
C1358 H1349 0.930 . S
C1358 C1356 1.378 . S
C1358 C1359 1.345 1_556 S
C1359 C1358 1.345 1_554 S
C1359 C1361 1.457 . S
C1360 C1356 1.331 1_554 S
C1360 C1357 1.464 . S
C1360 N1364 1.447 . S
C1361 H1351 0.929 . S
C1361 C1359 1.457 . S
C1361 N1364 1.384 . S
C1362 H1353 0.929 . S
C1362 C1354 1.378 1_655 S
C1362 C1357 1.350 . S
C1363 H1350 0.929 . S
C1363 C1355 1.433 1_656 S
C1363 N1365 1.384 . S
N1364 C1360 1.447 . S
N1364 C1361 1.384 . S
N1365 C1357 1.427 1_556 S
N1365 C1363 1.384 . S
H1366 C1372 0.930 . S
H1367 C1376 0.930 . S
H1368 C1381 0.929 . S
H1369 C1379 0.929 . S
H1370 C1374 0.929 . S
H1371 C1380 0.929 . S
C1372 H1366 0.930 . S
C1372 C1373 1.367 . S
C1372 C1380 1.378 . S
C1373 C1372 1.367 . S
C1373 C1381 1.433 . S
C1374 H1370 0.929 . S
C1374 C1376 1.378 1_655 S
C1374 C1378 1.350 . S
C1375 C1378 1.463 . S
C1375 C1380 1.350 . S
C1375 N1383 1.427 . S
C1376 H1367 0.930 . S
C1376 C1374 1.378 1_455 S
C1376 C1377 1.367 . S
C1377 C1376 1.367 . S
C1377 C1379 1.433 1_455 S
C1378 C1374 1.350 . S
C1378 C1375 1.463 . S
C1378 N1382 1.427 . S
C1379 H1369 0.929 . S
C1379 C1377 1.433 1_655 S
C1379 N1382 1.384 . S
C1380 H1371 0.929 . S
C1380 C1372 1.378 . S
C1380 C1375 1.350 . S
C1381 H1368 0.929 . S
C1381 C1373 1.433 . S
C1381 N1383 1.384 . S
N1382 C1378 1.427 . S
N1382 C1379 1.384 . S
N1383 C1375 1.427 . S
N1383 C1381 1.384 . S
H1384 C1390 0.930 . S
H1385 C1394 0.930 . S
H1386 C1399 0.929 . S
H1387 C1397 0.929 . S
H1388 C1392 0.929 . S
H1389 C1398 0.929 . S
C1390 H1384 0.930 . S
C1390 C1391 1.367 . S
C1390 C1398 1.378 1_655 S
C1391 C1390 1.367 . S
C1391 C1399 1.433 . S
C1392 H1388 0.929 . S
C1392 C1394 1.378 . S
C1392 C1396 1.350 . S
C1393 C1396 1.463 . S
C1393 C1398 1.350 . S
C1393 N1401 1.427 . S
C1394 H1385 0.930 . S
C1394 C1392 1.378 . S
C1394 C1395 1.367 . S
C1395 C1394 1.367 . S
C1395 C1397 1.433 . S
C1396 C1392 1.350 . S
C1396 C1393 1.463 . S
C1396 N1400 1.427 . S
C1397 H1387 0.929 . S
C1397 C1395 1.433 . S
C1397 N1400 1.384 . S
C1398 H1389 0.929 . S
C1398 C1390 1.378 1_455 S
C1398 C1393 1.350 . S
C1399 H1386 0.929 . S
C1399 C1391 1.433 . S
C1399 N1401 1.384 1_655 S
N1400 C1396 1.427 . S
N1400 C1397 1.384 . S
N1401 C1393 1.427 . S
N1401 C1399 1.384 1_455 S
H1402 C1408 0.930 . S
H1403 C1412 0.930 . S
H1404 C1417 0.929 . S
H1405 C1415 0.929 . S
H1406 C1410 0.929 . S
H1407 C1416 0.929 . S
C1408 H1402 0.930 . S
C1408 C1409 1.367 . S
C1408 C1416 1.378 . S
C1409 C1408 1.367 . S
C1409 C1417 1.433 . S
C1410 H1406 0.929 . S
C1410 C1412 1.378 . S
C1410 C1414 1.350 . S
C1411 C1414 1.463 . S
C1411 C1416 1.350 . S
C1411 N1419 1.427 . S
C1412 H1403 0.930 . S
C1412 C1410 1.378 . S
C1412 C1413 1.367 1_455 S
C1413 C1412 1.367 1_655 S
C1413 C1415 1.433 . S
C1414 C1410 1.350 . S
C1414 C1411 1.463 . S
C1414 N1418 1.427 . S
C1415 H1405 0.929 . S
C1415 C1413 1.433 . S
C1415 N1418 1.384 1_655 S
C1416 H1407 0.929 . S
C1416 C1408 1.378 . S
C1416 C1411 1.350 . S
C1417 H1404 0.929 . S
C1417 C1409 1.433 . S
C1417 N1419 1.384 . S
N1418 C1414 1.427 . S
N1418 C1415 1.384 1_455 S
N1419 C1411 1.427 . S
N1419 C1417 1.384 . S
H1420 C1426 0.930 . S
H1421 C1430 0.930 . S
H1422 C1435 0.929 . S
H1423 C1433 0.929 . S
H1424 C1428 0.929 . S
H1425 C1434 0.929 . S
C1426 H1420 0.930 . S
C1426 C1427 1.367 . S
C1426 C1434 1.378 . S
C1427 C1426 1.367 . S
C1427 C1435 1.433 . S
C1428 H1424 0.929 . S
C1428 C1430 1.378 1_655 S
C1428 C1432 1.350 . S
C1429 C1432 1.463 . S
C1429 C1434 1.350 . S
C1429 N1437 1.427 . S
C1430 H1421 0.930 . S
C1430 C1428 1.378 1_455 S
C1430 C1431 1.367 . S
C1431 C1430 1.367 . S
C1431 C1433 1.433 . S
C1432 C1428 1.350 . S
C1432 C1429 1.463 . S
C1432 N1436 1.427 . S
C1433 H1423 0.929 . S
C1433 C1431 1.433 . S
C1433 N1436 1.384 1_455 S
C1434 H1425 0.929 . S
C1434 C1426 1.378 . S
C1434 C1429 1.350 . S
C1435 H1422 0.929 . S
C1435 C1427 1.433 . S
C1435 N1437 1.384 . S
N1436 C1432 1.427 . S
N1436 C1433 1.384 1_655 S
N1437 C1429 1.427 . S
N1437 C1435 1.384 . S
H1438 C1444 0.930 . S
H1439 C1448 0.930 . S
H1440 C1453 0.929 . S
H1441 C1451 0.929 . S
H1442 C1446 0.929 . S
H1443 C1452 0.929 . S
C1444 H1438 0.930 . S
C1444 C1445 1.367 . S
C1444 C1452 1.378 . S
C1445 C1444 1.367 . S
C1445 C1453 1.433 . S
C1446 H1442 0.929 . S
C1446 C1448 1.378 . S
C1446 C1450 1.350 . S
C1447 C1450 1.463 . S
C1447 C1452 1.350 . S
C1447 N1455 1.427 . S
C1448 H1439 0.930 . S
C1448 C1446 1.378 . S
C1448 C1449 1.367 1_655 S
C1449 C1448 1.367 1_455 S
C1449 C1451 1.433 . S
C1450 C1446 1.350 . S
C1450 C1447 1.463 . S
C1450 N1454 1.427 . S
C1451 H1441 0.929 . S
C1451 C1449 1.433 . S
C1451 N1454 1.384 1_455 S
C1452 H1443 0.929 . S
C1452 C1444 1.378 . S
C1452 C1447 1.350 . S
C1453 H1440 0.929 . S
C1453 C1445 1.433 . S
C1453 N1455 1.384 . S
N1454 C1450 1.427 . S
N1454 C1451 1.384 1_655 S
N1455 C1447 1.427 . S
N1455 C1453 1.384 . S
H1456 C1462 0.930 . S
H1457 C1466 0.930 . S
H1458 C1471 0.929 . S
H1459 C1469 0.929 . S
H1460 C1464 0.929 . S
H1461 C1470 0.929 . S
C1462 H1456 0.930 . S
C1462 C1463 1.367 . S
C1462 C1470 1.378 . S
C1463 C1462 1.367 . S
C1463 C1471 1.433 . S
C1464 H1460 0.929 . S
C1464 C1466 1.378 . S
C1464 C1468 1.350 . S
C1465 C1468 1.463 . S
C1465 C1470 1.350 . S
C1465 N1473 1.427 . S
C1466 H1457 0.930 . S
C1466 C1464 1.378 . S
C1466 C1467 1.367 . S
C1467 C1466 1.367 . S
C1467 C1469 1.433 . S
C1468 C1464 1.350 . S
C1468 C1465 1.463 . S
C1468 N1472 1.427 . S
C1469 H1459 0.929 . S
C1469 C1467 1.433 . S
C1469 N1472 1.384 . S
C1470 H1461 0.929 . S
C1470 C1462 1.378 . S
C1470 C1465 1.350 . S
C1471 H1458 0.929 . S
C1471 C1463 1.433 . S
C1471 N1473 1.384 . S
N1472 C1468 1.427 . S
N1472 C1469 1.384 . S
N1473 C1465 1.427 . S
N1473 C1471 1.384 . S
H1474 C1480 0.930 . S
H1475 C1484 0.930 . S
H1476 C1489 0.929 . S
H1477 C1487 0.929 . S
H1478 C1482 0.929 . S
H1479 C1488 0.929 . S
C1480 H1474 0.930 . S
C1480 C1481 1.367 . S
C1480 C1488 1.378 . S
C1481 C1480 1.367 . S
C1481 C1489 1.433 . S
C1482 H1478 0.929 . S
C1482 C1484 1.378 . S
C1482 C1486 1.350 . S
C1483 C1486 1.463 . S
C1483 C1488 1.350 . S
C1483 N1491 1.427 . S
C1484 H1475 0.930 . S
C1484 C1482 1.378 . S
C1484 C1485 1.367 . S
C1485 C1484 1.367 . S
C1485 C1487 1.433 . S
C1486 C1482 1.350 . S
C1486 C1483 1.463 . S
C1486 N1490 1.427 . S
C1487 H1477 0.929 . S
C1487 C1485 1.433 . S
C1487 N1490 1.384 . S
C1488 H1479 0.929 . S
C1488 C1480 1.378 . S
C1488 C1483 1.350 . S
C1489 H1476 0.929 . S
C1489 C1481 1.433 . S
C1489 N1491 1.384 . S
N1490 C1486 1.427 . S
N1490 C1487 1.384 . S
N1491 C1483 1.427 . S
N1491 C1489 1.384 . S
H1492 C1498 0.930 . S
H1493 C1502 0.930 . S
H1494 C1507 0.929 . S
H1495 C1505 0.929 . S
H1496 C1500 0.929 . S
H1497 C1506 0.929 . S
C1498 H1492 0.930 . S
C1498 C1499 1.367 . S
C1498 C1506 1.378 . S
C1499 C1498 1.367 . S
C1499 C1507 1.433 . S
C1500 H1496 0.929 . S
C1500 C1502 1.378 . S
C1500 C1504 1.350 . S
C1501 C1504 1.463 . S
C1501 C1506 1.350 . S
C1501 N1509 1.427 . S
C1502 H1493 0.930 . S
C1502 C1500 1.378 . S
C1502 C1503 1.367 . S
C1503 C1502 1.367 . S
C1503 C1505 1.433 . S
C1504 C1500 1.350 . S
C1504 C1501 1.463 . S
C1504 N1508 1.427 . S
C1505 H1495 0.929 . S
C1505 C1503 1.433 . S
C1505 N1508 1.384 . S
C1506 H1497 0.929 . S
C1506 C1498 1.378 . S
C1506 C1501 1.350 . S
C1507 H1494 0.929 . S
C1507 C1499 1.433 . S
C1507 N1509 1.384 . S
N1508 C1504 1.427 . S
N1508 C1505 1.384 . S
N1509 C1501 1.427 . S
N1509 C1507 1.384 . S
H1510 C1516 0.930 . S
H1511 C1520 0.930 . S
H1512 C1525 0.929 . S
H1513 C1523 0.929 . S
H1514 C1518 0.929 . S
H1515 C1524 0.929 . S
C1516 H1510 0.930 . S
C1516 C1517 1.367 . S
C1516 C1524 1.378 . S
C1517 C1516 1.367 . S
C1517 C1525 1.433 . S
C1518 H1514 0.929 . S
C1518 C1520 1.378 . S
C1518 C1522 1.350 . S
C1519 C1522 1.463 . S
C1519 C1524 1.350 . S
C1519 N1527 1.427 . S
C1520 H1511 0.930 . S
C1520 C1518 1.378 . S
C1520 C1521 1.367 . S
C1521 C1520 1.367 . S
C1521 C1523 1.433 . S
C1522 C1518 1.350 . S
C1522 C1519 1.463 . S
C1522 N1526 1.427 . S
C1523 H1513 0.929 . S
C1523 C1521 1.433 . S
C1523 N1526 1.384 . S
C1524 H1515 0.929 . S
C1524 C1516 1.378 . S
C1524 C1519 1.350 . S
C1525 H1512 0.929 . S
C1525 C1517 1.433 . S
C1525 N1527 1.384 . S
N1526 C1522 1.427 . S
N1526 C1523 1.384 . S
N1527 C1519 1.427 . S
N1527 C1525 1.384 . S
H1528 C1534 0.930 . S
H1529 C1538 0.930 . S
H1530 C1543 0.929 . S
H1531 C1541 0.929 . S
H1532 C1536 0.929 . S
H1533 C1542 0.929 . S
C1534 H1528 0.930 . S
C1534 C1535 1.367 . S
C1534 C1542 1.378 . S
C1535 C1534 1.367 . S
C1535 C1543 1.433 1_556 S
C1536 H1532 0.929 . S
C1536 C1538 1.378 . S
C1536 C1540 1.331 1_554 S
C1537 C1540 1.464 . S
C1537 C1542 1.350 . S
C1537 N1545 1.427 1_556 S
C1538 H1529 0.930 . S
C1538 C1536 1.378 . S
C1538 C1539 1.338 1_554 S
C1539 C1538 1.338 1_556 S
C1539 C1541 1.463 . S
C1540 C1536 1.331 1_556 S
C1540 C1537 1.464 . S
C1540 N1544 1.447 . S
C1541 H1531 0.929 . S
C1541 C1539 1.463 . S
C1541 N1544 1.384 . S
C1542 H1533 0.929 . S
C1542 C1534 1.378 . S
C1542 C1537 1.350 . S
C1543 H1530 0.929 . S
C1543 C1535 1.433 1_554 S
C1543 N1545 1.384 . S
N1544 C1540 1.447 . S
N1544 C1541 1.384 . S
N1545 C1537 1.427 1_554 S
N1545 C1543 1.384 . S
H1546 C1552 0.930 . S
H1547 C1556 0.930 . S
H1548 C1561 0.929 . S
H1549 C1559 0.929 . S
H1550 C1554 0.929 . S
H1551 C1560 0.929 . S
C1552 H1546 0.930 . S
C1552 C1553 1.367 . S
C1552 C1560 1.378 . S
C1553 C1552 1.367 . S
C1553 C1561 1.433 . S
C1554 H1550 0.929 . S
C1554 C1556 1.378 . S
C1554 C1558 1.350 . S
C1555 C1558 1.463 . S
C1555 C1560 1.350 . S
C1555 N1563 1.427 . S
C1556 H1547 0.930 . S
C1556 C1554 1.378 . S
C1556 C1557 1.367 . S
C1557 C1556 1.367 . S
C1557 C1559 1.433 . S
C1558 C1554 1.350 . S
C1558 C1555 1.463 . S
C1558 N1562 1.427 . S
C1559 H1549 0.929 . S
C1559 C1557 1.433 . S
C1559 N1562 1.384 . S
C1560 H1551 0.929 . S
C1560 C1552 1.378 . S
C1560 C1555 1.350 . S
C1561 H1548 0.929 . S
C1561 C1553 1.433 . S
C1561 N1563 1.384 . S
N1562 C1558 1.427 . S
N1562 C1559 1.384 . S
N1563 C1555 1.427 . S
N1563 C1561 1.384 . S
H1564 C1570 0.930 . S
H1565 C1574 0.930 . S
H1566 C1579 0.929 . S
H1567 C1577 0.929 . S
H1568 C1572 0.929 . S
H1569 C1578 0.929 . S
C1570 H1564 0.930 . S
C1570 C1571 1.367 . S
C1570 C1578 1.378 . S
C1571 C1570 1.367 . S
C1571 C1579 1.433 1_554 S
C1572 H1568 0.929 . S
C1572 C1574 1.378 . S
C1572 C1576 1.331 1_556 S
C1573 C1576 1.464 . S
C1573 C1578 1.350 . S
C1573 N1581 1.427 1_554 S
C1574 H1565 0.930 . S
C1574 C1572 1.378 . S
C1574 C1575 1.344 1_556 S
C1575 C1574 1.344 1_554 S
C1575 C1577 1.457 . S
C1576 C1572 1.331 1_554 S
C1576 C1573 1.464 . S
C1576 N1580 1.447 . S
C1577 H1567 0.929 . S
C1577 C1575 1.457 . S
C1577 N1580 1.384 . S
C1578 H1569 0.929 . S
C1578 C1570 1.378 . S
C1578 C1573 1.350 . S
C1579 H1566 0.929 . S
C1579 C1571 1.433 1_556 S
C1579 N1581 1.384 . S
N1580 C1576 1.447 . S
N1580 C1577 1.384 . S
N1581 C1573 1.427 1_556 S
N1581 C1579 1.384 . S
H1582 C1588 0.930 . S
H1583 C1592 0.930 . S
H1584 C1597 0.929 . S
H1585 C1595 0.929 . S
H1586 C1590 0.929 . S
H1587 C1596 0.929 . S
C1588 H1582 0.930 . S
C1588 C1589 1.367 . S
C1588 C1596 1.378 . S
C1589 C1588 1.367 . S
C1589 C1597 1.433 . S
C1590 H1586 0.929 . S
C1590 C1592 1.378 . S
C1590 C1594 1.350 . S
C1591 C1594 1.463 . S
C1591 C1596 1.350 . S
C1591 N1599 1.427 . S
C1592 H1583 0.930 . S
C1592 C1590 1.378 . S
C1592 C1593 1.367 . S
C1593 C1592 1.367 . S
C1593 C1595 1.433 . S
C1594 C1590 1.350 . S
C1594 C1591 1.463 . S
C1594 N1598 1.427 . S
C1595 H1585 0.929 . S
C1595 C1593 1.433 . S
C1595 N1598 1.384 . S
C1596 H1587 0.929 . S
C1596 C1588 1.378 . S
C1596 C1591 1.350 . S
C1597 H1584 0.929 . S
C1597 C1589 1.433 . S
C1597 N1599 1.384 . S
N1598 C1594 1.427 . S
N1598 C1595 1.384 . S
N1599 C1591 1.427 . S
N1599 C1597 1.384 . S
C455 C7 1.225 . S
C459 C49 1.222 . S
C473 C35 1.222 . S
C477 C21 1.225 . S
C491 C105 1.222 . S
C495 C63 1.225 . S
C509 C91 1.222 . S
C513 C77 1.225 . S
C527 C119 1.226 . S
C531 C161 1.221 . S
C545 C133 1.221 . S
C549 C147 1.226 . S
C563 C217 1.226 . S
C567 C175 1.221 . S
C581 C203 1.222 . S
C585 C189 1.225 . S
C599 C231 1.221 . S
C603 C273 1.225 . S
C617 C245 1.225 . S
C621 C259 1.221 . S
C635 C287 1.226 . S
C639 C329 1.221 . S
C653 C301 1.226 . S
C657 C315 1.221 . S
C671 C343 1.225 . S
C675 C385 1.221 . S
C689 C371 1.221 . S
C693 C357 1.226 . S
C707 C441 1.222 . S
C711 C399 1.224 . S
C725 C427 1.226 . S
C729 C413 1.221 . S
C743 C6 1.973 1_554 S
C747 C62 1.973 1_556 S
C761 C412 1.968 1_556 S
C765 C20 1.968 1_554 S
C779 C34 1.973 . S
C783 C202 1.973 . S
C797 C328 1.979 . S
C801 C48 1.979 . S
C815 C356 1.974 1_554 S
C819 C76 1.974 1_556 S
C833 C90 1.968 . S
C837 C146 1.968 . S
C851 C104 1.970 . S
C855 C272 1.970 . S
C869 C174 1.971 . S
C873 C118 1.971 . S
C887 C300 1.978 . S
C891 C132 1.978 . S
C905 C160 1.977 . S
C909 C440 1.977 . S
C923 C188 1.968 . S
C927 C244 1.968 . S
C941 C216 1.968 . S
C945 C384 1.968 . S
C959 C286 1.979 . S
C963 C230 1.979 . S
C977 C258 1.969 . S
C981 C426 1.969 . S
C995 C314 1.969 . S
C999 C370 1.970 . S
C1013 C398 1.967 1_556 S
C1017 C342 1.967 1_554 S
C1031 C8 1.391 . S
C1035 C274 1.391 . S
C1049 C22 1.404 . S
C1053 C260 1.403 . S
C1067 C246 1.392 . S
C1071 C36 1.392 . S
C1085 C232 1.402 . S
C1089 C50 1.401 . S
C1103 C64 1.407 . S
C1107 C330 1.407 . S
C1121 C78 1.402 . S
C1125 C316 1.401 . S
C1139 C92 1.404 . S
C1143 C302 1.403 . S
C1157 C288 1.398 . S
C1161 C106 1.398 . S
C1175 C120 1.404 . S
C1179 C386 1.405 . S
C1193 C372 1.397 . S
C1197 C134 1.396 . S
C1211 C358 1.390 . S
C1215 C148 1.390 . S
C1229 C162 1.406 . S
C1233 C344 1.407 . S
C1247 C176 1.392 . S
C1251 C442 1.392 . S
C1265 C190 1.396 . S
C1269 C428 1.397 . S
C1283 C414 1.393 . S
C1287 C204 1.394 . S
C1301 C218 1.405 . S
C1305 C400 1.404 . S
C1319 C23 1.472 1_556 S
C1323 C9 1.475 1_556 S
C1337 C37 1.467 . S
C1341 C51 1.469 . S
C1355 C79 1.475 1_554 S
C1359 C65 1.473 1_554 S
C1373 C93 1.476 . S
C1377 C107 1.476 . S
C1391 C135 1.461 . S
C1395 C121 1.464 . S
C1409 C149 1.450 . S
C1413 C163 1.449 . S
C1427 C177 1.461 . S
C1431 C191 1.464 . S
C1445 C205 1.450 . S
C1449 C219 1.449 . S
C1463 C233 1.449 . S
C1467 C247 1.449 . S
C1481 C275 1.449 . S
C1485 C261 1.448 . S
C1499 C289 1.469 . S
C1503 C303 1.466 . S
C1517 C331 1.452 . S
C1521 C317 1.454 . S
C1535 C359 1.470 1_556 S
C1539 C345 1.467 1_556 S
C1553 C373 1.474 . S
C1557 C387 1.475 . S
C1571 C401 1.475 1_554 S
C1575 C415 1.472 1_554 S
C1589 C443 1.471 . S
C1593 C429 1.469 . S
