# Generated by pormake.
# Topology oob, (7)-cn, num edge types: 1
# Building blocks:
#     Node 0, Type 0, BuildingBlock: HICVOG_clean_sbu_0, # of connection points: 7
#     Node 1, Type 0, BuildingBlock: HICVOG_clean_sbu_0, # of connection points: 7
#     Node 2, Type 0, BuildingBlock: HICVOG_clean_sbu_0, # of connection points: 7
#     Node 3, Type 0, BuildingBlock: HICVOG_clean_sbu_0, # of connection points: 7
#     Edge 4, Type (0, 0), BuildingBlock: OJICUG_clean_linker_0, # of connection points: 2
#     Edge 5, Type (0, 0), BuildingBlock: OJICUG_clean_linker_0, # of connection points: 2
#     Edge 6, Type (0, 0), BuildingBlock: OJICUG_clean_linker_0, # of connection points: 2
#     Edge 7, Type (0, 0), BuildingBlock: OJICUG_clean_linker_0, # of connection points: 2
#     Edge 8, Type (0, 0), BuildingBlock: OJICUG_clean_linker_0, # of connection points: 2
#     Edge 9, Type (0, 0), BuildingBlock: OJICUG_clean_linker_0, # of connection points: 2
#     Edge 10, Type (0, 0), BuildingBlock: OJICUG_clean_linker_0, # of connection points: 2
#     Edge 11, Type (0, 0), BuildingBlock: OJICUG_clean_linker_0, # of connection points: 2
#     Edge 12, Type (0, 0), BuildingBlock: OJICUG_clean_linker_0, # of connection points: 2
#     Edge 13, Type (0, 0), BuildingBlock: OJICUG_clean_linker_0, # of connection points: 2
#     Edge 14, Type (0, 0), BuildingBlock: OJICUG_clean_linker_0, # of connection points: 2
#     Edge 15, Type (0, 0), BuildingBlock: OJICUG_clean_linker_0, # of connection points: 2
#     Edge 16, Type (0, 0), BuildingBlock: OJICUG_clean_linker_0, # of connection points: 2
#     Edge 17, Type (0, 0), BuildingBlock: OJICUG_clean_linker_0, # of connection points: 2
# Relax obj value: 0.283
# Max RMSD: 0.262
# Mean RMSD: 0.262
data_MOF--net-oob--node1-HICVOG_clean_sbu_0--edge1-OJICUG_clean_linker_0
_symmetry_space_group_name_H-M    P1
_symmetry_Int_Tables_number       1
_symmetry_cell_setting            triclinic
loop_
_symmetry_equiv_pos_as_xyz
'x, y, z'
_cell_length_a     14.032096
_cell_length_b     30.858268
_cell_length_c     19.570457
_cell_angle_alpha  89.979707
_cell_angle_beta   110.14284
_cell_angle_gamma 89.933548
loop_
_atom_site_label
_atom_site_type_symbol
_atom_site_fract_x
_atom_site_fract_y
_atom_site_fract_z
_atom_type_partial_charge
Zn0 Zn 0.29307 0.08111 0.87271 0.0
C1 C 0.19355 0.04329 1.03003 0.0
N2 N 0.28281 0.06058 0.07081 0.0
C3 C 0.32951 0.06648 1.02248 0.0
N4 N 0.27128 0.05394 0.95525 0.0
N5 N 0.18594 0.03824 0.95959 0.0
C6 C 0.90718 0.03777 0.89132 0.0
O7 O 0.96132 0.07349 0.90617 0.0
O8 O 0.44183 0.0761 0.88002 0.0
Zn9 Zn 0.09808 0.99866 0.88747 0.0
N10 N 0.26341 0.14215 0.88027 0.0
C11 C 0.18115 0.19543 0.92839 0.0
C12 C 0.20051 0.15224 0.91754 0.0
C13 C 0.30578 0.17381 0.85153 0.0
N14 N 0.22309 0.22697 0.89975 0.0
C15 C 0.28446 0.21766 0.86087 0.0
O16 O 0.09276 1.0099 0.78438 0.0
C17 C 0.13064 1.03292 0.74621 0.0
O18 O 0.20198 0.05988 0.77441 0.0
H19 H 0.16591 0.12701 0.93922 0.0
H20 H 0.35562 0.16479 0.82226 0.0
C21 C 0.12773 0.90604 0.86801 0.0
C22 C 0.17031 0.8648 0.89122 0.0
C23 C 0.26224 0.89402 1.00729 0.0
C24 C 0.22254 0.93478 0.9836 0.0
N25 N 0.15381 0.9401 0.91523 0.0
N26 N 0.23558 0.86016 0.96072 0.0
H27 H 0.07504 0.9111 0.81333 0.0
C28 C 0.47909 0.04347 0.85815 0.0
O29 O 0.41948 1.01069 0.82858 0.0
O30 O 0.94911 1.00266 0.88201 0.0
H31 H 0.24603 0.96174 1.02041 0.0
H32 H 0.13218 0.20386 0.95864 0.0
H33 H 0.31522 0.8894 0.06199 0.0
Zn34 Zn 0.79386 0.06718 0.2985 0.0
C35 C 0.8916 1.00737 0.15339 0.0
N36 N 0.80191 1.01866 0.10515 0.0
C37 C 0.75248 1.03426 0.14757 0.0
N38 N 0.80972 1.03312 0.21917 0.0
N39 N 0.89618 1.01468 0.22206 0.0
C40 C 0.20195 0.03534 0.3259 0.0
O41 O 0.17911 0.06485 0.36613 0.0
O42 O 0.6512 0.06507 0.30246 0.0
Zn43 Zn 0.00219 0.98659 0.30021 0.0
N44 N 0.82458 0.12727 0.28304 0.0
C45 C 0.92463 0.17664 0.24307 0.0
C46 C 0.90283 0.13451 0.25872 0.0
C47 C 0.76789 0.16079 0.29361 0.0
N48 N 0.86788 0.21008 0.25314 0.0
C49 C 0.79006 0.20364 0.27856 0.0
O50 O 0.00055 0.99672 0.4015 0.0
C51 C 0.95917 1.02278 0.43333 0.0
O52 O 0.88899 0.04905 0.3986 0.0
H53 H 0.94726 0.10762 0.25104 0.0
H54 H 0.70496 0.15385 0.31182 0.0
C55 C 0.93642 0.89386 0.28981 0.0
C56 C 0.93947 0.85076 0.26532 0.0
C57 C 0.06316 0.87237 0.21423 0.0
C58 C 0.05931 0.91446 0.23782 0.0
N59 N 0.99708 0.92468 0.27557 0.0
N60 N 0.00359 0.8418 0.22842 0.0
H61 H 0.88554 0.90317 0.31802 0.0
C62 C 0.59023 1.03335 0.28253 0.0
O63 O 0.61849 0.99854 0.25582 0.0
O64 O 0.14014 1.00475 0.29853 0.0
H65 H 0.10507 0.93898 0.2249 0.0
H66 H 0.98624 0.18275 0.22304 0.0
H67 H 0.11249 0.86403 0.1842 0.0
Zn68 Zn 0.70274 0.56736 0.28888 0.0
C69 C 0.60545 0.50759 0.43422 0.0
N70 N 0.69508 0.51887 0.48241 0.0
C71 C 0.74438 0.53447 0.43993 0.0
N72 N 0.68712 0.53333 0.36834 0.0
N73 N 0.60078 0.5149 0.36552 0.0
C74 C 0.29493 0.53565 0.26174 0.0
O75 O 0.3176 0.56518 0.22147 0.0
O76 O 0.8454 0.56524 0.28495 0.0
Zn77 Zn 0.49488 0.48682 0.28748 0.0
N78 N 0.6717 0.62747 0.30409 0.0
C79 C 0.57112 0.67696 0.3435 0.0
C80 C 0.59311 0.63479 0.32805 0.0
C81 C 0.72855 0.66092 0.2937 0.0
N82 N 0.62803 0.71033 0.33362 0.0
C83 C 0.7062 0.7038 0.30856 0.0
O84 O 0.49648 0.49688 0.18617 0.0
C85 C 0.53773 0.5229 0.15423 0.0
O86 O 0.60775 0.54918 0.18886 0.0
H87 H 0.54855 0.60795 0.33559 0.0
H88 H 0.79174 0.65391 0.27579 0.0
C89 C 0.56065 0.39402 0.29794 0.0
C90 C 0.55773 0.35093 0.32256 0.0
C91 C 0.4346 0.37274 0.37411 0.0
C92 C 0.4383 0.41481 0.35037 0.0
N93 N 0.50021 0.42493 0.31234 0.0
N94 N 0.49396 0.34208 0.35977 0.0
H95 H 0.61125 0.40324 0.26948 0.0
C96 C 0.90661 0.53354 0.305 0.0
O97 O 0.87862 0.49873 0.33181 0.0
O98 O 0.3569 0.50504 0.28913 0.0
H99 H 0.39266 0.4394 0.36337 0.0
H100 H 0.50925 0.68314 0.36324 0.0
H101 H 0.38554 0.36448 0.40437 0.0
Zn102 Zn 0.20347 0.58112 0.71473 0.0
C103 C 0.30331 0.54343 0.55755 0.0
N104 N 0.21397 0.56073 0.51673 0.0
C105 C 0.16717 0.56657 0.56502 0.0
N106 N 0.22541 0.55396 0.63226 0.0
N107 N 0.31088 0.53829 0.62798 0.0
C108 C 0.58964 0.53775 0.69632 0.0
O109 O 0.53533 0.57348 0.68155 0.0
O110 O 0.05472 0.57612 0.70745 0.0
Zn111 Zn 0.3989 0.49864 0.70013 0.0
N112 N 0.23284 0.64216 0.70705 0.0
C113 C 0.31465 0.69542 0.65868 0.0
C114 C 0.29549 0.65224 0.6696 0.0
C115 C 0.19057 0.67382 0.73592 0.0
N116 N 0.27281 0.72697 0.68743 0.0
C117 C 0.21172 0.71766 0.7265 0.0
O118 O 0.40419 0.50985 0.80321 0.0
C119 C 0.36618 0.53289 0.84132 0.0
O120 O 0.2947 0.55986 0.81305 0.0
H121 H 0.33006 0.62701 0.64785 0.0
H122 H 0.14097 0.66481 0.76536 0.0
C123 C 0.36923 0.40603 0.71968 0.0
C124 C 0.32674 0.36483 0.69644 0.0
C125 C 0.23533 0.39413 0.58021 0.0
C126 C 0.27492 0.43485 0.60392 0.0
N127 N 0.34337 0.44011 0.67239 0.0
N128 N 0.26179 0.36025 0.62685 0.0
H129 H 0.42167 0.41103 0.77444 0.0
C130 C 0.01764 0.54345 0.72929 0.0
O131 O 0.07743 0.51064 0.75881 0.0
O132 O 0.54788 0.50262 0.70559 0.0
H133 H 0.25156 0.46183 0.56706 0.0
H134 H 0.36341 0.70385 0.62828 0.0
H135 H 0.18259 0.38957 0.52545 0.0
C136 C 0.7354 1.00255 0.85854 0.0
C137 C 0.79843 0.03862 0.88516 0.0
H138 H 0.58571 0.97585 0.82867 0.0
C139 C 0.75595 0.07593 0.90463 0.0
H140 H 0.76552 0.97323 0.84325 0.0
C141 C 0.6528 0.07738 0.89661 0.0
C142 C 0.58923 0.04167 0.86838 0.0
H143 H 0.80233 0.1042 0.92591 0.0
H144 H 0.62273 0.10671 0.91193 0.0
C145 C 0.63207 1.00412 0.85 0.0
C146 C 0.46568 0.06848 0.33189 0.0
C147 C 0.48902 0.03547 0.29053 0.0
H148 H 0.35712 0.09434 0.37598 0.0
C149 C 0.41544 1.00388 0.25821 0.0
H150 H 0.52058 0.09349 0.35721 0.0
C151 C 0.32185 1.00451 0.26866 0.0
C152 C 0.29956 0.03662 0.31208 0.0
H153 H 0.43029 0.97838 0.22516 0.0
H154 H 0.26744 0.97938 0.24322 0.0
C155 C 0.37204 0.06897 0.34275 0.0
C156 C 0.17526 0.5048 0.31906 0.0
C157 C 0.19731 0.53692 0.27556 0.0
H158 H 0.06699 0.47862 0.36259 0.0
C159 C 0.12458 0.56924 0.24477 0.0
H160 H 0.22987 0.47968 0.34458 0.0
C161 C 0.03092 0.56872 0.25559 0.0
C162 C 0.00782 0.53569 0.29704 0.0
H163 H 0.13932 0.59461 0.21148 0.0
H164 H 0.97583 0.59371 0.23019 0.0
C165 C 0.08166 0.50413 0.32948 0.0
C166 C 0.74063 0.57594 0.68301 0.0
C167 C 0.69837 0.53859 0.70244 0.0
H168 H 0.87366 0.60676 0.6757 0.0
C169 C 0.76158 0.50249 0.72896 0.0
H170 H 0.69411 0.60425 0.6618 0.0
C171 C 0.86489 0.50406 0.73744 0.0
C172 C 0.90752 0.54165 0.71911 0.0
H173 H 0.73164 0.47314 0.74421 0.0
H174 H 0.9114 0.47577 0.7587 0.0
C175 C 0.84376 0.5774 0.69098 0.0
C176 C 0.06338 0.98946 0.63165 0.0
C177 C 0.08653 1.02992 0.66626 0.0
H178 H 0.00676 0.95544 0.52979 0.0
C179 C 0.06534 0.06783 0.62396 0.0
H180 H 0.07909 0.95982 0.66331 0.0
C181 C 0.02063 0.06538 0.54828 0.0
C182 C -0.00038 1.02494 0.51346 0.0
H183 H 0.0819 0.09939 0.64957 0.0
H184 H 0.00486 0.09508 0.51678 0.0
C185 C 0.02209 0.98696 0.55562 0.0
C186 C 0.43369 0.48948 0.95606 0.0
C187 C 0.41034 0.52992 0.92127 0.0
H188 H 0.49047 0.45551 0.05806 0.0
C189 C 0.43137 0.56785 0.96341 0.0
H190 H 0.41812 0.45982 0.92452 0.0
C191 C 0.47609 0.56544 1.0391 0.0
C192 C 0.49729 0.52502 0.0741 0.0
H193 H 0.41466 0.5994 0.93768 0.0
H194 H 0.49172 0.59516 0.07048 0.0
C195 C 0.475 0.48702 1.0321 0.0
C196 C 0.48387 1.03022 1.02341 0.0
C197 C 0.43982 0.06519 0.0468 0.0
H198 H 0.61688 0.99324 1.03816 0.0
C199 C 0.4995 0.0913 0.10441 0.0
H200 H 0.43833 1.00822 0.98182 0.0
C201 C 0.60306 0.08229 0.13794 0.0
C202 C 0.64568 0.04639 0.11534 0.0
H203 H 0.46551 0.11765 0.12458 0.0
H204 H 0.64883 0.10285 0.18141 0.0
C205 C 0.58574 1.02116 0.05681 0.0
C206 C 0.013 0.5303 0.56406 0.0
C207 C 0.05687 0.56528 0.54065 0.0
H208 H 0.88019 0.49333 0.54931 0.0
C209 C 0.99708 0.59143 0.48301 0.0
H210 H 0.05864 0.50827 0.60567 0.0
C211 C 0.89357 0.58246 0.44947 0.0
C212 C 0.85113 0.54654 0.47211 0.0
H213 H 0.03093 0.6178 0.46284 0.0
H214 H 0.84769 0.60305 0.406 0.0
C215 C 0.91119 0.52127 0.53065 0.0
C216 C 0.04561 0.04444 0.15579 0.0
C217 C 0.98057 1.00906 0.13179 0.0
H218 H 0.16279 0.08287 0.14142 0.0
C219 C 0.98661 0.98344 0.07448 0.0
H220 H 0.03906 0.06581 0.19772 0.0
C221 C 0.05733 0.99352 1.04133 0.0
C222 C 0.11966 1.03007 0.0636 0.0
H223 H 0.93448 0.95676 0.05386 0.0
H224 H 0.06125 0.97317 0.99792 0.0
C225 C 0.11509 0.05463 0.12254 0.0
C226 C 0.38181 0.55489 0.46511 0.0
C227 C 0.37732 0.53025 0.52402 0.0
H228 H 0.4578 0.56613 0.38994 0.0
C229 C 0.43981 0.49368 0.54629 0.0
H230 H 0.33398 0.58315 0.44623 0.0
C231 C 0.51059 0.48363 0.51315 0.0
C232 C 0.51651 0.50931 0.45584 0.0
H233 H 0.43596 0.47328 0.58967 0.0
H234 H 0.56282 0.45692 0.53375 0.0
C235 C 0.45132 0.54472 0.43184 0.0
C236 C 0.32741 0.24881 0.7564 0.0
C237 C 0.3196 0.25388 0.82561 0.0
H238 H 0.33768 0.28031 0.66183 0.0
C239 C 0.33138 0.29558 0.85661 0.0
H240 H 0.3175 0.21741 0.73027 0.0
C241 C 0.3431 0.33179 0.8172 0.0
C242 C 0.34232 0.32698 0.74567 0.0
H243 H 0.32621 0.30053 0.91003 0.0
H244 H 0.34481 0.36366 0.84074 0.0
C245 C 0.33831 0.285 0.71685 0.0
C246 C 0.6359 0.27749 0.35609 0.0
C247 C 0.62155 0.31461 0.31155 0.0
H248 H 0.70001 0.21424 0.38172 0.0
C249 C 0.66467 0.31493 0.25639 0.0
H250 H 0.60543 0.27591 0.3999 0.0
C251 C 0.71952 0.27896 0.24596 0.0
C252 C 0.7316 0.24166 0.28973 0.0
H253 H 0.65454 0.34234 0.2201 0.0
H254 H 0.75098 0.28007 0.20262 0.0
C255 C 0.68986 0.24166 0.34537 0.0
C256 C 0.86132 0.77742 0.23167 0.0
C257 C 0.87539 0.81453 0.27612 0.0
H258 H 0.79722 0.71425 0.20593 0.0
C259 C 0.83173 0.81494 0.33098 0.0
H260 H 0.8922 0.77577 0.18808 0.0
C261 C 0.77664 0.77905 0.34123 0.0
C262 C 0.76486 0.74175 0.29756 0.0
H263 H 0.84161 0.84235 0.36719 0.0
H264 H 0.74477 0.78022 0.38435 0.0
C265 C 0.80712 0.74167 0.2422 0.0
C266 C 0.16465 0.7956 0.73084 0.0
C267 C 0.17673 0.75388 0.7619 0.0
H268 H 0.15123 0.86368 0.74672 0.0
C269 C 0.16946 0.7488 0.83127 0.0
H270 H 0.16941 0.80056 0.67731 0.0
C271 C 0.15881 0.78498 0.8709 0.0
C272 C 0.1545 0.82698 0.842 0.0
H273 H 0.17962 0.71738 0.85744 0.0
H274 H 0.15985 0.78028 0.92603 0.0
C275 C 0.15317 0.8318 0.77034 0.0
loop_
_geom_bond_atom_site_label_1
_geom_bond_atom_site_label_2
_geom_bond_distance
_geom_bond_site_symmetry_2
_ccdc_geom_bond_type
Zn0 N4 2.020 . S
Zn0 O8 2.019 . S
Zn0 N10 2.119 . S
Zn0 O18 1.975 . S
C1 N2 1.334 . S
C1 N5 1.336 . S
N2 C1 1.334 . S
N2 C3 1.334 1_565 S
C3 N2 1.334 1_545 S
C3 N4 1.336 . S
N4 Zn0 2.020 . S
N4 C3 1.336 . S
N4 N5 1.354 1_545 S
N5 C1 1.336 . S
N5 N4 1.354 1_565 S
N5 Zn9 2.020 . S
C6 O7 1.244 1_565 S
C6 O30 1.257 . S
O7 C6 1.244 1_545 S
O8 Zn0 2.019 . S
O8 C28 1.257 . S
Zn9 N5 2.020 . S
Zn9 O16 1.975 . S
Zn9 N25 2.119 . S
Zn9 O30 2.019 1_455 S
N10 Zn0 2.119 . S
N10 C12 1.334 . S
N10 C13 1.328 . S
C11 C12 1.391 . S
C11 N14 1.329 . S
C11 H32 0.930 . S
C12 N10 1.334 . S
C12 C11 1.391 . S
C12 H19 0.930 . S
C13 N10 1.328 . S
C13 C15 1.392 . S
C13 H20 0.930 . S
N14 C11 1.329 . S
N14 C15 1.331 . S
C15 C13 1.392 . S
C15 N14 1.331 . S
O16 Zn9 1.975 . S
O16 C17 1.249 1_565 S
C17 O16 1.249 1_545 S
C17 O18 1.256 . S
O18 Zn0 1.975 . S
O18 C17 1.256 . S
H19 C12 0.930 . S
H20 C13 0.930 . S
C21 C22 1.392 . S
C21 N25 1.328 . S
C21 H27 0.930 1_455 S
C22 C21 1.392 . S
C22 N26 1.331 . S
C23 C24 1.391 . S
C23 N26 1.329 . S
C23 H33 0.930 . S
C24 C23 1.391 . S
C24 N25 1.334 . S
C24 H31 0.930 . S
N25 Zn9 2.119 . S
N25 C21 1.328 . S
N25 C24 1.334 . S
N26 C22 1.331 . S
N26 C23 1.329 . S
H27 C21 0.930 1_655 S
C28 O8 1.257 . S
C28 O29 1.244 1_545 S
O29 C28 1.244 1_565 S
O30 C6 1.257 . S
O30 Zn9 2.019 1_655 S
H31 C24 0.930 . S
H32 C11 0.930 . S
H33 C23 0.930 . S
Zn34 N38 2.020 . S
Zn34 O42 2.019 . S
Zn34 N44 2.119 . S
Zn34 O52 1.975 . S
C35 N36 1.334 . S
C35 N39 1.336 . S
N36 C35 1.334 . S
N36 C37 1.334 1_565 S
C37 N36 1.334 1_545 S
C37 N38 1.336 . S
N38 Zn34 2.020 . S
N38 C37 1.336 . S
N38 N39 1.354 1_545 S
N39 C35 1.336 . S
N39 N38 1.354 1_565 S
N39 Zn43 2.020 . S
C40 O41 1.244 1_565 S
C40 O64 1.257 . S
O41 C40 1.244 1_545 S
O42 Zn34 2.019 . S
O42 C62 1.257 . S
Zn43 N39 2.020 . S
Zn43 O50 1.975 . S
Zn43 N59 2.119 . S
Zn43 O64 2.019 1_655 S
N44 Zn34 2.119 . S
N44 C46 1.334 . S
N44 C47 1.328 . S
C45 C46 1.391 . S
C45 N48 1.329 . S
C45 H66 0.930 . S
C46 N44 1.334 . S
C46 C45 1.391 . S
C46 H53 0.930 . S
C47 N44 1.328 . S
C47 C49 1.392 . S
C47 H54 0.930 . S
N48 C45 1.329 . S
N48 C49 1.331 . S
C49 C47 1.392 . S
C49 N48 1.331 . S
O50 Zn43 1.975 . S
O50 C51 1.249 1_565 S
C51 O50 1.249 1_545 S
C51 O52 1.256 . S
O52 Zn34 1.975 . S
O52 C51 1.256 . S
H53 C46 0.930 . S
H54 C47 0.930 . S
C55 C56 1.392 . S
C55 N59 1.328 . S
C55 H61 0.930 1_655 S
C56 C55 1.392 . S
C56 N60 1.331 . S
C57 C58 1.391 . S
C57 N60 1.329 . S
C57 H67 0.930 . S
C58 C57 1.391 . S
C58 N59 1.334 . S
C58 H65 0.930 . S
N59 Zn43 2.119 . S
N59 C55 1.328 . S
N59 C58 1.334 . S
N60 C56 1.331 . S
N60 C57 1.329 . S
H61 C55 0.930 1_455 S
C62 O42 1.257 . S
C62 O63 1.244 1_545 S
O63 C62 1.244 1_565 S
O64 C40 1.257 . S
O64 Zn43 2.019 1_455 S
H65 C58 0.930 . S
H66 C45 0.930 . S
H67 C57 0.930 . S
Zn68 N72 2.020 . S
Zn68 O76 2.019 . S
Zn68 N78 2.119 . S
Zn68 O86 1.975 . S
C69 N70 1.334 . S
C69 N73 1.336 . S
N70 C69 1.334 . S
N70 C71 1.334 . S
C71 N70 1.334 . S
C71 N72 1.336 . S
N72 Zn68 2.020 . S
N72 C71 1.336 . S
N72 N73 1.354 . S
N73 C69 1.336 . S
N73 N72 1.354 . S
N73 Zn77 2.020 . S
C74 O75 1.244 . S
C74 O98 1.257 . S
O75 C74 1.244 . S
O76 Zn68 2.019 . S
O76 C96 1.257 . S
Zn77 N73 2.020 . S
Zn77 O84 1.975 . S
Zn77 N93 2.119 . S
Zn77 O98 2.019 . S
N78 Zn68 2.119 . S
N78 C80 1.334 . S
N78 C81 1.328 . S
C79 C80 1.391 . S
C79 N82 1.329 . S
C79 H100 0.930 . S
C80 N78 1.334 . S
C80 C79 1.391 . S
C80 H87 0.930 . S
C81 N78 1.328 . S
C81 C83 1.392 . S
C81 H88 0.930 . S
N82 C79 1.329 . S
N82 C83 1.331 . S
C83 C81 1.392 . S
C83 N82 1.331 . S
O84 Zn77 1.975 . S
O84 C85 1.252 . S
C85 O84 1.252 . S
C85 O86 1.252 . S
O86 Zn68 1.975 . S
O86 C85 1.252 . S
H87 C80 0.930 . S
H88 C81 0.930 . S
C89 C90 1.392 . S
C89 N93 1.328 . S
C89 H95 0.930 . S
C90 C89 1.392 . S
C90 N94 1.331 . S
C91 C92 1.391 . S
C91 N94 1.329 . S
C91 H101 0.930 . S
C92 C91 1.391 . S
C92 N93 1.334 . S
C92 H99 0.930 . S
N93 Zn77 2.119 . S
N93 C89 1.328 . S
N93 C92 1.334 . S
N94 C90 1.331 . S
N94 C91 1.329 . S
H95 C89 0.930 . S
C96 O76 1.257 . S
C96 O97 1.244 . S
O97 C96 1.244 . S
O98 C74 1.257 . S
O98 Zn77 2.019 . S
H99 C92 0.930 . S
H100 C79 0.930 . S
H101 C91 0.930 . S
Zn102 N106 2.020 . S
Zn102 O110 2.019 . S
Zn102 N112 2.119 . S
Zn102 O120 1.975 . S
C103 N104 1.334 . S
C103 N107 1.336 . S
N104 C103 1.334 . S
N104 C105 1.334 . S
C105 N104 1.334 . S
C105 N106 1.336 . S
N106 Zn102 2.020 . S
N106 C105 1.336 . S
N106 N107 1.354 . S
N107 C103 1.336 . S
N107 N106 1.354 . S
N107 Zn111 2.020 . S
C108 O109 1.244 . S
C108 O132 1.257 . S
O109 C108 1.244 . S
O110 Zn102 2.019 . S
O110 C130 1.257 . S
Zn111 N107 2.020 . S
Zn111 O118 1.975 . S
Zn111 N127 2.119 . S
Zn111 O132 2.019 . S
N112 Zn102 2.119 . S
N112 C114 1.334 . S
N112 C115 1.328 . S
C113 C114 1.391 . S
C113 N116 1.329 . S
C113 H134 0.930 . S
C114 N112 1.334 . S
C114 C113 1.391 . S
C114 H121 0.930 . S
C115 N112 1.328 . S
C115 C117 1.392 . S
C115 H122 0.930 . S
N116 C113 1.329 . S
N116 C117 1.331 . S
C117 C115 1.392 . S
C117 N116 1.331 . S
O118 Zn111 1.975 . S
O118 C119 1.252 . S
C119 O118 1.252 . S
C119 O120 1.252 . S
O120 Zn102 1.975 . S
O120 C119 1.252 . S
H121 C114 0.930 . S
H122 C115 0.930 . S
C123 C124 1.392 . S
C123 N127 1.328 . S
C123 H129 0.930 . S
C124 C123 1.392 . S
C124 N128 1.331 . S
C125 C126 1.391 . S
C125 N128 1.329 . S
C125 H135 0.930 . S
C126 C125 1.391 . S
C126 N127 1.334 . S
C126 H133 0.930 . S
N127 Zn111 2.119 . S
N127 C123 1.328 . S
N127 C126 1.334 . S
N128 C124 1.331 . S
N128 C125 1.329 . S
H129 C123 0.930 . S
C130 O110 1.257 . S
C130 O131 1.244 . S
O131 C130 1.244 . S
O132 C108 1.257 . S
O132 Zn111 2.019 . S
H133 C126 0.930 . S
H134 C113 0.930 . S
H135 C125 0.930 . S
C136 C137 1.387 . S
C136 H140 0.950 . S
C136 C145 1.390 . S
C137 C136 1.387 . S
C137 C139 1.387 1_565 S
H138 C145 0.950 . S
C139 C137 1.387 1_545 S
C139 C141 1.390 . S
C139 H143 0.950 . S
H140 C136 0.950 . S
C141 C139 1.390 . S
C141 C142 1.387 . S
C141 H144 0.950 . S
C142 C141 1.387 . S
C142 C145 1.387 1_545 S
H143 C139 0.950 . S
H144 C141 0.950 . S
C145 C136 1.390 . S
C145 H138 0.950 . S
C145 C142 1.387 1_565 S
C146 C147 1.387 . S
C146 H150 0.950 . S
C146 C155 1.390 . S
C147 C146 1.387 . S
C147 C149 1.387 1_545 S
H148 C155 0.950 . S
C149 C147 1.387 1_565 S
C149 C151 1.390 . S
C149 H153 0.950 . S
H150 C146 0.950 . S
C151 C149 1.390 . S
C151 C152 1.387 . S
C151 H154 0.950 . S
C152 C151 1.387 . S
C152 C155 1.387 1_565 S
H153 C149 0.950 . S
H154 C151 0.950 . S
C155 C146 1.390 . S
C155 H148 0.950 . S
C155 C152 1.387 1_545 S
C156 C157 1.387 . S
C156 H160 0.950 . S
C156 C165 1.390 . S
C157 C156 1.387 . S
C157 C159 1.387 . S
H158 C165 0.950 . S
C159 C157 1.387 . S
C159 C161 1.390 . S
C159 H163 0.950 . S
H160 C156 0.950 . S
C161 C159 1.390 . S
C161 C162 1.387 . S
C161 H164 0.950 . S
C162 C161 1.387 . S
C162 C165 1.387 . S
H163 C159 0.950 . S
H164 C161 0.950 . S
C165 C156 1.390 . S
C165 H158 0.950 . S
C165 C162 1.387 . S
C166 C167 1.387 . S
C166 H170 0.950 . S
C166 C175 1.390 . S
C167 C166 1.387 . S
C167 C169 1.387 . S
H168 C175 0.950 . S
C169 C167 1.387 . S
C169 C171 1.390 . S
C169 H173 0.950 . S
H170 C166 0.950 . S
C171 C169 1.390 . S
C171 C172 1.387 . S
C171 H174 0.950 . S
C172 C171 1.387 . S
C172 C175 1.387 . S
H173 C169 0.950 . S
H174 C171 0.950 . S
C175 C166 1.390 . S
C175 H168 0.950 . S
C175 C172 1.387 . S
C176 C177 1.362 1_565 S
C176 H180 0.950 . S
C176 C185 1.390 1_455 S
C177 C176 1.362 1_545 S
C177 C179 1.413 . S
H178 C185 0.950 . S
C179 C177 1.413 . S
C179 C181 1.390 1_455 S
C179 H183 0.950 . S
H180 C176 0.950 . S
C181 C179 1.390 1_655 S
C181 C182 1.413 . S
C181 H184 0.950 . S
C182 C181 1.413 . S
C182 C185 1.362 1_545 S
H183 C179 0.950 . S
H184 C181 0.950 . S
C185 C176 1.390 1_655 S
C185 H178 0.950 . S
C185 C182 1.362 1_565 S
C186 C187 1.387 . S
C186 H190 0.950 . S
C186 C195 1.390 1_556 S
C187 C186 1.387 . S
C187 C189 1.387 . S
H188 C195 0.950 . S
C189 C187 1.387 . S
C189 C191 1.390 1_556 S
C189 H193 0.950 . S
H190 C186 0.950 . S
C191 C189 1.390 1_554 S
C191 C192 1.387 . S
C191 H194 0.950 . S
C192 C191 1.387 . S
C192 C195 1.387 . S
H193 C189 0.950 . S
H194 C191 0.950 . S
C195 C186 1.390 1_554 S
C195 H188 0.950 . S
C195 C192 1.387 . S
C196 C197 1.387 1_565 S
C196 H200 0.950 . S
C196 C205 1.390 1_556 S
C197 C196 1.387 1_545 S
C197 C199 1.387 . S
H198 C205 0.950 . S
C199 C197 1.387 . S
C199 C201 1.390 1_556 S
C199 H203 0.950 . S
H200 C196 0.950 . S
C201 C199 1.390 1_554 S
C201 C202 1.387 . S
C201 H204 0.950 . S
C202 C201 1.387 . S
C202 C205 1.387 1_545 S
H203 C199 0.950 . S
H204 C201 0.950 . S
C205 C196 1.390 1_554 S
C205 H198 0.950 . S
C205 C202 1.387 1_565 S
C206 C207 1.387 . S
C206 H210 0.950 . S
C206 C215 1.390 1_455 S
C207 C206 1.387 . S
C207 C209 1.387 . S
H208 C215 0.950 . S
C209 C207 1.387 . S
C209 C211 1.390 1_455 S
C209 H213 0.950 . S
H210 C206 0.950 . S
C211 C209 1.390 1_655 S
C211 C212 1.387 . S
C211 H214 0.950 . S
C212 C211 1.387 . S
C212 C215 1.387 . S
H213 C209 0.950 . S
H214 C211 0.950 . S
C215 C206 1.390 1_655 S
C215 H208 0.950 . S
C215 C212 1.387 . S
C216 C217 1.387 1_545 S
C216 H220 0.950 . S
C216 C225 1.390 1_654 S
C217 C216 1.387 1_565 S
C217 C219 1.387 . S
H218 C225 0.950 . S
C219 C217 1.387 . S
C219 C221 1.390 1_654 S
C219 H223 0.950 . S
H220 C216 0.950 . S
C221 C219 1.390 1_456 S
C221 C222 1.387 . S
C221 H224 0.950 . S
C222 C221 1.387 . S
C222 C225 1.387 1_565 S
H223 C219 0.950 . S
H224 C221 0.950 . S
C225 C216 1.390 1_456 S
C225 H218 0.950 . S
C225 C222 1.387 1_545 S
C226 C227 1.387 . S
C226 H230 0.950 . S
C226 C235 1.390 . S
C227 C226 1.387 . S
C227 C229 1.387 . S
H228 C235 0.950 . S
C229 C227 1.387 . S
C229 C231 1.390 . S
C229 H233 0.950 . S
H230 C226 0.950 . S
C231 C229 1.390 . S
C231 C232 1.387 . S
C231 H234 0.950 . S
C232 C231 1.387 . S
C232 C235 1.387 . S
H233 C229 0.950 . S
H234 C231 0.950 . S
C235 C226 1.390 . S
C235 H228 0.950 . S
C235 C232 1.387 . S
C236 C237 1.387 . S
C236 H240 0.950 . S
C236 C245 1.390 . S
C237 C236 1.387 . S
C237 C239 1.387 . S
H238 C245 0.950 . S
C239 C237 1.387 . S
C239 C241 1.390 . S
C239 H243 0.950 . S
H240 C236 0.950 . S
C241 C239 1.390 . S
C241 C242 1.387 . S
C241 H244 0.950 . S
C242 C241 1.387 . S
C242 C245 1.387 . S
H243 C239 0.950 . S
H244 C241 0.950 . S
C245 C236 1.390 . S
C245 H238 0.950 . S
C245 C242 1.387 . S
C246 C247 1.387 . S
C246 H250 0.950 . S
C246 C255 1.390 . S
C247 C246 1.387 . S
C247 C249 1.387 . S
H248 C255 0.950 . S
C249 C247 1.387 . S
C249 C251 1.390 . S
C249 H253 0.950 . S
H250 C246 0.950 . S
C251 C249 1.390 . S
C251 C252 1.387 . S
C251 H254 0.950 . S
C252 C251 1.387 . S
C252 C255 1.387 . S
H253 C249 0.950 . S
H254 C251 0.950 . S
C255 C246 1.390 . S
C255 H248 0.950 . S
C255 C252 1.387 . S
C256 C257 1.387 . S
C256 H260 0.950 . S
C256 C265 1.390 . S
C257 C256 1.387 . S
C257 C259 1.387 . S
H258 C265 0.950 . S
C259 C257 1.387 . S
C259 C261 1.390 . S
C259 H263 0.950 . S
H260 C256 0.950 . S
C261 C259 1.390 . S
C261 C262 1.387 . S
C261 H264 0.950 . S
C262 C261 1.387 . S
C262 C265 1.387 . S
H263 C259 0.950 . S
H264 C261 0.950 . S
C265 C256 1.390 . S
C265 H258 0.950 . S
C265 C262 1.387 . S
C266 C267 1.387 . S
C266 H270 0.950 . S
C266 C275 1.390 . S
C267 C266 1.387 . S
C267 C269 1.387 . S
H268 C275 0.950 . S
C269 C267 1.387 . S
C269 C271 1.390 . S
C269 H273 0.950 . S
H270 C266 0.950 . S
C271 C269 1.390 . S
C271 C272 1.387 . S
C271 H274 0.950 . S
C272 C271 1.387 . S
C272 C275 1.387 . S
H273 C269 0.950 . S
H274 C271 0.950 . S
C275 C266 1.390 . S
C275 H268 0.950 . S
C275 C272 1.387 . S
C137 C6 1.208 . S
C142 C28 1.208 . S
C147 C62 1.208 . S
C152 C40 1.207 . S
C157 C74 1.205 . S
C162 C96 1.205 1_455 S
C167 C108 1.206 . S
C172 C130 1.207 1_655 S
C177 C17 1.894 . S
C182 C51 1.894 . S
C187 C119 1.894 . S
C192 C85 1.894 . S
C197 C3 1.373 . S
C202 C37 1.373 . S
C207 C105 1.373 . S
C212 C71 1.373 . S
C217 C35 2.072 . S
C222 C1 2.072 . S
C227 C103 2.072 . S
C232 C69 2.072 . S
C237 C15 1.930 . S
C242 C124 1.673 . S
C247 C90 1.673 . S
C252 C49 1.930 . S
C257 C56 1.673 . S
C262 C83 1.930 . S
C267 C117 1.929 . S
C272 C22 1.678 . S
