# Generated by pormake.
# Topology wji, (4)-cn, num edge types: 1
# Building blocks:
#     Node 0, Type 0, BuildingBlock: AZAVOO_clean_sbu_0, # of connection points: 4
#     Node 1, Type 0, BuildingBlock: AZAVOO_clean_sbu_0, # of connection points: 4
#     Node 2, Type 0, BuildingBlock: AZAVOO_clean_sbu_0, # of connection points: 4
#     Node 3, Type 0, BuildingBlock: AZAVOO_clean_sbu_0, # of connection points: 4
#     Node 4, Type 0, BuildingBlock: AZAVOO_clean_sbu_0, # of connection points: 4
#     Node 5, Type 0, BuildingBlock: AZAVOO_clean_sbu_0, # of connection points: 4
#     Node 6, Type 0, BuildingBlock: AZAVOO_clean_sbu_0, # of connection points: 4
#     Node 7, Type 0, BuildingBlock: AZAVOO_clean_sbu_0, # of connection points: 4
#     Node 8, Type 0, BuildingBlock: AZAVOO_clean_sbu_0, # of connection points: 4
#     Node 9, Type 0, BuildingBlock: AZAVOO_clean_sbu_0, # of connection points: 4
#     Node 10, Type 0, BuildingBlock: AZAVOO_clean_sbu_0, # of connection points: 4
#     Node 11, Type 0, BuildingBlock: AZAVOO_clean_sbu_0, # of connection points: 4
#     Edge 12, Type (0, 0), BuildingBlock: ZUJKAS_clean_linker_0, # of connection points: 2
#     Edge 13, Type (0, 0), BuildingBlock: ZUJKAS_clean_linker_0, # of connection points: 2
#     Edge 14, Type (0, 0), BuildingBlock: ZUJKAS_clean_linker_0, # of connection points: 2
#     Edge 15, Type (0, 0), BuildingBlock: ZUJKAS_clean_linker_0, # of connection points: 2
#     Edge 16, Type (0, 0), BuildingBlock: ZUJKAS_clean_linker_0, # of connection points: 2
#     Edge 17, Type (0, 0), BuildingBlock: ZUJKAS_clean_linker_0, # of connection points: 2
#     Edge 18, Type (0, 0), BuildingBlock: ZUJKAS_clean_linker_0, # of connection points: 2
#     Edge 19, Type (0, 0), BuildingBlock: ZUJKAS_clean_linker_0, # of connection points: 2
#     Edge 20, Type (0, 0), BuildingBlock: ZUJKAS_clean_linker_0, # of connection points: 2
#     Edge 21, Type (0, 0), BuildingBlock: ZUJKAS_clean_linker_0, # of connection points: 2
#     Edge 22, Type (0, 0), BuildingBlock: ZUJKAS_clean_linker_0, # of connection points: 2
#     Edge 23, Type (0, 0), BuildingBlock: ZUJKAS_clean_linker_0, # of connection points: 2
#     Edge 24, Type (0, 0), BuildingBlock: ZUJKAS_clean_linker_0, # of connection points: 2
#     Edge 25, Type (0, 0), BuildingBlock: ZUJKAS_clean_linker_0, # of connection points: 2
#     Edge 26, Type (0, 0), BuildingBlock: ZUJKAS_clean_linker_0, # of connection points: 2
#     Edge 27, Type (0, 0), BuildingBlock: ZUJKAS_clean_linker_0, # of connection points: 2
#     Edge 28, Type (0, 0), BuildingBlock: ZUJKAS_clean_linker_0, # of connection points: 2
#     Edge 29, Type (0, 0), BuildingBlock: ZUJKAS_clean_linker_0, # of connection points: 2
#     Edge 30, Type (0, 0), BuildingBlock: ZUJKAS_clean_linker_0, # of connection points: 2
#     Edge 31, Type (0, 0), BuildingBlock: ZUJKAS_clean_linker_0, # of connection points: 2
#     Edge 32, Type (0, 0), BuildingBlock: ZUJKAS_clean_linker_0, # of connection points: 2
#     Edge 33, Type (0, 0), BuildingBlock: ZUJKAS_clean_linker_0, # of connection points: 2
#     Edge 34, Type (0, 0), BuildingBlock: ZUJKAS_clean_linker_0, # of connection points: 2
#     Edge 35, Type (0, 0), BuildingBlock: ZUJKAS_clean_linker_0, # of connection points: 2
# Relax obj value: 0.180
# Max RMSD: 0.104
# Mean RMSD: 0.104
data_MOF--net-wji--node1-AZAVOO_clean_sbu_0--edge1-ZUJKAS_clean_linker_0
_symmetry_space_group_name_H-M    P1
_symmetry_Int_Tables_number       1
_symmetry_cell_setting            triclinic
loop_
_symmetry_equiv_pos_as_xyz
'x, y, z'
_cell_length_a     75.008236
_cell_length_b     75.011971
_cell_length_c     28.270212
_cell_angle_alpha  90.000518
_cell_angle_beta   90.003835
_cell_angle_gamma 119.99103
loop_
_atom_site_label
_atom_site_type_symbol
_atom_site_fract_x
_atom_site_fract_y
_atom_site_fract_z
_atom_type_partial_charge
Mg0 Mg 0.41288 0.31761 0.37974 0.0
O1 O 0.39882 0.32888 0.43653 0.0
O2 O 0.39475 0.35391 0.40484 0.0
Mg3 Mg 0.40672 0.35905 0.32868 0.0
C4 C 0.39311 0.34229 0.43957 0.0
C5 C 0.40349 0.28472 0.45558 0.0
O6 O 0.38511 0.28203 0.44678 0.0
O7 O 0.44432 0.34632 0.39149 0.0
O8 O 0.43942 0.37029 0.35657 0.0
O9 O 0.38141 0.29546 0.35134 0.0
O10 O 0.40085 0.32739 0.32643 0.0
C11 C 0.45095 0.36487 0.37815 0.0
C12 C 0.38363 0.31037 0.32437 0.0
O13 O 0.41897 0.29922 0.43478 0.0
Mg14 Mg 0.0955 0.41335 0.54949 0.0
O15 O 0.06954 0.39913 0.6047 0.0
O16 O 0.04086 0.39546 0.57162 0.0
Mg17 Mg 0.04846 0.40726 0.49532 0.0
C18 C 0.05047 0.39366 0.60694 0.0
C19 C 0.11779 0.40383 0.62853 0.0
O20 O 0.10203 0.38547 0.6198 0.0
O21 O 0.09807 0.4448 0.56071 0.0
O22 O 0.06949 0.43982 0.52412 0.0
O23 O 0.0864 0.38192 0.52091 0.0
O24 O 0.07445 0.40166 0.49473 0.0
C25 C 0.08617 0.45135 0.54657 0.0
C26 C 0.07427 0.38447 0.49268 0.0
O27 O 0.11924 0.41923 0.60635 0.0
Mg28 Mg 0.68276 0.09398 0.71649 0.0
O29 O 0.67164 0.06888 0.7739 0.0
O30 O 0.64666 0.0396 0.74279 0.0
Mg31 Mg 0.64127 0.04607 0.66658 0.0
C32 C 0.6583 0.04975 0.77734 0.0
C33 C 0.71599 0.11788 0.79148 0.0
O34 O 0.71879 0.10227 0.7825 0.0
O35 O 0.65401 0.09671 0.72825 0.0
O36 O 0.63004 0.06751 0.69452 0.0
O37 O 0.70484 0.08453 0.68793 0.0
O38 O 0.67283 0.07197 0.66361 0.0
C39 C 0.63541 0.08454 0.71557 0.0
C40 C 0.68984 0.07178 0.66124 0.0
O41 O 0.70133 0.11869 0.77105 0.0
Mg42 Mg 0.58935 0.68381 0.88548 0.0
O43 O 0.6027 0.67218 0.94317 0.0
O44 O 0.60715 0.64739 0.91144 0.0
Mg45 Mg 0.59624 0.64289 0.83433 0.0
C46 C 0.60832 0.65871 0.94643 0.0
C47 C 0.58281 0.71775 0.92246 0.0
O48 O 0.58636 0.72149 0.87699 0.0
O49 O 0.55777 0.65499 0.89505 0.0
O50 O 0.56319 0.63138 0.86001 0.0
O51 O 0.62116 0.70618 0.85895 0.0
O52 O 0.60185 0.67443 0.8327 0.0
C53 C 0.55135 0.63657 0.88096 0.0
C54 C 0.61901 0.69149 0.83123 0.0
O55 O 0.58254 0.70196 0.9396 0.0
Mg56 Mg 0.90438 0.58901 0.04846 0.0
O57 O 0.92922 0.6021 0.10652 0.0
O58 O 0.95844 0.60632 0.07528 0.0
Mg59 Mg 0.95214 0.59535 0.99825 0.0
C60 C 0.94826 0.60758 0.11008 0.0
C61 C 0.86424 0.58346 0.08488 0.0
O62 O 0.86427 0.58708 0.03939 0.0
O63 O 0.90119 0.55726 0.05838 0.0
O64 O 0.9303 0.56242 0.02427 0.0
O65 O 0.91422 0.62088 0.02185 0.0
O66 O 0.92644 0.60133 0.99596 0.0
C67 C 0.91317 0.55071 0.04493 0.0
C68 C 0.92675 0.6186 0.99441 0.0
O69 O 0.87944 0.58265 0.10225 0.0
Mg70 Mg 0.31552 0.90726 0.21797 0.0
O71 O 0.32703 0.93219 0.27558 0.0
O72 O 0.352 0.96152 0.24477 0.0
Mg73 Mg 0.35668 0.95515 0.16773 0.0
C74 C 0.3405 0.95125 0.2794 0.0
C75 C 0.28117 0.86704 0.25735 0.0
O76 O 0.27639 0.86645 0.21242 0.0
O77 O 0.34429 0.90446 0.22803 0.0
O78 O 0.36813 0.93363 0.19394 0.0
O79 O 0.29331 0.91684 0.19105 0.0
O80 O 0.32512 0.92917 0.16524 0.0
C81 C 0.36281 0.91654 0.21469 0.0
C82 C 0.3081 0.92935 0.16352 0.0
O83 O 0.29748 0.88255 0.27262 0.0
Mg84 Mg 0.68344 0.58713 0.45779 0.0
O85 O 0.67163 0.60069 0.40119 0.0
O86 O 0.64691 0.6052 0.43293 0.0
Mg87 Mg 0.64271 0.5941 0.50993 0.0
C88 C 0.65823 0.60639 0.39793 0.0
C89 C 0.7135 0.59477 0.37514 0.0
O90 O 0.71533 0.61306 0.37924 0.0
O91 O 0.6545 0.5557 0.44822 0.0
O92 O 0.63092 0.56106 0.48361 0.0
O93 O 0.70598 0.61882 0.48454 0.0
O94 O 0.67429 0.59958 0.51123 0.0
C95 C 0.63607 0.54928 0.46229 0.0
C96 C 0.6914 0.61671 0.51259 0.0
O97 O 0.70093 0.58029 0.40183 0.0
Mg98 Mg 0.09551 0.68437 0.61948 0.0
O99 O 0.06971 0.67237 0.56398 0.0
O100 O 0.04078 0.64778 0.59707 0.0
Mg101 Mg 0.04833 0.64384 0.67371 0.0
C102 C 0.05059 0.65893 0.56161 0.0
C103 C 0.13742 0.7142 0.57622 0.0
O104 O 0.14152 0.71575 0.62172 0.0
O105 O 0.09803 0.65545 0.60968 0.0
O106 O 0.06938 0.63201 0.64623 0.0
O107 O 0.08648 0.70694 0.64662 0.0
O108 O 0.07442 0.6754 0.67396 0.0
C109 C 0.08614 0.63708 0.6242 0.0
C110 C 0.07434 0.69247 0.67529 0.0
O111 O 0.11923 0.7017 0.56246 0.0
Mg112 Mg 0.41378 0.09809 0.78903 0.0
O113 O 0.39925 0.07239 0.73338 0.0
O114 O 0.3944 0.04316 0.76591 0.0
Mg115 Mg 0.40641 0.05039 0.84217 0.0
C116 C 0.39312 0.05318 0.73078 0.0
C117 C 0.40477 0.12066 0.71022 0.0
O118 O 0.38641 0.10486 0.71873 0.0
O119 O 0.44486 0.09993 0.7777 0.0
O120 O 0.43921 0.07102 0.81379 0.0
O121 O 0.38252 0.08965 0.8175 0.0
O122 O 0.40158 0.07688 0.84348 0.0
C123 C 0.45105 0.08772 0.79168 0.0
C124 C 0.38463 0.07719 0.84553 0.0
O125 O 0.42014 0.1221 0.73254 0.0
Mg126 Mg 0.3173 0.41346 0.9506 0.0
O127 O 0.32781 0.39901 0.89307 0.0
O128 O 0.3527 0.39434 0.92329 0.0
Mg129 Mg 0.35847 0.40625 0.9995 0.0
C130 C 0.34095 0.39298 0.88911 0.0
C131 C 0.28422 0.40432 0.87559 0.0
O132 O 0.28168 0.38596 0.8839 0.0
O133 O 0.34633 0.44465 0.93814 0.0
O134 O 0.37008 0.43895 0.97146 0.0
O135 O 0.29492 0.38218 0.97975 0.0
O136 O 0.32712 0.4012 0.00327 0.0
C137 C 0.36492 0.4508 0.9505 0.0
C138 C 0.30992 0.38421 0.00613 0.0
O139 O 0.29874 0.41978 0.89641 0.0
Mg140 Mg 0.90365 0.31774 0.11714 0.0
O141 O 0.92928 0.32944 0.06112 0.0
O142 O 0.95797 0.35491 0.09308 0.0
Mg143 Mg 0.95079 0.35923 0.16968 0.0
C144 C 0.94826 0.34325 0.05818 0.0
C145 C 0.8812 0.28539 0.03947 0.0
O146 O 0.89732 0.28333 0.04773 0.0
O147 O 0.90064 0.34638 0.10565 0.0
O148 O 0.92921 0.37025 0.14173 0.0
O149 O 0.91315 0.29573 0.14579 0.0
O150 O 0.92507 0.32752 0.17121 0.0
C151 C 0.91239 0.36487 0.11967 0.0
C152 C 0.92539 0.31057 0.1735 0.0
O153 O 0.87958 0.29932 0.06127 0.0
Mg154 Mg 0.58443 0.90306 0.2884 0.0
O155 O 0.59878 0.9282 0.23127 0.0
O156 O 0.60382 0.95775 0.26228 0.0
Mg157 Mg 0.59223 0.95139 0.3388 0.0
C158 C 0.60494 0.9474 0.22771 0.0
C159 C 0.59184 0.87963 0.20772 0.0
O160 O 0.61028 0.89587 0.2119 0.0
O161 O 0.55337 0.90128 0.27725 0.0
O162 O 0.55929 0.93061 0.31151 0.0
O163 O 0.61582 0.91161 0.31621 0.0
O164 O 0.59713 0.92495 0.34124 0.0
C165 C 0.54731 0.91369 0.29037 0.0
C166 C 0.61406 0.92458 0.34323 0.0
O167 O 0.57734 0.87827 0.23349 0.0
H168 H 0.33683 0.38735 0.07386 0.0
H169 H 0.33432 0.36075 0.12699 0.0
H170 H 0.27597 0.31702 0.06548 0.0
H171 H 0.27836 0.3439 0.01117 0.0
H172 H 0.29483 0.33252 0.19143 0.0
H173 H 0.3212 0.29501 0.06099 0.0
H174 H 0.3293 0.32184 0.05249 0.0
H175 H 0.30265 0.30279 0.04598 0.0
C176 C 0.32347 0.3721 0.07119 0.0
C177 C 0.30789 0.36768 0.03795 0.0
C178 C 0.322 0.35695 0.10189 0.0
C179 C 0.30495 0.33704 0.1001 0.0
C180 C 0.2892 0.33239 0.06728 0.0
H181 H 0.34296 0.27957 0.32184 0.0
H182 H 0.31587 0.27749 0.26875 0.0
C183 C 0.29062 0.3477 0.03638 0.0
C184 C 0.30474 0.32151 0.13244 0.0
H185 H 0.32996 0.29449 0.14178 0.0
C186 C 0.30152 0.32324 0.18069 0.0
C187 C 0.31345 0.30949 0.11811 0.0
C188 C 0.31682 0.30698 0.06655 0.0
C189 C 0.30925 0.31546 0.2152 0.0
C190 C 0.32047 0.30591 0.20075 0.0
C191 C 0.3213 0.30183 0.15262 0.0
C192 C 0.33611 0.30592 0.23233 0.0
C193 C 0.30771 0.31977 0.26667 0.0
C194 C 0.35624 0.32254 0.22912 0.0
C195 C 0.37151 0.32383 0.25912 0.0
C196 C 0.36701 0.30849 0.29307 0.0
C197 C 0.34683 0.29164 0.29604 0.0
C198 C 0.33139 0.2904 0.26584 0.0
H199 H 0.29619 0.32473 0.27261 0.0
H200 H 0.30344 0.30584 0.28825 0.0
H201 H 0.32294 0.33217 0.2792 0.0
H202 H 0.36009 0.33467 0.20345 0.0
H203 H 0.38691 0.33687 0.25542 0.0
H204 H 0.05983 0.34272 0.49613 0.0
H205 H 0.03515 0.31641 0.44107 0.0
H206 H 0.03316 0.364 0.35962 0.0
H207 H 0.05718 0.38998 0.41414 0.0
H208 H 0.9938 0.31199 0.42005 0.0
H209 H 0.04167 0.32699 0.26027 0.0
H210 H 0.05233 0.3327 0.31943 0.0
H211 H 0.04652 0.35032 0.2892 0.0
C212 C 0.05422 0.34748 0.46616 0.0
C213 C 0.06029 0.36835 0.45948 0.0
C214 C 0.04022 0.3325 0.43481 0.0
C215 C 0.03269 0.33837 0.39593 0.0
C216 C 0.03912 0.35922 0.38892 0.0
H217 H 0.94391 0.33439 0.24979 0.0
H218 H 0.96782 0.33231 0.30449 0.0
C219 C 0.05269 0.37402 0.4204 0.0
C220 C 0.0165 0.32314 0.36453 0.0
H221 H 0.00558 0.31695 0.24666 0.0
C222 C 0.99637 0.31225 0.38223 0.0
C223 C 0.0199 0.32326 0.31533 0.0
C224 C 0.04133 0.33379 0.29494 0.0
C225 C 0.97945 0.30392 0.35143 0.0
C226 C 0.9829 0.3067 0.30216 0.0
C227 C 0.00297 0.31504 0.28453 0.0
C228 C 0.96701 0.30611 0.27033 0.0
C229 C 0.95803 0.29398 0.37181 0.0
C230 C 0.95885 0.29218 0.23251 0.0
C231 C 0.94495 0.29326 0.20103 0.0
C232 C 0.93956 0.30862 0.2065 0.0
C233 C 0.94786 0.32248 0.24441 0.0
C234 C 0.96137 0.32119 0.27602 0.0
H235 H 0.95737 0.28708 0.407 0.0
H236 H 0.95348 0.30586 0.37647 0.0
H237 H 0.94673 0.28188 0.34781 0.0
H238 H 0.9633 0.28063 0.22728 0.0
H239 H 0.93878 0.28241 0.17201 0.0
H240 H 0.61141 0.94811 0.41229 0.0
H241 H 0.63835 0.97196 0.46503 0.0
H242 H 0.68162 0.95746 0.40038 0.0
H243 H 0.65438 0.9332 0.34647 0.0
H244 H 0.66675 0.96071 0.52767 0.0
H245 H 0.70399 0.02455 0.39704 0.0
H246 H 0.67713 0.00583 0.38899 0.0
H247 H 0.69615 0.99821 0.38191 0.0
C248 C 0.62663 0.94996 0.40887 0.0
C249 C 0.63081 0.93891 0.37485 0.0
C250 C 0.64197 0.96351 0.43935 0.0
C251 C 0.66187 0.96637 0.43657 0.0
C252 C 0.66628 0.95534 0.40297 0.0
H253 H 0.72057 0.06177 0.65807 0.0
H254 H 0.7224 0.03669 0.60467 0.0
C255 C 0.65076 0.94158 0.37229 0.0
C256 C 0.67762 0.98161 0.46864 0.0
H257 H 0.70503 0.03384 0.47792 0.0
C258 C 0.67608 0.97665 0.51687 0.0
C259 C 0.68972 0.00231 0.45425 0.0
C260 C 0.69203 0.0082 0.4027 0.0
C261 C 0.68411 0.99217 0.55138 0.0
C262 C 0.69374 0.01295 0.53694 0.0
C263 C 0.69763 0.01783 0.48876 0.0
C264 C 0.6939 0.02862 0.56869 0.0
C265 C 0.67998 0.98634 0.60288 0.0
C266 C 0.67733 0.03222 0.56582 0.0
C267 C 0.67617 0.04622 0.596 0.0
C268 C 0.69161 0.05701 0.62979 0.0
C269 C 0.70843 0.05361 0.6324 0.0
C270 C 0.70953 0.03938 0.60203 0.0
H271 H 0.67498 0.96985 0.60875 0.0
H272 H 0.69401 0.99596 0.62422 0.0
H273 H 0.66768 0.98925 0.61578 0.0
H274 H 0.66511 0.02398 0.54031 0.0
H275 H 0.66316 0.04864 0.59255 0.0
H276 H 0.7203 0.65808 0.51025 0.0
H277 H 0.72301 0.68483 0.56544 0.0
H278 H 0.67102 0.63866 0.64369 0.0
H279 H 0.66802 0.61227 0.58913 0.0
H280 H 0.68713 0.69177 0.58606 0.0
H281 H 0.71731 0.6729 0.74506 0.0
H282 H 0.72217 0.66741 0.6856 0.0
H283 H 0.69826 0.65032 0.71472 0.0
C284 C 0.70957 0.65372 0.53945 0.0
C285 C 0.69387 0.63313 0.54528 0.0
C286 C 0.71119 0.66895 0.57089 0.0
C287 C 0.69745 0.66358 0.609 0.0
C288 C 0.68201 0.64302 0.61498 0.0
H289 H 0.61423 0.66864 0.7536 0.0
H290 H 0.64056 0.67112 0.69954 0.0
C291 C 0.68019 0.62799 0.58344 0.0
C292 C 0.69743 0.67913 0.64098 0.0
H293 H 0.69244 0.68447 0.75913 0.0
C294 C 0.68918 0.69102 0.62386 0.0
C295 C 0.70037 0.67836 0.69016 0.0
C296 C 0.71022 0.66671 0.70998 0.0
C297 C 0.68107 0.69968 0.6551 0.0
C298 C 0.68123 0.69622 0.70419 0.0
C299 C 0.69216 0.68693 0.72139 0.0
C300 C 0.66579 0.69674 0.73566 0.0
C301 C 0.67048 0.71062 0.63527 0.0
C302 C 0.67134 0.71023 0.77432 0.0
C303 C 0.65615 0.70894 0.80543 0.0
C304 C 0.63541 0.69378 0.79872 0.0
C305 C 0.63008 0.68038 0.75994 0.0
C306 C 0.64508 0.68191 0.72871 0.0
H307 H 0.67715 0.71781 0.60056 0.0
H308 H 0.65392 0.6993 0.62979 0.0
H309 H 0.67165 0.72267 0.66003 0.0
H310 H 0.68733 0.72157 0.78052 0.0
H311 H 0.66064 0.71943 0.83514 0.0
H312 H 0.06059 0.72037 0.67188 0.0
H313 H 0.03644 0.72272 0.7274 0.0
H314 H 0.03357 0.67274 0.80888 0.0
H315 H 0.05705 0.67009 0.75398 0.0
H316 H 0.99481 0.68658 0.74941 0.0
H317 H 0.0435 0.71861 0.90826 0.0
H318 H 0.05394 0.7233 0.84889 0.0
H319 H 0.04775 0.69977 0.87914 0.0
C320 C 0.05488 0.71005 0.70193 0.0
C321 C 0.06057 0.69496 0.70852 0.0
C322 C 0.0412 0.71145 0.73356 0.0
C323 C 0.03359 0.69816 0.77262 0.0
C324 C 0.03961 0.68341 0.77947 0.0
H325 H 0.94592 0.61395 0.91859 0.0
H326 H 0.96985 0.64028 0.86463 0.0
C327 C 0.05287 0.68178 0.74774 0.0
C328 C 0.01774 0.69767 0.80443 0.0
H329 H 0.00731 0.6928 0.92255 0.0
C330 C 0.99756 0.68881 0.7872 0.0
C331 C 0.02136 0.70083 0.8536 0.0
C332 C 0.04287 0.71136 0.87355 0.0
C333 C 0.98076 0.68037 0.81836 0.0
C334 C 0.9844 0.68083 0.86751 0.0
C335 C 0.00456 0.69228 0.88476 0.0
C336 C 0.9686 0.66536 0.8992 0.0
C337 C 0.95925 0.66916 0.79845 0.0
C338 C 0.96018 0.67085 0.937 0.0
C339 C 0.94625 0.65566 0.96806 0.0
C340 C 0.94109 0.63499 0.96217 0.0
C341 C 0.94969 0.62973 0.92433 0.0
C342 C 0.96322 0.64473 0.89315 0.0
H343 H 0.95854 0.67547 0.76339 0.0
H344 H 0.95443 0.65267 0.7937 0.0
H345 H 0.94817 0.67017 0.82284 0.0
H346 H 0.96443 0.68678 0.94248 0.0
H347 H 0.93984 0.6601 0.99702 0.0
H348 H 0.34335 0.06503 0.84373 0.0
H349 H 0.31664 0.04117 0.89917 0.0
H350 H 0.36277 0.03518 0.97719 0.0
H351 H 0.38914 0.05841 0.92234 0.0
H352 H 0.3093 0.9985 0.91922 0.0
H353 H 0.32889 0.04708 0.07915 0.0
H354 H 0.33459 0.05763 0.01989 0.0
H355 H 0.35135 0.0503 0.04881 0.0
C356 C 0.34772 0.05868 0.87297 0.0
C357 C 0.36828 0.06346 0.87863 0.0
C358 C 0.33251 0.04517 0.90455 0.0
C359 C 0.33787 0.03678 0.94265 0.0
C360 C 0.35841 0.04182 0.94851 0.0
H361 H 0.33094 0.94708 0.08573 0.0
H362 H 0.329 0.97132 0.03196 0.0
C363 C 0.37343 0.05494 0.91682 0.0
C364 C 0.32227 0.02121 0.97455 0.0
H365 H 0.31672 0.01047 0.09251 0.0
C366 C 0.31011 0.00117 0.95707 0.0
C367 C 0.3231 0.02476 0.02381 0.0
C368 C 0.33504 0.04618 0.04403 0.0
C369 C 0.30116 0.9843 0.988 0.0
C370 C 0.30463 0.98772 0.03715 0.0
C371 C 0.31425 0.00788 0.05472 0.0
C372 C 0.3037 0.97148 0.0683 0.0
C373 C 0.28989 0.96285 0.96778 0.0
C374 C 0.29019 0.96369 0.10696 0.0
C375 C 0.29116 0.94955 0.13789 0.0
C376 C 0.30603 0.94359 0.13101 0.0
C377 C 0.31942 0.95148 0.09219 0.0
C378 C 0.31821 0.96518 0.06113 0.0
H379 H 0.28279 0.96261 0.93311 0.0
H380 H 0.30097 0.95734 0.96208 0.0
H381 H 0.27773 0.95204 0.99238 0.0
H382 H 0.2791 0.96866 0.11333 0.0
H383 H 0.28069 0.9437 0.16765 0.0
H384 H 0.59574 0.53058 0.48873 0.0
H385 H 0.56907 0.49507 0.47606 0.0
H386 H 0.61279 0.48266 0.40601 0.0
H387 H 0.63985 0.51857 0.41809 0.0
H388 H 0.57653 0.46817 0.35657 0.0
H389 H 0.55943 0.443 0.54263 0.0
H390 H 0.55908 0.46648 0.53353 0.0
H391 H 0.58269 0.46607 0.52517 0.0
C392 C 0.59985 0.52037 0.47086 0.0
C393 C 0.62002 0.52749 0.45453 0.0
C394 C 0.58456 0.49996 0.46406 0.0
C395 C 0.58905 0.48609 0.44114 0.0
C396 C 0.60909 0.49308 0.42437 0.0
H397 H 0.48106 0.36075 0.42442 0.0
H398 H 0.51699 0.38758 0.43773 0.0
C399 C 0.6245 0.5136 0.43121 0.0
C400 C 0.57223 0.46479 0.43207 0.0
H401 H 0.53154 0.42431 0.48661 0.0
C402 C 0.56696 0.45835 0.38503 0.0
C403 C 0.55997 0.45175 0.46918 0.0
C404 C 0.56573 0.45709 0.52046 0.0
C405 C 0.54879 0.44003 0.37407 0.0
C406 C 0.53545 0.42812 0.41109 0.0
C407 C 0.54161 0.43364 0.4582 0.0
C408 C 0.51411 0.41146 0.40165 0.0
C409 C 0.54372 0.43399 0.32284 0.0
C410 C 0.50056 0.41612 0.37784 0.0
C411 C 0.48015 0.40098 0.37038 0.0
C412 C 0.47271 0.38077 0.38687 0.0
C413 C 0.48628 0.37613 0.41114 0.0
C414 C 0.50681 0.3914 0.41869 0.0
H415 H 0.55793 0.44006 0.30114 0.0
H416 H 0.53467 0.417 0.31866 0.0
H417 H 0.53449 0.44064 0.30878 0.0
H418 H 0.50571 0.43163 0.36557 0.0
H419 H 0.4702 0.40522 0.35176 0.0
H420 H 0.12186 0.4828 0.58529 0.0
H421 H 0.13042 0.51862 0.59801 0.0
H422 H 0.07138 0.50439 0.54127 0.0
H423 H 0.06283 0.46901 0.5279 0.0
H424 H 0.10442 0.54066 0.50455 0.0
H425 H 0.10554 0.5384 0.70157 0.0
H426 H 0.12196 0.53138 0.67008 0.0
H427 H 0.09453 0.51527 0.66626 0.0
C428 C 0.1107 0.48732 0.57565 0.0
C429 C 0.09164 0.47298 0.55565 0.0
C430 C 0.11561 0.50777 0.58301 0.0
C431 C 0.10148 0.5141 0.57076 0.0
C432 C 0.08254 0.49984 0.55077 0.0
H433 H 0.0643 0.5967 0.65001 0.0
H434 H 0.07289 0.56987 0.63666 0.0
C435 C 0.07767 0.47955 0.54331 0.0
C436 C 0.10584 0.53542 0.57894 0.0
H437 H 0.10768 0.56768 0.66632 0.0
C438 C 0.10557 0.54682 0.53985 0.0
C439 C 0.10727 0.5433 0.62507 0.0
C440 C 0.10724 0.53149 0.66832 0.0
C441 C 0.1054 0.56532 0.54573 0.0
C442 C 0.10585 0.57271 0.59197 0.0
C443 C 0.1074 0.56195 0.63093 0.0
C444 C 0.10165 0.58972 0.60096 0.0
C445 C 0.1033 0.57604 0.5027 0.0
C446 C 0.11506 0.60988 0.58542 0.0
C447 C 0.11013 0.6254 0.59279 0.0
C448 C 0.09174 0.62095 0.61598 0.0
C449 C 0.07856 0.60075 0.63192 0.0
C450 C 0.08348 0.58535 0.62453 0.0
H451 H 0.10026 0.56672 0.47002 0.0
H452 H 0.09059 0.57941 0.50768 0.0
H453 H 0.11775 0.59089 0.49754 0.0
H454 H 0.12928 0.6136 0.5676 0.0
H455 H 0.12068 0.64081 0.58032 0.0
H456 H 0.48185 0.12145 0.74537 0.0
H457 H 0.51743 0.12936 0.73202 0.0
H458 H 0.50442 0.07362 0.80484 0.0
H459 H 0.46925 0.0657 0.81871 0.0
H460 H 0.54194 0.10901 0.83237 0.0
H461 H 0.53405 0.09807 0.63688 0.0
H462 H 0.52752 0.11597 0.66284 0.0
H463 H 0.51195 0.08899 0.6752 0.0
C464 C 0.48659 0.11089 0.75853 0.0
C465 C 0.47261 0.09288 0.78293 0.0
C466 C 0.5069 0.11543 0.7508 0.0
C467 C 0.51349 0.10201 0.76727 0.0
C468 C 0.49966 0.08421 0.79198 0.0
H469 H 0.59418 0.06083 0.70008 0.0
H470 H 0.56755 0.06976 0.71243 0.0
C471 C 0.47947 0.07967 0.79967 0.0
C472 C 0.53455 0.10582 0.75818 0.0
H473 H 0.56428 0.10227 0.67153 0.0
C474 C 0.54709 0.10798 0.79715 0.0
C475 C 0.54108 0.10437 0.71217 0.0
C476 C 0.52799 0.10161 0.66923 0.0
C477 C 0.56546 0.10753 0.79161 0.0
C478 C 0.5715 0.10511 0.7458 0.0
C479 C 0.55958 0.10418 0.70658 0.0
C480 C 0.5883 0.10045 0.73839 0.0
C481 C 0.57753 0.10825 0.83499 0.0
C482 C 0.6089 0.11477 0.74906 0.0
C483 C 0.62432 0.10965 0.74227 0.0
C484 C 0.61935 0.09018 0.72442 0.0
C485 C 0.59866 0.07598 0.71379 0.0
C486 C 0.58337 0.08107 0.72067 0.0
H487 H 0.56923 0.10734 0.86826 0.0
H488 H 0.58085 0.09539 0.83446 0.0
H489 H 0.59246 0.12289 0.83524 0.0
H490 H 0.61304 0.12991 0.76231 0.0
H491 H 0.6401 0.12099 0.75055 0.0
H492 H 0.52056 0.64012 0.92555 0.0
H493 H 0.48461 0.61296 0.937 0.0
H494 H 0.49702 0.56979 0.86433 0.0
H495 H 0.53257 0.59654 0.85234 0.0
H496 H 0.46002 0.56852 0.83563 0.0
H497 H 0.4666 0.56457 0.03132 0.0
H498 H 0.47369 0.58919 0.00568 0.0
H499 H 0.48897 0.57742 0.99373 0.0
C500 C 0.51561 0.62484 0.91198 0.0
C501 C 0.52953 0.62052 0.88827 0.0
C502 C 0.49509 0.60936 0.91862 0.0
C503 C 0.48823 0.58937 0.9017 0.0
C504 C 0.502 0.58514 0.87753 0.0
H505 H 0.4061 0.4677 0.96554 0.0
H506 H 0.43308 0.50314 0.95357 0.0
C507 C 0.52239 0.60049 0.87094 0.0
C508 C 0.46698 0.57235 0.91005 0.0
H509 H 0.43644 0.53897 0.99564 0.0
C510 C 0.4546 0.56225 0.87066 0.0
C511 C 0.46009 0.56424 0.95583 0.0
C512 C 0.47299 0.57426 0.99921 0.0
C513 C 0.43604 0.54356 0.87558 0.0
C514 C 0.42965 0.53495 0.92115 0.0
C515 C 0.44141 0.54569 0.96078 0.0
C516 C 0.41266 0.51355 0.92796 0.0
C517 C 0.42412 0.53248 0.83182 0.0
C518 C 0.39214 0.50759 0.91726 0.0
C519 C 0.37651 0.48712 0.92387 0.0
C520 C 0.38121 0.47239 0.94153 0.0
C521 C 0.40183 0.47856 0.95201 0.0
C522 C 0.41733 0.49887 0.94534 0.0
H523 H 0.43256 0.54002 0.7988 0.0
H524 H 0.42076 0.51628 0.83197 0.0
H525 H 0.4092 0.53222 0.83146 0.0
H526 H 0.38821 0.51876 0.90423 0.0
H527 H 0.36078 0.48292 0.91568 0.0
H528 H 0.87728 0.36051 0.0772 0.0
H529 H 0.86832 0.38749 0.06425 0.0
H530 H 0.92543 0.43205 0.12932 0.0
H531 H 0.93438 0.40552 0.14284 0.0
H532 H 0.89073 0.43392 0.16147 0.0
H533 H 0.89583 0.43395 0.96472 0.0
H534 H 0.87895 0.40992 0.99362 0.0
H535 H 0.90626 0.42171 0.00156 0.0
C536 C 0.88792 0.37607 0.08869 0.0
C537 C 0.90659 0.38082 0.11092 0.0
C538 C 0.88278 0.39144 0.0812 0.0
C539 C 0.89627 0.41176 0.09566 0.0
C540 C 0.91477 0.41645 0.11807 0.0
H541 H 0.93566 0.53236 0.02362 0.0
H542 H 0.92647 0.49672 0.03571 0.0
C543 C 0.91988 0.40121 0.12558 0.0
C544 C 0.89181 0.42862 0.08699 0.0
H545 H 0.89268 0.46051 0.99985 0.0
C546 C 0.89069 0.43954 0.12613 0.0
C547 C 0.89183 0.43586 0.04082 0.0
C548 C 0.89338 0.4249 0.9976 0.0
C549 C 0.89094 0.45826 0.12046 0.0
C550 C 0.89203 0.46603 0.07435 0.0
C551 C 0.8918 0.45443 0.03513 0.0
C552 C 0.89665 0.48744 0.06627 0.0
C553 C 0.89152 0.47027 0.16384 0.0
C554 C 0.88287 0.49409 0.07943 0.0
C555 C 0.88814 0.51468 0.07279 0.0
C556 C 0.90724 0.52887 0.0527 0.0
C557 C 0.92083 0.52196 0.03924 0.0
C558 C 0.91558 0.50152 0.04593 0.0
H559 H 0.89334 0.46334 0.19693 0.0
H560 H 0.9044 0.48639 0.16136 0.0
H561 H 0.87696 0.47067 0.16629 0.0
H562 H 0.86808 0.48339 0.09474 0.0
H563 H 0.87727 0.51945 0.08328 0.0
H564 H 0.35837 0.88074 0.25314 0.0
H565 H 0.38539 0.87178 0.26493 0.0
H566 H 0.43029 0.93032 0.20624 0.0
H567 H 0.40368 0.93928 0.19382 0.0
H568 H 0.43291 0.89662 0.17035 0.0
H569 H 0.43061 0.89723 0.36741 0.0
H570 H 0.40692 0.8808 0.33678 0.0
H571 H 0.41858 0.90823 0.33173 0.0
C572 C 0.37401 0.8917 0.24281 0.0
C573 C 0.37883 0.91077 0.22269 0.0
C574 C 0.38941 0.88656 0.24964 0.0
C575 C 0.40984 0.90045 0.23668 0.0
C576 C 0.4146 0.91935 0.21633 0.0
H577 H 0.52965 0.93665 0.31351 0.0
H578 H 0.49443 0.92865 0.29993 0.0
C579 C 0.39932 0.92448 0.20945 0.0
C580 C 0.42667 0.89592 0.24484 0.0
H581 H 0.45728 0.89431 0.33206 0.0
C582 C 0.43805 0.89568 0.20565 0.0
C583 C 0.4333 0.89477 0.29097 0.0
C584 C 0.42186 0.89537 0.3343 0.0
C585 C 0.45658 0.89555 0.21141 0.0
C586 C 0.4637 0.89538 0.25761 0.0
C587 C 0.45169 0.89438 0.29671 0.0
C588 C 0.48483 0.89932 0.26632 0.0
C589 C 0.46908 0.89701 0.16824 0.0
C590 C 0.49114 0.88541 0.25195 0.0
C591 C 0.51147 0.88998 0.2595 0.0
C592 C 0.52574 0.90852 0.28167 0.0
C593 C 0.51918 0.92225 0.29626 0.0
C594 C 0.49898 0.91768 0.28872 0.0
H595 H 0.46265 0.89972 0.13539 0.0
H596 H 0.48522 0.90968 0.17243 0.0
H597 H 0.46934 0.88244 0.16402 0.0
H598 H 0.48036 0.87105 0.235 0.0
H599 H 0.51597 0.87902 0.24804 0.0
H600 H 0.3636 0.37441 0.86937 0.0
H601 H 0.36944 0.36354 0.79212 0.0
H602 H 0.32988 0.38273 0.72673 0.0
H603 H 0.32378 0.39359 0.80385 0.0
H604 H 0.33686 0.3347 0.71937 0.0
H605 H 0.3895 0.41537 0.66108 0.0
H606 H 0.3845 0.40838 0.72281 0.0
H607 H 0.36529 0.40953 0.6873 0.0
C608 C 0.356 0.37621 0.83868 0.0
C609 C 0.34332 0.38502 0.84286 0.0
C610 C 0.35933 0.36993 0.79461 0.0
C611 C 0.35021 0.37249 0.75385 0.0
C612 C 0.33714 0.38076 0.75787 0.0
H613 H 0.37295 0.36364 0.45591 0.0
H614 H 0.36082 0.36933 0.53149 0.0
C615 C 0.33366 0.38691 0.80199 0.0
C616 C 0.35507 0.36728 0.70691 0.0
H617 H 0.383 0.38906 0.60687 0.0
C618 C 0.3469 0.34652 0.69461 0.0
C619 C 0.36811 0.38279 0.67484 0.0
C620 C 0.37752 0.40531 0.68696 0.0
C621 C 0.3513 0.34084 0.65063 0.0
C622 C 0.3647 0.35638 0.61878 0.0
C623 C 0.37274 0.37715 0.6312 0.0
C624 C 0.37083 0.35159 0.57259 0.0
C625 C 0.3412 0.31827 0.63841 0.0
C626 C 0.3805 0.33969 0.5704 0.0
C627 C 0.38728 0.33622 0.52707 0.0
C628 C 0.38487 0.34491 0.48515 0.0
C629 C 0.37512 0.35676 0.48747 0.0
C630 C 0.36816 0.36003 0.53069 0.0
H631 H 0.32685 0.30903 0.65908 0.0
H632 H 0.33742 0.31563 0.60016 0.0
H633 H 0.35189 0.31256 0.64712 0.0
H634 H 0.38327 0.33347 0.60233 0.0
H635 H 0.39488 0.32717 0.52666 0.0
H636 H 0.98731 0.37354 0.0352 0.0
H637 H 0.00436 0.38008 0.95833 0.0
H638 H 0.95114 0.3271 0.90011 0.0
H639 H 0.93386 0.32033 0.97694 0.0
H640 H 0.9913 0.33164 0.87532 0.0
H641 H 0.98616 0.40201 0.84254 0.0
H642 H 0.99709 0.40112 0.89849 0.0
H643 H 0.97055 0.383 0.88624 0.0
C644 C 0.97921 0.36317 0.00622 0.0
C645 C 0.95912 0.34647 0.0123 0.0
C646 C 0.98898 0.36699 0.96225 0.0
C647 C 0.9789 0.35422 0.92348 0.0
C648 C 0.95913 0.33718 0.92962 0.0
H649 H 0.01058 0.38279 0.62737 0.0
H650 H 0.99293 0.3718 0.70344 0.0
C651 C 0.94928 0.33338 0.97356 0.0
C652 C 0.9888 0.35899 0.87624 0.0
H653 H 0.00552 0.39474 0.78777 0.0
C654 C 0.9944 0.3454 0.85606 0.0
C655 C 0.99258 0.37684 0.85107 0.0
C656 C 0.98616 0.39155 0.87035 0.0
C657 C 0.00405 0.3494 0.81158 0.0
C658 C 0.00829 0.36753 0.78695 0.0
C659 C 0.00236 0.38092 0.80686 0.0
C660 C 0.01874 0.37291 0.74028 0.0
C661 C 0.00938 0.3341 0.79101 0.0
C662 C 0.03913 0.37717 0.73573 0.0
C663 C 0.04933 0.38351 0.69223 0.0
C664 C 0.03933 0.38578 0.65245 0.0
C665 C 0.01878 0.3812 0.65712 0.0
C666 C 0.00865 0.37493 0.70062 0.0
H667 H 0.00084 0.31888 0.80875 0.0
H668 H 0.00596 0.33199 0.75253 0.0
H669 H 0.02609 0.33997 0.79574 0.0
H670 H 0.04733 0.37606 0.76609 0.0
H671 H 0.06515 0.38694 0.69005 0.0
H672 H 0.62357 0.98868 0.20844 0.0
H673 H 0.63486 0.0056 0.13147 0.0
H674 H 0.6157 0.94697 0.06547 0.0
H675 H 0.60442 0.92982 0.14225 0.0
H676 H 0.66405 0.00201 0.06009 0.0
H677 H 0.58392 0.97431 0.99807 0.0
H678 H 0.5904 0.976 0.06008 0.0
H679 H 0.58941 0.95573 0.02451 0.0
C680 C 0.62184 0.97935 0.17766 0.0
C681 C 0.61295 0.95784 0.18157 0.0
C682 C 0.62837 0.98908 0.13375 0.0
C683 C 0.62596 0.97749 0.09291 0.0
C684 C 0.61755 0.95613 0.09667 0.0
H685 H 0.63712 0.00833 0.79458 0.0
H686 H 0.631 0.99087 0.87075 0.0
C687 C 0.61115 0.94638 0.14061 0.0
C688 C 0.63158 0.98769 0.04611 0.0
H689 H 0.61068 0.99378 0.94449 0.0
C690 C 0.65244 0.00024 0.03467 0.0
C691 C 0.61635 0.98525 0.0132 0.0
C692 C 0.59373 0.97221 0.02437 0.0
C693 C 0.65851 0.01027 0.99067 0.0
C694 C 0.64326 0.00809 0.95789 0.0
C695 C 0.62238 0.99545 0.96952 0.0
C696 C 0.64844 0.01881 0.91141 0.0
C697 C 0.68118 0.02268 0.97942 0.0
C698 C 0.66037 0.04036 0.90875 0.0
C699 C 0.6641 0.05041 0.86508 0.0
C700 C 0.65563 0.03912 0.82326 0.0
C701 C 0.64382 0.01753 0.82605 0.0
C702 C 0.6403 0.0075 0.86961 0.0
H703 H 0.69025 0.01767 0.00106 0.0
H704 H 0.68414 0.02139 0.94144 0.0
H705 H 0.68682 0.03912 0.98755 0.0
H706 H 0.66637 0.04949 0.94057 0.0
H707 H 0.67311 0.06706 0.86431 0.0
H708 H 0.60519 0.67293 0.03362 0.0
H709 H 0.61567 0.66592 0.11 0.0
H710 H 0.63914 0.6307 0.04039 0.0
H711 H 0.62815 0.6371 0.96402 0.0
H712 H 0.61609 0.61039 0.11444 0.0
H713 H 0.6714 0.69015 0.17029 0.0
H714 H 0.64647 0.68659 0.15675 0.0
H715 H 0.66155 0.6839 0.11072 0.0
C716 C 0.61278 0.66387 0.03445 0.0
C717 C 0.61584 0.6556 0.99259 0.0
C718 C 0.6189 0.65999 0.07821 0.0
C719 C 0.62854 0.64808 0.08098 0.0
C720 C 0.63181 0.64 0.03918 0.0
H721 H 0.67502 0.60584 0.31216 0.0
H722 H 0.66846 0.61647 0.23531 0.0
C723 C 0.62551 0.64369 0.9955 0.0
C724 C 0.63414 0.643 0.12754 0.0
H725 H 0.66097 0.66411 0.22964 0.0
C726 C 0.62605 0.62217 0.13939 0.0
C727 C 0.64716 0.65836 0.16022 0.0
C728 C 0.65731 0.68099 0.14871 0.0
C729 C 0.6303 0.61628 0.18319 0.0
C730 C 0.64299 0.63161 0.21602 0.0
C731 C 0.65117 0.65242 0.20434 0.0
C732 C 0.64776 0.62616 0.26284 0.0
C733 C 0.62094 0.5937 0.19457 0.0
C734 C 0.63854 0.62843 0.30377 0.0
C735 C 0.64213 0.62227 0.34776 0.0
C736 C 0.6552 0.61389 0.35166 0.0
C737 C 0.66485 0.61218 0.31056 0.0
C738 C 0.66111 0.61821 0.26656 0.0
H739 H 0.60913 0.58377 0.16822 0.0
H740 H 0.63322 0.58956 0.19503 0.0
H741 H 0.61375 0.59037 0.23021 0.0
H742 H 0.62822 0.63459 0.30152 0.0
H743 H 0.63451 0.6239 0.37862 0.0
H744 H 0.06735 0.67416 0.47454 0.0
H745 H 0.04952 0.66702 0.39845 0.0
H746 H 0.99145 0.6291 0.46824 0.0
H747 H 0.00909 0.63599 0.54461 0.0
H748 H 0.02178 0.62373 0.36207 0.0
H749 H 0.98395 0.67107 0.37995 0.0
H750 H 0.00678 0.67655 0.41297 0.0
H751 H 0.9823 0.65518 0.42943 0.0
C752 C 0.05076 0.66445 0.4739 0.0
C753 C 0.03967 0.65563 0.5158 0.0
C754 C 0.04062 0.66038 0.43034 0.0
C755 C 0.01919 0.64767 0.42787 0.0
C756 C 0.00799 0.63912 0.46955 0.0
H757 H 0.93065 0.60394 0.19718 0.0
H758 H 0.94796 0.61381 0.27399 0.0
C759 C 0.01813 0.64302 0.51312 0.0
C760 C 0.00868 0.64247 0.38139 0.0
H761 H 0.97595 0.65023 0.31185 0.0
C762 C 0.01181 0.62955 0.35091 0.0
C763 C 0.99554 0.64995 0.36736 0.0
C764 C 0.99193 0.66407 0.39886 0.0
C765 C 0.00192 0.62366 0.30681 0.0
C766 C 0.98905 0.63145 0.29218 0.0
C767 C 0.98587 0.64434 0.32291 0.0
C768 C 0.97867 0.62629 0.24529 0.0
C769 C 0.00494 0.60868 0.277 0.0
C770 C 0.99018 0.63047 0.20346 0.0
C771 C 0.98033 0.62464 0.15956 0.0
C772 C 0.95874 0.61484 0.15644 0.0
C773 C 0.94729 0.61143 0.19826 0.0
C774 C 0.95717 0.61706 0.24223 0.0
H775 H 0.00989 0.59959 0.29878 0.0
H776 H 0.99058 0.59785 0.25802 0.0
H777 H 0.01715 0.61734 0.25041 0.0
H778 H 0.00682 0.63814 0.20476 0.0
H779 H 0.98965 0.62777 0.12807 0.0
H780 H 0.36391 0.99241 0.29948 0.0
H781 H 0.37029 0.00905 0.377 0.0
H782 H 0.33053 0.95034 0.44228 0.0
H783 H 0.32391 0.93348 0.36498 0.0
H784 H 0.33777 0.00538 0.44992 0.0
H785 H 0.39004 0.97688 0.50817 0.0
H786 H 0.38515 0.97904 0.44644 0.0
H787 H 0.36585 0.95864 0.48167 0.0
C788 C 0.35641 0.98301 0.33022 0.0
C789 C 0.34346 0.96157 0.32593 0.0
C790 C 0.36005 0.99257 0.37445 0.0
C791 C 0.35099 0.98088 0.41524 0.0
C792 C 0.33775 0.95958 0.41113 0.0
H793 H 0.37299 0.01163 0.71407 0.0
H794 H 0.36111 0.99397 0.63818 0.0
C795 C 0.33396 0.95 0.36689 0.0
C796 C 0.35588 0.99089 0.46228 0.0
H797 H 0.38339 0.99648 0.56278 0.0
C798 C 0.34772 0.00347 0.47474 0.0
C799 C 0.36876 0.98821 0.49446 0.0
C800 C 0.37812 0.97507 0.48223 0.0
C801 C 0.35197 0.01334 0.51896 0.0
C802 C 0.36522 0.01101 0.55093 0.0
C803 C 0.37325 0.99828 0.53837 0.0
C804 C 0.37126 0.0218 0.59732 0.0
C805 C 0.34186 0.02579 0.53129 0.0
C806 C 0.38093 0.04336 0.59975 0.0
C807 C 0.38756 0.05351 0.6432 0.0
C808 C 0.38499 0.04234 0.6851 0.0
C809 C 0.37525 0.02074 0.68256 0.0
C810 C 0.36845 0.0106 0.63915 0.0
H811 H 0.32756 0.02076 0.51047 0.0
H812 H 0.338 0.02455 0.5695 0.0
H813 H 0.35257 0.04222 0.52284 0.0
H814 H 0.38381 0.05241 0.56789 0.0
H815 H 0.39516 0.07016 0.64373 0.0
H816 H 0.43915 0.28556 0.48127 0.0
H817 H 0.44237 0.25868 0.52321 0.0
H818 H 0.37637 0.22288 0.53705 0.0
H819 H 0.37294 0.24956 0.49551 0.0
H820 H 0.42447 0.23944 0.61851 0.0
H821 H 0.39577 0.18559 0.46572 0.0
H822 H 0.40625 0.21302 0.45934 0.0
H823 H 0.38063 0.19717 0.4817 0.0
C824 C 0.42533 0.27205 0.49362 0.0
C825 C 0.40577 0.26962 0.48477 0.0
C826 C 0.42722 0.25674 0.5175 0.0
C827 C 0.40959 0.23876 0.53246 0.0
C828 C 0.39012 0.23659 0.52514 0.0
H829 H 0.37439 0.12371 0.66451 0.0
H830 H 0.37763 0.15302 0.61983 0.0
C831 C 0.38822 0.2519 0.50157 0.0
C832 C 0.41134 0.22195 0.555 0.0
H833 H 0.39921 0.17207 0.53877 0.0
C834 C 0.41919 0.22476 0.60107 0.0
C835 C 0.4044 0.20291 0.53187 0.0
C836 C 0.39642 0.19943 0.48177 0.0
C837 C 0.41947 0.20862 0.62554 0.0
C838 C 0.41214 0.18939 0.60273 0.0
C839 C 0.40482 0.18682 0.55612 0.0
C840 C 0.4107 0.17134 0.62757 0.0
C841 C 0.42676 0.21201 0.67624 0.0
C842 C 0.42831 0.17172 0.64564 0.0
C843 C 0.42651 0.155 0.67145 0.0
C844 C 0.40707 0.13756 0.67923 0.0
C845 C 0.38958 0.13692 0.65935 0.0
C846 C 0.3914 0.15366 0.63378 0.0
H847 H 0.4274 0.22594 0.69168 0.0
H848 H 0.41651 0.19852 0.69847 0.0
H849 H 0.44248 0.21411 0.67772 0.0
H850 H 0.44341 0.18504 0.64026 0.0
H851 H 0.4403 0.15589 0.68599 0.0
H852 H 0.24919 0.37373 0.83531 0.0
H853 H 0.22223 0.37699 0.79466 0.0
H854 H 0.25729 0.44292 0.81076 0.0
H855 H 0.28446 0.43988 0.85175 0.0
H856 H 0.20133 0.39804 0.83889 0.0
H857 H 0.23953 0.43115 0.66634 0.0
H858 H 0.24726 0.41666 0.70372 0.0
H859 H 0.25393 0.44238 0.71974 0.0
C860 C 0.25134 0.38897 0.82977 0.0
C861 C 0.26896 0.40655 0.84689 0.0
C862 C 0.23588 0.39077 0.80664 0.0
C863 C 0.23785 0.41017 0.79973 0.0
C864 C 0.25562 0.42783 0.81552 0.0
H865 H 0.15308 0.43934 0.65239 0.0
H866 H 0.18218 0.44251 0.69844 0.0
C867 C 0.27108 0.42605 0.83895 0.0
C868 C 0.22074 0.41169 0.77809 0.0
H869 H 0.20592 0.42538 0.67681 0.0
C870 C 0.20231 0.40411 0.80355 0.0
C871 C 0.22226 0.41981 0.73227 0.0
C872 C 0.24173 0.42791 0.70357 0.0
C873 C 0.18516 0.40418 0.78406 0.0
C874 C 0.18637 0.41157 0.73745 0.0
C875 C 0.20503 0.41969 0.71252 0.0
C876 C 0.16817 0.40991 0.71286 0.0
C877 C 0.16595 0.39641 0.81365 0.0
C878 C 0.15063 0.39054 0.70589 0.0
C879 C 0.13397 0.38868 0.67988 0.0
C880 C 0.13463 0.40614 0.6598 0.0
C881 C 0.15208 0.42559 0.66746 0.0
C882 C 0.16874 0.42743 0.69366 0.0
H883 H 0.16954 0.39772 0.85206 0.0
H884 H 0.15779 0.40502 0.80594 0.0
H885 H 0.15539 0.37991 0.80563 0.0
H886 H 0.15005 0.37676 0.71944 0.0
H887 H 0.12083 0.37347 0.67443 0.0
H888 H 0.84527 0.2845 0.01633 0.0
H889 H 0.81558 0.25706 0.97447 0.0
H890 H 0.84862 0.22431 0.95461 0.0
H891 H 0.87833 0.25155 0.99613 0.0
H892 H 0.81394 0.23881 0.87797 0.0
H893 H 0.79365 0.18442 0.02872 0.0
H894 H 0.80963 0.21196 0.03551 0.0
H895 H 0.82016 0.19722 0.01037 0.0
C896 C 0.8463 0.27156 0.00263 0.0
C897 C 0.86409 0.27012 0.00991 0.0
C898 C 0.82934 0.25593 0.97878 0.0
C899 C 0.82989 0.2386 0.96221 0.0
C900 C 0.84787 0.23749 0.96777 0.0
H901 H 0.75106 0.12248 0.83187 0.0
H902 H 0.77747 0.15238 0.87433 0.0
C903 C 0.86484 0.25311 0.99135 0.0
C904 C 0.81151 0.2213 0.94031 0.0
H905 H 0.77575 0.17072 0.95682 0.0
C906 C 0.80541 0.22395 0.89522 0.0
C907 C 0.80052 0.20203 0.96317 0.0
C908 C 0.80615 0.19866 0.01229 0.0
C909 C 0.78901 0.20747 0.87144 0.0
C910 C 0.77821 0.18805 0.89401 0.0
C911 C 0.78405 0.18561 0.93963 0.0
C912 C 0.76158 0.16974 0.86993 0.0
C913 C 0.78395 0.21079 0.82169 0.0
C914 C 0.74363 0.16938 0.85439 0.0
C915 C 0.7285 0.15231 0.82984 0.0
C916 C 0.73101 0.13524 0.82086 0.0
C917 C 0.74866 0.13538 0.83806 0.0
C918 C 0.76379 0.15246 0.86234 0.0
H919 H 0.79665 0.22501 0.80567 0.0
H920 H 0.78076 0.19752 0.7987 0.0
H921 H 0.76998 0.21232 0.82236 0.0
H922 H 0.7414 0.18236 0.8609 0.0
H923 H 0.71501 0.15261 0.81734 0.0
H924 H 0.55682 0.84212 0.19825 0.0
H925 H 0.55245 0.81263 0.15198 0.0
H926 H 0.61468 0.84855 0.10048 0.0
H927 H 0.61934 0.87799 0.14713 0.0
H928 H 0.55584 0.80768 0.05588 0.0
H929 H 0.61368 0.79794 0.15712 0.0
H930 H 0.60366 0.81401 0.17749 0.0
H931 H 0.62371 0.82341 0.13362 0.0
C932 C 0.56956 0.84378 0.17692 0.0
C933 C 0.58851 0.86234 0.17674 0.0
C934 C 0.56702 0.82691 0.15055 0.0
C935 C 0.58338 0.82829 0.12367 0.0
C936 C 0.60204 0.84702 0.12196 0.0
H937 H 0.58532 0.75391 0.89646 0.0
H938 H 0.58319 0.77904 0.9472 0.0
C939 C 0.60462 0.86387 0.14841 0.0
C940 C 0.58103 0.81015 0.09748 0.0
H941 H 0.60215 0.77935 0.08456 0.0
C942 C 0.56583 0.80136 0.06236 0.0
C943 C 0.59381 0.80167 0.10673 0.0
C944 C 0.60949 0.80959 0.14612 0.0
C945 C 0.56362 0.78478 0.03489 0.0
C946 C 0.57722 0.7771 0.04227 0.0
C947 C 0.59187 0.78539 0.07864 0.0
C948 C 0.57721 0.76117 0.01133 0.0
C949 C 0.54672 0.77564 0.99833 0.0
C950 C 0.57497 0.74292 0.03068 0.0
C951 C 0.57641 0.72856 0.00177 0.0
C952 C 0.58022 0.73229 0.95305 0.0
C953 C 0.58225 0.75049 0.93379 0.0
C954 C 0.58088 0.76483 0.96269 0.0
H955 H 0.53396 0.77854 0.00729 0.0
H956 H 0.55304 0.7829 0.96353 0.0
H957 H 0.54035 0.75878 0.99484 0.0
H958 H 0.57228 0.73988 0.06823 0.0
H959 H 0.57481 0.7147 0.01768 0.0
H960 H 0.74115 0.62212 0.31189 0.0
H961 H 0.76521 0.61759 0.26203 0.0
H962 H 0.74121 0.556 0.31603 0.0
H963 H 0.71682 0.56023 0.36545 0.0
H964 H 0.7955 0.60978 0.29274 0.0
H965 H 0.74083 0.54762 0.17331 0.0
H966 H 0.73326 0.56243 0.20996 0.0
H967 H 0.7359 0.54187 0.23522 0.0
C968 C 0.74081 0.60752 0.31279 0.0
C969 C 0.72706 0.59153 0.34261 0.0
C970 C 0.75459 0.60498 0.28434 0.0
C971 C 0.75485 0.58641 0.28503 0.0
C972 C 0.74099 0.57032 0.3143 0.0
H973 H 0.85911 0.57595 0.18031 0.0
H974 H 0.83212 0.57514 0.23065 0.0
C975 C 0.72713 0.57281 0.34267 0.0
C976 C 0.77034 0.58433 0.2568 0.0
H977 H 0.77593 0.55672 0.16791 0.0
C978 C 0.79125 0.59818 0.26543 0.0
C979 C 0.76469 0.56926 0.22107 0.0
C980 C 0.74246 0.55455 0.20892 0.0
C981 C 0.80671 0.59745 0.23913 0.0
C982 C 0.80109 0.58216 0.2039 0.0
C983 C 0.78017 0.56827 0.19533 0.0
C984 C 0.81666 0.58119 0.17353 0.0
C985 C 0.82889 0.61343 0.24832 0.0
C986 C 0.81644 0.58412 0.12461 0.0
C987 C 0.83168 0.58441 0.09578 0.0
C988 C 0.84743 0.58175 0.11535 0.0
C989 C 0.84727 0.5782 0.16423 0.0
C990 C 0.83194 0.57784 0.19306 0.0
H991 H 0.83027 0.62679 0.26845 0.0
H992 H 0.83628 0.60642 0.26944 0.0
H993 H 0.83753 0.61913 0.21461 0.0
H994 H 0.80473 0.58667 0.10884 0.0
H995 H 0.83129 0.58711 0.05826 0.0
H996 H 0.13366 0.71591 0.48028 0.0
H997 H 0.15934 0.74034 0.42497 0.0
H998 H 0.20252 0.76825 0.53962 0.0
H999 H 0.1771 0.74376 0.59506 0.0
H1000 H 0.17692 0.78286 0.42966 0.0
H1001 H 0.23706 0.76047 0.43866 0.0
H1002 H 0.21113 0.744 0.4597 0.0
H1003 H 0.22935 0.76519 0.49525 0.0
C1004 C 0.14871 0.72707 0.49365 0.0
C1005 C 0.15334 0.7279 0.54208 0.0
C1006 C 0.16335 0.74101 0.462 0.0
C1007 C 0.18289 0.75593 0.47814 0.0
C1008 C 0.18768 0.75659 0.52629 0.0
H1009 H 0.28633 0.8633 0.35209 0.0
H1010 H 0.26251 0.83604 0.40555 0.0
C1011 C 0.17307 0.74265 0.55797 0.0
C1012 C 0.19773 0.7717 0.4452 0.0
H1013 H 0.24618 0.79201 0.39952 0.0
C1014 C 0.192 0.78477 0.42277 0.0
C1015 C 0.21744 0.77421 0.43663 0.0
C1016 C 0.2241 0.76012 0.45847 0.0
C1017 C 0.20558 0.80052 0.39246 0.0
C1018 C 0.22528 0.80303 0.38387 0.0
C1019 C 0.23105 0.79 0.40631 0.0
C1020 C 0.24 0.81904 0.35128 0.0
C1021 C 0.19892 0.81462 0.37063 0.0
C1022 C 0.23533 0.81823 0.30305 0.0
C1023 C 0.24885 0.83372 0.27248 0.0
C1024 C 0.26733 0.85028 0.28961 0.0
C1025 C 0.27218 0.85079 0.33784 0.0
C1026 C 0.25863 0.83524 0.3684 0.0
H1027 H 0.1855 0.81377 0.38939 0.0
H1028 H 0.21171 0.83083 0.37095 0.0
H1029 H 0.1944 0.81004 0.33327 0.0
H1030 H 0.22115 0.80565 0.28909 0.0
H1031 H 0.2447 0.83278 0.2355 0.0
loop_
_geom_bond_atom_site_label_1
_geom_bond_atom_site_label_2
_geom_bond_distance
_geom_bond_site_symmetry_2
_ccdc_geom_bond_type
Mg0 O1 2.028 . S
Mg0 O7 1.986 . S
Mg0 O9 2.114 . S
Mg0 O10 2.251 . S
Mg0 O13 2.010 . S
O1 Mg0 2.028 . S
O1 C4 1.250 . S
O2 Mg3 2.028 . S
O2 C4 1.248 . S
Mg3 O2 2.028 . S
Mg3 O8 2.032 . S
Mg3 O10 2.079 . S
C4 O1 1.250 . S
C4 O2 1.248 . S
C5 O6 1.264 . S
C5 O13 1.249 . S
O6 C5 1.264 . S
O7 Mg0 1.986 . S
O7 C11 1.246 . S
O8 Mg3 2.032 . S
O8 C11 1.259 . S
O9 Mg0 2.114 . S
O9 C12 1.252 . S
O10 Mg0 2.251 . S
O10 Mg3 2.079 . S
O10 C12 1.273 . S
C11 O7 1.246 . S
C11 O8 1.259 . S
C12 O9 1.252 . S
C12 O10 1.273 . S
O13 Mg0 2.010 . S
O13 C5 1.249 . S
Mg14 O15 2.028 . S
Mg14 O21 1.986 . S
Mg14 O23 2.114 . S
Mg14 O24 2.251 . S
Mg14 O27 2.010 . S
O15 Mg14 2.028 . S
O15 C18 1.250 . S
O16 Mg17 2.028 . S
O16 C18 1.248 . S
Mg17 O16 2.028 . S
Mg17 O22 2.032 . S
Mg17 O24 2.079 . S
C18 O15 1.250 . S
C18 O16 1.248 . S
C19 O20 1.264 . S
C19 O27 1.249 . S
O20 C19 1.264 . S
O21 Mg14 1.986 . S
O21 C25 1.246 . S
O22 Mg17 2.032 . S
O22 C25 1.259 . S
O23 Mg14 2.114 . S
O23 C26 1.252 . S
O24 Mg14 2.251 . S
O24 Mg17 2.079 . S
O24 C26 1.273 . S
C25 O21 1.246 . S
C25 O22 1.259 . S
C26 O23 1.252 . S
C26 O24 1.273 . S
O27 Mg14 2.010 . S
O27 C19 1.249 . S
Mg28 O29 2.028 . S
Mg28 O35 1.986 . S
Mg28 O37 2.114 . S
Mg28 O38 2.251 . S
Mg28 O41 2.010 . S
O29 Mg28 2.028 . S
O29 C32 1.250 . S
O30 Mg31 2.028 . S
O30 C32 1.248 . S
Mg31 O30 2.028 . S
Mg31 O36 2.032 . S
Mg31 O38 2.079 . S
C32 O29 1.250 . S
C32 O30 1.248 . S
C33 O34 1.264 . S
C33 O41 1.249 . S
O34 C33 1.264 . S
O35 Mg28 1.986 . S
O35 C39 1.246 . S
O36 Mg31 2.032 . S
O36 C39 1.259 . S
O37 Mg28 2.114 . S
O37 C40 1.252 . S
O38 Mg28 2.251 . S
O38 Mg31 2.079 . S
O38 C40 1.273 . S
C39 O35 1.246 . S
C39 O36 1.259 . S
C40 O37 1.252 . S
C40 O38 1.273 . S
O41 Mg28 2.010 . S
O41 C33 1.249 . S
Mg42 O43 2.028 . S
Mg42 O49 1.986 . S
Mg42 O51 2.114 . S
Mg42 O52 2.251 . S
Mg42 O55 2.010 . S
O43 Mg42 2.028 . S
O43 C46 1.250 . S
O44 Mg45 2.028 . S
O44 C46 1.248 . S
Mg45 O44 2.028 . S
Mg45 O50 2.032 . S
Mg45 O52 2.079 . S
C46 O43 1.250 . S
C46 O44 1.248 . S
C47 O48 1.264 . S
C47 O55 1.249 . S
O48 C47 1.264 . S
O49 Mg42 1.986 . S
O49 C53 1.246 . S
O50 Mg45 2.032 . S
O50 C53 1.259 . S
O51 Mg42 2.114 . S
O51 C54 1.252 . S
O52 Mg42 2.251 . S
O52 Mg45 2.079 . S
O52 C54 1.273 . S
C53 O49 1.246 . S
C53 O50 1.259 . S
C54 O51 1.252 . S
C54 O52 1.273 . S
O55 Mg42 2.010 . S
O55 C47 1.249 . S
Mg56 O57 2.028 . S
Mg56 O63 1.986 . S
Mg56 O65 2.114 . S
Mg56 O66 2.251 . S
Mg56 O69 2.010 . S
O57 Mg56 2.028 . S
O57 C60 1.250 . S
O58 Mg59 2.028 . S
O58 C60 1.248 . S
Mg59 O58 2.028 . S
Mg59 O64 2.032 . S
Mg59 O66 2.079 . S
C60 O57 1.250 . S
C60 O58 1.248 . S
C61 O62 1.264 . S
C61 O69 1.249 . S
O62 C61 1.264 . S
O63 Mg56 1.986 . S
O63 C67 1.246 . S
O64 Mg59 2.032 . S
O64 C67 1.259 . S
O65 Mg56 2.114 . S
O65 C68 1.252 . S
O66 Mg56 2.251 . S
O66 Mg59 2.079 . S
O66 C68 1.273 . S
C67 O63 1.246 . S
C67 O64 1.259 . S
C68 O65 1.252 . S
C68 O66 1.273 . S
O69 Mg56 2.010 . S
O69 C61 1.249 . S
Mg70 O71 2.028 . S
Mg70 O77 1.986 . S
Mg70 O79 2.114 . S
Mg70 O80 2.251 . S
Mg70 O83 2.010 . S
O71 Mg70 2.028 . S
O71 C74 1.250 . S
O72 Mg73 2.028 . S
O72 C74 1.248 . S
Mg73 O72 2.028 . S
Mg73 O78 2.032 . S
Mg73 O80 2.079 . S
C74 O71 1.250 . S
C74 O72 1.248 . S
C75 O76 1.264 . S
C75 O83 1.249 . S
O76 C75 1.264 . S
O77 Mg70 1.986 . S
O77 C81 1.246 . S
O78 Mg73 2.032 . S
O78 C81 1.259 . S
O79 Mg70 2.114 . S
O79 C82 1.252 . S
O80 Mg70 2.251 . S
O80 Mg73 2.079 . S
O80 C82 1.273 . S
C81 O77 1.246 . S
C81 O78 1.259 . S
C82 O79 1.252 . S
C82 O80 1.273 . S
O83 Mg70 2.010 . S
O83 C75 1.249 . S
Mg84 O85 2.028 . S
Mg84 O91 1.986 . S
Mg84 O93 2.114 . S
Mg84 O94 2.251 . S
Mg84 O97 2.010 . S
O85 Mg84 2.028 . S
O85 C88 1.250 . S
O86 Mg87 2.028 . S
O86 C88 1.248 . S
Mg87 O86 2.028 . S
Mg87 O92 2.032 . S
Mg87 O94 2.079 . S
C88 O85 1.250 . S
C88 O86 1.248 . S
C89 O90 1.264 . S
C89 O97 1.249 . S
O90 C89 1.264 . S
O91 Mg84 1.986 . S
O91 C95 1.246 . S
O92 Mg87 2.032 . S
O92 C95 1.259 . S
O93 Mg84 2.114 . S
O93 C96 1.252 . S
O94 Mg84 2.251 . S
O94 Mg87 2.079 . S
O94 C96 1.273 . S
C95 O91 1.246 . S
C95 O92 1.259 . S
C96 O93 1.252 . S
C96 O94 1.273 . S
O97 Mg84 2.010 . S
O97 C89 1.249 . S
Mg98 O99 2.028 . S
Mg98 O105 1.986 . S
Mg98 O107 2.114 . S
Mg98 O108 2.251 . S
Mg98 O111 2.010 . S
O99 Mg98 2.028 . S
O99 C102 1.250 . S
O100 Mg101 2.028 . S
O100 C102 1.248 . S
Mg101 O100 2.028 . S
Mg101 O106 2.032 . S
Mg101 O108 2.079 . S
C102 O99 1.250 . S
C102 O100 1.248 . S
C103 O104 1.264 . S
C103 O111 1.249 . S
O104 C103 1.264 . S
O105 Mg98 1.986 . S
O105 C109 1.246 . S
O106 Mg101 2.032 . S
O106 C109 1.259 . S
O107 Mg98 2.114 . S
O107 C110 1.252 . S
O108 Mg98 2.251 . S
O108 Mg101 2.079 . S
O108 C110 1.273 . S
C109 O105 1.246 . S
C109 O106 1.259 . S
C110 O107 1.252 . S
C110 O108 1.273 . S
O111 Mg98 2.010 . S
O111 C103 1.249 . S
Mg112 O113 2.028 . S
Mg112 O119 1.986 . S
Mg112 O121 2.114 . S
Mg112 O122 2.251 . S
Mg112 O125 2.010 . S
O113 Mg112 2.028 . S
O113 C116 1.250 . S
O114 Mg115 2.028 . S
O114 C116 1.248 . S
Mg115 O114 2.028 . S
Mg115 O120 2.032 . S
Mg115 O122 2.079 . S
C116 O113 1.250 . S
C116 O114 1.248 . S
C117 O118 1.264 . S
C117 O125 1.249 . S
O118 C117 1.264 . S
O119 Mg112 1.986 . S
O119 C123 1.246 . S
O120 Mg115 2.032 . S
O120 C123 1.259 . S
O121 Mg112 2.114 . S
O121 C124 1.252 . S
O122 Mg112 2.251 . S
O122 Mg115 2.079 . S
O122 C124 1.273 . S
C123 O119 1.246 . S
C123 O120 1.259 . S
C124 O121 1.252 . S
C124 O122 1.273 . S
O125 Mg112 2.010 . S
O125 C117 1.249 . S
Mg126 O127 2.028 . S
Mg126 O133 1.986 . S
Mg126 O135 2.114 . S
Mg126 O136 2.251 . S
Mg126 O139 2.010 . S
O127 Mg126 2.028 . S
O127 C130 1.250 . S
O128 Mg129 2.028 . S
O128 C130 1.248 . S
Mg129 O128 2.028 . S
Mg129 O134 2.032 . S
Mg129 O136 2.079 . S
C130 O127 1.250 . S
C130 O128 1.248 . S
C131 O132 1.264 . S
C131 O139 1.249 . S
O132 C131 1.264 . S
O133 Mg126 1.986 . S
O133 C137 1.246 . S
O134 Mg129 2.032 . S
O134 C137 1.259 . S
O135 Mg126 2.114 . S
O135 C138 1.252 . S
O136 Mg126 2.251 . S
O136 Mg129 2.079 . S
O136 C138 1.273 . S
C137 O133 1.246 . S
C137 O134 1.259 . S
C138 O135 1.252 . S
C138 O136 1.273 . S
O139 Mg126 2.010 . S
O139 C131 1.249 . S
Mg140 O141 2.028 . S
Mg140 O147 1.986 . S
Mg140 O149 2.114 . S
Mg140 O150 2.251 . S
Mg140 O153 2.010 . S
O141 Mg140 2.028 . S
O141 C144 1.250 . S
O142 Mg143 2.028 . S
O142 C144 1.248 . S
Mg143 O142 2.028 . S
Mg143 O148 2.032 . S
Mg143 O150 2.079 . S
C144 O141 1.250 . S
C144 O142 1.248 . S
C145 O146 1.264 . S
C145 O153 1.249 . S
O146 C145 1.264 . S
O147 Mg140 1.986 . S
O147 C151 1.246 . S
O148 Mg143 2.032 . S
O148 C151 1.259 . S
O149 Mg140 2.114 . S
O149 C152 1.252 . S
O150 Mg140 2.251 . S
O150 Mg143 2.079 . S
O150 C152 1.273 . S
C151 O147 1.246 . S
C151 O148 1.259 . S
C152 O149 1.252 . S
C152 O150 1.273 . S
O153 Mg140 2.010 . S
O153 C145 1.249 . S
Mg154 O155 2.028 . S
Mg154 O161 1.986 . S
Mg154 O163 2.114 . S
Mg154 O164 2.251 . S
Mg154 O167 2.010 . S
O155 Mg154 2.028 . S
O155 C158 1.250 . S
O156 Mg157 2.028 . S
O156 C158 1.248 . S
Mg157 O156 2.028 . S
Mg157 O162 2.032 . S
Mg157 O164 2.079 . S
C158 O155 1.250 . S
C158 O156 1.248 . S
C159 O160 1.264 . S
C159 O167 1.249 . S
O160 C159 1.264 . S
O161 Mg154 1.986 . S
O161 C165 1.246 . S
O162 Mg157 2.032 . S
O162 C165 1.259 . S
O163 Mg154 2.114 . S
O163 C166 1.252 . S
O164 Mg154 2.251 . S
O164 Mg157 2.079 . S
O164 C166 1.273 . S
C165 O161 1.246 . S
C165 O162 1.259 . S
C166 O163 1.252 . S
C166 O164 1.273 . S
O167 Mg154 2.010 . S
O167 C159 1.249 . S
H168 C176 0.929 . S
H169 C178 0.930 . S
H170 C180 0.930 . S
H171 C183 0.929 . S
H172 C186 0.930 . S
H173 C188 0.960 . S
H174 C188 0.960 . S
H175 C188 0.960 . S
C176 H168 0.929 . S
C176 C177 1.377 . S
C176 C178 1.384 . S
C177 C176 1.377 . S
C177 C183 1.390 . S
C178 H169 0.930 . S
C178 C176 1.384 . S
C178 C179 1.372 . S
C179 C178 1.372 . S
C179 C180 1.400 . S
C179 C184 1.490 . S
C180 H170 0.930 . S
C180 C179 1.400 . S
C180 C183 1.386 . S
H181 C197 0.930 . S
H182 C198 0.931 . S
C183 H171 0.929 . S
C183 C177 1.390 . S
C183 C180 1.386 . S
C184 C179 1.490 . S
C184 C186 1.395 . S
C184 C187 1.403 . S
H185 C191 0.930 . S
C186 H172 0.930 . S
C186 C184 1.395 . S
C186 C189 1.403 . S
C187 C184 1.403 . S
C187 C188 1.524 . S
C187 C191 1.400 . S
C188 H173 0.960 . S
C188 H174 0.960 . S
C188 H175 0.960 . S
C188 C187 1.524 . S
C189 C186 1.403 . S
C189 C190 1.392 . S
C189 C193 1.495 . S
C190 C189 1.392 . S
C190 C191 1.385 . S
C190 C192 1.478 . S
C191 H185 0.930 . S
C191 C187 1.400 . S
C191 C190 1.385 . S
C192 C190 1.478 . S
C192 C194 1.381 . S
C192 C198 1.383 . S
C193 C189 1.495 . S
C193 H199 0.959 . S
C193 H200 0.961 . S
C193 H201 0.960 . S
C194 C192 1.381 . S
C194 C195 1.394 . S
C194 H202 0.930 . S
C195 C194 1.394 . S
C195 C196 1.383 . S
C195 H203 0.929 . S
C196 C195 1.383 . S
C196 C197 1.377 . S
C197 H181 0.930 . S
C197 C196 1.377 . S
C197 C198 1.379 . S
C198 H182 0.931 . S
C198 C192 1.383 . S
C198 C197 1.379 . S
H199 C193 0.959 . S
H200 C193 0.961 . S
H201 C193 0.960 . S
H202 C194 0.930 . S
H203 C195 0.929 . S
H204 C212 0.929 . S
H205 C214 0.930 . S
H206 C216 0.930 . S
H207 C219 0.929 . S
H208 C222 0.930 . S
H209 C224 0.960 . S
H210 C224 0.960 . S
H211 C224 0.960 . S
C212 H204 0.929 . S
C212 C213 1.377 . S
C212 C214 1.384 . S
C213 C212 1.377 . S
C213 C219 1.390 . S
C214 H205 0.930 . S
C214 C212 1.384 . S
C214 C215 1.372 . S
C215 C214 1.372 . S
C215 C216 1.400 . S
C215 C220 1.490 . S
C216 H206 0.930 . S
C216 C215 1.400 . S
C216 C219 1.386 . S
H217 C233 0.930 . S
H218 C234 0.931 . S
C219 H207 0.929 . S
C219 C213 1.390 . S
C219 C216 1.386 . S
C220 C215 1.490 . S
C220 C222 1.395 1_455 S
C220 C223 1.403 . S
H221 C227 0.930 . S
C222 H208 0.930 . S
C222 C220 1.395 1_655 S
C222 C225 1.403 . S
C223 C220 1.403 . S
C223 C224 1.524 . S
C223 C227 1.400 . S
C224 H209 0.960 . S
C224 H210 0.960 . S
C224 H211 0.960 . S
C224 C223 1.524 . S
C225 C222 1.403 . S
C225 C226 1.392 . S
C225 C229 1.495 . S
C226 C225 1.392 . S
C226 C227 1.385 1_655 S
C226 C228 1.478 . S
C227 H221 0.930 . S
C227 C223 1.400 . S
C227 C226 1.385 1_455 S
C228 C226 1.478 . S
C228 C230 1.381 . S
C228 C234 1.383 . S
C229 C225 1.495 . S
C229 H235 0.959 . S
C229 H236 0.961 . S
C229 H237 0.960 . S
C230 C228 1.381 . S
C230 C231 1.394 . S
C230 H238 0.930 . S
C231 C230 1.394 . S
C231 C232 1.383 . S
C231 H239 0.929 . S
C232 C231 1.383 . S
C232 C233 1.377 . S
C233 H217 0.930 . S
C233 C232 1.377 . S
C233 C234 1.379 . S
C234 H218 0.931 . S
C234 C228 1.383 . S
C234 C233 1.379 . S
H235 C229 0.959 . S
H236 C229 0.961 . S
H237 C229 0.960 . S
H238 C230 0.930 . S
H239 C231 0.929 . S
H240 C248 0.929 . S
H241 C250 0.930 . S
H242 C252 0.930 . S
H243 C255 0.929 . S
H244 C258 0.930 . S
H245 C260 0.960 . S
H246 C260 0.960 . S
H247 C260 0.960 . S
C248 H240 0.929 . S
C248 C249 1.377 . S
C248 C250 1.384 . S
C249 C248 1.377 . S
C249 C255 1.390 . S
C250 H241 0.930 . S
C250 C248 1.384 . S
C250 C251 1.372 . S
C251 C250 1.372 . S
C251 C252 1.400 . S
C251 C256 1.490 . S
C252 H242 0.930 . S
C252 C251 1.400 . S
C252 C255 1.386 . S
H253 C269 0.930 . S
H254 C270 0.931 . S
C255 H243 0.929 . S
C255 C249 1.390 . S
C255 C252 1.386 . S
C256 C251 1.490 . S
C256 C258 1.395 . S
C256 C259 1.403 1_565 S
H257 C263 0.930 . S
C258 H244 0.930 . S
C258 C256 1.395 . S
C258 C261 1.403 . S
C259 C256 1.403 1_545 S
C259 C260 1.524 . S
C259 C263 1.400 . S
C260 H245 0.960 . S
C260 H246 0.960 . S
C260 H247 0.960 . S
C260 C259 1.524 . S
C261 C258 1.403 . S
C261 C262 1.392 1_565 S
C261 C265 1.495 . S
C262 C261 1.392 1_545 S
C262 C263 1.385 . S
C262 C264 1.478 . S
C263 H257 0.930 . S
C263 C259 1.400 . S
C263 C262 1.385 . S
C264 C262 1.478 . S
C264 C266 1.381 . S
C264 C270 1.383 . S
C265 C261 1.495 . S
C265 H271 0.959 . S
C265 H272 0.961 . S
C265 H273 0.960 . S
C266 C264 1.381 . S
C266 C267 1.394 . S
C266 H274 0.930 . S
C267 C266 1.394 . S
C267 C268 1.383 . S
C267 H275 0.929 . S
C268 C267 1.383 . S
C268 C269 1.377 . S
C269 H253 0.930 . S
C269 C268 1.377 . S
C269 C270 1.379 . S
C270 H254 0.931 . S
C270 C264 1.383 . S
C270 C269 1.379 . S
H271 C265 0.959 . S
H272 C265 0.961 . S
H273 C265 0.960 . S
H274 C266 0.930 . S
H275 C267 0.929 . S
H276 C284 0.929 . S
H277 C286 0.930 . S
H278 C288 0.930 . S
H279 C291 0.929 . S
H280 C294 0.930 . S
H281 C296 0.960 . S
H282 C296 0.960 . S
H283 C296 0.960 . S
C284 H276 0.929 . S
C284 C285 1.377 . S
C284 C286 1.384 . S
C285 C284 1.377 . S
C285 C291 1.390 . S
C286 H277 0.930 . S
C286 C284 1.384 . S
C286 C287 1.372 . S
C287 C286 1.372 . S
C287 C288 1.400 . S
C287 C292 1.490 . S
C288 H278 0.930 . S
C288 C287 1.400 . S
C288 C291 1.386 . S
H289 C305 0.930 . S
H290 C306 0.931 . S
C291 H279 0.929 . S
C291 C285 1.390 . S
C291 C288 1.386 . S
C292 C287 1.490 . S
C292 C294 1.395 . S
C292 C295 1.403 . S
H293 C299 0.930 . S
C294 H280 0.930 . S
C294 C292 1.395 . S
C294 C297 1.403 . S
C295 C292 1.403 . S
C295 C296 1.524 . S
C295 C299 1.400 . S
C296 H281 0.960 . S
C296 H282 0.960 . S
C296 H283 0.960 . S
C296 C295 1.524 . S
C297 C294 1.403 . S
C297 C298 1.392 . S
C297 C301 1.495 . S
C298 C297 1.392 . S
C298 C299 1.385 . S
C298 C300 1.478 . S
C299 H293 0.930 . S
C299 C295 1.400 . S
C299 C298 1.385 . S
C300 C298 1.478 . S
C300 C302 1.381 . S
C300 C306 1.383 . S
C301 C297 1.495 . S
C301 H307 0.959 . S
C301 H308 0.961 . S
C301 H309 0.960 . S
C302 C300 1.381 . S
C302 C303 1.394 . S
C302 H310 0.930 . S
C303 C302 1.394 . S
C303 C304 1.383 . S
C303 H311 0.929 . S
C304 C303 1.383 . S
C304 C305 1.377 . S
C305 H289 0.930 . S
C305 C304 1.377 . S
C305 C306 1.379 . S
C306 H290 0.931 . S
C306 C300 1.383 . S
C306 C305 1.379 . S
H307 C301 0.959 . S
H308 C301 0.961 . S
H309 C301 0.960 . S
H310 C302 0.930 . S
H311 C303 0.929 . S
H312 C320 0.929 . S
H313 C322 0.930 . S
H314 C324 0.930 . S
H315 C327 0.929 . S
H316 C330 0.930 . S
H317 C332 0.960 . S
H318 C332 0.960 . S
H319 C332 0.960 . S
C320 H312 0.929 . S
C320 C321 1.377 . S
C320 C322 1.384 . S
C321 C320 1.377 . S
C321 C327 1.390 . S
C322 H313 0.930 . S
C322 C320 1.384 . S
C322 C323 1.372 . S
C323 C322 1.372 . S
C323 C324 1.400 . S
C323 C328 1.490 . S
C324 H314 0.930 . S
C324 C323 1.400 . S
C324 C327 1.386 . S
H325 C341 0.930 . S
H326 C342 0.931 . S
C327 H315 0.929 . S
C327 C321 1.390 . S
C327 C324 1.386 . S
C328 C323 1.490 . S
C328 C330 1.395 1_455 S
C328 C331 1.403 . S
H329 C335 0.930 . S
C330 H316 0.930 . S
C330 C328 1.395 1_655 S
C330 C333 1.403 . S
C331 C328 1.403 . S
C331 C332 1.524 . S
C331 C335 1.400 . S
C332 H317 0.960 . S
C332 H318 0.960 . S
C332 H319 0.960 . S
C332 C331 1.524 . S
C333 C330 1.403 . S
C333 C334 1.392 . S
C333 C337 1.495 . S
C334 C333 1.392 . S
C334 C335 1.385 1_655 S
C334 C336 1.478 . S
C335 H329 0.930 . S
C335 C331 1.400 . S
C335 C334 1.385 1_455 S
C336 C334 1.478 . S
C336 C338 1.381 . S
C336 C342 1.383 . S
C337 C333 1.495 . S
C337 H343 0.959 . S
C337 H344 0.961 . S
C337 H345 0.960 . S
C338 C336 1.381 . S
C338 C339 1.394 . S
C338 H346 0.930 . S
C339 C338 1.394 . S
C339 C340 1.383 . S
C339 H347 0.929 . S
C340 C339 1.383 . S
C340 C341 1.377 . S
C341 H325 0.930 . S
C341 C340 1.377 . S
C341 C342 1.379 . S
C342 H326 0.931 . S
C342 C336 1.383 . S
C342 C341 1.379 . S
H343 C337 0.959 . S
H344 C337 0.961 . S
H345 C337 0.960 . S
H346 C338 0.930 . S
H347 C339 0.929 . S
H348 C356 0.929 . S
H349 C358 0.930 . S
H350 C360 0.930 . S
H351 C363 0.929 . S
H352 C366 0.930 . S
H353 C368 0.960 . S
H354 C368 0.960 . S
H355 C368 0.948 1_556 S
C356 H348 0.929 . S
C356 C357 1.377 . S
C356 C358 1.384 . S
C357 C356 1.377 . S
C357 C363 1.390 . S
C358 H349 0.930 . S
C358 C356 1.384 . S
C358 C359 1.372 . S
C359 C358 1.372 . S
C359 C360 1.400 . S
C359 C364 1.490 . S
C360 H350 0.930 . S
C360 C359 1.400 . S
C360 C363 1.386 . S
H361 C377 0.930 . S
H362 C378 0.931 . S
C363 H351 0.929 . S
C363 C357 1.390 . S
C363 C360 1.386 . S
C364 C359 1.490 . S
C364 C366 1.395 1_545 S
C364 C367 1.403 1_556 S
H365 C371 0.930 . S
C366 H352 0.930 . S
C366 C364 1.395 1_565 S
C366 C369 1.403 . S
C367 C364 1.403 1_554 S
C367 C368 1.524 . S
C367 C371 1.400 . S
C368 H353 0.960 . S
C368 H354 0.960 . S
C368 H355 0.948 1_554 S
C368 C367 1.524 . S
C369 C366 1.403 . S
C369 C370 1.392 1_556 S
C369 C373 1.495 . S
C370 C369 1.392 1_554 S
C370 C371 1.385 1_565 S
C370 C372 1.478 . S
C371 H365 0.930 . S
C371 C367 1.400 . S
C371 C370 1.385 1_545 S
C372 C370 1.478 . S
C372 C374 1.381 . S
C372 C378 1.383 . S
C373 C369 1.495 . S
C373 H379 0.959 . S
C373 H380 0.961 . S
C373 H381 0.960 . S
C374 C372 1.381 . S
C374 C375 1.394 . S
C374 H382 0.930 . S
C375 C374 1.394 . S
C375 C376 1.383 . S
C375 H383 0.929 . S
C376 C375 1.383 . S
C376 C377 1.377 . S
C377 H361 0.930 . S
C377 C376 1.377 . S
C377 C378 1.379 . S
C378 H362 0.931 . S
C378 C372 1.383 . S
C378 C377 1.379 . S
H379 C373 0.959 . S
H380 C373 0.961 . S
H381 C373 0.960 . S
H382 C374 0.930 . S
H383 C375 0.929 . S
H384 C392 0.929 . S
H385 C394 0.930 . S
H386 C396 0.930 . S
H387 C399 0.929 . S
H388 C402 0.930 . S
H389 C404 0.960 . S
H390 C404 0.960 . S
H391 C404 0.960 . S
C392 H384 0.929 . S
C392 C393 1.377 . S
C392 C394 1.384 . S
C393 C392 1.377 . S
C393 C399 1.390 . S
C394 H385 0.930 . S
C394 C392 1.384 . S
C394 C395 1.372 . S
C395 C394 1.372 . S
C395 C396 1.400 . S
C395 C400 1.490 . S
C396 H386 0.930 . S
C396 C395 1.400 . S
C396 C399 1.386 . S
H397 C413 0.930 . S
H398 C414 0.931 . S
C399 H387 0.929 . S
C399 C393 1.390 . S
C399 C396 1.386 . S
C400 C395 1.490 . S
C400 C402 1.395 . S
C400 C403 1.403 . S
H401 C407 0.930 . S
C402 H388 0.930 . S
C402 C400 1.395 . S
C402 C405 1.403 . S
C403 C400 1.403 . S
C403 C404 1.524 . S
C403 C407 1.400 . S
C404 H389 0.960 . S
C404 H390 0.960 . S
C404 H391 0.960 . S
C404 C403 1.524 . S
C405 C402 1.403 . S
C405 C406 1.392 . S
C405 C409 1.495 . S
C406 C405 1.392 . S
C406 C407 1.385 . S
C406 C408 1.478 . S
C407 H401 0.930 . S
C407 C403 1.400 . S
C407 C406 1.385 . S
C408 C406 1.478 . S
C408 C410 1.381 . S
C408 C414 1.383 . S
C409 C405 1.495 . S
C409 H415 0.959 . S
C409 H416 0.961 . S
C409 H417 0.960 . S
C410 C408 1.381 . S
C410 C411 1.394 . S
C410 H418 0.930 . S
C411 C410 1.394 . S
C411 C412 1.383 . S
C411 H419 0.929 . S
C412 C411 1.383 . S
C412 C413 1.377 . S
C413 H397 0.930 . S
C413 C412 1.377 . S
C413 C414 1.379 . S
C414 H398 0.931 . S
C414 C408 1.383 . S
C414 C413 1.379 . S
H415 C409 0.959 . S
H416 C409 0.961 . S
H417 C409 0.960 . S
H418 C410 0.930 . S
H419 C411 0.929 . S
H420 C428 0.929 . S
H421 C430 0.930 . S
H422 C432 0.930 . S
H423 C435 0.929 . S
H424 C438 0.930 . S
H425 C440 0.960 . S
H426 C440 0.960 . S
H427 C440 0.960 . S
C428 H420 0.929 . S
C428 C429 1.377 . S
C428 C430 1.384 . S
C429 C428 1.377 . S
C429 C435 1.390 . S
C430 H421 0.930 . S
C430 C428 1.384 . S
C430 C431 1.372 . S
C431 C430 1.372 . S
C431 C432 1.400 . S
C431 C436 1.490 . S
C432 H422 0.930 . S
C432 C431 1.400 . S
C432 C435 1.386 . S
H433 C449 0.930 . S
H434 C450 0.931 . S
C435 H423 0.929 . S
C435 C429 1.390 . S
C435 C432 1.386 . S
C436 C431 1.490 . S
C436 C438 1.395 . S
C436 C439 1.403 . S
H437 C443 0.930 . S
C438 H424 0.930 . S
C438 C436 1.395 . S
C438 C441 1.403 . S
C439 C436 1.403 . S
C439 C440 1.524 . S
C439 C443 1.400 . S
C440 H425 0.960 . S
C440 H426 0.960 . S
C440 H427 0.960 . S
C440 C439 1.524 . S
C441 C438 1.403 . S
C441 C442 1.392 . S
C441 C445 1.495 . S
C442 C441 1.392 . S
C442 C443 1.385 . S
C442 C444 1.478 . S
C443 H437 0.930 . S
C443 C439 1.400 . S
C443 C442 1.385 . S
C444 C442 1.478 . S
C444 C446 1.381 . S
C444 C450 1.383 . S
C445 C441 1.495 . S
C445 H451 0.959 . S
C445 H452 0.961 . S
C445 H453 0.960 . S
C446 C444 1.381 . S
C446 C447 1.394 . S
C446 H454 0.930 . S
C447 C446 1.394 . S
C447 C448 1.383 . S
C447 H455 0.929 . S
C448 C447 1.383 . S
C448 C449 1.377 . S
C449 H433 0.930 . S
C449 C448 1.377 . S
C449 C450 1.379 . S
C450 H434 0.931 . S
C450 C444 1.383 . S
C450 C449 1.379 . S
H451 C445 0.959 . S
H452 C445 0.961 . S
H453 C445 0.960 . S
H454 C446 0.930 . S
H455 C447 0.929 . S
H456 C464 0.929 . S
H457 C466 0.930 . S
H458 C468 0.930 . S
H459 C471 0.929 . S
H460 C474 0.930 . S
H461 C476 0.960 . S
H462 C476 0.960 . S
H463 C476 0.960 . S
C464 H456 0.929 . S
C464 C465 1.377 . S
C464 C466 1.384 . S
C465 C464 1.377 . S
C465 C471 1.390 . S
C466 H457 0.930 . S
C466 C464 1.384 . S
C466 C467 1.372 . S
C467 C466 1.372 . S
C467 C468 1.400 . S
C467 C472 1.490 . S
C468 H458 0.930 . S
C468 C467 1.400 . S
C468 C471 1.386 . S
H469 C485 0.930 . S
H470 C486 0.931 . S
C471 H459 0.929 . S
C471 C465 1.390 . S
C471 C468 1.386 . S
C472 C467 1.490 . S
C472 C474 1.395 . S
C472 C475 1.403 . S
H473 C479 0.930 . S
C474 H460 0.930 . S
C474 C472 1.395 . S
C474 C477 1.403 . S
C475 C472 1.403 . S
C475 C476 1.524 . S
C475 C479 1.400 . S
C476 H461 0.960 . S
C476 H462 0.960 . S
C476 H463 0.960 . S
C476 C475 1.524 . S
C477 C474 1.403 . S
C477 C478 1.392 . S
C477 C481 1.495 . S
C478 C477 1.392 . S
C478 C479 1.385 . S
C478 C480 1.478 . S
C479 H473 0.930 . S
C479 C475 1.400 . S
C479 C478 1.385 . S
C480 C478 1.478 . S
C480 C482 1.381 . S
C480 C486 1.383 . S
C481 C477 1.495 . S
C481 H487 0.959 . S
C481 H488 0.961 . S
C481 H489 0.960 . S
C482 C480 1.381 . S
C482 C483 1.394 . S
C482 H490 0.930 . S
C483 C482 1.394 . S
C483 C484 1.383 . S
C483 H491 0.929 . S
C484 C483 1.383 . S
C484 C485 1.377 . S
C485 H469 0.930 . S
C485 C484 1.377 . S
C485 C486 1.379 . S
C486 H470 0.931 . S
C486 C480 1.383 . S
C486 C485 1.379 . S
H487 C481 0.959 . S
H488 C481 0.961 . S
H489 C481 0.960 . S
H490 C482 0.930 . S
H491 C483 0.929 . S
H492 C500 0.929 . S
H493 C502 0.930 . S
H494 C504 0.930 . S
H495 C507 0.929 . S
H496 C510 0.930 . S
H497 C512 0.960 . S
H498 C512 0.960 . S
H499 C512 0.960 . S
C500 H492 0.929 . S
C500 C501 1.377 . S
C500 C502 1.384 . S
C501 C500 1.377 . S
C501 C507 1.390 . S
C502 H493 0.930 . S
C502 C500 1.384 . S
C502 C503 1.372 . S
C503 C502 1.372 . S
C503 C504 1.400 . S
C503 C508 1.490 . S
C504 H494 0.930 . S
C504 C503 1.400 . S
C504 C507 1.386 . S
H505 C521 0.930 . S
H506 C522 0.931 . S
C507 H495 0.929 . S
C507 C501 1.390 . S
C507 C504 1.386 . S
C508 C503 1.490 . S
C508 C510 1.395 . S
C508 C511 1.403 . S
H509 C515 0.930 . S
C510 H496 0.930 . S
C510 C508 1.395 . S
C510 C513 1.403 . S
C511 C508 1.403 . S
C511 C512 1.524 . S
C511 C515 1.400 . S
C512 H497 0.960 . S
C512 H498 0.960 . S
C512 H499 0.960 . S
C512 C511 1.524 . S
C513 C510 1.403 . S
C513 C514 1.392 . S
C513 C517 1.495 . S
C514 C513 1.392 . S
C514 C515 1.385 . S
C514 C516 1.478 . S
C515 H509 0.930 . S
C515 C511 1.400 . S
C515 C514 1.385 . S
C516 C514 1.478 . S
C516 C518 1.381 . S
C516 C522 1.383 . S
C517 C513 1.495 . S
C517 H523 0.959 . S
C517 H524 0.961 . S
C517 H525 0.960 . S
C518 C516 1.381 . S
C518 C519 1.394 . S
C518 H526 0.930 . S
C519 C518 1.394 . S
C519 C520 1.383 . S
C519 H527 0.929 . S
C520 C519 1.383 . S
C520 C521 1.377 . S
C521 H505 0.930 . S
C521 C520 1.377 . S
C521 C522 1.379 . S
C522 H506 0.931 . S
C522 C516 1.383 . S
C522 C521 1.379 . S
H523 C517 0.959 . S
H524 C517 0.961 . S
H525 C517 0.960 . S
H526 C518 0.930 . S
H527 C519 0.929 . S
H528 C536 0.929 . S
H529 C538 0.930 . S
H530 C540 0.930 . S
H531 C543 0.929 . S
H532 C546 0.930 . S
H533 C548 0.960 . S
H534 C548 0.960 . S
H535 C548 0.960 . S
C536 H528 0.929 . S
C536 C537 1.377 . S
C536 C538 1.384 . S
C537 C536 1.377 . S
C537 C543 1.390 . S
C538 H529 0.930 . S
C538 C536 1.384 . S
C538 C539 1.372 . S
C539 C538 1.372 . S
C539 C540 1.400 . S
C539 C544 1.490 . S
C540 H530 0.930 . S
C540 C539 1.400 . S
C540 C543 1.386 . S
H541 C557 0.930 . S
H542 C558 0.931 . S
C543 H531 0.929 . S
C543 C537 1.390 . S
C543 C540 1.386 . S
C544 C539 1.490 . S
C544 C546 1.395 . S
C544 C547 1.403 . S
H545 C551 0.930 . S
C546 H532 0.930 . S
C546 C544 1.395 . S
C546 C549 1.403 . S
C547 C544 1.403 . S
C547 C548 1.524 1_554 S
C547 C551 1.400 . S
C548 H533 0.960 . S
C548 H534 0.960 . S
C548 H535 0.960 . S
C548 C547 1.524 1_556 S
C549 C546 1.403 . S
C549 C550 1.392 . S
C549 C553 1.495 . S
C550 C549 1.392 . S
C550 C551 1.385 . S
C550 C552 1.478 . S
C551 H545 0.930 . S
C551 C547 1.400 . S
C551 C550 1.385 . S
C552 C550 1.478 . S
C552 C554 1.381 . S
C552 C558 1.383 . S
C553 C549 1.495 . S
C553 H559 0.959 . S
C553 H560 0.961 . S
C553 H561 0.960 . S
C554 C552 1.381 . S
C554 C555 1.394 . S
C554 H562 0.930 . S
C555 C554 1.394 . S
C555 C556 1.383 . S
C555 H563 0.929 . S
C556 C555 1.383 . S
C556 C557 1.377 . S
C557 H541 0.930 . S
C557 C556 1.377 . S
C557 C558 1.379 . S
C558 H542 0.931 . S
C558 C552 1.383 . S
C558 C557 1.379 . S
H559 C553 0.959 . S
H560 C553 0.961 . S
H561 C553 0.960 . S
H562 C554 0.930 . S
H563 C555 0.929 . S
H564 C572 0.929 . S
H565 C574 0.930 . S
H566 C576 0.930 . S
H567 C579 0.929 . S
H568 C582 0.930 . S
H569 C584 0.960 . S
H570 C584 0.960 . S
H571 C584 0.960 . S
C572 H564 0.929 . S
C572 C573 1.377 . S
C572 C574 1.384 . S
C573 C572 1.377 . S
C573 C579 1.390 . S
C574 H565 0.930 . S
C574 C572 1.384 . S
C574 C575 1.372 . S
C575 C574 1.372 . S
C575 C576 1.400 . S
C575 C580 1.490 . S
C576 H566 0.930 . S
C576 C575 1.400 . S
C576 C579 1.386 . S
H577 C593 0.930 . S
H578 C594 0.931 . S
C579 H567 0.929 . S
C579 C573 1.390 . S
C579 C576 1.386 . S
C580 C575 1.490 . S
C580 C582 1.395 . S
C580 C583 1.403 . S
H581 C587 0.930 . S
C582 H568 0.930 . S
C582 C580 1.395 . S
C582 C585 1.403 . S
C583 C580 1.403 . S
C583 C584 1.524 . S
C583 C587 1.400 . S
C584 H569 0.960 . S
C584 H570 0.960 . S
C584 H571 0.960 . S
C584 C583 1.524 . S
C585 C582 1.403 . S
C585 C586 1.392 . S
C585 C589 1.495 . S
C586 C585 1.392 . S
C586 C587 1.385 . S
C586 C588 1.478 . S
C587 H581 0.930 . S
C587 C583 1.400 . S
C587 C586 1.385 . S
C588 C586 1.478 . S
C588 C590 1.381 . S
C588 C594 1.383 . S
C589 C585 1.495 . S
C589 H595 0.959 . S
C589 H596 0.961 . S
C589 H597 0.960 . S
C590 C588 1.381 . S
C590 C591 1.394 . S
C590 H598 0.930 . S
C591 C590 1.394 . S
C591 C592 1.383 . S
C591 H599 0.929 . S
C592 C591 1.383 . S
C592 C593 1.377 . S
C593 H577 0.930 . S
C593 C592 1.377 . S
C593 C594 1.379 . S
C594 H578 0.931 . S
C594 C588 1.383 . S
C594 C593 1.379 . S
H595 C589 0.959 . S
H596 C589 0.961 . S
H597 C589 0.960 . S
H598 C590 0.930 . S
H599 C591 0.929 . S
H600 C608 0.929 . S
H601 C610 0.930 . S
H602 C612 0.930 . S
H603 C615 0.929 . S
H604 C618 0.930 . S
H605 C620 0.960 . S
H606 C620 0.960 . S
H607 C620 0.960 . S
C608 H600 0.929 . S
C608 C609 1.377 . S
C608 C610 1.384 . S
C609 C608 1.377 . S
C609 C615 1.390 . S
C610 H601 0.930 . S
C610 C608 1.384 . S
C610 C611 1.372 . S
C611 C610 1.372 . S
C611 C612 1.400 . S
C611 C616 1.490 . S
C612 H602 0.930 . S
C612 C611 1.400 . S
C612 C615 1.386 . S
H613 C629 0.930 . S
H614 C630 0.931 . S
C615 H603 0.929 . S
C615 C609 1.390 . S
C615 C612 1.386 . S
C616 C611 1.490 . S
C616 C618 1.395 . S
C616 C619 1.403 . S
H617 C623 0.930 . S
C618 H604 0.930 . S
C618 C616 1.395 . S
C618 C621 1.403 . S
C619 C616 1.403 . S
C619 C620 1.524 . S
C619 C623 1.400 . S
C620 H605 0.960 . S
C620 H606 0.960 . S
C620 H607 0.960 . S
C620 C619 1.524 . S
C621 C618 1.403 . S
C621 C622 1.392 . S
C621 C625 1.495 . S
C622 C621 1.392 . S
C622 C623 1.385 . S
C622 C624 1.478 . S
C623 H617 0.930 . S
C623 C619 1.400 . S
C623 C622 1.385 . S
C624 C622 1.478 . S
C624 C626 1.381 . S
C624 C630 1.383 . S
C625 C621 1.495 . S
C625 H631 0.959 . S
C625 H632 0.961 . S
C625 H633 0.960 . S
C626 C624 1.381 . S
C626 C627 1.394 . S
C626 H634 0.930 . S
C627 C626 1.394 . S
C627 C628 1.383 . S
C627 H635 0.929 . S
C628 C627 1.383 . S
C628 C629 1.377 . S
C629 H613 0.930 . S
C629 C628 1.377 . S
C629 C630 1.379 . S
C630 H614 0.931 . S
C630 C624 1.383 . S
C630 C629 1.379 . S
H631 C625 0.959 . S
H632 C625 0.961 . S
H633 C625 0.960 . S
H634 C626 0.930 . S
H635 C627 0.929 . S
H636 C644 0.929 1_554 S
H637 C646 0.930 . S
H638 C648 0.930 . S
H639 C651 0.929 . S
H640 C654 0.930 . S
H641 C656 0.960 . S
H642 C656 0.960 . S
H643 C656 0.960 . S
C644 H636 0.929 1_556 S
C644 C645 1.377 . S
C644 C646 1.384 . S
C645 C644 1.377 . S
C645 C651 1.390 . S
C646 H637 0.930 . S
C646 C644 1.384 . S
C646 C647 1.372 . S
C647 C646 1.372 . S
C647 C648 1.400 . S
C647 C652 1.490 . S
C648 H638 0.930 . S
C648 C647 1.400 . S
C648 C651 1.386 . S
H649 C665 0.930 . S
H650 C666 0.931 . S
C651 H639 0.929 . S
C651 C645 1.390 . S
C651 C648 1.386 . S
C652 C647 1.490 . S
C652 C654 1.395 . S
C652 C655 1.403 . S
H653 C659 0.930 . S
C654 H640 0.930 . S
C654 C652 1.395 . S
C654 C657 1.403 1_655 S
C655 C652 1.403 . S
C655 C656 1.524 . S
C655 C659 1.400 1_655 S
C656 H641 0.960 . S
C656 H642 0.960 . S
C656 H643 0.960 . S
C656 C655 1.524 . S
C657 C654 1.403 1_455 S
C657 C658 1.392 . S
C657 C661 1.495 . S
C658 C657 1.392 . S
C658 C659 1.385 . S
C658 C660 1.478 . S
C659 H653 0.930 . S
C659 C655 1.400 1_455 S
C659 C658 1.385 . S
C660 C658 1.478 . S
C660 C662 1.381 . S
C660 C666 1.383 . S
C661 C657 1.495 . S
C661 H667 0.959 . S
C661 H668 0.961 . S
C661 H669 0.960 . S
C662 C660 1.381 . S
C662 C663 1.394 . S
C662 H670 0.930 . S
C663 C662 1.394 . S
C663 C664 1.383 . S
C663 H671 0.929 . S
C664 C663 1.383 . S
C664 C665 1.377 . S
C665 H649 0.930 . S
C665 C664 1.377 . S
C665 C666 1.379 . S
C666 H650 0.931 . S
C666 C660 1.383 . S
C666 C665 1.379 . S
H667 C661 0.959 . S
H668 C661 0.961 . S
H669 C661 0.960 . S
H670 C662 0.930 . S
H671 C663 0.929 . S
H672 C680 0.929 . S
H673 C682 0.930 . S
H674 C684 0.930 . S
H675 C687 0.929 . S
H676 C690 0.930 . S
H677 C692 0.960 . S
H678 C692 0.960 1_554 S
H679 C692 0.961 . S
C680 H672 0.929 . S
C680 C681 1.377 . S
C680 C682 1.384 . S
C681 C680 1.377 . S
C681 C687 1.390 . S
C682 H673 0.930 . S
C682 C680 1.384 . S
C682 C683 1.372 . S
C683 C682 1.372 . S
C683 C684 1.400 . S
C683 C688 1.490 . S
C684 H674 0.930 . S
C684 C683 1.400 . S
C684 C687 1.386 . S
H685 C701 0.930 . S
H686 C702 0.931 . S
C687 H675 0.929 . S
C687 C681 1.390 . S
C687 C684 1.386 . S
C688 C683 1.490 . S
C688 C690 1.395 1_565 S
C688 C691 1.403 . S
H689 C695 0.947 1_565 S
C690 H676 0.930 . S
C690 C688 1.395 1_545 S
C690 C693 1.403 . S
C691 C688 1.403 . S
C691 C692 1.524 1_554 S
C691 C695 1.385 1_564 S
C692 H677 0.960 . S
C692 H678 0.960 1_556 S
C692 H679 0.961 . S
C692 C691 1.524 1_556 S
C693 C690 1.403 . S
C693 C694 1.392 1_554 S
C693 C697 1.495 . S
C694 C693 1.392 1_556 S
C694 C695 1.394 . S
C694 C696 1.478 . S
C695 H689 0.947 1_545 S
C695 C691 1.385 1_546 S
C695 C694 1.394 . S
C696 C694 1.478 . S
C696 C698 1.381 . S
C696 C702 1.383 . S
C697 C693 1.495 . S
C697 H703 0.959 . S
C697 H704 0.961 1_554 S
C697 H705 0.960 . S
C698 C696 1.381 . S
C698 C699 1.394 . S
C698 H706 0.930 . S
C699 C698 1.394 . S
C699 C700 1.383 . S
C699 H707 0.929 . S
C700 C699 1.383 . S
C700 C701 1.377 . S
C701 H685 0.930 . S
C701 C700 1.377 . S
C701 C702 1.379 . S
C702 H686 0.931 . S
C702 C696 1.383 . S
C702 C701 1.379 . S
H703 C697 0.959 . S
H704 C697 0.961 1_556 S
H705 C697 0.960 . S
H706 C698 0.930 . S
H707 C699 0.929 . S
H708 C716 0.929 . S
H709 C718 0.930 . S
H710 C720 0.930 . S
H711 C723 0.929 . S
H712 C726 0.930 . S
H713 C728 0.960 . S
H714 C728 0.960 . S
H715 C728 0.960 . S
C716 H708 0.929 . S
C716 C717 1.377 . S
C716 C718 1.384 . S
C717 C716 1.377 . S
C717 C723 1.390 . S
C718 H709 0.930 . S
C718 C716 1.384 . S
C718 C719 1.372 . S
C719 C718 1.372 . S
C719 C720 1.400 . S
C719 C724 1.490 . S
C720 H710 0.930 . S
C720 C719 1.400 . S
C720 C723 1.386 . S
H721 C737 0.930 . S
H722 C738 0.931 . S
C723 H711 0.929 . S
C723 C717 1.390 . S
C723 C720 1.386 . S
C724 C719 1.490 . S
C724 C726 1.395 . S
C724 C727 1.403 . S
H725 C731 0.930 . S
C726 H712 0.930 . S
C726 C724 1.395 . S
C726 C729 1.403 . S
C727 C724 1.403 . S
C727 C728 1.524 . S
C727 C731 1.400 . S
C728 H713 0.960 . S
C728 H714 0.960 . S
C728 H715 0.960 . S
C728 C727 1.524 . S
C729 C726 1.403 . S
C729 C730 1.392 . S
C729 C733 1.495 . S
C730 C729 1.392 . S
C730 C731 1.385 . S
C730 C732 1.478 . S
C731 H725 0.930 . S
C731 C727 1.400 . S
C731 C730 1.385 . S
C732 C730 1.478 . S
C732 C734 1.381 . S
C732 C738 1.383 . S
C733 C729 1.495 . S
C733 H739 0.959 . S
C733 H740 0.961 . S
C733 H741 0.960 . S
C734 C732 1.381 . S
C734 C735 1.394 . S
C734 H742 0.930 . S
C735 C734 1.394 . S
C735 C736 1.383 . S
C735 H743 0.929 . S
C736 C735 1.383 . S
C736 C737 1.377 . S
C737 H721 0.930 . S
C737 C736 1.377 . S
C737 C738 1.379 . S
C738 H722 0.931 . S
C738 C732 1.383 . S
C738 C737 1.379 . S
H739 C733 0.959 . S
H740 C733 0.961 . S
H741 C733 0.960 . S
H742 C734 0.930 . S
H743 C735 0.929 . S
H744 C752 0.929 . S
H745 C754 0.930 . S
H746 C756 0.930 . S
H747 C759 0.929 . S
H748 C762 0.930 . S
H749 C764 0.960 . S
H750 C764 0.960 . S
H751 C764 0.960 . S
C752 H744 0.929 . S
C752 C753 1.377 . S
C752 C754 1.384 . S
C753 C752 1.377 . S
C753 C759 1.390 . S
C754 H745 0.930 . S
C754 C752 1.384 . S
C754 C755 1.372 . S
C755 C754 1.372 . S
C755 C756 1.400 . S
C755 C760 1.490 . S
C756 H746 0.930 . S
C756 C755 1.400 . S
C756 C759 1.386 . S
H757 C773 0.930 . S
H758 C774 0.931 . S
C759 H747 0.929 . S
C759 C753 1.390 . S
C759 C756 1.386 . S
C760 C755 1.490 . S
C760 C762 1.395 . S
C760 C763 1.403 1_455 S
H761 C767 0.930 . S
C762 H748 0.930 . S
C762 C760 1.395 . S
C762 C765 1.403 . S
C763 C760 1.403 1_655 S
C763 C764 1.524 . S
C763 C767 1.400 . S
C764 H749 0.960 . S
C764 H750 0.960 . S
C764 H751 0.960 . S
C764 C763 1.524 . S
C765 C762 1.403 . S
C765 C766 1.392 1_455 S
C765 C769 1.495 . S
C766 C765 1.392 1_655 S
C766 C767 1.385 . S
C766 C768 1.478 . S
C767 H761 0.930 . S
C767 C763 1.400 . S
C767 C766 1.385 . S
C768 C766 1.478 . S
C768 C770 1.381 . S
C768 C774 1.383 . S
C769 C765 1.495 . S
C769 H775 0.959 . S
C769 H776 0.961 . S
C769 H777 0.960 . S
C770 C768 1.381 . S
C770 C771 1.394 . S
C770 H778 0.930 . S
C771 C770 1.394 . S
C771 C772 1.383 . S
C771 H779 0.929 . S
C772 C771 1.383 . S
C772 C773 1.377 . S
C773 H757 0.930 . S
C773 C772 1.377 . S
C773 C774 1.379 . S
C774 H758 0.931 . S
C774 C768 1.383 . S
C774 C773 1.379 . S
H775 C769 0.959 . S
H776 C769 0.961 . S
H777 C769 0.960 . S
H778 C770 0.930 . S
H779 C771 0.929 . S
H780 C788 0.929 . S
H781 C790 0.930 . S
H782 C792 0.930 . S
H783 C795 0.929 . S
H784 C798 0.930 . S
H785 C800 0.960 . S
H786 C800 0.960 . S
H787 C800 0.960 . S
C788 H780 0.929 . S
C788 C789 1.377 . S
C788 C790 1.384 . S
C789 C788 1.377 . S
C789 C795 1.390 . S
C790 H781 0.930 . S
C790 C788 1.384 . S
C790 C791 1.372 . S
C791 C790 1.372 . S
C791 C792 1.400 . S
C791 C796 1.490 . S
C792 H782 0.930 . S
C792 C791 1.400 . S
C792 C795 1.386 . S
H793 C809 0.930 . S
H794 C810 0.931 . S
C795 H783 0.929 . S
C795 C789 1.390 . S
C795 C792 1.386 . S
C796 C791 1.490 . S
C796 C798 1.395 1_565 S
C796 C799 1.403 . S
H797 C803 0.930 . S
C798 H784 0.930 . S
C798 C796 1.395 1_545 S
C798 C801 1.403 . S
C799 C796 1.403 . S
C799 C800 1.524 . S
C799 C803 1.400 . S
C800 H785 0.960 . S
C800 H786 0.960 . S
C800 H787 0.960 . S
C800 C799 1.524 . S
C801 C798 1.403 . S
C801 C802 1.392 . S
C801 C805 1.495 . S
C802 C801 1.392 . S
C802 C803 1.385 1_545 S
C802 C804 1.478 . S
C803 H797 0.930 . S
C803 C799 1.400 . S
C803 C802 1.385 1_565 S
C804 C802 1.478 . S
C804 C806 1.381 . S
C804 C810 1.383 . S
C805 C801 1.495 . S
C805 H811 0.959 . S
C805 H812 0.961 . S
C805 H813 0.960 . S
C806 C804 1.381 . S
C806 C807 1.394 . S
C806 H814 0.930 . S
C807 C806 1.394 . S
C807 C808 1.383 . S
C807 H815 0.929 . S
C808 C807 1.383 . S
C808 C809 1.377 . S
C809 H793 0.930 . S
C809 C808 1.377 . S
C809 C810 1.379 . S
C810 H794 0.931 . S
C810 C804 1.383 . S
C810 C809 1.379 . S
H811 C805 0.959 . S
H812 C805 0.961 . S
H813 C805 0.960 . S
H814 C806 0.930 . S
H815 C807 0.929 . S
H816 C824 0.929 . S
H817 C826 0.930 . S
H818 C828 0.930 . S
H819 C831 0.929 . S
H820 C834 0.930 . S
H821 C836 0.960 . S
H822 C836 0.960 . S
H823 C836 0.960 . S
C824 H816 0.929 . S
C824 C825 1.377 . S
C824 C826 1.384 . S
C825 C824 1.377 . S
C825 C831 1.390 . S
C826 H817 0.930 . S
C826 C824 1.384 . S
C826 C827 1.372 . S
C827 C826 1.372 . S
C827 C828 1.400 . S
C827 C832 1.490 . S
C828 H818 0.930 . S
C828 C827 1.400 . S
C828 C831 1.386 . S
H829 C845 0.930 . S
H830 C846 0.931 . S
C831 H819 0.929 . S
C831 C825 1.390 . S
C831 C828 1.386 . S
C832 C827 1.490 . S
C832 C834 1.395 . S
C832 C835 1.403 . S
H833 C839 0.930 . S
C834 H820 0.930 . S
C834 C832 1.395 . S
C834 C837 1.403 . S
C835 C832 1.403 . S
C835 C836 1.524 . S
C835 C839 1.400 . S
C836 H821 0.960 . S
C836 H822 0.960 . S
C836 H823 0.960 . S
C836 C835 1.524 . S
C837 C834 1.403 . S
C837 C838 1.392 . S
C837 C841 1.495 . S
C838 C837 1.392 . S
C838 C839 1.385 . S
C838 C840 1.478 . S
C839 H833 0.930 . S
C839 C835 1.400 . S
C839 C838 1.385 . S
C840 C838 1.478 . S
C840 C842 1.381 . S
C840 C846 1.383 . S
C841 C837 1.495 . S
C841 H847 0.959 . S
C841 H848 0.961 . S
C841 H849 0.960 . S
C842 C840 1.381 . S
C842 C843 1.394 . S
C842 H850 0.930 . S
C843 C842 1.394 . S
C843 C844 1.383 . S
C843 H851 0.929 . S
C844 C843 1.383 . S
C844 C845 1.377 . S
C845 H829 0.930 . S
C845 C844 1.377 . S
C845 C846 1.379 . S
C846 H830 0.931 . S
C846 C840 1.383 . S
C846 C845 1.379 . S
H847 C841 0.959 . S
H848 C841 0.961 . S
H849 C841 0.960 . S
H850 C842 0.930 . S
H851 C843 0.929 . S
H852 C860 0.929 . S
H853 C862 0.930 . S
H854 C864 0.930 . S
H855 C867 0.929 . S
H856 C870 0.930 . S
H857 C872 0.960 . S
H858 C872 0.960 . S
H859 C872 0.960 . S
C860 H852 0.929 . S
C860 C861 1.377 . S
C860 C862 1.384 . S
C861 C860 1.377 . S
C861 C867 1.390 . S
C862 H853 0.930 . S
C862 C860 1.384 . S
C862 C863 1.372 . S
C863 C862 1.372 . S
C863 C864 1.400 . S
C863 C868 1.490 . S
C864 H854 0.930 . S
C864 C863 1.400 . S
C864 C867 1.386 . S
H865 C881 0.930 . S
H866 C882 0.931 . S
C867 H855 0.929 . S
C867 C861 1.390 . S
C867 C864 1.386 . S
C868 C863 1.490 . S
C868 C870 1.395 . S
C868 C871 1.403 . S
H869 C875 0.930 . S
C870 H856 0.930 . S
C870 C868 1.395 . S
C870 C873 1.403 . S
C871 C868 1.403 . S
C871 C872 1.524 . S
C871 C875 1.400 . S
C872 H857 0.960 . S
C872 H858 0.960 . S
C872 H859 0.960 . S
C872 C871 1.524 . S
C873 C870 1.403 . S
C873 C874 1.392 . S
C873 C877 1.495 . S
C874 C873 1.392 . S
C874 C875 1.385 . S
C874 C876 1.478 . S
C875 H869 0.930 . S
C875 C871 1.400 . S
C875 C874 1.385 . S
C876 C874 1.478 . S
C876 C878 1.381 . S
C876 C882 1.383 . S
C877 C873 1.495 . S
C877 H883 0.959 . S
C877 H884 0.961 . S
C877 H885 0.960 . S
C878 C876 1.381 . S
C878 C879 1.394 . S
C878 H886 0.930 . S
C879 C878 1.394 . S
C879 C880 1.383 . S
C879 H887 0.929 . S
C880 C879 1.383 . S
C880 C881 1.377 . S
C881 H865 0.930 . S
C881 C880 1.377 . S
C881 C882 1.379 . S
C882 H866 0.931 . S
C882 C876 1.383 . S
C882 C881 1.379 . S
H883 C877 0.959 . S
H884 C877 0.961 . S
H885 C877 0.960 . S
H886 C878 0.930 . S
H887 C879 0.929 . S
H888 C896 0.929 . S
H889 C898 0.930 . S
H890 C900 0.930 . S
H891 C903 0.929 . S
H892 C906 0.930 . S
H893 C908 0.960 1_554 S
H894 C908 0.948 1_554 S
H895 C908 0.960 . S
C896 H888 0.929 . S
C896 C897 1.377 . S
C896 C898 1.384 1_554 S
C897 C896 1.377 . S
C897 C903 1.390 . S
C898 H889 0.930 . S
C898 C896 1.384 1_556 S
C898 C899 1.372 . S
C899 C898 1.372 . S
C899 C900 1.400 . S
C899 C904 1.490 . S
C900 H890 0.930 . S
C900 C899 1.400 . S
C900 C903 1.386 1_556 S
H901 C917 0.930 . S
H902 C918 0.931 . S
C903 H891 0.929 . S
C903 C897 1.390 . S
C903 C900 1.386 1_554 S
C904 C899 1.490 . S
C904 C906 1.395 . S
C904 C907 1.403 . S
H905 C911 0.930 . S
C906 H892 0.930 . S
C906 C904 1.395 . S
C906 C909 1.403 . S
C907 C904 1.403 . S
C907 C908 1.536 . S
C907 C911 1.400 . S
C908 H893 0.960 1_556 S
C908 H894 0.948 1_556 S
C908 H895 0.960 . S
C908 C907 1.536 . S
C909 C906 1.403 . S
C909 C910 1.392 . S
C909 C913 1.495 . S
C910 C909 1.392 . S
C910 C911 1.385 . S
C910 C912 1.478 . S
C911 H905 0.930 . S
C911 C907 1.400 . S
C911 C910 1.385 . S
C912 C910 1.478 . S
C912 C914 1.381 . S
C912 C918 1.383 . S
C913 C909 1.495 . S
C913 H919 0.959 . S
C913 H920 0.961 . S
C913 H921 0.960 . S
C914 C912 1.381 . S
C914 C915 1.394 . S
C914 H922 0.930 . S
C915 C914 1.394 . S
C915 C916 1.383 . S
C915 H923 0.929 . S
C916 C915 1.383 . S
C916 C917 1.377 . S
C917 H901 0.930 . S
C917 C916 1.377 . S
C917 C918 1.379 . S
C918 H902 0.931 . S
C918 C912 1.383 . S
C918 C917 1.379 . S
H919 C913 0.959 . S
H920 C913 0.961 . S
H921 C913 0.960 . S
H922 C914 0.930 . S
H923 C915 0.929 . S
H924 C932 0.929 . S
H925 C934 0.930 . S
H926 C936 0.930 . S
H927 C939 0.929 . S
H928 C942 0.930 . S
H929 C944 0.960 . S
H930 C944 0.960 . S
H931 C944 0.960 . S
C932 H924 0.929 . S
C932 C933 1.377 . S
C932 C934 1.384 . S
C933 C932 1.377 . S
C933 C939 1.390 . S
C934 H925 0.930 . S
C934 C932 1.384 . S
C934 C935 1.372 . S
C935 C934 1.372 . S
C935 C936 1.400 . S
C935 C940 1.490 . S
C936 H926 0.930 . S
C936 C935 1.400 . S
C936 C939 1.386 . S
H937 C953 0.930 . S
H938 C954 0.931 . S
C939 H927 0.929 . S
C939 C933 1.390 . S
C939 C936 1.386 . S
C940 C935 1.490 . S
C940 C942 1.395 . S
C940 C943 1.403 . S
H941 C947 0.930 . S
C942 H928 0.930 . S
C942 C940 1.395 . S
C942 C945 1.403 . S
C943 C940 1.403 . S
C943 C944 1.524 . S
C943 C947 1.400 . S
C944 H929 0.960 . S
C944 H930 0.960 . S
C944 H931 0.960 . S
C944 C943 1.524 . S
C945 C942 1.403 . S
C945 C946 1.392 . S
C945 C949 1.495 . S
C946 C945 1.392 . S
C946 C947 1.385 . S
C946 C948 1.478 . S
C947 H941 0.930 . S
C947 C943 1.400 . S
C947 C946 1.385 . S
C948 C946 1.478 . S
C948 C950 1.381 . S
C948 C954 1.383 1_554 S
C949 C945 1.495 . S
C949 H955 0.959 . S
C949 H956 0.961 1_554 S
C949 H957 0.960 . S
C950 C948 1.381 . S
C950 C951 1.394 . S
C950 H958 0.930 . S
C951 C950 1.394 . S
C951 C952 1.383 1_554 S
C951 H959 0.929 . S
C952 C951 1.383 1_556 S
C952 C953 1.377 . S
C953 H937 0.930 . S
C953 C952 1.377 . S
C953 C954 1.379 . S
C954 H938 0.931 . S
C954 C948 1.383 1_556 S
C954 C953 1.379 . S
H955 C949 0.959 . S
H956 C949 0.961 1_556 S
H957 C949 0.960 . S
H958 C950 0.930 . S
H959 C951 0.929 . S
H960 C968 0.929 . S
H961 C970 0.930 . S
H962 C972 0.930 . S
H963 C975 0.929 . S
H964 C978 0.930 . S
H965 C980 0.960 . S
H966 C980 0.960 . S
H967 C980 0.960 . S
C968 H960 0.929 . S
C968 C969 1.377 . S
C968 C970 1.384 . S
C969 C968 1.377 . S
C969 C975 1.390 . S
C970 H961 0.930 . S
C970 C968 1.384 . S
C970 C971 1.372 . S
C971 C970 1.372 . S
C971 C972 1.400 . S
C971 C976 1.490 . S
C972 H962 0.930 . S
C972 C971 1.400 . S
C972 C975 1.386 . S
H973 C989 0.930 . S
H974 C990 0.931 . S
C975 H963 0.929 . S
C975 C969 1.390 . S
C975 C972 1.386 . S
C976 C971 1.490 . S
C976 C978 1.395 . S
C976 C979 1.403 . S
H977 C983 0.930 . S
C978 H964 0.930 . S
C978 C976 1.395 . S
C978 C981 1.403 . S
C979 C976 1.403 . S
C979 C980 1.524 . S
C979 C983 1.400 . S
C980 H965 0.960 . S
C980 H966 0.960 . S
C980 H967 0.960 . S
C980 C979 1.524 . S
C981 C978 1.403 . S
C981 C982 1.392 . S
C981 C985 1.495 . S
C982 C981 1.392 . S
C982 C983 1.385 . S
C982 C984 1.478 . S
C983 H977 0.930 . S
C983 C979 1.400 . S
C983 C982 1.385 . S
C984 C982 1.478 . S
C984 C986 1.381 . S
C984 C990 1.383 . S
C985 C981 1.495 . S
C985 H991 0.959 . S
C985 H992 0.961 . S
C985 H993 0.960 . S
C986 C984 1.381 . S
C986 C987 1.394 . S
C986 H994 0.930 . S
C987 C986 1.394 . S
C987 C988 1.383 . S
C987 H995 0.929 . S
C988 C987 1.383 . S
C988 C989 1.377 . S
C989 H973 0.930 . S
C989 C988 1.377 . S
C989 C990 1.379 . S
C990 H974 0.931 . S
C990 C984 1.383 . S
C990 C989 1.379 . S
H991 C985 0.959 . S
H992 C985 0.961 . S
H993 C985 0.960 . S
H994 C986 0.930 . S
H995 C987 0.929 . S
H996 C1004 0.929 . S
H997 C1006 0.930 . S
H998 C1008 0.930 . S
H999 C1011 0.929 . S
H1000 C1014 0.930 . S
H1001 C1016 0.960 . S
H1002 C1016 0.960 . S
H1003 C1016 0.960 . S
C1004 H996 0.929 . S
C1004 C1005 1.377 . S
C1004 C1006 1.384 . S
C1005 C1004 1.377 . S
C1005 C1011 1.390 . S
C1006 H997 0.930 . S
C1006 C1004 1.384 . S
C1006 C1007 1.372 . S
C1007 C1006 1.372 . S
C1007 C1008 1.400 . S
C1007 C1012 1.490 . S
C1008 H998 0.930 . S
C1008 C1007 1.400 . S
C1008 C1011 1.386 . S
H1009 C1025 0.930 . S
H1010 C1026 0.931 . S
C1011 H999 0.929 . S
C1011 C1005 1.390 . S
C1011 C1008 1.386 . S
C1012 C1007 1.490 . S
C1012 C1014 1.395 . S
C1012 C1015 1.403 . S
H1013 C1019 0.930 . S
C1014 H1000 0.930 . S
C1014 C1012 1.395 . S
C1014 C1017 1.403 . S
C1015 C1012 1.403 . S
C1015 C1016 1.524 . S
C1015 C1019 1.400 . S
C1016 H1001 0.960 . S
C1016 H1002 0.960 . S
C1016 H1003 0.960 . S
C1016 C1015 1.524 . S
C1017 C1014 1.403 . S
C1017 C1018 1.392 . S
C1017 C1021 1.495 . S
C1018 C1017 1.392 . S
C1018 C1019 1.385 . S
C1018 C1020 1.478 . S
C1019 H1013 0.930 . S
C1019 C1015 1.400 . S
C1019 C1018 1.385 . S
C1020 C1018 1.478 . S
C1020 C1022 1.381 . S
C1020 C1026 1.383 . S
C1021 C1017 1.495 . S
C1021 H1027 0.959 . S
C1021 H1028 0.961 . S
C1021 H1029 0.960 . S
C1022 C1020 1.381 . S
C1022 C1023 1.394 . S
C1022 H1030 0.930 . S
C1023 C1022 1.394 . S
C1023 C1024 1.383 . S
C1023 H1031 0.929 . S
C1024 C1023 1.383 . S
C1024 C1025 1.377 . S
C1025 H1009 0.930 . S
C1025 C1024 1.377 . S
C1025 C1026 1.379 . S
C1026 H1010 0.931 . S
C1026 C1020 1.383 . S
C1026 C1025 1.379 . S
H1027 C1021 0.959 . S
H1028 C1021 0.961 . S
H1029 C1021 0.960 . S
H1030 C1022 0.930 . S
H1031 C1023 0.929 . S
C177 C138 1.209 1_554 S
C196 C12 1.199 . S
C213 C26 1.218 . S
C232 C152 1.218 . S
C249 C166 1.209 . S
C268 C40 1.197 . S
C285 C96 1.216 . S
C304 C54 1.231 . S
C321 C110 1.218 . S
C340 C68 1.227 1_556 S
C357 C124 1.218 . S
C376 C82 1.227 . S
C393 C95 1.458 . S
C412 C11 1.467 . S
C429 C25 1.467 . S
C448 C109 1.438 . S
C465 C123 1.464 . S
C484 C39 1.484 . S
C501 C53 1.463 . S
C520 C137 1.485 . S
C537 C151 1.468 . S
C556 C67 1.464 . S
C573 C81 1.469 . S
C592 C165 1.454 . S
C609 C130 0.862 . S
C628 C4 0.905 . S
C645 C144 0.860 1_556 S
C664 C18 0.904 . S
C681 C158 0.859 . S
C700 C32 0.912 . S
C717 C46 0.871 1_554 S
C736 C88 0.869 . S
C753 C102 0.874 . S
C772 C60 0.832 . S
C789 C74 0.863 . S
C808 C116 0.903 . S
C825 C5 1.151 . S
C844 C117 1.117 . S
C861 C131 1.171 . S
C880 C19 1.205 . S
C897 C145 1.151 . S
C916 C33 1.109 . S
C933 C159 1.151 . S
C952 C47 1.109 . S
C969 C89 1.170 . S
C988 C61 1.205 . S
C1005 C103 1.167 . S
C1024 C75 1.191 . S
