# Generated by pormake.
# Topology vma, (5)-cn, num edge types: 1
# Building blocks:
#     Node 0, Type 0, BuildingBlock: BEQFEK_clean_sbu_0, # of connection points: 5
#     Node 1, Type 0, BuildingBlock: BEQFEK_clean_sbu_0, # of connection points: 5
#     Node 2, Type 0, BuildingBlock: BEQFEK_clean_sbu_0, # of connection points: 5
#     Node 3, Type 0, BuildingBlock: BEQFEK_clean_sbu_0, # of connection points: 5
#     Node 4, Type 0, BuildingBlock: BEQFEK_clean_sbu_0, # of connection points: 5
#     Node 5, Type 0, BuildingBlock: BEQFEK_clean_sbu_0, # of connection points: 5
#     Node 6, Type 0, BuildingBlock: BEQFEK_clean_sbu_0, # of connection points: 5
#     Node 7, Type 0, BuildingBlock: BEQFEK_clean_sbu_0, # of connection points: 5
#     Edge 8, Type (0, 0), BuildingBlock: AJUNOK_clean_linker_0, # of connection points: 2
#     Edge 9, Type (0, 0), BuildingBlock: AJUNOK_clean_linker_0, # of connection points: 2
#     Edge 10, Type (0, 0), BuildingBlock: AJUNOK_clean_linker_0, # of connection points: 2
#     Edge 11, Type (0, 0), BuildingBlock: AJUNOK_clean_linker_0, # of connection points: 2
#     Edge 12, Type (0, 0), BuildingBlock: AJUNOK_clean_linker_0, # of connection points: 2
#     Edge 13, Type (0, 0), BuildingBlock: AJUNOK_clean_linker_0, # of connection points: 2
#     Edge 14, Type (0, 0), BuildingBlock: AJUNOK_clean_linker_0, # of connection points: 2
#     Edge 15, Type (0, 0), BuildingBlock: AJUNOK_clean_linker_0, # of connection points: 2
#     Edge 16, Type (0, 0), BuildingBlock: AJUNOK_clean_linker_0, # of connection points: 2
#     Edge 17, Type (0, 0), BuildingBlock: AJUNOK_clean_linker_0, # of connection points: 2
#     Edge 18, Type (0, 0), BuildingBlock: AJUNOK_clean_linker_0, # of connection points: 2
#     Edge 19, Type (0, 0), BuildingBlock: AJUNOK_clean_linker_0, # of connection points: 2
#     Edge 20, Type (0, 0), BuildingBlock: AJUNOK_clean_linker_0, # of connection points: 2
#     Edge 21, Type (0, 0), BuildingBlock: AJUNOK_clean_linker_0, # of connection points: 2
#     Edge 22, Type (0, 0), BuildingBlock: AJUNOK_clean_linker_0, # of connection points: 2
#     Edge 23, Type (0, 0), BuildingBlock: AJUNOK_clean_linker_0, # of connection points: 2
#     Edge 24, Type (0, 0), BuildingBlock: AJUNOK_clean_linker_0, # of connection points: 2
#     Edge 25, Type (0, 0), BuildingBlock: AJUNOK_clean_linker_0, # of connection points: 2
#     Edge 26, Type (0, 0), BuildingBlock: AJUNOK_clean_linker_0, # of connection points: 2
#     Edge 27, Type (0, 0), BuildingBlock: AJUNOK_clean_linker_0, # of connection points: 2
# Relax obj value: 0.015
# Max RMSD: 0.084
# Mean RMSD: 0.084
data_MOF--net-vma--node1-BEQFEK_clean_sbu_0--edge1-AJUNOK_clean_linker_0
_symmetry_space_group_name_H-M    P1
_symmetry_Int_Tables_number       1
_symmetry_cell_setting            triclinic
loop_
_symmetry_equiv_pos_as_xyz
'x, y, z'
_cell_length_a     28.492213
_cell_length_b     22.596279
_cell_length_c     32.473306
_cell_angle_alpha  90.023882
_cell_angle_beta   94.321604
_cell_angle_gamma 90.002003
loop_
_atom_site_label
_atom_site_type_symbol
_atom_site_fract_x
_atom_site_fract_y
_atom_site_fract_z
_atom_type_partial_charge
Co0 Co 0.38638 0.11635 0.38008 0.0
Co1 Co 0.3194 0.18429 0.31585 0.0
C2 C 0.42548 0.17921 0.31035 0.0
O3 O 0.43216 0.1492 0.34345 0.0
O4 O 0.38417 0.19503 0.29693 0.0
C5 C 0.46185 0.0793 0.4396 0.0
O6 O 0.48882 0.11548 0.42026 0.0
C7 C 0.2833 0.29551 0.27928 0.0
C8 C 0.21784 0.26648 0.24451 0.0
C9 C 0.24455 0.31648 0.25487 0.0
N10 N 0.27896 0.23654 0.28349 0.0
N11 N 0.24 0.21939 0.26226 0.0
C12 C 0.32254 0.33058 0.30057 0.0
H13 H 0.34007 0.30487 0.32648 0.0
H14 H 0.30915 0.37306 0.31225 0.0
H15 H 0.34911 0.34042 0.27825 0.0
C16 C 0.33886 0.19093 0.43852 0.0
N17 N 0.34688 0.17506 0.39971 0.0
N18 N 0.31655 0.20186 0.37344 0.0
C19 C 0.28732 0.2348 0.39507 0.0
C20 C 0.30096 0.22946 0.43695 0.0
C21 C 0.36382 0.16453 0.47637 0.0
H22 H 0.35708 0.11619 0.47668 0.0
H23 H 0.40228 0.17135 0.47545 0.0
H24 H 0.35195 0.18408 0.50514 0.0
O25 O 0.34805 0.05509 0.35036 0.0
O26 O 0.2991 0.10049 0.30431 0.0
H27 H 0.22829 0.24334 0.35034 0.0
H28 H 0.22041 0.27913 0.39924 0.0
C29 C 0.24604 0.26881 0.37622 0.0
H30 H 0.25857 0.31125 0.36395 0.0
H31 H 0.22813 0.17571 0.2605 0.0
O32 O 0.41878 0.07441 0.42714 0.0
C33 C 0.31497 0.05326 0.32182 0.0
Co34 Co 0.62081 0.11456 0.13941 0.0
Co35 Co 0.69024 0.18036 0.20258 0.0
C36 C 0.58429 0.17908 0.20927 0.0
O37 O 0.57625 0.15023 0.17582 0.0
O38 O 0.62613 0.19218 0.22294 0.0
C39 C 0.54537 0.08248 0.07829 0.0
O40 O 0.52073 0.12477 0.09418 0.0
C41 C 0.72761 0.29121 0.23801 0.0
C42 C 0.79384 0.26251 0.2717 0.0
C43 C 0.76685 0.31237 0.26166 0.0
N44 N 0.73184 0.23223 0.234 0.0
N45 N 0.77129 0.21525 0.25452 0.0
C46 C 0.68808 0.32611 0.21703 0.0
H47 H 0.6703 0.30027 0.1913 0.0
H48 H 0.70123 0.36857 0.20516 0.0
H49 H 0.66176 0.33592 0.23959 0.0
C50 C 0.66992 0.185 0.0798 0.0
N51 N 0.66143 0.17095 0.11883 0.0
N52 N 0.69243 0.1973 0.14474 0.0
C53 C 0.72243 0.22834 0.12267 0.0
C54 C 0.70874 0.22204 0.08083 0.0
C55 C 0.64471 0.15772 0.04235 0.0
H56 H 0.64875 0.10893 0.04389 0.0
H57 H 0.60665 0.16817 0.04197 0.0
H58 H 0.65851 0.17364 0.01331 0.0
O59 O 0.65806 0.05257 0.16928 0.0
O60 O 0.70966 0.09642 0.2139 0.0
H61 H 0.78259 0.23488 0.16631 0.0
H62 H 0.78953 0.27215 0.11777 0.0
C63 C 0.76445 0.26135 0.14115 0.0
H64 H 0.75266 0.30349 0.15442 0.0
H65 H 0.78318 0.17158 0.25622 0.0
O66 O 0.58697 0.07256 0.09332 0.0
C67 C 0.69197 0.0497 0.197 0.0
Co68 Co 0.6202 0.91091 0.6381 0.0
Co69 Co 0.68845 0.84072 0.70037 0.0
C70 C 0.58289 0.84658 0.70815 0.0
O71 O 0.57546 0.87678 0.67524 0.0
O72 O 0.62438 0.83059 0.72084 0.0
C73 C 0.54255 0.94545 0.58106 0.0
O74 O 0.51833 0.90698 0.60112 0.0
C75 C 0.72413 0.7287 0.73665 0.0
C76 C 0.78934 0.75734 0.77205 0.0
C77 C 0.76158 0.70802 0.76258 0.0
N78 N 0.72961 0.78731 0.7312 0.0
N79 N 0.76877 0.80407 0.75236 0.0
C80 C 0.68257 0.69416 0.71894 0.0
H81 H 0.65338 0.72409 0.70817 0.0
H82 H 0.69279 0.66819 0.69205 0.0
H83 H 0.67063 0.66271 0.74224 0.0
C84 C 0.6672 0.83859 0.57789 0.0
N85 N 0.65935 0.85285 0.61703 0.0
N86 N 0.68965 0.82477 0.64259 0.0
C87 C 0.71856 0.7925 0.62026 0.0
C88 C 0.70508 0.79999 0.57848 0.0
C89 C 0.63924 0.86245 0.54069 0.0
H90 H 0.60116 0.85875 0.54518 0.0
H91 H 0.64671 0.83816 0.51222 0.0
H92 H 0.64773 0.90998 0.53696 0.0
O93 O 0.65888 0.97179 0.66842 0.0
O94 O 0.70876 0.92411 0.71258 0.0
H95 H 0.78728 0.75385 0.61463 0.0
H96 H 0.75144 0.71765 0.65043 0.0
C97 C 0.76167 0.76121 0.63823 0.0
H98 H 0.77871 0.78742 0.66407 0.0
H99 H 0.7812 0.84753 0.75368 0.0
O100 O 0.58583 0.95312 0.59202 0.0
C101 C 0.69231 0.9722 0.69676 0.0
Co102 Co 0.38827 0.91932 0.87706 0.0
Co103 Co 0.31849 0.85078 0.81557 0.0
C104 C 0.4248 0.84977 0.80971 0.0
O105 O 0.43271 0.88009 0.8425 0.0
O106 O 0.3829 0.83694 0.79596 0.0
C107 C 0.46425 0.94929 0.93672 0.0
O108 O 0.48617 0.90517 0.92012 0.0
C109 C 0.27993 0.73932 0.7819 0.0
C110 C 0.2159 0.76892 0.74521 0.0
C111 C 0.24145 0.7186 0.75706 0.0
N112 N 0.27672 0.79856 0.78472 0.0
N113 N 0.23853 0.81604 0.7625 0.0
C114 C 0.31797 0.70397 0.80467 0.0
H115 H 0.33492 0.73001 0.83068 0.0
H116 H 0.30352 0.66215 0.81643 0.0
H117 H 0.34532 0.69295 0.78333 0.0
C118 C 0.33797 0.85205 0.93806 0.0
N119 N 0.34636 0.8649 0.8988 0.0
N120 N 0.31565 0.83709 0.87344 0.0
C121 C 0.28584 0.80664 0.89603 0.0
C122 C 0.29907 0.81511 0.93771 0.0
C123 C 0.36734 0.87407 0.97508 0.0
H124 H 0.36225 0.92251 0.97816 0.0
H125 H 0.40501 0.86585 0.97077 0.0
H126 H 0.35817 0.85176 1.00382 0.0
O127 O 0.35357 0.98077 0.84368 0.0
O128 O 0.29954 0.93403 0.80266 0.0
H129 H 0.22704 0.79891 0.85091 0.0
H130 H 0.21621 0.7709 0.90149 0.0
C131 C 0.24278 0.77497 0.87835 0.0
H132 H 0.2527 0.72984 0.86878 0.0
H133 H 0.22769 0.86003 0.75948 0.0
O134 O 0.42273 0.96213 0.92273 0.0
C135 C 0.31912 0.98156 0.81636 0.0
Co136 Co 0.88952 0.61379 0.37643 0.0
Co137 Co 0.81866 0.68036 0.31485 0.0
C138 C 0.9255 0.68048 0.30823 0.0
O139 O 0.93438 0.65239 0.34188 0.0
O140 O 0.88323 0.69227 0.29502 0.0
C141 C 0.96497 0.57638 0.43565 0.0
O142 O 0.99139 0.61461 0.41753 0.0
C143 C 0.78218 0.79214 0.27943 0.0
C144 C 0.71753 0.76329 0.24326 0.0
C145 C 0.74477 0.81281 0.25346 0.0
N146 N 0.77718 0.73335 0.28419 0.0
N147 N 0.73837 0.71643 0.26258 0.0
C148 C 0.82323 0.82688 0.29796 0.0
H149 H 0.85291 0.79724 0.3079 0.0
H150 H 0.81267 0.85088 0.32559 0.0
H151 H 0.83464 0.85997 0.27551 0.0
C152 C 0.83885 0.68078 0.43714 0.0
N153 N 0.84749 0.66809 0.39791 0.0
N154 N 0.81632 0.69496 0.37252 0.0
C155 C 0.78606 0.72482 0.395 0.0
C156 C 0.79934 0.71667 0.43672 0.0
C157 C 0.86811 0.65885 0.47423 0.0
H158 H 0.90592 0.665 0.46946 0.0
H159 H 0.85979 0.68266 0.50267 0.0
H160 H 0.86161 0.61085 0.4782 0.0
O161 O 0.85513 0.55261 0.34275 0.0
O162 O 0.79961 0.5969 0.302 0.0
H163 H 0.71653 0.76109 0.4005 0.0
H164 H 0.75214 0.79947 0.36556 0.0
C165 C 0.74256 0.75524 0.37707 0.0
H166 H 0.72635 0.7293 0.35072 0.0
H167 H 0.72634 0.67282 0.26074 0.0
O168 O 0.92223 0.57023 0.42247 0.0
C169 C 0.82067 0.55022 0.31549 0.0
Co170 Co 0.12102 0.61563 0.138 0.0
Co171 Co 0.18974 0.6841 0.20079 0.0
C172 C 0.08285 0.68213 0.20566 0.0
O173 O 0.07531 0.65333 0.17213 0.0
O174 O 0.12463 0.69478 0.21992 0.0
C175 C 0.04555 0.5744 0.08018 0.0
O176 O 0.01826 0.60937 0.10017 0.0
C177 C 0.22475 0.7965 0.23702 0.0
C178 C 0.2891 0.76815 0.27382 0.0
C179 C 0.26161 0.8174 0.26352 0.0
N180 N 0.23027 0.7378 0.23204 0.0
N181 N 0.26892 0.72122 0.25403 0.0
C182 C 0.18364 0.83095 0.21832 0.0
H183 H 0.1548 0.80095 0.20684 0.0
H184 H 0.1947 0.85699 0.19179 0.0
H185 H 0.1709 0.86236 0.24129 0.0
C186 C 0.17045 0.6859 0.07827 0.0
N187 N 0.16231 0.6714 0.1173 0.0
N188 N 0.19242 0.69932 0.14313 0.0
C189 C 0.22151 0.73175 0.12109 0.0
C190 C 0.20831 0.72455 0.07924 0.0
C191 C 0.14223 0.66307 0.04087 0.0
H192 H 0.15115 0.61588 0.03613 0.0
H193 H 0.1042 0.66586 0.04578 0.0
H194 H 0.14918 0.68859 0.01279 0.0
O195 O 0.1559 0.55518 0.17192 0.0
O196 O 0.20973 0.60078 0.21371 0.0
H197 H 0.28088 0.73807 0.16567 0.0
H198 H 0.29011 0.77092 0.11612 0.0
C199 C 0.26413 0.7637 0.13942 0.0
H200 H 0.25342 0.80737 0.1511 0.0
H201 H 0.28128 0.67776 0.25584 0.0
O202 O 0.08906 0.57157 0.09156 0.0
C203 C 0.18981 0.55357 0.19973 0.0
Co204 Co 0.11983 0.41787 0.63965 0.0
Co205 Co 0.19012 0.35125 0.70167 0.0
C206 C 0.08367 0.34942 0.70743 0.0
O207 O 0.0752 0.37868 0.67424 0.0
O208 O 0.12578 0.33714 0.72072 0.0
C209 C 0.04433 0.44598 0.57903 0.0
O210 O 0.0226 0.40139 0.59524 0.0
C211 C 0.22523 0.24003 0.73725 0.0
C212 C 0.29108 0.26677 0.77255 0.0
C213 C 0.26286 0.21798 0.76249 0.0
N214 N 0.23109 0.29869 0.73298 0.0
N215 N 0.27033 0.31454 0.75436 0.0
C216 C 0.18606 0.20634 0.71461 0.0
H217 H 0.17369 0.22986 0.68583 0.0
H218 H 0.19748 0.16088 0.70712 0.0
H219 H 0.15583 0.20377 0.73415 0.0
C220 C 0.17146 0.35123 0.57913 0.0
N221 N 0.16255 0.36416 0.61828 0.0
N222 N 0.19345 0.33715 0.64391 0.0
C223 C 0.22371 0.3069 0.62167 0.0
C224 C 0.21049 0.31458 0.57989 0.0
C225 C 0.14556 0.37782 0.5418 0.0
H226 H 0.14821 0.42674 0.54357 0.0
H227 H 0.10781 0.36566 0.54134 0.0
H228 H 0.15983 0.36272 0.51274 0.0
O229 O 0.15357 0.47959 0.6733 0.0
O230 O 0.20794 0.43494 0.7151 0.0
H231 H 0.28394 0.29862 0.66502 0.0
H232 H 0.28964 0.26038 0.61653 0.0
C233 C 0.26505 0.2725 0.64004 0.0
H234 H 0.25242 0.23106 0.65366 0.0
H235 H 0.28317 0.35779 0.75616 0.0
O236 O 0.08538 0.45986 0.59371 0.0
C237 C 0.18734 0.48175 0.70125 0.0
Co238 Co 0.88801 0.41048 0.8794 0.0
Co239 Co 0.82007 0.34145 0.81602 0.0
C240 C 0.92575 0.3469 0.80926 0.0
O241 O 0.93283 0.3764 0.84252 0.0
O242 O 0.88432 0.33206 0.79554 0.0
C243 C 0.96444 0.44022 0.93902 0.0
O244 O 0.98709 0.39758 0.92148 0.0
C245 C 0.78651 0.23053 0.77678 0.0
C246 C 0.71455 0.25405 0.75221 0.0
C247 C 0.74614 0.20738 0.75617 0.0
N248 N 0.77869 0.28784 0.78536 0.0
N249 N 0.73569 0.30168 0.77036 0.0
C250 C 0.83258 0.19995 0.78677 0.0
H251 H 0.86137 0.22659 0.77507 0.0
H252 H 0.83933 0.19656 0.82079 0.0
H253 H 0.83326 0.15528 0.77268 0.0
C254 C 0.84023 0.33826 0.93888 0.0
N255 N 0.84876 0.35243 0.89988 0.0
N256 N 0.81904 0.32415 0.87387 0.0
C257 C 0.79011 0.29133 0.89583 0.0
C258 C 0.80276 0.29912 0.93771 0.0
C259 C 0.86402 0.36707 0.97639 0.0
H260 H 0.85884 0.41567 0.97433 0.0
H261 H 0.90235 0.35808 0.97742 0.0
H262 H 0.85009 0.35089 1.00531 0.0
O263 O 0.84929 0.47128 0.84965 0.0
O264 O 0.79906 0.42524 0.80485 0.0
H265 H 0.72688 0.28332 0.85626 0.0
H266 H 0.72891 0.23555 0.90118 0.0
C267 C 0.74989 0.25521 0.87722 0.0
H268 H 0.76379 0.21884 0.85876 0.0
H269 H 0.72059 0.34346 0.77294 0.0
O270 O 0.92251 0.4521 0.92565 0.0
C271 C 0.81548 0.47272 0.82173 0.0
C272 C 0.21057 0.25486 0.51516 0.0
C273 C 0.23435 0.29308 0.54384 0.0
C274 C 0.23199 0.23517 0.48011 0.0
C275 C 0.27769 0.25349 0.47257 0.0
H276 H 0.17529 0.2399 0.52004 0.0
H277 H 0.21299 0.20482 0.45907 0.0
S278 S 0.35363 0.35577 0.53702 0.0
N279 N 0.30507 0.35043 0.56156 0.0
N280 N 0.34548 0.31304 0.49579 0.0
C281 C 0.30153 0.29221 0.50073 0.0
C282 C 0.27978 0.31219 0.53637 0.0
C283 C 0.77873 0.22468 0.03866 0.0
C284 C 0.73277 0.24352 0.04486 0.0
C285 C 0.801 0.24227 1.00354 0.0
C286 C 0.77779 0.27868 0.97339 0.0
H287 H 0.79733 0.19568 0.06087 0.0
H288 H 0.83656 0.22728 0.99985 0.0
S289 S 0.65788 0.34124 0.97594 0.0
N290 N 0.66525 0.30138 0.01858 0.0
N291 N 0.7071 0.33435 0.95251 0.0
C292 C 0.73197 0.29792 0.97933 0.0
C293 C 0.70943 0.28028 0.0151 0.0
C294 C 0.74392 0.81761 0.51292 0.0
C295 C 0.72896 0.77775 0.54255 0.0
C296 C 0.76622 0.79748 0.47846 0.0
C297 C 0.77454 0.73689 0.47267 0.0
H298 H 0.73866 0.86474 0.5166 0.0
H299 H 0.77759 0.82953 0.45648 0.0
S300 S 0.73949 0.61445 0.5399 0.0
N301 N 0.72225 0.67499 0.56298 0.0
N302 N 0.76407 0.63703 0.49819 0.0
C303 C 0.75923 0.69659 0.50178 0.0
C304 C 0.73655 0.71708 0.53681 0.0
C305 C 0.26813 0.73203 0.97871 0.0
C306 C 0.27524 0.79304 0.97369 0.0
C307 C 0.24668 0.71014 0.01311 0.0
C308 C 0.23149 0.74859 0.0435 0.0
H309 H 0.27977 0.70102 0.95615 0.0
H310 H 0.24225 0.66276 0.01613 0.0
S311 S 0.23866 0.91225 0.04295 0.0
N312 N 0.26312 0.89175 1.00067 0.0
N313 N 0.223 0.85049 0.06541 0.0
C314 C 0.23782 0.80967 0.03853 0.0
C315 C 0.25956 0.83195 1.00352 0.0
C316 C 0.55095 0.18205 0.27812 0.0
C317 C 0.54469 0.19055 0.23518 0.0
C318 C 0.51237 0.18139 0.30254 0.0
C319 C 0.46609 0.19023 0.28508 0.0
H320 H 0.58556 0.1723 0.29268 0.0
H321 H 0.51881 0.17171 0.33515 0.0
S322 S 0.43217 0.22359 0.17476 0.0
N323 N 0.48974 0.21399 0.17671 0.0
N324 N 0.41723 0.21443 0.2225 0.0
C325 C 0.45992 0.2033 0.24255 0.0
C326 C 0.49919 0.2029 0.21762 0.0
C327 C 0.4964 0.83845 0.71645 0.0
C328 C 0.54302 0.83572 0.73417 0.0
C329 C 0.45797 0.83832 0.74106 0.0
C330 C 0.46473 0.83663 0.78441 0.0
H331 H 0.48952 0.84294 0.68332 0.0
H332 H 0.42293 0.84334 0.72607 0.0
S333 S 0.57915 0.82221 0.8461 0.0
N334 N 0.59333 0.8253 0.79778 0.0
N335 N 0.52116 0.82634 0.8439 0.0
C336 C 0.5109 0.83031 0.80243 0.0
C337 C 0.55002 0.82944 0.77736 0.0
C338 C 0.04981 0.69306 0.27445 0.0
C339 C 0.04272 0.69389 0.2311 0.0
C340 C 0.01163 0.69208 0.29932 0.0
C341 C 0.96484 0.69295 0.28188 0.0
H342 H 0.08503 0.68945 0.28932 0.0
H343 H 0.0189 0.68825 0.33244 0.0
S344 S 0.92761 0.70411 0.17 0.0
N345 N 0.98565 0.70179 0.17187 0.0
N346 N 0.91389 0.70108 0.21845 0.0
C347 C 0.95739 0.69848 0.23865 0.0
C348 C 0.99631 0.69856 0.21332 0.0
C349 C 0.99741 0.33802 0.71581 0.0
C350 C 0.04412 0.33664 0.73345 0.0
C351 C 0.95907 0.33705 0.74051 0.0
C352 C 0.96597 0.33582 0.78386 0.0
H353 H 0.99036 0.34224 0.68269 0.0
H354 H 0.92391 0.34093 0.72557 0.0
S355 S 0.0807 0.32422 0.84539 0.0
N356 N 0.09472 0.32757 0.79703 0.0
N357 N 0.02267 0.32701 0.84327 0.0
C358 C 0.01226 0.33071 0.80181 0.0
C359 C 0.05132 0.33068 0.77666 0.0
C360 C 0.26545 0.92783 0.25318 0.0
C361 C 0.27063 0.87829 0.27945 0.0
C362 C 0.27791 0.98493 0.26743 0.0
C363 C 0.29645 0.99436 0.30833 0.0
H364 H 0.25362 0.92233 0.22097 0.0
H365 H 0.27484 0.02146 0.2458 0.0
S366 S 0.31204 0.88016 0.39052 0.0
N367 N 0.29195 0.84317 0.34903 0.0
N368 N 0.31556 0.94979 0.37575 0.0
C369 C 0.30005 0.9454 0.33522 0.0
C370 C 0.28725 0.88757 0.32077 0.0
C371 C 0.72965 0.98052 0.25037 0.0
C372 C 0.70962 0.99028 0.21 0.0
C373 C 0.74189 0.92321 0.26419 0.0
C374 C 0.7351 0.87376 0.23798 0.0
H375 H 0.73421 0.01702 0.27193 0.0
H376 H 0.75499 0.91758 0.29607 0.0
S377 S 0.68865 0.87633 0.12814 0.0
N378 N 0.68675 0.94604 0.1431 0.0
N379 N 0.71013 0.83899 0.16898 0.0
C380 C 0.71669 0.88331 0.19717 0.0
C381 C 0.70402 0.94136 0.18317 0.0
C382 C 0.70307 0.0809 0.68678 0.0
C383 C 0.71053 0.0305 0.71198 0.0
C384 C 0.71571 0.13757 0.70117 0.0
C385 C 0.73656 0.14627 0.74127 0.0
H386 H 0.68669 0.07677 0.6557 0.0
H387 H 0.70874 0.17503 0.68079 0.0
S388 S 0.76132 0.03011 0.82065 0.0
N389 N 0.73932 0.99351 0.77958 0.0
N390 N 0.76208 0.10042 0.80685 0.0
C391 C 0.7444 0.09652 0.7669 0.0
C392 C 0.73177 0.03855 0.75216 0.0
C393 C 0.32231 0.13821 0.77605 0.0
C394 C 0.27485 0.15596 0.77434 0.0
C395 C 0.33603 0.08126 0.78892 0.0
C396 C 0.30277 0.03946 0.80001 0.0
H397 H 0.34927 0.16875 0.76758 0.0
H398 H 0.37306 0.06985 0.79029 0.0
S399 S 0.17493 0.06441 0.80499 0.0
N400 N 0.19512 0.12805 0.78862 0.0
N401 N 0.22083 0.01968 0.81032 0.0
C402 C 0.25524 0.05609 0.79837 0.0
C403 C 0.24128 0.11472 0.78619 0.0
C404 C 0.75909 0.47495 0.29327 0.0
C405 C 0.80667 0.49152 0.29869 0.0
C406 C 0.74613 0.41714 0.281 0.0
C407 C 0.78028 0.3744 0.27273 0.0
H408 H 0.73184 0.5061 0.30013 0.0
H409 H 0.70923 0.40566 0.27944 0.0
S410 S 0.90961 0.39834 0.27855 0.0
N411 N 0.88788 0.46216 0.2929 0.0
N412 N 0.86376 0.35462 0.26851 0.0
C413 C 0.82793 0.39146 0.27682 0.0
C414 C 0.84104 0.44974 0.28996 0.0
C415 C 0.25179 0.47924 0.22324 0.0
C416 C 0.20412 0.49514 0.2169 0.0
C417 C 0.26499 0.42162 0.23587 0.0
C418 C 0.23096 0.37841 0.24355 0.0
H419 H 0.27896 0.51074 0.21684 0.0
H420 H 0.302 0.41064 0.23817 0.0
S421 S 0.10138 0.40064 0.2354 0.0
N422 N 0.12294 0.46468 0.22132 0.0
N423 N 0.14743 0.35761 0.24632 0.0
C424 C 0.1832 0.39486 0.23859 0.0
C425 C 0.16988 0.45292 0.22511 0.0
C426 C 0.24878 0.55576 0.72615 0.0
C427 C 0.20117 0.54031 0.71844 0.0
C428 C 0.26188 0.61324 0.73906 0.0
C429 C 0.22777 0.65679 0.74569 0.0
H430 H 0.27607 0.52396 0.72063 0.0
H431 H 0.29894 0.62384 0.74235 0.0
S432 S 0.09813 0.63597 0.73374 0.0
N433 N 0.11983 0.57162 0.72043 0.0
N434 N 0.14414 0.67858 0.74594 0.0
C435 C 0.18001 0.64087 0.73934 0.0
C436 C 0.16679 0.5829 0.72557 0.0
C437 C 0.76444 0.5973 0.7531 0.0
C438 C 0.77084 0.64734 0.77881 0.0
C439 C 0.77699 0.54034 0.76758 0.0
C440 C 0.79682 0.53154 0.80815 0.0
H441 H 0.75156 0.60225 0.7211 0.0
H442 H 0.77295 0.5034 0.74634 0.0
S443 S 0.81606 0.64734 0.88896 0.0
N444 N 0.7948 0.68366 0.84759 0.0
N445 N 0.81856 0.57735 0.87474 0.0
C446 C 0.80168 0.58105 0.83452 0.0
C447 C 0.7888 0.63872 0.81984 0.0
C448 C 0.52918 0.04918 0.48898 0.0
C449 C 0.48118 0.04468 0.47582 0.0
C450 C 0.54848 0.01698 0.52297 0.0
C451 C 0.52061 0.97889 0.54531 0.0
H452 H 0.55226 0.07774 0.47292 0.0
H453 H 0.58572 0.02205 0.53164 0.0
S454 S 0.39262 0.9513 0.52375 0.0
N455 N 0.40594 0.99899 0.48798 0.0
N456 N 0.44228 0.93871 0.55188 0.0
C457 C 0.47248 0.97394 0.53257 0.0
C458 C 0.45276 1.00674 0.49788 0.0
C459 C 0.48001 0.05944 0.02497 0.0
C460 C 0.5257 0.04758 0.04235 0.0
C461 C 0.46069 0.02754 0.99083 0.0
C462 C 0.48624 0.98242 0.97258 0.0
H463 H 0.45882 0.09369 0.03774 0.0
H464 H 0.42527 0.03847 0.97877 0.0
S465 S 0.60753 0.93363 1.00635 0.0
N466 N 0.59618 0.98712 0.03873 0.0
N467 N 0.55981 0.92743 0.97456 0.0
C468 C 0.53202 0.96998 0.98962 0.0
C469 C 0.55174 1.00246 0.02446 0.0
C470 C 0.05034 0.51813 0.52141 0.0
C471 C 0.02279 0.47839 0.54273 0.0
C472 C 0.03142 0.54928 0.48681 0.0
C473 C 0.98411 0.54213 0.47208 0.0
H474 H 0.08707 0.52519 0.53132 0.0
H475 H 0.05422 0.57923 0.47158 0.0
S476 S 0.89652 0.44411 0.51724 0.0
N477 N 0.9455 0.43405 0.54687 0.0
N478 N 0.90978 0.49243 0.48185 0.0
C479 C 0.95601 0.50256 0.49315 0.0
C480 C 0.97538 0.47074 0.52842 0.0
C481 C 0.97808 0.54403 0.03104 0.0
C482 C 0.02608 0.53931 0.04422 0.0
C483 C 0.95869 0.51186 0.99706 0.0
C484 C 0.98642 0.47342 0.97485 0.0
H485 H 0.95511 0.5729 0.04699 0.0
H486 H 0.92148 0.51715 0.98832 0.0
S487 S 0.11426 0.44518 0.99641 0.0
N488 N 0.10114 0.49309 0.03215 0.0
N489 N 0.06454 0.43269 0.96834 0.0
C490 C 0.03448 0.4681 0.98766 0.0
C491 C 0.05433 0.50102 0.02228 0.0
loop_
_geom_bond_atom_site_label_1
_geom_bond_atom_site_label_2
_geom_bond_distance
_geom_bond_site_symmetry_2
_ccdc_geom_bond_type
Co0 O3 1.970 . S
Co0 N17 1.989 . S
Co0 O25 1.967 . S
Co0 O32 1.920 . S
Co1 O4 1.966 . S
Co1 N10 2.022 . S
Co1 N18 1.993 . S
Co1 O26 1.941 . S
C2 O3 1.258 . S
C2 O4 1.263 . S
O3 Co0 1.970 . S
O3 C2 1.258 . S
O4 Co1 1.966 . S
O4 C2 1.263 . S
C5 O6 1.235 . S
C5 O32 1.289 . S
O6 C5 1.235 . S
C7 C9 1.400 . S
C7 N10 1.351 . S
C7 C12 1.501 . S
C8 C9 1.387 . S
C8 N11 1.341 . S
C9 C7 1.400 . S
C9 C8 1.387 . S
N10 Co1 2.022 . S
N10 C7 1.351 . S
N10 N11 1.365 . S
N11 C8 1.341 . S
N11 N10 1.365 . S
N11 H31 0.862 . S
C12 C7 1.501 . S
C12 H13 0.961 . S
C12 H14 0.961 . S
C12 H15 0.960 . S
H13 C12 0.961 . S
H14 C12 0.961 . S
H15 C12 0.960 . S
C16 N17 1.342 . S
C16 C20 1.401 . S
C16 C21 1.499 . S
N17 Co0 1.989 . S
N17 C16 1.342 . S
N17 N18 1.388 . S
N18 Co1 1.993 . S
N18 N17 1.388 . S
N18 C19 1.346 . S
C19 N18 1.346 . S
C19 C20 1.396 . S
C19 C29 1.510 . S
C20 C16 1.401 . S
C20 C19 1.396 . S
C21 C16 1.499 . S
C21 H22 0.959 . S
C21 H23 0.960 . S
C21 H24 0.961 . S
H22 C21 0.959 . S
H23 C21 0.960 . S
H24 C21 0.961 . S
O25 Co0 1.967 . S
O25 C33 1.258 . S
O26 Co1 1.941 . S
O26 C33 1.266 . S
H27 C29 0.959 . S
H28 C29 0.961 . S
C29 C19 1.510 . S
C29 H27 0.959 . S
C29 H28 0.961 . S
C29 H30 0.960 . S
H30 C29 0.960 . S
H31 N11 0.862 . S
O32 Co0 1.920 . S
O32 C5 1.289 . S
C33 O25 1.258 . S
C33 O26 1.266 . S
Co34 O37 1.970 . S
Co34 N51 1.989 . S
Co34 O59 1.967 . S
Co34 O66 1.920 . S
Co35 O38 1.966 . S
Co35 N44 2.022 . S
Co35 N52 1.993 . S
Co35 O60 1.941 . S
C36 O37 1.258 . S
C36 O38 1.263 . S
O37 Co34 1.970 . S
O37 C36 1.258 . S
O38 Co35 1.966 . S
O38 C36 1.263 . S
C39 O40 1.235 . S
C39 O66 1.289 . S
O40 C39 1.235 . S
C41 C43 1.400 . S
C41 N44 1.351 . S
C41 C46 1.501 . S
C42 C43 1.387 . S
C42 N45 1.341 . S
C43 C41 1.400 . S
C43 C42 1.387 . S
N44 Co35 2.022 . S
N44 C41 1.351 . S
N44 N45 1.365 . S
N45 C42 1.341 . S
N45 N44 1.365 . S
N45 H65 0.862 . S
C46 C41 1.501 . S
C46 H47 0.961 . S
C46 H48 0.961 . S
C46 H49 0.960 . S
H47 C46 0.961 . S
H48 C46 0.961 . S
H49 C46 0.960 . S
C50 N51 1.342 . S
C50 C54 1.401 . S
C50 C55 1.499 . S
N51 Co34 1.989 . S
N51 C50 1.342 . S
N51 N52 1.388 . S
N52 Co35 1.993 . S
N52 N51 1.388 . S
N52 C53 1.346 . S
C53 N52 1.346 . S
C53 C54 1.396 . S
C53 C63 1.510 . S
C54 C50 1.401 . S
C54 C53 1.396 . S
C55 C50 1.499 . S
C55 H56 0.959 . S
C55 H57 0.960 . S
C55 H58 0.961 . S
H56 C55 0.959 . S
H57 C55 0.960 . S
H58 C55 0.961 . S
O59 Co34 1.967 . S
O59 C67 1.258 . S
O60 Co35 1.941 . S
O60 C67 1.266 . S
H61 C63 0.959 . S
H62 C63 0.961 . S
C63 C53 1.510 . S
C63 H61 0.959 . S
C63 H62 0.961 . S
C63 H64 0.960 . S
H64 C63 0.960 . S
H65 N45 0.862 . S
O66 Co34 1.920 . S
O66 C39 1.289 . S
C67 O59 1.258 . S
C67 O60 1.266 . S
Co68 O71 1.970 . S
Co68 N85 1.989 . S
Co68 O93 1.967 . S
Co68 O100 1.920 . S
Co69 O72 1.966 . S
Co69 N78 2.022 . S
Co69 N86 1.993 . S
Co69 O94 1.941 . S
C70 O71 1.258 . S
C70 O72 1.263 . S
O71 Co68 1.970 . S
O71 C70 1.258 . S
O72 Co69 1.966 . S
O72 C70 1.263 . S
C73 O74 1.235 . S
C73 O100 1.289 . S
O74 C73 1.235 . S
C75 C77 1.400 . S
C75 N78 1.351 . S
C75 C80 1.501 . S
C76 C77 1.387 . S
C76 N79 1.341 . S
C77 C75 1.400 . S
C77 C76 1.387 . S
N78 Co69 2.022 . S
N78 C75 1.351 . S
N78 N79 1.365 . S
N79 C76 1.341 . S
N79 N78 1.365 . S
N79 H99 0.862 . S
C80 C75 1.501 . S
C80 H81 0.961 . S
C80 H82 0.961 . S
C80 H83 0.960 . S
H81 C80 0.961 . S
H82 C80 0.961 . S
H83 C80 0.960 . S
C84 N85 1.342 . S
C84 C88 1.401 . S
C84 C89 1.499 . S
N85 Co68 1.989 . S
N85 C84 1.342 . S
N85 N86 1.388 . S
N86 Co69 1.993 . S
N86 N85 1.388 . S
N86 C87 1.346 . S
C87 N86 1.346 . S
C87 C88 1.396 . S
C87 C97 1.510 . S
C88 C84 1.401 . S
C88 C87 1.396 . S
C89 C84 1.499 . S
C89 H90 0.959 . S
C89 H91 0.960 . S
C89 H92 0.961 . S
H90 C89 0.959 . S
H91 C89 0.960 . S
H92 C89 0.961 . S
O93 Co68 1.967 . S
O93 C101 1.258 . S
O94 Co69 1.941 . S
O94 C101 1.266 . S
H95 C97 0.959 . S
H96 C97 0.961 . S
C97 C87 1.510 . S
C97 H95 0.959 . S
C97 H96 0.961 . S
C97 H98 0.960 . S
H98 C97 0.960 . S
H99 N79 0.862 . S
O100 Co68 1.920 . S
O100 C73 1.289 . S
C101 O93 1.258 . S
C101 O94 1.266 . S
Co102 O105 1.970 . S
Co102 N119 1.989 . S
Co102 O127 1.967 . S
Co102 O134 1.920 . S
Co103 O106 1.966 . S
Co103 N112 2.022 . S
Co103 N120 1.993 . S
Co103 O128 1.941 . S
C104 O105 1.258 . S
C104 O106 1.263 . S
O105 Co102 1.970 . S
O105 C104 1.258 . S
O106 Co103 1.966 . S
O106 C104 1.263 . S
C107 O108 1.235 . S
C107 O134 1.289 . S
O108 C107 1.235 . S
C109 C111 1.400 . S
C109 N112 1.351 . S
C109 C114 1.501 . S
C110 C111 1.387 . S
C110 N113 1.341 . S
C111 C109 1.400 . S
C111 C110 1.387 . S
N112 Co103 2.022 . S
N112 C109 1.351 . S
N112 N113 1.365 . S
N113 C110 1.341 . S
N113 N112 1.365 . S
N113 H133 0.862 . S
C114 C109 1.501 . S
C114 H115 0.961 . S
C114 H116 0.961 . S
C114 H117 0.960 . S
H115 C114 0.961 . S
H116 C114 0.961 . S
H117 C114 0.960 . S
C118 N119 1.342 . S
C118 C122 1.401 . S
C118 C123 1.499 . S
N119 Co102 1.989 . S
N119 C118 1.342 . S
N119 N120 1.388 . S
N120 Co103 1.993 . S
N120 N119 1.388 . S
N120 C121 1.346 . S
C121 N120 1.346 . S
C121 C122 1.396 . S
C121 C131 1.510 . S
C122 C118 1.401 . S
C122 C121 1.396 . S
C123 C118 1.499 . S
C123 H124 0.959 . S
C123 H125 0.960 . S
C123 H126 0.961 . S
H124 C123 0.959 . S
H125 C123 0.960 . S
H126 C123 0.961 . S
O127 Co102 1.967 . S
O127 C135 1.258 . S
O128 Co103 1.941 . S
O128 C135 1.266 . S
H129 C131 0.959 . S
H130 C131 0.961 . S
C131 C121 1.510 . S
C131 H129 0.959 . S
C131 H130 0.961 . S
C131 H132 0.960 . S
H132 C131 0.960 . S
H133 N113 0.862 . S
O134 Co102 1.920 . S
O134 C107 1.289 . S
C135 O127 1.258 . S
C135 O128 1.266 . S
Co136 O139 1.970 . S
Co136 N153 1.989 . S
Co136 O161 1.967 . S
Co136 O168 1.920 . S
Co137 O140 1.966 . S
Co137 N146 2.022 . S
Co137 N154 1.993 . S
Co137 O162 1.941 . S
C138 O139 1.258 . S
C138 O140 1.263 . S
O139 Co136 1.970 . S
O139 C138 1.258 . S
O140 Co137 1.966 . S
O140 C138 1.263 . S
C141 O142 1.235 . S
C141 O168 1.289 . S
O142 C141 1.235 . S
C143 C145 1.400 . S
C143 N146 1.351 . S
C143 C148 1.501 . S
C144 C145 1.387 . S
C144 N147 1.341 . S
C145 C143 1.400 . S
C145 C144 1.387 . S
N146 Co137 2.022 . S
N146 C143 1.351 . S
N146 N147 1.365 . S
N147 C144 1.341 . S
N147 N146 1.365 . S
N147 H167 0.862 . S
C148 C143 1.501 . S
C148 H149 0.961 . S
C148 H150 0.961 . S
C148 H151 0.960 . S
H149 C148 0.961 . S
H150 C148 0.961 . S
H151 C148 0.960 . S
C152 N153 1.342 . S
C152 C156 1.401 . S
C152 C157 1.499 . S
N153 Co136 1.989 . S
N153 C152 1.342 . S
N153 N154 1.388 . S
N154 Co137 1.993 . S
N154 N153 1.388 . S
N154 C155 1.346 . S
C155 N154 1.346 . S
C155 C156 1.396 . S
C155 C165 1.510 . S
C156 C152 1.401 . S
C156 C155 1.396 . S
C157 C152 1.499 . S
C157 H158 0.959 . S
C157 H159 0.960 . S
C157 H160 0.961 . S
H158 C157 0.959 . S
H159 C157 0.960 . S
H160 C157 0.961 . S
O161 Co136 1.967 . S
O161 C169 1.258 . S
O162 Co137 1.941 . S
O162 C169 1.266 . S
H163 C165 0.959 . S
H164 C165 0.961 . S
C165 C155 1.510 . S
C165 H163 0.959 . S
C165 H164 0.961 . S
C165 H166 0.960 . S
H166 C165 0.960 . S
H167 N147 0.862 . S
O168 Co136 1.920 . S
O168 C141 1.289 . S
C169 O161 1.258 . S
C169 O162 1.266 . S
Co170 O173 1.970 . S
Co170 N187 1.989 . S
Co170 O195 1.967 . S
Co170 O202 1.920 . S
Co171 O174 1.966 . S
Co171 N180 2.022 . S
Co171 N188 1.993 . S
Co171 O196 1.941 . S
C172 O173 1.258 . S
C172 O174 1.263 . S
O173 Co170 1.970 . S
O173 C172 1.258 . S
O174 Co171 1.966 . S
O174 C172 1.263 . S
C175 O176 1.235 . S
C175 O202 1.289 . S
O176 C175 1.235 . S
C177 C179 1.400 . S
C177 N180 1.351 . S
C177 C182 1.501 . S
C178 C179 1.387 . S
C178 N181 1.341 . S
C179 C177 1.400 . S
C179 C178 1.387 . S
N180 Co171 2.022 . S
N180 C177 1.351 . S
N180 N181 1.365 . S
N181 C178 1.341 . S
N181 N180 1.365 . S
N181 H201 0.862 . S
C182 C177 1.501 . S
C182 H183 0.961 . S
C182 H184 0.961 . S
C182 H185 0.960 . S
H183 C182 0.961 . S
H184 C182 0.961 . S
H185 C182 0.960 . S
C186 N187 1.342 . S
C186 C190 1.401 . S
C186 C191 1.499 . S
N187 Co170 1.989 . S
N187 C186 1.342 . S
N187 N188 1.388 . S
N188 Co171 1.993 . S
N188 N187 1.388 . S
N188 C189 1.346 . S
C189 N188 1.346 . S
C189 C190 1.396 . S
C189 C199 1.510 . S
C190 C186 1.401 . S
C190 C189 1.396 . S
C191 C186 1.499 . S
C191 H192 0.959 . S
C191 H193 0.960 . S
C191 H194 0.961 . S
H192 C191 0.959 . S
H193 C191 0.960 . S
H194 C191 0.961 . S
O195 Co170 1.967 . S
O195 C203 1.258 . S
O196 Co171 1.941 . S
O196 C203 1.266 . S
H197 C199 0.959 . S
H198 C199 0.961 . S
C199 C189 1.510 . S
C199 H197 0.959 . S
C199 H198 0.961 . S
C199 H200 0.960 . S
H200 C199 0.960 . S
H201 N181 0.862 . S
O202 Co170 1.920 . S
O202 C175 1.289 . S
C203 O195 1.258 . S
C203 O196 1.266 . S
Co204 O207 1.970 . S
Co204 N221 1.989 . S
Co204 O229 1.967 . S
Co204 O236 1.920 . S
Co205 O208 1.966 . S
Co205 N214 2.022 . S
Co205 N222 1.993 . S
Co205 O230 1.941 . S
C206 O207 1.258 . S
C206 O208 1.263 . S
O207 Co204 1.970 . S
O207 C206 1.258 . S
O208 Co205 1.966 . S
O208 C206 1.263 . S
C209 O210 1.235 . S
C209 O236 1.289 . S
O210 C209 1.235 . S
C211 C213 1.400 . S
C211 N214 1.351 . S
C211 C216 1.501 . S
C212 C213 1.387 . S
C212 N215 1.341 . S
C213 C211 1.400 . S
C213 C212 1.387 . S
N214 Co205 2.022 . S
N214 C211 1.351 . S
N214 N215 1.365 . S
N215 C212 1.341 . S
N215 N214 1.365 . S
N215 H235 0.862 . S
C216 C211 1.501 . S
C216 H217 0.961 . S
C216 H218 0.961 . S
C216 H219 0.960 . S
H217 C216 0.961 . S
H218 C216 0.961 . S
H219 C216 0.960 . S
C220 N221 1.342 . S
C220 C224 1.401 . S
C220 C225 1.499 . S
N221 Co204 1.989 . S
N221 C220 1.342 . S
N221 N222 1.388 . S
N222 Co205 1.993 . S
N222 N221 1.388 . S
N222 C223 1.346 . S
C223 N222 1.346 . S
C223 C224 1.396 . S
C223 C233 1.510 . S
C224 C220 1.401 . S
C224 C223 1.396 . S
C225 C220 1.499 . S
C225 H226 0.959 . S
C225 H227 0.960 . S
C225 H228 0.961 . S
H226 C225 0.959 . S
H227 C225 0.960 . S
H228 C225 0.961 . S
O229 Co204 1.967 . S
O229 C237 1.258 . S
O230 Co205 1.941 . S
O230 C237 1.266 . S
H231 C233 0.959 . S
H232 C233 0.961 . S
C233 C223 1.510 . S
C233 H231 0.959 . S
C233 H232 0.961 . S
C233 H234 0.960 . S
H234 C233 0.960 . S
H235 N215 0.862 . S
O236 Co204 1.920 . S
O236 C209 1.289 . S
C237 O229 1.258 . S
C237 O230 1.266 . S
Co238 O241 1.970 . S
Co238 N255 1.989 . S
Co238 O263 1.967 . S
Co238 O270 1.920 . S
Co239 O242 1.966 . S
Co239 N248 2.022 . S
Co239 N256 1.993 . S
Co239 O264 1.941 . S
C240 O241 1.258 . S
C240 O242 1.263 . S
O241 Co238 1.970 . S
O241 C240 1.258 . S
O242 Co239 1.966 . S
O242 C240 1.263 . S
C243 O244 1.235 . S
C243 O270 1.289 . S
O244 C243 1.235 . S
C245 C247 1.400 . S
C245 N248 1.351 . S
C245 C250 1.501 . S
C246 C247 1.387 . S
C246 N249 1.341 . S
C247 C245 1.400 . S
C247 C246 1.387 . S
N248 Co239 2.022 . S
N248 C245 1.351 . S
N248 N249 1.365 . S
N249 C246 1.341 . S
N249 N248 1.365 . S
N249 H269 0.862 . S
C250 C245 1.501 . S
C250 H251 0.961 . S
C250 H252 0.961 . S
C250 H253 0.960 . S
H251 C250 0.961 . S
H252 C250 0.961 . S
H253 C250 0.960 . S
C254 N255 1.342 . S
C254 C258 1.401 . S
C254 C259 1.499 . S
N255 Co238 1.989 . S
N255 C254 1.342 . S
N255 N256 1.388 . S
N256 Co239 1.993 . S
N256 N255 1.388 . S
N256 C257 1.346 . S
C257 N256 1.346 . S
C257 C258 1.396 . S
C257 C267 1.510 . S
C258 C254 1.401 . S
C258 C257 1.396 . S
C259 C254 1.499 . S
C259 H260 0.959 . S
C259 H261 0.960 . S
C259 H262 0.961 . S
H260 C259 0.959 . S
H261 C259 0.960 . S
H262 C259 0.961 . S
O263 Co238 1.967 . S
O263 C271 1.258 . S
O264 Co239 1.941 . S
O264 C271 1.266 . S
H265 C267 0.959 . S
H266 C267 0.961 . S
C267 C257 1.510 . S
C267 H265 0.959 . S
C267 H266 0.961 . S
C267 H268 0.960 . S
H268 C267 0.960 . S
H269 N249 0.862 . S
O270 Co238 1.920 . S
O270 C243 1.289 . S
C271 O263 1.258 . S
C271 O264 1.266 . S
C272 C273 1.369 . S
C272 C274 1.419 . S
C272 H276 0.930 . S
C273 C272 1.369 . S
C273 C282 1.429 . S
C274 C272 1.419 . S
C274 C275 1.363 . S
C274 H277 0.929 . S
C275 C274 1.363 . S
C275 C281 1.428 . S
H276 C272 0.930 . S
H277 C274 0.929 . S
S278 N279 1.613 . S
S278 N280 1.610 . S
N279 S278 1.613 . S
N279 C282 1.350 . S
N280 S278 1.610 . S
N280 C281 1.351 . S
C281 C275 1.428 . S
C281 N280 1.351 . S
C281 C282 1.434 . S
C282 C273 1.429 . S
C282 N279 1.350 . S
C282 C281 1.434 . S
C283 C284 1.369 . S
C283 C285 1.419 1_554 S
C283 H287 0.930 . S
C284 C283 1.369 . S
C284 C293 1.429 . S
C285 C283 1.419 1_556 S
C285 C286 1.363 . S
C285 H288 0.929 . S
C286 C285 1.363 . S
C286 C292 1.428 . S
H287 C283 0.930 . S
H288 C285 0.929 . S
S289 N290 1.613 . S
S289 N291 1.610 . S
N290 S289 1.613 . S
N290 C293 1.350 1_556 S
N291 S289 1.610 . S
N291 C292 1.351 . S
C292 C286 1.428 . S
C292 N291 1.351 . S
C292 C293 1.434 1_556 S
C293 C284 1.429 . S
C293 N290 1.350 1_554 S
C293 C292 1.434 1_554 S
C294 C295 1.369 . S
C294 C296 1.419 . S
C294 H298 0.930 . S
C295 C294 1.369 . S
C295 C304 1.429 . S
C296 C294 1.419 . S
C296 C297 1.363 . S
C296 H299 0.929 . S
C297 C296 1.363 . S
C297 C303 1.428 . S
H298 C294 0.930 . S
H299 C296 0.929 . S
S300 N301 1.613 . S
S300 N302 1.610 . S
N301 S300 1.613 . S
N301 C304 1.350 . S
N302 S300 1.610 . S
N302 C303 1.351 . S
C303 C297 1.428 . S
C303 N302 1.351 . S
C303 C304 1.434 . S
C304 C295 1.429 . S
C304 N301 1.350 . S
C304 C303 1.434 . S
C305 C306 1.369 . S
C305 C307 1.419 1_556 S
C305 H309 0.930 . S
C306 C305 1.369 . S
C306 C315 1.429 . S
C307 C305 1.419 1_554 S
C307 C308 1.363 . S
C307 H310 0.929 . S
C308 C307 1.363 . S
C308 C314 1.428 . S
H309 C305 0.930 . S
H310 C307 0.929 . S
S311 N312 1.613 1_554 S
S311 N313 1.610 . S
N312 S311 1.613 1_556 S
N312 C315 1.350 . S
N313 S311 1.610 . S
N313 C314 1.351 . S
C314 C308 1.428 . S
C314 N313 1.351 . S
C314 C315 1.434 1_554 S
C315 C306 1.429 . S
C315 N312 1.350 . S
C315 C314 1.434 1_556 S
C316 C317 1.369 . S
C316 C318 1.419 . S
C316 H320 0.930 . S
C317 C316 1.369 . S
C317 C326 1.429 . S
C318 C316 1.419 . S
C318 C319 1.363 . S
C318 H321 0.929 . S
C319 C318 1.363 . S
C319 C325 1.428 . S
H320 C316 0.930 . S
H321 C318 0.929 . S
S322 N323 1.613 . S
S322 N324 1.610 . S
N323 S322 1.613 . S
N323 C326 1.350 . S
N324 S322 1.610 . S
N324 C325 1.351 . S
C325 C319 1.428 . S
C325 N324 1.351 . S
C325 C326 1.434 . S
C326 C317 1.429 . S
C326 N323 1.350 . S
C326 C325 1.434 . S
C327 C328 1.369 . S
C327 C329 1.419 . S
C327 H331 0.930 . S
C328 C327 1.369 . S
C328 C337 1.429 . S
C329 C327 1.419 . S
C329 C330 1.363 . S
C329 H332 0.929 . S
C330 C329 1.363 . S
C330 C336 1.428 . S
H331 C327 0.930 . S
H332 C329 0.929 . S
S333 N334 1.613 . S
S333 N335 1.610 . S
N334 S333 1.613 . S
N334 C337 1.350 . S
N335 S333 1.610 . S
N335 C336 1.351 . S
C336 C330 1.428 . S
C336 N335 1.351 . S
C336 C337 1.434 . S
C337 C328 1.429 . S
C337 N334 1.350 . S
C337 C336 1.434 . S
C338 C339 1.369 . S
C338 C340 1.419 . S
C338 H342 0.930 . S
C339 C338 1.369 . S
C339 C348 1.429 1_455 S
C340 C338 1.419 . S
C340 C341 1.363 1_455 S
C340 H343 0.929 . S
C341 C340 1.363 1_655 S
C341 C347 1.428 . S
H342 C338 0.930 . S
H343 C340 0.929 . S
S344 N345 1.613 . S
S344 N346 1.610 . S
N345 S344 1.613 . S
N345 C348 1.350 . S
N346 S344 1.610 . S
N346 C347 1.351 . S
C347 C341 1.428 . S
C347 N346 1.351 . S
C347 C348 1.434 . S
C348 C339 1.429 1_655 S
C348 N345 1.350 . S
C348 C347 1.434 . S
C349 C350 1.369 . S
C349 C351 1.419 1_455 S
C349 H353 0.930 . S
C350 C349 1.369 . S
C350 C359 1.429 . S
C351 C349 1.419 1_655 S
C351 C352 1.363 . S
C351 H354 0.929 . S
C352 C351 1.363 . S
C352 C358 1.428 . S
H353 C349 0.930 . S
H354 C351 0.929 . S
S355 N356 1.613 . S
S355 N357 1.610 1_455 S
N356 S355 1.613 . S
N356 C359 1.350 . S
N357 S355 1.610 1_655 S
N357 C358 1.351 . S
C358 C352 1.428 . S
C358 N357 1.351 . S
C358 C359 1.434 1_655 S
C359 C350 1.429 . S
C359 N356 1.350 . S
C359 C358 1.434 1_455 S
C360 C361 1.369 . S
C360 C362 1.419 1_565 S
C360 H364 0.930 . S
C361 C360 1.369 . S
C361 C370 1.429 . S
C362 C360 1.419 1_545 S
C362 C363 1.363 . S
C362 H365 0.929 . S
C363 C362 1.363 . S
C363 C369 1.428 1_545 S
H364 C360 0.930 . S
H365 C362 0.929 . S
S366 N367 1.613 . S
S366 N368 1.610 . S
N367 S366 1.613 . S
N367 C370 1.350 . S
N368 S366 1.610 . S
N368 C369 1.351 . S
C369 C363 1.428 1_565 S
C369 N368 1.351 . S
C369 C370 1.434 . S
C370 C361 1.429 . S
C370 N367 1.350 . S
C370 C369 1.434 . S
C371 C372 1.369 1_565 S
C371 C373 1.419 . S
C371 H375 0.930 1_565 S
C372 C371 1.369 1_545 S
C372 C381 1.429 1_545 S
C373 C371 1.419 . S
C373 C374 1.363 . S
C373 H376 0.929 . S
C374 C373 1.363 . S
C374 C380 1.428 . S
H375 C371 0.930 1_545 S
H376 C373 0.929 . S
S377 N378 1.613 . S
S377 N379 1.610 . S
N378 S377 1.613 . S
N378 C381 1.350 . S
N379 S377 1.610 . S
N379 C380 1.351 . S
C380 C374 1.428 . S
C380 N379 1.351 . S
C380 C381 1.434 . S
C381 C372 1.429 1_565 S
C381 N378 1.350 . S
C381 C380 1.434 . S
C382 C383 1.369 1_545 S
C382 C384 1.419 . S
C382 H386 0.930 . S
C383 C382 1.369 1_565 S
C383 C392 1.429 . S
C384 C382 1.419 . S
C384 C385 1.363 . S
C384 H387 0.929 . S
C385 C384 1.363 . S
C385 C391 1.428 . S
H386 C382 0.930 . S
H387 C384 0.929 . S
S388 N389 1.613 . S
S388 N390 1.610 1_565 S
N389 S388 1.613 . S
N389 C392 1.350 . S
N390 S388 1.610 1_545 S
N390 C391 1.351 . S
C391 C385 1.428 . S
C391 N390 1.351 . S
C391 C392 1.434 1_545 S
C392 C383 1.429 . S
C392 N389 1.350 . S
C392 C391 1.434 1_565 S
C393 C394 1.369 . S
C393 C395 1.419 . S
C393 H397 0.930 . S
C394 C393 1.369 . S
C394 C403 1.429 . S
C395 C393 1.419 . S
C395 C396 1.363 1_545 S
C395 H398 0.929 . S
C396 C395 1.363 1_565 S
C396 C402 1.428 . S
H397 C393 0.930 . S
H398 C395 0.929 . S
S399 N400 1.613 1_565 S
S399 N401 1.610 . S
N400 S399 1.613 1_545 S
N400 C403 1.350 . S
N401 S399 1.610 . S
N401 C402 1.351 . S
C402 C396 1.428 . S
C402 N401 1.351 . S
C402 C403 1.434 1_565 S
C403 C394 1.429 . S
C403 N400 1.350 . S
C403 C402 1.434 1_545 S
C404 C405 1.369 . S
C404 C406 1.419 . S
C404 H408 0.930 . S
C405 C404 1.369 . S
C405 C414 1.429 . S
C406 C404 1.419 . S
C406 C407 1.363 . S
C406 H409 0.929 . S
C407 C406 1.363 . S
C407 C413 1.428 . S
H408 C404 0.930 . S
H409 C406 0.929 . S
S410 N411 1.613 . S
S410 N412 1.610 . S
N411 S410 1.613 . S
N411 C414 1.350 . S
N412 S410 1.610 . S
N412 C413 1.351 . S
C413 C407 1.428 . S
C413 N412 1.351 . S
C413 C414 1.434 . S
C414 C405 1.429 . S
C414 N411 1.350 . S
C414 C413 1.434 . S
C415 C416 1.369 . S
C415 C417 1.419 . S
C415 H419 0.930 . S
C416 C415 1.369 . S
C416 C425 1.429 . S
C417 C415 1.419 . S
C417 C418 1.363 . S
C417 H420 0.929 . S
C418 C417 1.363 . S
C418 C424 1.428 . S
H419 C415 0.930 . S
H420 C417 0.929 . S
S421 N422 1.613 . S
S421 N423 1.610 . S
N422 S421 1.613 . S
N422 C425 1.350 . S
N423 S421 1.610 . S
N423 C424 1.351 . S
C424 C418 1.428 . S
C424 N423 1.351 . S
C424 C425 1.434 . S
C425 C416 1.429 . S
C425 N422 1.350 . S
C425 C424 1.434 . S
C426 C427 1.369 . S
C426 C428 1.419 . S
C426 H430 0.930 . S
C427 C426 1.369 . S
C427 C436 1.429 . S
C428 C426 1.419 . S
C428 C429 1.363 . S
C428 H431 0.929 . S
C429 C428 1.363 . S
C429 C435 1.428 . S
H430 C426 0.930 . S
H431 C428 0.929 . S
S432 N433 1.613 . S
S432 N434 1.610 . S
N433 S432 1.613 . S
N433 C436 1.350 . S
N434 S432 1.610 . S
N434 C435 1.351 . S
C435 C429 1.428 . S
C435 N434 1.351 . S
C435 C436 1.434 . S
C436 C427 1.429 . S
C436 N433 1.350 . S
C436 C435 1.434 . S
C437 C438 1.369 . S
C437 C439 1.419 . S
C437 H441 0.930 . S
C438 C437 1.369 . S
C438 C447 1.429 . S
C439 C437 1.419 . S
C439 C440 1.363 . S
C439 H442 0.929 . S
C440 C439 1.363 . S
C440 C446 1.428 . S
H441 C437 0.930 . S
H442 C439 0.929 . S
S443 N444 1.613 . S
S443 N445 1.610 . S
N444 S443 1.613 . S
N444 C447 1.350 . S
N445 S443 1.610 . S
N445 C446 1.351 . S
C446 C440 1.428 . S
C446 N445 1.351 . S
C446 C447 1.434 . S
C447 C438 1.429 . S
C447 N444 1.350 . S
C447 C446 1.434 . S
C448 C449 1.362 1_565 S
C448 C450 1.425 . S
C448 H452 0.931 . S
C449 C448 1.362 1_545 S
C449 C458 1.429 . S
C450 C448 1.425 . S
C450 C451 1.363 . S
C450 H453 0.929 . S
C451 C450 1.363 . S
C451 C457 1.428 1_565 S
H452 C448 0.931 . S
H453 C450 0.929 . S
S454 N455 1.613 . S
S454 N456 1.610 . S
N455 S454 1.613 . S
N455 C458 1.350 . S
N456 S454 1.610 . S
N456 C457 1.351 . S
C457 C451 1.428 1_545 S
C457 N456 1.351 . S
C457 C458 1.434 . S
C458 C449 1.429 . S
C458 N455 1.350 . S
C458 C457 1.434 . S
C459 C460 1.369 . S
C459 C461 1.419 1_554 S
C459 H463 0.930 . S
C460 C459 1.369 . S
C460 C469 1.429 1_545 S
C461 C459 1.419 1_556 S
C461 C462 1.363 1_545 S
C461 H464 0.929 . S
C462 C461 1.363 1_565 S
C462 C468 1.449 . S
H463 C459 0.930 . S
H464 C461 0.929 . S
S465 N466 1.613 . S
S465 N467 1.610 . S
N466 S465 1.613 . S
N466 C469 1.350 . S
N467 S465 1.610 . S
N467 C468 1.349 1_554 S
C468 C462 1.449 . S
C468 N467 1.349 1_556 S
C468 C469 1.414 1_556 S
C469 C460 1.429 1_565 S
C469 N466 1.350 . S
C469 C468 1.414 1_554 S
C470 C471 1.369 . S
C470 C472 1.419 . S
C470 H474 0.930 . S
C471 C470 1.369 . S
C471 C480 1.429 1_455 S
C472 C470 1.419 . S
C472 C473 1.363 1_455 S
C472 H475 0.929 . S
C473 C472 1.363 1_655 S
C473 C479 1.428 . S
H474 C470 0.930 . S
H475 C472 0.929 . S
S476 N477 1.613 . S
S476 N478 1.610 . S
N477 S476 1.613 . S
N477 C480 1.350 . S
N478 S476 1.610 . S
N478 C479 1.351 . S
C479 C473 1.428 . S
C479 N478 1.351 . S
C479 C480 1.434 . S
C480 C471 1.429 1_655 S
C480 N477 1.350 . S
C480 C479 1.434 . S
C481 C482 1.369 1_655 S
C481 C483 1.419 1_554 S
C481 H485 0.930 . S
C482 C481 1.369 1_455 S
C482 C491 1.429 . S
C483 C481 1.419 1_556 S
C483 C484 1.363 . S
C483 H486 0.929 . S
C484 C483 1.363 . S
C484 C490 1.428 1_655 S
H485 C481 0.930 . S
H486 C483 0.929 . S
S487 N488 1.613 1_556 S
S487 N489 1.610 . S
N488 S487 1.613 1_554 S
N488 C491 1.350 . S
N489 S487 1.610 . S
N489 C490 1.351 . S
C490 C484 1.428 1_455 S
C490 N489 1.351 . S
C490 C491 1.434 1_556 S
C491 C482 1.429 . S
C491 N488 1.350 . S
C491 C490 1.434 1_554 S
C273 C224 1.278 . S
C275 C20 1.278 . S
C284 C54 1.278 . S
C286 C258 1.278 . S
C295 C88 1.279 . S
C297 C156 1.278 . S
C306 C122 1.277 . S
C308 C190 1.279 . S
C317 C36 1.652 . S
C319 C2 1.652 . S
C328 C70 1.651 . S
C330 C104 1.652 . S
C339 C172 1.651 . S
C341 C138 1.651 . S
C350 C206 1.652 . S
C352 C240 1.652 . S
C361 C179 1.533 . S
C363 C33 1.571 . S
C372 C67 1.571 . S
C374 C145 1.534 . S
C383 C101 1.571 . S
C385 C247 1.534 . S
C394 C213 1.536 . S
C396 C135 1.571 . S
C405 C169 1.571 . S
C407 C43 1.531 . S
C416 C203 1.571 . S
C418 C9 1.532 . S
C427 C237 1.571 . S
C429 C111 1.531 . S
C438 C77 1.530 . S
C440 C271 1.571 . S
C449 C5 1.522 . S
C451 C73 1.526 . S
C460 C39 1.528 . S
C462 C107 1.522 . S
C471 C209 1.524 . S
C473 C141 1.525 . S
C482 C175 1.526 . S
C484 C243 1.523 . S
