# Generated by pormake.
# Topology usf, (4)-cn, num edge types: 1
# Building blocks:
#     Node 0, Type 0, BuildingBlock: ESEHIV_clean_sbu_0, # of connection points: 4
#     Node 1, Type 0, BuildingBlock: ESEHIV_clean_sbu_0, # of connection points: 4
#     Node 2, Type 0, BuildingBlock: ESEHIV_clean_sbu_0, # of connection points: 4
#     Node 3, Type 0, BuildingBlock: ESEHIV_clean_sbu_0, # of connection points: 4
#     Node 4, Type 0, BuildingBlock: ESEHIV_clean_sbu_0, # of connection points: 4
#     Node 5, Type 0, BuildingBlock: ESEHIV_clean_sbu_0, # of connection points: 4
#     Node 6, Type 0, BuildingBlock: ESEHIV_clean_sbu_0, # of connection points: 4
#     Node 7, Type 0, BuildingBlock: ESEHIV_clean_sbu_0, # of connection points: 4
#     Node 8, Type 0, BuildingBlock: ESEHIV_clean_sbu_0, # of connection points: 4
#     Node 9, Type 0, BuildingBlock: ESEHIV_clean_sbu_0, # of connection points: 4
#     Node 10, Type 0, BuildingBlock: ESEHIV_clean_sbu_0, # of connection points: 4
#     Node 11, Type 0, BuildingBlock: ESEHIV_clean_sbu_0, # of connection points: 4
#     Node 12, Type 0, BuildingBlock: ESEHIV_clean_sbu_0, # of connection points: 4
#     Node 13, Type 0, BuildingBlock: ESEHIV_clean_sbu_0, # of connection points: 4
#     Node 14, Type 0, BuildingBlock: ESEHIV_clean_sbu_0, # of connection points: 4
#     Node 15, Type 0, BuildingBlock: ESEHIV_clean_sbu_0, # of connection points: 4
#     Node 16, Type 0, BuildingBlock: ESEHIV_clean_sbu_0, # of connection points: 4
#     Node 17, Type 0, BuildingBlock: ESEHIV_clean_sbu_0, # of connection points: 4
#     Edge 18, Type (0, 0), BuildingBlock: ZUJKAS_clean_linker_0, # of connection points: 2
#     Edge 19, Type (0, 0), BuildingBlock: ZUJKAS_clean_linker_0, # of connection points: 2
#     Edge 20, Type (0, 0), BuildingBlock: ZUJKAS_clean_linker_0, # of connection points: 2
#     Edge 21, Type (0, 0), BuildingBlock: ZUJKAS_clean_linker_0, # of connection points: 2
#     Edge 22, Type (0, 0), BuildingBlock: ZUJKAS_clean_linker_0, # of connection points: 2
#     Edge 23, Type (0, 0), BuildingBlock: ZUJKAS_clean_linker_0, # of connection points: 2
#     Edge 24, Type (0, 0), BuildingBlock: ZUJKAS_clean_linker_0, # of connection points: 2
#     Edge 25, Type (0, 0), BuildingBlock: ZUJKAS_clean_linker_0, # of connection points: 2
#     Edge 26, Type (0, 0), BuildingBlock: ZUJKAS_clean_linker_0, # of connection points: 2
#     Edge 27, Type (0, 0), BuildingBlock: ZUJKAS_clean_linker_0, # of connection points: 2
#     Edge 28, Type (0, 0), BuildingBlock: ZUJKAS_clean_linker_0, # of connection points: 2
#     Edge 29, Type (0, 0), BuildingBlock: ZUJKAS_clean_linker_0, # of connection points: 2
#     Edge 30, Type (0, 0), BuildingBlock: ZUJKAS_clean_linker_0, # of connection points: 2
#     Edge 31, Type (0, 0), BuildingBlock: ZUJKAS_clean_linker_0, # of connection points: 2
#     Edge 32, Type (0, 0), BuildingBlock: ZUJKAS_clean_linker_0, # of connection points: 2
#     Edge 33, Type (0, 0), BuildingBlock: ZUJKAS_clean_linker_0, # of connection points: 2
#     Edge 34, Type (0, 0), BuildingBlock: ZUJKAS_clean_linker_0, # of connection points: 2
#     Edge 35, Type (0, 0), BuildingBlock: ZUJKAS_clean_linker_0, # of connection points: 2
#     Edge 36, Type (0, 0), BuildingBlock: ZUJKAS_clean_linker_0, # of connection points: 2
#     Edge 37, Type (0, 0), BuildingBlock: ZUJKAS_clean_linker_0, # of connection points: 2
#     Edge 38, Type (0, 0), BuildingBlock: ZUJKAS_clean_linker_0, # of connection points: 2
#     Edge 39, Type (0, 0), BuildingBlock: ZUJKAS_clean_linker_0, # of connection points: 2
#     Edge 40, Type (0, 0), BuildingBlock: ZUJKAS_clean_linker_0, # of connection points: 2
#     Edge 41, Type (0, 0), BuildingBlock: ZUJKAS_clean_linker_0, # of connection points: 2
#     Edge 42, Type (0, 0), BuildingBlock: ZUJKAS_clean_linker_0, # of connection points: 2
#     Edge 43, Type (0, 0), BuildingBlock: ZUJKAS_clean_linker_0, # of connection points: 2
#     Edge 44, Type (0, 0), BuildingBlock: ZUJKAS_clean_linker_0, # of connection points: 2
#     Edge 45, Type (0, 0), BuildingBlock: ZUJKAS_clean_linker_0, # of connection points: 2
#     Edge 46, Type (0, 0), BuildingBlock: ZUJKAS_clean_linker_0, # of connection points: 2
#     Edge 47, Type (0, 0), BuildingBlock: ZUJKAS_clean_linker_0, # of connection points: 2
#     Edge 48, Type (0, 0), BuildingBlock: ZUJKAS_clean_linker_0, # of connection points: 2
#     Edge 49, Type (0, 0), BuildingBlock: ZUJKAS_clean_linker_0, # of connection points: 2
#     Edge 50, Type (0, 0), BuildingBlock: ZUJKAS_clean_linker_0, # of connection points: 2
#     Edge 51, Type (0, 0), BuildingBlock: ZUJKAS_clean_linker_0, # of connection points: 2
#     Edge 52, Type (0, 0), BuildingBlock: ZUJKAS_clean_linker_0, # of connection points: 2
#     Edge 53, Type (0, 0), BuildingBlock: ZUJKAS_clean_linker_0, # of connection points: 2
# Relax obj value: 0.019
# Max RMSD: 0.174
# Mean RMSD: 0.115
data_MOF--net-usf--node1-ESEHIV_clean_sbu_0--edge1-ZUJKAS_clean_linker_0
_symmetry_space_group_name_H-M    P1
_symmetry_Int_Tables_number       1
_symmetry_cell_setting            triclinic
loop_
_symmetry_equiv_pos_as_xyz
'x, y, z'
_cell_length_a     60.78018
_cell_length_b     63.242018
_cell_length_c     42.28286
_cell_angle_alpha  90.167151
_cell_angle_beta   89.84606
_cell_angle_gamma 118.02303
loop_
_atom_site_label
_atom_site_type_symbol
_atom_site_fract_x
_atom_site_fract_y
_atom_site_fract_z
_atom_type_partial_charge
Cu0 Cu 1.01048 0.52342 1.00328 0.0
N1 N 0.98712 0.51149 0.9706 0.0
N2 N 0.97013 0.50725 0.92271 0.0
C3 C 0.99055 0.51969 0.94075 0.0
C4 C 0.95322 0.49058 0.94213 0.0
C5 C 0.96376 0.49325 0.97164 0.0
O6 O 0.04114 0.52312 0.98871 0.0
C7 C 0.99225 0.55417 0.02059 0.0
O8 O 0.9718 0.53376 0.01718 0.0
H9 H 1.00792 0.53421 0.9324 0.0
H10 H 0.95495 0.48273 0.99245 0.0
N11 N 0.9983 0.50328 0.03821 0.0
N12 N 0.98635 0.49133 0.08784 0.0
C13 C 0.99651 0.51012 0.06783 0.0
C14 C 0.98908 0.47935 0.03943 0.0
C15 C 0.98171 0.47191 0.07005 0.0
C16 C 0.03801 0.50457 0.9731 0.0
O17 O 0.01517 0.48764 0.968 0.0
H18 H 1.00274 0.52858 0.07454 0.0
H19 H 0.98748 0.46805 0.01942 0.0
O20 O 1.0132 0.55455 0.01574 0.0
H21 H 0.93447 0.47755 0.93567 0.0
H22 H 0.97316 0.4536 0.07838 0.0
Cu23 Cu 0.50776 0.5183 0.03364 0.0
N24 N 0.51221 0.49135 0.04096 0.0
N25 N 0.50146 0.45334 0.05381 0.0
C26 C 0.49408 0.46839 0.04045 0.0
C27 C 0.5255 0.46743 0.06202 0.0
C28 C 0.53202 0.49079 0.05416 0.0
O29 O 0.49435 0.52357 0.07529 0.0
C30 C 0.48973 0.5279 0.97182 0.0
O31 O 0.49315 0.54843 0.98376 0.0
H32 H 0.47535 0.4632 0.03242 0.0
H33 H 0.54942 0.50641 0.05973 0.0
N34 N 0.53915 0.54546 0.03048 0.0
N35 N 0.56943 0.58143 0.01553 0.0
C36 C 0.54837 0.56168 1.00689 0.0
C37 C 0.55518 0.55514 0.05464 0.0
C38 C 0.57386 0.5772 0.04552 0.0
C39 C 0.48184 0.50722 0.09577 0.0
O40 O 0.47097 0.48478 0.08653 0.0
H41 H 0.53918 0.5597 0.98445 0.0
H42 H 0.55271 0.54722 0.07788 0.0
O43 O 0.49196 0.51286 0.9902 0.0
H44 H 0.53706 0.46167 0.07498 0.0
H45 H 0.58906 0.58946 0.06026 0.0
Cu46 Cu 0.5058 0.98671 0.01542 0.0
N47 N 0.51067 1.00334 0.9776 0.0
N48 N 0.50962 1.00868 0.92562 0.0
C49 C 0.5057 0.99285 0.949 0.0
C50 C 0.51741 0.03005 0.9401 0.0
C51 C 0.51809 0.02671 0.97223 0.0
O52 O 0.47883 0.95426 1.00695 0.0
C53 C 0.55443 1.01107 0.03536 0.0
O54 O 0.54861 0.02838 0.03096 0.0
H55 H 0.49857 0.97378 0.94558 0.0
H56 H 0.5233 0.04033 0.99032 0.0
N57 N 0.49494 1.00022 0.04709 0.0
N58 N 0.48367 1.00596 0.09528 0.0
C59 C 0.49281 0.99402 0.07771 0.0
C60 C 0.48689 0.01669 0.04505 0.0
C61 C 0.47988 0.02026 0.0748 0.0
C62 C 0.45747 0.95308 1.00275 0.0
O63 O 0.45545 0.9728 1.0053 0.0
H64 H 0.4973 0.9805 0.08668 0.0
H65 H 0.48567 0.02514 0.02342 0.0
O66 O 0.53785 0.98959 0.02966 0.0
H67 H 0.52225 0.04686 0.92838 0.0
H68 H 0.47258 0.03241 0.08084 0.0
Cu69 Cu 0.48953 0.99054 0.51128 0.0
N70 N 0.46859 0.97609 0.47713 0.0
N71 N 0.45537 0.97018 0.42718 0.0
C72 C 0.47323 0.98461 0.4475 0.0
C73 C 0.43874 0.95187 0.44488 0.0
C74 C 0.44702 0.95554 0.47577 0.0
O75 O 0.52254 0.99598 0.49722 0.0
C76 C 0.46399 0.01568 0.52637 0.0
O77 O 0.44553 0.99453 0.51938 0.0
H78 H 0.48945 1.00115 0.44112 0.0
H79 H 0.43808 0.94398 0.49572 0.0
N80 N 0.4792 0.96987 0.54562 0.0
N81 N 0.47165 0.95847 0.59602 0.0
C82 C 0.4778 0.97657 0.57537 0.0
C83 C 0.47368 0.94666 0.54726 0.0
C84 C 0.46908 0.93956 0.5785 0.0
C85 C 0.5369 0.99083 0.51373 0.0
O86 O 0.5317 0.98551 0.54376 0.0
H87 H 0.48244 0.99476 0.58187 0.0
H88 H 0.47374 0.93593 0.52733 0.0
O89 O 0.4863 0.01887 0.52386 0.0
H90 H 0.42213 0.93665 0.43607 0.0
H91 H 0.46463 0.92203 0.58763 0.0
Cu92 Cu 0.99495 0.52517 0.50633 0.0
N93 N 0.97887 0.53158 0.53975 0.0
N94 N 0.96529 0.53267 0.58855 0.0
C95 C 0.9768 0.52368 0.56964 0.0
C96 C 0.95972 0.54667 0.56966 0.0
C97 C 0.96806 0.54589 0.53952 0.0
O98 O 1.00037 0.49806 0.51749 0.0
C99 C 0.03437 0.57345 0.50991 0.0
O100 O 0.02773 0.57246 0.53968 0.0
H101 H 0.98433 0.51219 0.57761 0.0
H102 H 0.96681 0.55544 0.519 0.0
N103 N 0.97368 0.51527 0.47178 0.0
N104 N 0.96107 0.50676 0.42169 0.0
C105 C 0.98071 0.51548 0.4416 0.0
C106 C 0.94874 0.50614 0.47117 0.0
C107 C 0.94089 0.50092 0.4402 0.0
C108 C 1.01306 0.49684 0.54065 0.0
O109 O 0.0267 0.51621 0.55728 0.0
H110 H 0.99995 0.52213 0.43448 0.0
H111 H 0.93713 0.50331 0.49179 0.0
O112 O 0.02422 0.55453 0.49304 0.0
H113 H 0.9505 0.55692 0.57708 0.0
H114 H 0.92179 0.49305 0.43208 0.0
Cu115 Cu 0.4968 0.50472 0.53284 0.0
N116 N 0.4981 0.52147 0.4942 0.0
N117 N 0.49699 0.52908 0.44173 0.0
C118 C 0.49526 0.5128 0.46403 0.0
C119 C 0.50123 0.54875 0.45885 0.0
C120 C 0.50191 0.54407 0.49069 0.0
O121 O 0.46897 0.47265 0.52573 0.0
C122 C 0.54787 0.52662 0.54056 0.0
O123 O 0.54394 0.54511 0.53595 0.0
H124 H 0.49169 0.49473 0.45862 0.0
H125 H 0.50524 0.5565 0.50994 0.0
N126 N 0.49087 0.51727 0.57185 0.0
N127 N 0.48789 0.52366 0.62444 0.0
C128 C 0.49386 0.51153 0.60211 0.0
C129 C 0.48263 0.5335 0.57532 0.0
C130 C 0.48078 0.5374 0.60719 0.0
C131 C 0.44733 0.47123 0.52692 0.0
O132 O 0.44549 0.49037 0.53516 0.0
H133 H 0.50046 0.49878 0.60756 0.0
H134 H 0.47788 0.54174 0.55599 0.0
O135 O 0.52925 0.50568 0.53907 0.0
H136 H 0.5041 0.56566 0.44913 0.0
H137 H 0.47416 0.54927 0.61674 0.0
Cu138 Cu 0.71664 0.8781 0.34509 0.0
N139 N 0.73336 0.89204 0.30765 0.0
N140 N 0.74595 0.89761 0.25729 0.0
C141 C 0.72988 0.88219 0.27862 0.0
C142 C 0.75983 0.91802 0.27348 0.0
C143 C 0.75199 0.91452 0.3045 0.0
O144 O 0.69185 0.84477 0.33868 0.0
C145 C 0.68155 0.88669 0.37971 0.0
O146 O 0.67427 0.86469 0.38949 0.0
H147 H 0.71564 0.86426 0.27311 0.0
H148 H 0.75953 0.92735 0.3236 0.0
N149 N 0.7395 0.88019 0.37579 0.0
N150 N 0.75525 0.87736 0.42233 0.0
C151 C 0.7344 0.87281 0.40598 0.0
C152 C 0.76438 0.88971 0.37278 0.0
C153 C 0.77414 0.88797 0.40142 0.0
C154 C 0.69184 0.82674 0.32496 0.0
O155 O 0.67063 0.80683 0.32338 0.0
H156 H 0.71572 0.86415 0.41561 0.0
H157 H 0.77471 0.89741 0.3513 0.0
O158 O 0.69963 0.89597 0.36018 0.0
H159 H 0.77495 0.93413 0.26378 0.0
H160 H 0.79371 0.8945 0.40653 0.0
Cu161 Cu 0.20245 0.85064 0.35816 0.0
N162 N 0.21382 0.84243 0.32167 0.0
N163 N 0.21684 0.83697 0.27002 0.0
C164 C 0.20853 0.84674 0.29236 0.0
C165 C 0.22817 0.82632 0.28602 0.0
C166 C 0.22618 0.82966 0.318 0.0
O167 O 0.20067 0.88013 0.34864 0.0
C168 C 0.16011 0.80383 0.35711 0.0
O169 O 0.1658 0.80349 0.32721 0.0
H170 H 0.19822 0.85645 0.28771 0.0
H171 H 0.23247 0.82257 0.33718 0.0
N172 N 0.2249 0.85744 0.39123 0.0
N173 N 0.23864 0.8648 0.44103 0.0
C174 C 0.2191 0.85897 0.42148 0.0
C175 C 0.24895 0.86228 0.39134 0.0
C176 C 0.2575 0.86683 0.42212 0.0
C177 C 0.22186 0.89798 0.3427 0.0
O178 O 0.24169 0.89477 0.34359 0.0
H179 H 0.20067 0.85557 0.42884 0.0
H180 H 0.25957 0.86278 0.37053 0.0
O181 O 0.17177 0.82316 0.37293 0.0
H182 H 0.23633 0.816 0.2755 0.0
H183 H 0.27623 0.87162 0.4298 0.0
Cu184 Cu 0.1696 0.3367 0.35603 0.0
N185 N 0.17987 0.35542 0.31954 0.0
N186 N 0.18336 0.36448 0.26817 0.0
C187 C 0.17021 0.34821 0.29049 0.0
C188 C 0.20205 0.38268 0.28372 0.0
C189 C 0.19979 0.37708 0.31549 0.0
O190 O 0.14057 0.30637 0.3441 0.0
C191 C 0.21387 0.35317 0.38964 0.0
O192 O 0.20924 0.37137 0.39256 0.0
H193 H 0.15466 0.33079 0.28554 0.0
H194 H 0.21232 0.38768 0.33408 0.0
N195 N 0.1587 0.35094 0.3868 0.0
N196 N 0.14609 0.35692 0.43402 0.0
C197 C 0.15086 0.34198 0.41586 0.0
C198 C 0.15877 0.37226 0.38633 0.0
C199 C 0.15108 0.37606 0.41559 0.0
C200 C 0.12081 0.30812 0.33868 0.0
O201 O 0.12174 0.3292 0.34175 0.0
H202 H 0.1498 0.3253 0.42392 0.0
H203 H 0.16468 0.38442 0.36645 0.0
O204 O 0.19866 0.33487 0.37378 0.0
H205 H 0.21655 0.39863 0.27282 0.0
H206 H 0.14962 0.39177 0.42285 0.0
Cu207 Cu 0.16793 0.34276 0.84632 0.0
N208 N 0.14339 0.33045 0.81504 0.0
N209 N 0.12588 0.32584 0.76747 0.0
C210 C 0.14615 0.33893 0.78539 0.0
C211 C 0.1097 0.30843 0.78669 0.0
C212 C 0.12054 0.31139 0.81613 0.0
O213 O 0.19675 0.3394 0.83064 0.0
C214 C 0.153 0.37642 0.86066 0.0
O215 O 0.1317 0.35666 0.85869 0.0
H216 H 0.1631 0.35392 0.77688 0.0
H217 H 0.11252 0.30023 0.83668 0.0
N218 N 0.15686 0.3252 0.88366 0.0
N219 N 0.15149 0.31787 0.93548 0.0
C220 C 0.15849 0.33465 0.91265 0.0
C221 C 0.14842 0.30159 0.88826 0.0
C222 C 0.14517 0.29702 0.92029 0.0
C223 C 0.19148 0.31948 0.81704 0.0
O224 O 0.16796 0.30337 0.81466 0.0
H225 H 0.1658 0.35364 0.91705 0.0
H226 H 0.14549 0.28869 0.86978 0.0
O227 O 0.17317 0.37523 0.85598 0.0
H228 H 0.09143 0.29451 0.77993 0.0
H229 H 0.13902 0.2798 0.93157 0.0
Cu230 Cu 0.74032 0.85158 0.8402 0.0
N231 N 0.75648 0.84668 0.80558 0.0
N232 N 0.76674 0.84616 0.75496 0.0
C233 C 0.7521 0.85023 0.77544 0.0
C234 C 0.7809 0.8397 0.77295 0.0
C235 C 0.77463 0.8402 0.80426 0.0
O236 O 0.73426 0.87802 0.82704 0.0
C237 C 0.71447 0.80353 0.85441 0.0
O238 O 0.73711 0.80639 0.85023 0.0
H239 H 0.73831 0.85565 0.76873 0.0
H240 H 0.78288 0.8363 0.82457 0.0
N241 N 0.76066 0.86034 0.87585 0.0
N242 N 0.77115 0.86628 0.92685 0.0
C243 C 0.75233 0.85792 0.90578 0.0
C244 C 0.78565 0.87047 0.87794 0.0
C245 C 0.7922 0.87406 0.90952 0.0
C246 C 0.74004 0.89687 0.84337 0.0
O247 O 0.74617 0.89729 0.8732 0.0
H248 H 0.73279 0.85035 0.91191 0.0
H249 H 0.79822 0.87527 0.85797 0.0
O250 O 0.71067 0.82156 0.85058 0.0
H251 H 0.79512 0.83547 0.76419 0.0
H252 H 0.81095 0.8824 0.91892 0.0
Cu253 Cu 0.17613 0.81685 0.85086 0.0
N254 N 0.18577 0.84072 0.82024 0.0
N255 N 0.19763 0.85839 0.77323 0.0
C256 C 0.18788 0.83751 0.78917 0.0
C257 C 0.20178 0.87544 0.79508 0.0
C258 C 0.19433 0.86444 0.82411 0.0
O259 O 0.14688 0.78828 0.83475 0.0
C260 C 0.22294 0.83285 0.87523 0.0
O261 O 0.21903 0.85148 0.87835 0.0
H262 H 0.18332 0.82029 0.77871 0.0
H263 H 0.19578 0.87324 0.84655 0.0
N264 N 0.16664 0.82641 0.88803 0.0
N265 N 0.16563 0.83259 0.93986 0.0
C266 C 0.17132 0.82101 0.9171 0.0
C267 C 0.15727 0.84171 0.89247 0.0
C268 C 0.15651 0.84548 0.92454 0.0
C269 C 0.12834 0.79185 0.82846 0.0
O270 O 0.131 0.81353 0.83243 0.0
H271 H 0.17962 0.80942 0.92132 0.0
H272 H 0.15238 0.85036 0.87376 0.0
O273 O 0.20607 0.81398 0.86203 0.0
H274 H 0.20986 0.89445 0.79043 0.0
H275 H 0.15093 0.85769 0.93558 0.0
Cu276 Cu 0.39139 0.21513 0.69993 0.0
N277 N 0.40754 0.2344 0.66498 0.0
N278 N 0.41974 0.24395 0.61467 0.0
C279 C 0.40778 0.22613 0.63569 0.0
C280 C 0.42743 0.26438 0.63154 0.0
C281 C 0.41991 0.25843 0.66259 0.0
O282 O 0.38844 0.18358 0.69118 0.0
C283 C 0.35187 0.22769 0.69371 0.0
O284 O 0.36096 0.23498 0.66527 0.0
H285 H 0.39865 0.20736 0.6297 0.0
H286 H 0.42285 0.27071 0.68192 0.0
N287 N 0.41116 0.22569 0.73601 0.0
N288 N 0.42191 0.22592 0.78661 0.0
C289 C 0.40375 0.21573 0.76472 0.0
C290 C 0.43487 0.24285 0.73963 0.0
C291 C 0.44154 0.2431 0.77091 0.0
C292 C 0.37554 0.16882 0.66973 0.0
O293 O 0.35892 0.17243 0.65417 0.0
H294 H 0.38528 0.20126 0.76933 0.0
H295 H 0.44659 0.25408 0.72082 0.0
O296 O 0.36078 0.21679 0.71052 0.0
H297 H 0.43765 0.28235 0.6222 0.0
H298 H 0.45961 0.25465 0.78106 0.0
Cu299 Cu 0.86095 0.19638 0.68813 0.0
N300 N 0.86419 0.16837 0.69268 0.0
N301 N 0.85371 0.13009 0.70345 0.0
C302 C 0.84539 0.14609 0.69745 0.0
C303 C 0.87878 0.14274 0.70154 0.0
C304 C 0.88517 0.16627 0.69489 0.0
O305 O 0.84936 0.20188 0.73078 0.0
C306 C 0.857 0.19184 0.62235 0.0
O307 O 0.8772 0.19016 0.62921 0.0
H308 H 0.82594 0.14172 0.69684 0.0
H309 H 0.90385 0.1809 0.69272 0.0
N310 N 0.89231 0.22344 0.68372 0.0
N311 N 0.92083 0.26044 0.66939 0.0
C312 C 0.89741 0.24247 0.66505 0.0
C313 C 0.91313 0.22964 0.70074 0.0
C314 C 0.93079 0.25232 0.69178 0.0
C315 C 0.83313 0.18647 0.7496 0.0
O316 O 0.81755 0.16527 0.73848 0.0
H317 H 0.88394 0.24324 0.64908 0.0
H318 H 0.915 0.21888 0.71932 0.0
O319 O 0.84458 0.19406 0.64577 0.0
H320 H 0.89168 0.13577 0.70604 0.0
H321 H 0.94912 0.26243 0.70208 0.0
Cu322 Cu 0.83953 0.66726 0.68287 0.0
N323 N 0.83112 0.6823 0.7151 0.0
N324 N 0.81976 0.68876 0.76281 0.0
C325 C 0.82605 0.67463 0.7451 0.0
C326 C 0.82089 0.70597 0.74306 0.0
C327 C 0.82789 0.70192 0.7136 0.0
O328 O 0.8692 0.66476 0.69654 0.0
C329 C 0.79021 0.64054 0.66666 0.0
O330 O 0.79282 0.66233 0.66876 0.0
H331 H 0.82649 0.65869 0.75348 0.0
H332 H 0.83006 0.71234 0.69252 0.0
N333 N 0.84791 0.68616 0.64668 0.0
N334 N 0.84864 0.69529 0.5957 0.0
C335 C 0.84063 0.67761 0.61734 0.0
C336 C 0.86111 0.71011 0.64355 0.0
C337 C 0.86166 0.7158 0.61203 0.0
C338 C 0.88743 0.6846 0.70533 0.0
O339 O 0.88429 0.70377 0.70557 0.0
H340 H 0.82976 0.65873 0.61204 0.0
H341 H 0.86942 0.72266 0.66277 0.0
O342 O 0.80919 0.63748 0.67226 0.0
H343 H 0.8171 0.72053 0.74941 0.0
H344 H 0.87049 0.73363 0.60204 0.0
Cu345 Cu 0.84033 0.68777 0.1755 0.0
N346 N 0.81728 0.67361 0.14308 0.0
N347 N 0.80112 0.66695 0.09455 0.0
C348 C 0.82137 0.68 0.11254 0.0
C349 C 0.78358 0.65176 0.11469 0.0
C350 C 0.79362 0.65591 0.14464 0.0
O351 O 0.8719 0.68927 0.16159 0.0
C352 C 0.81969 0.71689 0.19161 0.0
O353 O 0.79981 0.69599 0.18845 0.0
H354 H 0.83876 0.69432 0.10392 0.0
H355 H 0.78415 0.64693 0.16606 0.0
N356 N 0.82968 0.66876 0.2115 0.0
N357 N 0.82423 0.65958 0.26272 0.0
C358 C 0.83433 0.67727 0.24117 0.0
C359 C 0.81616 0.64481 0.21425 0.0
C360 C 0.81271 0.63908 0.24592 0.0
C361 C 0.87035 0.66896 0.15456 0.0
O362 O 0.84848 0.64987 0.15657 0.0
H363 H 0.84459 0.69617 0.24674 0.0
H364 H 0.8093 0.63234 0.1947 0.0
O365 O 0.84107 0.71828 0.18666 0.0
H366 H 0.76491 0.6385 0.10828 0.0
H367 H 0.80279 0.62125 0.25577 0.0
Cu368 Cu 0.37392 0.17328 0.20148 0.0
N369 N 0.39699 0.18261 0.23461 0.0
N370 N 0.41297 0.19404 0.28303 0.0
C371 C 0.39242 0.18625 0.26477 0.0
C372 C 0.43119 0.19532 0.26354 0.0
C373 C 0.42126 0.18821 0.2337 0.0
O374 O 0.34292 0.14615 0.21622 0.0
C375 C 0.39274 0.2181 0.17685 0.0
O376 O 0.41211 0.21414 0.17702 0.0
H377 H 0.37447 0.18377 0.27292 0.0
H378 H 0.43114 0.18752 0.21274 0.0
N379 N 0.38518 0.1635 0.16586 0.0
N380 N 0.39524 0.16305 0.11501 0.0
C381 C 0.38269 0.16944 0.13605 0.0
C382 C 0.39938 0.15242 0.16368 0.0
C383 C 0.40558 0.15207 0.13226 0.0
C384 C 0.3458 0.12959 0.22972 0.0
O385 O 0.36845 0.13207 0.232 0.0
H386 H 0.37248 0.17902 0.13013 0.0
H387 H 0.40568 0.14601 0.1836 0.0
O388 O 0.37214 0.20208 0.18818 0.0
H389 H 0.45029 0.20091 0.27035 0.0
H390 H 0.41776 0.14534 0.12312 0.0
Cu391 Cu 0.83701 0.17489 0.18714 0.0
N392 N 0.8314 0.18764 0.226 0.0
N393 N 0.82942 0.19439 0.2786 0.0
C394 C 0.83577 0.18274 0.25604 0.0
C395 C 0.82062 0.20697 0.26177 0.0
C396 C 0.82183 0.20282 0.22983 0.0
O397 O 0.86882 0.1748 0.19372 0.0
C398 C 0.78753 0.14281 0.17842 0.0
O399 O 0.7866 0.16285 0.18379 0.0
H400 H 0.84361 0.17091 0.26117 0.0
H401 H 0.81567 0.21011 0.21077 0.0
N402 N 0.8391 0.19204 0.14874 0.0
N403 N 0.83894 0.20005 0.09637 0.0
C404 C 0.8383 0.18414 0.11849 0.0
C405 C 0.84052 0.21381 0.14543 0.0
C406 C 0.84036 0.2187 0.11357 0.0
C407 C 0.88795 0.19542 0.19439 0.0
O408 O 0.88492 0.21426 0.18838 0.0
H409 H 0.83671 0.16677 0.11286 0.0
H410 H 0.8416 0.22542 0.16482 0.0
O411 O 0.80867 0.14316 0.17996 0.0
H412 H 0.81322 0.21812 0.27169 0.0
H413 H 0.84145 0.23498 0.10386 0.0
H414 H 0.99597 0.50134 0.38767 0.0
H415 H 0.99805 0.49861 0.33029 0.0
H416 H 0.92973 0.50306 0.32117 0.0
H417 H 0.92761 0.50613 0.37874 0.0
H418 H 0.93231 0.46647 0.28359 0.0
H419 H 0.01572 0.55515 0.26884 0.0
H420 H 0.01938 0.53604 0.29737 0.0
H421 H 0.99715 0.54674 0.30449 0.0
C422 C 0.9815 0.50201 0.37354 0.0
C423 C 0.96176 0.50424 0.38785 0.0
C424 C 0.9827 0.50038 0.34073 0.0
C425 C 0.96426 0.50102 0.32155 0.0
C426 C 0.94419 0.50264 0.33565 0.0
H427 H 0.97802 0.52462 0.11854 0.0
H428 H 0.97099 0.52643 0.17514 0.0
C429 C 0.94297 0.50429 0.36854 0.0
C430 C 0.96605 0.50001 0.28675 0.0
H431 H 1.00308 0.52945 0.22396 0.0
C432 C 0.94768 0.48027 0.27046 0.0
C433 C 0.98597 0.51822 0.26975 0.0
C434 C 1.00558 0.54036 0.28591 0.0
C435 C 0.94909 0.47796 0.23758 0.0
C436 C 0.96954 0.49572 0.22078 0.0
C437 C 0.98754 0.51575 0.23699 0.0
C438 C 0.97276 0.49392 0.18634 0.0
C439 C 0.92861 0.45664 0.22108 0.0
C440 C 0.97623 0.4751 0.17394 0.0
C441 C 0.98042 0.47408 0.14159 0.0
C442 C 0.98139 0.49198 0.12109 0.0
C443 C 0.97777 0.51074 0.13366 0.0
C444 C 0.97358 0.51173 0.16599 0.0
H445 H 0.91138 0.44817 0.23567 0.0
H446 H 0.92404 0.46189 0.19795 0.0
H447 H 0.93493 0.44305 0.21663 0.0
H448 H 0.9762 0.46145 0.18938 0.0
H449 H 0.98349 0.4596 0.13279 0.0
H450 H 0.50372 0.49726 0.40348 0.0
H451 H 0.50124 0.4944 0.34549 0.0
H452 H 0.48331 0.55263 0.34245 0.0
H453 H 0.48523 0.55526 0.40004 0.0
H454 H 0.45392 0.51794 0.30182 0.0
H455 H 0.55137 0.5369 0.28021 0.0
H456 H 0.53439 0.51185 0.30592 0.0
H457 H 0.54081 0.54142 0.31834 0.0
C458 C 0.49916 0.50944 0.3906 0.0
C459 C 0.49495 0.52667 0.40711 0.0
C460 C 0.49802 0.50797 0.35711 0.0
C461 C 0.49255 0.52361 0.33886 0.0
C462 C 0.4878 0.54041 0.35541 0.0
H463 H 0.51419 0.5475 0.13059 0.0
H464 H 0.51678 0.55237 0.1886 0.0
C465 C 0.48908 0.54199 0.38872 0.0
C466 C 0.49123 0.52236 0.30286 0.0
H467 H 0.52452 0.52512 0.23558 0.0
C468 C 0.46945 0.51953 0.28749 0.0
C469 C 0.51145 0.5248 0.28345 0.0
C470 C 0.53593 0.52914 0.2977 0.0
C471 C 0.46714 0.51859 0.25404 0.0
C472 C 0.48707 0.52031 0.23466 0.0
C473 C 0.50906 0.52364 0.24995 0.0
C474 C 0.4851 0.51799 0.19878 0.0
C475 C 0.44336 0.51616 0.23975 0.0
C476 C 0.46648 0.49716 0.18443 0.0
C477 C 0.46498 0.49438 0.15128 0.0
C478 C 0.48197 0.51233 0.13089 0.0
C479 C 0.50045 0.53341 0.14516 0.0
C480 C 0.50208 0.53611 0.17855 0.0
H481 H 0.43324 0.52216 0.25643 0.0
H482 H 0.44713 0.52671 0.2176 0.0
H483 H 0.43092 0.49705 0.23403 0.0
H484 H 0.45335 0.48261 0.19896 0.0
H485 H 0.45063 0.47774 0.1416 0.0
H486 H 0.44919 0.01371 0.12701 0.0
H487 H 0.4396 1.00769 0.18363 0.0
H488 H 0.4963 0.98569 0.19569 0.0
H489 H 0.50624 0.99197 0.13946 0.0
H490 H 0.44815 0.95425 0.223 0.0
H491 H 0.48458 0.04999 0.25736 0.0
H492 H 0.46306 0.03922 0.22478 0.0
H493 H 0.49333 0.04111 0.22079 0.0
C494 C 0.45983 1.0079 0.14178 0.0
C495 C 0.47844 1.00325 0.12869 0.0
C496 C 0.45426 1.0044 0.17406 0.0
C497 C 0.46731 0.99632 0.1937 0.0
C498 C 0.48596 0.99182 0.18079 0.0
H499 H 0.49508 0.99458 0.38883 0.0
H500 H 0.49453 1.00048 0.33203 0.0
C501 C 0.49153 0.99533 0.14863 0.0
C502 C 0.46156 0.99223 0.22777 0.0
H503 H 0.4682 0.02133 0.29795 0.0
C504 C 0.45222 0.96883 0.23943 0.0
C505 C 0.46708 1.01139 0.24894 0.0
C506 C 0.47772 0.03691 0.23755 0.0
C507 C 0.44887 0.96414 0.27196 0.0
C508 C 0.45482 0.98335 0.29318 0.0
C509 C 0.46352 1.00667 0.28146 0.0
C510 C 0.45447 0.97999 0.32774 0.0
C511 C 0.44008 0.93888 0.28352 0.0
C512 C 0.43206 0.96658 0.34411 0.0
C513 C 0.43228 0.96326 0.37678 0.0
C514 C 0.45492 0.9734 0.39352 0.0
C515 C 0.47728 0.98688 0.37688 0.0
C516 C 0.47703 0.99019 0.34435 0.0
H517 H 0.43988 0.92674 0.26434 0.0
H518 H 0.45223 0.93863 0.30293 0.0
H519 H 0.42088 0.93172 0.29305 0.0
H520 H 0.41444 0.95879 0.33164 0.0
H521 H 0.41473 0.95305 0.38895 0.0
H522 H 0.96134 0.5631 0.63098 0.0
H523 H 0.95949 0.5592 0.68863 0.0
H524 H 0.96026 0.4916 0.68053 0.0
H525 H 0.96157 0.49502 0.62299 0.0
H526 H 0.92403 0.51907 0.72974 0.0
H527 H 0.02266 0.53681 0.73584 0.0
H528 H 1.01005 0.54454 0.70179 0.0
H529 H 1.00313 0.514 0.7083 0.0
C530 C 0.96066 0.54719 0.64138 0.0
C531 C 0.96191 0.52951 0.6223 0.0
C532 C 0.95971 0.54506 0.67432 0.0
C533 C 0.9601 0.52529 0.68869 0.0
C534 C 0.96033 0.50717 0.66979 0.0
H535 H 0.93803 0.47442 0.88125 0.0
H536 H 0.9344 0.47997 0.82473 0.0
C537 C 0.9612 0.50923 0.63692 0.0
C538 C 0.9613 0.524 0.72346 0.0
H539 H 0.99935 0.52517 0.78337 0.0
C540 C 0.94049 0.52048 0.74156 0.0
C541 C 0.98293 0.52613 0.73866 0.0
C542 C 1.00609 0.53077 0.72027 0.0
C543 C 0.94056 0.51845 0.77462 0.0
C544 C 0.96195 0.51988 0.78972 0.0
C545 C 0.98294 0.52395 0.77163 0.0
C546 C 0.96296 0.517 0.82428 0.0
C547 C 0.91788 0.51496 0.7932 0.0
C548 C 0.98035 0.53594 0.84264 0.0
C549 C 0.98242 0.53287 0.87499 0.0
C550 C 0.96729 0.5107 0.88955 0.0
C551 C 0.94972 0.49182 0.87101 0.0
C552 C 0.94761 0.49495 0.83867 0.0
H553 H 0.90542 0.51967 0.77907 0.0
H554 H 0.90716 0.49588 0.80025 0.0
H555 H 0.92339 0.526 0.81507 0.0
H556 H 0.99241 0.55308 0.83188 0.0
H557 H 0.99587 0.54791 0.88854 0.0
H558 H 0.48945 0.48875 0.662 0.0
H559 H 0.48867 0.48672 0.72013 0.0
H560 H 0.48734 0.55411 0.72482 0.0
H561 H 0.48819 0.55634 0.6674 0.0
H562 H 0.5195 0.5153 0.76778 0.0
H563 H 0.4286 0.51438 0.78065 0.0
H564 H 0.43984 0.50997 0.74297 0.0
H565 H 0.45051 0.53973 0.75852 0.0
C566 C 0.48905 0.50321 0.67527 0.0
C567 C 0.48847 0.52253 0.6592 0.0
C568 C 0.48854 0.502 0.7088 0.0
C569 C 0.48727 0.51995 0.72752 0.0
C570 C 0.48746 0.53952 0.71149 0.0
H571 H 0.48461 0.55675 0.92693 0.0
H572 H 0.48386 0.55327 0.86934 0.0
C573 C 0.48798 0.54077 0.67818 0.0
C574 C 0.486 0.51858 0.76354 0.0
H575 H 0.45275 0.52193 0.82761 0.0
C576 C 0.50473 0.5165 0.78076 0.0
C577 C 0.46682 0.52012 0.78115 0.0
C578 C 0.44516 0.52093 0.76491 0.0
C579 C 0.50534 0.51686 0.81441 0.0
C580 C 0.48639 0.51885 0.83201 0.0
C581 C 0.46744 0.52049 0.81472 0.0
C582 C 0.48628 0.52024 0.86805 0.0
C583 C 0.52698 0.51609 0.83073 0.0
C584 C 0.48731 0.50262 0.88761 0.0
C585 C 0.48768 0.50455 0.92105 0.0
C586 C 0.48688 0.52411 0.93623 0.0
C587 C 0.48522 0.54134 0.91658 0.0
C588 C 0.48482 0.53939 0.88329 0.0
H589 H 0.54309 0.52118 0.8145 0.0
H590 H 0.53321 0.52826 0.85152 0.0
H591 H 0.5211 0.49758 0.83907 0.0
H592 H 0.48778 0.48723 0.87704 0.0
H593 H 0.48899 0.49086 0.93501 0.0
H594 H 0.49669 0.03232 0.88219 0.0
H595 H 0.4876 0.02207 0.82618 0.0
H596 H 0.50346 0.96286 0.83785 0.0
H597 H 0.5126 0.97299 0.89371 0.0
H598 H 0.51844 0.0193 0.77944 0.0
H599 H 0.43466 0.93124 0.79641 0.0
H600 H 0.44783 0.95301 0.82783 0.0
H601 H 0.46171 0.93436 0.81729 0.0
C602 C 0.4984 0.01723 0.87278 0.0
C603 C 0.50518 1.00335 0.89242 0.0
C604 C 0.49305 1.01131 0.84086 0.0
C605 C 0.49435 0.99141 0.82812 0.0
C606 C 0.50167 0.97787 0.84747 0.0
H607 H 0.48285 0.93356 0.63954 0.0
H608 H 0.48673 0.94063 0.69677 0.0
C609 C 0.50693 0.98372 0.87935 0.0
C610 C 0.48882 0.98524 0.79432 0.0
H611 H 0.45105 0.94052 0.74412 0.0
C612 C 0.5036 1.00216 0.77169 0.0
C613 C 0.46948 0.96281 0.78439 0.0
C614 C 0.45234 0.94437 0.80772 0.0
C615 C 0.49987 0.99707 0.73928 0.0
C616 C 0.48062 0.97462 0.72936 0.0
C617 C 0.46579 0.95769 0.75194 0.0
C618 C 0.47571 0.96855 0.69551 0.0
C619 C 0.51684 0.01558 0.71589 0.0
C620 C 0.46737 0.98131 0.67626 0.0
C621 C 0.46505 0.97725 0.64372 0.0
C622 C 0.47098 0.96032 0.62989 0.0
C623 C 0.47804 0.94663 0.64951 0.0
C624 C 0.48038 0.95072 0.68213 0.0
H625 H 0.53395 0.02956 0.72736 0.0
H626 H 0.5224 1.00704 0.69667 0.0
H627 H 0.50679 0.02451 0.705 0.0
H628 H 0.46322 0.99482 0.68633 0.0
H629 H 0.45905 0.9877 0.62929 0.0
H630 H 0.75652 0.87696 0.7217 0.0
H631 H 0.75594 0.88048 0.66422 0.0
H632 H 0.77811 0.82532 0.65368 0.0
H633 H 0.77837 0.82141 0.7114 0.0
H634 H 0.79676 0.89081 0.62023 0.0
H635 H 0.71311 0.80283 0.59924 0.0
H636 H 0.7203 0.81718 0.63756 0.0
H637 H 0.73756 0.80267 0.623 0.0
C638 C 0.76107 0.86542 0.7072 0.0
C639 C 0.76728 0.84874 0.72109 0.0
C640 C 0.7609 0.86758 0.67438 0.0
C641 C 0.76673 0.85299 0.6548 0.0
C642 C 0.7733 0.83655 0.66847 0.0
H643 H 0.79258 0.8725 0.45104 0.0
H644 H 0.79623 0.86604 0.50734 0.0
C645 C 0.77363 0.83448 0.70139 0.0
C646 C 0.76589 0.85515 0.62007 0.0
H647 H 0.73273 0.82627 0.55435 0.0
C648 C 0.7829 0.87667 0.60574 0.0
C649 C 0.74758 0.83671 0.60143 0.0
C650 C 0.72843 0.81356 0.61596 0.0
C651 C 0.78203 0.8803 0.57314 0.0
C652 C 0.76377 0.86184 0.55448 0.0
C653 C 0.7468 0.84029 0.56879 0.0
C654 C 0.76132 0.86505 0.52027 0.0
C655 C 0.80017 0.90406 0.559 0.0
C656 C 0.74028 0.86621 0.50891 0.0
C657 C 0.73819 0.87007 0.4768 0.0
C658 C 0.75706 0.87268 0.45536 0.0
C659 C 0.77791 0.87102 0.46686 0.0
C660 C 0.78001 0.86724 0.49902 0.0
H661 H 0.81004 0.91785 0.57744 0.0
H662 H 0.81431 0.90175 0.54488 0.0
H663 H 0.79038 0.91072 0.5429 0.0
H664 H 0.72567 0.86457 0.52503 0.0
H665 H 0.72202 0.87152 0.469 0.0
H666 H 0.23755 0.89533 0.74632 0.0
H667 H 0.24921 0.89969 0.69028 0.0
H668 H 0.18324 0.83339 0.66953 0.0
H669 H 0.172 0.82869 0.72561 0.0
H670 H 0.22298 0.83481 0.64133 0.0
H671 H 0.22063 0.92008 0.61835 0.0
H672 H 0.24153 0.92212 0.64948 0.0
H673 H 0.20854 0.90321 0.65427 0.0
C674 C 0.22543 0.88188 0.72966 0.0
C675 C 0.20384 0.86171 0.74018 0.0
C676 C 0.23206 0.8844 0.69768 0.0
C677 C 0.21691 0.86705 0.67562 0.0
C678 C 0.19522 0.847 0.68613 0.0
H679 H 0.2066 0.8742 0.47583 0.0
H680 H 0.20434 0.8757 0.53301 0.0
C681 C 0.18881 0.84431 0.71811 0.0
C682 C 0.22381 0.86922 0.64168 0.0
H683 H 0.23511 0.90478 0.57672 0.0
C684 C 0.22569 0.85013 0.62719 0.0
C685 C 0.22721 0.88918 0.62327 0.0
C686 C 0.22416 0.90971 0.63702 0.0
C687 C 0.23023 0.85012 0.59465 0.0
C688 C 0.23385 0.87017 0.57628 0.0
C689 C 0.23258 0.88954 0.59092 0.0
C690 C 0.23653 0.87044 0.54141 0.0
C691 C 0.22995 0.82816 0.58011 0.0
C692 C 0.25572 0.86745 0.52695 0.0
C693 C 0.25674 0.86598 0.49399 0.0
C694 C 0.23877 0.86781 0.4749 0.0
C695 C 0.22034 0.87198 0.48958 0.0
C696 C 0.21918 0.87316 0.5224 0.0
H697 H 0.22098 0.81234 0.59593 0.0
H698 H 0.21989 0.82361 0.55718 0.0
H699 H 0.24939 0.8317 0.57574 0.0
H700 H 0.2697 0.86592 0.54115 0.0
H701 H 0.27123 0.86285 0.48362 0.0
H702 H 0.1592 0.39159 0.4787 0.0
H703 H 0.15143 0.38567 0.5357 0.0
H704 H 0.11007 0.30933 0.52106 0.0
H705 H 0.118 0.31513 0.46419 0.0
H706 H 0.10825 0.36398 0.57235 0.0
H707 H 0.16406 0.31561 0.58287 0.0
H708 H 0.16449 0.33198 0.54781 0.0
H709 H 0.13912 0.30253 0.55476 0.0
C710 C 0.14817 0.37359 0.4876 0.0
C711 C 0.13947 0.35379 0.46705 0.0
C712 C 0.14381 0.37022 0.52016 0.0
C713 C 0.13064 0.34703 0.53266 0.0
C714 C 0.12085 0.32734 0.512 0.0
H715 H 0.09955 0.29121 0.72459 0.0
H716 H 0.09799 0.29626 0.66734 0.0
C717 C 0.12536 0.33067 0.47954 0.0
C718 C 0.12792 0.34335 0.56735 0.0
H719 H 0.14217 0.31686 0.62858 0.0
C720 C 0.11567 0.3537 0.58468 0.0
C721 C 0.13773 0.33001 0.58337 0.0
C722 C 0.1523 0.31958 0.56634 0.0
C723 C 0.1127 0.3508 0.61762 0.0
C724 C 0.12243 0.33738 0.63353 0.0
C725 C 0.13455 0.32695 0.6162 0.0
C726 C 0.12123 0.33469 0.66834 0.0
C727 C 0.09901 0.36188 0.63515 0.0
C728 C 0.13471 0.35465 0.68778 0.0
C729 C 0.13567 0.3518 0.72041 0.0
C730 C 0.12318 0.32894 0.73421 0.0
C731 C 0.10913 0.30906 0.71473 0.0
C732 C 0.10832 0.3119 0.68204 0.0
H733 H 0.08771 0.36669 0.61894 0.0
H734 H 0.08658 0.34948 0.65352 0.0
H735 H 0.11275 0.37847 0.64715 0.0
H736 H 0.1451 0.37234 0.6776 0.0
H737 H 0.14644 0.36748 0.73483 0.0
H738 H 0.73543 0.85498 0.23034 0.0
H739 H 0.74096 0.84755 0.17483 0.0
H740 H 0.76706 0.92229 0.15404 0.0
H741 H 0.76191 0.92985 0.20956 0.0
H742 H 0.72032 0.85231 0.12242 0.0
H743 H 0.82183 0.91241 0.11538 0.0
H744 H 0.8052 0.90448 0.15249 0.0
H745 H 0.80543 0.92811 0.12855 0.0
C746 C 0.74229 0.86981 0.21394 0.0
C747 C 0.74845 0.89305 0.22441 0.0
C748 C 0.74557 0.86557 0.18225 0.0
C749 C 0.75505 0.88447 0.16041 0.0
C750 C 0.76055 0.90757 0.17064 0.0
H751 H 0.73726 0.87452 0.95836 0.0
H752 H 0.73361 0.87737 0.01552 0.0
C753 C 0.7575 0.91186 0.20237 0.0
C754 C 0.7584 0.87992 0.12673 0.0
H755 H 0.80031 0.89959 0.0659 0.0
C756 C 0.73789 0.86248 0.11014 0.0
C757 C 0.78147 0.89278 0.11084 0.0
C758 C 0.80479 0.91029 0.12784 0.0
C759 C 0.73954 0.85819 0.07786 0.0
C760 C 0.7621 0.87228 0.06146 0.0
C761 C 0.78289 0.88906 0.07832 0.0
C762 C 0.76435 0.87039 0.02672 0.0
C763 C 0.71712 0.83844 0.06182 0.0
C764 C 0.78347 0.86648 0.01382 0.0
C765 C 0.78585 0.86527 0.98102 0.0
C766 C 0.76905 0.8678 0.9606 0.0
C767 C 0.75012 0.87196 0.97355 0.0
C768 C 0.74795 0.87348 1.00624 0.0
H769 H 0.7051 0.82451 0.07902 0.0
H770 H 0.70575 0.84608 0.05113 0.0
H771 H 0.7227 0.82974 0.04286 0.0
H772 H 0.79647 0.86422 0.02915 0.0
H773 H 0.80056 0.86199 0.97163 0.0
H774 H 0.20315 0.8273 0.96659 0.0
H775 H 0.2119 0.82755 0.02294 0.0
H776 H 0.14982 0.8403 0.04496 0.0
H777 H 0.14055 0.83953 0.9884 0.0
H778 H 0.22251 0.86508 0.06742 0.0
H779 H 0.13752 0.78102 0.09879 0.0
H780 H 0.14825 0.78871 0.05852 0.0
H781 H 0.13206 0.80275 0.0777 0.0
C782 C 0.1911 0.8298 0.98339 0.0
C783 C 0.17091 0.83306 0.97309 0.0
C784 C 0.19628 0.83014 0.01555 0.0
C785 C 0.1813 0.83361 0.03803 0.0
C786 C 0.16134 0.83722 0.02791 0.0
H787 H 0.17883 0.84011 0.24085 0.0
H788 H 0.17168 0.83987 0.18424 0.0
C789 C 0.15619 0.83697 0.99566 0.0
C790 C 0.18683 0.83371 0.07205 0.0
H791 H 0.1632 0.80379 0.14113 0.0
C792 C 0.20963 0.85165 0.08359 0.0
C793 C 0.16996 0.8161 0.09289 0.0
C794 C 0.14565 0.7959 0.08142 0.0
C795 C 0.21578 0.85281 0.11573 0.0
C796 C 0.19884 0.83525 0.13663 0.0
C797 C 0.17613 0.8172 0.12499 0.0
C798 C 0.20384 0.83576 0.17091 0.0
C799 C 0.23998 0.87316 0.1272 0.0
C800 C 0.22423 0.83333 0.18222 0.0
C801 C 0.22857 0.83371 0.21475 0.0
C802 C 0.21251 0.83644 0.23646 0.0
C803 C 0.19193 0.83853 0.2249 0.0
C804 C 0.18765 0.83818 0.1925 0.0
H805 H 0.24799 0.88803 0.10981 0.0
H806 H 0.23731 0.88032 0.15007 0.0
H807 H 0.25372 0.8665 0.13091 0.0
H808 H 0.23669 0.83099 0.1659 0.0
H809 H 0.24458 0.8321 0.22287 0.0
H810 H 0.14133 0.34954 0.96675 0.0
H811 H 0.14539 0.35782 0.02366 0.0
H812 H 0.16983 0.30445 0.03677 0.0
H813 H 0.16483 0.29556 0.98007 0.0
H814 H 0.13895 0.30104 0.08186 0.0
H815 H 0.20867 0.39659 0.07038 0.0
H816 H 0.18023 0.38977 0.05014 0.0
H817 H 0.19904 0.37628 0.03719 0.0
C818 C 0.14756 0.33962 0.98187 0.0
C819 C 0.15288 0.322 0.96906 0.0
C820 C 0.15005 0.34446 0.01432 0.0
C821 C 0.15855 0.33221 0.03445 0.0
C822 C 0.16337 0.31424 0.02173 0.0
H823 H 0.21885 0.37851 0.22283 0.0
H824 H 0.2123 0.3705 0.166 0.0
C825 C 0.16044 0.3091 0.98937 0.0
C826 C 0.1622 0.33787 0.0688 0.0
H827 H 0.1914 0.38361 0.12164 0.0
C828 C 0.15051 0.31909 0.09055 0.0
C829 C 0.17763 0.36136 0.08019 0.0
C830 C 0.19231 0.3821 0.05825 0.0
C831 C 0.15366 0.32311 0.12328 0.0
C832 C 0.16818 0.34677 0.1347 0.0
C833 C 0.18001 0.36553 0.11294 0.0
C834 C 0.17199 0.35235 0.16905 0.0
C835 C 0.14201 0.3018 0.14515 0.0
C836 C 0.15157 0.34536 0.18962 0.0
C837 C 0.15533 0.34961 0.22211 0.0
C838 C 0.17956 0.36151 0.23454 0.0
C839 C 0.19999 0.36945 0.21382 0.0
C840 C 0.19624 0.36481 0.18139 0.0
H841 H 0.13842 0.28495 0.1328 0.0
H842 H 0.1541 0.30411 0.1659 0.0
H843 H 0.12384 0.29972 0.15377 0.0
H844 H 0.1327 0.33647 0.18061 0.0
H845 H 0.1393 0.34364 0.23759 0.0
H846 H 0.40538 0.13945 0.06807 0.0
H847 H 0.41141 0.14997 0.01178 0.0
H848 H 0.39953 0.2109 0.03046 0.0
H849 H 0.39372 0.20072 0.08645 0.0
H850 H 0.37198 0.18328 0.97948 0.0
H851 H 0.47173 0.2057 0.96932 0.0
H852 H 0.45175 0.1767 0.98571 0.0
H853 H 0.45659 0.20317 1.00695 0.0
C854 C 0.40428 0.1552 0.06022 0.0
C855 C 0.3989 0.16911 0.08182 0.0
C856 C 0.40777 0.16122 0.02806 0.0
C857 C 0.40615 0.18136 0.01699 0.0
C858 C 0.40082 0.19526 0.03848 0.0
H859 H 0.44935 0.25397 0.83538 0.0
H860 H 0.44585 0.24293 0.89135 0.0
C861 C 0.39732 0.18928 0.07052 0.0
C862 C 0.40924 0.1877 0.9829 0.0
H863 H 0.45089 0.20509 0.92169 0.0
C864 C 0.38923 0.18803 0.96683 0.0
C865 C 0.43187 0.1942 0.96658 0.0
C866 C 0.45433 0.19517 0.983 0.0
C867 C 0.39112 0.19446 0.93481 0.0
C868 C 0.41354 0.2004 0.91827 0.0
C869 C 0.43367 0.20035 0.93439 0.0
C870 C 0.41636 0.20678 0.88422 0.0
C871 C 0.36926 0.19525 0.91908 0.0
C872 C 0.40131 0.18998 0.86161 0.0
C873 C 0.40331 0.19619 0.82966 0.0
C874 C 0.42051 0.21935 0.81955 0.0
C875 C 0.43602 0.23598 0.84223 0.0
C876 C 0.43399 0.22972 0.87426 0.0
H877 H 0.35603 0.196 0.93667 0.0
H878 H 0.37562 0.211 0.90319 0.0
H879 H 0.35903 0.17884 0.90458 0.0
H880 H 0.38796 0.17202 0.86871 0.0
H881 H 0.39148 0.18272 0.81288 0.0
H882 H 0.79613 0.16219 0.79309 0.0
H883 H 0.79766 0.1657 0.85069 0.0
H884 H 0.87337 0.22236 0.84487 0.0
H885 H 0.87144 0.21957 0.78696 0.0
H886 H 0.82168 0.15721 0.89321 0.0
H887 H 0.84993 0.25342 0.90721 0.0
H888 H 0.84087 0.23854 0.86946 0.0
H889 H 0.87208 0.24882 0.88413 0.0
C890 C 0.813 0.17579 0.80393 0.0
C891 C 0.83352 0.19082 0.78488 0.0
C892 C 0.81394 0.17768 0.8372 0.0
C893 C 0.83552 0.19455 0.85299 0.0
C894 C 0.85609 0.20965 0.83394 0.0
H895 H 0.85587 0.17548 0.0585 0.0
H896 H 0.85599 0.17401 1.00048 0.0
C897 C 0.85502 0.208 0.80051 0.0
C898 C 0.83653 0.19542 0.88905 0.0
H899 H 0.85195 0.23305 0.95338 0.0
C900 C 0.82824 0.17388 0.9062 0.0
C901 C 0.84471 0.21694 0.90683 0.0
C902 C 0.85214 0.24069 0.89099 0.0
C903 C 0.82793 0.17322 0.93976 0.0
C904 C 0.83701 0.19483 0.95753 0.0
C905 C 0.84521 0.21636 0.94038 0.0
C906 C 0.83726 0.19557 0.9936 0.0
C907 C 0.81691 0.14907 0.95567 0.0
C908 C 0.82755 0.20877 1.01008 0.0
C909 C 0.82795 0.21001 0.04341 0.0
C910 C 0.83797 0.19798 0.0618 0.0
C911 C 0.84763 0.18467 0.04544 0.0
C912 C 0.84755 0.18373 0.01197 0.0
H913 H 0.80382 0.13464 0.93976 0.0
H914 H 0.8321 0.1448 0.96187 0.0
H915 H 0.80673 0.14886 0.97761 0.0
H916 H 0.81942 0.21813 0.99712 0.0
H917 H 0.82011 0.22029 0.05481 0.0
H918 H 0.8385 0.68412 0.05146 0.0
H919 H 0.83487 0.68843 0.99478 0.0
H920 H 0.75514 0.6583 1.00405 0.0
H921 H 0.75858 0.65437 0.06119 0.0
H922 H 0.77246 0.63794 0.9548 0.0
H923 H 0.81748 0.7371 0.94971 0.0
H924 H 0.83496 0.72582 0.97174 0.0
H925 H 0.80485 0.72049 0.98581 0.0
C926 C 0.8202 0.67876 0.04166 0.0
C927 C 0.79885 0.66909 0.06098 0.0
C928 C 0.81818 0.68121 1.00924 0.0
C929 C 0.7948 0.67407 0.99548 0.0
C930 C 0.77336 0.66407 0.01442 0.0
H931 H 0.79128 0.70484 0.7938 0.0
H932 H 0.78084 0.70036 0.85018 0.0
C933 C 0.77537 0.66169 0.04699 0.0
C934 C 0.79297 0.67619 0.96101 0.0
H935 H 0.81529 0.71671 0.90092 0.0
C936 C 0.78141 0.65515 0.94296 0.0
C937 C 0.80436 0.69869 0.94579 0.0
C938 C 0.81591 0.72184 0.96425 0.0
C939 C 0.78235 0.656 0.90984 0.0
C940 C 0.79538 0.67843 0.89468 0.0
C941 C 0.80553 0.69953 0.9127 0.0
C942 C 0.80059 0.68029 0.86044 0.0
C943 C 0.76995 0.63289 0.89138 0.0
C944 C 0.81544 0.67081 0.84785 0.0
C945 C 0.82166 0.67355 0.81585 0.0
C946 C 0.81318 0.68589 0.79582 0.0
C947 C 0.79831 0.69544 0.8086 0.0
C948 C 0.79217 0.69275 0.84072 0.0
H949 H 0.7549 0.61844 0.90534 0.0
H950 H 0.76196 0.6353 0.86893 0.0
H951 H 0.78401 0.62696 0.88549 0.0
H952 H 0.82266 0.66168 0.86294 0.0
H953 H 0.83355 0.66641 0.80701 0.0
H954 H 0.45378 0.22733 0.3136 0.0
H955 H 0.45712 0.23801 0.36969 0.0
H956 H 0.38035 0.18541 0.38376 0.0
H957 H 0.37684 0.17491 0.32762 0.0
H958 H 0.39082 0.22716 0.41265 0.0
H959 H 0.46304 0.20057 0.44333 0.0
H960 H 0.47223 0.22216 0.41201 0.0
H961 H 0.4466 0.19266 0.40616 0.0
C962 C 0.4377 0.21787 0.32871 0.0
C963 C 0.41507 0.20018 0.31617 0.0
C964 C 0.43963 0.22397 0.3608 0.0
C965 C 0.41911 0.21224 0.3811 0.0
C966 C 0.39646 0.19469 0.36859 0.0
H967 H 0.41767 0.2051 0.58437 0.0
H968 H 0.41803 0.19899 0.52759 0.0
C969 C 0.39445 0.18873 0.33647 0.0
C970 C 0.42101 0.21845 0.41529 0.0
H971 H 0.4527 0.22099 0.48302 0.0
C972 C 0.40435 0.22582 0.42805 0.0
C973 C 0.4385 0.21644 0.43545 0.0
C974 C 0.45595 0.20731 0.42367 0.0
C975 C 0.40462 0.23116 0.46038 0.0
C976 C 0.4225 0.2297 0.4804 0.0
C977 C 0.4392 0.22239 0.46761 0.0
C978 C 0.42318 0.23417 0.51503 0.0
C979 C 0.3852 0.23752 0.47292 0.0
C980 C 0.42647 0.2562 0.52707 0.0
C981 C 0.42586 0.25966 0.55974 0.0
C982 C 0.42217 0.24121 0.58106 0.0
C983 C 0.41991 0.21954 0.56883 0.0
C984 C 0.42035 0.21606 0.53626 0.0
H985 H 0.36918 0.23183 0.45646 0.0
H986 H 0.37806 0.22906 0.49628 0.0
H987 H 0.39367 0.25723 0.47586 0.0
H988 H 0.4293 0.27066 0.51119 0.0
H989 H 0.42767 0.27656 0.56817 0.0
H990 H 0.83357 0.16067 0.31558 0.0
H991 H 0.8357 0.15977 0.3735 0.0
H992 H 0.83099 0.22553 0.3791 0.0
H993 H 0.82959 0.22693 0.32161 0.0
H994 H 0.86542 0.22759 0.4192 0.0
H995 H 0.78123 0.14076 0.43881 0.0
H996 H 0.80356 0.13854 0.41302 0.0
H997 H 0.78834 0.15568 0.40097 0.0
C998 C 0.83305 0.17501 0.329 0.0
C999 C 0.83114 0.19375 0.31321 0.0
C1000 C 0.83395 0.17432 0.36244 0.0
C1001 C 0.83296 0.19231 0.38136 0.0
C1002 C 0.83154 0.21121 0.36558 0.0
H1003 H 0.81433 0.18967 0.59276 0.0
H1004 H 0.8068 0.19002 0.53523 0.0
C1005 C 0.83057 0.21189 0.3323 0.0
C1006 C 0.83427 0.19212 0.4173 0.0
H1007 H 0.80733 0.15828 0.48369 0.0
C1008 C 0.85256 0.2124 0.43312 0.0
C1009 C 0.81739 0.17261 0.4362 0.0
C1010 C 0.79635 0.15075 0.42147 0.0
C1011 C 0.85488 0.21343 0.4665 0.0
C1012 C 0.83866 0.19359 0.48531 0.0
C1013 C 0.8199 0.17355 0.46967 0.0
C1014 C 0.8423 0.19287 0.52072 0.0
C1015 C 0.87482 0.23599 0.48142 0.0
C1016 C 0.86447 0.19403 0.53222 0.0
C1017 C 0.8687 0.19372 0.5648 0.0
C1018 C 0.85096 0.19224 0.58762 0.0
C1019 C 0.82854 0.19093 0.57624 0.0
C1020 C 0.8242 0.19105 0.5432 0.0
H1021 H 0.88074 0.25165 0.46546 0.0
H1022 H 0.86824 0.24 0.50408 0.0
H1023 H 0.8914 0.23355 0.48644 0.0
H1024 H 0.87869 0.19508 0.51585 0.0
H1025 H 0.88625 0.19474 0.57202 0.0
H1026 H 0.87819 0.72426 0.5494 0.0
H1027 H 0.87144 0.71822 0.49236 0.0
H1028 H 0.80235 0.65401 0.50916 0.0
H1029 H 0.80886 0.66001 0.56615 0.0
H1030 H 0.83475 0.64818 0.46674 0.0
H1031 H 0.82121 0.7265 0.43542 0.0
H1032 H 0.84881 0.73376 0.45811 0.0
H1033 H 0.81867 0.71577 0.4755 0.0
C1034 C 0.86137 0.7091 0.54094 0.0
C1035 C 0.84412 0.69255 0.56223 0.0
C1036 C 0.85753 0.70569 0.5084 0.0
C1037 C 0.83628 0.68581 0.49669 0.0
C1038 C 0.81885 0.66947 0.51784 0.0
H1039 H 0.79045 0.63051 0.30563 0.0
H1040 H 0.79235 0.63593 0.3631 0.0
C1041 C 0.82268 0.67284 0.55034 0.0
C1042 C 0.83298 0.68127 0.46239 0.0
H1043 H 0.82704 0.70505 0.39269 0.0
C1044 C 0.83284 0.66047 0.45051 0.0
C1045 C 0.83053 0.69741 0.44148 0.0
C1046 C 0.82957 0.71952 0.45323 0.0
C1047 C 0.83102 0.65569 0.41798 0.0
C1048 C 0.8289 0.672 0.39703 0.0
C1049 C 0.82871 0.69264 0.40894 0.0
C1050 C 0.82768 0.66838 0.36251 0.0
C1051 C 0.83215 0.63367 0.40622 0.0
C1052 C 0.84675 0.685 0.34333 0.0
C1053 C 0.84572 0.68196 0.31063 0.0
C1054 C 0.82551 0.66229 0.29653 0.0
C1055 C 0.80642 0.64562 0.31586 0.0
C1056 C 0.80745 0.64871 0.34863 0.0
H1057 H 0.83925 0.62591 0.42462 0.0
H1058 H 0.81315 0.61985 0.39946 0.0
H1059 H 0.84428 0.63789 0.385 0.0
H1060 H 0.86253 0.70027 0.35372 0.0
H1061 H 0.86088 0.69491 0.29644 0.0
H1062 H 0.03621 0.47549 0.92511 0.0
H1063 H 0.06821 0.46528 0.90774 0.0
H1064 H 0.11952 0.51467 0.97571 0.0
H1065 H 0.08711 0.52513 0.99351 0.0
H1066 H 0.11825 0.49534 0.88403 0.0
H1067 H 0.11599 0.4481 0.99615 0.0
H1068 H 0.09119 0.45493 0.98597 0.0
H1069 H 0.12092 0.47848 0.99798 0.0
C1070 C 0.05433 0.48441 0.93633 0.0
C1071 C 0.05902 0.50102 0.9609 0.0
C1072 C 0.07267 0.47857 0.92624 0.0
C1073 C 0.09619 0.48898 0.94058 0.0
C1074 C 0.10139 0.50622 0.9645 0.0
H1075 H 0.18543 0.41414 0.89807 0.0
H1076 H 0.17882 0.44752 0.91789 0.0
C1077 C 0.08294 0.51231 0.9745 0.0
C1078 C 0.11434 0.48056 0.93076 0.0
H1079 H 0.13524 0.44102 0.95225 0.0
C1080 C 0.12254 0.48397 0.8992 0.0
C1081 C 0.12008 0.4658 0.95054 0.0
C1082 C 0.11161 0.46142 0.98456 0.0
C1083 C 0.13482 0.47181 0.88639 0.0
C1084 C 0.13864 0.45545 0.90541 0.0
C1085 C 0.13228 0.45352 0.93764 0.0
C1086 C 0.14495 0.43737 0.89121 0.0
C1087 C 0.14258 0.47575 0.8521 0.0
C1088 C 0.12829 0.42073 0.86959 0.0
C1089 C 0.13191 0.40177 0.85861 0.0
C1090 C 0.15237 0.39896 0.86877 0.0
C1091 C 0.16971 0.41609 0.88948 0.0
C1092 C 0.16585 0.43504 0.90094 0.0
H1093 H 0.14654 0.49395 0.84423 0.0
H1094 H 0.15936 0.47342 0.84791 0.0
H1095 H 0.12715 0.46254 0.83733 0.0
H1096 H 0.11179 0.42179 0.86218 0.0
H1097 H 0.11816 0.3888 0.84279 0.0
H1098 H 0.71341 0.76057 0.84695 0.0
H1099 H 0.68521 0.72255 0.8715 0.0
H1100 H 0.64361 0.75503 0.91352 0.0
H1101 H 0.67172 0.79335 0.88819 0.0
H1102 H 0.68047 0.71573 0.93449 0.0
H1103 H 0.58804 0.69132 0.88166 0.0
H1104 H 0.61681 0.71394 0.8648 0.0
H1105 H 0.60349 0.72077 0.89881 0.0
C1106 C 0.69799 0.75958 0.86095 0.0
C1107 C 0.69484 0.78001 0.86572 0.0
C1108 C 0.68188 0.73779 0.87501 0.0
C1109 C 0.66223 0.73582 0.89435 0.0
C1110 C 0.65838 0.75596 0.89827 0.0
H1111 H 0.59652 0.62625 0.03954 0.0
H1112 H 0.61824 0.66359 1.01017 0.0
C1113 C 0.67447 0.77787 0.88385 0.0
C1114 C 0.64747 0.71327 0.91234 0.0
H1115 H 0.5888 0.66717 0.92418 0.0
C1116 C 0.66041 0.70513 0.93219 0.0
C1117 C 0.62134 0.6993 0.90915 0.0
C1118 C 0.60656 0.7066 0.88726 0.0
C1119 C 0.64806 0.6835 0.94886 0.0
C1120 C 0.62187 0.66976 0.94625 0.0
C1121 C 0.60886 0.67779 0.92632 0.0
C1122 C 0.60781 0.64701 0.96403 0.0
C1123 C 0.66329 0.67529 0.96857 0.0
C1124 C 0.59416 0.62523 0.94793 0.0
C1125 C 0.58168 0.6037 0.96474 0.0
C1126 C 0.58253 0.60354 0.99801 0.0
C1127 C 0.59592 0.62551 0.01399 0.0
C1128 C 0.6083 0.64696 0.9972 0.0
H1129 H 0.68322 0.68429 0.96141 0.0
H1130 H 0.66229 0.67974 0.99376 0.0
H1131 H 0.65601 0.65561 0.96663 0.0
H1132 H 0.5935 0.62483 0.92233 0.0
H1133 H 0.57165 0.58717 0.95164 0.0
H1134 H 0.24664 0.85791 0.927 0.0
H1135 H 0.28741 0.86629 0.947 0.0
H1136 H 0.2931 0.82041 0.87538 0.0
H1137 H 0.25166 0.81187 0.85491 0.0
H1138 H 0.30691 0.83565 0.96932 0.0
H1139 H 0.35562 0.88703 0.86142 0.0
H1140 H 0.32368 0.87964 0.86981 0.0
H1141 H 0.33115 0.85671 0.85698 0.0
C1142 C 0.25638 0.84935 0.91559 0.0
C1143 C 0.24603 0.83439 0.88917 0.0
C1144 C 0.27971 0.85412 0.92717 0.0
C1145 C 0.29352 0.84427 0.91252 0.0
C1146 C 0.28289 0.82844 0.88686 0.0
H1147 H 0.45403 0.91652 0.96377 0.0
H1148 H 0.41539 0.884 0.94143 0.0
C1149 C 0.25917 0.82341 0.87535 0.0
C1150 C 0.31944 0.85206 0.92372 0.0
H1151 H 0.37992 0.89204 0.90646 0.0
C1152 C 0.32296 0.84748 0.9553 0.0
C1153 C 0.34046 0.86745 0.90547 0.0
C1154 C 0.33776 0.87319 0.87155 0.0
C1155 C 0.34657 0.85905 0.96964 0.0
C1156 C 0.3672 0.87598 0.95216 0.0
C1157 C 0.36411 0.8791 0.91989 0.0
C1158 C 0.3907 0.89334 0.96804 0.0
C1159 C 0.34898 0.85385 1.00387 0.0
C1160 C 0.38969 0.90922 0.99051 0.0
C1161 C 0.41152 0.9277 1.00296 0.0
C1162 C 0.43501 0.93077 0.99344 0.0
C1163 C 0.43617 0.91432 0.97192 0.0
C1164 C 0.41414 0.89587 0.95901 0.0
H1165 H 0.33478 0.83542 1.01037 0.0
H1166 H 0.36781 0.85593 1.00899 0.0
H1167 H 0.34589 0.86656 0.01905 0.0
H1168 H 0.37196 0.90802 0.99741 0.0
H1169 H 0.41002 0.94018 0.01934 0.0
H1170 H 0.42176 0.01903 0.51629 0.0
H1171 H 0.40869 0.04607 0.54125 0.0
H1172 H 0.47846 0.08062 0.59164 0.0
H1173 H 0.49201 0.05383 0.56574 0.0
H1174 H 0.40058 0.04916 0.60219 0.0
H1175 H 0.47299 0.13812 0.56112 0.0
H1176 H 0.46925 0.1105 0.54388 0.0
H1177 H 0.48535 0.12093 0.58088 0.0
C1178 C 0.43455 0.03264 0.53229 0.0
C1179 C 0.45798 0.03432 0.53895 0.0
C1180 C 0.42699 0.04808 0.54665 0.0
C1181 C 0.44255 0.06556 0.56828 0.0
C1182 C 0.46626 0.06766 0.57456 0.0
H1183 H 0.41451 0.16208 0.69027 0.0
H1184 H 0.43028 0.1364 0.667 0.0
C1185 C 0.47401 0.05231 0.55979 0.0
C1186 C 0.43307 0.08039 0.5853 0.0
H1187 H 0.44463 0.13794 0.59996 0.0
C1188 C 0.41023 0.06858 0.60158 0.0
C1189 C 0.44559 0.10577 0.58466 0.0
C1190 C 0.46953 0.11961 0.56647 0.0
C1191 C 0.39964 0.08133 0.61708 0.0
C1192 C 0.41211 0.10663 0.61631 0.0
C1193 C 0.4351 0.11852 0.60052 0.0
C1194 C 0.40147 0.12108 0.6315 0.0
C1195 C 0.37527 0.06769 0.63446 0.0
C1196 C 0.37981 0.12082 0.61949 0.0
C1197 C 0.37071 0.13558 0.6327 0.0
C1198 C 0.38307 0.15085 0.65825 0.0
C1199 C 0.40438 0.1505 0.67074 0.0
C1200 C 0.41355 0.13591 0.65737 0.0
H1201 H 0.37057 0.04865 0.63822 0.0
H1202 H 0.37592 0.07609 0.65778 0.0
H1203 H 0.36009 0.06814 0.62043 0.0
H1204 H 0.37031 0.10967 0.59935 0.0
H1205 H 0.35438 0.13547 0.62232 0.0
H1206 H 0.89716 0.284 0.6448 0.0
H1207 H 0.91626 0.32408 0.62181 0.0
H1208 H 0.98927 0.33123 0.6394 0.0
H1209 H 0.97029 0.29082 0.66174 0.0
H1210 H 0.94861 0.36721 0.65132 0.0
H1211 H 0.99317 0.35059 0.54597 0.0
H1212 H 0.9693 0.32661 0.5687 0.0
H1213 H 1.00074 0.3419 0.58314 0.0
C1214 C 0.91726 0.29385 0.64337 0.0
C1215 C 0.93213 0.28399 0.65507 0.0
C1216 C 0.92818 0.3169 0.63039 0.0
C1217 C 0.95421 0.33062 0.62854 0.0
C1218 C 0.96914 0.32088 0.64011 0.0
H1219 H 0.02952 0.48592 0.59562 0.0
H1220 H 0.01754 0.44603 0.61713 0.0
C1221 C 0.95824 0.29782 0.65319 0.0
C1222 C 0.96555 0.35537 0.61546 0.0
H1223 H 1.00189 0.39072 0.55533 0.0
C1224 C 0.96033 0.37237 0.63039 0.0
C1225 C 0.98069 0.36205 0.588 0.0
C1226 C 0.9862 0.34433 0.57028 0.0
C1227 C 0.96976 0.39582 0.61864 0.0
C1228 C 0.98513 0.4026 0.59138 0.0
C1229 C 0.99035 0.38559 0.57641 0.0
C1230 C 0.99468 0.42684 0.57712 0.0
C1231 C 0.96259 0.41294 0.63498 0.0
C1232 C 0.9867 0.42935 0.5469 0.0
C1233 C 0.9936 0.45211 0.53447 0.0
C1234 C 1.00878 0.47292 0.55192 0.0
C1235 C 0.01778 0.47034 0.58154 0.0
C1236 C 1.0108 0.44753 0.59399 0.0
H1237 H 0.94651 0.40352 0.65124 0.0
H1238 H 0.97862 0.42598 0.64911 0.0
H1239 H 0.95776 0.42313 0.61744 0.0
H1240 H 0.97437 0.41366 0.53337 0.0
H1241 H 0.98638 0.45336 0.51156 0.0
H1242 H 0.77891 0.59719 0.63762 0.0
H1243 H 0.73813 0.56807 0.61581 0.0
H1244 H 0.70556 0.61116 0.65099 0.0
H1245 H 0.7456 0.63981 0.67269 0.0
H1246 H 0.67515 0.5617 0.66063 0.0
H1247 H 0.70811 0.58282 0.53601 0.0
H1248 H 0.72497 0.57316 0.56211 0.0
H1249 H 0.72574 0.60154 0.56861 0.0
C1250 C 0.76292 0.60016 0.64108 0.0
C1251 C 0.76557 0.62091 0.65671 0.0
C1252 C 0.73968 0.58364 0.6284 0.0
C1253 C 0.71878 0.58756 0.63139 0.0
C1254 C 0.72131 0.6077 0.64826 0.0
H1255 H 0.59108 0.56821 0.53525 0.0
H1256 H 0.63205 0.57775 0.55584 0.0
C1257 C 0.74434 0.62415 0.6606 0.0
C1258 C 0.69436 0.57179 0.61602 0.0
H1259 H 0.66518 0.55948 0.54415 0.0
C1260 C 0.67297 0.56071 0.63514 0.0
C1261 C 0.6915 0.57072 0.58274 0.0
C1262 C 0.71369 0.58275 0.56099 0.0
C1263 C 0.64885 0.54971 0.62203 0.0
C1264 C 0.64595 0.54949 0.58878 0.0
C1265 C 0.66738 0.55951 0.5696 0.0
C1266 C 0.62115 0.54222 0.57386 0.0
C1267 C 0.62664 0.53984 0.64397 0.0
C1268 C 0.60128 0.5188 0.57632 0.0
C1269 C 0.57754 0.5132 0.56441 0.0
C1270 C 0.57329 0.53097 0.54992 0.0
C1271 C 0.59353 0.55408 0.54644 0.0
C1272 C 0.6171 0.55959 0.55815 0.0
H1273 H 0.63212 0.54465 0.66907 0.0
H1274 H 0.61343 0.54661 0.63726 0.0
H1275 H 0.61668 0.52002 0.64206 0.0
H1276 H 0.604 0.50496 0.58792 0.0
H1277 H 0.56239 0.49523 0.56746 0.0
H1278 H 0.87423 0.62812 0.1564 0.0
H1279 H 0.90718 0.62067 0.13549 0.0
H1280 H 0.94884 0.69471 0.10774 0.0
H1281 H 0.91536 0.70242 0.1289 0.0
H1282 H 0.94392 0.66242 0.05925 0.0
H1283 H 0.9766 0.63781 0.16765 0.0
H1284 H 0.94325 0.62196 0.16531 0.0
H1285 H 0.95893 0.65415 0.16863 0.0
C1286 C 0.8905 0.64301 0.14624 0.0
C1287 C 0.89211 0.6659 0.1443 0.0
C1288 C 0.9095 0.63872 0.13452 0.0
C1289 C 0.93075 0.65717 0.1205 0.0
C1290 C 0.93273 0.68024 0.1188 0.0
H1291 H 0.02581 0.59422 0.05373 0.0
H1292 H 0.01778 0.62602 0.07624 0.0
C1293 C 0.91365 0.68465 0.13094 0.0
C1294 C 0.94936 0.65124 0.10535 0.0
H1295 H 0.98033 0.6189 0.11887 0.0
C1296 C 0.95249 0.65351 0.07241 0.0
C1297 C 0.96103 0.64001 0.1224 0.0
C1298 C 0.96001 0.63858 0.15801 0.0
C1299 C 0.96487 0.64285 0.05588 0.0
C1300 C 0.97401 0.62923 0.07265 0.0
C1301 C 0.97304 0.629 0.10584 0.0
C1302 C 0.98079 0.61218 0.05626 0.0
C1303 C 0.96708 0.64541 0.02041 0.0
C1304 C 0.96282 0.59392 0.03756 0.0
C1305 C 0.96728 0.57588 0.02502 0.0
C1306 C 0.98986 0.57549 0.03079 0.0
C1307 C 1.00834 0.59418 0.04862 0.0
C1308 C 1.00372 0.61228 0.06156 0.0
H1309 H 0.96828 0.66273 0.01281 0.0
H1310 H 0.98371 0.6443 1.01147 0.0
H1311 H 0.9502 0.63084 1.00935 0.0
H1312 H 0.94477 0.593 0.03372 0.0
H1313 H 0.95262 0.56177 1.0114 0.0
H1314 H 0.42179 0.24004 0.12668 0.0
H1315 H 0.43202 0.27919 0.10481 0.0
H1316 H 0.38087 0.28575 0.16999 0.0
H1317 H 0.37028 0.24599 0.1921 0.0
H1318 H 0.4008 0.29929 0.07856 0.0
H1319 H 0.45262 0.34361 0.18852 0.0
H1320 H 0.44428 0.31287 0.17924 0.0
H1321 H 0.42077 0.32053 0.19205 0.0
C1322 C 0.41242 0.24964 0.13615 0.0
C1323 C 0.39543 0.24011 0.16133 0.0
C1324 C 0.41823 0.27198 0.1235 0.0
C1325 C 0.40742 0.28548 0.13596 0.0
C1326 C 0.38952 0.27562 0.16019 0.0
H1327 H 0.45083 0.42978 0.06094 0.0
H1328 H 0.4254 0.38896 0.08007 0.0
C1329 C 0.3834 0.25293 0.17267 0.0
C1330 C 0.41676 0.31049 0.12486 0.0
H1331 H 0.45737 0.36826 0.14494 0.0
C1332 C 0.41275 0.31446 0.09322 0.0
C1333 C 0.43267 0.33017 0.14392 0.0
C1334 C 0.43806 0.32678 0.17781 0.0
C1335 C 0.42477 0.33753 0.07993 0.0
C1336 C 0.44126 0.35706 0.09875 0.0
C1337 C 0.44469 0.35321 0.13061 0.0
C1338 C 0.45634 0.38136 0.08535 0.0
C1339 C 0.42072 0.3408 0.0455 0.0
C1340 C 0.48217 0.39058 0.08173 0.0
C1341 C 0.4968 0.41385 0.07042 0.0
C1342 C 0.48598 0.42857 0.0628 0.0
C1343 C 0.45993 0.41904 0.06602 0.0
C1344 C 0.44529 0.39568 0.07716 0.0
H1345 H 0.40943 0.32345 0.03325 0.0
H1346 H 0.41093 0.35178 0.04351 0.0
H1347 H 0.43893 0.35056 0.03318 0.0
H1348 H 0.49104 0.37976 0.08784 0.0
H1349 H 0.51666 0.42034 0.06791 0.0
H1350 H 0.78285 0.10198 0.14832 0.0
H1351 H 0.74472 0.06978 0.12487 0.0
H1352 H 0.70246 0.10375 0.16016 0.0
H1353 H 0.73996 0.13543 0.18377 0.0
H1354 H 0.67706 0.05414 0.16645 0.0
H1355 H 0.71422 0.0813 0.04438 0.0
H1356 H 0.73211 0.07324 0.07093 0.0
H1357 H 0.72916 0.09975 0.07837 0.0
C1358 C 0.76533 0.10231 0.1515 0.0
C1359 C 0.76453 0.12142 0.16769 0.0
C1360 C 0.74359 0.084 0.13787 0.0
C1361 C 0.72073 0.08452 0.1403 0.0
C1362 C 0.7198 0.10293 0.15785 0.0
H1363 H 0.59473 0.055 0.03596 0.0
H1364 H 0.63511 0.06734 0.06025 0.0
C1365 C 0.74137 0.12114 0.17127 0.0
C1366 C 0.69788 0.06707 0.12327 0.0
H1367 H 0.67208 0.05345 0.04942 0.0
C1368 C 0.67604 0.05353 0.14083 0.0
C1369 C 0.69652 0.06642 0.08982 0.0
C1370 C 0.71914 0.08101 0.06961 0.0
C1371 C 0.65274 0.04049 0.12599 0.0
C1372 C 0.65123 0.04074 0.0926 0.0
C1373 C 0.67327 0.05314 0.07499 0.0
C1374 C 0.62687 0.03187 0.07595 0.0
C1375 C 0.62969 0.02793 0.1462 0.0
C1376 C 0.60873 1.00758 0.07602 0.0
C1377 C 0.58529 1.00033 0.06192 0.0
C1378 C 0.57966 0.01732 0.04771 0.0
C1379 C 0.59824 0.04141 0.04689 0.0
C1380 C 0.62149 0.04854 0.0607 0.0
H1381 H 0.63374 0.03189 0.17177 0.0
H1382 H 0.61546 0.03332 0.13908 0.0
H1383 H 0.62154 1.00829 0.14274 0.0
H1384 H 0.61256 0.99431 0.0873 0.0
H1385 H 0.5714 0.98166 0.06293 0.0
H1386 H 0.54827 0.99319 0.45037 0.0
H1387 H 0.5759 0.98002 0.42456 0.0
H1388 H 0.59667 0.96453 0.51559 0.0
H1389 H 0.56943 0.97793 0.5416 0.0
H1390 H 0.63705 0.98554 0.47352 0.0
H1391 H 0.55605 0.90857 0.41816 0.0
H1392 H 0.55892 0.93751 0.4092 0.0
H1393 H 0.55252 0.92647 0.44907 0.0
C1394 C 0.55902 0.98736 0.46497 0.0
C1395 C 0.55641 0.98645 0.49812 0.0
C1396 C 0.57468 0.97965 0.45013 0.0
C1397 C 0.58799 0.97079 0.46808 0.0
C1398 C 0.58649 0.97113 0.5012 0.0
H1399 H 0.64192 0.87105 0.42022 0.0
H1400 H 0.62067 0.89293 0.44006 0.0
C1401 C 0.57086 0.97882 0.51605 0.0
C1402 C 0.60243 0.95998 0.45256 0.0
H1403 H 0.59584 0.91288 0.40635 0.0
C1404 C 0.62809 0.96976 0.45864 0.0
C1405 C 0.59069 0.93917 0.43348 0.0
C1406 C 0.563 0.92712 0.42723 0.0
C1407 C 0.64225 0.95925 0.44631 0.0
C1408 C 0.6305 0.93852 0.42709 0.0
C1409 C 0.60489 0.92887 0.42085 0.0
C1410 C 0.64399 0.92565 0.41482 0.0
C1411 C 0.66947 0.96993 0.45484 0.0
C1412 C 0.66415 0.93664 0.39374 0.0
C1413 C 0.67643 0.9241 0.38224 0.0
C1414 C 0.66873 0.90028 0.39155 0.0
C1415 C 0.64844 0.88935 0.41253 0.0
C1416 C 0.6362 0.90185 0.42391 0.0
H1417 H 0.67436 0.98258 0.47509 0.0
H1418 H 0.67448 0.95567 0.46094 0.0
H1419 H 0.68093 0.97993 0.43423 0.0
H1420 H 0.67025 0.95485 0.38592 0.0
H1421 H 0.69191 0.93306 0.36604 0.0
H1422 H 0.05737 0.61753 0.53843 0.0
H1423 H 0.07836 0.65676 0.51289 0.0
H1424 H 0.06791 0.62253 0.42186 0.0
H1425 H 0.04664 0.58318 0.44712 0.0
H1426 H 0.12054 0.67833 0.47347 0.0
H1427 H 0.03523 0.66599 0.41062 0.0
H1428 H 0.03441 0.64668 0.44246 0.0
H1429 H 0.0438 0.64281 0.40345 0.0
C1430 C 0.05974 0.61828 0.51299 0.0
C1431 C 0.05012 0.59712 0.49485 0.0
C1432 C 0.07172 0.64077 0.49842 0.0
C1433 C 0.07423 0.64263 0.46539 0.0
C1434 C 0.06569 0.62157 0.44732 0.0
H1435 H 0.13449 0.75925 0.33074 0.0
H1436 H 0.11322 0.72083 0.35802 0.0
C1437 C 0.05372 0.59905 0.46186 0.0
C1438 C 0.08538 0.66657 0.44991 0.0
H1439 H 0.07275 0.70075 0.39787 0.0
C1440 C 0.11007 0.68329 0.45705 0.0
C1441 C 0.07168 0.67307 0.42853 0.0
C1442 C 0.04474 0.65631 0.42095 0.0
C1443 C 0.12164 0.70605 0.44281 0.0
C1444 C 0.10797 0.71253 0.42134 0.0
C1445 C 0.08322 0.69585 0.41436 0.0
C1446 C 0.11931 0.73618 0.40499 0.0
C1447 C 0.14866 0.72268 0.45018 0.0
C1448 C 0.12906 0.75774 0.42218 0.0
C1449 C 0.1413 0.77985 0.40661 0.0
C1450 C 0.14389 0.78085 0.37347 0.0
C1451 C 0.13295 0.75923 0.35627 0.0
C1452 C 0.12078 0.73718 0.37185 0.0
H1453 H 0.15809 0.71293 0.46052 0.0
H1454 H 0.15896 0.73217 0.42858 0.0
H1455 H 0.1498 0.73629 0.46763 0.0
H1456 H 0.12761 0.75747 0.44773 0.0
H1457 H 0.14941 0.79611 0.42064 0.0
H1458 H 0.23642 0.37881 0.44173 0.0
H1459 H 0.27678 0.38751 0.46359 0.0
H1460 H 0.28434 0.34135 0.39401 0.0
H1461 H 0.24333 0.33242 0.37172 0.0
H1462 H 0.29593 0.35639 0.48767 0.0
H1463 H 0.34687 0.40873 0.38143 0.0
H1464 H 0.31479 0.40134 0.38878 0.0
H1465 H 0.32244 0.37847 0.37624 0.0
C1466 C 0.24646 0.37023 0.43119 0.0
C1467 C 0.23672 0.35504 0.40483 0.0
C1468 C 0.26956 0.37519 0.44382 0.0
C1469 C 0.28377 0.36534 0.43028 0.0
C1470 C 0.27379 0.34935 0.40466 0.0
H1471 H 0.44331 0.43594 0.4851 0.0
H1472 H 0.40465 0.40459 0.46144 0.0
C1473 C 0.25031 0.34411 0.39211 0.0
C1474 C 0.30943 0.37325 0.44254 0.0
H1475 H 0.37026 0.41327 0.42724 0.0
C1476 C 0.31227 0.36837 0.47421 0.0
C1477 C 0.33081 0.38882 0.425 0.0
C1478 C 0.32881 0.39484 0.39099 0.0
C1479 C 0.33561 0.37969 0.48929 0.0
C1480 C 0.35663 0.39675 0.47251 0.0
C1481 C 0.35416 0.40027 0.44018 0.0
C1482 C 0.38009 0.41353 0.48901 0.0
C1483 C 0.33733 0.37388 0.52347 0.0
C1484 C 0.3792 0.42885 0.51247 0.0
C1485 C 0.40109 0.44668 0.52579 0.0
C1486 C 0.42454 0.44973 0.51606 0.0
C1487 C 0.42552 0.43385 0.49339 0.0
C1488 C 0.40346 0.41604 0.47973 0.0
H1489 H 0.32302 0.35533 0.52927 0.0
H1490 H 0.35604 0.37587 0.52911 0.0
H1491 H 0.33388 0.38629 0.53882 0.0
H1492 H 0.36154 0.42771 0.51959 0.0
H1493 H 0.39964 0.45865 0.54309 0.0
H1494 H 0.85108 0.75611 0.22759 0.0
H1495 H 0.84094 0.78628 0.2511 0.0
H1496 H 0.77011 0.7538 0.20314 0.0
H1497 H 0.7799 0.72384 0.18009 0.0
H1498 H 0.79901 0.8079 0.20304 0.0
H1499 H 0.78384 0.76472 0.32157 0.0
H1500 H 0.81225 0.77214 0.30023 0.0
H1501 H 0.7833 0.74864 0.28598 0.0
C1502 C 0.8336 0.75578 0.22162 0.0
C1503 C 0.81624 0.73756 0.2021 0.0
C1504 C 0.82776 0.7729 0.2352 0.0
C1505 C 0.80466 0.77215 0.22904 0.0
C1506 C 0.788 0.75472 0.20826 0.0
H1507 H 0.69377 0.80982 0.26712 0.0
H1508 H 0.72682 0.8029 0.24471 0.0
C1509 C 0.79363 0.73757 0.19513 0.0
C1510 C 0.79655 0.78817 0.24545 0.0
H1511 H 0.76876 0.79226 0.3139 0.0
C1512 C 0.79293 0.80492 0.22752 0.0
C1513 C 0.78873 0.78439 0.27742 0.0
C1514 C 0.79208 0.76649 0.29762 0.0
C1515 C 0.78054 0.81705 0.24021 0.0
C1516 C 0.77087 0.81178 0.27137 0.0
C1517 C 0.77605 0.79628 0.28999 0.0
C1518 C 0.75254 0.81936 0.28347 0.0
C1519 C 0.77733 0.83489 0.21976 0.0
C1520 C 0.7557 0.8308 0.31298 0.0
C1521 C 0.73658 0.8347 0.32595 0.0
C1522 C 0.71401 0.82717 0.30967 0.0
C1523 C 0.71115 0.81621 0.27995 0.0
C1524 C 0.73015 0.8124 0.26699 0.0
H1525 H 0.79277 0.84328 0.20236 0.0
H1526 H 0.75969 0.82548 0.20628 0.0
H1527 H 0.77658 0.84922 0.23422 0.0
H1528 H 0.77256 0.83588 0.3265 0.0
H1529 H 0.73878 0.84201 0.34952 0.0
H1530 H 0.2956 0.10869 0.21463 0.0
H1531 H 0.26232 0.07025 0.23466 0.0
H1532 H 0.31566 0.06301 0.29456 0.0
H1533 H 0.34854 0.10074 0.27484 0.0
H1534 H 0.26293 0.02428 0.23108 0.0
H1535 H 0.25677 0.04945 0.35472 0.0
H1536 H 0.26956 0.07127 0.32332 0.0
H1537 H 0.28844 0.05999 0.3422 0.0
C1538 C 0.30005 0.09901 0.23241 0.0
C1539 C 0.32472 0.10775 0.2431 0.0
C1540 C 0.28107 0.07706 0.24375 0.0
C1541 C 0.28644 0.0639 0.26643 0.0
C1542 C 0.31094 0.07298 0.2775 0.0
H1543 H 0.26367 0.9401 0.34976 0.0
H1544 H 0.27202 0.97951 0.33112 0.0
C1545 C 0.3298 0.09455 0.266 0.0
C1546 C 0.26739 0.03986 0.27744 0.0
H1547 H 0.2459 1.00773 0.34561 0.0
C1548 C 0.25842 0.02064 0.25597 0.0
C1549 C 0.26145 0.03514 0.3099 0.0
C1550 C 0.26936 0.05511 0.33383 0.0
C1551 C 0.24574 0.99674 0.26654 0.0
C1552 C 0.24184 0.99204 0.29935 0.0
C1553 C 0.24895 1.01131 0.32047 0.0
C1554 C 0.23502 0.96795 0.31252 0.0
C1555 C 0.23848 0.97666 0.24291 0.0
C1556 C 0.21113 0.94828 0.30891 0.0
C1557 C 0.20616 0.92545 0.3199 0.0
C1558 C 0.22513 0.92206 0.33427 0.0
C1559 C 0.24868 0.94201 0.33859 0.0
C1560 C 0.2535 0.96463 0.32801 0.0
H1561 H 0.24372 0.98335 0.21834 0.0
H1562 H 0.24762 0.96558 0.249 0.0
H1563 H 0.21803 0.96488 0.24384 0.0
H1564 H 0.19653 0.9505 0.29719 0.0
H1565 H 0.18788 0.9104 0.31614 0.0
H1566 H 0.07455 0.30358 0.34472 0.0
H1567 H 0.0361 0.27411 0.32044 0.0
H1568 H 0.07446 0.23731 0.28169 0.0
H1569 H 0.11363 0.26731 0.30612 0.0
H1570 H 0.04686 0.2466 0.23682 0.0
H1571 H 0.98768 0.20513 0.34111 0.0
H1572 H 1.00228 0.23715 0.34394 0.0
H1573 H 0.02121 0.22215 0.34375 0.0
C1574 C 0.07484 0.28901 0.33151 0.0
C1575 C 0.09719 0.2878 0.32739 0.0
C1576 C 0.0527 0.272 0.31781 0.0
C1577 C 0.05217 0.2532 0.29961 0.0
C1578 C 0.07434 0.25151 0.29593 0.0
H1579 H 0.90008 0.16367 0.22478 0.0
H1580 H 0.94074 0.17246 0.24752 0.0
C1581 C 0.09667 0.26857 0.31 0.0
C1582 C 0.02887 0.23704 0.28233 0.0
H1583 H 0.96582 0.20545 0.29302 0.0
C1584 C 0.0292 0.23708 0.24912 0.0
C1585 C 1.00577 0.22421 0.2982 0.0
C1586 C 1.00424 0.22193 0.33373 0.0
C1587 C 1.00697 0.22639 0.23152 0.0
C1588 C 0.98373 0.21574 0.24751 0.0
C1589 C 0.98352 0.21391 0.28063 0.0
C1590 C 0.95974 0.20908 0.23085 0.0
C1591 C 1.00861 0.22726 0.19591 0.0
C1592 C 0.95682 0.22662 0.21382 0.0
C1593 C 0.93376 0.22166 0.20093 0.0
C1594 C 0.91285 0.19905 0.20483 0.0
C1595 C 0.91584 0.18119 0.22112 0.0
C1596 C 0.93905 0.18623 0.23422 0.0
H1597 H 0.02605 0.22741 0.18763 0.0
H1598 H 0.99245 0.21177 0.18498 0.0
H1599 H 1.00892 0.24401 0.1875 0.0
H1600 H 0.97219 0.24455 0.21152 0.0
H1601 H 0.93219 0.2359 0.18863 0.0
H1602 H 0.33688 0.22488 0.75569 0.0
H1603 H 0.31173 0.24184 0.77912 0.0
H1604 H 0.30208 0.26536 0.68701 0.0
H1605 H 0.32762 0.24894 0.66353 0.0
H1606 H 0.31476 0.3007 0.73077 0.0
H1607 H 0.23721 0.2166 0.777 0.0
H1608 H 0.26738 0.22238 0.79098 0.0
H1609 H 0.26006 0.21669 0.74962 0.0
C1610 C 0.3291 0.23333 0.74032 0.0
C1611 C 0.33421 0.23539 0.70764 0.0
C1612 C 0.31467 0.24303 0.75378 0.0
C1613 C 0.30475 0.25474 0.73485 0.0
C1614 C 0.30951 0.25646 0.70218 0.0
H1615 H 0.18426 0.28495 0.77421 0.0
H1616 H 0.21354 0.27151 0.7559 0.0
C1617 C 0.32403 0.24691 0.68874 0.0
C1618 C 0.28988 0.26569 0.74895 0.0
H1619 H 0.2369 0.25266 0.79093 0.0
C1620 C 0.29775 0.2902 0.74399 0.0
C1621 C 0.2676 0.25202 0.76609 0.0
C1622 C 0.25738 0.22543 0.77104 0.0
C1623 C 0.28385 0.3013 0.75529 0.0
C1624 C 0.26164 0.28764 0.77256 0.0
C1625 C 0.25401 0.26323 0.77792 0.0
C1626 C 0.24476 0.29753 0.78288 0.0
C1627 C 0.29258 0.32731 0.74762 0.0
C1628 C 0.25253 0.31706 0.80392 0.0
C1629 C 0.23566 0.32506 0.81437 0.0
C1630 C 0.21069 0.31344 0.80425 0.0
C1631 C 0.20327 0.29426 0.78275 0.0
C1632 C 0.22003 0.28647 0.77223 0.0
H1633 H 0.30677 0.33377 0.72845 0.0
H1634 H 0.27669 0.33026 0.74034 0.0
H1635 H 0.30112 0.33833 0.76901 0.0
H1636 H 0.2714 0.3257 0.81291 0.0
H1637 H 0.24191 0.33974 0.83111 0.0
H1638 H 0.86561 0.09397 0.6967 0.0
H1639 H 0.84251 0.05314 0.71721 0.0
H1640 H 0.78611 0.06954 0.75429 0.0
H1641 H 0.80902 0.11029 0.73383 0.0
H1642 H 0.83182 0.03986 0.77838 0.0
H1643 H 0.74375 1.006 0.71069 0.0
H1644 H 0.77149 0.03297 0.69988 0.0
H1645 H 0.75172 0.03352 0.73126 0.0
C1646 C 0.84821 0.08886 0.70904 0.0
C1647 C 0.83919 0.10547 0.71349 0.0
C1648 C 0.83497 0.06547 0.72066 0.0
C1649 C 0.81236 0.0581 0.73694 0.0
C1650 C 0.80315 0.07454 0.74112 0.0
H1651 H 0.75173 0.94009 0.87085 0.0
H1652 H 0.76721 0.9789 0.84465 0.0
C1653 C 0.81633 0.09791 0.72939 0.0
C1654 C 0.79939 0.03379 0.75139 0.0
H1655 H 0.74382 0.98222 0.7544 0.0
C1656 C 0.81261 0.02725 0.773 0.0
C1657 C 0.77437 0.01719 0.7442 0.0
C1658 C 0.75955 0.02263 0.72001 0.0
C1659 C 0.80148 1.00479 0.78794 0.0
C1660 C 0.7762 0.98851 0.78163 0.0
C1661 C 0.76306 0.99483 0.75958 0.0
C1662 C 0.76348 0.96466 0.79724 0.0
C1663 C 0.81708 0.99855 0.80994 0.0
C1664 C 0.75486 0.94357 0.77925 0.0
C1665 C 0.74573 0.92125 0.79417 0.0
C1666 C 0.74504 0.91963 0.82741 0.0
C1667 C 0.75219 0.94066 0.84525 0.0
C1668 C 0.76121 0.96292 0.83031 0.0
H1669 H 0.83735 1.01018 0.80597 0.0
H1670 H 0.81283 1.00109 0.83477 0.0
H1671 H 0.81288 0.97958 0.80691 0.0
H1672 H 0.75627 0.94446 0.75369 0.0
H1673 H 0.74039 0.90545 0.77965 0.0
H1674 H 0.11674 0.74772 0.80148 0.0
H1675 H 0.07602 0.71831 0.77978 0.0
H1676 H 0.04428 0.76364 0.80852 0.0
H1677 H 0.08424 0.79266 0.82989 0.0
H1678 H 1.01396 0.71291 0.82261 0.0
H1679 H 0.04566 0.73155 0.69717 0.0
H1680 H 0.06336 0.724 0.72484 0.0
H1681 H 0.06287 0.75202 0.72859 0.0
C1682 C 0.10098 0.75122 0.80338 0.0
C1683 C 0.10385 0.77265 0.81721 0.0
C1684 C 0.07777 0.73448 0.79087 0.0
C1685 C 0.0571 0.73885 0.79234 0.0
C1686 C 0.05988 0.75983 0.80708 0.0
H1687 H 0.93123 0.72544 0.70516 0.0
H1688 H 0.97157 0.73211 0.72455 0.0
C1689 C 0.08288 0.77651 0.81919 0.0
C1690 C 0.03262 0.72258 0.7776 0.0
H1691 H 1.00263 0.71041 0.70635 0.0
C1692 C 1.01148 0.71171 0.79716 0.0
C1693 C 0.0294 0.72121 0.7444 0.0
C1694 C 0.05141 0.73283 0.72232 0.0
C1695 C 0.98721 0.70083 0.7845 0.0
C1696 C 0.98396 0.70077 0.75136 0.0
C1697 C 1.00513 0.71031 0.73173 0.0
C1698 C 0.95935 0.69519 0.73728 0.0
C1699 C 0.96518 0.69114 0.80671 0.0
C1700 C 0.93891 0.67197 0.73735 0.0
C1701 C 0.91549 0.66798 0.72596 0.0
C1702 C 0.91218 0.68723 0.71471 0.0
C1703 C 0.93294 0.7102 0.71392 0.0
C1704 C 0.95616 0.71408 0.72489 0.0
H1705 H 0.97092 0.69401 0.83194 0.0
H1706 H 0.95336 0.69985 0.80201 0.0
H1707 H 0.95361 0.67163 0.80261 0.0
H1708 H 0.94099 0.65706 0.74662 0.0
H1709 H 0.89988 0.6501 0.72688 0.0
loop_
_geom_bond_atom_site_label_1
_geom_bond_atom_site_label_2
_geom_bond_distance
_geom_bond_site_symmetry_2
_ccdc_geom_bond_type
Cu0 N1 1.999 1_554 S
Cu0 O6 1.974 1_554 S
Cu0 N11 1.985 . S
Cu0 O20 1.959 . S
N1 Cu0 1.999 1_556 S
N1 C3 1.263 . S
N1 C5 1.389 . S
N2 C3 1.358 . S
N2 C4 1.400 . S
C3 N1 1.263 . S
C3 N2 1.358 . S
C3 H9 0.930 . S
C4 N2 1.400 . S
C4 C5 1.351 . S
C4 H21 0.930 . S
C5 N1 1.389 . S
C5 C4 1.351 . S
C5 H10 0.930 . S
O6 Cu0 1.974 1_556 S
O6 C16 1.282 . S
C7 O8 1.261 . S
C7 O20 1.251 1_655 S
O8 C7 1.261 . S
H9 C3 0.930 . S
H10 C5 0.930 . S
N11 Cu0 1.985 . S
N11 C13 1.335 . S
N11 C14 1.390 . S
N12 C13 1.345 . S
N12 C15 1.336 . S
C13 N11 1.335 . S
C13 N12 1.345 . S
C13 H18 0.930 . S
C14 N11 1.390 . S
C14 C15 1.346 . S
C14 H19 0.930 . S
C15 N12 1.336 . S
C15 C14 1.346 . S
C15 H22 0.929 . S
C16 O6 1.282 . S
C16 O17 1.216 . S
O17 C16 1.216 . S
H18 C13 0.930 . S
H19 C14 0.930 . S
O20 Cu0 1.959 . S
O20 C7 1.251 1_455 S
H21 C4 0.930 . S
H22 C15 0.929 . S
Cu23 N24 1.999 . S
Cu23 O29 1.974 . S
Cu23 N34 1.985 . S
Cu23 O43 1.959 1_554 S
N24 Cu23 1.999 . S
N24 C26 1.263 . S
N24 C28 1.389 1_554 S
N25 C26 1.358 . S
N25 C27 1.400 . S
C26 N24 1.263 . S
C26 N25 1.358 . S
C26 H32 0.930 . S
C27 N25 1.400 . S
C27 C28 1.351 1_554 S
C27 H44 0.930 1_554 S
C28 N24 1.389 1_556 S
C28 C27 1.351 1_556 S
C28 H33 0.930 . S
O29 Cu23 1.974 . S
O29 C39 1.282 . S
C30 O31 1.261 . S
C30 O43 1.251 . S
O31 C30 1.261 . S
H32 C26 0.930 . S
H33 C28 0.930 . S
N34 Cu23 1.985 . S
N34 C36 1.335 1_554 S
N34 C37 1.390 . S
N35 C36 1.345 . S
N35 C38 1.336 1_556 S
C36 N34 1.335 1_556 S
C36 N35 1.345 . S
C36 H41 0.930 . S
C37 N34 1.390 . S
C37 C38 1.346 . S
C37 H42 0.930 . S
C38 N35 1.336 1_554 S
C38 C37 1.346 . S
C38 H45 0.929 . S
C39 O29 1.282 . S
C39 O40 1.216 . S
O40 C39 1.216 . S
H41 C36 0.930 . S
H42 C37 0.930 . S
O43 Cu23 1.959 1_556 S
O43 C30 1.251 . S
H44 C27 0.930 1_556 S
H45 C38 0.929 . S
Cu46 N47 1.999 1_554 S
Cu46 O52 1.974 1_544 S
Cu46 N57 1.985 . S
Cu46 O66 1.959 . S
N47 Cu46 1.999 1_556 S
N47 C49 1.263 . S
N47 C51 1.389 . S
N48 C49 1.358 . S
N48 C50 1.400 . S
C49 N47 1.263 . S
C49 N48 1.358 . S
C49 H55 0.930 . S
C50 N48 1.400 . S
C50 C51 1.351 . S
C50 H67 0.930 . S
C51 N47 1.389 . S
C51 C50 1.351 . S
C51 H56 0.930 . S
O52 Cu46 1.974 1_566 S
O52 C62 1.261 1_565 S
C53 O54 1.261 . S
C53 O66 1.251 . S
O54 C53 1.261 . S
H55 C49 0.930 . S
H56 C51 0.930 . S
N57 Cu46 1.985 . S
N57 C59 1.335 . S
N57 C60 1.390 . S
N58 C59 1.345 . S
N58 C61 1.336 . S
C59 N57 1.335 . S
C59 N58 1.345 . S
C59 H64 0.930 . S
C60 N57 1.390 . S
C60 C61 1.346 . S
C60 H65 0.923 . S
C61 N58 1.336 . S
C61 C60 1.346 . S
C61 H68 0.929 . S
C62 O52 1.261 1_545 S
C62 O63 1.241 . S
O63 C62 1.241 . S
H64 C59 0.930 . S
H65 C60 0.923 . S
O66 Cu46 1.959 . S
O66 C53 1.251 . S
H67 C50 0.930 . S
H68 C61 0.929 . S
Cu69 N70 1.999 . S
Cu69 O75 1.974 . S
Cu69 N80 1.985 . S
Cu69 O89 1.959 . S
N70 Cu69 1.999 . S
N70 C72 1.263 . S
N70 C74 1.389 . S
N71 C72 1.358 . S
N71 C73 1.400 . S
C72 N70 1.263 . S
C72 N71 1.358 . S
C72 H78 0.930 . S
C73 N71 1.400 . S
C73 C74 1.351 . S
C73 H90 0.930 . S
C74 N70 1.389 . S
C74 C73 1.351 . S
C74 H79 0.930 . S
O75 Cu69 1.974 . S
O75 C85 1.282 1_545 S
C76 O77 1.261 . S
C76 O89 1.251 . S
O77 C76 1.261 . S
H78 C72 0.930 . S
H79 C74 0.930 . S
N80 Cu69 1.985 . S
N80 C82 1.335 . S
N80 C83 1.390 1_545 S
N81 C82 1.345 . S
N81 C84 1.336 1_545 S
C82 N80 1.335 . S
C82 N81 1.345 . S
C82 H87 0.930 . S
C83 N80 1.390 1_565 S
C83 C84 1.346 . S
C83 H88 0.930 . S
C84 N81 1.336 1_565 S
C84 C83 1.346 . S
C84 H91 0.929 . S
C85 O75 1.282 1_565 S
C85 O86 1.216 . S
O86 C85 1.216 . S
H87 C82 0.930 . S
H88 C83 0.930 . S
O89 Cu69 1.959 . S
O89 C76 1.251 . S
H90 C73 0.930 . S
H91 C84 0.929 . S
Cu92 N93 1.999 . S
Cu92 O98 1.974 . S
Cu92 N103 1.985 . S
Cu92 O112 1.959 1_655 S
N93 Cu92 1.999 . S
N93 C95 1.263 . S
N93 C97 1.389 . S
N94 C95 1.358 . S
N94 C96 1.400 . S
C95 N93 1.263 . S
C95 N94 1.358 . S
C95 H101 0.930 . S
C96 N94 1.400 . S
C96 C97 1.351 . S
C96 H113 0.930 . S
C97 N93 1.389 . S
C97 C96 1.351 . S
C97 H102 0.930 . S
O98 Cu92 1.974 . S
O98 C108 1.282 . S
C99 O100 1.261 . S
C99 O112 1.251 . S
O100 C99 1.261 . S
H101 C95 0.930 . S
H102 C97 0.930 . S
N103 Cu92 1.985 . S
N103 C105 1.335 . S
N103 C106 1.390 . S
N104 C105 1.345 . S
N104 C107 1.336 . S
C105 N103 1.335 . S
C105 N104 1.345 . S
C105 H110 0.930 . S
C106 N103 1.390 . S
C106 C107 1.346 . S
C106 H111 0.930 . S
C107 N104 1.336 . S
C107 C106 1.346 . S
C107 H114 0.929 . S
C108 O98 1.282 . S
C108 O109 1.216 1_655 S
O109 C108 1.216 1_455 S
H110 C105 0.930 . S
H111 C106 0.930 . S
O112 Cu92 1.959 1_455 S
O112 C99 1.251 . S
H113 C96 0.930 . S
H114 C107 0.929 . S
Cu115 N116 1.999 . S
Cu115 O121 1.974 . S
Cu115 N126 1.985 . S
Cu115 O135 1.959 . S
N116 Cu115 1.999 . S
N116 C118 1.263 . S
N116 C120 1.389 . S
N117 C118 1.358 . S
N117 C119 1.400 . S
C118 N116 1.263 . S
C118 N117 1.358 . S
C118 H124 0.930 . S
C119 N117 1.400 . S
C119 C120 1.351 . S
C119 H136 0.930 . S
C120 N116 1.389 . S
C120 C119 1.351 . S
C120 H125 0.930 . S
O121 Cu115 1.974 . S
O121 C131 1.282 . S
C122 O123 1.261 . S
C122 O135 1.251 . S
O123 C122 1.261 . S
H124 C118 0.930 . S
H125 C120 0.930 . S
N126 Cu115 1.985 . S
N126 C128 1.335 . S
N126 C129 1.390 . S
N127 C128 1.345 . S
N127 C130 1.336 . S
C128 N126 1.335 . S
C128 N127 1.345 . S
C128 H133 0.930 . S
C129 N126 1.390 . S
C129 C130 1.346 . S
C129 H134 0.930 . S
C130 N127 1.336 . S
C130 C129 1.346 . S
C130 H137 0.929 . S
C131 O121 1.282 . S
C131 O132 1.216 . S
O132 C131 1.216 . S
H133 C128 0.930 . S
H134 C129 0.930 . S
O135 Cu115 1.959 . S
O135 C122 1.251 . S
H136 C119 0.930 . S
H137 C130 0.929 . S
Cu138 N139 1.999 . S
Cu138 O144 1.974 . S
Cu138 N149 1.985 . S
Cu138 O158 1.959 . S
N139 Cu138 1.999 . S
N139 C141 1.263 . S
N139 C143 1.389 . S
N140 C141 1.358 . S
N140 C142 1.400 . S
C141 N139 1.263 . S
C141 N140 1.358 . S
C141 H147 0.930 . S
C142 N140 1.400 . S
C142 C143 1.351 . S
C142 H159 0.930 . S
C143 N139 1.389 . S
C143 C142 1.351 . S
C143 H148 0.930 . S
O144 Cu138 1.974 . S
O144 C154 1.282 . S
C145 O146 1.261 . S
C145 O158 1.251 . S
O146 C145 1.261 . S
H147 C141 0.930 . S
H148 C143 0.930 . S
N149 Cu138 1.985 . S
N149 C151 1.335 . S
N149 C152 1.390 . S
N150 C151 1.345 . S
N150 C153 1.336 . S
C151 N149 1.335 . S
C151 N150 1.345 . S
C151 H156 0.930 . S
C152 N149 1.390 . S
C152 C153 1.346 . S
C152 H157 0.930 . S
C153 N150 1.336 . S
C153 C152 1.346 . S
C153 H160 0.929 . S
C154 O144 1.282 . S
C154 O155 1.216 . S
O155 C154 1.216 . S
H156 C151 0.930 . S
H157 C152 0.930 . S
O158 Cu138 1.959 . S
O158 C145 1.251 . S
H159 C142 0.930 . S
H160 C153 0.929 . S
Cu161 N162 1.999 . S
Cu161 O167 1.974 . S
Cu161 N172 1.985 . S
Cu161 O181 1.959 . S
N162 Cu161 1.999 . S
N162 C164 1.263 . S
N162 C166 1.389 . S
N163 C164 1.358 . S
N163 C165 1.400 . S
C164 N162 1.263 . S
C164 N163 1.358 . S
C164 H170 0.930 . S
C165 N163 1.400 . S
C165 C166 1.351 . S
C165 H182 0.930 . S
C166 N162 1.389 . S
C166 C165 1.351 . S
C166 H171 0.930 . S
O167 Cu161 1.974 . S
O167 C177 1.282 . S
C168 O169 1.261 . S
C168 O181 1.251 . S
O169 C168 1.261 . S
H170 C164 0.930 . S
H171 C166 0.930 . S
N172 Cu161 1.985 . S
N172 C174 1.335 . S
N172 C175 1.390 . S
N173 C174 1.345 . S
N173 C176 1.336 . S
C174 N172 1.335 . S
C174 N173 1.345 . S
C174 H179 0.930 . S
C175 N172 1.390 . S
C175 C176 1.346 . S
C175 H180 0.930 . S
C176 N173 1.336 . S
C176 C175 1.346 . S
C176 H183 0.929 . S
C177 O167 1.282 . S
C177 O178 1.216 . S
O178 C177 1.216 . S
H179 C174 0.930 . S
H180 C175 0.930 . S
O181 Cu161 1.959 . S
O181 C168 1.251 . S
H182 C165 0.930 . S
H183 C176 0.929 . S
Cu184 N185 1.999 . S
Cu184 O190 1.974 . S
Cu184 N195 1.985 . S
Cu184 O204 1.959 . S
N185 Cu184 1.999 . S
N185 C187 1.263 . S
N185 C189 1.389 . S
N186 C187 1.358 . S
N186 C188 1.400 . S
C187 N185 1.263 . S
C187 N186 1.358 . S
C187 H193 0.930 . S
C188 N186 1.400 . S
C188 C189 1.351 . S
C188 H205 0.930 . S
C189 N185 1.389 . S
C189 C188 1.351 . S
C189 H194 0.930 . S
O190 Cu184 1.974 . S
O190 C200 1.282 . S
C191 O192 1.261 . S
C191 O204 1.251 . S
O192 C191 1.261 . S
H193 C187 0.930 . S
H194 C189 0.930 . S
N195 Cu184 1.985 . S
N195 C197 1.335 . S
N195 C198 1.390 . S
N196 C197 1.345 . S
N196 C199 1.336 . S
C197 N195 1.335 . S
C197 N196 1.345 . S
C197 H202 0.930 . S
C198 N195 1.390 . S
C198 C199 1.346 . S
C198 H203 0.930 . S
C199 N196 1.336 . S
C199 C198 1.346 . S
C199 H206 0.929 . S
C200 O190 1.282 . S
C200 O201 1.216 . S
O201 C200 1.216 . S
H202 C197 0.930 . S
H203 C198 0.930 . S
O204 Cu184 1.959 . S
O204 C191 1.251 . S
H205 C188 0.930 . S
H206 C199 0.929 . S
Cu207 N208 1.999 . S
Cu207 O213 1.974 . S
Cu207 N218 1.985 . S
Cu207 O227 1.959 . S
N208 Cu207 1.999 . S
N208 C210 1.263 . S
N208 C212 1.389 . S
N209 C210 1.358 . S
N209 C211 1.400 . S
C210 N208 1.263 . S
C210 N209 1.358 . S
C210 H216 0.930 . S
C211 N209 1.400 . S
C211 C212 1.351 . S
C211 H228 0.930 . S
C212 N208 1.389 . S
C212 C211 1.351 . S
C212 H217 0.930 . S
O213 Cu207 1.974 . S
O213 C223 1.282 . S
C214 O215 1.261 . S
C214 O227 1.251 . S
O215 C214 1.261 . S
H216 C210 0.930 . S
H217 C212 0.930 . S
N218 Cu207 1.985 . S
N218 C220 1.335 . S
N218 C221 1.390 . S
N219 C220 1.345 . S
N219 C222 1.336 . S
C220 N218 1.335 . S
C220 N219 1.345 . S
C220 H225 0.930 . S
C221 N218 1.390 . S
C221 C222 1.346 . S
C221 H226 0.930 . S
C222 N219 1.336 . S
C222 C221 1.346 . S
C222 H229 0.929 . S
C223 O213 1.282 . S
C223 O224 1.216 . S
O224 C223 1.216 . S
H225 C220 0.930 . S
H226 C221 0.930 . S
O227 Cu207 1.959 . S
O227 C214 1.251 . S
H228 C211 0.930 . S
H229 C222 0.929 . S
Cu230 N231 1.999 . S
Cu230 O236 1.974 . S
Cu230 N241 1.985 . S
Cu230 O250 1.959 . S
N231 Cu230 1.999 . S
N231 C233 1.263 . S
N231 C235 1.389 . S
N232 C233 1.358 . S
N232 C234 1.400 . S
C233 N231 1.263 . S
C233 N232 1.358 . S
C233 H239 0.930 . S
C234 N232 1.400 . S
C234 C235 1.351 . S
C234 H251 0.930 . S
C235 N231 1.389 . S
C235 C234 1.351 . S
C235 H240 0.930 . S
O236 Cu230 1.974 . S
O236 C246 1.282 . S
C237 O238 1.261 . S
C237 O250 1.251 . S
O238 C237 1.261 . S
H239 C233 0.930 . S
H240 C235 0.930 . S
N241 Cu230 1.985 . S
N241 C243 1.335 . S
N241 C244 1.390 . S
N242 C243 1.345 . S
N242 C245 1.336 . S
C243 N241 1.335 . S
C243 N242 1.345 . S
C243 H248 0.930 . S
C244 N241 1.390 . S
C244 C245 1.346 . S
C244 H249 0.930 . S
C245 N242 1.336 . S
C245 C244 1.346 . S
C245 H252 0.929 . S
C246 O236 1.282 . S
C246 O247 1.216 . S
O247 C246 1.216 . S
H248 C243 0.930 . S
H249 C244 0.930 . S
O250 Cu230 1.959 . S
O250 C237 1.251 . S
H251 C234 0.930 . S
H252 C245 0.929 . S
Cu253 N254 1.999 . S
Cu253 O259 1.974 . S
Cu253 N264 1.985 . S
Cu253 O273 1.959 . S
N254 Cu253 1.999 . S
N254 C256 1.263 . S
N254 C258 1.389 . S
N255 C256 1.358 . S
N255 C257 1.400 . S
C256 N254 1.263 . S
C256 N255 1.358 . S
C256 H262 0.930 . S
C257 N255 1.400 . S
C257 C258 1.351 . S
C257 H274 0.930 . S
C258 N254 1.389 . S
C258 C257 1.351 . S
C258 H263 0.930 . S
O259 Cu253 1.974 . S
O259 C269 1.282 . S
C260 O261 1.261 . S
C260 O273 1.251 . S
O261 C260 1.261 . S
H262 C256 0.930 . S
H263 C258 0.930 . S
N264 Cu253 1.985 . S
N264 C266 1.335 . S
N264 C267 1.390 . S
N265 C266 1.345 . S
N265 C268 1.336 . S
C266 N264 1.335 . S
C266 N265 1.345 . S
C266 H271 0.930 . S
C267 N264 1.390 . S
C267 C268 1.346 . S
C267 H272 0.930 . S
C268 N265 1.336 . S
C268 C267 1.346 . S
C268 H275 0.929 . S
C269 O259 1.282 . S
C269 O270 1.216 . S
O270 C269 1.216 . S
H271 C266 0.930 . S
H272 C267 0.930 . S
O273 Cu253 1.959 . S
O273 C260 1.251 . S
H274 C257 0.930 . S
H275 C268 0.929 . S
Cu276 N277 1.999 . S
Cu276 O282 1.974 . S
Cu276 N287 1.985 . S
Cu276 O296 1.959 . S
N277 Cu276 1.999 . S
N277 C279 1.263 . S
N277 C281 1.389 . S
N278 C279 1.358 . S
N278 C280 1.400 . S
C279 N277 1.263 . S
C279 N278 1.358 . S
C279 H285 0.930 . S
C280 N278 1.400 . S
C280 C281 1.351 . S
C280 H297 0.930 . S
C281 N277 1.389 . S
C281 C280 1.351 . S
C281 H286 0.930 . S
O282 Cu276 1.974 . S
O282 C292 1.282 . S
C283 O284 1.261 . S
C283 O296 1.251 . S
O284 C283 1.261 . S
H285 C279 0.930 . S
H286 C281 0.930 . S
N287 Cu276 1.985 . S
N287 C289 1.335 . S
N287 C290 1.390 . S
N288 C289 1.345 . S
N288 C291 1.336 . S
C289 N287 1.335 . S
C289 N288 1.345 . S
C289 H294 0.930 . S
C290 N287 1.390 . S
C290 C291 1.346 . S
C290 H295 0.930 . S
C291 N288 1.336 . S
C291 C290 1.346 . S
C291 H298 0.929 . S
C292 O282 1.282 . S
C292 O293 1.216 . S
O293 C292 1.216 . S
H294 C289 0.930 . S
H295 C290 0.930 . S
O296 Cu276 1.959 . S
O296 C283 1.251 . S
H297 C280 0.930 . S
H298 C291 0.929 . S
Cu299 N300 1.999 . S
Cu299 O305 1.974 . S
Cu299 N310 1.985 . S
Cu299 O319 1.959 . S
N300 Cu299 1.999 . S
N300 C302 1.263 . S
N300 C304 1.389 . S
N301 C302 1.358 . S
N301 C303 1.400 . S
C302 N300 1.263 . S
C302 N301 1.358 . S
C302 H308 0.930 . S
C303 N301 1.400 . S
C303 C304 1.351 . S
C303 H320 0.930 . S
C304 N300 1.389 . S
C304 C303 1.351 . S
C304 H309 0.930 . S
O305 Cu299 1.974 . S
O305 C315 1.282 . S
C306 O307 1.261 . S
C306 O319 1.251 . S
O307 C306 1.261 . S
H308 C302 0.930 . S
H309 C304 0.930 . S
N310 Cu299 1.985 . S
N310 C312 1.335 . S
N310 C313 1.390 . S
N311 C312 1.345 . S
N311 C314 1.336 . S
C312 N310 1.335 . S
C312 N311 1.345 . S
C312 H317 0.930 . S
C313 N310 1.390 . S
C313 C314 1.346 . S
C313 H318 0.930 . S
C314 N311 1.336 . S
C314 C313 1.346 . S
C314 H321 0.929 . S
C315 O305 1.282 . S
C315 O316 1.216 . S
O316 C315 1.216 . S
H317 C312 0.930 . S
H318 C313 0.930 . S
O319 Cu299 1.959 . S
O319 C306 1.251 . S
H320 C303 0.930 . S
H321 C314 0.929 . S
Cu322 N323 1.999 . S
Cu322 O328 1.974 . S
Cu322 N333 1.985 . S
Cu322 O342 1.959 . S
N323 Cu322 1.999 . S
N323 C325 1.263 . S
N323 C327 1.389 . S
N324 C325 1.358 . S
N324 C326 1.400 . S
C325 N323 1.263 . S
C325 N324 1.358 . S
C325 H331 0.930 . S
C326 N324 1.400 . S
C326 C327 1.351 . S
C326 H343 0.930 . S
C327 N323 1.389 . S
C327 C326 1.351 . S
C327 H332 0.930 . S
O328 Cu322 1.974 . S
O328 C338 1.282 . S
C329 O330 1.261 . S
C329 O342 1.251 . S
O330 C329 1.261 . S
H331 C325 0.930 . S
H332 C327 0.930 . S
N333 Cu322 1.985 . S
N333 C335 1.335 . S
N333 C336 1.390 . S
N334 C335 1.345 . S
N334 C337 1.336 . S
C335 N333 1.335 . S
C335 N334 1.345 . S
C335 H340 0.930 . S
C336 N333 1.390 . S
C336 C337 1.346 . S
C336 H341 0.930 . S
C337 N334 1.336 . S
C337 C336 1.346 . S
C337 H344 0.929 . S
C338 O328 1.282 . S
C338 O339 1.216 . S
O339 C338 1.216 . S
H340 C335 0.930 . S
H341 C336 0.930 . S
O342 Cu322 1.959 . S
O342 C329 1.251 . S
H343 C326 0.930 . S
H344 C337 0.929 . S
Cu345 N346 1.999 . S
Cu345 O351 1.974 . S
Cu345 N356 1.985 . S
Cu345 O365 1.959 . S
N346 Cu345 1.999 . S
N346 C348 1.263 . S
N346 C350 1.389 . S
N347 C348 1.358 . S
N347 C349 1.400 . S
C348 N346 1.263 . S
C348 N347 1.358 . S
C348 H354 0.930 . S
C349 N347 1.400 . S
C349 C350 1.351 . S
C349 H366 0.930 . S
C350 N346 1.389 . S
C350 C349 1.351 . S
C350 H355 0.930 . S
O351 Cu345 1.974 . S
O351 C361 1.282 . S
C352 O353 1.261 . S
C352 O365 1.251 . S
O353 C352 1.261 . S
H354 C348 0.930 . S
H355 C350 0.930 . S
N356 Cu345 1.985 . S
N356 C358 1.335 . S
N356 C359 1.390 . S
N357 C358 1.345 . S
N357 C360 1.336 . S
C358 N356 1.335 . S
C358 N357 1.345 . S
C358 H363 0.930 . S
C359 N356 1.390 . S
C359 C360 1.346 . S
C359 H364 0.930 . S
C360 N357 1.336 . S
C360 C359 1.346 . S
C360 H367 0.929 . S
C361 O351 1.282 . S
C361 O362 1.216 . S
O362 C361 1.216 . S
H363 C358 0.930 . S
H364 C359 0.930 . S
O365 Cu345 1.959 . S
O365 C352 1.251 . S
H366 C349 0.930 . S
H367 C360 0.929 . S
Cu368 N369 1.999 . S
Cu368 O374 1.974 . S
Cu368 N379 1.985 . S
Cu368 O388 1.959 . S
N369 Cu368 1.999 . S
N369 C371 1.263 . S
N369 C373 1.389 . S
N370 C371 1.358 . S
N370 C372 1.400 . S
C371 N369 1.263 . S
C371 N370 1.358 . S
C371 H377 0.930 . S
C372 N370 1.400 . S
C372 C373 1.351 . S
C372 H389 0.930 . S
C373 N369 1.389 . S
C373 C372 1.351 . S
C373 H378 0.930 . S
O374 Cu368 1.974 . S
O374 C384 1.282 . S
C375 O376 1.261 . S
C375 O388 1.251 . S
O376 C375 1.261 . S
H377 C371 0.930 . S
H378 C373 0.930 . S
N379 Cu368 1.985 . S
N379 C381 1.335 . S
N379 C382 1.390 . S
N380 C381 1.345 . S
N380 C383 1.336 . S
C381 N379 1.335 . S
C381 N380 1.345 . S
C381 H386 0.930 . S
C382 N379 1.390 . S
C382 C383 1.346 . S
C382 H387 0.930 . S
C383 N380 1.336 . S
C383 C382 1.346 . S
C383 H390 0.929 . S
C384 O374 1.282 . S
C384 O385 1.216 . S
O385 C384 1.216 . S
H386 C381 0.930 . S
H387 C382 0.930 . S
O388 Cu368 1.959 . S
O388 C375 1.251 . S
H389 C372 0.930 . S
H390 C383 0.929 . S
Cu391 N392 1.999 . S
Cu391 O397 1.974 . S
Cu391 N402 1.985 . S
Cu391 O411 1.959 . S
N392 Cu391 1.999 . S
N392 C394 1.263 . S
N392 C396 1.389 . S
N393 C394 1.358 . S
N393 C395 1.400 . S
C394 N392 1.263 . S
C394 N393 1.358 . S
C394 H400 0.930 . S
C395 N393 1.400 . S
C395 C396 1.351 . S
C395 H412 0.930 . S
C396 N392 1.389 . S
C396 C395 1.351 . S
C396 H401 0.930 . S
O397 Cu391 1.974 . S
O397 C407 1.282 . S
C398 O399 1.261 . S
C398 O411 1.251 . S
O399 C398 1.261 . S
H400 C394 0.930 . S
H401 C396 0.930 . S
N402 Cu391 1.985 . S
N402 C404 1.335 . S
N402 C405 1.390 . S
N403 C404 1.345 . S
N403 C406 1.336 . S
C404 N402 1.335 . S
C404 N403 1.345 . S
C404 H409 0.930 . S
C405 N402 1.390 . S
C405 C406 1.346 . S
C405 H410 0.930 . S
C406 N403 1.336 . S
C406 C405 1.346 . S
C406 H413 0.929 . S
C407 O397 1.282 . S
C407 O408 1.216 . S
O408 C407 1.216 . S
H409 C404 0.930 . S
H410 C405 0.930 . S
O411 Cu391 1.959 . S
O411 C398 1.251 . S
H412 C395 0.930 . S
H413 C406 0.929 . S
H414 C422 0.929 . S
H415 C424 0.930 . S
H416 C426 0.930 . S
H417 C429 0.929 . S
H418 C432 0.930 . S
H419 C434 0.960 . S
H420 C434 0.960 . S
H421 C434 0.960 . S
C422 H414 0.929 . S
C422 C423 1.377 1_455 S
C422 C424 1.384 . S
C423 C422 1.377 1_655 S
C423 C429 1.390 . S
C424 H415 0.930 . S
C424 C422 1.384 . S
C424 C425 1.370 . S
C425 C424 1.370 . S
C425 C426 1.401 1_455 S
C425 C430 1.490 . S
C426 H416 0.930 . S
C426 C425 1.401 1_655 S
C426 C429 1.386 . S
H427 C443 0.930 1_655 S
H428 C444 0.931 . S
C429 H417 0.929 . S
C429 C423 1.390 . S
C429 C426 1.386 . S
C430 C425 1.490 . S
C430 C432 1.395 1_455 S
C430 C433 1.403 . S
H431 C437 0.930 . S
C432 H418 0.930 . S
C432 C430 1.395 1_655 S
C432 C435 1.403 . S
C433 C430 1.403 . S
C433 C434 1.524 . S
C433 C437 1.400 . S
C434 H419 0.960 . S
C434 H420 0.960 . S
C434 H421 0.960 . S
C434 C433 1.524 . S
C435 C432 1.403 . S
C435 C436 1.392 1_655 S
C435 C439 1.495 . S
C436 C435 1.392 1_455 S
C436 C437 1.385 . S
C436 C438 1.478 . S
C437 H431 0.930 . S
C437 C433 1.400 . S
C437 C436 1.385 . S
C438 C436 1.478 . S
C438 C440 1.381 . S
C438 C444 1.383 1_455 S
C439 C435 1.495 . S
C439 H445 0.959 . S
C439 H446 0.961 . S
C439 H447 0.960 . S
C440 C438 1.381 . S
C440 C441 1.394 . S
C440 H448 0.930 . S
C441 C440 1.394 . S
C441 C442 1.383 . S
C441 H449 0.929 . S
C442 C441 1.383 . S
C442 C443 1.377 . S
C443 H427 0.930 1_455 S
C443 C442 1.377 . S
C443 C444 1.379 1_455 S
C444 H428 0.931 . S
C444 C438 1.383 1_655 S
C444 C443 1.379 1_655 S
H445 C439 0.959 . S
H446 C439 0.961 . S
H447 C439 0.960 . S
H448 C440 0.930 . S
H449 C441 0.929 . S
H450 C458 0.929 . S
H451 C460 0.930 . S
H452 C462 0.930 . S
H453 C465 0.929 . S
H454 C468 0.930 . S
H455 C470 0.960 . S
H456 C470 0.960 . S
H457 C470 0.960 . S
C458 H450 0.929 . S
C458 C459 1.377 . S
C458 C460 1.384 . S
C459 C458 1.377 . S
C459 C465 1.390 . S
C460 H451 0.930 . S
C460 C458 1.384 . S
C460 C461 1.372 . S
C461 C460 1.372 . S
C461 C462 1.400 . S
C461 C466 1.490 . S
C462 H452 0.930 . S
C462 C461 1.400 . S
C462 C465 1.386 . S
H463 C479 0.930 . S
H464 C480 0.931 . S
C465 H453 0.929 . S
C465 C459 1.390 . S
C465 C462 1.386 . S
C466 C461 1.490 . S
C466 C468 1.395 . S
C466 C469 1.403 . S
H467 C473 0.930 . S
C468 H454 0.930 . S
C468 C466 1.395 . S
C468 C471 1.403 . S
C469 C466 1.403 . S
C469 C470 1.524 . S
C469 C473 1.400 . S
C470 H455 0.960 . S
C470 H456 0.960 . S
C470 H457 0.960 . S
C470 C469 1.524 . S
C471 C468 1.403 . S
C471 C472 1.392 . S
C471 C475 1.495 . S
C472 C471 1.392 . S
C472 C473 1.385 . S
C472 C474 1.478 . S
C473 H467 0.930 . S
C473 C469 1.400 . S
C473 C472 1.385 . S
C474 C472 1.478 . S
C474 C476 1.381 . S
C474 C480 1.383 . S
C475 C471 1.495 . S
C475 H481 0.959 . S
C475 H482 0.961 . S
C475 H483 0.960 . S
C476 C474 1.381 . S
C476 C477 1.394 . S
C476 H484 0.930 . S
C477 C476 1.394 . S
C477 C478 1.383 . S
C477 H485 0.929 . S
C478 C477 1.383 . S
C478 C479 1.377 . S
C479 H463 0.930 . S
C479 C478 1.377 . S
C479 C480 1.379 . S
C480 H464 0.931 . S
C480 C474 1.383 . S
C480 C479 1.379 . S
H481 C475 0.959 . S
H482 C475 0.961 . S
H483 C475 0.960 . S
H484 C476 0.930 . S
H485 C477 0.929 . S
H486 C494 0.929 1_565 S
H487 C496 0.930 1_565 S
H488 C498 0.930 . S
H489 C501 0.929 . S
H490 C504 0.930 . S
H491 C506 0.960 . S
H492 C506 0.960 . S
H493 C506 0.960 . S
C494 H486 0.929 1_545 S
C494 C495 1.377 . S
C494 C496 1.384 . S
C495 C494 1.377 . S
C495 C501 1.390 . S
C496 H487 0.930 1_545 S
C496 C494 1.384 . S
C496 C497 1.372 . S
C497 C496 1.372 . S
C497 C498 1.400 . S
C497 C502 1.490 . S
C498 H488 0.930 . S
C498 C497 1.400 . S
C498 C501 1.386 . S
H499 C515 0.930 . S
H500 C516 0.931 . S
C501 H489 0.929 . S
C501 C495 1.390 . S
C501 C498 1.386 . S
C502 C497 1.490 . S
C502 C504 1.395 1_545 S
C502 C505 1.403 . S
H503 C509 0.930 . S
C504 H490 0.930 . S
C504 C502 1.395 1_565 S
C504 C507 1.403 . S
C505 C502 1.403 . S
C505 C506 1.524 . S
C505 C509 1.400 . S
C506 H491 0.960 . S
C506 H492 0.960 . S
C506 H493 0.960 . S
C506 C505 1.524 . S
C507 C504 1.403 . S
C507 C508 1.392 1_565 S
C507 C511 1.495 . S
C508 C507 1.392 1_545 S
C508 C509 1.385 . S
C508 C510 1.478 . S
C509 H503 0.930 . S
C509 C505 1.400 . S
C509 C508 1.385 . S
C510 C508 1.478 . S
C510 C512 1.381 . S
C510 C516 1.383 . S
C511 C507 1.495 . S
C511 H517 0.959 . S
C511 H518 0.961 . S
C511 H519 0.960 . S
C512 C510 1.381 . S
C512 C513 1.394 . S
C512 H520 0.930 . S
C513 C512 1.394 . S
C513 C514 1.383 . S
C513 H521 0.929 . S
C514 C513 1.383 . S
C514 C515 1.377 . S
C515 H499 0.930 . S
C515 C514 1.377 . S
C515 C516 1.379 . S
C516 H500 0.931 . S
C516 C510 1.383 . S
C516 C515 1.379 . S
H517 C511 0.959 . S
H518 C511 0.961 . S
H519 C511 0.960 . S
H520 C512 0.930 . S
H521 C513 0.929 . S
H522 C530 0.929 . S
H523 C532 0.930 . S
H524 C534 0.930 . S
H525 C537 0.929 . S
H526 C540 0.930 . S
H527 C542 0.960 . S
H528 C542 0.960 . S
H529 C542 0.960 . S
C530 H522 0.929 . S
C530 C531 1.377 1_455 S
C530 C532 1.384 . S
C531 C530 1.377 1_655 S
C531 C537 1.390 . S
C532 H523 0.930 . S
C532 C530 1.384 . S
C532 C533 1.372 . S
C533 C532 1.372 . S
C533 C534 1.400 1_455 S
C533 C538 1.490 . S
C534 H524 0.930 . S
C534 C533 1.400 1_655 S
C534 C537 1.386 . S
H535 C551 0.929 . S
H536 C552 0.931 . S
C537 H525 0.929 . S
C537 C531 1.390 . S
C537 C534 1.386 . S
C538 C533 1.490 . S
C538 C540 1.395 1_455 S
C538 C541 1.403 . S
H539 C545 0.930 . S
C540 H526 0.930 . S
C540 C538 1.395 1_655 S
C540 C543 1.403 . S
C541 C538 1.403 . S
C541 C542 1.524 . S
C541 C545 1.400 . S
C542 H527 0.960 . S
C542 H528 0.960 . S
C542 H529 0.960 . S
C542 C541 1.524 . S
C543 C540 1.403 . S
C543 C544 1.392 1_655 S
C543 C547 1.495 . S
C544 C543 1.392 1_455 S
C544 C545 1.385 . S
C544 C546 1.478 . S
C545 H539 0.930 . S
C545 C541 1.400 . S
C545 C544 1.385 . S
C546 C544 1.478 . S
C546 C548 1.381 . S
C546 C552 1.383 1_455 S
C547 C543 1.495 . S
C547 H553 0.959 . S
C547 H554 0.961 . S
C547 H555 0.960 . S
C548 C546 1.381 . S
C548 C549 1.394 . S
C548 H556 0.930 . S
C549 C548 1.394 . S
C549 C550 1.383 . S
C549 H557 0.929 . S
C550 C549 1.383 . S
C550 C551 1.376 1_455 S
C551 H535 0.929 . S
C551 C550 1.376 1_655 S
C551 C552 1.380 . S
C552 H536 0.931 . S
C552 C546 1.383 1_655 S
C552 C551 1.380 . S
H553 C547 0.959 . S
H554 C547 0.961 . S
H555 C547 0.960 . S
H556 C548 0.930 . S
H557 C549 0.929 . S
H558 C566 0.929 . S
H559 C568 0.930 . S
H560 C570 0.930 . S
H561 C573 0.929 . S
H562 C576 0.930 . S
H563 C578 0.960 . S
H564 C578 0.960 . S
H565 C578 0.960 . S
C566 H558 0.929 . S
C566 C567 1.377 . S
C566 C568 1.384 . S
C567 C566 1.377 . S
C567 C573 1.390 . S
C568 H559 0.930 . S
C568 C566 1.384 . S
C568 C569 1.372 . S
C569 C568 1.372 . S
C569 C570 1.400 . S
C569 C574 1.490 . S
C570 H560 0.930 . S
C570 C569 1.400 . S
C570 C573 1.386 . S
H571 C587 0.930 . S
H572 C588 0.931 . S
C573 H561 0.929 . S
C573 C567 1.390 . S
C573 C570 1.386 . S
C574 C569 1.490 . S
C574 C576 1.395 . S
C574 C577 1.403 . S
H575 C581 0.930 . S
C576 H562 0.930 . S
C576 C574 1.395 . S
C576 C579 1.403 . S
C577 C574 1.403 . S
C577 C578 1.524 . S
C577 C581 1.400 . S
C578 H563 0.960 . S
C578 H564 0.960 . S
C578 H565 0.960 . S
C578 C577 1.524 . S
C579 C576 1.403 . S
C579 C580 1.392 . S
C579 C583 1.495 . S
C580 C579 1.392 . S
C580 C581 1.385 . S
C580 C582 1.478 . S
C581 H575 0.930 . S
C581 C577 1.400 . S
C581 C580 1.385 . S
C582 C580 1.478 . S
C582 C584 1.381 . S
C582 C588 1.383 . S
C583 C579 1.495 . S
C583 H589 0.959 . S
C583 H590 0.961 . S
C583 H591 0.960 . S
C584 C582 1.381 . S
C584 C585 1.394 . S
C584 H592 0.930 . S
C585 C584 1.394 . S
C585 C586 1.383 . S
C585 H593 0.929 . S
C586 C585 1.383 . S
C586 C587 1.377 . S
C587 H571 0.930 . S
C587 C586 1.377 . S
C587 C588 1.379 . S
C588 H572 0.931 . S
C588 C582 1.383 . S
C588 C587 1.379 . S
H589 C583 0.959 . S
H590 C583 0.961 . S
H591 C583 0.960 . S
H592 C584 0.930 . S
H593 C585 0.929 . S
H594 C602 0.929 . S
H595 C604 0.930 . S
H596 C606 0.930 . S
H597 C609 0.929 . S
H598 C612 0.930 . S
H599 C614 0.960 . S
H600 C614 0.960 . S
H601 C614 0.960 . S
C602 H594 0.929 . S
C602 C603 1.377 . S
C602 C604 1.384 . S
C603 C602 1.377 . S
C603 C609 1.390 1_545 S
C604 H595 0.930 . S
C604 C602 1.384 . S
C604 C605 1.372 . S
C605 C604 1.372 . S
C605 C606 1.400 1_545 S
C605 C610 1.490 . S
C606 H596 0.930 . S
C606 C605 1.400 1_565 S
C606 C609 1.386 . S
H607 C623 0.930 1_565 S
H608 C624 0.931 1_565 S
C609 H597 0.929 . S
C609 C603 1.390 1_565 S
C609 C606 1.386 . S
C610 C605 1.490 . S
C610 C612 1.395 . S
C610 C613 1.403 . S
H611 C617 0.930 1_565 S
C612 H598 0.930 . S
C612 C610 1.395 . S
C612 C615 1.403 . S
C613 C610 1.403 . S
C613 C614 1.524 1_545 S
C613 C617 1.400 . S
C614 H599 0.960 . S
C614 H600 0.960 . S
C614 H601 0.960 . S
C614 C613 1.524 1_565 S
C615 C612 1.403 . S
C615 C616 1.392 . S
C615 C619 1.495 . S
C616 C615 1.392 . S
C616 C617 1.385 . S
C616 C618 1.478 . S
C617 H611 0.930 1_545 S
C617 C613 1.400 . S
C617 C616 1.385 . S
C618 C616 1.478 . S
C618 C620 1.381 . S
C618 C624 1.383 . S
C619 C615 1.495 . S
C619 H625 0.959 . S
C619 H626 0.961 . S
C619 H627 0.960 . S
C620 C618 1.381 . S
C620 C621 1.394 . S
C620 H628 0.930 . S
C621 C620 1.394 . S
C621 C622 1.383 . S
C621 H629 0.929 . S
C622 C621 1.383 . S
C622 C623 1.377 . S
C623 H607 0.930 1_545 S
C623 C622 1.377 . S
C623 C624 1.379 . S
C624 H608 0.931 1_545 S
C624 C618 1.383 . S
C624 C623 1.379 . S
H625 C619 0.959 . S
H626 C619 0.961 . S
H627 C619 0.960 . S
H628 C620 0.930 . S
H629 C621 0.929 . S
H630 C638 0.929 . S
H631 C640 0.930 . S
H632 C642 0.930 . S
H633 C645 0.929 . S
H634 C648 0.930 . S
H635 C650 0.960 . S
H636 C650 0.960 . S
H637 C650 0.960 . S
C638 H630 0.929 . S
C638 C639 1.377 . S
C638 C640 1.384 . S
C639 C638 1.377 . S
C639 C645 1.390 . S
C640 H631 0.930 . S
C640 C638 1.384 . S
C640 C641 1.372 . S
C641 C640 1.372 . S
C641 C642 1.400 . S
C641 C646 1.490 . S
C642 H632 0.930 . S
C642 C641 1.400 . S
C642 C645 1.386 . S
H643 C659 0.930 . S
H644 C660 0.931 . S
C645 H633 0.929 . S
C645 C639 1.390 . S
C645 C642 1.386 . S
C646 C641 1.490 . S
C646 C648 1.395 . S
C646 C649 1.403 . S
H647 C653 0.930 . S
C648 H634 0.930 . S
C648 C646 1.395 . S
C648 C651 1.403 . S
C649 C646 1.403 . S
C649 C650 1.524 . S
C649 C653 1.400 . S
C650 H635 0.960 . S
C650 H636 0.960 . S
C650 H637 0.960 . S
C650 C649 1.524 . S
C651 C648 1.403 . S
C651 C652 1.392 . S
C651 C655 1.495 . S
C652 C651 1.392 . S
C652 C653 1.385 . S
C652 C654 1.478 . S
C653 H647 0.930 . S
C653 C649 1.400 . S
C653 C652 1.385 . S
C654 C652 1.478 . S
C654 C656 1.381 . S
C654 C660 1.383 . S
C655 C651 1.495 . S
C655 H661 0.959 . S
C655 H662 0.961 . S
C655 H663 0.960 . S
C656 C654 1.381 . S
C656 C657 1.394 . S
C656 H664 0.930 . S
C657 C656 1.394 . S
C657 C658 1.383 . S
C657 H665 0.929 . S
C658 C657 1.383 . S
C658 C659 1.377 . S
C659 H643 0.930 . S
C659 C658 1.377 . S
C659 C660 1.379 . S
C660 H644 0.931 . S
C660 C654 1.383 . S
C660 C659 1.379 . S
H661 C655 0.959 . S
H662 C655 0.961 . S
H663 C655 0.960 . S
H664 C656 0.930 . S
H665 C657 0.929 . S
H666 C674 0.929 . S
H667 C676 0.930 . S
H668 C678 0.930 . S
H669 C681 0.929 . S
H670 C684 0.930 . S
H671 C686 0.960 . S
H672 C686 0.960 . S
H673 C686 0.960 . S
C674 H666 0.929 . S
C674 C675 1.377 . S
C674 C676 1.384 . S
C675 C674 1.377 . S
C675 C681 1.390 . S
C676 H667 0.930 . S
C676 C674 1.384 . S
C676 C677 1.372 . S
C677 C676 1.372 . S
C677 C678 1.400 . S
C677 C682 1.490 . S
C678 H668 0.930 . S
C678 C677 1.400 . S
C678 C681 1.386 . S
H679 C695 0.930 . S
H680 C696 0.931 . S
C681 H669 0.929 . S
C681 C675 1.390 . S
C681 C678 1.386 . S
C682 C677 1.490 . S
C682 C684 1.395 . S
C682 C685 1.403 . S
H683 C689 0.930 . S
C684 H670 0.930 . S
C684 C682 1.395 . S
C684 C687 1.403 . S
C685 C682 1.403 . S
C685 C686 1.524 . S
C685 C689 1.400 . S
C686 H671 0.960 . S
C686 H672 0.960 . S
C686 H673 0.960 . S
C686 C685 1.524 . S
C687 C684 1.403 . S
C687 C688 1.392 . S
C687 C691 1.495 . S
C688 C687 1.392 . S
C688 C689 1.385 . S
C688 C690 1.478 . S
C689 H683 0.930 . S
C689 C685 1.400 . S
C689 C688 1.385 . S
C690 C688 1.478 . S
C690 C692 1.381 . S
C690 C696 1.383 . S
C691 C687 1.495 . S
C691 H697 0.959 . S
C691 H698 0.961 . S
C691 H699 0.960 . S
C692 C690 1.381 . S
C692 C693 1.394 . S
C692 H700 0.930 . S
C693 C692 1.394 . S
C693 C694 1.383 . S
C693 H701 0.929 . S
C694 C693 1.383 . S
C694 C695 1.377 . S
C695 H679 0.930 . S
C695 C694 1.377 . S
C695 C696 1.379 . S
C696 H680 0.931 . S
C696 C690 1.383 . S
C696 C695 1.379 . S
H697 C691 0.959 . S
H698 C691 0.961 . S
H699 C691 0.960 . S
H700 C692 0.930 . S
H701 C693 0.929 . S
H702 C710 0.929 . S
H703 C712 0.930 . S
H704 C714 0.930 . S
H705 C717 0.929 . S
H706 C720 0.930 . S
H707 C722 0.960 . S
H708 C722 0.960 . S
H709 C722 0.960 . S
C710 H702 0.929 . S
C710 C711 1.377 . S
C710 C712 1.384 . S
C711 C710 1.377 . S
C711 C717 1.390 . S
C712 H703 0.930 . S
C712 C710 1.384 . S
C712 C713 1.372 . S
C713 C712 1.372 . S
C713 C714 1.400 . S
C713 C718 1.490 . S
C714 H704 0.930 . S
C714 C713 1.400 . S
C714 C717 1.386 . S
H715 C731 0.930 . S
H716 C732 0.931 . S
C717 H705 0.929 . S
C717 C711 1.390 . S
C717 C714 1.386 . S
C718 C713 1.490 . S
C718 C720 1.395 . S
C718 C721 1.403 . S
H719 C725 0.930 . S
C720 H706 0.930 . S
C720 C718 1.395 . S
C720 C723 1.403 . S
C721 C718 1.403 . S
C721 C722 1.524 . S
C721 C725 1.400 . S
C722 H707 0.960 . S
C722 H708 0.960 . S
C722 H709 0.960 . S
C722 C721 1.524 . S
C723 C720 1.403 . S
C723 C724 1.392 . S
C723 C727 1.495 . S
C724 C723 1.392 . S
C724 C725 1.385 . S
C724 C726 1.478 . S
C725 H719 0.930 . S
C725 C721 1.400 . S
C725 C724 1.385 . S
C726 C724 1.478 . S
C726 C728 1.381 . S
C726 C732 1.383 . S
C727 C723 1.495 . S
C727 H733 0.959 . S
C727 H734 0.961 . S
C727 H735 0.960 . S
C728 C726 1.381 . S
C728 C729 1.394 . S
C728 H736 0.930 . S
C729 C728 1.394 . S
C729 C730 1.383 . S
C729 H737 0.929 . S
C730 C729 1.383 . S
C730 C731 1.377 . S
C731 H715 0.930 . S
C731 C730 1.377 . S
C731 C732 1.379 . S
C732 H716 0.931 . S
C732 C726 1.383 . S
C732 C731 1.379 . S
H733 C727 0.959 . S
H734 C727 0.961 . S
H735 C727 0.960 . S
H736 C728 0.930 . S
H737 C729 0.929 . S
H738 C746 0.929 . S
H739 C748 0.930 . S
H740 C750 0.930 . S
H741 C753 0.929 . S
H742 C756 0.930 . S
H743 C758 0.960 . S
H744 C758 0.960 . S
H745 C758 0.960 . S
C746 H738 0.929 . S
C746 C747 1.377 . S
C746 C748 1.384 . S
C747 C746 1.377 . S
C747 C753 1.390 . S
C748 H739 0.930 . S
C748 C746 1.384 . S
C748 C749 1.372 . S
C749 C748 1.372 . S
C749 C750 1.400 . S
C749 C754 1.490 . S
C750 H740 0.930 . S
C750 C749 1.400 . S
C750 C753 1.386 . S
H751 C767 0.930 . S
H752 C768 0.931 . S
C753 H741 0.929 . S
C753 C747 1.390 . S
C753 C750 1.386 . S
C754 C749 1.490 . S
C754 C756 1.395 . S
C754 C757 1.403 . S
H755 C761 0.930 . S
C756 H742 0.930 . S
C756 C754 1.395 . S
C756 C759 1.403 . S
C757 C754 1.403 . S
C757 C758 1.524 . S
C757 C761 1.400 . S
C758 H743 0.960 . S
C758 H744 0.960 . S
C758 H745 0.960 . S
C758 C757 1.524 . S
C759 C756 1.403 . S
C759 C760 1.392 . S
C759 C763 1.495 . S
C760 C759 1.392 . S
C760 C761 1.385 . S
C760 C762 1.478 . S
C761 H755 0.930 . S
C761 C757 1.400 . S
C761 C760 1.385 . S
C762 C760 1.478 . S
C762 C764 1.381 . S
C762 C768 1.383 . S
C763 C759 1.495 . S
C763 H769 0.959 . S
C763 H770 0.961 . S
C763 H771 0.960 . S
C764 C762 1.381 . S
C764 C765 1.394 1_554 S
C764 H772 0.930 . S
C765 C764 1.394 1_556 S
C765 C766 1.383 . S
C765 H773 0.929 . S
C766 C765 1.383 . S
C766 C767 1.377 . S
C767 H751 0.930 . S
C767 C766 1.377 . S
C767 C768 1.379 1_556 S
C768 H752 0.931 . S
C768 C762 1.383 . S
C768 C767 1.379 1_554 S
H769 C763 0.959 . S
H770 C763 0.961 . S
H771 C763 0.960 . S
H772 C764 0.930 . S
H773 C765 0.929 . S
H774 C782 0.929 . S
H775 C784 0.930 . S
H776 C786 0.930 . S
H777 C789 0.929 . S
H778 C792 0.930 . S
H779 C794 0.960 . S
H780 C794 0.960 . S
H781 C794 0.960 . S
C782 H774 0.929 . S
C782 C783 1.377 . S
C782 C784 1.384 1_556 S
C783 C782 1.377 . S
C783 C789 1.390 . S
C784 H775 0.930 . S
C784 C782 1.384 1_554 S
C784 C785 1.372 . S
C785 C784 1.372 . S
C785 C786 1.400 . S
C785 C790 1.490 . S
C786 H776 0.930 . S
C786 C785 1.400 . S
C786 C789 1.386 1_554 S
H787 C803 0.930 . S
H788 C804 0.931 . S
C789 H777 0.929 . S
C789 C783 1.390 . S
C789 C786 1.386 1_556 S
C790 C785 1.490 . S
C790 C792 1.395 . S
C790 C793 1.403 . S
H791 C797 0.930 . S
C792 H778 0.930 . S
C792 C790 1.395 . S
C792 C795 1.403 . S
C793 C790 1.403 . S
C793 C794 1.524 . S
C793 C797 1.400 . S
C794 H779 0.960 . S
C794 H780 0.960 . S
C794 H781 0.960 . S
C794 C793 1.524 . S
C795 C792 1.403 . S
C795 C796 1.392 . S
C795 C799 1.495 . S
C796 C795 1.392 . S
C796 C797 1.385 . S
C796 C798 1.478 . S
C797 H791 0.930 . S
C797 C793 1.400 . S
C797 C796 1.385 . S
C798 C796 1.478 . S
C798 C800 1.381 . S
C798 C804 1.383 . S
C799 C795 1.495 . S
C799 H805 0.959 . S
C799 H806 0.961 . S
C799 H807 0.960 . S
C800 C798 1.381 . S
C800 C801 1.394 . S
C800 H808 0.930 . S
C801 C800 1.394 . S
C801 C802 1.383 . S
C801 H809 0.929 . S
C802 C801 1.383 . S
C802 C803 1.377 . S
C803 H787 0.930 . S
C803 C802 1.377 . S
C803 C804 1.379 . S
C804 H788 0.931 . S
C804 C798 1.383 . S
C804 C803 1.379 . S
H805 C799 0.959 . S
H806 C799 0.961 . S
H807 C799 0.960 . S
H808 C800 0.930 . S
H809 C801 0.929 . S
H810 C818 0.929 . S
H811 C820 0.930 . S
H812 C822 0.930 . S
H813 C825 0.929 . S
H814 C828 0.930 . S
H815 C830 0.960 . S
H816 C830 0.960 . S
H817 C830 0.960 . S
C818 H810 0.929 . S
C818 C819 1.377 . S
C818 C820 1.384 1_556 S
C819 C818 1.377 . S
C819 C825 1.390 . S
C820 H811 0.930 . S
C820 C818 1.384 1_554 S
C820 C821 1.372 . S
C821 C820 1.372 . S
C821 C822 1.400 . S
C821 C826 1.490 . S
C822 H812 0.930 . S
C822 C821 1.400 . S
C822 C825 1.386 1_554 S
H823 C839 0.930 . S
H824 C840 0.931 . S
C825 H813 0.929 . S
C825 C819 1.390 . S
C825 C822 1.386 1_556 S
C826 C821 1.490 . S
C826 C828 1.395 . S
C826 C829 1.403 . S
H827 C833 0.930 . S
C828 H814 0.930 . S
C828 C826 1.395 . S
C828 C831 1.403 . S
C829 C826 1.403 . S
C829 C830 1.524 . S
C829 C833 1.400 . S
C830 H815 0.960 . S
C830 H816 0.960 . S
C830 H817 0.960 . S
C830 C829 1.524 . S
C831 C828 1.403 . S
C831 C832 1.392 . S
C831 C835 1.495 . S
C832 C831 1.392 . S
C832 C833 1.385 . S
C832 C834 1.478 . S
C833 H827 0.930 . S
C833 C829 1.400 . S
C833 C832 1.385 . S
C834 C832 1.478 . S
C834 C836 1.381 . S
C834 C840 1.383 . S
C835 C831 1.495 . S
C835 H841 0.959 . S
C835 H842 0.961 . S
C835 H843 0.960 . S
C836 C834 1.381 . S
C836 C837 1.394 . S
C836 H844 0.930 . S
C837 C836 1.394 . S
C837 C838 1.383 . S
C837 H845 0.929 . S
C838 C837 1.383 . S
C838 C839 1.377 . S
C839 H823 0.930 . S
C839 C838 1.377 . S
C839 C840 1.379 . S
C840 H824 0.931 . S
C840 C834 1.383 . S
C840 C839 1.379 . S
H841 C835 0.959 . S
H842 C835 0.961 . S
H843 C835 0.960 . S
H844 C836 0.930 . S
H845 C837 0.929 . S
H846 C854 0.929 . S
H847 C856 0.930 1_556 S
H848 C858 0.916 1_556 S
H849 C861 0.929 . S
H850 C864 0.930 . S
H851 C866 0.960 . S
H852 C866 0.960 . S
H853 C866 0.960 . S
C854 H846 0.929 . S
C854 C855 1.377 . S
C854 C856 1.384 . S
C855 C854 1.377 . S
C855 C861 1.390 . S
C856 H847 0.930 1_554 S
C856 C854 1.384 . S
C856 C857 1.372 1_554 S
C857 C856 1.372 1_556 S
C857 C858 1.400 1_556 S
C857 C862 1.490 . S
C858 H848 0.916 1_554 S
C858 C857 1.400 1_554 S
C858 C861 1.386 . S
H859 C875 0.930 . S
H860 C876 0.931 . S
C861 H849 0.929 . S
C861 C855 1.390 . S
C861 C858 1.386 . S
C862 C857 1.490 . S
C862 C864 1.395 . S
C862 C865 1.403 . S
H863 C869 0.930 . S
C864 H850 0.930 . S
C864 C862 1.395 . S
C864 C867 1.403 . S
C865 C862 1.403 . S
C865 C866 1.524 . S
C865 C869 1.400 . S
C866 H851 0.960 . S
C866 H852 0.960 . S
C866 H853 0.960 . S
C866 C865 1.524 . S
C867 C864 1.403 . S
C867 C868 1.392 . S
C867 C871 1.495 . S
C868 C867 1.392 . S
C868 C869 1.385 . S
C868 C870 1.478 . S
C869 H863 0.930 . S
C869 C865 1.400 . S
C869 C868 1.385 . S
C870 C868 1.478 . S
C870 C872 1.381 . S
C870 C876 1.383 . S
C871 C867 1.495 . S
C871 H877 0.959 . S
C871 H878 0.961 . S
C871 H879 0.960 . S
C872 C870 1.381 . S
C872 C873 1.394 . S
C872 H880 0.930 . S
C873 C872 1.394 . S
C873 C874 1.383 . S
C873 H881 0.929 . S
C874 C873 1.383 . S
C874 C875 1.377 . S
C875 H859 0.930 . S
C875 C874 1.377 . S
C875 C876 1.379 . S
C876 H860 0.931 . S
C876 C870 1.383 . S
C876 C875 1.379 . S
H877 C871 0.959 . S
H878 C871 0.961 . S
H879 C871 0.960 . S
H880 C872 0.930 . S
H881 C873 0.929 . S
H882 C890 0.929 . S
H883 C892 0.930 . S
H884 C894 0.930 . S
H885 C897 0.929 . S
H886 C900 0.930 . S
H887 C902 0.960 . S
H888 C902 0.960 . S
H889 C902 0.960 . S
C890 H882 0.929 . S
C890 C891 1.377 . S
C890 C892 1.384 . S
C891 C890 1.377 . S
C891 C897 1.390 . S
C892 H883 0.930 . S
C892 C890 1.384 . S
C892 C893 1.372 . S
C893 C892 1.372 . S
C893 C894 1.400 . S
C893 C898 1.490 . S
C894 H884 0.930 . S
C894 C893 1.400 . S
C894 C897 1.386 . S
H895 C911 0.930 . S
H896 C912 0.931 . S
C897 H885 0.929 . S
C897 C891 1.390 . S
C897 C894 1.386 . S
C898 C893 1.490 . S
C898 C900 1.395 . S
C898 C901 1.403 . S
H899 C905 0.930 . S
C900 H886 0.930 . S
C900 C898 1.395 . S
C900 C903 1.403 . S
C901 C898 1.403 . S
C901 C902 1.524 . S
C901 C905 1.400 . S
C902 H887 0.960 . S
C902 H888 0.960 . S
C902 H889 0.960 . S
C902 C901 1.524 . S
C903 C900 1.403 . S
C903 C904 1.392 . S
C903 C907 1.495 . S
C904 C903 1.392 . S
C904 C905 1.385 . S
C904 C906 1.478 . S
C905 H899 0.930 . S
C905 C901 1.400 . S
C905 C904 1.385 . S
C906 C904 1.478 . S
C906 C908 1.381 . S
C906 C912 1.383 . S
C907 C903 1.495 . S
C907 H913 0.959 . S
C907 H914 0.961 . S
C907 H915 0.960 . S
C908 C906 1.381 . S
C908 C909 1.394 1_556 S
C908 H916 0.930 . S
C909 C908 1.394 1_554 S
C909 C910 1.383 . S
C909 H917 0.929 . S
C910 C909 1.383 . S
C910 C911 1.377 . S
C911 H895 0.930 . S
C911 C910 1.377 . S
C911 C912 1.379 1_554 S
C912 H896 0.931 . S
C912 C906 1.383 . S
C912 C911 1.379 1_556 S
H913 C907 0.959 . S
H914 C907 0.961 . S
H915 C907 0.960 . S
H916 C908 0.930 . S
H917 C909 0.929 . S
H918 C926 0.929 . S
H919 C928 0.930 1_556 S
H920 C930 0.930 1_556 S
H921 C933 0.929 . S
H922 C936 0.930 . S
H923 C938 0.960 . S
H924 C938 0.960 . S
H925 C938 0.960 . S
C926 H918 0.929 . S
C926 C927 1.377 . S
C926 C928 1.384 . S
C927 C926 1.377 . S
C927 C933 1.390 . S
C928 H919 0.930 1_554 S
C928 C926 1.384 . S
C928 C929 1.372 1_554 S
C929 C928 1.372 1_556 S
C929 C930 1.400 1_556 S
C929 C934 1.490 . S
C930 H920 0.930 1_554 S
C930 C929 1.400 1_554 S
C930 C933 1.386 . S
H931 C947 0.930 . S
H932 C948 0.931 . S
C933 H921 0.929 . S
C933 C927 1.390 . S
C933 C930 1.386 . S
C934 C929 1.490 . S
C934 C936 1.395 . S
C934 C937 1.403 . S
H935 C941 0.930 . S
C936 H922 0.930 . S
C936 C934 1.395 . S
C936 C939 1.403 . S
C937 C934 1.403 . S
C937 C938 1.524 . S
C937 C941 1.400 . S
C938 H923 0.960 . S
C938 H924 0.960 . S
C938 H925 0.960 . S
C938 C937 1.524 . S
C939 C936 1.403 . S
C939 C940 1.392 . S
C939 C943 1.495 . S
C940 C939 1.392 . S
C940 C941 1.385 . S
C940 C942 1.478 . S
C941 H935 0.930 . S
C941 C937 1.400 . S
C941 C940 1.385 . S
C942 C940 1.478 . S
C942 C944 1.381 . S
C942 C948 1.383 . S
C943 C939 1.495 . S
C943 H949 0.959 . S
C943 H950 0.961 . S
C943 H951 0.960 . S
C944 C942 1.381 . S
C944 C945 1.394 . S
C944 H952 0.930 . S
C945 C944 1.394 . S
C945 C946 1.383 . S
C945 H953 0.929 . S
C946 C945 1.383 . S
C946 C947 1.377 . S
C947 H931 0.930 . S
C947 C946 1.377 . S
C947 C948 1.379 . S
C948 H932 0.931 . S
C948 C942 1.383 . S
C948 C947 1.379 . S
H949 C943 0.959 . S
H950 C943 0.961 . S
H951 C943 0.960 . S
H952 C944 0.930 . S
H953 C945 0.929 . S
H954 C962 0.929 . S
H955 C964 0.930 . S
H956 C966 0.930 . S
H957 C969 0.929 . S
H958 C972 0.930 . S
H959 C974 0.960 . S
H960 C974 0.960 . S
H961 C974 0.960 . S
C962 H954 0.929 . S
C962 C963 1.377 . S
C962 C964 1.384 . S
C963 C962 1.377 . S
C963 C969 1.390 . S
C964 H955 0.930 . S
C964 C962 1.384 . S
C964 C965 1.372 . S
C965 C964 1.372 . S
C965 C966 1.400 . S
C965 C970 1.490 . S
C966 H956 0.930 . S
C966 C965 1.400 . S
C966 C969 1.386 . S
H967 C983 0.930 . S
H968 C984 0.931 . S
C969 H957 0.929 . S
C969 C963 1.390 . S
C969 C966 1.386 . S
C970 C965 1.490 . S
C970 C972 1.395 . S
C970 C973 1.403 . S
H971 C977 0.930 . S
C972 H958 0.930 . S
C972 C970 1.395 . S
C972 C975 1.403 . S
C973 C970 1.403 . S
C973 C974 1.524 . S
C973 C977 1.400 . S
C974 H959 0.960 . S
C974 H960 0.960 . S
C974 H961 0.960 . S
C974 C973 1.524 . S
C975 C972 1.403 . S
C975 C976 1.392 . S
C975 C979 1.495 . S
C976 C975 1.392 . S
C976 C977 1.385 . S
C976 C978 1.478 . S
C977 H971 0.930 . S
C977 C973 1.400 . S
C977 C976 1.385 . S
C978 C976 1.478 . S
C978 C980 1.381 . S
C978 C984 1.383 . S
C979 C975 1.495 . S
C979 H985 0.959 . S
C979 H986 0.961 . S
C979 H987 0.960 . S
C980 C978 1.381 . S
C980 C981 1.394 . S
C980 H988 0.930 . S
C981 C980 1.394 . S
C981 C982 1.383 . S
C981 H989 0.929 . S
C982 C981 1.383 . S
C982 C983 1.377 . S
C983 H967 0.930 . S
C983 C982 1.377 . S
C983 C984 1.379 . S
C984 H968 0.931 . S
C984 C978 1.383 . S
C984 C983 1.379 . S
H985 C979 0.959 . S
H986 C979 0.961 . S
H987 C979 0.960 . S
H988 C980 0.930 . S
H989 C981 0.929 . S
H990 C998 0.929 . S
H991 C1000 0.930 . S
H992 C1002 0.930 . S
H993 C1005 0.929 . S
H994 C1008 0.930 . S
H995 C1010 0.960 . S
H996 C1010 0.960 . S
H997 C1010 0.960 . S
C998 H990 0.929 . S
C998 C999 1.377 . S
C998 C1000 1.384 . S
C999 C998 1.377 . S
C999 C1005 1.390 . S
C1000 H991 0.930 . S
C1000 C998 1.384 . S
C1000 C1001 1.372 . S
C1001 C1000 1.372 . S
C1001 C1002 1.400 . S
C1001 C1006 1.490 . S
C1002 H992 0.930 . S
C1002 C1001 1.400 . S
C1002 C1005 1.386 . S
H1003 C1019 0.930 . S
H1004 C1020 0.931 . S
C1005 H993 0.929 . S
C1005 C999 1.390 . S
C1005 C1002 1.386 . S
C1006 C1001 1.490 . S
C1006 C1008 1.395 . S
C1006 C1009 1.403 . S
H1007 C1013 0.930 . S
C1008 H994 0.930 . S
C1008 C1006 1.395 . S
C1008 C1011 1.403 . S
C1009 C1006 1.403 . S
C1009 C1010 1.524 . S
C1009 C1013 1.400 . S
C1010 H995 0.960 . S
C1010 H996 0.960 . S
C1010 H997 0.960 . S
C1010 C1009 1.524 . S
C1011 C1008 1.403 . S
C1011 C1012 1.392 . S
C1011 C1015 1.495 . S
C1012 C1011 1.392 . S
C1012 C1013 1.385 . S
C1012 C1014 1.478 . S
C1013 H1007 0.930 . S
C1013 C1009 1.400 . S
C1013 C1012 1.385 . S
C1014 C1012 1.478 . S
C1014 C1016 1.381 . S
C1014 C1020 1.383 . S
C1015 C1011 1.495 . S
C1015 H1021 0.959 . S
C1015 H1022 0.961 . S
C1015 H1023 0.960 . S
C1016 C1014 1.381 . S
C1016 C1017 1.394 . S
C1016 H1024 0.930 . S
C1017 C1016 1.394 . S
C1017 C1018 1.383 . S
C1017 H1025 0.929 . S
C1018 C1017 1.383 . S
C1018 C1019 1.377 . S
C1019 H1003 0.930 . S
C1019 C1018 1.377 . S
C1019 C1020 1.379 . S
C1020 H1004 0.931 . S
C1020 C1014 1.383 . S
C1020 C1019 1.379 . S
H1021 C1015 0.959 . S
H1022 C1015 0.961 . S
H1023 C1015 0.960 . S
H1024 C1016 0.930 . S
H1025 C1017 0.929 . S
H1026 C1034 0.929 . S
H1027 C1036 0.930 . S
H1028 C1038 0.930 . S
H1029 C1041 0.929 . S
H1030 C1044 0.930 . S
H1031 C1046 0.960 . S
H1032 C1046 0.960 . S
H1033 C1046 0.960 . S
C1034 H1026 0.929 . S
C1034 C1035 1.377 . S
C1034 C1036 1.384 . S
C1035 C1034 1.377 . S
C1035 C1041 1.390 . S
C1036 H1027 0.930 . S
C1036 C1034 1.384 . S
C1036 C1037 1.372 . S
C1037 C1036 1.372 . S
C1037 C1038 1.400 . S
C1037 C1042 1.490 . S
C1038 H1028 0.930 . S
C1038 C1037 1.400 . S
C1038 C1041 1.386 . S
H1039 C1055 0.930 . S
H1040 C1056 0.931 . S
C1041 H1029 0.929 . S
C1041 C1035 1.390 . S
C1041 C1038 1.386 . S
C1042 C1037 1.490 . S
C1042 C1044 1.395 . S
C1042 C1045 1.403 . S
H1043 C1049 0.930 . S
C1044 H1030 0.930 . S
C1044 C1042 1.395 . S
C1044 C1047 1.403 . S
C1045 C1042 1.403 . S
C1045 C1046 1.524 . S
C1045 C1049 1.400 . S
C1046 H1031 0.960 . S
C1046 H1032 0.960 . S
C1046 H1033 0.960 . S
C1046 C1045 1.524 . S
C1047 C1044 1.403 . S
C1047 C1048 1.392 . S
C1047 C1051 1.495 . S
C1048 C1047 1.392 . S
C1048 C1049 1.385 . S
C1048 C1050 1.478 . S
C1049 H1043 0.930 . S
C1049 C1045 1.400 . S
C1049 C1048 1.385 . S
C1050 C1048 1.478 . S
C1050 C1052 1.381 . S
C1050 C1056 1.383 . S
C1051 C1047 1.495 . S
C1051 H1057 0.959 . S
C1051 H1058 0.961 . S
C1051 H1059 0.960 . S
C1052 C1050 1.381 . S
C1052 C1053 1.394 . S
C1052 H1060 0.930 . S
C1053 C1052 1.394 . S
C1053 C1054 1.383 . S
C1053 H1061 0.929 . S
C1054 C1053 1.383 . S
C1054 C1055 1.377 . S
C1055 H1039 0.930 . S
C1055 C1054 1.377 . S
C1055 C1056 1.379 . S
C1056 H1040 0.931 . S
C1056 C1050 1.383 . S
C1056 C1055 1.379 . S
H1057 C1051 0.959 . S
H1058 C1051 0.961 . S
H1059 C1051 0.960 . S
H1060 C1052 0.930 . S
H1061 C1053 0.929 . S
H1062 C1070 0.929 . S
H1063 C1072 0.930 . S
H1064 C1074 0.930 . S
H1065 C1077 0.929 1_554 S
H1066 C1080 0.930 . S
H1067 C1082 0.960 . S
H1068 C1082 0.960 . S
H1069 C1082 0.960 . S
C1070 H1062 0.929 . S
C1070 C1071 1.377 . S
C1070 C1072 1.384 . S
C1071 C1070 1.377 . S
C1071 C1077 1.390 . S
C1072 H1063 0.930 . S
C1072 C1070 1.384 . S
C1072 C1073 1.372 . S
C1073 C1072 1.372 . S
C1073 C1074 1.400 . S
C1073 C1078 1.490 . S
C1074 H1064 0.930 . S
C1074 C1073 1.400 . S
C1074 C1077 1.386 . S
H1075 C1091 0.930 . S
H1076 C1092 0.931 . S
C1077 H1065 0.929 1_556 S
C1077 C1071 1.390 . S
C1077 C1074 1.386 . S
C1078 C1073 1.490 . S
C1078 C1080 1.395 . S
C1078 C1081 1.403 . S
H1079 C1085 0.930 . S
C1080 H1066 0.930 . S
C1080 C1078 1.395 . S
C1080 C1083 1.403 . S
C1081 C1078 1.403 . S
C1081 C1082 1.524 . S
C1081 C1085 1.400 . S
C1082 H1067 0.960 . S
C1082 H1068 0.960 . S
C1082 H1069 0.960 . S
C1082 C1081 1.524 . S
C1083 C1080 1.403 . S
C1083 C1084 1.392 . S
C1083 C1087 1.495 . S
C1084 C1083 1.392 . S
C1084 C1085 1.385 . S
C1084 C1086 1.478 . S
C1085 H1079 0.930 . S
C1085 C1081 1.400 . S
C1085 C1084 1.385 . S
C1086 C1084 1.478 . S
C1086 C1088 1.381 . S
C1086 C1092 1.383 . S
C1087 C1083 1.495 . S
C1087 H1093 0.959 . S
C1087 H1094 0.961 . S
C1087 H1095 0.960 . S
C1088 C1086 1.381 . S
C1088 C1089 1.394 . S
C1088 H1096 0.930 . S
C1089 C1088 1.394 . S
C1089 C1090 1.383 . S
C1089 H1097 0.929 . S
C1090 C1089 1.383 . S
C1090 C1091 1.377 . S
C1091 H1075 0.930 . S
C1091 C1090 1.377 . S
C1091 C1092 1.379 . S
C1092 H1076 0.931 . S
C1092 C1086 1.383 . S
C1092 C1091 1.379 . S
H1093 C1087 0.959 . S
H1094 C1087 0.961 . S
H1095 C1087 0.960 . S
H1096 C1088 0.930 . S
H1097 C1089 0.929 . S
H1098 C1106 0.929 . S
H1099 C1108 0.930 . S
H1100 C1110 0.930 . S
H1101 C1113 0.929 . S
H1102 C1116 0.930 . S
H1103 C1118 0.960 . S
H1104 C1118 0.960 . S
H1105 C1118 0.960 . S
C1106 H1098 0.929 . S
C1106 C1107 1.377 . S
C1106 C1108 1.384 . S
C1107 C1106 1.377 . S
C1107 C1113 1.390 . S
C1108 H1099 0.930 . S
C1108 C1106 1.384 . S
C1108 C1109 1.372 . S
C1109 C1108 1.372 . S
C1109 C1110 1.400 . S
C1109 C1114 1.490 . S
C1110 H1100 0.930 . S
C1110 C1109 1.400 . S
C1110 C1113 1.386 . S
H1111 C1127 0.930 . S
H1112 C1128 0.931 . S
C1113 H1101 0.929 . S
C1113 C1107 1.390 . S
C1113 C1110 1.386 . S
C1114 C1109 1.490 . S
C1114 C1116 1.395 . S
C1114 C1117 1.403 . S
H1115 C1121 0.930 . S
C1116 H1102 0.930 . S
C1116 C1114 1.395 . S
C1116 C1119 1.403 . S
C1117 C1114 1.403 . S
C1117 C1118 1.524 . S
C1117 C1121 1.400 . S
C1118 H1103 0.960 . S
C1118 H1104 0.960 . S
C1118 H1105 0.960 . S
C1118 C1117 1.524 . S
C1119 C1116 1.403 . S
C1119 C1120 1.392 . S
C1119 C1123 1.495 . S
C1120 C1119 1.392 . S
C1120 C1121 1.385 . S
C1120 C1122 1.478 . S
C1121 H1115 0.930 . S
C1121 C1117 1.400 . S
C1121 C1120 1.385 . S
C1122 C1120 1.478 . S
C1122 C1124 1.381 . S
C1122 C1128 1.383 . S
C1123 C1119 1.495 . S
C1123 H1129 0.959 . S
C1123 H1130 0.961 . S
C1123 H1131 0.960 . S
C1124 C1122 1.381 . S
C1124 C1125 1.394 . S
C1124 H1132 0.930 . S
C1125 C1124 1.394 . S
C1125 C1126 1.383 . S
C1125 H1133 0.929 . S
C1126 C1125 1.383 . S
C1126 C1127 1.377 . S
C1127 H1111 0.930 . S
C1127 C1126 1.377 . S
C1127 C1128 1.379 . S
C1128 H1112 0.931 . S
C1128 C1122 1.383 . S
C1128 C1127 1.379 . S
H1129 C1123 0.959 . S
H1130 C1123 0.961 . S
H1131 C1123 0.960 . S
H1132 C1124 0.930 . S
H1133 C1125 0.929 . S
H1134 C1142 0.929 . S
H1135 C1144 0.930 . S
H1136 C1146 0.930 . S
H1137 C1149 0.929 . S
H1138 C1152 0.930 . S
H1139 C1154 0.960 . S
H1140 C1154 0.960 . S
H1141 C1154 0.960 . S
C1142 H1134 0.929 . S
C1142 C1143 1.377 . S
C1142 C1144 1.384 . S
C1143 C1142 1.377 . S
C1143 C1149 1.390 . S
C1144 H1135 0.930 . S
C1144 C1142 1.384 . S
C1144 C1145 1.372 . S
C1145 C1144 1.372 . S
C1145 C1146 1.400 . S
C1145 C1150 1.490 . S
C1146 H1136 0.930 . S
C1146 C1145 1.400 . S
C1146 C1149 1.386 . S
H1147 C1163 0.930 . S
H1148 C1164 0.931 . S
C1149 H1137 0.929 . S
C1149 C1143 1.390 . S
C1149 C1146 1.386 . S
C1150 C1145 1.490 . S
C1150 C1152 1.395 . S
C1150 C1153 1.403 . S
H1151 C1157 0.930 . S
C1152 H1138 0.930 . S
C1152 C1150 1.395 . S
C1152 C1155 1.403 . S
C1153 C1150 1.403 . S
C1153 C1154 1.524 . S
C1153 C1157 1.400 . S
C1154 H1139 0.960 . S
C1154 H1140 0.960 . S
C1154 H1141 0.960 . S
C1154 C1153 1.524 . S
C1155 C1152 1.403 . S
C1155 C1156 1.392 . S
C1155 C1159 1.495 . S
C1156 C1155 1.392 . S
C1156 C1157 1.385 . S
C1156 C1158 1.478 . S
C1157 H1151 0.930 . S
C1157 C1153 1.400 . S
C1157 C1156 1.385 . S
C1158 C1156 1.478 . S
C1158 C1160 1.381 . S
C1158 C1164 1.383 . S
C1159 C1155 1.495 . S
C1159 H1165 0.959 . S
C1159 H1166 0.961 . S
C1159 H1167 0.960 1_556 S
C1160 C1158 1.381 . S
C1160 C1161 1.394 . S
C1160 H1168 0.930 . S
C1161 C1160 1.394 . S
C1161 C1162 1.383 . S
C1161 H1169 0.929 1_556 S
C1162 C1161 1.383 . S
C1162 C1163 1.377 . S
C1163 H1147 0.930 . S
C1163 C1162 1.377 . S
C1163 C1164 1.379 . S
C1164 H1148 0.931 . S
C1164 C1158 1.383 . S
C1164 C1163 1.379 . S
H1165 C1159 0.959 . S
H1166 C1159 0.961 . S
H1167 C1159 0.960 1_554 S
H1168 C1160 0.930 . S
H1169 C1161 0.929 1_554 S
H1170 C1178 0.929 . S
H1171 C1180 0.930 . S
H1172 C1182 0.930 . S
H1173 C1185 0.929 . S
H1174 C1188 0.930 . S
H1175 C1190 0.960 . S
H1176 C1190 0.960 . S
H1177 C1190 0.960 . S
C1178 H1170 0.929 . S
C1178 C1179 1.377 . S
C1178 C1180 1.384 . S
C1179 C1178 1.377 . S
C1179 C1185 1.390 . S
C1180 H1171 0.930 . S
C1180 C1178 1.384 . S
C1180 C1181 1.372 . S
C1181 C1180 1.372 . S
C1181 C1182 1.400 . S
C1181 C1186 1.490 . S
C1182 H1172 0.930 . S
C1182 C1181 1.400 . S
C1182 C1185 1.386 . S
H1183 C1199 0.930 . S
H1184 C1200 0.931 . S
C1185 H1173 0.929 . S
C1185 C1179 1.390 . S
C1185 C1182 1.386 . S
C1186 C1181 1.490 . S
C1186 C1188 1.395 . S
C1186 C1189 1.403 . S
H1187 C1193 0.930 . S
C1188 H1174 0.930 . S
C1188 C1186 1.395 . S
C1188 C1191 1.403 . S
C1189 C1186 1.403 . S
C1189 C1190 1.524 . S
C1189 C1193 1.400 . S
C1190 H1175 0.960 . S
C1190 H1176 0.960 . S
C1190 H1177 0.960 . S
C1190 C1189 1.524 . S
C1191 C1188 1.403 . S
C1191 C1192 1.392 . S
C1191 C1195 1.495 . S
C1192 C1191 1.392 . S
C1192 C1193 1.385 . S
C1192 C1194 1.478 . S
C1193 H1187 0.930 . S
C1193 C1189 1.400 . S
C1193 C1192 1.385 . S
C1194 C1192 1.478 . S
C1194 C1196 1.381 . S
C1194 C1200 1.383 . S
C1195 C1191 1.495 . S
C1195 H1201 0.959 . S
C1195 H1202 0.961 . S
C1195 H1203 0.960 . S
C1196 C1194 1.381 . S
C1196 C1197 1.394 . S
C1196 H1204 0.930 . S
C1197 C1196 1.394 . S
C1197 C1198 1.383 . S
C1197 H1205 0.929 . S
C1198 C1197 1.383 . S
C1198 C1199 1.377 . S
C1199 H1183 0.930 . S
C1199 C1198 1.377 . S
C1199 C1200 1.379 . S
C1200 H1184 0.931 . S
C1200 C1194 1.383 . S
C1200 C1199 1.379 . S
H1201 C1195 0.959 . S
H1202 C1195 0.961 . S
H1203 C1195 0.960 . S
H1204 C1196 0.930 . S
H1205 C1197 0.929 . S
H1206 C1214 0.929 . S
H1207 C1216 0.930 . S
H1208 C1218 0.930 . S
H1209 C1221 0.929 . S
H1210 C1224 0.930 . S
H1211 C1226 0.960 . S
H1212 C1226 0.960 . S
H1213 C1226 0.960 . S
C1214 H1206 0.929 . S
C1214 C1215 1.377 . S
C1214 C1216 1.384 . S
C1215 C1214 1.377 . S
C1215 C1221 1.390 . S
C1216 H1207 0.930 . S
C1216 C1214 1.384 . S
C1216 C1217 1.372 . S
C1217 C1216 1.372 . S
C1217 C1218 1.400 . S
C1217 C1222 1.490 . S
C1218 H1208 0.930 . S
C1218 C1217 1.400 . S
C1218 C1221 1.386 . S
H1219 C1235 0.930 1_455 S
H1220 C1236 0.931 . S
C1221 H1209 0.929 . S
C1221 C1215 1.390 . S
C1221 C1218 1.386 . S
C1222 C1217 1.490 . S
C1222 C1224 1.395 . S
C1222 C1225 1.403 . S
H1223 C1229 0.930 . S
C1224 H1210 0.930 . S
C1224 C1222 1.395 . S
C1224 C1227 1.403 . S
C1225 C1222 1.403 . S
C1225 C1226 1.524 . S
C1225 C1229 1.400 . S
C1226 H1211 0.960 . S
C1226 H1212 0.960 . S
C1226 H1213 0.960 . S
C1226 C1225 1.524 . S
C1227 C1224 1.403 . S
C1227 C1228 1.392 . S
C1227 C1231 1.495 . S
C1228 C1227 1.392 . S
C1228 C1229 1.385 . S
C1228 C1230 1.478 . S
C1229 H1223 0.930 . S
C1229 C1225 1.400 . S
C1229 C1228 1.385 . S
C1230 C1228 1.478 . S
C1230 C1232 1.381 . S
C1230 C1236 1.383 . S
C1231 C1227 1.495 . S
C1231 H1237 0.959 . S
C1231 H1238 0.961 . S
C1231 H1239 0.960 . S
C1232 C1230 1.381 . S
C1232 C1233 1.394 . S
C1232 H1240 0.930 . S
C1233 C1232 1.394 . S
C1233 C1234 1.383 . S
C1233 H1241 0.929 . S
C1234 C1233 1.383 . S
C1234 C1235 1.377 . S
C1235 H1219 0.930 1_655 S
C1235 C1234 1.377 . S
C1235 C1236 1.379 . S
C1236 H1220 0.931 . S
C1236 C1230 1.383 . S
C1236 C1235 1.379 . S
H1237 C1231 0.959 . S
H1238 C1231 0.961 . S
H1239 C1231 0.960 . S
H1240 C1232 0.930 . S
H1241 C1233 0.929 . S
H1242 C1250 0.929 . S
H1243 C1252 0.930 . S
H1244 C1254 0.930 . S
H1245 C1257 0.929 . S
H1246 C1260 0.930 . S
H1247 C1262 0.960 . S
H1248 C1262 0.960 . S
H1249 C1262 0.960 . S
C1250 H1242 0.929 . S
C1250 C1251 1.377 . S
C1250 C1252 1.384 . S
C1251 C1250 1.377 . S
C1251 C1257 1.390 . S
C1252 H1243 0.930 . S
C1252 C1250 1.384 . S
C1252 C1253 1.372 . S
C1253 C1252 1.372 . S
C1253 C1254 1.400 . S
C1253 C1258 1.490 . S
C1254 H1244 0.930 . S
C1254 C1253 1.400 . S
C1254 C1257 1.386 . S
H1255 C1271 0.930 . S
H1256 C1272 0.931 . S
C1257 H1245 0.929 . S
C1257 C1251 1.390 . S
C1257 C1254 1.386 . S
C1258 C1253 1.490 . S
C1258 C1260 1.395 . S
C1258 C1261 1.403 . S
H1259 C1265 0.930 . S
C1260 H1246 0.930 . S
C1260 C1258 1.395 . S
C1260 C1263 1.403 . S
C1261 C1258 1.403 . S
C1261 C1262 1.524 . S
C1261 C1265 1.400 . S
C1262 H1247 0.960 . S
C1262 H1248 0.960 . S
C1262 H1249 0.960 . S
C1262 C1261 1.524 . S
C1263 C1260 1.403 . S
C1263 C1264 1.392 . S
C1263 C1267 1.495 . S
C1264 C1263 1.392 . S
C1264 C1265 1.385 . S
C1264 C1266 1.478 . S
C1265 H1259 0.930 . S
C1265 C1261 1.400 . S
C1265 C1264 1.385 . S
C1266 C1264 1.478 . S
C1266 C1268 1.381 . S
C1266 C1272 1.383 . S
C1267 C1263 1.495 . S
C1267 H1273 0.959 . S
C1267 H1274 0.961 . S
C1267 H1275 0.960 . S
C1268 C1266 1.381 . S
C1268 C1269 1.394 . S
C1268 H1276 0.930 . S
C1269 C1268 1.394 . S
C1269 C1270 1.383 . S
C1269 H1277 0.929 . S
C1270 C1269 1.383 . S
C1270 C1271 1.377 . S
C1271 H1255 0.930 . S
C1271 C1270 1.377 . S
C1271 C1272 1.379 . S
C1272 H1256 0.931 . S
C1272 C1266 1.383 . S
C1272 C1271 1.379 . S
H1273 C1267 0.959 . S
H1274 C1267 0.961 . S
H1275 C1267 0.960 . S
H1276 C1268 0.930 . S
H1277 C1269 0.929 . S
H1278 C1286 0.929 . S
H1279 C1288 0.930 . S
H1280 C1290 0.930 . S
H1281 C1293 0.929 . S
H1282 C1296 0.930 . S
H1283 C1298 0.960 . S
H1284 C1298 0.960 . S
H1285 C1298 0.960 . S
C1286 H1278 0.929 . S
C1286 C1287 1.377 . S
C1286 C1288 1.384 . S
C1287 C1286 1.377 . S
C1287 C1293 1.390 . S
C1288 H1279 0.930 . S
C1288 C1286 1.384 . S
C1288 C1289 1.372 . S
C1289 C1288 1.372 . S
C1289 C1290 1.400 . S
C1289 C1294 1.490 . S
C1290 H1280 0.930 . S
C1290 C1289 1.400 . S
C1290 C1293 1.386 . S
H1291 C1307 0.930 1_556 S
H1292 C1308 0.931 . S
C1293 H1281 0.929 . S
C1293 C1287 1.390 . S
C1293 C1290 1.386 . S
C1294 C1289 1.490 . S
C1294 C1296 1.395 . S
C1294 C1297 1.403 . S
H1295 C1301 0.930 . S
C1296 H1282 0.930 . S
C1296 C1294 1.395 . S
C1296 C1299 1.403 . S
C1297 C1294 1.403 . S
C1297 C1298 1.524 . S
C1297 C1301 1.400 . S
C1298 H1283 0.960 . S
C1298 H1284 0.960 . S
C1298 H1285 0.960 . S
C1298 C1297 1.524 . S
C1299 C1296 1.403 . S
C1299 C1300 1.392 . S
C1299 C1303 1.495 . S
C1300 C1299 1.392 . S
C1300 C1301 1.385 . S
C1300 C1302 1.478 . S
C1301 H1295 0.930 . S
C1301 C1297 1.400 . S
C1301 C1300 1.385 . S
C1302 C1300 1.478 . S
C1302 C1304 1.381 . S
C1302 C1308 1.383 . S
C1303 C1299 1.495 . S
C1303 H1309 0.959 . S
C1303 H1310 0.961 . S
C1303 H1311 0.960 . S
C1304 C1302 1.381 . S
C1304 C1305 1.394 . S
C1304 H1312 0.930 . S
C1305 C1304 1.394 . S
C1305 C1306 1.383 . S
C1305 H1313 0.929 . S
C1306 C1305 1.383 . S
C1306 C1307 1.377 . S
C1307 H1291 0.930 1_554 S
C1307 C1306 1.377 . S
C1307 C1308 1.379 . S
C1308 H1292 0.931 . S
C1308 C1302 1.383 . S
C1308 C1307 1.379 . S
H1309 C1303 0.959 . S
H1310 C1303 0.961 . S
H1311 C1303 0.960 . S
H1312 C1304 0.930 . S
H1313 C1305 0.929 . S
H1314 C1322 0.929 . S
H1315 C1324 0.930 . S
H1316 C1326 0.930 . S
H1317 C1329 0.929 . S
H1318 C1332 0.930 . S
H1319 C1334 0.960 . S
H1320 C1334 0.960 . S
H1321 C1334 0.960 . S
C1322 H1314 0.929 . S
C1322 C1323 1.377 . S
C1322 C1324 1.384 . S
C1323 C1322 1.377 . S
C1323 C1329 1.390 . S
C1324 H1315 0.930 . S
C1324 C1322 1.384 . S
C1324 C1325 1.372 . S
C1325 C1324 1.372 . S
C1325 C1326 1.400 . S
C1325 C1330 1.490 . S
C1326 H1316 0.930 . S
C1326 C1325 1.400 . S
C1326 C1329 1.386 . S
H1327 C1343 0.930 . S
H1328 C1344 0.931 . S
C1329 H1317 0.929 . S
C1329 C1323 1.390 . S
C1329 C1326 1.386 . S
C1330 C1325 1.490 . S
C1330 C1332 1.395 . S
C1330 C1333 1.403 . S
H1331 C1337 0.930 . S
C1332 H1318 0.930 . S
C1332 C1330 1.395 . S
C1332 C1335 1.403 . S
C1333 C1330 1.403 . S
C1333 C1334 1.524 . S
C1333 C1337 1.400 . S
C1334 H1319 0.960 . S
C1334 H1320 0.960 . S
C1334 H1321 0.960 . S
C1334 C1333 1.524 . S
C1335 C1332 1.403 . S
C1335 C1336 1.392 . S
C1335 C1339 1.495 . S
C1336 C1335 1.392 . S
C1336 C1337 1.385 . S
C1336 C1338 1.478 . S
C1337 H1331 0.930 . S
C1337 C1333 1.400 . S
C1337 C1336 1.385 . S
C1338 C1336 1.478 . S
C1338 C1340 1.381 . S
C1338 C1344 1.383 . S
C1339 C1335 1.495 . S
C1339 H1345 0.959 . S
C1339 H1346 0.961 . S
C1339 H1347 0.960 . S
C1340 C1338 1.381 . S
C1340 C1341 1.394 . S
C1340 H1348 0.930 . S
C1341 C1340 1.394 . S
C1341 C1342 1.383 . S
C1341 H1349 0.929 . S
C1342 C1341 1.383 . S
C1342 C1343 1.377 . S
C1343 H1327 0.930 . S
C1343 C1342 1.377 . S
C1343 C1344 1.379 . S
C1344 H1328 0.931 . S
C1344 C1338 1.383 . S
C1344 C1343 1.379 . S
H1345 C1339 0.959 . S
H1346 C1339 0.961 . S
H1347 C1339 0.960 . S
H1348 C1340 0.930 . S
H1349 C1341 0.929 . S
H1350 C1358 0.929 . S
H1351 C1360 0.930 . S
H1352 C1362 0.930 . S
H1353 C1365 0.929 . S
H1354 C1368 0.930 . S
H1355 C1370 0.960 . S
H1356 C1370 0.960 . S
H1357 C1370 0.960 . S
C1358 H1350 0.929 . S
C1358 C1359 1.377 . S
C1358 C1360 1.384 . S
C1359 C1358 1.377 . S
C1359 C1365 1.390 . S
C1360 H1351 0.930 . S
C1360 C1358 1.384 . S
C1360 C1361 1.372 . S
C1361 C1360 1.372 . S
C1361 C1362 1.400 . S
C1361 C1366 1.490 . S
C1362 H1352 0.930 . S
C1362 C1361 1.400 . S
C1362 C1365 1.386 . S
H1363 C1379 0.930 . S
H1364 C1380 0.931 . S
C1365 H1353 0.929 . S
C1365 C1359 1.390 . S
C1365 C1362 1.386 . S
C1366 C1361 1.490 . S
C1366 C1368 1.395 . S
C1366 C1369 1.403 . S
H1367 C1373 0.930 . S
C1368 H1354 0.930 . S
C1368 C1366 1.395 . S
C1368 C1371 1.403 . S
C1369 C1366 1.403 . S
C1369 C1370 1.524 . S
C1369 C1373 1.400 . S
C1370 H1355 0.960 . S
C1370 H1356 0.960 . S
C1370 H1357 0.960 . S
C1370 C1369 1.524 . S
C1371 C1368 1.403 . S
C1371 C1372 1.392 . S
C1371 C1375 1.495 . S
C1372 C1371 1.392 . S
C1372 C1373 1.385 . S
C1372 C1374 1.478 . S
C1373 H1367 0.930 . S
C1373 C1369 1.400 . S
C1373 C1372 1.385 . S
C1374 C1372 1.478 . S
C1374 C1376 1.381 . S
C1374 C1380 1.383 . S
C1375 C1371 1.495 . S
C1375 H1381 0.959 . S
C1375 H1382 0.961 . S
C1375 H1383 0.960 . S
C1376 C1374 1.381 . S
C1376 C1377 1.394 . S
C1376 H1384 0.930 . S
C1377 C1376 1.394 . S
C1377 C1378 1.383 . S
C1377 H1385 0.929 . S
C1378 C1377 1.383 . S
C1378 C1379 1.377 . S
C1379 H1363 0.930 . S
C1379 C1378 1.377 . S
C1379 C1380 1.379 . S
C1380 H1364 0.931 . S
C1380 C1374 1.383 . S
C1380 C1379 1.379 . S
H1381 C1375 0.959 . S
H1382 C1375 0.961 . S
H1383 C1375 0.960 . S
H1384 C1376 0.930 . S
H1385 C1377 0.929 . S
H1386 C1394 0.973 . S
H1387 C1396 0.930 . S
H1388 C1398 0.930 . S
H1389 C1401 0.929 . S
H1390 C1404 0.930 . S
H1391 C1406 0.960 . S
H1392 C1406 0.960 . S
H1393 C1406 0.960 . S
C1394 H1386 0.973 . S
C1394 C1395 1.377 . S
C1394 C1396 1.384 . S
C1395 C1394 1.377 . S
C1395 C1401 1.390 . S
C1396 H1387 0.930 . S
C1396 C1394 1.384 . S
C1396 C1397 1.372 . S
C1397 C1396 1.372 . S
C1397 C1398 1.400 . S
C1397 C1402 1.490 . S
C1398 H1388 0.930 . S
C1398 C1397 1.400 . S
C1398 C1401 1.386 . S
H1399 C1415 0.930 . S
H1400 C1416 0.931 . S
C1401 H1389 0.929 . S
C1401 C1395 1.390 . S
C1401 C1398 1.386 . S
C1402 C1397 1.490 . S
C1402 C1404 1.395 . S
C1402 C1405 1.403 . S
H1403 C1409 0.930 . S
C1404 H1390 0.930 . S
C1404 C1402 1.395 . S
C1404 C1407 1.403 . S
C1405 C1402 1.403 . S
C1405 C1406 1.524 . S
C1405 C1409 1.400 . S
C1406 H1391 0.960 . S
C1406 H1392 0.960 . S
C1406 H1393 0.960 . S
C1406 C1405 1.524 . S
C1407 C1404 1.403 . S
C1407 C1408 1.392 . S
C1407 C1411 1.495 . S
C1408 C1407 1.392 . S
C1408 C1409 1.385 . S
C1408 C1410 1.478 . S
C1409 H1403 0.930 . S
C1409 C1405 1.400 . S
C1409 C1408 1.385 . S
C1410 C1408 1.478 . S
C1410 C1412 1.381 . S
C1410 C1416 1.383 . S
C1411 C1407 1.495 . S
C1411 H1417 0.959 . S
C1411 H1418 0.961 . S
C1411 H1419 0.960 . S
C1412 C1410 1.381 . S
C1412 C1413 1.394 . S
C1412 H1420 0.930 . S
C1413 C1412 1.394 . S
C1413 C1414 1.383 . S
C1413 H1421 0.929 . S
C1414 C1413 1.383 . S
C1414 C1415 1.377 . S
C1415 H1399 0.930 . S
C1415 C1414 1.377 . S
C1415 C1416 1.379 . S
C1416 H1400 0.931 . S
C1416 C1410 1.383 . S
C1416 C1415 1.379 . S
H1417 C1411 0.959 . S
H1418 C1411 0.961 . S
H1419 C1411 0.960 . S
H1420 C1412 0.930 . S
H1421 C1413 0.929 . S
H1422 C1430 0.929 . S
H1423 C1432 0.930 . S
H1424 C1434 0.930 . S
H1425 C1437 0.929 . S
H1426 C1440 0.930 . S
H1427 C1442 0.960 . S
H1428 C1442 0.960 . S
H1429 C1442 0.960 . S
C1430 H1422 0.929 . S
C1430 C1431 1.377 . S
C1430 C1432 1.384 . S
C1431 C1430 1.377 . S
C1431 C1437 1.390 . S
C1432 H1423 0.930 . S
C1432 C1430 1.384 . S
C1432 C1433 1.372 . S
C1433 C1432 1.372 . S
C1433 C1434 1.400 . S
C1433 C1438 1.490 . S
C1434 H1424 0.930 . S
C1434 C1433 1.400 . S
C1434 C1437 1.386 . S
H1435 C1451 0.930 . S
H1436 C1452 0.931 . S
C1437 H1425 0.929 . S
C1437 C1431 1.390 . S
C1437 C1434 1.386 . S
C1438 C1433 1.490 . S
C1438 C1440 1.395 . S
C1438 C1441 1.403 . S
H1439 C1445 0.930 . S
C1440 H1426 0.930 . S
C1440 C1438 1.395 . S
C1440 C1443 1.403 . S
C1441 C1438 1.403 . S
C1441 C1442 1.524 . S
C1441 C1445 1.400 . S
C1442 H1427 0.960 . S
C1442 H1428 0.960 . S
C1442 H1429 0.960 . S
C1442 C1441 1.524 . S
C1443 C1440 1.403 . S
C1443 C1444 1.392 . S
C1443 C1447 1.495 . S
C1444 C1443 1.392 . S
C1444 C1445 1.385 . S
C1444 C1446 1.478 . S
C1445 H1439 0.930 . S
C1445 C1441 1.400 . S
C1445 C1444 1.385 . S
C1446 C1444 1.478 . S
C1446 C1448 1.381 . S
C1446 C1452 1.383 . S
C1447 C1443 1.495 . S
C1447 H1453 0.959 . S
C1447 H1454 0.961 . S
C1447 H1455 0.960 . S
C1448 C1446 1.381 . S
C1448 C1449 1.394 . S
C1448 H1456 0.930 . S
C1449 C1448 1.394 . S
C1449 C1450 1.383 . S
C1449 H1457 0.929 . S
C1450 C1449 1.383 . S
C1450 C1451 1.377 . S
C1451 H1435 0.930 . S
C1451 C1450 1.377 . S
C1451 C1452 1.379 . S
C1452 H1436 0.931 . S
C1452 C1446 1.383 . S
C1452 C1451 1.379 . S
H1453 C1447 0.959 . S
H1454 C1447 0.961 . S
H1455 C1447 0.960 . S
H1456 C1448 0.930 . S
H1457 C1449 0.929 . S
H1458 C1466 0.929 . S
H1459 C1468 0.930 . S
H1460 C1470 0.930 . S
H1461 C1473 0.929 . S
H1462 C1476 0.930 . S
H1463 C1478 0.960 . S
H1464 C1478 0.960 . S
H1465 C1478 0.960 . S
C1466 H1458 0.929 . S
C1466 C1467 1.377 . S
C1466 C1468 1.384 . S
C1467 C1466 1.377 . S
C1467 C1473 1.390 . S
C1468 H1459 0.930 . S
C1468 C1466 1.384 . S
C1468 C1469 1.372 . S
C1469 C1468 1.372 . S
C1469 C1470 1.400 . S
C1469 C1474 1.490 . S
C1470 H1460 0.930 . S
C1470 C1469 1.400 . S
C1470 C1473 1.386 . S
H1471 C1487 0.930 . S
H1472 C1488 0.931 . S
C1473 H1461 0.929 . S
C1473 C1467 1.390 . S
C1473 C1470 1.386 . S
C1474 C1469 1.490 . S
C1474 C1476 1.395 . S
C1474 C1477 1.403 . S
H1475 C1481 0.930 . S
C1476 H1462 0.930 . S
C1476 C1474 1.395 . S
C1476 C1479 1.403 . S
C1477 C1474 1.403 . S
C1477 C1478 1.524 . S
C1477 C1481 1.400 . S
C1478 H1463 0.960 . S
C1478 H1464 0.960 . S
C1478 H1465 0.960 . S
C1478 C1477 1.524 . S
C1479 C1476 1.403 . S
C1479 C1480 1.392 . S
C1479 C1483 1.495 . S
C1480 C1479 1.392 . S
C1480 C1481 1.385 . S
C1480 C1482 1.478 . S
C1481 H1475 0.930 . S
C1481 C1477 1.400 . S
C1481 C1480 1.385 . S
C1482 C1480 1.478 . S
C1482 C1484 1.381 . S
C1482 C1488 1.383 . S
C1483 C1479 1.495 . S
C1483 H1489 0.959 . S
C1483 H1490 0.961 . S
C1483 H1491 0.960 . S
C1484 C1482 1.381 . S
C1484 C1485 1.394 . S
C1484 H1492 0.930 . S
C1485 C1484 1.394 . S
C1485 C1486 1.383 . S
C1485 H1493 0.929 . S
C1486 C1485 1.383 . S
C1486 C1487 1.377 . S
C1487 H1471 0.930 . S
C1487 C1486 1.377 . S
C1487 C1488 1.379 . S
C1488 H1472 0.931 . S
C1488 C1482 1.383 . S
C1488 C1487 1.379 . S
H1489 C1483 0.959 . S
H1490 C1483 0.961 . S
H1491 C1483 0.960 . S
H1492 C1484 0.930 . S
H1493 C1485 0.929 . S
H1494 C1502 0.929 . S
H1495 C1504 0.930 . S
H1496 C1506 0.930 . S
H1497 C1509 0.929 . S
H1498 C1512 0.930 . S
H1499 C1514 0.960 . S
H1500 C1514 0.960 . S
H1501 C1514 0.960 . S
C1502 H1494 0.929 . S
C1502 C1503 1.377 . S
C1502 C1504 1.384 . S
C1503 C1502 1.377 . S
C1503 C1509 1.390 . S
C1504 H1495 0.930 . S
C1504 C1502 1.384 . S
C1504 C1505 1.372 . S
C1505 C1504 1.372 . S
C1505 C1506 1.400 . S
C1505 C1510 1.490 . S
C1506 H1496 0.930 . S
C1506 C1505 1.400 . S
C1506 C1509 1.386 . S
H1507 C1523 0.930 . S
H1508 C1524 0.931 . S
C1509 H1497 0.929 . S
C1509 C1503 1.390 . S
C1509 C1506 1.386 . S
C1510 C1505 1.490 . S
C1510 C1512 1.395 . S
C1510 C1513 1.403 . S
H1511 C1517 0.930 . S
C1512 H1498 0.930 . S
C1512 C1510 1.395 . S
C1512 C1515 1.403 . S
C1513 C1510 1.403 . S
C1513 C1514 1.524 . S
C1513 C1517 1.400 . S
C1514 H1499 0.960 . S
C1514 H1500 0.960 . S
C1514 H1501 0.960 . S
C1514 C1513 1.524 . S
C1515 C1512 1.403 . S
C1515 C1516 1.392 . S
C1515 C1519 1.495 . S
C1516 C1515 1.392 . S
C1516 C1517 1.385 . S
C1516 C1518 1.478 . S
C1517 H1511 0.930 . S
C1517 C1513 1.400 . S
C1517 C1516 1.385 . S
C1518 C1516 1.478 . S
C1518 C1520 1.381 . S
C1518 C1524 1.383 . S
C1519 C1515 1.495 . S
C1519 H1525 0.959 . S
C1519 H1526 0.961 . S
C1519 H1527 0.960 . S
C1520 C1518 1.381 . S
C1520 C1521 1.394 . S
C1520 H1528 0.930 . S
C1521 C1520 1.394 . S
C1521 C1522 1.383 . S
C1521 H1529 0.929 . S
C1522 C1521 1.383 . S
C1522 C1523 1.377 . S
C1523 H1507 0.930 . S
C1523 C1522 1.377 . S
C1523 C1524 1.379 . S
C1524 H1508 0.931 . S
C1524 C1518 1.383 . S
C1524 C1523 1.379 . S
H1525 C1519 0.959 . S
H1526 C1519 0.961 . S
H1527 C1519 0.960 . S
H1528 C1520 0.930 . S
H1529 C1521 0.929 . S
H1530 C1538 0.929 . S
H1531 C1540 0.930 . S
H1532 C1542 0.930 . S
H1533 C1545 0.929 . S
H1534 C1548 0.930 . S
H1535 C1550 0.960 . S
H1536 C1550 0.960 . S
H1537 C1550 0.960 . S
C1538 H1530 0.929 . S
C1538 C1539 1.377 . S
C1538 C1540 1.384 . S
C1539 C1538 1.377 . S
C1539 C1545 1.390 . S
C1540 H1531 0.930 . S
C1540 C1538 1.384 . S
C1540 C1541 1.372 . S
C1541 C1540 1.372 . S
C1541 C1542 1.400 . S
C1541 C1546 1.490 . S
C1542 H1532 0.930 . S
C1542 C1541 1.400 . S
C1542 C1545 1.386 . S
H1543 C1559 0.930 . S
H1544 C1560 0.931 . S
C1545 H1533 0.929 . S
C1545 C1539 1.390 . S
C1545 C1542 1.386 . S
C1546 C1541 1.490 . S
C1546 C1548 1.395 1_545 S
C1546 C1549 1.403 . S
H1547 C1553 0.930 . S
C1548 H1534 0.930 . S
C1548 C1546 1.395 1_565 S
C1548 C1551 1.403 . S
C1549 C1546 1.403 . S
C1549 C1550 1.524 . S
C1549 C1553 1.400 1_545 S
C1550 H1535 0.960 . S
C1550 H1536 0.960 . S
C1550 H1537 0.960 . S
C1550 C1549 1.524 . S
C1551 C1548 1.403 . S
C1551 C1552 1.392 . S
C1551 C1555 1.495 . S
C1552 C1551 1.392 . S
C1552 C1553 1.385 . S
C1552 C1554 1.478 . S
C1553 H1547 0.930 . S
C1553 C1549 1.400 1_565 S
C1553 C1552 1.385 . S
C1554 C1552 1.478 . S
C1554 C1556 1.381 . S
C1554 C1560 1.383 . S
C1555 C1551 1.495 . S
C1555 H1561 0.959 . S
C1555 H1562 0.961 . S
C1555 H1563 0.960 . S
C1556 C1554 1.381 . S
C1556 C1557 1.394 . S
C1556 H1564 0.930 . S
C1557 C1556 1.394 . S
C1557 C1558 1.383 . S
C1557 H1565 0.929 . S
C1558 C1557 1.383 . S
C1558 C1559 1.377 . S
C1559 H1543 0.930 . S
C1559 C1558 1.377 . S
C1559 C1560 1.379 . S
C1560 H1544 0.931 . S
C1560 C1554 1.383 . S
C1560 C1559 1.379 . S
H1561 C1555 0.959 . S
H1562 C1555 0.961 . S
H1563 C1555 0.960 . S
H1564 C1556 0.930 . S
H1565 C1557 0.929 . S
H1566 C1574 0.929 . S
H1567 C1576 0.930 . S
H1568 C1578 0.930 . S
H1569 C1581 0.929 . S
H1570 C1584 0.930 . S
H1571 C1586 0.960 1_655 S
H1572 C1586 0.960 . S
H1573 C1586 0.960 . S
C1574 H1566 0.929 . S
C1574 C1575 1.377 . S
C1574 C1576 1.384 . S
C1575 C1574 1.377 . S
C1575 C1581 1.390 . S
C1576 H1567 0.930 . S
C1576 C1574 1.384 . S
C1576 C1577 1.372 . S
C1577 C1576 1.372 . S
C1577 C1578 1.400 . S
C1577 C1582 1.490 . S
C1578 H1568 0.930 . S
C1578 C1577 1.400 . S
C1578 C1581 1.386 . S
H1579 C1595 0.930 . S
H1580 C1596 0.931 . S
C1581 H1569 0.929 . S
C1581 C1575 1.390 . S
C1581 C1578 1.386 . S
C1582 C1577 1.490 . S
C1582 C1584 1.395 . S
C1582 C1585 1.403 . S
H1583 C1589 0.930 . S
C1584 H1570 0.930 . S
C1584 C1582 1.395 . S
C1584 C1587 1.403 . S
C1585 C1582 1.403 . S
C1585 C1586 1.524 . S
C1585 C1589 1.400 1_455 S
C1586 H1571 0.960 1_455 S
C1586 H1572 0.960 . S
C1586 H1573 0.960 . S
C1586 C1585 1.524 . S
C1587 C1584 1.403 . S
C1587 C1588 1.392 1_455 S
C1587 C1591 1.495 . S
C1588 C1587 1.392 1_655 S
C1588 C1589 1.385 . S
C1588 C1590 1.478 . S
C1589 H1583 0.930 . S
C1589 C1585 1.400 1_655 S
C1589 C1588 1.385 . S
C1590 C1588 1.478 . S
C1590 C1592 1.381 . S
C1590 C1596 1.383 . S
C1591 C1587 1.495 . S
C1591 H1597 0.959 . S
C1591 H1598 0.961 . S
C1591 H1599 0.960 1_455 S
C1592 C1590 1.381 . S
C1592 C1593 1.394 . S
C1592 H1600 0.930 . S
C1593 C1592 1.394 . S
C1593 C1594 1.383 . S
C1593 H1601 0.929 . S
C1594 C1593 1.383 . S
C1594 C1595 1.377 . S
C1595 H1579 0.930 . S
C1595 C1594 1.377 . S
C1595 C1596 1.379 . S
C1596 H1580 0.931 . S
C1596 C1590 1.383 . S
C1596 C1595 1.379 . S
H1597 C1591 0.959 . S
H1598 C1591 0.961 . S
H1599 C1591 0.960 1_655 S
H1600 C1592 0.930 . S
H1601 C1593 0.929 . S
H1602 C1610 0.929 . S
H1603 C1612 0.930 . S
H1604 C1614 0.930 . S
H1605 C1617 0.929 . S
H1606 C1620 0.930 . S
H1607 C1622 0.960 . S
H1608 C1622 0.960 . S
H1609 C1622 0.960 . S
C1610 H1602 0.929 . S
C1610 C1611 1.377 . S
C1610 C1612 1.384 . S
C1611 C1610 1.377 . S
C1611 C1617 1.390 . S
C1612 H1603 0.930 . S
C1612 C1610 1.384 . S
C1612 C1613 1.372 . S
C1613 C1612 1.372 . S
C1613 C1614 1.400 . S
C1613 C1618 1.490 . S
C1614 H1604 0.930 . S
C1614 C1613 1.400 . S
C1614 C1617 1.386 . S
H1615 C1631 0.930 . S
H1616 C1632 0.931 . S
C1617 H1605 0.929 . S
C1617 C1611 1.390 . S
C1617 C1614 1.386 . S
C1618 C1613 1.490 . S
C1618 C1620 1.395 . S
C1618 C1621 1.403 . S
H1619 C1625 0.930 . S
C1620 H1606 0.930 . S
C1620 C1618 1.395 . S
C1620 C1623 1.403 . S
C1621 C1618 1.403 . S
C1621 C1622 1.524 . S
C1621 C1625 1.400 . S
C1622 H1607 0.960 . S
C1622 H1608 0.960 . S
C1622 H1609 0.960 . S
C1622 C1621 1.524 . S
C1623 C1620 1.403 . S
C1623 C1624 1.392 . S
C1623 C1627 1.495 . S
C1624 C1623 1.392 . S
C1624 C1625 1.385 . S
C1624 C1626 1.478 . S
C1625 H1619 0.930 . S
C1625 C1621 1.400 . S
C1625 C1624 1.385 . S
C1626 C1624 1.478 . S
C1626 C1628 1.381 . S
C1626 C1632 1.383 . S
C1627 C1623 1.495 . S
C1627 H1633 0.959 . S
C1627 H1634 0.961 . S
C1627 H1635 0.960 . S
C1628 C1626 1.381 . S
C1628 C1629 1.394 . S
C1628 H1636 0.930 . S
C1629 C1628 1.394 . S
C1629 C1630 1.383 . S
C1629 H1637 0.929 . S
C1630 C1629 1.383 . S
C1630 C1631 1.377 . S
C1631 H1615 0.930 . S
C1631 C1630 1.377 . S
C1631 C1632 1.379 . S
C1632 H1616 0.931 . S
C1632 C1626 1.383 . S
C1632 C1631 1.379 . S
H1633 C1627 0.959 . S
H1634 C1627 0.961 . S
H1635 C1627 0.960 . S
H1636 C1628 0.930 . S
H1637 C1629 0.929 . S
H1638 C1646 0.929 . S
H1639 C1648 0.930 . S
H1640 C1650 0.930 . S
H1641 C1653 0.929 . S
H1642 C1656 0.930 . S
H1643 C1658 0.960 . S
H1644 C1658 0.960 . S
H1645 C1658 0.960 . S
C1646 H1638 0.929 . S
C1646 C1647 1.377 . S
C1646 C1648 1.384 . S
C1647 C1646 1.377 . S
C1647 C1653 1.390 . S
C1648 H1639 0.930 . S
C1648 C1646 1.384 . S
C1648 C1649 1.372 . S
C1649 C1648 1.372 . S
C1649 C1650 1.400 . S
C1649 C1654 1.490 . S
C1650 H1640 0.930 . S
C1650 C1649 1.400 . S
C1650 C1653 1.386 . S
H1651 C1667 0.930 . S
H1652 C1668 0.931 . S
C1653 H1641 0.929 . S
C1653 C1647 1.390 . S
C1653 C1650 1.386 . S
C1654 C1649 1.490 . S
C1654 C1656 1.395 1_545 S
C1654 C1657 1.408 1_545 S
H1655 C1661 0.930 . S
C1656 H1642 0.930 . S
C1656 C1654 1.395 1_565 S
C1656 C1659 1.403 . S
C1657 C1654 1.408 1_565 S
C1657 C1658 1.488 1_565 S
C1657 C1661 1.433 . S
C1658 H1643 0.960 . S
C1658 H1644 0.960 . S
C1658 H1645 0.960 . S
C1658 C1657 1.488 1_545 S
C1659 C1656 1.403 . S
C1659 C1660 1.392 . S
C1659 C1663 1.495 . S
C1660 C1659 1.392 . S
C1660 C1661 1.385 . S
C1660 C1662 1.478 . S
C1661 H1655 0.930 . S
C1661 C1657 1.433 . S
C1661 C1660 1.385 . S
C1662 C1660 1.478 . S
C1662 C1664 1.381 . S
C1662 C1668 1.383 . S
C1663 C1659 1.495 . S
C1663 H1669 0.959 . S
C1663 H1670 0.961 . S
C1663 H1671 0.960 . S
C1664 C1662 1.381 . S
C1664 C1665 1.394 . S
C1664 H1672 0.930 . S
C1665 C1664 1.394 . S
C1665 C1666 1.383 . S
C1665 H1673 0.929 . S
C1666 C1665 1.383 . S
C1666 C1667 1.377 . S
C1667 H1651 0.930 . S
C1667 C1666 1.377 . S
C1667 C1668 1.379 . S
C1668 H1652 0.931 . S
C1668 C1662 1.383 . S
C1668 C1667 1.379 . S
H1669 C1663 0.959 . S
H1670 C1663 0.961 . S
H1671 C1663 0.960 . S
H1672 C1664 0.930 . S
H1673 C1665 0.929 . S
H1674 C1682 0.929 . S
H1675 C1684 0.930 . S
H1676 C1686 0.930 . S
H1677 C1689 0.929 . S
H1678 C1692 0.930 . S
H1679 C1694 0.960 . S
H1680 C1694 0.960 . S
H1681 C1694 0.960 . S
C1682 H1674 0.929 . S
C1682 C1683 1.377 . S
C1682 C1684 1.384 . S
C1683 C1682 1.377 . S
C1683 C1689 1.390 . S
C1684 H1675 0.930 . S
C1684 C1682 1.384 . S
C1684 C1685 1.372 . S
C1685 C1684 1.372 . S
C1685 C1686 1.400 . S
C1685 C1690 1.490 . S
C1686 H1676 0.930 . S
C1686 C1685 1.400 . S
C1686 C1689 1.386 . S
H1687 C1703 0.930 . S
H1688 C1704 0.931 . S
C1689 H1677 0.929 . S
C1689 C1683 1.390 . S
C1689 C1686 1.386 . S
C1690 C1685 1.490 . S
C1690 C1692 1.395 . S
C1690 C1693 1.403 . S
H1691 C1697 0.930 1_655 S
C1692 H1678 0.930 . S
C1692 C1690 1.395 . S
C1692 C1695 1.403 1_455 S
C1693 C1690 1.403 . S
C1693 C1694 1.524 . S
C1693 C1697 1.400 . S
C1694 H1679 0.960 . S
C1694 H1680 0.960 . S
C1694 H1681 0.960 . S
C1694 C1693 1.524 . S
C1695 C1692 1.403 1_655 S
C1695 C1696 1.392 . S
C1695 C1699 1.495 . S
C1696 C1695 1.392 . S
C1696 C1697 1.385 1_655 S
C1696 C1698 1.478 . S
C1697 H1691 0.930 1_455 S
C1697 C1693 1.400 . S
C1697 C1696 1.385 1_455 S
C1698 C1696 1.478 . S
C1698 C1700 1.381 . S
C1698 C1704 1.383 . S
C1699 C1695 1.495 . S
C1699 H1705 0.959 . S
C1699 H1706 0.961 . S
C1699 H1707 0.960 . S
C1700 C1698 1.381 . S
C1700 C1701 1.394 . S
C1700 H1708 0.930 . S
C1701 C1700 1.394 . S
C1701 C1702 1.383 . S
C1701 H1709 0.929 . S
C1702 C1701 1.383 . S
C1702 C1703 1.377 . S
C1703 H1687 0.930 . S
C1703 C1702 1.377 . S
C1703 C1704 1.379 . S
C1704 H1688 0.931 . S
C1704 C1698 1.383 . S
C1704 C1703 1.379 . S
H1705 C1699 0.959 . S
H1706 C1699 0.961 . S
H1707 C1699 0.960 . S
H1708 C1700 0.930 . S
H1709 C1701 0.929 . S
C423 N104 1.109 . S
C442 N12 1.085 . S
C459 N117 1.804 . S
C478 C39 1.819 . S
C495 N58 1.091 . S
C514 N71 1.118 . S
C531 N94 1.141 . S
C550 N2 1.124 . S
C567 N127 1.802 . S
C586 C30 1.832 . S
C603 N48 1.124 . S
C622 N81 1.127 . S
C639 N232 1.121 . S
C658 N150 1.124 . S
C675 N255 1.114 . S
C694 N173 1.136 . S
C711 N196 1.102 . S
C730 N209 1.077 . S
C747 N140 1.094 . S
C766 N242 1.119 . S
C783 N265 1.107 . S
C802 N163 1.126 . S
C819 N219 1.128 . S
C838 N186 1.126 . S
C855 N380 1.117 . S
C874 N288 1.127 . S
C891 C315 1.824 . S
C910 N403 1.807 . S
C927 N347 1.114 . S
C946 N324 1.112 . S
C963 N370 1.118 . S
C982 N278 1.117 . S
C999 N393 1.823 . S
C1018 C306 1.853 . S
C1035 N334 1.079 . S
C1054 N357 1.058 . S
C1071 C16 1.484 . S
C1090 C214 1.489 . S
C1107 C237 1.564 . S
C1126 N35 1.530 . S
C1143 C260 1.532 . S
C1162 C62 1.527 1_565 S
C1179 C76 1.565 . S
C1198 C292 1.567 . S
C1215 N311 1.483 . S
C1234 C108 1.502 . S
C1251 C329 1.571 . S
C1270 C122 1.576 . S
C1287 C361 1.476 . S
C1306 C7 1.481 . S
C1323 C375 1.589 . S
C1342 N25 1.585 . S
C1359 C398 1.526 . S
C1378 C53 1.523 . S
C1395 C85 1.526 . S
C1414 C145 1.534 . S
C1431 C99 1.536 . S
C1450 C168 1.536 . S
C1467 C191 1.547 . S
C1486 C131 1.529 . S
C1503 C352 1.529 . S
C1522 C154 1.528 . S
C1539 C384 1.547 . S
C1558 C177 1.567 . S
C1575 C200 1.525 . S
C1594 C407 1.504 . S
C1611 C283 1.559 . S
C1630 C223 1.559 . S
C1647 N301 1.494 . S
C1666 C246 1.479 . S
C1683 C269 1.540 . S
C1702 C338 1.558 . S
