# Generated by pormake.
# Topology umg, (4)-cn, num edge types: 1
# Building blocks:
#     Node 0, Type 0, BuildingBlock: KOZSID_clean_sbu_0, # of connection points: 4
#     Node 1, Type 0, BuildingBlock: KOZSID_clean_sbu_0, # of connection points: 4
#     Node 2, Type 0, BuildingBlock: KOZSID_clean_sbu_0, # of connection points: 4
#     Node 3, Type 0, BuildingBlock: KOZSID_clean_sbu_0, # of connection points: 4
#     Node 4, Type 0, BuildingBlock: KOZSID_clean_sbu_0, # of connection points: 4
#     Node 5, Type 0, BuildingBlock: KOZSID_clean_sbu_0, # of connection points: 4
#     Node 6, Type 0, BuildingBlock: KOZSID_clean_sbu_0, # of connection points: 4
#     Node 7, Type 0, BuildingBlock: KOZSID_clean_sbu_0, # of connection points: 4
#     Node 8, Type 0, BuildingBlock: KOZSID_clean_sbu_0, # of connection points: 4
#     Node 9, Type 0, BuildingBlock: KOZSID_clean_sbu_0, # of connection points: 4
#     Node 10, Type 0, BuildingBlock: KOZSID_clean_sbu_0, # of connection points: 4
#     Node 11, Type 0, BuildingBlock: KOZSID_clean_sbu_0, # of connection points: 4
#     Edge 12, Type (0, 0), BuildingBlock: XIVTED_clean_linker_0, # of connection points: 2
#     Edge 13, Type (0, 0), BuildingBlock: XIVTED_clean_linker_0, # of connection points: 2
#     Edge 14, Type (0, 0), BuildingBlock: XIVTED_clean_linker_0, # of connection points: 2
#     Edge 15, Type (0, 0), BuildingBlock: XIVTED_clean_linker_0, # of connection points: 2
#     Edge 16, Type (0, 0), BuildingBlock: XIVTED_clean_linker_0, # of connection points: 2
#     Edge 17, Type (0, 0), BuildingBlock: XIVTED_clean_linker_0, # of connection points: 2
#     Edge 18, Type (0, 0), BuildingBlock: XIVTED_clean_linker_0, # of connection points: 2
#     Edge 19, Type (0, 0), BuildingBlock: XIVTED_clean_linker_0, # of connection points: 2
#     Edge 20, Type (0, 0), BuildingBlock: XIVTED_clean_linker_0, # of connection points: 2
#     Edge 21, Type (0, 0), BuildingBlock: XIVTED_clean_linker_0, # of connection points: 2
#     Edge 22, Type (0, 0), BuildingBlock: XIVTED_clean_linker_0, # of connection points: 2
#     Edge 23, Type (0, 0), BuildingBlock: XIVTED_clean_linker_0, # of connection points: 2
#     Edge 24, Type (0, 0), BuildingBlock: XIVTED_clean_linker_0, # of connection points: 2
#     Edge 25, Type (0, 0), BuildingBlock: XIVTED_clean_linker_0, # of connection points: 2
#     Edge 26, Type (0, 0), BuildingBlock: XIVTED_clean_linker_0, # of connection points: 2
#     Edge 27, Type (0, 0), BuildingBlock: XIVTED_clean_linker_0, # of connection points: 2
#     Edge 28, Type (0, 0), BuildingBlock: XIVTED_clean_linker_0, # of connection points: 2
#     Edge 29, Type (0, 0), BuildingBlock: XIVTED_clean_linker_0, # of connection points: 2
#     Edge 30, Type (0, 0), BuildingBlock: XIVTED_clean_linker_0, # of connection points: 2
#     Edge 31, Type (0, 0), BuildingBlock: XIVTED_clean_linker_0, # of connection points: 2
#     Edge 32, Type (0, 0), BuildingBlock: XIVTED_clean_linker_0, # of connection points: 2
#     Edge 33, Type (0, 0), BuildingBlock: XIVTED_clean_linker_0, # of connection points: 2
#     Edge 34, Type (0, 0), BuildingBlock: XIVTED_clean_linker_0, # of connection points: 2
#     Edge 35, Type (0, 0), BuildingBlock: XIVTED_clean_linker_0, # of connection points: 2
# Relax obj value: 0.044
# Max RMSD: 0.153
# Mean RMSD: 0.153
data_MOF--net-umg--node1-KOZSID_clean_sbu_0--edge1-XIVTED_clean_linker_0
_symmetry_space_group_name_H-M    P1
_symmetry_Int_Tables_number       1
_symmetry_cell_setting            triclinic
loop_
_symmetry_equiv_pos_as_xyz
'x, y, z'
_cell_length_a     39.403133
_cell_length_b     39.419021
_cell_length_c     93.817792
_cell_angle_alpha  89.993846
_cell_angle_beta   89.992216
_cell_angle_gamma 120.06961
loop_
_atom_site_label
_atom_site_type_symbol
_atom_site_fract_x
_atom_site_fract_y
_atom_site_fract_z
_atom_type_partial_charge
C0 C 0.25177 0.52023 0.12404 0.0
C1 C 0.23212 0.49178 0.13438 0.0
C2 C 0.22065 0.45637 0.12811 0.0
C3 C 0.23335 0.46493 0.11428 0.0
N4 N 0.25293 0.50379 0.11138 0.0
Co5 Co 0.27068 0.52847 0.09205 0.0
N6 N 0.24788 0.47614 0.08234 0.0
C7 C 0.23163 0.44071 0.08877 0.0
C8 C 0.21876 0.41004 0.07938 0.0
C9 C 0.22724 0.42689 0.06615 0.0
C10 C 0.24479 0.46702 0.06824 0.0
N11 N 0.28686 0.55349 0.07276 0.0
C12 C 0.27888 0.53717 0.05957 0.0
C13 C 0.29454 0.56553 0.04896 0.0
C14 C 0.31275 0.60098 0.05565 0.0
C15 C 0.30716 0.59233 0.0699 0.0
N16 N 0.29449 0.58077 0.10172 0.0
C17 C 0.31705 0.61619 0.09559 0.0
C18 C 0.33081 0.64689 0.10497 0.0
C19 C 0.31551 0.63017 0.11784 0.0
C20 C 0.29264 0.59006 0.11551 0.0
N21 N 0.32162 0.52864 0.09404 0.0
C22 C 0.39098 0.52338 0.09407 0.0
C23 C 0.3912 0.55675 0.08889 0.0
C24 C 0.35644 0.55864 0.08887 0.0
C25 C 0.35602 0.49359 0.09978 0.0
C26 C 0.32239 0.4971 0.0999 0.0
N27 N 0.21993 0.52745 0.08997 0.0
C28 C 0.18196 0.55949 0.08576 0.0
C29 C 0.1467 0.52381 0.08723 0.0
C30 C 0.14899 0.49034 0.09016 0.0
C31 C 0.18537 0.49281 0.09156 0.0
C32 C 0.21811 0.5606 0.08703 0.0
H33 H 0.18467 0.46614 0.09403 0.0
H34 H 0.24431 0.5884 0.08563 0.0
H35 H 0.35849 0.58443 0.08441 0.0
H36 H 0.29733 0.47347 0.10469 0.0
C37 C 0.22488 0.43713 0.10351 0.0
C38 C 0.2678 0.56241 0.12652 0.0
C39 C 0.25696 0.49521 0.05653 0.0
C40 C 0.32099 0.61996 0.08084 0.0
H41 H 0.22564 0.49585 0.14523 0.0
H42 H 0.20364 0.42768 0.13291 0.0
H43 H 0.20378 0.37904 0.08183 0.0
H44 H 0.2206 0.41141 0.05609 0.0
H45 H 0.29299 0.56107 0.03754 0.0
H46 H 0.32813 0.62965 0.05072 0.0
H47 H 0.34858 0.67785 0.10263 0.0
H48 H 0.31977 0.64591 0.12774 0.0
H49 H 0.41778 0.58082 0.08446 0.0
H50 H 0.35461 0.46756 0.10425 0.0
H51 H 0.18165 0.58626 0.08347 0.0
H52 H 0.12267 0.46219 0.09168 0.0
C53 C 0.74311 0.25937 0.45632 0.0
C54 C 0.75649 0.24669 0.46766 0.0
C55 C 0.77997 0.23375 0.46199 0.0
C56 C 0.77985 0.23944 0.44756 0.0
N57 N 0.75797 0.25559 0.44371 0.0
Co58 Co 0.7493 0.2682 0.42379 0.0
N59 N 0.77584 0.24086 0.41516 0.0
C60 C 0.79145 0.22214 0.42233 0.0
C61 C 0.80602 0.20455 0.41358 0.0
C62 C 0.79886 0.21208 0.40002 0.0
C63 C 0.78048 0.23411 0.40127 0.0
N64 N 0.74186 0.28233 0.40397 0.0
C65 C 0.75132 0.27335 0.39117 0.0
C66 C 0.74222 0.2906 0.38001 0.0
C67 C 0.72624 0.31093 0.38595 0.0
C68 C 0.72662 0.30512 0.40032 0.0
N69 N 0.72059 0.29339 0.43232 0.0
C70 C 0.70484 0.31195 0.42516 0.0
C71 C 0.68363 0.32305 0.43352 0.0
C72 C 0.68524 0.31021 0.44684 0.0
C73 C 0.7079 0.29233 0.44587 0.0
N74 N 0.80078 0.31881 0.42486 0.0
C75 C 0.87494 0.38932 0.42605 0.0
C76 C 0.84004 0.3901 0.42399 0.0
C77 C 0.80365 0.35487 0.42344 0.0
C78 C 0.87166 0.35252 0.4274 0.0
C79 C 0.83506 0.31838 0.42688 0.0
N80 N 0.69884 0.21769 0.42273 0.0
C81 C 0.63193 0.17743 0.41437 0.0
C82 C 0.62874 0.14453 0.42137 0.0
C83 C 0.66117 0.14895 0.4289 0.0
C84 C 0.69555 0.18515 0.42933 0.0
C85 C 0.66701 0.21378 0.41533 0.0
H86 H 0.71918 0.18593 0.43509 0.0
H87 H 0.66795 0.2384 0.41007 0.0
H88 H 0.77832 0.35763 0.42185 0.0
H89 H 0.83576 0.29204 0.42808 0.0
C90 C 0.7937 0.22353 0.43726 0.0
C91 C 0.71559 0.27385 0.45801 0.0
C92 C 0.76818 0.24817 0.38899 0.0
C93 C 0.70931 0.31728 0.41048 0.0
H94 H 0.7491 0.24583 0.47881 0.0
H95 H 0.7937 0.21985 0.46764 0.0
H96 H 0.82036 0.18837 0.4167 0.0
H97 H 0.80643 0.20263 0.39029 0.0
H98 H 0.74621 0.28831 0.3687 0.0
H99 H 0.71472 0.32711 0.38043 0.0
H100 H 0.6679 0.33771 0.43025 0.0
H101 H 0.67058 0.31305 0.45613 0.0
H102 H 0.84057 0.41771 0.42297 0.0
H103 H 0.89743 0.34965 0.42865 0.0
H104 H 0.60732 0.17529 0.40846 0.0
H105 H 0.66022 0.12423 0.43434 0.0
C106 C 0.48639 0.73826 0.78957 0.0
C107 C 0.51226 0.7553 0.80085 0.0
C108 C 0.54633 0.78528 0.79519 0.0
C109 C 0.5394 0.78496 0.78081 0.0
N110 N 0.50318 0.7566 0.77712 0.0
Co111 Co 0.48125 0.74572 0.75753 0.0
N112 N 0.53407 0.77524 0.74867 0.0
C113 C 0.56703 0.80169 0.75537 0.0
C114 C 0.59901 0.81859 0.74648 0.0
C115 C 0.58516 0.80207 0.73333 0.0
C116 C 0.54535 0.77594 0.73494 0.0
N117 N 0.45873 0.73436 0.73802 0.0
C118 C 0.47622 0.7377 0.72526 0.0
C119 C 0.4493 0.72728 0.7142 0.0
C120 C 0.41403 0.71764 0.72027 0.0
C121 C 0.42122 0.72261 0.73463 0.0
N122 N 0.42843 0.71664 0.76636 0.0
C123 C 0.39423 0.70714 0.75995 0.0
C124 C 0.3623 0.68618 0.76859 0.0
C125 C 0.37732 0.68235 0.78126 0.0
C126 C 0.41782 0.70156 0.77966 0.0
N127 N 0.47892 0.79488 0.75788 0.0
C128 C 0.48513 0.8699 0.75902 0.0
C129 C 0.49545 0.8567 0.74673 0.0
C130 C 0.49182 0.81946 0.74634 0.0
C131 C 0.47045 0.84368 0.77063 0.0
C132 C 0.4676 0.80657 0.76985 0.0
N133 N 0.48485 0.69748 0.75718 0.0
C134 C 0.45723 0.62802 0.75279 0.0
C135 C 0.49255 0.62965 0.75677 0.0
C136 C 0.52373 0.66642 0.76087 0.0
C137 C 0.51921 0.69944 0.76113 0.0
C138 C 0.45407 0.66213 0.753 0.0
H139 H 0.5439 0.72677 0.76451 0.0
H140 H 0.4267 0.65988 0.74982 0.0
H141 H 0.50072 0.81119 0.73672 0.0
H142 H 0.45693 0.78762 0.77905 0.0
C143 C 0.56759 0.80577 0.77026 0.0
C144 C 0.44534 0.70672 0.79114 0.0
C145 C 0.51861 0.7549 0.72306 0.0
C146 C 0.39275 0.71156 0.74524 0.0
H147 H 0.50697 0.747 0.81197 0.0
H148 H 0.57337 0.80401 0.80081 0.0
H149 H 0.62899 0.8397 0.74926 0.0
H150 H 0.60224 0.80889 0.72363 0.0
H151 H 0.4547 0.72746 0.70288 0.0
H152 H 0.3863 0.70741 0.71487 0.0
H153 H 0.33165 0.67344 0.76581 0.0
H154 H 0.36026 0.66695 0.79054 0.0
H155 H 0.50754 0.87535 0.73748 0.0
H156 H 0.46121 0.85161 0.78031 0.0
H157 H 0.43188 0.60058 0.74968 0.0
H158 H 0.55203 0.6702 0.76371 0.0
C159 C 0.77084 0.49476 0.12398 0.0
C160 C 0.79083 0.52329 0.13425 0.0
C161 C 0.80198 0.55865 0.12799 0.0
C162 C 0.7888 0.54998 0.11422 0.0
N163 N 0.76917 0.51109 0.11137 0.0
Co164 Co 0.75121 0.48633 0.09206 0.0
N165 N 0.7734 0.53855 0.08233 0.0
C166 C 0.789 0.57392 0.08877 0.0
C167 C 0.80142 0.60454 0.07937 0.0
C168 C 0.7933 0.5877 0.06614 0.0
C169 C 0.77642 0.54764 0.06823 0.0
N170 N 0.73519 0.46124 0.07278 0.0
C171 C 0.74329 0.47751 0.05959 0.0
C172 C 0.72788 0.44909 0.04899 0.0
C173 C 0.70972 0.41367 0.05571 0.0
C174 C 0.71511 0.42239 0.06995 0.0
N175 N 0.72767 0.43412 0.10176 0.0
C176 C 0.7048 0.39872 0.09568 0.0
C177 C 0.69103 0.36808 0.10509 0.0
C178 C 0.70662 0.38484 0.11792 0.0
C179 C 0.72967 0.42491 0.11554 0.0
N180 N 0.70008 0.48578 0.09415 0.0
C181 C 0.63002 0.4904 0.09503 0.0
C182 C 0.63069 0.45834 0.0888 0.0
C183 C 0.6656 0.45672 0.08843 0.0
C184 C 0.66509 0.51936 0.10113 0.0
C185 C 0.69888 0.51619 0.10078 0.0
N186 N 0.80214 0.48776 0.08999 0.0
C187 C 0.84078 0.45595 0.08687 0.0
C188 C 0.87583 0.49167 0.08881 0.0
C189 C 0.87297 0.52523 0.09086 0.0
C190 C 0.83646 0.52264 0.09147 0.0
C191 C 0.80439 0.45465 0.08747 0.0
H192 H 0.83685 0.54947 0.09328 0.0
H193 H 0.77834 0.4267 0.08604 0.0
H194 H 0.66385 0.43173 0.08335 0.0
H195 H 0.72378 0.53932 0.10582 0.0
C196 C 0.79633 0.57763 0.10347 0.0
C197 C 0.75488 0.45259 0.12647 0.0
C198 C 0.76494 0.51948 0.05653 0.0
C199 C 0.70099 0.39486 0.08093 0.0
H200 H 0.79768 0.5193 0.14506 0.0
H201 H 0.81901 0.58738 0.13276 0.0
H202 H 0.81605 0.63553 0.08181 0.0
H203 H 0.79984 0.60317 0.05608 0.0
H204 H 0.72948 0.4535 0.03757 0.0
H205 H 0.69443 0.38497 0.0508 0.0
H206 H 0.67315 0.33711 0.10278 0.0
H207 H 0.70248 0.36915 0.12783 0.0
H208 H 0.60445 0.43433 0.0842 0.0
H209 H 0.66721 0.54528 0.10595 0.0
H210 H 0.84128 0.42903 0.0852 0.0
H211 H 0.89896 0.55382 0.09198 0.0
C212 C 0.28214 0.76445 0.45808 0.0
C213 C 0.27194 0.78245 0.46862 0.0
C214 C 0.2485 0.79449 0.46233 0.0
C215 C 0.24591 0.78369 0.44832 0.0
N216 N 0.26585 0.76484 0.4453 0.0
Co217 Co 0.274 0.74857 0.42584 0.0
N218 N 0.24716 0.77416 0.41612 0.0
C219 C 0.23009 0.79258 0.42252 0.0
C220 C 0.2146 0.80781 0.41311 0.0
C221 C 0.22236 0.79873 0.39989 0.0
C222 C 0.24222 0.7784 0.402 0.0
N223 N 0.28259 0.73234 0.40651 0.0
C224 C 0.27422 0.74032 0.39333 0.0
C225 C 0.2858 0.72366 0.38272 0.0
C226 C 0.30195 0.70444 0.38941 0.0
C227 C 0.29944 0.71048 0.40365 0.0
N228 N 0.30131 0.7235 0.4355 0.0
C229 C 0.3149 0.70171 0.42927 0.0
C230 C 0.33189 0.68788 0.43858 0.0
C231 C 0.32997 0.70251 0.45152 0.0
C232 C 0.31231 0.725 0.4493 0.0
N233 N 0.22219 0.69836 0.42728 0.0
C234 C 0.14691 0.62944 0.42684 0.0
C235 C 0.1808 0.62812 0.42337 0.0
C236 C 0.21776 0.66261 0.42359 0.0
C237 C 0.15169 0.66552 0.43103 0.0
C238 C 0.18899 0.69893 0.43131 0.0
N239 N 0.3248 0.79863 0.4243 0.0
C240 C 0.39354 0.83624 0.41768 0.0
C241 C 0.3956 0.87103 0.42231 0.0
C242 C 0.36169 0.86884 0.42777 0.0
C243 C 0.32705 0.83294 0.42855 0.0
C244 C 0.35805 0.80036 0.41892 0.0
H245 H 0.3024 0.83382 0.43264 0.0
H246 H 0.35793 0.77432 0.41555 0.0
H247 H 0.24214 0.65958 0.42056 0.0
H248 H 0.1898 0.72489 0.43473 0.0
C249 C 0.23022 0.79605 0.4374 0.0
C250 C 0.30876 0.74896 0.46048 0.0
C251 C 0.25565 0.7636 0.39028 0.0
C252 C 0.31379 0.6971 0.41453 0.0
H253 H 0.28153 0.78782 0.47959 0.0
H254 H 0.23672 0.81128 0.46723 0.0
H255 H 0.19978 0.82397 0.41555 0.0
H256 H 0.21446 0.8063 0.38982 0.0
H257 H 0.2831 0.72538 0.3713 0.0
H258 H 0.31446 0.68836 0.38447 0.0
H259 H 0.34521 0.67029 0.43617 0.0
H260 H 0.34131 0.698 0.46141 0.0
H261 H 0.17879 0.6008 0.42012 0.0
H262 H 0.12662 0.66808 0.43421 0.0
H263 H 0.41928 0.83661 0.41343 0.0
H264 H 0.36171 0.89502 0.43132 0.0
C265 C 0.53283 0.28203 0.78911 0.0
C266 C 0.50724 0.26553 0.80049 0.0
C267 C 0.47265 0.23602 0.79497 0.0
C268 C 0.47903 0.23605 0.78057 0.0
N269 N 0.51538 0.26378 0.77671 0.0
Co270 Co 0.53661 0.27391 0.75701 0.0
N271 N 0.48344 0.24519 0.74838 0.0
C272 C 0.45042 0.21958 0.75527 0.0
C273 C 0.418 0.20366 0.74658 0.0
C274 C 0.4316 0.2199 0.73339 0.0
C275 C 0.47176 0.2448 0.73472 0.0
N276 N 0.55843 0.28446 0.7374 0.0
C277 C 0.54065 0.28102 0.72468 0.0
C278 C 0.56704 0.28988 0.71351 0.0
C279 C 0.60226 0.2989 0.71947 0.0
C280 C 0.59557 0.295 0.73387 0.0
N281 N 0.58978 0.30226 0.76562 0.0
C282 C 0.62354 0.31091 0.75904 0.0
C283 C 0.65591 0.33159 0.76751 0.0
C284 C 0.64165 0.33609 0.78024 0.0
C285 C 0.60111 0.31748 0.77887 0.0
N286 N 0.53781 0.22415 0.75737 0.0
C287 C 0.53124 0.14895 0.75835 0.0
C288 C 0.52031 0.16211 0.74621 0.0
C289 C 0.52409 0.19941 0.74589 0.0
C290 C 0.54645 0.17519 0.76993 0.0
C291 C 0.54948 0.2124 0.76924 0.0
N292 N 0.53417 0.32277 0.75663 0.0
C293 C 0.56277 0.39213 0.75178 0.0
C294 C 0.52765 0.39098 0.75555 0.0
C295 C 0.49627 0.355 0.76006 0.0
C296 C 0.50022 0.32166 0.76066 0.0
C297 C 0.56529 0.35769 0.75226 0.0
H298 H 0.47545 0.29481 0.76436 0.0
H299 H 0.59232 0.35924 0.74901 0.0
H300 H 0.5148 0.20767 0.73637 0.0
H301 H 0.5607 0.23142 0.7784 0.0
C302 C 0.4503 0.21567 0.77015 0.0
C303 C 0.57422 0.31288 0.79053 0.0
C304 C 0.49829 0.26498 0.72265 0.0
C305 C 0.62432 0.30582 0.74435 0.0
H306 H 0.51303 0.27386 0.8116 0.0
H307 H 0.44567 0.2178 0.80072 0.0
H308 H 0.3879 0.18349 0.74956 0.0
H309 H 0.41403 0.21374 0.72385 0.0
H310 H 0.56135 0.28897 0.7022 0.0
H311 H 0.62962 0.30791 0.71396 0.0
H312 H 0.68639 0.34366 0.76457 0.0
H313 H 0.65924 0.35149 0.78942 0.0
H314 H 0.50772 0.1434 0.737 0.0
H315 H 0.55608 0.16723 0.77952 0.0
H316 H 0.58784 0.41923 0.74819 0.0
H317 H 0.46878 0.35264 0.76331 0.0
C318 C 0.49621 0.76119 0.55073 0.0
C319 C 0.52457 0.77518 0.54011 0.0
C320 C 0.55815 0.77909 0.54611 0.0
C321 C 0.54882 0.7679 0.56009 0.0
N322 N 0.51151 0.75735 0.56323 0.0
Co323 Co 0.48721 0.74322 0.58248 0.0
N324 N 0.53888 0.76674 0.5922 0.0
C325 C 0.57303 0.77544 0.58593 0.0
C326 C 0.60395 0.79045 0.5953 0.0
C327 C 0.58813 0.79069 0.60831 0.0
C328 C 0.54825 0.77562 0.60616 0.0
N329 N 0.4622 0.72927 0.60158 0.0
C330 C 0.47779 0.74216 0.61471 0.0
C331 C 0.44954 0.7234 0.62523 0.0
C332 C 0.41546 0.69764 0.61845 0.0
C333 C 0.42461 0.70199 0.60422 0.0
N334 N 0.4356 0.71893 0.57279 0.0
C335 C 0.40129 0.69148 0.5784 0.0
C336 C 0.37061 0.67847 0.569 0.0
C337 C 0.38666 0.69905 0.55669 0.0
C338 C 0.42635 0.72383 0.55934 0.0
N339 N 0.48669 0.69276 0.58165 0.0
C340 C 0.49527 0.62556 0.58021 0.0
C341 C 0.4838 0.63892 0.56821 0.0
C342 C 0.47941 0.6722 0.56918 0.0
C343 C 0.50068 0.64604 0.59303 0.0
C344 C 0.49657 0.6793 0.5935 0.0
N345 N 0.489 0.79404 0.58337 0.0
C346 C 0.45906 0.83353 0.58805 0.0
C347 C 0.49462 0.86813 0.5852 0.0
C348 C 0.52688 0.8645 0.58121 0.0
C349 C 0.52342 0.82754 0.58027 0.0
C350 C 0.45695 0.79683 0.58718 0.0
H351 H 0.54893 0.82625 0.57704 0.0
H352 H 0.42954 0.77075 0.58967 0.0
H353 H 0.47111 0.68188 0.55972 0.0
H354 H 0.50235 0.69457 0.6035 0.0
C355 C 0.57573 0.77457 0.57103 0.0
C356 C 0.45463 0.74995 0.54865 0.0
C357 C 0.51986 0.76736 0.61773 0.0
C358 C 0.39796 0.68417 0.59305 0.0
H359 H 0.52184 0.78251 0.52924 0.0
H360 H 0.58658 0.79095 0.54108 0.0
H361 H 0.63451 0.80102 0.59291 0.0
H362 H 0.60406 0.80045 0.61825 0.0
H363 H 0.45336 0.72687 0.63666 0.0
H364 H 0.38731 0.67833 0.62331 0.0
H365 H 0.33999 0.65769 0.571 0.0
H366 H 0.3709 0.69603 0.54689 0.0
H367 H 0.47925 0.62458 0.55799 0.0
H368 H 0.5083 0.63672 0.60277 0.0
H369 H 0.43329 0.83483 0.59119 0.0
H370 H 0.55474 0.89016 0.57863 0.0
C371 C 0.73849 0.49197 0.88356 0.0
C372 C 0.74849 0.51963 0.87284 0.0
C373 C 0.77125 0.55551 0.879 0.0
C374 C 0.77396 0.54785 0.89308 0.0
N375 N 0.75484 0.50915 0.89626 0.0
Co376 Co 0.7488 0.48538 0.91571 0.0
N377 N 0.77852 0.53823 0.92509 0.0
C378 C 0.79678 0.57343 0.91844 0.0
C379 C 0.81483 0.60456 0.92764 0.0
C380 C 0.80764 0.58831 0.94096 0.0
C381 C 0.78545 0.54805 0.93912 0.0
N382 N 0.74121 0.46135 0.93515 0.0
C383 C 0.75086 0.4783 0.94822 0.0
C384 C 0.73882 0.45045 0.95901 0.0
C385 C 0.72084 0.41471 0.95255 0.0
C386 C 0.7228 0.42269 0.93827 0.0
N387 N 0.71981 0.43248 0.90635 0.0
C388 C 0.7058 0.39731 0.91283 0.0
C389 C 0.68567 0.36593 0.90395 0.0
C390 C 0.68651 0.38184 0.89099 0.0
C391 C 0.70754 0.42233 0.89267 0.0
N392 N 0.79963 0.48549 0.91348 0.0
C393 C 0.87477 0.49115 0.91284 0.0
C394 C 0.84162 0.45787 0.91833 0.0
C395 C 0.80478 0.45568 0.91855 0.0
C396 C 0.86885 0.52074 0.9073 0.0
C397 C 0.83167 0.5171 0.90754 0.0
N398 N 0.6989 0.48613 0.91801 0.0
C399 C 0.62895 0.45391 0.92265 0.0
C400 C 0.62897 0.48922 0.92079 0.0
C401 C 0.66451 0.52266 0.91751 0.0
C402 C 0.69857 0.52045 0.91608 0.0
C403 C 0.66415 0.4531 0.92138 0.0
H404 H 0.72429 0.54703 0.9133 0.0
H405 H 0.66274 0.42557 0.92312 0.0
H406 H 0.78099 0.4297 0.92298 0.0
H407 H 0.83006 0.54085 0.90301 0.0
C408 C 0.7932 0.57627 0.90368 0.0
C409 C 0.71338 0.44974 0.88112 0.0
C410 C 0.77116 0.52037 0.95102 0.0
C411 C 0.70748 0.39455 0.92757 0.0
H412 H 0.73987 0.5144 0.86175 0.0
H413 H 0.78377 0.58386 0.87387 0.0
H414 H 0.83046 0.63545 0.92501 0.0
H415 H 0.81715 0.60423 0.95092 0.0
H416 H 0.74248 0.45542 0.97039 0.0
H417 H 0.70764 0.38627 0.95765 0.0
H418 H 0.6705 0.33513 0.90672 0.0
H419 H 0.67199 0.36522 0.88153 0.0
H420 H 0.8438 0.4334 0.92245 0.0
H421 H 0.89296 0.54751 0.90304 0.0
H422 H 0.60206 0.42718 0.92525 0.0
H423 H 0.666 0.55053 0.91572 0.0
C424 C 0.25197 0.73387 0.21718 0.0
C425 C 0.23148 0.74197 0.20698 0.0
C426 C 0.22002 0.76584 0.21331 0.0
C427 C 0.23355 0.77061 0.22703 0.0
N428 N 0.25365 0.75182 0.2298 0.0
Co429 Co 0.27255 0.74573 0.24902 0.0
N430 N 0.25012 0.77539 0.25885 0.0
C431 C 0.23371 0.79448 0.25248 0.0
C432 C 0.22123 0.81248 0.26194 0.0
C433 C 0.23017 0.80436 0.27513 0.0
C434 C 0.24754 0.78169 0.27295 0.0
N435 N 0.28963 0.73748 0.26823 0.0
C436 C 0.28202 0.74592 0.28145 0.0
C437 C 0.29796 0.73334 0.29199 0.0
C438 C 0.31605 0.71614 0.28519 0.0
C439 C 0.31006 0.71906 0.27098 0.0
N440 N 0.29624 0.71737 0.23922 0.0
C441 C 0.31948 0.70518 0.24521 0.0
C442 C 0.33318 0.68839 0.23576 0.0
C443 C 0.31717 0.68924 0.22298 0.0
C444 C 0.29395 0.70599 0.22544 0.0
N445 N 0.32321 0.79664 0.24666 0.0
C446 C 0.39271 0.87179 0.24567 0.0
C447 C 0.39273 0.83911 0.25163 0.0
C448 C 0.3581 0.80235 0.25205 0.0
C449 C 0.35728 0.86539 0.23985 0.0
C450 C 0.32373 0.82817 0.24024 0.0
N451 N 0.22206 0.69586 0.25143 0.0
C452 C 0.18453 0.62563 0.25533 0.0
C453 C 0.14915 0.62589 0.25426 0.0
C454 C 0.15115 0.66171 0.25175 0.0
C455 C 0.18736 0.6958 0.2503 0.0
C456 C 0.22055 0.66087 0.25404 0.0
H457 H 0.18642 0.7218 0.24812 0.0
H458 H 0.24688 0.6594 0.25512 0.0
H459 H 0.36036 0.77916 0.25692 0.0
H460 H 0.29844 0.82611 0.23543 0.0
C461 C 0.22592 0.79053 0.23781 0.0
C462 C 0.2684 0.70813 0.21459 0.0
C463 C 0.26012 0.76588 0.2846 0.0
C464 C 0.32386 0.70551 0.25995 0.0
H465 H 0.22451 0.73106 0.19618 0.0
H466 H 0.2026 0.77716 0.20861 0.0
H467 H 0.2061 0.82838 0.25956 0.0
H468 H 0.22391 0.81339 0.28522 0.0
H469 H 0.29667 0.73628 0.30342 0.0
H470 H 0.33165 0.703 0.29004 0.0
H471 H 0.35134 0.6756 0.23799 0.0
H472 H 0.32118 0.67768 0.21306 0.0
H473 H 0.4193 0.84157 0.25597 0.0
H474 H 0.3547 0.88913 0.23522 0.0
H475 H 0.18444 0.59851 0.25731 0.0
H476 H 0.12469 0.66341 0.25056 0.0
C477 C 0.53074 0.25169 0.55018 0.0
C478 C 0.50354 0.23453 0.53929 0.0
C479 C 0.46741 0.22137 0.54524 0.0
C480 C 0.47449 0.23116 0.55939 0.0
N481 N 0.51303 0.25038 0.5628 0.0
Co482 Co 0.53584 0.26697 0.58244 0.0
N483 N 0.48261 0.24555 0.5914 0.0
C484 C 0.44792 0.22994 0.58445 0.0
C485 C 0.4164 0.21869 0.59333 0.0
C486 C 0.43186 0.22786 0.60675 0.0
C487 C 0.47208 0.24406 0.6053 0.0
N488 N 0.55881 0.2819 0.60208 0.0
C489 C 0.54119 0.27579 0.61501 0.0
C490 C 0.56845 0.28916 0.62602 0.0
C491 C 0.60448 0.30463 0.61987 0.0
C492 C 0.59724 0.29956 0.60553 0.0
N493 N 0.58919 0.28984 0.57349 0.0
C494 C 0.62405 0.30958 0.58027 0.0
C495 C 0.65585 0.32115 0.57157 0.0
C496 C 0.64051 0.30786 0.55839 0.0
C497 C 0.59995 0.289 0.55979 0.0
N498 N 0.53804 0.31877 0.58024 0.0
C499 C 0.53579 0.39001 0.57907 0.0
C500 C 0.56683 0.38822 0.58571 0.0
C501 C 0.56742 0.35273 0.58615 0.0
C502 C 0.50665 0.35547 0.57274 0.0
C503 C 0.50853 0.32097 0.57332 0.0
N504 N 0.53277 0.21499 0.58458 0.0
C505 C 0.563 0.17472 0.58763 0.0
C506 C 0.52697 0.1401 0.58552 0.0
C507 C 0.49399 0.14406 0.58343 0.0
C508 C 0.49751 0.18109 0.58292 0.0
C509 C 0.5652 0.21156 0.5872 0.0
H510 H 0.47105 0.18133 0.58102 0.0
H511 H 0.59344 0.23693 0.58884 0.0
H512 H 0.59177 0.35336 0.59143 0.0
H513 H 0.48515 0.29629 0.56823 0.0
C514 C 0.44576 0.22315 0.56973 0.0
C515 C 0.57306 0.26906 0.54796 0.0
C516 C 0.49902 0.25771 0.61743 0.0
C517 C 0.62595 0.31237 0.59505 0.0
H518 H 0.50926 0.23171 0.52819 0.0
H519 H 0.4393 0.20623 0.53991 0.0
H520 H 0.38573 0.2048 0.59041 0.0
H521 H 0.41544 0.22298 0.61652 0.0
H522 H 0.56298 0.28797 0.63736 0.0
H523 H 0.63262 0.31814 0.6252 0.0
H524 H 0.68649 0.33589 0.57457 0.0
H525 H 0.65748 0.3107 0.54895 0.0
H526 H 0.59077 0.41406 0.59056 0.0
H527 H 0.48155 0.35439 0.5676 0.0
H528 H 0.58962 0.17364 0.58932 0.0
H529 H 0.4651 0.11859 0.58221 0.0
C530 C 0.28081 0.5248 0.88357 0.0
C531 C 0.2693 0.49753 0.87265 0.0
C532 C 0.2462 0.46154 0.87868 0.0
C533 C 0.24477 0.46875 0.89291 0.0
N534 N 0.2651 0.5073 0.8963 0.0
Co535 Co 0.27287 0.53049 0.91593 0.0
N536 N 0.2433 0.4773 0.92511 0.0
C537 C 0.22489 0.44228 0.91835 0.0
C538 C 0.20727 0.41087 0.92744 0.0
C539 C 0.21494 0.42673 0.94082 0.0
C540 C 0.23691 0.46705 0.93912 0.0
N541 N 0.28156 0.55392 0.9355 0.0
C542 C 0.27186 0.53654 0.9485 0.0
C543 C 0.28416 0.56402 0.95942 0.0
C544 C 0.30234 0.59998 0.95312 0.0
C545 C 0.30018 0.59248 0.9388 0.0
N546 N 0.30231 0.58369 0.90679 0.0
C547 C 0.31775 0.61871 0.91349 0.0
C548 C 0.33829 0.65028 0.90472 0.0
C549 C 0.33631 0.63466 0.89161 0.0
C550 C 0.31421 0.59415 0.8931 0.0
N551 N 0.22237 0.5313 0.91435 0.0
C552 C 0.1483 0.52732 0.9148 0.0
C553 C 0.18251 0.56146 0.91895 0.0
C554 C 0.21894 0.56273 0.91873 0.0
C555 C 0.15218 0.4961 0.90986 0.0
C556 C 0.18896 0.49891 0.90951 0.0
N557 N 0.32248 0.52886 0.91756 0.0
C558 C 0.39221 0.55928 0.92246 0.0
C559 C 0.39211 0.52449 0.9191 0.0
C560 C 0.35627 0.49206 0.91524 0.0
C561 C 0.3225 0.49492 0.91444 0.0
C562 C 0.35727 0.56079 0.92166 0.0
H563 H 0.29665 0.46904 0.91125 0.0
H564 H 0.35891 0.58799 0.92433 0.0
H565 H 0.24377 0.58921 0.92233 0.0
H566 H 0.18924 0.47408 0.90539 0.0
C567 C 0.22671 0.43992 0.90347 0.0
C568 C 0.30691 0.56696 0.88132 0.0
C569 C 0.25128 0.49437 0.95111 0.0
C570 C 0.31615 0.621 0.92825 0.0
H571 H 0.27728 0.50308 0.8615 0.0
H572 H 0.23287 0.43337 0.87338 0.0
H573 H 0.19133 0.38007 0.92469 0.0
H574 H 0.20572 0.41052 0.95073 0.0
H575 H 0.28057 0.55868 0.97078 0.0
H576 H 0.31589 0.62825 0.95836 0.0
H577 H 0.3543 0.68098 0.90764 0.0
H578 H 0.35074 0.65143 0.88216 0.0
H579 H 0.18106 0.58667 0.92272 0.0
H580 H 0.12676 0.4694 0.90618 0.0
H581 H 0.41912 0.58543 0.92549 0.0
H582 H 0.35388 0.46403 0.91292 0.0
C583 C 0.77076 0.27928 0.21637 0.0
C584 C 0.7899 0.27027 0.2059 0.0
C585 C 0.80112 0.24599 0.21202 0.0
C586 C 0.78881 0.24187 0.2259 0.0
N587 N 0.76968 0.26148 0.22896 0.0
Co588 Co 0.75278 0.26865 0.24843 0.0
N589 N 0.77506 0.23836 0.25791 0.0
C590 C 0.79073 0.21888 0.2513 0.0
C591 C 0.80296 0.2002 0.26054 0.0
C592 C 0.79453 0.20815 0.27384 0.0
C593 C 0.77771 0.23143 0.27195 0.0
N594 N 0.73749 0.27774 0.26784 0.0
C595 C 0.74493 0.26843 0.28095 0.0
C596 C 0.73039 0.28189 0.2917 0.0
C597 C 0.71314 0.30029 0.28516 0.0
C598 C 0.71825 0.29721 0.27088 0.0
N599 N 0.7294 0.29781 0.23898 0.0
C600 C 0.70755 0.31121 0.24529 0.0
C601 C 0.69383 0.32846 0.23605 0.0
C602 C 0.70843 0.32668 0.22307 0.0
C603 C 0.73088 0.30895 0.22521 0.0
N604 N 0.70138 0.21832 0.24656 0.0
C605 C 0.63151 0.14413 0.24668 0.0
C606 C 0.63199 0.17742 0.25211 0.0
C607 C 0.66703 0.21388 0.25204 0.0
C608 C 0.66598 0.14898 0.24065 0.0
C609 C 0.69988 0.18592 0.24047 0.0
N610 N 0.80404 0.31801 0.25033 0.0
C611 C 0.84323 0.38828 0.25396 0.0
C612 C 0.87806 0.38749 0.25165 0.0
C613 C 0.87482 0.35111 0.24906 0.0
C614 C 0.83815 0.31733 0.24839 0.0
C615 C 0.8067 0.35336 0.25327 0.0
H616 H 0.83826 0.29095 0.2462 0.0
H617 H 0.78089 0.35542 0.25501 0.0
H618 H 0.66563 0.2378 0.25669 0.0
H619 H 0.72456 0.18713 0.23546 0.0
C620 C 0.79713 0.22214 0.23655 0.0
C621 C 0.75515 0.30582 0.21406 0.0
C622 C 0.76512 0.24658 0.2838 0.0
C623 C 0.70437 0.3113 0.26007 0.0
H624 H 0.79621 0.2809 0.19505 0.0
H625 H 0.81772 0.23406 0.20709 0.0
H626 H 0.81726 0.18364 0.25794 0.0
H627 H 0.80052 0.19838 0.28382 0.0
H628 H 0.73194 0.27864 0.30309 0.0
H629 H 0.69851 0.31415 0.29022 0.0
H630 H 0.67661 0.34212 0.23854 0.0
H631 H 0.70405 0.33832 0.21324 0.0
H632 H 0.60578 0.17513 0.25678 0.0
H633 H 0.6668 0.12424 0.236 0.0
H634 H 0.84403 0.41569 0.25602 0.0
H635 H 0.90064 0.34841 0.24761 0.0
H636 H 0.18979 0.48069 0.96825 0.0
H637 H 0.29934 0.47403 0.03941 0.0
H638 H 0.29829 0.47931 0.96819 0.0
H639 H 0.19852 0.48918 0.03926 0.0
H640 H 0.29298 0.46405 0.01346 0.0
H641 H 0.18574 0.47165 0.99423 0.0
C642 C 0.21215 0.47735 0.97372 0.0
C643 C 0.24418 0.48029 0.96615 0.0
C644 C 0.27181 0.4689 0.0191 0.0
C645 C 0.24048 0.47101 0.99585 0.0
C646 C 0.27532 0.4743 0.0339 0.0
C647 C 0.2492 0.48207 0.04139 0.0
C648 C 0.24206 0.47151 0.01176 0.0
C649 C 0.21896 0.48288 0.03381 0.0
C650 C 0.21009 0.47256 0.98854 0.0
C651 C 0.27293 0.47669 0.97369 0.0
N652 N 0.21636 0.47795 0.0194 0.0
N653 N 0.27059 0.47256 0.98813 0.0
H654 H 0.83335 0.28683 0.37228 0.0
H655 H 0.7135 0.18651 0.30072 0.0
H656 H 0.71454 0.19058 0.37174 0.0
H657 H 0.82806 0.28963 0.30115 0.0
H658 H 0.71789 0.18022 0.32661 0.0
H659 H 0.83677 0.28094 0.34631 0.0
C660 C 0.80844 0.26368 0.36669 0.0
C661 C 0.77379 0.23883 0.37409 0.0
C662 C 0.74241 0.20387 0.32105 0.0
C663 C 0.7769 0.2325 0.3444 0.0
C664 C 0.73996 0.20725 0.30628 0.0
C665 C 0.77059 0.23843 0.29889 0.0
C666 C 0.77567 0.2321 0.32848 0.0
C667 C 0.80402 0.26501 0.30652 0.0
C668 C 0.81019 0.26054 0.35187 0.0
C669 C 0.74191 0.20991 0.36639 0.0
N670 N 0.80557 0.26145 0.32092 0.0
N671 N 0.74409 0.20774 0.35196 0.0
H672 H 0.52442 0.70314 0.7054 0.0
H673 H 0.55002 0.72809 0.63203 0.0
H674 H 0.54145 0.81977 0.70654 0.0
H675 H 0.51637 0.81552 0.63801 0.0
H676 H 0.56041 0.72788 0.65774 0.0
H677 H 0.53323 0.7085 0.67953 0.0
C678 C 0.53152 0.73044 0.70019 0.0
C679 C 0.53309 0.76135 0.70807 0.0
C680 C 0.55073 0.74714 0.65353 0.0
C681 C 0.54272 0.76789 0.67838 0.0
C682 C 0.54549 0.74774 0.6388 0.0
C683 C 0.53264 0.77209 0.63294 0.0
C684 C 0.54244 0.77067 0.66252 0.0
C685 C 0.52658 0.79657 0.64215 0.0
C686 C 0.53656 0.73362 0.68538 0.0
C687 C 0.5409 0.79565 0.70082 0.0
N688 N 0.53134 0.7951 0.65648 0.0
N689 N 0.54489 0.79781 0.68637 0.0
H690 H 0.72312 0.54126 0.03935 0.0
H691 H 0.8321 0.53289 0.96826 0.0
H692 H 0.82311 0.52474 0.03928 0.0
H693 H 0.72437 0.53578 0.96809 0.0
H694 H 0.83601 0.54179 0.99424 0.0
H695 H 0.72956 0.55099 0.01338 0.0
C696 C 0.74699 0.54065 0.03385 0.0
C697 C 0.77286 0.53257 0.04138 0.0
C698 C 0.81185 0.54121 0.98853 0.0
C699 C 0.78005 0.54282 0.01172 0.0
C700 C 0.80986 0.53649 0.97371 0.0
C701 C 0.7781 0.53403 0.96611 0.0
C702 C 0.78166 0.54321 0.99581 0.0
C703 C 0.74952 0.53799 0.97362 0.0
C704 C 0.75053 0.5459 0.01905 0.0
C705 C 0.80287 0.5313 0.03381 0.0
N706 N 0.75179 0.54208 0.98807 0.0
N707 N 0.80551 0.53609 0.0194 0.0
H708 H 0.19944 0.71448 0.30132 0.0
H709 H 0.30292 0.82674 0.37365 0.0
H710 H 0.30452 0.82749 0.30235 0.0
H711 H 0.19634 0.71499 0.37244 0.0
H712 H 0.29958 0.83176 0.34763 0.0
H713 H 0.19312 0.71789 0.32725 0.0
C714 C 0.22064 0.7404 0.30703 0.0
C715 C 0.2523 0.77091 0.29978 0.0
C716 C 0.27649 0.80643 0.35304 0.0
C717 C 0.24601 0.7748 0.32944 0.0
C718 C 0.2783 0.80377 0.36789 0.0
C719 C 0.24968 0.7706 0.37511 0.0
C720 C 0.24603 0.77544 0.34537 0.0
C721 C 0.21872 0.74119 0.3672 0.0
C722 C 0.21724 0.74231 0.32182 0.0
C723 C 0.2795 0.8036 0.30761 0.0
N724 N 0.21789 0.74411 0.35276 0.0
N725 N 0.27594 0.80455 0.32203 0.0
H726 H 0.46196 0.19613 0.70778 0.0
H727 H 0.46449 0.1912 0.63361 0.0
H728 H 0.5037 0.3195 0.70334 0.0
H729 H 0.50265 0.31424 0.63529 0.0
H730 H 0.45297 0.18657 0.65923 0.0
H731 H 0.45055 0.1879 0.68222 0.0
C732 C 0.46769 0.22134 0.70138 0.0
C733 C 0.48329 0.25844 0.70768 0.0
C734 C 0.46326 0.21465 0.65419 0.0
C735 C 0.47216 0.24997 0.678 0.0
C736 C 0.46951 0.21706 0.63943 0.0
C737 C 0.4844 0.25307 0.6324 0.0
C738 C 0.47238 0.24875 0.66203 0.0
C739 C 0.49096 0.28589 0.64037 0.0
C740 C 0.46172 0.21685 0.68663 0.0
C741 C 0.49119 0.29033 0.69889 0.0
N742 N 0.48535 0.28304 0.65475 0.0
N743 N 0.48594 0.28543 0.68452 0.0
H744 H 0.28415 0.73417 0.1867 0.0
H745 H 0.28513 0.55323 0.15431 0.0
H746 H 0.23744 0.62887 0.21196 0.0
H747 H 0.23589 0.60979 0.12931 0.0
H748 H 0.27901 0.5858 0.17574 0.0
H749 H 0.27778 0.69528 0.1653 0.0
C750 C 0.27174 0.70278 0.18771 0.0
C751 C 0.26062 0.68464 0.20112 0.0
C752 C 0.26909 0.59059 0.16557 0.0
C753 C 0.25543 0.64052 0.17683 0.0
C754 C 0.27222 0.57177 0.15338 0.0
C755 C 0.2603 0.57818 0.14002 0.0
C756 C 0.25539 0.61722 0.16434 0.0
C757 C 0.24517 0.60381 0.1394 0.0
C758 C 0.26846 0.68071 0.17552 0.0
C759 C 0.2461 0.64398 0.20182 0.0
N760 N 0.2438 0.6229 0.15131 0.0
N761 N 0.24458 0.62342 0.18992 0.0
H762 H 0.73017 0.33444 0.47588 0.0
H763 H 0.5689 0.20508 0.53463 0.0
H764 H 0.65795 0.20921 0.47188 0.0
H765 H 0.61565 0.32917 0.52938 0.0
H766 H 0.60404 0.20477 0.51293 0.0
H767 H 0.69339 0.3323 0.4973 0.0
C768 C 0.70681 0.30643 0.47966 0.0
C769 C 0.69686 0.27199 0.4721 0.0
C770 C 0.60634 0.232 0.51646 0.0
C771 C 0.65445 0.26917 0.49658 0.0
C772 C 0.58611 0.23211 0.52876 0.0
C773 C 0.58946 0.26721 0.53376 0.0
C774 C 0.6305 0.26738 0.50923 0.0
C775 C 0.61235 0.30152 0.52586 0.0
C776 C 0.6856 0.3052 0.4918 0.0
C777 C 0.66643 0.23639 0.47743 0.0
N778 N 0.6323 0.30084 0.51411 0.0
N779 N 0.64622 0.23586 0.48934 0.0
H780 H 0.40726 0.72695 0.81064 0.0
H781 H 0.36453 0.55942 0.8677 0.0
H782 H 0.446 0.64383 0.80348 0.0
H783 H 0.29182 0.61155 0.86287 0.0
H784 H 0.40046 0.59359 0.8459 0.0
H785 H 0.37247 0.69069 0.83213 0.0
C786 C 0.40886 0.70132 0.81377 0.0
C787 C 0.42933 0.68821 0.80531 0.0
C788 C 0.37645 0.59728 0.84956 0.0
C789 C 0.38952 0.64639 0.82985 0.0
C790 C 0.35585 0.57765 0.86192 0.0
C791 C 0.32534 0.58287 0.86708 0.0
C792 C 0.36681 0.62279 0.84247 0.0
C793 C 0.31528 0.60691 0.85926 0.0
C794 C 0.38873 0.68042 0.82593 0.0
C795 C 0.43051 0.65482 0.80977 0.0
N796 N 0.33625 0.62634 0.84749 0.0
N797 N 0.41085 0.63499 0.82174 0.0
H798 H 0.73863 0.46205 0.15438 0.0
H799 H 0.73703 0.2797 0.18625 0.0
H800 H 0.78648 0.40489 0.12896 0.0
H801 H 0.78793 0.38531 0.21144 0.0
H802 H 0.74333 0.31889 0.16493 0.0
H803 H 0.74497 0.42916 0.17568 0.0
C804 C 0.7513 0.44333 0.15332 0.0
C805 C 0.76275 0.43682 0.13989 0.0
C806 C 0.75356 0.33344 0.17512 0.0
C807 C 0.76786 0.39742 0.16405 0.0
C808 C 0.75033 0.3112 0.18725 0.0
C809 C 0.76267 0.32934 0.20061 0.0
C810 C 0.76778 0.37385 0.17645 0.0
C811 C 0.77831 0.37018 0.20133 0.0
C812 C 0.75455 0.42433 0.16545 0.0
C813 C 0.77757 0.41096 0.13912 0.0
N814 N 0.77977 0.39095 0.1895 0.0
N815 N 0.77903 0.39167 0.15095 0.0
H816 H 0.4621 0.73055 0.52088 0.0
H817 H 0.28187 0.72993 0.48822 0.0
H818 H 0.40803 0.78253 0.54579 0.0
H819 H 0.38824 0.78214 0.4634 0.0
H820 H 0.32067 0.73645 0.50969 0.0
H821 H 0.42963 0.73679 0.4995 0.0
C822 C 0.44453 0.74451 0.5218 0.0
C823 C 0.4391 0.75752 0.5351 0.0
C824 C 0.33545 0.74693 0.49955 0.0
C825 C 0.39941 0.76177 0.51084 0.0
C826 C 0.31344 0.74358 0.48733 0.0
C827 C 0.33192 0.7563 0.47402 0.0
C828 C 0.37599 0.76159 0.49836 0.0
C829 C 0.37284 0.77226 0.47346 0.0
C830 C 0.42552 0.74746 0.50963 0.0
C831 C 0.41366 0.77287 0.53571 0.0
N832 N 0.39339 0.77381 0.48537 0.0
N833 N 0.39428 0.774 0.52383 0.0
H834 H 0.6543 0.45611 0.86811 0.0
H835 H 0.61434 0.29321 0.80937 0.0
H836 H 0.72922 0.40692 0.86204 0.0
H837 H 0.57254 0.37441 0.80364 0.0
H838 H 0.64919 0.32869 0.83095 0.0
H839 H 0.61838 0.42273 0.84622 0.0
C840 C 0.66344 0.43867 0.86206 0.0
C841 C 0.69459 0.43405 0.8669 0.0
C842 C 0.6323 0.33874 0.82504 0.0
C843 C 0.65317 0.39504 0.84215 0.0
C844 C 0.61218 0.3183 0.8128 0.0
C845 C 0.59086 0.33116 0.80469 0.0
C846 C 0.6306 0.37197 0.82941 0.0
C847 C 0.58879 0.36371 0.80961 0.0
C848 C 0.64286 0.41949 0.84963 0.0
C849 C 0.70523 0.41105 0.8587 0.0
N850 N 0.60845 0.38307 0.82165 0.0
N851 N 0.6843 0.39204 0.84687 0.0
H852 H 0.93934 0.53852 0.10565 0.0
H853 H 0.0816 0.46856 0.07295 0.0
H854 H 0.90299 0.45221 0.07214 0.0
H855 H 0.12207 0.57155 0.09918 0.0
H856 H 0.01555 0.45984 0.07323 0.0
H857 H 1.00523 0.54794 0.1044 0.0
C858 C 0.94515 0.5216 0.09795 0.0
C859 C 0.91536 0.49487 0.08883 0.0
C860 C 0.03889 0.48449 0.07885 0.0
C861 C 0.99136 0.50524 0.08754 0.0
C862 C 0.07662 0.48948 0.07872 0.0
C863 C 0.10749 0.5208 0.08611 0.0
C864 C 0.03164 0.51074 0.08655 0.0
C865 C 0.09933 0.54718 0.09326 0.0
C866 C 0.98294 0.52699 0.09729 0.0
C867 C 0.92477 0.47302 0.07942 0.0
N868 N 0.06219 0.54136 0.09341 0.0
N869 N 0.9619 0.47874 0.079 0.0
H870 H 0.5892 0.09979 0.44423 0.0
H871 H 0.44459 0.90761 0.39947 0.0
H872 H 0.58622 0.10013 0.39832 0.0
H873 H 0.42941 0.92309 0.44403 0.0
H874 H 0.50068 0.9752 0.39872 0.0
H875 H 0.53388 0.03275 0.44426 0.0
C876 C 0.57658 0.08575 0.43414 0.0
C877 C 0.59221 0.10557 0.42126 0.0
C878 C 0.48511 0.96366 0.40866 0.0
C879 C 0.52906 0.02826 0.42117 0.0
C880 C 0.45344 0.92503 0.40912 0.0
C881 C 0.43238 0.90978 0.42183 0.0
C882 C 0.49603 0.98688 0.42106 0.0
C883 C 0.44473 0.93374 0.43399 0.0
C884 C 0.54502 0.04743 0.43415 0.0
C885 C 0.57475 0.08597 0.40848 0.0
N886 N 0.47564 0.97091 0.43331 0.0
N887 N 0.54428 0.04822 0.40875 0.0
H888 H 0.46673 0.39743 0.74428 0.0
H889 H 0.53998 0.61317 0.77388 0.0
H890 H 0.57801 0.4658 0.7654 0.0
H891 H 0.45603 0.56316 0.73956 0.0
H892 H 0.54986 0.55697 0.77282 0.0
H893 H 0.458 0.45486 0.74435 0.0
C894 C 0.48938 0.42454 0.74894 0.0
C895 C 0.52319 0.42663 0.75486 0.0
C896 C 0.52935 0.55836 0.7655 0.0
C897 C 0.51307 0.49268 0.75511 0.0
C898 C 0.52375 0.59077 0.766 0.0
C899 C 0.49735 0.59386 0.75666 0.0
C900 C 0.50796 0.52792 0.75577 0.0
C901 C 0.4764 0.56247 0.74711 0.0
C902 C 0.48441 0.45738 0.74892 0.0
C903 C 0.55163 0.46278 0.76062 0.0
N904 N 0.48206 0.53098 0.74696 0.0
N905 N 0.54576 0.49413 0.76073 0.0
H906 H 0.47684 0.07565 0.5694 0.0
H907 H 0.5545 0.93493 0.59723 0.0
H908 H 0.56829 0.11243 0.601 0.0
H909 H 0.44428 0.89245 0.57537 0.0
H910 H 0.56299 1.00091 0.59745 0.0
H911 H 0.46783 0.0099 0.57008 0.0
C912 C 0.49492 0.07005 0.5766 0.0
C913 C 0.52307 0.10008 0.58533 0.0
C914 C 0.53686 0.97716 0.59265 0.0
C915 C 0.51329 0.02404 0.58585 0.0
C916 C 0.53202 0.93944 0.59248 0.0
C917 C 0.49863 0.90793 0.58622 0.0
C918 C 0.50838 0.98384 0.58637 0.0
C919 C 0.47033 0.91565 0.58039 0.0
C920 C 0.4898 0.03228 0.57691 0.0
C921 C 0.54636 0.09067 0.59401 0.0
N922 N 0.47601 0.95276 0.5805 0.0
N923 N 0.54096 0.05361 0.59405 0.0
H924 H 0.45541 0.56015 0.93758 0.0
H925 H 0.55681 0.44044 0.90889 0.0
H926 H 0.41229 0.48122 0.90162 0.0
H927 H 0.61831 0.54435 0.93475 0.0
H928 H 0.49944 0.44928 0.90873 0.0
H929 H 0.51235 0.55074 0.93872 0.0
C930 C 0.45787 0.54107 0.92987 0.0
C931 C 0.42844 0.52119 0.91958 0.0
C932 C 0.52544 0.47007 0.91449 0.0
C933 C 0.49334 0.50958 0.92107 0.0
C934 C 0.55806 0.4648 0.91469 0.0
C935 C 0.59249 0.49175 0.92179 0.0
C936 C 0.52699 0.50226 0.92159 0.0
C937 C 0.59252 0.52307 0.92901 0.0
C938 C 0.49031 0.53549 0.9306 0.0
C939 C 0.4334 0.49647 0.91 0.0
N940 N 0.56036 0.52745 0.92874 0.0
N941 N 0.4649 0.49123 0.91104 0.0
H942 H 0.08452 0.61469 0.26919 0.0
H943 H 0.94133 0.40528 0.2345 0.0
H944 H 0.12436 0.55447 0.24148 0.0
H945 H 0.90574 0.45267 0.26913 0.0
H946 H 1.00739 0.46151 0.23604 0.0
H947 H 0.01846 0.55732 0.26871 0.0
C948 C 0.0794 0.58927 0.26306 0.0
C949 C 0.11008 0.58948 0.25532 0.0
C950 C 0.98522 0.45964 0.24333 0.0
C951 C 0.03422 0.52367 0.25462 0.0
C952 C 0.94734 0.42738 0.2425 0.0
C953 C 0.91771 0.42368 0.25184 0.0
C954 C 0.99388 0.48902 0.25348 0.0
C955 C 0.92738 0.45415 0.26166 0.0
C956 C 0.04166 0.5565 0.26281 0.0
C957 C 0.10176 0.55554 0.24769 0.0
N958 N 0.96459 0.48544 0.26223 0.0
N959 N 0.0646 0.5242 0.24743 0.0
H960 H 0.60792 0.52879 0.11455 0.0
H961 H 0.3974 0.46297 0.08264 0.0
H962 H 0.56801 0.46076 0.07575 0.0
H963 H 0.46508 0.57341 0.10431 0.0
H964 H 0.45516 0.45458 0.08259 0.0
H965 H 0.55154 0.53835 0.11359 0.0
C966 C 0.58777 0.51602 0.10573 0.0
C967 C 0.59376 0.49427 0.09508 0.0
C968 C 0.4574 0.4807 0.0873 0.0
C969 C 0.52756 0.50417 0.09434 0.0
C970 C 0.42447 0.48547 0.08738 0.0
C971 C 0.42647 0.51899 0.09347 0.0
C972 C 0.49243 0.50916 0.09369 0.0
C973 C 0.46233 0.54727 0.09942 0.0
C974 C 0.55526 0.5214 0.10528 0.0
C975 C 0.565 0.47738 0.08432 0.0
N976 N 0.49373 0.54152 0.09953 0.0
N977 N 0.53322 0.48253 0.08427 0.0
H978 H 0.93911 0.40328 0.44227 0.0
H979 H 0.07954 0.6236 0.41589 0.0
H980 H 0.90206 0.45958 0.41148 0.0
H981 H 0.12246 0.55435 0.43627 0.0
H982 H 0.01334 0.56625 0.41581 0.0
H983 H 1.00475 0.46052 0.44194 0.0
C984 C 0.94462 0.42748 0.43534 0.0
C985 C 0.91459 0.4259 0.42671 0.0
C986 C 0.03722 0.56354 0.42027 0.0
C987 C 0.99043 0.49262 0.42658 0.0
C988 C 0.07506 0.59633 0.42037 0.0
C989 C 0.10678 0.59395 0.42614 0.0
C990 C 0.03065 0.52797 0.42615 0.0
C991 C 0.09909 0.5576 0.43163 0.0
C992 C 0.98231 0.46037 0.43523 0.0
C993 C 0.92384 0.45918 0.41839 0.0
N994 N 0.06188 0.52623 0.43159 0.0
N995 N 0.96081 0.49103 0.41853 0.0
H996 H 0.53522 0.10465 0.73613 0.0
H997 H 0.5015 0.91946 0.7824 0.0
H998 H 0.51578 0.09902 0.78159 0.0
H999 H 0.4811 0.91494 0.73703 0.0
H1000 H 0.51263 0.98649 0.7827 0.0
H1001 H 0.52264 0.03759 0.73667 0.0
C1002 C 0.52804 0.0895 0.74626 0.0
C1003 C 0.52611 0.10817 0.75881 0.0
C1004 C 0.50569 0.97072 0.7727 0.0
C1005 C 0.51254 0.03037 0.75949 0.0
C1006 C 0.49901 0.93211 0.7725 0.0
C1007 C 0.49049 0.91077 0.75964 0.0
C1008 C 0.50439 0.98875 0.75993 0.0
C1009 C 0.48849 0.92984 0.7472 0.0
C1010 C 0.52105 0.05096 0.74654 0.0
C1011 C 0.51799 0.08655 0.77161 0.0
N1012 N 0.49559 0.96745 0.74766 0.0
N1013 N 0.51157 0.04904 0.77161 0.0
H1014 H 0.45911 0.55933 0.56297 0.0
H1015 H 0.56156 0.44939 0.59925 0.0
H1016 H 0.54765 0.61255 0.59568 0.0
H1017 H 0.5032 0.41554 0.55844 0.0
H1018 H 0.55324 0.50689 0.59916 0.0
H1019 H 0.47092 0.50407 0.56222 0.0
C1020 C 0.48118 0.55978 0.56995 0.0
C1021 C 0.50214 0.59116 0.57946 0.0
C1022 C 0.54233 0.48685 0.59022 0.0
C1023 C 0.51526 0.52681 0.57882 0.0
C1024 C 0.54732 0.45398 0.59019 0.0
C1025 C 0.53291 0.42683 0.57888 0.0
C1026 C 0.5224 0.49281 0.57892 0.0
C1027 C 0.51408 0.43467 0.56761 0.0
C1028 C 0.48775 0.5279 0.56956 0.0
C1029 C 0.52988 0.58902 0.58838 0.0
N1030 N 0.50919 0.46656 0.56798 0.0
N1031 N 0.53541 0.55753 0.58789 0.0
H1032 H 0.08202 0.46865 0.92728 0.0
H1033 H 0.9365 0.53214 0.894 0.0
H1034 H 0.12379 0.57643 0.90389 0.0
H1035 H 0.90652 0.46057 0.93193 0.0
H1036 H 1.00291 0.54293 0.89536 0.0
H1037 H 0.01571 0.45969 0.92711 0.0
C1038 C 0.07723 0.49053 0.92215 0.0
C1039 C 0.10857 0.5234 0.9156 0.0
C1040 C 0.98178 0.52495 0.9034 0.0
C1041 C 0.0324 0.51288 0.91514 0.0
C1042 C 0.94361 0.51883 0.90271 0.0
C1043 C 0.91519 0.4957 0.91299 0.0
C1044 C 0.99196 0.50722 0.91425 0.0
C1045 C 0.92673 0.47828 0.92364 0.0
C1046 C 0.03939 0.48541 0.92209 0.0
C1047 C 0.10062 0.55084 0.90915 0.0
N1048 N 0.964 0.48427 0.92395 0.0
N1049 N 0.06331 0.54475 0.90893 0.0
H1050 H 0.41369 0.93288 0.2265 0.0
H1051 H 0.625 0.07719 0.25796 0.0
H1052 H 0.45509 0.90406 0.26476 0.0
H1053 H 0.5572 0.12046 0.23678 0.0
H1054 H 0.56714 0.01106 0.25802 0.0
H1055 H 0.46994 0.99905 0.22753 0.0
C1056 C 0.43416 0.94016 0.23521 0.0
C1057 C 0.42869 0.91214 0.24567 0.0
C1058 C 0.56488 0.03505 0.25342 0.0
C1059 C 0.49463 0.98848 0.2465 0.0
C1060 C 0.59786 0.07273 0.25335 0.0
C1061 C 0.59586 0.10438 0.24738 0.0
C1062 C 0.52977 0.02862 0.24716 0.0
C1063 C 0.55992 0.09696 0.24157 0.0
C1064 C 0.46656 0.97817 0.2357 0.0
C1065 C 0.45774 0.9239 0.25631 0.0
N1066 N 0.52845 0.0598 0.24145 0.0
N1067 N 0.48939 0.96094 0.2564 0.0
loop_
_geom_bond_atom_site_label_1
_geom_bond_atom_site_label_2
_geom_bond_distance
_geom_bond_site_symmetry_2
_ccdc_geom_bond_type
C0 C1 1.443 . S
C0 N4 1.376 . S
C0 C38 1.389 . S
C1 C0 1.443 . S
C1 C2 1.340 . S
C1 H41 0.951 . S
C2 C1 1.340 . S
C2 C3 1.439 . S
C2 H42 0.950 . S
C3 C2 1.439 . S
C3 N4 1.374 . S
C3 C37 1.395 . S
N4 C0 1.376 . S
N4 C3 1.374 . S
N4 Co5 2.008 . S
Co5 N4 2.008 . S
Co5 N6 1.995 . S
Co5 N11 2.008 . S
Co5 N16 1.995 . S
Co5 N21 2.282 . S
Co5 N27 2.282 . S
N6 Co5 1.995 . S
N6 C7 1.376 . S
N6 C10 1.383 . S
C7 N6 1.376 . S
C7 C8 1.446 . S
C7 C37 1.391 . S
C8 C7 1.446 . S
C8 C9 1.339 . S
C8 H43 0.949 . S
C9 C8 1.339 . S
C9 C10 1.439 . S
C9 H44 0.950 . S
C10 N6 1.383 . S
C10 C9 1.439 . S
C10 C39 1.392 . S
N11 Co5 2.008 . S
N11 C12 1.376 . S
N11 C15 1.374 . S
C12 N11 1.376 . S
C12 C13 1.443 . S
C12 C39 1.389 . S
C13 C12 1.443 . S
C13 C14 1.340 . S
C13 H45 0.951 . S
C14 C13 1.340 . S
C14 C15 1.439 . S
C14 H46 0.950 . S
C15 N11 1.374 . S
C15 C14 1.439 . S
C15 C40 1.395 . S
N16 Co5 1.995 . S
N16 C17 1.376 . S
N16 C20 1.383 . S
C17 N16 1.376 . S
C17 C18 1.446 . S
C17 C40 1.391 . S
C18 C17 1.446 . S
C18 C19 1.339 . S
C18 H47 0.949 . S
C19 C18 1.339 . S
C19 C20 1.439 . S
C19 H48 0.950 . S
C20 N16 1.383 . S
C20 C19 1.439 . S
C20 C38 1.392 . S
N21 Co5 2.282 . S
N21 C24 1.332 . S
N21 C26 1.332 . S
C22 C23 1.386 . S
C22 C25 1.388 . S
C23 C22 1.386 . S
C23 C24 1.382 . S
C23 H49 0.950 . S
C24 N21 1.332 . S
C24 C23 1.382 . S
C24 H35 0.952 . S
C25 C22 1.388 . S
C25 C26 1.382 . S
C25 H50 0.950 . S
C26 N21 1.332 . S
C26 C25 1.382 . S
C26 H36 0.948 . S
N27 Co5 2.282 . S
N27 C31 1.332 . S
N27 C32 1.332 . S
C28 C29 1.388 . S
C28 C32 1.382 . S
C28 H51 0.950 . S
C29 C28 1.388 . S
C29 C30 1.386 . S
C30 C29 1.386 . S
C30 C31 1.382 . S
C30 H52 0.950 . S
C31 N27 1.332 . S
C31 C30 1.382 . S
C31 H33 0.952 . S
C32 N27 1.332 . S
C32 C28 1.382 . S
C32 H34 0.948 . S
H33 C31 0.952 . S
H34 C32 0.948 . S
H35 C24 0.952 . S
H36 C26 0.948 . S
C37 C3 1.395 . S
C37 C7 1.391 . S
C38 C0 1.389 . S
C38 C20 1.392 . S
C39 C10 1.392 . S
C39 C12 1.389 . S
C40 C15 1.395 . S
C40 C17 1.391 . S
H41 C1 0.951 . S
H42 C2 0.950 . S
H43 C8 0.949 . S
H44 C9 0.950 . S
H45 C13 0.951 . S
H46 C14 0.950 . S
H47 C18 0.949 . S
H48 C19 0.950 . S
H49 C23 0.950 . S
H50 C25 0.950 . S
H51 C28 0.950 . S
H52 C30 0.950 . S
C53 C54 1.443 . S
C53 N57 1.376 . S
C53 C91 1.389 . S
C54 C53 1.443 . S
C54 C55 1.340 . S
C54 H94 0.951 . S
C55 C54 1.340 . S
C55 C56 1.439 . S
C55 H95 0.950 . S
C56 C55 1.439 . S
C56 N57 1.374 . S
C56 C90 1.395 . S
N57 C53 1.376 . S
N57 C56 1.374 . S
N57 Co58 2.008 . S
Co58 N57 2.008 . S
Co58 N59 1.995 . S
Co58 N64 2.008 . S
Co58 N69 1.995 . S
Co58 N74 2.282 . S
Co58 N80 2.282 . S
N59 Co58 1.995 . S
N59 C60 1.376 . S
N59 C63 1.383 . S
C60 N59 1.376 . S
C60 C61 1.446 . S
C60 C90 1.391 . S
C61 C60 1.446 . S
C61 C62 1.339 . S
C61 H96 0.949 . S
C62 C61 1.339 . S
C62 C63 1.439 . S
C62 H97 0.950 . S
C63 N59 1.383 . S
C63 C62 1.439 . S
C63 C92 1.392 . S
N64 Co58 2.008 . S
N64 C65 1.376 . S
N64 C68 1.374 . S
C65 N64 1.376 . S
C65 C66 1.443 . S
C65 C92 1.389 . S
C66 C65 1.443 . S
C66 C67 1.340 . S
C66 H98 0.951 . S
C67 C66 1.340 . S
C67 C68 1.439 . S
C67 H99 0.950 . S
C68 N64 1.374 . S
C68 C67 1.439 . S
C68 C93 1.395 . S
N69 Co58 1.995 . S
N69 C70 1.376 . S
N69 C73 1.383 . S
C70 N69 1.376 . S
C70 C71 1.446 . S
C70 C93 1.391 . S
C71 C70 1.446 . S
C71 C72 1.339 . S
C71 H100 0.949 . S
C72 C71 1.339 . S
C72 C73 1.439 . S
C72 H101 0.950 . S
C73 N69 1.383 . S
C73 C72 1.439 . S
C73 C91 1.392 . S
N74 Co58 2.282 . S
N74 C77 1.332 . S
N74 C79 1.332 . S
C75 C76 1.386 . S
C75 C78 1.388 . S
C76 C75 1.386 . S
C76 C77 1.382 . S
C76 H102 0.950 . S
C77 N74 1.332 . S
C77 C76 1.382 . S
C77 H88 0.952 . S
C78 C75 1.388 . S
C78 C79 1.382 . S
C78 H103 0.950 . S
C79 N74 1.332 . S
C79 C78 1.382 . S
C79 H89 0.948 . S
N80 Co58 2.282 . S
N80 C84 1.332 . S
N80 C85 1.332 . S
C81 C82 1.388 . S
C81 C85 1.382 . S
C81 H104 0.950 . S
C82 C81 1.388 . S
C82 C83 1.386 . S
C83 C82 1.386 . S
C83 C84 1.382 . S
C83 H105 0.950 . S
C84 N80 1.332 . S
C84 C83 1.382 . S
C84 H86 0.952 . S
C85 N80 1.332 . S
C85 C81 1.382 . S
C85 H87 0.948 . S
H86 C84 0.952 . S
H87 C85 0.948 . S
H88 C77 0.952 . S
H89 C79 0.948 . S
C90 C56 1.395 . S
C90 C60 1.391 . S
C91 C53 1.389 . S
C91 C73 1.392 . S
C92 C63 1.392 . S
C92 C65 1.389 . S
C93 C68 1.395 . S
C93 C70 1.391 . S
H94 C54 0.951 . S
H95 C55 0.950 . S
H96 C61 0.949 . S
H97 C62 0.950 . S
H98 C66 0.951 . S
H99 C67 0.950 . S
H100 C71 0.949 . S
H101 C72 0.950 . S
H102 C76 0.950 . S
H103 C78 0.950 . S
H104 C81 0.950 . S
H105 C83 0.950 . S
C106 C107 1.443 . S
C106 N110 1.376 . S
C106 C144 1.389 . S
C107 C106 1.443 . S
C107 C108 1.340 . S
C107 H147 0.951 . S
C108 C107 1.340 . S
C108 C109 1.439 . S
C108 H148 0.950 . S
C109 C108 1.439 . S
C109 N110 1.374 . S
C109 C143 1.395 . S
N110 C106 1.376 . S
N110 C109 1.374 . S
N110 Co111 2.008 . S
Co111 N110 2.008 . S
Co111 N112 1.995 . S
Co111 N117 2.008 . S
Co111 N122 1.995 . S
Co111 N127 2.282 . S
Co111 N133 2.282 . S
N112 Co111 1.995 . S
N112 C113 1.376 . S
N112 C116 1.383 . S
C113 N112 1.376 . S
C113 C114 1.446 . S
C113 C143 1.391 . S
C114 C113 1.446 . S
C114 C115 1.339 . S
C114 H149 0.949 . S
C115 C114 1.339 . S
C115 C116 1.439 . S
C115 H150 0.950 . S
C116 N112 1.383 . S
C116 C115 1.439 . S
C116 C145 1.392 . S
N117 Co111 2.008 . S
N117 C118 1.376 . S
N117 C121 1.374 . S
C118 N117 1.376 . S
C118 C119 1.443 . S
C118 C145 1.389 . S
C119 C118 1.443 . S
C119 C120 1.340 . S
C119 H151 0.951 . S
C120 C119 1.340 . S
C120 C121 1.439 . S
C120 H152 0.950 . S
C121 N117 1.374 . S
C121 C120 1.439 . S
C121 C146 1.395 . S
N122 Co111 1.995 . S
N122 C123 1.376 . S
N122 C126 1.383 . S
C123 N122 1.376 . S
C123 C124 1.446 . S
C123 C146 1.391 . S
C124 C123 1.446 . S
C124 C125 1.339 . S
C124 H153 0.949 . S
C125 C124 1.339 . S
C125 C126 1.439 . S
C125 H154 0.950 . S
C126 N122 1.383 . S
C126 C125 1.439 . S
C126 C144 1.392 . S
N127 Co111 2.282 . S
N127 C130 1.332 . S
N127 C132 1.332 . S
C128 C129 1.386 . S
C128 C131 1.388 . S
C129 C128 1.386 . S
C129 C130 1.382 . S
C129 H155 0.950 . S
C130 N127 1.332 . S
C130 C129 1.382 . S
C130 H141 0.952 . S
C131 C128 1.388 . S
C131 C132 1.382 . S
C131 H156 0.950 . S
C132 N127 1.332 . S
C132 C131 1.382 . S
C132 H142 0.948 . S
N133 Co111 2.282 . S
N133 C137 1.332 . S
N133 C138 1.332 . S
C134 C135 1.388 . S
C134 C138 1.382 . S
C134 H157 0.950 . S
C135 C134 1.388 . S
C135 C136 1.386 . S
C136 C135 1.386 . S
C136 C137 1.382 . S
C136 H158 0.950 . S
C137 N133 1.332 . S
C137 C136 1.382 . S
C137 H139 0.952 . S
C138 N133 1.332 . S
C138 C134 1.382 . S
C138 H140 0.948 . S
H139 C137 0.952 . S
H140 C138 0.948 . S
H141 C130 0.952 . S
H142 C132 0.948 . S
C143 C109 1.395 . S
C143 C113 1.391 . S
C144 C106 1.389 . S
C144 C126 1.392 . S
C145 C116 1.392 . S
C145 C118 1.389 . S
C146 C121 1.395 . S
C146 C123 1.391 . S
H147 C107 0.951 . S
H148 C108 0.950 . S
H149 C114 0.949 . S
H150 C115 0.950 . S
H151 C119 0.951 . S
H152 C120 0.950 . S
H153 C124 0.949 . S
H154 C125 0.950 . S
H155 C129 0.950 . S
H156 C131 0.950 . S
H157 C134 0.950 . S
H158 C136 0.950 . S
C159 C160 1.443 . S
C159 N163 1.376 . S
C159 C197 1.389 . S
C160 C159 1.443 . S
C160 C161 1.340 . S
C160 H200 0.951 . S
C161 C160 1.340 . S
C161 C162 1.439 . S
C161 H201 0.950 . S
C162 C161 1.439 . S
C162 N163 1.374 . S
C162 C196 1.395 . S
N163 C159 1.376 . S
N163 C162 1.374 . S
N163 Co164 2.008 . S
Co164 N163 2.008 . S
Co164 N165 1.995 . S
Co164 N170 2.008 . S
Co164 N175 1.995 . S
Co164 N180 2.282 . S
Co164 N186 2.282 . S
N165 Co164 1.995 . S
N165 C166 1.376 . S
N165 C169 1.383 . S
C166 N165 1.376 . S
C166 C167 1.446 . S
C166 C196 1.391 . S
C167 C166 1.446 . S
C167 C168 1.339 . S
C167 H202 0.949 . S
C168 C167 1.339 . S
C168 C169 1.439 . S
C168 H203 0.950 . S
C169 N165 1.383 . S
C169 C168 1.439 . S
C169 C198 1.392 . S
N170 Co164 2.008 . S
N170 C171 1.376 . S
N170 C174 1.374 . S
C171 N170 1.376 . S
C171 C172 1.443 . S
C171 C198 1.389 . S
C172 C171 1.443 . S
C172 C173 1.340 . S
C172 H204 0.951 . S
C173 C172 1.340 . S
C173 C174 1.439 . S
C173 H205 0.950 . S
C174 N170 1.374 . S
C174 C173 1.439 . S
C174 C199 1.395 . S
N175 Co164 1.995 . S
N175 C176 1.376 . S
N175 C179 1.383 . S
C176 N175 1.376 . S
C176 C177 1.446 . S
C176 C199 1.391 . S
C177 C176 1.446 . S
C177 C178 1.339 . S
C177 H206 0.949 . S
C178 C177 1.339 . S
C178 C179 1.439 . S
C178 H207 0.950 . S
C179 N175 1.383 . S
C179 C178 1.439 . S
C179 C197 1.392 . S
N180 Co164 2.282 . S
N180 C183 1.332 . S
N180 C185 1.332 . S
C181 C182 1.386 . S
C181 C184 1.388 . S
C182 C181 1.386 . S
C182 C183 1.382 . S
C182 H208 0.950 . S
C183 N180 1.332 . S
C183 C182 1.382 . S
C183 H194 0.952 . S
C184 C181 1.388 . S
C184 C185 1.382 . S
C184 H209 0.950 . S
C185 N180 1.332 . S
C185 C184 1.382 . S
C185 H195 0.948 . S
N186 Co164 2.282 . S
N186 C190 1.332 . S
N186 C191 1.332 . S
C187 C188 1.388 . S
C187 C191 1.382 . S
C187 H210 0.950 . S
C188 C187 1.388 . S
C188 C189 1.386 . S
C189 C188 1.386 . S
C189 C190 1.382 . S
C189 H211 0.950 . S
C190 N186 1.332 . S
C190 C189 1.382 . S
C190 H192 0.952 . S
C191 N186 1.332 . S
C191 C187 1.382 . S
C191 H193 0.948 . S
H192 C190 0.952 . S
H193 C191 0.948 . S
H194 C183 0.952 . S
H195 C185 0.948 . S
C196 C162 1.395 . S
C196 C166 1.391 . S
C197 C159 1.389 . S
C197 C179 1.392 . S
C198 C169 1.392 . S
C198 C171 1.389 . S
C199 C174 1.395 . S
C199 C176 1.391 . S
H200 C160 0.951 . S
H201 C161 0.950 . S
H202 C167 0.949 . S
H203 C168 0.950 . S
H204 C172 0.951 . S
H205 C173 0.950 . S
H206 C177 0.949 . S
H207 C178 0.950 . S
H208 C182 0.950 . S
H209 C184 0.950 . S
H210 C187 0.950 . S
H211 C189 0.950 . S
C212 C213 1.443 . S
C212 N216 1.376 . S
C212 C250 1.389 . S
C213 C212 1.443 . S
C213 C214 1.340 . S
C213 H253 0.951 . S
C214 C213 1.340 . S
C214 C215 1.439 . S
C214 H254 0.950 . S
C215 C214 1.439 . S
C215 N216 1.374 . S
C215 C249 1.395 . S
N216 C212 1.376 . S
N216 C215 1.374 . S
N216 Co217 2.008 . S
Co217 N216 2.008 . S
Co217 N218 1.995 . S
Co217 N223 2.008 . S
Co217 N228 1.995 . S
Co217 N233 2.282 . S
Co217 N239 2.282 . S
N218 Co217 1.995 . S
N218 C219 1.376 . S
N218 C222 1.383 . S
C219 N218 1.376 . S
C219 C220 1.446 . S
C219 C249 1.391 . S
C220 C219 1.446 . S
C220 C221 1.339 . S
C220 H255 0.949 . S
C221 C220 1.339 . S
C221 C222 1.439 . S
C221 H256 0.950 . S
C222 N218 1.383 . S
C222 C221 1.439 . S
C222 C251 1.392 . S
N223 Co217 2.008 . S
N223 C224 1.376 . S
N223 C227 1.374 . S
C224 N223 1.376 . S
C224 C225 1.443 . S
C224 C251 1.389 . S
C225 C224 1.443 . S
C225 C226 1.340 . S
C225 H257 0.951 . S
C226 C225 1.340 . S
C226 C227 1.439 . S
C226 H258 0.950 . S
C227 N223 1.374 . S
C227 C226 1.439 . S
C227 C252 1.395 . S
N228 Co217 1.995 . S
N228 C229 1.376 . S
N228 C232 1.383 . S
C229 N228 1.376 . S
C229 C230 1.446 . S
C229 C252 1.391 . S
C230 C229 1.446 . S
C230 C231 1.339 . S
C230 H259 0.949 . S
C231 C230 1.339 . S
C231 C232 1.439 . S
C231 H260 0.950 . S
C232 N228 1.383 . S
C232 C231 1.439 . S
C232 C250 1.392 . S
N233 Co217 2.282 . S
N233 C236 1.332 . S
N233 C238 1.332 . S
C234 C235 1.386 . S
C234 C237 1.388 . S
C235 C234 1.386 . S
C235 C236 1.382 . S
C235 H261 0.950 . S
C236 N233 1.332 . S
C236 C235 1.382 . S
C236 H247 0.952 . S
C237 C234 1.388 . S
C237 C238 1.382 . S
C237 H262 0.950 . S
C238 N233 1.332 . S
C238 C237 1.382 . S
C238 H248 0.948 . S
N239 Co217 2.282 . S
N239 C243 1.332 . S
N239 C244 1.332 . S
C240 C241 1.388 . S
C240 C244 1.382 . S
C240 H263 0.950 . S
C241 C240 1.388 . S
C241 C242 1.386 . S
C242 C241 1.386 . S
C242 C243 1.382 . S
C242 H264 0.950 . S
C243 N239 1.332 . S
C243 C242 1.382 . S
C243 H245 0.952 . S
C244 N239 1.332 . S
C244 C240 1.382 . S
C244 H246 0.948 . S
H245 C243 0.952 . S
H246 C244 0.948 . S
H247 C236 0.952 . S
H248 C238 0.948 . S
C249 C215 1.395 . S
C249 C219 1.391 . S
C250 C212 1.389 . S
C250 C232 1.392 . S
C251 C222 1.392 . S
C251 C224 1.389 . S
C252 C227 1.395 . S
C252 C229 1.391 . S
H253 C213 0.951 . S
H254 C214 0.950 . S
H255 C220 0.949 . S
H256 C221 0.950 . S
H257 C225 0.951 . S
H258 C226 0.950 . S
H259 C230 0.949 . S
H260 C231 0.950 . S
H261 C235 0.950 . S
H262 C237 0.950 . S
H263 C240 0.950 . S
H264 C242 0.950 . S
C265 C266 1.443 . S
C265 N269 1.376 . S
C265 C303 1.389 . S
C266 C265 1.443 . S
C266 C267 1.340 . S
C266 H306 0.951 . S
C267 C266 1.340 . S
C267 C268 1.439 . S
C267 H307 0.950 . S
C268 C267 1.439 . S
C268 N269 1.374 . S
C268 C302 1.395 . S
N269 C265 1.376 . S
N269 C268 1.374 . S
N269 Co270 2.008 . S
Co270 N269 2.008 . S
Co270 N271 1.995 . S
Co270 N276 2.008 . S
Co270 N281 1.995 . S
Co270 N286 2.282 . S
Co270 N292 2.282 . S
N271 Co270 1.995 . S
N271 C272 1.376 . S
N271 C275 1.383 . S
C272 N271 1.376 . S
C272 C273 1.446 . S
C272 C302 1.391 . S
C273 C272 1.446 . S
C273 C274 1.339 . S
C273 H308 0.949 . S
C274 C273 1.339 . S
C274 C275 1.439 . S
C274 H309 0.950 . S
C275 N271 1.383 . S
C275 C274 1.439 . S
C275 C304 1.392 . S
N276 Co270 2.008 . S
N276 C277 1.376 . S
N276 C280 1.374 . S
C277 N276 1.376 . S
C277 C278 1.443 . S
C277 C304 1.389 . S
C278 C277 1.443 . S
C278 C279 1.340 . S
C278 H310 0.951 . S
C279 C278 1.340 . S
C279 C280 1.439 . S
C279 H311 0.950 . S
C280 N276 1.374 . S
C280 C279 1.439 . S
C280 C305 1.395 . S
N281 Co270 1.995 . S
N281 C282 1.376 . S
N281 C285 1.383 . S
C282 N281 1.376 . S
C282 C283 1.446 . S
C282 C305 1.391 . S
C283 C282 1.446 . S
C283 C284 1.339 . S
C283 H312 0.949 . S
C284 C283 1.339 . S
C284 C285 1.439 . S
C284 H313 0.950 . S
C285 N281 1.383 . S
C285 C284 1.439 . S
C285 C303 1.392 . S
N286 Co270 2.282 . S
N286 C289 1.332 . S
N286 C291 1.332 . S
C287 C288 1.386 . S
C287 C290 1.388 . S
C288 C287 1.386 . S
C288 C289 1.382 . S
C288 H314 0.950 . S
C289 N286 1.332 . S
C289 C288 1.382 . S
C289 H300 0.952 . S
C290 C287 1.388 . S
C290 C291 1.382 . S
C290 H315 0.950 . S
C291 N286 1.332 . S
C291 C290 1.382 . S
C291 H301 0.948 . S
N292 Co270 2.282 . S
N292 C296 1.332 . S
N292 C297 1.332 . S
C293 C294 1.388 . S
C293 C297 1.382 . S
C293 H316 0.950 . S
C294 C293 1.388 . S
C294 C295 1.386 . S
C295 C294 1.386 . S
C295 C296 1.382 . S
C295 H317 0.950 . S
C296 N292 1.332 . S
C296 C295 1.382 . S
C296 H298 0.952 . S
C297 N292 1.332 . S
C297 C293 1.382 . S
C297 H299 0.948 . S
H298 C296 0.952 . S
H299 C297 0.948 . S
H300 C289 0.952 . S
H301 C291 0.948 . S
C302 C268 1.395 . S
C302 C272 1.391 . S
C303 C265 1.389 . S
C303 C285 1.392 . S
C304 C275 1.392 . S
C304 C277 1.389 . S
C305 C280 1.395 . S
C305 C282 1.391 . S
H306 C266 0.951 . S
H307 C267 0.950 . S
H308 C273 0.949 . S
H309 C274 0.950 . S
H310 C278 0.951 . S
H311 C279 0.950 . S
H312 C283 0.949 . S
H313 C284 0.950 . S
H314 C288 0.950 . S
H315 C290 0.950 . S
H316 C293 0.950 . S
H317 C295 0.950 . S
C318 C319 1.443 . S
C318 N322 1.376 . S
C318 C356 1.389 . S
C319 C318 1.443 . S
C319 C320 1.340 . S
C319 H359 0.951 . S
C320 C319 1.340 . S
C320 C321 1.439 . S
C320 H360 0.950 . S
C321 C320 1.439 . S
C321 N322 1.374 . S
C321 C355 1.395 . S
N322 C318 1.376 . S
N322 C321 1.374 . S
N322 Co323 2.008 . S
Co323 N322 2.008 . S
Co323 N324 1.995 . S
Co323 N329 2.008 . S
Co323 N334 1.995 . S
Co323 N339 2.282 . S
Co323 N345 2.282 . S
N324 Co323 1.995 . S
N324 C325 1.376 . S
N324 C328 1.383 . S
C325 N324 1.376 . S
C325 C326 1.446 . S
C325 C355 1.391 . S
C326 C325 1.446 . S
C326 C327 1.339 . S
C326 H361 0.949 . S
C327 C326 1.339 . S
C327 C328 1.439 . S
C327 H362 0.950 . S
C328 N324 1.383 . S
C328 C327 1.439 . S
C328 C357 1.392 . S
N329 Co323 2.008 . S
N329 C330 1.376 . S
N329 C333 1.374 . S
C330 N329 1.376 . S
C330 C331 1.443 . S
C330 C357 1.389 . S
C331 C330 1.443 . S
C331 C332 1.340 . S
C331 H363 0.951 . S
C332 C331 1.340 . S
C332 C333 1.439 . S
C332 H364 0.950 . S
C333 N329 1.374 . S
C333 C332 1.439 . S
C333 C358 1.395 . S
N334 Co323 1.995 . S
N334 C335 1.376 . S
N334 C338 1.383 . S
C335 N334 1.376 . S
C335 C336 1.446 . S
C335 C358 1.391 . S
C336 C335 1.446 . S
C336 C337 1.339 . S
C336 H365 0.949 . S
C337 C336 1.339 . S
C337 C338 1.439 . S
C337 H366 0.950 . S
C338 N334 1.383 . S
C338 C337 1.439 . S
C338 C356 1.392 . S
N339 Co323 2.282 . S
N339 C342 1.332 . S
N339 C344 1.332 . S
C340 C341 1.386 . S
C340 C343 1.388 . S
C341 C340 1.386 . S
C341 C342 1.382 . S
C341 H367 0.950 . S
C342 N339 1.332 . S
C342 C341 1.382 . S
C342 H353 0.952 . S
C343 C340 1.388 . S
C343 C344 1.382 . S
C343 H368 0.950 . S
C344 N339 1.332 . S
C344 C343 1.382 . S
C344 H354 0.948 . S
N345 Co323 2.282 . S
N345 C349 1.332 . S
N345 C350 1.332 . S
C346 C347 1.388 . S
C346 C350 1.382 . S
C346 H369 0.950 . S
C347 C346 1.388 . S
C347 C348 1.386 . S
C348 C347 1.386 . S
C348 C349 1.382 . S
C348 H370 0.950 . S
C349 N345 1.332 . S
C349 C348 1.382 . S
C349 H351 0.952 . S
C350 N345 1.332 . S
C350 C346 1.382 . S
C350 H352 0.948 . S
H351 C349 0.952 . S
H352 C350 0.948 . S
H353 C342 0.952 . S
H354 C344 0.948 . S
C355 C321 1.395 . S
C355 C325 1.391 . S
C356 C318 1.389 . S
C356 C338 1.392 . S
C357 C328 1.392 . S
C357 C330 1.389 . S
C358 C333 1.395 . S
C358 C335 1.391 . S
H359 C319 0.951 . S
H360 C320 0.950 . S
H361 C326 0.949 . S
H362 C327 0.950 . S
H363 C331 0.951 . S
H364 C332 0.950 . S
H365 C336 0.949 . S
H366 C337 0.950 . S
H367 C341 0.950 . S
H368 C343 0.950 . S
H369 C346 0.950 . S
H370 C348 0.950 . S
C371 C372 1.443 . S
C371 N375 1.376 . S
C371 C409 1.389 . S
C372 C371 1.443 . S
C372 C373 1.340 . S
C372 H412 0.951 . S
C373 C372 1.340 . S
C373 C374 1.439 . S
C373 H413 0.950 . S
C374 C373 1.439 . S
C374 N375 1.374 . S
C374 C408 1.395 . S
N375 C371 1.376 . S
N375 C374 1.374 . S
N375 Co376 2.008 . S
Co376 N375 2.008 . S
Co376 N377 1.995 . S
Co376 N382 2.008 . S
Co376 N387 1.995 . S
Co376 N392 2.282 . S
Co376 N398 2.282 . S
N377 Co376 1.995 . S
N377 C378 1.376 . S
N377 C381 1.383 . S
C378 N377 1.376 . S
C378 C379 1.446 . S
C378 C408 1.391 . S
C379 C378 1.446 . S
C379 C380 1.339 . S
C379 H414 0.949 . S
C380 C379 1.339 . S
C380 C381 1.439 . S
C380 H415 0.950 . S
C381 N377 1.383 . S
C381 C380 1.439 . S
C381 C410 1.392 . S
N382 Co376 2.008 . S
N382 C383 1.376 . S
N382 C386 1.374 . S
C383 N382 1.376 . S
C383 C384 1.443 . S
C383 C410 1.389 . S
C384 C383 1.443 . S
C384 C385 1.340 . S
C384 H416 0.951 . S
C385 C384 1.340 . S
C385 C386 1.439 . S
C385 H417 0.950 . S
C386 N382 1.374 . S
C386 C385 1.439 . S
C386 C411 1.395 . S
N387 Co376 1.995 . S
N387 C388 1.376 . S
N387 C391 1.383 . S
C388 N387 1.376 . S
C388 C389 1.446 . S
C388 C411 1.391 . S
C389 C388 1.446 . S
C389 C390 1.339 . S
C389 H418 0.949 . S
C390 C389 1.339 . S
C390 C391 1.439 . S
C390 H419 0.950 . S
C391 N387 1.383 . S
C391 C390 1.439 . S
C391 C409 1.392 . S
N392 Co376 2.282 . S
N392 C395 1.332 . S
N392 C397 1.332 . S
C393 C394 1.386 . S
C393 C396 1.388 . S
C394 C393 1.386 . S
C394 C395 1.382 . S
C394 H420 0.950 . S
C395 N392 1.332 . S
C395 C394 1.382 . S
C395 H406 0.952 . S
C396 C393 1.388 . S
C396 C397 1.382 . S
C396 H421 0.950 . S
C397 N392 1.332 . S
C397 C396 1.382 . S
C397 H407 0.948 . S
N398 Co376 2.282 . S
N398 C402 1.332 . S
N398 C403 1.332 . S
C399 C400 1.388 . S
C399 C403 1.382 . S
C399 H422 0.950 . S
C400 C399 1.388 . S
C400 C401 1.386 . S
C401 C400 1.386 . S
C401 C402 1.382 . S
C401 H423 0.950 . S
C402 N398 1.332 . S
C402 C401 1.382 . S
C402 H404 0.952 . S
C403 N398 1.332 . S
C403 C399 1.382 . S
C403 H405 0.948 . S
H404 C402 0.952 . S
H405 C403 0.948 . S
H406 C395 0.952 . S
H407 C397 0.948 . S
C408 C374 1.395 . S
C408 C378 1.391 . S
C409 C371 1.389 . S
C409 C391 1.392 . S
C410 C381 1.392 . S
C410 C383 1.389 . S
C411 C386 1.395 . S
C411 C388 1.391 . S
H412 C372 0.951 . S
H413 C373 0.950 . S
H414 C379 0.949 . S
H415 C380 0.950 . S
H416 C384 0.951 . S
H417 C385 0.950 . S
H418 C389 0.949 . S
H419 C390 0.950 . S
H420 C394 0.950 . S
H421 C396 0.950 . S
H422 C399 0.950 . S
H423 C401 0.950 . S
C424 C425 1.443 . S
C424 N428 1.376 . S
C424 C462 1.389 . S
C425 C424 1.443 . S
C425 C426 1.340 . S
C425 H465 0.951 . S
C426 C425 1.340 . S
C426 C427 1.439 . S
C426 H466 0.950 . S
C427 C426 1.439 . S
C427 N428 1.374 . S
C427 C461 1.395 . S
N428 C424 1.376 . S
N428 C427 1.374 . S
N428 Co429 2.008 . S
Co429 N428 2.008 . S
Co429 N430 1.995 . S
Co429 N435 2.008 . S
Co429 N440 1.995 . S
Co429 N445 2.282 . S
Co429 N451 2.282 . S
N430 Co429 1.995 . S
N430 C431 1.376 . S
N430 C434 1.383 . S
C431 N430 1.376 . S
C431 C432 1.446 . S
C431 C461 1.391 . S
C432 C431 1.446 . S
C432 C433 1.339 . S
C432 H467 0.949 . S
C433 C432 1.339 . S
C433 C434 1.439 . S
C433 H468 0.950 . S
C434 N430 1.383 . S
C434 C433 1.439 . S
C434 C463 1.392 . S
N435 Co429 2.008 . S
N435 C436 1.376 . S
N435 C439 1.374 . S
C436 N435 1.376 . S
C436 C437 1.443 . S
C436 C463 1.389 . S
C437 C436 1.443 . S
C437 C438 1.340 . S
C437 H469 0.951 . S
C438 C437 1.340 . S
C438 C439 1.439 . S
C438 H470 0.950 . S
C439 N435 1.374 . S
C439 C438 1.439 . S
C439 C464 1.395 . S
N440 Co429 1.995 . S
N440 C441 1.376 . S
N440 C444 1.383 . S
C441 N440 1.376 . S
C441 C442 1.446 . S
C441 C464 1.391 . S
C442 C441 1.446 . S
C442 C443 1.339 . S
C442 H471 0.949 . S
C443 C442 1.339 . S
C443 C444 1.439 . S
C443 H472 0.950 . S
C444 N440 1.383 . S
C444 C443 1.439 . S
C444 C462 1.392 . S
N445 Co429 2.282 . S
N445 C448 1.332 . S
N445 C450 1.332 . S
C446 C447 1.386 . S
C446 C449 1.388 . S
C447 C446 1.386 . S
C447 C448 1.382 . S
C447 H473 0.950 . S
C448 N445 1.332 . S
C448 C447 1.382 . S
C448 H459 0.952 . S
C449 C446 1.388 . S
C449 C450 1.382 . S
C449 H474 0.950 . S
C450 N445 1.332 . S
C450 C449 1.382 . S
C450 H460 0.948 . S
N451 Co429 2.282 . S
N451 C455 1.332 . S
N451 C456 1.332 . S
C452 C453 1.388 . S
C452 C456 1.382 . S
C452 H475 0.950 . S
C453 C452 1.388 . S
C453 C454 1.386 . S
C454 C453 1.386 . S
C454 C455 1.382 . S
C454 H476 0.950 . S
C455 N451 1.332 . S
C455 C454 1.382 . S
C455 H457 0.952 . S
C456 N451 1.332 . S
C456 C452 1.382 . S
C456 H458 0.948 . S
H457 C455 0.952 . S
H458 C456 0.948 . S
H459 C448 0.952 . S
H460 C450 0.948 . S
C461 C427 1.395 . S
C461 C431 1.391 . S
C462 C424 1.389 . S
C462 C444 1.392 . S
C463 C434 1.392 . S
C463 C436 1.389 . S
C464 C439 1.395 . S
C464 C441 1.391 . S
H465 C425 0.951 . S
H466 C426 0.950 . S
H467 C432 0.949 . S
H468 C433 0.950 . S
H469 C437 0.951 . S
H470 C438 0.950 . S
H471 C442 0.949 . S
H472 C443 0.950 . S
H473 C447 0.950 . S
H474 C449 0.950 . S
H475 C452 0.950 . S
H476 C454 0.950 . S
C477 C478 1.443 . S
C477 N481 1.376 . S
C477 C515 1.389 . S
C478 C477 1.443 . S
C478 C479 1.340 . S
C478 H518 0.951 . S
C479 C478 1.340 . S
C479 C480 1.439 . S
C479 H519 0.950 . S
C480 C479 1.439 . S
C480 N481 1.374 . S
C480 C514 1.395 . S
N481 C477 1.376 . S
N481 C480 1.374 . S
N481 Co482 2.008 . S
Co482 N481 2.008 . S
Co482 N483 1.995 . S
Co482 N488 2.008 . S
Co482 N493 1.995 . S
Co482 N498 2.282 . S
Co482 N504 2.282 . S
N483 Co482 1.995 . S
N483 C484 1.376 . S
N483 C487 1.383 . S
C484 N483 1.376 . S
C484 C485 1.446 . S
C484 C514 1.391 . S
C485 C484 1.446 . S
C485 C486 1.339 . S
C485 H520 0.949 . S
C486 C485 1.339 . S
C486 C487 1.439 . S
C486 H521 0.950 . S
C487 N483 1.383 . S
C487 C486 1.439 . S
C487 C516 1.392 . S
N488 Co482 2.008 . S
N488 C489 1.376 . S
N488 C492 1.374 . S
C489 N488 1.376 . S
C489 C490 1.443 . S
C489 C516 1.389 . S
C490 C489 1.443 . S
C490 C491 1.340 . S
C490 H522 0.951 . S
C491 C490 1.340 . S
C491 C492 1.439 . S
C491 H523 0.950 . S
C492 N488 1.374 . S
C492 C491 1.439 . S
C492 C517 1.395 . S
N493 Co482 1.995 . S
N493 C494 1.376 . S
N493 C497 1.383 . S
C494 N493 1.376 . S
C494 C495 1.446 . S
C494 C517 1.391 . S
C495 C494 1.446 . S
C495 C496 1.339 . S
C495 H524 0.949 . S
C496 C495 1.339 . S
C496 C497 1.439 . S
C496 H525 0.950 . S
C497 N493 1.383 . S
C497 C496 1.439 . S
C497 C515 1.392 . S
N498 Co482 2.282 . S
N498 C501 1.332 . S
N498 C503 1.332 . S
C499 C500 1.386 . S
C499 C502 1.388 . S
C500 C499 1.386 . S
C500 C501 1.382 . S
C500 H526 0.950 . S
C501 N498 1.332 . S
C501 C500 1.382 . S
C501 H512 0.952 . S
C502 C499 1.388 . S
C502 C503 1.382 . S
C502 H527 0.950 . S
C503 N498 1.332 . S
C503 C502 1.382 . S
C503 H513 0.948 . S
N504 Co482 2.282 . S
N504 C508 1.332 . S
N504 C509 1.332 . S
C505 C506 1.388 . S
C505 C509 1.382 . S
C505 H528 0.950 . S
C506 C505 1.388 . S
C506 C507 1.386 . S
C507 C506 1.386 . S
C507 C508 1.382 . S
C507 H529 0.950 . S
C508 N504 1.332 . S
C508 C507 1.382 . S
C508 H510 0.952 . S
C509 N504 1.332 . S
C509 C505 1.382 . S
C509 H511 0.948 . S
H510 C508 0.952 . S
H511 C509 0.948 . S
H512 C501 0.952 . S
H513 C503 0.948 . S
C514 C480 1.395 . S
C514 C484 1.391 . S
C515 C477 1.389 . S
C515 C497 1.392 . S
C516 C487 1.392 . S
C516 C489 1.389 . S
C517 C492 1.395 . S
C517 C494 1.391 . S
H518 C478 0.951 . S
H519 C479 0.950 . S
H520 C485 0.949 . S
H521 C486 0.950 . S
H522 C490 0.951 . S
H523 C491 0.950 . S
H524 C495 0.949 . S
H525 C496 0.950 . S
H526 C500 0.950 . S
H527 C502 0.950 . S
H528 C505 0.950 . S
H529 C507 0.950 . S
C530 C531 1.443 . S
C530 N534 1.376 . S
C530 C568 1.389 . S
C531 C530 1.443 . S
C531 C532 1.340 . S
C531 H571 0.951 . S
C532 C531 1.340 . S
C532 C533 1.439 . S
C532 H572 0.950 . S
C533 C532 1.439 . S
C533 N534 1.374 . S
C533 C567 1.395 . S
N534 C530 1.376 . S
N534 C533 1.374 . S
N534 Co535 2.008 . S
Co535 N534 2.008 . S
Co535 N536 1.995 . S
Co535 N541 2.008 . S
Co535 N546 1.995 . S
Co535 N551 2.282 . S
Co535 N557 2.282 . S
N536 Co535 1.995 . S
N536 C537 1.376 . S
N536 C540 1.383 . S
C537 N536 1.376 . S
C537 C538 1.446 . S
C537 C567 1.391 . S
C538 C537 1.446 . S
C538 C539 1.339 . S
C538 H573 0.949 . S
C539 C538 1.339 . S
C539 C540 1.439 . S
C539 H574 0.950 . S
C540 N536 1.383 . S
C540 C539 1.439 . S
C540 C569 1.392 . S
N541 Co535 2.008 . S
N541 C542 1.376 . S
N541 C545 1.374 . S
C542 N541 1.376 . S
C542 C543 1.443 . S
C542 C569 1.389 . S
C543 C542 1.443 . S
C543 C544 1.340 . S
C543 H575 0.951 . S
C544 C543 1.340 . S
C544 C545 1.439 . S
C544 H576 0.950 . S
C545 N541 1.374 . S
C545 C544 1.439 . S
C545 C570 1.395 . S
N546 Co535 1.995 . S
N546 C547 1.376 . S
N546 C550 1.383 . S
C547 N546 1.376 . S
C547 C548 1.446 . S
C547 C570 1.391 . S
C548 C547 1.446 . S
C548 C549 1.339 . S
C548 H577 0.949 . S
C549 C548 1.339 . S
C549 C550 1.439 . S
C549 H578 0.950 . S
C550 N546 1.383 . S
C550 C549 1.439 . S
C550 C568 1.392 . S
N551 Co535 2.282 . S
N551 C554 1.332 . S
N551 C556 1.332 . S
C552 C553 1.386 . S
C552 C555 1.388 . S
C553 C552 1.386 . S
C553 C554 1.382 . S
C553 H579 0.950 . S
C554 N551 1.332 . S
C554 C553 1.382 . S
C554 H565 0.952 . S
C555 C552 1.388 . S
C555 C556 1.382 . S
C555 H580 0.950 . S
C556 N551 1.332 . S
C556 C555 1.382 . S
C556 H566 0.948 . S
N557 Co535 2.282 . S
N557 C561 1.332 . S
N557 C562 1.332 . S
C558 C559 1.388 . S
C558 C562 1.382 . S
C558 H581 0.950 . S
C559 C558 1.388 . S
C559 C560 1.386 . S
C560 C559 1.386 . S
C560 C561 1.382 . S
C560 H582 0.950 . S
C561 N557 1.332 . S
C561 C560 1.382 . S
C561 H563 0.952 . S
C562 N557 1.332 . S
C562 C558 1.382 . S
C562 H564 0.948 . S
H563 C561 0.952 . S
H564 C562 0.948 . S
H565 C554 0.952 . S
H566 C556 0.948 . S
C567 C533 1.395 . S
C567 C537 1.391 . S
C568 C530 1.389 . S
C568 C550 1.392 . S
C569 C540 1.392 . S
C569 C542 1.389 . S
C570 C545 1.395 . S
C570 C547 1.391 . S
H571 C531 0.951 . S
H572 C532 0.950 . S
H573 C538 0.949 . S
H574 C539 0.950 . S
H575 C543 0.951 . S
H576 C544 0.950 . S
H577 C548 0.949 . S
H578 C549 0.950 . S
H579 C553 0.950 . S
H580 C555 0.950 . S
H581 C558 0.950 . S
H582 C560 0.950 . S
C583 C584 1.443 . S
C583 N587 1.376 . S
C583 C621 1.389 . S
C584 C583 1.443 . S
C584 C585 1.340 . S
C584 H624 0.951 . S
C585 C584 1.340 . S
C585 C586 1.439 . S
C585 H625 0.950 . S
C586 C585 1.439 . S
C586 N587 1.374 . S
C586 C620 1.395 . S
N587 C583 1.376 . S
N587 C586 1.374 . S
N587 Co588 2.008 . S
Co588 N587 2.008 . S
Co588 N589 1.995 . S
Co588 N594 2.008 . S
Co588 N599 1.995 . S
Co588 N604 2.282 . S
Co588 N610 2.282 . S
N589 Co588 1.995 . S
N589 C590 1.376 . S
N589 C593 1.383 . S
C590 N589 1.376 . S
C590 C591 1.446 . S
C590 C620 1.391 . S
C591 C590 1.446 . S
C591 C592 1.339 . S
C591 H626 0.949 . S
C592 C591 1.339 . S
C592 C593 1.439 . S
C592 H627 0.950 . S
C593 N589 1.383 . S
C593 C592 1.439 . S
C593 C622 1.392 . S
N594 Co588 2.008 . S
N594 C595 1.376 . S
N594 C598 1.374 . S
C595 N594 1.376 . S
C595 C596 1.443 . S
C595 C622 1.389 . S
C596 C595 1.443 . S
C596 C597 1.340 . S
C596 H628 0.951 . S
C597 C596 1.340 . S
C597 C598 1.439 . S
C597 H629 0.950 . S
C598 N594 1.374 . S
C598 C597 1.439 . S
C598 C623 1.395 . S
N599 Co588 1.995 . S
N599 C600 1.376 . S
N599 C603 1.383 . S
C600 N599 1.376 . S
C600 C601 1.446 . S
C600 C623 1.391 . S
C601 C600 1.446 . S
C601 C602 1.339 . S
C601 H630 0.949 . S
C602 C601 1.339 . S
C602 C603 1.439 . S
C602 H631 0.950 . S
C603 N599 1.383 . S
C603 C602 1.439 . S
C603 C621 1.392 . S
N604 Co588 2.282 . S
N604 C607 1.332 . S
N604 C609 1.332 . S
C605 C606 1.386 . S
C605 C608 1.388 . S
C606 C605 1.386 . S
C606 C607 1.382 . S
C606 H632 0.950 . S
C607 N604 1.332 . S
C607 C606 1.382 . S
C607 H618 0.952 . S
C608 C605 1.388 . S
C608 C609 1.382 . S
C608 H633 0.950 . S
C609 N604 1.332 . S
C609 C608 1.382 . S
C609 H619 0.948 . S
N610 Co588 2.282 . S
N610 C614 1.332 . S
N610 C615 1.332 . S
C611 C612 1.388 . S
C611 C615 1.382 . S
C611 H634 0.950 . S
C612 C611 1.388 . S
C612 C613 1.386 . S
C613 C612 1.386 . S
C613 C614 1.382 . S
C613 H635 0.950 . S
C614 N610 1.332 . S
C614 C613 1.382 . S
C614 H616 0.952 . S
C615 N610 1.332 . S
C615 C611 1.382 . S
C615 H617 0.948 . S
H616 C614 0.952 . S
H617 C615 0.948 . S
H618 C607 0.952 . S
H619 C609 0.948 . S
C620 C586 1.395 . S
C620 C590 1.391 . S
C621 C583 1.389 . S
C621 C603 1.392 . S
C622 C593 1.392 . S
C622 C595 1.389 . S
C623 C598 1.395 . S
C623 C600 1.391 . S
H624 C584 0.951 . S
H625 C585 0.950 . S
H626 C591 0.949 . S
H627 C592 0.950 . S
H628 C596 0.951 . S
H629 C597 0.950 . S
H630 C601 0.949 . S
H631 C602 0.950 . S
H632 C606 0.950 . S
H633 C608 0.950 . S
H634 C611 0.950 . S
H635 C613 0.950 . S
H636 C642 0.930 . S
H637 C646 0.930 . S
H638 C651 0.929 . S
H639 C649 0.929 . S
H640 C644 0.929 . S
H641 C650 0.929 . S
C642 H636 0.930 . S
C642 C643 1.367 . S
C642 C650 1.378 . S
C643 C642 1.367 . S
C643 C651 1.433 . S
C644 H640 0.929 . S
C644 C646 1.378 . S
C644 C648 1.350 . S
C645 C648 1.463 1_556 S
C645 C650 1.350 . S
C645 N653 1.427 . S
C646 H637 0.930 . S
C646 C644 1.378 . S
C646 C647 1.367 . S
C647 C646 1.367 . S
C647 C649 1.433 . S
C648 C644 1.350 . S
C648 C645 1.463 1_554 S
C648 N652 1.427 . S
C649 H639 0.929 . S
C649 C647 1.433 . S
C649 N652 1.384 . S
C650 H641 0.929 . S
C650 C642 1.378 . S
C650 C645 1.350 . S
C651 H638 0.929 . S
C651 C643 1.433 . S
C651 N653 1.384 . S
N652 C648 1.427 . S
N652 C649 1.384 . S
N653 C645 1.427 . S
N653 C651 1.384 . S
H654 C660 0.930 . S
H655 C664 0.930 . S
H656 C669 0.929 . S
H657 C667 0.929 . S
H658 C662 0.929 . S
H659 C668 0.929 . S
C660 H654 0.930 . S
C660 C661 1.367 . S
C660 C668 1.378 . S
C661 C660 1.367 . S
C661 C669 1.433 . S
C662 H658 0.929 . S
C662 C664 1.378 . S
C662 C666 1.350 . S
C663 C666 1.463 . S
C663 C668 1.350 . S
C663 N671 1.427 . S
C664 H655 0.930 . S
C664 C662 1.378 . S
C664 C665 1.367 . S
C665 C664 1.367 . S
C665 C667 1.433 . S
C666 C662 1.350 . S
C666 C663 1.463 . S
C666 N670 1.427 . S
C667 H657 0.929 . S
C667 C665 1.433 . S
C667 N670 1.384 . S
C668 H659 0.929 . S
C668 C660 1.378 . S
C668 C663 1.350 . S
C669 H656 0.929 . S
C669 C661 1.433 . S
C669 N671 1.384 . S
N670 C666 1.427 . S
N670 C667 1.384 . S
N671 C663 1.427 . S
N671 C669 1.384 . S
H672 C678 0.930 . S
H673 C682 0.930 . S
H674 C687 0.929 . S
H675 C685 0.929 . S
H676 C680 0.929 . S
H677 C686 0.929 . S
C678 H672 0.930 . S
C678 C679 1.367 . S
C678 C686 1.378 . S
C679 C678 1.367 . S
C679 C687 1.433 . S
C680 H676 0.929 . S
C680 C682 1.378 . S
C680 C684 1.350 . S
C681 C684 1.463 . S
C681 C686 1.350 . S
C681 N689 1.427 . S
C682 H673 0.930 . S
C682 C680 1.378 . S
C682 C683 1.367 . S
C683 C682 1.367 . S
C683 C685 1.433 . S
C684 C680 1.350 . S
C684 C681 1.463 . S
C684 N688 1.427 . S
C685 H675 0.929 . S
C685 C683 1.433 . S
C685 N688 1.384 . S
C686 H677 0.929 . S
C686 C678 1.378 . S
C686 C681 1.350 . S
C687 H674 0.929 . S
C687 C679 1.433 . S
C687 N689 1.384 . S
N688 C684 1.427 . S
N688 C685 1.384 . S
N689 C681 1.427 . S
N689 C687 1.384 . S
H690 C696 0.930 . S
H691 C700 0.930 . S
H692 C705 0.929 . S
H693 C703 0.929 . S
H694 C698 0.929 . S
H695 C704 0.929 . S
C696 H690 0.930 . S
C696 C697 1.367 . S
C696 C704 1.378 . S
C697 C696 1.367 . S
C697 C705 1.433 . S
C698 H694 0.929 . S
C698 C700 1.378 . S
C698 C702 1.350 . S
C699 C702 1.463 1_554 S
C699 C704 1.350 . S
C699 N707 1.427 . S
C700 H691 0.930 . S
C700 C698 1.378 . S
C700 C701 1.367 . S
C701 C700 1.367 . S
C701 C703 1.433 . S
C702 C698 1.350 . S
C702 C699 1.463 1_556 S
C702 N706 1.427 . S
C703 H693 0.929 . S
C703 C701 1.433 . S
C703 N706 1.384 . S
C704 H695 0.929 . S
C704 C696 1.378 . S
C704 C699 1.350 . S
C705 H692 0.929 . S
C705 C697 1.433 . S
C705 N707 1.384 . S
N706 C702 1.427 . S
N706 C703 1.384 . S
N707 C699 1.427 . S
N707 C705 1.384 . S
H708 C714 0.930 . S
H709 C718 0.930 . S
H710 C723 0.929 . S
H711 C721 0.929 . S
H712 C716 0.929 . S
H713 C722 0.929 . S
C714 H708 0.930 . S
C714 C715 1.367 . S
C714 C722 1.378 . S
C715 C714 1.367 . S
C715 C723 1.433 . S
C716 H712 0.929 . S
C716 C718 1.378 . S
C716 C720 1.350 . S
C717 C720 1.463 . S
C717 C722 1.350 . S
C717 N725 1.427 . S
C718 H709 0.930 . S
C718 C716 1.378 . S
C718 C719 1.367 . S
C719 C718 1.367 . S
C719 C721 1.433 . S
C720 C716 1.350 . S
C720 C717 1.463 . S
C720 N724 1.427 . S
C721 H711 0.929 . S
C721 C719 1.433 . S
C721 N724 1.384 . S
C722 H713 0.929 . S
C722 C714 1.378 . S
C722 C717 1.350 . S
C723 H710 0.929 . S
C723 C715 1.433 . S
C723 N725 1.384 . S
N724 C720 1.427 . S
N724 C721 1.384 . S
N725 C717 1.427 . S
N725 C723 1.384 . S
H726 C732 0.930 . S
H727 C736 0.930 . S
H728 C741 0.929 . S
H729 C739 0.929 . S
H730 C734 0.929 . S
H731 C740 0.929 . S
C732 H726 0.930 . S
C732 C733 1.367 . S
C732 C740 1.378 . S
C733 C732 1.367 . S
C733 C741 1.433 . S
C734 H730 0.929 . S
C734 C736 1.378 . S
C734 C738 1.350 . S
C735 C738 1.463 . S
C735 C740 1.350 . S
C735 N743 1.427 . S
C736 H727 0.930 . S
C736 C734 1.378 . S
C736 C737 1.367 . S
C737 C736 1.367 . S
C737 C739 1.433 . S
C738 C734 1.350 . S
C738 C735 1.463 . S
C738 N742 1.427 . S
C739 H729 0.929 . S
C739 C737 1.433 . S
C739 N742 1.384 . S
C740 H731 0.929 . S
C740 C732 1.378 . S
C740 C735 1.350 . S
C741 H728 0.929 . S
C741 C733 1.433 . S
C741 N743 1.384 . S
N742 C738 1.427 . S
N742 C739 1.384 . S
N743 C735 1.427 . S
N743 C741 1.384 . S
H744 C750 0.930 . S
H745 C754 0.930 . S
H746 C759 0.929 . S
H747 C757 0.929 . S
H748 C752 0.929 . S
H749 C758 0.929 . S
C750 H744 0.930 . S
C750 C751 1.367 . S
C750 C758 1.378 . S
C751 C750 1.367 . S
C751 C759 1.433 . S
C752 H748 0.929 . S
C752 C754 1.378 . S
C752 C756 1.350 . S
C753 C756 1.463 . S
C753 C758 1.350 . S
C753 N761 1.427 . S
C754 H745 0.930 . S
C754 C752 1.378 . S
C754 C755 1.367 . S
C755 C754 1.367 . S
C755 C757 1.433 . S
C756 C752 1.350 . S
C756 C753 1.463 . S
C756 N760 1.427 . S
C757 H747 0.929 . S
C757 C755 1.433 . S
C757 N760 1.384 . S
C758 H749 0.929 . S
C758 C750 1.378 . S
C758 C753 1.350 . S
C759 H746 0.929 . S
C759 C751 1.433 . S
C759 N761 1.384 . S
N760 C756 1.427 . S
N760 C757 1.384 . S
N761 C753 1.427 . S
N761 C759 1.384 . S
H762 C768 0.930 . S
H763 C772 0.930 . S
H764 C777 0.929 . S
H765 C775 0.929 . S
H766 C770 0.929 . S
H767 C776 0.929 . S
C768 H762 0.930 . S
C768 C769 1.367 . S
C768 C776 1.378 . S
C769 C768 1.367 . S
C769 C777 1.433 . S
C770 H766 0.929 . S
C770 C772 1.378 . S
C770 C774 1.350 . S
C771 C774 1.463 . S
C771 C776 1.350 . S
C771 N779 1.427 . S
C772 H763 0.930 . S
C772 C770 1.378 . S
C772 C773 1.367 . S
C773 C772 1.367 . S
C773 C775 1.433 . S
C774 C770 1.350 . S
C774 C771 1.463 . S
C774 N778 1.427 . S
C775 H765 0.929 . S
C775 C773 1.433 . S
C775 N778 1.384 . S
C776 H767 0.929 . S
C776 C768 1.378 . S
C776 C771 1.350 . S
C777 H764 0.929 . S
C777 C769 1.433 . S
C777 N779 1.384 . S
N778 C774 1.427 . S
N778 C775 1.384 . S
N779 C771 1.427 . S
N779 C777 1.384 . S
H780 C786 0.930 . S
H781 C790 0.930 . S
H782 C795 0.929 . S
H783 C793 0.929 . S
H784 C788 0.929 . S
H785 C794 0.929 . S
C786 H780 0.930 . S
C786 C787 1.367 . S
C786 C794 1.378 . S
C787 C786 1.367 . S
C787 C795 1.433 . S
C788 H784 0.929 . S
C788 C790 1.378 . S
C788 C792 1.350 . S
C789 C792 1.463 . S
C789 C794 1.350 . S
C789 N797 1.427 . S
C790 H781 0.930 . S
C790 C788 1.378 . S
C790 C791 1.367 . S
C791 C790 1.367 . S
C791 C793 1.433 . S
C792 C788 1.350 . S
C792 C789 1.463 . S
C792 N796 1.427 . S
C793 H783 0.929 . S
C793 C791 1.433 . S
C793 N796 1.384 . S
C794 H785 0.929 . S
C794 C786 1.378 . S
C794 C789 1.350 . S
C795 H782 0.929 . S
C795 C787 1.433 . S
C795 N797 1.384 . S
N796 C792 1.427 . S
N796 C793 1.384 . S
N797 C789 1.427 . S
N797 C795 1.384 . S
H798 C804 0.930 . S
H799 C808 0.930 . S
H800 C813 0.929 . S
H801 C811 0.929 . S
H802 C806 0.929 . S
H803 C812 0.929 . S
C804 H798 0.930 . S
C804 C805 1.367 . S
C804 C812 1.378 . S
C805 C804 1.367 . S
C805 C813 1.433 . S
C806 H802 0.929 . S
C806 C808 1.378 . S
C806 C810 1.350 . S
C807 C810 1.463 . S
C807 C812 1.350 . S
C807 N815 1.427 . S
C808 H799 0.930 . S
C808 C806 1.378 . S
C808 C809 1.367 . S
C809 C808 1.367 . S
C809 C811 1.433 . S
C810 C806 1.350 . S
C810 C807 1.463 . S
C810 N814 1.427 . S
C811 H801 0.929 . S
C811 C809 1.433 . S
C811 N814 1.384 . S
C812 H803 0.929 . S
C812 C804 1.378 . S
C812 C807 1.350 . S
C813 H800 0.929 . S
C813 C805 1.433 . S
C813 N815 1.384 . S
N814 C810 1.427 . S
N814 C811 1.384 . S
N815 C807 1.427 . S
N815 C813 1.384 . S
H816 C822 0.930 . S
H817 C826 0.930 . S
H818 C831 0.929 . S
H819 C829 0.929 . S
H820 C824 0.929 . S
H821 C830 0.929 . S
C822 H816 0.930 . S
C822 C823 1.367 . S
C822 C830 1.378 . S
C823 C822 1.367 . S
C823 C831 1.433 . S
C824 H820 0.929 . S
C824 C826 1.378 . S
C824 C828 1.350 . S
C825 C828 1.463 . S
C825 C830 1.350 . S
C825 N833 1.427 . S
C826 H817 0.930 . S
C826 C824 1.378 . S
C826 C827 1.367 . S
C827 C826 1.367 . S
C827 C829 1.433 . S
C828 C824 1.350 . S
C828 C825 1.463 . S
C828 N832 1.427 . S
C829 H819 0.929 . S
C829 C827 1.433 . S
C829 N832 1.384 . S
C830 H821 0.929 . S
C830 C822 1.378 . S
C830 C825 1.350 . S
C831 H818 0.929 . S
C831 C823 1.433 . S
C831 N833 1.384 . S
N832 C828 1.427 . S
N832 C829 1.384 . S
N833 C825 1.427 . S
N833 C831 1.384 . S
H834 C840 0.930 . S
H835 C844 0.930 . S
H836 C849 0.929 . S
H837 C847 0.929 . S
H838 C842 0.929 . S
H839 C848 0.929 . S
C840 H834 0.930 . S
C840 C841 1.367 . S
C840 C848 1.378 . S
C841 C840 1.367 . S
C841 C849 1.433 . S
C842 H838 0.929 . S
C842 C844 1.378 . S
C842 C846 1.350 . S
C843 C846 1.463 . S
C843 C848 1.350 . S
C843 N851 1.427 . S
C844 H835 0.930 . S
C844 C842 1.378 . S
C844 C845 1.367 . S
C845 C844 1.367 . S
C845 C847 1.433 . S
C846 C842 1.350 . S
C846 C843 1.463 . S
C846 N850 1.427 . S
C847 H837 0.929 . S
C847 C845 1.433 . S
C847 N850 1.384 . S
C848 H839 0.929 . S
C848 C840 1.378 . S
C848 C843 1.350 . S
C849 H836 0.929 . S
C849 C841 1.433 . S
C849 N851 1.384 . S
N850 C846 1.427 . S
N850 C847 1.384 . S
N851 C843 1.427 . S
N851 C849 1.384 . S
H852 C858 0.930 . S
H853 C862 0.930 . S
H854 C867 0.929 . S
H855 C865 0.929 . S
H856 C860 0.929 1_655 S
H857 C866 0.929 1_455 S
C858 H852 0.930 . S
C858 C859 1.367 . S
C858 C866 1.378 . S
C859 C858 1.367 . S
C859 C867 1.433 . S
C860 H856 0.929 1_455 S
C860 C862 1.378 . S
C860 C864 1.350 . S
C861 C864 1.463 1_655 S
C861 C866 1.350 . S
C861 N869 1.427 . S
C862 H853 0.930 . S
C862 C860 1.378 . S
C862 C863 1.367 . S
C863 C862 1.367 . S
C863 C865 1.433 . S
C864 C860 1.350 . S
C864 C861 1.463 1_455 S
C864 N868 1.427 . S
C865 H855 0.929 . S
C865 C863 1.433 . S
C865 N868 1.384 . S
C866 H857 0.929 1_655 S
C866 C858 1.378 . S
C866 C861 1.350 . S
C867 H854 0.929 . S
C867 C859 1.433 . S
C867 N869 1.384 . S
N868 C864 1.427 . S
N868 C865 1.384 . S
N869 C861 1.427 . S
N869 C867 1.384 . S
H870 C876 0.930 . S
H871 C880 0.930 . S
H872 C885 0.929 . S
H873 C883 0.929 . S
H874 C878 0.929 . S
H875 C884 0.929 . S
C876 H870 0.930 . S
C876 C877 1.367 . S
C876 C884 1.378 . S
C877 C876 1.367 . S
C877 C885 1.433 . S
C878 H874 0.929 . S
C878 C880 1.378 . S
C878 C882 1.350 . S
C879 C882 1.463 1_545 S
C879 C884 1.350 . S
C879 N887 1.427 . S
C880 H871 0.930 . S
C880 C878 1.378 . S
C880 C881 1.367 . S
C881 C880 1.367 . S
C881 C883 1.433 . S
C882 C878 1.350 . S
C882 C879 1.463 1_565 S
C882 N886 1.427 . S
C883 H873 0.929 . S
C883 C881 1.433 . S
C883 N886 1.384 . S
C884 H875 0.929 . S
C884 C876 1.378 . S
C884 C879 1.350 . S
C885 H872 0.929 . S
C885 C877 1.433 . S
C885 N887 1.384 . S
N886 C882 1.427 . S
N886 C883 1.384 . S
N887 C879 1.427 . S
N887 C885 1.384 . S
H888 C894 0.930 . S
H889 C898 0.930 . S
H890 C903 0.929 . S
H891 C901 0.929 . S
H892 C896 0.929 . S
H893 C902 0.929 . S
C894 H888 0.930 . S
C894 C895 1.367 . S
C894 C902 1.378 . S
C895 C894 1.367 . S
C895 C903 1.433 . S
C896 H892 0.929 . S
C896 C898 1.378 . S
C896 C900 1.350 . S
C897 C900 1.463 . S
C897 C902 1.350 . S
C897 N905 1.427 . S
C898 H889 0.930 . S
C898 C896 1.378 . S
C898 C899 1.367 . S
C899 C898 1.367 . S
C899 C901 1.433 . S
C900 C896 1.350 . S
C900 C897 1.463 . S
C900 N904 1.427 . S
C901 H891 0.929 . S
C901 C899 1.433 . S
C901 N904 1.384 . S
C902 H893 0.929 . S
C902 C894 1.378 . S
C902 C897 1.350 . S
C903 H890 0.929 . S
C903 C895 1.433 . S
C903 N905 1.384 . S
N904 C900 1.427 . S
N904 C901 1.384 . S
N905 C897 1.427 . S
N905 C903 1.384 . S
H906 C912 0.930 . S
H907 C916 0.930 . S
H908 C921 0.929 . S
H909 C919 0.929 . S
H910 C914 0.918 1_545 S
H911 C920 0.917 1_565 S
C912 H906 0.930 . S
C912 C913 1.367 . S
C912 C920 1.378 . S
C913 C912 1.367 . S
C913 C921 1.433 . S
C914 H910 0.918 1_565 S
C914 C916 1.378 . S
C914 C918 1.350 . S
C915 C918 1.463 1_545 S
C915 C920 1.350 . S
C915 N923 1.427 . S
C916 H907 0.930 . S
C916 C914 1.378 . S
C916 C917 1.367 . S
C917 C916 1.367 . S
C917 C919 1.433 . S
C918 C914 1.350 . S
C918 C915 1.463 1_565 S
C918 N922 1.427 . S
C919 H909 0.929 . S
C919 C917 1.433 . S
C919 N922 1.384 . S
C920 H911 0.917 1_545 S
C920 C912 1.378 . S
C920 C915 1.350 . S
C921 H908 0.929 . S
C921 C913 1.433 . S
C921 N923 1.384 . S
N922 C918 1.427 . S
N922 C919 1.384 . S
N923 C915 1.427 . S
N923 C921 1.384 . S
H924 C930 0.930 . S
H925 C934 0.930 . S
H926 C939 0.929 . S
H927 C937 0.929 . S
H928 C932 0.929 . S
H929 C938 0.929 . S
C930 H924 0.930 . S
C930 C931 1.367 . S
C930 C938 1.378 . S
C931 C930 1.367 . S
C931 C939 1.433 . S
C932 H928 0.929 . S
C932 C934 1.378 . S
C932 C936 1.350 . S
C933 C936 1.463 . S
C933 C938 1.350 . S
C933 N941 1.427 . S
C934 H925 0.930 . S
C934 C932 1.378 . S
C934 C935 1.367 . S
C935 C934 1.367 . S
C935 C937 1.433 . S
C936 C932 1.350 . S
C936 C933 1.463 . S
C936 N940 1.427 . S
C937 H927 0.929 . S
C937 C935 1.433 . S
C937 N940 1.384 . S
C938 H929 0.929 . S
C938 C930 1.378 . S
C938 C933 1.350 . S
C939 H926 0.929 . S
C939 C931 1.433 . S
C939 N941 1.384 . S
N940 C936 1.427 . S
N940 C937 1.384 . S
N941 C933 1.427 . S
N941 C939 1.384 . S
H942 C948 0.930 . S
H943 C952 0.930 . S
H944 C957 0.929 . S
H945 C955 0.929 . S
H946 C950 0.929 . S
H947 C956 0.929 . S
C948 H942 0.930 . S
C948 C949 1.367 . S
C948 C956 1.378 . S
C949 C948 1.367 . S
C949 C957 1.433 . S
C950 H946 0.929 . S
C950 C952 1.378 . S
C950 C954 1.350 . S
C951 C954 1.463 1_455 S
C951 C956 1.350 . S
C951 N959 1.427 . S
C952 H943 0.930 . S
C952 C950 1.378 . S
C952 C953 1.367 . S
C953 C952 1.367 . S
C953 C955 1.433 . S
C954 C950 1.350 . S
C954 C951 1.463 1_655 S
C954 N958 1.427 . S
C955 H945 0.929 . S
C955 C953 1.433 . S
C955 N958 1.384 . S
C956 H947 0.929 . S
C956 C948 1.378 . S
C956 C951 1.350 . S
C957 H944 0.929 . S
C957 C949 1.433 . S
C957 N959 1.384 . S
N958 C954 1.427 . S
N958 C955 1.384 . S
N959 C951 1.427 . S
N959 C957 1.384 . S
H960 C966 0.930 . S
H961 C970 0.930 . S
H962 C975 0.929 . S
H963 C973 0.929 . S
H964 C968 0.929 . S
H965 C974 0.929 . S
C966 H960 0.930 . S
C966 C967 1.367 . S
C966 C974 1.378 . S
C967 C966 1.367 . S
C967 C975 1.433 . S
C968 H964 0.929 . S
C968 C970 1.378 . S
C968 C972 1.350 . S
C969 C972 1.463 . S
C969 C974 1.350 . S
C969 N977 1.427 . S
C970 H961 0.930 . S
C970 C968 1.378 . S
C970 C971 1.367 . S
C971 C970 1.367 . S
C971 C973 1.433 . S
C972 C968 1.350 . S
C972 C969 1.463 . S
C972 N976 1.427 . S
C973 H963 0.929 . S
C973 C971 1.433 . S
C973 N976 1.384 . S
C974 H965 0.929 . S
C974 C966 1.378 . S
C974 C969 1.350 . S
C975 H962 0.929 . S
C975 C967 1.433 . S
C975 N977 1.384 . S
N976 C972 1.427 . S
N976 C973 1.384 . S
N977 C969 1.427 . S
N977 C975 1.384 . S
H978 C984 0.930 . S
H979 C988 0.930 . S
H980 C993 0.929 . S
H981 C991 0.929 . S
H982 C986 0.929 . S
H983 C992 0.929 . S
C984 H978 0.930 . S
C984 C985 1.367 . S
C984 C992 1.378 . S
C985 C984 1.367 . S
C985 C993 1.433 . S
C986 H982 0.929 . S
C986 C988 1.378 . S
C986 C990 1.350 . S
C987 C990 1.463 1_655 S
C987 C992 1.350 . S
C987 N995 1.427 . S
C988 H979 0.930 . S
C988 C986 1.378 . S
C988 C989 1.367 . S
C989 C988 1.367 . S
C989 C991 1.433 . S
C990 C986 1.350 . S
C990 C987 1.463 1_455 S
C990 N994 1.427 . S
C991 H981 0.929 . S
C991 C989 1.433 . S
C991 N994 1.384 . S
C992 H983 0.929 . S
C992 C984 1.378 . S
C992 C987 1.350 . S
C993 H980 0.929 . S
C993 C985 1.433 . S
C993 N995 1.384 . S
N994 C990 1.427 . S
N994 C991 1.384 . S
N995 C987 1.427 . S
N995 C993 1.384 . S
H996 C1002 0.930 . S
H997 C1006 0.930 . S
H998 C1011 0.929 . S
H999 C1009 0.929 . S
H1000 C1004 0.929 . S
H1001 C1010 0.929 . S
C1002 H996 0.930 . S
C1002 C1003 1.367 . S
C1002 C1010 1.378 . S
C1003 C1002 1.367 . S
C1003 C1011 1.433 . S
C1004 H1000 0.929 . S
C1004 C1006 1.378 . S
C1004 C1008 1.350 . S
C1005 C1008 1.463 1_545 S
C1005 C1010 1.350 . S
C1005 N1013 1.427 . S
C1006 H997 0.930 . S
C1006 C1004 1.378 . S
C1006 C1007 1.367 . S
C1007 C1006 1.367 . S
C1007 C1009 1.433 . S
C1008 C1004 1.350 . S
C1008 C1005 1.463 1_565 S
C1008 N1012 1.427 . S
C1009 H999 0.929 . S
C1009 C1007 1.433 . S
C1009 N1012 1.384 . S
C1010 H1001 0.929 . S
C1010 C1002 1.378 . S
C1010 C1005 1.350 . S
C1011 H998 0.929 . S
C1011 C1003 1.433 . S
C1011 N1013 1.384 . S
N1012 C1008 1.427 . S
N1012 C1009 1.384 . S
N1013 C1005 1.427 . S
N1013 C1011 1.384 . S
H1014 C1020 0.930 . S
H1015 C1024 0.930 . S
H1016 C1029 0.929 . S
H1017 C1027 0.929 . S
H1018 C1022 0.929 . S
H1019 C1028 0.929 . S
C1020 H1014 0.930 . S
C1020 C1021 1.367 . S
C1020 C1028 1.378 . S
C1021 C1020 1.367 . S
C1021 C1029 1.433 . S
C1022 H1018 0.929 . S
C1022 C1024 1.378 . S
C1022 C1026 1.350 . S
C1023 C1026 1.463 . S
C1023 C1028 1.350 . S
C1023 N1031 1.427 . S
C1024 H1015 0.930 . S
C1024 C1022 1.378 . S
C1024 C1025 1.367 . S
C1025 C1024 1.367 . S
C1025 C1027 1.433 . S
C1026 C1022 1.350 . S
C1026 C1023 1.463 . S
C1026 N1030 1.427 . S
C1027 H1017 0.929 . S
C1027 C1025 1.433 . S
C1027 N1030 1.384 . S
C1028 H1019 0.929 . S
C1028 C1020 1.378 . S
C1028 C1023 1.350 . S
C1029 H1016 0.929 . S
C1029 C1021 1.433 . S
C1029 N1031 1.384 . S
N1030 C1026 1.427 . S
N1030 C1027 1.384 . S
N1031 C1023 1.427 . S
N1031 C1029 1.384 . S
H1032 C1038 0.930 . S
H1033 C1042 0.930 . S
H1034 C1047 0.929 . S
H1035 C1045 0.929 . S
H1036 C1040 0.929 . S
H1037 C1046 0.929 . S
C1038 H1032 0.930 . S
C1038 C1039 1.367 . S
C1038 C1046 1.378 . S
C1039 C1038 1.367 . S
C1039 C1047 1.433 . S
C1040 H1036 0.929 . S
C1040 C1042 1.378 . S
C1040 C1044 1.350 . S
C1041 C1044 1.463 1_455 S
C1041 C1046 1.350 . S
C1041 N1049 1.427 . S
C1042 H1033 0.930 . S
C1042 C1040 1.378 . S
C1042 C1043 1.367 . S
C1043 C1042 1.367 . S
C1043 C1045 1.433 . S
C1044 C1040 1.350 . S
C1044 C1041 1.463 1_655 S
C1044 N1048 1.427 . S
C1045 H1035 0.929 . S
C1045 C1043 1.433 . S
C1045 N1048 1.384 . S
C1046 H1037 0.929 . S
C1046 C1038 1.378 . S
C1046 C1041 1.350 . S
C1047 H1034 0.929 . S
C1047 C1039 1.433 . S
C1047 N1049 1.384 . S
N1048 C1044 1.427 . S
N1048 C1045 1.384 . S
N1049 C1041 1.427 . S
N1049 C1047 1.384 . S
H1050 C1056 0.930 . S
H1051 C1060 0.930 . S
H1052 C1065 0.929 . S
H1053 C1063 0.929 . S
H1054 C1058 0.929 . S
H1055 C1064 0.929 . S
C1056 H1050 0.930 . S
C1056 C1057 1.367 . S
C1056 C1064 1.378 . S
C1057 C1056 1.367 . S
C1057 C1065 1.433 . S
C1058 H1054 0.929 . S
C1058 C1060 1.378 . S
C1058 C1062 1.350 . S
C1059 C1062 1.463 1_565 S
C1059 C1064 1.350 . S
C1059 N1067 1.427 . S
C1060 H1051 0.930 . S
C1060 C1058 1.378 . S
C1060 C1061 1.367 . S
C1061 C1060 1.367 . S
C1061 C1063 1.433 . S
C1062 C1058 1.350 . S
C1062 C1059 1.463 1_545 S
C1062 N1066 1.427 . S
C1063 H1053 0.929 . S
C1063 C1061 1.433 . S
C1063 N1066 1.384 . S
C1064 H1055 0.929 . S
C1064 C1056 1.378 . S
C1064 C1059 1.350 . S
C1065 H1052 0.929 . S
C1065 C1057 1.433 . S
C1065 N1067 1.384 . S
N1066 C1062 1.427 . S
N1066 C1063 1.384 . S
N1067 C1059 1.427 . S
N1067 C1065 1.384 . S
C643 C569 1.863 . S
C647 C39 1.867 . S
C661 C92 1.867 . S
C665 C622 1.866 . S
C679 C145 1.861 . S
C683 C357 1.866 . S
C697 C198 1.868 . S
C701 C410 1.864 . S
C715 C463 1.858 . S
C719 C251 1.862 . S
C733 C304 1.866 . S
C737 C516 1.860 . S
C751 C462 1.928 . S
C755 C38 1.928 . S
C769 C91 1.920 . S
C773 C515 1.921 . S
C787 C144 1.921 . S
C791 C568 1.923 . S
C805 C197 1.926 . S
C809 C621 1.928 . S
C823 C356 1.928 . S
C827 C250 1.928 . S
C841 C409 1.927 . S
C845 C303 1.925 . S
C859 C188 1.007 . S
C863 C29 1.007 . S
C877 C82 1.010 . S
C881 C241 1.006 . S
C895 C294 1.006 . S
C899 C135 1.008 . S
C913 C506 1.008 . S
C917 C347 1.007 . S
C931 C559 1.007 . S
C935 C400 1.011 . S
C949 C453 1.005 . S
C953 C612 1.009 . S
C967 C181 2.010 . S
C971 C22 2.012 . S
C985 C75 2.009 . S
C989 C234 2.011 . S
C1003 C287 2.012 . S
C1007 C128 2.010 . S
C1021 C340 2.010 . S
C1025 C499 2.012 . S
C1039 C552 2.012 . S
C1043 C393 2.010 . S
C1057 C446 2.009 . S
C1061 C605 2.011 . S
