# Generated by pormake.
# Topology fnd, (5)-cn, num edge types: 1
# Building blocks:
#     Node 0, Type 0, BuildingBlock: BEQFEK_clean_sbu_0, # of connection points: 5
#     Node 1, Type 0, BuildingBlock: BEQFEK_clean_sbu_0, # of connection points: 5
#     Node 2, Type 0, BuildingBlock: BEQFEK_clean_sbu_0, # of connection points: 5
#     Node 3, Type 0, BuildingBlock: BEQFEK_clean_sbu_0, # of connection points: 5
#     Node 4, Type 0, BuildingBlock: BEQFEK_clean_sbu_0, # of connection points: 5
#     Node 5, Type 0, BuildingBlock: BEQFEK_clean_sbu_0, # of connection points: 5
#     Node 6, Type 0, BuildingBlock: BEQFEK_clean_sbu_0, # of connection points: 5
#     Node 7, Type 0, BuildingBlock: BEQFEK_clean_sbu_0, # of connection points: 5
#     Node 8, Type 0, BuildingBlock: BEQFEK_clean_sbu_0, # of connection points: 5
#     Node 9, Type 0, BuildingBlock: BEQFEK_clean_sbu_0, # of connection points: 5
#     Node 10, Type 0, BuildingBlock: BEQFEK_clean_sbu_0, # of connection points: 5
#     Node 11, Type 0, BuildingBlock: BEQFEK_clean_sbu_0, # of connection points: 5
#     Node 12, Type 0, BuildingBlock: BEQFEK_clean_sbu_0, # of connection points: 5
#     Node 13, Type 0, BuildingBlock: BEQFEK_clean_sbu_0, # of connection points: 5
#     Node 14, Type 0, BuildingBlock: BEQFEK_clean_sbu_0, # of connection points: 5
#     Node 15, Type 0, BuildingBlock: BEQFEK_clean_sbu_0, # of connection points: 5
#     Node 16, Type 0, BuildingBlock: BEQFEK_clean_sbu_0, # of connection points: 5
#     Node 17, Type 0, BuildingBlock: BEQFEK_clean_sbu_0, # of connection points: 5
#     Edge 18, Type (0, 0), BuildingBlock: ZUJKAS_clean_linker_0, # of connection points: 2
#     Edge 19, Type (0, 0), BuildingBlock: ZUJKAS_clean_linker_0, # of connection points: 2
#     Edge 20, Type (0, 0), BuildingBlock: ZUJKAS_clean_linker_0, # of connection points: 2
#     Edge 21, Type (0, 0), BuildingBlock: ZUJKAS_clean_linker_0, # of connection points: 2
#     Edge 22, Type (0, 0), BuildingBlock: ZUJKAS_clean_linker_0, # of connection points: 2
#     Edge 23, Type (0, 0), BuildingBlock: ZUJKAS_clean_linker_0, # of connection points: 2
#     Edge 24, Type (0, 0), BuildingBlock: ZUJKAS_clean_linker_0, # of connection points: 2
#     Edge 25, Type (0, 0), BuildingBlock: ZUJKAS_clean_linker_0, # of connection points: 2
#     Edge 26, Type (0, 0), BuildingBlock: ZUJKAS_clean_linker_0, # of connection points: 2
#     Edge 27, Type (0, 0), BuildingBlock: ZUJKAS_clean_linker_0, # of connection points: 2
#     Edge 28, Type (0, 0), BuildingBlock: ZUJKAS_clean_linker_0, # of connection points: 2
#     Edge 29, Type (0, 0), BuildingBlock: ZUJKAS_clean_linker_0, # of connection points: 2
#     Edge 30, Type (0, 0), BuildingBlock: ZUJKAS_clean_linker_0, # of connection points: 2
#     Edge 31, Type (0, 0), BuildingBlock: ZUJKAS_clean_linker_0, # of connection points: 2
#     Edge 32, Type (0, 0), BuildingBlock: ZUJKAS_clean_linker_0, # of connection points: 2
#     Edge 33, Type (0, 0), BuildingBlock: ZUJKAS_clean_linker_0, # of connection points: 2
#     Edge 34, Type (0, 0), BuildingBlock: ZUJKAS_clean_linker_0, # of connection points: 2
#     Edge 35, Type (0, 0), BuildingBlock: ZUJKAS_clean_linker_0, # of connection points: 2
#     Edge 36, Type (0, 0), BuildingBlock: ZUJKAS_clean_linker_0, # of connection points: 2
#     Edge 37, Type (0, 0), BuildingBlock: ZUJKAS_clean_linker_0, # of connection points: 2
#     Edge 38, Type (0, 0), BuildingBlock: ZUJKAS_clean_linker_0, # of connection points: 2
#     Edge 39, Type (0, 0), BuildingBlock: ZUJKAS_clean_linker_0, # of connection points: 2
#     Edge 40, Type (0, 0), BuildingBlock: ZUJKAS_clean_linker_0, # of connection points: 2
#     Edge 41, Type (0, 0), BuildingBlock: ZUJKAS_clean_linker_0, # of connection points: 2
#     Edge 42, Type (0, 0), BuildingBlock: ZUJKAS_clean_linker_0, # of connection points: 2
#     Edge 43, Type (0, 0), BuildingBlock: ZUJKAS_clean_linker_0, # of connection points: 2
#     Edge 44, Type (0, 0), BuildingBlock: ZUJKAS_clean_linker_0, # of connection points: 2
#     Edge 45, Type (0, 0), BuildingBlock: ZUJKAS_clean_linker_0, # of connection points: 2
#     Edge 46, Type (0, 0), BuildingBlock: ZUJKAS_clean_linker_0, # of connection points: 2
#     Edge 47, Type (0, 0), BuildingBlock: ZUJKAS_clean_linker_0, # of connection points: 2
#     Edge 48, Type (0, 0), BuildingBlock: ZUJKAS_clean_linker_0, # of connection points: 2
#     Edge 49, Type (0, 0), BuildingBlock: ZUJKAS_clean_linker_0, # of connection points: 2
#     Edge 50, Type (0, 0), BuildingBlock: ZUJKAS_clean_linker_0, # of connection points: 2
#     Edge 51, Type (0, 0), BuildingBlock: ZUJKAS_clean_linker_0, # of connection points: 2
#     Edge 52, Type (0, 0), BuildingBlock: ZUJKAS_clean_linker_0, # of connection points: 2
#     Edge 53, Type (0, 0), BuildingBlock: ZUJKAS_clean_linker_0, # of connection points: 2
#     Edge 54, Type (0, 0), BuildingBlock: ZUJKAS_clean_linker_0, # of connection points: 2
#     Edge 55, Type (0, 0), BuildingBlock: ZUJKAS_clean_linker_0, # of connection points: 2
#     Edge 56, Type (0, 0), BuildingBlock: ZUJKAS_clean_linker_0, # of connection points: 2
#     Edge 57, Type (0, 0), BuildingBlock: ZUJKAS_clean_linker_0, # of connection points: 2
#     Edge 58, Type (0, 0), BuildingBlock: ZUJKAS_clean_linker_0, # of connection points: 2
#     Edge 59, Type (0, 0), BuildingBlock: ZUJKAS_clean_linker_0, # of connection points: 2
#     Edge 60, Type (0, 0), BuildingBlock: ZUJKAS_clean_linker_0, # of connection points: 2
#     Edge 61, Type (0, 0), BuildingBlock: ZUJKAS_clean_linker_0, # of connection points: 2
#     Edge 62, Type (0, 0), BuildingBlock: ZUJKAS_clean_linker_0, # of connection points: 2
# Relax obj value: 0.148
# Max RMSD: 0.197
# Mean RMSD: 0.197
data_MOF--net-fnd--node1-BEQFEK_clean_sbu_0--edge1-ZUJKAS_clean_linker_0
_symmetry_space_group_name_H-M    P1
_symmetry_Int_Tables_number       1
_symmetry_cell_setting            triclinic
loop_
_symmetry_equiv_pos_as_xyz
'x, y, z'
_cell_length_a     103.40732
_cell_length_b     103.42742
_cell_length_c     23.596853
_cell_angle_alpha  89.993071
_cell_angle_beta   89.983544
_cell_angle_gamma 119.99527
loop_
_atom_site_label
_atom_site_type_symbol
_atom_site_fract_x
_atom_site_fract_y
_atom_site_fract_z
_atom_type_partial_charge
Co0 Co 0.10603 0.2157 0.49766 0.0
Co1 Co 0.10001 0.20716 0.36835 0.0
C2 C 0.1179 0.19799 0.44013 0.0
O3 O 0.11649 0.2046 0.48308 0.0
O4 O 0.11197 0.19783 0.39264 0.0
C5 C 0.1225 0.22548 0.60166 0.0
O6 O 0.13269 0.22431 0.57251 0.0
C7 C 0.10722 0.20856 0.2462 0.0
C8 C 0.08492 0.20025 0.20813 0.0
C9 C 0.09981 0.20576 0.19457 0.0
N10 N 0.09717 0.20507 0.2881 0.0
N11 N 0.08386 0.20001 0.26495 0.0
C12 C 0.1234 0.21371 0.25581 0.0
H13 H 0.12515 0.2105 0.29869 0.0
H14 H 0.13003 0.22604 0.25253 0.0
H15 H 0.12754 0.20892 0.22322 0.0
C16 C 0.11834 0.24608 0.45015 0.0
N17 N 0.11192 0.23119 0.44403 0.0
N18 N 0.10911 0.2277 0.38998 0.0
C19 C 0.1133 0.24032 0.36019 0.0
C20 C 0.11945 0.25236 0.39715 0.0
C21 C 0.12376 0.254 0.50559 0.0
H22 H 0.11405 0.25098 0.53365 0.0
H23 H 0.13092 0.25025 0.5265 0.0
H24 H 0.13026 0.26629 0.50025 0.0
O25 O 0.08414 0.20198 0.49398 0.0
O26 O 0.08 0.19606 0.40281 0.0
H27 H 0.09908 0.23116 0.28747 0.0
H28 H 0.11002 0.25123 0.28792 0.0
C29 C 0.11008 0.24081 0.29859 0.0
H30 H 0.11883 0.24042 0.27283 0.0
H31 H 0.07406 0.19659 0.28795 0.0
O32 O 0.11059 0.22314 0.57691 0.0
C33 C 0.07526 0.19499 0.45333 0.0
Co34 Co 0.77964 0.88915 0.49998 0.0
Co35 Co 0.78715 0.89147 0.37069 0.0
C36 C 0.79999 0.91853 0.44221 0.0
O37 O 0.79364 0.91037 0.48515 0.0
O38 O 0.79826 0.91293 0.39279 0.0
C39 C 0.77249 0.89865 0.603 0.0
O40 O 0.77588 0.9107 0.57346 0.0
C41 C 0.78671 0.89697 0.24821 0.0
C42 C 0.78998 0.87898 0.21319 0.0
C43 C 0.7873 0.89036 0.19768 0.0
N44 N 0.78872 0.88963 0.29124 0.0
N45 N 0.7909 0.87906 0.26994 0.0
C46 C 0.78299 0.90909 0.25636 0.0
H47 H 0.77902 0.90887 0.30027 0.0
H48 H 0.77434 0.90787 0.22553 0.0
H49 H 0.79318 0.92006 0.2492 0.0
C50 C 0.74882 0.87476 0.45516 0.0
N51 N 0.7637 0.88154 0.44768 0.0
N52 N 0.7667 0.88221 0.39315 0.0
C53 C 0.75371 0.87562 0.36421 0.0
C54 C 0.742 0.87084 0.40246 0.0
C55 C 0.74148 0.87266 0.51171 0.0
H56 H 0.74602 0.88366 0.53284 0.0
H57 H 0.72919 0.86753 0.50801 0.0
H58 H 0.74419 0.86555 0.53871 0.0
O59 O 0.79043 0.87794 0.49583 0.0
O60 O 0.79662 0.88076 0.40491 0.0
H61 H 0.74093 0.86392 0.28988 0.0
H62 H 0.75483 0.88318 0.27912 0.0
C63 C 0.75235 0.87279 0.30167 0.0
H64 H 0.76038 0.86931 0.28779 0.0
H65 H 0.79248 0.87154 0.29425 0.0
O66 O 0.77263 0.88772 0.57892 0.0
C67 C 0.7969 0.87581 0.45399 0.0
Co68 Co 0.10507 0.88911 0.50612 0.0
Co69 Co 0.10248 0.89339 0.37625 0.0
C70 C 0.0756 0.88015 0.44759 0.0
O71 O 0.08388 0.88216 0.49037 0.0
O72 O 0.08103 0.8835 0.39774 0.0
C73 C 0.09518 0.87225 0.6084 0.0
O74 O 0.0834 0.86348 0.57778 0.0
C75 C 0.0968 0.88821 0.25301 0.0
C76 C 0.11735 0.90758 0.21964 0.0
C77 C 0.10443 0.89479 0.20309 0.0
N78 N 0.10503 0.89666 0.29675 0.0
N79 N 0.11715 0.90832 0.27639 0.0
C80 C 0.08276 0.87351 0.25982 0.0
H81 H 0.08196 0.86911 0.30336 0.0
H82 H 0.08236 0.86532 0.22842 0.0
H83 H 0.07301 0.87505 0.25257 0.0
C84 C 0.11987 0.87287 0.46385 0.0
N85 N 0.11262 0.88047 0.45532 0.0
N86 N 0.11146 0.88207 0.40055 0.0
C87 C 0.11794 0.87545 0.37237 0.0
C88 C 0.1235 0.86944 0.41155 0.0
C89 C 0.12402 0.86987 0.52111 0.0
H90 H 0.12808 0.87994 0.54813 0.0
H91 H 0.11394 0.86067 0.54153 0.0
H92 H 0.13278 0.86669 0.5183 0.0
O93 O 0.11655 0.91099 0.50066 0.0
O94 O 0.11322 0.91374 0.40961 0.0
H95 H 0.12518 0.88579 0.29114 0.0
H96 H 0.12291 0.86731 0.29516 0.0
C97 C 0.11832 0.87444 0.30917 0.0
H98 H 0.10684 0.86957 0.29239 0.0
H99 H 0.12556 0.91653 0.30143 0.0
O100 O 0.10609 0.88356 0.58535 0.0
C101 C 0.11842 0.91929 0.4581 0.0
Co102 Co 0.21512 0.10867 0.50417 0.0
Co103 Co 0.20603 0.10207 0.63272 0.0
C104 C 0.19615 0.11926 0.56054 0.0
O105 O 0.20313 0.11823 0.51806 0.0
O106 O 0.19603 0.11338 0.60813 0.0
C107 C 0.22452 0.12527 0.40027 0.0
O108 O 0.22274 0.13515 0.42901 0.0
C109 C 0.20642 0.10865 0.75512 0.0
C110 C 0.19975 0.08655 0.7921 0.0
C111 C 0.20415 0.10117 0.8064 0.0
N112 N 0.20374 0.09891 0.71275 0.0
N113 N 0.19962 0.08571 0.73524 0.0
C114 C 0.21036 0.12455 0.74627 0.0
H115 H 0.20642 0.12595 0.70431 0.0
H116 H 0.22265 0.13189 0.7476 0.0
H117 H 0.2054 0.12814 0.78019 0.0
C118 C 0.24536 0.1224 0.55338 0.0
N119 N 0.23041 0.11517 0.55863 0.0
N120 N 0.22676 0.11214 0.61248 0.0
C121 C 0.23938 0.11705 0.64307 0.0
C122 C 0.25155 0.12385 0.60676 0.0
C123 C 0.25341 0.1283 0.49839 0.0
H124 H 0.25105 0.1188 0.47011 0.0
H125 H 0.24914 0.13501 0.47733 0.0
H126 H 0.26563 0.13538 0.50438 0.0
O127 O 0.20244 0.08668 0.50707 0.0
O128 O 0.19579 0.08209 0.59747 0.0
H129 H 0.23071 0.10276 0.71584 0.0
H130 H 0.25067 0.11489 0.71651 0.0
C131 C 0.23988 0.11407 0.70489 0.0
H132 H 0.23863 0.12242 0.73003 0.0
H133 H 0.197 0.07616 0.71177 0.0
O134 O 0.22276 0.11362 0.42537 0.0
C135 C 0.19542 0.07757 0.54703 0.0
Co136 Co 0.88682 0.10628 0.49287 0.0
Co137 Co 0.89085 0.10276 0.62306 0.0
C138 C 0.87505 0.0762 0.54836 0.0
O139 O 0.87734 0.08467 0.50597 0.0
O140 O 0.87949 0.08156 0.59778 0.0
C141 C 0.87003 0.09954 0.39042 0.0
O142 O 0.85962 0.08884 0.4214 0.0
C143 C 0.88425 0.09594 0.74597 0.0
C144 C 0.90531 0.11376 0.78283 0.0
C145 C 0.89137 0.10202 0.79712 0.0
N146 N 0.89351 0.10396 0.70347 0.0
N147 N 0.90611 0.11448 0.72599 0.0
C148 C 0.86915 0.08246 0.73764 0.0
H149 H 0.86867 0.07692 0.69695 0.0
H150 H 0.86055 0.08587 0.73662 0.0
H151 H 0.86647 0.07445 0.77306 0.0
C152 C 0.87367 0.12386 0.53768 0.0
N153 N 0.87981 0.11518 0.54512 0.0
N154 N 0.88144 0.11375 0.59972 0.0
C155 C 0.87642 0.1216 0.62879 0.0
C156 C 0.87133 0.12824 0.59044 0.0
C157 C 0.87103 0.12859 0.48095 0.0
H158 H 0.88082 0.13178 0.45316 0.0
H159 H 0.86118 0.11903 0.46094 0.0
H160 H 0.869 0.13812 0.48453 0.0
O161 O 0.90862 0.11528 0.49944 0.0
O162 O 0.91131 0.11226 0.59094 0.0
H163 H 0.88779 0.12783 0.70845 0.0
H164 H 0.87072 0.12865 0.70719 0.0
C165 C 0.87619 0.12242 0.69208 0.0
H166 H 0.86998 0.11099 0.70952 0.0
H167 H 0.9152 0.12235 0.70246 0.0
O168 O 0.88235 0.10881 0.41344 0.0
C169 C 0.91685 0.11673 0.54181 0.0
Co170 Co 0.88874 0.77794 0.49558 0.0
Co171 Co 0.8909 0.78633 0.62428 0.0
C172 C 0.91802 0.79891 0.55198 0.0
O173 O 0.90999 0.79204 0.50937 0.0
O174 O 0.91228 0.79759 0.60095 0.0
C175 C 0.89784 0.77032 0.39217 0.0
O176 O 0.91002 0.77377 0.42097 0.0
C177 C 0.8965 0.7861 0.74688 0.0
C178 C 0.87944 0.79079 0.78182 0.0
C179 C 0.89027 0.78733 0.79748 0.0
N180 N 0.88944 0.78848 0.70376 0.0
N181 N 0.87944 0.79152 0.72501 0.0
C182 C 0.90796 0.78146 0.73878 0.0
H183 H 0.9075 0.7774 0.69487 0.0
H184 H 0.9062 0.77262 0.76962 0.0
H185 H 0.91922 0.79124 0.74598 0.0
C186 C 0.87425 0.74744 0.54367 0.0
N187 N 0.88118 0.76237 0.54961 0.0
N188 N 0.88168 0.76573 0.60371 0.0
C189 C 0.87474 0.75294 0.63382 0.0
C190 C 0.86999 0.74097 0.5969 0.0
C191 C 0.87215 0.7397 0.48804 0.0
H192 H 0.88305 0.74449 0.46592 0.0
H193 H 0.86754 0.72751 0.49335 0.0
H194 H 0.86454 0.74171 0.46109 0.0
O195 O 0.87755 0.78881 0.49836 0.0
O196 O 0.87993 0.79532 0.5889 0.0
H197 H 0.86178 0.74089 0.70731 0.0
H198 H 0.88118 0.75387 0.72043 0.0
C199 C 0.87127 0.75201 0.69581 0.0
H200 H 0.86836 0.76061 0.70754 0.0
H201 H 0.87222 0.79355 0.70068 0.0
O202 O 0.88701 0.77051 0.417 0.0
C203 C 0.87516 0.79536 0.53926 0.0
Co204 Co 0.77118 0.54777 0.84434 0.0
Co205 Co 0.76774 0.5419 0.7136 0.0
C206 C 0.78291 0.52987 0.78401 0.0
O207 O 0.78028 0.53539 0.8277 0.0
O208 O 0.77892 0.5316 0.7348 0.0
C209 C 0.78783 0.55646 0.94737 0.0
O210 O 0.79838 0.55673 0.91549 0.0
C211 C 0.77425 0.54242 0.59115 0.0
C212 C 0.75513 0.54358 0.55495 0.0
C213 C 0.76819 0.54373 0.54039 0.0
N214 N 0.76524 0.54173 0.63362 0.0
N215 N 0.75373 0.54218 0.61155 0.0
C216 C 0.78904 0.54337 0.59996 0.0
H217 H 0.79323 0.54734 0.64342 0.0
H218 H 0.79731 0.55099 0.56841 0.0
H219 H 0.78768 0.5321 0.59456 0.0
C220 C 0.78571 0.57918 0.80544 0.0
N221 N 0.77886 0.5644 0.79551 0.0
N222 N 0.77766 0.56202 0.74046 0.0
C223 C 0.78383 0.57529 0.71355 0.0
C224 C 0.78907 0.58659 0.75382 0.0
C225 C 0.78836 0.58596 0.86329 0.0
H226 H 0.77852 0.57917 0.89065 0.0
H227 H 0.79815 0.58596 0.88249 0.0
H228 H 0.79053 0.5976 0.86157 0.0
O229 O 0.74937 0.53577 0.83654 0.0
O230 O 0.74711 0.53078 0.74453 0.0
H231 H 0.77429 0.5726 0.63098 0.0
H232 H 0.79256 0.58898 0.6379 0.0
C233 C 0.78547 0.57714 0.65057 0.0
H234 H 0.7907 0.57082 0.63414 0.0
H235 H 0.74518 0.54207 0.63538 0.0
O236 O 0.77552 0.55361 0.92474 0.0
C237 C 0.74132 0.52947 0.79331 0.0
Co238 Co 0.44548 0.22165 0.83871 0.0
Co239 Co 0.45236 0.22493 0.70818 0.0
C240 C 0.46503 0.25151 0.78238 0.0
O241 O 0.45891 0.24311 0.82499 0.0
O242 O 0.46331 0.24616 0.73255 0.0
C243 C 0.4368 0.22986 0.9408 0.0
O244 O 0.43794 0.24084 0.90916 0.0
C245 C 0.4531 0.2318 0.58502 0.0
C246 C 0.45348 0.21229 0.54874 0.0
C247 C 0.45308 0.22504 0.53409 0.0
N248 N 0.45322 0.22323 0.62778 0.0
N249 N 0.45359 0.21168 0.6056 0.0
C250 C 0.45351 0.24638 0.59287 0.0
H251 H 0.45948 0.25189 0.63238 0.0
H252 H 0.44196 0.24438 0.59605 0.0
H253 H 0.45909 0.2539 0.55633 0.0
C254 C 0.41445 0.20611 0.79617 0.0
N255 N 0.4293 0.21381 0.78771 0.0
N256 N 0.43207 0.21521 0.7329 0.0
C257 C 0.41899 0.20844 0.70468 0.0
C258 C 0.4074 0.20245 0.74385 0.0
C259 C 0.40728 0.20157 0.85332 0.0
H260 H 0.41367 0.19796 0.88034 0.0
H261 H 0.40752 0.21134 0.87386 0.0
H262 H 0.39554 0.19237 0.85026 0.0
O263 O 0.45668 0.21101 0.83101 0.0
O264 O 0.46246 0.21442 0.73961 0.0
H265 H 0.42226 0.20146 0.62327 0.0
H266 H 0.4059 0.2035 0.62746 0.0
C267 C 0.41763 0.20817 0.6415 0.0
H268 H 0.42418 0.21968 0.62501 0.0
H269 H 0.45368 0.20322 0.6294 0.0
O270 O 0.43888 0.21987 0.9184 0.0
C271 C 0.4631 0.20932 0.788 0.0
Co272 Co 0.77278 0.22141 0.84271 0.0
Co273 Co 0.76892 0.22558 0.71276 0.0
C274 C 0.74257 0.20979 0.78894 0.0
O275 O 0.75114 0.21215 0.83102 0.0
O276 O 0.74781 0.21413 0.73929 0.0
C277 C 0.76591 0.20497 0.94609 0.0
O278 O 0.75475 0.19487 0.91589 0.0
C279 C 0.76225 0.21788 0.59091 0.0
C280 C 0.77671 0.23995 0.55173 0.0
C281 C 0.76684 0.22514 0.53894 0.0
N282 N 0.7693 0.22797 0.6323 0.0
N283 N 0.77783 0.24114 0.60846 0.0
C284 C 0.75081 0.20188 0.60127 0.0
H285 H 0.74627 0.20035 0.64485 0.0
H286 H 0.75597 0.19479 0.59641 0.0
H287 H 0.74162 0.19809 0.56989 0.0
C288 C 0.78955 0.20754 0.79578 0.0
N289 N 0.78127 0.21416 0.78926 0.0
N290 N 0.78006 0.21624 0.73485 0.0
C291 C 0.78788 0.2113 0.70514 0.0
C292 C 0.79397 0.20546 0.74262 0.0
C293 C 0.79271 0.20297 0.85191 0.0
H294 H 0.79925 0.21304 0.87846 0.0
H295 H 0.78201 0.1957 0.87401 0.0
H296 H 0.79888 0.19682 0.84746 0.0
O297 O 0.78199 0.24333 0.83583 0.0
O298 O 0.7785 0.24597 0.74471 0.0
H299 H 0.79256 0.22456 0.62979 0.0
H300 H 0.80096 0.21295 0.63103 0.0
C301 C 0.79087 0.21354 0.64278 0.0
H302 H 0.78122 0.20469 0.6194 0.0
H303 H 0.78459 0.25093 0.63092 0.0
O304 O 0.7756 0.21698 0.92223 0.0
C305 C 0.78326 0.25154 0.79357 0.0
Co306 Co 0.88216 0.44068 0.82371 0.0
Co307 Co 0.87397 0.4359 0.95323 0.0
C308 C 0.86416 0.45272 0.87888 0.0
O309 O 0.87034 0.45051 0.83632 0.0
O310 O 0.86474 0.44785 0.92787 0.0
C311 C 0.89218 0.45724 0.72051 0.0
O312 O 0.89138 0.46753 0.7504 0.0
C313 C 0.87483 0.44312 0.07539 0.0
C314 C 0.86769 0.42102 0.11336 0.0
C315 C 0.8724 0.43574 0.12696 0.0
N316 N 0.87192 0.4332 0.03346 0.0
N317 N 0.86754 0.42001 0.05657 0.0
C318 C 0.8791 0.45909 0.06592 0.0
H319 H 0.87542 0.46055 0.02353 0.0
H320 H 0.89141 0.46625 0.06806 0.0
H321 H 0.87413 0.46285 0.0992 0.0
C322 C 0.91272 0.45389 0.87079 0.0
N323 N 0.89782 0.44729 0.87716 0.0
N324 N 0.89446 0.44501 0.93147 0.0
C325 C 0.90718 0.44982 0.96128 0.0
C326 C 0.91915 0.45575 0.92397 0.0
C327 C 0.92053 0.4588 0.8149 0.0
H328 H 0.91675 0.44894 0.78688 0.0
H329 H 0.91742 0.4665 0.79438 0.0
H330 H 0.93284 0.46459 0.81943 0.0
O331 O 0.86895 0.41881 0.82902 0.0
O332 O 0.86284 0.41565 0.92014 0.0
H333 H 0.89866 0.43652 0.03653 0.0
H334 H 0.91864 0.44842 0.0357 0.0
C335 C 0.90789 0.44762 0.02368 0.0
H336 H 0.90686 0.45636 0.04693 0.0
H337 H 0.86469 0.41034 0.03355 0.0
O338 O 0.88952 0.44515 0.74457 0.0
C339 C 0.8619 0.41037 0.87063 0.0
Co340 Co 0.55173 0.43924 0.82641 0.0
Co341 Co 0.55745 0.43632 0.95546 0.0
C342 C 0.54199 0.40953 0.88124 0.0
O343 O 0.54349 0.41773 0.83879 0.0
O344 O 0.54666 0.41513 0.93017 0.0
C345 C 0.53504 0.43154 0.72306 0.0
O346 O 0.52541 0.41989 0.7525 0.0
C347 C 0.5507 0.4297 0.07772 0.0
C348 C 0.57255 0.44562 0.11525 0.0
C349 C 0.55804 0.43499 0.12917 0.0
N350 N 0.56041 0.43711 0.03559 0.0
N351 N 0.57347 0.44649 0.05843 0.0
C352 C 0.53499 0.41735 0.06851 0.0
H353 H 0.53382 0.41218 0.02633 0.0
H354 H 0.52727 0.42187 0.07022 0.0
H355 H 0.53166 0.40875 0.10209 0.0
C356 C 0.53663 0.4546 0.87528 0.0
N357 N 0.54421 0.44722 0.88075 0.0
N358 N 0.54697 0.44647 0.93479 0.0
C359 C 0.5415 0.45369 0.9653 0.0
C360 C 0.53461 0.45889 0.92875 0.0
C361 C 0.53108 0.45699 0.81991 0.0
H362 H 0.52436 0.44608 0.79842 0.0
H363 H 0.52411 0.46227 0.82545 0.0
H364 H 0.54076 0.46409 0.79225 0.0
O365 O 0.57374 0.44945 0.8307 0.0
O366 O 0.57761 0.44654 0.92109 0.0
H367 H 0.55547 0.45946 0.03905 0.0
H368 H 0.54278 0.46661 0.03937 0.0
C369 C 0.54407 0.45694 0.02741 0.0
H370 H 0.53583 0.44709 0.05175 0.0
H371 H 0.58296 0.4537 0.0352 0.0
O372 O 0.54666 0.44168 0.74752 0.0
C373 C 0.58254 0.45127 0.87147 0.0
Co374 Co 0.55517 0.11181 0.82162 0.0
Co375 Co 0.55656 0.11897 0.95103 0.0
C376 C 0.58426 0.13108 0.88347 0.0
O377 O 0.57648 0.12498 0.83945 0.0
O378 O 0.57817 0.12955 0.93182 0.0
C379 C 0.56474 0.10452 0.71848 0.0
O380 O 0.5768 0.10776 0.74769 0.0
C381 C 0.56161 0.11934 0.07444 0.0
C382 C 0.54189 0.12004 0.10661 0.0
C383 C 0.55421 0.11913 0.12399 0.0
N384 N 0.55383 0.12012 0.03017 0.0
N385 N 0.54221 0.12076 0.04978 0.0
C386 C 0.57496 0.11741 0.06845 0.0
H387 H 0.57542 0.11339 0.02529 0.0
H388 H 0.57466 0.10941 0.10051 0.0
H389 H 0.58523 0.12834 0.07518 0.0
C390 C 0.5387 0.08086 0.86474 0.0
N391 N 0.54632 0.09572 0.87288 0.0
N392 N 0.54689 0.09859 0.92745 0.0
C393 C 0.5396 0.08556 0.95589 0.0
C394 C 0.53417 0.0739 0.91707 0.0
C395 C 0.53522 0.07361 0.8076 0.0
H396 H 0.53139 0.07953 0.77896 0.0
H397 H 0.54555 0.07457 0.78926 0.0
H398 H 0.52649 0.06166 0.81 0.0
O399 O 0.54475 0.12335 0.82399 0.0
O400 O 0.54687 0.12929 0.91508 0.0
H401 H 0.53227 0.08977 0.035 0.0
H402 H 0.53279 0.07255 0.03375 0.0
C403 C 0.53845 0.0843 0.01911 0.0
H404 H 0.5498 0.0901 0.03753 0.0
H405 H 0.53421 0.12121 0.02422 0.0
O406 O 0.55397 0.10492 0.74274 0.0
C407 C 0.54256 0.12994 0.86518 0.0
Co408 Co 0.43951 0.88263 0.17417 0.0
Co409 Co 0.43366 0.87353 0.04599 0.0
C410 C 0.44923 0.86245 0.11923 0.0
O411 O 0.4474 0.86901 0.16143 0.0
O412 O 0.44488 0.86348 0.06979 0.0
C413 C 0.4562 0.89099 0.27768 0.0
O414 O 0.46526 0.88794 0.24916 0.0
C415 C 0.43934 0.8737 0.92309 0.0
C416 C 0.41718 0.86788 0.88899 0.0
C417 C 0.43162 0.872 0.87275 0.0
N418 N 0.42989 0.87096 0.96659 0.0
N419 N 0.41662 0.86724 0.94582 0.0
C420 C 0.45562 0.87908 0.93055 0.0
H421 H 0.45921 0.88325 0.97435 0.0
H422 H 0.46233 0.88802 0.8995 0.0
H423 H 0.45765 0.86964 0.92316 0.0
C424 C 0.4546 0.9129 0.12452 0.0
N425 N 0.44702 0.89794 0.11939 0.0
N426 N 0.44417 0.8943 0.06548 0.0
C427 C 0.44965 0.90696 0.03465 0.0
C428 C 0.45657 0.91911 0.07093 0.0
C429 C 0.46017 0.92091 0.17972 0.0
H430 H 0.46655 0.91647 0.20215 0.0
H431 H 0.46747 0.93311 0.17377 0.0
H432 H 0.4505 0.91872 0.20673 0.0
O433 O 0.41749 0.87141 0.17112 0.0
O434 O 0.41369 0.86344 0.08207 0.0
H435 H 0.44836 0.91848 0.96029 0.0
H436 H 0.4556 0.90613 0.94856 0.0
C437 C 0.44718 0.90758 0.97243 0.0
H438 H 0.43586 0.89861 0.96048 0.0
H439 H 0.40731 0.86482 0.9705 0.0
O440 O 0.44501 0.89035 0.25258 0.0
C441 C 0.40876 0.86388 0.13097 0.0
Co442 Co 0.11113 0.55486 0.17809 0.0
Co443 Co 0.1186 0.5578 0.04769 0.0
C444 C 0.12936 0.58468 0.12088 0.0
O445 O 0.12325 0.57643 0.16385 0.0
O446 O 0.1284 0.57908 0.0719 0.0
C447 C 0.10162 0.56212 0.28092 0.0
O448 O 0.10255 0.57316 0.2503 0.0
C449 C 0.1187 0.56437 0.9246 0.0
C450 C 0.12213 0.54664 0.88799 0.0
C451 C 0.11981 0.5583 0.87354 0.0
N452 N 0.12002 0.55643 0.96724 0.0
N453 N 0.1222 0.54596 0.94488 0.0
C454 C 0.11698 0.5778 0.93261 0.0
H455 H 0.12181 0.5833 0.97358 0.0
H456 H 0.10496 0.57437 0.93265 0.0
H457 H 0.12247 0.58587 0.89747 0.0
C458 C 0.08035 0.53733 0.13358 0.0
N459 N 0.0952 0.54577 0.12597 0.0
N460 N 0.09822 0.54691 0.07136 0.0
C461 C 0.08533 0.53909 0.04248 0.0
C462 C 0.07359 0.53279 0.08095 0.0
C463 C 0.07296 0.53313 0.1904 0.0
H464 H 0.07925 0.52968 0.21872 0.0
H465 H 0.07316 0.54303 0.20959 0.0
H466 H 0.06122 0.52391 0.18722 0.0
O467 O 0.12396 0.54588 0.17231 0.0
O468 O 0.12959 0.54844 0.08071 0.0
H469 H 0.09057 0.53278 0.96315 0.0
H470 H 0.07257 0.5317 0.96414 0.0
C471 C 0.08426 0.53809 0.97921 0.0
H472 H 0.08933 0.54948 0.96138 0.0
H473 H 0.12351 0.53817 0.96852 0.0
O474 O 0.10411 0.55249 0.2576 0.0
C475 C 0.1307 0.54421 0.13027 0.0
Co476 Co 0.43741 0.55486 0.17672 0.0
Co477 Co 0.43592 0.55933 0.0459 0.0
C478 C 0.40827 0.54415 0.11425 0.0
O479 O 0.4161 0.54633 0.15853 0.0
O480 O 0.41431 0.54836 0.06565 0.0
C481 C 0.42796 0.53802 0.27939 0.0
O482 O 0.41661 0.52867 0.24805 0.0
C483 C 0.43051 0.55312 0.92325 0.0
C484 C 0.44996 0.57321 0.88774 0.0
C485 C 0.43765 0.55971 0.87254 0.0
N486 N 0.43841 0.56226 0.96606 0.0
N487 N 0.44987 0.57433 0.94444 0.0
C488 C 0.41731 0.53786 0.93184 0.0
H489 H 0.41712 0.53395 0.97579 0.0
H490 H 0.41755 0.52982 0.9013 0.0
H491 H 0.40693 0.53831 0.92477 0.0
C492 C 0.45419 0.54029 0.13737 0.0
N493 N 0.44639 0.54728 0.12737 0.0
N494 N 0.44574 0.54902 0.07237 0.0
C495 C 0.45316 0.54317 0.04555 0.0
C496 C 0.45877 0.53748 0.08587 0.0
C497 C 0.45779 0.53714 0.19535 0.0
H498 H 0.46136 0.54706 0.22281 0.0
H499 H 0.44758 0.52774 0.21422 0.0
H500 H 0.46674 0.5342 0.19415 0.0
O501 O 0.44755 0.57677 0.17105 0.0
O502 O 0.44569 0.57972 0.07887 0.0
H503 H 0.46037 0.55399 0.96508 0.0
H504 H 0.46007 0.53639 0.96939 0.0
C505 C 0.45431 0.5425 0.98249 0.0
H506 H 0.44295 0.53667 0.96412 0.0
H507 H 0.45792 0.58313 0.96856 0.0
O508 O 0.43849 0.54972 0.25676 0.0
C509 C 0.44986 0.58515 0.12831 0.0
Co510 Co 0.54874 0.77472 0.1602 0.0
Co511 Co 0.54163 0.76949 0.28983 0.0
C512 C 0.52856 0.78376 0.21992 0.0
O513 O 0.53492 0.78212 0.1766 0.0
O514 O 0.53029 0.77969 0.26897 0.0
C515 C 0.55589 0.79155 0.05743 0.0
O516 O 0.5529 0.80043 0.08747 0.0
C517 C 0.54102 0.77457 0.41288 0.0
C518 C 0.54119 0.75471 0.44654 0.0
C519 C 0.54156 0.76775 0.46296 0.0
N520 N 0.54059 0.766 0.36923 0.0
N521 N 0.54046 0.75405 0.38973 0.0
C522 C 0.54233 0.78956 0.40581 0.0
H523 H 0.54617 0.79391 0.36238 0.0
H524 H 0.5502 0.79758 0.43741 0.0
H525 H 0.5312 0.78847 0.4125 0.0
C526 C 0.57972 0.79048 0.20352 0.0
N527 N 0.56485 0.78279 0.21157 0.0
N528 N 0.56197 0.78074 0.26622 0.0
C529 C 0.57502 0.78708 0.29478 0.0
C530 C 0.58667 0.79345 0.25599 0.0
C531 C 0.587 0.79415 0.14645 0.0
H532 H 0.58129 0.78427 0.11831 0.0
H533 H 0.58581 0.8033 0.1273 0.0
H534 H 0.59903 0.79767 0.14922 0.0
O535 O 0.53778 0.75277 0.16399 0.0
O536 O 0.53202 0.7493 0.25531 0.0
H537 H 0.57117 0.77599 0.37477 0.0
H538 H 0.588 0.79404 0.37264 0.0
C539 C 0.57627 0.78753 0.35804 0.0
H540 H 0.57012 0.79281 0.37565 0.0
H541 H 0.54036 0.74568 0.3648 0.0
O542 O 0.55548 0.78031 0.08111 0.0
C543 C 0.53147 0.74413 0.20587 0.0
Co544 Co 0.21903 0.77267 0.1668 0.0
Co545 Co 0.22458 0.7693 0.29512 0.0
C546 C 0.20922 0.74272 0.22181 0.0
O547 O 0.21127 0.75121 0.17968 0.0
O548 O 0.21333 0.748 0.27154 0.0
C549 C 0.20239 0.76417 0.06325 0.0
O550 O 0.1934 0.75206 0.09192 0.0
C551 C 0.21907 0.76383 0.41822 0.0
C552 C 0.24113 0.78063 0.45176 0.0
C553 C 0.22681 0.77006 0.46833 0.0
N554 N 0.22839 0.77066 0.37448 0.0
N555 N 0.2416 0.78049 0.39492 0.0
C556 C 0.20287 0.75262 0.41124 0.0
H557 H 0.19911 0.75306 0.36756 0.0
H558 H 0.19606 0.75465 0.44252 0.0
H559 H 0.20116 0.74128 0.41866 0.0
C560 C 0.20359 0.78757 0.21583 0.0
N561 N 0.21131 0.78034 0.22125 0.0
N562 N 0.21403 0.7795 0.27527 0.0
C563 C 0.20831 0.7865 0.30591 0.0
C564 C 0.2014 0.79168 0.26935 0.0
C565 C 0.19805 0.78994 0.16042 0.0
H566 H 0.19186 0.77913 0.13785 0.0
H567 H 0.19058 0.79466 0.16605 0.0
H568 H 0.20773 0.79756 0.1337 0.0
O569 O 0.24102 0.7836 0.17026 0.0
O570 O 0.24459 0.77915 0.25924 0.0
H571 H 0.209 0.7989 0.38074 0.0
H572 H 0.20218 0.77935 0.39155 0.0
C573 C 0.2105 0.78939 0.36831 0.0
H574 H 0.22187 0.79198 0.38072 0.0
H575 H 0.25081 0.78751 0.37001 0.0
O576 O 0.21354 0.77479 0.08825 0.0
C577 C 0.24965 0.78467 0.21061 0.0
Co578 Co 0.21975 0.44467 0.15405 0.0
Co579 Co 0.22358 0.45192 0.28462 0.0
C580 C 0.24998 0.46211 0.20942 0.0
O581 O 0.24142 0.45626 0.16701 0.0
O582 O 0.24472 0.46123 0.25902 0.0
C583 C 0.22603 0.43435 0.05137 0.0
O584 O 0.23657 0.43432 0.08239 0.0
C585 C 0.23029 0.45156 0.40742 0.0
C586 C 0.21342 0.45615 0.44502 0.0
C587 C 0.22463 0.45311 0.4588 0.0
N588 N 0.22255 0.45336 0.36522 0.0
N589 N 0.21258 0.45621 0.38818 0.0
C590 C 0.2432 0.44902 0.39872 0.0
H591 H 0.24819 0.45289 0.35622 0.0
H592 H 0.23934 0.43694 0.40207 0.0
H593 H 0.2518 0.45492 0.43188 0.0
C594 C 0.20146 0.41394 0.19815 0.0
N595 N 0.21049 0.4287 0.20598 0.0
N596 N 0.21204 0.43163 0.26068 0.0
C597 C 0.20394 0.41875 0.28942 0.0
C598 C 0.19699 0.40714 0.25075 0.0
C599 C 0.19654 0.40673 0.14126 0.0
H600 H 0.19365 0.41362 0.11382 0.0
H601 H 0.2059 0.40611 0.12098 0.0
H602 H 0.18675 0.39531 0.14463 0.0
O603 O 0.21134 0.45797 0.16148 0.0
O604 O 0.21462 0.46346 0.25315 0.0
H605 H 0.19833 0.42419 0.36981 0.0
H606 H 0.19657 0.40589 0.36755 0.0
C607 C 0.20321 0.41759 0.35269 0.0
H608 H 0.21465 0.42229 0.36963 0.0
H609 H 0.20504 0.45801 0.36499 0.0
O610 O 0.217 0.43774 0.07437 0.0
C611 C 0.2102 0.46481 0.2043 0.0
H612 H 0.20479 0.14406 0.4974 0.0
H613 H 0.19098 0.15705 0.47929 0.0
H614 H 0.15498 0.12535 0.58528 0.0
H615 H 0.1693 0.11286 0.60628 0.0
H616 H 0.1662 0.14792 0.42697 0.0
H617 H 0.15878 0.16279 0.64545 0.0
H618 H 0.17095 0.15547 0.62957 0.0
H619 H 0.15112 0.14308 0.63644 0.0
C620 C 0.19402 0.14001 0.51751 0.0
C621 C 0.1881 0.12753 0.55341 0.0
C622 C 0.18611 0.14741 0.507 0.0
C623 C 0.17198 0.1423 0.53128 0.0
C624 C 0.16603 0.12978 0.56729 0.0
H625 H 0.11252 0.17197 0.38993 0.0
H626 H 0.12497 0.15762 0.41054 0.0
C627 C 0.17416 0.1226 0.57906 0.0
C628 C 0.16338 0.1498 0.51656 0.0
H629 H 0.14522 0.1667 0.57294 0.0
C630 C 0.16168 0.1521 0.45895 0.0
C631 C 0.15756 0.15534 0.55822 0.0
C632 C 0.15982 0.15419 0.62083 0.0
C633 C 0.15462 0.16002 0.44183 0.0
C634 C 0.14845 0.16521 0.48343 0.0
C635 C 0.14989 0.16266 0.541 0.0
C636 C 0.14106 0.17393 0.46881 0.0
C637 C 0.1544 0.16321 0.3795 0.0
C638 C 0.14572 0.18769 0.49551 0.0
C639 C 0.13835 0.19563 0.48508 0.0
C640 C 0.12634 0.1901 0.44693 0.0
C641 C 0.1219 0.17655 0.41889 0.0
C642 C 0.12906 0.16839 0.43048 0.0
H643 H 0.1634 0.16259 0.35606 0.0
H644 H 0.14357 0.15473 0.36106 0.0
H645 H 0.15574 0.17443 0.37255 0.0
H646 H 0.15497 0.19223 0.52508 0.0
H647 H 0.142 0.20608 0.50712 0.0
H648 H 0.86832 0.05395 0.62633 0.0
H649 H 0.85646 0.02705 0.60793 0.0
H650 H 0.85268 0.03476 0.43071 0.0
H651 H 0.8645 0.06148 0.44821 0.0
H652 H 0.82765 0.00805 0.55713 0.0
H653 H 0.8739 0.00981 0.43114 0.0
H654 H 0.87644 0.02497 0.47653 0.0
H655 H 0.86789 0.02253 0.40814 0.0
C656 C 0.86497 0.04991 0.58346 0.0
C657 C 0.86745 0.05989 0.53874 0.0
C658 C 0.85823 0.03457 0.57304 0.0
C659 C 0.85398 0.02901 0.5178 0.0
C660 C 0.85619 0.03888 0.4734 0.0
H661 H 0.80991 0.9409 0.36257 0.0
H662 H 0.8233 0.96792 0.38042 0.0
C663 C 0.86287 0.05416 0.48368 0.0
C664 C 0.84683 0.01283 0.50643 0.0
H665 H 0.85097 0.98681 0.43205 0.0
C666 C 0.83277 0.00336 0.53015 0.0
C667 C 0.85353 0.00685 0.47072 0.0
C668 C 0.86883 0.01652 0.44546 0.0
C669 C 0.82505 0.98802 0.51832 0.0
C670 C 0.83178 0.982 0.48284 0.0
C671 C 0.84585 0.99148 0.4591 0.0
C672 C 0.82449 0.9658 0.47128 0.0
C673 C 0.80963 0.97847 0.54291 0.0
C674 C 0.82117 0.95577 0.51619 0.0
C675 C 0.8135 0.94045 0.50626 0.0
C676 C 0.80915 0.93483 0.451 0.0
C677 C 0.81308 0.9449 0.40558 0.0
C678 C 0.8207 0.96031 0.41571 0.0
H679 H 0.80448 0.98527 0.55512 0.0
H680 H 0.80215 0.96978 0.51232 0.0
H681 H 0.81042 0.97281 0.5816 0.0
H682 H 0.82437 0.9598 0.55916 0.0
H683 H 0.81085 0.93301 0.54215 0.0
H684 H 0.93973 0.81435 0.63195 0.0
H685 H 0.96667 0.83016 0.61561 0.0
H686 H 0.95991 0.82103 0.43648 0.0
H687 H 0.93318 0.80543 0.45193 0.0
H688 H 0.98563 0.82088 0.56442 0.0
H689 H 0.98556 0.86681 0.44307 0.0
H690 H 0.96991 0.85384 0.48581 0.0
H691 H 0.9728 0.84848 0.41656 0.0
C692 C 0.94398 0.8158 0.58906 0.0
C693 C 0.93429 0.80864 0.5433 0.0
C694 C 0.95934 0.82483 0.57983 0.0
C695 C 0.96519 0.82694 0.52473 0.0
C696 C 0.95556 0.81981 0.47914 0.0
H697 H 0.05292 0.86822 0.36908 0.0
H698 H 0.02597 0.85569 0.38819 0.0
C699 C 0.94028 0.81078 0.48824 0.0
C700 C 0.98146 0.83587 0.51475 0.0
H701 H 0.00814 0.86586 0.44151 0.0
C702 C 0.99059 0.83081 0.53807 0.0
C703 C 0.98782 0.84871 0.47985 0.0
C704 C 0.97855 0.85489 0.45523 0.0
C705 C 0.00593 0.83805 0.52629 0.0
C706 C 0.0123 0.85087 0.4912 0.0
C707 C 0.00318 0.856 0.4682 0.0
C708 C 0.02849 0.8592 0.47888 0.0
C709 C 0.01508 0.83165 0.55027 0.0
C710 C 0.03873 0.86565 0.52332 0.0
C711 C 0.054 0.87266 0.51269 0.0
C712 C 0.05938 0.87355 0.45719 0.0
C713 C 0.04911 0.86766 0.41227 0.0
C714 C 0.03375 0.86052 0.4231 0.0
H715 H 0.00797 0.81978 0.56288 0.0
H716 H 0.0235 0.83244 0.51912 0.0
H717 H 0.02108 0.83807 0.58859 0.0
H718 H 0.03489 0.86508 0.56646 0.0
H719 H 0.0616 0.87727 0.54823 0.0
H720 H 0.80224 0.86568 0.55361 0.0
H721 H 0.81561 0.85196 0.56645 0.0
H722 H 0.82255 0.85281 0.38594 0.0
H723 H 0.80949 0.86676 0.37266 0.0
H724 H 0.8091 0.82456 0.5232 0.0
H725 H 0.86456 0.86898 0.44775 0.0
H726 H 0.84962 0.87256 0.46479 0.0
H727 H 0.84974 0.86427 0.39794 0.0
C728 C 0.80666 0.86301 0.51663 0.0
C729 C 0.80488 0.86741 0.46214 0.0
C730 C 0.81429 0.85517 0.52407 0.0
C731 C 0.82028 0.85161 0.47724 0.0
C732 C 0.81832 0.85577 0.42276 0.0
H733 H 0.86634 0.80123 0.43758 0.0
H734 H 0.85253 0.81445 0.42188 0.0
C735 C 0.81077 0.86367 0.41528 0.0
C736 C 0.8283 0.84325 0.48527 0.0
H737 H 0.86179 0.84503 0.46338 0.0
C738 C 0.82063 0.82905 0.51036 0.0
C739 C 0.84335 0.84916 0.46839 0.0
C740 C 0.85236 0.86463 0.4437 0.0
C741 C 0.82759 0.82052 0.51845 0.0
C742 C 0.84259 0.82641 0.50136 0.0
C743 C 0.85025 0.84056 0.47608 0.0
C744 C 0.85067 0.81822 0.5109 0.0
C745 C 0.81882 0.8052 0.5446 0.0
C746 C 0.85427 0.81614 0.56611 0.0
C747 C 0.86221 0.80869 0.57527 0.0
C748 C 0.86667 0.80317 0.52928 0.0
C749 C 0.86302 0.80529 0.47391 0.0
C750 C 0.85516 0.81284 0.46482 0.0
H751 H 0.80663 0.80108 0.54472 0.0
H752 H 0.8209 0.79707 0.52143 0.0
H753 H 0.82249 0.80566 0.58911 0.0
H754 H 0.85104 0.8204 0.6021 0.0
H755 H 0.86483 0.80727 0.61844 0.0
H756 H 0.19527 0.06336 0.449 0.0
H757 H 0.18187 0.03647 0.43055 0.0
H758 H 0.16315 0.02826 0.59879 0.0
H759 H 0.17651 0.05509 0.61797 0.0
H760 H 0.18442 0.01393 0.50178 0.0
H761 H 0.12694 0.0053 0.48494 0.0
H762 H 0.14345 0.02332 0.47453 0.0
H763 H 0.13785 0.01596 0.54477 0.0
C764 C 0.18823 0.05586 0.48201 0.0
C765 C 0.18695 0.06137 0.53496 0.0
C766 C 0.18063 0.04052 0.47138 0.0
C767 C 0.17148 0.03049 0.5132 0.0
C768 C 0.17006 0.0359 0.56587 0.0
H769 H 0.13386 0.93539 0.55122 0.0
H770 H 0.1472 0.96254 0.56255 0.0
C771 C 0.17774 0.05122 0.57674 0.0
C772 C 0.16378 0.01428 0.50244 0.0
H773 H 0.12925 0.98364 0.48547 0.0
C774 C 0.17237 0.00728 0.498 0.0
C775 C 0.14809 0.00576 0.49721 0.0
C776 C 0.13848 0.01292 0.50017 0.0
C777 C 0.1656 0.99183 0.48952 0.0
C778 C 0.14988 0.98326 0.48559 0.0
C779 C 0.14131 0.9903 0.48888 0.0
C780 C 0.14211 0.96692 0.47826 0.0
C781 C 0.17524 0.98475 0.48456 0.0
C782 C 0.13478 0.96049 0.42725 0.0
C783 C 0.1272 0.94501 0.42049 0.0
C784 C 0.12669 0.9357 0.46497 0.0
C785 C 0.13403 0.94223 0.51615 0.0
C786 C 0.1417 0.95772 0.52267 0.0
H787 H 0.1872 0.99319 0.47818 0.0
H788 H 0.17425 0.97847 0.52399 0.0
H789 H 0.17145 0.97671 0.44873 0.0
H790 H 0.13496 0.96747 0.39264 0.0
H791 H 0.12164 0.94036 0.38057 0.0
H792 H 0.93831 0.12497 0.62371 0.0
H793 H 0.96538 0.13773 0.61045 0.0
H794 H 0.95944 0.13722 0.42941 0.0
H795 H 0.93241 0.12475 0.44211 0.0
H796 H 0.98309 0.12926 0.55096 0.0
H797 H 0.98804 0.18119 0.46182 0.0
H798 H 0.97134 0.1672 0.49681 0.0
H799 H 0.97501 0.16464 0.42436 0.0
C800 C 0.94275 0.12757 0.58103 0.0
C801 C 0.9332 0.12397 0.53397 0.0
C802 C 0.95821 0.13485 0.57359 0.0
C803 C 0.96439 0.13864 0.51906 0.0
C804 C 0.95489 0.13469 0.47194 0.0
H805 H 0.05281 0.18104 0.37588 0.0
H806 H 0.02599 0.16668 0.39409 0.0
C807 C 0.93944 0.12751 0.4793 0.0
C808 C 0.98077 0.14675 0.51133 0.0
H809 H 0.00961 0.17864 0.45593 0.0
C810 C 0.98893 0.14009 0.53053 0.0
C811 C 0.98831 0.16092 0.4849 0.0
C812 C 0.98026 0.16899 0.46627 0.0
C813 C 0.00443 0.1471 0.52264 0.0
C814 C 0.01189 0.16111 0.49527 0.0
C815 C 0.00377 0.16783 0.47659 0.0
C816 C 0.02814 0.16903 0.48517 0.0
C817 C 0.01271 0.13937 0.54242 0.0
C818 C 0.03817 0.17509 0.53054 0.0
C819 C 0.05352 0.18338 0.52036 0.0
C820 C 0.05907 0.18573 0.46459 0.0
C821 C 0.04894 0.17943 0.41935 0.0
C822 C 0.03361 0.17123 0.42959 0.0
H823 H 0.005 0.12748 0.55345 0.0
H824 H 0.02058 0.13991 0.5092 0.0
H825 H 0.01936 0.14513 0.58063 0.0
H826 H 0.0341 0.17365 0.5737 0.0
H827 H 0.06102 0.18807 0.55615 0.0
H828 H 0.8593 0.46283 0.77888 0.0
H829 H 0.84553 0.47595 0.76335 0.0
H830 H 0.83656 0.47428 0.94245 0.0
H831 H 0.85043 0.46111 0.9588 0.0
H832 H 0.81481 0.46546 0.79352 0.0
H833 H 0.85478 0.5191 0.89738 0.0
H834 H 0.86 0.50563 0.87514 0.0
H835 H 0.8492 0.50248 0.93846 0.0
C836 C 0.85447 0.46527 0.81519 0.0
C837 C 0.85599 0.46092 0.87021 0.0
C838 C 0.84658 0.47276 0.8061 0.0
C839 C 0.84016 0.47616 0.85176 0.0
C840 C 0.84162 0.47189 0.90677 0.0
H841 H 0.78996 0.52158 0.88363 0.0
H842 H 0.80344 0.50814 0.89748 0.0
C843 C 0.84949 0.46433 0.91598 0.0
C844 C 0.83168 0.48394 0.84125 0.0
H845 H 0.832 0.5166 0.86529 0.0
C846 C 0.81854 0.47665 0.80907 0.0
C847 C 0.83667 0.49853 0.86154 0.0
C848 C 0.85099 0.507 0.89471 0.0
C849 C 0.81003 0.48348 0.79754 0.0
C850 C 0.81503 0.4981 0.81777 0.0
C851 C 0.82822 0.5054 0.84975 0.0
C852 C 0.80649 0.50588 0.80808 0.0
C853 C 0.7956 0.47485 0.76515 0.0
C854 C 0.80375 0.50911 0.75303 0.0
C855 C 0.79592 0.51676 0.74479 0.0
C856 C 0.79086 0.52142 0.79157 0.0
C857 C 0.79369 0.51818 0.84657 0.0
C858 C 0.80142 0.5105 0.85467 0.0
H859 H 0.79155 0.46267 0.76519 0.0
H860 H 0.78676 0.47672 0.78332 0.0
H861 H 0.79743 0.47871 0.72046 0.0
H862 H 0.80785 0.50591 0.7165 0.0
H863 H 0.79402 0.51919 0.70194 0.0
H864 H 0.47412 0.26593 0.88365 0.0
H865 H 0.4881 0.29273 0.90071 0.0
H866 H 0.49031 0.30094 0.72082 0.0
H867 H 0.4765 0.27397 0.70298 0.0
H868 H 0.51735 0.31876 0.77735 0.0
H869 H 0.47049 0.32008 0.88674 0.0
H870 H 0.4752 0.30704 0.91694 0.0
H871 H 0.46794 0.30421 0.84597 0.0
C872 C 0.47756 0.27339 0.84753 0.0
C873 C 0.47406 0.2678 0.79188 0.0
C874 C 0.48549 0.28872 0.85748 0.0
C875 C 0.48993 0.29879 0.81213 0.0
C876 C 0.48686 0.29331 0.7564 0.0
H877 H 0.533 0.39439 0.78117 0.0
H878 H 0.52109 0.36755 0.76606 0.0
C879 C 0.47897 0.27792 0.7463 0.0
C880 C 0.49777 0.31503 0.8232 0.0
H881 H 0.49414 0.34225 0.89068 0.0
C882 C 0.51227 0.32392 0.80189 0.0
C883 C 0.49109 0.32169 0.85539 0.0
C884 C 0.47527 0.3128 0.87716 0.0
C885 C 0.52037 0.33932 0.81258 0.0
C886 C 0.51369 0.34595 0.84486 0.0
C887 C 0.49923 0.33706 0.86633 0.0
C888 C 0.52126 0.36221 0.85456 0.0
C889 C 0.53606 0.34837 0.7899 0.0
C890 C 0.52501 0.36805 0.90962 0.0
C891 C 0.53182 0.38345 0.91861 0.0
C892 C 0.53482 0.39321 0.87262 0.0
C893 C 0.5309 0.38723 0.8176 0.0
C894 C 0.52417 0.37189 0.80872 0.0
H895 H 0.54082 0.34119 0.77832 0.0
H896 H 0.53593 0.35443 0.75127 0.0
H897 H 0.54349 0.35676 0.82149 0.0
H898 H 0.5227 0.36068 0.94554 0.0
H899 H 0.53465 0.38769 0.96148 0.0
H900 H 0.72004 0.20105 0.71064 0.0
H901 H 0.69313 0.18839 0.72919 0.0
H902 H 0.70142 0.18868 0.90843 0.0
H903 H 0.72816 0.201 0.89051 0.0
H904 H 0.67939 0.16148 0.87116 0.0
H905 H 0.66944 0.2066 0.79573 0.0
H906 H 0.6783 0.20078 0.74433 0.0
H907 H 0.68792 0.20957 0.80888 0.0
C908 C 0.71613 0.19845 0.75399 0.0
C909 C 0.72627 0.20209 0.79905 0.0
C910 C 0.70077 0.19131 0.76454 0.0
C911 C 0.69532 0.18783 0.82029 0.0
C912 C 0.7054 0.19133 0.86516 0.0
H913 H 0.60547 0.14316 0.96748 0.0
H914 H 0.63268 0.15747 0.95541 0.0
C915 C 0.7207 0.19839 0.85472 0.0
C916 C 0.6791 0.18017 0.83211 0.0
H917 H 0.64792 0.18322 0.81672 0.0
C918 C 0.67252 0.16627 0.85964 0.0
C919 C 0.67022 0.18651 0.81732 0.0
C920 C 0.67683 0.20175 0.79042 0.0
C921 C 0.65717 0.15835 0.87142 0.0
C922 C 0.64826 0.16458 0.85569 0.0
C923 C 0.65485 0.17853 0.82875 0.0
C924 C 0.63191 0.15636 0.86381 0.0
C925 C 0.6505 0.1432 0.8991 0.0
C926 C 0.62258 0.15128 0.8163 0.0
C927 C 0.60713 0.14315 0.82295 0.0
C928 C 0.60068 0.14002 0.87737 0.0
C929 C 0.61008 0.14536 0.92504 0.0
C930 C 0.6256 0.15347 0.91826 0.0
H931 H 0.65844 0.13891 0.89984 0.0
H932 H 0.6474 0.14399 0.94346 0.0
H933 H 0.6402 0.13501 0.87655 0.0
H934 H 0.62727 0.15345 0.77396 0.0
H935 H 0.60025 0.1393 0.78524 0.0
H936 H 0.4641 0.19394 0.88062 0.0
H937 H 0.47794 0.18062 0.89087 0.0
H938 H 0.49475 0.19295 0.72055 0.0
H939 H 0.48091 0.20629 0.70952 0.0
H940 H 0.47566 0.15648 0.81272 0.0
H941 H 0.53224 0.2068 0.82995 0.0
H942 H 0.51538 0.20733 0.84512 0.0
H943 H 0.52042 0.2064 0.77313 0.0
C944 C 0.47075 0.19387 0.8453 0.0
C945 C 0.47144 0.20123 0.79429 0.0
C946 C 0.47861 0.18622 0.85126 0.0
C947 C 0.4874 0.18594 0.80661 0.0
C948 C 0.4881 0.19319 0.75559 0.0
H949 H 0.52876 0.13114 0.76791 0.0
H950 H 0.51529 0.14469 0.75256 0.0
C951 C 0.48016 0.20076 0.74939 0.0
C952 C 0.49575 0.17793 0.81343 0.0
H953 H 0.5309 0.18333 0.82971 0.0
C954 C 0.48774 0.1623 0.81628 0.0
C955 C 0.51147 0.18566 0.81842 0.0
C956 C 0.52046 0.20249 0.81689 0.0
C957 C 0.4951 0.15414 0.82375 0.0
C958 C 0.51083 0.16186 0.82834 0.0
C959 C 0.51884 0.1775 0.82581 0.0
C960 C 0.51912 0.15387 0.83723 0.0
C961 C 0.48605 0.13735 0.82764 0.0
C962 C 0.52585 0.15476 0.8897 0.0
C963 C 0.5335 0.14701 0.89877 0.0
C964 C 0.53467 0.13835 0.85522 0.0
C965 C 0.52807 0.13769 0.80235 0.0
C966 C 0.52033 0.14537 0.79349 0.0
H967 H 0.47392 0.13325 0.83209 0.0
H968 H 0.48779 0.1324 0.78866 0.0
H969 H 0.48979 0.1333 0.86427 0.0
H970 H 0.52503 0.16132 0.92383 0.0
H971 H 0.53849 0.1478 0.93993 0.0
H972 H 0.79024 0.27267 0.7114 0.0
H973 H 0.8027 0.29973 0.72336 0.0
H974 H 0.80518 0.29464 0.90367 0.0
H975 H 0.7927 0.2675 0.89241 0.0
H976 H 0.79419 0.3149 0.86406 0.0
H977 H 0.84805 0.32624 0.768 0.0
H978 H 0.83138 0.31432 0.72846 0.0
H979 H 0.83454 0.30811 0.79534 0.0
C980 C 0.79341 0.27726 0.75368 0.0
C981 C 0.79054 0.26791 0.80096 0.0
C982 C 0.80056 0.29273 0.76033 0.0
C983 C 0.80495 0.29911 0.81427 0.0
C984 C 0.80189 0.28986 0.86169 0.0
H985 H 0.84844 0.3886 0.95106 0.0
H986 H 0.83394 0.36167 0.93634 0.0
C987 C 0.7948 0.27438 0.8551 0.0
C988 C 0.81283 0.31547 0.82113 0.0
H989 H 0.84583 0.34711 0.79315 0.0
C990 C 0.80548 0.32198 0.84869 0.0
C991 C 0.8275 0.32459 0.80061 0.0
C992 C 0.83593 0.31802 0.77175 0.0
C993 C 0.81242 0.3375 0.85584 0.0
C994 C 0.82721 0.34663 0.83607 0.0
C995 C 0.8345 0.34008 0.8082 0.0
C996 C 0.8355 0.36299 0.84483 0.0
C997 C 0.80375 0.34398 0.88346 0.0
C998 C 0.8415 0.37266 0.79831 0.0
C999 C 0.84998 0.38807 0.80657 0.0
C1000 C 0.85263 0.39409 0.8616 0.0
C1001 C 0.84653 0.38435 0.90809 0.0
C1002 C 0.83814 0.36895 0.89977 0.0
H1003 H 0.79152 0.33623 0.88043 0.0
H1004 H 0.80672 0.34593 0.92906 0.0
H1005 H 0.80644 0.3548 0.86381 0.0
H1006 H 0.83967 0.36826 0.75557 0.0
H1007 H 0.8545 0.39524 0.76985 0.0
H1008 H 0.60443 0.45436 0.94456 0.0
H1009 H 0.63135 0.46726 0.9275 0.0
H1010 H 0.62453 0.47854 0.75854 0.0
H1011 H 0.59754 0.46562 0.77486 0.0
H1012 H 0.64692 0.46149 0.83032 0.0
H1013 H 0.65534 0.51902 0.84161 0.0
H1014 H 0.63935 0.50313 0.87301 0.0
H1015 H 0.64036 0.50568 0.79764 0.0
C1016 C 0.60862 0.45958 0.90373 0.0
C1017 C 0.59883 0.459 0.86111 0.0
C1018 C 0.62399 0.4669 0.89408 0.0
C1019 C 0.62984 0.47388 0.84197 0.0
C1020 C 0.62016 0.47328 0.79918 0.0
H1021 H 0.72061 0.51209 0.71364 0.0
H1022 H 0.69341 0.49808 0.72425 0.0
C1023 C 0.60476 0.46587 0.8086 0.0
C1024 C 0.64612 0.48188 0.83263 0.0
H1025 H 0.67645 0.5168 0.82062 0.0
C1026 C 0.65341 0.47357 0.82795 0.0
C1027 C 0.65445 0.49763 0.83001 0.0
C1028 C 0.64706 0.50697 0.83614 0.0
C1029 C 0.66893 0.48067 0.82051 0.0
C1030 C 0.67725 0.49641 0.81774 0.0
C1031 C 0.66996 0.50471 0.82254 0.0
C1032 C 0.69363 0.50452 0.81156 0.0
C1033 C 0.67641 0.47137 0.81671 0.0
C1034 C 0.70265 0.5128 0.85715 0.0
C1035 C 0.71815 0.52076 0.85142 0.0
C1036 C 0.7249 0.5207 0.79971 0.0
C1037 C 0.71578 0.51237 0.75404 0.0
C1038 C 0.70026 0.50433 0.76 0.0
H1039 H 0.66868 0.45949 0.82772 0.0
H1040 H 0.68049 0.47187 0.77282 0.0
H1041 H 0.68622 0.47589 0.84544 0.0
H1042 H 0.69767 0.51309 0.8972 0.0
H1043 H 0.72483 0.52709 0.88738 0.0
H1044 H 0.458 0.85648 0.22021 0.0
H1045 H 0.47058 0.84223 0.23667 0.0
H1046 H 0.46967 0.83369 0.05746 0.0
H1047 H 0.45711 0.8481 0.04016 0.0
H1048 H 0.46086 0.81181 0.20731 0.0
H1049 H 0.51427 0.8524 0.10344 0.0
H1050 H 0.5004 0.85721 0.12429 0.0
H1051 H 0.49771 0.84634 0.06151 0.0
C1052 C 0.46047 0.85161 0.18409 0.0
C1053 C 0.45662 0.85352 0.12871 0.0
C1054 C 0.46762 0.84343 0.19372 0.0
C1055 C 0.47117 0.83706 0.14827 0.0
C1056 C 0.46719 0.83872 0.093 0.0
H1057 H 0.51915 0.78934 0.12001 0.0
H1058 H 0.50445 0.80147 0.1052 0.0
C1059 C 0.45997 0.8469 0.08323 0.0
C1060 C 0.47915 0.8288 0.15911 0.0
H1061 H 0.51222 0.82988 0.13603 0.0
C1062 C 0.47209 0.81572 0.19181 0.0
C1063 C 0.49381 0.83403 0.13899 0.0
C1064 C 0.50209 0.84833 0.10548 0.0
C1065 C 0.47923 0.80753 0.20404 0.0
C1066 C 0.49391 0.81278 0.18392 0.0
C1067 C 0.50096 0.8259 0.15141 0.0
C1068 C 0.50207 0.80465 0.19437 0.0
C1069 C 0.47089 0.79319 0.23717 0.0
C1070 C 0.50558 0.80236 0.24964 0.0
C1071 C 0.51397 0.79531 0.25844 0.0
C1072 C 0.51911 0.79062 0.21199 0.0
C1073 C 0.51545 0.79286 0.15681 0.0
C1074 C 0.50703 0.79979 0.14816 0.0
H1075 H 0.45865 0.78887 0.23714 0.0
H1076 H 0.47301 0.78446 0.21961 0.0
H1077 H 0.47477 0.79525 0.28181 0.0
H1078 H 0.5021 0.80631 0.28587 0.0
H1079 H 0.51668 0.79382 0.3014 0.0
H1080 H 0.20285 0.72843 0.11999 0.0
H1081 H 0.18985 0.70168 0.10225 0.0
H1082 H 0.18539 0.69318 0.28215 0.0
H1083 H 0.19872 0.72013 0.30064 0.0
H1084 H 0.1944 0.67571 0.22231 0.0
H1085 H 0.14512 0.67384 0.1205 0.0
H1086 H 0.16256 0.68707 0.08873 0.0
H1087 H 0.15861 0.68974 0.16065 0.0
C1088 C 0.19911 0.72092 0.15598 0.0
C1089 C 0.20172 0.72643 0.21184 0.0
C1090 C 0.19161 0.70561 0.14564 0.0
C1091 C 0.18638 0.69547 0.19083 0.0
C1092 C 0.18925 0.70087 0.2467 0.0
H1093 H 0.13522 0.59985 0.22074 0.0
H1094 H 0.14958 0.62672 0.23562 0.0
C1095 C 0.19686 0.71625 0.25718 0.0
C1096 C 0.17804 0.67924 0.17942 0.0
H1097 H 0.14692 0.65187 0.11382 0.0
C1098 C 0.18398 0.67047 0.19886 0.0
C1099 C 0.16449 0.67248 0.14858 0.0
C1100 C 0.15723 0.68123 0.12884 0.0
C1101 C 0.1768 0.6551 0.18765 0.0
C1102 C 0.16328 0.64837 0.15676 0.0
C1103 C 0.15736 0.65713 0.13711 0.0
C1104 C 0.1547 0.63211 0.14694 0.0
C1105 C 0.18378 0.64619 0.20836 0.0
C1106 C 0.15256 0.62628 0.09184 0.0
C1107 C 0.14431 0.61085 0.08297 0.0
C1108 C 0.13795 0.60105 0.12914 0.0
C1109 C 0.13998 0.60703 0.18416 0.0
C1110 C 0.14826 0.62239 0.1929 0.0
H1111 H 0.19576 0.65348 0.21925 0.0
H1112 H 0.17783 0.63991 0.247 0.0
H1113 H 0.18282 0.63798 0.17586 0.0
H1114 H 0.15738 0.63368 0.05582 0.0
H1115 H 0.14291 0.60661 0.0401 0.0
H1116 H 0.39236 0.53718 0.21252 0.0
H1117 H 0.36534 0.52362 0.22413 0.0
H1118 H 0.35973 0.51998 0.04271 0.0
H1119 H 0.38696 0.53358 0.03032 0.0
H1120 H 0.34383 0.53108 0.17816 0.0
H1121 H 0.33542 0.47621 0.10496 0.0
H1122 H 0.35344 0.49128 0.12667 0.0
H1123 H 0.3459 0.49195 0.05896 0.0
C1124 C 0.38544 0.53353 0.17489 0.0
C1125 C 0.39183 0.5364 0.1204 0.0
C1126 C 0.36999 0.52581 0.18172 0.0
C1127 C 0.3606 0.52071 0.13435 0.0
C1128 C 0.36686 0.52371 0.07978 0.0
H1129 H 0.26455 0.46668 0.10861 0.0
H1130 H 0.2913 0.4812 0.09093 0.0
C1131 C 0.38238 0.53153 0.0728 0.0
C1132 C 0.34427 0.51212 0.14278 0.0
H1133 H 0.31395 0.47719 0.13141 0.0
C1134 C 0.33725 0.5193 0.16783 0.0
C1135 C 0.33582 0.49679 0.12931 0.0
C1136 C 0.34298 0.4885 0.10383 0.0
C1137 C 0.32189 0.51154 0.17948 0.0
C1138 C 0.31346 0.49612 0.16689 0.0
C1139 C 0.32048 0.48899 0.14129 0.0
C1140 C 0.29726 0.48724 0.17871 0.0
C1141 C 0.31479 0.51995 0.20423 0.0
C1142 C 0.29175 0.48561 0.23423 0.0
C1143 C 0.27639 0.47733 0.24465 0.0
C1144 C 0.26631 0.47044 0.19967 0.0
C1145 C 0.27196 0.47186 0.14432 0.0
C1146 C 0.28726 0.48015 0.13401 0.0
H1147 H 0.32185 0.53219 0.19761 0.0
H1148 H 0.30364 0.51616 0.18521 0.0
H1149 H 0.31331 0.51787 0.25055 0.0
H1150 H 0.29934 0.49073 0.26949 0.0
H1151 H 0.27242 0.47638 0.28778 0.0
H1152 H 0.14357 0.53526 0.04954 0.0
H1153 H 0.15799 0.52268 0.06442 0.0
H1154 H 0.15336 0.52481 0.24531 0.0
H1155 H 0.13868 0.53709 0.23099 0.0
H1156 H 0.18442 0.5318 0.12234 0.0
H1157 H 0.13807 0.48063 0.21924 0.0
H1158 H 0.13508 0.49426 0.1828 0.0
H1159 H 0.14196 0.49759 0.25439 0.0
C1160 C 0.14561 0.53305 0.09252 0.0
C1161 C 0.13985 0.53706 0.13908 0.0
C1162 C 0.15386 0.52588 0.10091 0.0
C1163 C 0.1565 0.5226 0.1559 0.0
C1164 C 0.15113 0.52693 0.20249 0.0
H1165 H 0.20278 0.47838 0.2875 0.0
H1166 H 0.19065 0.49334 0.27605 0.0
C1167 C 0.1428 0.53401 0.19419 0.0
C1168 C 0.16487 0.51461 0.16445 0.0
H1169 H 0.16201 0.48285 0.22039 0.0
C1170 C 0.17953 0.52108 0.14364 0.0
C1171 C 0.15842 0.50062 0.19222 0.0
C1172 C 0.14247 0.49278 0.213 0.0
C1173 C 0.18797 0.51399 0.1504 0.0
C1174 C 0.18151 0.50003 0.17822 0.0
C1175 C 0.16691 0.4936 0.19933 0.0
C1176 C 0.18955 0.49169 0.18464 0.0
C1177 C 0.20378 0.5215 0.12837 0.0
C1178 C 0.19285 0.48579 0.13692 0.0
C1179 C 0.1997 0.47718 0.14323 0.0
C1180 C 0.20336 0.47432 0.19744 0.0
C1181 C 0.20015 0.48039 0.24514 0.0
C1182 C 0.19322 0.48894 0.23875 0.0
H1183 H 0.20816 0.53353 0.11936 0.0
H1184 H 0.21128 0.52043 0.1593 0.0
H1185 H 0.20407 0.516 0.08841 0.0
H1186 H 0.18987 0.48762 0.09488 0.0
H1187 H 0.20201 0.47267 0.10563 0.0
H1188 H 0.51912 0.72227 0.28653 0.0
H1189 H 0.50547 0.69527 0.27188 0.0
H1190 H 0.5112 0.70195 0.09116 0.0
H1191 H 0.52513 0.72896 0.10531 0.0
H1192 H 0.47941 0.67837 0.21244 0.0
H1193 H 0.52553 0.67238 0.12011 0.0
H1194 H 0.52869 0.68915 0.15585 0.0
H1195 H 0.52213 0.68565 0.08384 0.0
C1196 C 0.51756 0.71801 0.24363 0.0
C1197 C 0.52328 0.72778 0.19708 0.0
C1198 C 0.50974 0.70258 0.23538 0.0
C1199 C 0.50752 0.69663 0.18053 0.0
C1200 C 0.51309 0.70632 0.13393 0.0
H1201 H 0.45935 0.60664 0.04603 0.0
H1202 H 0.47292 0.63373 0.05888 0.0
C1203 C 0.52098 0.72176 0.14211 0.0
C1204 C 0.49898 0.68027 0.17212 0.0
H1205 H 0.5013 0.65096 0.11726 0.0
C1206 C 0.48421 0.67235 0.19186 0.0
C1207 C 0.50529 0.67249 0.1452 0.0
C1208 C 0.52133 0.68031 0.12548 0.0
C1209 C 0.47549 0.65685 0.18476 0.0
C1210 C 0.48179 0.64911 0.15774 0.0
C1211 C 0.49653 0.657 0.1378 0.0
C1212 C 0.47331 0.63275 0.15036 0.0
C1213 C 0.45954 0.6489 0.20541 0.0
C1214 C 0.46917 0.6233 0.19765 0.0
C1215 C 0.46146 0.60782 0.19056 0.0
C1216 C 0.45777 0.60154 0.13597 0.0
C1217 C 0.46195 0.61109 0.08867 0.0
C1218 C 0.46972 0.62657 0.09585 0.0
H1219 H 0.45542 0.65678 0.21383 0.0
H1220 H 0.45207 0.64049 0.17394 0.0
H1221 H 0.45883 0.64295 0.24546 0.0
H1222 H 0.47205 0.6279 0.24002 0.0
H1223 H 0.45845 0.6008 0.22787 0.0
H1224 H 0.38812 0.83778 0.0825 0.0
H1225 H 0.36111 0.82444 0.09723 0.0
H1226 H 0.36573 0.8588 0.21315 0.0
H1227 H 0.39286 0.87162 0.20138 0.0
H1228 H 0.34656 0.83367 0.2534 0.0
H1229 H 0.33183 0.83341 0.02829 0.0
H1230 H 0.34234 0.82408 0.03725 0.0
H1231 H 0.35084 0.84374 0.05296 0.0
C1232 C 0.38333 0.84245 0.11117 0.0
C1233 C 0.39251 0.85574 0.14063 0.0
C1234 C 0.36789 0.83491 0.11912 0.0
C1235 C 0.3613 0.84083 0.15497 0.0
C1236 C 0.37052 0.85404 0.18498 0.0
H1237 H 0.26577 0.80869 0.14226 0.0
H1238 H 0.29293 0.82292 0.13118 0.0
C1239 C 0.38601 0.86136 0.17828 0.0
C1240 C 0.34484 0.83309 0.1623 0.0
H1241 H 0.31191 0.81695 0.08962 0.0
C1242 C 0.33899 0.83015 0.21754 0.0
C1243 C 0.33491 0.82876 0.11564 0.0
C1244 C 0.34032 0.83282 0.05531 0.0
C1245 C 0.32356 0.82283 0.22744 0.0
C1246 C 0.31363 0.81759 0.18072 0.0
C1247 C 0.31948 0.82074 0.1255 0.0
C1248 C 0.29716 0.80897 0.18796 0.0
C1249 C 0.31817 0.8212 0.2879 0.0
C1250 C 0.29044 0.79627 0.22285 0.0
C1251 C 0.27498 0.78841 0.23045 0.0
C1252 C 0.26591 0.79277 0.20153 0.0
C1253 C 0.27254 0.8051 0.1649 0.0
C1254 C 0.28804 0.81322 0.1586 0.0
H1255 H 0.32671 0.83009 0.3154 0.0
H1256 H 0.30771 0.82169 0.29085 0.0
H1257 H 0.31605 0.81031 0.30494 0.0
H1258 H 0.29713 0.79238 0.24419 0.0
H1259 H 0.2701 0.7788 0.25834 0.0
H1260 H 0.11313 0.2728 0.44313 0.0
H1261 H 0.12409 0.29922 0.41676 0.0
H1262 H 0.15152 0.29393 0.29159 0.0
H1263 H 0.14056 0.2676 0.31765 0.0
H1264 H 0.1537 0.32154 0.42062 0.0
H1265 H 0.13242 0.3134 0.2005 0.0
H1266 H 0.12512 0.29852 0.25213 0.0
H1267 H 0.1422 0.30352 0.21507 0.0
C1268 C 0.12153 0.27736 0.41013 0.0
C1269 C 0.12605 0.26828 0.3823 0.0
C1270 C 0.12771 0.29237 0.39494 0.0
C1271 C 0.1384 0.29843 0.35151 0.0
C1272 C 0.14301 0.28937 0.32418 0.0
H1273 H 0.20003 0.38402 0.21281 0.0
H1274 H 0.18454 0.35751 0.23736 0.0
C1275 C 0.13682 0.27439 0.33924 0.0
C1276 C 0.14526 0.31439 0.33616 0.0
H1277 H 0.15229 0.33788 0.22407 0.0
C1278 C 0.15323 0.32514 0.37787 0.0
C1279 C 0.14458 0.31902 0.28034 0.0
C1280 C 0.13549 0.30801 0.23457 0.0
C1281 C 0.16109 0.34041 0.36465 0.0
C1282 C 0.1608 0.34498 0.30843 0.0
C1283 C 0.15253 0.33428 0.26705 0.0
C1284 C 0.16952 0.36081 0.29137 0.0
C1285 C 0.17009 0.3515 0.41034 0.0
C1286 C 0.16593 0.3713 0.31265 0.0
C1287 C 0.1747 0.38637 0.29844 0.0
C1288 C 0.18717 0.39113 0.26295 0.0
C1289 C 0.19046 0.38056 0.24028 0.0
C1290 C 0.18167 0.36549 0.25433 0.0
H1291 H 0.17135 0.34597 0.44862 0.0
H1292 H 0.18137 0.35972 0.39435 0.0
H1293 H 0.1644 0.35773 0.42304 0.0
H1294 H 0.15644 0.36783 0.34054 0.0
H1295 H 0.17184 0.39433 0.31556 0.0
H1296 H 0.60197 0.78343 0.31831 0.0
H1297 H 0.62855 0.79709 0.34306 0.0
H1298 H 0.63435 0.83463 0.24359 0.0
H1299 H 0.60763 0.82113 0.22021 0.0
H1300 H 0.65349 0.80878 0.27379 0.0
H1301 H 0.65165 0.85354 0.39737 0.0
H1302 H 0.635 0.83655 0.37703 0.0
H1303 H 0.64455 0.85136 0.32645 0.0
C1304 C 0.60894 0.79464 0.30212 0.0
C1305 C 0.60283 0.80137 0.26809 0.0
C1306 C 0.62409 0.80239 0.31602 0.0
C1307 C 0.63333 0.81696 0.29603 0.0
C1308 C 0.62732 0.82352 0.26048 0.0
H1309 H 0.72789 0.88021 0.33067 0.0
H1310 H 0.70135 0.86699 0.30471 0.0
C1311 C 0.61214 0.81578 0.24673 0.0
C1312 C 0.64928 0.82522 0.31219 0.0
H1313 H 0.67558 0.85645 0.38062 0.0
C1314 C 0.65832 0.81918 0.2973 0.0
C1315 C 0.65551 0.83876 0.34297 0.0
C1316 C 0.64617 0.84539 0.36241 0.0
C1317 C 0.6735 0.82644 0.31174 0.0
C1318 C 0.67971 0.83998 0.34235 0.0
C1319 C 0.67072 0.84606 0.3571 0.0
C1320 C 0.69559 0.84804 0.35921 0.0
C1321 C 0.68286 0.81973 0.29341 0.0
C1322 C 0.70099 0.84182 0.39903 0.0
C1323 C 0.71609 0.84935 0.41392 0.0
C1324 C 0.72593 0.8632 0.38922 0.0
C1325 C 0.72046 0.86951 0.35004 0.0
C1326 C 0.70536 0.86201 0.33533 0.0
H1327 H 0.67718 0.81101 0.26043 0.0
H1328 H 0.69381 0.82849 0.27664 0.0
H1329 H 0.68502 0.81451 0.33057 0.0
H1330 H 0.69355 0.83111 0.41832 0.0
H1331 H 0.72014 0.84426 0.44392 0.0
H1332 H 0.20599 0.81818 0.22734 0.0
H1333 H 0.19296 0.83162 0.25437 0.0
H1334 H 0.16595 0.79654 0.37271 0.0
H1335 H 0.17903 0.78317 0.34601 0.0
H1336 H 0.16279 0.8222 0.24694 0.0
H1337 H 0.18198 0.83393 0.47041 0.0
H1338 H 0.19054 0.82777 0.41843 0.0
H1339 H 0.17322 0.81455 0.45146 0.0
C1340 C 0.19723 0.81337 0.25895 0.0
C1341 C 0.19346 0.7997 0.28469 0.0
C1342 C 0.18986 0.82104 0.27449 0.0
C1343 C 0.17867 0.81518 0.31618 0.0
C1344 C 0.17479 0.80142 0.34143 0.0
H1345 H 0.1178 0.84241 0.45172 0.0
H1346 H 0.13133 0.82914 0.42911 0.0
C1347 C 0.18219 0.79378 0.32602 0.0
C1348 C 0.17077 0.82326 0.33205 0.0
H1349 H 0.16299 0.8393 0.44361 0.0
C1350 C 0.16289 0.82601 0.28985 0.0
C1351 C 0.17091 0.82817 0.38814 0.0
C1352 C 0.17973 0.82609 0.43466 0.0
C1353 C 0.15496 0.83338 0.3024 0.0
C1354 C 0.15509 0.83826 0.35845 0.0
C1355 C 0.16292 0.83548 0.40073 0.0
C1356 C 0.1473 0.84645 0.37373 0.0
C1357 C 0.1463 0.83568 0.25586 0.0
C1358 C 0.15205 0.86067 0.35101 0.0
C1359 C 0.14443 0.86824 0.36408 0.0
C1360 C 0.13194 0.86169 0.39997 0.0
C1361 C 0.12742 0.84764 0.42391 0.0
C1362 C 0.13508 0.84008 0.41096 0.0
H1363 H 0.14457 0.82836 0.21877 0.0
H1364 H 0.13524 0.83345 0.27156 0.0
H1365 H 0.15259 0.84745 0.24134 0.0
H1366 H 0.16164 0.86587 0.32305 0.0
H1367 H 0.14825 0.87919 0.34599 0.0
H1368 H 0.39263 0.178 0.67652 0.0
H1369 H 0.36589 0.16437 0.6542 0.0
H1370 H 0.35904 0.19357 0.76518 0.0
H1371 H 0.38587 0.2075 0.78612 0.0
H1372 H 0.3414 0.14928 0.72561 0.0
H1373 H 0.34033 0.19629 0.61637 0.0
H1374 H 0.35748 0.19648 0.63236 0.0
H1375 H 0.34791 0.20062 0.68675 0.0
C1376 C 0.38539 0.18154 0.69567 0.0
C1377 C 0.39123 0.19387 0.73236 0.0
C1378 C 0.37016 0.17374 0.6832 0.0
C1379 C 0.36056 0.17815 0.70728 0.0
C1380 C 0.36633 0.1902 0.74525 0.0
H1381 H 0.26564 0.14546 0.68579 0.0
H1382 H 0.29216 0.15818 0.71164 0.0
C1383 C 0.38158 0.19805 0.75756 0.0
C1384 C 0.34451 0.17007 0.69275 0.0
H1385 H 0.3169 0.17463 0.63383 0.0
C1386 C 0.33604 0.15479 0.70535 0.0
C1387 C 0.3376 0.17732 0.66615 0.0
C1388 C 0.3463 0.19355 0.64908 0.0
C1389 C 0.32074 0.14659 0.69292 0.0
C1390 C 0.31384 0.15387 0.66676 0.0
C1391 C 0.32228 0.16913 0.65409 0.0
C1392 C 0.29781 0.14586 0.65214 0.0
C1393 C 0.31199 0.13028 0.70871 0.0
C1394 C 0.29232 0.13481 0.60998 0.0
C1395 C 0.27722 0.12758 0.59517 0.0
C1396 C 0.26748 0.13135 0.62228 0.0
C1397 C 0.27298 0.14236 0.66458 0.0
C1398 C 0.28807 0.14962 0.67921 0.0
H1399 H 0.31822 0.12714 0.73885 0.0
H1400 H 0.30111 0.12751 0.728 0.0
H1401 H 0.30968 0.12341 0.66989 0.0
H1402 H 0.29974 0.13191 0.58819 0.0
H1403 H 0.27314 0.11904 0.56272 0.0
H1404 H 0.82135 0.21238 0.78397 0.0
H1405 H 0.83648 0.20112 0.75667 0.0
H1406 H 0.80188 0.17176 0.64097 0.0
H1407 H 0.78682 0.183 0.66805 0.0
H1408 H 0.82939 0.17138 0.76461 0.0
H1409 H 0.83913 0.19038 0.54105 0.0
H1410 H 0.83231 0.19819 0.5937 0.0
H1411 H 0.81974 0.18067 0.56036 0.0
C1412 C 0.817 0.20346 0.753 0.0
C1413 C 0.80297 0.19849 0.72806 0.0
C1414 C 0.82564 0.19711 0.73724 0.0
C1415 C 0.8204 0.18581 0.69606 0.0
C1416 C 0.80628 0.18072 0.6718 0.0
H1417 H 0.84475 0.12455 0.55457 0.0
H1418 H 0.83338 0.13967 0.58015 0.0
C1419 C 0.79767 0.18706 0.68747 0.0
C1420 C 0.82942 0.17894 0.67959 0.0
H1421 H 0.84472 0.17126 0.56538 0.0
C1422 C 0.83291 0.17149 0.72122 0.0
C1423 C 0.834 0.17916 0.62293 0.0
C1424 C 0.83124 0.18765 0.57702 0.0
C1425 C 0.84037 0.16372 0.70726 0.0
C1426 C 0.84459 0.16361 0.65033 0.0
C1427 C 0.84139 0.17133 0.60892 0.0
C1428 C 0.85187 0.15508 0.63266 0.0
C1429 C 0.84322 0.15527 0.75308 0.0
C1430 C 0.86614 0.159 0.65268 0.0
C1431 C 0.87262 0.15043 0.63797 0.0
C1432 C 0.86491 0.13784 0.6031 0.0
C1433 C 0.85086 0.13422 0.58158 0.0
C1434 C 0.84438 0.14281 0.5962 0.0
H1435 H 0.83662 0.15399 0.79198 0.0
H1436 H 0.84046 0.14401 0.7379 0.0
H1437 H 0.85523 0.16143 0.76457 0.0
H1438 H 0.87219 0.16861 0.67998 0.0
H1439 H 0.8836 0.15354 0.6542 0.0
H1440 H 0.81568 0.60792 0.79678 0.0
H1441 H 0.82909 0.63468 0.77425 0.0
H1442 H 0.79315 0.62825 0.6635 0.0
H1443 H 0.77956 0.60163 0.68731 0.0
H1444 H 0.83865 0.64675 0.66752 0.0
H1445 H 0.80018 0.66434 0.75636 0.0
H1446 H 0.79898 0.64683 0.77476 0.0
H1447 H 0.79126 0.64871 0.70906 0.0
C1448 C 0.81057 0.61233 0.76851 0.0
C1449 C 0.79666 0.60282 0.74357 0.0
C1450 C 0.81823 0.62755 0.75547 0.0
C1451 C 0.81204 0.63346 0.71767 0.0
C1452 C 0.798 0.62398 0.69357 0.0
H1453 H 0.84362 0.71915 0.55349 0.0
H1454 H 0.82973 0.69275 0.58182 0.0
C1455 C 0.79033 0.60879 0.70673 0.0
C1456 C 0.82066 0.64933 0.70058 0.0
H1457 H 0.81944 0.68169 0.69541 0.0
C1458 C 0.83452 0.65443 0.674 0.0
C1459 C 0.81517 0.65927 0.70887 0.0
C1460 C 0.80065 0.65457 0.73929 0.0
C1461 C 0.84295 0.66917 0.65456 0.0
C1462 C 0.83742 0.67907 0.66254 0.0
C1463 C 0.82358 0.67401 0.68919 0.0
C1464 C 0.84598 0.69483 0.64433 0.0
C1465 C 0.85756 0.67397 0.62462 0.0
C1466 C 0.85962 0.70465 0.67032 0.0
C1467 C 0.86753 0.71962 0.65412 0.0
C1468 C 0.8619 0.72498 0.61175 0.0
C1469 C 0.84826 0.71516 0.58567 0.0
C1470 C 0.84031 0.70017 0.60203 0.0
H1471 H 0.85855 0.66426 0.61043 0.0
H1472 H 0.85879 0.68103 0.58723 0.0
H1473 H 0.86692 0.6807 0.65409 0.0
H1474 H 0.86405 0.70076 0.70363 0.0
H1475 H 0.87803 0.72705 0.67486 0.0
H1476 H 0.05969 0.50723 0.01886 0.0
H1477 H 0.03327 0.49328 0.99134 0.0
H1478 H 0.02495 0.52366 0.08895 0.0
H1479 H 0.05144 0.53783 0.11518 0.0
H1480 H 0.00712 0.47905 0.05672 0.0
H1481 H 0.00987 0.52561 0.93025 0.0
H1482 H 0.02635 0.5254 0.95397 0.0
H1483 H 0.01622 0.5306 0.00198 0.0
C1484 C 0.05217 0.51089 0.03424 0.0
C1485 C 0.05752 0.52367 0.06833 0.0
C1486 C 0.03713 0.50291 0.01877 0.0
C1487 C 0.02726 0.50763 0.03722 0.0
C1488 C 0.03248 0.52004 0.0733 0.0
H1489 H 0.93405 0.47855 0.99753 0.0
H1490 H 0.96046 0.49052 0.0243 0.0
C1491 C 0.04753 0.52803 0.08863 0.0
C1492 C 0.01154 0.49972 0.01804 0.0
H1493 H 0.98571 0.50479 0.94666 0.0
C1494 C 0.00244 0.48462 0.03234 0.0
C1495 C 0.00555 0.50704 0.98588 0.0
C1496 C 0.01502 0.52301 0.96658 0.0
C1497 C 0.98731 0.47674 0.01677 0.0
C1498 C 0.98127 0.48417 0.9857 0.0
C1499 C 0.99042 0.49919 0.9707 0.0
C1500 C 0.96535 0.47669 0.96973 0.0
C1501 C 0.9778 0.46068 0.03485 0.0
C1502 C 0.95946 0.46507 0.92986 0.0
C1503 C 0.94441 0.45826 0.91446 0.0
C1504 C 0.93512 0.46304 0.93873 0.0
C1505 C 0.94104 0.47469 0.97847 0.0
C1506 C 0.95607 0.48152 0.99365 0.0
H1507 H 0.98346 0.45741 0.0671 0.0
H1508 H 0.967 0.4587 0.05247 0.0
H1509 H 0.97532 0.45332 0.99739 0.0
H1510 H 0.96652 0.46133 0.91052 0.0
H1511 H 0.93999 0.4492 0.88408 0.0
H1512 H 0.45291 0.51026 0.12388 0.0
H1513 H 0.46673 0.49729 0.10183 0.0
H1514 H 0.49792 0.53497 0.00144 0.0
H1515 H 0.4844 0.54809 0.02498 0.0
H1516 H 0.47101 0.48933 0.99542 0.0
H1517 H 0.5256 0.52671 0.09711 0.0
H1518 H 0.50901 0.52765 0.11279 0.0
H1519 H 0.51962 0.53625 0.04968 0.0
C1520 C 0.46288 0.51583 0.09799 0.0
C1521 C 0.46762 0.53009 0.07585 0.0
C1522 C 0.47071 0.50842 0.08523 0.0
C1523 C 0.48343 0.51524 0.05049 0.0
C1524 C 0.48831 0.52962 0.02921 0.0
H1525 H 0.53942 0.4856 0.88788 0.0
H1526 H 0.52667 0.49924 0.91677 0.0
C1527 C 0.48052 0.53704 0.04215 0.0
C1528 C 0.49103 0.50694 0.03348 0.0
H1529 H 0.52476 0.5084 0.03334 0.0
C1530 C 0.48273 0.49343 0.0041 0.0
C1531 C 0.50634 0.51238 0.04467 0.0
C1532 C 0.51564 0.52647 0.07826 0.0
C1533 C 0.4894 0.48533 0.98473 0.0
C1534 C 0.50471 0.49082 0.99554 0.0
C1535 C 0.51303 0.5043 0.02496 0.0
C1536 C 0.51222 0.48256 0.9775 0.0
C1537 C 0.48011 0.47108 0.95198 0.0
C1538 C 0.50833 0.46877 0.00243 0.0
C1539 C 0.51554 0.46103 0.98598 0.0
C1540 C 0.52673 0.46695 0.94436 0.0
C1541 C 0.53066 0.48076 0.91948 0.0
C1542 C 0.52348 0.48855 0.93615 0.0
H1543 H 0.46947 0.47006 0.93687 0.0
H1544 H 0.4864 0.47047 0.9149 0.0
H1545 H 0.47737 0.46139 0.97981 0.0
H1546 H 0.4998 0.46408 0.03494 0.0
H1547 H 0.51239 0.4504 0.00578 0.0
H1548 H 0.50854 0.05904 0.97819 0.0
H1549 H 0.49514 0.03248 0.00349 0.0
H1550 H 0.52666 0.02585 0.90587 0.0
H1551 H 0.54036 0.05252 0.8822 0.0
H1552 H 0.48159 0.00723 0.93672 0.0
H1553 H 0.52816 0.00911 0.06043 0.0
H1554 H 0.52802 0.02576 0.03852 0.0
H1555 H 0.53312 0.01583 0.98909 0.0
C1556 C 0.51261 0.05188 0.96251 0.0
C1557 C 0.52555 0.05775 0.92904 0.0
C1558 C 0.50494 0.03675 0.97669 0.0
C1559 C 0.51009 0.02728 0.95748 0.0
C1560 C 0.52271 0.03305 0.92221 0.0
H1561 H 0.47884 0.93297 0.9941 0.0
H1562 H 0.49153 0.95934 0.96593 0.0
C1563 C 0.53043 0.0482 0.90827 0.0
C1564 C 0.50227 0.01139 0.9746 0.0
H1565 H 0.50718 0.98514 0.04356 0.0
C1566 C 0.48715 0.0024 0.96027 0.0
C1567 C 0.50957 0.00518 0.00559 0.0
C1568 C 0.52557 0.01448 0.02484 0.0
C1569 C 0.47919 0.98725 0.97524 0.0
C1570 C 0.48655 0.98103 0.00563 0.0
C1571 C 0.50163 0.99 0.02006 0.0
C1572 C 0.47879 0.96517 0.02256 0.0
C1573 C 0.46306 0.97791 0.95771 0.0
C1574 C 0.46757 0.95986 0.06406 0.0
C1575 C 0.46038 0.94486 0.08029 0.0
C1576 C 0.46434 0.93503 0.05518 0.0
C1577 C 0.4756 0.94038 0.01381 0.0
C1578 C 0.48284 0.95538 0.99784 0.0
H1579 H 0.45983 0.98368 0.92579 0.0
H1580 H 0.4609 0.96706 0.93992 0.0
H1581 H 0.45581 0.97551 0.99549 0.0
H1582 H 0.46442 0.96732 0.08395 0.0
H1583 H 0.45163 0.94089 0.11196 0.0
H1584 H 0.1029 0.22707 0.67527 0.0
H1585 H 0.10366 0.2269 0.77863 0.0
H1586 H 0.14592 0.22809 0.77276 0.0
H1587 H 0.14519 0.22806 0.66915 0.0
H1588 H 0.12528 0.20541 0.83918 0.0
H1589 H 0.12792 0.25853 0.89679 0.0
H1590 H 0.11312 0.24771 0.84781 0.0
H1591 H 0.13222 0.2549 0.82643 0.0
C1592 C 0.11251 0.22758 0.69587 0.0
C1593 C 0.12396 0.22752 0.6639 0.0
C1594 C 0.11296 0.22757 0.75504 0.0
C1595 C 0.12492 0.22764 0.78342 0.0
C1596 C 0.13662 0.2281 0.75167 0.0
H1597 H 0.1261 0.2294 0.15555 0.0
H1598 H 0.13459 0.23496 0.05712 0.0
C1599 C 0.13619 0.22811 0.69245 0.0
C1600 C 0.12443 0.22575 0.8458 0.0
H1601 H 0.11938 0.23972 0.9696 0.0
C1602 C 0.12423 0.21303 0.86781 0.0
C1603 C 0.12326 0.2358 0.88319 0.0
C1604 C 0.12429 0.25008 0.86244 0.0
C1605 C 0.1221 0.2097 0.92587 0.0
C1606 C 0.11991 0.21922 0.96268 0.0
C1607 C 0.1209 0.23234 0.94118 0.0
C1608 C 0.11555 0.21524 0.02275 0.0
C1609 C 0.12201 0.1959 0.94716 0.0
C1610 C 0.10205 0.20232 0.03602 0.0
C1611 C 0.09725 0.19905 0.09217 0.0
C1612 C 0.10587 0.20862 0.13623 0.0
C1613 C 0.11946 0.22151 0.12295 0.0
C1614 C 0.12424 0.22481 0.06661 0.0
H1615 H 0.12827 0.19251 0.91824 0.0
H1616 H 0.12696 0.1977 0.9902 0.0
H1617 H 0.11032 0.18655 0.94934 0.0
H1618 H 0.09499 0.19496 0.00274 0.0
H1619 H 0.08664 0.18914 0.10107 0.0
H1620 H 0.77801 0.9222 0.67154 0.0
H1621 H 0.77917 0.92287 0.77524 0.0
H1622 H 0.76422 0.87577 0.77851 0.0
H1623 H 0.76321 0.87501 0.67507 0.0
H1624 H 0.75812 0.90611 0.86505 0.0
H1625 H 0.80611 0.89625 0.8534 0.0
H1626 H 0.79938 0.90171 0.79256 0.0
H1627 H 0.78985 0.88261 0.81604 0.0
C1628 C 0.77472 0.91193 0.69435 0.0
C1629 C 0.77075 0.89859 0.66514 0.0
C1630 C 0.77539 0.91235 0.75355 0.0
C1631 C 0.77208 0.89944 0.78419 0.0
C1632 C 0.76709 0.88591 0.75535 0.0
H1633 H 0.77344 0.86965 0.11596 0.0
H1634 H 0.76959 0.87362 0.01702 0.0
C1635 C 0.76649 0.88549 0.6963 0.0
C1636 C 0.77489 0.90024 0.8458 0.0
H1637 H 0.79533 0.89411 0.94445 0.0
C1638 C 0.76635 0.90366 0.88258 0.0
C1639 C 0.78581 0.89725 0.86821 0.0
C1640 C 0.79593 0.89439 0.83054 0.0
C1641 C 0.76795 0.90339 0.94166 0.0
C1642 C 0.77837 0.89969 0.96386 0.0
C1643 C 0.78728 0.89685 0.92702 0.0
C1644 C 0.77951 0.89755 0.02506 0.0
C1645 C 0.75813 0.90644 0.98009 0.0
C1646 C 0.78634 0.90973 0.06224 0.0
C1647 C 0.78865 0.90751 0.11906 0.0
C1648 C 0.78414 0.89306 0.13915 0.0
C1649 C 0.77708 0.88091 0.10174 0.0
C1650 C 0.7748 0.88314 0.04529 0.0
H1651 H 0.74969 0.90787 0.95613 0.0
H1652 H 0.75229 0.89715 0.01081 0.0
H1653 H 0.76516 0.91677 0.00476 0.0
H1654 H 0.79029 0.92097 0.04691 0.0
H1655 H 0.79446 0.91713 0.14638 0.0
H1656 H 0.11854 0.88607 0.68173 0.0
H1657 H 0.11742 0.88595 0.78509 0.0
H1658 H 0.07009 0.8547 0.77904 0.0
H1659 H 0.07115 0.85453 0.67546 0.0
H1660 H 0.10015 0.89549 0.84174 0.0
H1661 H 0.08443 0.83767 0.90585 0.0
H1662 H 0.09192 0.84512 0.83664 0.0
H1663 H 0.0728 0.83926 0.85288 0.0
C1664 C 0.10794 0.87894 0.70238 0.0
C1665 C 0.09491 0.87039 0.67049 0.0
C1666 C 0.10732 0.87888 0.76141 0.0
C1667 C 0.09369 0.87028 0.78964 0.0
C1668 C 0.08077 0.86121 0.75809 0.0
H1669 H 0.07708 0.87955 0.14953 0.0
H1670 H 0.07253 0.87189 0.04964 0.0
C1671 C 0.08139 0.86119 0.6989 0.0
C1672 C 0.09287 0.87212 0.85143 0.0
H1673 H 0.08608 0.85416 0.97882 0.0
C1674 C 0.097 0.88643 0.87165 0.0
C1675 C 0.08859 0.86023 0.8902 0.0
C1676 C 0.08428 0.84471 0.87057 0.0
C1677 C 0.09737 0.88928 0.92975 0.0
C1678 C 0.09357 0.87753 0.96854 0.0
C1679 C 0.08893 0.86309 0.94859 0.0
C1680 C 0.09585 0.88056 0.02979 0.0
C1681 C 0.10216 0.90491 0.94953 0.0
C1682 C 0.11041 0.88775 0.05128 0.0
C1683 C 0.11303 0.89204 0.10793 0.0
C1684 C 0.10111 0.88915 0.14429 0.0
C1685 C 0.08645 0.88162 0.12296 0.0
C1686 C 0.08384 0.87731 0.06594 0.0
H1687 H 0.10207 0.91205 0.91453 0.0
H1688 H 0.09474 0.90468 0.98403 0.0
H1689 H 0.11368 0.9101 0.96671 0.0
H1690 H 0.1198 0.89034 0.02378 0.0
H1691 H 0.12444 0.89775 0.12315 0.0
H1692 H 0.22621 0.12846 0.8456 0.0
H1693 H 0.2316 0.1367 0.94423 0.0
H1694 H 0.19431 0.09481 0.99892 0.0
H1695 H 0.18854 0.0867 0.90032 0.0
H1696 H 0.19656 0.11971 0.05575 0.0
H1697 H 0.25046 0.11989 0.05396 0.0
H1698 H 0.24841 0.13123 0.001 0.0
H1699 H 0.23673 0.11129 0.99852 0.0
C1700 C 0.21886 0.12119 0.87835 0.0
C1701 C 0.20677 0.10702 0.86505 0.0
C1702 C 0.22213 0.12582 0.93483 0.0
C1703 C 0.21346 0.11629 0.97885 0.0
C1704 C 0.20115 0.10233 0.96556 0.0
H1705 H 0.22653 0.10581 0.32738 0.0
H1706 H 0.22549 0.10591 0.22401 0.0
C1707 C 0.19789 0.0977 0.90925 0.0
C1708 C 0.21739 0.12049 0.03902 0.0
H1709 H 0.24343 0.12624 0.13983 0.0
C1710 C 0.20687 0.12131 0.07412 0.0
C1711 C 0.23079 0.12239 0.06278 0.0
C1712 C 0.24223 0.12106 0.02739 0.0
C1713 C 0.20924 0.12366 0.13267 0.0
C1714 C 0.22261 0.12549 0.15652 0.0
C1715 C 0.23327 0.12498 0.12124 0.0
C1716 C 0.22508 0.12658 0.21858 0.0
C1717 C 0.19711 0.12349 0.16886 0.0
C1718 C 0.22576 0.13847 0.24964 0.0
C1719 C 0.22631 0.13843 0.30886 0.0
C1720 C 0.22626 0.12653 0.3379 0.0
C1721 C 0.22649 0.1151 0.30639 0.0
C1722 C 0.22591 0.11514 0.24728 0.0
H1723 H 0.18637 0.11898 0.14559 0.0
H1724 H 0.19522 0.11667 0.2076 0.0
H1725 H 0.20057 0.13505 0.18226 0.0
H1726 H 0.22542 0.14756 0.22817 0.0
H1727 H 0.22624 0.14746 0.33182 0.0
H1728 H 0.86329 0.09401 0.83591 0.0
H1729 H 0.85503 0.09086 0.93483 0.0
H1730 H 0.89846 0.09959 0.98952 0.0
H1731 H 0.90668 0.10247 0.89082 0.0
H1732 H 0.87321 0.07509 0.04682 0.0
H1733 H 0.87117 0.12789 0.04222 0.0
H1734 H 0.86076 0.11419 0.98869 0.0
H1735 H 0.88077 0.1234 0.98867 0.0
C1736 C 0.87092 0.0948 0.86884 0.0
C1737 C 0.88557 0.09826 0.85564 0.0
C1738 C 0.86625 0.0932 0.92536 0.0
C1739 C 0.87619 0.09512 0.96933 0.0
C1740 C 0.89063 0.09806 0.95611 0.0
H1741 H 0.88937 0.12002 0.31444 0.0
H1742 H 0.8883 0.11813 0.21119 0.0
C1743 C 0.89531 0.09972 0.8998 0.0
C1744 C 0.87197 0.09485 0.02939 0.0
H1745 H 0.86646 0.11543 0.1296 0.0
C1746 C 0.8715 0.08375 0.06493 0.0
C1747 C 0.86992 0.1063 0.05266 0.0
C1748 C 0.87075 0.11871 0.01639 0.0
C1749 C 0.86943 0.08402 0.1236 0.0
C1750 C 0.86764 0.09563 0.14704 0.0
C1751 C 0.86771 0.1065 0.11128 0.0
C1752 C 0.86717 0.09745 0.20906 0.0
C1753 C 0.86989 0.07232 0.16038 0.0
C1754 C 0.85538 0.08669 0.24187 0.0
C1755 C 0.85595 0.08772 0.30101 0.0
C1756 C 0.86833 0.09955 0.32817 0.0
C1757 C 0.87972 0.11072 0.2949 0.0
C1758 C 0.87913 0.10968 0.23588 0.0
H1759 H 0.87387 0.06568 0.13675 0.0
H1760 H 0.87731 0.07758 0.19747 0.0
H1761 H 0.8585 0.06455 0.17653 0.0
H1762 H 0.84595 0.07728 0.2218 0.0
H1763 H 0.84696 0.07897 0.32538 0.0
H1764 H 0.92091 0.77477 0.32258 0.0
H1765 H 0.92147 0.77616 0.21891 0.0
H1766 H 0.87492 0.7635 0.21732 0.0
H1767 H 0.87425 0.76221 0.32072 0.0
H1768 H 0.90352 0.75549 0.12849 0.0
H1769 H 0.89748 0.80578 0.14404 0.0
H1770 H 0.90254 0.79836 0.20388 0.0
H1771 H 0.88339 0.78983 0.18159 0.0
C1772 C 0.91072 0.77202 0.30015 0.0
C1773 C 0.89759 0.76861 0.3299 0.0
C1774 C 0.91107 0.77282 0.24095 0.0
C1775 C 0.89832 0.77022 0.21078 0.0
C1776 C 0.88494 0.76579 0.24009 0.0
H1777 H 0.86952 0.77508 0.88024 0.0
H1778 H 0.87311 0.77077 0.97903 0.0
C1779 C 0.88458 0.76504 0.29915 0.0
C1780 C 0.89917 0.77324 0.14927 0.0
H1781 H 0.89469 0.79516 0.05239 0.0
C1782 C 0.90175 0.76425 0.11167 0.0
C1783 C 0.89707 0.78482 0.12778 0.0
C1784 C 0.89511 0.79536 0.16636 0.0
C1785 C 0.90152 0.7661 0.05271 0.0
C1786 C 0.89875 0.77725 0.0314 0.0
C1787 C 0.89673 0.78657 0.06908 0.0
C1788 C 0.89675 0.77882 0.97032 0.0
C1789 C 0.90363 0.7558 0.01346 0.0
C1790 C 0.9089 0.78479 0.93275 0.0
C1791 C 0.9069 0.78738 0.87598 0.0
C1792 C 0.89272 0.78399 0.85622 0.0
C1793 C 0.8806 0.77785 0.8941 0.0
C1794 C 0.8826 0.77531 0.95051 0.0
H1795 H 0.90415 0.74673 0.03675 0.0
H1796 H 0.89433 0.75072 0.98236 0.0
H1797 H 0.91416 0.7623 0.9893 0.0
H1798 H 0.91997 0.78784 0.94771 0.0
H1799 H 0.91654 0.7925 0.8484 0.0
H1800 H 0.81193 0.56096 0.01091 0.0
H1801 H 0.81322 0.55978 0.11448 0.0
H1802 H 0.76865 0.55293 0.12798 0.0
H1803 H 0.76722 0.55414 0.02504 0.0
H1804 H 0.80705 0.57734 0.20416 0.0
H1805 H 0.76895 0.51592 0.20684 0.0
H1806 H 0.77931 0.52589 0.14454 0.0
H1807 H 0.76272 0.52623 0.16455 0.0
C1808 C 0.80247 0.55938 0.03597 0.0
C1809 C 0.78942 0.55752 0.00972 0.0
C1810 C 0.80323 0.5587 0.09501 0.0
C1811 C 0.79094 0.55605 0.12844 0.0
C1812 C 0.77817 0.55479 0.1026 0.0
H1813 H 0.76735 0.56231 0.46179 0.0
H1814 H 0.77608 0.56584 0.36391 0.0
C1815 C 0.77741 0.55554 0.04379 0.0
C1816 C 0.7911 0.55412 0.19034 0.0
H1817 H 0.77298 0.52862 0.29505 0.0
C1818 C 0.79981 0.56666 0.2242 0.0
C1819 C 0.78183 0.54012 0.21606 0.0
C1820 C 0.77275 0.52621 0.18124 0.0
C1821 C 0.79874 0.56572 0.28353 0.0
C1822 C 0.78863 0.55193 0.30914 0.0
C1823 C 0.78067 0.5392 0.27527 0.0
C1824 C 0.78485 0.55078 0.37004 0.0
C1825 C 0.80813 0.57956 0.31826 0.0
C1826 C 0.78671 0.54096 0.40574 0.0
C1827 C 0.78167 0.53889 0.4619 0.0
C1828 C 0.77457 0.54648 0.48272 0.0
C1829 C 0.77282 0.55634 0.44687 0.0
C1830 C 0.77794 0.55849 0.39114 0.0
H1831 H 0.81832 0.58767 0.29487 0.0
H1832 H 0.80152 0.58507 0.32779 0.0
H1833 H 0.81151 0.57676 0.35905 0.0
H1834 H 0.79179 0.53472 0.38982 0.0
H1835 H 0.78286 0.53097 0.48821 0.0
H1836 H 0.43582 0.23649 0.49501 0.0
H1837 H 0.43168 0.24061 0.39601 0.0
H1838 H 0.46215 0.22602 0.34176 0.0
H1839 H 0.46658 0.22219 0.44053 0.0
H1840 H 0.4653 0.25221 0.28436 0.0
H1841 H 0.40694 0.20438 0.28866 0.0
H1842 H 0.41204 0.21857 0.34189 0.0
H1843 H 0.42043 0.20701 0.34255 0.0
C1844 C 0.44198 0.2346 0.46214 0.0
C1845 C 0.45171 0.22923 0.47548 0.0
C1846 C 0.43944 0.23676 0.40559 0.0
C1847 C 0.44653 0.2335 0.36174 0.0
C1848 C 0.45659 0.22861 0.37509 0.0
H1849 H 0.43302 0.20848 0.0175 0.0
H1850 H 0.43385 0.21053 0.12073 0.0
C1851 C 0.45909 0.2264 0.43143 0.0
C1852 C 0.44301 0.23439 0.30165 0.0
H1853 H 0.41611 0.21635 0.20116 0.0
C1854 C 0.45449 0.24455 0.26616 0.0
C1855 C 0.42892 0.22425 0.27828 0.0
C1856 C 0.41635 0.21284 0.31451 0.0
C1857 C 0.45238 0.24456 0.20744 0.0
C1858 C 0.43838 0.23421 0.18391 0.0
C1859 C 0.42677 0.22433 0.21959 0.0
C1860 C 0.43613 0.23249 0.12192 0.0
C1861 C 0.46534 0.25512 0.17067 0.0
C1862 C 0.43665 0.24397 0.08865 0.0
C1863 C 0.43617 0.24284 0.02955 0.0
C1864 C 0.43518 0.2302 0.00295 0.0
C1865 C 0.43389 0.2184 0.03665 0.0
C1866 C 0.43433 0.21953 0.09563 0.0
H1867 H 0.47602 0.26076 0.1946 0.0
H1868 H 0.46665 0.24905 0.13429 0.0
H1869 H 0.46316 0.26383 0.1534 0.0
H1870 H 0.43785 0.25397 0.10834 0.0
H1871 H 0.43712 0.25209 0.0048 0.0
H1872 H 0.76318 0.23831 0.44598 0.0
H1873 H 0.76063 0.23006 0.34756 0.0
H1874 H 0.76073 0.19026 0.4013 0.0
H1875 H 0.76361 0.19863 0.49994 0.0
H1876 H 0.78124 0.20601 0.31495 0.0
H1877 H 0.72522 0.19694 0.26056 0.0
H1878 H 0.73696 0.21473 0.29324 0.0
H1879 H 0.73137 0.19789 0.33288 0.0
C1880 C 0.76237 0.22766 0.43694 0.0
C1881 C 0.76329 0.21898 0.48082 0.0
C1882 C 0.76083 0.22292 0.38073 0.0
C1883 C 0.76024 0.20943 0.36723 0.0
C1884 C 0.76096 0.20061 0.41097 0.0
H1885 H 0.74561 0.1818 0.01125 0.0
H1886 H 0.74431 0.18044 0.11473 0.0
C1887 C 0.76242 0.20532 0.46741 0.0
C1888 C 0.76014 0.2053 0.30705 0.0
H1889 H 0.74159 0.20053 0.18238 0.0
C1890 C 0.77246 0.20456 0.28605 0.0
C1891 C 0.74859 0.20323 0.26958 0.0
C1892 C 0.73471 0.20308 0.29026 0.0
C1893 C 0.77392 0.20261 0.22798 0.0
C1894 C 0.76286 0.20157 0.19001 0.0
C1895 C 0.75015 0.20149 0.21146 0.0
C1896 C 0.76462 0.20151 0.12768 0.0
C1897 C 0.78737 0.20188 0.20774 0.0
C1898 C 0.77658 0.21373 0.10063 0.0
C1899 C 0.77738 0.21455 0.04151 0.0
C1900 C 0.76615 0.2032 0.0083 0.0
C1901 C 0.75445 0.19073 0.03553 0.0
C1902 C 0.75366 0.18993 0.09468 0.0
H1903 H 0.7921 0.19814 0.24207 0.0
H1904 H 0.78454 0.19419 0.17111 0.0
H1905 H 0.79616 0.21318 0.19418 0.0
H1906 H 0.78501 0.22293 0.12521 0.0
H1907 H 0.78652 0.22433 0.02193 0.0
H1908 H 0.89588 0.48061 0.65438 0.0
H1909 H 0.89546 0.48149 0.55077 0.0
H1910 H 0.89191 0.43819 0.54228 0.0
H1911 H 0.89254 0.43727 0.64559 0.0
H1912 H 0.91122 0.45855 0.46024 0.0
H1913 H 0.85599 0.4556 0.46551 0.0
H1914 H 0.87079 0.47081 0.50387 0.0
H1915 H 0.86399 0.45196 0.52717 0.0
C1916 C 0.89523 0.47136 0.63047 0.0
C1917 C 0.89405 0.45878 0.65826 0.0
C1918 C 0.89491 0.47186 0.57129 0.0
C1919 C 0.89335 0.45978 0.53902 0.0
C1920 C 0.89303 0.44759 0.56651 0.0
H1921 H 0.8563 0.42185 0.22064 0.0
H1922 H 0.86224 0.42996 0.31917 0.0
C1923 C 0.89337 0.44708 0.62558 0.0
C1924 C 0.89114 0.45928 0.47691 0.0
H1925 H 0.86594 0.45575 0.37584 0.0
C1926 C 0.90143 0.45813 0.44158 0.0
C1927 C 0.87825 0.45857 0.45297 0.0
C1928 C 0.86653 0.45918 0.48919 0.0
C1929 C 0.899 0.45591 0.38297 0.0
C1930 C 0.88603 0.45503 0.35917 0.0
C1931 C 0.87594 0.45657 0.39429 0.0
C1932 C 0.88197 0.45099 0.29902 0.0
C1933 C 0.90995 0.45382 0.34741 0.0
C1934 C 0.89091 0.4603 0.255 0.0
C1935 C 0.88753 0.45568 0.19855 0.0
C1936 C 0.87509 0.44173 0.18536 0.0
C1937 C 0.86593 0.43268 0.22953 0.0
C1938 C 0.86929 0.4373 0.28578 0.0
H1939 H 0.9179 0.45216 0.37382 0.0
H1940 H 0.90398 0.44406 0.31877 0.0
H1941 H 0.91649 0.46387 0.32073 0.0
H1942 H 0.90068 0.47096 0.2644 0.0
H1943 H 0.89506 0.46273 0.16575 0.0
H1944 H 0.51271 0.4107 0.65613 0.0
H1945 H 0.5122 0.40949 0.5525 0.0
H1946 H 0.55356 0.45144 0.54544 0.0
H1947 H 0.55407 0.45289 0.64877 0.0
H1948 H 0.53279 0.44859 0.46248 0.0
H1949 H 0.54069 0.39918 0.4684 0.0
H1950 H 0.52469 0.39725 0.50589 0.0
H1951 H 0.54313 0.41045 0.53017 0.0
C1952 C 0.52159 0.41978 0.63253 0.0
C1953 C 0.53354 0.4318 0.66075 0.0
C1954 C 0.52131 0.41902 0.57333 0.0
C1955 C 0.533 0.43022 0.54145 0.0
C1956 C 0.54448 0.44264 0.56934 0.0
H1957 H 0.57266 0.43406 0.22292 0.0
H1958 H 0.56447 0.43148 0.32152 0.0
C1959 C 0.54475 0.44343 0.62844 0.0
C1960 C 0.53386 0.4287 0.47934 0.0
H1961 H 0.53966 0.40844 0.37855 0.0
C1962 C 0.53412 0.43972 0.44393 0.0
C1963 C 0.53576 0.4172 0.45554 0.0
C1964 C 0.53619 0.40539 0.49182 0.0
C1965 C 0.53655 0.43975 0.38537 0.0
C1966 C 0.53857 0.42831 0.36167 0.0
C1967 C 0.53797 0.4171 0.3969 0.0
C1968 C 0.54278 0.42861 0.30148 0.0
C1969 C 0.53763 0.45238 0.34978 0.0
C1970 C 0.53315 0.42751 0.25749 0.0
C1971 C 0.53782 0.42901 0.201 0.0
C1972 C 0.55214 0.43148 0.1877 0.0
C1973 C 0.56155 0.43211 0.23187 0.0
C1974 C 0.55688 0.43061 0.28817 0.0
H1975 H 0.5386 0.46172 0.37618 0.0
H1976 H 0.54742 0.45677 0.32095 0.0
H1977 H 0.52745 0.44819 0.32332 0.0
H1978 H 0.52217 0.42585 0.26692 0.0
H1979 H 0.53046 0.4289 0.16824 0.0
H1980 H 0.54083 0.09484 0.64782 0.0
H1981 H 0.54118 0.09578 0.54443 0.0
H1982 H 0.58851 0.11172 0.54498 0.0
H1983 H 0.58823 0.11058 0.64858 0.0
H1984 H 0.55817 0.1227 0.48772 0.0
H1985 H 0.57316 0.08051 0.41742 0.0
H1986 H 0.56613 0.08039 0.48762 0.0
H1987 H 0.58518 0.09355 0.47005 0.0
C1988 C 0.55126 0.09825 0.62595 0.0
C1989 C 0.56452 0.10275 0.65634 0.0
C1990 C 0.55144 0.09878 0.5669 0.0
C1991 C 0.56486 0.10378 0.53713 0.0
C1992 C 0.578 0.1076 0.56713 0.0
H1993 H 0.58135 0.12922 0.17756 0.0
H1994 H 0.58543 0.12562 0.27737 0.0
C1995 C 0.57782 0.10699 0.62635 0.0
C1996 C 0.56526 0.10653 0.47549 0.0
H1997 H 0.57148 0.09578 0.34622 0.0
C1998 C 0.56111 0.11683 0.45683 0.0
C1999 C 0.56929 0.09899 0.43543 0.0
C2000 C 0.57359 0.08765 0.45337 0.0
C2001 C 0.56057 0.11957 0.39907 0.0
C2002 C 0.56415 0.11171 0.35897 0.0
C2003 C 0.56877 0.10176 0.37739 0.0
C2004 C 0.56193 0.1129 0.29789 0.0
C2005 C 0.55597 0.1307 0.38116 0.0
C2006 C 0.54739 0.10675 0.27671 0.0
C2007 C 0.54502 0.10866 0.22 0.0
C2008 C 0.55716 0.11669 0.18322 0.0
C2009 C 0.57176 0.12266 0.20435 0.0
C2010 C 0.57413 0.1207 0.26138 0.0
H2011 H 0.55677 0.13812 0.41666 0.0
H2012 H 0.56302 0.13769 0.34554 0.0
H2013 H 0.54421 0.12461 0.36635 0.0
H2014 H 0.53785 0.10065 0.30439 0.0
H2015 H 0.53364 0.10387 0.20497 0.0
H2016 H 0.47536 0.8875 0.34763 0.0
H2017 H 0.47436 0.88591 0.45124 0.0
H2018 H 0.43904 0.89658 0.45233 0.0
H2019 H 0.43982 0.89804 0.34894 0.0
H2020 H 0.47604 0.90589 0.54191 0.0
H2021 H 0.42068 0.85439 0.52484 0.0
H2022 H 0.43314 0.86232 0.46517 0.0
H2023 H 0.42193 0.87017 0.48795 0.0
C2024 C 0.46756 0.88977 0.36994 0.0
C2025 C 0.4575 0.89266 0.34002 0.0
C2026 C 0.46702 0.88886 0.42912 0.0
C2027 C 0.45643 0.89083 0.45913 0.0
C2028 C 0.44711 0.89476 0.42969 0.0
H2029 H 0.42192 0.88331 0.7906 0.0
H2030 H 0.42968 0.88811 0.69171 0.0
C2031 C 0.4476 0.89562 0.37063 0.0
C2032 C 0.45425 0.88767 0.52059 0.0
H2033 H 0.42817 0.86484 0.61683 0.0
C2034 C 0.46565 0.89684 0.55846 0.0
C2035 C 0.44076 0.87572 0.54175 0.0
C2036 C 0.42847 0.86498 0.50287 0.0
C2037 C 0.46357 0.89478 0.61737 0.0
C2038 C 0.44983 0.88321 0.63838 0.0
C2039 C 0.43867 0.87375 0.60041 0.0
C2040 C 0.44624 0.88129 0.69951 0.0
C2041 C 0.47579 0.90528 0.65687 0.0
C2042 C 0.45302 0.87585 0.73663 0.0
C2043 C 0.44853 0.87298 0.79348 0.0
C2044 C 0.43723 0.87557 0.8138 0.0
C2045 C 0.43063 0.88116 0.77633 0.0
C2046 C 0.43509 0.88398 0.71985 0.0
H2047 H 0.48509 0.91474 0.63392 0.0
H2048 H 0.47123 0.90981 0.6889 0.0
H2049 H 0.48034 0.89907 0.67991 0.0
H2050 H 0.46146 0.87343 0.72128 0.0
H2051 H 0.45354 0.86829 0.82071 0.0
H2052 H 0.09835 0.54056 0.35597 0.0
H2053 H 0.09871 0.54196 0.45931 0.0
H2054 H 0.10134 0.58485 0.45036 0.0
H2055 H 0.10107 0.58361 0.34676 0.0
H2056 H 0.12367 0.58463 0.51675 0.0
H2057 H 0.06777 0.53831 0.57703 0.0
H2058 H 0.07728 0.53284 0.52723 0.0
H2059 H 0.07197 0.5463 0.5067 0.0
C2060 C 0.09873 0.55018 0.37591 0.0
C2061 C 0.09974 0.562 0.34312 0.0
C2062 C 0.09885 0.55092 0.43502 0.0
C2063 C 0.09991 0.56345 0.46244 0.0
C2064 C 0.10043 0.57505 0.42993 0.0
H2065 H 0.09939 0.56575 0.83444 0.0
H2066 H 0.09463 0.56934 0.73561 0.0
C2067 C 0.10024 0.5743 0.37075 0.0
C2068 C 0.10194 0.565 0.52466 0.0
H2069 H 0.08659 0.5473 0.64953 0.0
C2070 C 0.11547 0.57661 0.54591 0.0
C2071 C 0.09117 0.55463 0.56261 0.0
C2072 C 0.07616 0.5424 0.54236 0.0
C2073 C 0.11882 0.57766 0.60391 0.0
C2074 C 0.10844 0.56674 0.64136 0.0
C2075 C 0.09459 0.5556 0.62057 0.0
C2076 C 0.11216 0.56602 0.70139 0.0
C2077 C 0.13357 0.59028 0.62452 0.0
C2078 C 0.1236 0.563 0.71474 0.0
C2079 C 0.12637 0.561 0.77103 0.0
C2080 C 0.11783 0.56209 0.81502 0.0
C2081 C 0.1065 0.56534 0.80168 0.0
C2082 C 0.10365 0.56723 0.74521 0.0
H2083 H 0.13828 0.59983 0.59443 0.0
H2084 H 0.13236 0.59429 0.66678 0.0
H2085 H 0.14167 0.58626 0.62844 0.0
H2086 H 0.13009 0.56172 0.68145 0.0
H2087 H 0.13505 0.55834 0.78011 0.0
H2088 H 0.41031 0.54175 0.82175 0.0
H2089 H 0.40576 0.53247 0.72408 0.0
H2090 H 0.45321 0.55571 0.69288 0.0
H2091 H 0.45785 0.56447 0.79052 0.0
H2092 H 0.41333 0.54911 0.62803 0.0
H2093 H 0.44092 0.51513 0.62713 0.0
H2094 H 0.43625 0.52118 0.69192 0.0
H2095 H 0.45312 0.53353 0.65399 0.0
C2096 C 0.41977 0.54449 0.79464 0.0
C2097 C 0.43445 0.55358 0.81429 0.0
C2098 C 0.41715 0.53929 0.73868 0.0
C2099 C 0.42916 0.54308 0.70163 0.0
C2100 C 0.44378 0.55225 0.72115 0.0
H2101 H 0.45061 0.55344 0.35469 0.0
H2102 H 0.44919 0.55198 0.45817 0.0
C2103 C 0.4464 0.5574 0.77685 0.0
C2104 C 0.42657 0.53861 0.64121 0.0
H2105 H 0.43812 0.52411 0.53565 0.0
C2106 C 0.41845 0.54334 0.608 0.0
C2107 C 0.43323 0.53103 0.61519 0.0
C2108 C 0.44123 0.52479 0.64909 0.0
C2109 C 0.41761 0.54152 0.54895 0.0
C2110 C 0.42502 0.53476 0.52275 0.0
C2111 C 0.43254 0.52939 0.55606 0.0
C2112 C 0.4261 0.53435 0.46048 0.0
C2113 C 0.40946 0.54752 0.51451 0.0
C2114 C 0.41367 0.52463 0.42788 0.0
C2115 C 0.41445 0.52537 0.36872 0.0
C2116 C 0.42766 0.53594 0.34144 0.0
C2117 C 0.44026 0.54525 0.37442 0.0
C2118 C 0.43949 0.54441 0.43348 0.0
H2119 H 0.40538 0.55363 0.54099 0.0
H2120 H 0.41692 0.55515 0.48101 0.0
H2121 H 0.39973 0.53813 0.4932 0.0
H2122 H 0.40327 0.51675 0.44821 0.0
H2123 H 0.40456 0.51804 0.34451 0.0
H2124 H 0.54998 0.80941 0.98939 0.0
H2125 H 0.54815 0.80857 0.88579 0.0
H2126 H 0.56306 0.77639 0.88133 0.0
H2127 H 0.56473 0.77699 0.98463 0.0
H2128 H 0.56861 0.81271 0.79479 0.0
H2129 H 0.52103 0.75472 0.80862 0.0
H2130 H 0.52795 0.76697 0.86928 0.0
H2131 H 0.53745 0.75743 0.84494 0.0
C2132 C 0.55312 0.80235 0.9663 0.0
C2133 C 0.55727 0.79308 0.99517 0.0
C2134 C 0.55205 0.80188 0.90717 0.0
C2135 C 0.55515 0.79217 0.87627 0.0
C2136 C 0.56032 0.78372 0.9047 0.0
H2137 H 0.55729 0.76341 0.54476 0.0
H2138 H 0.56023 0.77112 0.64381 0.0
C2139 C 0.56131 0.78411 0.96367 0.0
C2140 C 0.55208 0.79003 0.81483 0.0
H2141 H 0.53171 0.76317 0.71699 0.0
C2142 C 0.56042 0.80196 0.77766 0.0
C2143 C 0.54121 0.77603 0.79289 0.0
C2144 C 0.53128 0.76309 0.83099 0.0
C2145 C 0.55871 0.79996 0.71868 0.0
C2146 C 0.54841 0.78576 0.69697 0.0
C2147 C 0.53965 0.77403 0.73412 0.0
C2148 C 0.54744 0.78235 0.63598 0.0
C2149 C 0.56827 0.81279 0.67969 0.0
C2150 C 0.53923 0.78614 0.59907 0.0
C2151 C 0.53742 0.78165 0.54226 0.0
C2152 C 0.54385 0.77336 0.52186 0.0
C2153 C 0.55218 0.76976 0.55916 0.0
C2154 C 0.55395 0.77421 0.61565 0.0
H2155 H 0.57596 0.82311 0.70331 0.0
H2156 H 0.57497 0.8097 0.65185 0.0
H2157 H 0.56103 0.81515 0.65193 0.0
H2158 H 0.53394 0.79223 0.61456 0.0
H2159 H 0.53059 0.78423 0.51511 0.0
H2160 H 0.23584 0.79122 0.54964 0.0
H2161 H 0.22836 0.78816 0.6489 0.0
H2162 H 0.19804 0.74127 0.62112 0.0
H2163 H 0.20567 0.74416 0.52122 0.0
H2164 H 0.18701 0.75883 0.69081 0.0
H2165 H 0.24086 0.76449 0.76109 0.0
H2166 H 0.24256 0.77857 0.71213 0.0
H2167 H 0.23398 0.75946 0.68947 0.0
C2168 C 0.22754 0.78024 0.56442 0.0
C2169 C 0.22129 0.76795 0.5274 0.0
C2170 C 0.22326 0.77854 0.62112 0.0
C2171 C 0.21274 0.7645 0.64218 0.0
C2172 C 0.20615 0.75221 0.60534 0.0
H2173 H 0.18302 0.74154 0.99376 0.0
H2174 H 0.18368 0.74093 0.89021 0.0
C2175 C 0.21045 0.75391 0.54824 0.0
C2176 C 0.2093 0.76277 0.7034 0.0
H2177 H 0.22576 0.7666 0.83219 0.0
C2178 C 0.19536 0.76032 0.72193 0.0
C2179 C 0.22027 0.76473 0.74354 0.0
C2180 C 0.23523 0.76683 0.72575 0.0
C2181 C 0.19234 0.76044 0.77999 0.0
C2182 C 0.20353 0.76292 0.82001 0.0
C2183 C 0.21727 0.76487 0.80131 0.0
C2184 C 0.2015 0.76382 0.88166 0.0
C2185 C 0.17748 0.75848 0.79805 0.0
C2186 C 0.21117 0.77695 0.91105 0.0
C2187 C 0.2109 0.77733 0.97014 0.0
C2188 C 0.20098 0.76452 0.00097 0.0
C2189 C 0.19077 0.7516 0.97128 0.0
C2190 C 0.19108 0.75124 0.91206 0.0
H2191 H 0.17133 0.75978 0.76193 0.0
H2192 H 0.17051 0.74713 0.81597 0.0
H2193 H 0.17899 0.76668 0.83147 0.0
H2194 H 0.2193 0.78678 0.88826 0.0
H2195 H 0.21886 0.78747 0.99166 0.0
H2196 H 0.22638 0.46923 0.5518 0.0
H2197 H 0.22928 0.46389 0.65049 0.0
H2198 H 0.23327 0.42619 0.59677 0.0
H2199 H 0.2302 0.43139 0.49787 0.0
H2200 H 0.21124 0.42001 0.6826 0.0
H2201 H 0.26622 0.46861 0.7382 0.0
H2202 H 0.25387 0.47353 0.7031 0.0
H2203 H 0.26053 0.46284 0.66585 0.0
C2204 C 0.22817 0.45999 0.56098 0.0
C2205 C 0.22837 0.45091 0.51711 0.0
C2206 C 0.22989 0.45699 0.61727 0.0
C2207 C 0.23171 0.44478 0.63076 0.0
C2208 C 0.23209 0.43578 0.58704 0.0
H2209 H 0.24639 0.43148 0.98652 0.0
H2210 H 0.24783 0.43158 0.88299 0.0
C2211 C 0.2305 0.43887 0.53054 0.0
C2212 C 0.23192 0.44081 0.69085 0.0
H2213 H 0.25021 0.45495 0.81568 0.0
C2214 C 0.21987 0.42751 0.71163 0.0
C2215 C 0.24328 0.45054 0.7284 0.0
C2216 C 0.25679 0.46462 0.70778 0.0
C2217 C 0.21848 0.42409 0.76967 0.0
C2218 C 0.22936 0.43429 0.8077 0.0
C2219 C 0.24182 0.44719 0.78647 0.0
C2220 C 0.22755 0.4324 0.86992 0.0
C2221 C 0.20526 0.40971 0.7899 0.0
C2222 C 0.21558 0.43266 0.89679 0.0
C2223 C 0.21473 0.43263 0.95586 0.0
C2224 C 0.22589 0.43242 0.98919 0.0
C2225 C 0.2376 0.43162 0.96212 0.0
C2226 C 0.23846 0.43171 0.90297 0.0
H2227 H 0.20057 0.40129 0.75538 0.0
H2228 H 0.20837 0.40491 0.82598 0.0
H2229 H 0.19637 0.41196 0.8044 0.0
H2230 H 0.20718 0.43347 0.87208 0.0
H2231 H 0.20558 0.43327 0.97535 0.0
loop_
_geom_bond_atom_site_label_1
_geom_bond_atom_site_label_2
_geom_bond_distance
_geom_bond_site_symmetry_2
_ccdc_geom_bond_type
Co0 O3 1.970 . S
Co0 N17 1.989 . S
Co0 O25 1.967 . S
Co0 O32 1.920 . S
Co1 O4 1.966 . S
Co1 N10 2.022 . S
Co1 N18 1.993 . S
Co1 O26 1.941 . S
C2 O3 1.258 . S
C2 O4 1.263 . S
O3 Co0 1.970 . S
O3 C2 1.258 . S
O4 Co1 1.966 . S
O4 C2 1.263 . S
C5 O6 1.235 . S
C5 O32 1.289 . S
O6 C5 1.235 . S
C7 C9 1.400 . S
C7 N10 1.351 . S
C7 C12 1.501 . S
C8 C9 1.387 . S
C8 N11 1.341 . S
C9 C7 1.400 . S
C9 C8 1.387 . S
N10 Co1 2.022 . S
N10 C7 1.351 . S
N10 N11 1.365 . S
N11 C8 1.341 . S
N11 N10 1.365 . S
N11 H31 0.862 . S
C12 C7 1.501 . S
C12 H13 0.961 . S
C12 H14 0.961 . S
C12 H15 0.960 . S
H13 C12 0.961 . S
H14 C12 0.961 . S
H15 C12 0.960 . S
C16 N17 1.342 . S
C16 C20 1.401 . S
C16 C21 1.499 . S
N17 Co0 1.989 . S
N17 C16 1.342 . S
N17 N18 1.388 . S
N18 Co1 1.993 . S
N18 N17 1.388 . S
N18 C19 1.346 . S
C19 N18 1.346 . S
C19 C20 1.396 . S
C19 C29 1.510 . S
C20 C16 1.401 . S
C20 C19 1.396 . S
C21 C16 1.499 . S
C21 H22 0.959 . S
C21 H23 0.960 . S
C21 H24 0.961 . S
H22 C21 0.959 . S
H23 C21 0.960 . S
H24 C21 0.961 . S
O25 Co0 1.967 . S
O25 C33 1.258 . S
O26 Co1 1.941 . S
O26 C33 1.266 . S
H27 C29 0.959 . S
H28 C29 0.961 . S
C29 C19 1.510 . S
C29 H27 0.959 . S
C29 H28 0.961 . S
C29 H30 0.960 . S
H30 C29 0.960 . S
H31 N11 0.862 . S
O32 Co0 1.920 . S
O32 C5 1.289 . S
C33 O25 1.258 . S
C33 O26 1.266 . S
Co34 O37 1.970 . S
Co34 N51 1.989 . S
Co34 O59 1.967 . S
Co34 O66 1.920 . S
Co35 O38 1.966 . S
Co35 N44 2.022 . S
Co35 N52 1.993 . S
Co35 O60 1.941 . S
C36 O37 1.258 . S
C36 O38 1.263 . S
O37 Co34 1.970 . S
O37 C36 1.258 . S
O38 Co35 1.966 . S
O38 C36 1.263 . S
C39 O40 1.235 . S
C39 O66 1.289 . S
O40 C39 1.235 . S
C41 C43 1.400 . S
C41 N44 1.351 . S
C41 C46 1.501 . S
C42 C43 1.387 . S
C42 N45 1.341 . S
C43 C41 1.400 . S
C43 C42 1.387 . S
N44 Co35 2.022 . S
N44 C41 1.351 . S
N44 N45 1.365 . S
N45 C42 1.341 . S
N45 N44 1.365 . S
N45 H65 0.862 . S
C46 C41 1.501 . S
C46 H47 0.961 . S
C46 H48 0.961 . S
C46 H49 0.960 . S
H47 C46 0.961 . S
H48 C46 0.961 . S
H49 C46 0.960 . S
C50 N51 1.342 . S
C50 C54 1.401 . S
C50 C55 1.499 . S
N51 Co34 1.989 . S
N51 C50 1.342 . S
N51 N52 1.388 . S
N52 Co35 1.993 . S
N52 N51 1.388 . S
N52 C53 1.346 . S
C53 N52 1.346 . S
C53 C54 1.396 . S
C53 C63 1.510 . S
C54 C50 1.401 . S
C54 C53 1.396 . S
C55 C50 1.499 . S
C55 H56 0.959 . S
C55 H57 0.960 . S
C55 H58 0.961 . S
H56 C55 0.959 . S
H57 C55 0.960 . S
H58 C55 0.961 . S
O59 Co34 1.967 . S
O59 C67 1.258 . S
O60 Co35 1.941 . S
O60 C67 1.266 . S
H61 C63 0.959 . S
H62 C63 0.961 . S
C63 C53 1.510 . S
C63 H61 0.959 . S
C63 H62 0.961 . S
C63 H64 0.960 . S
H64 C63 0.960 . S
H65 N45 0.862 . S
O66 Co34 1.920 . S
O66 C39 1.289 . S
C67 O59 1.258 . S
C67 O60 1.266 . S
Co68 O71 1.970 . S
Co68 N85 1.989 . S
Co68 O93 1.967 . S
Co68 O100 1.920 . S
Co69 O72 1.966 . S
Co69 N78 2.022 . S
Co69 N86 1.993 . S
Co69 O94 1.941 . S
C70 O71 1.258 . S
C70 O72 1.263 . S
O71 Co68 1.970 . S
O71 C70 1.258 . S
O72 Co69 1.966 . S
O72 C70 1.263 . S
C73 O74 1.235 . S
C73 O100 1.289 . S
O74 C73 1.235 . S
C75 C77 1.400 . S
C75 N78 1.351 . S
C75 C80 1.501 . S
C76 C77 1.387 . S
C76 N79 1.341 . S
C77 C75 1.400 . S
C77 C76 1.387 . S
N78 Co69 2.022 . S
N78 C75 1.351 . S
N78 N79 1.365 . S
N79 C76 1.341 . S
N79 N78 1.365 . S
N79 H99 0.862 . S
C80 C75 1.501 . S
C80 H81 0.961 . S
C80 H82 0.961 . S
C80 H83 0.960 . S
H81 C80 0.961 . S
H82 C80 0.961 . S
H83 C80 0.960 . S
C84 N85 1.342 . S
C84 C88 1.401 . S
C84 C89 1.499 . S
N85 Co68 1.989 . S
N85 C84 1.342 . S
N85 N86 1.388 . S
N86 Co69 1.993 . S
N86 N85 1.388 . S
N86 C87 1.346 . S
C87 N86 1.346 . S
C87 C88 1.396 . S
C87 C97 1.510 . S
C88 C84 1.401 . S
C88 C87 1.396 . S
C89 C84 1.499 . S
C89 H90 0.959 . S
C89 H91 0.960 . S
C89 H92 0.961 . S
H90 C89 0.959 . S
H91 C89 0.960 . S
H92 C89 0.961 . S
O93 Co68 1.967 . S
O93 C101 1.258 . S
O94 Co69 1.941 . S
O94 C101 1.266 . S
H95 C97 0.959 . S
H96 C97 0.961 . S
C97 C87 1.510 . S
C97 H95 0.959 . S
C97 H96 0.961 . S
C97 H98 0.960 . S
H98 C97 0.960 . S
H99 N79 0.862 . S
O100 Co68 1.920 . S
O100 C73 1.289 . S
C101 O93 1.258 . S
C101 O94 1.266 . S
Co102 O105 1.970 . S
Co102 N119 1.989 . S
Co102 O127 1.967 . S
Co102 O134 1.920 . S
Co103 O106 1.966 . S
Co103 N112 2.022 . S
Co103 N120 1.993 . S
Co103 O128 1.941 . S
C104 O105 1.258 . S
C104 O106 1.263 . S
O105 Co102 1.970 . S
O105 C104 1.258 . S
O106 Co103 1.966 . S
O106 C104 1.263 . S
C107 O108 1.235 . S
C107 O134 1.289 . S
O108 C107 1.235 . S
C109 C111 1.400 . S
C109 N112 1.351 . S
C109 C114 1.501 . S
C110 C111 1.387 . S
C110 N113 1.341 . S
C111 C109 1.400 . S
C111 C110 1.387 . S
N112 Co103 2.022 . S
N112 C109 1.351 . S
N112 N113 1.365 . S
N113 C110 1.341 . S
N113 N112 1.365 . S
N113 H133 0.862 . S
C114 C109 1.501 . S
C114 H115 0.961 . S
C114 H116 0.961 . S
C114 H117 0.960 . S
H115 C114 0.961 . S
H116 C114 0.961 . S
H117 C114 0.960 . S
C118 N119 1.342 . S
C118 C122 1.401 . S
C118 C123 1.499 . S
N119 Co102 1.989 . S
N119 C118 1.342 . S
N119 N120 1.388 . S
N120 Co103 1.993 . S
N120 N119 1.388 . S
N120 C121 1.346 . S
C121 N120 1.346 . S
C121 C122 1.396 . S
C121 C131 1.510 . S
C122 C118 1.401 . S
C122 C121 1.396 . S
C123 C118 1.499 . S
C123 H124 0.959 . S
C123 H125 0.960 . S
C123 H126 0.961 . S
H124 C123 0.959 . S
H125 C123 0.960 . S
H126 C123 0.961 . S
O127 Co102 1.967 . S
O127 C135 1.258 . S
O128 Co103 1.941 . S
O128 C135 1.266 . S
H129 C131 0.959 . S
H130 C131 0.961 . S
C131 C121 1.510 . S
C131 H129 0.959 . S
C131 H130 0.961 . S
C131 H132 0.960 . S
H132 C131 0.960 . S
H133 N113 0.862 . S
O134 Co102 1.920 . S
O134 C107 1.289 . S
C135 O127 1.258 . S
C135 O128 1.266 . S
Co136 O139 1.970 . S
Co136 N153 1.989 . S
Co136 O161 1.967 . S
Co136 O168 1.920 . S
Co137 O140 1.966 . S
Co137 N146 2.022 . S
Co137 N154 1.993 . S
Co137 O162 1.941 . S
C138 O139 1.258 . S
C138 O140 1.263 . S
O139 Co136 1.970 . S
O139 C138 1.258 . S
O140 Co137 1.966 . S
O140 C138 1.263 . S
C141 O142 1.235 . S
C141 O168 1.289 . S
O142 C141 1.235 . S
C143 C145 1.400 . S
C143 N146 1.351 . S
C143 C148 1.501 . S
C144 C145 1.387 . S
C144 N147 1.341 . S
C145 C143 1.400 . S
C145 C144 1.387 . S
N146 Co137 2.022 . S
N146 C143 1.351 . S
N146 N147 1.365 . S
N147 C144 1.341 . S
N147 N146 1.365 . S
N147 H167 0.862 . S
C148 C143 1.501 . S
C148 H149 0.961 . S
C148 H150 0.961 . S
C148 H151 0.960 . S
H149 C148 0.961 . S
H150 C148 0.961 . S
H151 C148 0.960 . S
C152 N153 1.342 . S
C152 C156 1.401 . S
C152 C157 1.499 . S
N153 Co136 1.989 . S
N153 C152 1.342 . S
N153 N154 1.388 . S
N154 Co137 1.993 . S
N154 N153 1.388 . S
N154 C155 1.346 . S
C155 N154 1.346 . S
C155 C156 1.396 . S
C155 C165 1.510 . S
C156 C152 1.401 . S
C156 C155 1.396 . S
C157 C152 1.499 . S
C157 H158 0.959 . S
C157 H159 0.960 . S
C157 H160 0.961 . S
H158 C157 0.959 . S
H159 C157 0.960 . S
H160 C157 0.961 . S
O161 Co136 1.967 . S
O161 C169 1.258 . S
O162 Co137 1.941 . S
O162 C169 1.266 . S
H163 C165 0.959 . S
H164 C165 0.961 . S
C165 C155 1.510 . S
C165 H163 0.959 . S
C165 H164 0.961 . S
C165 H166 0.960 . S
H166 C165 0.960 . S
H167 N147 0.862 . S
O168 Co136 1.920 . S
O168 C141 1.289 . S
C169 O161 1.258 . S
C169 O162 1.266 . S
Co170 O173 1.970 . S
Co170 N187 1.989 . S
Co170 O195 1.967 . S
Co170 O202 1.920 . S
Co171 O174 1.966 . S
Co171 N180 2.022 . S
Co171 N188 1.993 . S
Co171 O196 1.941 . S
C172 O173 1.258 . S
C172 O174 1.263 . S
O173 Co170 1.970 . S
O173 C172 1.258 . S
O174 Co171 1.966 . S
O174 C172 1.263 . S
C175 O176 1.235 . S
C175 O202 1.289 . S
O176 C175 1.235 . S
C177 C179 1.400 . S
C177 N180 1.351 . S
C177 C182 1.501 . S
C178 C179 1.387 . S
C178 N181 1.341 . S
C179 C177 1.400 . S
C179 C178 1.387 . S
N180 Co171 2.022 . S
N180 C177 1.351 . S
N180 N181 1.365 . S
N181 C178 1.341 . S
N181 N180 1.365 . S
N181 H201 0.862 . S
C182 C177 1.501 . S
C182 H183 0.961 . S
C182 H184 0.961 . S
C182 H185 0.960 . S
H183 C182 0.961 . S
H184 C182 0.961 . S
H185 C182 0.960 . S
C186 N187 1.342 . S
C186 C190 1.401 . S
C186 C191 1.499 . S
N187 Co170 1.989 . S
N187 C186 1.342 . S
N187 N188 1.388 . S
N188 Co171 1.993 . S
N188 N187 1.388 . S
N188 C189 1.346 . S
C189 N188 1.346 . S
C189 C190 1.396 . S
C189 C199 1.510 . S
C190 C186 1.401 . S
C190 C189 1.396 . S
C191 C186 1.499 . S
C191 H192 0.959 . S
C191 H193 0.960 . S
C191 H194 0.961 . S
H192 C191 0.959 . S
H193 C191 0.960 . S
H194 C191 0.961 . S
O195 Co170 1.967 . S
O195 C203 1.258 . S
O196 Co171 1.941 . S
O196 C203 1.266 . S
H197 C199 0.959 . S
H198 C199 0.961 . S
C199 C189 1.510 . S
C199 H197 0.959 . S
C199 H198 0.961 . S
C199 H200 0.960 . S
H200 C199 0.960 . S
H201 N181 0.862 . S
O202 Co170 1.920 . S
O202 C175 1.289 . S
C203 O195 1.258 . S
C203 O196 1.266 . S
Co204 O207 1.970 . S
Co204 N221 1.989 . S
Co204 O229 1.967 . S
Co204 O236 1.920 . S
Co205 O208 1.966 . S
Co205 N214 2.022 . S
Co205 N222 1.993 . S
Co205 O230 1.941 . S
C206 O207 1.258 . S
C206 O208 1.263 . S
O207 Co204 1.970 . S
O207 C206 1.258 . S
O208 Co205 1.966 . S
O208 C206 1.263 . S
C209 O210 1.235 . S
C209 O236 1.289 . S
O210 C209 1.235 . S
C211 C213 1.400 . S
C211 N214 1.351 . S
C211 C216 1.501 . S
C212 C213 1.387 . S
C212 N215 1.341 . S
C213 C211 1.400 . S
C213 C212 1.387 . S
N214 Co205 2.022 . S
N214 C211 1.351 . S
N214 N215 1.365 . S
N215 C212 1.341 . S
N215 N214 1.365 . S
N215 H235 0.862 . S
C216 C211 1.501 . S
C216 H217 0.961 . S
C216 H218 0.961 . S
C216 H219 0.960 . S
H217 C216 0.961 . S
H218 C216 0.961 . S
H219 C216 0.960 . S
C220 N221 1.342 . S
C220 C224 1.401 . S
C220 C225 1.499 . S
N221 Co204 1.989 . S
N221 C220 1.342 . S
N221 N222 1.388 . S
N222 Co205 1.993 . S
N222 N221 1.388 . S
N222 C223 1.346 . S
C223 N222 1.346 . S
C223 C224 1.396 . S
C223 C233 1.510 . S
C224 C220 1.401 . S
C224 C223 1.396 . S
C225 C220 1.499 . S
C225 H226 0.959 . S
C225 H227 0.960 . S
C225 H228 0.961 . S
H226 C225 0.959 . S
H227 C225 0.960 . S
H228 C225 0.961 . S
O229 Co204 1.967 . S
O229 C237 1.258 . S
O230 Co205 1.941 . S
O230 C237 1.266 . S
H231 C233 0.959 . S
H232 C233 0.961 . S
C233 C223 1.510 . S
C233 H231 0.959 . S
C233 H232 0.961 . S
C233 H234 0.960 . S
H234 C233 0.960 . S
H235 N215 0.862 . S
O236 Co204 1.920 . S
O236 C209 1.289 . S
C237 O229 1.258 . S
C237 O230 1.266 . S
Co238 O241 1.970 . S
Co238 N255 1.989 . S
Co238 O263 1.967 . S
Co238 O270 1.920 . S
Co239 O242 1.966 . S
Co239 N248 2.022 . S
Co239 N256 1.993 . S
Co239 O264 1.941 . S
C240 O241 1.258 . S
C240 O242 1.263 . S
O241 Co238 1.970 . S
O241 C240 1.258 . S
O242 Co239 1.966 . S
O242 C240 1.263 . S
C243 O244 1.235 . S
C243 O270 1.289 . S
O244 C243 1.235 . S
C245 C247 1.400 . S
C245 N248 1.351 . S
C245 C250 1.501 . S
C246 C247 1.387 . S
C246 N249 1.341 . S
C247 C245 1.400 . S
C247 C246 1.387 . S
N248 Co239 2.022 . S
N248 C245 1.351 . S
N248 N249 1.365 . S
N249 C246 1.341 . S
N249 N248 1.365 . S
N249 H269 0.862 . S
C250 C245 1.501 . S
C250 H251 0.961 . S
C250 H252 0.961 . S
C250 H253 0.960 . S
H251 C250 0.961 . S
H252 C250 0.961 . S
H253 C250 0.960 . S
C254 N255 1.342 . S
C254 C258 1.401 . S
C254 C259 1.499 . S
N255 Co238 1.989 . S
N255 C254 1.342 . S
N255 N256 1.388 . S
N256 Co239 1.993 . S
N256 N255 1.388 . S
N256 C257 1.346 . S
C257 N256 1.346 . S
C257 C258 1.396 . S
C257 C267 1.510 . S
C258 C254 1.401 . S
C258 C257 1.396 . S
C259 C254 1.499 . S
C259 H260 0.959 . S
C259 H261 0.960 . S
C259 H262 0.961 . S
H260 C259 0.959 . S
H261 C259 0.960 . S
H262 C259 0.961 . S
O263 Co238 1.967 . S
O263 C271 1.258 . S
O264 Co239 1.941 . S
O264 C271 1.266 . S
H265 C267 0.959 . S
H266 C267 0.961 . S
C267 C257 1.510 . S
C267 H265 0.959 . S
C267 H266 0.961 . S
C267 H268 0.960 . S
H268 C267 0.960 . S
H269 N249 0.862 . S
O270 Co238 1.920 . S
O270 C243 1.289 . S
C271 O263 1.258 . S
C271 O264 1.266 . S
Co272 O275 1.970 . S
Co272 N289 1.989 . S
Co272 O297 1.967 . S
Co272 O304 1.920 . S
Co273 O276 1.966 . S
Co273 N282 2.022 . S
Co273 N290 1.993 . S
Co273 O298 1.941 . S
C274 O275 1.258 . S
C274 O276 1.263 . S
O275 Co272 1.970 . S
O275 C274 1.258 . S
O276 Co273 1.966 . S
O276 C274 1.263 . S
C277 O278 1.235 . S
C277 O304 1.289 . S
O278 C277 1.235 . S
C279 C281 1.400 . S
C279 N282 1.351 . S
C279 C284 1.501 . S
C280 C281 1.387 . S
C280 N283 1.341 . S
C281 C279 1.400 . S
C281 C280 1.387 . S
N282 Co273 2.022 . S
N282 C279 1.351 . S
N282 N283 1.365 . S
N283 C280 1.341 . S
N283 N282 1.365 . S
N283 H303 0.862 . S
C284 C279 1.501 . S
C284 H285 0.961 . S
C284 H286 0.961 . S
C284 H287 0.960 . S
H285 C284 0.961 . S
H286 C284 0.961 . S
H287 C284 0.960 . S
C288 N289 1.342 . S
C288 C292 1.401 . S
C288 C293 1.499 . S
N289 Co272 1.989 . S
N289 C288 1.342 . S
N289 N290 1.388 . S
N290 Co273 1.993 . S
N290 N289 1.388 . S
N290 C291 1.346 . S
C291 N290 1.346 . S
C291 C292 1.396 . S
C291 C301 1.510 . S
C292 C288 1.401 . S
C292 C291 1.396 . S
C293 C288 1.499 . S
C293 H294 0.959 . S
C293 H295 0.960 . S
C293 H296 0.961 . S
H294 C293 0.959 . S
H295 C293 0.960 . S
H296 C293 0.961 . S
O297 Co272 1.967 . S
O297 C305 1.258 . S
O298 Co273 1.941 . S
O298 C305 1.266 . S
H299 C301 0.959 . S
H300 C301 0.961 . S
C301 C291 1.510 . S
C301 H299 0.959 . S
C301 H300 0.961 . S
C301 H302 0.960 . S
H302 C301 0.960 . S
H303 N283 0.862 . S
O304 Co272 1.920 . S
O304 C277 1.289 . S
C305 O297 1.258 . S
C305 O298 1.266 . S
Co306 O309 1.970 . S
Co306 N323 1.989 . S
Co306 O331 1.967 . S
Co306 O338 1.920 . S
Co307 O310 1.966 . S
Co307 N316 2.022 1_556 S
Co307 N324 1.993 . S
Co307 O332 1.941 . S
C308 O309 1.258 . S
C308 O310 1.263 . S
O309 Co306 1.970 . S
O309 C308 1.258 . S
O310 Co307 1.966 . S
O310 C308 1.263 . S
C311 O312 1.235 . S
C311 O338 1.289 . S
O312 C311 1.235 . S
C313 C315 1.400 . S
C313 N316 1.351 . S
C313 C318 1.501 . S
C314 C315 1.387 . S
C314 N317 1.341 . S
C315 C313 1.400 . S
C315 C314 1.387 . S
N316 Co307 2.022 1_554 S
N316 C313 1.351 . S
N316 N317 1.365 . S
N317 C314 1.341 . S
N317 N316 1.365 . S
N317 H337 0.862 . S
C318 C313 1.501 . S
C318 H319 0.961 . S
C318 H320 0.961 . S
C318 H321 0.960 . S
H319 C318 0.961 . S
H320 C318 0.961 . S
H321 C318 0.960 . S
C322 N323 1.342 . S
C322 C326 1.401 . S
C322 C327 1.499 . S
N323 Co306 1.989 . S
N323 C322 1.342 . S
N323 N324 1.388 . S
N324 Co307 1.993 . S
N324 N323 1.388 . S
N324 C325 1.346 . S
C325 N324 1.346 . S
C325 C326 1.396 . S
C325 C335 1.510 1_556 S
C326 C322 1.401 . S
C326 C325 1.396 . S
C327 C322 1.499 . S
C327 H328 0.959 . S
C327 H329 0.960 . S
C327 H330 0.961 . S
H328 C327 0.959 . S
H329 C327 0.960 . S
H330 C327 0.961 . S
O331 Co306 1.967 . S
O331 C339 1.258 . S
O332 Co307 1.941 . S
O332 C339 1.266 . S
H333 C335 0.959 . S
H334 C335 0.961 . S
C335 C325 1.510 1_554 S
C335 H333 0.959 . S
C335 H334 0.961 . S
C335 H336 0.960 . S
H336 C335 0.960 . S
H337 N317 0.862 . S
O338 Co306 1.920 . S
O338 C311 1.289 . S
C339 O331 1.258 . S
C339 O332 1.266 . S
Co340 O343 1.970 . S
Co340 N357 1.989 . S
Co340 O365 1.967 . S
Co340 O372 1.920 . S
Co341 O344 1.966 . S
Co341 N350 2.022 1_556 S
Co341 N358 1.993 . S
Co341 O366 1.941 . S
C342 O343 1.258 . S
C342 O344 1.263 . S
O343 Co340 1.970 . S
O343 C342 1.258 . S
O344 Co341 1.966 . S
O344 C342 1.263 . S
C345 O346 1.235 . S
C345 O372 1.289 . S
O346 C345 1.235 . S
C347 C349 1.400 . S
C347 N350 1.351 . S
C347 C352 1.501 . S
C348 C349 1.387 . S
C348 N351 1.341 . S
C349 C347 1.400 . S
C349 C348 1.387 . S
N350 Co341 2.022 1_554 S
N350 C347 1.351 . S
N350 N351 1.365 . S
N351 C348 1.341 . S
N351 N350 1.365 . S
N351 H371 0.862 . S
C352 C347 1.501 . S
C352 H353 0.961 . S
C352 H354 0.961 . S
C352 H355 0.960 . S
H353 C352 0.961 . S
H354 C352 0.961 . S
H355 C352 0.960 . S
C356 N357 1.342 . S
C356 C360 1.401 . S
C356 C361 1.499 . S
N357 Co340 1.989 . S
N357 C356 1.342 . S
N357 N358 1.388 . S
N358 Co341 1.993 . S
N358 N357 1.388 . S
N358 C359 1.346 . S
C359 N358 1.346 . S
C359 C360 1.396 . S
C359 C369 1.510 1_556 S
C360 C356 1.401 . S
C360 C359 1.396 . S
C361 C356 1.499 . S
C361 H362 0.959 . S
C361 H363 0.960 . S
C361 H364 0.961 . S
H362 C361 0.959 . S
H363 C361 0.960 . S
H364 C361 0.961 . S
O365 Co340 1.967 . S
O365 C373 1.258 . S
O366 Co341 1.941 . S
O366 C373 1.266 . S
H367 C369 0.959 . S
H368 C369 0.961 . S
C369 C359 1.510 1_554 S
C369 H367 0.959 . S
C369 H368 0.961 . S
C369 H370 0.960 . S
H370 C369 0.960 . S
H371 N351 0.862 . S
O372 Co340 1.920 . S
O372 C345 1.289 . S
C373 O365 1.258 . S
C373 O366 1.266 . S
Co374 O377 1.970 . S
Co374 N391 1.989 . S
Co374 O399 1.967 . S
Co374 O406 1.920 . S
Co375 O378 1.966 . S
Co375 N384 2.022 1_556 S
Co375 N392 1.993 . S
Co375 O400 1.941 . S
C376 O377 1.258 . S
C376 O378 1.263 . S
O377 Co374 1.970 . S
O377 C376 1.258 . S
O378 Co375 1.966 . S
O378 C376 1.263 . S
C379 O380 1.235 . S
C379 O406 1.289 . S
O380 C379 1.235 . S
C381 C383 1.400 . S
C381 N384 1.351 . S
C381 C386 1.501 . S
C382 C383 1.387 . S
C382 N385 1.341 . S
C383 C381 1.400 . S
C383 C382 1.387 . S
N384 Co375 2.022 1_554 S
N384 C381 1.351 . S
N384 N385 1.365 . S
N385 C382 1.341 . S
N385 N384 1.365 . S
N385 H405 0.862 . S
C386 C381 1.501 . S
C386 H387 0.961 . S
C386 H388 0.961 . S
C386 H389 0.960 . S
H387 C386 0.961 . S
H388 C386 0.961 . S
H389 C386 0.960 . S
C390 N391 1.342 . S
C390 C394 1.401 . S
C390 C395 1.499 . S
N391 Co374 1.989 . S
N391 C390 1.342 . S
N391 N392 1.388 . S
N392 Co375 1.993 . S
N392 N391 1.388 . S
N392 C393 1.346 . S
C393 N392 1.346 . S
C393 C394 1.396 . S
C393 C403 1.510 1_556 S
C394 C390 1.401 . S
C394 C393 1.396 . S
C395 C390 1.499 . S
C395 H396 0.959 . S
C395 H397 0.960 . S
C395 H398 0.961 . S
H396 C395 0.959 . S
H397 C395 0.960 . S
H398 C395 0.961 . S
O399 Co374 1.967 . S
O399 C407 1.258 . S
O400 Co375 1.941 . S
O400 C407 1.266 . S
H401 C403 0.959 . S
H402 C403 0.961 . S
C403 C393 1.510 1_554 S
C403 H401 0.959 . S
C403 H402 0.961 . S
C403 H404 0.960 . S
H404 C403 0.960 . S
H405 N385 0.862 . S
O406 Co374 1.920 . S
O406 C379 1.289 . S
C407 O399 1.258 . S
C407 O400 1.266 . S
Co408 O411 1.970 . S
Co408 N425 1.989 . S
Co408 O433 1.967 . S
Co408 O440 1.920 . S
Co409 O412 1.966 . S
Co409 N418 2.022 1_554 S
Co409 N426 1.993 . S
Co409 O434 1.941 . S
C410 O411 1.258 . S
C410 O412 1.263 . S
O411 Co408 1.970 . S
O411 C410 1.258 . S
O412 Co409 1.966 . S
O412 C410 1.263 . S
C413 O414 1.235 . S
C413 O440 1.289 . S
O414 C413 1.235 . S
C415 C417 1.400 . S
C415 N418 1.351 . S
C415 C420 1.501 . S
C416 C417 1.387 . S
C416 N419 1.341 . S
C417 C415 1.400 . S
C417 C416 1.387 . S
N418 Co409 2.022 1_556 S
N418 C415 1.351 . S
N418 N419 1.365 . S
N419 C416 1.341 . S
N419 N418 1.365 . S
N419 H439 0.862 . S
C420 C415 1.501 . S
C420 H421 0.961 . S
C420 H422 0.961 . S
C420 H423 0.960 . S
H421 C420 0.961 . S
H422 C420 0.961 . S
H423 C420 0.960 . S
C424 N425 1.342 . S
C424 C428 1.401 . S
C424 C429 1.499 . S
N425 Co408 1.989 . S
N425 C424 1.342 . S
N425 N426 1.388 . S
N426 Co409 1.993 . S
N426 N425 1.388 . S
N426 C427 1.346 . S
C427 N426 1.346 . S
C427 C428 1.396 . S
C427 C437 1.510 1_554 S
C428 C424 1.401 . S
C428 C427 1.396 . S
C429 C424 1.499 . S
C429 H430 0.959 . S
C429 H431 0.960 . S
C429 H432 0.961 . S
H430 C429 0.959 . S
H431 C429 0.960 . S
H432 C429 0.961 . S
O433 Co408 1.967 . S
O433 C441 1.258 . S
O434 Co409 1.941 . S
O434 C441 1.266 . S
H435 C437 0.959 . S
H436 C437 0.961 . S
C437 C427 1.510 1_556 S
C437 H435 0.959 . S
C437 H436 0.961 . S
C437 H438 0.960 . S
H438 C437 0.960 . S
H439 N419 0.862 . S
O440 Co408 1.920 . S
O440 C413 1.289 . S
C441 O433 1.258 . S
C441 O434 1.266 . S
Co442 O445 1.970 . S
Co442 N459 1.989 . S
Co442 O467 1.967 . S
Co442 O474 1.920 . S
Co443 O446 1.966 . S
Co443 N452 2.022 1_554 S
Co443 N460 1.993 . S
Co443 O468 1.941 . S
C444 O445 1.258 . S
C444 O446 1.263 . S
O445 Co442 1.970 . S
O445 C444 1.258 . S
O446 Co443 1.966 . S
O446 C444 1.263 . S
C447 O448 1.235 . S
C447 O474 1.289 . S
O448 C447 1.235 . S
C449 C451 1.400 . S
C449 N452 1.351 . S
C449 C454 1.501 . S
C450 C451 1.387 . S
C450 N453 1.341 . S
C451 C449 1.400 . S
C451 C450 1.387 . S
N452 Co443 2.022 1_556 S
N452 C449 1.351 . S
N452 N453 1.365 . S
N453 C450 1.341 . S
N453 N452 1.365 . S
N453 H473 0.862 . S
C454 C449 1.501 . S
C454 H455 0.961 . S
C454 H456 0.961 . S
C454 H457 0.960 . S
H455 C454 0.961 . S
H456 C454 0.961 . S
H457 C454 0.960 . S
C458 N459 1.342 . S
C458 C462 1.401 . S
C458 C463 1.499 . S
N459 Co442 1.989 . S
N459 C458 1.342 . S
N459 N460 1.388 . S
N460 Co443 1.993 . S
N460 N459 1.388 . S
N460 C461 1.346 . S
C461 N460 1.346 . S
C461 C462 1.396 . S
C461 C471 1.510 1_554 S
C462 C458 1.401 . S
C462 C461 1.396 . S
C463 C458 1.499 . S
C463 H464 0.959 . S
C463 H465 0.960 . S
C463 H466 0.961 . S
H464 C463 0.959 . S
H465 C463 0.960 . S
H466 C463 0.961 . S
O467 Co442 1.967 . S
O467 C475 1.258 . S
O468 Co443 1.941 . S
O468 C475 1.266 . S
H469 C471 0.959 . S
H470 C471 0.961 . S
C471 C461 1.510 1_556 S
C471 H469 0.959 . S
C471 H470 0.961 . S
C471 H472 0.960 . S
H472 C471 0.960 . S
H473 N453 0.862 . S
O474 Co442 1.920 . S
O474 C447 1.289 . S
C475 O467 1.258 . S
C475 O468 1.266 . S
Co476 O479 1.970 . S
Co476 N493 1.989 . S
Co476 O501 1.967 . S
Co476 O508 1.920 . S
Co477 O480 1.966 . S
Co477 N486 2.022 1_554 S
Co477 N494 1.993 . S
Co477 O502 1.941 . S
C478 O479 1.258 . S
C478 O480 1.263 . S
O479 Co476 1.970 . S
O479 C478 1.258 . S
O480 Co477 1.966 . S
O480 C478 1.263 . S
C481 O482 1.235 . S
C481 O508 1.289 . S
O482 C481 1.235 . S
C483 C485 1.400 . S
C483 N486 1.351 . S
C483 C488 1.501 . S
C484 C485 1.387 . S
C484 N487 1.341 . S
C485 C483 1.400 . S
C485 C484 1.387 . S
N486 Co477 2.022 1_556 S
N486 C483 1.351 . S
N486 N487 1.365 . S
N487 C484 1.341 . S
N487 N486 1.365 . S
N487 H507 0.862 . S
C488 C483 1.501 . S
C488 H489 0.961 . S
C488 H490 0.961 . S
C488 H491 0.960 . S
H489 C488 0.961 . S
H490 C488 0.961 . S
H491 C488 0.960 . S
C492 N493 1.342 . S
C492 C496 1.401 . S
C492 C497 1.499 . S
N493 Co476 1.989 . S
N493 C492 1.342 . S
N493 N494 1.388 . S
N494 Co477 1.993 . S
N494 N493 1.388 . S
N494 C495 1.346 . S
C495 N494 1.346 . S
C495 C496 1.396 . S
C495 C505 1.510 1_554 S
C496 C492 1.401 . S
C496 C495 1.396 . S
C497 C492 1.499 . S
C497 H498 0.959 . S
C497 H499 0.960 . S
C497 H500 0.961 . S
H498 C497 0.959 . S
H499 C497 0.960 . S
H500 C497 0.961 . S
O501 Co476 1.967 . S
O501 C509 1.258 . S
O502 Co477 1.941 . S
O502 C509 1.266 . S
H503 C505 0.959 . S
H504 C505 0.961 . S
C505 C495 1.510 1_556 S
C505 H503 0.959 . S
C505 H504 0.961 . S
C505 H506 0.960 . S
H506 C505 0.960 . S
H507 N487 0.862 . S
O508 Co476 1.920 . S
O508 C481 1.289 . S
C509 O501 1.258 . S
C509 O502 1.266 . S
Co510 O513 1.970 . S
Co510 N527 1.989 . S
Co510 O535 1.967 . S
Co510 O542 1.920 . S
Co511 O514 1.966 . S
Co511 N520 2.022 . S
Co511 N528 1.993 . S
Co511 O536 1.941 . S
C512 O513 1.258 . S
C512 O514 1.263 . S
O513 Co510 1.970 . S
O513 C512 1.258 . S
O514 Co511 1.966 . S
O514 C512 1.263 . S
C515 O516 1.235 . S
C515 O542 1.289 . S
O516 C515 1.235 . S
C517 C519 1.400 . S
C517 N520 1.351 . S
C517 C522 1.501 . S
C518 C519 1.387 . S
C518 N521 1.341 . S
C519 C517 1.400 . S
C519 C518 1.387 . S
N520 Co511 2.022 . S
N520 C517 1.351 . S
N520 N521 1.365 . S
N521 C518 1.341 . S
N521 N520 1.365 . S
N521 H541 0.862 . S
C522 C517 1.501 . S
C522 H523 0.961 . S
C522 H524 0.961 . S
C522 H525 0.960 . S
H523 C522 0.961 . S
H524 C522 0.961 . S
H525 C522 0.960 . S
C526 N527 1.342 . S
C526 C530 1.401 . S
C526 C531 1.499 . S
N527 Co510 1.989 . S
N527 C526 1.342 . S
N527 N528 1.388 . S
N528 Co511 1.993 . S
N528 N527 1.388 . S
N528 C529 1.346 . S
C529 N528 1.346 . S
C529 C530 1.396 . S
C529 C539 1.510 . S
C530 C526 1.401 . S
C530 C529 1.396 . S
C531 C526 1.499 . S
C531 H532 0.959 . S
C531 H533 0.960 . S
C531 H534 0.961 . S
H532 C531 0.959 . S
H533 C531 0.960 . S
H534 C531 0.961 . S
O535 Co510 1.967 . S
O535 C543 1.258 . S
O536 Co511 1.941 . S
O536 C543 1.266 . S
H537 C539 0.959 . S
H538 C539 0.961 . S
C539 C529 1.510 . S
C539 H537 0.959 . S
C539 H538 0.961 . S
C539 H540 0.960 . S
H540 C539 0.960 . S
H541 N521 0.862 . S
O542 Co510 1.920 . S
O542 C515 1.289 . S
C543 O535 1.258 . S
C543 O536 1.266 . S
Co544 O547 1.970 . S
Co544 N561 1.989 . S
Co544 O569 1.967 . S
Co544 O576 1.920 . S
Co545 O548 1.966 . S
Co545 N554 2.022 . S
Co545 N562 1.993 . S
Co545 O570 1.941 . S
C546 O547 1.258 . S
C546 O548 1.263 . S
O547 Co544 1.970 . S
O547 C546 1.258 . S
O548 Co545 1.966 . S
O548 C546 1.263 . S
C549 O550 1.235 . S
C549 O576 1.289 . S
O550 C549 1.235 . S
C551 C553 1.400 . S
C551 N554 1.351 . S
C551 C556 1.501 . S
C552 C553 1.387 . S
C552 N555 1.341 . S
C553 C551 1.400 . S
C553 C552 1.387 . S
N554 Co545 2.022 . S
N554 C551 1.351 . S
N554 N555 1.365 . S
N555 C552 1.341 . S
N555 N554 1.365 . S
N555 H575 0.862 . S
C556 C551 1.501 . S
C556 H557 0.961 . S
C556 H558 0.961 . S
C556 H559 0.960 . S
H557 C556 0.961 . S
H558 C556 0.961 . S
H559 C556 0.960 . S
C560 N561 1.342 . S
C560 C564 1.401 . S
C560 C565 1.499 . S
N561 Co544 1.989 . S
N561 C560 1.342 . S
N561 N562 1.388 . S
N562 Co545 1.993 . S
N562 N561 1.388 . S
N562 C563 1.346 . S
C563 N562 1.346 . S
C563 C564 1.396 . S
C563 C573 1.510 . S
C564 C560 1.401 . S
C564 C563 1.396 . S
C565 C560 1.499 . S
C565 H566 0.959 . S
C565 H567 0.960 . S
C565 H568 0.961 . S
H566 C565 0.959 . S
H567 C565 0.960 . S
H568 C565 0.961 . S
O569 Co544 1.967 . S
O569 C577 1.258 . S
O570 Co545 1.941 . S
O570 C577 1.266 . S
H571 C573 0.959 . S
H572 C573 0.961 . S
C573 C563 1.510 . S
C573 H571 0.959 . S
C573 H572 0.961 . S
C573 H574 0.960 . S
H574 C573 0.960 . S
H575 N555 0.862 . S
O576 Co544 1.920 . S
O576 C549 1.289 . S
C577 O569 1.258 . S
C577 O570 1.266 . S
Co578 O581 1.970 . S
Co578 N595 1.989 . S
Co578 O603 1.967 . S
Co578 O610 1.920 . S
Co579 O582 1.966 . S
Co579 N588 2.022 . S
Co579 N596 1.993 . S
Co579 O604 1.941 . S
C580 O581 1.258 . S
C580 O582 1.263 . S
O581 Co578 1.970 . S
O581 C580 1.258 . S
O582 Co579 1.966 . S
O582 C580 1.263 . S
C583 O584 1.235 . S
C583 O610 1.289 . S
O584 C583 1.235 . S
C585 C587 1.400 . S
C585 N588 1.351 . S
C585 C590 1.501 . S
C586 C587 1.387 . S
C586 N589 1.341 . S
C587 C585 1.400 . S
C587 C586 1.387 . S
N588 Co579 2.022 . S
N588 C585 1.351 . S
N588 N589 1.365 . S
N589 C586 1.341 . S
N589 N588 1.365 . S
N589 H609 0.862 . S
C590 C585 1.501 . S
C590 H591 0.961 . S
C590 H592 0.961 . S
C590 H593 0.960 . S
H591 C590 0.961 . S
H592 C590 0.961 . S
H593 C590 0.960 . S
C594 N595 1.342 . S
C594 C598 1.401 . S
C594 C599 1.499 . S
N595 Co578 1.989 . S
N595 C594 1.342 . S
N595 N596 1.388 . S
N596 Co579 1.993 . S
N596 N595 1.388 . S
N596 C597 1.346 . S
C597 N596 1.346 . S
C597 C598 1.396 . S
C597 C607 1.510 . S
C598 C594 1.401 . S
C598 C597 1.396 . S
C599 C594 1.499 . S
C599 H600 0.959 . S
C599 H601 0.960 . S
C599 H602 0.961 . S
H600 C599 0.959 . S
H601 C599 0.960 . S
H602 C599 0.961 . S
O603 Co578 1.967 . S
O603 C611 1.258 . S
O604 Co579 1.941 . S
O604 C611 1.266 . S
H605 C607 0.959 . S
H606 C607 0.961 . S
C607 C597 1.510 . S
C607 H605 0.959 . S
C607 H606 0.961 . S
C607 H608 0.960 . S
H608 C607 0.960 . S
H609 N589 0.862 . S
O610 Co578 1.920 . S
O610 C583 1.289 . S
C611 O603 1.258 . S
C611 O604 1.266 . S
H612 C620 0.929 . S
H613 C622 0.930 . S
H614 C624 0.930 . S
H615 C627 0.929 . S
H616 C630 0.930 . S
H617 C632 0.960 . S
H618 C632 0.960 . S
H619 C632 0.960 . S
C620 H612 0.929 . S
C620 C621 1.377 . S
C620 C622 1.384 . S
C621 C620 1.377 . S
C621 C627 1.390 . S
C622 H613 0.930 . S
C622 C620 1.384 . S
C622 C623 1.372 . S
C623 C622 1.372 . S
C623 C624 1.400 . S
C623 C628 1.490 . S
C624 H614 0.930 . S
C624 C623 1.400 . S
C624 C627 1.386 . S
H625 C641 0.930 . S
H626 C642 0.931 . S
C627 H615 0.929 . S
C627 C621 1.390 . S
C627 C624 1.386 . S
C628 C623 1.490 . S
C628 C630 1.395 . S
C628 C631 1.403 . S
H629 C635 0.930 . S
C630 H616 0.930 . S
C630 C628 1.395 . S
C630 C633 1.403 . S
C631 C628 1.403 . S
C631 C632 1.524 . S
C631 C635 1.400 . S
C632 H617 0.960 . S
C632 H618 0.960 . S
C632 H619 0.960 . S
C632 C631 1.524 . S
C633 C630 1.403 . S
C633 C634 1.392 . S
C633 C637 1.495 . S
C634 C633 1.392 . S
C634 C635 1.385 . S
C634 C636 1.478 . S
C635 H629 0.930 . S
C635 C631 1.400 . S
C635 C634 1.385 . S
C636 C634 1.478 . S
C636 C638 1.381 . S
C636 C642 1.383 . S
C637 C633 1.495 . S
C637 H643 0.959 . S
C637 H644 0.961 . S
C637 H645 0.960 . S
C638 C636 1.381 . S
C638 C639 1.394 . S
C638 H646 0.930 . S
C639 C638 1.394 . S
C639 C640 1.383 . S
C639 H647 0.929 . S
C640 C639 1.383 . S
C640 C641 1.377 . S
C641 H625 0.930 . S
C641 C640 1.377 . S
C641 C642 1.379 . S
C642 H626 0.931 . S
C642 C636 1.383 . S
C642 C641 1.379 . S
H643 C637 0.959 . S
H644 C637 0.961 . S
H645 C637 0.960 . S
H646 C638 0.930 . S
H647 C639 0.929 . S
H648 C656 0.929 . S
H649 C658 0.930 . S
H650 C660 0.930 . S
H651 C663 0.929 . S
H652 C666 0.930 . S
H653 C668 0.960 . S
H654 C668 0.960 . S
H655 C668 0.960 . S
C656 H648 0.929 . S
C656 C657 1.377 . S
C656 C658 1.384 . S
C657 C656 1.377 . S
C657 C663 1.390 . S
C658 H649 0.930 . S
C658 C656 1.384 . S
C658 C659 1.372 . S
C659 C658 1.372 . S
C659 C660 1.400 . S
C659 C664 1.490 . S
C660 H650 0.930 . S
C660 C659 1.400 . S
C660 C663 1.386 . S
H661 C677 0.930 . S
H662 C678 0.931 . S
C663 H651 0.929 . S
C663 C657 1.390 . S
C663 C660 1.386 . S
C664 C659 1.490 . S
C664 C666 1.395 . S
C664 C667 1.403 . S
H665 C671 0.930 . S
C666 H652 0.930 . S
C666 C664 1.395 . S
C666 C669 1.403 1_545 S
C667 C664 1.403 . S
C667 C668 1.524 . S
C667 C671 1.400 1_545 S
C668 H653 0.960 . S
C668 H654 0.960 . S
C668 H655 0.960 . S
C668 C667 1.524 . S
C669 C666 1.403 1_565 S
C669 C670 1.392 . S
C669 C673 1.495 . S
C670 C669 1.392 . S
C670 C671 1.385 . S
C670 C672 1.478 . S
C671 H665 0.930 . S
C671 C667 1.400 1_565 S
C671 C670 1.385 . S
C672 C670 1.478 . S
C672 C674 1.381 . S
C672 C678 1.383 . S
C673 C669 1.495 . S
C673 H679 0.959 . S
C673 H680 0.961 . S
C673 H681 0.960 . S
C674 C672 1.381 . S
C674 C675 1.394 . S
C674 H682 0.930 . S
C675 C674 1.394 . S
C675 C676 1.383 . S
C675 H683 0.929 . S
C676 C675 1.383 . S
C676 C677 1.377 . S
C677 H661 0.930 . S
C677 C676 1.377 . S
C677 C678 1.379 . S
C678 H662 0.931 . S
C678 C672 1.383 . S
C678 C677 1.379 . S
H679 C673 0.959 . S
H680 C673 0.961 . S
H681 C673 0.960 . S
H682 C674 0.930 . S
H683 C675 0.929 . S
H684 C692 0.929 . S
H685 C694 0.930 . S
H686 C696 0.930 . S
H687 C699 0.929 . S
H688 C702 0.930 . S
H689 C704 0.960 . S
H690 C704 0.960 . S
H691 C704 0.960 . S
C692 H684 0.929 . S
C692 C693 1.377 . S
C692 C694 1.384 . S
C693 C692 1.377 . S
C693 C699 1.390 . S
C694 H685 0.930 . S
C694 C692 1.384 . S
C694 C695 1.372 . S
C695 C694 1.372 . S
C695 C696 1.400 . S
C695 C700 1.490 . S
C696 H686 0.930 . S
C696 C695 1.400 . S
C696 C699 1.386 . S
H697 C713 0.930 . S
H698 C714 0.931 . S
C699 H687 0.929 . S
C699 C693 1.390 . S
C699 C696 1.386 . S
C700 C695 1.490 . S
C700 C702 1.395 . S
C700 C703 1.403 . S
H701 C707 0.930 . S
C702 H688 0.930 . S
C702 C700 1.395 . S
C702 C705 1.403 1_655 S
C703 C700 1.403 . S
C703 C704 1.524 . S
C703 C707 1.400 1_655 S
C704 H689 0.960 . S
C704 H690 0.960 . S
C704 H691 0.960 . S
C704 C703 1.524 . S
C705 C702 1.403 1_455 S
C705 C706 1.392 . S
C705 C709 1.495 . S
C706 C705 1.392 . S
C706 C707 1.385 . S
C706 C708 1.478 . S
C707 H701 0.930 . S
C707 C703 1.400 1_455 S
C707 C706 1.385 . S
C708 C706 1.478 . S
C708 C710 1.381 . S
C708 C714 1.383 . S
C709 C705 1.495 . S
C709 H715 0.959 . S
C709 H716 0.961 . S
C709 H717 0.960 . S
C710 C708 1.381 . S
C710 C711 1.394 . S
C710 H718 0.930 . S
C711 C710 1.394 . S
C711 C712 1.383 . S
C711 H719 0.929 . S
C712 C711 1.383 . S
C712 C713 1.377 . S
C713 H697 0.930 . S
C713 C712 1.377 . S
C713 C714 1.379 . S
C714 H698 0.931 . S
C714 C708 1.383 . S
C714 C713 1.379 . S
H715 C709 0.959 . S
H716 C709 0.961 . S
H717 C709 0.960 . S
H718 C710 0.930 . S
H719 C711 0.929 . S
H720 C728 0.929 . S
H721 C730 0.930 . S
H722 C732 0.930 . S
H723 C735 0.929 . S
H724 C738 0.930 . S
H725 C740 0.960 . S
H726 C740 0.960 . S
H727 C740 0.960 . S
C728 H720 0.929 . S
C728 C729 1.377 . S
C728 C730 1.384 . S
C729 C728 1.377 . S
C729 C735 1.390 . S
C730 H721 0.930 . S
C730 C728 1.384 . S
C730 C731 1.372 . S
C731 C730 1.372 . S
C731 C732 1.400 . S
C731 C736 1.490 . S
C732 H722 0.930 . S
C732 C731 1.400 . S
C732 C735 1.386 . S
H733 C749 0.930 . S
H734 C750 0.931 . S
C735 H723 0.929 . S
C735 C729 1.390 . S
C735 C732 1.386 . S
C736 C731 1.490 . S
C736 C738 1.395 . S
C736 C739 1.403 . S
H737 C743 0.930 . S
C738 H724 0.930 . S
C738 C736 1.395 . S
C738 C741 1.403 . S
C739 C736 1.403 . S
C739 C740 1.524 . S
C739 C743 1.400 . S
C740 H725 0.960 . S
C740 H726 0.960 . S
C740 H727 0.960 . S
C740 C739 1.524 . S
C741 C738 1.403 . S
C741 C742 1.392 . S
C741 C745 1.495 . S
C742 C741 1.392 . S
C742 C743 1.385 . S
C742 C744 1.478 . S
C743 H737 0.930 . S
C743 C739 1.400 . S
C743 C742 1.385 . S
C744 C742 1.478 . S
C744 C746 1.381 . S
C744 C750 1.383 . S
C745 C741 1.495 . S
C745 H751 0.959 . S
C745 H752 0.961 . S
C745 H753 0.960 . S
C746 C744 1.381 . S
C746 C747 1.394 . S
C746 H754 0.930 . S
C747 C746 1.394 . S
C747 C748 1.383 . S
C747 H755 0.929 . S
C748 C747 1.383 . S
C748 C749 1.377 . S
C749 H733 0.930 . S
C749 C748 1.377 . S
C749 C750 1.379 . S
C750 H734 0.931 . S
C750 C744 1.383 . S
C750 C749 1.379 . S
H751 C745 0.959 . S
H752 C745 0.961 . S
H753 C745 0.960 . S
H754 C746 0.930 . S
H755 C747 0.929 . S
H756 C764 0.929 . S
H757 C766 0.930 . S
H758 C768 0.930 . S
H759 C771 0.929 . S
H760 C774 0.930 . S
H761 C776 0.960 . S
H762 C776 0.960 . S
H763 C776 0.960 . S
C764 H756 0.929 . S
C764 C765 1.377 . S
C764 C766 1.384 . S
C765 C764 1.377 . S
C765 C771 1.390 . S
C766 H757 0.930 . S
C766 C764 1.384 . S
C766 C767 1.372 . S
C767 C766 1.372 . S
C767 C768 1.400 . S
C767 C772 1.490 . S
C768 H758 0.930 . S
C768 C767 1.400 . S
C768 C771 1.386 . S
H769 C785 0.930 . S
H770 C786 0.931 . S
C771 H759 0.929 . S
C771 C765 1.390 . S
C771 C768 1.386 . S
C772 C767 1.490 . S
C772 C774 1.395 . S
C772 C775 1.403 . S
H773 C779 0.930 . S
C774 H760 0.930 . S
C774 C772 1.395 . S
C774 C777 1.403 1_545 S
C775 C772 1.403 . S
C775 C776 1.524 . S
C775 C779 1.400 1_545 S
C776 H761 0.960 . S
C776 H762 0.960 . S
C776 H763 0.960 . S
C776 C775 1.524 . S
C777 C774 1.403 1_565 S
C777 C778 1.392 . S
C777 C781 1.495 . S
C778 C777 1.392 . S
C778 C779 1.385 . S
C778 C780 1.478 . S
C779 H773 0.930 . S
C779 C775 1.400 1_565 S
C779 C778 1.385 . S
C780 C778 1.478 . S
C780 C782 1.381 . S
C780 C786 1.383 . S
C781 C777 1.495 . S
C781 H787 0.959 . S
C781 H788 0.961 . S
C781 H789 0.960 . S
C782 C780 1.381 . S
C782 C783 1.394 . S
C782 H790 0.930 . S
C783 C782 1.394 . S
C783 C784 1.383 . S
C783 H791 0.929 . S
C784 C783 1.383 . S
C784 C785 1.377 . S
C785 H769 0.930 . S
C785 C784 1.377 . S
C785 C786 1.379 . S
C786 H770 0.931 . S
C786 C780 1.383 . S
C786 C785 1.379 . S
H787 C781 0.959 . S
H788 C781 0.961 . S
H789 C781 0.960 . S
H790 C782 0.930 . S
H791 C783 0.929 . S
H792 C800 0.929 . S
H793 C802 0.930 . S
H794 C804 0.930 . S
H795 C807 0.929 . S
H796 C810 0.930 . S
H797 C812 0.960 . S
H798 C812 0.960 . S
H799 C812 0.960 . S
C800 H792 0.929 . S
C800 C801 1.377 . S
C800 C802 1.384 . S
C801 C800 1.377 . S
C801 C807 1.390 . S
C802 H793 0.930 . S
C802 C800 1.384 . S
C802 C803 1.372 . S
C803 C802 1.372 . S
C803 C804 1.400 . S
C803 C808 1.490 . S
C804 H794 0.930 . S
C804 C803 1.400 . S
C804 C807 1.386 . S
H805 C821 0.930 . S
H806 C822 0.931 . S
C807 H795 0.929 . S
C807 C801 1.390 . S
C807 C804 1.386 . S
C808 C803 1.490 . S
C808 C810 1.395 . S
C808 C811 1.403 . S
H809 C815 0.930 . S
C810 H796 0.930 . S
C810 C808 1.395 . S
C810 C813 1.403 1_655 S
C811 C808 1.403 . S
C811 C812 1.524 . S
C811 C815 1.400 1_655 S
C812 H797 0.960 . S
C812 H798 0.960 . S
C812 H799 0.960 . S
C812 C811 1.524 . S
C813 C810 1.403 1_455 S
C813 C814 1.392 . S
C813 C817 1.495 . S
C814 C813 1.392 . S
C814 C815 1.385 . S
C814 C816 1.478 . S
C815 H809 0.930 . S
C815 C811 1.400 1_455 S
C815 C814 1.385 . S
C816 C814 1.478 . S
C816 C818 1.381 . S
C816 C822 1.383 . S
C817 C813 1.495 . S
C817 H823 0.959 . S
C817 H824 0.961 . S
C817 H825 0.960 . S
C818 C816 1.381 . S
C818 C819 1.394 . S
C818 H826 0.930 . S
C819 C818 1.394 . S
C819 C820 1.383 . S
C819 H827 0.929 . S
C820 C819 1.383 . S
C820 C821 1.377 . S
C821 H805 0.930 . S
C821 C820 1.377 . S
C821 C822 1.379 . S
C822 H806 0.931 . S
C822 C816 1.383 . S
C822 C821 1.379 . S
H823 C817 0.959 . S
H824 C817 0.961 . S
H825 C817 0.960 . S
H826 C818 0.930 . S
H827 C819 0.929 . S
H828 C836 0.929 . S
H829 C838 0.930 . S
H830 C840 0.930 . S
H831 C843 0.929 . S
H832 C846 0.930 . S
H833 C848 0.960 . S
H834 C848 0.960 . S
H835 C848 0.960 . S
C836 H828 0.929 . S
C836 C837 1.377 . S
C836 C838 1.384 . S
C837 C836 1.377 . S
C837 C843 1.390 . S
C838 H829 0.930 . S
C838 C836 1.384 . S
C838 C839 1.372 . S
C839 C838 1.372 . S
C839 C840 1.400 . S
C839 C844 1.490 . S
C840 H830 0.930 . S
C840 C839 1.400 . S
C840 C843 1.386 . S
H841 C857 0.930 . S
H842 C858 0.931 . S
C843 H831 0.929 . S
C843 C837 1.390 . S
C843 C840 1.386 . S
C844 C839 1.490 . S
C844 C846 1.395 . S
C844 C847 1.403 . S
H845 C851 0.930 . S
C846 H832 0.930 . S
C846 C844 1.395 . S
C846 C849 1.403 . S
C847 C844 1.403 . S
C847 C848 1.524 . S
C847 C851 1.400 . S
C848 H833 0.960 . S
C848 H834 0.960 . S
C848 H835 0.960 . S
C848 C847 1.524 . S
C849 C846 1.403 . S
C849 C850 1.392 . S
C849 C853 1.495 . S
C850 C849 1.392 . S
C850 C851 1.385 . S
C850 C852 1.478 . S
C851 H845 0.930 . S
C851 C847 1.400 . S
C851 C850 1.385 . S
C852 C850 1.478 . S
C852 C854 1.381 . S
C852 C858 1.383 . S
C853 C849 1.495 . S
C853 H859 0.959 . S
C853 H860 0.961 . S
C853 H861 0.960 . S
C854 C852 1.381 . S
C854 C855 1.394 . S
C854 H862 0.930 . S
C855 C854 1.394 . S
C855 C856 1.383 . S
C855 H863 0.929 . S
C856 C855 1.383 . S
C856 C857 1.377 . S
C857 H841 0.930 . S
C857 C856 1.377 . S
C857 C858 1.379 . S
C858 H842 0.931 . S
C858 C852 1.383 . S
C858 C857 1.379 . S
H859 C853 0.959 . S
H860 C853 0.961 . S
H861 C853 0.960 . S
H862 C854 0.930 . S
H863 C855 0.929 . S
H864 C872 0.929 . S
H865 C874 0.930 . S
H866 C876 0.930 . S
H867 C879 0.929 . S
H868 C882 0.930 . S
H869 C884 0.960 . S
H870 C884 0.960 . S
H871 C884 0.960 . S
C872 H864 0.929 . S
C872 C873 1.377 . S
C872 C874 1.384 . S
C873 C872 1.377 . S
C873 C879 1.390 . S
C874 H865 0.930 . S
C874 C872 1.384 . S
C874 C875 1.372 . S
C875 C874 1.372 . S
C875 C876 1.400 . S
C875 C880 1.490 . S
C876 H866 0.930 . S
C876 C875 1.400 . S
C876 C879 1.386 . S
H877 C893 0.930 . S
H878 C894 0.931 . S
C879 H867 0.929 . S
C879 C873 1.390 . S
C879 C876 1.386 . S
C880 C875 1.490 . S
C880 C882 1.395 . S
C880 C883 1.403 . S
H881 C887 0.930 . S
C882 H868 0.930 . S
C882 C880 1.395 . S
C882 C885 1.403 . S
C883 C880 1.403 . S
C883 C884 1.524 . S
C883 C887 1.400 . S
C884 H869 0.960 . S
C884 H870 0.960 . S
C884 H871 0.960 . S
C884 C883 1.524 . S
C885 C882 1.403 . S
C885 C886 1.392 . S
C885 C889 1.495 . S
C886 C885 1.392 . S
C886 C887 1.385 . S
C886 C888 1.478 . S
C887 H881 0.930 . S
C887 C883 1.400 . S
C887 C886 1.385 . S
C888 C886 1.478 . S
C888 C890 1.381 . S
C888 C894 1.383 . S
C889 C885 1.495 . S
C889 H895 0.959 . S
C889 H896 0.961 . S
C889 H897 0.960 . S
C890 C888 1.381 . S
C890 C891 1.394 . S
C890 H898 0.930 . S
C891 C890 1.394 . S
C891 C892 1.383 . S
C891 H899 0.929 . S
C892 C891 1.383 . S
C892 C893 1.377 . S
C893 H877 0.930 . S
C893 C892 1.377 . S
C893 C894 1.379 . S
C894 H878 0.931 . S
C894 C888 1.383 . S
C894 C893 1.379 . S
H895 C889 0.959 . S
H896 C889 0.961 . S
H897 C889 0.960 . S
H898 C890 0.930 . S
H899 C891 0.929 . S
H900 C908 0.929 . S
H901 C910 0.930 . S
H902 C912 0.930 . S
H903 C915 0.929 . S
H904 C918 0.930 . S
H905 C920 0.960 . S
H906 C920 0.960 . S
H907 C920 0.960 . S
C908 H900 0.929 . S
C908 C909 1.377 . S
C908 C910 1.384 . S
C909 C908 1.377 . S
C909 C915 1.390 . S
C910 H901 0.930 . S
C910 C908 1.384 . S
C910 C911 1.372 . S
C911 C910 1.372 . S
C911 C912 1.400 . S
C911 C916 1.490 . S
C912 H902 0.930 . S
C912 C911 1.400 . S
C912 C915 1.386 . S
H913 C929 0.930 . S
H914 C930 0.931 . S
C915 H903 0.929 . S
C915 C909 1.390 . S
C915 C912 1.386 . S
C916 C911 1.490 . S
C916 C918 1.395 . S
C916 C919 1.403 . S
H917 C923 0.930 . S
C918 H904 0.930 . S
C918 C916 1.395 . S
C918 C921 1.403 . S
C919 C916 1.403 . S
C919 C920 1.524 . S
C919 C923 1.400 . S
C920 H905 0.960 . S
C920 H906 0.960 . S
C920 H907 0.960 . S
C920 C919 1.524 . S
C921 C918 1.403 . S
C921 C922 1.392 . S
C921 C925 1.495 . S
C922 C921 1.392 . S
C922 C923 1.385 . S
C922 C924 1.478 . S
C923 H917 0.930 . S
C923 C919 1.400 . S
C923 C922 1.385 . S
C924 C922 1.478 . S
C924 C926 1.381 . S
C924 C930 1.383 . S
C925 C921 1.495 . S
C925 H931 0.959 . S
C925 H932 0.961 . S
C925 H933 0.960 . S
C926 C924 1.381 . S
C926 C927 1.394 . S
C926 H934 0.930 . S
C927 C926 1.394 . S
C927 C928 1.383 . S
C927 H935 0.929 . S
C928 C927 1.383 . S
C928 C929 1.377 . S
C929 H913 0.930 . S
C929 C928 1.377 . S
C929 C930 1.379 . S
C930 H914 0.931 . S
C930 C924 1.383 . S
C930 C929 1.379 . S
H931 C925 0.959 . S
H932 C925 0.961 . S
H933 C925 0.960 . S
H934 C926 0.930 . S
H935 C927 0.929 . S
H936 C944 0.929 . S
H937 C946 0.930 . S
H938 C948 0.930 . S
H939 C951 0.929 . S
H940 C954 0.930 . S
H941 C956 0.960 . S
H942 C956 0.960 . S
H943 C956 0.960 . S
C944 H936 0.929 . S
C944 C945 1.377 . S
C944 C946 1.384 . S
C945 C944 1.377 . S
C945 C951 1.390 . S
C946 H937 0.930 . S
C946 C944 1.384 . S
C946 C947 1.372 . S
C947 C946 1.372 . S
C947 C948 1.400 . S
C947 C952 1.490 . S
C948 H938 0.930 . S
C948 C947 1.400 . S
C948 C951 1.386 . S
H949 C965 0.930 . S
H950 C966 0.931 . S
C951 H939 0.929 . S
C951 C945 1.390 . S
C951 C948 1.386 . S
C952 C947 1.490 . S
C952 C954 1.395 . S
C952 C955 1.403 . S
H953 C959 0.930 . S
C954 H940 0.930 . S
C954 C952 1.395 . S
C954 C957 1.403 . S
C955 C952 1.403 . S
C955 C956 1.524 . S
C955 C959 1.400 . S
C956 H941 0.960 . S
C956 H942 0.960 . S
C956 H943 0.960 . S
C956 C955 1.524 . S
C957 C954 1.403 . S
C957 C958 1.392 . S
C957 C961 1.495 . S
C958 C957 1.392 . S
C958 C959 1.385 . S
C958 C960 1.478 . S
C959 H953 0.930 . S
C959 C955 1.400 . S
C959 C958 1.385 . S
C960 C958 1.478 . S
C960 C962 1.381 . S
C960 C966 1.383 . S
C961 C957 1.495 . S
C961 H967 0.959 . S
C961 H968 0.961 . S
C961 H969 0.960 . S
C962 C960 1.381 . S
C962 C963 1.394 . S
C962 H970 0.930 . S
C963 C962 1.394 . S
C963 C964 1.383 . S
C963 H971 0.929 . S
C964 C963 1.383 . S
C964 C965 1.377 . S
C965 H949 0.930 . S
C965 C964 1.377 . S
C965 C966 1.379 . S
C966 H950 0.931 . S
C966 C960 1.383 . S
C966 C965 1.379 . S
H967 C961 0.959 . S
H968 C961 0.961 . S
H969 C961 0.960 . S
H970 C962 0.930 . S
H971 C963 0.929 . S
H972 C980 0.929 . S
H973 C982 0.930 . S
H974 C984 0.930 . S
H975 C987 0.929 . S
H976 C990 0.930 . S
H977 C992 0.960 . S
H978 C992 0.960 . S
H979 C992 0.960 . S
C980 H972 0.929 . S
C980 C981 1.377 . S
C980 C982 1.384 . S
C981 C980 1.377 . S
C981 C987 1.390 . S
C982 H973 0.930 . S
C982 C980 1.384 . S
C982 C983 1.372 . S
C983 C982 1.372 . S
C983 C984 1.400 . S
C983 C988 1.490 . S
C984 H974 0.930 . S
C984 C983 1.400 . S
C984 C987 1.386 . S
H985 C1001 0.930 . S
H986 C1002 0.931 . S
C987 H975 0.929 . S
C987 C981 1.390 . S
C987 C984 1.386 . S
C988 C983 1.490 . S
C988 C990 1.395 . S
C988 C991 1.403 . S
H989 C995 0.930 . S
C990 H976 0.930 . S
C990 C988 1.395 . S
C990 C993 1.403 . S
C991 C988 1.403 . S
C991 C992 1.524 . S
C991 C995 1.400 . S
C992 H977 0.960 . S
C992 H978 0.960 . S
C992 H979 0.960 . S
C992 C991 1.524 . S
C993 C990 1.403 . S
C993 C994 1.392 . S
C993 C997 1.495 . S
C994 C993 1.392 . S
C994 C995 1.385 . S
C994 C996 1.478 . S
C995 H989 0.930 . S
C995 C991 1.400 . S
C995 C994 1.385 . S
C996 C994 1.478 . S
C996 C998 1.381 . S
C996 C1002 1.383 . S
C997 C993 1.495 . S
C997 H1003 0.959 . S
C997 H1004 0.961 . S
C997 H1005 0.960 . S
C998 C996 1.381 . S
C998 C999 1.394 . S
C998 H1006 0.930 . S
C999 C998 1.394 . S
C999 C1000 1.383 . S
C999 H1007 0.929 . S
C1000 C999 1.383 . S
C1000 C1001 1.377 . S
C1001 H985 0.930 . S
C1001 C1000 1.377 . S
C1001 C1002 1.379 . S
C1002 H986 0.931 . S
C1002 C996 1.383 . S
C1002 C1001 1.379 . S
H1003 C997 0.959 . S
H1004 C997 0.961 . S
H1005 C997 0.960 . S
H1006 C998 0.930 . S
H1007 C999 0.929 . S
H1008 C1016 0.929 . S
H1009 C1018 0.930 . S
H1010 C1020 0.930 . S
H1011 C1023 0.929 . S
H1012 C1026 0.930 . S
H1013 C1028 0.960 . S
H1014 C1028 0.960 . S
H1015 C1028 0.960 . S
C1016 H1008 0.929 . S
C1016 C1017 1.377 . S
C1016 C1018 1.384 . S
C1017 C1016 1.377 . S
C1017 C1023 1.390 . S
C1018 H1009 0.930 . S
C1018 C1016 1.384 . S
C1018 C1019 1.372 . S
C1019 C1018 1.372 . S
C1019 C1020 1.400 . S
C1019 C1024 1.490 . S
C1020 H1010 0.930 . S
C1020 C1019 1.400 . S
C1020 C1023 1.386 . S
H1021 C1037 0.930 . S
H1022 C1038 0.931 . S
C1023 H1011 0.929 . S
C1023 C1017 1.390 . S
C1023 C1020 1.386 . S
C1024 C1019 1.490 . S
C1024 C1026 1.395 . S
C1024 C1027 1.403 . S
H1025 C1031 0.930 . S
C1026 H1012 0.930 . S
C1026 C1024 1.395 . S
C1026 C1029 1.403 . S
C1027 C1024 1.403 . S
C1027 C1028 1.524 . S
C1027 C1031 1.400 . S
C1028 H1013 0.960 . S
C1028 H1014 0.960 . S
C1028 H1015 0.960 . S
C1028 C1027 1.524 . S
C1029 C1026 1.403 . S
C1029 C1030 1.392 . S
C1029 C1033 1.495 . S
C1030 C1029 1.392 . S
C1030 C1031 1.385 . S
C1030 C1032 1.478 . S
C1031 H1025 0.930 . S
C1031 C1027 1.400 . S
C1031 C1030 1.385 . S
C1032 C1030 1.478 . S
C1032 C1034 1.381 . S
C1032 C1038 1.383 . S
C1033 C1029 1.495 . S
C1033 H1039 0.959 . S
C1033 H1040 0.961 . S
C1033 H1041 0.960 . S
C1034 C1032 1.381 . S
C1034 C1035 1.394 . S
C1034 H1042 0.930 . S
C1035 C1034 1.394 . S
C1035 C1036 1.383 . S
C1035 H1043 0.929 . S
C1036 C1035 1.383 . S
C1036 C1037 1.377 . S
C1037 H1021 0.930 . S
C1037 C1036 1.377 . S
C1037 C1038 1.379 . S
C1038 H1022 0.931 . S
C1038 C1032 1.383 . S
C1038 C1037 1.379 . S
H1039 C1033 0.959 . S
H1040 C1033 0.961 . S
H1041 C1033 0.960 . S
H1042 C1034 0.930 . S
H1043 C1035 0.929 . S
H1044 C1052 0.929 . S
H1045 C1054 0.930 . S
H1046 C1056 0.930 . S
H1047 C1059 0.929 . S
H1048 C1062 0.930 . S
H1049 C1064 0.960 . S
H1050 C1064 0.960 . S
H1051 C1064 0.960 . S
C1052 H1044 0.929 . S
C1052 C1053 1.377 . S
C1052 C1054 1.384 . S
C1053 C1052 1.377 . S
C1053 C1059 1.390 . S
C1054 H1045 0.930 . S
C1054 C1052 1.384 . S
C1054 C1055 1.372 . S
C1055 C1054 1.372 . S
C1055 C1056 1.400 . S
C1055 C1060 1.490 . S
C1056 H1046 0.930 . S
C1056 C1055 1.400 . S
C1056 C1059 1.386 . S
H1057 C1073 0.930 . S
H1058 C1074 0.931 . S
C1059 H1047 0.929 . S
C1059 C1053 1.390 . S
C1059 C1056 1.386 . S
C1060 C1055 1.490 . S
C1060 C1062 1.395 . S
C1060 C1063 1.403 . S
H1061 C1067 0.930 . S
C1062 H1048 0.930 . S
C1062 C1060 1.395 . S
C1062 C1065 1.403 . S
C1063 C1060 1.403 . S
C1063 C1064 1.524 . S
C1063 C1067 1.400 . S
C1064 H1049 0.960 . S
C1064 H1050 0.960 . S
C1064 H1051 0.960 . S
C1064 C1063 1.524 . S
C1065 C1062 1.403 . S
C1065 C1066 1.392 . S
C1065 C1069 1.495 . S
C1066 C1065 1.392 . S
C1066 C1067 1.385 . S
C1066 C1068 1.478 . S
C1067 H1061 0.930 . S
C1067 C1063 1.400 . S
C1067 C1066 1.385 . S
C1068 C1066 1.478 . S
C1068 C1070 1.381 . S
C1068 C1074 1.383 . S
C1069 C1065 1.495 . S
C1069 H1075 0.959 . S
C1069 H1076 0.961 . S
C1069 H1077 0.960 . S
C1070 C1068 1.381 . S
C1070 C1071 1.394 . S
C1070 H1078 0.930 . S
C1071 C1070 1.394 . S
C1071 C1072 1.383 . S
C1071 H1079 0.929 . S
C1072 C1071 1.383 . S
C1072 C1073 1.377 . S
C1073 H1057 0.930 . S
C1073 C1072 1.377 . S
C1073 C1074 1.379 . S
C1074 H1058 0.931 . S
C1074 C1068 1.383 . S
C1074 C1073 1.379 . S
H1075 C1069 0.959 . S
H1076 C1069 0.961 . S
H1077 C1069 0.960 . S
H1078 C1070 0.930 . S
H1079 C1071 0.929 . S
H1080 C1088 0.929 . S
H1081 C1090 0.930 . S
H1082 C1092 0.930 . S
H1083 C1095 0.929 . S
H1084 C1098 0.930 . S
H1085 C1100 0.960 . S
H1086 C1100 0.960 . S
H1087 C1100 0.960 . S
C1088 H1080 0.929 . S
C1088 C1089 1.377 . S
C1088 C1090 1.384 . S
C1089 C1088 1.377 . S
C1089 C1095 1.390 . S
C1090 H1081 0.930 . S
C1090 C1088 1.384 . S
C1090 C1091 1.372 . S
C1091 C1090 1.372 . S
C1091 C1092 1.400 . S
C1091 C1096 1.490 . S
C1092 H1082 0.930 . S
C1092 C1091 1.400 . S
C1092 C1095 1.386 . S
H1093 C1109 0.930 . S
H1094 C1110 0.931 . S
C1095 H1083 0.929 . S
C1095 C1089 1.390 . S
C1095 C1092 1.386 . S
C1096 C1091 1.490 . S
C1096 C1098 1.395 . S
C1096 C1099 1.403 . S
H1097 C1103 0.930 . S
C1098 H1084 0.930 . S
C1098 C1096 1.395 . S
C1098 C1101 1.403 . S
C1099 C1096 1.403 . S
C1099 C1100 1.524 . S
C1099 C1103 1.400 . S
C1100 H1085 0.960 . S
C1100 H1086 0.960 . S
C1100 H1087 0.960 . S
C1100 C1099 1.524 . S
C1101 C1098 1.403 . S
C1101 C1102 1.392 . S
C1101 C1105 1.495 . S
C1102 C1101 1.392 . S
C1102 C1103 1.385 . S
C1102 C1104 1.478 . S
C1103 H1097 0.930 . S
C1103 C1099 1.400 . S
C1103 C1102 1.385 . S
C1104 C1102 1.478 . S
C1104 C1106 1.381 . S
C1104 C1110 1.383 . S
C1105 C1101 1.495 . S
C1105 H1111 0.959 . S
C1105 H1112 0.961 . S
C1105 H1113 0.960 . S
C1106 C1104 1.381 . S
C1106 C1107 1.394 . S
C1106 H1114 0.930 . S
C1107 C1106 1.394 . S
C1107 C1108 1.383 . S
C1107 H1115 0.929 . S
C1108 C1107 1.383 . S
C1108 C1109 1.377 . S
C1109 H1093 0.930 . S
C1109 C1108 1.377 . S
C1109 C1110 1.379 . S
C1110 H1094 0.931 . S
C1110 C1104 1.383 . S
C1110 C1109 1.379 . S
H1111 C1105 0.959 . S
H1112 C1105 0.961 . S
H1113 C1105 0.960 . S
H1114 C1106 0.930 . S
H1115 C1107 0.929 . S
H1116 C1124 0.929 . S
H1117 C1126 0.930 . S
H1118 C1128 0.930 . S
H1119 C1131 0.929 . S
H1120 C1134 0.930 . S
H1121 C1136 0.960 . S
H1122 C1136 0.960 . S
H1123 C1136 0.960 . S
C1124 H1116 0.929 . S
C1124 C1125 1.377 . S
C1124 C1126 1.384 . S
C1125 C1124 1.377 . S
C1125 C1131 1.390 . S
C1126 H1117 0.930 . S
C1126 C1124 1.384 . S
C1126 C1127 1.372 . S
C1127 C1126 1.372 . S
C1127 C1128 1.400 . S
C1127 C1132 1.490 . S
C1128 H1118 0.930 . S
C1128 C1127 1.400 . S
C1128 C1131 1.386 . S
H1129 C1145 0.930 . S
H1130 C1146 0.931 . S
C1131 H1119 0.929 . S
C1131 C1125 1.390 . S
C1131 C1128 1.386 . S
C1132 C1127 1.490 . S
C1132 C1134 1.395 . S
C1132 C1135 1.403 . S
H1133 C1139 0.930 . S
C1134 H1120 0.930 . S
C1134 C1132 1.395 . S
C1134 C1137 1.403 . S
C1135 C1132 1.403 . S
C1135 C1136 1.524 . S
C1135 C1139 1.400 . S
C1136 H1121 0.960 . S
C1136 H1122 0.960 . S
C1136 H1123 0.960 . S
C1136 C1135 1.524 . S
C1137 C1134 1.403 . S
C1137 C1138 1.392 . S
C1137 C1141 1.495 . S
C1138 C1137 1.392 . S
C1138 C1139 1.385 . S
C1138 C1140 1.478 . S
C1139 H1133 0.930 . S
C1139 C1135 1.400 . S
C1139 C1138 1.385 . S
C1140 C1138 1.478 . S
C1140 C1142 1.381 . S
C1140 C1146 1.383 . S
C1141 C1137 1.495 . S
C1141 H1147 0.959 . S
C1141 H1148 0.961 . S
C1141 H1149 0.960 . S
C1142 C1140 1.381 . S
C1142 C1143 1.394 . S
C1142 H1150 0.930 . S
C1143 C1142 1.394 . S
C1143 C1144 1.383 . S
C1143 H1151 0.929 . S
C1144 C1143 1.383 . S
C1144 C1145 1.377 . S
C1145 H1129 0.930 . S
C1145 C1144 1.377 . S
C1145 C1146 1.379 . S
C1146 H1130 0.931 . S
C1146 C1140 1.383 . S
C1146 C1145 1.379 . S
H1147 C1141 0.959 . S
H1148 C1141 0.961 . S
H1149 C1141 0.960 . S
H1150 C1142 0.930 . S
H1151 C1143 0.929 . S
H1152 C1160 0.929 . S
H1153 C1162 0.930 . S
H1154 C1164 0.930 . S
H1155 C1167 0.929 . S
H1156 C1170 0.930 . S
H1157 C1172 0.960 . S
H1158 C1172 0.960 . S
H1159 C1172 0.960 . S
C1160 H1152 0.929 . S
C1160 C1161 1.377 . S
C1160 C1162 1.384 . S
C1161 C1160 1.377 . S
C1161 C1167 1.390 . S
C1162 H1153 0.930 . S
C1162 C1160 1.384 . S
C1162 C1163 1.372 . S
C1163 C1162 1.372 . S
C1163 C1164 1.400 . S
C1163 C1168 1.490 . S
C1164 H1154 0.930 . S
C1164 C1163 1.400 . S
C1164 C1167 1.386 . S
H1165 C1181 0.930 . S
H1166 C1182 0.931 . S
C1167 H1155 0.929 . S
C1167 C1161 1.390 . S
C1167 C1164 1.386 . S
C1168 C1163 1.490 . S
C1168 C1170 1.395 . S
C1168 C1171 1.403 . S
H1169 C1175 0.930 . S
C1170 H1156 0.930 . S
C1170 C1168 1.395 . S
C1170 C1173 1.403 . S
C1171 C1168 1.403 . S
C1171 C1172 1.524 . S
C1171 C1175 1.400 . S
C1172 H1157 0.960 . S
C1172 H1158 0.960 . S
C1172 H1159 0.960 . S
C1172 C1171 1.524 . S
C1173 C1170 1.403 . S
C1173 C1174 1.392 . S
C1173 C1177 1.495 . S
C1174 C1173 1.392 . S
C1174 C1175 1.385 . S
C1174 C1176 1.478 . S
C1175 H1169 0.930 . S
C1175 C1171 1.400 . S
C1175 C1174 1.385 . S
C1176 C1174 1.478 . S
C1176 C1178 1.381 . S
C1176 C1182 1.383 . S
C1177 C1173 1.495 . S
C1177 H1183 0.959 . S
C1177 H1184 0.961 . S
C1177 H1185 0.960 . S
C1178 C1176 1.381 . S
C1178 C1179 1.394 . S
C1178 H1186 0.930 . S
C1179 C1178 1.394 . S
C1179 C1180 1.383 . S
C1179 H1187 0.929 . S
C1180 C1179 1.383 . S
C1180 C1181 1.377 . S
C1181 H1165 0.930 . S
C1181 C1180 1.377 . S
C1181 C1182 1.379 . S
C1182 H1166 0.931 . S
C1182 C1176 1.383 . S
C1182 C1181 1.379 . S
H1183 C1177 0.959 . S
H1184 C1177 0.961 . S
H1185 C1177 0.960 . S
H1186 C1178 0.930 . S
H1187 C1179 0.929 . S
H1188 C1196 0.929 . S
H1189 C1198 0.930 . S
H1190 C1200 0.930 . S
H1191 C1203 0.929 . S
H1192 C1206 0.930 . S
H1193 C1208 0.960 . S
H1194 C1208 0.960 . S
H1195 C1208 0.960 . S
C1196 H1188 0.929 . S
C1196 C1197 1.377 . S
C1196 C1198 1.384 . S
C1197 C1196 1.377 . S
C1197 C1203 1.390 . S
C1198 H1189 0.930 . S
C1198 C1196 1.384 . S
C1198 C1199 1.372 . S
C1199 C1198 1.372 . S
C1199 C1200 1.400 . S
C1199 C1204 1.490 . S
C1200 H1190 0.930 . S
C1200 C1199 1.400 . S
C1200 C1203 1.386 . S
H1201 C1217 0.930 . S
H1202 C1218 0.931 . S
C1203 H1191 0.929 . S
C1203 C1197 1.390 . S
C1203 C1200 1.386 . S
C1204 C1199 1.490 . S
C1204 C1206 1.395 . S
C1204 C1207 1.403 . S
H1205 C1211 0.930 . S
C1206 H1192 0.930 . S
C1206 C1204 1.395 . S
C1206 C1209 1.403 . S
C1207 C1204 1.403 . S
C1207 C1208 1.524 . S
C1207 C1211 1.400 . S
C1208 H1193 0.960 . S
C1208 H1194 0.960 . S
C1208 H1195 0.960 . S
C1208 C1207 1.524 . S
C1209 C1206 1.403 . S
C1209 C1210 1.392 . S
C1209 C1213 1.495 . S
C1210 C1209 1.392 . S
C1210 C1211 1.385 . S
C1210 C1212 1.478 . S
C1211 H1205 0.930 . S
C1211 C1207 1.400 . S
C1211 C1210 1.385 . S
C1212 C1210 1.478 . S
C1212 C1214 1.381 . S
C1212 C1218 1.383 . S
C1213 C1209 1.495 . S
C1213 H1219 0.959 . S
C1213 H1220 0.961 . S
C1213 H1221 0.960 . S
C1214 C1212 1.381 . S
C1214 C1215 1.394 . S
C1214 H1222 0.930 . S
C1215 C1214 1.394 . S
C1215 C1216 1.383 . S
C1215 H1223 0.929 . S
C1216 C1215 1.383 . S
C1216 C1217 1.377 . S
C1217 H1201 0.930 . S
C1217 C1216 1.377 . S
C1217 C1218 1.379 . S
C1218 H1202 0.931 . S
C1218 C1212 1.383 . S
C1218 C1217 1.379 . S
H1219 C1213 0.959 . S
H1220 C1213 0.961 . S
H1221 C1213 0.960 . S
H1222 C1214 0.930 . S
H1223 C1215 0.929 . S
H1224 C1232 0.929 . S
H1225 C1234 0.930 . S
H1226 C1236 0.930 . S
H1227 C1239 0.929 . S
H1228 C1242 0.930 . S
H1229 C1244 0.960 . S
H1230 C1244 0.960 . S
H1231 C1244 0.960 . S
C1232 H1224 0.929 . S
C1232 C1233 1.377 . S
C1232 C1234 1.384 . S
C1233 C1232 1.377 . S
C1233 C1239 1.390 . S
C1234 H1225 0.930 . S
C1234 C1232 1.384 . S
C1234 C1235 1.372 . S
C1235 C1234 1.372 . S
C1235 C1236 1.400 . S
C1235 C1240 1.490 . S
C1236 H1226 0.930 . S
C1236 C1235 1.400 . S
C1236 C1239 1.386 . S
H1237 C1253 0.930 . S
H1238 C1254 0.931 . S
C1239 H1227 0.929 . S
C1239 C1233 1.390 . S
C1239 C1236 1.386 . S
C1240 C1235 1.490 . S
C1240 C1242 1.395 . S
C1240 C1243 1.403 . S
H1241 C1247 0.930 . S
C1242 H1228 0.930 . S
C1242 C1240 1.395 . S
C1242 C1245 1.403 . S
C1243 C1240 1.403 . S
C1243 C1244 1.524 . S
C1243 C1247 1.400 . S
C1244 H1229 0.960 . S
C1244 H1230 0.960 . S
C1244 H1231 0.960 . S
C1244 C1243 1.524 . S
C1245 C1242 1.403 . S
C1245 C1246 1.392 . S
C1245 C1249 1.495 . S
C1246 C1245 1.392 . S
C1246 C1247 1.385 . S
C1246 C1248 1.478 . S
C1247 H1241 0.930 . S
C1247 C1243 1.400 . S
C1247 C1246 1.385 . S
C1248 C1246 1.478 . S
C1248 C1250 1.381 . S
C1248 C1254 1.383 . S
C1249 C1245 1.495 . S
C1249 H1255 0.959 . S
C1249 H1256 0.961 . S
C1249 H1257 0.960 . S
C1250 C1248 1.381 . S
C1250 C1251 1.394 . S
C1250 H1258 0.930 . S
C1251 C1250 1.394 . S
C1251 C1252 1.383 . S
C1251 H1259 0.929 . S
C1252 C1251 1.383 . S
C1252 C1253 1.377 . S
C1253 H1237 0.930 . S
C1253 C1252 1.377 . S
C1253 C1254 1.379 . S
C1254 H1238 0.931 . S
C1254 C1248 1.383 . S
C1254 C1253 1.379 . S
H1255 C1249 0.959 . S
H1256 C1249 0.961 . S
H1257 C1249 0.960 . S
H1258 C1250 0.930 . S
H1259 C1251 0.929 . S
H1260 C1268 0.929 . S
H1261 C1270 0.930 . S
H1262 C1272 0.930 . S
H1263 C1275 0.929 . S
H1264 C1278 0.930 . S
H1265 C1280 0.960 . S
H1266 C1280 0.960 . S
H1267 C1280 0.960 . S
C1268 H1260 0.929 . S
C1268 C1269 1.377 . S
C1268 C1270 1.384 . S
C1269 C1268 1.377 . S
C1269 C1275 1.390 . S
C1270 H1261 0.930 . S
C1270 C1268 1.384 . S
C1270 C1271 1.372 . S
C1271 C1270 1.372 . S
C1271 C1272 1.400 . S
C1271 C1276 1.490 . S
C1272 H1262 0.930 . S
C1272 C1271 1.400 . S
C1272 C1275 1.386 . S
H1273 C1289 0.930 . S
H1274 C1290 0.931 . S
C1275 H1263 0.929 . S
C1275 C1269 1.390 . S
C1275 C1272 1.386 . S
C1276 C1271 1.490 . S
C1276 C1278 1.395 . S
C1276 C1279 1.403 . S
H1277 C1283 0.930 . S
C1278 H1264 0.930 . S
C1278 C1276 1.395 . S
C1278 C1281 1.403 . S
C1279 C1276 1.403 . S
C1279 C1280 1.524 . S
C1279 C1283 1.400 . S
C1280 H1265 0.960 . S
C1280 H1266 0.960 . S
C1280 H1267 0.960 . S
C1280 C1279 1.524 . S
C1281 C1278 1.403 . S
C1281 C1282 1.392 . S
C1281 C1285 1.495 . S
C1282 C1281 1.392 . S
C1282 C1283 1.385 . S
C1282 C1284 1.478 . S
C1283 H1277 0.930 . S
C1283 C1279 1.400 . S
C1283 C1282 1.385 . S
C1284 C1282 1.478 . S
C1284 C1286 1.381 . S
C1284 C1290 1.383 . S
C1285 C1281 1.495 . S
C1285 H1291 0.959 . S
C1285 H1292 0.961 . S
C1285 H1293 0.960 . S
C1286 C1284 1.381 . S
C1286 C1287 1.394 . S
C1286 H1294 0.930 . S
C1287 C1286 1.394 . S
C1287 C1288 1.383 . S
C1287 H1295 0.929 . S
C1288 C1287 1.383 . S
C1288 C1289 1.377 . S
C1289 H1273 0.930 . S
C1289 C1288 1.377 . S
C1289 C1290 1.379 . S
C1290 H1274 0.931 . S
C1290 C1284 1.383 . S
C1290 C1289 1.379 . S
H1291 C1285 0.959 . S
H1292 C1285 0.961 . S
H1293 C1285 0.960 . S
H1294 C1286 0.930 . S
H1295 C1287 0.929 . S
H1296 C1304 0.929 . S
H1297 C1306 0.930 . S
H1298 C1308 0.930 . S
H1299 C1311 0.929 . S
H1300 C1314 0.930 . S
H1301 C1316 0.960 . S
H1302 C1316 0.960 . S
H1303 C1316 0.960 . S
C1304 H1296 0.929 . S
C1304 C1305 1.377 . S
C1304 C1306 1.384 . S
C1305 C1304 1.377 . S
C1305 C1311 1.390 . S
C1306 H1297 0.930 . S
C1306 C1304 1.384 . S
C1306 C1307 1.372 . S
C1307 C1306 1.372 . S
C1307 C1308 1.400 . S
C1307 C1312 1.490 . S
C1308 H1298 0.930 . S
C1308 C1307 1.400 . S
C1308 C1311 1.386 . S
H1309 C1325 0.930 . S
H1310 C1326 0.931 . S
C1311 H1299 0.929 . S
C1311 C1305 1.390 . S
C1311 C1308 1.386 . S
C1312 C1307 1.490 . S
C1312 C1314 1.395 . S
C1312 C1315 1.403 . S
H1313 C1319 0.930 . S
C1314 H1300 0.930 . S
C1314 C1312 1.395 . S
C1314 C1317 1.403 . S
C1315 C1312 1.403 . S
C1315 C1316 1.524 . S
C1315 C1319 1.400 . S
C1316 H1301 0.960 . S
C1316 H1302 0.960 . S
C1316 H1303 0.960 . S
C1316 C1315 1.524 . S
C1317 C1314 1.403 . S
C1317 C1318 1.392 . S
C1317 C1321 1.495 . S
C1318 C1317 1.392 . S
C1318 C1319 1.385 . S
C1318 C1320 1.478 . S
C1319 H1313 0.930 . S
C1319 C1315 1.400 . S
C1319 C1318 1.385 . S
C1320 C1318 1.478 . S
C1320 C1322 1.381 . S
C1320 C1326 1.383 . S
C1321 C1317 1.495 . S
C1321 H1327 0.959 . S
C1321 H1328 0.961 . S
C1321 H1329 0.960 . S
C1322 C1320 1.381 . S
C1322 C1323 1.394 . S
C1322 H1330 0.930 . S
C1323 C1322 1.394 . S
C1323 C1324 1.383 . S
C1323 H1331 0.929 . S
C1324 C1323 1.383 . S
C1324 C1325 1.377 . S
C1325 H1309 0.930 . S
C1325 C1324 1.377 . S
C1325 C1326 1.379 . S
C1326 H1310 0.931 . S
C1326 C1320 1.383 . S
C1326 C1325 1.379 . S
H1327 C1321 0.959 . S
H1328 C1321 0.961 . S
H1329 C1321 0.960 . S
H1330 C1322 0.930 . S
H1331 C1323 0.929 . S
H1332 C1340 0.929 . S
H1333 C1342 0.930 . S
H1334 C1344 0.930 . S
H1335 C1347 0.929 . S
H1336 C1350 0.930 . S
H1337 C1352 0.960 . S
H1338 C1352 0.960 . S
H1339 C1352 0.960 . S
C1340 H1332 0.929 . S
C1340 C1341 1.377 . S
C1340 C1342 1.384 . S
C1341 C1340 1.377 . S
C1341 C1347 1.390 . S
C1342 H1333 0.930 . S
C1342 C1340 1.384 . S
C1342 C1343 1.372 . S
C1343 C1342 1.372 . S
C1343 C1344 1.400 . S
C1343 C1348 1.490 . S
C1344 H1334 0.930 . S
C1344 C1343 1.400 . S
C1344 C1347 1.386 . S
H1345 C1361 0.930 . S
H1346 C1362 0.931 . S
C1347 H1335 0.929 . S
C1347 C1341 1.390 . S
C1347 C1344 1.386 . S
C1348 C1343 1.490 . S
C1348 C1350 1.395 . S
C1348 C1351 1.403 . S
H1349 C1355 0.930 . S
C1350 H1336 0.930 . S
C1350 C1348 1.395 . S
C1350 C1353 1.403 . S
C1351 C1348 1.403 . S
C1351 C1352 1.524 . S
C1351 C1355 1.400 . S
C1352 H1337 0.960 . S
C1352 H1338 0.960 . S
C1352 H1339 0.960 . S
C1352 C1351 1.524 . S
C1353 C1350 1.403 . S
C1353 C1354 1.392 . S
C1353 C1357 1.495 . S
C1354 C1353 1.392 . S
C1354 C1355 1.385 . S
C1354 C1356 1.478 . S
C1355 H1349 0.930 . S
C1355 C1351 1.400 . S
C1355 C1354 1.385 . S
C1356 C1354 1.478 . S
C1356 C1358 1.381 . S
C1356 C1362 1.383 . S
C1357 C1353 1.495 . S
C1357 H1363 0.959 . S
C1357 H1364 0.961 . S
C1357 H1365 0.960 . S
C1358 C1356 1.381 . S
C1358 C1359 1.394 . S
C1358 H1366 0.930 . S
C1359 C1358 1.394 . S
C1359 C1360 1.383 . S
C1359 H1367 0.929 . S
C1360 C1359 1.383 . S
C1360 C1361 1.377 . S
C1361 H1345 0.930 . S
C1361 C1360 1.377 . S
C1361 C1362 1.379 . S
C1362 H1346 0.931 . S
C1362 C1356 1.383 . S
C1362 C1361 1.379 . S
H1363 C1357 0.959 . S
H1364 C1357 0.961 . S
H1365 C1357 0.960 . S
H1366 C1358 0.930 . S
H1367 C1359 0.929 . S
H1368 C1376 0.929 . S
H1369 C1378 0.930 . S
H1370 C1380 0.930 . S
H1371 C1383 0.929 . S
H1372 C1386 0.930 . S
H1373 C1388 0.960 . S
H1374 C1388 0.960 . S
H1375 C1388 0.960 . S
C1376 H1368 0.929 . S
C1376 C1377 1.377 . S
C1376 C1378 1.384 . S
C1377 C1376 1.377 . S
C1377 C1383 1.390 . S
C1378 H1369 0.930 . S
C1378 C1376 1.384 . S
C1378 C1379 1.372 . S
C1379 C1378 1.372 . S
C1379 C1380 1.400 . S
C1379 C1384 1.490 . S
C1380 H1370 0.930 . S
C1380 C1379 1.400 . S
C1380 C1383 1.386 . S
H1381 C1397 0.930 . S
H1382 C1398 0.931 . S
C1383 H1371 0.929 . S
C1383 C1377 1.390 . S
C1383 C1380 1.386 . S
C1384 C1379 1.490 . S
C1384 C1386 1.395 . S
C1384 C1387 1.403 . S
H1385 C1391 0.930 . S
C1386 H1372 0.930 . S
C1386 C1384 1.395 . S
C1386 C1389 1.403 . S
C1387 C1384 1.403 . S
C1387 C1388 1.524 . S
C1387 C1391 1.400 . S
C1388 H1373 0.960 . S
C1388 H1374 0.960 . S
C1388 H1375 0.960 . S
C1388 C1387 1.524 . S
C1389 C1386 1.403 . S
C1389 C1390 1.392 . S
C1389 C1393 1.495 . S
C1390 C1389 1.392 . S
C1390 C1391 1.385 . S
C1390 C1392 1.478 . S
C1391 H1385 0.930 . S
C1391 C1387 1.400 . S
C1391 C1390 1.385 . S
C1392 C1390 1.478 . S
C1392 C1394 1.381 . S
C1392 C1398 1.383 . S
C1393 C1389 1.495 . S
C1393 H1399 0.959 . S
C1393 H1400 0.961 . S
C1393 H1401 0.960 . S
C1394 C1392 1.381 . S
C1394 C1395 1.394 . S
C1394 H1402 0.930 . S
C1395 C1394 1.394 . S
C1395 C1396 1.383 . S
C1395 H1403 0.929 . S
C1396 C1395 1.383 . S
C1396 C1397 1.377 . S
C1397 H1381 0.930 . S
C1397 C1396 1.377 . S
C1397 C1398 1.379 . S
C1398 H1382 0.931 . S
C1398 C1392 1.383 . S
C1398 C1397 1.379 . S
H1399 C1393 0.959 . S
H1400 C1393 0.961 . S
H1401 C1393 0.960 . S
H1402 C1394 0.930 . S
H1403 C1395 0.929 . S
H1404 C1412 0.929 . S
H1405 C1414 0.930 . S
H1406 C1416 0.930 . S
H1407 C1419 0.929 . S
H1408 C1422 0.930 . S
H1409 C1424 0.960 . S
H1410 C1424 0.960 . S
H1411 C1424 0.960 . S
C1412 H1404 0.929 . S
C1412 C1413 1.377 . S
C1412 C1414 1.384 . S
C1413 C1412 1.377 . S
C1413 C1419 1.390 . S
C1414 H1405 0.930 . S
C1414 C1412 1.384 . S
C1414 C1415 1.372 . S
C1415 C1414 1.372 . S
C1415 C1416 1.400 . S
C1415 C1420 1.490 . S
C1416 H1406 0.930 . S
C1416 C1415 1.400 . S
C1416 C1419 1.386 . S
H1417 C1433 0.930 . S
H1418 C1434 0.931 . S
C1419 H1407 0.929 . S
C1419 C1413 1.390 . S
C1419 C1416 1.386 . S
C1420 C1415 1.490 . S
C1420 C1422 1.395 . S
C1420 C1423 1.403 . S
H1421 C1427 0.930 . S
C1422 H1408 0.930 . S
C1422 C1420 1.395 . S
C1422 C1425 1.403 . S
C1423 C1420 1.403 . S
C1423 C1424 1.524 . S
C1423 C1427 1.400 . S
C1424 H1409 0.960 . S
C1424 H1410 0.960 . S
C1424 H1411 0.960 . S
C1424 C1423 1.524 . S
C1425 C1422 1.403 . S
C1425 C1426 1.392 . S
C1425 C1429 1.495 . S
C1426 C1425 1.392 . S
C1426 C1427 1.385 . S
C1426 C1428 1.478 . S
C1427 H1421 0.930 . S
C1427 C1423 1.400 . S
C1427 C1426 1.385 . S
C1428 C1426 1.478 . S
C1428 C1430 1.381 . S
C1428 C1434 1.383 . S
C1429 C1425 1.495 . S
C1429 H1435 0.959 . S
C1429 H1436 0.961 . S
C1429 H1437 0.960 . S
C1430 C1428 1.381 . S
C1430 C1431 1.394 . S
C1430 H1438 0.930 . S
C1431 C1430 1.394 . S
C1431 C1432 1.383 . S
C1431 H1439 0.929 . S
C1432 C1431 1.383 . S
C1432 C1433 1.377 . S
C1433 H1417 0.930 . S
C1433 C1432 1.377 . S
C1433 C1434 1.379 . S
C1434 H1418 0.931 . S
C1434 C1428 1.383 . S
C1434 C1433 1.379 . S
H1435 C1429 0.959 . S
H1436 C1429 0.961 . S
H1437 C1429 0.960 . S
H1438 C1430 0.930 . S
H1439 C1431 0.929 . S
H1440 C1448 0.929 . S
H1441 C1450 0.930 . S
H1442 C1452 0.930 . S
H1443 C1455 0.929 . S
H1444 C1458 0.930 . S
H1445 C1460 0.960 . S
H1446 C1460 0.960 . S
H1447 C1460 0.960 . S
C1448 H1440 0.929 . S
C1448 C1449 1.377 . S
C1448 C1450 1.384 . S
C1449 C1448 1.377 . S
C1449 C1455 1.390 . S
C1450 H1441 0.930 . S
C1450 C1448 1.384 . S
C1450 C1451 1.372 . S
C1451 C1450 1.372 . S
C1451 C1452 1.400 . S
C1451 C1456 1.490 . S
C1452 H1442 0.930 . S
C1452 C1451 1.400 . S
C1452 C1455 1.386 . S
H1453 C1469 0.930 . S
H1454 C1470 0.931 . S
C1455 H1443 0.929 . S
C1455 C1449 1.390 . S
C1455 C1452 1.386 . S
C1456 C1451 1.490 . S
C1456 C1458 1.395 . S
C1456 C1459 1.403 . S
H1457 C1463 0.930 . S
C1458 H1444 0.930 . S
C1458 C1456 1.395 . S
C1458 C1461 1.403 . S
C1459 C1456 1.403 . S
C1459 C1460 1.524 . S
C1459 C1463 1.400 . S
C1460 H1445 0.960 . S
C1460 H1446 0.960 . S
C1460 H1447 0.960 . S
C1460 C1459 1.524 . S
C1461 C1458 1.403 . S
C1461 C1462 1.392 . S
C1461 C1465 1.495 . S
C1462 C1461 1.392 . S
C1462 C1463 1.385 . S
C1462 C1464 1.478 . S
C1463 H1457 0.930 . S
C1463 C1459 1.400 . S
C1463 C1462 1.385 . S
C1464 C1462 1.478 . S
C1464 C1466 1.381 . S
C1464 C1470 1.383 . S
C1465 C1461 1.495 . S
C1465 H1471 0.959 . S
C1465 H1472 0.961 . S
C1465 H1473 0.960 . S
C1466 C1464 1.381 . S
C1466 C1467 1.394 . S
C1466 H1474 0.930 . S
C1467 C1466 1.394 . S
C1467 C1468 1.383 . S
C1467 H1475 0.929 . S
C1468 C1467 1.383 . S
C1468 C1469 1.377 . S
C1469 H1453 0.930 . S
C1469 C1468 1.377 . S
C1469 C1470 1.379 . S
C1470 H1454 0.931 . S
C1470 C1464 1.383 . S
C1470 C1469 1.379 . S
H1471 C1465 0.959 . S
H1472 C1465 0.961 . S
H1473 C1465 0.960 . S
H1474 C1466 0.930 . S
H1475 C1467 0.929 . S
H1476 C1484 0.929 . S
H1477 C1486 0.930 1_556 S
H1478 C1488 0.930 . S
H1479 C1491 0.929 . S
H1480 C1494 0.930 . S
H1481 C1496 0.960 . S
H1482 C1496 0.960 . S
H1483 C1496 0.960 . S
C1484 H1476 0.929 . S
C1484 C1485 1.377 . S
C1484 C1486 1.384 . S
C1485 C1484 1.377 . S
C1485 C1491 1.390 . S
C1486 H1477 0.930 1_554 S
C1486 C1484 1.384 . S
C1486 C1487 1.372 . S
C1487 C1486 1.372 . S
C1487 C1488 1.400 . S
C1487 C1492 1.490 . S
C1488 H1478 0.930 . S
C1488 C1487 1.400 . S
C1488 C1491 1.386 . S
H1489 C1505 0.928 1_554 S
H1490 C1506 0.931 . S
C1491 H1479 0.929 . S
C1491 C1485 1.390 . S
C1491 C1488 1.386 . S
C1492 C1487 1.490 . S
C1492 C1494 1.395 . S
C1492 C1495 1.403 1_554 S
H1493 C1499 0.930 . S
C1494 H1480 0.930 . S
C1494 C1492 1.395 . S
C1494 C1497 1.403 1_455 S
C1495 C1492 1.403 1_556 S
C1495 C1496 1.524 . S
C1495 C1499 1.400 1_455 S
C1496 H1481 0.960 . S
C1496 H1482 0.960 . S
C1496 H1483 0.960 . S
C1496 C1495 1.524 . S
C1497 C1494 1.403 1_655 S
C1497 C1498 1.392 1_554 S
C1497 C1501 1.495 . S
C1498 C1497 1.392 1_556 S
C1498 C1499 1.385 . S
C1498 C1500 1.478 . S
C1499 H1493 0.930 . S
C1499 C1495 1.400 1_655 S
C1499 C1498 1.385 . S
C1500 C1498 1.478 . S
C1500 C1502 1.381 . S
C1500 C1506 1.383 1_556 S
C1501 C1497 1.495 . S
C1501 H1507 0.959 . S
C1501 H1508 0.961 . S
C1501 H1509 0.960 . S
C1502 C1500 1.381 . S
C1502 C1503 1.394 . S
C1502 H1510 0.930 . S
C1503 C1502 1.394 . S
C1503 C1504 1.383 . S
C1503 H1511 0.929 . S
C1504 C1503 1.383 . S
C1504 C1505 1.377 . S
C1505 H1489 0.928 1_556 S
C1505 C1504 1.377 . S
C1505 C1506 1.379 1_556 S
C1506 H1490 0.931 . S
C1506 C1500 1.383 1_554 S
C1506 C1505 1.379 1_554 S
H1507 C1501 0.959 . S
H1508 C1501 0.961 . S
H1509 C1501 0.960 . S
H1510 C1502 0.930 . S
H1511 C1503 0.929 . S
H1512 C1520 0.929 . S
H1513 C1522 0.930 . S
H1514 C1524 0.921 1_556 S
H1515 C1527 0.929 1_556 S
H1516 C1530 0.930 . S
H1517 C1532 0.960 . S
H1518 C1532 0.960 . S
H1519 C1532 0.960 . S
C1520 H1512 0.929 . S
C1520 C1521 1.377 . S
C1520 C1522 1.384 . S
C1521 C1520 1.377 . S
C1521 C1527 1.390 . S
C1522 H1513 0.930 . S
C1522 C1520 1.384 . S
C1522 C1523 1.372 . S
C1523 C1522 1.372 . S
C1523 C1524 1.406 . S
C1523 C1528 1.490 . S
C1524 H1514 0.921 1_554 S
C1524 C1523 1.406 . S
C1524 C1527 1.388 . S
H1525 C1541 0.930 . S
H1526 C1542 0.931 . S
C1527 H1515 0.929 1_554 S
C1527 C1521 1.390 . S
C1527 C1524 1.388 . S
C1528 C1523 1.490 . S
C1528 C1530 1.395 1_554 S
C1528 C1531 1.403 . S
H1529 C1535 0.930 . S
C1530 H1516 0.930 . S
C1530 C1528 1.395 1_556 S
C1530 C1533 1.403 . S
C1531 C1528 1.403 . S
C1531 C1532 1.524 . S
C1531 C1535 1.400 . S
C1532 H1517 0.960 . S
C1532 H1518 0.960 . S
C1532 H1519 0.960 . S
C1532 C1531 1.524 . S
C1533 C1530 1.403 . S
C1533 C1534 1.392 . S
C1533 C1537 1.495 . S
C1534 C1533 1.392 . S
C1534 C1535 1.385 1_556 S
C1534 C1536 1.478 . S
C1535 H1529 0.930 . S
C1535 C1531 1.400 . S
C1535 C1534 1.385 1_554 S
C1536 C1534 1.478 . S
C1536 C1538 1.381 1_556 S
C1536 C1542 1.383 . S
C1537 C1533 1.495 . S
C1537 H1543 0.959 . S
C1537 H1544 0.961 . S
C1537 H1545 0.960 . S
C1538 C1536 1.381 1_554 S
C1538 C1539 1.394 1_554 S
C1538 H1546 0.930 . S
C1539 C1538 1.394 1_556 S
C1539 C1540 1.383 . S
C1539 H1547 0.929 1_556 S
C1540 C1539 1.383 . S
C1540 C1541 1.377 . S
C1541 H1525 0.930 . S
C1541 C1540 1.377 . S
C1541 C1542 1.379 . S
C1542 H1526 0.931 . S
C1542 C1536 1.383 . S
C1542 C1541 1.379 . S
H1543 C1537 0.959 . S
H1544 C1537 0.961 . S
H1545 C1537 0.960 . S
H1546 C1538 0.930 . S
H1547 C1539 0.929 1_554 S
H1548 C1556 0.929 . S
H1549 C1558 0.930 . S
H1550 C1560 0.930 . S
H1551 C1563 0.929 . S
H1552 C1566 0.930 . S
H1553 C1568 0.960 . S
H1554 C1568 0.960 1_554 S
H1555 C1568 0.960 . S
C1556 H1548 0.929 . S
C1556 C1557 1.377 1_554 S
C1556 C1558 1.384 . S
C1557 C1556 1.377 1_556 S
C1557 C1563 1.390 . S
C1558 H1549 0.930 . S
C1558 C1556 1.384 . S
C1558 C1559 1.372 1_554 S
C1559 C1558 1.372 1_556 S
C1559 C1560 1.400 . S
C1559 C1564 1.490 . S
C1560 H1550 0.930 . S
C1560 C1559 1.400 . S
C1560 C1563 1.386 . S
H1561 C1577 0.930 . S
H1562 C1578 0.931 . S
C1563 H1551 0.929 . S
C1563 C1557 1.390 . S
C1563 C1560 1.386 . S
C1564 C1559 1.490 . S
C1564 C1566 1.395 1_556 S
C1564 C1567 1.403 . S
H1565 C1571 0.930 . S
C1566 H1552 0.930 . S
C1566 C1564 1.395 1_554 S
C1566 C1569 1.403 1_545 S
C1567 C1564 1.403 . S
C1567 C1568 1.524 . S
C1567 C1571 1.400 1_546 S
C1568 H1553 0.960 . S
C1568 H1554 0.960 1_556 S
C1568 H1555 0.960 . S
C1568 C1567 1.524 . S
C1569 C1566 1.403 1_565 S
C1569 C1570 1.392 . S
C1569 C1573 1.495 . S
C1570 C1569 1.392 . S
C1570 C1571 1.385 . S
C1570 C1572 1.478 . S
C1571 H1565 0.930 . S
C1571 C1567 1.400 1_564 S
C1571 C1570 1.385 . S
C1572 C1570 1.478 . S
C1572 C1574 1.381 . S
C1572 C1578 1.383 1_554 S
C1573 C1569 1.495 . S
C1573 H1579 0.959 . S
C1573 H1580 0.955 1_554 S
C1573 H1581 0.960 . S
C1574 C1572 1.381 . S
C1574 C1575 1.394 . S
C1574 H1582 0.930 . S
C1575 C1574 1.394 . S
C1575 C1576 1.383 . S
C1575 H1583 0.929 . S
C1576 C1575 1.383 . S
C1576 C1577 1.377 1_554 S
C1577 H1561 0.930 . S
C1577 C1576 1.377 1_556 S
C1577 C1578 1.379 . S
C1578 H1562 0.931 . S
C1578 C1572 1.383 1_556 S
C1578 C1577 1.379 . S
H1579 C1573 0.959 . S
H1580 C1573 0.955 1_556 S
H1581 C1573 0.960 . S
H1582 C1574 0.930 . S
H1583 C1575 0.929 . S
H1584 C1592 0.929 . S
H1585 C1594 0.930 . S
H1586 C1596 0.930 . S
H1587 C1599 0.929 . S
H1588 C1602 0.930 . S
H1589 C1604 0.960 . S
H1590 C1604 0.960 . S
H1591 C1604 0.960 . S
C1592 H1584 0.929 . S
C1592 C1593 1.377 . S
C1592 C1594 1.384 . S
C1593 C1592 1.377 . S
C1593 C1599 1.390 . S
C1594 H1585 0.930 . S
C1594 C1592 1.384 . S
C1594 C1595 1.372 . S
C1595 C1594 1.372 . S
C1595 C1596 1.400 . S
C1595 C1600 1.490 . S
C1596 H1586 0.930 . S
C1596 C1595 1.400 . S
C1596 C1599 1.386 . S
H1597 C1613 0.930 . S
H1598 C1614 0.931 . S
C1599 H1587 0.929 . S
C1599 C1593 1.390 . S
C1599 C1596 1.386 . S
C1600 C1595 1.490 . S
C1600 C1602 1.395 . S
C1600 C1603 1.403 . S
H1601 C1607 0.930 . S
C1602 H1588 0.930 . S
C1602 C1600 1.395 . S
C1602 C1605 1.403 . S
C1603 C1600 1.403 . S
C1603 C1604 1.524 . S
C1603 C1607 1.400 . S
C1604 H1589 0.960 . S
C1604 H1590 0.960 . S
C1604 H1591 0.960 . S
C1604 C1603 1.524 . S
C1605 C1602 1.403 . S
C1605 C1606 1.392 . S
C1605 C1609 1.495 . S
C1606 C1605 1.392 . S
C1606 C1607 1.385 . S
C1606 C1608 1.478 1_556 S
C1607 H1601 0.930 . S
C1607 C1603 1.400 . S
C1607 C1606 1.385 . S
C1608 C1606 1.478 1_554 S
C1608 C1610 1.381 . S
C1608 C1614 1.383 . S
C1609 C1605 1.495 . S
C1609 H1615 0.959 . S
C1609 H1616 0.961 . S
C1609 H1617 0.960 . S
C1610 C1608 1.381 . S
C1610 C1611 1.394 . S
C1610 H1618 0.930 . S
C1611 C1610 1.394 . S
C1611 C1612 1.383 . S
C1611 H1619 0.929 . S
C1612 C1611 1.383 . S
C1612 C1613 1.377 . S
C1613 H1597 0.930 . S
C1613 C1612 1.377 . S
C1613 C1614 1.379 . S
C1614 H1598 0.931 . S
C1614 C1608 1.383 . S
C1614 C1613 1.379 . S
H1615 C1609 0.959 . S
H1616 C1609 0.961 . S
H1617 C1609 0.960 . S
H1618 C1610 0.930 . S
H1619 C1611 0.929 . S
H1620 C1628 0.929 . S
H1621 C1630 0.930 . S
H1622 C1632 0.930 . S
H1623 C1635 0.929 . S
H1624 C1638 0.930 . S
H1625 C1640 0.960 . S
H1626 C1640 0.960 . S
H1627 C1640 0.960 . S
C1628 H1620 0.929 . S
C1628 C1629 1.377 . S
C1628 C1630 1.384 . S
C1629 C1628 1.377 . S
C1629 C1635 1.390 . S
C1630 H1621 0.930 . S
C1630 C1628 1.384 . S
C1630 C1631 1.372 . S
C1631 C1630 1.372 . S
C1631 C1632 1.400 . S
C1631 C1636 1.490 . S
C1632 H1622 0.930 . S
C1632 C1631 1.400 . S
C1632 C1635 1.386 . S
H1633 C1649 0.930 . S
H1634 C1650 0.931 . S
C1635 H1623 0.929 . S
C1635 C1629 1.390 . S
C1635 C1632 1.386 . S
C1636 C1631 1.490 . S
C1636 C1638 1.395 . S
C1636 C1639 1.403 . S
H1637 C1643 0.930 . S
C1638 H1624 0.930 . S
C1638 C1636 1.395 . S
C1638 C1641 1.403 . S
C1639 C1636 1.403 . S
C1639 C1640 1.524 . S
C1639 C1643 1.400 . S
C1640 H1625 0.960 . S
C1640 H1626 0.960 . S
C1640 H1627 0.960 . S
C1640 C1639 1.524 . S
C1641 C1638 1.403 . S
C1641 C1642 1.392 . S
C1641 C1645 1.495 . S
C1642 C1641 1.392 . S
C1642 C1643 1.385 . S
C1642 C1644 1.478 1_556 S
C1643 H1637 0.930 . S
C1643 C1639 1.400 . S
C1643 C1642 1.385 . S
C1644 C1642 1.478 1_554 S
C1644 C1646 1.381 . S
C1644 C1650 1.383 . S
C1645 C1641 1.495 . S
C1645 H1651 0.959 . S
C1645 H1652 0.961 . S
C1645 H1653 0.960 . S
C1646 C1644 1.381 . S
C1646 C1647 1.394 . S
C1646 H1654 0.930 . S
C1647 C1646 1.394 . S
C1647 C1648 1.383 . S
C1647 H1655 0.929 . S
C1648 C1647 1.383 . S
C1648 C1649 1.377 . S
C1649 H1633 0.930 . S
C1649 C1648 1.377 . S
C1649 C1650 1.379 . S
C1650 H1634 0.931 . S
C1650 C1644 1.383 . S
C1650 C1649 1.379 . S
H1651 C1645 0.959 . S
H1652 C1645 0.961 . S
H1653 C1645 0.960 . S
H1654 C1646 0.930 . S
H1655 C1647 0.929 . S
H1656 C1664 0.929 . S
H1657 C1666 0.930 . S
H1658 C1668 0.930 . S
H1659 C1671 0.929 . S
H1660 C1674 0.930 . S
H1661 C1676 0.960 . S
H1662 C1676 0.960 . S
H1663 C1676 0.960 . S
C1664 H1656 0.929 . S
C1664 C1665 1.377 . S
C1664 C1666 1.384 . S
C1665 C1664 1.377 . S
C1665 C1671 1.390 . S
C1666 H1657 0.930 . S
C1666 C1664 1.384 . S
C1666 C1667 1.372 . S
C1667 C1666 1.372 . S
C1667 C1668 1.400 . S
C1667 C1672 1.490 . S
C1668 H1658 0.930 . S
C1668 C1667 1.400 . S
C1668 C1671 1.386 . S
H1669 C1685 0.930 . S
H1670 C1686 0.931 . S
C1671 H1659 0.929 . S
C1671 C1665 1.390 . S
C1671 C1668 1.386 . S
C1672 C1667 1.490 . S
C1672 C1674 1.395 . S
C1672 C1675 1.403 . S
H1673 C1679 0.930 . S
C1674 H1660 0.930 . S
C1674 C1672 1.395 . S
C1674 C1677 1.403 . S
C1675 C1672 1.403 . S
C1675 C1676 1.524 . S
C1675 C1679 1.400 . S
C1676 H1661 0.960 . S
C1676 H1662 0.960 . S
C1676 H1663 0.960 . S
C1676 C1675 1.524 . S
C1677 C1674 1.403 . S
C1677 C1678 1.392 . S
C1677 C1681 1.495 . S
C1678 C1677 1.392 . S
C1678 C1679 1.385 . S
C1678 C1680 1.478 1_556 S
C1679 H1673 0.930 . S
C1679 C1675 1.400 . S
C1679 C1678 1.385 . S
C1680 C1678 1.478 1_554 S
C1680 C1682 1.381 . S
C1680 C1686 1.383 . S
C1681 C1677 1.495 . S
C1681 H1687 0.959 . S
C1681 H1688 0.961 . S
C1681 H1689 0.960 . S
C1682 C1680 1.381 . S
C1682 C1683 1.394 . S
C1682 H1690 0.930 . S
C1683 C1682 1.394 . S
C1683 C1684 1.383 . S
C1683 H1691 0.929 . S
C1684 C1683 1.383 . S
C1684 C1685 1.377 . S
C1685 H1669 0.930 . S
C1685 C1684 1.377 . S
C1685 C1686 1.379 . S
C1686 H1670 0.931 . S
C1686 C1680 1.383 . S
C1686 C1685 1.379 . S
H1687 C1681 0.959 . S
H1688 C1681 0.961 . S
H1689 C1681 0.960 . S
H1690 C1682 0.930 . S
H1691 C1683 0.929 . S
H1692 C1700 0.929 . S
H1693 C1702 0.930 . S
H1694 C1704 0.930 . S
H1695 C1707 0.929 . S
H1696 C1710 0.930 . S
H1697 C1712 0.960 . S
H1698 C1712 0.960 . S
H1699 C1712 0.960 . S
C1700 H1692 0.929 . S
C1700 C1701 1.377 . S
C1700 C1702 1.384 . S
C1701 C1700 1.377 . S
C1701 C1707 1.390 . S
C1702 H1693 0.930 . S
C1702 C1700 1.384 . S
C1702 C1703 1.372 . S
C1703 C1702 1.372 . S
C1703 C1704 1.400 . S
C1703 C1708 1.490 1_556 S
C1704 H1694 0.930 . S
C1704 C1703 1.400 . S
C1704 C1707 1.386 . S
H1705 C1721 0.930 . S
H1706 C1722 0.931 . S
C1707 H1695 0.929 . S
C1707 C1701 1.390 . S
C1707 C1704 1.386 . S
C1708 C1703 1.490 1_554 S
C1708 C1710 1.395 . S
C1708 C1711 1.403 . S
H1709 C1715 0.930 . S
C1710 H1696 0.930 . S
C1710 C1708 1.395 . S
C1710 C1713 1.403 . S
C1711 C1708 1.403 . S
C1711 C1712 1.524 . S
C1711 C1715 1.400 . S
C1712 H1697 0.960 . S
C1712 H1698 0.960 . S
C1712 H1699 0.960 . S
C1712 C1711 1.524 . S
C1713 C1710 1.403 . S
C1713 C1714 1.392 . S
C1713 C1717 1.495 . S
C1714 C1713 1.392 . S
C1714 C1715 1.385 . S
C1714 C1716 1.478 . S
C1715 H1709 0.930 . S
C1715 C1711 1.400 . S
C1715 C1714 1.385 . S
C1716 C1714 1.478 . S
C1716 C1718 1.381 . S
C1716 C1722 1.383 . S
C1717 C1713 1.495 . S
C1717 H1723 0.959 . S
C1717 H1724 0.961 . S
C1717 H1725 0.960 . S
C1718 C1716 1.381 . S
C1718 C1719 1.394 . S
C1718 H1726 0.930 . S
C1719 C1718 1.394 . S
C1719 C1720 1.383 . S
C1719 H1727 0.929 . S
C1720 C1719 1.383 . S
C1720 C1721 1.377 . S
C1721 H1705 0.930 . S
C1721 C1720 1.377 . S
C1721 C1722 1.379 . S
C1722 H1706 0.931 . S
C1722 C1716 1.383 . S
C1722 C1721 1.379 . S
H1723 C1717 0.959 . S
H1724 C1717 0.961 . S
H1725 C1717 0.960 . S
H1726 C1718 0.930 . S
H1727 C1719 0.929 . S
H1728 C1736 0.929 . S
H1729 C1738 0.930 . S
H1730 C1740 0.930 . S
H1731 C1743 0.929 . S
H1732 C1746 0.930 . S
H1733 C1748 0.960 . S
H1734 C1748 0.960 . S
H1735 C1748 0.960 . S
C1736 H1728 0.929 . S
C1736 C1737 1.377 . S
C1736 C1738 1.384 . S
C1737 C1736 1.377 . S
C1737 C1743 1.390 . S
C1738 H1729 0.930 . S
C1738 C1736 1.384 . S
C1738 C1739 1.372 . S
C1739 C1738 1.372 . S
C1739 C1740 1.400 . S
C1739 C1744 1.490 1_556 S
C1740 H1730 0.930 . S
C1740 C1739 1.400 . S
C1740 C1743 1.386 . S
H1741 C1757 0.930 . S
H1742 C1758 0.931 . S
C1743 H1731 0.929 . S
C1743 C1737 1.390 . S
C1743 C1740 1.386 . S
C1744 C1739 1.490 1_554 S
C1744 C1746 1.395 . S
C1744 C1747 1.403 . S
H1745 C1751 0.930 . S
C1746 H1732 0.930 . S
C1746 C1744 1.395 . S
C1746 C1749 1.403 . S
C1747 C1744 1.403 . S
C1747 C1748 1.524 . S
C1747 C1751 1.400 . S
C1748 H1733 0.960 . S
C1748 H1734 0.960 . S
C1748 H1735 0.960 . S
C1748 C1747 1.524 . S
C1749 C1746 1.403 . S
C1749 C1750 1.392 . S
C1749 C1753 1.495 . S
C1750 C1749 1.392 . S
C1750 C1751 1.385 . S
C1750 C1752 1.478 . S
C1751 H1745 0.930 . S
C1751 C1747 1.400 . S
C1751 C1750 1.385 . S
C1752 C1750 1.478 . S
C1752 C1754 1.381 . S
C1752 C1758 1.383 . S
C1753 C1749 1.495 . S
C1753 H1759 0.959 . S
C1753 H1760 0.961 . S
C1753 H1761 0.960 . S
C1754 C1752 1.381 . S
C1754 C1755 1.394 . S
C1754 H1762 0.930 . S
C1755 C1754 1.394 . S
C1755 C1756 1.383 . S
C1755 H1763 0.929 . S
C1756 C1755 1.383 . S
C1756 C1757 1.377 . S
C1757 H1741 0.930 . S
C1757 C1756 1.377 . S
C1757 C1758 1.379 . S
C1758 H1742 0.931 . S
C1758 C1752 1.383 . S
C1758 C1757 1.379 . S
H1759 C1753 0.959 . S
H1760 C1753 0.961 . S
H1761 C1753 0.960 . S
H1762 C1754 0.930 . S
H1763 C1755 0.929 . S
H1764 C1772 0.929 . S
H1765 C1774 0.930 . S
H1766 C1776 0.930 . S
H1767 C1779 0.929 . S
H1768 C1782 0.930 . S
H1769 C1784 0.960 . S
H1770 C1784 0.960 . S
H1771 C1784 0.960 . S
C1772 H1764 0.929 . S
C1772 C1773 1.377 . S
C1772 C1774 1.384 . S
C1773 C1772 1.377 . S
C1773 C1779 1.390 . S
C1774 H1765 0.930 . S
C1774 C1772 1.384 . S
C1774 C1775 1.372 . S
C1775 C1774 1.372 . S
C1775 C1776 1.400 . S
C1775 C1780 1.490 . S
C1776 H1766 0.930 . S
C1776 C1775 1.400 . S
C1776 C1779 1.386 . S
H1777 C1793 0.930 . S
H1778 C1794 0.931 . S
C1779 H1767 0.929 . S
C1779 C1773 1.390 . S
C1779 C1776 1.386 . S
C1780 C1775 1.490 . S
C1780 C1782 1.395 . S
C1780 C1783 1.403 . S
H1781 C1787 0.930 . S
C1782 H1768 0.930 . S
C1782 C1780 1.395 . S
C1782 C1785 1.403 . S
C1783 C1780 1.403 . S
C1783 C1784 1.524 . S
C1783 C1787 1.400 . S
C1784 H1769 0.960 . S
C1784 H1770 0.960 . S
C1784 H1771 0.960 . S
C1784 C1783 1.524 . S
C1785 C1782 1.403 . S
C1785 C1786 1.392 . S
C1785 C1789 1.495 . S
C1786 C1785 1.392 . S
C1786 C1787 1.385 . S
C1786 C1788 1.478 1_554 S
C1787 H1781 0.930 . S
C1787 C1783 1.400 . S
C1787 C1786 1.385 . S
C1788 C1786 1.478 1_556 S
C1788 C1790 1.381 . S
C1788 C1794 1.383 . S
C1789 C1785 1.495 . S
C1789 H1795 0.959 . S
C1789 H1796 0.961 . S
C1789 H1797 0.960 . S
C1790 C1788 1.381 . S
C1790 C1791 1.394 . S
C1790 H1798 0.930 . S
C1791 C1790 1.394 . S
C1791 C1792 1.383 . S
C1791 H1799 0.929 . S
C1792 C1791 1.383 . S
C1792 C1793 1.377 . S
C1793 H1777 0.930 . S
C1793 C1792 1.377 . S
C1793 C1794 1.379 . S
C1794 H1778 0.931 . S
C1794 C1788 1.383 . S
C1794 C1793 1.379 . S
H1795 C1789 0.959 . S
H1796 C1789 0.961 . S
H1797 C1789 0.960 . S
H1798 C1790 0.930 . S
H1799 C1791 0.929 . S
H1800 C1808 0.929 1_556 S
H1801 C1810 0.930 . S
H1802 C1812 0.930 . S
H1803 C1815 0.929 1_556 S
H1804 C1818 0.930 . S
H1805 C1820 0.960 . S
H1806 C1820 0.960 . S
H1807 C1820 0.960 . S
C1808 H1800 0.929 1_554 S
C1808 C1809 1.377 1_554 S
C1808 C1810 1.384 . S
C1809 C1808 1.377 1_556 S
C1809 C1815 1.390 1_556 S
C1810 H1801 0.930 . S
C1810 C1808 1.384 . S
C1810 C1811 1.372 . S
C1811 C1810 1.372 . S
C1811 C1812 1.400 . S
C1811 C1816 1.490 . S
C1812 H1802 0.930 . S
C1812 C1811 1.400 . S
C1812 C1815 1.386 . S
H1813 C1829 0.930 . S
H1814 C1830 0.931 . S
C1815 H1803 0.929 1_554 S
C1815 C1809 1.390 1_554 S
C1815 C1812 1.386 . S
C1816 C1811 1.490 . S
C1816 C1818 1.395 . S
C1816 C1819 1.403 . S
H1817 C1823 0.930 . S
C1818 H1804 0.930 . S
C1818 C1816 1.395 . S
C1818 C1821 1.403 . S
C1819 C1816 1.403 . S
C1819 C1820 1.524 . S
C1819 C1823 1.400 . S
C1820 H1805 0.960 . S
C1820 H1806 0.960 . S
C1820 H1807 0.960 . S
C1820 C1819 1.524 . S
C1821 C1818 1.403 . S
C1821 C1822 1.392 . S
C1821 C1825 1.495 . S
C1822 C1821 1.392 . S
C1822 C1823 1.385 . S
C1822 C1824 1.478 . S
C1823 H1817 0.930 . S
C1823 C1819 1.400 . S
C1823 C1822 1.385 . S
C1824 C1822 1.478 . S
C1824 C1826 1.381 . S
C1824 C1830 1.383 . S
C1825 C1821 1.495 . S
C1825 H1831 0.959 . S
C1825 H1832 0.961 . S
C1825 H1833 0.960 . S
C1826 C1824 1.381 . S
C1826 C1827 1.394 . S
C1826 H1834 0.930 . S
C1827 C1826 1.394 . S
C1827 C1828 1.383 . S
C1827 H1835 0.929 . S
C1828 C1827 1.383 . S
C1828 C1829 1.377 . S
C1829 H1813 0.930 . S
C1829 C1828 1.377 . S
C1829 C1830 1.379 . S
C1830 H1814 0.931 . S
C1830 C1824 1.383 . S
C1830 C1829 1.379 . S
H1831 C1825 0.959 . S
H1832 C1825 0.961 . S
H1833 C1825 0.960 . S
H1834 C1826 0.930 . S
H1835 C1827 0.929 . S
H1836 C1844 0.929 . S
H1837 C1846 0.930 . S
H1838 C1848 0.930 . S
H1839 C1851 0.929 . S
H1840 C1854 0.930 . S
H1841 C1856 0.960 . S
H1842 C1856 0.960 . S
H1843 C1856 0.960 . S
C1844 H1836 0.929 . S
C1844 C1845 1.377 . S
C1844 C1846 1.384 . S
C1845 C1844 1.377 . S
C1845 C1851 1.390 . S
C1846 H1837 0.930 . S
C1846 C1844 1.384 . S
C1846 C1847 1.372 . S
C1847 C1846 1.372 . S
C1847 C1848 1.400 . S
C1847 C1852 1.490 . S
C1848 H1838 0.930 . S
C1848 C1847 1.400 . S
C1848 C1851 1.386 . S
H1849 C1865 0.930 1_556 S
H1850 C1866 0.931 . S
C1851 H1839 0.929 . S
C1851 C1845 1.390 . S
C1851 C1848 1.386 . S
C1852 C1847 1.490 . S
C1852 C1854 1.395 . S
C1852 C1855 1.403 . S
H1853 C1859 0.930 . S
C1854 H1840 0.930 . S
C1854 C1852 1.395 . S
C1854 C1857 1.403 . S
C1855 C1852 1.403 . S
C1855 C1856 1.524 . S
C1855 C1859 1.400 . S
C1856 H1841 0.960 . S
C1856 H1842 0.960 . S
C1856 H1843 0.960 . S
C1856 C1855 1.524 . S
C1857 C1854 1.403 . S
C1857 C1858 1.392 . S
C1857 C1861 1.495 . S
C1858 C1857 1.392 . S
C1858 C1859 1.385 . S
C1858 C1860 1.478 . S
C1859 H1853 0.930 . S
C1859 C1855 1.400 . S
C1859 C1858 1.385 . S
C1860 C1858 1.478 . S
C1860 C1862 1.381 . S
C1860 C1866 1.383 . S
C1861 C1857 1.495 . S
C1861 H1867 0.959 . S
C1861 H1868 0.961 . S
C1861 H1869 0.960 . S
C1862 C1860 1.381 . S
C1862 C1863 1.394 . S
C1862 H1870 0.930 . S
C1863 C1862 1.394 . S
C1863 C1864 1.383 1_554 S
C1863 H1871 0.929 1_554 S
C1864 C1863 1.383 1_556 S
C1864 C1865 1.377 1_556 S
C1865 H1849 0.930 1_554 S
C1865 C1864 1.377 1_554 S
C1865 C1866 1.379 . S
C1866 H1850 0.931 . S
C1866 C1860 1.383 . S
C1866 C1865 1.379 . S
H1867 C1861 0.959 . S
H1868 C1861 0.961 . S
H1869 C1861 0.960 . S
H1870 C1862 0.930 . S
H1871 C1863 0.929 1_556 S
H1872 C1880 0.929 . S
H1873 C1882 0.930 . S
H1874 C1884 0.930 . S
H1875 C1887 0.929 . S
H1876 C1890 0.930 . S
H1877 C1892 0.960 . S
H1878 C1892 0.960 . S
H1879 C1892 0.960 . S
C1880 H1872 0.929 . S
C1880 C1881 1.377 . S
C1880 C1882 1.384 . S
C1881 C1880 1.377 . S
C1881 C1887 1.390 . S
C1882 H1873 0.930 . S
C1882 C1880 1.384 . S
C1882 C1883 1.372 . S
C1883 C1882 1.372 . S
C1883 C1884 1.400 . S
C1883 C1888 1.490 . S
C1884 H1874 0.930 . S
C1884 C1883 1.400 . S
C1884 C1887 1.386 . S
H1885 C1901 0.930 1_556 S
H1886 C1902 0.931 . S
C1887 H1875 0.929 . S
C1887 C1881 1.390 . S
C1887 C1884 1.386 . S
C1888 C1883 1.490 . S
C1888 C1890 1.395 . S
C1888 C1891 1.403 . S
H1889 C1895 0.930 . S
C1890 H1876 0.930 . S
C1890 C1888 1.395 . S
C1890 C1893 1.403 . S
C1891 C1888 1.403 . S
C1891 C1892 1.524 . S
C1891 C1895 1.400 . S
C1892 H1877 0.960 . S
C1892 H1878 0.960 . S
C1892 H1879 0.960 . S
C1892 C1891 1.524 . S
C1893 C1890 1.403 . S
C1893 C1894 1.392 . S
C1893 C1897 1.495 . S
C1894 C1893 1.392 . S
C1894 C1895 1.385 . S
C1894 C1896 1.478 . S
C1895 H1889 0.930 . S
C1895 C1891 1.400 . S
C1895 C1894 1.385 . S
C1896 C1894 1.478 . S
C1896 C1898 1.381 . S
C1896 C1902 1.383 . S
C1897 C1893 1.495 . S
C1897 H1903 0.959 . S
C1897 H1904 0.961 . S
C1897 H1905 0.960 . S
C1898 C1896 1.381 . S
C1898 C1899 1.394 . S
C1898 H1906 0.930 . S
C1899 C1898 1.394 . S
C1899 C1900 1.383 1_554 S
C1899 H1907 0.929 1_554 S
C1900 C1899 1.383 1_556 S
C1900 C1901 1.377 1_556 S
C1901 H1885 0.930 1_554 S
C1901 C1900 1.377 1_554 S
C1901 C1902 1.379 . S
C1902 H1886 0.931 . S
C1902 C1896 1.383 . S
C1902 C1901 1.379 . S
H1903 C1897 0.959 . S
H1904 C1897 0.961 . S
H1905 C1897 0.960 . S
H1906 C1898 0.930 . S
H1907 C1899 0.929 1_556 S
H1908 C1916 0.929 . S
H1909 C1918 0.930 . S
H1910 C1920 0.930 . S
H1911 C1923 0.929 . S
H1912 C1926 0.930 . S
H1913 C1928 0.960 . S
H1914 C1928 0.960 . S
H1915 C1928 0.960 . S
C1916 H1908 0.929 . S
C1916 C1917 1.377 . S
C1916 C1918 1.384 . S
C1917 C1916 1.377 . S
C1917 C1923 1.390 . S
C1918 H1909 0.930 . S
C1918 C1916 1.384 . S
C1918 C1919 1.372 . S
C1919 C1918 1.372 . S
C1919 C1920 1.400 . S
C1919 C1924 1.490 . S
C1920 H1910 0.930 . S
C1920 C1919 1.400 . S
C1920 C1923 1.386 . S
H1921 C1937 0.930 . S
H1922 C1938 0.931 . S
C1923 H1911 0.929 . S
C1923 C1917 1.390 . S
C1923 C1920 1.386 . S
C1924 C1919 1.490 . S
C1924 C1926 1.395 . S
C1924 C1927 1.403 . S
H1925 C1931 0.930 . S
C1926 H1912 0.930 . S
C1926 C1924 1.395 . S
C1926 C1929 1.403 . S
C1927 C1924 1.403 . S
C1927 C1928 1.524 . S
C1927 C1931 1.400 . S
C1928 H1913 0.960 . S
C1928 H1914 0.960 . S
C1928 H1915 0.960 . S
C1928 C1927 1.524 . S
C1929 C1926 1.403 . S
C1929 C1930 1.392 . S
C1929 C1933 1.495 . S
C1930 C1929 1.392 . S
C1930 C1931 1.385 . S
C1930 C1932 1.478 . S
C1931 H1925 0.930 . S
C1931 C1927 1.400 . S
C1931 C1930 1.385 . S
C1932 C1930 1.478 . S
C1932 C1934 1.381 . S
C1932 C1938 1.383 . S
C1933 C1929 1.495 . S
C1933 H1939 0.959 . S
C1933 H1940 0.961 . S
C1933 H1941 0.960 . S
C1934 C1932 1.381 . S
C1934 C1935 1.394 . S
C1934 H1942 0.930 . S
C1935 C1934 1.394 . S
C1935 C1936 1.383 . S
C1935 H1943 0.929 . S
C1936 C1935 1.383 . S
C1936 C1937 1.377 . S
C1937 H1921 0.930 . S
C1937 C1936 1.377 . S
C1937 C1938 1.379 . S
C1938 H1922 0.931 . S
C1938 C1932 1.383 . S
C1938 C1937 1.379 . S
H1939 C1933 0.959 . S
H1940 C1933 0.961 . S
H1941 C1933 0.960 . S
H1942 C1934 0.930 . S
H1943 C1935 0.929 . S
H1944 C1952 0.929 . S
H1945 C1954 0.930 . S
H1946 C1956 0.930 . S
H1947 C1959 0.929 . S
H1948 C1962 0.930 . S
H1949 C1964 0.960 . S
H1950 C1964 0.960 . S
H1951 C1964 0.960 . S
C1952 H1944 0.929 . S
C1952 C1953 1.377 . S
C1952 C1954 1.384 . S
C1953 C1952 1.377 . S
C1953 C1959 1.390 . S
C1954 H1945 0.930 . S
C1954 C1952 1.384 . S
C1954 C1955 1.372 . S
C1955 C1954 1.372 . S
C1955 C1956 1.400 . S
C1955 C1960 1.490 . S
C1956 H1946 0.930 . S
C1956 C1955 1.400 . S
C1956 C1959 1.386 . S
H1957 C1973 0.930 . S
H1958 C1974 0.931 . S
C1959 H1947 0.929 . S
C1959 C1953 1.390 . S
C1959 C1956 1.386 . S
C1960 C1955 1.490 . S
C1960 C1962 1.395 . S
C1960 C1963 1.403 . S
H1961 C1967 0.930 . S
C1962 H1948 0.930 . S
C1962 C1960 1.395 . S
C1962 C1965 1.403 . S
C1963 C1960 1.403 . S
C1963 C1964 1.524 . S
C1963 C1967 1.400 . S
C1964 H1949 0.960 . S
C1964 H1950 0.960 . S
C1964 H1951 0.960 . S
C1964 C1963 1.524 . S
C1965 C1962 1.403 . S
C1965 C1966 1.392 . S
C1965 C1969 1.495 . S
C1966 C1965 1.392 . S
C1966 C1967 1.385 . S
C1966 C1968 1.478 . S
C1967 H1961 0.930 . S
C1967 C1963 1.400 . S
C1967 C1966 1.385 . S
C1968 C1966 1.478 . S
C1968 C1970 1.381 . S
C1968 C1974 1.383 . S
C1969 C1965 1.495 . S
C1969 H1975 0.959 . S
C1969 H1976 0.961 . S
C1969 H1977 0.960 . S
C1970 C1968 1.381 . S
C1970 C1971 1.394 . S
C1970 H1978 0.930 . S
C1971 C1970 1.394 . S
C1971 C1972 1.383 . S
C1971 H1979 0.929 . S
C1972 C1971 1.383 . S
C1972 C1973 1.377 . S
C1973 H1957 0.930 . S
C1973 C1972 1.377 . S
C1973 C1974 1.379 . S
C1974 H1958 0.931 . S
C1974 C1968 1.383 . S
C1974 C1973 1.379 . S
H1975 C1969 0.959 . S
H1976 C1969 0.961 . S
H1977 C1969 0.960 . S
H1978 C1970 0.930 . S
H1979 C1971 0.929 . S
H1980 C1988 0.929 . S
H1981 C1990 0.930 . S
H1982 C1992 0.930 . S
H1983 C1995 0.929 . S
H1984 C1998 0.930 . S
H1985 C2000 0.960 . S
H1986 C2000 0.960 . S
H1987 C2000 0.960 . S
C1988 H1980 0.929 . S
C1988 C1989 1.377 . S
C1988 C1990 1.384 . S
C1989 C1988 1.377 . S
C1989 C1995 1.390 . S
C1990 H1981 0.930 . S
C1990 C1988 1.384 . S
C1990 C1991 1.372 . S
C1991 C1990 1.372 . S
C1991 C1992 1.400 . S
C1991 C1996 1.490 . S
C1992 H1982 0.930 . S
C1992 C1991 1.400 . S
C1992 C1995 1.386 . S
H1993 C2009 0.930 . S
H1994 C2010 0.931 . S
C1995 H1983 0.929 . S
C1995 C1989 1.390 . S
C1995 C1992 1.386 . S
C1996 C1991 1.490 . S
C1996 C1998 1.395 . S
C1996 C1999 1.403 . S
H1997 C2003 0.930 . S
C1998 H1984 0.930 . S
C1998 C1996 1.395 . S
C1998 C2001 1.403 . S
C1999 C1996 1.403 . S
C1999 C2000 1.524 . S
C1999 C2003 1.400 . S
C2000 H1985 0.960 . S
C2000 H1986 0.960 . S
C2000 H1987 0.960 . S
C2000 C1999 1.524 . S
C2001 C1998 1.403 . S
C2001 C2002 1.392 . S
C2001 C2005 1.495 . S
C2002 C2001 1.392 . S
C2002 C2003 1.385 . S
C2002 C2004 1.478 . S
C2003 H1997 0.930 . S
C2003 C1999 1.400 . S
C2003 C2002 1.385 . S
C2004 C2002 1.478 . S
C2004 C2006 1.381 . S
C2004 C2010 1.383 . S
C2005 C2001 1.495 . S
C2005 H2011 0.959 . S
C2005 H2012 0.961 . S
C2005 H2013 0.960 . S
C2006 C2004 1.381 . S
C2006 C2007 1.394 . S
C2006 H2014 0.930 . S
C2007 C2006 1.394 . S
C2007 C2008 1.383 . S
C2007 H2015 0.929 . S
C2008 C2007 1.383 . S
C2008 C2009 1.377 . S
C2009 H1993 0.930 . S
C2009 C2008 1.377 . S
C2009 C2010 1.379 . S
C2010 H1994 0.931 . S
C2010 C2004 1.383 . S
C2010 C2009 1.379 . S
H2011 C2005 0.959 . S
H2012 C2005 0.961 . S
H2013 C2005 0.960 . S
H2014 C2006 0.930 . S
H2015 C2007 0.929 . S
H2016 C2024 0.929 . S
H2017 C2026 0.930 . S
H2018 C2028 0.930 . S
H2019 C2031 0.929 . S
H2020 C2034 0.930 . S
H2021 C2036 0.960 . S
H2022 C2036 0.960 . S
H2023 C2036 0.960 . S
C2024 H2016 0.929 . S
C2024 C2025 1.377 . S
C2024 C2026 1.384 . S
C2025 C2024 1.377 . S
C2025 C2031 1.390 . S
C2026 H2017 0.930 . S
C2026 C2024 1.384 . S
C2026 C2027 1.372 . S
C2027 C2026 1.372 . S
C2027 C2028 1.400 . S
C2027 C2032 1.490 . S
C2028 H2018 0.930 . S
C2028 C2027 1.400 . S
C2028 C2031 1.386 . S
H2029 C2045 0.930 . S
H2030 C2046 0.931 . S
C2031 H2019 0.929 . S
C2031 C2025 1.390 . S
C2031 C2028 1.386 . S
C2032 C2027 1.490 . S
C2032 C2034 1.395 . S
C2032 C2035 1.403 . S
H2033 C2039 0.930 . S
C2034 H2020 0.930 . S
C2034 C2032 1.395 . S
C2034 C2037 1.403 . S
C2035 C2032 1.403 . S
C2035 C2036 1.524 . S
C2035 C2039 1.400 . S
C2036 H2021 0.960 . S
C2036 H2022 0.960 . S
C2036 H2023 0.960 . S
C2036 C2035 1.524 . S
C2037 C2034 1.403 . S
C2037 C2038 1.392 . S
C2037 C2041 1.495 . S
C2038 C2037 1.392 . S
C2038 C2039 1.385 . S
C2038 C2040 1.478 . S
C2039 H2033 0.930 . S
C2039 C2035 1.400 . S
C2039 C2038 1.385 . S
C2040 C2038 1.478 . S
C2040 C2042 1.381 . S
C2040 C2046 1.383 . S
C2041 C2037 1.495 . S
C2041 H2047 0.959 . S
C2041 H2048 0.961 . S
C2041 H2049 0.960 . S
C2042 C2040 1.381 . S
C2042 C2043 1.394 . S
C2042 H2050 0.930 . S
C2043 C2042 1.394 . S
C2043 C2044 1.383 . S
C2043 H2051 0.929 . S
C2044 C2043 1.383 . S
C2044 C2045 1.377 . S
C2045 H2029 0.930 . S
C2045 C2044 1.377 . S
C2045 C2046 1.379 . S
C2046 H2030 0.931 . S
C2046 C2040 1.383 . S
C2046 C2045 1.379 . S
H2047 C2041 0.959 . S
H2048 C2041 0.961 . S
H2049 C2041 0.960 . S
H2050 C2042 0.930 . S
H2051 C2043 0.929 . S
H2052 C2060 0.929 . S
H2053 C2062 0.930 . S
H2054 C2064 0.930 . S
H2055 C2067 0.929 . S
H2056 C2070 0.930 . S
H2057 C2072 0.960 . S
H2058 C2072 0.960 . S
H2059 C2072 0.960 . S
C2060 H2052 0.929 . S
C2060 C2061 1.377 . S
C2060 C2062 1.384 . S
C2061 C2060 1.377 . S
C2061 C2067 1.390 . S
C2062 H2053 0.930 . S
C2062 C2060 1.384 . S
C2062 C2063 1.372 . S
C2063 C2062 1.372 . S
C2063 C2064 1.400 . S
C2063 C2068 1.490 . S
C2064 H2054 0.930 . S
C2064 C2063 1.400 . S
C2064 C2067 1.386 . S
H2065 C2081 0.930 . S
H2066 C2082 0.931 . S
C2067 H2055 0.929 . S
C2067 C2061 1.390 . S
C2067 C2064 1.386 . S
C2068 C2063 1.490 . S
C2068 C2070 1.395 . S
C2068 C2071 1.403 . S
H2069 C2075 0.930 . S
C2070 H2056 0.930 . S
C2070 C2068 1.395 . S
C2070 C2073 1.403 . S
C2071 C2068 1.403 . S
C2071 C2072 1.524 . S
C2071 C2075 1.400 . S
C2072 H2057 0.960 . S
C2072 H2058 0.960 . S
C2072 H2059 0.960 . S
C2072 C2071 1.524 . S
C2073 C2070 1.403 . S
C2073 C2074 1.392 . S
C2073 C2077 1.495 . S
C2074 C2073 1.392 . S
C2074 C2075 1.385 . S
C2074 C2076 1.478 . S
C2075 H2069 0.930 . S
C2075 C2071 1.400 . S
C2075 C2074 1.385 . S
C2076 C2074 1.478 . S
C2076 C2078 1.381 . S
C2076 C2082 1.383 . S
C2077 C2073 1.495 . S
C2077 H2083 0.959 . S
C2077 H2084 0.961 . S
C2077 H2085 0.960 . S
C2078 C2076 1.381 . S
C2078 C2079 1.394 . S
C2078 H2086 0.930 . S
C2079 C2078 1.394 . S
C2079 C2080 1.383 . S
C2079 H2087 0.929 . S
C2080 C2079 1.383 . S
C2080 C2081 1.377 . S
C2081 H2065 0.930 . S
C2081 C2080 1.377 . S
C2081 C2082 1.379 . S
C2082 H2066 0.931 . S
C2082 C2076 1.383 . S
C2082 C2081 1.379 . S
H2083 C2077 0.959 . S
H2084 C2077 0.961 . S
H2085 C2077 0.960 . S
H2086 C2078 0.930 . S
H2087 C2079 0.929 . S
H2088 C2096 0.929 . S
H2089 C2098 0.930 . S
H2090 C2100 0.930 . S
H2091 C2103 0.929 . S
H2092 C2106 0.930 . S
H2093 C2108 0.960 . S
H2094 C2108 0.960 . S
H2095 C2108 0.960 . S
C2096 H2088 0.929 . S
C2096 C2097 1.377 . S
C2096 C2098 1.384 . S
C2097 C2096 1.377 . S
C2097 C2103 1.390 . S
C2098 H2089 0.930 . S
C2098 C2096 1.384 . S
C2098 C2099 1.372 . S
C2099 C2098 1.372 . S
C2099 C2100 1.400 . S
C2099 C2104 1.490 . S
C2100 H2090 0.930 . S
C2100 C2099 1.400 . S
C2100 C2103 1.386 . S
H2101 C2117 0.930 . S
H2102 C2118 0.931 . S
C2103 H2091 0.929 . S
C2103 C2097 1.390 . S
C2103 C2100 1.386 . S
C2104 C2099 1.490 . S
C2104 C2106 1.395 . S
C2104 C2107 1.403 . S
H2105 C2111 0.930 . S
C2106 H2092 0.930 . S
C2106 C2104 1.395 . S
C2106 C2109 1.403 . S
C2107 C2104 1.403 . S
C2107 C2108 1.524 . S
C2107 C2111 1.400 . S
C2108 H2093 0.960 . S
C2108 H2094 0.960 . S
C2108 H2095 0.960 . S
C2108 C2107 1.524 . S
C2109 C2106 1.403 . S
C2109 C2110 1.392 . S
C2109 C2113 1.495 . S
C2110 C2109 1.392 . S
C2110 C2111 1.385 . S
C2110 C2112 1.478 . S
C2111 H2105 0.930 . S
C2111 C2107 1.400 . S
C2111 C2110 1.385 . S
C2112 C2110 1.478 . S
C2112 C2114 1.381 . S
C2112 C2118 1.383 . S
C2113 C2109 1.495 . S
C2113 H2119 0.959 . S
C2113 H2120 0.961 . S
C2113 H2121 0.960 . S
C2114 C2112 1.381 . S
C2114 C2115 1.394 . S
C2114 H2122 0.930 . S
C2115 C2114 1.394 . S
C2115 C2116 1.383 . S
C2115 H2123 0.929 . S
C2116 C2115 1.383 . S
C2116 C2117 1.377 . S
C2117 H2101 0.930 . S
C2117 C2116 1.377 . S
C2117 C2118 1.379 . S
C2118 H2102 0.931 . S
C2118 C2112 1.383 . S
C2118 C2117 1.379 . S
H2119 C2113 0.959 . S
H2120 C2113 0.961 . S
H2121 C2113 0.960 . S
H2122 C2114 0.930 . S
H2123 C2115 0.929 . S
H2124 C2132 0.929 1_554 S
H2125 C2134 0.930 . S
H2126 C2136 0.930 . S
H2127 C2139 0.929 1_554 S
H2128 C2142 0.930 . S
H2129 C2144 0.960 . S
H2130 C2144 0.960 . S
H2131 C2144 0.960 . S
C2132 H2124 0.929 1_556 S
C2132 C2133 1.377 1_556 S
C2132 C2134 1.384 . S
C2133 C2132 1.377 1_554 S
C2133 C2139 1.390 1_554 S
C2134 H2125 0.930 . S
C2134 C2132 1.384 . S
C2134 C2135 1.372 . S
C2135 C2134 1.372 . S
C2135 C2136 1.400 . S
C2135 C2140 1.490 . S
C2136 H2126 0.930 . S
C2136 C2135 1.400 . S
C2136 C2139 1.386 . S
H2137 C2153 0.930 . S
H2138 C2154 0.931 . S
C2139 H2127 0.929 1_556 S
C2139 C2133 1.390 1_556 S
C2139 C2136 1.386 . S
C2140 C2135 1.490 . S
C2140 C2142 1.395 . S
C2140 C2143 1.403 . S
H2141 C2147 0.930 . S
C2142 H2128 0.930 . S
C2142 C2140 1.395 . S
C2142 C2145 1.403 . S
C2143 C2140 1.403 . S
C2143 C2144 1.524 . S
C2143 C2147 1.400 . S
C2144 H2129 0.960 . S
C2144 H2130 0.960 . S
C2144 H2131 0.960 . S
C2144 C2143 1.524 . S
C2145 C2142 1.403 . S
C2145 C2146 1.392 . S
C2145 C2149 1.495 . S
C2146 C2145 1.392 . S
C2146 C2147 1.385 . S
C2146 C2148 1.478 . S
C2147 H2141 0.930 . S
C2147 C2143 1.400 . S
C2147 C2146 1.385 . S
C2148 C2146 1.478 . S
C2148 C2150 1.381 . S
C2148 C2154 1.383 . S
C2149 C2145 1.495 . S
C2149 H2155 0.959 . S
C2149 H2156 0.961 . S
C2149 H2157 0.960 . S
C2150 C2148 1.381 . S
C2150 C2151 1.394 . S
C2150 H2158 0.930 . S
C2151 C2150 1.394 . S
C2151 C2152 1.383 . S
C2151 H2159 0.929 . S
C2152 C2151 1.383 . S
C2152 C2153 1.377 . S
C2153 H2137 0.930 . S
C2153 C2152 1.377 . S
C2153 C2154 1.379 . S
C2154 H2138 0.931 . S
C2154 C2148 1.383 . S
C2154 C2153 1.379 . S
H2155 C2149 0.959 . S
H2156 C2149 0.961 . S
H2157 C2149 0.960 . S
H2158 C2150 0.930 . S
H2159 C2151 0.929 . S
H2160 C2168 0.929 . S
H2161 C2170 0.930 . S
H2162 C2172 0.930 . S
H2163 C2175 0.929 . S
H2164 C2178 0.930 . S
H2165 C2180 0.960 . S
H2166 C2180 0.960 . S
H2167 C2180 0.960 . S
C2168 H2160 0.929 . S
C2168 C2169 1.377 . S
C2168 C2170 1.384 . S
C2169 C2168 1.377 . S
C2169 C2175 1.390 . S
C2170 H2161 0.930 . S
C2170 C2168 1.384 . S
C2170 C2171 1.372 . S
C2171 C2170 1.372 . S
C2171 C2172 1.400 . S
C2171 C2176 1.490 . S
C2172 H2162 0.930 . S
C2172 C2171 1.400 . S
C2172 C2175 1.386 . S
H2173 C2189 0.930 1_554 S
H2174 C2190 0.931 . S
C2175 H2163 0.929 . S
C2175 C2169 1.390 . S
C2175 C2172 1.386 . S
C2176 C2171 1.490 . S
C2176 C2178 1.395 . S
C2176 C2179 1.403 . S
H2177 C2183 0.930 . S
C2178 H2164 0.930 . S
C2178 C2176 1.395 . S
C2178 C2181 1.403 . S
C2179 C2176 1.403 . S
C2179 C2180 1.524 . S
C2179 C2183 1.400 . S
C2180 H2165 0.960 . S
C2180 H2166 0.960 . S
C2180 H2167 0.960 . S
C2180 C2179 1.524 . S
C2181 C2178 1.403 . S
C2181 C2182 1.392 . S
C2181 C2185 1.495 . S
C2182 C2181 1.392 . S
C2182 C2183 1.385 . S
C2182 C2184 1.478 . S
C2183 H2177 0.930 . S
C2183 C2179 1.400 . S
C2183 C2182 1.385 . S
C2184 C2182 1.478 . S
C2184 C2186 1.381 . S
C2184 C2190 1.383 . S
C2185 C2181 1.495 . S
C2185 H2191 0.959 . S
C2185 H2192 0.961 . S
C2185 H2193 0.960 . S
C2186 C2184 1.381 . S
C2186 C2187 1.394 . S
C2186 H2194 0.930 . S
C2187 C2186 1.394 . S
C2187 C2188 1.383 1_556 S
C2187 H2195 0.929 1_556 S
C2188 C2187 1.383 1_554 S
C2188 C2189 1.377 1_554 S
C2189 H2173 0.930 1_556 S
C2189 C2188 1.377 1_556 S
C2189 C2190 1.379 . S
C2190 H2174 0.931 . S
C2190 C2184 1.383 . S
C2190 C2189 1.379 . S
H2191 C2185 0.959 . S
H2192 C2185 0.961 . S
H2193 C2185 0.960 . S
H2194 C2186 0.930 . S
H2195 C2187 0.929 1_554 S
H2196 C2204 0.929 . S
H2197 C2206 0.930 . S
H2198 C2208 0.930 . S
H2199 C2211 0.929 . S
H2200 C2214 0.930 . S
H2201 C2216 0.960 . S
H2202 C2216 0.960 . S
H2203 C2216 0.960 . S
C2204 H2196 0.929 . S
C2204 C2205 1.377 . S
C2204 C2206 1.384 . S
C2205 C2204 1.377 . S
C2205 C2211 1.390 . S
C2206 H2197 0.930 . S
C2206 C2204 1.384 . S
C2206 C2207 1.372 . S
C2207 C2206 1.372 . S
C2207 C2208 1.400 . S
C2207 C2212 1.490 . S
C2208 H2198 0.930 . S
C2208 C2207 1.400 . S
C2208 C2211 1.386 . S
H2209 C2225 0.921 1_554 S
H2210 C2226 0.931 . S
C2211 H2199 0.929 . S
C2211 C2205 1.390 . S
C2211 C2208 1.386 . S
C2212 C2207 1.490 . S
C2212 C2214 1.395 . S
C2212 C2215 1.403 . S
H2213 C2219 0.930 . S
C2214 H2200 0.930 . S
C2214 C2212 1.395 . S
C2214 C2217 1.403 . S
C2215 C2212 1.403 . S
C2215 C2216 1.524 . S
C2215 C2219 1.400 . S
C2216 H2201 0.960 . S
C2216 H2202 0.960 . S
C2216 H2203 0.960 . S
C2216 C2215 1.524 . S
C2217 C2214 1.403 . S
C2217 C2218 1.392 . S
C2217 C2221 1.495 . S
C2218 C2217 1.392 . S
C2218 C2219 1.385 . S
C2218 C2220 1.478 . S
C2219 H2213 0.930 . S
C2219 C2215 1.400 . S
C2219 C2218 1.385 . S
C2220 C2218 1.478 . S
C2220 C2222 1.381 . S
C2220 C2226 1.383 . S
C2221 C2217 1.495 . S
C2221 H2227 0.959 . S
C2221 H2228 0.961 . S
C2221 H2229 0.960 . S
C2222 C2220 1.381 . S
C2222 C2223 1.394 . S
C2222 H2230 0.930 . S
C2223 C2222 1.394 . S
C2223 C2224 1.383 1_556 S
C2223 H2231 0.929 1_556 S
C2224 C2223 1.383 1_554 S
C2224 C2225 1.377 1_554 S
C2225 H2209 0.921 1_556 S
C2225 C2224 1.377 1_556 S
C2225 C2226 1.379 . S
C2226 H2210 0.931 . S
C2226 C2220 1.383 . S
C2226 C2225 1.379 . S
H2227 C2221 0.959 . S
H2228 C2221 0.961 . S
H2229 C2221 0.960 . S
H2230 C2222 0.930 . S
H2231 C2223 0.929 1_554 S
C621 C104 1.677 . S
C640 C2 1.677 . S
C657 C138 1.678 . S
C676 C36 1.661 . S
C693 C172 1.678 . S
C712 C70 1.659 . S
C729 C67 1.055 . S
C748 C203 1.048 . S
C765 C135 1.054 . S
C784 C101 1.047 . S
C801 C169 1.054 . S
C820 C33 1.055 . S
C837 C308 1.673 . S
C856 C206 1.687 . S
C873 C240 1.675 . S
C892 C342 1.673 . S
C909 C274 1.679 . S
C928 C376 1.666 . S
C945 C271 1.054 . S
C964 C407 1.047 . S
C981 C305 1.056 . S
C1000 C339 1.060 . S
C1017 C373 1.055 . S
C1036 C237 1.058 . S
C1053 C410 1.673 . S
C1072 C512 1.689 . S
C1089 C546 1.674 . S
C1108 C444 1.677 . S
C1125 C478 1.673 . S
C1144 C580 1.687 . S
C1161 C475 1.054 . S
C1180 C611 1.053 . S
C1197 C543 1.054 . S
C1216 C509 1.051 . S
C1233 C441 1.056 . S
C1252 C577 1.059 . S
C1269 C20 1.868 . S
C1288 C598 1.863 . S
C1305 C530 1.866 . S
C1324 C54 1.870 . S
C1341 C564 1.869 . S
C1360 C88 1.856 . S
C1377 C258 1.867 . S
C1396 C122 1.867 . S
C1413 C292 1.868 . S
C1432 C156 1.861 . S
C1449 C224 1.867 . S
C1468 C190 1.854 . S
C1485 C462 1.867 . S
C1504 C326 1.868 . S
C1521 C496 1.867 . S
C1540 C360 1.855 . S
C1557 C394 1.865 . S
C1576 C428 1.871 . S
C1593 C5 1.310 . S
C1612 C9 1.268 . S
C1629 C39 1.308 . S
C1648 C43 1.275 . S
C1665 C73 1.309 . S
C1684 C77 1.196 . S
C1701 C111 1.242 . S
C1720 C107 1.292 . S
C1737 C145 1.238 . S
C1756 C141 1.292 . S
C1773 C175 1.307 . S
C1792 C179 1.266 . S
C1809 C209 1.306 . S
C1828 C213 1.258 . S
C1845 C247 1.245 . S
C1864 C243 1.295 . S
C1881 C281 1.240 . S
C1900 C277 1.320 . S
C1917 C311 1.308 . S
C1936 C315 1.201 . S
C1953 C345 1.308 . S
C1972 C349 1.203 . S
C1989 C379 1.310 . S
C2008 C383 1.197 . S
C2025 C413 1.306 . S
C2044 C417 1.262 . S
C2061 C447 1.310 . S
C2080 C451 1.268 . S
C2097 C485 1.247 . S
C2116 C481 1.301 . S
C2133 C515 1.307 . S
C2152 C519 1.271 . S
C2169 C553 1.231 . S
C2188 C549 1.303 . S
C2205 C587 1.243 . S
C2224 C583 1.317 . S
